# Generated by pormake.
# Topology dia, (4)-cn, num edge types: 1
# Building blocks:
#     Node 0, Type 0, BuildingBlock: QUQFOY_clean_sbu_3, # of connection points: 4
#     Node 1, Type 0, BuildingBlock: QUQFOY_clean_sbu_3, # of connection points: 4
#     Node 2, Type 0, BuildingBlock: QUQFOY_clean_sbu_3, # of connection points: 4
#     Node 3, Type 0, BuildingBlock: QUQFOY_clean_sbu_3, # of connection points: 4
#     Node 4, Type 0, BuildingBlock: QUQFOY_clean_sbu_3, # of connection points: 4
#     Node 5, Type 0, BuildingBlock: QUQFOY_clean_sbu_3, # of connection points: 4
#     Node 6, Type 0, BuildingBlock: QUQFOY_clean_sbu_3, # of connection points: 4
#     Node 7, Type 0, BuildingBlock: QUQFOY_clean_sbu_3, # of connection points: 4
#     Edge 8, Type (0, 0), BuildingBlock: FUNLAD_clean_linker_1, # of connection points: 2
#     Edge 9, Type (0, 0), BuildingBlock: FUNLAD_clean_linker_1, # of connection points: 2
#     Edge 10, Type (0, 0), BuildingBlock: FUNLAD_clean_linker_1, # of connection points: 2
#     Edge 11, Type (0, 0), BuildingBlock: FUNLAD_clean_linker_1, # of connection points: 2
#     Edge 12, Type (0, 0), BuildingBlock: FUNLAD_clean_linker_1, # of connection points: 2
#     Edge 13, Type (0, 0), BuildingBlock: FUNLAD_clean_linker_1, # of connection points: 2
#     Edge 14, Type (0, 0), BuildingBlock: FUNLAD_clean_linker_1, # of connection points: 2
#     Edge 15, Type (0, 0), BuildingBlock: FUNLAD_clean_linker_1, # of connection points: 2
#     Edge 16, Type (0, 0), BuildingBlock: FUNLAD_clean_linker_1, # of connection points: 2
#     Edge 17, Type (0, 0), BuildingBlock: FUNLAD_clean_linker_1, # of connection points: 2
#     Edge 18, Type (0, 0), BuildingBlock: FUNLAD_clean_linker_1, # of connection points: 2
#     Edge 19, Type (0, 0), BuildingBlock: FUNLAD_clean_linker_1, # of connection points: 2
#     Edge 20, Type (0, 0), BuildingBlock: FUNLAD_clean_linker_1, # of connection points: 2
#     Edge 21, Type (0, 0), BuildingBlock: FUNLAD_clean_linker_1, # of connection points: 2
#     Edge 22, Type (0, 0), BuildingBlock: FUNLAD_clean_linker_1, # of connection points: 2
#     Edge 23, Type (0, 0), BuildingBlock: FUNLAD_clean_linker_1, # of connection points: 2
# Relax obj value: 0.120
# Max RMSD: 0.163
# Mean RMSD: 0.163
data_MOF--net-dia--node1-QUQFOY_clean_sbu_3--edge1-FUNLAD_clean_linker_1
_symmetry_space_group_name_H-M    P1
_symmetry_Int_Tables_number       1
_symmetry_cell_setting            triclinic
loop_
_symmetry_equiv_pos_as_xyz
'x, y, z'
_cell_length_a     35.462763
_cell_length_b     35.628105
_cell_length_c     41.68381
_cell_angle_alpha  90.565861
_cell_angle_beta   90.485272
_cell_angle_gamma 93.215464
loop_
_atom_site_label
_atom_site_type_symbol
_atom_site_fract_x
_atom_site_fract_y
_atom_site_fract_z
_atom_type_partial_charge
C0 C 0.04773 0.17277 0.65533 0.0
O1 O 0.03315 0.17548 0.62756 0.0
Cd2 Cd 0.05119 0.14131 0.58075 0.0
O3 O 0.07473 0.15125 0.66021 0.0
Cd4 Cd 0.11276 0.10776 0.62775 0.0
C5 C 0.1431 0.17388 0.57323 0.0
O6 O 0.05857 0.07869 0.59891 0.0
O7 O 0.11285 0.06124 0.5834 0.0
O8 O 0.11714 0.06413 0.67251 0.0
C9 C 0.07715 0.05748 0.58126 0.0
O10 O 0.10989 0.17152 0.56125 0.0
C11 C 0.15292 0.06625 0.67427 0.0
O12 O 0.15105 0.15585 0.5984 0.0
O13 O 0.17028 0.08814 0.6548 0.0
C14 C 0.79295 0.44355 0.84428 0.0
O15 O 0.79272 0.45516 0.87315 0.0
Cd16 Cd 0.83476 0.43714 0.91465 0.0
O17 O 0.81566 0.419 0.83526 0.0
Cd18 Cd 0.86515 0.38156 0.86128 0.0
C19 C 0.80703 0.34429 0.91909 0.0
O20 O 0.89458 0.4362 0.88877 0.0
O21 O 0.91753 0.38354 0.9012 0.0
O22 O 0.89643 0.37959 0.80893 0.0
C23 C 0.91925 0.41905 0.90388 0.0
O24 O 0.81042 0.37599 0.93349 0.0
C25 C 0.90209 0.34476 0.8099 0.0
O26 O 0.8214 0.33964 0.89156 0.0
O27 O 0.89012 0.32698 0.83436 0.0
C28 C 0.56146 0.15413 0.14666 0.0
O29 O 0.54365 0.1534 0.12007 0.0
Cd30 Cd 0.56163 0.11923 0.07347 0.0
O31 O 0.59058 0.1352 0.15054 0.0
Cd32 Cd 0.62699 0.08979 0.11904 0.0
C33 C 0.65254 0.15554 0.06354 0.0
O34 O 0.57272 0.05821 0.09305 0.0
O35 O 0.62644 0.04271 0.07482 0.0
O36 O 0.63163 0.04961 0.16572 0.0
C37 C 0.59075 0.03765 0.07447 0.0
O38 O 0.61878 0.15181 0.05282 0.0
C39 C 0.66741 0.05062 0.16657 0.0
O40 O 0.66262 0.13804 0.08838 0.0
O41 O 0.68481 0.07026 0.14551 0.0
C42 C 0.83727 0.94356 0.34248 0.0
O43 O 0.84339 0.9604 0.36914 0.0
Cd44 Cd 0.87171 0.93322 0.41487 0.0
O45 O 0.84813 0.91043 0.33759 0.0
Cd46 Cd 0.88444 0.86249 0.3665 0.0
C47 C 0.81596 0.8514 0.42336 0.0
O48 O 0.92712 0.90777 0.3936 0.0
O49 O 0.93272 0.85054 0.40817 0.0
O50 O 0.92061 0.84959 0.31828 0.0
C51 C 0.94404 0.88481 0.41076 0.0
O52 O 0.8256 0.8845 0.43322 0.0
C53 C 0.90981 0.81507 0.31617 0.0
O54 O 0.832 0.83688 0.39935 0.0
O55 O 0.88691 0.80248 0.33725 0.0
C56 C 0.05513 0.67274 0.14091 0.0
O57 O 0.03783 0.67046 0.11409 0.0
Cd58 Cd 0.06005 0.63533 0.06901 0.0
O59 O 0.08484 0.65499 0.14564 0.0
Cd60 Cd 0.1238 0.60948 0.11702 0.0
C61 C 0.15077 0.67348 0.06077 0.0
O62 O 0.07205 0.57434 0.08897 0.0
O63 O 0.12841 0.56099 0.07539 0.0
O64 O 0.12556 0.57725 0.16829 0.0
C65 C 0.09314 0.55411 0.07253 0.0
O66 O 0.11755 0.66833 0.04906 0.0
C67 C 0.16086 0.57332 0.16832 0.0
O68 O 0.1601 0.65762 0.08668 0.0
O69 O 0.17942 0.58687 0.14477 0.0
C70 C 0.31761 0.42092 0.32796 0.0
O71 O 0.31776 0.43801 0.35485 0.0
Cd72 Cd 0.35395 0.42025 0.40047 0.0
O73 O 0.33608 0.39156 0.32413 0.0
Cd74 Cd 0.37694 0.35262 0.35785 0.0
C75 C 0.31336 0.33395 0.41725 0.0
O76 O 0.4142 0.4062 0.37886 0.0
O77 O 0.42473 0.35376 0.40182 0.0
O78 O 0.41739 0.3385 0.31263 0.0
C79 C 0.43414 0.3883 0.398 0.0
O80 O 0.32024 0.36756 0.42717 0.0
C81 C 0.41031 0.30321 0.31317 0.0
O82 O 0.32788 0.32233 0.39145 0.0
O83 O 0.38739 0.29073 0.33421 0.0
C84 C 0.33011 0.94478 0.83841 0.0
O85 O 0.335 0.95719 0.86687 0.0
Cd86 Cd 0.36812 0.92641 0.90852 0.0
O87 O 0.34461 0.91452 0.82925 0.0
Cd88 Cd 0.38661 0.86772 0.85336 0.0
C89 C 0.32168 0.83902 0.90875 0.0
O90 O 0.42675 0.91134 0.88568 0.0
O91 O 0.43292 0.85244 0.89475 0.0
O92 O 0.42674 0.86794 0.80617 0.0
C93 C 0.44427 0.88628 0.89999 0.0
O94 O 0.33016 0.86996 0.92337 0.0
C95 C 0.42261 0.83291 0.80063 0.0
O96 O 0.3361 0.8317 0.88166 0.0
O97 O 0.40028 0.81389 0.81874 0.0
C98 C 0.54239 0.66717 0.62842 0.0
O99 O 0.52719 0.66267 0.6009 0.0
Cd100 Cd 0.55002 0.62447 0.55919 0.0
O101 O 0.57209 0.65038 0.63599 0.0
Cd102 Cd 0.61261 0.60379 0.60859 0.0
C103 C 0.63927 0.66319 0.54829 0.0
O104 O 0.55924 0.56659 0.58667 0.0
O105 O 0.613 0.5517 0.56833 0.0
O106 O 0.62322 0.57165 0.65958 0.0
C107 C 0.5778 0.54403 0.57048 0.0
O108 O 0.60602 0.65816 0.5367 0.0
C109 C 0.6589 0.57241 0.65686 0.0
O110 O 0.64829 0.64792 0.57447 0.0
O111 O 0.67293 0.5885 0.63238 0.0
H112 H 0.27868 0.2813 0.42411 0.0
C113 C 0.28811 0.30781 0.4355 0.0
H114 H 0.28602 0.34197 0.47703 0.0
H115 H 0.13185 0.27322 0.52964 0.0
H116 H 0.11678 0.33712 0.51776 0.0
H117 H 0.16213 0.37976 0.48943 0.0
H118 H 0.22296 0.35889 0.4731 0.0
C119 C 0.27709 0.31538 0.46557 0.0
C120 C 0.25016 0.28937 0.48306 0.0
C121 C 0.21446 0.30189 0.49211 0.0
C122 C 0.18795 0.27702 0.5078 0.0
C123 C 0.15281 0.2906 0.5171 0.0
C124 C 0.1438 0.3273 0.51053 0.0
C125 C 0.16935 0.35132 0.49463 0.0
C126 C 0.20426 0.33894 0.48545 0.0
H127 H 0.19964 0.20323 0.57058 0.0
C128 C 0.1729 0.19804 0.55793 0.0
H129 H 0.14095 0.20872 0.5164 0.0
H130 H 0.31839 0.25822 0.47446 0.0
H131 H 0.33255 0.19352 0.48412 0.0
H132 H 0.28418 0.14844 0.5058 0.0
H133 H 0.22179 0.16807 0.51878 0.0
C134 C 0.16786 0.21331 0.52891 0.0
C135 C 0.19685 0.23942 0.51398 0.0
C136 C 0.23257 0.22685 0.5049 0.0
C137 C 0.25969 0.25221 0.49044 0.0
C138 C 0.29605 0.23968 0.48385 0.0
C139 C 0.30468 0.20266 0.48953 0.0
C140 C 0.27751 0.17734 0.50188 0.0
C141 C 0.24184 0.1891 0.50948 0.0
H142 H 0.71371 0.55654 0.67616 0.0
C143 C 0.68343 0.55465 0.6803 0.0
H144 H 0.63945 0.53208 0.70936 0.0
H145 H 0.73113 0.39998 0.76441 0.0
H146 H 0.68329 0.36592 0.73189 0.0
H147 H 0.64076 0.39971 0.69663 0.0
H148 H 0.64556 0.46775 0.69385 0.0
C149 C 0.66974 0.53548 0.70564 0.0
C150 C 0.69524 0.51537 0.72735 0.0
C151 C 0.69225 0.47552 0.72849 0.0
C152 C 0.71714 0.45597 0.74846 0.0
C153 C 0.71319 0.41622 0.74944 0.0
C154 C 0.68584 0.39631 0.7309 0.0
C155 C 0.66187 0.41534 0.71107 0.0
C156 C 0.66492 0.45445 0.70975 0.0
H157 H 0.74712 0.47951 0.83067 0.0
C158 C 0.76737 0.46052 0.8212 0.0
H159 H 0.7894 0.43662 0.77918 0.0
H160 H 0.70571 0.59194 0.73411 0.0
H161 H 0.7556 0.62579 0.7644 0.0
H162 H 0.80256 0.5917 0.79489 0.0
H163 H 0.7993 0.52361 0.79588 0.0
C164 C 0.76978 0.45578 0.7893 0.0
C165 C 0.74511 0.47626 0.76714 0.0
C166 C 0.74873 0.51609 0.76539 0.0
C167 C 0.72303 0.5357 0.74629 0.0
C168 C 0.72559 0.57553 0.7469 0.0
C169 C 0.75393 0.59536 0.76441 0.0
C170 C 0.78026 0.57618 0.78168 0.0
C171 C 0.77785 0.53704 0.78225 0.0
H172 H 0.53967 0.01418 0.05004 0.0
C173 C 0.57026 0.0131 0.05092 0.0
H174 H 0.61803 0.99005 0.03014 0.0
H175 H 0.45375 0.89846 0.98386 0.0
H176 H 0.4492 0.87792 0.0389 0.0
H177 H 0.49862 0.89733 0.07866 0.0
H178 H 0.55243 0.93839 0.06354 0.0
C179 C 0.58745 0.99076 0.03018 0.0
C180 C 0.56478 0.96995 0.00481 0.0
C181 C 0.53505 0.94378 0.01339 0.0
C182 C 0.50785 0.93078 -0.01 0.0
C183 C 0.47641 0.90766 6e-05 0.0
C184 C 0.47325 0.89587 0.03174 0.0
C185 C 0.50097 0.90693 0.05415 0.0
C186 C 0.53153 0.93067 0.04523 0.0
H187 H 0.48926 0.87333 0.93448 0.0
C188 C 0.47426 0.89593 0.92378 0.0
H189 H 0.46794 0.95439 0.92208 0.0
H190 H 0.62134 0.016 0.97964 0.0
H191 H 0.62925 0.0323 0.92368 0.0
H192 H 0.58426 0.00677 0.88246 0.0
H193 H 0.53083 0.96508 0.89703 0.0
C194 C 0.48226 0.93163 0.93324 0.0
C195 C 0.51204 0.942 0.95757 0.0
C196 C 0.54375 0.96544 0.94853 0.0
C197 C 0.57006 0.97961 0.9722 0.0
C198 C 0.60067 0.0041 0.96264 0.0
C199 C 0.60558 0.01369 0.93057 0.0
C200 C 0.58023 -0.00065 0.90737 0.0
C201 C 0.54962 0.97553 0.91609 0.0
H202 H 0.90901 0.76272 0.28731 0.0
C203 C 0.92316 0.79037 0.29054 0.0
H204 H 0.96661 0.82853 0.27491 0.0
H205 H 0.00626 0.65958 0.21482 0.0
H206 H 0.00933 0.6387 0.26984 0.0
H207 H -0.00478 0.68132 0.31462 0.0
H208 H 0.97669 0.74452 0.30451 0.0
C209 C 0.9527 0.80073 0.27196 0.0
C210 C 0.9658 0.77617 0.24554 0.0
C211 C 0.97922 0.74019 0.25209 0.0
C212 C 0.99027 0.71664 0.22643 0.0
C213 C -1e-05 0.67954 0.23344 0.0
C214 C 0.00149 0.66703 0.26494 0.0
C215 C -0.00666 0.69093 0.29013 0.0
C216 C 0.98236 0.7271 0.28394 0.0
H217 H 0.05943 0.70227 0.18769 0.0
C218 C 0.04076 0.69568 0.16734 0.0
H219 H 0.98647 0.70073 0.14733 0.0
H220 H 0.94066 0.84302 0.22433 0.0
H221 H 0.94131 0.86531 0.16963 0.0
H222 H 0.9655 0.82666 0.12577 0.0
H223 H 0.9887 0.76529 0.1363 0.0
C224 C 0.00524 0.70708 0.16764 0.0
C225 C 0.99106 0.73032 0.19452 0.0
C226 C 0.97827 0.76654 0.18806 0.0
C227 C 0.96524 0.78926 0.2135 0.0
C228 C 0.95164 0.82486 0.20612 0.0
C229 C 0.95173 0.838 0.17477 0.0
C230 C 0.96528 0.81621 0.15008 0.0
C231 C 0.97844 0.78093 0.15648 0.0
H232 H 0.30298 -0.00441 0.82275 0.0
C233 C 0.30778 0.96668 0.81606 0.0
H234 H 0.29676 0.92333 0.78189 0.0
H235 H 0.1768 0.06175 0.7585 0.0
H236 H 0.15457 0.04897 0.81227 0.0
H237 H 0.18249 0.00016 0.84501 0.0
H238 H 0.23384 0.96501 0.82458 0.0
C239 C 0.29205 0.95214 0.78889 0.0
C240 C 0.26966 0.97552 0.76696 0.0
C241 C 0.23746 -0.00653 0.77826 0.0
C242 C 0.21911 0.01919 0.75832 0.0
C243 C 0.18996 0.0399 0.77163 0.0
C244 C 0.17717 0.03315 0.80265 0.0
C245 C 0.19304 0.00586 0.82116 0.0
C246 C 0.22281 0.98616 0.80923 0.0
H247 H 0.15675 0.02069 0.70933 0.0
C248 C 0.17295 0.04317 0.69736 0.0
H249 H 0.22635 0.0712 0.69169 0.0
H250 H 0.32976 0.9452 0.73728 0.0
H251 H 0.3484 0.95369 0.68197 0.0
H252 H 0.31281 -0.00655 0.64582 0.0
H253 H 0.25873 0.02542 0.66489 0.0
C254 C 0.21001 0.04908 0.70398 0.0
C255 C 0.23044 0.02404 0.72594 0.0
C256 C 0.26149 0.00467 0.71417 0.0
C257 C 0.2814 0.98085 0.73479 0.0
C258 C 0.31311 0.96301 0.72261 0.0
C259 C 0.3242 0.96769 0.69087 0.0
C260 C 0.30421 0.99012 0.67054 0.0
C261 C 0.27323 0.00843 0.68188 0.0
H262 H 0.94258 0.46992 0.92863 0.0
C263 C 0.94495 0.43969 0.92656 0.0
H264 H 0.97158 0.39253 0.94448 0.0
H265 H 0.0684 0.55289 -0.00934 0.0
H266 H 0.08385 0.55999 0.93452 0.0
H267 H 0.0591 0.51362 0.89417 0.0
H268 H 0.01794 0.4603 0.9098 0.0
C269 C 0.96972 0.42286 0.94537 0.0
C270 C 0.99188 0.44519 0.97016 0.0
C271 C 0.01776 0.47486 0.96094 0.0
C272 C 0.0337 0.50037 0.98446 0.0
C273 C 0.05692 0.53154 0.97416 0.0
C274 C 0.06582 0.53616 0.9419 0.0
C275 C 0.05176 0.51015 0.91916 0.0
C276 C 0.02796 0.47984 0.92843 0.0
H277 H 0.09746 0.50949 0.03588 0.0
C278 C 0.07777 0.52612 0.04895 0.0
H279 H 0.02065 0.53785 0.05561 0.0
H280 H 0.94594 0.38926 -0.00382 0.0
H281 H 0.93377 0.3795 0.05272 0.0
H282 H 0.9639 0.42184 0.09378 0.0
H283 H 0.00616 0.47444 0.07852 0.0
C284 C 0.04069 0.52199 0.04221 0.0
C285 C 0.02547 0.49475 0.0174 0.0
C286 C 0.00146 0.46369 0.02676 0.0
C287 C 0.98455 0.43894 0.00311 0.0
C288 C 0.95986 0.40875 0.01311 0.0
C289 C 0.95261 0.4028 0.04551 0.0
C290 C 0.96954 0.42666 0.06863 0.0
C291 C -0.00632 0.4568 0.05952 0.0
H292 H 0.4148 0.24931 0.28741 0.0
C293 C 0.4274 0.27769 0.29018 0.0
H294 H 0.47057 0.31688 0.27584 0.0
H295 H 0.51488 0.14537 0.22323 0.0
H296 H 0.51582 0.12727 0.27905 0.0
H297 H 0.50029 0.17213 0.32176 0.0
H298 H 0.48245 0.23488 0.3087 0.0
C299 C 0.45808 0.28845 0.27314 0.0
C300 C 0.47386 0.26347 0.24833 0.0
C301 C 0.48695 0.22785 0.25662 0.0
C302 C 0.49874 0.20301 0.2322 0.0
C303 C 0.508 0.16627 0.24088 0.0
C304 C 0.50831 0.15535 0.27286 0.0
C305 C 0.49936 0.18052 0.29688 0.0
C306 C 0.4888 0.21637 0.28901 0.0
H307 H 0.5677 0.18355 0.19349 0.0
C308 C 0.54845 0.17724 0.17348 0.0
H309 H 0.49425 0.18374 0.15382 0.0
H310 H 0.45121 0.33002 0.22408 0.0
H311 H 0.45518 0.35005 0.16885 0.0
H312 H 0.48086 0.30921 0.12724 0.0
H313 H 0.50223 0.24787 0.14057 0.0
C314 C 0.51343 0.18988 0.17391 0.0
C315 C 0.50052 0.21509 0.19985 0.0
C316 C 0.48907 0.25137 0.1918 0.0
C317 C 0.47528 0.27536 0.21596 0.0
C318 C 0.46274 0.31089 0.20693 0.0
C319 C 0.46475 0.32276 0.17524 0.0
C320 C 0.47913 0.29975 0.15181 0.0
C321 C 0.49118 0.26448 0.15982 0.0
H322 H 0.76742 0.84572 0.45592 0.0
C323 C 0.78557 0.83008 0.44042 0.0
H324 H 0.79895 0.77654 0.42343 0.0
H325 H 0.68906 0.75359 0.55395 0.0
H326 H 0.73771 0.79065 0.58303 0.0
H327 H 0.79444 0.81658 0.55533 0.0
H328 H 0.80197 0.80691 0.49822 0.0
C329 C 0.78096 0.79238 0.4389 0.0
C330 C 0.75037 0.77136 0.45691 0.0
C331 C 0.7481 0.77461 0.49085 0.0
C332 C 0.71714 0.75676 0.50735 0.0
C333 C 0.71336 0.7641 0.5406 0.0
C334 C 0.7409 0.7857 0.55756 0.0
C335 C 0.77269 0.8005 0.54193 0.0
C336 C 0.77643 0.79507 0.50901 0.0
H337 H 0.69774 0.68358 0.53844 0.0
C338 C 0.66848 0.68611 0.53119 0.0
H339 H 0.63112 0.71281 0.50039 0.0
H340 H 0.7457 0.75934 0.3919 0.0
H341 H 0.69972 0.71827 0.36353 0.0
H342 H 0.6497 0.6824 0.39279 0.0
H343 H 0.64499 0.68782 0.45053 0.0
C344 C 0.66027 0.71031 0.50792 0.0
C345 C 0.69063 0.73237 0.49045 0.0
C346 C 0.69352 0.72824 0.45668 0.0
C347 C 0.72306 0.74814 0.43987 0.0
C348 C 0.72442 0.74434 0.40603 0.0
C349 C 0.69812 0.72091 0.38937 0.0
C350 C 0.66993 0.70076 0.40584 0.0
C351 C 0.66752 0.70424 0.43905 0.0
H352 H 0.1617 0.54539 0.21521 0.0
C353 C 0.17883 0.55321 0.19455 0.0
H354 H 0.23235 0.55122 0.17297 0.0
H355 H 0.32101 0.52748 0.30264 0.0
H356 H 0.34519 0.58969 0.28749 0.0
H357 H 0.31766 0.6222 0.24166 0.0
H358 H 0.26596 0.59254 0.21054 0.0
C359 C 0.21471 0.54312 0.19322 0.0
C360 C 0.23192 0.52269 0.22019 0.0
C361 C 0.26196 0.54054 0.23827 0.0
C362 C 0.27736 0.52205 0.26505 0.0
C363 C 0.30775 0.54039 0.2824 0.0
C364 C 0.32201 0.57611 0.27391 0.0
C365 C 0.30655 0.59439 0.24809 0.0
C366 C 0.27688 0.57698 0.2304 0.0
H367 H 0.30006 0.42248 0.277 0.0
C368 C 0.29761 0.43625 0.30022 0.0
H369 H 0.27671 0.48219 0.32554 0.0
H370 H 0.17877 0.4779 0.18759 0.0
H371 H 0.15307 0.41654 0.20369 0.0
H372 H 0.1758 0.3869 0.25292 0.0
H373 H 0.22495 0.41806 0.28588 0.0
C374 C 0.27822 0.46752 0.30264 0.0
C375 C 0.26247 0.48587 0.27391 0.0
C376 C 0.23251 0.4679 0.25573 0.0
C377 C 0.21794 0.4859 0.22832 0.0
C378 C 0.18965 0.46635 0.20947 0.0
C379 C 0.17484 0.43096 0.2183 0.0
C380 C 0.18775 0.41421 0.24593 0.0
C381 C 0.2162 0.43233 0.26454 0.0
H382 H 0.77824 0.28765 0.91943 0.0
C383 C 0.78526 0.31261 0.93397 0.0
H384 H 0.77998 0.33919 0.97904 0.0
H385 H 0.63094 0.25315 0.02283 0.0
H386 H 0.61057 0.3163 0.01572 0.0
H387 H 0.65253 0.36518 -0.00903 0.0
H388 H 0.71522 0.3513 0.97349 0.0
C389 C 0.7736 0.31408 0.96455 0.0
C390 C 0.7483 0.2838 0.97851 0.0
C391 C 0.71142 0.29224 -0.01188 0.0
C392 C 0.68691 0.26383 0.0017 0.0
C393 C 0.65055 0.27337 0.01179 0.0
C394 C 0.63848 0.30959 0.00795 0.0
C395 C 0.66212 0.33712 -0.00593 0.0
C396 C 0.69814 0.32874 0.98422 0.0
H397 H 0.70719 0.1881 0.0597 0.0
C398 C 0.68028 0.18147 0.04768 0.0
H399 H 0.64573 0.1915 0.00754 0.0
H400 H 0.8188 0.25913 0.9666 0.0
H401 H 0.8381 0.1952 0.97112 0.0
H402 H 0.79348 0.14456 -0.01034 0.0
H403 H 0.72961 0.15777 0.00455 0.0
C404 C 0.67285 0.19746 0.0194 0.0
C405 C 0.69905 0.22682 0.00521 0.0
C406 C 0.73569 0.21816 -0.00496 0.0
C407 C 0.76074 0.24694 0.98256 0.0
C408 C 0.79801 0.23807 0.97472 0.0
C409 C 0.80958 0.2015 0.97743 0.0
C410 C 0.78451 0.17303 -0.01199 0.0
C411 C 0.74797 0.18107 -0.00329 0.0
H412 H 0.815 -0.00643 0.3203 0.0
C413 C 0.81738 0.96345 0.31719 0.0
H414 H 0.80285 0.91579 0.28826 0.0
H415 H 0.69359 0.05809 0.24922 0.0
H416 H 0.67093 0.05474 0.30381 0.0
H417 H 0.69542 0.00899 0.34166 0.0
H418 H 0.74382 0.96753 0.32542 0.0
C419 C 0.80056 0.94583 0.29179 0.0
C420 C 0.7798 0.96721 0.26732 0.0
C421 C 0.74913 0.98889 0.27645 0.0
C422 C 0.7326 0.01281 0.25384 0.0
C423 C 0.70518 0.03736 0.26466 0.0
C424 C 0.6922 0.03605 0.29609 0.0
C425 C 0.70615 0.01048 0.31744 0.0
C426 C 0.73425 0.98711 0.30788 0.0
H427 H 0.67056 0.00911 0.20509 0.0
C428 C 0.68727 0.02928 0.19093 0.0
H429 H 0.74152 0.05422 0.18228 0.0
H430 H 0.8372 0.9286 0.24155 0.0
H431 H 0.85618 0.92798 0.18587 0.0
H432 H 0.82354 0.96496 0.14554 0.0
H433 H 0.7721 0.00321 0.16074 0.0
C434 C 0.72454 0.03451 0.19665 0.0
C435 C 0.74395 0.01208 0.22124 0.0
C436 C 0.77349 0.98917 0.21181 0.0
C437 C 0.79172 0.96709 0.23493 0.0
C438 C 0.8219 0.94542 0.22497 0.0
C439 C 0.83316 0.94483 0.19305 0.0
C440 C 0.81482 0.96569 0.17036 0.0
C441 C 0.78533 0.98762 0.17946 0.0
H442 H 0.98654 0.87685 0.44893 0.0
C443 C 0.97228 0.89772 0.4352 0.0
H444 H 0.96547 0.95542 0.42763 0.0
H445 H 0.03584 0.96057 0.57547 0.0
H446 H 0.98104 0.92096 0.5905 0.0
H447 H 0.93608 0.89514 0.54937 0.0
H448 H 0.94613 0.90785 0.4931 0.0
C449 C 0.97913 0.9345 0.44176 0.0
C450 C 0.00642 0.94859 0.46704 0.0
C451 C -0.00097 0.942 0.5 0.0
C452 C 0.02364 0.95873 0.52389 0.0
C453 C 0.01697 0.95004 0.5565 0.0
C454 C 0.9858 0.92713 0.56544 0.0
C455 C 0.9606 0.91246 0.54227 0.0
C456 C 0.96691 0.91978 0.50993 0.0
H457 H 0.02713 0.03391 0.55508 0.0
C458 C 0.0575 0.03205 0.55776 0.0
H459 H 0.10575 0.00553 0.54165 0.0
H460 H 0.03085 0.96374 0.40618 0.0
H461 H 0.08509 0.00426 0.39145 0.0
H462 H 0.12558 0.03615 0.43298 0.0
H463 H 0.11231 0.02749 0.48945 0.0
C464 C 0.07532 0.0072 0.53974 0.0
C465 C 0.05406 0.98394 0.51493 0.0
C466 C 0.06236 0.98923 0.48204 0.0
C467 C 0.03862 0.97138 0.45808 0.0
C468 C 0.04757 0.97711 0.42537 0.0
C469 C 0.07869 0.0002 0.41657 0.0
C470 C 0.10151 0.01812 0.43995 0.0
C471 C 0.09356 0.01287 0.47232 0.0
H472 H 0.93003 0.3426 0.7628 0.0
C473 C 0.92207 0.32618 0.78377 0.0
H474 H 0.92249 0.27317 0.80596 0.0
H475 H 0.94041 0.1796 0.67845 0.0
H476 H 0.87582 0.16154 0.69266 0.0
H477 H 0.84444 0.19359 0.73693 0.0
H478 H 0.87752 0.24377 0.76737 0.0
C479 C 0.93108 0.29009 0.78545 0.0
C480 C 0.95033 0.27125 0.75857 0.0
C481 C 0.93053 0.2421 0.74088 0.0
C482 C 0.94845 0.22401 0.71503 0.0
C483 C 0.92806 0.1947 0.69801 0.0
C484 C 0.89097 0.18396 0.70597 0.0
C485 C 0.87332 0.20196 0.73092 0.0
C486 C 0.89269 0.2307 0.74824 0.0
H487 H 0.04454 0.18996 0.70637 0.0
C488 C 0.03259 0.19388 0.68262 0.0
H489 H 0.99097 0.2199 0.65549 0.0
H490 H -0.00204 0.32295 0.78988 0.0
H491 H 0.06191 0.34232 0.77471 0.0
H492 H 0.09147 0.31397 0.72763 0.0
H493 H 0.05751 0.26559 0.69581 0.0
C494 C 0.00394 0.21675 0.67895 0.0
C495 C 0.98613 0.23515 0.7068 0.0
C496 C 0.00597 0.26436 0.72446 0.0
C497 C 0.98831 0.2819 0.75078 0.0
C498 C 0.00943 0.30967 0.76895 0.0
C499 C 0.04627 0.32091 0.76062 0.0
C500 C 0.06296 0.30486 0.73419 0.0
C501 C 0.04319 0.27694 0.71622 0.0
H502 H 0.4945 0.69754 0.64595 0.0
C503 C 0.5232 0.69056 0.65184 0.0
H504 H 0.56743 0.69645 0.68596 0.0
H505 H 0.4291 0.81645 0.71404 0.0
H506 H 0.44445 0.84304 0.66221 0.0
H507 H 0.49524 0.81817 0.62947 0.0
H508 H 0.52978 0.76547 0.64791 0.0
C509 C 0.53897 0.70352 0.67949 0.0
C510 C 0.51647 0.72516 0.70273 0.0
C511 C 0.499 0.75815 0.69294 0.0
C512 C 0.47214 0.77465 0.71308 0.0
C513 C 0.45179 0.80459 0.70088 0.0
C514 C 0.46001 0.81988 0.67095 0.0
C515 C 0.48842 0.80573 0.65244 0.0
C516 C 0.50776 0.77524 0.66317 0.0
H517 H 0.46785 0.83247 0.76488 0.0
C518 C 0.4451 0.81531 0.77564 0.0
H519 H 0.41737 0.76161 0.77811 0.0
H520 H 0.54637 0.66346 0.72981 0.0
H521 H 0.53584 0.64072 0.7837 0.0
H522 H 0.49428 0.67314 0.82071 0.0
H523 H 0.46249 0.72808 0.80387 0.0
C524 C 0.43953 0.77903 0.76683 0.0
C525 C 0.46578 0.76065 0.74449 0.0
C526 C 0.48516 0.72914 0.75507 0.0
C527 C 0.51005 0.71106 0.73403 0.0
C528 C 0.52773 0.67876 0.74487 0.0
C529 C 0.52192 0.66533 0.7758 0.0
C530 C 0.49848 0.68354 0.79662 0.0
C531 C 0.48027 0.71505 0.78654 0.0
H532 H 0.20598 0.70491 0.05622 0.0
C533 C 0.17914 0.69803 0.04415 0.0
H534 H 0.14602 0.70522 0.00255 0.0
H535 H 0.22651 0.85687 0.95755 0.0
H536 H 0.16483 0.87688 0.97257 0.0
H537 H 0.11922 0.83361 -4e-05 0.0
H538 H 0.13489 0.76998 0.01227 0.0
C539 C 0.17297 0.71142 0.01461 0.0
C540 C 0.20109 0.73736 -0.00157 0.0
C541 C 0.19163 0.77463 -0.00831 0.0
C542 C 0.2182 0.79982 0.97644 0.0
C543 C 0.2077 0.83671 0.96956 0.0
C544 C 0.17232 0.84857 0.97797 0.0
C545 C 0.14662 0.8242 -0.00666 0.0
C546 C 0.15599 0.78767 0.0002 0.0
H547 H 0.28565 0.78625 0.90943 0.0
C548 C 0.29493 0.81103 0.92342 0.0
H549 H 0.29097 0.84023 0.9675 0.0
H550 H 0.22649 0.66632 0.00349 0.0
H551 H 0.28902 0.64699 -0.00952 0.0
H552 H 0.33711 0.69226 0.96864 0.0
H553 H 0.32262 0.75683 0.95896 0.0
C554 C 0.28241 0.8152 0.95357 0.0
C555 C 0.2544 0.78788 0.96824 0.0
C556 C 0.26399 0.75063 0.97514 0.0
C557 C 0.23693 0.72505 -0.01057 0.0
C558 C 0.24645 0.6874 -0.00588 0.0
C559 C 0.28219 0.67583 0.98653 0.0
C560 C 0.30921 0.70127 0.97411 0.0
C561 C 0.3004 0.73825 0.96846 0.0
H562 H 0.47338 0.43632 0.40923 0.0
C563 C 0.46318 0.40882 0.41764 0.0
H564 H 0.46353 0.3703 0.45584 0.0
H565 H 0.61224 0.44238 0.5225 0.0
H566 H 0.63058 0.37938 0.50978 0.0
H567 H 0.58889 0.33595 0.47726 0.0
H568 H 0.52831 0.35502 0.45765 0.0
C569 C 0.47357 0.39757 0.44689 0.0
C570 C 0.49795 0.42299 0.46798 0.0
C571 C 0.53351 0.4116 0.4788 0.0
C572 C 0.5579 0.43693 0.49704 0.0
C573 C 0.59283 0.42448 0.50823 0.0
C574 C 0.60371 0.38838 0.50111 0.0
C575 C 0.58022 0.36392 0.48281 0.0
C576 C 0.54552 0.37523 0.47171 0.0
H577 H 0.52891 0.50595 0.55879 0.0
C578 C 0.55771 0.5139 0.55179 0.0
H579 H 0.60003 0.5073 0.51714 0.0
H580 H 0.42806 0.45111 0.45847 0.0
H581 H 0.4117 0.51552 0.46713 0.0
H582 H 0.45845 0.56273 0.48966 0.0
H583 H 0.52104 0.54523 0.50508 0.0
C584 C 0.57138 0.4996 0.52463 0.0
C585 C 0.54702 0.47386 0.5038 0.0
C586 C 0.51196 0.48564 0.49192 0.0
C587 C 0.48647 0.45949 0.47591 0.0
C588 C 0.44971 0.47062 0.46829 0.0
C589 C 0.43976 0.50743 0.47349 0.0
C590 C 0.46596 0.53392 0.48637 0.0
C591 C 0.50167 0.52334 0.49548 0.0
loop_
_geom_bond_atom_site_label_1
_geom_bond_atom_site_label_2
_geom_bond_distance
_geom_bond_site_symmetry_2
_ccdc_geom_bond_type
C0 O1 1.306 . S
C0 O3 1.160 . S
O1 C0 1.306 . S
O1 Cd2 2.228 . S
Cd2 O1 2.228 . S
Cd2 O6 2.273 . S
Cd2 O10 2.277 . S
O3 C0 1.160 . S
O3 Cd4 2.203 . S
Cd4 O3 2.203 . S
Cd4 O6 2.411 . S
Cd4 O7 2.333 . S
Cd4 O8 2.352 . S
Cd4 O12 2.277 . S
Cd4 O13 2.356 . S
C5 O10 1.209 . S
C5 O12 1.226 . S
O6 Cd2 2.273 . S
O6 Cd4 2.411 . S
O6 C9 1.320 . S
O7 Cd4 2.333 . S
O7 C9 1.214 . S
O8 Cd4 2.352 . S
O8 C11 1.258 . S
C9 O6 1.320 . S
C9 O7 1.214 . S
O10 Cd2 2.277 . S
O10 C5 1.209 . S
C11 O8 1.258 . S
C11 O13 1.282 . S
O12 Cd4 2.277 . S
O12 C5 1.226 . S
O13 Cd4 2.356 . S
O13 C11 1.282 . S
C14 O15 1.306 . S
C14 O17 1.160 . S
O15 C14 1.306 . S
O15 Cd16 2.228 . S
Cd16 O15 2.228 . S
Cd16 O20 2.273 . S
Cd16 O24 2.277 . S
O17 C14 1.160 . S
O17 Cd18 2.203 . S
Cd18 O17 2.203 . S
Cd18 O20 2.411 . S
Cd18 O21 2.333 . S
Cd18 O22 2.352 . S
Cd18 O26 2.277 . S
Cd18 O27 2.356 . S
C19 O24 1.209 . S
C19 O26 1.226 . S
O20 Cd16 2.273 . S
O20 Cd18 2.411 . S
O20 C23 1.320 . S
O21 Cd18 2.333 . S
O21 C23 1.214 . S
O22 Cd18 2.352 . S
O22 C25 1.258 . S
C23 O20 1.320 . S
C23 O21 1.214 . S
O24 Cd16 2.277 . S
O24 C19 1.209 . S
C25 O22 1.258 . S
C25 O27 1.282 . S
O26 Cd18 2.277 . S
O26 C19 1.226 . S
O27 Cd18 2.356 . S
O27 C25 1.282 . S
C28 O29 1.306 . S
C28 O31 1.160 . S
O29 C28 1.306 . S
O29 Cd30 2.228 . S
Cd30 O29 2.228 . S
Cd30 O34 2.273 . S
Cd30 O38 2.277 . S
O31 C28 1.160 . S
O31 Cd32 2.203 . S
Cd32 O31 2.203 . S
Cd32 O34 2.411 . S
Cd32 O35 2.333 . S
Cd32 O36 2.352 . S
Cd32 O40 2.277 . S
Cd32 O41 2.356 . S
C33 O38 1.209 . S
C33 O40 1.226 . S
O34 Cd30 2.273 . S
O34 Cd32 2.411 . S
O34 C37 1.320 . S
O35 Cd32 2.333 . S
O35 C37 1.214 . S
O36 Cd32 2.352 . S
O36 C39 1.258 . S
C37 O34 1.320 . S
C37 O35 1.214 . S
O38 Cd30 2.277 . S
O38 C33 1.209 . S
C39 O36 1.258 . S
C39 O41 1.282 . S
O40 Cd32 2.277 . S
O40 C33 1.226 . S
O41 Cd32 2.356 . S
O41 C39 1.282 . S
C42 O43 1.306 . S
C42 O45 1.160 . S
O43 C42 1.306 . S
O43 Cd44 2.228 . S
Cd44 O43 2.228 . S
Cd44 O48 2.273 . S
Cd44 O52 2.277 . S
O45 C42 1.160 . S
O45 Cd46 2.203 . S
Cd46 O45 2.203 . S
Cd46 O48 2.411 . S
Cd46 O49 2.333 . S
Cd46 O50 2.352 . S
Cd46 O54 2.277 . S
Cd46 O55 2.356 . S
C47 O52 1.209 . S
C47 O54 1.226 . S
O48 Cd44 2.273 . S
O48 Cd46 2.411 . S
O48 C51 1.320 . S
O49 Cd46 2.333 . S
O49 C51 1.214 . S
O50 Cd46 2.352 . S
O50 C53 1.258 . S
C51 O48 1.320 . S
C51 O49 1.214 . S
O52 Cd44 2.277 . S
O52 C47 1.209 . S
C53 O50 1.258 . S
C53 O55 1.282 . S
O54 Cd46 2.277 . S
O54 C47 1.226 . S
O55 Cd46 2.356 . S
O55 C53 1.282 . S
C56 O57 1.306 . S
C56 O59 1.160 . S
O57 C56 1.306 . S
O57 Cd58 2.228 . S
Cd58 O57 2.228 . S
Cd58 O62 2.273 . S
Cd58 O66 2.277 . S
O59 C56 1.160 . S
O59 Cd60 2.203 . S
Cd60 O59 2.203 . S
Cd60 O62 2.411 . S
Cd60 O63 2.333 . S
Cd60 O64 2.352 . S
Cd60 O68 2.277 . S
Cd60 O69 2.356 . S
C61 O66 1.209 . S
C61 O68 1.226 . S
O62 Cd58 2.273 . S
O62 Cd60 2.411 . S
O62 C65 1.320 . S
O63 Cd60 2.333 . S
O63 C65 1.214 . S
O64 Cd60 2.352 . S
O64 C67 1.258 . S
C65 O62 1.320 . S
C65 O63 1.214 . S
O66 Cd58 2.277 . S
O66 C61 1.209 . S
C67 O64 1.258 . S
C67 O69 1.282 . S
O68 Cd60 2.277 . S
O68 C61 1.226 . S
O69 Cd60 2.356 . S
O69 C67 1.282 . S
C70 O71 1.306 . S
C70 O73 1.160 . S
O71 C70 1.306 . S
O71 Cd72 2.228 . S
Cd72 O71 2.228 . S
Cd72 O76 2.273 . S
Cd72 O80 2.277 . S
O73 C70 1.160 . S
O73 Cd74 2.203 . S
Cd74 O73 2.203 . S
Cd74 O76 2.411 . S
Cd74 O77 2.333 . S
Cd74 O78 2.352 . S
Cd74 O82 2.277 . S
Cd74 O83 2.356 . S
C75 O80 1.209 . S
C75 O82 1.226 . S
O76 Cd72 2.273 . S
O76 Cd74 2.411 . S
O76 C79 1.320 . S
O77 Cd74 2.333 . S
O77 C79 1.214 . S
O78 Cd74 2.352 . S
O78 C81 1.258 . S
C79 O76 1.320 . S
C79 O77 1.214 . S
O80 Cd72 2.277 . S
O80 C75 1.209 . S
C81 O78 1.258 . S
C81 O83 1.282 . S
O82 Cd74 2.277 . S
O82 C75 1.226 . S
O83 Cd74 2.356 . S
O83 C81 1.282 . S
C84 O85 1.306 . S
C84 O87 1.160 . S
O85 C84 1.306 . S
O85 Cd86 2.228 . S
Cd86 O85 2.228 . S
Cd86 O90 2.273 . S
Cd86 O94 2.277 . S
O87 C84 1.160 . S
O87 Cd88 2.203 . S
Cd88 O87 2.203 . S
Cd88 O90 2.411 . S
Cd88 O91 2.333 . S
Cd88 O92 2.352 . S
Cd88 O96 2.277 . S
Cd88 O97 2.356 . S
C89 O94 1.209 . S
C89 O96 1.226 . S
O90 Cd86 2.273 . S
O90 Cd88 2.411 . S
O90 C93 1.320 . S
O91 Cd88 2.333 . S
O91 C93 1.214 . S
O92 Cd88 2.352 . S
O92 C95 1.258 . S
C93 O90 1.320 . S
C93 O91 1.214 . S
O94 Cd86 2.277 . S
O94 C89 1.209 . S
C95 O92 1.258 . S
C95 O97 1.282 . S
O96 Cd88 2.277 . S
O96 C89 1.226 . S
O97 Cd88 2.356 . S
O97 C95 1.282 . S
C98 O99 1.306 . S
C98 O101 1.160 . S
O99 C98 1.306 . S
O99 Cd100 2.228 . S
Cd100 O99 2.228 . S
Cd100 O104 2.273 . S
Cd100 O108 2.277 . S
O101 C98 1.160 . S
O101 Cd102 2.203 . S
Cd102 O101 2.203 . S
Cd102 O104 2.411 . S
Cd102 O105 2.333 . S
Cd102 O106 2.352 . S
Cd102 O110 2.277 . S
Cd102 O111 2.356 . S
C103 O108 1.209 . S
C103 O110 1.226 . S
O104 Cd100 2.273 . S
O104 Cd102 2.411 . S
O104 C107 1.320 . S
O105 Cd102 2.333 . S
O105 C107 1.214 . S
O106 Cd102 2.352 . S
O106 C109 1.258 . S
C107 O104 1.320 . S
C107 O105 1.214 . S
O108 Cd100 2.277 . S
O108 C103 1.209 . S
C109 O106 1.258 . S
C109 O111 1.282 . S
O110 Cd102 2.277 . S
O110 C103 1.226 . S
O111 Cd102 2.356 . S
O111 C109 1.282 . S
H112 C113 0.951 . S
C113 H112 0.951 . S
C113 C119 1.265 . S
H114 C119 0.950 . S
H115 C123 0.949 . S
H116 C124 0.950 . S
H117 C125 0.951 . S
H118 C126 0.951 . S
C119 C113 1.265 . S
C119 H114 0.950 . S
C119 C120 1.478 . S
C120 C119 1.478 . S
C120 C121 1.397 . S
C120 C137 1.394 . S
C121 C120 1.397 . S
C121 C122 1.438 . S
C121 C126 1.429 . S
C122 C121 1.438 . S
C122 C123 1.428 . S
C122 C135 1.394 . S
C123 H115 0.949 . S
C123 C122 1.428 . S
C123 C124 1.345 . S
C124 H116 0.950 . S
C124 C123 1.345 . S
C124 C125 1.424 . S
C125 H117 0.951 . S
C125 C124 1.424 . S
C125 C126 1.347 . S
C126 H118 0.951 . S
C126 C121 1.429 . S
C126 C125 1.347 . S
H127 C128 0.951 . S
C128 H127 0.951 . S
C128 C134 1.265 . S
H129 C134 0.950 . S
H130 C138 0.949 . S
H131 C139 0.950 . S
H132 C140 0.951 . S
H133 C141 0.951 . S
C134 C128 1.265 . S
C134 H129 0.950 . S
C134 C135 1.478 . S
C135 C122 1.394 . S
C135 C134 1.478 . S
C135 C136 1.397 . S
C136 C135 1.397 . S
C136 C137 1.438 . S
C136 C141 1.429 . S
C137 C120 1.394 . S
C137 C136 1.438 . S
C137 C138 1.428 . S
C138 H130 0.949 . S
C138 C137 1.428 . S
C138 C139 1.345 . S
C139 H131 0.950 . S
C139 C138 1.345 . S
C139 C140 1.424 . S
C140 H132 0.951 . S
C140 C139 1.424 . S
C140 C141 1.347 . S
C141 H133 0.951 . S
C141 C136 1.429 . S
C141 C140 1.347 . S
H142 C143 0.951 . S
C143 H142 0.951 . S
C143 C149 1.265 . S
H144 C149 0.950 . S
H145 C153 0.949 . S
H146 C154 0.950 . S
H147 C155 0.951 . S
H148 C156 0.951 . S
C149 C143 1.265 . S
C149 H144 0.950 . S
C149 C150 1.478 . S
C150 C149 1.478 . S
C150 C151 1.397 . S
C150 C167 1.394 . S
C151 C150 1.397 . S
C151 C152 1.438 . S
C151 C156 1.429 . S
C152 C151 1.438 . S
C152 C153 1.428 . S
C152 C165 1.394 . S
C153 H145 0.949 . S
C153 C152 1.428 . S
C153 C154 1.345 . S
C154 H146 0.950 . S
C154 C153 1.345 . S
C154 C155 1.424 . S
C155 H147 0.951 . S
C155 C154 1.424 . S
C155 C156 1.347 . S
C156 H148 0.951 . S
C156 C151 1.429 . S
C156 C155 1.347 . S
H157 C158 0.951 . S
C158 H157 0.951 . S
C158 C164 1.265 . S
H159 C164 0.950 . S
H160 C168 0.949 . S
H161 C169 0.950 . S
H162 C170 0.951 . S
H163 C171 0.951 . S
C164 C158 1.265 . S
C164 H159 0.950 . S
C164 C165 1.478 . S
C165 C152 1.394 . S
C165 C164 1.478 . S
C165 C166 1.397 . S
C166 C165 1.397 . S
C166 C167 1.438 . S
C166 C171 1.429 . S
C167 C150 1.394 . S
C167 C166 1.438 . S
C167 C168 1.428 . S
C168 H160 0.949 . S
C168 C167 1.428 . S
C168 C169 1.345 . S
C169 H161 0.950 . S
C169 C168 1.345 . S
C169 C170 1.424 . S
C170 H162 0.951 . S
C170 C169 1.424 . S
C170 C171 1.347 . S
C171 H163 0.951 . S
C171 C166 1.429 . S
C171 C170 1.347 . S
H172 C173 0.951 . S
C173 H172 0.951 . S
C173 C179 1.265 . S
H174 C179 0.950 . S
H175 C183 0.949 . S
H176 C184 0.950 . S
H177 C185 0.951 . S
H178 C186 0.951 . S
C179 C173 1.265 . S
C179 H174 0.950 . S
C179 C180 1.478 . S
C180 C179 1.478 . S
C180 C181 1.397 1_545 S
C180 C197 1.394 1_554 S
C181 C180 1.397 1_565 S
C181 C182 1.438 . S
C181 C186 1.429 . S
C182 C181 1.438 . S
C182 C183 1.428 . S
C182 C195 1.394 1_554 S
C183 H175 0.949 . S
C183 C182 1.428 . S
C183 C184 1.345 . S
C184 H176 0.950 . S
C184 C183 1.345 . S
C184 C185 1.424 . S
C185 H177 0.951 . S
C185 C184 1.424 . S
C185 C186 1.347 . S
C186 H178 0.951 . S
C186 C181 1.429 . S
C186 C185 1.347 . S
H187 C188 0.951 . S
C188 H187 0.951 . S
C188 C194 1.265 . S
H189 C194 0.950 . S
H190 C198 0.949 . S
H191 C199 0.950 . S
H192 C200 0.951 . S
H193 C201 0.951 . S
C194 C188 1.265 . S
C194 H189 0.950 . S
C194 C195 1.478 . S
C195 C182 1.394 1_556 S
C195 C194 1.478 . S
C195 C196 1.397 1_565 S
C196 C195 1.397 1_545 S
C196 C197 1.438 . S
C196 C201 1.429 . S
C197 C180 1.394 1_556 S
C197 C196 1.438 . S
C197 C198 1.428 . S
C198 H190 0.949 . S
C198 C197 1.428 . S
C198 C199 1.345 . S
C199 H191 0.950 . S
C199 C198 1.345 . S
C199 C200 1.424 . S
C200 H192 0.951 . S
C200 C199 1.424 . S
C200 C201 1.347 . S
C201 H193 0.951 . S
C201 C196 1.429 . S
C201 C200 1.347 . S
H202 C203 0.951 . S
C203 H202 0.951 . S
C203 C209 1.265 . S
H204 C209 0.950 1_455 S
H205 C213 0.949 . S
H206 C214 0.950 . S
H207 C215 0.951 . S
H208 C216 0.951 . S
C209 C203 1.265 . S
C209 H204 0.950 1_655 S
C209 C210 1.486 . S
C210 C209 1.486 . S
C210 C211 1.380 1_655 S
C210 C227 1.402 . S
C211 C210 1.380 1_455 S
C211 C212 1.438 . S
C211 C216 1.429 . S
C212 C211 1.438 . S
C212 C213 1.428 . S
C212 C225 1.394 . S
C213 H205 0.949 . S
C213 C212 1.428 . S
C213 C214 1.345 . S
C214 H206 0.950 . S
C214 C213 1.345 . S
C214 C215 1.424 . S
C215 H207 0.951 . S
C215 C214 1.424 . S
C215 C216 1.347 . S
C216 H208 0.951 . S
C216 C211 1.429 . S
C216 C215 1.347 . S
H217 C218 0.951 . S
C218 H217 0.951 . S
C218 C224 1.265 . S
H219 C224 0.950 . S
H220 C228 0.949 . S
H221 C229 0.950 . S
H222 C230 0.951 . S
H223 C231 0.951 . S
C224 C218 1.265 . S
C224 H219 0.950 . S
C224 C225 1.478 . S
C225 C212 1.394 . S
C225 C224 1.478 . S
C225 C226 1.397 1_455 S
C226 C225 1.397 1_655 S
C226 C227 1.438 . S
C226 C231 1.429 . S
C227 C210 1.402 . S
C227 C226 1.438 . S
C227 C228 1.428 . S
C228 H220 0.949 . S
C228 C227 1.428 . S
C228 C229 1.345 . S
C229 H221 0.950 . S
C229 C228 1.345 . S
C229 C230 1.424 . S
C230 H222 0.951 . S
C230 C229 1.424 . S
C230 C231 1.347 . S
C231 H223 0.951 . S
C231 C226 1.429 . S
C231 C230 1.347 . S
H232 C233 0.951 . S
C233 H232 0.951 . S
C233 C239 1.265 . S
H234 C239 0.950 . S
H235 C243 0.949 . S
H236 C244 0.949 1_545 S
H237 C245 0.951 . S
H238 C246 0.951 . S
C239 C233 1.265 . S
C239 H234 0.950 . S
C239 C240 1.478 . S
C240 C239 1.478 . S
C240 C241 1.397 . S
C240 C257 1.394 . S
C241 C240 1.397 . S
C241 C242 1.438 . S
C241 C246 1.429 . S
C242 C241 1.438 . S
C242 C243 1.428 1_565 S
C242 C255 1.394 1_565 S
C243 H235 0.949 . S
C243 C242 1.428 1_545 S
C243 C244 1.345 1_545 S
C244 H236 0.949 1_565 S
C244 C243 1.345 1_565 S
C244 C245 1.424 . S
C245 H237 0.951 . S
C245 C244 1.424 . S
C245 C246 1.347 . S
C246 H238 0.951 . S
C246 C241 1.429 . S
C246 C245 1.347 . S
H247 C248 0.951 . S
C248 H247 0.951 . S
C248 C254 1.265 . S
H249 C254 0.950 . S
H250 C258 0.949 . S
H251 C259 0.950 . S
H252 C260 0.951 . S
H253 C261 0.951 . S
C254 C248 1.265 . S
C254 H249 0.950 . S
C254 C255 1.478 . S
C255 C242 1.394 1_545 S
C255 C254 1.478 . S
C255 C256 1.397 . S
C256 C255 1.397 . S
C256 C257 1.438 1_545 S
C256 C261 1.429 . S
C257 C240 1.394 . S
C257 C256 1.438 1_565 S
C257 C258 1.428 . S
C258 H250 0.949 . S
C258 C257 1.428 . S
C258 C259 1.345 . S
C259 H251 0.950 . S
C259 C258 1.345 . S
C259 C260 1.424 1_565 S
C260 H252 0.951 . S
C260 C259 1.424 1_545 S
C260 C261 1.347 . S
C261 H253 0.951 . S
C261 C256 1.429 . S
C261 C260 1.347 . S
H262 C263 0.951 . S
C263 H262 0.951 . S
C263 C269 1.265 . S
H264 C269 0.950 . S
H265 C273 0.949 . S
H266 C274 0.950 . S
H267 C275 0.951 . S
H268 C276 0.951 . S
C269 C263 1.265 . S
C269 H264 0.950 . S
C269 C270 1.478 . S
C270 C269 1.478 . S
C270 C271 1.397 1_655 S
C270 C287 1.394 . S
C271 C270 1.397 1_455 S
C271 C272 1.438 1_556 S
C271 C276 1.429 . S
C272 C271 1.438 1_554 S
C272 C273 1.428 . S
C272 C285 1.394 . S
C273 H265 0.949 . S
C273 C272 1.428 . S
C273 C274 1.345 1_554 S
C274 H266 0.950 . S
C274 C273 1.345 1_556 S
C274 C275 1.424 . S
C275 H267 0.951 . S
C275 C274 1.424 . S
C275 C276 1.347 . S
C276 H268 0.951 . S
C276 C271 1.429 . S
C276 C275 1.347 . S
H277 C278 0.951 . S
C278 H277 0.951 . S
C278 C284 1.265 . S
H279 C284 0.950 . S
H280 C288 0.949 . S
H281 C289 0.950 . S
H282 C290 0.951 . S
H283 C291 0.951 . S
C284 C278 1.265 . S
C284 H279 0.950 . S
C284 C285 1.478 . S
C285 C272 1.394 . S
C285 C284 1.478 . S
C285 C286 1.397 1_455 S
C286 C285 1.397 1_655 S
C286 C287 1.438 1_554 S
C286 C291 1.429 . S
C287 C270 1.394 . S
C287 C286 1.438 1_556 S
C287 C288 1.428 . S
C288 H280 0.949 . S
C288 C287 1.428 . S
C288 C289 1.345 1_556 S
C289 H281 0.950 . S
C289 C288 1.345 1_554 S
C289 C290 1.424 . S
C290 H282 0.951 . S
C290 C289 1.424 . S
C290 C291 1.347 . S
C291 H283 0.951 . S
C291 C286 1.429 . S
C291 C290 1.347 . S
H292 C293 0.951 . S
C293 H292 0.951 . S
C293 C299 1.265 . S
H294 C299 0.950 . S
H295 C303 0.949 . S
H296 C304 0.950 . S
H297 C305 0.951 . S
H298 C306 0.951 . S
C299 C293 1.265 . S
C299 H294 0.950 . S
C299 C300 1.478 . S
C300 C299 1.478 . S
C300 C301 1.397 . S
C300 C317 1.394 . S
C301 C300 1.397 . S
C301 C302 1.438 . S
C301 C306 1.429 . S
C302 C301 1.438 . S
C302 C303 1.428 . S
C302 C315 1.394 . S
C303 H295 0.949 . S
C303 C302 1.428 . S
C303 C304 1.345 . S
C304 H296 0.950 . S
C304 C303 1.345 . S
C304 C305 1.424 . S
C305 H297 0.951 . S
C305 C304 1.424 . S
C305 C306 1.347 . S
C306 H298 0.951 . S
C306 C301 1.429 . S
C306 C305 1.347 . S
H307 C308 0.951 . S
C308 H307 0.951 . S
C308 C314 1.265 . S
H309 C314 0.950 . S
H310 C318 0.949 . S
H311 C319 0.950 . S
H312 C320 0.951 . S
H313 C321 0.951 . S
C314 C308 1.265 . S
C314 H309 0.950 . S
C314 C315 1.478 . S
C315 C302 1.394 . S
C315 C314 1.478 . S
C315 C316 1.397 . S
C316 C315 1.397 . S
C316 C317 1.438 . S
C316 C321 1.429 . S
C317 C300 1.394 . S
C317 C316 1.438 . S
C317 C318 1.428 . S
C318 H310 0.949 . S
C318 C317 1.428 . S
C318 C319 1.345 . S
C319 H311 0.950 . S
C319 C318 1.345 . S
C319 C320 1.424 . S
C320 H312 0.951 . S
C320 C319 1.424 . S
C320 C321 1.347 . S
C321 H313 0.951 . S
C321 C316 1.429 . S
C321 C320 1.347 . S
H322 C323 0.951 . S
C323 H322 0.951 . S
C323 C329 1.265 . S
H324 C329 0.950 . S
H325 C333 0.949 . S
H326 C334 0.950 . S
H327 C335 0.951 . S
H328 C336 0.951 . S
C329 C323 1.265 . S
C329 H324 0.950 . S
C329 C330 1.478 . S
C330 C329 1.478 . S
C330 C331 1.397 . S
C330 C347 1.394 . S
C331 C330 1.397 . S
C331 C332 1.438 . S
C331 C336 1.429 . S
C332 C331 1.438 . S
C332 C333 1.428 . S
C332 C345 1.394 . S
C333 H325 0.949 . S
C333 C332 1.428 . S
C333 C334 1.345 . S
C334 H326 0.950 . S
C334 C333 1.345 . S
C334 C335 1.424 . S
C335 H327 0.951 . S
C335 C334 1.424 . S
C335 C336 1.347 . S
C336 H328 0.951 . S
C336 C331 1.429 . S
C336 C335 1.347 . S
H337 C338 0.951 . S
C338 H337 0.951 . S
C338 C344 1.265 . S
H339 C344 0.950 . S
H340 C348 0.949 . S
H341 C349 0.950 . S
H342 C350 0.951 . S
H343 C351 0.951 . S
C344 C338 1.265 . S
C344 H339 0.950 . S
C344 C345 1.478 . S
C345 C332 1.394 . S
C345 C344 1.478 . S
C345 C346 1.397 . S
C346 C345 1.397 . S
C346 C347 1.438 . S
C346 C351 1.429 . S
C347 C330 1.394 . S
C347 C346 1.438 . S
C347 C348 1.428 . S
C348 H340 0.949 . S
C348 C347 1.428 . S
C348 C349 1.345 . S
C349 H341 0.950 . S
C349 C348 1.345 . S
C349 C350 1.424 . S
C350 H342 0.951 . S
C350 C349 1.424 . S
C350 C351 1.347 . S
C351 H343 0.951 . S
C351 C346 1.429 . S
C351 C350 1.347 . S
H352 C353 0.951 . S
C353 H352 0.951 . S
C353 C359 1.265 . S
H354 C359 0.950 . S
H355 C363 0.949 . S
H356 C364 0.950 . S
H357 C365 0.951 . S
H358 C366 0.951 . S
C359 C353 1.265 . S
C359 H354 0.950 . S
C359 C360 1.478 . S
C360 C359 1.478 . S
C360 C361 1.397 . S
C360 C377 1.394 . S
C361 C360 1.397 . S
C361 C362 1.438 . S
C361 C366 1.429 . S
C362 C361 1.438 . S
C362 C363 1.428 . S
C362 C375 1.394 . S
C363 H355 0.949 . S
C363 C362 1.428 . S
C363 C364 1.345 . S
C364 H356 0.950 . S
C364 C363 1.345 . S
C364 C365 1.424 . S
C365 H357 0.951 . S
C365 C364 1.424 . S
C365 C366 1.347 . S
C366 H358 0.951 . S
C366 C361 1.429 . S
C366 C365 1.347 . S
H367 C368 0.951 . S
C368 H367 0.951 . S
C368 C374 1.265 . S
H369 C374 0.950 . S
H370 C378 0.949 . S
H371 C379 0.950 . S
H372 C380 0.951 . S
H373 C381 0.951 . S
C374 C368 1.265 . S
C374 H369 0.950 . S
C374 C375 1.478 . S
C375 C362 1.394 . S
C375 C374 1.478 . S
C375 C376 1.397 . S
C376 C375 1.397 . S
C376 C377 1.438 . S
C376 C381 1.429 . S
C377 C360 1.394 . S
C377 C376 1.438 . S
C377 C378 1.428 . S
C378 H370 0.949 . S
C378 C377 1.428 . S
C378 C379 1.345 . S
C379 H371 0.950 . S
C379 C378 1.345 . S
C379 C380 1.424 . S
C380 H372 0.951 . S
C380 C379 1.424 . S
C380 C381 1.347 . S
C381 H373 0.951 . S
C381 C376 1.429 . S
C381 C380 1.347 . S
H382 C383 0.951 . S
C383 H382 0.951 . S
C383 C389 1.265 . S
H384 C389 0.950 . S
H385 C393 0.949 . S
H386 C394 0.950 . S
H387 C395 0.951 . S
H388 C396 0.951 . S
C389 C383 1.265 . S
C389 H384 0.950 . S
C389 C390 1.478 . S
C390 C389 1.478 . S
C390 C391 1.397 1_556 S
C390 C407 1.394 . S
C391 C390 1.397 1_554 S
C391 C392 1.438 . S
C391 C396 1.429 . S
C392 C391 1.438 . S
C392 C393 1.428 . S
C392 C405 1.394 . S
C393 H385 0.949 . S
C393 C392 1.428 . S
C393 C394 1.345 . S
C394 H386 0.950 . S
C394 C393 1.345 . S
C394 C395 1.424 . S
C395 H387 0.951 . S
C395 C394 1.424 . S
C395 C396 1.347 . S
C396 H388 0.951 . S
C396 C391 1.429 . S
C396 C395 1.347 . S
H397 C398 0.951 . S
C398 H397 0.951 . S
C398 C404 1.265 . S
H399 C404 0.950 . S
H400 C408 0.949 . S
H401 C409 0.950 . S
H402 C410 0.951 . S
H403 C411 0.951 . S
C404 C398 1.265 . S
C404 H399 0.950 . S
C404 C405 1.478 . S
C405 C392 1.394 . S
C405 C404 1.478 . S
C405 C406 1.397 1_554 S
C406 C405 1.397 1_556 S
C406 C407 1.438 . S
C406 C411 1.429 . S
C407 C390 1.394 . S
C407 C406 1.438 . S
C407 C408 1.428 . S
C408 H400 0.949 . S
C408 C407 1.428 . S
C408 C409 1.345 . S
C409 H401 0.950 . S
C409 C408 1.345 . S
C409 C410 1.424 . S
C410 H402 0.951 . S
C410 C409 1.424 . S
C410 C411 1.347 . S
C411 H403 0.951 . S
C411 C406 1.429 . S
C411 C410 1.347 . S
H412 C413 0.951 . S
C413 H412 0.951 . S
C413 C419 1.265 . S
H414 C419 0.950 . S
H415 C423 0.949 . S
H416 C424 0.950 . S
H417 C425 0.951 . S
H418 C426 0.951 . S
C419 C413 1.265 . S
C419 H414 0.950 . S
C419 C420 1.478 . S
C420 C419 1.478 . S
C420 C421 1.397 . S
C420 C437 1.394 . S
C421 C420 1.397 . S
C421 C422 1.438 1_565 S
C421 C426 1.429 . S
C422 C421 1.438 1_545 S
C422 C423 1.428 . S
C422 C435 1.394 . S
C423 H415 0.949 . S
C423 C422 1.428 . S
C423 C424 1.345 . S
C424 H416 0.950 . S
C424 C423 1.345 . S
C424 C425 1.424 . S
C425 H417 0.951 . S
C425 C424 1.424 . S
C425 C426 1.347 1_545 S
C426 H418 0.951 . S
C426 C421 1.429 . S
C426 C425 1.347 1_565 S
H427 C428 0.951 . S
C428 H427 0.951 . S
C428 C434 1.265 . S
H429 C434 0.950 . S
H430 C438 0.949 . S
H431 C439 0.950 . S
H432 C440 0.951 . S
H433 C441 0.951 1_545 S
C434 C428 1.265 . S
C434 H429 0.950 . S
C434 C435 1.478 . S
C435 C422 1.394 . S
C435 C434 1.478 . S
C435 C436 1.397 1_545 S
C436 C435 1.397 1_565 S
C436 C437 1.438 . S
C436 C441 1.429 . S
C437 C420 1.394 . S
C437 C436 1.438 . S
C437 C438 1.428 . S
C438 H430 0.949 . S
C438 C437 1.428 . S
C438 C439 1.345 . S
C439 H431 0.950 . S
C439 C438 1.345 . S
C439 C440 1.424 . S
C440 H432 0.951 . S
C440 C439 1.424 . S
C440 C441 1.347 . S
C441 H433 0.951 1_565 S
C441 C436 1.429 . S
C441 C440 1.347 . S
H442 C443 0.951 . S
C443 H442 0.951 . S
C443 C449 1.265 . S
H444 C449 0.950 . S
H445 C453 0.949 1_445 S
H446 C454 0.950 . S
H447 C455 0.951 . S
H448 C456 0.951 . S
C449 C443 1.265 . S
C449 H444 0.950 . S
C449 C450 1.478 . S
C450 C449 1.478 . S
C450 C451 1.397 . S
C450 C467 1.394 1_655 S
C451 C450 1.397 . S
C451 C452 1.438 1_655 S
C451 C456 1.429 . S
C452 C451 1.438 1_455 S
C452 C453 1.428 1_455 S
C452 C465 1.394 1_565 S
C453 H445 0.949 1_665 S
C453 C452 1.428 1_655 S
C453 C454 1.345 . S
C454 H446 0.950 . S
C454 C453 1.345 . S
C454 C455 1.424 . S
C455 H447 0.951 . S
C455 C454 1.424 . S
C455 C456 1.347 . S
C456 H448 0.951 . S
C456 C451 1.429 . S
C456 C455 1.347 . S
H457 C458 0.951 . S
C458 H457 0.951 . S
C458 C464 1.265 . S
H459 C464 0.950 . S
H460 C468 0.968 . S
H461 C469 0.950 . S
H462 C470 0.951 . S
H463 C471 0.951 . S
C464 C458 1.265 . S
C464 H459 0.950 . S
C464 C465 1.478 . S
C465 C452 1.394 1_545 S
C465 C464 1.478 . S
C465 C466 1.397 . S
C466 C465 1.397 . S
C466 C467 1.438 1_545 S
C466 C471 1.429 . S
C467 C450 1.394 1_455 S
C467 C466 1.438 1_565 S
C467 C468 1.428 . S
C468 H460 0.968 . S
C468 C467 1.428 . S
C468 C469 1.345 1_565 S
C469 H461 0.950 . S
C469 C468 1.345 1_545 S
C469 C470 1.424 . S
C470 H462 0.951 . S
C470 C469 1.424 . S
C470 C471 1.347 . S
C471 H463 0.951 . S
C471 C466 1.429 . S
C471 C470 1.347 . S
H472 C473 0.951 . S
C473 H472 0.951 . S
C473 C479 1.265 . S
H474 C479 0.950 . S
H475 C483 0.949 1_455 S
H476 C484 0.950 . S
H477 C485 0.951 . S
H478 C486 0.951 . S
C479 C473 1.265 . S
C479 H474 0.950 . S
C479 C480 1.478 . S
C480 C479 1.478 . S
C480 C481 1.397 . S
C480 C497 1.394 1_655 S
C481 C480 1.397 . S
C481 C482 1.438 1_655 S
C481 C486 1.429 . S
C482 C481 1.438 1_455 S
C482 C483 1.428 1_455 S
C482 C495 1.394 . S
C483 H475 0.949 1_655 S
C483 C482 1.428 1_655 S
C483 C484 1.345 . S
C484 H476 0.950 . S
C484 C483 1.345 . S
C484 C485 1.424 . S
C485 H477 0.951 . S
C485 C484 1.424 . S
C485 C486 1.347 . S
C486 H478 0.951 . S
C486 C481 1.429 . S
C486 C485 1.347 . S
H487 C488 0.951 . S
C488 H487 0.951 . S
C488 C494 1.265 . S
H489 C494 0.950 . S
H490 C498 0.949 . S
H491 C499 0.950 . S
H492 C500 0.951 . S
H493 C501 0.951 . S
C494 C488 1.265 . S
C494 H489 0.950 . S
C494 C495 1.478 . S
C495 C482 1.394 . S
C495 C494 1.478 . S
C495 C496 1.397 . S
C496 C495 1.397 . S
C496 C497 1.438 . S
C496 C501 1.429 . S
C497 C480 1.394 1_455 S
C497 C496 1.438 . S
C497 C498 1.428 . S
C498 H490 0.949 . S
C498 C497 1.428 . S
C498 C499 1.345 . S
C499 H491 0.950 . S
C499 C498 1.345 . S
C499 C500 1.424 . S
C500 H492 0.951 . S
C500 C499 1.424 . S
C500 C501 1.347 . S
C501 H493 0.951 . S
C501 C496 1.429 . S
C501 C500 1.347 . S
H502 C503 0.951 . S
C503 H502 0.951 . S
C503 C509 1.265 . S
H504 C509 0.950 . S
H505 C513 0.949 . S
H506 C514 0.950 . S
H507 C515 0.951 . S
H508 C516 0.951 . S
C509 C503 1.265 . S
C509 H504 0.950 . S
C509 C510 1.478 . S
C510 C509 1.478 . S
C510 C511 1.397 . S
C510 C527 1.394 . S
C511 C510 1.397 . S
C511 C512 1.438 . S
C511 C516 1.429 . S
C512 C511 1.438 . S
C512 C513 1.428 . S
C512 C525 1.394 . S
C513 H505 0.949 . S
C513 C512 1.428 . S
C513 C514 1.345 . S
C514 H506 0.950 . S
C514 C513 1.345 . S
C514 C515 1.424 . S
C515 H507 0.951 . S
C515 C514 1.424 . S
C515 C516 1.347 . S
C516 H508 0.951 . S
C516 C511 1.429 . S
C516 C515 1.347 . S
H517 C518 0.951 . S
C518 H517 0.951 . S
C518 C524 1.265 . S
H519 C524 0.950 . S
H520 C528 0.949 . S
H521 C529 0.950 . S
H522 C530 0.951 . S
H523 C531 0.951 . S
C524 C518 1.265 . S
C524 H519 0.950 . S
C524 C525 1.478 . S
C525 C512 1.394 . S
C525 C524 1.478 . S
C525 C526 1.397 . S
C526 C525 1.397 . S
C526 C527 1.438 . S
C526 C531 1.429 . S
C527 C510 1.394 . S
C527 C526 1.438 . S
C527 C528 1.428 . S
C528 H520 0.949 . S
C528 C527 1.428 . S
C528 C529 1.345 . S
C529 H521 0.950 . S
C529 C528 1.345 . S
C529 C530 1.424 . S
C530 H522 0.951 . S
C530 C529 1.424 . S
C530 C531 1.347 . S
C531 H523 0.951 . S
C531 C526 1.429 . S
C531 C530 1.347 . S
H532 C533 0.951 . S
C533 H532 0.951 . S
C533 C539 1.265 . S
H534 C539 0.950 . S
H535 C543 0.949 . S
H536 C544 0.950 . S
H537 C545 0.951 . S
H538 C546 0.951 . S
C539 C533 1.265 . S
C539 H534 0.950 . S
C539 C540 1.478 . S
C540 C539 1.478 . S
C540 C541 1.397 . S
C540 C557 1.394 . S
C541 C540 1.397 . S
C541 C542 1.438 1_554 S
C541 C546 1.429 . S
C542 C541 1.438 1_556 S
C542 C543 1.428 . S
C542 C555 1.394 . S
C543 H535 0.949 . S
C543 C542 1.428 . S
C543 C544 1.345 1_556 S
C544 H536 0.950 . S
C544 C543 1.345 1_554 S
C544 C545 1.424 . S
C545 H537 0.951 . S
C545 C544 1.424 . S
C545 C546 1.347 . S
C546 H538 0.951 . S
C546 C541 1.429 . S
C546 C545 1.347 . S
H547 C548 0.951 . S
C548 H547 0.951 . S
C548 C554 1.265 . S
H549 C554 0.950 . S
H550 C558 0.949 . S
H551 C559 0.950 . S
H552 C560 0.951 . S
H553 C561 0.951 . S
C554 C548 1.265 . S
C554 H549 0.950 . S
C554 C555 1.478 . S
C555 C542 1.394 . S
C555 C554 1.478 . S
C555 C556 1.397 . S
C556 C555 1.397 . S
C556 C557 1.438 1_556 S
C556 C561 1.429 . S
C557 C540 1.394 . S
C557 C556 1.438 1_554 S
C557 C558 1.428 . S
C558 H550 0.949 . S
C558 C557 1.428 . S
C558 C559 1.345 1_554 S
C559 H551 0.950 . S
C559 C558 1.345 1_556 S
C559 C560 1.424 . S
C560 H552 0.951 . S
C560 C559 1.424 . S
C560 C561 1.347 . S
C561 H553 0.951 . S
C561 C556 1.429 . S
C561 C560 1.347 . S
H562 C563 0.951 . S
C563 H562 0.951 . S
C563 C569 1.265 . S
H564 C569 0.950 . S
H565 C573 0.949 . S
H566 C574 0.950 . S
H567 C575 0.951 . S
H568 C576 0.951 . S
C569 C563 1.265 . S
C569 H564 0.950 . S
C569 C570 1.478 . S
C570 C569 1.478 . S
C570 C571 1.397 . S
C570 C587 1.394 . S
C571 C570 1.397 . S
C571 C572 1.438 . S
C571 C576 1.429 . S
C572 C571 1.438 . S
C572 C573 1.428 . S
C572 C585 1.394 . S
C573 H565 0.949 . S
C573 C572 1.428 . S
C573 C574 1.345 . S
C574 H566 0.950 . S
C574 C573 1.345 . S
C574 C575 1.424 . S
C575 H567 0.951 . S
C575 C574 1.424 . S
C575 C576 1.347 . S
C576 H568 0.951 . S
C576 C571 1.429 . S
C576 C575 1.347 . S
H577 C578 0.951 . S
C578 H577 0.951 . S
C578 C584 1.265 . S
H579 C584 0.950 . S
H580 C588 0.949 . S
H581 C589 0.950 . S
H582 C590 0.951 . S
H583 C591 0.951 . S
C584 C578 1.265 . S
C584 H579 0.950 . S
C584 C585 1.478 . S
C585 C572 1.394 . S
C585 C584 1.478 . S
C585 C586 1.397 . S
C586 C585 1.397 . S
C586 C587 1.438 . S
C586 C591 1.429 . S
C587 C570 1.394 . S
C587 C586 1.438 . S
C587 C588 1.428 . S
C588 H580 0.949 . S
C588 C587 1.428 . S
C588 C589 1.345 . S
C589 H581 0.950 . S
C589 C588 1.345 . S
C589 C590 1.424 . S
C590 H582 0.951 . S
C590 C589 1.424 . S
C590 C591 1.347 . S
C591 H583 0.951 . S
C591 C586 1.429 . S
C591 C590 1.347 . S
C113 C75 1.539 . S
C128 C5 1.551 . S
C143 C109 1.509 . S
C158 C14 1.510 . S
C173 C37 1.523 . S
C188 C93 1.521 . S
C203 C53 1.506 . S
C218 C56 1.539 . S
C233 C84 1.507 . S
C248 C11 1.538 . S
C263 C23 1.521 . S
C278 C65 1.519 . S
C293 C81 1.505 . S
C308 C28 1.538 . S
C323 C47 1.555 . S
C338 C103 1.535 . S
C353 C67 1.544 . S
C368 C70 1.520 . S
C383 C19 1.553 . S
C398 C33 1.537 . S
C413 C42 1.516 . S
C428 C39 1.544 . S
C443 C51 1.520 . S
C458 C9 1.522 . S
C473 C25 1.544 . S
C488 C0 1.517 . S
C503 C98 1.503 . S
C518 C95 1.526 . S
C533 C61 1.536 . S
C548 C89 1.555 . S
C563 C79 1.519 . S
C578 C107 1.520 . S
