# Generated by pormake.
# Topology smd, (6)-cn, num edge types: 1
# Building blocks:
#     Node 0, Type 0, BuildingBlock: GEDQOX_clean_sbu_0, # of connection points: 6
#     Node 1, Type 0, BuildingBlock: GEDQOX_clean_sbu_0, # of connection points: 6
#     Node 2, Type 0, BuildingBlock: GEDQOX_clean_sbu_0, # of connection points: 6
#     Node 3, Type 0, BuildingBlock: GEDQOX_clean_sbu_0, # of connection points: 6
#     Node 4, Type 0, BuildingBlock: GEDQOX_clean_sbu_0, # of connection points: 6
#     Node 5, Type 0, BuildingBlock: GEDQOX_clean_sbu_0, # of connection points: 6
#     Node 6, Type 0, BuildingBlock: GEDQOX_clean_sbu_0, # of connection points: 6
#     Node 7, Type 0, BuildingBlock: GEDQOX_clean_sbu_0, # of connection points: 6
#     Node 8, Type 0, BuildingBlock: GEDQOX_clean_sbu_0, # of connection points: 6
#     Node 9, Type 0, BuildingBlock: GEDQOX_clean_sbu_0, # of connection points: 6
#     Node 10, Type 0, BuildingBlock: GEDQOX_clean_sbu_0, # of connection points: 6
#     Node 11, Type 0, BuildingBlock: GEDQOX_clean_sbu_0, # of connection points: 6
#     Node 12, Type 0, BuildingBlock: GEDQOX_clean_sbu_0, # of connection points: 6
#     Node 13, Type 0, BuildingBlock: GEDQOX_clean_sbu_0, # of connection points: 6
#     Node 14, Type 0, BuildingBlock: GEDQOX_clean_sbu_0, # of connection points: 6
#     Node 15, Type 0, BuildingBlock: GEDQOX_clean_sbu_0, # of connection points: 6
#     Node 16, Type 0, BuildingBlock: GEDQOX_clean_sbu_0, # of connection points: 6
#     Node 17, Type 0, BuildingBlock: GEDQOX_clean_sbu_0, # of connection points: 6
#     Edge 18, Type (0, 0), BuildingBlock: XUDNAN_clean_linker_2, # of connection points: 2
#     Edge 19, Type (0, 0), BuildingBlock: XUDNAN_clean_linker_2, # of connection points: 2
#     Edge 20, Type (0, 0), BuildingBlock: XUDNAN_clean_linker_2, # of connection points: 2
#     Edge 21, Type (0, 0), BuildingBlock: XUDNAN_clean_linker_2, # of connection points: 2
#     Edge 22, Type (0, 0), BuildingBlock: XUDNAN_clean_linker_2, # of connection points: 2
#     Edge 23, Type (0, 0), BuildingBlock: XUDNAN_clean_linker_2, # of connection points: 2
#     Edge 24, Type (0, 0), BuildingBlock: XUDNAN_clean_linker_2, # of connection points: 2
#     Edge 25, Type (0, 0), BuildingBlock: XUDNAN_clean_linker_2, # of connection points: 2
#     Edge 26, Type (0, 0), BuildingBlock: XUDNAN_clean_linker_2, # of connection points: 2
#     Edge 27, Type (0, 0), BuildingBlock: XUDNAN_clean_linker_2, # of connection points: 2
#     Edge 28, Type (0, 0), BuildingBlock: XUDNAN_clean_linker_2, # of connection points: 2
#     Edge 29, Type (0, 0), BuildingBlock: XUDNAN_clean_linker_2, # of connection points: 2
#     Edge 30, Type (0, 0), BuildingBlock: XUDNAN_clean_linker_2, # of connection points: 2
#     Edge 31, Type (0, 0), BuildingBlock: XUDNAN_clean_linker_2, # of connection points: 2
#     Edge 32, Type (0, 0), BuildingBlock: XUDNAN_clean_linker_2, # of connection points: 2
#     Edge 33, Type (0, 0), BuildingBlock: XUDNAN_clean_linker_2, # of connection points: 2
#     Edge 34, Type (0, 0), BuildingBlock: XUDNAN_clean_linker_2, # of connection points: 2
#     Edge 35, Type (0, 0), BuildingBlock: XUDNAN_clean_linker_2, # of connection points: 2
#     Edge 36, Type (0, 0), BuildingBlock: XUDNAN_clean_linker_2, # of connection points: 2
#     Edge 37, Type (0, 0), BuildingBlock: XUDNAN_clean_linker_2, # of connection points: 2
#     Edge 38, Type (0, 0), BuildingBlock: XUDNAN_clean_linker_2, # of connection points: 2
#     Edge 39, Type (0, 0), BuildingBlock: XUDNAN_clean_linker_2, # of connection points: 2
#     Edge 40, Type (0, 0), BuildingBlock: XUDNAN_clean_linker_2, # of connection points: 2
#     Edge 41, Type (0, 0), BuildingBlock: XUDNAN_clean_linker_2, # of connection points: 2
#     Edge 42, Type (0, 0), BuildingBlock: XUDNAN_clean_linker_2, # of connection points: 2
#     Edge 43, Type (0, 0), BuildingBlock: XUDNAN_clean_linker_2, # of connection points: 2
#     Edge 44, Type (0, 0), BuildingBlock: XUDNAN_clean_linker_2, # of connection points: 2
#     Edge 45, Type (0, 0), BuildingBlock: XUDNAN_clean_linker_2, # of connection points: 2
#     Edge 46, Type (0, 0), BuildingBlock: XUDNAN_clean_linker_2, # of connection points: 2
#     Edge 47, Type (0, 0), BuildingBlock: XUDNAN_clean_linker_2, # of connection points: 2
#     Edge 48, Type (0, 0), BuildingBlock: XUDNAN_clean_linker_2, # of connection points: 2
#     Edge 49, Type (0, 0), BuildingBlock: XUDNAN_clean_linker_2, # of connection points: 2
#     Edge 50, Type (0, 0), BuildingBlock: XUDNAN_clean_linker_2, # of connection points: 2
#     Edge 51, Type (0, 0), BuildingBlock: XUDNAN_clean_linker_2, # of connection points: 2
#     Edge 52, Type (0, 0), BuildingBlock: XUDNAN_clean_linker_2, # of connection points: 2
#     Edge 53, Type (0, 0), BuildingBlock: XUDNAN_clean_linker_2, # of connection points: 2
#     Edge 54, Type (0, 0), BuildingBlock: XUDNAN_clean_linker_2, # of connection points: 2
#     Edge 55, Type (0, 0), BuildingBlock: XUDNAN_clean_linker_2, # of connection points: 2
#     Edge 56, Type (0, 0), BuildingBlock: XUDNAN_clean_linker_2, # of connection points: 2
#     Edge 57, Type (0, 0), BuildingBlock: XUDNAN_clean_linker_2, # of connection points: 2
#     Edge 58, Type (0, 0), BuildingBlock: XUDNAN_clean_linker_2, # of connection points: 2
#     Edge 59, Type (0, 0), BuildingBlock: XUDNAN_clean_linker_2, # of connection points: 2
#     Edge 60, Type (0, 0), BuildingBlock: XUDNAN_clean_linker_2, # of connection points: 2
#     Edge 61, Type (0, 0), BuildingBlock: XUDNAN_clean_linker_2, # of connection points: 2
#     Edge 62, Type (0, 0), BuildingBlock: XUDNAN_clean_linker_2, # of connection points: 2
#     Edge 63, Type (0, 0), BuildingBlock: XUDNAN_clean_linker_2, # of connection points: 2
#     Edge 64, Type (0, 0), BuildingBlock: XUDNAN_clean_linker_2, # of connection points: 2
#     Edge 65, Type (0, 0), BuildingBlock: XUDNAN_clean_linker_2, # of connection points: 2
#     Edge 66, Type (0, 0), BuildingBlock: XUDNAN_clean_linker_2, # of connection points: 2
#     Edge 67, Type (0, 0), BuildingBlock: XUDNAN_clean_linker_2, # of connection points: 2
#     Edge 68, Type (0, 0), BuildingBlock: XUDNAN_clean_linker_2, # of connection points: 2
#     Edge 69, Type (0, 0), BuildingBlock: XUDNAN_clean_linker_2, # of connection points: 2
#     Edge 70, Type (0, 0), BuildingBlock: XUDNAN_clean_linker_2, # of connection points: 2
#     Edge 71, Type (0, 0), BuildingBlock: XUDNAN_clean_linker_2, # of connection points: 2
# Relax obj value: 0.274
# Max RMSD: 0.258
# Mean RMSD: 0.258
data_MOF--net-smd--node1-GEDQOX_clean_sbu_0--edge1-XUDNAN_clean_linker_2
_symmetry_space_group_name_H-M    P1
_symmetry_Int_Tables_number       1
_symmetry_cell_setting            triclinic
loop_
_symmetry_equiv_pos_as_xyz
'x, y, z'
_cell_length_a     94.774818
_cell_length_b     94.804218
_cell_length_c     15.599507
_cell_angle_alpha  89.90434
_cell_angle_beta   90.021007
_cell_angle_gamma 119.99368
loop_
_atom_site_label
_atom_site_type_symbol
_atom_site_fract_x
_atom_site_fract_y
_atom_site_fract_z
_atom_type_partial_charge
Nd0 Nd 0.03797 0.23485 0.56433 0.0
Nd1 Nd 0.01123 0.24627 0.56515 0.0
C2 C 0.06295 0.22981 0.55865 0.0
C3 C 0.07854 0.23103 0.53407 0.0
C4 C 0.09111 0.24502 0.49518 0.0
C5 C 0.10643 0.24646 0.48214 0.0
C6 C 0.1096 0.23407 0.50929 0.0
C7 C 0.09672 0.21992 0.54638 0.0
C8 C 0.0814 0.21842 0.55814 0.0
C9 C 1.00559 0.21072 0.574 0.0
C10 C 0.02673 0.24323 0.38251 0.0
C11 C 0.9834 0.24615 0.57278 0.0
C12 C 0.97595 0.25466 0.61589 0.0
C13 C 0.95977 0.24556 0.64373 0.0
C14 C 0.95193 0.25328 0.67989 0.0
C15 C 0.9601 0.27032 0.68858 0.0
C16 C 0.97655 0.2794 0.66304 0.0
C17 C 0.98442 0.27163 0.62722 0.0
C18 C 0.04185 0.27332 0.56903 0.0
C19 C 0.02631 0.24167 0.74795 0.0
O20 O 0.06314 0.24184 0.60088 0.0
O21 O 0.0496 0.22095 0.51447 0.0
O22 O 0.01719 0.20963 0.6121 0.0
O23 O 0.01147 0.22355 0.53051 0.0
O24 O 0.03863 0.24331 0.42725 0.0
O25 O 0.01372 0.24241 0.41978 0.0
O26 O 0.98658 0.2367 0.6208 0.0
O27 O 0.99465 0.25437 0.5151 0.0
O28 O 0.0285 0.27396 0.57208 0.0
O29 O 0.03845 0.25866 0.56885 0.0
O30 O 0.014 0.24212 0.71016 0.0
O31 O 0.0378 0.24094 0.70404 0.0
H32 H 0.08918 0.25493 0.47639 0.0
H33 H 0.11582 0.25739 0.45155 0.0
H34 H 0.09858 0.2102 0.56955 0.0
H35 H 0.07189 0.20759 0.58924 0.0
H36 H 0.95308 0.23244 0.63631 0.0
H37 H 0.93942 0.24585 0.70069 0.0
H38 H 0.98322 0.29255 0.66829 0.0
H39 H 0.99699 0.27891 0.6069 0.0
Nd40 Nd 0.81866 0.82839 0.58034 0.0
Nd41 Nd 0.80998 0.79109 0.58319 0.0
C42 C 0.81863 0.85614 0.60137 0.0
C43 C 0.81853 0.87064 0.56597 0.0
C44 C 0.80408 0.86951 0.53492 0.0
C45 C 0.80348 0.88356 0.51392 0.0
C46 C 0.81731 0.89915 0.52294 0.0
C47 C 0.83186 0.90023 0.55256 0.0
C48 C 0.83243 0.88616 0.57407 0.0
C49 C 0.84452 0.82297 0.5665 0.0
C50 C 0.81645 0.81055 0.40085 0.0
C51 C 0.81122 0.76393 0.59574 0.0
C52 C 0.80103 0.74694 0.62572 0.0
C53 C 0.79668 0.74332 0.71258 0.0
C54 C 0.78835 0.72717 0.74101 0.0
C55 C 0.78412 0.71427 0.68327 0.0
C56 C 0.78802 0.71793 0.59604 0.0
C57 C 0.79644 0.73408 0.56771 0.0
C58 C 0.7817 0.79217 0.56413 0.0
C59 C 0.81247 0.80869 0.76655 0.0
O60 O 0.80535 0.84188 0.59582 0.0
O61 O 0.83201 0.85533 0.59673 0.0
O62 O 0.84421 0.83505 0.52835 0.0
O63 O 0.83206 0.81514 0.61289 0.0
O64 O 0.81369 0.8216 0.43702 0.0
O65 O 0.81905 0.80031 0.44711 0.0
O66 O 0.81682 0.7753 0.65436 0.0
O67 O 0.80674 0.76821 0.52541 0.0
O68 O 0.78219 0.77877 0.56812 0.0
O69 O 0.79588 0.80415 0.57209 0.0
O70 O 0.80836 0.79513 0.7245 0.0
O71 O 0.81689 0.82273 0.72717 0.0
H72 H 0.79305 0.8578 0.52934 0.0
H73 H 0.79195 0.88215 0.49306 0.0
H74 H 0.84282 0.91195 0.55948 0.0
H75 H 0.84368 0.88746 0.59921 0.0
H76 H 0.80001 0.75294 0.75912 0.0
H77 H 0.78563 0.72483 0.80871 0.0
H78 H 0.78462 0.7083 0.54948 0.0
H79 H 0.7996 0.73654 0.50047 0.0
Nd80 Nd 0.22525 0.01355 0.58024 0.0
Nd81 Nd 0.26252 0.04165 0.58664 0.0
C82 C 0.19697 0.98627 0.60121 0.0
C83 C 0.18262 0.97153 0.56601 0.0
C84 C 0.18376 0.95795 0.54004 0.0
C85 C 0.16975 0.94327 0.51914 0.0
C86 C 0.15418 0.94175 0.52315 0.0
C87 C 0.1531 0.95546 0.54776 0.0
C88 C 0.16713 0.97013 0.56917 0.0
C89 C 0.2313 0.04508 0.56873 0.0
C90 C 0.24353 0.02887 0.40228 0.0
C91 C 0.28958 0.07013 0.59833 0.0
C92 C 0.30587 0.07689 0.6371 0.0
C93 C 0.31343 0.0927 0.67059 0.0
C94 C 0.32891 0.09955 0.70742 0.0
C95 C 0.33715 0.09068 0.71182 0.0
C96 C 0.32941 0.07469 0.67913 0.0
C97 C 0.31389 0.06784 0.64226 0.0
C98 C 0.26128 0.0122 0.56922 0.0
C99 C 0.24448 0.02671 0.76849 0.0
O100 O 0.21111 0.98692 0.60235 0.0
O101 O 0.19818 1.00052 0.58984 0.0
O102 O 0.21954 0.03307 0.52693 0.0
O103 O 0.23858 0.03996 0.61592 0.0
O104 O 0.23236 0.01507 0.43804 0.0
O105 O 0.25386 0.04156 0.44895 0.0
O106 O 0.27741 0.06534 0.6519 0.0
O107 O 0.28623 0.06031 0.53287 0.0
O108 O 0.2747 0.02597 0.57792 0.0
O109 O 0.24928 0.01446 0.5745 0.0
O110 O 0.2583 0.03595 0.72788 0.0
O111 O 0.23051 0.0174 0.7277 0.0
H112 H 0.19544 0.95847 0.5383 0.0
H113 H 0.17115 0.93297 0.50223 0.0
H114 H 0.14141 0.95488 0.55073 0.0
H115 H 0.16582 0.98029 0.59033 0.0
H116 H 0.30739 0.09983 0.66766 0.0
H117 H 0.33455 0.11193 0.73085 0.0
H118 H 0.33528 0.0674 0.6826 0.0
H119 H 0.30818 0.0555 0.61782 0.0
Nd120 Nd 0.04462 0.80698 0.43736 0.0
Nd121 Nd 0.01589 0.81577 0.44283 0.0
C122 C 0.07305 0.80821 0.42951 0.0
C123 C 0.07982 0.79828 0.39551 0.0
C124 C 0.07772 0.79324 0.30936 0.0
C125 C 0.0852 0.78477 0.27776 0.0
C126 C 0.09487 0.78112 0.33171 0.0
C127 C 0.09644 0.78571 0.41845 0.0
C128 C 0.08904 0.79423 0.44981 0.0
C129 C 0.01496 0.7787 0.44485 0.0
C130 C 0.0284 0.8089 0.25592 0.0
C131 C 0.98855 0.81658 0.42224 0.0
C132 C 0.97508 0.81869 0.45488 0.0
C133 C 0.96746 0.81211 0.53372 0.0
C134 C 0.95307 0.81199 0.55615 0.0
C135 C 0.94585 0.81824 0.49979 0.0
C136 C 0.95398 0.82543 0.42256 0.0
C137 C 0.96842 0.82567 0.40062 0.0
C138 C 0.04739 0.84112 0.46275 0.0
C139 C 0.02879 0.80996 0.62154 0.0
O140 O 0.06832 0.81531 0.37364 0.0
O141 O 0.06333 0.80238 0.49585 0.0
O142 O 0.02873 0.77898 0.43753 0.0
O143 O 0.01749 0.79306 0.4424 0.0
O144 O 0.03995 0.807 0.29236 0.0
O145 O 0.01815 0.81171 0.30024 0.0
O146 O 0.98905 0.80357 0.44583 0.0
O147 O 1.00297 0.82936 0.41001 0.0
O148 O 0.03504 0.84062 0.50246 0.0
O149 O 0.04256 0.82914 0.4132 0.0
O150 O 0.01595 0.80804 0.57871 0.0
O151 O 0.04241 0.81269 0.58194 0.0
H152 H 0.07054 0.79607 0.26599 0.0
H153 H 0.08375 0.78146 0.21059 0.0
H154 H 0.10343 0.78275 0.46236 0.0
H155 H 0.0907 0.79785 0.51657 0.0
H156 H 0.97233 0.80663 0.57679 0.0
H157 H 0.94744 0.8067 0.61713 0.0
H158 H 0.94884 0.83021 0.37686 0.0
H159 H 0.97401 0.83067 0.3391 0.0
Nd160 Nd 0.24633 0.26202 0.45077 0.0
Nd161 Nd 0.23806 0.22429 0.45291 0.0
C162 C 0.24683 0.2899 0.4287 0.0
C163 C 0.25584 0.30522 0.3799 0.0
C164 C 0.24717 0.31181 0.34018 0.0
C165 C 0.25541 0.32705 0.30027 0.0
C166 C 0.27253 0.33601 0.29944 0.0
C167 C 0.28121 0.32908 0.33665 0.0
C168 C 0.27295 0.31382 0.37642 0.0
C169 C 0.27236 0.25782 0.47592 0.0
C170 C 0.24298 0.24273 0.26705 0.0
C171 C 0.2415 0.19826 0.45163 0.0
C172 C 0.23965 0.18254 0.4817 0.0
C173 C 0.25314 0.18253 0.51864 0.0
C174 C 0.25277 0.16793 0.53713 0.0
C175 C 0.2388 0.15278 0.5202 0.0
C176 C 0.22519 0.15276 0.48342 0.0
C177 C 0.22564 0.16748 0.46402 0.0
C178 C 0.21045 0.22761 0.46994 0.0
C179 C 0.24029 0.24265 0.63307 0.0
O180 O 0.23713 0.27672 0.38543 0.0
O181 O 0.25479 0.28737 0.48974 0.0
O182 O 0.27127 0.27005 0.50472 0.0
O183 O 0.26066 0.24905 0.42566 0.0
O184 O 0.24541 0.25633 0.30476 0.0
O185 O 0.24086 0.22986 0.31062 0.0
O186 O 0.25132 0.21169 0.49315 0.0
O187 O 0.22953 0.19876 0.41211 0.0
O188 O 0.20946 0.2134 0.46948 0.0
O189 O 0.22511 0.23796 0.46244 0.0
O190 O 0.24311 0.23206 0.59241 0.0
O191 O 0.23823 0.25381 0.59186 0.0
H192 H 0.23397 0.30535 0.34209 0.0
H193 H 0.24835 0.33206 0.27292 0.0
H194 H 0.29441 0.33553 0.3358 0.0
H195 H 0.27996 0.30893 0.40584 0.0
H196 H 0.26428 0.19388 0.53082 0.0
H197 H 0.2637 0.16862 0.56282 0.0
H198 H 0.21418 0.1414 0.46972 0.0
H199 H 0.21513 0.16705 0.43394 0.0
Nd200 Nd 0.79148 0.0089 0.45173 0.0
Nd201 Nd 0.82924 0.03736 0.45698 0.0
C202 C 0.76419 0.98066 0.43853 0.0
C203 C 0.74827 0.97382 0.39436 0.0
C204 C 0.74482 0.963 0.3258 0.0
C205 C 0.72976 0.95602 0.2843 0.0
C206 C 0.71774 0.95966 0.31035 0.0
C207 C 0.72121 0.97056 0.37887 0.0
C208 C 0.73631 0.97757 0.42047 0.0
C209 C 0.79363 0.03883 0.46441 0.0
C210 C 0.80983 0.02387 0.26936 0.0
C211 C 0.85722 0.06496 0.43812 0.0
C212 C 0.87147 0.07952 0.47517 0.0
C213 C 0.86986 0.09223 0.51123 0.0
C214 C 0.88367 0.10722 0.52995 0.0
C215 C 0.89942 0.10992 0.51273 0.0
C216 C 0.90103 0.09689 0.48145 0.0
C217 C 0.8872 0.08188 0.46262 0.0
C218 C 0.82302 0.0058 0.46998 0.0
C219 C 0.81072 0.02175 0.63539 0.0
O220 O 0.77692 0.98488 0.38967 0.0
O221 O 0.76714 0.99081 0.50201 0.0
O222 O 0.77987 0.02529 0.46094 0.0
O223 O 0.80513 0.03589 0.45997 0.0
O224 O 0.79604 0.01438 0.31 0.0
O225 O 0.82378 0.03346 0.30982 0.0
O226 O 0.84297 0.06408 0.44005 0.0
O227 O 0.8563 0.05074 0.44447 0.0
O228 O 0.83511 0.01792 0.50958 0.0
O229 O 0.81563 0.01088 0.42335 0.0
O230 O 0.82195 0.03554 0.5994 0.0
O231 O 0.80022 0.00907 0.58916 0.0
H232 H 0.75375 0.95981 0.3046 0.0
H233 H 0.72746 0.94751 0.23266 0.0
H234 H 0.71233 0.97382 0.39988 0.0
H235 H 0.73858 0.98589 0.47303 0.0
H236 H 0.85795 0.09087 0.52167 0.0
H237 H 0.88197 0.11688 0.55558 0.0
H238 H 0.91294 0.09855 0.46695 0.0
H239 H 0.88882 0.07238 0.43407 0.0
Nd240 Nd 0.704 0.56804 0.8905 0.0
Nd241 Nd 0.67685 0.5792 0.89221 0.0
C242 C 0.73008 0.56476 0.88372 0.0
C243 C 0.74598 0.56708 0.85478 0.0
C244 C 0.75956 0.58268 0.84327 0.0
C245 C 0.77508 0.58463 0.83049 0.0
C246 C 0.77744 0.57107 0.82993 0.0
C247 C 0.76366 0.55543 0.83775 0.0
C248 C 0.74813 0.55349 0.84995 0.0
C249 C 0.67173 0.54365 0.9029 0.0
C250 C 0.68976 0.57338 0.70808 0.0
C251 C 0.64954 0.58013 0.89968 0.0
C252 C 0.643 0.59014 0.93592 0.0
C253 C 0.63944 0.58975 0.02384 0.0
C254 C 0.63182 0.59815 0.05483 0.0
C255 C 0.62753 0.60699 0.99847 0.0
C256 C 0.63169 0.60786 0.91138 0.0
C257 C 0.63927 0.5995 0.88049 0.0
C258 C 0.7076 0.60623 0.89501 0.0
C259 C 0.68977 0.57202 0.0743 0.0
O260 O 0.72965 0.5767 0.92374 0.0
O261 O 0.7165 0.55473 0.84409 0.0
O262 O 0.6836 0.54255 0.93789 0.0
O263 O 0.67735 0.55651 0.85967 0.0
O264 O 0.70246 0.57367 0.74633 0.0
O265 O 0.6777 0.57319 0.75184 0.0
O266 O 0.65299 0.57154 0.95301 0.0
O267 O 0.66001 0.58653 0.83648 0.0
O268 O 0.69432 0.60695 0.89833 0.0
O269 O 0.70402 0.59156 0.89503 0.0
O270 O 0.67816 0.57277 0.03131 0.0
O271 O 0.70226 0.57205 0.03586 0.0
H272 H 0.75828 0.5934 0.84684 0.0
H273 H 0.78529 0.59686 0.82275 0.0
H274 H 0.7649 0.54469 0.83859 0.0
H275 H 0.73788 0.54134 0.85966 0.0
H276 H 0.64217 0.58267 0.06841 0.0
H277 H 0.62875 0.59723 0.12227 0.0
H278 H 0.62888 0.61485 0.86662 0.0
H279 H 0.64189 0.60007 0.81257 0.0
Nd280 Nd 0.48253 0.15963 0.88896 0.0
Nd281 Nd 0.47814 0.1243 0.8905 0.0
C282 C 0.47689 0.18435 0.88693 0.0
C283 C 0.48178 0.20161 0.86865 0.0
C284 C 0.47439 0.20542 0.80111 0.0
C285 C 0.47616 0.22099 0.79441 0.0
C286 C 0.48518 0.23302 0.85581 0.0
C287 C 0.49333 0.22948 0.92032 0.0
C288 C 0.49166 0.21399 0.92672 0.0
C289 C 0.51297 0.16189 0.87664 0.0
C290 C 0.48205 0.1423 0.7092 0.0
C291 C 0.47844 0.09679 0.91354 0.0
C292 C 0.46902 0.08139 0.96149 0.0
C293 C 0.47716 0.0739 0.99753 0.0
C294 C 0.46842 0.05871 0.03762 0.0
C295 C 0.45132 0.05066 0.04254 0.0
C296 C 0.4432 0.05846 1.00852 0.0
C297 C 0.45196 0.07369 0.96852 0.0
C298 C 0.45009 0.12539 0.86539 0.0
C299 C 0.47899 0.14204 0.07505 0.0
O300 O 0.47256 0.1738 0.8241 0.0
O301 O 0.48393 0.18123 0.95065 0.0
O302 O 0.51082 0.17437 0.87837 0.0
O303 O 0.4993 0.14922 0.88114 0.0
O304 O 0.47694 0.15104 0.7507 0.0
O305 O 0.48636 0.13278 0.75049 0.0
O306 O 0.48753 0.10996 0.95818 0.0
O307 O 0.47098 0.09929 0.84992 0.0
O308 O 0.45303 0.11467 0.83177 0.0
O309 O 0.46126 0.13441 0.91711 0.0
O310 O 0.4787 0.12941 0.03698 0.0
O311 O 0.47918 0.15403 0.03117 0.0
H312 H 0.46653 0.19611 0.75601 0.0
H313 H 0.46965 0.2233 0.7443 0.0
H314 H 0.50054 0.23855 0.96801 0.0
H315 H 0.49746 0.21154 0.97991 0.0
H316 H 0.49029 0.07966 0.99291 0.0
H317 H 0.47507 0.05304 0.06225 0.0
H318 H 0.43007 0.05277 0.01244 0.0
H319 H 0.44538 0.07929 0.94195 0.0
Nd320 Nd 0.891 0.34743 0.9157 0.0
Nd321 Nd 0.92852 0.37575 0.9183 0.0
C322 C 0.86289 0.31996 0.93715 0.0
C323 C 0.84814 0.30555 0.90221 0.0
C324 C 0.84915 0.29285 0.86172 0.0
C325 C 0.83501 0.27829 0.84066 0.0
C326 C 0.81942 0.276 0.85889 0.0
C327 C 0.81846 0.28887 0.89805 0.0
C328 C 0.83264 0.30341 0.91965 0.0
C329 C 0.89707 0.37896 0.90308 0.0
C330 C 0.90928 0.36218 0.73543 0.0
C331 C 0.95576 0.4041 0.93093 0.0
C332 C 0.97194 0.41108 0.97222 0.0
C333 C 0.97642 0.42345 0.03323 0.0
C334 C 0.9917 0.4306 0.07237 0.0
C335 C 1.00293 0.42555 0.05149 0.0
C336 C 0.99839 0.41304 0.99068 0.0
C337 C 0.98304 0.40585 0.95149 0.0
C338 C 0.92705 0.34619 0.90217 0.0
C339 C 0.91125 0.35989 0.10159 0.0
O340 O 0.87699 0.32063 0.93013 0.0
O341 O 0.86403 0.33431 0.93371 0.0
O342 O 0.88502 0.36682 0.86351 0.0
O343 O 0.90459 0.37396 0.94931 0.0
O344 O 0.89774 0.3488 0.77296 0.0
O345 O 0.91996 0.3751 0.77965 0.0
O346 O 0.94334 0.39951 0.9825 0.0
O347 O 0.95257 0.39419 0.86604 0.0
O348 O 0.94054 0.35994 0.90934 0.0
O349 O 0.91513 0.34857 0.90831 0.0
O350 O 0.9247 0.36969 0.0593 0.0
O351 O 0.89706 0.35068 0.06254 0.0
H352 H 0.86087 0.29393 0.84852 0.0
H353 H 0.83638 0.26863 0.81224 0.0
H354 H 0.80676 0.28774 0.91229 0.0
H355 H 0.83147 0.31288 0.95205 0.0
H356 H 0.9681 0.42771 0.05024 0.0
H357 H 0.99482 0.44033 0.11794 0.0
H358 H 1.00664 0.40868 0.97395 0.0
H359 H 0.9799 0.39625 0.90509 0.0
Nd360 Nd 0.71118 0.14042 0.77954 0.0
Nd361 Nd 0.68185 0.14842 0.78455 0.0
C362 C 0.7398 0.14212 0.77012 0.0
C363 C 0.74665 0.13278 0.72916 0.0
C364 C 0.76003 0.14088 0.67397 0.0
C365 C 0.76694 0.13249 0.63506 0.0
C366 C 0.7606 0.11577 0.65036 0.0
C367 C 0.74705 0.10761 0.70517 0.0
C368 C 0.74012 0.11602 0.74406 0.0
C369 C 0.68171 0.1118 0.78507 0.0
C370 C 0.69444 0.14143 0.59808 0.0
C371 C 0.65399 0.14832 0.76534 0.0
C372 C 0.64111 0.15176 0.79496 0.0
C373 C 0.62629 0.13908 0.82734 0.0
C374 C 0.61315 0.14159 0.84394 0.0
C375 C 0.61448 0.15683 0.82815 0.0
C376 C 0.62939 0.1695 0.79616 0.0
C377 C 0.6425 0.16701 0.77998 0.0
C378 C 0.71317 0.17425 0.80428 0.0
C379 C 0.69511 0.14282 0.96385 0.0
O380 O 0.73542 0.15014 0.71852 0.0
O381 O 0.7297 0.13525 0.83424 0.0
O382 O 0.6956 0.11234 0.77807 0.0
O383 O 0.68406 0.1261 0.78314 0.0
O384 O 0.70659 0.14056 0.63462 0.0
O385 O 0.68359 0.14335 0.64226 0.0
O386 O 0.65504 0.13635 0.80095 0.0
O387 O 0.66811 0.16037 0.73994 0.0
O388 O 0.70068 0.17357 0.84331 0.0
O389 O 0.70852 0.16224 0.75524 0.0
O390 O 0.68232 0.14114 0.92137 0.0
O391 O 0.70881 0.1458 0.92427 0.0
H392 H 0.76524 0.15378 0.66132 0.0
H393 H 0.77746 0.13922 0.59412 0.0
H394 H 0.74168 0.09468 0.71734 0.0
H395 H 0.72967 0.10938 0.78562 0.0
H396 H 0.62468 0.12707 0.83798 0.0
H397 H 0.60197 0.13158 0.8692 0.0
H398 H 0.63085 0.18131 0.78126 0.0
H399 H 0.65358 0.17694 0.75325 0.0
Nd400 Nd 0.91443 0.59535 0.79006 0.0
Nd401 Nd 0.90264 0.55724 0.78905 0.0
C402 C 0.91439 0.62308 0.78252 0.0
C403 C 0.92287 0.63892 0.73807 0.0
C404 C 0.9138 0.64601 0.70992 0.0
C405 C 0.92153 0.66147 0.6725 0.0
C406 C 0.93857 0.67024 0.66289 0.0
C407 C 0.94762 0.66285 0.68874 0.0
C408 C 0.93983 0.64731 0.72576 0.0
C409 C 0.94136 0.59158 0.78444 0.0
C410 C 0.91002 0.57603 0.60632 0.0
C411 C 0.89713 0.527 0.79406 0.0
C412 C 0.89929 0.51326 0.82165 0.0
C413 C 0.91479 0.51495 0.83148 0.0
C414 C 0.9164 0.50125 0.84728 0.0
C415 C 0.90255 0.48556 0.8533 0.0
C416 C 0.88707 0.48401 0.84419 0.0
C417 C 0.88549 0.49771 0.82862 0.0
C418 C 0.87875 0.56592 0.77925 0.0
C419 C 0.91116 0.57662 0.97171 0.0
O420 O 0.90468 0.61038 0.73581 0.0
O421 O 0.92277 0.62009 0.83937 0.0
O422 O 0.94216 0.60563 0.78561 0.0
O423 O 0.92668 0.58035 0.78484 0.0
O424 O 0.91055 0.58879 0.64442 0.0
O425 O 0.9092 0.56375 0.65006 0.0
O426 O 0.9085 0.53855 0.74711 0.0
O427 O 0.88896 0.53187 0.84155 0.0
O428 O 0.87766 0.55336 0.73985 0.0
O429 O 0.89146 0.57249 0.82369 0.0
O430 O 0.9112 0.56481 0.92657 0.0
O431 O 0.91042 0.58887 0.93485 0.0
H432 H 0.90069 0.63965 0.71807 0.0
H433 H 0.91414 0.66657 0.65152 0.0
H434 H 0.96076 0.66926 0.68282 0.0
H435 H 0.94709 0.64201 0.74627 0.0
H436 H 0.92566 0.52678 0.82515 0.0
H437 H 0.92853 0.50292 0.85276 0.0
H438 H 0.87614 0.47222 0.8494 0.0
H439 H 0.87341 0.49608 0.82004 0.0
Nd440 Nd 0.45734 0.34349 0.79253 0.0
Nd441 Nd 0.49496 0.36982 0.79053 0.0
C442 C 0.42977 0.31557 0.78152 0.0
C443 C 0.41423 0.30856 0.73386 0.0
C444 C 0.40861 0.29378 0.69024 0.0
C445 C 0.39353 0.28639 0.64855 0.0
C446 C 0.38372 0.29364 0.64978 0.0
C447 C 0.38959 0.30871 0.69159 0.0
C448 C 0.4047 0.31611 0.73309 0.0
C449 C 0.46037 0.37389 0.78661 0.0
C450 C 0.47622 0.35907 0.60817 0.0
C451 C 0.52532 0.39436 0.79875 0.0
C452 C 0.53867 0.41029 0.82819 0.0
C453 C 0.53619 0.42338 0.84626 0.0
C454 C 0.54954 0.43899 0.86072 0.0
C455 C 0.56567 0.4419 0.85608 0.0
C456 C 0.56795 0.42854 0.84104 0.0
C457 C 0.55462 0.41295 0.82756 0.0
C458 C 0.48662 0.33728 0.78365 0.0
C459 C 0.47537 0.35939 0.9736 0.0
O460 O 0.4428 0.31876 0.73708 0.0
O461 O 0.43246 0.32665 0.83955 0.0
O462 O 0.4465 0.36044 0.78899 0.0
O463 O 0.47187 0.37081 0.78678 0.0
O464 O 0.46377 0.34654 0.64657 0.0
O465 O 0.4886 0.37041 0.65162 0.0
O466 O 0.51418 0.39416 0.74831 0.0
O467 O 0.51996 0.38142 0.84759 0.0
O468 O 0.49857 0.34865 0.74005 0.0
O469 O 0.48019 0.3435 0.82842 0.0
O470 O 0.48716 0.37113 0.92766 0.0
O471 O 0.46344 0.34608 0.93752 0.0
H472 H 0.41578 0.28777 0.68973 0.0
H473 H 0.38935 0.27475 0.61764 0.0
H474 H 0.38249 0.31479 0.69248 0.0
H475 H 0.40879 0.32763 0.76528 0.0
H476 H 0.524 0.42166 0.84683 0.0
H477 H 0.54718 0.44883 0.87404 0.0
H478 H 0.58007 0.43018 0.83571 0.0
H479 H 0.55682 0.40305 0.81271 0.0
Nd480 Nd 0.37361 0.90532 0.22358 0.0
Nd481 Nd 0.34262 0.90995 0.2202 0.0
C482 C 0.40389 0.91067 0.22201 0.0
C483 C 0.41611 0.90563 0.20271 0.0
C484 C 0.42809 0.91397 0.13967 0.0
C485 C 0.44164 0.91178 0.1326 0.0
C486 C 0.4436 0.90132 0.18914 0.0
C487 C 0.43115 0.89229 0.24889 0.0
C488 C 0.4176 0.89442 0.25568 0.0
C489 C 0.34518 0.87508 0.20936 0.0
C490 C 0.35794 0.90735 0.0408 0.0
C491 C 0.31459 0.90937 0.23991 0.0
C492 C 0.30782 0.9181 0.28768 0.0
C493 C 0.29205 0.90925 0.32152 0.0
C494 C 0.28464 0.91727 0.35929 0.0
C495 C 0.29279 0.93439 0.36356 0.0
C496 C 0.3089 0.94324 0.33252 0.0
C497 C 0.31635 0.93517 0.29517 0.0
C498 C 0.37194 0.93797 0.19753 0.0
C499 C 0.35955 0.91006 0.40676 0.0
O500 O 0.39784 0.91533 0.15966 0.0
O501 O 0.39362 0.90347 0.28519 0.0
O502 O 0.35971 0.87698 0.21353 0.0
O503 O 0.34648 0.88888 0.21279 0.0
O504 O 0.3713 0.91143 0.08518 0.0
O505 O 0.34377 0.90266 0.07939 0.0
O506 O 0.3184 0.89995 0.28365 0.0
O507 O 0.32506 0.91749 0.17926 0.0
O508 O 0.35835 0.93521 0.16338 0.0
O509 O 0.36958 0.92666 0.24906 0.0
O510 O 0.34707 0.90982 0.36699 0.0
O511 O 0.37143 0.90963 0.36505 0.0
H512 H 0.42742 0.92285 0.09864 0.0
H513 H 0.45104 0.91899 0.08628 0.0
H514 H 0.43216 0.88396 0.29264 0.0
H515 H 0.4087 0.88782 0.30527 0.0
H516 H 0.28529 0.89609 0.31695 0.0
H517 H 0.2724 0.91002 0.38431 0.0
H518 H 0.31557 0.95642 0.33413 0.0
H519 H 0.3286 0.94232 0.27002 0.0
Nd520 Nd 0.15098 0.495 0.22932 0.0
Nd521 Nd 0.14012 0.45669 0.22916 0.0
C522 C 0.1531 0.52358 0.20919 0.0
C523 C 0.15426 0.53966 0.19787 0.0
C524 C 0.14018 0.54107 0.19528 0.0
C525 C 0.14132 0.55619 0.17921 0.0
C526 C 0.15659 0.57023 0.16582 0.0
C527 C 0.17066 0.56878 0.17173 0.0
C528 C 0.1695 0.5537 0.18687 0.0
C529 C 0.17545 0.48723 0.23733 0.0
C530 C 0.14513 0.47513 0.04609 0.0
C531 C 0.14016 0.42895 0.23682 0.0
C532 C 0.13118 0.41252 0.27478 0.0
C533 C 0.12797 0.41002 0.36319 0.0
C534 C 0.12046 0.39424 0.39743 0.0
C535 C 0.11603 0.38071 0.34388 0.0
C536 C 0.1188 0.3833 0.25522 0.0
C537 C 0.12633 0.39902 0.22121 0.0
C538 C 0.113 0.46022 0.23591 0.0
C539 C 0.14604 0.47648 0.41224 0.0
O540 O 0.13999 0.51088 0.23939 0.0
O541 O 0.16515 0.52106 0.19052 0.0
O542 O 0.17659 0.50006 0.27454 0.0
O543 O 0.16246 0.48005 0.195 0.0
O544 O 0.14544 0.48775 0.08503 0.0
O545 O 0.14563 0.46337 0.089 0.0
O546 O 0.1488 0.44123 0.28849 0.0
O547 O 0.13273 0.43233 0.17604 0.0
O548 O 0.11224 0.4462 0.23357 0.0
O549 O 0.12769 0.47129 0.23541 0.0
O550 O 0.14587 0.46445 0.36864 0.0
O551 O 0.1465 0.48925 0.37436 0.0
H552 H 0.12825 0.53042 0.20351 0.0
H553 H 0.13022 0.55676 0.17471 0.0
H554 H 0.18268 0.57933 0.16421 0.0
H555 H 0.18058 0.55304 0.18945 0.0
H556 H 0.1315 0.42024 0.40597 0.0
H557 H 0.1185 0.39269 0.46602 0.0
H558 H 0.11516 0.37315 0.21185 0.0
H559 H 0.12857 0.40066 0.15281 0.0
Nd560 Nd 0.55991 0.67994 0.23924 0.0
Nd561 Nd 0.59674 0.71073 0.23639 0.0
C562 C 0.535 0.64971 0.2408 0.0
C563 C 0.51831 0.63719 0.21485 0.0
C564 C 0.51534 0.62161 0.19214 0.0
C565 C 0.49943 0.60887 0.17728 0.0
C566 C 0.48606 0.61139 0.18485 0.0
C567 C 0.48914 0.62712 0.20683 0.0
C568 C 0.50505 0.63987 0.22149 0.0
C569 C 0.55993 0.70932 0.22794 0.0
C570 C 0.57706 0.69821 0.05753 0.0
C571 C 0.62423 0.73865 0.25549 0.0
C572 C 0.63987 0.74549 0.30142 0.0
C573 C 0.64835 0.76216 0.32015 0.0
C574 C 0.66374 0.7693 0.35819 0.0
C575 C 0.67097 0.75989 0.3789 0.0
C576 C 0.6622 0.74303 0.36194 0.0
C577 C 0.64679 0.73589 0.32347 0.0
C578 C 0.59394 0.68085 0.2149 0.0
C579 C 0.57874 0.69562 0.42282 0.0
O580 O 0.54698 0.65475 0.18537 0.0
O581 O 0.53663 0.66103 0.29467 0.0
O582 O 0.54671 0.69519 0.23325 0.0
O583 O 0.57182 0.70696 0.22827 0.0
O584 O 0.56678 0.68406 0.09432 0.0
O585 O 0.58714 0.71117 0.10308 0.0
O586 O 0.6112 0.7346 0.30156 0.0
O587 O 0.62177 0.72826 0.19416 0.0
O588 O 0.60583 0.69417 0.18384 0.0
O589 O 0.58507 0.68376 0.26373 0.0
O590 O 0.59132 0.70689 0.3794 0.0
O591 O 0.56591 0.6834 0.385 0.0
H592 H 0.52534 0.6192 0.18763 0.0
H593 H 0.49765 0.59705 0.15951 0.0
H594 H 0.4792 0.62955 0.21475 0.0
H595 H 0.50693 0.6517 0.23994 0.0
H596 H 0.6432 0.76975 0.30353 0.0
H597 H 0.67015 0.78232 0.36894 0.0
H598 H 0.66722 0.73532 0.37825 0.0
H599 H 0.64038 0.72295 0.31 0.0
Nd600 Nd 0.37913 0.47673 0.1306 0.0
Nd601 Nd 0.34866 0.48224 0.13237 0.0
C602 C 0.40647 0.47608 0.10761 0.0
C603 C 0.41247 0.46669 0.059 0.0
C604 C 0.42509 0.47474 0.99931 0.0
C605 C 0.43187 0.46646 0.95763 0.0
C606 C 0.42618 0.44989 0.97471 0.0
C607 C 0.41323 0.44173 0.0331 0.0
C608 C 0.40645 0.45002 0.07476 0.0
C609 C 0.34955 0.4493 0.15437 0.0
C610 C 0.36288 0.47915 0.94607 0.0
C611 C 0.31838 0.47671 0.13456 0.0
C612 C 0.30453 0.47865 0.1636 0.0
C613 C 0.2911 0.46527 0.20183 0.0
C614 C 0.27653 0.46528 0.21492 0.0
C615 C 0.27492 0.47867 0.18989 0.0
C616 C 0.28865 0.4925 0.1561 0.0
C617 C 0.3033 0.49246 0.14251 0.0
C618 C 0.37751 0.51205 0.14577 0.0
C619 C 0.36602 0.48227 0.31281 0.0
O620 O 0.40291 0.48573 0.06415 0.0
O621 O 0.39628 0.46858 0.17037 0.0
O622 O 0.36301 0.45175 0.18861 0.0
O623 O 0.35206 0.46067 0.10295 0.0
O624 O 0.37468 0.47784 0.98437 0.0
O625 O 0.35129 0.47984 0.98935 0.0
O626 O 0.3233 0.46854 0.18206 0.0
O627 O 0.32988 0.48792 0.08652 0.0
O628 O 0.36312 0.51055 0.14393 0.0
O629 O 0.37586 0.4981 0.14113 0.0
O630 O 0.35221 0.47837 0.27321 0.0
O631 O 0.37937 0.48514 0.27046 0.0
H632 H 0.42999 0.48759 0.9862 0.0
H633 H 0.44191 0.47321 0.91381 0.0
H634 H 0.40832 0.4289 0.04672 0.0
H635 H 0.39665 0.44339 0.12009 0.0
H636 H 0.29158 0.4544 0.21794 0.0
H637 H 0.26628 0.45452 0.24221 0.0
H638 H 0.28779 0.50299 0.13587 0.0
H639 H 0.31339 0.50293 0.11218 0.0
Nd640 Nd 0.58098 0.92788 0.1242 0.0
Nd641 Nd 0.56998 0.89016 0.12221 0.0
C642 C 0.58067 0.95548 0.11644 0.0
C643 C 0.58922 0.97131 0.07169 0.0
C644 C 0.58022 0.97842 0.04276 0.0
C645 C 0.58804 0.99392 1.00573 0.0
C646 C 0.60511 1.00273 0.99732 0.0
C647 C 0.61409 0.99531 0.0238 0.0
C648 C 0.60621 0.97972 0.0604 0.0
C649 C 0.60828 0.92482 0.11601 0.0
C650 C 0.57734 0.9089 0.93989 0.0
C651 C 0.56483 0.86006 0.12902 0.0
C652 C 0.56529 0.84538 0.15797 0.0
C653 C 0.57938 0.84403 0.15068 0.0
C654 C 0.5788 0.82921 0.16922 0.0
C655 C 0.5641 0.81543 0.19489 0.0
C656 C 0.55006 0.81692 0.20112 0.0
C657 C 0.55069 0.83166 0.18342 0.0
C658 C 0.54562 0.89827 0.1158 0.0
C659 C 0.57858 0.90956 0.30571 0.0
O660 O 0.57097 0.94272 0.07005 0.0
O661 O 0.58905 0.95255 0.17359 0.0
O662 O 0.60881 0.93873 0.11827 0.0
O663 O 0.59371 0.91342 0.11718 0.0
O664 O 0.57734 0.9214 0.97826 0.0
O665 O 0.57641 0.89655 0.98328 0.0
O666 O 0.57747 0.87203 0.09081 0.0
O667 O 0.55526 0.86445 0.16659 0.0
O668 O 0.54518 0.88645 0.07173 0.0
O669 O 0.5583 0.90482 0.16054 0.0
O670 O 0.57824 0.89759 0.26039 0.0
O671 O 0.57761 0.92171 0.26923 0.0
H672 H 0.56709 0.97207 0.05012 0.0
H673 H 0.58069 0.99905 0.98423 0.0
H674 H 0.62725 1.00172 0.01883 0.0
H675 H 0.61344 0.97442 0.08154 0.0
H676 H 0.59078 0.85432 0.12962 0.0
H677 H 0.58987 0.82861 0.16393 0.0
H678 H 0.53838 0.80656 0.21805 0.0
H679 H 0.53954 0.83217 0.18732 0.0
Nd680 Nd 0.1249 0.67472 0.11149 0.0
Nd681 Nd 0.16308 0.70655 0.11286 0.0
C682 C 0.09812 0.64615 0.09845 0.0
C683 C 0.08202 0.6393 0.05579 0.0
C684 C 0.07792 0.62774 0.99041 0.0
C685 C 0.06271 0.6208 0.95031 0.0
C686 C 0.05116 0.62524 0.97453 0.0
C687 C 0.0553 0.63692 0.03978 0.0
C688 C 0.07056 0.64388 0.07992 0.0
C689 C 0.12606 0.70455 0.10996 0.0
C690 C 0.14409 0.6902 0.92934 0.0
C691 C 0.18796 0.73682 0.1118 0.0
C692 C 0.20488 0.74923 0.135 0.0
C693 C 0.20783 0.76418 0.16896 0.0
C694 C 0.22378 0.77693 0.18263 0.0
C695 C 0.23722 0.77505 0.16255 0.0
C696 C 0.23418 0.75995 0.12921 0.0
C697 C 0.21822 0.74719 0.11574 0.0
C698 C 0.16205 0.67669 0.12007 0.0
C699 C 0.14466 0.68865 0.29407 0.0
O700 O 0.1108 0.6507 0.04821 0.0
O701 O 0.10106 0.65603 0.16346 0.0
O702 O 0.11257 0.69069 0.11013 0.0
O703 O 0.13759 0.70168 0.10562 0.0
O704 O 0.13241 0.67782 0.97204 0.0
O705 O 0.15587 0.70338 0.96777 0.0
O706 O 0.17665 0.73129 0.17117 0.0
O707 O 0.18572 0.72594 0.05349 0.0
O708 O 0.17555 0.69068 0.11752 0.0
O709 O 0.15038 0.67944 0.11996 0.0
O710 O 0.15626 0.70222 0.25744 0.0
O711 O 0.13334 0.67613 0.24984 0.0
H712 H 0.08648 0.62395 0.97064 0.0
H713 H 0.05992 0.61172 0.90122 0.0
H714 H 0.04683 0.64083 0.05927 0.0
H715 H 0.07333 0.65282 0.12977 0.0
H716 H 0.19775 0.76612 0.18344 0.0
H717 H 0.22555 0.78823 0.20935 0.0
H718 H 0.24415 0.75805 0.11155 0.0
H719 H 0.21636 0.73588 0.08856 0.0
H720 H 0.09294 0.36694 0.47084 0.0
H721 H 0.12221 0.35643 0.29687 0.0
H722 H 0.10867 0.32806 0.34924 0.0
H723 H 0.0923 0.34049 0.64797 0.0
H724 H 0.07162 0.33448 0.67642 0.0
H725 H 0.08476 0.35436 0.63116 0.0
H726 H 0.06369 0.34852 0.5106 0.0
H727 H 0.05047 0.32873 0.55565 0.0
H728 H 0.05679 0.33058 0.44527 0.0
H729 H 0.09026 0.30006 0.41354 0.0
H730 H 0.06744 0.27496 0.47702 0.0
H731 H 0.05093 0.30426 0.60907 0.0
C732 C 0.0968 0.35881 0.44516 0.0
C733 C 0.10864 0.36395 0.37967 0.0
C734 C 0.11302 0.35274 0.34641 0.0
C735 C 0.10552 0.33663 0.37638 0.0
C736 C 0.09378 0.33192 0.44041 0.0
C737 C 0.08947 0.34271 0.47447 0.0
C738 C 0.07574 0.33439 0.53844 0.0
C739 C 0.08145 0.34135 0.62886 0.0
C740 C 0.06079 0.33562 0.51077 0.0
C741 C 0.07255 0.31711 0.53255 0.0
C742 C 0.08326 0.31591 0.47712 0.0
C743 C 0.08198 0.3009 0.4582 0.0
C744 C 0.06909 0.28673 0.49497 0.0
C745 C 0.05763 0.28778 0.54867 0.0
C746 C 0.05972 0.30319 0.56928 0.0
H747 H 0.75938 0.77189 0.45257 0.0
H748 H 0.77051 0.81252 0.6202 0.0
H749 H 0.74318 0.80916 0.58942 0.0
H750 H 0.73682 0.78143 0.29298 0.0
H751 H 0.72295 0.76018 0.27185 0.0
H752 H 0.74358 0.76681 0.30429 0.0
H753 H 0.73268 0.74619 0.43036 0.0
H754 H 0.71204 0.73968 0.3993 0.0
H755 H 0.71881 0.74701 0.50652 0.0
H756 H 0.71328 0.79897 0.54959 0.0
H757 H 0.68509 0.78525 0.49447 0.0
H758 H 0.69507 0.75249 0.34611 0.0
C759 C 0.75616 0.78025 0.48187 0.0
C760 C 0.76689 0.79242 0.53882 0.0
C761 C 0.7624 0.80321 0.5758 0.0
C762 C 0.74692 0.8013 0.55901 0.0
C763 C 0.73639 0.78878 0.50396 0.0
C764 C 0.74104 0.77869 0.46467 0.0
C765 C 0.72772 0.76616 0.40823 0.0
C766 C 0.73309 0.76881 0.31374 0.0
C767 C 0.72251 0.74874 0.43794 0.0
C768 C 0.71448 0.77029 0.424 0.0
C769 C 0.71966 0.78337 0.47917 0.0
C770 C 0.70924 0.78892 0.50521 0.0
C771 C 0.69324 0.78105 0.47322 0.0
C772 C 0.68778 0.76779 0.41531 0.0
C773 C 0.69867 0.76242 0.39086 0.0
H774 H 0.28665 0.007 0.58189 0.0
H775 H 0.23593 0.98346 0.50534 0.0
H776 H 0.23794 0.95987 0.45095 0.0
H777 H 0.30108 0.99643 0.40338 0.0
H778 H 0.31587 0.99339 0.46074 0.0
H779 H 0.3098 0.00729 0.50174 0.0
H780 H 0.30141 0.99162 0.64613 0.0
H781 H 0.30767 0.97777 0.60606 0.0
H782 H 0.28728 0.97 0.64635 0.0
H783 H 0.24672 0.94025 0.39282 0.0
H784 H 0.26069 0.92583 0.34133 0.0
H785 H 0.30562 0.96256 0.45975 0.0
C786 C 0.27584 0.99674 0.55531 0.0
C787 C 0.2611 0.99694 0.5482 0.0
C788 C 0.24727 0.98339 0.51231 0.0
C789 C 0.24835 0.97003 0.48097 0.0
C790 C 0.2633 0.97046 0.48689 0.0
C791 C 0.27672 0.98343 0.52414 0.0
C792 C 0.2916 0.98148 0.51956 0.0
C793 C 0.30539 0.99547 0.46829 0.0
C794 C 0.29732 0.98013 0.6099 0.0
C795 C 0.28463 0.96551 0.47199 0.0
C796 C 0.26828 0.95927 0.4541 0.0
C797 C 0.25944 0.94492 0.40776 0.0
C798 C 0.2675 0.93676 0.37918 0.0
C799 C 0.28428 0.94292 0.39695 0.0
C800 C 0.29284 0.95749 0.44446 0.0
H801 H 0.36294 0.08781 0.65398 0.0
H802 H 0.34934 0.11079 0.85253 0.0
H803 H 0.37738 0.12394 0.91009 0.0
H804 H 0.38821 0.07884 0.78631 0.0
H805 H 0.40275 0.08266 0.70231 0.0
H806 H 0.38181 0.07571 0.67577 0.0
H807 H 0.39099 0.10075 0.57604 0.0
H808 H 0.41197 0.10786 0.60291 0.0
H809 H 0.40349 0.12095 0.61878 0.0
H810 H 0.40749 0.13433 0.94729 0.0
H811 H 0.43581 0.13937 0.96321 0.0
H812 H 0.42846 0.10901 0.74116 0.0
C813 C 0.36575 0.09547 0.71006 0.0
C814 C 0.35389 0.09827 0.74847 0.0
C815 C 0.35826 0.10863 0.82108 0.0
C816 C 0.37415 0.11612 0.85449 0.0
C817 C 0.38556 0.11314 0.81465 0.0
C818 C 0.38148 0.10298 0.74421 0.0
C819 C 0.39573 0.10138 0.7139 0.0
C820 C 0.39189 0.08359 0.71999 0.0
C821 C 0.40084 0.10814 0.62249 0.0
C822 C 0.40843 0.11205 0.77867 0.0
C823 C 0.40251 0.1189 0.83615 0.0
C824 C 0.41223 0.12903 0.90244 0.0
C825 C 0.42828 0.13189 0.91091 0.0
C826 C 0.43422 0.1245 0.85369 0.0
C827 C 0.42422 0.11477 0.78617 0.0
H828 H 0.95182 0.34031 0.9226 0.0
H829 H 0.90217 0.31819 0.82939 0.0
H830 H 0.90459 0.29509 0.77101 0.0
H831 H 0.96823 0.33184 0.74644 0.0
H832 H 0.98221 0.32786 0.80572 0.0
H833 H 0.97577 0.34129 0.84927 0.0
H834 H 0.9655 0.3237 0.9872 0.0
H835 H 0.97216 0.31033 0.94464 0.0
H836 H 0.95133 0.30217 0.97849 0.0
H837 H 0.91393 0.27617 0.7094 0.0
H838 H 0.92843 0.26235 0.65676 0.0
H839 H 0.97186 0.29716 0.79401 0.0
C840 C 0.94128 0.3304 0.89178 0.0
C841 C 0.92676 0.3309 0.88093 0.0
C842 C 0.91331 0.31785 0.83944 0.0
C843 C 0.91464 0.30478 0.80573 0.0
C844 C 0.92942 0.30498 0.81511 0.0
C845 C 0.94241 0.31738 0.85829 0.0
C846 C 0.95727 0.31537 0.8562 0.0
C847 C 0.97171 0.32996 0.81174 0.0
C848 C 0.96183 0.31273 0.94703 0.0
C849 C 0.95083 0.30009 0.80298 0.0
C850 C 0.93473 0.29419 0.78028 0.0
C851 C 0.92644 0.28055 0.72814 0.0
C852 C 0.93479 0.27273 0.69887 0.0
C853 C 0.95129 0.27854 0.72172 0.0
C854 C 0.95931 0.29241 0.77482 0.0
H855 H 0.7601 0.7 0.80521 0.0
H856 H 0.78934 0.68959 0.63039 0.0
H857 H 0.77499 0.66091 0.67818 0.0
H858 H 0.75853 0.67266 0.97831 0.0
H859 H 0.7379 0.66692 1.00634 0.0
H860 H 0.75137 0.68689 0.96304 0.0
H861 H 0.73058 0.68184 0.84202 0.0
H862 H 0.71704 0.66197 0.88524 0.0
H863 H 0.72349 0.66409 0.77498 0.0
H864 H 0.75609 0.63271 0.74009 0.0
H865 H 0.73299 0.60763 0.80226 0.0
H866 H 0.71703 0.63713 0.93681 0.0
C867 C 0.76376 0.69181 0.77813 0.0
C868 C 0.77587 0.6971 0.71397 0.0
C869 C 0.77996 0.68581 0.67886 0.0
C870 C 0.77201 0.66952 0.70631 0.0
C871 C 0.76011 0.66471 0.76962 0.0
C872 C 0.75603 0.67557 0.80502 0.0
C873 C 0.74219 0.66724 0.8683 0.0
C874 C 0.74784 0.67382 0.95939 0.0
C875 C 0.72746 0.66888 0.84093 0.0
C876 C 0.7387 0.6499 0.86067 0.0
C877 C 0.74934 0.64865 0.80487 0.0
C878 C 0.74784 0.63358 0.78489 0.0
C879 C 0.73481 0.61943 0.82093 0.0
C880 C 0.72345 0.62057 0.87499 0.0
C881 C 0.72574 0.636 0.89664 0.0
H882 H 0.00883 0.74794 0.42495 0.0
H883 H 0.98717 0.77583 0.51879 0.0
H884 H 0.96395 0.75048 0.57768 0.0
H885 H 0.97041 0.71042 0.37055 0.0
H886 H 0.97841 0.69762 0.40465 0.0
H887 H 0.9919 0.71757 0.36134 0.0
H888 H 0.00956 0.72484 0.49889 0.0
H889 H 0.996 0.70505 0.54315 0.0
H890 H 1.00019 0.72309 0.60188 0.0
H891 H 0.94485 0.72237 0.63976 0.0
H892 H 0.93086 0.69412 0.69371 0.0
H893 H 0.96527 0.68494 0.55603 0.0
C894 C 0.99898 0.74867 0.45588 0.0
C895 C 0.99963 0.76376 0.46652 0.0
C896 C 0.98669 0.76431 0.50855 0.0
C897 C 0.97355 0.74999 0.54263 0.0
C898 C 0.97357 0.73534 0.53324 0.0
C899 C 0.98588 0.7346 0.48985 0.0
C900 C 0.98369 0.71766 0.49245 0.0
C901 C 0.98094 0.71039 0.40186 0.0
C902 C 0.99822 0.71768 0.53674 0.0
C903 C 0.96842 0.70898 0.5461 0.0
C904 C 0.96268 0.71931 0.56861 0.0
C905 C 0.9491 0.71413 0.62119 0.0
C906 C 0.94118 0.69801 0.6512 0.0
C907 C 0.94684 0.68719 0.62864 0.0
C908 C 0.96063 0.69285 0.57499 0.0
H909 H 0.29064 0.26853 0.61642 0.0
H910 H 0.28799 0.24628 0.37021 0.0
H911 H 0.31631 0.25155 0.39088 0.0
H912 H 0.32956 0.30064 0.59407 0.0
H913 H 0.33512 0.30133 0.70513 0.0
H914 H 0.31413 0.29349 0.67628 0.0
H915 H 0.306 0.26632 0.75466 0.0
H916 H 0.32695 0.27419 0.78529 0.0
H917 H 0.31623 0.25519 0.728 0.0
H918 H 0.34638 0.26264 0.43428 0.0
H919 H 0.37405 0.27663 0.4975 0.0
H920 H 0.35586 0.29155 0.71382 0.0
C921 C 0.29584 0.26433 0.56776 0.0
C922 C 0.28721 0.25693 0.49202 0.0
C923 C 0.29438 0.25174 0.42932 0.0
C924 C 0.31047 0.25482 0.44039 0.0
C925 C 0.31895 0.26293 0.51464 0.0
C926 C 0.31169 0.26737 0.57763 0.0
C927 C 0.32341 0.27688 0.64879 0.0
C928 C 0.32568 0.2941 0.65643 0.0
C929 C 0.31782 0.26759 0.73424 0.0
C930 C 0.33864 0.27746 0.61582 0.0
C931 C 0.33592 0.26931 0.5387 0.0
C932 C 0.34853 0.26884 0.49514 0.0
C933 C 0.3642 0.27681 0.53164 0.0
C934 C 0.36717 0.28523 0.61067 0.0
C935 C 0.35411 0.28542 0.65293 0.0
H936 H 0.76554 0.09193 0.72098 0.0
H937 H 0.77264 0.11947 0.48659 0.0
H938 H 0.78545 0.10513 0.41919 0.0
H939 H 0.8029 0.08975 0.70771 0.0
H940 H 0.79331 0.0692 0.74826 0.0
H941 H 0.78603 0.08265 0.78125 0.0
H942 H 0.75691 0.06176 0.72923 0.0
H943 H 0.76407 0.04819 0.69748 0.0
H944 H 0.75401 0.05437 0.62053 0.0
H945 H 0.79621 0.08667 0.37434 0.0
H946 H 0.80153 0.0638 0.35274 0.0
H947 H 0.78651 0.04792 0.61384 0.0
C948 C 0.76976 0.09496 0.65544 0.0
C949 C 0.76819 0.10697 0.60949 0.0
C950 C 0.77399 0.11058 0.5239 0.0
C951 C 0.78127 0.10248 0.48492 0.0
C952 C 0.78271 0.09079 0.53227 0.0
C953 C 0.777 0.08696 0.61547 0.0
C954 C 0.77908 0.07322 0.65066 0.0
C955 C 0.79104 0.07906 0.72648 0.0
C956 C 0.76253 0.05852 0.6759 0.0
C957 C 0.78634 0.06957 0.57337 0.0
C958 C 0.7887 0.08005 0.5062 0.0
C959 C 0.79465 0.07855 0.42688 0.0
C960 C 0.79778 0.06566 0.41529 0.0
C961 C 0.7948 0.05451 0.48245 0.0
C962 C 0.7893 0.05665 0.56258 0.0
H963 H 0.62218 0.92548 0.26788 0.0
H964 H 0.62789 0.92357 0.99376 0.0
H965 H 0.65646 0.93019 0.015 0.0
H966 H 0.65877 0.95916 0.30505 0.0
H967 H 0.66313 0.95298 0.40632 0.0
H968 H 0.64236 0.94483 0.37243 0.0
H969 H 0.63717 0.9154 0.38737 0.0
H970 H 0.65786 0.92342 0.42348 0.0
H971 H 0.65042 0.90976 0.33325 0.0
H972 H 0.68523 0.94129 0.06423 0.0
H973 H 0.71175 0.95397 0.13812 0.0
H974 H 0.68734 0.94843 0.38178 0.0
C975 C 0.62925 0.92561 0.21301 0.0
C976 C 0.62283 0.92344 0.12943 0.0
C977 C 0.63254 0.92459 0.05828 0.0
C978 C 0.64878 0.92849 0.06985 0.0
C979 C 0.65501 0.93118 0.15302 0.0
C980 C 0.64547 0.92951 0.22363 0.0
C981 C 0.65549 0.93454 0.30526 0.0
C982 C 0.65489 0.94872 0.34981 0.0
C983 C 0.6499 0.91991 0.36593 0.0
C984 C 0.67226 0.93992 0.26916 0.0
C985 C 0.67169 0.93774 0.1814 0.0
C986 C 0.68577 0.94269 0.13319 0.0
C987 C 0.70079 0.94986 0.17586 0.0
C988 C 0.70168 0.95207 0.26601 0.0
C989 C 0.68714 0.94698 0.31289 0.0
H990 H 0.08365 0.75598 0.21531 0.0
H991 H 0.12566 0.78736 0.37193 0.0
H992 H 0.1396 0.77284 0.32116 0.0
H993 H 0.08415 0.71988 0.24965 0.0
H994 H 0.07835 0.71232 0.14191 0.0
H995 H 0.07226 0.726 0.18568 0.0
H996 H 0.08591 0.74568 0.05748 0.0
H997 H 0.09215 0.73207 0.01347 0.0
H998 H 0.1071 0.75304 0.03414 0.0
H999 H 0.14833 0.75368 0.25942 0.0
H1000 H 0.15012 0.73053 0.19816 0.0
H1001 H 0.10287 0.71246 0.07995 0.0
C1002 C 0.0959 0.76004 0.23772 0.0
C1003 C 0.10351 0.77281 0.2979 0.0
C1004 C 0.11945 0.77746 0.32681 0.0
C1005 C 0.12756 0.7694 0.29764 0.0
C1006 C 0.11966 0.75681 0.23876 0.0
C1007 C 0.1042 0.75218 0.20904 0.0
C1008 C 0.09804 0.73775 0.14926 0.0
C1009 C 0.08228 0.72313 0.18374 0.0
C1010 C 0.09566 0.74242 0.05819 0.0
C1011 C 0.1122 0.73462 0.15242 0.0
C1012 C 0.12471 0.7459 0.20303 0.0
C1013 C 0.13873 0.74495 0.21838 0.0
C1014 C 0.13977 0.73189 0.18257 0.0
C1015 C 0.12683 0.71999 0.13285 0.0
C1016 C 0.11306 0.72159 0.11657 0.0
H1017 H 0.34283 0.42842 0.28424 0.0
H1018 H 0.32241 0.43464 0.04821 0.0
H1019 H 0.29933 0.40616 0.06138 0.0
H1020 H 0.33487 0.38912 0.24633 0.0
H1021 H 0.33025 0.38257 0.35636 0.0
H1022 H 0.34383 0.4037 0.332 0.0
H1023 H 0.3257 0.41182 0.41942 0.0
H1024 H 0.31216 0.3907 0.44515 0.0
H1025 H 0.3043 0.40249 0.39481 0.0
H1026 H 0.27989 0.37582 0.09683 0.0
H1027 H 0.26541 0.34762 0.15319 0.0
H1028 H 0.29938 0.36253 0.36583 0.0
C1029 C 0.33337 0.42392 0.23585 0.0
C1030 C 0.33434 0.43363 0.16512 0.0
C1031 C 0.32176 0.42736 0.1032 0.0
C1032 C 0.30871 0.41121 0.11009 0.0
C1033 C 0.30848 0.40174 0.1796 0.0
C1034 C 0.32044 0.40803 0.24182 0.0
C1035 C 0.31803 0.39547 0.3086 0.0
C1036 C 0.33261 0.39255 0.31088 0.0
C1037 C 0.31485 0.40042 0.39723 0.0
C1038 C 0.30298 0.38088 0.27372 0.0
C1039 C 0.29753 0.38465 0.19961 0.0
C1040 C 0.284 0.37284 0.15526 0.0
C1041 C 0.27583 0.35686 0.18786 0.0
C1042 C 0.28128 0.35282 0.26383 0.0
C1043 C 0.29502 0.3651 0.30699 0.0
H1044 H 0.03247 0.43362 0.97801 0.0
H1045 H 0.01043 0.43507 0.21938 0.0
H1046 H 0.03749 0.44833 0.28799 0.0
H1047 H 0.06008 0.42296 0.0668 0.0
H1048 H 0.07626 0.43499 0.9923 0.0
H1049 H 0.05539 0.42715 0.96104 0.0
H1050 H 0.0619 0.45646 0.92327 0.0
H1051 H 0.08277 0.46441 0.95601 0.0
H1052 H 0.07068 0.47217 1.00364 0.0
H1053 H 0.06667 0.45963 0.33335 0.0
H1054 H 0.0951 0.4656 0.35362 0.0
H1055 H 0.09793 0.4564 0.08441 0.0
C1056 C 0.0333 0.43672 0.04529 0.0
C1057 C 0.01928 0.43341 0.09293 0.0
C1058 C 0.021 0.43776 0.18087 0.0
C1059 C 0.03633 0.4453 0.22055 0.0
C1060 C 0.04989 0.44848 0.17155 0.0
C1061 C 0.0485 0.44421 0.08598 0.0
C1062 C 0.06478 0.44792 0.04911 0.0
C1063 C 0.06408 0.43233 0.01539 0.0
C1064 C 0.07036 0.46102 0.97883 0.0
C1065 C 0.07544 0.45444 0.128 0.0
C1066 C 0.06671 0.45498 0.19766 0.0
C1067 C 0.07372 0.45957 0.27892 0.0
C1068 C 0.08989 0.46311 0.28983 0.0
C1069 C 0.09872 0.46197 0.21994 0.0
C1070 C 0.09154 0.45795 0.13791 0.0
H1071 H 0.63227 0.62501 0.14525 0.0
H1072 H 0.60163 0.60658 0.91946 0.0
H1073 H 0.58671 0.62044 0.96424 0.0
H1074 H 0.59986 0.62264 0.29072 0.0
H1075 H 0.61385 0.64116 0.3455 0.0
H1076 H 0.62097 0.62826 0.30147 0.0
H1077 H 0.64293 0.65257 0.21345 0.0
H1078 H 0.63601 0.66553 0.2579 0.0
H1079 H 0.6368 0.66367 0.14323 0.0
H1080 H 0.57662 0.63799 0.02601 0.0
H1081 H 0.57395 0.66008 0.09365 0.0
H1082 H 0.61092 0.66728 0.27913 0.0
C1083 C 0.62219 0.62361 0.10628 0.0
C1084 C 0.61812 0.61471 0.0288 0.0
C1085 C 0.60508 0.61347 0.97862 0.0
C1086 C 0.5964 0.62114 1.004 0.0
C1087 C 0.60078 0.62991 0.08027 0.0
C1088 C 0.6134 0.63124 0.13064 0.0
C1089 C 0.6165 0.64251 0.20591 0.0
C1090 C 0.61256 0.63308 0.29095 0.0
C1091 C 0.6341 0.65692 0.20497 0.0
C1092 C 0.60423 0.64794 0.18744 0.0
C1093 C 0.59495 0.64015 0.11607 0.0
C1094 C 0.58352 0.64389 0.08318 0.0
C1095 C 0.58193 0.65631 0.12253 0.0
C1096 C 0.59175 0.66484 0.19346 0.0
C1097 C 0.6028 0.66041 0.22716 0.0
H1098 H 0.42259 0.02501 0.98463 0.0
H1099 H 0.45892 0.03839 0.18455 0.0
H1100 H 0.44368 0.0104 0.24312 0.0
H1101 H 0.38808 1.00013 0.1158 0.0
H1102 H 0.37737 0.98556 0.03205 0.0
H1103 H 0.39157 0.00642 1.00503 0.0
H1104 H 0.40738 0.9969 0.90742 0.0
H1105 H 0.39329 0.976 0.93471 0.0
H1106 H 0.41481 0.98427 0.95178 0.0
H1107 H 0.42353 0.98032 0.28125 0.0
H1108 H 0.40004 0.95211 0.29706 0.0
H1109 H 0.37762 0.95968 0.07267 0.0
C1110 C 0.42731 0.02217 0.04126 0.0
C1111 C 0.44198 0.03397 0.07989 0.0
C1112 C 0.44781 0.02953 0.15308 0.0
C1113 C 0.4392 0.01367 0.18703 0.0
C1114 C 0.42479 1.00233 0.14706 0.0
C1115 C 0.41891 0.00647 0.07586 0.0
C1116 C 0.40301 0.9923 0.04529 0.0
C1117 C 0.3892 0.99635 0.04987 0.0
C1118 C 0.40474 0.98706 0.95442 0.0
C1119 C 0.40073 0.97958 0.11083 0.0
C1120 C 0.4134 0.98541 0.16891 0.0
C1121 C 0.41357 0.97565 0.23588 0.0
C1122 C 0.40026 0.95966 0.24429 0.0
C1123 C 0.38703 0.9538 0.18632 0.0
C1124 C 0.38753 0.96385 0.11826 0.0
H1125 H 0.67598 0.08112 0.7657 0.0
H1126 H 0.65367 0.10854 0.85741 0.0
H1127 H 0.63043 0.08304 0.91471 0.0
H1128 H 0.63786 0.04354 0.70826 0.0
H1129 H 0.64586 0.03077 0.74298 0.0
H1130 H 0.65941 0.05082 0.70092 0.0
H1131 H 0.67664 0.05794 0.83998 0.0
H1132 H 0.66302 0.03805 0.88296 0.0
H1133 H 0.66692 0.05595 0.94215 0.0
H1134 H 0.61129 0.05484 0.97514 0.0
H1135 H 0.59721 0.0265 0.02758 0.0
H1136 H 0.63222 0.01775 0.89306 0.0
C1137 C 0.66599 0.08171 0.79587 0.0
C1138 C 0.66645 0.09672 0.80624 0.0
C1139 C 0.65334 0.09709 0.8473 0.0
C1140 C 0.64018 0.08269 0.88051 0.0
C1141 C 0.64036 0.06811 0.87129 0.0
C1142 C 0.65286 0.06754 0.82895 0.0
C1143 C 0.65076 0.05063 0.83131 0.0
C1144 C 0.64832 0.04352 0.74046 0.0
C1145 C 0.66519 0.05066 0.87683 0.0
C1146 C 0.63531 0.04178 0.88364 0.0
C1147 C 0.62943 0.05201 0.90567 0.0
C1148 C 0.61565 0.04668 0.95693 0.0
C1149 C 0.60768 0.03049 0.98606 0.0
C1150 C 0.61347 0.01975 0.96392 0.0
C1151 C 0.62747 0.02558 0.91166 0.0
H1152 H 0.02119 0.61606 0.04712 0.0
H1153 H 0.04427 0.61764 0.8041 0.0
H1154 H 0.01751 0.6051 0.73274 0.0
H1155 H 0.98322 0.57776 1.01007 0.0
H1156 H 0.97082 0.58479 0.06118 0.0
H1157 H 0.99157 0.59251 0.09537 0.0
H1158 H 0.99796 0.62211 0.06782 0.0
H1159 H 0.9772 0.61449 0.03506 0.0
H1160 H 0.99365 0.62748 0.96406 0.0
H1161 H 0.98853 0.59418 0.68529 0.0
H1162 H 0.96007 0.58804 0.66455 0.0
H1163 H 0.95592 0.59395 0.93666 0.0
C1164 C 0.02066 0.61378 0.9789 0.0
C1165 C 0.03491 0.61772 0.93161 0.0
C1166 C 0.03355 0.61443 0.84237 0.0
C1167 C 0.01838 0.60732 0.80109 0.0
C1168 C 1.00459 0.6035 0.8497 0.0
C1169 C 1.0056 0.60672 0.93656 0.0
C1170 C 0.98911 0.60244 0.97302 0.0
C1171 C 0.98335 0.58855 0.03882 0.0
C1172 C 0.98951 0.61753 0.01224 0.0
C1173 C 0.97877 0.59679 0.89258 0.0
C1174 C 0.98786 0.5972 0.82235 0.0
C1175 C 0.9812 0.5935 0.74004 0.0
C1176 C 0.96501 0.58985 0.72882 0.0
C1177 C 0.95576 0.58995 0.79944 0.0
C1178 C 0.96261 0.59314 0.88237 0.0
H1179 H 0.43252 0.42698 0.04557 0.0
H1180 H 0.43721 0.45312 0.80877 0.0
H1181 H 0.45018 0.43904 0.74002 0.0
H1182 H 0.47035 0.4259 0.02669 0.0
H1183 H 0.46152 0.40558 0.06975 0.0
H1184 H 0.45389 0.41872 0.103 0.0
H1185 H 0.42471 0.39703 0.05647 0.0
H1186 H 0.4322 0.38374 0.02451 0.0
H1187 H 0.4213 0.38914 0.94872 0.0
H1188 H 0.46115 0.42076 0.69399 0.0
H1189 H 0.46695 0.39821 0.67245 0.0
H1190 H 0.4545 0.38376 0.93742 0.0
C1191 C 0.43623 0.42976 0.97919 0.0
C1192 C 0.43391 0.44129 0.93292 0.0
C1193 C 0.43911 0.44459 0.84628 0.0
C1194 C 0.44648 0.43662 0.80652 0.0
C1195 C 0.44863 0.42539 0.85414 0.0
C1196 C 0.44356 0.42189 0.93846 0.0
C1197 C 0.44635 0.40861 0.97402 0.0
C1198 C 0.45877 0.4151 0.04775 0.0
C1199 C 0.43018 0.39375 1.00255 0.0
C1200 C 0.45335 0.40485 0.89582 0.0
C1201 C 0.45487 0.41486 0.82766 0.0
C1202 C 0.46028 0.41305 0.74731 0.0
C1203 C 0.46371 0.40035 0.73572 0.0
C1204 C 0.46163 0.38969 0.804 0.0
C1205 C 0.45669 0.39216 0.88518 0.0
H1206 H 0.11847 0.21047 0.4828 0.0
H1207 H 0.13905 0.26247 0.52389 0.0
H1208 H 0.16659 0.26619 0.51519 0.0
H1209 H 0.14798 0.20684 0.61469 0.0
H1210 H 0.14863 0.19182 0.54671 0.0
H1211 H 0.13034 0.19315 0.5526 0.0
H1212 H 0.13085 0.19664 0.38771 0.0
H1213 H 0.14918 0.1954 0.38122 0.0
H1214 H 0.14878 0.21278 0.3371 0.0
H1215 H 0.19198 0.26452 0.50362 0.0
H1216 H 0.2136 0.25739 0.49278 0.0
H1217 H 0.17711 0.20639 0.46548 0.0
C1218 C 0.1287 0.22266 0.49065 0.0
C1219 C 0.12636 0.2362 0.50287 0.0
C1220 C 0.1403 0.2519 0.51195 0.0
C1221 C 0.15608 0.25415 0.50803 0.0
C1222 C 0.15787 0.24058 0.49602 0.0
C1223 C 0.1446 0.22512 0.488 0.0
C1224 C 0.15 0.21258 0.47743 0.0
C1225 C 0.14387 0.20038 0.55232 0.0
C1226 C 0.14437 0.20383 0.39069 0.0
C1227 C 0.16839 0.22344 0.48031 0.0
C1228 C 0.17262 0.23956 0.49093 0.0
C1229 C 0.18881 0.25194 0.4953 0.0
C1230 C 0.20102 0.24777 0.48873 0.0
C1231 C 0.19707 0.23136 0.47786 0.0
C1232 C 0.1805 0.21903 0.4739 0.0
H1233 H 0.83622 0.9916 0.57299 0.0
H1234 H 0.80288 0.98174 0.36119 0.0
H1235 H 0.79789 0.95366 0.35243 0.0
H1236 H 0.85397 0.96838 0.49353 0.0
H1237 H 0.85541 0.96078 0.59725 0.0
H1238 H 0.8562 0.98012 0.58854 0.0
H1239 H 0.83201 0.97018 0.69453 0.0
H1240 H 0.83121 0.95085 0.70385 0.0
H1241 H 0.81329 0.95158 0.67224 0.0
H1242 H 0.79728 0.92712 0.36196 0.0
H1243 H 0.79989 0.90312 0.39385 0.0
H1244 H 0.83284 0.92933 0.60362 0.0
C1245 C 0.82783 0.98349 0.52507 0.0
C1246 C 0.81985 0.98883 0.46805 0.0
C1247 C 0.80896 0.97787 0.40621 0.0
C1248 C 0.80613 0.96191 0.40036 0.0
C1249 C 0.81425 0.95703 0.45692 0.0
C1250 C 0.82479 0.96741 0.51853 0.0
C1251 C 0.83183 0.95894 0.57163 0.0
C1252 C 0.85046 0.96757 0.56214 0.0
C1253 C 0.82678 0.95782 0.66617 0.0
C1254 C 0.82368 0.94225 0.52967 0.0
C1255 C 0.81364 0.94148 0.46352 0.0
C1256 C 0.80497 0.9275 0.41423 0.0
C1257 C 0.80646 0.91385 0.43338 0.0
C1258 C 0.81642 0.91411 0.50195 0.0
C1259 C 0.82521 0.92864 0.5503 0.0
H1260 H 0.06097 0.86893 0.56328 0.0
H1261 H 0.0722 0.84462 0.36158 0.0
H1262 H 0.10039 0.86747 0.35606 0.0
H1263 H 0.08516 0.90959 0.47894 0.0
H1264 H 0.092 0.91908 0.58228 0.0
H1265 H 0.07264 0.9006 0.57248 0.0
H1266 H 0.08154 0.88669 0.68655 0.0
H1267 H 0.10089 0.90516 0.69696 0.0
H1268 H 0.10019 0.88629 0.6712 0.0
H1269 H 0.12696 0.89313 0.36754 0.0
H1270 H 0.15091 0.91971 0.39972 0.0
H1271 H 0.12339 0.92774 0.59748 0.0
C1272 C 0.06942 0.86843 0.51836 0.0
C1273 C 0.0644 0.8549 0.46332 0.0
C1274 C 0.07579 0.85471 0.40518 0.0
C1275 C 0.09183 0.8677 0.40113 0.0
C1276 C 0.09639 0.88089 0.45559 0.0
C1277 C 0.08559 0.88138 0.51344 0.0
C1278 C 0.09379 0.89712 0.5645 0.0
C1279 C 0.0854 0.90719 0.54858 0.0
C1280 C 0.09412 0.8936 0.66051 0.0
C1281 C 0.11081 0.90536 0.52598 0.0
C1282 C 0.11196 0.89576 0.46309 0.0
C1283 C 0.12629 0.90071 0.41729 0.0
C1284 C 0.1399 0.91584 0.4366 0.0
C1285 C 0.13926 0.9259 0.50191 0.0
C1286 C 0.12438 0.92051 0.54672 0.0
H1287 H 0.22368 0.12303 0.43347 0.0
H1288 H 0.25353 0.1471 0.65673 0.0
H1289 H 0.25541 0.12275 0.68823 0.0
H1290 H 0.20072 0.08315 0.53547 0.0
H1291 H 0.19955 0.07204 0.43955 0.0
H1292 H 0.20076 0.09159 0.43174 0.0
H1293 H 0.22616 0.10202 0.33422 0.0
H1294 H 0.22511 0.08254 0.34209 0.0
H1295 H 0.24356 0.10085 0.37157 0.0
H1296 H 0.25502 0.09642 0.69479 0.0
H1297 H 0.2503 0.06849 0.68302 0.0
H1298 H 0.21922 0.06 0.46205 0.0
C1299 C 0.23045 0.12316 0.4896 0.0
C1300 C 0.23872 0.1373 0.54149 0.0
C1301 C 0.24749 0.13677 0.61408 0.0
C1302 C 0.24855 0.12289 0.63313 0.0
C1303 C 0.24055 0.10937 0.58008 0.0
C1304 C 0.23147 0.10923 0.51048 0.0
C1305 C 0.22378 0.09281 0.46545 0.0
C1306 C 0.20509 0.0844 0.46824 0.0
C1307 C 0.23003 0.09467 0.37283 0.0
C1308 C 0.23001 0.08384 0.5207 0.0
C1309 C 0.23979 0.09375 0.58591 0.0
C1310 C 0.2473 0.0885 0.64437 0.0
C1311 C 0.24459 0.07261 0.63688 0.0
C1312 C 0.23436 0.06203 0.57185 0.0
C1313 C 0.22702 0.06778 0.51274 0.0
H1314 H 0.93029 0.11902 0.57458 0.0
H1315 H 0.90148 0.13866 0.46588 0.0
H1316 H 0.92517 0.16633 0.47474 0.0
H1317 H 0.95337 0.1521 0.72268 0.0
H1318 H 0.97212 0.15186 0.70796 0.0
H1319 H 0.95284 0.13341 0.69439 0.0
H1320 H 0.96132 0.13001 0.54128 0.0
H1321 H 0.98063 0.14842 0.55448 0.0
H1322 H 0.9677 0.14642 0.4651 0.0
H1323 H 0.95202 0.19164 0.48801 0.0
H1324 H 0.98046 0.21336 0.5094 0.0
H1325 H 0.99219 0.17814 0.61559 0.0
C1326 C 0.92897 0.12914 0.55268 0.0
C1327 C 0.91389 0.12661 0.5205 0.0
C1328 C 0.91273 0.14024 0.49258 0.0
C1329 C 0.92618 0.15603 0.49672 0.0
C1330 C 0.94078 0.1581 0.52904 0.0
C1331 C 0.94231 0.14508 0.55679 0.0
C1332 C 0.9595 0.15081 0.58852 0.0
C1333 C 0.95945 0.14681 0.68407 0.0
C1334 C 0.96777 0.14348 0.53409 0.0
C1335 C 0.96735 0.16904 0.57407 0.0
C1336 C 0.9563 0.17291 0.53915 0.0
C1337 C 0.96073 0.1888 0.51644 0.0
C1338 C 0.9769 0.20108 0.52935 0.0
C1339 C 0.98843 0.19752 0.5661 0.0
C1340 C 0.98354 0.18127 0.58911 0.0
H1341 H 0.93431 0.83927 0.45957 0.0
H1342 H 0.91993 0.79272 0.58126 0.0
H1343 H 0.89289 0.7892 0.6114 0.0
H1344 H 0.9125 0.85167 0.60036 0.0
H1345 H 0.90646 0.86068 0.51663 0.0
H1346 H 0.92503 0.85997 0.50616 0.0
H1347 H 0.91498 0.8449 0.36111 0.0
H1348 H 0.89639 0.8456 0.371 0.0
H1349 H 0.89556 0.82635 0.35616 0.0
H1350 H 0.86754 0.79074 0.63106 0.0
H1351 H 0.84529 0.797 0.63517 0.0
H1352 H 0.87479 0.84136 0.49123 0.0
C1353 C 0.92549 0.82827 0.49211 0.0
C1354 C 0.92952 0.8164 0.51898 0.0
C1355 C 0.91748 0.80227 0.56198 0.0
C1356 C 0.90196 0.80004 0.57872 0.0
C1357 C 0.89847 0.81195 0.55142 0.0
C1358 C 0.90982 0.82575 0.50863 0.0
C1359 C 0.90277 0.83656 0.48532 0.0
C1360 C 0.91226 0.8532 0.52977 0.0
C1361 C 0.90241 0.83846 0.38758 0.0
C1362 C 0.88568 0.82664 0.52163 0.0
C1363 C 0.88354 0.81255 0.55992 0.0
C1364 C 0.86903 0.80165 0.60042 0.0
C1365 C 0.85638 0.80525 0.602 0.0
C1366 C 0.85812 0.81946 0.56225 0.0
C1367 C 0.873 0.83028 0.52129 0.0
H1368 H 0.84703 0.54863 0.71968 0.0
H1369 H 0.88051 0.59196 0.86146 0.0
H1370 H 0.85851 0.59817 0.88646 0.0
H1371 H 0.82396 0.56572 0.61931 0.0
H1372 H 0.80469 0.54709 0.62849 0.0
H1373 H 0.82325 0.54636 0.6182 0.0
H1374 H 0.81634 0.52941 0.75814 0.0
H1375 H 0.79781 0.53018 0.76911 0.0
H1376 H 0.81248 0.53726 0.85506 0.0
H1377 H 0.83286 0.59921 0.90181 0.0
H1378 H 0.80523 0.59537 0.90439 0.0
H1379 H 0.78788 0.55159 0.75065 0.0
C1380 C 0.84974 0.55951 0.75504 0.0
C1381 C 0.86553 0.56988 0.7881 0.0
C1382 C 0.86855 0.5839 0.83504 0.0
C1383 C 0.85612 0.58752 0.84979 0.0
C1384 C 0.84065 0.57698 0.81741 0.0
C1385 C 0.83738 0.56329 0.7708 0.0
C1386 C 0.81954 0.55386 0.74499 0.0
C1387 C 0.81776 0.55323 0.64691 0.0
C1388 C 0.81104 0.53666 0.78418 0.0
C1389 C 0.81332 0.56436 0.78475 0.0
C1390 C 0.82575 0.57763 0.82606 0.0
C1391 C 0.82306 0.58896 0.8688 0.0
C1392 C 0.80728 0.58673 0.86917 0.0
C1393 C 0.79425 0.57331 0.82664 0.0
C1394 C 0.79744 0.56197 0.78405 0.0
H1395 H 0.49132 0.31611 0.68071 0.0
H1396 H 0.47884 0.32284 0.93925 0.0
H1397 H 0.47741 0.29728 0.98423 0.0
H1398 H 0.46346 0.27186 0.68107 0.0
H1399 H 0.47675 0.26754 0.61771 0.0
H1400 H 0.47721 0.28666 0.60483 0.0
H1401 H 0.5082 0.3022 0.63611 0.0
H1402 H 0.50784 0.28314 0.64927 0.0
H1403 H 0.51563 0.29805 0.73393 0.0
H1404 H 0.47849 0.27197 1.00425 0.0
H1405 H 0.47961 0.24662 0.9956 0.0
H1406 H 0.48951 0.25436 0.72269 0.0
C1407 C 0.4883 0.31214 0.74663 0.0
C1408 C 0.48532 0.32152 0.8067 0.0
C1409 C 0.48116 0.31586 0.89214 0.0
C1410 C 0.48036 0.30136 0.91847 0.0
C1411 C 0.4834 0.29241 0.85822 0.0
C1412 C 0.48701 0.29735 0.77375 0.0
C1413 C 0.48902 0.2849 0.72188 0.0
C1414 C 0.47583 0.27729 0.65223 0.0
C1415 C 0.5062 0.29253 0.68301 0.0
C1416 C 0.48647 0.27251 0.79106 0.0
C1417 C 0.4833 0.27719 0.86915 0.0
C1418 C 0.48089 0.2681 0.9434 0.0
C1419 C 0.48167 0.25377 0.93792 0.0
C1420 C 0.48476 0.24853 0.8587 0.0
C1421 C 0.48707 0.25802 0.7841 0.0
H1422 H 0.72766 0.20064 0.9152 0.0
H1423 H 0.73669 0.17995 0.68808 0.0
H1424 H 0.76435 0.20362 0.67736 0.0
H1425 H 0.74982 0.2426 0.84922 0.0
H1426 H 0.75828 0.2504 0.95357 0.0
H1427 H 0.73902 0.23178 0.94443 0.0
H1428 H 0.75023 0.21663 0.03524 0.0
H1429 H 0.76948 0.23524 0.04507 0.0
H1430 H 0.76876 0.21722 1.00251 0.0
H1431 H 0.79045 0.22988 0.68601 0.0
H1432 H 0.81444 0.25629 0.71988 0.0
H1433 H 0.78993 0.25987 0.94739 0.0
C1434 C 0.7355 0.20113 0.86341 0.0
C1435 C 0.72997 0.18845 0.80225 0.0
C1436 C 0.74064 0.18946 0.73583 0.0
C1437 C 0.75638 0.20291 0.72891 0.0
C1438 C 0.76144 0.21527 0.78947 0.0
C1439 C 0.75146 0.21447 0.85613 0.0
C1440 C 0.76025 0.22932 0.91363 0.0
C1441 C 0.75131 0.2391 0.91528 0.0
C1442 C 0.7623 0.2243 1.0045 0.0
C1443 C 0.77657 0.23866 0.86787 0.0
C1444 C 0.7769 0.2303 0.79629 0.0
C1445 C 0.79043 0.23645 0.7426 0.0
C1446 C 0.8041 0.25148 0.76292 0.0
C1447 C 0.80436 0.26025 0.8371 0.0
C1448 C 0.79024 0.25367 0.88985 0.0
H1449 H 0.88471 0.45459 0.78397 0.0
H1450 H 0.92417 0.48329 0.96112 0.0
H1451 H 0.92726 0.45941 0.98951 0.0
H1452 H 0.86693 0.41725 0.90703 0.0
H1453 H 0.86165 0.40423 0.81443 0.0
H1454 H 0.86258 0.42363 0.80632 0.0
H1455 H 0.88321 0.43181 0.68126 0.0
H1456 H 0.88238 0.41245 0.68909 0.0
H1457 H 0.90169 0.43107 0.69656 0.0
H1458 H 0.92561 0.43241 1.00311 0.0
H1459 H 0.91958 0.40398 0.99935 0.0
H1460 H 0.8817 0.3924 0.81093 0.0
C1461 C 0.89394 0.45584 0.8292 0.0
C1462 C 0.90426 0.47095 0.87 0.0
C1463 C 0.91629 0.47202 0.9279 0.0
C1464 C 0.91807 0.45846 0.94494 0.0
C1465 C 0.90775 0.44383 0.90368 0.0
C1466 C 0.89592 0.4424 0.84695 0.0
C1467 C 0.88642 0.42519 0.81145 0.0
C1468 C 0.86832 0.4171 0.83631 0.0
C1469 C 0.88856 0.42513 0.71378 0.0
C1470 C 0.89477 0.4172 0.8573 0.0
C1471 C 0.907 0.42822 0.91029 0.0
C1472 C 0.91619 0.42373 0.96107 0.0
C1473 C 0.91279 0.40756 0.95784 0.0
C1474 C 0.90047 0.39603 0.90339 0.0
C1475 C 0.89133 0.40097 0.85246 0.0
H1476 H 0.59641 0.45216 0.92469 0.0
H1477 H 0.56778 0.47028 0.79749 0.0
H1478 H 0.59128 0.49806 0.80267 0.0
H1479 H 0.61945 0.48664 0.06316 0.0
H1480 H 0.63819 0.48625 0.05201 0.0
H1481 H 0.6189 0.46768 0.04204 0.0
H1482 H 0.6273 0.46265 0.89214 0.0
H1483 H 0.64663 0.48116 0.90178 0.0
H1484 H 0.63368 0.47822 0.81097 0.0
H1485 H 0.618 0.52382 0.81644 0.0
H1486 H 0.64639 0.54582 0.83676 0.0
H1487 H 0.6583 0.51143 0.95265 0.0
C1488 C 0.59503 0.46191 0.89761 0.0
C1489 C 0.57998 0.45885 0.86171 0.0
C1490 C 0.57888 0.47216 0.82758 0.0
C1491 C 0.59226 0.48805 0.82943 0.0
C1492 C 0.60681 0.49056 0.86508 0.0
C1493 C 0.60833 0.47788 0.89831 0.0
C1494 C 0.62553 0.48393 0.93091 0.0
C1495 C 0.62551 0.48095 0.0278 0.0
C1496 C 0.63377 0.47602 0.88096 0.0
C1497 C 0.63341 0.50199 0.9109 0.0
C1498 C 0.62234 0.50551 0.87289 0.0
C1499 C 0.62675 0.52122 0.84656 0.0
C1500 C 0.6429 0.53365 0.8586 0.0
C1501 C 0.65452 0.53039 0.89703 0.0
C1502 C 0.64964 0.51434 0.9241 0.0
H1503 H 0.58114 0.13569 0.80515 0.0
H1504 H 0.61615 0.18451 0.89138 0.0
H1505 H 0.59395 0.19035 0.91309 0.0
H1506 H 0.55452 0.14607 0.69406 0.0
H1507 H 0.53594 0.1282 0.72688 0.0
H1508 H 0.5545 0.12745 0.71791 0.0
H1509 H 0.55139 0.1176 0.87511 0.0
H1510 H 0.5328 0.1183 0.8847 0.0
H1511 H 0.54926 0.12945 0.95907 0.0
H1512 H 0.56885 0.19179 0.91994 0.0
H1513 H 0.5414 0.18839 0.91836 0.0
H1514 H 0.52124 0.13816 0.83733 0.0
C1515 C 0.58413 0.14754 0.82971 0.0
C1516 C 0.60058 0.15972 0.84534 0.0
C1517 C 0.60383 0.17509 0.87668 0.0
C1518 C 0.59125 0.1785 0.89002 0.0
C1519 C 0.57532 0.16639 0.87303 0.0
C1520 C 0.57161 0.15116 0.84433 0.0
C1521 C 0.55329 0.14045 0.8312 0.0
C1522 C 0.54933 0.13524 0.7369 0.0
C1523 C 0.54627 0.12557 0.8911 0.0
C1524 C 0.5474 0.15217 0.8564 0.0
C1525 C 0.56045 0.16706 0.87986 0.0
C1526 C 0.55851 0.18017 0.9025 0.0
C1527 C 0.54284 0.17812 0.90114 0.0
C1528 C 0.52917 0.16303 0.87814 0.0
C1529 C 0.53146 0.14979 0.85601 0.0
H1530 H 0.52092 0.89608 0.01155 0.0
H1531 H 0.53747 0.90261 0.27546 0.0
H1532 H 0.51314 0.90363 0.32144 0.0
H1533 H 0.50615 0.9252 0.0325 0.0
H1534 H 0.48936 0.91432 0.95964 0.0
H1535 H 0.50776 0.91334 0.94691 0.0
H1536 H 0.49093 0.88187 0.95439 0.0
H1537 H 0.47248 0.8827 0.96785 0.0
H1538 H 0.47795 0.87218 0.04568 0.0
H1539 H 0.48667 0.90254 0.34083 0.0
H1540 H 0.46082 0.90268 0.33155 0.0
H1541 H 0.46184 0.89949 0.05419 0.0
C1542 C 0.51931 0.89766 0.07889 0.0
C1543 C 0.53096 0.89908 0.14015 0.0
C1544 C 0.52867 0.90144 0.22755 0.0
C1545 C 0.51486 0.90199 0.25438 0.0
C1546 C 0.50359 0.90056 0.1928 0.0
C1547 C 0.50577 0.8988 0.10668 0.0
C1548 C 0.49229 0.8988 0.05377 0.0
C1549 C 0.49931 0.9138 0.99469 0.0
C1550 C 0.48285 0.88294 1.00241 0.0
C1551 C 0.48181 0.9 0.12409 0.0
C1552 C 0.48865 0.901 0.20366 0.0
C1553 C 0.48123 0.90187 0.27888 0.0
C1554 C 0.46646 0.90181 0.27293 0.0
C1555 C 0.45918 0.90097 0.19229 0.0
C1556 C 0.46709 0.90018 0.11676 0.0
H1557 H 0.14056 0.64638 0.19275 0.0
H1558 H 0.18249 0.67144 0.02514 0.0
H1559 H 0.18402 0.64641 1.01143 0.0
H1560 H 0.15597 0.62432 0.30722 0.0
H1561 H 0.13668 0.60582 0.31946 0.0
H1562 H 0.13732 0.62506 0.30958 0.0
H1563 H 0.11759 0.61395 0.18023 0.0
H1564 H 0.11692 0.59467 0.19001 0.0
H1565 H 0.12272 0.60558 0.0897 0.0
H1566 H 0.18212 0.61973 0.01807 0.0
H1567 H 0.17789 0.59261 0.05163 0.0
H1568 H 0.13844 0.58413 0.22456 0.0
C1569 C 0.1498 0.64639 0.15185 0.0
C1570 C 0.16132 0.66081 0.10895 0.0
C1571 C 0.17352 0.66054 0.05802 0.0
C1572 C 0.17446 0.64636 0.04961 0.0
C1573 C 0.16321 0.63246 0.09341 0.0
C1574 C 0.15114 0.63226 0.14406 0.0
C1575 C 0.14154 0.61584 0.18924 0.0
C1576 C 0.14297 0.61789 0.28719 0.0
C1577 C 0.12363 0.60699 0.16058 0.0
C1578 C 0.15032 0.60711 0.15675 0.0
C1579 C 0.1626 0.61694 0.1006 0.0
C1580 C 0.1726 0.61191 0.06235 0.0
C1581 C 0.17019 0.59649 0.08268 0.0
C1582 C 0.15805 0.58622 0.14219 0.0
C1583 C 0.1478 0.59159 0.17867 0.0
H1584 H 0.47208 0.57842 0.22553 0.0
H1585 H 0.46126 0.61344 0.10671 0.0
H1586 H 0.43298 0.59175 0.08376 0.0
H1587 H 0.44696 0.54476 0.08128 0.0
H1588 H 0.44024 0.52943 0.16397 0.0
H1589 H 0.45986 0.54766 0.17235 0.0
H1590 H 0.45195 0.55361 0.32111 0.0
H1591 H 0.43232 0.53541 0.31331 0.0
H1592 H 0.43363 0.55478 0.33202 0.0
H1593 H 0.40583 0.56714 0.07858 0.0
H1594 H 0.38104 0.54021 0.0853 0.0
H1595 H 0.40875 0.51972 0.19773 0.0
C1596 C 0.46384 0.58151 0.19372 0.0
C1597 C 0.46902 0.59783 0.16886 0.0
C1598 C 0.45766 0.60124 0.12834 0.0
C1599 C 0.44154 0.58894 0.11426 0.0
C1600 C 0.43685 0.57313 0.14008 0.0
C1601 C 0.44762 0.56928 0.17839 0.0
C1602 C 0.43917 0.55118 0.20011 0.0
C1603 C 0.44703 0.54276 0.1515 0.0
C1604 C 0.43927 0.5486 0.29742 0.0
C1605 C 0.42199 0.54554 0.16781 0.0
C1606 C 0.42103 0.55854 0.13417 0.0
C1607 C 0.40644 0.55683 0.10397 0.0
C1608 C 0.3924 0.54148 0.10832 0.0
C1609 C 0.39296 0.52787 0.14149 0.0
C1610 C 0.40802 0.52988 0.17104 0.0
H1611 H 0.57908 0.73887 0.14379 0.0
H1612 H 0.54139 0.71501 0.33642 0.0
H1613 H 0.54 0.74009 0.35432 0.0
H1614 H 0.59909 0.78034 0.23647 0.0
H1615 H 0.60229 0.79032 0.13405 0.0
H1616 H 0.60183 0.77112 0.14166 0.0
H1617 H 0.57897 0.75892 0.02733 0.0
H1618 H 0.57936 0.77807 0.01973 0.0
H1619 H 0.56056 0.75971 0.0443 0.0
H1620 H 0.54199 0.76692 0.35135 0.0
H1621 H 0.54575 0.79394 0.32078 0.0
H1622 H 0.58036 0.80079 0.11954 0.0
C1623 C 0.57079 0.73913 0.19071 0.0
C1624 C 0.56045 0.72507 0.23975 0.0
C1625 C 0.54944 0.72565 0.29873 0.0
C1626 C 0.5486 0.73986 0.30952 0.0
C1627 C 0.55869 0.75342 0.25978 0.0
C1628 C 0.56949 0.75324 0.20088 0.0
C1629 C 0.57789 0.76924 0.15112 0.0
C1630 C 0.59637 0.77829 0.16678 0.0
C1631 C 0.57396 0.76631 0.05492 0.0
C1632 C 0.57004 0.77828 0.19142 0.0
C1633 C 0.55918 0.7689 0.25464 0.0
C1634 C 0.55037 0.77435 0.30152 0.0
C1635 C 0.5525 0.78974 0.28291 0.0
C1636 C 0.56313 0.79955 0.21655 0.0
C1637 C 0.57219 0.79373 0.17095 0.0
H1638 H 0.31328 0.86753 0.17202 0.0
H1639 H 0.34272 0.84624 0.24703 0.0
H1640 H 0.31836 0.81902 0.24729 0.0
H1641 H 0.27678 0.83981 0.29451 0.0
H1642 H 0.26271 0.83827 0.21231 0.0
H1643 H 0.28228 0.85653 0.22143 0.0
H1644 H 0.28848 0.85365 0.06289 0.0
H1645 H 0.26893 0.83539 0.0534 0.0
H1646 H 0.28725 0.83497 0.02744 0.0
H1647 H 0.29153 0.79419 0.23947 0.0
H1648 H 0.2632 0.77247 0.21903 0.0
H1649 H 0.25016 0.80852 0.14099 0.0
C1650 C 0.3145 0.85711 0.18902 0.0
C1651 C 0.32994 0.85902 0.20985 0.0
C1652 C 0.33108 0.8451 0.23081 0.0
C1653 C 0.31729 0.82955 0.23137 0.0
C1654 C 0.30232 0.82798 0.2101 0.0
C1655 C 0.30073 0.84128 0.18881 0.0
C1656 C 0.28312 0.83579 0.16519 0.0
C1657 C 0.27579 0.84303 0.22707 0.0
C1658 C 0.28188 0.84021 0.07167 0.0
C1659 C 0.27522 0.81741 0.17688 0.0
C1660 C 0.28659 0.8133 0.20323 0.0
C1661 C 0.28249 0.79722 0.21832 0.0
C1662 C 0.26632 0.78491 0.20573 0.0
C1663 C 0.25432 0.7886 0.17736 0.0
C1664 C 0.25892 0.80519 0.16333 0.0
H1665 H 0.26664 0.50143 0.24617 0.0
H1666 H 0.24615 0.45299 0.13744 0.0
H1667 H 0.21879 0.4499 0.14198 0.0
H1668 H 0.2331 0.4919 0.39054 0.0
H1669 H 0.23388 0.51115 0.37633 0.0
H1670 H 0.25213 0.50988 0.36425 0.0
H1671 H 0.25639 0.52222 0.21174 0.0
H1672 H 0.23821 0.52361 0.22344 0.0
H1673 H 0.24023 0.51274 0.13398 0.0
H1674 H 0.19383 0.45206 0.15376 0.0
H1675 H 0.17245 0.45926 0.17418 0.0
H1676 H 0.20809 0.50586 0.28133 0.0
C1677 C 0.25638 0.49022 0.22309 0.0
C1678 C 0.25856 0.47738 0.19223 0.0
C1679 C 0.2448 0.46288 0.1628 0.0
C1680 C 0.22919 0.46103 0.16467 0.0
C1681 C 0.22741 0.47377 0.19636 0.0
C1682 C 0.24057 0.48809 0.2252 0.0
C1683 C 0.23509 0.49976 0.2567 0.0
C1684 C 0.23877 0.50338 0.35267 0.0
C1685 C 0.24295 0.51552 0.20327 0.0
C1686 C 0.21684 0.48978 0.24058 0.0
C1687 C 0.21277 0.47485 0.20539 0.0
C1688 C 0.19684 0.46365 0.18207 0.0
C1689 C 0.18475 0.46782 0.19435 0.0
C1690 C 0.18851 0.48299 0.23076 0.0
C1691 C 0.20479 0.49407 0.25471 0.0
H1692 H 1.00772 0.24633 0.25277 0.0
H1693 H 0.04907 0.23907 0.29598 0.0
H1694 H 0.05251 0.23799 0.14255 0.0
H1695 H 0.99178 0.21969 0.06677 0.0
H1696 H 0.98624 0.23257 1.0078 0.0
H1697 H 0.98638 0.23289 0.12335 0.0
H1698 H 1.00614 0.26403 0.12106 0.0
H1699 H 1.00608 0.26382 1.0055 0.0
H1700 H 0.02507 0.27215 0.06304 0.0
H1701 H 0.05229 0.2374 0.99022 0.0
H1702 H 0.04858 0.2376 0.83648 0.0
H1703 H 1.00752 0.24546 0.87633 0.0
C1704 C 0.01748 0.24455 0.22962 0.0
C1705 C 0.02816 0.24291 0.28761 0.0
C1706 C 0.04076 0.24054 0.25428 0.0
C1707 C 0.04285 0.23984 0.16656 0.0
C1708 C 0.03232 0.24155 0.11157 0.0
C1709 C 0.01989 0.24389 0.1406 0.0
C1710 C 0.0106 0.24548 0.06458 0.0
C1711 C 0.99268 0.23184 0.06572 0.0
C1712 C 0.01206 0.26238 0.0635 0.0
C1713 C 0.01979 0.2435 0.98943 0.0
C1714 C 0.03224 0.24128 0.01951 0.0
C1715 C 0.04261 0.23916 0.96539 0.0
C1716 C 0.04035 0.23933 0.87745 0.0
C1717 C 0.02775 0.24161 0.84304 0.0
C1718 C 0.01726 0.2437 0.90022 0.0
H1719 H 0.81485 0.8304 0.27176 0.0
H1720 H 0.8178 0.78654 0.31392 0.0
H1721 H 0.81734 0.78236 0.15973 0.0
H1722 H 0.78771 0.81512 0.08809 0.0
H1723 H 0.79745 0.83406 0.02951 0.0
H1724 H 0.79807 0.83419 0.145 0.0
H1725 H 0.82957 0.85116 0.14055 0.0
H1726 H 0.82904 0.85106 0.02501 0.0
H1727 H 0.84075 0.84368 0.08074 0.0
H1728 H 0.8161 0.78185 1.00648 0.0
H1729 H 0.81465 0.78523 0.85295 0.0
H1730 H 0.81297 0.82974 0.89595 0.0
C1731 C 0.81545 0.81997 0.24829 0.0
C1732 C 0.81645 0.80887 0.30595 0.0
C1733 C 0.81716 0.79535 0.27225 0.0
C1734 C 0.81686 0.79279 0.18423 0.0
C1735 C 0.81591 0.80384 0.12957 0.0
C1736 C 0.81527 0.81721 0.15925 0.0
C1737 C 0.81435 0.82704 0.08396 0.0
C1738 C 0.79845 0.82764 0.08684 0.0
C1739 C 0.82932 0.84426 0.08249 0.0
C1740 C 0.81449 0.81695 1.00817 0.0
C1741 C 0.81536 0.80364 0.03739 0.0
C1742 C 0.81541 0.7922 0.98244 0.0
C1743 C 0.81448 0.79425 0.89475 0.0
C1744 C 0.81351 0.80768 0.86138 0.0
C1745 C 0.81368 0.81934 0.91917 0.0
H1746 H 0.22525 0.00635 0.27436 0.0
H1747 H 0.26499 0.05587 0.31423 0.0
H1748 H 0.26833 0.05997 0.15955 0.0
H1749 H 0.24301 0.99802 0.08907 0.0
H1750 H 0.22404 0.98653 0.03225 0.0
H1751 H 0.22417 0.98702 0.14775 0.0
H1752 H 0.20358 0.99742 0.14561 0.0
H1753 H 0.20342 0.99699 0.03006 0.0
H1754 H 0.20836 0.01555 0.08572 0.0
H1755 H 0.26834 0.05937 1.0055 0.0
H1756 H 0.26514 0.05412 0.85185 0.0
H1757 H 0.22517 1.00501 0.89911 0.0
C1758 C 0.23458 0.01806 0.25035 0.0
C1759 C 0.2448 0.03079 0.30739 0.0
C1760 C 0.25693 0.04589 0.27297 0.0
C1761 C 0.25896 0.04839 0.18471 0.0
C1762 C 0.24879 0.03573 0.13064 0.0
C1763 C 0.23682 0.02085 0.1612 0.0
C1764 C 0.2278 0.00942 0.08672 0.0
C1765 C 0.22988 0.99435 0.08911 0.0
C1766 C 0.20971 1.00456 0.08706 0.0
C1767 C 0.2367 0.02031 1.01021 0.0
C1768 C 0.24874 0.03539 0.03837 0.0
C1769 C 0.25898 0.04762 0.98237 0.0
C1770 C 0.25707 0.04442 0.89483 0.0
C1771 C 0.24502 0.02907 0.86284 0.0
C1772 C 0.23447 0.01686 0.92148 0.0
H1773 H 0.05101 0.81282 0.75124 0.0
H1774 H 1.00226 0.80538 0.70962 0.0
H1775 H 0.99775 0.80405 0.86261 0.0
H1776 H 0.03985 0.78553 0.93688 0.0
H1777 H 0.05828 0.79818 0.99607 0.0
H1778 H 0.05853 0.79867 0.88051 0.0
H1779 H 0.07021 0.82987 0.88357 0.0
H1780 H 0.06999 0.82946 0.99911 0.0
H1781 H 0.05951 0.83806 0.94198 0.0
H1782 H 0.99748 0.80373 0.01526 0.0
H1783 H 1.00167 0.80421 0.16965 0.0
H1784 H 0.05026 0.8115 0.12749 0.0
C1785 C 0.03942 0.8109 0.77458 0.0
C1786 C 0.02707 0.80924 0.71679 0.0
C1787 C 0.01207 0.80673 0.75073 0.0
C1788 C 0.00926 0.80593 0.83841 0.0
C1789 C 0.02149 0.80759 0.89312 0.0
C1790 C 0.03628 0.81 0.86375 0.0
C1791 C 0.04709 0.81139 0.93967 0.0
C1792 C 0.05118 0.79762 0.93816 0.0
C1793 C 0.06262 0.8282 0.94115 0.0
C1794 C 0.03591 0.80937 0.01489 0.0
C1795 C 0.02126 0.80724 0.98521 0.0
C1796 C 0.00887 0.80534 0.03979 0.0
C1797 C 0.01143 0.80567 0.1278 0.0
C1798 C 0.02629 0.80788 0.16138 0.0
C1799 C 0.03871 0.80965 0.1039 0.0
H1800 H 0.24839 0.26586 0.13855 0.0
H1801 H 0.23526 0.21525 0.17855 0.0
H1802 H 0.23257 0.21064 0.02503 0.0
H1803 H 0.22112 0.25826 0.95791 0.0
H1804 H 0.2352 0.27608 0.89804 0.0
H1805 H 0.23622 0.27613 0.01346 0.0
H1806 H 0.26655 0.2839 1.00537 0.0
H1807 H 0.26563 0.28391 0.88995 0.0
H1808 H 0.27218 0.27136 0.94411 0.0
H1809 H 0.23059 0.21032 0.87264 0.0
H1810 H 0.231 0.21479 0.71875 0.0
H1811 H 0.24601 0.26571 0.76219 0.0
C1812 C 0.24499 0.25385 0.11474 0.0
C1813 C 0.24206 0.24097 0.17194 0.0
C1814 C 0.23765 0.22544 0.13759 0.0
C1815 C 0.23601 0.22259 0.04977 0.0
C1816 C 0.23884 0.23535 0.99564 0.0
C1817 C 0.24335 0.25072 0.02563 0.0
C1818 C 0.24588 0.2621 0.95046 0.0
C1819 C 0.23389 0.26853 0.95529 0.0
C1820 C 0.26362 0.27615 0.94729 0.0
C1821 C 0.242 0.25057 0.87457 0.0
C1822 C 0.23792 0.23523 0.90364 0.0
C1823 C 0.23382 0.22228 0.84865 0.0
C1824 C 0.23413 0.22501 0.76091 0.0
C1825 C 0.23863 0.24063 0.72767 0.0
C1826 C 0.24241 0.25361 0.78552 0.0
H1827 H 0.82815 0.04608 0.13853 0.0
H1828 H 0.79033 0.99602 0.18646 0.0
H1829 H 0.78732 0.99068 0.03267 0.0
H1830 H 0.80895 0.05137 0.94939 0.0
H1831 H 0.82761 0.06345 0.89078 0.0
H1832 H 0.82772 0.06382 1.00629 0.0
H1833 H 0.84987 0.05544 1.00832 0.0
H1834 H 0.84984 0.05508 0.89278 0.0
H1835 H 0.84626 0.03729 0.95248 0.0
H1836 H 0.78739 0.99006 0.87835 0.0
H1837 H 0.79055 0.99422 0.72365 0.0
H1838 H 0.82806 0.04474 0.7633 0.0
C1839 C 0.81937 0.034 0.11625 0.0
C1840 C 0.80937 0.02151 0.17505 0.0
C1841 C 0.79796 0.00588 0.14326 0.0
C1842 C 0.79618 1.00265 0.05569 0.0
C1843 C 0.80588 0.01514 0.99951 0.0
C1844 C 0.81726 0.03052 0.02752 0.0
C1845 C 0.82562 0.04163 0.95086 0.0
C1846 C 0.82227 0.05592 0.94926 0.0
C1847 C 0.84399 0.04772 0.95116 0.0
C1848 C 0.81714 0.02997 0.87651 0.0
C1849 C 0.80584 0.01479 0.90718 0.0
C1850 C 0.79623 1.00187 0.85315 0.0
C1851 C 0.79815 1.00442 0.76486 0.0
C1852 C 0.8096 0.01982 0.73034 0.0
C1853 C 0.81927 0.0328 0.78735 0.0
H1854 H 0.71287 0.57826 0.20392 0.0
H1855 H 0.66171 0.56236 0.16003 0.0
H1856 H 0.65702 0.56096 0.31395 0.0
H1857 H 0.70622 0.55282 0.39452 0.0
H1858 H 0.7238 0.56803 0.45153 0.0
H1859 H 0.72382 0.5677 0.33598 0.0
H1860 H 0.73046 0.59772 0.3326 0.0
H1861 H 0.73046 0.59812 0.44811 0.0
H1862 H 0.71738 0.60335 0.38879 0.0
H1863 H 0.65706 0.56167 0.4674 0.0
H1864 H 0.66176 0.56402 0.62144 0.0
H1865 H 0.71282 0.57922 0.57954 0.0
C1866 C 0.70068 0.57432 0.22703 0.0
C1867 C 0.68769 0.57048 0.169 0.0
C1868 C 0.67195 0.56552 0.20215 0.0
C1869 C 0.66908 0.56462 0.28998 0.0
C1870 C 0.68202 0.56864 0.34512 0.0
C1871 C 0.69752 0.57336 0.31603 0.0
C1872 C 0.70907 0.57722 0.39189 0.0
C1873 C 0.71615 0.56576 0.39356 0.0
C1874 C 0.72265 0.59517 0.39021 0.0
C1875 C 0.6975 0.57385 0.46704 0.0
C1876 C 0.68202 0.56898 0.4373 0.0
C1877 C 0.66911 0.56543 0.49188 0.0
C1878 C 0.67199 0.56689 0.57978 0.0
C1879 C 0.68771 0.57186 0.61345 0.0
C1880 C 0.70067 0.57531 0.55601 0.0
H1881 H 0.47997 0.12064 0.57955 0.0
H1882 H 0.48681 0.16895 0.62422 0.0
H1883 H 0.48636 0.17311 0.47033 0.0
H1884 H 0.50529 0.13186 0.38421 0.0
H1885 H 0.49224 0.11308 0.32881 0.0
H1886 H 0.49331 0.11335 0.44424 0.0
H1887 H 0.46203 0.10087 0.45283 0.0
H1888 H 0.46087 0.10061 0.33745 0.0
H1889 H 0.45262 0.1109 0.39889 0.0
H1890 H 0.48428 0.17255 0.31767 0.0
H1891 H 0.4822 0.16799 0.16395 0.0
H1892 H 0.47725 0.12022 0.20328 0.0
C1893 C 0.48161 0.13214 0.55646 0.0
C1894 C 0.48336 0.14444 0.6146 0.0
C1895 C 0.48529 0.15925 0.58175 0.0
C1896 C 0.48508 0.1618 0.49405 0.0
C1897 C 0.48301 0.14948 0.43873 0.0
C1898 C 0.48143 0.13497 0.46748 0.0
C1899 C 0.47928 0.12395 0.39132 0.0
C1900 C 0.49337 0.12035 0.38689 0.0
C1901 C 0.46271 0.10814 0.39541 0.0
C1902 C 0.47992 0.13465 0.31642 0.0
C1903 C 0.482 0.14924 0.34669 0.0
C1904 C 0.48273 0.16122 0.29273 0.0
C1905 C 0.48147 0.15841 0.20482 0.0
C1906 C 0.47955 0.1437 0.17023 0.0
C1907 C 0.47872 0.13159 0.22726 0.0
H1908 H 0.88699 0.34653 0.22989 0.0
H1909 H 0.93951 0.37411 0.19064 0.0
H1910 H 0.94377 0.37725 0.34455 0.0
H1911 H 0.88644 0.36996 0.41234 0.0
H1912 H 0.87108 0.35277 0.47144 0.0
H1913 H 0.87135 0.35219 0.35599 0.0
H1914 H 0.87267 0.32559 0.3622 0.0
H1915 H 0.87239 0.32608 0.47768 0.0
H1916 H 0.88864 0.32514 0.42285 0.0
H1917 H 0.94336 0.37911 0.49839 0.0
H1918 H 0.93803 0.37771 0.65282 0.0
H1919 H 0.88608 0.34776 0.60537 0.0
C1920 C 0.89936 0.35306 0.25393 0.0
C1921 C 0.91287 0.36012 0.19684 0.0
C1922 C 0.92885 0.36864 0.23157 0.0
C1923 C 0.93149 0.37054 0.31959 0.0
C1924 C 0.9181 0.36374 0.37367 0.0
C1925 C 0.90233 0.35502 0.34323 0.0
C1926 C 0.89034 0.34905 0.41813 0.0
C1927 C 0.87914 0.35643 0.4142 0.0
C1928 C 0.88042 0.33035 0.42033 0.0
C1929 C 0.90198 0.35577 0.49421 0.0
C1930 C 0.91789 0.36435 0.46591 0.0
C1931 C 0.93097 0.37233 0.52179 0.0
C1932 C 0.92779 0.37153 0.60951 0.0
C1933 C 0.91166 0.36264 0.64132 0.0
C1934 C 0.89854 0.35453 0.58282 0.0
H1935 H 0.71858 0.15057 0.09435 0.0
H1936 H 0.66666 0.13057 0.04989 0.0
H1937 H 0.66172 0.12818 0.20328 0.0
H1938 H 0.71368 0.12472 0.28055 0.0
H1939 H 0.73052 0.14048 0.33965 0.0
H1940 H 0.73074 0.14084 0.2241 0.0
H1941 H 0.73487 0.16998 0.22608 0.0
H1942 H 0.73464 0.16969 0.34162 0.0
H1943 H 0.72061 0.17377 0.28365 0.0
H1944 H 0.66148 0.12858 0.35744 0.0
H1945 H 0.6661 0.13052 0.51252 0.0
H1946 H 0.71777 0.14916 0.46989 0.0
C1947 C 0.7062 0.14559 0.11714 0.0
C1948 C 0.69309 0.14094 0.05878 0.0
C1949 C 0.67706 0.13449 0.09187 0.0
C1950 C 0.67402 0.13299 0.17959 0.0
C1951 C 0.68705 0.13783 0.23502 0.0
C1952 C 0.70283 0.1439 0.20615 0.0
C1953 C 0.71437 0.14817 0.28232 0.0
C1954 C 0.72283 0.13794 0.28158 0.0
C1955 C 0.72687 0.16649 0.28346 0.0
C1956 C 0.70247 0.14342 0.35723 0.0
C1957 C 0.68683 0.13763 0.32735 0.0
C1958 C 0.67365 0.13295 0.38206 0.0
C1959 C 0.67642 0.13414 0.47026 0.0
C1960 C 0.69225 0.13985 0.5037 0.0
C1961 C 0.70549 0.1445 0.44623 0.0
H1962 H 0.91544 0.59918 0.10062 0.0
H1963 H 0.90563 0.54968 0.05871 0.0
H1964 H 0.9044 0.54519 0.21256 0.0
H1965 H 0.94111 0.60656 0.28968 0.0
H1966 H 0.93369 0.61805 0.34699 0.0
H1967 H 0.93384 0.6181 0.23141 0.0
H1968 H 0.90297 0.60822 0.22989 0.0
H1969 H 0.90272 0.60815 0.34544 0.0
H1970 H 0.88911 0.58993 0.28721 0.0
H1971 H 0.90394 0.54502 0.36501 0.0
H1972 H 0.90448 0.54916 0.51854 0.0
H1973 H 0.91482 0.5989 0.47711 0.0
C1974 C 0.91306 0.58744 0.12416 0.0
C1975 C 0.91076 0.57485 0.06657 0.0
C1976 C 0.90764 0.55965 0.10027 0.0
C1977 C 0.90684 0.55689 0.18815 0.0
C1978 C 0.90922 0.56941 0.24278 0.0
C1979 C 0.91231 0.58442 0.21326 0.0
C1980 C 0.91454 0.59558 0.28888 0.0
C1981 C 0.93182 0.61046 0.28924 0.0
C1982 C 0.90156 0.60077 0.28776 0.0
C1983 C 0.91202 0.58429 0.36445 0.0
C1984 C 0.90902 0.56933 0.33486 0.0
C1985 C 0.90631 0.55668 0.38943 0.0
C1986 C 0.9067 0.55926 0.47726 0.0
C1987 C 0.90978 0.57444 0.51121 0.0
C1988 C 0.91243 0.58718 0.45359 0.0
H1989 H 0.4571 0.33706 0.10329 0.0
H1990 H 0.49592 0.38691 0.05943 0.0
H1991 H 0.49934 0.39142 0.2136 0.0
H1992 H 0.43997 0.3463 0.29209 0.0
H1993 H 0.43552 0.328 0.34935 0.0
H1994 H 0.43543 0.3281 0.23377 0.0
H1995 H 0.45646 0.31827 0.23212 0.0
H1996 H 0.45663 0.31815 0.34764 0.0
H1997 H 0.47541 0.32976 0.28921 0.0
H1998 H 0.49967 0.39124 0.36747 0.0
H1999 H 0.4967 0.38652 0.52146 0.0
H2000 H 0.4575 0.33682 0.47888 0.0
C2001 C 0.46619 0.34894 0.12637 0.0
C2002 C 0.47623 0.36161 0.0683 0.0
C2003 C 0.48807 0.37694 0.1015 0.0
C2004 C 0.49014 0.37969 0.18948 0.0
C2005 C 0.48026 0.36707 0.24463 0.0
C2006 C 0.46847 0.35199 0.21537 0.0
C2007 C 0.45978 0.34069 0.29104 0.0
C2008 C 0.44159 0.33546 0.29157 0.0
C2009 C 0.46222 0.32584 0.28991 0.0
C2010 C 0.46867 0.35187 0.3665 0.0
C2011 C 0.4804 0.36698 0.33693 0.0
C2012 C 0.4905 0.37949 0.39179 0.0
C2013 C 0.48869 0.37659 0.47972 0.0
C2014 C 0.47685 0.36126 0.51334 0.0
C2015 C 0.46659 0.3487 0.45556 0.0
H2016 H 0.33549 0.89963 0.53382 0.0
H2017 H 0.38788 0.92436 0.49377 0.0
H2018 H 0.39225 0.92637 0.64883 0.0
H2019 H 0.33628 0.92241 0.72527 0.0
H2020 H 0.32023 0.905 0.77993 0.0
H2021 H 0.32067 0.90576 0.66441 0.0
H2022 H 0.32024 0.87825 0.65962 0.0
H2023 H 0.3198 0.87741 0.77509 0.0
H2024 H 0.33556 0.8761 0.71721 0.0
H2025 H 0.39174 0.92575 0.80273 0.0
H2026 H 0.38661 0.92221 0.95585 0.0
H2027 H 0.33431 0.89728 0.90948 0.0
C2028 C 0.34785 0.90566 0.5581 0.0
C2029 C 0.36136 0.91191 0.50127 0.0
C2030 C 0.37733 0.91944 0.5355 0.0
C2031 C 0.37998 0.92069 0.62374 0.0
C2032 C 0.36654 0.91431 0.67784 0.0
C2033 C 0.35077 0.90689 0.64731 0.0
C2034 C 0.33871 0.90062 0.72189 0.0
C2035 C 0.32836 0.90895 0.72293 0.0
C2036 C 0.32794 0.88199 0.7182 0.0
C2037 C 0.35028 0.90585 0.79837 0.0
C2038 C 0.36623 0.91371 0.77011 0.0
C2039 C 0.37932 0.91961 0.82597 0.0
C2040 C 0.37617 0.91744 0.91353 0.0
C2041 C 0.35999 0.90932 0.94596 0.0
C2042 C 0.3468 0.90352 0.88716 0.0
H2043 H 0.14886 0.49786 0.91874 0.0
H2044 H 0.13965 0.44844 0.95756 0.0
H2045 H 0.13902 0.44452 0.8038 0.0
H2046 H 0.12262 0.48821 0.72989 0.0
H2047 H 0.13596 0.5068 0.67333 0.0
H2048 H 0.1358 0.50648 0.7889 0.0
H2049 H 0.16687 0.51739 0.79021 0.0
H2050 H 0.16715 0.51775 0.67467 0.0
H2051 H 0.17496 0.50659 0.73204 0.0
H2052 H 0.13942 0.44493 0.65213 0.0
H2053 H 0.14065 0.44955 0.49899 0.0
H2054 H 0.14949 0.49873 0.5421 0.0
C2055 C 0.14665 0.48624 0.89453 0.0
C2056 C 0.1444 0.47353 0.95127 0.0
C2057 C 0.14156 0.4585 0.91671 0.0
C2058 C 0.14112 0.45605 0.82883 0.0
C2059 C 0.14348 0.46868 0.77502 0.0
C2060 C 0.14615 0.48349 0.80531 0.0
C2061 C 0.14832 0.49478 0.73029 0.0
C2062 C 0.13487 0.49934 0.73063 0.0
C2063 C 0.16534 0.51003 0.73192 0.0
C2064 C 0.14646 0.48386 0.65418 0.0
C2065 C 0.14368 0.46891 0.6831 0.0
C2066 C 0.1416 0.45657 0.62817 0.0
C2067 C 0.14239 0.45943 0.54055 0.0
C2068 C 0.14529 0.4746 0.50718 0.0
C2069 C 0.14728 0.48702 0.56518 0.0
H2070 H 0.56089 0.67464 0.93003 0.0
H2071 H 0.5956 0.7261 0.96848 0.0
H2072 H 0.59895 0.73009 0.81382 0.0
H2073 H 0.58142 0.66939 0.74723 0.0
H2074 H 0.56305 0.65595 0.68956 0.0
H2075 H 0.56283 0.65658 0.805 0.0
H2076 H 0.53935 0.66305 0.79962 0.0
H2077 H 0.53951 0.66247 0.68413 0.0
H2078 H 0.54189 0.68031 0.73832 0.0
H2079 H 0.59967 0.72926 0.65987 0.0
H2080 H 0.59724 0.72385 0.50645 0.0
H2081 H 0.56157 0.67298 0.5545 0.0
C2082 C 0.56906 0.68676 0.90568 0.0
C2083 C 0.57792 0.70005 0.96245 0.0
C2084 C 0.58861 0.71566 0.92753 0.0
C2085 C 0.59064 0.71811 0.83923 0.0
C2086 C 0.58189 0.70489 0.78545 0.0
C2087 C 0.57125 0.68951 0.81637 0.0
C2088 C 0.56352 0.67759 0.74204 0.0
C2089 C 0.56797 0.66407 0.74624 0.0
C2090 C 0.54496 0.67043 0.74097 0.0
C2091 C 0.57159 0.6888 0.66527 0.0
C2092 C 0.58216 0.70444 0.69314 0.0
C2093 C 0.59142 0.71709 0.63691 0.0
C2094 C 0.58997 0.7138 0.54938 0.0
C2095 C 0.57929 0.69794 0.51749 0.0
C2096 C 0.56981 0.68524 0.57656 0.0
H2097 H 0.37868 0.47142 0.81735 0.0
H2098 H 0.34632 0.49093 0.85908 0.0
H2099 H 0.34506 0.4945 0.70506 0.0
H2100 H 0.40105 0.4977 0.63769 0.0
H2101 H 0.40217 0.48207 0.57747 0.0
H2102 H 0.40107 0.48098 0.69286 0.0
H2103 H 0.37564 0.45219 0.68409 0.0
H2104 H 0.37668 0.45317 0.56871 0.0
H2105 H 0.35824 0.4492 0.62271 0.0
H2106 H 0.34667 0.49624 0.55096 0.0
H2107 H 0.3502 0.49487 0.39629 0.0
H2108 H 0.38131 0.47411 0.44198 0.0
C2109 C 0.37139 0.47647 0.7938 0.0
C2110 C 0.36258 0.48083 0.85122 0.0
C2111 C 0.35309 0.48732 0.81742 0.0
C2112 C 0.35233 0.4895 0.72956 0.0
C2113 C 0.36106 0.48513 0.67502 0.0
C2114 C 0.37033 0.47863 0.70483 0.0
C2115 C 0.378 0.47459 0.62969 0.0
C2116 C 0.39669 0.48443 0.63476 0.0
C2117 C 0.37177 0.4562 0.6261 0.0
C2118 C 0.3717 0.48007 0.55394 0.0
C2119 C 0.36195 0.48608 0.58279 0.0
C2120 C 0.3543 0.4916 0.52725 0.0
C2121 C 0.3564 0.49077 0.43935 0.0
C2122 C 0.36609 0.48449 0.40688 0.0
C2123 C 0.37406 0.47924 0.46504 0.0
H2124 H 0.57571 0.92885 0.81039 0.0
H2125 H 0.58169 0.88671 0.85303 0.0
H2126 H 0.58295 0.88343 0.69957 0.0
H2127 H 0.55031 0.91283 0.62139 0.0
H2128 H 0.55936 0.93191 0.56407 0.0
H2129 H 0.55919 0.93177 0.6796 0.0
H2130 H 0.59054 0.95045 0.68122 0.0
H2131 H 0.59078 0.95064 0.56565 0.0
H2132 H 0.6031 0.94431 0.62394 0.0
H2133 H 0.58342 0.88364 0.54677 0.0
H2134 H 0.58284 0.88728 0.39275 0.0
H2135 H 0.57643 0.92914 0.43441 0.0
C2136 C 0.57738 0.91903 0.78717 0.0
C2137 C 0.57855 0.90806 0.84502 0.0
C2138 C 0.58066 0.89531 0.81148 0.0
C2139 C 0.58145 0.89329 0.72372 0.0
C2140 C 0.58018 0.9041 0.66886 0.0
C2141 C 0.57821 0.91675 0.69814 0.0
C2142 C 0.57702 0.92631 0.62234 0.0
C2143 C 0.56048 0.92566 0.62184 0.0
C2144 C 0.5912 0.94398 0.62337 0.0
C2145 C 0.57851 0.91687 0.54703 0.0
C2146 C 0.58039 0.90419 0.57675 0.0
C2147 C 0.58199 0.89353 0.52222 0.0
C2148 C 0.58162 0.89575 0.43426 0.0
C2149 C 0.57959 0.90851 0.40045 0.0
C2150 C 0.57808 0.91931 0.45796 0.0
H2151 H 0.16243 0.71167 0.42181 0.0
H2152 H 0.12464 0.6612 0.38293 0.0
H2153 H 0.1214 0.65717 0.5372 0.0
H2154 H 0.18023 0.70374 0.61211 0.0
H2155 H 0.18419 0.72204 0.66744 0.0
H2156 H 0.18417 0.72159 0.55189 0.0
H2157 H 0.16246 0.73053 0.54862 0.0
H2158 H 0.1624 0.73101 0.66412 0.0
H2159 H 0.14365 0.71878 0.60664 0.0
H2160 H 0.12126 0.65772 0.68991 0.0
H2161 H 0.12417 0.6626 0.84281 0.0
H2162 H 0.16221 0.71285 0.79829 0.0
C2163 C 0.15359 0.69977 0.44601 0.0
C2164 C 0.14382 0.68678 0.3891 0.0
C2165 C 0.13231 0.67143 0.42384 0.0
C2166 C 0.13033 0.66894 0.51199 0.0
C2167 C 0.13997 0.68186 0.56586 0.0
C2168 C 0.15141 0.69698 0.5353 0.0
C2169 C 0.15991 0.70858 0.61008 0.0
C2170 C 0.17821 0.71433 0.61039 0.0
C2171 C 0.15692 0.72308 0.60717 0.0
C2172 C 0.15129 0.6975 0.6866 0.0
C2173 C 0.13989 0.68219 0.65803 0.0
C2174 C 0.13013 0.66964 0.71347 0.0
C2175 C 0.13193 0.67266 0.80105 0.0
C2176 C 0.1434 0.6882 0.83416 0.0
C2177 C 0.15334 0.70084 0.77563 0.0
loop_
_geom_bond_atom_site_label_1
_geom_bond_atom_site_label_2
_geom_bond_distance
_geom_bond_site_symmetry_2
_ccdc_geom_bond_type
Nd0 C2 2.836 . S
Nd0 O20 2.500 . S
Nd0 O21 2.492 . S
Nd0 O22 2.487 . S
Nd0 O23 2.682 . S
Nd0 O24 2.410 . S
Nd0 O29 2.414 . S
Nd0 O31 2.424 . S
Nd1 C11 2.836 1_455 S
Nd1 O23 2.414 . S
Nd1 O25 2.424 . S
Nd1 O26 2.500 1_455 S
Nd1 O27 2.492 1_455 S
Nd1 O28 2.487 . S
Nd1 O29 2.682 . S
Nd1 O30 2.410 . S
C2 Nd0 2.836 . S
C2 C3 1.498 . S
C2 O20 1.258 . S
C2 O21 1.239 . S
C3 C2 1.498 . S
C3 C4 1.366 . S
C3 C8 1.407 . S
C4 C3 1.366 . S
C4 C5 1.392 . S
C4 H32 0.930 . S
C5 C4 1.392 . S
C5 C6 1.398 . S
C5 H33 0.929 . S
C6 C5 1.398 . S
C6 C7 1.352 . S
C7 C6 1.352 . S
C7 C8 1.384 . S
C7 H34 0.930 . S
C8 C3 1.407 . S
C8 C7 1.384 . S
C8 H35 0.929 . S
C9 O22 1.241 . S
C9 O23 1.273 . S
C10 O24 1.251 . S
C10 O25 1.268 . S
C11 Nd1 2.836 1_655 S
C11 C12 1.498 . S
C11 O26 1.258 . S
C11 O27 1.239 . S
C12 C11 1.498 . S
C12 C13 1.366 . S
C12 C17 1.407 . S
C13 C12 1.366 . S
C13 C14 1.392 . S
C13 H36 0.930 . S
C14 C13 1.392 . S
C14 C15 1.398 . S
C14 H37 0.929 . S
C15 C14 1.398 . S
C15 C16 1.352 . S
C16 C15 1.352 . S
C16 C17 1.384 . S
C16 H38 0.930 . S
C17 C12 1.407 . S
C17 C16 1.384 . S
C17 H39 0.929 . S
C18 O28 1.241 . S
C18 O29 1.273 . S
C19 O30 1.251 . S
C19 O31 1.268 . S
O20 Nd0 2.500 . S
O20 C2 1.258 . S
O21 Nd0 2.492 . S
O21 C2 1.239 . S
O22 Nd0 2.487 . S
O22 C9 1.241 . S
O23 Nd0 2.682 . S
O23 Nd1 2.414 . S
O23 C9 1.273 . S
O24 Nd0 2.410 . S
O24 C10 1.251 . S
O25 Nd1 2.424 . S
O25 C10 1.268 . S
O26 Nd1 2.500 1_655 S
O26 C11 1.258 . S
O27 Nd1 2.492 1_655 S
O27 C11 1.239 . S
O28 Nd1 2.487 . S
O28 C18 1.241 . S
O29 Nd0 2.414 . S
O29 Nd1 2.682 . S
O29 C18 1.273 . S
O30 Nd1 2.410 . S
O30 C19 1.251 . S
O31 Nd0 2.424 . S
O31 C19 1.268 . S
H32 C4 0.930 . S
H33 C5 0.929 . S
H34 C7 0.930 . S
H35 C8 0.929 . S
H36 C13 0.930 . S
H37 C14 0.929 . S
H38 C16 0.930 . S
H39 C17 0.929 . S
Nd40 C42 2.836 . S
Nd40 O60 2.500 . S
Nd40 O61 2.492 . S
Nd40 O62 2.487 . S
Nd40 O63 2.682 . S
Nd40 O64 2.410 . S
Nd40 O69 2.414 . S
Nd40 O71 2.424 . S
Nd41 C51 2.836 . S
Nd41 O63 2.414 . S
Nd41 O65 2.424 . S
Nd41 O66 2.500 . S
Nd41 O67 2.492 . S
Nd41 O68 2.487 . S
Nd41 O69 2.682 . S
Nd41 O70 2.410 . S
C42 Nd40 2.836 . S
C42 C43 1.498 . S
C42 O60 1.258 . S
C42 O61 1.239 . S
C43 C42 1.498 . S
C43 C44 1.366 . S
C43 C48 1.407 . S
C44 C43 1.366 . S
C44 C45 1.392 . S
C44 H72 0.930 . S
C45 C44 1.392 . S
C45 C46 1.398 . S
C45 H73 0.929 . S
C46 C45 1.398 . S
C46 C47 1.352 . S
C47 C46 1.352 . S
C47 C48 1.384 . S
C47 H74 0.930 . S
C48 C43 1.407 . S
C48 C47 1.384 . S
C48 H75 0.929 . S
C49 O62 1.241 . S
C49 O63 1.273 . S
C50 O64 1.251 . S
C50 O65 1.268 . S
C51 Nd41 2.836 . S
C51 C52 1.498 . S
C51 O66 1.258 . S
C51 O67 1.239 . S
C52 C51 1.498 . S
C52 C53 1.366 . S
C52 C57 1.407 . S
C53 C52 1.366 . S
C53 C54 1.392 . S
C53 H76 0.930 . S
C54 C53 1.392 . S
C54 C55 1.398 . S
C54 H77 0.929 . S
C55 C54 1.398 . S
C55 C56 1.352 . S
C56 C55 1.352 . S
C56 C57 1.384 . S
C56 H78 0.930 . S
C57 C52 1.407 . S
C57 C56 1.384 . S
C57 H79 0.929 . S
C58 O68 1.241 . S
C58 O69 1.273 . S
C59 O70 1.251 . S
C59 O71 1.268 . S
O60 Nd40 2.500 . S
O60 C42 1.258 . S
O61 Nd40 2.492 . S
O61 C42 1.239 . S
O62 Nd40 2.487 . S
O62 C49 1.241 . S
O63 Nd40 2.682 . S
O63 Nd41 2.414 . S
O63 C49 1.273 . S
O64 Nd40 2.410 . S
O64 C50 1.251 . S
O65 Nd41 2.424 . S
O65 C50 1.268 . S
O66 Nd41 2.500 . S
O66 C51 1.258 . S
O67 Nd41 2.492 . S
O67 C51 1.239 . S
O68 Nd41 2.487 . S
O68 C58 1.241 . S
O69 Nd40 2.414 . S
O69 Nd41 2.682 . S
O69 C58 1.273 . S
O70 Nd41 2.410 . S
O70 C59 1.251 . S
O71 Nd40 2.424 . S
O71 C59 1.268 . S
H72 C44 0.930 . S
H73 C45 0.929 . S
H74 C47 0.930 . S
H75 C48 0.929 . S
H76 C53 0.930 . S
H77 C54 0.929 . S
H78 C56 0.930 . S
H79 C57 0.929 . S
Nd80 C82 2.836 1_545 S
Nd80 O100 2.500 1_545 S
Nd80 O101 2.492 1_545 S
Nd80 O102 2.487 . S
Nd80 O103 2.682 . S
Nd80 O104 2.410 . S
Nd80 O109 2.414 . S
Nd80 O111 2.424 . S
Nd81 C91 2.836 . S
Nd81 O103 2.414 . S
Nd81 O105 2.424 . S
Nd81 O106 2.500 . S
Nd81 O107 2.492 . S
Nd81 O108 2.487 . S
Nd81 O109 2.682 . S
Nd81 O110 2.410 . S
C82 Nd80 2.836 1_565 S
C82 C83 1.498 . S
C82 O100 1.258 . S
C82 O101 1.239 . S
C83 C82 1.498 . S
C83 C84 1.366 . S
C83 C88 1.407 . S
C84 C83 1.366 . S
C84 C85 1.392 . S
C84 H112 0.930 . S
C85 C84 1.392 . S
C85 C86 1.398 . S
C85 H113 0.929 . S
C86 C85 1.398 . S
C86 C87 1.352 . S
C87 C86 1.352 . S
C87 C88 1.384 . S
C87 H114 0.930 . S
C88 C83 1.407 . S
C88 C87 1.384 . S
C88 H115 0.929 . S
C89 O102 1.241 . S
C89 O103 1.273 . S
C90 O104 1.251 . S
C90 O105 1.268 . S
C91 Nd81 2.836 . S
C91 C92 1.498 . S
C91 O106 1.258 . S
C91 O107 1.239 . S
C92 C91 1.498 . S
C92 C93 1.366 . S
C92 C97 1.407 . S
C93 C92 1.366 . S
C93 C94 1.392 . S
C93 H116 0.930 . S
C94 C93 1.392 . S
C94 C95 1.398 . S
C94 H117 0.929 . S
C95 C94 1.398 . S
C95 C96 1.352 . S
C96 C95 1.352 . S
C96 C97 1.384 . S
C96 H118 0.930 . S
C97 C92 1.407 . S
C97 C96 1.384 . S
C97 H119 0.929 . S
C98 O108 1.241 1_565 S
C98 O109 1.273 1_565 S
C99 O110 1.251 . S
C99 O111 1.268 . S
O100 Nd80 2.500 1_565 S
O100 C82 1.258 . S
O101 Nd80 2.492 1_565 S
O101 C82 1.239 . S
O102 Nd80 2.487 . S
O102 C89 1.241 . S
O103 Nd80 2.682 . S
O103 Nd81 2.414 . S
O103 C89 1.273 . S
O104 Nd80 2.410 . S
O104 C90 1.251 . S
O105 Nd81 2.424 . S
O105 C90 1.268 . S
O106 Nd81 2.500 . S
O106 C91 1.258 . S
O107 Nd81 2.492 . S
O107 C91 1.239 . S
O108 Nd81 2.487 . S
O108 C98 1.241 1_545 S
O109 Nd80 2.414 . S
O109 Nd81 2.682 . S
O109 C98 1.273 1_545 S
O110 Nd81 2.410 . S
O110 C99 1.251 . S
O111 Nd80 2.424 . S
O111 C99 1.268 . S
H112 C84 0.930 . S
H113 C85 0.929 . S
H114 C87 0.930 . S
H115 C88 0.929 . S
H116 C93 0.930 . S
H117 C94 0.929 . S
H118 C96 0.930 . S
H119 C97 0.929 . S
Nd120 C122 2.836 . S
Nd120 O140 2.500 . S
Nd120 O141 2.492 . S
Nd120 O142 2.487 . S
Nd120 O143 2.741 . S
Nd120 O144 2.410 . S
Nd120 O149 2.414 . S
Nd120 O151 2.424 . S
Nd121 C131 2.836 1_455 S
Nd121 O143 2.386 . S
Nd121 O145 2.424 . S
Nd121 O146 2.500 1_455 S
Nd121 O147 2.492 1_455 S
Nd121 O148 2.487 . S
Nd121 O149 2.682 . S
Nd121 O150 2.410 . S
C122 Nd120 2.836 . S
C122 C123 1.498 . S
C122 O140 1.258 . S
C122 O141 1.239 . S
C123 C122 1.498 . S
C123 C124 1.366 . S
C123 C128 1.407 . S
C124 C123 1.366 . S
C124 C125 1.392 . S
C124 H152 0.930 . S
C125 C124 1.392 . S
C125 C126 1.398 . S
C125 H153 0.929 . S
C126 C125 1.398 . S
C126 C127 1.352 . S
C127 C126 1.352 . S
C127 C128 1.384 . S
C127 H154 0.930 . S
C128 C123 1.407 . S
C128 C127 1.384 . S
C128 H155 0.929 . S
C129 O142 1.241 1_655 S
C129 O143 1.290 1_655 S
C130 O144 1.251 . S
C130 O145 1.268 . S
C131 Nd121 2.836 1_655 S
C131 C132 1.498 . S
C131 O146 1.258 . S
C131 O147 1.239 . S
C132 C131 1.498 . S
C132 C133 1.366 . S
C132 C137 1.407 . S
C133 C132 1.366 . S
C133 C134 1.392 . S
C133 H156 0.930 . S
C134 C133 1.392 . S
C134 C135 1.398 . S
C134 H157 0.929 . S
C135 C134 1.398 . S
C135 C136 1.352 . S
C136 C135 1.352 . S
C136 C137 1.384 . S
C136 H158 0.930 . S
C137 C132 1.407 . S
C137 C136 1.384 . S
C137 H159 0.929 . S
C138 O148 1.241 . S
C138 O149 1.273 . S
C139 O150 1.251 . S
C139 O151 1.268 . S
O140 Nd120 2.500 . S
O140 C122 1.258 . S
O141 Nd120 2.492 . S
O141 C122 1.239 . S
O142 Nd120 2.487 . S
O142 C129 1.241 1_455 S
O143 Nd120 2.741 . S
O143 Nd121 2.386 . S
O143 C129 1.290 1_455 S
O144 Nd120 2.410 . S
O144 C130 1.251 . S
O145 Nd121 2.424 . S
O145 C130 1.268 . S
O146 Nd121 2.500 1_655 S
O146 C131 1.258 . S
O147 Nd121 2.492 1_655 S
O147 C131 1.239 . S
O148 Nd121 2.487 . S
O148 C138 1.241 . S
O149 Nd120 2.414 . S
O149 Nd121 2.682 . S
O149 C138 1.273 . S
O150 Nd121 2.410 . S
O150 C139 1.251 . S
O151 Nd120 2.424 . S
O151 C139 1.268 . S
H152 C124 0.930 . S
H153 C125 0.929 . S
H154 C127 0.930 . S
H155 C128 0.929 . S
H156 C133 0.930 . S
H157 C134 0.929 . S
H158 C136 0.930 . S
H159 C137 0.929 . S
Nd160 C162 2.836 . S
Nd160 O180 2.500 . S
Nd160 O181 2.492 . S
Nd160 O182 2.487 . S
Nd160 O183 2.682 . S
Nd160 O184 2.410 . S
Nd160 O189 2.414 . S
Nd160 O191 2.424 . S
Nd161 C171 2.836 . S
Nd161 O183 2.414 . S
Nd161 O185 2.424 . S
Nd161 O186 2.500 . S
Nd161 O187 2.492 . S
Nd161 O188 2.487 . S
Nd161 O189 2.682 . S
Nd161 O190 2.410 . S
C162 Nd160 2.836 . S
C162 C163 1.498 . S
C162 O180 1.258 . S
C162 O181 1.239 . S
C163 C162 1.498 . S
C163 C164 1.366 . S
C163 C168 1.407 . S
C164 C163 1.366 . S
C164 C165 1.392 . S
C164 H192 0.930 . S
C165 C164 1.392 . S
C165 C166 1.398 . S
C165 H193 0.929 . S
C166 C165 1.398 . S
C166 C167 1.352 . S
C167 C166 1.352 . S
C167 C168 1.384 . S
C167 H194 0.930 . S
C168 C163 1.407 . S
C168 C167 1.384 . S
C168 H195 0.929 . S
C169 O182 1.241 . S
C169 O183 1.273 . S
C170 O184 1.251 . S
C170 O185 1.268 . S
C171 Nd161 2.836 . S
C171 C172 1.498 . S
C171 O186 1.258 . S
C171 O187 1.239 . S
C172 C171 1.498 . S
C172 C173 1.366 . S
C172 C177 1.407 . S
C173 C172 1.366 . S
C173 C174 1.392 . S
C173 H196 0.930 . S
C174 C173 1.392 . S
C174 C175 1.398 . S
C174 H197 0.929 . S
C175 C174 1.398 . S
C175 C176 1.352 . S
C176 C175 1.352 . S
C176 C177 1.384 . S
C176 H198 0.930 . S
C177 C172 1.407 . S
C177 C176 1.384 . S
C177 H199 0.929 . S
C178 O188 1.241 . S
C178 O189 1.273 . S
C179 O190 1.251 . S
C179 O191 1.268 . S
O180 Nd160 2.500 . S
O180 C162 1.258 . S
O181 Nd160 2.492 . S
O181 C162 1.239 . S
O182 Nd160 2.487 . S
O182 C169 1.241 . S
O183 Nd160 2.682 . S
O183 Nd161 2.414 . S
O183 C169 1.273 . S
O184 Nd160 2.410 . S
O184 C170 1.251 . S
O185 Nd161 2.424 . S
O185 C170 1.268 . S
O186 Nd161 2.500 . S
O186 C171 1.258 . S
O187 Nd161 2.492 . S
O187 C171 1.239 . S
O188 Nd161 2.487 . S
O188 C178 1.241 . S
O189 Nd160 2.414 . S
O189 Nd161 2.682 . S
O189 C178 1.273 . S
O190 Nd161 2.410 . S
O190 C179 1.251 . S
O191 Nd160 2.424 . S
O191 C179 1.268 . S
H192 C164 0.930 . S
H193 C165 0.929 . S
H194 C167 0.930 . S
H195 C168 0.929 . S
H196 C173 0.930 . S
H197 C174 0.929 . S
H198 C176 0.930 . S
H199 C177 0.929 . S
Nd200 C202 2.836 1_545 S
Nd200 O220 2.500 1_545 S
Nd200 O221 2.492 1_545 S
Nd200 O222 2.487 . S
Nd200 O223 2.682 . S
Nd200 O224 2.410 . S
Nd200 O229 2.414 . S
Nd200 O231 2.424 . S
Nd201 C211 2.836 . S
Nd201 O223 2.414 . S
Nd201 O225 2.424 . S
Nd201 O226 2.500 . S
Nd201 O227 2.492 . S
Nd201 O228 2.487 . S
Nd201 O229 2.682 . S
Nd201 O230 2.410 . S
C202 Nd200 2.836 1_565 S
C202 C203 1.498 . S
C202 O220 1.258 . S
C202 O221 1.239 . S
C203 C202 1.498 . S
C203 C204 1.366 . S
C203 C208 1.407 . S
C204 C203 1.366 . S
C204 C205 1.392 . S
C204 H232 0.930 . S
C205 C204 1.392 . S
C205 C206 1.398 . S
C205 H233 0.929 . S
C206 C205 1.398 . S
C206 C207 1.352 . S
C207 C206 1.352 . S
C207 C208 1.384 . S
C207 H234 0.930 . S
C208 C203 1.407 . S
C208 C207 1.384 . S
C208 H235 0.929 . S
C209 O222 1.241 . S
C209 O223 1.273 . S
C210 O224 1.251 . S
C210 O225 1.268 . S
C211 Nd201 2.836 . S
C211 C212 1.498 . S
C211 O226 1.258 . S
C211 O227 1.239 . S
C212 C211 1.498 . S
C212 C213 1.366 . S
C212 C217 1.407 . S
C213 C212 1.366 . S
C213 C214 1.392 . S
C213 H236 0.930 . S
C214 C213 1.392 . S
C214 C215 1.398 . S
C214 H237 0.929 . S
C215 C214 1.398 . S
C215 C216 1.352 . S
C216 C215 1.352 . S
C216 C217 1.384 . S
C216 H238 0.930 . S
C217 C212 1.407 . S
C217 C216 1.384 . S
C217 H239 0.929 . S
C218 O228 1.241 . S
C218 O229 1.273 . S
C219 O230 1.251 . S
C219 O231 1.268 . S
O220 Nd200 2.500 1_565 S
O220 C202 1.258 . S
O221 Nd200 2.492 1_565 S
O221 C202 1.239 . S
O222 Nd200 2.487 . S
O222 C209 1.241 . S
O223 Nd200 2.682 . S
O223 Nd201 2.414 . S
O223 C209 1.273 . S
O224 Nd200 2.410 . S
O224 C210 1.251 . S
O225 Nd201 2.424 . S
O225 C210 1.268 . S
O226 Nd201 2.500 . S
O226 C211 1.258 . S
O227 Nd201 2.492 . S
O227 C211 1.239 . S
O228 Nd201 2.487 . S
O228 C218 1.241 . S
O229 Nd200 2.414 . S
O229 Nd201 2.682 . S
O229 C218 1.273 . S
O230 Nd201 2.410 . S
O230 C219 1.251 . S
O231 Nd200 2.424 . S
O231 C219 1.268 . S
H232 C204 0.930 . S
H233 C205 0.929 . S
H234 C207 0.930 . S
H235 C208 0.929 . S
H236 C213 0.930 . S
H237 C214 0.929 . S
H238 C216 0.930 . S
H239 C217 0.929 . S
Nd240 C242 2.836 1_554 S
Nd240 O260 2.500 1_554 S
Nd240 O261 2.492 1_554 S
Nd240 O262 2.487 . S
Nd240 O263 2.682 . S
Nd240 O264 2.410 1_554 S
Nd240 O269 2.414 1_554 S
Nd240 O271 2.424 . S
Nd241 C251 2.836 1_556 S
Nd241 O263 2.414 1_556 S
Nd241 O265 2.424 . S
Nd241 O266 2.500 1_556 S
Nd241 O267 2.492 1_556 S
Nd241 O268 2.487 . S
Nd241 O269 2.682 . S
Nd241 O270 2.410 1_556 S
C242 Nd240 2.836 1_556 S
C242 C243 1.498 . S
C242 O260 1.258 . S
C242 O261 1.239 . S
C243 C242 1.498 . S
C243 C244 1.366 . S
C243 C248 1.407 . S
C244 C243 1.366 . S
C244 C245 1.392 . S
C244 H272 0.930 . S
C245 C244 1.392 . S
C245 C246 1.398 . S
C245 H273 0.929 . S
C246 C245 1.398 . S
C246 C247 1.352 . S
C247 C246 1.352 . S
C247 C248 1.384 . S
C247 H274 0.930 . S
C248 C243 1.407 . S
C248 C247 1.384 . S
C248 H275 0.929 . S
C249 O262 1.241 . S
C249 O263 1.273 . S
C250 O264 1.251 . S
C250 O265 1.268 . S
C251 Nd241 2.836 1_554 S
C251 C252 1.498 . S
C251 O266 1.258 . S
C251 O267 1.239 . S
C252 C251 1.498 . S
C252 C253 1.366 . S
C252 C257 1.407 . S
C253 C252 1.366 . S
C253 C254 1.392 . S
C253 H276 0.930 . S
C254 C253 1.392 . S
C254 C255 1.398 . S
C254 H277 0.929 . S
C255 C254 1.398 . S
C255 C256 1.352 . S
C256 C255 1.352 . S
C256 C257 1.384 . S
C256 H278 0.930 . S
C257 C252 1.407 . S
C257 C256 1.384 . S
C257 H279 0.929 . S
C258 O268 1.241 . S
C258 O269 1.273 . S
C259 O270 1.251 . S
C259 O271 1.268 . S
O260 Nd240 2.500 1_556 S
O260 C242 1.258 . S
O261 Nd240 2.492 1_556 S
O261 C242 1.239 . S
O262 Nd240 2.487 . S
O262 C249 1.241 . S
O263 Nd240 2.682 . S
O263 Nd241 2.414 1_554 S
O263 C249 1.273 . S
O264 Nd240 2.410 1_556 S
O264 C250 1.251 . S
O265 Nd241 2.424 . S
O265 C250 1.268 . S
O266 Nd241 2.500 1_554 S
O266 C251 1.258 . S
O267 Nd241 2.492 1_554 S
O267 C251 1.239 . S
O268 Nd241 2.487 . S
O268 C258 1.241 . S
O269 Nd240 2.414 1_556 S
O269 Nd241 2.682 . S
O269 C258 1.273 . S
O270 Nd241 2.410 1_554 S
O270 C259 1.251 . S
O271 Nd240 2.424 . S
O271 C259 1.268 . S
H272 C244 0.930 . S
H273 C245 0.929 . S
H274 C247 0.930 . S
H275 C248 0.929 . S
H276 C253 0.930 . S
H277 C254 0.929 . S
H278 C256 0.930 . S
H279 C257 0.929 . S
Nd280 C282 2.836 1_554 S
Nd280 O300 2.500 1_554 S
Nd280 O301 2.492 1_554 S
Nd280 O302 2.487 . S
Nd280 O303 2.682 . S
Nd280 O304 2.410 1_554 S
Nd280 O309 2.414 1_554 S
Nd280 O311 2.424 . S
Nd281 C291 2.836 1_556 S
Nd281 O303 2.414 1_556 S
Nd281 O305 2.424 . S
Nd281 O306 2.500 1_556 S
Nd281 O307 2.492 1_556 S
Nd281 O308 2.487 . S
Nd281 O309 2.682 . S
Nd281 O310 2.410 1_556 S
C282 Nd280 2.836 1_556 S
C282 C283 1.498 . S
C282 O300 1.258 . S
C282 O301 1.239 . S
C283 C282 1.498 . S
C283 C284 1.366 . S
C283 C288 1.407 . S
C284 C283 1.366 . S
C284 C285 1.392 . S
C284 H312 0.930 . S
C285 C284 1.392 . S
C285 C286 1.398 . S
C285 H313 0.929 . S
C286 C285 1.398 . S
C286 C287 1.352 . S
C287 C286 1.352 . S
C287 C288 1.384 . S
C287 H314 0.930 . S
C288 C283 1.407 . S
C288 C287 1.384 . S
C288 H315 0.929 . S
C289 O302 1.241 . S
C289 O303 1.273 . S
C290 O304 1.251 . S
C290 O305 1.268 . S
C291 Nd281 2.836 1_554 S
C291 C292 1.498 . S
C291 O306 1.258 . S
C291 O307 1.239 . S
C292 C291 1.498 . S
C292 C293 1.366 . S
C292 C297 1.407 . S
C293 C292 1.366 . S
C293 C294 1.392 . S
C293 H316 0.930 . S
C294 C293 1.392 . S
C294 C295 1.398 . S
C294 H317 0.929 . S
C295 C294 1.398 . S
C295 C296 1.352 . S
C296 C295 1.352 . S
C296 C297 1.384 . S
C296 H318 0.930 . S
C297 C292 1.407 . S
C297 C296 1.384 . S
C297 H319 0.929 . S
C298 O308 1.241 . S
C298 O309 1.273 . S
C299 O310 1.251 . S
C299 O311 1.268 . S
O300 Nd280 2.500 1_556 S
O300 C282 1.258 . S
O301 Nd280 2.492 1_556 S
O301 C282 1.239 . S
O302 Nd280 2.487 . S
O302 C289 1.241 . S
O303 Nd280 2.682 . S
O303 Nd281 2.414 1_554 S
O303 C289 1.273 . S
O304 Nd280 2.410 1_556 S
O304 C290 1.251 . S
O305 Nd281 2.424 . S
O305 C290 1.268 . S
O306 Nd281 2.500 1_554 S
O306 C291 1.258 . S
O307 Nd281 2.492 1_554 S
O307 C291 1.239 . S
O308 Nd281 2.487 . S
O308 C298 1.241 . S
O309 Nd280 2.414 1_556 S
O309 Nd281 2.682 . S
O309 C298 1.273 . S
O310 Nd281 2.410 1_554 S
O310 C299 1.251 . S
O311 Nd280 2.424 . S
O311 C299 1.268 . S
H312 C284 0.930 . S
H313 C285 0.929 . S
H314 C287 0.930 . S
H315 C288 0.929 . S
H316 C293 0.930 . S
H317 C294 0.929 . S
H318 C296 0.930 . S
H319 C297 0.929 . S
Nd320 C322 2.836 1_554 S
Nd320 O340 2.500 1_554 S
Nd320 O341 2.492 1_554 S
Nd320 O342 2.487 . S
Nd320 O343 2.682 . S
Nd320 O344 2.410 1_554 S
Nd320 O349 2.414 1_554 S
Nd320 O351 2.424 . S
Nd321 C331 2.836 1_556 S
Nd321 O343 2.414 1_556 S
Nd321 O345 2.424 . S
Nd321 O346 2.500 1_556 S
Nd321 O347 2.492 1_556 S
Nd321 O348 2.487 . S
Nd321 O349 2.682 . S
Nd321 O350 2.410 1_556 S
C322 Nd320 2.836 1_556 S
C322 C323 1.498 . S
C322 O340 1.258 . S
C322 O341 1.239 . S
C323 C322 1.498 . S
C323 C324 1.366 . S
C323 C328 1.407 . S
C324 C323 1.366 . S
C324 C325 1.392 . S
C324 H352 0.930 . S
C325 C324 1.392 . S
C325 C326 1.398 . S
C325 H353 0.929 . S
C326 C325 1.398 . S
C326 C327 1.352 . S
C327 C326 1.352 . S
C327 C328 1.384 . S
C327 H354 0.930 . S
C328 C323 1.407 . S
C328 C327 1.384 . S
C328 H355 0.929 . S
C329 O342 1.241 . S
C329 O343 1.273 . S
C330 O344 1.251 . S
C330 O345 1.268 . S
C331 Nd321 2.836 1_554 S
C331 C332 1.498 . S
C331 O346 1.258 . S
C331 O347 1.239 . S
C332 C331 1.498 . S
C332 C333 1.366 . S
C332 C337 1.407 . S
C333 C332 1.366 . S
C333 C334 1.392 . S
C333 H356 0.930 . S
C334 C333 1.392 . S
C334 C335 1.398 . S
C334 H357 0.929 . S
C335 C334 1.398 . S
C335 C336 1.352 . S
C336 C335 1.352 . S
C336 C337 1.384 . S
C336 H358 0.930 . S
C337 C332 1.407 . S
C337 C336 1.384 . S
C337 H359 0.929 . S
C338 O348 1.241 . S
C338 O349 1.273 . S
C339 O350 1.251 . S
C339 O351 1.268 . S
O340 Nd320 2.500 1_556 S
O340 C322 1.258 . S
O341 Nd320 2.492 1_556 S
O341 C322 1.239 . S
O342 Nd320 2.487 . S
O342 C329 1.241 . S
O343 Nd320 2.682 . S
O343 Nd321 2.414 1_554 S
O343 C329 1.273 . S
O344 Nd320 2.410 1_556 S
O344 C330 1.251 . S
O345 Nd321 2.424 . S
O345 C330 1.268 . S
O346 Nd321 2.500 1_554 S
O346 C331 1.258 . S
O347 Nd321 2.492 1_554 S
O347 C331 1.239 . S
O348 Nd321 2.487 . S
O348 C338 1.241 . S
O349 Nd320 2.414 1_556 S
O349 Nd321 2.682 . S
O349 C338 1.273 . S
O350 Nd321 2.410 1_554 S
O350 C339 1.251 . S
O351 Nd320 2.424 . S
O351 C339 1.268 . S
H352 C324 0.930 . S
H353 C325 0.929 . S
H354 C327 0.930 . S
H355 C328 0.929 . S
H356 C333 0.930 . S
H357 C334 0.929 . S
H358 C336 0.930 . S
H359 C337 0.929 . S
Nd360 C362 2.836 . S
Nd360 O380 2.500 . S
Nd360 O381 2.492 . S
Nd360 O382 2.487 . S
Nd360 O383 2.682 . S
Nd360 O384 2.410 . S
Nd360 O389 2.414 . S
Nd360 O391 2.424 . S
Nd361 C371 2.836 . S
Nd361 O383 2.414 . S
Nd361 O385 2.424 . S
Nd361 O386 2.500 . S
Nd361 O387 2.492 . S
Nd361 O388 2.487 . S
Nd361 O389 2.682 . S
Nd361 O390 2.410 . S
C362 Nd360 2.836 . S
C362 C363 1.498 . S
C362 O380 1.258 . S
C362 O381 1.239 . S
C363 C362 1.498 . S
C363 C364 1.366 . S
C363 C368 1.407 . S
C364 C363 1.366 . S
C364 C365 1.392 . S
C364 H392 0.930 . S
C365 C364 1.392 . S
C365 C366 1.398 . S
C365 H393 0.929 . S
C366 C365 1.398 . S
C366 C367 1.352 . S
C367 C366 1.352 . S
C367 C368 1.384 . S
C367 H394 0.930 . S
C368 C363 1.407 . S
C368 C367 1.384 . S
C368 H395 0.929 . S
C369 O382 1.241 . S
C369 O383 1.273 . S
C370 O384 1.251 . S
C370 O385 1.268 . S
C371 Nd361 2.836 . S
C371 C372 1.498 . S
C371 O386 1.258 . S
C371 O387 1.239 . S
C372 C371 1.498 . S
C372 C373 1.366 . S
C372 C377 1.407 . S
C373 C372 1.366 . S
C373 C374 1.392 . S
C373 H396 0.930 . S
C374 C373 1.392 . S
C374 C375 1.398 . S
C374 H397 0.929 . S
C375 C374 1.398 . S
C375 C376 1.352 . S
C376 C375 1.352 . S
C376 C377 1.384 . S
C376 H398 0.930 . S
C377 C372 1.407 . S
C377 C376 1.384 . S
C377 H399 0.929 . S
C378 O388 1.241 . S
C378 O389 1.273 . S
C379 O390 1.251 . S
C379 O391 1.268 . S
O380 Nd360 2.500 . S
O380 C362 1.258 . S
O381 Nd360 2.492 . S
O381 C362 1.239 . S
O382 Nd360 2.487 . S
O382 C369 1.241 . S
O383 Nd360 2.682 . S
O383 Nd361 2.414 . S
O383 C369 1.273 . S
O384 Nd360 2.410 . S
O384 C370 1.251 . S
O385 Nd361 2.424 . S
O385 C370 1.268 . S
O386 Nd361 2.500 . S
O386 C371 1.258 . S
O387 Nd361 2.492 . S
O387 C371 1.239 . S
O388 Nd361 2.487 . S
O388 C378 1.241 . S
O389 Nd360 2.414 . S
O389 Nd361 2.682 . S
O389 C378 1.273 . S
O390 Nd361 2.410 . S
O390 C379 1.251 . S
O391 Nd360 2.424 . S
O391 C379 1.268 . S
H392 C364 0.930 . S
H393 C365 0.929 . S
H394 C367 0.930 . S
H395 C368 0.929 . S
H396 C373 0.930 . S
H397 C374 0.929 . S
H398 C376 0.930 . S
H399 C377 0.929 . S
Nd400 C402 2.836 . S
Nd400 O420 2.500 . S
Nd400 O421 2.492 . S
Nd400 O422 2.487 . S
Nd400 O423 2.682 . S
Nd400 O424 2.410 . S
Nd400 O429 2.414 . S
Nd400 O431 2.424 . S
Nd401 C411 2.836 . S
Nd401 O423 2.414 . S
Nd401 O425 2.424 . S
Nd401 O426 2.500 . S
Nd401 O427 2.492 . S
Nd401 O428 2.487 . S
Nd401 O429 2.682 . S
Nd401 O430 2.410 . S
C402 Nd400 2.836 . S
C402 C403 1.498 . S
C402 O420 1.258 . S
C402 O421 1.239 . S
C403 C402 1.498 . S
C403 C404 1.366 . S
C403 C408 1.407 . S
C404 C403 1.366 . S
C404 C405 1.392 . S
C404 H432 0.930 . S
C405 C404 1.392 . S
C405 C406 1.398 . S
C405 H433 0.929 . S
C406 C405 1.398 . S
C406 C407 1.352 . S
C407 C406 1.352 . S
C407 C408 1.384 . S
C407 H434 0.930 . S
C408 C403 1.407 . S
C408 C407 1.384 . S
C408 H435 0.929 . S
C409 O422 1.241 . S
C409 O423 1.273 . S
C410 O424 1.251 . S
C410 O425 1.268 . S
C411 Nd401 2.836 . S
C411 C412 1.498 . S
C411 O426 1.258 . S
C411 O427 1.239 . S
C412 C411 1.498 . S
C412 C413 1.366 . S
C412 C417 1.407 . S
C413 C412 1.366 . S
C413 C414 1.392 . S
C413 H436 0.930 . S
C414 C413 1.392 . S
C414 C415 1.398 . S
C414 H437 0.929 . S
C415 C414 1.398 . S
C415 C416 1.352 . S
C416 C415 1.352 . S
C416 C417 1.384 . S
C416 H438 0.930 . S
C417 C412 1.407 . S
C417 C416 1.384 . S
C417 H439 0.929 . S
C418 O428 1.241 . S
C418 O429 1.273 . S
C419 O430 1.251 . S
C419 O431 1.268 . S
O420 Nd400 2.500 . S
O420 C402 1.258 . S
O421 Nd400 2.492 . S
O421 C402 1.239 . S
O422 Nd400 2.487 . S
O422 C409 1.241 . S
O423 Nd400 2.682 . S
O423 Nd401 2.414 . S
O423 C409 1.273 . S
O424 Nd400 2.410 . S
O424 C410 1.251 . S
O425 Nd401 2.424 . S
O425 C410 1.268 . S
O426 Nd401 2.500 . S
O426 C411 1.258 . S
O427 Nd401 2.492 . S
O427 C411 1.239 . S
O428 Nd401 2.487 . S
O428 C418 1.241 . S
O429 Nd400 2.414 . S
O429 Nd401 2.682 . S
O429 C418 1.273 . S
O430 Nd401 2.410 . S
O430 C419 1.251 . S
O431 Nd400 2.424 . S
O431 C419 1.268 . S
H432 C404 0.930 . S
H433 C405 0.929 . S
H434 C407 0.930 . S
H435 C408 0.929 . S
H436 C413 0.930 . S
H437 C414 0.929 . S
H438 C416 0.930 . S
H439 C417 0.929 . S
Nd440 C442 2.836 . S
Nd440 O460 2.500 . S
Nd440 O461 2.492 . S
Nd440 O462 2.487 . S
Nd440 O463 2.682 . S
Nd440 O464 2.410 . S
Nd440 O469 2.414 . S
Nd440 O471 2.424 . S
Nd441 C451 2.836 . S
Nd441 O463 2.414 . S
Nd441 O465 2.424 . S
Nd441 O466 2.500 . S
Nd441 O467 2.492 . S
Nd441 O468 2.487 . S
Nd441 O469 2.682 . S
Nd441 O470 2.410 . S
C442 Nd440 2.836 . S
C442 C443 1.498 . S
C442 O460 1.258 . S
C442 O461 1.239 . S
C443 C442 1.498 . S
C443 C444 1.366 . S
C443 C448 1.407 . S
C444 C443 1.366 . S
C444 C445 1.392 . S
C444 H472 0.930 . S
C445 C444 1.392 . S
C445 C446 1.398 . S
C445 H473 0.929 . S
C446 C445 1.398 . S
C446 C447 1.352 . S
C447 C446 1.352 . S
C447 C448 1.384 . S
C447 H474 0.930 . S
C448 C443 1.407 . S
C448 C447 1.384 . S
C448 H475 0.929 . S
C449 O462 1.241 . S
C449 O463 1.273 . S
C450 O464 1.251 . S
C450 O465 1.268 . S
C451 Nd441 2.836 . S
C451 C452 1.498 . S
C451 O466 1.258 . S
C451 O467 1.239 . S
C452 C451 1.498 . S
C452 C453 1.366 . S
C452 C457 1.407 . S
C453 C452 1.366 . S
C453 C454 1.392 . S
C453 H476 0.930 . S
C454 C453 1.392 . S
C454 C455 1.398 . S
C454 H477 0.929 . S
C455 C454 1.398 . S
C455 C456 1.352 . S
C456 C455 1.352 . S
C456 C457 1.384 . S
C456 H478 0.930 . S
C457 C452 1.407 . S
C457 C456 1.384 . S
C457 H479 0.929 . S
C458 O468 1.241 . S
C458 O469 1.273 . S
C459 O470 1.251 . S
C459 O471 1.268 . S
O460 Nd440 2.500 . S
O460 C442 1.258 . S
O461 Nd440 2.492 . S
O461 C442 1.239 . S
O462 Nd440 2.487 . S
O462 C449 1.241 . S
O463 Nd440 2.682 . S
O463 Nd441 2.414 . S
O463 C449 1.273 . S
O464 Nd440 2.410 . S
O464 C450 1.251 . S
O465 Nd441 2.424 . S
O465 C450 1.268 . S
O466 Nd441 2.500 . S
O466 C451 1.258 . S
O467 Nd441 2.492 . S
O467 C451 1.239 . S
O468 Nd441 2.487 . S
O468 C458 1.241 . S
O469 Nd440 2.414 . S
O469 Nd441 2.682 . S
O469 C458 1.273 . S
O470 Nd441 2.410 . S
O470 C459 1.251 . S
O471 Nd440 2.424 . S
O471 C459 1.268 . S
H472 C444 0.930 . S
H473 C445 0.929 . S
H474 C447 0.930 . S
H475 C448 0.929 . S
H476 C453 0.930 . S
H477 C454 0.929 . S
H478 C456 0.930 . S
H479 C457 0.929 . S
Nd480 C482 2.836 . S
Nd480 O500 2.500 . S
Nd480 O501 2.492 . S
Nd480 O502 2.487 . S
Nd480 O503 2.682 . S
Nd480 O504 2.410 . S
Nd480 O509 2.414 . S
Nd480 O511 2.424 . S
Nd481 C491 2.836 . S
Nd481 O503 2.414 . S
Nd481 O505 2.424 . S
Nd481 O506 2.500 . S
Nd481 O507 2.492 . S
Nd481 O508 2.487 . S
Nd481 O509 2.682 . S
Nd481 O510 2.410 . S
C482 Nd480 2.836 . S
C482 C483 1.498 . S
C482 O500 1.258 . S
C482 O501 1.239 . S
C483 C482 1.498 . S
C483 C484 1.366 . S
C483 C488 1.407 . S
C484 C483 1.366 . S
C484 C485 1.392 . S
C484 H512 0.930 . S
C485 C484 1.392 . S
C485 C486 1.398 . S
C485 H513 0.929 . S
C486 C485 1.398 . S
C486 C487 1.352 . S
C487 C486 1.352 . S
C487 C488 1.384 . S
C487 H514 0.930 . S
C488 C483 1.407 . S
C488 C487 1.384 . S
C488 H515 0.929 . S
C489 O502 1.241 . S
C489 O503 1.273 . S
C490 O504 1.251 . S
C490 O505 1.268 . S
C491 Nd481 2.836 . S
C491 C492 1.498 . S
C491 O506 1.258 . S
C491 O507 1.239 . S
C492 C491 1.498 . S
C492 C493 1.366 . S
C492 C497 1.407 . S
C493 C492 1.366 . S
C493 C494 1.392 . S
C493 H516 0.930 . S
C494 C493 1.392 . S
C494 C495 1.398 . S
C494 H517 0.929 . S
C495 C494 1.398 . S
C495 C496 1.352 . S
C496 C495 1.352 . S
C496 C497 1.384 . S
C496 H518 0.930 . S
C497 C492 1.407 . S
C497 C496 1.384 . S
C497 H519 0.929 . S
C498 O508 1.241 . S
C498 O509 1.273 . S
C499 O510 1.251 . S
C499 O511 1.268 . S
O500 Nd480 2.500 . S
O500 C482 1.258 . S
O501 Nd480 2.492 . S
O501 C482 1.239 . S
O502 Nd480 2.487 . S
O502 C489 1.241 . S
O503 Nd480 2.682 . S
O503 Nd481 2.414 . S
O503 C489 1.273 . S
O504 Nd480 2.410 . S
O504 C490 1.251 . S
O505 Nd481 2.424 . S
O505 C490 1.268 . S
O506 Nd481 2.500 . S
O506 C491 1.258 . S
O507 Nd481 2.492 . S
O507 C491 1.239 . S
O508 Nd481 2.487 . S
O508 C498 1.241 . S
O509 Nd480 2.414 . S
O509 Nd481 2.682 . S
O509 C498 1.273 . S
O510 Nd481 2.410 . S
O510 C499 1.251 . S
O511 Nd480 2.424 . S
O511 C499 1.268 . S
H512 C484 0.930 . S
H513 C485 0.929 . S
H514 C487 0.930 . S
H515 C488 0.929 . S
H516 C493 0.930 . S
H517 C494 0.929 . S
H518 C496 0.930 . S
H519 C497 0.929 . S
Nd520 C522 2.836 . S
Nd520 O540 2.500 . S
Nd520 O541 2.492 . S
Nd520 O542 2.487 . S
Nd520 O543 2.682 . S
Nd520 O544 2.410 . S
Nd520 O549 2.414 . S
Nd520 O551 2.424 . S
Nd521 C531 2.836 . S
Nd521 O543 2.414 . S
Nd521 O545 2.424 . S
Nd521 O546 2.500 . S
Nd521 O547 2.492 . S
Nd521 O548 2.487 . S
Nd521 O549 2.682 . S
Nd521 O550 2.410 . S
C522 Nd520 2.836 . S
C522 C523 1.498 . S
C522 O540 1.258 . S
C522 O541 1.239 . S
C523 C522 1.498 . S
C523 C524 1.366 . S
C523 C528 1.407 . S
C524 C523 1.366 . S
C524 C525 1.392 . S
C524 H552 0.930 . S
C525 C524 1.392 . S
C525 C526 1.398 . S
C525 H553 0.929 . S
C526 C525 1.398 . S
C526 C527 1.352 . S
C527 C526 1.352 . S
C527 C528 1.384 . S
C527 H554 0.930 . S
C528 C523 1.407 . S
C528 C527 1.384 . S
C528 H555 0.929 . S
C529 O542 1.241 . S
C529 O543 1.273 . S
C530 O544 1.251 . S
C530 O545 1.268 . S
C531 Nd521 2.836 . S
C531 C532 1.498 . S
C531 O546 1.258 . S
C531 O547 1.239 . S
C532 C531 1.498 . S
C532 C533 1.366 . S
C532 C537 1.407 . S
C533 C532 1.366 . S
C533 C534 1.392 . S
C533 H556 0.930 . S
C534 C533 1.392 . S
C534 C535 1.398 . S
C534 H557 0.929 . S
C535 C534 1.398 . S
C535 C536 1.352 . S
C536 C535 1.352 . S
C536 C537 1.384 . S
C536 H558 0.930 . S
C537 C532 1.407 . S
C537 C536 1.384 . S
C537 H559 0.929 . S
C538 O548 1.241 . S
C538 O549 1.273 . S
C539 O550 1.251 . S
C539 O551 1.268 . S
O540 Nd520 2.500 . S
O540 C522 1.258 . S
O541 Nd520 2.492 . S
O541 C522 1.239 . S
O542 Nd520 2.487 . S
O542 C529 1.241 . S
O543 Nd520 2.682 . S
O543 Nd521 2.414 . S
O543 C529 1.273 . S
O544 Nd520 2.410 . S
O544 C530 1.251 . S
O545 Nd521 2.424 . S
O545 C530 1.268 . S
O546 Nd521 2.500 . S
O546 C531 1.258 . S
O547 Nd521 2.492 . S
O547 C531 1.239 . S
O548 Nd521 2.487 . S
O548 C538 1.241 . S
O549 Nd520 2.414 . S
O549 Nd521 2.682 . S
O549 C538 1.273 . S
O550 Nd521 2.410 . S
O550 C539 1.251 . S
O551 Nd520 2.424 . S
O551 C539 1.268 . S
H552 C524 0.930 . S
H553 C525 0.929 . S
H554 C527 0.930 . S
H555 C528 0.929 . S
H556 C533 0.930 . S
H557 C534 0.929 . S
H558 C536 0.930 . S
H559 C537 0.929 . S
Nd560 C562 2.836 . S
Nd560 O580 2.500 . S
Nd560 O581 2.492 . S
Nd560 O582 2.487 . S
Nd560 O583 2.682 . S
Nd560 O584 2.410 . S
Nd560 O589 2.414 . S
Nd560 O591 2.424 . S
Nd561 C571 2.836 . S
Nd561 O583 2.414 . S
Nd561 O585 2.424 . S
Nd561 O586 2.500 . S
Nd561 O587 2.492 . S
Nd561 O588 2.487 . S
Nd561 O589 2.682 . S
Nd561 O590 2.410 . S
C562 Nd560 2.836 . S
C562 C563 1.498 . S
C562 O580 1.258 . S
C562 O581 1.239 . S
C563 C562 1.498 . S
C563 C564 1.366 . S
C563 C568 1.407 . S
C564 C563 1.366 . S
C564 C565 1.392 . S
C564 H592 0.930 . S
C565 C564 1.392 . S
C565 C566 1.398 . S
C565 H593 0.929 . S
C566 C565 1.398 . S
C566 C567 1.352 . S
C567 C566 1.352 . S
C567 C568 1.384 . S
C567 H594 0.930 . S
C568 C563 1.407 . S
C568 C567 1.384 . S
C568 H595 0.929 . S
C569 O582 1.241 . S
C569 O583 1.273 . S
C570 O584 1.251 . S
C570 O585 1.268 . S
C571 Nd561 2.836 . S
C571 C572 1.498 . S
C571 O586 1.258 . S
C571 O587 1.239 . S
C572 C571 1.498 . S
C572 C573 1.366 . S
C572 C577 1.407 . S
C573 C572 1.366 . S
C573 C574 1.392 . S
C573 H596 0.930 . S
C574 C573 1.392 . S
C574 C575 1.398 . S
C574 H597 0.929 . S
C575 C574 1.398 . S
C575 C576 1.352 . S
C576 C575 1.352 . S
C576 C577 1.384 . S
C576 H598 0.930 . S
C577 C572 1.407 . S
C577 C576 1.384 . S
C577 H599 0.929 . S
C578 O588 1.241 . S
C578 O589 1.273 . S
C579 O590 1.251 . S
C579 O591 1.268 . S
O580 Nd560 2.500 . S
O580 C562 1.258 . S
O581 Nd560 2.492 . S
O581 C562 1.239 . S
O582 Nd560 2.487 . S
O582 C569 1.241 . S
O583 Nd560 2.682 . S
O583 Nd561 2.414 . S
O583 C569 1.273 . S
O584 Nd560 2.410 . S
O584 C570 1.251 . S
O585 Nd561 2.424 . S
O585 C570 1.268 . S
O586 Nd561 2.500 . S
O586 C571 1.258 . S
O587 Nd561 2.492 . S
O587 C571 1.239 . S
O588 Nd561 2.487 . S
O588 C578 1.241 . S
O589 Nd560 2.414 . S
O589 Nd561 2.682 . S
O589 C578 1.273 . S
O590 Nd561 2.410 . S
O590 C579 1.251 . S
O591 Nd560 2.424 . S
O591 C579 1.268 . S
H592 C564 0.930 . S
H593 C565 0.929 . S
H594 C567 0.930 . S
H595 C568 0.929 . S
H596 C573 0.930 . S
H597 C574 0.929 . S
H598 C576 0.930 . S
H599 C577 0.929 . S
Nd600 C602 2.836 1_554 S
Nd600 O620 2.500 1_554 S
Nd600 O621 2.492 1_554 S
Nd600 O622 2.487 . S
Nd600 O623 2.682 . S
Nd600 O624 2.410 1_554 S
Nd600 O629 2.414 1_554 S
Nd600 O631 2.424 . S
Nd601 C611 2.836 1_556 S
Nd601 O623 2.414 1_556 S
Nd601 O625 2.424 . S
Nd601 O626 2.500 1_556 S
Nd601 O627 2.492 1_556 S
Nd601 O628 2.487 . S
Nd601 O629 2.682 . S
Nd601 O630 2.410 1_556 S
C602 Nd600 2.836 1_556 S
C602 C603 1.498 . S
C602 O620 1.258 . S
C602 O621 1.239 . S
C603 C602 1.498 . S
C603 C604 1.366 . S
C603 C608 1.407 . S
C604 C603 1.366 . S
C604 C605 1.392 . S
C604 H632 0.930 . S
C605 C604 1.392 . S
C605 C606 1.398 . S
C605 H633 0.929 . S
C606 C605 1.398 . S
C606 C607 1.352 . S
C607 C606 1.352 . S
C607 C608 1.384 . S
C607 H634 0.930 . S
C608 C603 1.407 . S
C608 C607 1.384 . S
C608 H635 0.929 . S
C609 O622 1.241 . S
C609 O623 1.273 . S
C610 O624 1.251 . S
C610 O625 1.268 . S
C611 Nd601 2.836 1_554 S
C611 C612 1.498 . S
C611 O626 1.258 . S
C611 O627 1.239 . S
C612 C611 1.498 . S
C612 C613 1.366 . S
C612 C617 1.407 . S
C613 C612 1.366 . S
C613 C614 1.392 . S
C613 H636 0.930 . S
C614 C613 1.392 . S
C614 C615 1.398 . S
C614 H637 0.929 . S
C615 C614 1.398 . S
C615 C616 1.352 . S
C616 C615 1.352 . S
C616 C617 1.384 . S
C616 H638 0.930 . S
C617 C612 1.407 . S
C617 C616 1.384 . S
C617 H639 0.929 . S
C618 O628 1.241 . S
C618 O629 1.273 . S
C619 O630 1.251 . S
C619 O631 1.268 . S
O620 Nd600 2.500 1_556 S
O620 C602 1.258 . S
O621 Nd600 2.492 1_556 S
O621 C602 1.239 . S
O622 Nd600 2.487 . S
O622 C609 1.241 . S
O623 Nd600 2.682 . S
O623 Nd601 2.414 1_554 S
O623 C609 1.273 . S
O624 Nd600 2.410 1_556 S
O624 C610 1.251 . S
O625 Nd601 2.424 . S
O625 C610 1.268 . S
O626 Nd601 2.500 1_554 S
O626 C611 1.258 . S
O627 Nd601 2.492 1_554 S
O627 C611 1.239 . S
O628 Nd601 2.487 . S
O628 C618 1.241 . S
O629 Nd600 2.414 1_556 S
O629 Nd601 2.682 . S
O629 C618 1.273 . S
O630 Nd601 2.410 1_554 S
O630 C619 1.251 . S
O631 Nd600 2.424 . S
O631 C619 1.268 . S
H632 C604 0.930 . S
H633 C605 0.929 . S
H634 C607 0.930 . S
H635 C608 0.929 . S
H636 C613 0.930 . S
H637 C614 0.929 . S
H638 C616 0.930 . S
H639 C617 0.929 . S
Nd640 C642 2.836 1_554 S
Nd640 O660 2.500 1_554 S
Nd640 O661 2.492 1_554 S
Nd640 O662 2.487 . S
Nd640 O663 2.682 . S
Nd640 O664 2.410 1_554 S
Nd640 O669 2.414 1_554 S
Nd640 O671 2.424 . S
Nd641 C651 2.836 1_556 S
Nd641 O663 2.414 1_556 S
Nd641 O665 2.424 . S
Nd641 O666 2.500 1_556 S
Nd641 O667 2.492 1_556 S
Nd641 O668 2.487 . S
Nd641 O669 2.682 . S
Nd641 O670 2.410 1_556 S
C642 Nd640 2.836 1_556 S
C642 C643 1.498 . S
C642 O660 1.258 . S
C642 O661 1.239 . S
C643 C642 1.498 . S
C643 C644 1.366 . S
C643 C648 1.407 . S
C644 C643 1.366 . S
C644 C645 1.392 . S
C644 H672 0.930 . S
C645 C644 1.392 . S
C645 C646 1.398 . S
C645 H673 0.929 . S
C646 C645 1.398 . S
C646 C647 1.352 . S
C647 C646 1.352 . S
C647 C648 1.384 . S
C647 H674 0.930 . S
C648 C643 1.407 . S
C648 C647 1.384 . S
C648 H675 0.929 . S
C649 O662 1.241 . S
C649 O663 1.273 . S
C650 O664 1.251 . S
C650 O665 1.268 . S
C651 Nd641 2.836 1_554 S
C651 C652 1.498 . S
C651 O666 1.258 . S
C651 O667 1.239 . S
C652 C651 1.498 . S
C652 C653 1.366 . S
C652 C657 1.407 . S
C653 C652 1.366 . S
C653 C654 1.392 . S
C653 H676 0.930 . S
C654 C653 1.392 . S
C654 C655 1.398 . S
C654 H677 0.929 . S
C655 C654 1.398 . S
C655 C656 1.352 . S
C656 C655 1.352 . S
C656 C657 1.384 . S
C656 H678 0.930 . S
C657 C652 1.407 . S
C657 C656 1.384 . S
C657 H679 0.929 . S
C658 O668 1.241 . S
C658 O669 1.273 . S
C659 O670 1.251 . S
C659 O671 1.268 . S
O660 Nd640 2.500 1_556 S
O660 C642 1.258 . S
O661 Nd640 2.492 1_556 S
O661 C642 1.239 . S
O662 Nd640 2.487 . S
O662 C649 1.241 . S
O663 Nd640 2.682 . S
O663 Nd641 2.414 1_554 S
O663 C649 1.273 . S
O664 Nd640 2.410 1_556 S
O664 C650 1.251 . S
O665 Nd641 2.424 . S
O665 C650 1.268 . S
O666 Nd641 2.500 1_554 S
O666 C651 1.258 . S
O667 Nd641 2.492 1_554 S
O667 C651 1.239 . S
O668 Nd641 2.487 . S
O668 C658 1.241 . S
O669 Nd640 2.414 1_556 S
O669 Nd641 2.682 . S
O669 C658 1.273 . S
O670 Nd641 2.410 1_554 S
O670 C659 1.251 . S
O671 Nd640 2.424 . S
O671 C659 1.268 . S
H672 C644 0.930 . S
H673 C645 0.929 . S
H674 C647 0.930 . S
H675 C648 0.929 . S
H676 C653 0.930 . S
H677 C654 0.929 . S
H678 C656 0.930 . S
H679 C657 0.929 . S
Nd680 C682 2.836 1_554 S
Nd680 O700 2.500 1_554 S
Nd680 O701 2.492 1_554 S
Nd680 O702 2.487 . S
Nd680 O703 2.682 . S
Nd680 O704 2.410 1_554 S
Nd680 O709 2.414 1_554 S
Nd680 O711 2.424 . S
Nd681 C691 2.836 1_556 S
Nd681 O703 2.414 1_556 S
Nd681 O705 2.424 . S
Nd681 O706 2.500 1_556 S
Nd681 O707 2.492 1_556 S
Nd681 O708 2.487 . S
Nd681 O709 2.682 . S
Nd681 O710 2.410 1_556 S
C682 Nd680 2.836 1_556 S
C682 C683 1.498 . S
C682 O700 1.258 . S
C682 O701 1.239 . S
C683 C682 1.498 . S
C683 C684 1.366 . S
C683 C688 1.407 . S
C684 C683 1.366 . S
C684 C685 1.392 . S
C684 H712 0.930 . S
C685 C684 1.392 . S
C685 C686 1.398 . S
C685 H713 0.929 . S
C686 C685 1.398 . S
C686 C687 1.352 . S
C687 C686 1.352 . S
C687 C688 1.384 . S
C687 H714 0.930 . S
C688 C683 1.407 . S
C688 C687 1.384 . S
C688 H715 0.929 . S
C689 O702 1.241 . S
C689 O703 1.273 . S
C690 O704 1.251 . S
C690 O705 1.268 . S
C691 Nd681 2.836 1_554 S
C691 C692 1.498 . S
C691 O706 1.258 . S
C691 O707 1.239 . S
C692 C691 1.498 . S
C692 C693 1.366 . S
C692 C697 1.407 . S
C693 C692 1.366 . S
C693 C694 1.392 . S
C693 H716 0.930 . S
C694 C693 1.392 . S
C694 C695 1.398 . S
C694 H717 0.929 . S
C695 C694 1.398 . S
C695 C696 1.352 . S
C696 C695 1.352 . S
C696 C697 1.384 . S
C696 H718 0.930 . S
C697 C692 1.407 . S
C697 C696 1.384 . S
C697 H719 0.929 . S
C698 O708 1.241 . S
C698 O709 1.273 . S
C699 O710 1.251 . S
C699 O711 1.268 . S
O700 Nd680 2.500 1_556 S
O700 C682 1.258 . S
O701 Nd680 2.492 1_556 S
O701 C682 1.239 . S
O702 Nd680 2.487 . S
O702 C689 1.241 . S
O703 Nd680 2.682 . S
O703 Nd681 2.414 1_554 S
O703 C689 1.273 . S
O704 Nd680 2.410 1_556 S
O704 C690 1.251 . S
O705 Nd681 2.424 . S
O705 C690 1.268 . S
O706 Nd681 2.500 1_554 S
O706 C691 1.258 . S
O707 Nd681 2.492 1_554 S
O707 C691 1.239 . S
O708 Nd681 2.487 . S
O708 C698 1.241 . S
O709 Nd680 2.414 1_556 S
O709 Nd681 2.682 . S
O709 C698 1.273 . S
O710 Nd681 2.410 1_554 S
O710 C699 1.251 . S
O711 Nd680 2.424 . S
O711 C699 1.268 . S
H712 C684 0.930 . S
H713 C685 0.929 . S
H714 C687 0.930 . S
H715 C688 0.929 . S
H716 C693 0.930 . S
H717 C694 0.929 . S
H718 C696 0.930 . S
H719 C697 0.929 . S
H720 C732 0.930 . S
H721 C734 0.930 . S
H722 C735 0.930 . S
H723 C739 0.959 . S
H724 C739 0.959 . S
H725 C739 0.961 . S
H726 C740 0.960 . S
H727 C740 0.961 . S
H728 C740 0.959 . S
H729 C743 0.929 . S
H730 C744 0.931 . S
H731 C746 0.930 . S
C732 H720 0.930 . S
C732 C733 1.399 . S
C732 C737 1.399 . S
C733 C732 1.399 . S
C733 C734 1.376 . S
C734 H721 0.930 . S
C734 C733 1.376 . S
C734 C735 1.388 . S
C735 H722 0.930 . S
C735 C734 1.388 . S
C735 C736 1.390 . S
C736 C735 1.390 . S
C736 C737 1.394 . S
C736 C742 1.465 . S
C737 C732 1.399 . S
C737 C736 1.394 . S
C737 C738 1.516 . S
C738 C737 1.516 . S
C738 C739 1.502 . S
C738 C740 1.561 . S
C738 C741 1.526 . S
C739 H723 0.959 . S
C739 H724 0.959 . S
C739 H725 0.961 . S
C739 C738 1.502 . S
C740 H726 0.960 . S
C740 H727 0.961 . S
C740 H728 0.959 . S
C740 C738 1.561 . S
C741 C738 1.526 . S
C741 C742 1.396 . S
C741 C746 1.390 . S
C742 C736 1.465 . S
C742 C741 1.396 . S
C742 C743 1.399 . S
C743 H729 0.929 . S
C743 C742 1.399 . S
C743 C744 1.385 . S
C744 H730 0.931 . S
C744 C743 1.385 . S
C744 C745 1.389 . S
C745 C744 1.389 . S
C745 C746 1.387 . S
C746 H731 0.930 . S
C746 C741 1.390 . S
C746 C745 1.387 . S
H747 C759 0.930 . S
H748 C761 0.930 . S
H749 C762 0.930 . S
H750 C766 0.959 . S
H751 C766 0.959 . S
H752 C766 0.961 . S
H753 C767 0.960 . S
H754 C767 0.961 . S
H755 C767 0.959 . S
H756 C770 0.929 . S
H757 C771 0.931 . S
H758 C773 0.930 . S
C759 H747 0.930 . S
C759 C760 1.399 . S
C759 C764 1.399 . S
C760 C759 1.399 . S
C760 C761 1.376 . S
C761 H748 0.930 . S
C761 C760 1.376 . S
C761 C762 1.388 . S
C762 H749 0.930 . S
C762 C761 1.388 . S
C762 C763 1.390 . S
C763 C762 1.390 . S
C763 C764 1.394 . S
C763 C769 1.465 . S
C764 C759 1.399 . S
C764 C763 1.394 . S
C764 C765 1.516 . S
C765 C764 1.516 . S
C765 C766 1.502 . S
C765 C767 1.561 . S
C765 C768 1.526 . S
C766 H750 0.959 . S
C766 H751 0.959 . S
C766 H752 0.961 . S
C766 C765 1.502 . S
C767 H753 0.960 . S
C767 H754 0.961 . S
C767 H755 0.959 . S
C767 C765 1.561 . S
C768 C765 1.526 . S
C768 C769 1.396 . S
C768 C773 1.390 . S
C769 C763 1.465 . S
C769 C768 1.396 . S
C769 C770 1.399 . S
C770 H756 0.929 . S
C770 C769 1.399 . S
C770 C771 1.385 . S
C771 H757 0.931 . S
C771 C770 1.385 . S
C771 C772 1.389 . S
C772 C771 1.389 . S
C772 C773 1.387 . S
C773 H758 0.930 . S
C773 C768 1.390 . S
C773 C772 1.387 . S
H774 C786 0.930 . S
H775 C788 0.930 . S
H776 C789 0.930 . S
H777 C793 0.959 . S
H778 C793 0.959 . S
H779 C793 0.961 . S
H780 C794 0.960 . S
H781 C794 0.961 . S
H782 C794 0.959 . S
H783 C797 0.929 . S
H784 C798 0.931 . S
H785 C800 0.930 . S
C786 H774 0.930 . S
C786 C787 1.399 . S
C786 C791 1.399 . S
C787 C786 1.399 . S
C787 C788 1.376 . S
C788 H775 0.930 . S
C788 C787 1.376 . S
C788 C789 1.388 . S
C789 H776 0.930 . S
C789 C788 1.388 . S
C789 C790 1.390 . S
C790 C789 1.390 . S
C790 C791 1.394 . S
C790 C796 1.465 . S
C791 C786 1.399 . S
C791 C790 1.394 . S
C791 C792 1.516 . S
C792 C791 1.516 . S
C792 C793 1.502 . S
C792 C794 1.561 . S
C792 C795 1.526 . S
C793 H777 0.959 . S
C793 H778 0.959 . S
C793 H779 0.961 . S
C793 C792 1.502 . S
C794 H780 0.960 . S
C794 H781 0.961 . S
C794 H782 0.959 . S
C794 C792 1.561 . S
C795 C792 1.526 . S
C795 C796 1.396 . S
C795 C800 1.390 . S
C796 C790 1.465 . S
C796 C795 1.396 . S
C796 C797 1.399 . S
C797 H783 0.929 . S
C797 C796 1.399 . S
C797 C798 1.385 . S
C798 H784 0.931 . S
C798 C797 1.385 . S
C798 C799 1.389 . S
C799 C798 1.389 . S
C799 C800 1.387 . S
C800 H785 0.930 . S
C800 C795 1.390 . S
C800 C799 1.387 . S
H801 C813 0.930 . S
H802 C815 0.930 . S
H803 C816 0.930 . S
H804 C820 0.959 . S
H805 C820 0.959 . S
H806 C820 0.961 . S
H807 C821 0.960 . S
H808 C821 0.961 . S
H809 C821 0.959 . S
H810 C824 0.929 . S
H811 C825 0.931 . S
H812 C827 0.930 . S
C813 H801 0.930 . S
C813 C814 1.399 . S
C813 C818 1.399 . S
C814 C813 1.399 . S
C814 C815 1.376 1_556 S
C815 H802 0.930 . S
C815 C814 1.376 1_554 S
C815 C816 1.388 . S
C816 H803 0.930 . S
C816 C815 1.388 . S
C816 C817 1.390 1_554 S
C817 C816 1.390 1_556 S
C817 C818 1.394 . S
C817 C823 1.465 . S
C818 C813 1.399 . S
C818 C817 1.394 . S
C818 C819 1.516 . S
C819 C818 1.516 . S
C819 C820 1.502 . S
C819 C821 1.561 . S
C819 C822 1.526 . S
C820 H804 0.959 . S
C820 H805 0.959 . S
C820 H806 0.961 . S
C820 C819 1.502 . S
C821 H807 0.960 . S
C821 H808 0.961 . S
C821 H809 0.959 . S
C821 C819 1.561 . S
C822 C819 1.526 . S
C822 C823 1.396 . S
C822 C827 1.390 . S
C823 C817 1.465 . S
C823 C822 1.396 . S
C823 C824 1.399 1_556 S
C824 H810 0.929 . S
C824 C823 1.399 1_554 S
C824 C825 1.385 . S
C825 H811 0.931 . S
C825 C824 1.385 . S
C825 C826 1.389 1_554 S
C826 C825 1.389 1_556 S
C826 C827 1.387 . S
C827 H812 0.930 . S
C827 C822 1.390 . S
C827 C826 1.387 . S
H828 C840 0.930 . S
H829 C842 0.930 . S
H830 C843 0.930 . S
H831 C847 0.959 1_556 S
H832 C847 0.959 . S
H833 C847 0.961 . S
H834 C848 0.960 . S
H835 C848 0.961 . S
H836 C848 0.959 . S
H837 C851 0.929 . S
H838 C852 0.931 . S
H839 C854 0.930 1_554 S
C840 H828 0.930 . S
C840 C841 1.399 1_554 S
C840 C845 1.399 1_554 S
C841 C840 1.399 1_556 S
C841 C842 1.376 . S
C842 H829 0.930 . S
C842 C841 1.376 . S
C842 C843 1.388 . S
C843 H830 0.930 . S
C843 C842 1.388 . S
C843 C844 1.390 . S
C844 C843 1.390 . S
C844 C845 1.394 . S
C844 C850 1.465 . S
C845 C840 1.399 1_556 S
C845 C844 1.394 . S
C845 C846 1.516 1_556 S
C846 C845 1.516 1_554 S
C846 C847 1.502 . S
C846 C848 1.561 . S
C846 C849 1.526 1_554 S
C847 H831 0.959 1_554 S
C847 H832 0.959 . S
C847 H833 0.961 . S
C847 C846 1.502 . S
C848 H834 0.960 . S
C848 H835 0.961 . S
C848 H836 0.959 . S
C848 C846 1.561 . S
C849 C846 1.526 1_556 S
C849 C850 1.396 . S
C849 C854 1.390 . S
C850 C844 1.465 . S
C850 C849 1.396 . S
C850 C851 1.399 . S
C851 H837 0.929 . S
C851 C850 1.399 . S
C851 C852 1.385 . S
C852 H838 0.931 . S
C852 C851 1.385 . S
C852 C853 1.389 . S
C853 C852 1.389 . S
C853 C854 1.387 . S
C854 H839 0.930 1_556 S
C854 C849 1.390 . S
C854 C853 1.387 . S
H855 C867 0.922 1_554 S
H856 C869 0.930 . S
H857 C870 0.930 . S
H858 C874 0.959 . S
H859 C874 0.959 . S
H860 C874 0.961 . S
H861 C875 0.960 . S
H862 C875 0.961 . S
H863 C875 0.959 . S
H864 C878 0.929 . S
H865 C879 0.931 . S
H866 C881 0.930 . S
C867 H855 0.922 1_556 S
C867 C868 1.406 . S
C867 C872 1.400 . S
C868 C867 1.406 . S
C868 C869 1.376 . S
C869 H856 0.930 . S
C869 C868 1.376 . S
C869 C870 1.388 . S
C870 H857 0.930 . S
C870 C869 1.388 . S
C870 C871 1.390 . S
C871 C870 1.390 . S
C871 C872 1.394 . S
C871 C877 1.465 . S
C872 C867 1.400 . S
C872 C871 1.394 . S
C872 C873 1.516 1_556 S
C873 C872 1.516 1_554 S
C873 C874 1.502 . S
C873 C875 1.561 . S
C873 C876 1.526 . S
C874 H858 0.959 . S
C874 H859 0.959 . S
C874 H860 0.961 . S
C874 C873 1.502 . S
C875 H861 0.960 . S
C875 H862 0.961 . S
C875 H863 0.959 . S
C875 C873 1.561 . S
C876 C873 1.526 . S
C876 C877 1.396 1_554 S
C876 C881 1.390 . S
C877 C871 1.465 . S
C877 C876 1.396 1_556 S
C877 C878 1.399 . S
C878 H864 0.929 . S
C878 C877 1.399 . S
C878 C879 1.385 . S
C879 H865 0.931 . S
C879 C878 1.385 . S
C879 C880 1.389 . S
C880 C879 1.389 . S
C880 C881 1.387 1_556 S
C881 H866 0.930 . S
C881 C876 1.390 . S
C881 C880 1.387 1_554 S
H882 C894 0.930 . S
H883 C896 0.930 . S
H884 C897 0.930 . S
H885 C901 0.959 . S
H886 C901 0.959 . S
H887 C901 0.961 . S
H888 C902 0.960 . S
H889 C902 0.961 . S
H890 C902 0.959 . S
H891 C905 0.929 . S
H892 C906 0.931 . S
H893 C908 0.930 . S
C894 H882 0.930 . S
C894 C895 1.399 . S
C894 C899 1.399 . S
C895 C894 1.399 . S
C895 C896 1.376 . S
C896 H883 0.930 . S
C896 C895 1.376 . S
C896 C897 1.388 . S
C897 H884 0.930 . S
C897 C896 1.388 . S
C897 C898 1.390 . S
C898 C897 1.390 . S
C898 C899 1.394 . S
C898 C904 1.465 . S
C899 C894 1.399 . S
C899 C898 1.394 . S
C899 C900 1.516 . S
C900 C899 1.516 . S
C900 C901 1.502 . S
C900 C902 1.561 . S
C900 C903 1.526 . S
C901 H885 0.959 . S
C901 H886 0.959 . S
C901 H887 0.961 . S
C901 C900 1.502 . S
C902 H888 0.960 . S
C902 H889 0.961 . S
C902 H890 0.959 . S
C902 C900 1.561 . S
C903 C900 1.526 . S
C903 C904 1.396 . S
C903 C908 1.390 . S
C904 C898 1.465 . S
C904 C903 1.396 . S
C904 C905 1.399 . S
C905 H891 0.929 . S
C905 C904 1.399 . S
C905 C906 1.385 . S
C906 H892 0.931 . S
C906 C905 1.385 . S
C906 C907 1.389 . S
C907 C906 1.389 . S
C907 C908 1.387 . S
C908 H893 0.930 . S
C908 C903 1.390 . S
C908 C907 1.387 . S
H909 C921 0.930 . S
H910 C923 0.930 . S
H911 C924 0.930 . S
H912 C928 0.959 . S
H913 C928 0.959 . S
H914 C928 0.961 . S
H915 C929 0.960 . S
H916 C929 0.961 . S
H917 C929 0.959 . S
H918 C932 0.929 . S
H919 C933 0.931 . S
H920 C935 0.930 . S
C921 H909 0.930 . S
C921 C922 1.399 . S
C921 C926 1.399 . S
C922 C921 1.399 . S
C922 C923 1.376 . S
C923 H910 0.930 . S
C923 C922 1.376 . S
C923 C924 1.388 . S
C924 H911 0.930 . S
C924 C923 1.388 . S
C924 C925 1.390 . S
C925 C924 1.390 . S
C925 C926 1.394 . S
C925 C931 1.465 . S
C926 C921 1.399 . S
C926 C925 1.394 . S
C926 C927 1.516 . S
C927 C926 1.516 . S
C927 C928 1.502 . S
C927 C929 1.561 . S
C927 C930 1.526 . S
C928 H912 0.959 . S
C928 H913 0.959 . S
C928 H914 0.961 . S
C928 C927 1.502 . S
C929 H915 0.960 . S
C929 H916 0.961 . S
C929 H917 0.959 . S
C929 C927 1.561 . S
C930 C927 1.526 . S
C930 C931 1.396 . S
C930 C935 1.390 . S
C931 C925 1.465 . S
C931 C930 1.396 . S
C931 C932 1.399 . S
C932 H918 0.929 . S
C932 C931 1.399 . S
C932 C933 1.385 . S
C933 H919 0.931 . S
C933 C932 1.385 . S
C933 C934 1.389 . S
C934 C933 1.389 . S
C934 C935 1.387 . S
C935 H920 0.930 . S
C935 C930 1.390 . S
C935 C934 1.387 . S
H936 C948 0.930 . S
H937 C950 0.930 . S
H938 C951 0.930 . S
H939 C955 0.959 . S
H940 C955 0.959 . S
H941 C955 0.961 . S
H942 C956 0.960 . S
H943 C956 0.961 . S
H944 C956 0.959 . S
H945 C959 0.929 . S
H946 C960 0.931 . S
H947 C962 0.930 . S
C948 H936 0.930 . S
C948 C949 1.399 . S
C948 C953 1.399 . S
C949 C948 1.399 . S
C949 C950 1.376 . S
C950 H937 0.930 . S
C950 C949 1.376 . S
C950 C951 1.388 . S
C951 H938 0.930 . S
C951 C950 1.388 . S
C951 C952 1.390 . S
C952 C951 1.390 . S
C952 C953 1.394 . S
C952 C958 1.465 . S
C953 C948 1.399 . S
C953 C952 1.394 . S
C953 C954 1.516 . S
C954 C953 1.516 . S
C954 C955 1.502 . S
C954 C956 1.561 . S
C954 C957 1.526 . S
C955 H939 0.959 . S
C955 H940 0.959 . S
C955 H941 0.961 . S
C955 C954 1.502 . S
C956 H942 0.960 . S
C956 H943 0.961 . S
C956 H944 0.959 . S
C956 C954 1.561 . S
C957 C954 1.526 . S
C957 C958 1.396 . S
C957 C962 1.390 . S
C958 C952 1.465 . S
C958 C957 1.396 . S
C958 C959 1.399 . S
C959 H945 0.929 . S
C959 C958 1.399 . S
C959 C960 1.385 . S
C960 H946 0.931 . S
C960 C959 1.385 . S
C960 C961 1.389 . S
C961 C960 1.389 . S
C961 C962 1.387 . S
C962 H947 0.930 . S
C962 C957 1.390 . S
C962 C961 1.387 . S
H963 C975 0.930 . S
H964 C977 0.930 . S
H965 C978 0.930 . S
H966 C982 0.959 . S
H967 C982 0.959 . S
H968 C982 0.961 . S
H969 C983 0.960 . S
H970 C983 0.961 . S
H971 C983 0.959 . S
H972 C986 0.929 . S
H973 C987 0.931 . S
H974 C989 0.930 . S
C975 H963 0.930 . S
C975 C976 1.399 . S
C975 C980 1.399 . S
C976 C975 1.399 . S
C976 C977 1.376 1_554 S
C977 H964 0.930 . S
C977 C976 1.376 1_556 S
C977 C978 1.388 . S
C978 H965 0.930 . S
C978 C977 1.388 . S
C978 C979 1.390 . S
C979 C978 1.390 . S
C979 C980 1.394 1_556 S
C979 C985 1.465 1_556 S
C980 C975 1.399 . S
C980 C979 1.394 1_554 S
C980 C981 1.516 . S
C981 C980 1.516 . S
C981 C982 1.502 . S
C981 C983 1.561 . S
C981 C984 1.526 . S
C982 H966 0.959 . S
C982 H967 0.959 . S
C982 H968 0.961 . S
C982 C981 1.502 . S
C983 H969 0.960 . S
C983 H970 0.961 . S
C983 H971 0.959 . S
C983 C981 1.561 . S
C984 C981 1.526 . S
C984 C985 1.396 . S
C984 C989 1.390 . S
C985 C979 1.465 1_554 S
C985 C984 1.396 . S
C985 C986 1.399 1_554 S
C986 H972 0.929 . S
C986 C985 1.399 1_556 S
C986 C987 1.385 . S
C987 H973 0.931 . S
C987 C986 1.385 . S
C987 C988 1.389 1_556 S
C988 C987 1.389 1_554 S
C988 C989 1.387 . S
C989 H974 0.930 . S
C989 C984 1.390 . S
C989 C988 1.387 . S
H990 C1002 0.932 . S
H991 C1004 0.930 . S
H992 C1005 0.930 . S
H993 C1009 0.959 . S
H994 C1009 0.959 . S
H995 C1009 0.961 . S
H996 C1010 0.960 . S
H997 C1010 0.961 . S
H998 C1010 0.959 . S
H999 C1013 0.929 . S
H1000 C1014 0.931 . S
H1001 C1016 0.930 . S
C1002 H990 0.932 . S
C1002 C1003 1.397 1_556 S
C1002 C1007 1.399 1_556 S
C1003 C1002 1.397 1_554 S
C1003 C1004 1.376 . S
C1004 H991 0.930 . S
C1004 C1003 1.376 . S
C1004 C1005 1.388 . S
C1005 H992 0.930 . S
C1005 C1004 1.388 . S
C1005 C1006 1.390 . S
C1006 C1005 1.390 . S
C1006 C1007 1.394 . S
C1006 C1012 1.465 . S
C1007 C1002 1.399 1_554 S
C1007 C1006 1.394 . S
C1007 C1008 1.516 1_554 S
C1008 C1007 1.516 1_556 S
C1008 C1009 1.502 . S
C1008 C1010 1.561 . S
C1008 C1011 1.526 . S
C1009 H993 0.959 . S
C1009 H994 0.959 . S
C1009 H995 0.961 . S
C1009 C1008 1.502 . S
C1010 H996 0.960 . S
C1010 H997 0.961 . S
C1010 H998 0.959 . S
C1010 C1008 1.561 . S
C1011 C1008 1.526 . S
C1011 C1012 1.396 1_556 S
C1011 C1016 1.390 . S
C1012 C1006 1.465 . S
C1012 C1011 1.396 1_554 S
C1012 C1013 1.399 . S
C1013 H999 0.929 . S
C1013 C1012 1.399 . S
C1013 C1014 1.385 . S
C1014 H1000 0.931 . S
C1014 C1013 1.385 . S
C1014 C1015 1.389 . S
C1015 C1014 1.389 . S
C1015 C1016 1.387 1_554 S
C1016 H1001 0.930 . S
C1016 C1011 1.390 . S
C1016 C1015 1.387 1_556 S
H1017 C1029 0.930 . S
H1018 C1031 0.930 . S
H1019 C1032 0.930 . S
H1020 C1036 0.959 . S
H1021 C1036 0.959 . S
H1022 C1036 0.961 . S
H1023 C1037 0.960 . S
H1024 C1037 0.961 . S
H1025 C1037 0.959 . S
H1026 C1040 0.929 . S
H1027 C1041 0.931 . S
H1028 C1043 0.930 . S
C1029 H1017 0.930 . S
C1029 C1030 1.399 . S
C1029 C1034 1.399 . S
C1030 C1029 1.399 . S
C1030 C1031 1.376 1_554 S
C1031 H1018 0.930 . S
C1031 C1030 1.376 1_556 S
C1031 C1032 1.388 . S
C1032 H1019 0.930 . S
C1032 C1031 1.388 . S
C1032 C1033 1.390 1_556 S
C1033 C1032 1.390 1_554 S
C1033 C1034 1.394 . S
C1033 C1039 1.465 . S
C1034 C1029 1.399 . S
C1034 C1033 1.394 . S
C1034 C1035 1.516 . S
C1035 C1034 1.516 . S
C1035 C1036 1.502 . S
C1035 C1037 1.561 . S
C1035 C1038 1.526 . S
C1036 H1020 0.959 . S
C1036 H1021 0.959 . S
C1036 H1022 0.961 . S
C1036 C1035 1.502 . S
C1037 H1023 0.960 . S
C1037 H1024 0.961 . S
C1037 H1025 0.959 . S
C1037 C1035 1.561 . S
C1038 C1035 1.526 . S
C1038 C1039 1.396 . S
C1038 C1043 1.390 . S
C1039 C1033 1.465 . S
C1039 C1038 1.396 . S
C1039 C1040 1.399 1_554 S
C1040 H1026 0.929 . S
C1040 C1039 1.399 1_556 S
C1040 C1041 1.385 . S
C1041 H1027 0.931 . S
C1041 C1040 1.385 . S
C1041 C1042 1.389 1_556 S
C1042 C1041 1.389 1_554 S
C1042 C1043 1.387 . S
C1043 H1028 0.930 . S
C1043 C1038 1.390 . S
C1043 C1042 1.387 . S
H1044 C1056 0.930 . S
H1045 C1058 0.972 . S
H1046 C1059 0.930 . S
H1047 C1063 0.959 . S
H1048 C1063 0.959 . S
H1049 C1063 0.961 . S
H1050 C1064 0.960 . S
H1051 C1064 0.961 . S
H1052 C1064 0.959 . S
H1053 C1067 0.929 . S
H1054 C1068 0.931 . S
H1055 C1070 0.930 . S
C1056 H1044 0.930 . S
C1056 C1057 1.399 . S
C1056 C1061 1.399 . S
C1057 C1056 1.399 . S
C1057 C1058 1.376 . S
C1058 H1045 0.972 . S
C1058 C1057 1.376 . S
C1058 C1059 1.388 . S
C1059 H1046 0.930 . S
C1059 C1058 1.388 . S
C1059 C1060 1.390 . S
C1060 C1059 1.390 . S
C1060 C1061 1.394 . S
C1060 C1066 1.465 . S
C1061 C1056 1.399 . S
C1061 C1060 1.394 . S
C1061 C1062 1.516 . S
C1062 C1061 1.516 . S
C1062 C1063 1.502 . S
C1062 C1064 1.561 . S
C1062 C1065 1.526 . S
C1063 H1047 0.959 . S
C1063 H1048 0.959 . S
C1063 H1049 0.961 . S
C1063 C1062 1.502 . S
C1064 H1050 0.960 . S
C1064 H1051 0.961 . S
C1064 H1052 0.959 . S
C1064 C1062 1.561 . S
C1065 C1062 1.526 . S
C1065 C1066 1.396 . S
C1065 C1070 1.390 . S
C1066 C1060 1.465 . S
C1066 C1065 1.396 . S
C1066 C1067 1.399 . S
C1067 H1053 0.929 . S
C1067 C1066 1.399 . S
C1067 C1068 1.385 . S
C1068 H1054 0.931 . S
C1068 C1067 1.385 . S
C1068 C1069 1.389 . S
C1069 C1068 1.389 . S
C1069 C1070 1.387 . S
C1070 H1055 0.930 . S
C1070 C1065 1.390 . S
C1070 C1069 1.387 . S
H1071 C1083 0.930 . S
H1072 C1085 0.930 . S
H1073 C1086 0.930 . S
H1074 C1090 0.959 . S
H1075 C1090 0.959 . S
H1076 C1090 0.961 . S
H1077 C1091 0.960 . S
H1078 C1091 0.961 . S
H1079 C1091 0.959 . S
H1080 C1094 0.929 . S
H1081 C1095 0.931 . S
H1082 C1097 0.930 . S
C1083 H1071 0.930 . S
C1083 C1084 1.399 . S
C1083 C1088 1.399 . S
C1084 C1083 1.399 . S
C1084 C1085 1.376 . S
C1085 H1072 0.930 . S
C1085 C1084 1.376 . S
C1085 C1086 1.388 . S
C1086 H1073 0.930 . S
C1086 C1085 1.388 . S
C1086 C1087 1.390 . S
C1087 C1086 1.390 . S
C1087 C1088 1.394 . S
C1087 C1093 1.465 . S
C1088 C1083 1.399 . S
C1088 C1087 1.394 . S
C1088 C1089 1.516 . S
C1089 C1088 1.516 . S
C1089 C1090 1.502 . S
C1089 C1091 1.561 . S
C1089 C1092 1.526 . S
C1090 H1074 0.959 . S
C1090 H1075 0.959 . S
C1090 H1076 0.961 . S
C1090 C1089 1.502 . S
C1091 H1077 0.960 . S
C1091 H1078 0.961 . S
C1091 H1079 0.959 . S
C1091 C1089 1.561 . S
C1092 C1089 1.526 . S
C1092 C1093 1.396 . S
C1092 C1097 1.390 . S
C1093 C1087 1.465 . S
C1093 C1092 1.396 . S
C1093 C1094 1.399 . S
C1094 H1080 0.929 . S
C1094 C1093 1.399 . S
C1094 C1095 1.385 . S
C1095 H1081 0.931 . S
C1095 C1094 1.385 . S
C1095 C1096 1.389 . S
C1096 C1095 1.389 . S
C1096 C1097 1.387 . S
C1097 H1082 0.930 . S
C1097 C1092 1.390 . S
C1097 C1096 1.387 . S
H1098 C1110 0.930 . S
H1099 C1112 0.930 . S
H1100 C1113 0.930 . S
H1101 C1117 0.959 . S
H1102 C1117 0.959 . S
H1103 C1117 0.961 1_545 S
H1104 C1118 0.960 . S
H1105 C1118 0.961 . S
H1106 C1118 0.959 . S
H1107 C1121 0.929 . S
H1108 C1122 0.931 . S
H1109 C1124 0.930 . S
C1110 H1098 0.930 . S
C1110 C1111 1.399 . S
C1110 C1115 1.399 . S
C1111 C1110 1.399 . S
C1111 C1112 1.376 . S
C1112 H1099 0.930 . S
C1112 C1111 1.376 . S
C1112 C1113 1.388 . S
C1113 H1100 0.930 . S
C1113 C1112 1.388 . S
C1113 C1114 1.412 . S
C1114 C1113 1.412 . S
C1114 C1115 1.422 . S
C1114 C1120 1.420 1_545 S
C1115 C1110 1.399 . S
C1115 C1114 1.422 . S
C1115 C1116 1.516 1_545 S
C1116 C1115 1.516 1_565 S
C1116 C1117 1.502 . S
C1116 C1118 1.561 . S
C1116 C1119 1.526 . S
C1117 H1101 0.959 . S
C1117 H1102 0.959 . S
C1117 H1103 0.961 1_565 S
C1117 C1116 1.502 . S
C1118 H1104 0.960 . S
C1118 H1105 0.961 . S
C1118 H1106 0.959 . S
C1118 C1116 1.561 . S
C1119 C1116 1.526 . S
C1119 C1120 1.396 . S
C1119 C1124 1.390 . S
C1120 C1114 1.420 1_565 S
C1120 C1119 1.396 . S
C1120 C1121 1.399 . S
C1121 H1107 0.929 . S
C1121 C1120 1.399 . S
C1121 C1122 1.385 . S
C1122 H1108 0.931 . S
C1122 C1121 1.385 . S
C1122 C1123 1.389 . S
C1123 C1122 1.389 . S
C1123 C1124 1.387 . S
C1124 H1109 0.930 . S
C1124 C1119 1.390 . S
C1124 C1123 1.387 . S
H1125 C1137 0.930 . S
H1126 C1139 0.930 . S
H1127 C1140 0.930 . S
H1128 C1144 0.959 . S
H1129 C1144 0.959 . S
H1130 C1144 0.961 . S
H1131 C1145 0.960 . S
H1132 C1145 0.961 . S
H1133 C1145 0.959 . S
H1134 C1148 0.929 . S
H1135 C1149 0.931 . S
H1136 C1151 0.930 . S
C1137 H1125 0.930 . S
C1137 C1138 1.399 . S
C1137 C1142 1.399 . S
C1138 C1137 1.399 . S
C1138 C1139 1.376 . S
C1139 H1126 0.930 . S
C1139 C1138 1.376 . S
C1139 C1140 1.388 . S
C1140 H1127 0.930 . S
C1140 C1139 1.388 . S
C1140 C1141 1.390 . S
C1141 C1140 1.390 . S
C1141 C1142 1.394 . S
C1141 C1147 1.465 . S
C1142 C1137 1.399 . S
C1142 C1141 1.394 . S
C1142 C1143 1.516 . S
C1143 C1142 1.516 . S
C1143 C1144 1.502 . S
C1143 C1145 1.561 . S
C1143 C1146 1.526 . S
C1144 H1128 0.959 . S
C1144 H1129 0.959 . S
C1144 H1130 0.961 . S
C1144 C1143 1.502 . S
C1145 H1131 0.960 . S
C1145 H1132 0.961 . S
C1145 H1133 0.959 . S
C1145 C1143 1.561 . S
C1146 C1143 1.526 . S
C1146 C1147 1.396 . S
C1146 C1151 1.390 . S
C1147 C1141 1.465 . S
C1147 C1146 1.396 . S
C1147 C1148 1.399 . S
C1148 H1134 0.929 . S
C1148 C1147 1.399 . S
C1148 C1149 1.385 . S
C1149 H1135 0.931 . S
C1149 C1148 1.385 . S
C1149 C1150 1.389 . S
C1150 C1149 1.389 . S
C1150 C1151 1.387 . S
C1151 H1136 0.930 . S
C1151 C1146 1.390 . S
C1151 C1150 1.387 . S
H1152 C1164 0.930 . S
H1153 C1166 0.930 . S
H1154 C1167 0.930 . S
H1155 C1171 0.959 . S
H1156 C1171 0.959 . S
H1157 C1171 0.961 . S
H1158 C1172 0.960 . S
H1159 C1172 0.961 . S
H1160 C1172 0.959 . S
H1161 C1175 0.929 . S
H1162 C1176 0.931 . S
H1163 C1178 0.930 . S
C1164 H1152 0.930 . S
C1164 C1165 1.399 . S
C1164 C1169 1.399 . S
C1165 C1164 1.399 . S
C1165 C1166 1.376 . S
C1166 H1153 0.930 . S
C1166 C1165 1.376 . S
C1166 C1167 1.388 . S
C1167 H1154 0.930 . S
C1167 C1166 1.388 . S
C1167 C1168 1.422 . S
C1168 C1167 1.422 . S
C1168 C1169 1.417 . S
C1168 C1174 1.412 1_455 S
C1169 C1164 1.399 . S
C1169 C1168 1.417 . S
C1169 C1170 1.516 1_455 S
C1170 C1169 1.516 1_655 S
C1170 C1171 1.502 . S
C1170 C1172 1.561 . S
C1170 C1173 1.526 . S
C1171 H1155 0.959 . S
C1171 H1156 0.959 . S
C1171 H1157 0.961 . S
C1171 C1170 1.502 . S
C1172 H1158 0.960 . S
C1172 H1159 0.961 . S
C1172 H1160 0.959 . S
C1172 C1170 1.561 . S
C1173 C1170 1.526 . S
C1173 C1174 1.396 . S
C1173 C1178 1.390 . S
C1174 C1168 1.412 1_655 S
C1174 C1173 1.396 . S
C1174 C1175 1.399 . S
C1175 H1161 0.929 . S
C1175 C1174 1.399 . S
C1175 C1176 1.385 . S
C1176 H1162 0.931 . S
C1176 C1175 1.385 . S
C1176 C1177 1.389 . S
C1177 C1176 1.389 . S
C1177 C1178 1.387 . S
C1178 H1163 0.930 . S
C1178 C1173 1.390 . S
C1178 C1177 1.387 . S
H1179 C1191 0.930 . S
H1180 C1193 0.930 . S
H1181 C1194 0.930 . S
H1182 C1198 0.959 . S
H1183 C1198 0.959 . S
H1184 C1198 0.961 . S
H1185 C1199 0.960 . S
H1186 C1199 0.961 . S
H1187 C1199 0.959 . S
H1188 C1202 0.929 . S
H1189 C1203 0.931 . S
H1190 C1205 0.930 . S
C1191 H1179 0.930 . S
C1191 C1192 1.399 . S
C1191 C1196 1.399 . S
C1192 C1191 1.399 . S
C1192 C1193 1.376 . S
C1193 H1180 0.930 . S
C1193 C1192 1.376 . S
C1193 C1194 1.388 . S
C1194 H1181 0.930 . S
C1194 C1193 1.388 . S
C1194 C1195 1.390 . S
C1195 C1194 1.390 . S
C1195 C1196 1.394 . S
C1195 C1201 1.465 . S
C1196 C1191 1.399 . S
C1196 C1195 1.394 . S
C1196 C1197 1.516 . S
C1197 C1196 1.516 . S
C1197 C1198 1.502 . S
C1197 C1199 1.561 . S
C1197 C1200 1.526 . S
C1198 H1182 0.959 . S
C1198 H1183 0.959 . S
C1198 H1184 0.961 . S
C1198 C1197 1.502 . S
C1199 H1185 0.960 . S
C1199 H1186 0.961 . S
C1199 H1187 0.959 . S
C1199 C1197 1.561 . S
C1200 C1197 1.526 . S
C1200 C1201 1.396 . S
C1200 C1205 1.390 . S
C1201 C1195 1.465 . S
C1201 C1200 1.396 . S
C1201 C1202 1.399 . S
C1202 H1188 0.929 . S
C1202 C1201 1.399 . S
C1202 C1203 1.385 . S
C1203 H1189 0.931 . S
C1203 C1202 1.385 . S
C1203 C1204 1.389 . S
C1204 C1203 1.389 . S
C1204 C1205 1.387 . S
C1205 H1190 0.930 . S
C1205 C1200 1.390 . S
C1205 C1204 1.387 . S
H1206 C1218 0.930 . S
H1207 C1220 0.930 . S
H1208 C1221 0.930 . S
H1209 C1225 0.959 . S
H1210 C1225 0.959 . S
H1211 C1225 0.961 . S
H1212 C1226 0.960 . S
H1213 C1226 0.961 . S
H1214 C1226 0.959 . S
H1215 C1229 0.929 . S
H1216 C1230 0.931 . S
H1217 C1232 0.930 . S
C1218 H1206 0.930 . S
C1218 C1219 1.399 . S
C1218 C1223 1.399 . S
C1219 C1218 1.399 . S
C1219 C1220 1.376 . S
C1220 H1207 0.930 . S
C1220 C1219 1.376 . S
C1220 C1221 1.388 . S
C1221 H1208 0.930 . S
C1221 C1220 1.388 . S
C1221 C1222 1.390 . S
C1222 C1221 1.390 . S
C1222 C1223 1.394 . S
C1222 C1228 1.465 . S
C1223 C1218 1.399 . S
C1223 C1222 1.394 . S
C1223 C1224 1.516 . S
C1224 C1223 1.516 . S
C1224 C1225 1.502 . S
C1224 C1226 1.561 . S
C1224 C1227 1.526 . S
C1225 H1209 0.959 . S
C1225 H1210 0.959 . S
C1225 H1211 0.961 . S
C1225 C1224 1.502 . S
C1226 H1212 0.960 . S
C1226 H1213 0.961 . S
C1226 H1214 0.959 . S
C1226 C1224 1.561 . S
C1227 C1224 1.526 . S
C1227 C1228 1.396 . S
C1227 C1232 1.390 . S
C1228 C1222 1.465 . S
C1228 C1227 1.396 . S
C1228 C1229 1.399 . S
C1229 H1215 0.929 . S
C1229 C1228 1.399 . S
C1229 C1230 1.385 . S
C1230 H1216 0.931 . S
C1230 C1229 1.385 . S
C1230 C1231 1.389 . S
C1231 C1230 1.389 . S
C1231 C1232 1.387 . S
C1232 H1217 0.930 . S
C1232 C1227 1.390 . S
C1232 C1231 1.387 . S
H1233 C1245 0.930 . S
H1234 C1247 0.930 . S
H1235 C1248 0.930 . S
H1236 C1252 0.959 . S
H1237 C1252 0.959 . S
H1238 C1252 0.961 . S
H1239 C1253 0.960 . S
H1240 C1253 0.961 . S
H1241 C1253 0.959 . S
H1242 C1256 0.929 . S
H1243 C1257 0.931 . S
H1244 C1259 0.930 . S
C1245 H1233 0.930 . S
C1245 C1246 1.399 . S
C1245 C1250 1.399 . S
C1246 C1245 1.399 . S
C1246 C1247 1.376 . S
C1247 H1234 0.930 . S
C1247 C1246 1.376 . S
C1247 C1248 1.388 . S
C1248 H1235 0.930 . S
C1248 C1247 1.388 . S
C1248 C1249 1.390 . S
C1249 C1248 1.390 . S
C1249 C1250 1.394 . S
C1249 C1255 1.465 . S
C1250 C1245 1.399 . S
C1250 C1249 1.394 . S
C1250 C1251 1.516 . S
C1251 C1250 1.516 . S
C1251 C1252 1.502 . S
C1251 C1253 1.561 . S
C1251 C1254 1.526 . S
C1252 H1236 0.959 . S
C1252 H1237 0.959 . S
C1252 H1238 0.961 . S
C1252 C1251 1.502 . S
C1253 H1239 0.960 . S
C1253 H1240 0.961 . S
C1253 H1241 0.959 . S
C1253 C1251 1.561 . S
C1254 C1251 1.526 . S
C1254 C1255 1.396 . S
C1254 C1259 1.390 . S
C1255 C1249 1.465 . S
C1255 C1254 1.396 . S
C1255 C1256 1.399 . S
C1256 H1242 0.929 . S
C1256 C1255 1.399 . S
C1256 C1257 1.385 . S
C1257 H1243 0.931 . S
C1257 C1256 1.385 . S
C1257 C1258 1.389 . S
C1258 C1257 1.389 . S
C1258 C1259 1.387 . S
C1259 H1244 0.930 . S
C1259 C1254 1.390 . S
C1259 C1258 1.387 . S
H1260 C1272 0.930 . S
H1261 C1274 0.930 . S
H1262 C1275 0.930 . S
H1263 C1279 0.959 . S
H1264 C1279 0.959 . S
H1265 C1279 0.961 . S
H1266 C1280 0.960 . S
H1267 C1280 0.961 . S
H1268 C1280 0.959 . S
H1269 C1283 0.929 . S
H1270 C1284 0.931 . S
H1271 C1286 0.930 . S
C1272 H1260 0.930 . S
C1272 C1273 1.399 . S
C1272 C1277 1.399 . S
C1273 C1272 1.399 . S
C1273 C1274 1.376 . S
C1274 H1261 0.930 . S
C1274 C1273 1.376 . S
C1274 C1275 1.388 . S
C1275 H1262 0.930 . S
C1275 C1274 1.388 . S
C1275 C1276 1.390 . S
C1276 C1275 1.390 . S
C1276 C1277 1.394 . S
C1276 C1282 1.465 . S
C1277 C1272 1.399 . S
C1277 C1276 1.394 . S
C1277 C1278 1.516 . S
C1278 C1277 1.516 . S
C1278 C1279 1.502 . S
C1278 C1280 1.561 . S
C1278 C1281 1.526 . S
C1279 H1263 0.959 . S
C1279 H1264 0.959 . S
C1279 H1265 0.961 . S
C1279 C1278 1.502 . S
C1280 H1266 0.960 . S
C1280 H1267 0.961 . S
C1280 H1268 0.959 . S
C1280 C1278 1.561 . S
C1281 C1278 1.526 . S
C1281 C1282 1.396 . S
C1281 C1286 1.390 . S
C1282 C1276 1.465 . S
C1282 C1281 1.396 . S
C1282 C1283 1.399 . S
C1283 H1269 0.929 . S
C1283 C1282 1.399 . S
C1283 C1284 1.385 . S
C1284 H1270 0.931 . S
C1284 C1283 1.385 . S
C1284 C1285 1.389 . S
C1285 C1284 1.389 . S
C1285 C1286 1.387 . S
C1286 H1271 0.930 . S
C1286 C1281 1.390 . S
C1286 C1285 1.387 . S
H1287 C1299 0.930 . S
H1288 C1301 0.930 . S
H1289 C1302 0.930 . S
H1290 C1306 0.959 . S
H1291 C1306 0.959 . S
H1292 C1306 0.961 . S
H1293 C1307 0.960 . S
H1294 C1307 0.961 . S
H1295 C1307 0.959 . S
H1296 C1310 0.929 . S
H1297 C1311 0.931 . S
H1298 C1313 0.930 . S
C1299 H1287 0.930 . S
C1299 C1300 1.399 . S
C1299 C1304 1.399 . S
C1300 C1299 1.399 . S
C1300 C1301 1.376 . S
C1301 H1288 0.930 . S
C1301 C1300 1.376 . S
C1301 C1302 1.388 . S
C1302 H1289 0.930 . S
C1302 C1301 1.388 . S
C1302 C1303 1.390 . S
C1303 C1302 1.390 . S
C1303 C1304 1.394 . S
C1303 C1309 1.465 . S
C1304 C1299 1.399 . S
C1304 C1303 1.394 . S
C1304 C1305 1.516 . S
C1305 C1304 1.516 . S
C1305 C1306 1.502 . S
C1305 C1307 1.561 . S
C1305 C1308 1.526 . S
C1306 H1290 0.959 . S
C1306 H1291 0.959 . S
C1306 H1292 0.961 . S
C1306 C1305 1.502 . S
C1307 H1293 0.960 . S
C1307 H1294 0.961 . S
C1307 H1295 0.959 . S
C1307 C1305 1.561 . S
C1308 C1305 1.526 . S
C1308 C1309 1.396 . S
C1308 C1313 1.390 . S
C1309 C1303 1.465 . S
C1309 C1308 1.396 . S
C1309 C1310 1.399 . S
C1310 H1296 0.929 . S
C1310 C1309 1.399 . S
C1310 C1311 1.385 . S
C1311 H1297 0.931 . S
C1311 C1310 1.385 . S
C1311 C1312 1.389 . S
C1312 C1311 1.389 . S
C1312 C1313 1.387 . S
C1313 H1298 0.930 . S
C1313 C1308 1.390 . S
C1313 C1312 1.387 . S
H1314 C1326 0.930 . S
H1315 C1328 0.930 . S
H1316 C1329 0.930 . S
H1317 C1333 0.959 . S
H1318 C1333 0.959 . S
H1319 C1333 0.961 . S
H1320 C1334 0.960 . S
H1321 C1334 0.961 . S
H1322 C1334 0.959 . S
H1323 C1337 0.929 . S
H1324 C1338 0.931 . S
H1325 C1340 0.930 . S
C1326 H1314 0.930 . S
C1326 C1327 1.399 . S
C1326 C1331 1.399 . S
C1327 C1326 1.399 . S
C1327 C1328 1.376 . S
C1328 H1315 0.930 . S
C1328 C1327 1.376 . S
C1328 C1329 1.388 . S
C1329 H1316 0.930 . S
C1329 C1328 1.388 . S
C1329 C1330 1.390 . S
C1330 C1329 1.390 . S
C1330 C1331 1.394 . S
C1330 C1336 1.465 . S
C1331 C1326 1.399 . S
C1331 C1330 1.394 . S
C1331 C1332 1.516 . S
C1332 C1331 1.516 . S
C1332 C1333 1.502 . S
C1332 C1334 1.561 . S
C1332 C1335 1.526 . S
C1333 H1317 0.959 . S
C1333 H1318 0.959 . S
C1333 H1319 0.961 . S
C1333 C1332 1.502 . S
C1334 H1320 0.960 . S
C1334 H1321 0.961 . S
C1334 H1322 0.959 . S
C1334 C1332 1.561 . S
C1335 C1332 1.526 . S
C1335 C1336 1.396 . S
C1335 C1340 1.390 . S
C1336 C1330 1.465 . S
C1336 C1335 1.396 . S
C1336 C1337 1.399 . S
C1337 H1323 0.929 . S
C1337 C1336 1.399 . S
C1337 C1338 1.385 . S
C1338 H1324 0.931 . S
C1338 C1337 1.385 . S
C1338 C1339 1.389 . S
C1339 C1338 1.389 . S
C1339 C1340 1.387 . S
C1340 H1325 0.930 . S
C1340 C1335 1.390 . S
C1340 C1339 1.387 . S
H1341 C1353 0.930 . S
H1342 C1355 0.930 . S
H1343 C1356 0.930 . S
H1344 C1360 0.959 . S
H1345 C1360 0.959 . S
H1346 C1360 0.961 . S
H1347 C1361 0.960 . S
H1348 C1361 0.961 . S
H1349 C1361 0.959 . S
H1350 C1364 0.929 . S
H1351 C1365 0.931 . S
H1352 C1367 0.930 . S
C1353 H1341 0.930 . S
C1353 C1354 1.399 . S
C1353 C1358 1.399 . S
C1354 C1353 1.399 . S
C1354 C1355 1.376 . S
C1355 H1342 0.930 . S
C1355 C1354 1.376 . S
C1355 C1356 1.388 . S
C1356 H1343 0.930 . S
C1356 C1355 1.388 . S
C1356 C1357 1.390 . S
C1357 C1356 1.390 . S
C1357 C1358 1.394 . S
C1357 C1363 1.465 . S
C1358 C1353 1.399 . S
C1358 C1357 1.394 . S
C1358 C1359 1.516 . S
C1359 C1358 1.516 . S
C1359 C1360 1.502 . S
C1359 C1361 1.561 . S
C1359 C1362 1.526 . S
C1360 H1344 0.959 . S
C1360 H1345 0.959 . S
C1360 H1346 0.961 . S
C1360 C1359 1.502 . S
C1361 H1347 0.960 . S
C1361 H1348 0.961 . S
C1361 H1349 0.959 . S
C1361 C1359 1.561 . S
C1362 C1359 1.526 . S
C1362 C1363 1.396 . S
C1362 C1367 1.390 . S
C1363 C1357 1.465 . S
C1363 C1362 1.396 . S
C1363 C1364 1.399 . S
C1364 H1350 0.929 . S
C1364 C1363 1.399 . S
C1364 C1365 1.385 . S
C1365 H1351 0.931 . S
C1365 C1364 1.385 . S
C1365 C1366 1.389 . S
C1366 C1365 1.389 . S
C1366 C1367 1.387 . S
C1367 H1352 0.930 . S
C1367 C1362 1.390 . S
C1367 C1366 1.387 . S
H1368 C1380 0.930 . S
H1369 C1382 0.930 . S
H1370 C1383 0.930 . S
H1371 C1387 0.959 . S
H1372 C1387 0.959 . S
H1373 C1387 0.961 . S
H1374 C1388 0.960 . S
H1375 C1388 0.961 . S
H1376 C1388 0.959 . S
H1377 C1391 0.929 . S
H1378 C1392 0.931 . S
H1379 C1394 0.930 . S
C1380 H1368 0.930 . S
C1380 C1381 1.399 . S
C1380 C1385 1.399 . S
C1381 C1380 1.399 . S
C1381 C1382 1.376 . S
C1382 H1369 0.930 . S
C1382 C1381 1.376 . S
C1382 C1383 1.388 . S
C1383 H1370 0.930 . S
C1383 C1382 1.388 . S
C1383 C1384 1.390 . S
C1384 C1383 1.390 . S
C1384 C1385 1.394 . S
C1384 C1390 1.465 . S
C1385 C1380 1.399 . S
C1385 C1384 1.394 . S
C1385 C1386 1.516 . S
C1386 C1385 1.516 . S
C1386 C1387 1.502 . S
C1386 C1388 1.561 . S
C1386 C1389 1.526 . S
C1387 H1371 0.959 . S
C1387 H1372 0.959 . S
C1387 H1373 0.961 . S
C1387 C1386 1.502 . S
C1388 H1374 0.960 . S
C1388 H1375 0.961 . S
C1388 H1376 0.959 . S
C1388 C1386 1.561 . S
C1389 C1386 1.526 . S
C1389 C1390 1.396 . S
C1389 C1394 1.390 . S
C1390 C1384 1.465 . S
C1390 C1389 1.396 . S
C1390 C1391 1.399 . S
C1391 H1377 0.929 . S
C1391 C1390 1.399 . S
C1391 C1392 1.385 . S
C1392 H1378 0.931 . S
C1392 C1391 1.385 . S
C1392 C1393 1.389 . S
C1393 C1392 1.389 . S
C1393 C1394 1.387 . S
C1394 H1379 0.930 . S
C1394 C1389 1.390 . S
C1394 C1393 1.387 . S
H1395 C1407 0.930 . S
H1396 C1409 0.930 . S
H1397 C1410 0.930 . S
H1398 C1414 0.959 . S
H1399 C1414 0.959 . S
H1400 C1414 0.961 . S
H1401 C1415 0.960 . S
H1402 C1415 0.961 . S
H1403 C1415 0.959 . S
H1404 C1418 0.929 . S
H1405 C1419 0.931 . S
H1406 C1421 0.930 . S
C1407 H1395 0.930 . S
C1407 C1408 1.399 . S
C1407 C1412 1.399 . S
C1408 C1407 1.399 . S
C1408 C1409 1.376 . S
C1409 H1396 0.930 . S
C1409 C1408 1.376 . S
C1409 C1410 1.388 . S
C1410 H1397 0.930 . S
C1410 C1409 1.388 . S
C1410 C1411 1.390 . S
C1411 C1410 1.390 . S
C1411 C1412 1.394 . S
C1411 C1417 1.465 . S
C1412 C1407 1.399 . S
C1412 C1411 1.394 . S
C1412 C1413 1.516 . S
C1413 C1412 1.516 . S
C1413 C1414 1.502 . S
C1413 C1415 1.561 . S
C1413 C1416 1.526 . S
C1414 H1398 0.959 . S
C1414 H1399 0.959 . S
C1414 H1400 0.961 . S
C1414 C1413 1.502 . S
C1415 H1401 0.960 . S
C1415 H1402 0.961 . S
C1415 H1403 0.959 . S
C1415 C1413 1.561 . S
C1416 C1413 1.526 . S
C1416 C1417 1.396 . S
C1416 C1421 1.390 . S
C1417 C1411 1.465 . S
C1417 C1416 1.396 . S
C1417 C1418 1.399 . S
C1418 H1404 0.929 . S
C1418 C1417 1.399 . S
C1418 C1419 1.385 . S
C1419 H1405 0.931 . S
C1419 C1418 1.385 . S
C1419 C1420 1.389 . S
C1420 C1419 1.389 . S
C1420 C1421 1.387 . S
C1421 H1406 0.930 . S
C1421 C1416 1.390 . S
C1421 C1420 1.387 . S
H1422 C1434 0.930 . S
H1423 C1436 0.930 . S
H1424 C1437 0.930 . S
H1425 C1441 0.959 . S
H1426 C1441 0.959 . S
H1427 C1441 0.961 . S
H1428 C1442 0.960 . S
H1429 C1442 0.961 . S
H1430 C1442 0.959 . S
H1431 C1445 0.929 . S
H1432 C1446 0.931 . S
H1433 C1448 0.930 . S
C1434 H1422 0.930 . S
C1434 C1435 1.399 . S
C1434 C1439 1.399 . S
C1435 C1434 1.399 . S
C1435 C1436 1.376 . S
C1436 H1423 0.930 . S
C1436 C1435 1.376 . S
C1436 C1437 1.388 . S
C1437 H1424 0.930 . S
C1437 C1436 1.388 . S
C1437 C1438 1.390 . S
C1438 C1437 1.390 . S
C1438 C1439 1.394 . S
C1438 C1444 1.465 . S
C1439 C1434 1.399 . S
C1439 C1438 1.394 . S
C1439 C1440 1.516 . S
C1440 C1439 1.516 . S
C1440 C1441 1.502 . S
C1440 C1442 1.561 . S
C1440 C1443 1.526 . S
C1441 H1425 0.959 . S
C1441 H1426 0.959 . S
C1441 H1427 0.961 . S
C1441 C1440 1.502 . S
C1442 H1428 0.960 . S
C1442 H1429 0.961 . S
C1442 H1430 0.959 . S
C1442 C1440 1.561 . S
C1443 C1440 1.526 . S
C1443 C1444 1.396 . S
C1443 C1448 1.390 . S
C1444 C1438 1.465 . S
C1444 C1443 1.396 . S
C1444 C1445 1.399 . S
C1445 H1431 0.929 . S
C1445 C1444 1.399 . S
C1445 C1446 1.385 . S
C1446 H1432 0.931 . S
C1446 C1445 1.385 . S
C1446 C1447 1.389 . S
C1447 C1446 1.389 . S
C1447 C1448 1.387 . S
C1448 H1433 0.930 . S
C1448 C1443 1.390 . S
C1448 C1447 1.387 . S
H1449 C1461 0.930 . S
H1450 C1463 0.930 1_554 S
H1451 C1464 0.930 . S
H1452 C1468 0.959 . S
H1453 C1468 0.959 . S
H1454 C1468 0.961 . S
H1455 C1469 0.960 . S
H1456 C1469 0.961 . S
H1457 C1469 0.959 . S
H1458 C1472 0.929 . S
H1459 C1473 0.931 . S
H1460 C1475 0.930 . S
C1461 H1449 0.930 . S
C1461 C1462 1.399 . S
C1461 C1466 1.399 . S
C1462 C1461 1.399 . S
C1462 C1463 1.376 . S
C1463 H1450 0.930 1_556 S
C1463 C1462 1.376 . S
C1463 C1464 1.388 1_556 S
C1464 H1451 0.930 . S
C1464 C1463 1.388 1_554 S
C1464 C1465 1.390 1_554 S
C1465 C1464 1.390 1_556 S
C1465 C1466 1.394 . S
C1465 C1471 1.465 . S
C1466 C1461 1.399 . S
C1466 C1465 1.394 . S
C1466 C1467 1.516 . S
C1467 C1466 1.516 . S
C1467 C1468 1.502 . S
C1467 C1469 1.561 . S
C1467 C1470 1.526 . S
C1468 H1452 0.959 . S
C1468 H1453 0.959 . S
C1468 H1454 0.961 . S
C1468 C1467 1.502 . S
C1469 H1455 0.960 . S
C1469 H1456 0.961 . S
C1469 H1457 0.959 . S
C1469 C1467 1.561 . S
C1470 C1467 1.526 . S
C1470 C1471 1.396 . S
C1470 C1475 1.390 . S
C1471 C1465 1.465 . S
C1471 C1470 1.396 . S
C1471 C1472 1.399 1_556 S
C1472 H1458 0.929 . S
C1472 C1471 1.399 1_554 S
C1472 C1473 1.385 . S
C1473 H1459 0.931 . S
C1473 C1472 1.385 . S
C1473 C1474 1.389 . S
C1474 C1473 1.389 . S
C1474 C1475 1.387 1_554 S
C1475 H1460 0.930 . S
C1475 C1470 1.390 . S
C1475 C1474 1.387 1_556 S
H1476 C1488 0.930 . S
H1477 C1490 0.930 . S
H1478 C1491 0.930 . S
H1479 C1495 0.959 . S
H1480 C1495 0.959 . S
H1481 C1495 0.961 . S
H1482 C1496 0.960 . S
H1483 C1496 0.961 . S
H1484 C1496 0.959 . S
H1485 C1499 0.929 . S
H1486 C1500 0.931 . S
H1487 C1502 0.930 . S
C1488 H1476 0.930 . S
C1488 C1489 1.399 . S
C1488 C1493 1.399 . S
C1489 C1488 1.399 . S
C1489 C1490 1.376 . S
C1490 H1477 0.930 . S
C1490 C1489 1.376 . S
C1490 C1491 1.388 . S
C1491 H1478 0.930 . S
C1491 C1490 1.388 . S
C1491 C1492 1.390 . S
C1492 C1491 1.390 . S
C1492 C1493 1.394 . S
C1492 C1498 1.465 . S
C1493 C1488 1.399 . S
C1493 C1492 1.394 . S
C1493 C1494 1.511 1_556 S
C1494 C1493 1.511 1_554 S
C1494 C1495 1.514 . S
C1494 C1496 1.554 1_554 S
C1494 C1497 1.524 1_554 S
C1495 H1479 0.959 . S
C1495 H1480 0.959 . S
C1495 H1481 0.961 . S
C1495 C1494 1.514 . S
C1496 H1482 0.960 . S
C1496 H1483 0.961 . S
C1496 H1484 0.959 . S
C1496 C1494 1.554 1_556 S
C1497 C1494 1.524 1_556 S
C1497 C1498 1.396 . S
C1497 C1502 1.390 1_556 S
C1498 C1492 1.465 . S
C1498 C1497 1.396 . S
C1498 C1499 1.399 . S
C1499 H1485 0.929 . S
C1499 C1498 1.399 . S
C1499 C1500 1.385 . S
C1500 H1486 0.931 . S
C1500 C1499 1.385 . S
C1500 C1501 1.389 . S
C1501 C1500 1.389 . S
C1501 C1502 1.387 1_556 S
C1502 H1487 0.930 . S
C1502 C1497 1.390 1_554 S
C1502 C1501 1.387 1_554 S
H1503 C1515 0.930 . S
H1504 C1517 0.930 . S
H1505 C1518 0.930 . S
H1506 C1522 0.959 . S
H1507 C1522 0.959 . S
H1508 C1522 0.961 . S
H1509 C1523 0.960 . S
H1510 C1523 0.961 . S
H1511 C1523 0.959 . S
H1512 C1526 0.929 . S
H1513 C1527 0.931 . S
H1514 C1529 0.930 . S
C1515 H1503 0.930 . S
C1515 C1516 1.399 . S
C1515 C1520 1.399 . S
C1516 C1515 1.399 . S
C1516 C1517 1.376 1_556 S
C1517 H1504 0.930 . S
C1517 C1516 1.376 1_554 S
C1517 C1518 1.388 . S
C1518 H1505 0.930 . S
C1518 C1517 1.388 . S
C1518 C1519 1.390 1_554 S
C1519 C1518 1.390 1_556 S
C1519 C1520 1.394 . S
C1519 C1525 1.465 1_556 S
C1520 C1515 1.399 . S
C1520 C1519 1.394 . S
C1520 C1521 1.516 . S
C1521 C1520 1.516 . S
C1521 C1522 1.502 . S
C1521 C1523 1.561 . S
C1521 C1524 1.526 . S
C1522 H1506 0.959 . S
C1522 H1507 0.959 . S
C1522 H1508 0.961 . S
C1522 C1521 1.502 . S
C1523 H1509 0.960 . S
C1523 H1510 0.961 . S
C1523 H1511 0.959 . S
C1523 C1521 1.561 . S
C1524 C1521 1.526 . S
C1524 C1525 1.396 1_556 S
C1524 C1529 1.390 . S
C1525 C1519 1.465 1_554 S
C1525 C1524 1.396 1_554 S
C1525 C1526 1.399 . S
C1526 H1512 0.929 . S
C1526 C1525 1.399 . S
C1526 C1527 1.385 . S
C1527 H1513 0.931 . S
C1527 C1526 1.385 . S
C1527 C1528 1.389 . S
C1528 C1527 1.389 . S
C1528 C1529 1.387 1_554 S
C1529 H1514 0.930 . S
C1529 C1524 1.390 . S
C1529 C1528 1.387 1_556 S
H1530 C1542 0.930 . S
H1531 C1544 0.930 . S
H1532 C1545 0.930 . S
H1533 C1549 0.959 . S
H1534 C1549 0.959 . S
H1535 C1549 0.961 . S
H1536 C1550 0.960 . S
H1537 C1550 0.961 . S
H1538 C1550 0.959 . S
H1539 C1553 0.929 . S
H1540 C1554 0.931 . S
H1541 C1556 0.930 1_556 S
C1542 H1530 0.930 . S
C1542 C1543 1.399 1_556 S
C1542 C1547 1.399 . S
C1543 C1542 1.399 1_554 S
C1543 C1544 1.376 . S
C1544 H1531 0.930 . S
C1544 C1543 1.376 . S
C1544 C1545 1.388 . S
C1545 H1532 0.930 . S
C1545 C1544 1.388 . S
C1545 C1546 1.390 . S
C1546 C1545 1.390 . S
C1546 C1547 1.394 1_554 S
C1546 C1552 1.465 . S
C1547 C1542 1.399 . S
C1547 C1546 1.394 1_556 S
C1547 C1548 1.516 . S
C1548 C1547 1.516 . S
C1548 C1549 1.502 . S
C1548 C1550 1.561 . S
C1548 C1551 1.526 1_556 S
C1549 H1533 0.959 . S
C1549 H1534 0.959 . S
C1549 H1535 0.961 . S
C1549 C1548 1.502 . S
C1550 H1536 0.960 . S
C1550 H1537 0.961 . S
C1550 H1538 0.959 . S
C1550 C1548 1.561 . S
C1551 C1548 1.526 1_554 S
C1551 C1552 1.396 . S
C1551 C1556 1.390 . S
C1552 C1546 1.465 . S
C1552 C1551 1.396 . S
C1552 C1553 1.399 . S
C1553 H1539 0.929 . S
C1553 C1552 1.399 . S
C1553 C1554 1.385 . S
C1554 H1540 0.931 . S
C1554 C1553 1.385 . S
C1554 C1555 1.389 . S
C1555 C1554 1.389 . S
C1555 C1556 1.387 . S
C1556 H1541 0.930 1_554 S
C1556 C1551 1.390 . S
C1556 C1555 1.387 . S
H1557 C1569 0.930 . S
H1558 C1571 0.930 . S
H1559 C1572 0.930 . S
H1560 C1576 0.959 . S
H1561 C1576 0.959 . S
H1562 C1576 0.961 . S
H1563 C1577 0.960 . S
H1564 C1577 0.961 . S
H1565 C1577 0.964 . S
H1566 C1580 0.929 . S
H1567 C1581 0.931 1_556 S
H1568 C1583 0.930 . S
C1569 H1557 0.930 . S
C1569 C1570 1.399 1_554 S
C1569 C1574 1.399 . S
C1570 C1569 1.399 1_556 S
C1570 C1571 1.376 . S
C1571 H1558 0.930 . S
C1571 C1570 1.376 . S
C1571 C1572 1.388 . S
C1572 H1559 0.930 . S
C1572 C1571 1.388 . S
C1572 C1573 1.390 . S
C1573 C1572 1.390 . S
C1573 C1574 1.394 1_556 S
C1573 C1579 1.465 1_556 S
C1574 C1569 1.399 . S
C1574 C1573 1.394 1_554 S
C1574 C1575 1.516 . S
C1575 C1574 1.516 . S
C1575 C1576 1.502 . S
C1575 C1577 1.561 . S
C1575 C1578 1.526 . S
C1576 H1560 0.959 . S
C1576 H1561 0.959 . S
C1576 H1562 0.961 . S
C1576 C1575 1.502 . S
C1577 H1563 0.960 . S
C1577 H1564 0.961 . S
C1577 H1565 0.964 . S
C1577 C1575 1.561 . S
C1578 C1575 1.526 . S
C1578 C1579 1.396 . S
C1578 C1583 1.390 . S
C1579 C1573 1.465 1_554 S
C1579 C1578 1.396 . S
C1579 C1580 1.399 1_554 S
C1580 H1566 0.929 . S
C1580 C1579 1.399 1_556 S
C1580 C1581 1.385 1_556 S
C1581 H1567 0.931 1_554 S
C1581 C1580 1.385 1_554 S
C1581 C1582 1.389 . S
C1582 C1581 1.389 . S
C1582 C1583 1.387 . S
C1583 H1568 0.930 . S
C1583 C1578 1.390 . S
C1583 C1582 1.387 . S
H1584 C1596 0.930 . S
H1585 C1598 0.930 . S
H1586 C1599 0.930 . S
H1587 C1603 0.959 . S
H1588 C1603 0.959 . S
H1589 C1603 0.961 . S
H1590 C1604 0.960 . S
H1591 C1604 0.961 . S
H1592 C1604 0.959 . S
H1593 C1607 0.929 . S
H1594 C1608 0.931 . S
H1595 C1610 0.930 . S
C1596 H1584 0.930 . S
C1596 C1597 1.399 . S
C1596 C1601 1.399 . S
C1597 C1596 1.399 . S
C1597 C1598 1.376 1_554 S
C1598 H1585 0.930 . S
C1598 C1597 1.376 1_556 S
C1598 C1599 1.388 . S
C1599 H1586 0.930 . S
C1599 C1598 1.388 . S
C1599 C1600 1.390 1_556 S
C1600 C1599 1.390 1_554 S
C1600 C1601 1.394 . S
C1600 C1606 1.465 1_554 S
C1601 C1596 1.399 . S
C1601 C1600 1.394 . S
C1601 C1602 1.516 . S
C1602 C1601 1.516 . S
C1602 C1603 1.502 . S
C1602 C1604 1.561 . S
C1602 C1605 1.526 . S
C1603 H1587 0.959 . S
C1603 H1588 0.959 . S
C1603 H1589 0.961 . S
C1603 C1602 1.502 . S
C1604 H1590 0.960 . S
C1604 H1591 0.961 . S
C1604 H1592 0.959 . S
C1604 C1602 1.561 . S
C1605 C1602 1.526 . S
C1605 C1606 1.396 1_554 S
C1605 C1610 1.390 . S
C1606 C1600 1.465 1_556 S
C1606 C1605 1.396 1_556 S
C1606 C1607 1.399 . S
C1607 H1593 0.929 . S
C1607 C1606 1.399 . S
C1607 C1608 1.385 . S
C1608 H1594 0.931 . S
C1608 C1607 1.385 . S
C1608 C1609 1.389 . S
C1609 C1608 1.389 . S
C1609 C1610 1.387 1_556 S
C1610 H1595 0.930 . S
C1610 C1605 1.390 . S
C1610 C1609 1.387 1_554 S
H1611 C1623 0.930 . S
H1612 C1625 0.930 . S
H1613 C1626 0.930 . S
H1614 C1630 0.959 . S
H1615 C1630 0.959 . S
H1616 C1630 0.961 . S
H1617 C1631 0.960 . S
H1618 C1631 0.961 . S
H1619 C1631 0.959 . S
H1620 C1634 0.929 . S
H1621 C1635 0.931 . S
H1622 C1637 0.930 . S
C1623 H1611 0.930 . S
C1623 C1624 1.399 . S
C1623 C1628 1.399 . S
C1624 C1623 1.399 . S
C1624 C1625 1.376 . S
C1625 H1612 0.930 . S
C1625 C1624 1.376 . S
C1625 C1626 1.388 . S
C1626 H1613 0.930 . S
C1626 C1625 1.388 . S
C1626 C1627 1.390 . S
C1627 C1626 1.390 . S
C1627 C1628 1.394 . S
C1627 C1633 1.465 . S
C1628 C1623 1.399 . S
C1628 C1627 1.394 . S
C1628 C1629 1.516 . S
C1629 C1628 1.516 . S
C1629 C1630 1.502 . S
C1629 C1631 1.561 . S
C1629 C1632 1.526 . S
C1630 H1614 0.959 . S
C1630 H1615 0.959 . S
C1630 H1616 0.961 . S
C1630 C1629 1.502 . S
C1631 H1617 0.960 . S
C1631 H1618 0.961 . S
C1631 H1619 0.959 . S
C1631 C1629 1.561 . S
C1632 C1629 1.526 . S
C1632 C1633 1.396 . S
C1632 C1637 1.390 . S
C1633 C1627 1.465 . S
C1633 C1632 1.396 . S
C1633 C1634 1.399 . S
C1634 H1620 0.929 . S
C1634 C1633 1.399 . S
C1634 C1635 1.385 . S
C1635 H1621 0.931 . S
C1635 C1634 1.385 . S
C1635 C1636 1.389 . S
C1636 C1635 1.389 . S
C1636 C1637 1.387 . S
C1637 H1622 0.930 . S
C1637 C1632 1.390 . S
C1637 C1636 1.387 . S
H1638 C1650 0.930 . S
H1639 C1652 0.930 . S
H1640 C1653 0.930 . S
H1641 C1657 0.959 . S
H1642 C1657 0.959 . S
H1643 C1657 0.961 . S
H1644 C1658 0.960 . S
H1645 C1658 0.961 . S
H1646 C1658 0.959 . S
H1647 C1661 0.929 . S
H1648 C1662 0.931 . S
H1649 C1664 0.930 . S
C1650 H1638 0.930 . S
C1650 C1651 1.399 . S
C1650 C1655 1.399 . S
C1651 C1650 1.399 . S
C1651 C1652 1.376 . S
C1652 H1639 0.930 . S
C1652 C1651 1.376 . S
C1652 C1653 1.388 . S
C1653 H1640 0.930 . S
C1653 C1652 1.388 . S
C1653 C1654 1.390 . S
C1654 C1653 1.390 . S
C1654 C1655 1.394 . S
C1654 C1660 1.465 . S
C1655 C1650 1.399 . S
C1655 C1654 1.394 . S
C1655 C1656 1.516 . S
C1656 C1655 1.516 . S
C1656 C1657 1.502 . S
C1656 C1658 1.561 . S
C1656 C1659 1.526 . S
C1657 H1641 0.959 . S
C1657 H1642 0.959 . S
C1657 H1643 0.961 . S
C1657 C1656 1.502 . S
C1658 H1644 0.960 . S
C1658 H1645 0.961 . S
C1658 H1646 0.959 . S
C1658 C1656 1.561 . S
C1659 C1656 1.526 . S
C1659 C1660 1.396 . S
C1659 C1664 1.390 . S
C1660 C1654 1.465 . S
C1660 C1659 1.396 . S
C1660 C1661 1.399 . S
C1661 H1647 0.929 . S
C1661 C1660 1.399 . S
C1661 C1662 1.385 . S
C1662 H1648 0.931 . S
C1662 C1661 1.385 . S
C1662 C1663 1.389 . S
C1663 C1662 1.389 . S
C1663 C1664 1.387 . S
C1664 H1649 0.930 . S
C1664 C1659 1.390 . S
C1664 C1663 1.387 . S
H1665 C1677 0.930 . S
H1666 C1679 0.930 . S
H1667 C1680 0.930 . S
H1668 C1684 0.959 . S
H1669 C1684 0.959 . S
H1670 C1684 0.961 . S
H1671 C1685 0.960 . S
H1672 C1685 0.961 . S
H1673 C1685 0.959 . S
H1674 C1688 0.929 . S
H1675 C1689 0.931 . S
H1676 C1691 0.930 . S
C1677 H1665 0.930 . S
C1677 C1678 1.399 . S
C1677 C1682 1.399 . S
C1678 C1677 1.399 . S
C1678 C1679 1.376 . S
C1679 H1666 0.930 . S
C1679 C1678 1.376 . S
C1679 C1680 1.388 . S
C1680 H1667 0.930 . S
C1680 C1679 1.388 . S
C1680 C1681 1.390 . S
C1681 C1680 1.390 . S
C1681 C1682 1.394 . S
C1681 C1687 1.465 . S
C1682 C1677 1.399 . S
C1682 C1681 1.394 . S
C1682 C1683 1.516 . S
C1683 C1682 1.516 . S
C1683 C1684 1.502 . S
C1683 C1685 1.561 . S
C1683 C1686 1.526 . S
C1684 H1668 0.959 . S
C1684 H1669 0.959 . S
C1684 H1670 0.961 . S
C1684 C1683 1.502 . S
C1685 H1671 0.960 . S
C1685 H1672 0.961 . S
C1685 H1673 0.959 . S
C1685 C1683 1.561 . S
C1686 C1683 1.526 . S
C1686 C1687 1.396 . S
C1686 C1691 1.390 . S
C1687 C1681 1.465 . S
C1687 C1686 1.396 . S
C1687 C1688 1.399 . S
C1688 H1674 0.929 . S
C1688 C1687 1.399 . S
C1688 C1689 1.385 . S
C1689 H1675 0.931 . S
C1689 C1688 1.385 . S
C1689 C1690 1.389 . S
C1690 C1689 1.389 . S
C1690 C1691 1.387 . S
C1691 H1676 0.930 . S
C1691 C1686 1.390 . S
C1691 C1690 1.387 . S
H1692 C1704 0.930 . S
H1693 C1706 0.930 . S
H1694 C1707 0.930 . S
H1695 C1711 0.959 . S
H1696 C1711 0.959 . S
H1697 C1711 0.961 . S
H1698 C1712 0.960 . S
H1699 C1712 0.961 . S
H1700 C1712 0.959 . S
H1701 C1715 0.929 . S
H1702 C1716 0.931 . S
H1703 C1718 0.930 . S
C1704 H1692 0.930 . S
C1704 C1705 1.399 . S
C1704 C1709 1.399 . S
C1705 C1704 1.399 . S
C1705 C1706 1.376 . S
C1706 H1693 0.930 . S
C1706 C1705 1.376 . S
C1706 C1707 1.388 . S
C1707 H1694 0.930 . S
C1707 C1706 1.388 . S
C1707 C1708 1.390 . S
C1708 C1707 1.390 . S
C1708 C1709 1.394 . S
C1708 C1714 1.465 . S
C1709 C1704 1.399 . S
C1709 C1708 1.394 . S
C1709 C1710 1.516 . S
C1710 C1709 1.516 . S
C1710 C1711 1.502 1_455 S
C1710 C1712 1.561 . S
C1710 C1713 1.526 . S
C1711 H1695 0.959 . S
C1711 H1696 0.959 . S
C1711 H1697 0.961 . S
C1711 C1710 1.502 1_655 S
C1712 H1698 0.960 . S
C1712 H1699 0.961 . S
C1712 H1700 0.959 . S
C1712 C1710 1.561 . S
C1713 C1710 1.526 . S
C1713 C1714 1.396 . S
C1713 C1718 1.390 . S
C1714 C1708 1.465 . S
C1714 C1713 1.396 . S
C1714 C1715 1.399 . S
C1715 H1701 0.929 . S
C1715 C1714 1.399 . S
C1715 C1716 1.385 1_554 S
C1716 H1702 0.931 . S
C1716 C1715 1.385 1_556 S
C1716 C1717 1.389 . S
C1717 C1716 1.389 . S
C1717 C1718 1.387 1_556 S
C1718 H1703 0.930 . S
C1718 C1713 1.390 . S
C1718 C1717 1.387 1_554 S
H1719 C1731 0.930 . S
H1720 C1733 0.930 . S
H1721 C1734 0.930 . S
H1722 C1738 0.959 . S
H1723 C1738 0.959 . S
H1724 C1738 0.961 . S
H1725 C1739 0.960 . S
H1726 C1739 0.961 . S
H1727 C1739 0.959 . S
H1728 C1742 0.929 . S
H1729 C1743 0.931 1_556 S
H1730 C1745 0.930 1_556 S
C1731 H1719 0.930 . S
C1731 C1732 1.399 . S
C1731 C1736 1.399 . S
C1732 C1731 1.399 . S
C1732 C1733 1.376 . S
C1733 H1720 0.930 . S
C1733 C1732 1.376 . S
C1733 C1734 1.388 . S
C1734 H1721 0.930 . S
C1734 C1733 1.388 . S
C1734 C1735 1.390 . S
C1735 C1734 1.390 . S
C1735 C1736 1.394 . S
C1735 C1741 1.465 . S
C1736 C1731 1.399 . S
C1736 C1735 1.394 . S
C1736 C1737 1.516 . S
C1737 C1736 1.516 . S
C1737 C1738 1.502 . S
C1737 C1739 1.561 . S
C1737 C1740 1.526 . S
C1738 H1722 0.959 . S
C1738 H1723 0.959 . S
C1738 H1724 0.961 . S
C1738 C1737 1.502 . S
C1739 H1725 0.960 . S
C1739 H1726 0.961 . S
C1739 H1727 0.959 . S
C1739 C1737 1.561 . S
C1740 C1737 1.526 . S
C1740 C1741 1.396 . S
C1740 C1745 1.390 . S
C1741 C1735 1.465 . S
C1741 C1740 1.396 . S
C1741 C1742 1.399 . S
C1742 H1728 0.929 . S
C1742 C1741 1.399 . S
C1742 C1743 1.385 . S
C1743 H1729 0.931 1_554 S
C1743 C1742 1.385 . S
C1743 C1744 1.389 1_554 S
C1744 C1743 1.389 1_556 S
C1744 C1745 1.387 1_556 S
C1745 H1730 0.930 1_554 S
C1745 C1740 1.390 . S
C1745 C1744 1.387 1_554 S
H1746 C1758 0.930 1_565 S
H1747 C1760 0.930 . S
H1748 C1761 0.930 . S
H1749 C1765 0.959 . S
H1750 C1765 0.959 . S
H1751 C1765 0.961 . S
H1752 C1766 0.960 . S
H1753 C1766 0.961 . S
H1754 C1766 1.007 . S
H1755 C1769 0.929 . S
H1756 C1770 0.934 . S
H1757 C1772 0.930 1_556 S
C1758 H1746 0.930 1_545 S
C1758 C1759 1.399 . S
C1758 C1763 1.399 . S
C1759 C1758 1.399 . S
C1759 C1760 1.376 . S
C1760 H1747 0.930 . S
C1760 C1759 1.376 . S
C1760 C1761 1.388 . S
C1761 H1748 0.930 . S
C1761 C1760 1.388 . S
C1761 C1762 1.390 . S
C1762 C1761 1.390 . S
C1762 C1763 1.394 . S
C1762 C1768 1.465 . S
C1763 C1758 1.399 . S
C1763 C1762 1.394 . S
C1763 C1764 1.489 1_545 S
C1764 C1763 1.489 1_565 S
C1764 C1765 1.562 . S
C1764 C1766 1.558 . S
C1764 C1767 1.492 1_565 S
C1765 H1749 0.959 . S
C1765 H1750 0.959 . S
C1765 H1751 0.961 . S
C1765 C1764 1.562 . S
C1766 H1752 0.960 . S
C1766 H1753 0.961 . S
C1766 H1754 1.007 . S
C1766 C1764 1.558 . S
C1767 C1764 1.492 1_545 S
C1767 C1768 1.396 . S
C1767 C1772 1.390 . S
C1768 C1762 1.465 . S
C1768 C1767 1.396 . S
C1768 C1769 1.399 . S
C1769 H1755 0.929 . S
C1769 C1768 1.399 . S
C1769 C1770 1.380 1_554 S
C1770 H1756 0.934 . S
C1770 C1769 1.380 1_556 S
C1770 C1771 1.392 . S
C1771 C1770 1.392 . S
C1771 C1772 1.387 1_556 S
C1772 H1757 0.930 1_554 S
C1772 C1767 1.390 . S
C1772 C1771 1.387 1_554 S
H1773 C1785 0.930 . S
H1774 C1787 0.930 . S
H1775 C1788 0.930 . S
H1776 C1792 0.959 . S
H1777 C1792 0.959 . S
H1778 C1792 0.961 . S
H1779 C1793 0.960 . S
H1780 C1793 0.961 . S
H1781 C1793 0.959 . S
H1782 C1796 0.933 1_655 S
H1783 C1797 0.931 1_655 S
H1784 C1799 0.930 . S
C1785 H1773 0.930 . S
C1785 C1786 1.399 . S
C1785 C1790 1.399 . S
C1786 C1785 1.399 . S
C1786 C1787 1.376 1_455 S
C1787 H1774 0.930 . S
C1787 C1786 1.376 1_655 S
C1787 C1788 1.388 . S
C1788 H1775 0.930 . S
C1788 C1787 1.388 . S
C1788 C1789 1.390 1_655 S
C1789 C1788 1.390 1_455 S
C1789 C1790 1.394 . S
C1789 C1795 1.465 . S
C1790 C1785 1.399 . S
C1790 C1789 1.394 . S
C1790 C1791 1.516 . S
C1791 C1790 1.516 . S
C1791 C1792 1.502 . S
C1791 C1793 1.561 . S
C1791 C1794 1.526 . S
C1792 H1776 0.959 . S
C1792 H1777 0.959 . S
C1792 H1778 0.961 . S
C1792 C1791 1.502 . S
C1793 H1779 0.960 . S
C1793 H1780 0.961 . S
C1793 H1781 0.959 . S
C1793 C1791 1.561 . S
C1794 C1791 1.526 . S
C1794 C1795 1.396 . S
C1794 C1799 1.390 . S
C1795 C1789 1.465 . S
C1795 C1794 1.396 . S
C1795 C1796 1.396 . S
C1796 H1782 0.933 1_455 S
C1796 C1795 1.396 . S
C1796 C1797 1.384 1_556 S
C1797 H1783 0.931 1_455 S
C1797 C1796 1.384 1_554 S
C1797 C1798 1.389 . S
C1798 C1797 1.389 . S
C1798 C1799 1.387 1_554 S
C1799 H1784 0.930 . S
C1799 C1794 1.390 . S
C1799 C1798 1.387 1_556 S
H1800 C1812 0.930 . S
H1801 C1814 0.930 . S
H1802 C1815 0.930 . S
H1803 C1819 0.959 . S
H1804 C1819 0.959 . S
H1805 C1819 0.961 . S
H1806 C1820 0.960 . S
H1807 C1820 0.961 . S
H1808 C1820 0.959 . S
H1809 C1823 0.929 . S
H1810 C1824 0.931 . S
H1811 C1826 0.930 . S
C1812 H1800 0.930 . S
C1812 C1813 1.399 1_556 S
C1812 C1817 1.399 . S
C1813 C1812 1.399 1_554 S
C1813 C1814 1.376 . S
C1814 H1801 0.930 . S
C1814 C1813 1.376 . S
C1814 C1815 1.388 1_554 S
C1815 H1802 0.930 . S
C1815 C1814 1.388 1_556 S
C1815 C1816 1.390 . S
C1816 C1815 1.390 . S
C1816 C1817 1.394 . S
C1816 C1822 1.465 . S
C1817 C1812 1.399 . S
C1817 C1816 1.394 . S
C1817 C1818 1.516 . S
C1818 C1817 1.516 . S
C1818 C1819 1.502 . S
C1818 C1820 1.561 . S
C1818 C1821 1.526 . S
C1819 H1803 0.959 . S
C1819 H1804 0.959 . S
C1819 H1805 0.961 . S
C1819 C1818 1.502 . S
C1820 H1806 0.960 . S
C1820 H1807 0.961 . S
C1820 H1808 0.959 . S
C1820 C1818 1.561 . S
C1821 C1818 1.526 . S
C1821 C1822 1.396 . S
C1821 C1826 1.390 . S
C1822 C1816 1.465 . S
C1822 C1821 1.396 . S
C1822 C1823 1.399 . S
C1823 H1809 0.929 . S
C1823 C1822 1.399 . S
C1823 C1824 1.385 . S
C1824 H1810 0.931 . S
C1824 C1823 1.385 . S
C1824 C1825 1.389 . S
C1825 C1824 1.389 . S
C1825 C1826 1.387 . S
C1826 H1811 0.930 . S
C1826 C1821 1.390 . S
C1826 C1825 1.387 . S
H1827 C1839 0.930 1_554 S
H1828 C1841 0.930 1_565 S
H1829 C1842 0.930 1_565 S
H1830 C1846 0.959 . S
H1831 C1846 0.959 . S
H1832 C1846 0.961 . S
H1833 C1847 0.960 . S
H1834 C1847 0.961 . S
H1835 C1847 0.959 . S
H1836 C1850 0.929 1_565 S
H1837 C1851 0.931 . S
H1838 C1853 0.930 . S
C1839 H1827 0.930 1_556 S
C1839 C1840 1.399 1_556 S
C1839 C1844 1.399 . S
C1840 C1839 1.399 1_554 S
C1840 C1841 1.376 . S
C1841 H1828 0.930 1_545 S
C1841 C1840 1.376 . S
C1841 C1842 1.388 1_554 S
C1842 H1829 0.930 1_545 S
C1842 C1841 1.388 1_556 S
C1842 C1843 1.390 . S
C1843 C1842 1.390 . S
C1843 C1844 1.394 . S
C1843 C1849 1.465 . S
C1844 C1839 1.399 . S
C1844 C1843 1.394 . S
C1844 C1845 1.516 . S
C1845 C1844 1.516 . S
C1845 C1846 1.502 . S
C1845 C1847 1.561 . S
C1845 C1848 1.526 . S
C1846 H1830 0.959 . S
C1846 H1831 0.959 . S
C1846 H1832 0.961 . S
C1846 C1845 1.502 . S
C1847 H1833 0.960 . S
C1847 H1834 0.961 . S
C1847 H1835 0.959 . S
C1847 C1845 1.561 . S
C1848 C1845 1.526 . S
C1848 C1849 1.396 . S
C1848 C1853 1.390 . S
C1849 C1843 1.465 . S
C1849 C1848 1.396 . S
C1849 C1850 1.399 . S
C1850 H1836 0.929 1_545 S
C1850 C1849 1.399 . S
C1850 C1851 1.385 . S
C1851 H1837 0.931 . S
C1851 C1850 1.385 . S
C1851 C1852 1.389 . S
C1852 C1851 1.389 . S
C1852 C1853 1.387 . S
C1853 H1838 0.930 . S
C1853 C1848 1.390 . S
C1853 C1852 1.387 . S
H1854 C1866 0.930 . S
H1855 C1868 0.930 . S
H1856 C1869 0.930 . S
H1857 C1873 0.959 . S
H1858 C1873 0.959 . S
H1859 C1873 0.961 . S
H1860 C1874 0.960 . S
H1861 C1874 0.961 . S
H1862 C1874 0.959 . S
H1863 C1877 0.929 . S
H1864 C1878 0.931 . S
H1865 C1880 0.930 . S
C1866 H1854 0.930 . S
C1866 C1867 1.399 . S
C1866 C1871 1.399 . S
C1867 C1866 1.399 . S
C1867 C1868 1.376 . S
C1868 H1855 0.930 . S
C1868 C1867 1.376 . S
C1868 C1869 1.388 . S
C1869 H1856 0.930 . S
C1869 C1868 1.388 . S
C1869 C1870 1.390 . S
C1870 C1869 1.390 . S
C1870 C1871 1.394 . S
C1870 C1876 1.465 . S
C1871 C1866 1.399 . S
C1871 C1870 1.394 . S
C1871 C1872 1.516 . S
C1872 C1871 1.516 . S
C1872 C1873 1.502 . S
C1872 C1874 1.561 . S
C1872 C1875 1.526 . S
C1873 H1857 0.959 . S
C1873 H1858 0.959 . S
C1873 H1859 0.961 . S
C1873 C1872 1.502 . S
C1874 H1860 0.960 . S
C1874 H1861 0.961 . S
C1874 H1862 0.959 . S
C1874 C1872 1.561 . S
C1875 C1872 1.526 . S
C1875 C1876 1.396 . S
C1875 C1880 1.390 . S
C1876 C1870 1.465 . S
C1876 C1875 1.396 . S
C1876 C1877 1.399 . S
C1877 H1863 0.929 . S
C1877 C1876 1.399 . S
C1877 C1878 1.385 . S
C1878 H1864 0.931 . S
C1878 C1877 1.385 . S
C1878 C1879 1.389 . S
C1879 C1878 1.389 . S
C1879 C1880 1.387 . S
C1880 H1865 0.930 . S
C1880 C1875 1.390 . S
C1880 C1879 1.387 . S
H1881 C1893 0.930 . S
H1882 C1895 0.930 . S
H1883 C1896 0.930 . S
H1884 C1900 0.959 . S
H1885 C1900 0.959 . S
H1886 C1900 0.961 . S
H1887 C1901 0.960 . S
H1888 C1901 0.961 . S
H1889 C1901 0.959 . S
H1890 C1904 0.929 . S
H1891 C1905 0.931 . S
H1892 C1907 0.930 . S
C1893 H1881 0.930 . S
C1893 C1894 1.399 . S
C1893 C1898 1.399 . S
C1894 C1893 1.399 . S
C1894 C1895 1.376 . S
C1895 H1882 0.930 . S
C1895 C1894 1.376 . S
C1895 C1896 1.388 . S
C1896 H1883 0.930 . S
C1896 C1895 1.388 . S
C1896 C1897 1.390 . S
C1897 C1896 1.390 . S
C1897 C1898 1.394 . S
C1897 C1903 1.465 . S
C1898 C1893 1.399 . S
C1898 C1897 1.394 . S
C1898 C1899 1.516 . S
C1899 C1898 1.516 . S
C1899 C1900 1.502 . S
C1899 C1901 1.561 . S
C1899 C1902 1.526 . S
C1900 H1884 0.959 . S
C1900 H1885 0.959 . S
C1900 H1886 0.961 . S
C1900 C1899 1.502 . S
C1901 H1887 0.960 . S
C1901 H1888 0.961 . S
C1901 H1889 0.959 . S
C1901 C1899 1.561 . S
C1902 C1899 1.526 . S
C1902 C1903 1.396 . S
C1902 C1907 1.390 . S
C1903 C1897 1.465 . S
C1903 C1902 1.396 . S
C1903 C1904 1.399 . S
C1904 H1890 0.929 . S
C1904 C1903 1.399 . S
C1904 C1905 1.385 . S
C1905 H1891 0.931 . S
C1905 C1904 1.385 . S
C1905 C1906 1.389 . S
C1906 C1905 1.389 . S
C1906 C1907 1.387 . S
C1907 H1892 0.930 . S
C1907 C1902 1.390 . S
C1907 C1906 1.387 . S
H1908 C1920 0.930 . S
H1909 C1922 0.930 . S
H1910 C1923 0.930 . S
H1911 C1927 0.959 . S
H1912 C1927 0.959 . S
H1913 C1927 0.961 . S
H1914 C1928 0.960 . S
H1915 C1928 0.961 . S
H1916 C1928 0.959 . S
H1917 C1931 0.929 . S
H1918 C1932 0.931 . S
H1919 C1934 0.930 . S
C1920 H1908 0.930 . S
C1920 C1921 1.399 . S
C1920 C1925 1.399 . S
C1921 C1920 1.399 . S
C1921 C1922 1.376 . S
C1922 H1909 0.930 . S
C1922 C1921 1.376 . S
C1922 C1923 1.388 . S
C1923 H1910 0.930 . S
C1923 C1922 1.388 . S
C1923 C1924 1.390 . S
C1924 C1923 1.390 . S
C1924 C1925 1.394 . S
C1924 C1930 1.465 . S
C1925 C1920 1.399 . S
C1925 C1924 1.394 . S
C1925 C1926 1.516 . S
C1926 C1925 1.516 . S
C1926 C1927 1.502 . S
C1926 C1928 1.561 . S
C1926 C1929 1.526 . S
C1927 H1911 0.959 . S
C1927 H1912 0.959 . S
C1927 H1913 0.961 . S
C1927 C1926 1.502 . S
C1928 H1914 0.960 . S
C1928 H1915 0.961 . S
C1928 H1916 0.959 . S
C1928 C1926 1.561 . S
C1929 C1926 1.526 . S
C1929 C1930 1.396 . S
C1929 C1934 1.390 . S
C1930 C1924 1.465 . S
C1930 C1929 1.396 . S
C1930 C1931 1.399 . S
C1931 H1917 0.929 . S
C1931 C1930 1.399 . S
C1931 C1932 1.385 . S
C1932 H1918 0.931 . S
C1932 C1931 1.385 . S
C1932 C1933 1.389 . S
C1933 C1932 1.389 . S
C1933 C1934 1.387 . S
C1934 H1919 0.930 . S
C1934 C1929 1.390 . S
C1934 C1933 1.387 . S
H1935 C1947 0.930 . S
H1936 C1949 0.930 . S
H1937 C1950 0.930 . S
H1938 C1954 0.959 . S
H1939 C1954 0.959 . S
H1940 C1954 0.961 . S
H1941 C1955 0.960 . S
H1942 C1955 0.961 . S
H1943 C1955 0.959 . S
H1944 C1958 0.929 . S
H1945 C1959 0.931 . S
H1946 C1961 0.930 . S
C1947 H1935 0.930 . S
C1947 C1948 1.399 . S
C1947 C1952 1.399 1_556 S
C1948 C1947 1.399 . S
C1948 C1949 1.376 . S
C1949 H1936 0.930 . S
C1949 C1948 1.376 . S
C1949 C1950 1.388 1_556 S
C1950 H1937 0.930 . S
C1950 C1949 1.388 1_554 S
C1950 C1951 1.390 . S
C1951 C1950 1.390 . S
C1951 C1952 1.394 . S
C1951 C1957 1.465 . S
C1952 C1947 1.399 1_554 S
C1952 C1951 1.394 . S
C1952 C1953 1.516 . S
C1953 C1952 1.516 . S
C1953 C1954 1.502 . S
C1953 C1955 1.561 . S
C1953 C1956 1.526 . S
C1954 H1938 0.959 . S
C1954 H1939 0.959 . S
C1954 H1940 0.961 . S
C1954 C1953 1.502 . S
C1955 H1941 0.960 . S
C1955 H1942 0.961 . S
C1955 H1943 0.959 . S
C1955 C1953 1.561 . S
C1956 C1953 1.526 . S
C1956 C1957 1.396 . S
C1956 C1961 1.390 . S
C1957 C1951 1.465 . S
C1957 C1956 1.396 . S
C1957 C1958 1.399 . S
C1958 H1944 0.929 . S
C1958 C1957 1.399 . S
C1958 C1959 1.385 . S
C1959 H1945 0.931 . S
C1959 C1958 1.385 . S
C1959 C1960 1.389 . S
C1960 C1959 1.389 . S
C1960 C1961 1.387 . S
C1961 H1946 0.930 . S
C1961 C1956 1.390 . S
C1961 C1960 1.387 . S
H1962 C1974 0.930 . S
H1963 C1976 0.930 . S
H1964 C1977 0.930 . S
H1965 C1981 0.959 . S
H1966 C1981 0.959 . S
H1967 C1981 0.961 . S
H1968 C1982 0.960 . S
H1969 C1982 0.961 . S
H1970 C1982 0.959 . S
H1971 C1985 0.929 . S
H1972 C1986 0.931 . S
H1973 C1988 0.930 . S
C1974 H1962 0.930 . S
C1974 C1975 1.399 . S
C1974 C1979 1.399 1_556 S
C1975 C1974 1.399 . S
C1975 C1976 1.376 . S
C1976 H1963 0.930 . S
C1976 C1975 1.376 . S
C1976 C1977 1.388 1_556 S
C1977 H1964 0.930 . S
C1977 C1976 1.388 1_554 S
C1977 C1978 1.390 . S
C1978 C1977 1.390 . S
C1978 C1979 1.394 . S
C1978 C1984 1.465 . S
C1979 C1974 1.399 1_554 S
C1979 C1978 1.394 . S
C1979 C1980 1.516 . S
C1980 C1979 1.516 . S
C1980 C1981 1.502 . S
C1980 C1982 1.561 . S
C1980 C1983 1.526 . S
C1981 H1965 0.959 . S
C1981 H1966 0.959 . S
C1981 H1967 0.961 . S
C1981 C1980 1.502 . S
C1982 H1968 0.960 . S
C1982 H1969 0.961 . S
C1982 H1970 0.959 . S
C1982 C1980 1.561 . S
C1983 C1980 1.526 . S
C1983 C1984 1.396 . S
C1983 C1988 1.390 . S
C1984 C1978 1.465 . S
C1984 C1983 1.396 . S
C1984 C1985 1.399 . S
C1985 H1971 0.929 . S
C1985 C1984 1.399 . S
C1985 C1986 1.385 . S
C1986 H1972 0.931 . S
C1986 C1985 1.385 . S
C1986 C1987 1.389 . S
C1987 C1986 1.389 . S
C1987 C1988 1.387 . S
C1988 H1973 0.930 . S
C1988 C1983 1.390 . S
C1988 C1987 1.387 . S
H1989 C2001 0.930 . S
H1990 C2003 0.930 . S
H1991 C2004 0.930 . S
H1992 C2008 0.959 . S
H1993 C2008 0.959 . S
H1994 C2008 0.961 . S
H1995 C2009 0.960 . S
H1996 C2009 0.961 . S
H1997 C2009 0.959 . S
H1998 C2012 0.929 . S
H1999 C2013 0.931 . S
H2000 C2015 0.930 . S
C2001 H1989 0.930 . S
C2001 C2002 1.399 . S
C2001 C2006 1.399 1_556 S
C2002 C2001 1.399 . S
C2002 C2003 1.376 . S
C2003 H1990 0.930 . S
C2003 C2002 1.376 . S
C2003 C2004 1.388 1_556 S
C2004 H1991 0.930 . S
C2004 C2003 1.388 1_554 S
C2004 C2005 1.390 . S
C2005 C2004 1.390 . S
C2005 C2006 1.394 . S
C2005 C2011 1.465 . S
C2006 C2001 1.399 1_554 S
C2006 C2005 1.394 . S
C2006 C2007 1.516 . S
C2007 C2006 1.516 . S
C2007 C2008 1.502 . S
C2007 C2009 1.561 . S
C2007 C2010 1.526 . S
C2008 H1992 0.959 . S
C2008 H1993 0.959 . S
C2008 H1994 0.961 . S
C2008 C2007 1.502 . S
C2009 H1995 0.960 . S
C2009 H1996 0.961 . S
C2009 H1997 0.959 . S
C2009 C2007 1.561 . S
C2010 C2007 1.526 . S
C2010 C2011 1.396 . S
C2010 C2015 1.390 . S
C2011 C2005 1.465 . S
C2011 C2010 1.396 . S
C2011 C2012 1.399 . S
C2012 H1998 0.929 . S
C2012 C2011 1.399 . S
C2012 C2013 1.385 . S
C2013 H1999 0.931 . S
C2013 C2012 1.385 . S
C2013 C2014 1.389 . S
C2014 C2013 1.389 . S
C2014 C2015 1.387 . S
C2015 H2000 0.930 . S
C2015 C2010 1.390 . S
C2015 C2014 1.387 . S
H2016 C2028 0.930 . S
H2017 C2030 0.930 . S
H2018 C2031 0.930 . S
H2019 C2035 0.959 . S
H2020 C2035 0.959 . S
H2021 C2035 0.961 . S
H2022 C2036 0.960 . S
H2023 C2036 0.961 . S
H2024 C2036 0.959 . S
H2025 C2039 0.929 . S
H2026 C2040 0.931 . S
H2027 C2042 0.930 . S
C2028 H2016 0.930 . S
C2028 C2029 1.399 . S
C2028 C2033 1.399 . S
C2029 C2028 1.399 . S
C2029 C2030 1.376 . S
C2030 H2017 0.930 . S
C2030 C2029 1.376 . S
C2030 C2031 1.388 . S
C2031 H2018 0.930 . S
C2031 C2030 1.388 . S
C2031 C2032 1.390 . S
C2032 C2031 1.390 . S
C2032 C2033 1.394 . S
C2032 C2038 1.465 . S
C2033 C2028 1.399 . S
C2033 C2032 1.394 . S
C2033 C2034 1.516 . S
C2034 C2033 1.516 . S
C2034 C2035 1.502 . S
C2034 C2036 1.561 . S
C2034 C2037 1.526 . S
C2035 H2019 0.959 . S
C2035 H2020 0.959 . S
C2035 H2021 0.961 . S
C2035 C2034 1.502 . S
C2036 H2022 0.960 . S
C2036 H2023 0.961 . S
C2036 H2024 0.959 . S
C2036 C2034 1.561 . S
C2037 C2034 1.526 . S
C2037 C2038 1.396 . S
C2037 C2042 1.390 1_556 S
C2038 C2032 1.465 . S
C2038 C2037 1.396 . S
C2038 C2039 1.399 . S
C2039 H2025 0.929 . S
C2039 C2038 1.399 . S
C2039 C2040 1.385 1_556 S
C2040 H2026 0.931 . S
C2040 C2039 1.385 1_554 S
C2040 C2041 1.389 . S
C2041 C2040 1.389 . S
C2041 C2042 1.387 . S
C2042 H2027 0.930 . S
C2042 C2037 1.390 1_554 S
C2042 C2041 1.387 . S
H2043 C2055 0.930 1_554 S
H2044 C2057 0.930 . S
H2045 C2058 0.930 . S
H2046 C2062 0.959 . S
H2047 C2062 0.959 . S
H2048 C2062 0.961 . S
H2049 C2063 0.960 . S
H2050 C2063 0.961 . S
H2051 C2063 0.959 . S
H2052 C2066 0.929 . S
H2053 C2067 0.931 . S
H2054 C2069 0.930 . S
C2055 H2043 0.930 1_556 S
C2055 C2056 1.399 1_556 S
C2055 C2060 1.399 . S
C2056 C2055 1.399 1_554 S
C2056 C2057 1.376 . S
C2057 H2044 0.930 . S
C2057 C2056 1.376 . S
C2057 C2058 1.388 1_554 S
C2058 H2045 0.930 . S
C2058 C2057 1.388 1_556 S
C2058 C2059 1.390 . S
C2059 C2058 1.390 . S
C2059 C2060 1.394 . S
C2059 C2065 1.465 . S
C2060 C2055 1.399 . S
C2060 C2059 1.394 . S
C2060 C2061 1.516 . S
C2061 C2060 1.516 . S
C2061 C2062 1.502 . S
C2061 C2063 1.561 . S
C2061 C2064 1.526 . S
C2062 H2046 0.959 . S
C2062 H2047 0.959 . S
C2062 H2048 0.961 . S
C2062 C2061 1.502 . S
C2063 H2049 0.960 . S
C2063 H2050 0.961 . S
C2063 H2051 0.959 . S
C2063 C2061 1.561 . S
C2064 C2061 1.526 . S
C2064 C2065 1.396 . S
C2064 C2069 1.390 . S
C2065 C2059 1.465 . S
C2065 C2064 1.396 . S
C2065 C2066 1.399 . S
C2066 H2052 0.929 . S
C2066 C2065 1.399 . S
C2066 C2067 1.385 . S
C2067 H2053 0.931 . S
C2067 C2066 1.385 . S
C2067 C2068 1.389 . S
C2068 C2067 1.389 . S
C2068 C2069 1.387 . S
C2069 H2054 0.930 . S
C2069 C2064 1.390 . S
C2069 C2068 1.387 . S
H2070 C2082 0.930 1_554 S
H2071 C2084 0.930 . S
H2072 C2085 0.930 . S
H2073 C2089 0.959 . S
H2074 C2089 0.959 . S
H2075 C2089 0.961 . S
H2076 C2090 0.960 . S
H2077 C2090 0.961 . S
H2078 C2090 0.959 . S
H2079 C2093 0.929 . S
H2080 C2094 0.931 . S
H2081 C2096 0.930 . S
C2082 H2070 0.930 1_556 S
C2082 C2083 1.399 1_556 S
C2082 C2087 1.399 . S
C2083 C2082 1.399 1_554 S
C2083 C2084 1.376 . S
C2084 H2071 0.930 . S
C2084 C2083 1.376 . S
C2084 C2085 1.388 1_554 S
C2085 H2072 0.930 . S
C2085 C2084 1.388 1_556 S
C2085 C2086 1.390 . S
C2086 C2085 1.390 . S
C2086 C2087 1.394 . S
C2086 C2092 1.465 . S
C2087 C2082 1.399 . S
C2087 C2086 1.394 . S
C2087 C2088 1.516 . S
C2088 C2087 1.516 . S
C2088 C2089 1.502 . S
C2088 C2090 1.561 . S
C2088 C2091 1.526 . S
C2089 H2073 0.959 . S
C2089 H2074 0.959 . S
C2089 H2075 0.961 . S
C2089 C2088 1.502 . S
C2090 H2076 0.960 . S
C2090 H2077 0.961 . S
C2090 H2078 0.959 . S
C2090 C2088 1.561 . S
C2091 C2088 1.526 . S
C2091 C2092 1.396 . S
C2091 C2096 1.390 . S
C2092 C2086 1.465 . S
C2092 C2091 1.396 . S
C2092 C2093 1.399 . S
C2093 H2079 0.929 . S
C2093 C2092 1.399 . S
C2093 C2094 1.385 . S
C2094 H2080 0.931 . S
C2094 C2093 1.385 . S
C2094 C2095 1.389 . S
C2095 C2094 1.389 . S
C2095 C2096 1.387 . S
C2096 H2081 0.930 . S
C2096 C2091 1.390 . S
C2096 C2095 1.387 . S
H2097 C2109 0.930 . S
H2098 C2111 0.930 . S
H2099 C2112 0.930 . S
H2100 C2116 0.959 . S
H2101 C2116 0.959 . S
H2102 C2116 0.961 . S
H2103 C2117 0.960 . S
H2104 C2117 0.961 . S
H2105 C2117 0.959 . S
H2106 C2120 0.929 . S
H2107 C2121 0.931 . S
H2108 C2123 0.930 . S
C2109 H2097 0.930 . S
C2109 C2110 1.399 . S
C2109 C2114 1.399 . S
C2110 C2109 1.399 . S
C2110 C2111 1.376 . S
C2111 H2098 0.930 . S
C2111 C2110 1.376 . S
C2111 C2112 1.388 . S
C2112 H2099 0.930 . S
C2112 C2111 1.388 . S
C2112 C2113 1.390 . S
C2113 C2112 1.390 . S
C2113 C2114 1.394 . S
C2113 C2119 1.465 . S
C2114 C2109 1.399 . S
C2114 C2113 1.394 . S
C2114 C2115 1.516 . S
C2115 C2114 1.516 . S
C2115 C2116 1.502 . S
C2115 C2117 1.561 . S
C2115 C2118 1.526 . S
C2116 H2100 0.959 . S
C2116 H2101 0.959 . S
C2116 H2102 0.961 . S
C2116 C2115 1.502 . S
C2117 H2103 0.960 . S
C2117 H2104 0.961 . S
C2117 H2105 0.959 . S
C2117 C2115 1.561 . S
C2118 C2115 1.526 . S
C2118 C2119 1.396 . S
C2118 C2123 1.390 . S
C2119 C2113 1.465 . S
C2119 C2118 1.396 . S
C2119 C2120 1.399 . S
C2120 H2106 0.929 . S
C2120 C2119 1.399 . S
C2120 C2121 1.385 . S
C2121 H2107 0.931 . S
C2121 C2120 1.385 . S
C2121 C2122 1.389 . S
C2122 C2121 1.389 . S
C2122 C2123 1.387 . S
C2123 H2108 0.930 . S
C2123 C2118 1.390 . S
C2123 C2122 1.387 . S
H2124 C2136 0.930 . S
H2125 C2138 0.930 . S
H2126 C2139 0.930 . S
H2127 C2143 0.959 . S
H2128 C2143 0.959 . S
H2129 C2143 0.961 . S
H2130 C2144 0.960 . S
H2131 C2144 0.961 . S
H2132 C2144 0.959 . S
H2133 C2147 0.929 . S
H2134 C2148 0.931 . S
H2135 C2150 0.930 . S
C2136 H2124 0.930 . S
C2136 C2137 1.399 . S
C2136 C2141 1.399 . S
C2137 C2136 1.399 . S
C2137 C2138 1.376 . S
C2138 H2125 0.930 . S
C2138 C2137 1.376 . S
C2138 C2139 1.388 . S
C2139 H2126 0.930 . S
C2139 C2138 1.388 . S
C2139 C2140 1.390 . S
C2140 C2139 1.390 . S
C2140 C2141 1.394 . S
C2140 C2146 1.465 . S
C2141 C2136 1.399 . S
C2141 C2140 1.394 . S
C2141 C2142 1.516 . S
C2142 C2141 1.516 . S
C2142 C2143 1.502 . S
C2142 C2144 1.561 . S
C2142 C2145 1.526 . S
C2143 H2127 0.959 . S
C2143 H2128 0.959 . S
C2143 H2129 0.961 . S
C2143 C2142 1.502 . S
C2144 H2130 0.960 . S
C2144 H2131 0.961 . S
C2144 H2132 0.959 . S
C2144 C2142 1.561 . S
C2145 C2142 1.526 . S
C2145 C2146 1.396 . S
C2145 C2150 1.390 . S
C2146 C2140 1.465 . S
C2146 C2145 1.396 . S
C2146 C2147 1.399 . S
C2147 H2133 0.929 . S
C2147 C2146 1.399 . S
C2147 C2148 1.385 . S
C2148 H2134 0.931 . S
C2148 C2147 1.385 . S
C2148 C2149 1.389 . S
C2149 C2148 1.389 . S
C2149 C2150 1.387 . S
C2150 H2135 0.930 . S
C2150 C2145 1.390 . S
C2150 C2149 1.387 . S
H2151 C2163 0.930 . S
H2152 C2165 0.930 . S
H2153 C2166 0.930 . S
H2154 C2170 0.959 . S
H2155 C2170 0.959 . S
H2156 C2170 0.961 . S
H2157 C2171 0.960 . S
H2158 C2171 0.961 . S
H2159 C2171 0.959 . S
H2160 C2174 0.929 . S
H2161 C2175 0.931 . S
H2162 C2177 0.930 . S
C2163 H2151 0.930 . S
C2163 C2164 1.399 . S
C2163 C2168 1.399 . S
C2164 C2163 1.399 . S
C2164 C2165 1.376 . S
C2165 H2152 0.930 . S
C2165 C2164 1.376 . S
C2165 C2166 1.388 . S
C2166 H2153 0.930 . S
C2166 C2165 1.388 . S
C2166 C2167 1.390 . S
C2167 C2166 1.390 . S
C2167 C2168 1.394 . S
C2167 C2173 1.465 . S
C2168 C2163 1.399 . S
C2168 C2167 1.394 . S
C2168 C2169 1.516 . S
C2169 C2168 1.516 . S
C2169 C2170 1.502 . S
C2169 C2171 1.561 . S
C2169 C2172 1.526 . S
C2170 H2154 0.959 . S
C2170 H2155 0.959 . S
C2170 H2156 0.961 . S
C2170 C2169 1.502 . S
C2171 H2157 0.960 . S
C2171 H2158 0.961 . S
C2171 H2159 0.959 . S
C2171 C2169 1.561 . S
C2172 C2169 1.526 . S
C2172 C2173 1.396 . S
C2172 C2177 1.390 . S
C2173 C2167 1.465 . S
C2173 C2172 1.396 . S
C2173 C2174 1.399 . S
C2174 H2160 0.929 . S
C2174 C2173 1.399 . S
C2174 C2175 1.385 . S
C2175 H2161 0.931 . S
C2175 C2174 1.385 . S
C2175 C2176 1.389 . S
C2176 C2175 1.389 . S
C2176 C2177 1.387 . S
C2177 H2162 0.930 . S
C2177 C2172 1.390 . S
C2177 C2176 1.387 . S
C733 C535 1.655 . S
C745 C18 1.669 . S
C760 C58 1.686 . S
C772 C575 1.726 . S
C787 C98 1.728 . S
C799 C495 1.707 . S
C814 C95 1.732 . S
C826 C298 1.718 . S
C841 C338 1.729 . S
C853 C15 1.697 . S
C868 C55 1.655 . S
C880 C258 1.676 . S
C895 C129 1.685 . S
C907 C406 1.675 . S
C922 C169 1.720 . S
C934 C446 1.731 . S
C949 C366 1.702 . S
C961 C209 1.680 . S
C976 C649 1.698 . S
C988 C206 1.715 . S
C1003 C126 1.685 . S
C1015 C689 1.701 . S
C1030 C609 1.724 . S
C1042 C166 1.731 . S
C1057 C335 1.738 1_455 S
C1069 C538 1.699 . S
C1084 C255 1.675 . S
C1096 C578 1.663 . S
C1111 C295 1.742 . S
C1123 C498 1.724 . S
C1138 C369 1.696 . S
C1150 C646 1.690 1_545 S
C1165 C686 1.700 . S
C1177 C409 1.678 . S
C1192 C606 1.711 . S
C1204 C449 1.689 . S
C1219 C6 1.850 . S
C1231 C178 1.876 . S
C1246 C218 1.876 1_565 S
C1258 C46 1.864 . S
C1273 C138 1.877 . S
C1285 C86 1.858 . S
C1300 C175 1.856 . S
C1312 C89 1.873 . S
C1327 C215 1.825 . S
C1339 C9 1.860 1_655 S
C1354 C135 1.834 . S
C1366 C49 1.876 . S
C1381 C418 1.847 . S
C1393 C246 1.834 . S
C1408 C458 1.838 . S
C1420 C286 1.845 . S
C1435 C378 1.880 . S
C1447 C326 1.877 . S
C1462 C415 1.843 . S
C1474 C329 1.876 . S
C1489 C455 1.821 . S
C1501 C249 1.862 1_556 S
C1516 C375 1.872 . S
C1528 C289 1.851 . S
C1543 C658 1.827 1_554 S
C1555 C486 1.839 . S
C1570 C698 1.855 . S
C1582 C526 1.873 . S
C1597 C566 1.871 . S
C1609 C618 1.850 . S
C1624 C569 1.851 . S
C1636 C655 1.882 . S
C1651 C489 1.845 . S
C1663 C695 1.880 . S
C1678 C615 1.834 . S
C1690 C529 1.859 . S
C1705 C10 1.873 . S
C1717 C19 1.823 . S
C1732 C50 1.818 . S
C1744 C59 1.874 . S
C1759 C90 1.823 . S
C1771 C99 1.873 . S
C1786 C139 1.870 . S
C1798 C130 1.819 . S
C1813 C170 1.817 . S
C1825 C179 1.873 . S
C1840 C210 1.857 . S
C1852 C219 1.829 . S
C1867 C259 1.868 . S
C1879 C250 1.826 . S
C1894 C290 1.872 . S
C1906 C299 1.817 . S
C1921 C339 1.826 . S
C1933 C330 1.855 . S
C1948 C379 1.871 . S
C1960 C370 1.827 . S
C1975 C419 1.848 . S
C1987 C410 1.836 . S
C2002 C459 1.869 . S
C2014 C450 1.819 . S
C2029 C499 1.822 . S
C2041 C490 1.864 . S
C2056 C530 1.817 . S
C2068 C539 1.872 . S
C2083 C570 1.834 . S
C2095 C579 1.865 . S
C2110 C610 1.827 . S
C2122 C619 1.854 . S
C2137 C650 1.816 . S
C2149 C659 1.871 . S
C2164 C699 1.821 . S
C2176 C690 1.871 . S
