# Generated by pormake.
# Topology zfo, (5)-cn, num edge types: 1
# Building blocks:
#     Node 0, Type 0, BuildingBlock: XOMCOT_clean_sbu_1, # of connection points: 5
#     Node 1, Type 0, BuildingBlock: XOMCOT_clean_sbu_1, # of connection points: 5
#     Node 2, Type 0, BuildingBlock: XOMCOT_clean_sbu_1, # of connection points: 5
#     Node 3, Type 0, BuildingBlock: XOMCOT_clean_sbu_1, # of connection points: 5
#     Node 4, Type 0, BuildingBlock: XOMCOT_clean_sbu_1, # of connection points: 5
#     Node 5, Type 0, BuildingBlock: XOMCOT_clean_sbu_1, # of connection points: 5
#     Node 6, Type 0, BuildingBlock: XOMCOT_clean_sbu_1, # of connection points: 5
#     Node 7, Type 0, BuildingBlock: XOMCOT_clean_sbu_1, # of connection points: 5
#     Node 8, Type 0, BuildingBlock: XOMCOT_clean_sbu_1, # of connection points: 5
#     Node 9, Type 0, BuildingBlock: XOMCOT_clean_sbu_1, # of connection points: 5
#     Node 10, Type 0, BuildingBlock: XOMCOT_clean_sbu_1, # of connection points: 5
#     Node 11, Type 0, BuildingBlock: XOMCOT_clean_sbu_1, # of connection points: 5
#     Node 12, Type 0, BuildingBlock: XOMCOT_clean_sbu_1, # of connection points: 5
#     Node 13, Type 0, BuildingBlock: XOMCOT_clean_sbu_1, # of connection points: 5
#     Node 14, Type 0, BuildingBlock: XOMCOT_clean_sbu_1, # of connection points: 5
#     Node 15, Type 0, BuildingBlock: XOMCOT_clean_sbu_1, # of connection points: 5
#     Edge 16, Type (0, 0), BuildingBlock: TEMPAE_clean_linker_10, # of connection points: 2
#     Edge 17, Type (0, 0), BuildingBlock: TEMPAE_clean_linker_10, # of connection points: 2
#     Edge 18, Type (0, 0), BuildingBlock: TEMPAE_clean_linker_10, # of connection points: 2
#     Edge 19, Type (0, 0), BuildingBlock: TEMPAE_clean_linker_10, # of connection points: 2
#     Edge 20, Type (0, 0), BuildingBlock: TEMPAE_clean_linker_10, # of connection points: 2
#     Edge 21, Type (0, 0), BuildingBlock: TEMPAE_clean_linker_10, # of connection points: 2
#     Edge 22, Type (0, 0), BuildingBlock: TEMPAE_clean_linker_10, # of connection points: 2
#     Edge 23, Type (0, 0), BuildingBlock: TEMPAE_clean_linker_10, # of connection points: 2
#     Edge 24, Type (0, 0), BuildingBlock: TEMPAE_clean_linker_10, # of connection points: 2
#     Edge 25, Type (0, 0), BuildingBlock: TEMPAE_clean_linker_10, # of connection points: 2
#     Edge 26, Type (0, 0), BuildingBlock: TEMPAE_clean_linker_10, # of connection points: 2
#     Edge 27, Type (0, 0), BuildingBlock: TEMPAE_clean_linker_10, # of connection points: 2
#     Edge 28, Type (0, 0), BuildingBlock: TEMPAE_clean_linker_10, # of connection points: 2
#     Edge 29, Type (0, 0), BuildingBlock: TEMPAE_clean_linker_10, # of connection points: 2
#     Edge 30, Type (0, 0), BuildingBlock: TEMPAE_clean_linker_10, # of connection points: 2
#     Edge 31, Type (0, 0), BuildingBlock: TEMPAE_clean_linker_10, # of connection points: 2
#     Edge 32, Type (0, 0), BuildingBlock: TEMPAE_clean_linker_10, # of connection points: 2
#     Edge 33, Type (0, 0), BuildingBlock: TEMPAE_clean_linker_10, # of connection points: 2
#     Edge 34, Type (0, 0), BuildingBlock: TEMPAE_clean_linker_10, # of connection points: 2
#     Edge 35, Type (0, 0), BuildingBlock: TEMPAE_clean_linker_10, # of connection points: 2
#     Edge 36, Type (0, 0), BuildingBlock: TEMPAE_clean_linker_10, # of connection points: 2
#     Edge 37, Type (0, 0), BuildingBlock: TEMPAE_clean_linker_10, # of connection points: 2
#     Edge 38, Type (0, 0), BuildingBlock: TEMPAE_clean_linker_10, # of connection points: 2
#     Edge 39, Type (0, 0), BuildingBlock: TEMPAE_clean_linker_10, # of connection points: 2
#     Edge 40, Type (0, 0), BuildingBlock: TEMPAE_clean_linker_10, # of connection points: 2
#     Edge 41, Type (0, 0), BuildingBlock: TEMPAE_clean_linker_10, # of connection points: 2
#     Edge 42, Type (0, 0), BuildingBlock: TEMPAE_clean_linker_10, # of connection points: 2
#     Edge 43, Type (0, 0), BuildingBlock: TEMPAE_clean_linker_10, # of connection points: 2
#     Edge 44, Type (0, 0), BuildingBlock: TEMPAE_clean_linker_10, # of connection points: 2
#     Edge 45, Type (0, 0), BuildingBlock: TEMPAE_clean_linker_10, # of connection points: 2
#     Edge 46, Type (0, 0), BuildingBlock: TEMPAE_clean_linker_10, # of connection points: 2
#     Edge 47, Type (0, 0), BuildingBlock: TEMPAE_clean_linker_10, # of connection points: 2
#     Edge 48, Type (0, 0), BuildingBlock: TEMPAE_clean_linker_10, # of connection points: 2
#     Edge 49, Type (0, 0), BuildingBlock: TEMPAE_clean_linker_10, # of connection points: 2
#     Edge 50, Type (0, 0), BuildingBlock: TEMPAE_clean_linker_10, # of connection points: 2
#     Edge 51, Type (0, 0), BuildingBlock: TEMPAE_clean_linker_10, # of connection points: 2
#     Edge 52, Type (0, 0), BuildingBlock: TEMPAE_clean_linker_10, # of connection points: 2
#     Edge 53, Type (0, 0), BuildingBlock: TEMPAE_clean_linker_10, # of connection points: 2
#     Edge 54, Type (0, 0), BuildingBlock: TEMPAE_clean_linker_10, # of connection points: 2
#     Edge 55, Type (0, 0), BuildingBlock: TEMPAE_clean_linker_10, # of connection points: 2
# Relax obj value: 0.175
# Max RMSD: 0.150
# Mean RMSD: 0.150
data_MOF--net-zfo--node1-XOMCOT_clean_sbu_1--edge1-TEMPAE_clean_linker_10
_symmetry_space_group_name_H-M    P1
_symmetry_Int_Tables_number       1
_symmetry_cell_setting            triclinic
loop_
_symmetry_equiv_pos_as_xyz
'x, y, z'
_cell_length_a     35.564902
_cell_length_b     35.53995
_cell_length_c     52.094745
_cell_angle_alpha  90.053013
_cell_angle_beta   90.010351
_cell_angle_gamma 90.086389
loop_
_atom_site_label
_atom_site_type_symbol
_atom_site_fract_x
_atom_site_fract_y
_atom_site_fract_z
_atom_type_partial_charge
C0 C 0.01688 0.22839 0.17748 0.0
C1 C 0.97885 0.22247 0.17713 0.0
N2 N 0.96359 0.24452 0.15883 0.0
N3 N 0.02592 0.25438 0.15974 0.0
C4 C 0.99288 0.26381 0.14864 0.0
H5 H 0.03688 0.21409 0.18966 0.0
Co6 Co 0.07549 0.2684 0.15383 0.0
C7 C 0.07973 0.30025 0.1017 0.0
O8 O 0.11251 0.28352 0.09971 0.0
N9 N 0.1264 0.28274 0.14916 0.0
C10 C 0.1758 0.32059 0.14375 0.0
C11 C 0.13751 0.319 0.14674 0.0
C12 C 0.15894 0.26292 0.14821 0.0
N13 N 0.18926 0.28529 0.14464 0.0
O14 O 0.06879 0.31204 0.17526 0.0
H15 H 0.11878 0.34294 0.14676 0.0
H16 H 0.16082 0.23275 0.14977 0.0
O17 O 0.06068 0.2968 0.1225 0.0
C18 C 0.07351 0.30342 0.1988 0.0
O19 O 0.08076 0.26819 0.20454 0.0
N20 N 0.08141 0.22336 0.13513 0.0
C21 C 0.07582 0.14855 0.11886 0.0
C22 C 0.05968 0.17764 0.10445 0.0
C23 C 0.06212 0.21473 0.11316 0.0
C24 C 0.09757 0.19539 0.14919 0.0
C25 C 0.09576 0.15794 0.14119 0.0
H26 H 0.04563 0.23557 0.10327 0.0
H27 H 0.10965 0.20186 0.16773 0.0
H28 H 0.9905 0.28359 0.13298 0.0
H29 H 0.96375 0.20331 0.18954 0.0
H30 H 0.19254 0.34585 0.14154 0.0
H31 H 0.04337 0.17156 0.08737 0.0
H32 H 0.10742 0.1363 0.15345 0.0
C33 C 0.79235 0.9852 0.67204 0.0
C34 C 0.7917 0.94896 0.68098 0.0
N35 N 0.7567 0.93518 0.67796 0.0
N36 N 0.75814 0.99444 0.66283 0.0
C37 C 0.73659 0.96378 0.66766 0.0
H38 H 0.81669 0.00343 0.67177 0.0
Co39 Co 0.74847 0.04188 0.64823 0.0
C40 C 0.70547 0.99143 0.609 0.0
O41 O 0.71775 0.95834 0.6163 0.0
N42 N 0.74005 0.08971 0.63432 0.0
C43 C 0.7334 0.13616 0.60622 0.0
C44 C 0.73413 0.09787 0.60936 0.0
C45 C 0.74331 0.12361 0.64594 0.0
N46 N 0.73952 0.15254 0.62921 0.0
O47 O 0.70625 0.04839 0.6709 0.0
H48 H 0.73218 0.07742 0.59406 0.0
H49 H 0.75011 0.12689 0.66606 0.0
O50 O 0.71623 0.02115 0.62082 0.0
C51 C 0.71808 0.05817 0.69308 0.0
O52 O 0.75462 0.06036 0.69661 0.0
N53 N 0.79179 0.03755 0.62777 0.0
C54 C 0.86343 0.03222 0.60613 0.0
C55 C 0.8339 0.00932 0.59736 0.0
C56 C 0.79832 0.01221 0.60857 0.0
C57 C 0.81969 0.06112 0.63574 0.0
C58 C 0.85565 0.05895 0.62524 0.0
H59 H 0.77697 0.9929 0.60239 0.0
H60 H 0.81442 0.0805 0.65134 0.0
H61 H 0.70688 0.96215 0.66333 0.0
H62 H 0.81575 0.9333 0.68787 0.0
H63 H 0.72918 0.15066 0.58821 0.0
H64 H 0.83851 0.98846 0.58252 0.0
H65 H 0.87758 0.0767 0.63311 0.0
C66 C 0.01737 0.76677 0.18858 0.0
C67 C 0.05539 0.76307 0.19266 0.0
N68 N 0.0712 0.74968 0.17103 0.0
N69 N 0.00889 0.75534 0.16457 0.0
C70 C 0.04241 0.74515 0.1543 0.0
H71 H 0.99743 0.77836 0.20206 0.0
Co72 Co 0.96077 0.75877 0.14988 0.0
C73 C 0.96994 0.69986 0.10957 0.0
O74 O 0.95085 0.67507 0.12298 0.0
N75 N 0.91235 0.76268 0.13478 0.0
C76 C 0.86881 0.77118 0.10466 0.0
C77 C 0.90659 0.7693 0.10958 0.0
C78 C 0.87718 0.76121 0.14485 0.0
N79 N 0.85002 0.76631 0.12686 0.0
O80 O 0.9461 0.71337 0.16771 0.0
H81 H 0.92857 0.77317 0.09553 0.0
H82 H 0.87151 0.75738 0.16504 0.0
O83 O 0.97722 0.73204 0.11925 0.0
C84 C 0.93218 0.72277 0.1894 0.0
O85 O 0.92933 0.75884 0.19466 0.0
N86 N 0.97433 0.80474 0.13532 0.0
C87 C 0.99652 0.87798 0.12355 0.0
C88 C 0.01388 0.84706 0.11166 0.0
C89 C 1.00241 0.8105 0.11787 0.0
C90 C 0.95634 0.83436 0.14637 0.0
C91 C 0.96669 0.87119 0.14058 0.0
H92 H 0.01729 0.78704 0.10954 0.0
H93 H 0.93454 0.82925 0.16042 0.0
H94 H 0.04587 0.73524 0.13481 0.0
H95 H 0.07047 0.77113 0.20986 0.0
H96 H 0.85635 0.77573 0.08598 0.0
H97 H 0.03727 0.85097 0.09862 0.0
H98 H 0.95202 0.89414 0.14988 0.0
C99 C 0.22609 0.01435 0.66571 0.0
C100 C 0.22924 0.05072 0.67404 0.0
N101 N 0.26236 0.06458 0.6659 0.0
N102 N 0.25665 0.00488 0.65179 0.0
C103 C 0.279 0.03585 0.65306 0.0
H104 H 0.20236 0.99602 0.66917 0.0
Co105 Co 0.2588 0.95621 0.63727 0.0
C106 C 0.29871 0.99942 0.59244 0.0
O107 O 0.29306 0.03421 0.59989 0.0
N108 N 0.25942 0.9071 0.62363 0.0
C109 C 0.24827 0.85974 0.59667 0.0
C110 C 0.25077 0.89813 0.59911 0.0
C111 C 0.26219 0.87348 0.63572 0.0
N112 N 0.25541 0.84429 0.6197 0.0
O113 O 0.30443 0.94612 0.65617 0.0
H114 H 0.24439 0.91832 0.58423 0.0
H115 H 0.26679 0.87039 0.65613 0.0
O116 O 0.28665 0.97206 0.60617 0.0
C117 C 0.29439 0.93617 0.67873 0.0
O118 O 0.25823 0.93608 0.684 0.0
N119 N 0.21229 0.96467 0.62119 0.0
C120 C 0.13786 0.97776 0.60725 0.0
C121 C 0.16699 0.99904 0.59639 0.0
C122 C 0.20418 0.9923 0.60385 0.0
C123 C 0.18434 0.94288 0.63116 0.0
C124 C 0.14697 0.94884 0.6244 0.0
H125 H 0.2258 0.0106 0.59667 0.0
H126 H 0.19102 0.92175 0.64537 0.0
H127 H 0.30695 0.0374 0.64501 0.0
H128 H 0.20784 0.06637 0.68424 0.0
H129 H 0.24068 0.84437 0.57947 0.0
H130 H 0.16092 0.022 0.58338 0.0
H131 H 0.12524 0.93174 0.63315 0.0
C132 C 0.49431 0.25694 0.82571 0.0
C133 C 0.45618 0.25472 0.82194 0.0
N134 N 0.44061 0.23848 0.84272 0.0
N135 N 0.5031 0.24195 0.84869 0.0
C136 C 0.46968 0.23068 0.85859 0.0
H137 H 0.51402 0.27081 0.81308 0.0
Co138 Co 0.5511 0.24616 0.86321 0.0
C139 C 0.53071 0.18806 0.90356 0.0
O140 O 0.53569 0.15833 0.88897 0.0
N141 N 0.59937 0.25105 0.87787 0.0
C142 C 0.64437 0.26397 0.9063 0.0
C143 C 0.60626 0.26074 0.90252 0.0
C144 C 0.63394 0.24834 0.8671 0.0
N145 N 0.66174 0.25611 0.88401 0.0
O146 O 0.56601 0.19997 0.84649 0.0
H147 H 0.58485 0.26598 0.9168 0.0
H148 H 0.63888 0.24195 0.8471 0.0
O149 O 0.53541 0.22089 0.89428 0.0
C150 C 0.57829 0.20853 0.82419 0.0
O151 O 0.57922 0.24434 0.81793 0.0
N152 N 0.53733 0.29267 0.87712 0.0
C153 C 0.51705 0.36573 0.89083 0.0
C154 C 0.49857 0.33462 0.90164 0.0
C155 C 0.50907 0.29821 0.89446 0.0
C156 C 0.55574 0.32247 0.86656 0.0
C157 C 0.54627 0.35924 0.87328 0.0
H158 H 0.49363 0.2747 0.90226 0.0
H159 H 0.57738 0.3176 0.85235 0.0
H160 H 0.46626 0.21965 0.87779 0.0
H161 H 0.44092 0.26572 0.80561 0.0
H162 H 0.65825 0.27155 0.92407 0.0
H163 H 0.47582 0.3384 0.91521 0.0
H164 H 0.56073 0.38238 0.86403 0.0
C165 C 0.74376 0.51574 0.33663 0.0
C166 C 0.73937 0.47783 0.33275 0.0
N167 N 0.75575 0.45935 0.35239 0.0
N168 N 0.76316 0.52154 0.35848 0.0
C169 C 0.77043 0.48663 0.36758 0.0
H170 H 0.73237 0.53778 0.32466 0.0
Co171 Co 0.7718 0.56961 0.37177 0.0
C172 C 0.78667 0.56012 0.42664 0.0
O173 O 0.76385 0.58888 0.42946 0.0
N174 N 0.7817 0.61911 0.38408 0.0
C175 C 0.81573 0.66653 0.39993 0.0
C176 C 0.81468 0.62855 0.39534 0.0
C177 C 0.7639 0.65257 0.38113 0.0
N178 N 0.78374 0.68175 0.39092 0.0
O179 O 0.81916 0.5716 0.35367 0.0
H180 H 0.83715 0.60901 0.39949 0.0
H181 H 0.73821 0.65637 0.37057 0.0
O182 O 0.79452 0.54814 0.40394 0.0
C183 C 0.81085 0.58536 0.33172 0.0
O184 O 0.77586 0.59553 0.32757 0.0
N185 N 0.72299 0.56771 0.38646 0.0
C186 C 0.64657 0.55779 0.39865 0.0
C187 C 0.67419 0.5332 0.40814 0.0
C188 C 0.71188 0.5386 0.40186 0.0
C189 C 0.6965 0.59065 0.376 0.0
C190 C 0.65865 0.58752 0.38282 0.0
H191 H 0.73169 0.5176 0.40815 0.0
H192 H 0.70402 0.60972 0.36081 0.0
H193 H 0.78439 0.48139 0.38566 0.0
H194 H 0.72456 0.46503 0.31684 0.0
H195 H 0.83868 0.68174 0.40881 0.0
H196 H 0.66703 0.50845 0.41916 0.0
H197 H 0.63916 0.60747 0.37462 0.0
C198 C 0.4969 0.7314 0.83188 0.0
C199 C 0.53547 0.72972 0.83158 0.0
N200 N 0.54854 0.74845 0.8522 0.0
N201 N 0.48549 0.75149 0.85241 0.0
C202 C 0.5177 0.76127 0.86465 0.0
H203 H 0.47827 0.71849 0.81804 0.0
Co204 Co 0.4347 0.76095 0.85915 0.0
C205 C 0.42881 0.78599 0.91303 0.0
O206 O 0.39778 0.76603 0.91431 0.0
N207 N 0.38274 0.77121 0.86491 0.0
C208 C 0.3318 0.80634 0.87155 0.0
C209 C 0.37008 0.80664 0.86866 0.0
C210 C 0.35101 0.74985 0.86541 0.0
N211 N 0.31964 0.77057 0.86962 0.0
O212 O 0.43777 0.8069 0.8393 0.0
H213 H 0.3877 0.83143 0.86939 0.0
H214 H 0.35058 0.71974 0.86301 0.0
O215 O 0.44783 0.78681 0.89207 0.0
C216 C 0.42871 0.79799 0.81633 0.0
O217 O 0.4209 0.7625 0.81156 0.0
N218 N 0.43197 0.71375 0.8752 0.0
C219 C 0.4403 0.63731 0.88648 0.0
C220 C 0.45632 0.66489 0.90241 0.0
C221 C 0.45239 0.70297 0.89618 0.0
C222 C 0.4162 0.68727 0.85964 0.0
C223 C 0.41917 0.64907 0.86523 0.0
H224 H 0.46838 0.7232 0.90703 0.0
H225 H 0.40296 0.69581 0.84189 0.0
H226 H 0.51868 0.77771 0.88213 0.0
H227 H 0.55264 0.71527 0.81754 0.0
H228 H 0.31427 0.83087 0.8743 0.0
H229 H 0.47403 0.6571 0.91846 0.0
H230 H 0.40646 0.62886 0.85229 0.0
C231 C 0.26513 0.51061 0.33678 0.0
C232 C 0.26166 0.54849 0.33187 0.0
N233 N 0.24377 0.5645 0.35182 0.0
N234 N 0.24929 0.50263 0.35967 0.0
C235 C 0.2362 0.53613 0.3683 0.0
H236 H 0.27921 0.49028 0.32471 0.0
Co237 Co 0.24869 0.45419 0.37416 0.0
C238 C 0.242 0.46825 0.42927 0.0
O239 O 0.2708 0.4453 0.43131 0.0
N240 N 0.2462 0.40389 0.38755 0.0
C241 C 0.2219 0.35348 0.40706 0.0
C242 C 0.22165 0.39193 0.40566 0.0
C243 C 0.25917 0.37126 0.37714 0.0
N244 N 0.24529 0.3402 0.38893 0.0
O245 O 0.20008 0.44576 0.3591 0.0
H246 H 0.20224 0.40956 0.41608 0.0
H247 H 0.27581 0.3701 0.35979 0.0
O248 O 0.22738 0.47434 0.40706 0.0
C249 C 0.20775 0.43034 0.33757 0.0
O250 O 0.24334 0.42552 0.33162 0.0
N251 N 0.29893 0.4623 0.38625 0.0
C252 C 0.37448 0.47791 0.39847 0.0
C253 C 0.34599 0.50439 0.40311 0.0
C254 C 0.30873 0.49591 0.39726 0.0
C255 C 0.32627 0.43659 0.38097 0.0
C256 C 0.36374 0.44317 0.38773 0.0
H257 H 0.28779 0.51693 0.40141 0.0
H258 H 0.31977 0.41118 0.37077 0.0
H259 H 0.22241 0.53998 0.38662 0.0
H260 H 0.27289 0.56342 0.31546 0.0
H261 H 0.20467 0.3367 0.41977 0.0
H262 H 0.35203 0.53219 0.41047 0.0
H263 H 0.38394 0.42117 0.38394 0.0
C264 C 0.98933 0.72006 0.83256 0.0
C265 C 0.0274 0.71793 0.82863 0.0
N266 N 0.04467 0.71848 0.85162 0.0
N267 N 0.98219 0.72166 0.85797 0.0
C268 C 0.01662 0.72033 0.86913 0.0
H269 H 0.96852 0.72241 0.81759 0.0
Co270 Co 0.93477 0.73219 0.87201 0.0
C271 C 0.93107 0.68843 0.9193 0.0
O272 O 0.89858 0.6751 0.91142 0.0
N273 N 0.8866 0.74396 0.88599 0.0
C274 C 0.8427 0.76925 0.91133 0.0
C275 C 0.88061 0.7633 0.90801 0.0
C276 C 0.85151 0.73807 0.87654 0.0
N277 N 0.82449 0.75323 0.89153 0.0
O278 O 0.91678 0.68449 0.85947 0.0
H279 H 0.90249 0.77287 0.92087 0.0
H280 H 0.84539 0.72389 0.85871 0.0
O281 O 0.94982 0.71049 0.90481 0.0
C282 C 0.90242 0.6889 0.83723 0.0
O283 O 0.9001 0.72319 0.82789 0.0
N284 N 0.95208 0.77963 0.88146 0.0
C285 C 0.97704 0.85353 0.88667 0.0
C286 C 0.98806 0.82585 0.90438 0.0
C287 C 0.97523 0.78885 0.90144 0.0
C288 C 0.9407 0.80615 0.86439 0.0
C289 C 0.95258 0.8433 0.86671 0.0
H290 H 0.98449 0.76775 0.91492 0.0
H291 H 0.92247 0.79816 0.84867 0.0
H292 H 0.02124 0.7232 0.88956 0.0
H293 H 0.04137 0.71754 0.81017 0.0
H294 H 0.82951 0.78409 0.92708 0.0
H295 H 0.00709 0.83248 0.91997 0.0
H296 H 0.94267 0.8638 0.85292 0.0
C297 C 0.2485 0.01349 0.32106 0.0
C298 C 0.25329 0.05157 0.31832 0.0
N299 N 0.26123 0.06654 0.34148 0.0
N300 N 0.25386 0.00375 0.34579 0.0
C301 C 0.26188 0.03674 0.35775 0.0
H302 H 0.24008 0.99456 0.30591 0.0
Co303 Co 0.24523 0.9551 0.35907 0.0
C304 C 0.3008 0.95531 0.40194 0.0
O305 O 0.3229 0.9312 0.39024 0.0
N306 N 0.23615 0.90626 0.37257 0.0
C307 C 0.21747 0.86096 0.39933 0.0
C308 C 0.22182 0.89913 0.39612 0.0
C309 C 0.24077 0.87164 0.36203 0.0
N310 N 0.22952 0.84375 0.37789 0.0
O311 O 0.28992 0.93739 0.34192 0.0
H312 H 0.21468 0.9204 0.41014 0.0
H313 H 0.25147 0.86655 0.34296 0.0
O314 O 0.2714 0.96746 0.39068 0.0
C315 C 0.27924 0.92607 0.31978 0.0
O316 O 0.24301 0.92678 0.31472 0.0
N317 N 0.19985 0.97185 0.37287 0.0
C318 C 0.12788 0.99652 0.38553 0.0
C319 C 0.15942 0.01016 0.39884 0.0
C320 C 0.1953 0.99748 0.39217 0.0
C321 C 0.16958 0.95792 0.36003 0.0
C322 C 0.13333 0.96955 0.3662 0.0
H323 H 0.21923 0.00917 0.40207 0.0
H324 H 0.17377 0.9379 0.34464 0.0
H325 H 0.26628 0.03912 0.37821 0.0
H326 H 0.25015 0.06696 0.30056 0.0
H327 H 0.20668 0.84689 0.41623 0.0
H328 H 0.15656 0.03132 0.41368 0.0
H329 H 0.10982 0.95769 0.35572 0.0
C330 C 0.99328 0.24944 0.83156 0.0
C331 C 0.95487 0.25066 0.82886 0.0
N332 N 0.93973 0.2579 0.85199 0.0
N333 N 1.00247 0.25625 0.85624 0.0
C334 C 0.96912 0.26124 0.86831 0.0
H335 H 0.01328 0.24363 0.81647 0.0
Co336 Co 0.05227 0.25748 0.86754 0.0
C337 C 0.05018 0.26375 0.92336 0.0
O338 O 0.07565 0.23698 0.92272 0.0
N339 N 0.10377 0.26024 0.87804 0.0
C340 C 0.15524 0.28843 0.8932 0.0
C341 C 0.11705 0.29086 0.89054 0.0
C342 C 0.13522 0.24004 0.87265 0.0
N343 N 0.16687 0.25645 0.88193 0.0
O344 O 0.05751 0.30737 0.85369 0.0
H345 H 0.10006 0.3145 0.89655 0.0
H346 H 0.1355 0.21465 0.86134 0.0
O347 O 0.03686 0.27663 0.90217 0.0
C348 C 0.07412 0.30272 0.8322 0.0
O349 O 0.08205 0.26816 0.82499 0.0
N350 N 0.04709 0.20682 0.87794 0.0
C351 C 0.03707 0.12979 0.8858 0.0
C352 C 0.01601 0.15599 0.89979 0.0
C353 C 0.02087 0.19435 0.8952 0.0
C354 C 0.06588 0.18155 0.86304 0.0
C355 C 0.06217 0.14292 0.86714 0.0
H356 H 0.0028 0.21379 0.9052 0.0
H357 H 0.08247 0.19131 0.84703 0.0
H358 H 0.9663 0.26729 0.88858 0.0
H359 H 0.93918 0.2457 0.81136 0.0
H360 H 0.17325 0.30978 0.90152 0.0
H361 H 0.99545 0.14691 0.91382 0.0
H362 H 0.07744 0.12348 0.85498 0.0
C363 C 0.77003 0.00966 0.34954 0.0
C364 C 0.77248 0.97127 0.34811 0.0
N365 N 0.74862 0.95641 0.36541 0.0
N366 N 0.74456 0.01922 0.36755 0.0
C367 C 0.73209 0.98608 0.37713 0.0
H368 H 0.78608 0.02953 0.33826 0.0
Co369 Co 0.73318 0.06934 0.37443 0.0
C370 C 0.71368 0.0737 0.42897 0.0
O371 O 0.73363 0.10486 0.4292 0.0
N372 N 0.72109 0.12063 0.38014 0.0
C373 C 0.68531 0.17057 0.38871 0.0
C374 C 0.68629 0.13203 0.38715 0.0
C375 C 0.74044 0.1532 0.37688 0.0
N376 N 0.71941 0.18387 0.38223 0.0
O377 O 0.68647 0.06408 0.35607 0.0
H378 H 0.66287 0.11335 0.3908 0.0
H379 H 0.76921 0.15497 0.37058 0.0
O380 O 0.70951 0.05556 0.40781 0.0
C381 C 0.69344 0.06707 0.33214 0.0
O382 O 0.72839 0.07261 0.32491 0.0
N383 N 0.78108 0.07381 0.38981 0.0
C384 C 0.85735 0.06863 0.4022 0.0
C385 C 0.83027 0.04994 0.41696 0.0
C386 C 0.79245 0.05209 0.41008 0.0
C387 C 0.80727 0.09153 0.37501 0.0
C388 C 0.84542 0.09016 0.38122 0.0
H389 H 0.77302 0.03379 0.41991 0.0
H390 H 0.79892 0.10426 0.35707 0.0
H391 H 0.71125 0.9837 0.39218 0.0
H392 H 0.79107 0.95544 0.3357 0.0
H393 H 0.66104 0.18753 0.39348 0.0
H394 H 0.83844 0.03199 0.43279 0.0
H395 H 0.8656 0.1034 0.36852 0.0
C396 C 0.51756 0.79089 0.17489 0.0
C397 C 0.55517 0.79918 0.174 0.0
N398 N 0.57011 0.78236 0.15325 0.0
N399 N 0.50801 0.76897 0.1547 0.0
C400 C 0.54088 0.76454 0.14173 0.0
H401 H 0.49915 0.7989 0.19038 0.0
Co402 Co 0.46059 0.74471 0.15125 0.0
C403 C 0.43487 0.75412 0.0972 0.0
O404 O 0.41664 0.72221 0.09981 0.0
N405 N 0.41258 0.72021 0.14944 0.0
C406 C 0.36611 0.67824 0.15235 0.0
C407 C 0.40439 0.6833 0.15242 0.0
C408 C 0.37826 0.7369 0.14781 0.0
N409 N 0.3495 0.71198 0.1495 0.0
O410 O 0.43625 0.78706 0.16749 0.0
H411 H 0.42446 0.66104 0.15523 0.0
H412 H 0.37449 0.7669 0.14552 0.0
O413 O 0.45399 0.767 0.11624 0.0
C414 C 0.42862 0.77805 0.19068 0.0
O415 O 0.43885 0.74456 0.19877 0.0
N416 N 0.4851 0.70168 0.13824 0.0
C417 C 0.51769 0.63198 0.12745 0.0
C418 C 0.51148 0.65831 0.10783 0.0
C419 C 0.49538 0.69312 0.11363 0.0
C420 C 0.49427 0.67798 0.15777 0.0
C421 C 0.50972 0.64271 0.15282 0.0
H422 H 0.49243 0.7131 0.09829 0.0
H423 H 0.48741 0.68575 0.17729 0.0
H424 H 0.54379 0.7476 0.12465 0.0
H425 H 0.57069 0.81444 0.18855 0.0
H426 H 0.35171 0.65175 0.15526 0.0
H427 H 0.51895 0.65212 0.08813 0.0
H428 H 0.51387 0.62359 0.16872 0.0
C429 C 0.27024 0.52027 0.68249 0.0
C430 C 0.27166 0.55882 0.68145 0.0
N431 N 0.2495 0.57015 0.66208 0.0
N432 N 0.24686 0.50727 0.66409 0.0
C433 C 0.23484 0.5385 0.65168 0.0
H434 H 0.28578 0.50266 0.69565 0.0
Co435 Co 0.23797 0.45582 0.66 0.0
C436 C 0.20935 0.44362 0.60774 0.0
O437 O 0.22982 0.41288 0.60773 0.0
N438 N 0.22876 0.40294 0.65737 0.0
C439 C 0.19453 0.35046 0.65513 0.0
C440 C 0.19346 0.38895 0.65588 0.0
C441 C 0.25087 0.37172 0.65767 0.0
N442 N 0.23069 0.33937 0.65609 0.0
O443 O 0.19315 0.46008 0.68045 0.0
H444 H 0.16817 0.40575 0.65515 0.0
H445 H 0.28113 0.37233 0.65869 0.0
O446 O 0.20926 0.46478 0.62774 0.0
C447 C 0.20005 0.45814 0.70443 0.0
O448 O 0.23527 0.45578 0.71184 0.0
N449 N 0.28371 0.45283 0.64201 0.0
C450 C 0.35759 0.46432 0.62578 0.0
C451 C 0.32745 0.47818 0.61138 0.0
C452 C 0.29075 0.47265 0.62 0.0
C453 C 0.31283 0.43908 0.65617 0.0
C454 C 0.34997 0.4437 0.6481 0.0
H455 H 0.26862 0.48733 0.61006 0.0
H456 H 0.30737 0.42681 0.67479 0.0
H457 H 0.21587 0.5382 0.63545 0.0
H458 H 0.2883 0.57717 0.69357 0.0
H459 H 0.17024 0.33215 0.65438 0.0
H460 H 0.33231 0.49513 0.59442 0.0
H461 H 0.37258 0.43384 0.66029 0.0
C462 C 0.52177 0.25153 0.17839 0.0
C463 C 0.48392 0.2561 0.18206 0.0
N464 N 0.46595 0.24671 0.16017 0.0
N465 N 0.52803 0.23896 0.1544 0.0
C466 C 0.49345 0.23606 0.1437 0.0
H467 H 0.54351 0.25758 0.1923 0.0
Co468 Co 0.57667 0.23149 0.14253 0.0
C469 C 0.57292 0.21204 0.08807 0.0
O470 O 0.60042 0.23648 0.08542 0.0
N471 N 0.62711 0.22307 0.13172 0.0
C472 C 0.67708 0.19088 0.11813 0.0
C473 C 0.63908 0.18954 0.12251 0.0
C474 C 0.659 0.24385 0.13364 0.0
N475 N 0.68957 0.22503 0.12521 0.0
O476 O 0.57859 0.18466 0.16109 0.0
H477 H 0.62127 0.16521 0.11962 0.0
H478 H 0.6605 0.27174 0.1417 0.0
O479 O 0.55819 0.20672 0.11034 0.0
C480 C 0.59671 0.19208 0.18167 0.0
O481 O 0.6094 0.22654 0.18489 0.0
N482 N 0.57487 0.27967 0.12759 0.0
C483 C 0.56742 0.35575 0.11603 0.0
C484 C 0.54633 0.32888 0.10268 0.0
C485 C 0.55013 0.29085 0.10896 0.0
C486 C 0.59396 0.30593 0.14154 0.0
C487 C 0.59157 0.34405 0.13558 0.0
H488 H 0.53164 0.27091 0.09974 0.0
H489 H 0.60948 0.29746 0.15838 0.0
H490 H 0.48866 0.22753 0.12403 0.0
H491 H 0.47078 0.2657 0.1996 0.0
H492 H 0.69451 0.16788 0.1115 0.0
H493 H 0.52606 0.33735 0.08828 0.0
H494 H 0.60668 0.36441 0.14716 0.0
C495 C 0.70407 0.48181 0.67691 0.0
C496 C 0.69985 0.44361 0.675 0.0
N497 N 0.72853 0.43 0.66099 0.0
N498 N 0.73507 0.49261 0.66391 0.0
C499 C 0.74979 0.46023 0.65459 0.0
H500 H 0.6855 0.50071 0.68707 0.0
Co501 Co 0.74869 0.54337 0.66155 0.0
C502 C 0.77444 0.55709 0.60905 0.0
O503 O 0.75412 0.58786 0.6107 0.0
N504 N 0.763 0.59514 0.66056 0.0
C505 C 0.8024 0.64392 0.65828 0.0
C506 C 0.79931 0.60552 0.65733 0.0
C507 C 0.74466 0.62834 0.66384 0.0
N508 N 0.76799 0.65839 0.66232 0.0
O509 O 0.79313 0.53388 0.68142 0.0
H510 H 0.82237 0.58621 0.65433 0.0
H511 H 0.71488 0.63103 0.66701 0.0
O512 O 0.77553 0.53447 0.6283 0.0
C513 C 0.78496 0.53238 0.70525 0.0
O514 O 0.74927 0.53249 0.71177 0.0
N515 N 0.70276 0.55202 0.64451 0.0
C516 C 0.62676 0.54664 0.63115 0.0
C517 C 0.65458 0.53009 0.61575 0.0
C518 C 0.69233 0.53276 0.62288 0.0
C519 C 0.67612 0.56872 0.65942 0.0
C520 C 0.63824 0.56754 0.65265 0.0
H521 H 0.71241 0.51597 0.61241 0.0
H522 H 0.68375 0.5799 0.678 0.0
H523 H 0.775 0.45889 0.64299 0.0
H524 H 0.67754 0.42697 0.68345 0.0
H525 H 0.8282 0.65991 0.65658 0.0
H526 H 0.64719 0.51249 0.59954 0.0
H527 H 0.61794 0.58076 0.66523 0.0
C528 C 0.09506 0.08074 0.11569 0.0
C529 C 0.06736 0.1085 0.11295 0.0
C530 C 0.08586 0.04236 0.11403 0.0
C531 C 0.04802 0.03155 0.10976 0.0
C532 C 0.02037 0.05947 0.10554 0.0
C533 C 0.03038 0.09758 0.10716 0.0
C534 C 0.11622 0.01342 0.11835 0.0
C535 C 0.97967 0.04918 0.10109 0.0
C536 C 0.02166 0.92977 0.09531 0.0
C537 C 0.01071 0.91696 0.11967 0.0
C538 C 0.03455 0.96684 0.09174 0.0
C539 C 0.0364 0.9916 0.11302 0.0
C540 C 0.02593 0.97861 0.13769 0.0
C541 C 0.01345 0.9415 0.14071 0.0
C542 C 0.04567 0.97969 0.0652 0.0
C543 C 0.02749 0.00408 0.16092 0.0
H544 H 0.12375 0.08904 0.1199 0.0
H545 H 0.00867 0.1188 0.10538 0.0
H546 H 0.11202 0.99985 0.1373 0.0
H547 H 0.11467 0.99099 0.10356 0.0
H548 H 0.14479 0.02609 0.11795 0.0
H549 H 0.96256 0.07384 0.09521 0.0
H550 H 0.97726 0.02714 0.08609 0.0
H551 H 0.96758 0.03749 0.11903 0.0
H552 H 0.0195 0.91103 0.07895 0.0
H553 H 0.00599 0.9316 0.15971 0.0
H554 H 0.07457 0.99148 0.0655 0.0
H555 H 0.02658 1.00248 0.05877 0.0
H556 H 0.04455 0.95647 0.05093 0.0
H557 H 0.05647 0.01496 0.16361 0.0
H558 H 0.0187 0.98948 0.17879 0.0
H559 H 0.00885 0.02871 0.15797 0.0
C560 C 0.08389 0.99269 0.57785 0.0
C561 C 0.09797 0.98761 0.60274 0.0
C562 C 0.04569 1.00106 0.57381 0.0
C563 C 0.02142 0.00489 0.59521 0.0
C564 C 0.03587 1.00069 0.62037 0.0
C565 C 0.07388 0.99196 0.62379 0.0
C566 C 0.03116 0.00503 0.54673 0.0
C567 C 0.0111 0.00506 0.64376 0.0
C568 C 0.92815 0.05585 0.59537 0.0
C569 C 0.90289 0.02566 0.59777 0.0
C570 C 0.96688 0.04959 0.59253 0.0
C571 C 0.98059 0.01224 0.5918 0.0
C572 C 0.95496 0.98174 0.59191 0.0
C573 C 0.91645 0.9888 0.59505 0.0
C574 C 0.99327 0.08289 0.59241 0.0
C575 C 0.96842 0.94149 0.59087 0.0
H576 H 0.10257 0.9893 0.56157 0.0
H577 H 0.08492 0.98875 0.64307 0.0
H578 H 0.01031 0.98251 0.54273 0.0
H579 H 0.01647 0.03232 0.5444 0.0
H580 H 0.05402 0.00321 0.53225 0.0
H581 H 0.02707 1.00214 0.66198 0.0
H582 H 0.99734 0.03305 0.64358 0.0
H583 H 0.98852 0.9835 0.64346 0.0
H584 H 0.91783 0.08445 0.59686 0.0
H585 H 0.89735 0.9652 0.59704 0.0
H586 H 0.01516 0.07953 0.57743 0.0
H587 H 0.00783 0.08469 0.61121 0.0
H588 H 0.97817 0.10979 0.58907 0.0
H589 H 0.99019 0.93799 0.57581 0.0
H590 H 0.94504 0.9215 0.58699 0.0
H591 H 0.98141 0.93392 0.60953 0.0
C592 C 0.45017 0.5807 0.91479 0.0
C593 C 0.44907 0.59675 0.89019 0.0
C594 C 0.46004 0.54272 0.91823 0.0
C595 C 0.46908 0.52038 0.89657 0.0
C596 C 0.46774 0.53638 0.87172 0.0
C597 C 0.45792 0.57428 0.86886 0.0
C598 C 0.46117 0.52658 0.94501 0.0
C599 C 0.47729 0.51359 0.8481 0.0
C600 C 0.53085 0.43372 0.89961 0.0
C601 C 0.50444 0.40479 0.89623 0.0
C602 C 0.51953 0.47144 0.90132 0.0
C603 C 0.48085 0.48045 0.89955 0.0
C604 C 0.45391 0.45122 0.8976 0.0
C605 C 0.46603 0.41371 0.89597 0.0
C606 C 0.54913 0.50176 0.90359 0.0
C607 C 0.41242 0.45965 0.89563 0.0
H608 H 0.44322 0.59783 0.93134 0.0
H609 H 0.45808 0.58659 0.84984 0.0
H610 H 0.44236 0.50172 0.94628 0.0
H611 H 0.49005 0.5168 0.94949 0.0
H612 H 0.45253 0.5474 0.95978 0.0
H613 H 0.47389 0.52999 0.83011 0.0
H614 H 0.5068 0.50365 0.84927 0.0
H615 H 0.45901 0.48832 0.847 0.0
H616 H 0.56054 0.42691 0.90026 0.0
H617 H 0.44546 0.39155 0.89315 0.0
H618 H 0.54173 0.52186 0.91908 0.0
H619 H 0.55053 0.51791 0.88539 0.0
H620 H 0.57745 0.48999 0.90761 0.0
H621 H 0.40383 0.47995 0.91071 0.0
H622 H 0.39493 0.43386 0.89743 0.0
H623 H 0.40642 0.47284 0.87677 0.0
C624 C 0.59357 0.52795 0.42398 0.0
C625 C 0.60557 0.54988 0.40299 0.0
C626 C 0.55623 0.51544 0.42604 0.0
C627 C 0.52949 0.52715 0.40765 0.0
C628 C 0.54044 0.55179 0.38772 0.0
C629 C 0.57835 0.56188 0.38517 0.0
C630 C 0.54601 0.48789 0.44698 0.0
C631 C 0.51235 0.56641 0.36838 0.0
C632 C 0.44378 0.4702 0.38894 0.0
C633 C 0.415 0.48761 0.40317 0.0
C634 C 0.48147 0.48105 0.39172 0.0
C635 C 0.49067 0.51164 0.40792 0.0
C636 C 0.46227 0.529 0.42271 0.0
C637 C 0.42511 0.51596 0.42081 0.0
C638 C 0.51128 0.46059 0.37648 0.0
C639 C 0.47067 0.56276 0.43942 0.0
H640 H 0.61343 0.51947 0.43859 0.0
H641 H 0.5864 0.57812 0.36852 0.0
H642 H 0.52082 0.49749 0.45764 0.0
H643 H 0.53889 0.46031 0.43821 0.0
H644 H 0.56934 0.48364 0.46086 0.0
H645 H 0.52399 0.58993 0.3568 0.0
H646 H 0.50409 0.54343 0.35511 0.0
H647 H 0.4865 0.57633 0.37819 0.0
H648 H 0.43717 0.44881 0.37488 0.0
H649 H 0.40396 0.52888 0.43284 0.0
H650 H 0.53596 0.45426 0.38877 0.0
H651 H 0.52113 0.47867 0.3605 0.0
H652 H 0.50057 0.43381 0.36821 0.0
H653 H 0.49428 0.55677 0.45268 0.0
H654 H 0.44592 0.57166 0.4509 0.0
H655 H 0.4795 0.58666 0.4271 0.0
C656 C 0.06107 0.06415 0.89143 0.0
C657 C 0.03064 0.08893 0.88912 0.0
C658 C 0.05522 0.02517 0.89324 0.0
C659 C 0.01811 0.01077 0.89224 0.0
C660 C 0.98728 0.03577 0.89035 0.0
C661 C 0.99392 0.07459 0.88897 0.0
C662 C 0.08872 0.99938 0.89562 0.0
C663 C 0.94732 0.02147 0.88883 0.0
C664 C 1.00033 0.91284 0.86628 0.0
C665 C 0.99092 0.89289 0.88861 0.0
C666 C 0.01025 0.95095 0.86731 0.0
C667 C 0.01139 0.96953 0.89132 0.0
C668 C 0.00372 0.9492 0.91409 0.0
C669 C 0.99338 0.9111 0.91246 0.0
C670 C 0.01817 0.97167 0.84257 0.0
C671 C 0.00517 0.968 0.94007 0.0
H672 H 0.08945 0.07532 0.89175 0.0
H673 H 0.97039 0.0937 0.88686 0.0
H674 H 0.08489 0.97995 0.91208 0.0
H675 H 0.09124 0.98185 0.87808 0.0
H676 H 0.11542 0.01518 0.8983 0.0
H677 H 0.92645 0.0447 0.88851 0.0
H678 H 0.94369 0.00433 0.87119 0.0
H679 H 0.9411 1.00298 0.90544 0.0
H680 H 0.99945 0.89873 0.84783 0.0
H681 H 0.98602 0.89595 0.9298 0.0
H682 H 0.0461 0.98552 0.84348 0.0
H683 H 0.9969 0.99411 0.83976 0.0
H684 H 0.01757 0.95273 0.82559 0.0
H685 H 0.03212 0.98338 0.94246 0.0
H686 H 1.00215 0.94751 0.95603 0.0
H687 H 0.9822 0.98898 0.94157 0.0
C688 C 0.06451 0.01769 0.37073 0.0
C689 C 0.08955 0.01104 0.39102 0.0
C690 C 0.02758 0.02942 0.37535 0.0
C691 C 0.01544 0.03527 0.40091 0.0
C692 C 0.04089 0.03003 0.42149 0.0
C693 C 0.07767 0.01777 0.41631 0.0
C694 C 1.00126 0.03457 0.35285 0.0
C695 C 0.02899 0.03641 0.44896 0.0
C696 C 0.92438 0.09025 0.4047 0.0
C697 C 0.89792 0.06106 0.40605 0.0
C698 C 0.96309 0.0825 0.40479 0.0
C699 C 0.9754 0.04466 0.40582 0.0
C700 C 0.9488 0.01526 0.40845 0.0
C701 C 0.91038 0.02384 0.40862 0.0
C702 C 0.99068 0.11461 0.40241 0.0
C703 C 0.96074 0.97451 0.4093 0.0
H704 H 0.07374 0.01354 0.35111 0.0
H705 H 0.09679 0.01256 0.4321 0.0
H706 H 0.97725 0.01474 0.35451 0.0
H707 H 0.98954 0.06348 0.3529 0.0
H708 H 0.01539 0.02966 0.33413 0.0
H709 H 0.05301 0.03446 0.46253 0.0
H710 H 0.01575 0.0645 0.45103 0.0
H711 H 0.00762 0.01515 0.4545 0.0
H712 H 0.91477 0.11906 0.40291 0.0
H713 H 0.89003 1.00112 0.4093 0.0
H714 H 0.00337 0.11437 0.38296 0.0
H715 H 0.01389 0.1114 0.41646 0.0
H716 H 0.97704 0.14236 0.40548 0.0
H717 H 0.97249 0.96626 0.39038 0.0
H718 H 0.93694 0.95537 0.41388 0.0
H719 H 0.98317 0.97038 0.42381 0.0
C720 C 0.52768 0.41204 0.12241 0.0
C721 C 0.56048 0.39617 0.11239 0.0
C722 C 0.52248 0.4511 0.12236 0.0
C723 C 0.55051 0.47461 0.11155 0.0
C724 C 0.58296 0.45842 0.10031 0.0
C725 C 0.58786 0.41924 0.10124 0.0
C726 C 0.4878 0.46726 0.13495 0.0
C727 C 0.61291 0.48252 0.088 0.0
C728 C 0.51744 0.57436 0.09944 0.0
C729 C 0.53046 0.59302 0.12153 0.0
C730 C 0.52569 0.53628 0.09511 0.0
C731 C 0.54667 0.51612 0.1136 0.0
C732 C 0.56124 0.53506 0.13535 0.0
C733 C 0.55341 0.57337 0.13885 0.0
C734 C 0.51046 0.51723 0.07136 0.0
C735 C 0.58346 0.51444 0.15564 0.0
H736 H 0.50684 0.39391 0.13127 0.0
H737 H 0.61326 0.40663 0.09362 0.0
H738 H 0.49614 0.48505 0.15153 0.0
H739 H 0.47248 0.48554 0.12126 0.0
H740 H 0.46829 0.44504 0.14186 0.0
H741 H 0.63424 0.46539 0.07771 0.0
H742 H 0.6 0.50251 0.07423 0.0
H743 H 0.62741 0.49945 0.10291 0.0
H744 H 0.49942 0.58899 0.08599 0.0
H745 H 0.56453 0.58768 0.15559 0.0
H746 H 0.4873 0.49787 0.07677 0.0
H747 H 0.53265 0.5001 0.06201 0.0
H748 H 0.49944 0.53782 0.0572 0.0
H749 H 0.56533 0.49291 0.16487 0.0
H750 H 0.59434 0.53364 0.17077 0.0
H751 H 0.60755 0.49948 0.14682 0.0
C752 C 0.40474 0.51446 0.6167 0.0
C753 C 0.39658 0.47615 0.61996 0.0
C754 C 0.44199 0.52717 0.61518 0.0
C755 C 0.47171 0.50083 0.61664 0.0
C756 C 0.46354 0.46187 0.61827 0.0
C757 C 0.42599 0.45 0.6202 0.0
C758 C 0.44951 0.56896 0.61392 0.0
C759 C 0.49448 0.43289 0.6194 0.0
C760 C 0.57163 0.53281 0.60214 0.0
C761 C 0.58628 0.53764 0.62698 0.0
C762 C 0.53434 0.52086 0.59835 0.0
C763 C 0.51101 0.51425 0.61988 0.0
C764 C 0.52527 0.52001 0.64493 0.0
C765 C 0.56273 0.53113 0.64816 0.0
C766 C 0.52014 0.51455 0.57137 0.0
C767 C 0.50115 0.51373 0.66843 0.0
H768 H 0.38203 0.53478 0.61686 0.0
H769 H 0.41962 0.42036 0.62257 0.0
H770 H 0.46125 0.57862 0.63254 0.0
H771 H 0.47063 0.5754 0.5989 0.0
H772 H 0.42357 0.58531 0.60989 0.0
H773 H 0.48351 0.40379 0.61711 0.0
H774 H 0.51567 0.43828 0.60421 0.0
H775 H 0.5091 0.43484 0.63817 0.0
H776 H 0.58941 0.53801 0.58563 0.0
H777 H 0.5738 0.5336 0.66746 0.0
H778 H 0.49479 0.53193 0.56783 0.0
H779 H 0.5117 0.48469 0.56895 0.0
H780 H 0.54165 0.52151 0.55665 0.0
H781 H 0.47499 0.5306 0.66707 0.0
H782 H 0.51592 0.52143 0.68648 0.0
H783 H 0.49275 0.48371 0.6696 0.0
C784 C 0.08715 0.32684 0.05817 0.0
C785 C 0.06288 0.31485 0.07772 0.0
C786 C 0.07524 0.32813 0.03257 0.0
C787 C 0.03794 0.31746 0.02638 0.0
C788 C 0.01179 0.31125 0.04651 0.0
C789 C 0.02466 0.30961 0.07209 0.0
C790 C 0.10408 0.33587 0.01195 0.0
C791 C 0.97117 0.30239 0.04087 0.0
C792 C 0.02595 0.31379 0.95371 0.0
C793 C 0.03752 0.27674 0.94896 0.0
C794 C 0.02198 0.32703 0.97916 0.0
C795 C 0.03041 0.30274 1.00001 0.0
C796 C 0.03861 0.26443 0.99505 0.0
C797 C 0.04168 0.25198 0.96969 0.0
C798 C 0.0112 0.36754 0.98345 0.0
C799 C 0.04768 0.2371 0.01643 0.0
H800 H 0.11654 0.33187 0.06258 0.0
H801 H 0.00555 0.30088 0.08715 0.0
H802 H 0.11095 0.30926 1.00181 0.0
H803 H 0.09275 0.35582 0.99757 0.0
H804 H 0.13051 0.34777 0.01995 0.0
H805 H 0.95291 0.30961 0.05746 0.0
H806 H 0.96126 0.31787 0.02365 0.0
H807 H 0.96806 0.27184 0.03704 0.0
H808 H 0.02216 0.33296 0.93775 0.0
H809 H 0.04954 0.22297 0.96612 0.0
H810 H 0.03668 0.38547 0.98216 0.0
H811 H 0.99813 0.3719 1.00257 0.0
H812 H 0.99131 0.37714 0.96837 0.0
H813 H 0.07365 0.24623 0.0265 0.0
H814 H 0.05205 0.20797 0.00927 0.0
H815 H 0.02465 0.23653 0.03074 0.0
C816 C 0.67186 0.03565 0.45834 0.0
C817 C 0.70491 0.0562 0.45402 0.0
C818 C 0.66357 0.02139 0.48301 0.0
C819 C 0.68945 0.0271 0.50341 0.0
C820 C 0.72335 0.04684 0.49872 0.0
C821 C 0.73039 0.06138 0.47426 0.0
C822 C 0.62683 1.00117 0.48743 0.0
C823 C 0.75232 0.05286 0.5196 0.0
C824 C 0.67297 0.02909 0.57497 0.0
C825 C 0.69084 0.99573 0.58248 0.0
C826 C 0.66817 0.03785 0.54887 0.0
C827 C 0.68206 0.01289 0.52988 0.0
C828 C 0.69647 0.97745 0.53739 0.0
C829 C 0.70038 0.96916 0.56362 0.0
C830 C 0.65174 0.07554 0.54175 0.0
C831 C 0.71194 0.95005 0.51793 0.0
H832 H 0.65211 0.03173 0.44272 0.0
H833 H 0.75631 0.07672 0.4709 0.0
H834 H 0.63182 0.97344 0.49655 0.0
H835 H 0.60919 0.0178 0.50083 0.0
H836 H 0.61091 0.99682 0.46931 0.0
H837 H 0.77795 0.06734 0.51243 0.0
H838 H 0.74013 0.07006 0.5353 0.0
H839 H 0.76078 0.02546 0.52798 0.0
H840 H 0.66489 0.04945 0.58946 0.0
H841 H 0.71404 0.94317 0.56918 0.0
H842 H 0.63357 0.0731 0.52452 0.0
H843 H 0.67489 0.09539 0.53713 0.0
H844 H 0.63504 0.08772 0.55774 0.0
H845 H 0.6935 0.94828 0.50081 0.0
H846 H 0.71528 0.92141 0.52614 0.0
H847 H 0.73995 0.96002 0.51141 0.0
C848 C 0.97926 0.68242 0.95433 0.0
C849 C 0.94154 0.68481 0.94669 0.0
C850 C 0.98902 0.68117 0.98054 0.0
C851 C 0.96049 0.68415 0.99946 0.0
C852 C 0.92238 0.6867 0.99169 0.0
C853 C 0.91338 0.68626 0.96546 0.0
C854 C 0.0298 0.67702 0.98798 0.0
C855 C 0.89111 0.69135 0.01107 0.0
C856 C 0.96942 0.65878 0.07019 0.0
C857 C 0.97488 0.69427 0.08143 0.0
C858 C 0.96765 0.65456 0.04332 0.0
C859 C 0.97009 0.68674 0.02735 0.0
C860 C 0.97754 0.7223 0.03855 0.0
C861 C 0.98063 0.72546 0.06534 0.0
C862 C 0.96126 0.6159 0.03213 0.0
C863 C 0.97934 0.75759 0.02245 0.0
H864 H 1.00106 0.68133 0.9398 0.0
H865 H 0.88423 0.68877 0.95961 0.0
H866 H 0.03988 0.70322 0.99731 0.0
H867 H 0.03305 0.65391 1.00212 0.0
H868 H 0.04802 0.67109 0.97114 0.0
H869 H 0.86304 0.69367 1.00185 0.0
H870 H 0.89067 0.66707 0.02441 0.0
H871 H 0.89609 0.71702 0.02275 0.0
H872 H 0.96542 0.63442 0.08239 0.0
H873 H 0.98518 0.753 0.07369 0.0
H874 H 0.97991 0.61125 0.01535 0.0
H875 H 0.93182 0.61347 0.02531 0.0
H876 H 0.96637 0.59333 0.04645 0.0
H877 H 0.99937 0.75403 1.00634 0.0
H878 H 0.98794 0.78262 0.03384 0.0
H879 H 0.95126 0.76314 0.01397 0.0
C880 C 0.27507 0.973 0.44493 0.0
C881 C 0.30621 0.96364 0.42969 0.0
C882 C 0.27858 0.97848 0.47151 0.0
C883 C 0.31431 0.97513 0.4833 0.0
C884 C 0.34608 0.96636 0.46799 0.0
C885 C 0.34158 0.96027 0.4414 0.0
C886 C 0.24377 0.98712 0.48705 0.0
C887 C 0.38475 0.9633 0.47971 0.0
C888 C 0.31741 0.02265 0.54869 0.0
C889 C 0.31018 0.99236 0.56531 0.0
C890 C 0.32153 0.01711 0.5221 0.0
C891 C 0.31774 0.98047 0.51169 0.0
C892 C 0.31297 0.94951 0.52851 0.0
C893 C 0.30992 0.95578 0.5551 0.0
C894 C 0.32766 0.05083 0.50499 0.0
C895 C 0.30846 0.90998 0.51833 0.0
H896 H 0.24748 0.97484 0.43626 0.0
H897 H 0.36576 0.95298 0.42976 0.0
H898 H 0.23973 0.96528 0.50201 0.0
H899 H 0.24712 0.0145 0.49703 0.0
H900 H 0.21802 0.98835 0.47501 0.0
H901 H 0.40682 0.958 0.46506 0.0
H902 H 0.39177 0.9896 0.49017 0.0
H903 H 0.38529 0.94008 0.49391 0.0
H904 H 0.31836 0.05104 0.55629 0.0
H905 H 0.30566 0.93204 0.56774 0.0
H906 H 0.30146 0.05691 0.49421 0.0
H907 H 0.35005 0.04501 0.49071 0.0
H908 H 0.33551 0.07634 0.51613 0.0
H909 H 0.28167 0.90783 0.50749 0.0
H910 H 0.30812 0.88868 0.53392 0.0
H911 H 0.33154 0.9031 0.50481 0.0
C912 C 0.58622 0.18496 0.04548 0.0
C913 C 0.55958 0.19304 0.06451 0.0
C914 C 0.57538 0.17689 0.02025 0.0
C915 C 0.53672 0.1766 0.01378 0.0
C916 C 0.50949 0.18086 0.03352 0.0
C917 C 0.52127 0.18925 0.05879 0.0
C918 C 0.60558 0.17249 1.00006 0.0
C919 C 0.46801 0.17955 0.02762 0.0
C920 C 0.52412 0.21669 0.94719 0.0
C921 C 0.52493 0.18427 0.93178 0.0
C922 C 0.52497 0.21439 0.97404 0.0
C923 C 0.52608 0.17869 0.98606 0.0
C924 C 0.52353 0.14577 0.97076 0.0
C925 C 0.52334 0.14891 0.94376 0.0
C926 C 0.52783 0.25038 0.9894 0.0
C927 C 0.52335 0.10719 0.98279 0.0
H928 H 0.61591 0.18742 0.04998 0.0
H929 H 0.50059 0.19553 0.07346 0.0
H930 H 0.60011 0.14731 0.98805 0.0
H931 H 0.60541 0.19738 0.98719 0.0
H932 H 0.63409 0.16988 0.0086 0.0
H933 H 0.45114 0.17391 0.04516 0.0
H934 H 0.45906 0.20706 0.01967 0.0
H935 H 0.46169 0.15764 0.01305 0.0
H936 H 0.52485 0.24421 0.93834 0.0
H937 H 0.5234 0.12362 0.93211 0.0
H938 H 0.55619 0.25241 0.99821 0.0
H939 H 0.50696 0.25046 1.0052 0.0
H940 H 0.52325 0.27579 0.97739 0.0
H941 H 0.5525 0.09922 0.98803 0.0
H942 H 0.51218 0.08558 0.96937 0.0
H943 H 0.50626 0.10694 1.00061 0.0
C944 C 0.79855 0.51097 0.57573 0.0
C945 C 0.79102 0.54798 0.58359 0.0
C946 C 0.80682 0.50283 0.54975 0.0
C947 C 0.80669 0.53228 0.53131 0.0
C948 C 0.80206 0.5699 0.53974 0.0
C949 C 0.79481 0.57719 0.56567 0.0
C950 C 0.81333 0.4625 0.54199 0.0
C951 C 0.80143 0.60247 0.52107 0.0
C952 C 0.83135 0.5382 0.46072 0.0
C953 C 0.79518 0.53844 0.4501 0.0
C954 C 0.83657 0.53069 0.48711 0.0
C955 C 0.80478 0.52454 0.50308 0.0
C956 C 0.76892 0.52031 0.4916 0.0
C957 C 0.76466 0.5272 0.46528 0.0
C958 C 0.87558 0.53306 0.49829 0.0
C959 C 0.73411 0.51353 0.50755 0.0
H960 H 0.79605 0.4882 0.58946 0.0
H961 H 0.78993 0.606 0.57166 0.0
H962 H 0.78593 0.44894 0.5377 0.0
H963 H 0.83135 0.46044 0.52465 0.0
H964 H 0.82667 0.44647 0.55786 0.0
H965 H 0.79876 0.6301 0.53089 0.0
H966 H 0.82749 0.60284 0.50943 0.0
H967 H 0.77736 0.59922 0.50767 0.0
H968 H 0.85502 0.54703 0.44907 0.0
H969 H 0.73664 0.52745 0.45707 0.0
H970 H 0.87895 0.51301 0.51445 0.0
H971 H 0.88058 0.56185 0.50579 0.0
H972 H 0.8973 0.52709 0.48351 0.0
H973 H 0.73864 0.48993 0.52108 0.0
H974 H 0.70915 0.50699 0.4955 0.0
H975 H 0.72785 0.53904 0.51909 0.0
C976 C 0.41956 0.75157 0.05056 0.0
C977 C 0.43857 0.76973 0.07072 0.0
C978 C 0.42456 0.76232 0.02495 0.0
C979 C 0.44861 0.79286 0.01896 0.0
C980 C 0.46708 0.81232 0.03918 0.0
C981 C 0.46218 0.80025 0.06485 0.0
C982 C 0.40424 0.74043 1.00423 0.0
C983 C 0.49246 0.84538 0.03374 0.0
C984 C 0.47495 0.78386 0.94893 0.0
C985 C 0.44356 0.80079 0.93755 0.0
C986 C 0.47986 0.78474 0.97578 0.0
C987 C 0.45318 0.80372 0.99136 0.0
C988 C 0.42484 0.82551 0.97941 0.0
C989 C 0.4199 0.82315 0.9527 0.0
C990 C 0.5106 0.76121 0.98754 0.0
C991 C 0.39671 0.84748 0.99505 0.0
H992 H 0.40107 0.72807 0.05466 0.0
H993 H 0.47713 0.81443 0.08021 0.0
H994 H 0.38461 0.7592 0.99379 0.0
H995 H 0.42471 0.72932 0.99006 0.0
H996 H 0.38784 0.7164 0.01205 0.0
H997 H 0.4986 0.86187 0.05138 0.0
H998 H 0.51948 0.83508 0.02579 0.0
H999 H 0.4797 0.86432 0.01924 0.0
H1000 H 0.49331 0.76651 0.93731 0.0
H1001 H 0.39554 0.83624 0.94392 0.0
H1002 H 0.49834 0.73446 0.9947 0.0
H1003 H 0.52356 0.7759 1.00411 0.0
H1004 H 0.5329 0.75431 0.97336 0.0
H1005 H 0.37499 0.82799 1.00263 0.0
H1006 H 0.38241 0.86924 0.98329 0.0
H1007 H 0.41054 0.86131 0.01167 0.0
C1008 C 0.19034 0.42967 0.56301 0.0
C1009 C 0.19432 0.45637 0.58266 0.0
C1010 C 0.18798 0.44055 0.53725 0.0
C1011 C 0.18862 0.4793 0.5309 0.0
C1012 C 0.187 0.5064 0.55089 0.0
C1013 C 0.19039 0.49465 0.57666 0.0
C1014 C 0.18942 0.41035 0.51682 0.0
C1015 C 0.18495 0.54791 0.54517 0.0
C1016 C 0.25183 0.48966 0.47371 0.0
C1017 C 0.22661 0.4837 0.45344 0.0
C1018 C 0.23932 0.49248 0.49908 0.0
C1019 C 0.20032 0.49005 0.50436 0.0
C1020 C 0.17441 0.48945 0.4836 0.0
C1021 C 0.1879 0.48579 0.45822 0.0
C1022 C 0.26828 0.49356 0.52033 0.0
C1023 C 0.13258 0.48957 0.48818 0.0
H1024 H 0.19226 0.39998 0.5676 0.0
H1025 H 0.19274 0.51554 0.59174 0.0
H1026 H 0.16669 0.41459 0.50258 0.0
H1027 H 0.21664 0.41199 0.50644 0.0
H1028 H 0.18654 0.38161 0.52497 0.0
H1029 H 0.16903 0.56287 0.56042 0.0
H1030 H 0.21376 0.55988 0.5448 0.0
H1031 H 0.17143 0.5534 0.52634 0.0
H1032 H 0.28182 0.48903 0.46993 0.0
H1033 H 0.16824 0.48168 0.44255 0.0
H1034 H 0.26719 0.46693 0.53143 0.0
H1035 H 0.26223 0.51694 0.53378 0.0
H1036 H 0.29733 0.49725 0.51288 0.0
H1037 H 0.12218 0.46018 0.4892 0.0
H1038 H 0.11768 0.50364 0.4721 0.0
H1039 H 0.1253 0.504 0.50642 0.0
C1040 C 0.09282 0.36722 0.2147 0.0
C1041 C 0.07672 0.33191 0.2194 0.0
C1042 C 0.10605 0.38953 0.23517 0.0
C1043 C 0.10295 0.37606 0.26073 0.0
C1044 C 0.08246 0.34265 0.26554 0.0
C1045 C 0.06977 0.32091 0.24481 0.0
C1046 C 0.12715 0.4253 0.2292 0.0
C1047 C 0.07798 0.32732 0.29239 0.0
C1048 C 0.18955 0.38784 0.3021 0.0
C1049 C 0.17896 0.41609 0.31945 0.0
C1050 C 0.16505 0.37499 0.28305 0.0
C1051 C 0.12866 0.39079 0.28104 0.0
C1052 C 0.11731 0.41897 0.29874 0.0
C1053 C 0.14265 0.43127 0.3179 0.0
C1054 C 0.17836 0.34439 0.26502 0.0
C1055 C 0.07884 0.43658 0.29708 0.0
H1056 H 0.09812 0.3759 0.19508 0.0
H1057 H 0.05674 0.29385 0.24852 0.0
H1058 H 0.12076 0.44744 0.24356 0.0
H1059 H 0.15782 0.4197 0.22999 0.0
H1060 H 0.12024 0.43604 0.20974 0.0
H1061 H 0.05528 0.30586 0.29344 0.0
H1062 H 0.10471 0.31389 0.29845 0.0
H1063 H 0.07169 0.35017 0.30624 0.0
H1064 H 0.21741 0.37562 0.30335 0.0
H1065 H 0.13447 0.45331 0.33115 0.0
H1066 H 0.1772 0.35447 0.24488 0.0
H1067 H 0.15964 0.31948 0.26649 0.0
H1068 H 0.20759 0.33525 0.26918 0.0
H1069 H 0.07667 0.45315 0.2791 0.0
H1070 H 0.07304 0.45552 0.31359 0.0
H1071 H 0.05677 0.41452 0.29632 0.0
C1072 C 0.70812 0.08177 0.73765 0.0
C1073 C 0.69255 0.07064 0.71404 0.0
C1074 C 0.68612 0.09865 0.75677 0.0
C1075 C 0.64727 0.10428 0.75245 0.0
C1076 C 0.63074 0.09065 0.72944 0.0
C1077 C 0.65363 0.07417 0.71039 0.0
C1078 C 0.70518 0.11307 0.78079 0.0
C1079 C 0.5893 0.09548 0.72429 0.0
C1080 C 0.59243 0.14164 0.81031 0.0
C1081 C 0.59358 0.18051 0.80572 0.0
C1082 C 0.60823 0.11603 0.79258 0.0
C1083 C 0.62593 0.12974 0.77002 0.0
C1084 C 0.62639 0.16889 0.76516 0.0
C1085 C 0.61013 0.19358 0.7829 0.0
C1086 C 0.60677 0.07445 0.79825 0.0
C1087 C 0.64537 0.18501 0.74162 0.0
H1088 H 0.73807 0.07883 0.74089 0.0
H1089 H 0.64126 0.06537 0.69234 0.0
H1090 H 0.70562 0.1443 0.7805 0.0
H1091 H 0.68939 0.1043 0.79813 0.0
H1092 H 0.7346 0.1029 0.78251 0.0
H1093 H 0.57964 0.07777 0.70798 0.0
H1094 H 0.5726 0.08824 0.74159 0.0
H1095 H 0.58347 0.12535 0.71961 0.0
H1096 H 0.5795 0.13127 0.82776 0.0
H1097 H 0.61119 0.2235 0.779 0.0
H1098 H 0.63546 0.06408 0.80263 0.0
H1099 H 0.59657 0.05872 0.7812 0.0
H1100 H 0.58822 0.06796 0.81483 0.0
H1101 H 0.67589 0.17858 0.74214 0.0
H1102 H 0.64193 0.21599 0.74015 0.0
H1103 H 0.63372 0.17192 0.72399 0.0
C1104 C 0.87359 0.60746 0.31512 0.0
C1105 C 0.83828 0.59122 0.31072 0.0
C1106 C 0.89462 0.62254 0.29454 0.0
C1107 C 0.87984 0.6212 0.2692 0.0
C1108 C 0.846 0.60133 0.2646 0.0
C1109 C 0.82568 0.58673 0.28539 0.0
C1110 C 0.93084 0.64297 0.30027 0.0
C1111 C 0.82899 0.59899 0.23808 0.0
C1112 C 0.89255 0.70737 0.22717 0.0
C1113 C 0.91858 0.69523 0.20872 0.0
C1114 C 0.8804 0.6837 0.24698 0.0
C1115 C 0.89483 0.64668 0.24875 0.0
C1116 C 0.92116 0.63402 0.23018 0.0
C1117 C 0.93257 0.6584 0.21021 0.0
C1118 C 0.85169 0.69836 0.2659 0.0
C1119 C 0.93743 0.59491 0.23157 0.0
H1120 H 0.88334 0.61111 0.33468 0.0
H1121 H 0.79848 0.57383 0.28192 0.0
H1122 H 0.95227 0.63691 0.28536 0.0
H1123 H 0.92565 0.67375 0.30017 0.0
H1124 H 0.94232 0.63512 0.31937 0.0
H1125 H 0.80629 0.57754 0.237 0.0
H1126 H 0.81684 0.62672 0.23291 0.0
H1127 H 0.8507 0.59212 0.22355 0.0
H1128 H 0.88136 0.73569 0.22609 0.0
H1129 H 0.953 0.649 0.19617 0.0
H1130 H 0.86292 0.69654 0.28573 0.0
H1131 H 0.82589 0.68082 0.26508 0.0
H1132 H 0.84374 0.72804 0.26205 0.0
H1133 H 0.95177 0.59091 0.25029 0.0
H1134 H 0.95788 0.58941 0.2159 0.0
H1135 H 0.91459 0.57368 0.23045 0.0
C1136 C 0.41283 0.86337 0.80065 0.0
C1137 C 0.4223 0.82584 0.79552 0.0
C1138 C 0.3987 0.88679 0.781 0.0
C1139 C 0.39369 0.87215 0.75584 0.0
C1140 C 0.4064 0.83533 0.75026 0.0
C1141 C 0.42066 0.81284 0.77007 0.0
C1142 C 0.38634 0.92617 0.78765 0.0
C1143 C 0.40146 0.81817 0.72392 0.0
C1144 C 0.30644 0.89961 0.71853 0.0
C1145 C 0.32094 0.92144 0.69836 0.0
C1146 C 0.32975 0.88449 0.73755 0.0
C1147 C 0.36888 0.8917 0.73687 0.0
C1148 C 0.38383 0.9145 0.71694 0.0
C1149 C 0.35971 0.92879 0.69769 0.0
C1150 C 0.31244 0.85969 0.75796 0.0
C1151 C 0.42526 0.92341 0.71582 0.0
H1152 H 0.41414 0.8737 0.82021 0.0
H1153 H 0.42853 0.78403 0.76582 0.0
H1154 H 0.39402 0.94613 0.77214 0.0
H1155 H 0.3553 0.92676 0.78972 0.0
H1156 H 0.39901 0.936 0.80597 0.0
H1157 H 0.41733 0.79145 0.72179 0.0
H1158 H 0.3712 0.81218 0.72059 0.0
H1159 H 0.4108 0.83796 0.70877 0.0
H1160 H 0.27659 0.89349 0.71921 0.0
H1161 H 0.37109 0.94587 0.68231 0.0
H1162 H 0.31917 0.87079 0.77733 0.0
H1163 H 0.32439 0.83092 0.75666 0.0
H1164 H 0.28138 0.8576 0.75613 0.0
H1165 H 0.43516 0.9339 0.73472 0.0
H1166 H 0.43187 0.94477 0.70092 0.0
H1167 H 0.44132 0.89745 0.71147 0.0
C1168 C 0.85782 0.66415 0.80501 0.0
C1169 C 0.88803 0.65738 0.82159 0.0
C1170 C 0.84607 0.63706 0.78723 0.0
C1171 C 0.86537 0.6023 0.78566 0.0
C1172 C 0.8954 0.5948 0.80284 0.0
C1173 C 0.90627 0.62247 0.82081 0.0
C1174 C 0.81335 0.64609 0.76975 0.0
C1175 C 0.91691 0.55831 0.80155 0.0
C1176 C 0.80355 0.53267 0.75118 0.0
C1177 C 0.81315 0.53989 0.72553 0.0
C1178 C 0.82321 0.54967 0.77145 0.0
C1179 C 0.85329 0.57442 0.76589 0.0
C1180 C 0.866 0.57809 0.7402 0.0
C1181 C 0.8457 0.56075 0.72023 0.0
C1182 C 0.80882 0.5446 0.79849 0.0
C1183 C 0.89849 0.60358 0.7335 0.0
H1184 H 0.84357 0.69109 0.80569 0.0
H1185 H 0.93 0.61747 0.83341 0.0
H1186 H 0.82281 0.64606 0.74946 0.0
H1187 H 0.79118 0.62428 0.77166 0.0
H1188 H 0.80069 0.67396 0.77405 0.0
H1189 H 0.93636 0.55494 0.81808 0.0
H1190 H 0.89736 0.53397 0.80105 0.0
H1191 H 0.93363 0.55754 0.78358 0.0
H1192 H 0.77873 0.51603 0.75542 0.0
H1193 H 0.85343 0.56631 0.70046 0.0
H1194 H 0.79226 0.56975 0.80409 0.0
H1195 H 0.83241 0.5419 0.81228 0.0
H1196 H 0.7904 0.51945 0.80021 0.0
H1197 H 0.88893 0.63328 0.73405 0.0
H1198 H 0.9096 0.59761 0.71399 0.0
H1199 H 0.92162 0.60055 0.74764 0.0
C1200 C 0.34376 0.90598 0.30465 0.0
C1201 C 0.30507 0.90988 0.30029 0.0
C1202 C 0.36704 0.88853 0.28624 0.0
C1203 C 0.35111 0.87442 0.26316 0.0
C1204 C 0.31232 0.87942 0.25841 0.0
C1205 C 0.28996 0.89718 0.27689 0.0
C1206 C 0.4084 0.884 0.29185 0.0
C1207 C 0.29393 0.86437 0.23431 0.0
C1208 C 0.40822 0.84269 0.20501 0.0
C1209 C 0.40927 0.80368 0.20881 0.0
C1210 C 0.39081 0.86648 0.22312 0.0
C1211 C 0.37356 0.85071 0.2452 0.0
C1212 C 0.37465 0.81132 0.24902 0.0
C1213 C 0.39262 0.78844 0.23091 0.0
C1214 C 0.39045 0.90838 0.21853 0.0
C1215 C 0.35587 0.79312 0.27191 0.0
H1216 H 0.3557 0.91592 0.32257 0.0
H1217 H 0.26015 0.90023 0.27312 0.0
H1218 H 0.41479 0.85386 0.2952 0.0
H1219 H 0.42539 0.89325 0.27513 0.0
H1220 H 0.41727 0.90029 0.30903 0.0
H1221 H 0.26396 0.87283 0.23271 0.0
H1222 H 0.30909 0.87447 0.21703 0.0
H1223 H 0.29535 0.83317 0.2342 0.0
H1224 H 0.42135 0.85463 0.18809 0.0
H1225 H 0.3931 0.75827 0.23395 0.0
H1226 H 0.40121 0.92342 0.23571 0.0
H1227 H 0.36118 0.91801 0.21531 0.0
H1228 H 0.40772 0.91652 0.20165 0.0
H1229 H 0.3665 0.80576 0.28998 0.0
H1230 H 0.36067 0.76226 0.27263 0.0
H1231 H 0.32512 0.79824 0.27118 0.0
C1232 C 0.0689 0.369 0.815 0.0
C1233 C 0.08728 0.33415 0.81591 0.0
C1234 C 0.08052 0.39703 0.79749 0.0
C1235 C 0.11134 0.3899 0.78088 0.0
C1236 C 0.1304 0.35503 0.78236 0.0
C1237 C 0.11807 0.32774 0.79971 0.0
C1238 C 0.05931 0.43369 0.7963 0.0
C1239 C 0.16389 0.34626 0.76549 0.0
C1240 C 0.13708 0.43221 0.71692 0.0
C1241 C 0.1702 0.45122 0.72364 0.0
C1242 C 0.11434 0.41568 0.73594 0.0
C1243 C 0.12511 0.41839 0.7621 0.0
C1244 C 0.15575 0.44175 0.76899 0.0
C1245 C 0.17802 0.45774 0.74965 0.0
C1246 C 0.08143 0.39168 0.72779 0.0
C1247 C 0.16796 0.44604 0.79659 0.0
H1248 H 0.04489 0.3739 0.82737 0.0
H1249 H 0.13272 0.30103 0.80054 0.0
H1250 H 0.07902 0.45791 0.79626 0.0
H1251 H 0.04305 0.43489 0.77814 0.0
H1252 H 0.03945 0.43688 0.81262 0.0
H1253 H 0.17568 0.31786 0.76924 0.0
H1254 H 0.15567 0.34777 0.74497 0.0
H1255 H 0.18645 0.36735 0.76868 0.0
H1256 H 0.13071 0.42734 0.69684 0.0
H1257 H 0.20323 0.47309 0.75495 0.0
H1258 H 0.05749 0.3951 0.74123 0.0
H1259 H 0.08987 0.36163 0.72809 0.0
H1260 H 0.07191 0.39871 0.70805 0.0
H1261 H 0.14333 0.44911 0.80947 0.0
H1262 H 0.18678 0.47073 0.79923 0.0
H1263 H 0.18348 0.42044 0.80258 0.0
C1264 C 0.63396 0.09436 0.31487 0.0
C1265 C 0.66395 0.06919 0.3123 0.0
C1266 C 0.61442 0.10709 0.29302 0.0
C1267 C 0.6253 0.0942 0.26831 0.0
C1268 C 0.65197 0.06484 0.26627 0.0
C1269 C 0.67121 0.05295 0.2883 0.0
C1270 C 0.58559 0.13781 0.29613 0.0
C1271 C 0.66403 0.04963 0.2405 0.0
C1272 C 0.58024 0.13387 0.20722 0.0
C1273 C 0.60446 0.16409 0.20201 0.0
C1274 C 0.58632 0.11056 0.22878 0.0
C1275 C 0.61733 0.11775 0.24524 0.0
C1276 C 0.6423 0.14764 0.23945 0.0
C1277 C 0.63551 0.17028 0.21804 0.0
C1278 C 0.559 0.07913 0.23437 0.0
C1279 C 0.67618 0.15617 0.25605 0.0
H1280 H 0.62841 0.10704 0.33343 0.0
H1281 H 0.69428 0.0332 0.28637 0.0
H1282 H 0.59881 0.16537 0.29174 0.0
H1283 H 0.56185 0.13374 0.28259 0.0
H1284 H 0.57443 0.1389 0.31603 0.0
H1285 H 0.67845 0.02206 0.24238 0.0
H1286 H 0.63958 0.04632 0.22747 0.0
H1287 H 0.68386 0.06976 0.23143 0.0
H1288 H 0.55597 0.12927 0.19502 0.0
H1289 H 0.65456 0.19338 0.21398 0.0
H1290 H 0.54159 0.08683 0.25123 0.0
H1291 H 0.57415 0.05283 0.23924 0.0
H1292 H 0.53997 0.07357 0.21788 0.0
H1293 H 0.66708 0.16261 0.27594 0.0
H1294 H 0.69279 0.18042 0.24877 0.0
H1295 H 0.69491 0.13127 0.25691 0.0
C1296 C 0.40824 0.22774 0.13659 0.0
C1297 C 0.42599 0.24967 0.15549 0.0
C1298 C 0.36917 0.2302 0.13247 0.0
C1299 C 0.34739 0.25502 0.14769 0.0
C1300 C 0.36518 0.27731 0.16666 0.0
C1301 C 0.40411 0.27456 0.17017 0.0
C1302 C 0.35119 0.20624 0.11192 0.0
C1303 C 0.34309 0.30426 0.18328 0.0
C1304 C 0.25314 0.29492 0.12754 0.0
C1305 C 0.22821 0.27441 0.143 0.0
C1306 C 0.29183 0.28726 0.12762 0.0
C1307 C 0.30604 0.25863 0.1438 0.0
C1308 C 0.28078 0.23661 0.15854 0.0
C1309 C 0.2421 0.24465 0.15786 0.0
C1310 C 0.31768 0.31109 0.11135 0.0
C1311 C 0.2948 0.20604 0.1762 0.0
H1312 H 0.42476 0.20829 0.12526 0.0
H1313 H 0.41745 0.29237 0.18436 0.0
H1314 H 0.32992 0.1873 0.12064 0.0
H1315 H 0.33626 0.22436 0.09792 0.0
H1316 H 0.37209 0.18885 0.10143 0.0
H1317 H 0.36105 0.31886 0.19762 0.0
H1318 H 0.32929 0.32579 0.1711 0.0
H1319 H 0.32055 0.28888 0.19363 0.0
H1320 H 0.24238 0.31747 0.11566 0.0
H1321 H 0.22295 0.22886 0.16993 0.0
H1322 H 0.33744 0.29304 0.10041 0.0
H1323 H 0.33479 0.32962 0.12393 0.0
H1324 H 0.30193 0.32903 0.09761 0.0
H1325 H 0.31463 0.18726 0.16594 0.0
H1326 H 0.27146 0.18878 0.18412 0.0
H1327 H 0.31037 0.21896 0.19244 0.0
C1328 C 0.75173 0.21753 0.61422 0.0
C1329 C 0.74285 0.19249 0.63422 0.0
C1330 C 0.75261 0.25657 0.61821 0.0
C1331 C 0.745 0.27121 0.64292 0.0
C1332 C 0.73758 0.24616 0.66347 0.0
C1333 C 0.73642 0.20715 0.65886 0.0
C1334 C 0.76032 0.28224 0.59571 0.0
C1335 C 0.72963 0.26062 0.69018 0.0
C1336 C 0.76921 0.37404 0.65659 0.0
C1337 C 0.73384 0.39102 0.65442 0.0
C1338 C 0.77342 0.33496 0.65302 0.0
C1339 C 0.74159 0.31269 0.64667 0.0
C1340 C 0.7061 0.33012 0.64365 0.0
C1341 C 0.70266 0.36893 0.64776 0.0
C1342 C 0.81161 0.31735 0.6567 0.0
C1343 C 0.6716 0.3077 0.63633 0.0
H1344 H 0.75775 0.20671 0.59525 0.0
H1345 H 0.72941 0.18826 0.67443 0.0
H1346 H 0.73504 0.29951 0.59166 0.0
H1347 H 0.78359 0.30191 0.60032 0.0
H1348 H 0.76779 0.26639 0.57804 0.0
H1349 H 0.72772 0.23754 0.70449 0.0
H1350 H 0.75199 0.28053 0.69627 0.0
H1351 H 0.70268 0.2763 0.69025 0.0
H1352 H 0.79319 0.3911 0.66203 0.0
H1353 H 0.67539 0.3822 0.64588 0.0
H1354 H 0.81995 0.30169 0.63919 0.0
H1355 H 0.81044 0.29675 0.67267 0.0
H1356 H 0.83364 0.3386 0.66109 0.0
H1357 H 0.6766 0.29251 0.61803 0.0
H1358 H 0.64632 0.32572 0.63404 0.0
H1359 H 0.66563 0.28624 0.65123 0.0
C1360 C 0.63452 0.80836 0.15584 0.0
C1361 C 0.60984 0.78007 0.14734 0.0
C1362 C 0.67358 0.80521 0.15257 0.0
C1363 C 0.68863 0.77315 0.14016 0.0
C1364 C 0.66393 0.74486 0.13093 0.0
C1365 C 0.62487 0.74859 0.13468 0.0
C1366 C 0.69878 0.83612 0.16265 0.0
C1367 C 0.67881 0.71045 0.11734 0.0
C1368 C 0.7865 0.78474 0.11177 0.0
C1369 C 0.80953 0.76747 0.13029 0.0
C1370 C 0.74724 0.78587 0.11444 0.0
C1371 C 0.73018 0.7699 0.13641 0.0
C1372 C 0.75304 0.75245 0.15524 0.0
C1373 C 0.79235 0.7513 0.15192 0.0
C1374 C 0.72401 0.80469 0.09385 0.0
C1375 C 0.73599 0.73534 0.17906 0.0
H1376 H 0.62327 0.83308 0.16524 0.0
H1377 H 0.60625 0.72635 0.12829 0.0
H1378 H 0.71916 0.82434 0.17662 0.0
H1379 H 0.71527 0.84853 0.14669 0.0
H1380 H 0.6827 0.85895 0.17222 0.0
H1381 H 0.65593 0.6913 0.11092 0.0
H1382 H 0.69557 0.71898 0.10035 0.0
H1383 H 0.69784 0.69466 0.1303 0.0
H1384 H 0.79908 0.79804 0.0952 0.0
H1385 H 0.80953 0.7375 0.16623 0.0
H1386 H 0.70949 0.82962 0.10196 0.0
H1387 H 0.70196 0.78513 0.08679 0.0
H1388 H 0.74132 0.81395 0.07727 0.0
H1389 H 0.72104 0.75735 0.1902 0.0
H1390 H 0.75745 0.72213 0.19166 0.0
H1391 H 0.71489 0.7137 0.17367 0.0
C1392 C 0.2607 0.62088 0.63105 0.0
C1393 C 0.24477 0.60844 0.65407 0.0
C1394 C 0.26179 0.65946 0.62503 0.0
C1395 C 0.24576 0.68593 0.64224 0.0
C1396 C 0.22822 0.67307 0.66503 0.0
C1397 C 0.22854 0.6345 0.67086 0.0
C1398 C 0.28143 0.67199 0.60082 0.0
C1399 C 0.20986 0.70011 0.68354 0.0
C1400 C 0.27961 0.7878 0.64163 0.0
C1401 C 0.25253 0.80497 0.62607 0.0
C1402 C 0.27805 0.74897 0.64679 0.0
C1403 C 0.24804 0.72709 0.63673 0.0
C1404 C 0.2201 0.74464 0.62155 0.0
C1405 C 0.22298 0.78323 0.61614 0.0
C1406 C 0.30883 0.73125 0.66263 0.0
C1407 C 0.18704 0.7227 0.61116 0.0
H1408 H 0.27385 0.60052 0.61844 0.0
H1409 H 0.21662 0.62455 0.68876 0.0
H1410 H 0.26208 0.68889 0.58878 0.0
H1411 H 0.30564 0.69032 0.60583 0.0
H1412 H 0.29186 0.64787 0.58928 0.0
H1413 H 0.19496 0.68531 0.69933 0.0
H1414 H 0.23144 0.71889 0.69208 0.0
H1415 H 0.18944 0.71822 0.67324 0.0
H1416 H 0.30255 0.80464 0.64914 0.0
H1417 H 0.20178 0.79668 0.60437 0.0
H1418 H 0.32255 0.70845 0.65148 0.0
H1419 H 0.29674 0.71826 0.68013 0.0
H1420 H 0.33062 0.75196 0.66852 0.0
H1421 H 0.19704 0.70002 0.59823 0.0
H1422 H 0.16711 0.74078 0.60036 0.0
H1423 H 0.17165 0.70901 0.62717 0.0
C1424 C 0.87558 0.27801 0.84086 0.0
C1425 C 0.90018 0.25975 0.85776 0.0
C1426 C 0.83663 0.27827 0.84526 0.0
C1427 C 0.82178 0.25893 0.86676 0.0
C1428 C 0.84658 0.24049 0.88395 0.0
C1429 C 0.88557 0.24155 0.87941 0.0
C1430 C 0.81137 0.29914 0.82685 0.0
C1431 C 0.83185 0.21893 0.90679 0.0
C1432 C 0.72418 0.28453 0.89102 0.0
C1433 C 0.70167 0.25703 0.87929 0.0
C1434 C 0.76321 0.28564 0.88696 0.0
C1435 C 0.78032 0.25807 0.8712 0.0
C1436 C 0.75771 0.23006 0.8594 0.0
C1437 C 0.71858 0.23016 0.86336 0.0
C1438 C 0.78607 0.31657 0.89934 0.0
C1439 C 0.77489 0.19976 0.84283 0.0
H1440 H 0.887 0.29227 0.82421 0.0
H1441 H 0.9046 0.22704 0.89227 0.0
H1442 H 0.79167 0.27919 0.81748 0.0
H1443 H 0.79414 0.32001 0.83745 0.0
H1444 H 0.8275 0.31407 0.81169 0.0
H1445 H 0.85478 0.20586 0.91818 0.0
H1446 H 0.81557 0.23791 0.91951 0.0
H1447 H 0.81241 0.19645 0.90021 0.0
H1448 H 0.71107 0.3056 0.90309 0.0
H1449 H 0.70123 0.20869 0.85449 0.0
H1450 H 0.80116 0.33286 0.88438 0.0
H1451 H 0.80763 0.30426 0.9122 0.0
H1452 H 0.76839 0.33623 0.9107 0.0
H1453 H 0.78946 0.21263 0.82618 0.0
H1454 H 0.75356 0.17952 0.83555 0.0
H1455 H 0.79632 0.18403 0.85397 0.0
C1456 C 0.80282 0.74864 0.3898 0.0
C1457 C 0.77432 0.72128 0.38986 0.0
C1458 C 0.79435 0.78705 0.3878 0.0
C1459 C 0.75641 0.7986 0.38566 0.0
C1460 C 0.72738 0.77132 0.38634 0.0
C1461 C 0.73668 0.73298 0.38845 0.0
C1462 C 0.82622 0.8152 0.38709 0.0
C1463 C 0.68659 0.78254 0.38415 0.0
C1464 C 0.74119 0.90356 0.39578 0.0
C1465 C 0.74413 0.91687 0.37055 0.0
C1466 C 0.74312 0.86476 0.40104 0.0
C1467 C 0.74779 0.83891 0.38054 0.0
C1468 C 0.74822 0.85222 0.35494 0.0
C1469 C 0.74649 0.89099 0.3503 0.0
C1470 C 0.7425 0.85169 0.42859 0.0
C1471 C 0.75273 0.8257 0.33248 0.0
H1472 H 0.83198 0.74006 0.39054 0.0
H1473 H 0.71443 0.71216 0.38892 0.0
H1474 H 0.82712 0.82899 0.368 0.0
H1475 H 0.82162 0.83757 0.40161 0.0
H1476 H 0.85396 0.80193 0.39075 0.0
H1477 H 0.66727 0.75831 0.38704 0.0
H1478 H 0.6798 0.80464 0.39846 0.0
H1479 H 0.68126 0.79464 0.36487 0.0
H1480 H 0.73953 0.92356 0.41144 0.0
H1481 H 0.74813 0.90128 0.33076 0.0
H1482 H 0.77104 0.84218 0.4342 0.0
H1483 H 0.72322 0.82737 0.43088 0.0
H1484 H 0.73366 0.87442 0.44194 0.0
H1485 H 0.78128 0.81316 0.33286 0.0
H1486 H 0.74884 0.84013 0.31376 0.0
H1487 H 0.7322 0.80225 0.33381 0.0
C1488 C 0.10177 0.70691 0.8777 0.0
C1489 C 0.08456 0.72254 0.85597 0.0
C1490 C 0.14073 0.71097 0.88189 0.0
C1491 C 0.16276 0.73168 0.86413 0.0
C1492 C 0.14539 0.74758 0.84224 0.0
C1493 C 0.10668 0.74268 0.8384 0.0
C1494 C 0.15829 0.6932 0.90528 0.0
C1495 C 0.16757 0.77049 0.82305 0.0
C1496 C 0.25372 0.78013 0.88329 0.0
C1497 C 0.28089 0.7581 0.87074 0.0
C1498 C 0.21537 0.7709 0.88227 0.0
C1499 C 0.20367 0.73842 0.8687 0.0
C1500 C 0.23103 0.71479 0.85727 0.0
C1501 C 0.26927 0.72498 0.85831 0.0
C1502 C 0.18722 0.79703 0.89463 0.0
C1503 C 0.21976 0.67964 0.8429 0.0
H1504 H 0.08481 0.69118 0.89124 0.0
H1505 H 0.09349 0.75548 0.82184 0.0
H1506 H 0.1815 0.67422 0.89941 0.0
H1507 H 0.1707 0.71529 0.91774 0.0
H1508 H 0.1376 0.67683 0.91672 0.0
H1509 H 0.14993 0.78054 0.80686 0.0
H1510 H 0.18024 0.79529 0.83272 0.0
H1511 H 0.19097 0.75346 0.81513 0.0
H1512 H 0.26232 0.80517 0.89357 0.0
H1513 H 0.28981 0.70773 0.84851 0.0
H1514 H 0.16787 0.78105 0.90727 0.0
H1515 H 0.16984 0.81054 0.87954 0.0
H1516 H 0.20098 0.81949 0.90615 0.0
H1517 H 0.1997 0.66274 0.85444 0.0
H1518 H 0.24439 0.66183 0.83802 0.0
H1519 H 0.20529 0.68753 0.82482 0.0
C1520 C 0.28319 0.28912 0.36916 0.0
C1521 C 0.25059 0.30105 0.38199 0.0
C1522 C 0.28845 0.25101 0.36254 0.0
C1523 C 0.2605 0.22412 0.36895 0.0
C1524 C 0.2277 0.23596 0.382 0.0
C1525 C 0.22309 0.2741 0.38821 0.0
C1526 C 0.32371 0.23955 0.34847 0.0
C1527 C 0.19705 0.20837 0.38911 0.0
C1528 C 0.24842 0.13345 0.3311 0.0
C1529 C 0.26366 0.10629 0.34775 0.0
C1530 C 0.24871 0.1719 0.3373 0.0
C1531 C 0.26424 0.18389 0.36094 0.0
C1532 C 0.28044 0.15695 0.37764 0.0
C1533 C 0.28006 0.11856 0.37084 0.0
C1534 C 0.23108 0.19958 0.3189 0.0
C1535 C 0.29719 0.16856 0.40307 0.0
H1536 H 0.30475 0.30952 0.36446 0.0
H1537 H 0.1974 0.28278 0.39759 0.0
H1538 H 0.33853 0.21717 0.35929 0.0
H1539 H 0.31624 0.22769 0.32943 0.0
H1540 H 0.3433 0.26356 0.34559 0.0
H1541 H 0.17408 0.22176 0.40029 0.0
H1542 H 0.1848 0.19587 0.37146 0.0
H1543 H 0.20892 0.18498 0.40062 0.0
H1544 H 0.23509 0.12478 0.31341 0.0
H1545 H 0.2924 0.09818 0.38375 0.0
H1546 H 0.25079 0.22307 0.31489 0.0
H1547 H 0.2055 0.21192 0.32769 0.0
H1548 H 0.22304 0.18624 0.30039 0.0
H1549 H 0.31816 0.19132 0.40022 0.0
H1550 H 0.311 0.14472 0.41309 0.0
H1551 H 0.27477 0.17994 0.41568 0.0
C1552 C 0.61445 0.75989 0.84004 0.0
C1553 C 0.58755 0.75282 0.85912 0.0
C1554 C 0.65296 0.76152 0.84591 0.0
C1555 C 0.66507 0.75496 0.87142 0.0
C1556 C 0.63794 0.74824 0.89086 0.0
C1557 C 0.59943 0.74772 0.88452 0.0
C1558 C 0.68071 0.76982 0.8247 0.0
C1559 C 0.64966 0.74035 0.91817 0.0
C1560 C 0.76615 0.72089 0.87843 0.0
C1561 C 0.78455 0.75349 0.88688 0.0
C1562 C 0.72711 0.72068 0.87407 0.0
C1563 C 0.70615 0.75424 0.87748 0.0
C1564 C 0.72478 0.78736 0.88577 0.0
C1565 C 0.76364 0.78642 0.89074 0.0
C1566 C 0.7083 0.68453 0.86582 0.0
C1567 C 0.70384 0.82401 0.88882 0.0
H1568 H 0.6052 0.76416 0.82044 0.0
H1569 H 0.57864 0.74185 0.89919 0.0
H1570 H 0.69903 0.7938 0.83023 0.0
H1571 H 0.69919 0.74512 0.8216 0.0
H1572 H 0.66658 0.77667 0.80628 0.0
H1573 H 0.62515 0.73633 0.9311 0.0
H1574 H 0.66725 0.7146 0.91875 0.0
H1575 H 0.66706 0.76383 0.92566 0.0
H1576 H 0.78232 0.69538 0.87568 0.0
H1577 H 0.778 0.81172 0.89702 0.0
H1578 H 0.69622 0.68787 0.84633 0.0
H1579 H 0.68473 0.67778 0.879 0.0
H1580 H 0.72814 0.66041 0.86554 0.0
H1581 H 0.69107 0.8322 0.87021 0.0
H1582 H 0.72242 0.84723 0.89546 0.0
H1583 H 0.68056 0.82063 0.90279 0.0
C1584 C 0.24897 0.62089 0.37917 0.0
C1585 C 0.2386 0.60426 0.35583 0.0
C1586 C 0.24738 0.66013 0.38252 0.0
C1587 C 0.23403 0.68318 0.36228 0.0
C1588 C 0.22247 0.66629 0.33891 0.0
C1589 C 0.2255 0.62709 0.33584 0.0
C1590 C 0.26091 0.67699 0.40748 0.0
C1591 C 0.20701 0.68961 0.31713 0.0
C1592 C 0.20005 0.78107 0.38094 0.0
C1593 C 0.23015 0.8038 0.37308 0.0
C1594 C 0.20053 0.74195 0.37697 0.0
C1595 C 0.2324 0.72495 0.36552 0.0
C1596 C 0.26293 0.74785 0.35754 0.0
C1597 C 0.26118 0.78707 0.3611 0.0
C1598 C 0.1669 0.71881 0.38501 0.0
C1599 C 0.2978 0.73087 0.34578 0.0
H1600 H 0.25968 0.60322 0.39445 0.0
H1601 H 0.21745 0.6141 0.31783 0.0
H1602 H 0.28418 0.69708 0.40368 0.0
H1603 H 0.2379 0.69307 0.41674 0.0
H1604 H 0.27102 0.65527 0.42115 0.0
H1605 H 0.19741 0.67198 0.30076 0.0
H1606 H 0.183 0.7068 0.32399 0.0
H1607 H 0.22886 0.70937 0.31011 0.0
H1608 H 0.17587 0.79409 0.38994 0.0
H1609 H 0.28458 0.80463 0.35523 0.0
H1610 H 0.17515 0.69862 0.40021 0.0
H1611 H 0.1564 0.7021 0.36848 0.0
H1612 H 0.14357 0.73653 0.3924 0.0
H1613 H 0.31067 0.71073 0.35946 0.0
H1614 H 0.31907 0.75253 0.34065 0.0
H1615 H 0.29037 0.71484 0.32822 0.0
C1616 C 0.37643 0.26413 0.83958 0.0
C1617 C 0.40095 0.23609 0.84839 0.0
C1618 C 0.33796 0.26317 0.84541 0.0
C1619 C 0.32335 0.23317 0.86025 0.0
C1620 C 0.34779 0.20435 0.86887 0.0
C1621 C 0.38642 0.20635 0.86304 0.0
C1622 C 0.31313 0.29488 0.83622 0.0
C1623 C 0.33318 0.17165 0.88442 0.0
C1624 C 0.23338 0.25796 0.89542 0.0
C1625 C 0.20564 0.24551 0.87819 0.0
C1626 C 0.27174 0.25251 0.89042 0.0
C1627 C 0.28286 0.23355 0.86777 0.0
C1628 C 0.25503 0.21867 0.85111 0.0
C1629 C 0.21674 0.22497 0.85645 0.0
C1630 C 0.30037 0.26903 0.90867 0.0
C1631 C 0.26572 0.19783 0.82695 0.0
H1632 H 0.38755 0.28756 0.82867 0.0
H1633 H 0.40526 0.18453 0.86973 0.0
H1634 H 0.28951 0.28353 0.82464 0.0
H1635 H 0.30074 0.30972 0.85294 0.0
H1636 H 0.32873 0.3157 0.82439 0.0
H1637 H 0.35536 0.15045 0.88837 0.0
H1638 H 0.3219 0.18193 0.90299 0.0
H1639 H 0.30967 0.15771 0.87411 0.0
H1640 H 0.2251 0.27301 0.91259 0.0
H1641 H 0.19569 0.2153 0.84295 0.0
H1642 H 0.31571 0.29226 0.89901 0.0
H1643 H 0.32145 0.24752 0.91414 0.0
H1644 H 0.28721 0.2803 0.92642 0.0
H1645 H 0.27772 0.21791 0.81285 0.0
H1646 H 0.24117 0.1836 0.81798 0.0
H1647 H 0.28763 0.17649 0.8311 0.0
C1648 C 0.71403 0.24983 0.39643 0.0
C1649 C 0.73006 0.22291 0.38008 0.0
C1650 C 0.72161 0.28832 0.39332 0.0
C1651 C 0.74558 0.30027 0.37321 0.0
C1652 C 0.76298 0.27313 0.35723 0.0
C1653 C 0.75512 0.23474 0.36093 0.0
C1654 C 0.70279 0.31629 0.41096 0.0
C1655 C 0.78845 0.28471 0.33544 0.0
C1656 C 0.72565 0.39725 0.34613 0.0
C1657 C 0.75414 0.4193 0.35727 0.0
C1658 C 0.72308 0.35852 0.35085 0.0
C1659 C 0.74937 0.34115 0.36739 0.0
C1660 C 0.77827 0.36302 0.37873 0.0
C1661 C 0.78038 0.40182 0.37348 0.0
C1662 C 0.69178 0.33626 0.33836 0.0
C1663 C 0.80672 0.34549 0.39657 0.0
H1664 H 0.69517 0.24075 0.41153 0.0
H1665 H 0.76735 0.2141 0.34811 0.0
H1666 H 0.72386 0.33608 0.41903 0.0
H1667 H 0.68219 0.33323 0.39992 0.0
H1668 H 0.68778 0.30233 0.42705 0.0
H1669 H 0.80254 0.26022 0.32634 0.0
H1670 H 0.77176 0.29956 0.32058 0.0
H1671 H 0.81028 0.30461 0.34236 0.0
H1672 H 0.70469 0.4103 0.33404 0.0
H1673 H 0.8027 0.41838 0.382 0.0
H1674 H 0.67311 0.32424 0.35332 0.0
H1675 H 0.70362 0.31237 0.32729 0.0
H1676 H 0.67448 0.35371 0.32521 0.0
H1677 H 0.79217 0.33306 0.41339 0.0
H1678 H 0.8278 0.36621 0.40354 0.0
H1679 H 0.82166 0.32229 0.38664 0.0
C1680 C 0.12697 0.7524 0.1426 0.0
C1681 C 0.11092 0.74423 0.16656 0.0
C1682 C 0.16598 0.74903 0.13856 0.0
C1683 C 0.18948 0.73657 0.15884 0.0
C1684 C 0.17329 0.7279 0.18297 0.0
C1685 C 0.13435 0.73209 0.18657 0.0
C1686 C 0.18213 0.7591 0.11267 0.0
C1687 C 0.19707 0.71386 0.20498 0.0
C1688 C 0.28367 0.69099 0.14349 0.0
C1689 C 0.30944 0.7194 0.1501 0.0
C1690 C 0.2447 0.69646 0.14582 0.0
C1691 C 0.2308 0.73142 0.15471 0.0
C1692 C 0.25651 0.76069 0.16068 0.0
C1693 C 0.29547 0.75431 0.15839 0.0
C1694 C 0.21842 0.66437 0.13941 0.0
C1695 C 0.24292 0.79847 0.17011 0.0
H1696 H 0.10909 0.76233 0.1272 0.0
H1697 H 0.12204 0.72545 0.20504 0.0
H1698 H 0.20374 0.78142 0.1149 0.0
H1699 H 0.19627 0.73426 0.10414 0.0
H1700 H 0.16026 0.76914 0.09909 0.0
H1701 H 0.18019 0.70838 0.22253 0.0
H1702 H 0.2115 0.68745 0.19936 0.0
H1703 H 0.21919 0.73479 0.20968 0.0
H1704 H 0.29397 0.66418 0.13661 0.0
H1705 H 0.31495 0.77636 0.16381 0.0
H1706 H 0.19779 0.67333 0.12468 0.0
H1707 H 0.20227 0.65619 0.15676 0.0
H1708 H 0.23362 0.63923 0.13216 0.0
H1709 H 0.2219 0.81018 0.15656 0.0
H1710 H 0.26625 0.81905 0.17234 0.0
H1711 H 0.22876 0.79514 0.18894 0.0
C1712 C 0.22099 0.27206 0.6459 0.0
C1713 C 0.24395 0.30078 0.65586 0.0
C1714 C 0.23129 0.23407 0.6476 0.0
C1715 C 0.26597 0.22412 0.65905 0.0
C1716 C 0.29039 0.25293 0.66787 0.0
C1717 C 0.27899 0.29089 0.66636 0.0
C1718 C 0.20419 0.20444 0.63796 0.0
C1719 C 0.32796 0.24364 0.6797 0.0
C1720 C 0.2605 0.12625 0.68743 0.0
C1721 C 0.27271 0.10391 0.66684 0.0
C1722 C 0.26105 0.16568 0.68599 0.0
C1723 C 0.27454 0.18343 0.66347 0.0
C1724 C 0.29051 0.16111 0.6437 0.0
C1725 C 0.28929 0.12155 0.64557 0.0
C1726 C 0.24389 0.18812 0.70765 0.0
C1727 C 0.30608 0.17883 0.61964 0.0
H1728 H 0.19446 0.27915 0.63699 0.0
H1729 H 0.29708 0.31262 0.67412 0.0
H1730 H 0.21825 0.18604 0.6237 0.0
H1731 H 0.19506 0.18634 0.65416 0.0
H1732 H 0.1788 0.21686 0.62891 0.0
H1733 H 0.34613 0.26894 0.68163 0.0
H1734 H 0.3236 0.23145 0.69907 0.0
H1735 H 0.34294 0.22229 0.668 0.0
H1736 H 0.24834 0.11275 0.70412 0.0
H1737 H 0.29881 0.10455 0.62958 0.0
H1738 H 0.21654 0.1999 0.70128 0.0
H1739 H 0.26228 0.21212 0.71294 0.0
H1740 H 0.23895 0.17066 0.725 0.0
H1741 H 0.28251 0.18782 0.60713 0.0
H1742 H 0.32391 0.15886 0.60865 0.0
H1743 H 0.32292 0.20423 0.62433 0.0
C1744 C 0.74163 0.25645 0.148 0.0
C1745 C 0.72833 0.23648 0.12664 0.0
C1746 C 0.7803 0.26264 0.15151 0.0
C1747 C 0.80611 0.24892 0.13303 0.0
C1748 C 0.79253 0.23116 0.11052 0.0
C1749 C 0.7538 0.22486 0.10772 0.0
C1750 C 0.79362 0.28133 0.17591 0.0
C1751 C 0.81902 0.21671 0.09014 0.0
C1752 C 0.90931 0.27696 0.13864 0.0
C1753 C 0.92439 0.24569 0.1515 0.0
C1754 C 0.8709 0.27841 0.13217 0.0
C1755 C 0.84702 0.24811 0.13898 0.0
C1756 C 0.86214 0.2164 0.15169 0.0
C1757 C 0.90053 0.21544 0.15752 0.0
C1758 C 0.85583 0.31242 0.11825 0.0
C1759 C 0.83768 0.18342 0.15931 0.0
H1760 H 0.722 0.2652 0.16273 0.0
H1761 H 0.7434 0.20989 0.09103 0.0
H1762 H 0.8072 0.26005 0.18842 0.0
H1763 H 0.81496 0.30322 0.17161 0.0
H1764 H 0.77014 0.29447 0.18673 0.0
H1765 H 0.80395 0.20875 0.07225 0.0
H1766 H 0.84057 0.23823 0.08544 0.0
H1767 H 0.834 0.19154 0.09745 0.0
H1768 H 0.9273 0.30056 0.13397 0.0
H1769 H 0.9118 0.19066 0.16675 0.0
H1770 H 0.8348 0.32695 0.13044 0.0
H1771 H 0.84124 0.30359 0.1004 0.0
H1772 H 0.87838 0.33276 0.11318 0.0
H1773 H 0.8145 0.19313 0.17192 0.0
H1774 H 0.8537 0.16126 0.1696 0.0
H1775 H 0.82469 0.17066 0.142 0.0
C1776 C 0.76501 0.87304 0.6981 0.0
C1777 C 0.7465 0.89596 0.68022 0.0
C1778 C 0.76244 0.83367 0.69683 0.0
C1779 C 0.74068 0.81668 0.67722 0.0
C1780 C 0.71921 0.83969 0.66054 0.0
C1781 C 0.72235 0.8791 0.66226 0.0
C1782 C 0.78552 0.81033 0.7152 0.0
C1783 C 0.69528 0.82278 0.63957 0.0
C1784 C 0.78079 0.7249 0.65206 0.0
C1785 C 0.75884 0.69785 0.66471 0.0
C1786 C 0.77437 0.76349 0.65546 0.0
C1787 C 0.74505 0.77564 0.67188 0.0
C1788 C 0.72184 0.74856 0.68404 0.0
C1789 C 0.72902 0.70995 0.68033 0.0
C1790 C 0.79974 0.79131 0.64198 0.0
C1791 C 0.69022 0.76034 0.70159 0.0
H1792 H 0.78312 0.88594 0.71234 0.0
H1793 H 0.70792 0.89652 0.64837 0.0
H1794 H 0.76841 0.78708 0.72328 0.0
H1795 H 0.80942 0.79746 0.70471 0.0
H1796 H 0.79697 0.82743 0.73127 0.0
H1797 H 0.67565 0.84372 0.63117 0.0
H1798 H 0.71372 0.81205 0.62403 0.0
H1799 H 0.67876 0.79861 0.64698 0.0
H1800 H 0.80332 0.71585 0.63953 0.0
H1801 H 0.71205 0.68929 0.6903 0.0
H1802 H 0.81546 0.80813 0.65638 0.0
H1803 H 0.78274 0.81119 0.6304 0.0
H1804 H 0.82035 0.77729 0.62912 0.0
H1805 H 0.70203 0.77334 0.71921 0.0
H1806 H 0.67223 0.73618 0.7073 0.0
H1807 H 0.6724 0.78185 0.69214 0.0
loop_
_geom_bond_atom_site_label_1
_geom_bond_atom_site_label_2
_geom_bond_distance
_geom_bond_site_symmetry_2
_ccdc_geom_bond_type
C0 C1 1.351 . S
C0 N3 1.368 . S
C0 H5 0.931 . S
C1 C0 1.351 . S
C1 N2 1.373 . S
C1 H29 0.930 . S
N2 C1 1.373 . S
N2 C4 1.340 . S
N3 C0 1.368 . S
N3 C4 1.321 . S
N3 Co6 2.135 1_655 S
C4 N2 1.340 . S
C4 N3 1.321 . S
C4 H28 0.930 . S
H5 C0 0.931 . S
Co6 N3 2.135 1_455 S
Co6 N9 2.121 . S
Co6 O14 2.055 . S
Co6 O17 2.039 . S
Co6 N20 2.140 . S
C7 O8 1.227 . S
C7 O17 1.265 . S
O8 C7 1.227 . S
N9 Co6 2.121 . S
N9 C11 1.375 . S
N9 C12 1.313 . S
C10 C11 1.338 . S
C10 N13 1.377 . S
C10 H30 0.930 . S
C11 N9 1.375 . S
C11 C10 1.338 . S
C11 H15 0.931 . S
C12 N9 1.313 . S
C12 N13 1.344 . S
C12 H16 0.930 . S
N13 C10 1.377 . S
N13 C12 1.344 . S
O14 Co6 2.055 . S
O14 C18 1.253 . S
H15 C11 0.931 . S
H16 C12 0.930 . S
O17 Co6 2.039 . S
O17 C7 1.265 . S
C18 O14 1.253 . S
C18 O19 1.227 . S
O19 C18 1.227 . S
N20 Co6 2.140 . S
N20 C23 1.346 . S
N20 C24 1.345 . S
C21 C22 1.387 1_455 S
C21 C25 1.391 . S
C22 C21 1.387 1_655 S
C22 C23 1.369 1_655 S
C22 H31 0.929 . S
C23 N20 1.346 . S
C23 C22 1.369 1_455 S
C23 H26 0.928 1_455 S
C24 N20 1.345 . S
C24 C25 1.371 . S
C24 H27 0.931 . S
C25 C21 1.391 . S
C25 C24 1.371 . S
C25 H32 0.930 . S
H26 C23 0.928 1_655 S
H27 C24 0.931 . S
H28 C4 0.930 . S
H29 C1 0.930 . S
H30 C10 0.930 . S
H31 C22 0.929 . S
H32 C25 0.930 . S
C33 C34 1.351 . S
C33 N36 1.368 . S
C33 H38 0.931 . S
C34 C33 1.351 . S
C34 N35 1.373 . S
C34 H62 0.930 . S
N35 C34 1.373 . S
N35 C37 1.340 . S
N36 C33 1.368 . S
N36 C37 1.321 . S
N36 Co39 2.135 1_565 S
C37 N35 1.340 . S
C37 N36 1.321 . S
C37 H61 0.930 . S
H38 C33 0.931 . S
Co39 N36 2.135 1_545 S
Co39 N42 2.121 . S
Co39 O47 2.055 . S
Co39 O50 2.039 . S
Co39 N53 2.140 . S
C40 O41 1.227 . S
C40 O50 1.265 . S
O41 C40 1.227 . S
N42 Co39 2.121 . S
N42 C44 1.375 . S
N42 C45 1.313 . S
C43 C44 1.338 . S
C43 N46 1.377 . S
C43 H63 0.930 . S
C44 N42 1.375 . S
C44 C43 1.338 . S
C44 H48 0.931 . S
C45 N42 1.313 . S
C45 N46 1.344 . S
C45 H49 0.930 . S
N46 C43 1.377 . S
N46 C45 1.344 . S
O47 Co39 2.055 . S
O47 C51 1.253 . S
H48 C44 0.931 . S
H49 C45 0.930 . S
O50 Co39 2.039 . S
O50 C40 1.265 . S
C51 O47 1.253 . S
C51 O52 1.227 . S
O52 C51 1.227 . S
N53 Co39 2.140 . S
N53 C56 1.346 . S
N53 C57 1.345 . S
C54 C55 1.387 1_545 S
C54 C58 1.391 . S
C55 C54 1.387 1_565 S
C55 C56 1.369 1_565 S
C55 H64 0.929 . S
C56 N53 1.346 . S
C56 C55 1.369 1_545 S
C56 H59 0.928 1_545 S
C57 N53 1.345 . S
C57 C58 1.371 . S
C57 H60 0.931 . S
C58 C54 1.391 . S
C58 C57 1.371 . S
C58 H65 0.930 . S
H59 C56 0.928 1_565 S
H60 C57 0.931 . S
H61 C37 0.930 . S
H62 C34 0.930 . S
H63 C43 0.930 . S
H64 C55 0.929 . S
H65 C58 0.930 . S
C66 C67 1.351 . S
C66 N69 1.368 . S
C66 H71 0.931 . S
C67 C66 1.351 . S
C67 N68 1.373 . S
C67 H95 0.930 . S
N68 C67 1.373 . S
N68 C70 1.340 . S
N69 C66 1.368 . S
N69 C70 1.321 . S
N69 Co72 2.135 1_455 S
C70 N68 1.340 . S
C70 N69 1.321 . S
C70 H94 0.930 . S
H71 C66 0.931 . S
Co72 N69 2.135 1_655 S
Co72 N75 2.121 . S
Co72 O80 2.055 . S
Co72 O83 2.039 . S
Co72 N86 2.140 . S
C73 O74 1.227 . S
C73 O83 1.265 . S
O74 C73 1.227 . S
N75 Co72 2.121 . S
N75 C77 1.375 . S
N75 C78 1.313 . S
C76 C77 1.338 . S
C76 N79 1.377 . S
C76 H96 0.930 . S
C77 N75 1.375 . S
C77 C76 1.338 . S
C77 H81 0.931 . S
C78 N75 1.313 . S
C78 N79 1.344 . S
C78 H82 0.930 . S
N79 C76 1.377 . S
N79 C78 1.344 . S
O80 Co72 2.055 . S
O80 C84 1.253 . S
H81 C77 0.931 . S
H82 C78 0.930 . S
O83 Co72 2.039 . S
O83 C73 1.265 . S
C84 O80 1.253 . S
C84 O85 1.227 . S
O85 C84 1.227 . S
N86 Co72 2.140 . S
N86 C89 1.346 . S
N86 C90 1.345 . S
C87 C88 1.387 1_655 S
C87 C91 1.391 . S
C88 C87 1.387 1_455 S
C88 C89 1.369 1_455 S
C88 H97 0.929 . S
C89 N86 1.346 . S
C89 C88 1.369 1_655 S
C89 H92 0.928 1_655 S
C90 N86 1.345 . S
C90 C91 1.371 . S
C90 H93 0.931 . S
C91 C87 1.391 . S
C91 C90 1.371 . S
C91 H98 0.930 . S
H92 C89 0.928 1_455 S
H93 C90 0.931 . S
H94 C70 0.930 . S
H95 C67 0.930 . S
H96 C76 0.930 . S
H97 C88 0.929 . S
H98 C91 0.930 . S
C99 C100 1.351 . S
C99 N102 1.368 . S
C99 H104 0.931 . S
C100 C99 1.351 . S
C100 N101 1.373 . S
C100 H128 0.930 . S
N101 C100 1.373 . S
N101 C103 1.340 . S
N102 C99 1.368 . S
N102 C103 1.321 . S
N102 Co105 2.135 1_545 S
C103 N101 1.340 . S
C103 N102 1.321 . S
C103 H127 0.930 . S
H104 C99 0.931 . S
Co105 N102 2.135 1_565 S
Co105 N108 2.121 . S
Co105 O113 2.055 . S
Co105 O116 2.039 . S
Co105 N119 2.140 . S
C106 O107 1.227 . S
C106 O116 1.265 . S
O107 C106 1.227 . S
N108 Co105 2.121 . S
N108 C110 1.375 . S
N108 C111 1.313 . S
C109 C110 1.338 . S
C109 N112 1.377 . S
C109 H129 0.930 . S
C110 N108 1.375 . S
C110 C109 1.338 . S
C110 H114 0.931 . S
C111 N108 1.313 . S
C111 N112 1.344 . S
C111 H115 0.930 . S
N112 C109 1.377 . S
N112 C111 1.344 . S
O113 Co105 2.055 . S
O113 C117 1.253 . S
H114 C110 0.931 . S
H115 C111 0.930 . S
O116 Co105 2.039 . S
O116 C106 1.265 . S
C117 O113 1.253 . S
C117 O118 1.227 . S
O118 C117 1.227 . S
N119 Co105 2.140 . S
N119 C122 1.346 . S
N119 C123 1.345 . S
C120 C121 1.387 1_565 S
C120 C124 1.391 . S
C121 C120 1.387 1_545 S
C121 C122 1.369 1_545 S
C121 H130 0.929 . S
C122 N119 1.346 . S
C122 C121 1.369 1_565 S
C122 H125 0.928 1_565 S
C123 N119 1.345 . S
C123 C124 1.371 . S
C123 H126 0.931 . S
C124 C120 1.391 . S
C124 C123 1.371 . S
C124 H131 0.930 . S
H125 C122 0.928 1_545 S
H126 C123 0.931 . S
H127 C103 0.930 . S
H128 C100 0.930 . S
H129 C109 0.930 . S
H130 C121 0.929 . S
H131 C124 0.930 . S
C132 C133 1.351 . S
C132 N135 1.368 . S
C132 H137 0.931 . S
C133 C132 1.351 . S
C133 N134 1.373 . S
C133 H161 0.930 . S
N134 C133 1.373 . S
N134 C136 1.340 . S
N135 C132 1.368 . S
N135 C136 1.321 . S
N135 Co138 2.135 . S
C136 N134 1.340 . S
C136 N135 1.321 . S
C136 H160 0.930 . S
H137 C132 0.931 . S
Co138 N135 2.135 . S
Co138 N141 2.121 . S
Co138 O146 2.055 . S
Co138 O149 2.039 . S
Co138 N152 2.140 . S
C139 O140 1.227 . S
C139 O149 1.265 . S
O140 C139 1.227 . S
N141 Co138 2.121 . S
N141 C143 1.375 . S
N141 C144 1.313 . S
C142 C143 1.338 . S
C142 N145 1.377 . S
C142 H162 0.930 . S
C143 N141 1.375 . S
C143 C142 1.338 . S
C143 H147 0.931 . S
C144 N141 1.313 . S
C144 N145 1.344 . S
C144 H148 0.930 . S
N145 C142 1.377 . S
N145 C144 1.344 . S
O146 Co138 2.055 . S
O146 C150 1.253 . S
H147 C143 0.931 . S
H148 C144 0.930 . S
O149 Co138 2.039 . S
O149 C139 1.265 . S
C150 O146 1.253 . S
C150 O151 1.227 . S
O151 C150 1.227 . S
N152 Co138 2.140 . S
N152 C155 1.346 . S
N152 C156 1.345 . S
C153 C154 1.387 . S
C153 C157 1.391 . S
C154 C153 1.387 . S
C154 C155 1.369 . S
C154 H163 0.929 . S
C155 N152 1.346 . S
C155 C154 1.369 . S
C155 H158 0.928 . S
C156 N152 1.345 . S
C156 C157 1.371 . S
C156 H159 0.931 . S
C157 C153 1.391 . S
C157 C156 1.371 . S
C157 H164 0.930 . S
H158 C155 0.928 . S
H159 C156 0.931 . S
H160 C136 0.930 . S
H161 C133 0.930 . S
H162 C142 0.930 . S
H163 C154 0.929 . S
H164 C157 0.930 . S
C165 C166 1.351 . S
C165 N168 1.368 . S
C165 H170 0.931 . S
C166 C165 1.351 . S
C166 N167 1.373 . S
C166 H194 0.930 . S
N167 C166 1.373 . S
N167 C169 1.340 . S
N168 C165 1.368 . S
N168 C169 1.321 . S
N168 Co171 2.135 . S
C169 N167 1.340 . S
C169 N168 1.321 . S
C169 H193 0.930 . S
H170 C165 0.931 . S
Co171 N168 2.135 . S
Co171 N174 2.121 . S
Co171 O179 2.055 . S
Co171 O182 2.039 . S
Co171 N185 2.140 . S
C172 O173 1.227 . S
C172 O182 1.265 . S
O173 C172 1.227 . S
N174 Co171 2.121 . S
N174 C176 1.375 . S
N174 C177 1.313 . S
C175 C176 1.338 . S
C175 N178 1.377 . S
C175 H195 0.930 . S
C176 N174 1.375 . S
C176 C175 1.338 . S
C176 H180 0.931 . S
C177 N174 1.313 . S
C177 N178 1.344 . S
C177 H181 0.930 . S
N178 C175 1.377 . S
N178 C177 1.344 . S
O179 Co171 2.055 . S
O179 C183 1.253 . S
H180 C176 0.931 . S
H181 C177 0.930 . S
O182 Co171 2.039 . S
O182 C172 1.265 . S
C183 O179 1.253 . S
C183 O184 1.227 . S
O184 C183 1.227 . S
N185 Co171 2.140 . S
N185 C188 1.346 . S
N185 C189 1.345 . S
C186 C187 1.387 . S
C186 C190 1.391 . S
C187 C186 1.387 . S
C187 C188 1.369 . S
C187 H196 0.929 . S
C188 N185 1.346 . S
C188 C187 1.369 . S
C188 H191 0.928 . S
C189 N185 1.345 . S
C189 C190 1.371 . S
C189 H192 0.931 . S
C190 C186 1.391 . S
C190 C189 1.371 . S
C190 H197 0.930 . S
H191 C188 0.928 . S
H192 C189 0.931 . S
H193 C169 0.930 . S
H194 C166 0.930 . S
H195 C175 0.930 . S
H196 C187 0.929 . S
H197 C190 0.930 . S
C198 C199 1.351 . S
C198 N201 1.368 . S
C198 H203 0.931 . S
C199 C198 1.351 . S
C199 N200 1.373 . S
C199 H227 0.930 . S
N200 C199 1.373 . S
N200 C202 1.340 . S
N201 C198 1.368 . S
N201 C202 1.321 . S
N201 Co204 2.135 . S
C202 N200 1.340 . S
C202 N201 1.321 . S
C202 H226 0.930 . S
H203 C198 0.931 . S
Co204 N201 2.135 . S
Co204 N207 2.121 . S
Co204 O212 2.055 . S
Co204 O215 2.039 . S
Co204 N218 2.140 . S
C205 O206 1.227 . S
C205 O215 1.265 . S
O206 C205 1.227 . S
N207 Co204 2.121 . S
N207 C209 1.375 . S
N207 C210 1.313 . S
C208 C209 1.338 . S
C208 N211 1.377 . S
C208 H228 0.930 . S
C209 N207 1.375 . S
C209 C208 1.338 . S
C209 H213 0.931 . S
C210 N207 1.313 . S
C210 N211 1.344 . S
C210 H214 0.930 . S
N211 C208 1.377 . S
N211 C210 1.344 . S
O212 Co204 2.055 . S
O212 C216 1.253 . S
H213 C209 0.931 . S
H214 C210 0.930 . S
O215 Co204 2.039 . S
O215 C205 1.265 . S
C216 O212 1.253 . S
C216 O217 1.227 . S
O217 C216 1.227 . S
N218 Co204 2.140 . S
N218 C221 1.346 . S
N218 C222 1.345 . S
C219 C220 1.387 . S
C219 C223 1.391 . S
C220 C219 1.387 . S
C220 C221 1.369 . S
C220 H229 0.929 . S
C221 N218 1.346 . S
C221 C220 1.369 . S
C221 H224 0.928 . S
C222 N218 1.345 . S
C222 C223 1.371 . S
C222 H225 0.931 . S
C223 C219 1.391 . S
C223 C222 1.371 . S
C223 H230 0.930 . S
H224 C221 0.928 . S
H225 C222 0.931 . S
H226 C202 0.930 . S
H227 C199 0.930 . S
H228 C208 0.930 . S
H229 C220 0.929 . S
H230 C223 0.930 . S
C231 C232 1.351 . S
C231 N234 1.368 . S
C231 H236 0.931 . S
C232 C231 1.351 . S
C232 N233 1.373 . S
C232 H260 0.930 . S
N233 C232 1.373 . S
N233 C235 1.340 . S
N234 C231 1.368 . S
N234 C235 1.321 . S
N234 Co237 2.135 . S
C235 N233 1.340 . S
C235 N234 1.321 . S
C235 H259 0.930 . S
H236 C231 0.931 . S
Co237 N234 2.135 . S
Co237 N240 2.121 . S
Co237 O245 2.055 . S
Co237 O248 2.039 . S
Co237 N251 2.140 . S
C238 O239 1.227 . S
C238 O248 1.265 . S
O239 C238 1.227 . S
N240 Co237 2.121 . S
N240 C242 1.375 . S
N240 C243 1.313 . S
C241 C242 1.338 . S
C241 N244 1.377 . S
C241 H261 0.930 . S
C242 N240 1.375 . S
C242 C241 1.338 . S
C242 H246 0.931 . S
C243 N240 1.313 . S
C243 N244 1.344 . S
C243 H247 0.930 . S
N244 C241 1.377 . S
N244 C243 1.344 . S
O245 Co237 2.055 . S
O245 C249 1.253 . S
H246 C242 0.931 . S
H247 C243 0.930 . S
O248 Co237 2.039 . S
O248 C238 1.265 . S
C249 O245 1.253 . S
C249 O250 1.227 . S
O250 C249 1.227 . S
N251 Co237 2.140 . S
N251 C254 1.346 . S
N251 C255 1.345 . S
C252 C253 1.387 . S
C252 C256 1.391 . S
C253 C252 1.387 . S
C253 C254 1.369 . S
C253 H262 0.929 . S
C254 N251 1.346 . S
C254 C253 1.369 . S
C254 H257 0.928 . S
C255 N251 1.345 . S
C255 C256 1.371 . S
C255 H258 0.931 . S
C256 C252 1.391 . S
C256 C255 1.371 . S
C256 H263 0.930 . S
H257 C254 0.928 . S
H258 C255 0.931 . S
H259 C235 0.930 . S
H260 C232 0.930 . S
H261 C241 0.930 . S
H262 C253 0.929 . S
H263 C256 0.930 . S
C264 C265 1.351 . S
C264 N267 1.368 . S
C264 H269 0.931 . S
C265 C264 1.351 . S
C265 N266 1.373 . S
C265 H293 0.930 . S
N266 C265 1.373 . S
N266 C268 1.340 . S
N267 C264 1.368 . S
N267 C268 1.321 . S
N267 Co270 2.135 1_455 S
C268 N266 1.340 . S
C268 N267 1.321 . S
C268 H292 0.930 . S
H269 C264 0.931 . S
Co270 N267 2.135 1_655 S
Co270 N273 2.121 . S
Co270 O278 2.055 . S
Co270 O281 2.039 . S
Co270 N284 2.140 . S
C271 O272 1.227 . S
C271 O281 1.265 . S
O272 C271 1.227 . S
N273 Co270 2.121 . S
N273 C275 1.375 . S
N273 C276 1.313 . S
C274 C275 1.338 . S
C274 N277 1.377 . S
C274 H294 0.930 . S
C275 N273 1.375 . S
C275 C274 1.338 . S
C275 H279 0.931 . S
C276 N273 1.313 . S
C276 N277 1.344 . S
C276 H280 0.930 . S
N277 C274 1.377 . S
N277 C276 1.344 . S
O278 Co270 2.055 . S
O278 C282 1.253 . S
H279 C275 0.931 . S
H280 C276 0.930 . S
O281 Co270 2.039 . S
O281 C271 1.265 . S
C282 O278 1.253 . S
C282 O283 1.227 . S
O283 C282 1.227 . S
N284 Co270 2.140 . S
N284 C287 1.346 . S
N284 C288 1.345 . S
C285 C286 1.387 1_655 S
C285 C289 1.391 . S
C286 C285 1.387 1_455 S
C286 C287 1.369 1_455 S
C286 H295 0.929 . S
C287 N284 1.346 . S
C287 C286 1.369 1_655 S
C287 H290 0.928 1_655 S
C288 N284 1.345 . S
C288 C289 1.371 . S
C288 H291 0.931 . S
C289 C285 1.391 . S
C289 C288 1.371 . S
C289 H296 0.930 . S
H290 C287 0.928 1_455 S
H291 C288 0.931 . S
H292 C268 0.930 . S
H293 C265 0.930 . S
H294 C274 0.930 . S
H295 C286 0.929 . S
H296 C289 0.930 . S
C297 C298 1.351 . S
C297 N300 1.368 . S
C297 H302 0.931 . S
C298 C297 1.351 . S
C298 N299 1.373 . S
C298 H326 0.930 . S
N299 C298 1.373 . S
N299 C301 1.340 . S
N300 C297 1.368 . S
N300 C301 1.321 . S
N300 Co303 2.135 1_545 S
C301 N299 1.340 . S
C301 N300 1.321 . S
C301 H325 0.930 . S
H302 C297 0.931 . S
Co303 N300 2.135 1_565 S
Co303 N306 2.121 . S
Co303 O311 2.055 . S
Co303 O314 2.039 . S
Co303 N317 2.140 . S
C304 O305 1.227 . S
C304 O314 1.265 . S
O305 C304 1.227 . S
N306 Co303 2.121 . S
N306 C308 1.375 . S
N306 C309 1.313 . S
C307 C308 1.338 . S
C307 N310 1.377 . S
C307 H327 0.930 . S
C308 N306 1.375 . S
C308 C307 1.338 . S
C308 H312 0.931 . S
C309 N306 1.313 . S
C309 N310 1.344 . S
C309 H313 0.930 . S
N310 C307 1.377 . S
N310 C309 1.344 . S
O311 Co303 2.055 . S
O311 C315 1.253 . S
H312 C308 0.931 . S
H313 C309 0.930 . S
O314 Co303 2.039 . S
O314 C304 1.265 . S
C315 O311 1.253 . S
C315 O316 1.227 . S
O316 C315 1.227 . S
N317 Co303 2.140 . S
N317 C320 1.346 . S
N317 C321 1.345 . S
C318 C319 1.387 1_565 S
C318 C322 1.391 . S
C319 C318 1.387 1_545 S
C319 C320 1.369 1_545 S
C319 H328 0.929 . S
C320 N317 1.346 . S
C320 C319 1.369 1_565 S
C320 H323 0.928 1_565 S
C321 N317 1.345 . S
C321 C322 1.371 . S
C321 H324 0.931 . S
C322 C318 1.391 . S
C322 C321 1.371 . S
C322 H329 0.930 . S
H323 C320 0.928 1_545 S
H324 C321 0.931 . S
H325 C301 0.930 . S
H326 C298 0.930 . S
H327 C307 0.930 . S
H328 C319 0.929 . S
H329 C322 0.930 . S
C330 C331 1.351 . S
C330 N333 1.368 . S
C330 H335 0.931 . S
C331 C330 1.351 . S
C331 N332 1.373 . S
C331 H359 0.930 . S
N332 C331 1.373 . S
N332 C334 1.340 . S
N333 C330 1.368 . S
N333 C334 1.321 . S
N333 Co336 2.135 1_655 S
C334 N332 1.340 . S
C334 N333 1.321 . S
C334 H358 0.930 . S
H335 C330 0.931 . S
Co336 N333 2.135 1_455 S
Co336 N339 2.121 . S
Co336 O344 2.055 . S
Co336 O347 2.039 . S
Co336 N350 2.140 . S
C337 O338 1.227 . S
C337 O347 1.265 . S
O338 C337 1.227 . S
N339 Co336 2.121 . S
N339 C341 1.375 . S
N339 C342 1.313 . S
C340 C341 1.338 . S
C340 N343 1.377 . S
C340 H360 0.930 . S
C341 N339 1.375 . S
C341 C340 1.338 . S
C341 H345 0.931 . S
C342 N339 1.313 . S
C342 N343 1.344 . S
C342 H346 0.930 . S
N343 C340 1.377 . S
N343 C342 1.344 . S
O344 Co336 2.055 . S
O344 C348 1.253 . S
H345 C341 0.931 . S
H346 C342 0.930 . S
O347 Co336 2.039 . S
O347 C337 1.265 . S
C348 O344 1.253 . S
C348 O349 1.227 . S
O349 C348 1.227 . S
N350 Co336 2.140 . S
N350 C353 1.346 . S
N350 C354 1.345 . S
C351 C352 1.387 1_455 S
C351 C355 1.391 . S
C352 C351 1.387 1_655 S
C352 C353 1.369 1_655 S
C352 H361 0.929 . S
C353 N350 1.346 . S
C353 C352 1.369 1_455 S
C353 H356 0.928 1_455 S
C354 N350 1.345 . S
C354 C355 1.371 . S
C354 H357 0.931 . S
C355 C351 1.391 . S
C355 C354 1.371 . S
C355 H362 0.930 . S
H356 C353 0.928 1_655 S
H357 C354 0.931 . S
H358 C334 0.930 . S
H359 C331 0.930 . S
H360 C340 0.930 . S
H361 C352 0.929 . S
H362 C355 0.930 . S
C363 C364 1.351 . S
C363 N366 1.368 . S
C363 H368 0.931 . S
C364 C363 1.351 . S
C364 N365 1.373 . S
C364 H392 0.930 . S
N365 C364 1.373 . S
N365 C367 1.340 . S
N366 C363 1.368 . S
N366 C367 1.321 . S
N366 Co369 2.135 1_565 S
C367 N365 1.340 . S
C367 N366 1.321 . S
C367 H391 0.930 . S
H368 C363 0.931 . S
Co369 N366 2.135 1_545 S
Co369 N372 2.121 . S
Co369 O377 2.055 . S
Co369 O380 2.039 . S
Co369 N383 2.140 . S
C370 O371 1.227 . S
C370 O380 1.265 . S
O371 C370 1.227 . S
N372 Co369 2.121 . S
N372 C374 1.375 . S
N372 C375 1.313 . S
C373 C374 1.338 . S
C373 N376 1.377 . S
C373 H393 0.930 . S
C374 N372 1.375 . S
C374 C373 1.338 . S
C374 H378 0.931 . S
C375 N372 1.313 . S
C375 N376 1.344 . S
C375 H379 0.930 . S
N376 C373 1.377 . S
N376 C375 1.344 . S
O377 Co369 2.055 . S
O377 C381 1.253 . S
H378 C374 0.931 . S
H379 C375 0.930 . S
O380 Co369 2.039 . S
O380 C370 1.265 . S
C381 O377 1.253 . S
C381 O382 1.227 . S
O382 C381 1.227 . S
N383 Co369 2.140 . S
N383 C386 1.346 . S
N383 C387 1.345 . S
C384 C385 1.387 1_545 S
C384 C388 1.391 . S
C385 C384 1.387 1_565 S
C385 C386 1.369 1_565 S
C385 H394 0.929 . S
C386 N383 1.346 . S
C386 C385 1.369 1_545 S
C386 H389 0.928 1_545 S
C387 N383 1.345 . S
C387 C388 1.371 . S
C387 H390 0.931 . S
C388 C384 1.391 . S
C388 C387 1.371 . S
C388 H395 0.930 . S
H389 C386 0.928 1_565 S
H390 C387 0.931 . S
H391 C367 0.930 . S
H392 C364 0.930 . S
H393 C373 0.930 . S
H394 C385 0.929 . S
H395 C388 0.930 . S
C396 C397 1.351 . S
C396 N399 1.368 . S
C396 H401 0.931 . S
C397 C396 1.351 . S
C397 N398 1.373 . S
C397 H425 0.930 . S
N398 C397 1.373 . S
N398 C400 1.340 . S
N399 C396 1.368 . S
N399 C400 1.321 . S
N399 Co402 2.135 . S
C400 N398 1.340 . S
C400 N399 1.321 . S
C400 H424 0.930 . S
H401 C396 0.931 . S
Co402 N399 2.135 . S
Co402 N405 2.121 . S
Co402 O410 2.055 . S
Co402 O413 2.039 . S
Co402 N416 2.140 . S
C403 O404 1.227 . S
C403 O413 1.265 . S
O404 C403 1.227 . S
N405 Co402 2.121 . S
N405 C407 1.375 . S
N405 C408 1.313 . S
C406 C407 1.338 . S
C406 N409 1.377 . S
C406 H426 0.930 . S
C407 N405 1.375 . S
C407 C406 1.338 . S
C407 H411 0.931 . S
C408 N405 1.313 . S
C408 N409 1.344 . S
C408 H412 0.930 . S
N409 C406 1.377 . S
N409 C408 1.344 . S
O410 Co402 2.055 . S
O410 C414 1.253 . S
H411 C407 0.931 . S
H412 C408 0.930 . S
O413 Co402 2.039 . S
O413 C403 1.265 . S
C414 O410 1.253 . S
C414 O415 1.227 . S
O415 C414 1.227 . S
N416 Co402 2.140 . S
N416 C419 1.346 . S
N416 C420 1.345 . S
C417 C418 1.387 . S
C417 C421 1.391 . S
C418 C417 1.387 . S
C418 C419 1.369 . S
C418 H427 0.929 . S
C419 N416 1.346 . S
C419 C418 1.369 . S
C419 H422 0.928 . S
C420 N416 1.345 . S
C420 C421 1.371 . S
C420 H423 0.931 . S
C421 C417 1.391 . S
C421 C420 1.371 . S
C421 H428 0.930 . S
H422 C419 0.928 . S
H423 C420 0.931 . S
H424 C400 0.930 . S
H425 C397 0.930 . S
H426 C406 0.930 . S
H427 C418 0.929 . S
H428 C421 0.930 . S
C429 C430 1.351 . S
C429 N432 1.368 . S
C429 H434 0.931 . S
C430 C429 1.351 . S
C430 N431 1.373 . S
C430 H458 0.930 . S
N431 C430 1.373 . S
N431 C433 1.340 . S
N432 C429 1.368 . S
N432 C433 1.321 . S
N432 Co435 2.135 . S
C433 N431 1.340 . S
C433 N432 1.321 . S
C433 H457 0.930 . S
H434 C429 0.931 . S
Co435 N432 2.135 . S
Co435 N438 2.121 . S
Co435 O443 2.055 . S
Co435 O446 2.039 . S
Co435 N449 2.140 . S
C436 O437 1.227 . S
C436 O446 1.265 . S
O437 C436 1.227 . S
N438 Co435 2.121 . S
N438 C440 1.375 . S
N438 C441 1.313 . S
C439 C440 1.338 . S
C439 N442 1.377 . S
C439 H459 0.930 . S
C440 N438 1.375 . S
C440 C439 1.338 . S
C440 H444 0.931 . S
C441 N438 1.313 . S
C441 N442 1.344 . S
C441 H445 0.930 . S
N442 C439 1.377 . S
N442 C441 1.344 . S
O443 Co435 2.055 . S
O443 C447 1.253 . S
H444 C440 0.931 . S
H445 C441 0.930 . S
O446 Co435 2.039 . S
O446 C436 1.265 . S
C447 O443 1.253 . S
C447 O448 1.227 . S
O448 C447 1.227 . S
N449 Co435 2.140 . S
N449 C452 1.346 . S
N449 C453 1.345 . S
C450 C451 1.387 . S
C450 C454 1.391 . S
C451 C450 1.387 . S
C451 C452 1.369 . S
C451 H460 0.929 . S
C452 N449 1.346 . S
C452 C451 1.369 . S
C452 H455 0.928 . S
C453 N449 1.345 . S
C453 C454 1.371 . S
C453 H456 0.931 . S
C454 C450 1.391 . S
C454 C453 1.371 . S
C454 H461 0.930 . S
H455 C452 0.928 . S
H456 C453 0.931 . S
H457 C433 0.930 . S
H458 C430 0.930 . S
H459 C439 0.930 . S
H460 C451 0.929 . S
H461 C454 0.930 . S
C462 C463 1.351 . S
C462 N465 1.368 . S
C462 H467 0.931 . S
C463 C462 1.351 . S
C463 N464 1.373 . S
C463 H491 0.930 . S
N464 C463 1.373 . S
N464 C466 1.340 . S
N465 C462 1.368 . S
N465 C466 1.321 . S
N465 Co468 2.135 . S
C466 N464 1.340 . S
C466 N465 1.321 . S
C466 H490 0.930 . S
H467 C462 0.931 . S
Co468 N465 2.135 . S
Co468 N471 2.121 . S
Co468 O476 2.055 . S
Co468 O479 2.039 . S
Co468 N482 2.140 . S
C469 O470 1.227 . S
C469 O479 1.265 . S
O470 C469 1.227 . S
N471 Co468 2.121 . S
N471 C473 1.375 . S
N471 C474 1.313 . S
C472 C473 1.338 . S
C472 N475 1.377 . S
C472 H492 0.930 . S
C473 N471 1.375 . S
C473 C472 1.338 . S
C473 H477 0.931 . S
C474 N471 1.313 . S
C474 N475 1.344 . S
C474 H478 0.930 . S
N475 C472 1.377 . S
N475 C474 1.344 . S
O476 Co468 2.055 . S
O476 C480 1.253 . S
H477 C473 0.931 . S
H478 C474 0.930 . S
O479 Co468 2.039 . S
O479 C469 1.265 . S
C480 O476 1.253 . S
C480 O481 1.227 . S
O481 C480 1.227 . S
N482 Co468 2.140 . S
N482 C485 1.346 . S
N482 C486 1.345 . S
C483 C484 1.387 . S
C483 C487 1.391 . S
C484 C483 1.387 . S
C484 C485 1.369 . S
C484 H493 0.929 . S
C485 N482 1.346 . S
C485 C484 1.369 . S
C485 H488 0.928 . S
C486 N482 1.345 . S
C486 C487 1.371 . S
C486 H489 0.931 . S
C487 C483 1.391 . S
C487 C486 1.371 . S
C487 H494 0.930 . S
H488 C485 0.928 . S
H489 C486 0.931 . S
H490 C466 0.930 . S
H491 C463 0.930 . S
H492 C472 0.930 . S
H493 C484 0.929 . S
H494 C487 0.930 . S
C495 C496 1.351 . S
C495 N498 1.368 . S
C495 H500 0.931 . S
C496 C495 1.351 . S
C496 N497 1.373 . S
C496 H524 0.930 . S
N497 C496 1.373 . S
N497 C499 1.340 . S
N498 C495 1.368 . S
N498 C499 1.321 . S
N498 Co501 2.135 . S
C499 N497 1.340 . S
C499 N498 1.321 . S
C499 H523 0.930 . S
H500 C495 0.931 . S
Co501 N498 2.135 . S
Co501 N504 2.121 . S
Co501 O509 2.055 . S
Co501 O512 2.039 . S
Co501 N515 2.140 . S
C502 O503 1.227 . S
C502 O512 1.265 . S
O503 C502 1.227 . S
N504 Co501 2.121 . S
N504 C506 1.375 . S
N504 C507 1.313 . S
C505 C506 1.338 . S
C505 N508 1.377 . S
C505 H525 0.930 . S
C506 N504 1.375 . S
C506 C505 1.338 . S
C506 H510 0.931 . S
C507 N504 1.313 . S
C507 N508 1.344 . S
C507 H511 0.930 . S
N508 C505 1.377 . S
N508 C507 1.344 . S
O509 Co501 2.055 . S
O509 C513 1.253 . S
H510 C506 0.931 . S
H511 C507 0.930 . S
O512 Co501 2.039 . S
O512 C502 1.265 . S
C513 O509 1.253 . S
C513 O514 1.227 . S
O514 C513 1.227 . S
N515 Co501 2.140 . S
N515 C518 1.346 . S
N515 C519 1.345 . S
C516 C517 1.387 . S
C516 C520 1.391 . S
C517 C516 1.387 . S
C517 C518 1.369 . S
C517 H526 0.929 . S
C518 N515 1.346 . S
C518 C517 1.369 . S
C518 H521 0.928 . S
C519 N515 1.345 . S
C519 C520 1.371 . S
C519 H522 0.931 . S
C520 C516 1.391 . S
C520 C519 1.371 . S
C520 H527 0.930 . S
H521 C518 0.928 . S
H522 C519 0.931 . S
H523 C499 0.930 . S
H524 C496 0.930 . S
H525 C505 0.930 . S
H526 C517 0.929 . S
H527 C520 0.930 . S
C528 C529 1.391 . S
C528 C530 1.394 . S
C528 H544 0.931 . S
C529 C528 1.391 . S
C529 C533 1.376 1_455 S
C530 C528 1.394 . S
C530 C531 1.369 . S
C530 C534 1.531 . S
C531 C530 1.369 . S
C531 C532 1.410 1_455 S
C531 C539 1.503 1_445 S
C532 C531 1.410 1_655 S
C532 C533 1.392 . S
C532 C535 1.511 . S
C533 C529 1.376 1_655 S
C533 C532 1.392 . S
C533 H545 0.929 . S
C534 C530 1.531 . S
C534 H546 0.960 1_545 S
C534 H547 0.960 1_545 S
C534 H548 0.960 . S
C535 C532 1.511 . S
C535 H549 0.961 . S
C535 H550 0.961 . S
C535 H551 0.961 . S
C536 C537 1.370 . S
C536 C538 1.363 . S
C536 H552 0.931 . S
C537 C536 1.370 . S
C537 C541 1.408 . S
C538 C536 1.363 . S
C538 C539 1.370 . S
C538 C542 1.524 . S
C539 C531 1.503 1_665 S
C539 C538 1.370 . S
C539 C540 1.403 . S
C540 C539 1.403 . S
C540 C541 1.404 . S
C540 C543 1.539 . S
C541 C537 1.408 . S
C541 C540 1.404 . S
C541 H553 0.930 . S
C542 C538 1.524 . S
C542 H554 0.956 1_655 S
C542 H555 0.961 1_565 S
C542 H556 0.961 . S
C543 C540 1.539 . S
C543 H557 0.958 1_655 S
C543 H558 0.961 . S
C543 H559 0.960 1_565 S
H544 C528 0.931 . S
H545 C533 0.929 . S
H546 C534 0.960 1_565 S
H547 C534 0.960 1_565 S
H548 C534 0.960 . S
H549 C535 0.961 . S
H550 C535 0.961 . S
H551 C535 0.961 . S
H552 C536 0.931 . S
H553 C541 0.930 . S
H554 C542 0.956 1_455 S
H555 C542 0.961 1_545 S
H556 C542 0.961 . S
H557 C543 0.958 1_455 S
H558 C543 0.961 . S
H559 C543 0.960 1_545 S
C560 C561 1.391 . S
C560 C562 1.394 . S
C560 H576 0.931 . S
C561 C560 1.391 . S
C561 C565 1.376 1_565 S
C562 C560 1.394 . S
C562 C563 1.369 . S
C562 C566 1.531 . S
C563 C562 1.369 . S
C563 C564 1.410 1_565 S
C563 C571 1.503 1_455 S
C564 C563 1.410 1_545 S
C564 C565 1.392 . S
C564 C567 1.511 . S
C565 C561 1.376 1_545 S
C565 C564 1.392 . S
C565 H577 0.929 . S
C566 C562 1.531 . S
C566 H578 0.960 1_455 S
C566 H579 0.962 . S
C566 H580 0.960 . S
C567 C564 1.511 . S
C567 H581 0.961 . S
C567 H582 0.961 . S
C567 H583 0.961 . S
C568 C569 1.370 . S
C568 C570 1.363 . S
C568 H584 0.931 . S
C569 C568 1.370 . S
C569 C573 1.408 1_545 S
C570 C568 1.363 . S
C570 C571 1.372 1_545 S
C570 C574 1.524 . S
C571 C563 1.503 1_655 S
C571 C570 1.372 1_565 S
C571 C572 1.402 . S
C572 C571 1.402 . S
C572 C573 1.404 . S
C572 C575 1.539 . S
C573 C569 1.408 1_565 S
C573 C572 1.404 . S
C573 H585 0.930 . S
C574 C570 1.524 . S
C574 H586 0.956 1_655 S
C574 H587 0.961 1_655 S
C574 H588 0.961 . S
C575 C572 1.539 . S
C575 H589 0.958 . S
C575 H590 0.961 . S
C575 H591 0.960 . S
H576 C560 0.931 . S
H577 C565 0.929 . S
H578 C566 0.960 1_655 S
H579 C566 0.962 . S
H580 C566 0.960 . S
H581 C567 0.961 . S
H582 C567 0.961 . S
H583 C567 0.961 . S
H584 C568 0.931 . S
H585 C573 0.930 . S
H586 C574 0.956 1_455 S
H587 C574 0.961 1_455 S
H588 C574 0.961 . S
H589 C575 0.958 . S
H590 C575 0.961 . S
H591 C575 0.960 . S
C592 C593 1.391 . S
C592 C594 1.394 . S
C592 H608 0.931 . S
C593 C592 1.391 . S
C593 C597 1.376 . S
C594 C592 1.394 . S
C594 C595 1.369 . S
C594 C598 1.531 . S
C595 C594 1.369 . S
C595 C596 1.410 . S
C595 C603 1.503 . S
C596 C595 1.410 . S
C596 C597 1.392 . S
C596 C599 1.511 . S
C597 C593 1.376 . S
C597 C596 1.392 . S
C597 H609 0.929 . S
C598 C594 1.531 . S
C598 H610 0.960 . S
C598 H611 0.962 . S
C598 H612 0.960 . S
C599 C596 1.511 . S
C599 H613 0.961 . S
C599 H614 0.961 . S
C599 H615 0.961 . S
C600 C601 1.370 . S
C600 C602 1.363 . S
C600 H616 0.931 . S
C601 C600 1.370 . S
C601 C605 1.408 . S
C602 C600 1.363 . S
C602 C603 1.370 . S
C602 C606 1.524 . S
C603 C595 1.503 . S
C603 C602 1.370 . S
C603 C604 1.403 . S
C604 C603 1.403 . S
C604 C605 1.404 . S
C604 C607 1.539 . S
C605 C601 1.408 . S
C605 C604 1.404 . S
C605 H617 0.930 . S
C606 C602 1.524 . S
C606 H618 0.956 . S
C606 H619 0.961 . S
C606 H620 0.961 . S
C607 C604 1.539 . S
C607 H621 0.958 . S
C607 H622 0.961 . S
C607 H623 0.960 . S
H608 C592 0.931 . S
H609 C597 0.929 . S
H610 C598 0.960 . S
H611 C598 0.962 . S
H612 C598 0.960 . S
H613 C599 0.961 . S
H614 C599 0.961 . S
H615 C599 0.961 . S
H616 C600 0.931 . S
H617 C605 0.930 . S
H618 C606 0.956 . S
H619 C606 0.961 . S
H620 C606 0.961 . S
H621 C607 0.958 . S
H622 C607 0.961 . S
H623 C607 0.960 . S
C624 C625 1.391 . S
C624 C626 1.394 . S
C624 H640 0.931 . S
C625 C624 1.391 . S
C625 C629 1.376 . S
C626 C624 1.394 . S
C626 C627 1.369 . S
C626 C630 1.531 . S
C627 C626 1.369 . S
C627 C628 1.410 . S
C627 C635 1.503 . S
C628 C627 1.410 . S
C628 C629 1.392 . S
C628 C631 1.511 . S
C629 C625 1.376 . S
C629 C628 1.392 . S
C629 H641 0.929 . S
C630 C626 1.531 . S
C630 H642 0.960 . S
C630 H643 0.962 . S
C630 H644 0.960 . S
C631 C628 1.511 . S
C631 H645 0.961 . S
C631 H646 0.961 . S
C631 H647 0.961 . S
C632 C633 1.370 . S
C632 C634 1.363 . S
C632 H648 0.931 . S
C633 C632 1.370 . S
C633 C637 1.408 . S
C634 C632 1.363 . S
C634 C635 1.370 . S
C634 C638 1.524 . S
C635 C627 1.503 . S
C635 C634 1.370 . S
C635 C636 1.403 . S
C636 C635 1.403 . S
C636 C637 1.404 . S
C636 C639 1.539 . S
C637 C633 1.408 . S
C637 C636 1.404 . S
C637 H649 0.930 . S
C638 C634 1.524 . S
C638 H650 0.956 . S
C638 H651 0.961 . S
C638 H652 0.961 . S
C639 C636 1.539 . S
C639 H653 0.958 . S
C639 H654 0.961 . S
C639 H655 0.960 . S
H640 C624 0.931 . S
H641 C629 0.929 . S
H642 C630 0.960 . S
H643 C630 0.962 . S
H644 C630 0.960 . S
H645 C631 0.961 . S
H646 C631 0.961 . S
H647 C631 0.961 . S
H648 C632 0.931 . S
H649 C637 0.930 . S
H650 C638 0.956 . S
H651 C638 0.961 . S
H652 C638 0.961 . S
H653 C639 0.958 . S
H654 C639 0.961 . S
H655 C639 0.960 . S
C656 C657 1.391 . S
C656 C658 1.394 . S
C656 H672 0.931 . S
C657 C656 1.391 . S
C657 C661 1.376 1_455 S
C658 C656 1.394 . S
C658 C659 1.369 . S
C658 C662 1.531 . S
C659 C658 1.369 . S
C659 C660 1.410 1_455 S
C659 C667 1.503 1_445 S
C660 C659 1.410 1_655 S
C660 C661 1.392 . S
C660 C663 1.511 . S
C661 C657 1.376 1_655 S
C661 C660 1.392 . S
C661 H673 0.929 . S
C662 C658 1.531 . S
C662 H674 0.960 1_545 S
C662 H675 0.959 1_545 S
C662 H676 0.960 . S
C663 C660 1.511 . S
C663 H677 0.961 . S
C663 H678 0.961 . S
C663 H679 0.961 . S
C664 C665 1.370 . S
C664 C666 1.363 . S
C664 H680 0.931 . S
C665 C664 1.370 . S
C665 C669 1.408 . S
C666 C664 1.363 . S
C666 C667 1.370 . S
C666 C670 1.524 . S
C667 C659 1.503 1_665 S
C667 C666 1.370 . S
C667 C668 1.403 . S
C668 C667 1.403 . S
C668 C669 1.404 . S
C668 C671 1.539 . S
C669 C665 1.408 . S
C669 C668 1.404 . S
C669 H681 0.930 . S
C670 C666 1.524 . S
C670 H682 0.956 1_655 S
C670 H683 0.961 1_565 S
C670 H684 0.961 . S
C671 C668 1.539 . S
C671 H685 0.958 1_655 S
C671 H686 0.961 . S
C671 H687 0.960 1_565 S
H672 C656 0.931 . S
H673 C661 0.929 . S
H674 C662 0.960 1_565 S
H675 C662 0.959 1_565 S
H676 C662 0.960 . S
H677 C663 0.961 . S
H678 C663 0.961 . S
H679 C663 0.961 . S
H680 C664 0.931 . S
H681 C669 0.930 . S
H682 C670 0.956 1_455 S
H683 C670 0.961 1_545 S
H684 C670 0.961 . S
H685 C671 0.958 1_455 S
H686 C671 0.961 . S
H687 C671 0.960 1_545 S
C688 C689 1.391 . S
C688 C690 1.394 . S
C688 H704 0.931 . S
C689 C688 1.391 . S
C689 C693 1.376 . S
C690 C688 1.394 . S
C690 C691 1.369 . S
C690 C694 1.531 . S
C691 C690 1.369 . S
C691 C692 1.410 . S
C691 C699 1.503 1_455 S
C692 C691 1.410 . S
C692 C693 1.392 . S
C692 C695 1.511 . S
C693 C689 1.376 . S
C693 C692 1.392 . S
C693 H705 0.929 . S
C694 C690 1.531 . S
C694 H706 0.961 1_455 S
C694 H707 0.960 1_565 S
C694 H708 0.961 . S
C695 C692 1.511 . S
C695 H709 0.961 . S
C695 H710 0.961 1_455 S
C695 H711 0.961 . S
C696 C697 1.370 . S
C696 C698 1.363 . S
C696 H712 0.931 . S
C697 C696 1.370 . S
C697 C701 1.408 1_545 S
C698 C696 1.363 . S
C698 C699 1.370 1_545 S
C698 C702 1.524 . S
C699 C691 1.503 1_655 S
C699 C698 1.370 1_565 S
C699 C700 1.403 . S
C700 C699 1.403 . S
C700 C701 1.404 . S
C700 C703 1.539 . S
C701 C697 1.408 1_565 S
C701 C700 1.404 . S
C701 H713 0.930 . S
C702 C698 1.524 . S
C702 H714 0.956 1_655 S
C702 H715 0.961 1_655 S
C702 H716 0.961 . S
C703 C700 1.539 . S
C703 H717 0.958 . S
C703 H718 0.961 . S
C703 H719 0.960 . S
H704 C688 0.931 . S
H705 C693 0.929 . S
H706 C694 0.961 1_655 S
H707 C694 0.960 1_545 S
H708 C694 0.961 . S
H709 C695 0.961 . S
H710 C695 0.961 1_655 S
H711 C695 0.961 . S
H712 C696 0.931 . S
H713 C701 0.930 . S
H714 C702 0.956 1_455 S
H715 C702 0.961 1_455 S
H716 C702 0.961 . S
H717 C703 0.958 . S
H718 C703 0.961 . S
H719 C703 0.960 . S
C720 C721 1.391 . S
C720 C722 1.394 . S
C720 H736 0.931 . S
C721 C720 1.391 . S
C721 C725 1.376 . S
C722 C720 1.394 . S
C722 C723 1.369 . S
C722 C726 1.531 . S
C723 C722 1.369 . S
C723 C724 1.410 . S
C723 C731 1.503 . S
C724 C723 1.410 . S
C724 C725 1.392 . S
C724 C727 1.511 . S
C725 C721 1.376 . S
C725 C724 1.392 . S
C725 H737 0.929 . S
C726 C722 1.531 . S
C726 H738 0.960 . S
C726 H739 0.962 . S
C726 H740 0.960 . S
C727 C724 1.511 . S
C727 H741 0.961 . S
C727 H742 0.961 . S
C727 H743 0.961 . S
C728 C729 1.370 . S
C728 C730 1.363 . S
C728 H744 0.931 . S
C729 C728 1.370 . S
C729 C733 1.408 . S
C730 C728 1.363 . S
C730 C731 1.370 . S
C730 C734 1.524 . S
C731 C723 1.503 . S
C731 C730 1.370 . S
C731 C732 1.403 . S
C732 C731 1.403 . S
C732 C733 1.404 . S
C732 C735 1.539 . S
C733 C729 1.408 . S
C733 C732 1.404 . S
C733 H745 0.930 . S
C734 C730 1.524 . S
C734 H746 0.956 . S
C734 H747 0.961 . S
C734 H748 0.961 . S
C735 C732 1.539 . S
C735 H749 0.958 . S
C735 H750 0.961 . S
C735 H751 0.960 . S
H736 C720 0.931 . S
H737 C725 0.929 . S
H738 C726 0.960 . S
H739 C726 0.962 . S
H740 C726 0.960 . S
H741 C727 0.961 . S
H742 C727 0.961 . S
H743 C727 0.961 . S
H744 C728 0.931 . S
H745 C733 0.930 . S
H746 C734 0.956 . S
H747 C734 0.961 . S
H748 C734 0.961 . S
H749 C735 0.958 . S
H750 C735 0.961 . S
H751 C735 0.960 . S
C752 C753 1.391 . S
C752 C754 1.394 . S
C752 H768 0.931 . S
C753 C752 1.391 . S
C753 C757 1.376 . S
C754 C752 1.394 . S
C754 C755 1.369 . S
C754 C758 1.531 . S
C755 C754 1.369 . S
C755 C756 1.410 . S
C755 C763 1.503 . S
C756 C755 1.410 . S
C756 C757 1.392 . S
C756 C759 1.511 . S
C757 C753 1.376 . S
C757 C756 1.392 . S
C757 H769 0.929 . S
C758 C754 1.531 . S
C758 H770 0.960 . S
C758 H771 0.962 . S
C758 H772 0.960 . S
C759 C756 1.511 . S
C759 H773 0.961 . S
C759 H774 0.961 . S
C759 H775 0.961 . S
C760 C761 1.370 . S
C760 C762 1.363 . S
C760 H776 0.931 . S
C761 C760 1.370 . S
C761 C765 1.408 . S
C762 C760 1.363 . S
C762 C763 1.370 . S
C762 C766 1.524 . S
C763 C755 1.503 . S
C763 C762 1.370 . S
C763 C764 1.403 . S
C764 C763 1.403 . S
C764 C765 1.404 . S
C764 C767 1.539 . S
C765 C761 1.408 . S
C765 C764 1.404 . S
C765 H777 0.930 . S
C766 C762 1.524 . S
C766 H778 0.956 . S
C766 H779 0.961 . S
C766 H780 0.961 . S
C767 C764 1.539 . S
C767 H781 0.958 . S
C767 H782 0.961 . S
C767 H783 0.960 . S
H768 C752 0.931 . S
H769 C757 0.929 . S
H770 C758 0.960 . S
H771 C758 0.962 . S
H772 C758 0.960 . S
H773 C759 0.961 . S
H774 C759 0.961 . S
H775 C759 0.961 . S
H776 C760 0.931 . S
H777 C765 0.930 . S
H778 C766 0.956 . S
H779 C766 0.961 . S
H780 C766 0.961 . S
H781 C767 0.958 . S
H782 C767 0.961 . S
H783 C767 0.960 . S
C784 C785 1.391 . S
C784 C786 1.394 . S
C784 H800 0.931 . S
C785 C784 1.391 . S
C785 C789 1.376 1_455 S
C786 C784 1.394 . S
C786 C787 1.369 . S
C786 C790 1.531 . S
C787 C786 1.369 . S
C787 C788 1.410 1_455 S
C787 C795 1.503 1_554 S
C788 C787 1.410 1_655 S
C788 C789 1.392 . S
C788 C791 1.511 . S
C789 C785 1.376 1_655 S
C789 C788 1.392 . S
C789 H801 0.929 . S
C790 C786 1.531 . S
C790 H802 0.960 1_554 S
C790 H803 0.962 . S
C790 H804 0.960 . S
C791 C788 1.511 . S
C791 H805 0.961 . S
C791 H806 0.961 1_554 S
C791 H807 0.961 . S
C792 C793 1.370 . S
C792 C794 1.363 . S
C792 H808 0.931 . S
C793 C792 1.370 . S
C793 C797 1.408 . S
C794 C792 1.363 . S
C794 C795 1.370 . S
C794 C798 1.524 . S
C795 C787 1.503 1_556 S
C795 C794 1.370 . S
C795 C796 1.403 . S
C796 C795 1.403 . S
C796 C797 1.404 . S
C796 C799 1.539 1_455 S
C797 C793 1.408 . S
C797 C796 1.404 . S
C797 H809 0.930 . S
C798 C794 1.524 . S
C798 H810 0.956 . S
C798 H811 0.961 1_556 S
C798 H812 0.961 . S
C799 C796 1.539 1_655 S
C799 H813 0.958 1_655 S
C799 H814 0.961 . S
C799 H815 0.971 . S
H800 C784 0.931 . S
H801 C789 0.929 . S
H802 C790 0.960 1_556 S
H803 C790 0.962 . S
H804 C790 0.960 . S
H805 C791 0.961 . S
H806 C791 0.961 1_556 S
H807 C791 0.961 . S
H808 C792 0.931 . S
H809 C797 0.930 . S
H810 C798 0.956 . S
H811 C798 0.961 1_554 S
H812 C798 0.961 . S
H813 C799 0.958 1_455 S
H814 C799 0.961 . S
H815 C799 0.971 . S
C816 C817 1.391 . S
C816 C818 1.394 . S
C816 H832 0.931 . S
C817 C816 1.391 . S
C817 C821 1.376 . S
C818 C816 1.394 . S
C818 C819 1.369 . S
C818 C822 1.531 . S
C819 C818 1.369 . S
C819 C820 1.410 . S
C819 C827 1.503 . S
C820 C819 1.410 . S
C820 C821 1.392 . S
C820 C823 1.511 . S
C821 C817 1.376 . S
C821 C820 1.392 . S
C821 H833 0.929 . S
C822 C818 1.531 . S
C822 H834 0.960 . S
C822 H835 0.962 . S
C822 H836 0.960 . S
C823 C820 1.511 . S
C823 H837 0.961 . S
C823 H838 0.961 . S
C823 H839 0.961 1_545 S
C824 C825 1.370 . S
C824 C826 1.363 . S
C824 H840 0.931 . S
C825 C824 1.370 . S
C825 C829 1.408 1_545 S
C826 C824 1.363 . S
C826 C827 1.370 . S
C826 C830 1.524 . S
C827 C819 1.503 . S
C827 C826 1.370 . S
C827 C828 1.403 1_545 S
C828 C827 1.403 1_565 S
C828 C829 1.404 . S
C828 C831 1.539 . S
C829 C825 1.408 1_565 S
C829 C828 1.404 . S
C829 H841 0.930 . S
C830 C826 1.524 . S
C830 H842 0.956 . S
C830 H843 0.961 . S
C830 H844 0.961 . S
C831 C828 1.539 . S
C831 H845 0.958 . S
C831 H846 0.961 . S
C831 H847 0.960 . S
H832 C816 0.931 . S
H833 C821 0.929 . S
H834 C822 0.960 . S
H835 C822 0.962 . S
H836 C822 0.960 . S
H837 C823 0.961 . S
H838 C823 0.961 . S
H839 C823 0.961 1_565 S
H840 C824 0.931 . S
H841 C829 0.930 . S
H842 C830 0.956 . S
H843 C830 0.961 . S
H844 C830 0.961 . S
H845 C831 0.958 . S
H846 C831 0.961 . S
H847 C831 0.960 . S
C848 C849 1.391 1_455 S
C848 C850 1.394 . S
C848 H864 0.931 . S
C849 C848 1.391 1_655 S
C849 C853 1.376 . S
C850 C848 1.394 . S
C850 C851 1.369 1_455 S
C850 C854 1.531 . S
C851 C850 1.369 1_655 S
C851 C852 1.410 . S
C851 C859 1.503 1_556 S
C852 C851 1.410 . S
C852 C853 1.392 . S
C852 C855 1.511 . S
C853 C849 1.376 . S
C853 C852 1.392 . S
C853 H865 0.929 . S
C854 C850 1.531 . S
C854 H866 0.960 1_556 S
C854 H867 0.962 . S
C854 H868 0.960 . S
C855 C852 1.511 . S
C855 H869 0.961 . S
C855 H870 0.961 1_556 S
C855 H871 0.961 . S
C856 C857 1.370 . S
C856 C858 1.363 . S
C856 H872 0.931 . S
C857 C856 1.370 . S
C857 C861 1.408 . S
C858 C856 1.363 . S
C858 C859 1.370 . S
C858 C862 1.524 . S
C859 C851 1.503 1_554 S
C859 C858 1.370 . S
C859 C860 1.403 . S
C860 C859 1.403 . S
C860 C861 1.404 . S
C860 C863 1.539 . S
C861 C857 1.408 . S
C861 C860 1.404 . S
C861 H873 0.930 . S
C862 C858 1.524 . S
C862 H874 0.956 1_655 S
C862 H875 0.961 1_554 S
C862 H876 0.961 1_655 S
C863 C860 1.539 . S
C863 H877 0.958 . S
C863 H878 0.961 . S
C863 H879 0.971 . S
H864 C848 0.931 . S
H865 C853 0.929 . S
H866 C854 0.960 1_554 S
H867 C854 0.962 . S
H868 C854 0.960 . S
H869 C855 0.961 . S
H870 C855 0.961 1_554 S
H871 C855 0.961 . S
H872 C856 0.931 . S
H873 C861 0.930 . S
H874 C862 0.956 1_455 S
H875 C862 0.961 1_556 S
H876 C862 0.961 1_455 S
H877 C863 0.958 . S
H878 C863 0.961 . S
H879 C863 0.971 . S
C880 C881 1.391 . S
C880 C882 1.394 . S
C880 H896 0.931 . S
C881 C880 1.391 . S
C881 C885 1.376 . S
C882 C880 1.394 . S
C882 C883 1.369 . S
C882 C886 1.531 . S
C883 C882 1.369 . S
C883 C884 1.410 . S
C883 C891 1.503 . S
C884 C883 1.410 . S
C884 C885 1.392 . S
C884 C887 1.511 . S
C885 C881 1.376 . S
C885 C884 1.392 . S
C885 H897 0.929 . S
C886 C882 1.531 . S
C886 H898 0.960 . S
C886 H899 0.962 . S
C886 H900 0.960 . S
C887 C884 1.511 . S
C887 H901 0.961 . S
C887 H902 0.961 . S
C887 H903 0.961 . S
C888 C889 1.370 1_545 S
C888 C890 1.363 . S
C888 H904 0.931 . S
C889 C888 1.370 1_565 S
C889 C893 1.408 . S
C890 C888 1.363 . S
C890 C891 1.370 1_545 S
C890 C894 1.524 . S
C891 C883 1.503 . S
C891 C890 1.370 1_565 S
C891 C892 1.403 . S
C892 C891 1.403 . S
C892 C893 1.404 . S
C892 C895 1.539 . S
C893 C889 1.408 . S
C893 C892 1.404 . S
C893 H905 0.930 . S
C894 C890 1.524 . S
C894 H906 0.956 . S
C894 H907 0.961 . S
C894 H908 0.961 . S
C895 C892 1.539 . S
C895 H909 0.958 . S
C895 H910 0.961 . S
C895 H911 0.960 . S
H896 C880 0.931 . S
H897 C885 0.929 . S
H898 C886 0.960 . S
H899 C886 0.962 . S
H900 C886 0.960 . S
H901 C887 0.961 . S
H902 C887 0.961 . S
H903 C887 0.961 . S
H904 C888 0.931 . S
H905 C893 0.930 . S
H906 C894 0.956 . S
H907 C894 0.961 . S
H908 C894 0.961 . S
H909 C895 0.958 . S
H910 C895 0.961 . S
H911 C895 0.960 . S
C912 C913 1.391 . S
C912 C914 1.394 . S
C912 H928 0.931 . S
C913 C912 1.391 . S
C913 C917 1.376 . S
C914 C912 1.394 . S
C914 C915 1.369 . S
C914 C918 1.531 . S
C915 C914 1.369 . S
C915 C916 1.410 . S
C915 C923 1.503 1_554 S
C916 C915 1.410 . S
C916 C917 1.392 . S
C916 C919 1.511 . S
C917 C913 1.376 . S
C917 C916 1.392 . S
C917 H929 0.929 . S
C918 C914 1.531 . S
C918 H930 0.960 1_554 S
C918 H931 0.962 . S
C918 H932 0.960 . S
C919 C916 1.511 . S
C919 H933 0.961 . S
C919 H934 0.961 1_554 S
C919 H935 0.961 . S
C920 C921 1.370 . S
C920 C922 1.363 . S
C920 H936 0.931 . S
C921 C920 1.370 . S
C921 C925 1.408 . S
C922 C920 1.363 . S
C922 C923 1.370 . S
C922 C926 1.524 . S
C923 C915 1.503 1_556 S
C923 C922 1.370 . S
C923 C924 1.403 . S
C924 C923 1.403 . S
C924 C925 1.404 . S
C924 C927 1.539 . S
C925 C921 1.408 . S
C925 C924 1.404 . S
C925 H937 0.930 . S
C926 C922 1.524 . S
C926 H938 0.956 . S
C926 H939 0.961 1_556 S
C926 H940 0.961 . S
C927 C924 1.539 . S
C927 H941 0.958 . S
C927 H942 0.961 . S
C927 H943 0.971 . S
H928 C912 0.931 . S
H929 C917 0.929 . S
H930 C918 0.960 1_556 S
H931 C918 0.962 . S
H932 C918 0.960 . S
H933 C919 0.961 . S
H934 C919 0.961 1_556 S
H935 C919 0.961 . S
H936 C920 0.931 . S
H937 C925 0.930 . S
H938 C926 0.956 . S
H939 C926 0.961 1_554 S
H940 C926 0.961 . S
H941 C927 0.958 . S
H942 C927 0.961 . S
H943 C927 0.971 . S
C944 C945 1.391 . S
C944 C946 1.394 . S
C944 H960 0.931 . S
C945 C944 1.391 . S
C945 C949 1.376 . S
C946 C944 1.394 . S
C946 C947 1.369 . S
C946 C950 1.531 . S
C947 C946 1.369 . S
C947 C948 1.410 . S
C947 C955 1.503 . S
C948 C947 1.410 . S
C948 C949 1.392 . S
C948 C951 1.511 . S
C949 C945 1.376 . S
C949 C948 1.392 . S
C949 H961 0.929 . S
C950 C946 1.531 . S
C950 H962 0.960 . S
C950 H963 0.962 . S
C950 H964 0.960 . S
C951 C948 1.511 . S
C951 H965 0.961 . S
C951 H966 0.961 . S
C951 H967 0.961 . S
C952 C953 1.370 . S
C952 C954 1.363 . S
C952 H968 0.931 . S
C953 C952 1.370 . S
C953 C957 1.408 . S
C954 C952 1.363 . S
C954 C955 1.370 . S
C954 C958 1.524 . S
C955 C947 1.503 . S
C955 C954 1.370 . S
C955 C956 1.403 . S
C956 C955 1.403 . S
C956 C957 1.404 . S
C956 C959 1.539 . S
C957 C953 1.408 . S
C957 C956 1.404 . S
C957 H969 0.930 . S
C958 C954 1.524 . S
C958 H970 0.956 . S
C958 H971 0.961 . S
C958 H972 0.961 . S
C959 C956 1.539 . S
C959 H973 0.958 . S
C959 H974 0.961 . S
C959 H975 0.960 . S
H960 C944 0.931 . S
H961 C949 0.929 . S
H962 C950 0.960 . S
H963 C950 0.962 . S
H964 C950 0.960 . S
H965 C951 0.961 . S
H966 C951 0.961 . S
H967 C951 0.961 . S
H968 C952 0.931 . S
H969 C957 0.930 . S
H970 C958 0.956 . S
H971 C958 0.961 . S
H972 C958 0.961 . S
H973 C959 0.958 . S
H974 C959 0.961 . S
H975 C959 0.960 . S
C976 C977 1.391 . S
C976 C978 1.394 . S
C976 H992 0.931 . S
C977 C976 1.391 . S
C977 C981 1.376 . S
C978 C976 1.394 . S
C978 C979 1.369 . S
C978 C982 1.531 . S
C979 C978 1.369 . S
C979 C980 1.410 . S
C979 C987 1.503 1_554 S
C980 C979 1.410 . S
C980 C981 1.392 . S
C980 C983 1.511 . S
C981 C977 1.376 . S
C981 C980 1.392 . S
C981 H993 0.929 . S
C982 C978 1.531 . S
C982 H994 0.960 1_554 S
C982 H995 0.962 . S
C982 H996 0.960 . S
C983 C980 1.511 . S
C983 H997 0.961 . S
C983 H998 0.961 1_554 S
C983 H999 0.961 . S
C984 C985 1.370 . S
C984 C986 1.363 . S
C984 H1000 0.931 . S
C985 C984 1.370 . S
C985 C989 1.408 . S
C986 C984 1.363 . S
C986 C987 1.370 . S
C986 C990 1.524 . S
C987 C979 1.503 1_556 S
C987 C986 1.370 . S
C987 C988 1.403 . S
C988 C987 1.403 . S
C988 C989 1.404 . S
C988 C991 1.539 . S
C989 C985 1.408 . S
C989 C988 1.404 . S
C989 H1001 0.930 . S
C990 C986 1.524 . S
C990 H1002 0.956 . S
C990 H1003 0.961 1_556 S
C990 H1004 0.961 . S
C991 C988 1.539 . S
C991 H1005 0.958 . S
C991 H1006 0.961 . S
C991 H1007 0.971 . S
H992 C976 0.931 . S
H993 C981 0.929 . S
H994 C982 0.960 1_556 S
H995 C982 0.962 . S
H996 C982 0.960 . S
H997 C983 0.961 . S
H998 C983 0.961 1_556 S
H999 C983 0.961 . S
H1000 C984 0.931 . S
H1001 C989 0.930 . S
H1002 C990 0.956 . S
H1003 C990 0.961 1_554 S
H1004 C990 0.961 . S
H1005 C991 0.958 . S
H1006 C991 0.961 . S
H1007 C991 0.971 . S
C1008 C1009 1.391 . S
C1008 C1010 1.394 . S
C1008 H1024 0.931 . S
C1009 C1008 1.391 . S
C1009 C1013 1.376 . S
C1010 C1008 1.394 . S
C1010 C1011 1.369 . S
C1010 C1014 1.531 . S
C1011 C1010 1.369 . S
C1011 C1012 1.410 . S
C1011 C1019 1.503 . S
C1012 C1011 1.410 . S
C1012 C1013 1.392 . S
C1012 C1015 1.511 . S
C1013 C1009 1.376 . S
C1013 C1012 1.392 . S
C1013 H1025 0.929 . S
C1014 C1010 1.531 . S
C1014 H1026 0.960 . S
C1014 H1027 0.962 . S
C1014 H1028 0.960 . S
C1015 C1012 1.511 . S
C1015 H1029 0.961 . S
C1015 H1030 0.961 . S
C1015 H1031 0.961 . S
C1016 C1017 1.370 . S
C1016 C1018 1.363 . S
C1016 H1032 0.931 . S
C1017 C1016 1.370 . S
C1017 C1021 1.408 . S
C1018 C1016 1.363 . S
C1018 C1019 1.370 . S
C1018 C1022 1.524 . S
C1019 C1011 1.503 . S
C1019 C1018 1.370 . S
C1019 C1020 1.403 . S
C1020 C1019 1.403 . S
C1020 C1021 1.404 . S
C1020 C1023 1.539 . S
C1021 C1017 1.408 . S
C1021 C1020 1.404 . S
C1021 H1033 0.930 . S
C1022 C1018 1.524 . S
C1022 H1034 0.956 . S
C1022 H1035 0.961 . S
C1022 H1036 0.961 . S
C1023 C1020 1.539 . S
C1023 H1037 0.958 . S
C1023 H1038 0.961 . S
C1023 H1039 0.960 . S
H1024 C1008 0.931 . S
H1025 C1013 0.929 . S
H1026 C1014 0.960 . S
H1027 C1014 0.962 . S
H1028 C1014 0.960 . S
H1029 C1015 0.961 . S
H1030 C1015 0.961 . S
H1031 C1015 0.961 . S
H1032 C1016 0.931 . S
H1033 C1021 0.930 . S
H1034 C1022 0.956 . S
H1035 C1022 0.961 . S
H1036 C1022 0.961 . S
H1037 C1023 0.958 . S
H1038 C1023 0.961 . S
H1039 C1023 0.960 . S
C1040 C1041 1.391 . S
C1040 C1042 1.394 . S
C1040 H1056 0.931 . S
C1041 C1040 1.391 . S
C1041 C1045 1.376 . S
C1042 C1040 1.394 . S
C1042 C1043 1.369 . S
C1042 C1046 1.531 . S
C1043 C1042 1.369 . S
C1043 C1044 1.410 . S
C1043 C1051 1.503 . S
C1044 C1043 1.410 . S
C1044 C1045 1.392 . S
C1044 C1047 1.511 . S
C1045 C1041 1.376 . S
C1045 C1044 1.392 . S
C1045 H1057 0.929 . S
C1046 C1042 1.531 . S
C1046 H1058 0.960 . S
C1046 H1059 0.962 . S
C1046 H1060 0.960 . S
C1047 C1044 1.511 . S
C1047 H1061 0.961 . S
C1047 H1062 0.961 . S
C1047 H1063 0.961 . S
C1048 C1049 1.370 . S
C1048 C1050 1.363 . S
C1048 H1064 0.931 . S
C1049 C1048 1.370 . S
C1049 C1053 1.408 . S
C1050 C1048 1.363 . S
C1050 C1051 1.370 . S
C1050 C1054 1.524 . S
C1051 C1043 1.503 . S
C1051 C1050 1.370 . S
C1051 C1052 1.403 . S
C1052 C1051 1.403 . S
C1052 C1053 1.404 . S
C1052 C1055 1.539 . S
C1053 C1049 1.408 . S
C1053 C1052 1.404 . S
C1053 H1065 0.930 . S
C1054 C1050 1.524 . S
C1054 H1066 0.956 . S
C1054 H1067 0.961 . S
C1054 H1068 0.961 . S
C1055 C1052 1.539 . S
C1055 H1069 0.958 . S
C1055 H1070 0.961 . S
C1055 H1071 0.960 . S
H1056 C1040 0.931 . S
H1057 C1045 0.929 . S
H1058 C1046 0.960 . S
H1059 C1046 0.962 . S
H1060 C1046 0.960 . S
H1061 C1047 0.961 . S
H1062 C1047 0.961 . S
H1063 C1047 0.961 . S
H1064 C1048 0.931 . S
H1065 C1053 0.930 . S
H1066 C1054 0.956 . S
H1067 C1054 0.961 . S
H1068 C1054 0.961 . S
H1069 C1055 0.958 . S
H1070 C1055 0.961 . S
H1071 C1055 0.960 . S
C1072 C1073 1.391 . S
C1072 C1074 1.394 . S
C1072 H1088 0.931 . S
C1073 C1072 1.391 . S
C1073 C1077 1.376 . S
C1074 C1072 1.394 . S
C1074 C1075 1.369 . S
C1074 C1078 1.531 . S
C1075 C1074 1.369 . S
C1075 C1076 1.410 . S
C1075 C1083 1.503 . S
C1076 C1075 1.410 . S
C1076 C1077 1.392 . S
C1076 C1079 1.511 . S
C1077 C1073 1.376 . S
C1077 C1076 1.392 . S
C1077 H1089 0.929 . S
C1078 C1074 1.531 . S
C1078 H1090 0.960 . S
C1078 H1091 0.962 . S
C1078 H1092 0.960 . S
C1079 C1076 1.511 . S
C1079 H1093 0.961 . S
C1079 H1094 0.961 . S
C1079 H1095 0.961 . S
C1080 C1081 1.370 . S
C1080 C1082 1.363 . S
C1080 H1096 0.931 . S
C1081 C1080 1.370 . S
C1081 C1085 1.408 . S
C1082 C1080 1.363 . S
C1082 C1083 1.370 . S
C1082 C1086 1.524 . S
C1083 C1075 1.503 . S
C1083 C1082 1.370 . S
C1083 C1084 1.403 . S
C1084 C1083 1.403 . S
C1084 C1085 1.404 . S
C1084 C1087 1.539 . S
C1085 C1081 1.408 . S
C1085 C1084 1.404 . S
C1085 H1097 0.930 . S
C1086 C1082 1.524 . S
C1086 H1098 0.956 . S
C1086 H1099 0.961 . S
C1086 H1100 0.961 . S
C1087 C1084 1.539 . S
C1087 H1101 0.958 . S
C1087 H1102 0.961 . S
C1087 H1103 0.960 . S
H1088 C1072 0.931 . S
H1089 C1077 0.929 . S
H1090 C1078 0.960 . S
H1091 C1078 0.962 . S
H1092 C1078 0.960 . S
H1093 C1079 0.961 . S
H1094 C1079 0.961 . S
H1095 C1079 0.961 . S
H1096 C1080 0.931 . S
H1097 C1085 0.930 . S
H1098 C1086 0.956 . S
H1099 C1086 0.961 . S
H1100 C1086 0.961 . S
H1101 C1087 0.958 . S
H1102 C1087 0.961 . S
H1103 C1087 0.960 . S
C1104 C1105 1.391 . S
C1104 C1106 1.394 . S
C1104 H1120 0.931 . S
C1105 C1104 1.391 . S
C1105 C1109 1.376 . S
C1106 C1104 1.394 . S
C1106 C1107 1.369 . S
C1106 C1110 1.531 . S
C1107 C1106 1.369 . S
C1107 C1108 1.410 . S
C1107 C1115 1.503 . S
C1108 C1107 1.410 . S
C1108 C1109 1.392 . S
C1108 C1111 1.511 . S
C1109 C1105 1.376 . S
C1109 C1108 1.392 . S
C1109 H1121 0.929 . S
C1110 C1106 1.531 . S
C1110 H1122 0.960 . S
C1110 H1123 0.962 . S
C1110 H1124 0.960 . S
C1111 C1108 1.511 . S
C1111 H1125 0.961 . S
C1111 H1126 0.961 . S
C1111 H1127 0.961 . S
C1112 C1113 1.370 . S
C1112 C1114 1.363 . S
C1112 H1128 0.931 . S
C1113 C1112 1.370 . S
C1113 C1117 1.408 . S
C1114 C1112 1.363 . S
C1114 C1115 1.370 . S
C1114 C1118 1.524 . S
C1115 C1107 1.503 . S
C1115 C1114 1.370 . S
C1115 C1116 1.403 . S
C1116 C1115 1.403 . S
C1116 C1117 1.404 . S
C1116 C1119 1.539 . S
C1117 C1113 1.408 . S
C1117 C1116 1.404 . S
C1117 H1129 0.930 . S
C1118 C1114 1.524 . S
C1118 H1130 0.956 . S
C1118 H1131 0.961 . S
C1118 H1132 0.961 . S
C1119 C1116 1.539 . S
C1119 H1133 0.958 . S
C1119 H1134 0.961 . S
C1119 H1135 0.960 . S
H1120 C1104 0.931 . S
H1121 C1109 0.929 . S
H1122 C1110 0.960 . S
H1123 C1110 0.962 . S
H1124 C1110 0.960 . S
H1125 C1111 0.961 . S
H1126 C1111 0.961 . S
H1127 C1111 0.961 . S
H1128 C1112 0.931 . S
H1129 C1117 0.930 . S
H1130 C1118 0.956 . S
H1131 C1118 0.961 . S
H1132 C1118 0.961 . S
H1133 C1119 0.958 . S
H1134 C1119 0.961 . S
H1135 C1119 0.960 . S
C1136 C1137 1.391 . S
C1136 C1138 1.394 . S
C1136 H1152 0.931 . S
C1137 C1136 1.391 . S
C1137 C1141 1.376 . S
C1138 C1136 1.394 . S
C1138 C1139 1.369 . S
C1138 C1142 1.531 . S
C1139 C1138 1.369 . S
C1139 C1140 1.410 . S
C1139 C1147 1.503 . S
C1140 C1139 1.410 . S
C1140 C1141 1.392 . S
C1140 C1143 1.511 . S
C1141 C1137 1.376 . S
C1141 C1140 1.392 . S
C1141 H1153 0.929 . S
C1142 C1138 1.531 . S
C1142 H1154 0.960 . S
C1142 H1155 0.962 . S
C1142 H1156 0.960 . S
C1143 C1140 1.511 . S
C1143 H1157 0.961 . S
C1143 H1158 0.961 . S
C1143 H1159 0.961 . S
C1144 C1145 1.370 . S
C1144 C1146 1.363 . S
C1144 H1160 0.931 . S
C1145 C1144 1.370 . S
C1145 C1149 1.408 . S
C1146 C1144 1.363 . S
C1146 C1147 1.370 . S
C1146 C1150 1.524 . S
C1147 C1139 1.503 . S
C1147 C1146 1.370 . S
C1147 C1148 1.403 . S
C1148 C1147 1.403 . S
C1148 C1149 1.404 . S
C1148 C1151 1.539 . S
C1149 C1145 1.408 . S
C1149 C1148 1.404 . S
C1149 H1161 0.930 . S
C1150 C1146 1.524 . S
C1150 H1162 0.956 . S
C1150 H1163 0.961 . S
C1150 H1164 0.961 . S
C1151 C1148 1.539 . S
C1151 H1165 0.958 . S
C1151 H1166 0.961 . S
C1151 H1167 0.960 . S
H1152 C1136 0.931 . S
H1153 C1141 0.929 . S
H1154 C1142 0.960 . S
H1155 C1142 0.962 . S
H1156 C1142 0.960 . S
H1157 C1143 0.961 . S
H1158 C1143 0.961 . S
H1159 C1143 0.961 . S
H1160 C1144 0.931 . S
H1161 C1149 0.930 . S
H1162 C1150 0.956 . S
H1163 C1150 0.961 . S
H1164 C1150 0.961 . S
H1165 C1151 0.958 . S
H1166 C1151 0.961 . S
H1167 C1151 0.960 . S
C1168 C1169 1.391 . S
C1168 C1170 1.394 . S
C1168 H1184 0.931 . S
C1169 C1168 1.391 . S
C1169 C1173 1.376 . S
C1170 C1168 1.394 . S
C1170 C1171 1.369 . S
C1170 C1174 1.531 . S
C1171 C1170 1.369 . S
C1171 C1172 1.410 . S
C1171 C1179 1.503 . S
C1172 C1171 1.410 . S
C1172 C1173 1.392 . S
C1172 C1175 1.511 . S
C1173 C1169 1.376 . S
C1173 C1172 1.392 . S
C1173 H1185 0.929 . S
C1174 C1170 1.531 . S
C1174 H1186 0.960 . S
C1174 H1187 0.962 . S
C1174 H1188 0.960 . S
C1175 C1172 1.511 . S
C1175 H1189 0.961 . S
C1175 H1190 0.961 . S
C1175 H1191 0.961 . S
C1176 C1177 1.370 . S
C1176 C1178 1.363 . S
C1176 H1192 0.931 . S
C1177 C1176 1.370 . S
C1177 C1181 1.408 . S
C1178 C1176 1.363 . S
C1178 C1179 1.370 . S
C1178 C1182 1.524 . S
C1179 C1171 1.503 . S
C1179 C1178 1.370 . S
C1179 C1180 1.403 . S
C1180 C1179 1.403 . S
C1180 C1181 1.404 . S
C1180 C1183 1.539 . S
C1181 C1177 1.408 . S
C1181 C1180 1.404 . S
C1181 H1193 0.930 . S
C1182 C1178 1.524 . S
C1182 H1194 0.956 . S
C1182 H1195 0.961 . S
C1182 H1196 0.961 . S
C1183 C1180 1.539 . S
C1183 H1197 0.958 . S
C1183 H1198 0.961 . S
C1183 H1199 0.960 . S
H1184 C1168 0.931 . S
H1185 C1173 0.929 . S
H1186 C1174 0.960 . S
H1187 C1174 0.962 . S
H1188 C1174 0.960 . S
H1189 C1175 0.961 . S
H1190 C1175 0.961 . S
H1191 C1175 0.961 . S
H1192 C1176 0.931 . S
H1193 C1181 0.930 . S
H1194 C1182 0.956 . S
H1195 C1182 0.961 . S
H1196 C1182 0.961 . S
H1197 C1183 0.958 . S
H1198 C1183 0.961 . S
H1199 C1183 0.960 . S
C1200 C1201 1.391 . S
C1200 C1202 1.394 . S
C1200 H1216 0.931 . S
C1201 C1200 1.391 . S
C1201 C1205 1.376 . S
C1202 C1200 1.394 . S
C1202 C1203 1.369 . S
C1202 C1206 1.531 . S
C1203 C1202 1.369 . S
C1203 C1204 1.410 . S
C1203 C1211 1.503 . S
C1204 C1203 1.410 . S
C1204 C1205 1.392 . S
C1204 C1207 1.511 . S
C1205 C1201 1.376 . S
C1205 C1204 1.392 . S
C1205 H1217 0.929 . S
C1206 C1202 1.531 . S
C1206 H1218 0.960 . S
C1206 H1219 0.962 . S
C1206 H1220 0.960 . S
C1207 C1204 1.511 . S
C1207 H1221 0.961 . S
C1207 H1222 0.961 . S
C1207 H1223 0.961 . S
C1208 C1209 1.370 . S
C1208 C1210 1.363 . S
C1208 H1224 0.931 . S
C1209 C1208 1.370 . S
C1209 C1213 1.408 . S
C1210 C1208 1.363 . S
C1210 C1211 1.370 . S
C1210 C1214 1.524 . S
C1211 C1203 1.503 . S
C1211 C1210 1.370 . S
C1211 C1212 1.403 . S
C1212 C1211 1.403 . S
C1212 C1213 1.404 . S
C1212 C1215 1.539 . S
C1213 C1209 1.408 . S
C1213 C1212 1.404 . S
C1213 H1225 0.930 . S
C1214 C1210 1.524 . S
C1214 H1226 0.956 . S
C1214 H1227 0.961 . S
C1214 H1228 0.961 . S
C1215 C1212 1.539 . S
C1215 H1229 0.958 . S
C1215 H1230 0.961 . S
C1215 H1231 0.960 . S
H1216 C1200 0.931 . S
H1217 C1205 0.929 . S
H1218 C1206 0.960 . S
H1219 C1206 0.962 . S
H1220 C1206 0.960 . S
H1221 C1207 0.961 . S
H1222 C1207 0.961 . S
H1223 C1207 0.961 . S
H1224 C1208 0.931 . S
H1225 C1213 0.930 . S
H1226 C1214 0.956 . S
H1227 C1214 0.961 . S
H1228 C1214 0.961 . S
H1229 C1215 0.958 . S
H1230 C1215 0.961 . S
H1231 C1215 0.960 . S
C1232 C1233 1.391 . S
C1232 C1234 1.394 . S
C1232 H1248 0.931 . S
C1233 C1232 1.391 . S
C1233 C1237 1.376 . S
C1234 C1232 1.394 . S
C1234 C1235 1.369 . S
C1234 C1238 1.531 . S
C1235 C1234 1.369 . S
C1235 C1236 1.410 . S
C1235 C1243 1.503 . S
C1236 C1235 1.410 . S
C1236 C1237 1.392 . S
C1236 C1239 1.511 . S
C1237 C1233 1.376 . S
C1237 C1236 1.392 . S
C1237 H1249 0.929 . S
C1238 C1234 1.531 . S
C1238 H1250 0.960 . S
C1238 H1251 0.962 . S
C1238 H1252 0.960 . S
C1239 C1236 1.511 . S
C1239 H1253 0.961 . S
C1239 H1254 0.961 . S
C1239 H1255 0.961 . S
C1240 C1241 1.370 . S
C1240 C1242 1.363 . S
C1240 H1256 0.931 . S
C1241 C1240 1.370 . S
C1241 C1245 1.408 . S
C1242 C1240 1.363 . S
C1242 C1243 1.370 . S
C1242 C1246 1.524 . S
C1243 C1235 1.503 . S
C1243 C1242 1.370 . S
C1243 C1244 1.403 . S
C1244 C1243 1.403 . S
C1244 C1245 1.404 . S
C1244 C1247 1.539 . S
C1245 C1241 1.408 . S
C1245 C1244 1.404 . S
C1245 H1257 0.930 . S
C1246 C1242 1.524 . S
C1246 H1258 0.956 . S
C1246 H1259 0.961 . S
C1246 H1260 0.961 . S
C1247 C1244 1.539 . S
C1247 H1261 0.958 . S
C1247 H1262 0.961 . S
C1247 H1263 0.960 . S
H1248 C1232 0.931 . S
H1249 C1237 0.929 . S
H1250 C1238 0.960 . S
H1251 C1238 0.962 . S
H1252 C1238 0.960 . S
H1253 C1239 0.961 . S
H1254 C1239 0.961 . S
H1255 C1239 0.961 . S
H1256 C1240 0.931 . S
H1257 C1245 0.930 . S
H1258 C1246 0.956 . S
H1259 C1246 0.961 . S
H1260 C1246 0.961 . S
H1261 C1247 0.958 . S
H1262 C1247 0.961 . S
H1263 C1247 0.960 . S
C1264 C1265 1.391 . S
C1264 C1266 1.394 . S
C1264 H1280 0.931 . S
C1265 C1264 1.391 . S
C1265 C1269 1.376 . S
C1266 C1264 1.394 . S
C1266 C1267 1.369 . S
C1266 C1270 1.531 . S
C1267 C1266 1.369 . S
C1267 C1268 1.410 . S
C1267 C1275 1.503 . S
C1268 C1267 1.410 . S
C1268 C1269 1.392 . S
C1268 C1271 1.511 . S
C1269 C1265 1.376 . S
C1269 C1268 1.392 . S
C1269 H1281 0.929 . S
C1270 C1266 1.531 . S
C1270 H1282 0.960 . S
C1270 H1283 0.962 . S
C1270 H1284 0.960 . S
C1271 C1268 1.511 . S
C1271 H1285 0.961 . S
C1271 H1286 0.961 . S
C1271 H1287 0.961 . S
C1272 C1273 1.370 . S
C1272 C1274 1.363 . S
C1272 H1288 0.931 . S
C1273 C1272 1.370 . S
C1273 C1277 1.408 . S
C1274 C1272 1.363 . S
C1274 C1275 1.370 . S
C1274 C1278 1.524 . S
C1275 C1267 1.503 . S
C1275 C1274 1.370 . S
C1275 C1276 1.403 . S
C1276 C1275 1.403 . S
C1276 C1277 1.404 . S
C1276 C1279 1.539 . S
C1277 C1273 1.408 . S
C1277 C1276 1.404 . S
C1277 H1289 0.930 . S
C1278 C1274 1.524 . S
C1278 H1290 0.956 . S
C1278 H1291 0.961 . S
C1278 H1292 0.961 . S
C1279 C1276 1.539 . S
C1279 H1293 0.958 . S
C1279 H1294 0.961 . S
C1279 H1295 0.960 . S
H1280 C1264 0.931 . S
H1281 C1269 0.929 . S
H1282 C1270 0.960 . S
H1283 C1270 0.962 . S
H1284 C1270 0.960 . S
H1285 C1271 0.961 . S
H1286 C1271 0.961 . S
H1287 C1271 0.961 . S
H1288 C1272 0.931 . S
H1289 C1277 0.930 . S
H1290 C1278 0.956 . S
H1291 C1278 0.961 . S
H1292 C1278 0.961 . S
H1293 C1279 0.958 . S
H1294 C1279 0.961 . S
H1295 C1279 0.960 . S
C1296 C1297 1.391 . S
C1296 C1298 1.394 . S
C1296 H1312 0.931 . S
C1297 C1296 1.391 . S
C1297 C1301 1.376 . S
C1298 C1296 1.394 . S
C1298 C1299 1.369 . S
C1298 C1302 1.531 . S
C1299 C1298 1.369 . S
C1299 C1300 1.410 . S
C1299 C1307 1.503 . S
C1300 C1299 1.410 . S
C1300 C1301 1.392 . S
C1300 C1303 1.511 . S
C1301 C1297 1.376 . S
C1301 C1300 1.392 . S
C1301 H1313 0.929 . S
C1302 C1298 1.531 . S
C1302 H1314 0.960 . S
C1302 H1315 0.962 . S
C1302 H1316 0.960 . S
C1303 C1300 1.511 . S
C1303 H1317 0.961 . S
C1303 H1318 0.961 . S
C1303 H1319 0.961 . S
C1304 C1305 1.370 . S
C1304 C1306 1.363 . S
C1304 H1320 0.931 . S
C1305 C1304 1.370 . S
C1305 C1309 1.408 . S
C1306 C1304 1.363 . S
C1306 C1307 1.370 . S
C1306 C1310 1.524 . S
C1307 C1299 1.503 . S
C1307 C1306 1.370 . S
C1307 C1308 1.403 . S
C1308 C1307 1.403 . S
C1308 C1309 1.404 . S
C1308 C1311 1.539 . S
C1309 C1305 1.408 . S
C1309 C1308 1.404 . S
C1309 H1321 0.930 . S
C1310 C1306 1.524 . S
C1310 H1322 0.956 . S
C1310 H1323 0.961 . S
C1310 H1324 0.961 . S
C1311 C1308 1.539 . S
C1311 H1325 0.958 . S
C1311 H1326 0.961 . S
C1311 H1327 0.960 . S
H1312 C1296 0.931 . S
H1313 C1301 0.929 . S
H1314 C1302 0.960 . S
H1315 C1302 0.962 . S
H1316 C1302 0.960 . S
H1317 C1303 0.961 . S
H1318 C1303 0.961 . S
H1319 C1303 0.961 . S
H1320 C1304 0.931 . S
H1321 C1309 0.930 . S
H1322 C1310 0.956 . S
H1323 C1310 0.961 . S
H1324 C1310 0.961 . S
H1325 C1311 0.958 . S
H1326 C1311 0.961 . S
H1327 C1311 0.960 . S
C1328 C1329 1.391 . S
C1328 C1330 1.394 . S
C1328 H1344 0.931 . S
C1329 C1328 1.391 . S
C1329 C1333 1.376 . S
C1330 C1328 1.394 . S
C1330 C1331 1.369 . S
C1330 C1334 1.531 . S
C1331 C1330 1.369 . S
C1331 C1332 1.410 . S
C1331 C1339 1.503 . S
C1332 C1331 1.410 . S
C1332 C1333 1.392 . S
C1332 C1335 1.511 . S
C1333 C1329 1.376 . S
C1333 C1332 1.392 . S
C1333 H1345 0.929 . S
C1334 C1330 1.531 . S
C1334 H1346 0.960 . S
C1334 H1347 0.962 . S
C1334 H1348 0.960 . S
C1335 C1332 1.511 . S
C1335 H1349 0.961 . S
C1335 H1350 0.961 . S
C1335 H1351 0.961 . S
C1336 C1337 1.370 . S
C1336 C1338 1.363 . S
C1336 H1352 0.931 . S
C1337 C1336 1.370 . S
C1337 C1341 1.408 . S
C1338 C1336 1.363 . S
C1338 C1339 1.370 . S
C1338 C1342 1.524 . S
C1339 C1331 1.503 . S
C1339 C1338 1.370 . S
C1339 C1340 1.403 . S
C1340 C1339 1.403 . S
C1340 C1341 1.404 . S
C1340 C1343 1.539 . S
C1341 C1337 1.408 . S
C1341 C1340 1.404 . S
C1341 H1353 0.930 . S
C1342 C1338 1.524 . S
C1342 H1354 0.956 . S
C1342 H1355 0.961 . S
C1342 H1356 0.961 . S
C1343 C1340 1.539 . S
C1343 H1357 0.958 . S
C1343 H1358 0.961 . S
C1343 H1359 0.960 . S
H1344 C1328 0.931 . S
H1345 C1333 0.929 . S
H1346 C1334 0.960 . S
H1347 C1334 0.962 . S
H1348 C1334 0.960 . S
H1349 C1335 0.961 . S
H1350 C1335 0.961 . S
H1351 C1335 0.961 . S
H1352 C1336 0.931 . S
H1353 C1341 0.930 . S
H1354 C1342 0.956 . S
H1355 C1342 0.961 . S
H1356 C1342 0.961 . S
H1357 C1343 0.958 . S
H1358 C1343 0.961 . S
H1359 C1343 0.960 . S
C1360 C1361 1.391 . S
C1360 C1362 1.394 . S
C1360 H1376 0.931 . S
C1361 C1360 1.391 . S
C1361 C1365 1.376 . S
C1362 C1360 1.394 . S
C1362 C1363 1.369 . S
C1362 C1366 1.531 . S
C1363 C1362 1.369 . S
C1363 C1364 1.410 . S
C1363 C1371 1.503 . S
C1364 C1363 1.410 . S
C1364 C1365 1.392 . S
C1364 C1367 1.511 . S
C1365 C1361 1.376 . S
C1365 C1364 1.392 . S
C1365 H1377 0.929 . S
C1366 C1362 1.531 . S
C1366 H1378 0.960 . S
C1366 H1379 0.962 . S
C1366 H1380 0.960 . S
C1367 C1364 1.511 . S
C1367 H1381 0.961 . S
C1367 H1382 0.961 . S
C1367 H1383 0.961 . S
C1368 C1369 1.370 . S
C1368 C1370 1.363 . S
C1368 H1384 0.931 . S
C1369 C1368 1.370 . S
C1369 C1373 1.408 . S
C1370 C1368 1.363 . S
C1370 C1371 1.370 . S
C1370 C1374 1.524 . S
C1371 C1363 1.503 . S
C1371 C1370 1.370 . S
C1371 C1372 1.403 . S
C1372 C1371 1.403 . S
C1372 C1373 1.404 . S
C1372 C1375 1.539 . S
C1373 C1369 1.408 . S
C1373 C1372 1.404 . S
C1373 H1385 0.930 . S
C1374 C1370 1.524 . S
C1374 H1386 0.956 . S
C1374 H1387 0.961 . S
C1374 H1388 0.961 . S
C1375 C1372 1.539 . S
C1375 H1389 0.958 . S
C1375 H1390 0.961 . S
C1375 H1391 0.960 . S
H1376 C1360 0.931 . S
H1377 C1365 0.929 . S
H1378 C1366 0.960 . S
H1379 C1366 0.962 . S
H1380 C1366 0.960 . S
H1381 C1367 0.961 . S
H1382 C1367 0.961 . S
H1383 C1367 0.961 . S
H1384 C1368 0.931 . S
H1385 C1373 0.930 . S
H1386 C1374 0.956 . S
H1387 C1374 0.961 . S
H1388 C1374 0.961 . S
H1389 C1375 0.958 . S
H1390 C1375 0.961 . S
H1391 C1375 0.960 . S
C1392 C1393 1.391 . S
C1392 C1394 1.394 . S
C1392 H1408 0.931 . S
C1393 C1392 1.391 . S
C1393 C1397 1.376 . S
C1394 C1392 1.394 . S
C1394 C1395 1.369 . S
C1394 C1398 1.531 . S
C1395 C1394 1.369 . S
C1395 C1396 1.410 . S
C1395 C1403 1.503 . S
C1396 C1395 1.410 . S
C1396 C1397 1.392 . S
C1396 C1399 1.511 . S
C1397 C1393 1.376 . S
C1397 C1396 1.392 . S
C1397 H1409 0.929 . S
C1398 C1394 1.531 . S
C1398 H1410 0.960 . S
C1398 H1411 0.962 . S
C1398 H1412 0.960 . S
C1399 C1396 1.511 . S
C1399 H1413 0.961 . S
C1399 H1414 0.961 . S
C1399 H1415 0.961 . S
C1400 C1401 1.370 . S
C1400 C1402 1.363 . S
C1400 H1416 0.931 . S
C1401 C1400 1.370 . S
C1401 C1405 1.408 . S
C1402 C1400 1.363 . S
C1402 C1403 1.370 . S
C1402 C1406 1.524 . S
C1403 C1395 1.503 . S
C1403 C1402 1.370 . S
C1403 C1404 1.403 . S
C1404 C1403 1.403 . S
C1404 C1405 1.404 . S
C1404 C1407 1.539 . S
C1405 C1401 1.408 . S
C1405 C1404 1.404 . S
C1405 H1417 0.930 . S
C1406 C1402 1.524 . S
C1406 H1418 0.956 . S
C1406 H1419 0.961 . S
C1406 H1420 0.961 . S
C1407 C1404 1.539 . S
C1407 H1421 0.958 . S
C1407 H1422 0.961 . S
C1407 H1423 0.960 . S
H1408 C1392 0.931 . S
H1409 C1397 0.929 . S
H1410 C1398 0.960 . S
H1411 C1398 0.962 . S
H1412 C1398 0.960 . S
H1413 C1399 0.961 . S
H1414 C1399 0.961 . S
H1415 C1399 0.961 . S
H1416 C1400 0.931 . S
H1417 C1405 0.930 . S
H1418 C1406 0.956 . S
H1419 C1406 0.961 . S
H1420 C1406 0.961 . S
H1421 C1407 0.958 . S
H1422 C1407 0.961 . S
H1423 C1407 0.960 . S
C1424 C1425 1.391 . S
C1424 C1426 1.394 . S
C1424 H1440 0.931 . S
C1425 C1424 1.391 . S
C1425 C1429 1.376 . S
C1426 C1424 1.394 . S
C1426 C1427 1.369 . S
C1426 C1430 1.531 . S
C1427 C1426 1.369 . S
C1427 C1428 1.410 . S
C1427 C1435 1.503 . S
C1428 C1427 1.410 . S
C1428 C1429 1.392 . S
C1428 C1431 1.511 . S
C1429 C1425 1.376 . S
C1429 C1428 1.392 . S
C1429 H1441 0.929 . S
C1430 C1426 1.531 . S
C1430 H1442 0.960 . S
C1430 H1443 0.962 . S
C1430 H1444 0.960 . S
C1431 C1428 1.511 . S
C1431 H1445 0.961 . S
C1431 H1446 0.961 . S
C1431 H1447 0.961 . S
C1432 C1433 1.370 . S
C1432 C1434 1.363 . S
C1432 H1448 0.931 . S
C1433 C1432 1.370 . S
C1433 C1437 1.408 . S
C1434 C1432 1.363 . S
C1434 C1435 1.370 . S
C1434 C1438 1.524 . S
C1435 C1427 1.503 . S
C1435 C1434 1.370 . S
C1435 C1436 1.403 . S
C1436 C1435 1.403 . S
C1436 C1437 1.404 . S
C1436 C1439 1.539 . S
C1437 C1433 1.408 . S
C1437 C1436 1.404 . S
C1437 H1449 0.930 . S
C1438 C1434 1.524 . S
C1438 H1450 0.956 . S
C1438 H1451 0.961 . S
C1438 H1452 0.961 . S
C1439 C1436 1.539 . S
C1439 H1453 0.958 . S
C1439 H1454 0.961 . S
C1439 H1455 0.960 . S
H1440 C1424 0.931 . S
H1441 C1429 0.929 . S
H1442 C1430 0.960 . S
H1443 C1430 0.962 . S
H1444 C1430 0.960 . S
H1445 C1431 0.961 . S
H1446 C1431 0.961 . S
H1447 C1431 0.961 . S
H1448 C1432 0.931 . S
H1449 C1437 0.930 . S
H1450 C1438 0.956 . S
H1451 C1438 0.961 . S
H1452 C1438 0.961 . S
H1453 C1439 0.958 . S
H1454 C1439 0.961 . S
H1455 C1439 0.960 . S
C1456 C1457 1.391 . S
C1456 C1458 1.394 . S
C1456 H1472 0.931 . S
C1457 C1456 1.391 . S
C1457 C1461 1.376 . S
C1458 C1456 1.394 . S
C1458 C1459 1.369 . S
C1458 C1462 1.531 . S
C1459 C1458 1.369 . S
C1459 C1460 1.410 . S
C1459 C1467 1.503 . S
C1460 C1459 1.410 . S
C1460 C1461 1.392 . S
C1460 C1463 1.511 . S
C1461 C1457 1.376 . S
C1461 C1460 1.392 . S
C1461 H1473 0.929 . S
C1462 C1458 1.531 . S
C1462 H1474 0.960 . S
C1462 H1475 0.962 . S
C1462 H1476 0.960 . S
C1463 C1460 1.511 . S
C1463 H1477 0.961 . S
C1463 H1478 0.961 . S
C1463 H1479 0.961 . S
C1464 C1465 1.370 . S
C1464 C1466 1.363 . S
C1464 H1480 0.931 . S
C1465 C1464 1.370 . S
C1465 C1469 1.408 . S
C1466 C1464 1.363 . S
C1466 C1467 1.370 . S
C1466 C1470 1.524 . S
C1467 C1459 1.503 . S
C1467 C1466 1.370 . S
C1467 C1468 1.403 . S
C1468 C1467 1.403 . S
C1468 C1469 1.404 . S
C1468 C1471 1.539 . S
C1469 C1465 1.408 . S
C1469 C1468 1.404 . S
C1469 H1481 0.930 . S
C1470 C1466 1.524 . S
C1470 H1482 0.956 . S
C1470 H1483 0.961 . S
C1470 H1484 0.961 . S
C1471 C1468 1.539 . S
C1471 H1485 0.958 . S
C1471 H1486 0.961 . S
C1471 H1487 0.960 . S
H1472 C1456 0.931 . S
H1473 C1461 0.929 . S
H1474 C1462 0.960 . S
H1475 C1462 0.962 . S
H1476 C1462 0.960 . S
H1477 C1463 0.961 . S
H1478 C1463 0.961 . S
H1479 C1463 0.961 . S
H1480 C1464 0.931 . S
H1481 C1469 0.930 . S
H1482 C1470 0.956 . S
H1483 C1470 0.961 . S
H1484 C1470 0.961 . S
H1485 C1471 0.958 . S
H1486 C1471 0.961 . S
H1487 C1471 0.960 . S
C1488 C1489 1.391 . S
C1488 C1490 1.394 . S
C1488 H1504 0.931 . S
C1489 C1488 1.391 . S
C1489 C1493 1.376 . S
C1490 C1488 1.394 . S
C1490 C1491 1.369 . S
C1490 C1494 1.531 . S
C1491 C1490 1.369 . S
C1491 C1492 1.410 . S
C1491 C1499 1.503 . S
C1492 C1491 1.410 . S
C1492 C1493 1.392 . S
C1492 C1495 1.511 . S
C1493 C1489 1.376 . S
C1493 C1492 1.392 . S
C1493 H1505 0.929 . S
C1494 C1490 1.531 . S
C1494 H1506 0.960 . S
C1494 H1507 0.962 . S
C1494 H1508 0.960 . S
C1495 C1492 1.511 . S
C1495 H1509 0.961 . S
C1495 H1510 0.961 . S
C1495 H1511 0.961 . S
C1496 C1497 1.370 . S
C1496 C1498 1.363 . S
C1496 H1512 0.931 . S
C1497 C1496 1.370 . S
C1497 C1501 1.408 . S
C1498 C1496 1.363 . S
C1498 C1499 1.370 . S
C1498 C1502 1.524 . S
C1499 C1491 1.503 . S
C1499 C1498 1.370 . S
C1499 C1500 1.403 . S
C1500 C1499 1.403 . S
C1500 C1501 1.404 . S
C1500 C1503 1.539 . S
C1501 C1497 1.408 . S
C1501 C1500 1.404 . S
C1501 H1513 0.930 . S
C1502 C1498 1.524 . S
C1502 H1514 0.956 . S
C1502 H1515 0.961 . S
C1502 H1516 0.961 . S
C1503 C1500 1.539 . S
C1503 H1517 0.958 . S
C1503 H1518 0.961 . S
C1503 H1519 0.960 . S
H1504 C1488 0.931 . S
H1505 C1493 0.929 . S
H1506 C1494 0.960 . S
H1507 C1494 0.962 . S
H1508 C1494 0.960 . S
H1509 C1495 0.961 . S
H1510 C1495 0.961 . S
H1511 C1495 0.961 . S
H1512 C1496 0.931 . S
H1513 C1501 0.930 . S
H1514 C1502 0.956 . S
H1515 C1502 0.961 . S
H1516 C1502 0.961 . S
H1517 C1503 0.958 . S
H1518 C1503 0.961 . S
H1519 C1503 0.960 . S
C1520 C1521 1.391 . S
C1520 C1522 1.394 . S
C1520 H1536 0.931 . S
C1521 C1520 1.391 . S
C1521 C1525 1.376 . S
C1522 C1520 1.394 . S
C1522 C1523 1.369 . S
C1522 C1526 1.531 . S
C1523 C1522 1.369 . S
C1523 C1524 1.410 . S
C1523 C1531 1.503 . S
C1524 C1523 1.410 . S
C1524 C1525 1.392 . S
C1524 C1527 1.511 . S
C1525 C1521 1.376 . S
C1525 C1524 1.392 . S
C1525 H1537 0.929 . S
C1526 C1522 1.531 . S
C1526 H1538 0.960 . S
C1526 H1539 0.962 . S
C1526 H1540 0.960 . S
C1527 C1524 1.511 . S
C1527 H1541 0.961 . S
C1527 H1542 0.961 . S
C1527 H1543 0.961 . S
C1528 C1529 1.370 . S
C1528 C1530 1.363 . S
C1528 H1544 0.931 . S
C1529 C1528 1.370 . S
C1529 C1533 1.408 . S
C1530 C1528 1.363 . S
C1530 C1531 1.370 . S
C1530 C1534 1.524 . S
C1531 C1523 1.503 . S
C1531 C1530 1.370 . S
C1531 C1532 1.403 . S
C1532 C1531 1.403 . S
C1532 C1533 1.404 . S
C1532 C1535 1.539 . S
C1533 C1529 1.408 . S
C1533 C1532 1.404 . S
C1533 H1545 0.930 . S
C1534 C1530 1.524 . S
C1534 H1546 0.956 . S
C1534 H1547 0.961 . S
C1534 H1548 0.961 . S
C1535 C1532 1.539 . S
C1535 H1549 0.958 . S
C1535 H1550 0.961 . S
C1535 H1551 0.960 . S
H1536 C1520 0.931 . S
H1537 C1525 0.929 . S
H1538 C1526 0.960 . S
H1539 C1526 0.962 . S
H1540 C1526 0.960 . S
H1541 C1527 0.961 . S
H1542 C1527 0.961 . S
H1543 C1527 0.961 . S
H1544 C1528 0.931 . S
H1545 C1533 0.930 . S
H1546 C1534 0.956 . S
H1547 C1534 0.961 . S
H1548 C1534 0.961 . S
H1549 C1535 0.958 . S
H1550 C1535 0.961 . S
H1551 C1535 0.960 . S
C1552 C1553 1.391 . S
C1552 C1554 1.394 . S
C1552 H1568 0.931 . S
C1553 C1552 1.391 . S
C1553 C1557 1.376 . S
C1554 C1552 1.394 . S
C1554 C1555 1.369 . S
C1554 C1558 1.531 . S
C1555 C1554 1.369 . S
C1555 C1556 1.410 . S
C1555 C1563 1.503 . S
C1556 C1555 1.410 . S
C1556 C1557 1.392 . S
C1556 C1559 1.511 . S
C1557 C1553 1.376 . S
C1557 C1556 1.392 . S
C1557 H1569 0.929 . S
C1558 C1554 1.531 . S
C1558 H1570 0.960 . S
C1558 H1571 0.962 . S
C1558 H1572 0.960 . S
C1559 C1556 1.511 . S
C1559 H1573 0.961 . S
C1559 H1574 0.961 . S
C1559 H1575 0.961 . S
C1560 C1561 1.370 . S
C1560 C1562 1.363 . S
C1560 H1576 0.931 . S
C1561 C1560 1.370 . S
C1561 C1565 1.408 . S
C1562 C1560 1.363 . S
C1562 C1563 1.370 . S
C1562 C1566 1.524 . S
C1563 C1555 1.503 . S
C1563 C1562 1.370 . S
C1563 C1564 1.403 . S
C1564 C1563 1.403 . S
C1564 C1565 1.404 . S
C1564 C1567 1.539 . S
C1565 C1561 1.408 . S
C1565 C1564 1.404 . S
C1565 H1577 0.930 . S
C1566 C1562 1.524 . S
C1566 H1578 0.956 . S
C1566 H1579 0.961 . S
C1566 H1580 0.961 . S
C1567 C1564 1.539 . S
C1567 H1581 0.958 . S
C1567 H1582 0.961 . S
C1567 H1583 0.960 . S
H1568 C1552 0.931 . S
H1569 C1557 0.929 . S
H1570 C1558 0.960 . S
H1571 C1558 0.962 . S
H1572 C1558 0.960 . S
H1573 C1559 0.961 . S
H1574 C1559 0.961 . S
H1575 C1559 0.961 . S
H1576 C1560 0.931 . S
H1577 C1565 0.930 . S
H1578 C1566 0.956 . S
H1579 C1566 0.961 . S
H1580 C1566 0.961 . S
H1581 C1567 0.958 . S
H1582 C1567 0.961 . S
H1583 C1567 0.960 . S
C1584 C1585 1.391 . S
C1584 C1586 1.394 . S
C1584 H1600 0.931 . S
C1585 C1584 1.391 . S
C1585 C1589 1.376 . S
C1586 C1584 1.394 . S
C1586 C1587 1.369 . S
C1586 C1590 1.531 . S
C1587 C1586 1.369 . S
C1587 C1588 1.410 . S
C1587 C1595 1.503 . S
C1588 C1587 1.410 . S
C1588 C1589 1.392 . S
C1588 C1591 1.511 . S
C1589 C1585 1.376 . S
C1589 C1588 1.392 . S
C1589 H1601 0.929 . S
C1590 C1586 1.531 . S
C1590 H1602 0.960 . S
C1590 H1603 0.962 . S
C1590 H1604 0.960 . S
C1591 C1588 1.511 . S
C1591 H1605 0.961 . S
C1591 H1606 0.961 . S
C1591 H1607 0.961 . S
C1592 C1593 1.370 . S
C1592 C1594 1.363 . S
C1592 H1608 0.931 . S
C1593 C1592 1.370 . S
C1593 C1597 1.408 . S
C1594 C1592 1.363 . S
C1594 C1595 1.370 . S
C1594 C1598 1.524 . S
C1595 C1587 1.503 . S
C1595 C1594 1.370 . S
C1595 C1596 1.403 . S
C1596 C1595 1.403 . S
C1596 C1597 1.404 . S
C1596 C1599 1.539 . S
C1597 C1593 1.408 . S
C1597 C1596 1.404 . S
C1597 H1609 0.930 . S
C1598 C1594 1.524 . S
C1598 H1610 0.956 . S
C1598 H1611 0.961 . S
C1598 H1612 0.961 . S
C1599 C1596 1.539 . S
C1599 H1613 0.958 . S
C1599 H1614 0.961 . S
C1599 H1615 0.960 . S
H1600 C1584 0.931 . S
H1601 C1589 0.929 . S
H1602 C1590 0.960 . S
H1603 C1590 0.962 . S
H1604 C1590 0.960 . S
H1605 C1591 0.961 . S
H1606 C1591 0.961 . S
H1607 C1591 0.961 . S
H1608 C1592 0.931 . S
H1609 C1597 0.930 . S
H1610 C1598 0.956 . S
H1611 C1598 0.961 . S
H1612 C1598 0.961 . S
H1613 C1599 0.958 . S
H1614 C1599 0.961 . S
H1615 C1599 0.960 . S
C1616 C1617 1.391 . S
C1616 C1618 1.394 . S
C1616 H1632 0.931 . S
C1617 C1616 1.391 . S
C1617 C1621 1.376 . S
C1618 C1616 1.394 . S
C1618 C1619 1.369 . S
C1618 C1622 1.531 . S
C1619 C1618 1.369 . S
C1619 C1620 1.410 . S
C1619 C1627 1.503 . S
C1620 C1619 1.410 . S
C1620 C1621 1.392 . S
C1620 C1623 1.511 . S
C1621 C1617 1.376 . S
C1621 C1620 1.392 . S
C1621 H1633 0.929 . S
C1622 C1618 1.531 . S
C1622 H1634 0.960 . S
C1622 H1635 0.962 . S
C1622 H1636 0.960 . S
C1623 C1620 1.511 . S
C1623 H1637 0.961 . S
C1623 H1638 0.961 . S
C1623 H1639 0.961 . S
C1624 C1625 1.370 . S
C1624 C1626 1.363 . S
C1624 H1640 0.931 . S
C1625 C1624 1.370 . S
C1625 C1629 1.408 . S
C1626 C1624 1.363 . S
C1626 C1627 1.370 . S
C1626 C1630 1.524 . S
C1627 C1619 1.503 . S
C1627 C1626 1.370 . S
C1627 C1628 1.403 . S
C1628 C1627 1.403 . S
C1628 C1629 1.404 . S
C1628 C1631 1.539 . S
C1629 C1625 1.408 . S
C1629 C1628 1.404 . S
C1629 H1641 0.930 . S
C1630 C1626 1.524 . S
C1630 H1642 0.956 . S
C1630 H1643 0.961 . S
C1630 H1644 0.961 . S
C1631 C1628 1.539 . S
C1631 H1645 0.958 . S
C1631 H1646 0.961 . S
C1631 H1647 0.960 . S
H1632 C1616 0.931 . S
H1633 C1621 0.929 . S
H1634 C1622 0.960 . S
H1635 C1622 0.962 . S
H1636 C1622 0.960 . S
H1637 C1623 0.961 . S
H1638 C1623 0.961 . S
H1639 C1623 0.961 . S
H1640 C1624 0.931 . S
H1641 C1629 0.930 . S
H1642 C1630 0.956 . S
H1643 C1630 0.961 . S
H1644 C1630 0.961 . S
H1645 C1631 0.958 . S
H1646 C1631 0.961 . S
H1647 C1631 0.960 . S
C1648 C1649 1.391 . S
C1648 C1650 1.394 . S
C1648 H1664 0.931 . S
C1649 C1648 1.391 . S
C1649 C1653 1.376 . S
C1650 C1648 1.394 . S
C1650 C1651 1.369 . S
C1650 C1654 1.531 . S
C1651 C1650 1.369 . S
C1651 C1652 1.410 . S
C1651 C1659 1.503 . S
C1652 C1651 1.410 . S
C1652 C1653 1.392 . S
C1652 C1655 1.511 . S
C1653 C1649 1.376 . S
C1653 C1652 1.392 . S
C1653 H1665 0.929 . S
C1654 C1650 1.531 . S
C1654 H1666 0.960 . S
C1654 H1667 0.962 . S
C1654 H1668 0.960 . S
C1655 C1652 1.511 . S
C1655 H1669 0.961 . S
C1655 H1670 0.961 . S
C1655 H1671 0.961 . S
C1656 C1657 1.370 . S
C1656 C1658 1.363 . S
C1656 H1672 0.931 . S
C1657 C1656 1.370 . S
C1657 C1661 1.408 . S
C1658 C1656 1.363 . S
C1658 C1659 1.370 . S
C1658 C1662 1.524 . S
C1659 C1651 1.503 . S
C1659 C1658 1.370 . S
C1659 C1660 1.403 . S
C1660 C1659 1.403 . S
C1660 C1661 1.404 . S
C1660 C1663 1.539 . S
C1661 C1657 1.408 . S
C1661 C1660 1.404 . S
C1661 H1673 0.930 . S
C1662 C1658 1.524 . S
C1662 H1674 0.956 . S
C1662 H1675 0.961 . S
C1662 H1676 0.961 . S
C1663 C1660 1.539 . S
C1663 H1677 0.958 . S
C1663 H1678 0.961 . S
C1663 H1679 0.960 . S
H1664 C1648 0.931 . S
H1665 C1653 0.929 . S
H1666 C1654 0.960 . S
H1667 C1654 0.962 . S
H1668 C1654 0.960 . S
H1669 C1655 0.961 . S
H1670 C1655 0.961 . S
H1671 C1655 0.961 . S
H1672 C1656 0.931 . S
H1673 C1661 0.930 . S
H1674 C1662 0.956 . S
H1675 C1662 0.961 . S
H1676 C1662 0.961 . S
H1677 C1663 0.958 . S
H1678 C1663 0.961 . S
H1679 C1663 0.960 . S
C1680 C1681 1.391 . S
C1680 C1682 1.394 . S
C1680 H1696 0.931 . S
C1681 C1680 1.391 . S
C1681 C1685 1.376 . S
C1682 C1680 1.394 . S
C1682 C1683 1.369 . S
C1682 C1686 1.531 . S
C1683 C1682 1.369 . S
C1683 C1684 1.410 . S
C1683 C1691 1.503 . S
C1684 C1683 1.410 . S
C1684 C1685 1.392 . S
C1684 C1687 1.511 . S
C1685 C1681 1.376 . S
C1685 C1684 1.392 . S
C1685 H1697 0.929 . S
C1686 C1682 1.531 . S
C1686 H1698 0.960 . S
C1686 H1699 0.962 . S
C1686 H1700 0.960 . S
C1687 C1684 1.511 . S
C1687 H1701 0.961 . S
C1687 H1702 0.961 . S
C1687 H1703 0.961 . S
C1688 C1689 1.370 . S
C1688 C1690 1.363 . S
C1688 H1704 0.931 . S
C1689 C1688 1.370 . S
C1689 C1693 1.408 . S
C1690 C1688 1.363 . S
C1690 C1691 1.370 . S
C1690 C1694 1.524 . S
C1691 C1683 1.503 . S
C1691 C1690 1.370 . S
C1691 C1692 1.403 . S
C1692 C1691 1.403 . S
C1692 C1693 1.404 . S
C1692 C1695 1.539 . S
C1693 C1689 1.408 . S
C1693 C1692 1.404 . S
C1693 H1705 0.930 . S
C1694 C1690 1.524 . S
C1694 H1706 0.956 . S
C1694 H1707 0.961 . S
C1694 H1708 0.961 . S
C1695 C1692 1.539 . S
C1695 H1709 0.958 . S
C1695 H1710 0.961 . S
C1695 H1711 0.960 . S
H1696 C1680 0.931 . S
H1697 C1685 0.929 . S
H1698 C1686 0.960 . S
H1699 C1686 0.962 . S
H1700 C1686 0.960 . S
H1701 C1687 0.961 . S
H1702 C1687 0.961 . S
H1703 C1687 0.961 . S
H1704 C1688 0.931 . S
H1705 C1693 0.930 . S
H1706 C1694 0.956 . S
H1707 C1694 0.961 . S
H1708 C1694 0.961 . S
H1709 C1695 0.958 . S
H1710 C1695 0.961 . S
H1711 C1695 0.960 . S
C1712 C1713 1.391 . S
C1712 C1714 1.394 . S
C1712 H1728 0.931 . S
C1713 C1712 1.391 . S
C1713 C1717 1.376 . S
C1714 C1712 1.394 . S
C1714 C1715 1.369 . S
C1714 C1718 1.531 . S
C1715 C1714 1.369 . S
C1715 C1716 1.410 . S
C1715 C1723 1.503 . S
C1716 C1715 1.410 . S
C1716 C1717 1.392 . S
C1716 C1719 1.511 . S
C1717 C1713 1.376 . S
C1717 C1716 1.392 . S
C1717 H1729 0.929 . S
C1718 C1714 1.531 . S
C1718 H1730 0.960 . S
C1718 H1731 0.962 . S
C1718 H1732 0.960 . S
C1719 C1716 1.511 . S
C1719 H1733 0.961 . S
C1719 H1734 0.961 . S
C1719 H1735 0.961 . S
C1720 C1721 1.370 . S
C1720 C1722 1.363 . S
C1720 H1736 0.931 . S
C1721 C1720 1.370 . S
C1721 C1725 1.408 . S
C1722 C1720 1.363 . S
C1722 C1723 1.370 . S
C1722 C1726 1.524 . S
C1723 C1715 1.503 . S
C1723 C1722 1.370 . S
C1723 C1724 1.403 . S
C1724 C1723 1.403 . S
C1724 C1725 1.404 . S
C1724 C1727 1.539 . S
C1725 C1721 1.408 . S
C1725 C1724 1.404 . S
C1725 H1737 0.930 . S
C1726 C1722 1.524 . S
C1726 H1738 0.956 . S
C1726 H1739 0.961 . S
C1726 H1740 0.961 . S
C1727 C1724 1.539 . S
C1727 H1741 0.958 . S
C1727 H1742 0.961 . S
C1727 H1743 0.960 . S
H1728 C1712 0.931 . S
H1729 C1717 0.929 . S
H1730 C1718 0.960 . S
H1731 C1718 0.962 . S
H1732 C1718 0.960 . S
H1733 C1719 0.961 . S
H1734 C1719 0.961 . S
H1735 C1719 0.961 . S
H1736 C1720 0.931 . S
H1737 C1725 0.930 . S
H1738 C1726 0.956 . S
H1739 C1726 0.961 . S
H1740 C1726 0.961 . S
H1741 C1727 0.958 . S
H1742 C1727 0.961 . S
H1743 C1727 0.960 . S
C1744 C1745 1.391 . S
C1744 C1746 1.394 . S
C1744 H1760 0.931 . S
C1745 C1744 1.391 . S
C1745 C1749 1.376 . S
C1746 C1744 1.394 . S
C1746 C1747 1.369 . S
C1746 C1750 1.531 . S
C1747 C1746 1.369 . S
C1747 C1748 1.410 . S
C1747 C1755 1.503 . S
C1748 C1747 1.410 . S
C1748 C1749 1.392 . S
C1748 C1751 1.511 . S
C1749 C1745 1.376 . S
C1749 C1748 1.392 . S
C1749 H1761 0.929 . S
C1750 C1746 1.531 . S
C1750 H1762 0.960 . S
C1750 H1763 0.962 . S
C1750 H1764 0.960 . S
C1751 C1748 1.511 . S
C1751 H1765 0.961 . S
C1751 H1766 0.961 . S
C1751 H1767 0.961 . S
C1752 C1753 1.370 . S
C1752 C1754 1.363 . S
C1752 H1768 0.931 . S
C1753 C1752 1.370 . S
C1753 C1757 1.408 . S
C1754 C1752 1.363 . S
C1754 C1755 1.370 . S
C1754 C1758 1.524 . S
C1755 C1747 1.503 . S
C1755 C1754 1.370 . S
C1755 C1756 1.403 . S
C1756 C1755 1.403 . S
C1756 C1757 1.404 . S
C1756 C1759 1.539 . S
C1757 C1753 1.408 . S
C1757 C1756 1.404 . S
C1757 H1769 0.930 . S
C1758 C1754 1.524 . S
C1758 H1770 0.956 . S
C1758 H1771 0.961 . S
C1758 H1772 0.961 . S
C1759 C1756 1.539 . S
C1759 H1773 0.958 . S
C1759 H1774 0.961 . S
C1759 H1775 0.960 . S
H1760 C1744 0.931 . S
H1761 C1749 0.929 . S
H1762 C1750 0.960 . S
H1763 C1750 0.962 . S
H1764 C1750 0.960 . S
H1765 C1751 0.961 . S
H1766 C1751 0.961 . S
H1767 C1751 0.961 . S
H1768 C1752 0.931 . S
H1769 C1757 0.930 . S
H1770 C1758 0.956 . S
H1771 C1758 0.961 . S
H1772 C1758 0.961 . S
H1773 C1759 0.958 . S
H1774 C1759 0.961 . S
H1775 C1759 0.960 . S
C1776 C1777 1.391 . S
C1776 C1778 1.394 . S
C1776 H1792 0.931 . S
C1777 C1776 1.391 . S
C1777 C1781 1.376 . S
C1778 C1776 1.394 . S
C1778 C1779 1.369 . S
C1778 C1782 1.531 . S
C1779 C1778 1.369 . S
C1779 C1780 1.410 . S
C1779 C1787 1.503 . S
C1780 C1779 1.410 . S
C1780 C1781 1.392 . S
C1780 C1783 1.511 . S
C1781 C1777 1.376 . S
C1781 C1780 1.392 . S
C1781 H1793 0.929 . S
C1782 C1778 1.531 . S
C1782 H1794 0.960 . S
C1782 H1795 0.962 . S
C1782 H1796 0.960 . S
C1783 C1780 1.511 . S
C1783 H1797 0.961 . S
C1783 H1798 0.961 . S
C1783 H1799 0.961 . S
C1784 C1785 1.370 . S
C1784 C1786 1.363 . S
C1784 H1800 0.931 . S
C1785 C1784 1.370 . S
C1785 C1789 1.408 . S
C1786 C1784 1.363 . S
C1786 C1787 1.370 . S
C1786 C1790 1.524 . S
C1787 C1779 1.503 . S
C1787 C1786 1.370 . S
C1787 C1788 1.403 . S
C1788 C1787 1.403 . S
C1788 C1789 1.404 . S
C1788 C1791 1.539 . S
C1789 C1785 1.408 . S
C1789 C1788 1.404 . S
C1789 H1801 0.930 . S
C1790 C1786 1.524 . S
C1790 H1802 0.956 . S
C1790 H1803 0.961 . S
C1790 H1804 0.961 . S
C1791 C1788 1.539 . S
C1791 H1805 0.958 . S
C1791 H1806 0.961 . S
C1791 H1807 0.960 . S
H1792 C1776 0.931 . S
H1793 C1781 0.929 . S
H1794 C1782 0.960 . S
H1795 C1782 0.962 . S
H1796 C1782 0.960 . S
H1797 C1783 0.961 . S
H1798 C1783 0.961 . S
H1799 C1783 0.961 . S
H1800 C1784 0.931 . S
H1801 C1789 0.930 . S
H1802 C1790 0.956 . S
H1803 C1790 0.961 . S
H1804 C1790 0.961 . S
H1805 C1791 0.958 . S
H1806 C1791 0.961 . S
H1807 C1791 0.960 . S
C529 C21 1.336 . S
C537 C87 1.333 . S
C561 C120 1.336 . S
C569 C54 1.332 . S
C593 C219 1.321 . S
C601 C153 1.324 . S
C625 C186 1.318 . S
C633 C252 1.324 . S
C657 C351 1.312 . S
C665 C285 1.323 . S
C689 C318 1.329 . S
C697 C384 1.326 . S
C721 C483 1.336 . S
C729 C417 1.331 . S
C753 C450 1.336 . S
C761 C516 1.331 . S
C785 C7 1.462 . S
C793 C337 1.478 . S
C817 C370 1.480 . S
C825 C40 1.484 . S
C849 C271 1.464 . S
C857 C73 1.479 . S
C881 C304 1.488 . S
C889 C106 1.490 . S
C913 C469 1.499 . S
C921 C139 1.492 . S
C945 C502 1.473 . S
C953 C172 1.481 . S
C977 C403 1.478 . S
C985 C205 1.486 . S
C1009 C436 1.493 . S
C1017 C238 1.492 . S
C1041 C18 1.308 . S
C1049 C249 1.297 . S
C1073 C51 1.269 . S
C1081 C150 1.292 . S
C1105 C183 1.287 . S
C1113 C84 1.298 . S
C1137 C216 1.305 . S
C1145 C117 1.298 . S
C1169 C282 1.306 . S
C1177 C513 1.291 . S
C1201 C315 1.262 . S
C1209 C414 1.284 . S
C1233 C348 1.273 . S
C1241 C447 1.291 . S
C1265 C381 1.271 . S
C1273 C480 1.278 . S
C1297 N464 1.241 . S
C1305 N13 1.266 . S
C1329 N46 1.237 . S
C1337 N497 1.271 . S
C1361 N398 1.233 . S
C1369 N79 1.271 . S
C1393 N431 1.261 . S
C1401 N112 1.257 . S
C1425 N332 1.234 . S
C1433 N145 1.271 . S
C1457 N178 1.251 . S
C1465 N365 1.264 . S
C1489 N266 1.246 . S
C1497 N211 1.264 . S
C1521 N244 1.240 . S
C1529 N299 1.268 . S
C1553 N200 1.258 . S
C1561 N277 1.255 . S
C1585 N233 1.248 . S
C1593 N310 1.269 . S
C1617 N134 1.248 . S
C1625 N343 1.259 . S
C1649 N376 1.229 . S
C1657 N167 1.270 . S
C1681 N68 1.233 . S
C1689 N409 1.270 . S
C1713 N442 1.230 . S
C1721 N101 1.274 . S
C1745 N475 1.284 . S
C1753 N2 1.253 . S
C1777 N35 1.239 . S
C1785 N508 1.264 . S
