# Generated by pormake.
# Topology ncb, (9)-cn, num edge types: 1
# Building blocks:
#     Node 0, Type 0, BuildingBlock: BELTOD_clean_sbu_0, # of connection points: 9
#     Node 1, Type 0, BuildingBlock: BELTOD_clean_sbu_0, # of connection points: 9
#     Node 2, Type 0, BuildingBlock: BELTOD_clean_sbu_0, # of connection points: 9
#     Node 3, Type 0, BuildingBlock: BELTOD_clean_sbu_0, # of connection points: 9
#     Node 4, Type 0, BuildingBlock: BELTOD_clean_sbu_0, # of connection points: 9
#     Node 5, Type 0, BuildingBlock: BELTOD_clean_sbu_0, # of connection points: 9
#     Node 6, Type 0, BuildingBlock: BELTOD_clean_sbu_0, # of connection points: 9
#     Node 7, Type 0, BuildingBlock: BELTOD_clean_sbu_0, # of connection points: 9
#     Edge 8, Type (0, 0), BuildingBlock: MIFKUJ_clean_linker_0, # of connection points: 2
#     Edge 9, Type (0, 0), BuildingBlock: MIFKUJ_clean_linker_0, # of connection points: 2
#     Edge 10, Type (0, 0), BuildingBlock: MIFKUJ_clean_linker_0, # of connection points: 2
#     Edge 11, Type (0, 0), BuildingBlock: MIFKUJ_clean_linker_0, # of connection points: 2
#     Edge 12, Type (0, 0), BuildingBlock: MIFKUJ_clean_linker_0, # of connection points: 2
#     Edge 13, Type (0, 0), BuildingBlock: MIFKUJ_clean_linker_0, # of connection points: 2
#     Edge 14, Type (0, 0), BuildingBlock: MIFKUJ_clean_linker_0, # of connection points: 2
#     Edge 15, Type (0, 0), BuildingBlock: MIFKUJ_clean_linker_0, # of connection points: 2
#     Edge 16, Type (0, 0), BuildingBlock: MIFKUJ_clean_linker_0, # of connection points: 2
#     Edge 17, Type (0, 0), BuildingBlock: MIFKUJ_clean_linker_0, # of connection points: 2
#     Edge 18, Type (0, 0), BuildingBlock: MIFKUJ_clean_linker_0, # of connection points: 2
#     Edge 19, Type (0, 0), BuildingBlock: MIFKUJ_clean_linker_0, # of connection points: 2
#     Edge 20, Type (0, 0), BuildingBlock: MIFKUJ_clean_linker_0, # of connection points: 2
#     Edge 21, Type (0, 0), BuildingBlock: MIFKUJ_clean_linker_0, # of connection points: 2
#     Edge 22, Type (0, 0), BuildingBlock: MIFKUJ_clean_linker_0, # of connection points: 2
#     Edge 23, Type (0, 0), BuildingBlock: MIFKUJ_clean_linker_0, # of connection points: 2
#     Edge 24, Type (0, 0), BuildingBlock: MIFKUJ_clean_linker_0, # of connection points: 2
#     Edge 25, Type (0, 0), BuildingBlock: MIFKUJ_clean_linker_0, # of connection points: 2
#     Edge 26, Type (0, 0), BuildingBlock: MIFKUJ_clean_linker_0, # of connection points: 2
#     Edge 27, Type (0, 0), BuildingBlock: MIFKUJ_clean_linker_0, # of connection points: 2
#     Edge 28, Type (0, 0), BuildingBlock: MIFKUJ_clean_linker_0, # of connection points: 2
#     Edge 29, Type (0, 0), BuildingBlock: MIFKUJ_clean_linker_0, # of connection points: 2
#     Edge 30, Type (0, 0), BuildingBlock: MIFKUJ_clean_linker_0, # of connection points: 2
#     Edge 31, Type (0, 0), BuildingBlock: MIFKUJ_clean_linker_0, # of connection points: 2
#     Edge 32, Type (0, 0), BuildingBlock: MIFKUJ_clean_linker_0, # of connection points: 2
#     Edge 33, Type (0, 0), BuildingBlock: MIFKUJ_clean_linker_0, # of connection points: 2
#     Edge 34, Type (0, 0), BuildingBlock: MIFKUJ_clean_linker_0, # of connection points: 2
#     Edge 35, Type (0, 0), BuildingBlock: MIFKUJ_clean_linker_0, # of connection points: 2
#     Edge 36, Type (0, 0), BuildingBlock: MIFKUJ_clean_linker_0, # of connection points: 2
#     Edge 37, Type (0, 0), BuildingBlock: MIFKUJ_clean_linker_0, # of connection points: 2
#     Edge 38, Type (0, 0), BuildingBlock: MIFKUJ_clean_linker_0, # of connection points: 2
#     Edge 39, Type (0, 0), BuildingBlock: MIFKUJ_clean_linker_0, # of connection points: 2
#     Edge 40, Type (0, 0), BuildingBlock: MIFKUJ_clean_linker_0, # of connection points: 2
#     Edge 41, Type (0, 0), BuildingBlock: MIFKUJ_clean_linker_0, # of connection points: 2
#     Edge 42, Type (0, 0), BuildingBlock: MIFKUJ_clean_linker_0, # of connection points: 2
#     Edge 43, Type (0, 0), BuildingBlock: MIFKUJ_clean_linker_0, # of connection points: 2
# Relax obj value: 0.206
# Max RMSD: 0.273
# Mean RMSD: 0.267
data_MOF--net-ncb--node1-BELTOD_clean_sbu_0--edge1-MIFKUJ_clean_linker_0
_symmetry_space_group_name_H-M    P1
_symmetry_Int_Tables_number       1
_symmetry_cell_setting            triclinic
loop_
_symmetry_equiv_pos_as_xyz
'x, y, z'
_cell_length_a     39.232147
_cell_length_b     39.591795
_cell_length_c     39.561861
_cell_angle_alpha  91.213085
_cell_angle_beta   90.199728
_cell_angle_gamma 90.649833
loop_
_atom_site_label
_atom_site_type_symbol
_atom_site_fract_x
_atom_site_fract_y
_atom_site_fract_z
_atom_type_partial_charge
Mn0 Mn 0.24684 0.25203 0.23931 0.0
Mn1 Mn 0.20084 0.20057 0.1892 0.0
O2 O 0.16384 0.23309 0.16796 0.0
O3 O 0.16437 0.22513 0.11207 0.0
Mn4 Mn 0.18417 0.18374 0.11571 0.0
C5 C 0.24412 0.17399 0.24385 0.0
O6 O 0.24521 0.20362 0.25968 0.0
O7 O 0.23448 0.17058 0.21302 0.0
P8 P 0.293 0.30029 0.30067 0.0
C9 C 0.15324 0.14329 0.16441 0.0
C10 C 0.236 0.17228 0.11791 0.0
O11 O 0.19638 0.26224 0.24807 0.0
O12 O 0.17936 0.21103 0.23505 0.0
O13 O 0.25805 0.27528 0.28673 0.0
C14 C 0.23997 0.2671 0.18246 0.0
O15 O 0.16669 0.16177 0.18744 0.0
O16 O 0.15773 0.14829 0.13288 0.0
C17 C 0.17211 0.24036 0.24552 0.0
O18 O 0.22022 0.17349 0.0891 0.0
O19 O 0.2196 0.18601 0.14323 0.0
C20 C 0.15372 0.24073 0.13811 0.0
O21 O 0.23677 0.23734 0.19444 0.0
O22 O 0.24803 0.28954 0.20602 0.0
Mn23 Mn 0.23444 0.80712 0.81401 0.0
Mn24 Mn 0.18209 0.85134 0.86554 0.0
O25 O 0.15529 0.88513 0.83318 0.0
O26 O 0.10034 0.87244 0.83724 0.0
Mn27 Mn 0.11214 0.86649 0.88101 0.0
C28 C 0.24025 0.81054 0.89196 0.0
O29 O 0.25567 0.80912 0.8625 0.0
O30 O 0.20956 0.82049 0.89526 0.0
P31 P 0.29533 0.76375 0.7626 0.0
C32 C 0.16036 0.90661 0.91397 0.0
C33 C 0.11851 0.82317 0.90755 0.0
O34 O 0.24257 0.85753 0.80419 0.0
O35 O 0.22568 0.87749 0.85356 0.0
O36 O 0.28217 0.79569 0.7915 0.0
C37 C 0.17731 0.81222 0.7978 0.0
O38 O 0.18124 0.88425 0.90513 0.0
O39 O 0.12999 0.90574 0.90291 0.0
C40 C 0.23738 0.88294 0.82436 0.0
O41 O 0.09109 0.84099 0.91105 0.0
O42 O 0.1375 0.82849 0.88086 0.0
C43 C 0.12423 0.8878 0.82249 0.0
O44 O 0.18901 0.81615 0.82804 0.0
O45 O 0.20114 0.80475 0.77589 0.0
Mn46 Mn 0.79872 0.81536 0.23613 0.0
Mn47 Mn 0.84222 0.861 0.17749 0.0
O48 O 0.8709 0.82641 0.14789 0.0
O49 O 0.85441 0.82938 0.09396 0.0
Mn50 Mn 0.83988 0.87294 0.10072 0.0
C51 C 0.80511 0.89354 0.23822 0.0
O52 O 0.80091 0.8653 0.25488 0.0
O53 O 0.81689 0.89384 0.20803 0.0
P54 P 0.75584 0.76725 0.29837 0.0
C55 C 0.88859 0.90987 0.13853 0.0
C56 C 0.79359 0.89359 0.12031 0.0
O57 O 0.84969 0.80682 0.24397 0.0
O58 O 0.87366 0.84967 0.21675 0.0
O59 O 0.78893 0.79429 0.28431 0.0
C60 C 0.80122 0.79627 0.1797 0.0
O61 O 0.8776 0.89709 0.16583 0.0
O62 O 0.87609 0.90315 0.10926 0.0
C63 C 0.87612 0.8248 0.23628 0.0
O64 O 0.79911 0.89122 0.08818 0.0
O65 O 0.81416 0.87494 0.13745 0.0
C66 C 0.87292 0.81661 0.1167 0.0
O67 O 0.80641 0.82665 0.19045 0.0
O68 O 0.79508 0.77549 0.20428 0.0
Mn69 Mn 0.80597 0.23833 0.81383 0.0
Mn70 Mn 0.85534 0.18981 0.86434 0.0
O71 O 0.82108 0.16502 0.89711 0.0
O72 O 0.82512 0.11032 0.88915 0.0
Mn73 Mn 0.87021 0.11877 0.88011 0.0
C74 C 0.88375 0.24605 0.82156 0.0
O75 O 0.85406 0.2603 0.81741 0.0
O76 O 0.88733 0.21709 0.83482 0.0
P77 P 0.75375 0.29771 0.76878 0.0
C78 C 0.90435 0.16682 0.92034 0.0
C79 C 0.88979 0.11835 0.8312 0.0
O80 O 0.79238 0.24904 0.86279 0.0
O81 O 0.83989 0.23361 0.88818 0.0
O82 O 0.78448 0.28522 0.79887 0.0
C83 C 0.79038 0.18137 0.82029 0.0
O84 O 0.89193 0.18938 0.90156 0.0
O85 O 0.89709 0.13545 0.91639 0.0
C86 C 0.81052 0.24646 0.88977 0.0
O87 O 0.88884 0.09128 0.84905 0.0
O88 O 0.87617 0.14574 0.84452 0.0
C89 C 0.81027 0.13501 0.90279 0.0
O90 O 0.82023 0.19417 0.82603 0.0
O91 O 0.76845 0.20398 0.81062 0.0
Mn92 Mn 0.75085 0.7509 0.73817 0.0
Mn93 Mn 0.70418 0.69428 0.69513 0.0
O94 O 0.66686 0.72486 0.67089 0.0
O95 O 0.67418 0.71645 0.61617 0.0
Mn96 Mn 0.67985 0.67382 0.6308 0.0
C97 C 0.74934 0.67436 0.75041 0.0
O98 O 0.74963 0.70514 0.76363 0.0
O99 O 0.73911 0.6679 0.72036 0.0
P100 P 0.79668 0.80141 0.7981 0.0
C101 C 0.64562 0.64648 0.68416 0.0
C102 C 0.72458 0.6463 0.63326 0.0
O103 O 0.70081 0.76211 0.74491 0.0
O104 O 0.68305 0.70991 0.74015 0.0
O105 O 0.76042 0.77937 0.7829 0.0
C106 C 0.74357 0.76062 0.68048 0.0
O107 O 0.67178 0.65449 0.70105 0.0
O108 O 0.64211 0.65667 0.65431 0.0
C109 C 0.67657 0.74045 0.74672 0.0
O110 O 0.70109 0.63933 0.61097 0.0
O111 O 0.72193 0.67493 0.65014 0.0
C112 C 0.66162 0.73376 0.64011 0.0
O113 O 0.74053 0.73177 0.69485 0.0
O114 O 0.75172 0.78501 0.70197 0.0
Mn115 Mn 0.72937 0.31375 0.31626 0.0
Mn116 Mn 0.67806 0.36181 0.36618 0.0
O117 O 0.65307 0.39482 0.33241 0.0
O118 O 0.597 0.38881 0.34014 0.0
Mn119 Mn 0.60335 0.37523 0.38372 0.0
C120 C 0.73395 0.31815 0.39411 0.0
O121 O 0.75009 0.3154 0.36506 0.0
O122 O 0.70446 0.33147 0.3969 0.0
P123 P 0.78895 0.26546 0.26792 0.0
C124 C 0.652 0.41333 0.42004 0.0
C125 C 0.61018 0.32465 0.39922 0.0
O126 O 0.73914 0.36364 0.3053 0.0
O127 O 0.72283 0.3851 0.35413 0.0
O128 O 0.77669 0.30064 0.29333 0.0
C129 C 0.67229 0.31992 0.30017 0.0
O130 O 0.67533 0.39768 0.40403 0.0
O131 O 0.62022 0.40812 0.41467 0.0
C132 C 0.73461 0.38958 0.3249 0.0
O133 O 0.58051 0.33865 0.39999 0.0
O134 O 0.63343 0.34203 0.38357 0.0
C135 C 0.622 0.40079 0.32393 0.0
O136 O 0.68424 0.3245 0.33028 0.0
O137 O 0.69585 0.31157 0.27829 0.0
Mn138 Mn 0.30182 0.31012 0.73658 0.0
Mn139 Mn 0.3484 0.35651 0.68091 0.0
O140 O 0.37868 0.32108 0.65402 0.0
O141 O 0.36351 0.32077 0.60026 0.0
Mn142 Mn 0.35258 0.36546 0.60544 0.0
C143 C 0.31127 0.38787 0.74112 0.0
O144 O 0.30663 0.35903 0.75654 0.0
O145 O 0.3223 0.38983 0.7107 0.0
P146 P 0.2593 0.262 0.80016 0.0
C147 C 0.39928 0.40299 0.64461 0.0
C148 C 0.30461 0.3867 0.61522 0.0
O149 O 0.35166 0.29879 0.74368 0.0
O150 O 0.37744 0.34381 0.72209 0.0
O151 O 0.29196 0.28857 0.78454 0.0
C152 C 0.30458 0.29247 0.68007 0.0
O153 O 0.38528 0.39223 0.67154 0.0
O154 O 0.38989 0.39399 0.61479 0.0
C155 C 0.37861 0.31668 0.73856 0.0
O156 O 0.31547 0.38206 0.58458 0.0
O157 O 0.32315 0.37315 0.63885 0.0
C158 C 0.3814 0.30907 0.62379 0.0
O159 O 0.31062 0.32258 0.69148 0.0
O160 O 0.29694 0.27131 0.70395 0.0
Mn161 Mn 0.30347 0.73636 0.31236 0.0
Mn162 Mn 0.35415 0.68547 0.35984 0.0
O163 O 0.32038 0.65478 0.3887 0.0
O164 O 0.34063 0.60254 0.38683 0.0
Mn165 Mn 0.38185 0.61742 0.37103 0.0
C166 C 0.381 0.74598 0.32067 0.0
O167 O 0.35108 0.75927 0.31519 0.0
O168 O 0.38506 0.71722 0.33411 0.0
P169 P 0.25522 0.79797 0.26676 0.0
C170 C 0.41025 0.66596 0.41226 0.0
C171 C 0.39399 0.61989 0.32023 0.0
O172 O 0.29117 0.74611 0.36206 0.0
O173 O 0.33647 0.72518 0.38724 0.0
O174 O 0.27921 0.78266 0.30105 0.0
C175 C 0.289 0.67915 0.31723 0.0
O176 O 0.38951 0.68559 0.39807 0.0
O177 O 0.41217 0.635 0.40346 0.0
C178 C 0.30872 0.74082 0.38895 0.0
O179 O 0.39911 0.59274 0.33723 0.0
O180 O 0.37852 0.64522 0.33569 0.0
C181 C 0.3181 0.62328 0.39603 0.0
O182 O 0.31915 0.69177 0.32185 0.0
O183 O 0.26633 0.70183 0.30966 0.0
H184 H 0.21147 0.31682 0.14121 0.0
H185 H 0.2156 0.32147 0.07941 0.0
H186 H 0.2777 0.23235 0.07538 0.0
H187 H 0.27533 0.22936 0.13678 0.0
H188 H 0.30424 0.26939 0.03426 0.0
H189 H 0.16898 0.24154 1.00992 0.0
H190 H 0.10907 0.25859 1.00349 0.0
H191 H 0.1382 0.36256 1.01953 0.0
H192 H 0.19837 0.34616 1.02447 0.0
H193 H 0.30127 0.23194 0.85532 0.0
H194 H 0.29921 0.23469 0.91672 0.0
H195 H 0.22791 0.31659 0.91169 0.0
H196 H 0.22668 0.31072 0.85058 0.0
H197 H 0.20681 0.28649 0.95729 0.0
H198 H 0.32405 0.31626 0.94254 0.0
H199 H 0.3831 0.30997 0.92225 0.0
H200 H 0.39144 0.21638 0.97439 0.0
H201 H 0.33233 0.22193 0.9947 0.0
C202 C 0.22611 0.29833 0.1271 0.0
C203 C 0.24254 0.27226 0.14445 0.0
C204 C 0.22794 0.30053 0.09118 0.0
C205 C 0.24628 0.27675 0.07116 0.0
C206 C 0.26311 0.25124 0.08902 0.0
C207 C 0.26146 0.24925 0.12459 0.0
C208 C 0.2502 0.27863 0.03245 0.0
C209 C 0.28257 0.27288 1.01767 0.0
C210 C 0.22308 0.28446 1.00929 0.0
C211 C 0.18796 0.29248 1.01919 0.0
C212 C 0.16237 0.26786 1.01353 0.0
C213 C 0.12854 0.27752 1.00901 0.0
C214 C 0.11996 0.3117 1.01076 0.0
C215 C 0.14493 0.33614 1.01813 0.0
C216 C 0.17889 0.32666 1.02184 0.0
C217 C 0.28449 0.25014 0.86714 0.0
C218 C 0.26246 0.2695 0.84703 0.0
C219 C 0.28394 0.25231 0.9029 0.0
C220 C 0.26329 0.2759 0.92034 0.0
C221 C 0.24348 0.29725 0.89999 0.0
C222 C 0.24287 0.29398 0.8643 0.0
C223 C 0.26055 0.27737 0.95915 0.0
C224 C 0.22853 0.28314 0.97384 0.0
C225 C 0.2882 0.27279 0.98203 0.0
C226 C 0.3237 0.2694 0.96991 0.0
C227 C 0.33843 0.29426 0.94952 0.0
C228 C 0.37191 0.29083 0.93804 0.0
C229 C 0.39097 0.26278 0.94699 0.0
C230 C 0.37663 0.23809 0.96747 0.0
C231 C 0.34316 0.24138 0.97901 0.0
H232 H 0.41689 0.26023 0.93816 0.0
H233 H 0.09384 0.31923 1.00688 0.0
H234 H 0.26014 0.75016 0.92126 0.0
H235 H 0.27108 0.74093 0.98164 0.0
H236 H 0.26298 0.84779 1.00191 0.0
H237 H 0.2542 0.85704 0.94159 0.0
H238 H 0.31264 0.82309 0.04008 0.0
H239 H 0.18072 0.78214 0.05635 0.0
H240 H 0.13315 0.74427 0.03854 0.0
H241 H 0.20433 0.66978 1.0042 0.0
H242 H 0.25213 0.70578 1.02478 0.0
H243 H 0.27304 0.84692 0.21256 0.0
H244 H 0.27735 0.84275 0.15221 0.0
H245 H 0.27011 0.73434 0.15633 0.0
H246 H 0.26459 0.73856 0.21848 0.0
H247 H 0.23318 0.75193 0.10563 0.0
H248 H 0.34762 0.78318 0.13239 0.0
H249 H 0.39415 0.81605 0.15987 0.0
H250 H 0.36053 0.90576 0.11122 0.0
H251 H 0.3135 0.87353 0.08378 0.0
C252 C 0.26199 0.77183 0.93837 0.0
C253 C 0.25739 0.80458 0.92576 0.0
C254 C 0.26695 0.7664 0.97354 0.0
C255 C 0.2664 0.79336 0.99771 0.0
C256 C 0.26321 0.82612 0.98473 0.0
C257 C 0.25866 0.83153 0.94977 0.0
C258 C 0.27007 0.78852 0.03605 0.0
C259 C 0.29509 0.80746 0.05419 0.0
C260 C 0.24811 0.76767 0.0556 0.0
C261 C 0.22003 0.74742 0.04026 0.0
C262 C 0.1862 0.75796 0.04436 0.0
C263 C 0.15919 0.73668 0.0342 0.0
C264 C 0.16572 0.70522 1.01914 0.0
C265 C 0.1993 0.69448 1.01518 0.0
C266 C 0.22636 0.71518 1.02635 0.0
C267 C 0.27361 0.82179 0.20159 0.0
C268 C 0.26971 0.79294 0.22186 0.0
C269 C 0.27602 0.8195 0.16607 0.0
C270 C 0.27493 0.7882 0.14849 0.0
C271 C 0.27146 0.75906 0.16852 0.0
C272 C 0.26888 0.76139 0.20446 0.0
C273 C 0.27558 0.7867 0.10961 0.0
C274 C 0.25112 0.76711 0.09151 0.0
C275 C 0.29845 0.80651 0.09003 0.0
C276 C 0.3269 0.82595 0.10619 0.0
C277 C 0.35004 0.80995 0.12768 0.0
C278 C 0.37651 0.82847 0.14324 0.0
C279 C 0.38026 0.86298 0.13733 0.0
C280 C 0.35759 0.87903 0.11577 0.0
C281 C 0.33105 0.86063 0.10017 0.0
H282 H 0.40075 0.87728 0.14943 0.0
H283 H 0.14476 0.6889 1.01113 0.0
H284 H 0.84819 0.81135 0.85373 0.0
H285 H 0.84628 0.80441 0.91533 0.0
H286 H 0.74073 0.77472 0.90801 0.0
H287 H 0.7428 0.7802 0.84634 0.0
H288 H 0.7616 0.83084 0.95825 0.0
H289 H 0.78741 0.71548 0.92579 0.0
H290 H 0.82248 0.67276 0.89643 0.0
H291 H 0.9101 0.70534 0.9543 0.0
H292 H 0.87563 0.74846 0.98379 0.0
H293 H 0.75614 0.82711 0.13893 0.0
H294 H 0.7494 0.82358 0.07923 0.0
H295 H 0.82843 0.7481 0.07417 0.0
H296 H 0.83161 0.74963 0.13514 0.0
H297 H 0.81825 0.74167 1.02243 0.0
H298 H 0.80248 0.87503 1.01552 0.0
H299 H 0.77369 0.92911 1.02731 0.0
H300 H 0.67807 0.87656 0.03745 0.0
H301 H 0.70628 0.8223 1.02452 0.0
C302 C 0.82482 0.80233 0.86497 0.0
C303 C 0.79608 0.79496 0.84442 0.0
C304 C 0.82375 0.79853 0.90041 0.0
C305 C 0.79361 0.78832 0.91668 0.0
C306 C 0.76456 0.78203 0.89635 0.0
C307 C 0.76582 0.78512 0.86085 0.0
C308 C 0.79174 0.78653 0.95489 0.0
C309 C 0.77393 0.81139 0.97273 0.0
C310 C 0.8085 0.76186 0.97392 0.0
C311 C 0.82898 0.73535 0.95681 0.0
C312 C 0.81419 0.71365 0.93212 0.0
C313 C 0.83396 0.68933 0.9155 0.0
C314 C 0.86851 0.68636 0.92347 0.0
C315 C 0.88333 0.70761 0.94819 0.0
C316 C 0.86367 0.73196 0.96491 0.0
C317 C 0.7718 0.80938 0.12489 0.0
C318 C 0.79483 0.78912 0.14237 0.0
C319 C 0.76868 0.80792 0.08933 0.0
C320 C 0.78956 0.78715 0.06854 0.0
C321 C 0.81135 0.76518 0.08691 0.0
C322 C 0.81346 0.76578 0.12286 0.0
C323 C 0.78906 0.78791 0.0289 0.0
C324 C 0.80625 0.76229 1.00984 0.0
C325 C 0.77303 0.81329 1.00857 0.0
C326 C 0.75688 0.84445 1.02145 0.0
C327 C 0.77546 0.87498 1.02116 0.0
C328 C 0.75915 0.90572 0.02742 0.0
C329 C 0.72418 0.90622 0.03385 0.0
C330 C 0.70529 0.87607 0.03317 0.0
C331 C 0.72138 0.84536 1.02619 0.0
H332 H 0.71166 0.93001 0.0389 0.0
H333 H 0.88379 0.66756 0.91052 0.0
H334 H 0.79275 0.20027 0.93648 0.0
H335 H 0.78687 0.20704 0.99661 0.0
H336 H 0.78942 0.31528 0.9867 0.0
H337 H 0.80042 0.30775 0.92551 0.0
H338 H 0.82 0.30491 0.0408 0.0
H339 H 0.71023 0.2553 1.00785 0.0
H340 H 0.67399 0.2122 0.97888 0.0
H341 H 0.72091 0.13429 0.03623 0.0
H342 H 0.75746 0.17687 0.06541 0.0
H343 H 0.78175 0.32257 0.21931 0.0
H344 H 0.77954 0.32459 0.15712 0.0
H345 H 0.77839 0.21571 0.15171 0.0
H346 H 0.77938 0.21391 0.21285 0.0
H347 H 0.7417 0.23117 0.10476 0.0
H348 H 0.85349 0.27486 0.13351 0.0
H349 H 0.89757 0.31306 0.15793 0.0
H350 H 0.85265 0.39712 0.10822 0.0
H351 H 0.80833 0.35935 0.08339 0.0
C352 C 0.79214 0.22558 0.94662 0.0
C353 C 0.79696 0.2532 0.9252 0.0
C354 C 0.78784 0.22962 0.98174 0.0
C355 C 0.78612 0.26181 0.99748 0.0
C356 C 0.7901 0.2899 0.97601 0.0
C357 C 0.79581 0.28567 0.94059 0.0
C358 C 0.78184 0.26563 0.03601 0.0
C359 C 0.80221 0.28919 0.0545 0.0
C360 C 0.75968 0.24462 0.05521 0.0
C361 C 0.73658 0.21928 0.03875 0.0
C362 C 0.7127 0.22899 1.01433 0.0
C363 C 0.69216 0.20464 0.99785 0.0
C364 C 0.69517 0.17053 1.00569 0.0
C365 C 0.71856 0.16071 0.03022 0.0
C366 C 0.73909 0.18495 0.04682 0.0
C367 C 0.77996 0.29909 0.20485 0.0
C368 C 0.77935 0.26812 0.22187 0.0
C369 C 0.77942 0.30017 0.1689 0.0
C370 C 0.77922 0.27025 0.14853 0.0
C371 C 0.77815 0.23945 0.16582 0.0
C372 C 0.77832 0.23843 0.20145 0.0
C373 C 0.78015 0.27023 0.10966 0.0
C374 C 0.75914 0.24729 0.09109 0.0
C375 C 0.80208 0.29141 0.0905 0.0
C376 C 0.82739 0.31439 0.10697 0.0
C377 C 0.85277 0.30157 0.12816 0.0
C378 C 0.87787 0.32312 0.14196 0.0
C379 C 0.87785 0.35752 0.13473 0.0
C380 C 0.85261 0.37048 0.11383 0.0
C381 C 0.82754 0.34902 0.09984 0.0
H382 H 0.8975 0.37413 0.14512 0.0
H383 H 0.67938 0.15171 0.99277 0.0
H384 H 0.84264 0.30752 0.30479 0.0
H385 H 0.90539 0.30771 0.30454 0.0
H386 H 0.90408 0.22777 0.22901 0.0
H387 H 0.84185 0.22745 0.22931 0.0
H388 H 0.94948 0.21381 0.27757 0.0
H389 H 0.92309 0.31293 0.21421 0.0
H390 H 0.89788 0.36907 0.20683 0.0
H391 H 0.96194 0.41032 0.28592 0.0
H392 H 0.98652 0.35413 0.29479 0.0
H393 H 0.11804 0.20223 0.2241 0.0
H394 H 0.05771 0.21085 0.22995 0.0
H395 H 0.07719 0.30288 0.28725 0.0
H396 H 0.13922 0.2952 0.27918 0.0
H397 H 0.02268 0.31356 0.25479 0.0
H398 H 0.04777 0.21922 0.32187 0.0
H399 H 0.07127 0.16392 0.33665 0.0
H400 H 1.00936 0.11527 0.25984 0.0
H401 H 0.98608 0.17035 0.24404 0.0
C402 C 0.85561 0.29021 0.28782 0.0
C403 C 0.83651 0.26778 0.26673 0.0
C404 C 0.89182 0.29034 0.28766 0.0
C405 C 0.91031 0.26789 0.26654 0.0
C406 C 0.89112 0.24552 0.24558 0.0
C407 C 0.85512 0.24559 0.24553 0.0
C408 C 0.94927 0.26667 0.26656 0.0
C409 C 0.96533 0.23565 0.27218 0.0
C410 C 0.9708 0.29527 0.26116 0.0
C411 C 0.95638 0.32917 0.2554 0.0
C412 C 0.93159 0.33389 0.23022 0.0
C413 C 0.91743 0.36573 0.22574 0.0
C414 C 0.92838 0.39325 0.24578 0.0
C415 C 0.95346 0.38897 0.27042 0.0
C416 C 0.96742 0.35709 0.27526 0.0
C417 C 0.11001 0.22422 0.2385 0.0
C418 C 0.13445 0.24756 0.25162 0.0
C419 C 0.07478 0.22907 0.24209 0.0
C420 C 0.06165 0.25687 0.26036 0.0
C421 C 0.08588 0.28081 0.27329 0.0
C422 C 0.12167 0.27635 0.26883 0.0
C423 C 0.02299 0.26037 0.26511 0.0
C424 C 1.00695 0.29172 0.26038 0.0
C425 C 1.00131 0.23223 0.2723 0.0
C426 C 1.01533 0.199 0.28164 0.0
C427 C 0.03935 0.19676 0.30796 0.0
C428 C 0.05266 0.16545 0.3165 0.0
C429 C 0.04189 0.13612 0.29914 0.0
C430 C 1.01774 0.13802 0.27323 0.0
C431 C 1.00449 0.16929 0.26445 0.0
H432 H 0.05221 0.11191 0.30584 0.0
H433 H 0.91742 0.4179 0.24221 0.0
H434 H 0.21112 0.93907 0.85596 0.0
H435 H 0.21801 0.99868 0.84408 0.0
H436 H 0.28374 0.97386 0.76047 0.0
H437 H 0.27618 0.913 0.77198 0.0
H438 H 0.3106 1.02815 0.78977 0.0
H439 H 0.20342 1.0102 0.74637 0.0
H440 H 0.14428 1.00859 0.72535 0.0
H441 H 0.11329 0.07286 0.80809 0.0
H442 H 0.17181 0.07331 0.83078 0.0
H443 H 0.296 0.21263 0.75143 0.0
H444 H 0.29848 0.14997 0.74857 0.0
H445 H 0.23872 0.14522 0.83952 0.0
H446 H 0.23476 0.206 0.84125 0.0
H447 H 0.21238 0.10523 0.79512 0.0
H448 H 0.33183 0.12457 0.8288 0.0
H449 H 0.38946 0.14702 0.81715 0.0
H450 H 0.39327 0.0876 0.7252 0.0
H451 H 0.33555 0.0651 0.73612 0.0
C452 C 0.22713 0.9458 0.83484 0.0
C453 C 0.24318 0.92016 0.81521 0.0
C454 C 0.23084 0.98053 0.82784 0.0
C455 C 0.25128 0.99194 0.80106 0.0
C456 C 0.26771 0.96654 0.78136 0.0
C457 C 0.26337 0.93135 0.78796 0.0
C458 C 0.25593 0.03009 0.79517 0.0
C459 C 0.2888 0.0447 0.79091 0.0
C460 C 0.2281 0.05296 0.79557 0.0
C461 C 0.19222 0.04191 0.7902 0.0
C462 C 0.18378 1.02265 0.76104 0.0
C463 C 0.1504 1.02233 0.74856 0.0
C464 C 0.12539 0.04141 0.76484 0.0
C465 C 0.13293 0.0587 0.79511 0.0
C466 C 0.16602 0.05836 0.80819 0.0
C467 C 0.28385 0.19817 0.77102 0.0
C468 C 0.26603 0.21516 0.79719 0.0
C469 C 0.28542 0.16205 0.76953 0.0
C470 C 0.26919 0.14186 0.79418 0.0
C471 C 0.25184 0.15924 0.82016 0.0
C472 C 0.24998 0.19463 0.82139 0.0
C473 C 0.26655 0.10311 0.79246 0.0
C474 C 0.23401 0.0884 0.79514 0.0
C475 C 0.29432 0.08048 0.78901 0.0
C476 C 0.32933 0.09331 0.78319 0.0
C477 C 0.34494 0.11638 0.80606 0.0
C478 C 0.37761 0.12911 0.79958 0.0
C479 C 0.39499 0.11878 0.77043 0.0
C480 C 0.37979 0.09558 0.74777 0.0
C481 C 0.34714 0.08279 0.75412 0.0
H482 H 0.42024 0.12873 0.76542 0.0
H483 H 0.10017 0.04274 0.75401 0.0
H484 H 0.20346 0.78543 0.3213 0.0
H485 H 0.14053 0.78435 0.32117 0.0
H486 H 0.14055 0.79171 0.21272 0.0
H487 H 0.20233 0.79232 0.2128 0.0
H488 H 0.09465 0.82913 0.3043 0.0
H489 H 0.06797 0.7631 0.17599 0.0
H490 H 0.09349 0.72 0.13826 0.0
H491 H 0.14 0.67337 0.22362 0.0
H492 H 0.11444 0.71597 0.26192 0.0
H493 H 0.9299 0.86903 0.24174 0.0
H494 H 0.98998 0.85824 0.25076 0.0
H495 H 0.96735 0.75284 0.26513 0.0
H496 H 0.90617 0.76356 0.25521 0.0
H497 H 0.0234 0.75841 0.22621 0.0
H498 H 0.99287 0.81089 0.33283 0.0
H499 H 0.96793 0.85535 0.36936 0.0
H500 H 0.03597 0.92902 0.3274 0.0
H501 H 0.06104 0.88509 0.29036 0.0
C502 C 0.19005 0.78548 0.29734 0.0
C503 C 0.20875 0.78751 0.26702 0.0
C504 C 0.15378 0.7854 0.29725 0.0
C505 C 0.1348 0.78736 0.26683 0.0
C506 C 0.15365 0.78909 0.23664 0.0
C507 C 0.18964 0.7892 0.23674 0.0
C508 C 0.09578 0.78934 0.26647 0.0
C509 C 0.07927 0.81341 0.28728 0.0
C510 C 0.0747 0.76917 0.24439 0.0
C511 C 0.08945 0.74286 0.22178 0.0
C512 C 0.08346 0.74351 0.18673 0.0
C513 C 0.09798 0.71921 0.16524 0.0
C514 C 0.11841 0.694 0.17853 0.0
C515 C 0.12424 0.69296 0.21336 0.0
C516 C 0.10976 0.71719 0.23497 0.0
C517 C 0.93725 0.84345 0.24737 0.0
C518 C 0.91229 0.81733 0.24806 0.0
C519 C 0.97215 0.83731 0.25268 0.0
C520 C 0.98415 0.8047 0.25923 0.0
C521 C 0.95936 0.77839 0.26036 0.0
C522 C 0.92404 0.7846 0.25508 0.0
C523 C 0.02239 0.79851 0.26371 0.0
C524 C 0.03876 0.77384 0.24351 0.0
C525 C 0.04342 0.81837 0.28609 0.0
C526 C 0.02871 0.8447 0.30872 0.0
C527 C 1.00241 0.83659 0.33131 0.0
C528 C 0.98826 0.8617 0.35212 0.0
C529 C 1.00033 0.89499 0.35068 0.0
C530 C 0.02665 0.90322 0.32851 0.0
C531 C 0.04088 0.87821 0.30765 0.0
H532 H 0.98931 0.91439 0.36678 0.0
H533 H 0.1297 0.67525 0.16184 0.0
H534 H 0.84408 0.85905 0.811 0.0
H535 H 0.83877 0.92005 0.81199 0.0
H536 H 0.73162 0.90977 0.78894 0.0
H537 H 0.73788 0.84785 0.78484 0.0
H538 H 0.75011 0.96441 0.76113 0.0
H539 H 0.76867 0.92899 0.87255 0.0
H540 H 0.79554 0.90019 0.92022 0.0
H541 H 0.88723 0.95856 0.90686 0.0
H542 H 0.8611 0.98739 0.85872 0.0
H543 H 0.73417 0.14032 0.83752 0.0
H544 H 0.72957 0.07785 0.83294 0.0
H545 H 0.83026 0.07393 0.79065 0.0
H546 H 0.83402 0.13574 0.79323 0.0
H547 H 0.80938 1.02728 0.85418 0.0
H548 H 0.78657 0.05769 0.73752 0.0
H549 H 0.75443 0.08731 0.69365 0.0
H550 H 0.662 0.03808 0.72481 0.0
H551 H 0.69358 1.00858 0.76927 0.0
C552 C 0.8195 0.86952 0.80499 0.0
C553 C 0.79177 0.84799 0.79648 0.0
C554 C 0.81623 0.90492 0.8064 0.0
C555 C 0.78452 0.92061 0.80145 0.0
C556 C 0.75655 0.89909 0.79295 0.0
C557 C 0.7601 0.8634 0.7906 0.0
C558 C 0.78095 0.95899 0.80588 0.0
C559 C 0.76261 0.97776 0.78201 0.0
C560 C 0.79693 0.97759 0.83298 0.0
C561 C 0.81301 0.96014 0.86174 0.0
C562 C 0.79469 0.93547 0.87954 0.0
C563 C 0.80975 0.91919 0.9067 0.0
C564 C 0.8431 0.92748 0.9165 0.0
C565 C 0.86141 0.95213 0.89919 0.0
C566 C 0.84648 0.96847 0.87196 0.0
C567 C 0.75524 0.12616 0.82706 0.0
C568 C 0.78513 0.14336 0.81694 0.0
C569 C 0.75265 0.09027 0.82451 0.0
C570 C 0.77984 0.07061 0.81177 0.0
C571 C 0.80914 0.088 0.80107 0.0
C572 C 0.81145 0.12354 0.80308 0.0
C573 C 0.77858 0.03215 0.80977 0.0
C574 C 0.79631 1.01351 0.83393 0.0
C575 C 0.76126 1.01369 0.78364 0.0
C576 C 0.74232 0.03138 0.75703 0.0
C577 C 0.75932 0.05354 0.73531 0.0
C578 C 0.74123 0.07021 0.71026 0.0
C579 C 0.70616 0.0647 0.70654 0.0
C580 C 0.68914 0.04241 0.72779 0.0
C581 C 0.70712 1.02571 0.75291 0.0
H582 H 0.6922 0.07761 0.68712 0.0
H583 H 0.85472 0.91486 0.93755 0.0
H584 H 0.84718 0.7487 0.81676 0.0
H585 H 0.90944 0.74758 0.81223 0.0
H586 H 0.90647 0.83114 0.74425 0.0
H587 H 0.84419 0.83109 0.74759 0.0
H588 H 0.95788 0.7981 0.72679 0.0
H589 H 0.92615 0.83823 0.8384 0.0
H590 H 0.89875 0.83598 0.89434 0.0
H591 H 0.95097 0.74392 0.91514 0.0
H592 H 0.97906 0.74591 0.85945 0.0
H593 H 0.1363 0.84234 0.74941 0.0
H594 H 0.07421 0.83924 0.74406 0.0
H595 H 0.0705 0.76768 0.82495 0.0
H596 H 0.13186 0.7738 0.83221 0.0
H597 H 0.02089 0.79707 0.83537 0.0
H598 H 0.05307 0.75777 0.72037 0.0
H599 H 0.08165 0.76488 0.66538 0.0
H600 H 0.02836 0.85766 0.65094 0.0
H601 H 0.99965 0.85114 0.70585 0.0
C602 C 0.85964 0.76622 0.80003 0.0
C603 C 0.84025 0.79067 0.78337 0.0
C604 C 0.89567 0.7661 0.79799 0.0
C605 C 0.91374 0.79045 0.77922 0.0
C606 C 0.894 0.81241 0.75964 0.0
C607 C 0.85797 0.81225 0.7614 0.0
C608 C 0.95269 0.79376 0.78064 0.0
C609 C 0.97153 0.79787 0.75067 0.0
C610 C 0.97156 0.79351 0.81142 0.0
C611 C 0.9544 0.79205 0.84467 0.0
C612 C 0.93166 0.81744 0.85486 0.0
C613 C 0.9161 0.81626 0.88656 0.0
C614 C 0.92291 0.78968 0.9082 0.0
C615 C 0.9456 0.76441 0.89831 0.0
C616 C 0.96148 0.76565 0.86676 0.0
C617 C 0.12216 0.82576 0.76582 0.0
C618 C 0.13942 0.80838 0.79127 0.0
C619 C 0.08614 0.82354 0.76257 0.0
C620 C 0.06604 0.80257 0.78357 0.0
C621 C 0.08399 0.78455 0.80834 0.0
C622 C 0.11962 0.7878 0.81239 0.0
C623 C 0.02684 0.79987 0.78125 0.0
C624 C 1.00768 0.79641 0.81126 0.0
C625 C 1.00774 0.80071 0.75046 0.0
C626 C 0.02442 0.80404 0.71721 0.0
C627 C 0.04748 0.77964 0.70541 0.0
C628 C 0.0637 0.7836 0.6743 0.0
C629 C 0.05686 0.81173 0.65472 0.0
C630 C 0.03364 0.83589 0.66611 0.0
C631 C 1.01734 0.83204 0.69717 0.0
H632 H 0.06953 0.81479 0.63069 0.0
H633 H 0.91072 0.78874 0.93267 0.0
H634 H 0.77594 0.91769 0.30081 0.0
H635 H 0.76357 0.97731 0.31716 0.0
H636 H 0.8034 1.01023 0.22209 0.0
H637 H 0.81693 0.95326 0.20659 0.0
H638 H 0.80492 0.0384 0.32338 0.0
H639 H 0.74006 0.07788 0.19277 0.0
H640 H 0.70451 0.05028 0.14889 0.0
H641 H 0.67923 0.9706 0.21649 0.0
H642 H 0.71347 0.99827 0.26137 0.0
H643 H 0.83032 0.21298 0.30256 0.0
H644 H 0.82583 0.15233 0.30396 0.0
H645 H 0.72143 0.15702 0.26991 0.0
H646 H 0.72784 0.21845 0.26393 0.0
H647 H 0.738 0.10646 0.24376 0.0
H648 H 0.75707 0.12911 0.3579 0.0
H649 H 0.78216 0.15394 0.41011 0.0
H650 H 0.87748 0.10627 0.38778 0.0
H651 H 0.85311 0.0815 0.33519 0.0
C652 C 0.78228 0.93759 0.28349 0.0
C653 C 0.7972 0.92931 0.25191 0.0
C654 C 0.77516 0.97197 0.29287 0.0
C655 C 0.78199 0.99903 0.27069 0.0
C656 C 0.79714 0.9906 0.23973 0.0
C657 C 0.8048 0.95707 0.23082 0.0
C658 C 0.77393 0.03614 0.2786 0.0
C659 C 0.79027 0.05317 0.30585 0.0
C660 C 0.75318 0.0559 0.25702 0.0
C661 C 0.73101 0.0396 0.23033 0.0
C662 C 0.72703 0.05449 0.19856 0.0
C663 C 0.70685 0.03887 0.17341 0.0
C664 C 0.69006 1.00842 0.17969 0.0
C665 C 0.69276 0.99392 0.21141 0.0
C666 C 0.7127 1.00957 0.23673 0.0
C667 C 0.80619 0.20156 0.29525 0.0
C668 C 0.77972 0.22153 0.28232 0.0
C669 C 0.80334 0.16602 0.29679 0.0
C670 C 0.77304 0.14841 0.28759 0.0
C671 C 0.74553 0.16874 0.27699 0.0
C672 C 0.74888 0.20445 0.27422 0.0
C673 C 0.77115 0.10934 0.28705 0.0
C674 C 0.7528 0.09183 0.26117 0.0
C675 C 0.7884 0.08886 0.3109 0.0
C676 C 0.8033 0.10363 0.34247 0.0
C677 C 0.78344 0.12407 0.36402 0.0
C678 C 0.79753 0.13813 0.39369 0.0
C679 C 0.83141 0.13174 0.40222 0.0
C680 C 0.85124 0.11121 0.38113 0.0
C681 C 0.83729 0.09711 0.3514 0.0
H682 H 0.84227 0.14265 0.4252 0.0
H683 H 0.6747 0.99624 0.16009 0.0
H684 H 0.92393 0.29237 0.85685 0.0
H685 H 0.98522 0.30323 0.84877 0.0
H686 H 0.98283 0.24053 0.75839 0.0
H687 H 0.92176 0.23056 0.76616 0.0
H688 H 0.03745 0.26388 0.85121 0.0
H689 H 0.04821 0.25469 0.70636 0.0
H690 H 1.0143 0.26767 0.65572 0.0
H691 H 0.96322 0.34656 0.71101 0.0
H692 H 0.99706 0.33426 0.76188 0.0
H693 H 0.2006 0.21569 0.78251 0.0
H694 H 0.13943 0.22204 0.78486 0.0
H695 H 0.15181 0.32989 0.79389 0.0
H696 H 0.21448 0.32361 0.79322 0.0
H697 H 0.09318 0.29183 0.74282 0.0
H698 H 0.13211 0.31145 0.85868 0.0
H699 H 0.16492 0.29803 0.9098 0.0
H700 H 0.11628 0.20046 0.91278 0.0
H701 H 0.08324 0.21328 0.86149 0.0
C702 C 0.93608 0.28241 0.83427 0.0
C703 C 0.91707 0.26205 0.81118 0.0
C704 C 0.97157 0.28803 0.82997 0.0
C705 C 0.98951 0.27326 0.80255 0.0
C706 C 0.97025 0.25335 0.77923 0.0
C707 C 0.93488 0.24785 0.7835 0.0
C708 C 0.02826 0.27691 0.79938 0.0
C709 C 0.04932 0.27035 0.82746 0.0
C710 C 0.04486 0.28517 0.76858 0.0
C711 C 0.02504 0.29341 0.73795 0.0
C712 C 0.02991 0.27496 0.70763 0.0
C713 C 1.01064 0.28214 0.67892 0.0
C714 C 0.98658 0.30788 0.68017 0.0
C715 C 0.98181 0.32657 0.71011 0.0
C716 C 1.001 0.31948 0.73889 0.0
C717 C 0.19107 0.24101 0.78528 0.0
C718 C 0.21361 0.26904 0.78903 0.0
C719 C 0.1554 0.24453 0.78638 0.0
C720 C 0.14036 0.27634 0.79035 0.0
C721 C 0.16242 0.30485 0.79126 0.0
C722 C 0.19848 0.30125 0.79066 0.0
C723 C 0.10193 0.2789 0.79457 0.0
C724 C 0.08108 0.28596 0.76661 0.0
C725 C 0.08548 0.27111 0.82542 0.0
C726 C 0.10554 0.26318 0.85601 0.0
C727 C 0.12871 0.28698 0.86999 0.0
C728 C 0.14728 0.27952 0.89907 0.0
C729 C 0.14289 0.24832 0.91442 0.0
C730 C 0.11975 0.22458 0.90081 0.0
C731 C 0.10104 0.23196 0.87178 0.0
H732 H 0.1573 0.24259 0.93692 0.0
H733 H 0.97165 0.31336 0.65794 0.0
H734 H 0.31162 0.84869 0.27672 0.0
H735 H 0.31393 0.91081 0.28091 0.0
H736 H 0.20412 0.913 0.28119 0.0
H737 H 0.20179 0.85227 0.27503 0.0
H738 H 0.2218 0.95495 0.24066 0.0
H739 H 0.26479 0.93752 0.35255 0.0
H740 H 0.3043 0.91558 0.39522 0.0
H741 H 0.38754 0.96899 0.34962 0.0
H742 H 0.3486 0.9909 0.30639 0.0
H743 H 0.19409 0.13038 0.26297 0.0
H744 H 0.19841 0.06974 0.27262 0.0
H745 H 0.30784 0.07762 0.2674 0.0
H746 H 0.30332 0.13873 0.25775 0.0
H747 H 0.29439 0.03094 0.31183 0.0
H748 H 0.25663 1.01931 0.18997 0.0
H749 H 0.22099 1.01324 0.13882 0.0
H750 H 0.1314 1.006 0.20013 0.0
H751 H 0.16663 1.01086 0.25162 0.0
C752 C 0.28795 0.86244 0.27812 0.0
C753 C 0.2566 0.84458 0.27537 0.0
C754 C 0.28927 0.89828 0.28077 0.0
C755 C 0.25919 0.91765 0.2816 0.0
C756 C 0.22798 0.89952 0.28037 0.0
C757 C 0.22668 0.86401 0.277 0.0
C758 C 0.25926 0.95633 0.28022 0.0
C759 C 0.23723 0.97129 0.2571 0.0
C760 C 0.28042 0.97865 0.30004 0.0
C761 C 0.30382 0.96559 0.32603 0.0
C762 C 0.29157 0.94438 0.35147 0.0
C763 C 0.31385 0.93198 0.37578 0.0
C764 C 0.34843 0.94081 0.37508 0.0
C765 C 0.36076 0.96214 0.35011 0.0
C766 C 0.33859 0.97458 0.32571 0.0
C767 C 0.21923 0.11957 0.26522 0.0
C768 C 0.24836 0.14037 0.26101 0.0
C769 C 0.2217 0.08431 0.26987 0.0
C770 C 0.25348 0.06791 0.27012 0.0
C771 C 0.28281 0.08887 0.26739 0.0
C772 C 0.28028 0.12428 0.26243 0.0
C773 C 0.25582 0.02935 0.27286 0.0
C774 C 0.27854 1.01446 0.296 0.0
C775 C 0.23536 1.0066 0.25305 0.0
C776 C 0.21408 1.01697 0.22454 0.0
C777 C 0.22914 1.01834 0.19246 0.0
C778 C 0.20905 1.01453 0.16341 0.0
C779 C 0.17381 1.01035 0.16614 0.0
C780 C 0.15855 1.01017 0.19799 0.0
C781 C 0.17853 1.01351 0.22713 0.0
H782 H 0.15845 1.00658 0.14359 0.0
H783 H 0.36564 0.93119 0.39393 0.0
H784 H 0.76501 0.82264 0.35035 0.0
H785 H 0.76265 0.82496 0.41217 0.0
H786 H 0.75933 0.71621 0.41345 0.0
H787 H 0.75814 0.71392 0.35269 0.0
H788 H 0.72335 0.72859 0.45792 0.0
H789 H 0.83267 0.77975 0.4422 0.0
H790 H 0.87513 0.82005 0.42022 0.0
H791 H 0.82117 0.90258 0.46647 0.0
H792 H 0.77816 0.86278 0.48843 0.0
H793 H 0.768 0.71489 0.63388 0.0
H794 H 0.76985 0.71766 0.57225 0.0
H795 H 0.728 0.81757 0.57734 0.0
H796 H 0.72491 0.8143 0.63961 0.0
H797 H 0.78519 0.81156 0.53155 0.0
H798 H 0.66946 0.75228 0.53074 0.0
H799 H 0.63026 0.70755 0.54932 0.0
H800 H 0.70822 0.63347 0.53408 0.0
H801 H 0.74785 0.67813 0.51506 0.0
C802 C 0.76407 0.79914 0.36384 0.0
C803 C 0.76125 0.76824 0.34545 0.0
C804 C 0.76302 0.80041 0.39971 0.0
C805 C 0.76116 0.77064 0.41892 0.0
C806 C 0.76022 0.73982 0.40034 0.0
C807 C 0.75984 0.73858 0.36468 0.0
C808 C 0.75863 0.7709 0.45776 0.0
C809 C 0.73774 0.74658 0.47348 0.0
C810 C 0.77628 0.79434 0.4797 0.0
C811 C 0.80203 0.81834 0.46664 0.0
C812 C 0.82977 0.80652 0.44751 0.0
C813 C 0.85393 0.82926 0.43508 0.0
C814 C 0.85079 0.86386 0.44186 0.0
C815 C 0.82353 0.87578 0.46119 0.0
C816 C 0.79927 0.85315 0.47366 0.0
C817 C 0.75782 0.73698 0.62203 0.0
C818 C 0.74484 0.76369 0.64221 0.0
C819 C 0.75927 0.73869 0.58643 0.0
C820 C 0.74836 0.76746 0.56929 0.0
C821 C 0.73635 0.79478 0.5894 0.0
C822 C 0.73458 0.79293 0.62523 0.0
C823 C 0.75069 0.76901 0.5308 0.0
C824 C 0.77135 0.79364 0.5154 0.0
C825 C 0.73424 0.74498 0.50902 0.0
C826 C 0.71161 0.71849 0.52231 0.0
C827 C 0.67828 0.7265 0.53187 0.0
C828 C 0.65591 0.70109 0.54215 0.0
C829 C 0.66669 0.66759 0.54314 0.0
C830 C 0.6999 0.65943 0.53348 0.0
C831 C 0.7223 0.68477 0.52288 0.0
H832 H 0.64932 0.64797 0.55129 0.0
H833 H 0.86952 0.88143 0.43221 0.0
H834 H 0.71642 0.32437 0.712 0.0
H835 H 0.72212 0.32304 0.65069 0.0
H836 H 0.81363 0.26489 0.65945 0.0
H837 H 0.80759 0.2658 0.72201 0.0
H838 H 0.80049 0.33772 0.60822 0.0
H839 H 0.76824 0.21791 0.63366 0.0
H840 H 0.72968 0.17926 0.66387 0.0
H841 H 0.64295 0.22574 0.61842 0.0
H842 H 0.68097 0.26511 0.58851 0.0
H843 H 0.79894 0.32477 0.42576 0.0
H844 H 0.81164 0.3159 0.48608 0.0
H845 H 0.70832 0.28053 0.50059 0.0
H846 H 0.69747 0.28551 0.44098 0.0
H847 H 0.73461 0.25134 0.54246 0.0
H848 H 0.74925 0.36904 0.52364 0.0
H849 H 0.77251 0.42136 0.49938 0.0
H850 H 0.87249 0.3968 0.5351 0.0
H851 H 0.8499 0.34416 0.5593 0.0
C852 C 0.73791 0.3112 0.70113 0.0
C853 C 0.76133 0.29495 0.72242 0.0
C854 C 0.74115 0.31059 0.66575 0.0
C855 C 0.7683 0.294 0.64982 0.0
C856 C 0.79238 0.27806 0.67083 0.0
C857 C 0.7889 0.27842 0.70672 0.0
C858 C 0.76987 0.29261 0.61136 0.0
C859 C 0.78686 0.31831 0.59369 0.0
C860 C 0.75005 0.26907 0.59204 0.0
C861 C 0.72745 0.24445 0.60895 0.0
C862 C 0.74095 0.21996 0.63025 0.0
C863 C 0.71918 0.19797 0.64734 0.0
C864 C 0.68389 0.20011 0.64313 0.0
C865 C 0.67028 0.22415 0.6217 0.0
C866 C 0.69193 0.24626 0.60464 0.0
C867 C 0.7795 0.31377 0.44161 0.0
C868 C 0.7471 0.30577 0.42783 0.0
C869 C 0.78639 0.30953 0.47673 0.0
C870 C 0.7608 0.29833 0.49951 0.0
C871 C 0.72915 0.28902 0.48493 0.0
C872 C 0.72277 0.29212 0.45018 0.0
C873 C 0.76573 0.29655 0.53813 0.0
C874 C 0.74922 0.27055 0.55623 0.0
C875 C 0.78419 0.32125 0.55791 0.0
C876 C 0.798 0.35244 0.54282 0.0
C877 C 0.77626 0.37466 0.52605 0.0
C878 C 0.78929 0.4044 0.51238 0.0
C879 C 0.82396 0.41233 0.5156 0.0
C880 C 0.84566 0.39057 0.53254 0.0
C881 C 0.83277 0.36079 0.54624 0.0
H882 H 0.83399 0.43539 0.50505 0.0
H883 H 0.66709 0.18311 0.65642 0.0
H884 H 0.33096 0.33594 0.35667 0.0
H885 H 0.33168 0.33094 0.41834 0.0
H886 H 0.25429 0.25303 0.41095 0.0
H887 H 0.25367 0.2579 0.34924 0.0
H888 H 0.24012 0.29504 0.46301 0.0
H889 H 0.33903 0.23845 0.42309 0.0
H890 H 0.39426 0.23147 0.39461 0.0
H891 H 0.44083 0.30232 0.46476 0.0
H892 H 0.38547 0.31137 0.49244 0.0
H893 H 0.32907 0.24084 0.63705 0.0
H894 H 0.32466 0.23755 0.57468 0.0
H895 H 0.26461 0.32812 0.57631 0.0
H896 H 0.2674 0.33001 0.63776 0.0
H897 H 0.34672 0.27387 0.52622 0.0
H898 H 0.21826 0.34037 0.50871 0.0
H899 H 0.16293 0.34605 0.53757 0.0
H900 H 0.17612 0.24935 0.58269 0.0
H901 H 0.23141 0.24295 0.55383 0.0
C902 C 0.31385 0.3179 0.36809 0.0
C903 C 0.29211 0.29749 0.3475 0.0
C904 C 0.31447 0.31485 0.40362 0.0
C905 C 0.29324 0.29134 0.41999 0.0
C906 C 0.27103 0.27142 0.39946 0.0
C907 C 0.27068 0.27423 0.36387 0.0
C908 C 0.29408 0.28742 0.45822 0.0
C909 C 0.26359 0.29051 0.47668 0.0
C910 C 0.32444 0.28098 0.47675 0.0
C911 C 0.35775 0.27604 0.45956 0.0
C912 C 0.36082 0.25313 0.43206 0.0
C913 C 0.3922 0.24882 0.41599 0.0
C914 C 0.42099 0.26662 0.4277 0.0
C915 C 0.41844 0.28878 0.4555 0.0
C916 C 0.38699 0.29369 0.47124 0.0
C917 C 0.31422 0.25948 0.62405 0.0
C918 C 0.29908 0.2861 0.64262 0.0
C919 C 0.31196 0.25787 0.58815 0.0
C920 C 0.29406 0.2825 0.56982 0.0
C921 C 0.27806 0.30821 0.58887 0.0
C922 C 0.28013 0.30963 0.62439 0.0
C923 C 0.29297 0.28242 0.53116 0.0
C924 C 0.32335 0.27854 0.51257 0.0
C925 C 0.26258 0.28814 0.5124 0.0
C926 C 0.22903 0.29128 0.52924 0.0
C927 C 0.20924 0.32022 0.52461 0.0
C928 C 0.17793 0.3236 0.54102 0.0
C929 C 0.16604 0.2981 0.56199 0.0
C930 C 0.1854 0.26911 0.5665 0.0
C931 C 0.21674 0.2656 0.55014 0.0
H932 H 0.14182 0.30078 0.57472 0.0
H933 H 0.4453 0.26314 0.41533 0.0
H934 H 0.32455 0.70653 0.44503 0.0
H935 H 0.31283 0.71855 0.50402 0.0
H936 H 0.2577 0.80741 0.47688 0.0
H937 H 0.26898 0.79488 0.4161 0.0
H938 H 0.31128 0.81295 0.53773 0.0
H939 H 0.2123 0.74886 0.49951 0.0
H940 H 0.18468 0.70056 0.46956 0.0
H941 H 0.23364 0.63208 0.53644 0.0
H942 H 0.26243 0.6796 0.56587 0.0
H943 H 0.27737 0.82186 0.71785 0.0
H944 H 0.27057 0.82595 0.65607 0.0
H945 H 0.28121 0.71793 0.64588 0.0
H946 H 0.28555 0.7138 0.70643 0.0
H947 H 0.24143 0.73093 0.60125 0.0
H948 H 0.34808 0.78605 0.63072 0.0
H949 H 0.38445 0.82882 0.65986 0.0
H950 H 0.33015 0.90801 0.61121 0.0
H951 H 0.29313 0.86567 0.58213 0.0
C952 C 0.30958 0.72864 0.45106 0.0
C953 C 0.29763 0.74949 0.42495 0.0
C954 C 0.30305 0.73558 0.48532 0.0
C955 C 0.28452 0.76403 0.49562 0.0
C956 C 0.2723 0.7853 0.46994 0.0
C957 C 0.27845 0.77794 0.435 0.0
C958 C 0.27768 0.76981 0.53316 0.0
C959 C 0.2953 0.7955 0.55151 0.0
C960 C 0.25806 0.74644 0.55193 0.0
C961 C 0.23976 0.71787 0.53477 0.0
C962 C 0.21739 0.72345 0.50763 0.0
C963 C 0.20154 0.69616 0.49068 0.0
C964 C 0.20751 0.6632 0.50093 0.0
C965 C 0.22902 0.65752 0.52838 0.0
C966 C 0.24521 0.68463 0.54515 0.0
C967 C 0.27709 0.79893 0.70246 0.0
C968 C 0.28133 0.76745 0.71791 0.0
C969 C 0.27392 0.80127 0.66675 0.0
C970 C 0.276 0.7723 0.64515 0.0
C971 C 0.27925 0.74095 0.66099 0.0
C972 C 0.28174 0.73859 0.69635 0.0
C973 C 0.27564 0.77371 0.60643 0.0
C974 C 0.2569 0.74901 0.58772 0.0
C975 C 0.29509 0.79736 0.58754 0.0
C976 C 0.31762 0.82275 0.60456 0.0
C977 C 0.34382 0.8126 0.62636 0.0
C978 C 0.36453 0.83676 0.64287 0.0
C979 C 0.35956 0.87112 0.63745 0.0
C980 C 0.33393 0.88139 0.61543 0.0
C981 C 0.31307 0.85733 0.59893 0.0
H982 H 0.3756 0.8898 0.65027 0.0
H983 H 0.1955 0.6421 0.48758 0.0
H984 H 0.34701 0.77659 0.70709 0.0
H985 H 0.40894 0.77738 0.70585 0.0
H986 H 0.41206 0.76539 0.81376 0.0
H987 H 0.34939 0.76537 0.81527 0.0
H988 H 0.4639 0.80519 0.79746 0.0
H989 H 0.42856 0.69528 0.75689 0.0
H990 H 0.39329 0.65635 0.72161 0.0
H991 H 0.43284 0.70124 0.63182 0.0
H992 H 0.4691 0.73991 0.66659 0.0
H993 H 0.62868 0.70813 0.78514 0.0
H994 H 0.56693 0.71759 0.78806 0.0
H995 H 0.57743 0.80033 0.71992 0.0
H996 H 0.63959 0.79191 0.71821 0.0
H997 H 0.5196 0.72594 0.71664 0.0
H998 H 0.55513 0.83862 0.76386 0.0
H999 H 0.58883 0.87378 0.80419 0.0
H1000 H 0.54583 0.81963 0.88705 0.0
H1001 H 0.51257 0.78354 0.84702 0.0
C1002 C 0.3604 0.77468 0.73085 0.0
C1003 C 0.34238 0.77106 0.76147 0.0
C1004 C 0.39642 0.77473 0.73 0.0
C1005 C 0.41607 0.77066 0.75958 0.0
C1006 C 0.39815 0.76847 0.79037 0.0
C1007 C 0.36204 0.76861 0.79126 0.0
C1008 C 0.45486 0.76766 0.75813 0.0
C1009 C 0.47582 0.7878 0.7797 0.0
C1010 C 0.47143 0.74491 0.73537 0.0
C1011 C 0.45139 0.72051 0.71429 0.0
C1012 C 0.4299 0.69666 0.7296 0.0
C1013 C 0.40981 0.67462 0.70971 0.0
C1014 C 0.41089 0.67629 0.67449 0.0
C1015 C 0.43228 0.69983 0.6591 0.0
C1016 C 0.45279 0.72165 0.67886 0.0
C1017 C 0.61805 0.72901 0.77151 0.0
C1018 C 0.63966 0.74988 0.75228 0.0
C1019 C 0.58249 0.73424 0.77298 0.0
C1020 C 0.56696 0.76001 0.75461 0.0
C1021 C 0.58842 0.78076 0.73509 0.0
C1022 C 0.62421 0.77608 0.7343 0.0
C1023 C 0.52846 0.76425 0.75519 0.0
C1024 C 0.50759 0.74377 0.73391 0.0
C1025 C 0.51199 0.78641 0.77846 0.0
C1026 C 0.53198 0.80796 0.80243 0.0
C1027 C 0.55336 0.83381 0.79062 0.0
C1028 C 0.57227 0.854 0.81343 0.0
C1029 C 0.56962 0.84882 0.84816 0.0
C1030 C 0.54799 0.8235 0.86013 0.0
C1031 C 0.52916 0.80314 0.83739 0.0
H1032 H 0.58421 0.86452 0.86579 0.0
H1033 H 0.39512 0.65938 0.65913 0.0
H1034 H 0.70421 0.71195 0.29636 0.0
H1035 H 0.70682 0.65062 0.29602 0.0
H1036 H 0.81528 0.65584 0.28136 0.0
H1037 H 0.81287 0.71834 0.2821 0.0
H1038 H 0.75979 0.5994 0.23839 0.0
H1039 H 0.81164 0.63701 0.34608 0.0
H1040 H 0.81507 0.66699 0.4013 0.0
H1041 H 0.71885 0.62372 0.42989 0.0
H1042 H 0.71457 0.59393 0.37459 0.0
H1043 H 0.77658 0.41886 0.27427 0.0
H1044 H 0.7859 0.47963 0.26376 0.0
H1045 H 0.71413 0.50464 0.34242 0.0
H1046 H 0.7063 0.44544 0.35382 0.0
H1047 H 0.75858 0.5468 0.35084 0.0
H1048 H 0.70218 0.51171 0.24775 0.0
H1049 H 0.69412 0.47848 0.19482 0.0
H1050 H 0.79015 0.51528 0.15799 0.0
H1051 H 0.79895 0.54846 0.2109 0.0
C1052 C 0.72863 0.70053 0.29148 0.0
C1053 C 0.75816 0.72104 0.28771 0.0
C1054 C 0.73011 0.6649 0.29195 0.0
C1055 C 0.76117 0.64779 0.28864 0.0
C1056 C 0.79077 0.66792 0.28379 0.0
C1057 C 0.78936 0.70391 0.28381 0.0
C1058 C 0.76217 0.60938 0.29199 0.0
C1059 C 0.76017 0.58793 0.26303 0.0
C1060 C 0.76123 0.59362 0.32391 0.0
C1061 C 0.76257 0.61364 0.35598 0.0
C1062 C 0.79089 0.63443 0.36384 0.0
C1063 C 0.79311 0.65117 0.39528 0.0
C1064 C 0.76725 0.64715 0.41912 0.0
C1065 C 0.73889 0.62676 0.41142 0.0
C1066 C 0.73654 0.60999 0.38003 0.0
C1067 C 0.76283 0.43732 0.2893 0.0
C1068 C 0.7409 0.42639 0.31526 0.0
C1069 C 0.76798 0.47248 0.28313 0.0
C1070 C 0.7508 0.49796 0.30215 0.0
C1071 C 0.72847 0.4866 0.3274 0.0
C1072 C 0.72386 0.45203 0.33388 0.0
C1073 C 0.75589 0.53622 0.29723 0.0
C1074 C 0.75857 0.55789 0.32601 0.0
C1075 C 0.75663 0.55206 0.26518 0.0
C1076 C 0.75141 0.53222 0.23341 0.0
C1077 C 0.72169 0.51252 0.22845 0.0
C1078 C 0.71697 0.49373 0.19845 0.0
C1079 C 0.74167 0.49468 0.17311 0.0
C1080 C 0.77108 0.51452 0.17768 0.0
C1081 C 0.77594 0.53333 0.20765 0.0
H1082 H 0.73797 0.48012 0.1499 0.0
H1083 H 0.76915 0.6599 0.44355 0.0
H1084 H 0.70572 0.25318 0.7287 0.0
H1085 H 0.64365 0.24979 0.72697 0.0
H1086 H 0.63889 0.30664 0.82089 0.0
H1087 H 0.70149 0.30897 0.82318 0.0
H1088 H 0.58614 0.26827 0.81943 0.0
H1089 H 0.63232 0.34041 0.73429 0.0
H1090 H 0.66673 0.35494 0.68462 0.0
H1091 H 0.61019 0.28308 0.62347 0.0
H1092 H 0.57615 0.26702 0.67307 0.0
H1093 H 0.41991 0.34098 0.79025 0.0
H1094 H 0.48082 0.32984 0.79944 0.0
H1095 H 0.47933 0.25873 0.71549 0.0
H1096 H 0.41821 0.26915 0.70708 0.0
H1097 H 0.53413 0.30275 0.71128 0.0
H1098 H 0.48845 0.23049 0.79445 0.0
H1099 H 0.45358 0.21426 0.84332 0.0
H1100 H 0.50764 0.28656 0.90636 0.0
H1101 H 0.54257 0.3036 0.85769 0.0
C1102 C 0.69169 0.2646 0.7494 0.0
C1103 C 0.70911 0.28283 0.77534 0.0
C1104 C 0.65573 0.26297 0.74815 0.0
C1105 C 0.63563 0.27965 0.77273 0.0
C1106 C 0.65311 0.29422 0.80088 0.0
C1107 C 0.68924 0.29529 0.80241 0.0
C1108 C 0.59701 0.28298 0.76845 0.0
C1109 C 0.57508 0.27629 0.79581 0.0
C1110 C 0.58142 0.2926 0.73747 0.0
C1111 C 0.60194 0.30218 0.7076 0.0
C1112 C 0.6274 0.32742 0.71037 0.0
C1113 C 0.64685 0.33594 0.6822 0.0
C1114 C 0.64072 0.3199 0.65095 0.0
C1115 C 0.61504 0.29531 0.64777 0.0
C1116 C 0.59572 0.2864 0.67592 0.0
C1117 C 0.43227 0.32208 0.77453 0.0
C1118 C 0.4136 0.30508 0.7487 0.0
C1119 C 0.46737 0.31588 0.77959 0.0
C1120 C 0.48532 0.29318 0.75836 0.0
C1121 C 0.46657 0.27619 0.73253 0.0
C1122 C 0.43132 0.28185 0.72796 0.0
C1123 C 0.52362 0.28825 0.76225 0.0
C1124 C 0.54538 0.29473 0.73484 0.0
C1125 C 0.53901 0.27844 0.79304 0.0
C1126 C 0.51789 0.26858 0.82232 0.0
C1127 C 0.49268 0.24319 0.81864 0.0
C1128 C 0.47295 0.23379 0.84632 0.0
C1129 C 0.47835 0.24942 0.8779 0.0
C1130 C 0.50347 0.27451 0.88186 0.0
C1131 C 0.52326 0.28404 0.85424 0.0
H1132 H 0.46317 0.24198 0.89933 0.0
H1133 H 0.65582 0.32658 0.62919 0.0
H1134 H 0.33325 0.63362 0.29238 0.0
H1135 H 0.33084 0.5724 0.29209 0.0
H1136 H 0.22695 0.57616 0.3271 0.0
H1137 H 0.23187 0.63841 0.33262 0.0
H1138 H 0.25089 0.52313 0.35207 0.0
H1139 H 0.25784 0.55784 0.23645 0.0
H1140 H 0.28186 0.58828 0.18806 0.0
H1141 H 0.37686 0.53698 0.20003 0.0
H1142 H 0.35355 0.50652 0.24868 0.0
H1143 H 0.23221 0.34528 0.30047 0.0
H1144 H 0.22583 0.40729 0.30255 0.0
H1145 H 0.33474 0.41943 0.29508 0.0
H1146 H 0.34115 0.35856 0.29442 0.0
H1147 H 0.30177 0.46346 0.25337 0.0
H1148 H 0.29501 0.42941 0.36885 0.0
H1149 H 0.2712 0.39822 0.41675 0.0
H1150 H 0.17516 0.44742 0.40395 0.0
H1151 H 0.19819 0.4784 0.35546 0.0
C1152 C 0.31051 0.62146 0.30172 0.0
C1153 C 0.28364 0.64127 0.31417 0.0
C1154 C 0.30847 0.58604 0.30013 0.0
C1155 C 0.27827 0.56853 0.30835 0.0
C1156 C 0.25071 0.58834 0.32027 0.0
C1157 C 0.25336 0.62419 0.32316 0.0
C1158 C 0.27604 0.53002 0.3043 0.0
C1159 C 0.26148 0.51037 0.33006 0.0
C1160 C 0.29016 0.5122 0.27599 0.0
C1161 C 0.30396 0.53001 0.24629 0.0
C1162 C 0.28386 0.5531 0.22878 0.0
C1163 C 0.29737 0.57037 0.20132 0.0
C1164 C 0.33087 0.56458 0.19099 0.0
C1165 C 0.35089 0.54139 0.208 0.0
C1166 C 0.33754 0.52408 0.23548 0.0
C1167 C 0.25471 0.36119 0.29843 0.0
C1168 C 0.28707 0.34628 0.29543 0.0
C1169 C 0.25109 0.39681 0.30002 0.0
C1170 C 0.2798 0.41866 0.29875 0.0
C1171 C 0.31199 0.40367 0.29556 0.0
C1172 C 0.31559 0.36834 0.29455 0.0
C1173 C 0.277 0.45692 0.30113 0.0
C1174 C 0.29077 0.47642 0.2751 0.0
C1175 C 0.26201 0.47442 0.32898 0.0
C1176 C 0.24819 0.4559 0.3582 0.0
C1177 C 0.2687 0.43333 0.376 0.0
C1178 C 0.25536 0.41572 0.40331 0.0
C1179 C 0.22165 0.42076 0.41334 0.0
C1180 C 0.20124 0.44348 0.39611 0.0
C1181 C 0.21442 0.46106 0.36869 0.0
H1182 H 0.21138 0.40714 0.43451 0.0
H1183 H 0.34129 0.57804 0.16979 0.0
H1184 H 0.34889 0.26347 0.33563 0.0
H1185 H 0.41064 0.26753 0.33064 0.0
H1186 H 0.39988 0.31586 0.23481 0.0
H1187 H 0.33735 0.31323 0.24047 0.0
H1188 H 0.45731 0.27214 0.23625 0.0
H1189 H 0.4104 0.36028 0.30249 0.0
H1190 H 0.37785 0.38839 0.34778 0.0
H1191 H 0.44551 0.34867 0.42211 0.0
H1192 H 0.47715 0.31823 0.37754 0.0
H1193 H 0.63237 0.33943 0.24487 0.0
H1194 H 0.56969 0.3346 0.23858 0.0
H1195 H 0.56346 0.2877 0.33564 0.0
H1196 H 0.62554 0.29066 0.34073 0.0
H1197 H 0.51401 0.33654 0.32992 0.0
H1198 H 0.55398 0.24148 0.26364 0.0
H1199 H 0.5872 0.21417 0.2181 0.0
H1200 H 0.53431 0.27196 0.14418 0.0
H1201 H 0.50108 0.29997 0.18939 0.0
C1202 C 0.35925 0.27468 0.31314 0.0
C1203 C 0.33744 0.28903 0.28896 0.0
C1204 C 0.39504 0.27702 0.31037 0.0
C1205 C 0.41062 0.29292 0.2828 0.0
C1206 C 0.38898 0.30381 0.25665 0.0
C1207 C 0.35296 0.30191 0.25969 0.0
C1208 C 0.44892 0.29999 0.28272 0.0
C1209 C 0.46947 0.28662 0.2566 0.0
C1210 C 0.46557 0.31878 0.30926 0.0
C1211 C 0.44584 0.33624 0.33647 0.0
C1212 C 0.41782 0.35658 0.32851 0.0
C1213 C 0.39946 0.37296 0.35413 0.0
C1214 C 0.40931 0.36991 0.38786 0.0
C1215 C 0.43755 0.3505 0.39602 0.0
C1216 C 0.45561 0.33352 0.37057 0.0
C1217 C 0.61762 0.32794 0.26474 0.0
C1218 C 0.63421 0.31661 0.29403 0.0
C1219 C 0.58158 0.32523 0.26121 0.0
C1220 C 0.56107 0.31114 0.28686 0.0
C1221 C 0.57795 0.29934 0.31565 0.0
C1222 C 0.61369 0.3015 0.31882 0.0
C1223 C 0.52236 0.30786 0.28404 0.0
C1224 C 0.50171 0.32209 0.30962 0.0
C1225 C 0.50561 0.29001 0.25709 0.0
C1226 C 0.52534 0.27308 0.2299 0.0
C1227 C 0.54963 0.24855 0.23769 0.0
C1228 C 0.56843 0.23291 0.21195 0.0
C1229 C 0.56295 0.2414 0.17827 0.0
C1230 C 0.53857 0.26546 0.17028 0.0
C1231 C 0.51974 0.28121 0.19595 0.0
H1232 H 0.57752 0.22926 0.15837 0.0
H1233 H 0.39524 0.38283 0.40765 0.0
H1234 H 0.25284 0.41855 0.76763 0.0
H1235 H 0.24496 0.47946 0.77925 0.0
H1236 H 0.35138 0.49747 0.75873 0.0
H1237 H 0.35926 0.43718 0.74846 0.0
H1238 H 0.33766 0.53923 0.80411 0.0
H1239 H 0.27924 0.51136 0.70074 0.0
H1240 H 0.23714 0.48257 0.6633 0.0
H1241 H 0.15546 0.52303 0.72293 0.0
H1242 H 0.197 0.55155 0.76117 0.0
H1243 H 0.34401 0.70728 0.75388 0.0
H1244 H 0.34096 0.64715 0.75763 0.0
H1245 H 0.23769 0.65322 0.79326 0.0
H1246 H 0.24042 0.71568 0.78902 0.0
H1247 H 0.24442 0.59974 0.74711 0.0
H1248 H 0.30822 0.6302 0.84905 0.0
H1249 H 0.35364 0.66163 0.88002 0.0
H1250 H 0.42905 0.61788 0.81453 0.0
H1251 H 0.384 0.58659 0.78296 0.0
C1252 C 0.27482 0.43532 0.767 0.0
C1253 C 0.30697 0.42228 0.75805 0.0
C1254 C 0.27018 0.47059 0.77288 0.0
C1255 C 0.2974 0.49419 0.76943 0.0
C1256 C 0.32967 0.48071 0.76188 0.0
C1257 C 0.33428 0.44576 0.75622 0.0
C1258 C 0.29292 0.53263 0.77283 0.0
C1259 C 0.31715 0.5521 0.79144 0.0
C1260 C 0.26621 0.55066 0.75686 0.0
C1261 C 0.24124 0.53321 0.73412 0.0
C1262 C 0.25231 0.51386 0.70608 0.0
C1263 C 0.22857 0.49764 0.68467 0.0
C1264 C 0.1937 0.50092 0.69077 0.0
C1265 C 0.18248 0.52044 0.71829 0.0
C1266 C 0.2061 0.53661 0.73987 0.0
C1267 C 0.32079 0.69686 0.76406 0.0
C1268 C 0.29304 0.71781 0.77302 0.0
C1269 C 0.31906 0.6615 0.76582 0.0
C1270 C 0.28955 0.64461 0.77674 0.0
C1271 C 0.26122 0.66507 0.78523 0.0
C1272 C 0.2629 0.70107 0.78327 0.0
C1273 C 0.28915 0.60594 0.77826 0.0
C1274 C 0.26435 0.58657 0.76034 0.0
C1275 C 0.31572 0.58787 0.79422 0.0
C1276 C 0.34282 0.60587 0.81386 0.0
C1277 C 0.33451 0.62724 0.84136 0.0
C1278 C 0.36016 0.64509 0.85895 0.0
C1279 C 0.39422 0.64169 0.84931 0.0
C1280 C 0.4027 0.62038 0.82209 0.0
C1281 C 0.37714 0.60247 0.80444 0.0
H1282 H 0.41402 0.65562 0.8629 0.0
H1283 H 0.17538 0.4884 0.67411 0.0
H1284 H 0.70663 0.76025 0.24017 0.0
H1285 H 0.64374 0.7624 0.23744 0.0
H1286 H 0.64159 0.80223 0.33941 0.0
H1287 H 0.7028 0.80124 0.34199 0.0
H1288 H 0.60121 0.74379 0.33075 0.0
H1289 H 0.61795 0.85076 0.279 0.0
H1290 H 0.63936 0.89011 0.23633 0.0
H1291 H 0.58401 0.83522 0.15869 0.0
H1292 H 0.56268 0.79515 0.20087 0.0
H1293 H 0.42754 0.77157 0.36556 0.0
H1294 H 0.48866 0.77966 0.35646 0.0
H1295 H 0.47419 0.76106 0.24967 0.0
H1296 H 0.41258 0.75332 0.25892 0.0
H1297 H 0.5233 0.80612 0.25619 0.0
H1298 H 0.51413 0.6946 0.30594 0.0
H1299 H 0.50242 0.6495 0.34706 0.0
H1300 H 0.54699 0.71034 0.42657 0.0
H1301 H 0.55871 0.75599 0.38644 0.0
C1302 C 0.69286 0.77065 0.26157 0.0
C1303 C 0.71083 0.78018 0.29139 0.0
C1304 C 0.65666 0.77155 0.26013 0.0
C1305 C 0.63733 0.78199 0.2885 0.0
C1306 C 0.65538 0.7936 0.31723 0.0
C1307 C 0.69118 0.79306 0.31854 0.0
C1308 C 0.59872 0.77861 0.28998 0.0
C1309 C 0.58427 0.75777 0.31457 0.0
C1310 C 0.57606 0.7959 0.26847 0.0
C1311 C 0.58912 0.81966 0.24301 0.0
C1312 C 0.61069 0.8468 0.25276 0.0
C1313 C 0.62273 0.86931 0.22868 0.0
C1314 C 0.61316 0.86509 0.19479 0.0
C1315 C 0.59147 0.83839 0.18493 0.0
C1316 C 0.5794 0.81578 0.20892 0.0
C1317 C 0.43706 0.77071 0.33987 0.0
C1318 C 0.41442 0.76319 0.31286 0.0
C1319 C 0.47248 0.77442 0.33474 0.0
C1320 C 0.48703 0.77023 0.30238 0.0
C1321 C 0.46427 0.76445 0.27501 0.0
C1322 C 0.42866 0.76064 0.2802 0.0
C1323 C 0.52563 0.77155 0.29749 0.0
C1324 C 0.54014 0.79197 0.27227 0.0
C1325 C 0.5486 0.75375 0.3184 0.0
C1326 C 0.53686 0.72883 0.3433 0.0
C1327 C 0.52062 0.6987 0.33237 0.0
C1328 C 0.51421 0.67302 0.35536 0.0
C1329 C 0.52392 0.6772 0.38916 0.0
C1330 C 0.53933 0.70734 0.40037 0.0
C1331 C 0.54586 0.7331 0.37758 0.0
H1332 H 0.51996 0.65686 0.40655 0.0
H1333 H 0.62246 0.88258 0.17619 0.0
H1334 H 0.69896 0.35187 0.77427 0.0
H1335 H 0.70027 0.41245 0.77998 0.0
H1336 H 0.80961 0.41222 0.76889 0.0
H1337 H 0.80854 0.35028 0.76891 0.0
H1338 H 0.80223 0.46184 0.80261 0.0
H1339 H 0.73712 0.43694 0.70202 0.0
H1340 H 0.69149 0.41044 0.66733 0.0
H1341 H 0.6158 0.45621 0.73113 0.0
H1342 H 0.66111 0.48314 0.76615 0.0
H1343 H 0.80683 0.63616 0.74891 0.0
H1344 H 0.80904 0.57497 0.75628 0.0
H1345 H 0.70671 0.57586 0.7953 0.0
H1346 H 0.70459 0.63715 0.78757 0.0
H1347 H 0.71106 0.52743 0.74833 0.0
H1348 H 0.78283 0.55697 0.84488 0.0
H1349 H 0.83223 0.58543 0.87234 0.0
H1350 H 0.90017 0.53182 0.80599 0.0
H1351 H 0.85116 0.50338 0.77786 0.0
C1352 C 0.72364 0.36402 0.77487 0.0
C1353 C 0.75387 0.34496 0.77316 0.0
C1354 C 0.72428 0.39973 0.77662 0.0
C1355 C 0.75496 0.41856 0.77384 0.0
C1356 C 0.78523 0.39946 0.77137 0.0
C1357 C 0.78467 0.36358 0.7713 0.0
C1358 C 0.75553 0.45756 0.77379 0.0
C1359 C 0.78235 0.47576 0.79014 0.0
C1360 C 0.7298 0.47731 0.75817 0.0
C1361 C 0.7025 0.46167 0.73691 0.0
C1362 C 0.71075 0.44127 0.70868 0.0
C1363 C 0.68493 0.42623 0.68895 0.0
C1364 C 0.65073 0.43143 0.69716 0.0
C1365 C 0.64229 0.45199 0.72495 0.0
C1366 C 0.66804 0.46732 0.74463 0.0
C1367 C 0.78555 0.62374 0.76106 0.0
C1368 C 0.75623 0.64253 0.76938 0.0
C1369 C 0.78657 0.58826 0.76476 0.0
C1370 C 0.75815 0.56987 0.77671 0.0
C1371 C 0.72928 0.58878 0.78625 0.0
C1372 C 0.72835 0.6243 0.78266 0.0
C1373 C 0.75761 0.53118 0.77705 0.0
C1374 C 0.73081 0.5132 0.76072 0.0
C1375 C 0.78389 0.51172 0.79167 0.0
C1376 C 0.81332 0.52821 0.80915 0.0
C1377 C 0.8083 0.55135 0.83608 0.0
C1378 C 0.83623 0.56747 0.85176 0.0
C1379 C 0.86931 0.56047 0.84088 0.0
C1380 C 0.87454 0.53722 0.81439 0.0
C1381 C 0.8467 0.52106 0.79861 0.0
H1382 H 0.89089 0.57302 0.85301 0.0
H1383 H 0.63075 0.41962 0.68195 0.0
H1384 H 0.2942 0.15661 0.08417 0.0
H1385 H 0.28669 0.10662 0.0486 0.0
H1386 H 0.21446 0.06707 0.12014 0.0
H1387 H 0.2228 0.11707 0.15575 0.0
H1388 H 0.28716 0.05021 0.03417 0.0
H1389 H 0.14654 1.02008 0.08051 0.0
H1390 H 0.09043 0.04627 0.08772 0.0
H1391 H 0.13277 0.1424 0.06088 0.0
H1392 H 0.18874 0.11631 0.05104 0.0
H1393 H 0.21434 0.90314 0.95645 0.0
H1394 H 0.23937 0.94789 0.99182 0.0
H1395 H 0.16236 1.01654 0.9578 0.0
H1396 H 0.13715 0.97137 0.92191 0.0
H1397 H 0.16571 1.01722 1.02144 0.0
H1398 H 0.24411 0.02893 0.93658 0.0
H1399 H 0.28592 1.01414 0.89259 0.0
H1400 H 0.35536 0.98034 0.96855 0.0
H1401 H 0.31361 0.99432 1.01309 0.0
C1402 C 0.27876 0.13603 0.09365 0.0
C1403 C 0.25681 0.14193 0.12109 0.0
C1404 C 0.27354 0.10753 0.0726 0.0
C1405 C 0.2483 0.08329 0.08042 0.0
C1406 C 0.23308 0.08558 0.11253 0.0
C1407 C 0.23863 0.11409 0.13353 0.0
C1408 C 0.23645 0.05765 0.05428 0.0
C1409 C 0.26045 0.04333 0.03171 0.0
C1410 C 0.20141 0.04861 0.04965 0.0
C1411 C 0.17218 0.06628 0.06555 0.0
C1412 C 0.14415 0.047 0.07687 0.0
C1413 C 0.11215 0.06162 0.08058 0.0
C1414 C 0.10807 0.09593 0.07471 0.0
C1415 C 0.13608 0.11578 0.06547 0.0
C1416 C 0.16801 0.10105 0.0607 0.0
C1417 C 0.20274 0.92782 0.95634 0.0
C1418 C 0.17337 0.93372 0.93681 0.0
C1419 C 0.21742 0.95348 0.97629 0.0
C1420 C 0.20311 0.98565 0.97715 0.0
C1421 C 0.17392 0.99181 0.9574 0.0
C1422 C 0.15915 0.966 0.93737 0.0
C1423 C 0.21583 1.01134 1.00204 0.0
C1424 C 0.19227 1.02465 1.02462 0.0
C1425 C 0.25035 1.02153 1.00476 0.0
C1426 C 0.27547 1.01223 0.97822 0.0
C1427 C 0.26809 1.01788 0.94394 0.0
C1428 C 0.29182 1.00975 0.91889 0.0
C1429 C 0.32324 0.9962 0.92777 0.0
C1430 C 0.33096 0.99077 0.96173 0.0
C1431 C 0.30725 0.99879 0.98691 0.0
H1432 H 0.34164 0.99001 0.90834 0.0
H1433 H 0.0831 0.10698 0.07709 0.0
H1434 H 0.88068 0.78237 0.05642 0.0
H1435 H 0.93437 0.76571 0.03053 0.0
H1436 H 0.98784 0.79201 0.12295 0.0
H1437 H 0.93396 0.80847 0.1493 0.0
H1438 H 1.01221 0.82604 0.06673 0.0
H1439 H 0.98756 0.71046 0.0948 0.0
H1440 H 0.95054 0.6598 0.09729 0.0
H1441 H 0.94175 0.6574 0.98904 0.0
H1442 H 0.97833 0.70829 0.98591 0.0
H1443 H 0.15378 0.81845 0.96601 0.0
H1444 H 0.12175 0.79978 1.01493 0.0
H1445 H 0.05085 0.74677 0.94845 0.0
H1446 H 0.08395 0.76422 0.90005 0.0
H1447 H 0.04228 0.72115 1.00344 0.0
H1448 H 0.04815 0.83962 0.97331 0.0
H1449 H 0.0778 0.894 0.96402 0.0
H1450 H 0.11283 0.89611 0.067 0.0
H1451 H 0.08368 0.84156 0.07676 0.0
C1452 C 0.90358 0.78333 0.07179 0.0
C1453 C 0.90282 0.79673 0.10505 0.0
C1454 C 0.93442 0.77388 0.05684 0.0
C1455 C 0.96528 0.77769 0.0747 0.0
C1456 C 0.96438 0.78883 0.10866 0.0
C1457 C 0.93342 0.79791 0.12382 0.0
C1458 C 0.99837 0.77407 0.05652 0.0
C1459 C 1.01929 0.80284 0.05358 0.0
C1460 C 1.00703 0.74423 0.03837 0.0
C1461 C 0.98568 0.71319 0.04015 0.0
C1462 C 0.97764 0.69918 0.07154 0.0
C1463 C 0.95673 0.67043 0.07305 0.0
C1464 C 0.94379 0.6554 0.04334 0.0
C1465 C 0.95182 0.66904 1.01203 0.0
C1466 C 0.97271 0.69778 1.01037 0.0
C1467 C 0.13294 0.80058 0.96203 0.0
C1468 C 0.12063 0.79373 0.92921 0.0
C1469 C 0.11383 0.79074 0.99008 0.0
C1470 C 0.08246 0.77355 0.98556 0.0
C1471 C 0.07439 0.7607 0.95303 0.0
C1472 C 0.09388 0.77011 0.92512 0.0
C1473 C 0.05575 0.7735 1.01264 0.0
C1474 C 0.03586 0.74415 1.01724 0.0
C1475 C 0.04709 0.80333 0.03125 0.0
C1476 C 0.06414 0.83636 1.02562 0.0
C1477 C 0.06228 0.85167 0.99392 0.0
C1478 C 0.07901 0.88248 0.98856 0.0
C1479 C 0.09731 0.89841 1.01486 0.0
C1480 C 0.09875 0.88367 0.04662 0.0
C1481 C 0.08213 0.85282 0.05209 0.0
H1482 H 0.11031 0.92221 1.01064 0.0
H1483 H 0.92756 0.63318 0.04457 0.0
H1484 H 0.83236 0.94473 0.14576 0.0
H1485 H 0.8285 0.9986 0.11889 0.0
H1486 H 0.72301 0.97701 0.09443 0.0
H1487 H 0.72981 0.92004 0.11556 0.0
H1488 H 0.75133 0.98742 0.04106 0.0
H1489 H 0.77216 0.05079 0.14878 0.0
H1490 H 0.80642 0.06687 0.19952 0.0
H1491 H 0.89172 0.08995 0.13609 0.0
H1492 H 0.85756 0.07484 0.08547 0.0
H1493 H 0.74646 0.1093 0.91868 0.0
H1494 H 0.73158 0.08243 0.97218 0.0
H1495 H 0.83034 0.11159 1.01275 0.0
H1496 H 0.84229 0.14222 0.9618 0.0
H1497 H 0.80084 0.10147 0.06173 0.0
H1498 H 0.80708 0.03079 0.96596 0.0
H1499 H 0.79442 1.00957 0.90868 0.0
H1500 H 0.69213 0.98442 0.93806 0.0
H1501 H 0.70397 1.00675 0.99576 0.0
C1502 C 0.80801 0.95189 0.1358 0.0
C1503 C 0.7821 0.92742 0.13152 0.0
C1504 C 0.80558 0.98334 0.12044 0.0
C1505 C 0.77551 0.99253 0.10368 0.0
C1506 C 0.74699 0.97062 0.10621 0.0
C1507 C 0.75044 0.93817 0.11936 0.0
C1508 C 0.77532 1.02048 0.07831 0.0
C1509 C 0.76138 1.01263 0.0462 0.0
C1510 C 0.79156 0.05263 0.08303 0.0
C1511 C 0.81195 0.06199 0.11358 0.0
C1512 C 0.79798 0.05969 0.14597 0.0
C1513 C 0.81746 0.06848 0.17458 0.0
C1514 C 0.85124 0.07933 0.17102 0.0
C1515 C 0.86552 0.08161 0.13885 0.0
C1516 C 0.84599 0.07313 0.11021 0.0
C1517 C 0.764 0.11134 0.93984 0.0
C1518 C 0.79549 0.12795 0.93627 0.0
C1519 C 0.75597 0.09525 0.97024 0.0
C1520 C 0.78048 0.09302 0.99642 0.0
C1521 C 0.8107 0.11221 0.99351 0.0
C1522 C 0.81771 0.12989 0.96412 0.0
C1523 C 0.77681 0.06819 1.0247 0.0
C1524 C 0.79015 0.07644 0.05698 0.0
C1525 C 0.76361 0.035 1.0192 0.0
C1526 C 0.7562 1.02107 0.9849 0.0
C1527 C 0.78179 1.02098 0.96016 0.0
C1528 C 0.77473 1.00876 0.92756 0.0
C1529 C 0.74241 0.9957 0.9195 0.0
C1530 C 0.7171 0.99473 0.94424 0.0
C1531 C 0.72392 1.00731 0.9769 0.0
H1532 H 0.73703 0.98629 0.89413 0.0
H1533 H 0.86635 0.08597 0.19318 0.0
H1534 H 0.09436 0.24056 0.17441 0.0
H1535 H 0.0383 0.24815 0.14899 0.0
H1536 H 0.08592 0.28932 0.06128 0.0
H1537 H 0.14171 0.28438 0.08752 0.0
H1538 H 0.02943 0.30131 0.04992 0.0
H1539 H 0.0764 0.19531 0.08406 0.0
H1540 H 0.09467 0.15048 0.12184 0.0
H1541 H 0.99507 0.14593 0.16578 0.0
H1542 H 0.97616 0.1917 0.12883 0.0
H1543 H 0.96643 0.19668 0.91539 0.0
H1544 H 0.99943 0.22467 0.9608 0.0
H1545 H 0.92199 0.19657 0.03261 0.0
H1546 H 0.89047 0.16654 0.98756 0.0
H1547 H 0.98016 0.18592 0.05743 0.0
H1548 H 0.93546 0.28455 1.00105 0.0
H1549 H 0.92564 0.31613 0.94881 0.0
H1550 H 0.03352 0.32124 0.93127 0.0
H1551 H 0.04389 0.28944 0.98318 0.0
C1552 C 0.09281 0.25343 0.15074 0.0
C1553 C 0.12264 0.26096 0.13266 0.0
C1554 C 0.06061 0.2569 0.13556 0.0
C1555 C 0.05807 0.26637 0.10147 0.0
C1556 C 0.08727 0.28017 0.08653 0.0
C1557 C 0.11926 0.27759 0.10186 0.0
C1558 C 0.02844 0.2557 0.07909 0.0
C1559 C 1.01869 0.27608 0.05188 0.0
C1560 C 1.01352 0.22291 0.0808 0.0
C1561 C 0.02521 0.19733 0.10445 0.0
C1562 C 0.0586 0.18517 0.10223 0.0
C1563 C 0.06905 0.15972 0.12349 0.0
C1564 C 0.04612 0.14566 0.14623 0.0
C1565 C 1.01276 0.15719 0.14823 0.0
C1566 C 1.00221 0.18303 0.12736 0.0
C1567 C 0.95699 0.19596 0.94108 0.0
C1568 C 0.92644 0.17885 0.94825 0.0
C1569 C 0.97536 0.21269 0.96689 0.0
C1570 C 0.96269 0.21389 1.00011 0.0
C1571 C 0.93221 0.19639 1.00721 0.0
C1572 C 0.91437 0.17885 0.98155 0.0
C1573 C 0.98256 0.23077 0.02804 0.0
C1574 C 0.99011 0.21158 0.05622 0.0
C1575 C 0.99671 0.26376 1.02598 0.0
C1576 C 0.99046 0.28496 0.99618 0.0
C1577 C 0.95707 0.29268 0.98619 0.0
C1578 C 0.9514 0.3105 0.95657 0.0
C1579 C 0.97894 0.32078 0.93679 0.0
C1580 C 1.01222 0.31347 0.94671 0.0
C1581 C 1.01802 0.29572 0.97632 0.0
H1582 H 0.97448 0.33432 0.91373 0.0
H1583 H 0.05394 0.12555 0.16201 0.0
H1584 H 0.88333 0.97774 0.14191 0.0
H1585 H 0.92818 1.01785 0.15934 0.0
H1586 H 1.00028 0.93627 0.16285 0.0
H1587 H 0.9548 0.89595 0.14676 0.0
H1588 H 1.00801 0.97787 0.21675 0.0
H1589 H 0.99777 0.98883 0.0953 0.0
H1590 H 0.96669 0.99849 0.04211 0.0
H1591 H 0.93681 0.0965 0.0791 0.0
H1592 H 0.96751 0.08726 0.13264 0.0
H1593 H 0.14938 0.08039 0.1377 0.0
H1594 H 0.10464 0.038 0.1485 0.0
H1595 H 0.06597 0.10102 0.22933 0.0
H1596 H 0.11007 0.14314 0.21824 0.0
H1597 H 0.03706 0.07253 0.14178 0.0
H1598 H 0.05166 0.05953 0.26587 0.0
H1599 H 0.08668 0.04687 0.31572 0.0
H1600 H 0.11045 0.94965 0.27235 0.0
H1601 H 0.07666 0.96249 0.22156 0.0
C1602 C 0.9089 0.96864 0.14579 0.0
C1603 C 0.91624 0.93425 0.1422 0.0
C1604 C 0.93436 0.99138 0.15603 0.0
C1605 C 0.96748 0.97993 0.16222 0.0
C1606 C 0.97479 0.94547 0.15833 0.0
C1607 C 0.94917 0.92267 0.14857 0.0
C1608 C 0.99494 1.00403 0.17127 0.0
C1609 C 1.01431 0.99886 0.20062 0.0
C1610 C 1.00271 0.03146 0.15036 0.0
C1611 C 0.98455 0.03718 0.11807 0.0
C1612 C 0.98438 1.01234 0.09214 0.0
C1613 C 0.96689 1.01777 0.06193 0.0
C1614 C 0.94968 0.04804 0.05728 0.0
C1615 C 0.9501 0.07304 0.08276 0.0
C1616 C 0.96757 0.06774 0.11302 0.0
C1617 C 0.13113 0.08485 0.15762 0.0
C1618 C 0.13134 0.11552 0.17546 0.0
C1619 C 0.10644 0.0605 0.16446 0.0
C1620 C 0.08233 0.06622 0.1899 0.0
C1621 C 0.08507 0.09532 0.21054 0.0
C1622 C 0.1098 0.11979 0.20354 0.0
C1623 C 0.05018 0.04697 0.18758 0.0
C1624 C 0.02999 0.05271 0.15898 0.0
C1625 C 0.04201 1.02012 0.20911 0.0
C1626 C 0.06272 1.01257 0.23935 0.0
C1627 C 0.06527 0.03598 0.26645 0.0
C1628 C 0.08467 0.02863 0.29502 0.0
C1629 C 0.10109 0.9976 0.29706 0.0
C1630 C 0.09795 0.97379 0.27062 0.0
C1631 C 0.07875 0.98115 0.24191 0.0
H1632 H 0.11602 0.99191 0.31924 0.0
H1633 H 0.93611 0.05217 0.03389 0.0
H1634 H 0.14637 0.95204 0.83374 0.0
H1635 H 0.11278 1.00197 0.82412 0.0
H1636 H 0.04151 0.94263 0.76362 0.0
H1637 H 0.07421 0.89226 0.77507 0.0
H1638 H 0.04432 0.99953 0.73697 0.0
H1639 H 0.03182 0.96608 0.85233 0.0
H1640 H 0.04973 0.95282 0.91035 0.0
H1641 H 0.09175 0.05285 0.92357 0.0
H1642 H 0.07456 0.06656 0.86542 0.0
H1643 H 0.88887 0.07853 0.77509 0.0
H1644 H 0.94007 0.04907 0.75846 0.0
H1645 H 1.0012 0.12466 0.81132 0.0
H1646 H 0.94927 0.15362 0.82895 0.0
H1647 H 1.01048 0.06648 0.83836 0.0
H1648 H 1.01261 0.10125 0.72363 0.0
H1649 H 0.98858 0.11272 0.66741 0.0
H1650 H 0.9607 1.00806 0.65436 0.0
H1651 H 0.9841 0.99602 0.71068 0.0
C1652 C 0.12455 0.94992 0.81692 0.0
C1653 C 0.1134 0.91819 0.80456 0.0
C1654 C 0.10489 0.97862 0.81173 0.0
C1655 C 0.07425 0.97653 0.79307 0.0
C1656 C 0.06499 0.9453 0.77798 0.0
C1657 C 0.08408 0.91642 0.78403 0.0
C1658 C 0.05069 1.00595 0.79085 0.0
C1659 C 0.03673 1.01399 0.75923 0.0
C1660 C 0.04128 1.02565 0.81964 0.0
C1661 C 0.05219 1.01723 0.8544 0.0
C1662 C 0.04512 0.98516 0.86751 0.0
C1663 C 0.05507 0.97759 0.90045 0.0
C1664 C 0.07175 1.00202 0.92066 0.0
C1665 C 0.07875 0.03399 0.9079 0.0
C1666 C 0.06893 0.04166 0.87495 0.0
C1667 C 0.91324 0.0903 0.78111 0.0
C1668 C 0.91495 0.1181 0.80374 0.0
C1669 C 0.94281 0.07308 0.77187 0.0
C1670 C 0.9748 0.08409 0.78416 0.0
C1671 C 0.97686 0.11529 0.80186 0.0
C1672 C 0.9471 0.1324 0.81128 0.0
C1673 C 1.00397 0.06004 0.78449 0.0
C1674 C 1.01865 0.05262 0.81592 0.0
C1675 C 1.01367 0.0407 0.75563 0.0
C1676 C 1.00004 0.04777 0.72148 0.0
C1677 C 1.00121 0.0807 0.70885 0.0
C1678 C 0.98771 0.0873 0.67695 0.0
C1679 C 0.97309 0.06114 0.65734 0.0
C1680 C 0.97205 0.0283 0.66956 0.0
C1681 C 0.9855 1.02156 0.70145 0.0
H1682 H 0.96261 0.06631 0.63267 0.0
H1683 H 0.07934 0.99614 0.94618 0.0
H1684 H 0.67726 0.39572 0.48014 0.0
H1685 H 0.70893 0.43205 0.52043 0.0
H1686 H 0.68852 0.51848 0.45914 0.0
H1687 H 0.65676 0.48184 0.41863 0.0
H1688 H 0.75788 0.51406 0.48094 0.0
H1689 H 0.64447 0.50844 0.52716 0.0
H1690 H 0.59304 0.47838 0.5466 0.0
H1691 H 0.65212 0.4288 0.62182 0.0
H1692 H 0.70408 0.45862 0.60296 0.0
H1693 H 0.76849 0.65752 0.58288 0.0
H1694 H 0.77424 0.60907 0.5465 0.0
H1695 H 0.7641 0.54419 0.63265 0.0
H1696 H 0.75158 0.59374 0.66779 0.0
H1697 H 0.7181 0.52725 0.59904 0.0
H1698 H 0.8311 0.54151 0.55804 0.0
H1699 H 0.88209 0.57146 0.53724 0.0
H1700 H 0.82566 0.60481 0.45121 0.0
H1701 H 0.77423 0.5755 0.47163 0.0
C1702 C 0.67877 0.42266 0.47589 0.0
C1703 C 0.66372 0.4364 0.44713 0.0
C1704 C 0.69724 0.44325 0.49855 0.0
C1705 C 0.70118 0.4779 0.49266 0.0
C1706 C 0.68588 0.49175 0.464 0.0
C1707 C 0.66721 0.47108 0.44133 0.0
C1708 C 0.72008 0.49984 0.51728 0.0
C1709 C 0.74926 0.51745 0.5068 0.0
C1710 C 0.70955 0.50279 0.55122 0.0
C1711 C 0.67826 0.48548 0.56337 0.0
C1712 C 0.64658 0.49093 0.5477 0.0
C1713 C 0.61732 0.47405 0.55873 0.0
C1714 C 0.61933 0.45177 0.58553 0.0
C1715 C 0.65063 0.44633 0.60134 0.0
C1716 C 0.67999 0.46324 0.59052 0.0
C1717 C 0.76968 0.63306 0.59455 0.0
C1718 C 0.75698 0.62915 0.62737 0.0
C1719 C 0.7729 0.60468 0.57331 0.0
C1720 C 0.76809 0.57199 0.58604 0.0
C1721 C 0.76604 0.56887 0.62147 0.0
C1722 C 0.76 0.59741 0.64205 0.0
C1723 C 0.75609 0.54353 0.56303 0.0
C1724 C 0.72782 0.5241 0.57363 0.0
C1725 C 0.76765 0.53903 0.5292 0.0
C1726 C 0.79877 0.55621 0.51644 0.0
C1727 C 0.82953 0.55528 0.53473 0.0
C1728 C 0.85851 0.57218 0.523 0.0
C1729 C 0.8571 0.59003 0.49293 0.0
C1730 C 0.82673 0.59094 0.47446 0.0
C1731 C 0.79768 0.57408 0.48605 0.0
H1732 H 0.87955 0.60315 0.48394 0.0
H1733 H 0.59665 0.43871 0.59405 0.0
H1734 H 0.58221 0.26265 0.40611 0.0
H1735 H 0.55927 0.24668 0.46074 0.0
H1736 H 0.6256 0.31975 0.51043 0.0
H1737 H 0.64835 0.33599 0.45558 0.0
H1738 H 0.57593 0.23326 0.53439 0.0
H1739 H 0.58425 0.36664 0.54031 0.0
H1740 H 0.59236 0.41866 0.50768 0.0
H1741 H 0.52298 0.38025 0.43152 0.0
H1742 H 0.51509 0.32774 0.46345 0.0
H1743 H 0.44319 0.30843 0.65675 0.0
H1744 H 0.49851 0.29764 0.6302 0.0
H1745 H 0.44744 0.26249 0.53931 0.0
H1746 H 0.39225 0.27232 0.56583 0.0
H1747 H 0.49955 0.33173 0.54797 0.0
H1748 H 0.48037 0.20674 0.55626 0.0
H1749 H 0.47213 0.15699 0.59199 0.0
H1750 H 0.56482 0.18146 0.64567 0.0
H1751 H 0.57333 0.23153 0.61042 0.0
C1752 C 0.59386 0.27345 0.42882 0.0
C1753 C 0.61678 0.30083 0.42647 0.0
C1754 C 0.58031 0.26463 0.46017 0.0
C1755 C 0.58988 0.28277 0.48962 0.0
C1756 C 0.61739 0.30576 0.48797 0.0
C1757 C 0.63094 0.31458 0.45652 0.0
C1758 C 0.5656 0.28391 0.51854 0.0
C1759 C 0.55968 0.25503 0.53786 0.0
C1760 C 0.54437 0.31226 0.52348 0.0
C1761 C 0.54918 0.34345 0.50411 0.0
C1762 C 0.57082 0.36937 0.51657 0.0
C1763 C 0.57542 0.39886 0.4982 0.0
C1764 C 0.55809 0.4028 0.46762 0.0
C1765 C 0.53633 0.37718 0.45523 0.0
C1766 C 0.53191 0.3475 0.47335 0.0
C1767 C 0.44362 0.29671 0.63178 0.0
C1768 C 0.41308 0.29129 0.61341 0.0
C1769 C 0.47538 0.29091 0.6165 0.0
C1770 C 0.47709 0.27935 0.58275 0.0
C1771 C 0.44672 0.27119 0.56546 0.0
C1772 C 0.41511 0.27675 0.58071 0.0
C1773 C 0.50954 0.28097 0.56349 0.0
C1774 C 0.51657 0.31039 0.54556 0.0
C1775 C 0.53207 0.25346 0.56058 0.0
C1776 C 0.52726 0.22299 0.58102 0.0
C1777 C 0.49881 0.20163 0.57586 0.0
C1778 C 0.49414 0.17334 0.59597 0.0
C1779 C 0.51788 0.16612 0.62116 0.0
C1780 C 0.54643 0.18709 0.62619 0.0
C1781 C 0.5512 0.21539 0.60613 0.0
H1782 H 0.51419 0.14423 0.63673 0.0
H1783 H 0.56154 0.42571 0.45352 0.0
H1784 H 0.24161 0.39595 0.58947 0.0
H1785 H 0.22871 0.44895 0.56224 0.0
H1786 H 0.30811 0.49903 0.62063 0.0
H1787 H 0.32127 0.44571 0.64758 0.0
H1788 H 0.21626 0.51599 0.56661 0.0
H1789 H 0.35955 0.53837 0.56942 0.0
H1790 H 0.41279 0.50783 0.58097 0.0
H1791 H 0.36616 0.41509 0.54523 0.0
H1792 H 0.3126 0.44505 0.53379 0.0
H1793 H 0.30485 0.65065 0.4584 0.0
H1794 H 0.28648 0.61849 0.50739 0.0
H1795 H 0.26195 0.53323 0.44216 0.0
H1796 H 0.28116 0.56495 0.39326 0.0
H1797 H 0.32301 0.54015 0.50432 0.0
H1798 H 0.20422 0.54252 0.46617 0.0
H1799 H 0.14946 0.5693 0.45355 0.0
H1800 H 0.14376 0.60741 0.55575 0.0
H1801 H 0.199 0.58153 0.56876 0.0
C1802 C 0.25464 0.41876 0.59837 0.0
C1803 C 0.28285 0.41647 0.62022 0.0
C1804 C 0.24763 0.44911 0.58227 0.0
C1805 C 0.26843 0.47775 0.58819 0.0
C1806 C 0.29231 0.47703 0.61483 0.0
C1807 C 0.29929 0.44659 0.63096 0.0
C1808 C 0.26967 0.50493 0.56243 0.0
C1809 C 0.23967 0.52162 0.55324 0.0
C1810 C 0.30004 0.51205 0.54448 0.0
C1811 C 0.33213 0.49389 0.55099 0.0
C1812 C 0.36074 0.51148 0.56402 0.0
C1813 C 0.39089 0.49426 0.57062 0.0
C1814 C 0.39281 0.45954 0.5639 0.0
C1815 C 0.36458 0.44196 0.55056 0.0
C1816 C 0.3343 0.45901 0.5441 0.0
C1817 C 0.29342 0.62592 0.45417 0.0
C1818 C 0.29381 0.61068 0.42172 0.0
C1819 C 0.28295 0.60744 0.48236 0.0
C1820 C 0.27159 0.57377 0.47854 0.0
C1821 C 0.2695 0.55947 0.44578 0.0
C1822 C 0.28033 0.57773 0.41773 0.0
C1823 C 0.26961 0.55135 0.50838 0.0
C1824 C 0.2997 0.53534 0.5182 0.0
C1825 C 0.23916 0.54465 0.52641 0.0
C1826 C 0.20643 0.56099 0.51812 0.0
C1827 C 0.19186 0.55737 0.48571 0.0
C1828 C 0.1605 0.57213 0.47857 0.0
C1829 C 0.14323 0.59024 0.50377 0.0
C1830 C 0.1572 0.59347 0.53621 0.0
C1831 C 0.18852 0.57874 0.54346 0.0
H1832 H 0.11896 0.60165 0.49819 0.0
H1833 H 0.41619 0.44628 0.56899 0.0
H1834 H 0.39977 0.72439 0.44802 0.0
H1835 H 0.43525 0.74969 0.49253 0.0
H1836 H 0.5064 0.66785 0.48107 0.0
H1837 H 0.46944 0.64104 0.43819 0.0
H1838 H 0.49377 0.67713 0.54258 0.0
H1839 H 0.52752 0.75995 0.45513 0.0
H1840 H 0.51146 0.80095 0.41182 0.0
H1841 H 0.45077 0.85467 0.48487 0.0
H1842 H 0.46676 0.81398 0.52853 0.0
H1843 H 0.65303 0.77499 0.58709 0.0
H1844 H 0.59997 0.77675 0.55517 0.0
H1845 H 0.54585 0.73555 0.64004 0.0
H1846 H 0.59955 0.73166 0.67106 0.0
H1847 H 0.5392 0.79445 0.54813 0.0
H1848 H 0.49136 0.68376 0.62029 0.0
H1849 H 0.50293 0.62864 0.64562 0.0
H1850 H 0.5964 0.62193 0.58976 0.0
H1851 H 0.58431 0.67631 0.56335 0.0
C1852 C 0.42306 0.71177 0.45492 0.0
C1853 C 0.43201 0.68072 0.43944 0.0
C1854 C 0.44359 0.72662 0.48011 0.0
C1855 C 0.47398 0.71123 0.48976 0.0
C1856 C 0.48308 0.68035 0.47405 0.0
C1857 C 0.46201 0.66496 0.44954 0.0
C1858 C 0.49483 0.72512 0.51836 0.0
C1859 C 0.5036 0.7029 0.54375 0.0
C1860 C 0.50687 0.75893 0.52063 0.0
C1861 C 0.4981 0.78387 0.49484 0.0
C1862 C 0.51067 0.78045 0.46179 0.0
C1863 C 0.50163 0.80363 0.43724 0.0
C1864 C 0.47995 0.8303 0.44553 0.0
C1865 C 0.46755 0.83401 0.47847 0.0
C1866 C 0.47673 0.81099 0.50315 0.0
C1867 C 0.62955 0.76772 0.59945 0.0
C1868 C 0.63058 0.75226 0.63105 0.0
C1869 C 0.59908 0.76856 0.58112 0.0
C1870 C 0.56902 0.75463 0.59447 0.0
C1871 C 0.56898 0.74498 0.62851 0.0
C1872 C 0.59965 0.74358 0.64666 0.0
C1873 C 0.54018 0.74548 0.57119 0.0
C1874 C 0.52914 0.76882 0.54716 0.0
C1875 C 0.52641 0.71224 0.5695 0.0
C1876 C 0.53765 0.68454 0.59093 0.0
C1877 C 0.51478 0.67088 0.61429 0.0
C1878 C 0.52103 0.63949 0.62823 0.0
C1879 C 0.55012 0.62164 0.61886 0.0
C1880 C 0.57374 0.63569 0.59674 0.0
C1881 C 0.56734 0.66693 0.58248 0.0
H1882 H 0.55441 0.59704 0.62901 0.0
H1883 H 0.47284 0.84815 0.42646 0.0
H1884 H 0.66105 0.59287 0.72296 0.0
H1885 H 0.62323 0.5451 0.73557 0.0
H1886 H 0.53904 0.59698 0.69062 0.0
H1887 H 0.57668 0.64554 0.67912 0.0
H1888 H 0.52938 0.54253 0.75156 0.0
H1889 H 0.55813 0.53787 0.61289 0.0
H1890 H 0.60371 0.55923 0.57596 0.0
H1891 H 0.67902 0.53236 0.64934 0.0
H1892 H 0.6339 0.51027 0.68621 0.0
H1893 H 0.39785 0.46977 0.65874 0.0
H1894 H 0.44609 0.50513 0.67803 0.0
H1895 H 0.5138 0.42086 0.66322 0.0
H1896 H 0.46548 0.3858 0.64303 0.0
H1897 H 0.54297 0.47794 0.64348 0.0
H1898 H 0.48704 0.44125 0.74147 0.0
H1899 H 0.43818 0.4291 0.77843 0.0
H1900 H 0.41677 0.53496 0.78708 0.0
H1901 H 0.46496 0.54783 0.74943 0.0
C1902 C 0.63424 0.5944 0.71655 0.0
C1903 C 0.6218 0.62164 0.69806 0.0
C1904 C 0.61273 0.56722 0.72391 0.0
C1905 C 0.57896 0.56708 0.71235 0.0
C1906 C 0.56547 0.5964 0.69855 0.0
C1907 C 0.58691 0.62365 0.69138 0.0
C1908 C 0.56002 0.53508 0.70714 0.0
C1909 C 0.53259 0.52778 0.7284 0.0
C1910 C 0.5649 0.51564 0.67709 0.0
C1911 C 0.59254 0.52383 0.65298 0.0
C1912 C 0.58444 0.53641 0.62107 0.0
C1913 C 0.61016 0.5488 0.60019 0.0
C1914 C 0.64414 0.54811 0.61072 0.0
C1915 C 0.65262 0.53359 0.64147 0.0
C1916 C 0.62696 0.5211 0.66235 0.0
C1917 C 0.42325 0.45927 0.65885 0.0
C1918 C 0.42848 0.42556 0.64915 0.0
C1919 C 0.45061 0.47916 0.67028 0.0
C1920 C 0.48329 0.46525 0.6729 0.0
C1921 C 0.48872 0.4319 0.66164 0.0
C1922 C 0.46134 0.41208 0.64989 0.0
C1923 C 0.51157 0.48577 0.6875 0.0
C1924 C 0.54052 0.4912 0.66762 0.0
C1925 C 0.5084 0.50284 0.71918 0.0
C1926 C 0.47967 0.4955 0.74246 0.0
C1927 C 0.47182 0.46198 0.75107 0.0
C1928 C 0.44419 0.45496 0.77212 0.0
C1929 C 0.42437 0.48127 0.78506 0.0
C1930 C 0.43215 0.51465 0.77699 0.0
C1931 C 0.45965 0.52183 0.7558 0.0
H1932 H 0.403 0.4758 0.80136 0.0
H1933 H 0.66389 0.55835 0.59477 0.0
H1934 H 0.44997 0.65931 0.3107 0.0
H1935 H 0.50085 0.62968 0.29111 0.0
H1936 H 0.43718 0.55362 0.24264 0.0
H1937 H 0.38667 0.58324 0.2621 0.0
H1938 H 0.46914 0.53065 0.29886 0.0
H1939 H 0.50662 0.5981 0.20178 0.0
H1940 H 0.522 0.65338 0.17811 0.0
H1941 H 0.59992 0.66745 0.25377 0.0
H1942 H 0.58492 0.61233 0.27793 0.0
H1943 H 0.574 0.39957 0.2746 0.0
H1944 H 0.54305 0.44871 0.25545 0.0
H1945 H 0.61627 0.51459 0.30573 0.0
H1946 H 0.64788 0.46512 0.32435 0.0
H1947 H 0.58468 0.5471 0.25098 0.0
H1948 H 0.55465 0.49269 0.34981 0.0
H1949 H 0.5419 0.44638 0.38862 0.0
H1950 H 0.45278 0.41958 0.33035 0.0
H1951 H 0.46553 0.465 0.29059 0.0
C1952 C 0.44682 0.63769 0.29367 0.0
C1953 C 0.41441 0.62266 0.28927 0.0
C1954 C 0.47607 0.62031 0.28305 0.0
C1955 C 0.47295 0.58848 0.26687 0.0
C1956 C 0.44041 0.57771 0.25584 0.0
C1957 C 0.41134 0.59515 0.2664 0.0
C1958 C 0.50096 0.56327 0.26917 0.0
C1959 C 0.49403 0.5339 0.2874 0.0
C1960 C 0.53459 0.56885 0.25732 0.0
C1961 C 0.54464 0.60109 0.24163 0.0
C1962 C 0.52707 0.61296 0.21331 0.0
C1963 C 0.53572 0.64427 0.19982 0.0
C1964 C 0.56192 0.66391 0.21443 0.0
C1965 C 0.5797 0.65218 0.24242 0.0
C1966 C 0.57123 0.62085 0.25592 0.0
C1967 C 0.58466 0.42449 0.27989 0.0
C1968 C 0.61348 0.42842 0.30083 0.0
C1969 C 0.56673 0.45268 0.26922 0.0
C1970 C 0.57681 0.48542 0.2798 0.0
C1971 C 0.60792 0.48965 0.29724 0.0
C1972 C 0.62619 0.46128 0.30766 0.0
C1973 C 0.55165 0.51344 0.27818 0.0
C1974 C 0.55938 0.54351 0.26133 0.0
C1975 C 0.51912 0.50973 0.29316 0.0
C1976 C 0.51138 0.48196 0.31682 0.0
C1977 C 0.5326 0.47659 0.34495 0.0
C1978 C 0.52535 0.45049 0.36718 0.0
C1979 C 0.49663 0.42986 0.36186 0.0
C1980 C 0.47512 0.43536 0.33434 0.0
C1981 C 0.48238 0.46127 0.3119 0.0
H1982 H 0.49095 0.40973 0.37914 0.0
H1983 H 0.56845 0.68822 0.20406 0.0
loop_
_geom_bond_atom_site_label_1
_geom_bond_atom_site_label_2
_geom_bond_distance
_geom_bond_site_symmetry_2
_ccdc_geom_bond_type
Mn0 O6 2.111 . S
Mn0 O11 2.150 . S
Mn0 O13 2.130 . S
Mn0 O21 2.281 . S
Mn0 O22 2.374 . S
Mn1 O2 2.126 . S
Mn1 O7 2.116 . S
Mn1 O12 2.129 . S
Mn1 O15 2.147 . S
Mn1 O19 2.267 . S
Mn1 O21 2.247 . S
O2 Mn1 2.126 . S
O2 C20 1.255 . S
O3 Mn4 2.113 . S
O3 C20 1.238 . S
Mn4 O3 2.113 . S
Mn4 O16 2.101 . S
Mn4 O18 2.372 . S
Mn4 O19 2.265 . S
C5 O6 1.258 . S
C5 O7 1.263 . S
O6 Mn0 2.111 . S
O6 C5 1.258 . S
O7 Mn1 2.116 . S
O7 C5 1.263 . S
P8 O13 1.496 . S
C9 O15 1.252 . S
C9 O16 1.259 . S
C10 O18 1.252 . S
C10 O19 1.273 . S
O11 Mn0 2.150 . S
O11 C17 1.271 . S
O12 Mn1 2.129 . S
O12 C17 1.250 . S
O13 Mn0 2.130 . S
O13 P8 1.496 . S
C14 O21 1.283 . S
C14 O22 1.263 . S
O15 Mn1 2.147 . S
O15 C9 1.252 . S
O16 Mn4 2.101 . S
O16 C9 1.259 . S
C17 O11 1.271 . S
C17 O12 1.250 . S
O18 Mn4 2.372 . S
O18 C10 1.252 . S
O19 Mn1 2.267 . S
O19 Mn4 2.265 . S
O19 C10 1.273 . S
C20 O2 1.255 . S
C20 O3 1.238 . S
O21 Mn0 2.281 . S
O21 Mn1 2.247 . S
O21 C14 1.283 . S
O22 Mn0 2.374 . S
O22 C14 1.263 . S
Mn23 O29 2.111 . S
Mn23 O34 2.150 . S
Mn23 O36 2.130 . S
Mn23 O44 2.281 . S
Mn23 O45 2.374 . S
Mn24 O25 2.126 . S
Mn24 O30 2.116 . S
Mn24 O35 2.129 . S
Mn24 O38 2.147 . S
Mn24 O42 2.267 . S
Mn24 O44 2.247 . S
O25 Mn24 2.126 . S
O25 C43 1.255 . S
O26 Mn27 2.113 . S
O26 C43 1.238 . S
Mn27 O26 2.113 . S
Mn27 O39 2.101 . S
Mn27 O41 2.372 . S
Mn27 O42 2.265 . S
C28 O29 1.258 . S
C28 O30 1.263 . S
O29 Mn23 2.111 . S
O29 C28 1.258 . S
O30 Mn24 2.116 . S
O30 C28 1.263 . S
P31 O36 1.496 . S
C32 O38 1.252 . S
C32 O39 1.259 . S
C33 O41 1.252 . S
C33 O42 1.273 . S
O34 Mn23 2.150 . S
O34 C40 1.271 . S
O35 Mn24 2.129 . S
O35 C40 1.250 . S
O36 Mn23 2.130 . S
O36 P31 1.496 . S
C37 O44 1.283 . S
C37 O45 1.263 . S
O38 Mn24 2.147 . S
O38 C32 1.252 . S
O39 Mn27 2.101 . S
O39 C32 1.259 . S
C40 O34 1.271 . S
C40 O35 1.250 . S
O41 Mn27 2.372 . S
O41 C33 1.252 . S
O42 Mn24 2.267 . S
O42 Mn27 2.265 . S
O42 C33 1.273 . S
C43 O25 1.255 . S
C43 O26 1.238 . S
O44 Mn23 2.281 . S
O44 Mn24 2.247 . S
O44 C37 1.283 . S
O45 Mn23 2.374 . S
O45 C37 1.263 . S
Mn46 O52 2.111 . S
Mn46 O57 2.150 . S
Mn46 O59 2.130 . S
Mn46 O67 2.281 . S
Mn46 O68 2.374 . S
Mn47 O48 2.126 . S
Mn47 O53 2.116 . S
Mn47 O58 2.129 . S
Mn47 O61 2.147 . S
Mn47 O65 2.267 . S
Mn47 O67 2.247 . S
O48 Mn47 2.126 . S
O48 C66 1.255 . S
O49 Mn50 2.113 . S
O49 C66 1.238 . S
Mn50 O49 2.113 . S
Mn50 O62 2.101 . S
Mn50 O64 2.372 . S
Mn50 O65 2.265 . S
C51 O52 1.258 . S
C51 O53 1.263 . S
O52 Mn46 2.111 . S
O52 C51 1.258 . S
O53 Mn47 2.116 . S
O53 C51 1.263 . S
P54 O59 1.496 . S
C55 O61 1.252 . S
C55 O62 1.259 . S
C56 O64 1.252 . S
C56 O65 1.273 . S
O57 Mn46 2.150 . S
O57 C63 1.271 . S
O58 Mn47 2.129 . S
O58 C63 1.250 . S
O59 Mn46 2.130 . S
O59 P54 1.496 . S
C60 O67 1.283 . S
C60 O68 1.263 . S
O61 Mn47 2.147 . S
O61 C55 1.252 . S
O62 Mn50 2.101 . S
O62 C55 1.259 . S
C63 O57 1.271 . S
C63 O58 1.250 . S
O64 Mn50 2.372 . S
O64 C56 1.252 . S
O65 Mn47 2.267 . S
O65 Mn50 2.265 . S
O65 C56 1.273 . S
C66 O48 1.255 . S
C66 O49 1.238 . S
O67 Mn46 2.281 . S
O67 Mn47 2.247 . S
O67 C60 1.283 . S
O68 Mn46 2.374 . S
O68 C60 1.263 . S
Mn69 O75 2.111 . S
Mn69 O80 2.150 . S
Mn69 O82 2.130 . S
Mn69 O90 2.281 . S
Mn69 O91 2.374 . S
Mn70 O71 2.126 . S
Mn70 O76 2.116 . S
Mn70 O81 2.129 . S
Mn70 O84 2.147 . S
Mn70 O88 2.267 . S
Mn70 O90 2.247 . S
O71 Mn70 2.126 . S
O71 C89 1.255 . S
O72 Mn73 2.113 . S
O72 C89 1.238 . S
Mn73 O72 2.113 . S
Mn73 O85 2.101 . S
Mn73 O87 2.372 . S
Mn73 O88 2.265 . S
C74 O75 1.258 . S
C74 O76 1.263 . S
O75 Mn69 2.111 . S
O75 C74 1.258 . S
O76 Mn70 2.116 . S
O76 C74 1.263 . S
P77 O82 1.496 . S
C78 O84 1.252 . S
C78 O85 1.259 . S
C79 O87 1.252 . S
C79 O88 1.273 . S
O80 Mn69 2.150 . S
O80 C86 1.271 . S
O81 Mn70 2.129 . S
O81 C86 1.250 . S
O82 Mn69 2.130 . S
O82 P77 1.496 . S
C83 O90 1.283 . S
C83 O91 1.263 . S
O84 Mn70 2.147 . S
O84 C78 1.252 . S
O85 Mn73 2.101 . S
O85 C78 1.259 . S
C86 O80 1.271 . S
C86 O81 1.250 . S
O87 Mn73 2.372 . S
O87 C79 1.252 . S
O88 Mn70 2.267 . S
O88 Mn73 2.265 . S
O88 C79 1.273 . S
C89 O71 1.255 . S
C89 O72 1.238 . S
O90 Mn69 2.281 . S
O90 Mn70 2.247 . S
O90 C83 1.283 . S
O91 Mn69 2.374 . S
O91 C83 1.263 . S
Mn92 O98 2.111 . S
Mn92 O103 2.150 . S
Mn92 O105 2.130 . S
Mn92 O113 2.281 . S
Mn92 O114 2.374 . S
Mn93 O94 2.126 . S
Mn93 O99 2.116 . S
Mn93 O104 2.129 . S
Mn93 O107 2.147 . S
Mn93 O111 2.267 . S
Mn93 O113 2.247 . S
O94 Mn93 2.126 . S
O94 C112 1.255 . S
O95 Mn96 2.113 . S
O95 C112 1.238 . S
Mn96 O95 2.113 . S
Mn96 O108 2.101 . S
Mn96 O110 2.372 . S
Mn96 O111 2.265 . S
C97 O98 1.258 . S
C97 O99 1.263 . S
O98 Mn92 2.111 . S
O98 C97 1.258 . S
O99 Mn93 2.116 . S
O99 C97 1.263 . S
P100 O105 1.496 . S
C101 O107 1.252 . S
C101 O108 1.259 . S
C102 O110 1.252 . S
C102 O111 1.273 . S
O103 Mn92 2.150 . S
O103 C109 1.271 . S
O104 Mn93 2.129 . S
O104 C109 1.250 . S
O105 Mn92 2.130 . S
O105 P100 1.496 . S
C106 O113 1.283 . S
C106 O114 1.263 . S
O107 Mn93 2.147 . S
O107 C101 1.252 . S
O108 Mn96 2.101 . S
O108 C101 1.259 . S
C109 O103 1.271 . S
C109 O104 1.250 . S
O110 Mn96 2.372 . S
O110 C102 1.252 . S
O111 Mn93 2.267 . S
O111 Mn96 2.265 . S
O111 C102 1.273 . S
C112 O94 1.255 . S
C112 O95 1.238 . S
O113 Mn92 2.281 . S
O113 Mn93 2.247 . S
O113 C106 1.283 . S
O114 Mn92 2.374 . S
O114 C106 1.263 . S
Mn115 O121 2.111 . S
Mn115 O126 2.150 . S
Mn115 O128 2.130 . S
Mn115 O136 2.281 . S
Mn115 O137 2.374 . S
Mn116 O117 2.126 . S
Mn116 O122 2.116 . S
Mn116 O127 2.129 . S
Mn116 O130 2.147 . S
Mn116 O134 2.267 . S
Mn116 O136 2.247 . S
O117 Mn116 2.126 . S
O117 C135 1.255 . S
O118 Mn119 2.113 . S
O118 C135 1.238 . S
Mn119 O118 2.113 . S
Mn119 O131 2.101 . S
Mn119 O133 2.372 . S
Mn119 O134 2.265 . S
C120 O121 1.258 . S
C120 O122 1.263 . S
O121 Mn115 2.111 . S
O121 C120 1.258 . S
O122 Mn116 2.116 . S
O122 C120 1.263 . S
P123 O128 1.496 . S
C124 O130 1.252 . S
C124 O131 1.259 . S
C125 O133 1.252 . S
C125 O134 1.273 . S
O126 Mn115 2.150 . S
O126 C132 1.271 . S
O127 Mn116 2.129 . S
O127 C132 1.250 . S
O128 Mn115 2.130 . S
O128 P123 1.496 . S
C129 O136 1.283 . S
C129 O137 1.263 . S
O130 Mn116 2.147 . S
O130 C124 1.252 . S
O131 Mn119 2.101 . S
O131 C124 1.259 . S
C132 O126 1.271 . S
C132 O127 1.250 . S
O133 Mn119 2.372 . S
O133 C125 1.252 . S
O134 Mn116 2.267 . S
O134 Mn119 2.265 . S
O134 C125 1.273 . S
C135 O117 1.255 . S
C135 O118 1.238 . S
O136 Mn115 2.281 . S
O136 Mn116 2.247 . S
O136 C129 1.283 . S
O137 Mn115 2.374 . S
O137 C129 1.263 . S
Mn138 O144 2.111 . S
Mn138 O149 2.150 . S
Mn138 O151 2.130 . S
Mn138 O159 2.281 . S
Mn138 O160 2.374 . S
Mn139 O140 2.126 . S
Mn139 O145 2.116 . S
Mn139 O150 2.129 . S
Mn139 O153 2.147 . S
Mn139 O157 2.267 . S
Mn139 O159 2.247 . S
O140 Mn139 2.126 . S
O140 C158 1.255 . S
O141 Mn142 2.113 . S
O141 C158 1.238 . S
Mn142 O141 2.113 . S
Mn142 O154 2.101 . S
Mn142 O156 2.372 . S
Mn142 O157 2.265 . S
C143 O144 1.258 . S
C143 O145 1.263 . S
O144 Mn138 2.111 . S
O144 C143 1.258 . S
O145 Mn139 2.116 . S
O145 C143 1.263 . S
P146 O151 1.496 . S
C147 O153 1.252 . S
C147 O154 1.259 . S
C148 O156 1.252 . S
C148 O157 1.273 . S
O149 Mn138 2.150 . S
O149 C155 1.271 . S
O150 Mn139 2.129 . S
O150 C155 1.250 . S
O151 Mn138 2.130 . S
O151 P146 1.496 . S
C152 O159 1.283 . S
C152 O160 1.263 . S
O153 Mn139 2.147 . S
O153 C147 1.252 . S
O154 Mn142 2.101 . S
O154 C147 1.259 . S
C155 O149 1.271 . S
C155 O150 1.250 . S
O156 Mn142 2.372 . S
O156 C148 1.252 . S
O157 Mn139 2.267 . S
O157 Mn142 2.265 . S
O157 C148 1.273 . S
C158 O140 1.255 . S
C158 O141 1.238 . S
O159 Mn138 2.281 . S
O159 Mn139 2.247 . S
O159 C152 1.283 . S
O160 Mn138 2.374 . S
O160 C152 1.263 . S
Mn161 O167 2.111 . S
Mn161 O172 2.150 . S
Mn161 O174 2.130 . S
Mn161 O182 2.281 . S
Mn161 O183 2.374 . S
Mn162 O163 2.126 . S
Mn162 O168 2.116 . S
Mn162 O173 2.129 . S
Mn162 O176 2.147 . S
Mn162 O180 2.267 . S
Mn162 O182 2.247 . S
O163 Mn162 2.126 . S
O163 C181 1.255 . S
O164 Mn165 2.113 . S
O164 C181 1.238 . S
Mn165 O164 2.113 . S
Mn165 O177 2.101 . S
Mn165 O179 2.372 . S
Mn165 O180 2.265 . S
C166 O167 1.258 . S
C166 O168 1.263 . S
O167 Mn161 2.111 . S
O167 C166 1.258 . S
O168 Mn162 2.116 . S
O168 C166 1.263 . S
P169 O174 1.496 . S
C170 O176 1.252 . S
C170 O177 1.259 . S
C171 O179 1.252 . S
C171 O180 1.273 . S
O172 Mn161 2.150 . S
O172 C178 1.271 . S
O173 Mn162 2.129 . S
O173 C178 1.250 . S
O174 Mn161 2.130 . S
O174 P169 1.496 . S
C175 O182 1.283 . S
C175 O183 1.263 . S
O176 Mn162 2.147 . S
O176 C170 1.252 . S
O177 Mn165 2.101 . S
O177 C170 1.259 . S
C178 O172 1.271 . S
C178 O173 1.250 . S
O179 Mn165 2.372 . S
O179 C171 1.252 . S
O180 Mn162 2.267 . S
O180 Mn165 2.265 . S
O180 C171 1.273 . S
C181 O163 1.255 . S
C181 O164 1.238 . S
O182 Mn161 2.281 . S
O182 Mn162 2.247 . S
O182 C175 1.283 . S
O183 Mn161 2.374 . S
O183 C175 1.263 . S
H184 C202 0.951 . S
H185 C204 0.951 1_556 S
H186 C206 0.950 1_556 S
H187 C207 0.950 . S
H188 C209 0.950 . S
H189 C212 0.950 . S
H190 C213 0.950 . S
H191 C215 0.950 . S
H192 C216 0.950 . S
H193 C217 0.951 . S
H194 C219 0.951 . S
H195 C221 0.950 . S
H196 C222 0.950 . S
H197 C224 0.950 . S
H198 C227 0.950 . S
H199 C228 0.950 . S
H200 C230 0.950 . S
H201 C231 0.950 . S
C202 H184 0.951 . S
C202 C203 1.366 . S
C202 C204 1.388 . S
C203 C202 1.366 . S
C203 C207 1.385 . S
C204 H185 0.951 1_554 S
C204 C202 1.388 . S
C204 C205 1.366 1_554 S
C205 C204 1.366 1_556 S
C205 C206 1.414 1_556 S
C205 C208 1.499 . S
C206 H186 0.950 1_554 S
C206 C205 1.414 1_554 S
C206 C207 1.374 . S
C207 H187 0.950 . S
C207 C203 1.385 . S
C207 C206 1.374 . S
C208 C205 1.499 . S
C208 C209 1.373 . S
C208 C210 1.389 . S
C209 H188 0.950 . S
C209 C208 1.373 . S
C209 C225 1.377 . S
C210 C208 1.389 . S
C210 C211 1.524 . S
C210 C224 1.377 . S
C211 C210 1.524 . S
C211 C212 1.397 . S
C211 C216 1.363 . S
C212 H189 0.950 . S
C212 C211 1.397 . S
C212 C213 1.334 . S
C213 H190 0.950 . S
C213 C212 1.334 . S
C213 C214 1.287 . S
C214 C213 1.287 . S
C214 C215 1.524 . S
C214 H233 0.913 . S
C215 H191 0.950 . S
C215 C214 1.524 . S
C215 C216 1.415 . S
C216 H192 0.950 . S
C216 C211 1.363 . S
C216 C215 1.415 . S
C217 H193 0.951 . S
C217 C218 1.366 . S
C217 C219 1.388 . S
C218 C217 1.366 . S
C218 C222 1.385 . S
C219 H194 0.951 . S
C219 C217 1.388 . S
C219 C220 1.366 . S
C220 C219 1.366 . S
C220 C221 1.414 . S
C220 C223 1.499 . S
C221 H195 0.950 . S
C221 C220 1.414 . S
C221 C222 1.374 . S
C222 H196 0.950 . S
C222 C218 1.385 . S
C222 C221 1.374 . S
C223 C220 1.499 . S
C223 C224 1.373 . S
C223 C225 1.389 . S
C224 H197 0.950 . S
C224 C210 1.377 . S
C224 C223 1.373 . S
C225 C209 1.377 . S
C225 C223 1.389 . S
C225 C226 1.524 . S
C226 C225 1.524 . S
C226 C227 1.397 . S
C226 C231 1.363 . S
C227 H198 0.950 . S
C227 C226 1.397 . S
C227 C228 1.334 . S
C228 H199 0.950 . S
C228 C227 1.334 . S
C228 C229 1.287 . S
C229 C228 1.287 . S
C229 C230 1.524 . S
C229 H232 0.999 . S
C230 H200 0.950 . S
C230 C229 1.524 . S
C230 C231 1.415 . S
C231 H201 0.950 . S
C231 C226 1.363 . S
C231 C230 1.415 . S
H232 C229 0.999 . S
H233 C214 0.913 . S
H234 C252 0.951 . S
H235 C254 0.951 . S
H236 C256 0.950 1_554 S
H237 C257 0.950 . S
H238 C259 0.950 . S
H239 C262 0.950 . S
H240 C263 0.950 . S
H241 C265 0.950 . S
H242 C266 0.950 . S
H243 C267 0.951 . S
H244 C269 0.951 . S
H245 C271 0.950 . S
H246 C272 0.950 . S
H247 C274 0.950 . S
H248 C277 0.950 . S
H249 C278 0.950 . S
H250 C280 0.950 . S
H251 C281 0.950 . S
C252 H234 0.951 . S
C252 C253 1.366 . S
C252 C254 1.388 . S
C253 C252 1.366 . S
C253 C257 1.385 . S
C254 H235 0.951 . S
C254 C252 1.388 . S
C254 C255 1.366 1_556 S
C255 C254 1.366 1_554 S
C255 C256 1.414 1_554 S
C255 C258 1.499 . S
C256 H236 0.950 1_556 S
C256 C255 1.414 1_556 S
C256 C257 1.374 . S
C257 H237 0.950 . S
C257 C253 1.385 . S
C257 C256 1.374 . S
C258 C255 1.499 . S
C258 C259 1.373 . S
C258 C260 1.389 . S
C259 H238 0.950 . S
C259 C258 1.373 . S
C259 C275 1.377 . S
C260 C258 1.389 . S
C260 C261 1.524 . S
C260 C274 1.377 . S
C261 C260 1.524 . S
C261 C262 1.397 . S
C261 C266 1.363 . S
C262 H239 0.950 . S
C262 C261 1.397 . S
C262 C263 1.334 . S
C263 H240 0.950 . S
C263 C262 1.334 . S
C263 C264 1.287 . S
C264 C263 1.287 . S
C264 C265 1.524 . S
C264 H283 0.913 . S
C265 H241 0.950 . S
C265 C264 1.524 . S
C265 C266 1.415 . S
C266 H242 0.950 . S
C266 C261 1.363 . S
C266 C265 1.415 . S
C267 H243 0.951 . S
C267 C268 1.366 . S
C267 C269 1.388 . S
C268 C267 1.366 . S
C268 C272 1.385 . S
C269 H244 0.951 . S
C269 C267 1.388 . S
C269 C270 1.366 . S
C270 C269 1.366 . S
C270 C271 1.414 . S
C270 C273 1.499 . S
C271 H245 0.950 . S
C271 C270 1.414 . S
C271 C272 1.374 . S
C272 H246 0.950 . S
C272 C268 1.385 . S
C272 C271 1.374 . S
C273 C270 1.499 . S
C273 C274 1.373 . S
C273 C275 1.389 . S
C274 H247 0.950 . S
C274 C260 1.377 . S
C274 C273 1.373 . S
C275 C259 1.377 . S
C275 C273 1.389 . S
C275 C276 1.524 . S
C276 C275 1.524 . S
C276 C277 1.397 . S
C276 C281 1.363 . S
C277 H248 0.950 . S
C277 C276 1.397 . S
C277 C278 1.334 . S
C278 H249 0.950 . S
C278 C277 1.334 . S
C278 C279 1.287 . S
C279 C278 1.287 . S
C279 C280 1.524 . S
C279 H282 0.999 . S
C280 H250 0.950 . S
C280 C279 1.524 . S
C280 C281 1.415 . S
C281 H251 0.950 . S
C281 C276 1.363 . S
C281 C280 1.415 . S
H282 C279 0.999 . S
H283 C264 0.913 . S
H284 C302 0.951 . S
H285 C304 0.951 . S
H286 C306 0.950 . S
H287 C307 0.950 . S
H288 C309 0.950 . S
H289 C312 0.950 . S
H290 C313 0.950 . S
H291 C315 0.950 . S
H292 C316 0.950 . S
H293 C317 0.951 . S
H294 C319 0.951 . S
H295 C321 0.950 . S
H296 C322 0.950 . S
H297 C324 0.950 . S
H298 C327 0.950 . S
H299 C328 0.950 . S
H300 C330 0.950 . S
H301 C331 0.950 . S
C302 H284 0.951 . S
C302 C303 1.366 . S
C302 C304 1.388 . S
C303 C302 1.366 . S
C303 C307 1.385 . S
C304 H285 0.951 . S
C304 C302 1.388 . S
C304 C305 1.366 . S
C305 C304 1.366 . S
C305 C306 1.414 . S
C305 C308 1.499 . S
C306 H286 0.950 . S
C306 C305 1.414 . S
C306 C307 1.374 . S
C307 H287 0.950 . S
C307 C303 1.385 . S
C307 C306 1.374 . S
C308 C305 1.499 . S
C308 C309 1.373 . S
C308 C310 1.389 . S
C309 H288 0.950 . S
C309 C308 1.373 . S
C309 C325 1.377 . S
C310 C308 1.389 . S
C310 C311 1.524 . S
C310 C324 1.377 . S
C311 C310 1.524 . S
C311 C312 1.397 . S
C311 C316 1.363 . S
C312 H289 0.950 . S
C312 C311 1.397 . S
C312 C313 1.334 . S
C313 H290 0.950 . S
C313 C312 1.334 . S
C313 C314 1.287 . S
C314 C313 1.287 . S
C314 C315 1.524 . S
C314 H333 0.913 . S
C315 H291 0.950 . S
C315 C314 1.524 . S
C315 C316 1.415 . S
C316 H292 0.950 . S
C316 C311 1.363 . S
C316 C315 1.415 . S
C317 H293 0.951 . S
C317 C318 1.366 . S
C317 C319 1.388 . S
C318 C317 1.366 . S
C318 C322 1.385 . S
C319 H294 0.951 . S
C319 C317 1.388 . S
C319 C320 1.366 1_554 S
C320 C319 1.366 1_556 S
C320 C321 1.414 . S
C320 C323 1.499 . S
C321 H295 0.950 . S
C321 C320 1.414 . S
C321 C322 1.374 1_556 S
C322 H296 0.950 . S
C322 C318 1.385 . S
C322 C321 1.374 1_554 S
C323 C320 1.499 . S
C323 C324 1.373 . S
C323 C325 1.389 . S
C324 H297 0.950 . S
C324 C310 1.377 . S
C324 C323 1.373 . S
C325 C309 1.377 . S
C325 C323 1.389 . S
C325 C326 1.524 . S
C326 C325 1.524 . S
C326 C327 1.397 . S
C326 C331 1.363 . S
C327 H298 0.950 . S
C327 C326 1.397 . S
C327 C328 1.334 . S
C328 H299 0.950 . S
C328 C327 1.334 . S
C328 C329 1.287 . S
C329 C328 1.287 . S
C329 C330 1.524 . S
C329 H332 0.999 . S
C330 H300 0.950 . S
C330 C329 1.524 . S
C330 C331 1.415 . S
C331 H301 0.950 . S
C331 C326 1.363 . S
C331 C330 1.415 . S
H332 C329 0.999 . S
H333 C314 0.913 . S
H334 C352 0.951 . S
H335 C354 0.951 1_554 S
H336 C356 0.950 . S
H337 C357 0.950 . S
H338 C359 0.950 . S
H339 C362 0.950 . S
H340 C363 0.950 1_556 S
H341 C365 0.950 . S
H342 C366 0.950 . S
H343 C367 0.951 . S
H344 C369 0.951 . S
H345 C371 0.950 . S
H346 C372 0.950 . S
H347 C374 0.950 . S
H348 C377 0.950 . S
H349 C378 0.950 . S
H350 C380 0.950 . S
H351 C381 0.950 . S
C352 H334 0.951 . S
C352 C353 1.366 . S
C352 C354 1.388 . S
C353 C352 1.366 . S
C353 C357 1.385 . S
C354 H335 0.951 1_556 S
C354 C352 1.388 . S
C354 C355 1.366 1_556 S
C355 C354 1.366 1_554 S
C355 C356 1.414 1_554 S
C355 C358 1.499 . S
C356 H336 0.950 . S
C356 C355 1.414 1_556 S
C356 C357 1.374 . S
C357 H337 0.950 . S
C357 C353 1.385 . S
C357 C356 1.374 . S
C358 C355 1.499 . S
C358 C359 1.373 . S
C358 C360 1.389 . S
C359 H338 0.950 . S
C359 C358 1.373 . S
C359 C375 1.377 . S
C360 C358 1.389 . S
C360 C361 1.524 . S
C360 C374 1.377 . S
C361 C360 1.524 . S
C361 C362 1.397 . S
C361 C366 1.363 . S
C362 H339 0.950 . S
C362 C361 1.397 . S
C362 C363 1.334 . S
C363 H340 0.950 1_554 S
C363 C362 1.334 . S
C363 C364 1.287 . S
C364 C363 1.287 . S
C364 C365 1.524 . S
C364 H383 0.913 . S
C365 H341 0.950 . S
C365 C364 1.524 . S
C365 C366 1.415 . S
C366 H342 0.950 . S
C366 C361 1.363 . S
C366 C365 1.415 . S
C367 H343 0.951 . S
C367 C368 1.366 . S
C367 C369 1.388 . S
C368 C367 1.366 . S
C368 C372 1.385 . S
C369 H344 0.951 . S
C369 C367 1.388 . S
C369 C370 1.366 . S
C370 C369 1.366 . S
C370 C371 1.414 . S
C370 C373 1.499 . S
C371 H345 0.950 . S
C371 C370 1.414 . S
C371 C372 1.374 . S
C372 H346 0.950 . S
C372 C368 1.385 . S
C372 C371 1.374 . S
C373 C370 1.499 . S
C373 C374 1.373 . S
C373 C375 1.389 . S
C374 H347 0.950 . S
C374 C360 1.377 . S
C374 C373 1.373 . S
C375 C359 1.377 . S
C375 C373 1.389 . S
C375 C376 1.524 . S
C376 C375 1.524 . S
C376 C377 1.397 . S
C376 C381 1.363 . S
C377 H348 0.950 . S
C377 C376 1.397 . S
C377 C378 1.334 . S
C378 H349 0.950 . S
C378 C377 1.334 . S
C378 C379 1.287 . S
C379 C378 1.287 . S
C379 C380 1.524 . S
C379 H382 0.999 . S
C380 H350 0.950 . S
C380 C379 1.524 . S
C380 C381 1.415 . S
C381 H351 0.950 . S
C381 C376 1.363 . S
C381 C380 1.415 . S
H382 C379 0.999 . S
H383 C364 0.913 . S
H384 C402 0.951 . S
H385 C404 0.951 . S
H386 C406 0.950 . S
H387 C407 0.950 . S
H388 C409 0.950 . S
H389 C412 0.950 . S
H390 C413 0.950 . S
H391 C415 0.950 . S
H392 C416 0.950 . S
H393 C417 0.951 . S
H394 C419 0.951 1_655 S
H395 C421 0.950 . S
H396 C422 0.950 . S
H397 C424 0.950 . S
H398 C427 0.950 . S
H399 C428 0.950 1_455 S
H400 C430 0.950 . S
H401 C431 0.950 . S
C402 H384 0.951 . S
C402 C403 1.366 . S
C402 C404 1.388 . S
C403 C402 1.366 . S
C403 C407 1.385 . S
C404 H385 0.951 . S
C404 C402 1.388 . S
C404 C405 1.366 . S
C405 C404 1.366 . S
C405 C406 1.414 . S
C405 C408 1.499 . S
C406 H386 0.950 . S
C406 C405 1.414 . S
C406 C407 1.374 . S
C407 H387 0.950 . S
C407 C403 1.385 . S
C407 C406 1.374 . S
C408 C405 1.499 . S
C408 C409 1.373 . S
C408 C410 1.389 . S
C409 H388 0.950 . S
C409 C408 1.373 . S
C409 C425 1.377 . S
C410 C408 1.389 . S
C410 C411 1.524 . S
C410 C424 1.377 . S
C411 C410 1.524 . S
C411 C412 1.397 . S
C411 C416 1.363 . S
C412 H389 0.950 . S
C412 C411 1.397 . S
C412 C413 1.334 . S
C413 H390 0.950 . S
C413 C412 1.334 . S
C413 C414 1.287 . S
C414 C413 1.287 . S
C414 C415 1.524 . S
C414 H433 0.913 . S
C415 H391 0.950 . S
C415 C414 1.524 . S
C415 C416 1.415 . S
C416 H392 0.950 . S
C416 C411 1.363 . S
C416 C415 1.415 . S
C417 H393 0.951 . S
C417 C418 1.366 . S
C417 C419 1.388 . S
C418 C417 1.366 . S
C418 C422 1.385 . S
C419 H394 0.951 1_455 S
C419 C417 1.388 . S
C419 C420 1.366 . S
C420 C419 1.366 . S
C420 C421 1.414 . S
C420 C423 1.499 1_455 S
C421 H395 0.950 . S
C421 C420 1.414 . S
C421 C422 1.374 . S
C422 H396 0.950 . S
C422 C418 1.385 . S
C422 C421 1.374 . S
C423 C420 1.499 1_655 S
C423 C424 1.373 . S
C423 C425 1.389 . S
C424 H397 0.950 . S
C424 C410 1.377 . S
C424 C423 1.373 . S
C425 C409 1.377 . S
C425 C423 1.389 . S
C425 C426 1.524 . S
C426 C425 1.524 . S
C426 C427 1.397 . S
C426 C431 1.363 . S
C427 H398 0.950 . S
C427 C426 1.397 . S
C427 C428 1.334 . S
C428 H399 0.950 1_655 S
C428 C427 1.334 . S
C428 C429 1.287 . S
C429 C428 1.287 . S
C429 C430 1.524 . S
C429 H432 0.999 . S
C430 H400 0.950 . S
C430 C429 1.524 . S
C430 C431 1.415 . S
C431 H401 0.950 . S
C431 C426 1.363 . S
C431 C430 1.415 . S
H432 C429 0.999 . S
H433 C414 0.913 . S
H434 C452 0.951 . S
H435 C454 0.951 1_545 S
H436 C456 0.950 . S
H437 C457 0.950 . S
H438 C459 0.950 . S
H439 C462 0.950 . S
H440 C463 0.950 . S
H441 C465 0.950 . S
H442 C466 0.950 . S
H443 C467 0.951 . S
H444 C469 0.951 . S
H445 C471 0.950 . S
H446 C472 0.950 . S
H447 C474 0.950 . S
H448 C477 0.950 . S
H449 C478 0.950 . S
H450 C480 0.950 . S
H451 C481 0.950 . S
C452 H434 0.951 . S
C452 C453 1.366 . S
C452 C454 1.388 . S
C453 C452 1.366 . S
C453 C457 1.385 . S
C454 H435 0.951 1_565 S
C454 C452 1.388 . S
C454 C455 1.366 . S
C455 C454 1.366 . S
C455 C456 1.414 . S
C455 C458 1.499 1_565 S
C456 H436 0.950 . S
C456 C455 1.414 . S
C456 C457 1.374 . S
C457 H437 0.950 . S
C457 C453 1.385 . S
C457 C456 1.374 . S
C458 C455 1.499 1_545 S
C458 C459 1.373 . S
C458 C460 1.389 . S
C459 H438 0.950 . S
C459 C458 1.373 . S
C459 C475 1.377 . S
C460 C458 1.389 . S
C460 C461 1.524 . S
C460 C474 1.377 . S
C461 C460 1.524 . S
C461 C462 1.397 . S
C461 C466 1.363 . S
C462 H439 0.950 . S
C462 C461 1.397 . S
C462 C463 1.334 . S
C463 H440 0.950 . S
C463 C462 1.334 . S
C463 C464 1.287 . S
C464 C463 1.287 . S
C464 C465 1.524 . S
C464 H483 0.913 . S
C465 H441 0.950 . S
C465 C464 1.524 . S
C465 C466 1.415 . S
C466 H442 0.950 . S
C466 C461 1.363 . S
C466 C465 1.415 . S
C467 H443 0.951 . S
C467 C468 1.366 . S
C467 C469 1.388 . S
C468 C467 1.366 . S
C468 C472 1.385 . S
C469 H444 0.951 . S
C469 C467 1.388 . S
C469 C470 1.366 . S
C470 C469 1.366 . S
C470 C471 1.414 . S
C470 C473 1.499 . S
C471 H445 0.950 . S
C471 C470 1.414 . S
C471 C472 1.374 . S
C472 H446 0.950 . S
C472 C468 1.385 . S
C472 C471 1.374 . S
C473 C470 1.499 . S
C473 C474 1.373 . S
C473 C475 1.389 . S
C474 H447 0.950 . S
C474 C460 1.377 . S
C474 C473 1.373 . S
C475 C459 1.377 . S
C475 C473 1.389 . S
C475 C476 1.524 . S
C476 C475 1.524 . S
C476 C477 1.397 . S
C476 C481 1.363 . S
C477 H448 0.950 . S
C477 C476 1.397 . S
C477 C478 1.334 . S
C478 H449 0.950 . S
C478 C477 1.334 . S
C478 C479 1.287 . S
C479 C478 1.287 . S
C479 C480 1.524 . S
C479 H482 0.999 . S
C480 H450 0.950 . S
C480 C479 1.524 . S
C480 C481 1.415 . S
C481 H451 0.950 . S
C481 C476 1.363 . S
C481 C480 1.415 . S
H482 C479 0.999 . S
H483 C464 0.913 . S
H484 C502 0.951 . S
H485 C504 0.951 . S
H486 C506 0.950 . S
H487 C507 0.950 . S
H488 C509 0.950 . S
H489 C512 0.950 . S
H490 C513 0.950 . S
H491 C515 0.950 . S
H492 C516 0.950 . S
H493 C517 0.951 . S
H494 C519 0.951 . S
H495 C521 0.950 . S
H496 C522 0.950 . S
H497 C524 0.950 . S
H498 C527 0.950 1_655 S
H499 C528 0.950 . S
H500 C530 0.950 . S
H501 C531 0.950 . S
C502 H484 0.951 . S
C502 C503 1.366 . S
C502 C504 1.388 . S
C503 C502 1.366 . S
C503 C507 1.385 . S
C504 H485 0.951 . S
C504 C502 1.388 . S
C504 C505 1.366 . S
C505 C504 1.366 . S
C505 C506 1.414 . S
C505 C508 1.499 . S
C506 H486 0.950 . S
C506 C505 1.414 . S
C506 C507 1.374 . S
C507 H487 0.950 . S
C507 C503 1.385 . S
C507 C506 1.374 . S
C508 C505 1.499 . S
C508 C509 1.373 . S
C508 C510 1.389 . S
C509 H488 0.950 . S
C509 C508 1.373 . S
C509 C525 1.377 . S
C510 C508 1.389 . S
C510 C511 1.524 . S
C510 C524 1.377 . S
C511 C510 1.524 . S
C511 C512 1.397 . S
C511 C516 1.363 . S
C512 H489 0.950 . S
C512 C511 1.397 . S
C512 C513 1.334 . S
C513 H490 0.950 . S
C513 C512 1.334 . S
C513 C514 1.287 . S
C514 C513 1.287 . S
C514 C515 1.524 . S
C514 H533 0.913 . S
C515 H491 0.950 . S
C515 C514 1.524 . S
C515 C516 1.415 . S
C516 H492 0.950 . S
C516 C511 1.363 . S
C516 C515 1.415 . S
C517 H493 0.951 . S
C517 C518 1.366 . S
C517 C519 1.388 . S
C518 C517 1.366 . S
C518 C522 1.385 . S
C519 H494 0.951 . S
C519 C517 1.388 . S
C519 C520 1.366 . S
C520 C519 1.366 . S
C520 C521 1.414 . S
C520 C523 1.499 1_655 S
C521 H495 0.950 . S
C521 C520 1.414 . S
C521 C522 1.374 . S
C522 H496 0.950 . S
C522 C518 1.385 . S
C522 C521 1.374 . S
C523 C520 1.499 1_455 S
C523 C524 1.373 . S
C523 C525 1.389 . S
C524 H497 0.950 . S
C524 C510 1.377 . S
C524 C523 1.373 . S
C525 C509 1.377 . S
C525 C523 1.389 . S
C525 C526 1.524 . S
C526 C525 1.524 . S
C526 C527 1.397 . S
C526 C531 1.363 . S
C527 H498 0.950 1_455 S
C527 C526 1.397 . S
C527 C528 1.334 1_455 S
C528 H499 0.950 . S
C528 C527 1.334 1_655 S
C528 C529 1.286 . S
C529 C528 1.286 . S
C529 C530 1.525 1_655 S
C529 H532 0.999 . S
C530 H500 0.950 . S
C530 C529 1.525 1_455 S
C530 C531 1.415 . S
C531 H501 0.950 . S
C531 C526 1.363 . S
C531 C530 1.415 . S
H532 C529 0.999 . S
H533 C514 0.913 . S
H534 C552 0.951 . S
H535 C554 0.951 . S
H536 C556 0.950 . S
H537 C557 0.950 . S
H538 C559 0.950 . S
H539 C562 0.950 . S
H540 C563 0.950 . S
H541 C565 0.950 . S
H542 C566 0.950 . S
H543 C567 0.951 . S
H544 C569 0.951 . S
H545 C571 0.950 1_565 S
H546 C572 0.950 . S
H547 C574 0.950 . S
H548 C577 0.950 . S
H549 C578 0.950 . S
H550 C580 0.950 . S
H551 C581 0.950 . S
C552 H534 0.951 . S
C552 C553 1.366 . S
C552 C554 1.388 . S
C553 C552 1.366 . S
C553 C557 1.385 . S
C554 H535 0.951 . S
C554 C552 1.388 . S
C554 C555 1.366 . S
C555 C554 1.366 . S
C555 C556 1.414 . S
C555 C558 1.499 . S
C556 H536 0.950 . S
C556 C555 1.414 . S
C556 C557 1.374 . S
C557 H537 0.950 . S
C557 C553 1.385 . S
C557 C556 1.374 . S
C558 C555 1.499 . S
C558 C559 1.373 . S
C558 C560 1.389 . S
C559 H538 0.950 . S
C559 C558 1.373 . S
C559 C575 1.377 . S
C560 C558 1.389 . S
C560 C561 1.524 . S
C560 C574 1.377 . S
C561 C560 1.524 . S
C561 C562 1.397 . S
C561 C566 1.363 . S
C562 H539 0.950 . S
C562 C561 1.397 . S
C562 C563 1.334 . S
C563 H540 0.950 . S
C563 C562 1.334 . S
C563 C564 1.287 . S
C564 C563 1.287 . S
C564 C565 1.524 . S
C564 H583 0.913 . S
C565 H541 0.950 . S
C565 C564 1.524 . S
C565 C566 1.415 . S
C566 H542 0.950 . S
C566 C561 1.363 . S
C566 C565 1.415 . S
C567 H543 0.951 . S
C567 C568 1.366 . S
C567 C569 1.388 . S
C568 C567 1.366 . S
C568 C572 1.385 . S
C569 H544 0.951 . S
C569 C567 1.388 . S
C569 C570 1.366 1_545 S
C570 C569 1.366 1_565 S
C570 C571 1.414 1_565 S
C570 C573 1.499 . S
C571 H545 0.950 1_545 S
C571 C570 1.414 1_545 S
C571 C572 1.374 . S
C572 H546 0.950 . S
C572 C568 1.385 . S
C572 C571 1.374 . S
C573 C570 1.499 . S
C573 C574 1.373 . S
C573 C575 1.389 . S
C574 H547 0.950 . S
C574 C560 1.377 . S
C574 C573 1.373 . S
C575 C559 1.377 . S
C575 C573 1.389 . S
C575 C576 1.524 . S
C576 C575 1.524 . S
C576 C577 1.397 . S
C576 C581 1.363 . S
C577 H548 0.950 . S
C577 C576 1.397 . S
C577 C578 1.334 1_565 S
C578 H549 0.950 . S
C578 C577 1.334 1_545 S
C578 C579 1.287 . S
C579 C578 1.287 . S
C579 C580 1.524 1_545 S
C579 H582 0.999 . S
C580 H550 0.950 . S
C580 C579 1.524 1_565 S
C580 C581 1.415 . S
C581 H551 0.950 . S
C581 C576 1.363 . S
C581 C580 1.415 . S
H582 C579 0.999 . S
H583 C564 0.913 . S
H584 C602 0.951 . S
H585 C604 0.951 . S
H586 C606 0.950 . S
H587 C607 0.950 . S
H588 C609 0.950 . S
H589 C612 0.950 . S
H590 C613 0.950 . S
H591 C615 0.950 . S
H592 C616 0.950 . S
H593 C617 0.951 . S
H594 C619 0.951 1_655 S
H595 C621 0.950 . S
H596 C622 0.950 . S
H597 C624 0.950 . S
H598 C627 0.950 . S
H599 C628 0.950 . S
H600 C630 0.950 . S
H601 C631 0.950 . S
C602 H584 0.951 . S
C602 C603 1.366 . S
C602 C604 1.388 . S
C603 C602 1.366 . S
C603 C607 1.385 . S
C604 H585 0.951 . S
C604 C602 1.388 . S
C604 C605 1.366 . S
C605 C604 1.366 . S
C605 C606 1.414 . S
C605 C608 1.499 . S
C606 H586 0.950 . S
C606 C605 1.414 . S
C606 C607 1.374 . S
C607 H587 0.950 . S
C607 C603 1.385 . S
C607 C606 1.374 . S
C608 C605 1.499 . S
C608 C609 1.373 . S
C608 C610 1.389 . S
C609 H588 0.950 . S
C609 C608 1.373 . S
C609 C625 1.377 . S
C610 C608 1.389 . S
C610 C611 1.524 . S
C610 C624 1.377 . S
C611 C610 1.524 . S
C611 C612 1.397 . S
C611 C616 1.363 . S
C612 H589 0.950 . S
C612 C611 1.397 . S
C612 C613 1.334 . S
C613 H590 0.950 . S
C613 C612 1.334 . S
C613 C614 1.287 . S
C614 C613 1.287 . S
C614 C615 1.524 . S
C614 H633 0.913 . S
C615 H591 0.950 . S
C615 C614 1.524 . S
C615 C616 1.415 . S
C616 H592 0.950 . S
C616 C611 1.363 . S
C616 C615 1.415 . S
C617 H593 0.951 . S
C617 C618 1.366 . S
C617 C619 1.388 . S
C618 C617 1.366 . S
C618 C622 1.385 . S
C619 H594 0.951 1_455 S
C619 C617 1.388 . S
C619 C620 1.376 . S
C620 C619 1.376 . S
C620 C621 1.438 . S
C620 C623 1.465 1_455 S
C621 H595 0.950 . S
C621 C620 1.438 . S
C621 C622 1.374 . S
C622 H596 0.950 . S
C622 C618 1.385 . S
C622 C621 1.374 . S
C623 C620 1.465 1_655 S
C623 C624 1.373 . S
C623 C625 1.389 . S
C624 H597 0.950 . S
C624 C610 1.377 . S
C624 C623 1.373 . S
C625 C609 1.377 . S
C625 C623 1.389 . S
C625 C626 1.524 . S
C626 C625 1.524 . S
C626 C627 1.397 . S
C626 C631 1.363 . S
C627 H598 0.950 . S
C627 C626 1.397 . S
C627 C628 1.334 1_655 S
C628 H599 0.950 . S
C628 C627 1.334 1_455 S
C628 C629 1.287 1_455 S
C629 C628 1.287 1_655 S
C629 C630 1.524 . S
C629 H632 0.999 1_655 S
C630 H600 0.950 . S
C630 C629 1.524 . S
C630 C631 1.415 . S
C631 H601 0.950 . S
C631 C626 1.363 . S
C631 C630 1.415 . S
H632 C629 0.999 1_455 S
H633 C614 0.913 . S
H634 C652 0.951 . S
H635 C654 0.951 . S
H636 C656 0.950 1_545 S
H637 C657 0.950 . S
H638 C659 0.950 . S
H639 C662 0.950 . S
H640 C663 0.950 . S
H641 C665 0.950 . S
H642 C666 0.950 . S
H643 C667 0.951 . S
H644 C669 0.951 . S
H645 C671 0.950 . S
H646 C672 0.950 . S
H647 C674 0.950 . S
H648 C677 0.950 . S
H649 C678 0.950 . S
H650 C680 0.950 . S
H651 C681 0.950 . S
C652 H634 0.951 . S
C652 C653 1.366 . S
C652 C654 1.388 . S
C653 C652 1.366 . S
C653 C657 1.385 . S
C654 H635 0.951 . S
C654 C652 1.388 . S
C654 C655 1.366 1_565 S
C655 C654 1.366 1_545 S
C655 C656 1.414 1_545 S
C655 C658 1.499 . S
C656 H636 0.950 1_565 S
C656 C655 1.414 1_565 S
C656 C657 1.374 . S
C657 H637 0.950 . S
C657 C653 1.385 . S
C657 C656 1.374 . S
C658 C655 1.499 . S
C658 C659 1.373 . S
C658 C660 1.389 . S
C659 H638 0.950 . S
C659 C658 1.373 . S
C659 C675 1.377 . S
C660 C658 1.389 . S
C660 C661 1.524 . S
C660 C674 1.377 . S
C661 C660 1.524 . S
C661 C662 1.397 . S
C661 C666 1.363 . S
C662 H639 0.950 . S
C662 C661 1.397 . S
C662 C663 1.334 . S
C663 H640 0.950 . S
C663 C662 1.334 . S
C663 C664 1.287 . S
C664 C663 1.287 . S
C664 C665 1.524 . S
C664 H683 0.913 . S
C665 H641 0.950 . S
C665 C664 1.524 . S
C665 C666 1.415 . S
C666 H642 0.950 . S
C666 C661 1.363 . S
C666 C665 1.415 . S
C667 H643 0.951 . S
C667 C668 1.366 . S
C667 C669 1.388 . S
C668 C667 1.366 . S
C668 C672 1.385 . S
C669 H644 0.951 . S
C669 C667 1.388 . S
C669 C670 1.366 . S
C670 C669 1.366 . S
C670 C671 1.414 . S
C670 C673 1.499 . S
C671 H645 0.950 . S
C671 C670 1.414 . S
C671 C672 1.374 . S
C672 H646 0.950 . S
C672 C668 1.385 . S
C672 C671 1.374 . S
C673 C670 1.499 . S
C673 C674 1.373 . S
C673 C675 1.389 . S
C674 H647 0.950 . S
C674 C660 1.377 . S
C674 C673 1.373 . S
C675 C659 1.377 . S
C675 C673 1.389 . S
C675 C676 1.524 . S
C676 C675 1.524 . S
C676 C677 1.397 . S
C676 C681 1.363 . S
C677 H648 0.950 . S
C677 C676 1.397 . S
C677 C678 1.334 . S
C678 H649 0.950 . S
C678 C677 1.334 . S
C678 C679 1.287 . S
C679 C678 1.287 . S
C679 C680 1.524 . S
C679 H682 0.999 . S
C680 H650 0.950 . S
C680 C679 1.524 . S
C680 C681 1.415 . S
C681 H651 0.950 . S
C681 C676 1.363 . S
C681 C680 1.415 . S
H682 C679 0.999 . S
H683 C664 0.913 . S
H684 C702 0.951 . S
H685 C704 0.951 . S
H686 C706 0.950 1_455 S
H687 C707 0.950 . S
H688 C709 0.950 . S
H689 C712 0.947 1_455 S
H690 C713 0.950 . S
H691 C715 0.950 . S
H692 C716 0.950 . S
H693 C717 0.951 . S
H694 C719 0.951 . S
H695 C721 0.950 . S
H696 C722 0.950 . S
H697 C724 0.950 . S
H698 C727 0.950 . S
H699 C728 0.950 . S
H700 C730 0.950 . S
H701 C731 0.950 . S
C702 H684 0.951 . S
C702 C703 1.366 . S
C702 C704 1.388 . S
C703 C702 1.366 . S
C703 C707 1.385 . S
C704 H685 0.951 . S
C704 C702 1.388 . S
C704 C705 1.366 . S
C705 C704 1.366 . S
C705 C706 1.414 . S
C705 C708 1.499 1_655 S
C706 H686 0.950 1_655 S
C706 C705 1.414 . S
C706 C707 1.374 . S
C707 H687 0.950 . S
C707 C703 1.385 . S
C707 C706 1.374 . S
C708 C705 1.499 1_455 S
C708 C709 1.373 . S
C708 C710 1.389 . S
C709 H688 0.950 . S
C709 C708 1.373 . S
C709 C725 1.377 . S
C710 C708 1.389 . S
C710 C711 1.524 . S
C710 C724 1.377 . S
C711 C710 1.524 . S
C711 C712 1.384 1_455 S
C711 C716 1.363 . S
C712 H689 0.947 1_655 S
C712 C711 1.384 1_655 S
C712 C713 1.350 . S
C713 H690 0.950 . S
C713 C712 1.350 . S
C713 C714 1.287 . S
C714 C713 1.287 . S
C714 C715 1.524 . S
C714 H733 0.913 . S
C715 H691 0.950 . S
C715 C714 1.524 . S
C715 C716 1.415 1_655 S
C716 H692 0.950 . S
C716 C711 1.363 . S
C716 C715 1.415 1_455 S
C717 H693 0.951 . S
C717 C718 1.366 . S
C717 C719 1.388 . S
C718 C717 1.366 . S
C718 C722 1.385 . S
C719 H694 0.951 . S
C719 C717 1.388 . S
C719 C720 1.366 . S
C720 C719 1.366 . S
C720 C721 1.414 . S
C720 C723 1.499 . S
C721 H695 0.950 . S
C721 C720 1.414 . S
C721 C722 1.374 . S
C722 H696 0.950 . S
C722 C718 1.385 . S
C722 C721 1.374 . S
C723 C720 1.499 . S
C723 C724 1.373 . S
C723 C725 1.389 . S
C724 H697 0.950 . S
C724 C710 1.377 . S
C724 C723 1.373 . S
C725 C709 1.377 . S
C725 C723 1.389 . S
C725 C726 1.524 . S
C726 C725 1.524 . S
C726 C727 1.397 . S
C726 C731 1.363 . S
C727 H698 0.950 . S
C727 C726 1.397 . S
C727 C728 1.334 . S
C728 H699 0.950 . S
C728 C727 1.334 . S
C728 C729 1.287 . S
C729 C728 1.287 . S
C729 C730 1.524 . S
C729 H732 0.999 . S
C730 H700 0.950 . S
C730 C729 1.524 . S
C730 C731 1.415 . S
C731 H701 0.950 . S
C731 C726 1.363 . S
C731 C730 1.415 . S
H732 C729 0.999 . S
H733 C714 0.913 . S
H734 C752 0.951 . S
H735 C754 0.951 . S
H736 C756 0.950 . S
H737 C757 0.950 . S
H738 C759 0.950 . S
H739 C762 0.950 . S
H740 C763 0.950 . S
H741 C765 0.950 . S
H742 C766 0.950 . S
H743 C767 0.951 . S
H744 C769 0.951 1_565 S
H745 C771 0.950 . S
H746 C772 0.950 . S
H747 C774 0.950 . S
H748 C777 0.950 . S
H749 C778 0.950 . S
H750 C780 0.950 . S
H751 C781 0.950 . S
C752 H734 0.951 . S
C752 C753 1.366 . S
C752 C754 1.388 . S
C753 C752 1.366 . S
C753 C757 1.385 . S
C754 H735 0.951 . S
C754 C752 1.388 . S
C754 C755 1.366 . S
C755 C754 1.366 . S
C755 C756 1.414 . S
C755 C758 1.499 . S
C756 H736 0.950 . S
C756 C755 1.414 . S
C756 C757 1.374 . S
C757 H737 0.950 . S
C757 C753 1.385 . S
C757 C756 1.374 . S
C758 C755 1.499 . S
C758 C759 1.373 . S
C758 C760 1.389 . S
C759 H738 0.950 . S
C759 C758 1.373 . S
C759 C775 1.377 . S
C760 C758 1.389 . S
C760 C761 1.524 . S
C760 C774 1.377 . S
C761 C760 1.524 . S
C761 C762 1.397 . S
C761 C766 1.363 . S
C762 H739 0.950 . S
C762 C761 1.397 . S
C762 C763 1.334 . S
C763 H740 0.950 . S
C763 C762 1.334 . S
C763 C764 1.287 . S
C764 C763 1.287 . S
C764 C765 1.524 . S
C764 H783 0.913 . S
C765 H741 0.950 . S
C765 C764 1.524 . S
C765 C766 1.415 . S
C766 H742 0.950 . S
C766 C761 1.363 . S
C766 C765 1.415 . S
C767 H743 0.951 . S
C767 C768 1.366 . S
C767 C769 1.388 . S
C768 C767 1.366 . S
C768 C772 1.385 . S
C769 H744 0.951 1_545 S
C769 C767 1.388 . S
C769 C770 1.366 1_545 S
C770 C769 1.366 1_565 S
C770 C771 1.414 1_565 S
C770 C773 1.499 . S
C771 H745 0.950 . S
C771 C770 1.414 1_545 S
C771 C772 1.374 . S
C772 H746 0.950 . S
C772 C768 1.385 . S
C772 C771 1.374 . S
C773 C770 1.499 . S
C773 C774 1.373 . S
C773 C775 1.389 . S
C774 H747 0.950 . S
C774 C760 1.377 . S
C774 C773 1.373 . S
C775 C759 1.377 . S
C775 C773 1.389 . S
C775 C776 1.524 . S
C776 C775 1.524 . S
C776 C777 1.397 . S
C776 C781 1.363 . S
C777 H748 0.950 . S
C777 C776 1.397 . S
C777 C778 1.334 . S
C778 H749 0.950 . S
C778 C777 1.334 . S
C778 C779 1.287 . S
C779 C778 1.287 . S
C779 C780 1.524 . S
C779 H782 0.999 . S
C780 H750 0.950 . S
C780 C779 1.524 . S
C780 C781 1.415 . S
C781 H751 0.950 . S
C781 C776 1.363 . S
C781 C780 1.415 . S
H782 C779 0.999 . S
H783 C764 0.913 . S
H784 C802 0.951 . S
H785 C804 0.951 . S
H786 C806 0.950 . S
H787 C807 0.950 . S
H788 C809 0.950 . S
H789 C812 0.950 . S
H790 C813 0.950 . S
H791 C815 0.950 . S
H792 C816 0.950 . S
H793 C817 0.951 . S
H794 C819 0.951 . S
H795 C821 0.950 . S
H796 C822 0.950 . S
H797 C824 0.950 . S
H798 C827 0.950 . S
H799 C828 0.950 . S
H800 C830 0.950 . S
H801 C831 0.950 . S
C802 H784 0.951 . S
C802 C803 1.366 . S
C802 C804 1.388 . S
C803 C802 1.366 . S
C803 C807 1.385 . S
C804 H785 0.951 . S
C804 C802 1.388 . S
C804 C805 1.366 . S
C805 C804 1.366 . S
C805 C806 1.414 . S
C805 C808 1.499 . S
C806 H786 0.950 . S
C806 C805 1.414 . S
C806 C807 1.374 . S
C807 H787 0.950 . S
C807 C803 1.385 . S
C807 C806 1.374 . S
C808 C805 1.499 . S
C808 C809 1.373 . S
C808 C810 1.389 . S
C809 H788 0.950 . S
C809 C808 1.373 . S
C809 C825 1.377 . S
C810 C808 1.389 . S
C810 C811 1.524 . S
C810 C824 1.377 . S
C811 C810 1.524 . S
C811 C812 1.397 . S
C811 C816 1.363 . S
C812 H789 0.950 . S
C812 C811 1.397 . S
C812 C813 1.334 . S
C813 H790 0.950 . S
C813 C812 1.334 . S
C813 C814 1.287 . S
C814 C813 1.287 . S
C814 C815 1.524 . S
C814 H833 0.913 . S
C815 H791 0.950 . S
C815 C814 1.524 . S
C815 C816 1.415 . S
C816 H792 0.950 . S
C816 C811 1.363 . S
C816 C815 1.415 . S
C817 H793 0.951 . S
C817 C818 1.366 . S
C817 C819 1.388 . S
C818 C817 1.366 . S
C818 C822 1.385 . S
C819 H794 0.951 . S
C819 C817 1.388 . S
C819 C820 1.366 . S
C820 C819 1.366 . S
C820 C821 1.414 . S
C820 C823 1.499 . S
C821 H795 0.950 . S
C821 C820 1.414 . S
C821 C822 1.374 . S
C822 H796 0.950 . S
C822 C818 1.385 . S
C822 C821 1.374 . S
C823 C820 1.499 . S
C823 C824 1.373 . S
C823 C825 1.389 . S
C824 H797 0.950 . S
C824 C810 1.377 . S
C824 C823 1.373 . S
C825 C809 1.377 . S
C825 C823 1.389 . S
C825 C826 1.524 . S
C826 C825 1.524 . S
C826 C827 1.397 . S
C826 C831 1.363 . S
C827 H798 0.950 . S
C827 C826 1.397 . S
C827 C828 1.334 . S
C828 H799 0.950 . S
C828 C827 1.334 . S
C828 C829 1.287 . S
C829 C828 1.287 . S
C829 C830 1.524 . S
C829 H832 0.999 . S
C830 H800 0.950 . S
C830 C829 1.524 . S
C830 C831 1.415 . S
C831 H801 0.950 . S
C831 C826 1.363 . S
C831 C830 1.415 . S
H832 C829 0.999 . S
H833 C814 0.913 . S
H834 C852 0.951 . S
H835 C854 0.951 . S
H836 C856 0.950 . S
H837 C857 0.950 . S
H838 C859 0.950 . S
H839 C862 0.950 . S
H840 C863 0.950 . S
H841 C865 0.950 . S
H842 C866 0.950 . S
H843 C867 0.951 . S
H844 C869 0.951 . S
H845 C871 0.950 . S
H846 C872 0.950 . S
H847 C874 0.950 . S
H848 C877 0.950 . S
H849 C878 0.950 . S
H850 C880 0.950 . S
H851 C881 0.950 . S
C852 H834 0.951 . S
C852 C853 1.366 . S
C852 C854 1.388 . S
C853 C852 1.366 . S
C853 C857 1.385 . S
C854 H835 0.951 . S
C854 C852 1.388 . S
C854 C855 1.366 . S
C855 C854 1.366 . S
C855 C856 1.414 . S
C855 C858 1.499 . S
C856 H836 0.950 . S
C856 C855 1.414 . S
C856 C857 1.374 . S
C857 H837 0.950 . S
C857 C853 1.385 . S
C857 C856 1.374 . S
C858 C855 1.499 . S
C858 C859 1.373 . S
C858 C860 1.389 . S
C859 H838 0.950 . S
C859 C858 1.373 . S
C859 C875 1.377 . S
C860 C858 1.389 . S
C860 C861 1.524 . S
C860 C874 1.377 . S
C861 C860 1.524 . S
C861 C862 1.397 . S
C861 C866 1.363 . S
C862 H839 0.950 . S
C862 C861 1.397 . S
C862 C863 1.334 . S
C863 H840 0.950 . S
C863 C862 1.334 . S
C863 C864 1.287 . S
C864 C863 1.287 . S
C864 C865 1.524 . S
C864 H883 0.913 . S
C865 H841 0.950 . S
C865 C864 1.524 . S
C865 C866 1.415 . S
C866 H842 0.950 . S
C866 C861 1.363 . S
C866 C865 1.415 . S
C867 H843 0.951 . S
C867 C868 1.366 . S
C867 C869 1.388 . S
C868 C867 1.366 . S
C868 C872 1.385 . S
C869 H844 0.951 . S
C869 C867 1.388 . S
C869 C870 1.366 . S
C870 C869 1.366 . S
C870 C871 1.414 . S
C870 C873 1.499 . S
C871 H845 0.950 . S
C871 C870 1.414 . S
C871 C872 1.374 . S
C872 H846 0.950 . S
C872 C868 1.385 . S
C872 C871 1.374 . S
C873 C870 1.499 . S
C873 C874 1.373 . S
C873 C875 1.389 . S
C874 H847 0.950 . S
C874 C860 1.377 . S
C874 C873 1.373 . S
C875 C859 1.377 . S
C875 C873 1.389 . S
C875 C876 1.524 . S
C876 C875 1.524 . S
C876 C877 1.397 . S
C876 C881 1.363 . S
C877 H848 0.950 . S
C877 C876 1.397 . S
C877 C878 1.334 . S
C878 H849 0.950 . S
C878 C877 1.334 . S
C878 C879 1.287 . S
C879 C878 1.287 . S
C879 C880 1.524 . S
C879 H882 0.999 . S
C880 H850 0.950 . S
C880 C879 1.524 . S
C880 C881 1.415 . S
C881 H851 0.950 . S
C881 C876 1.363 . S
C881 C880 1.415 . S
H882 C879 0.999 . S
H883 C864 0.913 . S
H884 C902 0.951 . S
H885 C904 0.951 . S
H886 C906 0.950 . S
H887 C907 0.950 . S
H888 C909 0.950 . S
H889 C912 0.950 . S
H890 C913 0.950 . S
H891 C915 0.950 . S
H892 C916 0.950 . S
H893 C917 0.951 . S
H894 C919 0.951 . S
H895 C921 0.950 . S
H896 C922 0.950 . S
H897 C924 0.950 . S
H898 C927 0.950 . S
H899 C928 0.950 . S
H900 C930 0.950 . S
H901 C931 0.950 . S
C902 H884 0.951 . S
C902 C903 1.366 . S
C902 C904 1.388 . S
C903 C902 1.366 . S
C903 C907 1.385 . S
C904 H885 0.951 . S
C904 C902 1.388 . S
C904 C905 1.366 . S
C905 C904 1.366 . S
C905 C906 1.414 . S
C905 C908 1.499 . S
C906 H886 0.950 . S
C906 C905 1.414 . S
C906 C907 1.374 . S
C907 H887 0.950 . S
C907 C903 1.385 . S
C907 C906 1.374 . S
C908 C905 1.499 . S
C908 C909 1.373 . S
C908 C910 1.389 . S
C909 H888 0.950 . S
C909 C908 1.373 . S
C909 C925 1.377 . S
C910 C908 1.389 . S
C910 C911 1.524 . S
C910 C924 1.377 . S
C911 C910 1.524 . S
C911 C912 1.397 . S
C911 C916 1.363 . S
C912 H889 0.950 . S
C912 C911 1.397 . S
C912 C913 1.334 . S
C913 H890 0.950 . S
C913 C912 1.334 . S
C913 C914 1.287 . S
C914 C913 1.287 . S
C914 C915 1.524 . S
C914 H933 0.913 . S
C915 H891 0.950 . S
C915 C914 1.524 . S
C915 C916 1.415 . S
C916 H892 0.950 . S
C916 C911 1.363 . S
C916 C915 1.415 . S
C917 H893 0.951 . S
C917 C918 1.366 . S
C917 C919 1.388 . S
C918 C917 1.366 . S
C918 C922 1.385 . S
C919 H894 0.951 . S
C919 C917 1.388 . S
C919 C920 1.366 . S
C920 C919 1.366 . S
C920 C921 1.414 . S
C920 C923 1.499 . S
C921 H895 0.950 . S
C921 C920 1.414 . S
C921 C922 1.374 . S
C922 H896 0.950 . S
C922 C918 1.385 . S
C922 C921 1.374 . S
C923 C920 1.499 . S
C923 C924 1.373 . S
C923 C925 1.389 . S
C924 H897 0.950 . S
C924 C910 1.377 . S
C924 C923 1.373 . S
C925 C909 1.377 . S
C925 C923 1.389 . S
C925 C926 1.524 . S
C926 C925 1.524 . S
C926 C927 1.397 . S
C926 C931 1.363 . S
C927 H898 0.950 . S
C927 C926 1.397 . S
C927 C928 1.334 . S
C928 H899 0.950 . S
C928 C927 1.334 . S
C928 C929 1.287 . S
C929 C928 1.287 . S
C929 C930 1.524 . S
C929 H932 0.999 . S
C930 H900 0.950 . S
C930 C929 1.524 . S
C930 C931 1.415 . S
C931 H901 0.950 . S
C931 C926 1.363 . S
C931 C930 1.415 . S
H932 C929 0.999 . S
H933 C914 0.913 . S
H934 C952 0.951 . S
H935 C954 0.951 . S
H936 C956 0.950 . S
H937 C957 0.950 . S
H938 C959 0.950 . S
H939 C962 0.950 . S
H940 C963 0.950 . S
H941 C965 0.950 . S
H942 C966 0.950 . S
H943 C967 0.951 . S
H944 C969 0.951 . S
H945 C971 0.950 . S
H946 C972 0.950 . S
H947 C974 0.950 . S
H948 C977 0.950 . S
H949 C978 0.950 . S
H950 C980 0.950 . S
H951 C981 0.950 . S
C952 H934 0.951 . S
C952 C953 1.366 . S
C952 C954 1.388 . S
C953 C952 1.366 . S
C953 C957 1.385 . S
C954 H935 0.951 . S
C954 C952 1.388 . S
C954 C955 1.366 . S
C955 C954 1.366 . S
C955 C956 1.414 . S
C955 C958 1.499 . S
C956 H936 0.950 . S
C956 C955 1.414 . S
C956 C957 1.374 . S
C957 H937 0.950 . S
C957 C953 1.385 . S
C957 C956 1.374 . S
C958 C955 1.499 . S
C958 C959 1.373 . S
C958 C960 1.389 . S
C959 H938 0.950 . S
C959 C958 1.373 . S
C959 C975 1.377 . S
C960 C958 1.389 . S
C960 C961 1.524 . S
C960 C974 1.377 . S
C961 C960 1.524 . S
C961 C962 1.397 . S
C961 C966 1.363 . S
C962 H939 0.950 . S
C962 C961 1.397 . S
C962 C963 1.334 . S
C963 H940 0.950 . S
C963 C962 1.334 . S
C963 C964 1.287 . S
C964 C963 1.287 . S
C964 C965 1.524 . S
C964 H983 0.913 . S
C965 H941 0.950 . S
C965 C964 1.524 . S
C965 C966 1.415 . S
C966 H942 0.950 . S
C966 C961 1.363 . S
C966 C965 1.415 . S
C967 H943 0.951 . S
C967 C968 1.366 . S
C967 C969 1.388 . S
C968 C967 1.366 . S
C968 C972 1.385 . S
C969 H944 0.951 . S
C969 C967 1.388 . S
C969 C970 1.366 . S
C970 C969 1.366 . S
C970 C971 1.414 . S
C970 C973 1.499 . S
C971 H945 0.950 . S
C971 C970 1.414 . S
C971 C972 1.374 . S
C972 H946 0.950 . S
C972 C968 1.385 . S
C972 C971 1.374 . S
C973 C970 1.499 . S
C973 C974 1.373 . S
C973 C975 1.389 . S
C974 H947 0.950 . S
C974 C960 1.377 . S
C974 C973 1.373 . S
C975 C959 1.377 . S
C975 C973 1.389 . S
C975 C976 1.524 . S
C976 C975 1.524 . S
C976 C977 1.397 . S
C976 C981 1.363 . S
C977 H948 0.950 . S
C977 C976 1.397 . S
C977 C978 1.334 . S
C978 H949 0.950 . S
C978 C977 1.334 . S
C978 C979 1.287 . S
C979 C978 1.287 . S
C979 C980 1.524 . S
C979 H982 0.999 . S
C980 H950 0.950 . S
C980 C979 1.524 . S
C980 C981 1.415 . S
C981 H951 0.950 . S
C981 C976 1.363 . S
C981 C980 1.415 . S
H982 C979 0.999 . S
H983 C964 0.913 . S
H984 C1002 0.951 . S
H985 C1004 0.951 . S
H986 C1006 0.950 . S
H987 C1007 0.950 . S
H988 C1009 0.950 . S
H989 C1012 0.950 . S
H990 C1013 0.950 . S
H991 C1015 0.950 . S
H992 C1016 0.950 . S
H993 C1017 0.951 . S
H994 C1019 0.951 . S
H995 C1021 0.950 . S
H996 C1022 0.950 . S
H997 C1024 0.950 . S
H998 C1027 0.950 . S
H999 C1028 0.950 . S
H1000 C1030 0.950 . S
H1001 C1031 0.950 . S
C1002 H984 0.951 . S
C1002 C1003 1.366 . S
C1002 C1004 1.388 . S
C1003 C1002 1.366 . S
C1003 C1007 1.385 . S
C1004 H985 0.951 . S
C1004 C1002 1.388 . S
C1004 C1005 1.366 . S
C1005 C1004 1.366 . S
C1005 C1006 1.414 . S
C1005 C1008 1.499 . S
C1006 H986 0.950 . S
C1006 C1005 1.414 . S
C1006 C1007 1.374 . S
C1007 H987 0.950 . S
C1007 C1003 1.385 . S
C1007 C1006 1.374 . S
C1008 C1005 1.499 . S
C1008 C1009 1.373 . S
C1008 C1010 1.389 . S
C1009 H988 0.950 . S
C1009 C1008 1.373 . S
C1009 C1025 1.377 . S
C1010 C1008 1.389 . S
C1010 C1011 1.524 . S
C1010 C1024 1.377 . S
C1011 C1010 1.524 . S
C1011 C1012 1.397 . S
C1011 C1016 1.363 . S
C1012 H989 0.950 . S
C1012 C1011 1.397 . S
C1012 C1013 1.334 . S
C1013 H990 0.950 . S
C1013 C1012 1.334 . S
C1013 C1014 1.287 . S
C1014 C1013 1.287 . S
C1014 C1015 1.524 . S
C1014 H1033 0.913 . S
C1015 H991 0.950 . S
C1015 C1014 1.524 . S
C1015 C1016 1.415 . S
C1016 H992 0.950 . S
C1016 C1011 1.363 . S
C1016 C1015 1.415 . S
C1017 H993 0.951 . S
C1017 C1018 1.366 . S
C1017 C1019 1.388 . S
C1018 C1017 1.366 . S
C1018 C1022 1.385 . S
C1019 H994 0.951 . S
C1019 C1017 1.388 . S
C1019 C1020 1.366 . S
C1020 C1019 1.366 . S
C1020 C1021 1.414 . S
C1020 C1023 1.499 . S
C1021 H995 0.950 . S
C1021 C1020 1.414 . S
C1021 C1022 1.374 . S
C1022 H996 0.950 . S
C1022 C1018 1.385 . S
C1022 C1021 1.374 . S
C1023 C1020 1.499 . S
C1023 C1024 1.373 . S
C1023 C1025 1.389 . S
C1024 H997 0.950 . S
C1024 C1010 1.377 . S
C1024 C1023 1.373 . S
C1025 C1009 1.377 . S
C1025 C1023 1.389 . S
C1025 C1026 1.524 . S
C1026 C1025 1.524 . S
C1026 C1027 1.397 . S
C1026 C1031 1.363 . S
C1027 H998 0.950 . S
C1027 C1026 1.397 . S
C1027 C1028 1.334 . S
C1028 H999 0.950 . S
C1028 C1027 1.334 . S
C1028 C1029 1.287 . S
C1029 C1028 1.287 . S
C1029 C1030 1.524 . S
C1029 H1032 0.999 . S
C1030 H1000 0.950 . S
C1030 C1029 1.524 . S
C1030 C1031 1.415 . S
C1031 H1001 0.950 . S
C1031 C1026 1.363 . S
C1031 C1030 1.415 . S
H1032 C1029 0.999 . S
H1033 C1014 0.913 . S
H1034 C1052 0.951 . S
H1035 C1054 0.951 . S
H1036 C1056 0.950 . S
H1037 C1057 0.950 . S
H1038 C1059 0.950 . S
H1039 C1062 0.950 . S
H1040 C1063 0.950 . S
H1041 C1065 0.950 . S
H1042 C1066 0.950 . S
H1043 C1067 0.951 . S
H1044 C1069 0.951 . S
H1045 C1071 0.950 . S
H1046 C1072 0.950 . S
H1047 C1074 0.950 . S
H1048 C1077 0.950 . S
H1049 C1078 0.950 . S
H1050 C1080 0.950 . S
H1051 C1081 0.950 . S
C1052 H1034 0.951 . S
C1052 C1053 1.366 . S
C1052 C1054 1.388 . S
C1053 C1052 1.366 . S
C1053 C1057 1.385 . S
C1054 H1035 0.951 . S
C1054 C1052 1.388 . S
C1054 C1055 1.366 . S
C1055 C1054 1.366 . S
C1055 C1056 1.414 . S
C1055 C1058 1.499 . S
C1056 H1036 0.950 . S
C1056 C1055 1.414 . S
C1056 C1057 1.374 . S
C1057 H1037 0.950 . S
C1057 C1053 1.385 . S
C1057 C1056 1.374 . S
C1058 C1055 1.499 . S
C1058 C1059 1.373 . S
C1058 C1060 1.389 . S
C1059 H1038 0.950 . S
C1059 C1058 1.373 . S
C1059 C1075 1.377 . S
C1060 C1058 1.389 . S
C1060 C1061 1.524 . S
C1060 C1074 1.377 . S
C1061 C1060 1.524 . S
C1061 C1062 1.397 . S
C1061 C1066 1.363 . S
C1062 H1039 0.950 . S
C1062 C1061 1.397 . S
C1062 C1063 1.334 . S
C1063 H1040 0.950 . S
C1063 C1062 1.334 . S
C1063 C1064 1.287 . S
C1064 C1063 1.287 . S
C1064 C1065 1.524 . S
C1064 H1083 0.913 . S
C1065 H1041 0.950 . S
C1065 C1064 1.524 . S
C1065 C1066 1.415 . S
C1066 H1042 0.950 . S
C1066 C1061 1.363 . S
C1066 C1065 1.415 . S
C1067 H1043 0.951 . S
C1067 C1068 1.366 . S
C1067 C1069 1.388 . S
C1068 C1067 1.366 . S
C1068 C1072 1.385 . S
C1069 H1044 0.951 . S
C1069 C1067 1.388 . S
C1069 C1070 1.366 . S
C1070 C1069 1.366 . S
C1070 C1071 1.414 . S
C1070 C1073 1.499 . S
C1071 H1045 0.950 . S
C1071 C1070 1.414 . S
C1071 C1072 1.374 . S
C1072 H1046 0.950 . S
C1072 C1068 1.385 . S
C1072 C1071 1.374 . S
C1073 C1070 1.499 . S
C1073 C1074 1.373 . S
C1073 C1075 1.389 . S
C1074 H1047 0.950 . S
C1074 C1060 1.377 . S
C1074 C1073 1.373 . S
C1075 C1059 1.377 . S
C1075 C1073 1.389 . S
C1075 C1076 1.524 . S
C1076 C1075 1.524 . S
C1076 C1077 1.397 . S
C1076 C1081 1.363 . S
C1077 H1048 0.950 . S
C1077 C1076 1.397 . S
C1077 C1078 1.334 . S
C1078 H1049 0.950 . S
C1078 C1077 1.334 . S
C1078 C1079 1.287 . S
C1079 C1078 1.287 . S
C1079 C1080 1.524 . S
C1079 H1082 0.999 . S
C1080 H1050 0.950 . S
C1080 C1079 1.524 . S
C1080 C1081 1.415 . S
C1081 H1051 0.950 . S
C1081 C1076 1.363 . S
C1081 C1080 1.415 . S
H1082 C1079 0.999 . S
H1083 C1064 0.913 . S
H1084 C1102 0.951 . S
H1085 C1104 0.951 . S
H1086 C1106 0.950 . S
H1087 C1107 0.950 . S
H1088 C1109 0.950 . S
H1089 C1112 0.950 . S
H1090 C1113 0.950 . S
H1091 C1115 0.950 . S
H1092 C1116 0.950 . S
H1093 C1117 0.951 . S
H1094 C1119 0.951 . S
H1095 C1121 0.950 . S
H1096 C1122 0.950 . S
H1097 C1124 0.950 . S
H1098 C1127 0.950 . S
H1099 C1128 0.950 . S
H1100 C1130 0.950 . S
H1101 C1131 0.950 . S
C1102 H1084 0.951 . S
C1102 C1103 1.366 . S
C1102 C1104 1.388 . S
C1103 C1102 1.366 . S
C1103 C1107 1.385 . S
C1104 H1085 0.951 . S
C1104 C1102 1.388 . S
C1104 C1105 1.366 . S
C1105 C1104 1.366 . S
C1105 C1106 1.414 . S
C1105 C1108 1.499 . S
C1106 H1086 0.950 . S
C1106 C1105 1.414 . S
C1106 C1107 1.374 . S
C1107 H1087 0.950 . S
C1107 C1103 1.385 . S
C1107 C1106 1.374 . S
C1108 C1105 1.499 . S
C1108 C1109 1.373 . S
C1108 C1110 1.389 . S
C1109 H1088 0.950 . S
C1109 C1108 1.373 . S
C1109 C1125 1.377 . S
C1110 C1108 1.389 . S
C1110 C1111 1.524 . S
C1110 C1124 1.377 . S
C1111 C1110 1.524 . S
C1111 C1112 1.397 . S
C1111 C1116 1.363 . S
C1112 H1089 0.950 . S
C1112 C1111 1.397 . S
C1112 C1113 1.334 . S
C1113 H1090 0.950 . S
C1113 C1112 1.334 . S
C1113 C1114 1.287 . S
C1114 C1113 1.287 . S
C1114 C1115 1.524 . S
C1114 H1133 0.913 . S
C1115 H1091 0.950 . S
C1115 C1114 1.524 . S
C1115 C1116 1.415 . S
C1116 H1092 0.950 . S
C1116 C1111 1.363 . S
C1116 C1115 1.415 . S
C1117 H1093 0.951 . S
C1117 C1118 1.366 . S
C1117 C1119 1.388 . S
C1118 C1117 1.366 . S
C1118 C1122 1.385 . S
C1119 H1094 0.951 . S
C1119 C1117 1.388 . S
C1119 C1120 1.366 . S
C1120 C1119 1.366 . S
C1120 C1121 1.414 . S
C1120 C1123 1.499 . S
C1121 H1095 0.950 . S
C1121 C1120 1.414 . S
C1121 C1122 1.374 . S
C1122 H1096 0.950 . S
C1122 C1118 1.385 . S
C1122 C1121 1.374 . S
C1123 C1120 1.499 . S
C1123 C1124 1.373 . S
C1123 C1125 1.389 . S
C1124 H1097 0.950 . S
C1124 C1110 1.377 . S
C1124 C1123 1.373 . S
C1125 C1109 1.377 . S
C1125 C1123 1.389 . S
C1125 C1126 1.524 . S
C1126 C1125 1.524 . S
C1126 C1127 1.397 . S
C1126 C1131 1.363 . S
C1127 H1098 0.950 . S
C1127 C1126 1.397 . S
C1127 C1128 1.334 . S
C1128 H1099 0.950 . S
C1128 C1127 1.334 . S
C1128 C1129 1.287 . S
C1129 C1128 1.287 . S
C1129 C1130 1.524 . S
C1129 H1132 0.999 . S
C1130 H1100 0.950 . S
C1130 C1129 1.524 . S
C1130 C1131 1.415 . S
C1131 H1101 0.950 . S
C1131 C1126 1.363 . S
C1131 C1130 1.415 . S
H1132 C1129 0.999 . S
H1133 C1114 0.913 . S
H1134 C1152 0.951 . S
H1135 C1154 0.951 . S
H1136 C1156 0.950 . S
H1137 C1157 0.950 . S
H1138 C1159 0.950 . S
H1139 C1162 0.950 . S
H1140 C1163 0.950 . S
H1141 C1165 0.950 . S
H1142 C1166 0.950 . S
H1143 C1167 0.951 . S
H1144 C1169 0.951 . S
H1145 C1171 0.950 . S
H1146 C1172 0.950 . S
H1147 C1174 0.950 . S
H1148 C1177 0.950 . S
H1149 C1178 0.950 . S
H1150 C1180 0.950 . S
H1151 C1181 0.950 . S
C1152 H1134 0.951 . S
C1152 C1153 1.366 . S
C1152 C1154 1.388 . S
C1153 C1152 1.366 . S
C1153 C1157 1.385 . S
C1154 H1135 0.951 . S
C1154 C1152 1.388 . S
C1154 C1155 1.366 . S
C1155 C1154 1.366 . S
C1155 C1156 1.414 . S
C1155 C1158 1.499 . S
C1156 H1136 0.950 . S
C1156 C1155 1.414 . S
C1156 C1157 1.374 . S
C1157 H1137 0.950 . S
C1157 C1153 1.385 . S
C1157 C1156 1.374 . S
C1158 C1155 1.499 . S
C1158 C1159 1.373 . S
C1158 C1160 1.389 . S
C1159 H1138 0.950 . S
C1159 C1158 1.373 . S
C1159 C1175 1.377 . S
C1160 C1158 1.389 . S
C1160 C1161 1.524 . S
C1160 C1174 1.377 . S
C1161 C1160 1.524 . S
C1161 C1162 1.397 . S
C1161 C1166 1.363 . S
C1162 H1139 0.950 . S
C1162 C1161 1.397 . S
C1162 C1163 1.334 . S
C1163 H1140 0.950 . S
C1163 C1162 1.334 . S
C1163 C1164 1.287 . S
C1164 C1163 1.287 . S
C1164 C1165 1.524 . S
C1164 H1183 0.913 . S
C1165 H1141 0.950 . S
C1165 C1164 1.524 . S
C1165 C1166 1.415 . S
C1166 H1142 0.950 . S
C1166 C1161 1.363 . S
C1166 C1165 1.415 . S
C1167 H1143 0.951 . S
C1167 C1168 1.366 . S
C1167 C1169 1.388 . S
C1168 C1167 1.366 . S
C1168 C1172 1.385 . S
C1169 H1144 0.951 . S
C1169 C1167 1.388 . S
C1169 C1170 1.366 . S
C1170 C1169 1.366 . S
C1170 C1171 1.414 . S
C1170 C1173 1.499 . S
C1171 H1145 0.950 . S
C1171 C1170 1.414 . S
C1171 C1172 1.374 . S
C1172 H1146 0.950 . S
C1172 C1168 1.385 . S
C1172 C1171 1.374 . S
C1173 C1170 1.499 . S
C1173 C1174 1.373 . S
C1173 C1175 1.389 . S
C1174 H1147 0.950 . S
C1174 C1160 1.377 . S
C1174 C1173 1.373 . S
C1175 C1159 1.377 . S
C1175 C1173 1.389 . S
C1175 C1176 1.524 . S
C1176 C1175 1.524 . S
C1176 C1177 1.397 . S
C1176 C1181 1.363 . S
C1177 H1148 0.950 . S
C1177 C1176 1.397 . S
C1177 C1178 1.334 . S
C1178 H1149 0.950 . S
C1178 C1177 1.334 . S
C1178 C1179 1.287 . S
C1179 C1178 1.287 . S
C1179 C1180 1.524 . S
C1179 H1182 0.999 . S
C1180 H1150 0.950 . S
C1180 C1179 1.524 . S
C1180 C1181 1.415 . S
C1181 H1151 0.950 . S
C1181 C1176 1.363 . S
C1181 C1180 1.415 . S
H1182 C1179 0.999 . S
H1183 C1164 0.913 . S
H1184 C1202 0.951 . S
H1185 C1204 0.951 . S
H1186 C1206 0.950 . S
H1187 C1207 0.950 . S
H1188 C1209 0.950 . S
H1189 C1212 0.950 . S
H1190 C1213 0.950 . S
H1191 C1215 0.950 . S
H1192 C1216 0.950 . S
H1193 C1217 0.951 . S
H1194 C1219 0.951 . S
H1195 C1221 0.950 . S
H1196 C1222 0.950 . S
H1197 C1224 0.950 . S
H1198 C1227 0.950 . S
H1199 C1228 0.950 . S
H1200 C1230 0.950 . S
H1201 C1231 0.950 . S
C1202 H1184 0.951 . S
C1202 C1203 1.366 . S
C1202 C1204 1.388 . S
C1203 C1202 1.366 . S
C1203 C1207 1.385 . S
C1204 H1185 0.951 . S
C1204 C1202 1.388 . S
C1204 C1205 1.366 . S
C1205 C1204 1.366 . S
C1205 C1206 1.414 . S
C1205 C1208 1.499 . S
C1206 H1186 0.950 . S
C1206 C1205 1.414 . S
C1206 C1207 1.374 . S
C1207 H1187 0.950 . S
C1207 C1203 1.385 . S
C1207 C1206 1.374 . S
C1208 C1205 1.499 . S
C1208 C1209 1.373 . S
C1208 C1210 1.389 . S
C1209 H1188 0.950 . S
C1209 C1208 1.373 . S
C1209 C1225 1.377 . S
C1210 C1208 1.389 . S
C1210 C1211 1.524 . S
C1210 C1224 1.377 . S
C1211 C1210 1.524 . S
C1211 C1212 1.397 . S
C1211 C1216 1.363 . S
C1212 H1189 0.950 . S
C1212 C1211 1.397 . S
C1212 C1213 1.334 . S
C1213 H1190 0.950 . S
C1213 C1212 1.334 . S
C1213 C1214 1.287 . S
C1214 C1213 1.287 . S
C1214 C1215 1.524 . S
C1214 H1233 0.913 . S
C1215 H1191 0.950 . S
C1215 C1214 1.524 . S
C1215 C1216 1.415 . S
C1216 H1192 0.950 . S
C1216 C1211 1.363 . S
C1216 C1215 1.415 . S
C1217 H1193 0.951 . S
C1217 C1218 1.366 . S
C1217 C1219 1.388 . S
C1218 C1217 1.366 . S
C1218 C1222 1.385 . S
C1219 H1194 0.951 . S
C1219 C1217 1.388 . S
C1219 C1220 1.366 . S
C1220 C1219 1.366 . S
C1220 C1221 1.414 . S
C1220 C1223 1.499 . S
C1221 H1195 0.950 . S
C1221 C1220 1.414 . S
C1221 C1222 1.374 . S
C1222 H1196 0.950 . S
C1222 C1218 1.385 . S
C1222 C1221 1.374 . S
C1223 C1220 1.499 . S
C1223 C1224 1.373 . S
C1223 C1225 1.389 . S
C1224 H1197 0.950 . S
C1224 C1210 1.377 . S
C1224 C1223 1.373 . S
C1225 C1209 1.377 . S
C1225 C1223 1.389 . S
C1225 C1226 1.524 . S
C1226 C1225 1.524 . S
C1226 C1227 1.397 . S
C1226 C1231 1.363 . S
C1227 H1198 0.950 . S
C1227 C1226 1.397 . S
C1227 C1228 1.334 . S
C1228 H1199 0.950 . S
C1228 C1227 1.334 . S
C1228 C1229 1.287 . S
C1229 C1228 1.287 . S
C1229 C1230 1.524 . S
C1229 H1232 0.999 . S
C1230 H1200 0.950 . S
C1230 C1229 1.524 . S
C1230 C1231 1.415 . S
C1231 H1201 0.950 . S
C1231 C1226 1.363 . S
C1231 C1230 1.415 . S
H1232 C1229 0.999 . S
H1233 C1214 0.913 . S
H1234 C1252 0.951 . S
H1235 C1254 0.951 . S
H1236 C1256 0.950 . S
H1237 C1257 0.950 . S
H1238 C1259 0.950 . S
H1239 C1262 0.950 . S
H1240 C1263 0.950 . S
H1241 C1265 0.950 . S
H1242 C1266 0.950 . S
H1243 C1267 0.951 . S
H1244 C1269 0.951 . S
H1245 C1271 0.950 . S
H1246 C1272 0.950 . S
H1247 C1274 0.950 . S
H1248 C1277 0.950 . S
H1249 C1278 0.950 . S
H1250 C1280 0.950 . S
H1251 C1281 0.950 . S
C1252 H1234 0.951 . S
C1252 C1253 1.366 . S
C1252 C1254 1.388 . S
C1253 C1252 1.366 . S
C1253 C1257 1.385 . S
C1254 H1235 0.951 . S
C1254 C1252 1.388 . S
C1254 C1255 1.366 . S
C1255 C1254 1.366 . S
C1255 C1256 1.414 . S
C1255 C1258 1.499 . S
C1256 H1236 0.950 . S
C1256 C1255 1.414 . S
C1256 C1257 1.374 . S
C1257 H1237 0.950 . S
C1257 C1253 1.385 . S
C1257 C1256 1.374 . S
C1258 C1255 1.499 . S
C1258 C1259 1.373 . S
C1258 C1260 1.389 . S
C1259 H1238 0.950 . S
C1259 C1258 1.373 . S
C1259 C1275 1.377 . S
C1260 C1258 1.389 . S
C1260 C1261 1.524 . S
C1260 C1274 1.377 . S
C1261 C1260 1.524 . S
C1261 C1262 1.397 . S
C1261 C1266 1.363 . S
C1262 H1239 0.950 . S
C1262 C1261 1.397 . S
C1262 C1263 1.334 . S
C1263 H1240 0.950 . S
C1263 C1262 1.334 . S
C1263 C1264 1.287 . S
C1264 C1263 1.287 . S
C1264 C1265 1.524 . S
C1264 H1283 0.913 . S
C1265 H1241 0.950 . S
C1265 C1264 1.524 . S
C1265 C1266 1.415 . S
C1266 H1242 0.950 . S
C1266 C1261 1.363 . S
C1266 C1265 1.415 . S
C1267 H1243 0.951 . S
C1267 C1268 1.366 . S
C1267 C1269 1.388 . S
C1268 C1267 1.366 . S
C1268 C1272 1.385 . S
C1269 H1244 0.951 . S
C1269 C1267 1.388 . S
C1269 C1270 1.366 . S
C1270 C1269 1.366 . S
C1270 C1271 1.414 . S
C1270 C1273 1.499 . S
C1271 H1245 0.950 . S
C1271 C1270 1.414 . S
C1271 C1272 1.374 . S
C1272 H1246 0.950 . S
C1272 C1268 1.385 . S
C1272 C1271 1.374 . S
C1273 C1270 1.499 . S
C1273 C1274 1.373 . S
C1273 C1275 1.389 . S
C1274 H1247 0.950 . S
C1274 C1260 1.377 . S
C1274 C1273 1.373 . S
C1275 C1259 1.377 . S
C1275 C1273 1.389 . S
C1275 C1276 1.524 . S
C1276 C1275 1.524 . S
C1276 C1277 1.397 . S
C1276 C1281 1.363 . S
C1277 H1248 0.950 . S
C1277 C1276 1.397 . S
C1277 C1278 1.334 . S
C1278 H1249 0.950 . S
C1278 C1277 1.334 . S
C1278 C1279 1.287 . S
C1279 C1278 1.287 . S
C1279 C1280 1.524 . S
C1279 H1282 0.999 . S
C1280 H1250 0.950 . S
C1280 C1279 1.524 . S
C1280 C1281 1.415 . S
C1281 H1251 0.950 . S
C1281 C1276 1.363 . S
C1281 C1280 1.415 . S
H1282 C1279 0.999 . S
H1283 C1264 0.913 . S
H1284 C1302 0.951 . S
H1285 C1304 0.951 . S
H1286 C1306 0.950 . S
H1287 C1307 0.950 . S
H1288 C1309 0.950 . S
H1289 C1312 0.950 . S
H1290 C1313 0.950 . S
H1291 C1315 0.950 . S
H1292 C1316 0.950 . S
H1293 C1317 0.951 . S
H1294 C1319 0.951 . S
H1295 C1321 0.950 . S
H1296 C1322 0.950 . S
H1297 C1324 0.950 . S
H1298 C1327 0.950 . S
H1299 C1328 0.950 . S
H1300 C1330 0.950 . S
H1301 C1331 0.950 . S
C1302 H1284 0.951 . S
C1302 C1303 1.366 . S
C1302 C1304 1.388 . S
C1303 C1302 1.366 . S
C1303 C1307 1.385 . S
C1304 H1285 0.951 . S
C1304 C1302 1.388 . S
C1304 C1305 1.366 . S
C1305 C1304 1.366 . S
C1305 C1306 1.414 . S
C1305 C1308 1.499 . S
C1306 H1286 0.950 . S
C1306 C1305 1.414 . S
C1306 C1307 1.374 . S
C1307 H1287 0.950 . S
C1307 C1303 1.385 . S
C1307 C1306 1.374 . S
C1308 C1305 1.499 . S
C1308 C1309 1.373 . S
C1308 C1310 1.389 . S
C1309 H1288 0.950 . S
C1309 C1308 1.373 . S
C1309 C1325 1.377 . S
C1310 C1308 1.389 . S
C1310 C1311 1.524 . S
C1310 C1324 1.377 . S
C1311 C1310 1.524 . S
C1311 C1312 1.397 . S
C1311 C1316 1.363 . S
C1312 H1289 0.950 . S
C1312 C1311 1.397 . S
C1312 C1313 1.334 . S
C1313 H1290 0.950 . S
C1313 C1312 1.334 . S
C1313 C1314 1.287 . S
C1314 C1313 1.287 . S
C1314 C1315 1.524 . S
C1314 H1333 0.913 . S
C1315 H1291 0.950 . S
C1315 C1314 1.524 . S
C1315 C1316 1.415 . S
C1316 H1292 0.950 . S
C1316 C1311 1.363 . S
C1316 C1315 1.415 . S
C1317 H1293 0.951 . S
C1317 C1318 1.366 . S
C1317 C1319 1.388 . S
C1318 C1317 1.366 . S
C1318 C1322 1.385 . S
C1319 H1294 0.951 . S
C1319 C1317 1.388 . S
C1319 C1320 1.366 . S
C1320 C1319 1.366 . S
C1320 C1321 1.414 . S
C1320 C1323 1.499 . S
C1321 H1295 0.950 . S
C1321 C1320 1.414 . S
C1321 C1322 1.374 . S
C1322 H1296 0.950 . S
C1322 C1318 1.385 . S
C1322 C1321 1.374 . S
C1323 C1320 1.499 . S
C1323 C1324 1.373 . S
C1323 C1325 1.389 . S
C1324 H1297 0.950 . S
C1324 C1310 1.377 . S
C1324 C1323 1.373 . S
C1325 C1309 1.377 . S
C1325 C1323 1.389 . S
C1325 C1326 1.524 . S
C1326 C1325 1.524 . S
C1326 C1327 1.397 . S
C1326 C1331 1.363 . S
C1327 H1298 0.950 . S
C1327 C1326 1.397 . S
C1327 C1328 1.334 . S
C1328 H1299 0.950 . S
C1328 C1327 1.334 . S
C1328 C1329 1.287 . S
C1329 C1328 1.287 . S
C1329 C1330 1.524 . S
C1329 H1332 0.999 . S
C1330 H1300 0.950 . S
C1330 C1329 1.524 . S
C1330 C1331 1.415 . S
C1331 H1301 0.950 . S
C1331 C1326 1.363 . S
C1331 C1330 1.415 . S
H1332 C1329 0.999 . S
H1333 C1314 0.913 . S
H1334 C1352 0.951 . S
H1335 C1354 0.951 . S
H1336 C1356 0.950 . S
H1337 C1357 0.950 . S
H1338 C1359 0.950 . S
H1339 C1362 0.950 . S
H1340 C1363 0.950 . S
H1341 C1365 0.950 . S
H1342 C1366 0.950 . S
H1343 C1367 0.951 . S
H1344 C1369 0.951 . S
H1345 C1371 0.950 . S
H1346 C1372 0.950 . S
H1347 C1374 0.950 . S
H1348 C1377 0.950 . S
H1349 C1378 0.950 . S
H1350 C1380 0.950 . S
H1351 C1381 0.950 . S
C1352 H1334 0.951 . S
C1352 C1353 1.366 . S
C1352 C1354 1.388 . S
C1353 C1352 1.366 . S
C1353 C1357 1.385 . S
C1354 H1335 0.951 . S
C1354 C1352 1.388 . S
C1354 C1355 1.366 . S
C1355 C1354 1.366 . S
C1355 C1356 1.414 . S
C1355 C1358 1.499 . S
C1356 H1336 0.950 . S
C1356 C1355 1.414 . S
C1356 C1357 1.374 . S
C1357 H1337 0.950 . S
C1357 C1353 1.385 . S
C1357 C1356 1.374 . S
C1358 C1355 1.499 . S
C1358 C1359 1.373 . S
C1358 C1360 1.389 . S
C1359 H1338 0.950 . S
C1359 C1358 1.373 . S
C1359 C1375 1.377 . S
C1360 C1358 1.389 . S
C1360 C1361 1.524 . S
C1360 C1374 1.377 . S
C1361 C1360 1.524 . S
C1361 C1362 1.397 . S
C1361 C1366 1.363 . S
C1362 H1339 0.950 . S
C1362 C1361 1.397 . S
C1362 C1363 1.334 . S
C1363 H1340 0.950 . S
C1363 C1362 1.334 . S
C1363 C1364 1.287 . S
C1364 C1363 1.287 . S
C1364 C1365 1.524 . S
C1364 H1383 0.913 . S
C1365 H1341 0.950 . S
C1365 C1364 1.524 . S
C1365 C1366 1.415 . S
C1366 H1342 0.950 . S
C1366 C1361 1.363 . S
C1366 C1365 1.415 . S
C1367 H1343 0.951 . S
C1367 C1368 1.366 . S
C1367 C1369 1.388 . S
C1368 C1367 1.366 . S
C1368 C1372 1.385 . S
C1369 H1344 0.951 . S
C1369 C1367 1.388 . S
C1369 C1370 1.366 . S
C1370 C1369 1.366 . S
C1370 C1371 1.414 . S
C1370 C1373 1.499 . S
C1371 H1345 0.950 . S
C1371 C1370 1.414 . S
C1371 C1372 1.374 . S
C1372 H1346 0.950 . S
C1372 C1368 1.385 . S
C1372 C1371 1.374 . S
C1373 C1370 1.499 . S
C1373 C1374 1.373 . S
C1373 C1375 1.389 . S
C1374 H1347 0.950 . S
C1374 C1360 1.377 . S
C1374 C1373 1.373 . S
C1375 C1359 1.377 . S
C1375 C1373 1.389 . S
C1375 C1376 1.524 . S
C1376 C1375 1.524 . S
C1376 C1377 1.397 . S
C1376 C1381 1.363 . S
C1377 H1348 0.950 . S
C1377 C1376 1.397 . S
C1377 C1378 1.334 . S
C1378 H1349 0.950 . S
C1378 C1377 1.334 . S
C1378 C1379 1.287 . S
C1379 C1378 1.287 . S
C1379 C1380 1.524 . S
C1379 H1382 0.999 . S
C1380 H1350 0.950 . S
C1380 C1379 1.524 . S
C1380 C1381 1.415 . S
C1381 H1351 0.950 . S
C1381 C1376 1.363 . S
C1381 C1380 1.415 . S
H1382 C1379 0.999 . S
H1383 C1364 0.913 . S
H1384 C1402 0.951 . S
H1385 C1404 0.951 . S
H1386 C1406 0.950 . S
H1387 C1407 0.950 . S
H1388 C1409 0.950 . S
H1389 C1412 0.950 1_565 S
H1390 C1413 0.953 . S
H1391 C1415 0.950 . S
H1392 C1416 0.950 . S
H1393 C1417 0.951 . S
H1394 C1419 0.951 . S
H1395 C1421 0.950 . S
H1396 C1422 0.950 . S
H1397 C1424 0.950 . S
H1398 C1427 0.950 . S
H1399 C1428 0.950 . S
H1400 C1430 0.950 . S
H1401 C1431 0.942 1_564 S
C1402 H1384 0.951 . S
C1402 C1403 1.366 . S
C1402 C1404 1.388 . S
C1403 C1402 1.366 . S
C1403 C1407 1.385 . S
C1404 H1385 0.951 . S
C1404 C1402 1.388 . S
C1404 C1405 1.366 . S
C1405 C1404 1.366 . S
C1405 C1406 1.414 . S
C1405 C1408 1.499 . S
C1406 H1386 0.950 . S
C1406 C1405 1.414 . S
C1406 C1407 1.374 . S
C1407 H1387 0.950 . S
C1407 C1403 1.385 . S
C1407 C1406 1.374 . S
C1408 C1405 1.499 . S
C1408 C1409 1.373 . S
C1408 C1410 1.389 . S
C1409 H1388 0.950 . S
C1409 C1408 1.373 . S
C1409 C1425 1.377 1_554 S
C1410 C1408 1.389 . S
C1410 C1411 1.524 . S
C1410 C1424 1.377 1_545 S
C1411 C1410 1.524 . S
C1411 C1412 1.397 . S
C1411 C1416 1.363 . S
C1412 H1389 0.950 1_545 S
C1412 C1411 1.397 . S
C1412 C1413 1.333 1_545 S
C1413 H1390 0.953 . S
C1413 C1412 1.333 1_565 S
C1413 C1414 1.285 1_565 S
C1414 C1413 1.285 1_545 S
C1414 C1415 1.524 . S
C1414 H1433 0.913 . S
C1415 H1391 0.950 . S
C1415 C1414 1.524 . S
C1415 C1416 1.415 . S
C1416 H1392 0.950 . S
C1416 C1411 1.363 . S
C1416 C1415 1.415 . S
C1417 H1393 0.951 . S
C1417 C1418 1.366 . S
C1417 C1419 1.388 . S
C1418 C1417 1.366 . S
C1418 C1422 1.385 . S
C1419 H1394 0.951 . S
C1419 C1417 1.388 . S
C1419 C1420 1.366 . S
C1420 C1419 1.366 . S
C1420 C1421 1.414 . S
C1420 C1423 1.499 . S
C1421 H1395 0.950 . S
C1421 C1420 1.414 . S
C1421 C1422 1.374 . S
C1422 H1396 0.950 . S
C1422 C1418 1.385 . S
C1422 C1421 1.374 . S
C1423 C1420 1.499 . S
C1423 C1424 1.373 1_556 S
C1423 C1425 1.389 1_565 S
C1424 H1397 0.950 . S
C1424 C1410 1.377 1_565 S
C1424 C1423 1.373 1_554 S
C1425 C1409 1.377 1_556 S
C1425 C1423 1.389 1_545 S
C1425 C1426 1.524 . S
C1426 C1425 1.524 . S
C1426 C1427 1.397 . S
C1426 C1431 1.363 . S
C1427 H1398 0.950 . S
C1427 C1426 1.397 . S
C1427 C1428 1.334 . S
C1428 H1399 0.950 . S
C1428 C1427 1.334 . S
C1428 C1429 1.287 . S
C1429 C1428 1.287 . S
C1429 C1430 1.524 . S
C1429 H1432 0.999 . S
C1430 H1400 0.950 . S
C1430 C1429 1.524 . S
C1430 C1431 1.415 . S
C1431 H1401 0.942 1_546 S
C1431 C1426 1.363 . S
C1431 C1430 1.415 . S
H1432 C1429 0.999 . S
H1433 C1414 0.913 . S
H1434 C1452 0.951 . S
H1435 C1454 0.951 1_556 S
H1436 C1456 0.950 . S
H1437 C1457 0.950 . S
H1438 C1459 0.950 . S
H1439 C1462 0.959 . S
H1440 C1463 0.950 1_554 S
H1441 C1465 0.950 . S
H1442 C1466 0.950 . S
H1443 C1467 0.951 . S
H1444 C1469 0.951 . S
H1445 C1471 0.950 . S
H1446 C1472 0.950 . S
H1447 C1474 0.950 . S
H1448 C1477 0.950 . S
H1449 C1478 0.950 . S
H1450 C1480 0.950 . S
H1451 C1481 0.950 . S
C1452 H1434 0.951 . S
C1452 C1453 1.366 . S
C1452 C1454 1.388 . S
C1453 C1452 1.366 . S
C1453 C1457 1.385 . S
C1454 H1435 0.951 1_554 S
C1454 C1452 1.388 . S
C1454 C1455 1.366 . S
C1455 C1454 1.366 . S
C1455 C1456 1.414 . S
C1455 C1458 1.499 . S
C1456 H1436 0.950 . S
C1456 C1455 1.414 . S
C1456 C1457 1.374 . S
C1457 H1437 0.950 . S
C1457 C1453 1.385 . S
C1457 C1456 1.374 . S
C1458 C1455 1.499 . S
C1458 C1459 1.373 1_655 S
C1458 C1460 1.389 1_554 S
C1459 H1438 0.950 . S
C1459 C1458 1.373 1_455 S
C1459 C1475 1.377 1_554 S
C1460 C1458 1.389 1_556 S
C1460 C1461 1.524 . S
C1460 C1474 1.377 1_655 S
C1461 C1460 1.524 . S
C1461 C1462 1.389 1_556 S
C1461 C1466 1.363 . S
C1462 H1439 0.959 . S
C1462 C1461 1.389 1_554 S
C1462 C1463 1.333 1_554 S
C1463 H1440 0.950 1_556 S
C1463 C1462 1.333 1_556 S
C1463 C1464 1.287 . S
C1464 C1463 1.287 . S
C1464 C1465 1.524 . S
C1464 H1483 0.913 . S
C1465 H1441 0.950 . S
C1465 C1464 1.524 . S
C1465 C1466 1.415 . S
C1466 H1442 0.950 . S
C1466 C1461 1.363 . S
C1466 C1465 1.415 . S
C1467 H1443 0.951 . S
C1467 C1468 1.366 . S
C1467 C1469 1.388 . S
C1468 C1467 1.366 . S
C1468 C1472 1.385 . S
C1469 H1444 0.951 . S
C1469 C1467 1.388 . S
C1469 C1470 1.366 . S
C1470 C1469 1.366 . S
C1470 C1471 1.414 . S
C1470 C1473 1.499 . S
C1471 H1445 0.950 . S
C1471 C1470 1.414 . S
C1471 C1472 1.374 . S
C1472 H1446 0.950 . S
C1472 C1468 1.385 . S
C1472 C1471 1.374 . S
C1473 C1470 1.499 . S
C1473 C1474 1.373 . S
C1473 C1475 1.389 . S
C1474 H1447 0.950 . S
C1474 C1460 1.377 1_455 S
C1474 C1473 1.373 . S
C1475 C1459 1.377 1_556 S
C1475 C1473 1.389 . S
C1475 C1476 1.524 1_556 S
C1476 C1475 1.524 1_554 S
C1476 C1477 1.397 1_554 S
C1476 C1481 1.363 . S
C1477 H1448 0.950 . S
C1477 C1476 1.397 1_556 S
C1477 C1478 1.334 . S
C1478 H1449 0.950 . S
C1478 C1477 1.334 . S
C1478 C1479 1.287 1_556 S
C1479 C1478 1.287 1_554 S
C1479 C1480 1.524 . S
C1479 H1482 0.999 . S
C1480 H1450 0.950 . S
C1480 C1479 1.524 . S
C1480 C1481 1.415 . S
C1481 H1451 0.950 . S
C1481 C1476 1.363 . S
C1481 C1480 1.415 . S
H1482 C1479 0.999 . S
H1483 C1464 0.913 . S
H1484 C1502 0.951 . S
H1485 C1504 0.951 . S
H1486 C1506 0.950 . S
H1487 C1507 0.950 . S
H1488 C1509 0.950 1_556 S
H1489 C1512 0.950 . S
H1490 C1513 0.950 . S
H1491 C1515 0.950 . S
H1492 C1516 0.950 . S
H1493 C1517 0.951 . S
H1494 C1519 0.951 . S
H1495 C1521 0.950 . S
H1496 C1522 0.950 . S
H1497 C1524 0.950 . S
H1498 C1527 0.950 . S
H1499 C1528 0.950 . S
H1500 C1530 0.950 . S
H1501 C1531 0.950 . S
C1502 H1484 0.951 . S
C1502 C1503 1.366 . S
C1502 C1504 1.388 . S
C1503 C1502 1.366 . S
C1503 C1507 1.385 . S
C1504 H1485 0.951 . S
C1504 C1502 1.388 . S
C1504 C1505 1.366 . S
C1505 C1504 1.366 . S
C1505 C1506 1.414 . S
C1505 C1508 1.499 . S
C1506 H1486 0.950 . S
C1506 C1505 1.414 . S
C1506 C1507 1.374 . S
C1507 H1487 0.950 . S
C1507 C1503 1.385 . S
C1507 C1506 1.374 . S
C1508 C1505 1.499 . S
C1508 C1509 1.373 . S
C1508 C1510 1.394 . S
C1509 H1488 0.950 1_554 S
C1509 C1508 1.373 . S
C1509 C1525 1.377 1_554 S
C1510 C1508 1.394 . S
C1510 C1511 1.522 1_565 S
C1510 C1524 1.373 1_565 S
C1511 C1510 1.522 1_545 S
C1511 C1512 1.397 . S
C1511 C1516 1.363 . S
C1512 H1489 0.950 . S
C1512 C1511 1.397 . S
C1512 C1513 1.334 . S
C1513 H1490 0.950 . S
C1513 C1512 1.334 . S
C1513 C1514 1.287 . S
C1514 C1513 1.287 . S
C1514 C1515 1.524 . S
C1514 H1533 0.913 . S
C1515 H1491 0.950 . S
C1515 C1514 1.524 . S
C1515 C1516 1.415 . S
C1516 H1492 0.950 . S
C1516 C1511 1.363 . S
C1516 C1515 1.415 . S
C1517 H1493 0.951 . S
C1517 C1518 1.366 . S
C1517 C1519 1.388 . S
C1518 C1517 1.366 . S
C1518 C1522 1.385 . S
C1519 H1494 0.951 . S
C1519 C1517 1.388 . S
C1519 C1520 1.366 . S
C1520 C1519 1.366 . S
C1520 C1521 1.414 . S
C1520 C1523 1.499 . S
C1521 H1495 0.950 . S
C1521 C1520 1.414 . S
C1521 C1522 1.374 . S
C1522 H1496 0.950 . S
C1522 C1518 1.385 . S
C1522 C1521 1.374 . S
C1523 C1520 1.499 . S
C1523 C1524 1.373 1_556 S
C1523 C1525 1.389 1_545 S
C1524 H1497 0.950 . S
C1524 C1510 1.373 1_545 S
C1524 C1523 1.373 1_554 S
C1525 C1509 1.377 1_556 S
C1525 C1523 1.389 1_565 S
C1525 C1526 1.524 . S
C1526 C1525 1.524 . S
C1526 C1527 1.397 . S
C1526 C1531 1.363 . S
C1527 H1498 0.950 . S
C1527 C1526 1.397 . S
C1527 C1528 1.334 . S
C1528 H1499 0.950 . S
C1528 C1527 1.334 . S
C1528 C1529 1.287 . S
C1529 C1528 1.287 . S
C1529 C1530 1.524 . S
C1529 H1532 0.999 . S
C1530 H1500 0.950 . S
C1530 C1529 1.524 . S
C1530 C1531 1.415 . S
C1531 H1501 0.950 . S
C1531 C1526 1.363 . S
C1531 C1530 1.415 . S
H1532 C1529 0.999 . S
H1533 C1514 0.913 . S
H1534 C1552 0.951 . S
H1535 C1554 0.951 . S
H1536 C1556 0.950 . S
H1537 C1557 0.950 . S
H1538 C1559 0.949 1_556 S
H1539 C1562 0.950 . S
H1540 C1563 0.950 . S
H1541 C1565 0.950 . S
H1542 C1566 0.950 . S
H1543 C1567 0.951 . S
H1544 C1569 0.951 . S
H1545 C1571 0.950 . S
H1546 C1572 0.950 . S
H1547 C1574 0.950 . S
H1548 C1577 0.950 . S
H1549 C1578 0.950 . S
H1550 C1580 0.950 . S
H1551 C1581 0.950 . S
C1552 H1534 0.951 . S
C1552 C1553 1.366 . S
C1552 C1554 1.388 . S
C1553 C1552 1.366 . S
C1553 C1557 1.385 . S
C1554 H1535 0.951 . S
C1554 C1552 1.388 . S
C1554 C1555 1.366 . S
C1555 C1554 1.366 . S
C1555 C1556 1.414 . S
C1555 C1558 1.499 . S
C1556 H1536 0.950 . S
C1556 C1555 1.414 . S
C1556 C1557 1.374 . S
C1557 H1537 0.950 . S
C1557 C1553 1.385 . S
C1557 C1556 1.374 . S
C1558 C1555 1.499 . S
C1558 C1559 1.377 . S
C1558 C1560 1.389 . S
C1559 H1538 0.949 1_554 S
C1559 C1558 1.377 . S
C1559 C1575 1.373 1_554 S
C1560 C1558 1.389 . S
C1560 C1561 1.524 . S
C1560 C1574 1.377 1_455 S
C1561 C1560 1.524 . S
C1561 C1562 1.397 . S
C1561 C1566 1.363 1_455 S
C1562 H1539 0.950 . S
C1562 C1561 1.397 . S
C1562 C1563 1.334 . S
C1563 H1540 0.950 . S
C1563 C1562 1.334 . S
C1563 C1564 1.287 . S
C1564 C1563 1.287 . S
C1564 C1565 1.524 1_455 S
C1564 H1583 0.913 . S
C1565 H1541 0.950 . S
C1565 C1564 1.524 1_655 S
C1565 C1566 1.415 . S
C1566 H1542 0.950 . S
C1566 C1561 1.363 1_655 S
C1566 C1565 1.415 . S
C1567 H1543 0.951 . S
C1567 C1568 1.366 . S
C1567 C1569 1.388 . S
C1568 C1567 1.366 . S
C1568 C1572 1.385 . S
C1569 H1544 0.951 . S
C1569 C1567 1.388 . S
C1569 C1570 1.366 . S
C1570 C1569 1.366 . S
C1570 C1571 1.414 . S
C1570 C1573 1.499 . S
C1571 H1545 0.950 . S
C1571 C1570 1.414 . S
C1571 C1572 1.374 . S
C1572 H1546 0.950 . S
C1572 C1568 1.385 . S
C1572 C1571 1.374 . S
C1573 C1570 1.499 . S
C1573 C1574 1.373 1_556 S
C1573 C1575 1.389 1_655 S
C1574 H1547 0.950 . S
C1574 C1560 1.377 1_655 S
C1574 C1573 1.373 1_554 S
C1575 C1559 1.373 1_556 S
C1575 C1573 1.389 1_455 S
C1575 C1576 1.524 . S
C1576 C1575 1.524 . S
C1576 C1577 1.397 1_455 S
C1576 C1581 1.363 . S
C1577 H1548 0.950 . S
C1577 C1576 1.397 1_655 S
C1577 C1578 1.334 . S
C1578 H1549 0.950 . S
C1578 C1577 1.334 . S
C1578 C1579 1.287 . S
C1579 C1578 1.287 . S
C1579 C1580 1.524 1_655 S
C1579 H1582 0.999 . S
C1580 H1550 0.950 . S
C1580 C1579 1.524 1_455 S
C1580 C1581 1.415 . S
C1581 H1551 0.950 . S
C1581 C1576 1.363 . S
C1581 C1580 1.415 . S
H1582 C1579 0.999 . S
H1583 C1564 0.913 . S
H1584 C1602 0.951 . S
H1585 C1604 0.951 . S
H1586 C1606 0.950 . S
H1587 C1607 0.950 . S
H1588 C1609 0.950 . S
H1589 C1612 0.950 . S
H1590 C1613 0.950 . S
H1591 C1615 0.950 . S
H1592 C1616 0.950 . S
H1593 C1617 0.951 . S
H1594 C1619 0.951 . S
H1595 C1621 0.950 . S
H1596 C1622 0.950 . S
H1597 C1624 0.950 . S
H1598 C1627 0.950 . S
H1599 C1628 0.950 . S
H1600 C1630 0.950 . S
H1601 C1631 0.950 . S
C1602 H1584 0.951 . S
C1602 C1603 1.366 . S
C1602 C1604 1.388 . S
C1603 C1602 1.366 . S
C1603 C1607 1.385 . S
C1604 H1585 0.951 . S
C1604 C1602 1.388 . S
C1604 C1605 1.366 . S
C1605 C1604 1.366 . S
C1605 C1606 1.414 . S
C1605 C1608 1.499 . S
C1606 H1586 0.950 . S
C1606 C1605 1.414 . S
C1606 C1607 1.374 . S
C1607 H1587 0.950 . S
C1607 C1603 1.385 . S
C1607 C1606 1.374 . S
C1608 C1605 1.499 . S
C1608 C1609 1.373 1_655 S
C1608 C1610 1.389 . S
C1609 H1588 0.950 . S
C1609 C1608 1.373 1_455 S
C1609 C1625 1.377 . S
C1610 C1608 1.389 . S
C1610 C1611 1.524 1_565 S
C1610 C1624 1.377 1_565 S
C1611 C1610 1.524 1_545 S
C1611 C1612 1.397 1_545 S
C1611 C1616 1.363 . S
C1612 H1589 0.950 . S
C1612 C1611 1.397 1_565 S
C1612 C1613 1.334 . S
C1613 H1590 0.950 . S
C1613 C1612 1.334 . S
C1613 C1614 1.287 1_565 S
C1614 C1613 1.287 1_545 S
C1614 C1615 1.524 . S
C1614 H1633 0.913 . S
C1615 H1591 0.950 . S
C1615 C1614 1.524 . S
C1615 C1616 1.415 . S
C1616 H1592 0.950 . S
C1616 C1611 1.363 . S
C1616 C1615 1.415 . S
C1617 H1593 0.951 . S
C1617 C1618 1.366 . S
C1617 C1619 1.388 . S
C1618 C1617 1.366 . S
C1618 C1622 1.385 . S
C1619 H1594 0.951 . S
C1619 C1617 1.388 . S
C1619 C1620 1.366 . S
C1620 C1619 1.366 . S
C1620 C1621 1.414 . S
C1620 C1623 1.499 . S
C1621 H1595 0.950 . S
C1621 C1620 1.414 . S
C1621 C1622 1.374 . S
C1622 H1596 0.950 . S
C1622 C1618 1.385 . S
C1622 C1621 1.374 . S
C1623 C1620 1.499 . S
C1623 C1624 1.373 1_455 S
C1623 C1625 1.389 1_545 S
C1624 H1597 0.950 . S
C1624 C1610 1.377 1_545 S
C1624 C1623 1.373 1_655 S
C1625 C1609 1.377 . S
C1625 C1623 1.389 1_565 S
C1625 C1626 1.524 . S
C1626 C1625 1.524 . S
C1626 C1627 1.397 1_565 S
C1626 C1631 1.363 . S
C1627 H1598 0.950 . S
C1627 C1626 1.397 1_545 S
C1627 C1628 1.334 . S
C1628 H1599 0.950 . S
C1628 C1627 1.334 . S
C1628 C1629 1.287 1_545 S
C1629 C1628 1.287 1_565 S
C1629 C1630 1.524 . S
C1629 H1632 0.999 . S
C1630 H1600 0.950 . S
C1630 C1629 1.524 . S
C1630 C1631 1.415 . S
C1631 H1601 0.950 . S
C1631 C1626 1.363 . S
C1631 C1630 1.415 . S
H1632 C1629 0.999 . S
H1633 C1614 0.913 . S
H1634 C1652 0.951 . S
H1635 C1654 0.951 . S
H1636 C1656 0.950 . S
H1637 C1657 0.950 . S
H1638 C1659 0.950 . S
H1639 C1662 0.950 . S
H1640 C1663 0.950 . S
H1641 C1665 0.950 . S
H1642 C1666 0.950 . S
H1643 C1667 0.951 . S
H1644 C1669 0.951 . S
H1645 C1671 0.950 . S
H1646 C1672 0.950 . S
H1647 C1674 0.950 1_455 S
H1648 C1677 0.950 . S
H1649 C1678 0.950 . S
H1650 C1680 0.950 . S
H1651 C1681 0.950 . S
C1652 H1634 0.951 . S
C1652 C1653 1.366 . S
C1652 C1654 1.388 . S
C1653 C1652 1.366 . S
C1653 C1657 1.385 . S
C1654 H1635 0.951 . S
C1654 C1652 1.388 . S
C1654 C1655 1.366 . S
C1655 C1654 1.366 . S
C1655 C1656 1.414 . S
C1655 C1658 1.499 . S
C1656 H1636 0.950 . S
C1656 C1655 1.414 . S
C1656 C1657 1.374 . S
C1657 H1637 0.950 . S
C1657 C1653 1.385 . S
C1657 C1656 1.374 . S
C1658 C1655 1.499 . S
C1658 C1659 1.373 1_455 S
C1658 C1660 1.389 1_565 S
C1659 H1638 0.950 . S
C1659 C1658 1.373 1_655 S
C1659 C1675 1.377 1_565 S
C1660 C1658 1.389 1_545 S
C1660 C1661 1.524 . S
C1660 C1674 1.377 1_455 S
C1661 C1660 1.524 . S
C1661 C1662 1.397 1_545 S
C1661 C1666 1.363 . S
C1662 H1639 0.950 . S
C1662 C1661 1.397 1_565 S
C1662 C1663 1.334 . S
C1663 H1640 0.950 . S
C1663 C1662 1.334 . S
C1663 C1664 1.287 1_565 S
C1664 C1663 1.287 1_545 S
C1664 C1665 1.524 . S
C1664 H1683 0.913 . S
C1665 H1641 0.950 . S
C1665 C1664 1.524 . S
C1665 C1666 1.415 . S
C1666 H1642 0.950 . S
C1666 C1661 1.363 . S
C1666 C1665 1.415 . S
C1667 H1643 0.951 . S
C1667 C1668 1.366 . S
C1667 C1669 1.388 . S
C1668 C1667 1.366 . S
C1668 C1672 1.385 . S
C1669 H1644 0.951 . S
C1669 C1667 1.388 . S
C1669 C1670 1.366 . S
C1670 C1669 1.366 . S
C1670 C1671 1.414 . S
C1670 C1673 1.499 . S
C1671 H1645 0.950 . S
C1671 C1670 1.414 . S
C1671 C1672 1.374 . S
C1672 H1646 0.950 . S
C1672 C1668 1.385 . S
C1672 C1671 1.374 . S
C1673 C1670 1.499 . S
C1673 C1674 1.373 . S
C1673 C1675 1.389 . S
C1674 H1647 0.950 1_655 S
C1674 C1660 1.377 1_655 S
C1674 C1673 1.373 . S
C1675 C1659 1.377 1_545 S
C1675 C1673 1.389 . S
C1675 C1676 1.524 . S
C1676 C1675 1.524 . S
C1676 C1677 1.397 . S
C1676 C1681 1.363 1_545 S
C1677 H1648 0.950 . S
C1677 C1676 1.397 . S
C1677 C1678 1.334 . S
C1678 H1649 0.950 . S
C1678 C1677 1.334 . S
C1678 C1679 1.287 . S
C1679 C1678 1.287 . S
C1679 C1680 1.524 1_545 S
C1679 H1682 0.999 . S
C1680 H1650 0.950 . S
C1680 C1679 1.524 1_565 S
C1680 C1681 1.415 . S
C1681 H1651 0.950 . S
C1681 C1676 1.363 1_565 S
C1681 C1680 1.415 . S
H1682 C1679 0.999 . S
H1683 C1664 0.913 . S
H1684 C1702 0.951 . S
H1685 C1704 0.951 . S
H1686 C1706 0.950 . S
H1687 C1707 0.950 . S
H1688 C1709 0.950 . S
H1689 C1712 0.950 . S
H1690 C1713 0.950 . S
H1691 C1715 0.950 . S
H1692 C1716 0.950 . S
H1693 C1717 0.951 . S
H1694 C1719 0.951 . S
H1695 C1721 0.950 . S
H1696 C1722 0.950 . S
H1697 C1724 0.950 . S
H1698 C1727 0.950 . S
H1699 C1728 0.950 . S
H1700 C1730 0.950 . S
H1701 C1731 0.950 . S
C1702 H1684 0.951 . S
C1702 C1703 1.366 . S
C1702 C1704 1.388 . S
C1703 C1702 1.366 . S
C1703 C1707 1.385 . S
C1704 H1685 0.951 . S
C1704 C1702 1.388 . S
C1704 C1705 1.366 . S
C1705 C1704 1.366 . S
C1705 C1706 1.414 . S
C1705 C1708 1.499 . S
C1706 H1686 0.950 . S
C1706 C1705 1.414 . S
C1706 C1707 1.374 . S
C1707 H1687 0.950 . S
C1707 C1703 1.385 . S
C1707 C1706 1.374 . S
C1708 C1705 1.499 . S
C1708 C1709 1.373 . S
C1708 C1710 1.389 . S
C1709 H1688 0.950 . S
C1709 C1708 1.373 . S
C1709 C1725 1.377 . S
C1710 C1708 1.389 . S
C1710 C1711 1.524 . S
C1710 C1724 1.377 . S
C1711 C1710 1.524 . S
C1711 C1712 1.397 . S
C1711 C1716 1.363 . S
C1712 H1689 0.950 . S
C1712 C1711 1.397 . S
C1712 C1713 1.334 . S
C1713 H1690 0.950 . S
C1713 C1712 1.334 . S
C1713 C1714 1.287 . S
C1714 C1713 1.287 . S
C1714 C1715 1.524 . S
C1714 H1733 0.913 . S
C1715 H1691 0.950 . S
C1715 C1714 1.524 . S
C1715 C1716 1.415 . S
C1716 H1692 0.950 . S
C1716 C1711 1.363 . S
C1716 C1715 1.415 . S
C1717 H1693 0.951 . S
C1717 C1718 1.366 . S
C1717 C1719 1.388 . S
C1718 C1717 1.366 . S
C1718 C1722 1.385 . S
C1719 H1694 0.951 . S
C1719 C1717 1.388 . S
C1719 C1720 1.366 . S
C1720 C1719 1.366 . S
C1720 C1721 1.414 . S
C1720 C1723 1.499 . S
C1721 H1695 0.950 . S
C1721 C1720 1.414 . S
C1721 C1722 1.374 . S
C1722 H1696 0.950 . S
C1722 C1718 1.385 . S
C1722 C1721 1.374 . S
C1723 C1720 1.499 . S
C1723 C1724 1.373 . S
C1723 C1725 1.389 . S
C1724 H1697 0.950 . S
C1724 C1710 1.377 . S
C1724 C1723 1.373 . S
C1725 C1709 1.377 . S
C1725 C1723 1.389 . S
C1725 C1726 1.524 . S
C1726 C1725 1.524 . S
C1726 C1727 1.397 . S
C1726 C1731 1.363 . S
C1727 H1698 0.950 . S
C1727 C1726 1.397 . S
C1727 C1728 1.334 . S
C1728 H1699 0.950 . S
C1728 C1727 1.334 . S
C1728 C1729 1.287 . S
C1729 C1728 1.287 . S
C1729 C1730 1.524 . S
C1729 H1732 0.999 . S
C1730 H1700 0.950 . S
C1730 C1729 1.524 . S
C1730 C1731 1.415 . S
C1731 H1701 0.950 . S
C1731 C1726 1.363 . S
C1731 C1730 1.415 . S
H1732 C1729 0.999 . S
H1733 C1714 0.913 . S
H1734 C1752 0.951 . S
H1735 C1754 0.951 . S
H1736 C1756 0.950 . S
H1737 C1757 0.950 . S
H1738 C1759 0.950 . S
H1739 C1762 0.950 . S
H1740 C1763 0.950 . S
H1741 C1765 0.950 . S
H1742 C1766 0.950 . S
H1743 C1767 0.951 . S
H1744 C1769 0.951 . S
H1745 C1771 0.950 . S
H1746 C1772 0.950 . S
H1747 C1774 0.950 . S
H1748 C1777 0.950 . S
H1749 C1778 0.950 . S
H1750 C1780 0.950 . S
H1751 C1781 0.950 . S
C1752 H1734 0.951 . S
C1752 C1753 1.366 . S
C1752 C1754 1.388 . S
C1753 C1752 1.366 . S
C1753 C1757 1.385 . S
C1754 H1735 0.951 . S
C1754 C1752 1.388 . S
C1754 C1755 1.366 . S
C1755 C1754 1.366 . S
C1755 C1756 1.414 . S
C1755 C1758 1.499 . S
C1756 H1736 0.950 . S
C1756 C1755 1.414 . S
C1756 C1757 1.374 . S
C1757 H1737 0.950 . S
C1757 C1753 1.385 . S
C1757 C1756 1.374 . S
C1758 C1755 1.499 . S
C1758 C1759 1.373 . S
C1758 C1760 1.389 . S
C1759 H1738 0.950 . S
C1759 C1758 1.373 . S
C1759 C1775 1.377 . S
C1760 C1758 1.389 . S
C1760 C1761 1.524 . S
C1760 C1774 1.377 . S
C1761 C1760 1.524 . S
C1761 C1762 1.397 . S
C1761 C1766 1.363 . S
C1762 H1739 0.950 . S
C1762 C1761 1.397 . S
C1762 C1763 1.334 . S
C1763 H1740 0.950 . S
C1763 C1762 1.334 . S
C1763 C1764 1.287 . S
C1764 C1763 1.287 . S
C1764 C1765 1.524 . S
C1764 H1783 0.913 . S
C1765 H1741 0.950 . S
C1765 C1764 1.524 . S
C1765 C1766 1.415 . S
C1766 H1742 0.950 . S
C1766 C1761 1.363 . S
C1766 C1765 1.415 . S
C1767 H1743 0.951 . S
C1767 C1768 1.366 . S
C1767 C1769 1.388 . S
C1768 C1767 1.366 . S
C1768 C1772 1.385 . S
C1769 H1744 0.951 . S
C1769 C1767 1.388 . S
C1769 C1770 1.366 . S
C1770 C1769 1.366 . S
C1770 C1771 1.414 . S
C1770 C1773 1.499 . S
C1771 H1745 0.950 . S
C1771 C1770 1.414 . S
C1771 C1772 1.374 . S
C1772 H1746 0.950 . S
C1772 C1768 1.385 . S
C1772 C1771 1.374 . S
C1773 C1770 1.499 . S
C1773 C1774 1.373 . S
C1773 C1775 1.389 . S
C1774 H1747 0.950 . S
C1774 C1760 1.377 . S
C1774 C1773 1.373 . S
C1775 C1759 1.377 . S
C1775 C1773 1.389 . S
C1775 C1776 1.524 . S
C1776 C1775 1.524 . S
C1776 C1777 1.397 . S
C1776 C1781 1.363 . S
C1777 H1748 0.950 . S
C1777 C1776 1.397 . S
C1777 C1778 1.334 . S
C1778 H1749 0.950 . S
C1778 C1777 1.334 . S
C1778 C1779 1.287 . S
C1779 C1778 1.287 . S
C1779 C1780 1.524 . S
C1779 H1782 0.999 . S
C1780 H1750 0.950 . S
C1780 C1779 1.524 . S
C1780 C1781 1.415 . S
C1781 H1751 0.950 . S
C1781 C1776 1.363 . S
C1781 C1780 1.415 . S
H1782 C1779 0.999 . S
H1783 C1764 0.913 . S
H1784 C1802 0.951 . S
H1785 C1804 0.951 . S
H1786 C1806 0.950 . S
H1787 C1807 0.950 . S
H1788 C1809 0.950 . S
H1789 C1812 0.950 . S
H1790 C1813 0.950 . S
H1791 C1815 0.950 . S
H1792 C1816 0.950 . S
H1793 C1817 0.951 . S
H1794 C1819 0.951 . S
H1795 C1821 0.950 . S
H1796 C1822 0.950 . S
H1797 C1824 0.950 . S
H1798 C1827 0.950 . S
H1799 C1828 0.950 . S
H1800 C1830 0.950 . S
H1801 C1831 0.950 . S
C1802 H1784 0.951 . S
C1802 C1803 1.366 . S
C1802 C1804 1.388 . S
C1803 C1802 1.366 . S
C1803 C1807 1.385 . S
C1804 H1785 0.951 . S
C1804 C1802 1.388 . S
C1804 C1805 1.366 . S
C1805 C1804 1.366 . S
C1805 C1806 1.414 . S
C1805 C1808 1.499 . S
C1806 H1786 0.950 . S
C1806 C1805 1.414 . S
C1806 C1807 1.374 . S
C1807 H1787 0.950 . S
C1807 C1803 1.385 . S
C1807 C1806 1.374 . S
C1808 C1805 1.499 . S
C1808 C1809 1.373 . S
C1808 C1810 1.389 . S
C1809 H1788 0.950 . S
C1809 C1808 1.373 . S
C1809 C1825 1.377 . S
C1810 C1808 1.389 . S
C1810 C1811 1.524 . S
C1810 C1824 1.377 . S
C1811 C1810 1.524 . S
C1811 C1812 1.397 . S
C1811 C1816 1.363 . S
C1812 H1789 0.950 . S
C1812 C1811 1.397 . S
C1812 C1813 1.334 . S
C1813 H1790 0.950 . S
C1813 C1812 1.334 . S
C1813 C1814 1.287 . S
C1814 C1813 1.287 . S
C1814 C1815 1.524 . S
C1814 H1833 0.913 . S
C1815 H1791 0.950 . S
C1815 C1814 1.524 . S
C1815 C1816 1.415 . S
C1816 H1792 0.950 . S
C1816 C1811 1.363 . S
C1816 C1815 1.415 . S
C1817 H1793 0.951 . S
C1817 C1818 1.366 . S
C1817 C1819 1.388 . S
C1818 C1817 1.366 . S
C1818 C1822 1.385 . S
C1819 H1794 0.951 . S
C1819 C1817 1.388 . S
C1819 C1820 1.366 . S
C1820 C1819 1.366 . S
C1820 C1821 1.414 . S
C1820 C1823 1.499 . S
C1821 H1795 0.950 . S
C1821 C1820 1.414 . S
C1821 C1822 1.374 . S
C1822 H1796 0.950 . S
C1822 C1818 1.385 . S
C1822 C1821 1.374 . S
C1823 C1820 1.499 . S
C1823 C1824 1.373 . S
C1823 C1825 1.389 . S
C1824 H1797 0.950 . S
C1824 C1810 1.377 . S
C1824 C1823 1.373 . S
C1825 C1809 1.377 . S
C1825 C1823 1.389 . S
C1825 C1826 1.524 . S
C1826 C1825 1.524 . S
C1826 C1827 1.397 . S
C1826 C1831 1.363 . S
C1827 H1798 0.950 . S
C1827 C1826 1.397 . S
C1827 C1828 1.334 . S
C1828 H1799 0.950 . S
C1828 C1827 1.334 . S
C1828 C1829 1.287 . S
C1829 C1828 1.287 . S
C1829 C1830 1.524 . S
C1829 H1832 0.999 . S
C1830 H1800 0.950 . S
C1830 C1829 1.524 . S
C1830 C1831 1.415 . S
C1831 H1801 0.950 . S
C1831 C1826 1.363 . S
C1831 C1830 1.415 . S
H1832 C1829 0.999 . S
H1833 C1814 0.913 . S
H1834 C1852 0.951 . S
H1835 C1854 0.951 . S
H1836 C1856 0.950 . S
H1837 C1857 0.950 . S
H1838 C1859 0.950 . S
H1839 C1862 0.950 . S
H1840 C1863 0.950 . S
H1841 C1865 0.950 . S
H1842 C1866 0.950 . S
H1843 C1867 0.951 . S
H1844 C1869 0.951 . S
H1845 C1871 0.950 . S
H1846 C1872 0.950 . S
H1847 C1874 0.950 . S
H1848 C1877 0.950 . S
H1849 C1878 0.950 . S
H1850 C1880 0.950 . S
H1851 C1881 0.950 . S
C1852 H1834 0.951 . S
C1852 C1853 1.366 . S
C1852 C1854 1.388 . S
C1853 C1852 1.366 . S
C1853 C1857 1.385 . S
C1854 H1835 0.951 . S
C1854 C1852 1.388 . S
C1854 C1855 1.366 . S
C1855 C1854 1.366 . S
C1855 C1856 1.414 . S
C1855 C1858 1.499 . S
C1856 H1836 0.950 . S
C1856 C1855 1.414 . S
C1856 C1857 1.374 . S
C1857 H1837 0.950 . S
C1857 C1853 1.385 . S
C1857 C1856 1.374 . S
C1858 C1855 1.499 . S
C1858 C1859 1.373 . S
C1858 C1860 1.389 . S
C1859 H1838 0.950 . S
C1859 C1858 1.373 . S
C1859 C1875 1.377 . S
C1860 C1858 1.389 . S
C1860 C1861 1.524 . S
C1860 C1874 1.377 . S
C1861 C1860 1.524 . S
C1861 C1862 1.397 . S
C1861 C1866 1.363 . S
C1862 H1839 0.950 . S
C1862 C1861 1.397 . S
C1862 C1863 1.334 . S
C1863 H1840 0.950 . S
C1863 C1862 1.334 . S
C1863 C1864 1.287 . S
C1864 C1863 1.287 . S
C1864 C1865 1.524 . S
C1864 H1883 0.913 . S
C1865 H1841 0.950 . S
C1865 C1864 1.524 . S
C1865 C1866 1.415 . S
C1866 H1842 0.950 . S
C1866 C1861 1.363 . S
C1866 C1865 1.415 . S
C1867 H1843 0.951 . S
C1867 C1868 1.366 . S
C1867 C1869 1.388 . S
C1868 C1867 1.366 . S
C1868 C1872 1.385 . S
C1869 H1844 0.951 . S
C1869 C1867 1.388 . S
C1869 C1870 1.366 . S
C1870 C1869 1.366 . S
C1870 C1871 1.414 . S
C1870 C1873 1.499 . S
C1871 H1845 0.950 . S
C1871 C1870 1.414 . S
C1871 C1872 1.374 . S
C1872 H1846 0.950 . S
C1872 C1868 1.385 . S
C1872 C1871 1.374 . S
C1873 C1870 1.499 . S
C1873 C1874 1.373 . S
C1873 C1875 1.389 . S
C1874 H1847 0.950 . S
C1874 C1860 1.377 . S
C1874 C1873 1.373 . S
C1875 C1859 1.377 . S
C1875 C1873 1.389 . S
C1875 C1876 1.524 . S
C1876 C1875 1.524 . S
C1876 C1877 1.397 . S
C1876 C1881 1.363 . S
C1877 H1848 0.950 . S
C1877 C1876 1.397 . S
C1877 C1878 1.334 . S
C1878 H1849 0.950 . S
C1878 C1877 1.334 . S
C1878 C1879 1.287 . S
C1879 C1878 1.287 . S
C1879 C1880 1.524 . S
C1879 H1882 0.999 . S
C1880 H1850 0.950 . S
C1880 C1879 1.524 . S
C1880 C1881 1.415 . S
C1881 H1851 0.950 . S
C1881 C1876 1.363 . S
C1881 C1880 1.415 . S
H1882 C1879 0.999 . S
H1883 C1864 0.913 . S
H1884 C1902 0.951 . S
H1885 C1904 0.951 . S
H1886 C1906 0.950 . S
H1887 C1907 0.950 . S
H1888 C1909 0.950 . S
H1889 C1912 0.950 . S
H1890 C1913 0.950 . S
H1891 C1915 0.950 . S
H1892 C1916 0.950 . S
H1893 C1917 0.951 . S
H1894 C1919 0.951 . S
H1895 C1921 0.950 . S
H1896 C1922 0.950 . S
H1897 C1924 0.950 . S
H1898 C1927 0.950 . S
H1899 C1928 0.950 . S
H1900 C1930 0.950 . S
H1901 C1931 0.950 . S
C1902 H1884 0.951 . S
C1902 C1903 1.366 . S
C1902 C1904 1.388 . S
C1903 C1902 1.366 . S
C1903 C1907 1.385 . S
C1904 H1885 0.951 . S
C1904 C1902 1.388 . S
C1904 C1905 1.366 . S
C1905 C1904 1.366 . S
C1905 C1906 1.414 . S
C1905 C1908 1.499 . S
C1906 H1886 0.950 . S
C1906 C1905 1.414 . S
C1906 C1907 1.374 . S
C1907 H1887 0.950 . S
C1907 C1903 1.385 . S
C1907 C1906 1.374 . S
C1908 C1905 1.499 . S
C1908 C1909 1.373 . S
C1908 C1910 1.389 . S
C1909 H1888 0.950 . S
C1909 C1908 1.373 . S
C1909 C1925 1.377 . S
C1910 C1908 1.389 . S
C1910 C1911 1.524 . S
C1910 C1924 1.377 . S
C1911 C1910 1.524 . S
C1911 C1912 1.397 . S
C1911 C1916 1.363 . S
C1912 H1889 0.950 . S
C1912 C1911 1.397 . S
C1912 C1913 1.334 . S
C1913 H1890 0.950 . S
C1913 C1912 1.334 . S
C1913 C1914 1.287 . S
C1914 C1913 1.287 . S
C1914 C1915 1.524 . S
C1914 H1933 0.913 . S
C1915 H1891 0.950 . S
C1915 C1914 1.524 . S
C1915 C1916 1.415 . S
C1916 H1892 0.950 . S
C1916 C1911 1.363 . S
C1916 C1915 1.415 . S
C1917 H1893 0.951 . S
C1917 C1918 1.366 . S
C1917 C1919 1.388 . S
C1918 C1917 1.366 . S
C1918 C1922 1.385 . S
C1919 H1894 0.951 . S
C1919 C1917 1.388 . S
C1919 C1920 1.366 . S
C1920 C1919 1.366 . S
C1920 C1921 1.414 . S
C1920 C1923 1.499 . S
C1921 H1895 0.950 . S
C1921 C1920 1.414 . S
C1921 C1922 1.374 . S
C1922 H1896 0.950 . S
C1922 C1918 1.385 . S
C1922 C1921 1.374 . S
C1923 C1920 1.499 . S
C1923 C1924 1.373 . S
C1923 C1925 1.389 . S
C1924 H1897 0.950 . S
C1924 C1910 1.377 . S
C1924 C1923 1.373 . S
C1925 C1909 1.377 . S
C1925 C1923 1.389 . S
C1925 C1926 1.524 . S
C1926 C1925 1.524 . S
C1926 C1927 1.397 . S
C1926 C1931 1.363 . S
C1927 H1898 0.950 . S
C1927 C1926 1.397 . S
C1927 C1928 1.334 . S
C1928 H1899 0.950 . S
C1928 C1927 1.334 . S
C1928 C1929 1.287 . S
C1929 C1928 1.287 . S
C1929 C1930 1.524 . S
C1929 H1932 0.999 . S
C1930 H1900 0.950 . S
C1930 C1929 1.524 . S
C1930 C1931 1.415 . S
C1931 H1901 0.950 . S
C1931 C1926 1.363 . S
C1931 C1930 1.415 . S
H1932 C1929 0.999 . S
H1933 C1914 0.913 . S
H1934 C1952 0.951 . S
H1935 C1954 0.951 . S
H1936 C1956 0.950 . S
H1937 C1957 0.950 . S
H1938 C1959 0.950 . S
H1939 C1962 0.950 . S
H1940 C1963 0.950 . S
H1941 C1965 0.950 . S
H1942 C1966 0.950 . S
H1943 C1967 0.951 . S
H1944 C1969 0.951 . S
H1945 C1971 0.950 . S
H1946 C1972 0.950 . S
H1947 C1974 0.950 . S
H1948 C1977 0.950 . S
H1949 C1978 0.950 . S
H1950 C1980 0.950 . S
H1951 C1981 0.950 . S
C1952 H1934 0.951 . S
C1952 C1953 1.366 . S
C1952 C1954 1.388 . S
C1953 C1952 1.366 . S
C1953 C1957 1.385 . S
C1954 H1935 0.951 . S
C1954 C1952 1.388 . S
C1954 C1955 1.366 . S
C1955 C1954 1.366 . S
C1955 C1956 1.414 . S
C1955 C1958 1.499 . S
C1956 H1936 0.950 . S
C1956 C1955 1.414 . S
C1956 C1957 1.374 . S
C1957 H1937 0.950 . S
C1957 C1953 1.385 . S
C1957 C1956 1.374 . S
C1958 C1955 1.499 . S
C1958 C1959 1.373 . S
C1958 C1960 1.389 . S
C1959 H1938 0.950 . S
C1959 C1958 1.373 . S
C1959 C1975 1.377 . S
C1960 C1958 1.389 . S
C1960 C1961 1.524 . S
C1960 C1974 1.377 . S
C1961 C1960 1.524 . S
C1961 C1962 1.397 . S
C1961 C1966 1.363 . S
C1962 H1939 0.950 . S
C1962 C1961 1.397 . S
C1962 C1963 1.334 . S
C1963 H1940 0.950 . S
C1963 C1962 1.334 . S
C1963 C1964 1.287 . S
C1964 C1963 1.287 . S
C1964 C1965 1.524 . S
C1964 H1983 0.913 . S
C1965 H1941 0.950 . S
C1965 C1964 1.524 . S
C1965 C1966 1.415 . S
C1966 H1942 0.950 . S
C1966 C1961 1.363 . S
C1966 C1965 1.415 . S
C1967 H1943 0.951 . S
C1967 C1968 1.366 . S
C1967 C1969 1.388 . S
C1968 C1967 1.366 . S
C1968 C1972 1.385 . S
C1969 H1944 0.951 . S
C1969 C1967 1.388 . S
C1969 C1970 1.366 . S
C1970 C1969 1.366 . S
C1970 C1971 1.414 . S
C1970 C1973 1.499 . S
C1971 H1945 0.950 . S
C1971 C1970 1.414 . S
C1971 C1972 1.374 . S
C1972 H1946 0.950 . S
C1972 C1968 1.385 . S
C1972 C1971 1.374 . S
C1973 C1970 1.499 . S
C1973 C1974 1.373 . S
C1973 C1975 1.389 . S
C1974 H1947 0.950 . S
C1974 C1960 1.377 . S
C1974 C1973 1.373 . S
C1975 C1959 1.377 . S
C1975 C1973 1.389 . S
C1975 C1976 1.524 . S
C1976 C1975 1.524 . S
C1976 C1977 1.397 . S
C1976 C1981 1.363 . S
C1977 H1948 0.950 . S
C1977 C1976 1.397 . S
C1977 C1978 1.334 . S
C1978 H1949 0.950 . S
C1978 C1977 1.334 . S
C1978 C1979 1.287 . S
C1979 C1978 1.287 . S
C1979 C1980 1.524 . S
C1979 H1982 0.999 . S
C1980 H1950 0.950 . S
C1980 C1979 1.524 . S
C1980 C1981 1.415 . S
C1981 H1951 0.950 . S
C1981 C1976 1.363 . S
C1981 C1980 1.415 . S
H1982 C1979 0.999 . S
H1983 C1964 0.913 . S
C203 C14 2.906 . S
C218 P146 2.728 . S
C253 C28 2.717 . S
C268 P169 2.734 . S
C303 P100 2.012 . S
C318 C60 2.167 . S
C353 C86 2.672 . S
C368 P123 2.669 . S
C403 P123 2.634 . S
C418 C17 2.778 . S
C453 C40 2.385 . S
C468 P146 2.384 . S
C503 P169 2.546 . S
C518 C63 2.572 . S
C553 P100 2.237 . S
C568 C83 2.275 . S
C603 P100 2.209 . S
C618 C37 2.186 . S
C653 C51 3.026 . S
C668 P123 3.036 . S
C703 C74 2.480 . S
C718 P146 2.493 . S
C753 P169 2.725 . S
C768 C5 2.925 . S
C803 P54 2.728 . S
C818 C106 2.906 . S
C853 P77 2.734 . S
C868 C120 2.717 . S
C903 P8 2.012 . S
C918 C152 2.167 . S
C953 C178 2.672 . S
C968 P31 2.668 . S
C1003 P31 2.635 . S
C1018 C109 2.777 . S
C1053 P54 2.384 . S
C1068 C132 2.385 . S
C1103 P77 2.546 . S
C1118 C155 2.572 . S
C1153 C175 2.275 . S
C1168 P8 2.237 . S
C1203 P8 2.209 . S
C1218 C129 2.187 . S
C1253 C143 3.026 . S
C1268 P31 3.036 . S
C1303 P54 2.493 . S
C1318 C166 2.481 . S
C1353 P77 2.726 . S
C1368 C97 2.925 . S
C1403 C10 1.312 . S
C1418 C32 0.434 . S
C1453 C66 0.712 . S
C1468 C33 1.028 . S
C1503 C56 1.026 . S
C1518 C89 0.689 . S
C1553 C20 1.046 . S
C1568 C78 0.571 . S
C1603 C55 0.783 . S
C1618 C9 0.836 . S
C1653 C43 0.657 . S
C1668 C79 0.965 . S
C1703 C124 0.437 . S
C1718 C102 1.311 . S
C1753 C125 1.028 . S
C1768 C158 0.712 . S
C1803 C148 1.028 . S
C1818 C181 0.688 . S
C1853 C170 0.571 . S
C1868 C112 1.046 . S
C1903 C101 0.838 . S
C1918 C147 0.781 . S
C1953 C171 0.964 . S
C1968 C135 0.657 . S
