# Generated by pormake.
# Topology pem, (4)-cn, num edge types: 1
# Building blocks:
#     Node 0, Type 0, BuildingBlock: UXUYUI_clean_sbu_0, # of connection points: 4
#     Node 1, Type 0, BuildingBlock: UXUYUI_clean_sbu_0, # of connection points: 4
#     Node 2, Type 0, BuildingBlock: UXUYUI_clean_sbu_0, # of connection points: 4
#     Node 3, Type 0, BuildingBlock: UXUYUI_clean_sbu_0, # of connection points: 4
#     Node 4, Type 0, BuildingBlock: UXUYUI_clean_sbu_0, # of connection points: 4
#     Node 5, Type 0, BuildingBlock: UXUYUI_clean_sbu_0, # of connection points: 4
#     Node 6, Type 0, BuildingBlock: UXUYUI_clean_sbu_0, # of connection points: 4
#     Node 7, Type 0, BuildingBlock: UXUYUI_clean_sbu_0, # of connection points: 4
#     Node 8, Type 0, BuildingBlock: UXUYUI_clean_sbu_0, # of connection points: 4
#     Node 9, Type 0, BuildingBlock: UXUYUI_clean_sbu_0, # of connection points: 4
#     Node 10, Type 0, BuildingBlock: UXUYUI_clean_sbu_0, # of connection points: 4
#     Node 11, Type 0, BuildingBlock: UXUYUI_clean_sbu_0, # of connection points: 4
#     Node 12, Type 0, BuildingBlock: UXUYUI_clean_sbu_0, # of connection points: 4
#     Node 13, Type 0, BuildingBlock: UXUYUI_clean_sbu_0, # of connection points: 4
#     Node 14, Type 0, BuildingBlock: UXUYUI_clean_sbu_0, # of connection points: 4
#     Node 15, Type 0, BuildingBlock: UXUYUI_clean_sbu_0, # of connection points: 4
#     Node 16, Type 0, BuildingBlock: UXUYUI_clean_sbu_0, # of connection points: 4
#     Node 17, Type 0, BuildingBlock: UXUYUI_clean_sbu_0, # of connection points: 4
#     Node 18, Type 0, BuildingBlock: UXUYUI_clean_sbu_0, # of connection points: 4
#     Node 19, Type 0, BuildingBlock: UXUYUI_clean_sbu_0, # of connection points: 4
#     Node 20, Type 0, BuildingBlock: UXUYUI_clean_sbu_0, # of connection points: 4
#     Node 21, Type 0, BuildingBlock: UXUYUI_clean_sbu_0, # of connection points: 4
#     Node 22, Type 0, BuildingBlock: UXUYUI_clean_sbu_0, # of connection points: 4
#     Node 23, Type 0, BuildingBlock: UXUYUI_clean_sbu_0, # of connection points: 4
#     Node 24, Type 0, BuildingBlock: UXUYUI_clean_sbu_0, # of connection points: 4
#     Node 25, Type 0, BuildingBlock: UXUYUI_clean_sbu_0, # of connection points: 4
#     Node 26, Type 0, BuildingBlock: UXUYUI_clean_sbu_0, # of connection points: 4
#     Node 27, Type 0, BuildingBlock: UXUYUI_clean_sbu_0, # of connection points: 4
#     Node 28, Type 0, BuildingBlock: UXUYUI_clean_sbu_0, # of connection points: 4
#     Node 29, Type 0, BuildingBlock: UXUYUI_clean_sbu_0, # of connection points: 4
#     Node 30, Type 0, BuildingBlock: UXUYUI_clean_sbu_0, # of connection points: 4
#     Node 31, Type 0, BuildingBlock: UXUYUI_clean_sbu_0, # of connection points: 4
#     Edge 32, Type (0, 0), BuildingBlock: XUDNAN_clean_linker_2, # of connection points: 2
#     Edge 33, Type (0, 0), BuildingBlock: XUDNAN_clean_linker_2, # of connection points: 2
#     Edge 34, Type (0, 0), BuildingBlock: XUDNAN_clean_linker_2, # of connection points: 2
#     Edge 35, Type (0, 0), BuildingBlock: XUDNAN_clean_linker_2, # of connection points: 2
#     Edge 36, Type (0, 0), BuildingBlock: XUDNAN_clean_linker_2, # of connection points: 2
#     Edge 37, Type (0, 0), BuildingBlock: XUDNAN_clean_linker_2, # of connection points: 2
#     Edge 38, Type (0, 0), BuildingBlock: XUDNAN_clean_linker_2, # of connection points: 2
#     Edge 39, Type (0, 0), BuildingBlock: XUDNAN_clean_linker_2, # of connection points: 2
#     Edge 40, Type (0, 0), BuildingBlock: XUDNAN_clean_linker_2, # of connection points: 2
#     Edge 41, Type (0, 0), BuildingBlock: XUDNAN_clean_linker_2, # of connection points: 2
#     Edge 42, Type (0, 0), BuildingBlock: XUDNAN_clean_linker_2, # of connection points: 2
#     Edge 43, Type (0, 0), BuildingBlock: XUDNAN_clean_linker_2, # of connection points: 2
#     Edge 44, Type (0, 0), BuildingBlock: XUDNAN_clean_linker_2, # of connection points: 2
#     Edge 45, Type (0, 0), BuildingBlock: XUDNAN_clean_linker_2, # of connection points: 2
#     Edge 46, Type (0, 0), BuildingBlock: XUDNAN_clean_linker_2, # of connection points: 2
#     Edge 47, Type (0, 0), BuildingBlock: XUDNAN_clean_linker_2, # of connection points: 2
#     Edge 48, Type (0, 0), BuildingBlock: XUDNAN_clean_linker_2, # of connection points: 2
#     Edge 49, Type (0, 0), BuildingBlock: XUDNAN_clean_linker_2, # of connection points: 2
#     Edge 50, Type (0, 0), BuildingBlock: XUDNAN_clean_linker_2, # of connection points: 2
#     Edge 51, Type (0, 0), BuildingBlock: XUDNAN_clean_linker_2, # of connection points: 2
#     Edge 52, Type (0, 0), BuildingBlock: XUDNAN_clean_linker_2, # of connection points: 2
#     Edge 53, Type (0, 0), BuildingBlock: XUDNAN_clean_linker_2, # of connection points: 2
#     Edge 54, Type (0, 0), BuildingBlock: XUDNAN_clean_linker_2, # of connection points: 2
#     Edge 55, Type (0, 0), BuildingBlock: XUDNAN_clean_linker_2, # of connection points: 2
#     Edge 56, Type (0, 0), BuildingBlock: XUDNAN_clean_linker_2, # of connection points: 2
#     Edge 57, Type (0, 0), BuildingBlock: XUDNAN_clean_linker_2, # of connection points: 2
#     Edge 58, Type (0, 0), BuildingBlock: XUDNAN_clean_linker_2, # of connection points: 2
#     Edge 59, Type (0, 0), BuildingBlock: XUDNAN_clean_linker_2, # of connection points: 2
#     Edge 60, Type (0, 0), BuildingBlock: XUDNAN_clean_linker_2, # of connection points: 2
#     Edge 61, Type (0, 0), BuildingBlock: XUDNAN_clean_linker_2, # of connection points: 2
#     Edge 62, Type (0, 0), BuildingBlock: XUDNAN_clean_linker_2, # of connection points: 2
#     Edge 63, Type (0, 0), BuildingBlock: XUDNAN_clean_linker_2, # of connection points: 2
#     Edge 64, Type (0, 0), BuildingBlock: XUDNAN_clean_linker_2, # of connection points: 2
#     Edge 65, Type (0, 0), BuildingBlock: XUDNAN_clean_linker_2, # of connection points: 2
#     Edge 66, Type (0, 0), BuildingBlock: XUDNAN_clean_linker_2, # of connection points: 2
#     Edge 67, Type (0, 0), BuildingBlock: XUDNAN_clean_linker_2, # of connection points: 2
#     Edge 68, Type (0, 0), BuildingBlock: XUDNAN_clean_linker_2, # of connection points: 2
#     Edge 69, Type (0, 0), BuildingBlock: XUDNAN_clean_linker_2, # of connection points: 2
#     Edge 70, Type (0, 0), BuildingBlock: XUDNAN_clean_linker_2, # of connection points: 2
#     Edge 71, Type (0, 0), BuildingBlock: XUDNAN_clean_linker_2, # of connection points: 2
#     Edge 72, Type (0, 0), BuildingBlock: XUDNAN_clean_linker_2, # of connection points: 2
#     Edge 73, Type (0, 0), BuildingBlock: XUDNAN_clean_linker_2, # of connection points: 2
#     Edge 74, Type (0, 0), BuildingBlock: XUDNAN_clean_linker_2, # of connection points: 2
#     Edge 75, Type (0, 0), BuildingBlock: XUDNAN_clean_linker_2, # of connection points: 2
#     Edge 76, Type (0, 0), BuildingBlock: XUDNAN_clean_linker_2, # of connection points: 2
#     Edge 77, Type (0, 0), BuildingBlock: XUDNAN_clean_linker_2, # of connection points: 2
#     Edge 78, Type (0, 0), BuildingBlock: XUDNAN_clean_linker_2, # of connection points: 2
#     Edge 79, Type (0, 0), BuildingBlock: XUDNAN_clean_linker_2, # of connection points: 2
#     Edge 80, Type (0, 0), BuildingBlock: XUDNAN_clean_linker_2, # of connection points: 2
#     Edge 81, Type (0, 0), BuildingBlock: XUDNAN_clean_linker_2, # of connection points: 2
#     Edge 82, Type (0, 0), BuildingBlock: XUDNAN_clean_linker_2, # of connection points: 2
#     Edge 83, Type (0, 0), BuildingBlock: XUDNAN_clean_linker_2, # of connection points: 2
#     Edge 84, Type (0, 0), BuildingBlock: XUDNAN_clean_linker_2, # of connection points: 2
#     Edge 85, Type (0, 0), BuildingBlock: XUDNAN_clean_linker_2, # of connection points: 2
#     Edge 86, Type (0, 0), BuildingBlock: XUDNAN_clean_linker_2, # of connection points: 2
#     Edge 87, Type (0, 0), BuildingBlock: XUDNAN_clean_linker_2, # of connection points: 2
#     Edge 88, Type (0, 0), BuildingBlock: XUDNAN_clean_linker_2, # of connection points: 2
#     Edge 89, Type (0, 0), BuildingBlock: XUDNAN_clean_linker_2, # of connection points: 2
#     Edge 90, Type (0, 0), BuildingBlock: XUDNAN_clean_linker_2, # of connection points: 2
#     Edge 91, Type (0, 0), BuildingBlock: XUDNAN_clean_linker_2, # of connection points: 2
#     Edge 92, Type (0, 0), BuildingBlock: XUDNAN_clean_linker_2, # of connection points: 2
#     Edge 93, Type (0, 0), BuildingBlock: XUDNAN_clean_linker_2, # of connection points: 2
#     Edge 94, Type (0, 0), BuildingBlock: XUDNAN_clean_linker_2, # of connection points: 2
#     Edge 95, Type (0, 0), BuildingBlock: XUDNAN_clean_linker_2, # of connection points: 2
# Relax obj value: 0.135
# Max RMSD: 0.073
# Mean RMSD: 0.073
data_MOF--net-pem--node1-UXUYUI_clean_sbu_0--edge1-XUDNAN_clean_linker_2
_symmetry_space_group_name_H-M    P1
_symmetry_Int_Tables_number       1
_symmetry_cell_setting            triclinic
loop_
_symmetry_equiv_pos_as_xyz
'x, y, z'
_cell_length_a     63.155384
_cell_length_b     62.843734
_cell_length_c     62.818594
_cell_angle_alpha  90.004219
_cell_angle_beta   89.986327
_cell_angle_gamma 90.04115
loop_
_atom_site_label
_atom_site_type_symbol
_atom_site_fract_x
_atom_site_fract_y
_atom_site_fract_z
_atom_type_partial_charge
Li0 Li 0.07878 0.10736 0.10194 0.0
Li1 Li 0.11136 0.08128 0.11513 0.0
Li2 Li 0.1102 0.09945 0.07676 0.0
Li3 Li 0.08445 0.07369 0.08824 0.0
C4 C 0.10192 0.13156 0.11499 0.0
N5 N 0.07973 0.16529 0.13171 0.0
C6 C 0.09636 0.13161 0.13651 0.0
C7 C 0.0972 0.14911 0.10223 0.0
C8 C 0.08539 0.14896 0.14475 0.0
C9 C 0.0856 0.16588 0.1109 0.0
C10 C 0.06627 0.06486 0.12654 0.0
C11 C 0.05666 0.02789 0.13073 0.0
N12 N 0.03885 0.03381 0.14134 0.0
C13 C 0.0478 0.07052 0.13742 0.0
C14 C 0.07071 0.04332 0.12322 0.0
C15 C 0.03419 0.05464 0.14483 0.0
C16 C 0.04616 0.13972 0.09155 0.0
N17 N 0.05408 0.12799 0.10806 0.0
C18 C 0.03136 0.14746 0.13217 0.0
C19 C 0.04571 0.13079 0.12793 0.0
C20 C 0.02442 0.16091 0.11569 0.0
C21 C 0.03142 0.15624 0.09499 0.0
H22 H 0.05182 0.13693 0.07566 0.0
H23 H 0.05151 0.12138 0.14105 0.0
C24 C 0.14707 0.07411 0.1496 0.0
N25 N 0.13099 0.06627 0.13714 0.0
C26 C 0.15501 0.06216 0.16723 0.0
C27 C 0.13582 0.03228 0.1543 0.0
C28 C 0.12651 0.04516 0.13869 0.0
C29 C 0.14738 0.04135 0.17126 0.0
H30 H 0.15182 0.09052 0.14795 0.0
H31 H 0.11533 0.03809 0.12799 0.0
C32 C 0.07686 0.10533 0.05084 0.0
N33 N 0.07235 0.11648 0.00846 0.0
C34 C 0.07183 0.08989 0.03562 0.0
C35 C 0.07916 0.12652 0.04445 0.0
C36 C 0.06976 0.09581 0.01429 0.0
C37 C 0.0769 0.13184 0.02299 0.0
C38 C 0.11804 0.05069 0.07428 0.0
C39 C 0.11145 0.04982 0.05306 0.0
C40 C 0.12823 0.03305 0.08315 0.0
C41 C 0.11418 0.03106 0.04145 0.0
C42 C 0.13048 0.01449 0.07114 0.0
N43 N 0.12343 0.01387 0.05071 0.0
C44 C 0.14347 0.09356 0.04544 0.0
C45 C 0.13101 0.12893 0.04564 0.0
C46 C 0.15915 0.09871 0.03043 0.0
N47 N 0.12991 0.1086 0.05322 0.0
C48 C 0.14651 0.13479 0.03056 0.0
C49 C 0.16127 0.11969 0.02307 0.0
H50 H 0.14325 0.07771 0.05188 0.0
H51 H 0.12063 0.14099 0.05202 0.0
C52 C 0.04551 0.06726 0.08011 0.0
N53 N 0.06369 0.05573 0.07917 0.0
C54 C 0.02738 0.05985 0.07045 0.0
C55 C 0.04654 0.02766 0.06119 0.0
C56 C 0.06439 0.03575 0.07117 0.0
C57 C 0.02828 0.04045 0.05982 0.0
H58 H 0.04558 0.08294 0.0872 0.0
H59 H 0.07892 0.02671 0.07143 0.0
O60 O 0.11099 0.11386 0.10622 0.0
O61 O 0.0798 0.08034 0.11922 0.0
O62 O 0.07962 0.0998 0.0718 0.0
O63 O 0.1155 0.06903 0.08587 0.0
H64 H 0.10012 0.11821 0.14657 0.0
H65 H 0.10185 0.14944 0.0857 0.0
H66 H 0.08061 0.14906 0.16129 0.0
H67 H 0.08107 0.17925 0.10107 0.0
H68 H 0.0598 0.0112 0.12792 0.0
H69 H 0.04392 0.08695 0.14018 0.0
H70 H 0.08425 0.03856 0.11392 0.0
H71 H 0.0199 0.05888 0.1533 0.0
H72 H 0.02626 0.15021 0.1484 0.0
H73 H 0.02636 0.16593 0.08167 0.0
H74 H 0.1652 0.07007 0.17856 0.0
H75 H 0.13248 0.01548 0.1535 0.0
H76 H 0.06952 0.07346 0.04013 0.0
H77 H 0.08288 0.13879 0.05589 0.0
H78 H 0.06607 0.08395 0.00237 0.0
H79 H 0.07884 0.14817 0.0179 0.0
H80 H 0.10458 0.0636 0.04557 0.0
H81 H 0.13495 0.03373 0.09886 0.0
H82 H 0.10897 0.03019 0.02507 0.0
H83 H 0.13812 0.00069 0.07798 0.0
H84 H 0.17022 0.08652 0.02552 0.0
H85 H 0.14731 0.15118 0.02533 0.0
H86 H 0.0135 0.06994 0.06959 0.0
H87 H 0.04767 0.01258 0.05291 0.0
Li88 Li 0.17242 0.85959 0.35562 0.0
Li89 Li 0.14299 0.87301 0.32814 0.0
Li90 Li 0.13843 0.83692 0.34973 0.0
Li91 Li 0.16416 0.84032 0.32261 0.0
C92 C 0.14838 0.8714 0.3815 0.0
N93 N 0.16828 0.87768 0.42006 0.0
C94 C 0.15607 0.89134 0.38685 0.0
C95 C 0.15051 0.85467 0.39585 0.0
C96 C 0.16561 0.89445 0.40666 0.0
C97 C 0.16082 0.858 0.41518 0.0
C98 C 0.18921 0.88181 0.31533 0.0
C99 C 0.21286 0.88731 0.28562 0.0
N100 N 0.21912 0.90613 0.29425 0.0
C101 C 0.19554 0.90144 0.32362 0.0
C102 C 0.1977 0.87488 0.29594 0.0
C103 C 0.21081 0.9134 0.31284 0.0
C104 C 0.20867 0.85014 0.38495 0.0
N105 N 0.1977 0.86634 0.37549 0.0
C106 C 0.21921 0.89147 0.39504 0.0
C107 C 0.2038 0.88675 0.37955 0.0
C108 C 0.23022 0.87514 0.40594 0.0
C109 C 0.22477 0.85412 0.40014 0.0
H110 H 0.20521 0.83394 0.38062 0.0
H111 H 0.19581 0.89976 0.37181 0.0
C112 C 0.10741 0.90124 0.30855 0.0
N113 N 0.12881 0.89757 0.31015 0.0
C114 C 0.09912 0.91807 0.29569 0.0
C115 C 0.1343 0.92531 0.28381 0.0
C116 C 0.14199 0.90921 0.29744 0.0
C117 C 0.11277 0.931 0.28337 0.0
H118 H 0.09659 0.89166 0.31776 0.0
H119 H 0.15874 0.90603 0.29757 0.0
C120 C 0.16883 0.80816 0.35833 0.0
N121 N 0.16898 0.76651 0.3726 0.0
C122 C 0.16407 0.79151 0.34436 0.0
C123 C 0.17337 0.80357 0.37966 0.0
C124 C 0.1643 0.77057 0.35187 0.0
C125 C 0.17346 0.78244 0.38653 0.0
C126 C 0.12869 0.8453 0.29696 0.0
C127 C 0.1119 0.83384 0.28795 0.0
C128 C 0.14133 0.85792 0.28375 0.0
C129 C 0.10832 0.83501 0.26603 0.0
C130 C 0.13714 0.85887 0.26196 0.0
N131 N 0.1209 0.84741 0.25359 0.0
C132 C 0.10694 0.80489 0.34443 0.0
C133 C 0.11963 0.80394 0.37967 0.0
C134 C 0.09214 0.78882 0.34887 0.0
N135 N 0.11956 0.81318 0.35995 0.0
C136 C 0.10519 0.78774 0.3848 0.0
C137 C 0.09056 0.78051 0.36954 0.0
H138 H 0.10782 0.81132 0.32868 0.0
H139 H 0.13045 0.80907 0.39181 0.0
C140 C 0.1993 0.82405 0.31263 0.0
N141 N 0.17947 0.82486 0.30453 0.0
C142 C 0.21523 0.8148 0.30103 0.0
C143 C 0.18959 0.80643 0.27337 0.0
C144 C 0.17395 0.81573 0.28577 0.0
C145 C 0.21041 0.80647 0.28103 0.0
H146 H 0.20282 0.83154 0.32772 0.0
H147 H 0.15777 0.81616 0.28024 0.0
O148 O 0.14075 0.86765 0.3615 0.0
O149 O 0.17429 0.86988 0.32582 0.0
O150 O 0.16843 0.82883 0.35133 0.0
O151 O 0.13361 0.84326 0.31818 0.0
H152 H 0.15645 0.90352 0.37493 0.0
H153 H 0.14508 0.83916 0.3916 0.0
H154 H 0.17206 0.90986 0.4108 0.0
H155 H 0.16307 0.84496 0.42618 0.0
H156 H 0.21957 0.88204 0.27067 0.0
H157 H 0.18836 0.90761 0.33793 0.0
H158 H 0.19249 0.86028 0.28861 0.0
H159 H 0.21591 0.92857 0.31917 0.0
H160 H 0.22179 0.90807 0.39856 0.0
H161 H 0.23292 0.84065 0.40701 0.0
H162 H 0.08233 0.92146 0.29611 0.0
H163 H 0.14549 0.93382 0.27426 0.0
H164 H 0.15999 0.79468 0.32796 0.0
H165 H 0.1763 0.81613 0.39101 0.0
H166 H 0.16066 0.75755 0.34122 0.0
H167 H 0.17691 0.77874 0.40298 0.0
H168 H 0.10163 0.82403 0.2975 0.0
H169 H 0.15451 0.86663 0.29017 0.0
H170 H 0.09554 0.82604 0.25891 0.0
H171 H 0.14693 0.86857 0.25168 0.0
H172 H 0.08144 0.78366 0.33642 0.0
H173 H 0.10517 0.7813 0.40079 0.0
H174 H 0.23127 0.81502 0.30716 0.0
H175 H 0.18567 0.79967 0.258 0.0
Li176 Li 0.39203 0.916 0.61804 0.0
Li177 Li 0.42382 0.88889 0.60348 0.0
Li178 Li 0.41763 0.92348 0.58987 0.0
Li179 Li 0.39038 0.89812 0.57938 0.0
C180 C 0.43863 0.93205 0.62568 0.0
N181 N 0.46743 0.96321 0.63719 0.0
C182 C 0.45822 0.92645 0.63435 0.0
C183 C 0.43382 0.95357 0.62273 0.0
C184 C 0.47252 0.9424 0.64013 0.0
C185 C 0.44854 0.96906 0.62862 0.0
C186 C 0.39973 0.86495 0.61554 0.0
C187 C 0.41276 0.82975 0.60813 0.0
N188 N 0.42131 0.82906 0.62796 0.0
C189 C 0.40795 0.86362 0.63606 0.0
C190 C 0.40188 0.84788 0.60147 0.0
C191 C 0.41894 0.84539 0.642 0.0
C192 C 0.35546 0.92332 0.65153 0.0
N193 N 0.37251 0.93106 0.64036 0.0
C194 C 0.36854 0.96443 0.65907 0.0
C195 C 0.37856 0.9515 0.64395 0.0
C196 C 0.3521 0.95658 0.67235 0.0
C197 C 0.34534 0.93562 0.66764 0.0
H198 H 0.35063 0.907 0.64946 0.0
H199 H 0.39183 0.9579 0.63546 0.0
C200 C 0.45641 0.85416 0.59306 0.0
N201 N 0.4491 0.86695 0.60916 0.0
C202 C 0.47161 0.83786 0.59668 0.0
C203 C 0.47324 0.84854 0.63318 0.0
C204 C 0.4585 0.86501 0.62873 0.0
C205 C 0.47988 0.83422 0.61718 0.0
H206 H 0.45022 0.85612 0.57726 0.0
H207 H 0.45337 0.87515 0.64162 0.0
C208 C 0.38261 0.94649 0.57773 0.0
N209 N 0.37369 0.98271 0.55426 0.0
C210 C 0.3848 0.94643 0.55555 0.0
C211 C 0.3754 0.96494 0.58783 0.0
C212 C 0.38031 0.96487 0.544 0.0
C213 C 0.37114 0.98311 0.57575 0.0
C214 C 0.42247 0.89097 0.55222 0.0
C215 C 0.42383 0.90637 0.53621 0.0
C216 C 0.42216 0.86946 0.54656 0.0
C217 C 0.42517 0.90004 0.51495 0.0
C218 C 0.42355 0.86373 0.52513 0.0
N219 N 0.42503 0.87901 0.50988 0.0
C220 C 0.45403 0.93125 0.57292 0.0
C221 C 0.43141 0.96112 0.56845 0.0
C222 C 0.46512 0.93633 0.55469 0.0
N223 N 0.43638 0.94244 0.57795 0.0
C224 C 0.44213 0.96693 0.55012 0.0
C225 C 0.45794 0.95332 0.54226 0.0
H226 H 0.45751 0.91655 0.58118 0.0
H227 H 0.41795 0.97028 0.57367 0.0
C228 C 0.35344 0.90677 0.55401 0.0
N229 N 0.36857 0.89143 0.55622 0.0
C230 C 0.33815 0.90584 0.53787 0.0
C231 C 0.35288 0.87257 0.52638 0.0
C232 C 0.36813 0.87417 0.54292 0.0
C233 C 0.33783 0.88887 0.52331 0.0
H234 H 0.35262 0.91963 0.5653 0.0
H235 H 0.3796 0.86161 0.54492 0.0
O236 O 0.42419 0.91655 0.6205 0.0
O237 O 0.39093 0.88355 0.60876 0.0
O238 O 0.3868 0.9284 0.58929 0.0
O239 O 0.4211 0.89687 0.57322 0.0
H240 H 0.46237 0.90998 0.63671 0.0
H241 H 0.41928 0.95827 0.61505 0.0
H242 H 0.48768 0.93823 0.64695 0.0
H243 H 0.44503 0.98574 0.62621 0.0
H244 H 0.41479 0.81643 0.59742 0.0
H245 H 0.40664 0.87684 0.64697 0.0
H246 H 0.39535 0.84875 0.58558 0.0
H247 H 0.42621 0.84451 0.65757 0.0
H248 H 0.37542 0.98001 0.66103 0.0
H249 H 0.33319 0.9282 0.67722 0.0
H250 H 0.47619 0.82762 0.58361 0.0
H251 H 0.47913 0.8468 0.64927 0.0
H252 H 0.38968 0.93221 0.54731 0.0
H253 H 0.37288 0.96533 0.60475 0.0
H254 H 0.38206 0.96498 0.52687 0.0
H255 H 0.3657 0.9975 0.58346 0.0
H256 H 0.42386 0.92308 0.54004 0.0
H257 H 0.42028 0.85725 0.55849 0.0
H258 H 0.4263 0.91186 0.50248 0.0
H259 H 0.42327 0.84712 0.52061 0.0
H260 H 0.47755 0.92576 0.54928 0.0
H261 H 0.43711 0.98091 0.54139 0.0
H262 H 0.32656 0.91849 0.53685 0.0
H263 H 0.35332 0.85905 0.51572 0.0
Li264 Li 0.36006 0.13091 0.83569 0.0
Li265 Li 0.33037 0.14736 0.86163 0.0
Li266 Li 0.33801 0.16288 0.82805 0.0
Li267 Li 0.36467 0.16939 0.85417 0.0
C268 C 0.31447 0.12261 0.82117 0.0
N269 N 0.28587 0.10055 0.79614 0.0
C270 C 0.30232 0.10621 0.82988 0.0
C271 C 0.31243 0.12739 0.7995 0.0
C272 C 0.28788 0.09533 0.81704 0.0
C273 C 0.29777 0.1162 0.78718 0.0
C274 C 0.3526 0.13382 0.8874 0.0
C275 C 0.33763 0.14377 0.92121 0.0
N276 N 0.33088 0.12341 0.924 0.0
C277 C 0.34608 0.1129 0.8909 0.0
C278 C 0.34892 0.14927 0.90292 0.0
C279 C 0.33521 0.1079 0.90952 0.0
C280 C 0.39368 0.09525 0.82468 0.0
N281 N 0.37434 0.10466 0.82101 0.0
C282 C 0.36927 0.08046 0.79157 0.0
C283 C 0.36226 0.09691 0.80481 0.0
C284 C 0.38866 0.06996 0.79531 0.0
C285 C 0.40095 0.07779 0.81226 0.0
H286 H 0.40347 0.10023 0.83771 0.0
H287 H 0.34689 0.10351 0.80188 0.0
C288 C 0.29627 0.1612 0.88916 0.0
N289 N 0.3051 0.14303 0.88139 0.0
C290 C 0.28095 0.16063 0.90534 0.0
C291 C 0.28173 0.12247 0.90396 0.0
C292 C 0.29684 0.12386 0.88745 0.0
C293 C 0.27404 0.14107 0.91384 0.0
H294 H 0.30118 0.17634 0.88293 0.0
H295 H 0.30296 0.10935 0.88069 0.0
C296 C 0.37206 0.16462 0.80221 0.0
N297 N 0.37946 0.17293 0.75947 0.0
C298 C 0.37944 0.18464 0.79569 0.0
C299 C 0.36777 0.1493 0.78672 0.0
C300 C 0.38339 0.18838 0.77409 0.0
C301 C 0.37164 0.15365 0.7653 0.0
C302 C 0.33514 0.19891 0.86043 0.0
C303 C 0.33839 0.2143 0.8447 0.0
C304 C 0.3326 0.2053 0.88163 0.0
C305 C 0.33862 0.23581 0.85039 0.0
C306 C 0.33297 0.22693 0.88667 0.0
N307 N 0.33591 0.24162 0.87107 0.0
C308 C 0.30007 0.17386 0.81849 0.0
C309 C 0.32366 0.18591 0.79146 0.0
C310 C 0.28285 0.18227 0.80789 0.0
N311 N 0.3198 0.17564 0.81 0.0
C312 C 0.30694 0.19474 0.78043 0.0
C313 C 0.28649 0.19273 0.78877 0.0
H314 H 0.29784 0.16577 0.83352 0.0
H315 H 0.33941 0.18742 0.78527 0.0
C316 C 0.40023 0.19823 0.8481 0.0
N317 N 0.38569 0.1923 0.86307 0.0
C318 C 0.41574 0.21373 0.85232 0.0
C319 C 0.40141 0.21747 0.88754 0.0
C320 C 0.38593 0.20201 0.88253 0.0
C321 C 0.41681 0.22349 0.87237 0.0
H322 H 0.40105 0.18963 0.83336 0.0
H323 H 0.37456 0.19738 0.89451 0.0
O324 O 0.32884 0.13321 0.83368 0.0
O325 O 0.36153 0.13941 0.86835 0.0
O326 O 0.36901 0.15989 0.82339 0.0
O327 O 0.33484 0.17773 0.8552 0.0
H328 H 0.3043 0.1016 0.84627 0.0
H329 H 0.32229 0.13927 0.79206 0.0
H330 H 0.27837 0.08263 0.82367 0.0
H331 H 0.29599 0.11984 0.77044 0.0
H332 H 0.33411 0.15567 0.93313 0.0
H333 H 0.34906 0.10075 0.87921 0.0
H334 H 0.35425 0.16542 0.90056 0.0
H335 H 0.32956 0.09185 0.91212 0.0
H336 H 0.3588 0.07562 0.77886 0.0
H337 H 0.416 0.07048 0.81606 0.0
H338 H 0.2747 0.17557 0.91112 0.0
H339 H 0.2769 0.10688 0.90942 0.0
H340 H 0.38131 0.19754 0.80682 0.0
H341 H 0.361 0.1344 0.79109 0.0
H342 H 0.3892 0.20372 0.76892 0.0
H343 H 0.36832 0.14174 0.75332 0.0
H344 H 0.3408 0.20972 0.82829 0.0
H345 H 0.33067 0.19374 0.89421 0.0
H346 H 0.34102 0.24788 0.83836 0.0
H347 H 0.33102 0.23201 0.90301 0.0
H348 H 0.26708 0.18091 0.81456 0.0
H349 H 0.30987 0.2032 0.76567 0.0
H350 H 0.42746 0.21723 0.84023 0.0
H351 H 0.40138 0.22453 0.90326 0.0
Li352 Li 0.08359 0.92207 0.42223 0.0
Li353 Li 0.1098 0.89394 0.42768 0.0
Li354 Li 0.10538 0.91365 0.39137 0.0
Li355 Li 0.07547 0.88708 0.40561 0.0
C356 C 0.11823 0.94656 0.42084 0.0
N357 N 0.12459 0.99023 0.42331 0.0
C358 C 0.12906 0.95555 0.4382 0.0
C359 C 0.1103 0.96015 0.40514 0.0
C360 C 0.13216 0.97754 0.43908 0.0
C361 C 0.1138 0.98203 0.4065 0.0
C362 C 0.07855 0.88402 0.45565 0.0
C363 C 0.0811 0.85182 0.47646 0.0
N364 N 0.07609 0.86302 0.49427 0.0
C365 C 0.07328 0.89516 0.47416 0.0
C366 C 0.08247 0.86217 0.45684 0.0
C367 C 0.07221 0.88429 0.49353 0.0
C368 C 0.0539 0.95412 0.43099 0.0
N369 N 0.07181 0.9438 0.43684 0.0
C370 C 0.0755 0.96444 0.46809 0.0
C371 C 0.08252 0.94845 0.45491 0.0
C372 C 0.05672 0.9749 0.46292 0.0
C373 C 0.04606 0.97017 0.4439 0.0
H374 H 0.04522 0.94917 0.41703 0.0
H375 H 0.09596 0.93889 0.45957 0.0
C376 C 0.14591 0.90152 0.45283 0.0
N377 N 0.13202 0.88531 0.44952 0.0
C378 C 0.16253 0.89989 0.46745 0.0
C379 C 0.1511 0.86441 0.47572 0.0
C380 C 0.13447 0.86677 0.46071 0.0
C381 C 0.16566 0.88111 0.47913 0.0
H382 H 0.14511 0.91528 0.44289 0.0
H383 H 0.12405 0.8535 0.45773 0.0
C384 C 0.06478 0.92688 0.37549 0.0
N385 N 0.04793 0.94692 0.34005 0.0
C386 C 0.05877 0.91506 0.35764 0.0
C387 C 0.06208 0.949 0.37523 0.0
C388 C 0.05033 0.92543 0.3399 0.0
C389 C 0.05359 0.95881 0.35721 0.0
C390 C 0.09875 0.86605 0.38401 0.0
C391 C 0.09539 0.87088 0.36257 0.0
C392 C 0.09151 0.84674 0.39221 0.0
C393 C 0.08456 0.85639 0.3497 0.0
C394 C 0.07977 0.8332 0.37913 0.0
N395 N 0.07665 0.83821 0.3583 0.0
C396 C 0.14116 0.93982 0.37278 0.0
C397 C 0.11359 0.93143 0.34917 0.0
C398 C 0.15112 0.9528 0.35723 0.0
N399 N 0.12267 0.92905 0.36852 0.0
C400 C 0.12275 0.9446 0.33376 0.0
C401 C 0.14191 0.95526 0.33702 0.0
H402 H 0.14813 0.93878 0.38846 0.0
H403 H 0.09858 0.92402 0.34596 0.0
C404 C 0.04251 0.8563 0.41882 0.0
N405 N 0.04995 0.86601 0.40089 0.0
C406 C 0.02744 0.8398 0.41795 0.0
C407 C 0.02563 0.84406 0.38015 0.0
C408 C 0.0406 0.86089 0.38184 0.0
C409 C 0.01922 0.83254 0.39834 0.0
H410 H 0.04822 0.86124 0.43412 0.0
H411 H 0.04547 0.86886 0.36751 0.0
O412 O 0.11433 0.92494 0.4196 0.0
O413 O 0.07949 0.89431 0.43642 0.0
O414 O 0.07315 0.91683 0.39301 0.0
O415 O 0.10716 0.88104 0.39732 0.0
H416 H 0.13428 0.94609 0.45149 0.0
H417 H 0.1016 0.95384 0.39188 0.0
H418 H 0.14037 0.98456 0.45246 0.0
H419 H 0.10787 0.99251 0.39421 0.0
H420 H 0.08409 0.83491 0.47752 0.0
H421 H 0.06972 0.91194 0.47362 0.0
H422 H 0.0865 0.85325 0.44272 0.0
H423 H 0.06815 0.89275 0.50797 0.0
H424 H 0.08346 0.9671 0.48314 0.0
H425 H 0.03106 0.9776 0.44004 0.0
H426 H 0.17315 0.91331 0.46921 0.0
H427 H 0.15291 0.84943 0.48404 0.0
H428 H 0.06115 0.89814 0.35718 0.0
H429 H 0.06647 0.95867 0.38871 0.0
H430 H 0.04584 0.9164 0.32595 0.0
H431 H 0.05149 0.97589 0.35688 0.0
H432 H 0.10086 0.88583 0.35608 0.0
H433 H 0.09399 0.84272 0.40872 0.0
H434 H 0.08182 0.85987 0.33308 0.0
H435 H 0.07282 0.8189 0.38564 0.0
H436 H 0.16526 0.96162 0.36137 0.0
H437 H 0.114 0.94746 0.31986 0.0
H438 H 0.02234 0.83281 0.43282 0.0
H439 H 0.01978 0.83971 0.36456 0.0
Li440 Li 0.33192 0.84543 0.68271 0.0
Li441 Li 0.35976 0.83534 0.65817 0.0
Li442 Li 0.35973 0.87291 0.67553 0.0
Li443 Li 0.32843 0.86132 0.64845 0.0
C444 C 0.36413 0.83428 0.70869 0.0
N445 N 0.36899 0.81621 0.74873 0.0
C446 C 0.37121 0.81324 0.7109 0.0
C447 C 0.35827 0.84544 0.72704 0.0
C448 C 0.37387 0.80455 0.73119 0.0
C449 C 0.3612 0.83628 0.74707 0.0
C450 C 0.32744 0.80919 0.65067 0.0
C451 C 0.31983 0.78058 0.6261 0.0
N452 N 0.3258 0.76621 0.6411 0.0
C453 C 0.33355 0.79408 0.66577 0.0
C454 C 0.32074 0.80233 0.63054 0.0
C455 C 0.33267 0.77247 0.66063 0.0
C456 C 0.29354 0.83175 0.68597 0.0
N457 N 0.31091 0.8323 0.69876 0.0
C458 C 0.30306 0.79823 0.71275 0.0
C459 C 0.31498 0.81668 0.7131 0.0
C460 C 0.28686 0.79614 0.69768 0.0
C461 C 0.28112 0.81351 0.6851 0.0
H462 H 0.29116 0.84413 0.67426 0.0
H463 H 0.32862 0.81718 0.72318 0.0
C464 C 0.39669 0.81213 0.66523 0.0
N465 N 0.37989 0.81185 0.65171 0.0
C466 C 0.41275 0.79698 0.66381 0.0
C467 C 0.39402 0.78054 0.63476 0.0
C468 C 0.37815 0.79601 0.63687 0.0
C469 C 0.41172 0.78094 0.64831 0.0
H470 H 0.39807 0.82474 0.67684 0.0
H471 H 0.36452 0.79505 0.6266 0.0
C472 C 0.31154 0.88556 0.68728 0.0
N473 N 0.27876 0.90484 0.70919 0.0
C474 C 0.29802 0.89975 0.6769 0.0
C475 C 0.30839 0.88125 0.70887 0.0
C476 C 0.28159 0.90937 0.68822 0.0
C477 C 0.29169 0.89106 0.71964 0.0
C478 C 0.35371 0.86224 0.62154 0.0
C479 C 0.34632 0.87974 0.61001 0.0
C480 C 0.35305 0.84221 0.61203 0.0
C481 C 0.33692 0.87648 0.59013 0.0
C482 C 0.34457 0.83971 0.59168 0.0
N483 N 0.33631 0.85675 0.58137 0.0
C484 C 0.38202 0.89467 0.71134 0.0
C485 C 0.39286 0.9098 0.6793 0.0
C486 C 0.39291 0.91035 0.723 0.0
N487 N 0.38053 0.89519 0.68968 0.0
C488 C 0.40219 0.92724 0.69034 0.0
C489 C 0.40115 0.9285 0.71281 0.0
H490 H 0.37424 0.88256 0.72008 0.0
H491 H 0.39472 0.90866 0.66233 0.0
C492 C 0.29119 0.85118 0.62229 0.0
N493 N 0.30403 0.8678 0.62783 0.0
C494 C 0.27619 0.85305 0.60576 0.0
C495 C 0.2857 0.8899 0.60234 0.0
C496 C 0.30027 0.88737 0.61915 0.0
C497 C 0.27386 0.87242 0.59484 0.0
H498 H 0.29267 0.83624 0.63054 0.0
H499 H 0.30964 0.90089 0.62412 0.0
O500 O 0.36261 0.8437 0.68891 0.0
O501 O 0.32932 0.83052 0.65508 0.0
O502 O 0.32797 0.87649 0.67631 0.0
O503 O 0.36086 0.86431 0.64218 0.0
H504 H 0.37417 0.80331 0.69729 0.0
H505 H 0.35053 0.86059 0.72594 0.0
H506 H 0.37959 0.78843 0.73298 0.0
H507 H 0.35685 0.84498 0.76127 0.0
H508 H 0.31471 0.77514 0.61059 0.0
H509 H 0.3394 0.79899 0.68112 0.0
H510 H 0.31686 0.81357 0.61816 0.0
H511 H 0.33761 0.76067 0.67214 0.0
H512 H 0.3071 0.78531 0.72344 0.0
H513 H 0.2682 0.81243 0.67381 0.0
H514 H 0.4262 0.79837 0.6744 0.0
H515 H 0.3922 0.76818 0.62289 0.0
H516 H 0.30047 0.9037 0.66037 0.0
H517 H 0.31845 0.87028 0.71724 0.0
H518 H 0.27114 0.9205 0.68036 0.0
H519 H 0.28903 0.88773 0.73632 0.0
H520 H 0.34694 0.89558 0.6165 0.0
H521 H 0.35902 0.82875 0.62036 0.0
H522 H 0.32928 0.88957 0.58213 0.0
H523 H 0.34407 0.82415 0.58434 0.0
H524 H 0.39213 0.9094 0.74017 0.0
H525 H 0.40891 0.94025 0.68128 0.0
H526 H 0.2671 0.83921 0.60105 0.0
H527 H 0.28412 0.90536 0.5949 0.0
Li528 Li 0.39047 0.09545 0.91824 0.0
Li529 Li 0.41747 0.07031 0.90726 0.0
Li530 Li 0.42294 0.10378 0.89371 0.0
Li531 Li 0.3922 0.07788 0.87875 0.0
C532 C 0.42321 0.09954 0.94571 0.0
N533 N 0.42749 0.10561 0.98921 0.0
C534 C 0.42353 0.08213 0.95959 0.0
C535 C 0.42517 0.12008 0.95416 0.0
C536 C 0.4257 0.0855 0.98146 0.0
C537 C 0.42726 0.12281 0.97612 0.0
C538 C 0.38389 0.04549 0.9169 0.0
C539 C 0.37667 0.00789 0.9137 0.0
N540 N 0.37756 0.00595 0.93524 0.0
C541 C 0.38461 0.0431 0.93902 0.0
C542 C 0.37972 0.02774 0.90418 0.0
C543 C 0.3814 0.02301 0.94798 0.0
C544 C 0.35574 0.08867 0.9488 0.0
N545 N 0.37063 0.10335 0.94289 0.0
C546 C 0.35636 0.12761 0.96915 0.0
C547 C 0.37153 0.12229 0.95359 0.0
C548 C 0.34017 0.11321 0.97455 0.0
C549 C 0.34048 0.09321 0.96457 0.0
H550 H 0.35465 0.07379 0.94032 0.0
H551 H 0.38353 0.13384 0.94993 0.0
C552 C 0.45587 0.06551 0.91733 0.0
N553 N 0.43821 0.05313 0.91775 0.0
C554 C 0.47318 0.06018 0.92952 0.0
C555 C 0.45476 0.02783 0.93984 0.0
C556 C 0.43756 0.03398 0.92759 0.0
C557 C 0.47209 0.04177 0.94166 0.0
H558 H 0.4557 0.08057 0.90901 0.0
H559 H 0.42334 0.02447 0.92737 0.0
C560 C 0.39991 0.13081 0.88635 0.0
N561 N 0.4218 0.16883 0.88342 0.0
C562 C 0.40655 0.13847 0.86656 0.0
C563 C 0.40317 0.14334 0.90435 0.0
C564 C 0.41807 0.15734 0.86548 0.0
C565 C 0.41415 0.16253 0.90263 0.0
C566 C 0.4378 0.06206 0.86941 0.0
C567 C 0.45491 0.06833 0.85674 0.0
C568 C 0.43508 0.04043 0.874 0.0
C569 C 0.46892 0.053 0.84896 0.0
C570 C 0.44948 0.02559 0.86604 0.0
N571 N 0.46595 0.03212 0.85374 0.0
C572 C 0.45602 0.13497 0.90469 0.0
C573 C 0.45461 0.12738 0.86802 0.0
C574 C 0.47046 0.15169 0.90118 0.0
N575 N 0.44725 0.12403 0.88812 0.0
C576 C 0.46944 0.14351 0.86382 0.0
C577 C 0.47689 0.15681 0.88034 0.0
H578 H 0.45111 0.1315 0.92069 0.0
H579 H 0.44773 0.11874 0.85487 0.0
C580 C 0.35614 0.06732 0.84529 0.0
N581 N 0.37527 0.0624 0.85454 0.0
C582 C 0.3475 0.05472 0.82847 0.0
C583 C 0.3765 0.03073 0.83268 0.0
C584 C 0.38505 0.04412 0.84831 0.0
C585 C 0.35819 0.03639 0.82134 0.0
H586 H 0.34771 0.0814 0.85015 0.0
H587 H 0.39949 0.03945 0.85575 0.0
O588 O 0.42086 0.09658 0.92412 0.0
O589 O 0.38638 0.06518 0.90781 0.0
O590 O 0.39113 0.11087 0.88846 0.0
O591 O 0.42362 0.077 0.8767 0.0
H592 H 0.42221 0.06611 0.95368 0.0
H593 H 0.42466 0.13394 0.94406 0.0
H594 H 0.42599 0.07211 0.99227 0.0
H595 H 0.42861 0.13864 0.98275 0.0
H596 H 0.37346 0.99406 0.90397 0.0
H597 H 0.38741 0.05661 0.94924 0.0
H598 H 0.3786 0.02922 0.88715 0.0
H599 H 0.38194 0.02099 0.96508 0.0
H600 H 0.35712 0.14312 0.97664 0.0
H601 H 0.32834 0.08154 0.96804 0.0
H602 H 0.48637 0.07114 0.93092 0.0
H603 H 0.45367 0.01355 0.94946 0.0
H604 H 0.40328 0.13001 0.85217 0.0
H605 H 0.3977 0.13792 0.9195 0.0
H606 H 0.42445 0.16257 0.85039 0.0
H607 H 0.41713 0.17211 0.91662 0.0
H608 H 0.45731 0.08479 0.85267 0.0
H609 H 0.42195 0.0351 0.88369 0.0
H610 H 0.48212 0.05772 0.83905 0.0
H611 H 0.44751 0.00886 0.86958 0.0
H612 H 0.47576 0.16096 0.91467 0.0
H613 H 0.4744 0.14586 0.84751 0.0
H614 H 0.33269 0.05936 0.82114 0.0
H615 H 0.38464 0.01597 0.82915 0.0
Li616 Li 0.14022 0.16264 0.14888 0.0
Li617 Li 0.16745 0.15224 0.17389 0.0
Li618 Li 0.17336 0.13901 0.13964 0.0
Li619 Li 0.14278 0.12296 0.16614 0.0
C620 C 0.17201 0.19091 0.14374 0.0
N621 N 0.17404 0.23427 0.13569 0.0
C622 C 0.17215 0.20555 0.16052 0.0
C623 C 0.17339 0.19853 0.12281 0.0
C624 C 0.17304 0.22733 0.15616 0.0
C625 C 0.17429 0.22042 0.11908 0.0
C626 C 0.13101 0.1604 0.19813 0.0
C627 C 0.11497 0.15757 0.23293 0.0
N628 N 0.11881 0.17857 0.2364 0.0
C629 C 0.13414 0.18213 0.20185 0.0
C630 C 0.12069 0.14823 0.2136 0.0
C631 C 0.12809 0.19097 0.22132 0.0
C632 C 0.10573 0.19066 0.15879 0.0
N633 N 0.11982 0.18726 0.14271 0.0
C634 C 0.1041 0.21695 0.1236 0.0
C635 C 0.11931 0.2004 0.1253 0.0
C636 C 0.08924 0.22036 0.14003 0.0
C637 C 0.09034 0.2066 0.15765 0.0
H638 H 0.10515 0.1799 0.17203 0.0
H639 H 0.13042 0.19811 0.11246 0.0
C640 C 0.20412 0.16869 0.18097 0.0
N641 N 0.18639 0.16374 0.1922 0.0
C642 C 0.21762 0.18428 0.18838 0.0
C643 C 0.19606 0.1864 0.22038 0.0
C644 C 0.18274 0.171 0.21213 0.0
C645 C 0.21289 0.19379 0.20777 0.0
H646 H 0.20655 0.16206 0.16527 0.0
H647 H 0.16891 0.16602 0.22089 0.0
C648 C 0.14949 0.13204 0.11291 0.0
N649 N 0.1698 0.13139 0.074 0.0
C650 C 0.1566 0.11279 0.10437 0.0
C651 C 0.15142 0.15063 0.10097 0.0
C652 C 0.16686 0.11282 0.0847 0.0
C653 C 0.16206 0.15011 0.08152 0.0
C654 C 0.19125 0.11572 0.17907 0.0
C655 C 0.20897 0.10628 0.16969 0.0
C656 C 0.1905 0.11785 0.20123 0.0
C657 C 0.2256 0.09923 0.18251 0.0
C658 C 0.20748 0.11071 0.21352 0.0
N659 N 0.22454 0.10159 0.204 0.0
C660 C 0.20739 0.15327 0.11193 0.0
C661 C 0.20531 0.11591 0.11118 0.0
C662 C 0.22272 0.15317 0.09572 0.0
N663 N 0.19796 0.13496 0.11868 0.0
C664 C 0.22052 0.11506 0.09467 0.0
C665 C 0.22909 0.13395 0.0861 0.0
H666 H 0.20302 0.16817 0.11904 0.0
H667 H 0.19845 0.10125 0.11699 0.0
C668 C 0.11164 0.08379 0.17786 0.0
N669 N 0.12723 0.09836 0.18286 0.0
C670 C 0.10849 0.06507 0.19053 0.0
C671 C 0.13227 0.07999 0.2161 0.0
C672 C 0.13636 0.09698 0.20236 0.0
C673 C 0.1203 0.06213 0.20942 0.0
H674 H 0.10317 0.08522 0.163 0.0
H675 H 0.14726 0.10911 0.20729 0.0
O676 O 0.17051 0.16938 0.14769 0.0
O677 O 0.13646 0.1515 0.1789 0.0
O678 O 0.14147 0.1331 0.1332 0.0
O679 O 0.17467 0.12222 0.16653 0.0
H680 H 0.17192 0.20032 0.17682 0.0
H681 H 0.17367 0.1878 0.10943 0.0
H682 H 0.17307 0.23871 0.16907 0.0
H683 H 0.17516 0.2264 0.10296 0.0
H684 H 0.10716 0.14818 0.24506 0.0
H685 H 0.14073 0.19218 0.18967 0.0
H686 H 0.11644 0.13193 0.21058 0.0
H687 H 0.13063 0.20772 0.22437 0.0
H688 H 0.10421 0.22706 0.10966 0.0
H689 H 0.07893 0.20757 0.17047 0.0
H690 H 0.23078 0.18962 0.17869 0.0
H691 H 0.19245 0.19351 0.23568 0.0
H692 H 0.15487 0.09806 0.11295 0.0
H693 H 0.14512 0.16535 0.10701 0.0
H694 H 0.17323 0.09816 0.07834 0.0
H695 H 0.16425 0.16457 0.07243 0.0
H696 H 0.20982 0.10415 0.1527 0.0
H697 H 0.17731 0.12555 0.20893 0.0
H698 H 0.23934 0.09183 0.17538 0.0
H699 H 0.20714 0.11252 0.23065 0.0
H700 H 0.22949 0.16822 0.09085 0.0
H701 H 0.22483 0.0997 0.08823 0.0
H702 H 0.09792 0.05269 0.18498 0.0
H703 H 0.14046 0.07998 0.23123 0.0
Li704 Li 0.61184 0.40704 0.91376 0.0
Li705 Li 0.58142 0.42915 0.90684 0.0
Li706 Li 0.5786 0.3951 0.89204 0.0
Li707 Li 0.60355 0.42585 0.87572 0.0
C708 C 0.58215 0.39568 0.94291 0.0
N709 N 0.58072 0.3828 0.98498 0.0
C710 C 0.58167 0.41078 0.95923 0.0
C711 C 0.58222 0.37401 0.94806 0.0
C712 C 0.58086 0.40395 0.98039 0.0
C713 C 0.58141 0.36782 0.96938 0.0
C714 C 0.61389 0.45773 0.91266 0.0
C715 C 0.61815 0.49559 0.90794 0.0
N716 N 0.62096 0.49783 0.92929 0.0
C717 C 0.61655 0.46045 0.9346 0.0
C718 C 0.61455 0.47546 0.89925 0.0
C719 C 0.62023 0.48084 0.94267 0.0
C720 C 0.64827 0.41687 0.94023 0.0
N721 N 0.63389 0.40108 0.93675 0.0
C722 C 0.64966 0.38099 0.96575 0.0
C723 C 0.63446 0.38328 0.94931 0.0
C724 C 0.66499 0.39695 0.96937 0.0
C725 C 0.66399 0.41499 0.95597 0.0
H726 H 0.6483 0.43069 0.93002 0.0
H727 H 0.62358 0.3704 0.94631 0.0
C728 C 0.54488 0.43174 0.92483 0.0
N729 N 0.56143 0.44479 0.92023 0.0
C730 C 0.53028 0.43765 0.94006 0.0
C731 C 0.54859 0.47154 0.94309 0.0
C732 C 0.56305 0.4648 0.92801 0.0
C733 C 0.53274 0.45737 0.94977 0.0
H734 H 0.54407 0.41602 0.91787 0.0
H735 H 0.57608 0.47495 0.92361 0.0
C736 C 0.604 0.37654 0.87306 0.0
N737 N 0.584 0.34287 0.85397 0.0
C738 C 0.59827 0.3778 0.85171 0.0
C739 C 0.59988 0.35814 0.88477 0.0
C740 C 0.58873 0.36028 0.84209 0.0
C741 C 0.58937 0.34139 0.8749 0.0
C742 C 0.55641 0.43542 0.87185 0.0
C743 C 0.53749 0.42699 0.86401 0.0
C744 C 0.55927 0.45747 0.87244 0.0
C745 C 0.52173 0.44078 0.85678 0.0
C746 C 0.54305 0.47074 0.86527 0.0
N747 N 0.5248 0.46219 0.85758 0.0
C748 C 0.5466 0.3651 0.90658 0.0
C749 C 0.54645 0.36617 0.86928 0.0
C750 C 0.53202 0.34825 0.90661 0.0
N751 N 0.55493 0.37288 0.88817 0.0
C752 C 0.53225 0.34872 0.86847 0.0
C753 C 0.52529 0.33879 0.88741 0.0
H754 H 0.55091 0.37219 0.92149 0.0
H755 H 0.5512 0.3738 0.85464 0.0
C756 C 0.63254 0.45388 0.84889 0.0
N757 N 0.61339 0.44367 0.8504 0.0
C758 C 0.63599 0.47019 0.83353 0.0
C759 C 0.60037 0.46494 0.8213 0.0
C760 C 0.59783 0.44849 0.83621 0.0
C761 C 0.61952 0.47634 0.8197 0.0
H762 H 0.6448 0.45034 0.86037 0.0
H763 H 0.5828 0.44036 0.83716 0.0
O764 O 0.58254 0.40199 0.92201 0.0
O765 O 0.61144 0.4378 0.90426 0.0
O766 O 0.61128 0.39416 0.88313 0.0
O767 O 0.57256 0.4221 0.87756 0.0
H768 H 0.58182 0.42761 0.95564 0.0
H769 H 0.58326 0.36203 0.93572 0.0
H770 H 0.58033 0.41547 0.99316 0.0
H771 H 0.58145 0.35111 0.97353 0.0
H772 H 0.61874 0.50942 0.89771 0.0
H773 H 0.61575 0.44699 0.9453 0.0
H774 H 0.61227 0.47377 0.88231 0.0
H775 H 0.62247 0.48315 0.95959 0.0
H776 H 0.64937 0.36673 0.97539 0.0
H777 H 0.6756 0.42759 0.95706 0.0
H778 H 0.51808 0.4266 0.94507 0.0
H779 H 0.55069 0.48692 0.95061 0.0
H780 H 0.60038 0.39252 0.84306 0.0
H781 H 0.60386 0.35728 0.90151 0.0
H782 H 0.58394 0.36095 0.82558 0.0
H783 H 0.58504 0.3274 0.88395 0.0
H784 H 0.53515 0.40997 0.86314 0.0
H785 H 0.57391 0.46423 0.87825 0.0
H786 H 0.5071 0.43446 0.85043 0.0
H787 H 0.54503 0.48784 0.86567 0.0
H788 H 0.52602 0.34292 0.92183 0.0
H789 H 0.52723 0.34293 0.85307 0.0
H790 H 0.65093 0.47862 0.83329 0.0
H791 H 0.58705 0.46907 0.81129 0.0
Li792 Li 0.83061 0.32857 0.16872 0.0
Li793 Li 0.86143 0.32836 0.14647 0.0
Li794 Li 0.84976 0.36307 0.16768 0.0
Li795 Li 0.82691 0.3483 0.13581 0.0
C796 C 0.86091 0.32781 0.1994 0.0
N797 N 0.86462 0.31589 0.24177 0.0
C798 C 0.86865 0.30765 0.20487 0.0
C799 C 0.85466 0.34161 0.2157 0.0
C800 C 0.87051 0.30198 0.2263 0.0
C801 C 0.85674 0.3354 0.23693 0.0
C802 C 0.83476 0.29897 0.12902 0.0
C803 C 0.83916 0.2794 0.09625 0.0
N804 N 0.83765 0.26082 0.10723 0.0
C805 C 0.83359 0.27966 0.13998 0.0
C806 C 0.83785 0.29881 0.10699 0.0
C807 C 0.83496 0.26056 0.1287 0.0
C808 C 0.79226 0.31621 0.17782 0.0
N809 N 0.81254 0.31096 0.1825 0.0
C810 C 0.80157 0.28126 0.20278 0.0
C811 C 0.81757 0.2934 0.19392 0.0
C812 C 0.78048 0.28783 0.20014 0.0
C813 C 0.7758 0.30503 0.18686 0.0
H814 H 0.78891 0.32955 0.16752 0.0
H815 H 0.83377 0.28851 0.19575 0.0
C816 C 0.89762 0.30243 0.15671 0.0
N817 N 0.88547 0.3078 0.1396 0.0
C818 C 0.91431 0.28777 0.15502 0.0
C819 C 0.90648 0.28392 0.11782 0.0
C820 C 0.88974 0.29875 0.12026 0.0
C821 C 0.9193 0.27827 0.13535 0.0
H822 H 0.89541 0.31068 0.17152 0.0
H823 H 0.88055 0.30328 0.10651 0.0
C824 C 0.80814 0.36886 0.18078 0.0
N825 N 0.78764 0.39173 0.21239 0.0
C826 C 0.79906 0.38866 0.17628 0.0
C827 C 0.80641 0.36064 0.20141 0.0
C828 C 0.78889 0.39999 0.19244 0.0
C829 C 0.7961 0.37243 0.21715 0.0
C830 C 0.85091 0.3742 0.12089 0.0
C831 C 0.84797 0.3955 0.12641 0.0
C832 C 0.84418 0.36698 0.10105 0.0
C833 C 0.83668 0.40883 0.11274 0.0
C834 C 0.83228 0.38056 0.08817 0.0
N835 N 0.82876 0.40102 0.09423 0.0
C836 C 0.87354 0.38775 0.20123 0.0
C837 C 0.84722 0.40737 0.18355 0.0
C838 C 0.87608 0.40414 0.21651 0.0
N839 N 0.85843 0.38898 0.18566 0.0
C840 C 0.84969 0.42428 0.19795 0.0
C841 C 0.86347 0.42266 0.21562 0.0
H842 H 0.88285 0.37341 0.20277 0.0
H843 H 0.83575 0.40892 0.17096 0.0
C844 C 0.79808 0.34059 0.09794 0.0
N845 N 0.80325 0.35421 0.11413 0.0
C846 C 0.78302 0.34622 0.08227 0.0
C847 C 0.77709 0.37894 0.10104 0.0
C848 C 0.79241 0.37284 0.11607 0.0
C849 C 0.77251 0.36596 0.08327 0.0
H850 H 0.80591 0.32546 0.09669 0.0
H851 H 0.79633 0.38357 0.12876 0.0
O852 O 0.85998 0.33425 0.17844 0.0
O853 O 0.83291 0.31789 0.13973 0.0
O854 O 0.81854 0.35765 0.16513 0.0
O855 O 0.85812 0.36002 0.13571 0.0
H856 H 0.87246 0.29603 0.19283 0.0
H857 H 0.84808 0.35697 0.2121 0.0
H858 H 0.87645 0.28643 0.23062 0.0
H859 H 0.85203 0.34611 0.24956 0.0
H860 H 0.84153 0.27911 0.0792 0.0
H861 H 0.83166 0.2793 0.157 0.0
H862 H 0.83971 0.31351 0.09828 0.0
H863 H 0.8339 0.24553 0.13703 0.0
H864 H 0.80564 0.26747 0.21228 0.0
H865 H 0.75976 0.31062 0.18446 0.0
H866 H 0.92341 0.28419 0.16917 0.0
H867 H 0.90965 0.27738 0.1022 0.0
H868 H 0.80051 0.39573 0.16074 0.0
H869 H 0.81288 0.34529 0.20539 0.0
H870 H 0.78213 0.41546 0.18914 0.0
H871 H 0.79482 0.36622 0.23316 0.0
H872 H 0.85416 0.40154 0.14118 0.0
H873 H 0.84653 0.35057 0.09645 0.0
H874 H 0.83366 0.42519 0.11708 0.0
H875 H 0.8252 0.3746 0.07371 0.0
H876 H 0.88721 0.40175 0.22936 0.0
H877 H 0.8403 0.43836 0.19522 0.0
H878 H 0.78017 0.33539 0.06919 0.0
H879 H 0.76913 0.394 0.10335 0.0
Li880 Li 0.89363 0.61155 0.41893 0.0
Li881 Li 0.91849 0.58285 0.41836 0.0
Li882 Li 0.92784 0.61526 0.39811 0.0
Li883 Li 0.90114 0.58688 0.38351 0.0
C884 C 0.92212 0.62151 0.44822 0.0
N885 N 0.92071 0.64173 0.48723 0.0
C886 C 0.92199 0.60957 0.46698 0.0
C887 C 0.92141 0.64373 0.44929 0.0
C888 C 0.92132 0.6201 0.48656 0.0
C889 C 0.92071 0.65365 0.46916 0.0
C890 C 0.88264 0.55979 0.41896 0.0
C891 C 0.88577 0.52172 0.41484 0.0
N892 N 0.87141 0.51888 0.43072 0.0
C893 C 0.86804 0.55647 0.43536 0.0
C894 C 0.89165 0.54224 0.40874 0.0
C895 C 0.86251 0.53569 0.44101 0.0
C896 C 0.86666 0.6156 0.45769 0.0
N897 N 0.87431 0.62652 0.44051 0.0
C898 C 0.85334 0.65693 0.45102 0.0
C899 C 0.86916 0.64745 0.43823 0.0
C900 C 0.84325 0.64518 0.46726 0.0
C901 C 0.85105 0.62453 0.47114 0.0
H902 H 0.87195 0.59952 0.46051 0.0
H903 H 0.8763 0.65631 0.42545 0.0
C904 C 0.95309 0.56461 0.42901 0.0
N905 N 0.93229 0.56299 0.43388 0.0
C906 C 0.96679 0.54874 0.43498 0.0
C907 C 0.93773 0.53106 0.45314 0.0
C908 C 0.92443 0.54733 0.44653 0.0
C909 C 0.9589 0.53167 0.44673 0.0
H910 H 0.95882 0.5779 0.41972 0.0
H911 H 0.90802 0.54725 0.45123 0.0
C912 C 0.90407 0.63453 0.37209 0.0
N913 N 0.92165 0.66202 0.34274 0.0
C914 C 0.90389 0.62938 0.35049 0.0
C915 C 0.91273 0.65379 0.37879 0.0
C916 C 0.91256 0.64366 0.33583 0.0
C917 C 0.92211 0.66719 0.36376 0.0
C918 C 0.94382 0.57327 0.37646 0.0
C919 C 0.9543 0.58291 0.35942 0.0
C920 C 0.94625 0.55139 0.3798 0.0
C921 C 0.96704 0.57062 0.34605 0.0
C922 C 0.95917 0.53963 0.36611 0.0
N923 N 0.96921 0.54941 0.34965 0.0
C924 C 0.9619 0.64192 0.411 0.0
C925 C 0.95993 0.64108 0.37357 0.0
C926 C 0.97698 0.6582 0.41024 0.0
N927 N 0.95263 0.63446 0.39293 0.0
C928 C 0.97471 0.6578 0.37204 0.0
C929 C 0.98288 0.66727 0.39063 0.0
H930 H 0.95735 0.63554 0.42624 0.0
H931 H 0.95303 0.63482 0.35917 0.0
C932 C 0.87707 0.5527 0.36144 0.0
N933 N 0.89299 0.56709 0.35838 0.0
C934 C 0.87271 0.5365 0.34663 0.0
C935 C 0.90128 0.54927 0.325 0.0
C936 C 0.90484 0.56566 0.34016 0.0
C937 C 0.88507 0.53419 0.32819 0.0
H938 H 0.86799 0.55319 0.37582 0.0
H939 H 0.91736 0.57702 0.33737 0.0
O940 O 0.92298 0.61151 0.4289 0.0
O941 O 0.88781 0.58001 0.41258 0.0
O942 O 0.8973 0.62003 0.38673 0.0
O943 O 0.93154 0.58529 0.38988 0.0
H944 H 0.92245 0.59237 0.46644 0.0
H945 H 0.92131 0.6532 0.4349 0.0
H946 H 0.9213 0.61107 0.50122 0.0
H947 H 0.92017 0.67082 0.47022 0.0
H948 H 0.8926 0.50806 0.40693 0.0
H949 H 0.86082 0.5697 0.44351 0.0
H950 H 0.90296 0.54448 0.39609 0.0
H951 H 0.85112 0.53292 0.45357 0.0
H952 H 0.84858 0.67314 0.44777 0.0
H953 H 0.84421 0.6148 0.48359 0.0
H954 H 0.98342 0.54992 0.43087 0.0
H955 H 0.9318 0.5185 0.46334 0.0
H956 H 0.8975 0.6143 0.34528 0.0
H957 H 0.91328 0.6578 0.39554 0.0
H958 H 0.91261 0.63992 0.31903 0.0
H959 H 0.93018 0.68147 0.36889 0.0
H960 H 0.95229 0.59962 0.35628 0.0
H961 H 0.93854 0.54348 0.39293 0.0
H962 H 0.97513 0.57794 0.33275 0.0
H963 H 0.96125 0.52273 0.36863 0.0
H964 H 0.98367 0.66377 0.42509 0.0
H965 H 0.97875 0.66385 0.35644 0.0
H966 H 0.8598 0.52558 0.34978 0.0
H967 H 0.91086 0.54867 0.31072 0.0
Li968 Li 0.82206 0.6392 0.37292 0.0
Li969 Li 0.84624 0.6286 0.34116 0.0
Li970 Li 0.85533 0.66318 0.36421 0.0
Li971 Li 0.82534 0.66151 0.34166 0.0
C972 C 0.84881 0.61509 0.38721 0.0
N973 N 0.83307 0.58474 0.41486 0.0
C974 C 0.84764 0.59384 0.38094 0.0
C975 C 0.84171 0.6209 0.40732 0.0
C976 C 0.83942 0.57874 0.3951 0.0
C977 C 0.83423 0.60532 0.42128 0.0
C978 C 0.8012 0.62209 0.32942 0.0
C979 C 0.78605 0.61786 0.29429 0.0
N980 N 0.77402 0.60146 0.30154 0.0
C981 C 0.78834 0.60541 0.3365 0.0
C982 C 0.79971 0.62852 0.30812 0.0
C983 C 0.77484 0.59512 0.3222 0.0
C984 C 0.79059 0.64351 0.40679 0.0
N985 N 0.79962 0.62875 0.39379 0.0
C986 C 0.78232 0.60076 0.41381 0.0
C987 C 0.7942 0.60777 0.39609 0.0
C988 C 0.77496 0.6156 0.42873 0.0
C989 C 0.77819 0.63726 0.42425 0.0
H990 H 0.79365 0.66019 0.40418 0.0
H991 H 0.8009 0.59606 0.38553 0.0
C992 C 0.87173 0.60422 0.30919 0.0
N993 N 0.85502 0.60369 0.32301 0.0
C994 C 0.87326 0.58948 0.29233 0.0
C995 C 0.84131 0.57295 0.30494 0.0
C996 C 0.84058 0.58769 0.32163 0.0
C997 C 0.85744 0.57392 0.2894 0.0
H998 H 0.88285 0.61723 0.30991 0.0
H999 H 0.82771 0.58698 0.33289 0.0
C1000 C 0.82703 0.68902 0.38279 0.0
N1001 N 0.8305 0.72622 0.40607 0.0
C1002 C 0.82838 0.70866 0.37243 0.0
C1003 C 0.82766 0.68833 0.40502 0.0
C1004 C 0.8301 0.72727 0.38446 0.0
C1005 C 0.82932 0.7073 0.4165 0.0
C1006 C 0.85716 0.66187 0.30992 0.0
C1007 C 0.86658 0.68033 0.30151 0.0
C1008 C 0.84974 0.64658 0.29558 0.0
C1009 C 0.86878 0.68273 0.27951 0.0
C1010 C 0.8523 0.64944 0.27369 0.0
N1011 N 0.86174 0.66731 0.26614 0.0
C1012 C 0.88661 0.69737 0.35726 0.0
C1013 C 0.8809 0.69264 0.3938 0.0
C1014 C 0.90168 0.71358 0.36111 0.0
N1015 N 0.87684 0.68654 0.37334 0.0
C1016 C 0.89627 0.70839 0.39849 0.0
C1017 C 0.9075 0.71892 0.38205 0.0
H1018 H 0.88401 0.69231 0.34134 0.0
H1019 H 0.87234 0.68529 0.40665 0.0
C1020 C 0.78791 0.67358 0.32423 0.0
N1021 N 0.80869 0.67848 0.32661 0.0
C1022 C 0.7766 0.68305 0.30799 0.0
C1023 C 0.80758 0.70468 0.30002 0.0
C1024 C 0.81823 0.69461 0.31614 0.0
C1025 C 0.78697 0.69806 0.29539 0.0
H1026 H 0.78074 0.66125 0.33381 0.0
H1027 H 0.8343 0.69897 0.3198 0.0
O1028 O 0.85424 0.63054 0.37292 0.0
O1029 O 0.8149 0.63201 0.34332 0.0
O1030 O 0.82551 0.67055 0.37128 0.0
O1031 O 0.85534 0.65859 0.3317 0.0
H1032 H 0.85227 0.58925 0.36507 0.0
H1033 H 0.84039 0.63751 0.41136 0.0
H1034 H 0.83739 0.56237 0.39028 0.0
H1035 H 0.82786 0.60979 0.43659 0.0
H1036 H 0.78488 0.62276 0.27782 0.0
H1037 H 0.78892 0.60017 0.35276 0.0
H1038 H 0.8084 0.64206 0.30229 0.0
H1039 H 0.76501 0.58206 0.32755 0.0
H1040 H 0.7803 0.58388 0.41658 0.0
H1041 H 0.7721 0.64929 0.43485 0.0
H1042 H 0.88603 0.59124 0.28097 0.0
H1043 H 0.82885 0.56118 0.30413 0.0
H1044 H 0.82822 0.70961 0.35532 0.0
H1045 H 0.82717 0.67331 0.41333 0.0
H1046 H 0.83115 0.74255 0.3766 0.0
H1047 H 0.82978 0.70697 0.43371 0.0
H1048 H 0.87137 0.69339 0.31134 0.0
H1049 H 0.84185 0.63259 0.30114 0.0
H1050 H 0.87592 0.697 0.27306 0.0
H1051 H 0.84667 0.63744 0.2627 0.0
H1052 H 0.90973 0.72072 0.34768 0.0
H1053 H 0.89928 0.71225 0.415 0.0
H1054 H 0.76039 0.67833 0.30486 0.0
H1055 H 0.81561 0.71674 0.29068 0.0
Li1056 Li 0.65118 0.36153 0.83691 0.0
Li1057 Li 0.67559 0.34344 0.86532 0.0
Li1058 Li 0.66845 0.32753 0.83029 0.0
Li1059 Li 0.64049 0.32477 0.85563 0.0
C1060 C 0.69375 0.36604 0.82185 0.0
N1061 N 0.71764 0.38725 0.79151 0.0
C1062 C 0.71027 0.37954 0.828 0.0
C1063 C 0.68965 0.36324 0.80017 0.0
C1064 C 0.722 0.39026 0.81249 0.0
C1065 C 0.7019 0.37398 0.7851 0.0
C1066 C 0.65255 0.36757 0.88476 0.0
C1067 C 0.66976 0.37018 0.91876 0.0
N1068 N 0.67512 0.39066 0.91425 0.0
C1069 C 0.65768 0.38881 0.88069 0.0
C1070 C 0.65778 0.35841 0.90428 0.0
C1071 C 0.66887 0.40034 0.89594 0.0
C1072 C 0.62598 0.38968 0.80924 0.0
N1073 N 0.64355 0.38865 0.82184 0.0
C1074 C 0.65506 0.4225 0.80798 0.0
C1075 C 0.65773 0.40503 0.8217 0.0
C1076 C 0.6376 0.42342 0.79405 0.0
C1077 C 0.62269 0.40683 0.79529 0.0
H1078 H 0.61501 0.37652 0.80898 0.0
H1079 H 0.6716 0.40428 0.83173 0.0
C1080 C 0.70657 0.333 0.90006 0.0
N1081 N 0.69945 0.34852 0.8866 0.0
C1082 C 0.72115 0.33768 0.91643 0.0
C1083 C 0.72235 0.37384 0.90409 0.0
C1084 C 0.70806 0.3684 0.88781 0.0
C1085 C 0.72871 0.35855 0.91908 0.0
H1086 H 0.70069 0.31701 0.89855 0.0
H1087 H 0.7026 0.38065 0.87718 0.0
C1088 C 0.63403 0.32861 0.80404 0.0
N1089 N 0.62272 0.31759 0.7628 0.0
C1090 C 0.62642 0.30814 0.79947 0.0
C1091 C 0.63647 0.34309 0.78729 0.0
C1092 C 0.62047 0.30303 0.77865 0.0
C1093 C 0.63068 0.3373 0.76665 0.0
C1094 C 0.66926 0.29386 0.86739 0.0
C1095 C 0.67093 0.27554 0.85493 0.0
C1096 C 0.66756 0.29204 0.88949 0.0
C1097 C 0.67108 0.25563 0.86486 0.0
C1098 C 0.66777 0.27187 0.89883 0.0
N1099 N 0.66953 0.25423 0.88642 0.0
C1100 C 0.70431 0.31621 0.81859 0.0
C1101 C 0.68051 0.30821 0.7903 0.0
C1102 C 0.72139 0.31391 0.80531 0.0
N1103 N 0.68449 0.31416 0.8107 0.0
C1104 C 0.69729 0.30511 0.77648 0.0
C1105 C 0.71782 0.30846 0.78407 0.0
H1106 H 0.70668 0.32115 0.83491 0.0
H1107 H 0.66469 0.30674 0.78436 0.0
C1108 C 0.60229 0.30292 0.84669 0.0
N1109 N 0.61685 0.304 0.86255 0.0
C1110 C 0.58496 0.28917 0.84768 0.0
C1111 C 0.59791 0.27595 0.88102 0.0
C1112 C 0.61462 0.291 0.87985 0.0
C1113 C 0.58264 0.27453 0.86455 0.0
H1114 H 0.60327 0.31387 0.83359 0.0
H1115 H 0.62571 0.29207 0.89285 0.0
O1116 O 0.68181 0.35558 0.83691 0.0
O1117 O 0.64475 0.35515 0.86877 0.0
O1118 O 0.63864 0.33455 0.82464 0.0
O1119 O 0.66962 0.31349 0.85801 0.0
H1120 H 0.71407 0.38191 0.84451 0.0
H1121 H 0.67747 0.35255 0.79493 0.0
H1122 H 0.73464 0.40092 0.81713 0.0
H1123 H 0.69891 0.3717 0.76829 0.0
H1124 H 0.67519 0.3629 0.93336 0.0
H1125 H 0.65351 0.39612 0.86571 0.0
H1126 H 0.65394 0.34197 0.90758 0.0
H1127 H 0.67322 0.41672 0.89293 0.0
H1128 H 0.66677 0.4351 0.80814 0.0
H1129 H 0.60903 0.40656 0.78489 0.0
H1130 H 0.72579 0.32526 0.92743 0.0
H1131 H 0.72788 0.39012 0.90531 0.0
H1132 H 0.62563 0.29605 0.81165 0.0
H1133 H 0.64315 0.35858 0.78991 0.0
H1134 H 0.61438 0.28735 0.77503 0.0
H1135 H 0.63258 0.34848 0.75369 0.0
H1136 H 0.67225 0.27669 0.83778 0.0
H1137 H 0.66569 0.30603 0.89933 0.0
H1138 H 0.67247 0.2413 0.85543 0.0
H1139 H 0.66641 0.27026 0.91592 0.0
H1140 H 0.73725 0.31609 0.81154 0.0
H1141 H 0.69437 0.30005 0.76025 0.0
H1142 H 0.57347 0.29066 0.83509 0.0
H1143 H 0.59729 0.26553 0.89468 0.0
Li1144 Li 0.89832 0.89757 0.92039 0.0
Li1145 Li 0.92884 0.88378 0.90069 0.0
Li1146 Li 0.92892 0.92031 0.91533 0.0
Li1147 Li 0.90662 0.91534 0.88415 0.0
C1148 C 0.92742 0.88812 0.95168 0.0
N1149 N 0.92624 0.87826 0.99456 0.0
C1150 C 0.9273 0.86689 0.95831 0.0
C1151 C 0.92757 0.90432 0.96691 0.0
C1152 C 0.92658 0.86222 0.98004 0.0
C1153 C 0.92676 0.89903 0.98849 0.0
C1154 C 0.90404 0.87156 0.87361 0.0
C1155 C 0.92146 0.86799 0.83956 0.0
N1156 N 0.92562 0.84729 0.84402 0.0
C1157 C 0.90675 0.8499 0.87693 0.0
C1158 C 0.91132 0.88066 0.85468 0.0
C1159 C 0.91894 0.83826 0.86248 0.0
C1160 C 0.8618 0.90795 0.94444 0.0
N1161 N 0.87584 0.89181 0.94154 0.0
C1162 C 0.85861 0.87183 0.96939 0.0
C1163 C 0.87431 0.87376 0.95353 0.0
C1164 C 0.84422 0.8886 0.97291 0.0
C1165 C 0.84601 0.90671 0.95991 0.0
H1166 H 0.86192 0.9214 0.93385 0.0
H1167 H 0.88516 0.86077 0.95082 0.0
C1168 C 0.96839 0.86187 0.88929 0.0
N1169 N 0.94874 0.85914 0.89788 0.0
C1170 C 0.98271 0.84481 0.88778 0.0
C1171 C 0.95697 0.82242 0.90495 0.0
C1172 C 0.94336 0.83994 0.90643 0.0
C1173 C 0.97714 0.82457 0.89562 0.0
H1174 H 0.97341 0.87746 0.8843 0.0
H1175 H 0.92826 0.83798 0.91422 0.0
C1176 C 0.89296 0.94679 0.92129 0.0
N1177 N 0.87911 0.98396 0.94042 0.0
C1178 C 0.88694 0.96426 0.90888 0.0
C1179 C 0.89228 0.94849 0.9435 0.0
C1180 C 0.87993 0.98285 0.91882 0.0
C1181 C 0.88512 0.96732 0.95285 0.0
C1182 C 0.95195 0.91959 0.87277 0.0
C1183 C 0.95749 0.94111 0.87398 0.0
C1184 C 0.96054 0.90708 0.85652 0.0
C1185 C 0.97205 0.94951 0.85951 0.0
C1186 C 0.975 0.91606 0.84229 0.0
N1187 N 0.98047 0.9369 0.84411 0.0
C1188 C 0.96669 0.93228 0.93133 0.0
C1189 C 0.94318 0.96104 0.92479 0.0
C1190 C 0.98232 0.94627 0.93801 0.0
N1191 N 0.94746 0.93991 0.92557 0.0
C1192 C 0.9582 0.97553 0.93134 0.0
C1193 C 0.97771 0.96808 0.93877 0.0
H1194 H 0.96967 0.91533 0.93095 0.0
H1195 H 0.9284 0.96679 0.91865 0.0
C1196 C 0.8752 0.93884 0.86063 0.0
N1197 N 0.89603 0.93333 0.86058 0.0
C1198 C 0.86723 0.95353 0.84585 0.0
C1199 C 0.90246 0.9576 0.83171 0.0
C1200 C 0.90953 0.94224 0.84618 0.0
C1201 C 0.88101 0.96335 0.83126 0.0
H1202 H 0.865 0.93272 0.87292 0.0
H1203 H 0.92589 0.93766 0.8458 0.0
O1204 O 0.92774 0.89298 0.93043 0.0
O1205 O 0.89724 0.88424 0.88993 0.0
O1206 O 0.89906 0.9281 0.91175 0.0
O1207 O 0.93779 0.91093 0.88692 0.0
H1208 H 0.92736 0.85412 0.94686 0.0
H1209 H 0.92851 0.92081 0.96214 0.0
H1210 H 0.92621 0.84585 0.98534 0.0
H1211 H 0.92664 0.91143 0.00043 0.0
H1212 H 0.9271 0.87492 0.82485 0.0
H1213 H 0.90096 0.8426 0.89139 0.0
H1214 H 0.91007 0.89746 0.85198 0.0
H1215 H 0.92355 0.82221 0.86625 0.0
H1216 H 0.85794 0.85748 0.9789 0.0
H1217 H 0.83479 0.91968 0.96103 0.0
H1218 H 0.99829 0.84775 0.88123 0.0
H1219 H 0.9516 0.80735 0.91123 0.0
H1220 H 0.88797 0.96373 0.89178 0.0
H1221 H 0.8966 0.93519 0.95343 0.0
H1222 H 0.87519 0.99641 0.90936 0.0
H1223 H 0.88422 0.96866 0.96999 0.0
H1224 H 0.95014 0.95148 0.88538 0.0
H1225 H 0.95611 0.89058 0.85481 0.0
H1226 H 0.97646 0.96612 0.86038 0.0
H1227 H 0.98182 0.90645 0.82975 0.0
H1228 H 0.99724 0.9401 0.94386 0.0
H1229 H 0.95399 0.99223 0.93199 0.0
H1230 H 0.85058 0.95762 0.84625 0.0
H1231 H 0.91363 0.96448 0.82059 0.0
Li1232 Li 0.83036 0.1628 0.67817 0.0
Li1233 Li 0.8468 0.12852 0.67175 0.0
Li1234 Li 0.86217 0.16418 0.65585 0.0
Li1235 Li 0.82751 0.15011 0.64269 0.0
C1236 C 0.87067 0.16224 0.70216 0.0
N1237 N 0.89343 0.17913 0.73572 0.0
C1238 C 0.88027 0.14879 0.71698 0.0
C1239 C 0.87268 0.18429 0.7044 0.0
C1240 C 0.89174 0.15763 0.73382 0.0
C1241 C 0.8842 0.19252 0.72148 0.0
C1242 C 0.79787 0.12668 0.67459 0.0
C1243 C 0.77363 0.09717 0.67047 0.0
N1244 N 0.76184 0.10469 0.68692 0.0
C1245 C 0.7856 0.1339 0.69168 0.0
C1246 C 0.79191 0.10794 0.66416 0.0
C1247 C 0.76743 0.12266 0.69758 0.0
C1248 C 0.80011 0.18967 0.68841 0.0
N1249 N 0.81595 0.17825 0.69728 0.0
C1250 C 0.8213 0.20334 0.72447 0.0
C1251 C 0.82492 0.18339 0.71611 0.0
C1252 C 0.80736 0.217 0.71376 0.0
C1253 C 0.79557 0.20958 0.6964 0.0
H1254 H 0.79258 0.18413 0.674 0.0
H1255 H 0.83625 0.17292 0.72351 0.0
C1256 C 0.87155 0.09313 0.69073 0.0
N1257 N 0.85226 0.10268 0.6886 0.0
C1258 C 0.87435 0.07617 0.70515 0.0
C1259 C 0.8375 0.07906 0.71466 0.0
C1260 C 0.83555 0.09605 0.70056 0.0
C1261 C 0.85704 0.06885 0.7172 0.0
H1262 H 0.88488 0.09896 0.6817 0.0
H1263 H 0.82072 0.10431 0.69979 0.0
C1264 C 0.82894 0.19903 0.64912 0.0
N1265 N 0.81578 0.24073 0.64416 0.0
C1266 C 0.80941 0.20356 0.63962 0.0
C1267 C 0.84177 0.21582 0.65601 0.0
C1268 C 0.80304 0.2247 0.63727 0.0
C1269 C 0.83483 0.23675 0.6534 0.0
C1270 C 0.8476 0.1211 0.62656 0.0
C1271 C 0.84485 0.12724 0.60541 0.0
C1272 C 0.83907 0.10188 0.63349 0.0
C1273 C 0.83181 0.11499 0.59227 0.0
C1274 C 0.82771 0.08913 0.6193 0.0
N1275 N 0.82385 0.09616 0.59926 0.0
C1276 C 0.90295 0.18621 0.66294 0.0
C1277 C 0.88461 0.19512 0.63144 0.0
C1278 C 0.91949 0.20025 0.65768 0.0
N1279 N 0.88619 0.18332 0.64952 0.0
C1280 C 0.9005 0.20966 0.62581 0.0
C1281 C 0.91882 0.21195 0.63853 0.0
H1282 H 0.90433 0.17664 0.67712 0.0
H1283 H 0.87089 0.19325 0.62129 0.0
C1284 C 0.7926 0.13884 0.615 0.0
N1285 N 0.80954 0.15187 0.61785 0.0
C1286 C 0.78168 0.13886 0.59571 0.0
C1287 C 0.80488 0.16672 0.58304 0.0
C1288 C 0.81544 0.16607 0.60254 0.0
C1289 C 0.78807 0.15266 0.57936 0.0
H1290 H 0.78799 0.12789 0.6273 0.0
H1291 H 0.829 0.17627 0.60517 0.0
O1292 O 0.85927 0.15382 0.68565 0.0
O1293 O 0.81626 0.13705 0.66905 0.0
O1294 O 0.83558 0.17834 0.65128 0.0
O1295 O 0.85661 0.13467 0.64102 0.0
H1296 H 0.87886 0.13169 0.71552 0.0
H1297 H 0.86516 0.19491 0.69325 0.0
H1298 H 0.89925 0.1474 0.74541 0.0
H1299 H 0.88576 0.20955 0.72344 0.0
H1300 H 0.76887 0.08276 0.66234 0.0
H1301 H 0.79009 0.14777 0.70066 0.0
H1302 H 0.80118 0.10168 0.65128 0.0
H1303 H 0.75784 0.12815 0.71075 0.0
H1304 H 0.82988 0.20831 0.73855 0.0
H1305 H 0.78363 0.21926 0.68871 0.0
H1306 H 0.88974 0.06876 0.7067 0.0
H1307 H 0.82384 0.07428 0.72394 0.0
H1308 H 0.79901 0.19089 0.63451 0.0
H1309 H 0.85699 0.21284 0.66317 0.0
H1310 H 0.78793 0.22835 0.63006 0.0
H1311 H 0.84463 0.24985 0.65869 0.0
H1312 H 0.85141 0.14209 0.59971 0.0
H1313 H 0.84071 0.09704 0.64987 0.0
H1314 H 0.82703 0.12102 0.57696 0.0
H1315 H 0.82111 0.07413 0.62455 0.0
H1316 H 0.93313 0.20095 0.66806 0.0
H1317 H 0.89834 0.21888 0.61145 0.0
H1318 H 0.76852 0.12801 0.59347 0.0
H1319 H 0.81022 0.17756 0.57074 0.0
Li1320 Li 0.57154 0.11723 0.4043 0.0
Li1321 Li 0.60521 0.10962 0.422 0.0
Li1322 Li 0.59383 0.08709 0.38917 0.0
Li1323 Li 0.57668 0.08453 0.42446 0.0
C1324 C 0.59404 0.13228 0.37504 0.0
N1325 N 0.56989 0.15593 0.34704 0.0
C1326 C 0.58702 0.15243 0.38081 0.0
C1327 C 0.5904 0.12497 0.35435 0.0
C1328 C 0.57389 0.16364 0.36686 0.0
C1329 C 0.57831 0.13721 0.34037 0.0
C1330 C 0.57914 0.11825 0.45649 0.0
C1331 C 0.58876 0.10683 0.49188 0.0
N1332 N 0.58341 0.1263 0.4996 0.0
C1333 C 0.5737 0.13815 0.46484 0.0
C1334 C 0.58657 0.10246 0.47019 0.0
C1335 C 0.57594 0.1419 0.48664 0.0
C1336 C 0.53445 0.13389 0.38338 0.0
N1337 N 0.54891 0.13787 0.3989 0.0
C1338 C 0.53354 0.17227 0.40511 0.0
C1339 C 0.54826 0.15641 0.41015 0.0
C1340 C 0.51901 0.16894 0.38853 0.0
C1341 C 0.51932 0.14917 0.37798 0.0
H1342 H 0.53499 0.11913 0.37469 0.0
H1343 H 0.56018 0.15959 0.42196 0.0
C1344 C 0.63648 0.10502 0.45399 0.0
N1345 N 0.62841 0.11933 0.43991 0.0
C1346 C 0.65434 0.10987 0.46617 0.0
C1347 C 0.65477 0.1447 0.45011 0.0
C1348 C 0.63661 0.13928 0.43852 0.0
C1349 C 0.66429 0.12972 0.4639 0.0
H1350 H 0.62935 0.08956 0.4555 0.0
H1351 H 0.62981 0.15057 0.42746 0.0
C1352 C 0.55008 0.07772 0.38293 0.0
N1353 N 0.52477 0.05495 0.3551 0.0
C1354 C 0.53568 0.06268 0.39067 0.0
C1355 C 0.55124 0.08142 0.36101 0.0
C1356 C 0.52314 0.05125 0.37636 0.0
C1357 C 0.5384 0.06973 0.34721 0.0
C1358 C 0.61763 0.0605 0.42178 0.0
C1359 C 0.6303 0.0511 0.40617 0.0
C1360 C 0.61667 0.05118 0.44202 0.0
C1361 C 0.64186 0.03279 0.41099 0.0
C1362 C 0.62845 0.03287 0.44625 0.0
N1363 N 0.64072 0.02412 0.43078 0.0
C1364 C 0.6156 0.07239 0.35093 0.0
C1365 C 0.59017 0.04853 0.36459 0.0
C1366 C 0.62043 0.05823 0.33447 0.0
N1367 N 0.6005 0.06758 0.36555 0.0
C1368 C 0.59369 0.03443 0.34761 0.0
C1369 C 0.60877 0.03944 0.33189 0.0
H1370 H 0.62373 0.08736 0.35183 0.0
H1371 H 0.57886 0.04437 0.37682 0.0
C1372 C 0.54594 0.06988 0.45166 0.0
N1373 N 0.56269 0.06462 0.43922 0.0
C1374 C 0.53199 0.05408 0.45806 0.0
C1375 C 0.55355 0.02817 0.43919 0.0
C1376 C 0.56672 0.04443 0.43284 0.0
C1377 C 0.5358 0.03318 0.45139 0.0
H1378 H 0.5428 0.08638 0.45542 0.0
H1379 H 0.57917 0.04121 0.42153 0.0
O1380 O 0.60174 0.11883 0.39031 0.0
O1381 O 0.57697 0.11422 0.43513 0.0
O1382 O 0.56349 0.08813 0.39662 0.0
O1383 O 0.60588 0.07827 0.41694 0.0
H1384 H 0.59018 0.15853 0.3966 0.0
H1385 H 0.5958 0.10958 0.34934 0.0
H1386 H 0.56666 0.17836 0.37191 0.0
H1387 H 0.575 0.13146 0.32448 0.0
H1388 H 0.59464 0.09471 0.50257 0.0
H1389 H 0.56776 0.15065 0.45476 0.0
H1390 H 0.59059 0.08699 0.46414 0.0
H1391 H 0.57173 0.15722 0.49325 0.0
H1392 H 0.53422 0.1873 0.4135 0.0
H1393 H 0.50811 0.14553 0.36546 0.0
H1394 H 0.66036 0.098 0.47709 0.0
H1395 H 0.66173 0.1602 0.44742 0.0
H1396 H 0.53409 0.05982 0.40752 0.0
H1397 H 0.56216 0.09294 0.35464 0.0
H1398 H 0.51209 0.03944 0.38218 0.0
H1399 H 0.53935 0.07233 0.33021 0.0
H1400 H 0.63153 0.05803 0.39052 0.0
H1401 H 0.60673 0.05769 0.45433 0.0
H1402 H 0.6518 0.02552 0.399 0.0
H1403 H 0.62776 0.02555 0.46183 0.0
H1404 H 0.63287 0.06218 0.32351 0.0
H1405 H 0.58478 0.01973 0.3469 0.0
H1406 H 0.51825 0.05808 0.46759 0.0
H1407 H 0.55652 0.01207 0.43378 0.0
Li1408 Li 0.65708 0.86469 0.16194 0.0
Li1409 Li 0.67509 0.83123 0.16375 0.0
Li1410 Li 0.67679 0.84931 0.13036 0.0
Li1411 Li 0.64329 0.83118 0.14277 0.0
C1412 C 0.69945 0.8728 0.16996 0.0
N1413 N 0.72283 0.90143 0.1938 0.0
C1414 C 0.71062 0.86593 0.18791 0.0
C1415 C 0.70039 0.89425 0.16408 0.0
C1416 C 0.72228 0.88064 0.19978 0.0
C1417 C 0.71225 0.90846 0.17633 0.0
C1418 C 0.63688 0.83224 0.19237 0.0
C1419 C 0.62709 0.80646 0.21919 0.0
N1420 N 0.61548 0.82155 0.22937 0.0
C1421 C 0.62431 0.84729 0.20286 0.0
C1422 C 0.63784 0.81149 0.20042 0.0
C1423 C 0.61385 0.84168 0.22162 0.0
C1424 C 0.63348 0.90075 0.17614 0.0
N1425 N 0.65018 0.88808 0.18084 0.0
C1426 C 0.65505 0.90638 0.214 0.0
C1427 C 0.66043 0.89009 0.19982 0.0
C1428 C 0.63813 0.9201 0.20919 0.0
C1429 C 0.62665 0.91624 0.19047 0.0
H1430 H 0.62556 0.89883 0.16119 0.0
H1431 H 0.67262 0.87891 0.20416 0.0
C1432 C 0.70761 0.807 0.16592 0.0
N1433 N 0.69202 0.8148 0.17851 0.0
C1434 C 0.72087 0.79151 0.17364 0.0
C1435 C 0.70304 0.79453 0.20788 0.0
C1436 C 0.68995 0.80985 0.19935 0.0
C1437 C 0.7182 0.78508 0.19461 0.0
H1438 H 0.70935 0.81257 0.14975 0.0
H1439 H 0.67829 0.81769 0.20914 0.0
C1440 C 0.65335 0.87735 0.11705 0.0
N1441 N 0.67733 0.9042 0.0919 0.0
C1442 C 0.6593 0.87106 0.09669 0.0
C1443 C 0.65819 0.89793 0.12396 0.0
C1444 C 0.67233 0.88445 0.08467 0.0
C1445 C 0.67003 0.91139 0.1109 0.0
C1446 C 0.6721 0.79778 0.13228 0.0
C1447 C 0.68486 0.78934 0.11619 0.0
C1448 C 0.66124 0.78401 0.14591 0.0
C1449 C 0.68628 0.76729 0.11381 0.0
C1450 C 0.66304 0.76205 0.14304 0.0
N1451 N 0.67541 0.7542 0.12716 0.0
C1452 C 0.71422 0.86723 0.11307 0.0
C1453 C 0.69919 0.84218 0.08939 0.0
C1454 C 0.73009 0.87203 0.09843 0.0
N1455 N 0.69872 0.85303 0.10824 0.0
C1456 C 0.71478 0.84672 0.07403 0.0
C1457 C 0.73022 0.86229 0.07829 0.0
H1458 H 0.71412 0.87522 0.12819 0.0
H1459 H 0.68686 0.8308 0.08579 0.0
C1460 C 0.60692 0.80778 0.15453 0.0
N1461 N 0.62012 0.81105 0.13774 0.0
C1462 C 0.59078 0.79274 0.15356 0.0
C1463 C 0.60266 0.78298 0.11845 0.0
C1464 C 0.61835 0.79886 0.11987 0.0
C1465 C 0.58852 0.77966 0.13555 0.0
H1466 H 0.60789 0.8178 0.16831 0.0
H1467 H 0.62941 0.80109 0.10691 0.0
O1468 O 0.68775 0.85865 0.1582 0.0
O1469 O 0.64696 0.8375 0.17368 0.0
O1470 O 0.64605 0.86249 0.13118 0.0
O1471 O 0.67055 0.81941 0.1348 0.0
H1472 H 0.71028 0.84948 0.19278 0.0
H1473 H 0.69212 0.89991 0.1502 0.0
H1474 H 0.73087 0.87553 0.21376 0.0
H1475 H 0.71303 0.92508 0.17192 0.0
H1476 H 0.62796 0.79053 0.22565 0.0
H1477 H 0.62218 0.86303 0.19643 0.0
H1478 H 0.64691 0.79934 0.19244 0.0
H1479 H 0.60426 0.85328 0.22992 0.0
H1480 H 0.66379 0.90793 0.22874 0.0
H1481 H 0.61287 0.92557 0.18651 0.0
H1482 H 0.73305 0.78477 0.16354 0.0
H1483 H 0.70134 0.78999 0.22445 0.0
H1484 H 0.6556 0.85521 0.09105 0.0
H1485 H 0.6541 0.90317 0.13968 0.0
H1486 H 0.67888 0.87891 0.06981 0.0
H1487 H 0.6742 0.92719 0.1163 0.0
H1488 H 0.69372 0.79966 0.10572 0.0
H1489 H 0.65139 0.7902 0.15845 0.0
H1490 H 0.69606 0.76057 0.10137 0.0
H1491 H 0.65459 0.75125 0.15342 0.0
H1492 H 0.74203 0.88361 0.10279 0.0
H1493 H 0.71421 0.8388 0.05873 0.0
H1494 H 0.57995 0.79184 0.16687 0.0
H1495 H 0.60199 0.77318 0.10431 0.0
Li1496 Li 0.89565 0.08189 0.60734 0.0
Li1497 Li 0.91013 0.07997 0.57132 0.0
Li1498 Li 0.91748 0.11407 0.58854 0.0
Li1499 Li 0.88039 0.10337 0.5721 0.0
C1500 C 0.94456 0.08133 0.60727 0.0
N1501 N 0.98321 0.07284 0.62613 0.0
C1502 C 0.96221 0.0766 0.59471 0.0
C1503 C 0.94673 0.08213 0.62943 0.0
C1504 C 0.98157 0.07224 0.60456 0.0
C1505 C 0.96634 0.07771 0.63866 0.0
C1506 C 0.87514 0.05347 0.57243 0.0
C1507 C 0.86942 0.03003 0.5426 0.0
N1508 N 0.8626 0.01461 0.55617 0.0
C1509 C 0.86807 0.0374 0.58607 0.0
C1510 C 0.87579 0.04979 0.55051 0.0
C1511 C 0.86181 0.01787 0.57755 0.0
C1512 C 0.87428 0.05885 0.64393 0.0
N1513 N 0.89232 0.06095 0.63214 0.0
C1514 C 0.90842 0.03301 0.65312 0.0
C1515 C 0.90886 0.04749 0.63602 0.0
C1516 C 0.89028 0.0312 0.66593 0.0
C1517 C 0.87287 0.0441 0.66082 0.0
H1518 H 0.86076 0.06827 0.64008 0.0
H1519 H 0.92252 0.04772 0.62574 0.0
C1520 C 0.93748 0.06263 0.5417 0.0
N1521 N 0.924 0.0588 0.55802 0.0
C1522 C 0.95457 0.04921 0.53877 0.0
C1523 C 0.94224 0.02748 0.56829 0.0
C1524 C 0.92551 0.0414 0.57077 0.0
C1525 C 0.95737 0.03219 0.55292 0.0
H1526 H 0.9363 0.07709 0.53254 0.0
H1527 H 0.91511 0.03966 0.58432 0.0
C1528 C 0.89664 0.12547 0.6205 0.0
N1529 N 0.92344 0.14408 0.64971 0.0
C1530 C 0.90432 0.14585 0.61693 0.0
C1531 C 0.90083 0.11538 0.63986 0.0
C1532 C 0.91888 0.15442 0.63126 0.0
C1533 C 0.91423 0.12517 0.65457 0.0
C1534 C 0.91265 0.11274 0.53806 0.0
C1535 C 0.93037 0.12489 0.53257 0.0
C1536 C 0.89899 0.10557 0.5221 0.0
C1537 C 0.93389 0.13005 0.51124 0.0
C1538 C 0.90308 0.11099 0.50093 0.0
N1539 N 0.92026 0.12308 0.49599 0.0
C1540 C 0.95696 0.13551 0.60568 0.0
C1541 C 0.93831 0.15602 0.58046 0.0
C1542 C 0.9718 0.15208 0.60862 0.0
N1543 N 0.94034 0.13756 0.59183 0.0
C1544 C 0.95284 0.17294 0.5829 0.0
C1545 C 0.96987 0.1712 0.59721 0.0
H1546 H 0.95862 0.12124 0.61498 0.0
H1547 H 0.92515 0.15781 0.5696 0.0
C1548 C 0.84202 0.0952 0.54438 0.0
N1549 N 0.85572 0.11051 0.55171 0.0
C1550 C 0.82629 0.09982 0.52885 0.0
C1551 C 0.83841 0.13598 0.52875 0.0
C1552 C 0.854 0.13066 0.54394 0.0
C1553 C 0.82428 0.1205 0.52031 0.0
H1554 H 0.84316 0.07921 0.55052 0.0
H1555 H 0.86477 0.14281 0.54959 0.0
O1556 O 0.92523 0.08505 0.59804 0.0
O1557 O 0.88103 0.07277 0.58062 0.0
O1558 O 0.88782 0.11424 0.60411 0.0
O1559 O 0.90828 0.10873 0.55902 0.0
H1560 H 0.96103 0.07633 0.57757 0.0
H1561 H 0.93336 0.08584 0.63946 0.0
H1562 H 0.99534 0.06846 0.59506 0.0
H1563 H 0.96813 0.0781 0.65578 0.0
H1564 H 0.86987 0.02695 0.52566 0.0
H1565 H 0.86724 0.04002 0.60305 0.0
H1566 H 0.88126 0.06199 0.53973 0.0
H1567 H 0.85625 0.00532 0.58794 0.0
H1568 H 0.92211 0.02309 0.65613 0.0
H1569 H 0.85843 0.04314 0.67009 0.0
H1570 H 0.9662 0.05279 0.52659 0.0
H1571 H 0.94425 0.01427 0.57919 0.0
H1572 H 0.90062 0.15411 0.60229 0.0
H1573 H 0.89444 0.09985 0.64319 0.0
H1574 H 0.92682 0.16916 0.62749 0.0
H1575 H 0.91801 0.11734 0.66942 0.0
H1576 H 0.9413 0.13032 0.54464 0.0
H1577 H 0.88531 0.09604 0.52593 0.0
H1578 H 0.94744 0.13961 0.5068 0.0
H1579 H 0.89255 0.10565 0.48845 0.0
H1580 H 0.98485 0.14984 0.61958 0.0
H1581 H 0.95086 0.18726 0.57352 0.0
H1582 H 0.81606 0.08711 0.52344 0.0
H1583 H 0.83747 0.15245 0.52388 0.0
Li1584 Li 0.64572 0.15689 0.35339 0.0
Li1585 Li 0.67834 0.13526 0.36597 0.0
Li1586 Li 0.67816 0.15545 0.33244 0.0
Li1587 Li 0.65697 0.1223 0.33091 0.0
C1588 C 0.67325 0.18649 0.37009 0.0
N1589 N 0.67097 0.22739 0.38647 0.0
C1590 C 0.67801 0.1904 0.39149 0.0
C1591 C 0.66759 0.20359 0.35705 0.0
C1592 C 0.67667 0.2111 0.39948 0.0
C1593 C 0.66649 0.22409 0.36557 0.0
C1594 C 0.65422 0.10681 0.37391 0.0
C1595 C 0.67334 0.07354 0.37513 0.0
N1596 N 0.67356 0.07456 0.39672 0.0
C1597 C 0.6541 0.10714 0.39598 0.0
C1598 C 0.66392 0.08981 0.36336 0.0
C1599 C 0.66423 0.09092 0.40731 0.0
C1600 C 0.6103 0.18398 0.34193 0.0
N1601 N 0.62262 0.17913 0.35907 0.0
C1602 C 0.60483 0.20711 0.37898 0.0
C1603 C 0.62035 0.19081 0.37736 0.0
C1604 C 0.59161 0.21198 0.36151 0.0
C1605 C 0.59536 0.20055 0.34257 0.0
H1606 H 0.61137 0.1744 0.32776 0.0
H1607 H 0.6303 0.18733 0.39092 0.0
C1608 C 0.71918 0.12297 0.38897 0.0
N1609 N 0.69869 0.12991 0.39095 0.0
C1610 C 0.73355 0.12376 0.40637 0.0
C1611 C 0.70621 0.13979 0.42724 0.0
C1612 C 0.69214 0.13769 0.41004 0.0
C1613 C 0.72717 0.13244 0.426 0.0
H1614 H 0.72504 0.11808 0.37363 0.0
H1615 H 0.67633 0.14398 0.41142 0.0
C1616 C 0.64504 0.16121 0.30258 0.0
N1617 N 0.6368 0.18026 0.26362 0.0
C1618 C 0.64395 0.14898 0.284 0.0
C1619 C 0.64219 0.18328 0.3011 0.0
C1620 C 0.63965 0.15884 0.26454 0.0
C1621 C 0.63803 0.19257 0.28136 0.0
C1622 C 0.7041 0.11498 0.32741 0.0
C1623 C 0.71106 0.12025 0.30697 0.0
C1624 C 0.71286 0.09735 0.33773 0.0
C1625 C 0.72696 0.10813 0.29739 0.0
C1626 C 0.72867 0.08556 0.32762 0.0
N1627 N 0.73537 0.09117 0.30783 0.0
C1628 C 0.70557 0.18793 0.3286 0.0
C1629 C 0.69203 0.17503 0.2958 0.0
C1630 C 0.70923 0.20777 0.3198 0.0
N1631 N 0.69531 0.17297 0.31699 0.0
C1632 C 0.69582 0.19439 0.28618 0.0
C1633 C 0.70311 0.21137 0.29868 0.0
H1634 H 0.70872 0.18528 0.34529 0.0
H1635 H 0.68474 0.1624 0.2868 0.0
C1636 C 0.62804 0.09773 0.30063 0.0
N1637 N 0.64788 0.09922 0.30947 0.0
C1638 C 0.6236 0.0829 0.28404 0.0
C1639 C 0.65973 0.07125 0.28605 0.0
C1640 C 0.66343 0.08599 0.30238 0.0
C1641 C 0.63974 0.06952 0.27624 0.0
H1642 H 0.61569 0.10837 0.30603 0.0
H1643 H 0.67902 0.08688 0.30918 0.0
O1644 O 0.67426 0.16618 0.36194 0.0
O1645 O 0.64682 0.12397 0.36268 0.0
O1646 O 0.64866 0.15159 0.32195 0.0
O1647 O 0.6883 0.12645 0.337 0.0
H1648 H 0.68281 0.17778 0.40192 0.0
H1649 H 0.66438 0.20113 0.34044 0.0
H1650 H 0.68024 0.21421 0.41603 0.0
H1651 H 0.66213 0.23737 0.35554 0.0
H1652 H 0.68084 0.06032 0.36708 0.0
H1653 H 0.64709 0.12045 0.40393 0.0
H1654 H 0.66444 0.08928 0.34626 0.0
H1655 H 0.66497 0.0914 0.42445 0.0
H1656 H 0.60276 0.21527 0.39401 0.0
H1657 H 0.58604 0.20358 0.32843 0.0
H1658 H 0.74986 0.11904 0.404 0.0
H1659 H 0.70124 0.14888 0.44084 0.0
H1660 H 0.6468 0.13212 0.28438 0.0
H1661 H 0.64291 0.19324 0.31497 0.0
H1662 H 0.63872 0.14947 0.25013 0.0
H1663 H 0.63575 0.20959 0.28015 0.0
H1664 H 0.70415 0.13336 0.29843 0.0
H1665 H 0.70746 0.09267 0.35335 0.0
H1666 H 0.73252 0.11212 0.2816 0.0
H1667 H 0.73556 0.07191 0.33549 0.0
H1668 H 0.71572 0.22035 0.32962 0.0
H1669 H 0.69234 0.19624 0.2694 0.0
H1670 H 0.60797 0.08243 0.27699 0.0
H1671 H 0.67282 0.0615 0.28077 0.0
Li1672 Li 0.57372 0.92861 0.09194 0.0
Li1673 Li 0.59467 0.92721 0.12573 0.0
Li1674 Li 0.60604 0.9075 0.08881 0.0
Li1675 Li 0.57293 0.89496 0.10966 0.0
C1676 C 0.61431 0.9535 0.08605 0.0
N1677 N 0.63877 0.98276 0.06418 0.0
C1678 C 0.63226 0.96236 0.09558 0.0
C1679 C 0.60876 0.95965 0.06538 0.0
C1680 C 0.64442 0.9771 0.08428 0.0
C1681 C 0.62134 0.97442 0.05459 0.0
C1682 C 0.54805 0.92963 0.13455 0.0
C1683 C 0.53049 0.9284 0.16872 0.0
N1684 N 0.51666 0.94355 0.16206 0.0
C1685 C 0.53363 0.94528 0.12816 0.0
C1686 C 0.54644 0.92122 0.1551 0.0
C1687 C 0.5179 0.95206 0.14221 0.0
C1688 C 0.53758 0.93665 0.071 0.0
N1689 N 0.55543 0.9458 0.07876 0.0
C1690 C 0.54264 0.98045 0.07206 0.0
C1691 C 0.55807 0.96714 0.08015 0.0
C1692 C 0.52462 0.97142 0.06273 0.0
C1693 C 0.52177 0.94934 0.06265 0.0
H1694 H 0.5356 0.9196 0.07155 0.0
H1695 H 0.572 0.97369 0.08767 0.0
C1696 C 0.62523 0.9483 0.15276 0.0
N1697 N 0.60397 0.94704 0.14997 0.0
C1698 C 0.63411 0.96186 0.16812 0.0
C1699 C 0.59943 0.97407 0.17766 0.0
C1700 C 0.59103 0.95976 0.16213 0.0
C1701 C 0.6215 0.97572 0.18078 0.0
H1702 H 0.63548 0.93817 0.14343 0.0
H1703 H 0.5741 0.95917 0.15969 0.0
C1704 C 0.57275 0.89827 0.05781 0.0
N1705 N 0.56516 0.89215 0.01483 0.0
C1706 C 0.55607 0.88523 0.05109 0.0
C1707 C 0.58523 0.90852 0.04256 0.0
C1708 C 0.55256 0.88225 0.02933 0.0
C1709 C 0.58125 0.90516 0.02095 0.0
C1710 C 0.59855 0.8785 0.1314 0.0
C1711 C 0.59747 0.85887 0.1212 0.0
C1712 C 0.58966 0.88096 0.15162 0.0
C1713 C 0.58613 0.84244 0.13083 0.0
C1714 C 0.57955 0.86376 0.16126 0.0
N1715 N 0.57757 0.84512 0.15053 0.0
C1716 C 0.64316 0.91454 0.05928 0.0
C1717 C 0.62751 0.88061 0.05722 0.0
C1718 C 0.65787 0.90917 0.04315 0.0
N1719 N 0.62866 0.90012 0.06665 0.0
C1720 C 0.64172 0.87467 0.04091 0.0
C1721 C 0.65788 0.88868 0.0339 0.0
H1722 H 0.64406 0.93011 0.06634 0.0
H1723 H 0.61545 0.8695 0.06233 0.0
C1724 C 0.5369 0.86918 0.12855 0.0
N1725 N 0.55222 0.87037 0.11322 0.0
C1726 C 0.52259 0.85185 0.1293 0.0
C1727 C 0.53995 0.83703 0.09867 0.0
C1728 C 0.5536 0.85466 0.09831 0.0
C1729 C 0.52373 0.83542 0.11403 0.0
H1730 H 0.53556 0.88169 0.14022 0.0
H1731 H 0.56587 0.85546 0.08632 0.0
O1732 O 0.60257 0.93862 0.09676 0.0
O1733 O 0.56377 0.92286 0.12101 0.0
O1734 O 0.57733 0.90021 0.07909 0.0
O1735 O 0.60505 0.89595 0.1203 0.0
H1736 H 0.63701 0.95768 0.11139 0.0
H1737 H 0.59485 0.95322 0.05774 0.0
H1738 H 0.65841 0.98397 0.09147 0.0
H1739 H 0.61723 0.97926 0.03859 0.0
H1740 H 0.52912 0.92192 0.18461 0.0
H1741 H 0.53437 0.9523 0.11261 0.0
H1742 H 0.55722 0.90916 0.16056 0.0
H1743 H 0.50669 0.96413 0.13734 0.0
H1744 H 0.54535 0.99748 0.07189 0.0
H1745 H 0.50805 0.94208 0.05526 0.0
H1746 H 0.65108 0.9609 0.17021 0.0
H1747 H 0.58872 0.98394 0.18678 0.0
H1748 H 0.54581 0.87754 0.06248 0.0
H1749 H 0.5981 0.91874 0.04725 0.0
H1750 H 0.53982 0.87206 0.02398 0.0
H1751 H 0.59101 0.91283 0.00906 0.0
H1752 H 0.60375 0.85689 0.10528 0.0
H1753 H 0.59006 0.89621 0.15954 0.0
H1754 H 0.58351 0.82775 0.12228 0.0
H1755 H 0.57255 0.86548 0.17688 0.0
H1756 H 0.66971 0.92083 0.03882 0.0
H1757 H 0.63984 0.85904 0.034 0.0
H1758 H 0.51039 0.85171 0.14139 0.0
H1759 H 0.54225 0.82471 0.08686 0.0
Li1760 Li 0.8538 0.83585 0.85232 0.0
Li1761 Li 0.82175 0.85744 0.86569 0.0
Li1762 Li 0.82107 0.84008 0.83164 0.0
Li1763 Li 0.84333 0.87232 0.83347 0.0
C1764 C 0.8214 0.80533 0.86153 0.0
N1765 N 0.81414 0.762 0.86434 0.0
C1766 C 0.80624 0.79739 0.87569 0.0
C1767 C 0.83265 0.79118 0.84864 0.0
C1768 C 0.80284 0.77545 0.87692 0.0
C1769 C 0.82883 0.76936 0.85033 0.0
C1770 C 0.8482 0.8787 0.88115 0.0
C1771 C 0.82954 0.90939 0.89425 0.0
N1772 N 0.82696 0.89946 0.91329 0.0
C1773 C 0.84647 0.86923 0.90112 0.0
C1774 C 0.83996 0.89895 0.8777 0.0
C1775 C 0.83514 0.87977 0.917 0.0
C1776 C 0.88891 0.80591 0.8429 0.0
N1777 N 0.87605 0.81377 0.85853 0.0
C1778 C 0.89195 0.78944 0.8835 0.0
C1779 C 0.877 0.80526 0.87845 0.0
C1780 C 0.9064 0.78194 0.868 0.0
C1781 C 0.90405 0.79007 0.84722 0.0
H1782 H 0.88831 0.81249 0.82715 0.0
H1783 H 0.86621 0.8109 0.89057 0.0
C1784 C 0.78605 0.8776 0.89021 0.0
N1785 N 0.80088 0.86177 0.89005 0.0
C1786 C 0.77101 0.87922 0.90682 0.0
C1787 C 0.78636 0.84819 0.92295 0.0
C1788 C 0.80102 0.84715 0.90612 0.0
C1789 C 0.77074 0.86422 0.92351 0.0
H1790 H 0.78563 0.88895 0.87734 0.0
H1791 H 0.81288 0.83476 0.90611 0.0
C1792 C 0.86218 0.83622 0.80512 0.0
N1793 N 0.88691 0.82132 0.77193 0.0
C1794 C 0.87872 0.84862 0.79706 0.0
C1795 C 0.85851 0.81601 0.79645 0.0
C1796 C 0.89095 0.84089 0.78023 0.0
C1797 C 0.87111 0.80882 0.77967 0.0
C1798 C 0.79883 0.88344 0.82863 0.0
C1799 C 0.78715 0.87786 0.81054 0.0
C1800 C 0.79725 0.90411 0.8367 0.0
C1801 C 0.77427 0.89305 0.80078 0.0
C1802 C 0.78417 0.91884 0.82651 0.0
N1803 N 0.77306 0.91306 0.8089 0.0
C1804 C 0.78929 0.81259 0.82379 0.0
C1805 C 0.80873 0.82439 0.79355 0.0
C1806 C 0.78176 0.7952 0.81269 0.0
N1807 N 0.80375 0.8255 0.81446 0.0
C1808 C 0.80146 0.8074 0.78174 0.0
C1809 C 0.78884 0.79211 0.79187 0.0
H1810 H 0.78503 0.81483 0.84028 0.0
H1811 H 0.81983 0.83557 0.7867 0.0
C1812 C 0.87277 0.90403 0.81509 0.0
N1813 N 0.85291 0.89576 0.81368 0.0
C1814 C 0.88064 0.91806 0.79947 0.0
C1815 C 0.84713 0.91624 0.78158 0.0
C1816 C 0.84025 0.90154 0.79706 0.0
C1817 C 0.86778 0.92481 0.78228 0.0
H1818 H 0.8829 0.899 0.82787 0.0
H1819 H 0.8248 0.89447 0.79539 0.0
O1820 O 0.825 0.82682 0.86016 0.0
O1821 O 0.85431 0.86684 0.86416 0.0
O1822 O 0.85 0.84373 0.8216 0.0
O1823 O 0.81198 0.8689 0.83809 0.0
H1824 H 0.79689 0.808 0.8854 0.0
H1825 H 0.8442 0.79696 0.83744 0.0
H1826 H 0.79115 0.76914 0.88781 0.0
H1827 H 0.83753 0.75827 0.84047 0.0
H1828 H 0.82283 0.92502 0.89173 0.0
H1829 H 0.85229 0.85325 0.9038 0.0
H1830 H 0.84093 0.90611 0.86207 0.0
H1831 H 0.83227 0.87198 0.93205 0.0
H1832 H 0.89208 0.78327 0.89956 0.0
H1833 H 0.91461 0.78533 0.83453 0.0
H1834 H 0.75928 0.89176 0.90619 0.0
H1835 H 0.78735 0.83642 0.9355 0.0
H1836 H 0.88229 0.86395 0.80387 0.0
H1837 H 0.84617 0.80585 0.80261 0.0
H1838 H 0.90373 0.85041 0.77383 0.0
H1839 H 0.86836 0.79326 0.77283 0.0
H1840 H 0.78808 0.86208 0.8039 0.0
H1841 H 0.80601 0.90884 0.85065 0.0
H1842 H 0.76527 0.88893 0.78672 0.0
H1843 H 0.78286 0.93488 0.83261 0.0
H1844 H 0.77136 0.7839 0.82046 0.0
H1845 H 0.80675 0.80544 0.76544 0.0
H1846 H 0.89692 0.9231 0.8009 0.0
H1847 H 0.83611 0.92073 0.76921 0.0
Li1848 Li 0.40796 0.58539 0.12631 0.0
Li1849 Li 0.42601 0.57855 0.09299 0.0
Li1850 Li 0.4272 0.6156 0.10461 0.0
Li1851 Li 0.39432 0.6004 0.08957 0.0
C1852 C 0.45033 0.57977 0.13431 0.0
N1853 N 0.47636 0.55973 0.16348 0.0
C1854 C 0.45237 0.55763 0.13419 0.0
C1855 C 0.4608 0.5916 0.14998 0.0
C1856 C 0.46582 0.54782 0.14883 0.0
C1857 C 0.47404 0.58121 0.16442 0.0
C1858 C 0.39316 0.55183 0.08819 0.0
C1859 C 0.38821 0.53521 0.05384 0.0
N1860 N 0.38511 0.51613 0.06355 0.0
C1861 C 0.3902 0.5319 0.09777 0.0
C1862 C 0.39242 0.55332 0.06599 0.0
C1863 C 0.38607 0.51413 0.08507 0.0
C1864 C 0.38833 0.55386 0.15154 0.0
N1865 N 0.40306 0.56936 0.15388 0.0
C1866 C 0.41025 0.55654 0.18966 0.0
C1867 C 0.41425 0.5707 0.17257 0.0
C1868 C 0.39477 0.5406 0.1875 0.0
C1869 C 0.38474 0.53884 0.16752 0.0
H1870 H 0.3795 0.55295 0.13695 0.0
H1871 H 0.42626 0.58276 0.17445 0.0
C1872 C 0.46218 0.5706 0.07312 0.0
N1873 N 0.44505 0.56032 0.08115 0.0
C1874 C 0.47894 0.55902 0.06492 0.0
C1875 C 0.46042 0.52662 0.07465 0.0
C1876 C 0.44397 0.53882 0.08242 0.0
C1877 C 0.47789 0.53682 0.06555 0.0
H1878 H 0.46266 0.58781 0.073 0.0
H1879 H 0.43076 0.53109 0.08991 0.0
C1880 C 0.40412 0.63071 0.1333 0.0
N1881 N 0.42781 0.65674 0.1595 0.0
C1882 C 0.40997 0.65086 0.12646 0.0
C1883 C 0.40859 0.62456 0.15413 0.0
C1884 C 0.42309 0.66322 0.13942 0.0
C1885 C 0.42038 0.638 0.16726 0.0
C1886 C 0.42123 0.60981 0.05512 0.0
C1887 C 0.41777 0.6309 0.04904 0.0
C1888 C 0.42402 0.59427 0.03942 0.0
C1889 C 0.41654 0.63604 0.02745 0.0
C1890 C 0.42265 0.60001 0.01797 0.0
N1891 N 0.41895 0.6206 0.01248 0.0
C1892 C 0.46711 0.63383 0.11345 0.0
C1893 C 0.44586 0.6584 0.09476 0.0
C1894 C 0.48243 0.64937 0.11713 0.0
N1895 N 0.44845 0.63884 0.10395 0.0
C1896 C 0.46094 0.67452 0.09787 0.0
C1897 C 0.47903 0.67021 0.11004 0.0
H1898 H 0.4701 0.61776 0.1184 0.0
H1899 H 0.43154 0.66213 0.08622 0.0
C1900 C 0.35687 0.58959 0.06581 0.0
N1901 N 0.37014 0.60616 0.06977 0.0
C1902 C 0.34095 0.59104 0.05042 0.0
C1903 C 0.35185 0.62694 0.0431 0.0
C1904 C 0.36739 0.62493 0.05915 0.0
C1905 C 0.33854 0.60962 0.03806 0.0
H1906 H 0.35807 0.57526 0.07516 0.0
H1907 H 0.37742 0.63834 0.06282 0.0
O1908 O 0.43797 0.58978 0.11942 0.0
O1909 O 0.39671 0.56976 0.10027 0.0
O1910 O 0.39727 0.61595 0.1189 0.0
O1911 O 0.42225 0.60448 0.07627 0.0
H1912 H 0.44343 0.54806 0.12318 0.0
H1913 H 0.45849 0.6086 0.15126 0.0
H1914 H 0.46775 0.53072 0.14866 0.0
H1915 H 0.48238 0.59023 0.17646 0.0
H1916 H 0.38733 0.53633 0.03668 0.0
H1917 H 0.39176 0.52975 0.11469 0.0
H1918 H 0.39457 0.56845 0.05823 0.0
H1919 H 0.38381 0.49868 0.09233 0.0
H1920 H 0.4191 0.55811 0.20434 0.0
H1921 H 0.37361 0.52614 0.16431 0.0
H1922 H 0.49214 0.56718 0.0575 0.0
H1923 H 0.45904 0.50942 0.07482 0.0
H1924 H 0.40566 0.65615 0.11068 0.0
H1925 H 0.4034 0.60939 0.1599 0.0
H1926 H 0.42954 0.67798 0.13347 0.0
H1927 H 0.4242 0.63321 0.18335 0.0
H1928 H 0.41547 0.64312 0.06087 0.0
H1929 H 0.42723 0.57793 0.04366 0.0
H1930 H 0.41358 0.65228 0.0226 0.0
H1931 H 0.4246 0.5881 0.0057 0.0
H1932 H 0.49663 0.64526 0.12589 0.0
H1933 H 0.45792 0.69041 0.0919 0.0
H1934 H 0.33048 0.57755 0.04859 0.0
H1935 H 0.35078 0.64177 0.03443 0.0
Li1936 Li 0.18187 0.65144 0.8691 0.0
Li1937 Li 0.14956 0.6712 0.85836 0.0
Li1938 Li 0.16237 0.63979 0.83459 0.0
Li1939 Li 0.18196 0.67412 0.83766 0.0
C1940 C 0.15619 0.62028 0.87607 0.0
N1941 N 0.17346 0.58433 0.89457 0.0
C1942 C 0.16435 0.62116 0.89659 0.0
C1943 C 0.1556 0.60079 0.86547 0.0
C1944 C 0.17394 0.60311 0.90528 0.0
C1945 C 0.16419 0.58274 0.87513 0.0
C1946 C 0.17609 0.70414 0.87081 0.0
C1947 C 0.16547 0.73899 0.85882 0.0
N1948 N 0.17205 0.74738 0.87766 0.0
C1949 C 0.18278 0.71311 0.89002 0.0
C1950 C 0.16744 0.71718 0.85506 0.0
C1951 C 0.18061 0.735 0.89318 0.0
C1952 C 0.21686 0.62846 0.88827 0.0
N1953 N 0.20245 0.64413 0.89186 0.0
C1954 C 0.21705 0.64989 0.92684 0.0
C1955 C 0.20249 0.65498 0.91069 0.0
C1956 C 0.23188 0.63353 0.9236 0.0
C1957 C 0.23169 0.62295 0.90385 0.0
H1958 H 0.21675 0.61992 0.87342 0.0
H1959 H 0.19085 0.66727 0.91341 0.0
C1960 C 0.11631 0.70232 0.85161 0.0
N1961 N 0.12598 0.6902 0.86675 0.0
C1962 C 0.10008 0.71659 0.85694 0.0
C1963 C 0.10491 0.70716 0.89373 0.0
C1964 C 0.12088 0.69282 0.88763 0.0
C1965 C 0.09378 0.71913 0.87828 0.0
H1966 H 0.12085 0.70079 0.83518 0.0
H1967 H 0.12926 0.68379 0.89962 0.0
C1968 C 0.20769 0.63188 0.83241 0.0
N1969 N 0.23644 0.60481 0.81326 0.0
C1970 C 0.22559 0.6401 0.8222 0.0
C1971 C 0.20462 0.60985 0.83312 0.0
C1972 C 0.23987 0.62616 0.81252 0.0
C1973 C 0.2193 0.59644 0.82334 0.0
C1974 C 0.14167 0.67439 0.80983 0.0
C1975 C 0.12539 0.66094 0.80322 0.0
C1976 C 0.14553 0.69327 0.79867 0.0
C1977 C 0.11317 0.66648 0.78555 0.0
C1978 C 0.13292 0.69833 0.78111 0.0
N1979 N 0.11714 0.68493 0.77496 0.0
C1980 C 0.14024 0.6064 0.80905 0.0
C1981 C 0.17231 0.61918 0.7949 0.0
C1982 C 0.1376 0.59269 0.79158 0.0
N1983 N 0.15757 0.61916 0.81075 0.0
C1984 C 0.17065 0.60538 0.77744 0.0
C1985 C 0.15308 0.5917 0.77537 0.0
H1986 H 0.12825 0.60699 0.82113 0.0
H1987 H 0.18563 0.62989 0.79572 0.0
C1988 C 0.21222 0.70496 0.82452 0.0
N1989 N 0.19846 0.68907 0.81974 0.0
C1990 C 0.22512 0.7131 0.8085 0.0
C1991 C 0.20962 0.68767 0.78385 0.0
C1992 C 0.19693 0.68037 0.80007 0.0
C1993 C 0.22378 0.70411 0.78813 0.0
H1994 H 0.21322 0.71105 0.84058 0.0
H1995 H 0.18595 0.66752 0.79719 0.0
O1996 O 0.15109 0.63868 0.86559 0.0
O1997 O 0.17761 0.68264 0.86772 0.0
O1998 O 0.1926 0.6453 0.84045 0.0
O1999 O 0.15373 0.66901 0.82714 0.0
H2000 H 0.1643 0.63603 0.90521 0.0
H2001 H 0.14946 0.59975 0.84962 0.0
H2002 H 0.1819 0.60409 0.92047 0.0
H2003 H 0.16407 0.56763 0.86687 0.0
H2004 H 0.15868 0.74924 0.8468 0.0
H2005 H 0.18954 0.70329 0.9024 0.0
H2006 H 0.16213 0.7105 0.84016 0.0
H2007 H 0.1857 0.74214 0.90799 0.0
H2008 H 0.21635 0.65831 0.94187 0.0
H2009 H 0.24294 0.61043 0.90039 0.0
H2010 H 0.09222 0.72502 0.84418 0.0
H2011 H 0.10164 0.70887 0.91053 0.0
H2012 H 0.22841 0.65705 0.82162 0.0
H2013 H 0.19083 0.60319 0.84075 0.0
H2014 H 0.25365 0.63234 0.80436 0.0
H2015 H 0.21697 0.57939 0.82362 0.0
H2016 H 0.12223 0.64641 0.81175 0.0
H2017 H 0.15802 0.704 0.8035 0.0
H2018 H 0.10051 0.65614 0.78029 0.0
H2019 H 0.13568 0.71291 0.77238 0.0
H2020 H 0.12329 0.58328 0.79085 0.0
H2021 H 0.18333 0.60545 0.76589 0.0
H2022 H 0.23585 0.72614 0.81183 0.0
H2023 H 0.20812 0.68093 0.76804 0.0
Li2024 Li 0.09704 0.42203 0.62485 0.0
Li2025 Li 0.07644 0.42558 0.59241 0.0
Li2026 Li 0.07601 0.39002 0.60777 0.0
Li2027 Li 0.10839 0.40389 0.58944 0.0
C2028 C 0.05159 0.42859 0.63261 0.0
N2029 N 0.02313 0.45093 0.65744 0.0
C2030 C 0.04748 0.45003 0.62835 0.0
C2031 C 0.04148 0.41865 0.64972 0.0
C2032 C 0.03293 0.461 0.641 0.0
C2033 C 0.02712 0.43018 0.66205 0.0
C2034 C 0.11342 0.45282 0.58839 0.0
C2035 C 0.12412 0.47311 0.55748 0.0
N2036 N 0.12943 0.4897 0.57029 0.0
C2037 C 0.11852 0.47034 0.60113 0.0
C2038 C 0.11589 0.45446 0.56629 0.0
C2039 C 0.12677 0.48872 0.59175 0.0
C2040 C 0.12872 0.445 0.64883 0.0
N2041 N 0.1076 0.44056 0.64836 0.0
C2042 C 0.10136 0.46766 0.67471 0.0
C2043 C 0.09408 0.45113 0.66157 0.0
C2044 C 0.12284 0.47364 0.67433 0.0
C2045 C 0.13667 0.46154 0.6616 0.0
H2046 H 0.13921 0.43686 0.63802 0.0
H2047 H 0.07743 0.44744 0.66138 0.0
C2048 C 0.04515 0.43364 0.5647 0.0
N2049 N 0.06 0.44352 0.57666 0.0
C2050 C 0.04018 0.44176 0.54487 0.0
C2051 C 0.06346 0.47163 0.55205 0.0
C2052 C 0.06739 0.46317 0.57193 0.0
C2053 C 0.0505 0.46028 0.53792 0.0
H2054 H 0.03871 0.41855 0.56976 0.0
H2055 H 0.0777 0.47146 0.58277 0.0
C2056 C 0.0986 0.37894 0.63678 0.0
N2057 N 0.07386 0.3569 0.66572 0.0
C2058 C 0.09444 0.3574 0.63375 0.0
C2059 C 0.09124 0.3889 0.65525 0.0
C2060 C 0.08112 0.34682 0.64806 0.0
C2061 C 0.07898 0.37747 0.66977 0.0
C2062 C 0.07402 0.39408 0.55783 0.0
C2063 C 0.05573 0.38209 0.55401 0.0
C2064 C 0.08524 0.40244 0.54056 0.0
C2065 C 0.04904 0.3787 0.53309 0.0
C2066 C 0.07806 0.39872 0.51987 0.0
N2067 N 0.06025 0.38702 0.51658 0.0
C2068 C 0.04006 0.36289 0.621 0.0
C2069 C 0.06325 0.3476 0.59574 0.0
C2070 C 0.02791 0.34417 0.62152 0.0
N2071 N 0.05769 0.36421 0.60858 0.0
C2072 C 0.05142 0.32869 0.59558 0.0
C2073 C 0.03354 0.32665 0.60875 0.0
H2074 H 0.03544 0.37626 0.63066 0.0
H2075 H 0.07713 0.34895 0.58572 0.0
C2076 C 0.14533 0.4141 0.56591 0.0
N2077 N 0.13077 0.39842 0.5687 0.0
C2078 C 0.16051 0.41277 0.54983 0.0
C2079 C 0.14571 0.379 0.53928 0.0
C2080 C 0.13066 0.38104 0.55568 0.0
C2081 C 0.16095 0.39508 0.53608 0.0
H2082 H 0.14596 0.42725 0.5769 0.0
H2083 H 0.11866 0.36893 0.55777 0.0
O2084 O 0.06548 0.41738 0.62024 0.0
O2085 O 0.10593 0.43435 0.59745 0.0
O2086 O 0.10686 0.39088 0.62048 0.0
O2087 O 0.08077 0.39759 0.57833 0.0
H2088 H 0.05556 0.45821 0.61562 0.0
H2089 H 0.04486 0.40229 0.65366 0.0
H2090 H 0.02952 0.47756 0.63782 0.0
H2091 H 0.0192 0.42264 0.67533 0.0
H2092 H 0.12623 0.47441 0.54044 0.0
H2093 H 0.11584 0.47005 0.61805 0.0
H2094 H 0.11149 0.44153 0.556 0.0
H2095 H 0.13093 0.50226 0.60152 0.0
H2096 H 0.09002 0.47639 0.68423 0.0
H2097 H 0.15341 0.46522 0.66099 0.0
H2098 H 0.02892 0.43336 0.53494 0.0
H2099 H 0.07103 0.48644 0.54758 0.0
H2100 H 0.09986 0.34953 0.61945 0.0
H2101 H 0.09426 0.40542 0.65818 0.0
H2102 H 0.07538 0.3311 0.64444 0.0
H2103 H 0.07302 0.38516 0.68397 0.0
H2104 H 0.04645 0.37587 0.56706 0.0
H2105 H 0.09943 0.41159 0.54295 0.0
H2106 H 0.03486 0.36955 0.52997 0.0
H2107 H 0.08666 0.40512 0.50642 0.0
H2108 H 0.01406 0.3435 0.63168 0.0
H2109 H 0.05644 0.31563 0.58553 0.0
H2110 H 0.17232 0.42521 0.54891 0.0
H2111 H 0.14507 0.36519 0.52901 0.0
Li2112 Li 0.17017 0.33127 0.66589 0.0
Li2113 Li 0.1506 0.36426 0.66461 0.0
Li2114 Li 0.13821 0.3294 0.64431 0.0
Li2115 Li 0.17377 0.34824 0.63214 0.0
C2116 C 0.13882 0.32832 0.6961 0.0
N2117 N 0.13341 0.31367 0.73736 0.0
C2118 C 0.14324 0.34154 0.71348 0.0
C2119 C 0.13263 0.30725 0.6999 0.0
C2120 C 0.14012 0.33397 0.73416 0.0
C2121 C 0.12975 0.30024 0.7208 0.0
C2122 C 0.19443 0.3716 0.67356 0.0
C2123 C 0.21767 0.4017 0.67873 0.0
N2124 N 0.22087 0.39558 0.69923 0.0
C2125 C 0.19751 0.36598 0.69487 0.0
C2126 C 0.20429 0.38987 0.66558 0.0
C2127 C 0.21111 0.37815 0.70751 0.0
C2128 C 0.20711 0.31212 0.66919 0.0
N2129 N 0.18944 0.31579 0.68098 0.0
C2130 C 0.20271 0.29557 0.70966 0.0
C2131 C 0.18732 0.30853 0.70118 0.0
C2132 C 0.2201 0.29008 0.69705 0.0
C2133 C 0.22268 0.29863 0.67679 0.0
H2134 H 0.20863 0.31911 0.65354 0.0
H2135 H 0.17386 0.31243 0.71073 0.0
C2136 C 0.12376 0.38598 0.69635 0.0
N2137 N 0.14135 0.38859 0.68392 0.0
C2138 C 0.11924 0.39999 0.71334 0.0
C2139 C 0.15006 0.42027 0.70377 0.0
C2140 C 0.154 0.4059 0.68709 0.0
C2141 C 0.13296 0.41704 0.71785 0.0
H2142 H 0.11407 0.37197 0.69425 0.0
H2143 H 0.16774 0.40831 0.67722 0.0
C2144 C 0.17169 0.29756 0.63571 0.0
N2145 N 0.18217 0.25501 0.63221 0.0
C2146 C 0.18935 0.29137 0.62381 0.0
C2147 C 0.15934 0.28209 0.64576 0.0
C2148 C 0.19442 0.2698 0.62227 0.0
C2149 C 0.16489 0.26067 0.64382 0.0
C2150 C 0.15105 0.37625 0.61994 0.0
C2151 C 0.15793 0.37105 0.59958 0.0
C2152 C 0.15675 0.39577 0.62882 0.0
C2153 C 0.17247 0.38442 0.58943 0.0
C2154 C 0.17056 0.40917 0.6178 0.0
N2155 N 0.17848 0.40303 0.59867 0.0
C2156 C 0.10138 0.30087 0.65188 0.0
C2157 C 0.11005 0.30511 0.61565 0.0
C2158 C 0.08514 0.28626 0.64681 0.0
N2159 N 0.11373 0.30996 0.63644 0.0
C2160 C 0.09379 0.29087 0.60987 0.0
C2161 C 0.08117 0.2807 0.62551 0.0
H2162 H 0.10331 0.30563 0.66819 0.0
H2163 H 0.11975 0.31233 0.60343 0.0
C2164 C 0.21375 0.36454 0.61229 0.0
N2165 N 0.19709 0.35105 0.60906 0.0
C2166 C 0.22855 0.36887 0.59603 0.0
C2167 C 0.2105 0.34381 0.57358 0.0
C2168 C 0.1959 0.34004 0.59027 0.0
C2169 C 0.22692 0.35874 0.57617 0.0
H2170 H 0.21542 0.37248 0.62731 0.0
H2171 H 0.18298 0.32902 0.58775 0.0
O2172 O 0.14062 0.33591 0.67566 0.0
O2173 O 0.18165 0.35955 0.66065 0.0
O2174 O 0.16622 0.31859 0.63705 0.0
O2175 O 0.1423 0.36091 0.63256 0.0
H2176 H 0.14965 0.35727 0.71118 0.0
H2177 H 0.13063 0.29613 0.68702 0.0
H2178 H 0.1433 0.34416 0.74766 0.0
H2179 H 0.12483 0.28403 0.72386 0.0
H2180 H 0.22538 0.41583 0.67268 0.0
H2181 H 0.18948 0.35245 0.70168 0.0
H2182 H 0.20114 0.39534 0.6496 0.0
H2183 H 0.21383 0.3738 0.72394 0.0
H2184 H 0.20056 0.28901 0.72549 0.0
H2185 H 0.23613 0.29449 0.66693 0.0
H2186 H 0.1059 0.39664 0.72364 0.0
H2187 H 0.16086 0.43346 0.70604 0.0
H2188 H 0.19915 0.3031 0.61597 0.0
H2189 H 0.1456 0.28656 0.65492 0.0
H2190 H 0.20807 0.2648 0.61316 0.0
H2191 H 0.15543 0.24855 0.65151 0.0
H2192 H 0.15352 0.356 0.59247 0.0
H2193 H 0.15121 0.4001 0.6444 0.0
H2194 H 0.17918 0.37985 0.57428 0.0
H2195 H 0.17551 0.42411 0.62476 0.0
H2196 H 0.07598 0.27928 0.65959 0.0
H2197 H 0.09123 0.28791 0.59311 0.0
H2198 H 0.24097 0.38043 0.59885 0.0
H2199 H 0.20851 0.33566 0.55852 0.0
Li2200 Li 0.3243 0.66895 0.16448 0.0
Li2201 Li 0.34223 0.63581 0.16093 0.0
Li2202 Li 0.35679 0.67041 0.14265 0.0
Li2203 Li 0.32192 0.65314 0.12789 0.0
C2204 C 0.35982 0.67312 0.19141 0.0
N2205 N 0.37171 0.69481 0.22791 0.0
C2206 C 0.36446 0.662 0.21015 0.0
C2207 C 0.36097 0.69534 0.19148 0.0
C2208 C 0.37054 0.67322 0.22835 0.0
C2209 C 0.36706 0.70601 0.21 0.0
C2210 C 0.29607 0.62887 0.16255 0.0
C2211 C 0.27369 0.59833 0.1565 0.0
N2212 N 0.2646 0.60137 0.17589 0.0
C2213 C 0.28659 0.63163 0.18245 0.0
C2214 C 0.2896 0.61206 0.14947 0.0
C2215 C 0.27066 0.61759 0.18888 0.0
C2216 C 0.29454 0.69792 0.17416 0.0
N2217 N 0.30805 0.68379 0.18301 0.0
C2218 C 0.30914 0.70247 0.21553 0.0
C2219 C 0.31334 0.68432 0.20387 0.0
C2220 C 0.29795 0.71909 0.20576 0.0
C2221 C 0.28895 0.71586 0.18554 0.0
H2222 H 0.29004 0.69637 0.15762 0.0
H2223 H 0.32268 0.67174 0.21077 0.0
C2224 C 0.36713 0.60886 0.1893 0.0
N2225 N 0.34814 0.61049 0.17911 0.0
C2226 C 0.37195 0.59097 0.2018 0.0
C2227 C 0.33752 0.57678 0.19366 0.0
C2228 C 0.3334 0.59485 0.18144 0.0
C2229 C 0.35723 0.57425 0.20365 0.0
H2230 H 0.37877 0.6213 0.18741 0.0
H2231 H 0.31861 0.59575 0.17323 0.0
C2232 C 0.32845 0.7032 0.12906 0.0
N2233 N 0.32817 0.74448 0.11379 0.0
C2234 C 0.32716 0.70706 0.1072 0.0
C2235 C 0.32956 0.72041 0.14314 0.0
C2236 C 0.32709 0.72801 0.09978 0.0
C2237 C 0.32937 0.74113 0.13513 0.0
C2238 C 0.34913 0.61954 0.12096 0.0
C2239 C 0.33592 0.61736 0.10347 0.0
C2240 C 0.35429 0.60135 0.13264 0.0
C2241 C 0.32519 0.59827 0.09994 0.0
C2242 C 0.34388 0.58217 0.1283 0.0
N2243 N 0.32935 0.58113 0.11239 0.0
C2244 C 0.39411 0.69773 0.15217 0.0
C2245 C 0.38211 0.70016 0.11679 0.0
C2246 C 0.40987 0.71321 0.14838 0.0
N2247 N 0.38065 0.69114 0.13644 0.0
C2248 C 0.39756 0.71572 0.11232 0.0
C2249 C 0.41226 0.72231 0.12803 0.0
H2250 H 0.39371 0.69008 0.1675 0.0
H2251 H 0.3712 0.69534 0.10444 0.0
C2252 C 0.28034 0.64475 0.10882 0.0
N2253 N 0.30051 0.6508 0.10382 0.0
C2254 C 0.26541 0.64014 0.09285 0.0
C2255 C 0.29123 0.6502 0.06657 0.0
C2256 C 0.30548 0.65505 0.08306 0.0
C2257 C 0.27106 0.6421 0.07134 0.0
H2258 H 0.27572 0.64328 0.12526 0.0
H2259 H 0.32105 0.66099 0.07903 0.0
O2260 O 0.35397 0.66236 0.17328 0.0
O2261 O 0.31172 0.64238 0.15591 0.0
O2262 O 0.32823 0.68271 0.13656 0.0
O2263 O 0.35214 0.63946 0.12946 0.0
H2264 H 0.36297 0.64495 0.21092 0.0
H2265 H 0.35755 0.70427 0.17727 0.0
H2266 H 0.37418 0.66475 0.24289 0.0
H2267 H 0.36811 0.72319 0.21012 0.0
H2268 H 0.26861 0.58522 0.14657 0.0
H2269 H 0.29147 0.64442 0.19286 0.0
H2270 H 0.29701 0.6095 0.13417 0.0
H2271 H 0.26313 0.61957 0.20422 0.0
H2272 H 0.31584 0.70389 0.23132 0.0
H2273 H 0.27889 0.72761 0.17803 0.0
H2274 H 0.38749 0.58994 0.20893 0.0
H2275 H 0.32548 0.56455 0.19462 0.0
H2276 H 0.32638 0.69401 0.09605 0.0
H2277 H 0.33022 0.71795 0.1601 0.0
H2278 H 0.32617 0.73119 0.08289 0.0
H2279 H 0.3301 0.75455 0.1459 0.0
H2280 H 0.33416 0.6304 0.09278 0.0
H2281 H 0.3657 0.60215 0.14534 0.0
H2282 H 0.31393 0.59698 0.08703 0.0
H2283 H 0.3467 0.56834 0.13808 0.0
H2284 H 0.4207 0.71709 0.16114 0.0
H2285 H 0.39767 0.72258 0.09655 0.0
H2286 H 0.24984 0.63444 0.09728 0.0
H2287 H 0.29602 0.65253 0.05021 0.0
Li2288 Li 0.56955 0.62002 0.59694 0.0
Li2289 Li 0.59266 0.59077 0.61132 0.0
Li2290 Li 0.60456 0.61519 0.57875 0.0
Li2291 Li 0.57575 0.58894 0.57627 0.0
C2292 C 0.59157 0.63734 0.62493 0.0
N2293 N 0.5673 0.66148 0.65231 0.0
C2294 C 0.59008 0.63181 0.64637 0.0
C2295 C 0.58266 0.65634 0.6179 0.0
C2296 C 0.5775 0.64403 0.65994 0.0
C2297 C 0.56978 0.66795 0.63179 0.0
C2298 C 0.55238 0.57404 0.61545 0.0
C2299 C 0.54036 0.53755 0.61789 0.0
N2300 N 0.53312 0.5413 0.63791 0.0
C2301 C 0.54446 0.57749 0.63598 0.0
C2302 C 0.55002 0.55385 0.6063 0.0
C2303 C 0.53496 0.56078 0.6471 0.0
C2304 C 0.54111 0.65532 0.5888 0.0
N2305 N 0.54556 0.63883 0.60215 0.0
C2306 C 0.5191 0.6507 0.62659 0.0
C2307 C 0.53418 0.63583 0.62024 0.0
C2308 C 0.51572 0.66905 0.61429 0.0
C2309 C 0.52632 0.67083 0.59469 0.0
H2310 H 0.54995 0.6572 0.57424 0.0
H2311 H 0.53784 0.62278 0.63055 0.0
C2312 C 0.61463 0.55681 0.63448 0.0
N2313 N 0.6005 0.57301 0.63677 0.0
C2314 C 0.61961 0.54325 0.6515 0.0
C2315 C 0.5948 0.56239 0.67323 0.0
C2316 C 0.59069 0.57588 0.65592 0.0
C2317 C 0.60974 0.54593 0.67137 0.0
H2318 H 0.62222 0.55427 0.61939 0.0
H2319 H 0.57938 0.58852 0.65793 0.0
C2320 C 0.57904 0.62861 0.54756 0.0
N2321 N 0.58486 0.64907 0.50905 0.0
C2322 C 0.57688 0.61742 0.52845 0.0
C2323 C 0.58431 0.65021 0.54706 0.0
C2324 C 0.57987 0.62803 0.50916 0.0
C2325 C 0.58714 0.66028 0.52743 0.0
C2326 C 0.60971 0.56256 0.57488 0.0
C2327 C 0.62281 0.55961 0.55711 0.0
C2328 C 0.60099 0.54473 0.58489 0.0
C2329 C 0.62711 0.53901 0.54995 0.0
C2330 C 0.6056 0.5244 0.57725 0.0
N2331 N 0.61849 0.52197 0.56009 0.0
C2332 C 0.6325 0.61878 0.54208 0.0
C2333 C 0.64115 0.6446 0.56777 0.0
C2334 C 0.65086 0.62374 0.53046 0.0
N2335 N 0.62847 0.62824 0.56113 0.0
C2336 C 0.66009 0.64961 0.55678 0.0
C2337 C 0.6661 0.63801 0.53874 0.0
H2338 H 0.62176 0.6068 0.53611 0.0
H2339 H 0.6373 0.65285 0.58237 0.0
C2340 C 0.53911 0.57824 0.55888 0.0
N2341 N 0.56011 0.5736 0.55772 0.0
C2342 C 0.52511 0.56909 0.54457 0.0
C2343 C 0.55499 0.55109 0.52819 0.0
C2344 C 0.56828 0.56047 0.54276 0.0
C2345 C 0.53335 0.55564 0.52905 0.0
H2346 H 0.53339 0.58923 0.57082 0.0
H2347 H 0.58498 0.55792 0.54143 0.0
O2348 O 0.59941 0.6231 0.61053 0.0
O2349 O 0.56199 0.59034 0.60438 0.0
O2350 O 0.57607 0.61852 0.56666 0.0
O2351 O 0.60578 0.58266 0.58265 0.0
H2352 H 0.59831 0.61805 0.65234 0.0
H2353 H 0.58426 0.66117 0.60145 0.0
H2354 H 0.57569 0.63956 0.67647 0.0
H2355 H 0.56148 0.68188 0.62614 0.0
H2356 H 0.53863 0.52189 0.61096 0.0
H2357 H 0.54623 0.59264 0.64375 0.0
H2358 H 0.55563 0.55054 0.59046 0.0
H2359 H 0.52916 0.56329 0.66311 0.0
H2360 H 0.51085 0.64824 0.64151 0.0
H2361 H 0.52416 0.68461 0.58458 0.0
H2362 H 0.63089 0.53054 0.64892 0.0
H2363 H 0.58652 0.56509 0.68806 0.0
H2364 H 0.57295 0.60075 0.52836 0.0
H2365 H 0.58638 0.65908 0.56167 0.0
H2366 H 0.57821 0.61952 0.49428 0.0
H2367 H 0.59118 0.67699 0.52682 0.0
H2368 H 0.62955 0.57302 0.5488 0.0
H2369 H 0.59114 0.54651 0.59876 0.0
H2370 H 0.63726 0.53658 0.5363 0.0
H2371 H 0.59903 0.51054 0.58504 0.0
H2372 H 0.65314 0.61581 0.51537 0.0
H2373 H 0.67061 0.66168 0.56274 0.0
H2374 H 0.50832 0.5725 0.54545 0.0
H2375 H 0.56149 0.54047 0.51626 0.0
Li2376 Li 0.90326 0.41895 0.11883 0.0
Li2377 Li 0.92591 0.38697 0.10358 0.0
Li2378 Li 0.92436 0.42091 0.08677 0.0
Li2379 Li 0.89318 0.39931 0.08289 0.0
C2380 C 0.94665 0.43087 0.12411 0.0
N2381 N 0.971 0.46319 0.14132 0.0
C2382 C 0.9648 0.42608 0.13592 0.0
C2383 C 0.94107 0.45213 0.12094 0.0
C2384 C 0.97678 0.44262 0.14463 0.0
C2385 C 0.95358 0.46824 0.12966 0.0
C2386 C 0.90079 0.3735 0.12935 0.0
C2387 C 0.9185 0.34092 0.1381 0.0
N2388 N 0.92094 0.34777 0.15849 0.0
C2389 C 0.90308 0.38019 0.15043 0.0
C2390 C 0.90744 0.35325 0.1234 0.0
C2391 C 0.91312 0.36682 0.16501 0.0
C2392 C 0.87418 0.44637 0.14154 0.0
N2393 N 0.89329 0.43658 0.1435 0.0
C2394 C 0.89954 0.4559 0.17619 0.0
C2395 C 0.90582 0.44091 0.16069 0.0
C2396 C 0.88013 0.46681 0.17419 0.0
C2397 C 0.86739 0.46152 0.1565 0.0
H2398 H 0.86463 0.44331 0.12762 0.0
H2399 H 0.92099 0.43308 0.16222 0.0
C2400 C 0.95284 0.34871 0.0949 0.0
N2401 N 0.94824 0.3645 0.10911 0.0
C2402 C 0.9679 0.33283 0.09965 0.0
C2403 C 0.97459 0.35042 0.13294 0.0
C2404 C 0.95912 0.36559 0.12777 0.0
C2405 C 0.97901 0.33323 0.1191 0.0
H2406 H 0.94462 0.34805 0.07993 0.0
H2407 H 0.95513 0.37777 0.13917 0.0
C2408 C 0.8926 0.45007 0.08065 0.0
N2409 N 0.88629 0.48915 0.06133 0.0
C2410 C 0.8913 0.45157 0.05846 0.0
C2411 C 0.89084 0.46858 0.09292 0.0
C2412 C 0.88796 0.47143 0.04902 0.0
C2413 C 0.88774 0.48814 0.08289 0.0
C2414 C 0.9211 0.38589 0.05282 0.0
C2415 C 0.92354 0.40014 0.03591 0.0
C2416 C 0.91764 0.36434 0.04858 0.0
C2417 C 0.92274 0.39251 0.01504 0.0
C2418 C 0.9169 0.35733 0.0275 0.0
N2419 N 0.91948 0.37144 0.0113 0.0
C2420 C 0.96233 0.42292 0.07238 0.0
C2421 C 0.94475 0.45574 0.06556 0.0
C2422 C 0.98055 0.42999 0.06246 0.0
N2423 N 0.94495 0.43564 0.07331 0.0
C2424 C 0.96257 0.4634 0.05531 0.0
C2425 C 0.98042 0.45024 0.05363 0.0
H2426 H 0.96184 0.40715 0.07924 0.0
H2427 H 0.93102 0.46574 0.06726 0.0
C2428 C 0.85734 0.40972 0.05621 0.0
N2429 N 0.86982 0.3929 0.06166 0.0
C2430 C 0.84086 0.40763 0.04136 0.0
C2431 C 0.84975 0.37069 0.03739 0.0
C2432 C 0.86632 0.37356 0.05229 0.0
C2433 C 0.83631 0.3878 0.03189 0.0
H2434 H 0.85945 0.42479 0.06409 0.0
H2435 H 0.87577 0.36003 0.05693 0.0
O2436 O 0.93418 0.41493 0.11599 0.0
O2437 O 0.89431 0.38751 0.11412 0.0
O2438 O 0.89473 0.43059 0.09033 0.0
O2439 O 0.92212 0.39294 0.07341 0.0
H2440 H 0.96964 0.40986 0.13852 0.0
H2441 H 0.9273 0.45614 0.11171 0.0
H2442 H 0.99071 0.43909 0.154 0.0
H2443 H 0.94942 0.48475 0.1272 0.0
H2444 H 0.92575 0.32619 0.13307 0.0
H2445 H 0.89768 0.39573 0.15535 0.0
H2446 H 0.90581 0.34794 0.10707 0.0
H2447 H 0.91542 0.3719 0.18128 0.0
H2448 H 0.90988 0.45891 0.18961 0.0
H2449 H 0.85249 0.46952 0.15368 0.0
H2450 H 0.9704 0.32017 0.08826 0.0
H2451 H 0.98288 0.35231 0.14788 0.0
H2452 H 0.89281 0.43753 0.04861 0.0
H2453 H 0.89199 0.468 0.11003 0.0
H2454 H 0.88677 0.47276 0.0319 0.0
H2455 H 0.88643 0.50252 0.09227 0.0
H2456 H 0.92611 0.4169 0.03883 0.0
H2457 H 0.91487 0.35321 0.0614 0.0
H2458 H 0.92471 0.40333 0.0018 0.0
H2459 H 0.91411 0.3407 0.02403 0.0
H2460 H 0.99425 0.41971 0.06121 0.0
H2461 H 0.9624 0.47923 0.04844 0.0
H2462 H 0.83164 0.42163 0.03763 0.0
H2463 H 0.84702 0.35494 0.03098 0.0
Li2464 Li 0.67557 0.65429 0.66377 0.0
Li2465 Li 0.64108 0.65753 0.64599 0.0
Li2466 Li 0.65431 0.62202 0.66773 0.0
Li2467 Li 0.67259 0.63399 0.62996 0.0
C2468 C 0.64658 0.65881 0.69802 0.0
N2469 N 0.64415 0.67203 0.74006 0.0
C2470 C 0.63902 0.67914 0.7031 0.0
C2471 C 0.65311 0.64538 0.71451 0.0
C2472 C 0.63789 0.6855 0.72436 0.0
C2473 C 0.6517 0.65229 0.7356 0.0
C2474 C 0.66918 0.68464 0.62567 0.0
C2475 C 0.66757 0.70521 0.59332 0.0
N2476 N 0.66797 0.72345 0.60496 0.0
C2477 C 0.66936 0.70354 0.63738 0.0
C2478 C 0.6681 0.68556 0.60362 0.0
C2479 C 0.66883 0.72302 0.6266 0.0
C2480 C 0.71642 0.66285 0.67571 0.0
N2481 N 0.69599 0.66936 0.67751 0.0
C2482 C 0.70503 0.69547 0.70293 0.0
C2483 C 0.69029 0.68602 0.68987 0.0
C2484 C 0.7258 0.68781 0.70265 0.0
C2485 C 0.73178 0.67166 0.68872 0.0
H2486 H 0.72072 0.65063 0.66446 0.0
H2487 H 0.67443 0.69206 0.68951 0.0
C2488 C 0.60659 0.68786 0.65837 0.0
N2489 N 0.61821 0.68185 0.64105 0.0
C2490 C 0.59182 0.70482 0.65758 0.0
C2491 C 0.60015 0.70983 0.6208 0.0
C2492 C 0.6154 0.69309 0.62249 0.0
C2493 C 0.58747 0.71587 0.63841 0.0
H2494 H 0.60783 0.67875 0.67283 0.0
H2495 H 0.6244 0.68872 0.60856 0.0
C2496 C 0.70055 0.61408 0.66786 0.0
N2497 N 0.73415 0.59402 0.68755 0.0
C2498 C 0.71457 0.60171 0.65593 0.0
C2499 C 0.70362 0.61628 0.68978 0.0
C2500 C 0.73146 0.59168 0.66619 0.0
C2501 C 0.72069 0.60601 0.69945 0.0
C2502 C 0.64556 0.60515 0.62705 0.0
C2503 C 0.65561 0.58847 0.63785 0.0
C2504 C 0.64273 0.60353 0.60532 0.0
C2505 C 0.66194 0.57032 0.62667 0.0
C2506 C 0.64952 0.58542 0.59451 0.0
N2507 N 0.65872 0.56912 0.60532 0.0
C2508 C 0.62589 0.59991 0.69641 0.0
C2509 C 0.65949 0.58409 0.69922 0.0
C2510 C 0.61818 0.5867 0.71267 0.0
N2511 N 0.6463 0.59873 0.68983 0.0
C2512 C 0.65237 0.57055 0.716 0.0
C2513 C 0.6313 0.57174 0.72344 0.0
H2514 H 0.61542 0.61136 0.68904 0.0
H2515 H 0.67571 0.58285 0.69394 0.0
C2516 C 0.70285 0.64464 0.59651 0.0
N2517 N 0.69092 0.62768 0.60271 0.0
C2518 C 0.71466 0.64427 0.57751 0.0
C2519 C 0.70319 0.60865 0.57102 0.0
C2520 C 0.69304 0.60919 0.59128 0.0
C2521 C 0.71342 0.62689 0.56315 0.0
H2522 H 0.70338 0.65867 0.60642 0.0
H2523 H 0.68776 0.59455 0.59802 0.0
O2524 O 0.64707 0.65189 0.67723 0.0
O2525 O 0.6697 0.6652 0.63549 0.0
O2526 O 0.68429 0.62446 0.65792 0.0
O2527 O 0.64127 0.62402 0.63711 0.0
H2528 H 0.63515 0.69044 0.69078 0.0
H2529 H 0.65925 0.62978 0.71123 0.0
H2530 H 0.63226 0.70125 0.72837 0.0
H2531 H 0.65664 0.64193 0.74842 0.0
H2532 H 0.66673 0.70596 0.57613 0.0
H2533 H 0.66974 0.70326 0.65453 0.0
H2534 H 0.66744 0.671 0.59489 0.0
H2535 H 0.66903 0.73778 0.63544 0.0
H2536 H 0.70035 0.70858 0.71311 0.0
H2537 H 0.74803 0.66622 0.68777 0.0
H2538 H 0.58335 0.70859 0.67204 0.0
H2539 H 0.59788 0.71742 0.60551 0.0
H2540 H 0.71246 0.59997 0.63891 0.0
H2541 H 0.69321 0.62614 0.69916 0.0
H2542 H 0.74248 0.58208 0.65716 0.0
H2543 H 0.7233 0.60767 0.71639 0.0
H2544 H 0.65918 0.58957 0.65447 0.0
H2545 H 0.63602 0.61663 0.59703 0.0
H2546 H 0.66957 0.55732 0.63493 0.0
H2547 H 0.64892 0.58508 0.5774 0.0
H2548 H 0.60151 0.58818 0.71618 0.0
H2549 H 0.66333 0.55933 0.723 0.0
H2550 H 0.72409 0.65814 0.57368 0.0
H2551 H 0.70346 0.594 0.56196 0.0
Li2552 Li 0.3935 0.39446 0.4107 0.0
Li2553 Li 0.42826 0.38018 0.39267 0.0
Li2554 Li 0.42694 0.41315 0.41352 0.0
Li2555 Li 0.41054 0.41594 0.37701 0.0
C2556 C 0.42062 0.37944 0.444 0.0
N2557 N 0.42081 0.36992 0.48695 0.0
C2558 C 0.43036 0.36086 0.45128 0.0
C2559 C 0.41113 0.39325 0.45859 0.0
C2560 C 0.43027 0.35632 0.47305 0.0
C2561 C 0.41132 0.38814 0.48022 0.0
C2562 C 0.40473 0.37324 0.36067 0.0
C2563 C 0.41949 0.37263 0.32516 0.0
N2564 N 0.42646 0.35249 0.32848 0.0
C2565 C 0.41054 0.35204 0.36304 0.0
C2566 C 0.40916 0.38352 0.34149 0.0
C2567 C 0.42258 0.34224 0.3471 0.0
C2568 C 0.35915 0.40672 0.43998 0.0
N2569 N 0.36893 0.38916 0.4318 0.0
C2570 C 0.34728 0.36722 0.45518 0.0
C2571 C 0.3637 0.36959 0.43985 0.0
C2572 C 0.33633 0.38517 0.46312 0.0
C2573 C 0.34322 0.40514 0.45557 0.0
H2574 H 0.36316 0.4222 0.43408 0.0
H2575 H 0.37195 0.35564 0.43411 0.0
C2576 C 0.46859 0.35937 0.37998 0.0
N2577 N 0.44917 0.35552 0.38881 0.0
C2578 C 0.48352 0.34293 0.37713 0.0
C2579 C 0.45882 0.31847 0.39289 0.0
C2580 C 0.44462 0.3355 0.39605 0.0
C2581 C 0.47862 0.32199 0.38322 0.0
H2582 H 0.47274 0.37524 0.37512 0.0
H2583 H 0.42971 0.33252 0.40398 0.0
C2584 C 0.39063 0.44441 0.41188 0.0
N2585 N 0.37112 0.48167 0.42475 0.0
C2586 C 0.37852 0.45622 0.39751 0.0
C2587 C 0.39281 0.45163 0.43286 0.0
C2588 C 0.36878 0.47499 0.40429 0.0
C2589 C 0.38284 0.47048 0.43903 0.0
C2590 C 0.45703 0.41568 0.3737 0.0
C2591 C 0.47175 0.42994 0.38227 0.0
C2592 C 0.45924 0.40923 0.35252 0.0
C2593 C 0.48812 0.43772 0.36951 0.0
C2594 C 0.47584 0.41731 0.34025 0.0
N2595 N 0.4898 0.43132 0.34891 0.0
C2596 C 0.46056 0.41567 0.43965 0.0
C2597 C 0.44528 0.44874 0.4293 0.0
C2598 C 0.47847 0.42587 0.44728 0.0
N2599 N 0.44474 0.42727 0.43072 0.0
C2600 C 0.46277 0.45955 0.43673 0.0
C2601 C 0.47981 0.4479 0.44502 0.0
H2602 H 0.45997 0.39849 0.43938 0.0
H2603 H 0.43318 0.45724 0.42069 0.0
C2604 C 0.38982 0.439 0.34011 0.0
N2605 N 0.40792 0.43754 0.35195 0.0
C2606 C 0.3888 0.45205 0.32181 0.0
C2607 C 0.42438 0.46354 0.32845 0.0
C2608 C 0.42469 0.4504 0.34678 0.0
C2609 C 0.40645 0.46407 0.31523 0.0
H2610 H 0.37624 0.42954 0.34442 0.0
H2611 H 0.43868 0.45032 0.3566 0.0
O2612 O 0.42033 0.384 0.42269 0.0
O2613 O 0.39817 0.38473 0.378 0.0
O2614 O 0.39975 0.42567 0.40544 0.0
O2615 O 0.44022 0.40862 0.38564 0.0
H2616 H 0.43789 0.35005 0.44023 0.0
H2617 H 0.4036 0.40768 0.45324 0.0
H2618 H 0.43771 0.34197 0.4789 0.0
H2619 H 0.40391 0.39865 0.49165 0.0
H2620 H 0.42287 0.38055 0.31025 0.0
H2621 H 0.40687 0.34375 0.37763 0.0
H2622 H 0.40529 0.39996 0.33932 0.0
H2623 H 0.42918 0.32663 0.34964 0.0
H2624 H 0.34299 0.35138 0.4604 0.0
H2625 H 0.33617 0.41971 0.46137 0.0
H2626 H 0.49857 0.34648 0.36967 0.0
H2627 H 0.45435 0.30264 0.39802 0.0
H2628 H 0.37647 0.45085 0.38131 0.0
H2629 H 0.40203 0.4428 0.44431 0.0
H2630 H 0.35932 0.4842 0.39331 0.0
H2631 H 0.38438 0.47619 0.45521 0.0
H2632 H 0.4707 0.43507 0.39853 0.0
H2633 H 0.44835 0.39805 0.34562 0.0
H2634 H 0.49948 0.44886 0.376 0.0
H2635 H 0.47761 0.41245 0.32383 0.0
H2636 H 0.49137 0.41674 0.45404 0.0
H2637 H 0.46331 0.47673 0.43537 0.0
H2638 H 0.37438 0.45233 0.31248 0.0
H2639 H 0.43835 0.47262 0.32428 0.0
Li2640 Li 0.10506 0.60581 0.90901 0.0
Li2641 Li 0.07357 0.6194 0.88825 0.0
Li2642 Li 0.06996 0.58864 0.91021 0.0
Li2643 Li 0.09016 0.58397 0.87619 0.0
C2644 C 0.07871 0.62023 0.94115 0.0
N2645 N 0.07946 0.62486 0.98493 0.0
C2646 C 0.06981 0.63824 0.95069 0.0
C2647 C 0.08777 0.6045 0.95396 0.0
C2648 C 0.07038 0.6403 0.97283 0.0
C2649 C 0.0881 0.60716 0.97603 0.0
C2650 C 0.09896 0.62656 0.85964 0.0
C2651 C 0.08385 0.62994 0.82453 0.0
N2652 N 0.08047 0.65097 0.82811 0.0
C2653 C 0.09618 0.64834 0.86265 0.0
C2654 C 0.093 0.61737 0.84035 0.0
C2655 C 0.08634 0.66032 0.8467 0.0
C2656 C 0.1389 0.5932 0.93796 0.0
N2657 N 0.12928 0.61075 0.92962 0.0
C2658 C 0.15081 0.63292 0.95258 0.0
C2659 C 0.13456 0.63044 0.93724 0.0
C2660 C 0.16152 0.61495 0.96064 0.0
C2661 C 0.15476 0.5949 0.95344 0.0
H2662 H 0.13467 0.57764 0.9325 0.0
H2663 H 0.1264 0.64432 0.93123 0.0
C2664 C 0.03854 0.64341 0.86798 0.0
N2665 N 0.0549 0.64404 0.88215 0.0
C2666 C 0.02344 0.65994 0.86728 0.0
C2667 C 0.04229 0.67747 0.89556 0.0
C2668 C 0.05716 0.66097 0.89543 0.0
C2669 C 0.02482 0.67718 0.88162 0.0
H2670 H 0.0367 0.62975 0.85769 0.0
H2671 H 0.07024 0.66133 0.90651 0.0
C2672 C 0.10751 0.55675 0.91134 0.0
N2673 N 0.12942 0.52058 0.92331 0.0
C2674 C 0.12332 0.54844 0.89821 0.0
C2675 C 0.10309 0.5468 0.93079 0.0
C2676 C 0.13414 0.5301 0.90446 0.0
C2677 C 0.11427 0.52851 0.9365 0.0
C2678 C 0.04426 0.58377 0.86873 0.0
C2679 C 0.02706 0.57329 0.87805 0.0
C2680 C 0.04546 0.58516 0.84656 0.0
C2681 C 0.01164 0.56406 0.86505 0.0
C2682 C 0.02967 0.57587 0.8341 0.0
N2683 N 0.01325 0.56553 0.84352 0.0
C2684 C 0.0414 0.58407 0.94352 0.0
C2685 C 0.05188 0.55315 0.92433 0.0
C2686 C 0.0324 0.5717 0.95937 0.0
N2687 N 0.05198 0.57446 0.92735 0.0
C2688 C 0.04273 0.5402 0.93945 0.0
C2689 C 0.03385 0.54961 0.95756 0.0
H2690 H 0.04106 0.60119 0.9448 0.0
H2691 H 0.0602 0.5463 0.91093 0.0
C2692 C 0.11296 0.56099 0.8421 0.0
N2693 N 0.0954 0.56082 0.85468 0.0
C2694 C 0.11776 0.54368 0.82877 0.0
C2695 C 0.08612 0.52609 0.84084 0.0
C2696 C 0.08196 0.54378 0.85407 0.0
C2697 C 0.10453 0.52557 0.82823 0.0
H2698 H 0.12369 0.5743 0.84286 0.0
H2699 H 0.06823 0.54355 0.86437 0.0
O2700 O 0.07791 0.61776 0.91947 0.0
O2701 O 0.10434 0.61381 0.87642 0.0
O2702 O 0.09722 0.57509 0.90563 0.0
O2703 O 0.06011 0.59199 0.88118 0.0
H2704 H 0.06231 0.65042 0.94118 0.0
H2705 H 0.09434 0.5903 0.94695 0.0
H2706 H 0.06352 0.65414 0.98039 0.0
H2707 H 0.09513 0.5951 0.98607 0.0
H2708 H 0.07905 0.62288 0.80958 0.0
H2709 H 0.10001 0.65547 0.87781 0.0
H2710 H 0.09478 0.60052 0.8378 0.0
H2711 H 0.08244 0.67678 0.84943 0.0
H2712 H 0.15524 0.64876 0.95769 0.0
H2713 H 0.16197 0.58046 0.95942 0.0
H2714 H 0.01027 0.65862 0.85635 0.0
H2715 H 0.04424 0.69005 0.90702 0.0
H2716 H 0.12745 0.55626 0.88349 0.0
H2717 H 0.09145 0.55327 0.9416 0.0
H2718 H 0.14639 0.52353 0.89438 0.0
H2719 H 0.11101 0.52069 0.95149 0.0
H2720 H 0.02547 0.57231 0.89511 0.0
H2721 H 0.05848 0.59314 0.83894 0.0
H2722 H 0.99836 0.55576 0.87209 0.0
H2723 H 0.03052 0.57681 0.81692 0.0
H2724 H 0.02532 0.57914 0.9732 0.0
H2725 H 0.04403 0.52308 0.93785 0.0
H2726 H 0.13201 0.54436 0.81921 0.0
H2727 H 0.07548 0.51257 0.84122 0.0
Li2728 Li 0.32008 0.34711 0.37334 0.0
Li2729 Li 0.3527 0.32876 0.36122 0.0
Li2730 Li 0.33882 0.35998 0.33939 0.0
Li2731 Li 0.32002 0.32633 0.34081 0.0
C2732 C 0.34548 0.37933 0.38046 0.0
N2733 N 0.32774 0.41584 0.39745 0.0
C2734 C 0.33489 0.37863 0.39979 0.0
C2735 C 0.34881 0.39903 0.37081 0.0
C2736 C 0.32499 0.39693 0.40756 0.0
C2737 C 0.33978 0.41732 0.37959 0.0
C2738 C 0.3268 0.29458 0.37242 0.0
C2739 C 0.33932 0.26068 0.35956 0.0
N2740 N 0.33183 0.2512 0.37751 0.0
C2741 C 0.31918 0.2845 0.3907 0.0
C2742 C 0.33687 0.28258 0.35668 0.0
C2743 C 0.32187 0.26256 0.39299 0.0
C2744 C 0.28466 0.36865 0.39192 0.0
N2745 N 0.29889 0.35289 0.39568 0.0
C2746 C 0.28405 0.34737 0.4305 0.0
C2747 C 0.2985 0.34188 0.41441 0.0
C2748 C 0.26977 0.36418 0.42711 0.0
C2749 C 0.26995 0.37446 0.40731 0.0
H2750 H 0.28512 0.37743 0.37732 0.0
H2751 H 0.30999 0.32945 0.4172 0.0
C2752 C 0.38957 0.30672 0.35005 0.0
N2753 N 0.37722 0.31046 0.3673 0.0
C2754 C 0.40572 0.29174 0.35054 0.0
C2755 C 0.39679 0.28406 0.38696 0.0
C2756 C 0.3806 0.2995 0.38574 0.0
C2757 C 0.40946 0.27974 0.36897 0.0
H2758 H 0.38742 0.31573 0.33582 0.0
H2759 H 0.37028 0.30211 0.39923 0.0
C2760 C 0.2944 0.3688 0.33791 0.0
N2761 N 0.26646 0.39785 0.32046 0.0
C2762 C 0.27616 0.36179 0.32742 0.0
C2763 C 0.29818 0.39067 0.33981 0.0
C2764 C 0.26231 0.37669 0.31861 0.0
C2765 C 0.28392 0.40507 0.33085 0.0
C2766 C 0.35815 0.327 0.31135 0.0
C2767 C 0.37397 0.34053 0.30362 0.0
C2768 C 0.35393 0.30794 0.30063 0.0
C2769 C 0.38493 0.33506 0.2851 0.0
C2770 C 0.36524 0.30301 0.28217 0.0
N2771 N 0.38036 0.31657 0.27483 0.0
C2772 C 0.35983 0.3933 0.31534 0.0
C2773 C 0.32747 0.381 0.30112 0.0
C2774 C 0.36182 0.40802 0.29892 0.0
N2775 N 0.34245 0.38069 0.31677 0.0
C2776 C 0.32837 0.39606 0.28481 0.0
C2777 C 0.34553 0.41004 0.28403 0.0
H2778 H 0.37235 0.39152 0.3266 0.0
H2779 H 0.3147 0.3696 0.30123 0.0
C2780 C 0.28527 0.30268 0.33137 0.0
N2781 N 0.30204 0.31338 0.32334 0.0
C2782 C 0.26873 0.29723 0.31798 0.0
C2783 C 0.28724 0.31441 0.28875 0.0
C2784 C 0.30304 0.32002 0.30283 0.0
C2785 C 0.2701 0.30248 0.29626 0.0
H2786 H 0.2845 0.29912 0.3482 0.0
H2787 H 0.31588 0.33008 0.29757 0.0
O2788 O 0.35065 0.36078 0.37018 0.0
O2789 O 0.32504 0.31619 0.37041 0.0
O2790 O 0.30896 0.35445 0.34541 0.0
O2791 O 0.34788 0.33181 0.33003 0.0
H2792 H 0.33398 0.36384 0.40843 0.0
H2793 H 0.35776 0.40018 0.35645 0.0
H2794 H 0.31541 0.39614 0.42181 0.0
H2795 H 0.34185 0.43256 0.37187 0.0
H2796 H 0.34728 0.25125 0.34758 0.0
H2797 H 0.31138 0.29354 0.40307 0.0
H2798 H 0.34311 0.29015 0.34262 0.0
H2799 H 0.31611 0.25457 0.4071 0.0
H2800 H 0.28453 0.33911 0.44562 0.0
H2801 H 0.25901 0.38727 0.40381 0.0
H2802 H 0.41544 0.29005 0.33646 0.0
H2803 H 0.39875 0.27511 0.40155 0.0
H2804 H 0.27267 0.34505 0.32598 0.0
H2805 H 0.31217 0.39644 0.34779 0.0
H2806 H 0.24826 0.37143 0.31028 0.0
H2807 H 0.28682 0.422 0.33203 0.0
H2808 H 0.37822 0.35475 0.31221 0.0
H2809 H 0.34206 0.29698 0.30644 0.0
H2810 H 0.39723 0.34541 0.27904 0.0
H2811 H 0.36206 0.28836 0.27372 0.0
H2812 H 0.37604 0.41752 0.29764 0.0
H2813 H 0.31605 0.39658 0.27283 0.0
H2814 H 0.25549 0.28822 0.32425 0.0
H2815 H 0.28892 0.31854 0.27209 0.0
H2816 H 0.00814 0.00339 0.05309 0.0
H2817 H 0.01638 0.06723 0.02834 0.0
H2818 H 0.00376 0.05548 0.99322 0.0
H2819 H 0.03103 0.97944 0.01287 0.0
H2820 H 0.01447 0.95612 0.01135 0.0
H2821 H 0.01732 0.96997 0.0362 0.0
H2822 H 0.97674 0.97575 0.03937 0.0
H2823 H 0.97353 0.96045 0.01534 0.0
H2824 H 0.96238 0.98679 0.01717 0.0
H2825 H 0.99773 0.03539 0.95969 0.0
H2826 H 0.99033 0.00914 0.93122 0.0
H2827 H 0.98977 0.95863 0.97835 0.0
C2828 C 0.00604 0.01504 0.04055 0.0
C2829 C 0.01297 0.03602 0.04316 0.0
C2830 C 0.01065 0.05107 0.02654 0.0
C2831 C 0.00381 0.04451 0.0065 0.0
C2832 C 0.99933 0.02305 0.00376 0.0
C2833 C 0.99971 0.00866 0.02047 0.0
C2834 C 0.99689 0.98615 0.01299 0.0
C2835 C 0.01607 0.97212 0.0187 0.0
C2836 C 0.97614 0.97673 0.02172 0.0
C2837 C 0.99573 0.99005 0.98945 0.0
C2838 C 0.99704 0.01137 0.98436 0.0
C2839 C 0.99638 0.01864 0.96344 0.0
C2840 C 0.99262 0.0037 0.94742 0.0
C2841 C 0.98974 0.98201 0.95273 0.0
C2842 C 0.99244 0.97505 0.97379 0.0
H2843 H 0.29364 0.72584 0.24819 0.0
H2844 H 0.29636 0.75859 0.18745 0.0
H2845 H 0.28047 0.7901 0.20382 0.0
H2846 H 0.2499 0.73522 0.26229 0.0
H2847 H 0.2522 0.74173 0.29015 0.0
H2848 H 0.27212 0.72586 0.27776 0.0
H2849 H 0.30161 0.75228 0.28847 0.0
H2850 H 0.28191 0.7679 0.30219 0.0
H2851 H 0.29874 0.7802 0.28255 0.0
H2852 H 0.25203 0.80886 0.2207 0.0
H2853 H 0.22058 0.81978 0.24138 0.0
H2854 H 0.23858 0.77674 0.29205 0.0
C2855 C 0.29229 0.74007 0.23865 0.0
C2856 C 0.29533 0.73958 0.2165 0.0
C2857 C 0.29315 0.75841 0.20438 0.0
C2858 C 0.28459 0.77656 0.21362 0.0
C2859 C 0.27939 0.77576 0.23509 0.0
C2860 C 0.28425 0.75841 0.24784 0.0
C2861 C 0.2737 0.75986 0.26933 0.0
C2862 C 0.26124 0.73948 0.27515 0.0
C2863 C 0.28996 0.7654 0.28665 0.0
C2864 C 0.25931 0.77839 0.26507 0.0
C2865 C 0.26332 0.78787 0.2456 0.0
C2866 C 0.24945 0.80252 0.2365 0.0
C2867 C 0.23145 0.80819 0.24798 0.0
C2868 C 0.22771 0.79901 0.26807 0.0
C2869 C 0.24169 0.78409 0.27676 0.0
H2870 H 0.49859 0.95027 0.52997 0.0
H2871 H 0.43535 0.96282 0.50654 0.0
H2872 H 0.45022 0.97635 0.47303 0.0
H2873 H 0.51825 0.99318 0.51952 0.0
H2874 H 0.54442 0.98616 0.51048 0.0
H2875 H 0.53028 0.96838 0.52746 0.0
H2876 H 0.53325 0.93776 0.5001 0.0
H2877 H 0.54851 0.95517 0.48316 0.0
H2878 H 0.52527 0.94205 0.47288 0.0
H2879 H 0.47002 0.00097 0.45181 0.0
H2880 H 0.49449 0.02944 0.44024 0.0
H2881 H 0.54532 0.99998 0.47567 0.0
C2882 C 0.48794 0.95472 0.51723 0.0
C2883 C 0.46609 0.95619 0.52075 0.0
C2884 C 0.45233 0.96231 0.50413 0.0
C2885 C 0.4606 0.9696 0.48494 0.0
C2886 C 0.48252 0.97013 0.48269 0.0
C2887 C 0.49607 0.96208 0.49811 0.0
C2888 C 0.51868 0.96877 0.49435 0.0
C2889 C 0.52841 0.97979 0.5141 0.0
C2890 C 0.53222 0.9498 0.48718 0.0
C2891 C 0.51524 0.98411 0.47634 0.0
C2892 C 0.49444 0.98422 0.46933 0.0
C2893 C 0.48657 0.00029 0.45619 0.0
C2894 C 0.50033 0.01653 0.45005 0.0
C2895 C 0.52148 0.01625 0.45708 0.0
C2896 C 0.52918 0.99977 0.46983 0.0
H2897 H 0.27726 0.23384 0.79053 0.0
H2898 H 0.2601 0.17412 0.76082 0.0
H2899 H 0.24157 0.19362 0.73214 0.0
H2900 H 0.22882 0.26524 0.77388 0.0
H2901 H 0.24492 0.2886 0.76993 0.0
H2902 H 0.25188 0.26964 0.79023 0.0
H2903 H 0.28925 0.26698 0.77334 0.0
H2904 H 0.28201 0.28475 0.75213 0.0
H2905 H 0.29184 0.25853 0.74603 0.0
H2906 H 0.23099 0.21902 0.70437 0.0
H2907 H 0.22059 0.25 0.68249 0.0
H2908 H 0.24699 0.29262 0.72977 0.0
C2909 C 0.26845 0.22504 0.77861 0.0
C2910 C 0.26943 0.20281 0.77762 0.0
C2911 C 0.25877 0.19129 0.76166 0.0
C2912 C 0.24855 0.20219 0.74533 0.0
C2913 C 0.24942 0.2243 0.74564 0.0
C2914 C 0.25849 0.23565 0.76218 0.0
C2915 C 0.25909 0.25918 0.75778 0.0
C2916 C 0.24534 0.27138 0.7739 0.0
C2917 C 0.28191 0.26784 0.7573 0.0
C2918 C 0.24948 0.25918 0.73592 0.0
C2919 C 0.24412 0.23894 0.72916 0.0
C2920 C 0.23494 0.23499 0.70945 0.0
C2921 C 0.22958 0.2525 0.69697 0.0
C2922 C 0.23353 0.27325 0.70458 0.0
C2923 C 0.24447 0.27669 0.72365 0.0
H2924 H 0.01838 0.96436 0.47705 0.0
H2925 H 0.07095 0.00739 0.48796 0.0
H2926 H 0.05384 0.01996 0.52115 0.0
H2927 H 0.97908 0.99868 0.49092 0.0
H2928 H 0.96248 0.97852 0.50273 0.0
H2929 H 0.98098 0.97137 0.48236 0.0
H2930 H 0.99713 0.94335 0.50814 0.0
H2931 H 0.97913 0.95132 0.52896 0.0
H2932 H 0.0073 0.95171 0.53362 0.0
H2933 H 0.02919 0.03151 0.54828 0.0
H2934 H 0.99631 0.04571 0.5637 0.0
H2935 H 0.96087 0.99318 0.5373 0.0
C2936 C 0.02615 0.9766 0.48636 0.0
C2937 C 0.04559 0.98538 0.48009 0.0
C2938 C 0.05576 0.00091 0.49267 0.0
C2939 C 0.04644 0.00767 0.51164 0.0
C2940 C 0.0274 0.99824 0.51773 0.0
C2941 C 0.01728 0.98323 0.50529 0.0
C2942 C 0.99563 0.97773 0.51352 0.0
C2943 C 0.97856 0.98185 0.49639 0.0
C2944 C 0.99477 0.95465 0.52155 0.0
C2945 C 0.99439 0.99328 0.53169 0.0
C2946 C 0.01323 0.00439 0.53438 0.0
C2947 C 0.01464 0.02248 0.54707 0.0
C2948 C 0.99601 0.0304 0.55581 0.0
C2949 C 0.97665 0.02002 0.55177 0.0
C2950 C 0.97592 0.00059 0.54104 0.0
H2951 H 0.24573 0.7914 0.70495 0.0
H2952 H 0.30297 0.75673 0.69068 0.0
H2953 H 0.28791 0.72445 0.70652 0.0
H2954 H 0.24476 0.7795 0.75189 0.0
H2955 H 0.21696 0.776 0.75733 0.0
H2956 H 0.22508 0.7924 0.73555 0.0
H2957 H 0.20374 0.77002 0.70842 0.0
H2958 H 0.19403 0.75427 0.73036 0.0
H2959 H 0.20665 0.74149 0.70801 0.0
H2960 H 0.27419 0.70223 0.73485 0.0
H2961 H 0.25875 0.68863 0.76851 0.0
H2962 H 0.21229 0.73919 0.76757 0.0
C2963 C 0.25421 0.77647 0.70371 0.0
C2964 C 0.27522 0.77618 0.69672 0.0
C2965 C 0.28663 0.7569 0.69581 0.0
C2966 C 0.27819 0.73853 0.70487 0.0
C2967 C 0.25845 0.74001 0.71461 0.0
C2968 C 0.24621 0.75836 0.71351 0.0
C2969 C 0.22846 0.75802 0.72959 0.0
C2970 C 0.22889 0.77763 0.74445 0.0
C2971 C 0.20694 0.7558 0.71843 0.0
C2972 C 0.23411 0.73803 0.74137 0.0
C2973 C 0.25094 0.72743 0.73212 0.0
C2974 C 0.26051 0.70992 0.74179 0.0
C2975 C 0.25207 0.70262 0.761 0.0
C2976 C 0.23481 0.71334 0.7703 0.0
C2977 C 0.22573 0.73112 0.76052 0.0
H2978 H 0.49929 0.00996 0.94815 0.0
H2979 H 0.47352 0.06742 0.97584 0.0
H2980 H 0.48528 0.0559 0.01148 0.0
H2981 H 0.48036 0.97741 0.9832 0.0
H2982 H 0.50215 0.95902 0.98535 0.0
H2983 H 0.4985 0.974 0.96129 0.0
H2984 H 0.53617 0.99036 0.96373 0.0
H2985 H 0.5407 0.97404 0.98686 0.0
H2986 H 0.54472 0.0024 0.98832 0.0
H2987 H 0.49333 0.03503 0.04403 0.0
H2988 H 0.50373 0.00849 0.07135 0.0
H2989 H 0.52076 0.96409 0.02135 0.0
C2990 C 0.49744 0.02058 0.9616 0.0
C2991 C 0.48601 0.03946 0.95969 0.0
C2992 C 0.48286 0.05303 0.97736 0.0
C2993 C 0.48926 0.04656 0.99757 0.0
C2994 C 0.49885 0.02675 0.99933 0.0
C2995 C 0.50356 0.01426 0.98175 0.0
C2996 C 0.51135 0.99258 0.98797 0.0
C2997 C 0.49723 0.97473 0.97892 0.0
C2998 C 0.53462 0.98968 0.98134 0.0
C2999 C 0.50908 0.99439 0.01168 0.0
C3000 C 0.50218 0.01424 0.01803 0.0
C3001 C 0.49902 0.01949 0.03933 0.0
C3002 C 0.50453 0.00435 0.05463 0.0
C3003 C 0.51255 0.98442 0.04817 0.0
C3004 C 0.51405 0.9791 0.02655 0.0
H3005 H 0.26077 0.26126 0.29784 0.0
H3006 H 0.25193 0.31798 0.25941 0.0
H3007 H 0.23823 0.29554 0.2299 0.0
H3008 H 0.28066 0.22987 0.25817 0.0
H3009 H 0.26817 0.20576 0.26734 0.0
H3010 H 0.27483 0.22637 0.28605 0.0
H3011 H 0.23574 0.22869 0.29901 0.0
H3012 H 0.22919 0.2073 0.28117 0.0
H3013 H 0.2149 0.23207 0.27971 0.0
H3014 H 0.22661 0.26588 0.20478 0.0
H3015 H 0.21476 0.23216 0.18785 0.0
H3016 H 0.235 0.19688 0.24342 0.0
C3017 C 0.2551 0.26923 0.28365 0.0
C3018 C 0.25695 0.29126 0.28091 0.0
C3019 C 0.2503 0.30098 0.2617 0.0
C3020 C 0.24273 0.28842 0.24492 0.0
C3021 C 0.24223 0.26647 0.24791 0.0
C3022 C 0.24799 0.25712 0.26694 0.0
C3023 C 0.24702 0.23334 0.26632 0.0
C3024 C 0.26898 0.22327 0.26967 0.0
C3025 C 0.23074 0.22486 0.2825 0.0
C3026 C 0.23964 0.23056 0.24392 0.0
C3027 C 0.23694 0.24972 0.23337 0.0
C3028 C 0.22887 0.25079 0.21278 0.0
C3029 C 0.22246 0.23173 0.20326 0.0
C3030 C 0.2244 0.21237 0.21458 0.0
C3031 C 0.23382 0.21166 0.23459 0.0
H3032 H 0.4836 0.54202 0.024 0.0
H3033 H 0.50139 0.50251 0.07765 0.0
H3034 H 0.51541 0.47526 0.05282 0.0
H3035 H 0.46351 0.50126 0.99381 0.0
H3036 H 0.47217 0.51141 0.96843 0.0
H3037 H 0.46674 0.52951 0.98995 0.0
H3038 H 0.50465 0.54549 0.98773 0.0
H3039 H 0.50968 0.52844 0.96529 0.0
H3040 H 0.52717 0.52786 0.98795 0.0
H3041 H 0.52498 0.45194 0.0221 0.0
H3042 H 0.53473 0.43639 0.98722 0.0
H3043 H 0.50685 0.49043 0.95494 0.0
C3044 C 0.4914 0.5281 0.03051 0.0
C3045 C 0.492 0.52426 0.05247 0.0
C3046 C 0.50135 0.50557 0.06068 0.0
C3047 C 0.50901 0.49004 0.04678 0.0
C3048 C 0.50677 0.49366 0.02504 0.0
C3049 C 0.49855 0.51238 0.01698 0.0
C3050 C 0.49661 0.51199 0.99315 0.0
C3051 C 0.47337 0.51364 0.98594 0.0
C3052 C 0.51036 0.52947 0.98294 0.0
C3053 C 0.50528 0.49019 0.989 0.0
C3054 C 0.51091 0.47973 0.00754 0.0
C3055 C 0.52048 0.45981 0.00746 0.0
C3056 C 0.52564 0.451 0.98773 0.0
C3057 C 0.52107 0.46234 0.96886 0.0
C3058 C 0.50993 0.48151 0.96938 0.0
H3059 H 0.78485 0.2771 0.24145 0.0
H3060 H 0.73891 0.27989 0.19003 0.0
H3061 H 0.71054 0.27064 0.21538 0.0
H3062 H 0.76493 0.23024 0.26171 0.0
H3063 H 0.77185 0.23687 0.28875 0.0
H3064 H 0.78668 0.248 0.26717 0.0
H3065 H 0.77863 0.28566 0.28245 0.0
H3066 H 0.76259 0.2744 0.30336 0.0
H3067 H 0.75154 0.29411 0.2857 0.0
H3068 H 0.68855 0.25761 0.24441 0.0
H3069 H 0.67646 0.232 0.27143 0.0
H3070 H 0.73738 0.23615 0.30292 0.0
C3071 C 0.76886 0.27568 0.23538 0.0
C3072 C 0.76393 0.27941 0.21392 0.0
C3073 C 0.74283 0.27747 0.20663 0.0
C3074 C 0.72665 0.27254 0.22092 0.0
C3075 C 0.73203 0.26961 0.2422 0.0
C3076 C 0.75274 0.27043 0.2492 0.0
C3077 C 0.75521 0.26242 0.27156 0.0
C3078 C 0.77053 0.24325 0.27232 0.0
C3079 C 0.76241 0.28023 0.28665 0.0
C3080 C 0.73265 0.25603 0.27583 0.0
C3081 C 0.71934 0.26116 0.25905 0.0
C3082 C 0.69861 0.25382 0.25783 0.0
C3083 C 0.69193 0.23928 0.27314 0.0
C3084 C 0.70629 0.23207 0.28881 0.0
C3085 C 0.72608 0.24183 0.29127 0.0
H3086 H 0.04331 0.50128 0.52905 0.0
H3087 H 0.04558 0.43856 0.50036 0.0
H3088 H 0.02588 0.45214 0.4693 0.0
H3089 H 0.99481 0.50874 0.52161 0.0
H3090 H 0.99462 0.53682 0.51581 0.0
H3091 H 0.01561 0.5258 0.53144 0.0
H3092 H 0.04416 0.5397 0.50526 0.0
H3093 H 0.02337 0.55217 0.49009 0.0
H3094 H 0.04164 0.53431 0.47718 0.0
H3095 H 0.99791 0.4693 0.44773 0.0
H3096 H 0.96797 0.49114 0.43405 0.0
H3097 H 0.98385 0.54103 0.4788 0.0
C3098 C 0.04099 0.49071 0.51564 0.0
C3099 C 0.04566 0.46898 0.51699 0.0
C3100 C 0.04173 0.45534 0.49952 0.0
C3101 C 0.03076 0.46292 0.48181 0.0
C3102 C 0.02442 0.48411 0.48195 0.0
C3103 C 0.02994 0.49799 0.49819 0.0
C3104 C 0.01785 0.51854 0.49719 0.0
C3105 C 0.00498 0.52267 0.51771 0.0
C3106 C 0.03264 0.53729 0.49211 0.0
C3107 C 0.00368 0.51348 0.47881 0.0
C3108 C 0.00781 0.49382 0.46986 0.0
C3109 C 0.99494 0.48502 0.45409 0.0
C3110 C 0.97788 0.49716 0.44677 0.0
C3111 C 0.97408 0.51733 0.45575 0.0
C3112 C 0.98684 0.52549 0.47193 0.0
H3113 H 0.78076 0.73919 0.28868 0.0
H3114 H 0.77111 0.67651 0.26154 0.0
H3115 H 0.75704 0.69294 0.22852 0.0
H3116 H 0.73443 0.76107 0.27034 0.0
H3117 H 0.74551 0.78712 0.26578 0.0
H3118 H 0.75677 0.77012 0.28574 0.0
H3119 H 0.79361 0.77337 0.26751 0.0
H3120 H 0.78234 0.7903 0.24734 0.0
H3121 H 0.79638 0.7665 0.23978 0.0
H3122 H 0.74134 0.71596 0.20096 0.0
H3123 H 0.72193 0.74424 0.18158 0.0
H3124 H 0.74418 0.79102 0.22704 0.0
C3125 C 0.7758 0.72904 0.27564 0.0
C3126 C 0.77675 0.70692 0.27711 0.0
C3127 C 0.77005 0.69367 0.26028 0.0
C3128 C 0.76252 0.70279 0.24154 0.0
C3129 C 0.76223 0.72489 0.24035 0.0
C3130 C 0.76855 0.73778 0.25703 0.0
C3131 C 0.76466 0.76088 0.25293 0.0
C3132 C 0.74943 0.77033 0.26967 0.0
C3133 C 0.7855 0.77349 0.25182 0.0
C3134 C 0.75452 0.75899 0.23151 0.0
C3135 C 0.75353 0.73819 0.22428 0.0
C3136 C 0.74247 0.73238 0.20603 0.0
C3137 C 0.73159 0.74833 0.19523 0.0
C3138 C 0.73205 0.76931 0.20316 0.0
C3139 C 0.74412 0.7749 0.22086 0.0
H3140 H 0.8012 0.2264 0.75447 0.0
H3141 H 0.80266 0.25403 0.6913 0.0
H3142 H 0.78523 0.28638 0.70511 0.0
H3143 H 0.75201 0.2378 0.76138 0.0
H3144 H 0.75281 0.24213 0.78971 0.0
H3145 H 0.77197 0.22513 0.77749 0.0
H3146 H 0.80286 0.24785 0.79257 0.0
H3147 H 0.78375 0.26463 0.80568 0.0
H3148 H 0.80323 0.27622 0.78817 0.0
H3149 H 0.75885 0.30923 0.72274 0.0
H3150 H 0.72885 0.32295 0.7444 0.0
H3151 H 0.74543 0.27922 0.79497 0.0
C3152 C 0.79921 0.23983 0.74385 0.0
C3153 C 0.80326 0.2381 0.72207 0.0
C3154 C 0.79951 0.2554 0.7082 0.0
C3155 C 0.78981 0.27378 0.7159 0.0
C3156 C 0.78436 0.27431 0.73736 0.0
C3157 C 0.78924 0.25782 0.75119 0.0
C3158 C 0.77753 0.25935 0.77187 0.0
C3159 C 0.76273 0.23999 0.77527 0.0
C3160 C 0.79277 0.26221 0.79068 0.0
C3161 C 0.76516 0.27914 0.76751 0.0
C3162 C 0.76909 0.28765 0.7476 0.0
C3163 C 0.75632 0.30348 0.73877 0.0
C3164 C 0.73933 0.31096 0.75091 0.0
C3165 C 0.73575 0.30242 0.77134 0.0
C3166 C 0.74878 0.28657 0.77971 0.0
H3167 H 0.77109 0.79005 0.75347 0.0
H3168 H 0.7944 0.7514 0.80558 0.0
H3169 H 0.7847 0.71868 0.78573 0.0
H3170 H 0.72668 0.75943 0.74402 0.0
H3171 H 0.72683 0.76354 0.71563 0.0
H3172 H 0.738 0.78333 0.73295 0.0
H3173 H 0.77382 0.78115 0.71267 0.0
H3174 H 0.76268 0.76142 0.69512 0.0
H3175 H 0.78668 0.75572 0.70957 0.0
H3176 H 0.76952 0.69106 0.76149 0.0
H3177 H 0.74824 0.67059 0.73527 0.0
H3178 H 0.73641 0.72846 0.69977 0.0
C3179 C 0.77451 0.77466 0.76045 0.0
C3180 C 0.78344 0.77282 0.78068 0.0
C3181 C 0.78736 0.7527 0.78991 0.0
C3182 C 0.78217 0.73421 0.77875 0.0
C3183 C 0.77331 0.73656 0.75861 0.0
C3184 C 0.76946 0.7563 0.74965 0.0
C3185 C 0.7578 0.75487 0.72897 0.0
C3186 C 0.73605 0.76592 0.73049 0.0
C3187 C 0.77106 0.76382 0.7105 0.0
C3188 C 0.75568 0.73117 0.72757 0.0
C3189 C 0.76474 0.72076 0.74471 0.0
C3190 C 0.76283 0.69889 0.7477 0.0
C3191 C 0.75092 0.68745 0.73285 0.0
C3192 C 0.74134 0.69825 0.71571 0.0
C3193 C 0.74416 0.72008 0.71269 0.0
H3194 H 0.49322 0.4485 0.48522 0.0
H3195 H 0.50473 0.47463 0.42251 0.0
H3196 H 0.51941 0.50715 0.43861 0.0
H3197 H 0.47245 0.48955 0.50616 0.0
H3198 H 0.4838 0.48919 0.53248 0.0
H3199 H 0.48137 0.46484 0.5177 0.0
H3200 H 0.52159 0.45721 0.52019 0.0
H3201 H 0.52396 0.48049 0.53676 0.0
H3202 H 0.54023 0.47784 0.51333 0.0
H3203 H 0.52241 0.53919 0.46019 0.0
H3204 H 0.52745 0.56635 0.48815 0.0
H3205 H 0.51243 0.51965 0.53657 0.0
C3206 C 0.50041 0.4604 0.47503 0.0
C3207 C 0.49792 0.45957 0.45288 0.0
C3208 C 0.50682 0.47536 0.43963 0.0
C3209 C 0.51486 0.49389 0.44861 0.0
C3210 C 0.51429 0.49564 0.47064 0.0
C3211 C 0.50838 0.47898 0.4838 0.0
C3212 C 0.50702 0.48581 0.50677 0.0
C3213 C 0.48484 0.48212 0.5163 0.0
C3214 C 0.52424 0.4747 0.52005 0.0
C3215 C 0.51153 0.50916 0.50413 0.0
C3216 C 0.51564 0.51448 0.48319 0.0
C3217 C 0.51972 0.53523 0.47673 0.0
C3218 C 0.52189 0.55062 0.49251 0.0
C3219 C 0.51998 0.54479 0.5141 0.0
C3220 C 0.51337 0.52433 0.51998 0.0
H3221 H 0.00617 0.51738 0.95713 0.0
H3222 H 0.05106 0.55105 0.99698 0.0
H3223 H 0.04811 0.5228 0.02433 0.0
H3224 H 0.97253 0.50077 0.99894 0.0
H3225 H 0.96636 0.47594 0.98598 0.0
H3226 H 0.97348 0.49874 0.97034 0.0
H3227 H 0.0032 0.47608 0.95276 0.0
H3228 H 0.99682 0.45362 0.9694 0.0
H3229 H 0.02337 0.4642 0.96921 0.0
H3230 H 0.03833 0.4929 0.04758 0.0
H3231 H 0.01694 0.46719 0.06819 0.0
H3232 H 0.98118 0.45156 0.01162 0.0
C3233 C 0.01516 0.51878 0.97176 0.0
C3234 C 0.0287 0.53602 0.97533 0.0
C3235 C 0.04035 0.53781 0.99443 0.0
C3236 C 0.03915 0.52173 0.00969 0.0
C3237 C 0.02642 0.50421 0.0052 0.0
C3238 C 0.01429 0.50292 0.98692 0.0
C3239 C 1.00032 0.48362 0.98667 0.0
C3240 C 0.9768 0.49016 0.98544 0.0
C3241 C 0.00631 0.46848 0.96842 0.0
C3242 C 0.00605 0.47443 0.00802 0.0
C3243 C 0.02147 0.48629 0.01832 0.0
C3244 C 0.02674 0.48303 0.0396 0.0
C3245 C 0.01474 0.46838 0.05112 0.0
C3246 C 0.99804 0.45751 0.04103 0.0
C3247 C 0.99457 0.45935 0.01911 0.0
H3248 H 0.11837 0.00747 0.18181 0.0
H3249 H 0.17165 0.05455 0.21166 0.0
H3250 H 0.16098 0.04645 0.25356 0.0
H3251 H 0.072 0.99177 0.22128 0.0
H3252 H 0.07524 0.96466 0.21251 0.0
H3253 H 0.08021 0.98633 0.19434 0.0
H3254 H 0.11756 0.97107 0.18709 0.0
H3255 H 0.11269 0.94989 0.20526 0.0
H3256 H 0.13534 0.96683 0.20915 0.0
H3257 H 0.104 0.00506 0.2863 0.0
H3258 H 0.09955 0.97026 0.30188 0.0
H3259 H 0.10595 0.94092 0.24034 0.0
C3260 C 0.12523 0.01406 0.19595 0.0
C3261 C 0.14566 0.03174 0.19382 0.0
C3262 C 0.15887 0.04353 0.21479 0.0
C3263 C 0.15125 0.0393 0.24105 0.0
C3264 C 0.11963 0.01211 0.24191 0.0
C3265 C 0.11325 0.0043 0.21747 0.0
C3266 C 0.10503 0.98153 0.21814 0.0
C3267 C 0.08174 0.98105 0.21116 0.0
C3268 C 0.11848 0.96653 0.20413 0.0
C3269 C 0.10691 0.97567 0.24156 0.0
C3270 C 0.11078 0.99327 0.25461 0.0
C3271 C 0.10554 0.99125 0.2762 0.0
C3272 C 0.10311 0.97082 0.28519 0.0
C3273 C 0.10614 0.95205 0.27293 0.0
C3274 C 0.10589 0.95478 0.25052 0.0
H3275 H 0.31249 0.85632 0.50537 0.0
H3276 H 0.32875 0.92309 0.49839 0.0
H3277 H 0.30361 0.92623 0.46875 0.0
H3278 H 0.3059 0.84601 0.44791 0.0
H3279 H 0.28382 0.82814 0.45137 0.0
H3280 H 0.30355 0.83058 0.47198 0.0
H3281 H 0.2743 0.83944 0.49893 0.0
H3282 H 0.25419 0.83793 0.47861 0.0
H3283 H 0.25715 0.86174 0.49428 0.0
H3284 H 0.27829 0.92244 0.43884 0.0
H3285 H 0.2526 0.91297 0.41176 0.0
H3286 H 0.2485 0.849 0.43828 0.0
C3287 C 0.31086 0.87154 0.49748 0.0
C3288 C 0.32275 0.88952 0.50455 0.0
C3289 C 0.31983 0.90913 0.49372 0.0
C3290 C 0.30558 0.91108 0.47668 0.0
C3291 C 0.29404 0.8933 0.47029 0.0
C3292 C 0.29638 0.87387 0.48029 0.0
C3293 C 0.2816 0.85748 0.47002 0.0
C3294 C 0.29449 0.83948 0.45971 0.0
C3295 C 0.26586 0.84861 0.48642 0.0
C3296 C 0.27042 0.87092 0.45302 0.0
C3297 C 0.27827 0.8914 0.45339 0.0
C3298 C 0.27166 0.90656 0.43871 0.0
C3299 C 0.25654 0.90091 0.42332 0.0
C3300 C 0.24726 0.88024 0.42261 0.0
C3301 C 0.2547 0.86502 0.4379 0.0
H3302 H 0.38435 0.06627 0.75291 0.0
H3303 H 0.40971 0.03234 0.80675 0.0
H3304 H 0.39626 0.00537 0.768 0.0
H3305 H 0.35154 0.05322 0.73134 0.0
H3306 H 0.34833 0.04442 0.70303 0.0
H3307 H 0.36409 0.0655 0.71205 0.0
H3308 H 0.40166 0.0582 0.71162 0.0
H3309 H 0.3863 0.05032 0.68865 0.0
H3310 H 0.40664 0.03461 0.69616 0.0
H3311 H 0.36404 0.93362 0.75018 0.0
H3312 H 0.35505 0.94556 0.72616 0.0
H3313 H 0.35422 0.00306 0.68127 0.0
C3314 C 0.38856 0.05134 0.76038 0.0
C3315 C 0.39446 0.05056 0.78192 0.0
C3316 C 0.40283 0.03125 0.79105 0.0
C3317 C 0.40222 0.01024 0.78195 0.0
C3318 C 0.3926 0.00804 0.76088 0.0
C3319 C 0.38562 0.03292 0.74893 0.0
C3320 C 0.37804 0.03258 0.71926 0.0
C3321 C 0.35918 0.04893 0.71617 0.0
C3322 C 0.3941 0.04445 0.70346 0.0
C3323 C 0.37819 0.00285 0.71058 0.0
C3324 C 0.38955 0.98379 0.73956 0.0
C3325 C 0.36454 0.94741 0.73664 0.0
C3326 C 0.34714 0.94793 0.71336 0.0
C3327 C 0.34737 0.9675 0.69384 0.0
C3328 C 0.35902 0.99253 0.69401 0.0
H3329 H 0.24397 0.11011 0.92539 0.0
H3330 H 0.27087 0.17013 0.94671 0.0
H3331 H 0.24581 0.17079 0.97655 0.0
H3332 H 0.19078 0.11953 0.93787 0.0
H3333 H 0.18527 0.09333 0.94818 0.0
H3334 H 0.20582 0.09696 0.92866 0.0
H3335 H 0.233 0.07926 0.95392 0.0
H3336 H 0.21249 0.07542 0.97352 0.0
H3337 H 0.23635 0.08953 0.9805 0.0
H3338 H 0.21607 0.16633 0.00321 0.0
H3339 H 0.18575 0.15577 0.02565 0.0
H3340 H 0.17896 0.09771 0.98885 0.0
C3341 C 0.24488 0.12332 0.93637 0.0
C3342 C 0.25932 0.1404 0.93292 0.0
C3343 C 0.25963 0.15721 0.9481 0.0
C3344 C 0.24553 0.15764 0.96542 0.0
C3345 C 0.23125 0.14093 0.96795 0.0
C3346 C 0.23107 0.12387 0.95408 0.0
C3347 C 0.21425 0.10779 0.96071 0.0
C3348 C 0.19807 0.1042 0.94278 0.0
C3349 C 0.22464 0.08675 0.96756 0.0
C3350 C 0.20426 0.11903 0.97971 0.0
C3351 C 0.21452 0.13803 0.98375 0.0
C3352 C 0.20797 0.15145 1.00018 0.0
C3353 C 0.19052 0.14539 0.01275 0.0
C3354 C 0.1796 0.126 0.00902 0.0
C3355 C 0.18685 0.11262 0.99228 0.0
H3356 H 0.15855 0.00061 0.21293 0.0
H3357 H 0.10548 0.06248 0.25072 0.0
H3358 H 0.12062 0.04365 0.28517 0.0
H3359 H 0.14727 0.96018 0.25008 0.0
H3360 H 0.17321 0.95157 0.25866 0.0
H3361 H 0.16995 0.96577 0.23408 0.0
H3362 H 0.19712 0.9927 0.24628 0.0
H3363 H 0.20009 0.97912 0.27142 0.0
H3364 H 0.19343 0.00697 0.27086 0.0
H3365 H 0.13262 0.02427 0.31441 0.0
H3366 H 0.13246 0.99632 0.34136 0.0
H3367 H 0.16532 0.95413 0.29807 0.0
C3368 C 0.14947 0.00898 0.22515 0.0
C3369 C 0.12213 0.04112 0.22308 0.0
C3370 C 0.11564 0.04881 0.24844 0.0
C3371 C 0.1262 0.03737 0.27018 0.0
C3372 C 0.14385 0.0172 0.27147 0.0
C3373 C 0.15488 0.00342 0.25176 0.0
C3374 C 0.16721 0.98556 0.26253 0.0
C3375 C 0.16415 0.96448 0.25074 0.0
C3376 C 0.19085 0.99143 0.26277 0.0
C3377 C 0.15853 0.98595 0.28586 0.0
C3378 C 0.14865 0.00523 0.29074 0.0
C3379 C 0.14039 0.00934 0.31095 0.0
C3380 C 0.1403 0.99327 0.32632 0.0
C3381 C 0.14822 0.97284 0.32179 0.0
C3382 C 0.1584 0.96944 0.30161 0.0
H3383 H 0.23244 0.85802 0.58745 0.0
H3384 H 0.28487 0.89067 0.55698 0.0
H3385 H 0.26369 0.89445 0.5242 0.0
H3386 H 0.2136 0.82969 0.53988 0.0
H3387 H 0.18598 0.83279 0.5464 0.0
H3388 H 0.20547 0.83157 0.56733 0.0
H3389 H 0.1922 0.86765 0.58205 0.0
H3390 H 0.17268 0.86895 0.56118 0.0
H3391 H 0.19126 0.89045 0.56466 0.0
H3392 H 0.23672 0.89582 0.49489 0.0
H3393 H 0.20592 0.89503 0.47108 0.0
H3394 H 0.16925 0.86273 0.51984 0.0
C3395 C 0.23948 0.86587 0.57384 0.0
C3396 C 0.26042 0.87423 0.57503 0.0
C3397 C 0.26886 0.88445 0.55676 0.0
C3398 C 0.25695 0.88657 0.53795 0.0
C3399 C 0.23635 0.87852 0.53742 0.0
C3400 C 0.2276 0.86838 0.55485 0.0
C3401 C 0.20477 0.86184 0.55006 0.0
C3402 C 0.20232 0.83753 0.55097 0.0
C3403 C 0.18931 0.87288 0.5654 0.0
C3404 C 0.20204 0.87004 0.52733 0.0
C3405 C 0.22059 0.87947 0.52042 0.0
C3406 C 0.22213 0.8885 0.50022 0.0
C3407 C 0.20436 0.88811 0.48679 0.0
C3408 C 0.1848 0.87915 0.49349 0.0
C3409 C 0.18386 0.86964 0.51406 0.0
H3410 H 0.35232 0.04118 0.77587 0.0
H3411 H 0.34603 0.99631 0.82771 0.0
H3412 H 0.34656 0.96725 0.8018 0.0
H3413 H 0.32552 0.00377 0.73701 0.0
H3414 H 0.33665 0.01553 0.71533 0.0
H3415 H 0.33268 0.02911 0.74051 0.0
H3416 H 0.41653 0.02782 0.73021 0.0
H3417 H 0.41385 0.00601 0.71268 0.0
H3418 H 0.4206 0.00352 0.7372 0.0
H3419 H 0.38382 0.95856 0.78496 0.0
H3420 H 0.41093 0.93874 0.75897 0.0
H3421 H 0.37048 0.97202 0.71726 0.0
C3422 C 0.35128 0.02517 0.78157 0.0
C3423 C 0.35019 0.02124 0.80423 0.0
C3424 C 0.34677 0.00016 0.8109 0.0
C3425 C 0.34695 0.98357 0.79628 0.0
C3426 C 0.35017 0.98815 0.77484 0.0
C3427 C 0.35283 0.00767 0.7667 0.0
C3428 C 0.36112 0.00604 0.74158 0.0
C3429 C 0.33888 0.01464 0.73262 0.0
C3430 C 0.40769 0.01236 0.72831 0.0
C3431 C 0.35625 0.98139 0.73273 0.0
C3432 C 0.35971 0.97494 0.75998 0.0
C3433 C 0.38129 0.96051 0.76805 0.0
C3434 C 0.39948 0.9491 0.75147 0.0
C3435 C 0.39959 0.94981 0.72438 0.0
C3436 C 0.38192 0.96485 0.71123 0.0
H3437 H 0.32242 0.09069 0.00839 0.0
H3438 H 0.31739 0.1503 0.97399 0.0
H3439 H 0.28811 0.1614 0.99762 0.0
H3440 H 0.26587 0.08393 0.0186 0.0
H3441 H 0.26968 0.07309 0.04488 0.0
H3442 H 0.28969 0.0694 0.02476 0.0
H3443 H 0.31772 0.0864 0.04964 0.0
H3444 H 0.29782 0.0901 0.06984 0.0
H3445 H 0.313 0.11253 0.06049 0.0
H3446 H 0.25873 0.1659 0.025 0.0
H3447 H 0.23357 0.16462 0.05481 0.0
H3448 H 0.25876 0.10306 0.07351 0.0
C3449 C 0.3151 0.10605 0.00579 0.0
C3450 C 0.32242 0.11964 0.98927 0.0
C3451 C 0.31239 0.13967 0.9866 0.0
C3452 C 0.29559 0.14608 0.99991 0.0
C3453 C 0.28891 0.13242 0.01612 0.0
C3454 C 0.29844 0.11287 0.01921 0.0
C3455 C 0.28861 0.10152 0.03824 0.0
C3456 C 0.27782 0.08075 0.0312 0.0
C3457 C 0.30528 0.09739 0.05558 0.0
C3458 C 0.2723 0.11781 0.04557 0.0
C3459 C 0.27255 0.13538 0.03237 0.0
C3460 C 0.25869 0.15233 0.0356 0.0
C3461 C 0.24448 0.1515 0.05287 0.0
C3462 C 0.24416 0.13396 0.06723 0.0
C3463 C 0.2583 0.11678 0.06314 0.0
H3464 H 0.92453 0.24188 0.10982 0.0
H3465 H 0.95765 0.2809 0.15617 0.0
H3466 H 0.98746 0.25575 0.15581 0.0
H3467 H 0.94091 0.19125 0.12918 0.0
H3468 H 0.94468 0.17938 0.10333 0.0
H3469 H 0.92587 0.20065 0.10667 0.0
H3470 H 0.94477 0.22238 0.07721 0.0
H3471 H 0.96358 0.2011 0.07371 0.0
H3472 H 0.97274 0.22766 0.0795 0.0
H3473 H 0.01338 0.22518 0.15212 0.0
H3474 H 0.03384 0.19268 0.14376 0.0
H3475 H 0.98587 0.17387 0.09812 0.0
C3476 C 0.93812 0.24533 0.11973 0.0
C3477 C 0.93818 0.26341 0.13342 0.0
C3478 C 0.95656 0.26702 0.14602 0.0
C3479 C 0.97381 0.25285 0.1458 0.0
C3480 C 0.97296 0.235 0.13265 0.0
C3481 C 0.95574 0.23133 0.11958 0.0
C3482 C 0.95904 0.21091 0.10684 0.0
C3483 C 0.94158 0.19458 0.11181 0.0
C3484 C 0.96009 0.21581 0.08289 0.0
C3485 C 0.98049 0.20344 0.11515 0.0
C3486 C 0.9882 0.21763 0.13007 0.0
C3487 C 0.00743 0.214 0.14046 0.0
C3488 C 0.01894 0.1954 0.13567 0.0
C3489 C 0.0115 0.18054 0.1204 0.0
C3490 C 0.99206 0.18487 0.10985 0.0
H3491 H 0.49678 0.32316 0.85624 0.0
H3492 H 0.52214 0.30799 0.91881 0.0
H3493 H 0.49795 0.27773 0.92133 0.0
H3494 H 0.44363 0.30928 0.86455 0.0
H3495 H 0.43967 0.29626 0.83929 0.0
H3496 H 0.45933 0.31687 0.8418 0.0
H3497 H 0.48818 0.29111 0.82781 0.0
H3498 H 0.46854 0.27045 0.82509 0.0
H3499 H 0.49197 0.26582 0.84079 0.0
H3500 H 0.46909 0.25005 0.91863 0.0
H3501 H 0.43992 0.22559 0.90934 0.0
H3502 H 0.43448 0.25587 0.84751 0.0
C3503 C 0.49756 0.31347 0.87044 0.0
C3504 C 0.51125 0.31902 0.88765 0.0
C3505 C 0.51141 0.30527 0.90569 0.0
C3506 C 0.4978 0.28762 0.90723 0.0
C3507 C 0.48423 0.28309 0.89037 0.0
C3508 C 0.48431 0.29531 0.87209 0.0
C3509 C 0.46841 0.28641 0.85609 0.0
C3510 C 0.45178 0.30321 0.85008 0.0
C3511 C 0.47996 0.27796 0.83626 0.0
C3512 C 0.45858 0.26816 0.86874 0.0
C3513 C 0.46817 0.26643 0.88841 0.0
C3514 C 0.46156 0.25122 0.9032 0.0
C3515 C 0.44477 0.23746 0.89783 0.0
C3516 C 0.43456 0.23874 0.87776 0.0
C3517 C 0.44186 0.2543 0.86298 0.0
H3518 H 0.01163 0.68026 0.3592 0.0
H3519 H 0.98535 0.69951 0.42023 0.0
H3520 H 0.0094 0.7301 0.42098 0.0
H3521 H 0.06448 0.69459 0.36782 0.0
H3522 H 0.0691 0.70557 0.34171 0.0
H3523 H 0.04938 0.6852 0.34534 0.0
H3524 H 0.02091 0.70967 0.3286 0.0
H3525 H 0.04059 0.73012 0.32476 0.0
H3526 H 0.01674 0.7359 0.33943 0.0
H3527 H 0.03776 0.75751 0.4166 0.0
H3528 H 0.06684 0.7814 0.40598 0.0
H3529 H 0.07386 0.74639 0.3468 0.0
C3530 C 0.01063 0.69099 0.37263 0.0
C3531 C 0.99679 0.68676 0.38997 0.0
C3532 C 0.99625 0.70155 0.4071 0.0
C3533 C 0.0097 0.7193 0.40758 0.0
C3534 C 0.0234 0.72263 0.39056 0.0
C3535 C 0.02373 0.70916 0.3732 0.0
C3536 C 0.03993 0.71668 0.35691 0.0
C3537 C 0.05671 0.69948 0.35271 0.0
C3538 C 0.02888 0.72349 0.33619 0.0
C3539 C 0.04935 0.73581 0.36836 0.0
C3540 C 0.03938 0.73903 0.38767 0.0
C3541 C 0.04556 0.75526 0.40143 0.0
C3542 C 0.06231 0.76862 0.39534 0.0
C3543 C 0.07292 0.76575 0.37563 0.0
C3544 C 0.0661 0.74914 0.36192 0.0
H3545 H 0.00368 0.30574 0.09328 0.0
H3546 H 0.98935 0.31978 0.15959 0.0
H3547 H 0.01606 0.29411 0.17079 0.0
H3548 H 0.0101 0.24804 0.10304 0.0
H3549 H 0.03095 0.24485 0.08374 0.0
H3550 H 0.01103 0.26506 0.08 0.0
H3551 H 0.04006 0.29386 0.07725 0.0
H3552 H 0.06019 0.27389 0.0809 0.0
H3553 H 0.05917 0.29661 0.09839 0.0
H3554 H 0.04597 0.26943 0.17558 0.0
H3555 H 0.07417 0.24295 0.17413 0.0
H3556 H 0.06744 0.23927 0.10533 0.0
C3557 C 0.00591 0.30338 0.11018 0.0
C3558 C 0.99456 0.31588 0.12541 0.0
C3559 C 0.99825 0.31168 0.14733 0.0
C3560 C 0.01335 0.29676 0.15399 0.0
C3561 C 0.02452 0.28534 0.1387 0.0
C3562 C 0.02072 0.28796 0.11726 0.0
C3563 C 0.03463 0.27268 0.1044 0.0
C3564 C 0.02086 0.25671 0.09206 0.0
C3565 C 0.04939 0.285 0.08934 0.0
C3566 C 0.04715 0.26159 0.12206 0.0
C3567 C 0.04095 0.2694 0.14164 0.0
C3568 C 0.05056 0.26276 0.16039 0.0
C3569 C 0.0666 0.24741 0.15935 0.0
C3570 C 0.07293 0.23811 0.13972 0.0
C3571 C 0.0631 0.2457 0.1207 0.0
H3572 H 0.58064 0.75145 0.61053 0.0
H3573 H 0.55044 0.7169 0.66222 0.0
H3574 H 0.52141 0.74263 0.66227 0.0
H3575 H 0.56549 0.80449 0.62665 0.0
H3576 H 0.55968 0.814 0.60023 0.0
H3577 H 0.5788 0.79306 0.60398 0.0
H3578 H 0.55781 0.76889 0.57815 0.0
H3579 H 0.5387 0.78984 0.57428 0.0
H3580 H 0.53011 0.76393 0.58307 0.0
H3581 H 0.49521 0.77321 0.65815 0.0
H3582 H 0.47377 0.80466 0.64861 0.0
H3583 H 0.51769 0.81937 0.59764 0.0
C3584 C 0.56796 0.74912 0.62186 0.0
C3585 C 0.56893 0.73196 0.63695 0.0
C3586 C 0.55134 0.72999 0.65109 0.0
C3587 C 0.5343 0.74455 0.65108 0.0
C3588 C 0.53416 0.76131 0.63651 0.0
C3589 C 0.55037 0.76356 0.62191 0.0
C3590 C 0.54581 0.78294 0.60767 0.0
C3591 C 0.5635 0.79961 0.60976 0.0
C3592 C 0.54295 0.77598 0.5844 0.0
C3593 C 0.52487 0.79138 0.61686 0.0
C3594 C 0.51853 0.77856 0.63355 0.0
C3595 C 0.50011 0.78324 0.64504 0.0
C3596 C 0.48797 0.80134 0.63953 0.0
C3597 C 0.49377 0.8149 0.62239 0.0
C3598 C 0.51255 0.8095 0.61079 0.0
H3599 H 0.92196 0.75525 0.35947 0.0
H3600 H 0.93612 0.71659 0.415 0.0
H3601 H 0.96593 0.74018 0.42361 0.0
H3602 H 0.97841 0.76648 0.34647 0.0
H3603 H 0.97323 0.79322 0.33754 0.0
H3604 H 0.95313 0.77299 0.33486 0.0
H3605 H 0.92684 0.79648 0.35593 0.0
H3606 H 0.94684 0.81675 0.35863 0.0
H3607 H 0.93411 0.80605 0.38199 0.0
H3608 H 0.9946 0.76766 0.42672 0.0
H3609 H 0.01885 0.79796 0.42537 0.0
H3610 H 0.98686 0.82126 0.36872 0.0
C3611 C 0.93136 0.75161 0.3734 0.0
C3612 C 0.92599 0.73391 0.38673 0.0
C3613 C 0.93907 0.73011 0.40474 0.0
C3614 C 0.95638 0.74337 0.40968 0.0
C3615 C 0.96099 0.76062 0.39647 0.0
C3616 C 0.94893 0.76484 0.37864 0.0
C3617 C 0.95743 0.78477 0.36741 0.0
C3618 C 0.96605 0.77903 0.34525 0.0
C3619 C 0.94028 0.80204 0.36591 0.0
C3620 C 0.97547 0.79157 0.38226 0.0
C3621 C 0.97742 0.777 0.3986 0.0
C3622 C 0.99298 0.77929 0.41414 0.0
C3623 C 0.00663 0.79698 0.41335 0.0
C3624 C 0.00473 0.81298 0.39742 0.0
C3625 C 0.98897 0.80976 0.38135 0.0
H3626 H 0.50712 0.17788 0.906 0.0
H3627 H 0.47658 0.1813 0.844 0.0
H3628 H 0.49939 0.21123 0.8344 0.0
H3629 H 0.5112 0.23717 0.91113 0.0
H3630 H 0.53605 0.23595 0.92517 0.0
H3631 H 0.51709 0.21464 0.92786 0.0
H3632 H 0.54558 0.18754 0.91591 0.0
H3633 H 0.56459 0.20873 0.91303 0.0
H3634 H 0.55898 0.19141 0.89085 0.0
H3635 H 0.528 0.23739 0.82936 0.0
H3636 H 0.55731 0.26191 0.83031 0.0
H3637 H 0.56696 0.24765 0.8976 0.0
C3638 C 0.50497 0.18497 0.89047 0.0
C3639 C 0.4903 0.17624 0.87553 0.0
C3640 C 0.4882 0.18655 0.85551 0.0
C3641 C 0.50096 0.20393 0.84992 0.0
C3642 C 0.51555 0.21157 0.86465 0.0
C3643 C 0.51733 0.20288 0.88472 0.0
C3644 C 0.53415 0.21484 0.89751 0.0
C3645 C 0.52402 0.22633 0.91655 0.0
C3646 C 0.55188 0.19973 0.90475 0.0
C3647 C 0.5422 0.2308 0.88103 0.0
C3648 C 0.53107 0.22848 0.8623 0.0
C3649 C 0.53633 0.23994 0.8442 0.0
C3650 C 0.5532 0.25436 0.84514 0.0
C3651 C 0.56468 0.2582 0.86434 0.0
C3652 C 0.55885 0.24587 0.88257 0.0
H3653 H 0.88548 0.06285 0.75037 0.0
H3654 H 0.83128 0.03437 0.71894 0.0
H3655 H 0.82995 0.00648 0.74651 0.0
H3656 H 0.91295 0.01661 0.76758 0.0
H3657 H 0.91915 0.02628 0.79374 0.0
H3658 H 0.91555 0.0447 0.77206 0.0
H3659 H 0.88708 0.06445 0.79371 0.0
H3660 H 0.89043 0.04597 0.8154 0.0
H3661 H 0.8646 0.05002 0.80393 0.0
H3662 H 0.83476 0.98081 0.77604 0.0
H3663 H 0.84579 0.95878 0.80655 0.0
H3664 H 0.898 0.00205 0.81866 0.0
C3665 C 0.87381 0.0503 0.74894 0.0
C3666 C 0.85863 0.05063 0.73231 0.0
C3667 C 0.84312 0.03437 0.73141 0.0
C3668 C 0.84233 0.01834 0.74687 0.0
C3669 C 0.85739 0.01841 0.763 0.0
C3670 C 0.87282 0.03397 0.76429 0.0
C3671 C 0.88612 0.03089 0.78426 0.0
C3672 C 0.90984 0.02952 0.77909 0.0
C3673 C 0.8818 0.0489 0.80027 0.0
C3674 C 0.87722 0.00992 0.7925 0.0
C3675 C 0.85997 0.00365 0.78053 0.0
C3676 C 0.84826 0.98553 0.78555 0.0
C3677 C 0.85461 0.97313 0.80297 0.0
C3678 C 0.87296 0.97843 0.81479 0.0
C3679 C 0.88416 0.99734 0.80965 0.0
H3680 H 0.69657 0.10172 0.47344 0.0
H3681 H 0.67545 0.16775 0.47957 0.0
H3682 H 0.70645 0.18127 0.49715 0.0
H3683 H 0.71605 0.08456 0.51455 0.0
H3684 H 0.74072 0.07048 0.52195 0.0
H3685 H 0.72811 0.06884 0.49691 0.0
H3686 H 0.7501 0.0787 0.47349 0.0
H3687 H 0.77 0.07554 0.4935 0.0
H3688 H 0.7707 0.09626 0.47438 0.0
H3689 H 0.74904 0.16268 0.52292 0.0
H3690 H 0.77068 0.18579 0.56001 0.0
H3691 H 0.78334 0.11778 0.5551 0.0
C3692 C 0.69969 0.11787 0.47849 0.0
C3693 C 0.6846 0.13464 0.4754 0.0
C3694 C 0.68807 0.15637 0.48194 0.0
C3695 C 0.70609 0.16484 0.49204 0.0
C3696 C 0.7224 0.15145 0.49725 0.0
C3697 C 0.71884 0.12226 0.48816 0.0
C3698 C 0.7458 0.10043 0.50228 0.0
C3699 C 0.73235 0.0802 0.50981 0.0
C3700 C 0.75999 0.08752 0.4852 0.0
C3701 C 0.76382 0.13033 0.53058 0.0
C3702 C 0.74926 0.15642 0.52068 0.0
C3703 C 0.75413 0.17447 0.53317 0.0
C3704 C 0.76789 0.17152 0.55078 0.0
C3705 C 0.77726 0.15203 0.55852 0.0
C3706 C 0.77601 0.13187 0.54845 0.0
H3707 H 0.66657 0.94566 0.22944 0.0
H3708 H 0.59909 0.93339 0.21911 0.0
H3709 H 0.58483 0.96282 0.23915 0.0
H3710 H 0.67517 0.95982 0.27521 0.0
H3711 H 0.68935 0.97938 0.29114 0.0
H3712 H 0.69544 0.97396 0.26379 0.0
H3713 H 0.6937 0.00983 0.25031 0.0
H3714 H 0.69442 0.01258 0.27857 0.0
H3715 H 0.67662 0.02773 0.26573 0.0
H3716 H 0.57617 0.9989 0.27825 0.0
H3717 H 0.57779 0.02128 0.30946 0.0
H3718 H 0.64652 0.02811 0.31377 0.0
C3719 C 0.65026 0.95025 0.23199 0.0
C3720 C 0.6329 0.93874 0.22301 0.0
C3721 C 0.61073 0.94401 0.22598 0.0
C3722 C 0.60181 0.96123 0.23748 0.0
C3723 C 0.61518 0.97549 0.24734 0.0
C3724 C 0.64602 0.96784 0.24407 0.0
C3725 C 0.66592 0.99353 0.26707 0.0
C3726 C 0.68217 0.97599 0.27532 0.0
C3727 C 0.68352 0.01166 0.26465 0.0
C3728 C 0.63589 0.01139 0.2863 0.0
C3729 C 0.6093 0.00043 0.27204 0.0
C3730 C 0.59131 0.00506 0.28341 0.0
C3731 C 0.59289 0.01764 0.30215 0.0
C3732 C 0.61173 0.02596 0.31237 0.0
C3733 C 0.63287 0.02264 0.3049 0.0
H3734 H 0.82062 0.85365 0.98746 0.0
H3735 H 0.82953 0.9216 0.99712 0.0
H3736 H 0.80015 0.92191 0.02251 0.0
H3737 H 0.76389 0.85359 0.99246 0.0
H3738 H 0.76207 0.82904 0.00719 0.0
H3739 H 0.78367 0.83327 0.98887 0.0
H3740 H 0.81103 0.82667 0.01881 0.0
H3741 H 0.7897 0.82179 0.03723 0.0
H3742 H 0.80931 0.84179 0.04314 0.0
H3743 H 0.76979 0.91593 0.04601 0.0
H3744 H 0.74205 0.90306 0.07012 0.0
H3745 H 0.75325 0.83826 0.04881 0.0
C3746 C 0.81658 0.86856 0.99508 0.0
C3747 C 0.82732 0.88773 0.98971 0.0
C3748 C 0.8213 0.90681 0.00019 0.0
C3749 C 0.80463 0.90717 0.01483 0.0
C3750 C 0.79419 0.88825 0.01937 0.0
C3751 C 0.80004 0.86919 0.01018 0.0
C3752 C 0.78633 0.85112 0.01872 0.0
C3753 C 0.77321 0.84111 0.00074 0.0
C3754 C 0.7999 0.83435 0.03015 0.0
C3755 C 0.77219 0.86309 0.0343 0.0
C3756 C 0.77692 0.88454 0.03403 0.0
C3757 C 0.76612 0.89912 0.04664 0.0
C3758 C 0.75043 0.89159 0.0604 0.0
C3759 C 0.74573 0.86957 0.06186 0.0
C3760 C 0.75649 0.85517 0.04819 0.0
H3761 H 0.86455 0.99604 0.67402 0.0
H3762 H 0.91601 0.0331 0.70059 0.0
H3763 H 0.91702 0.00929 0.73184 0.0
H3764 H 0.83602 0.98244 0.72033 0.0
H3765 H 0.83143 0.95507 0.71351 0.0
H3766 H 0.83512 0.97461 0.69285 0.0
H3767 H 0.86561 0.95237 0.67714 0.0
H3768 H 0.86203 0.93274 0.69777 0.0
H3769 H 0.88758 0.94489 0.69383 0.0
H3770 H 0.91231 0.9812 0.76072 0.0
H3771 H 0.90107 0.95383 0.78556 0.0
H3772 H 0.85294 0.93317 0.74053 0.0
C3773 C 0.87582 0.99924 0.6866 0.0
C3774 C 0.89009 0.01666 0.68494 0.0
C3775 C 0.90491 0.01998 0.70151 0.0
C3776 C 0.9055 0.00655 0.71943 0.0
C3777 C 0.89127 0.98958 0.72068 0.0
C3778 C 0.87685 0.98569 0.70459 0.0
C3779 C 0.86423 0.96553 0.70942 0.0
C3780 C 0.84029 0.96968 0.70902 0.0
C3781 C 0.87021 0.94784 0.6936 0.0
C3782 C 0.87219 0.96007 0.7317 0.0
C3783 C 0.8884 0.97363 0.73742 0.0
C3784 C 0.89918 0.971 0.75657 0.0
C3785 C 0.89273 0.95486 0.77065 0.0
C3786 C 0.87549 0.94105 0.76588 0.0
C3787 C 0.86553 0.94363 0.74561 0.0
H3788 H 0.78549 0.10346 0.51125 0.0
H3789 H 0.82724 0.15121 0.48946 0.0
H3790 H 0.79792 0.16992 0.47364 0.0
H3791 H 0.74679 0.0973 0.54227 0.0
H3792 H 0.71823 0.09995 0.54407 0.0
H3793 H 0.73568 0.11744 0.55641 0.0
H3794 H 0.707 0.13411 0.54868 0.0
H3795 H 0.69655 0.13518 0.52357 0.0
H3796 H 0.71289 0.15619 0.53465 0.0
H3797 H 0.76121 0.18629 0.46018 0.0
H3798 H 0.74614 0.16986 0.42863 0.0
H3799 H 0.74151 0.1106 0.45924 0.0
C3800 C 0.78672 0.11771 0.50165 0.0
C3801 C 0.80757 0.12685 0.50354 0.0
C3802 C 0.81146 0.14471 0.49126 0.0
C3803 C 0.79474 0.15545 0.48247 0.0
C3804 C 0.77376 0.14892 0.48687 0.0
C3805 C 0.7653 0.13047 0.49607 0.0
C3806 C 0.73216 0.12593 0.51991 0.0
C3807 C 0.73331 0.10864 0.54115 0.0
C3808 C 0.71153 0.13872 0.53217 0.0
C3809 C 0.75271 0.13532 0.48635 0.0
C3810 C 0.75716 0.15878 0.47992 0.0
C3811 C 0.75699 0.1696 0.46054 0.0
C3812 C 0.74879 0.16022 0.44269 0.0
C3813 C 0.74266 0.13914 0.4432 0.0
C3814 C 0.74715 0.12661 0.46179 0.0
H3815 H 0.60754 0.99875 0.218 0.0
H3816 H 0.65908 0.99505 0.17519 0.0
H3817 H 0.68369 0.00379 0.20282 0.0
H3818 H 0.60316 0.96141 0.2818 0.0
H3819 H 0.6222 0.94933 0.29661 0.0
H3820 H 0.62335 0.94397 0.27025 0.0
H3821 H 0.65445 0.96066 0.30284 0.0
H3822 H 0.63487 0.97842 0.31235 0.0
H3823 H 0.65937 0.98824 0.30575 0.0
H3824 H 0.67104 0.04268 0.21775 0.0
H3825 H 0.66066 0.07301 0.23898 0.0
H3826 H 0.61217 0.0374 0.26618 0.0
C3827 C 0.6247 0.99806 0.21708 0.0
C3828 C 0.63254 0.99093 0.19656 0.0
C3829 C 0.65309 0.99659 0.19127 0.0
C3830 C 0.66709 0.00205 0.20676 0.0
C3831 C 0.66095 0.00234 0.22796 0.0
C3832 C 0.63926 0.00203 0.24003 0.0
C3833 C 0.63625 0.97893 0.27498 0.0
C3834 C 0.62036 0.95765 0.28105 0.0
C3835 C 0.64738 0.97662 0.29992 0.0
C3836 C 0.63701 0.01231 0.2511 0.0
C3837 C 0.65238 0.01968 0.23638 0.0
C3838 C 0.65887 0.04054 0.22973 0.0
C3839 C 0.65252 0.05797 0.24106 0.0
C3840 C 0.63769 0.05517 0.25686 0.0
C3841 C 0.62623 0.03552 0.25661 0.0
H3842 H 0.68511 0.91297 0.0072 0.0
H3843 H 0.67157 0.84751 0.02533 0.0
H3844 H 0.69765 0.83506 0.99947 0.0
H3845 H 0.69482 0.90539 0.95218 0.0
H3846 H 0.71739 0.9229 0.9506 0.0
H3847 H 0.69733 0.92735 0.9705 0.0
H3848 H 0.72581 0.92575 0.00019 0.0
H3849 H 0.74595 0.92151 0.9803 0.0
H3850 H 0.74293 0.90287 0.00187 0.0
H3851 H 0.7241 0.82887 0.97006 0.0
H3852 H 0.75123 0.82976 0.94201 0.0
H3853 H 0.75114 0.89883 0.94413 0.0
C3854 C 0.68754 0.89599 0.006 0.0
C3855 C 0.67507 0.88143 0.01826 0.0
C3856 C 0.67958 0.85935 0.01579 0.0
C3857 C 0.69479 0.85196 0.00118 0.0
C3858 C 0.7062 0.86664 0.98915 0.0
C3859 C 0.70316 0.88823 0.9917 0.0
C3860 C 0.7184 0.90052 0.97728 0.0
C3861 C 0.70625 0.91489 0.96172 0.0
C3862 C 0.7342 0.91344 0.99071 0.0
C3863 C 0.72967 0.88247 0.96557 0.0
C3864 C 0.72239 0.86306 0.97285 0.0
C3865 C 0.73005 0.84401 0.96445 0.0
C3866 C 0.7457 0.84472 0.9485 0.0
C3867 C 0.75383 0.86433 0.94073 0.0
C3868 C 0.74543 0.8835 0.94948 0.0
H3869 H 0.00911 0.81518 0.86619 0.0
H3870 H 0.98093 0.79226 0.92507 0.0
H3871 H 0.00638 0.76291 0.92589 0.0
H3872 H 0.02287 0.76272 0.84371 0.0
H3873 H 0.04742 0.77242 0.83286 0.0
H3874 H 0.02531 0.79027 0.836 0.0
H3875 H 0.04974 0.8152 0.85823 0.0
H3876 H 0.07136 0.7967 0.85564 0.0
H3877 H 0.06257 0.80488 0.88169 0.0
H3878 H 0.0365 0.73762 0.92244 0.0
H3879 H 0.06775 0.7165 0.91363 0.0
H3880 H 0.07774 0.7552 0.85709 0.0
C3881 C 0.00822 0.80404 0.87929 0.0
C3882 C 0.99257 0.80625 0.89545 0.0
C3883 C 0.99216 0.79098 0.91213 0.0
C3884 C 0.00678 0.77421 0.91289 0.0
C3885 C 0.02202 0.77272 0.89696 0.0
C3886 C 0.02285 0.78713 0.88039 0.0
C3887 C 0.04147 0.78218 0.86578 0.0
C3888 C 0.03379 0.77658 0.84325 0.0
C3889 C 0.05722 0.80085 0.86531 0.0
C3890 C 0.05095 0.76284 0.87685 0.0
C3891 C 0.03945 0.75779 0.89482 0.0
C3892 C 0.04547 0.74124 0.90821 0.0
C3893 C 0.06348 0.72926 0.90299 0.0
C3894 C 0.07536 0.73338 0.88423 0.0
C3895 C 0.06894 0.7508 0.87119 0.0
H3896 H 0.50267 0.69822 0.08564 0.0
H3897 H 0.48779 0.68063 0.1507 0.0
H3898 H 0.5135 0.70708 0.16391 0.0
H3899 H 0.55838 0.70491 0.0941 0.0
H3900 H 0.5612 0.7274 0.07651 0.0
H3901 H 0.54067 0.70803 0.07181 0.0
H3902 H 0.51242 0.7378 0.07264 0.0
H3903 H 0.53268 0.75746 0.07745 0.0
H3904 H 0.51074 0.75485 0.09561 0.0
H3905 H 0.54274 0.73221 0.1701 0.0
H3906 H 0.5719 0.75769 0.16967 0.0
H3907 H 0.56714 0.76201 0.10066 0.0
C3908 C 0.50471 0.70022 0.10264 0.0
C3909 C 0.49339 0.68739 0.11723 0.0
C3910 C 0.4965 0.69023 0.13934 0.0
C3911 C 0.51103 0.70519 0.14697 0.0
C3912 C 0.52241 0.71718 0.13227 0.0
C3913 C 0.5194 0.71506 0.11059 0.0
C3914 C 0.53431 0.72968 0.09841 0.0
C3915 C 0.54954 0.71673 0.08438 0.0
C3916 C 0.5218 0.74592 0.08521 0.0
C3917 C 0.54602 0.74033 0.11668 0.0
C3918 C 0.53897 0.73262 0.13599 0.0
C3919 C 0.54805 0.73884 0.15512 0.0
C3920 C 0.56458 0.75363 0.15465 0.0
C3921 C 0.57168 0.76275 0.13519 0.0
C3922 C 0.56226 0.75567 0.11589 0.0
H3923 H 0.01934 0.30581 0.64404 0.0
H3924 H 0.01923 0.30411 0.57487 0.0
H3925 H 0.99604 0.27281 0.5727 0.0
H3926 H 0.00108 0.25029 0.68479 0.0
H3927 H 0.00984 0.27711 0.68185 0.0
H3928 H 0.02226 0.25927 0.66734 0.0
H3929 H 0.97977 0.29723 0.6693 0.0
H3930 H 0.97304 0.27519 0.68627 0.0
H3931 H 0.95706 0.28008 0.66544 0.0
H3932 H 0.95861 0.24091 0.58204 0.0
H3933 H 0.93042 0.21976 0.59747 0.0
H3934 H 0.94811 0.23412 0.66324 0.0
C3935 C 0.01518 0.29784 0.62934 0.0
C3936 C 0.02096 0.30641 0.60928 0.0
C3937 C 0.01467 0.29656 0.58967 0.0
C3938 C 0.0016 0.2783 0.58803 0.0
C3939 C 0.9954 0.26801 0.60644 0.0
C3940 C 0.00419 0.27871 0.63027 0.0
C3941 C 0.98912 0.26578 0.6546 0.0
C3942 C 0.00622 0.26225 0.6728 0.0
C3943 C 0.97411 0.28046 0.66933 0.0
C3944 C 0.96971 0.24504 0.63948 0.0
C3945 C 0.97307 0.24749 0.61209 0.0
C3946 C 0.95766 0.23901 0.59912 0.0
C3947 C 0.94101 0.22745 0.60858 0.0
C3948 C 0.93753 0.22508 0.63112 0.0
C3949 C 0.95155 0.23447 0.64638 0.0
H3950 H 0.99906 0.69425 0.84946 0.0
H3951 H 0.01105 0.69838 0.91747 0.0
H3952 H 0.98383 0.72593 0.92066 0.0
H3953 H 0.98677 0.75121 0.84138 0.0
H3954 H 0.96643 0.74543 0.82218 0.0
H3955 H 0.98853 0.72755 0.82523 0.0
H3956 H 0.96165 0.69675 0.83184 0.0
H3957 H 0.93984 0.71507 0.82951 0.0
H3958 H 0.94273 0.69915 0.85321 0.0
H3959 H 0.95509 0.75317 0.917 0.0
H3960 H 0.92591 0.77678 0.90715 0.0
H3961 H 0.92921 0.75334 0.84203 0.0
C3962 C 0.99599 0.70086 0.86506 0.0
C3963 C 0.00782 0.69408 0.88311 0.0
C3964 C 0.00301 0.70345 0.90315 0.0
C3965 C 0.98731 0.71913 0.90522 0.0
C3966 C 0.9761 0.7254 0.88721 0.0
C3967 C 0.98011 0.71654 0.8675 0.0
C3968 C 0.96508 0.72574 0.85089 0.0
C3969 C 0.97746 0.7382 0.8339 0.0
C3970 C 0.95152 0.70812 0.84077 0.0
C3971 C 0.95171 0.7407 0.86449 0.0
C3972 C 0.95866 0.74047 0.8853 0.0
C3973 C 0.94933 0.75326 0.90077 0.0
C3974 C 0.93241 0.76656 0.89495 0.0
C3975 C 0.92445 0.76704 0.87377 0.0
C3976 C 0.93455 0.75376 0.85838 0.0
H3977 H 0.43478 0.26421 0.40216 0.0
H3978 H 0.42133 0.25517 0.33481 0.0
H3979 H 0.44981 0.22911 0.33247 0.0
H3980 H 0.49196 0.25559 0.40114 0.0
H3981 H 0.4919 0.24021 0.42521 0.0
H3982 H 0.472 0.26035 0.42101 0.0
H3983 H 0.44304 0.23157 0.42754 0.0
H3984 H 0.46322 0.21164 0.4311 0.0
H3985 H 0.44286 0.20788 0.41135 0.0
H3986 H 0.47953 0.20422 0.3365 0.0
H3987 H 0.50616 0.17818 0.34794 0.0
H3988 H 0.49832 0.19901 0.41346 0.0
C3989 C 0.43774 0.25676 0.38692 0.0
C3990 C 0.42604 0.26263 0.36853 0.0
C3991 C 0.43049 0.25204 0.34902 0.0
C3992 C 0.44661 0.23693 0.34748 0.0
C3993 C 0.45799 0.23189 0.36568 0.0
C3994 C 0.4536 0.24111 0.38515 0.0
C3995 C 0.46718 0.23118 0.4025 0.0
C3996 C 0.4816 0.24783 0.41307 0.0
C3997 C 0.45324 0.21989 0.4191 0.0
C3998 C 0.47994 0.21522 0.38956 0.0
C3999 C 0.47445 0.21617 0.36833 0.0
C4000 C 0.48376 0.20305 0.35315 0.0
C4001 C 0.49875 0.18813 0.35987 0.0
C4002 C 0.50408 0.18604 0.3817 0.0
C4003 C 0.49473 0.20013 0.39666 0.0
H4004 H 0.97543 0.20336 0.62689 0.0
H4005 H 0.00318 0.17631 0.57059 0.0
H4006 H 0.03165 0.2029 0.57208 0.0
H4007 H 0.96335 0.28486 0.61143 0.0
H4008 H 0.97163 0.29581 0.63376 0.0
H4009 H 0.95175 0.27624 0.63288 0.0
H4010 H 0.023 0.22826 0.65886 0.0
H4011 H 0.01098 0.20862 0.64722 0.0
H4012 H 0.99437 0.22442 0.66173 0.0
H4013 H 0.05774 0.22709 0.58021 0.0
H4014 H 0.08376 0.2523 0.5929 0.0
H4015 H 0.04288 0.27018 0.64441 0.0
C4016 C 0.98701 0.20418 0.61429 0.0
C4017 C 0.9867 0.18819 0.59831 0.0
C4018 C 0.00275 0.18844 0.58283 0.0
C4019 C 0.01884 0.2038 0.58346 0.0
C4020 C 0.01824 0.21984 0.59898 0.0
C4021 C 0.00224 0.22135 0.61369 0.0
C4022 C 0.0044 0.24188 0.63014 0.0
C4023 C 0.96857 0.27922 0.62771 0.0
C4024 C 0.0078 0.22579 0.65047 0.0
C4025 C 0.02907 0.24657 0.62233 0.0
C4026 C 0.03445 0.23491 0.6042 0.0
C4027 C 0.05394 0.23676 0.59392 0.0
C4028 C 0.06882 0.2513 0.60129 0.0
C4029 C 0.06482 0.26399 0.61929 0.0
C4030 C 0.04535 0.26062 0.63051 0.0
H4031 H 0.43572 0.7498 0.15515 0.0
H4032 H 0.4312 0.72962 0.08902 0.0
H4033 H 0.45811 0.75577 0.07929 0.0
H4034 H 0.4451 0.80471 0.14745 0.0
H4035 H 0.46534 0.80747 0.16749 0.0
H4036 H 0.44547 0.78706 0.17008 0.0
H4037 H 0.47473 0.75835 0.17282 0.0
H4038 H 0.49471 0.77872 0.17039 0.0
H4039 H 0.49452 0.75653 0.15222 0.0
H4040 H 0.48319 0.78599 0.07546 0.0
H4041 H 0.50851 0.81531 0.07834 0.0
H4042 H 0.50147 0.81466 0.1472 0.0
C4043 C 0.44039 0.75062 0.13861 0.0
C4044 C 0.43017 0.73776 0.12283 0.0
C4045 C 0.43746 0.73966 0.10149 0.0
C4046 C 0.45315 0.75441 0.09572 0.0
C4047 C 0.46222 0.76712 0.11141 0.0
C4048 C 0.45659 0.76506 0.13253 0.0
C4049 C 0.46981 0.78029 0.14617 0.0
C4050 C 0.45557 0.7958 0.15853 0.0
C4051 C 0.4843 0.76772 0.1613 0.0
C4052 C 0.48283 0.7919 0.12922 0.0
C4053 C 0.4781 0.78385 0.10934 0.0
C4054 C 0.4873 0.79217 0.091 0.0
C4055 C 0.50197 0.80884 0.09289 0.0
C4056 C 0.5077 0.81741 0.11303 0.0
C4057 C 0.49771 0.8087 0.13149 0.0
H4058 H 0.60071 0.44358 0.78276 0.0
H4059 H 0.66842 0.43945 0.76956 0.0
H4060 H 0.67119 0.46875 0.74459 0.0
H4061 H 0.56959 0.48343 0.71568 0.0
H4062 H 0.55207 0.49657 0.73187 0.0
H4063 H 0.55621 0.46878 0.73678 0.0
H4064 H 0.55569 0.48177 0.77011 0.0
H4065 H 0.55912 0.50979 0.76752 0.0
H4066 H 0.57627 0.49224 0.78331 0.0
H4067 H 0.66329 0.51007 0.70915 0.0
H4068 H 0.64861 0.5332 0.68219 0.0
H4069 H 0.58174 0.52833 0.69962 0.0
C4070 C 0.61459 0.45023 0.77518 0.0
C4071 C 0.63522 0.44136 0.77825 0.0
C4072 C 0.65401 0.44842 0.76695 0.0
C4073 C 0.65623 0.46572 0.75242 0.0
C4074 C 0.63919 0.47884 0.74867 0.0
C4075 C 0.61246 0.46818 0.76268 0.0
C4076 C 0.58311 0.49061 0.74811 0.0
C4077 C 0.56438 0.48389 0.73252 0.0
C4078 C 0.56787 0.49446 0.76809 0.0
C4079 C 0.60263 0.5116 0.72019 0.0
C4080 C 0.63365 0.50467 0.72476 0.0
C4081 C 0.64649 0.51341 0.70924 0.0
C4082 C 0.63725 0.52648 0.69322 0.0
C4083 C 0.61512 0.53183 0.68997 0.0
C4084 C 0.59807 0.52447 0.70308 0.0
H4085 H 0.82973 0.35894 0.99822 0.0
H4086 H 0.79842 0.41004 0.03266 0.0
H4087 H 0.76849 0.40807 0.00791 0.0
H4088 H 0.81283 0.37243 0.94609 0.0
H4089 H 0.80794 0.34548 0.93757 0.0
H4090 H 0.82736 0.35075 0.95789 0.0
H4091 H 0.80804 0.32486 0.9835 0.0
H4092 H 0.78863 0.31943 0.96318 0.0
H4093 H 0.78028 0.32875 0.98898 0.0
H4094 H 0.74203 0.40189 0.97835 0.0
H4095 H 0.72054 0.39028 0.94755 0.0
H4096 H 0.76663 0.34114 0.93355 0.0
C4097 C 0.81654 0.36959 0.00085 0.0
C4098 C 0.81722 0.38515 0.01736 0.0
C4099 C 0.79921 0.39856 0.01986 0.0
C4100 C 0.78177 0.39738 0.00597 0.0
C4101 C 0.78192 0.38229 0.98975 0.0
C4102 C 0.79864 0.36835 0.98733 0.0
C4103 C 0.79448 0.35332 0.96872 0.0
C4104 C 0.81168 0.35564 0.95156 0.0
C4105 C 0.79276 0.33021 0.97657 0.0
C4106 C 0.77315 0.36138 0.96074 0.0
C4107 C 0.76624 0.37818 0.97313 0.0
C4108 C 0.7473 0.38871 0.96862 0.0
C4109 C 0.73521 0.38205 0.95101 0.0
C4110 C 0.74186 0.36485 0.93801 0.0
C4111 C 0.76103 0.35425 0.94321 0.0
H4112 H 0.8912 0.55816 0.26477 0.0
H4113 H 0.82251 0.55674 0.26923 0.0
H4114 H 0.82124 0.5306 0.24034 0.0
H4115 H 0.89036 0.55287 0.20398 0.0
H4116 H 0.91468 0.53788 0.20417 0.0
H4117 H 0.91005 0.55803 0.22407 0.0
H4118 H 0.91765 0.53046 0.25249 0.0
H4119 H 0.92013 0.50872 0.23393 0.0
H4120 H 0.90062 0.50781 0.25502 0.0
H4121 H 0.82703 0.50289 0.21234 0.0
H4122 H 0.83936 0.47611 0.18687 0.0
H4123 H 0.9044 0.49571 0.19821 0.0
C4124 C 0.8758 0.55282 0.25944 0.0
C4125 C 0.857 0.55941 0.27011 0.0
C4126 C 0.83732 0.55163 0.26229 0.0
C4127 C 0.83634 0.5369 0.24549 0.0
C4128 C 0.8551 0.53033 0.23589 0.0
C4129 C 0.87443 0.53848 0.24212 0.0
C4130 C 0.89216 0.52857 0.22896 0.0
C4131 C 0.90242 0.54534 0.21443 0.0
C4132 C 0.9087 0.51823 0.24342 0.0
C4133 C 0.87994 0.51218 0.21582 0.0
C4134 C 0.85849 0.51414 0.21959 0.0
C4135 C 0.84379 0.50136 0.20912 0.0
C4136 C 0.85106 0.48609 0.1945 0.0
C4137 C 0.87299 0.48337 0.19023 0.0
C4138 C 0.88757 0.49683 0.20119 0.0
H4139 H 0.73672 0.59734 0.44401 0.0
H4140 H 0.79931 0.61574 0.46391 0.0
H4141 H 0.787 0.61669 0.50068 0.0
H4142 H 0.70075 0.61732 0.46933 0.0
H4143 H 0.6865 0.59521 0.48078 0.0
H4144 H 0.70305 0.59106 0.45817 0.0
H4145 H 0.72414 0.56244 0.47775 0.0
H4146 H 0.70755 0.56594 0.50088 0.0
H4147 H 0.73592 0.56811 0.50325 0.0
H4148 H 0.74484 0.67463 0.53144 0.0
H4149 H 0.71915 0.66325 0.53368 0.0
H4150 H 0.68442 0.60304 0.51707 0.0
C4151 C 0.74762 0.60235 0.4563 0.0
C4152 C 0.76829 0.60931 0.45076 0.0
C4153 C 0.78278 0.61273 0.46737 0.0
C4154 C 0.77571 0.61423 0.48841 0.0
C4155 C 0.754 0.61383 0.49266 0.0
C4156 C 0.74119 0.60333 0.47807 0.0
C4157 C 0.72065 0.59551 0.48807 0.0
C4158 C 0.70165 0.60012 0.47329 0.0
C4159 C 0.72216 0.57158 0.49277 0.0
C4160 C 0.71958 0.60794 0.50898 0.0
C4161 C 0.74112 0.62318 0.51094 0.0
C4162 C 0.73247 0.66006 0.52918 0.0
C4163 C 0.70438 0.66028 0.53591 0.0
C4164 C 0.68873 0.63845 0.53056 0.0
C4165 C 0.69625 0.61523 0.51897 0.0
H4166 H 0.64326 0.48697 0.78484 0.0
H4167 H 0.59979 0.51379 0.8265 0.0
H4168 H 0.58801 0.53743 0.79838 0.0
H4169 H 0.63914 0.46936 0.70856 0.0
H4170 H 0.61901 0.48439 0.6939 0.0
H4171 H 0.61683 0.45803 0.69829 0.0
H4172 H 0.60799 0.4424 0.72978 0.0
H4173 H 0.5871 0.45357 0.71461 0.0
H4174 H 0.5853 0.45111 0.74243 0.0
H4175 H 0.57312 0.55569 0.76242 0.0
H4176 H 0.59845 0.58117 0.74979 0.0
H4177 H 0.64561 0.53411 0.74581 0.0
C4178 C 0.62921 0.49664 0.78475 0.0
C4179 C 0.6201 0.49601 0.80561 0.0
C4180 C 0.60622 0.5121 0.8106 0.0
C4181 C 0.59904 0.52483 0.79444 0.0
C4182 C 0.60284 0.51882 0.77269 0.0
C4183 C 0.61598 0.50323 0.76315 0.0
C4184 C 0.6099 0.4797 0.73028 0.0
C4185 C 0.62192 0.4727 0.70683 0.0
C4186 C 0.59642 0.45582 0.72949 0.0
C4187 C 0.61301 0.51462 0.75349 0.0
C4188 C 0.59291 0.52868 0.75675 0.0
C4189 C 0.58874 0.55033 0.75779 0.0
C4190 C 0.60299 0.56458 0.75007 0.0
C4191 C 0.62162 0.5574 0.74091 0.0
C4192 C 0.62862 0.5363 0.74717 0.0
H4193 H 0.74553 0.34256 0.05579 0.0
H4194 H 0.76603 0.40711 0.06992 0.0
H4195 H 0.74101 0.42084 0.04361 0.0
H4196 H 0.7401 0.35138 0.99835 0.0
H4197 H 0.71695 0.33492 0.99532 0.0
H4198 H 0.736 0.32915 0.0159 0.0
H4199 H 0.70688 0.33099 0.04453 0.0
H4200 H 0.68746 0.33646 0.02425 0.0
H4201 H 0.69048 0.35438 0.04645 0.0
H4202 H 0.71256 0.4285 0.01764 0.0
H4203 H 0.68452 0.42975 0.99102 0.0
H4204 H 0.68356 0.36054 0.98881 0.0
C4205 C 0.74494 0.35958 0.05329 0.0
C4206 C 0.75765 0.37365 0.06583 0.0
C4207 C 0.75612 0.3958 0.06158 0.0
C4208 C 0.74199 0.40387 0.04636 0.0
C4209 C 0.72952 0.38975 0.03476 0.0
C4210 C 0.73099 0.36804 0.0377 0.0
C4211 C 0.71571 0.3566 0.02258 0.0
C4212 C 0.72791 0.34216 0.00711 0.0
C4213 C 0.69915 0.34385 0.03521 0.0
C4214 C 0.70544 0.37536 0.0109 0.0
C4215 C 0.71368 0.39424 0.01847 0.0
C4216 C 0.70632 0.4138 0.01124 0.0
C4217 C 0.69034 0.41428 0.99572 0.0
C4218 C 0.68176 0.39533 0.98681 0.0
C4219 C 0.68952 0.37549 0.99488 0.0
H4220 H 0.90846 0.49942 0.31141 0.0
H4221 H 0.84709 0.52989 0.30914 0.0
H4222 H 0.83573 0.50531 0.28102 0.0
H4223 H 0.91805 0.47721 0.25646 0.0
H4224 H 0.92576 0.45312 0.26893 0.0
H4225 H 0.92802 0.47772 0.28343 0.0
H4226 H 0.9061 0.45365 0.31153 0.0
H4227 H 0.90113 0.43315 0.29204 0.0
H4228 H 0.87931 0.4464 0.3048 0.0
H4229 H 0.83091 0.47913 0.25236 0.0
H4230 H 0.83126 0.45042 0.22645 0.0
H4231 H 0.89505 0.43328 0.24644 0.0
C4232 C 0.89282 0.50109 0.3046 0.0
C4233 C 0.87907 0.51777 0.3116 0.0
C4234 C 0.85827 0.51833 0.30331 0.0
C4235 C 0.85159 0.50419 0.28741 0.0
C4236 C 0.86551 0.48853 0.28037 0.0
C4237 C 0.88544 0.4862 0.28914 0.0
C4238 C 0.89553 0.46562 0.28054 0.0
C4239 C 0.91811 0.46877 0.27188 0.0
C4240 C 0.89552 0.44871 0.29828 0.0
C4241 C 0.87978 0.45932 0.26303 0.0
C4242 C 0.86218 0.47223 0.2642 0.0
C4243 C 0.84478 0.4691 0.25104 0.0
C4244 C 0.84538 0.45273 0.23587 0.0
C4245 C 0.86356 0.43964 0.23308 0.0
C4246 C 0.88091 0.44293 0.24742 0.0
H4247 H 0.8316 0.64307 0.51009 0.0
H4248 H 0.80943 0.66543 0.44903 0.0
H4249 H 0.77387 0.67108 0.46404 0.0
H4250 H 0.80018 0.61393 0.53182 0.0
H4251 H 0.79593 0.62526 0.55749 0.0
H4252 H 0.81955 0.6315 0.54316 0.0
H4253 H 0.8114 0.67112 0.54807 0.0
H4254 H 0.78751 0.66425 0.56225 0.0
H4255 H 0.78632 0.68182 0.53965 0.0
H4256 H 0.73634 0.66292 0.47645 0.0
H4257 H 0.70034 0.64723 0.4953 0.0
H4258 H 0.75779 0.62753 0.56117 0.0
C4259 C 0.81932 0.64985 0.50022 0.0
C4260 C 0.82335 0.65328 0.47819 0.0
C4261 C 0.80699 0.66248 0.46582 0.0
C4262 C 0.78659 0.66581 0.47428 0.0
C4263 C 0.78243 0.66054 0.49545 0.0
C4264 C 0.79892 0.65402 0.50897 0.0
C4265 C 0.79119 0.64814 0.53151 0.0
C4266 C 0.80231 0.62856 0.54135 0.0
C4267 C 0.79427 0.66746 0.54622 0.0
C4268 C 0.76763 0.64456 0.52825 0.0
C4269 C 0.76152 0.65524 0.50458 0.0
C4270 C 0.73759 0.65579 0.49206 0.0
C4271 C 0.7154 0.64475 0.50354 0.0
C4272 C 0.7248 0.62852 0.54099 0.0
C4273 C 0.75145 0.63215 0.54586 0.0
H4274 H 0.48847 0.69578 0.59233 0.0
H4275 H 0.51351 0.68289 0.65546 0.0
H4276 H 0.49039 0.71052 0.6704 0.0
H4277 H 0.48478 0.75422 0.60074 0.0
H4278 H 0.46102 0.75646 0.58501 0.0
H4279 H 0.48021 0.73612 0.57895 0.0
H4280 H 0.45098 0.70732 0.58231 0.0
H4281 H 0.43173 0.72749 0.58857 0.0
H4282 H 0.43582 0.70552 0.60656 0.0
H4283 H 0.46294 0.73704 0.67913 0.0
H4284 H 0.43404 0.76302 0.68108 0.0
H4285 H 0.42823 0.76163 0.61213 0.0
C4286 C 0.48931 0.69895 0.60925 0.0
C4287 C 0.50247 0.6867 0.62276 0.0
C4288 C 0.50304 0.69145 0.64483 0.0
C4289 C 0.49014 0.70731 0.65348 0.0
C4290 C 0.47704 0.7187 0.63985 0.0
C4291 C 0.47671 0.71503 0.61818 0.0
C4292 C 0.46096 0.72961 0.60722 0.0
C4293 C 0.47243 0.74502 0.59208 0.0
C4294 C 0.44386 0.71671 0.59548 0.0
C4295 C 0.45185 0.74131 0.62628 0.0
C4296 C 0.46156 0.73484 0.64487 0.0
C4297 C 0.45546 0.74257 0.66467 0.0
C4298 C 0.43904 0.75746 0.66557 0.0
C4299 C 0.42891 0.76472 0.64677 0.0
C4300 C 0.4355 0.75643 0.62684 0.0
H4301 H 0.38703 0.56728 0.23853 0.0
H4302 H 0.35413 0.51736 0.20012 0.0
H4303 H 0.35239 0.48951 0.19644 0.0
H4304 H 0.43719 0.52831 0.25168 0.0
H4305 H 0.43546 0.53665 0.27907 0.0
H4306 H 0.42826 0.55479 0.25803 0.0
H4307 H 0.39175 0.56017 0.27564 0.0
H4308 H 0.3986 0.542 0.29643 0.0
H4309 H 0.37517 0.53737 0.28074 0.0
H4310 H 0.402 0.45997 0.24168 0.0
H4311 H 0.40516 0.44467 0.27685 0.0
H4312 H 0.4107 0.50732 0.30405 0.0
C4313 C 0.38268 0.55216 0.23159 0.0
C4314 C 0.36329 0.55304 0.21255 0.0
C4315 C 0.35185 0.53231 0.19943 0.0
C4316 C 0.35998 0.50548 0.20455 0.0
C4317 C 0.38977 0.50584 0.23423 0.0
C4318 C 0.39502 0.5307 0.24221 0.0
C4319 C 0.40486 0.52984 0.26424 0.0
C4320 C 0.4278 0.53788 0.2632 0.0
C4321 C 0.39181 0.54309 0.28017 0.0
C4322 C 0.40439 0.50607 0.26986 0.0
C4323 C 0.39921 0.49287 0.25258 0.0
C4324 C 0.40224 0.47075 0.25499 0.0
C4325 C 0.40482 0.46184 0.27533 0.0
C4326 C 0.40658 0.4747 0.29357 0.0
C4327 C 0.40794 0.49708 0.29049 0.0
H4328 H 0.231 0.6568 0.06086 0.0
H4329 H 0.27846 0.61046 0.04273 0.0
H4330 H 0.25532 0.59796 0.01344 0.0
H4331 H 0.18464 0.6239 0.04791 0.0
H4332 H 0.16946 0.64601 0.03789 0.0
H4333 H 0.1891 0.65027 0.05827 0.0
H4334 H 0.20743 0.67849 0.03453 0.0
H4335 H 0.18801 0.67424 0.01396 0.0
H4336 H 0.21579 0.67132 0.00804 0.0
H4337 H 0.22806 0.59201 0.98475 0.0
H4338 H 0.19819 0.59166 0.9596 0.0
H4339 H 0.16764 0.64201 0.99557 0.0
C4340 C 0.23643 0.64398 0.05072 0.0
C4341 C 0.25661 0.63465 0.054 0.0
C4342 C 0.26318 0.61793 0.0404 0.0
C4343 C 0.25012 0.61071 0.02374 0.0
C4344 C 0.23059 0.62061 0.02054 0.0
C4345 C 0.2237 0.63682 0.03369 0.0
C4346 C 0.20218 0.645 0.02641 0.0
C4347 C 0.18534 0.64106 0.04364 0.0
C4348 C 0.20343 0.66867 0.02038 0.0
C4349 C 0.19821 0.63118 0.00688 0.0
C4350 C 0.21482 0.61717 0.00391 0.0
C4351 C 0.21497 0.60288 0.98698 0.0
C4352 C 0.19774 0.6027 0.97282 0.0
C4353 C 0.18019 0.61658 0.97557 0.0
C4354 C 0.1807 0.6312 0.99284 0.0
H4355 H 0.07996 0.49777 0.80304 0.0
H4356 H 0.14406 0.50848 0.82557 0.0
H4357 H 0.15664 0.47877 0.80362 0.0
H4358 H 0.08835 0.43664 0.79995 0.0
H4359 H 0.07135 0.43391 0.77709 0.0
H4360 H 0.0659 0.45406 0.79681 0.0
H4361 H 0.06778 0.4847 0.76785 0.0
H4362 H 0.06977 0.46277 0.74952 0.0
H4363 H 0.08922 0.4833 0.74896 0.0
H4364 H 0.16387 0.45276 0.77539 0.0
H4365 H 0.16512 0.42995 0.74375 0.0
H4366 H 0.09669 0.43364 0.73822 0.0
C4367 C 0.09655 0.49355 0.80364 0.0
C4368 C 0.11105 0.50596 0.81591 0.0
C4369 C 0.13264 0.49977 0.81612 0.0
C4370 C 0.13995 0.4826 0.80388 0.0
C4371 C 0.12554 0.4712 0.79153 0.0
C4372 C 0.1042 0.47613 0.79142 0.0
C4373 C 0.09253 0.46149 0.77578 0.0
C4374 C 0.07872 0.44558 0.78815 0.0
C4375 C 0.07903 0.47388 0.75965 0.0
C4376 C 0.11107 0.45005 0.76502 0.0
C4377 C 0.12979 0.45532 0.77514 0.0
C4378 C 0.14928 0.4482 0.76759 0.0
C4379 C 0.14984 0.43548 0.74926 0.0
C4380 C 0.1311 0.43005 0.73804 0.0
C4381 C 0.11134 0.43724 0.74639 0.0
H4382 H 0.26413 0.33985 0.56124 0.0
H4383 H 0.2216 0.39265 0.54976 0.0
H4384 H 0.24451 0.40484 0.52012 0.0
H4385 H 0.31305 0.36841 0.54978 0.0
H4386 H 0.32568 0.34615 0.5369 0.0
H4387 H 0.30605 0.34161 0.55723 0.0
H4388 H 0.28437 0.3184 0.53102 0.0
H4389 H 0.30392 0.32288 0.5106 0.0
H4390 H 0.27655 0.32936 0.50569 0.0
H4391 H 0.272 0.4111 0.49121 0.0
H4392 H 0.30128 0.41138 0.46556 0.0
H4393 H 0.32777 0.35513 0.49565 0.0
C4394 C 0.25967 0.35394 0.55242 0.0
C4395 C 0.24096 0.3653 0.55788 0.0
C4396 C 0.23578 0.38372 0.54596 0.0
C4397 C 0.24875 0.39076 0.52906 0.0
C4398 C 0.26705 0.37927 0.52405 0.0
C4399 C 0.27256 0.36126 0.53539 0.0
C4400 C 0.29307 0.35184 0.52656 0.0
C4401 C 0.3105 0.35201 0.54363 0.0
C4402 C 0.28925 0.32927 0.51796 0.0
C4403 C 0.29825 0.36728 0.50848 0.0
C4404 C 0.28293 0.38292 0.50736 0.0
C4405 C 0.28406 0.39892 0.49205 0.0
C4406 C 0.30113 0.39907 0.47759 0.0
C4407 C 0.31758 0.38359 0.47846 0.0
C4408 C 0.31574 0.36729 0.4942 0.0
H4409 H 0.3306 0.45058 0.28398 0.0
H4410 H 0.36579 0.40477 0.24681 0.0
H4411 H 0.37557 0.43277 0.22124 0.0
H4412 H 0.31272 0.48469 0.23623 0.0
H4413 H 0.31365 0.50816 0.2527 0.0
H4414 H 0.30646 0.48285 0.26417 0.0
H4415 H 0.33568 0.48811 0.29197 0.0
H4416 H 0.34451 0.51254 0.28004 0.0
H4417 H 0.36274 0.49078 0.28359 0.0
H4418 H 0.3916 0.46239 0.20292 0.0
H4419 H 0.40763 0.49758 0.18503 0.0
H4420 H 0.34984 0.53397 0.24303 0.0
C4421 C 0.33972 0.44664 0.26993 0.0
C4422 C 0.34747 0.42581 0.26698 0.0
C4423 C 0.35964 0.42072 0.24895 0.0
C4424 C 0.36515 0.4365 0.23439 0.0
C4425 C 0.35837 0.45726 0.2381 0.0
C4426 C 0.34519 0.46254 0.25524 0.0
C4427 C 0.34024 0.48639 0.25739 0.0
C4428 C 0.31688 0.49078 0.25232 0.0
C4429 C 0.34617 0.49495 0.27954 0.0
C4430 C 0.35418 0.49585 0.2405 0.0
C4431 C 0.36639 0.4761 0.22789 0.0
C4432 C 0.38564 0.47736 0.20888 0.0
C4433 C 0.39634 0.49947 0.19785 0.0
C4434 C 0.38863 0.52464 0.20521 0.0
C4435 C 0.35945 0.52198 0.23491 0.0
H4436 H 0.31772 0.64469 0.01891 0.0
H4437 H 0.3239 0.57583 0.01428 0.0
H4438 H 0.29681 0.57519 0.98678 0.0
H4439 H 0.26149 0.65054 0.00789 0.0
H4440 H 0.26525 0.67312 0.99096 0.0
H4441 H 0.28397 0.66766 0.01192 0.0
H4442 H 0.31359 0.66854 0.98299 0.0
H4443 H 0.2941 0.67275 0.96246 0.0
H4444 H 0.31202 0.65053 0.9607 0.0
H4445 H 0.26877 0.58072 0.96044 0.0
H4446 H 0.24274 0.59292 0.93412 0.0
H4447 H 0.25511 0.65849 0.95215 0.0
C4448 C 0.31342 0.62943 0.01225 0.0
C4449 C 0.32266 0.61018 0.01998 0.0
C4450 C 0.31662 0.59078 0.01 0.0
C4451 C 0.30129 0.5902 0.99395 0.0
C4452 C 0.29223 0.60917 0.98726 0.0
C4453 C 0.2982 0.62853 0.99574 0.0
C4454 C 0.28667 0.64658 0.98425 0.0
C4455 C 0.2736 0.66025 0.9997 0.0
C4456 C 0.30254 0.66042 0.97187 0.0
C4457 C 0.27252 0.63407 0.96902 0.0
C4458 C 0.27634 0.61254 0.97097 0.0
C4459 C 0.26578 0.59757 0.95856 0.0
C4460 C 0.25105 0.6047 0.94352 0.0
C4461 C 0.24695 0.62669 0.94072 0.0
C4462 C 0.25773 0.64156 0.95393 0.0
H4463 H 0.11174 0.48721 0.71464 0.0
H4464 H 0.15105 0.5043 0.66071 0.0
H4465 H 0.16264 0.53687 0.67961 0.0
H4466 H 0.09013 0.51572 0.73566 0.0
H4467 H 0.0958 0.54307 0.73064 0.0
H4468 H 0.09573 0.53334 0.75762 0.0
H4469 H 0.1268 0.51346 0.77185 0.0
H4470 H 0.1237 0.4924 0.75247 0.0
H4471 H 0.14857 0.50577 0.75499 0.0
H4472 H 0.16872 0.56911 0.70513 0.0
H4473 H 0.17103 0.59469 0.73467 0.0
H4474 H 0.13012 0.55391 0.77266 0.0
C4475 C 0.12259 0.4979 0.70665 0.0
C4476 C 0.13039 0.49305 0.68609 0.0
C4477 C 0.14498 0.50739 0.67653 0.0
C4478 C 0.1515 0.52611 0.68708 0.0
C4479 C 0.14337 0.53043 0.70729 0.0
C4480 C 0.12931 0.51662 0.71692 0.0
C4481 C 0.12374 0.52418 0.73908 0.0
C4482 C 0.09998 0.5293 0.74093 0.0
C4483 C 0.13111 0.50798 0.75565 0.0
C4484 C 0.13673 0.54424 0.74067 0.0
C4485 C 0.14776 0.54792 0.72209 0.0
C4486 C 0.16033 0.56603 0.71984 0.0
C4487 C 0.16171 0.58046 0.73702 0.0
C4488 C 0.151 0.57663 0.75665 0.0
C4489 C 0.13838 0.55803 0.75816 0.0
H4490 H 0.18037 0.35905 0.51849 0.0
H4491 H 0.17869 0.42812 0.51375 0.0
H4492 H 0.20746 0.42706 0.48777 0.0
H4493 H 0.23577 0.35013 0.51125 0.0
H4494 H 0.23273 0.32773 0.49381 0.0
H4495 H 0.21256 0.33368 0.51324 0.0
H4496 H 0.18466 0.33488 0.48297 0.0
H4497 H 0.20502 0.32915 0.4637 0.0
H4498 H 0.18873 0.35248 0.46067 0.0
H4499 H 0.23635 0.41953 0.46298 0.0
H4500 H 0.2624 0.40539 0.43766 0.0
H4501 H 0.24458 0.34091 0.45497 0.0
C4502 C 0.18586 0.37396 0.5119 0.0
C4503 C 0.17741 0.39375 0.51889 0.0
C4504 C 0.18523 0.41278 0.50957 0.0
C4505 C 0.20153 0.41238 0.49454 0.0
C4506 C 0.20969 0.39281 0.48839 0.0
C4507 C 0.20195 0.37387 0.49636 0.0
C4508 C 0.21284 0.35505 0.48568 0.0
C4509 C 0.22413 0.34081 0.50198 0.0
C4510 C 0.19686 0.34213 0.47247 0.0
C4511 C 0.22853 0.36655 0.47132 0.0
C4512 C 0.22618 0.38832 0.47313 0.0
C4513 C 0.23824 0.40251 0.46125 0.0
C4514 C 0.25295 0.3943 0.44683 0.0
C4515 C 0.25538 0.37205 0.44412 0.0
C4516 C 0.24322 0.35798 0.45683 0.0
H4517 H 0.52059 0.31524 0.39595 0.0
H4518 H 0.46985 0.2874 0.35874 0.0
H4519 H 0.49325 0.2574 0.34899 0.0
H4520 H 0.56426 0.29933 0.36182 0.0
H4521 H 0.58202 0.2931 0.38339 0.0
H4522 H 0.56169 0.31288 0.38698 0.0
H4523 H 0.54746 0.29237 0.41966 0.0
H4524 H 0.56769 0.27244 0.4162 0.0
H4525 H 0.54018 0.26476 0.4169 0.0
H4526 H 0.52138 0.22973 0.34413 0.0
H4527 H 0.55246 0.20644 0.34337 0.0
H4528 H 0.58642 0.25073 0.38408 0.0
C4529 C 0.51444 0.30276 0.38579 0.0
C4530 C 0.49324 0.30373 0.37811 0.0
C4531 C 0.48586 0.28702 0.36493 0.0
C4532 C 0.49909 0.26989 0.35929 0.0
C4533 C 0.51969 0.26919 0.36734 0.0
C4534 C 0.52738 0.28511 0.38039 0.0
C4535 C 0.5501 0.28003 0.38715 0.0
C4536 C 0.56543 0.29737 0.37937 0.0
C4537 C 0.55144 0.27724 0.41142 0.0
C4538 C 0.55403 0.2589 0.37569 0.0
C4539 C 0.53613 0.25305 0.36446 0.0
C4540 C 0.53551 0.23425 0.35276 0.0
C4541 C 0.55353 0.22115 0.35226 0.0
C4542 C 0.57249 0.22667 0.3632 0.0
C4543 C 0.57245 0.24586 0.37537 0.0
loop_
_geom_bond_atom_site_label_1
_geom_bond_atom_site_label_2
_geom_bond_distance
_geom_bond_site_symmetry_2
_ccdc_geom_bond_type
Li0 N17 1.990 . S
Li0 O60 1.956 . S
Li0 O61 1.970 . S
Li0 O62 1.961 . S
Li1 N25 1.990 . S
Li1 O60 1.970 . S
Li1 O61 1.956 . S
Li1 O63 1.961 . S
Li2 N47 1.990 . S
Li2 O60 1.961 . S
Li2 O62 1.956 . S
Li2 O63 1.970 . S
Li3 N53 1.990 . S
Li3 O61 1.961 . S
Li3 O62 1.970 . S
Li3 O63 1.956 . S
C4 C6 1.348 . S
C4 C7 1.356 . S
C4 O60 1.325 . S
N5 C8 1.314 . S
N5 C9 1.279 . S
C6 C4 1.348 . S
C6 C8 1.353 . S
C6 H64 0.929 . S
C7 C4 1.356 . S
C7 C9 1.358 . S
C7 H65 0.930 . S
C8 N5 1.314 . S
C8 C6 1.353 . S
C8 H66 0.930 . S
C9 N5 1.279 . S
C9 C7 1.358 . S
C9 H67 0.930 . S
C10 C13 1.348 . S
C10 C14 1.356 . S
C10 O61 1.325 . S
C11 N12 1.279 . S
C11 C14 1.358 . S
C11 H68 0.930 . S
N12 C11 1.279 . S
N12 C15 1.314 . S
C13 C10 1.348 . S
C13 C15 1.353 . S
C13 H69 0.929 . S
C14 C10 1.356 . S
C14 C11 1.358 . S
C14 H70 0.930 . S
C15 N12 1.314 . S
C15 C13 1.353 . S
C15 H71 0.930 . S
C16 N17 1.314 . S
C16 C21 1.353 . S
C16 H22 0.930 . S
N17 Li0 1.990 . S
N17 C16 1.314 . S
N17 C19 1.279 . S
C18 C19 1.358 . S
C18 C20 1.356 . S
C18 H72 0.930 . S
C19 N17 1.279 . S
C19 C18 1.358 . S
C19 H23 0.930 . S
C20 C18 1.356 . S
C20 C21 1.348 . S
C21 C16 1.353 . S
C21 C20 1.348 . S
C21 H73 0.929 . S
H22 C16 0.930 . S
H23 C19 0.930 . S
C24 N25 1.314 . S
C24 C26 1.353 . S
C24 H30 0.930 . S
N25 Li1 1.990 . S
N25 C24 1.314 . S
N25 C28 1.279 . S
C26 C24 1.353 . S
C26 C29 1.348 . S
C26 H74 0.929 . S
C27 C28 1.358 . S
C27 C29 1.356 . S
C27 H75 0.930 . S
C28 N25 1.279 . S
C28 C27 1.358 . S
C28 H31 0.930 . S
C29 C26 1.348 . S
C29 C27 1.356 . S
H30 C24 0.930 . S
H31 C28 0.930 . S
C32 C34 1.348 . S
C32 C35 1.356 . S
C32 O62 1.325 . S
N33 C36 1.314 . S
N33 C37 1.279 . S
C34 C32 1.348 . S
C34 C36 1.353 . S
C34 H76 0.929 . S
C35 C32 1.356 . S
C35 C37 1.358 . S
C35 H77 0.930 . S
C36 N33 1.314 . S
C36 C34 1.353 . S
C36 H78 0.930 . S
C37 N33 1.279 . S
C37 C35 1.358 . S
C37 H79 0.930 . S
C38 C39 1.348 . S
C38 C40 1.356 . S
C38 O63 1.325 . S
C39 C38 1.348 . S
C39 C41 1.353 . S
C39 H80 0.929 . S
C40 C38 1.356 . S
C40 C42 1.358 . S
C40 H81 0.930 . S
C41 C39 1.353 . S
C41 N43 1.314 . S
C41 H82 0.930 . S
C42 C40 1.358 . S
C42 N43 1.279 . S
C42 H83 0.930 . S
N43 C41 1.314 . S
N43 C42 1.279 . S
C44 C46 1.353 . S
C44 N47 1.314 . S
C44 H50 0.930 . S
C45 N47 1.279 . S
C45 C48 1.358 . S
C45 H51 0.930 . S
C46 C44 1.353 . S
C46 C49 1.348 . S
C46 H84 0.929 . S
N47 Li2 1.990 . S
N47 C44 1.314 . S
N47 C45 1.279 . S
C48 C45 1.358 . S
C48 C49 1.356 . S
C48 H85 0.930 . S
C49 C46 1.348 . S
C49 C48 1.356 . S
H50 C44 0.930 . S
H51 C45 0.930 . S
C52 N53 1.314 . S
C52 C54 1.353 . S
C52 H58 0.930 . S
N53 Li3 1.990 . S
N53 C52 1.314 . S
N53 C56 1.279 . S
C54 C52 1.353 . S
C54 C57 1.348 . S
C54 H86 0.929 . S
C55 C56 1.358 . S
C55 C57 1.356 . S
C55 H87 0.930 . S
C56 N53 1.279 . S
C56 C55 1.358 . S
C56 H59 0.930 . S
C57 C54 1.348 . S
C57 C55 1.356 . S
H58 C52 0.930 . S
H59 C56 0.930 . S
O60 Li0 1.956 . S
O60 Li1 1.970 . S
O60 Li2 1.961 . S
O60 C4 1.325 . S
O61 Li0 1.970 . S
O61 Li1 1.956 . S
O61 Li3 1.961 . S
O61 C10 1.325 . S
O62 Li0 1.961 . S
O62 Li2 1.956 . S
O62 Li3 1.970 . S
O62 C32 1.325 . S
O63 Li1 1.961 . S
O63 Li2 1.970 . S
O63 Li3 1.956 . S
O63 C38 1.325 . S
H64 C6 0.929 . S
H65 C7 0.930 . S
H66 C8 0.930 . S
H67 C9 0.930 . S
H68 C11 0.930 . S
H69 C13 0.929 . S
H70 C14 0.930 . S
H71 C15 0.930 . S
H72 C18 0.930 . S
H73 C21 0.929 . S
H74 C26 0.929 . S
H75 C27 0.930 . S
H76 C34 0.929 . S
H77 C35 0.930 . S
H78 C36 0.930 . S
H79 C37 0.930 . S
H80 C39 0.929 . S
H81 C40 0.930 . S
H82 C41 0.930 . S
H83 C42 0.930 . S
H84 C46 0.929 . S
H85 C48 0.930 . S
H86 C54 0.929 . S
H87 C55 0.930 . S
Li88 N105 1.990 . S
Li88 O148 1.956 . S
Li88 O149 1.970 . S
Li88 O150 1.961 . S
Li89 N113 1.990 . S
Li89 O148 1.970 . S
Li89 O149 1.956 . S
Li89 O151 1.961 . S
Li90 N135 1.990 . S
Li90 O148 1.961 . S
Li90 O150 1.956 . S
Li90 O151 1.970 . S
Li91 N141 1.990 . S
Li91 O149 1.961 . S
Li91 O150 1.970 . S
Li91 O151 1.956 . S
C92 C94 1.348 . S
C92 C95 1.356 . S
C92 O148 1.325 . S
N93 C96 1.314 . S
N93 C97 1.279 . S
C94 C92 1.348 . S
C94 C96 1.353 . S
C94 H152 0.929 . S
C95 C92 1.356 . S
C95 C97 1.358 . S
C95 H153 0.930 . S
C96 N93 1.314 . S
C96 C94 1.353 . S
C96 H154 0.930 . S
C97 N93 1.279 . S
C97 C95 1.358 . S
C97 H155 0.930 . S
C98 C101 1.348 . S
C98 C102 1.356 . S
C98 O149 1.325 . S
C99 N100 1.279 . S
C99 C102 1.358 . S
C99 H156 0.930 . S
N100 C99 1.279 . S
N100 C103 1.314 . S
C101 C98 1.348 . S
C101 C103 1.353 . S
C101 H157 0.929 . S
C102 C98 1.356 . S
C102 C99 1.358 . S
C102 H158 0.930 . S
C103 N100 1.314 . S
C103 C101 1.353 . S
C103 H159 0.930 . S
C104 N105 1.314 . S
C104 C109 1.353 . S
C104 H110 0.930 . S
N105 Li88 1.990 . S
N105 C104 1.314 . S
N105 C107 1.279 . S
C106 C107 1.358 . S
C106 C108 1.356 . S
C106 H160 0.930 . S
C107 N105 1.279 . S
C107 C106 1.358 . S
C107 H111 0.930 . S
C108 C106 1.356 . S
C108 C109 1.348 . S
C109 C104 1.353 . S
C109 C108 1.348 . S
C109 H161 0.929 . S
H110 C104 0.930 . S
H111 C107 0.930 . S
C112 N113 1.314 . S
C112 C114 1.353 . S
C112 H118 0.930 . S
N113 Li89 1.990 . S
N113 C112 1.314 . S
N113 C116 1.279 . S
C114 C112 1.353 . S
C114 C117 1.348 . S
C114 H162 0.929 . S
C115 C116 1.358 . S
C115 C117 1.356 . S
C115 H163 0.930 . S
C116 N113 1.279 . S
C116 C115 1.358 . S
C116 H119 0.930 . S
C117 C114 1.348 . S
C117 C115 1.356 . S
H118 C112 0.930 . S
H119 C116 0.930 . S
C120 C122 1.348 . S
C120 C123 1.356 . S
C120 O150 1.325 . S
N121 C124 1.314 . S
N121 C125 1.279 . S
C122 C120 1.348 . S
C122 C124 1.353 . S
C122 H164 0.929 . S
C123 C120 1.356 . S
C123 C125 1.358 . S
C123 H165 0.930 . S
C124 N121 1.314 . S
C124 C122 1.353 . S
C124 H166 0.930 . S
C125 N121 1.279 . S
C125 C123 1.358 . S
C125 H167 0.930 . S
C126 C127 1.348 . S
C126 C128 1.356 . S
C126 O151 1.325 . S
C127 C126 1.348 . S
C127 C129 1.353 . S
C127 H168 0.929 . S
C128 C126 1.356 . S
C128 C130 1.358 . S
C128 H169 0.930 . S
C129 C127 1.353 . S
C129 N131 1.314 . S
C129 H170 0.930 . S
C130 C128 1.358 . S
C130 N131 1.279 . S
C130 H171 0.930 . S
N131 C129 1.314 . S
N131 C130 1.279 . S
C132 C134 1.353 . S
C132 N135 1.314 . S
C132 H138 0.930 . S
C133 N135 1.279 . S
C133 C136 1.358 . S
C133 H139 0.930 . S
C134 C132 1.353 . S
C134 C137 1.348 . S
C134 H172 0.929 . S
N135 Li90 1.990 . S
N135 C132 1.314 . S
N135 C133 1.279 . S
C136 C133 1.358 . S
C136 C137 1.356 . S
C136 H173 0.930 . S
C137 C134 1.348 . S
C137 C136 1.356 . S
H138 C132 0.930 . S
H139 C133 0.930 . S
C140 N141 1.314 . S
C140 C142 1.353 . S
C140 H146 0.930 . S
N141 Li91 1.990 . S
N141 C140 1.314 . S
N141 C144 1.279 . S
C142 C140 1.353 . S
C142 C145 1.348 . S
C142 H174 0.929 . S
C143 C144 1.358 . S
C143 C145 1.356 . S
C143 H175 0.930 . S
C144 N141 1.279 . S
C144 C143 1.358 . S
C144 H147 0.930 . S
C145 C142 1.348 . S
C145 C143 1.356 . S
H146 C140 0.930 . S
H147 C144 0.930 . S
O148 Li88 1.956 . S
O148 Li89 1.970 . S
O148 Li90 1.961 . S
O148 C92 1.325 . S
O149 Li88 1.970 . S
O149 Li89 1.956 . S
O149 Li91 1.961 . S
O149 C98 1.325 . S
O150 Li88 1.961 . S
O150 Li90 1.956 . S
O150 Li91 1.970 . S
O150 C120 1.325 . S
O151 Li89 1.961 . S
O151 Li90 1.970 . S
O151 Li91 1.956 . S
O151 C126 1.325 . S
H152 C94 0.929 . S
H153 C95 0.930 . S
H154 C96 0.930 . S
H155 C97 0.930 . S
H156 C99 0.930 . S
H157 C101 0.929 . S
H158 C102 0.930 . S
H159 C103 0.930 . S
H160 C106 0.930 . S
H161 C109 0.929 . S
H162 C114 0.929 . S
H163 C115 0.930 . S
H164 C122 0.929 . S
H165 C123 0.930 . S
H166 C124 0.930 . S
H167 C125 0.930 . S
H168 C127 0.929 . S
H169 C128 0.930 . S
H170 C129 0.930 . S
H171 C130 0.930 . S
H172 C134 0.929 . S
H173 C136 0.930 . S
H174 C142 0.929 . S
H175 C143 0.930 . S
Li176 N193 1.990 . S
Li176 O236 1.956 . S
Li176 O237 1.970 . S
Li176 O238 1.961 . S
Li177 N201 1.990 . S
Li177 O236 1.970 . S
Li177 O237 1.956 . S
Li177 O239 1.961 . S
Li178 N223 1.990 . S
Li178 O236 1.961 . S
Li178 O238 1.956 . S
Li178 O239 1.970 . S
Li179 N229 1.990 . S
Li179 O237 1.961 . S
Li179 O238 1.970 . S
Li179 O239 1.956 . S
C180 C182 1.348 . S
C180 C183 1.356 . S
C180 O236 1.325 . S
N181 C184 1.314 . S
N181 C185 1.279 . S
C182 C180 1.348 . S
C182 C184 1.353 . S
C182 H240 0.929 . S
C183 C180 1.356 . S
C183 C185 1.358 . S
C183 H241 0.930 . S
C184 N181 1.314 . S
C184 C182 1.353 . S
C184 H242 0.930 . S
C185 N181 1.279 . S
C185 C183 1.358 . S
C185 H243 0.930 . S
C186 C189 1.348 . S
C186 C190 1.356 . S
C186 O237 1.325 . S
C187 N188 1.279 . S
C187 C190 1.358 . S
C187 H244 0.930 . S
N188 C187 1.279 . S
N188 C191 1.314 . S
C189 C186 1.348 . S
C189 C191 1.353 . S
C189 H245 0.929 . S
C190 C186 1.356 . S
C190 C187 1.358 . S
C190 H246 0.930 . S
C191 N188 1.314 . S
C191 C189 1.353 . S
C191 H247 0.930 . S
C192 N193 1.314 . S
C192 C197 1.353 . S
C192 H198 0.930 . S
N193 Li176 1.990 . S
N193 C192 1.314 . S
N193 C195 1.279 . S
C194 C195 1.358 . S
C194 C196 1.356 . S
C194 H248 0.930 . S
C195 N193 1.279 . S
C195 C194 1.358 . S
C195 H199 0.930 . S
C196 C194 1.356 . S
C196 C197 1.348 . S
C197 C192 1.353 . S
C197 C196 1.348 . S
C197 H249 0.929 . S
H198 C192 0.930 . S
H199 C195 0.930 . S
C200 N201 1.314 . S
C200 C202 1.353 . S
C200 H206 0.930 . S
N201 Li177 1.990 . S
N201 C200 1.314 . S
N201 C204 1.279 . S
C202 C200 1.353 . S
C202 C205 1.348 . S
C202 H250 0.929 . S
C203 C204 1.358 . S
C203 C205 1.356 . S
C203 H251 0.930 . S
C204 N201 1.279 . S
C204 C203 1.358 . S
C204 H207 0.930 . S
C205 C202 1.348 . S
C205 C203 1.356 . S
H206 C200 0.930 . S
H207 C204 0.930 . S
C208 C210 1.348 . S
C208 C211 1.356 . S
C208 O238 1.325 . S
N209 C212 1.314 . S
N209 C213 1.279 . S
C210 C208 1.348 . S
C210 C212 1.353 . S
C210 H252 0.929 . S
C211 C208 1.356 . S
C211 C213 1.358 . S
C211 H253 0.930 . S
C212 N209 1.314 . S
C212 C210 1.353 . S
C212 H254 0.930 . S
C213 N209 1.279 . S
C213 C211 1.358 . S
C213 H255 0.930 . S
C214 C215 1.348 . S
C214 C216 1.356 . S
C214 O239 1.325 . S
C215 C214 1.348 . S
C215 C217 1.353 . S
C215 H256 0.929 . S
C216 C214 1.356 . S
C216 C218 1.358 . S
C216 H257 0.930 . S
C217 C215 1.353 . S
C217 N219 1.314 . S
C217 H258 0.930 . S
C218 C216 1.358 . S
C218 N219 1.279 . S
C218 H259 0.930 . S
N219 C217 1.314 . S
N219 C218 1.279 . S
C220 C222 1.353 . S
C220 N223 1.314 . S
C220 H226 0.930 . S
C221 N223 1.279 . S
C221 C224 1.358 . S
C221 H227 0.930 . S
C222 C220 1.353 . S
C222 C225 1.348 . S
C222 H260 0.929 . S
N223 Li178 1.990 . S
N223 C220 1.314 . S
N223 C221 1.279 . S
C224 C221 1.358 . S
C224 C225 1.356 . S
C224 H261 0.930 . S
C225 C222 1.348 . S
C225 C224 1.356 . S
H226 C220 0.930 . S
H227 C221 0.930 . S
C228 N229 1.314 . S
C228 C230 1.353 . S
C228 H234 0.930 . S
N229 Li179 1.990 . S
N229 C228 1.314 . S
N229 C232 1.279 . S
C230 C228 1.353 . S
C230 C233 1.348 . S
C230 H262 0.929 . S
C231 C232 1.358 . S
C231 C233 1.356 . S
C231 H263 0.930 . S
C232 N229 1.279 . S
C232 C231 1.358 . S
C232 H235 0.930 . S
C233 C230 1.348 . S
C233 C231 1.356 . S
H234 C228 0.930 . S
H235 C232 0.930 . S
O236 Li176 1.956 . S
O236 Li177 1.970 . S
O236 Li178 1.961 . S
O236 C180 1.325 . S
O237 Li176 1.970 . S
O237 Li177 1.956 . S
O237 Li179 1.961 . S
O237 C186 1.325 . S
O238 Li176 1.961 . S
O238 Li178 1.956 . S
O238 Li179 1.970 . S
O238 C208 1.325 . S
O239 Li177 1.961 . S
O239 Li178 1.970 . S
O239 Li179 1.956 . S
O239 C214 1.325 . S
H240 C182 0.929 . S
H241 C183 0.930 . S
H242 C184 0.930 . S
H243 C185 0.930 . S
H244 C187 0.930 . S
H245 C189 0.929 . S
H246 C190 0.930 . S
H247 C191 0.930 . S
H248 C194 0.930 . S
H249 C197 0.929 . S
H250 C202 0.929 . S
H251 C203 0.930 . S
H252 C210 0.929 . S
H253 C211 0.930 . S
H254 C212 0.930 . S
H255 C213 0.930 . S
H256 C215 0.929 . S
H257 C216 0.930 . S
H258 C217 0.930 . S
H259 C218 0.930 . S
H260 C222 0.929 . S
H261 C224 0.930 . S
H262 C230 0.929 . S
H263 C231 0.930 . S
Li264 N281 1.990 . S
Li264 O324 1.956 . S
Li264 O325 1.970 . S
Li264 O326 1.961 . S
Li265 N289 1.990 . S
Li265 O324 1.970 . S
Li265 O325 1.956 . S
Li265 O327 1.961 . S
Li266 N311 1.990 . S
Li266 O324 1.961 . S
Li266 O326 1.956 . S
Li266 O327 1.970 . S
Li267 N317 1.990 . S
Li267 O325 1.961 . S
Li267 O326 1.970 . S
Li267 O327 1.956 . S
C268 C270 1.348 . S
C268 C271 1.356 . S
C268 O324 1.325 . S
N269 C272 1.314 . S
N269 C273 1.279 . S
C270 C268 1.348 . S
C270 C272 1.353 . S
C270 H328 0.929 . S
C271 C268 1.356 . S
C271 C273 1.358 . S
C271 H329 0.930 . S
C272 N269 1.314 . S
C272 C270 1.353 . S
C272 H330 0.930 . S
C273 N269 1.279 . S
C273 C271 1.358 . S
C273 H331 0.930 . S
C274 C277 1.348 . S
C274 C278 1.356 . S
C274 O325 1.325 . S
C275 N276 1.279 . S
C275 C278 1.358 . S
C275 H332 0.930 . S
N276 C275 1.279 . S
N276 C279 1.314 . S
C277 C274 1.348 . S
C277 C279 1.353 . S
C277 H333 0.929 . S
C278 C274 1.356 . S
C278 C275 1.358 . S
C278 H334 0.930 . S
C279 N276 1.314 . S
C279 C277 1.353 . S
C279 H335 0.930 . S
C280 N281 1.314 . S
C280 C285 1.353 . S
C280 H286 0.930 . S
N281 Li264 1.990 . S
N281 C280 1.314 . S
N281 C283 1.279 . S
C282 C283 1.358 . S
C282 C284 1.356 . S
C282 H336 0.930 . S
C283 N281 1.279 . S
C283 C282 1.358 . S
C283 H287 0.930 . S
C284 C282 1.356 . S
C284 C285 1.348 . S
C285 C280 1.353 . S
C285 C284 1.348 . S
C285 H337 0.929 . S
H286 C280 0.930 . S
H287 C283 0.930 . S
C288 N289 1.314 . S
C288 C290 1.353 . S
C288 H294 0.930 . S
N289 Li265 1.990 . S
N289 C288 1.314 . S
N289 C292 1.279 . S
C290 C288 1.353 . S
C290 C293 1.348 . S
C290 H338 0.929 . S
C291 C292 1.358 . S
C291 C293 1.356 . S
C291 H339 0.930 . S
C292 N289 1.279 . S
C292 C291 1.358 . S
C292 H295 0.930 . S
C293 C290 1.348 . S
C293 C291 1.356 . S
H294 C288 0.930 . S
H295 C292 0.930 . S
C296 C298 1.348 . S
C296 C299 1.356 . S
C296 O326 1.325 . S
N297 C300 1.314 . S
N297 C301 1.279 . S
C298 C296 1.348 . S
C298 C300 1.353 . S
C298 H340 0.929 . S
C299 C296 1.356 . S
C299 C301 1.358 . S
C299 H341 0.930 . S
C300 N297 1.314 . S
C300 C298 1.353 . S
C300 H342 0.930 . S
C301 N297 1.279 . S
C301 C299 1.358 . S
C301 H343 0.930 . S
C302 C303 1.348 . S
C302 C304 1.356 . S
C302 O327 1.325 . S
C303 C302 1.348 . S
C303 C305 1.353 . S
C303 H344 0.929 . S
C304 C302 1.356 . S
C304 C306 1.358 . S
C304 H345 0.930 . S
C305 C303 1.353 . S
C305 N307 1.314 . S
C305 H346 0.930 . S
C306 C304 1.358 . S
C306 N307 1.279 . S
C306 H347 0.930 . S
N307 C305 1.314 . S
N307 C306 1.279 . S
C308 C310 1.353 . S
C308 N311 1.314 . S
C308 H314 0.930 . S
C309 N311 1.279 . S
C309 C312 1.358 . S
C309 H315 0.930 . S
C310 C308 1.353 . S
C310 C313 1.348 . S
C310 H348 0.929 . S
N311 Li266 1.990 . S
N311 C308 1.314 . S
N311 C309 1.279 . S
C312 C309 1.358 . S
C312 C313 1.356 . S
C312 H349 0.930 . S
C313 C310 1.348 . S
C313 C312 1.356 . S
H314 C308 0.930 . S
H315 C309 0.930 . S
C316 N317 1.314 . S
C316 C318 1.353 . S
C316 H322 0.930 . S
N317 Li267 1.990 . S
N317 C316 1.314 . S
N317 C320 1.279 . S
C318 C316 1.353 . S
C318 C321 1.348 . S
C318 H350 0.929 . S
C319 C320 1.358 . S
C319 C321 1.356 . S
C319 H351 0.930 . S
C320 N317 1.279 . S
C320 C319 1.358 . S
C320 H323 0.930 . S
C321 C318 1.348 . S
C321 C319 1.356 . S
H322 C316 0.930 . S
H323 C320 0.930 . S
O324 Li264 1.956 . S
O324 Li265 1.970 . S
O324 Li266 1.961 . S
O324 C268 1.325 . S
O325 Li264 1.970 . S
O325 Li265 1.956 . S
O325 Li267 1.961 . S
O325 C274 1.325 . S
O326 Li264 1.961 . S
O326 Li266 1.956 . S
O326 Li267 1.970 . S
O326 C296 1.325 . S
O327 Li265 1.961 . S
O327 Li266 1.970 . S
O327 Li267 1.956 . S
O327 C302 1.325 . S
H328 C270 0.929 . S
H329 C271 0.930 . S
H330 C272 0.930 . S
H331 C273 0.930 . S
H332 C275 0.930 . S
H333 C277 0.929 . S
H334 C278 0.930 . S
H335 C279 0.930 . S
H336 C282 0.930 . S
H337 C285 0.929 . S
H338 C290 0.929 . S
H339 C291 0.930 . S
H340 C298 0.929 . S
H341 C299 0.930 . S
H342 C300 0.930 . S
H343 C301 0.930 . S
H344 C303 0.929 . S
H345 C304 0.930 . S
H346 C305 0.930 . S
H347 C306 0.930 . S
H348 C310 0.929 . S
H349 C312 0.930 . S
H350 C318 0.929 . S
H351 C319 0.930 . S
Li352 N369 1.990 . S
Li352 O412 1.956 . S
Li352 O413 1.970 . S
Li352 O414 1.961 . S
Li353 N377 1.990 . S
Li353 O412 1.970 . S
Li353 O413 1.956 . S
Li353 O415 1.961 . S
Li354 N399 1.990 . S
Li354 O412 1.961 . S
Li354 O414 1.956 . S
Li354 O415 1.970 . S
Li355 N405 1.990 . S
Li355 O413 1.961 . S
Li355 O414 1.970 . S
Li355 O415 1.956 . S
C356 C358 1.348 . S
C356 C359 1.356 . S
C356 O412 1.325 . S
N357 C360 1.314 . S
N357 C361 1.279 . S
C358 C356 1.348 . S
C358 C360 1.353 . S
C358 H416 0.929 . S
C359 C356 1.356 . S
C359 C361 1.358 . S
C359 H417 0.930 . S
C360 N357 1.314 . S
C360 C358 1.353 . S
C360 H418 0.930 . S
C361 N357 1.279 . S
C361 C359 1.358 . S
C361 H419 0.930 . S
C362 C365 1.348 . S
C362 C366 1.356 . S
C362 O413 1.325 . S
C363 N364 1.279 . S
C363 C366 1.358 . S
C363 H420 0.930 . S
N364 C363 1.279 . S
N364 C367 1.314 . S
C365 C362 1.348 . S
C365 C367 1.353 . S
C365 H421 0.929 . S
C366 C362 1.356 . S
C366 C363 1.358 . S
C366 H422 0.930 . S
C367 N364 1.314 . S
C367 C365 1.353 . S
C367 H423 0.930 . S
C368 N369 1.314 . S
C368 C373 1.353 . S
C368 H374 0.930 . S
N369 Li352 1.990 . S
N369 C368 1.314 . S
N369 C371 1.279 . S
C370 C371 1.358 . S
C370 C372 1.356 . S
C370 H424 0.930 . S
C371 N369 1.279 . S
C371 C370 1.358 . S
C371 H375 0.930 . S
C372 C370 1.356 . S
C372 C373 1.348 . S
C373 C368 1.353 . S
C373 C372 1.348 . S
C373 H425 0.929 . S
H374 C368 0.930 . S
H375 C371 0.930 . S
C376 N377 1.314 . S
C376 C378 1.353 . S
C376 H382 0.930 . S
N377 Li353 1.990 . S
N377 C376 1.314 . S
N377 C380 1.279 . S
C378 C376 1.353 . S
C378 C381 1.348 . S
C378 H426 0.929 . S
C379 C380 1.358 . S
C379 C381 1.356 . S
C379 H427 0.930 . S
C380 N377 1.279 . S
C380 C379 1.358 . S
C380 H383 0.930 . S
C381 C378 1.348 . S
C381 C379 1.356 . S
H382 C376 0.930 . S
H383 C380 0.930 . S
C384 C386 1.348 . S
C384 C387 1.356 . S
C384 O414 1.325 . S
N385 C388 1.314 . S
N385 C389 1.279 . S
C386 C384 1.348 . S
C386 C388 1.353 . S
C386 H428 0.929 . S
C387 C384 1.356 . S
C387 C389 1.358 . S
C387 H429 0.930 . S
C388 N385 1.314 . S
C388 C386 1.353 . S
C388 H430 0.930 . S
C389 N385 1.279 . S
C389 C387 1.358 . S
C389 H431 0.930 . S
C390 C391 1.348 . S
C390 C392 1.356 . S
C390 O415 1.325 . S
C391 C390 1.348 . S
C391 C393 1.353 . S
C391 H432 0.929 . S
C392 C390 1.356 . S
C392 C394 1.358 . S
C392 H433 0.930 . S
C393 C391 1.353 . S
C393 N395 1.314 . S
C393 H434 0.930 . S
C394 C392 1.358 . S
C394 N395 1.279 . S
C394 H435 0.930 . S
N395 C393 1.314 . S
N395 C394 1.279 . S
C396 C398 1.353 . S
C396 N399 1.314 . S
C396 H402 0.930 . S
C397 N399 1.279 . S
C397 C400 1.358 . S
C397 H403 0.930 . S
C398 C396 1.353 . S
C398 C401 1.348 . S
C398 H436 0.929 . S
N399 Li354 1.990 . S
N399 C396 1.314 . S
N399 C397 1.279 . S
C400 C397 1.358 . S
C400 C401 1.356 . S
C400 H437 0.930 . S
C401 C398 1.348 . S
C401 C400 1.356 . S
H402 C396 0.930 . S
H403 C397 0.930 . S
C404 N405 1.314 . S
C404 C406 1.353 . S
C404 H410 0.930 . S
N405 Li355 1.990 . S
N405 C404 1.314 . S
N405 C408 1.279 . S
C406 C404 1.353 . S
C406 C409 1.348 . S
C406 H438 0.929 . S
C407 C408 1.358 . S
C407 C409 1.356 . S
C407 H439 0.930 . S
C408 N405 1.279 . S
C408 C407 1.358 . S
C408 H411 0.930 . S
C409 C406 1.348 . S
C409 C407 1.356 . S
H410 C404 0.930 . S
H411 C408 0.930 . S
O412 Li352 1.956 . S
O412 Li353 1.970 . S
O412 Li354 1.961 . S
O412 C356 1.325 . S
O413 Li352 1.970 . S
O413 Li353 1.956 . S
O413 Li355 1.961 . S
O413 C362 1.325 . S
O414 Li352 1.961 . S
O414 Li354 1.956 . S
O414 Li355 1.970 . S
O414 C384 1.325 . S
O415 Li353 1.961 . S
O415 Li354 1.970 . S
O415 Li355 1.956 . S
O415 C390 1.325 . S
H416 C358 0.929 . S
H417 C359 0.930 . S
H418 C360 0.930 . S
H419 C361 0.930 . S
H420 C363 0.930 . S
H421 C365 0.929 . S
H422 C366 0.930 . S
H423 C367 0.930 . S
H424 C370 0.930 . S
H425 C373 0.929 . S
H426 C378 0.929 . S
H427 C379 0.930 . S
H428 C386 0.929 . S
H429 C387 0.930 . S
H430 C388 0.930 . S
H431 C389 0.930 . S
H432 C391 0.929 . S
H433 C392 0.930 . S
H434 C393 0.930 . S
H435 C394 0.930 . S
H436 C398 0.929 . S
H437 C400 0.930 . S
H438 C406 0.929 . S
H439 C407 0.930 . S
Li440 N457 1.990 . S
Li440 O500 1.956 . S
Li440 O501 1.970 . S
Li440 O502 1.961 . S
Li441 N465 1.990 . S
Li441 O500 1.970 . S
Li441 O501 1.956 . S
Li441 O503 1.961 . S
Li442 N487 1.990 . S
Li442 O500 1.961 . S
Li442 O502 1.956 . S
Li442 O503 1.970 . S
Li443 N493 1.990 . S
Li443 O501 1.961 . S
Li443 O502 1.970 . S
Li443 O503 1.956 . S
C444 C446 1.348 . S
C444 C447 1.356 . S
C444 O500 1.325 . S
N445 C448 1.314 . S
N445 C449 1.279 . S
C446 C444 1.348 . S
C446 C448 1.353 . S
C446 H504 0.929 . S
C447 C444 1.356 . S
C447 C449 1.358 . S
C447 H505 0.930 . S
C448 N445 1.314 . S
C448 C446 1.353 . S
C448 H506 0.930 . S
C449 N445 1.279 . S
C449 C447 1.358 . S
C449 H507 0.930 . S
C450 C453 1.348 . S
C450 C454 1.356 . S
C450 O501 1.325 . S
C451 N452 1.279 . S
C451 C454 1.358 . S
C451 H508 0.930 . S
N452 C451 1.279 . S
N452 C455 1.314 . S
C453 C450 1.348 . S
C453 C455 1.353 . S
C453 H509 0.929 . S
C454 C450 1.356 . S
C454 C451 1.358 . S
C454 H510 0.930 . S
C455 N452 1.314 . S
C455 C453 1.353 . S
C455 H511 0.930 . S
C456 N457 1.314 . S
C456 C461 1.353 . S
C456 H462 0.930 . S
N457 Li440 1.990 . S
N457 C456 1.314 . S
N457 C459 1.279 . S
C458 C459 1.358 . S
C458 C460 1.356 . S
C458 H512 0.930 . S
C459 N457 1.279 . S
C459 C458 1.358 . S
C459 H463 0.930 . S
C460 C458 1.356 . S
C460 C461 1.348 . S
C461 C456 1.353 . S
C461 C460 1.348 . S
C461 H513 0.929 . S
H462 C456 0.930 . S
H463 C459 0.930 . S
C464 N465 1.314 . S
C464 C466 1.353 . S
C464 H470 0.930 . S
N465 Li441 1.990 . S
N465 C464 1.314 . S
N465 C468 1.279 . S
C466 C464 1.353 . S
C466 C469 1.348 . S
C466 H514 0.929 . S
C467 C468 1.358 . S
C467 C469 1.356 . S
C467 H515 0.930 . S
C468 N465 1.279 . S
C468 C467 1.358 . S
C468 H471 0.930 . S
C469 C466 1.348 . S
C469 C467 1.356 . S
H470 C464 0.930 . S
H471 C468 0.930 . S
C472 C474 1.348 . S
C472 C475 1.356 . S
C472 O502 1.325 . S
N473 C476 1.314 . S
N473 C477 1.279 . S
C474 C472 1.348 . S
C474 C476 1.353 . S
C474 H516 0.929 . S
C475 C472 1.356 . S
C475 C477 1.358 . S
C475 H517 0.930 . S
C476 N473 1.314 . S
C476 C474 1.353 . S
C476 H518 0.930 . S
C477 N473 1.279 . S
C477 C475 1.358 . S
C477 H519 0.930 . S
C478 C479 1.348 . S
C478 C480 1.356 . S
C478 O503 1.325 . S
C479 C478 1.348 . S
C479 C481 1.353 . S
C479 H520 0.929 . S
C480 C478 1.356 . S
C480 C482 1.358 . S
C480 H521 0.930 . S
C481 C479 1.353 . S
C481 N483 1.314 . S
C481 H522 0.930 . S
C482 C480 1.358 . S
C482 N483 1.279 . S
C482 H523 0.930 . S
N483 C481 1.314 . S
N483 C482 1.279 . S
C484 C486 1.353 . S
C484 N487 1.314 . S
C484 H490 0.930 . S
C485 N487 1.279 . S
C485 C488 1.358 . S
C485 H491 0.930 . S
C486 C484 1.353 . S
C486 C489 1.348 . S
C486 H524 0.929 . S
N487 Li442 1.990 . S
N487 C484 1.314 . S
N487 C485 1.279 . S
C488 C485 1.358 . S
C488 C489 1.356 . S
C488 H525 0.930 . S
C489 C486 1.348 . S
C489 C488 1.356 . S
H490 C484 0.930 . S
H491 C485 0.930 . S
C492 N493 1.314 . S
C492 C494 1.353 . S
C492 H498 0.930 . S
N493 Li443 1.990 . S
N493 C492 1.314 . S
N493 C496 1.279 . S
C494 C492 1.353 . S
C494 C497 1.348 . S
C494 H526 0.929 . S
C495 C496 1.358 . S
C495 C497 1.356 . S
C495 H527 0.930 . S
C496 N493 1.279 . S
C496 C495 1.358 . S
C496 H499 0.930 . S
C497 C494 1.348 . S
C497 C495 1.356 . S
H498 C492 0.930 . S
H499 C496 0.930 . S
O500 Li440 1.956 . S
O500 Li441 1.970 . S
O500 Li442 1.961 . S
O500 C444 1.325 . S
O501 Li440 1.970 . S
O501 Li441 1.956 . S
O501 Li443 1.961 . S
O501 C450 1.325 . S
O502 Li440 1.961 . S
O502 Li442 1.956 . S
O502 Li443 1.970 . S
O502 C472 1.325 . S
O503 Li441 1.961 . S
O503 Li442 1.970 . S
O503 Li443 1.956 . S
O503 C478 1.325 . S
H504 C446 0.929 . S
H505 C447 0.930 . S
H506 C448 0.930 . S
H507 C449 0.930 . S
H508 C451 0.930 . S
H509 C453 0.929 . S
H510 C454 0.930 . S
H511 C455 0.930 . S
H512 C458 0.930 . S
H513 C461 0.929 . S
H514 C466 0.929 . S
H515 C467 0.930 . S
H516 C474 0.929 . S
H517 C475 0.930 . S
H518 C476 0.930 . S
H519 C477 0.930 . S
H520 C479 0.929 . S
H521 C480 0.930 . S
H522 C481 0.930 . S
H523 C482 0.930 . S
H524 C486 0.929 . S
H525 C488 0.930 . S
H526 C494 0.929 . S
H527 C495 0.930 . S
Li528 N545 1.990 . S
Li528 O588 1.956 . S
Li528 O589 1.970 . S
Li528 O590 1.961 . S
Li529 N553 1.990 . S
Li529 O588 1.970 . S
Li529 O589 1.956 . S
Li529 O591 1.961 . S
Li530 N575 1.990 . S
Li530 O588 1.961 . S
Li530 O590 1.956 . S
Li530 O591 1.970 . S
Li531 N581 1.990 . S
Li531 O589 1.961 . S
Li531 O590 1.970 . S
Li531 O591 1.956 . S
C532 C534 1.348 . S
C532 C535 1.356 . S
C532 O588 1.325 . S
N533 C536 1.314 . S
N533 C537 1.279 . S
C534 C532 1.348 . S
C534 C536 1.353 . S
C534 H592 0.929 . S
C535 C532 1.356 . S
C535 C537 1.358 . S
C535 H593 0.930 . S
C536 N533 1.314 . S
C536 C534 1.353 . S
C536 H594 0.930 . S
C537 N533 1.279 . S
C537 C535 1.358 . S
C537 H595 0.930 . S
C538 C541 1.348 . S
C538 C542 1.356 . S
C538 O589 1.325 . S
C539 N540 1.279 . S
C539 C542 1.358 . S
C539 H596 0.930 . S
N540 C539 1.279 . S
N540 C543 1.314 . S
C541 C538 1.348 . S
C541 C543 1.353 . S
C541 H597 0.929 . S
C542 C538 1.356 . S
C542 C539 1.358 . S
C542 H598 0.930 . S
C543 N540 1.314 . S
C543 C541 1.353 . S
C543 H599 0.930 . S
C544 N545 1.314 . S
C544 C549 1.353 . S
C544 H550 0.930 . S
N545 Li528 1.990 . S
N545 C544 1.314 . S
N545 C547 1.279 . S
C546 C547 1.358 . S
C546 C548 1.356 . S
C546 H600 0.930 . S
C547 N545 1.279 . S
C547 C546 1.358 . S
C547 H551 0.930 . S
C548 C546 1.356 . S
C548 C549 1.348 . S
C549 C544 1.353 . S
C549 C548 1.348 . S
C549 H601 0.929 . S
H550 C544 0.930 . S
H551 C547 0.930 . S
C552 N553 1.314 . S
C552 C554 1.353 . S
C552 H558 0.930 . S
N553 Li529 1.990 . S
N553 C552 1.314 . S
N553 C556 1.279 . S
C554 C552 1.353 . S
C554 C557 1.348 . S
C554 H602 0.929 . S
C555 C556 1.358 . S
C555 C557 1.356 . S
C555 H603 0.930 . S
C556 N553 1.279 . S
C556 C555 1.358 . S
C556 H559 0.930 . S
C557 C554 1.348 . S
C557 C555 1.356 . S
H558 C552 0.930 . S
H559 C556 0.930 . S
C560 C562 1.348 . S
C560 C563 1.356 . S
C560 O590 1.325 . S
N561 C564 1.314 . S
N561 C565 1.279 . S
C562 C560 1.348 . S
C562 C564 1.353 . S
C562 H604 0.929 . S
C563 C560 1.356 . S
C563 C565 1.358 . S
C563 H605 0.930 . S
C564 N561 1.314 . S
C564 C562 1.353 . S
C564 H606 0.930 . S
C565 N561 1.279 . S
C565 C563 1.358 . S
C565 H607 0.930 . S
C566 C567 1.348 . S
C566 C568 1.356 . S
C566 O591 1.325 . S
C567 C566 1.348 . S
C567 C569 1.353 . S
C567 H608 0.929 . S
C568 C566 1.356 . S
C568 C570 1.358 . S
C568 H609 0.930 . S
C569 C567 1.353 . S
C569 N571 1.314 . S
C569 H610 0.930 . S
C570 C568 1.358 . S
C570 N571 1.279 . S
C570 H611 0.930 . S
N571 C569 1.314 . S
N571 C570 1.279 . S
C572 C574 1.353 . S
C572 N575 1.314 . S
C572 H578 0.930 . S
C573 N575 1.279 . S
C573 C576 1.358 . S
C573 H579 0.930 . S
C574 C572 1.353 . S
C574 C577 1.348 . S
C574 H612 0.929 . S
N575 Li530 1.990 . S
N575 C572 1.314 . S
N575 C573 1.279 . S
C576 C573 1.358 . S
C576 C577 1.356 . S
C576 H613 0.930 . S
C577 C574 1.348 . S
C577 C576 1.356 . S
H578 C572 0.930 . S
H579 C573 0.930 . S
C580 N581 1.314 . S
C580 C582 1.353 . S
C580 H586 0.930 . S
N581 Li531 1.990 . S
N581 C580 1.314 . S
N581 C584 1.279 . S
C582 C580 1.353 . S
C582 C585 1.348 . S
C582 H614 0.929 . S
C583 C584 1.358 . S
C583 C585 1.356 . S
C583 H615 0.930 . S
C584 N581 1.279 . S
C584 C583 1.358 . S
C584 H587 0.930 . S
C585 C582 1.348 . S
C585 C583 1.356 . S
H586 C580 0.930 . S
H587 C584 0.930 . S
O588 Li528 1.956 . S
O588 Li529 1.970 . S
O588 Li530 1.961 . S
O588 C532 1.325 . S
O589 Li528 1.970 . S
O589 Li529 1.956 . S
O589 Li531 1.961 . S
O589 C538 1.325 . S
O590 Li528 1.961 . S
O590 Li530 1.956 . S
O590 Li531 1.970 . S
O590 C560 1.325 . S
O591 Li529 1.961 . S
O591 Li530 1.970 . S
O591 Li531 1.956 . S
O591 C566 1.325 . S
H592 C534 0.929 . S
H593 C535 0.930 . S
H594 C536 0.930 . S
H595 C537 0.930 . S
H596 C539 0.930 . S
H597 C541 0.929 . S
H598 C542 0.930 . S
H599 C543 0.930 . S
H600 C546 0.930 . S
H601 C549 0.929 . S
H602 C554 0.929 . S
H603 C555 0.930 . S
H604 C562 0.929 . S
H605 C563 0.930 . S
H606 C564 0.930 . S
H607 C565 0.930 . S
H608 C567 0.929 . S
H609 C568 0.930 . S
H610 C569 0.930 . S
H611 C570 0.930 . S
H612 C574 0.929 . S
H613 C576 0.930 . S
H614 C582 0.929 . S
H615 C583 0.930 . S
Li616 N633 1.990 . S
Li616 O676 1.956 . S
Li616 O677 1.970 . S
Li616 O678 1.961 . S
Li617 N641 1.990 . S
Li617 O676 1.970 . S
Li617 O677 1.956 . S
Li617 O679 1.961 . S
Li618 N663 1.990 . S
Li618 O676 1.961 . S
Li618 O678 1.956 . S
Li618 O679 1.970 . S
Li619 N669 1.990 . S
Li619 O677 1.961 . S
Li619 O678 1.970 . S
Li619 O679 1.956 . S
C620 C622 1.348 . S
C620 C623 1.356 . S
C620 O676 1.325 . S
N621 C624 1.314 . S
N621 C625 1.279 . S
C622 C620 1.348 . S
C622 C624 1.353 . S
C622 H680 0.929 . S
C623 C620 1.356 . S
C623 C625 1.358 . S
C623 H681 0.930 . S
C624 N621 1.314 . S
C624 C622 1.353 . S
C624 H682 0.930 . S
C625 N621 1.279 . S
C625 C623 1.358 . S
C625 H683 0.930 . S
C626 C629 1.348 . S
C626 C630 1.356 . S
C626 O677 1.325 . S
C627 N628 1.279 . S
C627 C630 1.358 . S
C627 H684 0.930 . S
N628 C627 1.279 . S
N628 C631 1.314 . S
C629 C626 1.348 . S
C629 C631 1.353 . S
C629 H685 0.929 . S
C630 C626 1.356 . S
C630 C627 1.358 . S
C630 H686 0.930 . S
C631 N628 1.314 . S
C631 C629 1.353 . S
C631 H687 0.930 . S
C632 N633 1.314 . S
C632 C637 1.353 . S
C632 H638 0.930 . S
N633 Li616 1.990 . S
N633 C632 1.314 . S
N633 C635 1.279 . S
C634 C635 1.358 . S
C634 C636 1.356 . S
C634 H688 0.930 . S
C635 N633 1.279 . S
C635 C634 1.358 . S
C635 H639 0.930 . S
C636 C634 1.356 . S
C636 C637 1.348 . S
C637 C632 1.353 . S
C637 C636 1.348 . S
C637 H689 0.929 . S
H638 C632 0.930 . S
H639 C635 0.930 . S
C640 N641 1.314 . S
C640 C642 1.353 . S
C640 H646 0.930 . S
N641 Li617 1.990 . S
N641 C640 1.314 . S
N641 C644 1.279 . S
C642 C640 1.353 . S
C642 C645 1.348 . S
C642 H690 0.929 . S
C643 C644 1.358 . S
C643 C645 1.356 . S
C643 H691 0.930 . S
C644 N641 1.279 . S
C644 C643 1.358 . S
C644 H647 0.930 . S
C645 C642 1.348 . S
C645 C643 1.356 . S
H646 C640 0.930 . S
H647 C644 0.930 . S
C648 C650 1.348 . S
C648 C651 1.356 . S
C648 O678 1.325 . S
N649 C652 1.314 . S
N649 C653 1.279 . S
C650 C648 1.348 . S
C650 C652 1.353 . S
C650 H692 0.929 . S
C651 C648 1.356 . S
C651 C653 1.358 . S
C651 H693 0.930 . S
C652 N649 1.314 . S
C652 C650 1.353 . S
C652 H694 0.930 . S
C653 N649 1.279 . S
C653 C651 1.358 . S
C653 H695 0.930 . S
C654 C655 1.348 . S
C654 C656 1.356 . S
C654 O679 1.325 . S
C655 C654 1.348 . S
C655 C657 1.353 . S
C655 H696 0.929 . S
C656 C654 1.356 . S
C656 C658 1.358 . S
C656 H697 0.930 . S
C657 C655 1.353 . S
C657 N659 1.314 . S
C657 H698 0.930 . S
C658 C656 1.358 . S
C658 N659 1.279 . S
C658 H699 0.930 . S
N659 C657 1.314 . S
N659 C658 1.279 . S
C660 C662 1.353 . S
C660 N663 1.314 . S
C660 H666 0.930 . S
C661 N663 1.279 . S
C661 C664 1.358 . S
C661 H667 0.930 . S
C662 C660 1.353 . S
C662 C665 1.348 . S
C662 H700 0.929 . S
N663 Li618 1.990 . S
N663 C660 1.314 . S
N663 C661 1.279 . S
C664 C661 1.358 . S
C664 C665 1.356 . S
C664 H701 0.930 . S
C665 C662 1.348 . S
C665 C664 1.356 . S
H666 C660 0.930 . S
H667 C661 0.930 . S
C668 N669 1.314 . S
C668 C670 1.353 . S
C668 H674 0.930 . S
N669 Li619 1.990 . S
N669 C668 1.314 . S
N669 C672 1.279 . S
C670 C668 1.353 . S
C670 C673 1.348 . S
C670 H702 0.929 . S
C671 C672 1.358 . S
C671 C673 1.356 . S
C671 H703 0.930 . S
C672 N669 1.279 . S
C672 C671 1.358 . S
C672 H675 0.930 . S
C673 C670 1.348 . S
C673 C671 1.356 . S
H674 C668 0.930 . S
H675 C672 0.930 . S
O676 Li616 1.956 . S
O676 Li617 1.970 . S
O676 Li618 1.961 . S
O676 C620 1.325 . S
O677 Li616 1.970 . S
O677 Li617 1.956 . S
O677 Li619 1.961 . S
O677 C626 1.325 . S
O678 Li616 1.961 . S
O678 Li618 1.956 . S
O678 Li619 1.970 . S
O678 C648 1.325 . S
O679 Li617 1.961 . S
O679 Li618 1.970 . S
O679 Li619 1.956 . S
O679 C654 1.325 . S
H680 C622 0.929 . S
H681 C623 0.930 . S
H682 C624 0.930 . S
H683 C625 0.930 . S
H684 C627 0.930 . S
H685 C629 0.929 . S
H686 C630 0.930 . S
H687 C631 0.930 . S
H688 C634 0.930 . S
H689 C637 0.929 . S
H690 C642 0.929 . S
H691 C643 0.930 . S
H692 C650 0.929 . S
H693 C651 0.930 . S
H694 C652 0.930 . S
H695 C653 0.930 . S
H696 C655 0.929 . S
H697 C656 0.930 . S
H698 C657 0.930 . S
H699 C658 0.930 . S
H700 C662 0.929 . S
H701 C664 0.930 . S
H702 C670 0.929 . S
H703 C671 0.930 . S
Li704 N721 1.990 . S
Li704 O764 1.956 . S
Li704 O765 1.970 . S
Li704 O766 1.961 . S
Li705 N729 1.990 . S
Li705 O764 1.970 . S
Li705 O765 1.956 . S
Li705 O767 1.961 . S
Li706 N751 1.990 . S
Li706 O764 1.961 . S
Li706 O766 1.956 . S
Li706 O767 1.970 . S
Li707 N757 1.990 . S
Li707 O765 1.961 . S
Li707 O766 1.970 . S
Li707 O767 1.956 . S
C708 C710 1.348 . S
C708 C711 1.356 . S
C708 O764 1.325 . S
N709 C712 1.314 . S
N709 C713 1.279 . S
C710 C708 1.348 . S
C710 C712 1.353 . S
C710 H768 0.929 . S
C711 C708 1.356 . S
C711 C713 1.358 . S
C711 H769 0.930 . S
C712 N709 1.314 . S
C712 C710 1.353 . S
C712 H770 0.930 . S
C713 N709 1.279 . S
C713 C711 1.358 . S
C713 H771 0.930 . S
C714 C717 1.348 . S
C714 C718 1.356 . S
C714 O765 1.325 . S
C715 N716 1.279 . S
C715 C718 1.358 . S
C715 H772 0.930 . S
N716 C715 1.279 . S
N716 C719 1.314 . S
C717 C714 1.348 . S
C717 C719 1.353 . S
C717 H773 0.929 . S
C718 C714 1.356 . S
C718 C715 1.358 . S
C718 H774 0.930 . S
C719 N716 1.314 . S
C719 C717 1.353 . S
C719 H775 0.930 . S
C720 N721 1.314 . S
C720 C725 1.353 . S
C720 H726 0.930 . S
N721 Li704 1.990 . S
N721 C720 1.314 . S
N721 C723 1.279 . S
C722 C723 1.358 . S
C722 C724 1.356 . S
C722 H776 0.930 . S
C723 N721 1.279 . S
C723 C722 1.358 . S
C723 H727 0.930 . S
C724 C722 1.356 . S
C724 C725 1.348 . S
C725 C720 1.353 . S
C725 C724 1.348 . S
C725 H777 0.929 . S
H726 C720 0.930 . S
H727 C723 0.930 . S
C728 N729 1.314 . S
C728 C730 1.353 . S
C728 H734 0.930 . S
N729 Li705 1.990 . S
N729 C728 1.314 . S
N729 C732 1.279 . S
C730 C728 1.353 . S
C730 C733 1.348 . S
C730 H778 0.929 . S
C731 C732 1.358 . S
C731 C733 1.356 . S
C731 H779 0.930 . S
C732 N729 1.279 . S
C732 C731 1.358 . S
C732 H735 0.930 . S
C733 C730 1.348 . S
C733 C731 1.356 . S
H734 C728 0.930 . S
H735 C732 0.930 . S
C736 C738 1.348 . S
C736 C739 1.356 . S
C736 O766 1.325 . S
N737 C740 1.314 . S
N737 C741 1.279 . S
C738 C736 1.348 . S
C738 C740 1.353 . S
C738 H780 0.929 . S
C739 C736 1.356 . S
C739 C741 1.358 . S
C739 H781 0.930 . S
C740 N737 1.314 . S
C740 C738 1.353 . S
C740 H782 0.930 . S
C741 N737 1.279 . S
C741 C739 1.358 . S
C741 H783 0.930 . S
C742 C743 1.348 . S
C742 C744 1.356 . S
C742 O767 1.325 . S
C743 C742 1.348 . S
C743 C745 1.353 . S
C743 H784 0.929 . S
C744 C742 1.356 . S
C744 C746 1.358 . S
C744 H785 0.930 . S
C745 C743 1.353 . S
C745 N747 1.314 . S
C745 H786 0.930 . S
C746 C744 1.358 . S
C746 N747 1.279 . S
C746 H787 0.930 . S
N747 C745 1.314 . S
N747 C746 1.279 . S
C748 C750 1.353 . S
C748 N751 1.314 . S
C748 H754 0.930 . S
C749 N751 1.279 . S
C749 C752 1.358 . S
C749 H755 0.930 . S
C750 C748 1.353 . S
C750 C753 1.348 . S
C750 H788 0.929 . S
N751 Li706 1.990 . S
N751 C748 1.314 . S
N751 C749 1.279 . S
C752 C749 1.358 . S
C752 C753 1.356 . S
C752 H789 0.930 . S
C753 C750 1.348 . S
C753 C752 1.356 . S
H754 C748 0.930 . S
H755 C749 0.930 . S
C756 N757 1.314 . S
C756 C758 1.353 . S
C756 H762 0.930 . S
N757 Li707 1.990 . S
N757 C756 1.314 . S
N757 C760 1.279 . S
C758 C756 1.353 . S
C758 C761 1.348 . S
C758 H790 0.929 . S
C759 C760 1.358 . S
C759 C761 1.356 . S
C759 H791 0.930 . S
C760 N757 1.279 . S
C760 C759 1.358 . S
C760 H763 0.930 . S
C761 C758 1.348 . S
C761 C759 1.356 . S
H762 C756 0.930 . S
H763 C760 0.930 . S
O764 Li704 1.956 . S
O764 Li705 1.970 . S
O764 Li706 1.961 . S
O764 C708 1.325 . S
O765 Li704 1.970 . S
O765 Li705 1.956 . S
O765 Li707 1.961 . S
O765 C714 1.325 . S
O766 Li704 1.961 . S
O766 Li706 1.956 . S
O766 Li707 1.970 . S
O766 C736 1.325 . S
O767 Li705 1.961 . S
O767 Li706 1.970 . S
O767 Li707 1.956 . S
O767 C742 1.325 . S
H768 C710 0.929 . S
H769 C711 0.930 . S
H770 C712 0.930 . S
H771 C713 0.930 . S
H772 C715 0.930 . S
H773 C717 0.929 . S
H774 C718 0.930 . S
H775 C719 0.930 . S
H776 C722 0.930 . S
H777 C725 0.929 . S
H778 C730 0.929 . S
H779 C731 0.930 . S
H780 C738 0.929 . S
H781 C739 0.930 . S
H782 C740 0.930 . S
H783 C741 0.930 . S
H784 C743 0.929 . S
H785 C744 0.930 . S
H786 C745 0.930 . S
H787 C746 0.930 . S
H788 C750 0.929 . S
H789 C752 0.930 . S
H790 C758 0.929 . S
H791 C759 0.930 . S
Li792 N809 1.990 . S
Li792 O852 1.956 . S
Li792 O853 1.970 . S
Li792 O854 1.961 . S
Li793 N817 1.990 . S
Li793 O852 1.970 . S
Li793 O853 1.956 . S
Li793 O855 1.961 . S
Li794 N839 1.990 . S
Li794 O852 1.961 . S
Li794 O854 1.956 . S
Li794 O855 1.970 . S
Li795 N845 1.990 . S
Li795 O853 1.961 . S
Li795 O854 1.970 . S
Li795 O855 1.956 . S
C796 C798 1.348 . S
C796 C799 1.356 . S
C796 O852 1.325 . S
N797 C800 1.314 . S
N797 C801 1.279 . S
C798 C796 1.348 . S
C798 C800 1.353 . S
C798 H856 0.929 . S
C799 C796 1.356 . S
C799 C801 1.358 . S
C799 H857 0.930 . S
C800 N797 1.314 . S
C800 C798 1.353 . S
C800 H858 0.930 . S
C801 N797 1.279 . S
C801 C799 1.358 . S
C801 H859 0.930 . S
C802 C805 1.348 . S
C802 C806 1.356 . S
C802 O853 1.325 . S
C803 N804 1.279 . S
C803 C806 1.358 . S
C803 H860 0.930 . S
N804 C803 1.279 . S
N804 C807 1.314 . S
C805 C802 1.348 . S
C805 C807 1.353 . S
C805 H861 0.929 . S
C806 C802 1.356 . S
C806 C803 1.358 . S
C806 H862 0.930 . S
C807 N804 1.314 . S
C807 C805 1.353 . S
C807 H863 0.930 . S
C808 N809 1.314 . S
C808 C813 1.353 . S
C808 H814 0.930 . S
N809 Li792 1.990 . S
N809 C808 1.314 . S
N809 C811 1.279 . S
C810 C811 1.358 . S
C810 C812 1.356 . S
C810 H864 0.930 . S
C811 N809 1.279 . S
C811 C810 1.358 . S
C811 H815 0.930 . S
C812 C810 1.356 . S
C812 C813 1.348 . S
C813 C808 1.353 . S
C813 C812 1.348 . S
C813 H865 0.929 . S
H814 C808 0.930 . S
H815 C811 0.930 . S
C816 N817 1.314 . S
C816 C818 1.353 . S
C816 H822 0.930 . S
N817 Li793 1.990 . S
N817 C816 1.314 . S
N817 C820 1.279 . S
C818 C816 1.353 . S
C818 C821 1.348 . S
C818 H866 0.929 . S
C819 C820 1.358 . S
C819 C821 1.356 . S
C819 H867 0.930 . S
C820 N817 1.279 . S
C820 C819 1.358 . S
C820 H823 0.930 . S
C821 C818 1.348 . S
C821 C819 1.356 . S
H822 C816 0.930 . S
H823 C820 0.930 . S
C824 C826 1.348 . S
C824 C827 1.356 . S
C824 O854 1.325 . S
N825 C828 1.314 . S
N825 C829 1.279 . S
C826 C824 1.348 . S
C826 C828 1.353 . S
C826 H868 0.929 . S
C827 C824 1.356 . S
C827 C829 1.358 . S
C827 H869 0.930 . S
C828 N825 1.314 . S
C828 C826 1.353 . S
C828 H870 0.930 . S
C829 N825 1.279 . S
C829 C827 1.358 . S
C829 H871 0.930 . S
C830 C831 1.348 . S
C830 C832 1.356 . S
C830 O855 1.325 . S
C831 C830 1.348 . S
C831 C833 1.353 . S
C831 H872 0.929 . S
C832 C830 1.356 . S
C832 C834 1.358 . S
C832 H873 0.930 . S
C833 C831 1.353 . S
C833 N835 1.314 . S
C833 H874 0.930 . S
C834 C832 1.358 . S
C834 N835 1.279 . S
C834 H875 0.930 . S
N835 C833 1.314 . S
N835 C834 1.279 . S
C836 C838 1.353 . S
C836 N839 1.314 . S
C836 H842 0.930 . S
C837 N839 1.279 . S
C837 C840 1.358 . S
C837 H843 0.930 . S
C838 C836 1.353 . S
C838 C841 1.348 . S
C838 H876 0.929 . S
N839 Li794 1.990 . S
N839 C836 1.314 . S
N839 C837 1.279 . S
C840 C837 1.358 . S
C840 C841 1.356 . S
C840 H877 0.930 . S
C841 C838 1.348 . S
C841 C840 1.356 . S
H842 C836 0.930 . S
H843 C837 0.930 . S
C844 N845 1.314 . S
C844 C846 1.353 . S
C844 H850 0.930 . S
N845 Li795 1.990 . S
N845 C844 1.314 . S
N845 C848 1.279 . S
C846 C844 1.353 . S
C846 C849 1.348 . S
C846 H878 0.929 . S
C847 C848 1.358 . S
C847 C849 1.356 . S
C847 H879 0.930 . S
C848 N845 1.279 . S
C848 C847 1.358 . S
C848 H851 0.930 . S
C849 C846 1.348 . S
C849 C847 1.356 . S
H850 C844 0.930 . S
H851 C848 0.930 . S
O852 Li792 1.956 . S
O852 Li793 1.970 . S
O852 Li794 1.961 . S
O852 C796 1.325 . S
O853 Li792 1.970 . S
O853 Li793 1.956 . S
O853 Li795 1.961 . S
O853 C802 1.325 . S
O854 Li792 1.961 . S
O854 Li794 1.956 . S
O854 Li795 1.970 . S
O854 C824 1.325 . S
O855 Li793 1.961 . S
O855 Li794 1.970 . S
O855 Li795 1.956 . S
O855 C830 1.325 . S
H856 C798 0.929 . S
H857 C799 0.930 . S
H858 C800 0.930 . S
H859 C801 0.930 . S
H860 C803 0.930 . S
H861 C805 0.929 . S
H862 C806 0.930 . S
H863 C807 0.930 . S
H864 C810 0.930 . S
H865 C813 0.929 . S
H866 C818 0.929 . S
H867 C819 0.930 . S
H868 C826 0.929 . S
H869 C827 0.930 . S
H870 C828 0.930 . S
H871 C829 0.930 . S
H872 C831 0.929 . S
H873 C832 0.930 . S
H874 C833 0.930 . S
H875 C834 0.930 . S
H876 C838 0.929 . S
H877 C840 0.930 . S
H878 C846 0.929 . S
H879 C847 0.930 . S
Li880 N897 1.990 . S
Li880 O940 1.956 . S
Li880 O941 1.970 . S
Li880 O942 1.961 . S
Li881 N905 1.990 . S
Li881 O940 1.970 . S
Li881 O941 1.956 . S
Li881 O943 1.961 . S
Li882 N927 1.990 . S
Li882 O940 1.961 . S
Li882 O942 1.956 . S
Li882 O943 1.970 . S
Li883 N933 1.990 . S
Li883 O941 1.961 . S
Li883 O942 1.970 . S
Li883 O943 1.956 . S
C884 C886 1.348 . S
C884 C887 1.356 . S
C884 O940 1.325 . S
N885 C888 1.314 . S
N885 C889 1.279 . S
C886 C884 1.348 . S
C886 C888 1.353 . S
C886 H944 0.929 . S
C887 C884 1.356 . S
C887 C889 1.358 . S
C887 H945 0.930 . S
C888 N885 1.314 . S
C888 C886 1.353 . S
C888 H946 0.930 . S
C889 N885 1.279 . S
C889 C887 1.358 . S
C889 H947 0.930 . S
C890 C893 1.348 . S
C890 C894 1.356 . S
C890 O941 1.325 . S
C891 N892 1.279 . S
C891 C894 1.358 . S
C891 H948 0.930 . S
N892 C891 1.279 . S
N892 C895 1.314 . S
C893 C890 1.348 . S
C893 C895 1.353 . S
C893 H949 0.929 . S
C894 C890 1.356 . S
C894 C891 1.358 . S
C894 H950 0.930 . S
C895 N892 1.314 . S
C895 C893 1.353 . S
C895 H951 0.930 . S
C896 N897 1.314 . S
C896 C901 1.353 . S
C896 H902 0.930 . S
N897 Li880 1.990 . S
N897 C896 1.314 . S
N897 C899 1.279 . S
C898 C899 1.358 . S
C898 C900 1.356 . S
C898 H952 0.930 . S
C899 N897 1.279 . S
C899 C898 1.358 . S
C899 H903 0.930 . S
C900 C898 1.356 . S
C900 C901 1.348 . S
C901 C896 1.353 . S
C901 C900 1.348 . S
C901 H953 0.929 . S
H902 C896 0.930 . S
H903 C899 0.930 . S
C904 N905 1.314 . S
C904 C906 1.353 . S
C904 H910 0.930 . S
N905 Li881 1.990 . S
N905 C904 1.314 . S
N905 C908 1.279 . S
C906 C904 1.353 . S
C906 C909 1.348 . S
C906 H954 0.929 . S
C907 C908 1.358 . S
C907 C909 1.356 . S
C907 H955 0.930 . S
C908 N905 1.279 . S
C908 C907 1.358 . S
C908 H911 0.930 . S
C909 C906 1.348 . S
C909 C907 1.356 . S
H910 C904 0.930 . S
H911 C908 0.930 . S
C912 C914 1.348 . S
C912 C915 1.356 . S
C912 O942 1.325 . S
N913 C916 1.314 . S
N913 C917 1.279 . S
C914 C912 1.348 . S
C914 C916 1.353 . S
C914 H956 0.929 . S
C915 C912 1.356 . S
C915 C917 1.358 . S
C915 H957 0.930 . S
C916 N913 1.314 . S
C916 C914 1.353 . S
C916 H958 0.930 . S
C917 N913 1.279 . S
C917 C915 1.358 . S
C917 H959 0.930 . S
C918 C919 1.348 . S
C918 C920 1.356 . S
C918 O943 1.325 . S
C919 C918 1.348 . S
C919 C921 1.353 . S
C919 H960 0.929 . S
C920 C918 1.356 . S
C920 C922 1.358 . S
C920 H961 0.930 . S
C921 C919 1.353 . S
C921 N923 1.314 . S
C921 H962 0.930 . S
C922 C920 1.358 . S
C922 N923 1.279 . S
C922 H963 0.930 . S
N923 C921 1.314 . S
N923 C922 1.279 . S
C924 C926 1.353 . S
C924 N927 1.314 . S
C924 H930 0.930 . S
C925 N927 1.279 . S
C925 C928 1.358 . S
C925 H931 0.930 . S
C926 C924 1.353 . S
C926 C929 1.348 . S
C926 H964 0.929 . S
N927 Li882 1.990 . S
N927 C924 1.314 . S
N927 C925 1.279 . S
C928 C925 1.358 . S
C928 C929 1.356 . S
C928 H965 0.930 . S
C929 C926 1.348 . S
C929 C928 1.356 . S
H930 C924 0.930 . S
H931 C925 0.930 . S
C932 N933 1.314 . S
C932 C934 1.353 . S
C932 H938 0.930 . S
N933 Li883 1.990 . S
N933 C932 1.314 . S
N933 C936 1.279 . S
C934 C932 1.353 . S
C934 C937 1.348 . S
C934 H966 0.929 . S
C935 C936 1.358 . S
C935 C937 1.356 . S
C935 H967 0.930 . S
C936 N933 1.279 . S
C936 C935 1.358 . S
C936 H939 0.930 . S
C937 C934 1.348 . S
C937 C935 1.356 . S
H938 C932 0.930 . S
H939 C936 0.930 . S
O940 Li880 1.956 . S
O940 Li881 1.970 . S
O940 Li882 1.961 . S
O940 C884 1.325 . S
O941 Li880 1.970 . S
O941 Li881 1.956 . S
O941 Li883 1.961 . S
O941 C890 1.325 . S
O942 Li880 1.961 . S
O942 Li882 1.956 . S
O942 Li883 1.970 . S
O942 C912 1.325 . S
O943 Li881 1.961 . S
O943 Li882 1.970 . S
O943 Li883 1.956 . S
O943 C918 1.325 . S
H944 C886 0.929 . S
H945 C887 0.930 . S
H946 C888 0.930 . S
H947 C889 0.930 . S
H948 C891 0.930 . S
H949 C893 0.929 . S
H950 C894 0.930 . S
H951 C895 0.930 . S
H952 C898 0.930 . S
H953 C901 0.929 . S
H954 C906 0.929 . S
H955 C907 0.930 . S
H956 C914 0.929 . S
H957 C915 0.930 . S
H958 C916 0.930 . S
H959 C917 0.930 . S
H960 C919 0.929 . S
H961 C920 0.930 . S
H962 C921 0.930 . S
H963 C922 0.930 . S
H964 C926 0.929 . S
H965 C928 0.930 . S
H966 C934 0.929 . S
H967 C935 0.930 . S
Li968 N985 1.990 . S
Li968 O1028 1.956 . S
Li968 O1029 1.970 . S
Li968 O1030 1.961 . S
Li969 N993 1.990 . S
Li969 O1028 1.970 . S
Li969 O1029 1.956 . S
Li969 O1031 1.961 . S
Li970 N1015 1.990 . S
Li970 O1028 1.961 . S
Li970 O1030 1.956 . S
Li970 O1031 1.970 . S
Li971 N1021 1.990 . S
Li971 O1029 1.961 . S
Li971 O1030 1.970 . S
Li971 O1031 1.956 . S
C972 C974 1.348 . S
C972 C975 1.356 . S
C972 O1028 1.325 . S
N973 C976 1.314 . S
N973 C977 1.279 . S
C974 C972 1.348 . S
C974 C976 1.353 . S
C974 H1032 0.929 . S
C975 C972 1.356 . S
C975 C977 1.358 . S
C975 H1033 0.930 . S
C976 N973 1.314 . S
C976 C974 1.353 . S
C976 H1034 0.930 . S
C977 N973 1.279 . S
C977 C975 1.358 . S
C977 H1035 0.930 . S
C978 C981 1.348 . S
C978 C982 1.356 . S
C978 O1029 1.325 . S
C979 N980 1.279 . S
C979 C982 1.358 . S
C979 H1036 0.930 . S
N980 C979 1.279 . S
N980 C983 1.314 . S
C981 C978 1.348 . S
C981 C983 1.353 . S
C981 H1037 0.929 . S
C982 C978 1.356 . S
C982 C979 1.358 . S
C982 H1038 0.930 . S
C983 N980 1.314 . S
C983 C981 1.353 . S
C983 H1039 0.930 . S
C984 N985 1.314 . S
C984 C989 1.353 . S
C984 H990 0.930 . S
N985 Li968 1.990 . S
N985 C984 1.314 . S
N985 C987 1.279 . S
C986 C987 1.358 . S
C986 C988 1.356 . S
C986 H1040 0.930 . S
C987 N985 1.279 . S
C987 C986 1.358 . S
C987 H991 0.930 . S
C988 C986 1.356 . S
C988 C989 1.348 . S
C989 C984 1.353 . S
C989 C988 1.348 . S
C989 H1041 0.929 . S
H990 C984 0.930 . S
H991 C987 0.930 . S
C992 N993 1.314 . S
C992 C994 1.353 . S
C992 H998 0.930 . S
N993 Li969 1.990 . S
N993 C992 1.314 . S
N993 C996 1.279 . S
C994 C992 1.353 . S
C994 C997 1.348 . S
C994 H1042 0.929 . S
C995 C996 1.358 . S
C995 C997 1.356 . S
C995 H1043 0.930 . S
C996 N993 1.279 . S
C996 C995 1.358 . S
C996 H999 0.930 . S
C997 C994 1.348 . S
C997 C995 1.356 . S
H998 C992 0.930 . S
H999 C996 0.930 . S
C1000 C1002 1.348 . S
C1000 C1003 1.356 . S
C1000 O1030 1.325 . S
N1001 C1004 1.314 . S
N1001 C1005 1.279 . S
C1002 C1000 1.348 . S
C1002 C1004 1.353 . S
C1002 H1044 0.929 . S
C1003 C1000 1.356 . S
C1003 C1005 1.358 . S
C1003 H1045 0.930 . S
C1004 N1001 1.314 . S
C1004 C1002 1.353 . S
C1004 H1046 0.930 . S
C1005 N1001 1.279 . S
C1005 C1003 1.358 . S
C1005 H1047 0.930 . S
C1006 C1007 1.348 . S
C1006 C1008 1.356 . S
C1006 O1031 1.325 . S
C1007 C1006 1.348 . S
C1007 C1009 1.353 . S
C1007 H1048 0.929 . S
C1008 C1006 1.356 . S
C1008 C1010 1.358 . S
C1008 H1049 0.930 . S
C1009 C1007 1.353 . S
C1009 N1011 1.314 . S
C1009 H1050 0.930 . S
C1010 C1008 1.358 . S
C1010 N1011 1.279 . S
C1010 H1051 0.930 . S
N1011 C1009 1.314 . S
N1011 C1010 1.279 . S
C1012 C1014 1.353 . S
C1012 N1015 1.314 . S
C1012 H1018 0.930 . S
C1013 N1015 1.279 . S
C1013 C1016 1.358 . S
C1013 H1019 0.930 . S
C1014 C1012 1.353 . S
C1014 C1017 1.348 . S
C1014 H1052 0.929 . S
N1015 Li970 1.990 . S
N1015 C1012 1.314 . S
N1015 C1013 1.279 . S
C1016 C1013 1.358 . S
C1016 C1017 1.356 . S
C1016 H1053 0.930 . S
C1017 C1014 1.348 . S
C1017 C1016 1.356 . S
H1018 C1012 0.930 . S
H1019 C1013 0.930 . S
C1020 N1021 1.314 . S
C1020 C1022 1.353 . S
C1020 H1026 0.930 . S
N1021 Li971 1.990 . S
N1021 C1020 1.314 . S
N1021 C1024 1.279 . S
C1022 C1020 1.353 . S
C1022 C1025 1.348 . S
C1022 H1054 0.929 . S
C1023 C1024 1.358 . S
C1023 C1025 1.356 . S
C1023 H1055 0.930 . S
C1024 N1021 1.279 . S
C1024 C1023 1.358 . S
C1024 H1027 0.930 . S
C1025 C1022 1.348 . S
C1025 C1023 1.356 . S
H1026 C1020 0.930 . S
H1027 C1024 0.930 . S
O1028 Li968 1.956 . S
O1028 Li969 1.970 . S
O1028 Li970 1.961 . S
O1028 C972 1.325 . S
O1029 Li968 1.970 . S
O1029 Li969 1.956 . S
O1029 Li971 1.961 . S
O1029 C978 1.325 . S
O1030 Li968 1.961 . S
O1030 Li970 1.956 . S
O1030 Li971 1.970 . S
O1030 C1000 1.325 . S
O1031 Li969 1.961 . S
O1031 Li970 1.970 . S
O1031 Li971 1.956 . S
O1031 C1006 1.325 . S
H1032 C974 0.929 . S
H1033 C975 0.930 . S
H1034 C976 0.930 . S
H1035 C977 0.930 . S
H1036 C979 0.930 . S
H1037 C981 0.929 . S
H1038 C982 0.930 . S
H1039 C983 0.930 . S
H1040 C986 0.930 . S
H1041 C989 0.929 . S
H1042 C994 0.929 . S
H1043 C995 0.930 . S
H1044 C1002 0.929 . S
H1045 C1003 0.930 . S
H1046 C1004 0.930 . S
H1047 C1005 0.930 . S
H1048 C1007 0.929 . S
H1049 C1008 0.930 . S
H1050 C1009 0.930 . S
H1051 C1010 0.930 . S
H1052 C1014 0.929 . S
H1053 C1016 0.930 . S
H1054 C1022 0.929 . S
H1055 C1023 0.930 . S
Li1056 N1073 1.990 . S
Li1056 O1116 1.956 . S
Li1056 O1117 1.970 . S
Li1056 O1118 1.961 . S
Li1057 N1081 1.990 . S
Li1057 O1116 1.970 . S
Li1057 O1117 1.956 . S
Li1057 O1119 1.961 . S
Li1058 N1103 1.990 . S
Li1058 O1116 1.961 . S
Li1058 O1118 1.956 . S
Li1058 O1119 1.970 . S
Li1059 N1109 1.990 . S
Li1059 O1117 1.961 . S
Li1059 O1118 1.970 . S
Li1059 O1119 1.956 . S
C1060 C1062 1.348 . S
C1060 C1063 1.356 . S
C1060 O1116 1.325 . S
N1061 C1064 1.314 . S
N1061 C1065 1.279 . S
C1062 C1060 1.348 . S
C1062 C1064 1.353 . S
C1062 H1120 0.929 . S
C1063 C1060 1.356 . S
C1063 C1065 1.358 . S
C1063 H1121 0.930 . S
C1064 N1061 1.314 . S
C1064 C1062 1.353 . S
C1064 H1122 0.930 . S
C1065 N1061 1.279 . S
C1065 C1063 1.358 . S
C1065 H1123 0.930 . S
C1066 C1069 1.348 . S
C1066 C1070 1.356 . S
C1066 O1117 1.325 . S
C1067 N1068 1.279 . S
C1067 C1070 1.358 . S
C1067 H1124 0.930 . S
N1068 C1067 1.279 . S
N1068 C1071 1.314 . S
C1069 C1066 1.348 . S
C1069 C1071 1.353 . S
C1069 H1125 0.929 . S
C1070 C1066 1.356 . S
C1070 C1067 1.358 . S
C1070 H1126 0.930 . S
C1071 N1068 1.314 . S
C1071 C1069 1.353 . S
C1071 H1127 0.930 . S
C1072 N1073 1.314 . S
C1072 C1077 1.353 . S
C1072 H1078 0.930 . S
N1073 Li1056 1.990 . S
N1073 C1072 1.314 . S
N1073 C1075 1.279 . S
C1074 C1075 1.358 . S
C1074 C1076 1.356 . S
C1074 H1128 0.930 . S
C1075 N1073 1.279 . S
C1075 C1074 1.358 . S
C1075 H1079 0.930 . S
C1076 C1074 1.356 . S
C1076 C1077 1.348 . S
C1077 C1072 1.353 . S
C1077 C1076 1.348 . S
C1077 H1129 0.929 . S
H1078 C1072 0.930 . S
H1079 C1075 0.930 . S
C1080 N1081 1.314 . S
C1080 C1082 1.353 . S
C1080 H1086 0.930 . S
N1081 Li1057 1.990 . S
N1081 C1080 1.314 . S
N1081 C1084 1.279 . S
C1082 C1080 1.353 . S
C1082 C1085 1.348 . S
C1082 H1130 0.929 . S
C1083 C1084 1.358 . S
C1083 C1085 1.356 . S
C1083 H1131 0.930 . S
C1084 N1081 1.279 . S
C1084 C1083 1.358 . S
C1084 H1087 0.930 . S
C1085 C1082 1.348 . S
C1085 C1083 1.356 . S
H1086 C1080 0.930 . S
H1087 C1084 0.930 . S
C1088 C1090 1.348 . S
C1088 C1091 1.356 . S
C1088 O1118 1.325 . S
N1089 C1092 1.314 . S
N1089 C1093 1.279 . S
C1090 C1088 1.348 . S
C1090 C1092 1.353 . S
C1090 H1132 0.929 . S
C1091 C1088 1.356 . S
C1091 C1093 1.358 . S
C1091 H1133 0.930 . S
C1092 N1089 1.314 . S
C1092 C1090 1.353 . S
C1092 H1134 0.930 . S
C1093 N1089 1.279 . S
C1093 C1091 1.358 . S
C1093 H1135 0.930 . S
C1094 C1095 1.348 . S
C1094 C1096 1.356 . S
C1094 O1119 1.325 . S
C1095 C1094 1.348 . S
C1095 C1097 1.353 . S
C1095 H1136 0.929 . S
C1096 C1094 1.356 . S
C1096 C1098 1.358 . S
C1096 H1137 0.930 . S
C1097 C1095 1.353 . S
C1097 N1099 1.314 . S
C1097 H1138 0.930 . S
C1098 C1096 1.358 . S
C1098 N1099 1.279 . S
C1098 H1139 0.930 . S
N1099 C1097 1.314 . S
N1099 C1098 1.279 . S
C1100 C1102 1.353 . S
C1100 N1103 1.314 . S
C1100 H1106 0.930 . S
C1101 N1103 1.279 . S
C1101 C1104 1.358 . S
C1101 H1107 0.930 . S
C1102 C1100 1.353 . S
C1102 C1105 1.348 . S
C1102 H1140 0.929 . S
N1103 Li1058 1.990 . S
N1103 C1100 1.314 . S
N1103 C1101 1.279 . S
C1104 C1101 1.358 . S
C1104 C1105 1.356 . S
C1104 H1141 0.930 . S
C1105 C1102 1.348 . S
C1105 C1104 1.356 . S
H1106 C1100 0.930 . S
H1107 C1101 0.930 . S
C1108 N1109 1.314 . S
C1108 C1110 1.353 . S
C1108 H1114 0.930 . S
N1109 Li1059 1.990 . S
N1109 C1108 1.314 . S
N1109 C1112 1.279 . S
C1110 C1108 1.353 . S
C1110 C1113 1.348 . S
C1110 H1142 0.929 . S
C1111 C1112 1.358 . S
C1111 C1113 1.356 . S
C1111 H1143 0.930 . S
C1112 N1109 1.279 . S
C1112 C1111 1.358 . S
C1112 H1115 0.930 . S
C1113 C1110 1.348 . S
C1113 C1111 1.356 . S
H1114 C1108 0.930 . S
H1115 C1112 0.930 . S
O1116 Li1056 1.956 . S
O1116 Li1057 1.970 . S
O1116 Li1058 1.961 . S
O1116 C1060 1.325 . S
O1117 Li1056 1.970 . S
O1117 Li1057 1.956 . S
O1117 Li1059 1.961 . S
O1117 C1066 1.325 . S
O1118 Li1056 1.961 . S
O1118 Li1058 1.956 . S
O1118 Li1059 1.970 . S
O1118 C1088 1.325 . S
O1119 Li1057 1.961 . S
O1119 Li1058 1.970 . S
O1119 Li1059 1.956 . S
O1119 C1094 1.325 . S
H1120 C1062 0.929 . S
H1121 C1063 0.930 . S
H1122 C1064 0.930 . S
H1123 C1065 0.930 . S
H1124 C1067 0.930 . S
H1125 C1069 0.929 . S
H1126 C1070 0.930 . S
H1127 C1071 0.930 . S
H1128 C1074 0.930 . S
H1129 C1077 0.929 . S
H1130 C1082 0.929 . S
H1131 C1083 0.930 . S
H1132 C1090 0.929 . S
H1133 C1091 0.930 . S
H1134 C1092 0.930 . S
H1135 C1093 0.930 . S
H1136 C1095 0.929 . S
H1137 C1096 0.930 . S
H1138 C1097 0.930 . S
H1139 C1098 0.930 . S
H1140 C1102 0.929 . S
H1141 C1104 0.930 . S
H1142 C1110 0.929 . S
H1143 C1111 0.930 . S
Li1144 N1161 1.990 . S
Li1144 O1204 1.956 . S
Li1144 O1205 1.970 . S
Li1144 O1206 1.961 . S
Li1145 N1169 1.990 . S
Li1145 O1204 1.970 . S
Li1145 O1205 1.956 . S
Li1145 O1207 1.961 . S
Li1146 N1191 1.990 . S
Li1146 O1204 1.961 . S
Li1146 O1206 1.956 . S
Li1146 O1207 1.970 . S
Li1147 N1197 1.990 . S
Li1147 O1205 1.961 . S
Li1147 O1206 1.970 . S
Li1147 O1207 1.956 . S
C1148 C1150 1.348 . S
C1148 C1151 1.356 . S
C1148 O1204 1.325 . S
N1149 C1152 1.314 . S
N1149 C1153 1.279 . S
C1150 C1148 1.348 . S
C1150 C1152 1.353 . S
C1150 H1208 0.929 . S
C1151 C1148 1.356 . S
C1151 C1153 1.358 . S
C1151 H1209 0.930 . S
C1152 N1149 1.314 . S
C1152 C1150 1.353 . S
C1152 H1210 0.930 . S
C1153 N1149 1.279 . S
C1153 C1151 1.358 . S
C1153 H1211 0.930 . S
C1154 C1157 1.348 . S
C1154 C1158 1.356 . S
C1154 O1205 1.325 . S
C1155 N1156 1.279 . S
C1155 C1158 1.358 . S
C1155 H1212 0.930 . S
N1156 C1155 1.279 . S
N1156 C1159 1.314 . S
C1157 C1154 1.348 . S
C1157 C1159 1.353 . S
C1157 H1213 0.929 . S
C1158 C1154 1.356 . S
C1158 C1155 1.358 . S
C1158 H1214 0.930 . S
C1159 N1156 1.314 . S
C1159 C1157 1.353 . S
C1159 H1215 0.930 . S
C1160 N1161 1.314 . S
C1160 C1165 1.353 . S
C1160 H1166 0.930 . S
N1161 Li1144 1.990 . S
N1161 C1160 1.314 . S
N1161 C1163 1.279 . S
C1162 C1163 1.358 . S
C1162 C1164 1.356 . S
C1162 H1216 0.930 . S
C1163 N1161 1.279 . S
C1163 C1162 1.358 . S
C1163 H1167 0.930 . S
C1164 C1162 1.356 . S
C1164 C1165 1.348 . S
C1165 C1160 1.353 . S
C1165 C1164 1.348 . S
C1165 H1217 0.929 . S
H1166 C1160 0.930 . S
H1167 C1163 0.930 . S
C1168 N1169 1.314 . S
C1168 C1170 1.353 . S
C1168 H1174 0.930 . S
N1169 Li1145 1.990 . S
N1169 C1168 1.314 . S
N1169 C1172 1.279 . S
C1170 C1168 1.353 . S
C1170 C1173 1.348 . S
C1170 H1218 0.929 . S
C1171 C1172 1.358 . S
C1171 C1173 1.356 . S
C1171 H1219 0.930 . S
C1172 N1169 1.279 . S
C1172 C1171 1.358 . S
C1172 H1175 0.930 . S
C1173 C1170 1.348 . S
C1173 C1171 1.356 . S
H1174 C1168 0.930 . S
H1175 C1172 0.930 . S
C1176 C1178 1.348 . S
C1176 C1179 1.356 . S
C1176 O1206 1.325 . S
N1177 C1180 1.314 . S
N1177 C1181 1.279 . S
C1178 C1176 1.348 . S
C1178 C1180 1.353 . S
C1178 H1220 0.929 . S
C1179 C1176 1.356 . S
C1179 C1181 1.358 . S
C1179 H1221 0.930 . S
C1180 N1177 1.314 . S
C1180 C1178 1.353 . S
C1180 H1222 0.930 . S
C1181 N1177 1.279 . S
C1181 C1179 1.358 . S
C1181 H1223 0.930 . S
C1182 C1183 1.348 . S
C1182 C1184 1.356 . S
C1182 O1207 1.325 . S
C1183 C1182 1.348 . S
C1183 C1185 1.353 . S
C1183 H1224 0.929 . S
C1184 C1182 1.356 . S
C1184 C1186 1.358 . S
C1184 H1225 0.930 . S
C1185 C1183 1.353 . S
C1185 N1187 1.314 . S
C1185 H1226 0.930 . S
C1186 C1184 1.358 . S
C1186 N1187 1.279 . S
C1186 H1227 0.930 . S
N1187 C1185 1.314 . S
N1187 C1186 1.279 . S
C1188 C1190 1.353 . S
C1188 N1191 1.314 . S
C1188 H1194 0.930 . S
C1189 N1191 1.279 . S
C1189 C1192 1.358 . S
C1189 H1195 0.930 . S
C1190 C1188 1.353 . S
C1190 C1193 1.348 . S
C1190 H1228 0.929 . S
N1191 Li1146 1.990 . S
N1191 C1188 1.314 . S
N1191 C1189 1.279 . S
C1192 C1189 1.358 . S
C1192 C1193 1.356 . S
C1192 H1229 0.930 . S
C1193 C1190 1.348 . S
C1193 C1192 1.356 . S
H1194 C1188 0.930 . S
H1195 C1189 0.930 . S
C1196 N1197 1.314 . S
C1196 C1198 1.353 . S
C1196 H1202 0.930 . S
N1197 Li1147 1.990 . S
N1197 C1196 1.314 . S
N1197 C1200 1.279 . S
C1198 C1196 1.353 . S
C1198 C1201 1.348 . S
C1198 H1230 0.929 . S
C1199 C1200 1.358 . S
C1199 C1201 1.356 . S
C1199 H1231 0.930 . S
C1200 N1197 1.279 . S
C1200 C1199 1.358 . S
C1200 H1203 0.930 . S
C1201 C1198 1.348 . S
C1201 C1199 1.356 . S
H1202 C1196 0.930 . S
H1203 C1200 0.930 . S
O1204 Li1144 1.956 . S
O1204 Li1145 1.970 . S
O1204 Li1146 1.961 . S
O1204 C1148 1.325 . S
O1205 Li1144 1.970 . S
O1205 Li1145 1.956 . S
O1205 Li1147 1.961 . S
O1205 C1154 1.325 . S
O1206 Li1144 1.961 . S
O1206 Li1146 1.956 . S
O1206 Li1147 1.970 . S
O1206 C1176 1.325 . S
O1207 Li1145 1.961 . S
O1207 Li1146 1.970 . S
O1207 Li1147 1.956 . S
O1207 C1182 1.325 . S
H1208 C1150 0.929 . S
H1209 C1151 0.930 . S
H1210 C1152 0.930 . S
H1211 C1153 0.930 . S
H1212 C1155 0.930 . S
H1213 C1157 0.929 . S
H1214 C1158 0.930 . S
H1215 C1159 0.930 . S
H1216 C1162 0.930 . S
H1217 C1165 0.929 . S
H1218 C1170 0.929 . S
H1219 C1171 0.930 . S
H1220 C1178 0.929 . S
H1221 C1179 0.930 . S
H1222 C1180 0.930 . S
H1223 C1181 0.930 . S
H1224 C1183 0.929 . S
H1225 C1184 0.930 . S
H1226 C1185 0.930 . S
H1227 C1186 0.930 . S
H1228 C1190 0.929 . S
H1229 C1192 0.930 . S
H1230 C1198 0.929 . S
H1231 C1199 0.930 . S
Li1232 N1249 1.990 . S
Li1232 O1292 1.956 . S
Li1232 O1293 1.970 . S
Li1232 O1294 1.961 . S
Li1233 N1257 1.990 . S
Li1233 O1292 1.970 . S
Li1233 O1293 1.956 . S
Li1233 O1295 1.961 . S
Li1234 N1279 1.990 . S
Li1234 O1292 1.961 . S
Li1234 O1294 1.956 . S
Li1234 O1295 1.970 . S
Li1235 N1285 1.990 . S
Li1235 O1293 1.961 . S
Li1235 O1294 1.970 . S
Li1235 O1295 1.956 . S
C1236 C1238 1.348 . S
C1236 C1239 1.356 . S
C1236 O1292 1.325 . S
N1237 C1240 1.314 . S
N1237 C1241 1.279 . S
C1238 C1236 1.348 . S
C1238 C1240 1.353 . S
C1238 H1296 0.929 . S
C1239 C1236 1.356 . S
C1239 C1241 1.358 . S
C1239 H1297 0.930 . S
C1240 N1237 1.314 . S
C1240 C1238 1.353 . S
C1240 H1298 0.930 . S
C1241 N1237 1.279 . S
C1241 C1239 1.358 . S
C1241 H1299 0.930 . S
C1242 C1245 1.348 . S
C1242 C1246 1.356 . S
C1242 O1293 1.325 . S
C1243 N1244 1.279 . S
C1243 C1246 1.358 . S
C1243 H1300 0.930 . S
N1244 C1243 1.279 . S
N1244 C1247 1.314 . S
C1245 C1242 1.348 . S
C1245 C1247 1.353 . S
C1245 H1301 0.929 . S
C1246 C1242 1.356 . S
C1246 C1243 1.358 . S
C1246 H1302 0.930 . S
C1247 N1244 1.314 . S
C1247 C1245 1.353 . S
C1247 H1303 0.930 . S
C1248 N1249 1.314 . S
C1248 C1253 1.353 . S
C1248 H1254 0.930 . S
N1249 Li1232 1.990 . S
N1249 C1248 1.314 . S
N1249 C1251 1.279 . S
C1250 C1251 1.358 . S
C1250 C1252 1.356 . S
C1250 H1304 0.930 . S
C1251 N1249 1.279 . S
C1251 C1250 1.358 . S
C1251 H1255 0.930 . S
C1252 C1250 1.356 . S
C1252 C1253 1.348 . S
C1253 C1248 1.353 . S
C1253 C1252 1.348 . S
C1253 H1305 0.929 . S
H1254 C1248 0.930 . S
H1255 C1251 0.930 . S
C1256 N1257 1.314 . S
C1256 C1258 1.353 . S
C1256 H1262 0.930 . S
N1257 Li1233 1.990 . S
N1257 C1256 1.314 . S
N1257 C1260 1.279 . S
C1258 C1256 1.353 . S
C1258 C1261 1.348 . S
C1258 H1306 0.929 . S
C1259 C1260 1.358 . S
C1259 C1261 1.356 . S
C1259 H1307 0.930 . S
C1260 N1257 1.279 . S
C1260 C1259 1.358 . S
C1260 H1263 0.930 . S
C1261 C1258 1.348 . S
C1261 C1259 1.356 . S
H1262 C1256 0.930 . S
H1263 C1260 0.930 . S
C1264 C1266 1.348 . S
C1264 C1267 1.356 . S
C1264 O1294 1.325 . S
N1265 C1268 1.314 . S
N1265 C1269 1.279 . S
C1266 C1264 1.348 . S
C1266 C1268 1.353 . S
C1266 H1308 0.929 . S
C1267 C1264 1.356 . S
C1267 C1269 1.358 . S
C1267 H1309 0.930 . S
C1268 N1265 1.314 . S
C1268 C1266 1.353 . S
C1268 H1310 0.930 . S
C1269 N1265 1.279 . S
C1269 C1267 1.358 . S
C1269 H1311 0.930 . S
C1270 C1271 1.348 . S
C1270 C1272 1.356 . S
C1270 O1295 1.325 . S
C1271 C1270 1.348 . S
C1271 C1273 1.353 . S
C1271 H1312 0.929 . S
C1272 C1270 1.356 . S
C1272 C1274 1.358 . S
C1272 H1313 0.930 . S
C1273 C1271 1.353 . S
C1273 N1275 1.314 . S
C1273 H1314 0.930 . S
C1274 C1272 1.358 . S
C1274 N1275 1.279 . S
C1274 H1315 0.930 . S
N1275 C1273 1.314 . S
N1275 C1274 1.279 . S
C1276 C1278 1.353 . S
C1276 N1279 1.314 . S
C1276 H1282 0.930 . S
C1277 N1279 1.279 . S
C1277 C1280 1.358 . S
C1277 H1283 0.930 . S
C1278 C1276 1.353 . S
C1278 C1281 1.348 . S
C1278 H1316 0.929 . S
N1279 Li1234 1.990 . S
N1279 C1276 1.314 . S
N1279 C1277 1.279 . S
C1280 C1277 1.358 . S
C1280 C1281 1.356 . S
C1280 H1317 0.930 . S
C1281 C1278 1.348 . S
C1281 C1280 1.356 . S
H1282 C1276 0.930 . S
H1283 C1277 0.930 . S
C1284 N1285 1.314 . S
C1284 C1286 1.353 . S
C1284 H1290 0.930 . S
N1285 Li1235 1.990 . S
N1285 C1284 1.314 . S
N1285 C1288 1.279 . S
C1286 C1284 1.353 . S
C1286 C1289 1.348 . S
C1286 H1318 0.929 . S
C1287 C1288 1.358 . S
C1287 C1289 1.356 . S
C1287 H1319 0.930 . S
C1288 N1285 1.279 . S
C1288 C1287 1.358 . S
C1288 H1291 0.930 . S
C1289 C1286 1.348 . S
C1289 C1287 1.356 . S
H1290 C1284 0.930 . S
H1291 C1288 0.930 . S
O1292 Li1232 1.956 . S
O1292 Li1233 1.970 . S
O1292 Li1234 1.961 . S
O1292 C1236 1.325 . S
O1293 Li1232 1.970 . S
O1293 Li1233 1.956 . S
O1293 Li1235 1.961 . S
O1293 C1242 1.325 . S
O1294 Li1232 1.961 . S
O1294 Li1234 1.956 . S
O1294 Li1235 1.970 . S
O1294 C1264 1.325 . S
O1295 Li1233 1.961 . S
O1295 Li1234 1.970 . S
O1295 Li1235 1.956 . S
O1295 C1270 1.325 . S
H1296 C1238 0.929 . S
H1297 C1239 0.930 . S
H1298 C1240 0.930 . S
H1299 C1241 0.930 . S
H1300 C1243 0.930 . S
H1301 C1245 0.929 . S
H1302 C1246 0.930 . S
H1303 C1247 0.930 . S
H1304 C1250 0.930 . S
H1305 C1253 0.929 . S
H1306 C1258 0.929 . S
H1307 C1259 0.930 . S
H1308 C1266 0.929 . S
H1309 C1267 0.930 . S
H1310 C1268 0.930 . S
H1311 C1269 0.930 . S
H1312 C1271 0.929 . S
H1313 C1272 0.930 . S
H1314 C1273 0.930 . S
H1315 C1274 0.930 . S
H1316 C1278 0.929 . S
H1317 C1280 0.930 . S
H1318 C1286 0.929 . S
H1319 C1287 0.930 . S
Li1320 N1337 1.990 . S
Li1320 O1380 1.956 . S
Li1320 O1381 1.970 . S
Li1320 O1382 1.961 . S
Li1321 N1345 1.990 . S
Li1321 O1380 1.970 . S
Li1321 O1381 1.956 . S
Li1321 O1383 1.961 . S
Li1322 N1367 1.990 . S
Li1322 O1380 1.961 . S
Li1322 O1382 1.956 . S
Li1322 O1383 1.970 . S
Li1323 N1373 1.990 . S
Li1323 O1381 1.961 . S
Li1323 O1382 1.970 . S
Li1323 O1383 1.956 . S
C1324 C1326 1.348 . S
C1324 C1327 1.356 . S
C1324 O1380 1.325 . S
N1325 C1328 1.314 . S
N1325 C1329 1.279 . S
C1326 C1324 1.348 . S
C1326 C1328 1.353 . S
C1326 H1384 0.929 . S
C1327 C1324 1.356 . S
C1327 C1329 1.358 . S
C1327 H1385 0.930 . S
C1328 N1325 1.314 . S
C1328 C1326 1.353 . S
C1328 H1386 0.930 . S
C1329 N1325 1.279 . S
C1329 C1327 1.358 . S
C1329 H1387 0.930 . S
C1330 C1333 1.348 . S
C1330 C1334 1.356 . S
C1330 O1381 1.325 . S
C1331 N1332 1.279 . S
C1331 C1334 1.358 . S
C1331 H1388 0.930 . S
N1332 C1331 1.279 . S
N1332 C1335 1.314 . S
C1333 C1330 1.348 . S
C1333 C1335 1.353 . S
C1333 H1389 0.929 . S
C1334 C1330 1.356 . S
C1334 C1331 1.358 . S
C1334 H1390 0.930 . S
C1335 N1332 1.314 . S
C1335 C1333 1.353 . S
C1335 H1391 0.930 . S
C1336 N1337 1.314 . S
C1336 C1341 1.353 . S
C1336 H1342 0.930 . S
N1337 Li1320 1.990 . S
N1337 C1336 1.314 . S
N1337 C1339 1.279 . S
C1338 C1339 1.358 . S
C1338 C1340 1.356 . S
C1338 H1392 0.930 . S
C1339 N1337 1.279 . S
C1339 C1338 1.358 . S
C1339 H1343 0.930 . S
C1340 C1338 1.356 . S
C1340 C1341 1.348 . S
C1341 C1336 1.353 . S
C1341 C1340 1.348 . S
C1341 H1393 0.929 . S
H1342 C1336 0.930 . S
H1343 C1339 0.930 . S
C1344 N1345 1.314 . S
C1344 C1346 1.353 . S
C1344 H1350 0.930 . S
N1345 Li1321 1.990 . S
N1345 C1344 1.314 . S
N1345 C1348 1.279 . S
C1346 C1344 1.353 . S
C1346 C1349 1.348 . S
C1346 H1394 0.929 . S
C1347 C1348 1.358 . S
C1347 C1349 1.356 . S
C1347 H1395 0.930 . S
C1348 N1345 1.279 . S
C1348 C1347 1.358 . S
C1348 H1351 0.930 . S
C1349 C1346 1.348 . S
C1349 C1347 1.356 . S
H1350 C1344 0.930 . S
H1351 C1348 0.930 . S
C1352 C1354 1.348 . S
C1352 C1355 1.356 . S
C1352 O1382 1.325 . S
N1353 C1356 1.314 . S
N1353 C1357 1.279 . S
C1354 C1352 1.348 . S
C1354 C1356 1.353 . S
C1354 H1396 0.929 . S
C1355 C1352 1.356 . S
C1355 C1357 1.358 . S
C1355 H1397 0.930 . S
C1356 N1353 1.314 . S
C1356 C1354 1.353 . S
C1356 H1398 0.930 . S
C1357 N1353 1.279 . S
C1357 C1355 1.358 . S
C1357 H1399 0.930 . S
C1358 C1359 1.348 . S
C1358 C1360 1.356 . S
C1358 O1383 1.325 . S
C1359 C1358 1.348 . S
C1359 C1361 1.353 . S
C1359 H1400 0.929 . S
C1360 C1358 1.356 . S
C1360 C1362 1.358 . S
C1360 H1401 0.930 . S
C1361 C1359 1.353 . S
C1361 N1363 1.314 . S
C1361 H1402 0.930 . S
C1362 C1360 1.358 . S
C1362 N1363 1.279 . S
C1362 H1403 0.930 . S
N1363 C1361 1.314 . S
N1363 C1362 1.279 . S
C1364 C1366 1.353 . S
C1364 N1367 1.314 . S
C1364 H1370 0.930 . S
C1365 N1367 1.279 . S
C1365 C1368 1.358 . S
C1365 H1371 0.930 . S
C1366 C1364 1.353 . S
C1366 C1369 1.348 . S
C1366 H1404 0.929 . S
N1367 Li1322 1.990 . S
N1367 C1364 1.314 . S
N1367 C1365 1.279 . S
C1368 C1365 1.358 . S
C1368 C1369 1.356 . S
C1368 H1405 0.930 . S
C1369 C1366 1.348 . S
C1369 C1368 1.356 . S
H1370 C1364 0.930 . S
H1371 C1365 0.930 . S
C1372 N1373 1.314 . S
C1372 C1374 1.353 . S
C1372 H1378 0.930 . S
N1373 Li1323 1.990 . S
N1373 C1372 1.314 . S
N1373 C1376 1.279 . S
C1374 C1372 1.353 . S
C1374 C1377 1.348 . S
C1374 H1406 0.929 . S
C1375 C1376 1.358 . S
C1375 C1377 1.356 . S
C1375 H1407 0.930 . S
C1376 N1373 1.279 . S
C1376 C1375 1.358 . S
C1376 H1379 0.930 . S
C1377 C1374 1.348 . S
C1377 C1375 1.356 . S
H1378 C1372 0.930 . S
H1379 C1376 0.930 . S
O1380 Li1320 1.956 . S
O1380 Li1321 1.970 . S
O1380 Li1322 1.961 . S
O1380 C1324 1.325 . S
O1381 Li1320 1.970 . S
O1381 Li1321 1.956 . S
O1381 Li1323 1.961 . S
O1381 C1330 1.325 . S
O1382 Li1320 1.961 . S
O1382 Li1322 1.956 . S
O1382 Li1323 1.970 . S
O1382 C1352 1.325 . S
O1383 Li1321 1.961 . S
O1383 Li1322 1.970 . S
O1383 Li1323 1.956 . S
O1383 C1358 1.325 . S
H1384 C1326 0.929 . S
H1385 C1327 0.930 . S
H1386 C1328 0.930 . S
H1387 C1329 0.930 . S
H1388 C1331 0.930 . S
H1389 C1333 0.929 . S
H1390 C1334 0.930 . S
H1391 C1335 0.930 . S
H1392 C1338 0.930 . S
H1393 C1341 0.929 . S
H1394 C1346 0.929 . S
H1395 C1347 0.930 . S
H1396 C1354 0.929 . S
H1397 C1355 0.930 . S
H1398 C1356 0.930 . S
H1399 C1357 0.930 . S
H1400 C1359 0.929 . S
H1401 C1360 0.930 . S
H1402 C1361 0.930 . S
H1403 C1362 0.930 . S
H1404 C1366 0.929 . S
H1405 C1368 0.930 . S
H1406 C1374 0.929 . S
H1407 C1375 0.930 . S
Li1408 N1425 1.990 . S
Li1408 O1468 1.956 . S
Li1408 O1469 1.970 . S
Li1408 O1470 1.961 . S
Li1409 N1433 1.990 . S
Li1409 O1468 1.970 . S
Li1409 O1469 1.956 . S
Li1409 O1471 1.961 . S
Li1410 N1455 1.990 . S
Li1410 O1468 1.961 . S
Li1410 O1470 1.956 . S
Li1410 O1471 1.970 . S
Li1411 N1461 1.990 . S
Li1411 O1469 1.961 . S
Li1411 O1470 1.970 . S
Li1411 O1471 1.956 . S
C1412 C1414 1.348 . S
C1412 C1415 1.356 . S
C1412 O1468 1.325 . S
N1413 C1416 1.314 . S
N1413 C1417 1.279 . S
C1414 C1412 1.348 . S
C1414 C1416 1.353 . S
C1414 H1472 0.929 . S
C1415 C1412 1.356 . S
C1415 C1417 1.358 . S
C1415 H1473 0.930 . S
C1416 N1413 1.314 . S
C1416 C1414 1.353 . S
C1416 H1474 0.930 . S
C1417 N1413 1.279 . S
C1417 C1415 1.358 . S
C1417 H1475 0.930 . S
C1418 C1421 1.348 . S
C1418 C1422 1.356 . S
C1418 O1469 1.325 . S
C1419 N1420 1.279 . S
C1419 C1422 1.358 . S
C1419 H1476 0.930 . S
N1420 C1419 1.279 . S
N1420 C1423 1.314 . S
C1421 C1418 1.348 . S
C1421 C1423 1.353 . S
C1421 H1477 0.929 . S
C1422 C1418 1.356 . S
C1422 C1419 1.358 . S
C1422 H1478 0.930 . S
C1423 N1420 1.314 . S
C1423 C1421 1.353 . S
C1423 H1479 0.930 . S
C1424 N1425 1.314 . S
C1424 C1429 1.353 . S
C1424 H1430 0.930 . S
N1425 Li1408 1.990 . S
N1425 C1424 1.314 . S
N1425 C1427 1.279 . S
C1426 C1427 1.358 . S
C1426 C1428 1.356 . S
C1426 H1480 0.930 . S
C1427 N1425 1.279 . S
C1427 C1426 1.358 . S
C1427 H1431 0.930 . S
C1428 C1426 1.356 . S
C1428 C1429 1.348 . S
C1429 C1424 1.353 . S
C1429 C1428 1.348 . S
C1429 H1481 0.929 . S
H1430 C1424 0.930 . S
H1431 C1427 0.930 . S
C1432 N1433 1.314 . S
C1432 C1434 1.353 . S
C1432 H1438 0.930 . S
N1433 Li1409 1.990 . S
N1433 C1432 1.314 . S
N1433 C1436 1.279 . S
C1434 C1432 1.353 . S
C1434 C1437 1.348 . S
C1434 H1482 0.929 . S
C1435 C1436 1.358 . S
C1435 C1437 1.356 . S
C1435 H1483 0.930 . S
C1436 N1433 1.279 . S
C1436 C1435 1.358 . S
C1436 H1439 0.930 . S
C1437 C1434 1.348 . S
C1437 C1435 1.356 . S
H1438 C1432 0.930 . S
H1439 C1436 0.930 . S
C1440 C1442 1.348 . S
C1440 C1443 1.356 . S
C1440 O1470 1.325 . S
N1441 C1444 1.314 . S
N1441 C1445 1.279 . S
C1442 C1440 1.348 . S
C1442 C1444 1.353 . S
C1442 H1484 0.929 . S
C1443 C1440 1.356 . S
C1443 C1445 1.358 . S
C1443 H1485 0.930 . S
C1444 N1441 1.314 . S
C1444 C1442 1.353 . S
C1444 H1486 0.930 . S
C1445 N1441 1.279 . S
C1445 C1443 1.358 . S
C1445 H1487 0.930 . S
C1446 C1447 1.348 . S
C1446 C1448 1.356 . S
C1446 O1471 1.325 . S
C1447 C1446 1.348 . S
C1447 C1449 1.353 . S
C1447 H1488 0.929 . S
C1448 C1446 1.356 . S
C1448 C1450 1.358 . S
C1448 H1489 0.930 . S
C1449 C1447 1.353 . S
C1449 N1451 1.314 . S
C1449 H1490 0.930 . S
C1450 C1448 1.358 . S
C1450 N1451 1.279 . S
C1450 H1491 0.930 . S
N1451 C1449 1.314 . S
N1451 C1450 1.279 . S
C1452 C1454 1.353 . S
C1452 N1455 1.314 . S
C1452 H1458 0.930 . S
C1453 N1455 1.279 . S
C1453 C1456 1.358 . S
C1453 H1459 0.930 . S
C1454 C1452 1.353 . S
C1454 C1457 1.348 . S
C1454 H1492 0.929 . S
N1455 Li1410 1.990 . S
N1455 C1452 1.314 . S
N1455 C1453 1.279 . S
C1456 C1453 1.358 . S
C1456 C1457 1.356 . S
C1456 H1493 0.930 . S
C1457 C1454 1.348 . S
C1457 C1456 1.356 . S
H1458 C1452 0.930 . S
H1459 C1453 0.930 . S
C1460 N1461 1.314 . S
C1460 C1462 1.353 . S
C1460 H1466 0.930 . S
N1461 Li1411 1.990 . S
N1461 C1460 1.314 . S
N1461 C1464 1.279 . S
C1462 C1460 1.353 . S
C1462 C1465 1.348 . S
C1462 H1494 0.929 . S
C1463 C1464 1.358 . S
C1463 C1465 1.356 . S
C1463 H1495 0.930 . S
C1464 N1461 1.279 . S
C1464 C1463 1.358 . S
C1464 H1467 0.930 . S
C1465 C1462 1.348 . S
C1465 C1463 1.356 . S
H1466 C1460 0.930 . S
H1467 C1464 0.930 . S
O1468 Li1408 1.956 . S
O1468 Li1409 1.970 . S
O1468 Li1410 1.961 . S
O1468 C1412 1.325 . S
O1469 Li1408 1.970 . S
O1469 Li1409 1.956 . S
O1469 Li1411 1.961 . S
O1469 C1418 1.325 . S
O1470 Li1408 1.961 . S
O1470 Li1410 1.956 . S
O1470 Li1411 1.970 . S
O1470 C1440 1.325 . S
O1471 Li1409 1.961 . S
O1471 Li1410 1.970 . S
O1471 Li1411 1.956 . S
O1471 C1446 1.325 . S
H1472 C1414 0.929 . S
H1473 C1415 0.930 . S
H1474 C1416 0.930 . S
H1475 C1417 0.930 . S
H1476 C1419 0.930 . S
H1477 C1421 0.929 . S
H1478 C1422 0.930 . S
H1479 C1423 0.930 . S
H1480 C1426 0.930 . S
H1481 C1429 0.929 . S
H1482 C1434 0.929 . S
H1483 C1435 0.930 . S
H1484 C1442 0.929 . S
H1485 C1443 0.930 . S
H1486 C1444 0.930 . S
H1487 C1445 0.930 . S
H1488 C1447 0.929 . S
H1489 C1448 0.930 . S
H1490 C1449 0.930 . S
H1491 C1450 0.930 . S
H1492 C1454 0.929 . S
H1493 C1456 0.930 . S
H1494 C1462 0.929 . S
H1495 C1463 0.930 . S
Li1496 N1513 1.990 . S
Li1496 O1556 1.956 . S
Li1496 O1557 1.970 . S
Li1496 O1558 1.961 . S
Li1497 N1521 1.990 . S
Li1497 O1556 1.970 . S
Li1497 O1557 1.956 . S
Li1497 O1559 1.961 . S
Li1498 N1543 1.990 . S
Li1498 O1556 1.961 . S
Li1498 O1558 1.956 . S
Li1498 O1559 1.970 . S
Li1499 N1549 1.990 . S
Li1499 O1557 1.961 . S
Li1499 O1558 1.970 . S
Li1499 O1559 1.956 . S
C1500 C1502 1.348 . S
C1500 C1503 1.356 . S
C1500 O1556 1.325 . S
N1501 C1504 1.314 . S
N1501 C1505 1.279 . S
C1502 C1500 1.348 . S
C1502 C1504 1.353 . S
C1502 H1560 0.929 . S
C1503 C1500 1.356 . S
C1503 C1505 1.358 . S
C1503 H1561 0.930 . S
C1504 N1501 1.314 . S
C1504 C1502 1.353 . S
C1504 H1562 0.930 . S
C1505 N1501 1.279 . S
C1505 C1503 1.358 . S
C1505 H1563 0.930 . S
C1506 C1509 1.348 . S
C1506 C1510 1.356 . S
C1506 O1557 1.325 . S
C1507 N1508 1.279 . S
C1507 C1510 1.358 . S
C1507 H1564 0.930 . S
N1508 C1507 1.279 . S
N1508 C1511 1.314 . S
C1509 C1506 1.348 . S
C1509 C1511 1.353 . S
C1509 H1565 0.929 . S
C1510 C1506 1.356 . S
C1510 C1507 1.358 . S
C1510 H1566 0.930 . S
C1511 N1508 1.314 . S
C1511 C1509 1.353 . S
C1511 H1567 0.930 . S
C1512 N1513 1.314 . S
C1512 C1517 1.353 . S
C1512 H1518 0.930 . S
N1513 Li1496 1.990 . S
N1513 C1512 1.314 . S
N1513 C1515 1.279 . S
C1514 C1515 1.358 . S
C1514 C1516 1.356 . S
C1514 H1568 0.930 . S
C1515 N1513 1.279 . S
C1515 C1514 1.358 . S
C1515 H1519 0.930 . S
C1516 C1514 1.356 . S
C1516 C1517 1.348 . S
C1517 C1512 1.353 . S
C1517 C1516 1.348 . S
C1517 H1569 0.929 . S
H1518 C1512 0.930 . S
H1519 C1515 0.930 . S
C1520 N1521 1.314 . S
C1520 C1522 1.353 . S
C1520 H1526 0.930 . S
N1521 Li1497 1.990 . S
N1521 C1520 1.314 . S
N1521 C1524 1.279 . S
C1522 C1520 1.353 . S
C1522 C1525 1.348 . S
C1522 H1570 0.929 . S
C1523 C1524 1.358 . S
C1523 C1525 1.356 . S
C1523 H1571 0.930 . S
C1524 N1521 1.279 . S
C1524 C1523 1.358 . S
C1524 H1527 0.930 . S
C1525 C1522 1.348 . S
C1525 C1523 1.356 . S
H1526 C1520 0.930 . S
H1527 C1524 0.930 . S
C1528 C1530 1.348 . S
C1528 C1531 1.356 . S
C1528 O1558 1.325 . S
N1529 C1532 1.314 . S
N1529 C1533 1.279 . S
C1530 C1528 1.348 . S
C1530 C1532 1.353 . S
C1530 H1572 0.929 . S
C1531 C1528 1.356 . S
C1531 C1533 1.358 . S
C1531 H1573 0.930 . S
C1532 N1529 1.314 . S
C1532 C1530 1.353 . S
C1532 H1574 0.930 . S
C1533 N1529 1.279 . S
C1533 C1531 1.358 . S
C1533 H1575 0.930 . S
C1534 C1535 1.348 . S
C1534 C1536 1.356 . S
C1534 O1559 1.325 . S
C1535 C1534 1.348 . S
C1535 C1537 1.353 . S
C1535 H1576 0.929 . S
C1536 C1534 1.356 . S
C1536 C1538 1.358 . S
C1536 H1577 0.930 . S
C1537 C1535 1.353 . S
C1537 N1539 1.314 . S
C1537 H1578 0.930 . S
C1538 C1536 1.358 . S
C1538 N1539 1.279 . S
C1538 H1579 0.930 . S
N1539 C1537 1.314 . S
N1539 C1538 1.279 . S
C1540 C1542 1.353 . S
C1540 N1543 1.314 . S
C1540 H1546 0.930 . S
C1541 N1543 1.279 . S
C1541 C1544 1.358 . S
C1541 H1547 0.930 . S
C1542 C1540 1.353 . S
C1542 C1545 1.348 . S
C1542 H1580 0.929 . S
N1543 Li1498 1.990 . S
N1543 C1540 1.314 . S
N1543 C1541 1.279 . S
C1544 C1541 1.358 . S
C1544 C1545 1.356 . S
C1544 H1581 0.930 . S
C1545 C1542 1.348 . S
C1545 C1544 1.356 . S
H1546 C1540 0.930 . S
H1547 C1541 0.930 . S
C1548 N1549 1.314 . S
C1548 C1550 1.353 . S
C1548 H1554 0.930 . S
N1549 Li1499 1.990 . S
N1549 C1548 1.314 . S
N1549 C1552 1.279 . S
C1550 C1548 1.353 . S
C1550 C1553 1.348 . S
C1550 H1582 0.929 . S
C1551 C1552 1.358 . S
C1551 C1553 1.356 . S
C1551 H1583 0.930 . S
C1552 N1549 1.279 . S
C1552 C1551 1.358 . S
C1552 H1555 0.930 . S
C1553 C1550 1.348 . S
C1553 C1551 1.356 . S
H1554 C1548 0.930 . S
H1555 C1552 0.930 . S
O1556 Li1496 1.956 . S
O1556 Li1497 1.970 . S
O1556 Li1498 1.961 . S
O1556 C1500 1.325 . S
O1557 Li1496 1.970 . S
O1557 Li1497 1.956 . S
O1557 Li1499 1.961 . S
O1557 C1506 1.325 . S
O1558 Li1496 1.961 . S
O1558 Li1498 1.956 . S
O1558 Li1499 1.970 . S
O1558 C1528 1.325 . S
O1559 Li1497 1.961 . S
O1559 Li1498 1.970 . S
O1559 Li1499 1.956 . S
O1559 C1534 1.325 . S
H1560 C1502 0.929 . S
H1561 C1503 0.930 . S
H1562 C1504 0.930 . S
H1563 C1505 0.930 . S
H1564 C1507 0.930 . S
H1565 C1509 0.929 . S
H1566 C1510 0.930 . S
H1567 C1511 0.930 . S
H1568 C1514 0.930 . S
H1569 C1517 0.929 . S
H1570 C1522 0.929 . S
H1571 C1523 0.930 . S
H1572 C1530 0.929 . S
H1573 C1531 0.930 . S
H1574 C1532 0.930 . S
H1575 C1533 0.930 . S
H1576 C1535 0.929 . S
H1577 C1536 0.930 . S
H1578 C1537 0.930 . S
H1579 C1538 0.930 . S
H1580 C1542 0.929 . S
H1581 C1544 0.930 . S
H1582 C1550 0.929 . S
H1583 C1551 0.930 . S
Li1584 N1601 1.990 . S
Li1584 O1644 1.956 . S
Li1584 O1645 1.970 . S
Li1584 O1646 1.961 . S
Li1585 N1609 1.990 . S
Li1585 O1644 1.970 . S
Li1585 O1645 1.956 . S
Li1585 O1647 1.961 . S
Li1586 N1631 1.990 . S
Li1586 O1644 1.961 . S
Li1586 O1646 1.956 . S
Li1586 O1647 1.970 . S
Li1587 N1637 1.990 . S
Li1587 O1645 1.961 . S
Li1587 O1646 1.970 . S
Li1587 O1647 1.956 . S
C1588 C1590 1.348 . S
C1588 C1591 1.356 . S
C1588 O1644 1.325 . S
N1589 C1592 1.314 . S
N1589 C1593 1.279 . S
C1590 C1588 1.348 . S
C1590 C1592 1.353 . S
C1590 H1648 0.929 . S
C1591 C1588 1.356 . S
C1591 C1593 1.358 . S
C1591 H1649 0.930 . S
C1592 N1589 1.314 . S
C1592 C1590 1.353 . S
C1592 H1650 0.930 . S
C1593 N1589 1.279 . S
C1593 C1591 1.358 . S
C1593 H1651 0.930 . S
C1594 C1597 1.348 . S
C1594 C1598 1.356 . S
C1594 O1645 1.325 . S
C1595 N1596 1.279 . S
C1595 C1598 1.358 . S
C1595 H1652 0.930 . S
N1596 C1595 1.279 . S
N1596 C1599 1.314 . S
C1597 C1594 1.348 . S
C1597 C1599 1.353 . S
C1597 H1653 0.929 . S
C1598 C1594 1.356 . S
C1598 C1595 1.358 . S
C1598 H1654 0.930 . S
C1599 N1596 1.314 . S
C1599 C1597 1.353 . S
C1599 H1655 0.930 . S
C1600 N1601 1.314 . S
C1600 C1605 1.353 . S
C1600 H1606 0.930 . S
N1601 Li1584 1.990 . S
N1601 C1600 1.314 . S
N1601 C1603 1.279 . S
C1602 C1603 1.358 . S
C1602 C1604 1.356 . S
C1602 H1656 0.930 . S
C1603 N1601 1.279 . S
C1603 C1602 1.358 . S
C1603 H1607 0.930 . S
C1604 C1602 1.356 . S
C1604 C1605 1.348 . S
C1605 C1600 1.353 . S
C1605 C1604 1.348 . S
C1605 H1657 0.929 . S
H1606 C1600 0.930 . S
H1607 C1603 0.930 . S
C1608 N1609 1.314 . S
C1608 C1610 1.353 . S
C1608 H1614 0.930 . S
N1609 Li1585 1.990 . S
N1609 C1608 1.314 . S
N1609 C1612 1.279 . S
C1610 C1608 1.353 . S
C1610 C1613 1.348 . S
C1610 H1658 0.929 . S
C1611 C1612 1.358 . S
C1611 C1613 1.356 . S
C1611 H1659 0.930 . S
C1612 N1609 1.279 . S
C1612 C1611 1.358 . S
C1612 H1615 0.930 . S
C1613 C1610 1.348 . S
C1613 C1611 1.356 . S
H1614 C1608 0.930 . S
H1615 C1612 0.930 . S
C1616 C1618 1.348 . S
C1616 C1619 1.356 . S
C1616 O1646 1.325 . S
N1617 C1620 1.314 . S
N1617 C1621 1.279 . S
C1618 C1616 1.348 . S
C1618 C1620 1.353 . S
C1618 H1660 0.929 . S
C1619 C1616 1.356 . S
C1619 C1621 1.358 . S
C1619 H1661 0.930 . S
C1620 N1617 1.314 . S
C1620 C1618 1.353 . S
C1620 H1662 0.930 . S
C1621 N1617 1.279 . S
C1621 C1619 1.358 . S
C1621 H1663 0.930 . S
C1622 C1623 1.348 . S
C1622 C1624 1.356 . S
C1622 O1647 1.325 . S
C1623 C1622 1.348 . S
C1623 C1625 1.353 . S
C1623 H1664 0.929 . S
C1624 C1622 1.356 . S
C1624 C1626 1.358 . S
C1624 H1665 0.930 . S
C1625 C1623 1.353 . S
C1625 N1627 1.314 . S
C1625 H1666 0.930 . S
C1626 C1624 1.358 . S
C1626 N1627 1.279 . S
C1626 H1667 0.930 . S
N1627 C1625 1.314 . S
N1627 C1626 1.279 . S
C1628 C1630 1.353 . S
C1628 N1631 1.314 . S
C1628 H1634 0.930 . S
C1629 N1631 1.279 . S
C1629 C1632 1.358 . S
C1629 H1635 0.930 . S
C1630 C1628 1.353 . S
C1630 C1633 1.348 . S
C1630 H1668 0.929 . S
N1631 Li1586 1.990 . S
N1631 C1628 1.314 . S
N1631 C1629 1.279 . S
C1632 C1629 1.358 . S
C1632 C1633 1.356 . S
C1632 H1669 0.930 . S
C1633 C1630 1.348 . S
C1633 C1632 1.356 . S
H1634 C1628 0.930 . S
H1635 C1629 0.930 . S
C1636 N1637 1.314 . S
C1636 C1638 1.353 . S
C1636 H1642 0.930 . S
N1637 Li1587 1.990 . S
N1637 C1636 1.314 . S
N1637 C1640 1.279 . S
C1638 C1636 1.353 . S
C1638 C1641 1.348 . S
C1638 H1670 0.929 . S
C1639 C1640 1.358 . S
C1639 C1641 1.356 . S
C1639 H1671 0.930 . S
C1640 N1637 1.279 . S
C1640 C1639 1.358 . S
C1640 H1643 0.930 . S
C1641 C1638 1.348 . S
C1641 C1639 1.356 . S
H1642 C1636 0.930 . S
H1643 C1640 0.930 . S
O1644 Li1584 1.956 . S
O1644 Li1585 1.970 . S
O1644 Li1586 1.961 . S
O1644 C1588 1.325 . S
O1645 Li1584 1.970 . S
O1645 Li1585 1.956 . S
O1645 Li1587 1.961 . S
O1645 C1594 1.325 . S
O1646 Li1584 1.961 . S
O1646 Li1586 1.956 . S
O1646 Li1587 1.970 . S
O1646 C1616 1.325 . S
O1647 Li1585 1.961 . S
O1647 Li1586 1.970 . S
O1647 Li1587 1.956 . S
O1647 C1622 1.325 . S
H1648 C1590 0.929 . S
H1649 C1591 0.930 . S
H1650 C1592 0.930 . S
H1651 C1593 0.930 . S
H1652 C1595 0.930 . S
H1653 C1597 0.929 . S
H1654 C1598 0.930 . S
H1655 C1599 0.930 . S
H1656 C1602 0.930 . S
H1657 C1605 0.929 . S
H1658 C1610 0.929 . S
H1659 C1611 0.930 . S
H1660 C1618 0.929 . S
H1661 C1619 0.930 . S
H1662 C1620 0.930 . S
H1663 C1621 0.930 . S
H1664 C1623 0.929 . S
H1665 C1624 0.930 . S
H1666 C1625 0.930 . S
H1667 C1626 0.930 . S
H1668 C1630 0.929 . S
H1669 C1632 0.930 . S
H1670 C1638 0.929 . S
H1671 C1639 0.930 . S
Li1672 N1689 1.990 . S
Li1672 O1732 1.956 . S
Li1672 O1733 1.970 . S
Li1672 O1734 1.961 . S
Li1673 N1697 1.990 . S
Li1673 O1732 1.970 . S
Li1673 O1733 1.956 . S
Li1673 O1735 1.961 . S
Li1674 N1719 1.990 . S
Li1674 O1732 1.961 . S
Li1674 O1734 1.956 . S
Li1674 O1735 1.970 . S
Li1675 N1725 1.990 . S
Li1675 O1733 1.961 . S
Li1675 O1734 1.970 . S
Li1675 O1735 1.956 . S
C1676 C1678 1.348 . S
C1676 C1679 1.356 . S
C1676 O1732 1.325 . S
N1677 C1680 1.314 . S
N1677 C1681 1.279 . S
C1678 C1676 1.348 . S
C1678 C1680 1.353 . S
C1678 H1736 0.929 . S
C1679 C1676 1.356 . S
C1679 C1681 1.358 . S
C1679 H1737 0.930 . S
C1680 N1677 1.314 . S
C1680 C1678 1.353 . S
C1680 H1738 0.930 . S
C1681 N1677 1.279 . S
C1681 C1679 1.358 . S
C1681 H1739 0.930 . S
C1682 C1685 1.348 . S
C1682 C1686 1.356 . S
C1682 O1733 1.325 . S
C1683 N1684 1.279 . S
C1683 C1686 1.358 . S
C1683 H1740 0.930 . S
N1684 C1683 1.279 . S
N1684 C1687 1.314 . S
C1685 C1682 1.348 . S
C1685 C1687 1.353 . S
C1685 H1741 0.929 . S
C1686 C1682 1.356 . S
C1686 C1683 1.358 . S
C1686 H1742 0.930 . S
C1687 N1684 1.314 . S
C1687 C1685 1.353 . S
C1687 H1743 0.930 . S
C1688 N1689 1.314 . S
C1688 C1693 1.353 . S
C1688 H1694 0.930 . S
N1689 Li1672 1.990 . S
N1689 C1688 1.314 . S
N1689 C1691 1.279 . S
C1690 C1691 1.358 . S
C1690 C1692 1.356 . S
C1690 H1744 0.930 . S
C1691 N1689 1.279 . S
C1691 C1690 1.358 . S
C1691 H1695 0.930 . S
C1692 C1690 1.356 . S
C1692 C1693 1.348 . S
C1693 C1688 1.353 . S
C1693 C1692 1.348 . S
C1693 H1745 0.929 . S
H1694 C1688 0.930 . S
H1695 C1691 0.930 . S
C1696 N1697 1.314 . S
C1696 C1698 1.353 . S
C1696 H1702 0.930 . S
N1697 Li1673 1.990 . S
N1697 C1696 1.314 . S
N1697 C1700 1.279 . S
C1698 C1696 1.353 . S
C1698 C1701 1.348 . S
C1698 H1746 0.929 . S
C1699 C1700 1.358 . S
C1699 C1701 1.356 . S
C1699 H1747 0.930 . S
C1700 N1697 1.279 . S
C1700 C1699 1.358 . S
C1700 H1703 0.930 . S
C1701 C1698 1.348 . S
C1701 C1699 1.356 . S
H1702 C1696 0.930 . S
H1703 C1700 0.930 . S
C1704 C1706 1.348 . S
C1704 C1707 1.356 . S
C1704 O1734 1.325 . S
N1705 C1708 1.314 . S
N1705 C1709 1.279 . S
C1706 C1704 1.348 . S
C1706 C1708 1.353 . S
C1706 H1748 0.929 . S
C1707 C1704 1.356 . S
C1707 C1709 1.358 . S
C1707 H1749 0.930 . S
C1708 N1705 1.314 . S
C1708 C1706 1.353 . S
C1708 H1750 0.930 . S
C1709 N1705 1.279 . S
C1709 C1707 1.358 . S
C1709 H1751 0.930 . S
C1710 C1711 1.348 . S
C1710 C1712 1.356 . S
C1710 O1735 1.325 . S
C1711 C1710 1.348 . S
C1711 C1713 1.353 . S
C1711 H1752 0.929 . S
C1712 C1710 1.356 . S
C1712 C1714 1.358 . S
C1712 H1753 0.930 . S
C1713 C1711 1.353 . S
C1713 N1715 1.314 . S
C1713 H1754 0.930 . S
C1714 C1712 1.358 . S
C1714 N1715 1.279 . S
C1714 H1755 0.930 . S
N1715 C1713 1.314 . S
N1715 C1714 1.279 . S
C1716 C1718 1.353 . S
C1716 N1719 1.314 . S
C1716 H1722 0.930 . S
C1717 N1719 1.279 . S
C1717 C1720 1.358 . S
C1717 H1723 0.930 . S
C1718 C1716 1.353 . S
C1718 C1721 1.348 . S
C1718 H1756 0.929 . S
N1719 Li1674 1.990 . S
N1719 C1716 1.314 . S
N1719 C1717 1.279 . S
C1720 C1717 1.358 . S
C1720 C1721 1.356 . S
C1720 H1757 0.930 . S
C1721 C1718 1.348 . S
C1721 C1720 1.356 . S
H1722 C1716 0.930 . S
H1723 C1717 0.930 . S
C1724 N1725 1.314 . S
C1724 C1726 1.353 . S
C1724 H1730 0.930 . S
N1725 Li1675 1.990 . S
N1725 C1724 1.314 . S
N1725 C1728 1.279 . S
C1726 C1724 1.353 . S
C1726 C1729 1.348 . S
C1726 H1758 0.929 . S
C1727 C1728 1.358 . S
C1727 C1729 1.356 . S
C1727 H1759 0.930 . S
C1728 N1725 1.279 . S
C1728 C1727 1.358 . S
C1728 H1731 0.930 . S
C1729 C1726 1.348 . S
C1729 C1727 1.356 . S
H1730 C1724 0.930 . S
H1731 C1728 0.930 . S
O1732 Li1672 1.956 . S
O1732 Li1673 1.970 . S
O1732 Li1674 1.961 . S
O1732 C1676 1.325 . S
O1733 Li1672 1.970 . S
O1733 Li1673 1.956 . S
O1733 Li1675 1.961 . S
O1733 C1682 1.325 . S
O1734 Li1672 1.961 . S
O1734 Li1674 1.956 . S
O1734 Li1675 1.970 . S
O1734 C1704 1.325 . S
O1735 Li1673 1.961 . S
O1735 Li1674 1.970 . S
O1735 Li1675 1.956 . S
O1735 C1710 1.325 . S
H1736 C1678 0.929 . S
H1737 C1679 0.930 . S
H1738 C1680 0.930 . S
H1739 C1681 0.930 . S
H1740 C1683 0.930 . S
H1741 C1685 0.929 . S
H1742 C1686 0.930 . S
H1743 C1687 0.930 . S
H1744 C1690 0.930 . S
H1745 C1693 0.929 . S
H1746 C1698 0.929 . S
H1747 C1699 0.930 . S
H1748 C1706 0.929 . S
H1749 C1707 0.930 . S
H1750 C1708 0.930 . S
H1751 C1709 0.930 . S
H1752 C1711 0.929 . S
H1753 C1712 0.930 . S
H1754 C1713 0.930 . S
H1755 C1714 0.930 . S
H1756 C1718 0.929 . S
H1757 C1720 0.930 . S
H1758 C1726 0.929 . S
H1759 C1727 0.930 . S
Li1760 N1777 1.990 . S
Li1760 O1820 1.956 . S
Li1760 O1821 1.970 . S
Li1760 O1822 1.961 . S
Li1761 N1785 1.990 . S
Li1761 O1820 1.970 . S
Li1761 O1821 1.956 . S
Li1761 O1823 1.961 . S
Li1762 N1807 1.990 . S
Li1762 O1820 1.961 . S
Li1762 O1822 1.956 . S
Li1762 O1823 1.970 . S
Li1763 N1813 1.990 . S
Li1763 O1821 1.961 . S
Li1763 O1822 1.970 . S
Li1763 O1823 1.956 . S
C1764 C1766 1.348 . S
C1764 C1767 1.356 . S
C1764 O1820 1.325 . S
N1765 C1768 1.314 . S
N1765 C1769 1.279 . S
C1766 C1764 1.348 . S
C1766 C1768 1.353 . S
C1766 H1824 0.929 . S
C1767 C1764 1.356 . S
C1767 C1769 1.358 . S
C1767 H1825 0.930 . S
C1768 N1765 1.314 . S
C1768 C1766 1.353 . S
C1768 H1826 0.930 . S
C1769 N1765 1.279 . S
C1769 C1767 1.358 . S
C1769 H1827 0.930 . S
C1770 C1773 1.348 . S
C1770 C1774 1.356 . S
C1770 O1821 1.325 . S
C1771 N1772 1.279 . S
C1771 C1774 1.358 . S
C1771 H1828 0.930 . S
N1772 C1771 1.279 . S
N1772 C1775 1.314 . S
C1773 C1770 1.348 . S
C1773 C1775 1.353 . S
C1773 H1829 0.929 . S
C1774 C1770 1.356 . S
C1774 C1771 1.358 . S
C1774 H1830 0.930 . S
C1775 N1772 1.314 . S
C1775 C1773 1.353 . S
C1775 H1831 0.930 . S
C1776 N1777 1.314 . S
C1776 C1781 1.353 . S
C1776 H1782 0.930 . S
N1777 Li1760 1.990 . S
N1777 C1776 1.314 . S
N1777 C1779 1.279 . S
C1778 C1779 1.358 . S
C1778 C1780 1.356 . S
C1778 H1832 0.930 . S
C1779 N1777 1.279 . S
C1779 C1778 1.358 . S
C1779 H1783 0.930 . S
C1780 C1778 1.356 . S
C1780 C1781 1.348 . S
C1781 C1776 1.353 . S
C1781 C1780 1.348 . S
C1781 H1833 0.929 . S
H1782 C1776 0.930 . S
H1783 C1779 0.930 . S
C1784 N1785 1.314 . S
C1784 C1786 1.353 . S
C1784 H1790 0.930 . S
N1785 Li1761 1.990 . S
N1785 C1784 1.314 . S
N1785 C1788 1.279 . S
C1786 C1784 1.353 . S
C1786 C1789 1.348 . S
C1786 H1834 0.929 . S
C1787 C1788 1.358 . S
C1787 C1789 1.356 . S
C1787 H1835 0.930 . S
C1788 N1785 1.279 . S
C1788 C1787 1.358 . S
C1788 H1791 0.930 . S
C1789 C1786 1.348 . S
C1789 C1787 1.356 . S
H1790 C1784 0.930 . S
H1791 C1788 0.930 . S
C1792 C1794 1.348 . S
C1792 C1795 1.356 . S
C1792 O1822 1.325 . S
N1793 C1796 1.314 . S
N1793 C1797 1.279 . S
C1794 C1792 1.348 . S
C1794 C1796 1.353 . S
C1794 H1836 0.929 . S
C1795 C1792 1.356 . S
C1795 C1797 1.358 . S
C1795 H1837 0.930 . S
C1796 N1793 1.314 . S
C1796 C1794 1.353 . S
C1796 H1838 0.930 . S
C1797 N1793 1.279 . S
C1797 C1795 1.358 . S
C1797 H1839 0.930 . S
C1798 C1799 1.348 . S
C1798 C1800 1.356 . S
C1798 O1823 1.325 . S
C1799 C1798 1.348 . S
C1799 C1801 1.353 . S
C1799 H1840 0.929 . S
C1800 C1798 1.356 . S
C1800 C1802 1.358 . S
C1800 H1841 0.930 . S
C1801 C1799 1.353 . S
C1801 N1803 1.314 . S
C1801 H1842 0.930 . S
C1802 C1800 1.358 . S
C1802 N1803 1.279 . S
C1802 H1843 0.930 . S
N1803 C1801 1.314 . S
N1803 C1802 1.279 . S
C1804 C1806 1.353 . S
C1804 N1807 1.314 . S
C1804 H1810 0.930 . S
C1805 N1807 1.279 . S
C1805 C1808 1.358 . S
C1805 H1811 0.930 . S
C1806 C1804 1.353 . S
C1806 C1809 1.348 . S
C1806 H1844 0.929 . S
N1807 Li1762 1.990 . S
N1807 C1804 1.314 . S
N1807 C1805 1.279 . S
C1808 C1805 1.358 . S
C1808 C1809 1.356 . S
C1808 H1845 0.930 . S
C1809 C1806 1.348 . S
C1809 C1808 1.356 . S
H1810 C1804 0.930 . S
H1811 C1805 0.930 . S
C1812 N1813 1.314 . S
C1812 C1814 1.353 . S
C1812 H1818 0.930 . S
N1813 Li1763 1.990 . S
N1813 C1812 1.314 . S
N1813 C1816 1.279 . S
C1814 C1812 1.353 . S
C1814 C1817 1.348 . S
C1814 H1846 0.929 . S
C1815 C1816 1.358 . S
C1815 C1817 1.356 . S
C1815 H1847 0.930 . S
C1816 N1813 1.279 . S
C1816 C1815 1.358 . S
C1816 H1819 0.930 . S
C1817 C1814 1.348 . S
C1817 C1815 1.356 . S
H1818 C1812 0.930 . S
H1819 C1816 0.930 . S
O1820 Li1760 1.956 . S
O1820 Li1761 1.970 . S
O1820 Li1762 1.961 . S
O1820 C1764 1.325 . S
O1821 Li1760 1.970 . S
O1821 Li1761 1.956 . S
O1821 Li1763 1.961 . S
O1821 C1770 1.325 . S
O1822 Li1760 1.961 . S
O1822 Li1762 1.956 . S
O1822 Li1763 1.970 . S
O1822 C1792 1.325 . S
O1823 Li1761 1.961 . S
O1823 Li1762 1.970 . S
O1823 Li1763 1.956 . S
O1823 C1798 1.325 . S
H1824 C1766 0.929 . S
H1825 C1767 0.930 . S
H1826 C1768 0.930 . S
H1827 C1769 0.930 . S
H1828 C1771 0.930 . S
H1829 C1773 0.929 . S
H1830 C1774 0.930 . S
H1831 C1775 0.930 . S
H1832 C1778 0.930 . S
H1833 C1781 0.929 . S
H1834 C1786 0.929 . S
H1835 C1787 0.930 . S
H1836 C1794 0.929 . S
H1837 C1795 0.930 . S
H1838 C1796 0.930 . S
H1839 C1797 0.930 . S
H1840 C1799 0.929 . S
H1841 C1800 0.930 . S
H1842 C1801 0.930 . S
H1843 C1802 0.930 . S
H1844 C1806 0.929 . S
H1845 C1808 0.930 . S
H1846 C1814 0.929 . S
H1847 C1815 0.930 . S
Li1848 N1865 1.990 . S
Li1848 O1908 1.956 . S
Li1848 O1909 1.970 . S
Li1848 O1910 1.961 . S
Li1849 N1873 1.990 . S
Li1849 O1908 1.970 . S
Li1849 O1909 1.956 . S
Li1849 O1911 1.961 . S
Li1850 N1895 1.990 . S
Li1850 O1908 1.961 . S
Li1850 O1910 1.956 . S
Li1850 O1911 1.970 . S
Li1851 N1901 1.990 . S
Li1851 O1909 1.961 . S
Li1851 O1910 1.970 . S
Li1851 O1911 1.956 . S
C1852 C1854 1.348 . S
C1852 C1855 1.356 . S
C1852 O1908 1.325 . S
N1853 C1856 1.314 . S
N1853 C1857 1.279 . S
C1854 C1852 1.348 . S
C1854 C1856 1.353 . S
C1854 H1912 0.929 . S
C1855 C1852 1.356 . S
C1855 C1857 1.358 . S
C1855 H1913 0.930 . S
C1856 N1853 1.314 . S
C1856 C1854 1.353 . S
C1856 H1914 0.930 . S
C1857 N1853 1.279 . S
C1857 C1855 1.358 . S
C1857 H1915 0.930 . S
C1858 C1861 1.348 . S
C1858 C1862 1.356 . S
C1858 O1909 1.325 . S
C1859 N1860 1.279 . S
C1859 C1862 1.358 . S
C1859 H1916 0.930 . S
N1860 C1859 1.279 . S
N1860 C1863 1.314 . S
C1861 C1858 1.348 . S
C1861 C1863 1.353 . S
C1861 H1917 0.929 . S
C1862 C1858 1.356 . S
C1862 C1859 1.358 . S
C1862 H1918 0.930 . S
C1863 N1860 1.314 . S
C1863 C1861 1.353 . S
C1863 H1919 0.930 . S
C1864 N1865 1.314 . S
C1864 C1869 1.353 . S
C1864 H1870 0.930 . S
N1865 Li1848 1.990 . S
N1865 C1864 1.314 . S
N1865 C1867 1.279 . S
C1866 C1867 1.358 . S
C1866 C1868 1.356 . S
C1866 H1920 0.930 . S
C1867 N1865 1.279 . S
C1867 C1866 1.358 . S
C1867 H1871 0.930 . S
C1868 C1866 1.356 . S
C1868 C1869 1.348 . S
C1869 C1864 1.353 . S
C1869 C1868 1.348 . S
C1869 H1921 0.929 . S
H1870 C1864 0.930 . S
H1871 C1867 0.930 . S
C1872 N1873 1.314 . S
C1872 C1874 1.353 . S
C1872 H1878 0.930 . S
N1873 Li1849 1.990 . S
N1873 C1872 1.314 . S
N1873 C1876 1.279 . S
C1874 C1872 1.353 . S
C1874 C1877 1.348 . S
C1874 H1922 0.929 . S
C1875 C1876 1.358 . S
C1875 C1877 1.356 . S
C1875 H1923 0.930 . S
C1876 N1873 1.279 . S
C1876 C1875 1.358 . S
C1876 H1879 0.930 . S
C1877 C1874 1.348 . S
C1877 C1875 1.356 . S
H1878 C1872 0.930 . S
H1879 C1876 0.930 . S
C1880 C1882 1.348 . S
C1880 C1883 1.356 . S
C1880 O1910 1.325 . S
N1881 C1884 1.314 . S
N1881 C1885 1.279 . S
C1882 C1880 1.348 . S
C1882 C1884 1.353 . S
C1882 H1924 0.929 . S
C1883 C1880 1.356 . S
C1883 C1885 1.358 . S
C1883 H1925 0.930 . S
C1884 N1881 1.314 . S
C1884 C1882 1.353 . S
C1884 H1926 0.930 . S
C1885 N1881 1.279 . S
C1885 C1883 1.358 . S
C1885 H1927 0.930 . S
C1886 C1887 1.348 . S
C1886 C1888 1.356 . S
C1886 O1911 1.325 . S
C1887 C1886 1.348 . S
C1887 C1889 1.353 . S
C1887 H1928 0.929 . S
C1888 C1886 1.356 . S
C1888 C1890 1.358 . S
C1888 H1929 0.930 . S
C1889 C1887 1.353 . S
C1889 N1891 1.314 . S
C1889 H1930 0.930 . S
C1890 C1888 1.358 . S
C1890 N1891 1.279 . S
C1890 H1931 0.930 . S
N1891 C1889 1.314 . S
N1891 C1890 1.279 . S
C1892 C1894 1.353 . S
C1892 N1895 1.314 . S
C1892 H1898 0.930 . S
C1893 N1895 1.279 . S
C1893 C1896 1.358 . S
C1893 H1899 0.930 . S
C1894 C1892 1.353 . S
C1894 C1897 1.348 . S
C1894 H1932 0.929 . S
N1895 Li1850 1.990 . S
N1895 C1892 1.314 . S
N1895 C1893 1.279 . S
C1896 C1893 1.358 . S
C1896 C1897 1.356 . S
C1896 H1933 0.930 . S
C1897 C1894 1.348 . S
C1897 C1896 1.356 . S
H1898 C1892 0.930 . S
H1899 C1893 0.930 . S
C1900 N1901 1.314 . S
C1900 C1902 1.353 . S
C1900 H1906 0.930 . S
N1901 Li1851 1.990 . S
N1901 C1900 1.314 . S
N1901 C1904 1.279 . S
C1902 C1900 1.353 . S
C1902 C1905 1.348 . S
C1902 H1934 0.929 . S
C1903 C1904 1.358 . S
C1903 C1905 1.356 . S
C1903 H1935 0.930 . S
C1904 N1901 1.279 . S
C1904 C1903 1.358 . S
C1904 H1907 0.930 . S
C1905 C1902 1.348 . S
C1905 C1903 1.356 . S
H1906 C1900 0.930 . S
H1907 C1904 0.930 . S
O1908 Li1848 1.956 . S
O1908 Li1849 1.970 . S
O1908 Li1850 1.961 . S
O1908 C1852 1.325 . S
O1909 Li1848 1.970 . S
O1909 Li1849 1.956 . S
O1909 Li1851 1.961 . S
O1909 C1858 1.325 . S
O1910 Li1848 1.961 . S
O1910 Li1850 1.956 . S
O1910 Li1851 1.970 . S
O1910 C1880 1.325 . S
O1911 Li1849 1.961 . S
O1911 Li1850 1.970 . S
O1911 Li1851 1.956 . S
O1911 C1886 1.325 . S
H1912 C1854 0.929 . S
H1913 C1855 0.930 . S
H1914 C1856 0.930 . S
H1915 C1857 0.930 . S
H1916 C1859 0.930 . S
H1917 C1861 0.929 . S
H1918 C1862 0.930 . S
H1919 C1863 0.930 . S
H1920 C1866 0.930 . S
H1921 C1869 0.929 . S
H1922 C1874 0.929 . S
H1923 C1875 0.930 . S
H1924 C1882 0.929 . S
H1925 C1883 0.930 . S
H1926 C1884 0.930 . S
H1927 C1885 0.930 . S
H1928 C1887 0.929 . S
H1929 C1888 0.930 . S
H1930 C1889 0.930 . S
H1931 C1890 0.930 . S
H1932 C1894 0.929 . S
H1933 C1896 0.930 . S
H1934 C1902 0.929 . S
H1935 C1903 0.930 . S
Li1936 N1953 1.990 . S
Li1936 O1996 1.956 . S
Li1936 O1997 1.970 . S
Li1936 O1998 1.961 . S
Li1937 N1961 1.990 . S
Li1937 O1996 1.970 . S
Li1937 O1997 1.956 . S
Li1937 O1999 1.961 . S
Li1938 N1983 1.990 . S
Li1938 O1996 1.961 . S
Li1938 O1998 1.956 . S
Li1938 O1999 1.970 . S
Li1939 N1989 1.990 . S
Li1939 O1997 1.961 . S
Li1939 O1998 1.970 . S
Li1939 O1999 1.956 . S
C1940 C1942 1.348 . S
C1940 C1943 1.356 . S
C1940 O1996 1.325 . S
N1941 C1944 1.314 . S
N1941 C1945 1.279 . S
C1942 C1940 1.348 . S
C1942 C1944 1.353 . S
C1942 H2000 0.929 . S
C1943 C1940 1.356 . S
C1943 C1945 1.358 . S
C1943 H2001 0.930 . S
C1944 N1941 1.314 . S
C1944 C1942 1.353 . S
C1944 H2002 0.930 . S
C1945 N1941 1.279 . S
C1945 C1943 1.358 . S
C1945 H2003 0.930 . S
C1946 C1949 1.348 . S
C1946 C1950 1.356 . S
C1946 O1997 1.325 . S
C1947 N1948 1.279 . S
C1947 C1950 1.358 . S
C1947 H2004 0.930 . S
N1948 C1947 1.279 . S
N1948 C1951 1.314 . S
C1949 C1946 1.348 . S
C1949 C1951 1.353 . S
C1949 H2005 0.929 . S
C1950 C1946 1.356 . S
C1950 C1947 1.358 . S
C1950 H2006 0.930 . S
C1951 N1948 1.314 . S
C1951 C1949 1.353 . S
C1951 H2007 0.930 . S
C1952 N1953 1.314 . S
C1952 C1957 1.353 . S
C1952 H1958 0.930 . S
N1953 Li1936 1.990 . S
N1953 C1952 1.314 . S
N1953 C1955 1.279 . S
C1954 C1955 1.358 . S
C1954 C1956 1.356 . S
C1954 H2008 0.930 . S
C1955 N1953 1.279 . S
C1955 C1954 1.358 . S
C1955 H1959 0.930 . S
C1956 C1954 1.356 . S
C1956 C1957 1.348 . S
C1957 C1952 1.353 . S
C1957 C1956 1.348 . S
C1957 H2009 0.929 . S
H1958 C1952 0.930 . S
H1959 C1955 0.930 . S
C1960 N1961 1.314 . S
C1960 C1962 1.353 . S
C1960 H1966 0.930 . S
N1961 Li1937 1.990 . S
N1961 C1960 1.314 . S
N1961 C1964 1.279 . S
C1962 C1960 1.353 . S
C1962 C1965 1.348 . S
C1962 H2010 0.929 . S
C1963 C1964 1.358 . S
C1963 C1965 1.356 . S
C1963 H2011 0.930 . S
C1964 N1961 1.279 . S
C1964 C1963 1.358 . S
C1964 H1967 0.930 . S
C1965 C1962 1.348 . S
C1965 C1963 1.356 . S
H1966 C1960 0.930 . S
H1967 C1964 0.930 . S
C1968 C1970 1.348 . S
C1968 C1971 1.356 . S
C1968 O1998 1.325 . S
N1969 C1972 1.314 . S
N1969 C1973 1.279 . S
C1970 C1968 1.348 . S
C1970 C1972 1.353 . S
C1970 H2012 0.929 . S
C1971 C1968 1.356 . S
C1971 C1973 1.358 . S
C1971 H2013 0.930 . S
C1972 N1969 1.314 . S
C1972 C1970 1.353 . S
C1972 H2014 0.930 . S
C1973 N1969 1.279 . S
C1973 C1971 1.358 . S
C1973 H2015 0.930 . S
C1974 C1975 1.348 . S
C1974 C1976 1.356 . S
C1974 O1999 1.325 . S
C1975 C1974 1.348 . S
C1975 C1977 1.353 . S
C1975 H2016 0.929 . S
C1976 C1974 1.356 . S
C1976 C1978 1.358 . S
C1976 H2017 0.930 . S
C1977 C1975 1.353 . S
C1977 N1979 1.314 . S
C1977 H2018 0.930 . S
C1978 C1976 1.358 . S
C1978 N1979 1.279 . S
C1978 H2019 0.930 . S
N1979 C1977 1.314 . S
N1979 C1978 1.279 . S
C1980 C1982 1.353 . S
C1980 N1983 1.314 . S
C1980 H1986 0.930 . S
C1981 N1983 1.279 . S
C1981 C1984 1.358 . S
C1981 H1987 0.930 . S
C1982 C1980 1.353 . S
C1982 C1985 1.348 . S
C1982 H2020 0.929 . S
N1983 Li1938 1.990 . S
N1983 C1980 1.314 . S
N1983 C1981 1.279 . S
C1984 C1981 1.358 . S
C1984 C1985 1.356 . S
C1984 H2021 0.930 . S
C1985 C1982 1.348 . S
C1985 C1984 1.356 . S
H1986 C1980 0.930 . S
H1987 C1981 0.930 . S
C1988 N1989 1.314 . S
C1988 C1990 1.353 . S
C1988 H1994 0.930 . S
N1989 Li1939 1.990 . S
N1989 C1988 1.314 . S
N1989 C1992 1.279 . S
C1990 C1988 1.353 . S
C1990 C1993 1.348 . S
C1990 H2022 0.929 . S
C1991 C1992 1.358 . S
C1991 C1993 1.356 . S
C1991 H2023 0.930 . S
C1992 N1989 1.279 . S
C1992 C1991 1.358 . S
C1992 H1995 0.930 . S
C1993 C1990 1.348 . S
C1993 C1991 1.356 . S
H1994 C1988 0.930 . S
H1995 C1992 0.930 . S
O1996 Li1936 1.956 . S
O1996 Li1937 1.970 . S
O1996 Li1938 1.961 . S
O1996 C1940 1.325 . S
O1997 Li1936 1.970 . S
O1997 Li1937 1.956 . S
O1997 Li1939 1.961 . S
O1997 C1946 1.325 . S
O1998 Li1936 1.961 . S
O1998 Li1938 1.956 . S
O1998 Li1939 1.970 . S
O1998 C1968 1.325 . S
O1999 Li1937 1.961 . S
O1999 Li1938 1.970 . S
O1999 Li1939 1.956 . S
O1999 C1974 1.325 . S
H2000 C1942 0.929 . S
H2001 C1943 0.930 . S
H2002 C1944 0.930 . S
H2003 C1945 0.930 . S
H2004 C1947 0.930 . S
H2005 C1949 0.929 . S
H2006 C1950 0.930 . S
H2007 C1951 0.930 . S
H2008 C1954 0.930 . S
H2009 C1957 0.929 . S
H2010 C1962 0.929 . S
H2011 C1963 0.930 . S
H2012 C1970 0.929 . S
H2013 C1971 0.930 . S
H2014 C1972 0.930 . S
H2015 C1973 0.930 . S
H2016 C1975 0.929 . S
H2017 C1976 0.930 . S
H2018 C1977 0.930 . S
H2019 C1978 0.930 . S
H2020 C1982 0.929 . S
H2021 C1984 0.930 . S
H2022 C1990 0.929 . S
H2023 C1991 0.930 . S
Li2024 N2041 1.990 . S
Li2024 O2084 1.956 . S
Li2024 O2085 1.970 . S
Li2024 O2086 1.961 . S
Li2025 N2049 1.990 . S
Li2025 O2084 1.970 . S
Li2025 O2085 1.956 . S
Li2025 O2087 1.961 . S
Li2026 N2071 1.990 . S
Li2026 O2084 1.961 . S
Li2026 O2086 1.956 . S
Li2026 O2087 1.970 . S
Li2027 N2077 1.990 . S
Li2027 O2085 1.961 . S
Li2027 O2086 1.970 . S
Li2027 O2087 1.956 . S
C2028 C2030 1.348 . S
C2028 C2031 1.356 . S
C2028 O2084 1.325 . S
N2029 C2032 1.314 . S
N2029 C2033 1.279 . S
C2030 C2028 1.348 . S
C2030 C2032 1.353 . S
C2030 H2088 0.929 . S
C2031 C2028 1.356 . S
C2031 C2033 1.358 . S
C2031 H2089 0.930 . S
C2032 N2029 1.314 . S
C2032 C2030 1.353 . S
C2032 H2090 0.930 . S
C2033 N2029 1.279 . S
C2033 C2031 1.358 . S
C2033 H2091 0.930 . S
C2034 C2037 1.348 . S
C2034 C2038 1.356 . S
C2034 O2085 1.325 . S
C2035 N2036 1.279 . S
C2035 C2038 1.358 . S
C2035 H2092 0.930 . S
N2036 C2035 1.279 . S
N2036 C2039 1.314 . S
C2037 C2034 1.348 . S
C2037 C2039 1.353 . S
C2037 H2093 0.929 . S
C2038 C2034 1.356 . S
C2038 C2035 1.358 . S
C2038 H2094 0.930 . S
C2039 N2036 1.314 . S
C2039 C2037 1.353 . S
C2039 H2095 0.930 . S
C2040 N2041 1.314 . S
C2040 C2045 1.353 . S
C2040 H2046 0.930 . S
N2041 Li2024 1.990 . S
N2041 C2040 1.314 . S
N2041 C2043 1.279 . S
C2042 C2043 1.358 . S
C2042 C2044 1.356 . S
C2042 H2096 0.930 . S
C2043 N2041 1.279 . S
C2043 C2042 1.358 . S
C2043 H2047 0.930 . S
C2044 C2042 1.356 . S
C2044 C2045 1.348 . S
C2045 C2040 1.353 . S
C2045 C2044 1.348 . S
C2045 H2097 0.929 . S
H2046 C2040 0.930 . S
H2047 C2043 0.930 . S
C2048 N2049 1.314 . S
C2048 C2050 1.353 . S
C2048 H2054 0.930 . S
N2049 Li2025 1.990 . S
N2049 C2048 1.314 . S
N2049 C2052 1.279 . S
C2050 C2048 1.353 . S
C2050 C2053 1.348 . S
C2050 H2098 0.929 . S
C2051 C2052 1.358 . S
C2051 C2053 1.356 . S
C2051 H2099 0.930 . S
C2052 N2049 1.279 . S
C2052 C2051 1.358 . S
C2052 H2055 0.930 . S
C2053 C2050 1.348 . S
C2053 C2051 1.356 . S
H2054 C2048 0.930 . S
H2055 C2052 0.930 . S
C2056 C2058 1.348 . S
C2056 C2059 1.356 . S
C2056 O2086 1.325 . S
N2057 C2060 1.314 . S
N2057 C2061 1.279 . S
C2058 C2056 1.348 . S
C2058 C2060 1.353 . S
C2058 H2100 0.929 . S
C2059 C2056 1.356 . S
C2059 C2061 1.358 . S
C2059 H2101 0.930 . S
C2060 N2057 1.314 . S
C2060 C2058 1.353 . S
C2060 H2102 0.930 . S
C2061 N2057 1.279 . S
C2061 C2059 1.358 . S
C2061 H2103 0.930 . S
C2062 C2063 1.348 . S
C2062 C2064 1.356 . S
C2062 O2087 1.325 . S
C2063 C2062 1.348 . S
C2063 C2065 1.353 . S
C2063 H2104 0.929 . S
C2064 C2062 1.356 . S
C2064 C2066 1.358 . S
C2064 H2105 0.930 . S
C2065 C2063 1.353 . S
C2065 N2067 1.314 . S
C2065 H2106 0.930 . S
C2066 C2064 1.358 . S
C2066 N2067 1.279 . S
C2066 H2107 0.930 . S
N2067 C2065 1.314 . S
N2067 C2066 1.279 . S
C2068 C2070 1.353 . S
C2068 N2071 1.314 . S
C2068 H2074 0.930 . S
C2069 N2071 1.279 . S
C2069 C2072 1.358 . S
C2069 H2075 0.930 . S
C2070 C2068 1.353 . S
C2070 C2073 1.348 . S
C2070 H2108 0.929 . S
N2071 Li2026 1.990 . S
N2071 C2068 1.314 . S
N2071 C2069 1.279 . S
C2072 C2069 1.358 . S
C2072 C2073 1.356 . S
C2072 H2109 0.930 . S
C2073 C2070 1.348 . S
C2073 C2072 1.356 . S
H2074 C2068 0.930 . S
H2075 C2069 0.930 . S
C2076 N2077 1.314 . S
C2076 C2078 1.353 . S
C2076 H2082 0.930 . S
N2077 Li2027 1.990 . S
N2077 C2076 1.314 . S
N2077 C2080 1.279 . S
C2078 C2076 1.353 . S
C2078 C2081 1.348 . S
C2078 H2110 0.929 . S
C2079 C2080 1.358 . S
C2079 C2081 1.356 . S
C2079 H2111 0.930 . S
C2080 N2077 1.279 . S
C2080 C2079 1.358 . S
C2080 H2083 0.930 . S
C2081 C2078 1.348 . S
C2081 C2079 1.356 . S
H2082 C2076 0.930 . S
H2083 C2080 0.930 . S
O2084 Li2024 1.956 . S
O2084 Li2025 1.970 . S
O2084 Li2026 1.961 . S
O2084 C2028 1.325 . S
O2085 Li2024 1.970 . S
O2085 Li2025 1.956 . S
O2085 Li2027 1.961 . S
O2085 C2034 1.325 . S
O2086 Li2024 1.961 . S
O2086 Li2026 1.956 . S
O2086 Li2027 1.970 . S
O2086 C2056 1.325 . S
O2087 Li2025 1.961 . S
O2087 Li2026 1.970 . S
O2087 Li2027 1.956 . S
O2087 C2062 1.325 . S
H2088 C2030 0.929 . S
H2089 C2031 0.930 . S
H2090 C2032 0.930 . S
H2091 C2033 0.930 . S
H2092 C2035 0.930 . S
H2093 C2037 0.929 . S
H2094 C2038 0.930 . S
H2095 C2039 0.930 . S
H2096 C2042 0.930 . S
H2097 C2045 0.929 . S
H2098 C2050 0.929 . S
H2099 C2051 0.930 . S
H2100 C2058 0.929 . S
H2101 C2059 0.930 . S
H2102 C2060 0.930 . S
H2103 C2061 0.930 . S
H2104 C2063 0.929 . S
H2105 C2064 0.930 . S
H2106 C2065 0.930 . S
H2107 C2066 0.930 . S
H2108 C2070 0.929 . S
H2109 C2072 0.930 . S
H2110 C2078 0.929 . S
H2111 C2079 0.930 . S
Li2112 N2129 1.990 . S
Li2112 O2172 1.956 . S
Li2112 O2173 1.970 . S
Li2112 O2174 1.961 . S
Li2113 N2137 1.990 . S
Li2113 O2172 1.970 . S
Li2113 O2173 1.956 . S
Li2113 O2175 1.961 . S
Li2114 N2159 1.990 . S
Li2114 O2172 1.961 . S
Li2114 O2174 1.956 . S
Li2114 O2175 1.970 . S
Li2115 N2165 1.990 . S
Li2115 O2173 1.961 . S
Li2115 O2174 1.970 . S
Li2115 O2175 1.956 . S
C2116 C2118 1.348 . S
C2116 C2119 1.356 . S
C2116 O2172 1.325 . S
N2117 C2120 1.314 . S
N2117 C2121 1.279 . S
C2118 C2116 1.348 . S
C2118 C2120 1.353 . S
C2118 H2176 0.929 . S
C2119 C2116 1.356 . S
C2119 C2121 1.358 . S
C2119 H2177 0.930 . S
C2120 N2117 1.314 . S
C2120 C2118 1.353 . S
C2120 H2178 0.930 . S
C2121 N2117 1.279 . S
C2121 C2119 1.358 . S
C2121 H2179 0.930 . S
C2122 C2125 1.348 . S
C2122 C2126 1.356 . S
C2122 O2173 1.325 . S
C2123 N2124 1.279 . S
C2123 C2126 1.358 . S
C2123 H2180 0.930 . S
N2124 C2123 1.279 . S
N2124 C2127 1.314 . S
C2125 C2122 1.348 . S
C2125 C2127 1.353 . S
C2125 H2181 0.929 . S
C2126 C2122 1.356 . S
C2126 C2123 1.358 . S
C2126 H2182 0.930 . S
C2127 N2124 1.314 . S
C2127 C2125 1.353 . S
C2127 H2183 0.930 . S
C2128 N2129 1.314 . S
C2128 C2133 1.353 . S
C2128 H2134 0.930 . S
N2129 Li2112 1.990 . S
N2129 C2128 1.314 . S
N2129 C2131 1.279 . S
C2130 C2131 1.358 . S
C2130 C2132 1.356 . S
C2130 H2184 0.930 . S
C2131 N2129 1.279 . S
C2131 C2130 1.358 . S
C2131 H2135 0.930 . S
C2132 C2130 1.356 . S
C2132 C2133 1.348 . S
C2133 C2128 1.353 . S
C2133 C2132 1.348 . S
C2133 H2185 0.929 . S
H2134 C2128 0.930 . S
H2135 C2131 0.930 . S
C2136 N2137 1.314 . S
C2136 C2138 1.353 . S
C2136 H2142 0.930 . S
N2137 Li2113 1.990 . S
N2137 C2136 1.314 . S
N2137 C2140 1.279 . S
C2138 C2136 1.353 . S
C2138 C2141 1.348 . S
C2138 H2186 0.929 . S
C2139 C2140 1.358 . S
C2139 C2141 1.356 . S
C2139 H2187 0.930 . S
C2140 N2137 1.279 . S
C2140 C2139 1.358 . S
C2140 H2143 0.930 . S
C2141 C2138 1.348 . S
C2141 C2139 1.356 . S
H2142 C2136 0.930 . S
H2143 C2140 0.930 . S
C2144 C2146 1.348 . S
C2144 C2147 1.356 . S
C2144 O2174 1.325 . S
N2145 C2148 1.314 . S
N2145 C2149 1.279 . S
C2146 C2144 1.348 . S
C2146 C2148 1.353 . S
C2146 H2188 0.929 . S
C2147 C2144 1.356 . S
C2147 C2149 1.358 . S
C2147 H2189 0.930 . S
C2148 N2145 1.314 . S
C2148 C2146 1.353 . S
C2148 H2190 0.930 . S
C2149 N2145 1.279 . S
C2149 C2147 1.358 . S
C2149 H2191 0.930 . S
C2150 C2151 1.348 . S
C2150 C2152 1.356 . S
C2150 O2175 1.325 . S
C2151 C2150 1.348 . S
C2151 C2153 1.353 . S
C2151 H2192 0.929 . S
C2152 C2150 1.356 . S
C2152 C2154 1.358 . S
C2152 H2193 0.930 . S
C2153 C2151 1.353 . S
C2153 N2155 1.314 . S
C2153 H2194 0.930 . S
C2154 C2152 1.358 . S
C2154 N2155 1.279 . S
C2154 H2195 0.930 . S
N2155 C2153 1.314 . S
N2155 C2154 1.279 . S
C2156 C2158 1.353 . S
C2156 N2159 1.314 . S
C2156 H2162 0.930 . S
C2157 N2159 1.279 . S
C2157 C2160 1.358 . S
C2157 H2163 0.930 . S
C2158 C2156 1.353 . S
C2158 C2161 1.348 . S
C2158 H2196 0.929 . S
N2159 Li2114 1.990 . S
N2159 C2156 1.314 . S
N2159 C2157 1.279 . S
C2160 C2157 1.358 . S
C2160 C2161 1.356 . S
C2160 H2197 0.930 . S
C2161 C2158 1.348 . S
C2161 C2160 1.356 . S
H2162 C2156 0.930 . S
H2163 C2157 0.930 . S
C2164 N2165 1.314 . S
C2164 C2166 1.353 . S
C2164 H2170 0.930 . S
N2165 Li2115 1.990 . S
N2165 C2164 1.314 . S
N2165 C2168 1.279 . S
C2166 C2164 1.353 . S
C2166 C2169 1.348 . S
C2166 H2198 0.929 . S
C2167 C2168 1.358 . S
C2167 C2169 1.356 . S
C2167 H2199 0.930 . S
C2168 N2165 1.279 . S
C2168 C2167 1.358 . S
C2168 H2171 0.930 . S
C2169 C2166 1.348 . S
C2169 C2167 1.356 . S
H2170 C2164 0.930 . S
H2171 C2168 0.930 . S
O2172 Li2112 1.956 . S
O2172 Li2113 1.970 . S
O2172 Li2114 1.961 . S
O2172 C2116 1.325 . S
O2173 Li2112 1.970 . S
O2173 Li2113 1.956 . S
O2173 Li2115 1.961 . S
O2173 C2122 1.325 . S
O2174 Li2112 1.961 . S
O2174 Li2114 1.956 . S
O2174 Li2115 1.970 . S
O2174 C2144 1.325 . S
O2175 Li2113 1.961 . S
O2175 Li2114 1.970 . S
O2175 Li2115 1.956 . S
O2175 C2150 1.325 . S
H2176 C2118 0.929 . S
H2177 C2119 0.930 . S
H2178 C2120 0.930 . S
H2179 C2121 0.930 . S
H2180 C2123 0.930 . S
H2181 C2125 0.929 . S
H2182 C2126 0.930 . S
H2183 C2127 0.930 . S
H2184 C2130 0.930 . S
H2185 C2133 0.929 . S
H2186 C2138 0.929 . S
H2187 C2139 0.930 . S
H2188 C2146 0.929 . S
H2189 C2147 0.930 . S
H2190 C2148 0.930 . S
H2191 C2149 0.930 . S
H2192 C2151 0.929 . S
H2193 C2152 0.930 . S
H2194 C2153 0.930 . S
H2195 C2154 0.930 . S
H2196 C2158 0.929 . S
H2197 C2160 0.930 . S
H2198 C2166 0.929 . S
H2199 C2167 0.930 . S
Li2200 N2217 1.990 . S
Li2200 O2260 1.956 . S
Li2200 O2261 1.970 . S
Li2200 O2262 1.961 . S
Li2201 N2225 1.990 . S
Li2201 O2260 1.970 . S
Li2201 O2261 1.956 . S
Li2201 O2263 1.961 . S
Li2202 N2247 1.990 . S
Li2202 O2260 1.961 . S
Li2202 O2262 1.956 . S
Li2202 O2263 1.970 . S
Li2203 N2253 1.990 . S
Li2203 O2261 1.961 . S
Li2203 O2262 1.970 . S
Li2203 O2263 1.956 . S
C2204 C2206 1.348 . S
C2204 C2207 1.356 . S
C2204 O2260 1.325 . S
N2205 C2208 1.314 . S
N2205 C2209 1.279 . S
C2206 C2204 1.348 . S
C2206 C2208 1.353 . S
C2206 H2264 0.929 . S
C2207 C2204 1.356 . S
C2207 C2209 1.358 . S
C2207 H2265 0.930 . S
C2208 N2205 1.314 . S
C2208 C2206 1.353 . S
C2208 H2266 0.930 . S
C2209 N2205 1.279 . S
C2209 C2207 1.358 . S
C2209 H2267 0.930 . S
C2210 C2213 1.348 . S
C2210 C2214 1.356 . S
C2210 O2261 1.325 . S
C2211 N2212 1.279 . S
C2211 C2214 1.358 . S
C2211 H2268 0.930 . S
N2212 C2211 1.279 . S
N2212 C2215 1.314 . S
C2213 C2210 1.348 . S
C2213 C2215 1.353 . S
C2213 H2269 0.929 . S
C2214 C2210 1.356 . S
C2214 C2211 1.358 . S
C2214 H2270 0.930 . S
C2215 N2212 1.314 . S
C2215 C2213 1.353 . S
C2215 H2271 0.930 . S
C2216 N2217 1.314 . S
C2216 C2221 1.353 . S
C2216 H2222 0.930 . S
N2217 Li2200 1.990 . S
N2217 C2216 1.314 . S
N2217 C2219 1.279 . S
C2218 C2219 1.358 . S
C2218 C2220 1.356 . S
C2218 H2272 0.930 . S
C2219 N2217 1.279 . S
C2219 C2218 1.358 . S
C2219 H2223 0.930 . S
C2220 C2218 1.356 . S
C2220 C2221 1.348 . S
C2221 C2216 1.353 . S
C2221 C2220 1.348 . S
C2221 H2273 0.929 . S
H2222 C2216 0.930 . S
H2223 C2219 0.930 . S
C2224 N2225 1.314 . S
C2224 C2226 1.353 . S
C2224 H2230 0.930 . S
N2225 Li2201 1.990 . S
N2225 C2224 1.314 . S
N2225 C2228 1.279 . S
C2226 C2224 1.353 . S
C2226 C2229 1.348 . S
C2226 H2274 0.929 . S
C2227 C2228 1.358 . S
C2227 C2229 1.356 . S
C2227 H2275 0.930 . S
C2228 N2225 1.279 . S
C2228 C2227 1.358 . S
C2228 H2231 0.930 . S
C2229 C2226 1.348 . S
C2229 C2227 1.356 . S
H2230 C2224 0.930 . S
H2231 C2228 0.930 . S
C2232 C2234 1.348 . S
C2232 C2235 1.356 . S
C2232 O2262 1.325 . S
N2233 C2236 1.314 . S
N2233 C2237 1.279 . S
C2234 C2232 1.348 . S
C2234 C2236 1.353 . S
C2234 H2276 0.929 . S
C2235 C2232 1.356 . S
C2235 C2237 1.358 . S
C2235 H2277 0.930 . S
C2236 N2233 1.314 . S
C2236 C2234 1.353 . S
C2236 H2278 0.930 . S
C2237 N2233 1.279 . S
C2237 C2235 1.358 . S
C2237 H2279 0.930 . S
C2238 C2239 1.348 . S
C2238 C2240 1.356 . S
C2238 O2263 1.325 . S
C2239 C2238 1.348 . S
C2239 C2241 1.353 . S
C2239 H2280 0.929 . S
C2240 C2238 1.356 . S
C2240 C2242 1.358 . S
C2240 H2281 0.930 . S
C2241 C2239 1.353 . S
C2241 N2243 1.314 . S
C2241 H2282 0.930 . S
C2242 C2240 1.358 . S
C2242 N2243 1.279 . S
C2242 H2283 0.930 . S
N2243 C2241 1.314 . S
N2243 C2242 1.279 . S
C2244 C2246 1.353 . S
C2244 N2247 1.314 . S
C2244 H2250 0.930 . S
C2245 N2247 1.279 . S
C2245 C2248 1.358 . S
C2245 H2251 0.930 . S
C2246 C2244 1.353 . S
C2246 C2249 1.348 . S
C2246 H2284 0.929 . S
N2247 Li2202 1.990 . S
N2247 C2244 1.314 . S
N2247 C2245 1.279 . S
C2248 C2245 1.358 . S
C2248 C2249 1.356 . S
C2248 H2285 0.930 . S
C2249 C2246 1.348 . S
C2249 C2248 1.356 . S
H2250 C2244 0.930 . S
H2251 C2245 0.930 . S
C2252 N2253 1.314 . S
C2252 C2254 1.353 . S
C2252 H2258 0.930 . S
N2253 Li2203 1.990 . S
N2253 C2252 1.314 . S
N2253 C2256 1.279 . S
C2254 C2252 1.353 . S
C2254 C2257 1.348 . S
C2254 H2286 0.929 . S
C2255 C2256 1.358 . S
C2255 C2257 1.356 . S
C2255 H2287 0.930 . S
C2256 N2253 1.279 . S
C2256 C2255 1.358 . S
C2256 H2259 0.930 . S
C2257 C2254 1.348 . S
C2257 C2255 1.356 . S
H2258 C2252 0.930 . S
H2259 C2256 0.930 . S
O2260 Li2200 1.956 . S
O2260 Li2201 1.970 . S
O2260 Li2202 1.961 . S
O2260 C2204 1.325 . S
O2261 Li2200 1.970 . S
O2261 Li2201 1.956 . S
O2261 Li2203 1.961 . S
O2261 C2210 1.325 . S
O2262 Li2200 1.961 . S
O2262 Li2202 1.956 . S
O2262 Li2203 1.970 . S
O2262 C2232 1.325 . S
O2263 Li2201 1.961 . S
O2263 Li2202 1.970 . S
O2263 Li2203 1.956 . S
O2263 C2238 1.325 . S
H2264 C2206 0.929 . S
H2265 C2207 0.930 . S
H2266 C2208 0.930 . S
H2267 C2209 0.930 . S
H2268 C2211 0.930 . S
H2269 C2213 0.929 . S
H2270 C2214 0.930 . S
H2271 C2215 0.930 . S
H2272 C2218 0.930 . S
H2273 C2221 0.929 . S
H2274 C2226 0.929 . S
H2275 C2227 0.930 . S
H2276 C2234 0.929 . S
H2277 C2235 0.930 . S
H2278 C2236 0.930 . S
H2279 C2237 0.930 . S
H2280 C2239 0.929 . S
H2281 C2240 0.930 . S
H2282 C2241 0.930 . S
H2283 C2242 0.930 . S
H2284 C2246 0.929 . S
H2285 C2248 0.930 . S
H2286 C2254 0.929 . S
H2287 C2255 0.930 . S
Li2288 N2305 1.990 . S
Li2288 O2348 1.956 . S
Li2288 O2349 1.970 . S
Li2288 O2350 1.961 . S
Li2289 N2313 1.990 . S
Li2289 O2348 1.970 . S
Li2289 O2349 1.956 . S
Li2289 O2351 1.961 . S
Li2290 N2335 1.990 . S
Li2290 O2348 1.961 . S
Li2290 O2350 1.956 . S
Li2290 O2351 1.970 . S
Li2291 N2341 1.990 . S
Li2291 O2349 1.961 . S
Li2291 O2350 1.970 . S
Li2291 O2351 1.956 . S
C2292 C2294 1.348 . S
C2292 C2295 1.356 . S
C2292 O2348 1.325 . S
N2293 C2296 1.314 . S
N2293 C2297 1.279 . S
C2294 C2292 1.348 . S
C2294 C2296 1.353 . S
C2294 H2352 0.929 . S
C2295 C2292 1.356 . S
C2295 C2297 1.358 . S
C2295 H2353 0.930 . S
C2296 N2293 1.314 . S
C2296 C2294 1.353 . S
C2296 H2354 0.930 . S
C2297 N2293 1.279 . S
C2297 C2295 1.358 . S
C2297 H2355 0.930 . S
C2298 C2301 1.348 . S
C2298 C2302 1.356 . S
C2298 O2349 1.325 . S
C2299 N2300 1.279 . S
C2299 C2302 1.358 . S
C2299 H2356 0.930 . S
N2300 C2299 1.279 . S
N2300 C2303 1.314 . S
C2301 C2298 1.348 . S
C2301 C2303 1.353 . S
C2301 H2357 0.929 . S
C2302 C2298 1.356 . S
C2302 C2299 1.358 . S
C2302 H2358 0.930 . S
C2303 N2300 1.314 . S
C2303 C2301 1.353 . S
C2303 H2359 0.930 . S
C2304 N2305 1.314 . S
C2304 C2309 1.353 . S
C2304 H2310 0.930 . S
N2305 Li2288 1.990 . S
N2305 C2304 1.314 . S
N2305 C2307 1.279 . S
C2306 C2307 1.358 . S
C2306 C2308 1.356 . S
C2306 H2360 0.930 . S
C2307 N2305 1.279 . S
C2307 C2306 1.358 . S
C2307 H2311 0.930 . S
C2308 C2306 1.356 . S
C2308 C2309 1.348 . S
C2309 C2304 1.353 . S
C2309 C2308 1.348 . S
C2309 H2361 0.929 . S
H2310 C2304 0.930 . S
H2311 C2307 0.930 . S
C2312 N2313 1.314 . S
C2312 C2314 1.353 . S
C2312 H2318 0.930 . S
N2313 Li2289 1.990 . S
N2313 C2312 1.314 . S
N2313 C2316 1.279 . S
C2314 C2312 1.353 . S
C2314 C2317 1.348 . S
C2314 H2362 0.929 . S
C2315 C2316 1.358 . S
C2315 C2317 1.356 . S
C2315 H2363 0.930 . S
C2316 N2313 1.279 . S
C2316 C2315 1.358 . S
C2316 H2319 0.930 . S
C2317 C2314 1.348 . S
C2317 C2315 1.356 . S
H2318 C2312 0.930 . S
H2319 C2316 0.930 . S
C2320 C2322 1.348 . S
C2320 C2323 1.356 . S
C2320 O2350 1.325 . S
N2321 C2324 1.314 . S
N2321 C2325 1.279 . S
C2322 C2320 1.348 . S
C2322 C2324 1.353 . S
C2322 H2364 0.929 . S
C2323 C2320 1.356 . S
C2323 C2325 1.358 . S
C2323 H2365 0.930 . S
C2324 N2321 1.314 . S
C2324 C2322 1.353 . S
C2324 H2366 0.930 . S
C2325 N2321 1.279 . S
C2325 C2323 1.358 . S
C2325 H2367 0.930 . S
C2326 C2327 1.348 . S
C2326 C2328 1.356 . S
C2326 O2351 1.325 . S
C2327 C2326 1.348 . S
C2327 C2329 1.353 . S
C2327 H2368 0.929 . S
C2328 C2326 1.356 . S
C2328 C2330 1.358 . S
C2328 H2369 0.930 . S
C2329 C2327 1.353 . S
C2329 N2331 1.314 . S
C2329 H2370 0.930 . S
C2330 C2328 1.358 . S
C2330 N2331 1.279 . S
C2330 H2371 0.930 . S
N2331 C2329 1.314 . S
N2331 C2330 1.279 . S
C2332 C2334 1.353 . S
C2332 N2335 1.314 . S
C2332 H2338 0.930 . S
C2333 N2335 1.279 . S
C2333 C2336 1.358 . S
C2333 H2339 0.930 . S
C2334 C2332 1.353 . S
C2334 C2337 1.348 . S
C2334 H2372 0.929 . S
N2335 Li2290 1.990 . S
N2335 C2332 1.314 . S
N2335 C2333 1.279 . S
C2336 C2333 1.358 . S
C2336 C2337 1.356 . S
C2336 H2373 0.930 . S
C2337 C2334 1.348 . S
C2337 C2336 1.356 . S
H2338 C2332 0.930 . S
H2339 C2333 0.930 . S
C2340 N2341 1.314 . S
C2340 C2342 1.353 . S
C2340 H2346 0.930 . S
N2341 Li2291 1.990 . S
N2341 C2340 1.314 . S
N2341 C2344 1.279 . S
C2342 C2340 1.353 . S
C2342 C2345 1.348 . S
C2342 H2374 0.929 . S
C2343 C2344 1.358 . S
C2343 C2345 1.356 . S
C2343 H2375 0.930 . S
C2344 N2341 1.279 . S
C2344 C2343 1.358 . S
C2344 H2347 0.930 . S
C2345 C2342 1.348 . S
C2345 C2343 1.356 . S
H2346 C2340 0.930 . S
H2347 C2344 0.930 . S
O2348 Li2288 1.956 . S
O2348 Li2289 1.970 . S
O2348 Li2290 1.961 . S
O2348 C2292 1.325 . S
O2349 Li2288 1.970 . S
O2349 Li2289 1.956 . S
O2349 Li2291 1.961 . S
O2349 C2298 1.325 . S
O2350 Li2288 1.961 . S
O2350 Li2290 1.956 . S
O2350 Li2291 1.970 . S
O2350 C2320 1.325 . S
O2351 Li2289 1.961 . S
O2351 Li2290 1.970 . S
O2351 Li2291 1.956 . S
O2351 C2326 1.325 . S
H2352 C2294 0.929 . S
H2353 C2295 0.930 . S
H2354 C2296 0.930 . S
H2355 C2297 0.930 . S
H2356 C2299 0.930 . S
H2357 C2301 0.929 . S
H2358 C2302 0.930 . S
H2359 C2303 0.930 . S
H2360 C2306 0.930 . S
H2361 C2309 0.929 . S
H2362 C2314 0.929 . S
H2363 C2315 0.930 . S
H2364 C2322 0.929 . S
H2365 C2323 0.930 . S
H2366 C2324 0.930 . S
H2367 C2325 0.930 . S
H2368 C2327 0.929 . S
H2369 C2328 0.930 . S
H2370 C2329 0.930 . S
H2371 C2330 0.930 . S
H2372 C2334 0.929 . S
H2373 C2336 0.930 . S
H2374 C2342 0.929 . S
H2375 C2343 0.930 . S
Li2376 N2393 1.990 . S
Li2376 O2436 1.956 . S
Li2376 O2437 1.970 . S
Li2376 O2438 1.961 . S
Li2377 N2401 1.990 . S
Li2377 O2436 1.970 . S
Li2377 O2437 1.956 . S
Li2377 O2439 1.961 . S
Li2378 N2423 1.990 . S
Li2378 O2436 1.961 . S
Li2378 O2438 1.956 . S
Li2378 O2439 1.970 . S
Li2379 N2429 1.990 . S
Li2379 O2437 1.961 . S
Li2379 O2438 1.970 . S
Li2379 O2439 1.956 . S
C2380 C2382 1.348 . S
C2380 C2383 1.356 . S
C2380 O2436 1.325 . S
N2381 C2384 1.314 . S
N2381 C2385 1.279 . S
C2382 C2380 1.348 . S
C2382 C2384 1.353 . S
C2382 H2440 0.929 . S
C2383 C2380 1.356 . S
C2383 C2385 1.358 . S
C2383 H2441 0.930 . S
C2384 N2381 1.314 . S
C2384 C2382 1.353 . S
C2384 H2442 0.930 . S
C2385 N2381 1.279 . S
C2385 C2383 1.358 . S
C2385 H2443 0.930 . S
C2386 C2389 1.348 . S
C2386 C2390 1.356 . S
C2386 O2437 1.325 . S
C2387 N2388 1.279 . S
C2387 C2390 1.358 . S
C2387 H2444 0.930 . S
N2388 C2387 1.279 . S
N2388 C2391 1.314 . S
C2389 C2386 1.348 . S
C2389 C2391 1.353 . S
C2389 H2445 0.929 . S
C2390 C2386 1.356 . S
C2390 C2387 1.358 . S
C2390 H2446 0.930 . S
C2391 N2388 1.314 . S
C2391 C2389 1.353 . S
C2391 H2447 0.930 . S
C2392 N2393 1.314 . S
C2392 C2397 1.353 . S
C2392 H2398 0.930 . S
N2393 Li2376 1.990 . S
N2393 C2392 1.314 . S
N2393 C2395 1.279 . S
C2394 C2395 1.358 . S
C2394 C2396 1.356 . S
C2394 H2448 0.930 . S
C2395 N2393 1.279 . S
C2395 C2394 1.358 . S
C2395 H2399 0.930 . S
C2396 C2394 1.356 . S
C2396 C2397 1.348 . S
C2397 C2392 1.353 . S
C2397 C2396 1.348 . S
C2397 H2449 0.929 . S
H2398 C2392 0.930 . S
H2399 C2395 0.930 . S
C2400 N2401 1.314 . S
C2400 C2402 1.353 . S
C2400 H2406 0.930 . S
N2401 Li2377 1.990 . S
N2401 C2400 1.314 . S
N2401 C2404 1.279 . S
C2402 C2400 1.353 . S
C2402 C2405 1.348 . S
C2402 H2450 0.929 . S
C2403 C2404 1.358 . S
C2403 C2405 1.356 . S
C2403 H2451 0.930 . S
C2404 N2401 1.279 . S
C2404 C2403 1.358 . S
C2404 H2407 0.930 . S
C2405 C2402 1.348 . S
C2405 C2403 1.356 . S
H2406 C2400 0.930 . S
H2407 C2404 0.930 . S
C2408 C2410 1.348 . S
C2408 C2411 1.356 . S
C2408 O2438 1.325 . S
N2409 C2412 1.314 . S
N2409 C2413 1.279 . S
C2410 C2408 1.348 . S
C2410 C2412 1.353 . S
C2410 H2452 0.929 . S
C2411 C2408 1.356 . S
C2411 C2413 1.358 . S
C2411 H2453 0.930 . S
C2412 N2409 1.314 . S
C2412 C2410 1.353 . S
C2412 H2454 0.930 . S
C2413 N2409 1.279 . S
C2413 C2411 1.358 . S
C2413 H2455 0.930 . S
C2414 C2415 1.348 . S
C2414 C2416 1.356 . S
C2414 O2439 1.325 . S
C2415 C2414 1.348 . S
C2415 C2417 1.353 . S
C2415 H2456 0.929 . S
C2416 C2414 1.356 . S
C2416 C2418 1.358 . S
C2416 H2457 0.930 . S
C2417 C2415 1.353 . S
C2417 N2419 1.314 . S
C2417 H2458 0.930 . S
C2418 C2416 1.358 . S
C2418 N2419 1.279 . S
C2418 H2459 0.930 . S
N2419 C2417 1.314 . S
N2419 C2418 1.279 . S
C2420 C2422 1.353 . S
C2420 N2423 1.314 . S
C2420 H2426 0.930 . S
C2421 N2423 1.279 . S
C2421 C2424 1.358 . S
C2421 H2427 0.930 . S
C2422 C2420 1.353 . S
C2422 C2425 1.348 . S
C2422 H2460 0.929 . S
N2423 Li2378 1.990 . S
N2423 C2420 1.314 . S
N2423 C2421 1.279 . S
C2424 C2421 1.358 . S
C2424 C2425 1.356 . S
C2424 H2461 0.930 . S
C2425 C2422 1.348 . S
C2425 C2424 1.356 . S
H2426 C2420 0.930 . S
H2427 C2421 0.930 . S
C2428 N2429 1.314 . S
C2428 C2430 1.353 . S
C2428 H2434 0.930 . S
N2429 Li2379 1.990 . S
N2429 C2428 1.314 . S
N2429 C2432 1.279 . S
C2430 C2428 1.353 . S
C2430 C2433 1.348 . S
C2430 H2462 0.929 . S
C2431 C2432 1.358 . S
C2431 C2433 1.356 . S
C2431 H2463 0.930 . S
C2432 N2429 1.279 . S
C2432 C2431 1.358 . S
C2432 H2435 0.930 . S
C2433 C2430 1.348 . S
C2433 C2431 1.356 . S
H2434 C2428 0.930 . S
H2435 C2432 0.930 . S
O2436 Li2376 1.956 . S
O2436 Li2377 1.970 . S
O2436 Li2378 1.961 . S
O2436 C2380 1.325 . S
O2437 Li2376 1.970 . S
O2437 Li2377 1.956 . S
O2437 Li2379 1.961 . S
O2437 C2386 1.325 . S
O2438 Li2376 1.961 . S
O2438 Li2378 1.956 . S
O2438 Li2379 1.970 . S
O2438 C2408 1.325 . S
O2439 Li2377 1.961 . S
O2439 Li2378 1.970 . S
O2439 Li2379 1.956 . S
O2439 C2414 1.325 . S
H2440 C2382 0.929 . S
H2441 C2383 0.930 . S
H2442 C2384 0.930 . S
H2443 C2385 0.930 . S
H2444 C2387 0.930 . S
H2445 C2389 0.929 . S
H2446 C2390 0.930 . S
H2447 C2391 0.930 . S
H2448 C2394 0.930 . S
H2449 C2397 0.929 . S
H2450 C2402 0.929 . S
H2451 C2403 0.930 . S
H2452 C2410 0.929 . S
H2453 C2411 0.930 . S
H2454 C2412 0.930 . S
H2455 C2413 0.930 . S
H2456 C2415 0.929 . S
H2457 C2416 0.930 . S
H2458 C2417 0.930 . S
H2459 C2418 0.930 . S
H2460 C2422 0.929 . S
H2461 C2424 0.930 . S
H2462 C2430 0.929 . S
H2463 C2431 0.930 . S
Li2464 N2481 1.990 . S
Li2464 O2524 1.956 . S
Li2464 O2525 1.970 . S
Li2464 O2526 1.961 . S
Li2465 N2489 1.990 . S
Li2465 O2524 1.970 . S
Li2465 O2525 1.956 . S
Li2465 O2527 1.961 . S
Li2466 N2511 1.990 . S
Li2466 O2524 1.961 . S
Li2466 O2526 1.956 . S
Li2466 O2527 1.970 . S
Li2467 N2517 1.990 . S
Li2467 O2525 1.961 . S
Li2467 O2526 1.970 . S
Li2467 O2527 1.956 . S
C2468 C2470 1.348 . S
C2468 C2471 1.356 . S
C2468 O2524 1.325 . S
N2469 C2472 1.314 . S
N2469 C2473 1.279 . S
C2470 C2468 1.348 . S
C2470 C2472 1.353 . S
C2470 H2528 0.929 . S
C2471 C2468 1.356 . S
C2471 C2473 1.358 . S
C2471 H2529 0.930 . S
C2472 N2469 1.314 . S
C2472 C2470 1.353 . S
C2472 H2530 0.930 . S
C2473 N2469 1.279 . S
C2473 C2471 1.358 . S
C2473 H2531 0.930 . S
C2474 C2477 1.348 . S
C2474 C2478 1.356 . S
C2474 O2525 1.325 . S
C2475 N2476 1.279 . S
C2475 C2478 1.358 . S
C2475 H2532 0.930 . S
N2476 C2475 1.279 . S
N2476 C2479 1.314 . S
C2477 C2474 1.348 . S
C2477 C2479 1.353 . S
C2477 H2533 0.929 . S
C2478 C2474 1.356 . S
C2478 C2475 1.358 . S
C2478 H2534 0.930 . S
C2479 N2476 1.314 . S
C2479 C2477 1.353 . S
C2479 H2535 0.930 . S
C2480 N2481 1.314 . S
C2480 C2485 1.353 . S
C2480 H2486 0.930 . S
N2481 Li2464 1.990 . S
N2481 C2480 1.314 . S
N2481 C2483 1.279 . S
C2482 C2483 1.358 . S
C2482 C2484 1.356 . S
C2482 H2536 0.930 . S
C2483 N2481 1.279 . S
C2483 C2482 1.358 . S
C2483 H2487 0.930 . S
C2484 C2482 1.356 . S
C2484 C2485 1.348 . S
C2485 C2480 1.353 . S
C2485 C2484 1.348 . S
C2485 H2537 0.929 . S
H2486 C2480 0.930 . S
H2487 C2483 0.930 . S
C2488 N2489 1.314 . S
C2488 C2490 1.353 . S
C2488 H2494 0.930 . S
N2489 Li2465 1.990 . S
N2489 C2488 1.314 . S
N2489 C2492 1.279 . S
C2490 C2488 1.353 . S
C2490 C2493 1.348 . S
C2490 H2538 0.929 . S
C2491 C2492 1.358 . S
C2491 C2493 1.356 . S
C2491 H2539 0.930 . S
C2492 N2489 1.279 . S
C2492 C2491 1.358 . S
C2492 H2495 0.930 . S
C2493 C2490 1.348 . S
C2493 C2491 1.356 . S
H2494 C2488 0.930 . S
H2495 C2492 0.930 . S
C2496 C2498 1.348 . S
C2496 C2499 1.356 . S
C2496 O2526 1.325 . S
N2497 C2500 1.314 . S
N2497 C2501 1.279 . S
C2498 C2496 1.348 . S
C2498 C2500 1.353 . S
C2498 H2540 0.929 . S
C2499 C2496 1.356 . S
C2499 C2501 1.358 . S
C2499 H2541 0.930 . S
C2500 N2497 1.314 . S
C2500 C2498 1.353 . S
C2500 H2542 0.930 . S
C2501 N2497 1.279 . S
C2501 C2499 1.358 . S
C2501 H2543 0.930 . S
C2502 C2503 1.348 . S
C2502 C2504 1.356 . S
C2502 O2527 1.325 . S
C2503 C2502 1.348 . S
C2503 C2505 1.353 . S
C2503 H2544 0.929 . S
C2504 C2502 1.356 . S
C2504 C2506 1.358 . S
C2504 H2545 0.930 . S
C2505 C2503 1.353 . S
C2505 N2507 1.314 . S
C2505 H2546 0.930 . S
C2506 C2504 1.358 . S
C2506 N2507 1.279 . S
C2506 H2547 0.930 . S
N2507 C2505 1.314 . S
N2507 C2506 1.279 . S
C2508 C2510 1.353 . S
C2508 N2511 1.314 . S
C2508 H2514 0.930 . S
C2509 N2511 1.279 . S
C2509 C2512 1.358 . S
C2509 H2515 0.930 . S
C2510 C2508 1.353 . S
C2510 C2513 1.348 . S
C2510 H2548 0.929 . S
N2511 Li2466 1.990 . S
N2511 C2508 1.314 . S
N2511 C2509 1.279 . S
C2512 C2509 1.358 . S
C2512 C2513 1.356 . S
C2512 H2549 0.930 . S
C2513 C2510 1.348 . S
C2513 C2512 1.356 . S
H2514 C2508 0.930 . S
H2515 C2509 0.930 . S
C2516 N2517 1.314 . S
C2516 C2518 1.353 . S
C2516 H2522 0.930 . S
N2517 Li2467 1.990 . S
N2517 C2516 1.314 . S
N2517 C2520 1.279 . S
C2518 C2516 1.353 . S
C2518 C2521 1.348 . S
C2518 H2550 0.929 . S
C2519 C2520 1.358 . S
C2519 C2521 1.356 . S
C2519 H2551 0.930 . S
C2520 N2517 1.279 . S
C2520 C2519 1.358 . S
C2520 H2523 0.930 . S
C2521 C2518 1.348 . S
C2521 C2519 1.356 . S
H2522 C2516 0.930 . S
H2523 C2520 0.930 . S
O2524 Li2464 1.956 . S
O2524 Li2465 1.970 . S
O2524 Li2466 1.961 . S
O2524 C2468 1.325 . S
O2525 Li2464 1.970 . S
O2525 Li2465 1.956 . S
O2525 Li2467 1.961 . S
O2525 C2474 1.325 . S
O2526 Li2464 1.961 . S
O2526 Li2466 1.956 . S
O2526 Li2467 1.970 . S
O2526 C2496 1.325 . S
O2527 Li2465 1.961 . S
O2527 Li2466 1.970 . S
O2527 Li2467 1.956 . S
O2527 C2502 1.325 . S
H2528 C2470 0.929 . S
H2529 C2471 0.930 . S
H2530 C2472 0.930 . S
H2531 C2473 0.930 . S
H2532 C2475 0.930 . S
H2533 C2477 0.929 . S
H2534 C2478 0.930 . S
H2535 C2479 0.930 . S
H2536 C2482 0.930 . S
H2537 C2485 0.929 . S
H2538 C2490 0.929 . S
H2539 C2491 0.930 . S
H2540 C2498 0.929 . S
H2541 C2499 0.930 . S
H2542 C2500 0.930 . S
H2543 C2501 0.930 . S
H2544 C2503 0.929 . S
H2545 C2504 0.930 . S
H2546 C2505 0.930 . S
H2547 C2506 0.930 . S
H2548 C2510 0.929 . S
H2549 C2512 0.930 . S
H2550 C2518 0.929 . S
H2551 C2519 0.930 . S
Li2552 N2569 1.990 . S
Li2552 O2612 1.956 . S
Li2552 O2613 1.970 . S
Li2552 O2614 1.961 . S
Li2553 N2577 1.990 . S
Li2553 O2612 1.970 . S
Li2553 O2613 1.956 . S
Li2553 O2615 1.961 . S
Li2554 N2599 1.990 . S
Li2554 O2612 1.961 . S
Li2554 O2614 1.956 . S
Li2554 O2615 1.970 . S
Li2555 N2605 1.990 . S
Li2555 O2613 1.961 . S
Li2555 O2614 1.970 . S
Li2555 O2615 1.956 . S
C2556 C2558 1.348 . S
C2556 C2559 1.356 . S
C2556 O2612 1.325 . S
N2557 C2560 1.314 . S
N2557 C2561 1.279 . S
C2558 C2556 1.348 . S
C2558 C2560 1.353 . S
C2558 H2616 0.929 . S
C2559 C2556 1.356 . S
C2559 C2561 1.358 . S
C2559 H2617 0.930 . S
C2560 N2557 1.314 . S
C2560 C2558 1.353 . S
C2560 H2618 0.930 . S
C2561 N2557 1.279 . S
C2561 C2559 1.358 . S
C2561 H2619 0.930 . S
C2562 C2565 1.348 . S
C2562 C2566 1.356 . S
C2562 O2613 1.325 . S
C2563 N2564 1.279 . S
C2563 C2566 1.358 . S
C2563 H2620 0.930 . S
N2564 C2563 1.279 . S
N2564 C2567 1.314 . S
C2565 C2562 1.348 . S
C2565 C2567 1.353 . S
C2565 H2621 0.929 . S
C2566 C2562 1.356 . S
C2566 C2563 1.358 . S
C2566 H2622 0.930 . S
C2567 N2564 1.314 . S
C2567 C2565 1.353 . S
C2567 H2623 0.930 . S
C2568 N2569 1.314 . S
C2568 C2573 1.353 . S
C2568 H2574 0.930 . S
N2569 Li2552 1.990 . S
N2569 C2568 1.314 . S
N2569 C2571 1.279 . S
C2570 C2571 1.358 . S
C2570 C2572 1.356 . S
C2570 H2624 0.930 . S
C2571 N2569 1.279 . S
C2571 C2570 1.358 . S
C2571 H2575 0.930 . S
C2572 C2570 1.356 . S
C2572 C2573 1.348 . S
C2573 C2568 1.353 . S
C2573 C2572 1.348 . S
C2573 H2625 0.929 . S
H2574 C2568 0.930 . S
H2575 C2571 0.930 . S
C2576 N2577 1.314 . S
C2576 C2578 1.353 . S
C2576 H2582 0.930 . S
N2577 Li2553 1.990 . S
N2577 C2576 1.314 . S
N2577 C2580 1.279 . S
C2578 C2576 1.353 . S
C2578 C2581 1.348 . S
C2578 H2626 0.929 . S
C2579 C2580 1.358 . S
C2579 C2581 1.356 . S
C2579 H2627 0.930 . S
C2580 N2577 1.279 . S
C2580 C2579 1.358 . S
C2580 H2583 0.930 . S
C2581 C2578 1.348 . S
C2581 C2579 1.356 . S
H2582 C2576 0.930 . S
H2583 C2580 0.930 . S
C2584 C2586 1.348 . S
C2584 C2587 1.356 . S
C2584 O2614 1.325 . S
N2585 C2588 1.314 . S
N2585 C2589 1.279 . S
C2586 C2584 1.348 . S
C2586 C2588 1.353 . S
C2586 H2628 0.929 . S
C2587 C2584 1.356 . S
C2587 C2589 1.358 . S
C2587 H2629 0.930 . S
C2588 N2585 1.314 . S
C2588 C2586 1.353 . S
C2588 H2630 0.930 . S
C2589 N2585 1.279 . S
C2589 C2587 1.358 . S
C2589 H2631 0.930 . S
C2590 C2591 1.348 . S
C2590 C2592 1.356 . S
C2590 O2615 1.325 . S
C2591 C2590 1.348 . S
C2591 C2593 1.353 . S
C2591 H2632 0.929 . S
C2592 C2590 1.356 . S
C2592 C2594 1.358 . S
C2592 H2633 0.930 . S
C2593 C2591 1.353 . S
C2593 N2595 1.314 . S
C2593 H2634 0.930 . S
C2594 C2592 1.358 . S
C2594 N2595 1.279 . S
C2594 H2635 0.930 . S
N2595 C2593 1.314 . S
N2595 C2594 1.279 . S
C2596 C2598 1.353 . S
C2596 N2599 1.314 . S
C2596 H2602 0.930 . S
C2597 N2599 1.279 . S
C2597 C2600 1.358 . S
C2597 H2603 0.930 . S
C2598 C2596 1.353 . S
C2598 C2601 1.348 . S
C2598 H2636 0.929 . S
N2599 Li2554 1.990 . S
N2599 C2596 1.314 . S
N2599 C2597 1.279 . S
C2600 C2597 1.358 . S
C2600 C2601 1.356 . S
C2600 H2637 0.930 . S
C2601 C2598 1.348 . S
C2601 C2600 1.356 . S
H2602 C2596 0.930 . S
H2603 C2597 0.930 . S
C2604 N2605 1.314 . S
C2604 C2606 1.353 . S
C2604 H2610 0.930 . S
N2605 Li2555 1.990 . S
N2605 C2604 1.314 . S
N2605 C2608 1.279 . S
C2606 C2604 1.353 . S
C2606 C2609 1.348 . S
C2606 H2638 0.929 . S
C2607 C2608 1.358 . S
C2607 C2609 1.356 . S
C2607 H2639 0.930 . S
C2608 N2605 1.279 . S
C2608 C2607 1.358 . S
C2608 H2611 0.930 . S
C2609 C2606 1.348 . S
C2609 C2607 1.356 . S
H2610 C2604 0.930 . S
H2611 C2608 0.930 . S
O2612 Li2552 1.956 . S
O2612 Li2553 1.970 . S
O2612 Li2554 1.961 . S
O2612 C2556 1.325 . S
O2613 Li2552 1.970 . S
O2613 Li2553 1.956 . S
O2613 Li2555 1.961 . S
O2613 C2562 1.325 . S
O2614 Li2552 1.961 . S
O2614 Li2554 1.956 . S
O2614 Li2555 1.970 . S
O2614 C2584 1.325 . S
O2615 Li2553 1.961 . S
O2615 Li2554 1.970 . S
O2615 Li2555 1.956 . S
O2615 C2590 1.325 . S
H2616 C2558 0.929 . S
H2617 C2559 0.930 . S
H2618 C2560 0.930 . S
H2619 C2561 0.930 . S
H2620 C2563 0.930 . S
H2621 C2565 0.929 . S
H2622 C2566 0.930 . S
H2623 C2567 0.930 . S
H2624 C2570 0.930 . S
H2625 C2573 0.929 . S
H2626 C2578 0.929 . S
H2627 C2579 0.930 . S
H2628 C2586 0.929 . S
H2629 C2587 0.930 . S
H2630 C2588 0.930 . S
H2631 C2589 0.930 . S
H2632 C2591 0.929 . S
H2633 C2592 0.930 . S
H2634 C2593 0.930 . S
H2635 C2594 0.930 . S
H2636 C2598 0.929 . S
H2637 C2600 0.930 . S
H2638 C2606 0.929 . S
H2639 C2607 0.930 . S
Li2640 N2657 1.990 . S
Li2640 O2700 1.956 . S
Li2640 O2701 1.970 . S
Li2640 O2702 1.961 . S
Li2641 N2665 1.990 . S
Li2641 O2700 1.970 . S
Li2641 O2701 1.956 . S
Li2641 O2703 1.961 . S
Li2642 N2687 1.990 . S
Li2642 O2700 1.961 . S
Li2642 O2702 1.956 . S
Li2642 O2703 1.970 . S
Li2643 N2693 1.990 . S
Li2643 O2701 1.961 . S
Li2643 O2702 1.970 . S
Li2643 O2703 1.956 . S
C2644 C2646 1.348 . S
C2644 C2647 1.356 . S
C2644 O2700 1.325 . S
N2645 C2648 1.314 . S
N2645 C2649 1.279 . S
C2646 C2644 1.348 . S
C2646 C2648 1.353 . S
C2646 H2704 0.929 . S
C2647 C2644 1.356 . S
C2647 C2649 1.358 . S
C2647 H2705 0.930 . S
C2648 N2645 1.314 . S
C2648 C2646 1.353 . S
C2648 H2706 0.930 . S
C2649 N2645 1.279 . S
C2649 C2647 1.358 . S
C2649 H2707 0.930 . S
C2650 C2653 1.348 . S
C2650 C2654 1.356 . S
C2650 O2701 1.325 . S
C2651 N2652 1.279 . S
C2651 C2654 1.358 . S
C2651 H2708 0.930 . S
N2652 C2651 1.279 . S
N2652 C2655 1.314 . S
C2653 C2650 1.348 . S
C2653 C2655 1.353 . S
C2653 H2709 0.929 . S
C2654 C2650 1.356 . S
C2654 C2651 1.358 . S
C2654 H2710 0.930 . S
C2655 N2652 1.314 . S
C2655 C2653 1.353 . S
C2655 H2711 0.930 . S
C2656 N2657 1.314 . S
C2656 C2661 1.353 . S
C2656 H2662 0.930 . S
N2657 Li2640 1.990 . S
N2657 C2656 1.314 . S
N2657 C2659 1.279 . S
C2658 C2659 1.358 . S
C2658 C2660 1.356 . S
C2658 H2712 0.930 . S
C2659 N2657 1.279 . S
C2659 C2658 1.358 . S
C2659 H2663 0.930 . S
C2660 C2658 1.356 . S
C2660 C2661 1.348 . S
C2661 C2656 1.353 . S
C2661 C2660 1.348 . S
C2661 H2713 0.929 . S
H2662 C2656 0.930 . S
H2663 C2659 0.930 . S
C2664 N2665 1.314 . S
C2664 C2666 1.353 . S
C2664 H2670 0.930 . S
N2665 Li2641 1.990 . S
N2665 C2664 1.314 . S
N2665 C2668 1.279 . S
C2666 C2664 1.353 . S
C2666 C2669 1.348 . S
C2666 H2714 0.929 . S
C2667 C2668 1.358 . S
C2667 C2669 1.356 . S
C2667 H2715 0.930 . S
C2668 N2665 1.279 . S
C2668 C2667 1.358 . S
C2668 H2671 0.930 . S
C2669 C2666 1.348 . S
C2669 C2667 1.356 . S
H2670 C2664 0.930 . S
H2671 C2668 0.930 . S
C2672 C2674 1.348 . S
C2672 C2675 1.356 . S
C2672 O2702 1.325 . S
N2673 C2676 1.314 . S
N2673 C2677 1.279 . S
C2674 C2672 1.348 . S
C2674 C2676 1.353 . S
C2674 H2716 0.929 . S
C2675 C2672 1.356 . S
C2675 C2677 1.358 . S
C2675 H2717 0.930 . S
C2676 N2673 1.314 . S
C2676 C2674 1.353 . S
C2676 H2718 0.930 . S
C2677 N2673 1.279 . S
C2677 C2675 1.358 . S
C2677 H2719 0.930 . S
C2678 C2679 1.348 . S
C2678 C2680 1.356 . S
C2678 O2703 1.325 . S
C2679 C2678 1.348 . S
C2679 C2681 1.353 . S
C2679 H2720 0.929 . S
C2680 C2678 1.356 . S
C2680 C2682 1.358 . S
C2680 H2721 0.930 . S
C2681 C2679 1.353 . S
C2681 N2683 1.314 . S
C2681 H2722 0.930 . S
C2682 C2680 1.358 . S
C2682 N2683 1.279 . S
C2682 H2723 0.930 . S
N2683 C2681 1.314 . S
N2683 C2682 1.279 . S
C2684 C2686 1.353 . S
C2684 N2687 1.314 . S
C2684 H2690 0.930 . S
C2685 N2687 1.279 . S
C2685 C2688 1.358 . S
C2685 H2691 0.930 . S
C2686 C2684 1.353 . S
C2686 C2689 1.348 . S
C2686 H2724 0.929 . S
N2687 Li2642 1.990 . S
N2687 C2684 1.314 . S
N2687 C2685 1.279 . S
C2688 C2685 1.358 . S
C2688 C2689 1.356 . S
C2688 H2725 0.930 . S
C2689 C2686 1.348 . S
C2689 C2688 1.356 . S
H2690 C2684 0.930 . S
H2691 C2685 0.930 . S
C2692 N2693 1.314 . S
C2692 C2694 1.353 . S
C2692 H2698 0.930 . S
N2693 Li2643 1.990 . S
N2693 C2692 1.314 . S
N2693 C2696 1.279 . S
C2694 C2692 1.353 . S
C2694 C2697 1.348 . S
C2694 H2726 0.929 . S
C2695 C2696 1.358 . S
C2695 C2697 1.356 . S
C2695 H2727 0.930 . S
C2696 N2693 1.279 . S
C2696 C2695 1.358 . S
C2696 H2699 0.930 . S
C2697 C2694 1.348 . S
C2697 C2695 1.356 . S
H2698 C2692 0.930 . S
H2699 C2696 0.930 . S
O2700 Li2640 1.956 . S
O2700 Li2641 1.970 . S
O2700 Li2642 1.961 . S
O2700 C2644 1.325 . S
O2701 Li2640 1.970 . S
O2701 Li2641 1.956 . S
O2701 Li2643 1.961 . S
O2701 C2650 1.325 . S
O2702 Li2640 1.961 . S
O2702 Li2642 1.956 . S
O2702 Li2643 1.970 . S
O2702 C2672 1.325 . S
O2703 Li2641 1.961 . S
O2703 Li2642 1.970 . S
O2703 Li2643 1.956 . S
O2703 C2678 1.325 . S
H2704 C2646 0.929 . S
H2705 C2647 0.930 . S
H2706 C2648 0.930 . S
H2707 C2649 0.930 . S
H2708 C2651 0.930 . S
H2709 C2653 0.929 . S
H2710 C2654 0.930 . S
H2711 C2655 0.930 . S
H2712 C2658 0.930 . S
H2713 C2661 0.929 . S
H2714 C2666 0.929 . S
H2715 C2667 0.930 . S
H2716 C2674 0.929 . S
H2717 C2675 0.930 . S
H2718 C2676 0.930 . S
H2719 C2677 0.930 . S
H2720 C2679 0.929 . S
H2721 C2680 0.930 . S
H2722 C2681 0.930 . S
H2723 C2682 0.930 . S
H2724 C2686 0.929 . S
H2725 C2688 0.930 . S
H2726 C2694 0.929 . S
H2727 C2695 0.930 . S
Li2728 N2745 1.990 . S
Li2728 O2788 1.956 . S
Li2728 O2789 1.970 . S
Li2728 O2790 1.961 . S
Li2729 N2753 1.990 . S
Li2729 O2788 1.970 . S
Li2729 O2789 1.956 . S
Li2729 O2791 1.961 . S
Li2730 N2775 1.990 . S
Li2730 O2788 1.961 . S
Li2730 O2790 1.956 . S
Li2730 O2791 1.970 . S
Li2731 N2781 1.990 . S
Li2731 O2789 1.961 . S
Li2731 O2790 1.970 . S
Li2731 O2791 1.956 . S
C2732 C2734 1.348 . S
C2732 C2735 1.356 . S
C2732 O2788 1.325 . S
N2733 C2736 1.314 . S
N2733 C2737 1.279 . S
C2734 C2732 1.348 . S
C2734 C2736 1.353 . S
C2734 H2792 0.929 . S
C2735 C2732 1.356 . S
C2735 C2737 1.358 . S
C2735 H2793 0.930 . S
C2736 N2733 1.314 . S
C2736 C2734 1.353 . S
C2736 H2794 0.930 . S
C2737 N2733 1.279 . S
C2737 C2735 1.358 . S
C2737 H2795 0.930 . S
C2738 C2741 1.348 . S
C2738 C2742 1.356 . S
C2738 O2789 1.325 . S
C2739 N2740 1.279 . S
C2739 C2742 1.358 . S
C2739 H2796 0.930 . S
N2740 C2739 1.279 . S
N2740 C2743 1.314 . S
C2741 C2738 1.348 . S
C2741 C2743 1.353 . S
C2741 H2797 0.929 . S
C2742 C2738 1.356 . S
C2742 C2739 1.358 . S
C2742 H2798 0.930 . S
C2743 N2740 1.314 . S
C2743 C2741 1.353 . S
C2743 H2799 0.930 . S
C2744 N2745 1.314 . S
C2744 C2749 1.353 . S
C2744 H2750 0.930 . S
N2745 Li2728 1.990 . S
N2745 C2744 1.314 . S
N2745 C2747 1.279 . S
C2746 C2747 1.358 . S
C2746 C2748 1.356 . S
C2746 H2800 0.930 . S
C2747 N2745 1.279 . S
C2747 C2746 1.358 . S
C2747 H2751 0.930 . S
C2748 C2746 1.356 . S
C2748 C2749 1.348 . S
C2749 C2744 1.353 . S
C2749 C2748 1.348 . S
C2749 H2801 0.929 . S
H2750 C2744 0.930 . S
H2751 C2747 0.930 . S
C2752 N2753 1.314 . S
C2752 C2754 1.353 . S
C2752 H2758 0.930 . S
N2753 Li2729 1.990 . S
N2753 C2752 1.314 . S
N2753 C2756 1.279 . S
C2754 C2752 1.353 . S
C2754 C2757 1.348 . S
C2754 H2802 0.929 . S
C2755 C2756 1.358 . S
C2755 C2757 1.356 . S
C2755 H2803 0.930 . S
C2756 N2753 1.279 . S
C2756 C2755 1.358 . S
C2756 H2759 0.930 . S
C2757 C2754 1.348 . S
C2757 C2755 1.356 . S
H2758 C2752 0.930 . S
H2759 C2756 0.930 . S
C2760 C2762 1.348 . S
C2760 C2763 1.356 . S
C2760 O2790 1.325 . S
N2761 C2764 1.314 . S
N2761 C2765 1.279 . S
C2762 C2760 1.348 . S
C2762 C2764 1.353 . S
C2762 H2804 0.929 . S
C2763 C2760 1.356 . S
C2763 C2765 1.358 . S
C2763 H2805 0.930 . S
C2764 N2761 1.314 . S
C2764 C2762 1.353 . S
C2764 H2806 0.930 . S
C2765 N2761 1.279 . S
C2765 C2763 1.358 . S
C2765 H2807 0.930 . S
C2766 C2767 1.348 . S
C2766 C2768 1.356 . S
C2766 O2791 1.325 . S
C2767 C2766 1.348 . S
C2767 C2769 1.353 . S
C2767 H2808 0.929 . S
C2768 C2766 1.356 . S
C2768 C2770 1.358 . S
C2768 H2809 0.930 . S
C2769 C2767 1.353 . S
C2769 N2771 1.314 . S
C2769 H2810 0.930 . S
C2770 C2768 1.358 . S
C2770 N2771 1.279 . S
C2770 H2811 0.930 . S
N2771 C2769 1.314 . S
N2771 C2770 1.279 . S
C2772 C2774 1.353 . S
C2772 N2775 1.314 . S
C2772 H2778 0.930 . S
C2773 N2775 1.279 . S
C2773 C2776 1.358 . S
C2773 H2779 0.930 . S
C2774 C2772 1.353 . S
C2774 C2777 1.348 . S
C2774 H2812 0.929 . S
N2775 Li2730 1.990 . S
N2775 C2772 1.314 . S
N2775 C2773 1.279 . S
C2776 C2773 1.358 . S
C2776 C2777 1.356 . S
C2776 H2813 0.930 . S
C2777 C2774 1.348 . S
C2777 C2776 1.356 . S
H2778 C2772 0.930 . S
H2779 C2773 0.930 . S
C2780 N2781 1.314 . S
C2780 C2782 1.353 . S
C2780 H2786 0.930 . S
N2781 Li2731 1.990 . S
N2781 C2780 1.314 . S
N2781 C2784 1.279 . S
C2782 C2780 1.353 . S
C2782 C2785 1.348 . S
C2782 H2814 0.929 . S
C2783 C2784 1.358 . S
C2783 C2785 1.356 . S
C2783 H2815 0.930 . S
C2784 N2781 1.279 . S
C2784 C2783 1.358 . S
C2784 H2787 0.930 . S
C2785 C2782 1.348 . S
C2785 C2783 1.356 . S
H2786 C2780 0.930 . S
H2787 C2784 0.930 . S
O2788 Li2728 1.956 . S
O2788 Li2729 1.970 . S
O2788 Li2730 1.961 . S
O2788 C2732 1.325 . S
O2789 Li2728 1.970 . S
O2789 Li2729 1.956 . S
O2789 Li2731 1.961 . S
O2789 C2738 1.325 . S
O2790 Li2728 1.961 . S
O2790 Li2730 1.956 . S
O2790 Li2731 1.970 . S
O2790 C2760 1.325 . S
O2791 Li2729 1.961 . S
O2791 Li2730 1.970 . S
O2791 Li2731 1.956 . S
O2791 C2766 1.325 . S
H2792 C2734 0.929 . S
H2793 C2735 0.930 . S
H2794 C2736 0.930 . S
H2795 C2737 0.930 . S
H2796 C2739 0.930 . S
H2797 C2741 0.929 . S
H2798 C2742 0.930 . S
H2799 C2743 0.930 . S
H2800 C2746 0.930 . S
H2801 C2749 0.929 . S
H2802 C2754 0.929 . S
H2803 C2755 0.930 . S
H2804 C2762 0.929 . S
H2805 C2763 0.930 . S
H2806 C2764 0.930 . S
H2807 C2765 0.930 . S
H2808 C2767 0.929 . S
H2809 C2768 0.930 . S
H2810 C2769 0.930 . S
H2811 C2770 0.930 . S
H2812 C2774 0.929 . S
H2813 C2776 0.930 . S
H2814 C2782 0.929 . S
H2815 C2783 0.930 . S
H2816 C2828 0.930 . S
H2817 C2830 0.930 . S
H2818 C2831 0.915 1_556 S
H2819 C2835 0.959 . S
H2820 C2835 0.959 . S
H2821 C2835 0.961 . S
H2822 C2836 0.960 . S
H2823 C2836 0.961 . S
H2824 C2836 0.959 . S
H2825 C2839 0.929 . S
H2826 C2840 0.931 . S
H2827 C2842 0.930 . S
C2828 H2816 0.930 . S
C2828 C2829 1.399 . S
C2828 C2833 1.399 . S
C2829 C2828 1.399 . S
C2829 C2830 1.376 . S
C2830 H2817 0.930 . S
C2830 C2829 1.376 . S
C2830 C2831 1.403 . S
C2831 H2818 0.915 1_554 S
C2831 C2830 1.403 . S
C2831 C2832 1.391 . S
C2832 C2831 1.391 . S
C2832 C2833 1.394 . S
C2832 C2838 1.465 1_454 S
C2833 C2828 1.399 . S
C2833 C2832 1.394 . S
C2833 C2834 1.516 1_545 S
C2834 C2833 1.516 1_565 S
C2834 C2835 1.502 . S
C2834 C2836 1.561 1_455 S
C2834 C2837 1.526 1_454 S
C2835 H2819 0.959 . S
C2835 H2820 0.959 . S
C2835 H2821 0.961 . S
C2835 C2834 1.502 . S
C2836 H2822 0.960 . S
C2836 H2823 0.961 . S
C2836 H2824 0.959 . S
C2836 C2834 1.561 1_655 S
C2837 C2834 1.526 1_656 S
C2837 C2838 1.396 1_565 S
C2837 C2842 1.390 . S
C2838 C2832 1.465 1_656 S
C2838 C2837 1.396 1_545 S
C2838 C2839 1.399 . S
C2839 H2825 0.929 . S
C2839 C2838 1.399 . S
C2839 C2840 1.385 1_545 S
C2840 H2826 0.931 . S
C2840 C2839 1.385 1_565 S
C2840 C2841 1.389 . S
C2841 C2840 1.389 . S
C2841 C2842 1.387 . S
C2842 H2827 0.930 . S
C2842 C2837 1.390 . S
C2842 C2841 1.387 . S
H2843 C2855 0.930 . S
H2844 C2857 0.930 . S
H2845 C2858 0.930 . S
H2846 C2862 0.959 . S
H2847 C2862 0.959 . S
H2848 C2862 0.961 . S
H2849 C2863 0.960 . S
H2850 C2863 0.961 . S
H2851 C2863 0.959 . S
H2852 C2866 0.929 . S
H2853 C2867 0.931 . S
H2854 C2869 0.930 . S
C2855 H2843 0.930 . S
C2855 C2856 1.399 . S
C2855 C2860 1.399 . S
C2856 C2855 1.399 . S
C2856 C2857 1.376 . S
C2857 H2844 0.930 . S
C2857 C2856 1.376 . S
C2857 C2858 1.388 . S
C2858 H2845 0.930 . S
C2858 C2857 1.388 . S
C2858 C2859 1.390 . S
C2859 C2858 1.390 . S
C2859 C2860 1.394 . S
C2859 C2865 1.465 . S
C2860 C2855 1.399 . S
C2860 C2859 1.394 . S
C2860 C2861 1.516 . S
C2861 C2860 1.516 . S
C2861 C2862 1.502 . S
C2861 C2863 1.561 . S
C2861 C2864 1.526 . S
C2862 H2846 0.959 . S
C2862 H2847 0.959 . S
C2862 H2848 0.961 . S
C2862 C2861 1.502 . S
C2863 H2849 0.960 . S
C2863 H2850 0.961 . S
C2863 H2851 0.959 . S
C2863 C2861 1.561 . S
C2864 C2861 1.526 . S
C2864 C2865 1.396 . S
C2864 C2869 1.390 . S
C2865 C2859 1.465 . S
C2865 C2864 1.396 . S
C2865 C2866 1.399 . S
C2866 H2852 0.929 . S
C2866 C2865 1.399 . S
C2866 C2867 1.385 . S
C2867 H2853 0.931 . S
C2867 C2866 1.385 . S
C2867 C2868 1.389 . S
C2868 C2867 1.389 . S
C2868 C2869 1.387 . S
C2869 H2854 0.930 . S
C2869 C2864 1.390 . S
C2869 C2868 1.387 . S
H2870 C2882 0.930 . S
H2871 C2884 0.930 . S
H2872 C2885 0.930 1_545 S
H2873 C2889 0.931 1_545 S
H2874 C2889 0.959 . S
H2875 C2889 0.961 . S
H2876 C2890 0.960 . S
H2877 C2890 0.961 . S
H2878 C2890 0.959 . S
H2879 C2893 0.929 . S
H2880 C2894 0.931 . S
H2881 C2896 0.930 . S
C2882 H2870 0.930 . S
C2882 C2883 1.399 . S
C2882 C2887 1.399 . S
C2883 C2882 1.399 . S
C2883 C2884 1.376 . S
C2884 H2871 0.930 . S
C2884 C2883 1.376 . S
C2884 C2885 1.388 . S
C2885 H2872 0.930 1_565 S
C2885 C2884 1.388 . S
C2885 C2886 1.390 . S
C2886 C2885 1.390 . S
C2886 C2887 1.394 . S
C2886 C2892 1.465 1_565 S
C2887 C2882 1.399 . S
C2887 C2886 1.394 . S
C2887 C2888 1.516 . S
C2888 C2887 1.516 . S
C2888 C2889 1.502 . S
C2888 C2890 1.561 . S
C2888 C2891 1.526 1_565 S
C2889 H2873 0.931 1_565 S
C2889 H2874 0.959 . S
C2889 H2875 0.961 . S
C2889 C2888 1.502 . S
C2890 H2876 0.960 . S
C2890 H2877 0.961 . S
C2890 H2878 0.959 . S
C2890 C2888 1.561 . S
C2891 C2888 1.526 1_545 S
C2891 C2892 1.396 . S
C2891 C2896 1.390 . S
C2892 C2886 1.465 1_545 S
C2892 C2891 1.396 . S
C2892 C2893 1.399 . S
C2893 H2879 0.929 . S
C2893 C2892 1.399 . S
C2893 C2894 1.385 . S
C2894 H2880 0.931 . S
C2894 C2893 1.385 . S
C2894 C2895 1.389 . S
C2895 C2894 1.389 . S
C2895 C2896 1.387 . S
C2896 H2881 0.930 . S
C2896 C2891 1.390 . S
C2896 C2895 1.387 . S
H2897 C2909 0.930 . S
H2898 C2911 0.930 . S
H2899 C2912 0.930 . S
H2900 C2916 0.959 . S
H2901 C2916 0.959 . S
H2902 C2916 0.961 . S
H2903 C2917 0.960 . S
H2904 C2917 0.961 . S
H2905 C2917 0.959 . S
H2906 C2920 0.929 . S
H2907 C2921 0.931 . S
H2908 C2923 0.930 . S
C2909 H2897 0.930 . S
C2909 C2910 1.399 . S
C2909 C2914 1.399 . S
C2910 C2909 1.399 . S
C2910 C2911 1.376 . S
C2911 H2898 0.930 . S
C2911 C2910 1.376 . S
C2911 C2912 1.388 . S
C2912 H2899 0.930 . S
C2912 C2911 1.388 . S
C2912 C2913 1.390 . S
C2913 C2912 1.390 . S
C2913 C2914 1.394 . S
C2913 C2919 1.465 . S
C2914 C2909 1.399 . S
C2914 C2913 1.394 . S
C2914 C2915 1.516 . S
C2915 C2914 1.516 . S
C2915 C2916 1.502 . S
C2915 C2917 1.561 . S
C2915 C2918 1.526 . S
C2916 H2900 0.959 . S
C2916 H2901 0.959 . S
C2916 H2902 0.961 . S
C2916 C2915 1.502 . S
C2917 H2903 0.960 . S
C2917 H2904 0.961 . S
C2917 H2905 0.959 . S
C2917 C2915 1.561 . S
C2918 C2915 1.526 . S
C2918 C2919 1.396 . S
C2918 C2923 1.390 . S
C2919 C2913 1.465 . S
C2919 C2918 1.396 . S
C2919 C2920 1.399 . S
C2920 H2906 0.929 . S
C2920 C2919 1.399 . S
C2920 C2921 1.385 . S
C2921 H2907 0.931 . S
C2921 C2920 1.385 . S
C2921 C2922 1.389 . S
C2922 C2921 1.389 . S
C2922 C2923 1.387 . S
C2923 H2908 0.930 . S
C2923 C2918 1.390 . S
C2923 C2922 1.387 . S
H2924 C2936 0.930 . S
H2925 C2938 0.930 . S
H2926 C2939 0.908 1_545 S
H2927 C2943 0.959 . S
H2928 C2943 0.959 . S
H2929 C2943 0.961 . S
H2930 C2944 0.960 . S
H2931 C2944 0.961 . S
H2932 C2944 0.959 . S
H2933 C2947 0.929 . S
H2934 C2948 0.931 . S
H2935 C2950 0.930 . S
C2936 H2924 0.930 . S
C2936 C2937 1.399 . S
C2936 C2941 1.399 . S
C2937 C2936 1.399 . S
C2937 C2938 1.376 . S
C2938 H2925 0.930 . S
C2938 C2937 1.376 . S
C2938 C2939 1.409 . S
C2939 H2926 0.908 1_565 S
C2939 C2938 1.409 . S
C2939 C2940 1.392 . S
C2940 C2939 1.392 . S
C2940 C2941 1.394 . S
C2940 C2946 1.465 1_565 S
C2941 C2936 1.399 . S
C2941 C2940 1.394 . S
C2941 C2942 1.516 1_455 S
C2942 C2941 1.516 1_655 S
C2942 C2943 1.502 . S
C2942 C2944 1.561 . S
C2942 C2945 1.526 1_565 S
C2943 H2927 0.959 . S
C2943 H2928 0.959 . S
C2943 H2929 0.961 . S
C2943 C2942 1.502 . S
C2944 H2930 0.960 . S
C2944 H2931 0.961 . S
C2944 H2932 0.959 . S
C2944 C2942 1.561 . S
C2945 C2942 1.526 1_545 S
C2945 C2946 1.396 1_655 S
C2945 C2950 1.390 . S
C2946 C2940 1.465 1_545 S
C2946 C2945 1.396 1_455 S
C2946 C2947 1.399 . S
C2947 H2933 0.929 . S
C2947 C2946 1.399 . S
C2947 C2948 1.385 1_455 S
C2948 H2934 0.931 . S
C2948 C2947 1.385 1_655 S
C2948 C2949 1.389 . S
C2949 C2948 1.389 . S
C2949 C2950 1.387 . S
C2950 H2935 0.930 . S
C2950 C2945 1.390 . S
C2950 C2949 1.387 . S
H2951 C2963 0.930 . S
H2952 C2965 0.930 . S
H2953 C2966 0.930 . S
H2954 C2970 0.959 . S
H2955 C2970 0.959 . S
H2956 C2970 0.961 . S
H2957 C2971 0.960 . S
H2958 C2971 0.961 . S
H2959 C2971 0.959 . S
H2960 C2974 0.929 . S
H2961 C2975 0.931 . S
H2962 C2977 0.930 . S
C2963 H2951 0.930 . S
C2963 C2964 1.399 . S
C2963 C2968 1.399 . S
C2964 C2963 1.399 . S
C2964 C2965 1.376 . S
C2965 H2952 0.930 . S
C2965 C2964 1.376 . S
C2965 C2966 1.388 . S
C2966 H2953 0.930 . S
C2966 C2965 1.388 . S
C2966 C2967 1.390 . S
C2967 C2966 1.390 . S
C2967 C2968 1.394 . S
C2967 C2973 1.465 . S
C2968 C2963 1.399 . S
C2968 C2967 1.394 . S
C2968 C2969 1.516 . S
C2969 C2968 1.516 . S
C2969 C2970 1.502 . S
C2969 C2971 1.561 . S
C2969 C2972 1.526 . S
C2970 H2954 0.959 . S
C2970 H2955 0.959 . S
C2970 H2956 0.961 . S
C2970 C2969 1.502 . S
C2971 H2957 0.960 . S
C2971 H2958 0.961 . S
C2971 H2959 0.959 . S
C2971 C2969 1.561 . S
C2972 C2969 1.526 . S
C2972 C2973 1.396 . S
C2972 C2977 1.390 . S
C2973 C2967 1.465 . S
C2973 C2972 1.396 . S
C2973 C2974 1.399 . S
C2974 H2960 0.929 . S
C2974 C2973 1.399 . S
C2974 C2975 1.385 . S
C2975 H2961 0.931 . S
C2975 C2974 1.385 . S
C2975 C2976 1.389 . S
C2976 C2975 1.389 . S
C2976 C2977 1.387 . S
C2977 H2962 0.930 . S
C2977 C2972 1.390 . S
C2977 C2976 1.387 . S
H2978 C2990 0.930 . S
H2979 C2992 0.930 . S
H2980 C2993 0.930 . S
H2981 C2997 0.959 . S
H2982 C2997 0.959 . S
H2983 C2997 0.961 . S
H2984 C2998 0.960 . S
H2985 C2998 0.961 . S
H2986 C2998 0.934 1_545 S
H2987 C3001 0.929 . S
H2988 C3002 0.931 . S
H2989 C3004 0.930 . S
C2990 H2978 0.930 . S
C2990 C2991 1.399 . S
C2990 C2995 1.399 . S
C2991 C2990 1.399 . S
C2991 C2992 1.376 . S
C2992 H2979 0.930 . S
C2992 C2991 1.376 . S
C2992 C2993 1.388 1_556 S
C2993 H2980 0.930 . S
C2993 C2992 1.388 1_554 S
C2993 C2994 1.390 . S
C2994 C2993 1.390 . S
C2994 C2995 1.394 1_554 S
C2994 C3000 1.465 . S
C2995 C2990 1.399 . S
C2995 C2994 1.394 1_556 S
C2995 C2996 1.516 1_545 S
C2996 C2995 1.516 1_565 S
C2996 C2997 1.502 . S
C2996 C2998 1.561 . S
C2996 C2999 1.526 1_556 S
C2997 H2981 0.959 . S
C2997 H2982 0.959 . S
C2997 H2983 0.961 . S
C2997 C2996 1.502 . S
C2998 H2984 0.960 . S
C2998 H2985 0.961 . S
C2998 H2986 0.934 1_565 S
C2998 C2996 1.561 . S
C2999 C2996 1.526 1_554 S
C2999 C3000 1.396 1_565 S
C2999 C3004 1.390 . S
C3000 C2994 1.465 . S
C3000 C2999 1.396 1_545 S
C3000 C3001 1.399 . S
C3001 H2987 0.929 . S
C3001 C3000 1.399 . S
C3001 C3002 1.385 1_545 S
C3002 H2988 0.931 . S
C3002 C3001 1.385 1_565 S
C3002 C3003 1.389 . S
C3003 C3002 1.389 . S
C3003 C3004 1.387 . S
C3004 H2989 0.930 . S
C3004 C2999 1.390 . S
C3004 C3003 1.387 . S
H3005 C3017 0.930 . S
H3006 C3019 0.930 . S
H3007 C3020 0.930 . S
H3008 C3024 0.959 . S
H3009 C3024 0.959 . S
H3010 C3024 0.961 . S
H3011 C3025 0.960 . S
H3012 C3025 0.961 . S
H3013 C3025 0.959 . S
H3014 C3028 0.929 . S
H3015 C3029 0.931 . S
H3016 C3031 0.930 . S
C3017 H3005 0.930 . S
C3017 C3018 1.399 . S
C3017 C3022 1.399 . S
C3018 C3017 1.399 . S
C3018 C3019 1.376 . S
C3019 H3006 0.930 . S
C3019 C3018 1.376 . S
C3019 C3020 1.388 . S
C3020 H3007 0.930 . S
C3020 C3019 1.388 . S
C3020 C3021 1.390 . S
C3021 C3020 1.390 . S
C3021 C3022 1.394 . S
C3021 C3027 1.465 . S
C3022 C3017 1.399 . S
C3022 C3021 1.394 . S
C3022 C3023 1.516 . S
C3023 C3022 1.516 . S
C3023 C3024 1.502 . S
C3023 C3025 1.561 . S
C3023 C3026 1.526 . S
C3024 H3008 0.959 . S
C3024 H3009 0.959 . S
C3024 H3010 0.961 . S
C3024 C3023 1.502 . S
C3025 H3011 0.960 . S
C3025 H3012 0.961 . S
C3025 H3013 0.959 . S
C3025 C3023 1.561 . S
C3026 C3023 1.526 . S
C3026 C3027 1.396 . S
C3026 C3031 1.390 . S
C3027 C3021 1.465 . S
C3027 C3026 1.396 . S
C3027 C3028 1.399 . S
C3028 H3014 0.929 . S
C3028 C3027 1.399 . S
C3028 C3029 1.385 . S
C3029 H3015 0.931 . S
C3029 C3028 1.385 . S
C3029 C3030 1.389 . S
C3030 C3029 1.389 . S
C3030 C3031 1.387 . S
C3031 H3016 0.930 . S
C3031 C3026 1.390 . S
C3031 C3030 1.387 . S
H3032 C3044 0.930 . S
H3033 C3046 0.930 . S
H3034 C3047 0.930 . S
H3035 C3051 0.959 . S
H3036 C3051 0.959 . S
H3037 C3051 0.961 . S
H3038 C3052 0.960 . S
H3039 C3052 0.961 . S
H3040 C3052 0.959 . S
H3041 C3055 0.929 . S
H3042 C3056 0.931 . S
H3043 C3058 0.930 . S
C3044 H3032 0.930 . S
C3044 C3045 1.399 . S
C3044 C3049 1.399 . S
C3045 C3044 1.399 . S
C3045 C3046 1.376 . S
C3046 H3033 0.930 . S
C3046 C3045 1.376 . S
C3046 C3047 1.388 . S
C3047 H3034 0.930 . S
C3047 C3046 1.388 . S
C3047 C3048 1.390 . S
C3048 C3047 1.390 . S
C3048 C3049 1.394 . S
C3048 C3054 1.465 . S
C3049 C3044 1.399 . S
C3049 C3048 1.394 . S
C3049 C3050 1.516 1_554 S
C3050 C3049 1.516 1_556 S
C3050 C3051 1.502 . S
C3050 C3052 1.561 . S
C3050 C3053 1.526 . S
C3051 H3035 0.959 . S
C3051 H3036 0.959 . S
C3051 H3037 0.961 . S
C3051 C3050 1.502 . S
C3052 H3038 0.960 . S
C3052 H3039 0.961 . S
C3052 H3040 0.959 . S
C3052 C3050 1.561 . S
C3053 C3050 1.526 . S
C3053 C3054 1.396 1_556 S
C3053 C3058 1.390 . S
C3054 C3048 1.465 . S
C3054 C3053 1.396 1_554 S
C3054 C3055 1.399 . S
C3055 H3041 0.929 . S
C3055 C3054 1.399 . S
C3055 C3056 1.385 1_554 S
C3056 H3042 0.931 . S
C3056 C3055 1.385 1_556 S
C3056 C3057 1.389 . S
C3057 C3056 1.389 . S
C3057 C3058 1.387 . S
C3058 H3043 0.930 . S
C3058 C3053 1.390 . S
C3058 C3057 1.387 . S
H3059 C3071 0.930 . S
H3060 C3073 0.930 . S
H3061 C3074 0.930 . S
H3062 C3078 0.959 . S
H3063 C3078 0.959 . S
H3064 C3078 0.961 . S
H3065 C3079 0.960 . S
H3066 C3079 0.961 . S
H3067 C3079 0.959 . S
H3068 C3082 0.929 . S
H3069 C3083 0.931 . S
H3070 C3085 0.930 . S
C3071 H3059 0.930 . S
C3071 C3072 1.399 . S
C3071 C3076 1.399 . S
C3072 C3071 1.399 . S
C3072 C3073 1.376 . S
C3073 H3060 0.930 . S
C3073 C3072 1.376 . S
C3073 C3074 1.388 . S
C3074 H3061 0.930 . S
C3074 C3073 1.388 . S
C3074 C3075 1.390 . S
C3075 C3074 1.390 . S
C3075 C3076 1.394 . S
C3075 C3081 1.465 . S
C3076 C3071 1.399 . S
C3076 C3075 1.394 . S
C3076 C3077 1.516 . S
C3077 C3076 1.516 . S
C3077 C3078 1.502 . S
C3077 C3079 1.561 . S
C3077 C3080 1.526 . S
C3078 H3062 0.959 . S
C3078 H3063 0.959 . S
C3078 H3064 0.961 . S
C3078 C3077 1.502 . S
C3079 H3065 0.960 . S
C3079 H3066 0.961 . S
C3079 H3067 0.959 . S
C3079 C3077 1.561 . S
C3080 C3077 1.526 . S
C3080 C3081 1.396 . S
C3080 C3085 1.390 . S
C3081 C3075 1.465 . S
C3081 C3080 1.396 . S
C3081 C3082 1.399 . S
C3082 H3068 0.929 . S
C3082 C3081 1.399 . S
C3082 C3083 1.385 . S
C3083 H3069 0.931 . S
C3083 C3082 1.385 . S
C3083 C3084 1.389 . S
C3084 C3083 1.389 . S
C3084 C3085 1.387 . S
C3085 H3070 0.930 . S
C3085 C3080 1.390 . S
C3085 C3084 1.387 . S
H3086 C3098 0.930 . S
H3087 C3100 0.930 . S
H3088 C3101 0.930 . S
H3089 C3105 0.959 . S
H3090 C3105 0.959 . S
H3091 C3105 0.961 1_455 S
H3092 C3106 0.960 . S
H3093 C3106 0.961 . S
H3094 C3106 0.959 . S
H3095 C3109 0.929 . S
H3096 C3110 0.931 . S
H3097 C3112 0.930 . S
C3098 H3086 0.930 . S
C3098 C3099 1.399 . S
C3098 C3103 1.399 . S
C3099 C3098 1.399 . S
C3099 C3100 1.376 . S
C3100 H3087 0.930 . S
C3100 C3099 1.376 . S
C3100 C3101 1.388 . S
C3101 H3088 0.930 . S
C3101 C3100 1.388 . S
C3101 C3102 1.390 . S
C3102 C3101 1.390 . S
C3102 C3103 1.394 . S
C3102 C3108 1.465 1_455 S
C3103 C3098 1.399 . S
C3103 C3102 1.394 . S
C3103 C3104 1.516 . S
C3104 C3103 1.516 . S
C3104 C3105 1.502 1_455 S
C3104 C3106 1.561 . S
C3104 C3107 1.526 1_455 S
C3105 H3089 0.959 . S
C3105 H3090 0.959 . S
C3105 H3091 0.961 1_655 S
C3105 C3104 1.502 1_655 S
C3106 H3092 0.960 . S
C3106 H3093 0.961 . S
C3106 H3094 0.959 . S
C3106 C3104 1.561 . S
C3107 C3104 1.526 1_655 S
C3107 C3108 1.396 . S
C3107 C3112 1.390 . S
C3108 C3102 1.465 1_655 S
C3108 C3107 1.396 . S
C3108 C3109 1.399 . S
C3109 H3095 0.929 . S
C3109 C3108 1.399 . S
C3109 C3110 1.385 . S
C3110 H3096 0.931 . S
C3110 C3109 1.385 . S
C3110 C3111 1.389 . S
C3111 C3110 1.389 . S
C3111 C3112 1.387 . S
C3112 H3097 0.930 . S
C3112 C3107 1.390 . S
C3112 C3111 1.387 . S
H3113 C3125 0.930 . S
H3114 C3127 0.930 . S
H3115 C3128 0.930 . S
H3116 C3132 0.959 . S
H3117 C3132 0.959 . S
H3118 C3132 0.961 . S
H3119 C3133 0.960 . S
H3120 C3133 0.961 . S
H3121 C3133 0.959 . S
H3122 C3136 0.929 . S
H3123 C3137 0.931 . S
H3124 C3139 0.930 . S
C3125 H3113 0.930 . S
C3125 C3126 1.399 . S
C3125 C3130 1.399 . S
C3126 C3125 1.399 . S
C3126 C3127 1.376 . S
C3127 H3114 0.930 . S
C3127 C3126 1.376 . S
C3127 C3128 1.388 . S
C3128 H3115 0.930 . S
C3128 C3127 1.388 . S
C3128 C3129 1.390 . S
C3129 C3128 1.390 . S
C3129 C3130 1.394 . S
C3129 C3135 1.465 . S
C3130 C3125 1.399 . S
C3130 C3129 1.394 . S
C3130 C3131 1.516 . S
C3131 C3130 1.516 . S
C3131 C3132 1.502 . S
C3131 C3133 1.561 . S
C3131 C3134 1.526 . S
C3132 H3116 0.959 . S
C3132 H3117 0.959 . S
C3132 H3118 0.961 . S
C3132 C3131 1.502 . S
C3133 H3119 0.960 . S
C3133 H3120 0.961 . S
C3133 H3121 0.959 . S
C3133 C3131 1.561 . S
C3134 C3131 1.526 . S
C3134 C3135 1.396 . S
C3134 C3139 1.390 . S
C3135 C3129 1.465 . S
C3135 C3134 1.396 . S
C3135 C3136 1.399 . S
C3136 H3122 0.929 . S
C3136 C3135 1.399 . S
C3136 C3137 1.385 . S
C3137 H3123 0.931 . S
C3137 C3136 1.385 . S
C3137 C3138 1.389 . S
C3138 C3137 1.389 . S
C3138 C3139 1.387 . S
C3139 H3124 0.930 . S
C3139 C3134 1.390 . S
C3139 C3138 1.387 . S
H3140 C3152 0.930 . S
H3141 C3154 0.930 . S
H3142 C3155 0.930 . S
H3143 C3159 0.959 . S
H3144 C3159 0.959 . S
H3145 C3159 0.961 . S
H3146 C3160 0.960 . S
H3147 C3160 0.961 . S
H3148 C3160 0.959 . S
H3149 C3163 0.929 . S
H3150 C3164 0.931 . S
H3151 C3166 0.930 . S
C3152 H3140 0.930 . S
C3152 C3153 1.399 . S
C3152 C3157 1.399 . S
C3153 C3152 1.399 . S
C3153 C3154 1.376 . S
C3154 H3141 0.930 . S
C3154 C3153 1.376 . S
C3154 C3155 1.388 . S
C3155 H3142 0.930 . S
C3155 C3154 1.388 . S
C3155 C3156 1.390 . S
C3156 C3155 1.390 . S
C3156 C3157 1.394 . S
C3156 C3162 1.465 . S
C3157 C3152 1.399 . S
C3157 C3156 1.394 . S
C3157 C3158 1.516 . S
C3158 C3157 1.516 . S
C3158 C3159 1.502 . S
C3158 C3160 1.561 . S
C3158 C3161 1.526 . S
C3159 H3143 0.959 . S
C3159 H3144 0.959 . S
C3159 H3145 0.961 . S
C3159 C3158 1.502 . S
C3160 H3146 0.960 . S
C3160 H3147 0.961 . S
C3160 H3148 0.959 . S
C3160 C3158 1.561 . S
C3161 C3158 1.526 . S
C3161 C3162 1.396 . S
C3161 C3166 1.390 . S
C3162 C3156 1.465 . S
C3162 C3161 1.396 . S
C3162 C3163 1.399 . S
C3163 H3149 0.929 . S
C3163 C3162 1.399 . S
C3163 C3164 1.385 . S
C3164 H3150 0.931 . S
C3164 C3163 1.385 . S
C3164 C3165 1.389 . S
C3165 C3164 1.389 . S
C3165 C3166 1.387 . S
C3166 H3151 0.930 . S
C3166 C3161 1.390 . S
C3166 C3165 1.387 . S
H3167 C3179 0.930 . S
H3168 C3181 0.930 . S
H3169 C3182 0.930 . S
H3170 C3186 0.959 . S
H3171 C3186 0.959 . S
H3172 C3186 0.961 . S
H3173 C3187 0.960 . S
H3174 C3187 0.961 . S
H3175 C3187 0.959 . S
H3176 C3190 0.929 . S
H3177 C3191 0.931 . S
H3178 C3193 0.930 . S
C3179 H3167 0.930 . S
C3179 C3180 1.399 . S
C3179 C3184 1.399 . S
C3180 C3179 1.399 . S
C3180 C3181 1.376 . S
C3181 H3168 0.930 . S
C3181 C3180 1.376 . S
C3181 C3182 1.388 . S
C3182 H3169 0.930 . S
C3182 C3181 1.388 . S
C3182 C3183 1.390 . S
C3183 C3182 1.390 . S
C3183 C3184 1.394 . S
C3183 C3189 1.465 . S
C3184 C3179 1.399 . S
C3184 C3183 1.394 . S
C3184 C3185 1.516 . S
C3185 C3184 1.516 . S
C3185 C3186 1.502 . S
C3185 C3187 1.561 . S
C3185 C3188 1.526 . S
C3186 H3170 0.959 . S
C3186 H3171 0.959 . S
C3186 H3172 0.961 . S
C3186 C3185 1.502 . S
C3187 H3173 0.960 . S
C3187 H3174 0.961 . S
C3187 H3175 0.959 . S
C3187 C3185 1.561 . S
C3188 C3185 1.526 . S
C3188 C3189 1.396 . S
C3188 C3193 1.390 . S
C3189 C3183 1.465 . S
C3189 C3188 1.396 . S
C3189 C3190 1.399 . S
C3190 H3176 0.929 . S
C3190 C3189 1.399 . S
C3190 C3191 1.385 . S
C3191 H3177 0.931 . S
C3191 C3190 1.385 . S
C3191 C3192 1.389 . S
C3192 C3191 1.389 . S
C3192 C3193 1.387 . S
C3193 H3178 0.930 . S
C3193 C3188 1.390 . S
C3193 C3192 1.387 . S
H3194 C3206 0.930 . S
H3195 C3208 0.930 . S
H3196 C3209 0.930 . S
H3197 C3213 0.959 . S
H3198 C3213 0.959 . S
H3199 C3213 0.961 . S
H3200 C3214 0.960 . S
H3201 C3214 0.961 . S
H3202 C3214 0.959 . S
H3203 C3217 0.929 . S
H3204 C3218 0.931 . S
H3205 C3220 0.930 . S
C3206 H3194 0.930 . S
C3206 C3207 1.399 . S
C3206 C3211 1.399 . S
C3207 C3206 1.399 . S
C3207 C3208 1.376 . S
C3208 H3195 0.930 . S
C3208 C3207 1.376 . S
C3208 C3209 1.388 . S
C3209 H3196 0.930 . S
C3209 C3208 1.388 . S
C3209 C3210 1.390 . S
C3210 C3209 1.390 . S
C3210 C3211 1.394 . S
C3210 C3216 1.465 . S
C3211 C3206 1.399 . S
C3211 C3210 1.394 . S
C3211 C3212 1.516 . S
C3212 C3211 1.516 . S
C3212 C3213 1.502 . S
C3212 C3214 1.561 . S
C3212 C3215 1.526 . S
C3213 H3197 0.959 . S
C3213 H3198 0.959 . S
C3213 H3199 0.961 . S
C3213 C3212 1.502 . S
C3214 H3200 0.960 . S
C3214 H3201 0.961 . S
C3214 H3202 0.959 . S
C3214 C3212 1.561 . S
C3215 C3212 1.526 . S
C3215 C3216 1.396 . S
C3215 C3220 1.390 . S
C3216 C3210 1.465 . S
C3216 C3215 1.396 . S
C3216 C3217 1.399 . S
C3217 H3203 0.929 . S
C3217 C3216 1.399 . S
C3217 C3218 1.385 . S
C3218 H3204 0.931 . S
C3218 C3217 1.385 . S
C3218 C3219 1.389 . S
C3219 C3218 1.389 . S
C3219 C3220 1.387 . S
C3220 H3205 0.930 . S
C3220 C3215 1.390 . S
C3220 C3219 1.387 . S
H3221 C3233 0.930 . S
H3222 C3235 0.930 . S
H3223 C3236 0.930 . S
H3224 C3240 0.959 . S
H3225 C3240 0.959 . S
H3226 C3240 0.961 . S
H3227 C3241 0.960 . S
H3228 C3241 0.961 . S
H3229 C3241 0.959 1_455 S
H3230 C3244 0.929 . S
H3231 C3245 0.931 . S
H3232 C3247 0.930 . S
C3233 H3221 0.930 . S
C3233 C3234 1.399 . S
C3233 C3238 1.399 . S
C3234 C3233 1.399 . S
C3234 C3235 1.376 . S
C3235 H3222 0.930 . S
C3235 C3234 1.376 . S
C3235 C3236 1.388 1_556 S
C3236 H3223 0.930 . S
C3236 C3235 1.388 1_554 S
C3236 C3237 1.399 . S
C3237 C3236 1.399 . S
C3237 C3238 1.355 1_554 S
C3237 C3243 1.517 . S
C3238 C3233 1.399 . S
C3238 C3237 1.355 1_556 S
C3238 C3239 1.516 1_455 S
C3239 C3238 1.516 1_655 S
C3239 C3240 1.502 . S
C3239 C3241 1.561 . S
C3239 C3242 1.526 1_556 S
C3240 H3224 0.959 . S
C3240 H3225 0.959 . S
C3240 H3226 0.961 . S
C3240 C3239 1.502 . S
C3241 H3227 0.960 . S
C3241 H3228 0.961 . S
C3241 H3229 0.959 1_655 S
C3241 C3239 1.561 . S
C3242 C3239 1.526 1_554 S
C3242 C3243 1.361 1_655 S
C3242 C3247 1.390 . S
C3243 C3237 1.517 . S
C3243 C3242 1.361 1_455 S
C3243 C3244 1.403 . S
C3244 H3230 0.929 . S
C3244 C3243 1.403 . S
C3244 C3245 1.385 1_455 S
C3245 H3231 0.931 . S
C3245 C3244 1.385 1_655 S
C3245 C3246 1.389 . S
C3246 C3245 1.389 . S
C3246 C3247 1.387 . S
C3247 H3232 0.930 . S
C3247 C3242 1.390 . S
C3247 C3246 1.387 . S
H3248 C3260 0.930 . S
H3249 C3262 0.930 . S
H3250 C3263 0.930 . S
H3251 C3267 0.959 . S
H3252 C3267 0.959 . S
H3253 C3267 0.961 . S
H3254 C3268 0.960 . S
H3255 C3268 0.961 . S
H3256 C3268 0.959 . S
H3257 C3271 0.929 1_545 S
H3258 C3272 0.931 . S
H3259 C3274 0.930 . S
C3260 H3248 0.930 . S
C3260 C3261 1.399 . S
C3260 C3265 1.399 1_545 S
C3261 C3260 1.399 . S
C3261 C3262 1.376 . S
C3262 H3249 0.930 . S
C3262 C3261 1.376 . S
C3262 C3263 1.388 . S
C3263 H3250 0.930 . S
C3263 C3262 1.388 . S
C3263 C3264 1.390 . S
C3264 C3263 1.390 . S
C3264 C3265 1.394 1_545 S
C3264 C3270 1.465 1_545 S
C3265 C3260 1.399 1_565 S
C3265 C3264 1.394 1_565 S
C3265 C3266 1.516 . S
C3266 C3265 1.516 . S
C3266 C3267 1.502 . S
C3266 C3268 1.561 . S
C3266 C3269 1.526 . S
C3267 H3251 0.959 . S
C3267 H3252 0.959 . S
C3267 H3253 0.961 . S
C3267 C3266 1.502 . S
C3268 H3254 0.960 . S
C3268 H3255 0.961 . S
C3268 H3256 0.959 . S
C3268 C3266 1.561 . S
C3269 C3266 1.526 . S
C3269 C3270 1.396 . S
C3269 C3274 1.390 . S
C3270 C3264 1.465 1_565 S
C3270 C3269 1.396 . S
C3270 C3271 1.399 . S
C3271 H3257 0.929 1_565 S
C3271 C3270 1.399 . S
C3271 C3272 1.385 . S
C3272 H3258 0.931 . S
C3272 C3271 1.385 . S
C3272 C3273 1.389 . S
C3273 C3272 1.389 . S
C3273 C3274 1.387 . S
C3274 H3259 0.930 . S
C3274 C3269 1.390 . S
C3274 C3273 1.387 . S
H3275 C3287 0.930 . S
H3276 C3289 0.930 . S
H3277 C3290 0.930 . S
H3278 C3294 0.959 . S
H3279 C3294 0.959 . S
H3280 C3294 0.961 . S
H3281 C3295 0.960 . S
H3282 C3295 0.961 . S
H3283 C3295 0.959 . S
H3284 C3298 0.929 . S
H3285 C3299 0.931 . S
H3286 C3301 0.930 . S
C3287 H3275 0.930 . S
C3287 C3288 1.399 . S
C3287 C3292 1.399 . S
C3288 C3287 1.399 . S
C3288 C3289 1.376 . S
C3289 H3276 0.930 . S
C3289 C3288 1.376 . S
C3289 C3290 1.388 . S
C3290 H3277 0.930 . S
C3290 C3289 1.388 . S
C3290 C3291 1.390 . S
C3291 C3290 1.390 . S
C3291 C3292 1.394 . S
C3291 C3297 1.465 . S
C3292 C3287 1.399 . S
C3292 C3291 1.394 . S
C3292 C3293 1.516 . S
C3293 C3292 1.516 . S
C3293 C3294 1.502 . S
C3293 C3295 1.561 . S
C3293 C3296 1.526 . S
C3294 H3278 0.959 . S
C3294 H3279 0.959 . S
C3294 H3280 0.961 . S
C3294 C3293 1.502 . S
C3295 H3281 0.960 . S
C3295 H3282 0.961 . S
C3295 H3283 0.959 . S
C3295 C3293 1.561 . S
C3296 C3293 1.526 . S
C3296 C3297 1.396 . S
C3296 C3301 1.390 . S
C3297 C3291 1.465 . S
C3297 C3296 1.396 . S
C3297 C3298 1.399 . S
C3298 H3284 0.929 . S
C3298 C3297 1.399 . S
C3298 C3299 1.385 . S
C3299 H3285 0.931 . S
C3299 C3298 1.385 . S
C3299 C3300 1.389 . S
C3300 C3299 1.389 . S
C3300 C3301 1.387 . S
C3301 H3286 0.930 . S
C3301 C3296 1.390 . S
C3301 C3300 1.387 . S
H3302 C3314 0.930 . S
H3303 C3316 0.930 . S
H3304 C3317 0.930 1_565 S
H3305 C3321 0.959 . S
H3306 C3321 0.959 . S
H3307 C3321 0.961 . S
H3308 C3322 0.960 . S
H3309 C3322 0.961 . S
H3310 C3322 0.959 . S
H3311 C3325 0.929 . S
H3312 C3326 0.931 . S
H3313 C3328 0.930 . S
C3314 H3302 0.930 . S
C3314 C3315 1.399 . S
C3314 C3319 1.399 . S
C3315 C3314 1.399 . S
C3315 C3316 1.376 . S
C3316 H3303 0.930 . S
C3316 C3315 1.376 . S
C3316 C3317 1.388 . S
C3317 H3304 0.930 1_545 S
C3317 C3316 1.388 . S
C3317 C3318 1.390 . S
C3318 C3317 1.390 . S
C3318 C3319 1.394 . S
C3318 C3324 1.465 1_545 S
C3319 C3314 1.399 . S
C3319 C3318 1.394 . S
C3319 C3320 1.516 . S
C3320 C3319 1.516 . S
C3320 C3321 1.502 . S
C3320 C3322 1.561 . S
C3320 C3323 1.526 . S
C3321 H3305 0.959 . S
C3321 H3306 0.959 . S
C3321 H3307 0.961 . S
C3321 C3320 1.502 . S
C3322 H3308 0.960 . S
C3322 H3309 0.961 . S
C3322 H3310 0.959 . S
C3322 C3320 1.561 . S
C3323 C3320 1.526 . S
C3323 C3324 1.396 1_545 S
C3323 C3328 1.390 1_545 S
C3324 C3318 1.465 1_565 S
C3324 C3323 1.396 1_565 S
C3324 C3325 1.399 . S
C3325 H3311 0.929 . S
C3325 C3324 1.399 . S
C3325 C3326 1.385 . S
C3326 H3312 0.931 . S
C3326 C3325 1.385 . S
C3326 C3327 1.389 . S
C3327 C3326 1.389 . S
C3327 C3328 1.387 . S
C3328 H3313 0.930 . S
C3328 C3323 1.390 1_565 S
C3328 C3327 1.387 . S
H3329 C3341 0.930 . S
H3330 C3343 0.930 . S
H3331 C3344 0.930 . S
H3332 C3348 0.959 . S
H3333 C3348 0.959 1_554 S
H3334 C3348 0.961 . S
H3335 C3349 0.960 . S
H3336 C3349 0.961 . S
H3337 C3349 0.959 . S
H3338 C3352 0.929 1_556 S
H3339 C3353 0.931 . S
H3340 C3355 0.930 . S
C3341 H3329 0.930 . S
C3341 C3342 1.399 . S
C3341 C3346 1.399 . S
C3342 C3341 1.399 . S
C3342 C3343 1.376 . S
C3343 H3330 0.930 . S
C3343 C3342 1.376 . S
C3343 C3344 1.388 . S
C3344 H3331 0.930 . S
C3344 C3343 1.388 . S
C3344 C3345 1.390 . S
C3345 C3344 1.390 . S
C3345 C3346 1.394 . S
C3345 C3351 1.465 . S
C3346 C3341 1.399 . S
C3346 C3345 1.394 . S
C3346 C3347 1.516 . S
C3347 C3346 1.516 . S
C3347 C3348 1.502 . S
C3347 C3349 1.561 1_556 S
C3347 C3350 1.526 1_556 S
C3348 H3332 0.959 . S
C3348 H3333 0.959 1_556 S
C3348 H3334 0.961 . S
C3348 C3347 1.502 . S
C3349 H3335 0.960 . S
C3349 H3336 0.961 . S
C3349 H3337 0.959 . S
C3349 C3347 1.561 1_554 S
C3350 C3347 1.526 1_554 S
C3350 C3351 1.396 1_554 S
C3350 C3355 1.390 . S
C3351 C3345 1.465 . S
C3351 C3350 1.396 1_556 S
C3351 C3352 1.399 1_556 S
C3352 H3338 0.929 1_554 S
C3352 C3351 1.399 1_554 S
C3352 C3353 1.385 . S
C3353 H3339 0.931 . S
C3353 C3352 1.385 . S
C3353 C3354 1.389 . S
C3354 C3353 1.389 . S
C3354 C3355 1.387 . S
C3355 H3340 0.930 . S
C3355 C3350 1.390 . S
C3355 C3354 1.387 . S
H3356 C3368 0.930 . S
H3357 C3370 0.930 . S
H3358 C3371 0.930 . S
H3359 C3375 0.959 . S
H3360 C3375 0.959 . S
H3361 C3375 0.961 . S
H3362 C3376 0.960 1_545 S
H3363 C3376 0.961 . S
H3364 C3376 0.959 1_545 S
H3365 C3379 0.929 . S
H3366 C3380 0.931 . S
H3367 C3382 0.930 . S
C3368 H3356 0.930 . S
C3368 C3369 1.399 . S
C3368 C3373 1.399 . S
C3369 C3368 1.399 . S
C3369 C3370 1.376 . S
C3370 H3357 0.930 . S
C3370 C3369 1.376 . S
C3370 C3371 1.388 . S
C3371 H3358 0.930 . S
C3371 C3370 1.388 . S
C3371 C3372 1.390 . S
C3372 C3371 1.390 . S
C3372 C3373 1.394 . S
C3372 C3378 1.465 . S
C3373 C3368 1.399 . S
C3373 C3372 1.394 . S
C3373 C3374 1.516 1_545 S
C3374 C3373 1.516 1_565 S
C3374 C3375 1.502 . S
C3374 C3376 1.561 . S
C3374 C3377 1.526 . S
C3375 H3359 0.959 . S
C3375 H3360 0.959 . S
C3375 H3361 0.961 . S
C3375 C3374 1.502 . S
C3376 H3362 0.960 1_565 S
C3376 H3363 0.961 . S
C3376 H3364 0.959 1_565 S
C3376 C3374 1.561 . S
C3377 C3374 1.526 . S
C3377 C3378 1.396 1_565 S
C3377 C3382 1.390 . S
C3378 C3372 1.465 . S
C3378 C3377 1.396 1_545 S
C3378 C3379 1.399 . S
C3379 H3365 0.929 . S
C3379 C3378 1.399 . S
C3379 C3380 1.385 1_545 S
C3380 H3366 0.931 . S
C3380 C3379 1.385 1_565 S
C3380 C3381 1.389 . S
C3381 C3380 1.389 . S
C3381 C3382 1.387 . S
C3382 H3367 0.930 . S
C3382 C3377 1.390 . S
C3382 C3381 1.387 . S
H3383 C3395 0.930 . S
H3384 C3397 0.930 . S
H3385 C3398 0.930 . S
H3386 C3402 0.959 . S
H3387 C3402 0.959 . S
H3388 C3402 0.961 . S
H3389 C3403 0.960 . S
H3390 C3403 0.961 . S
H3391 C3403 0.959 . S
H3392 C3406 0.929 . S
H3393 C3407 0.931 . S
H3394 C3409 0.930 . S
C3395 H3383 0.930 . S
C3395 C3396 1.399 . S
C3395 C3400 1.399 . S
C3396 C3395 1.399 . S
C3396 C3397 1.376 . S
C3397 H3384 0.930 . S
C3397 C3396 1.376 . S
C3397 C3398 1.388 . S
C3398 H3385 0.930 . S
C3398 C3397 1.388 . S
C3398 C3399 1.390 . S
C3399 C3398 1.390 . S
C3399 C3400 1.394 . S
C3399 C3405 1.465 . S
C3400 C3395 1.399 . S
C3400 C3399 1.394 . S
C3400 C3401 1.516 . S
C3401 C3400 1.516 . S
C3401 C3402 1.502 . S
C3401 C3403 1.561 . S
C3401 C3404 1.526 . S
C3402 H3386 0.959 . S
C3402 H3387 0.959 . S
C3402 H3388 0.961 . S
C3402 C3401 1.502 . S
C3403 H3389 0.960 . S
C3403 H3390 0.961 . S
C3403 H3391 0.959 . S
C3403 C3401 1.561 . S
C3404 C3401 1.526 . S
C3404 C3405 1.396 . S
C3404 C3409 1.390 . S
C3405 C3399 1.465 . S
C3405 C3404 1.396 . S
C3405 C3406 1.399 . S
C3406 H3392 0.929 . S
C3406 C3405 1.399 . S
C3406 C3407 1.385 . S
C3407 H3393 0.931 . S
C3407 C3406 1.385 . S
C3407 C3408 1.389 . S
C3408 C3407 1.389 . S
C3408 C3409 1.387 . S
C3409 H3394 0.930 . S
C3409 C3404 1.390 . S
C3409 C3408 1.387 . S
H3410 C3422 0.930 . S
H3411 C3424 0.930 . S
H3412 C3425 0.930 . S
H3413 C3429 0.940 1_565 S
H3414 C3429 0.959 . S
H3415 C3429 0.961 . S
H3416 C3430 0.960 . S
H3417 C3430 0.961 . S
H3418 C3430 0.959 . S
H3419 C3433 0.929 . S
H3420 C3434 0.931 . S
H3421 C3436 0.930 . S
C3422 H3410 0.930 . S
C3422 C3423 1.399 . S
C3422 C3427 1.399 . S
C3423 C3422 1.399 . S
C3423 C3424 1.376 . S
C3424 H3411 0.930 . S
C3424 C3423 1.376 . S
C3424 C3425 1.388 1_545 S
C3425 H3412 0.930 . S
C3425 C3424 1.388 1_565 S
C3425 C3426 1.390 . S
C3426 C3425 1.390 . S
C3426 C3427 1.394 1_565 S
C3426 C3432 1.465 . S
C3427 C3422 1.399 . S
C3427 C3426 1.394 1_545 S
C3427 C3428 1.516 . S
C3428 C3427 1.516 . S
C3428 C3429 1.502 . S
C3428 C3430 1.561 . S
C3428 C3431 1.526 1_545 S
C3429 H3413 0.940 1_545 S
C3429 H3414 0.959 . S
C3429 H3415 0.961 . S
C3429 C3428 1.502 . S
C3430 H3416 0.960 . S
C3430 H3417 0.961 . S
C3430 H3418 0.959 . S
C3430 C3428 1.561 . S
C3431 C3428 1.526 1_565 S
C3431 C3432 1.396 . S
C3431 C3436 1.390 . S
C3432 C3426 1.465 . S
C3432 C3431 1.396 . S
C3432 C3433 1.399 . S
C3433 H3419 0.929 . S
C3433 C3432 1.399 . S
C3433 C3434 1.385 . S
C3434 H3420 0.931 . S
C3434 C3433 1.385 . S
C3434 C3435 1.389 . S
C3435 C3434 1.389 . S
C3435 C3436 1.387 . S
C3436 H3421 0.930 . S
C3436 C3431 1.390 . S
C3436 C3435 1.387 . S
H3437 C3449 0.930 . S
H3438 C3451 0.930 . S
H3439 C3452 0.919 1_554 S
H3440 C3456 0.959 . S
H3441 C3456 0.959 . S
H3442 C3456 0.961 . S
H3443 C3457 0.960 . S
H3444 C3457 0.961 . S
H3445 C3457 0.959 . S
H3446 C3460 0.929 . S
H3447 C3461 0.931 . S
H3448 C3463 0.930 . S
C3449 H3437 0.930 . S
C3449 C3450 1.399 . S
C3449 C3454 1.399 . S
C3450 C3449 1.399 . S
C3450 C3451 1.376 . S
C3451 H3438 0.930 . S
C3451 C3450 1.376 . S
C3451 C3452 1.406 . S
C3452 H3439 0.919 1_556 S
C3452 C3451 1.406 . S
C3452 C3453 1.384 1_556 S
C3453 C3452 1.384 1_554 S
C3453 C3454 1.394 1_554 S
C3453 C3459 1.465 . S
C3454 C3449 1.399 . S
C3454 C3453 1.394 1_556 S
C3454 C3455 1.516 1_556 S
C3455 C3454 1.516 1_554 S
C3455 C3456 1.502 1_554 S
C3455 C3457 1.561 . S
C3455 C3458 1.526 . S
C3456 H3440 0.959 . S
C3456 H3441 0.959 . S
C3456 H3442 0.961 . S
C3456 C3455 1.502 1_556 S
C3457 H3443 0.960 . S
C3457 H3444 0.961 . S
C3457 H3445 0.959 . S
C3457 C3455 1.561 . S
C3458 C3455 1.526 . S
C3458 C3459 1.396 . S
C3458 C3463 1.390 . S
C3459 C3453 1.465 . S
C3459 C3458 1.396 . S
C3459 C3460 1.399 . S
C3460 H3446 0.929 . S
C3460 C3459 1.399 . S
C3460 C3461 1.385 . S
C3461 H3447 0.931 . S
C3461 C3460 1.385 . S
C3461 C3462 1.389 . S
C3462 C3461 1.389 . S
C3462 C3463 1.387 . S
C3463 H3448 0.930 . S
C3463 C3458 1.390 . S
C3463 C3462 1.387 . S
H3464 C3476 0.930 . S
H3465 C3478 0.930 . S
H3466 C3479 0.930 . S
H3467 C3483 0.959 . S
H3468 C3483 0.959 . S
H3469 C3483 0.961 . S
H3470 C3484 0.957 . S
H3471 C3484 0.963 1_455 S
H3472 C3484 0.963 1_455 S
H3473 C3487 0.929 . S
H3474 C3488 0.931 . S
H3475 C3490 0.930 . S
C3476 H3464 0.930 . S
C3476 C3477 1.399 . S
C3476 C3481 1.399 . S
C3477 C3476 1.399 . S
C3477 C3478 1.376 . S
C3478 H3465 0.930 . S
C3478 C3477 1.376 . S
C3478 C3479 1.388 . S
C3479 H3466 0.930 . S
C3479 C3478 1.388 . S
C3479 C3480 1.390 . S
C3480 C3479 1.390 . S
C3480 C3481 1.394 . S
C3480 C3486 1.465 1_655 S
C3481 C3476 1.399 . S
C3481 C3480 1.394 . S
C3481 C3482 1.516 . S
C3482 C3481 1.516 . S
C3482 C3483 1.502 . S
C3482 C3484 1.558 . S
C3482 C3485 1.526 1_655 S
C3483 H3467 0.959 . S
C3483 H3468 0.959 . S
C3483 H3469 0.961 . S
C3483 C3482 1.502 . S
C3484 H3470 0.957 . S
C3484 H3471 0.963 1_655 S
C3484 H3472 0.963 1_655 S
C3484 C3482 1.558 . S
C3485 C3482 1.526 1_455 S
C3485 C3486 1.396 . S
C3485 C3490 1.390 . S
C3486 C3480 1.465 1_455 S
C3486 C3485 1.396 . S
C3486 C3487 1.399 . S
C3487 H3473 0.929 . S
C3487 C3486 1.399 . S
C3487 C3488 1.385 . S
C3488 H3474 0.931 . S
C3488 C3487 1.385 . S
C3488 C3489 1.389 . S
C3489 C3488 1.389 . S
C3489 C3490 1.387 . S
C3490 H3475 0.930 . S
C3490 C3485 1.390 . S
C3490 C3489 1.387 . S
H3491 C3503 0.930 . S
H3492 C3505 0.930 . S
H3493 C3506 0.930 . S
H3494 C3510 0.959 . S
H3495 C3510 0.959 . S
H3496 C3510 0.961 . S
H3497 C3511 0.960 . S
H3498 C3511 0.961 . S
H3499 C3511 0.959 . S
H3500 C3514 0.929 . S
H3501 C3515 0.931 . S
H3502 C3517 0.930 . S
C3503 H3491 0.930 . S
C3503 C3504 1.399 . S
C3503 C3508 1.399 . S
C3504 C3503 1.399 . S
C3504 C3505 1.376 . S
C3505 H3492 0.930 . S
C3505 C3504 1.376 . S
C3505 C3506 1.388 . S
C3506 H3493 0.930 . S
C3506 C3505 1.388 . S
C3506 C3507 1.390 . S
C3507 C3506 1.390 . S
C3507 C3508 1.394 . S
C3507 C3513 1.465 . S
C3508 C3503 1.399 . S
C3508 C3507 1.394 . S
C3508 C3509 1.516 . S
C3509 C3508 1.516 . S
C3509 C3510 1.502 . S
C3509 C3511 1.561 . S
C3509 C3512 1.526 . S
C3510 H3494 0.959 . S
C3510 H3495 0.959 . S
C3510 H3496 0.961 . S
C3510 C3509 1.502 . S
C3511 H3497 0.960 . S
C3511 H3498 0.961 . S
C3511 H3499 0.959 . S
C3511 C3509 1.561 . S
C3512 C3509 1.526 . S
C3512 C3513 1.396 . S
C3512 C3517 1.390 . S
C3513 C3507 1.465 . S
C3513 C3512 1.396 . S
C3513 C3514 1.399 . S
C3514 H3500 0.929 . S
C3514 C3513 1.399 . S
C3514 C3515 1.385 . S
C3515 H3501 0.931 . S
C3515 C3514 1.385 . S
C3515 C3516 1.389 . S
C3516 C3515 1.389 . S
C3516 C3517 1.387 . S
C3517 H3502 0.930 . S
C3517 C3512 1.390 . S
C3517 C3516 1.387 . S
H3518 C3530 0.930 . S
H3519 C3532 0.930 . S
H3520 C3533 0.930 . S
H3521 C3537 0.959 . S
H3522 C3537 0.959 . S
H3523 C3537 0.961 . S
H3524 C3538 0.960 . S
H3525 C3538 0.961 . S
H3526 C3538 0.934 1_655 S
H3527 C3541 0.929 . S
H3528 C3542 0.931 . S
H3529 C3544 0.930 . S
C3530 H3518 0.930 . S
C3530 C3531 1.399 . S
C3530 C3535 1.411 . S
C3531 C3530 1.399 . S
C3531 C3532 1.376 . S
C3532 H3519 0.930 . S
C3532 C3531 1.376 . S
C3532 C3533 1.388 . S
C3533 H3520 0.930 . S
C3533 C3532 1.388 . S
C3533 C3534 1.390 . S
C3534 C3533 1.390 . S
C3534 C3535 1.397 . S
C3534 C3540 1.465 1_655 S
C3535 C3530 1.411 . S
C3535 C3534 1.397 . S
C3535 C3536 1.501 1_655 S
C3536 C3535 1.501 1_455 S
C3536 C3537 1.502 . S
C3536 C3538 1.561 . S
C3536 C3539 1.526 . S
C3537 H3521 0.959 . S
C3537 H3522 0.959 . S
C3537 H3523 0.961 . S
C3537 C3536 1.502 . S
C3538 H3524 0.960 . S
C3538 H3525 0.961 . S
C3538 H3526 0.934 1_455 S
C3538 C3536 1.561 . S
C3539 C3536 1.526 . S
C3539 C3540 1.396 . S
C3539 C3544 1.390 . S
C3540 C3534 1.465 1_455 S
C3540 C3539 1.396 . S
C3540 C3541 1.399 . S
C3541 H3527 0.929 . S
C3541 C3540 1.399 . S
C3541 C3542 1.385 . S
C3542 H3528 0.931 . S
C3542 C3541 1.385 . S
C3542 C3543 1.389 . S
C3543 C3542 1.389 . S
C3543 C3544 1.387 . S
C3544 H3529 0.930 . S
C3544 C3539 1.390 . S
C3544 C3543 1.387 . S
H3545 C3557 0.930 . S
H3546 C3559 0.930 . S
H3547 C3560 0.930 . S
H3548 C3564 0.959 . S
H3549 C3564 0.959 . S
H3550 C3564 0.961 . S
H3551 C3565 0.960 . S
H3552 C3565 0.961 . S
H3553 C3565 0.959 . S
H3554 C3568 0.929 . S
H3555 C3569 0.931 . S
H3556 C3571 0.930 . S
C3557 H3545 0.930 . S
C3557 C3558 1.399 . S
C3557 C3562 1.399 . S
C3558 C3557 1.399 . S
C3558 C3559 1.376 . S
C3559 H3546 0.930 . S
C3559 C3558 1.376 . S
C3559 C3560 1.388 1_655 S
C3560 H3547 0.930 . S
C3560 C3559 1.388 1_455 S
C3560 C3561 1.390 . S
C3561 C3560 1.390 . S
C3561 C3562 1.394 1_455 S
C3561 C3567 1.465 . S
C3562 C3557 1.399 . S
C3562 C3561 1.394 1_655 S
C3562 C3563 1.516 1_655 S
C3563 C3562 1.516 1_455 S
C3563 C3564 1.502 1_455 S
C3563 C3565 1.561 . S
C3563 C3566 1.526 . S
C3564 H3548 0.959 . S
C3564 H3549 0.959 . S
C3564 H3550 0.961 . S
C3564 C3563 1.502 1_655 S
C3565 H3551 0.960 . S
C3565 H3552 0.961 . S
C3565 H3553 0.959 . S
C3565 C3563 1.561 . S
C3566 C3563 1.526 . S
C3566 C3567 1.396 . S
C3566 C3571 1.390 . S
C3567 C3561 1.465 . S
C3567 C3566 1.396 . S
C3567 C3568 1.399 . S
C3568 H3554 0.929 . S
C3568 C3567 1.399 . S
C3568 C3569 1.385 . S
C3569 H3555 0.931 . S
C3569 C3568 1.385 . S
C3569 C3570 1.389 . S
C3570 C3569 1.389 . S
C3570 C3571 1.387 . S
C3571 H3556 0.930 . S
C3571 C3566 1.390 . S
C3571 C3570 1.387 . S
H3572 C3584 0.930 . S
H3573 C3586 0.930 . S
H3574 C3587 0.930 . S
H3575 C3591 0.959 . S
H3576 C3591 0.959 . S
H3577 C3591 0.961 . S
H3578 C3592 0.960 . S
H3579 C3592 0.961 . S
H3580 C3592 0.959 . S
H3581 C3595 0.929 . S
H3582 C3596 0.931 . S
H3583 C3598 0.930 . S
C3584 H3572 0.930 . S
C3584 C3585 1.399 . S
C3584 C3589 1.399 . S
C3585 C3584 1.399 . S
C3585 C3586 1.376 . S
C3586 H3573 0.930 . S
C3586 C3585 1.376 . S
C3586 C3587 1.388 . S
C3587 H3574 0.930 . S
C3587 C3586 1.388 . S
C3587 C3588 1.390 . S
C3588 C3587 1.390 . S
C3588 C3589 1.394 . S
C3588 C3594 1.465 . S
C3589 C3584 1.399 . S
C3589 C3588 1.394 . S
C3589 C3590 1.516 . S
C3590 C3589 1.516 . S
C3590 C3591 1.502 . S
C3590 C3592 1.561 . S
C3590 C3593 1.526 . S
C3591 H3575 0.959 . S
C3591 H3576 0.959 . S
C3591 H3577 0.961 . S
C3591 C3590 1.502 . S
C3592 H3578 0.960 . S
C3592 H3579 0.961 . S
C3592 H3580 0.959 . S
C3592 C3590 1.561 . S
C3593 C3590 1.526 . S
C3593 C3594 1.396 . S
C3593 C3598 1.390 . S
C3594 C3588 1.465 . S
C3594 C3593 1.396 . S
C3594 C3595 1.399 . S
C3595 H3581 0.929 . S
C3595 C3594 1.399 . S
C3595 C3596 1.385 . S
C3596 H3582 0.931 . S
C3596 C3595 1.385 . S
C3596 C3597 1.389 . S
C3597 C3596 1.389 . S
C3597 C3598 1.387 . S
C3598 H3583 0.930 . S
C3598 C3593 1.390 . S
C3598 C3597 1.387 . S
H3599 C3611 0.930 . S
H3600 C3613 0.930 . S
H3601 C3614 0.930 . S
H3602 C3618 0.959 . S
H3603 C3618 0.959 . S
H3604 C3618 0.961 . S
H3605 C3619 0.960 . S
H3606 C3619 0.961 . S
H3607 C3619 0.959 . S
H3608 C3622 0.929 . S
H3609 C3623 0.931 . S
H3610 C3625 0.930 . S
C3611 H3599 0.930 . S
C3611 C3612 1.399 . S
C3611 C3616 1.399 . S
C3612 C3611 1.399 . S
C3612 C3613 1.376 . S
C3613 H3600 0.930 . S
C3613 C3612 1.376 . S
C3613 C3614 1.388 . S
C3614 H3601 0.930 . S
C3614 C3613 1.388 . S
C3614 C3615 1.390 . S
C3615 C3614 1.390 . S
C3615 C3616 1.394 . S
C3615 C3621 1.439 1_655 S
C3616 C3611 1.399 . S
C3616 C3615 1.394 . S
C3616 C3617 1.516 . S
C3617 C3616 1.516 . S
C3617 C3618 1.502 . S
C3617 C3619 1.561 . S
C3617 C3620 1.526 . S
C3618 H3602 0.959 . S
C3618 H3603 0.959 . S
C3618 H3604 0.961 . S
C3618 C3617 1.502 . S
C3619 H3605 0.960 . S
C3619 H3606 0.961 . S
C3619 H3607 0.959 . S
C3619 C3617 1.561 . S
C3620 C3617 1.526 . S
C3620 C3621 1.393 1_655 S
C3620 C3625 1.390 1_655 S
C3621 C3615 1.439 1_455 S
C3621 C3620 1.393 1_455 S
C3621 C3622 1.425 . S
C3622 H3608 0.929 . S
C3622 C3621 1.425 . S
C3622 C3623 1.385 . S
C3623 H3609 0.931 . S
C3623 C3622 1.385 . S
C3623 C3624 1.389 . S
C3624 C3623 1.389 . S
C3624 C3625 1.387 . S
C3625 H3610 0.930 . S
C3625 C3620 1.390 1_455 S
C3625 C3624 1.387 . S
H3626 C3638 0.930 . S
H3627 C3640 0.930 . S
H3628 C3641 0.930 . S
H3629 C3645 0.959 . S
H3630 C3645 0.959 . S
H3631 C3645 0.961 . S
H3632 C3646 0.960 . S
H3633 C3646 0.961 . S
H3634 C3646 0.959 . S
H3635 C3649 0.929 . S
H3636 C3650 0.931 . S
H3637 C3652 0.930 . S
C3638 H3626 0.930 . S
C3638 C3639 1.399 . S
C3638 C3643 1.399 . S
C3639 C3638 1.399 . S
C3639 C3640 1.376 . S
C3640 H3627 0.930 . S
C3640 C3639 1.376 . S
C3640 C3641 1.388 . S
C3641 H3628 0.930 . S
C3641 C3640 1.388 . S
C3641 C3642 1.390 . S
C3642 C3641 1.390 . S
C3642 C3643 1.394 . S
C3642 C3648 1.465 . S
C3643 C3638 1.399 . S
C3643 C3642 1.394 . S
C3643 C3644 1.516 . S
C3644 C3643 1.516 . S
C3644 C3645 1.502 . S
C3644 C3646 1.561 . S
C3644 C3647 1.526 . S
C3645 H3629 0.959 . S
C3645 H3630 0.959 . S
C3645 H3631 0.961 . S
C3645 C3644 1.502 . S
C3646 H3632 0.960 . S
C3646 H3633 0.961 . S
C3646 H3634 0.959 . S
C3646 C3644 1.561 . S
C3647 C3644 1.526 . S
C3647 C3648 1.396 . S
C3647 C3652 1.390 . S
C3648 C3642 1.465 . S
C3648 C3647 1.396 . S
C3648 C3649 1.399 . S
C3649 H3635 0.929 . S
C3649 C3648 1.399 . S
C3649 C3650 1.385 . S
C3650 H3636 0.931 . S
C3650 C3649 1.385 . S
C3650 C3651 1.389 . S
C3651 C3650 1.389 . S
C3651 C3652 1.387 . S
C3652 H3637 0.930 . S
C3652 C3647 1.390 . S
C3652 C3651 1.387 . S
H3653 C3665 0.930 . S
H3654 C3667 0.930 . S
H3655 C3668 0.930 . S
H3656 C3672 0.959 . S
H3657 C3672 0.959 . S
H3658 C3672 0.961 . S
H3659 C3673 0.960 . S
H3660 C3673 0.961 . S
H3661 C3673 0.959 . S
H3662 C3676 0.929 . S
H3663 C3677 0.931 . S
H3664 C3679 0.930 . S
C3665 H3653 0.930 . S
C3665 C3666 1.399 . S
C3665 C3670 1.399 . S
C3666 C3665 1.399 . S
C3666 C3667 1.376 . S
C3667 H3654 0.930 . S
C3667 C3666 1.376 . S
C3667 C3668 1.388 . S
C3668 H3655 0.930 . S
C3668 C3667 1.388 . S
C3668 C3669 1.390 . S
C3669 C3668 1.390 . S
C3669 C3670 1.394 . S
C3669 C3675 1.465 1_545 S
C3670 C3665 1.399 . S
C3670 C3669 1.394 . S
C3670 C3671 1.516 . S
C3671 C3670 1.516 . S
C3671 C3672 1.502 . S
C3671 C3673 1.561 . S
C3671 C3674 1.526 . S
C3672 H3656 0.959 . S
C3672 H3657 0.959 . S
C3672 H3658 0.961 . S
C3672 C3671 1.502 . S
C3673 H3659 0.960 . S
C3673 H3660 0.961 . S
C3673 H3661 0.959 . S
C3673 C3671 1.561 . S
C3674 C3671 1.526 . S
C3674 C3675 1.396 1_545 S
C3674 C3679 1.390 1_545 S
C3675 C3669 1.465 1_565 S
C3675 C3674 1.396 1_565 S
C3675 C3676 1.399 . S
C3676 H3662 0.929 . S
C3676 C3675 1.399 . S
C3676 C3677 1.385 . S
C3677 H3663 0.931 . S
C3677 C3676 1.385 . S
C3677 C3678 1.389 . S
C3678 C3677 1.389 . S
C3678 C3679 1.387 . S
C3679 H3664 0.930 . S
C3679 C3674 1.390 1_565 S
C3679 C3678 1.387 . S
H3680 C3692 0.930 . S
H3681 C3694 0.930 . S
H3682 C3695 0.930 . S
H3683 C3699 0.959 . S
H3684 C3699 0.959 . S
H3685 C3699 0.961 . S
H3686 C3700 0.960 . S
H3687 C3700 0.961 . S
H3688 C3700 0.959 . S
H3689 C3703 0.929 . S
H3690 C3704 0.931 . S
H3691 C3706 0.930 . S
C3692 H3680 0.930 . S
C3692 C3693 1.399 . S
C3692 C3697 1.399 . S
C3693 C3692 1.399 . S
C3693 C3694 1.376 . S
C3694 H3681 0.930 . S
C3694 C3693 1.376 . S
C3694 C3695 1.388 . S
C3695 H3682 0.930 . S
C3695 C3694 1.388 . S
C3695 C3696 1.390 . S
C3696 C3695 1.390 . S
C3696 C3697 1.394 . S
C3696 C3702 1.465 . S
C3697 C3692 1.399 . S
C3697 C3696 1.394 . S
C3697 C3698 1.516 . S
C3698 C3697 1.516 . S
C3698 C3699 1.502 . S
C3698 C3700 1.561 . S
C3698 C3701 1.526 . S
C3699 H3683 0.959 . S
C3699 H3684 0.959 . S
C3699 H3685 0.961 . S
C3699 C3698 1.502 . S
C3700 H3686 0.960 . S
C3700 H3687 0.961 . S
C3700 H3688 0.959 . S
C3700 C3698 1.561 . S
C3701 C3698 1.526 . S
C3701 C3702 1.396 . S
C3701 C3706 1.390 . S
C3702 C3696 1.465 . S
C3702 C3701 1.396 . S
C3702 C3703 1.399 . S
C3703 H3689 0.929 . S
C3703 C3702 1.399 . S
C3703 C3704 1.385 . S
C3704 H3690 0.931 . S
C3704 C3703 1.385 . S
C3704 C3705 1.389 . S
C3705 C3704 1.389 . S
C3705 C3706 1.387 . S
C3706 H3691 0.930 . S
C3706 C3701 1.390 . S
C3706 C3705 1.387 . S
H3707 C3719 0.930 . S
H3708 C3721 0.930 . S
H3709 C3722 0.930 . S
H3710 C3726 0.959 . S
H3711 C3726 0.959 . S
H3712 C3726 0.961 . S
H3713 C3727 0.960 1_565 S
H3714 C3727 0.961 . S
H3715 C3727 0.959 . S
H3716 C3730 0.929 . S
H3717 C3731 0.931 . S
H3718 C3733 0.930 . S
C3719 H3707 0.930 . S
C3719 C3720 1.399 . S
C3719 C3724 1.399 . S
C3720 C3719 1.399 . S
C3720 C3721 1.376 . S
C3721 H3708 0.930 . S
C3721 C3720 1.376 . S
C3721 C3722 1.388 . S
C3722 H3709 0.930 . S
C3722 C3721 1.388 . S
C3722 C3723 1.390 . S
C3723 C3722 1.390 . S
C3723 C3724 1.394 . S
C3723 C3729 1.427 1_565 S
C3724 C3719 1.399 . S
C3724 C3723 1.394 . S
C3724 C3725 1.516 . S
C3725 C3724 1.516 . S
C3725 C3726 1.502 . S
C3725 C3727 1.561 1_565 S
C3725 C3728 1.526 1_565 S
C3726 H3710 0.959 . S
C3726 H3711 0.959 . S
C3726 H3712 0.961 . S
C3726 C3725 1.502 . S
C3727 H3713 0.960 1_545 S
C3727 H3714 0.961 . S
C3727 H3715 0.959 . S
C3727 C3725 1.561 1_545 S
C3728 C3725 1.526 1_545 S
C3728 C3729 1.406 . S
C3728 C3733 1.390 . S
C3729 C3723 1.427 1_545 S
C3729 C3728 1.406 . S
C3729 C3730 1.427 . S
C3730 H3716 0.929 . S
C3730 C3729 1.427 . S
C3730 C3731 1.385 . S
C3731 H3717 0.931 . S
C3731 C3730 1.385 . S
C3731 C3732 1.389 . S
C3732 C3731 1.389 . S
C3732 C3733 1.387 . S
C3733 H3718 0.930 . S
C3733 C3728 1.390 . S
C3733 C3732 1.387 . S
H3734 C3746 0.930 . S
H3735 C3748 0.930 . S
H3736 C3749 0.930 1_554 S
H3737 C3753 0.959 . S
H3738 C3753 0.957 . S
H3739 C3753 0.961 . S
H3740 C3754 0.960 . S
H3741 C3754 0.961 . S
H3742 C3754 0.959 . S
H3743 C3757 0.929 . S
H3744 C3758 0.931 . S
H3745 C3760 0.930 . S
C3746 H3734 0.930 . S
C3746 C3747 1.399 . S
C3746 C3751 1.399 . S
C3747 C3746 1.399 . S
C3747 C3748 1.376 . S
C3748 H3735 0.930 . S
C3748 C3747 1.376 . S
C3748 C3749 1.388 . S
C3749 H3736 0.930 1_556 S
C3749 C3748 1.388 . S
C3749 C3750 1.390 1_556 S
C3750 C3749 1.390 1_554 S
C3750 C3751 1.394 1_554 S
C3750 C3756 1.465 . S
C3751 C3746 1.399 . S
C3751 C3750 1.394 1_556 S
C3751 C3752 1.516 1_556 S
C3752 C3751 1.516 1_554 S
C3752 C3753 1.502 1_554 S
C3752 C3754 1.561 . S
C3752 C3755 1.526 . S
C3753 H3737 0.959 . S
C3753 H3738 0.957 . S
C3753 H3739 0.961 . S
C3753 C3752 1.502 1_556 S
C3754 H3740 0.960 . S
C3754 H3741 0.961 . S
C3754 H3742 0.959 . S
C3754 C3752 1.561 . S
C3755 C3752 1.526 . S
C3755 C3756 1.396 . S
C3755 C3760 1.390 . S
C3756 C3750 1.465 . S
C3756 C3755 1.396 . S
C3756 C3757 1.399 . S
C3757 H3743 0.929 . S
C3757 C3756 1.399 . S
C3757 C3758 1.385 . S
C3758 H3744 0.931 . S
C3758 C3757 1.385 . S
C3758 C3759 1.389 . S
C3759 C3758 1.389 . S
C3759 C3760 1.387 . S
C3760 H3745 0.930 . S
C3760 C3755 1.390 . S
C3760 C3759 1.387 . S
H3761 C3773 0.930 . S
H3762 C3775 0.930 . S
H3763 C3776 0.930 . S
H3764 C3780 0.959 . S
H3765 C3780 0.959 . S
H3766 C3780 0.961 . S
H3767 C3781 0.960 . S
H3768 C3781 0.961 . S
H3769 C3781 0.959 . S
H3770 C3784 0.929 1_545 S
H3771 C3785 0.931 . S
H3772 C3787 0.930 . S
C3773 H3761 0.930 . S
C3773 C3774 1.399 . S
C3773 C3778 1.399 1_545 S
C3774 C3773 1.399 . S
C3774 C3775 1.376 . S
C3775 H3762 0.930 . S
C3775 C3774 1.376 . S
C3775 C3776 1.388 . S
C3776 H3763 0.930 . S
C3776 C3775 1.388 . S
C3776 C3777 1.390 . S
C3777 C3776 1.390 . S
C3777 C3778 1.394 1_545 S
C3777 C3783 1.465 1_545 S
C3778 C3773 1.399 1_565 S
C3778 C3777 1.394 1_565 S
C3778 C3779 1.516 . S
C3779 C3778 1.516 . S
C3779 C3780 1.502 . S
C3779 C3781 1.561 . S
C3779 C3782 1.526 . S
C3780 H3764 0.959 . S
C3780 H3765 0.959 . S
C3780 H3766 0.961 . S
C3780 C3779 1.502 . S
C3781 H3767 0.960 . S
C3781 H3768 0.961 . S
C3781 H3769 0.959 . S
C3781 C3779 1.561 . S
C3782 C3779 1.526 . S
C3782 C3783 1.396 . S
C3782 C3787 1.390 . S
C3783 C3777 1.465 1_565 S
C3783 C3782 1.396 . S
C3783 C3784 1.399 . S
C3784 H3770 0.929 1_565 S
C3784 C3783 1.399 . S
C3784 C3785 1.385 . S
C3785 H3771 0.931 . S
C3785 C3784 1.385 . S
C3785 C3786 1.389 . S
C3786 C3785 1.389 . S
C3786 C3787 1.387 . S
C3787 H3772 0.930 . S
C3787 C3782 1.390 . S
C3787 C3786 1.387 . S
H3788 C3800 0.930 . S
H3789 C3802 0.930 . S
H3790 C3803 0.930 . S
H3791 C3807 0.959 . S
H3792 C3807 0.959 . S
H3793 C3807 0.961 . S
H3794 C3808 0.960 . S
H3795 C3808 0.961 . S
H3796 C3808 0.959 . S
H3797 C3811 0.929 . S
H3798 C3812 0.931 . S
H3799 C3814 0.930 . S
C3800 H3788 0.930 . S
C3800 C3801 1.399 . S
C3800 C3805 1.399 . S
C3801 C3800 1.399 . S
C3801 C3802 1.376 . S
C3802 H3789 0.930 . S
C3802 C3801 1.376 . S
C3802 C3803 1.388 . S
C3803 H3790 0.930 . S
C3803 C3802 1.388 . S
C3803 C3804 1.390 . S
C3804 C3803 1.390 . S
C3804 C3805 1.394 . S
C3804 C3810 1.465 . S
C3805 C3800 1.399 . S
C3805 C3804 1.394 . S
C3805 C3806 1.516 . S
C3806 C3805 1.516 . S
C3806 C3807 1.502 . S
C3806 C3808 1.561 . S
C3806 C3809 1.526 . S
C3807 H3791 0.959 . S
C3807 H3792 0.959 . S
C3807 H3793 0.961 . S
C3807 C3806 1.502 . S
C3808 H3794 0.960 . S
C3808 H3795 0.961 . S
C3808 H3796 0.959 . S
C3808 C3806 1.561 . S
C3809 C3806 1.526 . S
C3809 C3810 1.396 . S
C3809 C3814 1.390 . S
C3810 C3804 1.465 . S
C3810 C3809 1.396 . S
C3810 C3811 1.399 . S
C3811 H3797 0.929 . S
C3811 C3810 1.399 . S
C3811 C3812 1.385 . S
C3812 H3798 0.931 . S
C3812 C3811 1.385 . S
C3812 C3813 1.389 . S
C3813 C3812 1.389 . S
C3813 C3814 1.387 . S
C3814 H3799 0.930 . S
C3814 C3809 1.390 . S
C3814 C3813 1.387 . S
H3815 C3827 0.930 . S
H3816 C3829 0.930 . S
H3817 C3830 0.930 . S
H3818 C3834 0.959 . S
H3819 C3834 0.959 . S
H3820 C3834 0.961 . S
H3821 C3835 0.960 . S
H3822 C3835 0.961 . S
H3823 C3835 0.959 . S
H3824 C3838 0.929 . S
H3825 C3839 0.931 . S
H3826 C3841 0.930 . S
C3827 H3815 0.930 . S
C3827 C3828 1.399 . S
C3827 C3832 1.399 . S
C3828 C3827 1.399 . S
C3828 C3829 1.376 . S
C3829 H3816 0.930 . S
C3829 C3828 1.376 . S
C3829 C3830 1.388 1_565 S
C3830 H3817 0.930 . S
C3830 C3829 1.388 1_545 S
C3830 C3831 1.390 . S
C3831 C3830 1.390 . S
C3831 C3832 1.394 1_545 S
C3831 C3837 1.465 . S
C3832 C3827 1.399 . S
C3832 C3831 1.394 1_565 S
C3832 C3833 1.516 . S
C3833 C3832 1.516 . S
C3833 C3834 1.502 . S
C3833 C3835 1.561 . S
C3833 C3836 1.526 1_565 S
C3834 H3818 0.959 . S
C3834 H3819 0.959 . S
C3834 H3820 0.961 . S
C3834 C3833 1.502 . S
C3835 H3821 0.960 . S
C3835 H3822 0.961 . S
C3835 H3823 0.959 . S
C3835 C3833 1.561 . S
C3836 C3833 1.526 1_545 S
C3836 C3837 1.396 . S
C3836 C3841 1.390 . S
C3837 C3831 1.465 . S
C3837 C3836 1.396 . S
C3837 C3838 1.399 . S
C3838 H3824 0.929 . S
C3838 C3837 1.399 . S
C3838 C3839 1.385 . S
C3839 H3825 0.931 . S
C3839 C3838 1.385 . S
C3839 C3840 1.389 . S
C3840 C3839 1.389 . S
C3840 C3841 1.387 . S
C3841 H3826 0.930 . S
C3841 C3836 1.390 . S
C3841 C3840 1.387 . S
H3842 C3854 0.930 . S
H3843 C3856 0.930 . S
H3844 C3857 0.930 . S
H3845 C3861 0.959 . S
H3846 C3861 0.959 . S
H3847 C3861 0.961 . S
H3848 C3862 0.960 . S
H3849 C3862 0.985 . S
H3850 C3862 0.959 . S
H3851 C3865 0.929 . S
H3852 C3866 0.931 . S
H3853 C3868 0.930 . S
C3854 H3842 0.930 . S
C3854 C3855 1.399 . S
C3854 C3859 1.399 . S
C3855 C3854 1.399 . S
C3855 C3856 1.376 . S
C3856 H3843 0.930 . S
C3856 C3855 1.376 . S
C3856 C3857 1.388 . S
C3857 H3844 0.930 . S
C3857 C3856 1.388 . S
C3857 C3858 1.390 . S
C3858 C3857 1.390 . S
C3858 C3859 1.394 . S
C3858 C3864 1.465 1_554 S
C3859 C3854 1.399 . S
C3859 C3858 1.394 . S
C3859 C3860 1.516 1_554 S
C3860 C3859 1.516 1_556 S
C3860 C3861 1.502 . S
C3860 C3862 1.561 1_556 S
C3860 C3863 1.526 . S
C3861 H3845 0.959 . S
C3861 H3846 0.959 . S
C3861 H3847 0.961 . S
C3861 C3860 1.502 . S
C3862 H3848 0.960 . S
C3862 H3849 0.985 . S
C3862 H3850 0.959 . S
C3862 C3860 1.561 1_554 S
C3863 C3860 1.526 . S
C3863 C3864 1.396 . S
C3863 C3868 1.390 . S
C3864 C3858 1.465 1_556 S
C3864 C3863 1.396 . S
C3864 C3865 1.399 . S
C3865 H3851 0.929 . S
C3865 C3864 1.399 . S
C3865 C3866 1.385 . S
C3866 H3852 0.931 . S
C3866 C3865 1.385 . S
C3866 C3867 1.389 . S
C3867 C3866 1.389 . S
C3867 C3868 1.387 . S
C3868 H3853 0.930 . S
C3868 C3863 1.390 . S
C3868 C3867 1.387 . S
H3869 C3881 0.930 . S
H3870 C3883 0.930 . S
H3871 C3884 0.930 . S
H3872 C3888 0.959 . S
H3873 C3888 0.959 . S
H3874 C3888 0.961 . S
H3875 C3889 0.960 . S
H3876 C3889 0.961 . S
H3877 C3889 0.959 . S
H3878 C3892 0.929 . S
H3879 C3893 0.931 . S
H3880 C3895 0.930 . S
C3881 H3869 0.930 . S
C3881 C3882 1.399 . S
C3881 C3886 1.399 1_655 S
C3882 C3881 1.399 . S
C3882 C3883 1.376 . S
C3883 H3870 0.930 . S
C3883 C3882 1.376 . S
C3883 C3884 1.388 . S
C3884 H3871 0.930 . S
C3884 C3883 1.388 . S
C3884 C3885 1.419 . S
C3885 C3884 1.419 . S
C3885 C3886 1.390 1_655 S
C3885 C3891 1.438 1_655 S
C3886 C3881 1.399 1_455 S
C3886 C3885 1.390 1_455 S
C3886 C3887 1.516 . S
C3887 C3886 1.516 . S
C3887 C3888 1.502 . S
C3887 C3889 1.561 . S
C3887 C3890 1.526 . S
C3888 H3872 0.959 . S
C3888 H3873 0.959 . S
C3888 H3874 0.961 . S
C3888 C3887 1.502 . S
C3889 H3875 0.960 . S
C3889 H3876 0.961 . S
C3889 H3877 0.959 . S
C3889 C3887 1.561 . S
C3890 C3887 1.526 . S
C3890 C3891 1.396 . S
C3890 C3895 1.390 . S
C3891 C3885 1.438 1_455 S
C3891 C3890 1.396 . S
C3891 C3892 1.399 . S
C3892 H3878 0.929 . S
C3892 C3891 1.399 . S
C3892 C3893 1.385 . S
C3893 H3879 0.931 . S
C3893 C3892 1.385 . S
C3893 C3894 1.389 . S
C3894 C3893 1.389 . S
C3894 C3895 1.387 . S
C3895 H3880 0.930 . S
C3895 C3890 1.390 . S
C3895 C3894 1.387 . S
H3896 C3908 0.930 . S
H3897 C3910 0.930 . S
H3898 C3911 0.930 . S
H3899 C3915 0.959 . S
H3900 C3915 0.959 . S
H3901 C3915 0.961 . S
H3902 C3916 0.960 . S
H3903 C3916 0.961 . S
H3904 C3916 0.959 . S
H3905 C3919 0.929 . S
H3906 C3920 0.931 . S
H3907 C3922 0.930 . S
C3908 H3896 0.930 . S
C3908 C3909 1.399 . S
C3908 C3913 1.399 . S
C3909 C3908 1.399 . S
C3909 C3910 1.376 . S
C3910 H3897 0.930 . S
C3910 C3909 1.376 . S
C3910 C3911 1.388 . S
C3911 H3898 0.930 . S
C3911 C3910 1.388 . S
C3911 C3912 1.390 . S
C3912 C3911 1.390 . S
C3912 C3913 1.394 . S
C3912 C3918 1.465 . S
C3913 C3908 1.399 . S
C3913 C3912 1.394 . S
C3913 C3914 1.516 . S
C3914 C3913 1.516 . S
C3914 C3915 1.502 . S
C3914 C3916 1.561 . S
C3914 C3917 1.526 . S
C3915 H3899 0.959 . S
C3915 H3900 0.959 . S
C3915 H3901 0.961 . S
C3915 C3914 1.502 . S
C3916 H3902 0.960 . S
C3916 H3903 0.961 . S
C3916 H3904 0.959 . S
C3916 C3914 1.561 . S
C3917 C3914 1.526 . S
C3917 C3918 1.396 . S
C3917 C3922 1.390 . S
C3918 C3912 1.465 . S
C3918 C3917 1.396 . S
C3918 C3919 1.399 . S
C3919 H3905 0.929 . S
C3919 C3918 1.399 . S
C3919 C3920 1.385 . S
C3920 H3906 0.931 . S
C3920 C3919 1.385 . S
C3920 C3921 1.389 . S
C3921 C3920 1.389 . S
C3921 C3922 1.387 . S
C3922 H3907 0.930 . S
C3922 C3917 1.390 . S
C3922 C3921 1.387 . S
H3923 C3935 0.930 . S
H3924 C3937 0.930 . S
H3925 C3938 0.930 1_655 S
H3926 C3942 0.959 . S
H3927 C3942 0.959 1_655 S
H3928 C3942 0.961 . S
H3929 C3943 0.960 . S
H3930 C3943 0.961 . S
H3931 C3943 0.959 . S
H3932 C3946 0.929 . S
H3933 C3947 0.931 . S
H3934 C3949 0.930 . S
C3935 H3923 0.930 . S
C3935 C3936 1.399 . S
C3935 C3940 1.399 . S
C3936 C3935 1.399 . S
C3936 C3937 1.376 . S
C3937 H3924 0.930 . S
C3937 C3936 1.376 . S
C3937 C3938 1.388 . S
C3938 H3925 0.930 1_455 S
C3938 C3937 1.388 . S
C3938 C3939 1.390 1_455 S
C3939 C3938 1.390 1_655 S
C3939 C3940 1.394 1_655 S
C3939 C3945 1.465 . S
C3940 C3935 1.399 . S
C3940 C3939 1.394 1_455 S
C3940 C3941 1.516 1_455 S
C3941 C3940 1.516 1_655 S
C3941 C3942 1.502 1_655 S
C3941 C3943 1.561 . S
C3941 C3944 1.526 . S
C3942 H3926 0.959 . S
C3942 H3927 0.959 1_455 S
C3942 H3928 0.961 . S
C3942 C3941 1.502 1_455 S
C3943 H3929 0.960 . S
C3943 H3930 0.961 . S
C3943 H3931 0.959 . S
C3943 C3941 1.561 . S
C3944 C3941 1.526 . S
C3944 C3945 1.396 . S
C3944 C3949 1.390 . S
C3945 C3939 1.465 . S
C3945 C3944 1.396 . S
C3945 C3946 1.399 . S
C3946 H3932 0.929 . S
C3946 C3945 1.399 . S
C3946 C3947 1.385 . S
C3947 H3933 0.931 . S
C3947 C3946 1.385 . S
C3947 C3948 1.389 . S
C3948 C3947 1.389 . S
C3948 C3949 1.387 . S
C3949 H3934 0.930 . S
C3949 C3944 1.390 . S
C3949 C3948 1.387 . S
H3950 C3962 0.930 . S
H3951 C3964 0.930 . S
H3952 C3965 0.938 . S
H3953 C3969 0.959 . S
H3954 C3969 0.959 . S
H3955 C3969 0.961 . S
H3956 C3970 0.960 . S
H3957 C3970 0.961 . S
H3958 C3970 0.959 . S
H3959 C3973 0.929 . S
H3960 C3974 0.931 . S
H3961 C3976 0.930 . S
C3962 H3950 0.930 . S
C3962 C3963 1.399 . S
C3962 C3967 1.399 . S
C3963 C3962 1.399 . S
C3963 C3964 1.376 . S
C3964 H3951 0.930 . S
C3964 C3963 1.376 . S
C3964 C3965 1.377 1_455 S
C3965 H3952 0.938 . S
C3965 C3964 1.377 1_655 S
C3965 C3966 1.394 . S
C3966 C3965 1.394 . S
C3966 C3967 1.394 1_655 S
C3966 C3972 1.465 . S
C3967 C3962 1.399 . S
C3967 C3966 1.394 1_455 S
C3967 C3968 1.516 1_455 S
C3968 C3967 1.516 1_655 S
C3968 C3969 1.502 1_655 S
C3968 C3970 1.561 . S
C3968 C3971 1.526 . S
C3969 H3953 0.959 . S
C3969 H3954 0.959 . S
C3969 H3955 0.961 . S
C3969 C3968 1.502 1_455 S
C3970 H3956 0.960 . S
C3970 H3957 0.961 . S
C3970 H3958 0.959 . S
C3970 C3968 1.561 . S
C3971 C3968 1.526 . S
C3971 C3972 1.396 . S
C3971 C3976 1.390 . S
C3972 C3966 1.465 . S
C3972 C3971 1.396 . S
C3972 C3973 1.399 . S
C3973 H3959 0.929 . S
C3973 C3972 1.399 . S
C3973 C3974 1.385 . S
C3974 H3960 0.931 . S
C3974 C3973 1.385 . S
C3974 C3975 1.389 . S
C3975 C3974 1.389 . S
C3975 C3976 1.387 . S
C3976 H3961 0.930 . S
C3976 C3971 1.390 . S
C3976 C3975 1.387 . S
H3977 C3989 0.930 . S
H3978 C3991 0.930 . S
H3979 C3992 0.930 . S
H3980 C3996 0.959 . S
H3981 C3996 0.959 . S
H3982 C3996 0.961 . S
H3983 C3997 0.960 . S
H3984 C3997 0.961 . S
H3985 C3997 0.959 . S
H3986 C4000 0.929 . S
H3987 C4001 0.931 . S
H3988 C4003 0.930 . S
C3989 H3977 0.930 . S
C3989 C3990 1.399 . S
C3989 C3994 1.399 . S
C3990 C3989 1.399 . S
C3990 C3991 1.376 . S
C3991 H3978 0.930 . S
C3991 C3990 1.376 . S
C3991 C3992 1.388 . S
C3992 H3979 0.930 . S
C3992 C3991 1.388 . S
C3992 C3993 1.390 . S
C3993 C3992 1.390 . S
C3993 C3994 1.394 . S
C3993 C3999 1.465 . S
C3994 C3989 1.399 . S
C3994 C3993 1.394 . S
C3994 C3995 1.516 . S
C3995 C3994 1.516 . S
C3995 C3996 1.502 . S
C3995 C3997 1.561 . S
C3995 C3998 1.526 . S
C3996 H3980 0.959 . S
C3996 H3981 0.959 . S
C3996 H3982 0.961 . S
C3996 C3995 1.502 . S
C3997 H3983 0.960 . S
C3997 H3984 0.961 . S
C3997 H3985 0.959 . S
C3997 C3995 1.561 . S
C3998 C3995 1.526 . S
C3998 C3999 1.396 . S
C3998 C4003 1.390 . S
C3999 C3993 1.465 . S
C3999 C3998 1.396 . S
C3999 C4000 1.399 . S
C4000 H3986 0.929 . S
C4000 C3999 1.399 . S
C4000 C4001 1.385 . S
C4001 H3987 0.931 . S
C4001 C4000 1.385 . S
C4001 C4002 1.389 . S
C4002 C4001 1.389 . S
C4002 C4003 1.387 . S
C4003 H3988 0.930 . S
C4003 C3998 1.390 . S
C4003 C4002 1.387 . S
H4004 C4016 0.930 . S
H4005 C4018 0.930 . S
H4006 C4019 0.930 . S
H4007 C4023 0.959 . S
H4008 C4023 0.959 . S
H4009 C4023 0.961 . S
H4010 C4024 0.960 1_655 S
H4011 C4024 0.961 . S
H4012 C4024 0.959 . S
H4013 C4027 0.929 . S
H4014 C4028 0.931 . S
H4015 C4030 0.930 . S
C4016 H4004 0.930 . S
C4016 C4017 1.399 . S
C4016 C4021 1.399 . S
C4017 C4016 1.399 . S
C4017 C4018 1.376 . S
C4018 H4005 0.930 . S
C4018 C4017 1.376 . S
C4018 C4019 1.388 1_655 S
C4019 H4006 0.930 . S
C4019 C4018 1.388 1_455 S
C4019 C4020 1.390 . S
C4020 C4019 1.390 . S
C4020 C4021 1.394 1_455 S
C4020 C4026 1.465 . S
C4021 C4016 1.399 . S
C4021 C4020 1.394 1_655 S
C4021 C4022 1.516 . S
C4022 C4021 1.516 . S
C4022 C4023 1.502 . S
C4022 C4024 1.561 1_655 S
C4022 C4025 1.526 1_655 S
C4023 H4007 0.959 . S
C4023 H4008 0.959 . S
C4023 H4009 0.961 . S
C4023 C4022 1.502 . S
C4024 H4010 0.960 1_455 S
C4024 H4011 0.961 . S
C4024 H4012 0.959 . S
C4024 C4022 1.561 1_455 S
C4025 C4022 1.526 1_455 S
C4025 C4026 1.396 . S
C4025 C4030 1.390 . S
C4026 C4020 1.465 . S
C4026 C4025 1.396 . S
C4026 C4027 1.399 . S
C4027 H4013 0.929 . S
C4027 C4026 1.399 . S
C4027 C4028 1.385 . S
C4028 H4014 0.931 . S
C4028 C4027 1.385 . S
C4028 C4029 1.389 . S
C4029 C4028 1.389 . S
C4029 C4030 1.387 . S
C4030 H4015 0.930 . S
C4030 C4025 1.390 . S
C4030 C4029 1.387 . S
H4031 C4043 0.930 . S
H4032 C4045 0.930 . S
H4033 C4046 0.930 . S
H4034 C4050 0.959 . S
H4035 C4050 0.959 . S
H4036 C4050 0.961 . S
H4037 C4051 0.960 . S
H4038 C4051 0.961 . S
H4039 C4051 0.959 . S
H4040 C4054 0.929 . S
H4041 C4055 0.931 . S
H4042 C4057 0.930 . S
C4043 H4031 0.930 . S
C4043 C4044 1.399 . S
C4043 C4048 1.399 . S
C4044 C4043 1.399 . S
C4044 C4045 1.376 . S
C4045 H4032 0.930 . S
C4045 C4044 1.376 . S
C4045 C4046 1.388 . S
C4046 H4033 0.930 . S
C4046 C4045 1.388 . S
C4046 C4047 1.390 . S
C4047 C4046 1.390 . S
C4047 C4048 1.394 . S
C4047 C4053 1.465 . S
C4048 C4043 1.399 . S
C4048 C4047 1.394 . S
C4048 C4049 1.516 . S
C4049 C4048 1.516 . S
C4049 C4050 1.502 . S
C4049 C4051 1.561 . S
C4049 C4052 1.526 . S
C4050 H4034 0.959 . S
C4050 H4035 0.959 . S
C4050 H4036 0.961 . S
C4050 C4049 1.502 . S
C4051 H4037 0.960 . S
C4051 H4038 0.961 . S
C4051 H4039 0.959 . S
C4051 C4049 1.561 . S
C4052 C4049 1.526 . S
C4052 C4053 1.396 . S
C4052 C4057 1.390 . S
C4053 C4047 1.465 . S
C4053 C4052 1.396 . S
C4053 C4054 1.399 . S
C4054 H4040 0.929 . S
C4054 C4053 1.399 . S
C4054 C4055 1.385 . S
C4055 H4041 0.931 . S
C4055 C4054 1.385 . S
C4055 C4056 1.389 . S
C4056 C4055 1.389 . S
C4056 C4057 1.387 . S
C4057 H4042 0.930 . S
C4057 C4052 1.390 . S
C4057 C4056 1.387 . S
H4058 C4070 0.930 . S
H4059 C4072 0.930 . S
H4060 C4073 0.930 . S
H4061 C4077 0.959 . S
H4062 C4077 0.959 . S
H4063 C4077 0.961 . S
H4064 C4078 0.960 . S
H4065 C4078 0.961 . S
H4066 C4078 0.959 . S
H4067 C4081 0.929 . S
H4068 C4082 0.931 . S
H4069 C4084 0.930 . S
C4070 H4058 0.930 . S
C4070 C4071 1.399 . S
C4070 C4075 1.399 . S
C4071 C4070 1.399 . S
C4071 C4072 1.376 . S
C4072 H4059 0.930 . S
C4072 C4071 1.376 . S
C4072 C4073 1.388 . S
C4073 H4060 0.930 . S
C4073 C4072 1.388 . S
C4073 C4074 1.390 . S
C4074 C4073 1.390 . S
C4074 C4075 1.394 . S
C4074 C4080 1.465 . S
C4075 C4070 1.399 . S
C4075 C4074 1.394 . S
C4075 C4076 1.516 . S
C4076 C4075 1.516 . S
C4076 C4077 1.502 . S
C4076 C4078 1.561 . S
C4076 C4079 1.526 . S
C4077 H4061 0.959 . S
C4077 H4062 0.959 . S
C4077 H4063 0.961 . S
C4077 C4076 1.502 . S
C4078 H4064 0.960 . S
C4078 H4065 0.961 . S
C4078 H4066 0.959 . S
C4078 C4076 1.561 . S
C4079 C4076 1.526 . S
C4079 C4080 1.396 . S
C4079 C4084 1.390 . S
C4080 C4074 1.465 . S
C4080 C4079 1.396 . S
C4080 C4081 1.399 . S
C4081 H4067 0.929 . S
C4081 C4080 1.399 . S
C4081 C4082 1.385 . S
C4082 H4068 0.931 . S
C4082 C4081 1.385 . S
C4082 C4083 1.389 . S
C4083 C4082 1.389 . S
C4083 C4084 1.387 . S
C4084 H4069 0.930 . S
C4084 C4079 1.390 . S
C4084 C4083 1.387 . S
H4085 C4097 0.930 . S
H4086 C4099 0.930 . S
H4087 C4100 0.930 . S
H4088 C4104 0.959 . S
H4089 C4104 0.959 . S
H4090 C4104 0.961 . S
H4091 C4105 0.967 . S
H4092 C4105 0.961 . S
H4093 C4105 0.959 1_554 S
H4094 C4108 0.929 . S
H4095 C4109 0.931 . S
H4096 C4111 0.930 . S
C4097 H4085 0.930 . S
C4097 C4098 1.399 . S
C4097 C4102 1.399 . S
C4098 C4097 1.399 . S
C4098 C4099 1.376 . S
C4099 H4086 0.930 . S
C4099 C4098 1.376 . S
C4099 C4100 1.388 . S
C4100 H4087 0.930 . S
C4100 C4099 1.388 . S
C4100 C4101 1.390 . S
C4101 C4100 1.390 . S
C4101 C4102 1.394 . S
C4101 C4107 1.465 1_554 S
C4102 C4097 1.399 . S
C4102 C4101 1.394 . S
C4102 C4103 1.516 1_554 S
C4103 C4102 1.516 1_556 S
C4103 C4104 1.502 . S
C4103 C4105 1.561 . S
C4103 C4106 1.526 . S
C4104 H4088 0.959 . S
C4104 H4089 0.959 . S
C4104 H4090 0.961 . S
C4104 C4103 1.502 . S
C4105 H4091 0.967 . S
C4105 H4092 0.961 . S
C4105 H4093 0.959 1_556 S
C4105 C4103 1.561 . S
C4106 C4103 1.526 . S
C4106 C4107 1.396 . S
C4106 C4111 1.390 . S
C4107 C4101 1.465 1_556 S
C4107 C4106 1.396 . S
C4107 C4108 1.399 . S
C4108 H4094 0.929 . S
C4108 C4107 1.399 . S
C4108 C4109 1.385 . S
C4109 H4095 0.931 . S
C4109 C4108 1.385 . S
C4109 C4110 1.389 . S
C4110 C4109 1.389 . S
C4110 C4111 1.387 . S
C4111 H4096 0.930 . S
C4111 C4106 1.390 . S
C4111 C4110 1.387 . S
H4112 C4124 0.930 . S
H4113 C4126 0.930 . S
H4114 C4127 0.930 . S
H4115 C4131 0.959 . S
H4116 C4131 0.959 . S
H4117 C4131 0.961 . S
H4118 C4132 0.960 . S
H4119 C4132 0.961 . S
H4120 C4132 0.959 . S
H4121 C4135 0.929 . S
H4122 C4136 0.931 . S
H4123 C4138 0.930 . S
C4124 H4112 0.930 . S
C4124 C4125 1.399 . S
C4124 C4129 1.399 . S
C4125 C4124 1.399 . S
C4125 C4126 1.376 . S
C4126 H4113 0.930 . S
C4126 C4125 1.376 . S
C4126 C4127 1.388 . S
C4127 H4114 0.930 . S
C4127 C4126 1.388 . S
C4127 C4128 1.390 . S
C4128 C4127 1.390 . S
C4128 C4129 1.394 . S
C4128 C4134 1.465 . S
C4129 C4124 1.399 . S
C4129 C4128 1.394 . S
C4129 C4130 1.516 . S
C4130 C4129 1.516 . S
C4130 C4131 1.502 . S
C4130 C4132 1.561 . S
C4130 C4133 1.526 . S
C4131 H4115 0.959 . S
C4131 H4116 0.959 . S
C4131 H4117 0.961 . S
C4131 C4130 1.502 . S
C4132 H4118 0.960 . S
C4132 H4119 0.961 . S
C4132 H4120 0.959 . S
C4132 C4130 1.561 . S
C4133 C4130 1.526 . S
C4133 C4134 1.396 . S
C4133 C4138 1.390 . S
C4134 C4128 1.465 . S
C4134 C4133 1.396 . S
C4134 C4135 1.399 . S
C4135 H4121 0.929 . S
C4135 C4134 1.399 . S
C4135 C4136 1.385 . S
C4136 H4122 0.931 . S
C4136 C4135 1.385 . S
C4136 C4137 1.389 . S
C4137 C4136 1.389 . S
C4137 C4138 1.387 . S
C4138 H4123 0.930 . S
C4138 C4133 1.390 . S
C4138 C4137 1.387 . S
H4139 C4151 0.930 . S
H4140 C4153 0.930 . S
H4141 C4154 0.930 . S
H4142 C4158 0.959 . S
H4143 C4158 0.959 . S
H4144 C4158 0.961 . S
H4145 C4159 0.960 . S
H4146 C4159 0.961 . S
H4147 C4159 0.959 . S
H4148 C4162 0.929 . S
H4149 C4163 0.931 . S
H4150 C4165 0.930 . S
C4151 H4139 0.930 . S
C4151 C4152 1.399 . S
C4151 C4156 1.399 . S
C4152 C4151 1.399 . S
C4152 C4153 1.376 . S
C4153 H4140 0.930 . S
C4153 C4152 1.376 . S
C4153 C4154 1.388 . S
C4154 H4141 0.930 . S
C4154 C4153 1.388 . S
C4154 C4155 1.390 . S
C4155 C4154 1.390 . S
C4155 C4156 1.394 . S
C4155 C4161 1.465 . S
C4156 C4151 1.399 . S
C4156 C4155 1.394 . S
C4156 C4157 1.516 . S
C4157 C4156 1.516 . S
C4157 C4158 1.502 . S
C4157 C4159 1.561 . S
C4157 C4160 1.526 . S
C4158 H4142 0.959 . S
C4158 H4143 0.959 . S
C4158 H4144 0.961 . S
C4158 C4157 1.502 . S
C4159 H4145 0.960 . S
C4159 H4146 0.961 . S
C4159 H4147 0.959 . S
C4159 C4157 1.561 . S
C4160 C4157 1.526 . S
C4160 C4161 1.396 . S
C4160 C4165 1.390 . S
C4161 C4155 1.465 . S
C4161 C4160 1.396 . S
C4161 C4162 1.399 . S
C4162 H4148 0.929 . S
C4162 C4161 1.399 . S
C4162 C4163 1.385 . S
C4163 H4149 0.931 . S
C4163 C4162 1.385 . S
C4163 C4164 1.389 . S
C4164 C4163 1.389 . S
C4164 C4165 1.387 . S
C4165 H4150 0.930 . S
C4165 C4160 1.390 . S
C4165 C4164 1.387 . S
H4166 C4178 0.930 . S
H4167 C4180 0.930 . S
H4168 C4181 0.930 . S
H4169 C4185 0.959 . S
H4170 C4185 0.959 . S
H4171 C4185 0.961 . S
H4172 C4186 0.960 . S
H4173 C4186 0.961 . S
H4174 C4186 0.959 . S
H4175 C4189 0.929 . S
H4176 C4190 0.931 . S
H4177 C4192 0.930 . S
C4178 H4166 0.930 . S
C4178 C4179 1.399 . S
C4178 C4183 1.399 . S
C4179 C4178 1.399 . S
C4179 C4180 1.376 . S
C4180 H4167 0.930 . S
C4180 C4179 1.376 . S
C4180 C4181 1.388 . S
C4181 H4168 0.930 . S
C4181 C4180 1.388 . S
C4181 C4182 1.390 . S
C4182 C4181 1.390 . S
C4182 C4183 1.394 . S
C4182 C4188 1.465 . S
C4183 C4178 1.399 . S
C4183 C4182 1.394 . S
C4183 C4184 1.516 . S
C4184 C4183 1.516 . S
C4184 C4185 1.502 . S
C4184 C4186 1.561 . S
C4184 C4187 1.526 . S
C4185 H4169 0.959 . S
C4185 H4170 0.959 . S
C4185 H4171 0.961 . S
C4185 C4184 1.502 . S
C4186 H4172 0.960 . S
C4186 H4173 0.961 . S
C4186 H4174 0.959 . S
C4186 C4184 1.561 . S
C4187 C4184 1.526 . S
C4187 C4188 1.396 . S
C4187 C4192 1.390 . S
C4188 C4182 1.465 . S
C4188 C4187 1.396 . S
C4188 C4189 1.399 . S
C4189 H4175 0.929 . S
C4189 C4188 1.399 . S
C4189 C4190 1.385 . S
C4190 H4176 0.931 . S
C4190 C4189 1.385 . S
C4190 C4191 1.389 . S
C4191 C4190 1.389 . S
C4191 C4192 1.387 . S
C4192 H4177 0.930 . S
C4192 C4187 1.390 . S
C4192 C4191 1.387 . S
H4193 C4205 0.930 . S
H4194 C4207 0.930 . S
H4195 C4208 0.930 . S
H4196 C4212 0.959 . S
H4197 C4212 0.959 . S
H4198 C4212 0.961 1_554 S
H4199 C4213 0.960 . S
H4200 C4213 0.961 . S
H4201 C4213 0.959 . S
H4202 C4216 0.929 . S
H4203 C4217 0.931 . S
H4204 C4219 0.930 . S
C4205 H4193 0.930 . S
C4205 C4206 1.399 . S
C4205 C4210 1.399 . S
C4206 C4205 1.399 . S
C4206 C4207 1.376 . S
C4207 H4194 0.930 . S
C4207 C4206 1.376 . S
C4207 C4208 1.388 . S
C4208 H4195 0.930 . S
C4208 C4207 1.388 . S
C4208 C4209 1.390 . S
C4209 C4208 1.390 . S
C4209 C4210 1.394 . S
C4209 C4215 1.465 . S
C4210 C4205 1.399 . S
C4210 C4209 1.394 . S
C4210 C4211 1.516 . S
C4211 C4210 1.516 . S
C4211 C4212 1.502 1_554 S
C4211 C4213 1.561 . S
C4211 C4214 1.526 1_554 S
C4212 H4196 0.959 . S
C4212 H4197 0.959 . S
C4212 H4198 0.961 1_556 S
C4212 C4211 1.502 1_556 S
C4213 H4199 0.960 . S
C4213 H4200 0.961 . S
C4213 H4201 0.959 . S
C4213 C4211 1.561 . S
C4214 C4211 1.526 1_556 S
C4214 C4215 1.396 1_556 S
C4214 C4219 1.390 . S
C4215 C4209 1.465 . S
C4215 C4214 1.396 1_554 S
C4215 C4216 1.399 1_554 S
C4216 H4202 0.929 . S
C4216 C4215 1.399 1_556 S
C4216 C4217 1.385 . S
C4217 H4203 0.931 . S
C4217 C4216 1.385 . S
C4217 C4218 1.389 . S
C4218 C4217 1.389 . S
C4218 C4219 1.387 . S
C4219 H4204 0.930 . S
C4219 C4214 1.390 . S
C4219 C4218 1.387 . S
H4220 C4232 0.930 . S
H4221 C4234 0.930 . S
H4222 C4235 0.930 . S
H4223 C4239 0.959 . S
H4224 C4239 0.959 . S
H4225 C4239 0.961 . S
H4226 C4240 0.960 . S
H4227 C4240 0.961 . S
H4228 C4240 0.959 . S
H4229 C4243 0.929 . S
H4230 C4244 0.931 . S
H4231 C4246 0.930 . S
C4232 H4220 0.930 . S
C4232 C4233 1.399 . S
C4232 C4237 1.399 . S
C4233 C4232 1.399 . S
C4233 C4234 1.376 . S
C4234 H4221 0.930 . S
C4234 C4233 1.376 . S
C4234 C4235 1.388 . S
C4235 H4222 0.930 . S
C4235 C4234 1.388 . S
C4235 C4236 1.390 . S
C4236 C4235 1.390 . S
C4236 C4237 1.394 . S
C4236 C4242 1.465 . S
C4237 C4232 1.399 . S
C4237 C4236 1.394 . S
C4237 C4238 1.516 . S
C4238 C4237 1.516 . S
C4238 C4239 1.502 . S
C4238 C4240 1.561 . S
C4238 C4241 1.526 . S
C4239 H4223 0.959 . S
C4239 H4224 0.959 . S
C4239 H4225 0.961 . S
C4239 C4238 1.502 . S
C4240 H4226 0.960 . S
C4240 H4227 0.961 . S
C4240 H4228 0.959 . S
C4240 C4238 1.561 . S
C4241 C4238 1.526 . S
C4241 C4242 1.396 . S
C4241 C4246 1.390 . S
C4242 C4236 1.465 . S
C4242 C4241 1.396 . S
C4242 C4243 1.399 . S
C4243 H4229 0.929 . S
C4243 C4242 1.399 . S
C4243 C4244 1.385 . S
C4244 H4230 0.931 . S
C4244 C4243 1.385 . S
C4244 C4245 1.389 . S
C4245 C4244 1.389 . S
C4245 C4246 1.387 . S
C4246 H4231 0.930 . S
C4246 C4241 1.390 . S
C4246 C4245 1.387 . S
H4247 C4259 0.930 . S
H4248 C4261 0.930 . S
H4249 C4262 0.930 . S
H4250 C4266 0.959 . S
H4251 C4266 0.959 . S
H4252 C4266 0.961 . S
H4253 C4267 0.960 . S
H4254 C4267 0.961 . S
H4255 C4267 0.959 . S
H4256 C4270 0.929 . S
H4257 C4271 0.931 . S
H4258 C4273 0.930 . S
C4259 H4247 0.930 . S
C4259 C4260 1.399 . S
C4259 C4264 1.399 . S
C4260 C4259 1.399 . S
C4260 C4261 1.376 . S
C4261 H4248 0.930 . S
C4261 C4260 1.376 . S
C4261 C4262 1.388 . S
C4262 H4249 0.930 . S
C4262 C4261 1.388 . S
C4262 C4263 1.390 . S
C4263 C4262 1.390 . S
C4263 C4264 1.394 . S
C4263 C4269 1.465 . S
C4264 C4259 1.399 . S
C4264 C4263 1.394 . S
C4264 C4265 1.516 . S
C4265 C4264 1.516 . S
C4265 C4266 1.502 . S
C4265 C4267 1.561 . S
C4265 C4268 1.526 . S
C4266 H4250 0.959 . S
C4266 H4251 0.959 . S
C4266 H4252 0.961 . S
C4266 C4265 1.502 . S
C4267 H4253 0.960 . S
C4267 H4254 0.961 . S
C4267 H4255 0.959 . S
C4267 C4265 1.561 . S
C4268 C4265 1.526 . S
C4268 C4269 1.396 . S
C4268 C4273 1.390 . S
C4269 C4263 1.465 . S
C4269 C4268 1.396 . S
C4269 C4270 1.399 . S
C4270 H4256 0.929 . S
C4270 C4269 1.399 . S
C4270 C4271 1.385 . S
C4271 H4257 0.931 . S
C4271 C4270 1.385 . S
C4271 C4272 1.389 . S
C4272 C4271 1.389 . S
C4272 C4273 1.387 . S
C4273 H4258 0.930 . S
C4273 C4268 1.390 . S
C4273 C4272 1.387 . S
H4274 C4286 0.930 . S
H4275 C4288 0.930 . S
H4276 C4289 0.930 . S
H4277 C4293 0.959 . S
H4278 C4293 0.959 . S
H4279 C4293 0.961 . S
H4280 C4294 0.960 . S
H4281 C4294 0.961 . S
H4282 C4294 0.959 . S
H4283 C4297 0.929 . S
H4284 C4298 0.931 . S
H4285 C4300 0.930 . S
C4286 H4274 0.930 . S
C4286 C4287 1.399 . S
C4286 C4291 1.399 . S
C4287 C4286 1.399 . S
C4287 C4288 1.376 . S
C4288 H4275 0.930 . S
C4288 C4287 1.376 . S
C4288 C4289 1.388 . S
C4289 H4276 0.930 . S
C4289 C4288 1.388 . S
C4289 C4290 1.390 . S
C4290 C4289 1.390 . S
C4290 C4291 1.394 . S
C4290 C4296 1.465 . S
C4291 C4286 1.399 . S
C4291 C4290 1.394 . S
C4291 C4292 1.516 . S
C4292 C4291 1.516 . S
C4292 C4293 1.502 . S
C4292 C4294 1.561 . S
C4292 C4295 1.526 . S
C4293 H4277 0.959 . S
C4293 H4278 0.959 . S
C4293 H4279 0.961 . S
C4293 C4292 1.502 . S
C4294 H4280 0.960 . S
C4294 H4281 0.961 . S
C4294 H4282 0.959 . S
C4294 C4292 1.561 . S
C4295 C4292 1.526 . S
C4295 C4296 1.396 . S
C4295 C4300 1.390 . S
C4296 C4290 1.465 . S
C4296 C4295 1.396 . S
C4296 C4297 1.399 . S
C4297 H4283 0.929 . S
C4297 C4296 1.399 . S
C4297 C4298 1.385 . S
C4298 H4284 0.931 . S
C4298 C4297 1.385 . S
C4298 C4299 1.389 . S
C4299 C4298 1.389 . S
C4299 C4300 1.387 . S
C4300 H4285 0.930 . S
C4300 C4295 1.390 . S
C4300 C4299 1.387 . S
H4301 C4313 0.930 . S
H4302 C4315 0.930 . S
H4303 C4316 0.930 . S
H4304 C4320 0.959 . S
H4305 C4320 0.959 . S
H4306 C4320 0.961 . S
H4307 C4321 0.960 . S
H4308 C4321 0.961 . S
H4309 C4321 0.959 . S
H4310 C4324 0.929 . S
H4311 C4325 0.931 . S
H4312 C4327 0.930 . S
C4313 H4301 0.930 . S
C4313 C4314 1.399 . S
C4313 C4318 1.399 . S
C4314 C4313 1.399 . S
C4314 C4315 1.376 . S
C4315 H4302 0.930 . S
C4315 C4314 1.376 . S
C4315 C4316 1.388 . S
C4316 H4303 0.930 . S
C4316 C4315 1.388 . S
C4316 C4317 1.390 . S
C4317 C4316 1.390 . S
C4317 C4318 1.394 . S
C4317 C4323 1.465 . S
C4318 C4313 1.399 . S
C4318 C4317 1.394 . S
C4318 C4319 1.516 . S
C4319 C4318 1.516 . S
C4319 C4320 1.502 . S
C4319 C4321 1.561 . S
C4319 C4322 1.526 . S
C4320 H4304 0.959 . S
C4320 H4305 0.959 . S
C4320 H4306 0.961 . S
C4320 C4319 1.502 . S
C4321 H4307 0.960 . S
C4321 H4308 0.961 . S
C4321 H4309 0.959 . S
C4321 C4319 1.561 . S
C4322 C4319 1.526 . S
C4322 C4323 1.396 . S
C4322 C4327 1.390 . S
C4323 C4317 1.465 . S
C4323 C4322 1.396 . S
C4323 C4324 1.399 . S
C4324 H4310 0.929 . S
C4324 C4323 1.399 . S
C4324 C4325 1.385 . S
C4325 H4311 0.931 . S
C4325 C4324 1.385 . S
C4325 C4326 1.389 . S
C4326 C4325 1.389 . S
C4326 C4327 1.387 . S
C4327 H4312 0.930 . S
C4327 C4322 1.390 . S
C4327 C4326 1.387 . S
H4328 C4340 0.930 . S
H4329 C4342 0.930 . S
H4330 C4343 0.930 . S
H4331 C4347 0.959 . S
H4332 C4347 0.959 . S
H4333 C4347 0.961 . S
H4334 C4348 0.960 . S
H4335 C4348 0.961 . S
H4336 C4348 0.959 . S
H4337 C4351 0.929 . S
H4338 C4352 0.931 . S
H4339 C4354 0.930 . S
C4340 H4328 0.930 . S
C4340 C4341 1.399 . S
C4340 C4345 1.399 . S
C4341 C4340 1.399 . S
C4341 C4342 1.376 . S
C4342 H4329 0.930 . S
C4342 C4341 1.376 . S
C4342 C4343 1.388 . S
C4343 H4330 0.930 . S
C4343 C4342 1.388 . S
C4343 C4344 1.390 . S
C4344 C4343 1.390 . S
C4344 C4345 1.394 . S
C4344 C4350 1.465 1_554 S
C4345 C4340 1.399 . S
C4345 C4344 1.394 . S
C4345 C4346 1.516 . S
C4346 C4345 1.516 . S
C4346 C4347 1.502 . S
C4346 C4348 1.561 . S
C4346 C4349 1.521 1_554 S
C4347 H4331 0.959 . S
C4347 H4332 0.959 . S
C4347 H4333 0.961 . S
C4347 C4346 1.502 . S
C4348 H4334 0.960 . S
C4348 H4335 0.961 . S
C4348 H4336 0.959 . S
C4348 C4346 1.561 . S
C4349 C4346 1.521 1_556 S
C4349 C4350 1.397 . S
C4349 C4354 1.392 . S
C4350 C4344 1.465 1_556 S
C4350 C4349 1.397 . S
C4350 C4351 1.399 . S
C4351 H4337 0.929 . S
C4351 C4350 1.399 . S
C4351 C4352 1.385 . S
C4352 H4338 0.931 . S
C4352 C4351 1.385 . S
C4352 C4353 1.389 . S
C4353 C4352 1.389 . S
C4353 C4354 1.387 . S
C4354 H4339 0.930 . S
C4354 C4349 1.392 . S
C4354 C4353 1.387 . S
H4355 C4367 0.930 . S
H4356 C4369 0.930 . S
H4357 C4370 0.930 . S
H4358 C4374 0.959 . S
H4359 C4374 0.959 . S
H4360 C4374 0.961 . S
H4361 C4375 0.960 . S
H4362 C4375 0.961 . S
H4363 C4375 0.959 . S
H4364 C4378 0.929 . S
H4365 C4379 0.931 . S
H4366 C4381 0.930 . S
C4367 H4355 0.930 . S
C4367 C4368 1.399 . S
C4367 C4372 1.399 . S
C4368 C4367 1.399 . S
C4368 C4369 1.376 . S
C4369 H4356 0.930 . S
C4369 C4368 1.376 . S
C4369 C4370 1.388 . S
C4370 H4357 0.930 . S
C4370 C4369 1.388 . S
C4370 C4371 1.390 . S
C4371 C4370 1.390 . S
C4371 C4372 1.394 . S
C4371 C4377 1.465 . S
C4372 C4367 1.399 . S
C4372 C4371 1.394 . S
C4372 C4373 1.516 . S
C4373 C4372 1.516 . S
C4373 C4374 1.502 . S
C4373 C4375 1.561 . S
C4373 C4376 1.526 . S
C4374 H4358 0.959 . S
C4374 H4359 0.959 . S
C4374 H4360 0.961 . S
C4374 C4373 1.502 . S
C4375 H4361 0.960 . S
C4375 H4362 0.961 . S
C4375 H4363 0.959 . S
C4375 C4373 1.561 . S
C4376 C4373 1.526 . S
C4376 C4377 1.396 . S
C4376 C4381 1.390 . S
C4377 C4371 1.465 . S
C4377 C4376 1.396 . S
C4377 C4378 1.399 . S
C4378 H4364 0.929 . S
C4378 C4377 1.399 . S
C4378 C4379 1.385 . S
C4379 H4365 0.931 . S
C4379 C4378 1.385 . S
C4379 C4380 1.389 . S
C4380 C4379 1.389 . S
C4380 C4381 1.387 . S
C4381 H4366 0.930 . S
C4381 C4376 1.390 . S
C4381 C4380 1.387 . S
H4382 C4394 0.930 . S
H4383 C4396 0.930 . S
H4384 C4397 0.930 . S
H4385 C4401 0.959 . S
H4386 C4401 0.959 . S
H4387 C4401 0.961 . S
H4388 C4402 0.960 . S
H4389 C4402 0.961 . S
H4390 C4402 0.959 . S
H4391 C4405 0.929 . S
H4392 C4406 0.931 . S
H4393 C4408 0.930 . S
C4394 H4382 0.930 . S
C4394 C4395 1.399 . S
C4394 C4399 1.399 . S
C4395 C4394 1.399 . S
C4395 C4396 1.376 . S
C4396 H4383 0.930 . S
C4396 C4395 1.376 . S
C4396 C4397 1.388 . S
C4397 H4384 0.930 . S
C4397 C4396 1.388 . S
C4397 C4398 1.390 . S
C4398 C4397 1.390 . S
C4398 C4399 1.394 . S
C4398 C4404 1.465 . S
C4399 C4394 1.399 . S
C4399 C4398 1.394 . S
C4399 C4400 1.516 . S
C4400 C4399 1.516 . S
C4400 C4401 1.502 . S
C4400 C4402 1.561 . S
C4400 C4403 1.526 . S
C4401 H4385 0.959 . S
C4401 H4386 0.959 . S
C4401 H4387 0.961 . S
C4401 C4400 1.502 . S
C4402 H4388 0.960 . S
C4402 H4389 0.961 . S
C4402 H4390 0.959 . S
C4402 C4400 1.561 . S
C4403 C4400 1.526 . S
C4403 C4404 1.396 . S
C4403 C4408 1.390 . S
C4404 C4398 1.465 . S
C4404 C4403 1.396 . S
C4404 C4405 1.399 . S
C4405 H4391 0.929 . S
C4405 C4404 1.399 . S
C4405 C4406 1.385 . S
C4406 H4392 0.931 . S
C4406 C4405 1.385 . S
C4406 C4407 1.389 . S
C4407 C4406 1.389 . S
C4407 C4408 1.387 . S
C4408 H4393 0.930 . S
C4408 C4403 1.390 . S
C4408 C4407 1.387 . S
H4409 C4421 0.930 . S
H4410 C4423 0.930 . S
H4411 C4424 0.930 . S
H4412 C4428 0.959 . S
H4413 C4428 0.959 . S
H4414 C4428 0.961 . S
H4415 C4429 0.960 . S
H4416 C4429 0.961 . S
H4417 C4429 0.959 . S
H4418 C4432 0.929 . S
H4419 C4433 0.931 . S
H4420 C4435 0.930 . S
C4421 H4409 0.930 . S
C4421 C4422 1.399 . S
C4421 C4426 1.399 . S
C4422 C4421 1.399 . S
C4422 C4423 1.376 . S
C4423 H4410 0.930 . S
C4423 C4422 1.376 . S
C4423 C4424 1.388 . S
C4424 H4411 0.930 . S
C4424 C4423 1.388 . S
C4424 C4425 1.390 . S
C4425 C4424 1.390 . S
C4425 C4426 1.394 . S
C4425 C4431 1.465 . S
C4426 C4421 1.399 . S
C4426 C4425 1.394 . S
C4426 C4427 1.516 . S
C4427 C4426 1.516 . S
C4427 C4428 1.502 . S
C4427 C4429 1.561 . S
C4427 C4430 1.526 . S
C4428 H4412 0.959 . S
C4428 H4413 0.959 . S
C4428 H4414 0.961 . S
C4428 C4427 1.502 . S
C4429 H4415 0.960 . S
C4429 H4416 0.961 . S
C4429 H4417 0.959 . S
C4429 C4427 1.561 . S
C4430 C4427 1.526 . S
C4430 C4431 1.396 . S
C4430 C4435 1.390 . S
C4431 C4425 1.465 . S
C4431 C4430 1.396 . S
C4431 C4432 1.399 . S
C4432 H4418 0.929 . S
C4432 C4431 1.399 . S
C4432 C4433 1.385 . S
C4433 H4419 0.931 . S
C4433 C4432 1.385 . S
C4433 C4434 1.389 . S
C4434 C4433 1.389 . S
C4434 C4435 1.387 . S
C4435 H4420 0.930 . S
C4435 C4430 1.390 . S
C4435 C4434 1.387 . S
H4436 C4448 0.930 . S
H4437 C4450 0.930 . S
H4438 C4451 0.930 1_556 S
H4439 C4455 0.959 . S
H4440 C4455 0.959 1_556 S
H4441 C4455 0.961 . S
H4442 C4456 0.960 . S
H4443 C4456 0.961 . S
H4444 C4456 0.959 . S
H4445 C4459 0.929 . S
H4446 C4460 0.931 . S
H4447 C4462 0.930 . S
C4448 H4436 0.930 . S
C4448 C4449 1.399 . S
C4448 C4453 1.399 . S
C4449 C4448 1.399 . S
C4449 C4450 1.376 . S
C4450 H4437 0.930 . S
C4450 C4449 1.376 . S
C4450 C4451 1.388 . S
C4451 H4438 0.930 1_554 S
C4451 C4450 1.388 . S
C4451 C4452 1.390 1_554 S
C4452 C4451 1.390 1_556 S
C4452 C4453 1.394 1_556 S
C4452 C4458 1.465 . S
C4453 C4448 1.399 . S
C4453 C4452 1.394 1_554 S
C4453 C4454 1.516 1_554 S
C4454 C4453 1.516 1_556 S
C4454 C4455 1.502 1_556 S
C4454 C4456 1.561 . S
C4454 C4457 1.526 . S
C4455 H4439 0.959 . S
C4455 H4440 0.959 1_554 S
C4455 H4441 0.961 . S
C4455 C4454 1.502 1_554 S
C4456 H4442 0.960 . S
C4456 H4443 0.961 . S
C4456 H4444 0.959 . S
C4456 C4454 1.561 . S
C4457 C4454 1.526 . S
C4457 C4458 1.396 . S
C4457 C4462 1.390 . S
C4458 C4452 1.465 . S
C4458 C4457 1.396 . S
C4458 C4459 1.399 . S
C4459 H4445 0.929 . S
C4459 C4458 1.399 . S
C4459 C4460 1.385 . S
C4460 H4446 0.931 . S
C4460 C4459 1.385 . S
C4460 C4461 1.389 . S
C4461 C4460 1.389 . S
C4461 C4462 1.387 . S
C4462 H4447 0.930 . S
C4462 C4457 1.390 . S
C4462 C4461 1.387 . S
H4463 C4475 0.930 . S
H4464 C4477 0.930 . S
H4465 C4478 0.930 . S
H4466 C4482 0.959 . S
H4467 C4482 0.959 . S
H4468 C4482 0.961 . S
H4469 C4483 0.960 . S
H4470 C4483 0.961 . S
H4471 C4483 0.959 . S
H4472 C4486 0.929 . S
H4473 C4487 0.931 . S
H4474 C4489 0.930 . S
C4475 H4463 0.930 . S
C4475 C4476 1.399 . S
C4475 C4480 1.399 . S
C4476 C4475 1.399 . S
C4476 C4477 1.376 . S
C4477 H4464 0.930 . S
C4477 C4476 1.376 . S
C4477 C4478 1.388 . S
C4478 H4465 0.930 . S
C4478 C4477 1.388 . S
C4478 C4479 1.390 . S
C4479 C4478 1.390 . S
C4479 C4480 1.394 . S
C4479 C4485 1.465 . S
C4480 C4475 1.399 . S
C4480 C4479 1.394 . S
C4480 C4481 1.516 . S
C4481 C4480 1.516 . S
C4481 C4482 1.502 . S
C4481 C4483 1.561 . S
C4481 C4484 1.526 . S
C4482 H4466 0.959 . S
C4482 H4467 0.959 . S
C4482 H4468 0.961 . S
C4482 C4481 1.502 . S
C4483 H4469 0.960 . S
C4483 H4470 0.961 . S
C4483 H4471 0.959 . S
C4483 C4481 1.561 . S
C4484 C4481 1.526 . S
C4484 C4485 1.396 . S
C4484 C4489 1.390 . S
C4485 C4479 1.465 . S
C4485 C4484 1.396 . S
C4485 C4486 1.399 . S
C4486 H4472 0.929 . S
C4486 C4485 1.399 . S
C4486 C4487 1.385 . S
C4487 H4473 0.931 . S
C4487 C4486 1.385 . S
C4487 C4488 1.389 . S
C4488 C4487 1.389 . S
C4488 C4489 1.387 . S
C4489 H4474 0.930 . S
C4489 C4484 1.390 . S
C4489 C4488 1.387 . S
H4490 C4502 0.930 . S
H4491 C4504 0.930 . S
H4492 C4505 0.930 . S
H4493 C4509 0.959 . S
H4494 C4509 0.959 . S
H4495 C4509 0.961 . S
H4496 C4510 0.960 . S
H4497 C4510 0.961 . S
H4498 C4510 0.959 . S
H4499 C4513 0.929 . S
H4500 C4514 0.931 . S
H4501 C4516 0.930 . S
C4502 H4490 0.930 . S
C4502 C4503 1.399 . S
C4502 C4507 1.399 . S
C4503 C4502 1.399 . S
C4503 C4504 1.376 . S
C4504 H4491 0.930 . S
C4504 C4503 1.376 . S
C4504 C4505 1.388 . S
C4505 H4492 0.930 . S
C4505 C4504 1.388 . S
C4505 C4506 1.390 . S
C4506 C4505 1.390 . S
C4506 C4507 1.394 . S
C4506 C4512 1.465 . S
C4507 C4502 1.399 . S
C4507 C4506 1.394 . S
C4507 C4508 1.516 . S
C4508 C4507 1.516 . S
C4508 C4509 1.502 . S
C4508 C4510 1.561 . S
C4508 C4511 1.526 . S
C4509 H4493 0.959 . S
C4509 H4494 0.959 . S
C4509 H4495 0.961 . S
C4509 C4508 1.502 . S
C4510 H4496 0.960 . S
C4510 H4497 0.961 . S
C4510 H4498 0.959 . S
C4510 C4508 1.561 . S
C4511 C4508 1.526 . S
C4511 C4512 1.396 . S
C4511 C4516 1.390 . S
C4512 C4506 1.465 . S
C4512 C4511 1.396 . S
C4512 C4513 1.399 . S
C4513 H4499 0.929 . S
C4513 C4512 1.399 . S
C4513 C4514 1.385 . S
C4514 H4500 0.931 . S
C4514 C4513 1.385 . S
C4514 C4515 1.389 . S
C4515 C4514 1.389 . S
C4515 C4516 1.387 . S
C4516 H4501 0.930 . S
C4516 C4511 1.390 . S
C4516 C4515 1.387 . S
H4517 C4529 0.930 . S
H4518 C4531 0.930 . S
H4519 C4532 0.930 . S
H4520 C4536 0.959 . S
H4521 C4536 0.959 . S
H4522 C4536 0.961 . S
H4523 C4537 0.960 . S
H4524 C4537 0.961 . S
H4525 C4537 0.959 . S
H4526 C4540 0.929 . S
H4527 C4541 0.931 . S
H4528 C4543 0.930 . S
C4529 H4517 0.930 . S
C4529 C4530 1.399 . S
C4529 C4534 1.399 . S
C4530 C4529 1.399 . S
C4530 C4531 1.376 . S
C4531 H4518 0.930 . S
C4531 C4530 1.376 . S
C4531 C4532 1.388 . S
C4532 H4519 0.930 . S
C4532 C4531 1.388 . S
C4532 C4533 1.390 . S
C4533 C4532 1.390 . S
C4533 C4534 1.394 . S
C4533 C4539 1.465 . S
C4534 C4529 1.399 . S
C4534 C4533 1.394 . S
C4534 C4535 1.516 . S
C4535 C4534 1.516 . S
C4535 C4536 1.502 . S
C4535 C4537 1.561 . S
C4535 C4538 1.526 . S
C4536 H4520 0.959 . S
C4536 H4521 0.959 . S
C4536 H4522 0.961 . S
C4536 C4535 1.502 . S
C4537 H4523 0.960 . S
C4537 H4524 0.961 . S
C4537 H4525 0.959 . S
C4537 C4535 1.561 . S
C4538 C4535 1.526 . S
C4538 C4539 1.396 . S
C4538 C4543 1.390 . S
C4539 C4533 1.465 . S
C4539 C4538 1.396 . S
C4539 C4540 1.399 . S
C4540 H4526 0.929 . S
C4540 C4539 1.399 . S
C4540 C4541 1.385 . S
C4541 H4527 0.931 . S
C4541 C4540 1.385 . S
C4541 C4542 1.389 . S
C4542 C4541 1.389 . S
C4542 C4543 1.387 . S
C4543 H4528 0.930 . S
C4543 C4538 1.390 . S
C4543 C4542 1.387 . S
C2829 C57 0.925 . S
C2841 C1193 0.919 . S
C2856 C2220 0.919 . S
C2868 C145 0.914 . S
C2883 C225 0.918 . S
C2895 C1377 0.924 . S
C2910 C313 0.914 . S
C2922 C2132 0.918 . S
C2937 C372 0.918 . S
C2949 C1525 0.924 . S
C2964 C460 0.921 . S
C2976 C1993 0.924 . S
C2991 C557 0.925 . S
C3003 C1692 0.920 . S
C3018 C2785 0.923 . S
C3030 C645 0.923 . S
C3045 C1877 0.923 . S
C3057 C733 0.923 . S
C3072 C812 0.921 . S
C3084 C1633 0.915 . S
C3099 C2053 0.918 . S
C3111 C909 0.914 . S
C3126 C1025 0.914 . S
C3138 C1437 0.919 . S
C3153 C1252 0.917 . S
C3165 C1105 0.915 . S
C3180 C1809 0.916 . S
C3192 C2484 0.916 . S
C3207 C2601 0.923 . S
C3219 C2345 0.923 . S
C3234 C2689 0.914 . S
C3246 C2425 0.919 . S
C3261 C29 1.705 . S
C3273 C117 1.697 . S
C3288 C233 1.687 . S
C3300 C108 1.721 . S
C3315 C284 1.708 . S
C3327 C196 1.692 . S
C3342 C293 1.674 . S
C3354 C49 1.717 . S
C3369 C673 1.671 . S
C3381 C401 1.659 . S
C3396 C497 1.720 . S
C3408 C381 1.700 . S
C3423 C585 1.653 . S
C3435 C489 1.686 . S
C3450 C548 1.704 . S
C3462 C665 1.669 . S
C3477 C821 1.692 . S
C3489 C20 1.721 . S
C3504 C753 1.686 . S
C3516 C321 1.723 . S
C3531 C929 1.689 . S
C3543 C137 1.723 . S
C3558 C2405 1.703 . S
C3570 C636 1.672 . S
C3585 C2493 1.693 . S
C3597 C205 1.721 . S
C3612 C1017 1.718 . S
C3624 C409 1.676 . S
C3639 C577 1.719 . S
C3651 C1113 1.680 . S
C3666 C1261 1.667 . S
C3678 C1201 1.708 . S
C3693 C1349 1.719 . S
C3705 C1289 1.689 . S
C3720 C1428 1.711 . S
C3732 C1369 1.659 . S
C3747 C1164 1.662 . S
C3759 C1457 1.715 . S
C3774 C1516 1.673 . S
C3786 C1817 1.705 . S
C3801 C1553 1.684 . S
C3813 C1613 1.689 . S
C3828 C1701 1.688 . S
C3840 C1641 1.664 . S
C3855 C1721 1.719 . S
C3867 C1789 1.684 . S
C3882 C1173 1.680 . S
C3894 C1965 1.718 . S
C3909 C1897 1.727 . S
C3921 C1465 1.674 . S
C3936 C2073 1.677 . S
C3948 C1281 1.706 . S
C3963 C2669 1.678 . S
C3975 C1780 1.702 . S
C3990 C2757 1.663 . S
C4002 C1340 1.712 . S
C4017 C1545 1.685 . S
C4029 C2161 1.689 . S
C4044 C2249 1.719 . S
C4056 C1729 1.683 . S
C4071 C1076 1.655 . S
C4083 C2317 1.701 . S
C4098 C2433 1.694 . S
C4110 C1085 1.721 . S
C4125 C997 1.669 . S
C4137 C2396 1.711 . S
C4152 C988 1.711 . S
C4164 C2337 1.713 . S
C4179 C761 1.656 . S
C4191 C2513 1.675 . S
C4206 C849 1.710 . S
C4218 C724 1.673 . S
C4233 C937 1.710 . S
C4245 C841 1.667 . S
C4260 C900 1.723 . S
C4272 C2521 1.688 . S
C4287 C2308 1.709 . S
C4299 C469 1.673 . S
C4314 C2229 1.667 . S
C4326 C2609 1.708 . S
C4341 C2257 1.723 . S
C4353 C2660 1.685 . S
C4368 C2697 1.699 . S
C4380 C2141 1.658 . S
C4395 C2169 1.726 . S
C4407 C2572 1.678 . S
C4422 C2777 1.700 . S
C4434 C1868 1.657 . S
C4449 C1905 1.661 . S
C4461 C1956 1.717 . S
C4476 C2044 1.690 . S
C4488 C1985 1.663 . S
C4503 C2081 1.661 . S
C4515 C2748 1.722 . S
C4530 C2581 1.722 . S
C4542 C1604 1.686 . S
