# Generated by pormake.
# Topology smm, (6)-cn, num edge types: 1
# Building blocks:
#     Node 0, Type 0, BuildingBlock: MIFKUJ_clean_sbu_0, # of connection points: 6
#     Node 1, Type 0, BuildingBlock: MIFKUJ_clean_sbu_0, # of connection points: 6
#     Node 2, Type 0, BuildingBlock: MIFKUJ_clean_sbu_0, # of connection points: 6
#     Node 3, Type 0, BuildingBlock: MIFKUJ_clean_sbu_0, # of connection points: 6
#     Node 4, Type 0, BuildingBlock: MIFKUJ_clean_sbu_0, # of connection points: 6
#     Node 5, Type 0, BuildingBlock: MIFKUJ_clean_sbu_0, # of connection points: 6
#     Node 6, Type 0, BuildingBlock: MIFKUJ_clean_sbu_0, # of connection points: 6
#     Node 7, Type 0, BuildingBlock: MIFKUJ_clean_sbu_0, # of connection points: 6
#     Node 8, Type 0, BuildingBlock: MIFKUJ_clean_sbu_0, # of connection points: 6
#     Edge 9, Type (0, 0), BuildingBlock: OJICUG_clean_linker_0, # of connection points: 2
#     Edge 10, Type (0, 0), BuildingBlock: OJICUG_clean_linker_0, # of connection points: 2
#     Edge 11, Type (0, 0), BuildingBlock: OJICUG_clean_linker_0, # of connection points: 2
#     Edge 12, Type (0, 0), BuildingBlock: OJICUG_clean_linker_0, # of connection points: 2
#     Edge 13, Type (0, 0), BuildingBlock: OJICUG_clean_linker_0, # of connection points: 2
#     Edge 14, Type (0, 0), BuildingBlock: OJICUG_clean_linker_0, # of connection points: 2
#     Edge 15, Type (0, 0), BuildingBlock: OJICUG_clean_linker_0, # of connection points: 2
#     Edge 16, Type (0, 0), BuildingBlock: OJICUG_clean_linker_0, # of connection points: 2
#     Edge 17, Type (0, 0), BuildingBlock: OJICUG_clean_linker_0, # of connection points: 2
#     Edge 18, Type (0, 0), BuildingBlock: OJICUG_clean_linker_0, # of connection points: 2
#     Edge 19, Type (0, 0), BuildingBlock: OJICUG_clean_linker_0, # of connection points: 2
#     Edge 20, Type (0, 0), BuildingBlock: OJICUG_clean_linker_0, # of connection points: 2
#     Edge 21, Type (0, 0), BuildingBlock: OJICUG_clean_linker_0, # of connection points: 2
#     Edge 22, Type (0, 0), BuildingBlock: OJICUG_clean_linker_0, # of connection points: 2
#     Edge 23, Type (0, 0), BuildingBlock: OJICUG_clean_linker_0, # of connection points: 2
#     Edge 24, Type (0, 0), BuildingBlock: OJICUG_clean_linker_0, # of connection points: 2
#     Edge 25, Type (0, 0), BuildingBlock: OJICUG_clean_linker_0, # of connection points: 2
#     Edge 26, Type (0, 0), BuildingBlock: OJICUG_clean_linker_0, # of connection points: 2
#     Edge 27, Type (0, 0), BuildingBlock: OJICUG_clean_linker_0, # of connection points: 2
#     Edge 28, Type (0, 0), BuildingBlock: OJICUG_clean_linker_0, # of connection points: 2
#     Edge 29, Type (0, 0), BuildingBlock: OJICUG_clean_linker_0, # of connection points: 2
#     Edge 30, Type (0, 0), BuildingBlock: OJICUG_clean_linker_0, # of connection points: 2
#     Edge 31, Type (0, 0), BuildingBlock: OJICUG_clean_linker_0, # of connection points: 2
#     Edge 32, Type (0, 0), BuildingBlock: OJICUG_clean_linker_0, # of connection points: 2
#     Edge 33, Type (0, 0), BuildingBlock: OJICUG_clean_linker_0, # of connection points: 2
#     Edge 34, Type (0, 0), BuildingBlock: OJICUG_clean_linker_0, # of connection points: 2
#     Edge 35, Type (0, 0), BuildingBlock: OJICUG_clean_linker_0, # of connection points: 2
# Relax obj value: 0.030
# Max RMSD: 0.120
# Mean RMSD: 0.104
data_MOF--net-smm--node1-MIFKUJ_clean_sbu_0--edge1-OJICUG_clean_linker_0
_symmetry_space_group_name_H-M    P1
_symmetry_Int_Tables_number       1
_symmetry_cell_setting            triclinic
loop_
_symmetry_equiv_pos_as_xyz
'x, y, z'
_cell_length_a     47.020357
_cell_length_b     48.514845
_cell_length_c     9.5978098
_cell_angle_alpha  92.425182
_cell_angle_beta   92.491972
_cell_angle_gamma 119.83758
loop_
_atom_site_label
_atom_site_type_symbol
_atom_site_fract_x
_atom_site_fract_y
_atom_site_fract_z
_atom_type_partial_charge
Zn0 Zn 0.00542 0.1329 0.15628 0.0
Zn1 Zn 0.03104 0.22768 0.10681 0.0
C2 C 0.07006 0.13992 0.19744 0.0
O3 O 0.07624 0.15747 0.09007 0.0
C4 C 0.98705 0.24567 0.20882 0.0
O5 O 0.00899 0.25476 0.31553 0.0
O6 O 0.9636 0.08949 0.14716 0.0
O7 O 0.00323 0.17039 0.23472 0.0
O8 O 0.03923 0.21964 0.3006 0.0
C9 C 0.97008 0.06729 0.12196 0.0
O10 O 0.00101 0.07465 0.12557 0.0
O11 O 0.04288 0.13028 0.25249 0.0
C12 C 0.06837 0.28084 0.94683 0.0
O13 O 0.04367 0.26364 0.85367 0.0
O14 O 0.0691 0.26956 0.06297 0.0
O15 O 0.02612 0.19084 0.98026 0.0
O16 O 0.01438 0.14077 0.95358 0.0
O17 O 0.99046 0.23204 0.09978 0.0
C18 C 0.0242 0.19064 0.32737 0.0
C19 C 0.02288 0.16736 0.90288 0.0
Zn20 Zn 0.85002 0.8795 0.02263 0.0
Zn21 Zn 0.81783 0.79657 0.0832 0.0
C22 C 0.91759 0.90253 0.08264 0.0
O23 O 0.91086 0.91593 0.18821 0.0
C24 C 0.75261 0.7728 -0.00875 0.0
O25 O 0.76393 0.7617 0.89426 0.0
O26 O 0.85402 0.92219 -0.00406 0.0
O27 O 0.81412 0.84182 0.91206 0.0
O28 O 0.82875 0.80536 0.89118 0.0
C29 C 0.87512 0.93884 0.91228 0.0
O30 O 0.88402 0.92422 0.82056 0.0
O31 O 0.89445 0.8841 -0.0076 0.0
C32 C 0.80232 0.74247 0.23465 0.0
O33 O 0.79287 0.75765 0.32064 0.0
O34 O 0.81575 0.7555 0.12543 0.0
O35 O 0.85415 0.83362 0.19781 0.0
O36 O 0.8421 0.87188 0.21792 0.0
O37 O 0.77186 0.78994 0.09603 0.0
C38 C 0.8236 0.82609 0.83806 0.0
C39 C 0.84794 0.85179 0.2727 0.0
Zn40 Zn 0.12196 0.00353 0.0447 0.0
Zn41 Zn 0.20373 0.98849 0.98237 0.0
C42 C 0.05419 0.95162 -0.00939 0.0
O43 O 0.06271 0.95033 0.86304 0.0
C44 C 0.26515 0.04691 0.07121 0.0
O45 O 0.25302 0.04268 0.19427 0.0
O46 O 0.12877 0.04688 0.10621 0.0
O47 O 0.1559 0.99428 0.12902 0.0
O48 O 0.19456 0.98369 0.18678 0.0
C49 C 0.11263 0.04914 0.20474 0.0
O50 O 0.0943 0.02376 0.27137 0.0
O51 O 0.07579 0.97085 0.08433 0.0
C52 C 0.22199 0.95371 0.79513 0.0
O53 O 0.23416 0.98062 0.73396 0.0
O54 O 0.20618 0.95063 0.90301 0.0
O55 O 0.16765 0.99372 0.88725 0.0
O56 O 0.12648 0.00152 0.83688 0.0
O57 O 0.24801 0.02763 0.96737 0.0
C58 C 0.17184 0.98888 0.22264 0.0
C59 C 0.1486 0.99582 0.79659 0.0
Zn60 Zn 0.68235 0.46959 0.14818 0.0
Zn61 Zn 0.67333 0.55155 0.24213 0.0
C62 C 0.6189 0.41085 0.10842 0.0
O63 O 0.61184 0.4218 0.22137 0.0
C64 C 0.73831 0.60672 0.22972 0.0
O65 O 0.74002 0.59035 0.12103 0.0
O66 O 0.72594 0.47243 0.12378 0.0
O67 O 0.6781 0.5057 0.08149 0.0
O68 O 0.67055 0.54474 0.03084 0.0
C69 C 0.72832 0.45531 0.02622 0.0
O70 O 0.70358 0.43969 0.93154 0.0
O71 O 0.64649 0.42774 0.05851 0.0
C72 C 0.63747 0.56841 0.41789 0.0
O73 O 0.66424 0.57756 0.49972 0.0
O74 O 0.63471 0.55507 0.29751 0.0
O75 O 0.67416 0.51432 0.32781 0.0
O76 O 0.67743 0.47137 0.35589 0.0
O77 O 0.71341 0.59379 0.30137 0.0
C78 C 0.67406 0.52148 0.98971 0.0
C79 C 0.67388 0.49399 0.40728 0.0
Zn80 Zn 0.54983 0.21938 0.08923 0.0
Zn81 Zn 0.46662 0.12808 0.12829 0.0
C82 C 0.60962 0.21555 0.07532 0.0
O83 O 0.59764 0.19522 0.17225 0.0
C84 C 0.40415 0.11916 0.02326 0.0
O85 O 0.4145 0.1147 0.90411 0.0
O86 O 0.5451 0.25795 0.0591 0.0
O87 O 0.51479 0.17758 0.00117 0.0
O88 O 0.47785 0.12975 0.92536 0.0
C89 C 0.56282 0.27767 0.97342 0.0
O90 O 0.58021 0.27019 0.89285 0.0
O91 O 0.59325 0.22779 0.02662 0.0
C92 C 0.44053 0.08098 0.31379 0.0
O93 O 0.43344 0.10228 0.36409 0.0
O94 O 0.45765 0.08707 0.20848 0.0
O95 O 0.50445 0.16605 0.24191 0.0
O96 O 0.54834 0.21272 0.29628 0.0
O97 O 0.42361 0.12818 0.1331 0.0
C98 C 0.50077 0.15707 0.89945 0.0
C99 C 0.52561 0.18629 0.3337 0.0
Zn100 Zn 0.80463 0.33801 0.16742 0.0
Zn101 Zn 0.90244 0.35886 0.27308 0.0
C102 C 0.80686 0.39891 0.14822 0.0
O103 O 0.82904 0.40905 0.25457 0.0
C104 C 0.90364 0.30066 0.20065 0.0
O105 O 0.88795 0.30026 0.08331 0.0
O106 O 0.76627 0.29431 0.11124 0.0
O107 O 0.84842 0.34769 0.10855 0.0
O108 O 0.89853 0.36299 0.06358 0.0
C109 C 0.7464 0.29114 0.00941 0.0
O110 O 0.75456 0.31498 0.92992 0.0
O111 O 0.79417 0.37036 0.09702 0.0
C112 C 0.95173 0.39472 0.48762 0.0
O113 O 0.93548 0.36726 0.54335 0.0
O114 O 0.94181 0.3977 0.36689 0.0
O115 O 0.86087 0.35272 0.35762 0.0
O116 O 0.81058 0.34313 0.37916 0.0
O117 O 0.91001 0.32196 0.29806 0.0
C118 C 0.86946 0.3551 0.01942 0.0
C119 C 0.83865 0.35014 0.43517 0.0
Zn120 Zn 0.35044 0.81025 0.67588 0.0
Zn121 Zn 0.35023 0.89657 0.62141 0.0
C122 C 0.41289 0.81554 0.77247 0.0
O123 O 0.42662 0.84087 0.70044 0.0
C124 C 0.28384 0.88028 0.68575 0.0
O125 O 0.28922 0.86708 0.79286 0.0
O126 O 0.30567 0.77093 0.65886 0.0
O127 O 0.35395 0.84972 0.76949 0.0
O128 O 0.35848 0.89551 0.82909 0.0
C129 C 0.29323 0.75289 0.75741 0.0
O130 O 0.30763 0.76248 0.88435 0.0
O131 O 0.38181 0.79961 0.77341 0.0
C132 C 0.37042 0.95313 0.48184 0.0
O133 O 0.33901 0.93749 0.44093 0.0
O134 O 0.38237 0.9401 0.55869 0.0
O135 O 0.35629 0.862 0.52834 0.0
O136 O 0.36146 0.82061 0.47664 0.0
O137 O 0.30441 0.89006 0.59252 0.0
C138 C 0.35801 0.87037 0.86489 0.0
C139 C 0.36111 0.84524 0.43841 0.0
Zn140 Zn 0.22253 0.56224 0.74458 0.0
Zn141 Zn 0.1376 0.46919 0.77463 0.0
C142 C 0.28883 0.57339 0.7751 0.0
O143 O 0.27832 0.55677 0.88486 0.0
C144 C 0.08331 0.47874 0.70897 0.0
O145 O 0.10391 0.49955 0.62765 0.0
O146 O 0.21616 0.60014 0.73544 0.0
O147 O 0.18771 0.52185 0.63867 0.0
O148 O 0.14628 0.47462 0.57341 0.0
C149 C 0.22566 0.61829 0.6355 0.0
O150 O 0.23463 0.60911 0.52307 0.0
O151 O 0.26854 0.57637 0.69416 0.0
C152 C 0.14425 0.41586 0.89829 0.0
O153 O 0.16765 0.4357 -0.0085 0.0
O154 O 0.13147 0.42628 0.81118 0.0
O155 O 0.1758 0.50744 0.87701 0.0
O156 O 0.21942 0.55275 0.94564 0.0
O157 O 0.09395 0.46616 0.79497 0.0
C158 C 0.17037 0.50071 0.54206 0.0
C159 C 0.19556 0.52632 0.97513 0.0
Zn160 Zn 0.49318 0.70391 0.82074 0.0
Zn161 Zn 0.55208 0.66636 0.76774 0.0
C162 C 0.42616 0.66567 0.76109 0.0
O163 O 0.43464 0.68745 0.67013 0.0
C164 C 0.61232 0.71253 0.92972 0.0
O165 O 0.59609 0.69808 0.0367 0.0
O166 O 0.49513 0.74565 0.86394 0.0
O167 O 0.52859 0.69852 0.90602 0.0
O168 O 0.52996 0.65546 0.94298 0.0
C169 C 0.47537 0.74659 0.94755 0.0
O170 O 0.45894 0.72213 0.02222 0.0
O171 O 0.44806 0.66765 0.8502 0.0
C172 C 0.56024 0.624 0.57561 0.0
O173 O 0.55407 0.63932 0.4803 0.0
O174 O 0.55907 0.63065 0.70374 0.0
O175 O 0.52601 0.67486 0.61756 0.0
O176 O 0.4963 0.69917 0.61747 0.0
O177 O 0.59781 0.70416 0.80743 0.0
C178 C 0.52064 0.67488 0.97833 0.0
C179 C 0.50821 0.68415 0.55419 0.0
C180 C 0.11538 0.33463 0.03409 0.0
C181 C 0.09195 0.3146 0.92604 0.0
H182 H 0.15065 0.38256 0.10995 0.0
C183 C 0.08911 0.32783 0.80262 0.0
H184 H 0.11832 0.32512 0.13028 0.0
C185 C 0.10755 0.36063 0.79128 0.0
C186 C 0.12934 0.38096 0.9029 0.0
H187 H 0.07161 0.31307 0.71678 0.0
H188 H 0.10376 0.37017 0.69669 0.0
C189 C 0.13397 0.36754 0.0225 0.0
C190 C 0.69942 0.75748 0.09736 0.0
C191 C 0.71753 0.76334 0.97899 0.0
H192 H 0.65147 0.73657 0.17465 0.0
C193 C 0.7011 0.75643 0.84546 0.0
H194 H 0.71157 0.76256 0.20139 0.0
C195 C 0.66694 0.74199 0.82988 0.0
C196 C 0.64843 0.73364 0.94764 0.0
H197 H 0.71459 0.76106 0.75245 0.0
H198 H 0.65501 0.73575 0.72512 0.0
C199 C 0.66505 0.7425 0.08178 0.0
C200 C 0.24639 0.93214 0.62676 0.0
C201 C 0.23099 0.92962 0.75148 0.0
H202 H 0.27426 0.9176 0.50525 0.0
C203 C 0.22778 0.90621 0.84104 0.0
H204 H 0.24876 0.94959 0.55438 0.0
C205 C 0.24261 0.88791 0.8133 0.0
C206 C 0.26073 0.89259 0.69512 0.0
H207 H 0.21575 0.90346 0.93736 0.0
H208 H 0.24168 0.87165 0.8893 0.0
C209 C 0.26094 0.91368 0.5984 0.0
C210 C 0.35564 0.10377 0.1657 0.0
C211 C 0.36856 0.10665 0.03426 0.0
H212 H 0.31264 0.08275 0.28054 0.0
C213 C 0.34674 0.09341 0.91401 0.0
H214 H 0.37178 0.11376 0.26041 0.0
C215 C 0.31288 0.07547 0.92559 0.0
C216 C 0.30011 0.07053 0.05765 0.0
H217 H 0.35584 0.09541 0.81101 0.0
H218 H 0.29687 0.06426 0.83127 0.0
C219 C 0.32171 0.08592 0.17724 0.0
C220 C 0.93785 0.28287 0.33273 0.0
C221 C 0.91983 0.28123 0.20899 0.0
H222 H 0.97293 0.27264 0.42977 0.0
C223 C 0.92089 0.26413 0.08916 0.0
H224 H 0.93734 0.29559 0.42727 0.0
C225 C 0.94151 0.25101 0.09037 0.0
C226 C 0.96133 0.25473 0.21153 0.0
H227 H 0.90718 0.2623 -0.00775 0.0
H228 H 0.94306 0.23931 -0.00531 0.0
C229 C 0.95835 0.26976 0.33398 0.0
C230 C 0.79808 0.69098 0.14853 0.0
C231 C 0.79183 0.70859 0.25043 0.0
H232 H 0.78644 0.64478 0.06329 0.0
C233 C 0.77214 0.69265 0.35868 0.0
H234 H 0.81346 0.7026 0.06456 0.0
C235 C 0.75664 0.65949 0.35794 0.0
C236 C 0.76057 0.64162 0.24901 0.0
H237 H 0.76713 0.70553 0.43979 0.0
H238 H 0.7401 0.64779 0.4384 0.0
C239 C 0.78264 0.6578 0.14797 0.0
C240 C 0.02568 0.43737 0.74679 0.0
C241 C 0.04754 0.46263 0.67091 0.0
H242 H 0.97804 0.39612 0.74836 0.0
C243 C 0.03569 0.46839 0.54482 0.0
H244 H 0.03389 0.43252 0.84516 0.0
C245 C 0.00365 0.44735 0.4888 0.0
C246 C 0.98293 0.42029 0.55816 0.0
H247 H 0.0518 0.48779 0.48421 0.0
H248 H 0.99587 0.45128 0.38729 0.0
C249 C 0.99369 0.41638 0.69086 0.0
C250 C 0.59264 0.59785 0.63966 0.0
C251 C 0.57483 0.60423 0.53715 0.0
H252 H 0.62661 0.5815 0.68152 0.0
C253 C 0.57439 0.59473 0.39642 0.0
H254 H 0.59335 0.60475 0.74916 0.0
C255 C 0.59317 0.581 0.35801 0.0
C256 C 0.61305 0.5771 0.45961 0.0
H257 H 0.56066 0.59912 0.31541 0.0
H258 H 0.59361 0.57524 0.24813 0.0
C259 C 0.61181 0.58466 0.60104 0.0
C260 C 0.43881 0.02955 0.35907 0.0
C261 C 0.42453 0.04902 0.36621 0.0
H262 H 0.43297 0.98356 0.39494 0.0
C263 C 0.39346 0.03719 0.41838 0.0
H264 H 0.46281 0.03828 0.31945 0.0
C265 C 0.3763 0.00607 0.4573 0.0
C266 C 0.39024 0.98643 0.44885 0.0
H267 H 0.3818 0.05161 0.42426 0.0
H268 H 0.35193 0.99724 0.49341 0.0
C269 C 0.42191 -0.00151 0.40251 0.0
C270 C 0.12133 0.10158 0.13092 0.0
C271 C 0.10913 0.07765 0.22567 0.0
H272 H 0.11897 0.14081 0.04928 0.0
C273 C 0.08956 0.07893 0.32945 0.0
H274 H 0.13679 0.10149 0.05071 0.0
C275 C 0.07942 0.10151 0.32897 0.0
C276 C 0.08861 0.1232 0.22447 0.0
H277 H 0.08022 0.06119 0.40562 0.0
H278 H 0.06243 0.10039 0.40427 0.0
C279 C 0.11117 0.12421 0.13041 0.0
C280 C 0.88761 0.99216 0.02273 0.0
C281 C 0.89803 0.97275 0.95526 0.0
H282 H 0.90227 0.03791 0.12766 0.0
C283 C 0.93172 0.98471 0.9441 0.0
H284 H 0.86171 0.98324 0.03431 0.0
C285 C 0.95462 0.01507 0.00086 0.0
C286 C 0.94455 0.03477 0.06788 0.0
H287 H 0.94066 0.97012 0.89613 0.0
H288 H 0.98041 0.02308 -0.00869 0.0
C289 C 0.91074 0.02323 0.07694 0.0
C290 C 0.96123 0.90421 0.9357 0.0
C291 C 0.95206 0.91136 0.0637 0.0
H292 H 0.00085 0.91119 0.81217 0.0
C293 C 0.97656 0.92908 0.17159 0.0
H294 H 0.94289 0.89055 0.85064 0.0
C295 C 0.00965 0.94071 0.15003 0.0
C296 C 0.01904 0.93509 0.01963 0.0
H297 H 0.97028 0.93476 0.27191 0.0
H298 H 0.02791 0.95517 0.23412 0.0
C299 C 0.99444 0.91604 0.91374 0.0
C300 C 0.75305 0.42283 0.94691 0.0
C301 C 0.75429 0.44666 0.03957 0.0
H302 H 0.769 0.38913 0.90857 0.0
C303 C 0.77732 0.45839 0.15636 0.0
H304 H 0.73591 0.41353 0.85503 0.0
C305 C 0.79644 0.44439 0.18689 0.0
C306 C 0.79267 0.4184 0.10145 0.0
H307 H 0.77911 0.47696 0.22911 0.0
H308 H 0.81245 0.45254 0.2822 0.0
C309 C 0.77196 0.40875 0.97786 0.0
C310 C 0.574 0.35501 0.13579 0.0
C311 C 0.59839 0.37708 0.05574 0.0
H312 H 0.54307 0.30583 0.17149 0.0
C313 C 0.60607 0.3659 0.93371 0.0
H314 H 0.56731 0.3629 0.22972 0.0
C315 C 0.59212 0.33327 0.90011 0.0
C316 C 0.5703 0.31114 0.98808 0.0
H317 H 0.62436 0.38231 0.86843 0.0
H318 H 0.60014 0.32549 0.81007 0.0
C319 C 0.56007 0.32227 0.10227 0.0
C320 C 0.65501 0.24727 0.92464 0.0
C321 C 0.64396 0.22852 0.03934 0.0
H322 H 0.6963 0.28116 0.8227 0.0
C323 C 0.66682 0.22581 0.12827 0.0
H324 H 0.63788 0.24935 0.85275 0.0
C325 C 0.70048 0.24419 0.11131 0.0
C326 C 0.71168 0.26543 0.00481 0.0
H327 H 0.65898 0.2113 0.21683 0.0
H328 H 0.71769 0.2434 0.18752 0.0
C329 C 0.68854 0.26543 0.90717 0.0
C330 C 0.43485 0.76455 0.98616 0.0
C331 C 0.46403 0.76977 0.92949 0.0
H332 H 0.39575 0.77506 0.98027 0.0
C333 C 0.47896 0.79402 0.83726 0.0
H334 H 0.42282 0.74627 0.05835 0.0
C335 C 0.46345 0.81069 0.79302 0.0
C336 C 0.43265 0.80313 0.83932 0.0
H337 H 0.50161 0.79879 0.79264 0.0
H338 H 0.47451 0.82792 0.71569 0.0
C339 C 0.4192 0.78092 0.94076 0.0
C340 C 0.23816 0.66517 0.79912 0.0
C341 C 0.2351 0.6522 0.66158 0.0
H342 H 0.25896 0.70743 0.93761 0.0
C343 C 0.24608 0.67285 0.55326 0.0
H344 H 0.22976 0.64994 0.88514 0.0
C345 C 0.26247 0.70585 0.58337 0.0
C346 C 0.26863 0.71884 0.72269 0.0
H347 H 0.24379 0.6636 0.44612 0.0
H348 H 0.2724 0.72108 0.49819 0.0
C349 C 0.25497 0.69818 0.82947 0.0
C350 C 0.38082 0.61829 0.86392 0.0
C351 C 0.39161 0.63983 0.75888 0.0
H352 H 0.33971 0.57991 0.95051 0.0
C353 C 0.3688 0.63704 0.65165 0.0
H354 H 0.39789 0.61969 0.94721 0.0
C355 C 0.33564 0.61421 0.6528 0.0
C356 C 0.32449 0.59369 0.76157 0.0
H357 H 0.37638 0.65299 0.56798 0.0
H358 H 0.31861 0.61345 0.57094 0.0
C359 C 0.34752 0.59541 0.8653 0.0
C360 C 0.00776 0.14576 0.65316 0.0
C361 C 0.02762 0.17093 0.75326 0.0
H362 H 0.99101 0.13222 0.43648 0.0
C363 C 0.05006 0.20078 0.70927 0.0
H364 H 0.99038 0.12244 0.68521 0.0
C365 C 0.05086 0.20622 0.56816 0.0
C366 C 0.02877 0.18202 0.4685 0.0
H367 H 0.06613 0.22032 0.78462 0.0
H368 H 0.06741 0.23003 0.53854 0.0
C369 C 0.00816 0.15134 0.51119 0.0
C370 C 0.84393 0.81789 0.61689 0.0
C371 C 0.83182 0.83415 0.69633 0.0
H372 H 0.8591 0.81126 0.41909 0.0
C373 C 0.8273 0.8579 0.63898 0.0
H374 H 0.84789 0.79965 0.65964 0.0
C375 C 0.83373 0.86455 0.50146 0.0
C376 C 0.84458 0.84739 0.42044 0.0
H377 H 0.81827 0.87096 0.69921 0.0
H378 H 0.82935 0.88247 0.45792 0.0
C379 C 0.8504 0.82457 0.47958 0.0
C380 C 0.16571 0.97363 0.60259 0.0
C381 C 0.1527 0.99259 0.64864 0.0
H382 H 0.18231 0.95766 0.42938 0.0
C383 C 0.1447 0.00913 0.55331 0.0
H384 H 0.1708 0.95981 0.67447 0.0
C385 C 0.15081 0.00758 0.41381 0.0
C386 C 0.16456 0.98927 0.36823 0.0
H387 H 0.13476 0.024 0.58722 0.0
H388 H 0.14592 0.02158 0.34241 0.0
C389 C 0.17193 0.97217 0.46304 0.0
C390 C 0.68779 0.48904 0.65361 0.0
C391 C 0.67096 0.49759 0.55658 0.0
H392 H 0.70246 0.49089 0.8693 0.0
C393 C 0.65312 0.51181 0.60303 0.0
H394 H 0.7017 0.478 0.61948 0.0
C395 C 0.65386 0.51948 0.74477 0.0
C396 C 0.67183 0.51217 0.84155 0.0
H397 H 0.63879 0.51712 0.52932 0.0
H398 H 0.6405 0.53113 0.77847 0.0
C399 C 0.68821 0.49635 0.79572 0.0
C400 C 0.53422 0.20375 0.58635 0.0
C401 C 0.52331 0.17918 0.48049 0.0
H402 H 0.53479 0.21548 0.80366 0.0
C403 C 0.50811 0.14739 0.51506 0.0
H404 H 0.54607 0.22847 0.56186 0.0
C405 C 0.50166 0.14003 0.65278 0.0
C406 C 0.51093 0.16451 0.75774 0.0
H407 H 0.50075 0.12824 0.43511 0.0
H408 H 0.48886 0.11525 0.67647 0.0
C409 C 0.52794 0.19638 0.72429 0.0
C410 C 0.87704 0.37569 0.64528 0.0
C411 C 0.84524 0.35421 0.58682 0.0
H412 H 0.90997 0.39262 0.82974 0.0
C413 C 0.82075 0.33502 0.67311 0.0
H414 H 0.89577 0.39158 0.58055 0.0
C415 C 0.82865 0.33598 0.81544 0.0
C416 C 0.86092 0.35624 0.87256 0.0
H417 H 0.79605 0.31824 0.62968 0.0
H418 H 0.81 0.31979 0.87963 0.0
C419 C 0.88501 0.37647 0.78721 0.0
C420 C 0.36656 0.88198 0.25637 0.0
C421 C 0.36478 0.8535 0.29303 0.0
H422 H 0.366 0.90981 0.09118 0.0
C423 C 0.36376 0.83192 0.18844 0.0
H424 H 0.36759 0.89907 0.33521 0.0
C425 C 0.36264 0.83796 0.04863 0.0
C426 C 0.36276 0.86571 0.01177 0.0
H427 H 0.36243 0.80979 0.21402 0.0
H428 H 0.36057 0.8204 0.96971 0.0
C429 C 0.36562 0.8881 0.11672 0.0
C430 C 0.16109 0.49172 0.15173 0.0
C431 C 0.19023 0.51856 0.11955 0.0
H432 H 0.13199 0.46496 0.31279 0.0
C433 C 0.21353 0.53871 0.22666 0.0
H434 H 0.14268 0.47596 0.07051 0.0
C435 C 0.20732 0.53254 0.36504 0.0
C436 C 0.1778 0.50616 0.39723 0.0
H437 H 0.23629 0.55947 0.20387 0.0
H438 H 0.22544 0.54854 0.4465 0.0
C439 C 0.15496 0.48548 0.29002 0.0
C440 C 0.50634 0.70351 0.32112 0.0
C441 C 0.50315 0.67896 0.40245 0.0
H442 H 0.51446 0.7214 0.11857 0.0
C443 C 0.49826 0.65037 0.33786 0.0
H444 H 0.5097 0.72561 0.36969 0.0
C445 C 0.50029 0.64765 0.19451 0.0
C446 C 0.50762 0.6737 0.11501 0.0
H447 H 0.49456 0.63076 0.39923 0.0
H448 H 0.4987 0.62613 0.14818 0.0
C449 C 0.50877 0.70097 0.17759 0.0
loop_
_geom_bond_atom_site_label_1
_geom_bond_atom_site_label_2
_geom_bond_distance
_geom_bond_site_symmetry_2
_ccdc_geom_bond_type
Zn0 O6 1.969 1_455 S
Zn0 O7 1.965 1_455 S
Zn0 O11 2.024 . S
Zn0 O16 1.969 1_554 S
Zn1 O8 1.969 . S
Zn1 O14 1.969 . S
Zn1 O15 1.965 1_554 S
Zn1 O17 2.024 1_455 S
C2 O3 1.229 1_554 S
C2 O11 1.058 . S
O3 C2 1.229 1_556 S
C4 O5 1.229 . S
C4 O17 1.058 . S
O5 C4 1.229 . S
O6 Zn0 1.969 1_655 S
O6 C9 1.267 . S
O7 Zn0 1.965 1_655 S
O7 C18 1.260 1_655 S
O8 Zn1 1.969 . S
O8 C18 1.258 . S
C9 O6 1.267 . S
C9 O10 1.228 . S
O10 C9 1.228 . S
O11 Zn0 2.024 . S
O11 C2 1.058 . S
C12 O13 1.228 . S
C12 O14 1.267 1_556 S
O13 C12 1.228 . S
O14 Zn1 1.969 . S
O14 C12 1.267 1_554 S
O15 Zn1 1.965 1_556 S
O15 C19 1.260 . S
O16 Zn0 1.969 1_556 S
O16 C19 1.258 . S
O17 Zn1 2.024 1_655 S
O17 C4 1.058 . S
C18 O7 1.260 1_455 S
C18 O8 1.258 . S
C19 O15 1.260 . S
C19 O16 1.258 . S
Zn20 O26 1.969 . S
Zn20 O27 1.965 1_554 S
Zn20 O31 2.024 . S
Zn20 O36 1.969 . S
Zn21 O28 1.969 1_554 S
Zn21 O34 1.969 . S
Zn21 O35 1.965 . S
Zn21 O37 2.024 . S
C22 O23 1.229 . S
C22 O31 1.058 . S
O23 C22 1.229 . S
C24 O25 1.231 . S
C24 O37 1.057 1_556 S
O25 C24 1.231 . S
O26 Zn20 1.969 . S
O26 C29 1.267 1_554 S
O27 Zn20 1.965 1_556 S
O27 C38 1.260 . S
O28 Zn21 1.969 1_556 S
O28 C38 1.258 . S
C29 O26 1.267 1_556 S
C29 O30 1.228 . S
O30 C29 1.228 . S
O31 Zn20 2.024 . S
O31 C22 1.058 . S
C32 O33 1.228 . S
C32 O34 1.267 . S
O33 C32 1.228 . S
O34 Zn21 1.969 . S
O34 C32 1.267 . S
O35 Zn21 1.965 . S
O35 C39 1.260 . S
O36 Zn20 1.969 . S
O36 C39 1.258 . S
O37 Zn21 2.024 . S
O37 C24 1.057 1_554 S
C38 O27 1.260 . S
C38 O28 1.258 . S
C39 O35 1.260 . S
C39 O36 1.258 . S
Zn40 O46 1.969 . S
Zn40 O47 1.965 1_556 S
Zn40 O51 2.024 1_546 S
Zn40 O56 1.969 . S
Zn41 O48 1.969 . S
Zn41 O54 1.969 1_545 S
Zn41 O55 1.965 1_544 S
Zn41 O57 2.024 1_554 S
C42 O43 1.229 . S
C42 O51 1.058 1_556 S
O43 C42 1.229 . S
C44 O45 1.229 . S
C44 O57 1.058 1_554 S
O45 C44 1.229 . S
O46 Zn40 1.969 . S
O46 C49 1.267 1_556 S
O47 Zn40 1.965 1_554 S
O47 C58 1.260 . S
O48 Zn41 1.969 . S
O48 C58 1.258 . S
C49 O46 1.267 1_554 S
C49 O50 1.228 . S
O50 C49 1.228 . S
O51 Zn40 2.024 1_564 S
O51 C42 1.058 1_554 S
C52 O53 1.228 . S
C52 O54 1.267 1_556 S
O53 C52 1.228 . S
O54 Zn41 1.969 1_565 S
O54 C52 1.267 1_554 S
O55 Zn41 1.965 1_566 S
O55 C59 1.260 1_565 S
O56 Zn40 1.969 . S
O56 C59 1.258 . S
O57 Zn41 2.024 1_556 S
O57 C44 1.058 1_556 S
C58 O47 1.260 . S
C58 O48 1.258 . S
C59 O55 1.260 1_545 S
C59 O56 1.258 . S
Zn60 O66 1.969 . S
Zn60 O67 1.965 . S
Zn60 O71 2.024 . S
Zn60 O76 1.969 . S
Zn61 O68 1.969 . S
Zn61 O74 1.969 . S
Zn61 O75 1.965 . S
Zn61 O77 2.024 . S
C62 O63 1.229 . S
C62 O71 1.058 . S
O63 C62 1.229 . S
C64 O65 1.229 . S
C64 O77 1.058 . S
O65 C64 1.229 . S
O66 Zn60 1.969 . S
O66 C69 1.267 . S
O67 Zn60 1.965 . S
O67 C78 1.260 . S
O68 Zn61 1.969 . S
O68 C78 1.258 . S
C69 O66 1.267 . S
C69 O70 1.228 . S
O70 C69 1.228 . S
O71 Zn60 2.024 . S
O71 C62 1.058 . S
C72 O73 1.228 . S
C72 O74 1.267 . S
O73 C72 1.228 . S
O74 Zn61 1.969 . S
O74 C72 1.267 . S
O75 Zn61 1.965 . S
O75 C79 1.260 . S
O76 Zn60 1.969 . S
O76 C79 1.258 . S
O77 Zn61 2.024 . S
O77 C64 1.058 . S
C78 O67 1.260 . S
C78 O68 1.258 . S
C79 O75 1.260 . S
C79 O76 1.258 . S
Zn80 O86 1.969 . S
Zn80 O87 1.965 . S
Zn80 O91 2.024 . S
Zn80 O96 1.969 . S
Zn81 O88 1.969 . S
Zn81 O94 1.969 . S
Zn81 O95 1.965 . S
Zn81 O97 2.024 . S
C82 O83 1.229 . S
C82 O91 1.058 . S
O83 C82 1.229 . S
C84 O85 1.229 . S
C84 O97 1.058 . S
O85 C84 1.229 . S
O86 Zn80 1.969 . S
O86 C89 1.267 . S
O87 Zn80 1.965 . S
O87 C98 1.260 . S
O88 Zn81 1.969 . S
O88 C98 1.258 . S
C89 O86 1.267 . S
C89 O90 1.228 . S
O90 C89 1.228 . S
O91 Zn80 2.024 . S
O91 C82 1.058 . S
C92 O93 1.228 . S
C92 O94 1.267 . S
O93 C92 1.228 . S
O94 Zn81 1.969 . S
O94 C92 1.267 . S
O95 Zn81 1.965 . S
O95 C99 1.260 . S
O96 Zn80 1.969 . S
O96 C99 1.258 . S
O97 Zn81 2.024 . S
O97 C84 1.058 . S
C98 O87 1.260 . S
C98 O88 1.258 . S
C99 O95 1.260 . S
C99 O96 1.258 . S
Zn100 O106 1.969 . S
Zn100 O107 1.965 . S
Zn100 O111 2.024 . S
Zn100 O116 1.969 . S
Zn101 O108 1.969 . S
Zn101 O114 1.969 . S
Zn101 O115 1.965 . S
Zn101 O117 2.024 . S
C102 O103 1.229 . S
C102 O111 1.058 . S
O103 C102 1.229 . S
C104 O105 1.229 . S
C104 O117 1.058 . S
O105 C104 1.229 . S
O106 Zn100 1.969 . S
O106 C109 1.267 . S
O107 Zn100 1.965 . S
O107 C118 1.260 . S
O108 Zn101 1.969 . S
O108 C118 1.258 . S
C109 O106 1.267 . S
C109 O110 1.228 . S
O110 C109 1.228 . S
O111 Zn100 2.024 . S
O111 C102 1.058 . S
C112 O113 1.228 . S
C112 O114 1.267 . S
O113 C112 1.228 . S
O114 Zn101 1.969 . S
O114 C112 1.267 . S
O115 Zn101 1.965 . S
O115 C119 1.260 . S
O116 Zn100 1.969 . S
O116 C119 1.258 . S
O117 Zn101 2.024 . S
O117 C104 1.058 . S
C118 O107 1.260 . S
C118 O108 1.258 . S
C119 O115 1.260 . S
C119 O116 1.258 . S
Zn120 O126 1.969 . S
Zn120 O127 1.965 . S
Zn120 O131 2.024 . S
Zn120 O136 1.969 . S
Zn121 O128 1.969 . S
Zn121 O134 1.969 . S
Zn121 O135 1.965 . S
Zn121 O137 2.024 . S
C122 O123 1.229 . S
C122 O131 1.058 . S
O123 C122 1.229 . S
C124 O125 1.229 . S
C124 O137 1.058 . S
O125 C124 1.229 . S
O126 Zn120 1.969 . S
O126 C129 1.267 . S
O127 Zn120 1.965 . S
O127 C138 1.260 . S
O128 Zn121 1.969 . S
O128 C138 1.258 . S
C129 O126 1.267 . S
C129 O130 1.228 . S
O130 C129 1.228 . S
O131 Zn120 2.024 . S
O131 C122 1.058 . S
C132 O133 1.228 . S
C132 O134 1.267 . S
O133 C132 1.228 . S
O134 Zn121 1.969 . S
O134 C132 1.267 . S
O135 Zn121 1.965 . S
O135 C139 1.260 . S
O136 Zn120 1.969 . S
O136 C139 1.258 . S
O137 Zn121 2.024 . S
O137 C124 1.058 . S
C138 O127 1.260 . S
C138 O128 1.258 . S
C139 O135 1.260 . S
C139 O136 1.258 . S
Zn140 O146 1.969 . S
Zn140 O147 1.965 . S
Zn140 O151 2.024 . S
Zn140 O156 1.969 . S
Zn141 O148 1.969 . S
Zn141 O154 1.969 . S
Zn141 O155 1.965 . S
Zn141 O157 2.024 . S
C142 O143 1.229 . S
C142 O151 1.058 . S
O143 C142 1.229 . S
C144 O145 1.229 . S
C144 O157 1.058 . S
O145 C144 1.229 . S
O146 Zn140 1.969 . S
O146 C149 1.267 . S
O147 Zn140 1.965 . S
O147 C158 1.260 . S
O148 Zn141 1.969 . S
O148 C158 1.258 . S
C149 O146 1.267 . S
C149 O150 1.228 . S
O150 C149 1.228 . S
O151 Zn140 2.024 . S
O151 C142 1.058 . S
C152 O153 1.228 . S
C152 O154 1.267 . S
O153 C152 1.228 . S
O154 Zn141 1.969 . S
O154 C152 1.267 . S
O155 Zn141 1.965 . S
O155 C159 1.260 . S
O156 Zn140 1.969 . S
O156 C159 1.258 . S
O157 Zn141 2.024 . S
O157 C144 1.058 . S
C158 O147 1.260 . S
C158 O148 1.258 . S
C159 O155 1.260 . S
C159 O156 1.258 . S
Zn160 O166 1.969 . S
Zn160 O167 1.965 . S
Zn160 O171 2.024 . S
Zn160 O176 1.969 . S
Zn161 O168 1.969 . S
Zn161 O174 1.969 . S
Zn161 O175 1.965 . S
Zn161 O177 2.024 . S
C162 O163 1.229 . S
C162 O171 1.058 . S
O163 C162 1.229 . S
C164 O165 1.229 . S
C164 O177 1.058 . S
O165 C164 1.229 . S
O166 Zn160 1.969 . S
O166 C169 1.267 . S
O167 Zn160 1.965 . S
O167 C178 1.260 . S
O168 Zn161 1.969 . S
O168 C178 1.258 . S
C169 O166 1.267 . S
C169 O170 1.228 . S
O170 C169 1.228 . S
O171 Zn160 2.024 . S
O171 C162 1.058 . S
C172 O173 1.228 . S
C172 O174 1.267 . S
O173 C172 1.228 . S
O174 Zn161 1.969 . S
O174 C172 1.267 . S
O175 Zn161 1.965 . S
O175 C179 1.260 . S
O176 Zn160 1.969 . S
O176 C179 1.258 . S
O177 Zn161 2.024 . S
O177 C164 1.058 . S
C178 O167 1.260 . S
C178 O168 1.258 . S
C179 O175 1.260 . S
C179 O176 1.258 . S
C180 C181 1.387 1_554 S
C180 H184 0.950 . S
C180 C189 1.390 1_554 S
C181 C180 1.387 1_556 S
C181 C183 1.387 . S
H182 C189 0.950 1_554 S
C183 C181 1.387 . S
C183 C185 1.390 . S
C183 H187 0.950 . S
H184 C180 0.950 . S
C185 C183 1.390 . S
C185 C186 1.387 . S
C185 H188 0.950 . S
C186 C185 1.387 . S
C186 C189 1.387 . S
H187 C183 0.950 . S
H188 C185 0.950 . S
C189 C180 1.390 1_556 S
C189 H182 0.950 1_556 S
C189 C186 1.387 . S
C190 C191 1.387 . S
C190 H194 0.950 1_556 S
C190 C199 1.390 . S
C191 C190 1.387 . S
C191 C193 1.387 . S
H192 C199 0.950 . S
C193 C191 1.387 . S
C193 C195 1.390 . S
C193 H197 0.950 . S
H194 C190 0.950 1_554 S
C195 C193 1.390 . S
C195 C196 1.387 . S
C195 H198 0.950 . S
C196 C195 1.387 . S
C196 C199 1.387 . S
H197 C193 0.950 . S
H198 C195 0.950 . S
C199 C190 1.390 . S
C199 H192 0.950 . S
C199 C196 1.387 . S
C200 C201 1.387 . S
C200 H204 0.950 . S
C200 C209 1.390 . S
C201 C200 1.387 . S
C201 C203 1.387 . S
H202 C209 0.950 . S
C203 C201 1.387 . S
C203 C205 1.390 . S
C203 H207 0.950 1_556 S
H204 C200 0.950 . S
C205 C203 1.390 . S
C205 C206 1.387 . S
C205 H208 0.950 . S
C206 C205 1.387 . S
C206 C209 1.387 . S
H207 C203 0.950 1_554 S
H208 C205 0.950 . S
C209 C200 1.390 . S
C209 H202 0.950 . S
C209 C206 1.387 . S
C210 C211 1.387 . S
C210 H214 0.950 . S
C210 C219 1.390 . S
C211 C210 1.387 . S
C211 C213 1.387 . S
H212 C219 0.950 . S
C213 C211 1.387 . S
C213 C215 1.390 . S
C213 H217 0.950 . S
H214 C210 0.950 . S
C215 C213 1.390 . S
C215 C216 1.387 . S
C215 H218 0.950 1_554 S
C216 C215 1.387 . S
C216 C219 1.387 . S
H217 C213 0.950 . S
H218 C215 0.950 1_556 S
C219 C210 1.390 . S
C219 H212 0.950 . S
C219 C216 1.387 . S
C220 C221 1.387 . S
C220 H224 0.950 . S
C220 C229 1.390 . S
C221 C220 1.387 . S
C221 C223 1.387 . S
H222 C229 0.950 . S
C223 C221 1.387 . S
C223 C225 1.390 . S
C223 H227 0.950 . S
H224 C220 0.950 . S
C225 C223 1.390 . S
C225 C226 1.387 . S
C225 H228 0.950 1_554 S
C226 C225 1.387 . S
C226 C229 1.387 . S
H227 C223 0.950 . S
H228 C225 0.950 1_556 S
C229 C220 1.390 . S
C229 H222 0.950 . S
C229 C226 1.387 . S
C230 C231 1.387 . S
C230 H234 0.950 . S
C230 C239 1.390 . S
C231 C230 1.387 . S
C231 C233 1.387 . S
H232 C239 0.950 . S
C233 C231 1.387 . S
C233 C235 1.390 . S
C233 H237 0.950 . S
H234 C230 0.950 . S
C235 C233 1.390 . S
C235 C236 1.387 . S
C235 H238 0.950 . S
C236 C235 1.387 . S
C236 C239 1.387 . S
H237 C233 0.950 . S
H238 C235 0.950 . S
C239 C230 1.390 . S
C239 H232 0.950 . S
C239 C236 1.387 . S
C240 C241 1.387 . S
C240 H244 0.950 . S
C240 C249 1.390 1_455 S
C241 C240 1.387 . S
C241 C243 1.387 . S
H242 C249 0.950 . S
C243 C241 1.387 . S
C243 C245 1.390 . S
C243 H247 0.950 . S
H244 C240 0.950 . S
C245 C243 1.390 . S
C245 C246 1.387 1_455 S
C245 H248 0.950 . S
C246 C245 1.387 1_655 S
C246 C249 1.387 . S
H247 C243 0.950 . S
H248 C245 0.950 . S
C249 C240 1.390 1_655 S
C249 H242 0.950 . S
C249 C246 1.387 . S
C250 C251 1.387 . S
C250 H254 0.950 . S
C250 C259 1.390 . S
C251 C250 1.387 . S
C251 C253 1.387 . S
H252 C259 0.950 . S
C253 C251 1.387 . S
C253 C255 1.390 . S
C253 H257 0.950 . S
H254 C250 0.950 . S
C255 C253 1.390 . S
C255 C256 1.387 . S
C255 H258 0.950 . S
C256 C255 1.387 . S
C256 C259 1.387 . S
H257 C253 0.950 . S
H258 C255 0.950 . S
C259 C250 1.390 . S
C259 H252 0.950 . S
C259 C256 1.387 . S
C260 C261 1.387 . S
C260 H264 0.950 . S
C260 C269 1.390 . S
C261 C260 1.387 . S
C261 C263 1.387 . S
H262 C269 0.950 . S
C263 C261 1.387 . S
C263 C265 1.390 1_545 S
C263 H267 0.950 . S
H264 C260 0.950 . S
C265 C263 1.390 1_565 S
C265 C266 1.387 . S
C265 H268 0.950 . S
C266 C265 1.387 . S
C266 C269 1.387 1_565 S
H267 C263 0.950 . S
H268 C265 0.950 . S
C269 C260 1.390 . S
C269 H262 0.950 . S
C269 C266 1.387 1_545 S
C270 C271 1.387 1_556 S
C270 H274 0.950 . S
C270 C279 1.390 . S
C271 C270 1.387 1_554 S
C271 C273 1.387 . S
H272 C279 0.950 . S
C273 C271 1.387 . S
C273 C275 1.390 . S
C273 H277 0.950 . S
H274 C270 0.950 . S
C275 C273 1.390 . S
C275 C276 1.387 . S
C275 H278 0.950 . S
C276 C275 1.387 . S
C276 C279 1.387 1_554 S
H277 C273 0.950 . S
H278 C275 0.950 . S
C279 C270 1.390 . S
C279 H272 0.950 . S
C279 C276 1.387 1_556 S
C280 C281 1.387 . S
C280 H284 0.950 1_554 S
C280 C289 1.390 1_565 S
C281 C280 1.387 . S
C281 C283 1.387 . S
H282 C289 0.950 . S
C283 C281 1.387 . S
C283 C285 1.390 1_565 S
C283 H287 0.950 . S
H284 C280 0.950 1_556 S
C285 C283 1.390 1_545 S
C285 C286 1.387 . S
C285 H288 0.950 . S
C286 C285 1.387 . S
C286 C289 1.387 . S
H287 C283 0.950 . S
H288 C285 0.950 . S
C289 C280 1.390 1_545 S
C289 H282 0.950 . S
C289 C286 1.387 . S
C290 C291 1.387 1_556 S
C290 H294 0.950 . S
C290 C299 1.390 1_655 S
C291 C290 1.387 1_554 S
C291 C293 1.387 1_655 S
H292 C299 0.950 . S
C293 C291 1.387 1_455 S
C293 C295 1.390 . S
C293 H297 0.950 1_455 S
H294 C290 0.950 . S
C295 C293 1.390 . S
C295 C296 1.387 1_554 S
C295 H298 0.950 . S
C296 C295 1.387 1_556 S
C296 C299 1.387 . S
H297 C293 0.950 1_655 S
H298 C295 0.950 . S
C299 C290 1.390 1_455 S
C299 H292 0.950 . S
C299 C296 1.387 . S
C300 C301 1.387 . S
C300 H304 0.950 . S
C300 C309 1.390 . S
C301 C300 1.387 . S
C301 C303 1.387 . S
H302 C309 0.950 . S
C303 C301 1.387 . S
C303 C305 1.390 . S
C303 H307 0.950 . S
H304 C300 0.950 . S
C305 C303 1.390 . S
C305 C306 1.387 . S
C305 H308 0.950 . S
C306 C305 1.387 . S
C306 C309 1.387 . S
H307 C303 0.950 . S
H308 C305 0.950 . S
C309 C300 1.390 . S
C309 H302 0.950 . S
C309 C306 1.387 . S
C310 C311 1.387 . S
C310 H314 0.950 . S
C310 C319 1.390 . S
C311 C310 1.387 . S
C311 C313 1.387 . S
H312 C319 0.950 . S
C313 C311 1.387 . S
C313 C315 1.390 . S
C313 H317 0.950 . S
H314 C310 0.950 . S
C315 C313 1.390 . S
C315 C316 1.387 . S
C315 H318 0.950 . S
C316 C315 1.387 . S
C316 C319 1.387 . S
H317 C313 0.950 . S
H318 C315 0.950 . S
C319 C310 1.390 . S
C319 H312 0.950 . S
C319 C316 1.387 . S
C320 C321 1.387 . S
C320 H324 0.950 . S
C320 C329 1.390 . S
C321 C320 1.387 . S
C321 C323 1.387 . S
H322 C329 0.953 . S
C323 C321 1.387 . S
C323 C325 1.390 . S
C323 H327 0.950 . S
H324 C320 0.950 . S
C325 C323 1.390 . S
C325 C326 1.387 . S
C325 H328 0.950 . S
C326 C325 1.387 . S
C326 C329 1.387 . S
H327 C323 0.950 . S
H328 C325 0.950 . S
C329 C320 1.390 . S
C329 H322 0.953 . S
C329 C326 1.387 . S
C330 C331 1.387 . S
C330 H334 0.950 . S
C330 C339 1.390 . S
C331 C330 1.387 . S
C331 C333 1.387 . S
H332 C339 0.950 . S
C333 C331 1.387 . S
C333 C335 1.390 . S
C333 H337 0.950 . S
H334 C330 0.950 . S
C335 C333 1.390 . S
C335 C336 1.387 . S
C335 H338 0.950 . S
C336 C335 1.387 . S
C336 C339 1.387 . S
H337 C333 0.950 . S
H338 C335 0.950 . S
C339 C330 1.390 . S
C339 H332 0.950 . S
C339 C336 1.387 . S
C340 C341 1.387 . S
C340 H344 0.950 . S
C340 C349 1.390 . S
C341 C340 1.387 . S
C341 C343 1.387 . S
H342 C349 0.950 . S
C343 C341 1.387 . S
C343 C345 1.390 . S
C343 H347 0.950 . S
H344 C340 0.950 . S
C345 C343 1.390 . S
C345 C346 1.387 . S
C345 H348 0.950 . S
C346 C345 1.387 . S
C346 C349 1.387 . S
H347 C343 0.950 . S
H348 C345 0.950 . S
C349 C340 1.390 . S
C349 H342 0.950 . S
C349 C346 1.387 . S
C350 C351 1.387 . S
C350 H354 0.950 . S
C350 C359 1.390 . S
C351 C350 1.387 . S
C351 C353 1.387 . S
H352 C359 0.950 . S
C353 C351 1.387 . S
C353 C355 1.390 . S
C353 H357 0.950 . S
H354 C350 0.950 . S
C355 C353 1.390 . S
C355 C356 1.387 . S
C355 H358 0.950 . S
C356 C355 1.387 . S
C356 C359 1.387 . S
H357 C353 0.950 . S
H358 C355 0.950 . S
C359 C350 1.390 . S
C359 H352 0.950 . S
C359 C356 1.387 . S
C360 C361 1.387 1_655 S
C360 H364 0.950 . S
C360 C369 1.390 . S
C361 C360 1.387 1_455 S
C361 C363 1.387 . S
H362 C369 0.950 . S
C363 C361 1.387 . S
C363 C365 1.390 . S
C363 H367 0.950 . S
H364 C360 0.950 . S
C365 C363 1.390 . S
C365 C366 1.387 . S
C365 H368 0.950 . S
C366 C365 1.387 . S
C366 C369 1.387 1_455 S
H367 C363 0.950 . S
H368 C365 0.950 . S
C369 C360 1.390 . S
C369 H362 0.950 . S
C369 C366 1.387 1_655 S
C370 C371 1.387 . S
C370 H374 0.950 . S
C370 C379 1.390 . S
C371 C370 1.387 . S
C371 C373 1.387 . S
H372 C379 0.950 . S
C373 C371 1.387 . S
C373 C375 1.390 . S
C373 H377 0.950 . S
H374 C370 0.950 . S
C375 C373 1.390 . S
C375 C376 1.387 . S
C375 H378 0.950 . S
C376 C375 1.387 . S
C376 C379 1.387 . S
H377 C373 0.950 . S
H378 C375 0.950 . S
C379 C370 1.390 . S
C379 H372 0.950 . S
C379 C376 1.387 . S
C380 C381 1.387 . S
C380 H384 0.950 . S
C380 C389 1.390 . S
C381 C380 1.387 . S
C381 C383 1.387 . S
H382 C389 0.950 . S
C383 C381 1.387 . S
C383 C385 1.390 . S
C383 H387 0.950 . S
H384 C380 0.950 . S
C385 C383 1.390 . S
C385 C386 1.387 . S
C385 H388 0.950 . S
C386 C385 1.387 . S
C386 C389 1.387 . S
H387 C383 0.950 . S
H388 C385 0.950 . S
C389 C380 1.390 . S
C389 H382 0.950 . S
C389 C386 1.387 . S
C390 C391 1.387 . S
C390 H394 0.950 . S
C390 C399 1.390 . S
C391 C390 1.387 . S
C391 C393 1.387 . S
H392 C399 0.950 . S
C393 C391 1.387 . S
C393 C395 1.390 . S
C393 H397 0.950 . S
H394 C390 0.950 . S
C395 C393 1.390 . S
C395 C396 1.387 . S
C395 H398 0.950 . S
C396 C395 1.387 . S
C396 C399 1.387 . S
H397 C393 0.950 . S
H398 C395 0.950 . S
C399 C390 1.390 . S
C399 H392 0.950 . S
C399 C396 1.387 . S
C400 C401 1.387 . S
C400 H404 0.950 . S
C400 C409 1.390 . S
C401 C400 1.387 . S
C401 C403 1.387 . S
H402 C409 0.950 . S
C403 C401 1.387 . S
C403 C405 1.390 . S
C403 H407 0.950 . S
H404 C400 0.950 . S
C405 C403 1.390 . S
C405 C406 1.387 . S
C405 H408 0.950 . S
C406 C405 1.387 . S
C406 C409 1.387 . S
H407 C403 0.950 . S
H408 C405 0.950 . S
C409 C400 1.390 . S
C409 H402 0.950 . S
C409 C406 1.387 . S
C410 C411 1.387 . S
C410 H414 0.950 . S
C410 C419 1.390 . S
C411 C410 1.387 . S
C411 C413 1.387 . S
H412 C419 0.950 . S
C413 C411 1.387 . S
C413 C415 1.390 . S
C413 H417 0.950 . S
H414 C410 0.950 . S
C415 C413 1.390 . S
C415 C416 1.387 . S
C415 H418 0.950 . S
C416 C415 1.387 . S
C416 C419 1.387 . S
H417 C413 0.950 . S
H418 C415 0.950 . S
C419 C410 1.390 . S
C419 H412 0.950 . S
C419 C416 1.387 . S
C420 C421 1.387 . S
C420 H424 0.950 . S
C420 C429 1.390 . S
C421 C420 1.387 . S
C421 C423 1.387 . S
H422 C429 0.950 . S
C423 C421 1.387 . S
C423 C425 1.390 . S
C423 H427 0.950 . S
H424 C420 0.950 . S
C425 C423 1.390 . S
C425 C426 1.387 . S
C425 H428 0.950 . S
C426 C425 1.387 . S
C426 C429 1.387 . S
H427 C423 0.950 . S
H428 C425 0.950 . S
C429 C420 1.390 . S
C429 H422 0.950 . S
C429 C426 1.387 . S
C430 C431 1.387 . S
C430 H434 0.950 . S
C430 C439 1.390 . S
C431 C430 1.387 . S
C431 C433 1.387 . S
H432 C439 0.950 . S
C433 C431 1.387 . S
C433 C435 1.390 . S
C433 H437 0.950 . S
H434 C430 0.950 . S
C435 C433 1.390 . S
C435 C436 1.387 . S
C435 H438 0.950 . S
C436 C435 1.387 . S
C436 C439 1.387 . S
H437 C433 0.950 . S
H438 C435 0.950 . S
C439 C430 1.390 . S
C439 H432 0.950 . S
C439 C436 1.387 . S
C440 C441 1.387 . S
C440 H444 0.950 . S
C440 C449 1.390 . S
C441 C440 1.387 . S
C441 C443 1.387 . S
H442 C449 0.950 . S
C443 C441 1.387 . S
C443 C445 1.390 . S
C443 H447 0.950 . S
H444 C440 0.950 . S
C445 C443 1.390 . S
C445 C446 1.387 . S
C445 H448 0.950 . S
C446 C445 1.387 . S
C446 C449 1.387 . S
H447 C443 0.950 . S
H448 C445 0.950 . S
C449 C440 1.390 . S
C449 H442 0.950 . S
C449 C446 1.387 . S
C181 C12 1.494 . S
C186 C152 1.478 . S
C191 C24 1.542 . S
C196 C164 1.516 . S
C201 C52 1.530 . S
C206 C124 1.476 . S
C211 C84 1.445 . S
C216 C44 1.458 . S
C221 C104 1.490 . S
C226 C4 1.485 . S
C231 C32 1.559 . S
C236 C64 1.489 . S
C241 C144 1.463 . S
C246 C112 1.536 . S
C251 C172 1.534 . S
C256 C72 1.527 . S
C261 C92 1.592 . S
C266 C132 1.578 . S
C271 C49 1.448 . S
C276 C2 1.371 . S
C281 C29 1.447 1_554 S
C286 C9 1.424 . S
C291 C22 1.528 . S
C296 C42 1.559 . S
C301 C69 1.477 . S
C306 C102 1.452 . S
C311 C62 1.455 . S
C316 C89 1.485 . S
C321 C82 1.452 . S
C326 C109 1.476 . S
C331 C169 1.551 . S
C336 C122 1.479 . S
C341 C149 1.376 . S
C346 C129 1.351 . S
C351 C162 1.485 . S
C356 C142 1.453 . S
C361 C19 1.278 . S
C366 C18 1.278 . S
C371 C38 1.283 . S
C376 C39 1.283 . S
C381 C59 1.286 . S
C386 C58 1.286 . S
C391 C79 1.278 . S
C396 C78 1.278 1_556 S
C401 C99 1.283 . S
C406 C98 1.283 1_556 S
C411 C119 1.283 . S
C416 C118 1.283 1_556 S
C421 C139 1.283 . S
C426 C138 1.283 1_554 S
C431 C159 1.281 1_554 S
C436 C158 1.281 . S
C441 C179 1.280 . S
C446 C178 1.280 1_554 S
