# Generated by pormake.
# Topology vcr, (7)-cn, num edge types: 1
# Building blocks:
#     Node 0, Type 0, BuildingBlock: HICVOG_clean_sbu_0, # of connection points: 7
#     Node 1, Type 0, BuildingBlock: HICVOG_clean_sbu_0, # of connection points: 7
#     Node 2, Type 0, BuildingBlock: HICVOG_clean_sbu_0, # of connection points: 7
#     Node 3, Type 0, BuildingBlock: HICVOG_clean_sbu_0, # of connection points: 7
#     Node 4, Type 0, BuildingBlock: HICVOG_clean_sbu_0, # of connection points: 7
#     Node 5, Type 0, BuildingBlock: HICVOG_clean_sbu_0, # of connection points: 7
#     Node 6, Type 0, BuildingBlock: HICVOG_clean_sbu_0, # of connection points: 7
#     Node 7, Type 0, BuildingBlock: HICVOG_clean_sbu_0, # of connection points: 7
#     Edge 8, Type (0, 0), BuildingBlock: OJICUG_clean_linker_0, # of connection points: 2
#     Edge 9, Type (0, 0), BuildingBlock: OJICUG_clean_linker_0, # of connection points: 2
#     Edge 10, Type (0, 0), BuildingBlock: OJICUG_clean_linker_0, # of connection points: 2
#     Edge 11, Type (0, 0), BuildingBlock: OJICUG_clean_linker_0, # of connection points: 2
#     Edge 12, Type (0, 0), BuildingBlock: OJICUG_clean_linker_0, # of connection points: 2
#     Edge 13, Type (0, 0), BuildingBlock: OJICUG_clean_linker_0, # of connection points: 2
#     Edge 14, Type (0, 0), BuildingBlock: OJICUG_clean_linker_0, # of connection points: 2
#     Edge 15, Type (0, 0), BuildingBlock: OJICUG_clean_linker_0, # of connection points: 2
#     Edge 16, Type (0, 0), BuildingBlock: OJICUG_clean_linker_0, # of connection points: 2
#     Edge 17, Type (0, 0), BuildingBlock: OJICUG_clean_linker_0, # of connection points: 2
#     Edge 18, Type (0, 0), BuildingBlock: OJICUG_clean_linker_0, # of connection points: 2
#     Edge 19, Type (0, 0), BuildingBlock: OJICUG_clean_linker_0, # of connection points: 2
#     Edge 20, Type (0, 0), BuildingBlock: OJICUG_clean_linker_0, # of connection points: 2
#     Edge 21, Type (0, 0), BuildingBlock: OJICUG_clean_linker_0, # of connection points: 2
#     Edge 22, Type (0, 0), BuildingBlock: OJICUG_clean_linker_0, # of connection points: 2
#     Edge 23, Type (0, 0), BuildingBlock: OJICUG_clean_linker_0, # of connection points: 2
#     Edge 24, Type (0, 0), BuildingBlock: OJICUG_clean_linker_0, # of connection points: 2
#     Edge 25, Type (0, 0), BuildingBlock: OJICUG_clean_linker_0, # of connection points: 2
#     Edge 26, Type (0, 0), BuildingBlock: OJICUG_clean_linker_0, # of connection points: 2
#     Edge 27, Type (0, 0), BuildingBlock: OJICUG_clean_linker_0, # of connection points: 2
#     Edge 28, Type (0, 0), BuildingBlock: OJICUG_clean_linker_0, # of connection points: 2
#     Edge 29, Type (0, 0), BuildingBlock: OJICUG_clean_linker_0, # of connection points: 2
#     Edge 30, Type (0, 0), BuildingBlock: OJICUG_clean_linker_0, # of connection points: 2
#     Edge 31, Type (0, 0), BuildingBlock: OJICUG_clean_linker_0, # of connection points: 2
#     Edge 32, Type (0, 0), BuildingBlock: OJICUG_clean_linker_0, # of connection points: 2
#     Edge 33, Type (0, 0), BuildingBlock: OJICUG_clean_linker_0, # of connection points: 2
#     Edge 34, Type (0, 0), BuildingBlock: OJICUG_clean_linker_0, # of connection points: 2
#     Edge 35, Type (0, 0), BuildingBlock: OJICUG_clean_linker_0, # of connection points: 2
# Relax obj value: 0.332
# Max RMSD: 0.280
# Mean RMSD: 0.280
data_MOF--net-vcr--node1-HICVOG_clean_sbu_0--edge1-OJICUG_clean_linker_0
_symmetry_space_group_name_H-M    P1
_symmetry_Int_Tables_number       1
_symmetry_cell_setting            triclinic
loop_
_symmetry_equiv_pos_as_xyz
'x, y, z'
_cell_length_a     27.19991
_cell_length_b     35.288053
_cell_length_c     15.305062
_cell_angle_alpha  90.017147
_cell_angle_beta   90.00051
_cell_angle_gamma 89.991693
loop_
_atom_site_label
_atom_site_type_symbol
_atom_site_fract_x
_atom_site_fract_y
_atom_site_fract_z
_atom_type_partial_charge
Zn0 Zn 0.17025 0.12858 0.17461 0.0
C1 C 0.08733 0.07024 1.0042 0.0
N2 N 0.12517 0.04624 1.00247 0.0
C3 C 0.15904 0.06338 0.05167 0.0
N4 N 0.14291 0.09732 0.08206 0.0
N5 N 0.09814 0.10185 0.04978 0.0
C6 C 0.96095 0.16668 1.0018 0.0
O7 O 0.97666 0.19988 0.02889 0.0
O8 O 0.24362 0.13623 0.15063 0.0
Zn9 Zn 0.06313 0.14928 0.03145 0.0
N10 N 0.1556 0.10325 0.28668 0.0
C11 C 0.12543 0.04849 0.36039 0.0
C12 C 0.13834 0.06704 0.2837 0.0
C13 C 0.15837 0.1222 0.36434 0.0
N14 N 0.12819 0.06728 0.43737 0.0
C15 C 0.14372 0.10388 0.44238 0.0
O16 O 0.06569 0.18769 0.13104 0.0
C17 C 0.10189 0.20016 0.17537 0.0
O18 O 0.14098 0.18084 0.18573 0.0
H19 H 0.13429 0.05247 0.22226 0.0
H20 H 0.17136 0.15115 0.36462 0.0
C21 C 0.10064 0.15585 0.85452 0.0
C22 C 0.12188 0.17512 0.78293 0.0
C23 C 0.12739 0.23071 0.86999 0.0
C24 C 0.1064 0.21154 0.9402 0.0
N25 N 0.09347 0.17451 0.93147 0.0
N26 N 0.13446 0.2122 0.79335 0.0
H27 H 0.08878 0.1267 0.84911 0.0
C28 C 0.25651 0.15637 0.08567 0.0
O29 O 0.22243 0.17377 0.03989 0.0
O30 O 0.99138 0.1393 0.99815 0.0
H31 H 0.10008 0.22633 1.00091 0.0
H32 H 0.11235 1.01955 0.35866 0.0
H33 H 0.1377 0.26021 0.8761 0.0
Zn34 Zn 0.43858 0.9076 0.07958 0.0
C35 C 0.34079 0.99066 0.10537 0.0
N36 N 0.37254 1.01132 0.05927 0.0
C37 C 0.41214 0.98881 0.05728 0.0
N38 N 0.40464 0.95547 0.09918 0.0
N39 N 0.35954 0.95728 0.13088 0.0
C40 C 0.24265 0.90173 0.13623 0.0
O41 O 0.27593 0.88088 0.09665 0.0
O42 O 0.51038 0.91571 0.04693 0.0
Zn43 Zn 0.33014 0.92714 0.2216 0.0
N44 N 0.40777 0.88284 0.97914 0.0
C45 C 0.37471 0.82632 0.91751 0.0
C46 C 0.3956 0.84563 0.98759 0.0
C47 C 0.39998 0.90153 0.90239 0.0
N48 N 0.36713 0.84482 0.84108 0.0
C49 C 0.37901 0.88203 0.83076 0.0
O50 O 0.35757 0.87426 0.23186 0.0
C51 C 0.39732 0.85561 0.22214 0.0
O52 O 0.43384 0.86884 0.17947 0.0
H53 H 0.40256 0.83076 0.04791 0.0
H54 H 0.41125 0.93082 0.89702 0.0
C55 C 0.34147 0.93351 0.41138 0.0
C56 C 0.35448 0.95241 0.48972 0.0
C57 C 0.36895 1.00852 0.408 0.0
C58 C 0.35763 0.98945 0.33116 0.0
N59 N 0.34321 0.95257 0.33376 0.0
N60 N 0.36733 0.98963 0.48489 0.0
H61 H 0.33049 0.90407 0.41141 0.0
C62 C 0.53998 0.88787 0.05227 0.0
O63 O 0.52347 0.85524 0.08139 0.0
O64 O 0.25647 0.92425 0.19642 0.0
H65 H 0.36145 1.00403 0.26996 0.0
H66 H 0.36499 0.7967 0.92348 0.0
H67 H 0.38003 0.03795 0.40643 0.0
Zn68 Zn 0.17118 0.42604 0.3022 0.0
C69 C 0.08554 0.49136 0.44909 0.0
N70 N 0.12427 0.51459 0.44297 0.0
C71 C 0.15817 0.49199 0.40798 0.0
N72 N 0.14118 0.45703 0.39143 0.0
N73 N 0.0955 0.45575 0.42074 0.0
C74 C 0.95996 0.38796 0.47034 0.0
O75 O 0.97679 0.3551 0.44324 0.0
O76 O 0.24464 0.42312 0.32929 0.0
Zn77 Zn 0.06141 0.40789 0.44185 0.0
N78 N 0.15954 0.4505 0.18733 0.0
C79 C 0.13741 0.50649 0.10931 0.0
C80 C 0.1467 0.48778 0.18736 0.0
C81 C 0.16146 0.43075 0.11044 0.0
N82 N 0.13943 0.48697 0.03337 0.0
C83 C 0.15065 0.44942 0.03064 0.0
O84 O 0.0661 0.3693 0.34159 0.0
C85 C 0.10326 0.35516 0.30229 0.0
O86 O 0.14357 0.3732 0.29414 0.0
H87 H 0.14263 0.50316 0.24718 0.0
H88 H 0.17107 0.40102 0.11186 0.0
C89 C 0.10335 0.40059 0.6183 0.0
C90 C 0.12216 0.37975 0.68992 0.0
C91 C 0.11787 0.32369 0.60436 0.0
C92 C 0.0986 0.34426 0.53475 0.0
N93 N 0.0917 0.3823 0.54248 0.0
N94 N 0.1288 0.34175 0.68007 0.0
H95 H 0.0966 0.43066 0.62329 0.0
C96 C 0.2583 0.4007 0.38976 0.0
O97 O 0.22495 0.37978 0.42891 0.0
O98 O 0.98922 0.41611 0.47329 0.0
H99 H 0.08846 0.32969 0.47544 0.0
H100 H 0.12766 0.53621 0.10913 0.0
H101 H 0.1234 0.29342 0.5988 0.0
Zn102 Zn 0.43654 0.64937 0.49381 0.0
C103 C 0.34024 0.56355 0.47116 0.0
N104 N 0.37398 0.54577 0.51946 0.0
C105 C 0.41188 0.56975 0.5195 0.0
N106 N 0.40131 0.60189 0.47558 0.0
N107 N 0.35655 0.59777 0.44289 0.0
C108 C 0.24311 0.65715 0.4424 0.0
O109 O 0.27739 0.67407 0.48864 0.0
O110 O 0.50818 0.63943 0.52793 0.0
Zn111 Zn 0.32926 0.6297 0.35137 0.0
N112 N 0.40603 0.67495 0.59332 0.0
C113 C 0.37264 0.73151 0.65411 0.0
C114 C 0.39368 0.71209 0.58429 0.0
C115 C 0.39829 0.65644 0.67028 0.0
N116 N 0.36502 0.71316 0.73075 0.0
C117 C 0.37707 0.676 0.74154 0.0
O118 O 0.35848 0.68196 0.34154 0.0
C119 C 0.39798 0.70084 0.35104 0.0
O120 O 0.43447 0.68775 0.3937 0.0
H121 H 0.40053 0.72679 0.5237 0.0
H122 H 0.40976 0.62721 0.67598 0.0
C123 C 0.34069 0.62372 0.16077 0.0
C124 C 0.35529 0.60546 0.08256 0.0
C125 C 0.37485 0.55031 0.16437 0.0
C126 C 0.36197 0.5688 0.24116 0.0
N127 N 0.34405 0.60483 0.23844 0.0
N128 N 0.37143 0.56901 0.08743 0.0
H129 H 0.32727 0.65256 0.16054 0.0
C130 C 0.53854 0.66686 0.52425 0.0
O131 O 0.52281 0.69996 0.49667 0.0
O132 O 0.25577 0.63752 0.37638 0.0
H133 H 0.36655 0.55426 0.30247 0.0
H134 H 0.36276 0.76108 0.64772 0.0
H135 H 0.38841 0.5215 0.16597 0.0
Zn136 Zn 0.8297 0.92668 0.85282 0.0
C137 C 0.91259 0.98502 0.02327 0.0
N138 N 0.87475 1.00901 0.02499 0.0
C139 C 0.84088 0.99187 0.97578 0.0
N140 N 0.85702 0.95794 0.94539 0.0
N141 N 0.90179 0.95341 0.97768 0.0
C142 C 0.03895 0.88855 0.0258 0.0
O143 O 0.02321 0.85534 0.99887 0.0
O144 O 0.75632 0.91904 0.87671 0.0
Zn145 Zn 0.9368 0.90598 0.996 0.0
N146 N 0.84438 0.952 0.74077 0.0
C147 C 0.8746 1.00676 0.66708 0.0
C148 C 0.86167 0.9882 0.74377 0.0
C149 C 0.84161 0.93306 0.66311 0.0
N150 N 0.87183 0.98797 0.5901 0.0
C151 C 0.85627 0.95137 0.58507 0.0
O152 O 0.93426 0.86758 0.89641 0.0
C153 C 0.89806 0.85509 0.85206 0.0
O154 O 0.85897 0.87441 0.8417 0.0
H155 H 0.86572 1.00277 0.80522 0.0
H156 H 0.82859 0.90411 0.66282 0.0
C157 C 0.89931 0.89941 0.17293 0.0
C158 C 0.87807 0.88013 0.24452 0.0
C159 C 0.87253 0.82455 0.15745 0.0
C160 C 0.89352 0.84371 0.08724 0.0
N161 N 0.90647 0.88074 0.09598 0.0
N162 N 0.86547 0.84306 0.23409 0.0
H163 H 0.91118 0.92855 0.17834 0.0
C164 C 0.74335 0.8987 0.94131 0.0
O165 O 0.77737 0.8811 0.98681 0.0
O166 O 0.00856 0.91595 0.0293 0.0
H167 H 0.89982 0.82893 0.02653 0.0
H168 H 0.8877 0.03569 0.66882 0.0
H169 H 0.8622 0.79506 0.15134 0.0
Zn170 Zn 0.56135 0.14766 0.94771 0.0
C171 C 0.65915 0.06459 0.92195 0.0
N172 N 0.6274 0.04394 0.96804 0.0
C173 C 0.5878 0.06645 0.97002 0.0
N174 N 0.5953 0.09979 0.92813 0.0
N175 N 0.64041 0.09798 0.89644 0.0
C176 C 0.75728 0.15349 0.89125 0.0
O177 O 0.72397 0.17429 0.93088 0.0
O178 O 0.48955 0.13953 0.98033 0.0
Zn179 Zn 0.66982 0.12812 0.80574 0.0
N180 N 0.59214 0.17242 0.04818 0.0
C181 C 0.62514 0.22895 0.10983 0.0
C182 C 0.60427 0.20964 0.03974 0.0
C183 C 0.59995 0.15373 0.12493 0.0
N184 N 0.63274 0.21045 0.18625 0.0
C185 C 0.6209 0.17324 0.19657 0.0
O186 O 0.64241 0.181 0.79552 0.0
C187 C 0.60266 0.19966 0.80522 0.0
O188 O 0.56612 0.18643 0.84783 0.0
H189 H 0.59729 0.22451 0.97943 0.0
H190 H 0.5887 0.12443 0.13028 0.0
C191 C 0.65848 0.12177 0.61594 0.0
C192 C 0.64548 0.10286 0.5376 0.0
C193 C 0.63103 0.04675 0.61932 0.0
C194 C 0.64234 0.06581 0.69616 0.0
N195 N 0.65675 0.1027 0.69357 0.0
N196 N 0.63264 0.06564 0.54243 0.0
H197 H 0.66945 0.15121 0.61592 0.0
C198 C 0.45984 0.16728 0.97449 0.0
O199 O 0.47622 0.19986 0.94486 0.0
O200 O 0.74348 0.13101 0.83096 0.0
H201 H 0.63853 0.05124 0.75735 0.0
H202 H 0.63483 0.25858 0.10387 0.0
H203 H 0.61996 1.01731 0.62088 0.0
Zn204 Zn 0.8289 0.62921 0.72518 0.0
C205 C 0.91457 0.5639 0.5783 0.0
N206 N 0.87584 0.54067 0.58438 0.0
C207 C 0.84193 0.56326 0.61937 0.0
N208 N 0.85892 0.59822 0.63596 0.0
N209 N 0.90459 0.59951 0.60668 0.0
C210 C 0.04024 0.66721 0.55765 0.0
O211 O 0.02353 0.70003 0.58524 0.0
O212 O 0.75545 0.6321 0.69805 0.0
Zn213 Zn 0.93868 0.64737 0.58559 0.0
N214 N 0.84055 0.60475 0.84006 0.0
C215 C 0.86268 0.54877 0.91808 0.0
C216 C 0.85339 0.56747 0.84003 0.0
C217 C 0.83863 0.62451 0.91696 0.0
N218 N 0.86067 0.56828 0.99401 0.0
C219 C 0.84945 0.60583 0.99675 0.0
O220 O 0.93395 0.68596 0.68584 0.0
C221 C 0.89678 0.7001 0.7251 0.0
O222 O 0.85647 0.68205 0.73322 0.0
H223 H 0.85746 0.5521 0.7802 0.0
H224 H 0.82903 0.65423 0.91554 0.0
C225 C 0.89676 0.65466 0.40911 0.0
C226 C 0.87799 0.67551 0.33746 0.0
C227 C 0.88233 0.73158 0.42299 0.0
C228 C 0.90158 0.711 0.49262 0.0
N229 N 0.90843 0.67295 0.48492 0.0
N230 N 0.87139 0.71351 0.34729 0.0
H231 H 0.90348 0.62459 0.40415 0.0
C232 C 0.74185 0.65443 0.63736 0.0
O233 O 0.77524 0.67526 0.59805 0.0
O234 O 0.01088 0.63914 0.55421 0.0
H235 H 0.91173 0.72557 0.55192 0.0
H236 H 0.87243 0.51904 0.91825 0.0
H237 H 0.87685 0.76185 0.42853 0.0
Zn238 Zn 0.67082 0.42559 0.67611 0.0
C239 C 0.58819 0.48551 0.50794 0.0
N240 N 0.62616 0.50944 0.50773 0.0
C241 C 0.65988 0.49168 0.55611 0.0
N242 N 0.64349 0.45752 0.58465 0.0
N243 N 0.5987 0.45342 0.5521 0.0
C244 C 0.46164 0.38835 0.50279 0.0
O245 O 0.47743 0.35522 0.53016 0.0
O246 O 0.74431 0.41779 0.65109 0.0
Zn247 Zn 0.56357 0.40592 0.53363 0.0
N248 N 0.65604 0.45047 0.78902 0.0
C249 C 0.62522 0.505 0.86302 0.0
C250 C 0.63811 0.4865 0.78625 0.0
C251 C 0.65941 0.4316 0.8667 0.0
N252 N 0.62865 0.48631 0.93998 0.0
C253 C 0.6448 0.44987 0.94489 0.0
O254 O 0.5656 0.36753 0.6337 0.0
C255 C 0.60207 0.35445 0.67644 0.0
O256 O 0.64156 0.37333 0.68598 0.0
H257 H 0.63353 0.50103 0.72493 0.0
H258 H 0.67285 0.40276 0.86695 0.0
C259 C 0.60188 0.39889 0.3572 0.0
C260 C 0.62318 0.37937 0.28597 0.0
C261 C 0.62782 0.32389 0.37348 0.0
C262 C 0.60669 0.34328 0.44326 0.0
N263 N 0.5942 0.38039 0.43418 0.0
N264 N 0.63537 0.34224 0.29682 0.0
H265 H 0.59031 0.4281 0.35145 0.0
C266 C 0.75705 0.39794 0.58546 0.0
O267 O 0.72284 0.38077 0.53954 0.0
O268 O 0.49193 0.41581 0.49938 0.0
H269 H 0.59989 0.32858 0.50386 0.0
H270 H 0.61165 0.53381 0.86139 0.0
H271 H 0.63781 0.29434 0.37991 0.0
C272 C 0.37344 0.19158 0.97854 0.0
C273 C 0.40781 0.16371 1.00257 0.0
H274 H 0.29896 0.21097 0.98549 0.0
C275 C 0.39207 0.13328 0.05499 0.0
H276 H 0.38425 0.21534 0.93808 0.0
C277 C 0.34313 0.13117 0.08365 0.0
C278 C 0.30881 0.15904 0.059 0.0
H279 H 0.41764 0.11135 0.0747 0.0
H280 H 0.33203 0.10745 0.12396 0.0
C281 C 0.32449 0.18909 1.00573 0.0
C282 C 0.17429 0.86762 0.06061 0.0
C283 C 0.19029 0.8991 0.10906 0.0
H284 H 0.11449 0.83962 0.99715 0.0
C285 C 0.15618 0.92788 0.12881 0.0
H286 H 0.19953 0.84497 0.04407 0.0
C287 C 0.10713 0.92509 0.10046 0.0
C288 C 0.0911 0.89314 0.05319 0.0
H289 H 0.16749 0.95271 0.16527 0.0
H290 H 0.08169 0.94767 0.11649 0.0
C291 C 0.12538 0.86454 0.03366 0.0
C292 C 0.37533 0.36413 0.49438 0.0
C293 C 0.40956 0.39274 0.47481 0.0
H294 H 0.30131 0.34435 0.4834 0.0
C295 C 0.39357 0.42451 0.42689 0.0
H296 H 0.38619 0.33934 0.53139 0.0
C297 C 0.34462 0.42709 0.39792 0.0
C298 C 0.31055 0.3983 0.4177 0.0
H299 H 0.41898 0.44709 0.41079 0.0
H300 H 0.33335 0.45178 0.3609 0.0
C301 C 0.32651 0.367 0.46683 0.0
C302 C 0.12669 0.69146 0.55331 0.0
C303 C 0.09218 0.6638 0.52863 0.0
H304 H 0.20115 0.71087 0.54592 0.0
C305 C 0.10759 0.63392 0.47424 0.0
H306 H 0.1161 0.71484 0.59515 0.0
C307 C 0.15636 0.63205 0.4445 0.0
C308 C 0.19088 0.65965 0.46994 0.0
H309 H 0.08185 0.6123 0.45365 0.0
H310 H 0.16718 0.60873 0.4027 0.0
C311 C 0.1755 0.68921 0.52504 0.0
C312 C 0.65682 0.92408 0.94372 0.0
C313 C 0.69104 0.89605 0.96789 0.0
H314 H 0.58238 0.94403 0.953 0.0
C315 C 0.67524 0.86586 0.02063 0.0
H316 H 0.668 0.94791 0.90383 0.0
C317 C 0.62628 0.86338 0.04776 0.0
C318 C 0.59202 0.89142 0.02422 0.0
H319 H 0.70069 0.84386 0.04049 0.0
H320 H 0.61538 0.83951 0.0878 0.0
C321 C 0.60787 0.92198 0.97233 0.0
C322 C 0.8256 0.18757 0.96707 0.0
C323 C 0.80963 0.15611 0.91847 0.0
H324 H 0.88536 0.21555 0.03067 0.0
C325 C 0.84377 0.12737 0.8986 0.0
H326 H 0.80034 0.21018 0.9837 0.0
C327 C 0.89281 0.13017 0.92698 0.0
C328 C 0.90881 0.16209 0.9744 0.0
H329 H 0.83248 0.10256 0.86203 0.0
H330 H 0.91828 0.10761 0.91086 0.0
C331 C 0.8745 0.19065 0.99404 0.0
C332 C 0.65549 0.62811 0.62933 0.0
C333 C 0.68961 0.65684 0.60935 0.0
H334 H 0.5811 0.60818 0.61661 0.0
C335 C 0.67371 0.68809 0.55999 0.0
H336 H 0.66672 0.60347 0.66652 0.0
C337 C 0.62489 0.69098 0.53241 0.0
C338 C 0.59061 0.66243 0.5522 0.0
H339 H 0.69895 0.71069 0.54325 0.0
H340 H 0.61408 0.71572 0.49522 0.0
C341 C 0.60655 0.63071 0.60035 0.0
C342 C 0.8437 0.42324 0.58286 0.0
C343 C 0.80929 0.39546 0.55797 0.0
H344 H 0.91812 0.44314 0.5733 0.0
C345 C 0.8248 0.36574 0.50346 0.0
H346 H 0.83278 0.44669 0.6242 0.0
C347 C 0.87361 0.36351 0.47523 0.0
C348 C 0.90802 0.39134 0.49934 0.0
H349 H 0.79924 0.34393 0.48302 0.0
H350 H 0.8843 0.34 0.43385 0.0
C351 C 0.89247 0.42138 0.55315 0.0
C352 C 0.1455 0.29522 0.25956 0.0
C353 C 0.10141 0.3155 0.26994 0.0
H354 H 0.18001 0.24324 0.22355 0.0
C355 C 0.0567 0.29717 0.25111 0.0
H356 H 0.1806 0.30822 0.27439 0.0
C357 C 0.05638 0.25959 0.22058 0.0
C358 C 0.10069 0.23941 0.21052 0.0
H359 H 0.0221 0.31201 0.25879 0.0
H360 H 0.02153 0.24633 0.20516 0.0
C361 C 0.14512 0.2577 0.23105 0.0
C362 C 0.35491 0.75923 0.29998 0.0
C363 C 0.39935 0.74021 0.31662 0.0
H364 H 0.3196 0.81018 0.25894 0.0
C365 C 0.44385 0.75967 0.30267 0.0
H366 H 0.31989 0.74535 0.31067 0.0
C367 C 0.44369 0.79718 0.27156 0.0
C368 C 0.399 0.81617 0.25609 0.0
H369 H 0.47871 0.74584 0.31509 0.0
H370 H 0.47842 0.8114 0.26049 0.0
C371 C 0.35473 0.79667 0.27095 0.0
C372 C 0.85487 0.79756 0.79631 0.0
C373 C 0.89929 0.81585 0.81689 0.0
H374 H 0.81941 0.74703 0.75291 0.0
C375 C 0.94361 0.79568 0.80688 0.0
H376 H 0.81997 0.81201 0.80378 0.0
C377 C 0.94331 0.7581 0.77633 0.0
C378 C 0.8986 0.73976 0.75744 0.0
H379 H 0.97844 0.80895 0.82234 0.0
H380 H 0.97791 0.74326 0.76869 0.0
C381 C 0.85451 0.76004 0.76778 0.0
C382 C 0.55632 0.2581 0.75577 0.0
C383 C 0.601 0.2391 0.77133 0.0
H384 H 0.52132 0.30944 0.71219 0.0
C385 C 0.64527 0.25861 0.75661 0.0
H386 H 0.52158 0.24387 0.76673 0.0
C387 C 0.64511 0.29607 0.72761 0.0
C388 C 0.60068 0.31508 0.71087 0.0
H389 H 0.68039 0.24511 0.76869 0.0
H390 H 0.68013 0.30995 0.71703 0.0
C391 C 0.55617 0.29561 0.72469 0.0
C392 C 0.27656 0.03255 0.16421 0.0
C393 C 0.28981 1.00181 0.11149 0.0
H394 H 0.223 0.07451 0.19127 0.0
C395 C 0.25877 0.98994 0.04442 0.0
H396 H 0.30087 0.04286 0.21483 0.0
C397 C 0.21637 1.01024 0.0263 0.0
C398 C 0.20388 0.04247 0.07595 0.0
H399 H 0.26932 0.96688 1.00147 0.0
H400 H 0.19434 1.00128 0.97106 0.0
C401 C 0.23301 0.05202 0.14798 0.0
C402 C 0.22296 0.53478 0.35511 0.0
C403 C 0.2092 0.50338 0.40518 0.0
H404 H 0.27694 0.57665 0.33175 0.0
C405 C 0.2398 0.49045 0.47191 0.0
H406 H 0.19905 0.54582 0.30464 0.0
C407 C 0.28232 0.51031 0.49222 0.0
C408 C 0.29533 0.5431 0.44505 0.0
H409 H 0.22884 0.46688 0.51296 0.0
H410 H 0.30405 0.50052 0.54707 0.0
C411 C 0.26658 0.55374 0.37339 0.0
C412 C 0.72341 1.02272 0.86314 0.0
C413 C 0.71013 0.05345 0.91588 0.0
H414 H 0.77698 0.98076 0.83611 0.0
C415 C 0.74115 0.06531 0.983 0.0
H416 H 0.69911 1.01242 0.81248 0.0
C417 C 0.78354 0.045 1.00115 0.0
C418 C 0.79605 1.01278 0.95148 0.0
H419 H 0.73058 0.08835 0.02597 0.0
H420 H 0.80555 0.05395 0.05643 0.0
C421 C 0.76695 1.00324 0.87941 0.0
C422 C 0.73349 0.50154 0.65394 0.0
C423 C 0.7048 0.51212 0.58215 0.0
H424 H 0.80096 0.50952 0.72285 0.0
C425 C 0.71787 0.54486 0.53484 0.0
H426 H 0.72309 0.47867 0.69565 0.0
C427 C 0.76037 0.56473 0.55519 0.0
C428 C 0.7909 0.55187 0.6221 0.0
H429 H 0.69619 0.55459 0.47989 0.0
H430 H 0.77137 0.58826 0.51405 0.0
C431 C 0.77709 0.52052 0.67227 0.0
C432 C 0.03036 1.02394 0.94078 0.0
C433 C 0.03853 0.05335 1.00087 0.0
H434 H 0.9853 0.97694 0.90429 0.0
C435 C 0.00778 0.05691 0.07387 0.0
H436 H 0.0548 1.01995 0.88559 0.0
C437 C 0.96956 0.03132 0.08668 0.0
C438 C 0.96139 1.00191 0.0266 0.0
H439 H 0.01462 0.07832 0.12317 0.0
H440 H 0.94512 0.03531 0.14187 0.0
C441 C 0.99214 0.99835 0.9536 0.0
C442 C 0.54107 1.0243 0.06736 0.0
C443 C 0.5409 0.05082 0.99873 0.0
H444 H 0.50031 0.98239 0.13813 0.0
C445 C 0.49964 0.0539 0.94483 0.0
H446 H 0.57327 1.02083 0.10832 0.0
C447 C 0.45887 0.03095 0.95993 0.0
C448 C 0.45903 1.00443 0.02856 0.0
H449 H 0.49963 0.07287 0.88916 0.0
H450 H 0.42667 0.03442 0.91898 0.0
C451 C 0.5003 1.00135 0.08246 0.0
C452 C 0.01599 0.49385 0.55331 0.0
C453 C 0.03847 0.50667 0.47702 0.0
H454 H 0.95955 0.50389 0.64764 0.0
C455 C 0.02255 0.54062 0.43788 0.0
H456 H 0.02885 0.46859 0.58611 0.0
C457 C 0.98412 0.56142 0.4741 0.0
C458 C 0.96165 0.5486 0.55039 0.0
H459 H 0.04056 0.55139 0.37977 0.0
H460 H 0.97126 0.58668 0.4413 0.0
C461 C 0.97757 0.51465 0.58954 0.0
C462 C 0.49286 0.55714 0.45387 0.0
C463 C 0.46078 0.55299 0.52484 0.0
H464 H 0.55721 0.53644 0.38931 0.0
C465 C 0.4683 0.52336 0.58464 0.0
H466 H 0.48659 0.5787 0.4047 0.0
C467 C 0.50724 0.4982 0.57368 0.0
C468 C 0.53932 0.50235 0.5027 0.0
H469 H 0.4429 0.5189 0.63823 0.0
H470 H 0.5135 0.47663 0.62283 0.0
C471 C 0.53181 0.53199 0.44291 0.0
C472 C 0.13731 0.11763 0.68826 0.0
C473 C 0.12965 0.15687 0.69618 0.0
H474 H 0.14874 0.0706 0.60271 0.0
C475 C 0.12993 0.1791 0.61973 0.0
H476 H 0.13888 0.09961 0.74539 0.0
C477 C 0.13596 0.16243 0.53735 0.0
C478 C 0.14235 0.12303 0.52928 0.0
H479 H 0.12416 0.20944 0.62321 0.0
H480 H 0.13381 0.18043 0.48027 0.0
C481 C 0.14346 0.101 0.60603 0.0
C482 C 0.36462 0.89417 0.58513 0.0
C483 C 0.35687 0.93341 0.57678 0.0
H484 H 0.37797 0.84754 0.67125 0.0
C485 C 0.35521 0.95553 0.65348 0.0
H486 H 0.36727 0.87609 0.52824 0.0
C487 C 0.36207 0.93916 0.73581 0.0
C488 C 0.37088 0.9001 0.74394 0.0
H489 H 0.34892 0.98581 0.65008 0.0
H490 H 0.36005 0.95721 0.79288 0.0
C491 C 0.37127 0.87776 0.6676 0.0
C492 C 0.15342 0.45174 0.86702 0.0
C493 C 0.14863 0.43006 0.94396 0.0
H494 H 0.14985 0.45338 0.72755 0.0
C495 C 0.13742 0.39133 0.93586 0.0
H496 H 0.16257 0.48158 0.87029 0.0
C497 C 0.12979 0.37514 0.85331 0.0
C498 C 0.13272 0.39724 0.7767 0.0
H499 H 0.13251 0.3737 0.99302 0.0
H500 H 0.12002 0.34542 0.84985 0.0
C501 C 0.14564 0.43562 0.78469 0.0
C502 C 0.36868 0.68037 0.90467 0.0
C503 C 0.36891 0.65798 0.82841 0.0
H504 H 0.36488 0.68195 0.04418 0.0
C505 C 0.36098 0.6188 0.83666 0.0
H506 H 0.37462 0.71068 0.90094 0.0
C507 C 0.35479 0.60234 0.91902 0.0
C508 C 0.35614 0.62451 0.9956 0.0
H509 H 0.35932 0.60067 0.77969 0.0
H510 H 0.34943 0.57197 0.92262 0.0
C511 C 0.3626 0.66388 0.98721 0.0
C512 C 0.87002 0.87616 0.40772 0.0
C513 C 0.8703 0.89839 0.33127 0.0
H514 H 0.86614 0.87482 0.54718 0.0
C515 C 0.86267 0.93763 0.3392 0.0
H516 H 0.87578 0.84582 0.40424 0.0
C517 C 0.85653 0.95426 0.42143 0.0
C518 C 0.85763 0.93223 0.49818 0.0
H519 H 0.8611 0.95565 0.28207 0.0
H520 H 0.85127 0.98466 0.42476 0.0
C521 C 0.864 0.89282 0.4901 0.0
C522 C 0.6353 0.1611 0.44219 0.0
C523 C 0.64307 0.12186 0.45054 0.0
H524 H 0.62192 0.20773 0.35608 0.0
C525 C 0.64474 0.09974 0.37384 0.0
H526 H 0.63265 0.17918 0.49908 0.0
C527 C 0.63787 0.11611 0.29151 0.0
C528 C 0.62904 0.15517 0.28338 0.0
H529 H 0.65105 0.06947 0.37724 0.0
H530 H 0.63991 0.09806 0.23444 0.0
C531 C 0.62864 0.17751 0.35972 0.0
C532 C 0.84668 0.60352 0.16037 0.0
C533 C 0.85148 0.6252 0.08343 0.0
H534 H 0.85026 0.60188 0.29985 0.0
C535 C 0.86271 0.66392 0.09152 0.0
H536 H 0.83752 0.57368 0.15711 0.0
C537 C 0.87035 0.68011 0.17408 0.0
C538 C 0.86742 0.65801 0.25069 0.0
H539 H 0.86762 0.68156 0.03437 0.0
H540 H 0.88014 0.70983 0.17753 0.0
C541 C 0.85448 0.61964 0.24271 0.0
C542 C 0.63156 0.37498 0.12285 0.0
C543 C 0.63129 0.39738 0.19909 0.0
H544 H 0.63536 0.37338 0.98335 0.0
C545 C 0.63912 0.43657 0.1908 0.0
H546 H 0.62569 0.34466 0.12662 0.0
C547 C 0.64527 0.45302 0.10843 0.0
C548 C 0.64398 0.43084 0.03187 0.0
H549 H 0.64074 0.45472 0.24775 0.0
H550 H 0.65057 0.48341 0.1048 0.0
C551 C 0.6376 0.39147 0.0403 0.0
loop_
_geom_bond_atom_site_label_1
_geom_bond_atom_site_label_2
_geom_bond_distance
_geom_bond_site_symmetry_2
_ccdc_geom_bond_type
Zn0 N4 2.020 . S
Zn0 O8 2.019 . S
Zn0 N10 2.119 . S
Zn0 O18 1.975 . S
C1 N2 1.334 . S
C1 N5 1.336 . S
N2 C1 1.334 . S
N2 C3 1.334 . S
C3 N2 1.334 . S
C3 N4 1.336 . S
N4 Zn0 2.020 . S
N4 C3 1.336 . S
N4 N5 1.354 . S
N5 C1 1.336 . S
N5 N4 1.354 . S
N5 Zn9 2.020 . S
C6 O7 1.244 . S
C6 O30 1.257 1_554 S
O7 C6 1.244 . S
O8 Zn0 2.019 . S
O8 C28 1.257 . S
Zn9 N5 2.020 . S
Zn9 O16 1.975 . S
Zn9 N25 2.119 1_554 S
Zn9 O30 2.019 1_454 S
N10 Zn0 2.119 . S
N10 C12 1.334 . S
N10 C13 1.328 . S
C11 C12 1.391 . S
C11 N14 1.329 . S
C11 H32 0.930 . S
C12 N10 1.334 . S
C12 C11 1.391 . S
C12 H19 0.930 . S
C13 N10 1.328 . S
C13 C15 1.392 . S
C13 H20 0.930 . S
N14 C11 1.329 . S
N14 C15 1.331 . S
C15 C13 1.392 . S
C15 N14 1.331 . S
O16 Zn9 1.975 . S
O16 C17 1.252 . S
C17 O16 1.252 . S
C17 O18 1.252 . S
O18 Zn0 1.975 . S
O18 C17 1.252 . S
H19 C12 0.930 . S
H20 C13 0.930 . S
C21 C22 1.392 . S
C21 N25 1.328 . S
C21 H27 0.930 . S
C22 C21 1.392 . S
C22 N26 1.331 . S
C23 C24 1.391 . S
C23 N26 1.329 . S
C23 H33 0.930 . S
C24 C23 1.391 . S
C24 N25 1.334 . S
C24 H31 0.930 . S
N25 Zn9 2.119 1_556 S
N25 C21 1.328 . S
N25 C24 1.334 . S
N26 C22 1.331 . S
N26 C23 1.329 . S
H27 C21 0.930 . S
C28 O8 1.257 . S
C28 O29 1.244 . S
O29 C28 1.244 . S
O30 C6 1.257 1_556 S
O30 Zn9 2.019 1_656 S
H31 C24 0.930 . S
H32 C11 0.930 . S
H33 C23 0.930 . S
Zn34 N38 2.020 . S
Zn34 O42 2.019 1_554 S
Zn34 N44 2.119 1_554 S
Zn34 O52 1.975 . S
C35 N36 1.334 . S
C35 N39 1.336 . S
N36 C35 1.334 . S
N36 C37 1.334 . S
C37 N36 1.334 . S
C37 N38 1.336 . S
N38 Zn34 2.020 . S
N38 C37 1.336 . S
N38 N39 1.354 . S
N39 C35 1.336 . S
N39 N38 1.354 . S
N39 Zn43 2.020 . S
C40 O41 1.244 . S
C40 O64 1.257 . S
O41 C40 1.244 . S
O42 Zn34 2.019 1_556 S
O42 C62 1.257 1_556 S
Zn43 N39 2.020 . S
Zn43 O50 1.975 . S
Zn43 N59 2.119 . S
Zn43 O64 2.019 . S
N44 Zn34 2.119 1_556 S
N44 C46 1.334 . S
N44 C47 1.328 . S
C45 C46 1.391 . S
C45 N48 1.329 . S
C45 H66 0.930 . S
C46 N44 1.334 . S
C46 C45 1.391 . S
C46 H53 0.930 . S
C47 N44 1.328 . S
C47 C49 1.392 . S
C47 H54 0.930 . S
N48 C45 1.329 . S
N48 C49 1.331 . S
C49 C47 1.392 . S
C49 N48 1.331 . S
O50 Zn43 1.975 . S
O50 C51 1.252 . S
C51 O50 1.252 . S
C51 O52 1.252 . S
O52 Zn34 1.975 . S
O52 C51 1.252 . S
H53 C46 0.930 . S
H54 C47 0.930 . S
C55 C56 1.392 . S
C55 N59 1.328 . S
C55 H61 0.930 . S
C56 C55 1.392 . S
C56 N60 1.331 . S
C57 C58 1.391 . S
C57 N60 1.329 . S
C57 H67 0.930 . S
C58 C57 1.391 . S
C58 N59 1.334 . S
C58 H65 0.930 . S
N59 Zn43 2.119 . S
N59 C55 1.328 . S
N59 C58 1.334 . S
N60 C56 1.331 . S
N60 C57 1.329 . S
H61 C55 0.930 . S
C62 O42 1.257 1_554 S
C62 O63 1.244 . S
O63 C62 1.244 . S
O64 C40 1.257 . S
O64 Zn43 2.019 . S
H65 C58 0.930 . S
H66 C45 0.930 . S
H67 C57 0.930 . S
Zn68 N72 2.020 . S
Zn68 O76 2.019 . S
Zn68 N78 2.119 . S
Zn68 O86 1.975 . S
C69 N70 1.334 . S
C69 N73 1.336 . S
N70 C69 1.334 . S
N70 C71 1.334 . S
C71 N70 1.334 . S
C71 N72 1.336 . S
N72 Zn68 2.020 . S
N72 C71 1.336 . S
N72 N73 1.354 . S
N73 C69 1.336 . S
N73 N72 1.354 . S
N73 Zn77 2.020 . S
C74 O75 1.244 . S
C74 O98 1.257 . S
O75 C74 1.244 . S
O76 Zn68 2.019 . S
O76 C96 1.257 . S
Zn77 N73 2.020 . S
Zn77 O84 1.975 . S
Zn77 N93 2.119 . S
Zn77 O98 2.019 1_455 S
N78 Zn68 2.119 . S
N78 C80 1.334 . S
N78 C81 1.328 . S
C79 C80 1.391 . S
C79 N82 1.329 . S
C79 H100 0.930 . S
C80 N78 1.334 . S
C80 C79 1.391 . S
C80 H87 0.930 . S
C81 N78 1.328 . S
C81 C83 1.392 . S
C81 H88 0.930 . S
N82 C79 1.329 . S
N82 C83 1.331 . S
C83 C81 1.392 . S
C83 N82 1.331 . S
O84 Zn77 1.975 . S
O84 C85 1.252 . S
C85 O84 1.252 . S
C85 O86 1.252 . S
O86 Zn68 1.975 . S
O86 C85 1.252 . S
H87 C80 0.930 . S
H88 C81 0.930 . S
C89 C90 1.392 . S
C89 N93 1.328 . S
C89 H95 0.930 . S
C90 C89 1.392 . S
C90 N94 1.331 . S
C91 C92 1.391 . S
C91 N94 1.329 . S
C91 H101 0.930 . S
C92 C91 1.391 . S
C92 N93 1.334 . S
C92 H99 0.930 . S
N93 Zn77 2.119 . S
N93 C89 1.328 . S
N93 C92 1.334 . S
N94 C90 1.331 . S
N94 C91 1.329 . S
H95 C89 0.930 . S
C96 O76 1.257 . S
C96 O97 1.244 . S
O97 C96 1.244 . S
O98 C74 1.257 . S
O98 Zn77 2.019 1_655 S
H99 C92 0.930 . S
H100 C79 0.930 . S
H101 C91 0.930 . S
Zn102 N106 2.020 . S
Zn102 O110 2.019 . S
Zn102 N112 2.119 . S
Zn102 O120 1.975 . S
C103 N104 1.334 . S
C103 N107 1.336 . S
N104 C103 1.334 . S
N104 C105 1.334 . S
C105 N104 1.334 . S
C105 N106 1.336 . S
N106 Zn102 2.020 . S
N106 C105 1.336 . S
N106 N107 1.354 . S
N107 C103 1.336 . S
N107 N106 1.354 . S
N107 Zn111 2.020 . S
C108 O109 1.244 . S
C108 O132 1.257 . S
O109 C108 1.244 . S
O110 Zn102 2.019 . S
O110 C130 1.257 . S
Zn111 N107 2.020 . S
Zn111 O118 1.975 . S
Zn111 N127 2.119 . S
Zn111 O132 2.019 . S
N112 Zn102 2.119 . S
N112 C114 1.334 . S
N112 C115 1.328 . S
C113 C114 1.391 . S
C113 N116 1.329 . S
C113 H134 0.930 . S
C114 N112 1.334 . S
C114 C113 1.391 . S
C114 H121 0.930 . S
C115 N112 1.328 . S
C115 C117 1.392 . S
C115 H122 0.930 . S
N116 C113 1.329 . S
N116 C117 1.331 . S
C117 C115 1.392 . S
C117 N116 1.331 . S
O118 Zn111 1.975 . S
O118 C119 1.252 . S
C119 O118 1.252 . S
C119 O120 1.252 . S
O120 Zn102 1.975 . S
O120 C119 1.252 . S
H121 C114 0.930 . S
H122 C115 0.930 . S
C123 C124 1.392 . S
C123 N127 1.328 . S
C123 H129 0.930 . S
C124 C123 1.392 . S
C124 N128 1.331 . S
C125 C126 1.391 . S
C125 N128 1.329 . S
C125 H135 0.930 . S
C126 C125 1.391 . S
C126 N127 1.334 . S
C126 H133 0.930 . S
N127 Zn111 2.119 . S
N127 C123 1.328 . S
N127 C126 1.334 . S
N128 C124 1.331 . S
N128 C125 1.329 . S
H129 C123 0.930 . S
C130 O110 1.257 . S
C130 O131 1.244 . S
O131 C130 1.244 . S
O132 C108 1.257 . S
O132 Zn111 2.019 . S
H133 C126 0.930 . S
H134 C113 0.930 . S
H135 C125 0.930 . S
Zn136 N140 2.020 . S
Zn136 O144 2.019 . S
Zn136 N146 2.119 . S
Zn136 O154 1.975 . S
C137 N138 1.334 . S
C137 N141 1.336 . S
N138 C137 1.334 . S
N138 C139 1.334 . S
C139 N138 1.334 . S
C139 N140 1.336 . S
N140 Zn136 2.020 . S
N140 C139 1.336 . S
N140 N141 1.354 . S
N141 C137 1.336 . S
N141 N140 1.354 . S
N141 Zn145 2.020 . S
C142 O143 1.244 . S
C142 O166 1.257 1_556 S
O143 C142 1.244 . S
O144 Zn136 2.019 . S
O144 C164 1.257 . S
Zn145 N141 2.020 . S
Zn145 O152 1.975 . S
Zn145 N161 2.119 1_556 S
Zn145 O166 2.019 1_656 S
N146 Zn136 2.119 . S
N146 C148 1.334 . S
N146 C149 1.328 . S
C147 C148 1.391 . S
C147 N150 1.329 . S
C147 H168 0.930 . S
C148 N146 1.334 . S
C148 C147 1.391 . S
C148 H155 0.930 . S
C149 N146 1.328 . S
C149 C151 1.392 . S
C149 H156 0.930 . S
N150 C147 1.329 . S
N150 C151 1.331 . S
C151 C149 1.392 . S
C151 N150 1.331 . S
O152 Zn145 1.975 . S
O152 C153 1.252 . S
C153 O152 1.252 . S
C153 O154 1.252 . S
O154 Zn136 1.975 . S
O154 C153 1.252 . S
H155 C148 0.930 . S
H156 C149 0.930 . S
C157 C158 1.392 . S
C157 N161 1.328 . S
C157 H163 0.930 . S
C158 C157 1.392 . S
C158 N162 1.331 . S
C159 C160 1.391 . S
C159 N162 1.329 . S
C159 H169 0.930 . S
C160 C159 1.391 . S
C160 N161 1.334 . S
C160 H167 0.930 . S
N161 Zn145 2.119 1_554 S
N161 C157 1.328 . S
N161 C160 1.334 . S
N162 C158 1.331 . S
N162 C159 1.329 . S
H163 C157 0.930 . S
C164 O144 1.257 . S
C164 O165 1.244 . S
O165 C164 1.244 . S
O166 C142 1.257 1_554 S
O166 Zn145 2.019 1_454 S
H167 C160 0.930 . S
H168 C147 0.930 . S
H169 C159 0.930 . S
Zn170 N174 2.020 . S
Zn170 O178 2.019 1_556 S
Zn170 N180 2.119 1_556 S
Zn170 O188 1.975 . S
C171 N172 1.334 . S
C171 N175 1.336 . S
N172 C171 1.334 . S
N172 C173 1.334 . S
C173 N172 1.334 . S
C173 N174 1.336 . S
N174 Zn170 2.020 . S
N174 C173 1.336 . S
N174 N175 1.354 . S
N175 C171 1.336 . S
N175 N174 1.354 . S
N175 Zn179 2.020 . S
C176 O177 1.244 . S
C176 O200 1.257 . S
O177 C176 1.244 . S
O178 Zn170 2.019 1_554 S
O178 C198 1.257 1_554 S
Zn179 N175 2.020 . S
Zn179 O186 1.975 . S
Zn179 N195 2.119 . S
Zn179 O200 2.019 . S
N180 Zn170 2.119 1_554 S
N180 C182 1.334 . S
N180 C183 1.328 . S
C181 C182 1.391 . S
C181 N184 1.329 . S
C181 H202 0.930 . S
C182 N180 1.334 . S
C182 C181 1.391 . S
C182 H189 0.930 . S
C183 N180 1.328 . S
C183 C185 1.392 . S
C183 H190 0.930 . S
N184 C181 1.329 . S
N184 C185 1.331 . S
C185 C183 1.392 . S
C185 N184 1.331 . S
O186 Zn179 1.975 . S
O186 C187 1.252 . S
C187 O186 1.252 . S
C187 O188 1.252 . S
O188 Zn170 1.975 . S
O188 C187 1.252 . S
H189 C182 0.930 . S
H190 C183 0.930 . S
C191 C192 1.392 . S
C191 N195 1.328 . S
C191 H197 0.930 . S
C192 C191 1.392 . S
C192 N196 1.331 . S
C193 C194 1.391 . S
C193 N196 1.329 . S
C193 H203 0.930 . S
C194 C193 1.391 . S
C194 N195 1.334 . S
C194 H201 0.930 . S
N195 Zn179 2.119 . S
N195 C191 1.328 . S
N195 C194 1.334 . S
N196 C192 1.331 . S
N196 C193 1.329 . S
H197 C191 0.930 . S
C198 O178 1.257 1_556 S
C198 O199 1.244 . S
O199 C198 1.244 . S
O200 C176 1.257 . S
O200 Zn179 2.019 . S
H201 C194 0.930 . S
H202 C181 0.930 . S
H203 C193 0.930 . S
Zn204 N208 2.020 . S
Zn204 O212 2.019 . S
Zn204 N214 2.119 . S
Zn204 O222 1.975 . S
C205 N206 1.334 . S
C205 N209 1.336 . S
N206 C205 1.334 . S
N206 C207 1.334 . S
C207 N206 1.334 . S
C207 N208 1.336 . S
N208 Zn204 2.020 . S
N208 C207 1.336 . S
N208 N209 1.354 . S
N209 C205 1.336 . S
N209 N208 1.354 . S
N209 Zn213 2.020 . S
C210 O211 1.244 . S
C210 O234 1.257 . S
O211 C210 1.244 . S
O212 Zn204 2.019 . S
O212 C232 1.257 . S
Zn213 N209 2.020 . S
Zn213 O220 1.975 . S
Zn213 N229 2.119 . S
Zn213 O234 2.019 1_655 S
N214 Zn204 2.119 . S
N214 C216 1.334 . S
N214 C217 1.328 . S
C215 C216 1.391 . S
C215 N218 1.329 . S
C215 H236 0.930 . S
C216 N214 1.334 . S
C216 C215 1.391 . S
C216 H223 0.930 . S
C217 N214 1.328 . S
C217 C219 1.392 . S
C217 H224 0.930 . S
N218 C215 1.329 . S
N218 C219 1.331 . S
C219 C217 1.392 . S
C219 N218 1.331 . S
O220 Zn213 1.975 . S
O220 C221 1.252 . S
C221 O220 1.252 . S
C221 O222 1.252 . S
O222 Zn204 1.975 . S
O222 C221 1.252 . S
H223 C216 0.930 . S
H224 C217 0.930 . S
C225 C226 1.392 . S
C225 N229 1.328 . S
C225 H231 0.930 . S
C226 C225 1.392 . S
C226 N230 1.331 . S
C227 C228 1.391 . S
C227 N230 1.329 . S
C227 H237 0.930 . S
C228 C227 1.391 . S
C228 N229 1.334 . S
C228 H235 0.930 . S
N229 Zn213 2.119 . S
N229 C225 1.328 . S
N229 C228 1.334 . S
N230 C226 1.331 . S
N230 C227 1.329 . S
H231 C225 0.930 . S
C232 O212 1.257 . S
C232 O233 1.244 . S
O233 C232 1.244 . S
O234 C210 1.257 . S
O234 Zn213 2.019 1_455 S
H235 C228 0.930 . S
H236 C215 0.930 . S
H237 C227 0.930 . S
Zn238 N242 2.020 . S
Zn238 O246 2.019 . S
Zn238 N248 2.119 . S
Zn238 O256 1.975 . S
C239 N240 1.334 . S
C239 N243 1.336 . S
N240 C239 1.334 . S
N240 C241 1.334 . S
C241 N240 1.334 . S
C241 N242 1.336 . S
N242 Zn238 2.020 . S
N242 C241 1.336 . S
N242 N243 1.354 . S
N243 C239 1.336 . S
N243 N242 1.354 . S
N243 Zn247 2.020 . S
C244 O245 1.244 . S
C244 O268 1.257 . S
O245 C244 1.244 . S
O246 Zn238 2.019 . S
O246 C266 1.257 . S
Zn247 N243 2.020 . S
Zn247 O254 1.975 . S
Zn247 N263 2.119 . S
Zn247 O268 2.019 . S
N248 Zn238 2.119 . S
N248 C250 1.334 . S
N248 C251 1.328 . S
C249 C250 1.391 . S
C249 N252 1.329 . S
C249 H270 0.930 . S
C250 N248 1.334 . S
C250 C249 1.391 . S
C250 H257 0.930 . S
C251 N248 1.328 . S
C251 C253 1.392 . S
C251 H258 0.930 . S
N252 C249 1.329 . S
N252 C253 1.331 . S
C253 C251 1.392 . S
C253 N252 1.331 . S
O254 Zn247 1.975 . S
O254 C255 1.252 . S
C255 O254 1.252 . S
C255 O256 1.252 . S
O256 Zn238 1.975 . S
O256 C255 1.252 . S
H257 C250 0.930 . S
H258 C251 0.930 . S
C259 C260 1.392 . S
C259 N263 1.328 . S
C259 H265 0.930 . S
C260 C259 1.392 . S
C260 N264 1.331 . S
C261 C262 1.391 . S
C261 N264 1.329 . S
C261 H271 0.930 . S
C262 C261 1.391 . S
C262 N263 1.334 . S
C262 H269 0.930 . S
N263 Zn247 2.119 . S
N263 C259 1.328 . S
N263 C262 1.334 . S
N264 C260 1.331 . S
N264 C261 1.329 . S
H265 C259 0.930 . S
C266 O246 1.257 . S
C266 O267 1.244 . S
O267 C266 1.244 . S
O268 C244 1.257 . S
O268 Zn247 2.019 . S
H269 C262 0.930 . S
H270 C249 0.930 . S
H271 C261 0.930 . S
C272 C273 1.387 1_554 S
C272 H276 0.950 . S
C272 C281 1.390 . S
C273 C272 1.387 1_556 S
C273 C275 1.387 1_556 S
H274 C281 0.950 . S
C275 C273 1.387 1_554 S
C275 C277 1.390 . S
C275 H279 0.950 . S
H276 C272 0.950 . S
C277 C275 1.390 . S
C277 C278 1.387 . S
C277 H280 0.950 . S
C278 C277 1.387 . S
C278 C281 1.387 . S
H279 C275 0.950 . S
H280 C277 0.950 . S
C281 C272 1.390 . S
C281 H274 0.950 . S
C281 C278 1.387 . S
C282 C283 1.387 . S
C282 H286 0.950 . S
C282 C291 1.390 . S
C283 C282 1.387 . S
C283 C285 1.387 . S
H284 C291 0.950 . S
C285 C283 1.387 . S
C285 C287 1.390 . S
C285 H289 0.950 . S
H286 C282 0.950 . S
C287 C285 1.390 . S
C287 C288 1.387 1_554 S
C287 H290 0.950 . S
C288 C287 1.387 1_556 S
C288 C291 1.387 1_556 S
H289 C285 0.950 . S
H290 C287 0.950 . S
C291 C282 1.390 . S
C291 H284 0.950 . S
C291 C288 1.387 1_554 S
C292 C293 1.387 . S
C292 H296 0.950 . S
C292 C301 1.390 . S
C293 C292 1.387 . S
C293 C295 1.387 . S
H294 C301 0.950 . S
C295 C293 1.387 . S
C295 C297 1.390 . S
C295 H299 0.950 . S
H296 C292 0.950 . S
C297 C295 1.390 . S
C297 C298 1.387 . S
C297 H300 0.950 . S
C298 C297 1.387 . S
C298 C301 1.387 . S
H299 C295 0.950 . S
H300 C297 0.950 . S
C301 C292 1.390 . S
C301 H294 0.950 . S
C301 C298 1.387 . S
C302 C303 1.387 . S
C302 H306 0.950 . S
C302 C311 1.390 . S
C303 C302 1.387 . S
C303 C305 1.387 . S
H304 C311 0.950 . S
C305 C303 1.387 . S
C305 C307 1.390 . S
C305 H309 0.950 . S
H306 C302 0.950 . S
C307 C305 1.390 . S
C307 C308 1.387 . S
C307 H310 0.950 . S
C308 C307 1.387 . S
C308 C311 1.387 . S
H309 C305 0.950 . S
H310 C307 0.950 . S
C311 C302 1.390 . S
C311 H304 0.950 . S
C311 C308 1.387 . S
C312 C313 1.387 . S
C312 H316 0.950 . S
C312 C321 1.390 . S
C313 C312 1.387 . S
C313 C315 1.387 . S
H314 C321 0.950 . S
C315 C313 1.387 . S
C315 C317 1.390 . S
C315 H319 0.950 . S
H316 C312 0.950 . S
C317 C315 1.390 . S
C317 C318 1.387 1_556 S
C317 H320 0.954 . S
C318 C317 1.387 1_554 S
C318 C321 1.387 1_554 S
H319 C315 0.950 . S
H320 C317 0.954 . S
C321 C312 1.390 . S
C321 H314 0.950 . S
C321 C318 1.387 1_556 S
C322 C323 1.387 . S
C322 H326 0.950 . S
C322 C331 1.390 . S
C323 C322 1.387 . S
C323 C325 1.387 . S
H324 C331 0.950 . S
C325 C323 1.387 . S
C325 C327 1.390 . S
C325 H329 0.950 . S
H326 C322 0.950 . S
C327 C325 1.390 . S
C327 C328 1.387 1_556 S
C327 H330 0.952 . S
C328 C327 1.387 1_554 S
C328 C331 1.387 1_554 S
H329 C325 0.950 . S
H330 C327 0.952 . S
C331 C322 1.390 . S
C331 H324 0.950 . S
C331 C328 1.387 1_556 S
C332 C333 1.387 . S
C332 H336 0.950 . S
C332 C341 1.390 . S
C333 C332 1.387 . S
C333 C335 1.387 . S
H334 C341 0.950 . S
C335 C333 1.387 . S
C335 C337 1.390 . S
C335 H339 0.950 . S
H336 C332 0.950 . S
C337 C335 1.390 . S
C337 C338 1.387 . S
C337 H340 0.950 . S
C338 C337 1.387 . S
C338 C341 1.387 . S
H339 C335 0.950 . S
H340 C337 0.950 . S
C341 C332 1.390 . S
C341 H334 0.950 . S
C341 C338 1.387 . S
C342 C343 1.387 . S
C342 H346 0.950 . S
C342 C351 1.390 . S
C343 C342 1.387 . S
C343 C345 1.387 . S
H344 C351 0.950 . S
C345 C343 1.387 . S
C345 C347 1.390 . S
C345 H349 0.950 . S
H346 C342 0.950 . S
C347 C345 1.390 . S
C347 C348 1.387 . S
C347 H350 0.950 . S
C348 C347 1.387 . S
C348 C351 1.387 . S
H349 C345 0.950 . S
H350 C347 0.950 . S
C351 C342 1.390 . S
C351 H344 0.950 . S
C351 C348 1.387 . S
C352 C353 1.387 . S
C352 H356 0.950 . S
C352 C361 1.390 . S
C353 C352 1.387 . S
C353 C355 1.387 . S
H354 C361 0.950 . S
C355 C353 1.387 . S
C355 C357 1.390 . S
C355 H359 0.950 . S
H356 C352 0.950 . S
C357 C355 1.390 . S
C357 C358 1.387 . S
C357 H360 0.950 . S
C358 C357 1.387 . S
C358 C361 1.387 . S
H359 C355 0.950 . S
H360 C357 0.950 . S
C361 C352 1.390 . S
C361 H354 0.950 . S
C361 C358 1.387 . S
C362 C363 1.387 . S
C362 H366 0.950 . S
C362 C371 1.390 . S
C363 C362 1.387 . S
C363 C365 1.387 . S
H364 C371 0.950 . S
C365 C363 1.387 . S
C365 C367 1.390 . S
C365 H369 0.950 . S
H366 C362 0.950 . S
C367 C365 1.390 . S
C367 C368 1.387 . S
C367 H370 0.950 . S
C368 C367 1.387 . S
C368 C371 1.387 . S
H369 C365 0.950 . S
H370 C367 0.950 . S
C371 C362 1.390 . S
C371 H364 0.950 . S
C371 C368 1.387 . S
C372 C373 1.387 . S
C372 H376 0.950 . S
C372 C381 1.390 . S
C373 C372 1.387 . S
C373 C375 1.387 . S
H374 C381 0.950 . S
C375 C373 1.387 . S
C375 C377 1.390 . S
C375 H379 0.950 . S
H376 C372 0.950 . S
C377 C375 1.390 . S
C377 C378 1.387 . S
C377 H380 0.950 . S
C378 C377 1.387 . S
C378 C381 1.387 . S
H379 C375 0.950 . S
H380 C377 0.950 . S
C381 C372 1.390 . S
C381 H374 0.950 . S
C381 C378 1.387 . S
C382 C383 1.387 . S
C382 H386 0.950 . S
C382 C391 1.390 . S
C383 C382 1.387 . S
C383 C385 1.387 . S
H384 C391 0.950 . S
C385 C383 1.387 . S
C385 C387 1.390 . S
C385 H389 0.950 . S
H386 C382 0.950 . S
C387 C385 1.390 . S
C387 C388 1.387 . S
C387 H390 0.950 . S
C388 C387 1.387 . S
C388 C391 1.387 . S
H389 C385 0.950 . S
H390 C387 0.950 . S
C391 C382 1.390 . S
C391 H384 0.950 . S
C391 C388 1.387 . S
C392 C393 1.387 . S
C392 H396 0.950 . S
C392 C401 1.390 1_565 S
C393 C392 1.387 . S
C393 C395 1.387 . S
H394 C401 0.950 . S
C395 C393 1.387 . S
C395 C397 1.390 1_565 S
C395 H399 0.950 1_554 S
H396 C392 0.950 . S
C397 C395 1.390 1_545 S
C397 C398 1.387 . S
C397 H400 0.950 1_554 S
C398 C397 1.387 . S
C398 C401 1.387 . S
H399 C395 0.950 1_556 S
H400 C397 0.950 1_556 S
C401 C392 1.390 1_545 S
C401 H394 0.950 . S
C401 C398 1.387 . S
C402 C403 1.387 . S
C402 H406 0.950 . S
C402 C411 1.390 . S
C403 C402 1.387 . S
C403 C405 1.387 . S
H404 C411 0.950 . S
C405 C403 1.387 . S
C405 C407 1.390 . S
C405 H409 0.950 . S
H406 C402 0.950 . S
C407 C405 1.390 . S
C407 C408 1.387 . S
C407 H410 0.950 . S
C408 C407 1.387 . S
C408 C411 1.387 . S
H409 C405 0.950 . S
H410 C407 0.950 . S
C411 C402 1.390 . S
C411 H404 0.950 . S
C411 C408 1.387 . S
C412 C413 1.387 . S
C412 H416 0.950 . S
C412 C421 1.390 1_545 S
C413 C412 1.387 . S
C413 C415 1.387 . S
H414 C421 0.950 . S
C415 C413 1.387 . S
C415 C417 1.390 1_545 S
C415 H419 0.950 1_556 S
H416 C412 0.950 . S
C417 C415 1.390 1_565 S
C417 C418 1.387 . S
C417 H420 0.950 1_556 S
C418 C417 1.387 . S
C418 C421 1.387 . S
H419 C415 0.950 1_554 S
H420 C417 0.950 1_554 S
C421 C412 1.390 1_565 S
C421 H414 0.950 . S
C421 C418 1.387 . S
C422 C423 1.387 . S
C422 H426 0.950 . S
C422 C431 1.390 . S
C423 C422 1.387 . S
C423 C425 1.387 . S
H424 C431 0.950 . S
C425 C423 1.387 . S
C425 C427 1.390 . S
C425 H429 0.950 . S
H426 C422 0.950 . S
C427 C425 1.390 . S
C427 C428 1.387 . S
C427 H430 0.950 . S
C428 C427 1.387 . S
C428 C431 1.387 . S
H429 C425 0.950 . S
H430 C427 0.950 . S
C431 C422 1.390 . S
C431 H424 0.950 . S
C431 C428 1.387 . S
C432 C433 1.387 1_556 S
C432 H436 0.950 . S
C432 C441 1.390 1_445 S
C433 C432 1.387 1_554 S
C433 C435 1.387 . S
H434 C441 0.950 . S
C435 C433 1.387 . S
C435 C437 1.390 1_445 S
C435 H439 0.950 . S
H436 C432 0.950 . S
C437 C435 1.390 1_665 S
C437 C438 1.387 1_554 S
C437 H440 0.950 . S
C438 C437 1.387 1_556 S
C438 C441 1.387 . S
H439 C435 0.950 . S
H440 C437 0.950 . S
C441 C432 1.390 1_665 S
C441 H434 0.950 . S
C441 C438 1.387 . S
C442 C443 1.387 1_554 S
C442 H446 0.950 . S
C442 C451 1.390 1_545 S
C443 C442 1.387 1_556 S
C443 C445 1.387 . S
H444 C451 0.950 . S
C445 C443 1.387 . S
C445 C447 1.390 1_545 S
C445 H449 0.950 . S
H446 C442 0.950 . S
C447 C445 1.390 1_565 S
C447 C448 1.387 1_556 S
C447 H450 0.950 . S
C448 C447 1.387 1_554 S
C448 C451 1.387 . S
H449 C445 0.950 . S
H450 C447 0.950 . S
C451 C442 1.390 1_565 S
C451 H444 0.950 . S
C451 C448 1.387 . S
C452 C453 1.387 . S
C452 H456 0.950 . S
C452 C461 1.390 1_455 S
C453 C452 1.387 . S
C453 C455 1.387 . S
H454 C461 0.950 . S
C455 C453 1.387 . S
C455 C457 1.390 1_455 S
C455 H459 0.950 . S
H456 C452 0.950 . S
C457 C455 1.390 1_655 S
C457 C458 1.387 . S
C457 H460 0.950 . S
C458 C457 1.387 . S
C458 C461 1.387 . S
H459 C455 0.950 . S
H460 C457 0.950 . S
C461 C452 1.390 1_655 S
C461 H454 0.950 . S
C461 C458 1.387 . S
C462 C463 1.387 . S
C462 H466 0.950 . S
C462 C471 1.390 . S
C463 C462 1.387 . S
C463 C465 1.387 . S
H464 C471 0.950 . S
C465 C463 1.387 . S
C465 C467 1.390 . S
C465 H469 0.950 . S
H466 C462 0.950 . S
C467 C465 1.390 . S
C467 C468 1.387 . S
C467 H470 0.950 . S
C468 C467 1.387 . S
C468 C471 1.387 . S
H469 C465 0.950 . S
H470 C467 0.950 . S
C471 C462 1.390 . S
C471 H464 0.950 . S
C471 C468 1.387 . S
C472 C473 1.387 . S
C472 H476 0.950 . S
C472 C481 1.390 . S
C473 C472 1.387 . S
C473 C475 1.387 . S
H474 C481 0.950 . S
C475 C473 1.387 . S
C475 C477 1.390 . S
C475 H479 0.950 . S
H476 C472 0.950 . S
C477 C475 1.390 . S
C477 C478 1.387 . S
C477 H480 0.950 . S
C478 C477 1.387 . S
C478 C481 1.387 . S
H479 C475 0.950 . S
H480 C477 0.950 . S
C481 C472 1.390 . S
C481 H474 0.950 . S
C481 C478 1.387 . S
C482 C483 1.387 . S
C482 H486 0.950 . S
C482 C491 1.390 . S
C483 C482 1.387 . S
C483 C485 1.387 . S
H484 C491 0.950 . S
C485 C483 1.387 . S
C485 C487 1.390 . S
C485 H489 0.950 . S
H486 C482 0.950 . S
C487 C485 1.390 . S
C487 C488 1.387 . S
C487 H490 0.950 . S
C488 C487 1.387 . S
C488 C491 1.387 . S
H489 C485 0.950 . S
H490 C487 0.950 . S
C491 C482 1.390 . S
C491 H484 0.950 . S
C491 C488 1.387 . S
C492 C493 1.387 . S
C492 H496 0.950 . S
C492 C501 1.390 . S
C493 C492 1.387 . S
C493 C495 1.387 . S
H494 C501 0.950 . S
C495 C493 1.387 . S
C495 C497 1.390 . S
C495 H499 0.950 . S
H496 C492 0.950 . S
C497 C495 1.390 . S
C497 C498 1.387 . S
C497 H500 0.950 . S
C498 C497 1.387 . S
C498 C501 1.387 . S
H499 C495 0.950 . S
H500 C497 0.950 . S
C501 C492 1.390 . S
C501 H494 0.950 . S
C501 C498 1.387 . S
C502 C503 1.387 . S
C502 H506 0.950 . S
C502 C511 1.390 . S
C503 C502 1.387 . S
C503 C505 1.387 . S
H504 C511 0.950 . S
C505 C503 1.387 . S
C505 C507 1.390 . S
C505 H509 0.950 . S
H506 C502 0.950 . S
C507 C505 1.390 . S
C507 C508 1.387 . S
C507 H510 0.950 . S
C508 C507 1.387 . S
C508 C511 1.387 . S
H509 C505 0.950 . S
H510 C507 0.950 . S
C511 C502 1.390 . S
C511 H504 0.950 . S
C511 C508 1.387 . S
C512 C513 1.387 . S
C512 H516 0.950 . S
C512 C521 1.390 . S
C513 C512 1.387 . S
C513 C515 1.387 . S
H514 C521 0.950 . S
C515 C513 1.387 . S
C515 C517 1.390 . S
C515 H519 0.950 . S
H516 C512 0.950 . S
C517 C515 1.390 . S
C517 C518 1.387 . S
C517 H520 0.950 . S
C518 C517 1.387 . S
C518 C521 1.387 . S
H519 C515 0.950 . S
H520 C517 0.950 . S
C521 C512 1.390 . S
C521 H514 0.950 . S
C521 C518 1.387 . S
C522 C523 1.387 . S
C522 H526 0.950 . S
C522 C531 1.390 . S
C523 C522 1.387 . S
C523 C525 1.387 . S
H524 C531 0.950 . S
C525 C523 1.387 . S
C525 C527 1.390 . S
C525 H529 0.950 . S
H526 C522 0.950 . S
C527 C525 1.390 . S
C527 C528 1.387 . S
C527 H530 0.950 . S
C528 C527 1.387 . S
C528 C531 1.387 . S
H529 C525 0.950 . S
H530 C527 0.950 . S
C531 C522 1.390 . S
C531 H524 0.950 . S
C531 C528 1.387 . S
C532 C533 1.387 . S
C532 H536 0.950 . S
C532 C541 1.390 . S
C533 C532 1.387 . S
C533 C535 1.387 . S
H534 C541 0.950 . S
C535 C533 1.387 . S
C535 C537 1.390 . S
C535 H539 0.950 . S
H536 C532 0.950 . S
C537 C535 1.390 . S
C537 C538 1.387 . S
C537 H540 0.950 . S
C538 C537 1.387 . S
C538 C541 1.387 . S
H539 C535 0.950 . S
H540 C537 0.950 . S
C541 C532 1.390 . S
C541 H534 0.950 . S
C541 C538 1.387 . S
C542 C543 1.387 . S
C542 H546 0.950 . S
C542 C551 1.390 . S
C543 C542 1.387 . S
C543 C545 1.387 . S
H544 C551 0.950 . S
C545 C543 1.387 . S
C545 C547 1.390 . S
C545 H549 0.950 . S
H546 C542 0.950 . S
C547 C545 1.390 . S
C547 C548 1.387 . S
C547 H550 0.950 . S
C548 C547 1.387 . S
C548 C551 1.387 . S
H549 C545 0.950 . S
H550 C547 0.950 . S
C551 C542 1.390 . S
C551 H544 0.950 . S
C551 C548 1.387 . S
C273 C198 1.678 . S
C278 C28 1.643 . S
C283 C40 1.643 . S
C288 C142 1.678 . S
C293 C244 1.678 . S
C298 C96 1.643 . S
C303 C210 1.678 . S
C308 C108 1.643 . S
C313 C164 1.643 . S
C318 C62 1.678 . S
C323 C176 1.646 . S
C328 C6 1.681 . S
C333 C232 1.643 . S
C338 C130 1.678 . S
C343 C266 1.643 . S
C348 C74 1.678 . S
C353 C85 1.885 . S
C358 C17 1.885 . S
C363 C119 1.885 . S
C368 C51 1.885 . S
C373 C153 1.888 . S
C378 C221 1.888 . S
C383 C187 1.885 . S
C388 C255 1.885 . S
C393 C35 1.774 . S
C398 C3 1.774 . S
C403 C71 1.774 . S
C408 C103 1.774 . S
C413 C171 1.773 . S
C418 C139 1.773 . S
C423 C241 1.773 . S
C428 C207 1.773 . S
C433 C1 1.887 . S
C438 C137 1.887 . S
C443 C173 1.885 . S
C448 C37 1.885 . S
C453 C69 1.887 . S
C458 C205 1.887 . S
C463 C105 1.885 . S
C468 C239 1.885 . S
C473 C22 1.613 . S
C478 C15 1.629 . S
C483 C56 1.634 . S
C488 C49 1.618 . S
C493 C83 1.628 1_556 S
C498 C90 1.613 . S
C503 C117 1.618 . S
C508 C124 1.634 1_556 S
C513 C158 1.613 . S
C518 C151 1.629 . S
C523 C192 1.629 . S
C528 C185 1.613 . S
C533 C219 1.634 1_554 S
C538 C226 1.618 . S
C543 C260 1.613 . S
C548 C253 1.628 1_554 S
