# Generated by pormake.
# Topology utk, (3)-cn, num edge types: 1
# Building blocks:
#     Node 0, Type 0, BuildingBlock: OLANEW_clean_sbu_2, # of connection points: 3
#     Node 1, Type 0, BuildingBlock: OLANEW_clean_sbu_2, # of connection points: 3
#     Node 2, Type 0, BuildingBlock: OLANEW_clean_sbu_2, # of connection points: 3
#     Node 3, Type 0, BuildingBlock: OLANEW_clean_sbu_2, # of connection points: 3
#     Node 4, Type 0, BuildingBlock: OLANEW_clean_sbu_2, # of connection points: 3
#     Node 5, Type 0, BuildingBlock: OLANEW_clean_sbu_2, # of connection points: 3
#     Node 6, Type 0, BuildingBlock: OLANEW_clean_sbu_2, # of connection points: 3
#     Node 7, Type 0, BuildingBlock: OLANEW_clean_sbu_2, # of connection points: 3
#     Edge 8, Type (0, 0), BuildingBlock: EZIPEK_clean_linker_0, # of connection points: 2
#     Edge 9, Type (0, 0), BuildingBlock: EZIPEK_clean_linker_0, # of connection points: 2
#     Edge 10, Type (0, 0), BuildingBlock: EZIPEK_clean_linker_0, # of connection points: 2
#     Edge 11, Type (0, 0), BuildingBlock: EZIPEK_clean_linker_0, # of connection points: 2
#     Edge 12, Type (0, 0), BuildingBlock: EZIPEK_clean_linker_0, # of connection points: 2
#     Edge 13, Type (0, 0), BuildingBlock: EZIPEK_clean_linker_0, # of connection points: 2
#     Edge 14, Type (0, 0), BuildingBlock: EZIPEK_clean_linker_0, # of connection points: 2
#     Edge 15, Type (0, 0), BuildingBlock: EZIPEK_clean_linker_0, # of connection points: 2
#     Edge 16, Type (0, 0), BuildingBlock: EZIPEK_clean_linker_0, # of connection points: 2
#     Edge 17, Type (0, 0), BuildingBlock: EZIPEK_clean_linker_0, # of connection points: 2
#     Edge 18, Type (0, 0), BuildingBlock: EZIPEK_clean_linker_0, # of connection points: 2
#     Edge 19, Type (0, 0), BuildingBlock: EZIPEK_clean_linker_0, # of connection points: 2
# Relax obj value: 0.000
# Max RMSD: 0.029
# Mean RMSD: 0.029
data_MOF--net-utk--node1-OLANEW_clean_sbu_2--edge1-EZIPEK_clean_linker_0
_symmetry_space_group_name_H-M    P1
_symmetry_Int_Tables_number       1
_symmetry_cell_setting            triclinic
loop_
_symmetry_equiv_pos_as_xyz
'x, y, z'
_cell_length_a     33.744909
_cell_length_b     33.698226
_cell_length_c     23.335372
_cell_angle_alpha  90.467653
_cell_angle_beta   90.393109
_cell_angle_gamma 89.986217
loop_
_atom_site_label
_atom_site_type_symbol
_atom_site_fract_x
_atom_site_fract_y
_atom_site_fract_z
_atom_type_partial_charge
O0 O 0.16801 0.38305 0.21746 0.0
Cd1 Cd 0.16911 0.3134 0.18789 0.0
O2 O 0.10348 0.38306 0.23205 0.0
Cd3 Cd 0.09125 0.32973 0.18113 0.0
O4 O 0.05511 0.31465 0.10595 0.0
C5 C 0.02665 0.28999 0.10641 0.0
O6 O 0.02005 0.26892 0.15249 0.0
C7 C 0.13696 0.40015 0.23576 0.0
C8 C 0.21776 0.27284 0.26466 0.0
O9 O 0.23176 0.28699 0.21819 0.0
O10 O 0.18061 0.2768 0.2742 0.0
O11 O 0.64196 0.19532 0.38639 0.0
Cd12 Cd 0.71408 0.19267 0.38093 0.0
O13 O 0.64204 0.13714 0.42885 0.0
Cd14 Cd 0.69853 0.11946 0.39148 0.0
O15 O 0.71561 0.08294 0.31786 0.0
C16 C 0.68844 0.08073 0.27997 0.0
O17 O 0.65595 0.10167 0.28683 0.0
C18 C 0.62393 0.16849 0.41386 0.0
C19 C 0.74322 0.21724 0.48749 0.0
O20 O 0.73578 0.18054 0.47749 0.0
O21 O 0.73809 0.24209 0.44682 0.0
O22 O 0.79202 0.58057 0.70567 0.0
Cd23 Cd 0.7972 0.65032 0.67842 0.0
O24 O 0.85293 0.57916 0.74044 0.0
Cd25 Cd 0.87042 0.63522 0.70194 0.0
O26 O 0.90941 0.6523 0.63213 0.0
C27 C 0.93419 0.68066 0.6328 0.0
O28 O 0.9358 0.70515 0.67684 0.0
C29 C 0.81978 0.56228 0.73143 0.0
C30 C 0.75777 0.7 0.75519 0.0
O31 O 0.79447 0.69154 0.76269 0.0
O32 O 0.73969 0.68508 0.71162 0.0
O33 O 0.35062 0.80122 0.00453 0.0
Cd34 Cd 0.27913 0.79039 -0.00105 0.0
O35 O 0.34363 0.84176 0.93228 0.0
Cd36 Cd 0.36492 0.8846 0.86996 0.0
O37 O 0.37594 0.92601 0.80043 0.0
C38 C 0.3516 0.95405 0.79112 0.0
O39 O 0.32031 0.95808 0.82384 0.0
C40 C 0.36581 0.82541 0.96945 0.0
C41 C 0.24868 0.75836 0.09905 0.0
O42 O 0.25347 0.79591 0.09421 0.0
O43 O 0.25855 0.73595 0.05686 0.0
O44 O 0.14851 0.5744 0.36472 0.0
Cd45 Cd 0.14478 0.64491 0.38902 0.0
O46 O 0.1001 0.5803 0.30129 0.0
Cd47 Cd 0.0795 0.6364 0.33772 0.0
O48 O 0.04541 0.67053 0.40011 0.0
C49 C 0.04034 0.65269 0.44723 0.0
O50 O 0.05746 0.61813 0.45514 0.0
C51 C 0.12748 0.55984 0.32432 0.0
C52 C 0.17987 0.68629 0.29976 0.0
O53 O 0.20011 0.67657 0.34416 0.0
O54 O 0.14293 0.67766 0.29835 0.0
O55 O 0.4379 0.18174 0.49825 0.0
Cd56 Cd 0.3684 0.16803 0.51967 0.0
O57 O 0.44606 0.12302 0.45763 0.0
Cd58 Cd 0.39128 0.09908 0.49198 0.0
O59 O 0.3652 0.06235 0.55833 0.0
C60 C 0.38569 0.05974 0.60405 0.0
O61 O 0.41882 0.08 0.60884 0.0
C62 C 0.45931 0.15723 0.47066 0.0
C63 C 0.31896 0.20032 0.43603 0.0
O64 O 0.3328 0.1651 0.43027 0.0
O65 O 0.3282 0.22013 0.48129 0.0
O66 O 0.80284 0.37601 0.8147 0.0
Cd67 Cd 0.81193 0.30424 0.82014 0.0
O68 O 0.86074 0.38207 0.77242 0.0
Cd69 Cd 0.88261 0.32501 0.80317 0.0
O70 O 0.91702 0.29416 0.86884 0.0
C71 C 0.92477 0.3158 0.91234 0.0
O72 O 0.91063 0.35211 0.91447 0.0
C73 C 0.82794 0.39699 0.78822 0.0
C74 C 0.79103 0.27222 0.71361 0.0
O75 O 0.76551 0.27534 0.75382 0.0
O76 O 0.82673 0.28317 0.72401 0.0
O77 O 0.55938 0.83976 0.97658 0.0
Cd78 Cd 0.63046 0.85302 0.98482 0.0
O79 O 0.54168 0.89802 0.01188 0.0
Cd80 Cd 0.60072 0.91919 0.03626 0.0
O81 O 0.6334 0.95568 0.09844 0.0
C82 C 0.664 0.97641 0.08848 0.0
O83 O 0.68035 0.97532 0.03758 0.0
C84 C 0.53254 0.8645 -0.00981 0.0
C85 C 0.67317 0.80349 0.91156 0.0
O86 O 0.66535 0.79281 0.96284 0.0
O87 O 0.66118 0.83762 0.89491 0.0
C88 C 0.14838 0.47324 0.2244 0.0
C89 C 0.13922 0.44071 0.26027 0.0
C90 C 0.12386 0.48634 0.33938 0.0
C91 C 0.13433 0.51875 0.30411 0.0
N92 N 0.16463 0.5432 0.21815 0.0
N93 N 0.12664 0.41526 0.3546 0.0
C94 C 0.14912 0.51222 0.24812 0.0
C95 C 0.12952 0.44698 0.31868 0.0
N96 N 0.1544 0.46716 0.1671 0.0
N97 N 0.10681 0.49317 0.39154 0.0
H98 H 0.13087 0.38604 0.34081 0.0
H99 H 0.12366 0.41802 0.39883 0.0
H100 H 0.10247 0.52156 0.40848 0.0
H101 H 0.09427 0.47092 0.41624 0.0
H102 H 0.15655 0.4901 0.13766 0.0
H103 H 0.15422 0.4391 0.14795 0.0
H104 H 0.17963 0.53972 0.17959 0.0
H105 H 0.1657 0.57213 0.2344 0.0
C106 C 0.55255 0.16883 0.38323 0.0
C107 C 0.58143 0.17275 0.42741 0.0
C108 C 0.52966 0.1707 0.50032 0.0
C109 C 0.50068 0.16722 0.45613 0.0
N110 N 0.48303 0.17233 0.35633 0.0
N111 N 0.59754 0.18715 0.52605 0.0
C112 C 0.5117 0.16929 0.39774 0.0
C113 C 0.56993 0.17685 0.48542 0.0
N114 N 0.56414 0.16261 0.32784 0.0
N115 N 0.51913 0.16582 0.55632 0.0
H116 H 0.62728 0.19198 0.51629 0.0
H117 H 0.59042 0.19452 0.56817 0.0
H118 H 0.48997 0.16136 0.56926 0.0
H119 H 0.53958 0.16328 0.5897 0.0
H120 H 0.54467 0.15476 0.29486 0.0
H121 H 0.59374 0.16267 0.3153 0.0
H122 H 0.48907 0.17786 0.31344 0.0
H123 H 0.45285 0.17299 0.3658 0.0
C124 C 0.81216 0.49068 0.70302 0.0
C125 C 0.81517 0.52003 0.74693 0.0
C126 C 0.82304 0.46823 0.81931 0.0
C127 C 0.8194 0.43901 0.77547 0.0
N128 N 0.80119 0.42138 0.67866 0.0
N129 N 0.81463 0.53729 0.84724 0.0
C130 C 0.8109 0.44997 0.71825 0.0
C131 C 0.81782 0.50892 0.80531 0.0
N132 N 0.81295 0.50148 0.64666 0.0
N133 N 0.83319 0.45722 0.87374 0.0
H134 H 0.81051 0.56729 0.83816 0.0
H135 H 0.81248 0.53086 0.89066 0.0
H136 H 0.83641 0.42766 0.88584 0.0
H137 H 0.84091 0.47732 0.90604 0.0
H138 H 0.81568 0.48124 0.61297 0.0
H139 H 0.81397 0.53091 0.63334 0.0
H140 H 0.79066 0.4277 0.63768 0.0
H141 H 0.80013 0.39125 0.68854 0.0
C142 C 0.47394 0.84308 0.9299 0.0
C143 C 0.49011 0.85359 0.98426 0.0
C144 C 0.42399 0.8502 0.02662 0.0
C145 C 0.4085 0.8356 0.97384 0.0
N146 N 0.42014 0.81128 0.8778 0.0
N147 N 0.482 0.85842 0.08687 0.0
C148 C 0.43385 0.83016 0.92606 0.0
C149 C 0.46555 0.8547 0.03337 0.0
N150 N 0.49633 0.84686 0.88166 0.0
N151 N 0.39895 0.86145 0.06963 0.0
H152 H 0.51246 0.86056 0.09404 0.0
H153 H 0.46579 0.85521 0.12439 0.0
H154 H 0.36817 0.85989 0.06595 0.0
H155 H 0.40854 0.87618 0.10663 0.0
H156 H 0.48477 0.84377 0.84036 0.0
H157 H 0.52565 0.85664 0.8826 0.0
H158 H 0.4384 0.80276 0.84406 0.0
H159 H 0.39117 0.80083 0.87359 0.0
C160 C 0.27739 0.27466 0.32965 0.0
C161 C 0.24413 0.25367 0.3074 0.0
C162 C 0.25807 0.19883 0.37304 0.0
C163 C 0.2935 0.21813 0.39098 0.0
N164 N 0.34138 0.27029 0.37651 0.0
N165 N 0.20734 0.19242 0.2996 0.0
C166 C 0.30448 0.2549 0.36647 0.0
C167 C 0.23571 0.21476 0.32674 0.0
N168 N 0.28223 0.31406 0.31795 0.0
N169 N 0.24476 0.16629 0.40174 0.0
H170 H 0.19091 0.20269 0.26472 0.0
H171 H 0.20283 0.16245 0.308 0.0
H172 H 0.25972 0.15417 0.4367 0.0
H173 H 0.217 0.15364 0.39441 0.0
H174 H 0.30361 0.33171 0.33806 0.0
H175 H 0.26247 0.33018 0.2927 0.0
H176 H 0.35234 0.29486 0.35492 0.0
H177 H 0.36261 0.25622 0.40189 0.0
C178 C 0.73315 0.26057 0.57407 0.0
C179 C 0.75567 0.23097 0.54545 0.0
C180 C 0.79891 0.22524 0.62995 0.0
C181 C 0.77907 0.2579 0.65573 0.0
N182 N 0.73295 0.31237 0.64635 0.0
N183 N 0.81432 0.19002 0.54193 0.0
C184 C 0.74773 0.27719 0.62615 0.0
C185 C 0.78977 0.21457 0.57223 0.0
N186 N 0.69694 0.27167 0.55298 0.0
N187 N 0.82534 0.2034 0.66119 0.0
H188 H 0.80909 0.1821 0.49926 0.0
H189 H 0.84175 0.18057 0.55734 0.0
H190 H 0.83226 0.20974 0.70391 0.0
H191 H 0.83753 0.17682 0.64652 0.0
H192 H 0.67755 0.29006 0.57544 0.0
H193 H 0.68439 0.25933 0.51596 0.0
H194 H 0.713 0.32969 0.62318 0.0
H195 H 0.74362 0.3264 0.68334 0.0
C196 C 0.70273 0.71199 0.825 0.0
C197 C 0.73662 0.7263 0.79602 0.0
C198 C 0.73144 0.78963 0.84804 0.0
C199 C 0.69519 0.77682 0.87221 0.0
N200 N 0.64245 0.7285 0.87557 0.0
N201 N 0.77939 0.78107 0.77217 0.0
C202 C 0.67976 0.73868 0.85857 0.0
C203 C 0.75002 0.76576 0.80547 0.0
N204 N 0.69329 0.67256 0.82229 0.0
N205 N 0.74895 0.82386 0.86726 0.0
H206 H 0.79339 0.76482 0.73993 0.0
H207 H 0.78735 0.81094 0.77288 0.0
H208 H 0.73661 0.84188 0.89902 0.0
H209 H 0.77742 0.83246 0.8557 0.0
H210 H 0.67148 0.65971 0.84748 0.0
H211 H 0.70976 0.65186 0.79902 0.0
H212 H 0.62804 0.70283 0.86154 0.0
H213 H 0.6243 0.74741 0.89933 0.0
C214 C 0.2519 0.70938 0.17953 0.0
C215 C 0.23199 0.74116 0.15204 0.0
C216 C 0.18194 0.74116 0.2277 0.0
C217 C 0.19877 0.70598 0.25035 0.0
N218 N 0.24529 0.65183 0.2398 0.0
N219 N 0.17338 0.78214 0.14399 0.0
C220 C 0.23262 0.68877 0.22423 0.0
C221 C 0.19575 0.7558 0.17455 0.0
N222 N 0.28978 0.69969 0.16448 0.0
N223 N 0.15362 0.76135 0.25772 0.0
H224 H 0.18142 0.79249 0.10375 0.0
H225 H 0.14484 0.79049 0.15587 0.0
H226 H 0.14354 0.75226 0.29768 0.0
H227 H 0.14324 0.78924 0.24583 0.0
H228 H 0.30693 0.67934 0.18713 0.0
H229 H 0.30559 0.71499 0.13342 0.0
H230 H 0.26727 0.63638 0.21778 0.0
H231 H 0.23119 0.63481 0.27069 0.0
C232 C 0.95843 0.30063 0.06504 0.0
C233 C -0.00146 0.28905 0.05727 0.0
C234 C 0.98934 0.29037 0.95292 0.0
C235 C 0.94902 0.30103 0.96089 0.0
N236 N 0.89263 0.30506 0.02336 0.0
N237 N 0.04927 0.2632 -0.0048 0.0
C238 C 0.93276 0.30242 0.01668 0.0
C239 C 0.01302 0.28073 0.00153 0.0
N240 N 0.94537 0.31259 0.11777 0.0
N241 N 0.00572 0.29178 0.89957 0.0
H242 H 0.0671 0.25546 0.03009 0.0
H243 H 0.05989 0.25286 0.95603 0.0
H244 H 0.98957 0.29875 0.86279 0.0
H245 H 0.03601 0.28894 0.89227 0.0
H246 H 0.9178 0.32573 0.12428 0.0
H247 H 0.96315 0.31278 0.15443 0.0
H248 H 0.87871 0.30229 0.06284 0.0
H249 H 0.87297 0.30584 0.98865 0.0
C250 C 0.68754 0.07035 0.17404 0.0
C251 C 0.6917 0.05397 0.2295 0.0
C252 C 0.69066 0.98706 0.18754 0.0
C253 C 0.67918 0.00335 0.13412 0.0
N254 N 0.66371 0.06084 0.07686 0.0
N255 N 0.69458 -0.00366 0.29038 0.0
C256 C 0.67746 0.04514 0.12705 0.0
C257 C 0.69326 0.01219 0.23665 0.0
N258 N 0.69353 0.11007 0.16639 0.0
N259 N 0.69937 0.94753 0.19105 0.0
H260 H 0.69645 0.0135 0.32764 0.0
H261 H 0.69087 0.96621 0.29833 0.0
H262 H 0.69808 0.92851 0.15555 0.0
H263 H 0.71158 0.93451 0.22744 0.0
H264 H 0.69468 0.12326 0.12623 0.0
H265 H 0.70138 0.12916 0.20005 0.0
H266 H 0.65729 0.09085 0.07182 0.0
H267 H 0.65575 0.04362 0.04134 0.0
C268 C 0.00407 0.67729 0.59581 0.0
C269 C 0.963 0.68332 0.58533 0.0
C270 C 0.97336 0.67509 0.48208 0.0
C271 C 0.01446 0.66922 0.49257 0.0
N272 N 0.07038 0.6763 0.55643 0.0
N273 N 0.91069 0.69929 0.5188 0.0
C274 C 0.03026 0.67422 0.54857 0.0
C275 C 0.94842 0.68604 0.5284 0.0
N276 N 0.01782 0.67172 0.6504 0.0
N277 N 0.95759 0.66761 0.42897 0.0
H278 H 0.89194 0.7079 0.55205 0.0
H279 H 0.89951 0.70553 0.47814 0.0
H280 H 0.97452 0.65917 0.39377 0.0
H281 H 0.92722 0.66678 0.42075 0.0
H282 H 0.04657 0.66242 0.6597 0.0
H283 H -0.00015 0.67334 0.68645 0.0
H284 H 0.08365 0.68371 0.59551 0.0
H285 H 0.09027 0.67464 0.52242 0.0
C286 C 0.3592 0.9662 0.68597 0.0
C287 C 0.35803 0.98145 0.74279 0.0
C288 C 0.36759 0.04882 0.70656 0.0
C289 C 0.3737 0.03295 0.65082 0.0
N290 N 0.38151 0.97579 0.58873 0.0
N291 N 0.36661 0.03643 0.80864 0.0
C292 C 0.37096 0.99144 0.64069 0.0
C293 C 0.3635 0.0226 0.75355 0.0
N294 N 0.34786 0.92792 0.67497 0.0
N295 N 0.36457 0.08896 0.71432 0.0
H296 H 0.36421 0.01816 0.8443 0.0
H297 H 0.37502 0.06535 0.81903 0.0
H298 H 0.36686 0.10905 0.68072 0.0
H299 H 0.35606 0.10212 0.75285 0.0
H300 H 0.34403 0.91648 0.6337 0.0
H301 H 0.33856 0.90862 0.7069 0.0
H302 H 0.38444 0.94544 0.58112 0.0
H303 H 0.3908 0.99305 0.55448 0.0
loop_
_geom_bond_atom_site_label_1
_geom_bond_atom_site_label_2
_geom_bond_distance
_geom_bond_site_symmetry_2
_ccdc_geom_bond_type
O0 Cd1 2.300 . S
O0 C7 1.275 . S
Cd1 O0 2.300 . S
Cd1 O9 2.381 . S
Cd1 O10 2.378 . S
O2 Cd3 2.385 . S
O2 C7 1.255 . S
Cd3 O2 2.385 . S
Cd3 O4 2.317 . S
O4 Cd3 2.317 . S
O4 C5 1.232 . S
C5 O4 1.232 . S
C5 O6 1.218 . S
O6 C5 1.218 . S
C7 O0 1.275 . S
C7 O2 1.255 . S
C8 O9 1.258 . S
C8 O10 1.256 . S
O9 Cd1 2.381 . S
O9 C8 1.258 . S
O10 Cd1 2.378 . S
O10 C8 1.256 . S
O11 Cd12 2.300 . S
O11 C18 1.275 . S
Cd12 O11 2.300 . S
Cd12 O20 2.381 . S
Cd12 O21 2.378 . S
O13 Cd14 2.385 . S
O13 C18 1.255 . S
Cd14 O13 2.385 . S
Cd14 O15 2.317 . S
O15 Cd14 2.317 . S
O15 C16 1.232 . S
C16 O15 1.232 . S
C16 O17 1.218 . S
O17 C16 1.218 . S
C18 O11 1.275 . S
C18 O13 1.255 . S
C19 O20 1.258 . S
C19 O21 1.256 . S
O20 Cd12 2.381 . S
O20 C19 1.258 . S
O21 Cd12 2.378 . S
O21 C19 1.256 . S
O22 Cd23 2.300 . S
O22 C29 1.275 . S
Cd23 O22 2.300 . S
Cd23 O31 2.381 . S
Cd23 O32 2.378 . S
O24 Cd25 2.385 . S
O24 C29 1.255 . S
Cd25 O24 2.385 . S
Cd25 O26 2.317 . S
O26 Cd25 2.317 . S
O26 C27 1.232 . S
C27 O26 1.232 . S
C27 O28 1.218 . S
O28 C27 1.218 . S
C29 O22 1.275 . S
C29 O24 1.255 . S
C30 O31 1.258 . S
C30 O32 1.256 . S
O31 Cd23 2.381 . S
O31 C30 1.258 . S
O32 Cd23 2.378 . S
O32 C30 1.256 . S
O33 Cd34 2.300 . S
O33 C40 1.276 1_554 S
Cd34 O33 2.300 . S
Cd34 O42 2.381 . S
Cd34 O43 2.378 . S
O35 Cd36 2.385 . S
O35 C40 1.255 . S
Cd36 O35 2.385 . S
Cd36 O37 2.317 . S
O37 Cd36 2.317 . S
O37 C38 1.232 . S
C38 O37 1.232 . S
C38 O39 1.218 . S
O39 C38 1.218 . S
C40 O33 1.276 1_556 S
C40 O35 1.255 . S
C41 O42 1.258 . S
C41 O43 1.256 . S
O42 Cd34 2.381 . S
O42 C41 1.258 . S
O43 Cd34 2.378 . S
O43 C41 1.256 . S
O44 Cd45 2.300 . S
O44 C51 1.275 . S
Cd45 O44 2.300 . S
Cd45 O53 2.381 . S
Cd45 O54 2.378 . S
O46 Cd47 2.385 . S
O46 C51 1.255 . S
Cd47 O46 2.385 . S
Cd47 O48 2.317 . S
O48 Cd47 2.317 . S
O48 C49 1.232 . S
C49 O48 1.232 . S
C49 O50 1.218 . S
O50 C49 1.218 . S
C51 O44 1.275 . S
C51 O46 1.255 . S
C52 O53 1.258 . S
C52 O54 1.256 . S
O53 Cd45 2.381 . S
O53 C52 1.258 . S
O54 Cd45 2.378 . S
O54 C52 1.256 . S
O55 Cd56 2.300 . S
O55 C62 1.275 . S
Cd56 O55 2.300 . S
Cd56 O64 2.381 . S
Cd56 O65 2.378 . S
O57 Cd58 2.385 . S
O57 C62 1.255 . S
Cd58 O57 2.385 . S
Cd58 O59 2.317 . S
O59 Cd58 2.317 . S
O59 C60 1.232 . S
C60 O59 1.232 . S
C60 O61 1.218 . S
O61 C60 1.218 . S
C62 O55 1.275 . S
C62 O57 1.255 . S
C63 O64 1.258 . S
C63 O65 1.256 . S
O64 Cd56 2.381 . S
O64 C63 1.258 . S
O65 Cd56 2.378 . S
O65 C63 1.256 . S
O66 Cd67 2.300 . S
O66 C73 1.275 . S
Cd67 O66 2.300 . S
Cd67 O75 2.381 . S
Cd67 O76 2.378 . S
O68 Cd69 2.385 . S
O68 C73 1.255 . S
Cd69 O68 2.385 . S
Cd69 O70 2.317 . S
O70 Cd69 2.317 . S
O70 C71 1.232 . S
C71 O70 1.232 . S
C71 O72 1.218 . S
O72 C71 1.218 . S
C73 O66 1.275 . S
C73 O68 1.255 . S
C74 O75 1.258 . S
C74 O76 1.256 . S
O75 Cd67 2.381 . S
O75 C74 1.258 . S
O76 Cd67 2.378 . S
O76 C74 1.256 . S
O77 Cd78 2.300 . S
O77 C84 1.276 1_556 S
Cd78 O77 2.300 . S
Cd78 O86 2.381 . S
Cd78 O87 2.378 . S
O79 Cd80 2.385 . S
O79 C84 1.255 . S
Cd80 O79 2.385 . S
Cd80 O81 2.317 . S
O81 Cd80 2.317 . S
O81 C82 1.232 . S
C82 O81 1.232 . S
C82 O83 1.218 . S
O83 C82 1.218 . S
C84 O77 1.276 1_554 S
C84 O79 1.255 . S
C85 O86 1.258 . S
C85 O87 1.256 . S
O86 Cd78 2.381 . S
O86 C85 1.258 . S
O87 Cd78 2.378 . S
O87 C85 1.256 . S
C88 C89 1.363 . S
C88 C94 1.379 . S
C88 N96 1.356 . S
C89 C88 1.363 . S
C89 C95 1.363 . S
C90 C91 1.363 . S
C90 C95 1.379 . S
C90 N97 1.356 . S
C91 C90 1.363 . S
C91 C94 1.363 . S
N92 C94 1.356 . S
N92 H104 0.984 . S
N92 H105 0.985 . S
N93 C95 1.356 . S
N93 H98 0.984 . S
N93 H99 0.985 . S
C94 C88 1.379 . S
C94 C91 1.363 . S
C94 N92 1.356 . S
C95 C89 1.363 . S
C95 C90 1.379 . S
C95 N93 1.356 . S
N96 C88 1.356 . S
N96 H102 0.984 . S
N96 H103 0.984 . S
N97 C90 1.356 . S
N97 H100 0.984 . S
N97 H101 0.985 . S
H98 N93 0.984 . S
H99 N93 0.985 . S
H100 N97 0.984 . S
H101 N97 0.985 . S
H102 N96 0.984 . S
H103 N96 0.984 . S
H104 N92 0.984 . S
H105 N92 0.985 . S
C106 C107 1.363 . S
C106 C112 1.379 . S
C106 N114 1.356 . S
C107 C106 1.363 . S
C107 C113 1.363 . S
C108 C109 1.363 . S
C108 C113 1.379 . S
C108 N115 1.356 . S
C109 C108 1.363 . S
C109 C112 1.363 . S
N110 C112 1.356 . S
N110 H122 0.984 . S
N110 H123 0.985 . S
N111 C113 1.356 . S
N111 H116 0.984 . S
N111 H117 0.985 . S
C112 C106 1.379 . S
C112 C109 1.363 . S
C112 N110 1.356 . S
C113 C107 1.363 . S
C113 C108 1.379 . S
C113 N111 1.356 . S
N114 C106 1.356 . S
N114 H120 0.984 . S
N114 H121 0.984 . S
N115 C108 1.356 . S
N115 H118 0.984 . S
N115 H119 0.985 . S
H116 N111 0.984 . S
H117 N111 0.985 . S
H118 N115 0.984 . S
H119 N115 0.985 . S
H120 N114 0.984 . S
H121 N114 0.984 . S
H122 N110 0.984 . S
H123 N110 0.985 . S
C124 C125 1.363 . S
C124 C130 1.379 . S
C124 N132 1.356 . S
C125 C124 1.363 . S
C125 C131 1.363 . S
C126 C127 1.363 . S
C126 C131 1.379 . S
C126 N133 1.356 . S
C127 C126 1.363 . S
C127 C130 1.363 . S
N128 C130 1.356 . S
N128 H140 0.984 . S
N128 H141 0.985 . S
N129 C131 1.356 . S
N129 H134 0.984 . S
N129 H135 0.985 . S
C130 C124 1.379 . S
C130 C127 1.363 . S
C130 N128 1.356 . S
C131 C125 1.363 . S
C131 C126 1.379 . S
C131 N129 1.356 . S
N132 C124 1.356 . S
N132 H138 0.984 . S
N132 H139 0.984 . S
N133 C126 1.356 . S
N133 H136 0.984 . S
N133 H137 0.985 . S
H134 N129 0.984 . S
H135 N129 0.985 . S
H136 N133 0.984 . S
H137 N133 0.985 . S
H138 N132 0.984 . S
H139 N132 0.984 . S
H140 N128 0.984 . S
H141 N128 0.985 . S
C142 C143 1.363 1_556 S
C142 C148 1.379 . S
C142 N150 1.356 . S
C143 C142 1.363 1_554 S
C143 C149 1.363 . S
C144 C145 1.363 1_554 S
C144 C149 1.379 . S
C144 N151 1.356 . S
C145 C144 1.363 1_556 S
C145 C148 1.363 . S
N146 C148 1.356 . S
N146 H158 0.984 . S
N146 H159 0.985 . S
N147 C149 1.356 . S
N147 H152 0.984 . S
N147 H153 0.985 . S
C148 C142 1.379 . S
C148 C145 1.363 . S
C148 N146 1.356 . S
C149 C143 1.363 . S
C149 C144 1.379 . S
C149 N147 1.356 . S
N150 C142 1.356 . S
N150 H156 0.984 . S
N150 H157 0.984 . S
N151 C144 1.356 . S
N151 H154 0.984 . S
N151 H155 0.985 . S
H152 N147 0.984 . S
H153 N147 0.985 . S
H154 N151 0.984 . S
H155 N151 0.985 . S
H156 N150 0.984 . S
H157 N150 0.984 . S
H158 N146 0.984 . S
H159 N146 0.985 . S
C160 C161 1.363 . S
C160 C166 1.379 . S
C160 N168 1.356 . S
C161 C160 1.363 . S
C161 C167 1.363 . S
C162 C163 1.363 . S
C162 C167 1.379 . S
C162 N169 1.356 . S
C163 C162 1.363 . S
C163 C166 1.363 . S
N164 C166 1.356 . S
N164 H176 0.984 . S
N164 H177 0.985 . S
N165 C167 1.356 . S
N165 H170 0.984 . S
N165 H171 0.985 . S
C166 C160 1.379 . S
C166 C163 1.363 . S
C166 N164 1.356 . S
C167 C161 1.363 . S
C167 C162 1.379 . S
C167 N165 1.356 . S
N168 C160 1.356 . S
N168 H174 0.984 . S
N168 H175 0.984 . S
N169 C162 1.356 . S
N169 H172 0.984 . S
N169 H173 0.985 . S
H170 N165 0.984 . S
H171 N165 0.985 . S
H172 N169 0.984 . S
H173 N169 0.985 . S
H174 N168 0.984 . S
H175 N168 0.984 . S
H176 N164 0.984 . S
H177 N164 0.985 . S
C178 C179 1.363 . S
C178 C184 1.379 . S
C178 N186 1.356 . S
C179 C178 1.363 . S
C179 C185 1.363 . S
C180 C181 1.363 . S
C180 C185 1.379 . S
C180 N187 1.356 . S
C181 C180 1.363 . S
C181 C184 1.363 . S
N182 C184 1.356 . S
N182 H194 0.984 . S
N182 H195 0.985 . S
N183 C185 1.356 . S
N183 H188 0.984 . S
N183 H189 0.985 . S
C184 C178 1.379 . S
C184 C181 1.363 . S
C184 N182 1.356 . S
C185 C179 1.363 . S
C185 C180 1.379 . S
C185 N183 1.356 . S
N186 C178 1.356 . S
N186 H192 0.984 . S
N186 H193 0.984 . S
N187 C180 1.356 . S
N187 H190 0.984 . S
N187 H191 0.985 . S
H188 N183 0.984 . S
H189 N183 0.985 . S
H190 N187 0.984 . S
H191 N187 0.985 . S
H192 N186 0.984 . S
H193 N186 0.984 . S
H194 N182 0.984 . S
H195 N182 0.985 . S
C196 C197 1.363 . S
C196 C202 1.379 . S
C196 N204 1.356 . S
C197 C196 1.363 . S
C197 C203 1.363 . S
C198 C199 1.363 . S
C198 C203 1.379 . S
C198 N205 1.356 . S
C199 C198 1.363 . S
C199 C202 1.363 . S
N200 C202 1.356 . S
N200 H212 0.984 . S
N200 H213 0.985 . S
N201 C203 1.356 . S
N201 H206 0.984 . S
N201 H207 0.985 . S
C202 C196 1.379 . S
C202 C199 1.363 . S
C202 N200 1.356 . S
C203 C197 1.363 . S
C203 C198 1.379 . S
C203 N201 1.356 . S
N204 C196 1.356 . S
N204 H210 0.984 . S
N204 H211 0.984 . S
N205 C198 1.356 . S
N205 H208 0.984 . S
N205 H209 0.985 1_556 S
H206 N201 0.984 . S
H207 N201 0.985 . S
H208 N205 0.984 . S
H209 N205 0.985 1_554 S
H210 N204 0.984 . S
H211 N204 0.984 . S
H212 N200 0.984 . S
H213 N200 0.985 . S
C214 C215 1.363 . S
C214 C220 1.379 . S
C214 N222 1.356 . S
C215 C214 1.363 . S
C215 C221 1.363 . S
C216 C217 1.363 . S
C216 C221 1.379 . S
C216 N223 1.356 . S
C217 C216 1.363 . S
C217 C220 1.363 . S
N218 C220 1.356 . S
N218 H230 0.984 . S
N218 H231 0.985 . S
N219 C221 1.356 . S
N219 H224 0.984 . S
N219 H225 0.985 . S
C220 C214 1.379 . S
C220 C217 1.363 . S
C220 N218 1.356 . S
C221 C215 1.363 . S
C221 C216 1.379 . S
C221 N219 1.356 . S
N222 C214 1.356 . S
N222 H228 0.984 . S
N222 H229 0.984 . S
N223 C216 1.356 . S
N223 H226 0.984 . S
N223 H227 0.985 . S
H224 N219 0.984 . S
H225 N219 0.985 . S
H226 N223 0.984 . S
H227 N223 0.985 . S
H228 N222 0.984 . S
H229 N222 0.984 . S
H230 N218 0.984 . S
H231 N218 0.985 . S
C232 C233 1.363 1_655 S
C232 C238 1.379 1_554 S
C232 N240 1.356 . S
C233 C232 1.363 1_455 S
C233 C239 1.363 . S
C234 C235 1.363 1_455 S
C234 C239 1.379 1_556 S
C234 N241 1.356 . S
C235 C234 1.363 1_655 S
C235 C238 1.363 . S
N236 C238 1.356 . S
N236 H248 0.984 . S
N236 H249 0.985 . S
N237 C239 1.356 . S
N237 H242 0.984 . S
N237 H243 0.985 . S
C238 C232 1.379 1_556 S
C238 C235 1.363 . S
C238 N236 1.356 . S
C239 C233 1.363 . S
C239 C234 1.379 1_554 S
C239 N237 1.356 . S
N240 C232 1.356 . S
N240 H246 0.984 . S
N240 H247 0.984 1_655 S
N241 C234 1.356 . S
N241 H244 0.984 1_455 S
N241 H245 0.985 . S
H242 N237 0.984 . S
H243 N237 0.985 . S
H244 N241 0.984 1_655 S
H245 N241 0.985 . S
H246 N240 0.984 . S
H247 N240 0.984 1_455 S
H248 N236 0.984 . S
H249 N236 0.985 . S
C250 C251 1.363 . S
C250 C256 1.379 . S
C250 N258 1.356 . S
C251 C250 1.363 . S
C251 C257 1.363 1_545 S
C252 C253 1.363 . S
C252 C257 1.379 . S
C252 N259 1.356 . S
C253 C252 1.363 . S
C253 C256 1.363 1_565 S
N254 C256 1.356 . S
N254 H266 0.984 . S
N254 H267 0.985 1_545 S
N255 C257 1.356 . S
N255 H260 0.984 1_565 S
N255 H261 0.985 . S
C256 C250 1.379 . S
C256 C253 1.363 1_545 S
C256 N254 1.356 . S
C257 C251 1.363 1_565 S
C257 C252 1.379 . S
C257 N255 1.356 . S
N258 C250 1.356 . S
N258 H264 0.984 . S
N258 H265 0.984 . S
N259 C252 1.356 . S
N259 H262 0.984 . S
N259 H263 0.985 . S
H260 N255 0.984 1_545 S
H261 N255 0.985 . S
H262 N259 0.984 . S
H263 N259 0.985 . S
H264 N258 0.984 . S
H265 N258 0.984 . S
H266 N254 0.984 . S
H267 N254 0.985 1_565 S
C268 C269 1.363 1_455 S
C268 C274 1.379 . S
C268 N276 1.356 . S
C269 C268 1.363 1_655 S
C269 C275 1.363 . S
C270 C271 1.363 1_655 S
C270 C275 1.379 . S
C270 N277 1.356 . S
C271 C270 1.363 1_455 S
C271 C274 1.363 . S
N272 C274 1.356 . S
N272 H284 0.984 . S
N272 H285 0.985 . S
N273 C275 1.356 . S
N273 H278 0.984 . S
N273 H279 0.985 . S
C274 C268 1.379 . S
C274 C271 1.363 . S
C274 N272 1.356 . S
C275 C269 1.363 . S
C275 C270 1.379 . S
C275 N273 1.356 . S
N276 C268 1.356 . S
N276 H282 0.984 . S
N276 H283 0.984 1_455 S
N277 C270 1.356 . S
N277 H280 0.984 1_655 S
N277 H281 0.985 . S
H278 N273 0.984 . S
H279 N273 0.985 . S
H280 N277 0.984 1_455 S
H281 N277 0.985 . S
H282 N276 0.984 . S
H283 N276 0.984 1_655 S
H284 N272 0.984 . S
H285 N272 0.985 . S
C286 C287 1.363 1_545 S
C286 C292 1.379 . S
C286 N294 1.356 . S
C287 C286 1.363 1_565 S
C287 C293 1.363 . S
C288 C289 1.363 1_565 S
C288 C293 1.379 . S
C288 N295 1.356 . S
C289 C288 1.363 1_545 S
C289 C292 1.363 . S
N290 C292 1.356 . S
N290 H302 0.984 . S
N290 H303 0.985 . S
N291 C293 1.356 . S
N291 H296 0.984 . S
N291 H297 0.985 . S
C292 C286 1.379 . S
C292 C289 1.363 . S
C292 N290 1.356 . S
C293 C287 1.363 . S
C293 C288 1.379 . S
C293 N291 1.356 . S
N294 C286 1.356 . S
N294 H300 0.984 . S
N294 H301 0.984 1_545 S
N295 C288 1.356 . S
N295 H298 0.984 1_565 S
N295 H299 0.985 . S
H296 N291 0.984 . S
H297 N291 0.985 . S
H298 N295 0.984 1_545 S
H299 N295 0.985 . S
H300 N294 0.984 . S
H301 N294 0.984 1_565 S
H302 N290 0.984 . S
H303 N290 0.985 . S
C89 C7 1.487 . S
C91 C51 1.487 . S
C107 C18 1.487 . S
C109 C62 1.487 . S
C125 C29 1.487 . S
C127 C73 1.487 . S
C143 C84 1.487 . S
C145 C40 1.487 . S
C161 C8 1.509 . S
C163 C63 1.509 . S
C179 C19 1.509 . S
C181 C74 1.509 . S
C197 C30 1.509 . S
C199 C85 1.509 . S
C215 C41 1.509 . S
C217 C52 1.509 . S
C233 C5 1.354 . S
C235 C71 1.354 . S
C251 C16 1.354 . S
C253 C82 1.354 . S
C269 C27 1.354 . S
C271 C49 1.354 . S
C287 C38 1.354 . S
C289 C60 1.354 . S
