# Generated by pormake.
# Topology fcu, (12)-cn, num edge types: 1
# Building blocks:
#     Node 0, Type 0, BuildingBlock: EZIPEK_clean_sbu_0, # of connection points: 12
#     Node 1, Type 0, BuildingBlock: EZIPEK_clean_sbu_0, # of connection points: 12
#     Node 2, Type 0, BuildingBlock: EZIPEK_clean_sbu_0, # of connection points: 12
#     Node 3, Type 0, BuildingBlock: EZIPEK_clean_sbu_0, # of connection points: 12
#     Edge 4, Type (0, 0), BuildingBlock: TEMPAE_clean_linker_10, # of connection points: 2
#     Edge 5, Type (0, 0), BuildingBlock: TEMPAE_clean_linker_10, # of connection points: 2
#     Edge 6, Type (0, 0), BuildingBlock: TEMPAE_clean_linker_10, # of connection points: 2
#     Edge 7, Type (0, 0), BuildingBlock: TEMPAE_clean_linker_10, # of connection points: 2
#     Edge 8, Type (0, 0), BuildingBlock: TEMPAE_clean_linker_10, # of connection points: 2
#     Edge 9, Type (0, 0), BuildingBlock: TEMPAE_clean_linker_10, # of connection points: 2
#     Edge 10, Type (0, 0), BuildingBlock: TEMPAE_clean_linker_10, # of connection points: 2
#     Edge 11, Type (0, 0), BuildingBlock: TEMPAE_clean_linker_10, # of connection points: 2
#     Edge 12, Type (0, 0), BuildingBlock: TEMPAE_clean_linker_10, # of connection points: 2
#     Edge 13, Type (0, 0), BuildingBlock: TEMPAE_clean_linker_10, # of connection points: 2
#     Edge 14, Type (0, 0), BuildingBlock: TEMPAE_clean_linker_10, # of connection points: 2
#     Edge 15, Type (0, 0), BuildingBlock: TEMPAE_clean_linker_10, # of connection points: 2
#     Edge 16, Type (0, 0), BuildingBlock: TEMPAE_clean_linker_10, # of connection points: 2
#     Edge 17, Type (0, 0), BuildingBlock: TEMPAE_clean_linker_10, # of connection points: 2
#     Edge 18, Type (0, 0), BuildingBlock: TEMPAE_clean_linker_10, # of connection points: 2
#     Edge 19, Type (0, 0), BuildingBlock: TEMPAE_clean_linker_10, # of connection points: 2
#     Edge 20, Type (0, 0), BuildingBlock: TEMPAE_clean_linker_10, # of connection points: 2
#     Edge 21, Type (0, 0), BuildingBlock: TEMPAE_clean_linker_10, # of connection points: 2
#     Edge 22, Type (0, 0), BuildingBlock: TEMPAE_clean_linker_10, # of connection points: 2
#     Edge 23, Type (0, 0), BuildingBlock: TEMPAE_clean_linker_10, # of connection points: 2
#     Edge 24, Type (0, 0), BuildingBlock: TEMPAE_clean_linker_10, # of connection points: 2
#     Edge 25, Type (0, 0), BuildingBlock: TEMPAE_clean_linker_10, # of connection points: 2
#     Edge 26, Type (0, 0), BuildingBlock: TEMPAE_clean_linker_10, # of connection points: 2
#     Edge 27, Type (0, 0), BuildingBlock: TEMPAE_clean_linker_10, # of connection points: 2
# Relax obj value: 0.000
# Max RMSD: 0.000
# Mean RMSD: 0.000
data_MOF--net-fcu--node1-EZIPEK_clean_sbu_0--edge1-TEMPAE_clean_linker_10
_symmetry_space_group_name_H-M    P1
_symmetry_Int_Tables_number       1
_symmetry_cell_setting            triclinic
loop_
_symmetry_equiv_pos_as_xyz
'x, y, z'
_cell_length_a     27.20925
_cell_length_b     27.210322
_cell_length_c     27.207618
_cell_angle_alpha  89.999172
_cell_angle_beta   90.000163
_cell_angle_gamma 89.997798
loop_
_atom_site_label
_atom_site_type_symbol
_atom_site_fract_x
_atom_site_fract_y
_atom_site_fract_z
_atom_type_partial_charge
C0 C 1.00761 0.88813 0.12627 0.0
C1 C 0.0084 0.88921 0.88826 0.0
C2 C 0.00886 0.12602 0.12766 0.0
C3 C 1.00566 0.12756 0.88928 0.0
C4 C 0.88963 0.12805 0.00981 0.0
C5 C 0.88761 0.88988 1.00663 0.0
C6 C 0.12754 0.12616 1.00507 0.0
C7 C 0.12586 0.88802 0.00921 0.0
C8 C 0.12557 1.00692 0.88732 0.0
C9 C 0.88753 0.00874 0.88945 0.0
C10 C 0.12797 0.0084 0.12549 0.0
C11 C 0.88965 1.00769 0.12757 0.0
Eu12 Eu 1.00697 0.91486 1.0075 0.0
O13 O 0.96335 0.96475 0.96418 0.0
O14 O 0.0516 0.96369 0.05076 0.0
Eu15 Eu 0.91463 0.00884 0.00818 0.0
Eu16 Eu 0.10072 1.00725 1.00656 0.0
O17 O 0.96381 0.96439 0.05152 0.0
O18 O 0.05054 0.96406 0.96335 0.0
Eu19 Eu 0.00852 1.00712 0.10077 0.0
Eu20 Eu 1.00682 0.00828 0.91453 0.0
O21 O 0.9648 0.05156 0.05198 0.0
O22 O 0.96408 0.05233 0.96446 0.0
O23 O 0.05114 0.0516 0.96378 0.0
O24 O 0.05203 0.05089 0.05121 0.0
Eu25 Eu 0.00835 0.10103 0.00839 0.0
O26 O 1.00425 0.87332 0.07964 0.0
O27 O 0.00985 0.87396 0.93489 0.0
O28 O 0.01112 0.14144 0.08115 0.0
O29 O 1.00512 0.14249 0.93605 0.0
O30 O 0.87415 0.08162 1.00665 0.0
O31 O 0.87285 0.93669 1.00632 0.0
O32 O 0.14228 0.07942 1.0028 0.0
O33 O 0.14133 0.93449 1.00642 0.0
O34 O 0.07883 0.00959 0.87267 0.0
O35 O 0.93403 1.0069 0.87393 0.0
O36 O 0.08146 1.00665 0.14108 0.0
O37 O 0.93634 1.00439 0.14227 0.0
O38 O 0.08108 0.14161 0.00817 0.0
O39 O 0.93635 0.14274 0.01246 0.0
O40 O 0.07911 0.87327 0.01116 0.0
O41 O 0.93416 0.87436 1.0074 0.0
O42 O 1.00623 0.93588 0.87326 0.0
O43 O 1.00701 0.08099 0.8739 0.0
O44 O 0.01096 0.93459 0.14155 0.0
O45 O 1.00657 0.07928 0.14244 0.0
O46 O 0.87419 0.01089 0.08109 0.0
O47 O 0.87285 0.01067 0.9362 0.0
O48 O 0.14261 0.00975 0.07865 0.0
O49 O 0.14109 1.00449 0.93378 0.0
C50 C 1.00458 0.38917 0.62705 0.0
C51 C 0.00927 0.62742 0.62619 0.0
C52 C 0.00828 0.38836 0.38887 0.0
C53 C 0.00786 0.6264 0.38793 0.0
C54 C 0.12772 0.50596 0.38978 0.0
C55 C 0.12573 0.50835 0.62789 0.0
C56 C 0.88932 0.50977 0.388 0.0
C57 C 0.88781 0.50806 0.62616 0.0
C58 C 0.88937 0.62767 0.50901 0.0
C59 C 0.12747 0.62606 0.50596 0.0
C60 C 0.88768 0.38966 0.50466 0.0
C61 C 0.12581 0.38786 0.51125 0.0
Eu62 Eu 1.00695 0.5082 0.60072 0.0
O63 O 0.05119 0.55151 0.55151 0.0
O64 O 0.96338 0.46445 0.55127 0.0
Eu65 Eu 0.10067 0.50715 0.5087 0.0
Eu66 Eu 0.91458 0.50851 0.50738 0.0
O67 O 0.05058 0.46383 0.55185 0.0
O68 O 0.964 0.5522 0.55092 0.0
Eu69 Eu 1.00694 0.41469 0.50781 0.0
Eu70 Eu 0.00828 0.60098 0.5071 0.0
O71 O 0.05138 0.46371 0.46445 0.0
O72 O 0.05198 0.55096 0.4642 0.0
O73 O 0.96453 0.55157 0.46355 0.0
O74 O 0.96393 0.46442 0.4639 0.0
Eu75 Eu 0.00831 0.5075 0.4146 0.0
O76 O 1.00693 0.43584 0.64203 0.0
O77 O 1.00673 0.58086 0.64146 0.0
O78 O 1.00676 0.43496 0.3736 0.0
O79 O 0.0096 0.57968 0.37307 0.0
O80 O 0.14243 0.50418 0.43657 0.0
O81 O 0.14121 0.5096 0.58138 0.0
O82 O 0.87393 0.51156 0.43459 0.0
O83 O 0.87298 0.50594 0.57947 0.0
O84 O 0.93604 0.64256 0.50647 0.0
O85 O 0.08097 0.64149 0.50353 0.0
O86 O 0.93423 0.37419 0.50363 0.0
O87 O 0.07911 0.37305 0.50867 0.0
O88 O 0.93603 0.5073 0.3732 0.0
O89 O 0.08123 0.50814 0.37423 0.0
O90 O 0.93433 0.51015 0.64155 0.0
O91 O 0.07895 0.50688 0.6426 0.0
O92 O 0.01113 0.64237 0.57947 0.0
O93 O 1.00626 0.64171 0.43451 0.0
O94 O 1.00315 0.37387 0.58044 0.0
O95 O 0.00973 0.37337 0.43555 0.0
O96 O 0.14121 0.43442 0.51272 0.0
O97 O 0.14229 0.57939 0.50903 0.0
O98 O 0.87291 0.43639 0.5068 0.0
O99 O 0.87396 0.58115 0.51097 0.0
C100 C 0.5062 0.88962 0.62752 0.0
C101 C 0.50836 0.12788 0.62566 0.0
C102 C 0.50945 0.88756 0.3896 0.0
C103 C 0.508 0.12554 0.38733 0.0
C104 C 0.62863 1.00773 0.39039 0.0
C105 C 0.6249 0.00848 0.62855 0.0
C106 C 0.39027 0.00784 0.38727 0.0
C107 C 0.38711 0.0082 0.62545 0.0
C108 C 0.38824 0.12656 0.50874 0.0
C109 C 0.62622 0.12757 0.50627 0.0
C110 C 0.38895 0.88833 0.50685 0.0
C111 C 0.62736 0.88944 0.50895 0.0
Eu112 Eu 0.50626 0.00856 0.60069 0.0
O113 O 0.55044 0.05225 0.55164 0.0
O114 O 0.46356 0.9641 0.55118 0.0
Eu115 Eu 0.60074 0.00853 0.50917 0.0
Eu116 Eu 0.41466 1.00753 0.50679 0.0
O117 O 0.55084 0.96476 0.55219 0.0
O118 O 0.4633 0.05194 0.55041 0.0
Eu119 Eu 0.50806 0.91474 0.50827 0.0
Eu120 Eu 0.50734 0.10097 0.50664 0.0
O121 O 0.55237 0.96396 0.46505 0.0
O122 O 0.5518 0.05131 0.46411 0.0
O123 O 0.4646 0.05069 0.46304 0.0
O124 O 0.46472 0.96367 0.46379 0.0
Eu125 Eu 0.50919 1.00675 0.41457 0.0
O126 O 0.50298 0.93633 0.6422 0.0
O127 O 0.50595 0.08138 0.64114 0.0
O128 O 0.51179 0.93402 0.37409 0.0
O129 O 0.5112 0.07882 0.37272 0.0
O130 O 0.64304 0.01007 0.43726 0.0
O131 O 0.64068 0.01068 0.58217 0.0
O132 O 0.37462 0.01027 0.43373 0.0
O133 O 0.3726 1.00521 0.57869 0.0
O134 O 0.43478 0.14188 0.50643 0.0
O135 O 0.57956 0.14235 0.50291 0.0
O136 O 0.43569 0.87336 0.50727 0.0
O137 O 0.58079 0.87416 0.50655 0.0
O138 O 0.43706 1.005 0.3727 0.0
O139 O 0.58223 1.0053 0.37467 0.0
O140 O 0.43352 0.01108 0.641 0.0
O141 O 0.57806 1.00629 0.64299 0.0
O142 O 0.51012 0.14264 0.57887 0.0
O143 O 0.50483 0.14111 0.43374 0.0
O144 O 0.50969 0.87422 0.58106 0.0
O145 O 0.50671 0.87288 0.4363 0.0
O146 O 0.64218 0.93619 0.51123 0.0
O147 O 0.64148 0.08115 0.51038 0.0
O148 O 0.3737 0.93497 0.50671 0.0
O149 O 0.37332 0.07984 0.51019 0.0
C150 C 0.50502 0.62792 0.88975 0.0
C151 C 0.50878 0.62596 0.12785 0.0
C152 C 0.50952 0.38957 0.88789 0.0
C153 C 0.50857 0.38795 0.12617 0.0
C154 C 0.62804 0.39009 0.00864 0.0
C155 C 0.62546 0.62815 1.00641 0.0
C156 C 0.38977 0.38762 1.00548 0.0
C157 C 0.38735 0.62577 0.01037 0.0
C158 C 0.38995 0.50591 0.12794 0.0
C159 C 0.62823 0.50879 0.12522 0.0
C160 C 0.38726 0.50761 0.88975 0.0
C161 C 0.62517 0.50892 0.88708 0.0
Eu162 Eu 0.50673 0.60088 0.00867 0.0
O163 O 0.55158 0.55166 0.05131 0.0
O164 O 0.46301 0.55162 0.96473 0.0
Eu165 Eu 0.60066 0.50888 1.00641 0.0
Eu166 Eu 0.41462 0.50697 0.00846 0.0
O167 O 0.5502 0.55229 0.96379 0.0
O168 O 0.46405 0.55058 0.05224 0.0
Eu169 Eu 0.50638 0.50854 0.91458 0.0
Eu170 Eu 0.50893 0.50718 0.10081 0.0
O171 O 0.55103 0.46494 0.96323 0.0
O172 O 0.55239 0.46432 0.05055 0.0
O173 O 0.46495 0.46354 0.05157 0.0
O174 O 0.46398 0.46387 0.9642 0.0
Eu175 Eu 0.50862 0.41473 1.00728 0.0
O176 O 0.50778 0.64261 0.9365 0.0
O177 O 0.50551 0.64136 0.0814 0.0
O178 O 0.5116 0.37417 0.93446 0.0
O179 O 0.50687 0.37316 0.07943 0.0
O180 O 0.64262 0.43689 1.00637 0.0
O181 O 0.6409 0.58174 1.00266 0.0
O182 O 0.37424 0.43416 1.00472 0.0
O183 O 0.37269 0.57897 0.00922 0.0
O184 O 0.43674 0.50848 0.14258 0.0
O185 O 0.58188 0.50536 0.14086 0.0
O186 O 0.43369 0.50562 0.87416 0.0
O187 O 0.57835 0.51117 0.87253 0.0
O188 O 0.43655 0.3729 1.00718 0.0
O189 O 0.58153 0.37452 0.0102 0.0
O190 O 0.43388 0.64136 0.01072 0.0
O191 O 0.5788 0.6427 0.01068 0.0
O192 O 0.51167 0.57924 0.14251 0.0
O193 O 0.5102 0.43451 0.14156 0.0
O194 O 0.50274 0.58141 0.87428 0.0
O195 O 0.50663 0.43627 0.8731 0.0
O196 O 0.64076 0.50668 0.93353 0.0
O197 O 0.64272 0.51188 0.07842 0.0
O198 O 0.37263 0.50971 0.93652 0.0
O199 O 0.37441 0.50381 0.08142 0.0
C200 C 0.03758 0.20644 0.16081 0.0
C201 C 0.00869 0.16417 0.16614 0.0
C202 C 0.03808 0.24291 0.19727 0.0
C203 C 0.00784 0.23755 0.2393 0.0
C204 C 0.97793 0.19524 0.24441 0.0
C205 C 0.97932 0.15863 0.20807 0.0
C206 C 0.0715 0.2868 0.19116 0.0
C207 C 0.94407 0.18892 0.28794 0.0
C208 C 0.03854 0.30866 0.35549 0.0
C209 C 0.00815 0.34992 0.35075 0.0
C210 C 0.03933 0.2721 0.3191 0.0
C211 C 1.00766 0.27618 0.27798 0.0
C212 C 0.97613 0.31738 0.27363 0.0
C213 C 0.97741 0.35426 0.30969 0.0
C214 C 0.07444 0.22944 0.32434 0.0
C215 C 0.94085 0.32235 0.23107 0.0
H216 H 0.0606 0.21049 0.12852 0.0
H217 H 0.95656 0.12614 0.21189 0.0
H218 H 0.04978 0.32127 0.19213 0.0
H219 H 0.09801 0.28832 0.22212 0.0
H220 H 0.09239 0.2856 0.15612 0.0
H221 H 0.92176 0.15481 0.28541 0.0
H222 H 0.96577 0.18771 0.32242 0.0
H223 H 0.91883 0.22085 0.29066 0.0
H224 H 0.06254 0.30556 0.38715 0.0
H225 H 0.95356 0.38601 0.30636 0.0
H226 H 0.0984 0.22701 0.29142 0.0
H227 H 0.05362 0.19449 0.32677 0.0
H228 H 0.09805 0.23284 0.35744 0.0
H229 H 0.96161 0.32554 0.19613 0.0
H230 H 0.91663 0.35498 0.23481 0.0
H231 H 0.9175 0.28902 0.22828 0.0
C232 C 0.81123 0.03958 0.16258 0.0
C233 C 0.85173 0.00803 0.16626 0.0
C234 C 0.77534 0.04098 0.19963 0.0
C235 C 0.77933 0.00883 0.24041 0.0
C236 C 0.81992 0.97639 0.24386 0.0
C237 C 0.85611 0.97699 0.20709 0.0
C238 C 0.73333 0.077 0.19527 0.0
C239 C 0.82476 0.94059 0.286 0.0
C240 C 0.7097 0.03647 0.35841 0.0
C241 C 0.66734 0.00782 0.3524 0.0
C242 C 0.74614 0.03781 0.32186 0.0
C243 C 0.74065 0.00861 0.27909 0.0
C244 C 0.69817 0.97912 0.27324 0.0
C245 C 0.6617 0.9796 0.30971 0.0
C246 C 0.79017 0.0709 0.32872 0.0
C247 C 0.69156 0.94648 0.22884 0.0
H248 H 0.80818 0.06394 0.13117 0.0
H249 H 0.88733 0.95235 0.20968 0.0
H250 H 0.69795 0.05688 0.19289 0.0
H251 H 0.73164 0.10051 0.22856 0.0
H252 H 0.73685 0.10103 0.16245 0.0
H253 H 0.85789 0.91695 0.28255 0.0
H254 H 0.82684 0.9608 0.32132 0.0
H255 H 0.79178 0.91665 0.28769 0.0
H256 H 0.71381 0.05873 0.39121 0.0
H257 H 0.6291 0.95711 0.30525 0.0
H258 H 0.79325 0.09662 0.29721 0.0
H259 H 0.82431 0.04867 0.32954 0.0
H260 H 0.78798 0.09268 0.3632 0.0
H261 H 0.69449 0.96835 0.19457 0.0
H262 H 0.65553 0.92732 0.22894 0.0
H263 H 0.72122 0.91849 0.22791 0.0
C264 C 0.04017 0.8528 0.20413 0.0
C265 C 1.00767 0.84971 0.16435 0.0
C266 C 0.04121 0.81605 0.2403 0.0
C267 C 1.00766 0.77635 0.23741 0.0
C268 C 0.97414 0.77362 0.19766 0.0
C269 C 0.97519 0.80994 0.16105 0.0
C270 C 0.07833 0.81955 0.28141 0.0
C271 C 0.93697 0.73258 0.19401 0.0
C272 C 0.03478 0.65791 0.30616 0.0
C273 C 1.0077 0.66457 0.34945 0.0
C274 C 0.03559 0.69429 0.2696 0.0
C275 C 1.00759 0.7377 0.27604 0.0
C276 C 0.97963 0.74425 0.31946 0.0
C277 C 0.98055 0.70784 0.35597 0.0
C278 C 0.06705 0.68665 0.22451 0.0
C279 C 0.94817 0.78935 0.32702 0.0
H280 H 0.06553 0.88346 0.20635 0.0
H281 H 0.94982 0.80788 0.13039 0.0
H282 H 0.05913 0.82378 0.31711 0.0
H283 H 0.10026 0.78522 0.28343 0.0
H284 H 0.10382 0.85104 0.27655 0.0
H285 H 0.91147 0.73759 0.16254 0.0
H286 H 0.95614 0.69688 0.18962 0.0
H287 H 0.91505 0.73045 0.22834 0.0
H288 H 0.0562 0.62466 0.30135 0.0
H289 H 0.95921 0.71277 0.38926 0.0
H290 H 0.09536 0.71594 0.22242 0.0
H291 H 0.04431 0.68941 0.19079 0.0
H292 H 0.08576 0.65038 0.22464 0.0
H293 H 0.97085 0.82308 0.32403 0.0
H294 H 0.92959 0.78937 0.36337 0.0
H295 H 0.91974 0.79128 0.29783 0.0
C296 C 0.31158 0.03961 0.35273 0.0
C297 C 0.35236 0.00847 0.34853 0.0
C298 C 0.27542 0.041 0.31594 0.0
C299 C 0.27938 0.00923 0.27487 0.0
C300 C 0.32027 0.97721 0.27086 0.0
C301 C 0.35674 0.97785 0.30739 0.0
C302 C 0.23314 0.07662 0.3209 0.0
C303 C 0.32511 0.94178 0.22842 0.0
C304 C 0.16137 0.98006 0.206 0.0
C305 C 0.16664 0.00868 0.16353 0.0
C306 C 0.19812 0.97935 0.24221 0.0
C307 C 0.24046 0.0091 0.23639 0.0
C308 C 0.2455 0.03874 0.19386 0.0
C309 C 0.20885 0.03755 0.15752 0.0
C310 C 0.19201 0.94619 0.2863 0.0
C311 C 0.2893 0.07213 0.18703 0.0
H312 H 0.30848 0.06362 0.3844 0.0
H313 H 0.38814 0.95348 0.30441 0.0
H314 H 0.23102 0.10039 0.28782 0.0
H315 H 0.19796 0.05618 0.32338 0.0
H316 H 0.23669 0.10041 0.3539 0.0
H317 H 0.35844 0.91838 0.23146 0.0
H318 H 0.2923 0.91761 0.22674 0.0
H319 H 0.32681 0.96229 0.19324 0.0
H320 H 0.12891 0.95737 0.21041 0.0
H321 H 0.21268 0.06005 0.12485 0.0
H322 H 0.19446 0.96783 0.32074 0.0
H323 H 0.22217 0.91874 0.28707 0.0
H324 H 0.15633 0.92638 0.28593 0.0
H325 H 0.29246 0.09755 0.21877 0.0
H326 H 0.28677 0.09422 0.15278 0.0
H327 H 0.32356 0.05008 0.18576 0.0
C328 C 0.97975 0.85579 0.80792 0.0
C329 C 0.00932 0.85106 0.84979 0.0
C330 C 0.97954 0.81931 0.77142 0.0
C331 C 0.01084 0.77799 0.77627 0.0
C332 C 0.04156 0.77364 0.8181 0.0
C333 C 0.0398 0.80988 0.8548 0.0
C334 C 0.9452 0.82456 0.72813 0.0
C335 C 0.07647 0.73088 0.82393 0.0
C336 C 0.98061 0.66081 0.70654 0.0
C337 C 0.00992 0.66577 0.6645 0.0
C338 C 0.98019 0.69731 0.74299 0.0
C339 C 0.01093 0.73902 0.73787 0.0
C340 C 0.04136 0.74366 0.69586 0.0
C341 C 0.03987 0.70732 0.65924 0.0
C342 C 0.94618 0.69169 0.78649 0.0
C343 C 0.07574 0.7868 0.68978 0.0
H344 H 0.95588 0.88749 0.80429 0.0
H345 H 0.06303 0.80653 0.88702 0.0
H346 H 0.96627 0.82381 0.69325 0.0
H347 H 0.91926 0.7931 0.72728 0.0
H348 H 0.92367 0.85919 0.72957 0.0
H349 H 0.09955 0.73417 0.85746 0.0
H350 H 0.05549 0.69599 0.82599 0.0
H351 H 0.10095 0.72837 0.7914 0.0
H352 H 0.95712 0.62885 0.71036 0.0
H353 H 0.06291 0.71086 0.62691 0.0
H354 H 0.91907 0.72217 0.78668 0.0
H355 H 0.9672 0.69397 0.82133 0.0
H356 H 0.92596 0.65625 0.78583 0.0
H357 H 0.05438 0.82146 0.68793 0.0
H358 H 0.0986 0.78379 0.65608 0.0
H359 H 0.10045 0.78955 0.72212 0.0
C360 C 0.15873 0.03753 0.80765 0.0
C361 C 0.16352 1.00686 0.84871 0.0
C362 C 0.19519 0.03874 0.77117 0.0
C363 C 0.23648 1.0073 0.7752 0.0
C364 C 0.24099 0.97562 0.81626 0.0
C365 C 0.20478 0.97638 0.85299 0.0
C366 C 0.18985 0.07405 0.72869 0.0
C367 C 0.28379 0.94063 0.82114 0.0
C368 C 0.30653 0.97892 0.65781 0.0
C369 C 0.34847 0.00824 0.66342 0.0
C370 C 0.27008 0.9777 0.69429 0.0
C371 C 0.27509 1.0077 0.73653 0.0
C372 C 0.31704 0.03803 0.7419 0.0
C373 C 0.35363 0.03737 0.70556 0.0
C374 C 0.22656 0.94386 0.68794 0.0
C375 C 0.32303 0.07153 0.78575 0.0
H376 H 0.12698 0.06143 0.80466 0.0
H377 H 0.20821 0.95239 0.88463 0.0
H378 H 0.22244 0.0985 0.72676 0.0
H379 H 0.18808 0.05346 0.69356 0.0
H380 H 0.15638 0.09716 0.73191 0.0
H381 H 0.28109 0.91747 0.85463 0.0
H382 H 0.28557 0.91624 0.7885 0.0
H383 H 0.31879 0.96147 0.82257 0.0
H384 H 0.3028 0.95605 0.62539 0.0
H385 H 0.38591 0.06039 0.70965 0.0
H386 H 0.19204 0.96551 0.68714 0.0
H387 H 0.2241 0.91832 0.71965 0.0
H388 H 0.22892 0.92188 0.65363 0.0
H389 H 0.29146 0.09727 0.78791 0.0
H390 H 0.35752 0.09328 0.78403 0.0
H391 H 0.32318 0.04969 0.82016 0.0
C392 C 0.97262 0.31037 0.66125 0.0
C393 C 1.00382 0.35108 0.66557 0.0
C394 C 0.97115 0.27418 0.69802 0.0
C395 C 1.00293 0.27804 0.73911 0.0
C396 C 0.03503 0.31882 0.74316 0.0
C397 C 0.03445 0.35534 0.70672 0.0
C398 C 0.93544 0.23198 0.69305 0.0
C399 C 0.07051 0.32351 0.78558 0.0
C400 C 0.97565 0.20798 0.85694 0.0
C401 C 1.00478 0.16595 0.851 0.0
C402 C 0.97383 0.2443 0.8203 0.0
C403 C 1.00311 0.23911 0.77755 0.0
C404 C 0.03306 0.19692 0.77175 0.0
C405 C 0.03297 0.16048 0.80826 0.0
C406 C 0.94028 0.28798 0.82715 0.0
C407 C 0.06593 0.19072 0.72745 0.0
H408 H 0.94863 0.30739 0.62956 0.0
H409 H 0.05886 0.38669 0.70977 0.0
H410 H 0.9558 0.19676 0.69052 0.0
H411 H 0.9117 0.22988 0.72615 0.0
H412 H 0.91163 0.23563 0.66007 0.0
H413 H 0.09431 0.35649 0.78226 0.0
H414 H 0.04999 0.3258 0.82072 0.0
H415 H 0.09428 0.29043 0.78756 0.0
H416 H 0.95346 0.21192 0.88981 0.0
H417 H 0.05584 0.12813 0.8039 0.0
H418 H 0.9149 0.29114 0.79537 0.0
H419 H 0.96224 0.32229 0.82853 0.0
H420 H 0.91814 0.28532 0.86136 0.0
H421 H 0.04406 0.19307 0.69314 0.0
H422 H 0.08577 0.15507 0.72779 0.0
H423 H 0.09334 0.2209 0.72642 0.0
C424 C 0.70414 0.03878 0.66287 0.0
C425 C 0.66277 0.00849 0.66727 0.0
C426 C 0.74038 0.03952 0.69955 0.0
C427 C 0.73582 0.00798 0.74071 0.0
C428 C 0.69438 0.97673 0.74488 0.0
C429 C 0.65786 0.97798 0.70844 0.0
C430 C 0.78329 0.07436 0.69449 0.0
C431 C 0.68889 0.94162 0.78753 0.0
C432 C 0.85369 0.9789 0.80969 0.0
C433 C 0.84878 0.00842 0.85158 0.0
C434 C 0.81664 0.97757 0.77381 0.0
C435 C 0.77452 1.00766 0.77932 0.0
C436 C 0.7697 0.03792 0.82141 0.0
C437 C 0.80663 0.0374 0.85742 0.0
C438 C 0.82234 0.94365 0.73025 0.0
C439 C 0.7261 0.07164 0.8279 0.0
H440 H 0.70765 0.06266 0.63115 0.0
H441 H 0.62601 0.95423 0.71152 0.0
H442 H 0.78494 0.09907 0.7269 0.0
H443 H 0.81825 0.05344 0.69343 0.0
H444 H 0.78079 0.09719 0.66076 0.0
H445 H 0.65531 0.91859 0.78443 0.0
H446 H 0.72141 0.91709 0.78959 0.0
H447 H 0.6872 0.96239 0.82256 0.0
H448 H 0.88608 0.95607 0.8055 0.0
H449 H 0.80308 0.06052 0.88967 0.0
H450 H 0.82288 0.96525 0.69569 0.0
H451 H 0.79048 0.91827 0.72817 0.0
H452 H 0.85656 0.92152 0.73226 0.0
H453 H 0.72624 0.09987 0.79845 0.0
H454 H 0.72642 0.09053 0.86407 0.0
H455 H 0.69127 0.05076 0.82447 0.0
C456 C 0.30949 0.35486 0.97573 0.0
C457 C 0.35178 0.34896 1.0045 0.0
C458 C 0.2732 0.31821 0.97421 0.0
C459 C 0.27871 0.27546 1.00341 0.0
C460 C 0.32118 0.26965 0.03295 0.0
C461 C 0.35761 0.30619 0.03255 0.0
C462 C 0.22913 0.32513 0.94118 0.0
C463 C 0.32771 0.2253 0.06568 0.0
C464 C 0.1624 0.20515 0.03545 0.0
C465 C 0.16605 0.16424 1.00444 0.0
C466 C 0.19923 0.24126 0.03603 0.0
C467 C 0.23973 0.23709 1.00359 0.0
C468 C 0.24306 0.19618 0.97154 0.0
C469 C 0.20654 0.15974 0.97298 0.0
C470 C 0.19509 0.28354 0.07177 0.0
C471 C 0.28493 0.19113 0.93545 0.0
H472 H 0.30523 0.38779 0.95369 0.0
H473 H 0.39014 0.30187 0.05515 0.0
H474 H 0.22557 0.29333 0.91588 0.0
H475 H 0.1951 0.32665 0.96356 0.0
H476 H 0.23161 0.35931 0.91896 0.0
H477 H 0.36296 0.22627 0.08621 0.0
H478 H 0.29705 0.22335 0.09251 0.0
H479 H 0.32654 0.19114 0.04349 0.0
H480 H 0.13124 0.20832 0.0601 0.0
H481 H 0.20906 0.12822 0.94872 0.0
H482 H 0.19292 0.3188 0.05145 0.0
H483 H 0.22836 0.28515 0.09531 0.0
H484 H 0.16226 0.28034 0.09579 0.0
H485 H 0.28678 0.22418 0.91163 0.0
H486 H 0.28106 0.15811 0.91173 0.0
H487 H 0.32035 0.18866 0.95547 0.0
C488 C 0.30608 0.65788 0.98276 0.0
C489 C 0.34862 0.66369 0.01117 0.0
C490 C 0.26942 0.69419 0.98224 0.0
C491 C 0.27492 0.73659 0.01195 0.0
C492 C 0.31737 0.74201 0.0416 0.0
C493 C 0.35414 0.70583 0.04022 0.0
C494 C 0.22547 0.68772 0.94898 0.0
C495 C 0.3238 0.78588 0.07497 0.0
C496 C 0.20523 0.85322 0.97964 0.0
C497 C 0.1639 0.84946 0.01009 0.0
C498 C 0.24129 0.81633 0.97934 0.0
C499 C 0.23661 0.77562 0.01146 0.0
C500 C 0.19528 0.7722 0.04297 0.0
C501 C 0.15894 0.80881 0.04127 0.0
C502 C 0.28402 0.82057 0.94417 0.0
C503 C 0.18964 0.73009 0.07868 0.0
H504 H 0.30206 0.62545 0.95995 0.0
H505 H 0.38686 0.71004 0.06258 0.0
H506 H 0.19082 0.69271 0.96985 0.0
H507 H 0.22624 0.71621 0.91979 0.0
H508 H 0.22479 0.65096 0.9313 0.0
H509 H 0.35778 0.78336 0.09743 0.0
H510 H 0.32538 0.82008 0.05286 0.0
H511 H 0.29179 0.78911 0.10004 0.0
H512 H 0.20875 0.8845 0.9552 0.0
H513 H 0.1271 0.80619 0.06511 0.0
H514 H 0.28466 0.78823 0.91932 0.0
H515 H 0.3192 0.82072 0.96475 0.0
H516 H 0.28209 0.85443 0.92149 0.0
H517 H 0.18722 0.69484 0.05835 0.0
H518 H 0.15638 0.73393 0.10206 0.0
H519 H 0.22243 0.72789 0.10285 0.0
C520 C 0.66017 0.30886 0.03659 0.0
C521 C 0.6668 0.35214 0.00948 0.0
C522 C 0.69685 0.2726 0.03799 0.0
C523 C 0.74053 0.27926 0.01046 0.0
C524 C 0.74715 0.32274 0.98261 0.0
C525 C 0.71044 0.35899 0.98299 0.0
C526 C 0.68897 0.22734 0.06914 0.0
C527 C 0.79256 0.33055 0.95166 0.0
C528 C 0.85504 0.2061 0.04288 0.0
C529 C 0.85167 0.16661 0.01007 0.0
C530 C 0.81864 0.24266 0.04401 0.0
C531 C 0.77902 0.24043 0.01028 0.0
C532 C 0.77613 0.20102 0.97637 0.0
C533 C 0.81206 0.16403 0.97733 0.0
C534 C 0.82229 0.28333 0.0816 0.0
C535 C 0.73529 0.19807 0.93891 0.0
H536 H 0.62661 0.30373 0.05746 0.0
H537 H 0.71539 0.39226 0.96161 0.0
H538 H 0.68824 0.19417 0.04546 0.0
H539 H 0.71994 0.22284 0.0953 0.0
H540 H 0.65409 0.22895 0.09031 0.0
H541 H 0.79239 0.36672 0.93274 0.0
H542 H 0.826 0.32818 0.97486 0.0
H543 H 0.79526 0.30113 0.92354 0.0
H544 H 0.88559 0.20775 0.06843 0.0
H545 H 0.80981 0.1336 0.95169 0.0
H546 H 0.78849 0.28419 0.10442 0.0
H547 H 0.82514 0.31941 0.06286 0.0
H548 H 0.85456 0.27885 0.10622 0.0
H549 H 0.69961 0.19247 0.9578 0.0
H550 H 0.74086 0.16755 0.91239 0.0
H551 H 0.73267 0.23306 0.91811 0.0
C552 C 0.80642 0.85822 0.97799 0.0
C553 C 0.84902 0.85178 1.0062 0.0
C554 C 0.76982 0.82185 0.97664 0.0
C555 C 0.77535 0.77883 1.00546 0.0
C556 C 0.81809 0.77253 0.03452 0.0
C557 C 0.85476 0.80882 0.03398 0.0
C558 C 0.72555 0.8292 0.94399 0.0
C559 C 0.82472 0.72788 0.06683 0.0
C560 C 0.65955 0.70741 0.03726 0.0
C561 C 0.66341 0.66682 1.00584 0.0
C562 C 0.69605 0.74387 0.03798 0.0
C563 C 0.73643 0.74038 1.00528 0.0
C564 C 0.73987 0.69987 0.97273 0.0
C565 C 0.70369 0.66311 0.97401 0.0
C566 C 0.69179 0.7857 0.07421 0.0
C567 C 0.78162 0.69548 0.93641 0.0
H568 H 0.80223 0.89128 0.95612 0.0
H569 H 0.88753 0.80408 0.05615 0.0
H570 H 0.72197 0.79784 0.91814 0.0
H571 H 0.69162 0.83018 0.96655 0.0
H572 H 0.72779 0.86376 0.92235 0.0
H573 H 0.86084 0.72775 0.08582 0.0
H574 H 0.79518 0.72683 0.09494 0.0
H575 H 0.82158 0.69379 0.04472 0.0
H576 H 0.62854 0.70999 0.06217 0.0
H577 H 0.70638 0.63187 0.9494 0.0
H578 H 0.6898 0.82122 0.05433 0.0
H579 H 0.72496 0.78694 0.09791 0.0
H580 H 0.65882 0.78227 0.09806 0.0
H581 H 0.78339 0.72894 0.91314 0.0
H582 H 0.77771 0.66287 0.91215 0.0
H583 H 0.8171 0.69269 0.95629 0.0
C584 C 0.70609 0.48081 0.85463 0.0
C585 C 0.66322 0.50868 0.84846 0.0
C586 C 0.74253 0.47987 0.81815 0.0
C587 C 0.73652 0.50863 0.77519 0.0
C588 C 0.69353 0.53737 0.76911 0.0
C589 C 0.657 0.53645 0.80555 0.0
C590 C 0.78719 0.44771 0.82537 0.0
C591 C 0.68642 0.56955 0.72445 0.0
C592 C 0.85262 0.5402 0.70431 0.0
C593 C 0.84926 0.5082 0.66414 0.0
C594 C 0.81559 0.54149 0.74021 0.0
C595 C 0.77531 0.50869 0.73667 0.0
C596 C 0.77231 0.47568 0.69652 0.0
C597 C 0.80892 0.4765 0.66019 0.0
C598 C 0.8194 0.57813 0.78172 0.0
C599 C 0.73072 0.43919 0.69219 0.0
H600 H 0.7107 0.45896 0.88763 0.0
H601 H 0.62402 0.55837 0.80101 0.0
H602 H 0.79074 0.42165 0.79419 0.0
H603 H 0.82091 0.4706 0.8259 0.0
H604 H 0.78545 0.42635 0.86011 0.0
H605 H 0.65169 0.59097 0.72613 0.0
H606 H 0.71765 0.59556 0.72095 0.0
H607 H 0.68594 0.54666 0.69073 0.0
H608 H 0.88368 0.56501 0.70701 0.0
H609 H 0.80663 0.45153 0.62921 0.0
H610 H 0.82327 0.5585 0.81723 0.0
H611 H 0.78534 0.60047 0.78386 0.0
H612 H 0.85123 0.60327 0.77725 0.0
H613 H 0.72787 0.41708 0.72635 0.0
H614 H 0.73566 0.41383 0.66062 0.0
H615 H 0.69538 0.45896 0.68756 0.0
C616 C 0.20675 0.53614 0.66044 0.0
C617 C 0.16377 0.50845 0.66649 0.0
C618 C 0.24311 0.53688 0.69702 0.0
C619 C 0.23679 0.50819 0.74 0.0
C620 C 0.19365 0.47967 0.74595 0.0
C621 C 0.15731 0.48067 0.70936 0.0
C622 C 0.28784 0.56899 0.69006 0.0
C623 C 0.18634 0.44736 0.79049 0.0
C624 C 0.35222 0.47577 0.81147 0.0
C625 C 0.34869 0.50752 0.85181 0.0
C626 C 0.3155 0.4749 0.77526 0.0
C627 C 0.27539 0.5079 0.77868 0.0
C628 C 0.27221 0.54066 0.81902 0.0
C629 C 0.30849 0.5394 0.85566 0.0
C630 C 0.31951 0.43856 0.7335 0.0
C631 C 0.23071 0.57726 0.82325 0.0
H632 H 0.2115 0.558 0.62747 0.0
H633 H 0.12428 0.45883 0.71377 0.0
H634 H 0.28898 0.59737 0.71934 0.0
H635 H 0.32188 0.54682 0.69339 0.0
H636 H 0.288 0.58765 0.65376 0.0
H637 H 0.14995 0.42891 0.79039 0.0
H638 H 0.21546 0.41882 0.79159 0.0
H639 H 0.18966 0.46933 0.82466 0.0
H640 H 0.38324 0.45089 0.8088 0.0
H641 H 0.3061 0.56421 0.88676 0.0
H642 H 0.32361 0.45845 0.69815 0.0
H643 H 0.28544 0.41629 0.731 0.0
H644 H 0.35128 0.41335 0.73797 0.0
H645 H 0.22821 0.5996 0.78922 0.0
H646 H 0.23549 0.60239 0.85503 0.0
H647 H 0.19526 0.55758 0.82748 0.0
C648 C 0.16273 0.53718 0.31115 0.0
C649 C 0.16632 0.50579 0.35178 0.0
C650 C 0.19962 0.53812 0.27509 0.0
C651 C 0.2401 0.50558 0.27894 0.0
C652 C 0.2434 0.47321 0.31961 0.0
C653 C 0.20684 0.47434 0.35605 0.0
C654 C 0.19549 0.57421 0.23312 0.0
C655 C 0.28517 0.43698 0.32432 0.0
C656 C 0.30929 0.47721 0.16089 0.0
C657 C 0.35193 0.50551 0.16667 0.0
C658 C 0.273 0.47617 0.19758 0.0
C659 C 0.27888 0.50532 0.24032 0.0
C660 C 0.32164 0.53449 0.24597 0.0
C661 C 0.35804 0.53362 0.20938 0.0
C662 C 0.22859 0.44359 0.19075 0.0
C663 C 0.32862 0.56715 0.29031 0.0
H664 H 0.13153 0.56181 0.30817 0.0
H665 H 0.20932 0.4498 0.38736 0.0
H666 H 0.22937 0.59678 0.23068 0.0
H667 H 0.19175 0.55411 0.19787 0.0
H668 H 0.16346 0.59918 0.2373 0.0
H669 H 0.28144 0.41319 0.35731 0.0
H670 H 0.28672 0.41322 0.2912 0.0
H671 H 0.32068 0.45686 0.3266 0.0
H672 H 0.30475 0.45512 0.12803 0.0
H673 H 0.39082 0.55589 0.21365 0.0
H674 H 0.19475 0.46629 0.18956 0.0
H675 H 0.22498 0.41816 0.22244 0.0
H676 H 0.23065 0.42153 0.15645 0.0
H677 H 0.29731 0.5931 0.29347 0.0
H678 H 0.36328 0.58867 0.28843 0.0
H679 H 0.32914 0.54464 0.32428 0.0
C680 C 0.66318 0.47802 0.20404 0.0
C681 C 0.66683 0.50918 0.16323 0.0
C682 C 0.69976 0.47766 0.24041 0.0
C683 C 0.73997 0.5105 0.23664 0.0
C684 C 0.74333 0.54266 0.19581 0.0
C685 C 0.70707 0.541 0.1591 0.0
C686 C 0.69558 0.44183 0.2826 0.0
C687 C 0.78493 0.57909 0.19113 0.0
C688 C 0.80874 0.53874 0.35497 0.0
C689 C 0.85131 0.51032 0.3493 0.0
C690 C 0.77265 0.54 0.31809 0.0
C691 C 0.77868 0.51094 0.27529 0.0
C692 C 0.82145 0.48179 0.2697 0.0
C693 C 0.85758 0.48236 0.30651 0.0
C694 C 0.72827 0.57266 0.32475 0.0
C695 C 0.82858 0.44921 0.22533 0.0
H696 H 0.63217 0.45317 0.20698 0.0
H697 H 0.70956 0.56543 0.1277 0.0
H698 H 0.7293 0.419 0.28489 0.0
H699 H 0.69227 0.46212 0.31779 0.0
H700 H 0.66333 0.41712 0.27877 0.0
H701 H 0.78116 0.60277 0.15807 0.0
H702 H 0.78629 0.60293 0.2242 0.0
H703 H 0.82054 0.55936 0.18899 0.0
H704 H 0.80413 0.56075 0.38787 0.0
H705 H 0.8903 0.46 0.30234 0.0
H706 H 0.6944 0.55002 0.32592 0.0
H707 H 0.72476 0.59803 0.293 0.0
H708 H 0.73031 0.59478 0.35901 0.0
H709 H 0.79941 0.42072 0.2245 0.0
H710 H 0.86493 0.43067 0.22545 0.0
H711 H 0.82523 0.47096 0.19103 0.0
C712 C 0.35809 0.80607 0.4805 0.0
C713 C 0.35069 0.84987 0.50654 0.0
C714 C 0.32174 0.76947 0.47934 0.0
C715 C 0.27751 0.7764 0.50592 0.0
C716 C 0.2702 0.82034 0.53287 0.0
C717 C 0.30664 0.85687 0.5323 0.0
C718 C 0.33029 0.72383 0.44895 0.0
C719 C 0.2243 0.82838 0.56303 0.0
C720 C 0.1633 0.70328 0.47231 0.0
C721 C 0.16592 0.66413 0.5056 0.0
C722 C 0.19993 0.73961 0.47133 0.0
C723 C 0.23897 0.73758 0.50574 0.0
C724 C 0.24114 0.69848 0.54007 0.0
C725 C 0.20504 0.66164 0.53893 0.0
C726 C 0.19704 0.77993 0.4333 0.0
C727 C 0.28136 0.69574 0.57821 0.0
H728 H 0.39196 0.80086 0.46016 0.0
H729 H 0.30112 0.89053 0.55289 0.0
H730 H 0.32523 0.6904 0.47171 0.0
H731 H 0.30288 0.72222 0.4188 0.0
H732 H 0.3677 0.72289 0.43266 0.0
H733 H 0.22376 0.86507 0.5809 0.0
H734 H 0.19116 0.82489 0.53956 0.0
H735 H 0.22172 0.79973 0.59195 0.0
H736 H 0.13309 0.70488 0.44635 0.0
H737 H 0.20668 0.63149 0.56494 0.0
H738 H 0.23135 0.78068 0.41125 0.0
H739 H 0.19366 0.81617 0.45164 0.0
H740 H 0.16534 0.77515 0.408 0.0
H741 H 0.31744 0.69065 0.55994 0.0
H742 H 0.27566 0.66504 0.60449 0.0
H743 H 0.2832 0.73067 0.59919 0.0
C744 C 0.20586 0.35479 0.5414 0.0
C745 C 0.16388 0.34926 0.51211 0.0
C746 C 0.24227 0.31823 0.54263 0.0
C747 C 0.23722 0.276 0.51259 0.0
C748 C 0.19501 0.27053 0.48261 0.0
C749 C 0.15848 0.30696 0.48327 0.0
C750 C 0.28599 0.32469 0.5762 0.0
C751 C 0.18893 0.22677 0.44902 0.0
C752 C 0.35381 0.20637 0.47992 0.0
C753 C 0.34983 0.16474 0.50991 0.0
C754 C 0.3171 0.24263 0.48 0.0
C755 C 0.27634 0.23778 0.51204 0.0
C756 C 0.27275 0.19617 0.54316 0.0
C757 C 0.30918 0.15968 0.54108 0.0
C758 C 0.32151 0.28567 0.44523 0.0
C759 C 0.23062 0.19036 0.57882 0.0
H760 H 0.20979 0.38735 0.56404 0.0
H761 H 0.12621 0.30295 0.46024 0.0
H762 H 0.28942 0.29246 0.60095 0.0
H763 H 0.32024 0.32673 0.55419 0.0
H764 H 0.28317 0.35845 0.59901 0.0
H765 H 0.15286 0.22683 0.42995 0.0
H766 H 0.21853 0.2269 0.42095 0.0
H767 H 0.1924 0.19206 0.47009 0.0
H768 H 0.38511 0.20999 0.45552 0.0
H769 H 0.30643 0.12762 0.56461 0.0
H770 H 0.32089 0.32071 0.46602 0.0
H771 H 0.28961 0.28612 0.41981 0.0
H772 H 0.35579 0.28427 0.42313 0.0
H773 H 0.22838 0.22302 0.60315 0.0
H774 H 0.23446 0.15699 0.60205 0.0
H775 H 0.19539 0.18802 0.55845 0.0
C776 C 0.85343 0.70482 0.47558 0.0
C777 C 0.85131 0.66609 0.50937 0.0
C778 C 0.81666 0.74099 0.47454 0.0
C779 C 0.77803 0.73928 0.50943 0.0
C780 C 0.77637 0.7006 0.54427 0.0
C781 C 0.81262 0.6639 0.54321 0.0
C782 C 0.81891 0.78071 0.43584 0.0
C783 C 0.73661 0.69826 0.58294 0.0
C784 C 0.70994 0.85862 0.53467 0.0
C785 C 0.66589 0.85117 0.50904 0.0
C786 C 0.74649 0.82221 0.53571 0.0
C787 C 0.73929 0.77788 0.50937 0.0
C788 C 0.69511 0.77049 0.48284 0.0
C789 C 0.65865 0.80698 0.48355 0.0
C790 C 0.79259 0.83097 0.56536 0.0
C791 C 0.68659 0.72429 0.45328 0.0
H792 H 0.88324 0.70609 0.44915 0.0
H793 H 0.81135 0.63399 0.56953 0.0
H794 H 0.78365 0.7824 0.4154 0.0
H795 H 0.82441 0.81699 0.45357 0.0
H796 H 0.84916 0.77456 0.40914 0.0
H797 H 0.74165 0.66679 0.60847 0.0
H798 H 0.73632 0.73278 0.60466 0.0
H799 H 0.70008 0.69486 0.56517 0.0
H800 H 0.71544 0.89258 0.55478 0.0
H801 H 0.62478 0.80132 0.46332 0.0
H802 H 0.82516 0.83057 0.54087 0.0
H803 H 0.79753 0.80099 0.59256 0.0
H804 H 0.79171 0.86664 0.58523 0.0
H805 H 0.71662 0.71944 0.4261 0.0
H806 H 0.65094 0.72496 0.43336 0.0
H807 H 0.68713 0.69176 0.47782 0.0
C808 C 0.65975 0.20634 0.47368 0.0
C809 C 0.66439 0.16599 0.5053 0.0
C810 C 0.69623 0.24278 0.47182 0.0
C811 C 0.73739 0.23947 0.50354 0.0
C812 C 0.7418 0.19905 0.53604 0.0
C813 C 0.70558 0.16233 0.53595 0.0
C814 C 0.69088 0.28461 0.43573 0.0
C815 C 0.7844 0.19495 0.57139 0.0
C816 C 0.85483 0.30941 0.47488 0.0
C817 C 0.84905 0.35166 0.50374 0.0
C818 C 0.81822 0.27308 0.47357 0.0
C819 C 0.77566 0.27851 0.50307 0.0
C820 C 0.76992 0.32099 0.5326 0.0
C821 C 0.80644 0.35741 0.53205 0.0
C822 C 0.82496 0.22904 0.44046 0.0
C823 C 0.72578 0.32748 0.56563 0.0
H824 H 0.62805 0.20886 0.44965 0.0
H825 H 0.70888 0.13126 0.5607 0.0
H826 H 0.68842 0.32003 0.45577 0.0
H827 H 0.7238 0.28656 0.41173 0.0
H828 H 0.65774 0.28066 0.41219 0.0
H829 H 0.78211 0.16145 0.59458 0.0
H830 H 0.81961 0.19416 0.55089 0.0
H831 H 0.78532 0.22764 0.59577 0.0
H832 H 0.88763 0.30522 0.45263 0.0
H833 H 0.80224 0.38989 0.55475 0.0
H834 H 0.793 0.22544 0.41537 0.0
H835 H 0.82667 0.19499 0.4628 0.0
H836 H 0.85898 0.23158 0.41801 0.0
H837 H 0.69129 0.32352 0.54428 0.0
H838 H 0.72551 0.36387 0.58409 0.0
H839 H 0.72575 0.29837 0.5942 0.0
C840 C 0.4809 0.35676 0.80726 0.0
C841 C 0.51027 0.35156 0.84923 0.0
C842 C 0.4804 0.32044 0.77062 0.0
C843 C 0.51109 0.27867 0.77549 0.0
C844 C 0.54164 0.27383 0.81739 0.0
C845 C 0.54024 0.30999 0.85419 0.0
C846 C 0.44624 0.32627 0.72727 0.0
C847 C 0.57599 0.23063 0.8232 0.0
C848 C 0.47955 0.16186 0.7057 0.0
C849 C 0.50913 0.16638 0.6638 0.0
C850 C 0.47936 0.19848 0.74205 0.0
C851 C 0.51071 0.23974 0.73704 0.0
C852 C 0.54134 0.24396 0.69513 0.0
C853 C 0.53955 0.20757 0.65856 0.0
C854 C 0.44513 0.19333 0.78543 0.0
C855 C 0.57624 0.28669 0.68911 0.0
H856 H 0.45738 0.38873 0.80367 0.0
H857 H 0.56333 0.30625 0.88647 0.0
H858 H 0.46698 0.32334 0.6923 0.0
H859 H 0.41864 0.29624 0.72753 0.0
H860 H 0.42661 0.36204 0.72776 0.0
H861 H 0.5991 0.23359 0.85674 0.0
H862 H 0.55458 0.19601 0.82522 0.0
H863 H 0.60046 0.22784 0.79068 0.0
H864 H 0.45573 0.13014 0.70951 0.0
H865 H 0.56277 0.21078 0.62632 0.0
H866 H 0.42007 0.22547 0.78715 0.0
H867 H 0.46649 0.19278 0.82014 0.0
H868 H 0.42265 0.15934 0.78347 0.0
H869 H 0.55529 0.32161 0.68727 0.0
H870 H 0.59908 0.28343 0.65541 0.0
H871 H 0.60096 0.28911 0.72147 0.0
C872 C 0.47526 0.85635 0.70714 0.0
C873 C 0.50599 0.85156 0.66611 0.0
C874 C 0.47404 0.81993 0.74368 0.0
C875 C 0.50552 0.77862 0.73978 0.0
C876 C 0.53729 0.77415 0.69877 0.0
C877 C 0.53655 0.81033 0.66198 0.0
C878 C 0.43867 0.82534 0.7861 0.0
C879 C 0.57241 0.73143 0.69397 0.0
C880 C 0.53401 0.7086 0.85727 0.0
C881 C 0.50481 0.66656 0.8517 0.0
C882 C 0.53514 0.74508 0.82079 0.0
C883 C 0.50514 0.74002 0.77853 0.0
C884 C 0.47491 0.69795 0.77322 0.0
C885 C 0.47572 0.66132 0.80955 0.0
C886 C 0.56891 0.78867 0.82715 0.0
C887 C 0.44144 0.69182 0.72936 0.0
H888 H 0.45134 0.88809 0.71007 0.0
H889 H 0.56066 0.80692 0.63043 0.0
H890 H 0.41428 0.79271 0.78809 0.0
H891 H 0.45923 0.82721 0.82124 0.0
H892 H 0.41548 0.8588 0.7828 0.0
H893 H 0.59604 0.73441 0.6608 0.0
H894 H 0.59637 0.72936 0.72692 0.0
H895 H 0.55159 0.69645 0.69197 0.0
H896 H 0.5569 0.71239 0.88968 0.0
H897 H 0.45283 0.62895 0.80545 0.0
H898 H 0.54716 0.82312 0.82814 0.0
H899 H 0.5943 0.79132 0.79533 0.0
H900 H 0.59107 0.78628 0.86137 0.0
H901 H 0.41655 0.72399 0.72626 0.0
H902 H 0.41876 0.65794 0.73177 0.0
H903 H 0.4635 0.69026 0.69513 0.0
C904 C 0.48121 0.70689 0.16078 0.0
C905 C 0.50919 0.66404 0.16642 0.0
C906 C 0.48075 0.74319 0.1974 0.0
C907 C 0.51 0.73696 0.24 0.0
C908 C 0.53894 0.69405 0.24548 0.0
C909 C 0.53762 0.65771 0.20889 0.0
C910 C 0.44837 0.7878 0.19087 0.0
C911 C 0.57172 0.68678 0.28969 0.0
C912 C 0.54157 0.8527 0.31131 0.0
C913 C 0.50987 0.84897 0.35168 0.0
C914 C 0.54281 0.81588 0.27522 0.0
C915 C 0.51026 0.77541 0.27882 0.0
C916 C 0.47762 0.77195 0.31923 0.0
C917 C 0.47848 0.8084 0.35572 0.0
C918 C 0.579 0.82019 0.23337 0.0
C919 C 0.44145 0.73009 0.32363 0.0
H920 H 0.45884 0.71156 0.12813 0.0
H921 H 0.55966 0.62476 0.21301 0.0
H922 H 0.42071 0.78917 0.22082 0.0
H923 H 0.47058 0.82188 0.19335 0.0
H924 H 0.42883 0.78763 0.15504 0.0
H925 H 0.59335 0.65222 0.28745 0.0
H926 H 0.59756 0.71815 0.29313 0.0
H927 H 0.54924 0.68586 0.32368 0.0
H928 H 0.56611 0.88397 0.30851 0.0
H929 H 0.45372 0.80582 0.38683 0.0
H930 H 0.55896 0.82444 0.19812 0.0
H931 H 0.60136 0.78619 0.23059 0.0
H932 H 0.60414 0.852 0.23792 0.0
H933 H 0.41885 0.7275 0.28977 0.0
H934 H 0.41652 0.73452 0.35563 0.0
H935 H 0.46149 0.69482 0.32756 0.0
C936 C 0.47613 0.20374 0.3521 0.0
C937 C 0.50805 0.16352 0.34876 0.0
C938 C 0.47543 0.24001 0.31544 0.0
C939 C 0.50869 0.23675 0.27552 0.0
C940 C 0.54159 0.1965 0.27249 0.0
C941 C 0.54026 0.15985 0.30879 0.0
C942 C 0.43888 0.28161 0.31925 0.0
C943 C 0.57852 0.19244 0.23125 0.0
C944 C 0.48127 0.30628 0.15758 0.0
C945 C 0.50871 0.34934 0.16423 0.0
C946 C 0.48051 0.26953 0.19377 0.0
C947 C 0.50899 0.27547 0.23693 0.0
C948 C 0.53741 0.3186 0.24342 0.0
C949 C 0.53638 0.35536 0.20724 0.0
C950 C 0.44859 0.22476 0.1862 0.0
C951 C 0.56935 0.32563 0.28827 0.0
H952 H 0.45099 0.20628 0.38292 0.0
H953 H 0.56526 0.12888 0.30658 0.0
H954 H 0.45855 0.31714 0.32268 0.0
H955 H 0.4163 0.28348 0.28533 0.0
H956 H 0.41396 0.27742 0.3513 0.0
H957 H 0.60262 0.1597 0.23517 0.0
H958 H 0.55922 0.19016 0.19542 0.0
H959 H 0.60193 0.22583 0.23026 0.0
H960 H 0.45951 0.30182 0.12449 0.0
H961 H 0.55804 0.38846 0.21214 0.0
H962 H 0.42095 0.22237 0.2161 0.0
H963 H 0.4712 0.1909 0.18791 0.0
H964 H 0.42906 0.22556 0.15038 0.0
H965 H 0.54677 0.3235 0.32213 0.0
H966 H 0.58887 0.36147 0.28791 0.0
H967 H 0.59701 0.29571 0.29028 0.0
loop_
_geom_bond_atom_site_label_1
_geom_bond_atom_site_label_2
_geom_bond_distance
_geom_bond_site_symmetry_2
_ccdc_geom_bond_type
C0 O26 1.283 . S
C0 O44 1.283 . S
C1 O27 1.283 . S
C1 O42 1.283 . S
C2 O28 1.283 . S
C2 O45 1.283 . S
C3 O29 1.283 . S
C3 O43 1.283 . S
C4 O30 1.283 . S
C4 O39 1.283 . S
C5 O31 1.283 . S
C5 O41 1.283 . S
C6 O32 1.283 . S
C6 O38 1.283 . S
C7 O33 1.283 . S
C7 O40 1.283 . S
C8 O34 1.283 . S
C8 O49 1.283 . S
C9 O35 1.283 . S
C9 O47 1.283 . S
C10 O36 1.283 . S
C10 O48 1.283 . S
C11 O37 1.283 . S
C11 O46 1.283 . S
Eu12 O13 2.370 1_454 S
Eu12 O14 2.370 . S
Eu12 O17 2.370 1_455 S
Eu12 O18 2.370 1_554 S
Eu12 O26 2.363 . S
Eu12 O27 2.363 1_554 S
Eu12 O40 2.363 . S
Eu12 O41 2.363 1_455 S
O13 Eu12 2.370 1_656 S
O13 Eu15 2.370 1_566 S
O13 Eu20 2.370 1_665 S
O14 Eu12 2.370 . S
O14 Eu16 2.370 1_565 S
O14 Eu19 2.370 1_565 S
Eu15 O13 2.370 1_544 S
Eu15 O17 2.370 1_545 S
Eu15 O21 2.370 . S
Eu15 O22 2.370 1_554 S
Eu15 O30 2.363 . S
Eu15 O31 2.363 1_545 S
Eu15 O46 2.363 . S
Eu15 O47 2.363 1_554 S
Eu16 O14 2.370 1_545 S
Eu16 O18 2.370 1_544 S
Eu16 O23 2.370 1_554 S
Eu16 O24 2.370 . S
Eu16 O32 2.363 . S
Eu16 O33 2.363 1_545 S
Eu16 O48 2.363 . S
Eu16 O49 2.363 1_554 S
O17 Eu12 2.370 1_655 S
O17 Eu15 2.370 1_565 S
O17 Eu19 2.370 1_665 S
O18 Eu12 2.370 1_556 S
O18 Eu16 2.370 1_566 S
O18 Eu20 2.370 1_565 S
Eu19 O14 2.370 1_545 S
Eu19 O17 2.370 1_445 S
Eu19 O21 2.370 1_455 S
Eu19 O24 2.370 . S
Eu19 O36 2.363 . S
Eu19 O37 2.363 1_455 S
Eu19 O44 2.363 1_545 S
Eu19 O45 2.363 . S
Eu20 O13 2.370 1_445 S
Eu20 O18 2.370 1_545 S
Eu20 O22 2.370 1_455 S
Eu20 O23 2.370 . S
Eu20 O34 2.363 . S
Eu20 O35 2.363 1_455 S
Eu20 O42 2.363 1_545 S
Eu20 O43 2.363 . S
O21 Eu15 2.370 . S
O21 Eu19 2.370 1_655 S
O21 Eu25 2.370 1_655 S
O22 Eu15 2.370 1_556 S
O22 Eu20 2.370 1_655 S
O22 Eu25 2.370 1_656 S
O23 Eu16 2.370 1_556 S
O23 Eu20 2.370 . S
O23 Eu25 2.370 1_556 S
O24 Eu16 2.370 . S
O24 Eu19 2.370 . S
O24 Eu25 2.370 . S
Eu25 O21 2.370 1_455 S
Eu25 O22 2.370 1_454 S
Eu25 O23 2.370 1_554 S
Eu25 O24 2.370 . S
Eu25 O28 2.363 . S
Eu25 O29 2.363 1_554 S
Eu25 O38 2.363 . S
Eu25 O39 2.363 1_455 S
O26 C0 1.283 . S
O26 Eu12 2.363 . S
O27 C1 1.283 . S
O27 Eu12 2.363 1_556 S
O28 C2 1.283 . S
O28 Eu25 2.363 . S
O29 C3 1.283 . S
O29 Eu25 2.363 1_556 S
O30 C4 1.283 . S
O30 Eu15 2.363 . S
O31 C5 1.283 . S
O31 Eu15 2.363 1_565 S
O32 C6 1.283 . S
O32 Eu16 2.363 . S
O33 C7 1.283 . S
O33 Eu16 2.363 1_565 S
O34 C8 1.283 . S
O34 Eu20 2.363 . S
O35 C9 1.283 . S
O35 Eu20 2.363 1_655 S
O36 C10 1.283 . S
O36 Eu19 2.363 . S
O37 C11 1.283 . S
O37 Eu19 2.363 1_655 S
O38 C6 1.283 . S
O38 Eu25 2.363 . S
O39 C4 1.283 . S
O39 Eu25 2.363 1_655 S
O40 C7 1.283 . S
O40 Eu12 2.363 . S
O41 C5 1.283 . S
O41 Eu12 2.363 1_655 S
O42 C1 1.283 . S
O42 Eu20 2.363 1_565 S
O43 C3 1.283 . S
O43 Eu20 2.363 . S
O44 C0 1.283 . S
O44 Eu19 2.363 1_565 S
O45 C2 1.283 . S
O45 Eu19 2.363 . S
O46 C11 1.283 . S
O46 Eu15 2.363 . S
O47 C9 1.283 . S
O47 Eu15 2.363 1_556 S
O48 C10 1.283 . S
O48 Eu16 2.363 . S
O49 C8 1.283 . S
O49 Eu16 2.363 1_556 S
C50 O76 1.283 . S
C50 O94 1.283 . S
C51 O77 1.283 . S
C51 O92 1.283 . S
C52 O78 1.283 . S
C52 O95 1.283 . S
C53 O79 1.283 . S
C53 O93 1.283 . S
C54 O80 1.283 . S
C54 O89 1.283 . S
C55 O81 1.283 . S
C55 O91 1.283 . S
C56 O82 1.283 . S
C56 O88 1.283 . S
C57 O83 1.283 . S
C57 O90 1.283 . S
C58 O84 1.283 . S
C58 O99 1.283 . S
C59 O85 1.283 . S
C59 O97 1.283 . S
C60 O86 1.283 . S
C60 O98 1.283 . S
C61 O87 1.283 . S
C61 O96 1.283 . S
Eu62 O63 2.370 . S
Eu62 O64 2.370 1_455 S
Eu62 O67 2.370 . S
Eu62 O68 2.370 1_455 S
Eu62 O76 2.363 . S
Eu62 O77 2.363 . S
Eu62 O90 2.363 1_455 S
Eu62 O91 2.363 . S
O63 Eu62 2.370 . S
O63 Eu65 2.370 . S
O63 Eu70 2.370 . S
O64 Eu62 2.370 1_655 S
O64 Eu66 2.370 . S
O64 Eu69 2.370 1_655 S
Eu65 O63 2.370 . S
Eu65 O67 2.370 . S
Eu65 O71 2.370 . S
Eu65 O72 2.370 . S
Eu65 O80 2.363 . S
Eu65 O81 2.363 . S
Eu65 O96 2.363 . S
Eu65 O97 2.363 . S
Eu66 O64 2.370 . S
Eu66 O68 2.370 . S
Eu66 O73 2.370 . S
Eu66 O74 2.370 . S
Eu66 O82 2.363 . S
Eu66 O83 2.363 . S
Eu66 O98 2.363 . S
Eu66 O99 2.363 . S
O67 Eu62 2.370 . S
O67 Eu65 2.370 . S
O67 Eu69 2.370 . S
O68 Eu62 2.370 1_655 S
O68 Eu66 2.370 . S
O68 Eu70 2.370 1_655 S
Eu69 O64 2.370 1_455 S
Eu69 O67 2.370 . S
Eu69 O71 2.370 . S
Eu69 O74 2.370 1_455 S
Eu69 O86 2.363 1_455 S
Eu69 O87 2.363 . S
Eu69 O94 2.363 . S
Eu69 O95 2.363 . S
Eu70 O63 2.370 . S
Eu70 O68 2.370 1_455 S
Eu70 O72 2.370 . S
Eu70 O73 2.370 1_455 S
Eu70 O84 2.363 1_455 S
Eu70 O85 2.363 . S
Eu70 O92 2.363 . S
Eu70 O93 2.363 . S
O71 Eu65 2.370 . S
O71 Eu69 2.370 . S
O71 Eu75 2.370 . S
O72 Eu65 2.370 . S
O72 Eu70 2.370 . S
O72 Eu75 2.370 . S
O73 Eu66 2.370 . S
O73 Eu70 2.370 1_655 S
O73 Eu75 2.370 1_655 S
O74 Eu66 2.370 . S
O74 Eu69 2.370 1_655 S
O74 Eu75 2.370 1_655 S
Eu75 O71 2.370 . S
Eu75 O72 2.370 . S
Eu75 O73 2.370 1_455 S
Eu75 O74 2.370 1_455 S
Eu75 O78 2.363 . S
Eu75 O79 2.363 . S
Eu75 O88 2.363 1_455 S
Eu75 O89 2.363 . S
O76 C50 1.283 . S
O76 Eu62 2.363 . S
O77 C51 1.283 . S
O77 Eu62 2.363 . S
O78 C52 1.283 . S
O78 Eu75 2.363 . S
O79 C53 1.283 . S
O79 Eu75 2.363 . S
O80 C54 1.283 . S
O80 Eu65 2.363 . S
O81 C55 1.283 . S
O81 Eu65 2.363 . S
O82 C56 1.283 . S
O82 Eu66 2.363 . S
O83 C57 1.283 . S
O83 Eu66 2.363 . S
O84 C58 1.283 . S
O84 Eu70 2.363 1_655 S
O85 C59 1.283 . S
O85 Eu70 2.363 . S
O86 C60 1.283 . S
O86 Eu69 2.363 1_655 S
O87 C61 1.283 . S
O87 Eu69 2.363 . S
O88 C56 1.283 . S
O88 Eu75 2.363 1_655 S
O89 C54 1.283 . S
O89 Eu75 2.363 . S
O90 C57 1.283 . S
O90 Eu62 2.363 1_655 S
O91 C55 1.283 . S
O91 Eu62 2.363 . S
O92 C51 1.283 . S
O92 Eu70 2.363 . S
O93 C53 1.283 . S
O93 Eu70 2.363 . S
O94 C50 1.283 . S
O94 Eu69 2.363 . S
O95 C52 1.283 . S
O95 Eu69 2.363 . S
O96 C61 1.283 . S
O96 Eu65 2.363 . S
O97 C59 1.283 . S
O97 Eu65 2.363 . S
O98 C60 1.283 . S
O98 Eu66 2.363 . S
O99 C58 1.283 . S
O99 Eu66 2.363 . S
C100 O126 1.283 . S
C100 O144 1.283 . S
C101 O127 1.283 . S
C101 O142 1.283 . S
C102 O128 1.283 . S
C102 O145 1.283 . S
C103 O129 1.283 . S
C103 O143 1.283 . S
C104 O130 1.283 . S
C104 O139 1.283 . S
C105 O131 1.283 . S
C105 O141 1.283 . S
C106 O132 1.283 . S
C106 O138 1.283 . S
C107 O133 1.283 . S
C107 O140 1.283 . S
C108 O134 1.283 . S
C108 O149 1.283 . S
C109 O135 1.283 . S
C109 O147 1.283 . S
C110 O136 1.283 . S
C110 O148 1.283 . S
C111 O137 1.283 . S
C111 O146 1.283 . S
Eu112 O113 2.370 . S
Eu112 O114 2.370 1_545 S
Eu112 O117 2.370 1_545 S
Eu112 O118 2.370 . S
Eu112 O126 2.363 1_545 S
Eu112 O127 2.363 . S
Eu112 O140 2.363 . S
Eu112 O141 2.363 . S
O113 Eu112 2.370 . S
O113 Eu115 2.370 . S
O113 Eu120 2.370 . S
O114 Eu112 2.370 1_565 S
O114 Eu116 2.370 1_565 S
O114 Eu119 2.370 . S
Eu115 O113 2.370 . S
Eu115 O117 2.370 1_545 S
Eu115 O121 2.370 1_545 S
Eu115 O122 2.370 . S
Eu115 O130 2.363 . S
Eu115 O131 2.363 . S
Eu115 O146 2.363 1_545 S
Eu115 O147 2.363 . S
Eu116 O114 2.370 1_545 S
Eu116 O118 2.370 . S
Eu116 O123 2.370 . S
Eu116 O124 2.370 1_545 S
Eu116 O132 2.363 . S
Eu116 O133 2.363 . S
Eu116 O148 2.363 1_545 S
Eu116 O149 2.363 . S
O117 Eu112 2.370 1_565 S
O117 Eu115 2.370 1_565 S
O117 Eu119 2.370 . S
O118 Eu112 2.370 . S
O118 Eu116 2.370 . S
O118 Eu120 2.370 . S
Eu119 O114 2.370 . S
Eu119 O117 2.370 . S
Eu119 O121 2.370 . S
Eu119 O124 2.370 . S
Eu119 O136 2.363 . S
Eu119 O137 2.363 . S
Eu119 O144 2.363 . S
Eu119 O145 2.363 . S
Eu120 O113 2.370 . S
Eu120 O118 2.370 . S
Eu120 O122 2.370 . S
Eu120 O123 2.370 . S
Eu120 O134 2.363 . S
Eu120 O135 2.363 . S
Eu120 O142 2.363 . S
Eu120 O143 2.363 . S
O121 Eu115 2.370 1_565 S
O121 Eu119 2.370 . S
O121 Eu125 2.370 1_565 S
O122 Eu115 2.370 . S
O122 Eu120 2.370 . S
O122 Eu125 2.370 . S
O123 Eu116 2.370 . S
O123 Eu120 2.370 . S
O123 Eu125 2.370 . S
O124 Eu116 2.370 1_565 S
O124 Eu119 2.370 . S
O124 Eu125 2.370 1_565 S
Eu125 O121 2.370 1_545 S
Eu125 O122 2.370 . S
Eu125 O123 2.370 . S
Eu125 O124 2.370 1_545 S
Eu125 O128 2.363 1_545 S
Eu125 O129 2.363 . S
Eu125 O138 2.363 . S
Eu125 O139 2.363 . S
O126 C100 1.283 . S
O126 Eu112 2.363 1_565 S
O127 C101 1.283 . S
O127 Eu112 2.363 . S
O128 C102 1.283 . S
O128 Eu125 2.363 1_565 S
O129 C103 1.283 . S
O129 Eu125 2.363 . S
O130 C104 1.283 . S
O130 Eu115 2.363 . S
O131 C105 1.283 . S
O131 Eu115 2.363 . S
O132 C106 1.283 . S
O132 Eu116 2.363 . S
O133 C107 1.283 . S
O133 Eu116 2.363 . S
O134 C108 1.283 . S
O134 Eu120 2.363 . S
O135 C109 1.283 . S
O135 Eu120 2.363 . S
O136 C110 1.283 . S
O136 Eu119 2.363 . S
O137 C111 1.283 . S
O137 Eu119 2.363 . S
O138 C106 1.283 . S
O138 Eu125 2.363 . S
O139 C104 1.283 . S
O139 Eu125 2.363 . S
O140 C107 1.283 . S
O140 Eu112 2.363 . S
O141 C105 1.283 . S
O141 Eu112 2.363 . S
O142 C101 1.283 . S
O142 Eu120 2.363 . S
O143 C103 1.283 . S
O143 Eu120 2.363 . S
O144 C100 1.283 . S
O144 Eu119 2.363 . S
O145 C102 1.283 . S
O145 Eu119 2.363 . S
O146 C111 1.283 . S
O146 Eu115 2.363 1_565 S
O147 C109 1.283 . S
O147 Eu115 2.363 . S
O148 C110 1.283 . S
O148 Eu116 2.363 1_565 S
O149 C108 1.283 . S
O149 Eu116 2.363 . S
C150 O176 1.283 . S
C150 O194 1.283 . S
C151 O177 1.283 . S
C151 O192 1.283 . S
C152 O178 1.283 . S
C152 O195 1.283 . S
C153 O179 1.283 . S
C153 O193 1.283 . S
C154 O180 1.283 . S
C154 O189 1.283 . S
C155 O181 1.283 . S
C155 O191 1.283 . S
C156 O182 1.283 . S
C156 O188 1.283 . S
C157 O183 1.283 . S
C157 O190 1.283 . S
C158 O184 1.283 . S
C158 O199 1.283 . S
C159 O185 1.283 . S
C159 O197 1.283 . S
C160 O186 1.283 . S
C160 O198 1.283 . S
C161 O187 1.283 . S
C161 O196 1.283 . S
Eu162 O163 2.370 . S
Eu162 O164 2.370 1_554 S
Eu162 O167 2.370 1_554 S
Eu162 O168 2.370 . S
Eu162 O176 2.363 1_554 S
Eu162 O177 2.363 . S
Eu162 O190 2.363 . S
Eu162 O191 2.363 . S
O163 Eu162 2.370 . S
O163 Eu165 2.370 . S
O163 Eu170 2.370 . S
O164 Eu162 2.370 1_556 S
O164 Eu166 2.370 1_556 S
O164 Eu169 2.370 . S
Eu165 O163 2.370 . S
Eu165 O167 2.370 1_554 S
Eu165 O171 2.370 1_554 S
Eu165 O172 2.370 . S
Eu165 O180 2.363 . S
Eu165 O181 2.363 . S
Eu165 O196 2.363 1_554 S
Eu165 O197 2.363 . S
Eu166 O164 2.370 1_554 S
Eu166 O168 2.370 . S
Eu166 O173 2.370 . S
Eu166 O174 2.370 1_554 S
Eu166 O182 2.363 . S
Eu166 O183 2.363 . S
Eu166 O198 2.363 1_554 S
Eu166 O199 2.363 . S
O167 Eu162 2.370 1_556 S
O167 Eu165 2.370 1_556 S
O167 Eu169 2.370 . S
O168 Eu162 2.370 . S
O168 Eu166 2.370 . S
O168 Eu170 2.370 . S
Eu169 O164 2.370 . S
Eu169 O167 2.370 . S
Eu169 O171 2.370 . S
Eu169 O174 2.370 . S
Eu169 O186 2.363 . S
Eu169 O187 2.363 . S
Eu169 O194 2.363 . S
Eu169 O195 2.363 . S
Eu170 O163 2.370 . S
Eu170 O168 2.370 . S
Eu170 O172 2.370 . S
Eu170 O173 2.370 . S
Eu170 O184 2.363 . S
Eu170 O185 2.363 . S
Eu170 O192 2.363 . S
Eu170 O193 2.363 . S
O171 Eu165 2.370 1_556 S
O171 Eu169 2.370 . S
O171 Eu175 2.370 1_556 S
O172 Eu165 2.370 . S
O172 Eu170 2.370 . S
O172 Eu175 2.370 . S
O173 Eu166 2.370 . S
O173 Eu170 2.370 . S
O173 Eu175 2.370 . S
O174 Eu166 2.370 1_556 S
O174 Eu169 2.370 . S
O174 Eu175 2.370 1_556 S
Eu175 O171 2.370 1_554 S
Eu175 O172 2.370 . S
Eu175 O173 2.370 . S
Eu175 O174 2.370 1_554 S
Eu175 O178 2.363 1_554 S
Eu175 O179 2.363 . S
Eu175 O188 2.363 . S
Eu175 O189 2.363 . S
O176 C150 1.283 . S
O176 Eu162 2.363 1_556 S
O177 C151 1.283 . S
O177 Eu162 2.363 . S
O178 C152 1.283 . S
O178 Eu175 2.363 1_556 S
O179 C153 1.283 . S
O179 Eu175 2.363 . S
O180 C154 1.283 . S
O180 Eu165 2.363 . S
O181 C155 1.283 . S
O181 Eu165 2.363 . S
O182 C156 1.283 . S
O182 Eu166 2.363 . S
O183 C157 1.283 . S
O183 Eu166 2.363 . S
O184 C158 1.283 . S
O184 Eu170 2.363 . S
O185 C159 1.283 . S
O185 Eu170 2.363 . S
O186 C160 1.283 . S
O186 Eu169 2.363 . S
O187 C161 1.283 . S
O187 Eu169 2.363 . S
O188 C156 1.283 . S
O188 Eu175 2.363 . S
O189 C154 1.283 . S
O189 Eu175 2.363 . S
O190 C157 1.283 . S
O190 Eu162 2.363 . S
O191 C155 1.283 . S
O191 Eu162 2.363 . S
O192 C151 1.283 . S
O192 Eu170 2.363 . S
O193 C153 1.283 . S
O193 Eu170 2.363 . S
O194 C150 1.283 . S
O194 Eu169 2.363 . S
O195 C152 1.283 . S
O195 Eu169 2.363 . S
O196 C161 1.283 . S
O196 Eu165 2.363 1_556 S
O197 C159 1.283 . S
O197 Eu165 2.363 . S
O198 C160 1.283 . S
O198 Eu166 2.363 1_556 S
O199 C158 1.283 . S
O199 Eu166 2.363 . S
C200 C201 1.391 1_455 S
C200 C202 1.394 . S
C200 H216 0.931 . S
C201 C200 1.391 1_655 S
C201 C205 1.376 . S
C202 C200 1.394 . S
C202 C203 1.369 1_455 S
C202 C206 1.531 . S
C203 C202 1.369 1_655 S
C203 C204 1.410 . S
C203 C211 1.503 . S
C204 C203 1.410 . S
C204 C205 1.392 . S
C204 C207 1.511 . S
C205 C201 1.376 . S
C205 C204 1.392 . S
C205 H217 0.929 . S
C206 C202 1.531 . S
C206 H218 0.960 . S
C206 H219 0.962 . S
C206 H220 0.960 . S
C207 C204 1.511 . S
C207 H221 0.961 . S
C207 H222 0.961 . S
C207 H223 0.961 . S
C208 C209 1.370 1_455 S
C208 C210 1.363 . S
C208 H224 0.931 . S
C209 C208 1.370 1_655 S
C209 C213 1.408 . S
C210 C208 1.363 . S
C210 C211 1.370 1_455 S
C210 C214 1.524 . S
C211 C203 1.503 . S
C211 C210 1.370 1_655 S
C211 C212 1.403 . S
C212 C211 1.403 . S
C212 C213 1.404 . S
C212 C215 1.539 . S
C213 C209 1.408 . S
C213 C212 1.404 . S
C213 H225 0.930 . S
C214 C210 1.524 . S
C214 H226 0.956 . S
C214 H227 0.961 . S
C214 H228 0.961 . S
C215 C212 1.539 . S
C215 H229 0.958 . S
C215 H230 0.961 . S
C215 H231 0.960 . S
H216 C200 0.931 . S
H217 C205 0.929 . S
H218 C206 0.960 . S
H219 C206 0.962 . S
H220 C206 0.960 . S
H221 C207 0.961 . S
H222 C207 0.961 . S
H223 C207 0.961 . S
H224 C208 0.931 . S
H225 C213 0.930 . S
H226 C214 0.956 . S
H227 C214 0.961 . S
H228 C214 0.961 . S
H229 C215 0.958 . S
H230 C215 0.961 . S
H231 C215 0.960 . S
C232 C233 1.391 1_545 S
C232 C234 1.394 . S
C232 H248 0.931 . S
C233 C232 1.391 1_565 S
C233 C237 1.376 . S
C234 C232 1.394 . S
C234 C235 1.369 1_545 S
C234 C238 1.531 . S
C235 C234 1.369 1_565 S
C235 C236 1.410 . S
C235 C243 1.503 . S
C236 C235 1.410 . S
C236 C237 1.392 . S
C236 C239 1.511 . S
C237 C233 1.376 . S
C237 C236 1.392 . S
C237 H249 0.929 . S
C238 C234 1.531 . S
C238 H250 0.960 . S
C238 H251 0.962 . S
C238 H252 0.960 . S
C239 C236 1.511 . S
C239 H253 0.961 . S
C239 H254 0.961 . S
C239 H255 0.961 . S
C240 C241 1.370 1_545 S
C240 C242 1.363 . S
C240 H256 0.931 . S
C241 C240 1.370 1_565 S
C241 C245 1.408 . S
C242 C240 1.363 . S
C242 C243 1.370 1_545 S
C242 C246 1.524 . S
C243 C235 1.503 . S
C243 C242 1.370 1_565 S
C243 C244 1.403 . S
C244 C243 1.403 . S
C244 C245 1.404 . S
C244 C247 1.539 . S
C245 C241 1.408 . S
C245 C244 1.404 . S
C245 H257 0.930 . S
C246 C242 1.524 . S
C246 H258 0.956 . S
C246 H259 0.961 . S
C246 H260 0.961 . S
C247 C244 1.539 . S
C247 H261 0.958 . S
C247 H262 0.961 . S
C247 H263 0.960 . S
H248 C232 0.931 . S
H249 C237 0.929 . S
H250 C238 0.960 . S
H251 C238 0.962 . S
H252 C238 0.960 . S
H253 C239 0.961 . S
H254 C239 0.961 . S
H255 C239 0.961 . S
H256 C240 0.931 . S
H257 C245 0.930 . S
H258 C246 0.956 . S
H259 C246 0.961 . S
H260 C246 0.961 . S
H261 C247 0.958 . S
H262 C247 0.961 . S
H263 C247 0.960 . S
C264 C265 1.381 1_455 S
C264 C266 1.394 . S
C264 H280 0.931 . S
C265 C264 1.381 1_655 S
C265 C269 1.386 . S
C266 C264 1.394 . S
C266 C267 1.353 1_455 S
C266 C270 1.531 . S
C267 C266 1.353 1_655 S
C267 C268 1.426 . S
C267 C275 1.503 . S
C268 C267 1.426 . S
C268 C269 1.392 . S
C268 C271 1.511 . S
C269 C265 1.386 . S
C269 C268 1.392 . S
C269 H281 0.929 . S
C270 C266 1.531 . S
C270 H282 0.960 . S
C270 H283 0.962 . S
C270 H284 0.960 . S
C271 C268 1.511 . S
C271 H285 0.961 . S
C271 H286 0.961 . S
C271 H287 0.961 . S
C272 C273 1.369 1_455 S
C272 C274 1.363 . S
C272 H288 0.931 . S
C273 C272 1.369 1_655 S
C273 C277 1.410 . S
C274 C272 1.363 . S
C274 C275 1.368 1_455 S
C274 C278 1.524 . S
C275 C267 1.503 . S
C275 C274 1.368 1_655 S
C275 C276 1.404 . S
C276 C275 1.404 . S
C276 C277 1.404 . S
C276 C279 1.539 . S
C277 C273 1.410 . S
C277 C276 1.404 . S
C277 H289 0.930 . S
C278 C274 1.524 . S
C278 H290 0.956 . S
C278 H291 0.961 1_455 S
C278 H292 0.961 . S
C279 C276 1.539 . S
C279 H293 0.958 1_655 S
C279 H294 0.961 . S
C279 H295 0.960 . S
H280 C264 0.931 . S
H281 C269 0.929 . S
H282 C270 0.960 . S
H283 C270 0.962 . S
H284 C270 0.960 . S
H285 C271 0.961 . S
H286 C271 0.961 . S
H287 C271 0.961 . S
H288 C272 0.931 . S
H289 C277 0.930 . S
H290 C278 0.956 . S
H291 C278 0.961 1_655 S
H292 C278 0.961 . S
H293 C279 0.958 1_455 S
H294 C279 0.961 . S
H295 C279 0.960 . S
C296 C297 1.391 . S
C296 C298 1.394 . S
C296 H312 0.931 . S
C297 C296 1.391 . S
C297 C301 1.376 1_545 S
C298 C296 1.394 . S
C298 C299 1.369 . S
C298 C302 1.531 . S
C299 C298 1.369 . S
C299 C300 1.410 1_545 S
C299 C307 1.503 . S
C300 C299 1.410 1_565 S
C300 C301 1.392 . S
C300 C303 1.511 . S
C301 C297 1.376 1_565 S
C301 C300 1.392 . S
C301 H313 0.929 . S
C302 C298 1.531 . S
C302 H314 0.960 . S
C302 H315 0.962 . S
C302 H316 0.960 . S
C303 C300 1.511 . S
C303 H317 0.961 . S
C303 H318 0.961 . S
C303 H319 0.961 . S
C304 C305 1.370 1_565 S
C304 C306 1.363 . S
C304 H320 0.931 . S
C305 C304 1.370 1_545 S
C305 C309 1.408 . S
C306 C304 1.363 . S
C306 C307 1.370 1_565 S
C306 C310 1.524 . S
C307 C299 1.503 . S
C307 C306 1.370 1_545 S
C307 C308 1.403 . S
C308 C307 1.403 . S
C308 C309 1.404 . S
C308 C311 1.539 . S
C309 C305 1.408 . S
C309 C308 1.404 . S
C309 H321 0.930 . S
C310 C306 1.524 . S
C310 H322 0.956 . S
C310 H323 0.961 . S
C310 H324 0.961 . S
C311 C308 1.539 . S
C311 H325 0.958 . S
C311 H326 0.961 . S
C311 H327 0.960 . S
H312 C296 0.931 . S
H313 C301 0.929 . S
H314 C302 0.960 . S
H315 C302 0.962 . S
H316 C302 0.960 . S
H317 C303 0.961 . S
H318 C303 0.961 . S
H319 C303 0.961 . S
H320 C304 0.931 . S
H321 C309 0.930 . S
H322 C310 0.956 . S
H323 C310 0.961 . S
H324 C310 0.961 . S
H325 C311 0.958 . S
H326 C311 0.961 . S
H327 C311 0.960 . S
C328 C329 1.391 1_655 S
C328 C330 1.394 . S
C328 H344 0.931 . S
C329 C328 1.391 1_455 S
C329 C333 1.376 . S
C330 C328 1.394 . S
C330 C331 1.369 1_655 S
C330 C334 1.531 . S
C331 C330 1.369 1_455 S
C331 C332 1.410 . S
C331 C339 1.503 . S
C332 C331 1.410 . S
C332 C333 1.392 . S
C332 C335 1.511 . S
C333 C329 1.376 . S
C333 C332 1.392 . S
C333 H345 0.929 . S
C334 C330 1.531 . S
C334 H346 0.960 . S
C334 H347 0.962 . S
C334 H348 0.960 . S
C335 C332 1.511 . S
C335 H349 0.961 . S
C335 H350 0.961 . S
C335 H351 0.961 . S
C336 C337 1.370 1_655 S
C336 C338 1.363 . S
C336 H352 0.931 . S
C337 C336 1.370 1_455 S
C337 C341 1.408 . S
C338 C336 1.363 . S
C338 C339 1.370 1_655 S
C338 C342 1.524 . S
C339 C331 1.503 . S
C339 C338 1.370 1_455 S
C339 C340 1.403 . S
C340 C339 1.403 . S
C340 C341 1.404 . S
C340 C343 1.539 . S
C341 C337 1.408 . S
C341 C340 1.404 . S
C341 H353 0.930 . S
C342 C338 1.524 . S
C342 H354 0.956 . S
C342 H355 0.961 . S
C342 H356 0.961 . S
C343 C340 1.539 . S
C343 H357 0.958 . S
C343 H358 0.961 . S
C343 H359 0.960 . S
H344 C328 0.931 . S
H345 C333 0.929 . S
H346 C334 0.960 . S
H347 C334 0.962 . S
H348 C334 0.960 . S
H349 C335 0.961 . S
H350 C335 0.961 . S
H351 C335 0.961 . S
H352 C336 0.931 . S
H353 C341 0.930 . S
H354 C342 0.956 . S
H355 C342 0.961 . S
H356 C342 0.961 . S
H357 C343 0.958 . S
H358 C343 0.961 . S
H359 C343 0.960 . S
C360 C361 1.391 . S
C360 C362 1.394 . S
C360 H376 0.931 . S
C361 C360 1.391 . S
C361 C365 1.376 1_545 S
C362 C360 1.394 . S
C362 C363 1.369 . S
C362 C366 1.531 . S
C363 C362 1.369 . S
C363 C364 1.410 1_545 S
C363 C371 1.503 . S
C364 C363 1.410 1_565 S
C364 C365 1.392 . S
C364 C367 1.511 . S
C365 C361 1.376 1_565 S
C365 C364 1.392 . S
C365 H377 0.929 . S
C366 C362 1.531 . S
C366 H378 0.960 . S
C366 H379 0.962 . S
C366 H380 0.960 . S
C367 C364 1.511 . S
C367 H381 0.961 . S
C367 H382 0.961 . S
C367 H383 0.961 . S
C368 C369 1.368 1_565 S
C368 C370 1.363 . S
C368 H384 0.931 . S
C369 C368 1.368 1_545 S
C369 C373 1.412 . S
C370 C368 1.363 . S
C370 C371 1.370 1_565 S
C370 C374 1.524 . S
C371 C363 1.503 . S
C371 C370 1.370 1_545 S
C371 C372 1.403 . S
C372 C371 1.403 . S
C372 C373 1.404 . S
C372 C375 1.539 . S
C373 C369 1.412 . S
C373 C372 1.404 . S
C373 H385 0.930 . S
C374 C370 1.524 . S
C374 H386 0.956 . S
C374 H387 0.961 . S
C374 H388 0.961 . S
C375 C372 1.539 . S
C375 H389 0.958 . S
C375 H390 0.961 . S
C375 H391 0.960 . S
H376 C360 0.931 . S
H377 C365 0.929 . S
H378 C366 0.960 . S
H379 C366 0.962 . S
H380 C366 0.960 . S
H381 C367 0.961 . S
H382 C367 0.961 . S
H383 C367 0.961 . S
H384 C368 0.931 . S
H385 C373 0.930 . S
H386 C374 0.956 . S
H387 C374 0.961 . S
H388 C374 0.961 . S
H389 C375 0.958 . S
H390 C375 0.961 . S
H391 C375 0.960 . S
C392 C393 1.391 1_655 S
C392 C394 1.394 . S
C392 H408 0.931 . S
C393 C392 1.391 1_455 S
C393 C397 1.376 . S
C394 C392 1.394 . S
C394 C395 1.369 1_655 S
C394 C398 1.531 . S
C395 C394 1.369 1_455 S
C395 C396 1.410 . S
C395 C403 1.503 . S
C396 C395 1.410 . S
C396 C397 1.392 . S
C396 C399 1.511 . S
C397 C393 1.376 . S
C397 C396 1.392 . S
C397 H409 0.929 . S
C398 C394 1.531 . S
C398 H410 0.960 . S
C398 H411 0.962 . S
C398 H412 0.960 . S
C399 C396 1.511 . S
C399 H413 0.961 . S
C399 H414 0.961 . S
C399 H415 0.961 . S
C400 C401 1.370 1_655 S
C400 C402 1.363 . S
C400 H416 0.931 . S
C401 C400 1.370 1_455 S
C401 C405 1.408 . S
C402 C400 1.363 . S
C402 C403 1.370 1_655 S
C402 C406 1.524 . S
C403 C395 1.503 . S
C403 C402 1.370 1_455 S
C403 C404 1.403 . S
C404 C403 1.403 . S
C404 C405 1.404 . S
C404 C407 1.539 . S
C405 C401 1.408 . S
C405 C404 1.404 . S
C405 H417 0.930 . S
C406 C402 1.524 . S
C406 H418 0.956 . S
C406 H419 0.961 . S
C406 H420 0.961 . S
C407 C404 1.539 . S
C407 H421 0.958 . S
C407 H422 0.961 . S
C407 H423 0.960 . S
H408 C392 0.931 . S
H409 C397 0.929 . S
H410 C398 0.960 . S
H411 C398 0.962 . S
H412 C398 0.960 . S
H413 C399 0.961 . S
H414 C399 0.961 . S
H415 C399 0.961 . S
H416 C400 0.931 . S
H417 C405 0.930 . S
H418 C406 0.956 . S
H419 C406 0.961 . S
H420 C406 0.961 . S
H421 C407 0.958 . S
H422 C407 0.961 . S
H423 C407 0.960 . S
C424 C425 1.391 . S
C424 C426 1.394 . S
C424 H440 0.931 . S
C425 C424 1.391 . S
C425 C429 1.376 1_545 S
C426 C424 1.394 . S
C426 C427 1.369 . S
C426 C430 1.531 . S
C427 C426 1.369 . S
C427 C428 1.410 1_545 S
C427 C435 1.503 . S
C428 C427 1.410 1_565 S
C428 C429 1.392 . S
C428 C431 1.511 . S
C429 C425 1.376 1_565 S
C429 C428 1.392 . S
C429 H441 0.929 . S
C430 C426 1.531 . S
C430 H442 0.960 . S
C430 H443 0.962 . S
C430 H444 0.960 . S
C431 C428 1.511 . S
C431 H445 0.961 . S
C431 H446 0.961 . S
C431 H447 0.961 1_565 S
C432 C433 1.370 1_565 S
C432 C434 1.363 . S
C432 H448 0.931 . S
C433 C432 1.370 1_545 S
C433 C437 1.408 . S
C434 C432 1.363 . S
C434 C435 1.370 1_565 S
C434 C438 1.524 . S
C435 C427 1.503 . S
C435 C434 1.370 1_545 S
C435 C436 1.403 . S
C436 C435 1.403 . S
C436 C437 1.404 . S
C436 C439 1.539 . S
C437 C433 1.408 . S
C437 C436 1.404 . S
C437 H449 0.930 . S
C438 C434 1.524 . S
C438 H450 0.956 . S
C438 H451 0.961 . S
C438 H452 0.961 . S
C439 C436 1.539 . S
C439 H453 0.958 . S
C439 H454 0.961 . S
C439 H455 0.960 . S
H440 C424 0.931 . S
H441 C429 0.929 . S
H442 C430 0.960 . S
H443 C430 0.962 . S
H444 C430 0.960 . S
H445 C431 0.961 . S
H446 C431 0.961 . S
H447 C431 0.961 1_545 S
H448 C432 0.931 . S
H449 C437 0.930 . S
H450 C438 0.956 . S
H451 C438 0.961 . S
H452 C438 0.961 . S
H453 C439 0.958 . S
H454 C439 0.961 . S
H455 C439 0.960 . S
C456 C457 1.391 . S
C456 C458 1.394 . S
C456 H472 0.931 . S
C457 C456 1.391 . S
C457 C461 1.376 1_556 S
C458 C456 1.394 . S
C458 C459 1.369 . S
C458 C462 1.531 . S
C459 C458 1.369 . S
C459 C460 1.410 1_556 S
C459 C467 1.503 . S
C460 C459 1.410 1_554 S
C460 C461 1.392 . S
C460 C463 1.511 . S
C461 C457 1.376 1_554 S
C461 C460 1.392 . S
C461 H473 0.929 . S
C462 C458 1.531 . S
C462 H474 0.960 . S
C462 H475 0.962 . S
C462 H476 0.960 . S
C463 C460 1.511 . S
C463 H477 0.961 . S
C463 H478 0.961 . S
C463 H479 0.961 1_554 S
C464 C465 1.370 1_554 S
C464 C466 1.363 . S
C464 H480 0.931 . S
C465 C464 1.370 1_556 S
C465 C469 1.408 . S
C466 C464 1.363 . S
C466 C467 1.370 1_554 S
C466 C470 1.524 . S
C467 C459 1.503 . S
C467 C466 1.370 1_556 S
C467 C468 1.403 . S
C468 C467 1.403 . S
C468 C469 1.404 . S
C468 C471 1.539 . S
C469 C465 1.408 . S
C469 C468 1.404 . S
C469 H481 0.930 . S
C470 C466 1.524 . S
C470 H482 0.956 . S
C470 H483 0.961 . S
C470 H484 0.961 . S
C471 C468 1.539 . S
C471 H485 0.958 . S
C471 H486 0.961 . S
C471 H487 0.960 . S
H472 C456 0.931 . S
H473 C461 0.929 . S
H474 C462 0.960 . S
H475 C462 0.962 . S
H476 C462 0.960 . S
H477 C463 0.961 . S
H478 C463 0.961 . S
H479 C463 0.961 1_556 S
H480 C464 0.931 . S
H481 C469 0.930 . S
H482 C470 0.956 . S
H483 C470 0.961 . S
H484 C470 0.961 . S
H485 C471 0.958 . S
H486 C471 0.961 . S
H487 C471 0.960 . S
C488 C489 1.391 1_556 S
C488 C490 1.394 . S
C488 H504 0.931 . S
C489 C488 1.391 1_554 S
C489 C493 1.376 . S
C490 C488 1.394 . S
C490 C491 1.369 1_556 S
C490 C494 1.531 . S
C491 C490 1.369 1_554 S
C491 C492 1.410 . S
C491 C499 1.503 . S
C492 C491 1.410 . S
C492 C493 1.392 . S
C492 C495 1.511 . S
C493 C489 1.376 . S
C493 C492 1.392 . S
C493 H505 0.929 . S
C494 C490 1.531 . S
C494 H506 0.960 . S
C494 H507 0.962 . S
C494 H508 0.960 . S
C495 C492 1.511 . S
C495 H509 0.961 . S
C495 H510 0.961 . S
C495 H511 0.961 . S
C496 C497 1.370 1_556 S
C496 C498 1.363 . S
C496 H512 0.931 . S
C497 C496 1.370 1_554 S
C497 C501 1.408 . S
C498 C496 1.363 . S
C498 C499 1.370 1_556 S
C498 C502 1.524 . S
C499 C491 1.503 . S
C499 C498 1.370 1_554 S
C499 C500 1.403 . S
C500 C499 1.403 . S
C500 C501 1.404 . S
C500 C503 1.539 . S
C501 C497 1.408 . S
C501 C500 1.404 . S
C501 H513 0.930 . S
C502 C498 1.524 . S
C502 H514 0.956 . S
C502 H515 0.961 . S
C502 H516 0.961 . S
C503 C500 1.539 . S
C503 H517 0.958 . S
C503 H518 0.961 . S
C503 H519 0.960 . S
H504 C488 0.931 . S
H505 C493 0.929 . S
H506 C494 0.960 . S
H507 C494 0.962 . S
H508 C494 0.960 . S
H509 C495 0.961 . S
H510 C495 0.961 . S
H511 C495 0.961 . S
H512 C496 0.931 . S
H513 C501 0.930 . S
H514 C502 0.956 . S
H515 C502 0.961 . S
H516 C502 0.961 . S
H517 C503 0.958 . S
H518 C503 0.961 . S
H519 C503 0.960 . S
C520 C521 1.391 . S
C520 C522 1.394 . S
C520 H536 0.930 1_556 S
C521 C520 1.391 . S
C521 C525 1.376 . S
C522 C520 1.394 . S
C522 C523 1.369 . S
C522 C526 1.531 . S
C523 C522 1.369 . S
C523 C524 1.410 . S
C523 C531 1.503 . S
C524 C523 1.410 . S
C524 C525 1.392 . S
C524 C527 1.511 . S
C525 C521 1.376 . S
C525 C524 1.392 . S
C525 H537 0.929 . S
C526 C522 1.531 . S
C526 H538 0.960 . S
C526 H539 0.962 1_556 S
C526 H540 0.960 . S
C527 C524 1.511 . S
C527 H541 0.961 . S
C527 H542 0.961 . S
C527 H543 0.961 . S
C528 C529 1.370 1_554 S
C528 C530 1.363 . S
C528 H544 0.931 . S
C529 C528 1.370 1_556 S
C529 C533 1.408 . S
C530 C528 1.363 . S
C530 C531 1.370 1_554 S
C530 C534 1.524 . S
C531 C523 1.503 . S
C531 C530 1.370 1_556 S
C531 C532 1.403 . S
C532 C531 1.403 . S
C532 C533 1.404 . S
C532 C535 1.539 . S
C533 C529 1.408 . S
C533 C532 1.404 . S
C533 H545 0.930 . S
C534 C530 1.524 . S
C534 H546 0.956 . S
C534 H547 0.961 . S
C534 H548 0.961 . S
C535 C532 1.539 . S
C535 H549 0.958 . S
C535 H550 0.961 . S
C535 H551 0.960 . S
H536 C520 0.930 1_554 S
H537 C525 0.929 . S
H538 C526 0.960 . S
H539 C526 0.962 1_554 S
H540 C526 0.960 . S
H541 C527 0.961 . S
H542 C527 0.961 . S
H543 C527 0.961 . S
H544 C528 0.931 . S
H545 C533 0.930 . S
H546 C534 0.956 . S
H547 C534 0.961 . S
H548 C534 0.961 . S
H549 C535 0.958 . S
H550 C535 0.961 . S
H551 C535 0.960 . S
C552 C553 1.391 . S
C552 C554 1.394 . S
C552 H568 0.931 . S
C553 C552 1.391 . S
C553 C557 1.376 1_556 S
C554 C552 1.394 . S
C554 C555 1.369 . S
C554 C558 1.531 . S
C555 C554 1.369 . S
C555 C556 1.410 1_556 S
C555 C563 1.503 . S
C556 C555 1.410 1_554 S
C556 C557 1.392 . S
C556 C559 1.511 . S
C557 C553 1.376 1_554 S
C557 C556 1.392 . S
C557 H569 0.929 . S
C558 C554 1.531 . S
C558 H570 0.960 . S
C558 H571 0.962 . S
C558 H572 0.960 . S
C559 C556 1.511 . S
C559 H573 0.961 . S
C559 H574 0.961 . S
C559 H575 0.961 . S
C560 C561 1.359 1_554 S
C560 C562 1.363 . S
C560 H576 0.931 . S
C561 C560 1.359 1_556 S
C561 C565 1.422 . S
C562 C560 1.363 . S
C562 C563 1.370 1_554 S
C562 C566 1.524 . S
C563 C555 1.503 . S
C563 C562 1.370 1_556 S
C563 C564 1.403 . S
C564 C563 1.403 . S
C564 C565 1.404 . S
C564 C567 1.539 . S
C565 C561 1.422 . S
C565 C564 1.404 . S
C565 H577 0.930 . S
C566 C562 1.524 . S
C566 H578 0.956 . S
C566 H579 0.961 . S
C566 H580 0.961 . S
C567 C564 1.539 . S
C567 H581 0.958 . S
C567 H582 0.961 . S
C567 H583 0.960 . S
H568 C552 0.931 . S
H569 C557 0.929 . S
H570 C558 0.960 . S
H571 C558 0.962 . S
H572 C558 0.960 . S
H573 C559 0.961 . S
H574 C559 0.961 . S
H575 C559 0.961 . S
H576 C560 0.931 . S
H577 C565 0.930 . S
H578 C566 0.956 . S
H579 C566 0.961 . S
H580 C566 0.961 . S
H581 C567 0.958 . S
H582 C567 0.961 . S
H583 C567 0.960 . S
C584 C585 1.391 . S
C584 C586 1.394 . S
C584 H600 0.931 . S
C585 C584 1.391 . S
C585 C589 1.376 . S
C586 C584 1.394 . S
C586 C587 1.369 . S
C586 C590 1.531 . S
C587 C586 1.369 . S
C587 C588 1.410 . S
C587 C595 1.503 . S
C588 C587 1.410 . S
C588 C589 1.392 . S
C588 C591 1.511 . S
C589 C585 1.376 . S
C589 C588 1.392 . S
C589 H601 0.929 . S
C590 C586 1.531 . S
C590 H602 0.960 . S
C590 H603 0.962 . S
C590 H604 0.960 . S
C591 C588 1.511 . S
C591 H605 0.961 . S
C591 H606 0.961 . S
C591 H607 0.961 . S
C592 C593 1.370 . S
C592 C594 1.363 . S
C592 H608 0.931 . S
C593 C592 1.370 . S
C593 C597 1.408 . S
C594 C592 1.363 . S
C594 C595 1.370 . S
C594 C598 1.524 . S
C595 C587 1.503 . S
C595 C594 1.370 . S
C595 C596 1.403 . S
C596 C595 1.403 . S
C596 C597 1.404 . S
C596 C599 1.539 . S
C597 C593 1.408 . S
C597 C596 1.404 . S
C597 H609 0.930 . S
C598 C594 1.524 . S
C598 H610 0.956 . S
C598 H611 0.961 . S
C598 H612 0.961 . S
C599 C596 1.539 . S
C599 H613 0.958 . S
C599 H614 0.961 . S
C599 H615 0.960 . S
H600 C584 0.931 . S
H601 C589 0.929 . S
H602 C590 0.960 . S
H603 C590 0.962 . S
H604 C590 0.960 . S
H605 C591 0.961 . S
H606 C591 0.961 . S
H607 C591 0.961 . S
H608 C592 0.931 . S
H609 C597 0.930 . S
H610 C598 0.956 . S
H611 C598 0.961 . S
H612 C598 0.961 . S
H613 C599 0.958 . S
H614 C599 0.961 . S
H615 C599 0.960 . S
C616 C617 1.391 . S
C616 C618 1.394 . S
C616 H632 0.931 . S
C617 C616 1.391 . S
C617 C621 1.376 . S
C618 C616 1.394 . S
C618 C619 1.369 . S
C618 C622 1.531 . S
C619 C618 1.369 . S
C619 C620 1.410 . S
C619 C627 1.503 . S
C620 C619 1.410 . S
C620 C621 1.392 . S
C620 C623 1.511 . S
C621 C617 1.376 . S
C621 C620 1.392 . S
C621 H633 0.929 . S
C622 C618 1.531 . S
C622 H634 0.960 . S
C622 H635 0.962 . S
C622 H636 0.960 . S
C623 C620 1.511 . S
C623 H637 0.961 . S
C623 H638 0.961 . S
C623 H639 0.961 . S
C624 C625 1.370 . S
C624 C626 1.363 . S
C624 H640 0.931 . S
C625 C624 1.370 . S
C625 C629 1.408 . S
C626 C624 1.363 . S
C626 C627 1.370 . S
C626 C630 1.524 . S
C627 C619 1.503 . S
C627 C626 1.370 . S
C627 C628 1.403 . S
C628 C627 1.403 . S
C628 C629 1.404 . S
C628 C631 1.539 . S
C629 C625 1.408 . S
C629 C628 1.404 . S
C629 H641 0.930 . S
C630 C626 1.524 . S
C630 H642 0.956 . S
C630 H643 0.961 . S
C630 H644 0.961 . S
C631 C628 1.539 . S
C631 H645 0.958 . S
C631 H646 0.961 . S
C631 H647 0.960 . S
H632 C616 0.931 . S
H633 C621 0.929 . S
H634 C622 0.960 . S
H635 C622 0.962 . S
H636 C622 0.960 . S
H637 C623 0.961 . S
H638 C623 0.961 . S
H639 C623 0.961 . S
H640 C624 0.931 . S
H641 C629 0.930 . S
H642 C630 0.956 . S
H643 C630 0.961 . S
H644 C630 0.961 . S
H645 C631 0.958 . S
H646 C631 0.961 . S
H647 C631 0.960 . S
C648 C649 1.391 . S
C648 C650 1.394 . S
C648 H664 0.931 . S
C649 C648 1.391 . S
C649 C653 1.376 . S
C650 C648 1.394 . S
C650 C651 1.369 . S
C650 C654 1.531 . S
C651 C650 1.369 . S
C651 C652 1.410 . S
C651 C659 1.503 . S
C652 C651 1.410 . S
C652 C653 1.392 . S
C652 C655 1.511 . S
C653 C649 1.376 . S
C653 C652 1.392 . S
C653 H665 0.929 . S
C654 C650 1.531 . S
C654 H666 0.960 . S
C654 H667 0.962 . S
C654 H668 0.960 . S
C655 C652 1.511 . S
C655 H669 0.961 . S
C655 H670 0.961 . S
C655 H671 0.961 . S
C656 C657 1.370 . S
C656 C658 1.363 . S
C656 H672 0.931 . S
C657 C656 1.370 . S
C657 C661 1.408 . S
C658 C656 1.363 . S
C658 C659 1.370 . S
C658 C662 1.524 . S
C659 C651 1.503 . S
C659 C658 1.370 . S
C659 C660 1.403 . S
C660 C659 1.403 . S
C660 C661 1.404 . S
C660 C663 1.539 . S
C661 C657 1.408 . S
C661 C660 1.404 . S
C661 H673 0.930 . S
C662 C658 1.524 . S
C662 H674 0.956 . S
C662 H675 0.961 . S
C662 H676 0.961 . S
C663 C660 1.539 . S
C663 H677 0.958 . S
C663 H678 0.961 . S
C663 H679 0.960 . S
H664 C648 0.931 . S
H665 C653 0.929 . S
H666 C654 0.960 . S
H667 C654 0.962 . S
H668 C654 0.960 . S
H669 C655 0.961 . S
H670 C655 0.961 . S
H671 C655 0.961 . S
H672 C656 0.931 . S
H673 C661 0.930 . S
H674 C662 0.956 . S
H675 C662 0.961 . S
H676 C662 0.961 . S
H677 C663 0.958 . S
H678 C663 0.961 . S
H679 C663 0.960 . S
C680 C681 1.391 . S
C680 C682 1.394 . S
C680 H696 0.931 . S
C681 C680 1.391 . S
C681 C685 1.376 . S
C682 C680 1.394 . S
C682 C683 1.369 . S
C682 C686 1.531 . S
C683 C682 1.369 . S
C683 C684 1.410 . S
C683 C691 1.503 . S
C684 C683 1.410 . S
C684 C685 1.392 . S
C684 C687 1.511 . S
C685 C681 1.376 . S
C685 C684 1.392 . S
C685 H697 0.929 . S
C686 C682 1.531 . S
C686 H698 0.960 . S
C686 H699 0.962 . S
C686 H700 0.960 . S
C687 C684 1.511 . S
C687 H701 0.961 . S
C687 H702 0.961 . S
C687 H703 0.961 . S
C688 C689 1.370 . S
C688 C690 1.363 . S
C688 H704 0.931 . S
C689 C688 1.370 . S
C689 C693 1.408 . S
C690 C688 1.363 . S
C690 C691 1.370 . S
C690 C694 1.524 . S
C691 C683 1.503 . S
C691 C690 1.370 . S
C691 C692 1.403 . S
C692 C691 1.403 . S
C692 C693 1.404 . S
C692 C695 1.539 . S
C693 C689 1.408 . S
C693 C692 1.404 . S
C693 H705 0.930 . S
C694 C690 1.524 . S
C694 H706 0.956 . S
C694 H707 0.961 . S
C694 H708 0.961 . S
C695 C692 1.539 . S
C695 H709 0.958 . S
C695 H710 0.961 . S
C695 H711 0.960 . S
H696 C680 0.931 . S
H697 C685 0.929 . S
H698 C686 0.960 . S
H699 C686 0.962 . S
H700 C686 0.960 . S
H701 C687 0.961 . S
H702 C687 0.961 . S
H703 C687 0.961 . S
H704 C688 0.931 . S
H705 C693 0.930 . S
H706 C694 0.956 . S
H707 C694 0.961 . S
H708 C694 0.961 . S
H709 C695 0.958 . S
H710 C695 0.961 . S
H711 C695 0.960 . S
C712 C713 1.391 . S
C712 C714 1.394 . S
C712 H728 0.931 . S
C713 C712 1.391 . S
C713 C717 1.376 . S
C714 C712 1.394 . S
C714 C715 1.369 . S
C714 C718 1.531 . S
C715 C714 1.369 . S
C715 C716 1.410 . S
C715 C723 1.503 . S
C716 C715 1.410 . S
C716 C717 1.392 . S
C716 C719 1.511 . S
C717 C713 1.376 . S
C717 C716 1.392 . S
C717 H729 0.929 . S
C718 C714 1.531 . S
C718 H730 0.960 . S
C718 H731 0.962 . S
C718 H732 0.960 . S
C719 C716 1.511 . S
C719 H733 0.961 . S
C719 H734 0.961 . S
C719 H735 0.961 . S
C720 C721 1.370 . S
C720 C722 1.363 . S
C720 H736 0.931 . S
C721 C720 1.370 . S
C721 C725 1.408 . S
C722 C720 1.363 . S
C722 C723 1.370 . S
C722 C726 1.524 . S
C723 C715 1.503 . S
C723 C722 1.370 . S
C723 C724 1.403 . S
C724 C723 1.403 . S
C724 C725 1.404 . S
C724 C727 1.539 . S
C725 C721 1.408 . S
C725 C724 1.404 . S
C725 H737 0.930 . S
C726 C722 1.524 . S
C726 H738 0.956 . S
C726 H739 0.961 . S
C726 H740 0.961 . S
C727 C724 1.539 . S
C727 H741 0.958 . S
C727 H742 0.961 . S
C727 H743 0.960 . S
H728 C712 0.931 . S
H729 C717 0.929 . S
H730 C718 0.960 . S
H731 C718 0.962 . S
H732 C718 0.960 . S
H733 C719 0.961 . S
H734 C719 0.961 . S
H735 C719 0.961 . S
H736 C720 0.931 . S
H737 C725 0.930 . S
H738 C726 0.956 . S
H739 C726 0.961 . S
H740 C726 0.961 . S
H741 C727 0.958 . S
H742 C727 0.961 . S
H743 C727 0.960 . S
C744 C745 1.391 . S
C744 C746 1.394 . S
C744 H760 0.931 . S
C745 C744 1.391 . S
C745 C749 1.376 . S
C746 C744 1.394 . S
C746 C747 1.369 . S
C746 C750 1.531 . S
C747 C746 1.369 . S
C747 C748 1.410 . S
C747 C755 1.503 . S
C748 C747 1.410 . S
C748 C749 1.392 . S
C748 C751 1.511 . S
C749 C745 1.376 . S
C749 C748 1.392 . S
C749 H761 0.929 . S
C750 C746 1.531 . S
C750 H762 0.960 . S
C750 H763 0.962 . S
C750 H764 0.960 . S
C751 C748 1.511 . S
C751 H765 0.961 . S
C751 H766 0.961 . S
C751 H767 0.961 . S
C752 C753 1.370 . S
C752 C754 1.363 . S
C752 H768 0.931 . S
C753 C752 1.370 . S
C753 C757 1.408 . S
C754 C752 1.363 . S
C754 C755 1.370 . S
C754 C758 1.524 . S
C755 C747 1.503 . S
C755 C754 1.370 . S
C755 C756 1.403 . S
C756 C755 1.403 . S
C756 C757 1.404 . S
C756 C759 1.539 . S
C757 C753 1.408 . S
C757 C756 1.404 . S
C757 H769 0.930 . S
C758 C754 1.524 . S
C758 H770 0.956 . S
C758 H771 0.961 . S
C758 H772 0.961 . S
C759 C756 1.539 . S
C759 H773 0.958 . S
C759 H774 0.961 . S
C759 H775 0.960 . S
H760 C744 0.931 . S
H761 C749 0.929 . S
H762 C750 0.960 . S
H763 C750 0.962 . S
H764 C750 0.960 . S
H765 C751 0.961 . S
H766 C751 0.961 . S
H767 C751 0.961 . S
H768 C752 0.931 . S
H769 C757 0.930 . S
H770 C758 0.956 . S
H771 C758 0.961 . S
H772 C758 0.961 . S
H773 C759 0.958 . S
H774 C759 0.961 . S
H775 C759 0.960 . S
C776 C777 1.391 . S
C776 C778 1.394 . S
C776 H792 0.931 . S
C777 C776 1.391 . S
C777 C781 1.376 . S
C778 C776 1.394 . S
C778 C779 1.369 . S
C778 C782 1.531 . S
C779 C778 1.369 . S
C779 C780 1.410 . S
C779 C787 1.503 . S
C780 C779 1.410 . S
C780 C781 1.392 . S
C780 C783 1.511 . S
C781 C777 1.376 . S
C781 C780 1.392 . S
C781 H793 0.929 . S
C782 C778 1.531 . S
C782 H794 0.960 . S
C782 H795 0.962 . S
C782 H796 0.960 . S
C783 C780 1.511 . S
C783 H797 0.961 . S
C783 H798 0.961 . S
C783 H799 0.961 . S
C784 C785 1.370 . S
C784 C786 1.363 . S
C784 H800 0.931 . S
C785 C784 1.370 . S
C785 C789 1.408 . S
C786 C784 1.363 . S
C786 C787 1.370 . S
C786 C790 1.524 . S
C787 C779 1.503 . S
C787 C786 1.370 . S
C787 C788 1.403 . S
C788 C787 1.403 . S
C788 C789 1.404 . S
C788 C791 1.539 . S
C789 C785 1.408 . S
C789 C788 1.404 . S
C789 H801 0.930 . S
C790 C786 1.524 . S
C790 H802 0.956 . S
C790 H803 0.961 . S
C790 H804 0.961 . S
C791 C788 1.539 . S
C791 H805 0.958 . S
C791 H806 0.961 . S
C791 H807 0.960 . S
H792 C776 0.931 . S
H793 C781 0.929 . S
H794 C782 0.960 . S
H795 C782 0.962 . S
H796 C782 0.960 . S
H797 C783 0.961 . S
H798 C783 0.961 . S
H799 C783 0.961 . S
H800 C784 0.931 . S
H801 C789 0.930 . S
H802 C790 0.956 . S
H803 C790 0.961 . S
H804 C790 0.961 . S
H805 C791 0.958 . S
H806 C791 0.961 . S
H807 C791 0.960 . S
C808 C809 1.391 . S
C808 C810 1.394 . S
C808 H824 0.931 . S
C809 C808 1.391 . S
C809 C813 1.376 . S
C810 C808 1.394 . S
C810 C811 1.369 . S
C810 C814 1.531 . S
C811 C810 1.369 . S
C811 C812 1.410 . S
C811 C819 1.503 . S
C812 C811 1.410 . S
C812 C813 1.392 . S
C812 C815 1.511 . S
C813 C809 1.376 . S
C813 C812 1.392 . S
C813 H825 0.929 . S
C814 C810 1.531 . S
C814 H826 0.960 . S
C814 H827 0.962 . S
C814 H828 0.960 . S
C815 C812 1.511 . S
C815 H829 0.961 . S
C815 H830 0.961 . S
C815 H831 0.961 . S
C816 C817 1.370 . S
C816 C818 1.363 . S
C816 H832 0.931 . S
C817 C816 1.370 . S
C817 C821 1.408 . S
C818 C816 1.363 . S
C818 C819 1.370 . S
C818 C822 1.524 . S
C819 C811 1.503 . S
C819 C818 1.370 . S
C819 C820 1.403 . S
C820 C819 1.403 . S
C820 C821 1.404 . S
C820 C823 1.539 . S
C821 C817 1.408 . S
C821 C820 1.404 . S
C821 H833 0.930 . S
C822 C818 1.524 . S
C822 H834 0.956 . S
C822 H835 0.961 . S
C822 H836 0.961 . S
C823 C820 1.539 . S
C823 H837 0.958 . S
C823 H838 0.961 . S
C823 H839 0.960 . S
H824 C808 0.931 . S
H825 C813 0.929 . S
H826 C814 0.960 . S
H827 C814 0.962 . S
H828 C814 0.960 . S
H829 C815 0.961 . S
H830 C815 0.961 . S
H831 C815 0.961 . S
H832 C816 0.931 . S
H833 C821 0.930 . S
H834 C822 0.956 . S
H835 C822 0.961 . S
H836 C822 0.961 . S
H837 C823 0.958 . S
H838 C823 0.961 . S
H839 C823 0.960 . S
C840 C841 1.391 . S
C840 C842 1.394 . S
C840 H856 0.931 . S
C841 C840 1.391 . S
C841 C845 1.376 . S
C842 C840 1.394 . S
C842 C843 1.369 . S
C842 C846 1.531 . S
C843 C842 1.369 . S
C843 C844 1.410 . S
C843 C851 1.503 . S
C844 C843 1.410 . S
C844 C845 1.392 . S
C844 C847 1.511 . S
C845 C841 1.376 . S
C845 C844 1.392 . S
C845 H857 0.929 . S
C846 C842 1.531 . S
C846 H858 0.960 . S
C846 H859 0.962 . S
C846 H860 0.960 . S
C847 C844 1.511 . S
C847 H861 0.961 . S
C847 H862 0.961 . S
C847 H863 0.961 . S
C848 C849 1.370 . S
C848 C850 1.363 . S
C848 H864 0.931 . S
C849 C848 1.370 . S
C849 C853 1.408 . S
C850 C848 1.363 . S
C850 C851 1.370 . S
C850 C854 1.524 . S
C851 C843 1.503 . S
C851 C850 1.370 . S
C851 C852 1.403 . S
C852 C851 1.403 . S
C852 C853 1.404 . S
C852 C855 1.539 . S
C853 C849 1.408 . S
C853 C852 1.404 . S
C853 H865 0.930 . S
C854 C850 1.524 . S
C854 H866 0.956 . S
C854 H867 0.961 . S
C854 H868 0.961 . S
C855 C852 1.539 . S
C855 H869 0.958 . S
C855 H870 0.961 . S
C855 H871 0.960 . S
H856 C840 0.931 . S
H857 C845 0.929 . S
H858 C846 0.960 . S
H859 C846 0.962 . S
H860 C846 0.960 . S
H861 C847 0.961 . S
H862 C847 0.961 . S
H863 C847 0.961 . S
H864 C848 0.931 . S
H865 C853 0.930 . S
H866 C854 0.956 . S
H867 C854 0.961 . S
H868 C854 0.961 . S
H869 C855 0.958 . S
H870 C855 0.961 . S
H871 C855 0.960 . S
C872 C873 1.391 . S
C872 C874 1.394 . S
C872 H888 0.931 . S
C873 C872 1.391 . S
C873 C877 1.376 . S
C874 C872 1.394 . S
C874 C875 1.369 . S
C874 C878 1.531 . S
C875 C874 1.369 . S
C875 C876 1.410 . S
C875 C883 1.503 . S
C876 C875 1.410 . S
C876 C877 1.392 . S
C876 C879 1.511 . S
C877 C873 1.376 . S
C877 C876 1.392 . S
C877 H889 0.929 . S
C878 C874 1.531 . S
C878 H890 0.960 . S
C878 H891 0.962 . S
C878 H892 0.960 . S
C879 C876 1.511 . S
C879 H893 0.961 . S
C879 H894 0.961 . S
C879 H895 0.961 . S
C880 C881 1.370 . S
C880 C882 1.363 . S
C880 H896 0.931 . S
C881 C880 1.370 . S
C881 C885 1.408 . S
C882 C880 1.363 . S
C882 C883 1.370 . S
C882 C886 1.524 . S
C883 C875 1.503 . S
C883 C882 1.370 . S
C883 C884 1.403 . S
C884 C883 1.403 . S
C884 C885 1.404 . S
C884 C887 1.539 . S
C885 C881 1.408 . S
C885 C884 1.404 . S
C885 H897 0.930 . S
C886 C882 1.524 . S
C886 H898 0.956 . S
C886 H899 0.961 . S
C886 H900 0.961 . S
C887 C884 1.539 . S
C887 H901 0.958 . S
C887 H902 0.961 . S
C887 H903 0.960 . S
H888 C872 0.931 . S
H889 C877 0.929 . S
H890 C878 0.960 . S
H891 C878 0.962 . S
H892 C878 0.960 . S
H893 C879 0.961 . S
H894 C879 0.961 . S
H895 C879 0.961 . S
H896 C880 0.931 . S
H897 C885 0.930 . S
H898 C886 0.956 . S
H899 C886 0.961 . S
H900 C886 0.961 . S
H901 C887 0.958 . S
H902 C887 0.961 . S
H903 C887 0.960 . S
C904 C905 1.391 . S
C904 C906 1.394 . S
C904 H920 0.931 . S
C905 C904 1.391 . S
C905 C909 1.376 . S
C906 C904 1.394 . S
C906 C907 1.369 . S
C906 C910 1.531 . S
C907 C906 1.369 . S
C907 C908 1.410 . S
C907 C915 1.503 . S
C908 C907 1.410 . S
C908 C909 1.392 . S
C908 C911 1.511 . S
C909 C905 1.376 . S
C909 C908 1.392 . S
C909 H921 0.929 . S
C910 C906 1.531 . S
C910 H922 0.960 . S
C910 H923 0.962 . S
C910 H924 0.960 . S
C911 C908 1.511 . S
C911 H925 0.961 . S
C911 H926 0.961 . S
C911 H927 0.961 . S
C912 C913 1.370 . S
C912 C914 1.363 . S
C912 H928 0.931 . S
C913 C912 1.370 . S
C913 C917 1.408 . S
C914 C912 1.363 . S
C914 C915 1.370 . S
C914 C918 1.524 . S
C915 C907 1.503 . S
C915 C914 1.370 . S
C915 C916 1.403 . S
C916 C915 1.403 . S
C916 C917 1.404 . S
C916 C919 1.539 . S
C917 C913 1.408 . S
C917 C916 1.404 . S
C917 H929 0.930 . S
C918 C914 1.524 . S
C918 H930 0.956 . S
C918 H931 0.961 . S
C918 H932 0.961 . S
C919 C916 1.539 . S
C919 H933 0.958 . S
C919 H934 0.961 . S
C919 H935 0.960 . S
H920 C904 0.931 . S
H921 C909 0.929 . S
H922 C910 0.960 . S
H923 C910 0.962 . S
H924 C910 0.960 . S
H925 C911 0.961 . S
H926 C911 0.961 . S
H927 C911 0.961 . S
H928 C912 0.931 . S
H929 C917 0.930 . S
H930 C918 0.956 . S
H931 C918 0.961 . S
H932 C918 0.961 . S
H933 C919 0.958 . S
H934 C919 0.961 . S
H935 C919 0.960 . S
C936 C937 1.391 . S
C936 C938 1.394 . S
C936 H952 0.931 . S
C937 C936 1.391 . S
C937 C941 1.376 . S
C938 C936 1.394 . S
C938 C939 1.369 . S
C938 C942 1.531 . S
C939 C938 1.369 . S
C939 C940 1.410 . S
C939 C947 1.503 . S
C940 C939 1.410 . S
C940 C941 1.392 . S
C940 C943 1.511 . S
C941 C937 1.376 . S
C941 C940 1.392 . S
C941 H953 0.929 . S
C942 C938 1.531 . S
C942 H954 0.960 . S
C942 H955 0.962 . S
C942 H956 0.960 . S
C943 C940 1.511 . S
C943 H957 0.961 . S
C943 H958 0.961 . S
C943 H959 0.961 . S
C944 C945 1.370 . S
C944 C946 1.363 . S
C944 H960 0.931 . S
C945 C944 1.370 . S
C945 C949 1.408 . S
C946 C944 1.363 . S
C946 C947 1.370 . S
C946 C950 1.524 . S
C947 C939 1.503 . S
C947 C946 1.370 . S
C947 C948 1.403 . S
C948 C947 1.403 . S
C948 C949 1.404 . S
C948 C951 1.539 . S
C949 C945 1.408 . S
C949 C948 1.404 . S
C949 H961 0.930 . S
C950 C946 1.524 . S
C950 H962 0.956 . S
C950 H963 0.961 . S
C950 H964 0.961 . S
C951 C948 1.539 . S
C951 H965 0.958 . S
C951 H966 0.961 . S
C951 H967 0.960 . S
H952 C936 0.931 . S
H953 C941 0.929 . S
H954 C942 0.960 . S
H955 C942 0.962 . S
H956 C942 0.960 . S
H957 C943 0.961 . S
H958 C943 0.961 . S
H959 C943 0.961 . S
H960 C944 0.931 . S
H961 C949 0.930 . S
H962 C950 0.956 . S
H963 C950 0.961 . S
H964 C950 0.961 . S
H965 C951 0.958 . S
H966 C951 0.961 . S
H967 C951 0.960 . S
C201 C2 1.495 1_655 S
C209 C52 1.495 1_655 S
C233 C11 1.495 1_565 S
C241 C104 1.499 1_565 S
C265 C0 1.495 1_655 S
C273 C53 1.499 1_655 S
C297 C106 1.495 . S
C305 C10 1.495 . S
C329 C1 1.495 . S
C337 C51 1.503 . S
C361 C8 1.495 . S
C369 C107 1.499 . S
C393 C50 1.495 . S
C401 C3 1.499 . S
C425 C105 1.495 . S
C433 C9 1.503 . S
C457 C156 1.495 1_556 S
C465 C6 1.495 1_556 S
C489 C157 1.495 . S
C497 C7 1.499 . S
C521 C154 1.495 1_556 S
C529 C4 1.499 1_556 S
C553 C5 1.495 1_556 S
C561 C155 1.503 1_556 S
C585 C161 1.495 . S
C593 C57 1.503 . S
C617 C55 1.495 . S
C625 C160 1.499 . S
C649 C54 1.495 . S
C657 C158 1.495 . S
C681 C159 1.495 . S
C689 C56 1.499 . S
C713 C110 1.495 . S
C721 C59 1.499 . S
C745 C61 1.495 . S
C753 C108 1.495 . S
C777 C58 1.495 . S
C785 C111 1.503 . S
C809 C109 1.495 . S
C817 C60 1.499 . S
C841 C152 1.495 . S
C849 C101 1.499 . S
C873 C100 1.495 . S
C881 C150 1.503 . S
C905 C151 1.495 . S
C913 C102 1.499 . S
C937 C103 1.495 . S
C945 C153 1.495 . S
