# Generated by pormake.
# Topology smm, (6)-cn, num edge types: 1
# Building blocks:
#     Node 0, Type 0, BuildingBlock: CUKXOW_clean_sbu_0, # of connection points: 6
#     Node 1, Type 0, BuildingBlock: CUKXOW_clean_sbu_0, # of connection points: 6
#     Node 2, Type 0, BuildingBlock: CUKXOW_clean_sbu_0, # of connection points: 6
#     Node 3, Type 0, BuildingBlock: CUKXOW_clean_sbu_0, # of connection points: 6
#     Node 4, Type 0, BuildingBlock: CUKXOW_clean_sbu_0, # of connection points: 6
#     Node 5, Type 0, BuildingBlock: CUKXOW_clean_sbu_0, # of connection points: 6
#     Node 6, Type 0, BuildingBlock: CUKXOW_clean_sbu_0, # of connection points: 6
#     Node 7, Type 0, BuildingBlock: CUKXOW_clean_sbu_0, # of connection points: 6
#     Node 8, Type 0, BuildingBlock: CUKXOW_clean_sbu_0, # of connection points: 6
#     Edge 9, Type (0, 0), BuildingBlock: UVAHIK_clean_linker_0, # of connection points: 2
#     Edge 10, Type (0, 0), BuildingBlock: UVAHIK_clean_linker_0, # of connection points: 2
#     Edge 11, Type (0, 0), BuildingBlock: UVAHIK_clean_linker_0, # of connection points: 2
#     Edge 12, Type (0, 0), BuildingBlock: UVAHIK_clean_linker_0, # of connection points: 2
#     Edge 13, Type (0, 0), BuildingBlock: UVAHIK_clean_linker_0, # of connection points: 2
#     Edge 14, Type (0, 0), BuildingBlock: UVAHIK_clean_linker_0, # of connection points: 2
#     Edge 15, Type (0, 0), BuildingBlock: UVAHIK_clean_linker_0, # of connection points: 2
#     Edge 16, Type (0, 0), BuildingBlock: UVAHIK_clean_linker_0, # of connection points: 2
#     Edge 17, Type (0, 0), BuildingBlock: UVAHIK_clean_linker_0, # of connection points: 2
#     Edge 18, Type (0, 0), BuildingBlock: UVAHIK_clean_linker_0, # of connection points: 2
#     Edge 19, Type (0, 0), BuildingBlock: UVAHIK_clean_linker_0, # of connection points: 2
#     Edge 20, Type (0, 0), BuildingBlock: UVAHIK_clean_linker_0, # of connection points: 2
#     Edge 21, Type (0, 0), BuildingBlock: UVAHIK_clean_linker_0, # of connection points: 2
#     Edge 22, Type (0, 0), BuildingBlock: UVAHIK_clean_linker_0, # of connection points: 2
#     Edge 23, Type (0, 0), BuildingBlock: UVAHIK_clean_linker_0, # of connection points: 2
#     Edge 24, Type (0, 0), BuildingBlock: UVAHIK_clean_linker_0, # of connection points: 2
#     Edge 25, Type (0, 0), BuildingBlock: UVAHIK_clean_linker_0, # of connection points: 2
#     Edge 26, Type (0, 0), BuildingBlock: UVAHIK_clean_linker_0, # of connection points: 2
#     Edge 27, Type (0, 0), BuildingBlock: UVAHIK_clean_linker_0, # of connection points: 2
#     Edge 28, Type (0, 0), BuildingBlock: UVAHIK_clean_linker_0, # of connection points: 2
#     Edge 29, Type (0, 0), BuildingBlock: UVAHIK_clean_linker_0, # of connection points: 2
#     Edge 30, Type (0, 0), BuildingBlock: UVAHIK_clean_linker_0, # of connection points: 2
#     Edge 31, Type (0, 0), BuildingBlock: UVAHIK_clean_linker_0, # of connection points: 2
#     Edge 32, Type (0, 0), BuildingBlock: UVAHIK_clean_linker_0, # of connection points: 2
#     Edge 33, Type (0, 0), BuildingBlock: UVAHIK_clean_linker_0, # of connection points: 2
#     Edge 34, Type (0, 0), BuildingBlock: UVAHIK_clean_linker_0, # of connection points: 2
#     Edge 35, Type (0, 0), BuildingBlock: UVAHIK_clean_linker_0, # of connection points: 2
# Relax obj value: 0.088
# Max RMSD: 0.187
# Mean RMSD: 0.153
data_MOF--net-smm--node1-CUKXOW_clean_sbu_0--edge1-UVAHIK_clean_linker_0
_symmetry_space_group_name_H-M    P1
_symmetry_Int_Tables_number       1
_symmetry_cell_setting            triclinic
loop_
_symmetry_equiv_pos_as_xyz
'x, y, z'
_cell_length_a     73.593239
_cell_length_b     64.867838
_cell_length_c     19.261456
_cell_angle_alpha  93.110092
_cell_angle_beta   93.061295
_cell_angle_gamma 120.70553
loop_
_atom_site_label
_atom_site_type_symbol
_atom_site_fract_x
_atom_site_fract_y
_atom_site_fract_z
_atom_type_partial_charge
Tb0 Tb 1.01911 0.23591 0.96919 0.0
C1 C 0.04032 0.2302 0.10278 0.0
Tb2 Tb 0.04921 0.21683 0.95466 0.0
O3 O 0.99743 0.20488 0.02292 0.0
O4 O 1.01579 0.20134 0.9502 0.0
O5 O 0.03401 0.24388 0.07468 0.0
C6 C 0.07116 0.1943 0.96183 0.0
O7 O 0.04459 0.21584 0.06499 0.0
C8 C 0.06456 0.26152 0.92464 0.0
C9 C 1.02378 0.21717 0.8208 0.0
O10 O 0.07694 0.21516 -0.00626 0.0
O11 O 0.05301 0.18611 0.92574 0.0
O12 O 0.07043 0.24725 0.89847 0.0
O13 O 0.05246 0.2514 0.97157 0.0
O14 O 0.03313 0.20658 0.85073 0.0
O15 O 1.01908 0.23174 0.85611 0.0
C16 C 0.99908 0.2606 0.97767 0.0
O17 O 0.99021 0.23785 0.95752 0.0
O18 O 1.01931 0.26954 -0.00919 0.0
C19 C 1.00307 0.19061 -0.00504 0.0
Tb20 Tb 0.83729 0.89316 0.07189 0.0
C21 C 0.85896 0.88606 0.94765 0.0
Tb22 Tb 0.88278 0.90468 0.09981 0.0
O23 O 0.84829 0.92432 0.01031 0.0
O24 O 0.86768 0.92479 0.09343 0.0
O25 O 0.84058 0.87817 0.97401 0.0
C26 C 0.92421 0.92196 0.09457 0.0
O27 O 0.87734 0.89899 -0.01377 0.0
C28 C 0.85381 0.86261 0.13346 0.0
C29 C 0.86089 0.91186 0.22494 0.0
O30 O 0.91528 0.93477 0.09691 0.0
O31 O 0.90986 0.89949 0.0966 0.0
O32 O 0.87288 0.87507 0.16493 0.0
O33 O 0.85236 0.87285 0.08111 0.0
O34 O 0.8794 0.91852 0.19991 0.0
O35 O 0.84245 0.90032 0.18543 0.0
C36 C 0.79518 0.87387 0.05783 0.0
O37 O 0.80918 0.89588 0.04823 0.0
O38 O 0.80495 0.863 0.07771 0.0
C39 C 0.86706 0.93628 0.04379 0.0
Tb40 Tb 0.22181 0.06444 0.92522 0.0
C41 C 0.19354 0.03553 0.03782 0.0
Tb42 Tb 0.17416 1.03024 0.88345 0.0
O43 O 0.21501 0.08893 -0.0125 0.0
O44 O 0.19513 0.06771 0.90034 0.0
O45 O 0.2125 0.04428 0.01512 0.0
C46 C 0.13193 1.00805 0.87678 0.0
O47 O 0.17683 1.03177 -0.00277 0.0
C48 C 0.19865 1.01358 0.85223 0.0
C49 C 0.20266 0.06062 0.77033 0.0
O50 O 0.14289 0.99759 0.8838 0.0
O51 O 0.14474 1.0308 0.87215 0.0
O52 O 0.18086 1.00722 0.81591 0.0
O53 O 0.20085 1.02677 0.9064 0.0
O54 O 0.18307 0.04853 0.78967 0.0
O55 O 0.21998 0.06701 0.81263 0.0
C56 C 0.26384 0.08509 0.9504 0.0
O57 O 0.2513 0.06426 0.91587 0.0
O58 O 0.25277 0.09456 0.96856 0.0
C59 C 0.19715 0.08192 0.95102 0.0
Tb60 Tb 0.68773 0.58034 0.34472 0.0
C61 C 0.66005 0.54642 0.21081 0.0
Tb62 Tb 0.65719 0.52384 0.35295 0.0
O63 O 0.70998 0.57276 0.29269 0.0
O64 O 0.69011 0.54958 0.36026 0.0
O65 O 0.66935 0.56833 0.24412 0.0
C66 C 0.6427 0.47698 0.35917 0.0
O67 O 0.65652 0.52693 0.24104 0.0
C68 C 0.63697 0.54779 0.36441 0.0
C69 C 0.67918 0.55892 0.48954 0.0
O70 O 0.655 0.4901 0.31355 0.0
O71 O 0.63865 0.49028 0.40073 0.0
O72 O 0.62775 0.52456 0.36535 0.0
O73 O 0.65592 0.55516 0.35451 0.0
O74 O 0.67284 0.53728 0.45782 0.0
O75 O 0.68346 0.57799 0.45551 0.0
C76 C 0.70789 0.62814 0.34177 0.0
O77 O 0.71467 0.61663 0.378 0.0
O78 O 0.68949 0.61273 0.30909 0.0
C79 C 0.70322 0.55216 0.31771 0.0
Tb80 Tb 0.50621 0.17375 0.3654 0.0
C81 C 0.53167 0.16829 0.24486 0.0
Tb82 Tb 0.55263 0.18835 0.39769 0.0
O83 O 0.51454 0.21012 0.40367 0.0
O84 O 0.53645 0.20463 0.355 0.0
O85 O 0.51296 0.16197 0.26737 0.0
C86 C 0.59499 0.21421 0.41111 0.0
O87 O 0.54976 0.18029 0.28547 0.0
C88 C 0.52493 0.14453 0.42681 0.0
C89 C 0.52502 0.18562 0.51918 0.0
O90 O 0.58354 0.19103 0.39519 0.0
O91 O 0.58258 0.22268 0.42003 0.0
O92 O 0.54411 0.15733 0.45759 0.0
O93 O 0.52303 0.15549 0.37739 0.0
O94 O 0.54407 0.19781 0.49588 0.0
O95 O 0.50745 0.1718 0.47702 0.0
C96 C 0.4671 0.15817 0.3078 0.0
O97 O 0.47156 0.14896 0.35983 0.0
O98 O 0.4845 0.17595 0.28963 0.0
C99 C 0.53377 0.2203 0.38624 0.0
Tb100 Tb 0.86019 0.37361 0.34595 0.0
C101 C 0.84115 0.38209 0.2069 0.0
Tb102 Tb 0.84241 0.40779 0.35193 0.0
O103 O 0.83428 0.34719 0.40121 0.0
O104 O 0.82976 0.37002 0.33971 0.0
O105 O 0.85228 0.37347 0.2362 0.0
C106 C 0.81965 0.42916 0.34523 0.0
O107 O 0.83474 0.39495 0.24216 0.0
C108 C 0.88404 0.42866 0.36514 0.0
C109 C 0.85915 0.39716 0.48903 0.0
O110 O 0.83637 0.43494 0.31255 0.0
O111 O 0.81579 0.41139 0.38216 0.0
O112 O 0.87383 0.43792 0.393 0.0
O113 O 0.87091 0.4097 0.32765 0.0
O114 O 0.84471 0.40126 0.45977 0.0
O115 O 0.86971 0.38936 0.45311 0.0
C116 C 0.88303 0.35358 0.31475 0.0
O117 O 0.89064 0.37514 0.34514 0.0
O118 O 0.86253 0.34315 0.30385 0.0
C119 C 0.82132 0.35438 0.38236 0.0
Tb120 Tb 0.33644 0.87787 0.63155 0.0
C121 C 0.36381 0.87931 0.7643 0.0
Tb122 Tb 0.3659 0.8562 0.62188 0.0
O123 O 0.30873 0.84229 0.59806 0.0
O124 O 0.33506 0.84503 0.65311 0.0
O125 O 0.35587 0.89068 0.73083 0.0
C126 C 0.3829 0.82843 0.62382 0.0
O127 O 0.36557 0.86177 0.73327 0.0
C128 C 0.38703 0.90291 0.60436 0.0
C129 C 0.34573 0.86422 0.48553 0.0
O130 O 0.39052 0.84926 0.65874 0.0
O131 O 0.36526 0.82283 0.58757 0.0
O132 O 0.39535 0.88946 0.60259 0.0
O133 O 0.36799 0.88948 0.61552 0.0
O134 O 0.35211 0.85056 0.5147 0.0
O135 O 0.34127 0.87879 0.52204 0.0
C136 C 0.31811 0.9032 0.66354 0.0
O137 O 0.32723 0.90421 0.60676 0.0
O138 O 0.3192 0.88788 0.70147 0.0
C139 C 0.31733 0.83039 0.62016 0.0
Tb140 Tb 0.14309 0.53088 0.63936 0.0
C141 C 0.16339 0.52064 0.51297 0.0
Tb142 Tb 0.18994 0.54175 0.6575 0.0
O143 O 0.15502 0.56942 0.66498 0.0
O144 O 0.17382 0.55855 0.61763 0.0
O145 O 0.14575 0.51357 0.54385 0.0
C146 C 0.23181 0.56289 0.65566 0.0
O147 O 0.18252 0.5352 0.54556 0.0
C148 C 0.1628 0.4967 0.68095 0.0
C149 C 0.16654 0.54275 0.78894 0.0
O150 O 0.21779 0.54226 0.62304 0.0
O151 O 0.22229 0.5718 0.69052 0.0
O152 O 0.18324 0.50613 0.68472 0.0
O153 O 0.1591 0.51278 0.6643 0.0
O154 O 0.18511 0.55175 0.76184 0.0
O155 O 0.14791 0.53116 0.75084 0.0
C156 C 0.10199 0.51355 0.60174 0.0
O157 O 0.10953 0.51059 0.66055 0.0
O158 O 0.11756 0.52639 0.56506 0.0
C159 C 0.17375 0.57652 0.64516 0.0
Tb160 Tb 0.54565 0.71528 0.64492 0.0
C161 C 0.52063 0.67987 0.76054 0.0
Tb162 Tb 0.49645 0.67536 0.61637 0.0
O163 O 0.53885 0.74357 0.62164 0.0
O164 O 0.51582 0.71177 0.65772 0.0
O165 O 0.53901 0.69561 0.73767 0.0
C166 C 0.45488 0.65788 0.61659 0.0
O167 O 0.50196 0.67057 0.72378 0.0
C168 C 0.52099 0.65731 0.59577 0.0
C169 C 0.52379 0.70134 0.49354 0.0
O170 O 0.46934 0.6726 0.6652 0.0
O171 O 0.46379 0.65283 0.5672 0.0
O172 O 0.50029 0.64436 0.5879 0.0
O173 O 0.52589 0.67841 0.6158 0.0
O174 O 0.50507 0.69258 0.51961 0.0
O175 O 0.54195 0.70875 0.53238 0.0
C176 C 0.58587 0.7431 0.69755 0.0
O177 O 0.57963 0.72832 0.64096 0.0
O178 O 0.56957 0.74223 0.72306 0.0
C179 C 0.51903 0.73078 0.63295 0.0
C180 C 0.0675 0.3022 0.93833 0.0
C181 C 0.07191 0.28596 0.90285 0.0
C182 C 0.07497 0.3253 0.9163 0.0
C183 C 0.11878 0.37116 0.83232 0.0
H184 H 0.08319 0.39651 0.77564 0.0
C185 C 0.15315 0.45431 0.68281 0.0
C186 C 0.14786 0.47191 0.69744 0.0
C187 C 0.14185 0.43176 0.70789 0.0
C188 C 0.09341 0.38987 0.79222 0.0
H189 H 0.08765 0.28122 0.81672 0.0
H190 H 0.10116 0.32149 0.78006 0.0
H191 H 0.06734 0.35716 0.82333 0.0
H192 H 0.12611 0.47956 0.74797 0.0
H193 H 0.10647 0.44001 0.79422 0.0
H194 H 0.14488 0.40357 0.80326 0.0
C195 C 0.09172 0.31635 0.8242 0.0
C196 C 0.0843 0.36733 0.81943 0.0
C197 C 0.08398 0.29329 0.84533 0.0
C198 C 0.13035 0.46616 0.7354 0.0
C199 C 0.11917 0.44353 0.76196 0.0
C200 C 0.12788 0.39366 0.8063 0.0
C201 C 0.0874 0.33267 0.85948 0.0
C202 C 0.09688 0.35755 0.8381 0.0
C203 C 0.12524 0.42629 0.75024 0.0
C204 C 0.11529 0.40311 0.78383 0.0
H205 H 0.05873 0.29731 -0.01613 0.0
H206 H 0.07162 0.33765 0.94488 0.0
H207 H 0.12891 0.36424 0.84742 0.0
H208 H 0.16649 0.45823 0.65322 0.0
H209 H 0.14655 0.41878 0.6953 0.0
C210 C 0.75923 0.83685 0.03706 0.0
C211 C 0.77249 0.86168 0.03294 0.0
C212 C 0.73868 0.82449 0.00316 0.0
C213 C 0.6969 0.83321 0.91787 0.0
H214 H 0.67813 0.77064 0.82093 0.0
C215 C 0.61126 0.77144 0.79518 0.0
C216 C 0.60767 0.75765 0.73172 0.0
C217 C 0.6315 0.78458 0.83054 0.0
C218 C 0.68322 0.7882 0.84701 0.0
H219 H 0.77455 0.89327 -0.00736 0.0
H220 H 0.73884 0.87175 0.93289 0.0
H221 H 0.71271 0.79266 0.88836 0.0
H222 H 0.62239 0.7469 0.65479 0.0
H223 H 0.65814 0.77037 0.71619 0.0
H224 H 0.66773 0.82911 0.87494 0.0
C225 C 0.74409 0.86178 0.96284 0.0
C226 C 0.70291 0.80067 0.88667 0.0
C227 C 0.76458 0.87414 -0.00297 0.0
C228 C 0.62478 0.75742 0.70367 0.0
C229 C 0.64517 0.77071 0.73909 0.0
C230 C 0.67728 0.82081 0.87799 0.0
C231 C 0.73105 0.83671 0.96419 0.0
C232 C 0.70995 0.82328 0.92289 0.0
C233 C 0.64872 0.78439 0.80314 0.0
C234 C 0.67012 0.79808 0.84246 0.0
H235 H 0.76497 0.82683 0.06444 0.0
H236 H 0.72891 0.80528 0.00651 0.0
H237 H 0.70173 0.8505 0.94538 0.0
H238 H 0.59832 0.77183 0.8183 0.0
H239 H 0.63352 0.7945 0.88025 0.0
C240 C 0.22786 1.00582 0.88503 0.0
C241 C 0.21344 1.0056 0.8338 0.0
C242 C 0.24097 0.9969 0.8677 0.0
C243 C 0.26587 0.98476 0.72494 0.0
H244 H 0.26115 0.93263 0.82698 0.0
C245 C 0.3016 0.92749 0.63284 0.0
C246 C 0.3082 0.91725 0.68322 0.0
C247 C 0.29128 0.93977 0.652 0.0
C248 C 0.26313 0.9475 0.7987 0.0
H249 H 0.2019 0.99684 0.72413 0.0
H250 H 0.22523 0.98181 0.69348 0.0
H251 H 0.24199 0.95245 0.86031 0.0
H252 H 0.31011 0.91266 0.79331 0.0
H253 H 0.2933 0.93509 0.82754 0.0
H254 H 0.28744 0.98045 0.66445 0.0
C255 C 0.22622 0.98862 0.74703 0.0
C256 C 0.25199 0.95875 0.81776 0.0
C257 C 0.21282 0.99707 0.76463 0.0
C258 C 0.30492 0.92013 0.75326 0.0
C259 C 0.29508 0.93285 0.77271 0.0
C260 C 0.2774 0.97385 0.70672 0.0
C261 C 0.24018 0.9881 0.79857 0.0
C262 C 0.25309 0.97731 0.78069 0.0
C263 C 0.28775 0.94254 0.72229 0.0
C264 C 0.27606 0.95487 0.74292 0.0
H265 H 0.22863 1.01232 0.93876 0.0
H266 H 0.25168 0.99678 0.90829 0.0
H267 H 0.26705 0.99915 0.69578 0.0
H268 H 0.30391 0.92543 0.57838 0.0
H269 H 0.28565 0.94657 0.61126 0.0
C270 C 0.44457 0.16111 0.21335 0.0
C271 C 0.44599 0.14987 0.27193 0.0
C272 C 0.42495 0.15382 0.17788 0.0
C273 C 0.38164 0.14572 0.13788 0.0
H274 H 0.338 0.07828 0.10186 0.0
C275 C 0.29667 0.11499 0.02466 0.0
C276 C 0.28593 0.09411 0.97793 0.0
C277 C 0.31644 0.12189 0.0587 0.0
C278 C 0.35011 0.09719 0.11085 0.0
H279 H 0.42808 0.12205 0.33929 0.0
H280 H 0.39338 0.10939 0.27759 0.0
H281 H 0.37174 0.08963 0.16654 0.0
H282 H 0.2876 0.06444 0.92819 0.0
H283 H 0.32252 0.07685 -0.01372 0.0
H284 H 0.36039 0.15334 0.08079 0.0
C285 C 0.40757 0.12371 0.25873 0.0
C286 C 0.36932 0.1037 0.14884 0.0
C287 C 0.42736 0.13101 0.29429 0.0
C288 C 0.29561 0.08068 0.96389 0.0
C289 C 0.31547 0.08764 -0.00222 0.0
C290 C 0.36252 0.13923 0.09978 0.0
C291 C 0.40617 0.13518 0.20031 0.0
C292 C 0.38536 0.12805 0.1625 0.0
C293 C 0.32596 0.10812 0.04648 0.0
C294 C 0.34651 0.11489 0.08571 0.0
H295 H 0.4587 0.17557 0.19449 0.0
H296 H 0.42454 0.1627 0.13229 0.0
H297 H 0.39352 0.16468 0.14825 0.0
H298 H 0.28946 0.12555 0.03688 0.0
H299 H 0.3239 0.13759 0.09643 0.0
C300 C 0.91791 0.3584 0.28943 0.0
C301 C 0.8957 0.344 0.28583 0.0
C302 C 0.92966 0.35028 0.25465 0.0
C303 C 0.9236 0.30751 0.1075 0.0
H304 H 0.97738 0.3183 0.18931 0.0
C305 C 0.96536 0.25995 -0.0062 0.0
C306 C 0.98763 0.27278 -0.00148 0.0
C307 C 0.95454 0.27014 0.02405 0.0
C308 C 0.96254 0.31547 0.16522 0.0
H309 H 0.86837 0.30962 0.2453 0.0
H310 H 0.88882 0.29526 0.18568 0.0
H311 H 0.95783 0.33249 0.25515 0.0
H312 H 1.01606 0.30671 0.03532 0.0
H313 H 0.99717 0.3247 0.08727 0.0
H314 H 0.92822 0.29032 0.01779 0.0
C315 C 0.89719 0.31298 0.21413 0.0
C316 C 0.95131 0.32356 0.2031 0.0
C317 C 0.88549 0.32109 0.24884 0.0
C318 C 0.99887 0.29641 0.031 0.0
C319 C 0.98806 0.30661 0.06133 0.0
C320 C 0.93483 0.29943 0.06963 0.0
C321 C 0.91938 0.32763 0.21554 0.0
C322 C 0.93161 0.3195 0.17493 0.0
C323 C 0.96578 0.29338 0.0597 0.0
C324 C 0.95437 0.30316 0.09819 0.0
H325 H 0.92616 0.37622 0.31725 0.0
H326 H 0.9467 0.36209 0.25647 0.0
H327 H 0.90868 0.30451 0.08363 0.0
H328 H 0.95632 0.24165 0.96935 0.0
H329 H 0.9374 0.25936 0.02223 0.0
C330 C 0.84069 0.83192 0.21904 0.0
C331 C 0.83713 0.83936 0.15522 0.0
C332 C 0.82568 0.80972 0.24025 0.0
C333 C 0.76945 0.76197 0.21721 0.0
H334 H 0.79067 0.72255 0.28748 0.0
C335 C 0.71391 0.66274 0.27489 0.0
C336 C 0.7207 0.6538 0.3289 0.0
C337 C 0.72723 0.68603 0.25603 0.0
C338 C 0.78443 0.73343 0.26929 0.0
H339 H 0.81503 0.82937 0.06335 0.0
H340 H 0.78837 0.7905 0.10126 0.0
H341 H 0.81525 0.76154 0.24865 0.0
H342 H 0.74625 0.66256 0.4079 0.0
H343 H 0.76922 0.7035 0.37704 0.0
H344 H 0.73862 0.734 0.23885 0.0
C345 C 0.80283 0.80202 0.13494 0.0
C346 C 0.79856 0.75577 0.24655 0.0
C347 C 0.81803 0.82425 0.11331 0.0
C348 C 0.74065 0.66896 0.36584 0.0
C349 C 0.75389 0.69234 0.34753 0.0
C350 C 0.75527 0.73965 0.24066 0.0
C351 C 0.80665 0.7944 0.19832 0.0
C352 C 0.79128 0.77035 0.22046 0.0
C353 C 0.7476 0.70102 0.29118 0.0
C354 C 0.76258 0.72507 0.26724 0.0
H355 H 0.8552 0.84322 0.25272 0.0
H356 H 0.82898 0.80456 0.28976 0.0
H357 H 0.76339 0.7729 0.19792 0.0
H358 H 0.69863 0.65139 0.24522 0.0
H359 H 0.72184 0.69187 0.21202 0.0
C360 C 0.07305 0.50066 0.50655 0.0
C361 C 0.07935 0.50329 0.57804 0.0
C362 C 0.05172 0.49108 0.48298 0.0
C363 C 0.99669 0.45841 0.54121 0.0
H364 H 0.98362 0.48071 0.3735 0.0
C365 C 0.91506 0.44759 0.45517 0.0
C366 C 0.90611 0.43589 0.38806 0.0
C367 C 0.93585 0.45424 0.47803 0.0
C368 C 0.98708 0.47422 0.4201 0.0
H369 H 0.06847 0.49815 0.68128 0.0
H370 H 0.03135 0.48273 0.64101 0.0
H371 H 1.02051 0.49617 0.41546 0.0
H372 H 0.91177 0.42212 0.29191 0.0
H373 H 0.94864 0.43468 0.33109 0.0
H374 H 0.96299 0.43752 0.54719 0.0
C375 C 0.04263 0.48715 0.60238 0.0
C376 C 1.00825 0.48293 0.44415 0.0
C377 C 0.06396 0.4962 0.62578 0.0
C378 C 0.91835 0.43111 0.34389 0.0
C379 C 0.93936 0.43829 0.36619 0.0
C380 C 0.97553 0.45017 0.51796 0.0
C381 C 0.03616 0.48446 0.53048 0.0
C382 C 1.01344 0.47511 0.505 0.0
C383 C 0.94824 0.44984 0.43356 0.0
C384 C 0.97056 0.45794 0.4571 0.0
H385 H 0.0846 0.50573 0.46853 0.0
H386 H 0.04751 0.48873 0.42722 0.0
H387 H 0.99983 0.45149 0.58731 0.0
H388 H 0.90588 0.45133 0.49039 0.0
H389 H 0.9424 0.46322 0.53005 0.0
C390 C 0.52699 0.62401 0.56045 0.0
C391 C 0.53542 0.64868 0.5783 0.0
C392 C 0.5401 0.61542 0.54094 0.0
C393 C 0.59085 0.63315 0.46895 0.0
H394 H 0.58065 0.57292 0.53394 0.0
C395 C 0.6395 0.58727 0.39868 0.0
C396 C 0.62727 0.56217 0.38298 0.0
C397 C 0.63005 0.6 0.42367 0.0
C398 C 0.58363 0.58968 0.5149 0.0
H399 H 0.56413 0.68376 0.58941 0.0
H400 H 0.58728 0.66874 0.55526 0.0
H401 H 0.56127 0.59119 0.57814 0.0
H402 H 0.5956 0.53082 0.37832 0.0
H403 H 0.57918 0.55284 0.42072 0.0
H404 H 0.61309 0.6313 0.40485 0.0
C405 C 0.57047 0.65606 0.55632 0.0
C406 C 0.57252 0.60017 0.54031 0.0
C407 C 0.55729 0.66465 0.57637 0.0
C408 C 0.60544 0.55016 0.39039 0.0
C409 C 0.59606 0.56276 0.41523 0.0
C410 C 0.60203 0.62259 0.44339 0.0
C411 C 0.56199 0.6313 0.5385 0.0
C412 C 0.5756 0.62173 0.51653 0.0
C413 C 0.60828 0.58774 0.43364 0.0
C414 C 0.59814 0.60042 0.46489 0.0
H415 H 0.51016 0.61129 0.56102 0.0
H416 H 0.53296 0.5963 0.52643 0.0
H417 H 0.59353 0.64973 0.44938 0.0
H418 H 0.6564 0.59692 0.39388 0.0
H419 H 0.6399 0.61923 0.43747 0.0
C420 C 0.48793 0.10806 0.41155 0.0
C421 C 0.50875 0.12024 0.44437 0.0
C422 C 0.47292 0.08495 0.42853 0.0
C423 C 0.46956 1.03109 0.48858 0.0
H424 H 0.41478 1.01389 0.55155 0.0
C425 C 0.42072 0.94181 0.60551 0.0
C426 C 0.39855 0.92873 0.59251 0.0
C427 C 0.43265 0.96541 0.58796 0.0
C428 C 0.42986 1.01823 0.53302 0.0
H429 H 0.53012 0.1179 0.52098 0.0
H430 H 0.50423 0.07742 0.54881 0.0
H431 H 0.43821 0.05457 0.51756 0.0
H432 H 0.37127 0.93024 0.55235 0.0
H433 H 0.39224 0.97157 0.51896 0.0
H434 H 0.46138 0.99501 0.50145 0.0
C435 C 0.49943 0.08577 0.51051 0.0
C436 C 0.44329 0.04157 0.51379 0.0
C437 C 0.51424 0.10895 0.49457 0.0
C438 C 0.38837 0.94002 0.56328 0.0
C439 C 0.40043 0.9637 0.54426 0.0
C440 C 0.45609 1.00778 0.5065 0.0
C441 C 0.47864 0.07346 0.47753 0.0
C442 C 0.46346 0.04835 0.49278 0.0
C443 C 0.42283 0.97655 0.55501 0.0
C444 C 0.43624 1.00109 0.53077 0.0
H445 H 0.48329 0.1163 0.37246 0.0
H446 H 0.45704 0.07581 0.40205 0.0
H447 H 0.48485 0.03567 0.47133 0.0
H448 H 0.42897 0.93364 0.62872 0.0
H449 H 0.44971 0.97481 0.59971 0.0
C450 C 0.16814 0.08786 0.9033 0.0
C451 C 0.18396 0.09301 0.95693 0.0
C452 C 0.15576 0.09844 0.90704 0.0
C453 C 0.1403 0.13236 0.02906 0.0
H454 H 0.12275 0.14774 0.85558 0.0
C455 C 0.1015 0.1911 0.01309 0.0
C456 C 0.08355 0.18217 0.96484 0.0
C457 C 0.11351 0.17993 0.01498 0.0
C458 C 0.12738 0.14338 0.9044 0.0
H459 H 0.19951 0.11368 0.05618 0.0
H460 H 0.17842 0.13306 0.06181 0.0
H461 H 0.14465 0.12964 0.8538 0.0
H462 H 0.06395 0.15454 0.88113 0.0
H463 H 0.08517 0.13527 0.88348 0.0
H464 H 0.1234 0.14692 0.07948 0.0
C465 C 0.17508 0.12018 0.01767 0.0
C466 C 0.13989 0.13287 0.90349 0.0
C467 C 0.1873 0.10924 0.01431 0.0
C468 C 0.07774 0.16181 0.91877 0.0
C469 C 0.08992 0.15086 0.91996 0.0
C470 C 0.128 0.14321 0.03001 0.0
C471 C 0.15917 0.115 0.96382 0.0
C472 C 0.14637 0.12696 0.96569 0.0
C473 C 0.10798 0.15984 0.96793 0.0
C474 C 0.12126 0.14863 0.96758 0.0
H475 H 0.16551 0.07588 0.85757 0.0
H476 H 0.14347 0.09356 0.86511 0.0
H477 H 0.14469 0.12782 0.07793 0.0
H478 H 0.10631 0.20677 0.04927 0.0
H479 H 0.12742 0.18735 0.05217 0.0
C480 C 0.90097 0.97455 0.08497 0.0
C481 C 0.88327 0.96159 0.03553 0.0
C482 C 0.91581 0.99881 0.07932 0.0
C483 C 0.93427 0.04675 0.95662 0.0
H484 H 0.95601 0.08937 0.128 0.0
C485 C 0.99576 0.14901 0.95915 0.0
C486 C 0.99219 0.16448 0.00245 0.0
C487 C 0.98416 0.12406 0.96376 0.0
C488 C 0.95005 0.07778 0.07953 0.0
H489 H 0.8673 0.96379 0.94103 0.0
H490 H 0.89293 1.00632 0.93176 0.0
H491 H 0.93223 0.0464 0.13298 0.0
H492 H 0.97418 0.16613 0.08569 0.0
H493 H 0.95385 0.12284 0.09326 0.0
H494 H 0.9515 0.07837 0.90306 0.0
C495 C 0.89563 0.99766 0.97428 0.0
C496 C 0.93658 0.05301 0.08244 0.0
C497 C 0.88083 0.97332 0.9798 0.0
C498 C 0.97725 0.15463 0.05153 0.0
C499 C 0.96569 0.12978 0.05618 0.0
C500 C 0.94773 0.07158 0.95369 0.0
C501 C 0.91323 1.01082 0.02439 0.0
C502 C 0.92834 0.03714 0.02102 0.0
C503 C 0.96881 0.11409 0.01193 0.0
C504 C 0.95562 0.08747 0.01509 0.0
H505 H 0.90317 0.96608 0.12894 0.0
H506 H 0.92928 1.00818 0.11833 0.0
H507 H 0.92848 0.03509 0.90828 0.0
H508 H 1.00722 0.15613 0.92089 0.0
H509 H 0.98721 0.11259 0.92951 0.0
C510 C 0.9538 0.91493 0.07333 0.0
C511 C 0.94625 0.93086 0.07951 0.0
C512 C 0.97382 0.92264 0.05072 0.0
C513 C 1.01268 0.96776 0.94685 0.0
H514 H 0.05141 0.95042 0.03157 0.0
C515 C 0.09994 1.01129 0.8871 0.0
C516 C 0.10922 0.99702 0.88602 0.0
C517 C 0.07927 1.00193 0.90555 0.0
C518 C 0.04063 0.95507 0.00656 0.0
H519 H 0.9538 0.96745 0.06933 0.0
H520 H 0.98891 0.98102 0.0302 0.0
H521 H 1.01744 0.93729 0.07864 0.0
H522 H 0.10404 0.96157 0.90014 0.0
H523 H 0.06767 0.94498 0.93122 0.0
H524 H 0.03579 0.98551 0.87471 0.0
C525 C 0.97927 0.96251 0.04204 0.0
C526 C 1.02122 0.94764 0.03378 0.0
C527 C 0.95929 0.95483 0.065 0.0
C528 C 0.09721 0.97293 0.90069 0.0
C529 C 0.07649 0.96353 0.91907 0.0
C530 C 0.03203 0.97511 0.91946 0.0
C531 C 0.98658 0.94639 0.03352 0.0
C532 C 1.00713 0.95409 0.00456 0.0
C533 C 0.06746 0.9781 0.92316 0.0
C534 C 0.0463 0.96901 0.94932 0.0
H535 H 0.94398 0.89632 0.08401 0.0
H536 H 0.97898 0.90978 0.04428 0.0
H537 H 1.00194 0.97259 0.92238 0.0
H538 H 0.10893 1.02998 0.8763 0.0
H539 H 0.0729 1.01373 0.90887 0.0
C540 C 0.70686 0.51791 0.35301 0.0
C541 C 0.71319 0.53739 0.31238 0.0
C542 C 0.71729 0.50498 0.35274 0.0
C543 C 0.75372 0.49306 0.25574 0.0
H544 H 0.76607 0.4762 0.4351 0.0
C545 C 0.81247 0.45955 0.29709 0.0
C546 C 0.80689 0.44077 0.34 0.0
C547 C 0.8004 0.47056 0.2917 0.0
C548 C 0.76253 0.48049 0.38446 0.0
H549 H 0.73507 0.55838 0.23852 0.0
H550 H 0.7536 0.536 0.23866 0.0
H551 H 0.74599 0.49652 0.42796 0.0
H552 H 0.78431 0.41859 0.41057 0.0
H553 H 0.76312 0.43774 0.40108 0.0
H554 H 0.7705 0.4772 0.21248 0.0
C555 C 0.74037 0.53047 0.27006 0.0
C556 C 0.75098 0.49213 0.38031 0.0
C557 C 0.72985 0.54338 0.27017 0.0
C558 C 0.78901 0.43312 0.37736 0.0
C559 C 0.77694 0.44416 0.37211 0.0
C560 C 0.76531 0.48143 0.25993 0.0
C561 C 0.73441 0.51133 0.31217 0.0
C562 C 0.74643 0.49858 0.31592 0.0
C563 C 0.78251 0.46303 0.32924 0.0
C564 C 0.76988 0.47504 0.32438 0.0
H565 H 0.69413 0.51297 0.38637 0.0
H566 H 0.71202 0.4901 0.38484 0.0
H567 H 0.75028 0.49748 0.20519 0.0
H568 H 0.82621 0.4658 0.26775 0.0
H569 H 0.80529 0.48523 0.25895 0.0
C570 C 0.63967 0.43783 0.31771 0.0
C571 C 0.63384 0.45089 0.36242 0.0
C572 C 0.63049 0.4129 0.32008 0.0
C573 C 0.58227 0.36037 0.37033 0.0
H574 H 0.61476 0.3285 0.37194 0.0
C575 C 0.54344 0.26188 0.42808 0.0
C576 C 0.54804 0.24666 0.38826 0.0
C577 C 0.55537 0.28679 0.42557 0.0
C578 C 0.60542 0.33708 0.37069 0.0
H579 H 0.61426 0.44832 0.4455 0.0
H580 H 0.59822 0.40502 0.4494 0.0
H581 H 0.63284 0.37208 0.36441 0.0
H582 H 0.56923 0.2455 0.31641 0.0
H583 H 0.59 0.28921 0.31087 0.0
H584 H 0.55486 0.32568 0.37559 0.0
C585 C 0.60971 0.41387 0.41214 0.0
C586 C 0.61579 0.36204 0.36644 0.0
C587 C 0.61898 0.4387 0.41014 0.0
C588 C 0.56536 0.25688 0.34769 0.0
C589 C 0.57727 0.28191 0.34472 0.0
C590 C 0.57193 0.33553 0.37408 0.0
C591 C 0.61517 0.40061 0.36672 0.0
C592 C 0.60434 0.37399 0.36729 0.0
C593 C 0.5721 0.29714 0.3825 0.0
C594 C 0.58337 0.32355 0.37548 0.0
H595 H 0.65116 0.44683 0.28057 0.0
H596 H 0.63496 0.40314 0.28427 0.0
H597 H 0.57292 0.36894 0.36953 0.0
H598 H 0.53033 0.25451 0.46046 0.0
H599 H 0.55128 0.29793 0.45695 0.0
C600 C 0.62849 0.25383 0.41032 0.0
C601 C 0.61835 0.22889 0.41455 0.0
C602 C 0.65058 0.26774 0.41057 0.0
C603 C 0.69799 0.26197 0.3861 0.0
H604 H 0.72862 0.329 0.46133 0.0
C605 C 0.7897 0.32039 0.42803 0.0
C606 C 0.79854 0.3415 0.39356 0.0
C607 C 0.76787 0.30708 0.43421 0.0
C608 C 0.72021 0.3103 0.44007 0.0
H609 H 0.62321 0.19895 0.42434 0.0
H610 H 0.6618 0.22325 0.42868 0.0
H611 H 0.69036 0.30463 0.46759 0.0
H612 H 0.79154 0.36541 0.33943 0.0
H613 H 0.75342 0.34265 0.35303 0.0
H614 H 0.72819 0.26768 0.36112 0.0
C615 C 0.65281 0.23212 0.42234 0.0
C616 C 0.69823 0.29631 0.44308 0.0
C617 C 0.63067 0.21815 0.42052 0.0
C618 C 0.78521 0.34941 0.3671 0.0
C619 C 0.76343 0.33637 0.37467 0.0
C620 C 0.72001 0.27584 0.38453 0.0
C621 C 0.66312 0.25712 0.41659 0.0
C622 C 0.68673 0.27194 0.41559 0.0
C623 C 0.75453 0.31489 0.40732 0.0
C624 C 0.73129 0.30016 0.41101 0.0
H625 H 0.61931 0.26253 0.40508 0.0
H626 H 0.65769 0.28675 0.40453 0.0
H627 H 0.68982 0.24353 0.36286 0.0
H628 H 0.79958 0.31383 0.44883 0.0
H629 H 0.76138 0.29062 0.45988 0.0
C630 C 0.48255 0.72275 0.5984 0.0
C631 C 0.50361 0.73877 0.6255 0.0
C632 C 0.46802 0.73054 0.59182 0.0
C633 C 0.46586 0.78649 0.58635 0.0
H634 H 0.40818 0.74649 0.63476 0.0
C635 C 0.41465 0.82577 0.65602 0.0
C636 C 0.39417 0.81505 0.62147 0.0
C637 C 0.42646 0.81458 0.65085 0.0
C638 C 0.42416 0.75769 0.62023 0.0
H639 H 0.52634 0.77559 0.66534 0.0
H640 H 0.50108 0.78927 0.65556 0.0
H641 H 0.43217 0.73074 0.6365 0.0
H642 H 0.36963 0.78381 0.55622 0.0
H643 H 0.39037 0.76375 0.54828 0.0
H644 H 0.45809 0.81371 0.5727 0.0
C645 C 0.49564 0.77069 0.63844 0.0
C646 C 0.43791 0.7487 0.62111 0.0
C647 C 0.51012 0.76287 0.64452 0.0
C648 C 0.38541 0.79244 0.58326 0.0
C649 C 0.39722 0.781 0.57882 0.0
C650 C 0.45223 0.7955 0.5862 0.0
C651 C 0.47438 0.75465 0.61192 0.0
C652 C 0.45909 0.76321 0.60557 0.0
C653 C 0.41802 0.79225 0.61159 0.0
C654 C 0.4314 0.78139 0.60445 0.0
H655 H 0.47751 0.70444 0.58008 0.0
H656 H 0.45195 0.71781 0.56975 0.0
H657 H 0.48182 0.79794 0.57209 0.0
H658 H 0.4218 0.84315 0.68607 0.0
H659 H 0.44232 0.82348 0.67748 0.0
C660 C 0.20837 0.60837 0.60624 0.0
C661 C 0.19114 0.60198 0.64628 0.0
C662 C 0.2241 0.63264 0.60427 0.0
C663 C 0.24482 0.68591 0.57375 0.0
H664 H 0.26936 0.72962 0.74285 0.0
C665 C 0.28684 0.78963 0.57629 0.0
C666 C 0.3058 0.80379 0.61971 0.0
C667 C 0.2749 0.76464 0.57842 0.0
C668 C 0.2628 0.71761 0.6952 0.0
H669 H 0.17723 0.61586 0.7173 0.0
H670 H 0.2049 0.65815 0.71509 0.0
H671 H 0.24467 0.68661 0.75072 0.0
H672 H 0.32737 0.80281 0.69866 0.0
H673 H 0.30619 0.75898 0.70351 0.0
H674 H 0.26241 0.71698 0.51811 0.0
C675 C 0.20619 0.64446 0.68485 0.0
C676 C 0.24854 0.69302 0.69968 0.0
C677 C 0.19029 0.62025 0.68586 0.0
C678 C 0.31281 0.79235 0.6646 0.0
C679 C 0.30064 0.7673 0.6676 0.0
C680 C 0.25879 0.71054 0.56921 0.0
C681 C 0.22314 0.65099 0.64333 0.0
C682 C 0.23926 0.6769 0.63898 0.0
C683 C 0.28147 0.75317 0.62478 0.0
C684 C 0.26783 0.72673 0.62985 0.0
H685 H 0.20946 0.59466 0.57526 0.0
H686 H 0.23703 0.63707 0.57216 0.0
H687 H 0.23784 0.674 0.526 0.0
H688 H 0.28105 0.79794 0.54113 0.0
H689 H 0.26015 0.75434 0.54519 0.0
C690 C 0.41703 0.63063 0.56862 0.0
C691 C 0.43211 0.64921 0.61736 0.0
C692 C 0.3954 0.62211 0.57155 0.0
C693 C 0.35785 0.63832 0.6378 0.0
H694 H 0.31939 0.56926 0.62825 0.0
C695 C 0.26951 0.59524 0.69341 0.0
C696 C 0.25484 0.57411 0.65162 0.0
C697 C 0.29134 0.60517 0.68937 0.0
C698 C 0.32983 0.58859 0.63006 0.0
H699 H 0.43668 0.674 0.70597 0.0
H700 H 0.39895 0.65925 0.71079 0.0
H701 H 0.35698 0.58526 0.61768 0.0
H702 H 0.25129 0.54713 0.57169 0.0
H703 H 0.28907 0.56464 0.56329 0.0
H704 H 0.33066 0.64166 0.64936 0.0
C705 C 0.40376 0.65121 0.67046 0.0
C706 C 0.35139 0.59773 0.62404 0.0
C707 C 0.42532 0.65953 0.66799 0.0
C708 C 0.26227 0.56332 0.60506 0.0
C709 C 0.28396 0.57329 0.6006 0.0
C710 C 0.33622 0.62916 0.64326 0.0
C711 C 0.38856 0.63226 0.62273 0.0
C712 C 0.36562 0.62268 0.62775 0.0
C713 C 0.29881 0.59418 0.64316 0.0
C714 C 0.32193 0.60416 0.63922 0.0
H715 H 0.42192 0.62247 0.52894 0.0
H716 H 0.38402 0.60762 0.53367 0.0
H717 H 0.36847 0.65765 0.64039 0.0
H718 H 0.26413 0.60388 0.72969 0.0
H719 H 0.30235 0.62118 0.72332 0.0
C720 C 0.02957 0.20443 0.70501 0.0
C721 C 1.01876 0.21262 0.74502 0.0
C722 C 0.02599 0.20135 0.63282 0.0
C723 C 1.01241 0.18887 0.48145 0.0
H724 H 1.01142 0.24118 0.39692 0.0
C725 C 0.02563 0.20227 0.19319 0.0
C726 C 0.03688 0.22606 0.17565 0.0
C727 C 1.01875 0.19747 0.25933 0.0
C728 C 1.01192 0.22658 0.41985 0.0
H729 H 0.99493 0.22286 0.7419 0.0
H730 H 0.98815 0.2168 0.61467 0.0
H731 H 1.00662 0.23708 0.51997 0.0
H732 H 0.05028 0.26355 0.21219 0.0
H733 H 0.04006 0.25547 0.33061 0.0
H734 H 1.01996 0.17984 0.38385 0.0
C735 C 0.99979 0.21333 0.63926 0.0
C736 C 1.00867 0.22389 0.49011 0.0
C737 C 1.00365 0.2168 0.71188 0.0
C738 C 0.04179 0.2451 0.22541 0.0
C739 C 0.03553 0.24036 0.29253 0.0
C740 C 1.01628 0.19197 0.41189 0.0
C741 C 1.01123 0.20599 0.59901 0.0
C742 C 1.00973 0.20557 0.52222 0.0
C743 C 1.02359 0.21645 0.30986 0.0
C744 C 1.0168 0.21136 0.38092 0.0
H745 H 0.04144 0.20124 0.72921 0.0
H746 H 0.03554 0.19633 0.60359 0.0
H747 H 1.01271 0.17414 0.5043 0.0
H748 H 1.02114 0.18727 0.15462 0.0
H749 H 1.00921 0.17885 0.27006 0.0
C750 C 0.83973 0.87124 0.82878 0.0
C751 C 0.85899 0.88299 0.87157 0.0
C752 C 0.83967 0.87287 0.75704 0.0
C753 C 0.87314 0.89096 0.61074 0.0
H754 H 0.83518 0.91202 0.54288 0.0
C755 C 0.87976 0.92651 0.34429 0.0
C756 C 0.86062 0.91489 0.30091 0.0
C757 C 0.87959 0.92465 0.4159 0.0
C758 C 0.84577 0.90606 0.56114 0.0
H759 H 0.89334 0.90364 0.87232 0.0
H760 H 0.89317 0.90658 0.74713 0.0
H761 H 0.83415 0.9006 0.66183 0.0
H762 H 0.82623 0.89419 0.29903 0.0
H763 H 0.82601 0.89086 0.42402 0.0
H764 H 0.88477 0.89645 0.51009 0.0
C765 C 0.87815 0.89619 0.76901 0.0
C766 C 0.84508 0.89935 0.6288 0.0
C767 C 0.87822 0.89456 0.84076 0.0
C768 C 0.84126 0.90323 0.33105 0.0
C769 C 0.84111 0.90135 0.40268 0.0
C770 C 0.87383 0.89768 0.54309 0.0
C771 C 0.85886 0.8862 0.72712 0.0
C772 C 0.85876 0.89175 0.65411 0.0
C773 C 0.8603 0.91118 0.4451 0.0
C774 C 0.86019 0.90534 0.51786 0.0
H775 H 0.82464 0.8619 0.8509 0.0
H776 H 0.82461 0.86458 0.72537 0.0
H777 H 0.88374 0.88502 0.629 0.0
H778 H 0.89493 0.93594 0.3227 0.0
H779 H 0.89457 0.93284 0.44801 0.0
C780 C 0.18833 0.0661 0.65833 0.0
C781 C 0.20485 0.06587 0.69745 0.0
C782 C 0.18793 0.06567 0.58612 0.0
C783 C 0.21814 0.07076 0.43565 0.0
H784 H 0.16373 1.01815 0.35077 0.0
C785 C 0.20856 0.03361 0.15384 0.0
C786 C 0.1918 0.03262 0.11241 0.0
C787 C 0.20932 0.03618 0.22616 0.0
C788 C 0.17892 0.03297 0.37379 0.0
H789 H 0.23486 0.06728 0.6935 0.0
H790 H 0.234 0.06619 0.56659 0.0
H791 H 0.16819 1.03018 0.47546 0.0
H792 H 0.16177 1.03136 0.11338 0.0
H793 H 0.16318 0.036 0.24022 0.0
H794 H 0.22889 0.0734 0.33391 0.0
C795 C 0.22147 0.06684 0.59175 0.0
C796 C 0.18146 0.03998 0.44481 0.0
C797 C 0.22195 0.06743 0.66423 0.0
C798 C 0.1749 1.03215 0.14421 0.0
C799 C 0.1757 0.0348 0.2167 0.0
C800 C 0.2156 0.06375 0.36457 0.0
C801 C 0.20396 0.06485 0.55218 0.0
C802 C 0.20109 0.05888 0.47625 0.0
C803 C 0.19335 0.03782 0.25795 0.0
C804 C 0.19601 0.04471 0.33329 0.0
H805 H 0.17517 0.06536 0.68316 0.0
H806 H 0.17453 0.06471 0.55656 0.0
H807 H 0.23337 0.08546 0.45883 0.0
H808 H 0.22163 0.0336 0.13052 0.0
H809 H 0.22281 0.03788 0.25719 0.0
C810 C 0.67706 0.57882 0.60053 0.0
C811 C 0.67933 0.56079 0.56576 0.0
C812 C 0.67299 0.57768 0.67055 0.0
C813 C 0.6495 0.53302 0.79633 0.0
H814 H 0.67783 0.58775 0.93619 0.0
C815 C 0.65352 0.52587 0.09134 0.0
C816 C 0.65442 0.54432 0.13559 0.0
C817 C 0.65221 0.52668 0.01918 0.0
C818 C 0.66943 0.57241 0.89738 0.0
H819 H 0.68091 0.52863 0.57773 0.0
H820 H 0.67417 0.52693 0.70003 0.0
H821 H 0.6864 0.59319 0.81567 0.0
H822 H 0.65229 0.57653 0.13992 0.0
H823 H 0.64969 0.57771 0.01392 0.0
H824 H 0.63287 0.51212 0.87836 0.0
C825 C 0.67489 0.54148 0.67279 0.0
C826 C 0.67444 0.57553 0.82861 0.0
C827 C 0.67891 0.54258 0.60305 0.0
C828 C 0.65209 0.56236 0.1068 0.0
C829 C 0.65062 0.56307 0.03484 0.0
C830 C 0.64446 0.52989 0.86509 0.0
C831 C 0.67121 0.55854 0.70639 0.0
C832 C 0.66484 0.55575 0.77795 0.0
C833 C 0.65161 0.54584 -0.00937 0.0
C834 C 0.65468 0.54948 0.9164 0.0
H835 H 0.67721 0.59299 0.57282 0.0
H836 H 0.67026 0.59109 0.69562 0.0
H837 H 0.64156 0.51759 0.75763 0.0
H838 H 0.65525 0.51175 0.11239 0.0
H839 H 0.6531 0.51322 -0.01383 0.0
C840 C 0.54236 0.19925 0.64062 0.0
C841 C 0.52398 0.18469 0.59497 0.0
C842 C 0.54261 0.19528 0.71082 0.0
C843 C 0.50907 0.167 0.85067 0.0
H844 H 0.55774 0.16458 0.92746 0.0
C845 C 0.51333 0.14568 0.13019 0.0
C846 C 0.53212 0.16292 0.17025 0.0
C847 C 0.51242 0.14399 0.05767 0.0
C848 C 0.54408 0.16521 0.90662 0.0
H849 H 0.49107 0.15554 0.58771 0.0
H850 H 0.49155 0.14874 0.7107 0.0
H851 H 0.55546 0.17247 0.8057 0.0
H852 H 0.5652 0.19035 0.16673 0.0
H853 H 0.5635 0.18775 0.03972 0.0
H854 H 0.49789 0.16036 0.95165 0.0
C855 C 0.50573 0.16315 0.69197 0.0
C856 C 0.54283 0.16983 0.83729 0.0
C857 C 0.50547 0.1671 0.62165 0.0
C858 C 0.5505 0.17696 0.13696 0.0
C859 C 0.54953 0.17541 0.06426 0.0
C860 C 0.51034 0.16244 0.91995 0.0
C861 C 0.5245 0.17674 0.73654 0.0
C862 C 0.52544 0.17109 0.80912 0.0
C863 C 0.53022 0.15965 0.02413 0.0
C864 C 0.52797 0.16177 0.94877 0.0
H865 H 0.55683 0.21311 0.62173 0.0
H866 H 0.55713 0.20636 0.74469 0.0
H867 H 0.49559 0.16806 0.83022 0.0
H868 H 0.49903 0.13429 0.15471 0.0
H869 H 0.49749 0.13128 0.02782 0.0
C870 C 0.85574 0.41346 0.60311 0.0
C871 C 0.86229 0.39976 0.56502 0.0
C872 C 0.85492 0.41252 0.67465 0.0
C873 C 0.84398 0.36918 0.7977 0.0
H874 H 0.85843 0.42231 0.93569 0.0
C875 C 0.8425 0.36371 0.0926 0.0
C876 C 0.83701 0.37845 0.13086 0.0
C877 C 0.84266 0.36392 0.02068 0.0
C878 C 0.85398 0.40731 0.89719 0.0
H879 H 0.87499 0.37613 0.5715 0.0
H880 H 0.87347 0.37442 0.69756 0.0
H881 H 0.86946 0.43061 0.81833 0.0
H882 H 0.82498 0.40275 0.12376 0.0
H883 H 0.82523 0.403 -0.00257 0.0
H884 H 0.82848 0.34587 0.87662 0.0
C885 C 0.86876 0.38561 0.67163 0.0
C886 C 0.86052 0.41208 0.83068 0.0
C887 C 0.86972 0.38669 0.59993 0.0
C888 C 0.82963 0.39153 0.09559 0.0
C889 C 0.82981 0.39174 0.02354 0.0
C890 C 0.83743 0.36439 0.86426 0.0
C891 C 0.8606 0.3978 0.70873 0.0
C892 C 0.85554 0.39305 0.78062 0.0
C893 C 0.83728 0.37882 -0.01371 0.0
C894 C 0.84237 0.38344 0.9143 0.0
H895 H 0.85028 0.42401 0.57725 0.0
H896 H 0.84854 0.42203 0.7024 0.0
H897 H 0.83959 0.35421 0.75914 0.0
H898 H 0.84786 0.35306 0.1184 0.0
H899 H 0.84848 0.35381 -0.00714 0.0
C900 C 0.35267 0.85225 0.36935 0.0
C901 C 0.34638 0.86577 0.40986 0.0
C902 C 0.35656 0.85658 0.30014 0.0
C903 C 0.34626 0.88355 0.15266 0.0
H904 H 0.39728 0.88764 0.09108 0.0
C905 C 0.36666 0.90287 0.87502 0.0
C906 C 0.36916 0.88502 0.84008 0.0
C907 C 0.36824 0.90551 0.94763 0.0
C908 C 0.38306 0.88664 0.10784 0.0
H909 H 0.33816 0.89356 0.40871 0.0
H910 H 0.34503 0.90107 0.28811 0.0
H911 H 0.38914 0.88014 0.21173 0.0
H912 H 0.37729 0.85755 0.85338 0.0
H913 H 0.37965 0.8619 0.98006 0.0
H914 H 0.33986 0.88945 0.04869 0.0
C915 C 0.34692 0.88715 0.30984 0.0
C916 C 0.37832 0.88219 0.17643 0.0
C917 C 0.343 0.88281 0.37893 0.0
C918 C 0.37503 0.87127 0.87887 0.0
C919 C 0.37657 0.8739 0.95146 0.0
C920 C 0.351 0.88802 0.08422 0.0
C921 C 0.35419 0.87446 0.27046 0.0
C922 C 0.35969 0.88019 0.19894 0.0
C923 C 0.37234 0.89035 -0.01379 0.0
C924 C 0.36925 0.88921 0.06097 0.0
H925 H 0.35528 0.83889 0.39157 0.0
H926 H 0.36171 0.84619 0.27014 0.0
H927 H 0.33172 0.8819 0.16867 0.0
H928 H 0.36249 0.91404 0.84649 0.0
H929 H 0.36527 0.9186 0.97353 0.0
C930 C 0.14694 0.53352 0.89498 0.0
C931 C 0.16632 0.54284 0.86518 0.0
C932 C 0.14592 0.52954 0.96521 0.0
C933 C 0.17341 0.51717 0.10491 0.0
H934 H 0.13925 0.53083 0.22396 0.0
C935 C 0.18014 0.52152 0.40357 0.0
C936 C 0.16169 0.51447 0.43749 0.0
C937 C 0.17917 0.52022 0.33105 0.0
C938 C 0.14849 0.52645 0.19084 0.0
H939 H 0.2001 0.55683 0.88655 0.0
H940 H 0.19831 0.55022 0.01 0.0
H941 H 0.14183 0.54156 0.10429 0.0
H942 H 0.12745 0.49817 0.42235 0.0
H943 H 0.12581 0.49585 0.29532 0.0
H944 H 0.18041 0.50251 0.19226 0.0
C945 C 0.18387 0.54551 0.97833 0.0
C946 C 0.15009 0.53276 0.12264 0.0
C947 C 0.18491 0.54951 0.90792 0.0
C948 C 0.14199 0.50404 0.39766 0.0
C949 C 0.14103 0.50278 0.32506 0.0
C950 C 0.17185 0.51089 0.17328 0.0
C951 C 0.16426 0.53489 0.00697 0.0
C952 C 0.16271 0.52837 0.07932 0.0
C953 C 0.15973 0.51184 0.29144 0.0
C954 C 0.1595 0.51567 0.2169 0.0
H955 H 0.13233 0.52832 0.86355 0.0
H956 H 0.13059 0.52127 -0.01401 0.0
H957 H 0.18291 0.51316 0.07196 0.0
H958 H 0.19553 0.52931 0.43292 0.0
H959 H 0.19383 0.52737 0.30636 0.0
C960 C 0.54292 0.70825 0.3861 0.0
C961 C 0.52388 0.70032 0.41716 0.0
C962 C 0.54255 0.70408 0.31414 0.0
C963 C 0.50844 0.68811 0.14959 0.0
H964 H 0.54497 0.66614 0.08141 0.0
C965 C 0.50176 0.65979 0.86253 0.0
C966 C 0.52092 0.67384 0.83294 0.0
C967 C 0.50177 0.65833 0.93431 0.0
C968 C 0.53466 0.67215 0.10006 0.0
H969 H 0.48959 0.68265 0.39691 0.0
H970 H 0.48897 0.67509 0.27216 0.0
H971 H 0.54618 0.67561 0.2069 0.0
H972 H 0.55527 0.69501 0.85404 0.0
H973 H 0.55517 0.69255 0.97955 0.0
H974 H 0.49694 0.68472 0.0431 0.0
C975 C 0.5042 0.68475 0.30304 0.0
C976 C 0.53548 0.67779 0.1715 0.0
C977 C 0.50457 0.68906 0.37471 0.0
C978 C 0.54021 0.68434 0.87541 0.0
C979 C 0.5402 0.6828 0.94723 0.0
C980 C 0.50749 0.68227 0.07852 0.0
C981 C 0.52313 0.69185 0.27223 0.0
C982 C 0.52246 0.68598 0.19677 0.0
C983 C 0.52092 0.67077 0.97737 0.0
C984 C 0.52065 0.67437 0.05318 0.0
H985 H 0.55807 0.71708 0.41741 0.0
H986 H 0.55742 0.71017 0.29145 0.0
H987 H 0.49848 0.69474 0.16742 0.0
H988 H 0.48664 0.65114 0.83109 0.0
H989 H 0.48674 0.64862 0.95665 0.0
loop_
_geom_bond_atom_site_label_1
_geom_bond_atom_site_label_2
_geom_bond_distance
_geom_bond_site_symmetry_2
_ccdc_geom_bond_type
Tb0 O3 2.453 . S
Tb0 O4 2.637 . S
Tb0 O5 2.374 . S
Tb0 O13 2.343 1_655 S
Tb0 O15 2.353 1_554 S
Tb0 O17 2.427 . S
Tb0 O18 2.513 . S
C1 O5 1.251 1_455 S
C1 O7 1.263 . S
Tb2 O4 2.311 1_455 S
Tb2 O7 2.353 . S
Tb2 O10 2.427 . S
Tb2 O11 2.513 . S
Tb2 O12 2.453 . S
Tb2 O13 2.596 . S
Tb2 O14 2.374 1_554 S
O3 Tb0 2.453 . S
O3 C19 1.245 . S
O4 Tb0 2.637 . S
O4 Tb2 2.311 1_655 S
O4 C19 1.282 . S
O5 Tb0 2.374 . S
O5 C1 1.251 1_655 S
C6 O10 1.275 . S
C6 O11 1.246 . S
O7 C1 1.263 . S
O7 Tb2 2.353 . S
C8 O12 1.245 . S
C8 O13 1.259 . S
C9 O14 1.250 . S
C9 O15 1.263 1_455 S
O10 Tb2 2.427 . S
O10 C6 1.275 . S
O11 Tb2 2.513 . S
O11 C6 1.246 . S
O12 Tb2 2.453 . S
O12 C8 1.245 . S
O13 Tb0 2.343 1_455 S
O13 Tb2 2.596 . S
O13 C8 1.259 . S
O14 Tb2 2.374 1_556 S
O14 C9 1.250 . S
O15 Tb0 2.353 1_556 S
O15 C9 1.263 1_655 S
C16 O17 1.275 . S
C16 O18 1.246 . S
O17 Tb0 2.427 . S
O17 C16 1.275 . S
O18 Tb0 2.513 . S
O18 C16 1.246 . S
C19 O3 1.245 . S
C19 O4 1.282 . S
Tb20 O23 2.453 . S
Tb20 O24 2.596 . S
Tb20 O25 2.374 1_554 S
Tb20 O33 2.343 . S
Tb20 O35 2.353 . S
Tb20 O37 2.427 . S
Tb20 O38 2.513 . S
C21 O25 1.251 . S
C21 O27 1.263 . S
Tb22 O24 2.343 . S
Tb22 O27 2.353 1_554 S
Tb22 O30 2.427 . S
Tb22 O31 2.513 . S
Tb22 O32 2.453 . S
Tb22 O33 2.596 . S
Tb22 O34 2.374 . S
O23 Tb20 2.453 . S
O23 C39 1.245 . S
O24 Tb20 2.596 . S
O24 Tb22 2.343 . S
O24 C39 1.259 . S
O25 Tb20 2.374 1_556 S
O25 C21 1.251 . S
C26 O30 1.275 . S
C26 O31 1.246 . S
O27 C21 1.263 . S
O27 Tb22 2.353 1_556 S
C28 O32 1.245 . S
C28 O33 1.259 . S
C29 O34 1.250 . S
C29 O35 1.263 . S
O30 Tb22 2.427 . S
O30 C26 1.275 . S
O31 Tb22 2.513 . S
O31 C26 1.246 . S
O32 Tb22 2.453 . S
O32 C28 1.245 . S
O33 Tb20 2.343 . S
O33 Tb22 2.596 . S
O33 C28 1.259 . S
O34 Tb22 2.374 . S
O34 C29 1.250 . S
O35 Tb20 2.353 . S
O35 C29 1.263 . S
C36 O37 1.275 . S
C36 O38 1.246 . S
O37 Tb20 2.427 . S
O37 C36 1.275 . S
O38 Tb20 2.513 . S
O38 C36 1.246 . S
C39 O23 1.245 . S
C39 O24 1.259 . S
Tb40 O43 2.453 . S
Tb40 O44 2.596 . S
Tb40 O45 2.374 . S
Tb40 O53 2.343 1_554 S
Tb40 O55 2.353 1_554 S
Tb40 O57 2.427 1_554 S
Tb40 O58 2.513 . S
C41 O45 1.251 . S
C41 O47 1.263 1_545 S
Tb42 O44 2.343 1_566 S
Tb42 O47 2.353 1_556 S
Tb42 O50 2.427 1_556 S
Tb42 O51 2.513 . S
Tb42 O52 2.453 . S
Tb42 O53 2.596 1_565 S
Tb42 O54 2.374 . S
O43 Tb40 2.453 . S
O43 C59 1.245 . S
O44 Tb40 2.596 . S
O44 Tb42 2.343 1_544 S
O44 C59 1.259 . S
O45 Tb40 2.374 . S
O45 C41 1.251 . S
C46 O50 1.275 1_556 S
C46 O51 1.246 . S
O47 C41 1.263 1_565 S
O47 Tb42 2.353 1_554 S
C48 O52 1.245 . S
C48 O53 1.259 1_565 S
C49 O54 1.250 1_545 S
C49 O55 1.263 . S
O50 Tb42 2.427 1_554 S
O50 C46 1.275 1_554 S
O51 Tb42 2.513 . S
O51 C46 1.246 . S
O52 Tb42 2.453 . S
O52 C48 1.245 . S
O53 Tb40 2.343 1_556 S
O53 Tb42 2.596 1_545 S
O53 C48 1.259 1_545 S
O54 Tb42 2.374 . S
O54 C49 1.250 1_565 S
O55 Tb40 2.353 1_556 S
O55 C49 1.263 . S
C56 O57 1.275 1_554 S
C56 O58 1.246 . S
O57 Tb40 2.427 1_556 S
O57 C56 1.275 1_556 S
O58 Tb40 2.513 . S
O58 C56 1.246 . S
C59 O43 1.245 . S
C59 O44 1.259 . S
Tb60 O63 2.453 . S
Tb60 O64 2.596 . S
Tb60 O65 2.374 . S
Tb60 O73 2.343 . S
Tb60 O75 2.353 . S
Tb60 O77 2.427 . S
Tb60 O78 2.513 . S
C61 O65 1.251 . S
C61 O67 1.263 . S
Tb62 O64 2.343 . S
Tb62 O67 2.353 . S
Tb62 O70 2.427 . S
Tb62 O71 2.513 . S
Tb62 O72 2.453 . S
Tb62 O73 2.596 . S
Tb62 O74 2.374 . S
O63 Tb60 2.453 . S
O63 C79 1.245 . S
O64 Tb60 2.596 . S
O64 Tb62 2.343 . S
O64 C79 1.259 . S
O65 Tb60 2.374 . S
O65 C61 1.251 . S
C66 O70 1.275 . S
C66 O71 1.246 . S
O67 C61 1.263 . S
O67 Tb62 2.353 . S
C68 O72 1.245 . S
C68 O73 1.259 . S
C69 O74 1.250 . S
C69 O75 1.263 . S
O70 Tb62 2.427 . S
O70 C66 1.275 . S
O71 Tb62 2.513 . S
O71 C66 1.246 . S
O72 Tb62 2.453 . S
O72 C68 1.245 . S
O73 Tb60 2.343 . S
O73 Tb62 2.596 . S
O73 C68 1.259 . S
O74 Tb62 2.374 . S
O74 C69 1.250 . S
O75 Tb60 2.353 . S
O75 C69 1.263 . S
C76 O77 1.275 . S
C76 O78 1.246 . S
O77 Tb60 2.427 . S
O77 C76 1.275 . S
O78 Tb60 2.513 . S
O78 C76 1.246 . S
C79 O63 1.245 . S
C79 O64 1.259 . S
Tb80 O83 2.453 . S
Tb80 O84 2.596 . S
Tb80 O85 2.374 . S
Tb80 O93 2.343 . S
Tb80 O95 2.353 . S
Tb80 O97 2.427 . S
Tb80 O98 2.513 . S
C81 O85 1.251 . S
C81 O87 1.263 . S
Tb82 O84 2.343 . S
Tb82 O87 2.353 . S
Tb82 O90 2.427 . S
Tb82 O91 2.513 . S
Tb82 O92 2.453 . S
Tb82 O93 2.596 . S
Tb82 O94 2.374 . S
O83 Tb80 2.453 . S
O83 C99 1.245 . S
O84 Tb80 2.596 . S
O84 Tb82 2.343 . S
O84 C99 1.259 . S
O85 Tb80 2.374 . S
O85 C81 1.251 . S
C86 O90 1.275 . S
C86 O91 1.246 . S
O87 C81 1.263 . S
O87 Tb82 2.353 . S
C88 O92 1.245 . S
C88 O93 1.259 . S
C89 O94 1.250 . S
C89 O95 1.263 . S
O90 Tb82 2.427 . S
O90 C86 1.275 . S
O91 Tb82 2.513 . S
O91 C86 1.246 . S
O92 Tb82 2.453 . S
O92 C88 1.245 . S
O93 Tb80 2.343 . S
O93 Tb82 2.596 . S
O93 C88 1.259 . S
O94 Tb82 2.374 . S
O94 C89 1.250 . S
O95 Tb80 2.353 . S
O95 C89 1.263 . S
C96 O97 1.275 . S
C96 O98 1.246 . S
O97 Tb80 2.427 . S
O97 C96 1.275 . S
O98 Tb80 2.513 . S
O98 C96 1.246 . S
C99 O83 1.245 . S
C99 O84 1.259 . S
Tb100 O103 2.453 . S
Tb100 O104 2.596 . S
Tb100 O105 2.374 . S
Tb100 O113 2.343 . S
Tb100 O115 2.353 . S
Tb100 O117 2.427 . S
Tb100 O118 2.513 . S
C101 O105 1.251 . S
C101 O107 1.263 . S
Tb102 O104 2.343 . S
Tb102 O107 2.353 . S
Tb102 O110 2.427 . S
Tb102 O111 2.513 . S
Tb102 O112 2.453 . S
Tb102 O113 2.596 . S
Tb102 O114 2.374 . S
O103 Tb100 2.453 . S
O103 C119 1.245 . S
O104 Tb100 2.596 . S
O104 Tb102 2.343 . S
O104 C119 1.259 . S
O105 Tb100 2.374 . S
O105 C101 1.251 . S
C106 O110 1.275 . S
C106 O111 1.246 . S
O107 C101 1.263 . S
O107 Tb102 2.353 . S
C108 O112 1.245 . S
C108 O113 1.259 . S
C109 O114 1.250 . S
C109 O115 1.263 . S
O110 Tb102 2.427 . S
O110 C106 1.275 . S
O111 Tb102 2.513 . S
O111 C106 1.246 . S
O112 Tb102 2.453 . S
O112 C108 1.245 . S
O113 Tb100 2.343 . S
O113 Tb102 2.596 . S
O113 C108 1.259 . S
O114 Tb102 2.374 . S
O114 C109 1.250 . S
O115 Tb100 2.353 . S
O115 C109 1.263 . S
C116 O117 1.275 . S
C116 O118 1.246 . S
O117 Tb100 2.427 . S
O117 C116 1.275 . S
O118 Tb100 2.513 . S
O118 C116 1.246 . S
C119 O103 1.245 . S
C119 O104 1.259 . S
Tb120 O123 2.453 . S
Tb120 O124 2.596 . S
Tb120 O125 2.374 . S
Tb120 O133 2.343 . S
Tb120 O135 2.353 . S
Tb120 O137 2.427 . S
Tb120 O138 2.513 . S
C121 O125 1.251 . S
C121 O127 1.263 . S
Tb122 O124 2.343 . S
Tb122 O127 2.353 . S
Tb122 O130 2.427 . S
Tb122 O131 2.513 . S
Tb122 O132 2.453 . S
Tb122 O133 2.596 . S
Tb122 O134 2.374 . S
O123 Tb120 2.453 . S
O123 C139 1.245 . S
O124 Tb120 2.596 . S
O124 Tb122 2.343 . S
O124 C139 1.259 . S
O125 Tb120 2.374 . S
O125 C121 1.251 . S
C126 O130 1.275 . S
C126 O131 1.246 . S
O127 C121 1.263 . S
O127 Tb122 2.353 . S
C128 O132 1.245 . S
C128 O133 1.259 . S
C129 O134 1.250 . S
C129 O135 1.263 . S
O130 Tb122 2.427 . S
O130 C126 1.275 . S
O131 Tb122 2.513 . S
O131 C126 1.246 . S
O132 Tb122 2.453 . S
O132 C128 1.245 . S
O133 Tb120 2.343 . S
O133 Tb122 2.596 . S
O133 C128 1.259 . S
O134 Tb122 2.374 . S
O134 C129 1.250 . S
O135 Tb120 2.353 . S
O135 C129 1.263 . S
C136 O137 1.275 . S
C136 O138 1.246 . S
O137 Tb120 2.427 . S
O137 C136 1.275 . S
O138 Tb120 2.513 . S
O138 C136 1.246 . S
C139 O123 1.245 . S
C139 O124 1.259 . S
Tb140 O143 2.453 . S
Tb140 O144 2.596 . S
Tb140 O145 2.374 . S
Tb140 O153 2.343 . S
Tb140 O155 2.353 . S
Tb140 O157 2.427 . S
Tb140 O158 2.513 . S
C141 O145 1.251 . S
C141 O147 1.263 . S
Tb142 O144 2.343 . S
Tb142 O147 2.353 . S
Tb142 O150 2.427 . S
Tb142 O151 2.513 . S
Tb142 O152 2.453 . S
Tb142 O153 2.596 . S
Tb142 O154 2.374 . S
O143 Tb140 2.453 . S
O143 C159 1.245 . S
O144 Tb140 2.596 . S
O144 Tb142 2.343 . S
O144 C159 1.259 . S
O145 Tb140 2.374 . S
O145 C141 1.251 . S
C146 O150 1.275 . S
C146 O151 1.246 . S
O147 C141 1.263 . S
O147 Tb142 2.353 . S
C148 O152 1.245 . S
C148 O153 1.259 . S
C149 O154 1.250 . S
C149 O155 1.263 . S
O150 Tb142 2.427 . S
O150 C146 1.275 . S
O151 Tb142 2.513 . S
O151 C146 1.246 . S
O152 Tb142 2.453 . S
O152 C148 1.245 . S
O153 Tb140 2.343 . S
O153 Tb142 2.596 . S
O153 C148 1.259 . S
O154 Tb142 2.374 . S
O154 C149 1.250 . S
O155 Tb140 2.353 . S
O155 C149 1.263 . S
C156 O157 1.275 . S
C156 O158 1.246 . S
O157 Tb140 2.427 . S
O157 C156 1.275 . S
O158 Tb140 2.513 . S
O158 C156 1.246 . S
C159 O143 1.245 . S
C159 O144 1.259 . S
Tb160 O163 2.453 . S
Tb160 O164 2.596 . S
Tb160 O165 2.374 . S
Tb160 O173 2.343 . S
Tb160 O175 2.353 . S
Tb160 O177 2.427 . S
Tb160 O178 2.513 . S
C161 O165 1.251 . S
C161 O167 1.263 . S
Tb162 O164 2.343 . S
Tb162 O167 2.353 . S
Tb162 O170 2.427 . S
Tb162 O171 2.513 . S
Tb162 O172 2.453 . S
Tb162 O173 2.596 . S
Tb162 O174 2.374 . S
O163 Tb160 2.453 . S
O163 C179 1.245 . S
O164 Tb160 2.596 . S
O164 Tb162 2.343 . S
O164 C179 1.259 . S
O165 Tb160 2.374 . S
O165 C161 1.251 . S
C166 O170 1.275 . S
C166 O171 1.246 . S
O167 C161 1.263 . S
O167 Tb162 2.353 . S
C168 O172 1.245 . S
C168 O173 1.259 . S
C169 O174 1.250 . S
C169 O175 1.263 . S
O170 Tb162 2.427 . S
O170 C166 1.275 . S
O171 Tb162 2.513 . S
O171 C166 1.246 . S
O172 Tb162 2.453 . S
O172 C168 1.245 . S
O173 Tb160 2.343 . S
O173 Tb162 2.596 . S
O173 C168 1.259 . S
O174 Tb162 2.374 . S
O174 C169 1.250 . S
O175 Tb160 2.353 . S
O175 C169 1.263 . S
C176 O177 1.275 . S
C176 O178 1.246 . S
O177 Tb160 2.427 . S
O177 C176 1.275 . S
O178 Tb160 2.513 . S
O178 C176 1.246 . S
C179 O163 1.245 . S
C179 O164 1.259 . S
C180 C181 1.349 1_556 S
C180 C182 1.327 . S
C180 H205 0.950 . S
C181 C180 1.349 1_554 S
C181 C197 1.349 . S
C182 C180 1.327 . S
C182 C201 1.429 . S
C182 H206 0.950 . S
C183 C200 1.574 . S
C183 C202 1.368 . S
C183 H207 0.949 1_556 S
H184 C188 0.949 . S
C185 C186 1.349 . S
C185 C187 1.327 . S
C185 H208 0.950 . S
C186 C185 1.349 . S
C186 C198 1.349 . S
C187 C185 1.327 . S
C187 C203 1.429 . S
C187 H209 0.950 . S
C188 H184 0.949 . S
C188 C196 1.574 . S
C188 C204 1.368 . S
H189 C197 0.950 . S
H190 C195 0.950 . S
H191 C196 0.949 . S
H192 C198 0.950 . S
H193 C199 0.950 . S
H194 C200 0.949 . S
C195 H190 0.950 . S
C195 C197 1.327 . S
C195 C201 1.429 1_554 S
C196 C188 1.574 . S
C196 H191 0.949 . S
C196 C202 1.368 . S
C197 C181 1.349 . S
C197 H189 0.950 . S
C197 C195 1.327 . S
C198 C186 1.349 . S
C198 H192 0.950 . S
C198 C199 1.327 . S
C199 H193 0.950 . S
C199 C198 1.327 . S
C199 C203 1.429 . S
C200 C183 1.574 . S
C200 H194 0.949 . S
C200 C204 1.368 . S
C201 C182 1.429 . S
C201 C195 1.429 1_556 S
C201 C202 1.523 . S
C202 C183 1.368 . S
C202 C196 1.368 . S
C202 C201 1.523 . S
C203 C187 1.429 . S
C203 C199 1.429 . S
C203 C204 1.523 . S
C204 C188 1.368 . S
C204 C200 1.368 . S
C204 C203 1.523 . S
H205 C180 0.950 . S
H206 C182 0.950 . S
H207 C183 0.949 1_554 S
H208 C185 0.950 . S
H209 C187 0.950 . S
C210 C211 1.349 1_556 S
C210 C212 1.327 . S
C210 H235 0.950 . S
C211 C210 1.349 1_554 S
C211 C227 1.349 . S
C212 C210 1.327 . S
C212 C231 1.429 . S
C212 H236 0.950 . S
C213 C230 1.574 . S
C213 C232 1.368 . S
C213 H237 0.949 1_556 S
H214 C218 0.949 . S
C215 C216 1.349 . S
C215 C217 1.327 . S
C215 H238 0.950 . S
C216 C215 1.349 . S
C216 C228 1.349 . S
C217 C215 1.327 . S
C217 C233 1.429 . S
C217 H239 0.950 . S
C218 H214 0.949 . S
C218 C226 1.574 . S
C218 C234 1.368 . S
H219 C227 0.950 . S
H220 C225 0.950 . S
H221 C226 0.949 . S
H222 C228 0.950 . S
H223 C229 0.950 . S
H224 C230 0.949 . S
C225 H220 0.950 . S
C225 C227 1.327 . S
C225 C231 1.429 1_554 S
C226 C218 1.574 . S
C226 H221 0.949 . S
C226 C232 1.368 . S
C227 C211 1.349 . S
C227 H219 0.950 . S
C227 C225 1.327 . S
C228 C216 1.349 . S
C228 H222 0.950 . S
C228 C229 1.327 . S
C229 H223 0.950 . S
C229 C228 1.327 . S
C229 C233 1.429 . S
C230 C213 1.574 . S
C230 H224 0.949 . S
C230 C234 1.368 . S
C231 C212 1.429 . S
C231 C225 1.429 1_556 S
C231 C232 1.523 . S
C232 C213 1.368 . S
C232 C226 1.368 . S
C232 C231 1.523 . S
C233 C217 1.429 . S
C233 C229 1.429 . S
C233 C234 1.523 . S
C234 C218 1.368 . S
C234 C230 1.368 . S
C234 C233 1.523 . S
H235 C210 0.950 . S
H236 C212 0.950 . S
H237 C213 0.949 1_554 S
H238 C215 0.950 . S
H239 C217 0.950 . S
C240 C241 1.349 . S
C240 C242 1.327 . S
C240 H265 0.950 1_556 S
C241 C240 1.349 . S
C241 C257 1.349 . S
C242 C240 1.327 . S
C242 C261 1.429 . S
C242 H266 0.950 . S
C243 C260 1.574 . S
C243 C262 1.368 . S
C243 H267 0.949 . S
H244 C248 0.949 . S
C245 C246 1.349 . S
C245 C247 1.327 . S
C245 H268 0.950 . S
C246 C245 1.349 . S
C246 C258 1.349 . S
C247 C245 1.327 . S
C247 C263 1.429 . S
C247 H269 0.950 . S
C248 H244 0.949 . S
C248 C256 1.574 . S
C248 C264 1.368 . S
H249 C257 0.950 . S
H250 C255 0.950 . S
H251 C256 0.949 . S
H252 C258 0.950 . S
H253 C259 0.950 . S
H254 C260 0.949 . S
C255 H250 0.950 . S
C255 C257 1.327 . S
C255 C261 1.429 . S
C256 C248 1.574 . S
C256 H251 0.949 . S
C256 C262 1.368 . S
C257 C241 1.349 . S
C257 H249 0.950 . S
C257 C255 1.327 . S
C258 C246 1.349 . S
C258 H252 0.950 . S
C258 C259 1.327 . S
C259 H253 0.950 . S
C259 C258 1.327 . S
C259 C263 1.429 . S
C260 C243 1.574 . S
C260 H254 0.949 . S
C260 C264 1.368 . S
C261 C242 1.429 . S
C261 C255 1.429 . S
C261 C262 1.523 . S
C262 C243 1.368 . S
C262 C256 1.368 . S
C262 C261 1.523 . S
C263 C247 1.429 . S
C263 C259 1.429 . S
C263 C264 1.523 . S
C264 C248 1.368 . S
C264 C260 1.368 . S
C264 C263 1.523 . S
H265 C240 0.950 1_554 S
H266 C242 0.950 . S
H267 C243 0.949 . S
H268 C245 0.950 . S
H269 C247 0.950 . S
C270 C271 1.349 . S
C270 C272 1.327 . S
C270 H295 0.950 . S
C271 C270 1.349 . S
C271 C287 1.349 . S
C272 C270 1.327 . S
C272 C291 1.429 . S
C272 H296 0.950 . S
C273 C290 1.574 . S
C273 C292 1.368 . S
C273 H297 0.949 . S
H274 C278 0.949 . S
C275 C276 1.349 . S
C275 C277 1.327 . S
C275 H298 0.950 . S
C276 C275 1.349 . S
C276 C288 1.349 1_554 S
C277 C275 1.327 . S
C277 C293 1.429 . S
C277 H299 0.950 . S
C278 H274 0.949 . S
C278 C286 1.574 . S
C278 C294 1.368 . S
H279 C287 0.950 . S
H280 C285 0.950 . S
H281 C286 0.949 . S
H282 C288 0.950 . S
H283 C289 0.950 1_556 S
H284 C290 0.949 . S
C285 H280 0.950 . S
C285 C287 1.327 . S
C285 C291 1.429 . S
C286 C278 1.574 . S
C286 H281 0.949 . S
C286 C292 1.368 . S
C287 C271 1.349 . S
C287 H279 0.950 . S
C287 C285 1.327 . S
C288 C276 1.349 1_556 S
C288 H282 0.950 . S
C288 C289 1.327 1_556 S
C289 H283 0.950 1_554 S
C289 C288 1.327 1_554 S
C289 C293 1.429 . S
C290 C273 1.574 . S
C290 H284 0.949 . S
C290 C294 1.368 . S
C291 C272 1.429 . S
C291 C285 1.429 . S
C291 C292 1.523 . S
C292 C273 1.368 . S
C292 C286 1.368 . S
C292 C291 1.523 . S
C293 C277 1.429 . S
C293 C289 1.429 . S
C293 C294 1.523 . S
C294 C278 1.368 . S
C294 C290 1.368 . S
C294 C293 1.523 . S
H295 C270 0.950 . S
H296 C272 0.950 . S
H297 C273 0.949 . S
H298 C275 0.950 . S
H299 C277 0.950 . S
C300 C301 1.349 . S
C300 C302 1.327 . S
C300 H325 0.950 . S
C301 C300 1.349 . S
C301 C317 1.349 . S
C302 C300 1.327 . S
C302 C321 1.429 . S
C302 H326 0.950 . S
C303 C320 1.574 . S
C303 C322 1.368 . S
C303 H327 0.949 . S
H304 C308 0.949 . S
C305 C306 1.349 . S
C305 C307 1.327 . S
C305 H328 0.950 1_554 S
C306 C305 1.349 . S
C306 C318 1.349 . S
C307 C305 1.327 . S
C307 C323 1.429 . S
C307 H329 0.950 . S
C308 H304 0.949 . S
C308 C316 1.574 . S
C308 C324 1.368 . S
H309 C317 0.950 . S
H310 C315 0.950 . S
H311 C316 0.949 . S
H312 C318 0.950 . S
H313 C319 0.950 . S
H314 C320 0.949 . S
C315 H310 0.950 . S
C315 C317 1.327 . S
C315 C321 1.429 . S
C316 C308 1.574 . S
C316 H311 0.949 . S
C316 C322 1.368 . S
C317 C301 1.349 . S
C317 H309 0.950 . S
C317 C315 1.327 . S
C318 C306 1.349 . S
C318 H312 0.950 . S
C318 C319 1.327 . S
C319 H313 0.950 . S
C319 C318 1.327 . S
C319 C323 1.429 . S
C320 C303 1.574 . S
C320 H314 0.949 . S
C320 C324 1.368 . S
C321 C302 1.429 . S
C321 C315 1.429 . S
C321 C322 1.523 . S
C322 C303 1.368 . S
C322 C316 1.368 . S
C322 C321 1.523 . S
C323 C307 1.429 . S
C323 C319 1.429 . S
C323 C324 1.523 . S
C324 C308 1.368 . S
C324 C320 1.368 . S
C324 C323 1.523 . S
H325 C300 0.950 . S
H326 C302 0.950 . S
H327 C303 0.949 . S
H328 C305 0.950 1_556 S
H329 C307 0.950 . S
C330 C331 1.349 . S
C330 C332 1.327 . S
C330 H355 0.950 . S
C331 C330 1.349 . S
C331 C347 1.349 . S
C332 C330 1.327 . S
C332 C351 1.429 . S
C332 H356 0.950 . S
C333 C350 1.574 . S
C333 C352 1.368 . S
C333 H357 0.949 . S
H334 C338 0.949 . S
C335 C336 1.349 . S
C335 C337 1.327 . S
C335 H358 0.950 . S
C336 C335 1.349 . S
C336 C348 1.349 . S
C337 C335 1.327 . S
C337 C353 1.429 . S
C337 H359 0.950 . S
C338 H334 0.949 . S
C338 C346 1.574 . S
C338 C354 1.368 . S
H339 C347 0.950 . S
H340 C345 0.950 . S
H341 C346 0.949 . S
H342 C348 0.950 . S
H343 C349 0.950 . S
H344 C350 0.949 . S
C345 H340 0.950 . S
C345 C347 1.327 . S
C345 C351 1.429 . S
C346 C338 1.574 . S
C346 H341 0.949 . S
C346 C352 1.368 . S
C347 C331 1.349 . S
C347 H339 0.950 . S
C347 C345 1.327 . S
C348 C336 1.349 . S
C348 H342 0.950 . S
C348 C349 1.327 . S
C349 H343 0.950 . S
C349 C348 1.327 . S
C349 C353 1.429 . S
C350 C333 1.574 . S
C350 H344 0.949 . S
C350 C354 1.368 . S
C351 C332 1.429 . S
C351 C345 1.429 . S
C351 C352 1.523 . S
C352 C333 1.368 . S
C352 C346 1.368 . S
C352 C351 1.523 . S
C353 C337 1.429 . S
C353 C349 1.429 . S
C353 C354 1.523 . S
C354 C338 1.368 . S
C354 C350 1.368 . S
C354 C353 1.523 . S
H355 C330 0.950 . S
H356 C332 0.950 . S
H357 C333 0.949 . S
H358 C335 0.950 . S
H359 C337 0.950 . S
C360 C361 1.349 . S
C360 C362 1.327 . S
C360 H385 0.950 . S
C361 C360 1.349 . S
C361 C377 1.349 . S
C362 C360 1.327 . S
C362 C381 1.429 . S
C362 H386 0.950 . S
C363 C380 1.574 . S
C363 C382 1.368 . S
C363 H387 0.949 . S
H364 C368 0.949 . S
C365 C366 1.349 . S
C365 C367 1.327 . S
C365 H388 0.950 . S
C366 C365 1.349 . S
C366 C378 1.349 . S
C367 C365 1.327 . S
C367 C383 1.429 . S
C367 H389 0.950 . S
C368 H364 0.949 . S
C368 C376 1.574 . S
C368 C384 1.368 . S
H369 C377 0.950 . S
H370 C375 0.950 . S
H371 C376 0.949 1_455 S
H372 C378 0.950 . S
H373 C379 0.950 . S
H374 C380 0.949 . S
C375 H370 0.950 . S
C375 C377 1.327 . S
C375 C381 1.429 . S
C376 C368 1.574 . S
C376 H371 0.949 1_655 S
C376 C382 1.368 . S
C377 C361 1.349 . S
C377 H369 0.950 . S
C377 C375 1.327 . S
C378 C366 1.349 . S
C378 H372 0.950 . S
C378 C379 1.327 . S
C379 H373 0.950 . S
C379 C378 1.327 . S
C379 C383 1.429 . S
C380 C363 1.574 . S
C380 H374 0.949 . S
C380 C384 1.368 . S
C381 C362 1.429 . S
C381 C375 1.429 . S
C381 C382 1.523 1_455 S
C382 C363 1.368 . S
C382 C376 1.368 . S
C382 C381 1.523 1_655 S
C383 C367 1.429 . S
C383 C379 1.429 . S
C383 C384 1.523 . S
C384 C368 1.368 . S
C384 C380 1.368 . S
C384 C383 1.523 . S
H385 C360 0.950 . S
H386 C362 0.950 . S
H387 C363 0.949 . S
H388 C365 0.950 . S
H389 C367 0.950 . S
C390 C391 1.349 . S
C390 C392 1.327 . S
C390 H415 0.950 . S
C391 C390 1.349 . S
C391 C407 1.349 . S
C392 C390 1.327 . S
C392 C411 1.429 . S
C392 H416 0.950 . S
C393 C410 1.574 . S
C393 C412 1.368 . S
C393 H417 0.949 . S
H394 C398 0.949 . S
C395 C396 1.349 . S
C395 C397 1.327 . S
C395 H418 0.950 . S
C396 C395 1.349 . S
C396 C408 1.349 . S
C397 C395 1.327 . S
C397 C413 1.429 . S
C397 H419 0.950 . S
C398 H394 0.949 . S
C398 C406 1.574 . S
C398 C414 1.368 . S
H399 C407 0.950 . S
H400 C405 0.950 . S
H401 C406 0.949 . S
H402 C408 0.950 . S
H403 C409 0.950 . S
H404 C410 0.949 . S
C405 H400 0.950 . S
C405 C407 1.327 . S
C405 C411 1.429 . S
C406 C398 1.574 . S
C406 H401 0.949 . S
C406 C412 1.368 . S
C407 C391 1.349 . S
C407 H399 0.950 . S
C407 C405 1.327 . S
C408 C396 1.349 . S
C408 H402 0.950 . S
C408 C409 1.327 . S
C409 H403 0.950 . S
C409 C408 1.327 . S
C409 C413 1.429 . S
C410 C393 1.574 . S
C410 H404 0.949 . S
C410 C414 1.368 . S
C411 C392 1.429 . S
C411 C405 1.429 . S
C411 C412 1.523 . S
C412 C393 1.368 . S
C412 C406 1.368 . S
C412 C411 1.523 . S
C413 C397 1.429 . S
C413 C409 1.429 . S
C413 C414 1.523 . S
C414 C398 1.368 . S
C414 C410 1.368 . S
C414 C413 1.523 . S
H415 C390 0.950 . S
H416 C392 0.950 . S
H417 C393 0.949 . S
H418 C395 0.950 . S
H419 C397 0.950 . S
C420 C421 1.349 . S
C420 C422 1.327 . S
C420 H445 0.950 . S
C421 C420 1.349 . S
C421 C437 1.349 . S
C422 C420 1.327 . S
C422 C441 1.429 . S
C422 H446 0.950 . S
C423 C440 1.574 1_545 S
C423 C442 1.368 . S
C423 H447 0.949 . S
H424 C428 0.949 . S
C425 C426 1.349 . S
C425 C427 1.327 . S
C425 H448 0.950 . S
C426 C425 1.349 . S
C426 C438 1.349 . S
C427 C425 1.327 . S
C427 C443 1.429 . S
C427 H449 0.950 . S
C428 H424 0.949 . S
C428 C436 1.574 1_565 S
C428 C444 1.368 . S
H429 C437 0.950 . S
H430 C435 0.950 . S
H431 C436 0.949 . S
H432 C438 0.950 . S
H433 C439 0.950 . S
H434 C440 0.949 . S
C435 H430 0.950 . S
C435 C437 1.327 . S
C435 C441 1.429 . S
C436 C428 1.574 1_545 S
C436 H431 0.949 . S
C436 C442 1.368 . S
C437 C421 1.349 . S
C437 H429 0.950 . S
C437 C435 1.327 . S
C438 C426 1.349 . S
C438 H432 0.950 . S
C438 C439 1.327 . S
C439 H433 0.950 . S
C439 C438 1.327 . S
C439 C443 1.429 . S
C440 C423 1.574 1_565 S
C440 H434 0.949 . S
C440 C444 1.368 . S
C441 C422 1.429 . S
C441 C435 1.429 . S
C441 C442 1.523 . S
C442 C423 1.368 . S
C442 C436 1.368 . S
C442 C441 1.523 . S
C443 C427 1.429 . S
C443 C439 1.429 . S
C443 C444 1.523 . S
C444 C428 1.368 . S
C444 C440 1.368 . S
C444 C443 1.523 . S
H445 C420 0.950 . S
H446 C422 0.950 . S
H447 C423 0.949 . S
H448 C425 0.950 . S
H449 C427 0.950 . S
C450 C451 1.349 1_556 S
C450 C452 1.327 . S
C450 H475 0.950 . S
C451 C450 1.349 1_554 S
C451 C467 1.349 . S
C452 C450 1.327 . S
C452 C471 1.429 1_556 S
C452 H476 0.950 . S
C453 C470 1.574 . S
C453 C472 1.368 . S
C453 H477 0.949 . S
H454 C458 0.949 . S
C455 C456 1.349 . S
C455 C457 1.327 . S
C455 H478 0.950 . S
C456 C455 1.349 . S
C456 C468 1.349 . S
C457 C455 1.327 . S
C457 C473 1.429 . S
C457 H479 0.950 . S
C458 H454 0.949 . S
C458 C466 1.574 . S
C458 C474 1.368 1_556 S
H459 C467 0.950 . S
H460 C465 0.950 . S
H461 C466 0.949 . S
H462 C468 0.950 1_556 S
H463 C469 0.950 1_556 S
H464 C470 0.949 . S
C465 H460 0.950 . S
C465 C467 1.327 . S
C465 C471 1.429 . S
C466 C458 1.574 . S
C466 H461 0.949 . S
C466 C472 1.368 1_556 S
C467 C451 1.349 . S
C467 H459 0.950 . S
C467 C465 1.327 . S
C468 C456 1.349 . S
C468 H462 0.950 1_554 S
C468 C469 1.327 . S
C469 H463 0.950 1_554 S
C469 C468 1.327 . S
C469 C473 1.429 . S
C470 C453 1.574 . S
C470 H464 0.949 . S
C470 C474 1.368 . S
C471 C452 1.429 1_554 S
C471 C465 1.429 . S
C471 C472 1.523 . S
C472 C453 1.368 . S
C472 C466 1.368 1_554 S
C472 C471 1.523 . S
C473 C457 1.429 . S
C473 C469 1.429 . S
C473 C474 1.523 . S
C474 C458 1.368 1_554 S
C474 C470 1.368 . S
C474 C473 1.523 . S
H475 C450 0.950 . S
H476 C452 0.950 . S
H477 C453 0.949 . S
H478 C455 0.950 . S
H479 C457 0.950 . S
C480 C481 1.349 . S
C480 C482 1.327 . S
C480 H505 0.950 . S
C481 C480 1.349 . S
C481 C497 1.349 . S
C482 C480 1.327 . S
C482 C501 1.429 . S
C482 H506 0.950 . S
C483 C500 1.574 . S
C483 C502 1.368 1_545 S
C483 H507 0.943 1_544 S
H484 C488 0.949 . S
C485 C486 1.349 . S
C485 C487 1.327 . S
C485 H508 0.950 1_554 S
C486 C485 1.349 . S
C486 C498 1.349 . S
C487 C485 1.327 . S
C487 C503 1.429 . S
C487 H509 0.950 1_554 S
C488 H484 0.949 . S
C488 C496 1.574 . S
C488 C504 1.368 . S
H489 C497 0.950 1_556 S
H490 C495 0.950 1_556 S
H491 C496 0.949 1_565 S
H492 C498 0.950 . S
H493 C499 0.950 . S
H494 C500 0.949 1_556 S
C495 H490 0.950 1_554 S
C495 C497 1.327 . S
C495 C501 1.429 . S
C496 C488 1.574 . S
C496 H491 0.949 1_545 S
C496 C502 1.368 1_545 S
C497 C481 1.349 . S
C497 H489 0.950 1_554 S
C497 C495 1.327 . S
C498 C486 1.349 . S
C498 H492 0.950 . S
C498 C499 1.327 . S
C499 H493 0.950 . S
C499 C498 1.327 . S
C499 C503 1.429 . S
C500 C483 1.574 . S
C500 H494 0.949 1_554 S
C500 C504 1.368 . S
C501 C482 1.429 . S
C501 C495 1.429 . S
C501 C502 1.523 . S
C502 C483 1.368 1_565 S
C502 C496 1.368 1_565 S
C502 C501 1.523 . S
C503 C487 1.429 . S
C503 C499 1.429 . S
C503 C504 1.523 . S
C504 C488 1.368 . S
C504 C500 1.368 . S
C504 C503 1.523 . S
H505 C480 0.950 . S
H506 C482 0.950 . S
H507 C483 0.943 1_566 S
H508 C485 0.950 1_556 S
H509 C487 0.950 1_556 S
C510 C511 1.349 . S
C510 C512 1.327 . S
C510 H535 0.950 . S
C511 C510 1.349 . S
C511 C527 1.349 . S
C512 C510 1.327 . S
C512 C531 1.429 . S
C512 H536 0.950 . S
C513 C530 1.574 1_655 S
C513 C532 1.368 1_556 S
C513 H537 0.949 . S
H514 C518 0.949 . S
C515 C516 1.349 . S
C515 C517 1.327 . S
C515 H538 0.950 . S
C516 C515 1.349 . S
C516 C528 1.349 1_556 S
C517 C515 1.327 . S
C517 C533 1.429 1_556 S
C517 H539 0.950 . S
C518 H514 0.949 . S
C518 C526 1.574 1_455 S
C518 C534 1.368 . S
H519 C527 0.950 1_556 S
H520 C525 0.950 1_556 S
H521 C526 0.949 . S
H522 C528 0.950 . S
H523 C529 0.950 . S
H524 C530 0.949 . S
C525 H520 0.950 1_554 S
C525 C527 1.327 . S
C525 C531 1.429 . S
C526 C518 1.574 1_655 S
C526 H521 0.949 . S
C526 C532 1.368 . S
C527 C511 1.349 . S
C527 H519 0.950 1_554 S
C527 C525 1.327 . S
C528 C516 1.349 1_554 S
C528 H522 0.950 . S
C528 C529 1.327 . S
C529 H523 0.950 . S
C529 C528 1.327 . S
C529 C533 1.429 . S
C530 C513 1.574 1_455 S
C530 H524 0.949 . S
C530 C534 1.368 1_556 S
C531 C512 1.429 . S
C531 C525 1.429 . S
C531 C532 1.523 . S
C532 C513 1.368 1_554 S
C532 C526 1.368 . S
C532 C531 1.523 . S
C533 C517 1.429 1_554 S
C533 C529 1.429 . S
C533 C534 1.523 . S
C534 C518 1.368 . S
C534 C530 1.368 1_554 S
C534 C533 1.523 . S
H535 C510 0.950 . S
H536 C512 0.950 . S
H537 C513 0.949 . S
H538 C515 0.950 . S
H539 C517 0.950 . S
C540 C541 1.349 . S
C540 C542 1.327 . S
C540 H565 0.950 . S
C541 C540 1.349 . S
C541 C557 1.349 . S
C542 C540 1.327 . S
C542 C561 1.429 . S
C542 H566 0.950 . S
C543 C560 1.574 . S
C543 C562 1.368 . S
C543 H567 0.949 . S
H544 C548 0.949 . S
C545 C546 1.349 . S
C545 C547 1.327 . S
C545 H568 0.950 . S
C546 C545 1.349 . S
C546 C558 1.349 . S
C547 C545 1.327 . S
C547 C563 1.429 . S
C547 H569 0.950 . S
C548 H544 0.949 . S
C548 C556 1.574 . S
C548 C564 1.368 . S
H549 C557 0.950 . S
H550 C555 0.950 . S
H551 C556 0.949 . S
H552 C558 0.950 . S
H553 C559 0.950 . S
H554 C560 0.949 . S
C555 H550 0.950 . S
C555 C557 1.327 . S
C555 C561 1.429 . S
C556 C548 1.574 . S
C556 H551 0.949 . S
C556 C562 1.368 . S
C557 C541 1.349 . S
C557 H549 0.950 . S
C557 C555 1.327 . S
C558 C546 1.349 . S
C558 H552 0.950 . S
C558 C559 1.327 . S
C559 H553 0.950 . S
C559 C558 1.327 . S
C559 C563 1.429 . S
C560 C543 1.574 . S
C560 H554 0.949 . S
C560 C564 1.368 . S
C561 C542 1.429 . S
C561 C555 1.429 . S
C561 C562 1.523 . S
C562 C543 1.368 . S
C562 C556 1.368 . S
C562 C561 1.523 . S
C563 C547 1.429 . S
C563 C559 1.429 . S
C563 C564 1.523 . S
C564 C548 1.368 . S
C564 C560 1.368 . S
C564 C563 1.523 . S
H565 C540 0.950 . S
H566 C542 0.950 . S
H567 C543 0.949 . S
H568 C545 0.950 . S
H569 C547 0.950 . S
C570 C571 1.349 . S
C570 C572 1.327 . S
C570 H595 0.950 . S
C571 C570 1.349 . S
C571 C587 1.349 . S
C572 C570 1.327 . S
C572 C591 1.429 . S
C572 H596 0.950 . S
C573 C590 1.574 . S
C573 C592 1.368 . S
C573 H597 0.949 . S
H574 C578 0.949 . S
C575 C576 1.349 . S
C575 C577 1.327 . S
C575 H598 0.950 . S
C576 C575 1.349 . S
C576 C588 1.349 . S
C577 C575 1.327 . S
C577 C593 1.429 . S
C577 H599 0.950 . S
C578 H574 0.949 . S
C578 C586 1.574 . S
C578 C594 1.368 . S
H579 C587 0.950 . S
H580 C585 0.950 . S
H581 C586 0.949 . S
H582 C588 0.950 . S
H583 C589 0.950 . S
H584 C590 0.949 . S
C585 H580 0.950 . S
C585 C587 1.327 . S
C585 C591 1.429 . S
C586 C578 1.574 . S
C586 H581 0.949 . S
C586 C592 1.368 . S
C587 C571 1.349 . S
C587 H579 0.950 . S
C587 C585 1.327 . S
C588 C576 1.349 . S
C588 H582 0.950 . S
C588 C589 1.327 . S
C589 H583 0.950 . S
C589 C588 1.327 . S
C589 C593 1.429 . S
C590 C573 1.574 . S
C590 H584 0.949 . S
C590 C594 1.368 . S
C591 C572 1.429 . S
C591 C585 1.429 . S
C591 C592 1.523 . S
C592 C573 1.368 . S
C592 C586 1.368 . S
C592 C591 1.523 . S
C593 C577 1.429 . S
C593 C589 1.429 . S
C593 C594 1.523 . S
C594 C578 1.368 . S
C594 C590 1.368 . S
C594 C593 1.523 . S
H595 C570 0.950 . S
H596 C572 0.950 . S
H597 C573 0.949 . S
H598 C575 0.950 . S
H599 C577 0.950 . S
C600 C601 1.349 . S
C600 C602 1.327 . S
C600 H625 0.950 . S
C601 C600 1.349 . S
C601 C617 1.349 . S
C602 C600 1.327 . S
C602 C621 1.429 . S
C602 H626 0.950 . S
C603 C620 1.574 . S
C603 C622 1.368 . S
C603 H627 0.949 . S
H604 C608 0.949 . S
C605 C606 1.349 . S
C605 C607 1.327 . S
C605 H628 0.950 . S
C606 C605 1.349 . S
C606 C618 1.349 . S
C607 C605 1.327 . S
C607 C623 1.429 . S
C607 H629 0.950 . S
C608 H604 0.949 . S
C608 C616 1.574 . S
C608 C624 1.368 . S
H609 C617 0.950 . S
H610 C615 0.950 . S
H611 C616 0.949 . S
H612 C618 0.950 . S
H613 C619 0.950 . S
H614 C620 0.949 . S
C615 H610 0.950 . S
C615 C617 1.327 . S
C615 C621 1.429 . S
C616 C608 1.574 . S
C616 H611 0.949 . S
C616 C622 1.368 . S
C617 C601 1.349 . S
C617 H609 0.950 . S
C617 C615 1.327 . S
C618 C606 1.349 . S
C618 H612 0.950 . S
C618 C619 1.327 . S
C619 H613 0.950 . S
C619 C618 1.327 . S
C619 C623 1.429 . S
C620 C603 1.574 . S
C620 H614 0.949 . S
C620 C624 1.368 . S
C621 C602 1.429 . S
C621 C615 1.429 . S
C621 C622 1.523 . S
C622 C603 1.368 . S
C622 C616 1.368 . S
C622 C621 1.523 . S
C623 C607 1.429 . S
C623 C619 1.429 . S
C623 C624 1.523 . S
C624 C608 1.368 . S
C624 C620 1.368 . S
C624 C623 1.523 . S
H625 C600 0.950 . S
H626 C602 0.950 . S
H627 C603 0.949 . S
H628 C605 0.950 . S
H629 C607 0.950 . S
C630 C631 1.349 . S
C630 C632 1.327 . S
C630 H655 0.950 . S
C631 C630 1.349 . S
C631 C647 1.349 . S
C632 C630 1.327 . S
C632 C651 1.429 . S
C632 H656 0.950 . S
C633 C650 1.574 . S
C633 C652 1.368 . S
C633 H657 0.949 . S
H634 C638 0.949 . S
C635 C636 1.349 . S
C635 C637 1.327 . S
C635 H658 0.950 . S
C636 C635 1.349 . S
C636 C648 1.349 . S
C637 C635 1.327 . S
C637 C653 1.429 . S
C637 H659 0.950 . S
C638 H634 0.949 . S
C638 C646 1.574 . S
C638 C654 1.368 . S
H639 C647 0.950 . S
H640 C645 0.950 . S
H641 C646 0.949 . S
H642 C648 0.950 . S
H643 C649 0.950 . S
H644 C650 0.949 . S
C645 H640 0.950 . S
C645 C647 1.327 . S
C645 C651 1.429 . S
C646 C638 1.574 . S
C646 H641 0.949 . S
C646 C652 1.368 . S
C647 C631 1.349 . S
C647 H639 0.950 . S
C647 C645 1.327 . S
C648 C636 1.349 . S
C648 H642 0.950 . S
C648 C649 1.327 . S
C649 H643 0.950 . S
C649 C648 1.327 . S
C649 C653 1.429 . S
C650 C633 1.574 . S
C650 H644 0.949 . S
C650 C654 1.368 . S
C651 C632 1.429 . S
C651 C645 1.429 . S
C651 C652 1.523 . S
C652 C633 1.368 . S
C652 C646 1.368 . S
C652 C651 1.523 . S
C653 C637 1.429 . S
C653 C649 1.429 . S
C653 C654 1.523 . S
C654 C638 1.368 . S
C654 C650 1.368 . S
C654 C653 1.523 . S
H655 C630 0.950 . S
H656 C632 0.950 . S
H657 C633 0.949 . S
H658 C635 0.950 . S
H659 C637 0.950 . S
C660 C661 1.349 . S
C660 C662 1.327 . S
C660 H685 0.950 . S
C661 C660 1.349 . S
C661 C677 1.349 . S
C662 C660 1.327 . S
C662 C681 1.429 . S
C662 H686 0.950 . S
C663 C680 1.574 . S
C663 C682 1.368 . S
C663 H687 0.949 . S
H664 C668 0.949 . S
C665 C666 1.349 . S
C665 C667 1.327 . S
C665 H688 0.950 . S
C666 C665 1.349 . S
C666 C678 1.349 . S
C667 C665 1.327 . S
C667 C683 1.429 . S
C667 H689 0.950 . S
C668 H664 0.949 . S
C668 C676 1.574 . S
C668 C684 1.368 . S
H669 C677 0.950 . S
H670 C675 0.950 . S
H671 C676 0.949 . S
H672 C678 0.950 . S
H673 C679 0.950 . S
H674 C680 0.949 . S
C675 H670 0.950 . S
C675 C677 1.327 . S
C675 C681 1.429 . S
C676 C668 1.574 . S
C676 H671 0.949 . S
C676 C682 1.368 . S
C677 C661 1.349 . S
C677 H669 0.950 . S
C677 C675 1.327 . S
C678 C666 1.349 . S
C678 H672 0.950 . S
C678 C679 1.327 . S
C679 H673 0.950 . S
C679 C678 1.327 . S
C679 C683 1.429 . S
C680 C663 1.574 . S
C680 H674 0.949 . S
C680 C684 1.368 . S
C681 C662 1.429 . S
C681 C675 1.429 . S
C681 C682 1.523 . S
C682 C663 1.368 . S
C682 C676 1.368 . S
C682 C681 1.523 . S
C683 C667 1.429 . S
C683 C679 1.429 . S
C683 C684 1.523 . S
C684 C668 1.368 . S
C684 C680 1.368 . S
C684 C683 1.523 . S
H685 C660 0.950 . S
H686 C662 0.950 . S
H687 C663 0.949 . S
H688 C665 0.950 . S
H689 C667 0.950 . S
C690 C691 1.349 . S
C690 C692 1.327 . S
C690 H715 0.950 . S
C691 C690 1.349 . S
C691 C707 1.349 . S
C692 C690 1.327 . S
C692 C711 1.429 . S
C692 H716 0.950 . S
C693 C710 1.574 . S
C693 C712 1.368 . S
C693 H717 0.949 . S
H694 C698 0.949 . S
C695 C696 1.349 . S
C695 C697 1.327 . S
C695 H718 0.950 . S
C696 C695 1.349 . S
C696 C708 1.349 . S
C697 C695 1.327 . S
C697 C713 1.429 . S
C697 H719 0.950 . S
C698 H694 0.949 . S
C698 C706 1.574 . S
C698 C714 1.368 . S
H699 C707 0.950 . S
H700 C705 0.950 . S
H701 C706 0.949 . S
H702 C708 0.950 . S
H703 C709 0.950 . S
H704 C710 0.949 . S
C705 H700 0.950 . S
C705 C707 1.327 . S
C705 C711 1.429 . S
C706 C698 1.574 . S
C706 H701 0.949 . S
C706 C712 1.368 . S
C707 C691 1.349 . S
C707 H699 0.950 . S
C707 C705 1.327 . S
C708 C696 1.349 . S
C708 H702 0.950 . S
C708 C709 1.327 . S
C709 H703 0.950 . S
C709 C708 1.327 . S
C709 C713 1.429 . S
C710 C693 1.574 . S
C710 H704 0.949 . S
C710 C714 1.368 . S
C711 C692 1.429 . S
C711 C705 1.429 . S
C711 C712 1.523 . S
C712 C693 1.368 . S
C712 C706 1.368 . S
C712 C711 1.523 . S
C713 C697 1.429 . S
C713 C709 1.429 . S
C713 C714 1.523 . S
C714 C698 1.368 . S
C714 C710 1.368 . S
C714 C713 1.523 . S
H715 C690 0.950 . S
H716 C692 0.950 . S
H717 C693 0.949 . S
H718 C695 0.950 . S
H719 C697 0.950 . S
C720 C721 1.349 . S
C720 C722 1.327 . S
C720 H745 0.950 . S
C721 C720 1.349 . S
C721 C737 1.349 1_455 S
C722 C720 1.327 . S
C722 C741 1.429 . S
C722 H746 0.950 . S
C723 C740 1.574 . S
C723 C742 1.368 1_655 S
C723 H747 0.949 . S
H724 C728 0.949 . S
C725 C726 1.349 1_655 S
C725 C727 1.327 . S
C725 H748 0.950 . S
C726 C725 1.349 1_455 S
C726 C738 1.349 . S
C727 C725 1.327 . S
C727 C743 1.429 1_655 S
C727 H749 0.950 . S
C728 H724 0.949 . S
C728 C736 1.574 . S
C728 C744 1.368 . S
H729 C737 0.950 . S
H730 C735 0.950 . S
H731 C736 0.949 . S
H732 C738 0.950 . S
H733 C739 0.950 . S
H734 C740 0.949 . S
C735 H730 0.950 . S
C735 C737 1.327 . S
C735 C741 1.429 1_655 S
C736 C728 1.574 . S
C736 H731 0.949 . S
C736 C742 1.368 . S
C737 C721 1.349 1_655 S
C737 H729 0.950 . S
C737 C735 1.327 . S
C738 C726 1.349 . S
C738 H732 0.950 . S
C738 C739 1.327 . S
C739 H733 0.950 . S
C739 C738 1.327 . S
C739 C743 1.429 . S
C740 C723 1.574 . S
C740 H734 0.949 . S
C740 C744 1.368 1_655 S
C741 C722 1.429 . S
C741 C735 1.429 1_455 S
C741 C742 1.523 . S
C742 C723 1.368 1_455 S
C742 C736 1.368 . S
C742 C741 1.523 . S
C743 C727 1.429 1_455 S
C743 C739 1.429 . S
C743 C744 1.523 . S
C744 C728 1.368 . S
C744 C740 1.368 1_455 S
C744 C743 1.523 . S
H745 C720 0.950 . S
H746 C722 0.950 . S
H747 C723 0.949 . S
H748 C725 0.950 . S
H749 C727 0.950 . S
C750 C751 1.349 . S
C750 C752 1.327 . S
C750 H775 0.950 . S
C751 C750 1.349 . S
C751 C767 1.349 . S
C752 C750 1.327 . S
C752 C771 1.429 . S
C752 H776 0.950 . S
C753 C770 1.574 . S
C753 C772 1.368 . S
C753 H777 0.949 . S
H754 C758 0.949 . S
C755 C756 1.349 . S
C755 C757 1.327 . S
C755 H778 0.950 . S
C756 C755 1.349 . S
C756 C768 1.349 . S
C757 C755 1.327 . S
C757 C773 1.429 . S
C757 H779 0.950 . S
C758 H754 0.949 . S
C758 C766 1.574 . S
C758 C774 1.368 . S
H759 C767 0.950 . S
H760 C765 0.950 . S
H761 C766 0.949 . S
H762 C768 0.950 . S
H763 C769 0.950 . S
H764 C770 0.949 . S
C765 H760 0.950 . S
C765 C767 1.327 . S
C765 C771 1.429 . S
C766 C758 1.574 . S
C766 H761 0.949 . S
C766 C772 1.368 . S
C767 C751 1.349 . S
C767 H759 0.950 . S
C767 C765 1.327 . S
C768 C756 1.349 . S
C768 H762 0.950 . S
C768 C769 1.327 . S
C769 H763 0.950 . S
C769 C768 1.327 . S
C769 C773 1.429 . S
C770 C753 1.574 . S
C770 H764 0.949 . S
C770 C774 1.368 . S
C771 C752 1.429 . S
C771 C765 1.429 . S
C771 C772 1.523 . S
C772 C753 1.368 . S
C772 C766 1.368 . S
C772 C771 1.523 . S
C773 C757 1.429 . S
C773 C769 1.429 . S
C773 C774 1.523 . S
C774 C758 1.368 . S
C774 C770 1.368 . S
C774 C773 1.523 . S
H775 C750 0.950 . S
H776 C752 0.950 . S
H777 C753 0.949 . S
H778 C755 0.950 . S
H779 C757 0.950 . S
C780 C781 1.349 1_565 S
C780 C782 1.327 . S
C780 H805 0.950 . S
C781 C780 1.349 1_545 S
C781 C797 1.349 . S
C782 C780 1.327 . S
C782 C801 1.429 1_565 S
C782 H806 0.950 . S
C783 C800 1.574 . S
C783 C802 1.368 . S
C783 H807 0.949 . S
H784 C788 0.949 . S
C785 C786 1.349 . S
C785 C787 1.327 . S
C785 H808 0.950 . S
C786 C785 1.349 . S
C786 C798 1.349 1_545 S
C787 C785 1.327 . S
C787 C803 1.429 . S
C787 H809 0.950 . S
C788 H784 0.949 . S
C788 C796 1.574 . S
C788 C804 1.368 1_565 S
H789 C797 0.950 . S
H790 C795 0.950 . S
H791 C796 0.949 . S
H792 C798 0.950 . S
H793 C799 0.950 . S
H794 C800 0.949 . S
C795 H790 0.950 . S
C795 C797 1.327 . S
C795 C801 1.429 . S
C796 C788 1.574 . S
C796 H791 0.949 . S
C796 C802 1.368 1_565 S
C797 C781 1.349 . S
C797 H789 0.950 . S
C797 C795 1.327 . S
C798 C786 1.349 1_565 S
C798 H792 0.950 . S
C798 C799 1.327 . S
C799 H793 0.950 . S
C799 C798 1.327 . S
C799 C803 1.429 1_565 S
C800 C783 1.574 . S
C800 H794 0.949 . S
C800 C804 1.368 . S
C801 C782 1.429 1_545 S
C801 C795 1.429 . S
C801 C802 1.523 . S
C802 C783 1.368 . S
C802 C796 1.368 1_545 S
C802 C801 1.523 . S
C803 C787 1.429 . S
C803 C799 1.429 1_545 S
C803 C804 1.523 . S
C804 C788 1.368 1_545 S
C804 C800 1.368 . S
C804 C803 1.523 . S
H805 C780 0.950 . S
H806 C782 0.950 . S
H807 C783 0.949 . S
H808 C785 0.950 . S
H809 C787 0.950 . S
C810 C811 1.349 . S
C810 C812 1.327 . S
C810 H835 0.950 . S
C811 C810 1.349 . S
C811 C827 1.349 . S
C812 C810 1.327 . S
C812 C831 1.429 . S
C812 H836 0.950 . S
C813 C830 1.574 . S
C813 C832 1.368 . S
C813 H837 0.949 . S
H814 C818 0.949 . S
C815 C816 1.349 . S
C815 C817 1.327 1_554 S
C815 H838 0.950 . S
C816 C815 1.349 . S
C816 C828 1.349 . S
C817 C815 1.327 1_556 S
C817 C833 1.429 . S
C817 H839 0.950 . S
C818 H814 0.949 . S
C818 C826 1.574 . S
C818 C834 1.368 . S
H819 C827 0.950 . S
H820 C825 0.950 . S
H821 C826 0.949 . S
H822 C828 0.950 . S
H823 C829 0.950 1_556 S
H824 C830 0.949 . S
C825 H820 0.950 . S
C825 C827 1.327 . S
C825 C831 1.429 . S
C826 C818 1.574 . S
C826 H821 0.949 . S
C826 C832 1.368 . S
C827 C811 1.349 . S
C827 H819 0.950 . S
C827 C825 1.327 . S
C828 C816 1.349 . S
C828 H822 0.950 . S
C828 C829 1.327 . S
C829 H823 0.950 1_554 S
C829 C828 1.327 . S
C829 C833 1.429 1_554 S
C830 C813 1.574 . S
C830 H824 0.949 . S
C830 C834 1.368 . S
C831 C812 1.429 . S
C831 C825 1.429 . S
C831 C832 1.523 . S
C832 C813 1.368 . S
C832 C826 1.368 . S
C832 C831 1.523 . S
C833 C817 1.429 . S
C833 C829 1.429 1_556 S
C833 C834 1.523 . S
C834 C818 1.368 . S
C834 C830 1.368 . S
C834 C833 1.523 . S
H835 C810 0.950 . S
H836 C812 0.950 . S
H837 C813 0.949 . S
H838 C815 0.950 . S
H839 C817 0.950 . S
C840 C841 1.349 . S
C840 C842 1.327 . S
C840 H865 0.950 . S
C841 C840 1.349 . S
C841 C857 1.349 . S
C842 C840 1.327 . S
C842 C861 1.429 . S
C842 H866 0.950 . S
C843 C860 1.574 . S
C843 C862 1.368 . S
C843 H867 0.949 . S
H844 C848 0.949 . S
C845 C846 1.349 . S
C845 C847 1.327 1_554 S
C845 H868 0.950 . S
C846 C845 1.349 . S
C846 C858 1.349 . S
C847 C845 1.327 1_556 S
C847 C863 1.429 . S
C847 H869 0.950 . S
C848 H844 0.949 . S
C848 C856 1.574 . S
C848 C864 1.368 . S
H849 C857 0.950 . S
H850 C855 0.950 . S
H851 C856 0.949 . S
H852 C858 0.950 . S
H853 C859 0.950 . S
H854 C860 0.949 . S
C855 H850 0.950 . S
C855 C857 1.327 . S
C855 C861 1.429 . S
C856 C848 1.574 . S
C856 H851 0.949 . S
C856 C862 1.368 . S
C857 C841 1.349 . S
C857 H849 0.950 . S
C857 C855 1.327 . S
C858 C846 1.349 . S
C858 H852 0.950 . S
C858 C859 1.327 1_554 S
C859 H853 0.950 . S
C859 C858 1.327 1_556 S
C859 C863 1.429 . S
C860 C843 1.574 . S
C860 H854 0.949 . S
C860 C864 1.368 . S
C861 C842 1.429 . S
C861 C855 1.429 . S
C861 C862 1.523 . S
C862 C843 1.368 . S
C862 C856 1.368 . S
C862 C861 1.523 . S
C863 C847 1.429 . S
C863 C859 1.429 . S
C863 C864 1.523 . S
C864 C848 1.368 . S
C864 C860 1.368 . S
C864 C863 1.523 . S
H865 C840 0.950 . S
H866 C842 0.950 . S
H867 C843 0.949 . S
H868 C845 0.950 . S
H869 C847 0.950 . S
C870 C871 1.349 . S
C870 C872 1.327 . S
C870 H895 0.950 . S
C871 C870 1.349 . S
C871 C887 1.349 . S
C872 C870 1.327 . S
C872 C891 1.429 . S
C872 H896 0.950 . S
C873 C890 1.574 . S
C873 C892 1.368 . S
C873 H897 0.949 . S
H874 C878 0.949 . S
C875 C876 1.349 . S
C875 C877 1.327 1_554 S
C875 H898 0.950 . S
C876 C875 1.349 . S
C876 C888 1.349 . S
C877 C875 1.327 1_556 S
C877 C893 1.429 . S
C877 H899 0.950 . S
C878 H874 0.949 . S
C878 C886 1.574 . S
C878 C894 1.368 . S
H879 C887 0.950 . S
H880 C885 0.950 . S
H881 C886 0.949 . S
H882 C888 0.950 . S
H883 C889 0.951 . S
H884 C890 0.949 . S
C885 H880 0.950 . S
C885 C887 1.327 . S
C885 C891 1.429 . S
C886 C878 1.574 . S
C886 H881 0.949 . S
C886 C892 1.368 . S
C887 C871 1.349 . S
C887 H879 0.950 . S
C887 C885 1.327 . S
C888 C876 1.349 . S
C888 H882 0.950 . S
C888 C889 1.324 1_554 S
C889 H883 0.951 . S
C889 C888 1.324 1_556 S
C889 C893 1.430 . S
C890 C873 1.574 . S
C890 H884 0.949 . S
C890 C894 1.368 . S
C891 C872 1.429 . S
C891 C885 1.429 . S
C891 C892 1.523 . S
C892 C873 1.368 . S
C892 C886 1.368 . S
C892 C891 1.523 . S
C893 C877 1.429 . S
C893 C889 1.430 . S
C893 C894 1.523 . S
C894 C878 1.368 . S
C894 C890 1.368 . S
C894 C893 1.523 . S
H895 C870 0.950 . S
H896 C872 0.950 . S
H897 C873 0.949 . S
H898 C875 0.950 . S
H899 C877 0.950 . S
C900 C901 1.349 . S
C900 C902 1.327 . S
C900 H925 0.950 . S
C901 C900 1.349 . S
C901 C917 1.349 . S
C902 C900 1.327 . S
C902 C921 1.429 . S
C902 H926 0.950 . S
C903 C920 1.574 . S
C903 C922 1.368 . S
C903 H927 0.949 . S
H904 C908 0.949 . S
C905 C906 1.349 . S
C905 C907 1.327 . S
C905 H928 0.950 . S
C906 C905 1.349 . S
C906 C918 1.349 . S
C907 C905 1.327 . S
C907 C923 1.429 1_556 S
C907 H929 0.950 . S
C908 H904 0.949 . S
C908 C916 1.574 . S
C908 C924 1.368 . S
H909 C917 0.950 . S
H910 C915 0.950 . S
H911 C916 0.949 . S
H912 C918 0.950 . S
H913 C919 0.950 1_554 S
H914 C920 0.949 . S
C915 H910 0.950 . S
C915 C917 1.327 . S
C915 C921 1.429 . S
C916 C908 1.574 . S
C916 H911 0.949 . S
C916 C922 1.368 . S
C917 C901 1.349 . S
C917 H909 0.950 . S
C917 C915 1.327 . S
C918 C906 1.349 . S
C918 H912 0.950 . S
C918 C919 1.327 . S
C919 H913 0.950 1_556 S
C919 C918 1.327 . S
C919 C923 1.429 1_556 S
C920 C903 1.574 . S
C920 H914 0.949 . S
C920 C924 1.368 . S
C921 C902 1.429 . S
C921 C915 1.429 . S
C921 C922 1.523 . S
C922 C903 1.368 . S
C922 C916 1.368 . S
C922 C921 1.523 . S
C923 C907 1.429 1_554 S
C923 C919 1.429 1_554 S
C923 C924 1.523 . S
C924 C908 1.368 . S
C924 C920 1.368 . S
C924 C923 1.523 . S
H925 C900 0.950 . S
H926 C902 0.950 . S
H927 C903 0.949 . S
H928 C905 0.950 . S
H929 C907 0.950 . S
C930 C931 1.349 . S
C930 C932 1.327 1_556 S
C930 H955 0.950 . S
C931 C930 1.349 . S
C931 C947 1.349 . S
C932 C930 1.327 1_554 S
C932 C951 1.429 . S
C932 H956 0.950 . S
C933 C950 1.574 . S
C933 C952 1.368 . S
C933 H957 0.949 . S
H934 C938 0.949 . S
C935 C936 1.349 . S
C935 C937 1.327 . S
C935 H958 0.950 . S
C936 C935 1.349 . S
C936 C948 1.349 . S
C937 C935 1.327 . S
C937 C953 1.429 . S
C937 H959 0.950 . S
C938 H934 0.949 . S
C938 C946 1.574 . S
C938 C954 1.368 . S
H939 C947 0.950 . S
H940 C945 0.950 . S
H941 C946 0.949 . S
H942 C948 0.950 . S
H943 C949 0.950 . S
H944 C950 0.949 . S
C945 H940 0.950 . S
C945 C947 1.327 1_554 S
C945 C951 1.429 . S
C946 C938 1.574 . S
C946 H941 0.949 . S
C946 C952 1.368 . S
C947 C931 1.349 . S
C947 H939 0.950 . S
C947 C945 1.327 1_556 S
C948 C936 1.349 . S
C948 H942 0.950 . S
C948 C949 1.327 . S
C949 H943 0.950 . S
C949 C948 1.327 . S
C949 C953 1.429 . S
C950 C933 1.574 . S
C950 H944 0.949 . S
C950 C954 1.368 . S
C951 C932 1.429 . S
C951 C945 1.429 . S
C951 C952 1.523 . S
C952 C933 1.368 . S
C952 C946 1.368 . S
C952 C951 1.523 . S
C953 C937 1.429 . S
C953 C949 1.429 . S
C953 C954 1.523 . S
C954 C938 1.368 . S
C954 C950 1.368 . S
C954 C953 1.523 . S
H955 C930 0.950 . S
H956 C932 0.950 . S
H957 C933 0.949 . S
H958 C935 0.950 . S
H959 C937 0.950 . S
C960 C961 1.349 . S
C960 C962 1.327 . S
C960 H985 0.950 . S
C961 C960 1.349 . S
C961 C977 1.349 . S
C962 C960 1.327 . S
C962 C981 1.429 . S
C962 H986 0.950 . S
C963 C980 1.574 . S
C963 C982 1.368 . S
C963 H987 0.949 . S
H964 C968 0.949 . S
C965 C966 1.349 . S
C965 C967 1.327 1_556 S
C965 H988 0.950 . S
C966 C965 1.349 . S
C966 C978 1.349 . S
C967 C965 1.327 1_554 S
C967 C983 1.429 . S
C967 H989 0.950 . S
C968 H964 0.949 . S
C968 C976 1.574 . S
C968 C984 1.368 . S
H969 C977 0.950 . S
H970 C975 0.950 . S
H971 C976 0.949 . S
H972 C978 0.950 . S
H973 C979 0.950 . S
H974 C980 0.949 . S
C975 H970 0.950 . S
C975 C977 1.327 . S
C975 C981 1.429 . S
C976 C968 1.574 . S
C976 H971 0.949 . S
C976 C982 1.368 . S
C977 C961 1.349 . S
C977 H969 0.950 . S
C977 C975 1.327 . S
C978 C966 1.349 . S
C978 H972 0.950 . S
C978 C979 1.327 1_556 S
C979 H973 0.950 . S
C979 C978 1.327 1_554 S
C979 C983 1.429 . S
C980 C963 1.574 . S
C980 H974 0.949 . S
C980 C984 1.368 . S
C981 C962 1.429 . S
C981 C975 1.429 . S
C981 C982 1.523 . S
C982 C963 1.368 . S
C982 C976 1.368 . S
C982 C981 1.523 . S
C983 C967 1.429 . S
C983 C979 1.429 . S
C983 C984 1.523 . S
C984 C968 1.368 . S
C984 C980 1.368 . S
C984 C983 1.523 . S
H985 C960 0.950 . S
H986 C962 0.950 . S
H987 C963 0.949 . S
H988 C965 0.950 . S
H989 C967 0.950 . S
C181 C8 2.260 . S
C186 C148 2.224 . S
C211 C36 1.584 . S
C216 C176 1.566 . S
C241 C48 1.958 . S
C246 C136 1.886 . S
C271 C96 1.177 . S
C276 C56 1.203 . S
C301 C116 1.457 . S
C306 C16 1.428 . S
C331 C28 1.788 . S
C336 C76 1.727 . S
C361 C156 2.099 . S
C366 C108 2.162 . S
C391 C168 2.395 . S
C396 C68 2.357 . S
C421 C88 2.677 . S
C426 C128 2.629 . S
C451 C59 1.587 . S
C456 C6 1.622 . S
C481 C39 1.748 . S
C486 C19 1.711 . S
C511 C26 1.303 . S
C516 C46 1.321 . S
C541 C79 1.597 . S
C546 C106 1.678 . S
C571 C66 1.705 . S
C576 C99 1.608 . S
C601 C86 1.729 . S
C606 C119 1.629 . S
C631 C179 1.689 . S
C636 C126 1.750 . S
C661 C159 2.045 . S
C666 C139 2.009 . S
C691 C166 1.566 . S
C696 C146 1.543 . S
C721 C9 0.966 . S
C726 C1 0.966 . S
C751 C21 0.952 . S
C756 C29 0.952 . S
C781 C49 0.951 . S
C786 C41 0.951 . S
C811 C69 0.979 . S
C816 C61 0.979 . S
C841 C89 0.951 . S
C846 C81 0.951 . S
C871 C109 0.976 . S
C876 C101 0.976 . S
C901 C129 0.963 . S
C906 C121 0.963 . S
C931 C149 0.957 . S
C936 C141 0.957 . S
C961 C169 0.959 . S
C966 C161 0.959 . S
