# Generated by pormake.
# Topology etb, (3)-cn, num edge types: 1
# Building blocks:
#     Node 0, Type 0, BuildingBlock: WUSLED_clean_sbu_0, # of connection points: 3
#     Node 1, Type 0, BuildingBlock: WUSLED_clean_sbu_0, # of connection points: 3
#     Node 2, Type 0, BuildingBlock: WUSLED_clean_sbu_0, # of connection points: 3
#     Node 3, Type 0, BuildingBlock: WUSLED_clean_sbu_0, # of connection points: 3
#     Node 4, Type 0, BuildingBlock: WUSLED_clean_sbu_0, # of connection points: 3
#     Node 5, Type 0, BuildingBlock: WUSLED_clean_sbu_0, # of connection points: 3
#     Node 6, Type 0, BuildingBlock: WUSLED_clean_sbu_0, # of connection points: 3
#     Node 7, Type 0, BuildingBlock: WUSLED_clean_sbu_0, # of connection points: 3
#     Node 8, Type 0, BuildingBlock: WUSLED_clean_sbu_0, # of connection points: 3
#     Node 9, Type 0, BuildingBlock: WUSLED_clean_sbu_0, # of connection points: 3
#     Node 10, Type 0, BuildingBlock: WUSLED_clean_sbu_0, # of connection points: 3
#     Node 11, Type 0, BuildingBlock: WUSLED_clean_sbu_0, # of connection points: 3
#     Node 12, Type 0, BuildingBlock: WUSLED_clean_sbu_0, # of connection points: 3
#     Node 13, Type 0, BuildingBlock: WUSLED_clean_sbu_0, # of connection points: 3
#     Node 14, Type 0, BuildingBlock: WUSLED_clean_sbu_0, # of connection points: 3
#     Node 15, Type 0, BuildingBlock: WUSLED_clean_sbu_0, # of connection points: 3
#     Node 16, Type 0, BuildingBlock: WUSLED_clean_sbu_0, # of connection points: 3
#     Node 17, Type 0, BuildingBlock: WUSLED_clean_sbu_0, # of connection points: 3
#     Edge 18, Type (0, 0), None
#     Edge 19, Type (0, 0), None
#     Edge 20, Type (0, 0), None
#     Edge 21, Type (0, 0), None
#     Edge 22, Type (0, 0), None
#     Edge 23, Type (0, 0), None
#     Edge 24, Type (0, 0), None
#     Edge 25, Type (0, 0), None
#     Edge 26, Type (0, 0), None
#     Edge 27, Type (0, 0), None
#     Edge 28, Type (0, 0), None
#     Edge 29, Type (0, 0), None
#     Edge 30, Type (0, 0), None
#     Edge 31, Type (0, 0), None
#     Edge 32, Type (0, 0), None
#     Edge 33, Type (0, 0), None
#     Edge 34, Type (0, 0), None
#     Edge 35, Type (0, 0), None
#     Edge 36, Type (0, 0), None
#     Edge 37, Type (0, 0), None
#     Edge 38, Type (0, 0), None
#     Edge 39, Type (0, 0), None
#     Edge 40, Type (0, 0), None
#     Edge 41, Type (0, 0), None
#     Edge 42, Type (0, 0), None
#     Edge 43, Type (0, 0), None
#     Edge 44, Type (0, 0), None
# Relax obj value: 0.000
# Max RMSD: 0.007
# Mean RMSD: 0.004
data_MOF--net-etb--node1-WUSLED_clean_sbu_0--edge1-none
_symmetry_space_group_name_H-M    P1
_symmetry_Int_Tables_number       1
_symmetry_cell_setting            triclinic
loop_
_symmetry_equiv_pos_as_xyz
'x, y, z'
_cell_length_a     74.444047
_cell_length_b     73.915162
_cell_length_c     35.070704
_cell_angle_alpha  90.154679
_cell_angle_beta   89.812847
_cell_angle_gamma 118.83483
loop_
_atom_site_label
_atom_site_type_symbol
_atom_site_fract_x
_atom_site_fract_y
_atom_site_fract_z
_atom_type_partial_charge
C0 C 0.48486 1.02553 0.14654 0.0
C1 C 0.48093 0.04062 0.16321 0.0
C2 C 0.45604 1.01509 0.20708 0.0
C3 C 0.4667 0.03545 0.19305 0.0
C4 C 0.45963 0.99994 0.18963 0.0
C5 C 0.47389 1.00512 0.1599 0.0
U6 U 0.51047 0.04475 0.04731 0.0
O7 O 0.54298 0.06484 0.0331 0.0
O8 O 0.52721 0.03293 1.01207 0.0
C9 C 0.54474 0.05009 1.01528 0.0
C10 C 0.50139 0.03093 0.11772 0.0
C11 C 0.56289 0.04776 1.0249 0.0
C12 C 0.58889 0.05002 0.06961 0.0
C13 C 0.57114 0.05146 0.06185 0.0
C14 C 0.59025 0.04089 1.00376 0.0
C15 C 0.59876 0.04478 0.04062 0.0
C16 C 0.57255 0.04238 0.99604 0.0
C17 C 0.48246 0.06022 0.97134 0.0
C18 C 0.48967 0.06497 0.90324 0.0
C19 C 0.46465 0.07319 0.93096 0.0
C20 C 0.4683 0.06745 0.96691 0.0
C21 C 0.47509 0.07181 0.89848 0.0
C22 C 0.49333 0.05924 0.93932 0.0
C23 C 0.48478 0.05293 1.00927 0.0
O24 O 0.49682 1.01874 0.08782 0.0
O25 O 0.51279 0.05058 0.10916 0.0
O26 O 0.49939 0.0665 0.03115 0.0
O27 O 0.48344 0.03454 1.01041 0.0
H28 H 0.48919 0.05654 0.1539 0.0
H29 H 0.46462 0.04763 0.206 0.0
H30 H 0.45155 0.98406 0.19917 0.0
H31 H 0.47666 0.99318 0.14782 0.0
H32 H 0.59507 0.05337 0.09823 0.0
H33 H 0.564 0.05567 0.08464 0.0
H34 H 0.59714 0.03648 0.98084 0.0
H35 H 0.56645 0.03943 0.96733 0.0
H36 H 0.4982 0.06395 0.87902 0.0
H37 H 0.45313 0.07807 0.92849 0.0
H38 H 0.4597 0.06824 0.99124 0.0
H39 H 0.50439 0.05377 0.94213 0.0
C40 C 0.08567 0.41755 0.94522 0.0
C41 C 0.08236 0.39796 0.9564 0.0
C42 C 0.07124 0.38465 0.89187 0.0
C43 C 0.07519 0.38165 0.93 0.0
C44 C 0.07493 0.40445 0.88084 0.0
C45 C 0.08204 0.42068 0.90723 0.0
U46 U 0.10849 0.44451 0.04134 0.0
O47 O 0.13004 0.47738 0.05254 0.0
O48 O 0.09925 0.46291 0.07782 0.0
C49 C 0.11649 0.48015 0.07224 0.0
C50 C 0.09243 0.43483 0.9726 0.0
C51 C 0.11505 0.49918 0.06415 0.0
C52 C 0.13241 0.53666 0.05665 0.0
C53 C 0.1331 0.51809 0.05932 0.0
C54 C 0.09549 0.51786 0.06281 0.0
C55 C 0.11363 0.53686 0.05906 0.0
C56 C 0.09618 0.49926 0.06536 0.0
C57 C 0.1253 0.41679 0.11636 0.0
C58 C 0.15461 0.4238 0.15675 0.0
C59 C 0.12046 0.39878 0.17694 0.0
C60 C 0.11238 0.40249 0.14366 0.0
C61 C 0.14173 0.40914 0.18372 0.0
C62 C 0.14652 0.42755 0.12351 0.0
C63 C 0.11667 0.41863 0.07923 0.0
O64 O 0.08144 0.43111 1.00391 0.0
O65 O 0.11226 0.44542 0.97886 0.0
O66 O 0.1294 0.4322 0.05463 0.0
O67 O 0.09868 0.41793 0.08014 0.0
H68 H 0.08517 0.39523 0.98557 0.0
H69 H 0.07277 0.36671 0.93945 0.0
H70 H 0.07182 0.40732 0.85199 0.0
H71 H 0.08446 0.43568 0.89804 0.0
H72 H 0.14673 0.55096 0.05434 0.0
H73 H 0.14791 0.51863 0.0589 0.0
H74 H 0.08073 0.51737 0.06435 0.0
H75 H 0.08195 0.48504 0.0693 0.0
H76 H 0.17108 0.43188 0.16056 0.0
H77 H 0.11 0.3876 0.19719 0.0
H78 H 0.096 0.39378 0.13887 0.0
H79 H 0.15701 0.43848 0.10298 0.0
C80 C 0.71069 0.66968 0.14524 0.0
C81 C 0.72686 0.68892 0.13417 0.0
C82 C 0.7289 0.70239 0.19875 0.0
C83 C 0.73585 0.70513 0.16065 0.0
C84 C 0.71287 0.68294 0.20965 0.0
C85 C 0.70388 0.6668 0.18318 0.0
U86 U 0.70687 0.64282 0.04864 0.0
O87 O 0.69632 0.60984 0.03691 0.0
O88 O 0.67986 0.62495 1.01247 0.0
C89 C 0.68024 0.60751 1.01755 0.0
C90 C 0.70045 0.65251 0.1178 0.0
C91 C 0.66043 0.58874 1.02586 0.0
C92 C 0.62355 0.57163 0.038 0.0
C93 C 0.64247 0.58976 0.03461 0.0
C94 C 0.64026 0.55116 1.02514 0.0
C95 C 0.62214 0.55207 0.03279 0.0
C96 C 0.65911 0.56924 1.02163 0.0
C97 C 0.75067 0.67038 0.97367 0.0
C98 C 0.76406 0.68913 0.91399 0.0
C99 C 0.77324 0.66325 0.93306 0.0
C100 C 0.76124 0.65929 0.96606 0.0
C101 C 0.77508 0.67845 0.9068 0.0
C102 C 0.7521 0.6852 0.94702 0.0
C103 C 0.74011 0.66841 1.01079 0.0
O104 O 0.69319 0.65659 0.08679 0.0
O105 O 0.70971 0.64154 0.11101 0.0
O106 O 0.73949 0.65456 0.03502 0.0
O107 O 0.72298 0.66946 1.01008 0.0
H108 H 0.73242 0.69144 0.10504 0.0
H109 H 0.74831 0.71979 0.1513 0.0
H110 H 0.70689 0.6803 0.23848 0.0
H111 H 0.6914 0.65208 0.19228 0.0
H112 H 0.60999 0.57295 0.04436 0.0
H113 H 0.64291 0.60453 0.03805 0.0
H114 H 0.63981 0.53646 1.02036 0.0
H115 H 0.67264 0.56799 1.01447 0.0
H116 H 0.76483 0.70073 0.89427 0.0
H117 H 0.78169 0.6549 0.92894 0.0
H118 H 0.76075 0.64794 0.9861 0.0
H119 H 0.74435 0.69418 0.95219 0.0
C120 C 0.73413 0.06896 0.94638 0.0
C121 C 0.75354 0.07228 0.95782 0.0
C122 C 0.7669 0.08314 0.89324 0.0
C123 C 0.76978 0.07934 0.93153 0.0
C124 C 0.74728 0.07943 0.88195 0.0
C125 C 0.73111 0.07245 0.90824 0.0
U126 U 0.70728 0.04636 0.04258 0.0
O127 O 0.68904 0.05591 0.07869 0.0
O128 O 0.67467 1.02481 0.05399 0.0
C129 C 0.67198 0.03845 0.07377 0.0
C130 C 0.71693 0.06233 0.97366 0.0
C131 C 0.65354 0.04022 0.06453 0.0
C132 C 0.63389 0.05002 1.022 0.0
C133 C 0.65161 0.0485 1.0298 0.0
C134 C 0.61987 0.03498 0.08352 0.0
C135 C 0.61774 0.04328 0.0488 0.0
C136 C 0.63755 0.03349 0.09125 0.0
C137 C 0.73485 1.02946 0.11769 0.0
C138 C 0.72833 0.99994 0.15774 0.0
C139 C 0.75267 0.03442 0.17834 0.0
C140 C 0.74886 0.04253 0.14514 0.0
C141 C 0.74269 1.01297 0.18488 0.0
C142 C 0.72448 1.00806 0.1246 0.0
C143 C 0.73295 0.03813 0.08056 0.0
O144 O 0.70632 0.04238 0.98014 0.0
O145 O 0.72065 0.07349 1.00482 0.0
O146 O 0.73367 0.05626 0.08137 0.0
O147 O 0.71944 1.02528 0.05608 0.0
H148 H 0.75618 0.06959 0.98712 0.0
H149 H 0.78458 0.08176 0.94118 0.0
H150 H 0.7445 0.08244 0.85296 0.0
H151 H 0.71626 0.07001 0.89884 0.0
H152 H 0.63297 0.05673 0.99517 0.0
H153 H 0.66381 0.05384 1.00882 0.0
H154 H 0.60773 1.02934 0.10463 0.0
H155 H 0.63872 1.027 0.1182 0.0
H156 H 0.72055 0.98334 0.16135 0.0
H157 H 0.76362 0.04499 0.19872 0.0
H158 H 0.75728 0.05906 0.14054 0.0
H159 H 0.7138 0.99745 0.10392 0.0
C160 C 0.08971 0.65134 0.94665 0.0
C161 C 0.07015 0.64106 0.93011 0.0
C162 C 0.07903 0.66957 0.88573 0.0
C163 C 0.06483 0.65005 0.90015 0.0
C164 C 0.09845 0.68012 0.90313 0.0
C165 C 0.10374 0.67113 0.93322 0.0
U166 U 0.1113 0.64582 0.04428 0.0
O167 O 0.10052 0.6182 0.08074 0.0
O168 O 0.13152 0.63253 0.05638 0.0
C169 C 0.11736 0.61687 0.07565 0.0
C170 C 0.09553 0.64038 0.9754 0.0
C171 C 0.11484 0.59599 0.06749 0.0
C172 C 0.12647 0.57367 0.03714 0.0
C173 C 0.12731 0.59297 0.04076 0.0
C174 C 0.10028 0.5598 0.08598 0.0
C175 C 0.11318 0.55689 0.06015 0.0
C176 C 0.10117 0.57909 0.08969 0.0
C177 C 0.13034 0.69077 0.11854 0.0
C178 C 0.15983 0.7162 0.15446 0.0
C179 C 0.12609 0.70076 0.18305 0.0
C180 C 0.11776 0.689 0.14993 0.0
C181 C 0.14722 0.71474 0.18562 0.0
C182 C 0.15151 0.70445 0.12139 0.0
C183 C 0.12125 0.68035 0.08164 0.0
O184 O 0.11522 0.64772 0.98198 0.0
O185 O 0.08428 0.63418 1.00652 0.0
O186 O 0.10282 0.66417 0.08267 0.0
O187 O 0.13353 0.67819 0.05722 0.0
H188 H 0.05905 0.62578 0.93985 0.0
H189 H 0.04963 0.64157 0.88801 0.0
H190 H 0.1099 0.69505 0.89264 0.0
H191 H 0.11898 0.67947 0.94526 0.0
H192 H 0.13646 0.57197 1.01664 0.0
H193 H 0.13811 0.60563 1.02326 0.0
H194 H 0.09006 0.54739 0.10458 0.0
H195 H 0.09158 0.58097 0.11091 0.0
H196 H 0.1761 0.72702 0.15496 0.0
H197 H 0.1159 0.69902 0.20653 0.0
H198 H 0.10135 0.67887 0.14863 0.0
H199 H 0.16165 0.70658 0.0976 0.0
C200 C 0.48497 0.4438 0.14899 0.0
C201 C 0.46572 0.42782 0.13786 0.0
C202 C 0.45239 0.42591 0.20245 0.0
C203 C 0.44958 0.41897 0.16431 0.0
C204 C 0.47188 0.44168 0.21347 0.0
C205 C 0.48795 0.45052 0.18701 0.0
U206 U 0.51081 0.44805 0.05134 0.0
O207 O 0.52811 0.47554 1.01534 0.0
O208 O 0.54329 0.45871 0.03772 0.0
C209 C 0.54548 0.47514 1.01927 0.0
C210 C 0.50194 0.45414 0.12135 0.0
C211 C 0.5642 0.49516 1.02735 0.0
C212 C 0.5846 0.53223 1.01559 0.0
C213 C 0.5661 0.51369 1.01258 0.0
C214 C 0.59975 0.51432 0.04888 0.0
C215 C 0.60182 0.53275 0.03316 0.0
C216 C 0.58122 0.49578 0.04594 0.0
C217 C 0.48227 0.40493 0.9762 0.0
C218 C 0.49198 0.40573 0.90961 0.0
C219 C 0.46287 0.37523 0.93504 0.0
C220 C 0.46618 0.3848 0.97076 0.0
C221 C 0.4756 0.3856 0.90382 0.0
C222 C 0.49529 0.4153 0.94547 0.0
C223 C 0.48461 0.41483 1.01383 0.0
O224 O 0.51255 0.44463 0.1135 0.0
O225 O 0.49784 0.46187 0.09098 0.0
O226 O 0.48378 0.4322 1.01427 0.0
O227 O 0.499 0.41529 0.03608 0.0
H228 H 0.46312 0.42234 0.10865 0.0
H229 H 0.43489 0.40669 0.15487 0.0
H230 H 0.47459 0.44763 0.24234 0.0
H231 H 0.50268 0.46288 0.19615 0.0
H232 H 0.58564 0.54599 1.00263 0.0
H233 H 0.55346 0.51376 0.99748 0.0
H234 H 0.61257 0.51414 0.063 0.0
H235 H 0.58047 0.48183 0.05735 0.0
H236 H 0.50225 0.41412 0.88641 0.0
H237 H 0.44994 0.3599 0.93168 0.0
H238 H 0.45591 0.37656 0.99409 0.0
H239 H 0.50785 0.43084 0.94912 0.0
C240 C 0.16883 0.39388 0.27931 0.0
C241 C 0.17683 0.41443 0.26705 0.0
C242 C 0.15055 0.40404 0.21776 0.0
C243 C 0.16779 0.41947 0.23681 0.0
C244 C 0.14232 0.38351 0.23056 0.0
C245 C 0.15133 0.37849 0.26088 0.0
U246 U 0.17495 0.37543 0.37973 0.0
O247 O 0.18741 0.35477 0.39532 0.0
O248 O 0.20251 0.38682 0.41566 0.0
C249 C 0.20331 0.36946 0.41306 0.0
C250 C 0.17991 0.38865 0.30883 0.0
C251 C 0.22361 0.37091 0.40495 0.0
C252 C 0.24475 0.35395 0.40268 0.0
C253 C 0.22553 0.35292 0.40619 0.0
C254 C 0.26069 0.39105 0.39599 0.0
C255 C 0.26266 0.37306 0.39809 0.0
C256 C 0.24141 0.39001 0.39938 0.0
C257 C 0.13127 0.36111 0.45402 0.0
C258 C 0.13113 0.35042 0.51969 0.0
C259 C 0.10222 0.35339 0.49563 0.0
C260 C 0.1119 0.35942 0.46009 0.0
C261 C 0.11171 0.34889 0.52605 0.0
C262 C 0.14081 0.35646 0.48398 0.0
C263 C 0.14116 0.36813 0.41641 0.0
O264 O 0.18693 0.4011 0.33839 0.0
O265 O 0.17223 0.36907 0.31809 0.0
O266 O 0.14277 0.35429 0.39521 0.0
O267 O 0.15771 0.38631 0.41555 0.0
H268 H 0.19039 0.42662 0.28042 0.0
H269 H 0.17443 0.43548 0.22821 0.0
H270 H 0.12928 0.37113 0.21634 0.0
H271 H 0.14483 0.36245 0.2692 0.0
H272 H 0.24562 0.33979 0.40506 0.0
H273 H 0.21217 0.33802 0.41098 0.0
H274 H 0.27409 0.40601 0.39209 0.0
H275 H 0.24056 0.40422 0.39842 0.0
H276 H 0.13883 0.34689 0.54228 0.0
H277 H 0.08749 0.35276 0.49948 0.0
H278 H 0.10431 0.36302 0.43737 0.0
H279 H 0.15576 0.35763 0.47983 0.0
C280 C 0.75261 0.75262 0.2804 0.0
C281 C 0.7483 0.73272 0.29168 0.0
C282 C 0.73779 0.71985 0.22674 0.0
C283 C 0.74094 0.71649 0.26513 0.0
C284 C 0.74254 0.73996 0.21557 0.0
C285 C 0.74984 0.75613 0.24213 0.0
U286 U 0.77449 0.77859 0.37756 0.0
O287 O 0.79598 0.81129 0.39034 0.0
O288 O 0.76487 0.7966 0.41424 0.0
C289 C 0.78219 0.81387 0.40962 0.0
C290 C 0.75932 0.76977 0.30807 0.0
C291 C 0.78088 0.83299 0.40176 0.0
C292 C 0.79831 0.87055 0.39584 0.0
C293 C 0.799 0.85198 0.39846 0.0
C294 C 0.76129 0.8516 0.39902 0.0
C295 C 0.77947 0.87067 0.39677 0.0
C296 C 0.76198 0.83301 0.40151 0.0
C297 C 0.78935 0.74961 0.4523 0.0
C298 C 0.7981 0.75971 0.51866 0.0
C299 C 0.79989 0.73005 0.49372 0.0
C300 C 0.79362 0.73329 0.45797 0.0
C301 C 0.80203 0.74308 0.52472 0.0
C302 C 0.79183 0.76295 0.48278 0.0
C303 C 0.7817 0.75185 0.41477 0.0
O304 O 0.74797 0.76599 0.33889 0.0
O305 O 0.77908 0.78004 0.31521 0.0
O306 O 0.79516 0.76605 0.39202 0.0
O307 O 0.76384 0.7514 0.4148 0.0
H308 H 0.75042 0.72969 0.32107 0.0
H309 H 0.73772 0.7013 0.27469 0.0
H310 H 0.74008 0.74312 0.18648 0.0
H311 H 0.75302 0.77136 0.23285 0.0
H312 H 0.81264 0.8849 0.3947 0.0
H313 H 0.81381 0.85255 0.39917 0.0
H314 H 0.74649 0.85106 0.39938 0.0
H315 H 0.74769 0.81871 0.40422 0.0
H316 H 0.79982 0.77022 0.54167 0.0
H317 H 0.80246 0.71693 0.49729 0.0
H318 H 0.79174 0.72278 0.43483 0.0
H319 H 0.78868 0.77569 0.47895 0.0
C320 C 0.37925 1.00396 0.48022 0.0
C321 C 0.39494 1.02337 0.46867 0.0
C322 C 0.39787 0.0367 0.53362 0.0
C323 C 0.40414 0.03959 0.49509 0.0
C324 C 0.38238 1.01705 0.54502 0.0
C325 C 0.3732 1.00091 0.51861 0.0
U326 U 0.37395 0.97635 0.38365 0.0
O327 O 0.36191 0.94321 0.37212 0.0
O328 O 0.34632 0.95929 0.34816 0.0
C329 C 0.34584 0.94147 0.35349 0.0
C330 C 0.36852 0.98686 0.45282 0.0
C331 C 0.32559 0.92371 0.36343 0.0
C332 C 0.30327 0.89532 0.40525 0.0
C333 C 0.32228 0.9127 0.3977 0.0
C334 C 0.29044 0.89974 0.34468 0.0
C335 C 0.28707 0.88852 0.37877 0.0
C336 C 0.30945 0.91706 0.33712 0.0
C337 C 0.41777 1.00229 0.30786 0.0
C338 C 0.42969 1.01934 0.24623 0.0
C339 C 0.44163 0.99618 0.26906 0.0
C340 C 0.42972 0.99246 0.3021 0.0
C341 C 0.44205 1.00992 0.24087 0.0
C342 C 0.41779 1.01564 0.27932 0.0
C343 C 0.40741 1.00076 0.34508 0.0
O344 O 0.36148 0.99125 0.42187 0.0
O345 O 0.37706 0.97522 0.44602 0.0
O346 O 0.40625 0.98667 0.36929 0.0
O347 O 0.39073 1.00265 0.34466 0.0
H348 H 0.39993 1.02604 0.43918 0.0
H349 H 0.41618 0.0544 0.48533 0.0
H350 H 0.37693 1.01427 0.5742 0.0
H351 H 0.36108 0.98606 0.5281 0.0
H352 H 0.3014 0.88699 0.4316 0.0
H353 H 0.33443 0.91736 0.41854 0.0
H354 H 0.27831 0.89526 0.32387 0.0
H355 H 0.31159 0.92524 0.31046 0.0
H356 H 0.42937 1.02981 0.22503 0.0
H357 H 0.45115 0.98887 0.26638 0.0
H358 H 0.43042 0.98235 0.32365 0.0
H359 H 0.40902 1.0237 0.283 0.0
C360 C 0.40224 0.40299 0.28355 0.0
C361 C 0.4218 0.4068 0.29508 0.0
C362 C 0.43496 0.41733 0.23029 0.0
C363 C 0.43801 0.41393 0.26872 0.0
C364 C 0.4152 0.41311 0.21891 0.0
C365 C 0.39905 0.40605 0.24527 0.0
U366 U 0.37559 0.38052 0.37995 0.0
O367 O 0.35744 0.39014 0.41624 0.0
O368 O 0.34306 0.35895 0.39187 0.0
C369 C 0.34034 0.37272 0.41117 0.0
C370 C 0.38507 0.39635 0.31092 0.0
C371 C 0.32143 0.37422 0.40325 0.0
C372 C 0.28635 0.35895 0.37923 0.0
C373 C 0.30514 0.35893 0.382 0.0
C374 C 0.29981 0.38982 0.41795 0.0
C375 C 0.28329 0.37419 0.39773 0.0
C376 C 0.31857 0.38978 0.42081 0.0
C377 C 0.40343 0.36391 0.45494 0.0
C378 C 0.39613 0.33456 0.4961 0.0
C379 C 0.42218 0.3688 0.51445 0.0
C380 C 0.41831 0.37688 0.48128 0.0
C381 C 0.41137 0.34746 0.52207 0.0
C382 C 0.39222 0.34265 0.46298 0.0
C383 C 0.40141 0.37245 0.41779 0.0
O384 O 0.37451 0.37641 0.31752 0.0
O385 O 0.38881 0.40757 0.34201 0.0
O386 O 0.40209 0.39056 0.41853 0.0
O387 O 0.38786 0.35953 0.39347 0.0
H388 H 0.42457 0.40444 0.32449 0.0
H389 H 0.45293 0.41675 0.27845 0.0
H390 H 0.41228 0.41578 0.1898 0.0
H391 H 0.38408 0.40324 0.2358 0.0
H392 H 0.27409 0.3468 0.36303 0.0
H393 H 0.30665 0.34657 0.36836 0.0
H394 H 0.298 0.40164 0.43305 0.0
H395 H 0.33063 0.40158 0.43795 0.0
H396 H 0.38767 0.31803 0.50058 0.0
H397 H 0.43381 0.37929 0.53394 0.0
H398 H 0.42735 0.39328 0.47577 0.0
H399 H 0.38081 0.33211 0.4432 0.0
C400 C 0.75817 0.98571 0.28006 0.0
C401 C 0.73778 0.97745 0.26768 0.0
C402 C 0.74786 1.00413 0.21884 0.0
C403 C 0.73267 0.98656 0.23761 0.0
C404 C 0.76824 1.01264 0.2318 0.0
C405 C 0.77334 1.00355 0.26197 0.0
U406 U 0.77689 0.97929 0.37999 0.0
O407 O 0.76514 0.95135 0.41582 0.0
O408 O 0.79691 0.96619 0.3952 0.0
C409 C 0.78221 0.95026 0.41299 0.0
C410 C 0.76345 0.9745 0.30935 0.0
C411 C 0.78014 0.92955 0.40498 0.0
C412 C 0.79264 0.90768 0.37577 0.0
C413 C 0.79326 0.92688 0.3793 0.0
C414 C 0.76541 0.89322 0.42259 0.0
C415 C 0.77892 0.89065 0.3978 0.0
C416 C 0.76608 0.91242 0.42622 0.0
C417 C 0.79185 1.02287 0.45513 0.0
C418 C 0.79707 1.0206 0.52308 0.0
C419 C 0.80397 0.05334 0.49558 0.0
C420 C 0.79835 0.04399 0.45965 0.0
C421 C 0.80319 0.04175 0.52793 0.0
C422 C 0.79146 1.01126 0.48702 0.0
C423 C 0.78476 1.01331 0.41724 0.0
O424 O 0.78293 0.98209 0.31821 0.0
O425 O 0.75123 0.96754 0.33914 0.0
O426 O 0.76653 0.99688 0.41608 0.0
O427 O 0.79833 1.01157 0.39571 0.0
H428 H 0.72576 0.96363 0.28082 0.0
H429 H 0.71678 0.9797 0.2289 0.0
H430 H 0.78045 1.02596 0.21781 0.0
H431 H 0.78926 1.01027 0.27043 0.0
H432 H 0.80312 0.90623 0.35608 0.0
H433 H 0.80436 0.93973 0.36255 0.0
H434 H 0.75484 0.8806 0.44044 0.0
H435 H 0.75597 0.91403 0.44662 0.0
H436 H 0.79654 1.01124 0.54719 0.0
H437 H 0.80829 0.06953 0.49814 0.0
H438 H 0.79869 0.05321 0.43541 0.0
H439 H 0.78656 0.99494 0.48413 0.0
C440 C 0.17413 0.75693 0.28066 0.0
C441 C 0.1846 0.74757 0.26334 0.0
C442 C 0.15602 0.72843 0.21976 0.0
C443 C 0.17567 0.73347 0.23337 0.0
C444 C 0.14529 0.73738 0.23796 0.0
C445 C 0.15423 0.75146 0.26805 0.0
U446 U 0.17914 0.7838 0.37852 0.0
O447 O 0.20638 0.79975 0.4153 0.0
O448 O 0.19205 0.81695 0.39099 0.0
C449 C 0.20743 0.81788 0.41081 0.0
C450 C 0.18492 0.77339 0.30953 0.0
C451 C 0.22791 0.83535 0.40205 0.0
C452 C 0.25533 0.85607 0.35747 0.0
C453 C 0.23611 0.83893 0.36503 0.0
C454 C 0.25841 0.86611 0.42387 0.0
C455 C 0.26673 0.86998 0.38679 0.0
C456 C 0.23924 0.84901 0.43135 0.0
C457 C 0.13392 0.75887 0.45174 0.0
C458 C 0.12557 0.7469 0.51761 0.0
C459 C 0.10606 0.76061 0.48548 0.0
C460 C 0.11806 0.76405 0.45269 0.0
C461 C 0.10945 0.75175 0.5183 0.0
C462 C 0.13761 0.75036 0.48475 0.0
C463 C 0.1447 0.76013 0.41514 0.0
O464 O 0.17749 0.78603 0.31624 0.0
O465 O 0.19106 0.76809 0.34061 0.0
O466 O 0.16089 0.7574 0.41637 0.0
O467 O 0.14686 0.77467 0.39107 0.0
H468 H 0.19995 0.75151 0.27247 0.0
H469 H 0.18428 0.72667 0.22062 0.0
H470 H 0.13025 0.73411 0.22812 0.0
H471 H 0.14574 0.75842 0.28075 0.0
H472 H 0.26131 0.85832 0.32867 0.0
H473 H 0.22763 0.82854 0.34199 0.0
H474 H 0.2665 0.87654 0.4471 0.0
H475 H 0.23315 0.84658 0.46011 0.0
H476 H 0.1288 0.74025 0.54239 0.0
H477 H 0.09359 0.76422 0.48454 0.0
H478 H 0.11448 0.77021 0.42761 0.0
H479 H 0.1495 0.74592 0.48501 0.0
C480 C 0.81803 0.69427 0.81262 0.0
C481 C 0.81545 0.70964 0.8317 0.0
C482 C 0.78919 0.68377 0.87316 0.0
C483 C 0.80121 0.70445 0.8615 0.0
C484 C 0.79148 0.66839 0.85343 0.0
C485 C 0.80575 0.67358 0.82371 0.0
U486 U 0.84355 0.71296 0.71311 0.0
O487 O 0.87601 0.73318 0.69874 0.0
O488 O 0.86047 0.70114 0.67843 0.0
C489 C 0.87793 0.71839 0.68148 0.0
C490 C 0.83457 0.69958 0.78381 0.0
C491 C 0.89617 0.71628 0.69149 0.0
C492 C 0.92317 0.72051 0.73561 0.0
C493 C 0.90535 0.72178 0.72765 0.0
C494 C 0.92278 0.70798 0.67165 0.0
C495 C 0.9322 0.71366 0.70767 0.0
C496 C 0.90501 0.70931 0.6637 0.0
C497 C 0.81518 0.72766 0.6365 0.0
C498 C 0.8216 0.73137 0.56808 0.0
C499 C 0.79753 0.74082 0.59613 0.0
C500 C 0.8014 0.73537 0.63217 0.0
C501 C 0.80738 0.73867 0.56346 0.0
C502 C 0.82548 0.72593 0.60425 0.0
C503 C 0.81765 0.72064 0.67459 0.0
O504 O 0.8301 0.68722 0.75419 0.0
O505 O 0.84586 0.71919 0.77484 0.0
O506 O 0.83221 0.73442 0.69628 0.0
O507 O 0.81649 0.70234 0.67617 0.0
H508 H 0.82478 0.72577 0.82431 0.0
H509 H 0.80017 0.7168 0.87627 0.0
H510 H 0.78235 0.65229 0.86115 0.0
H511 H 0.80748 0.66139 0.80987 0.0
H512 H 0.93006 0.72525 0.76353 0.0
H513 H 0.89888 0.72725 0.74963 0.0
H514 H 0.929 0.70229 0.64961 0.0
H515 H 0.8982 0.70496 0.63562 0.0
H516 H 0.82969 0.72977 0.54369 0.0
H517 H 0.7863 0.74609 0.59378 0.0
H518 H 0.79323 0.73675 0.65667 0.0
H519 H 0.83625 0.72009 0.60695 0.0
C520 C 0.42148 0.08694 0.61523 0.0
C521 C 0.41796 0.06724 0.62617 0.0
C522 C 0.40679 0.05419 0.56153 0.0
C523 C 0.41066 0.05102 0.5996 0.0
C524 C 0.41077 0.07412 0.55069 0.0
C525 C 0.41801 0.09028 0.57727 0.0
U526 U 0.44304 0.11268 0.71266 0.0
O527 O 0.46439 0.14536 0.72584 0.0
O528 O 0.43321 0.1305 0.74941 0.0
C529 C 0.45051 0.14782 0.74505 0.0
C530 C 0.42808 0.10403 0.64301 0.0
C531 C 0.44915 0.16694 0.73738 0.0
C532 C 0.46651 0.20449 0.73118 0.0
C533 C 0.46723 0.18592 0.73356 0.0
C534 C 0.42953 0.18555 0.73568 0.0
C535 C 0.44768 0.20461 0.7329 0.0
C536 C 0.43024 0.16696 0.73793 0.0
C537 C 0.45773 0.08349 0.7873 0.0
C538 C 0.46558 0.09285 0.85416 0.0
C539 C 0.46859 0.06403 0.82829 0.0
C540 C 0.46251 0.06749 0.79252 0.0
C541 C 0.47 0.07651 0.85977 0.0
C542 C 0.45951 0.09631 0.81827 0.0
C543 C 0.45021 0.08588 0.74974 0.0
O544 O 0.41664 0.10014 0.67372 0.0
O545 O 0.44782 0.11432 0.65036 0.0
O546 O 0.46373 0.10019 0.72723 0.0
O547 O 0.43232 0.08538 0.7496 0.0
H548 H 0.42063 0.06436 0.65533 0.0
H549 H 0.40805 0.03598 0.6089 0.0
H550 H 0.40773 0.07713 0.52188 0.0
H551 H 0.42058 0.10535 0.56827 0.0
H552 H 0.48082 0.21883 0.72961 0.0
H553 H 0.48205 0.1865 0.73366 0.0
H554 H 0.41473 0.185 0.73666 0.0
H555 H 0.41598 0.15268 0.74109 0.0
H556 H 0.46674 0.10295 0.87756 0.0
H557 H 0.47155 0.05114 0.83148 0.0
H558 H 0.46117 0.05738 0.769 0.0
H559 H 0.45596 0.1088 0.81481 0.0
C560 C 0.04458 0.33436 0.81055 0.0
C561 C 0.0601 0.35388 0.7991 0.0
C562 C 0.06263 0.36712 0.86401 0.0
C563 C 0.06903 0.37011 0.82556 0.0
C564 C 0.04734 0.34737 0.87534 0.0
C565 C 1.03842 0.3312 0.84888 0.0
U566 U 1.03974 0.308 0.71298 0.0
O567 O 1.02849 0.27505 0.69994 0.0
O568 O 1.01239 0.29089 0.6772 0.0
C569 C 1.01237 0.2732 0.6814 0.0
C570 C 1.03409 0.3173 0.78298 0.0
C571 C 0.99238 0.25461 0.68984 0.0
C572 C 0.97225 0.21703 0.69313 0.0
C573 C 0.99119 0.23505 0.68977 0.0
C574 C 0.95517 0.23771 0.69746 0.0
C575 C 0.95391 0.21807 0.69636 0.0
C576 C 0.97415 0.25575 0.69424 0.0
C577 C 0.08243 0.33588 0.63699 0.0
C578 C 0.08025 0.33103 0.56811 0.0
C579 C 0.11333 0.35153 0.59783 0.0
C580 C 0.1038 0.34779 0.63362 0.0
C581 C 0.10168 0.34347 0.56447 0.0
C582 C 0.07073 0.32726 0.60399 0.0
C583 C 0.07279 0.33376 0.67486 0.0
O584 O 1.0265 0.32154 0.75262 0.0
O585 O 1.04325 0.30634 0.77513 0.0
O586 O 0.07216 0.31924 0.69725 0.0
O587 O 0.05581 0.3351 0.67578 0.0
H588 H 0.06515 0.35663 0.76966 0.0
H589 H 0.08094 0.385 0.81586 0.0
H590 H 1.04182 0.34451 0.90448 0.0
H591 H 1.02643 0.31627 0.85828 0.0
H592 H 0.97193 0.20225 0.6916 0.0
H593 H 1.0049 0.23363 0.68591 0.0
H594 H 0.94142 0.23914 0.70036 0.0
H595 H 0.97444 0.27053 0.69429 0.0
H596 H 0.07079 0.32429 0.54317 0.0
H597 H 0.12979 0.36136 0.59625 0.0
H598 H 0.11312 0.35465 0.6587 0.0
H599 H 0.05421 0.31792 0.60588 0.0
C600 C 0.06668 0.73594 0.61257 0.0
C601 C 0.07482 0.72291 0.60253 0.0
C602 C 0.09561 0.74681 0.55226 0.0
C603 C 0.08911 0.72829 0.57271 0.0
C604 C 0.08792 0.7601 0.56337 0.0
C605 C 0.07362 0.7547 0.59307 0.0
U606 U 1.04004 0.71375 0.70986 0.0
O607 O 1.02241 0.72402 0.74615 0.0
O608 O 1.00732 0.6929 0.72154 0.0
C609 C 1.00509 0.70681 0.74133 0.0
C610 C 0.04997 0.7298 0.64107 0.0
C611 C 0.9869 0.70905 0.73218 0.0
C612 C 0.96664 0.71732 0.68825 0.0
C613 C 0.9843 0.71573 0.69621 0.0
C614 C 0.95406 0.70568 0.75215 0.0
C615 C 0.95122 0.71227 0.71612 0.0
C616 C 0.97169 0.70411 0.76003 0.0
C617 C 0.06653 0.69522 0.78438 0.0
C618 C 0.06279 0.66554 0.82097 0.0
C619 C 0.08098 0.69974 0.84839 0.0
C620 C 0.07738 0.70805 0.81522 0.0
C621 C 0.07397 0.67838 0.85157 0.0
C622 C 0.05918 0.67384 0.78785 0.0
C623 C 0.06498 0.7043 0.74742 0.0
O624 O 1.03856 0.70991 0.64756 0.0
O625 O 0.05432 0.74106 0.67222 0.0
O626 O 0.06633 0.7227 0.74845 0.0
O627 O 0.05124 0.6918 0.72287 0.0
H628 H 0.06977 0.70832 0.61703 0.0
H629 H 0.09449 0.71754 0.56483 0.0
H630 H 0.09279 0.77465 0.54884 0.0
H631 H 0.06761 0.76502 0.60027 0.0
H632 H 0.96517 0.72271 0.66036 0.0
H633 H 0.99589 0.71966 0.67431 0.0
H634 H 0.94249 0.70136 0.77417 0.0
H635 H 0.97337 0.69886 0.78794 0.0
H636 H 0.05744 0.64908 0.82194 0.0
H637 H 0.08945 0.71012 0.87144 0.0
H638 H 0.08354 0.72462 0.81341 0.0
H639 H 0.05112 0.66349 0.76449 0.0
C640 C 0.4268 0.32001 0.61703 0.0
C641 C 0.40628 0.31253 0.60604 0.0
C642 C 0.41658 0.33857 0.55591 0.0
C643 C 0.40121 0.32172 0.57603 0.0
C644 C 0.4371 0.34629 0.56743 0.0
C645 C 0.44216 0.33714 0.59752 0.0
U646 U 0.44522 0.31329 0.71704 0.0
O647 O 0.43336 0.28528 0.75268 0.0
O648 O 0.46518 0.30013 0.73231 0.0
C649 C 0.45043 0.28417 0.74995 0.0
C650 C 0.43196 0.30869 0.64629 0.0
C651 C 0.44835 0.26347 0.74181 0.0
C652 C 0.46062 0.24157 0.71185 0.0
C653 C 0.46123 0.26077 0.71557 0.0
C654 C 0.43386 0.2272 0.7596 0.0
C655 C 0.44713 0.22459 0.73422 0.0
C656 C 0.43453 0.24639 0.76342 0.0
C657 C 0.46008 0.35681 0.79238 0.0
C658 C 0.46413 0.35441 0.86074 0.0
C659 C 0.47299 0.3875 0.83241 0.0
C660 C 0.4675 0.37812 0.7965 0.0
C661 C 0.47116 0.37576 0.86517 0.0
C662 C 0.45866 0.34503 0.8247 0.0
C663 C 0.45306 0.34727 0.75444 0.0
O664 O 0.45141 0.31621 0.6553 0.0
O665 O 0.41967 0.30166 0.67598 0.0
O666 O 0.43483 0.33086 0.75312 0.0
O667 O 0.46667 0.34555 0.733 0.0
H668 H 0.3941 0.29925 0.62022 0.0
H669 H 0.38523 0.31548 0.56842 0.0
H670 H 0.44942 0.35902 0.55235 0.0
H671 H 0.45816 0.34321 0.60482 0.0
H672 H 0.4709 0.2401 0.69171 0.0
H673 H 0.47213 0.27359 0.69851 0.0
H674 H 0.42348 0.21461 0.77771 0.0
H675 H 0.42462 0.24802 0.78422 0.0
H676 H 0.46278 0.34491 0.88518 0.0
H677 H 0.47805 0.40388 0.83462 0.0
H678 H 0.46864 0.38748 0.77193 0.0
H679 H 0.45304 0.32856 0.82215 0.0
C680 C 0.817 0.1094 0.81209 0.0
C681 C 0.79761 0.09375 0.80073 0.0
C682 C 0.78436 0.09161 0.86546 0.0
C683 C 0.78145 0.08495 0.82714 0.0
C684 C 0.80398 0.10702 0.87671 0.0
C685 C 0.82008 0.11581 0.85029 0.0
U686 U 0.84293 0.11373 0.7145 0.0
O687 O 0.86006 0.14122 0.6784 0.0
O688 O 0.87545 0.12461 0.70087 0.0
C689 C 0.87749 0.14095 0.68231 0.0
C690 C 0.83398 0.11977 0.78449 0.0
C691 C 0.8961 0.16108 0.69019 0.0
C692 C 0.93081 0.18089 0.71554 0.0
C693 C 0.91233 0.1623 0.71252 0.0
C694 C 0.91713 0.19764 0.67484 0.0
C695 C 0.93359 0.19876 0.69624 0.0
C696 C 0.89869 0.17906 0.67173 0.0
C697 C 0.81459 0.07064 0.63924 0.0
C698 C 0.82359 0.07198 0.57211 0.0
C699 C 0.79578 0.04069 0.59833 0.0
C700 C 0.79915 0.05017 0.63415 0.0
C701 C 0.8078 0.05151 0.56666 0.0
C702 C 0.82695 0.08145 0.60807 0.0
C703 C 0.81687 0.08046 0.67695 0.0
O704 O 0.84466 0.11033 0.77668 0.0
O705 O 0.82987 0.12747 0.75408 0.0
O706 O 0.8159 0.09775 0.67753 0.0
O707 O 0.8313 0.08099 0.69917 0.0
H708 H 0.79492 0.08851 0.77138 0.0
H709 H 0.76666 0.07295 0.81752 0.0
H710 H 0.80678 0.11274 0.90573 0.0
H711 H 0.83491 0.12791 0.85961 0.0
H712 H 0.94305 0.1812 0.73262 0.0
H713 H 0.91101 0.14877 0.72693 0.0
H714 H 0.91875 0.21093 0.65909 0.0
H715 H 0.88667 0.1786 0.65378 0.0
H716 H 0.83332 0.08071 0.54855 0.0
H717 H 0.78332 1.02507 0.59526 0.0
H718 H 0.78939 0.04158 0.65783 0.0
H719 H 0.83902 0.09726 0.61143 0.0
loop_
_geom_bond_atom_site_label_1
_geom_bond_atom_site_label_2
_geom_bond_distance
_geom_bond_site_symmetry_2
_ccdc_geom_bond_type
C0 C1 1.264 . S
C0 C5 1.479 1_545 S
C0 C10 1.465 . S
C1 C0 1.264 . S
C1 C3 1.339 1_545 S
C1 H28 0.931 . S
C2 C3 1.395 . S
C2 C4 1.320 . S
C3 C1 1.339 1_565 S
C3 C2 1.395 . S
C3 H29 0.929 . S
C4 C2 1.320 . S
C4 C5 1.405 . S
C4 H30 0.930 . S
C5 C0 1.479 1_565 S
C5 C4 1.405 . S
C5 H31 0.931 . S
U6 O7 2.454 . S
U6 O8 2.458 . S
U6 C9 2.984 . S
U6 C10 2.847 . S
U6 C23 2.882 1_554 S
U6 O24 2.441 . S
U6 O25 2.420 . S
U6 O26 2.455 1_554 S
U6 O27 2.449 . S
O7 U6 2.454 . S
O7 C9 1.353 . S
O8 U6 2.458 . S
O8 C9 1.286 . S
C9 U6 2.984 . S
C9 O7 1.353 . S
C9 O8 1.286 . S
C9 C11 1.363 . S
C10 C0 1.465 . S
C10 U6 2.847 . S
C10 O24 1.249 . S
C10 O25 1.202 . S
C11 C9 1.363 . S
C11 C13 1.408 . S
C11 C16 1.342 1_554 S
C12 C13 1.310 . S
C12 C15 1.461 . S
C12 H32 0.932 . S
C13 C11 1.408 . S
C13 C12 1.310 . S
C13 H33 0.930 . S
C14 C15 1.474 1_556 S
C14 C16 1.285 . S
C14 H34 0.929 . S
C15 C12 1.461 . S
C15 C14 1.474 1_554 S
C16 C11 1.342 1_556 S
C16 C14 1.285 . S
C16 H35 0.930 . S
C17 C20 1.424 . S
C17 C22 1.245 . S
C17 C23 1.428 . S
C18 C21 1.260 . S
C18 C22 1.477 . S
C18 H36 0.932 . S
C19 C20 1.384 . S
C19 C21 1.479 . S
C19 H37 0.929 . S
C20 C17 1.424 . S
C20 C19 1.384 . S
C20 H38 0.928 . S
C21 C18 1.260 . S
C21 C19 1.479 . S
C22 C17 1.245 . S
C22 C18 1.477 . S
C22 H39 0.932 . S
C23 U6 2.882 1_556 S
C23 C17 1.428 . S
C23 O26 1.301 . S
C23 O27 1.282 1_556 S
O24 U6 2.441 . S
O24 C10 1.249 . S
O25 U6 2.420 . S
O25 C10 1.202 . S
O26 U6 2.455 1_556 S
O26 C23 1.301 . S
O27 U6 2.449 . S
O27 C23 1.282 1_554 S
H28 C1 0.931 . S
H29 C3 0.929 . S
H30 C4 0.930 . S
H31 C5 0.931 . S
H32 C12 0.932 . S
H33 C13 0.930 . S
H34 C14 0.929 . S
H35 C16 0.930 . S
H36 C18 0.932 . S
H37 C19 0.929 . S
H38 C20 0.928 . S
H39 C22 0.932 . S
C40 C41 1.264 . S
C40 C45 1.479 . S
C40 C50 1.465 . S
C41 C40 1.264 . S
C41 C43 1.339 . S
C41 H68 0.931 . S
C42 C43 1.395 . S
C42 C44 1.320 . S
C43 C41 1.339 . S
C43 C42 1.395 . S
C43 H69 0.929 . S
C44 C42 1.320 . S
C44 C45 1.405 . S
C44 H70 0.930 . S
C45 C40 1.479 . S
C45 C44 1.405 . S
C45 H71 0.931 . S
U46 O47 2.454 1_554 S
U46 O48 2.458 . S
U46 C49 2.984 . S
U46 C50 2.847 1_554 S
U46 C63 2.882 . S
U46 O64 2.441 1_554 S
U46 O65 2.420 1_554 S
U46 O66 2.455 . S
U46 O67 2.449 . S
O47 U46 2.454 1_556 S
O47 C49 1.353 1_556 S
O48 U46 2.458 . S
O48 C49 1.286 . S
C49 U46 2.984 . S
C49 O47 1.353 1_554 S
C49 O48 1.286 . S
C49 C51 1.363 . S
C50 C40 1.465 . S
C50 U46 2.847 1_556 S
C50 O64 1.249 . S
C50 O65 1.202 . S
C51 C49 1.363 . S
C51 C53 1.408 1_554 S
C51 C56 1.342 . S
C52 C53 1.310 . S
C52 C55 1.461 1_556 S
C52 H72 0.932 . S
C53 C51 1.408 1_556 S
C53 C52 1.310 . S
C53 H73 0.930 . S
C54 C55 1.474 . S
C54 C56 1.285 . S
C54 H74 0.929 . S
C55 C52 1.461 1_554 S
C55 C54 1.474 . S
C56 C51 1.342 . S
C56 C54 1.285 . S
C56 H75 0.930 . S
C57 C60 1.424 . S
C57 C62 1.245 . S
C57 C63 1.428 . S
C58 C61 1.260 . S
C58 C62 1.477 . S
C58 H76 0.932 . S
C59 C60 1.384 . S
C59 C61 1.479 . S
C59 H77 0.929 . S
C60 C57 1.424 . S
C60 C59 1.384 . S
C60 H78 0.928 . S
C61 C58 1.260 . S
C61 C59 1.479 . S
C62 C57 1.245 . S
C62 C58 1.477 . S
C62 H79 0.932 . S
C63 U46 2.882 . S
C63 C57 1.428 . S
C63 O66 1.301 . S
C63 O67 1.282 . S
O64 U46 2.441 1_556 S
O64 C50 1.249 . S
O65 U46 2.420 1_556 S
O65 C50 1.202 . S
O66 U46 2.455 . S
O66 C63 1.301 . S
O67 U46 2.449 . S
O67 C63 1.282 . S
H68 C41 0.931 . S
H69 C43 0.929 . S
H70 C44 0.930 . S
H71 C45 0.931 . S
H72 C52 0.932 . S
H73 C53 0.930 . S
H74 C54 0.929 . S
H75 C56 0.930 . S
H76 C58 0.932 . S
H77 C59 0.929 . S
H78 C60 0.928 . S
H79 C62 0.932 . S
C80 C81 1.264 . S
C80 C85 1.479 . S
C80 C90 1.465 . S
C81 C80 1.264 . S
C81 C83 1.339 . S
C81 H108 0.931 . S
C82 C83 1.395 . S
C82 C84 1.320 . S
C83 C81 1.339 . S
C83 C82 1.395 . S
C83 H109 0.929 . S
C84 C82 1.320 . S
C84 C85 1.405 . S
C84 H110 0.930 . S
C85 C80 1.479 . S
C85 C84 1.405 . S
C85 H111 0.931 . S
U86 O87 2.454 . S
U86 O88 2.458 1_554 S
U86 C89 2.984 . S
U86 C90 2.847 . S
U86 C103 2.882 1_554 S
U86 O104 2.441 . S
U86 O105 2.420 . S
U86 O106 2.455 1_554 S
U86 O107 2.449 1_554 S
O87 U86 2.454 . S
O87 C89 1.353 . S
O88 U86 2.458 1_556 S
O88 C89 1.286 1_556 S
C89 U86 2.984 . S
C89 O87 1.353 . S
C89 O88 1.286 1_554 S
C89 C91 1.363 . S
C90 C80 1.465 . S
C90 U86 2.847 . S
C90 O104 1.249 . S
C90 O105 1.202 . S
C91 C89 1.363 . S
C91 C93 1.408 . S
C91 C96 1.342 1_554 S
C92 C93 1.310 . S
C92 C95 1.461 . S
C92 H112 0.932 . S
C93 C91 1.408 . S
C93 C92 1.310 . S
C93 H113 0.930 . S
C94 C95 1.474 1_556 S
C94 C96 1.285 . S
C94 H114 0.929 . S
C95 C92 1.461 . S
C95 C94 1.474 1_554 S
C96 C91 1.342 1_556 S
C96 C94 1.285 . S
C96 H115 0.930 . S
C97 C100 1.424 . S
C97 C102 1.245 . S
C97 C103 1.428 . S
C98 C101 1.260 . S
C98 C102 1.477 . S
C98 H116 0.932 . S
C99 C100 1.384 . S
C99 C101 1.479 . S
C99 H117 0.929 . S
C100 C97 1.424 . S
C100 C99 1.384 . S
C100 H118 0.928 . S
C101 C98 1.260 . S
C101 C99 1.479 . S
C102 C97 1.245 . S
C102 C98 1.477 . S
C102 H119 0.932 . S
C103 U86 2.882 1_556 S
C103 C97 1.428 . S
C103 O106 1.301 . S
C103 O107 1.282 . S
O104 U86 2.441 . S
O104 C90 1.249 . S
O105 U86 2.420 . S
O105 C90 1.202 . S
O106 U86 2.455 1_556 S
O106 C103 1.301 . S
O107 U86 2.449 1_556 S
O107 C103 1.282 . S
H108 C81 0.931 . S
H109 C83 0.929 . S
H110 C84 0.930 . S
H111 C85 0.931 . S
H112 C92 0.932 . S
H113 C93 0.930 . S
H114 C94 0.929 . S
H115 C96 0.930 . S
H116 C98 0.932 . S
H117 C99 0.929 . S
H118 C100 0.928 . S
H119 C102 0.932 . S
C120 C121 1.264 . S
C120 C125 1.479 . S
C120 C130 1.465 . S
C121 C120 1.264 . S
C121 C123 1.339 . S
C121 H148 0.931 . S
C122 C123 1.395 . S
C122 C124 1.320 . S
C123 C121 1.339 . S
C123 C122 1.395 . S
C123 H149 0.929 . S
C124 C122 1.320 . S
C124 C125 1.405 . S
C124 H150 0.930 . S
C125 C120 1.479 . S
C125 C124 1.405 . S
C125 H151 0.931 . S
U126 O127 2.454 1_554 S
U126 O128 2.458 . S
U126 C129 2.984 . S
U126 C130 2.847 1_554 S
U126 C143 2.882 . S
U126 O144 2.441 1_554 S
U126 O145 2.420 1_554 S
U126 O146 2.455 . S
U126 O147 2.449 . S
O127 U126 2.454 1_556 S
O127 C129 1.353 1_556 S
O128 U126 2.458 . S
O128 C129 1.286 . S
C129 U126 2.984 . S
C129 O127 1.353 1_554 S
C129 O128 1.286 . S
C129 C131 1.363 . S
C130 C120 1.465 . S
C130 U126 2.847 1_556 S
C130 O144 1.249 . S
C130 O145 1.202 . S
C131 C129 1.363 . S
C131 C133 1.408 1_554 S
C131 C136 1.342 . S
C132 C133 1.310 . S
C132 C135 1.461 1_556 S
C132 H152 0.932 . S
C133 C131 1.408 1_556 S
C133 C132 1.310 . S
C133 H153 0.930 . S
C134 C135 1.474 . S
C134 C136 1.285 . S
C134 H154 0.929 . S
C135 C132 1.461 1_554 S
C135 C134 1.474 . S
C136 C131 1.342 . S
C136 C134 1.285 . S
C136 H155 0.930 . S
C137 C140 1.424 . S
C137 C142 1.245 . S
C137 C143 1.428 . S
C138 C141 1.260 . S
C138 C142 1.477 1_565 S
C138 H156 0.932 . S
C139 C140 1.355 1_565 S
C139 C141 1.487 . S
C139 H157 0.953 1_565 S
C140 C137 1.424 . S
C140 C139 1.355 1_545 S
C140 H158 0.928 . S
C141 C138 1.260 . S
C141 C139 1.487 . S
C142 C137 1.245 . S
C142 C138 1.477 1_545 S
C142 H159 0.910 . S
C143 U126 2.882 . S
C143 C137 1.428 . S
C143 O146 1.301 . S
C143 O147 1.282 . S
O144 U126 2.441 1_556 S
O144 C130 1.249 . S
O145 U126 2.420 1_556 S
O145 C130 1.202 . S
O146 U126 2.455 . S
O146 C143 1.301 . S
O147 U126 2.449 . S
O147 C143 1.282 . S
H148 C121 0.931 . S
H149 C123 0.929 . S
H150 C124 0.930 . S
H151 C125 0.931 . S
H152 C132 0.932 . S
H153 C133 0.930 . S
H154 C134 0.929 . S
H155 C136 0.930 . S
H156 C138 0.932 . S
H157 C139 0.953 1_545 S
H158 C140 0.928 . S
H159 C142 0.910 . S
C160 C161 1.264 . S
C160 C165 1.479 . S
C160 C170 1.465 . S
C161 C160 1.264 . S
C161 C163 1.339 . S
C161 H188 0.931 . S
C162 C163 1.395 . S
C162 C164 1.320 . S
C163 C161 1.339 . S
C163 C162 1.395 . S
C163 H189 0.929 . S
C164 C162 1.320 . S
C164 C165 1.405 . S
C164 H190 0.930 . S
C165 C160 1.479 . S
C165 C164 1.405 . S
C165 H191 0.931 . S
U166 O167 2.454 1_554 S
U166 O168 2.458 . S
U166 C169 2.984 . S
U166 C170 2.847 1_554 S
U166 C183 2.882 . S
U166 O184 2.441 1_554 S
U166 O185 2.420 1_554 S
U166 O186 2.455 . S
U166 O187 2.449 . S
O167 U166 2.454 1_556 S
O167 C169 1.353 1_556 S
O168 U166 2.458 . S
O168 C169 1.286 . S
C169 U166 2.984 . S
C169 O167 1.353 1_554 S
C169 O168 1.286 . S
C169 C171 1.363 . S
C170 C160 1.465 . S
C170 U166 2.847 1_556 S
C170 O184 1.249 . S
C170 O185 1.202 . S
C171 C169 1.363 . S
C171 C173 1.408 1_554 S
C171 C176 1.342 . S
C172 C173 1.310 . S
C172 C175 1.461 1_556 S
C172 H192 0.932 . S
C173 C171 1.408 1_556 S
C173 C172 1.310 . S
C173 H193 0.930 . S
C174 C175 1.474 . S
C174 C176 1.285 . S
C174 H194 0.929 . S
C175 C172 1.461 1_554 S
C175 C174 1.474 . S
C176 C171 1.342 . S
C176 C174 1.285 . S
C176 H195 0.930 . S
C177 C180 1.424 . S
C177 C182 1.245 . S
C177 C183 1.428 . S
C178 C181 1.260 . S
C178 C182 1.477 . S
C178 H196 0.932 . S
C179 C180 1.384 . S
C179 C181 1.479 . S
C179 H197 0.929 . S
C180 C177 1.424 . S
C180 C179 1.384 . S
C180 H198 0.928 . S
C181 C178 1.260 . S
C181 C179 1.479 . S
C182 C177 1.245 . S
C182 C178 1.477 . S
C182 H199 0.932 . S
C183 U166 2.882 . S
C183 C177 1.428 . S
C183 O186 1.301 . S
C183 O187 1.282 . S
O184 U166 2.441 1_556 S
O184 C170 1.249 . S
O185 U166 2.420 1_556 S
O185 C170 1.202 . S
O186 U166 2.455 . S
O186 C183 1.301 . S
O187 U166 2.449 . S
O187 C183 1.282 . S
H188 C161 0.931 . S
H189 C163 0.929 . S
H190 C164 0.930 . S
H191 C165 0.931 . S
H192 C172 0.932 . S
H193 C173 0.930 . S
H194 C174 0.929 . S
H195 C176 0.930 . S
H196 C178 0.932 . S
H197 C179 0.929 . S
H198 C180 0.928 . S
H199 C182 0.932 . S
C200 C201 1.264 . S
C200 C205 1.479 . S
C200 C210 1.465 . S
C201 C200 1.264 . S
C201 C203 1.339 . S
C201 H228 0.931 . S
C202 C203 1.395 . S
C202 C204 1.320 . S
C203 C201 1.339 . S
C203 C202 1.395 . S
C203 H229 0.929 . S
C204 C202 1.320 . S
C204 C205 1.405 . S
C204 H230 0.930 . S
C205 C200 1.479 . S
C205 C204 1.405 . S
C205 H231 0.931 . S
U206 O207 2.454 . S
U206 O208 2.458 1_554 S
U206 C209 2.984 . S
U206 C210 2.847 . S
U206 C223 2.882 1_554 S
U206 O224 2.441 . S
U206 O225 2.420 . S
U206 O226 2.455 1_554 S
U206 O227 2.449 1_554 S
O207 U206 2.454 . S
O207 C209 1.353 . S
O208 U206 2.458 1_556 S
O208 C209 1.286 1_556 S
C209 U206 2.984 . S
C209 O207 1.353 . S
C209 O208 1.286 1_554 S
C209 C211 1.363 . S
C210 C200 1.465 . S
C210 U206 2.847 . S
C210 O224 1.249 . S
C210 O225 1.202 . S
C211 C209 1.363 . S
C211 C213 1.408 . S
C211 C216 1.342 1_554 S
C212 C213 1.310 . S
C212 C215 1.461 . S
C212 H232 0.932 . S
C213 C211 1.408 . S
C213 C212 1.310 . S
C213 H233 0.930 . S
C214 C215 1.474 1_556 S
C214 C216 1.285 . S
C214 H234 0.929 . S
C215 C212 1.461 . S
C215 C214 1.474 1_554 S
C216 C211 1.342 1_556 S
C216 C214 1.285 . S
C216 H235 0.930 . S
C217 C220 1.424 . S
C217 C222 1.245 . S
C217 C223 1.428 . S
C218 C221 1.260 . S
C218 C222 1.477 . S
C218 H236 0.932 . S
C219 C220 1.384 . S
C219 C221 1.479 . S
C219 H237 0.929 . S
C220 C217 1.424 . S
C220 C219 1.384 . S
C220 H238 0.928 . S
C221 C218 1.260 . S
C221 C219 1.479 . S
C222 C217 1.245 . S
C222 C218 1.477 . S
C222 H239 0.932 . S
C223 U206 2.882 1_556 S
C223 C217 1.428 . S
C223 O226 1.301 . S
C223 O227 1.282 . S
O224 U206 2.441 . S
O224 C210 1.249 . S
O225 U206 2.420 . S
O225 C210 1.202 . S
O226 U206 2.455 1_556 S
O226 C223 1.301 . S
O227 U206 2.449 1_556 S
O227 C223 1.282 . S
H228 C201 0.931 . S
H229 C203 0.929 . S
H230 C204 0.930 . S
H231 C205 0.931 . S
H232 C212 0.932 . S
H233 C213 0.930 . S
H234 C214 0.929 . S
H235 C216 0.930 . S
H236 C218 0.932 . S
H237 C219 0.929 . S
H238 C220 0.928 . S
H239 C222 0.932 . S
C240 C241 1.264 . S
C240 C245 1.479 . S
C240 C250 1.465 . S
C241 C240 1.264 . S
C241 C243 1.339 . S
C241 H268 0.931 . S
C242 C243 1.395 . S
C242 C244 1.320 . S
C243 C241 1.339 . S
C243 C242 1.395 . S
C243 H269 0.929 . S
C244 C242 1.320 . S
C244 C245 1.405 . S
C244 H270 0.930 . S
C245 C240 1.479 . S
C245 C244 1.405 . S
C245 H271 0.931 . S
U246 O247 2.454 . S
U246 O248 2.458 . S
U246 C249 2.984 . S
U246 C250 2.847 . S
U246 C263 2.882 . S
U246 O264 2.441 . S
U246 O265 2.420 . S
U246 O266 2.455 . S
U246 O267 2.449 . S
O247 U246 2.454 . S
O247 C249 1.353 . S
O248 U246 2.458 . S
O248 C249 1.286 . S
C249 U246 2.984 . S
C249 O247 1.353 . S
C249 O248 1.286 . S
C249 C251 1.363 . S
C250 C240 1.465 . S
C250 U246 2.847 . S
C250 O264 1.249 . S
C250 O265 1.202 . S
C251 C249 1.363 . S
C251 C253 1.408 . S
C251 C256 1.342 . S
C252 C253 1.310 . S
C252 C255 1.461 . S
C252 H272 0.932 . S
C253 C251 1.408 . S
C253 C252 1.310 . S
C253 H273 0.930 . S
C254 C255 1.474 . S
C254 C256 1.285 . S
C254 H274 0.929 . S
C255 C252 1.461 . S
C255 C254 1.474 . S
C256 C251 1.342 . S
C256 C254 1.285 . S
C256 H275 0.930 . S
C257 C260 1.424 . S
C257 C262 1.245 . S
C257 C263 1.428 . S
C258 C261 1.260 . S
C258 C262 1.477 . S
C258 H276 0.932 . S
C259 C260 1.384 . S
C259 C261 1.479 . S
C259 H277 0.929 . S
C260 C257 1.424 . S
C260 C259 1.384 . S
C260 H278 0.928 . S
C261 C258 1.260 . S
C261 C259 1.479 . S
C262 C257 1.245 . S
C262 C258 1.477 . S
C262 H279 0.932 . S
C263 U246 2.882 . S
C263 C257 1.428 . S
C263 O266 1.301 . S
C263 O267 1.282 . S
O264 U246 2.441 . S
O264 C250 1.249 . S
O265 U246 2.420 . S
O265 C250 1.202 . S
O266 U246 2.455 . S
O266 C263 1.301 . S
O267 U246 2.449 . S
O267 C263 1.282 . S
H268 C241 0.931 . S
H269 C243 0.929 . S
H270 C244 0.930 . S
H271 C245 0.931 . S
H272 C252 0.932 . S
H273 C253 0.930 . S
H274 C254 0.929 . S
H275 C256 0.930 . S
H276 C258 0.932 . S
H277 C259 0.929 . S
H278 C260 0.928 . S
H279 C262 0.932 . S
C280 C281 1.264 . S
C280 C285 1.479 . S
C280 C290 1.465 . S
C281 C280 1.264 . S
C281 C283 1.339 . S
C281 H308 0.931 . S
C282 C283 1.395 . S
C282 C284 1.320 . S
C283 C281 1.339 . S
C283 C282 1.395 . S
C283 H309 0.929 . S
C284 C282 1.320 . S
C284 C285 1.405 . S
C284 H310 0.930 . S
C285 C280 1.479 . S
C285 C284 1.405 . S
C285 H311 0.931 . S
U286 O287 2.454 . S
U286 O288 2.458 . S
U286 C289 2.984 . S
U286 C290 2.847 . S
U286 C303 2.882 . S
U286 O304 2.441 . S
U286 O305 2.420 . S
U286 O306 2.455 . S
U286 O307 2.449 . S
O287 U286 2.454 . S
O287 C289 1.353 . S
O288 U286 2.458 . S
O288 C289 1.286 . S
C289 U286 2.984 . S
C289 O287 1.353 . S
C289 O288 1.286 . S
C289 C291 1.363 . S
C290 C280 1.465 . S
C290 U286 2.847 . S
C290 O304 1.249 . S
C290 O305 1.202 . S
C291 C289 1.363 . S
C291 C293 1.408 . S
C291 C296 1.342 . S
C292 C293 1.310 . S
C292 C295 1.461 . S
C292 H312 0.932 . S
C293 C291 1.408 . S
C293 C292 1.310 . S
C293 H313 0.930 . S
C294 C295 1.474 . S
C294 C296 1.285 . S
C294 H314 0.929 . S
C295 C292 1.461 . S
C295 C294 1.474 . S
C296 C291 1.342 . S
C296 C294 1.285 . S
C296 H315 0.930 . S
C297 C300 1.424 . S
C297 C302 1.245 . S
C297 C303 1.428 . S
C298 C301 1.260 . S
C298 C302 1.477 . S
C298 H316 0.932 . S
C299 C300 1.384 . S
C299 C301 1.479 . S
C299 H317 0.929 . S
C300 C297 1.424 . S
C300 C299 1.384 . S
C300 H318 0.928 . S
C301 C298 1.260 . S
C301 C299 1.479 . S
C302 C297 1.245 . S
C302 C298 1.477 . S
C302 H319 0.932 . S
C303 U286 2.882 . S
C303 C297 1.428 . S
C303 O306 1.301 . S
C303 O307 1.282 . S
O304 U286 2.441 . S
O304 C290 1.249 . S
O305 U286 2.420 . S
O305 C290 1.202 . S
O306 U286 2.455 . S
O306 C303 1.301 . S
O307 U286 2.449 . S
O307 C303 1.282 . S
H308 C281 0.931 . S
H309 C283 0.929 . S
H310 C284 0.930 . S
H311 C285 0.931 . S
H312 C292 0.932 . S
H313 C293 0.930 . S
H314 C294 0.929 . S
H315 C296 0.930 . S
H316 C298 0.932 . S
H317 C299 0.929 . S
H318 C300 0.928 . S
H319 C302 0.932 . S
C320 C321 1.264 . S
C320 C325 1.479 . S
C320 C330 1.465 . S
C321 C320 1.264 . S
C321 C323 1.339 1_565 S
C321 H348 0.931 . S
C322 C323 1.395 . S
C322 C324 1.320 1_545 S
C323 C321 1.339 1_545 S
C323 C322 1.395 . S
C323 H349 0.929 . S
C324 C322 1.320 1_565 S
C324 C325 1.405 . S
C324 H350 0.930 . S
C325 C320 1.479 . S
C325 C324 1.405 . S
C325 H351 0.931 . S
U326 O327 2.454 . S
U326 O328 2.458 . S
U326 C329 2.984 . S
U326 C330 2.847 . S
U326 C343 2.882 . S
U326 O344 2.441 . S
U326 O345 2.420 . S
U326 O346 2.455 . S
U326 O347 2.449 . S
O327 U326 2.454 . S
O327 C329 1.353 . S
O328 U326 2.458 . S
O328 C329 1.286 . S
C329 U326 2.984 . S
C329 O327 1.353 . S
C329 O328 1.286 . S
C329 C331 1.363 . S
C330 C320 1.465 . S
C330 U326 2.847 . S
C330 O344 1.249 . S
C330 O345 1.202 . S
C331 C329 1.363 . S
C331 C333 1.408 . S
C331 C336 1.342 . S
C332 C333 1.310 . S
C332 C335 1.461 . S
C332 H352 0.932 . S
C333 C331 1.408 . S
C333 C332 1.310 . S
C333 H353 0.930 . S
C334 C335 1.474 . S
C334 C336 1.285 . S
C334 H354 0.929 . S
C335 C332 1.461 . S
C335 C334 1.474 . S
C336 C331 1.342 . S
C336 C334 1.285 . S
C336 H355 0.930 . S
C337 C340 1.424 . S
C337 C342 1.245 . S
C337 C343 1.428 . S
C338 C341 1.260 . S
C338 C342 1.477 . S
C338 H356 0.932 . S
C339 C340 1.384 . S
C339 C341 1.479 . S
C339 H357 0.929 . S
C340 C337 1.424 . S
C340 C339 1.384 . S
C340 H358 0.928 . S
C341 C338 1.260 . S
C341 C339 1.479 . S
C342 C337 1.245 . S
C342 C338 1.477 . S
C342 H359 0.932 . S
C343 U326 2.882 . S
C343 C337 1.428 . S
C343 O346 1.301 . S
C343 O347 1.282 . S
O344 U326 2.441 . S
O344 C330 1.249 . S
O345 U326 2.420 . S
O345 C330 1.202 . S
O346 U326 2.455 . S
O346 C343 1.301 . S
O347 U326 2.449 . S
O347 C343 1.282 . S
H348 C321 0.931 . S
H349 C323 0.929 . S
H350 C324 0.930 . S
H351 C325 0.931 . S
H352 C332 0.932 . S
H353 C333 0.930 . S
H354 C334 0.929 . S
H355 C336 0.930 . S
H356 C338 0.932 . S
H357 C339 0.929 . S
H358 C340 0.928 . S
H359 C342 0.932 . S
C360 C361 1.264 . S
C360 C365 1.479 . S
C360 C370 1.465 . S
C361 C360 1.264 . S
C361 C363 1.339 . S
C361 H388 0.931 . S
C362 C363 1.395 . S
C362 C364 1.320 . S
C363 C361 1.339 . S
C363 C362 1.395 . S
C363 H389 0.929 . S
C364 C362 1.320 . S
C364 C365 1.405 . S
C364 H390 0.930 . S
C365 C360 1.479 . S
C365 C364 1.405 . S
C365 H391 0.931 . S
U366 O367 2.454 . S
U366 O368 2.458 . S
U366 C369 2.984 . S
U366 C370 2.847 . S
U366 C383 2.882 . S
U366 O384 2.441 . S
U366 O385 2.420 . S
U366 O386 2.455 . S
U366 O387 2.449 . S
O367 U366 2.454 . S
O367 C369 1.353 . S
O368 U366 2.458 . S
O368 C369 1.286 . S
C369 U366 2.984 . S
C369 O367 1.353 . S
C369 O368 1.286 . S
C369 C371 1.363 . S
C370 C360 1.465 . S
C370 U366 2.847 . S
C370 O384 1.249 . S
C370 O385 1.202 . S
C371 C369 1.363 . S
C371 C373 1.408 . S
C371 C376 1.342 . S
C372 C373 1.310 . S
C372 C375 1.461 . S
C372 H392 0.932 . S
C373 C371 1.408 . S
C373 C372 1.310 . S
C373 H393 0.930 . S
C374 C375 1.474 . S
C374 C376 1.285 . S
C374 H394 0.929 . S
C375 C372 1.461 . S
C375 C374 1.474 . S
C376 C371 1.342 . S
C376 C374 1.285 . S
C376 H395 0.930 . S
C377 C380 1.424 . S
C377 C382 1.245 . S
C377 C383 1.428 . S
C378 C381 1.260 . S
C378 C382 1.477 . S
C378 H396 0.932 . S
C379 C380 1.384 . S
C379 C381 1.479 . S
C379 H397 0.929 . S
C380 C377 1.424 . S
C380 C379 1.384 . S
C380 H398 0.928 . S
C381 C378 1.260 . S
C381 C379 1.479 . S
C382 C377 1.245 . S
C382 C378 1.477 . S
C382 H399 0.932 . S
C383 U366 2.882 . S
C383 C377 1.428 . S
C383 O386 1.301 . S
C383 O387 1.282 . S
O384 U366 2.441 . S
O384 C370 1.249 . S
O385 U366 2.420 . S
O385 C370 1.202 . S
O386 U366 2.455 . S
O386 C383 1.301 . S
O387 U366 2.449 . S
O387 C383 1.282 . S
H388 C361 0.931 . S
H389 C363 0.929 . S
H390 C364 0.930 . S
H391 C365 0.931 . S
H392 C372 0.932 . S
H393 C373 0.930 . S
H394 C374 0.929 . S
H395 C376 0.930 . S
H396 C378 0.932 . S
H397 C379 0.929 . S
H398 C380 0.928 . S
H399 C382 0.932 . S
C400 C401 1.264 . S
C400 C405 1.479 . S
C400 C410 1.465 . S
C401 C400 1.264 . S
C401 C403 1.339 . S
C401 H428 0.931 . S
C402 C403 1.395 . S
C402 C404 1.320 . S
C403 C401 1.339 . S
C403 C402 1.395 . S
C403 H429 0.911 1_565 S
C404 C402 1.320 . S
C404 C405 1.405 . S
C404 H430 0.930 . S
C405 C400 1.479 . S
C405 C404 1.405 . S
C405 H431 0.931 . S
U406 O407 2.454 . S
U406 O408 2.458 . S
U406 C409 2.984 . S
U406 C410 2.847 . S
U406 C423 2.882 . S
U406 O424 2.441 . S
U406 O425 2.420 . S
U406 O426 2.455 . S
U406 O427 2.449 . S
O407 U406 2.454 . S
O407 C409 1.353 . S
O408 U406 2.458 . S
O408 C409 1.286 . S
C409 U406 2.984 . S
C409 O407 1.353 . S
C409 O408 1.286 . S
C409 C411 1.363 . S
C410 C400 1.465 . S
C410 U406 2.847 . S
C410 O424 1.249 . S
C410 O425 1.202 . S
C411 C409 1.363 . S
C411 C413 1.408 . S
C411 C416 1.342 . S
C412 C413 1.310 . S
C412 C415 1.461 . S
C412 H432 0.932 . S
C413 C411 1.408 . S
C413 C412 1.310 . S
C413 H433 0.930 . S
C414 C415 1.474 . S
C414 C416 1.285 . S
C414 H434 0.929 . S
C415 C412 1.461 . S
C415 C414 1.474 . S
C416 C411 1.342 . S
C416 C414 1.285 . S
C416 H435 0.930 . S
C417 C420 1.421 1_565 S
C417 C422 1.245 . S
C417 C423 1.428 . S
C418 C421 1.260 1_565 S
C418 C422 1.477 . S
C418 H436 0.932 . S
C419 C420 1.385 . S
C419 C421 1.479 . S
C419 H437 0.929 . S
C420 C417 1.421 1_545 S
C420 C419 1.385 . S
C420 H438 0.929 . S
C421 C418 1.260 1_545 S
C421 C419 1.479 . S
C422 C417 1.245 . S
C422 C418 1.477 . S
C422 H439 0.932 . S
C423 U406 2.882 . S
C423 C417 1.428 . S
C423 O426 1.301 . S
C423 O427 1.282 . S
O424 U406 2.441 . S
O424 C410 1.249 . S
O425 U406 2.420 . S
O425 C410 1.202 . S
O426 U406 2.455 . S
O426 C423 1.301 . S
O427 U406 2.449 . S
O427 C423 1.282 . S
H428 C401 0.931 . S
H429 C403 0.911 1_545 S
H430 C404 0.930 . S
H431 C405 0.931 . S
H432 C412 0.932 . S
H433 C413 0.930 . S
H434 C414 0.929 . S
H435 C416 0.930 . S
H436 C418 0.932 . S
H437 C419 0.929 . S
H438 C420 0.929 . S
H439 C422 0.932 . S
C440 C441 1.264 . S
C440 C445 1.479 . S
C440 C450 1.465 . S
C441 C440 1.264 . S
C441 C443 1.339 . S
C441 H468 0.931 . S
C442 C443 1.395 . S
C442 C444 1.320 . S
C443 C441 1.339 . S
C443 C442 1.395 . S
C443 H469 0.929 . S
C444 C442 1.320 . S
C444 C445 1.405 . S
C444 H470 0.930 . S
C445 C440 1.479 . S
C445 C444 1.405 . S
C445 H471 0.931 . S
U446 O447 2.454 . S
U446 O448 2.458 . S
U446 C449 2.984 . S
U446 C450 2.847 . S
U446 C463 2.882 . S
U446 O464 2.441 . S
U446 O465 2.420 . S
U446 O466 2.455 . S
U446 O467 2.449 . S
O447 U446 2.454 . S
O447 C449 1.353 . S
O448 U446 2.458 . S
O448 C449 1.286 . S
C449 U446 2.984 . S
C449 O447 1.353 . S
C449 O448 1.286 . S
C449 C451 1.363 . S
C450 C440 1.465 . S
C450 U446 2.847 . S
C450 O464 1.249 . S
C450 O465 1.202 . S
C451 C449 1.363 . S
C451 C453 1.408 . S
C451 C456 1.342 . S
C452 C453 1.310 . S
C452 C455 1.461 . S
C452 H472 0.932 . S
C453 C451 1.408 . S
C453 C452 1.310 . S
C453 H473 0.930 . S
C454 C455 1.474 . S
C454 C456 1.285 . S
C454 H474 0.929 . S
C455 C452 1.461 . S
C455 C454 1.474 . S
C456 C451 1.342 . S
C456 C454 1.285 . S
C456 H475 0.930 . S
C457 C460 1.424 . S
C457 C462 1.245 . S
C457 C463 1.428 . S
C458 C461 1.260 . S
C458 C462 1.477 . S
C458 H476 0.932 . S
C459 C460 1.384 . S
C459 C461 1.479 . S
C459 H477 0.929 . S
C460 C457 1.424 . S
C460 C459 1.384 . S
C460 H478 0.928 . S
C461 C458 1.260 . S
C461 C459 1.479 . S
C462 C457 1.245 . S
C462 C458 1.477 . S
C462 H479 0.932 . S
C463 U446 2.882 . S
C463 C457 1.428 . S
C463 O466 1.301 . S
C463 O467 1.282 . S
O464 U446 2.441 . S
O464 C450 1.249 . S
O465 U446 2.420 . S
O465 C450 1.202 . S
O466 U446 2.455 . S
O466 C463 1.301 . S
O467 U446 2.449 . S
O467 C463 1.282 . S
H468 C441 0.931 . S
H469 C443 0.929 . S
H470 C444 0.930 . S
H471 C445 0.931 . S
H472 C452 0.932 . S
H473 C453 0.930 . S
H474 C454 0.929 . S
H475 C456 0.930 . S
H476 C458 0.932 . S
H477 C459 0.929 . S
H478 C460 0.928 . S
H479 C462 0.932 . S
C480 C481 1.264 . S
C480 C485 1.479 . S
C480 C490 1.465 . S
C481 C480 1.264 . S
C481 C483 1.339 . S
C481 H508 0.931 . S
C482 C483 1.395 . S
C482 C484 1.320 . S
C483 C481 1.339 . S
C483 C482 1.395 . S
C483 H509 0.929 . S
C484 C482 1.320 . S
C484 C485 1.405 . S
C484 H510 0.930 . S
C485 C480 1.479 . S
C485 C484 1.405 . S
C485 H511 0.931 . S
U486 O487 2.454 . S
U486 O488 2.458 . S
U486 C489 2.984 . S
U486 C490 2.847 . S
U486 C503 2.882 . S
U486 O504 2.441 . S
U486 O505 2.420 . S
U486 O506 2.455 . S
U486 O507 2.449 . S
O487 U486 2.454 . S
O487 C489 1.353 . S
O488 U486 2.458 . S
O488 C489 1.286 . S
C489 U486 2.984 . S
C489 O487 1.353 . S
C489 O488 1.286 . S
C489 C491 1.363 . S
C490 C480 1.465 . S
C490 U486 2.847 . S
C490 O504 1.249 . S
C490 O505 1.202 . S
C491 C489 1.363 . S
C491 C493 1.408 . S
C491 C496 1.342 . S
C492 C493 1.310 . S
C492 C495 1.461 . S
C492 H512 0.932 . S
C493 C491 1.408 . S
C493 C492 1.310 . S
C493 H513 0.930 . S
C494 C495 1.474 . S
C494 C496 1.285 . S
C494 H514 0.929 . S
C495 C492 1.461 . S
C495 C494 1.474 . S
C496 C491 1.342 . S
C496 C494 1.285 . S
C496 H515 0.930 . S
C497 C500 1.424 . S
C497 C502 1.245 . S
C497 C503 1.428 . S
C498 C501 1.260 . S
C498 C502 1.477 . S
C498 H516 0.932 . S
C499 C500 1.384 . S
C499 C501 1.479 . S
C499 H517 0.929 . S
C500 C497 1.424 . S
C500 C499 1.384 . S
C500 H518 0.928 . S
C501 C498 1.260 . S
C501 C499 1.479 . S
C502 C497 1.245 . S
C502 C498 1.477 . S
C502 H519 0.932 . S
C503 U486 2.882 . S
C503 C497 1.428 . S
C503 O506 1.301 . S
C503 O507 1.282 . S
O504 U486 2.441 . S
O504 C490 1.249 . S
O505 U486 2.420 . S
O505 C490 1.202 . S
O506 U486 2.455 . S
O506 C503 1.301 . S
O507 U486 2.449 . S
O507 C503 1.282 . S
H508 C481 0.931 . S
H509 C483 0.929 . S
H510 C484 0.930 . S
H511 C485 0.931 . S
H512 C492 0.932 . S
H513 C493 0.930 . S
H514 C494 0.929 . S
H515 C496 0.930 . S
H516 C498 0.932 . S
H517 C499 0.929 . S
H518 C500 0.928 . S
H519 C502 0.932 . S
C520 C521 1.264 . S
C520 C525 1.479 . S
C520 C530 1.465 . S
C521 C520 1.264 . S
C521 C523 1.339 . S
C521 H548 0.931 . S
C522 C523 1.395 . S
C522 C524 1.320 . S
C523 C521 1.339 . S
C523 C522 1.395 . S
C523 H549 0.929 . S
C524 C522 1.320 . S
C524 C525 1.405 . S
C524 H550 0.930 . S
C525 C520 1.479 . S
C525 C524 1.405 . S
C525 H551 0.931 . S
U526 O527 2.454 . S
U526 O528 2.458 . S
U526 C529 2.984 . S
U526 C530 2.847 . S
U526 C543 2.882 . S
U526 O544 2.441 . S
U526 O545 2.420 . S
U526 O546 2.455 . S
U526 O547 2.449 . S
O527 U526 2.454 . S
O527 C529 1.353 . S
O528 U526 2.458 . S
O528 C529 1.286 . S
C529 U526 2.984 . S
C529 O527 1.353 . S
C529 O528 1.286 . S
C529 C531 1.363 . S
C530 C520 1.465 . S
C530 U526 2.847 . S
C530 O544 1.249 . S
C530 O545 1.202 . S
C531 C529 1.363 . S
C531 C533 1.408 . S
C531 C536 1.342 . S
C532 C533 1.310 . S
C532 C535 1.461 . S
C532 H552 0.932 . S
C533 C531 1.408 . S
C533 C532 1.310 . S
C533 H553 0.930 . S
C534 C535 1.474 . S
C534 C536 1.285 . S
C534 H554 0.929 . S
C535 C532 1.461 . S
C535 C534 1.474 . S
C536 C531 1.342 . S
C536 C534 1.285 . S
C536 H555 0.930 . S
C537 C540 1.424 . S
C537 C542 1.245 . S
C537 C543 1.428 . S
C538 C541 1.260 . S
C538 C542 1.477 . S
C538 H556 0.932 . S
C539 C540 1.384 . S
C539 C541 1.479 . S
C539 H557 0.929 . S
C540 C537 1.424 . S
C540 C539 1.384 . S
C540 H558 0.928 . S
C541 C538 1.260 . S
C541 C539 1.479 . S
C542 C537 1.245 . S
C542 C538 1.477 . S
C542 H559 0.932 . S
C543 U526 2.882 . S
C543 C537 1.428 . S
C543 O546 1.301 . S
C543 O547 1.282 . S
O544 U526 2.441 . S
O544 C530 1.249 . S
O545 U526 2.420 . S
O545 C530 1.202 . S
O546 U526 2.455 . S
O546 C543 1.301 . S
O547 U526 2.449 . S
O547 C543 1.282 . S
H548 C521 0.931 . S
H549 C523 0.929 . S
H550 C524 0.930 . S
H551 C525 0.931 . S
H552 C532 0.932 . S
H553 C533 0.930 . S
H554 C534 0.929 . S
H555 C536 0.930 . S
H556 C538 0.932 . S
H557 C539 0.929 . S
H558 C540 0.928 . S
H559 C542 0.932 . S
C560 C561 1.264 . S
C560 C565 1.479 . S
C560 C570 1.465 . S
C561 C560 1.264 . S
C561 C563 1.339 . S
C561 H588 0.931 . S
C562 C563 1.395 . S
C562 C564 1.320 . S
C563 C561 1.339 . S
C563 C562 1.395 . S
C563 H589 0.929 . S
C564 C562 1.320 . S
C564 C565 1.405 . S
C564 H590 0.930 . S
C565 C560 1.479 . S
C565 C564 1.405 . S
C565 H591 0.931 1_455 S
U566 O567 2.454 1_455 S
U566 O568 2.458 1_455 S
U566 C569 2.984 1_455 S
U566 C570 2.847 . S
U566 C583 2.882 . S
U566 O584 2.441 1_455 S
U566 O585 2.420 . S
U566 O586 2.455 . S
U566 O587 2.449 . S
O567 U566 2.454 1_655 S
O567 C569 1.353 . S
O568 U566 2.458 1_655 S
O568 C569 1.286 . S
C569 U566 2.984 1_655 S
C569 O567 1.353 . S
C569 O568 1.286 . S
C569 C571 1.363 . S
C570 C560 1.465 . S
C570 U566 2.847 . S
C570 O584 1.249 1_455 S
C570 O585 1.202 . S
C571 C569 1.363 . S
C571 C573 1.408 . S
C571 C576 1.342 . S
C572 C573 1.310 . S
C572 C575 1.461 . S
C572 H592 0.932 . S
C573 C571 1.408 . S
C573 C572 1.310 . S
C573 H593 0.930 . S
C574 C575 1.474 . S
C574 C576 1.285 . S
C574 H594 0.929 . S
C575 C572 1.461 . S
C575 C574 1.474 . S
C576 C571 1.342 . S
C576 C574 1.285 . S
C576 H595 0.930 . S
C577 C580 1.424 . S
C577 C582 1.245 . S
C577 C583 1.428 . S
C578 C581 1.260 . S
C578 C582 1.477 . S
C578 H596 0.932 . S
C579 C580 1.384 . S
C579 C581 1.479 . S
C579 H597 0.929 . S
C580 C577 1.424 . S
C580 C579 1.384 . S
C580 H598 0.928 . S
C581 C578 1.260 . S
C581 C579 1.479 . S
C582 C577 1.245 . S
C582 C578 1.477 . S
C582 H599 0.932 . S
C583 U566 2.882 . S
C583 C577 1.428 . S
C583 O586 1.301 . S
C583 O587 1.282 . S
O584 U566 2.441 1_655 S
O584 C570 1.249 1_655 S
O585 U566 2.420 . S
O585 C570 1.202 . S
O586 U566 2.455 . S
O586 C583 1.301 . S
O587 U566 2.449 . S
O587 C583 1.282 . S
H588 C561 0.931 . S
H589 C563 0.929 . S
H590 C564 0.930 . S
H591 C565 0.931 1_655 S
H592 C572 0.932 . S
H593 C573 0.930 . S
H594 C574 0.929 . S
H595 C576 0.930 . S
H596 C578 0.932 . S
H597 C579 0.929 . S
H598 C580 0.928 . S
H599 C582 0.932 . S
C600 C601 1.264 . S
C600 C605 1.479 . S
C600 C610 1.465 . S
C601 C600 1.264 . S
C601 C603 1.339 . S
C601 H628 0.931 . S
C602 C603 1.395 . S
C602 C604 1.320 . S
C603 C601 1.339 . S
C603 C602 1.395 . S
C603 H629 0.929 . S
C604 C602 1.320 . S
C604 C605 1.405 . S
C604 H630 0.930 . S
C605 C600 1.479 . S
C605 C604 1.405 . S
C605 H631 0.931 . S
U606 O607 2.454 1_455 S
U606 O608 2.458 1_455 S
U606 C609 2.984 1_455 S
U606 C610 2.847 . S
U606 C623 2.882 . S
U606 O624 2.441 . S
U606 O625 2.420 . S
U606 O626 2.454 . S
U606 O627 2.449 . S
O607 U606 2.454 1_655 S
O607 C609 1.353 . S
O608 U606 2.458 1_655 S
O608 C609 1.286 . S
C609 U606 2.984 1_655 S
C609 O607 1.353 . S
C609 O608 1.286 . S
C609 C611 1.363 . S
C610 C600 1.465 . S
C610 U606 2.847 . S
C610 O624 1.249 . S
C610 O625 1.202 . S
C611 C609 1.363 . S
C611 C613 1.408 . S
C611 C616 1.342 . S
C612 C613 1.310 . S
C612 C615 1.461 . S
C612 H632 0.932 . S
C613 C611 1.408 . S
C613 C612 1.310 . S
C613 H633 0.930 . S
C614 C615 1.474 . S
C614 C616 1.285 . S
C614 H634 0.929 . S
C615 C612 1.461 . S
C615 C614 1.474 . S
C616 C611 1.342 . S
C616 C614 1.285 . S
C616 H635 0.930 . S
C617 C620 1.424 . S
C617 C622 1.245 . S
C617 C623 1.428 . S
C618 C621 1.260 . S
C618 C622 1.477 . S
C618 H636 0.932 . S
C619 C620 1.384 . S
C619 C621 1.479 . S
C619 H637 0.929 . S
C620 C617 1.424 . S
C620 C619 1.384 . S
C620 H638 0.928 . S
C621 C618 1.260 . S
C621 C619 1.479 . S
C622 C617 1.245 . S
C622 C618 1.477 . S
C622 H639 0.932 1_455 S
C623 U606 2.882 . S
C623 C617 1.428 . S
C623 O626 1.311 . S
C623 O627 1.282 . S
O624 U606 2.441 . S
O624 C610 1.249 . S
O625 U606 2.420 . S
O625 C610 1.202 . S
O626 U606 2.454 . S
O626 C623 1.311 . S
O627 U606 2.449 . S
O627 C623 1.282 . S
H628 C601 0.931 . S
H629 C603 0.929 . S
H630 C604 0.930 . S
H631 C605 0.931 . S
H632 C612 0.932 . S
H633 C613 0.930 . S
H634 C614 0.929 . S
H635 C616 0.930 . S
H636 C618 0.932 . S
H637 C619 0.929 . S
H638 C620 0.928 . S
H639 C622 0.932 1_655 S
C640 C641 1.264 . S
C640 C645 1.479 . S
C640 C650 1.465 . S
C641 C640 1.264 . S
C641 C643 1.339 . S
C641 H668 0.931 . S
C642 C643 1.395 . S
C642 C644 1.320 . S
C643 C641 1.339 . S
C643 C642 1.395 . S
C643 H669 0.929 . S
C644 C642 1.320 . S
C644 C645 1.405 . S
C644 H670 0.930 . S
C645 C640 1.479 . S
C645 C644 1.405 . S
C645 H671 0.931 . S
U646 O647 2.454 . S
U646 O648 2.458 . S
U646 C649 2.984 . S
U646 C650 2.847 . S
U646 C663 2.882 . S
U646 O664 2.441 . S
U646 O665 2.420 . S
U646 O666 2.455 . S
U646 O667 2.449 . S
O647 U646 2.454 . S
O647 C649 1.353 . S
O648 U646 2.458 . S
O648 C649 1.286 . S
C649 U646 2.984 . S
C649 O647 1.353 . S
C649 O648 1.286 . S
C649 C651 1.363 . S
C650 C640 1.465 . S
C650 U646 2.847 . S
C650 O664 1.249 . S
C650 O665 1.202 . S
C651 C649 1.363 . S
C651 C653 1.408 . S
C651 C656 1.342 . S
C652 C653 1.310 . S
C652 C655 1.461 . S
C652 H672 0.932 . S
C653 C651 1.408 . S
C653 C652 1.310 . S
C653 H673 0.930 . S
C654 C655 1.474 . S
C654 C656 1.285 . S
C654 H674 0.929 . S
C655 C652 1.461 . S
C655 C654 1.474 . S
C656 C651 1.342 . S
C656 C654 1.285 . S
C656 H675 0.930 . S
C657 C660 1.424 . S
C657 C662 1.245 . S
C657 C663 1.428 . S
C658 C661 1.260 . S
C658 C662 1.477 . S
C658 H676 0.932 . S
C659 C660 1.384 . S
C659 C661 1.479 . S
C659 H677 0.929 . S
C660 C657 1.424 . S
C660 C659 1.384 . S
C660 H678 0.928 . S
C661 C658 1.260 . S
C661 C659 1.479 . S
C662 C657 1.245 . S
C662 C658 1.477 . S
C662 H679 0.932 . S
C663 U646 2.882 . S
C663 C657 1.428 . S
C663 O666 1.301 . S
C663 O667 1.282 . S
O664 U646 2.441 . S
O664 C650 1.249 . S
O665 U646 2.420 . S
O665 C650 1.202 . S
O666 U646 2.455 . S
O666 C663 1.301 . S
O667 U646 2.449 . S
O667 C663 1.282 . S
H668 C641 0.931 . S
H669 C643 0.929 . S
H670 C644 0.930 . S
H671 C645 0.931 . S
H672 C652 0.932 . S
H673 C653 0.930 . S
H674 C654 0.929 . S
H675 C656 0.930 . S
H676 C658 0.932 . S
H677 C659 0.929 . S
H678 C660 0.928 . S
H679 C662 0.932 . S
C680 C681 1.264 . S
C680 C685 1.479 . S
C680 C690 1.465 . S
C681 C680 1.264 . S
C681 C683 1.339 . S
C681 H708 0.931 . S
C682 C683 1.395 . S
C682 C684 1.320 . S
C683 C681 1.339 . S
C683 C682 1.395 . S
C683 H709 0.929 . S
C684 C682 1.320 . S
C684 C685 1.405 . S
C684 H710 0.930 . S
C685 C680 1.479 . S
C685 C684 1.405 . S
C685 H711 0.931 . S
U686 O687 2.454 . S
U686 O688 2.458 . S
U686 C689 2.984 . S
U686 C690 2.847 . S
U686 C703 2.882 . S
U686 O704 2.441 . S
U686 O705 2.420 . S
U686 O706 2.455 . S
U686 O707 2.449 . S
O687 U686 2.454 . S
O687 C689 1.353 . S
O688 U686 2.458 . S
O688 C689 1.286 . S
C689 U686 2.984 . S
C689 O687 1.353 . S
C689 O688 1.286 . S
C689 C691 1.363 . S
C690 C680 1.465 . S
C690 U686 2.847 . S
C690 O704 1.249 . S
C690 O705 1.202 . S
C691 C689 1.363 . S
C691 C693 1.408 . S
C691 C696 1.342 . S
C692 C693 1.310 . S
C692 C695 1.461 . S
C692 H712 0.932 . S
C693 C691 1.408 . S
C693 C692 1.310 . S
C693 H713 0.930 . S
C694 C695 1.474 . S
C694 C696 1.285 . S
C694 H714 0.929 . S
C695 C692 1.461 . S
C695 C694 1.474 . S
C696 C691 1.342 . S
C696 C694 1.285 . S
C696 H715 0.930 . S
C697 C700 1.424 . S
C697 C702 1.245 . S
C697 C703 1.428 . S
C698 C701 1.260 . S
C698 C702 1.477 . S
C698 H716 0.932 . S
C699 C700 1.384 . S
C699 C701 1.479 . S
C699 H717 0.929 . S
C700 C697 1.424 . S
C700 C699 1.384 . S
C700 H718 0.928 . S
C701 C698 1.260 . S
C701 C699 1.479 . S
C702 C697 1.245 . S
C702 C698 1.477 . S
C702 H719 0.932 . S
C703 U686 2.882 . S
C703 C697 1.428 . S
C703 O706 1.301 . S
C703 O707 1.282 . S
O704 U686 2.441 . S
O704 C690 1.249 . S
O705 U686 2.420 . S
O705 C690 1.202 . S
O706 U686 2.455 . S
O706 C703 1.301 . S
O707 U686 2.449 . S
O707 C703 1.282 . S
H708 C681 0.931 . S
H709 C683 0.929 . S
H710 C684 0.930 . S
H711 C685 0.931 . S
H712 C692 0.932 . S
H713 C693 0.930 . S
H714 C694 0.929 . S
H715 C696 0.930 . S
H716 C698 0.932 . S
H717 C699 0.929 . S
H718 C700 0.928 . S
H719 C702 0.932 . S
C135 C15 1.495 . S
C55 C175 1.501 . S
C215 C95 1.502 . S
C375 C255 1.534 . S
C415 C295 1.506 . S
C335 C455 1.507 . S
C615 C495 1.539 . S
C655 C535 1.511 . S
C575 C695 1.528 . S
C341 C2 1.498 . S
C242 C61 1.480 . S
C282 C82 1.487 . S
C42 C562 1.514 . S
C482 C101 1.448 . S
C21 C541 1.460 . S
C682 C122 1.462 . S
C621 C162 1.544 . S
C221 C661 1.453 . S
C442 C181 1.483 . S
C362 C202 1.494 . S
C141 C402 1.482 . S
C261 C581 1.487 . S
C501 C301 1.458 . S
C322 C522 1.508 . S
C421 C701 1.462 . S
C461 C602 1.564 . S
C381 C642 1.528 . S
