# Generated by pormake.
# Topology whk, (6)-cn, num edge types: 1
# Building blocks:
#     Node 0, Type 0, BuildingBlock: CUWYAW_clean_sbu_0, # of connection points: 6
#     Node 1, Type 0, BuildingBlock: CUWYAW_clean_sbu_0, # of connection points: 6
#     Node 2, Type 0, BuildingBlock: CUWYAW_clean_sbu_0, # of connection points: 6
#     Node 3, Type 0, BuildingBlock: CUWYAW_clean_sbu_0, # of connection points: 6
#     Node 4, Type 0, BuildingBlock: CUWYAW_clean_sbu_0, # of connection points: 6
#     Node 5, Type 0, BuildingBlock: CUWYAW_clean_sbu_0, # of connection points: 6
#     Node 6, Type 0, BuildingBlock: CUWYAW_clean_sbu_0, # of connection points: 6
#     Node 7, Type 0, BuildingBlock: CUWYAW_clean_sbu_0, # of connection points: 6
#     Node 8, Type 0, BuildingBlock: CUWYAW_clean_sbu_0, # of connection points: 6
#     Node 9, Type 0, BuildingBlock: CUWYAW_clean_sbu_0, # of connection points: 6
#     Node 10, Type 0, BuildingBlock: CUWYAW_clean_sbu_0, # of connection points: 6
#     Node 11, Type 0, BuildingBlock: CUWYAW_clean_sbu_0, # of connection points: 6
#     Node 12, Type 0, BuildingBlock: CUWYAW_clean_sbu_0, # of connection points: 6
#     Node 13, Type 0, BuildingBlock: CUWYAW_clean_sbu_0, # of connection points: 6
#     Node 14, Type 0, BuildingBlock: CUWYAW_clean_sbu_0, # of connection points: 6
#     Node 15, Type 0, BuildingBlock: CUWYAW_clean_sbu_0, # of connection points: 6
#     Edge 16, Type (0, 0), BuildingBlock: MIFKUJ_clean_linker_0, # of connection points: 2
#     Edge 17, Type (0, 0), BuildingBlock: MIFKUJ_clean_linker_0, # of connection points: 2
#     Edge 18, Type (0, 0), BuildingBlock: MIFKUJ_clean_linker_0, # of connection points: 2
#     Edge 19, Type (0, 0), BuildingBlock: MIFKUJ_clean_linker_0, # of connection points: 2
#     Edge 20, Type (0, 0), BuildingBlock: MIFKUJ_clean_linker_0, # of connection points: 2
#     Edge 21, Type (0, 0), BuildingBlock: MIFKUJ_clean_linker_0, # of connection points: 2
#     Edge 22, Type (0, 0), BuildingBlock: MIFKUJ_clean_linker_0, # of connection points: 2
#     Edge 23, Type (0, 0), BuildingBlock: MIFKUJ_clean_linker_0, # of connection points: 2
#     Edge 24, Type (0, 0), BuildingBlock: MIFKUJ_clean_linker_0, # of connection points: 2
#     Edge 25, Type (0, 0), BuildingBlock: MIFKUJ_clean_linker_0, # of connection points: 2
#     Edge 26, Type (0, 0), BuildingBlock: MIFKUJ_clean_linker_0, # of connection points: 2
#     Edge 27, Type (0, 0), BuildingBlock: MIFKUJ_clean_linker_0, # of connection points: 2
#     Edge 28, Type (0, 0), BuildingBlock: MIFKUJ_clean_linker_0, # of connection points: 2
#     Edge 29, Type (0, 0), BuildingBlock: MIFKUJ_clean_linker_0, # of connection points: 2
#     Edge 30, Type (0, 0), BuildingBlock: MIFKUJ_clean_linker_0, # of connection points: 2
#     Edge 31, Type (0, 0), BuildingBlock: MIFKUJ_clean_linker_0, # of connection points: 2
#     Edge 32, Type (0, 0), BuildingBlock: MIFKUJ_clean_linker_0, # of connection points: 2
#     Edge 33, Type (0, 0), BuildingBlock: MIFKUJ_clean_linker_0, # of connection points: 2
#     Edge 34, Type (0, 0), BuildingBlock: MIFKUJ_clean_linker_0, # of connection points: 2
#     Edge 35, Type (0, 0), BuildingBlock: MIFKUJ_clean_linker_0, # of connection points: 2
#     Edge 36, Type (0, 0), BuildingBlock: MIFKUJ_clean_linker_0, # of connection points: 2
#     Edge 37, Type (0, 0), BuildingBlock: MIFKUJ_clean_linker_0, # of connection points: 2
#     Edge 38, Type (0, 0), BuildingBlock: MIFKUJ_clean_linker_0, # of connection points: 2
#     Edge 39, Type (0, 0), BuildingBlock: MIFKUJ_clean_linker_0, # of connection points: 2
#     Edge 40, Type (0, 0), BuildingBlock: MIFKUJ_clean_linker_0, # of connection points: 2
#     Edge 41, Type (0, 0), BuildingBlock: MIFKUJ_clean_linker_0, # of connection points: 2
#     Edge 42, Type (0, 0), BuildingBlock: MIFKUJ_clean_linker_0, # of connection points: 2
#     Edge 43, Type (0, 0), BuildingBlock: MIFKUJ_clean_linker_0, # of connection points: 2
#     Edge 44, Type (0, 0), BuildingBlock: MIFKUJ_clean_linker_0, # of connection points: 2
#     Edge 45, Type (0, 0), BuildingBlock: MIFKUJ_clean_linker_0, # of connection points: 2
#     Edge 46, Type (0, 0), BuildingBlock: MIFKUJ_clean_linker_0, # of connection points: 2
#     Edge 47, Type (0, 0), BuildingBlock: MIFKUJ_clean_linker_0, # of connection points: 2
#     Edge 48, Type (0, 0), BuildingBlock: MIFKUJ_clean_linker_0, # of connection points: 2
#     Edge 49, Type (0, 0), BuildingBlock: MIFKUJ_clean_linker_0, # of connection points: 2
#     Edge 50, Type (0, 0), BuildingBlock: MIFKUJ_clean_linker_0, # of connection points: 2
#     Edge 51, Type (0, 0), BuildingBlock: MIFKUJ_clean_linker_0, # of connection points: 2
#     Edge 52, Type (0, 0), BuildingBlock: MIFKUJ_clean_linker_0, # of connection points: 2
#     Edge 53, Type (0, 0), BuildingBlock: MIFKUJ_clean_linker_0, # of connection points: 2
#     Edge 54, Type (0, 0), BuildingBlock: MIFKUJ_clean_linker_0, # of connection points: 2
#     Edge 55, Type (0, 0), BuildingBlock: MIFKUJ_clean_linker_0, # of connection points: 2
#     Edge 56, Type (0, 0), BuildingBlock: MIFKUJ_clean_linker_0, # of connection points: 2
#     Edge 57, Type (0, 0), BuildingBlock: MIFKUJ_clean_linker_0, # of connection points: 2
#     Edge 58, Type (0, 0), BuildingBlock: MIFKUJ_clean_linker_0, # of connection points: 2
#     Edge 59, Type (0, 0), BuildingBlock: MIFKUJ_clean_linker_0, # of connection points: 2
#     Edge 60, Type (0, 0), BuildingBlock: MIFKUJ_clean_linker_0, # of connection points: 2
#     Edge 61, Type (0, 0), BuildingBlock: MIFKUJ_clean_linker_0, # of connection points: 2
#     Edge 62, Type (0, 0), BuildingBlock: MIFKUJ_clean_linker_0, # of connection points: 2
#     Edge 63, Type (0, 0), BuildingBlock: MIFKUJ_clean_linker_0, # of connection points: 2
# Relax obj value: 0.521
# Max RMSD: 0.294
# Mean RMSD: 0.294
data_MOF--net-whk--node1-CUWYAW_clean_sbu_0--edge1-MIFKUJ_clean_linker_0
_symmetry_space_group_name_H-M    P1
_symmetry_Int_Tables_number       1
_symmetry_cell_setting            triclinic
loop_
_symmetry_equiv_pos_as_xyz
'x, y, z'
_cell_length_a     58.064059
_cell_length_b     58.033652
_cell_length_c     51.048701
_cell_angle_alpha  89.965959
_cell_angle_beta   89.95859
_cell_angle_gamma 89.937789
loop_
_atom_site_label
_atom_site_type_symbol
_atom_site_fract_x
_atom_site_fract_y
_atom_site_fract_z
_atom_type_partial_charge
C0 C 0.5222 0.16851 0.41884 0.0
Eu1 Eu 0.55545 0.19916 0.41483 0.0
C2 C 0.49757 0.16104 0.41584 0.0
C3 C 0.48395 0.15613 0.438 0.0
C4 C 0.46234 0.14527 0.4355 0.0
C5 C 0.45377 0.13868 0.41075 0.0
C6 C 0.46711 0.14429 0.38856 0.0
C7 C 0.4886 0.15525 0.39105 0.0
C8 C 0.57169 0.23281 0.44803 0.0
C9 C 0.5384 0.24823 0.38852 0.0
C10 C 0.62575 0.25629 0.38112 0.0
Eu11 Eu 0.59081 0.22959 0.39069 0.0
C12 C 0.64067 0.27 0.39835 0.0
C13 C 0.65025 0.26042 0.42119 0.0
C14 C 0.66371 0.27386 0.43784 0.0
C15 C 0.66799 0.29708 0.43184 0.0
C16 C 0.65776 0.30678 0.40939 0.0
C17 C 0.6442 0.29335 0.39284 0.0
C18 C 0.57737 0.19538 0.357 0.0
C19 C 0.60742 0.18899 0.43072 0.0
O20 O 0.53434 0.17218 0.39763 0.0
O21 O 0.52866 0.18165 0.43839 0.0
O22 O 0.5646 0.21272 0.45626 0.0
O23 O 0.56775 0.23442 0.42391 0.0
O24 O 0.53232 0.22726 0.39644 0.0
O25 O 0.5604 0.25374 0.38636 0.0
O26 O 0.60442 0.26324 0.37958 0.0
O27 O 0.62745 0.23391 0.38306 0.0
O28 O 0.58001 0.21684 0.35077 0.0
O29 O 0.58079 0.19326 0.38149 0.0
O30 O 0.61105 0.21029 0.42234 0.0
O31 O 0.58718 0.17905 0.42711 0.0
H32 H 0.4904 0.15988 0.45744 0.0
H33 H 0.4528 0.14115 0.45312 0.0
H34 H 0.46108 0.13992 0.36912 0.0
H35 H 0.49853 0.15844 0.37346 0.0
H36 H 0.64728 0.24259 0.42626 0.0
H37 H 0.67117 0.26596 0.45509 0.0
H38 H 0.6611 0.32448 0.40385 0.0
H39 H 0.63671 0.30113 0.37552 0.0
C40 C 0.36007 0.51969 0.41849 0.0
Eu41 Eu 0.32829 0.55203 0.41791 0.0
C42 C 0.36876 0.49548 0.41506 0.0
C43 C 0.36841 0.47939 0.43573 0.0
C44 C 0.37984 0.458 0.43348 0.0
C45 C 0.39219 0.45207 0.41059 0.0
C46 C 0.39208 0.4681 0.38979 0.0
C47 C 0.38062 0.48936 0.39201 0.0
C48 C 0.297 0.56697 0.45412 0.0
C49 C 0.27819 0.53368 0.39311 0.0
C50 C 0.26464 0.62069 0.40055 0.0
Eu51 Eu 0.29349 0.5866 0.39874 0.0
C52 C 0.26456 0.64024 0.4191 0.0
C53 C 0.28363 0.655 0.4207 0.0
C54 C 0.28599 0.67018 0.44168 0.0
C55 C 0.26898 0.67156 0.46124 0.0
C56 C 0.2492 0.65768 0.4588 0.0
C57 C 0.24713 0.64203 0.43809 0.0
C58 C 0.32562 0.57661 0.36143 0.0
C59 C 0.33921 0.60404 0.43251 0.0
O60 O 0.35445 0.53165 0.39764 0.0
O61 O 0.34808 0.52559 0.43924 0.0
O62 O 0.31856 0.56318 0.45994 0.0
O63 O 0.29351 0.56172 0.43064 0.0
O64 O 0.29886 0.52844 0.40288 0.0
O65 O 0.27215 0.55532 0.38888 0.0
O66 O 0.26051 0.60069 0.4113 0.0
O67 O 0.28157 0.61974 0.3836 0.0
O68 O 0.30366 0.57902 0.35694 0.0
O69 O 0.3294 0.57891 0.38586 0.0
O70 O 0.31772 0.60802 0.42482 0.0
O71 O 0.3487 0.58353 0.42946 0.0
H72 H 0.3598 0.48352 0.45396 0.0
H73 H 0.3791 0.44619 0.44988 0.0
H74 H 0.40161 0.46467 0.37199 0.0
H75 H 0.3818 0.50143 0.37587 0.0
H76 H 0.29726 0.65419 0.40626 0.0
H77 H 0.30149 0.68048 0.44277 0.0
H78 H 0.2353 0.65878 0.47289 0.0
H79 H 0.23224 0.63082 0.43737 0.0
C80 C 1.00547 0.35765 0.42204 0.0
Eu81 Eu 0.97302 0.32656 0.41456 0.0
C82 C 0.02999 0.36562 0.41895 0.0
C83 C 0.04313 0.37162 0.44111 0.0
C84 C 0.06459 0.38278 0.43855 0.0
C85 C 0.07358 0.38858 0.41369 0.0
C86 C 0.06072 0.38189 0.39152 0.0
C87 C 0.03933 0.37065 0.39409 0.0
C88 C 0.95476 0.29342 0.44699 0.0
C89 C 0.99348 0.27805 0.39041 0.0
C90 C 0.90819 0.27034 0.37042 0.0
Eu91 Eu 0.94132 0.29542 0.38854 0.0
C92 C 0.88795 0.27958 0.35707 0.0
C93 C 0.89003 0.30105 0.3445 0.0
C94 C 0.87105 0.31549 0.34241 0.0
C95 C 0.84976 0.30842 0.35243 0.0
C96 C 0.84697 0.28559 0.36114 0.0
C97 C 0.86612 0.27123 0.36367 0.0
C98 C 0.95308 0.33145 0.35631 0.0
C99 C 0.91979 0.33785 0.42435 0.0
O100 O 0.99273 0.35613 0.40099 0.0
O101 O 0.99989 0.34221 0.4397 0.0
O102 O 0.95852 0.31462 0.45431 0.0
O103 O 0.962 0.29062 0.42395 0.0
O104 O 0.99823 0.29973 0.39679 0.0
O105 O 0.97185 0.27134 0.38909 0.0
O106 O 0.90953 0.27637 0.39508 0.0
O107 O 0.92768 0.27303 0.35801 0.0
O108 O 0.95409 0.30993 0.35001 0.0
O109 O 0.94862 0.3327 0.38059 0.0
O110 O 0.91604 0.31764 0.41285 0.0
O111 O 0.94085 0.34643 0.4255 0.0
H112 H 0.03638 0.36845 0.46057 0.0
H113 H 0.07369 0.38772 0.45617 0.0
H114 H 0.06705 0.38557 0.37201 0.0
H115 H 0.0298 0.36654 0.37648 0.0
H116 H 0.90676 0.30793 0.33932 0.0
H117 H 0.87362 0.33302 0.33578 0.0
H118 H 0.83066 0.27985 0.36913 0.0
H119 H 0.86427 0.25483 0.3736 0.0
C120 C 0.16938 1.00577 0.42307 0.0
Eu121 Eu 0.20149 0.97413 0.41692 0.0
C122 C 0.15917 0.02918 0.41883 0.0
C123 C 0.17181 0.04981 0.42073 0.0
C124 C 0.16082 0.0714 0.41747 0.0
C125 C 0.13691 0.07295 0.41232 0.0
C126 C 0.12451 0.05212 0.41062 0.0
C127 C 0.13545 0.03072 0.41373 0.0
C128 C 0.23367 0.95644 0.45068 0.0
C129 C 0.25012 0.99329 0.39039 0.0
C130 C 0.26037 0.90517 0.38316 0.0
Eu131 Eu 0.234 0.9405 0.3919 0.0
C132 C 0.26427 0.88534 0.40085 0.0
C133 C 0.24839 0.86708 0.40144 0.0
C134 C 0.24772 0.85212 0.42279 0.0
C135 C 0.26297 0.85503 0.44385 0.0
C136 C 0.28046 0.87161 0.44197 0.0
C137 C 0.28119 0.88656 0.42053 0.0
C138 C 0.20011 0.95443 0.35827 0.0
C139 C 0.19248 0.92108 0.42974 0.0
O140 O 0.1702 0.99149 0.40328 0.0
O141 O 0.18646 1.00278 0.43949 0.0
O142 O 0.21284 0.96208 0.4579 0.0
O143 O 0.23665 0.96211 0.42705 0.0
O144 O 0.22922 0.99833 0.39957 0.0
O145 O 0.25638 0.97174 0.38613 0.0
O146 O 0.26823 0.92497 0.39136 0.0
O147 O 0.23963 0.90708 0.37344 0.0
O148 O 0.22182 0.95304 0.35235 0.0
O149 O 0.19773 0.94997 0.38249 0.0
O150 O 0.21352 0.91797 0.42033 0.0
O151 O 0.18247 0.94155 0.42856 0.0
H152 H 0.19012 0.04926 0.42472 0.0
H153 H 0.17117 0.08686 0.41872 0.0
H154 H 0.10609 0.05223 0.40736 0.0
H155 H 0.12516 1.01519 0.41248 0.0
H156 H 0.23539 0.86532 0.38636 0.0
H157 H 0.23453 0.83893 0.42342 0.0
H158 H 0.29267 0.87395 0.45778 0.0
H159 H 0.29402 0.90009 0.42028 0.0
C160 C 0.0233 0.86307 0.08864 0.0
Eu161 Eu 0.05646 0.83238 0.09471 0.0
C162 C 0.99867 0.87053 0.09264 0.0
C163 C 0.98268 0.86997 0.0719 0.0
C164 C 0.96071 0.8802 0.07439 0.0
C165 C 0.95398 0.89158 0.09765 0.0
C166 C 0.96989 0.89166 0.11855 0.0
C167 C 0.99178 0.8814 0.11607 0.0
C168 C 0.07466 0.7997 0.06179 0.0
C169 C 0.03732 0.78367 0.12152 0.0
C170 C 0.12596 0.77609 0.12743 0.0
Eu171 Eu 0.08956 0.8006 0.12022 0.0
C172 C 0.14543 0.77688 0.10897 0.0
C173 C 0.16694 0.78506 0.11721 0.0
C174 C 0.18358 0.79133 0.09873 0.0
C175 C 0.17885 0.78969 0.07174 0.0
C176 C 0.15751 0.78113 0.06361 0.0
C177 C 0.14114 0.77456 0.082 0.0
C178 C 0.07573 0.83442 0.15369 0.0
C179 C 0.10912 0.84241 0.0824 0.0
O180 O 0.0368 0.86184 0.10913 0.0
O181 O 0.02861 0.84767 0.07084 0.0
O182 O 0.07003 0.82072 0.05432 0.0
O183 O 0.06815 0.79702 0.08514 0.0
O184 O 0.03239 0.80432 0.11161 0.0
O185 O 0.05882 0.77771 0.12655 0.0
O186 O 0.10684 0.76724 0.11837 0.0
O187 O 0.12242 0.79532 0.14009 0.0
O188 O 0.07663 0.81264 0.15953 0.0
O189 O 0.08026 0.83695 0.12944 0.0
O190 O 0.11247 0.82173 0.09264 0.0
O191 O 0.08847 0.85202 0.08273 0.0
H192 H 0.98736 0.86213 0.0534 0.0
H193 H 0.94907 0.8793 0.05787 0.0
H194 H 0.96584 0.90045 0.13667 0.0
H195 H 1.00363 0.88272 0.13238 0.0
H196 H 0.17048 0.78756 0.13784 0.0
H197 H 0.19992 0.79799 0.10555 0.0
H198 H 0.15361 0.77901 0.04301 0.0
H199 H 0.12481 0.76833 0.07499 0.0
C200 C 0.66823 0.01687 0.07958 0.0
Eu201 Eu 0.69789 0.04942 0.09205 0.0
C202 C 0.6589 0.99344 0.08611 0.0
C203 C 0.65823 0.97612 0.06684 0.0
C204 C 0.64641 0.95528 0.07125 0.0
C205 C 0.63467 0.95117 0.09501 0.0
C206 C 0.63597 0.96828 0.11456 0.0
C207 C 0.64788 0.98904 0.11021 0.0
C208 C 0.73362 0.06916 0.06495 0.0
C209 C 0.74421 0.02918 0.12224 0.0
C210 C 0.74577 0.11466 0.14617 0.0
Eu211 Eu 0.72486 0.08057 0.12412 0.0
C212 C 0.74245 0.13926 0.14139 0.0
C213 C 0.73656 0.15399 0.16208 0.0
C214 C 0.73309 0.17742 0.15738 0.0
C215 C 0.73589 0.18638 0.13197 0.0
C216 C 0.73999 0.17111 0.11107 0.0
C217 C 0.7432 0.14783 0.11574 0.0
C218 C 0.68861 0.06341 0.15136 0.0
C219 C 0.68835 0.10295 0.08122 0.0
O220 O 0.66416 0.03354 0.09615 0.0
O221 O 0.68844 0.01891 0.06843 0.0
O222 O 0.71381 0.06416 0.0543 0.0
O223 O 0.73394 0.06193 0.08822 0.0
O224 O 0.72384 0.02422 0.11163 0.0
O225 O 0.74937 0.05071 0.12793 0.0
O226 O 0.75484 0.10281 0.12697 0.0
O227 O 0.72819 0.10436 0.15686 0.0
O228 O 0.70992 0.06143 0.15857 0.0
O229 O 0.68815 0.07041 0.12773 0.0
O230 O 0.70627 0.10621 0.0969 0.0
O231 O 0.68043 0.08191 0.07701 0.0
H232 H 0.66619 0.97902 0.04793 0.0
H233 H 0.64573 0.94275 0.05556 0.0
H234 H 0.62757 0.96574 0.13328 0.0
H235 H 0.64786 1.00191 0.12556 0.0
H236 H 0.73516 0.14747 0.18189 0.0
H237 H 0.72973 0.18873 0.17382 0.0
H238 H 0.74263 0.17722 0.09124 0.0
H239 H 0.74694 0.13672 0.09922 0.0
C240 C 0.50665 0.66947 0.09335 0.0
Eu241 Eu 0.47269 0.69924 0.09893 0.0
C242 C 0.5312 0.66218 0.09764 0.0
C243 C 0.54675 0.66092 0.07649 0.0
C244 C 0.56851 0.65041 0.07936 0.0
C245 C 0.57533 0.64055 0.10341 0.0
C246 C 0.56002 0.64247 0.12475 0.0
C247 C 0.53835 0.65306 0.12192 0.0
C248 C 0.45402 0.73161 0.06593 0.0
C249 C 0.48887 0.74845 0.12598 0.0
C250 C 0.40011 0.75172 0.13516 0.0
Eu251 Eu 0.43725 0.72866 0.12464 0.0
C252 C 0.38051 0.75558 0.11721 0.0
C253 C 0.36461 0.73778 0.11241 0.0
C254 C 0.35027 0.73862 0.09051 0.0
C255 C 0.35139 0.75737 0.0732 0.0
C256 C 0.36577 0.77607 0.07928 0.0
C257 C 0.38008 0.77525 0.10118 0.0
C258 C 0.45285 0.69499 0.15738 0.0
C259 C 0.42075 0.68761 0.08451 0.0
O260 O 0.49284 0.6703 0.1136 0.0
O261 O 0.50142 0.68493 0.07558 0.0
O262 O 0.46157 0.71162 0.05792 0.0
O263 O 0.45878 0.73402 0.08987 0.0
O264 O 0.49518 0.7279 0.11691 0.0
O265 O 0.46692 0.75334 0.13003 0.0
O266 O 0.41944 0.76164 0.12848 0.0
O267 O 0.40332 0.73049 0.14284 0.0
O268 O 0.45111 0.71661 0.16353 0.0
O269 O 0.44856 0.69277 0.13308 0.0
O270 O 0.41625 0.70807 0.09481 0.0
O271 O 0.4417 0.67873 0.08569 0.0
H272 H 0.54176 0.6673 0.05737 0.0
H273 H 0.5796 0.64917 0.06235 0.0
H274 H 0.56463 0.63549 0.14371 0.0
H275 H 0.5269 0.65339 0.13866 0.0
H276 H 0.36418 0.72254 0.12465 0.0
H277 H 0.33905 0.72414 0.08652 0.0
H278 H 0.36633 0.79113 0.06677 0.0
H279 H 0.39183 0.78942 0.10461 0.0
C280 C 0.8599 0.5149 0.08508 0.0
Eu281 Eu 0.83096 0.48078 0.09299 0.0
C282 C 0.86682 0.53966 0.08744 0.0
C283 C 0.87649 0.55104 0.06575 0.0
C284 C 0.88726 0.57261 0.06854 0.0
C285 C 0.88884 0.58348 0.09321 0.0
C286 C 0.87828 0.57245 0.11473 0.0
C287 C 0.86748 0.55089 0.1119 0.0
C288 C 0.79771 0.46076 0.06212 0.0
C289 C 0.78199 0.49833 0.12025 0.0
C290 C 0.78329 0.41011 0.13637 0.0
Eu291 Eu 0.80244 0.44743 0.12029 0.0
C292 C 0.79584 0.38804 0.13561 0.0
C293 C 0.80564 0.37889 0.15859 0.0
C294 C 0.82272 0.36188 0.15708 0.0
C295 C 0.83052 0.35407 0.13256 0.0
C296 C 0.82043 0.36318 0.10979 0.0
C297 C 0.80299 0.37938 0.11127 0.0
C298 C 0.83761 0.46248 0.1511 0.0
C299 C 0.84535 0.42906 0.08274 0.0
O300 O 0.85863 0.50276 0.10663 0.0
O301 O 0.84515 0.50809 0.06723 0.0
O302 O 0.81844 0.4655 0.05377 0.0
O303 O 0.79547 0.46794 0.08525 0.0
O304 O 0.80273 0.50416 0.11126 0.0
O305 O 0.7768 0.47642 0.12389 0.0
O306 O 0.77835 0.41925 0.11359 0.0
O307 O 0.79183 0.4252 0.15261 0.0
O308 O 0.81607 0.46314 0.15763 0.0
O309 O 0.83903 0.4572 0.127 0.0
O310 O 0.82504 0.42453 0.0935 0.0
O311 O 0.85336 0.45028 0.08256 0.0
H312 H 0.87653 0.54281 0.04671 0.0
H313 H 0.89469 0.58059 0.05133 0.0
H314 H 0.87919 0.57995 0.1341 0.0
H315 H 0.86048 0.54259 0.12916 0.0
H316 H 0.80076 0.38555 0.17762 0.0
H317 H 0.82992 0.35499 0.17502 0.0
H318 H 0.82567 0.35747 0.09056 0.0
H319 H 0.79605 0.38602 0.09306 0.0
C320 C 0.41364 0.76963 0.64905 0.0
Eu321 Eu 0.44283 0.79671 0.62578 0.0
C322 C 0.40051 0.77214 0.67348 0.0
C323 C 0.40035 0.75405 0.6917 0.0
C324 C 0.38911 0.75662 0.71573 0.0
C325 C 0.37763 0.7773 0.72186 0.0
C326 C 0.37853 0.79564 0.70378 0.0
C327 C 0.39 0.79315 0.67995 0.0
C328 C 0.45667 0.83294 0.65662 0.0
C329 C 0.41928 0.83598 0.58766 0.0
C330 C 0.5051 0.85864 0.58648 0.0
Eu331 Eu 0.47325 0.82746 0.59695 0.0
C332 C 0.52911 0.86744 0.59164 0.0
C333 C 0.54542 0.86852 0.57123 0.0
C334 C 0.56678 0.87973 0.57464 0.0
C335 C 0.57256 0.89048 0.59857 0.0
C336 C 0.5564 0.88887 0.61918 0.0
C337 C 0.5351 0.87761 0.61578 0.0
C338 C 0.45384 0.79371 0.56632 0.0
C339 C 0.49486 0.77987 0.62059 0.0
O340 O 0.40795 0.78295 0.62937 0.0
O341 O 0.43584 0.76831 0.65236 0.0
O342 O 0.45772 0.81152 0.66313 0.0
O343 O 0.45099 0.83387 0.63271 0.0
O344 O 0.41621 0.81674 0.60133 0.0
O345 O 0.44008 0.84484 0.5843 0.0
O346 O 0.48982 0.86039 0.60523 0.0
O347 O 0.50198 0.84007 0.57233 0.0
O348 O 0.45776 0.81461 0.55805 0.0
O349 O 0.46177 0.79142 0.58908 0.0
O350 O 0.49924 0.80183 0.61535 0.0
O351 O 0.4733 0.77288 0.62127 0.0
H352 H 0.40897 0.73793 0.68733 0.0
H353 H 0.38905 0.74227 0.72929 0.0
H354 H 0.36958 0.8117 0.70747 0.0
H355 H 0.39046 0.8076 0.6665 0.0
H356 H 0.54136 0.86131 0.55222 0.0
H357 H 0.57842 0.88067 0.55811 0.0
H358 H 0.56012 0.89648 0.63807 0.0
H359 H 0.52307 0.87741 0.63201 0.0
C360 C 0.74852 0.40383 0.64021 0.0
Eu361 Eu 0.72862 0.44067 0.62271 0.0
C362 C 0.73675 0.38285 0.6487 0.0
C363 C 0.71343 0.38414 0.65603 0.0
C364 C 0.69983 0.36437 0.65624 0.0
C365 C 0.70935 0.34308 0.64902 0.0
C366 C 0.73318 0.34158 0.64402 0.0
C367 C 0.74678 0.36138 0.64378 0.0
C368 C 0.69331 0.456 0.65343 0.0
C369 C 0.68586 0.42351 0.5844 0.0
C370 C 0.67254 0.51026 0.5895 0.0
Eu371 Eu 0.70114 0.47552 0.59571 0.0
C372 C 0.66562 0.53512 0.59088 0.0
C373 C 0.65628 0.54597 0.56865 0.0
C374 C 0.64567 0.56774 0.57048 0.0
C375 C 0.64394 0.57936 0.59468 0.0
C376 C 0.65413 0.56883 0.61675 0.0
C377 C 0.66474 0.54706 0.61489 0.0
C378 C 0.73462 0.45647 0.56451 0.0
C379 C 0.75088 0.49137 0.62169 0.0
O380 O 0.74609 0.40815 0.61525 0.0
O381 O 0.74511 0.42204 0.65474 0.0
O382 O 0.71469 0.4554 0.66041 0.0
O383 O 0.69213 0.45138 0.62914 0.0
O384 O 0.70491 0.41805 0.59737 0.0
O385 O 0.6793 0.44527 0.58247 0.0
O386 O 0.67543 0.49897 0.61146 0.0
O387 O 0.68557 0.50242 0.57049 0.0
O388 O 0.71484 0.4637 0.55557 0.0
O389 O 0.73636 0.46173 0.58833 0.0
O390 O 0.73003 0.49805 0.61392 0.0
O391 O 0.75543 0.46911 0.62409 0.0
H392 H 0.70527 0.40066 0.65951 0.0
H393 H 0.68158 0.36599 0.66027 0.0
H394 H 0.74096 0.32547 0.63797 0.0
H395 H 0.76461 0.36016 0.63764 0.0
H396 H 0.65638 0.53721 0.54991 0.0
H397 H 0.63849 0.57528 0.55288 0.0
H398 H 0.65306 0.57691 0.63581 0.0
H399 H 0.67145 0.5392 0.63256 0.0
C400 C 0.12109 0.76132 0.63417 0.0
Eu401 Eu 0.08905 0.73278 0.61912 0.0
C402 C 0.13815 0.76336 0.65554 0.0
C403 C 0.13287 0.77641 0.67798 0.0
C404 C 0.14905 0.77911 0.69795 0.0
C405 C 0.17094 0.76897 0.69587 0.0
C406 C 0.17621 0.75587 0.67346 0.0
C407 C 0.16001 0.75313 0.65347 0.0
C408 C 0.07511 0.69878 0.65308 0.0
C409 C 0.10918 0.6902 0.58312 0.0
C410 C 0.02358 0.66861 0.58722 0.0
Eu411 Eu 0.05564 0.70025 0.59406 0.0
C412 C 0.9997 0.65945 0.59225 0.0
C413 C 0.98239 0.66082 0.57296 0.0
C414 C 0.96125 0.64909 0.57596 0.0
C415 C 0.95679 0.63531 0.59822 0.0
C416 C 0.97393 0.63446 0.61777 0.0
C417 C 0.99496 0.64625 0.61483 0.0
C418 C 0.07469 0.73229 0.56085 0.0
C419 C 0.03634 0.74954 0.61649 0.0
O420 O 0.12442 0.74543 0.61639 0.0
O421 O 0.09949 0.76311 0.64095 0.0
O422 O 0.07741 0.7203 0.65889 0.0
O423 O 0.07946 0.69634 0.62892 0.0
O424 O 0.11298 0.71078 0.5936 0.0
O425 O 0.08829 0.68104 0.58306 0.0
O426 O 0.03831 0.66878 0.60661 0.0
O427 O 0.02695 0.68573 0.57089 0.0
O428 O 0.06915 0.71151 0.55339 0.0
O429 O 0.06802 0.73526 0.58399 0.0
O430 O 0.03119 0.72758 0.61198 0.0
O431 O 0.05806 0.75626 0.61621 0.0
H432 H 0.11626 0.78472 0.68005 0.0
H433 H 0.14444 0.78923 0.715 0.0
H434 H 0.1931 0.74824 0.671 0.0
H435 H 0.16474 0.74326 0.63628 0.0
H436 H 0.98546 0.67036 0.55506 0.0
H437 H 0.94874 0.65012 0.56028 0.0
H438 H 0.97121 0.62445 0.6354 0.0
H439 H 1.00782 0.64441 0.63004 0.0
C440 C 0.77044 0.12074 0.63535 0.0
Eu441 Eu 0.79747 0.08647 0.62467 0.0
C442 C 0.75535 0.13367 0.61771 0.0
C443 C 0.75625 0.15772 0.61791 0.0
C444 C 0.74461 0.1703 0.59886 0.0
C445 C 0.73178 0.15905 0.57926 0.0
C446 C 0.73036 0.13496 0.57962 0.0
C447 C 0.74236 0.1223 0.59842 0.0
C448 C 0.83114 0.07278 0.65889 0.0
C449 C 0.83817 0.10634 0.58619 0.0
C450 C 0.85872 0.02086 0.5923 0.0
Eu451 Eu 0.828 0.05374 0.59948 0.0
C452 C 0.86639 0.99634 0.59599 0.0
C453 C 0.86864 0.9815 0.57431 0.0
C454 C 0.87947 0.95985 0.57675 0.0
C455 C 0.88866 0.95243 0.60091 0.0
C456 C 0.88572 0.96701 0.62275 0.0
C457 C 0.87481 0.98856 0.62034 0.0
C458 C 0.79615 0.07264 0.56602 0.0
C459 C 0.77836 0.03462 0.6224 0.0
O460 O 0.76483 0.09934 0.63993 0.0
O461 O 0.79233 0.12325 0.63052 0.0
O462 O 0.80942 0.074 0.66431 0.0
O463 O 0.83377 0.077 0.63466 0.0
O464 O 0.81733 0.10966 0.59609 0.0
O465 O 0.84784 0.08573 0.58742 0.0
O466 O 0.85785 0.03426 0.61288 0.0
O467 O 0.84288 0.02605 0.575 0.0
O468 O 0.81728 0.06804 0.55911 0.0
O469 O 0.79279 0.06586 0.58909 0.0
O470 O 0.7998 0.02912 0.61558 0.0
O471 O 0.77262 0.05648 0.62502 0.0
H472 H 0.76636 0.16675 0.63248 0.0
H473 H 0.74532 0.18893 0.59985 0.0
H474 H 0.72012 0.12594 0.56536 0.0
H475 H 0.74174 0.10366 0.59759 0.0
H476 H 0.8628 0.987 0.55515 0.0
H477 H 0.88151 0.94935 0.55937 0.0
H478 H 0.89216 0.9619 0.6418 0.0
H479 H 0.87369 0.99946 0.63751 0.0
C480 C 0.89969 0.25425 0.88983 0.0
Eu481 Eu 0.93794 0.23191 0.89708 0.0
C482 C 0.87659 0.24832 0.89936 0.0
C483 C 0.87054 0.22507 0.90309 0.0
C484 C 0.85154 0.21928 0.91849 0.0
C485 C 0.83822 0.23667 0.92996 0.0
C486 C 0.84314 0.25987 0.92452 0.0
C487 C 0.86234 0.26567 0.90943 0.0
C488 C 0.9509 0.19799 0.8634 0.0
C489 C 0.92426 0.18847 0.93631 0.0
C490 C 1.00975 0.17336 0.92119 0.0
Eu491 Eu 0.97505 0.20248 0.91931 0.0
C492 C 0.0342 0.16524 0.91797 0.0
C493 C 0.0484 0.16124 0.93988 0.0
C494 C 0.06973 0.14976 0.93727 0.0
C495 C 0.07734 0.14158 0.91271 0.0
C496 C 0.06343 0.14625 0.89073 0.0
C497 C 0.04228 0.15786 0.8933 0.0
C498 C 0.95978 0.23705 0.9519 0.0
C499 C 0.98929 0.25218 0.89043 0.0
O500 O 0.91432 0.25935 0.90837 0.0
O501 O 0.90857 0.24051 0.87224 0.0
O502 O 0.94877 0.21958 0.85717 0.0
O503 O 0.9482 0.19568 0.88805 0.0
O504 O 0.91873 0.20903 0.92685 0.0
O505 O 0.94534 0.18033 0.93332 0.0
O506 O 0.99759 0.17774 0.90017 0.0
O507 O 1.00299 0.18534 0.9416 0.0
O508 O 0.96621 0.21685 0.96056 0.0
O509 O 0.96327 0.23784 0.92771 0.0
O510 O 0.99619 0.23173 0.89953 0.0
O511 O 0.96702 0.25688 0.88834 0.0
H512 H 0.88133 0.21134 0.89557 0.0
H513 H 0.84792 0.20131 0.92251 0.0
H514 H 0.83308 0.2735 0.93347 0.0
H515 H 0.8669 0.28366 0.90707 0.0
H516 H 0.04265 0.16622 0.95925 0.0
H517 H 0.07977 0.14641 0.95472 0.0
H518 H 0.06872 0.1406 0.87143 0.0
H519 H 0.03184 0.16027 0.87593 0.0
C520 C 0.27154 0.90217 0.89999 0.0
Eu521 Eu 0.29629 0.93947 0.9003 0.0
C522 C 0.2794 0.87818 0.90287 0.0
C523 C 0.30167 0.8722 0.89465 0.0
C524 C 0.31088 0.85072 0.90083 0.0
C525 C 0.29817 0.83475 0.91568 0.0
C526 C 0.27557 0.84046 0.9233 0.0
C527 C 0.26626 0.86207 0.91694 0.0
C528 C 0.32834 0.94875 0.86267 0.0
C529 C 0.34316 0.92428 0.93326 0.0
C530 C 0.35993 1.00955 0.9173 0.0
Eu531 Eu 0.32967 0.97578 0.91775 0.0
C532 C 0.36785 0.03412 0.91456 0.0
C533 C 0.36904 0.04908 0.93627 0.0
C534 C 0.38002 0.07072 0.93437 0.0
C535 C 0.39048 0.07799 0.91078 0.0
C536 C 0.38869 0.06323 0.88894 0.0
C537 C 0.37762 0.04173 0.89081 0.0
C538 C 0.29751 0.96258 0.95412 0.0
C539 C 0.2786 0.99165 0.89322 0.0
O540 O 0.27451 0.91479 0.92088 0.0
O541 O 0.27788 0.91285 0.87855 0.0
O542 O 0.30643 0.94618 0.85853 0.0
O543 O 0.33232 0.94752 0.8872 0.0
O544 O 0.32207 0.91923 0.92529 0.0
O545 O 0.3516 0.94524 0.93004 0.0
O546 O 0.3535 0.99814 0.89639 0.0
O547 O 0.34954 1.00239 0.93863 0.0
O548 O 0.31869 0.96758 0.96042 0.0
O549 O 0.29476 0.96609 0.93015 0.0
O550 O 0.30001 0.99771 0.89985 0.0
O551 O 0.27238 0.96969 0.89327 0.0
H552 H 0.31229 0.88442 0.88407 0.0
H553 H 0.32809 0.8467 0.89403 0.0
H554 H 0.26538 0.82853 0.93479 0.0
H555 H 0.24919 0.86654 0.92387 0.0
H556 H 0.36215 0.04377 0.95504 0.0
H557 H 0.38111 0.08136 0.95174 0.0
H558 H 0.39612 0.06817 0.87031 0.0
H559 H 0.37744 0.03068 0.87372 0.0
C560 C 0.6194 0.2726 0.88012 0.0
Eu561 Eu 0.58614 0.30034 0.89181 0.0
C562 C 0.63971 0.26824 0.8966 0.0
C563 C 0.65645 0.2855 0.89956 0.0
C564 C 0.67129 0.2851 0.92088 0.0
C565 C 0.66998 0.26726 0.9394 0.0
C566 C 0.65464 0.24898 0.93523 0.0
C567 C 0.63966 0.24941 0.91394 0.0
C568 C 0.57147 0.3349 0.85977 0.0
C569 C 0.60784 0.34004 0.93168 0.0
C570 C 0.52229 0.3629 0.9284 0.0
Eu571 Eu 0.55445 0.33153 0.91987 0.0
C572 C 0.49828 0.37184 0.92325 0.0
C573 C 0.4807 0.36978 0.94218 0.0
C574 C 0.45933 0.38113 0.93906 0.0
C575 C 0.45485 0.39521 0.91705 0.0
C576 C 0.47229 0.39678 0.89787 0.0
C577 C 0.49355 0.38537 0.90091 0.0
C578 C 0.57352 0.29749 0.95056 0.0
C579 C 0.53337 0.28417 0.89246 0.0
O580 O 0.59999 0.26557 0.89026 0.0
O581 O 0.61768 0.29326 0.87004 0.0
O582 O 0.57178 0.31323 0.85359 0.0
O583 O 0.57681 0.33699 0.88386 0.0
O584 O 0.61087 0.3202 0.91913 0.0
O585 O 0.58712 0.34953 0.93313 0.0
O586 O 0.53727 0.36366 0.90926 0.0
O587 O 0.52568 0.34513 0.9438 0.0
O588 O 0.56938 0.31831 0.95912 0.0
O589 O 0.56597 0.29575 0.92755 0.0
O590 O 0.52893 0.30451 0.90338 0.0
O591 O 0.55463 0.2784 0.88624 0.0
H592 H 0.65706 0.30022 0.88652 0.0
H593 H 0.6831 0.29936 0.92346 0.0
H594 H 0.65392 0.23458 0.94868 0.0
H595 H 0.62702 0.23578 0.91205 0.0
H596 H 0.48372 0.35994 0.95988 0.0
H597 H 0.44661 0.37952 0.95447 0.0
H598 H 0.46962 0.40705 0.88041 0.0
H599 H 0.50658 0.38775 0.88596 0.0
C600 C 0.24951 0.6196 0.86077 0.0
Eu601 Eu 0.22614 0.58744 0.88435 0.0
C602 C 0.27295 0.6256 0.85306 0.0
C603 C 0.29181 0.61146 0.85909 0.0
C604 C 0.31423 0.61922 0.85418 0.0
C605 C 0.31801 0.6414 0.84367 0.0
C606 C 0.29867 0.65436 0.83558 0.0
C607 C 0.27645 0.64653 0.84028 0.0
C608 C 0.1898 0.57017 0.85673 0.0
C609 C 0.18712 0.60915 0.92454 0.0
C610 C 0.16922 0.52266 0.92723 0.0
Eu611 Eu 0.19886 0.55561 0.91564 0.0
C612 C 0.15983 0.49905 0.92126 0.0
C613 C 0.16031 0.48155 0.94039 0.0
C614 C 0.14837 0.46062 0.93671 0.0
C615 C 0.13529 0.45657 0.91386 0.0
C616 C 0.13539 0.47387 0.89443 0.0
C617 C 0.14741 0.49469 0.89805 0.0
C618 C 0.23259 0.5771 0.94395 0.0
C619 C 0.24733 0.53685 0.88941 0.0
O620 O 0.24031 0.60213 0.84866 0.0
O621 O 0.24489 0.6199 0.88585 0.0
O622 O 0.21102 0.56926 0.84921 0.0
O623 O 0.18944 0.57693 0.88031 0.0
O624 O 0.20436 0.613 0.90806 0.0
O625 O 0.18064 0.58784 0.93022 0.0
O626 O 0.16565 0.53898 0.91004 0.0
O627 O 0.18901 0.52509 0.93925 0.0
O628 O 0.21249 0.57164 0.95361 0.0
O629 O 0.23441 0.56933 0.92099 0.0
O630 O 0.22612 0.53114 0.89699 0.0
O631 O 0.25248 0.5588 0.88603 0.0
H632 H 0.28922 0.59494 0.86855 0.0
H633 H 0.32852 0.60839 0.86003 0.0
H634 H 0.30035 0.67152 0.82758 0.0
H635 H 0.26197 0.65745 0.83517 0.0
H636 H 0.1693 0.48436 0.9587 0.0
H637 H 0.14868 0.44798 0.95231 0.0
H638 H 0.12594 0.47144 0.87636 0.0
H639 H 0.14636 0.50768 0.88285 0.0
H640 H 0.57069 0.19719 0.30416 0.0
H641 H 0.58597 0.17157 0.27032 0.0
H642 H 0.61451 0.12744 0.32999 0.0
H643 H 0.59918 0.15325 0.36408 0.0
H644 H 0.64624 0.13565 0.29266 0.0
H645 H 0.56787 0.11065 0.2913 0.0
H646 H 0.52569 0.11502 0.28877 0.0
H647 H 0.53198 0.1452 0.21228 0.0
H648 H 0.57425 0.1413 0.2145 0.0
H649 H 0.68659 0.05168 0.20322 0.0
H650 H 0.66452 0.07024 0.2382 0.0
H651 H 0.6313 0.1139 0.18126 0.0
H652 H 0.65296 0.09483 0.14606 0.0
H653 H 0.60119 0.10446 0.21821 0.0
H654 H 0.6791 0.13156 0.2201 0.0
H655 H 0.72138 0.128 0.22225 0.0
H656 H 0.71609 0.09523 0.29742 0.0
H657 H 0.67373 0.09824 0.29555 0.0
C658 C 0.5798 0.18177 0.31017 0.0
C659 C 0.58345 0.1773 0.33701 0.0
C660 C 0.58859 0.16704 0.29068 0.0
C661 C 0.60144 0.14727 0.29726 0.0
C662 C 0.6047 0.14246 0.32413 0.0
C663 C 0.5957 0.15716 0.34372 0.0
C664 C 0.61232 0.13246 0.27615 0.0
C665 C 0.63624 0.1285 0.27669 0.0
C666 C 0.59967 0.12353 0.2546 0.0
C667 C 0.57425 0.12587 0.25317 0.0
C668 C 0.56028 0.11838 0.27402 0.0
C669 C 0.53635 0.12075 0.27263 0.0
C670 C 0.52617 0.13043 0.25041 0.0
C671 C 0.5399 0.13772 0.2295 0.0
C672 C 0.56384 0.13542 0.2308 0.0
C673 C 0.67421 0.06488 0.19802 0.0
C674 C 0.67164 0.07161 0.17165 0.0
C675 C 0.66172 0.07576 0.21819 0.0
C676 C 0.6465 0.09411 0.2128 0.0
C677 C 0.64294 0.09999 0.18628 0.0
C678 C 0.65531 0.08893 0.16602 0.0
C679 C 0.63513 0.10762 0.23474 0.0
C680 C 0.61117 0.11146 0.23429 0.0
C681 C 0.64776 0.1166 0.25632 0.0
C682 C 0.67323 0.11491 0.25756 0.0
C683 C 0.68694 0.12345 0.23701 0.0
C684 C 0.71092 0.12155 0.23818 0.0
C685 C 0.72141 0.11136 0.25992 0.0
C686 C 0.70794 0.10309 0.28057 0.0
C687 C 0.68395 0.10489 0.27947 0.0
H688 H 0.73998 0.10991 0.26079 0.0
H689 H 0.50764 0.13225 0.24936 0.0
H690 H 0.42842 0.65458 0.15031 0.0
H691 H 0.41 0.63088 0.18424 0.0
H692 H 0.4411 0.6728 0.24417 0.0
H693 H 0.45949 0.6965 0.21037 0.0
H694 H 0.4403 0.62716 0.25911 0.0
H695 H 0.38609 0.68243 0.22451 0.0
H696 H 0.36464 0.70138 0.18878 0.0
H697 H 0.33317 0.63688 0.16855 0.0
H698 H 0.35475 0.61746 0.2039 0.0
H699 H 0.36606 0.60102 0.36709 0.0
H700 H 0.38994 0.61793 0.33258 0.0
H701 H 0.3475 0.58545 0.27393 0.0
H702 H 0.32285 0.56967 0.30851 0.0
H703 H 0.35496 0.62494 0.25712 0.0
H704 H 0.40784 0.56911 0.29129 0.0
H705 H 0.4303 0.54891 0.32529 0.0
H706 H 0.46478 0.61202 0.34481 0.0
H707 H 0.44235 0.63265 0.3111 0.0
C708 C 0.43183 0.65842 0.1707 0.0
C709 C 0.44555 0.67753 0.17749 0.0
C710 C 0.42106 0.64494 0.19018 0.0
C711 C 0.42374 0.65013 0.21701 0.0
C712 C 0.43857 0.66833 0.22378 0.0
C713 C 0.44917 0.6819 0.20434 0.0
C714 C 0.41008 0.63769 0.23789 0.0
C715 C 0.42163 0.62683 0.25876 0.0
C716 C 0.38567 0.63668 0.23745 0.0
C717 C 0.37219 0.64845 0.21669 0.0
C718 C 0.37468 0.67227 0.21236 0.0
C719 C 0.36251 0.68309 0.19217 0.0
C720 C 0.3476 0.67033 0.17636 0.0
C721 C 0.34475 0.64673 0.18079 0.0
C722 C 0.35694 0.63581 0.20091 0.0
C723 C 0.36206 0.5971 0.34685 0.0
C724 C 0.34258 0.58372 0.34069 0.0
C725 C 0.37586 0.60679 0.32694 0.0
C726 C 0.37102 0.60291 0.30018 0.0
C727 C 0.35186 0.58897 0.29416 0.0
C728 C 0.33781 0.5797 0.31404 0.0
C729 C 0.38511 0.6141 0.27854 0.0
C730 C 0.37363 0.62494 0.25751 0.0
C731 C 0.40961 0.61484 0.27872 0.0
C732 C 0.42328 0.60245 0.29882 0.0
C733 C 0.42013 0.5787 0.30293 0.0
C734 C 0.43287 0.56717 0.32213 0.0
C735 C 0.44892 0.57918 0.33724 0.0
C736 C 0.45233 0.60274 0.33311 0.0
C737 C 0.43964 0.61435 0.31393 0.0
H738 H 0.45875 0.57023 0.35211 0.0
H739 H 0.33823 0.67873 0.16071 0.0
H740 H 0.92799 0.37175 0.36394 0.0
H741 H 0.91037 0.39665 0.33053 0.0
H742 H 0.93922 0.35386 0.26978 0.0
H743 H 0.95712 0.32938 0.30299 0.0
H744 H 0.94357 0.39527 0.25425 0.0
H745 H 0.86827 0.35682 0.27953 0.0
H746 H 0.83481 0.34638 0.30691 0.0
H747 H 0.83722 0.41258 0.3443 0.0
H748 H 0.87023 0.42365 0.31643 0.0
H749 H 0.87278 0.43068 0.14557 0.0
H750 H 0.89476 0.41178 0.18047 0.0
H751 H 0.8625 0.45604 0.23761 0.0
H752 H 0.83983 0.47419 0.20284 0.0
H753 H 0.86093 0.41634 0.25614 0.0
H754 H 0.92378 0.45756 0.21832 0.0
H755 H 0.94977 0.47078 0.18318 0.0
H756 H 0.97034 0.40092 0.16824 0.0
H757 H 0.94425 0.38725 0.20309 0.0
C758 C 0.93084 0.36782 0.34346 0.0
C759 C 0.94428 0.34853 0.33634 0.0
C760 C 0.92034 0.38192 0.3242 0.0
C761 C 0.92288 0.37718 0.29719 0.0
C762 C 0.93673 0.35818 0.29022 0.0
C763 C 0.94713 0.34411 0.30938 0.0
C764 C 0.91194 0.39213 0.2761 0.0
C765 C 0.92541 0.39964 0.25468 0.0
C766 C 0.88842 0.39884 0.2764 0.0
C767 C 0.87199 0.3908 0.29644 0.0
C768 C 0.86199 0.3689 0.29405 0.0
C769 C 0.84289 0.36303 0.30934 0.0
C770 C 0.83393 0.37881 0.32735 0.0
C771 C 0.84423 0.40037 0.33039 0.0
C772 C 0.86306 0.40648 0.31479 0.0
C773 C 0.8708 0.43681 0.16548 0.0
C774 C 0.85461 0.45422 0.17124 0.0
C775 C 0.88347 0.42592 0.18561 0.0
C776 C 0.88069 0.43238 0.21211 0.0
C777 C 0.86515 0.45044 0.2176 0.0
C778 C 0.85226 0.46105 0.19757 0.0
C779 C 0.89245 0.41939 0.23424 0.0
C780 C 0.87916 0.41221 0.25579 0.0
C781 C 0.91614 0.41321 0.23406 0.0
C782 C 0.93191 0.42137 0.21317 0.0
C783 C 0.93373 0.445 0.20742 0.0
C784 C 0.9485 0.45258 0.18758 0.0
C785 C 0.96165 0.4367 0.17344 0.0
C786 C 0.96012 0.41321 0.17918 0.0
C787 C 0.94537 0.40553 0.19901 0.0
H788 H 0.97307 0.4426 0.15808 0.0
H789 H 0.81885 0.37443 0.33875 0.0
H790 H 0.15854 0.932 0.36511 0.0
H791 H 0.13393 0.915 0.33113 0.0
H792 H 0.17793 0.94345 0.2713 0.0
H793 H 0.20254 0.96042 0.30516 0.0
H794 H 0.13265 0.94587 0.25627 0.0
H795 H 0.18338 0.88767 0.29133 0.0
H796 H 0.20042 0.86442 0.32684 0.0
H797 H 0.13373 0.83722 0.34585 0.0
H798 H 0.1162 0.86072 0.31082 0.0
H799 H 0.10289 0.87317 0.14802 0.0
H800 H 0.12068 0.89616 0.18271 0.0
H801 H 0.08361 0.85704 0.24093 0.0
H802 H 0.06665 0.83341 0.20624 0.0
H803 H 0.12391 0.86092 0.25802 0.0
H804 H 0.07249 0.91767 0.22368 0.0
H805 H 0.05405 0.94172 0.18981 0.0
H806 H 0.11941 0.97202 0.1709 0.0
H807 H 0.13831 0.94795 0.20447 0.0
C808 C 0.16273 0.93508 0.34472 0.0
C809 C 0.18263 0.94765 0.33799 0.0
C810 C 0.1487 0.92514 0.32521 0.0
C811 C 0.15412 0.92752 0.2984 0.0
C812 C 0.17325 0.94117 0.29168 0.0
C813 C 0.18736 0.95094 0.31115 0.0
C814 C 0.14077 0.91487 0.27745 0.0
C815 C 0.13091 0.92727 0.25656 0.0
C816 C 0.13787 0.89059 0.27786 0.0
C817 C 0.14844 0.87614 0.29863 0.0
C818 C 0.17232 0.87686 0.30321 0.0
C819 C 0.18207 0.86365 0.32326 0.0
C820 C 0.16815 0.84943 0.33867 0.0
C821 C 0.14447 0.84832 0.33398 0.0
C822 C 0.13462 0.86159 0.31403 0.0
C823 C 0.09809 0.8698 0.16817 0.0
C824 C 0.08307 0.85148 0.17419 0.0
C825 C 0.10834 0.88304 0.18818 0.0
C826 C 0.10354 0.87874 0.21488 0.0
C827 C 0.08789 0.86091 0.22074 0.0
C828 C 0.07794 0.84747 0.20078 0.0
C829 C 0.11556 0.89188 0.23664 0.0
C830 C 0.12536 0.87954 0.2577 0.0
C831 C 0.11814 0.91625 0.23653 0.0
C832 C 0.10684 0.93085 0.21643 0.0
C833 C 0.08296 0.92936 0.21219 0.0
C834 C 0.07242 0.94301 0.19306 0.0
C835 C 0.08556 0.95835 0.17817 0.0
C836 C 0.10926 0.96011 0.18243 0.0
C837 C 0.11989 0.94649 0.20153 0.0
H838 H 0.07737 0.96889 0.16336 0.0
H839 H 0.17572 0.83922 0.3542 0.0
H840 H 0.32115 0.94764 0.80996 0.0
H841 H 0.34488 0.9299 0.77599 0.0
H842 H 0.39666 0.91356 0.83354 0.0
H843 H 0.37282 0.93157 0.86784 0.0
H844 H 0.41715 0.92618 0.78857 0.0
H845 H 0.35809 0.87361 0.8112 0.0
H846 H 0.31879 0.85927 0.8192 0.0
H847 H 0.30171 0.87024 0.73833 0.0
H848 H 0.34067 0.88537 0.73 0.0
H849 H 0.46991 0.83753 0.70778 0.0
H850 H 0.45068 0.85937 0.74273 0.0
H851 H 0.40196 0.88593 0.68668 0.0
H852 H 0.42148 0.86455 0.65158 0.0
H853 H 0.38094 0.8668 0.73223 0.0
H854 H 0.44077 0.92124 0.71136 0.0
H855 H 0.4809 0.93375 0.70456 0.0
H856 H 0.49732 0.91556 0.78392 0.0
H857 H 0.45734 0.90262 0.79109 0.0
C858 C 0.33773 0.94057 0.81545 0.0
C859 C 0.34495 0.94109 0.8418 0.0
C860 C 0.35128 0.93019 0.79591 0.0
C861 C 0.37251 0.91979 0.80201 0.0
C862 C 0.38035 0.92125 0.82813 0.0
C863 C 0.36671 0.93168 0.8478 0.0
C864 C 0.38605 0.9071 0.78118 0.0
C865 C 0.40922 0.91301 0.77654 0.0
C866 C 0.37591 0.88988 0.76504 0.0
C867 C 0.35229 0.88099 0.77005 0.0
C868 C 0.34587 0.87332 0.79519 0.0
C869 C 0.32362 0.86506 0.7998 0.0
C870 C 0.3077 0.86399 0.77932 0.0
C871 C 0.31401 0.87119 0.7542 0.0
C872 C 0.33617 0.87967 0.74955 0.0
C873 C 0.45549 0.84852 0.70276 0.0
C874 C 0.44757 0.84952 0.67669 0.0
C875 C 0.44437 0.86094 0.72285 0.0
C876 C 0.42473 0.87441 0.71756 0.0
C877 C 0.41703 0.87574 0.69144 0.0
C878 C 0.42841 0.86368 0.67125 0.0
C879 C 0.41175 0.8863 0.73933 0.0
C880 C 0.38875 0.88007 0.74425 0.0
C881 C 0.4221 0.90294 0.75593 0.0
C882 C 0.44612 0.91073 0.75167 0.0
C883 C 0.45299 0.9197 0.72729 0.0
C884 C 0.4757 0.92692 0.72338 0.0
C885 C 0.49167 0.92539 0.74377 0.0
C886 C 0.48494 0.9167 0.76813 0.0
C887 C 0.46225 0.90944 0.77213 0.0
H888 H 0.50924 0.93099 0.74071 0.0
H889 H 0.29054 0.8574 0.78287 0.0
H890 H 0.56271 0.33305 0.80727 0.0
H891 H 0.57966 0.35625 0.77222 0.0
H892 H 0.61453 0.39796 0.82965 0.0
H893 H 0.5971 0.37496 0.86493 0.0
H894 H 0.60192 0.42478 0.79 0.0
H895 H 0.64178 0.35289 0.79549 0.0
H896 H 0.64611 0.31063 0.79637 0.0
H897 H 0.61752 0.30613 0.71898 0.0
H898 H 0.61266 0.34836 0.71781 0.0
H899 H 0.69179 0.46622 0.70554 0.0
H900 H 0.66776 0.44878 0.7396 0.0
H901 H 0.6316 0.40979 0.68077 0.0
H902 H 0.65575 0.42729 0.64654 0.0
H903 H 0.64392 0.38214 0.72061 0.0
H904 H 0.60561 0.45502 0.71507 0.0
H905 H 0.60255 0.4974 0.71474 0.0
H906 H 0.63003 0.50017 0.79275 0.0
H907 H 0.63355 0.45781 0.79341 0.0
C908 C 0.57363 0.34745 0.81253 0.0
C909 C 0.57845 0.35202 0.83908 0.0
C910 C 0.58358 0.36063 0.79235 0.0
C911 C 0.59901 0.37868 0.79794 0.0
C912 C 0.60287 0.38412 0.82452 0.0
C913 C 0.59277 0.37097 0.84481 0.0
C914 C 0.61166 0.39114 0.77614 0.0
C915 C 0.6113 0.41539 0.77504 0.0
C916 C 0.62373 0.37917 0.75604 0.0
C917 C 0.62661 0.35377 0.75669 0.0
C918 C 0.63623 0.34288 0.77875 0.0
C919 C 0.6388 0.31893 0.77929 0.0
C920 C 0.63203 0.3057 0.75778 0.0
C921 C 0.62271 0.3164 0.73565 0.0
C922 C 0.62004 0.34034 0.73504 0.0
C923 C 0.67833 0.45436 0.69974 0.0
C924 C 0.67558 0.4485 0.67313 0.0
C925 C 0.66454 0.44431 0.71934 0.0
C926 C 0.64756 0.42792 0.71305 0.0
C927 C 0.64444 0.42238 0.68637 0.0
C928 C 0.65813 0.43263 0.66668 0.0
C929 C 0.63407 0.41577 0.73437 0.0
C930 C 0.63439 0.39154 0.73545 0.0
C931 C 0.62215 0.42777 0.75452 0.0
C932 C 0.62004 0.45324 0.75419 0.0
C933 C 0.61117 0.46467 0.73208 0.0
C934 C 0.60933 0.48869 0.73185 0.0
C935 C 0.61615 0.50147 0.75369 0.0
C936 C 0.62478 0.49025 0.77583 0.0
C937 C 0.62668 0.46623 0.77616 0.0
H938 H 0.6147 0.52007 0.75347 0.0
H939 H 0.63406 0.28716 0.75822 0.0
H940 H 0.09683 0.65664 0.64706 0.0
H941 H 0.11254 0.6319 0.68173 0.0
H942 H 0.08309 0.67669 0.74026 0.0
H943 H 0.06796 0.70166 0.70572 0.0
H944 H 0.12484 0.66822 0.75383 0.0
H945 H 0.0628 0.61952 0.72641 0.0
H946 H 0.03919 0.59748 0.69509 0.0
H947 H 0.09778 0.55581 0.67515 0.0
H948 H 0.12183 0.57782 0.7061 0.0
H949 H 0.15227 0.59869 0.86398 0.0
H950 H 0.12888 0.61724 0.82995 0.0
H951 H 0.1646 0.57828 0.77062 0.0
H952 H 0.18803 0.55974 0.80455 0.0
H953 H 0.11883 0.58308 0.75805 0.0
H954 H 0.18074 0.63225 0.78486 0.0
H955 H 0.20432 0.65389 0.81655 0.0
H956 H 0.14564 0.69499 0.83748 0.0
H957 H 0.12148 0.67315 0.80644 0.0
C958 C 0.09325 0.66092 0.6673 0.0
C959 C 0.08098 0.68115 0.67351 0.0
C960 C 0.10231 0.64673 0.68725 0.0
C961 C 0.09908 0.65219 0.71395 0.0
C962 C 0.08607 0.67196 0.72002 0.0
C963 C 0.0772 0.68619 0.70016 0.0
C964 C 0.11013 0.63818 0.73556 0.0
C965 C 0.1231 0.64964 0.75489 0.0
C966 C 0.10859 0.61378 0.73695 0.0
C967 C 0.09417 0.60047 0.71839 0.0
C968 C 0.07069 0.60577 0.71521 0.0
C969 C 0.05722 0.59326 0.69754 0.0
C970 C 0.06699 0.5753 0.68309 0.0
C971 C 0.09024 0.56975 0.68633 0.0
C972 C 0.1038 0.58223 0.70395 0.0
C973 C 0.15476 0.5936 0.84377 0.0
C974 C 0.17211 0.57765 0.83709 0.0
C975 C 0.14148 0.60442 0.82422 0.0
C976 C 0.14511 0.59953 0.79748 0.0
C977 C 0.16139 0.5825 0.79096 0.0
C978 C 0.17479 0.57183 0.81046 0.0
C979 C 0.13323 0.61319 0.7763 0.0
C980 C 0.1203 0.60168 0.75703 0.0
C981 C 0.13474 0.63757 0.77495 0.0
C982 C 0.14922 0.65086 0.79354 0.0
C983 C 0.17278 0.64574 0.79642 0.0
C984 C 0.18625 0.65803 0.81428 0.0
C985 C 0.17643 0.67571 0.82913 0.0
C986 C 0.15314 0.68118 0.82609 0.0
C987 C 0.13955 0.66884 0.80838 0.0
H988 H 0.18689 0.68523 0.84293 0.0
H989 H 0.05653 0.56563 0.66943 0.0
H990 H 0.87032 0.09948 0.65352 0.0
H991 H 0.8931 0.11734 0.68839 0.0
H992 H 0.85267 0.08151 0.74641 0.0
H993 H 0.82932 0.06444 0.71156 0.0
H994 H 0.85705 0.12199 0.76317 0.0
H995 H 0.91317 0.06917 0.73021 0.0
H996 H 0.93742 0.04998 0.69706 0.0
H997 H 0.96933 0.11462 0.67823 0.0
H998 H 0.94506 0.13426 0.71105 0.0
H999 H 0.92763 0.15684 0.871 0.0
H1000 H 0.91049 0.13195 0.83726 0.0
H1001 H 0.94031 0.17451 0.77693 0.0
H1002 H 0.95736 0.19933 0.81049 0.0
H1003 H 0.94213 0.12903 0.76275 0.0
H1004 H 0.88439 0.18134 0.79586 0.0
H1005 H 0.8614 0.19924 0.83105 0.0
H1006 H 0.83325 0.13318 0.85128 0.0
H1007 H 0.85641 0.11482 0.81649 0.0
C1008 C 0.86661 0.09497 0.67367 0.0
C1009 C 0.84802 0.08025 0.67957 0.0
C1010 C 0.87972 0.10527 0.6938 0.0
C1011 C 0.87501 0.10084 0.7205 0.0
C1012 C 0.85687 0.08551 0.72624 0.0
C1013 C 0.84358 0.07549 0.70618 0.0
C1014 C 0.88808 0.11285 0.74236 0.0
C1015 C 0.87569 0.12307 0.76313 0.0
C1016 C 0.91249 0.11495 0.74265 0.0
C1017 C 0.92713 0.10321 0.72292 0.0
C1018 C 0.92524 0.07932 0.71887 0.0
C1019 C 0.93901 0.06836 0.70016 0.0
C1020 C 0.95487 0.08109 0.6855 0.0
C1021 C 0.95702 0.10479 0.68958 0.0
C1022 C 0.94328 0.11584 0.70825 0.0
C1023 C 0.93099 0.16059 0.85057 0.0
C1024 C 0.944 0.18014 0.84357 0.0
C1025 C 0.92096 0.14644 0.83118 0.0
C1026 C 0.92371 0.15138 0.80427 0.0
C1027 C 0.93776 0.17017 0.79737 0.0
C1028 C 0.94757 0.1844 0.81668 0.0
C1029 C 0.91106 0.13796 0.78334 0.0
C1030 C 0.9235 0.12766 0.76275 0.0
C1031 C 0.88674 0.13557 0.78334 0.0
C1032 C 0.8723 0.14667 0.80374 0.0
C1033 C 0.87338 0.17061 0.8079 0.0
C1034 C 0.86033 0.18084 0.82777 0.0
C1035 C 0.84592 0.16735 0.84343 0.0
C1036 C 0.84445 0.14361 0.83916 0.0
C1037 C 0.85753 0.13328 0.81936 0.0
H1038 H 0.83586 0.17529 0.85885 0.0
H1039 H 0.96551 0.07257 0.67103 0.0
H1040 H 0.44427 0.10251 0.37756 0.0
H1041 H 0.40876 0.08041 0.37323 0.0
H1042 H 0.37708 0.12177 0.43344 0.0
H1043 H 0.41285 0.1438 0.43815 0.0
H1044 H 0.3646 0.07936 0.44091 0.0
H1045 H 0.36426 0.12752 0.36504 0.0
H1046 H 0.37963 0.1452 0.32473 0.0
H1047 H 0.38562 0.07839 0.28927 0.0
H1048 H 0.37057 0.06027 0.32951 0.0
H1049 H 0.25133 0.03602 0.41415 0.0
H1050 H 0.28404 0.06273 0.41667 0.0
H1051 H 0.32339 0.01843 0.36577 0.0
H1052 H 0.29094 0.99166 0.36335 0.0
H1053 H 0.33022 0.06434 0.35366 0.0
H1054 H 0.33165 0.01653 0.43073 0.0
H1055 H 0.31537 0.99937 0.47087 0.0
H1056 H 0.30623 0.06682 0.50384 0.0
H1057 H 0.32213 0.08441 0.46369 0.0
C1058 C 0.42971 0.10717 0.38972 0.0
C1059 C 0.4316 0.12525 0.40805 0.0
C1060 C 0.40925 0.09443 0.3872 0.0
C1061 C 0.38975 0.09951 0.4026 0.0
C1062 C 0.39166 0.11736 0.42118 0.0
C1063 C 0.41225 0.13001 0.42389 0.0
C1064 C 0.36763 0.08603 0.39952 0.0
C1065 C 0.35696 0.07648 0.42181 0.0
C1066 C 0.35749 0.0817 0.37466 0.0
C1067 C 0.36648 0.09253 0.35039 0.0
C1068 C 0.36901 0.11658 0.34871 0.0
C1069 C 0.37764 0.12669 0.32587 0.0
C1070 C 0.38365 0.11292 0.30448 0.0
C1071 C 0.38098 0.08902 0.30587 0.0
C1072 C 0.37238 0.07883 0.32868 0.0
C1073 C 0.26676 0.03216 0.40306 0.0
C1074 C 0.26833 1.01159 0.3885 0.0
C1075 C 0.28561 0.0474 0.40471 0.0
C1076 C 0.30647 0.04259 0.39167 0.0
C1077 C 0.30763 0.02264 0.3761 0.0
C1078 C 0.28895 1.00729 0.37472 0.0
C1079 C 0.32739 0.05768 0.39497 0.0
C1080 C 0.33784 0.06744 0.37273 0.0
C1081 C 0.33721 0.06233 0.41986 0.0
C1082 C 0.32784 0.05179 0.44409 0.0
C1083 C 0.326 0.02771 0.44645 0.0
C1084 C 0.31687 0.0179 0.46922 0.0
C1085 C 0.30971 0.032 0.48986 0.0
C1086 C 0.31174 0.05593 0.48781 0.0
C1087 C 0.32082 0.06582 0.46506 0.0
H1088 H 0.30265 0.02438 0.50747 0.0
H1089 H 0.39034 0.12077 0.28681 0.0
H1090 H 0.40003 0.4248 0.36691 0.0
H1091 H 0.4234 0.39003 0.36325 0.0
H1092 H 0.438 0.39284 0.44595 0.0
H1093 H 0.41564 0.4284 0.44953 0.0
H1094 H 0.47546 0.38102 0.42285 0.0
H1095 H 0.39863 0.35287 0.41725 0.0
H1096 H 0.35878 0.35039 0.40082 0.0
H1097 H 0.38392 0.333 0.32421 0.0
H1098 H 0.42395 0.33567 0.3401 0.0
H1099 H 0.49256 0.24787 0.40355 0.0
H1100 H 0.46645 0.281 0.40747 0.0
H1101 H 0.51858 0.32517 0.37445 0.0
H1102 H 0.54472 0.29239 0.37081 0.0
H1103 H 0.44644 0.31181 0.37646 0.0
H1104 H 0.5179 0.37771 0.40388 0.0
H1105 H 0.55614 0.37763 0.42497 0.0
H1106 H 0.53875 0.3158 0.46671 0.0
H1107 H 0.50027 0.31575 0.44629 0.0
C1108 C 0.40832 0.41827 0.38439 0.0
C1109 C 0.4057 0.42978 0.40857 0.0
C1110 C 0.42156 0.39802 0.38229 0.0
C1111 C 0.43242 0.38829 0.40436 0.0
C1112 C 0.42988 0.39972 0.42852 0.0
C1113 C 0.41674 0.42007 0.43061 0.0
C1114 C 0.44659 0.3665 0.40215 0.0
C1115 C 0.46903 0.36596 0.41264 0.0
C1116 C 0.43832 0.34635 0.38944 0.0
C1117 C 0.41429 0.34468 0.37981 0.0
C1118 C 0.39566 0.34868 0.39685 0.0
C1119 C 0.37304 0.34721 0.38765 0.0
C1120 C 0.36882 0.3416 0.36148 0.0
C1121 C 0.38722 0.33738 0.34447 0.0
C1122 C 0.40987 0.33884 0.35357 0.0
C1123 C 0.49836 0.26455 0.3967 0.0
C1124 C 0.52092 0.26729 0.38695 0.0
C1125 C 0.48338 0.28358 0.39904 0.0
C1126 C 0.49056 0.30589 0.3918 0.0
C1127 C 0.51263 0.30838 0.38079 0.0
C1128 C 0.52759 0.28945 0.37852 0.0
C1129 C 0.47544 0.32665 0.39646 0.0
C1130 C 0.45285 0.32694 0.38654 0.0
C1131 C 0.48335 0.34634 0.41032 0.0
C1132 C 0.50625 0.34662 0.42331 0.0
C1133 C 0.52217 0.36419 0.41768 0.0
C1134 C 0.5439 0.36415 0.42951 0.0
C1135 C 0.54989 0.34668 0.4471 0.0
C1136 C 0.53411 0.32929 0.45303 0.0
C1137 C 0.51234 0.32929 0.44132 0.0
H1138 H 0.56675 0.34664 0.45616 0.0
H1139 H 0.3513 0.34047 0.35439 0.0
H1140 H 0.08395 0.42293 0.37813 0.0
H1141 H 0.11931 0.44527 0.37369 0.0
H1142 H 0.14924 0.40808 0.43838 0.0
H1143 H 0.11369 0.38575 0.4431 0.0
H1144 H 0.16097 0.45108 0.44316 0.0
H1145 H 0.16474 0.39862 0.37127 0.0
H1146 H 0.15118 0.37842 0.3317 0.0
H1147 H 0.14589 0.44294 0.29091 0.0
H1148 H 0.15912 0.46356 0.33037 0.0
H1149 H 0.27562 0.49173 0.41844 0.0
H1150 H 0.24248 0.46556 0.42093 0.0
H1151 H 0.20527 0.50861 0.36671 0.0
H1152 H 0.23815 0.53498 0.36445 0.0
H1153 H 0.19866 0.4613 0.3567 0.0
H1154 H 0.19431 0.51343 0.42963 0.0
H1155 H 0.20928 0.533 0.46894 0.0
H1156 H 0.21701 0.46774 0.50766 0.0
H1157 H 0.20243 0.44774 0.46837 0.0
C1158 C 0.09809 0.41919 0.39128 0.0
C1159 C 0.09572 0.40218 0.41086 0.0
C1160 C 0.11849 0.4321 0.38869 0.0
C1161 C 0.13747 0.42831 0.40535 0.0
C1162 C 0.13508 0.41153 0.42514 0.0
C1163 C 0.11458 0.39869 0.42786 0.0
C1164 C 0.15956 0.44197 0.40227 0.0
C1165 C 0.16932 0.45291 0.42426 0.0
C1166 C 0.17064 0.44498 0.37764 0.0
C1167 C 0.16271 0.43265 0.35386 0.0
C1168 C 0.16052 0.40851 0.35392 0.0
C1169 C 0.15292 0.39699 0.3315 0.0
C1170 C 0.14762 0.40939 0.30883 0.0
C1171 C 0.14997 0.43335 0.3085 0.0
C1172 C 0.15754 0.44497 0.33088 0.0
C1173 C 0.2606 0.49542 0.4066 0.0
C1174 C 0.25976 0.51555 0.39114 0.0
C1175 C 0.24149 0.48049 0.40823 0.0
C1176 C 0.22108 0.48508 0.39421 0.0
C1177 C 0.22066 0.50455 0.37778 0.0
C1178 C 0.23958 0.51966 0.37648 0.0
C1179 C 0.19988 0.47032 0.39751 0.0
C1180 C 0.19031 0.45926 0.37557 0.0
C1181 C 0.18908 0.46707 0.42218 0.0
C1182 C 0.19751 0.47907 0.44596 0.0
C1183 C 0.19937 0.50324 0.44645 0.0
C1184 C 0.20776 0.51441 0.46873 0.0
C1185 C 0.21416 0.50162 0.49075 0.0
C1186 C 0.21209 0.47763 0.49056 0.0
C1187 C 0.20375 0.46636 0.4683 0.0
H1188 H 0.22066 0.5103 0.50798 0.0
H1189 H 0.14174 0.40044 0.29149 0.0
H1190 H 0.10011 0.08344 0.38005 0.0
H1191 H 0.07896 0.11944 0.37601 0.0
H1192 H 0.12491 0.15158 0.43123 0.0
H1193 H 0.14552 0.115 0.43657 0.0
H1194 H 0.08346 0.16621 0.44137 0.0
H1195 H 0.12668 0.16225 0.36224 0.0
H1196 H 0.14182 0.14507 0.32155 0.0
H1197 H 0.07311 0.1392 0.29125 0.0
H1198 H 0.05752 0.15607 0.33192 0.0
H1199 H 0.03765 0.27858 0.41095 0.0
H1200 H 0.06504 0.24625 0.41339 0.0
H1201 H 0.0181 0.2038 0.3694 0.0
H1202 H 0.99078 0.2358 0.36707 0.0
H1203 H 0.0632 0.19691 0.35365 0.0
H1204 H 0.02065 0.19987 0.43495 0.0
H1205 H 1.00678 0.22013 0.47434 0.0
H1206 H 0.07651 0.23 0.49995 0.0
H1207 H 0.09082 0.21027 0.46032 0.0
C1208 C 0.10573 0.09798 0.39166 0.0
C1209 C 0.12471 0.09588 0.4088 0.0
C1210 C 0.09369 0.11887 0.38899 0.0
C1211 C 0.10035 0.1387 0.40293 0.0
C1212 C 0.11928 0.13675 0.42007 0.0
C1213 C 0.1313 0.11574 0.4229 0.0
C1214 C 0.08735 0.16116 0.39976 0.0
C1215 C 0.07944 0.17303 0.42213 0.0
C1216 C 0.08164 0.17036 0.37476 0.0
C1217 C 0.09093 0.16024 0.35024 0.0
C1218 C 0.11479 0.15714 0.34698 0.0
C1219 C 0.12345 0.14748 0.3239 0.0
C1220 C 0.10843 0.141 0.30385 0.0
C1221 C 0.08472 0.14421 0.30681 0.0
C1222 C 0.07596 0.15384 0.32986 0.0
C1223 C 0.03335 0.2625 0.40138 0.0
C1224 C 1.01191 0.25992 0.38879 0.0
C1225 C 0.04898 0.2439 0.40296 0.0
C1226 C 0.04367 0.22231 0.39181 0.0
C1227 C 0.02275 0.22012 0.37822 0.0
C1228 C 1.00706 0.23853 0.37692 0.0
C1229 C 0.05919 0.20164 0.39516 0.0
C1230 C 0.06746 0.19011 0.37284 0.0
C1231 C 0.06542 0.19293 0.42015 0.0
C1232 C 0.05682 0.20383 0.44453 0.0
C1233 C 0.03303 0.20645 0.44892 0.0
C1234 C 0.02509 0.21786 0.47128 0.0
C1235 C 0.04076 0.22643 0.48959 0.0
C1236 C 0.0644 0.22342 0.48569 0.0
C1237 C 0.07244 0.21214 0.46328 0.0
H1238 H 0.0346 0.23537 0.50683 0.0
H1239 H 0.11518 0.13352 0.286 0.0
H1240 H 0.92594 0.89697 0.14133 0.0
H1241 H 0.88982 0.91821 0.14527 0.0
H1242 H 0.8925 0.93494 0.06308 0.0
H1243 H 0.92926 0.9147 0.05923 0.0
H1244 H 0.87844 0.97116 0.08696 0.0
H1245 H 0.85439 0.89275 0.09057 0.0
H1246 H 0.85388 0.85254 0.1062 0.0
H1247 H 0.83438 0.87546 0.18305 0.0
H1248 H 0.83507 0.91585 0.16797 0.0
H1249 H 0.74506 0.98429 0.10318 0.0
H1250 H 0.77877 0.9588 0.09886 0.0
H1251 H 0.82072 1.00912 0.13836 0.0
H1252 H 0.78744 0.03442 0.14284 0.0
H1253 H 0.81039 0.9377 0.13179 0.0
H1254 H 0.87305 1.01279 0.10695 0.0
H1255 H 0.87115 0.05158 0.08724 0.0
H1256 H 0.81009 0.03254 0.04512 0.0
H1257 H 0.81199 0.99349 0.06396 0.0
C1258 C 0.91908 0.90528 0.12402 0.0
C1259 C 0.93094 0.90386 0.09989 0.0
C1260 C 0.89806 0.91728 0.12627 0.0
C1261 C 0.88788 0.92813 0.10443 0.0
C1262 C 0.89967 0.9268 0.08034 0.0
C1263 C 0.92075 0.91487 0.07809 0.0
C1264 C 0.8653 0.94112 0.10678 0.0
C1265 C 0.86366 0.96373 0.09683 0.0
C1266 C 0.84546 0.9316 0.11905 0.0
C1267 C 0.84499 0.90734 0.12819 0.0
C1268 C 0.85015 0.88923 0.11085 0.0
C1269 C 0.8498 0.8664 0.1196 0.0
C1270 C 0.84415 0.86145 0.14561 0.0
C1271 C 0.83878 0.87932 0.16291 0.0
C1272 C 0.83912 0.90218 0.15427 0.0
C1273 C 0.76134 0.98974 0.11145 0.0
C1274 C 0.7633 1.01159 0.12333 0.0
C1275 C 0.7807 0.97512 0.10888 0.0
C1276 C 0.80259 0.98206 0.11787 0.0
C1277 C 0.80426 1.00336 0.13083 0.0
C1278 C 0.78501 0.01784 0.13351 0.0
C1279 C 0.82393 0.96784 0.11272 0.0
C1280 C 0.82527 0.94507 0.12204 0.0
C1281 C 0.84332 0.977 0.09932 0.0
C1282 C 0.84254 1.00025 0.08713 0.0
C1283 C 0.85933 0.01682 0.09332 0.0
C1284 C 0.85826 0.03886 0.08228 0.0
C1285 C 0.8405 0.04454 0.06497 0.0
C1286 C 0.82385 0.02814 0.05852 0.0
C1287 C 0.82492 1.00605 0.06937 0.0
H1288 H 0.83968 0.06163 0.05651 0.0
H1289 H 0.84389 0.84376 0.15235 0.0
H1290 H 0.48272 0.79211 0.14558 0.0
H1291 H 0.50833 0.82526 0.14162 0.0
H1292 H 0.55937 0.78256 0.10407 0.0
H1293 H 0.53391 0.74909 0.10844 0.0
H1294 H 0.5804 0.81262 0.135 0.0
H1295 H 0.52235 0.81857 0.06908 0.0
H1296 H 0.48264 0.81947 0.05197 0.0
H1297 H 0.46837 0.88008 0.09736 0.0
H1298 H 0.50785 0.87928 0.1152 0.0
H1299 H 0.64422 0.9065 0.07937 0.0
H1300 H 0.62075 0.87185 0.08545 0.0
H1301 H 0.56947 0.91199 0.12606 0.0
H1302 H 0.59258 0.94674 0.11958 0.0
H1303 H 0.54898 0.8828 0.09251 0.0
H1304 H 0.60716 0.87587 0.15903 0.0
H1305 H 0.64682 0.87428 0.17619 0.0
H1306 H 0.66103 0.81523 0.12815 0.0
H1307 H 0.62153 0.81666 0.11043 0.0
C1308 C 0.49952 0.78958 0.13682 0.0
C1309 C 0.50607 0.76774 0.12728 0.0
C1310 C 0.51416 0.80873 0.13434 0.0
C1311 C 0.53573 0.80677 0.12193 0.0
C1312 C 0.54282 0.78475 0.11356 0.0
C1313 C 0.5282 0.76551 0.11616 0.0
C1314 C 0.55045 0.82775 0.11704 0.0
C1315 C 0.57355 0.82781 0.12538 0.0
C1316 C 0.54167 0.84793 0.10479 0.0
C1317 C 0.51802 0.84872 0.09371 0.0
C1318 C 0.5107 0.83201 0.07557 0.0
C1319 C 0.48823 0.8325 0.06573 0.0
C1320 C 0.47298 0.84977 0.07367 0.0
C1321 C 0.4802 0.86667 0.09131 0.0
C1322 C 0.50262 0.86621 0.10129 0.0
C1323 C 0.62791 0.90805 0.0895 0.0
C1324 C 0.62051 0.92963 0.09907 0.0
C1325 C 0.61451 0.88808 0.09317 0.0
C1326 C 0.59328 0.88903 0.1065 0.0
C1327 C 0.58574 0.91058 0.11579 0.0
C1328 C 0.59917 0.93051 0.11227 0.0
C1329 C 0.57886 0.86772 0.11066 0.0
C1330 C 0.55582 0.86759 0.10211 0.0
C1331 C 0.58773 0.84745 0.12254 0.0
C1332 C 0.61146 0.84652 0.1332 0.0
C1333 C 0.6188 0.86266 0.15197 0.0
C1334 C 0.64124 0.86176 0.16183 0.0
C1335 C 0.65645 0.8447 0.15321 0.0
C1336 C 0.64924 0.82846 0.13477 0.0
C1337 C 0.62682 0.82929 0.12483 0.0
H1338 H 0.67382 0.84403 0.16087 0.0
H1339 H 0.45557 0.85005 0.06615 0.0
H1340 H 0.61793 0.65079 0.08193 0.0
H1341 H 0.65404 0.62926 0.08598 0.0
H1342 H 0.61996 0.57894 0.13455 0.0
H1343 H 0.58397 0.60051 0.13084 0.0
H1344 H 0.66002 0.58634 0.15452 0.0
H1345 H 0.63486 0.56993 0.06695 0.0
H1346 H 0.62231 0.57906 0.02198 0.0
H1347 H 0.68618 0.61408 1.00755 0.0
H1348 H 0.699 0.6054 0.05257 0.0
H1349 H 0.73944 0.49314 0.14282 0.0
H1350 H 0.70656 0.51934 0.14126 0.0
H1351 H 0.74759 0.56929 0.09974 0.0
H1352 H 0.78074 0.54296 0.10116 0.0
H1353 H 0.7058 0.56417 0.07646 0.0
H1354 H 0.73156 0.57795 0.16402 0.0
H1355 H 0.74372 0.56755 0.20876 0.0
H1356 H 0.67802 0.53601 0.22294 0.0
H1357 H 0.66557 0.54594 0.17813 0.0
C1358 C 0.61803 0.63507 0.09337 0.0
C1359 C 0.59779 0.62754 0.10603 0.0
C1360 C 0.63881 0.62267 0.09565 0.0
C1361 C 0.63998 0.6021 0.11032 0.0
C1362 C 0.61982 0.5947 0.12316 0.0
C1363 C 0.59912 0.60717 0.12105 0.0
C1364 C 0.66201 0.58831 0.11245 0.0
C1365 C 0.66981 0.58132 0.13734 0.0
C1366 C 0.67544 0.58201 0.09027 0.0
C1367 C 0.66778 0.58724 0.06321 0.0
C1368 C 0.64616 0.57973 0.05425 0.0
C1369 C 0.63901 0.5848 0.02874 0.0
C1370 C 0.65341 0.5972 0.01194 0.0
C1371 C 0.67503 0.60451 0.0206 0.0
C1372 C 0.68225 0.59951 0.0461 0.0
C1373 C 0.7417 0.50983 0.13368 0.0
C1374 C 0.76299 0.51586 0.12227 0.0
C1375 C 0.72275 0.5249 0.13282 0.0
C1376 C 0.72438 0.54653 0.1205 0.0
C1377 C 0.74572 0.55278 0.10941 0.0
C1378 C 0.7648 0.53774 0.11044 0.0
C1379 C 0.7036 0.56207 0.11847 0.0
C1380 C 0.69605 0.56934 0.09361 0.0
C1381 C 0.6903 0.56847 0.14065 0.0
C1382 C 0.69771 0.56252 0.16763 0.0
C1383 C 0.71977 0.56864 0.1766 0.0
C1384 C 0.7267 0.56286 0.20199 0.0
C1385 C 0.71167 0.55108 0.21866 0.0
C1386 C 0.68965 0.54511 0.20999 0.0
C1387 C 0.68264 0.55084 0.18461 0.0
H1388 H 0.71707 0.54662 0.23831 0.0
H1389 H 0.64784 0.6011 0.9922 0.0
H1390 H 0.99271 0.78503 0.10278 0.0
H1391 H 0.9651 0.75317 0.09997 0.0
H1392 H 1.01321 0.70858 0.13957 0.0
H1393 H 0.04069 0.74026 0.14268 0.0
H1394 H 0.96769 0.71334 0.07468 0.0
H1395 H 0.98508 0.66651 0.17313 0.0
H1396 H 0.99571 0.67607 0.21862 0.0
H1397 H 0.96705 0.74382 0.20932 0.0
H1398 H 0.95597 0.73457 0.16392 0.0
H1399 H 0.92884 0.59711 0.06833 0.0
H1400 H 0.95105 0.63237 0.07453 0.0
H1401 H 0.90235 0.65541 0.13264 0.0
H1402 H 0.87982 0.62023 0.12635 0.0
H1403 H 0.9446 0.6639 0.14948 0.0
H1404 H 0.90402 0.67903 0.06995 0.0
H1405 H 0.89052 0.67144 0.02499 0.0
H1406 H 0.96041 0.67078 0.99744 0.0
H1407 H 0.97435 0.67806 0.04232 0.0
C1408 C 0.99727 0.76859 0.11139 0.0
C1409 C 0.01902 0.76543 0.12311 0.0
C1410 C 0.98148 0.75025 0.10955 0.0
C1411 C 0.98685 0.72828 0.11961 0.0
C1412 C 1.00833 0.72529 0.13192 0.0
C1413 C 0.02413 0.74355 0.13368 0.0
C1414 C 0.97055 0.70828 0.11634 0.0
C1415 C 0.96267 0.70259 0.0911 0.0
C1416 C 0.9635 0.69424 0.13766 0.0
C1417 C 0.96989 0.6999 0.16503 0.0
C1418 C 0.98096 0.68341 0.18083 0.0
C1419 C 0.98709 0.68879 0.2066 0.0
C1420 C 0.98213 0.71056 0.21683 0.0
C1421 C 0.97097 0.72699 0.20134 0.0
C1422 C 0.96479 0.7217 0.17558 0.0
C1423 C 0.92253 0.60976 0.08216 0.0
C1424 C 0.90225 0.60559 0.09666 0.0
C1425 C 0.9354 0.63002 0.08577 0.0
C1426 C 0.92841 0.64691 0.1039 0.0
C1427 C 0.90828 0.64277 0.11855 0.0
C1428 C 0.89537 0.6225 0.11494 0.0
C1429 C 0.9422 0.66864 0.10774 0.0
C1430 C 0.94962 0.67465 0.13307 0.0
C1431 C 0.94855 0.68318 0.08656 0.0
C1432 C 0.94023 0.67889 0.05954 0.0
C1433 C 0.91652 0.6771 0.05434 0.0
C1434 C 0.90879 0.67288 0.02886 0.0
C1435 C 0.9246 0.67058 1.00838 0.0
C1436 C 0.94818 0.67255 0.01333 0.0
C1437 C 0.95601 0.67674 0.03878 0.0
H1438 H 0.91858 0.66731 0.98867 0.0
H1439 H 0.98689 0.71469 0.23677 0.0
H1440 H 0.7351 0.03924 0.6432 0.0
H1441 H 0.70244 1.01294 0.6402 0.0
H1442 H 0.74483 0.96362 0.59944 0.0
H1443 H 0.77784 0.9901 0.6024 0.0
H1444 H 0.70315 0.96836 0.57509 0.0
H1445 H 0.72735 0.95416 0.66306 0.0
H1446 H 0.73865 0.9642 0.70817 0.0
H1447 H 0.67256 0.99545 0.72112 0.0
H1448 H 0.66096 0.98587 0.67594 0.0
H1449 H 0.61586 0.88097 0.57809 0.0
H1450 H 0.65156 0.9029 0.58297 0.0
H1451 H 0.61605 0.95255 0.63108 0.0
H1452 H 0.58038 0.93066 0.62641 0.0
H1453 H 0.65601 0.94565 0.65189 0.0
H1454 H 0.63237 0.96224 0.56388 0.0
H1455 H 0.62075 0.95334 0.51855 0.0
H1456 H 0.6852 0.91886 0.50542 0.0
H1457 H 0.69709 0.92731 0.55081 0.0
C1458 C 0.73771 0.02267 0.6339 0.0
C1459 C 0.75939 0.01688 0.62325 0.0
C1460 C 0.71886 1.00753 0.63221 0.0
C1461 C 0.7209 0.986 0.61971 0.0
C1462 C 0.7426 0.98002 0.60924 0.0
C1463 C 0.76161 0.99514 0.61116 0.0
C1464 C 0.7002 0.97029 0.61704 0.0
C1465 C 0.69312 0.96308 0.59198 0.0
C1466 C 0.68647 0.9637 0.63883 0.0
C1467 C 0.69337 0.96947 0.66603 0.0
C1468 C 0.71529 0.96333 0.67546 0.0
C1469 C 0.72174 0.96891 0.70105 0.0
C1470 C 0.70636 0.98051 0.71748 0.0
C1471 C 0.68447 0.9865 0.70836 0.0
C1472 C 0.67794 0.98097 0.68277 0.0
C1473 C 0.61549 0.89664 0.58957 0.0
C1474 C 0.59487 0.90384 0.60178 0.0
C1475 C 0.63609 0.9093 0.59235 0.0
C1476 C 0.63682 0.92981 0.60715 0.0
C1477 C 0.61631 0.93687 0.61958 0.0
C1478 C 0.59576 0.92417 0.61693 0.0
C1479 C 0.65876 0.94383 0.60988 0.0
C1480 C 0.66608 0.95078 0.63497 0.0
C1481 C 0.67261 0.9503 0.58809 0.0
C1482 C 0.66551 0.94518 0.56083 0.0
C1483 C 0.64399 0.9526 0.55139 0.0
C1484 C 0.63737 0.94767 0.52567 0.0
C1485 C 0.6522 0.93548 0.50914 0.0
C1486 C 0.67371 0.92826 0.51827 0.0
C1487 C 0.68041 0.93313 0.54398 0.0
H1488 H 0.64704 0.93169 0.48923 0.0
H1489 H 0.71138 0.98481 0.7373 0.0
H1490 H 0.65321 0.6171 0.62619 0.0
H1491 H 0.6307 0.65247 0.63136 0.0
H1492 H 0.58202 0.62816 0.57404 0.0
H1493 H 0.60429 0.59273 0.56888 0.0
H1494 H 0.58885 0.67252 0.5662 0.0
H1495 H 0.57105 0.62609 0.64133 0.0
H1496 H 0.57958 0.60316 0.68085 0.0
H1497 H 0.61107 0.66213 0.71675 0.0
H1498 H 0.60299 0.68534 0.67728 0.0
H1499 H 0.49194 0.73655 0.6409 0.0
H1500 H 0.51955 0.70499 0.63743 0.0
H1501 H 0.56742 0.75003 0.59815 0.0
H1502 H 0.5396 0.78194 0.60159 0.0
H1503 H 0.56203 0.6962 0.65444 0.0
H1504 H 0.59619 0.71731 0.55102 0.0
H1505 H 0.58362 0.73777 0.51109 0.0
H1506 H 0.51288 0.72528 0.53114 0.0
H1507 H 0.52504 0.70448 0.57094 0.0
C1508 C 0.63766 0.61913 0.61473 0.0
C1509 C 0.63072 0.60173 0.59713 0.0
C1510 C 0.62475 0.63952 0.6177 0.0
C1511 C 0.60436 0.64314 0.60332 0.0
C1512 C 0.59766 0.62604 0.58535 0.0
C1513 C 0.61056 0.60568 0.58235 0.0
C1514 C 0.58974 0.66436 0.60736 0.0
C1515 C 0.58319 0.67773 0.58556 0.0
C1516 C 0.58182 0.67126 0.63249 0.0
C1517 C 0.58664 0.65737 0.65625 0.0
C1518 C 0.57995 0.63412 0.65758 0.0
C1519 C 0.58467 0.62108 0.67998 0.0
C1520 C 0.59592 0.63117 0.70127 0.0
C1521 C 0.6024 0.65433 0.70023 0.0
C1522 C 0.59774 0.66744 0.67785 0.0
C1523 C 0.50846 0.73994 0.63181 0.0
C1524 C 0.51344 0.76192 0.62153 0.0
C1525 C 0.52432 0.72177 0.62988 0.0
C1526 C 0.54562 0.72483 0.61728 0.0
C1527 C 0.55106 0.74701 0.60774 0.0
C1528 C 0.53519 0.76536 0.60991 0.0
C1529 C 0.56144 0.70451 0.61335 0.0
C1530 C 0.56807 0.69122 0.63514 0.0
C1531 C 0.56903 0.69743 0.58818 0.0
C1532 C 0.56155 0.7096 0.5641 0.0
C1533 C 0.57797 0.71888 0.54684 0.0
C1534 C 0.57091 0.73053 0.52424 0.0
C1535 C 0.54747 0.73289 0.51863 0.0
C1536 C 0.53103 0.72352 0.53555 0.0
C1537 C 0.538 0.71181 0.55814 0.0
H1538 H 0.54205 0.74195 0.50114 0.0
H1539 H 0.59956 0.62104 0.7186 0.0
H1540 H 0.9123 0.6469 0.5833 0.0
H1541 H 0.87708 0.62391 0.58722 0.0
H1542 H 0.91587 0.56891 0.62291 0.0
H1543 H 0.95116 0.59154 0.61854 0.0
H1544 H 0.88609 0.55131 0.58822 0.0
H1545 H 0.88038 0.60583 0.65907 0.0
H1546 H 0.87955 0.64456 0.67892 0.0
H1547 H 0.8209 0.66247 0.6319 0.0
H1548 H 0.82157 0.62392 0.61151 0.0
H1549 H 0.79517 0.4836 0.63831 0.0
H1550 H 0.82859 0.50886 0.63469 0.0
H1551 H 0.78568 0.56243 0.60237 0.0
H1552 H 0.7519 0.53722 0.60641 0.0
H1553 H 0.81677 0.58154 0.63352 0.0
H1554 H 0.82097 0.52748 0.56358 0.0
H1555 H 0.82109 0.48907 0.54293 0.0
H1556 H 0.88197 0.47083 0.58591 0.0
H1557 H 0.88197 0.50898 0.60724 0.0
C1558 C 0.91345 0.62987 0.59186 0.0
C1559 C 0.93485 0.62133 0.60073 0.0
C1560 C 0.89313 0.61673 0.59432 0.0
C1561 C 0.89348 0.59457 0.60567 0.0
C1562 C 0.91486 0.58589 0.61416 0.0
C1563 C 0.93513 0.59905 0.61186 0.0
C1564 C 0.87176 0.5804 0.60869 0.0
C1565 C 0.87107 0.55789 0.59843 0.0
C1566 C 0.85166 0.58895 0.62128 0.0
C1567 C 0.85118 0.61208 0.63358 0.0
C1568 C 0.86742 0.61809 0.65282 0.0
C1569 C 0.86696 0.63999 0.66419 0.0
C1570 C 0.85023 0.65598 0.65662 0.0
C1571 C 0.83388 0.65008 0.63771 0.0
C1572 C 0.83428 0.6282 0.62626 0.0
C1573 C 0.79266 0.50084 0.63069 0.0
C1574 C 0.77062 0.50819 0.6226 0.0
C1575 C 0.81197 0.51531 0.62841 0.0
C1576 C 0.81005 0.53757 0.61765 0.0
C1577 C 0.78789 0.54536 0.61059 0.0
C1578 C 0.76847 0.53088 0.61298 0.0
C1579 C 0.83119 0.55235 0.61332 0.0
C1580 C 0.83176 0.57497 0.62326 0.0
C1581 C 0.85113 0.54396 0.60021 0.0
C1582 C 0.85134 0.52105 0.58722 0.0
C1583 C 0.8343 0.51523 0.56879 0.0
C1584 C 0.83434 0.4935 0.55695 0.0
C1585 C 0.85149 0.4775 0.56315 0.0
C1586 C 0.86867 0.48323 0.58116 0.0
C1587 C 0.86866 0.50491 0.59313 0.0
H1588 H 0.8515 0.4607 0.55396 0.0
H1589 H 0.8499 0.67294 0.66544 0.0
H1590 H 0.92797 0.9439 0.62954 0.0
H1591 H 0.9504 0.90836 0.63255 0.0
H1592 H 0.9031 0.87477 0.58001 0.0
H1593 H 0.88023 0.9103 0.57724 0.0
H1594 H 0.91546 0.84584 0.62056 0.0
H1595 H 0.95515 0.89298 0.55809 0.0
H1596 H 0.97395 0.92823 0.54166 0.0
H1597 H 0.02362 0.9245 0.60379 0.0
H1598 H 1.00492 0.88939 0.62081 0.0
H1599 H 0.99169 0.7491 0.59723 0.0
H1600 H 0.96475 0.7817 0.59457 0.0
H1601 H 1.01302 0.82419 0.63678 0.0
H1602 H 0.0401 0.79211 0.63853 0.0
H1603 H 0.99866 0.848 0.59888 0.0
H1604 H 0.95859 0.80196 0.66274 0.0
H1605 H 0.93976 0.76702 0.68 0.0
H1606 H 0.89109 0.76873 0.61674 0.0
H1607 H 0.90981 0.80353 0.59892 0.0
C1608 C 0.92208 0.92894 0.61882 0.0
C1609 C 0.90212 0.93021 0.60313 0.0
C1610 C 0.93512 0.90856 0.62039 0.0
C1611 C 0.92872 0.88872 0.60632 0.0
C1612 C 0.90857 0.88973 0.59105 0.0
C1613 C 0.89555 0.91021 0.58932 0.0
C1614 C 0.94335 0.86724 0.60724 0.0
C1615 C 0.93359 0.84626 0.61549 0.0
C1616 C 0.96717 0.86761 0.60111 0.0
C1617 C 0.9785 0.88867 0.59086 0.0
C1618 C 0.96998 0.89977 0.56836 0.0
C1619 C 0.98063 0.91971 0.55892 0.0
C1620 C 0.99993 0.92863 0.57171 0.0
C1621 C 1.00865 0.91759 0.59392 0.0
C1622 C 0.99805 0.89766 0.60346 0.0
C1623 C 0.99636 0.76528 0.60635 0.0
C1624 C 0.01813 0.76785 0.61816 0.0
C1625 C 0.98088 0.78403 0.60484 0.0
C1626 C 0.98657 0.80573 0.61556 0.0
C1627 C 1.00803 0.80792 0.6281 0.0
C1628 C 0.02354 0.78939 0.62926 0.0
C1629 C 0.97099 0.82651 0.61283 0.0
C1630 C 0.98055 0.84745 0.60405 0.0
C1631 C 0.94705 0.82608 0.61865 0.0
C1632 C 0.93576 0.8052 0.62935 0.0
C1633 C 0.94398 0.79478 0.65241 0.0
C1634 C 0.93331 0.77502 0.66231 0.0
C1635 C 0.91429 0.76562 0.64943 0.0
C1636 C 0.90585 0.776 0.62667 0.0
C1637 C 0.91647 0.79576 0.61667 0.0
H1638 H 0.90605 0.75032 0.65713 0.0
H1639 H 1.00816 0.94407 0.56437 0.0
H1640 H 0.08453 0.1029 0.88256 0.0
H1641 H 0.11936 0.07947 0.87841 0.0
H1642 H 0.15449 0.12398 0.93275 0.0
H1643 H 0.1196 0.14771 0.93689 0.0
H1644 H 0.18238 0.11248 0.89006 0.0
H1645 H 0.13582 0.07217 0.95277 0.0
H1646 H 0.10059 0.05353 0.96945 0.0
H1647 H 0.10246 1.00523 0.9058 0.0
H1648 H 0.13753 0.02379 0.88852 0.0
H1649 H 0.27852 0.03645 0.91136 0.0
H1650 H 0.24585 0.06303 0.91399 0.0
H1651 H 0.20346 1.01402 0.87276 0.0
H1652 H 0.23579 0.98709 0.87115 0.0
H1653 H 0.17944 0.02892 0.90999 0.0
H1654 H 0.22493 0.06896 0.84609 0.0
H1655 H 0.25967 0.08758 0.82806 0.0
H1656 H 0.25949 0.13614 0.89149 0.0
H1657 H 0.2249 0.11762 0.91008 0.0
C1658 C 0.09968 0.10793 0.8935 0.0
C1659 C 0.09905 0.12738 0.91006 0.0
C1660 C 0.11964 0.09432 0.89125 0.0
C1661 C 0.13973 0.09971 0.90537 0.0
C1662 C 0.13933 0.11932 0.92162 0.0
C1663 C 0.11924 0.13283 0.92411 0.0
C1664 C 0.16088 0.08469 0.90339 0.0
C1665 C 0.18181 0.09426 0.89474 0.0
C1666 C 0.16024 0.06073 0.90885 0.0
C1667 C 0.13918 0.04952 0.91921 0.0
C1668 C 0.12861 0.0577 0.94221 0.0
C1669 C 0.10869 0.04712 0.95179 0.0
C1670 C 0.09926 0.02824 0.93866 0.0
C1671 C 0.10976 0.01987 0.91593 0.0
C1672 C 0.12967 0.0304 0.90625 0.0
C1673 C 0.26239 0.03149 0.90236 0.0
C1674 C 0.26 1.00955 0.89087 0.0
C1675 C 0.24356 0.04681 0.90386 0.0
C1676 C 0.22186 0.0409 0.8934 0.0
C1677 C 0.21976 0.01924 0.88118 0.0
C1678 C 0.23843 1.00381 0.88006 0.0
C1679 C 0.2011 0.05654 0.89622 0.0
C1680 C 0.18016 0.04711 0.90516 0.0
C1681 C 0.20171 0.08057 0.89076 0.0
C1682 C 0.22247 0.09175 0.87962 0.0
C1683 C 0.2324 0.0835 0.85629 0.0
C1684 C 0.25204 0.09406 0.84596 0.0
C1685 C 0.26182 0.11299 0.85866 0.0
C1686 C 0.25192 0.12145 0.8817 0.0
C1687 C 0.23229 0.11095 0.89213 0.0
H1688 H 0.27703 0.12113 0.85063 0.0
H1689 H 0.08384 0.02008 0.94611 0.0
H1690 H 0.38076 0.12032 0.9335 0.0
H1691 H 0.40291 0.1562 0.93073 0.0
H1692 H 0.45289 0.12249 0.88143 0.0
H1693 H 0.43112 0.08655 0.88449 0.0
H1694 H 0.4745 0.14853 0.91722 0.0
H1695 H 0.41202 0.16066 0.85667 0.0
H1696 H 0.3713 0.16302 0.84324 0.0
H1697 H 0.35943 0.21637 0.89992 0.0
H1698 H 0.40004 0.21411 0.91394 0.0
H1699 H 0.53585 0.24278 0.86686 0.0
H1700 H 0.50993 0.20991 0.87017 0.0
H1701 H 0.46404 0.24956 0.91889 0.0
H1702 H 0.49002 0.28289 0.91545 0.0
H1703 H 0.43945 0.2216 0.88621 0.0
H1704 H 0.5015 0.21118 0.94582 0.0
H1705 H 0.54216 0.20976 0.95964 0.0
H1706 H 0.55458 0.15361 0.90673 0.0
H1707 H 0.51408 0.15499 0.8922 0.0
C1708 C 0.39651 0.12044 0.92214 0.0
C1709 C 0.4039 0.10031 0.90909 0.0
C1710 C 0.40914 0.14114 0.92039 0.0
C1711 C 0.42963 0.14239 0.90561 0.0
C1712 C 0.43719 0.12224 0.8929 0.0
C1713 C 0.42451 0.10162 0.89449 0.0
C1714 C 0.4433 0.16449 0.90342 0.0
C1715 C 0.46682 0.16439 0.91014 0.0
C1716 C 0.43338 0.18562 0.89498 0.0
C1717 C 0.409 0.18704 0.88654 0.0
C1718 C 0.40068 0.17277 0.86641 0.0
C1719 C 0.37763 0.17411 0.85867 0.0
C1720 C 0.36277 0.18978 0.87077 0.0
C1721 C 0.37095 0.2042 0.8906 0.0
C1722 C 0.39399 0.20291 0.89844 0.0
C1723 C 0.5201 0.24478 0.878 0.0
C1724 C 0.51524 0.26569 0.89096 0.0
C1725 C 0.50527 0.22576 0.88003 0.0
C1726 C 0.48511 0.22683 0.89529 0.0
C1727 C 0.47949 0.24806 0.90711 0.0
C1728 C 0.49438 0.26723 0.90504 0.0
C1729 C 0.47069 0.2055 0.89961 0.0
C1730 C 0.44709 0.20575 0.89337 0.0
C1731 C 0.48047 0.18452 0.90872 0.0
C1732 C 0.50477 0.18332 0.91775 0.0
C1733 C 0.51293 0.19862 0.937 0.0
C1734 C 0.53595 0.19783 0.94497 0.0
C1735 C 0.55095 0.18164 0.93404 0.0
C1736 C 0.54294 0.16616 0.91516 0.0
C1737 C 0.51994 0.16694 0.90706 0.0
H1738 H 0.56878 0.18106 0.94022 0.0
H1739 H 0.34493 0.1908 0.86475 0.0
H1740 H 0.41041 0.38245 0.93103 0.0
H1741 H 0.37466 0.40463 0.92678 0.0
H1742 H 0.41252 0.46093 0.89257 0.0
H1743 H 0.44832 0.43912 0.89729 0.0
H1744 H 0.38186 0.47769 0.9264 0.0
H1745 H 0.37826 0.42342 0.85539 0.0
H1746 H 0.37858 0.38489 0.83506 0.0
H1747 H 0.3198 0.36528 0.88101 0.0
H1748 H 0.31932 0.40363 0.90188 0.0
H1749 H 0.29158 0.54342 0.87247 0.0
H1750 H 0.32481 0.51813 0.87731 0.0
H1751 H 0.28161 0.46596 0.91182 0.0
H1752 H 0.2479 0.49136 0.90678 0.0
H1753 H 0.31374 0.44607 0.88021 0.0
H1754 H 0.31595 0.50076 0.94976 0.0
H1755 H 0.31495 0.53948 0.96962 0.0
H1756 H 0.37598 0.55823 0.92717 0.0
H1757 H 0.37711 0.51976 0.90666 0.0
C1758 C 0.41125 0.3996 0.92273 0.0
C1759 C 0.43257 0.40873 0.91439 0.0
C1760 C 0.39061 0.41228 0.92007 0.0
C1761 C 0.39052 0.43457 0.90903 0.0
C1762 C 0.41181 0.44383 0.90107 0.0
C1763 C 0.4324 0.43114 0.90357 0.0
C1764 C 0.36845 0.44827 0.90579 0.0
C1765 C 0.36712 0.47078 0.91602 0.0
C1766 C 0.34867 0.43934 0.89292 0.0
C1767 C 0.34892 0.4163 0.88041 0.0
C1768 C 0.36552 0.41083 0.86132 0.0
C1769 C 0.36571 0.38904 0.84966 0.0
C1770 C 0.34926 0.37262 0.85679 0.0
C1771 C 0.33255 0.378 0.87554 0.0
C1772 C 0.33231 0.39976 0.88728 0.0
C1773 C 0.28892 0.52648 0.88085 0.0
C1774 C 0.2668 0.51963 0.88928 0.0
C1775 C 0.30815 0.51199 0.88379 0.0
C1776 C 0.30611 0.49012 0.89549 0.0
C1777 C 0.28389 0.48273 0.90287 0.0
C1778 C 0.26451 0.4973 0.8999 0.0
C1779 C 0.3273 0.47554 0.90053 0.0
C1780 C 0.32846 0.45292 0.89069 0.0
C1781 C 0.3469 0.48433 0.91387 0.0
C1782 C 0.34651 0.5074 0.9265 0.0
C1783 C 0.32908 0.51318 0.94452 0.0
C1784 C 0.32849 0.53509 0.95591 0.0
C1785 C 0.34537 0.55131 0.94964 0.0
C1786 C 0.3629 0.54565 0.932 0.0
C1787 C 0.36354 0.52378 0.9205 0.0
H1788 H 0.34492 0.56825 0.95849 0.0
H1789 H 0.34943 0.35576 0.84774 0.0
H1790 H 0.14569 0.41178 0.92879 0.0
H1791 H 0.12217 0.377 0.92397 0.0
H1792 H 0.06891 0.41698 0.88666 0.0
H1793 H 0.09208 0.45185 0.89188 0.0
H1794 H 0.0499 0.38763 0.92081 0.0
H1795 H 0.10555 0.38065 0.85154 0.0
H1796 H 0.14454 0.37905 0.83242 0.0
H1797 H 0.16058 0.32011 0.87993 0.0
H1798 H 0.12178 0.32154 0.8996 0.0
H1799 H 0.9816 0.29616 0.87224 0.0
H1800 H 1.00694 0.32963 0.87507 0.0
H1801 H 0.06041 0.28708 0.90815 0.0
H1802 H 0.03523 0.25332 0.90483 0.0
H1803 H 0.0798 0.31739 0.87712 0.0
H1804 H 0.02438 0.32362 0.94612 0.0
H1805 H 0.98575 0.32522 0.96617 0.0
H1806 H 0.96959 0.38542 0.92082 0.0
H1807 H 1.008 0.384 0.9002 0.0
C1808 C 0.12894 0.41328 0.91966 0.0
C1809 C 0.12104 0.43489 0.91063 0.0
C1810 C 0.1155 0.39322 0.91669 0.0
C1811 C 0.09366 0.39404 0.90464 0.0
C1812 C 0.08563 0.41562 0.89593 0.0
C1813 C 0.0991 0.43564 0.89873 0.0
C1814 C 0.07912 0.37261 0.90128 0.0
C1815 C 0.0564 0.37241 0.91093 0.0
C1816 C 0.08754 0.35228 0.88907 0.0
C1817 C 0.11085 0.35135 0.87724 0.0
C1818 C 0.11746 0.36746 0.85806 0.0
C1819 C 0.13951 0.36656 0.84709 0.0
C1820 C 0.15505 0.34953 0.85501 0.0
C1821 C 0.14854 0.33331 0.87385 0.0
C1822 C 0.12652 0.33415 0.8849 0.0
C1823 C 0.99887 0.29374 0.87976 0.0
C1824 C 1.00619 0.27179 0.88829 0.0
C1825 C 1.01336 0.31309 0.88165 0.0
C1826 C 0.03561 0.31131 0.89248 0.0
C1827 C 0.04337 0.28921 0.89988 0.0
C1828 C 0.02889 0.26978 0.89787 0.0
C1829 C 0.05047 0.33245 0.89649 0.0
C1830 C 0.07327 0.33259 0.88702 0.0
C1831 C 0.04216 0.3527 0.90904 0.0
C1832 C 0.01901 0.35356 0.9214 0.0
C1833 C 1.01252 0.33709 0.94026 0.0
C1834 C 0.99067 0.33798 0.95175 0.0
C1835 C 0.9752 0.35537 0.9447 0.0
C1836 C 0.98158 0.37194 0.92621 0.0
C1837 C 1.00339 0.37111 0.91463 0.0
H1838 H 0.95828 0.35605 0.95357 0.0
H1839 H 0.17211 0.34886 0.84649 0.0
H1840 H 0.70924 0.28086 0.44887 0.0
H1841 H 0.74336 0.30361 0.45426 0.0
H1842 H 0.70258 0.36586 0.45266 0.0
H1843 H 0.66794 0.34275 0.44605 0.0
H1844 H 0.7262 0.36691 0.41364 0.0
H1845 H 0.74965 0.35404 0.49982 0.0
H1846 H 0.76018 0.33755 0.54253 0.0
H1847 H 0.80678 0.29062 0.50508 0.0
H1848 H 0.79775 0.30772 0.46225 0.0
H1849 H 0.85806 0.34604 0.38204 0.0
H1850 H 0.82954 0.3678 0.4069 0.0
H1851 H 0.77512 0.33051 0.36802 0.0
H1852 H 0.80363 0.30891 0.3429 0.0
H1853 H 0.80439 0.34279 0.44048 0.0
H1854 H 0.72677 0.35962 0.36769 0.0
H1855 H 0.7214 0.37927 0.32541 0.0
H1856 H 0.7833 0.41813 0.33788 0.0
H1857 H 0.78883 0.39917 0.38054 0.0
C1858 C 0.70722 0.29931 0.45103 0.0
C1859 C 0.68603 0.31008 0.44597 0.0
C1860 C 0.72697 0.31251 0.45446 0.0
C1861 C 0.72578 0.33668 0.45327 0.0
C1862 C 0.704 0.34728 0.45313 0.0
C1863 C 0.68424 0.33407 0.44911 0.0
C1864 C 0.7462 0.34936 0.44336 0.0
C1865 C 0.7433 0.36196 0.41995 0.0
C1866 C 0.76877 0.34413 0.45204 0.0
C1867 C 0.77339 0.33275 0.4777 0.0
C1868 C 0.76236 0.34044 0.50061 0.0
C1869 C 0.76801 0.33088 0.5249 0.0
C1870 C 0.78397 0.31294 0.52653 0.0
C1871 C 0.7945 0.30462 0.50384 0.0
C1872 C 0.78936 0.3145 0.47956 0.0
C1873 C 0.83996 0.34326 0.37798 0.0
C1874 C 0.83286 0.32578 0.3607 0.0
C1875 C 0.82372 0.35563 0.39232 0.0
C1876 C 0.80027 0.35068 0.38947 0.0
C1877 C 0.79316 0.33485 0.37027 0.0
C1878 C 0.80938 0.32238 0.35603 0.0
C1879 C 0.78364 0.35738 0.40992 0.0
C1880 C 0.78728 0.34848 0.43509 0.0
C1881 C 0.76186 0.36611 0.40308 0.0
C1882 C 0.75815 0.37798 0.37756 0.0
C1883 C 0.73909 0.37259 0.36169 0.0
C1884 C 0.73605 0.38357 0.33755 0.0
C1885 C 0.75197 0.39997 0.32898 0.0
C1886 C 0.77095 0.40545 0.34454 0.0
C1887 C 0.77405 0.39457 0.36871 0.0
H1888 H 0.7496 0.4084 0.31025 0.0
H1889 H 0.78818 0.3055 0.54538 0.0
H1890 H 0.25396 0.66735 0.51238 0.0
H1891 H 0.24993 0.69854 0.54438 0.0
H1892 H 0.28566 0.74452 0.49211 0.0
H1893 H 0.28917 0.71424 0.46 0.0
H1894 H 0.28354 0.75351 0.55772 0.0
H1895 H 0.22852 0.754 0.46619 0.0
H1896 H 0.2075 0.72578 0.43913 0.0
H1897 H 0.19167 0.68636 0.50793 0.0
H1898 H 0.21114 0.71504 0.53547 0.0
H1899 H 0.2956 0.83226 0.47234 0.0
H1900 H 0.28916 0.80615 0.50866 0.0
H1901 H 0.21661 0.82289 0.50807 0.0
H1902 H 0.22314 0.84814 0.47054 0.0
H1903 H 0.21803 0.782 0.50447 0.0
H1904 H 0.24653 0.81452 0.58006 0.0
H1905 H 0.26795 0.84107 0.60887 0.0
H1906 H 0.33193 0.81683 0.57686 0.0
H1907 H 0.31083 0.79011 0.54808 0.0
C1908 C 0.26145 0.68396 0.50795 0.0
C1909 C 0.27121 0.68838 0.48315 0.0
C1910 C 0.25957 0.70161 0.52655 0.0
C1911 C 0.2672 0.72386 0.52041 0.0
C1912 C 0.27975 0.7274 0.49729 0.0
C1913 C 0.28152 0.70996 0.47871 0.0
C1914 C 0.25582 0.74436 0.53161 0.0
C1915 C 0.26878 0.75976 0.54684 0.0
C1916 C 0.23558 0.75231 0.51905 0.0
C1917 C 0.22134 0.73659 0.50289 0.0
C1918 C 0.22001 0.73959 0.47559 0.0
C1919 C 0.20829 0.72353 0.46016 0.0
C1920 C 0.19801 0.70433 0.4718 0.0
C1921 C 0.19914 0.70139 0.49892 0.0
C1922 C 0.21038 0.71762 0.51447 0.0
C1923 C 0.27838 0.83069 0.48032 0.0
C1924 C 0.25971 0.84154 0.46813 0.0
C1925 C 0.27469 0.81613 0.50165 0.0
C1926 C 0.25231 0.81257 0.51166 0.0
C1927 C 0.23398 0.82509 0.50076 0.0
C1928 C 0.23763 0.83918 0.47901 0.0
C1929 C 0.24769 0.79162 0.52757 0.0
C1930 C 0.23165 0.77599 0.5173 0.0
C1931 C 0.26414 0.78353 0.54572 0.0
C1932 C 0.27715 0.79994 0.56229 0.0
C1933 C 0.26517 0.81484 0.57921 0.0
C1934 C 0.27724 0.82991 0.59557 0.0
C1935 C 0.30128 0.83058 0.59478 0.0
C1936 C 0.31331 0.81614 0.57767 0.0
C1937 C 0.30132 0.80083 0.56154 0.0
H1938 H 0.31057 0.84237 0.60732 0.0
H1939 H 0.1893 0.69167 0.45982 0.0
H1940 H 0.36469 0.77023 0.02412 0.0
H1941 H 0.33939 0.77856 0.98675 0.0
H1942 H 0.28121 0.75411 0.03132 0.0
H1943 H 0.30627 0.74546 0.06815 0.0
H1944 H 0.27715 0.7525 0.9715 0.0
H1945 H 0.28607 0.81338 0.05111 0.0
H1946 H 0.3168 0.82863 0.07961 0.0
H1947 H 0.36144 0.83518 0.0131 0.0
H1948 H 0.33069 0.82067 0.98417 0.0
H1949 H 0.22395 0.77834 0.07394 0.0
H1950 H 0.25276 0.78306 0.04007 0.0
H1951 H 0.20317 0.81674 0.99012 0.0
H1952 H 0.17384 0.81256 0.02475 0.0
H1953 H 0.2634 0.83058 1.00716 0.0
H1954 H 0.21407 0.7902 0.95006 0.0
H1955 H 0.18005 0.76611 0.94079 0.0
H1956 H 0.21042 0.70984 0.9831 0.0
H1957 H 0.24445 0.73363 0.99298 0.0
C1958 C 0.34657 0.76606 0.02548 0.0
C1959 C 0.33726 0.75787 0.04916 0.0
C1960 C 0.33222 0.77063 1.00412 0.0
C1961 C 0.30838 0.76762 1.00659 0.0
C1962 C 0.29956 0.75681 0.0291 0.0
C1963 C 0.31388 0.75199 0.05025 0.0
C1964 C 0.29209 0.78158 0.99107 0.0
C1965 C 0.27426 0.76996 0.97817 0.0
C1966 C 0.28873 0.80478 0.99881 0.0
C1967 C 0.30605 0.81648 0.0154 0.0
C1968 C 0.30227 0.81869 0.04249 0.0
C1969 C 0.31971 0.82711 0.05874 0.0
C1970 C 0.341 0.83328 0.04809 0.0
C1971 C 0.34483 0.83102 0.02121 0.0
C1972 C 0.32737 0.82288 1.00485 0.0
C1973 C 0.2192 0.78726 0.0561 0.0
C1974 C 0.19667 0.79504 0.052 0.0
C1975 C 0.23562 0.78975 0.03662 0.0
C1976 C 0.22994 0.79996 0.01253 0.0
C1977 C 0.20773 0.80863 1.00851 0.0
C1978 C 0.1911 0.80616 0.02822 0.0
C1979 C 0.24785 0.7999 0.99208 0.0
C1980 C 0.26659 0.81424 0.99751 0.0
C1981 C 0.25173 0.77876 0.97903 0.0
C1982 C 0.23197 0.76372 0.972 0.0
C1983 C 0.21354 0.77266 0.95729 0.0
C1984 C 0.19422 0.75906 0.952 0.0
C1985 C 0.19311 0.73645 0.96131 0.0
C1986 C 0.21137 0.72733 0.9758 0.0
C1987 C 0.23074 0.74085 0.98116 0.0
H1988 H 0.17806 0.72604 0.95736 0.0
H1989 H 0.3546 0.83956 0.06068 0.0
H1990 H 0.86469 0.34594 0.09616 0.0
H1991 H 0.86558 0.30857 0.07477 0.0
H1992 H 0.83318 0.2778 0.14187 0.0
H1993 H 0.83027 0.31502 0.16242 0.0
H1994 H 0.85302 0.24406 0.10394 0.0
H1995 H 0.7875 0.31995 0.08697 0.0
H1996 H 0.78345 0.35439 0.05903 0.0
H1997 H 0.83456 0.3277 1.0063 0.0
H1998 H 0.83873 0.29303 0.03385 0.0
H1999 H 0.76043 0.21424 0.1645 0.0
H2000 H 0.78833 0.24104 0.14717 0.0
H2001 H 0.75383 0.24061 0.07265 0.0
H2002 H 0.7248 0.21434 0.09007 0.0
H2003 H 0.7782 0.27823 0.07738 0.0
H2004 H 0.79292 0.20219 0.07942 0.0
H2005 H 0.79426 0.16151 0.09305 0.0
H2006 H 0.84347 0.17827 0.15279 0.0
H2007 H 0.84215 0.21914 0.13979 0.0
C2008 C 0.85885 0.33097 0.10697 0.0
C2009 C 0.84557 0.33358 0.12989 0.0
C2010 C 0.85961 0.30956 0.09462 0.0
C2011 C 0.8484 0.29076 0.10594 0.0
C2012 C 0.84142 0.29229 0.13228 0.0
C2013 C 0.83979 0.31379 0.14423 0.0
C2014 C 0.83572 0.27423 0.08941 0.0
C2015 C 0.83679 0.25108 0.09713 0.0
C2016 C 0.81507 0.28245 0.07788 0.0
C2017 C 0.81392 0.3042 0.06281 0.0
C2018 C 0.79804 0.32154 0.06955 0.0
C2019 C 0.79566 0.34108 0.05376 0.0
C2020 C 0.80898 0.3434 0.03113 0.0
C2021 C 0.82449 0.32605 0.02405 0.0
C2022 C 0.827 0.30654 0.03984 0.0
C2023 C 0.75771 0.22082 0.14489 0.0
C2024 C 0.74136 0.21096 0.12799 0.0
C2025 C 0.77406 0.23582 0.13485 0.0
C2026 C 0.77391 0.24113 0.10809 0.0
C2027 C 0.75464 0.23566 0.09296 0.0
C2028 C 0.73799 0.22087 0.10311 0.0
C2029 C 0.79512 0.24966 0.09586 0.0
C2030 C 0.79461 0.27059 0.08264 0.0
C2031 C 0.81643 0.23836 0.10011 0.0
C2032 C 0.81737 0.21383 0.10858 0.0
C2033 C 0.80386 0.19725 0.09562 0.0
C2034 C 0.80465 0.17413 0.10321 0.0
C2035 C 0.81893 0.16731 0.1238 0.0
C2036 C 0.83245 0.18359 0.1368 0.0
C2037 C 0.83173 0.20676 0.12926 0.0
H2038 H 0.81952 0.14939 0.12968 0.0
H2039 H 0.80709 0.35853 0.01891 0.0
H2040 H 0.18073 0.80938 0.72111 0.0
H2041 H 0.21356 0.81739 0.74959 0.0
H2042 H 0.23464 0.74624 0.74426 0.0
H2043 H 0.20143 0.73793 0.7165 0.0
H2044 H 0.24578 0.76491 0.7925 0.0
H2045 H 0.25374 0.78396 0.69966 0.0
H2046 H 0.24391 0.804 0.6585 0.0
H2047 H 0.25184 0.86941 0.69674 0.0
H2048 H 0.26143 0.84967 0.73823 0.0
H2049 H 0.35032 0.74324 0.74194 0.0
H2050 H 0.31518 0.74922 0.76617 0.0
H2051 H 0.33282 0.82065 0.77748 0.0
H2052 H 0.36876 0.81469 0.75367 0.0
H2053 H 0.29908 0.81557 0.7431 0.0
H2054 H 0.30942 0.79153 0.82859 0.0
H2055 H 0.324 0.7689 0.86558 0.0
H2056 H 0.28564 0.71002 0.83958 0.0
H2057 H 0.2712 0.73216 0.8018 0.0
C2058 C 0.19192 0.79527 0.72668 0.0
C2059 C 0.18872 0.77308 0.7162 0.0
C2060 C 0.21069 0.7999 0.74295 0.0
C2061 C 0.22665 0.78247 0.7488 0.0
C2062 C 0.2225 0.75994 0.74003 0.0
C2063 C 0.20372 0.75529 0.72384 0.0
C2064 C 0.24948 0.78818 0.75991 0.0
C2065 C 0.25752 0.77607 0.78194 0.0
C2066 C 0.26445 0.80351 0.74671 0.0
C2067 C 0.25789 0.81538 0.7221 0.0
C2068 C 0.25309 0.80261 0.69934 0.0
C2069 C 0.24763 0.8139 0.67595 0.0
C2070 C 0.24714 0.83796 0.67503 0.0
C2071 C 0.25212 0.85077 0.69751 0.0
C2072 C 0.25755 0.83955 0.72097 0.0
C2073 C 0.34756 0.75996 0.75079 0.0
C2074 C 0.36188 0.77876 0.74477 0.0
C2075 C 0.32731 0.76335 0.76492 0.0
C2076 C 0.321 0.78559 0.77305 0.0
C2077 C 0.33717 0.80346 0.77103 0.0
C2078 C 0.35758 0.80005 0.75706 0.0
C2079 C 0.2961 0.79099 0.77463 0.0
C2080 C 0.28734 0.80526 0.75479 0.0
C2081 C 0.2808 0.77728 0.78952 0.0
C2082 C 0.28919 0.76361 0.81224 0.0
C2083 C 0.30419 0.7737 0.83057 0.0
C2084 C 0.31247 0.7609 0.85172 0.0
C2085 C 0.30585 0.73795 0.85495 0.0
C2086 C 0.29084 0.72778 0.837 0.0
C2087 C 0.28253 0.74049 0.81571 0.0
H2088 H 0.31228 0.72806 0.87136 0.0
H2089 H 0.24299 0.84668 0.65688 0.0
H2090 H 0.74527 0.19735 0.55238 0.0
H2091 H 0.71948 0.22945 0.54541 0.0
H2092 H 0.66108 0.18441 0.55442 0.0
H2093 H 0.68696 0.1524 0.5639 0.0
H2094 H 0.68517 0.25243 0.53265 0.0
H2095 H 0.62846 0.20015 0.59367 0.0
H2096 H 0.62587 0.16221 0.61544 0.0
H2097 H 0.69715 0.16666 0.63737 0.0
H2098 H 0.70003 0.20468 0.61581 0.0
H2099 H 0.66943 0.34465 0.62086 0.0
H2100 H 0.65225 0.31232 0.59721 0.0
H2101 H 0.6987 0.26554 0.63583 0.0
H2102 H 0.7156 0.29747 0.66009 0.0
H2103 H 0.65773 0.24564 0.62437 0.0
H2104 H 0.71249 0.2983 0.58562 0.0
H2105 H 0.72648 0.33425 0.56615 0.0
H2106 H 0.67874 0.32675 0.50259 0.0
H2107 H 0.66324 0.29168 0.5227 0.0
C2108 C 0.7269 0.19406 0.55188 0.0
C2109 C 0.71802 0.17298 0.56074 0.0
C2110 C 0.71202 0.21245 0.54753 0.0
C2111 C 0.68823 0.20956 0.55152 0.0
C2112 C 0.67944 0.1871 0.55273 0.0
C2113 C 0.69432 0.16874 0.55804 0.0
C2114 C 0.67541 0.22911 0.5634 0.0
C2115 C 0.67843 0.25106 0.55243 0.0
C2116 C 0.66645 0.22733 0.58925 0.0
C2117 C 0.66442 0.20511 0.60321 0.0
C2118 C 0.64345 0.19312 0.60344 0.0
C2119 C 0.64197 0.17158 0.61561 0.0
C2120 C 0.66132 0.16205 0.62781 0.0
C2121 C 0.68216 0.17409 0.62799 0.0
C2122 C 0.68372 0.19563 0.61585 0.0
C2123 C 0.67532 0.32736 0.62517 0.0
C2124 C 0.6943 0.32357 0.6418 0.0
C2125 C 0.66555 0.30902 0.61144 0.0
C2126 C 0.67469 0.28686 0.6141 0.0
C2127 C 0.69155 0.28265 0.63325 0.0
C2128 C 0.70131 0.3009 0.647 0.0
C2129 C 0.66999 0.26874 0.59456 0.0
C2130 C 0.6631 0.24724 0.60407 0.0
C2131 C 0.67697 0.27094 0.56797 0.0
C2132 C 0.68583 0.29278 0.55647 0.0
C2133 C 0.70438 0.30464 0.56796 0.0
C2134 C 0.71288 0.32479 0.55653 0.0
C2135 C 0.7038 0.3327 0.53283 0.0
C2136 C 0.68591 0.32064 0.52082 0.0
C2137 C 0.67698 0.3008 0.5325 0.0
H2138 H 0.71045 0.34827 0.52394 0.0
H2139 H 0.66017 0.14532 0.6371 0.0
H2140 H 0.8467 0.21854 0.97763 0.0
H2141 H 0.82046 0.21835 0.01556 0.0
H2142 H 0.76541 0.24144 0.96539 0.0
H2143 H 0.792 0.24334 0.92824 0.0
H2144 H 0.79082 0.26757 0.02244 0.0
H2145 H 0.73542 0.20307 0.97561 0.0
H2146 H 0.73558 0.16274 0.96052 0.0
H2147 H 0.7761 0.14327 0.02736 0.0
H2148 H 0.77707 0.18367 0.04206 0.0
H2149 H 0.71488 0.27936 0.9407 0.0
H2150 H 0.74129 0.27538 0.97635 0.0
H2151 H 0.68653 0.25119 0.0267 0.0
H2152 H 0.65955 0.25497 0.99003 0.0
H2153 H 0.7196 0.22082 0.02272 0.0
H2154 H 0.72559 0.29643 0.05482 0.0
H2155 H 0.71866 0.33791 0.0478 0.0
H2156 H 0.77057 0.33917 0.98794 0.0
H2157 H 0.77806 0.29796 0.99471 0.0
C2158 C 0.82884 0.22299 0.97482 0.0
C2159 C 0.82126 0.23107 0.95036 0.0
C2160 C 0.81397 0.22277 0.99635 0.0
C2161 C 0.79113 0.22969 0.99313 0.0
C2162 C 0.78307 0.23594 0.96812 0.0
C2163 C 0.79813 0.23698 0.94694 0.0
C2164 C 0.77598 0.23422 0.01563 0.0
C2165 C 0.77527 0.2573 0.02373 0.0
C2166 C 0.75627 0.2204 0.01883 0.0
C2167 C 0.75618 0.19621 1.01001 0.0
C2168 C 0.74439 0.19012 0.98701 0.0
C2169 C 0.74441 0.1673 0.97843 0.0
C2170 C 0.75579 0.1504 0.99298 0.0
C2171 C 0.76747 0.15635 0.01595 0.0
C2172 C 0.76791 0.17926 0.02432 0.0
C2173 C 0.70813 0.27412 0.95956 0.0
C2174 C 0.68514 0.26747 0.96253 0.0
C2175 C 0.72327 0.27218 0.98032 0.0
C2176 C 0.71585 0.26379 1.00476 0.0
C2177 C 0.69254 0.25826 1.00828 0.0
C2178 C 0.67726 0.26009 0.98724 0.0
C2179 C 0.73369 0.25516 0.02291 0.0
C2180 C 0.73518 0.23108 0.02407 0.0
C2181 C 0.75391 0.26841 0.0265 0.0
C2182 C 0.75257 0.29401 0.02561 0.0
C2183 C 0.7359 0.30567 0.04058 0.0
C2184 C 0.7318 0.32915 0.03653 0.0
C2185 C 0.74417 0.34113 0.0174 0.0
C2186 C 0.76104 0.32985 1.00277 0.0
C2187 C 0.76548 0.30649 1.00702 0.0
H2188 H 0.74064 0.35912 0.0137 0.0
H2189 H 0.75545 0.13274 0.98636 0.0
H2190 H 0.27799 0.79206 0.91418 0.0
H2191 H 0.29771 0.75509 0.9146 0.0
H2192 H 0.36176 0.78914 0.93271 0.0
H2193 H 0.34228 0.82611 0.93125 0.0
H2194 H 0.36573 0.76829 0.88941 0.0
H2195 H 0.34631 0.72812 0.976 0.0
H2196 H 0.32099 0.7137 0.01122 0.0
H2197 H 0.26874 0.69763 0.9547 0.0
H2198 H 0.29437 0.71075 0.91904 0.0
H2199 H 0.35189 0.63368 0.88085 0.0
H2200 H 0.37302 0.6649 0.90037 0.0
H2201 H 0.35464 0.70885 0.83553 0.0
H2202 H 0.33679 0.67668 0.81382 0.0
H2203 H 0.34194 0.68995 0.9162 0.0
H2204 H 0.36441 0.76243 0.8411 0.0
H2205 H 0.39066 0.76853 0.80385 0.0
H2206 H 0.43673 0.71721 0.83439 0.0
H2207 H 0.41079 0.71085 0.87197 0.0
C2208 C 0.29609 0.7916 0.91925 0.0
C2209 C 0.30863 0.8121 0.9223 0.0
C2210 C 0.30738 0.7703 0.91989 0.0
C2211 C 0.33132 0.76913 0.92394 0.0
C2212 C 0.34332 0.78946 0.92969 0.0
C2213 C 0.33214 0.81069 0.92868 0.0
C2214 C 0.3443 0.74836 0.91553 0.0
C2215 C 0.36081 0.75109 0.89553 0.0
C2216 C 0.33843 0.72591 0.9237 0.0
C2217 C 0.32194 0.7211 0.94505 0.0
C2218 C 0.3293 0.72184 0.97117 0.0
C2219 C 0.31503 0.71358 0.99115 0.0
C2220 C 0.29315 0.70506 0.98526 0.0
C2221 C 0.28563 0.70441 0.95929 0.0
C2222 C 0.30007 0.7121 0.93918 0.0
C2223 C 0.35373 0.64935 0.86957 0.0
C2224 C 0.34062 0.65335 0.84681 0.0
C2225 C 0.36591 0.66743 0.88103 0.0
C2226 C 0.36413 0.68973 0.87052 0.0
C2227 C 0.35594 0.69212 0.84475 0.0
C2228 C 0.34505 0.67363 0.83251 0.0
C2229 C 0.36228 0.70972 0.88866 0.0
C2230 C 0.3478 0.70699 0.91057 0.0
C2231 C 0.36967 0.73211 0.88173 0.0
C2232 C 0.38565 0.7362 0.85947 0.0
C2233 C 0.38025 0.7526 0.84007 0.0
C2234 C 0.39503 0.75604 0.81881 0.0
C2235 C 0.41537 0.74329 0.81678 0.0
C2236 C 0.42096 0.72706 0.83599 0.0
C2237 C 0.40618 0.72348 0.85725 0.0
H2238 H 0.4268 0.74597 0.8003 0.0
H2239 H 0.28208 0.69885 1.0008 0.0
H2240 H 0.60886 0.14333 0.44598 0.0
H2241 H 0.64066 0.12247 0.46689 0.0
H2242 H 0.68128 0.18459 0.4671 0.0
H2243 H 0.6498 0.20537 0.4459 0.0
H2244 H 0.70753 0.14927 0.45292 0.0
H2245 H 0.65059 0.16242 0.51813 0.0
H2246 H 0.61437 0.16045 0.54286 0.0
H2247 H 0.6219 0.08715 0.55036 0.0
H2248 H 0.6583 0.08866 0.52563 0.0
H2249 H 0.79759 0.11328 0.53855 0.0
H2250 H 0.76595 0.13241 0.51541 0.0
H2251 H 0.72184 0.07426 0.53183 0.0
H2252 H 0.75284 0.05649 0.55724 0.0
H2253 H 0.6965 0.10632 0.53578 0.0
H2254 H 0.74898 0.09138 0.46585 0.0
H2255 H 0.78587 0.09176 0.44186 0.0
H2256 H 0.78544 0.16576 0.44176 0.0
H2257 H 0.74875 0.16582 0.46616 0.0
C2258 C 0.62452 0.15261 0.45051 0.0
C2259 C 0.62656 0.17618 0.4442 0.0
C2260 C 0.64279 0.14061 0.46252 0.0
C2261 C 0.66355 0.15186 0.46886 0.0
C2262 C 0.66563 0.17534 0.46242 0.0
C2263 C 0.64744 0.1873 0.45033 0.0
C2264 C 0.683 0.13945 0.48247 0.0
C2265 C 0.70515 0.14015 0.47128 0.0
C2266 C 0.67995 0.12675 0.50602 0.0
C2267 C 0.6574 0.1257 0.51995 0.0
C2268 C 0.64461 0.14584 0.52495 0.0
C2269 C 0.62398 0.14482 0.53901 0.0
C2270 C 0.61582 0.12369 0.54819 0.0
C2271 C 0.62826 0.10354 0.54327 0.0
C2272 C 0.64894 0.10449 0.52926 0.0
C2273 C 0.78119 0.10451 0.53688 0.0
C2274 C 0.77785 0.08316 0.5493 0.0
C2275 C 0.763 0.11538 0.52336 0.0
C2276 C 0.74122 0.10471 0.52078 0.0
C2277 C 0.73818 0.08315 0.53313 0.0
C2278 C 0.75605 0.07279 0.54754 0.0
C2279 C 0.72135 0.11628 0.50651 0.0
C2280 C 0.69904 0.11539 0.51746 0.0
C2281 C 0.72412 0.12855 0.4826 0.0
C2282 C 0.74621 0.12859 0.46801 0.0
C2283 C 0.75683 0.10773 0.46086 0.0
C2284 C 0.7777 0.10787 0.44719 0.0
C2285 C 0.78801 0.12877 0.44033 0.0
C2286 C 0.77743 0.14958 0.44707 0.0
C2287 C 0.75661 0.14954 0.46084 0.0
H2288 H 0.80417 0.12884 0.42976 0.0
H2289 H 0.59986 0.12292 0.55912 0.0
H2290 H 0.42247 0.79589 0.52587 0.0
H2291 H 0.40375 0.76347 0.50308 0.0
H2292 H 0.4433 0.71544 0.54918 0.0
H2293 H 0.46133 0.74762 0.57252 0.0
H2294 H 0.44198 0.70431 0.49431 0.0
H2295 H 0.39214 0.72308 0.56494 0.0
H2296 H 0.3657 0.74466 0.59358 0.0
H2297 H 0.31914 0.75428 0.52911 0.0
H2298 H 0.34576 0.73386 0.49988 0.0
H2299 H 0.37823 0.60106 0.46339 0.0
H2300 H 0.399 0.6325 0.48518 0.0
H2301 H 0.35163 0.68169 0.45184 0.0
H2302 H 0.33114 0.65041 0.43015 0.0
H2303 H 0.3578 0.69154 0.50116 0.0
H2304 H 0.40919 0.67412 0.42986 0.0
H2305 H 0.43391 0.649 0.40282 0.0
H2306 H 0.47609 0.63407 0.46979 0.0
H2307 H 0.45142 0.65885 0.49731 0.0
C2308 C 0.42725 0.77841 0.531 0.0
C2309 C 0.44344 0.77438 0.55099 0.0
C2310 C 0.41647 0.75986 0.51805 0.0
C2311 C 0.42203 0.73686 0.52436 0.0
C2312 C 0.43867 0.73291 0.54384 0.0
C2313 C 0.44895 0.75138 0.55723 0.0
C2314 C 0.41035 0.71693 0.51103 0.0
C2315 C 0.42357 0.70148 0.49597 0.0
C2316 C 0.38628 0.71311 0.51288 0.0
C2317 C 0.37124 0.72727 0.53003 0.0
C2318 C 0.3766 0.73039 0.55667 0.0
C2319 C 0.36151 0.74238 0.57309 0.0
C2320 C 0.34079 0.75098 0.56322 0.0
C2321 C 0.33525 0.74786 0.53681 0.0
C2322 C 0.35042 0.73619 0.52025 0.0
C2323 C 0.37231 0.61859 0.46058 0.0
C2324 C 0.35264 0.62309 0.44522 0.0
C2325 C 0.38429 0.63665 0.47302 0.0
C2326 C 0.3771 0.65974 0.47019 0.0
C2327 C 0.35761 0.66417 0.45464 0.0
C2328 C 0.34569 0.64617 0.4423 0.0
C2329 C 0.38925 0.67928 0.48387 0.0
C2330 C 0.37615 0.69457 0.4992 0.0
C2331 C 0.41339 0.68292 0.48226 0.0
C2332 C 0.42832 0.66816 0.4657 0.0
C2333 C 0.42364 0.66535 0.43886 0.0
C2334 C 0.43765 0.65119 0.42344 0.0
C2335 C 0.45652 0.6399 0.43459 0.0
C2336 C 0.46145 0.6428 0.46118 0.0
C2337 C 0.44747 0.65691 0.47669 0.0
H2338 H 0.46734 0.62895 0.42263 0.0
H2339 H 0.32896 0.75987 0.57612 0.0
H2340 H 0.92027 0.38204 0.44375 0.0
H2341 H 0.88924 0.40351 0.46491 0.0
H2342 H 0.84367 0.34567 0.45478 0.0
H2343 H 0.87455 0.32428 0.43263 0.0
H2344 H 0.81995 0.38486 0.44651 0.0
H2345 H 0.8703 0.3582 0.51448 0.0
H2346 H 0.9072 0.35299 0.53764 0.0
H2347 H 0.91424 0.42635 0.54514 0.0
H2348 H 0.87757 0.43201 0.52163 0.0
H2349 H 0.76935 0.42872 0.58144 0.0
H2350 H 0.79973 0.41024 0.55615 0.0
H2351 H 0.77778 0.44778 0.4875 0.0
H2352 H 0.74513 0.46351 0.51227 0.0
H2353 H 0.83511 0.41881 0.53378 0.0
H2354 H 0.79569 0.42138 0.43021 0.0
H2355 H 0.75727 0.42772 0.41085 0.0
H2356 H 0.7255 0.39747 0.4786 0.0
H2357 H 0.76367 0.39118 0.49834 0.0
C2358 C 0.90364 0.3738 0.44584 0.0
C2359 C 0.90019 0.35119 0.43652 0.0
C2360 C 0.8858 0.38618 0.45812 0.0
C2361 C 0.86389 0.37632 0.46196 0.0
C2362 C 0.86021 0.35391 0.45214 0.0
C2363 C 0.87804 0.34156 0.43955 0.0
C2364 C 0.84526 0.38913 0.47685 0.0
C2365 C 0.82328 0.39207 0.46564 0.0
C2366 C 0.84922 0.39887 0.50196 0.0
C2367 C 0.87132 0.39553 0.51602 0.0
C2368 C 0.87982 0.37322 0.52086 0.0
C2369 C 0.90069 0.37019 0.53408 0.0
C2370 C 0.9131 0.38933 0.54278 0.0
C2371 C 0.90464 0.41154 0.53833 0.0
C2372 C 0.88382 0.41467 0.52506 0.0
C2373 C 0.77052 0.43245 0.56077 0.0
C2374 C 0.7541 0.44678 0.54872 0.0
C2375 C 0.78832 0.42217 0.54625 0.0
C2376 C 0.79107 0.42674 0.51932 0.0
C2377 C 0.77571 0.44274 0.50777 0.0
C2378 C 0.75703 0.45197 0.52202 0.0
C2379 C 0.80951 0.4142 0.5037 0.0
C2380 C 0.83159 0.4114 0.51471 0.0
C2381 C 0.8054 0.40415 0.47868 0.0
C2382 C 0.78255 0.40577 0.46577 0.0
C2383 C 0.78052 0.41583 0.44083 0.0
C2384 C 0.75876 0.41964 0.42988 0.0
C2385 C 0.73893 0.41316 0.44354 0.0
C2386 C 0.74082 0.4026 0.46804 0.0
C2387 C 0.76251 0.39877 0.47903 0.0
H2388 H 0.72211 0.41611 0.43504 0.0
H2389 H 0.92924 0.38694 0.55303 0.0
H2390 H 0.08471 0.73316 0.50784 0.0
H2391 H 0.10546 0.76338 0.48342 0.0
H2392 H 0.11502 0.80151 0.555 0.0
H2393 H 0.094 0.77184 0.57919 0.0
H2394 H 0.0957 0.81063 0.47765 0.0
H2395 H 0.17293 0.82745 0.54941 0.0
H2396 H 0.19634 0.80606 0.58148 0.0
H2397 H 0.17686 0.74213 0.54561 0.0
H2398 H 0.15462 0.76311 0.51224 0.0
H2399 H 0.15061 0.92022 0.45582 0.0
H2400 H 0.13119 0.88684 0.47557 0.0
H2401 H 0.18659 0.84279 0.4502 0.0
H2402 H 0.20622 0.87599 0.43099 0.0
H2403 H 0.17523 0.83387 0.50102 0.0
H2404 H 0.13717 0.84105 0.41912 0.0
H2405 H 0.11587 0.86098 0.38402 0.0
H2406 H 0.05938 0.87305 0.43657 0.0
H2407 H 0.08056 0.85362 0.4722 0.0
C2408 C 0.09123 0.748 0.51832 0.0
C2409 C 0.08761 0.75005 0.54548 0.0
C2410 C 0.10305 0.76532 0.50435 0.0
C2411 C 0.11199 0.78482 0.51731 0.0
C2412 C 0.10852 0.78669 0.54447 0.0
C2413 C 0.0964 0.76965 0.5583 0.0
C2414 C 0.12467 0.80338 0.50264 0.0
C2415 C 0.11308 0.81569 0.48287 0.0
C2416 C 0.14762 0.80985 0.50894 0.0
C2417 C 0.16156 0.79693 0.52856 0.0
C2418 C 0.17376 0.80884 0.54816 0.0
C2419 C 0.18699 0.79677 0.5665 0.0
C2420 C 0.18804 0.77274 0.56563 0.0
C2421 C 0.17609 0.76075 0.54623 0.0
C2422 C 0.16321 0.77274 0.52753 0.0
C2423 C 0.15875 0.90346 0.45453 0.0
C2424 C 0.18022 0.90097 0.44193 0.0
C2425 C 0.14756 0.88431 0.46579 0.0
C2426 C 0.15748 0.86216 0.46466 0.0
C2427 C 0.17874 0.85966 0.45186 0.0
C2428 C 0.18994 0.87874 0.44074 0.0
C2429 C 0.14593 0.8416 0.47687 0.0
C2430 C 0.1578 0.82886 0.49605 0.0
C2431 C 0.12342 0.83451 0.46983 0.0
C2432 C 0.11056 0.84609 0.44842 0.0
C2433 C 0.12029 0.84814 0.42328 0.0
C2434 C 0.10823 0.85931 0.40326 0.0
C2435 C 0.0863 0.86829 0.40807 0.0
C2436 C 0.07638 0.8661 0.43289 0.0
C2437 C 0.08841 0.85501 0.45301 0.0
H2438 H 0.07698 0.87692 0.39254 0.0
H2439 H 0.19818 0.76342 0.57993 0.0
H2440 H 0.30021 0.94589 1.00499 0.0
H2441 H 0.26904 0.92802 0.03073 0.0
H2442 H 0.22157 0.94007 0.9673 0.0
H2443 H 0.25221 0.95833 0.94205 0.0
H2444 H 0.20193 0.94806 0.01796 0.0
H2445 H 0.24617 0.88547 0.97246 0.0
H2446 H 0.28703 0.87565 0.96453 0.0
H2447 H 0.29864 0.871 0.04729 0.0
H2448 H 0.25792 0.88047 0.05575 0.0
H2449 H 0.10851 0.87508 0.0434 0.0
H2450 H 0.14111 0.89513 0.02354 0.0
H2451 H 0.18776 0.85846 0.07452 0.0
H2452 H 0.1552 0.83715 0.09296 0.0
H2453 H 0.21033 0.86415 0.03439 0.0
H2454 H 0.1682 0.91923 0.08323 0.0
H2455 H 0.13477 0.94157 0.09888 0.0
H2456 H 0.1247 0.9691 0.02162 0.0
H2457 H 0.15791 0.94667 1.00543 0.0
C2458 C 0.28306 0.94499 0.99674 0.0
C2459 C 0.27882 0.95336 0.97134 0.0
C2460 C 0.26523 0.93466 0.0114 0.0
C2461 C 0.24287 0.9323 1.00086 0.0
C2462 C 0.23853 0.94157 0.97597 0.0
C2463 C 0.25621 0.95191 0.96145 0.0
C2464 C 0.22432 0.91878 0.01455 0.0
C2465 C 0.20361 0.92969 0.02136 0.0
C2466 C 0.22676 0.89498 0.01998 0.0
C2467 C 0.24899 0.88341 0.01472 0.0
C2468 C 0.25727 0.88151 0.9889 0.0
C2469 C 0.28042 0.87619 0.98432 0.0
C2470 C 0.29535 0.87263 1.00535 0.0
C2471 C 0.28701 0.87354 0.03101 0.0
C2472 C 0.26385 0.87866 0.03573 0.0
C2473 C 0.12571 0.87129 0.05038 0.0
C2474 C 0.12909 0.8547 0.07009 0.0
C2475 C 0.14449 0.88296 0.03913 0.0
C2476 C 0.16723 0.87921 0.048 0.0
C2477 C 0.17063 0.8621 0.06725 0.0
C2478 C 0.15188 0.84992 0.07795 0.0
C2479 C 0.18718 0.89332 0.03751 0.0
C2480 C 0.20829 0.8825 0.03114 0.0
C2481 C 0.18541 0.91756 0.03346 0.0
C2482 C 0.16541 0.93109 0.04306 0.0
C2483 C 0.15876 0.92993 0.06954 0.0
C2484 C 0.13987 0.94262 0.07851 0.0
C2485 C 0.12758 0.95669 0.06124 0.0
C2486 C 0.13421 0.95816 0.03497 0.0
C2487 C 0.15308 0.94547 0.02588 0.0
H2488 H 0.11296 0.96651 0.06822 0.0
H2489 H 0.31342 0.8694 1.00174 0.0
H2490 H 0.65295 0.10344 0.04497 0.0
H2491 H 0.63487 0.13662 0.02355 0.0
H2492 H 0.68013 0.18243 0.06539 0.0
H2493 H 0.6981 0.1493 0.08709 0.0
H2494 H 0.63693 0.19976 0.06522 0.0
H2495 H 0.68739 0.16856 0.99987 0.0
H2496 H 0.70293 0.13764 0.97183 0.0
H2497 H 0.63734 0.13057 0.93404 0.0
H2498 H 0.62103 0.16069 0.96263 0.0
H2499 H 0.60298 0.30015 0.99296 0.0
H2500 H 0.62378 0.26879 0.01471 0.0
H2501 H 0.59155 0.21968 0.96294 0.0
H2502 H 0.57203 0.25122 0.94027 0.0
H2503 H 0.63006 0.20443 0.96863 0.0
H2504 H 0.57812 0.23069 0.03578 0.0
H2505 H 0.55995 0.25889 0.06549 0.0
H2506 H 0.6258 0.27395 0.09966 0.0
H2507 H 0.64439 0.246 0.06995 0.0
C2508 C 0.65915 0.12053 0.04967 0.0
C2509 C 0.6772 0.12341 0.06786 0.0
C2510 C 0.64878 0.13964 0.03723 0.0
C2511 C 0.65611 0.16235 0.04243 0.0
C2512 C 0.67398 0.16528 0.06081 0.0
C2513 C 0.68439 0.14617 0.0732 0.0
C2514 C 0.64512 0.18291 0.02888 0.0
C2515 C 0.63577 0.20089 0.04405 0.0
C2516 C 0.64292 0.18451 1.00122 0.0
C2517 C 0.6529 0.16676 0.98362 0.0
C2518 C 0.6762 0.16029 0.98575 0.0
C2519 C 0.68516 0.14292 0.96974 0.0
C2520 C 0.67118 0.13224 0.95111 0.0
C2521 C 0.64816 0.13886 0.94849 0.0
C2522 C 0.63901 0.15602 0.96465 0.0
C2523 C 0.60022 0.28264 0.98636 0.0
C2524 C 0.58555 0.27832 0.96499 0.0
C2525 C 0.61205 0.26448 0.99901 0.0
C2526 C 0.60913 0.24125 0.99124 0.0
C2527 C 0.59444 0.23711 0.96972 0.0
C2528 C 0.58306 0.25529 0.95674 0.0
C2529 C 0.62146 0.22136 1.00492 0.0
C2530 C 0.63122 0.20347 0.98978 0.0
C2531 C 0.62377 0.21968 0.03264 0.0
C2532 C 0.61265 0.23643 0.05051 0.0
C2533 C 0.58873 0.24011 0.04955 0.0
C2534 C 0.57836 0.25604 0.06639 0.0
C2535 C 0.59172 0.26825 0.08441 0.0
C2536 C 0.61547 0.26451 0.08567 0.0
C2537 C 0.62593 0.24861 0.06887 0.0
H2538 H 0.58366 0.28057 0.09742 0.0
H2539 H 0.67818 0.11883 0.93871 0.0
H2540 H 0.27819 0.57911 0.93028 0.0
H2541 H 0.31006 0.59664 0.95443 0.0
H2542 H 0.26252 0.61897 0.01429 0.0
H2543 H 0.23081 0.60048 0.99067 0.0
H2544 H 0.32309 0.63638 0.96786 0.0
H2545 H 0.28686 0.62369 0.07333 0.0
H2546 H 0.26278 0.596 0.09774 0.0
H2547 H 0.28033 0.54276 0.04283 0.0
H2548 H 0.30474 0.57003 0.01831 0.0
H2549 H 0.37426 0.69254 0.09131 0.0
H2550 H 0.34294 0.67263 0.0686 0.0
H2551 H 0.39264 0.63324 0.02466 0.0
H2552 H 0.42412 0.65311 0.04753 0.0
H2553 H 0.3321 0.6237 0.06343 0.0
H2554 H 0.36803 0.63135 0.95879 0.0
H2555 H 0.39827 0.65374 0.93636 0.0
H2556 H 0.38791 0.70976 0.99 0.0
H2557 H 0.35695 0.68836 0.01172 0.0
C2558 C 0.27454 0.58762 0.9487 0.0
C2559 C 0.25192 0.5881 0.9587 0.0
C2560 C 0.29285 0.59779 0.96251 0.0
C2561 C 0.28909 0.60893 0.98665 0.0
C2562 C 0.26629 0.60998 0.99621 0.0
C2563 C 0.24804 0.59947 0.9826 0.0
C2564 C 0.30891 0.61927 1.00178 0.0
C2565 C 0.32509 0.63329 0.98869 0.0
C2566 C 0.31191 0.61554 0.02909 0.0
C2567 C 0.2974 0.59899 0.04384 0.0
C2568 C 0.28563 0.60606 0.06652 0.0
C2569 C 0.27192 0.59044 0.08037 0.0
C2570 C 0.26996 0.56766 0.07179 0.0
C2571 C 0.28178 0.56043 0.0494 0.0
C2572 C 0.29553 0.57596 0.0355 0.0
C2573 C 0.37857 0.67969 0.07681 0.0
C2574 C 0.40179 0.67471 0.0711 0.0
C2575 C 0.36059 0.66809 0.06401 0.0
C2576 C 0.3653 0.6514 0.04479 0.0
C2577 C 0.38848 0.64605 0.03934 0.0
C2578 C 0.4065 0.65746 0.05244 0.0
C2579 C 0.34599 0.64067 0.02951 0.0
C2580 C 0.32996 0.62669 0.0426 0.0
C2581 C 0.34356 0.64387 1.0021 0.0
C2582 C 0.36026 0.65807 0.9871 0.0
C2583 C 0.37185 0.64866 0.96541 0.0
C2584 C 0.38909 0.66125 0.95272 0.0
C2585 C 0.3948 0.68333 0.96143 0.0
C2586 C 0.38325 0.69287 0.98283 0.0
C2587 C 0.36579 0.68053 0.99531 0.0
H2588 H 0.40828 0.69297 0.95171 0.0
H2589 H 0.25932 0.5556 0.08252 0.0
H2590 H 0.89197 0.42112 0.08527 0.0
H2591 H 0.91421 0.39006 0.06464 0.0
H2592 H 0.85226 0.36486 0.02824 0.0
H2593 H 0.82971 0.39437 0.05105 0.0
H2594 H 0.87239 0.3303 0.04037 0.0
H2595 H 0.90021 0.39593 0.99578 0.0
H2596 H 0.91757 0.43424 0.98906 0.0
H2597 H 0.9804 0.41094 0.02464 0.0
H2598 H 0.96331 0.37257 0.03193 0.0
H2599 H 0.95184 0.28064 0.93399 0.0
H2600 H 0.93651 0.3139 0.95749 0.0
H2601 H 0.93548 0.27428 0.02892 0.0
H2602 H 0.95006 0.24043 1.00505 0.0
H2603 H 0.94816 0.34162 0.99792 0.0
H2604 H 0.89515 0.28414 0.06123 0.0
H2605 H 0.87793 0.24541 0.05958 0.0
H2606 H 0.86649 0.25331 0.97687 0.0
H2607 H 0.88197 0.29256 0.97861 0.0
C2608 C 0.88307 0.40877 0.07302 0.0
C2609 C 0.859 0.41019 0.06998 0.0
C2610 C 0.89589 0.39105 0.06091 0.0
C2611 C 0.88516 0.37473 0.04445 0.0
C2612 C 0.8611 0.37656 0.04118 0.0
C2613 C 0.84817 0.39368 0.05409 0.0
C2614 C 0.89853 0.35529 0.03146 0.0
C2615 C 0.88916 0.33292 0.03178 0.0
C2616 C 0.92015 0.35833 0.01868 0.0
C2617 C 0.93036 0.38147 0.01473 0.0
C2618 C 0.91765 0.39905 1.00242 0.0
C2619 C 0.92746 0.42076 0.99846 0.0
C2620 C 0.95004 0.42505 1.00651 0.0
C2621 C 0.96289 0.40761 0.01849 0.0
C2622 C 0.95315 0.38588 0.02254 0.0
C2623 C 0.94832 0.27887 0.95473 0.0
C2624 C 0.95185 0.25756 0.96747 0.0
C2625 C 0.93972 0.29813 0.96826 0.0
C2626 C 0.93442 0.29684 0.99507 0.0
C2627 C 0.93891 0.27582 1.00815 0.0
C2628 C 0.94737 0.2564 0.99451 0.0
C2629 C 0.92241 0.31674 1.00854 0.0
C2630 C 0.9318 0.33908 1.00772 0.0
C2631 C 0.9007 0.31393 0.02062 0.0
C2632 C 0.88911 0.29138 0.02021 0.0
C2633 C 0.88806 0.27787 0.04297 0.0
C2634 C 0.87868 0.25576 0.042 0.0
C2635 C 0.87084 0.24684 0.01822 0.0
C2636 C 0.87203 0.2602 0.99545 0.0
C2637 C 0.8809 0.28249 0.99645 0.0
H2638 H 0.86418 0.22949 0.01744 0.0
H2639 H 0.95762 0.44186 1.00339 0.0
H2640 H 0.41563 0.85138 0.53731 0.0
H2641 H 0.3832 0.87088 0.51635 0.0
H2642 H 0.34527 0.86817 0.58906 0.0
H2643 H 0.37707 0.84658 0.60919 0.0
H2644 H 0.3155 0.8655 0.55577 0.0
H2645 H 0.37643 0.92005 0.56058 0.0
H2646 H 0.41554 0.93574 0.55448 0.0
H2647 H 0.40856 0.92933 0.47107 0.0
H2648 H 0.36951 0.91334 0.47668 0.0
H2649 H 0.23317 0.94823 0.50421 0.0
H2650 H 0.26348 0.93036 0.53104 0.0
H2651 H 0.30529 0.92156 0.46188 0.0
H2652 H 0.27625 0.94144 0.43598 0.0
H2653 H 0.33201 0.93174 0.49759 0.0
H2654 H 0.26377 0.88168 0.49975 0.0
H2655 H 0.22378 0.8739 0.51358 0.0
H2656 H 0.24403 0.87764 0.59419 0.0
H2657 H 0.28366 0.88726 0.58101 0.0
C2658 C 0.40032 0.85488 0.54879 0.0
C2659 C 0.39909 0.84762 0.57502 0.0
C2660 C 0.38172 0.86636 0.53685 0.0
C2661 C 0.36167 0.8721 0.55112 0.0
C2662 C 0.36032 0.86433 0.57731 0.0
C2663 C 0.37863 0.852 0.58896 0.0
C2664 C 0.3424 0.88621 0.53882 0.0
C2665 C 0.31921 0.88014 0.5433 0.0
C2666 C 0.34669 0.90563 0.52254 0.0
C2667 C 0.37013 0.9153 0.51908 0.0
C2668 C 0.38329 0.92187 0.54095 0.0
C2669 C 0.40544 0.93083 0.53757 0.0
C2670 C 0.41455 0.93347 0.5124 0.0
C2671 C 0.40149 0.92724 0.49055 0.0
C2672 C 0.37935 0.91825 0.49381 0.0
C2673 C 0.24889 0.94253 0.49479 0.0
C2674 C 0.25192 0.94576 0.46765 0.0
C2675 C 0.26623 0.93204 0.51015 0.0
C2676 C 0.28665 0.92347 0.49858 0.0
C2677 C 0.28976 0.92742 0.47158 0.0
C2678 C 0.27289 0.9386 0.45653 0.0
C2679 C 0.30508 0.91068 0.51391 0.0
C2680 C 0.32824 0.91705 0.51002 0.0
C2681 C 0.30056 0.89222 0.53165 0.0
C2682 C 0.27679 0.88537 0.53928 0.0
C2683 C 0.25973 0.8809 0.52042 0.0
C2684 C 0.23708 0.87629 0.52815 0.0
C2685 C 0.23147 0.87489 0.55469 0.0
C2686 C 0.2484 0.87862 0.5736 0.0
C2687 C 0.27091 0.88392 0.566 0.0
H2688 H 0.21398 0.87106 0.56059 0.0
H2689 H 0.4317 0.9404 0.50983 0.0
H2690 H 0.69114 0.37645 0.58887 0.0
H2691 H 0.66877 0.34596 0.56814 0.0
H2692 H 0.62536 0.39676 0.53138 0.0
H2693 H 0.64772 0.42748 0.55217 0.0
H2694 H 0.62994 0.32899 0.56757 0.0
H2695 H 0.60136 0.37479 0.47242 0.0
H2696 H 0.61301 0.40712 0.44406 0.0
H2697 H 0.6825 0.4015 0.47194 0.0
H2698 H 0.6715 0.36874 0.49992 0.0
H2699 H 0.56092 0.24662 0.49876 0.0
H2700 H 0.57572 0.28034 0.52239 0.0
H2701 H 0.62076 0.29541 0.45725 0.0
H2702 H 0.60341 0.26389 0.4328 0.0
H2703 H 0.61331 0.33196 0.47276 0.0
H2704 H 0.63109 0.26561 0.52478 0.0
H2705 H 0.62406 0.23122 0.5518 0.0
H2706 H 0.58876 0.27252 0.60885 0.0
H2707 H 0.59465 0.30708 0.58166 0.0
C2708 C 0.67694 0.38127 0.57625 0.0
C2709 C 0.67165 0.40468 0.57199 0.0
C2710 C 0.66406 0.36364 0.56426 0.0
C2711 C 0.64572 0.36863 0.54707 0.0
C2712 C 0.63984 0.39205 0.54363 0.0
C2713 C 0.65264 0.40975 0.55575 0.0
C2714 C 0.63326 0.3493 0.53277 0.0
C2715 C 0.62672 0.32944 0.54676 0.0
C2716 C 0.62844 0.34978 0.50548 0.0
C2717 C 0.63549 0.36939 0.48855 0.0
C2718 C 0.61917 0.38034 0.47241 0.0
C2719 C 0.62568 0.39873 0.45636 0.0
C2720 C 0.64849 0.40637 0.45623 0.0
C2721 C 0.66485 0.39556 0.47208 0.0
C2722 C 0.65848 0.37704 0.48803 0.0
C2723 C 0.57405 0.25716 0.48963 0.0
C2724 C 0.58149 0.25215 0.46403 0.0
C2725 C 0.5828 0.27648 0.50329 0.0
C2726 C 0.60039 0.29051 0.49246 0.0
C2727 C 0.60753 0.28529 0.46672 0.0
C2728 C 0.59786 0.26688 0.45267 0.0
C2729 C 0.61134 0.31056 0.50729 0.0
C2730 C 0.61719 0.33087 0.49348 0.0
C2731 C 0.61666 0.30995 0.53456 0.0
C2732 C 0.61311 0.28902 0.55092 0.0
C2733 C 0.62165 0.26742 0.54295 0.0
C2734 C 0.61776 0.24783 0.55827 0.0
C2735 C 0.60595 0.24968 0.582 0.0
C2736 C 0.59787 0.2711 0.59042 0.0
C2737 C 0.60136 0.29068 0.57497 0.0
H2738 H 0.60307 0.23454 0.59393 0.0
H2739 H 0.65349 0.42065 0.44383 0.0
H2740 H 0.30181 0.60517 0.48581 0.0
H2741 H 0.27105 0.62701 0.5076 0.0
H2742 H 0.22127 0.57696 0.48107 0.0
H2743 H 0.25173 0.55635 0.45783 0.0
H2744 H 0.20176 0.6135 0.47621 0.0
H2745 H 0.24476 0.58459 0.54888 0.0
H2746 H 0.27886 0.57799 0.57665 0.0
H2747 H 0.28553 0.65087 0.58899 0.0
H2748 H 0.25156 0.65789 0.56118 0.0
H2749 H 0.10898 0.64699 0.56061 0.0
H2750 H 0.14099 0.62631 0.54012 0.0
H2751 H 0.18616 0.68335 0.55682 0.0
H2752 H 0.15431 0.70401 0.57755 0.0
H2753 H 0.20817 0.64508 0.56601 0.0
H2754 H 0.15841 0.66998 0.49434 0.0
H2755 H 0.12289 0.67136 0.46837 0.0
H2756 H 0.12536 0.59798 0.45822 0.0
H2757 H 0.16095 0.59608 0.48437 0.0
C2758 C 0.28433 0.59869 0.48508 0.0
C2759 C 0.27927 0.57877 0.47053 0.0
C2760 C 0.26661 0.61119 0.49761 0.0
C2761 C 0.24346 0.60368 0.49664 0.0
C2762 C 0.2387 0.58349 0.4823 0.0
C2763 C 0.25623 0.57146 0.46919 0.0
C2764 C 0.22403 0.61684 0.50974 0.0
C2765 C 0.20318 0.62 0.49605 0.0
C2766 C 0.22556 0.626 0.53551 0.0
C2767 C 0.24588 0.6218 0.55247 0.0
C2768 C 0.25362 0.59922 0.55732 0.0
C2769 C 0.27289 0.5954 0.57314 0.0
C2770 C 0.28444 0.61401 0.58445 0.0
C2771 C 0.27665 0.63647 0.58011 0.0
C2772 C 0.25738 0.64038 0.56431 0.0
C2773 C 0.12569 0.65523 0.55987 0.0
C2774 C 0.12883 0.67735 0.57069 0.0
C2775 C 0.14407 0.64337 0.54793 0.0
C2776 C 0.16613 0.65336 0.54612 0.0
C2777 C 0.16939 0.67523 0.55748 0.0
C2778 C 0.15104 0.68709 0.56941 0.0
C2779 C 0.18583 0.64108 0.53272 0.0
C2780 C 0.2068 0.63839 0.54623 0.0
C2781 C 0.18406 0.63152 0.50717 0.0
C2782 C 0.16252 0.6329 0.49146 0.0
C2783 C 0.15152 0.6541 0.48665 0.0
C2784 C 0.13128 0.65498 0.47188 0.0
C2785 C 0.12186 0.63477 0.46165 0.0
C2786 C 0.13268 0.61364 0.46615 0.0
C2787 C 0.15291 0.61266 0.48093 0.0
H2788 H 0.10618 0.63549 0.45022 0.0
H2789 H 0.29937 0.61101 0.59669 0.0
H2790 H 0.82757 0.15257 0.58729 0.0
H2791 H 0.8471 0.1844 0.56515 0.0
H2792 H 0.89516 0.13645 0.53074 0.0
H2793 H 0.87628 0.10468 0.55389 0.0
H2794 H 0.91817 0.17166 0.54288 0.0
H2795 H 0.8472 0.16368 0.49741 0.0
H2796 H 0.80505 0.16082 0.49314 0.0
H2797 H 0.79757 0.22983 0.52223 0.0
H2798 H 0.8397 0.23284 0.52754 0.0
H2799 H 0.95736 0.2468 0.43976 0.0
H2800 H 0.93792 0.21609 0.46428 0.0
H2801 H 0.90578 0.2669 0.51381 0.0
H2802 H 0.92581 0.29777 0.48968 0.0
H2803 H 0.87447 0.23122 0.49401 0.0
H2804 H 0.94704 0.23742 0.53917 0.0
H2805 H 0.98924 0.23763 0.54456 0.0
H2806 H 0.99331 0.16955 0.51201 0.0
H2807 H 0.95114 0.16905 0.50609 0.0
C2808 C 0.84232 0.14874 0.57502 0.0
C2809 C 0.85022 0.12587 0.57245 0.0
C2810 C 0.85345 0.16707 0.56211 0.0
C2811 C 0.87254 0.16313 0.5456 0.0
C2812 C 0.88055 0.14027 0.5432 0.0
C2813 C 0.86964 0.12197 0.55647 0.0
C2814 C 0.8843 0.18271 0.53112 0.0
C2815 C 0.90849 0.1844 0.5319 0.0
C2816 C 0.87197 0.19989 0.51695 0.0
C2817 C 0.84665 0.1984 0.51315 0.0
C2818 C 0.83658 0.17821 0.50306 0.0
C2819 C 0.81267 0.17655 0.50046 0.0
C2820 C 0.79862 0.19513 0.50738 0.0
C2821 C 0.80847 0.21543 0.51691 0.0
C2822 C 0.83238 0.21711 0.51977 0.0
C2823 C 0.94628 0.25148 0.45599 0.0
C2824 C 0.94332 0.27483 0.46281 0.0
C2825 C 0.93513 0.23384 0.47004 0.0
C2826 C 0.92027 0.23898 0.49105 0.0
C2827 C 0.91709 0.26233 0.49775 0.0
C2828 C 0.92867 0.28001 0.48402 0.0
C2829 C 0.9082 0.21995 0.50584 0.0
C2830 C 0.88401 0.21838 0.50501 0.0
C2831 C 0.9205 0.20259 0.51952 0.0
C2832 C 0.94594 0.20328 0.522 0.0
C2833 C 0.95695 0.22261 0.53284 0.0
C2834 C 0.98086 0.22274 0.5361 0.0
C2835 C 0.99391 0.20357 0.52875 0.0
C2836 C 0.98315 0.18435 0.5178 0.0
C2837 C 0.95925 0.18413 0.51449 0.0
H2838 H 1.01238 0.20358 0.53157 0.0
H2839 H 0.78011 0.1938 0.50534 0.0
H2840 H 0.88371 0.20327 0.95843 0.0
H2841 H 0.85362 0.18024 0.97988 0.0
H2842 H 0.89359 0.11878 0.96801 0.0
H2843 H 0.92368 0.14155 0.94611 0.0
H2844 H 0.8492 0.10955 0.95826 0.0
H2845 H 0.88886 0.1427 0.02995 0.0
H2846 H 0.90712 0.17289 0.05681 0.0
H2847 H 0.84282 0.20914 0.06145 0.0
H2848 H 0.82396 0.17881 0.03531 0.0
H2849 H 0.77571 0.07945 0.08595 0.0
H2850 H 0.80947 0.096 0.0645 0.0
H2851 H 0.77298 0.09662 0.99095 0.0
H2852 H 0.73893 0.08046 0.01264 0.0
H2853 H 0.81861 0.1338 0.04468 0.0
H2854 H 0.80775 0.0989 0.93876 0.0
H2855 H 0.79384 0.06381 0.91653 0.0
H2856 H 0.80805 0.02387 0.98553 0.0
H2857 H 0.82233 0.05867 1.00796 0.0
C2858 C 0.88611 0.18483 0.9602 0.0
C2859 C 0.90622 0.17438 0.95029 0.0
C2860 C 0.86892 0.17173 0.97272 0.0
C2861 C 0.87117 0.14776 0.97591 0.0
C2862 C 0.8912 0.1372 0.96593 0.0
C2863 C 0.90855 0.15033 0.9535 0.0
C2864 C 0.85253 0.13406 0.98964 0.0
C2865 C 0.84253 0.11489 0.97715 0.0
C2866 C 0.84396 0.14034 0.01469 0.0
C2867 C 0.85507 0.15863 0.03046 0.0
C2868 C 0.87861 0.15714 0.03669 0.0
C2869 C 0.88901 0.17416 0.05199 0.0
C2870 C 0.87604 0.19277 0.06113 0.0
C2871 C 0.85268 0.19445 0.05488 0.0
C2872 C 0.84212 0.17734 0.03985 0.0
C2873 C 0.77479 0.08319 0.0652 0.0
C2874 C 0.75438 0.07876 0.05115 0.0
C2875 C 0.79425 0.0927 0.05284 0.0
C2876 C 0.79418 0.09784 0.02585 0.0
C2877 C 0.7739 0.09289 0.01168 0.0
C2878 C 0.75426 0.08367 0.02415 0.0
C2879 C 0.81477 0.10945 0.01311 0.0
C2880 C 0.82515 0.12834 0.02577 0.0
C2881 C 0.82414 0.1024 0.98864 0.0
C2882 C 0.81585 0.08141 0.97513 0.0
C2883 C 0.80798 0.08261 0.94913 0.0
C2884 C 0.80002 0.06278 0.9365 0.0
C2885 C 0.79998 0.04164 0.94964 0.0
C2886 C 0.80799 0.04026 0.9754 0.0
C2887 C 0.81598 0.06003 0.98809 0.0
H2888 H 0.7938 0.02632 0.93983 0.0
H2889 H 0.88412 0.20589 0.07303 0.0
H2890 H 0.32966 0.88046 0.94579 0.0
H2891 H 0.35225 0.84963 0.96532 0.0
H2892 H 0.41158 0.89377 0.96862 0.0
H2893 H 0.38892 0.92528 0.9491 0.0
H2894 H 0.39061 0.82691 0.9477 0.0
H2895 H 0.44394 0.87398 0.02522 0.0
H2896 H 0.44349 0.9094 0.0519 0.0
H2897 H 0.36965 0.91148 0.04763 0.0
H2898 H 0.36964 0.87594 0.02136 0.0
H2899 H 0.46069 0.74022 0.01293 0.0
H2900 H 0.44684 0.77328 0.98746 0.0
H2901 H 0.41003 0.79797 0.05542 0.0
H2902 H 0.42579 0.76633 0.08096 0.0
H2903 H 0.42472 0.83239 0.03635 0.0
H2904 H 0.38335 0.76909 0.98409 0.0
H2905 H 0.38368 0.73509 0.95505 0.0
H2906 H 0.4356 0.76644 0.90724 0.0
H2907 H 0.43476 0.80114 0.93525 0.0
C2908 C 0.34754 0.88378 0.95046 0.0
C2909 C 0.35738 0.90555 0.94559 0.0
C2910 C 0.36051 0.86591 0.96158 0.0
C2911 C 0.38373 0.869 0.96832 0.0
C2912 C 0.3937 0.89076 0.96369 0.0
C2913 C 0.38068 0.90882 0.95248 0.0
C2914 C 0.39695 0.84934 0.98046 0.0
C2915 C 0.39813 0.82816 0.96711 0.0
C2916 C 0.40722 0.85076 1.00557 0.0
C2917 C 0.40685 0.87235 0.0211 0.0
C2918 C 0.42761 0.88197 0.03003 0.0
C2919 C 0.42743 0.90208 0.0451 0.0
C2920 C 0.40655 0.91273 0.05138 0.0
C2921 C 0.38582 0.90325 0.04268 0.0
C2922 C 0.3859 0.8831 0.02769 0.0
C2923 C 0.44953 0.7527 0.02231 0.0
C2924 C 0.4443 0.75053 0.04914 0.0
C2925 C 0.44125 0.77163 1.00757 0.0
C2926 C 0.42669 0.78846 0.01897 0.0
C2927 C 0.42121 0.78573 0.0457 0.0
C2928 C 0.43012 0.76739 0.06049 0.0
C2929 C 0.41765 0.80935 1.00415 0.0
C2930 C 0.41733 0.83095 0.01693 0.0
C2931 C 0.40851 0.80844 0.97831 0.0
C2932 C 0.40933 0.78739 0.96209 0.0
C2933 C 0.39499 0.76858 0.96762 0.0
C2934 C 0.39526 0.74923 0.95134 0.0
C2935 C 0.41013 0.7483 0.92985 0.0
C2936 C 0.42431 0.76704 0.9241 0.0
C2937 C 0.42379 0.78664 0.94001 0.0
H2938 H 0.41042 0.73317 0.91748 0.0
H2939 H 0.40645 0.92831 0.06302 0.0
H2940 H 0.75165 0.46031 0.07278 0.0
H2941 H 0.72092 0.43931 0.05056 0.0
H2942 H 0.77057 0.41044 0.9969 0.0
H2943 H 0.80134 0.43253 0.01853 0.0
H2944 H 0.73416 0.4184 0.97027 0.0
H2945 H 0.74579 0.38229 0.05205 0.0
H2946 H 0.74898 0.37715 0.09965 0.0
H2947 H 0.67822 0.39699 0.10912 0.0
H2948 H 0.67451 0.40235 0.06142 0.0
H2949 H 0.65432 0.33254 0.92422 0.0
H2950 H 0.68706 0.35095 0.94617 0.0
H2951 H 0.64016 0.39207 0.99196 0.0
H2952 H 0.60738 0.3736 0.9701 0.0
H2953 H 0.67661 0.37509 0.02248 0.0
H2954 H 0.6682 0.41518 0.93973 0.0
H2955 H 0.6658 0.41727 0.89155 0.0
H2956 H 0.73287 0.38653 0.88505 0.0
H2957 H 0.73553 0.38397 0.93322 0.0
C2958 C 0.75607 0.4496 0.05613 0.0
C2959 C 0.77907 0.44823 0.04748 0.0
C2960 C 0.73839 0.43735 0.04347 0.0
C2961 C 0.74311 0.42266 0.02214 0.0
C2962 C 0.76614 0.42151 0.01322 0.0
C2963 C 0.78384 0.43418 0.02564 0.0
C2964 C 0.72409 0.40864 1.00936 0.0
C2965 C 0.72185 0.40872 0.98186 0.0
C2966 C 0.7076 0.39586 0.02408 0.0
C2967 C 0.70985 0.39277 0.05294 0.0
C2968 C 0.73085 0.38562 0.06415 0.0
C2969 C 0.73278 0.38267 0.09123 0.0
C2970 C 0.71383 0.38679 0.10742 0.0
C2971 C 0.69289 0.3938 0.09654 0.0
C2972 C 0.69085 0.39674 0.06945 0.0
C2973 C 0.65091 0.34534 0.9391 0.0
C2974 C 0.628 0.3514 0.94525 0.0
C2975 C 0.66976 0.35605 0.95161 0.0
C2976 C 0.66637 0.37318 0.97083 0.0
C2977 C 0.64349 0.37898 0.97732 0.0
C2978 C 0.62465 0.36844 0.96461 0.0
C2979 C 0.68652 0.38541 0.98365 0.0
C2980 C 0.689 0.38485 0.01109 0.0
C2981 C 0.70345 0.39743 0.96896 0.0
C2982 C 0.70197 0.3992 0.94004 0.0
C2983 C 0.68237 0.40873 0.92801 0.0
C2984 C 0.68097 0.41002 0.90071 0.0
C2985 C 0.69915 0.40199 0.88524 0.0
C2986 C 0.71879 0.39272 0.89705 0.0
C2987 C 0.72026 0.39136 0.92435 0.0
H2988 H 0.69803 0.40299 0.86411 0.0
H2989 H 0.71537 0.38452 0.12839 0.0
H2990 H 0.07242 0.75318 0.06936 0.0
H2991 H 0.09211 0.72252 0.04528 0.0
H2992 H 0.12308 0.77296 0.99439 0.0
H2993 H 0.10262 0.80388 0.01806 0.0
H2994 H 0.10637 0.73412 0.96716 0.0
H2995 H 0.17647 0.73335 0.03123 0.0
H2996 H 0.19212 0.73754 0.07596 0.0
H2997 H 0.13405 0.70084 0.10714 0.0
H2998 H 0.11874 0.69546 0.06246 0.0
H2999 H 0.18958 0.65517 0.9113 0.0
H3000 H 0.17123 0.6881 0.93292 0.0
H3001 H 0.13991 0.6423 0.989 0.0
H3002 H 0.15804 0.60922 0.96731 0.0
H3003 H 0.15942 0.68059 0.01301 0.0
H3004 H 0.10783 0.66664 0.94013 0.0
H3005 H 0.09843 0.66178 0.89334 0.0
H3006 H 0.12474 0.72938 0.8769 0.0
H3007 H 0.13456 0.73453 0.92359 0.0
C3008 C 0.08339 0.75782 0.05301 0.0
C3009 C 0.08594 0.78111 0.04578 0.0
C3010 C 0.09504 0.74019 0.03946 0.0
C3011 C 0.10997 0.74521 0.01849 0.0
C3012 C 0.11201 0.76845 1.01069 0.0
C3013 C 0.10018 0.78617 0.02416 0.0
C3014 C 0.12236 0.72607 1.0041 0.0
C3015 C 0.1181 0.72257 0.97723 0.0
C3016 C 0.13783 0.71073 0.01677 0.0
C3017 C 0.14604 0.7148 0.04373 0.0
C3018 C 0.16699 0.72634 0.0477 0.0
C3019 C 0.17596 0.72864 0.07297 0.0
C3020 C 0.16395 0.71969 0.09442 0.0
C3021 C 0.14319 0.70801 0.09056 0.0
C3022 C 0.1344 0.70525 0.06525 0.0
C3023 C 0.17872 0.65201 0.92818 0.0
C3024 C 0.17533 0.62932 0.9374 0.0
C3025 C 0.16813 0.67097 0.94055 0.0
C3026 C 0.15396 0.66791 0.96268 0.0
C3027 C 0.15068 0.6453 0.97201 0.0
C3028 C 0.16102 0.6263 0.95946 0.0
C3029 C 0.14281 0.68814 0.97633 0.0
C3030 C 0.14754 0.69201 1.00296 0.0
C3031 C 0.12803 0.70392 0.96329 0.0
C3032 C 0.12204 0.70091 0.9353 0.0
C3033 C 0.11173 0.68041 0.9265 0.0
C3034 C 0.10631 0.67761 0.90002 0.0
C3035 C 0.11097 0.69526 0.88217 0.0
C3036 C 0.1211 0.71574 0.89076 0.0
C3037 C 0.12658 0.71862 0.91723 0.0
H3038 H 0.10669 0.69308 0.86169 0.0
H3039 H 0.17079 0.72172 0.11399 0.0
loop_
_geom_bond_atom_site_label_1
_geom_bond_atom_site_label_2
_geom_bond_distance
_geom_bond_site_symmetry_2
_ccdc_geom_bond_type
C0 Eu1 2.835 . S
C0 C2 1.500 . S
C0 O20 1.257 . S
C0 O21 1.260 . S
Eu1 C0 2.835 . S
Eu1 O20 2.473 . S
Eu1 O21 2.480 . S
Eu1 O22 2.430 . S
Eu1 O23 2.670 . S
Eu1 O24 2.394 . S
Eu1 O29 2.355 . S
Eu1 O31 2.374 . S
C2 C0 1.500 . S
C2 C3 1.377 . S
C2 C7 1.377 . S
C3 C2 1.377 . S
C3 C4 1.395 . S
C3 H32 0.931 . S
C4 C3 1.395 . S
C4 C5 1.383 . S
C4 H33 0.931 . S
C5 C4 1.383 . S
C5 C6 1.394 . S
C6 C5 1.394 . S
C6 C7 1.378 . S
C6 H34 0.931 . S
C7 C2 1.377 . S
C7 C6 1.378 . S
C7 H35 0.931 . S
C8 O22 1.259 . S
C8 O23 1.270 . S
C9 O24 1.251 . S
C9 O25 1.251 . S
C10 Eu11 2.835 . S
C10 C12 1.500 . S
C10 O26 1.257 . S
C10 O27 1.260 . S
Eu11 C10 2.835 . S
Eu11 O23 2.355 . S
Eu11 O25 2.374 . S
Eu11 O26 2.473 . S
Eu11 O27 2.480 . S
Eu11 O28 2.430 . S
Eu11 O29 2.670 . S
Eu11 O30 2.394 . S
C12 C10 1.500 . S
C12 C13 1.377 . S
C12 C17 1.377 . S
C13 C12 1.377 . S
C13 C14 1.395 . S
C13 H36 0.931 . S
C14 C13 1.395 . S
C14 C15 1.383 . S
C14 H37 0.931 . S
C15 C14 1.383 . S
C15 C16 1.394 . S
C16 C15 1.394 . S
C16 C17 1.378 . S
C16 H38 0.931 . S
C17 C12 1.377 . S
C17 C16 1.378 . S
C17 H39 0.931 . S
C18 O28 1.259 . S
C18 O29 1.270 . S
C19 O30 1.251 . S
C19 O31 1.251 . S
O20 C0 1.257 . S
O20 Eu1 2.473 . S
O21 C0 1.260 . S
O21 Eu1 2.480 . S
O22 Eu1 2.430 . S
O22 C8 1.259 . S
O23 Eu1 2.670 . S
O23 C8 1.270 . S
O23 Eu11 2.355 . S
O24 Eu1 2.394 . S
O24 C9 1.251 . S
O25 C9 1.251 . S
O25 Eu11 2.374 . S
O26 C10 1.257 . S
O26 Eu11 2.473 . S
O27 C10 1.260 . S
O27 Eu11 2.480 . S
O28 Eu11 2.430 . S
O28 C18 1.259 . S
O29 Eu1 2.355 . S
O29 Eu11 2.670 . S
O29 C18 1.270 . S
O30 Eu11 2.394 . S
O30 C19 1.251 . S
O31 Eu1 2.374 . S
O31 C19 1.251 . S
H32 C3 0.931 . S
H33 C4 0.931 . S
H34 C6 0.931 . S
H35 C7 0.931 . S
H36 C13 0.931 . S
H37 C14 0.931 . S
H38 C16 0.931 . S
H39 C17 0.931 . S
C40 Eu41 2.835 . S
C40 C42 1.500 . S
C40 O60 1.257 . S
C40 O61 1.260 . S
Eu41 C40 2.835 . S
Eu41 O60 2.473 . S
Eu41 O61 2.480 . S
Eu41 O62 2.430 . S
Eu41 O63 2.670 . S
Eu41 O64 2.394 . S
Eu41 O69 2.355 . S
Eu41 O71 2.374 . S
C42 C40 1.500 . S
C42 C43 1.377 . S
C42 C47 1.377 . S
C43 C42 1.377 . S
C43 C44 1.395 . S
C43 H72 0.931 . S
C44 C43 1.395 . S
C44 C45 1.383 . S
C44 H73 0.931 . S
C45 C44 1.383 . S
C45 C46 1.394 . S
C46 C45 1.394 . S
C46 C47 1.378 . S
C46 H74 0.931 . S
C47 C42 1.377 . S
C47 C46 1.378 . S
C47 H75 0.931 . S
C48 O62 1.259 . S
C48 O63 1.270 . S
C49 O64 1.251 . S
C49 O65 1.251 . S
C50 Eu51 2.835 . S
C50 C52 1.500 . S
C50 O66 1.257 . S
C50 O67 1.260 . S
Eu51 C50 2.835 . S
Eu51 O63 2.355 . S
Eu51 O65 2.374 . S
Eu51 O66 2.473 . S
Eu51 O67 2.480 . S
Eu51 O68 2.430 . S
Eu51 O69 2.670 . S
Eu51 O70 2.394 . S
C52 C50 1.500 . S
C52 C53 1.377 . S
C52 C57 1.377 . S
C53 C52 1.377 . S
C53 C54 1.395 . S
C53 H76 0.931 . S
C54 C53 1.395 . S
C54 C55 1.383 . S
C54 H77 0.931 . S
C55 C54 1.383 . S
C55 C56 1.394 . S
C56 C55 1.394 . S
C56 C57 1.378 . S
C56 H78 0.931 . S
C57 C52 1.377 . S
C57 C56 1.378 . S
C57 H79 0.931 . S
C58 O68 1.259 . S
C58 O69 1.270 . S
C59 O70 1.251 . S
C59 O71 1.251 . S
O60 C40 1.257 . S
O60 Eu41 2.473 . S
O61 C40 1.260 . S
O61 Eu41 2.480 . S
O62 Eu41 2.430 . S
O62 C48 1.259 . S
O63 Eu41 2.670 . S
O63 C48 1.270 . S
O63 Eu51 2.355 . S
O64 Eu41 2.394 . S
O64 C49 1.251 . S
O65 C49 1.251 . S
O65 Eu51 2.374 . S
O66 C50 1.257 . S
O66 Eu51 2.473 . S
O67 C50 1.260 . S
O67 Eu51 2.480 . S
O68 Eu51 2.430 . S
O68 C58 1.259 . S
O69 Eu41 2.355 . S
O69 Eu51 2.670 . S
O69 C58 1.270 . S
O70 Eu51 2.394 . S
O70 C59 1.251 . S
O71 Eu41 2.374 . S
O71 C59 1.251 . S
H72 C43 0.931 . S
H73 C44 0.931 . S
H74 C46 0.931 . S
H75 C47 0.931 . S
H76 C53 0.931 . S
H77 C54 0.931 . S
H78 C56 0.931 . S
H79 C57 0.931 . S
C80 Eu81 2.835 1_455 S
C80 C82 1.500 . S
C80 O100 1.257 . S
C80 O101 1.260 . S
Eu81 C80 2.835 1_655 S
Eu81 O100 2.473 1_655 S
Eu81 O101 2.480 1_655 S
Eu81 O102 2.430 . S
Eu81 O103 2.670 . S
Eu81 O104 2.394 . S
Eu81 O109 2.355 . S
Eu81 O111 2.374 . S
C82 C80 1.500 . S
C82 C83 1.377 . S
C82 C87 1.377 . S
C83 C82 1.377 . S
C83 C84 1.395 . S
C83 H112 0.931 . S
C84 C83 1.395 . S
C84 C85 1.383 . S
C84 H113 0.931 . S
C85 C84 1.383 . S
C85 C86 1.394 . S
C86 C85 1.394 . S
C86 C87 1.378 . S
C86 H114 0.931 . S
C87 C82 1.377 . S
C87 C86 1.378 . S
C87 H115 0.931 . S
C88 O102 1.259 . S
C88 O103 1.270 . S
C89 O104 1.251 . S
C89 O105 1.251 . S
C90 Eu91 2.835 . S
C90 C92 1.500 . S
C90 O106 1.257 . S
C90 O107 1.260 . S
Eu91 C90 2.835 . S
Eu91 O103 2.355 . S
Eu91 O105 2.374 . S
Eu91 O106 2.473 . S
Eu91 O107 2.480 . S
Eu91 O108 2.430 . S
Eu91 O109 2.670 . S
Eu91 O110 2.394 . S
C92 C90 1.500 . S
C92 C93 1.377 . S
C92 C97 1.377 . S
C93 C92 1.377 . S
C93 C94 1.395 . S
C93 H116 0.931 . S
C94 C93 1.395 . S
C94 C95 1.383 . S
C94 H117 0.931 . S
C95 C94 1.383 . S
C95 C96 1.394 . S
C96 C95 1.394 . S
C96 C97 1.378 . S
C96 H118 0.931 . S
C97 C92 1.377 . S
C97 C96 1.378 . S
C97 H119 0.931 . S
C98 O108 1.259 . S
C98 O109 1.270 . S
C99 O110 1.251 . S
C99 O111 1.251 . S
O100 C80 1.257 . S
O100 Eu81 2.473 1_455 S
O101 C80 1.260 . S
O101 Eu81 2.480 1_455 S
O102 Eu81 2.430 . S
O102 C88 1.259 . S
O103 Eu81 2.670 . S
O103 C88 1.270 . S
O103 Eu91 2.355 . S
O104 Eu81 2.394 . S
O104 C89 1.251 . S
O105 C89 1.251 . S
O105 Eu91 2.374 . S
O106 C90 1.257 . S
O106 Eu91 2.473 . S
O107 C90 1.260 . S
O107 Eu91 2.480 . S
O108 Eu91 2.430 . S
O108 C98 1.259 . S
O109 Eu81 2.355 . S
O109 Eu91 2.670 . S
O109 C98 1.270 . S
O110 Eu91 2.394 . S
O110 C99 1.251 . S
O111 Eu81 2.374 . S
O111 C99 1.251 . S
H112 C83 0.931 . S
H113 C84 0.931 . S
H114 C86 0.931 . S
H115 C87 0.931 . S
H116 C93 0.931 . S
H117 C94 0.931 . S
H118 C96 0.931 . S
H119 C97 0.931 . S
C120 Eu121 2.835 1_545 S
C120 C122 1.500 . S
C120 O140 1.257 . S
C120 O141 1.260 . S
Eu121 C120 2.835 1_565 S
Eu121 O140 2.473 1_565 S
Eu121 O141 2.480 1_565 S
Eu121 O142 2.430 . S
Eu121 O143 2.670 . S
Eu121 O144 2.394 . S
Eu121 O149 2.355 . S
Eu121 O151 2.374 . S
C122 C120 1.500 . S
C122 C123 1.377 . S
C122 C127 1.377 . S
C123 C122 1.377 . S
C123 C124 1.395 . S
C123 H152 0.931 . S
C124 C123 1.395 . S
C124 C125 1.383 . S
C124 H153 0.931 . S
C125 C124 1.383 . S
C125 C126 1.394 . S
C126 C125 1.394 . S
C126 C127 1.378 . S
C126 H154 0.931 . S
C127 C122 1.377 . S
C127 C126 1.378 . S
C127 H155 0.931 . S
C128 O142 1.259 . S
C128 O143 1.270 . S
C129 O144 1.251 . S
C129 O145 1.251 . S
C130 Eu131 2.835 . S
C130 C132 1.500 . S
C130 O146 1.257 . S
C130 O147 1.260 . S
Eu131 C130 2.835 . S
Eu131 O143 2.355 . S
Eu131 O145 2.374 . S
Eu131 O146 2.473 . S
Eu131 O147 2.480 . S
Eu131 O148 2.430 . S
Eu131 O149 2.670 . S
Eu131 O150 2.394 . S
C132 C130 1.500 . S
C132 C133 1.377 . S
C132 C137 1.377 . S
C133 C132 1.377 . S
C133 C134 1.395 . S
C133 H156 0.931 . S
C134 C133 1.395 . S
C134 C135 1.383 . S
C134 H157 0.931 . S
C135 C134 1.383 . S
C135 C136 1.394 . S
C136 C135 1.394 . S
C136 C137 1.378 . S
C136 H158 0.931 . S
C137 C132 1.377 . S
C137 C136 1.378 . S
C137 H159 0.931 . S
C138 O148 1.259 . S
C138 O149 1.270 . S
C139 O150 1.251 . S
C139 O151 1.251 . S
O140 C120 1.257 . S
O140 Eu121 2.473 1_545 S
O141 C120 1.260 . S
O141 Eu121 2.480 1_545 S
O142 Eu121 2.430 . S
O142 C128 1.259 . S
O143 Eu121 2.670 . S
O143 C128 1.270 . S
O143 Eu131 2.355 . S
O144 Eu121 2.394 . S
O144 C129 1.251 . S
O145 C129 1.251 . S
O145 Eu131 2.374 . S
O146 C130 1.257 . S
O146 Eu131 2.473 . S
O147 C130 1.260 . S
O147 Eu131 2.480 . S
O148 Eu131 2.430 . S
O148 C138 1.259 . S
O149 Eu121 2.355 . S
O149 Eu131 2.670 . S
O149 C138 1.270 . S
O150 Eu131 2.394 . S
O150 C139 1.251 . S
O151 Eu121 2.374 . S
O151 C139 1.251 . S
H152 C123 0.931 . S
H153 C124 0.931 . S
H154 C126 0.931 . S
H155 C127 0.931 . S
H156 C133 0.931 . S
H157 C134 0.931 . S
H158 C136 0.931 . S
H159 C137 0.931 . S
C160 Eu161 2.835 1_655 S
C160 C162 1.500 . S
C160 O180 1.257 . S
C160 O181 1.260 . S
Eu161 C160 2.835 1_455 S
Eu161 O180 2.473 1_455 S
Eu161 O181 2.480 1_455 S
Eu161 O182 2.430 . S
Eu161 O183 2.670 . S
Eu161 O184 2.394 . S
Eu161 O189 2.355 . S
Eu161 O191 2.374 . S
C162 C160 1.500 . S
C162 C163 1.377 . S
C162 C167 1.377 . S
C163 C162 1.377 . S
C163 C164 1.395 . S
C163 H192 0.931 . S
C164 C163 1.395 . S
C164 C165 1.383 . S
C164 H193 0.931 . S
C165 C164 1.383 . S
C165 C166 1.394 . S
C166 C165 1.394 . S
C166 C167 1.378 . S
C166 H194 0.931 . S
C167 C162 1.377 . S
C167 C166 1.378 . S
C167 H195 0.931 . S
C168 O182 1.259 . S
C168 O183 1.270 . S
C169 O184 1.251 . S
C169 O185 1.251 . S
C170 Eu171 2.835 . S
C170 C172 1.500 . S
C170 O186 1.257 . S
C170 O187 1.260 . S
Eu171 C170 2.835 . S
Eu171 O183 2.355 . S
Eu171 O185 2.374 . S
Eu171 O186 2.473 . S
Eu171 O187 2.480 . S
Eu171 O188 2.430 . S
Eu171 O189 2.670 . S
Eu171 O190 2.394 . S
C172 C170 1.500 . S
C172 C173 1.377 . S
C172 C177 1.377 . S
C173 C172 1.377 . S
C173 C174 1.395 . S
C173 H196 0.931 . S
C174 C173 1.395 . S
C174 C175 1.383 . S
C174 H197 0.931 . S
C175 C174 1.383 . S
C175 C176 1.394 . S
C176 C175 1.394 . S
C176 C177 1.378 . S
C176 H198 0.931 . S
C177 C172 1.377 . S
C177 C176 1.378 . S
C177 H199 0.931 . S
C178 O188 1.259 . S
C178 O189 1.270 . S
C179 O190 1.251 . S
C179 O191 1.251 . S
O180 C160 1.257 . S
O180 Eu161 2.473 1_655 S
O181 C160 1.260 . S
O181 Eu161 2.480 1_655 S
O182 Eu161 2.430 . S
O182 C168 1.259 . S
O183 Eu161 2.670 . S
O183 C168 1.270 . S
O183 Eu171 2.355 . S
O184 Eu161 2.394 . S
O184 C169 1.251 . S
O185 C169 1.251 . S
O185 Eu171 2.374 . S
O186 C170 1.257 . S
O186 Eu171 2.473 . S
O187 C170 1.260 . S
O187 Eu171 2.480 . S
O188 Eu171 2.430 . S
O188 C178 1.259 . S
O189 Eu161 2.355 . S
O189 Eu171 2.670 . S
O189 C178 1.270 . S
O190 Eu171 2.394 . S
O190 C179 1.251 . S
O191 Eu161 2.374 . S
O191 C179 1.251 . S
H192 C163 0.931 . S
H193 C164 0.931 . S
H194 C166 0.931 . S
H195 C167 0.931 . S
H196 C173 0.931 . S
H197 C174 0.931 . S
H198 C176 0.931 . S
H199 C177 0.931 . S
C200 Eu201 2.835 1_565 S
C200 C202 1.500 . S
C200 O220 1.257 . S
C200 O221 1.260 . S
Eu201 C200 2.835 1_545 S
Eu201 O220 2.473 1_545 S
Eu201 O221 2.480 1_545 S
Eu201 O222 2.430 . S
Eu201 O223 2.670 . S
Eu201 O224 2.394 . S
Eu201 O229 2.355 . S
Eu201 O231 2.374 . S
C202 C200 1.500 . S
C202 C203 1.377 . S
C202 C207 1.377 . S
C203 C202 1.377 . S
C203 C204 1.395 . S
C203 H232 0.931 . S
C204 C203 1.395 . S
C204 C205 1.383 . S
C204 H233 0.931 . S
C205 C204 1.383 . S
C205 C206 1.394 . S
C206 C205 1.394 . S
C206 C207 1.378 . S
C206 H234 0.931 . S
C207 C202 1.377 . S
C207 C206 1.378 . S
C207 H235 0.931 . S
C208 O222 1.259 . S
C208 O223 1.270 . S
C209 O224 1.251 . S
C209 O225 1.251 . S
C210 Eu211 2.835 . S
C210 C212 1.500 . S
C210 O226 1.257 . S
C210 O227 1.260 . S
Eu211 C210 2.835 . S
Eu211 O223 2.355 . S
Eu211 O225 2.374 . S
Eu211 O226 2.473 . S
Eu211 O227 2.480 . S
Eu211 O228 2.430 . S
Eu211 O229 2.670 . S
Eu211 O230 2.394 . S
C212 C210 1.500 . S
C212 C213 1.377 . S
C212 C217 1.377 . S
C213 C212 1.377 . S
C213 C214 1.395 . S
C213 H236 0.931 . S
C214 C213 1.395 . S
C214 C215 1.383 . S
C214 H237 0.931 . S
C215 C214 1.383 . S
C215 C216 1.394 . S
C216 C215 1.394 . S
C216 C217 1.378 . S
C216 H238 0.931 . S
C217 C212 1.377 . S
C217 C216 1.378 . S
C217 H239 0.931 . S
C218 O228 1.259 . S
C218 O229 1.270 . S
C219 O230 1.251 . S
C219 O231 1.251 . S
O220 C200 1.257 . S
O220 Eu201 2.473 1_565 S
O221 C200 1.260 . S
O221 Eu201 2.480 1_565 S
O222 Eu201 2.430 . S
O222 C208 1.259 . S
O223 Eu201 2.670 . S
O223 C208 1.270 . S
O223 Eu211 2.355 . S
O224 Eu201 2.394 . S
O224 C209 1.251 . S
O225 C209 1.251 . S
O225 Eu211 2.374 . S
O226 C210 1.257 . S
O226 Eu211 2.473 . S
O227 C210 1.260 . S
O227 Eu211 2.480 . S
O228 Eu211 2.430 . S
O228 C218 1.259 . S
O229 Eu201 2.355 . S
O229 Eu211 2.670 . S
O229 C218 1.270 . S
O230 Eu211 2.394 . S
O230 C219 1.251 . S
O231 Eu201 2.374 . S
O231 C219 1.251 . S
H232 C203 0.931 . S
H233 C204 0.931 . S
H234 C206 0.931 . S
H235 C207 0.931 . S
H236 C213 0.931 . S
H237 C214 0.931 . S
H238 C216 0.931 . S
H239 C217 0.931 . S
C240 Eu241 2.835 . S
C240 C242 1.500 . S
C240 O260 1.257 . S
C240 O261 1.260 . S
Eu241 C240 2.835 . S
Eu241 O260 2.473 . S
Eu241 O261 2.480 . S
Eu241 O262 2.430 . S
Eu241 O263 2.670 . S
Eu241 O264 2.394 . S
Eu241 O269 2.355 . S
Eu241 O271 2.374 . S
C242 C240 1.500 . S
C242 C243 1.377 . S
C242 C247 1.377 . S
C243 C242 1.377 . S
C243 C244 1.395 . S
C243 H272 0.931 . S
C244 C243 1.395 . S
C244 C245 1.383 . S
C244 H273 0.931 . S
C245 C244 1.383 . S
C245 C246 1.394 . S
C246 C245 1.394 . S
C246 C247 1.378 . S
C246 H274 0.931 . S
C247 C242 1.377 . S
C247 C246 1.378 . S
C247 H275 0.931 . S
C248 O262 1.259 . S
C248 O263 1.270 . S
C249 O264 1.251 . S
C249 O265 1.251 . S
C250 Eu251 2.835 . S
C250 C252 1.500 . S
C250 O266 1.257 . S
C250 O267 1.260 . S
Eu251 C250 2.835 . S
Eu251 O263 2.355 . S
Eu251 O265 2.374 . S
Eu251 O266 2.473 . S
Eu251 O267 2.480 . S
Eu251 O268 2.430 . S
Eu251 O269 2.670 . S
Eu251 O270 2.394 . S
C252 C250 1.500 . S
C252 C253 1.377 . S
C252 C257 1.377 . S
C253 C252 1.377 . S
C253 C254 1.395 . S
C253 H276 0.931 . S
C254 C253 1.395 . S
C254 C255 1.383 . S
C254 H277 0.931 . S
C255 C254 1.383 . S
C255 C256 1.394 . S
C256 C255 1.394 . S
C256 C257 1.378 . S
C256 H278 0.931 . S
C257 C252 1.377 . S
C257 C256 1.378 . S
C257 H279 0.931 . S
C258 O268 1.259 . S
C258 O269 1.270 . S
C259 O270 1.251 . S
C259 O271 1.251 . S
O260 C240 1.257 . S
O260 Eu241 2.473 . S
O261 C240 1.260 . S
O261 Eu241 2.480 . S
O262 Eu241 2.430 . S
O262 C248 1.259 . S
O263 Eu241 2.670 . S
O263 C248 1.270 . S
O263 Eu251 2.355 . S
O264 Eu241 2.394 . S
O264 C249 1.251 . S
O265 C249 1.251 . S
O265 Eu251 2.374 . S
O266 C250 1.257 . S
O266 Eu251 2.473 . S
O267 C250 1.260 . S
O267 Eu251 2.480 . S
O268 Eu251 2.430 . S
O268 C258 1.259 . S
O269 Eu241 2.355 . S
O269 Eu251 2.670 . S
O269 C258 1.270 . S
O270 Eu251 2.394 . S
O270 C259 1.251 . S
O271 Eu241 2.374 . S
O271 C259 1.251 . S
H272 C243 0.931 . S
H273 C244 0.931 . S
H274 C246 0.931 . S
H275 C247 0.931 . S
H276 C253 0.931 . S
H277 C254 0.931 . S
H278 C256 0.931 . S
H279 C257 0.931 . S
C280 Eu281 2.835 . S
C280 C282 1.500 . S
C280 O300 1.257 . S
C280 O301 1.260 . S
Eu281 C280 2.835 . S
Eu281 O300 2.473 . S
Eu281 O301 2.480 . S
Eu281 O302 2.430 . S
Eu281 O303 2.670 . S
Eu281 O304 2.394 . S
Eu281 O309 2.355 . S
Eu281 O311 2.374 . S
C282 C280 1.500 . S
C282 C283 1.377 . S
C282 C287 1.377 . S
C283 C282 1.377 . S
C283 C284 1.395 . S
C283 H312 0.931 . S
C284 C283 1.395 . S
C284 C285 1.383 . S
C284 H313 0.931 . S
C285 C284 1.383 . S
C285 C286 1.394 . S
C286 C285 1.394 . S
C286 C287 1.378 . S
C286 H314 0.931 . S
C287 C282 1.377 . S
C287 C286 1.378 . S
C287 H315 0.931 . S
C288 O302 1.259 . S
C288 O303 1.270 . S
C289 O304 1.251 . S
C289 O305 1.251 . S
C290 Eu291 2.835 . S
C290 C292 1.500 . S
C290 O306 1.257 . S
C290 O307 1.260 . S
Eu291 C290 2.835 . S
Eu291 O303 2.355 . S
Eu291 O305 2.374 . S
Eu291 O306 2.473 . S
Eu291 O307 2.480 . S
Eu291 O308 2.430 . S
Eu291 O309 2.670 . S
Eu291 O310 2.394 . S
C292 C290 1.500 . S
C292 C293 1.377 . S
C292 C297 1.377 . S
C293 C292 1.377 . S
C293 C294 1.395 . S
C293 H316 0.931 . S
C294 C293 1.395 . S
C294 C295 1.383 . S
C294 H317 0.931 . S
C295 C294 1.383 . S
C295 C296 1.394 . S
C296 C295 1.394 . S
C296 C297 1.378 . S
C296 H318 0.931 . S
C297 C292 1.377 . S
C297 C296 1.378 . S
C297 H319 0.931 . S
C298 O308 1.259 . S
C298 O309 1.270 . S
C299 O310 1.251 . S
C299 O311 1.251 . S
O300 C280 1.257 . S
O300 Eu281 2.473 . S
O301 C280 1.260 . S
O301 Eu281 2.480 . S
O302 Eu281 2.430 . S
O302 C288 1.259 . S
O303 Eu281 2.670 . S
O303 C288 1.270 . S
O303 Eu291 2.355 . S
O304 Eu281 2.394 . S
O304 C289 1.251 . S
O305 C289 1.251 . S
O305 Eu291 2.374 . S
O306 C290 1.257 . S
O306 Eu291 2.473 . S
O307 C290 1.260 . S
O307 Eu291 2.480 . S
O308 Eu291 2.430 . S
O308 C298 1.259 . S
O309 Eu281 2.355 . S
O309 Eu291 2.670 . S
O309 C298 1.270 . S
O310 Eu291 2.394 . S
O310 C299 1.251 . S
O311 Eu281 2.374 . S
O311 C299 1.251 . S
H312 C283 0.931 . S
H313 C284 0.931 . S
H314 C286 0.931 . S
H315 C287 0.931 . S
H316 C293 0.931 . S
H317 C294 0.931 . S
H318 C296 0.931 . S
H319 C297 0.931 . S
C320 Eu321 2.835 . S
C320 C322 1.500 . S
C320 O340 1.257 . S
C320 O341 1.260 . S
Eu321 C320 2.835 . S
Eu321 O340 2.473 . S
Eu321 O341 2.480 . S
Eu321 O342 2.430 . S
Eu321 O343 2.670 . S
Eu321 O344 2.394 . S
Eu321 O349 2.355 . S
Eu321 O351 2.374 . S
C322 C320 1.500 . S
C322 C323 1.377 . S
C322 C327 1.377 . S
C323 C322 1.377 . S
C323 C324 1.395 . S
C323 H352 0.931 . S
C324 C323 1.395 . S
C324 C325 1.383 . S
C324 H353 0.931 . S
C325 C324 1.383 . S
C325 C326 1.394 . S
C326 C325 1.394 . S
C326 C327 1.378 . S
C326 H354 0.931 . S
C327 C322 1.377 . S
C327 C326 1.378 . S
C327 H355 0.931 . S
C328 O342 1.259 . S
C328 O343 1.270 . S
C329 O344 1.251 . S
C329 O345 1.251 . S
C330 Eu331 2.835 . S
C330 C332 1.500 . S
C330 O346 1.257 . S
C330 O347 1.260 . S
Eu331 C330 2.835 . S
Eu331 O343 2.355 . S
Eu331 O345 2.374 . S
Eu331 O346 2.473 . S
Eu331 O347 2.480 . S
Eu331 O348 2.430 . S
Eu331 O349 2.670 . S
Eu331 O350 2.394 . S
C332 C330 1.500 . S
C332 C333 1.377 . S
C332 C337 1.377 . S
C333 C332 1.377 . S
C333 C334 1.395 . S
C333 H356 0.931 . S
C334 C333 1.395 . S
C334 C335 1.383 . S
C334 H357 0.931 . S
C335 C334 1.383 . S
C335 C336 1.394 . S
C336 C335 1.394 . S
C336 C337 1.378 . S
C336 H358 0.931 . S
C337 C332 1.377 . S
C337 C336 1.378 . S
C337 H359 0.931 . S
C338 O348 1.259 . S
C338 O349 1.270 . S
C339 O350 1.251 . S
C339 O351 1.251 . S
O340 C320 1.257 . S
O340 Eu321 2.473 . S
O341 C320 1.260 . S
O341 Eu321 2.480 . S
O342 Eu321 2.430 . S
O342 C328 1.259 . S
O343 Eu321 2.670 . S
O343 C328 1.270 . S
O343 Eu331 2.355 . S
O344 Eu321 2.394 . S
O344 C329 1.251 . S
O345 C329 1.251 . S
O345 Eu331 2.374 . S
O346 C330 1.257 . S
O346 Eu331 2.473 . S
O347 C330 1.260 . S
O347 Eu331 2.480 . S
O348 Eu331 2.430 . S
O348 C338 1.259 . S
O349 Eu321 2.355 . S
O349 Eu331 2.670 . S
O349 C338 1.270 . S
O350 Eu331 2.394 . S
O350 C339 1.251 . S
O351 Eu321 2.374 . S
O351 C339 1.251 . S
H352 C323 0.931 . S
H353 C324 0.931 . S
H354 C326 0.931 . S
H355 C327 0.931 . S
H356 C333 0.931 . S
H357 C334 0.931 . S
H358 C336 0.931 . S
H359 C337 0.931 . S
C360 Eu361 2.835 . S
C360 C362 1.500 . S
C360 O380 1.257 . S
C360 O381 1.260 . S
Eu361 C360 2.835 . S
Eu361 O380 2.473 . S
Eu361 O381 2.480 . S
Eu361 O382 2.430 . S
Eu361 O383 2.670 . S
Eu361 O384 2.394 . S
Eu361 O389 2.355 . S
Eu361 O391 2.374 . S
C362 C360 1.500 . S
C362 C363 1.377 . S
C362 C367 1.377 . S
C363 C362 1.377 . S
C363 C364 1.395 . S
C363 H392 0.931 . S
C364 C363 1.395 . S
C364 C365 1.383 . S
C364 H393 0.931 . S
C365 C364 1.383 . S
C365 C366 1.394 . S
C366 C365 1.394 . S
C366 C367 1.378 . S
C366 H394 0.931 . S
C367 C362 1.377 . S
C367 C366 1.378 . S
C367 H395 0.931 . S
C368 O382 1.259 . S
C368 O383 1.270 . S
C369 O384 1.251 . S
C369 O385 1.251 . S
C370 Eu371 2.835 . S
C370 C372 1.500 . S
C370 O386 1.257 . S
C370 O387 1.260 . S
Eu371 C370 2.835 . S
Eu371 O383 2.355 . S
Eu371 O385 2.374 . S
Eu371 O386 2.473 . S
Eu371 O387 2.480 . S
Eu371 O388 2.430 . S
Eu371 O389 2.670 . S
Eu371 O390 2.394 . S
C372 C370 1.500 . S
C372 C373 1.377 . S
C372 C377 1.377 . S
C373 C372 1.377 . S
C373 C374 1.395 . S
C373 H396 0.931 . S
C374 C373 1.395 . S
C374 C375 1.383 . S
C374 H397 0.931 . S
C375 C374 1.383 . S
C375 C376 1.394 . S
C376 C375 1.394 . S
C376 C377 1.378 . S
C376 H398 0.931 . S
C377 C372 1.377 . S
C377 C376 1.378 . S
C377 H399 0.931 . S
C378 O388 1.259 . S
C378 O389 1.270 . S
C379 O390 1.251 . S
C379 O391 1.251 . S
O380 C360 1.257 . S
O380 Eu361 2.473 . S
O381 C360 1.260 . S
O381 Eu361 2.480 . S
O382 Eu361 2.430 . S
O382 C368 1.259 . S
O383 Eu361 2.670 . S
O383 C368 1.270 . S
O383 Eu371 2.355 . S
O384 Eu361 2.394 . S
O384 C369 1.251 . S
O385 C369 1.251 . S
O385 Eu371 2.374 . S
O386 C370 1.257 . S
O386 Eu371 2.473 . S
O387 C370 1.260 . S
O387 Eu371 2.480 . S
O388 Eu371 2.430 . S
O388 C378 1.259 . S
O389 Eu361 2.355 . S
O389 Eu371 2.670 . S
O389 C378 1.270 . S
O390 Eu371 2.394 . S
O390 C379 1.251 . S
O391 Eu361 2.374 . S
O391 C379 1.251 . S
H392 C363 0.931 . S
H393 C364 0.931 . S
H394 C366 0.931 . S
H395 C367 0.931 . S
H396 C373 0.931 . S
H397 C374 0.931 . S
H398 C376 0.931 . S
H399 C377 0.931 . S
C400 Eu401 2.835 . S
C400 C402 1.500 . S
C400 O420 1.257 . S
C400 O421 1.260 . S
Eu401 C400 2.835 . S
Eu401 O420 2.473 . S
Eu401 O421 2.480 . S
Eu401 O422 2.430 . S
Eu401 O423 2.670 . S
Eu401 O424 2.394 . S
Eu401 O429 2.355 . S
Eu401 O431 2.374 . S
C402 C400 1.500 . S
C402 C403 1.377 . S
C402 C407 1.377 . S
C403 C402 1.377 . S
C403 C404 1.395 . S
C403 H432 0.931 . S
C404 C403 1.395 . S
C404 C405 1.383 . S
C404 H433 0.931 . S
C405 C404 1.383 . S
C405 C406 1.394 . S
C406 C405 1.394 . S
C406 C407 1.378 . S
C406 H434 0.931 . S
C407 C402 1.377 . S
C407 C406 1.378 . S
C407 H435 0.931 . S
C408 O422 1.259 . S
C408 O423 1.270 . S
C409 O424 1.251 . S
C409 O425 1.251 . S
C410 Eu411 2.835 1_655 S
C410 C412 1.500 . S
C410 O426 1.257 . S
C410 O427 1.260 . S
Eu411 C410 2.835 1_455 S
Eu411 O423 2.355 . S
Eu411 O425 2.374 . S
Eu411 O426 2.473 1_455 S
Eu411 O427 2.480 1_455 S
Eu411 O428 2.430 . S
Eu411 O429 2.670 . S
Eu411 O430 2.394 . S
C412 C410 1.500 . S
C412 C413 1.377 . S
C412 C417 1.377 . S
C413 C412 1.377 . S
C413 C414 1.395 . S
C413 H436 0.931 . S
C414 C413 1.395 . S
C414 C415 1.383 . S
C414 H437 0.931 . S
C415 C414 1.383 . S
C415 C416 1.394 . S
C416 C415 1.394 . S
C416 C417 1.378 . S
C416 H438 0.931 . S
C417 C412 1.377 . S
C417 C416 1.378 . S
C417 H439 0.931 . S
C418 O428 1.259 . S
C418 O429 1.270 . S
C419 O430 1.251 . S
C419 O431 1.251 . S
O420 C400 1.257 . S
O420 Eu401 2.473 . S
O421 C400 1.260 . S
O421 Eu401 2.480 . S
O422 Eu401 2.430 . S
O422 C408 1.259 . S
O423 Eu401 2.670 . S
O423 C408 1.270 . S
O423 Eu411 2.355 . S
O424 Eu401 2.394 . S
O424 C409 1.251 . S
O425 C409 1.251 . S
O425 Eu411 2.374 . S
O426 C410 1.257 . S
O426 Eu411 2.473 1_655 S
O427 C410 1.260 . S
O427 Eu411 2.480 1_655 S
O428 Eu411 2.430 . S
O428 C418 1.259 . S
O429 Eu401 2.355 . S
O429 Eu411 2.670 . S
O429 C418 1.270 . S
O430 Eu411 2.394 . S
O430 C419 1.251 . S
O431 Eu401 2.374 . S
O431 C419 1.251 . S
H432 C403 0.931 . S
H433 C404 0.931 . S
H434 C406 0.931 . S
H435 C407 0.931 . S
H436 C413 0.931 . S
H437 C414 0.931 . S
H438 C416 0.931 . S
H439 C417 0.931 . S
C440 Eu441 2.835 . S
C440 C442 1.500 . S
C440 O460 1.257 . S
C440 O461 1.260 . S
Eu441 C440 2.835 . S
Eu441 O460 2.473 . S
Eu441 O461 2.480 . S
Eu441 O462 2.430 . S
Eu441 O463 2.670 . S
Eu441 O464 2.394 . S
Eu441 O469 2.355 . S
Eu441 O471 2.374 . S
C442 C440 1.500 . S
C442 C443 1.377 . S
C442 C447 1.377 . S
C443 C442 1.377 . S
C443 C444 1.395 . S
C443 H472 0.931 . S
C444 C443 1.395 . S
C444 C445 1.383 . S
C444 H473 0.931 . S
C445 C444 1.383 . S
C445 C446 1.394 . S
C446 C445 1.394 . S
C446 C447 1.378 . S
C446 H474 0.931 . S
C447 C442 1.377 . S
C447 C446 1.378 . S
C447 H475 0.931 . S
C448 O462 1.259 . S
C448 O463 1.270 . S
C449 O464 1.251 . S
C449 O465 1.251 . S
C450 Eu451 2.835 1_565 S
C450 C452 1.500 . S
C450 O466 1.257 . S
C450 O467 1.260 . S
Eu451 C450 2.835 1_545 S
Eu451 O463 2.355 . S
Eu451 O465 2.374 . S
Eu451 O466 2.473 1_545 S
Eu451 O467 2.480 1_545 S
Eu451 O468 2.430 . S
Eu451 O469 2.670 . S
Eu451 O470 2.394 . S
C452 C450 1.500 . S
C452 C453 1.377 . S
C452 C457 1.377 . S
C453 C452 1.377 . S
C453 C454 1.395 . S
C453 H476 0.931 . S
C454 C453 1.395 . S
C454 C455 1.383 . S
C454 H477 0.931 . S
C455 C454 1.383 . S
C455 C456 1.394 . S
C456 C455 1.394 . S
C456 C457 1.378 . S
C456 H478 0.931 . S
C457 C452 1.377 . S
C457 C456 1.378 . S
C457 H479 0.931 . S
C458 O468 1.259 . S
C458 O469 1.270 . S
C459 O470 1.251 . S
C459 O471 1.251 . S
O460 C440 1.257 . S
O460 Eu441 2.473 . S
O461 C440 1.260 . S
O461 Eu441 2.480 . S
O462 Eu441 2.430 . S
O462 C448 1.259 . S
O463 Eu441 2.670 . S
O463 C448 1.270 . S
O463 Eu451 2.355 . S
O464 Eu441 2.394 . S
O464 C449 1.251 . S
O465 C449 1.251 . S
O465 Eu451 2.374 . S
O466 C450 1.257 . S
O466 Eu451 2.473 1_565 S
O467 C450 1.260 . S
O467 Eu451 2.480 1_565 S
O468 Eu451 2.430 . S
O468 C458 1.259 . S
O469 Eu441 2.355 . S
O469 Eu451 2.670 . S
O469 C458 1.270 . S
O470 Eu451 2.394 . S
O470 C459 1.251 . S
O471 Eu441 2.374 . S
O471 C459 1.251 . S
H472 C443 0.931 . S
H473 C444 0.931 . S
H474 C446 0.931 . S
H475 C447 0.931 . S
H476 C453 0.931 . S
H477 C454 0.931 . S
H478 C456 0.931 . S
H479 C457 0.931 . S
C480 Eu481 2.835 . S
C480 C482 1.500 . S
C480 O500 1.257 . S
C480 O501 1.260 . S
Eu481 C480 2.835 . S
Eu481 O500 2.473 . S
Eu481 O501 2.480 . S
Eu481 O502 2.430 . S
Eu481 O503 2.670 . S
Eu481 O504 2.394 . S
Eu481 O509 2.355 . S
Eu481 O511 2.374 . S
C482 C480 1.500 . S
C482 C483 1.377 . S
C482 C487 1.377 . S
C483 C482 1.377 . S
C483 C484 1.395 . S
C483 H512 0.931 . S
C484 C483 1.395 . S
C484 C485 1.383 . S
C484 H513 0.931 . S
C485 C484 1.383 . S
C485 C486 1.394 . S
C486 C485 1.394 . S
C486 C487 1.378 . S
C486 H514 0.931 . S
C487 C482 1.377 . S
C487 C486 1.378 . S
C487 H515 0.931 . S
C488 O502 1.259 . S
C488 O503 1.270 . S
C489 O504 1.251 . S
C489 O505 1.251 . S
C490 Eu491 2.835 1_455 S
C490 C492 1.500 . S
C490 O506 1.257 . S
C490 O507 1.260 . S
Eu491 C490 2.835 1_655 S
Eu491 O503 2.355 . S
Eu491 O505 2.374 . S
Eu491 O506 2.473 1_655 S
Eu491 O507 2.480 1_655 S
Eu491 O508 2.430 . S
Eu491 O509 2.670 . S
Eu491 O510 2.394 . S
C492 C490 1.500 . S
C492 C493 1.377 . S
C492 C497 1.377 . S
C493 C492 1.377 . S
C493 C494 1.395 . S
C493 H516 0.931 . S
C494 C493 1.395 . S
C494 C495 1.383 . S
C494 H517 0.931 . S
C495 C494 1.383 . S
C495 C496 1.394 . S
C496 C495 1.394 . S
C496 C497 1.378 . S
C496 H518 0.931 . S
C497 C492 1.377 . S
C497 C496 1.378 . S
C497 H519 0.931 . S
C498 O508 1.259 . S
C498 O509 1.270 . S
C499 O510 1.251 . S
C499 O511 1.251 . S
O500 C480 1.257 . S
O500 Eu481 2.473 . S
O501 C480 1.260 . S
O501 Eu481 2.480 . S
O502 Eu481 2.430 . S
O502 C488 1.259 . S
O503 Eu481 2.670 . S
O503 C488 1.270 . S
O503 Eu491 2.355 . S
O504 Eu481 2.394 . S
O504 C489 1.251 . S
O505 C489 1.251 . S
O505 Eu491 2.374 . S
O506 C490 1.257 . S
O506 Eu491 2.473 1_455 S
O507 C490 1.260 . S
O507 Eu491 2.480 1_455 S
O508 Eu491 2.430 . S
O508 C498 1.259 . S
O509 Eu481 2.355 . S
O509 Eu491 2.670 . S
O509 C498 1.270 . S
O510 Eu491 2.394 . S
O510 C499 1.251 . S
O511 Eu481 2.374 . S
O511 C499 1.251 . S
H512 C483 0.931 . S
H513 C484 0.931 . S
H514 C486 0.931 . S
H515 C487 0.931 . S
H516 C493 0.931 . S
H517 C494 0.931 . S
H518 C496 0.931 . S
H519 C497 0.931 . S
C520 Eu521 2.835 . S
C520 C522 1.500 . S
C520 O540 1.257 . S
C520 O541 1.260 . S
Eu521 C520 2.835 . S
Eu521 O540 2.473 . S
Eu521 O541 2.480 . S
Eu521 O542 2.430 . S
Eu521 O543 2.670 . S
Eu521 O544 2.394 . S
Eu521 O549 2.355 . S
Eu521 O551 2.374 . S
C522 C520 1.500 . S
C522 C523 1.377 . S
C522 C527 1.377 . S
C523 C522 1.377 . S
C523 C524 1.395 . S
C523 H552 0.931 . S
C524 C523 1.395 . S
C524 C525 1.383 . S
C524 H553 0.931 . S
C525 C524 1.383 . S
C525 C526 1.394 . S
C526 C525 1.394 . S
C526 C527 1.378 . S
C526 H554 0.931 . S
C527 C522 1.377 . S
C527 C526 1.378 . S
C527 H555 0.931 . S
C528 O542 1.259 . S
C528 O543 1.270 . S
C529 O544 1.251 . S
C529 O545 1.251 . S
C530 Eu531 2.835 1_545 S
C530 C532 1.500 . S
C530 O546 1.257 . S
C530 O547 1.260 . S
Eu531 C530 2.835 1_565 S
Eu531 O543 2.355 . S
Eu531 O545 2.374 . S
Eu531 O546 2.473 1_565 S
Eu531 O547 2.480 1_565 S
Eu531 O548 2.430 . S
Eu531 O549 2.670 . S
Eu531 O550 2.394 . S
C532 C530 1.500 . S
C532 C533 1.377 . S
C532 C537 1.377 . S
C533 C532 1.377 . S
C533 C534 1.395 . S
C533 H556 0.931 . S
C534 C533 1.395 . S
C534 C535 1.383 . S
C534 H557 0.931 . S
C535 C534 1.383 . S
C535 C536 1.394 . S
C536 C535 1.394 . S
C536 C537 1.378 . S
C536 H558 0.931 . S
C537 C532 1.377 . S
C537 C536 1.378 . S
C537 H559 0.931 . S
C538 O548 1.259 . S
C538 O549 1.270 . S
C539 O550 1.251 . S
C539 O551 1.251 . S
O540 C520 1.257 . S
O540 Eu521 2.473 . S
O541 C520 1.260 . S
O541 Eu521 2.480 . S
O542 Eu521 2.430 . S
O542 C528 1.259 . S
O543 Eu521 2.670 . S
O543 C528 1.270 . S
O543 Eu531 2.355 . S
O544 Eu521 2.394 . S
O544 C529 1.251 . S
O545 C529 1.251 . S
O545 Eu531 2.374 . S
O546 C530 1.257 . S
O546 Eu531 2.473 1_545 S
O547 C530 1.260 . S
O547 Eu531 2.480 1_545 S
O548 Eu531 2.430 . S
O548 C538 1.259 . S
O549 Eu521 2.355 . S
O549 Eu531 2.670 . S
O549 C538 1.270 . S
O550 Eu531 2.394 . S
O550 C539 1.251 . S
O551 Eu521 2.374 . S
O551 C539 1.251 . S
H552 C523 0.931 . S
H553 C524 0.931 . S
H554 C526 0.931 . S
H555 C527 0.931 . S
H556 C533 0.931 . S
H557 C534 0.931 . S
H558 C536 0.931 . S
H559 C537 0.931 . S
C560 Eu561 2.835 . S
C560 C562 1.500 . S
C560 O580 1.257 . S
C560 O581 1.260 . S
Eu561 C560 2.835 . S
Eu561 O580 2.473 . S
Eu561 O581 2.480 . S
Eu561 O582 2.430 . S
Eu561 O583 2.670 . S
Eu561 O584 2.394 . S
Eu561 O589 2.355 . S
Eu561 O591 2.374 . S
C562 C560 1.500 . S
C562 C563 1.377 . S
C562 C567 1.377 . S
C563 C562 1.377 . S
C563 C564 1.395 . S
C563 H592 0.931 . S
C564 C563 1.395 . S
C564 C565 1.383 . S
C564 H593 0.931 . S
C565 C564 1.383 . S
C565 C566 1.394 . S
C566 C565 1.394 . S
C566 C567 1.378 . S
C566 H594 0.931 . S
C567 C562 1.377 . S
C567 C566 1.378 . S
C567 H595 0.931 . S
C568 O582 1.259 . S
C568 O583 1.270 . S
C569 O584 1.251 . S
C569 O585 1.251 . S
C570 Eu571 2.835 . S
C570 C572 1.500 . S
C570 O586 1.257 . S
C570 O587 1.260 . S
Eu571 C570 2.835 . S
Eu571 O583 2.355 . S
Eu571 O585 2.374 . S
Eu571 O586 2.473 . S
Eu571 O587 2.480 . S
Eu571 O588 2.430 . S
Eu571 O589 2.670 . S
Eu571 O590 2.394 . S
C572 C570 1.500 . S
C572 C573 1.377 . S
C572 C577 1.377 . S
C573 C572 1.377 . S
C573 C574 1.395 . S
C573 H596 0.931 . S
C574 C573 1.395 . S
C574 C575 1.383 . S
C574 H597 0.931 . S
C575 C574 1.383 . S
C575 C576 1.394 . S
C576 C575 1.394 . S
C576 C577 1.378 . S
C576 H598 0.931 . S
C577 C572 1.377 . S
C577 C576 1.378 . S
C577 H599 0.931 . S
C578 O588 1.259 . S
C578 O589 1.270 . S
C579 O590 1.251 . S
C579 O591 1.251 . S
O580 C560 1.257 . S
O580 Eu561 2.473 . S
O581 C560 1.260 . S
O581 Eu561 2.480 . S
O582 Eu561 2.430 . S
O582 C568 1.259 . S
O583 Eu561 2.670 . S
O583 C568 1.270 . S
O583 Eu571 2.355 . S
O584 Eu561 2.394 . S
O584 C569 1.251 . S
O585 C569 1.251 . S
O585 Eu571 2.374 . S
O586 C570 1.257 . S
O586 Eu571 2.473 . S
O587 C570 1.260 . S
O587 Eu571 2.480 . S
O588 Eu571 2.430 . S
O588 C578 1.259 . S
O589 Eu561 2.355 . S
O589 Eu571 2.670 . S
O589 C578 1.270 . S
O590 Eu571 2.394 . S
O590 C579 1.251 . S
O591 Eu561 2.374 . S
O591 C579 1.251 . S
H592 C563 0.931 . S
H593 C564 0.931 . S
H594 C566 0.931 . S
H595 C567 0.931 . S
H596 C573 0.931 . S
H597 C574 0.931 . S
H598 C576 0.931 . S
H599 C577 0.931 . S
C600 Eu601 2.835 . S
C600 C602 1.500 . S
C600 O620 1.257 . S
C600 O621 1.260 . S
Eu601 C600 2.835 . S
Eu601 O620 2.473 . S
Eu601 O621 2.480 . S
Eu601 O622 2.430 . S
Eu601 O623 2.670 . S
Eu601 O624 2.394 . S
Eu601 O629 2.355 . S
Eu601 O631 2.374 . S
C602 C600 1.500 . S
C602 C603 1.377 . S
C602 C607 1.377 . S
C603 C602 1.377 . S
C603 C604 1.395 . S
C603 H632 0.931 . S
C604 C603 1.395 . S
C604 C605 1.383 . S
C604 H633 0.931 . S
C605 C604 1.383 . S
C605 C606 1.394 . S
C606 C605 1.394 . S
C606 C607 1.378 . S
C606 H634 0.931 . S
C607 C602 1.377 . S
C607 C606 1.378 . S
C607 H635 0.931 . S
C608 O622 1.259 . S
C608 O623 1.270 . S
C609 O624 1.251 . S
C609 O625 1.251 . S
C610 Eu611 2.835 . S
C610 C612 1.500 . S
C610 O626 1.257 . S
C610 O627 1.260 . S
Eu611 C610 2.835 . S
Eu611 O623 2.355 . S
Eu611 O625 2.374 . S
Eu611 O626 2.473 . S
Eu611 O627 2.480 . S
Eu611 O628 2.430 . S
Eu611 O629 2.670 . S
Eu611 O630 2.394 . S
C612 C610 1.500 . S
C612 C613 1.377 . S
C612 C617 1.377 . S
C613 C612 1.377 . S
C613 C614 1.395 . S
C613 H636 0.931 . S
C614 C613 1.395 . S
C614 C615 1.383 . S
C614 H637 0.931 . S
C615 C614 1.383 . S
C615 C616 1.394 . S
C616 C615 1.394 . S
C616 C617 1.378 . S
C616 H638 0.931 . S
C617 C612 1.377 . S
C617 C616 1.378 . S
C617 H639 0.931 . S
C618 O628 1.259 . S
C618 O629 1.270 . S
C619 O630 1.251 . S
C619 O631 1.251 . S
O620 C600 1.257 . S
O620 Eu601 2.473 . S
O621 C600 1.260 . S
O621 Eu601 2.480 . S
O622 Eu601 2.430 . S
O622 C608 1.259 . S
O623 Eu601 2.670 . S
O623 C608 1.270 . S
O623 Eu611 2.355 . S
O624 Eu601 2.394 . S
O624 C609 1.251 . S
O625 C609 1.251 . S
O625 Eu611 2.374 . S
O626 C610 1.257 . S
O626 Eu611 2.473 . S
O627 C610 1.260 . S
O627 Eu611 2.480 . S
O628 Eu611 2.430 . S
O628 C618 1.259 . S
O629 Eu601 2.355 . S
O629 Eu611 2.670 . S
O629 C618 1.270 . S
O630 Eu611 2.394 . S
O630 C619 1.251 . S
O631 Eu601 2.374 . S
O631 C619 1.251 . S
H632 C603 0.931 . S
H633 C604 0.931 . S
H634 C606 0.931 . S
H635 C607 0.931 . S
H636 C613 0.931 . S
H637 C614 0.931 . S
H638 C616 0.931 . S
H639 C617 0.931 . S
H640 C658 0.951 . S
H641 C660 0.951 . S
H642 C662 0.950 . S
H643 C663 0.950 . S
H644 C665 0.950 . S
H645 C668 0.950 . S
H646 C669 0.950 . S
H647 C671 0.950 . S
H648 C672 0.950 . S
H649 C673 0.951 . S
H650 C675 0.951 . S
H651 C677 0.950 . S
H652 C678 0.950 . S
H653 C680 0.950 . S
H654 C683 0.950 . S
H655 C684 0.950 . S
H656 C686 0.950 . S
H657 C687 0.950 . S
C658 H640 0.951 . S
C658 C659 1.366 . S
C658 C660 1.388 . S
C659 C658 1.366 . S
C659 C663 1.385 . S
C660 H641 0.951 . S
C660 C658 1.388 . S
C660 C661 1.366 . S
C661 C660 1.366 . S
C661 C662 1.414 . S
C661 C664 1.499 . S
C662 H642 0.950 . S
C662 C661 1.414 . S
C662 C663 1.374 . S
C663 H643 0.950 . S
C663 C659 1.385 . S
C663 C662 1.374 . S
C664 C661 1.499 . S
C664 C665 1.373 . S
C664 C666 1.389 . S
C665 H644 0.950 . S
C665 C664 1.373 . S
C665 C681 1.377 . S
C666 C664 1.389 . S
C666 C667 1.524 . S
C666 C680 1.377 . S
C667 C666 1.524 . S
C667 C668 1.397 . S
C667 C672 1.363 . S
C668 H645 0.950 . S
C668 C667 1.397 . S
C668 C669 1.334 . S
C669 H646 0.950 . S
C669 C668 1.334 . S
C669 C670 1.287 . S
C670 C669 1.287 . S
C670 C671 1.524 . S
C670 H689 0.913 . S
C671 H647 0.950 . S
C671 C670 1.524 . S
C671 C672 1.415 . S
C672 H648 0.950 . S
C672 C667 1.363 . S
C672 C671 1.415 . S
C673 H649 0.951 . S
C673 C674 1.366 . S
C673 C675 1.388 . S
C674 C673 1.366 . S
C674 C678 1.385 . S
C675 H650 0.951 . S
C675 C673 1.388 . S
C675 C676 1.366 . S
C676 C675 1.366 . S
C676 C677 1.414 . S
C676 C679 1.499 . S
C677 H651 0.950 . S
C677 C676 1.414 . S
C677 C678 1.374 . S
C678 H652 0.950 . S
C678 C674 1.385 . S
C678 C677 1.374 . S
C679 C676 1.499 . S
C679 C680 1.373 . S
C679 C681 1.389 . S
C680 H653 0.950 . S
C680 C666 1.377 . S
C680 C679 1.373 . S
C681 C665 1.377 . S
C681 C679 1.389 . S
C681 C682 1.524 . S
C682 C681 1.524 . S
C682 C683 1.397 . S
C682 C687 1.363 . S
C683 H654 0.950 . S
C683 C682 1.397 . S
C683 C684 1.334 . S
C684 H655 0.950 . S
C684 C683 1.334 . S
C684 C685 1.287 . S
C685 C684 1.287 . S
C685 C686 1.524 . S
C685 H688 0.999 . S
C686 H656 0.950 . S
C686 C685 1.524 . S
C686 C687 1.415 . S
C687 H657 0.950 . S
C687 C682 1.363 . S
C687 C686 1.415 . S
H688 C685 0.999 . S
H689 C670 0.913 . S
H690 C708 0.951 . S
H691 C710 0.951 . S
H692 C712 0.950 . S
H693 C713 0.950 . S
H694 C715 0.950 . S
H695 C718 0.950 . S
H696 C719 0.950 . S
H697 C721 0.950 . S
H698 C722 0.950 . S
H699 C723 0.951 . S
H700 C725 0.951 . S
H701 C727 0.950 . S
H702 C728 0.950 . S
H703 C730 0.950 . S
H704 C733 0.950 . S
H705 C734 0.950 . S
H706 C736 0.950 . S
H707 C737 0.950 . S
C708 H690 0.951 . S
C708 C709 1.366 . S
C708 C710 1.388 . S
C709 C708 1.366 . S
C709 C713 1.385 . S
C710 H691 0.951 . S
C710 C708 1.388 . S
C710 C711 1.366 . S
C711 C710 1.366 . S
C711 C712 1.414 . S
C711 C714 1.499 . S
C712 H692 0.950 . S
C712 C711 1.414 . S
C712 C713 1.374 . S
C713 H693 0.950 . S
C713 C709 1.385 . S
C713 C712 1.374 . S
C714 C711 1.499 . S
C714 C715 1.373 . S
C714 C716 1.389 . S
C715 H694 0.950 . S
C715 C714 1.373 . S
C715 C731 1.377 . S
C716 C714 1.389 . S
C716 C717 1.524 . S
C716 C730 1.377 . S
C717 C716 1.524 . S
C717 C718 1.397 . S
C717 C722 1.363 . S
C718 H695 0.950 . S
C718 C717 1.397 . S
C718 C719 1.334 . S
C719 H696 0.950 . S
C719 C718 1.334 . S
C719 C720 1.287 . S
C720 C719 1.287 . S
C720 C721 1.524 . S
C720 H739 0.913 . S
C721 H697 0.950 . S
C721 C720 1.524 . S
C721 C722 1.415 . S
C722 H698 0.950 . S
C722 C717 1.363 . S
C722 C721 1.415 . S
C723 H699 0.951 . S
C723 C724 1.366 . S
C723 C725 1.388 . S
C724 C723 1.366 . S
C724 C728 1.385 . S
C725 H700 0.951 . S
C725 C723 1.388 . S
C725 C726 1.366 . S
C726 C725 1.366 . S
C726 C727 1.414 . S
C726 C729 1.499 . S
C727 H701 0.950 . S
C727 C726 1.414 . S
C727 C728 1.374 . S
C728 H702 0.950 . S
C728 C724 1.385 . S
C728 C727 1.374 . S
C729 C726 1.499 . S
C729 C730 1.373 . S
C729 C731 1.389 . S
C730 H703 0.950 . S
C730 C716 1.377 . S
C730 C729 1.373 . S
C731 C715 1.377 . S
C731 C729 1.389 . S
C731 C732 1.524 . S
C732 C731 1.524 . S
C732 C733 1.397 . S
C732 C737 1.363 . S
C733 H704 0.950 . S
C733 C732 1.397 . S
C733 C734 1.334 . S
C734 H705 0.950 . S
C734 C733 1.334 . S
C734 C735 1.287 . S
C735 C734 1.287 . S
C735 C736 1.524 . S
C735 H738 0.999 . S
C736 H706 0.950 . S
C736 C735 1.524 . S
C736 C737 1.415 . S
C737 H707 0.950 . S
C737 C732 1.363 . S
C737 C736 1.415 . S
H738 C735 0.999 . S
H739 C720 0.913 . S
H740 C758 0.951 . S
H741 C760 0.951 . S
H742 C762 0.950 . S
H743 C763 0.950 . S
H744 C765 0.950 . S
H745 C768 0.950 . S
H746 C769 0.950 . S
H747 C771 0.950 . S
H748 C772 0.950 . S
H749 C773 0.951 . S
H750 C775 0.951 . S
H751 C777 0.950 . S
H752 C778 0.950 . S
H753 C780 0.950 . S
H754 C783 0.950 . S
H755 C784 0.950 . S
H756 C786 0.950 . S
H757 C787 0.950 . S
C758 H740 0.951 . S
C758 C759 1.366 . S
C758 C760 1.388 . S
C759 C758 1.366 . S
C759 C763 1.385 . S
C760 H741 0.951 . S
C760 C758 1.388 . S
C760 C761 1.366 . S
C761 C760 1.366 . S
C761 C762 1.414 . S
C761 C764 1.499 . S
C762 H742 0.950 . S
C762 C761 1.414 . S
C762 C763 1.374 . S
C763 H743 0.950 . S
C763 C759 1.385 . S
C763 C762 1.374 . S
C764 C761 1.499 . S
C764 C765 1.373 . S
C764 C766 1.389 . S
C765 H744 0.950 . S
C765 C764 1.373 . S
C765 C781 1.377 . S
C766 C764 1.389 . S
C766 C767 1.524 . S
C766 C780 1.377 . S
C767 C766 1.524 . S
C767 C768 1.397 . S
C767 C772 1.363 . S
C768 H745 0.950 . S
C768 C767 1.397 . S
C768 C769 1.334 . S
C769 H746 0.950 . S
C769 C768 1.334 . S
C769 C770 1.287 . S
C770 C769 1.287 . S
C770 C771 1.524 . S
C770 H789 0.913 . S
C771 H747 0.950 . S
C771 C770 1.524 . S
C771 C772 1.415 . S
C772 H748 0.950 . S
C772 C767 1.363 . S
C772 C771 1.415 . S
C773 H749 0.951 . S
C773 C774 1.366 . S
C773 C775 1.388 . S
C774 C773 1.366 . S
C774 C778 1.385 . S
C775 H750 0.951 . S
C775 C773 1.388 . S
C775 C776 1.366 . S
C776 C775 1.366 . S
C776 C777 1.414 . S
C776 C779 1.499 . S
C777 H751 0.950 . S
C777 C776 1.414 . S
C777 C778 1.374 . S
C778 H752 0.950 . S
C778 C774 1.385 . S
C778 C777 1.374 . S
C779 C776 1.499 . S
C779 C780 1.373 . S
C779 C781 1.389 . S
C780 H753 0.950 . S
C780 C766 1.377 . S
C780 C779 1.373 . S
C781 C765 1.377 . S
C781 C779 1.389 . S
C781 C782 1.524 . S
C782 C781 1.524 . S
C782 C783 1.397 . S
C782 C787 1.363 . S
C783 H754 0.950 . S
C783 C782 1.397 . S
C783 C784 1.334 . S
C784 H755 0.950 . S
C784 C783 1.334 . S
C784 C785 1.287 . S
C785 C784 1.287 . S
C785 C786 1.524 . S
C785 H788 0.999 . S
C786 H756 0.950 . S
C786 C785 1.524 . S
C786 C787 1.415 . S
C787 H757 0.950 . S
C787 C782 1.363 . S
C787 C786 1.415 . S
H788 C785 0.999 . S
H789 C770 0.913 . S
H790 C808 0.951 . S
H791 C810 0.951 . S
H792 C812 0.950 . S
H793 C813 0.950 . S
H794 C815 0.950 . S
H795 C818 0.950 . S
H796 C819 0.950 . S
H797 C821 0.950 . S
H798 C822 0.950 . S
H799 C823 0.951 . S
H800 C825 0.951 . S
H801 C827 0.950 . S
H802 C828 0.950 . S
H803 C830 0.950 . S
H804 C833 0.950 . S
H805 C834 0.950 . S
H806 C836 0.950 . S
H807 C837 0.950 . S
C808 H790 0.951 . S
C808 C809 1.366 . S
C808 C810 1.388 . S
C809 C808 1.366 . S
C809 C813 1.385 . S
C810 H791 0.951 . S
C810 C808 1.388 . S
C810 C811 1.366 . S
C811 C810 1.366 . S
C811 C812 1.414 . S
C811 C814 1.499 . S
C812 H792 0.950 . S
C812 C811 1.414 . S
C812 C813 1.374 . S
C813 H793 0.950 . S
C813 C809 1.385 . S
C813 C812 1.374 . S
C814 C811 1.499 . S
C814 C815 1.373 . S
C814 C816 1.389 . S
C815 H794 0.950 . S
C815 C814 1.373 . S
C815 C831 1.377 . S
C816 C814 1.389 . S
C816 C817 1.524 . S
C816 C830 1.377 . S
C817 C816 1.524 . S
C817 C818 1.397 . S
C817 C822 1.363 . S
C818 H795 0.950 . S
C818 C817 1.397 . S
C818 C819 1.334 . S
C819 H796 0.950 . S
C819 C818 1.334 . S
C819 C820 1.287 . S
C820 C819 1.287 . S
C820 C821 1.524 . S
C820 H839 0.913 . S
C821 H797 0.950 . S
C821 C820 1.524 . S
C821 C822 1.415 . S
C822 H798 0.950 . S
C822 C817 1.363 . S
C822 C821 1.415 . S
C823 H799 0.951 . S
C823 C824 1.366 . S
C823 C825 1.388 . S
C824 C823 1.366 . S
C824 C828 1.385 . S
C825 H800 0.951 . S
C825 C823 1.388 . S
C825 C826 1.366 . S
C826 C825 1.366 . S
C826 C827 1.414 . S
C826 C829 1.499 . S
C827 H801 0.950 . S
C827 C826 1.414 . S
C827 C828 1.374 . S
C828 H802 0.950 . S
C828 C824 1.385 . S
C828 C827 1.374 . S
C829 C826 1.499 . S
C829 C830 1.373 . S
C829 C831 1.389 . S
C830 H803 0.950 . S
C830 C816 1.377 . S
C830 C829 1.373 . S
C831 C815 1.377 . S
C831 C829 1.389 . S
C831 C832 1.524 . S
C832 C831 1.524 . S
C832 C833 1.397 . S
C832 C837 1.363 . S
C833 H804 0.950 . S
C833 C832 1.397 . S
C833 C834 1.334 . S
C834 H805 0.950 . S
C834 C833 1.334 . S
C834 C835 1.287 . S
C835 C834 1.287 . S
C835 C836 1.524 . S
C835 H838 0.999 . S
C836 H806 0.950 . S
C836 C835 1.524 . S
C836 C837 1.415 . S
C837 H807 0.950 . S
C837 C832 1.363 . S
C837 C836 1.415 . S
H838 C835 0.999 . S
H839 C820 0.913 . S
H840 C858 0.951 . S
H841 C860 0.951 . S
H842 C862 0.950 . S
H843 C863 0.950 . S
H844 C865 0.950 . S
H845 C868 0.950 . S
H846 C869 0.950 . S
H847 C871 0.950 . S
H848 C872 0.950 . S
H849 C873 0.951 . S
H850 C875 0.951 . S
H851 C877 0.950 . S
H852 C878 0.950 . S
H853 C880 0.950 . S
H854 C883 0.950 . S
H855 C884 0.950 . S
H856 C886 0.950 . S
H857 C887 0.950 . S
C858 H840 0.951 . S
C858 C859 1.366 . S
C858 C860 1.388 . S
C859 C858 1.366 . S
C859 C863 1.385 . S
C860 H841 0.951 . S
C860 C858 1.388 . S
C860 C861 1.366 . S
C861 C860 1.366 . S
C861 C862 1.414 . S
C861 C864 1.499 . S
C862 H842 0.950 . S
C862 C861 1.414 . S
C862 C863 1.374 . S
C863 H843 0.950 . S
C863 C859 1.385 . S
C863 C862 1.374 . S
C864 C861 1.499 . S
C864 C865 1.373 . S
C864 C866 1.389 . S
C865 H844 0.950 . S
C865 C864 1.373 . S
C865 C881 1.377 . S
C866 C864 1.389 . S
C866 C867 1.524 . S
C866 C880 1.377 . S
C867 C866 1.524 . S
C867 C868 1.397 . S
C867 C872 1.363 . S
C868 H845 0.950 . S
C868 C867 1.397 . S
C868 C869 1.334 . S
C869 H846 0.950 . S
C869 C868 1.334 . S
C869 C870 1.287 . S
C870 C869 1.287 . S
C870 C871 1.524 . S
C870 H889 0.913 . S
C871 H847 0.950 . S
C871 C870 1.524 . S
C871 C872 1.415 . S
C872 H848 0.950 . S
C872 C867 1.363 . S
C872 C871 1.415 . S
C873 H849 0.951 . S
C873 C874 1.366 . S
C873 C875 1.388 . S
C874 C873 1.366 . S
C874 C878 1.385 . S
C875 H850 0.951 . S
C875 C873 1.388 . S
C875 C876 1.366 . S
C876 C875 1.366 . S
C876 C877 1.414 . S
C876 C879 1.499 . S
C877 H851 0.950 . S
C877 C876 1.414 . S
C877 C878 1.374 . S
C878 H852 0.950 . S
C878 C874 1.385 . S
C878 C877 1.374 . S
C879 C876 1.499 . S
C879 C880 1.373 . S
C879 C881 1.389 . S
C880 H853 0.950 . S
C880 C866 1.377 . S
C880 C879 1.373 . S
C881 C865 1.377 . S
C881 C879 1.389 . S
C881 C882 1.524 . S
C882 C881 1.524 . S
C882 C883 1.397 . S
C882 C887 1.363 . S
C883 H854 0.950 . S
C883 C882 1.397 . S
C883 C884 1.334 . S
C884 H855 0.950 . S
C884 C883 1.334 . S
C884 C885 1.287 . S
C885 C884 1.287 . S
C885 C886 1.524 . S
C885 H888 0.999 . S
C886 H856 0.950 . S
C886 C885 1.524 . S
C886 C887 1.415 . S
C887 H857 0.950 . S
C887 C882 1.363 . S
C887 C886 1.415 . S
H888 C885 0.999 . S
H889 C870 0.913 . S
H890 C908 0.951 . S
H891 C910 0.951 . S
H892 C912 0.950 . S
H893 C913 0.950 . S
H894 C915 0.950 . S
H895 C918 0.950 . S
H896 C919 0.950 . S
H897 C921 0.950 . S
H898 C922 0.950 . S
H899 C923 0.951 . S
H900 C925 0.951 . S
H901 C927 0.950 . S
H902 C928 0.950 . S
H903 C930 0.950 . S
H904 C933 0.950 . S
H905 C934 0.950 . S
H906 C936 0.950 . S
H907 C937 0.950 . S
C908 H890 0.951 . S
C908 C909 1.366 . S
C908 C910 1.388 . S
C909 C908 1.366 . S
C909 C913 1.385 . S
C910 H891 0.951 . S
C910 C908 1.388 . S
C910 C911 1.366 . S
C911 C910 1.366 . S
C911 C912 1.414 . S
C911 C914 1.499 . S
C912 H892 0.950 . S
C912 C911 1.414 . S
C912 C913 1.374 . S
C913 H893 0.950 . S
C913 C909 1.385 . S
C913 C912 1.374 . S
C914 C911 1.499 . S
C914 C915 1.373 . S
C914 C916 1.389 . S
C915 H894 0.950 . S
C915 C914 1.373 . S
C915 C931 1.377 . S
C916 C914 1.389 . S
C916 C917 1.524 . S
C916 C930 1.377 . S
C917 C916 1.524 . S
C917 C918 1.397 . S
C917 C922 1.363 . S
C918 H895 0.950 . S
C918 C917 1.397 . S
C918 C919 1.334 . S
C919 H896 0.950 . S
C919 C918 1.334 . S
C919 C920 1.287 . S
C920 C919 1.287 . S
C920 C921 1.524 . S
C920 H939 0.913 . S
C921 H897 0.950 . S
C921 C920 1.524 . S
C921 C922 1.415 . S
C922 H898 0.950 . S
C922 C917 1.363 . S
C922 C921 1.415 . S
C923 H899 0.951 . S
C923 C924 1.366 . S
C923 C925 1.388 . S
C924 C923 1.366 . S
C924 C928 1.385 . S
C925 H900 0.951 . S
C925 C923 1.388 . S
C925 C926 1.366 . S
C926 C925 1.366 . S
C926 C927 1.414 . S
C926 C929 1.499 . S
C927 H901 0.950 . S
C927 C926 1.414 . S
C927 C928 1.374 . S
C928 H902 0.950 . S
C928 C924 1.385 . S
C928 C927 1.374 . S
C929 C926 1.499 . S
C929 C930 1.373 . S
C929 C931 1.389 . S
C930 H903 0.950 . S
C930 C916 1.377 . S
C930 C929 1.373 . S
C931 C915 1.377 . S
C931 C929 1.389 . S
C931 C932 1.524 . S
C932 C931 1.524 . S
C932 C933 1.397 . S
C932 C937 1.363 . S
C933 H904 0.950 . S
C933 C932 1.397 . S
C933 C934 1.334 . S
C934 H905 0.950 . S
C934 C933 1.334 . S
C934 C935 1.287 . S
C935 C934 1.287 . S
C935 C936 1.524 . S
C935 H938 0.999 . S
C936 H906 0.950 . S
C936 C935 1.524 . S
C936 C937 1.415 . S
C937 H907 0.950 . S
C937 C932 1.363 . S
C937 C936 1.415 . S
H938 C935 0.999 . S
H939 C920 0.913 . S
H940 C958 0.951 . S
H941 C960 0.951 . S
H942 C962 0.950 . S
H943 C963 0.950 . S
H944 C965 0.950 . S
H945 C968 0.950 . S
H946 C969 0.950 . S
H947 C971 0.950 . S
H948 C972 0.950 . S
H949 C973 0.951 . S
H950 C975 0.951 . S
H951 C977 0.950 . S
H952 C978 0.950 . S
H953 C980 0.950 . S
H954 C983 0.950 . S
H955 C984 0.950 . S
H956 C986 0.950 . S
H957 C987 0.950 . S
C958 H940 0.951 . S
C958 C959 1.366 . S
C958 C960 1.388 . S
C959 C958 1.366 . S
C959 C963 1.385 . S
C960 H941 0.951 . S
C960 C958 1.388 . S
C960 C961 1.366 . S
C961 C960 1.366 . S
C961 C962 1.414 . S
C961 C964 1.499 . S
C962 H942 0.950 . S
C962 C961 1.414 . S
C962 C963 1.374 . S
C963 H943 0.950 . S
C963 C959 1.385 . S
C963 C962 1.374 . S
C964 C961 1.499 . S
C964 C965 1.373 . S
C964 C966 1.389 . S
C965 H944 0.950 . S
C965 C964 1.373 . S
C965 C981 1.377 . S
C966 C964 1.389 . S
C966 C967 1.524 . S
C966 C980 1.377 . S
C967 C966 1.524 . S
C967 C968 1.397 . S
C967 C972 1.363 . S
C968 H945 0.950 . S
C968 C967 1.397 . S
C968 C969 1.334 . S
C969 H946 0.950 . S
C969 C968 1.334 . S
C969 C970 1.287 . S
C970 C969 1.287 . S
C970 C971 1.524 . S
C970 H989 0.913 . S
C971 H947 0.950 . S
C971 C970 1.524 . S
C971 C972 1.415 . S
C972 H948 0.950 . S
C972 C967 1.363 . S
C972 C971 1.415 . S
C973 H949 0.951 . S
C973 C974 1.366 . S
C973 C975 1.388 . S
C974 C973 1.366 . S
C974 C978 1.385 . S
C975 H950 0.951 . S
C975 C973 1.388 . S
C975 C976 1.366 . S
C976 C975 1.366 . S
C976 C977 1.414 . S
C976 C979 1.499 . S
C977 H951 0.950 . S
C977 C976 1.414 . S
C977 C978 1.374 . S
C978 H952 0.950 . S
C978 C974 1.385 . S
C978 C977 1.374 . S
C979 C976 1.499 . S
C979 C980 1.373 . S
C979 C981 1.389 . S
C980 H953 0.950 . S
C980 C966 1.377 . S
C980 C979 1.373 . S
C981 C965 1.377 . S
C981 C979 1.389 . S
C981 C982 1.524 . S
C982 C981 1.524 . S
C982 C983 1.397 . S
C982 C987 1.363 . S
C983 H954 0.950 . S
C983 C982 1.397 . S
C983 C984 1.334 . S
C984 H955 0.950 . S
C984 C983 1.334 . S
C984 C985 1.287 . S
C985 C984 1.287 . S
C985 C986 1.524 . S
C985 H988 0.999 . S
C986 H956 0.950 . S
C986 C985 1.524 . S
C986 C987 1.415 . S
C987 H957 0.950 . S
C987 C982 1.363 . S
C987 C986 1.415 . S
H988 C985 0.999 . S
H989 C970 0.913 . S
H990 C1008 0.951 . S
H991 C1010 0.951 . S
H992 C1012 0.950 . S
H993 C1013 0.950 . S
H994 C1015 0.950 . S
H995 C1018 0.950 . S
H996 C1019 0.950 . S
H997 C1021 0.950 . S
H998 C1022 0.950 . S
H999 C1023 0.951 . S
H1000 C1025 0.951 . S
H1001 C1027 0.950 . S
H1002 C1028 0.950 . S
H1003 C1030 0.950 . S
H1004 C1033 0.950 . S
H1005 C1034 0.950 . S
H1006 C1036 0.950 . S
H1007 C1037 0.950 . S
C1008 H990 0.951 . S
C1008 C1009 1.366 . S
C1008 C1010 1.388 . S
C1009 C1008 1.366 . S
C1009 C1013 1.385 . S
C1010 H991 0.951 . S
C1010 C1008 1.388 . S
C1010 C1011 1.366 . S
C1011 C1010 1.366 . S
C1011 C1012 1.414 . S
C1011 C1014 1.499 . S
C1012 H992 0.950 . S
C1012 C1011 1.414 . S
C1012 C1013 1.374 . S
C1013 H993 0.950 . S
C1013 C1009 1.385 . S
C1013 C1012 1.374 . S
C1014 C1011 1.499 . S
C1014 C1015 1.373 . S
C1014 C1016 1.389 . S
C1015 H994 0.950 . S
C1015 C1014 1.373 . S
C1015 C1031 1.377 . S
C1016 C1014 1.389 . S
C1016 C1017 1.524 . S
C1016 C1030 1.377 . S
C1017 C1016 1.524 . S
C1017 C1018 1.397 . S
C1017 C1022 1.363 . S
C1018 H995 0.950 . S
C1018 C1017 1.397 . S
C1018 C1019 1.334 . S
C1019 H996 0.950 . S
C1019 C1018 1.334 . S
C1019 C1020 1.287 . S
C1020 C1019 1.287 . S
C1020 C1021 1.524 . S
C1020 H1039 0.913 . S
C1021 H997 0.950 . S
C1021 C1020 1.524 . S
C1021 C1022 1.415 . S
C1022 H998 0.950 . S
C1022 C1017 1.363 . S
C1022 C1021 1.415 . S
C1023 H999 0.951 . S
C1023 C1024 1.366 . S
C1023 C1025 1.388 . S
C1024 C1023 1.366 . S
C1024 C1028 1.385 . S
C1025 H1000 0.951 . S
C1025 C1023 1.388 . S
C1025 C1026 1.366 . S
C1026 C1025 1.366 . S
C1026 C1027 1.414 . S
C1026 C1029 1.499 . S
C1027 H1001 0.950 . S
C1027 C1026 1.414 . S
C1027 C1028 1.374 . S
C1028 H1002 0.950 . S
C1028 C1024 1.385 . S
C1028 C1027 1.374 . S
C1029 C1026 1.499 . S
C1029 C1030 1.373 . S
C1029 C1031 1.389 . S
C1030 H1003 0.950 . S
C1030 C1016 1.377 . S
C1030 C1029 1.373 . S
C1031 C1015 1.377 . S
C1031 C1029 1.389 . S
C1031 C1032 1.524 . S
C1032 C1031 1.524 . S
C1032 C1033 1.397 . S
C1032 C1037 1.363 . S
C1033 H1004 0.950 . S
C1033 C1032 1.397 . S
C1033 C1034 1.334 . S
C1034 H1005 0.950 . S
C1034 C1033 1.334 . S
C1034 C1035 1.287 . S
C1035 C1034 1.287 . S
C1035 C1036 1.524 . S
C1035 H1038 0.999 . S
C1036 H1006 0.950 . S
C1036 C1035 1.524 . S
C1036 C1037 1.415 . S
C1037 H1007 0.950 . S
C1037 C1032 1.363 . S
C1037 C1036 1.415 . S
H1038 C1035 0.999 . S
H1039 C1020 0.913 . S
H1040 C1058 0.951 . S
H1041 C1060 0.951 . S
H1042 C1062 0.950 . S
H1043 C1063 0.950 . S
H1044 C1065 0.950 . S
H1045 C1068 0.950 . S
H1046 C1069 0.950 . S
H1047 C1071 0.950 . S
H1048 C1072 0.950 . S
H1049 C1073 0.951 . S
H1050 C1075 0.951 . S
H1051 C1077 0.950 . S
H1052 C1078 0.950 1_565 S
H1053 C1080 0.950 . S
H1054 C1083 0.950 . S
H1055 C1084 0.950 . S
H1056 C1086 0.950 . S
H1057 C1087 0.950 . S
C1058 H1040 0.951 . S
C1058 C1059 1.366 . S
C1058 C1060 1.388 . S
C1059 C1058 1.366 . S
C1059 C1063 1.385 . S
C1060 H1041 0.951 . S
C1060 C1058 1.388 . S
C1060 C1061 1.366 . S
C1061 C1060 1.366 . S
C1061 C1062 1.414 . S
C1061 C1064 1.499 . S
C1062 H1042 0.950 . S
C1062 C1061 1.414 . S
C1062 C1063 1.374 . S
C1063 H1043 0.950 . S
C1063 C1059 1.385 . S
C1063 C1062 1.374 . S
C1064 C1061 1.499 . S
C1064 C1065 1.373 . S
C1064 C1066 1.389 . S
C1065 H1044 0.950 . S
C1065 C1064 1.373 . S
C1065 C1081 1.377 . S
C1066 C1064 1.389 . S
C1066 C1067 1.524 . S
C1066 C1080 1.377 . S
C1067 C1066 1.524 . S
C1067 C1068 1.397 . S
C1067 C1072 1.363 . S
C1068 H1045 0.950 . S
C1068 C1067 1.397 . S
C1068 C1069 1.334 . S
C1069 H1046 0.950 . S
C1069 C1068 1.334 . S
C1069 C1070 1.287 . S
C1070 C1069 1.287 . S
C1070 C1071 1.524 . S
C1070 H1089 0.913 . S
C1071 H1047 0.950 . S
C1071 C1070 1.524 . S
C1071 C1072 1.415 . S
C1072 H1048 0.950 . S
C1072 C1067 1.363 . S
C1072 C1071 1.415 . S
C1073 H1049 0.951 . S
C1073 C1074 1.366 . S
C1073 C1075 1.388 . S
C1074 C1073 1.366 . S
C1074 C1078 1.385 . S
C1075 H1050 0.951 . S
C1075 C1073 1.388 . S
C1075 C1076 1.366 . S
C1076 C1075 1.366 . S
C1076 C1077 1.414 . S
C1076 C1079 1.499 . S
C1077 H1051 0.950 . S
C1077 C1076 1.414 . S
C1077 C1078 1.374 . S
C1078 H1052 0.950 1_545 S
C1078 C1074 1.385 . S
C1078 C1077 1.374 . S
C1079 C1076 1.499 . S
C1079 C1080 1.373 . S
C1079 C1081 1.389 . S
C1080 H1053 0.950 . S
C1080 C1066 1.377 . S
C1080 C1079 1.373 . S
C1081 C1065 1.377 . S
C1081 C1079 1.389 . S
C1081 C1082 1.524 . S
C1082 C1081 1.524 . S
C1082 C1083 1.397 . S
C1082 C1087 1.363 . S
C1083 H1054 0.950 . S
C1083 C1082 1.397 . S
C1083 C1084 1.334 . S
C1084 H1055 0.950 . S
C1084 C1083 1.334 . S
C1084 C1085 1.287 . S
C1085 C1084 1.287 . S
C1085 C1086 1.524 . S
C1085 H1088 0.999 . S
C1086 H1056 0.950 . S
C1086 C1085 1.524 . S
C1086 C1087 1.415 . S
C1087 H1057 0.950 . S
C1087 C1082 1.363 . S
C1087 C1086 1.415 . S
H1088 C1085 0.999 . S
H1089 C1070 0.913 . S
H1090 C1108 0.951 . S
H1091 C1110 0.951 . S
H1092 C1112 0.950 . S
H1093 C1113 0.950 . S
H1094 C1115 0.950 . S
H1095 C1118 0.950 . S
H1096 C1119 0.950 . S
H1097 C1121 0.950 . S
H1098 C1122 0.950 . S
H1099 C1123 0.951 . S
H1100 C1125 0.951 . S
H1101 C1127 0.950 . S
H1102 C1128 0.950 . S
H1103 C1130 0.950 . S
H1104 C1133 0.950 . S
H1105 C1134 0.950 . S
H1106 C1136 0.950 . S
H1107 C1137 0.950 . S
C1108 H1090 0.951 . S
C1108 C1109 1.366 . S
C1108 C1110 1.388 . S
C1109 C1108 1.366 . S
C1109 C1113 1.385 . S
C1110 H1091 0.951 . S
C1110 C1108 1.388 . S
C1110 C1111 1.366 . S
C1111 C1110 1.366 . S
C1111 C1112 1.414 . S
C1111 C1114 1.499 . S
C1112 H1092 0.950 . S
C1112 C1111 1.414 . S
C1112 C1113 1.374 . S
C1113 H1093 0.950 . S
C1113 C1109 1.385 . S
C1113 C1112 1.374 . S
C1114 C1111 1.499 . S
C1114 C1115 1.373 . S
C1114 C1116 1.389 . S
C1115 H1094 0.950 . S
C1115 C1114 1.373 . S
C1115 C1131 1.377 . S
C1116 C1114 1.389 . S
C1116 C1117 1.524 . S
C1116 C1130 1.377 . S
C1117 C1116 1.524 . S
C1117 C1118 1.397 . S
C1117 C1122 1.363 . S
C1118 H1095 0.950 . S
C1118 C1117 1.397 . S
C1118 C1119 1.334 . S
C1119 H1096 0.950 . S
C1119 C1118 1.334 . S
C1119 C1120 1.287 . S
C1120 C1119 1.287 . S
C1120 C1121 1.524 . S
C1120 H1139 0.913 . S
C1121 H1097 0.950 . S
C1121 C1120 1.524 . S
C1121 C1122 1.415 . S
C1122 H1098 0.950 . S
C1122 C1117 1.363 . S
C1122 C1121 1.415 . S
C1123 H1099 0.951 . S
C1123 C1124 1.366 . S
C1123 C1125 1.388 . S
C1124 C1123 1.366 . S
C1124 C1128 1.385 . S
C1125 H1100 0.951 . S
C1125 C1123 1.388 . S
C1125 C1126 1.366 . S
C1126 C1125 1.366 . S
C1126 C1127 1.414 . S
C1126 C1129 1.499 . S
C1127 H1101 0.950 . S
C1127 C1126 1.414 . S
C1127 C1128 1.374 . S
C1128 H1102 0.950 . S
C1128 C1124 1.385 . S
C1128 C1127 1.374 . S
C1129 C1126 1.499 . S
C1129 C1130 1.373 . S
C1129 C1131 1.389 . S
C1130 H1103 0.950 . S
C1130 C1116 1.377 . S
C1130 C1129 1.373 . S
C1131 C1115 1.377 . S
C1131 C1129 1.389 . S
C1131 C1132 1.524 . S
C1132 C1131 1.524 . S
C1132 C1133 1.397 . S
C1132 C1137 1.363 . S
C1133 H1104 0.950 . S
C1133 C1132 1.397 . S
C1133 C1134 1.334 . S
C1134 H1105 0.950 . S
C1134 C1133 1.334 . S
C1134 C1135 1.287 . S
C1135 C1134 1.287 . S
C1135 C1136 1.524 . S
C1135 H1138 0.999 . S
C1136 H1106 0.950 . S
C1136 C1135 1.524 . S
C1136 C1137 1.415 . S
C1137 H1107 0.950 . S
C1137 C1132 1.363 . S
C1137 C1136 1.415 . S
H1138 C1135 0.999 . S
H1139 C1120 0.913 . S
H1140 C1158 0.951 . S
H1141 C1160 0.951 . S
H1142 C1162 0.950 . S
H1143 C1163 0.950 . S
H1144 C1165 0.950 . S
H1145 C1168 0.950 . S
H1146 C1169 0.950 . S
H1147 C1171 0.950 . S
H1148 C1172 0.950 . S
H1149 C1173 0.951 . S
H1150 C1175 0.951 . S
H1151 C1177 0.950 . S
H1152 C1178 0.950 . S
H1153 C1180 0.950 . S
H1154 C1183 0.950 . S
H1155 C1184 0.950 . S
H1156 C1186 0.950 . S
H1157 C1187 0.950 . S
C1158 H1140 0.951 . S
C1158 C1159 1.366 . S
C1158 C1160 1.388 . S
C1159 C1158 1.366 . S
C1159 C1163 1.385 . S
C1160 H1141 0.951 . S
C1160 C1158 1.388 . S
C1160 C1161 1.366 . S
C1161 C1160 1.366 . S
C1161 C1162 1.414 . S
C1161 C1164 1.499 . S
C1162 H1142 0.950 . S
C1162 C1161 1.414 . S
C1162 C1163 1.374 . S
C1163 H1143 0.950 . S
C1163 C1159 1.385 . S
C1163 C1162 1.374 . S
C1164 C1161 1.499 . S
C1164 C1165 1.373 . S
C1164 C1166 1.389 . S
C1165 H1144 0.950 . S
C1165 C1164 1.373 . S
C1165 C1181 1.377 . S
C1166 C1164 1.389 . S
C1166 C1167 1.524 . S
C1166 C1180 1.377 . S
C1167 C1166 1.524 . S
C1167 C1168 1.397 . S
C1167 C1172 1.363 . S
C1168 H1145 0.950 . S
C1168 C1167 1.397 . S
C1168 C1169 1.334 . S
C1169 H1146 0.950 . S
C1169 C1168 1.334 . S
C1169 C1170 1.287 . S
C1170 C1169 1.287 . S
C1170 C1171 1.524 . S
C1170 H1189 0.913 . S
C1171 H1147 0.950 . S
C1171 C1170 1.524 . S
C1171 C1172 1.415 . S
C1172 H1148 0.950 . S
C1172 C1167 1.363 . S
C1172 C1171 1.415 . S
C1173 H1149 0.951 . S
C1173 C1174 1.366 . S
C1173 C1175 1.388 . S
C1174 C1173 1.366 . S
C1174 C1178 1.385 . S
C1175 H1150 0.951 . S
C1175 C1173 1.388 . S
C1175 C1176 1.366 . S
C1176 C1175 1.366 . S
C1176 C1177 1.414 . S
C1176 C1179 1.499 . S
C1177 H1151 0.950 . S
C1177 C1176 1.414 . S
C1177 C1178 1.374 . S
C1178 H1152 0.950 . S
C1178 C1174 1.385 . S
C1178 C1177 1.374 . S
C1179 C1176 1.499 . S
C1179 C1180 1.373 . S
C1179 C1181 1.389 . S
C1180 H1153 0.950 . S
C1180 C1166 1.377 . S
C1180 C1179 1.373 . S
C1181 C1165 1.377 . S
C1181 C1179 1.389 . S
C1181 C1182 1.524 . S
C1182 C1181 1.524 . S
C1182 C1183 1.397 . S
C1182 C1187 1.363 . S
C1183 H1154 0.950 . S
C1183 C1182 1.397 . S
C1183 C1184 1.334 . S
C1184 H1155 0.950 . S
C1184 C1183 1.334 . S
C1184 C1185 1.287 . S
C1185 C1184 1.287 . S
C1185 C1186 1.524 . S
C1185 H1188 0.999 . S
C1186 H1156 0.950 . S
C1186 C1185 1.524 . S
C1186 C1187 1.415 . S
C1187 H1157 0.950 . S
C1187 C1182 1.363 . S
C1187 C1186 1.415 . S
H1188 C1185 0.999 . S
H1189 C1170 0.913 . S
H1190 C1208 0.951 . S
H1191 C1210 0.951 . S
H1192 C1212 0.950 . S
H1193 C1213 0.950 . S
H1194 C1215 0.950 . S
H1195 C1218 0.950 . S
H1196 C1219 0.950 . S
H1197 C1221 0.950 . S
H1198 C1222 0.950 . S
H1199 C1223 0.951 . S
H1200 C1225 0.951 . S
H1201 C1227 0.950 . S
H1202 C1228 0.950 . S
H1203 C1230 0.950 . S
H1204 C1233 0.950 . S
H1205 C1234 0.950 . S
H1206 C1236 0.950 . S
H1207 C1237 0.950 . S
C1208 H1190 0.951 . S
C1208 C1209 1.366 . S
C1208 C1210 1.388 . S
C1209 C1208 1.366 . S
C1209 C1213 1.385 . S
C1210 H1191 0.951 . S
C1210 C1208 1.388 . S
C1210 C1211 1.366 . S
C1211 C1210 1.366 . S
C1211 C1212 1.414 . S
C1211 C1214 1.499 . S
C1212 H1192 0.950 . S
C1212 C1211 1.414 . S
C1212 C1213 1.374 . S
C1213 H1193 0.950 . S
C1213 C1209 1.385 . S
C1213 C1212 1.374 . S
C1214 C1211 1.499 . S
C1214 C1215 1.373 . S
C1214 C1216 1.389 . S
C1215 H1194 0.950 . S
C1215 C1214 1.373 . S
C1215 C1231 1.377 . S
C1216 C1214 1.389 . S
C1216 C1217 1.524 . S
C1216 C1230 1.377 . S
C1217 C1216 1.524 . S
C1217 C1218 1.397 . S
C1217 C1222 1.363 . S
C1218 H1195 0.950 . S
C1218 C1217 1.397 . S
C1218 C1219 1.334 . S
C1219 H1196 0.950 . S
C1219 C1218 1.334 . S
C1219 C1220 1.287 . S
C1220 C1219 1.287 . S
C1220 C1221 1.524 . S
C1220 H1239 0.913 . S
C1221 H1197 0.950 . S
C1221 C1220 1.524 . S
C1221 C1222 1.415 . S
C1222 H1198 0.950 . S
C1222 C1217 1.363 . S
C1222 C1221 1.415 . S
C1223 H1199 0.951 . S
C1223 C1224 1.366 . S
C1223 C1225 1.388 . S
C1224 C1223 1.366 . S
C1224 C1228 1.385 . S
C1225 H1200 0.951 . S
C1225 C1223 1.388 . S
C1225 C1226 1.366 . S
C1226 C1225 1.366 . S
C1226 C1227 1.414 . S
C1226 C1229 1.499 . S
C1227 H1201 0.950 . S
C1227 C1226 1.414 . S
C1227 C1228 1.374 . S
C1228 H1202 0.950 . S
C1228 C1224 1.385 . S
C1228 C1227 1.374 . S
C1229 C1226 1.499 . S
C1229 C1230 1.373 . S
C1229 C1231 1.389 . S
C1230 H1203 0.950 . S
C1230 C1216 1.377 . S
C1230 C1229 1.373 . S
C1231 C1215 1.377 . S
C1231 C1229 1.389 . S
C1231 C1232 1.524 . S
C1232 C1231 1.524 . S
C1232 C1233 1.397 . S
C1232 C1237 1.363 . S
C1233 H1204 0.950 . S
C1233 C1232 1.397 . S
C1233 C1234 1.334 1_455 S
C1234 H1205 0.950 . S
C1234 C1233 1.334 1_655 S
C1234 C1235 1.287 . S
C1235 C1234 1.287 . S
C1235 C1236 1.524 1_655 S
C1235 H1238 0.999 . S
C1236 H1206 0.950 . S
C1236 C1235 1.524 1_455 S
C1236 C1237 1.415 . S
C1237 H1207 0.950 . S
C1237 C1232 1.363 . S
C1237 C1236 1.415 . S
H1238 C1235 0.999 . S
H1239 C1220 0.913 . S
H1240 C1258 0.951 . S
H1241 C1260 0.951 . S
H1242 C1262 0.950 . S
H1243 C1263 0.950 . S
H1244 C1265 0.950 . S
H1245 C1268 0.950 . S
H1246 C1269 0.950 . S
H1247 C1271 0.950 . S
H1248 C1272 0.950 . S
H1249 C1273 0.951 . S
H1250 C1275 0.951 . S
H1251 C1277 0.950 . S
H1252 C1278 0.950 . S
H1253 C1280 0.950 . S
H1254 C1283 0.950 . S
H1255 C1284 0.950 . S
H1256 C1286 0.950 . S
H1257 C1287 0.950 . S
C1258 H1240 0.951 . S
C1258 C1259 1.366 . S
C1258 C1260 1.388 . S
C1259 C1258 1.366 . S
C1259 C1263 1.385 . S
C1260 H1241 0.951 . S
C1260 C1258 1.388 . S
C1260 C1261 1.366 . S
C1261 C1260 1.366 . S
C1261 C1262 1.414 . S
C1261 C1264 1.499 . S
C1262 H1242 0.950 . S
C1262 C1261 1.414 . S
C1262 C1263 1.374 . S
C1263 H1243 0.950 . S
C1263 C1259 1.385 . S
C1263 C1262 1.374 . S
C1264 C1261 1.499 . S
C1264 C1265 1.373 . S
C1264 C1266 1.389 . S
C1265 H1244 0.950 . S
C1265 C1264 1.373 . S
C1265 C1281 1.377 . S
C1266 C1264 1.389 . S
C1266 C1267 1.524 . S
C1266 C1280 1.377 . S
C1267 C1266 1.524 . S
C1267 C1268 1.397 . S
C1267 C1272 1.363 . S
C1268 H1245 0.950 . S
C1268 C1267 1.397 . S
C1268 C1269 1.334 . S
C1269 H1246 0.950 . S
C1269 C1268 1.334 . S
C1269 C1270 1.287 . S
C1270 C1269 1.287 . S
C1270 C1271 1.524 . S
C1270 H1289 0.913 . S
C1271 H1247 0.950 . S
C1271 C1270 1.524 . S
C1271 C1272 1.415 . S
C1272 H1248 0.950 . S
C1272 C1267 1.363 . S
C1272 C1271 1.415 . S
C1273 H1249 0.951 . S
C1273 C1274 1.366 . S
C1273 C1275 1.388 . S
C1274 C1273 1.366 . S
C1274 C1278 1.385 . S
C1275 H1250 0.951 . S
C1275 C1273 1.388 . S
C1275 C1276 1.366 . S
C1276 C1275 1.366 . S
C1276 C1277 1.414 . S
C1276 C1279 1.499 . S
C1277 H1251 0.950 . S
C1277 C1276 1.414 . S
C1277 C1278 1.374 . S
C1278 H1252 0.950 . S
C1278 C1274 1.385 . S
C1278 C1277 1.374 . S
C1279 C1276 1.499 . S
C1279 C1280 1.373 . S
C1279 C1281 1.389 . S
C1280 H1253 0.950 . S
C1280 C1266 1.377 . S
C1280 C1279 1.373 . S
C1281 C1265 1.377 . S
C1281 C1279 1.389 . S
C1281 C1282 1.524 . S
C1282 C1281 1.524 . S
C1282 C1283 1.397 . S
C1282 C1287 1.363 . S
C1283 H1254 0.950 . S
C1283 C1282 1.397 . S
C1283 C1284 1.334 1_565 S
C1284 H1255 0.950 . S
C1284 C1283 1.334 1_545 S
C1284 C1285 1.287 . S
C1285 C1284 1.287 . S
C1285 C1286 1.524 1_545 S
C1285 H1288 0.999 . S
C1286 H1256 0.950 . S
C1286 C1285 1.524 1_565 S
C1286 C1287 1.415 . S
C1287 H1257 0.950 . S
C1287 C1282 1.363 . S
C1287 C1286 1.415 . S
H1288 C1285 0.999 . S
H1289 C1270 0.913 . S
H1290 C1308 0.951 . S
H1291 C1310 0.951 . S
H1292 C1312 0.950 . S
H1293 C1313 0.950 . S
H1294 C1315 0.950 . S
H1295 C1318 0.950 . S
H1296 C1319 0.950 . S
H1297 C1321 0.950 . S
H1298 C1322 0.950 . S
H1299 C1323 0.951 . S
H1300 C1325 0.951 . S
H1301 C1327 0.950 . S
H1302 C1328 0.950 . S
H1303 C1330 0.950 . S
H1304 C1333 0.950 . S
H1305 C1334 0.950 . S
H1306 C1336 0.950 . S
H1307 C1337 0.950 . S
C1308 H1290 0.951 . S
C1308 C1309 1.366 . S
C1308 C1310 1.388 . S
C1309 C1308 1.366 . S
C1309 C1313 1.385 . S
C1310 H1291 0.951 . S
C1310 C1308 1.388 . S
C1310 C1311 1.366 . S
C1311 C1310 1.366 . S
C1311 C1312 1.414 . S
C1311 C1314 1.499 . S
C1312 H1292 0.950 . S
C1312 C1311 1.414 . S
C1312 C1313 1.374 . S
C1313 H1293 0.950 . S
C1313 C1309 1.385 . S
C1313 C1312 1.374 . S
C1314 C1311 1.499 . S
C1314 C1315 1.373 . S
C1314 C1316 1.389 . S
C1315 H1294 0.950 . S
C1315 C1314 1.373 . S
C1315 C1331 1.377 . S
C1316 C1314 1.389 . S
C1316 C1317 1.524 . S
C1316 C1330 1.377 . S
C1317 C1316 1.524 . S
C1317 C1318 1.397 . S
C1317 C1322 1.363 . S
C1318 H1295 0.950 . S
C1318 C1317 1.397 . S
C1318 C1319 1.334 . S
C1319 H1296 0.950 . S
C1319 C1318 1.334 . S
C1319 C1320 1.287 . S
C1320 C1319 1.287 . S
C1320 C1321 1.524 . S
C1320 H1339 0.913 . S
C1321 H1297 0.950 . S
C1321 C1320 1.524 . S
C1321 C1322 1.415 . S
C1322 H1298 0.950 . S
C1322 C1317 1.363 . S
C1322 C1321 1.415 . S
C1323 H1299 0.951 . S
C1323 C1324 1.366 . S
C1323 C1325 1.388 . S
C1324 C1323 1.366 . S
C1324 C1328 1.385 . S
C1325 H1300 0.951 . S
C1325 C1323 1.388 . S
C1325 C1326 1.366 . S
C1326 C1325 1.366 . S
C1326 C1327 1.414 . S
C1326 C1329 1.499 . S
C1327 H1301 0.950 . S
C1327 C1326 1.414 . S
C1327 C1328 1.374 . S
C1328 H1302 0.950 . S
C1328 C1324 1.385 . S
C1328 C1327 1.374 . S
C1329 C1326 1.499 . S
C1329 C1330 1.373 . S
C1329 C1331 1.389 . S
C1330 H1303 0.950 . S
C1330 C1316 1.377 . S
C1330 C1329 1.373 . S
C1331 C1315 1.377 . S
C1331 C1329 1.389 . S
C1331 C1332 1.524 . S
C1332 C1331 1.524 . S
C1332 C1333 1.397 . S
C1332 C1337 1.363 . S
C1333 H1304 0.950 . S
C1333 C1332 1.397 . S
C1333 C1334 1.334 . S
C1334 H1305 0.950 . S
C1334 C1333 1.334 . S
C1334 C1335 1.287 . S
C1335 C1334 1.287 . S
C1335 C1336 1.524 . S
C1335 H1338 0.999 . S
C1336 H1306 0.950 . S
C1336 C1335 1.524 . S
C1336 C1337 1.415 . S
C1337 H1307 0.950 . S
C1337 C1332 1.363 . S
C1337 C1336 1.415 . S
H1338 C1335 0.999 . S
H1339 C1320 0.913 . S
H1340 C1358 0.951 . S
H1341 C1360 0.951 . S
H1342 C1362 0.950 . S
H1343 C1363 0.950 . S
H1344 C1365 0.950 . S
H1345 C1368 0.950 . S
H1346 C1369 0.950 1_556 S
H1347 C1371 0.950 1_556 S
H1348 C1372 0.950 . S
H1349 C1373 0.951 . S
H1350 C1375 0.951 . S
H1351 C1377 0.950 . S
H1352 C1378 0.950 . S
H1353 C1380 0.950 . S
H1354 C1383 0.950 . S
H1355 C1384 0.950 . S
H1356 C1386 0.950 . S
H1357 C1387 0.950 . S
C1358 H1340 0.951 . S
C1358 C1359 1.366 . S
C1358 C1360 1.388 . S
C1359 C1358 1.366 . S
C1359 C1363 1.385 . S
C1360 H1341 0.951 . S
C1360 C1358 1.388 . S
C1360 C1361 1.366 . S
C1361 C1360 1.366 . S
C1361 C1362 1.414 . S
C1361 C1364 1.499 . S
C1362 H1342 0.950 . S
C1362 C1361 1.414 . S
C1362 C1363 1.374 . S
C1363 H1343 0.950 . S
C1363 C1359 1.385 . S
C1363 C1362 1.374 . S
C1364 C1361 1.499 . S
C1364 C1365 1.373 . S
C1364 C1366 1.389 . S
C1365 H1344 0.950 . S
C1365 C1364 1.373 . S
C1365 C1381 1.377 . S
C1366 C1364 1.389 . S
C1366 C1367 1.524 . S
C1366 C1380 1.377 . S
C1367 C1366 1.524 . S
C1367 C1368 1.397 . S
C1367 C1372 1.363 . S
C1368 H1345 0.950 . S
C1368 C1367 1.397 . S
C1368 C1369 1.334 . S
C1369 H1346 0.950 1_554 S
C1369 C1368 1.334 . S
C1369 C1370 1.287 1_554 S
C1370 C1369 1.287 1_556 S
C1370 C1371 1.524 1_556 S
C1370 H1389 0.913 . S
C1371 H1347 0.950 1_554 S
C1371 C1370 1.524 1_554 S
C1371 C1372 1.415 . S
C1372 H1348 0.950 . S
C1372 C1367 1.363 . S
C1372 C1371 1.415 . S
C1373 H1349 0.951 . S
C1373 C1374 1.366 . S
C1373 C1375 1.388 . S
C1374 C1373 1.366 . S
C1374 C1378 1.385 . S
C1375 H1350 0.951 . S
C1375 C1373 1.388 . S
C1375 C1376 1.366 . S
C1376 C1375 1.366 . S
C1376 C1377 1.414 . S
C1376 C1379 1.499 . S
C1377 H1351 0.950 . S
C1377 C1376 1.414 . S
C1377 C1378 1.374 . S
C1378 H1352 0.950 . S
C1378 C1374 1.385 . S
C1378 C1377 1.374 . S
C1379 C1376 1.499 . S
C1379 C1380 1.373 . S
C1379 C1381 1.389 . S
C1380 H1353 0.950 . S
C1380 C1366 1.377 . S
C1380 C1379 1.373 . S
C1381 C1365 1.377 . S
C1381 C1379 1.389 . S
C1381 C1382 1.524 . S
C1382 C1381 1.524 . S
C1382 C1383 1.397 . S
C1382 C1387 1.363 . S
C1383 H1354 0.950 . S
C1383 C1382 1.397 . S
C1383 C1384 1.334 . S
C1384 H1355 0.950 . S
C1384 C1383 1.334 . S
C1384 C1385 1.287 . S
C1385 C1384 1.287 . S
C1385 C1386 1.524 . S
C1385 H1388 0.999 . S
C1386 H1356 0.950 . S
C1386 C1385 1.524 . S
C1386 C1387 1.415 . S
C1387 H1357 0.950 . S
C1387 C1382 1.363 . S
C1387 C1386 1.415 . S
H1388 C1385 0.999 . S
H1389 C1370 0.913 . S
H1390 C1408 0.951 . S
H1391 C1410 0.951 . S
H1392 C1412 0.950 . S
H1393 C1413 0.950 1_455 S
H1394 C1415 0.950 . S
H1395 C1418 0.950 . S
H1396 C1419 0.950 . S
H1397 C1421 0.950 . S
H1398 C1422 0.950 . S
H1399 C1423 0.951 . S
H1400 C1425 0.951 . S
H1401 C1427 0.950 . S
H1402 C1428 0.950 . S
H1403 C1430 0.950 . S
H1404 C1433 0.950 . S
H1405 C1434 0.950 1_556 S
H1406 C1436 0.950 1_556 S
H1407 C1437 0.950 . S
C1408 H1390 0.951 . S
C1408 C1409 1.366 . S
C1408 C1410 1.388 . S
C1409 C1408 1.366 . S
C1409 C1413 1.385 . S
C1410 H1391 0.951 . S
C1410 C1408 1.388 . S
C1410 C1411 1.366 . S
C1411 C1410 1.366 . S
C1411 C1412 1.414 . S
C1411 C1414 1.499 . S
C1412 H1392 0.950 . S
C1412 C1411 1.414 . S
C1412 C1413 1.374 . S
C1413 H1393 0.950 1_655 S
C1413 C1409 1.385 . S
C1413 C1412 1.374 . S
C1414 C1411 1.499 . S
C1414 C1415 1.373 . S
C1414 C1416 1.389 . S
C1415 H1394 0.950 . S
C1415 C1414 1.373 . S
C1415 C1431 1.377 . S
C1416 C1414 1.389 . S
C1416 C1417 1.524 . S
C1416 C1430 1.377 . S
C1417 C1416 1.524 . S
C1417 C1418 1.397 . S
C1417 C1422 1.363 . S
C1418 H1395 0.950 . S
C1418 C1417 1.397 . S
C1418 C1419 1.334 . S
C1419 H1396 0.950 . S
C1419 C1418 1.334 . S
C1419 C1420 1.287 . S
C1420 C1419 1.287 . S
C1420 C1421 1.524 . S
C1420 H1439 0.913 . S
C1421 H1397 0.950 . S
C1421 C1420 1.524 . S
C1421 C1422 1.415 . S
C1422 H1398 0.950 . S
C1422 C1417 1.363 . S
C1422 C1421 1.415 . S
C1423 H1399 0.951 . S
C1423 C1424 1.366 . S
C1423 C1425 1.388 . S
C1424 C1423 1.366 . S
C1424 C1428 1.385 . S
C1425 H1400 0.951 . S
C1425 C1423 1.388 . S
C1425 C1426 1.366 . S
C1426 C1425 1.366 . S
C1426 C1427 1.414 . S
C1426 C1429 1.499 . S
C1427 H1401 0.950 . S
C1427 C1426 1.414 . S
C1427 C1428 1.374 . S
C1428 H1402 0.950 . S
C1428 C1424 1.385 . S
C1428 C1427 1.374 . S
C1429 C1426 1.499 . S
C1429 C1430 1.373 . S
C1429 C1431 1.389 . S
C1430 H1403 0.950 . S
C1430 C1416 1.377 . S
C1430 C1429 1.373 . S
C1431 C1415 1.377 . S
C1431 C1429 1.389 . S
C1431 C1432 1.524 . S
C1432 C1431 1.524 . S
C1432 C1433 1.397 . S
C1432 C1437 1.363 . S
C1433 H1404 0.950 . S
C1433 C1432 1.397 . S
C1433 C1434 1.334 . S
C1434 H1405 0.950 1_554 S
C1434 C1433 1.334 . S
C1434 C1435 1.287 1_554 S
C1435 C1434 1.287 1_556 S
C1435 C1436 1.524 1_556 S
C1435 H1438 0.999 . S
C1436 H1406 0.950 1_554 S
C1436 C1435 1.524 1_554 S
C1436 C1437 1.415 . S
C1437 H1407 0.950 . S
C1437 C1432 1.363 . S
C1437 C1436 1.415 . S
H1438 C1435 0.999 . S
H1439 C1420 0.913 . S
H1440 C1458 0.951 1_545 S
H1441 C1460 0.951 . S
H1442 C1462 0.950 . S
H1443 C1463 0.950 . S
H1444 C1465 0.950 . S
H1445 C1468 0.950 . S
H1446 C1469 0.950 . S
H1447 C1471 0.950 . S
H1448 C1472 0.950 . S
H1449 C1473 0.951 . S
H1450 C1475 0.951 . S
H1451 C1477 0.950 . S
H1452 C1478 0.950 . S
H1453 C1480 0.950 . S
H1454 C1483 0.950 . S
H1455 C1484 0.950 . S
H1456 C1486 0.950 . S
H1457 C1487 0.950 . S
C1458 H1440 0.951 1_565 S
C1458 C1459 1.366 . S
C1458 C1460 1.388 . S
C1459 C1458 1.366 . S
C1459 C1463 1.385 . S
C1460 H1441 0.951 . S
C1460 C1458 1.388 . S
C1460 C1461 1.366 . S
C1461 C1460 1.366 . S
C1461 C1462 1.414 . S
C1461 C1464 1.499 . S
C1462 H1442 0.950 . S
C1462 C1461 1.414 . S
C1462 C1463 1.374 . S
C1463 H1443 0.950 . S
C1463 C1459 1.385 . S
C1463 C1462 1.374 . S
C1464 C1461 1.499 . S
C1464 C1465 1.373 . S
C1464 C1466 1.389 . S
C1465 H1444 0.950 . S
C1465 C1464 1.373 . S
C1465 C1481 1.377 . S
C1466 C1464 1.389 . S
C1466 C1467 1.524 . S
C1466 C1480 1.377 . S
C1467 C1466 1.524 . S
C1467 C1468 1.397 . S
C1467 C1472 1.363 . S
C1468 H1445 0.950 . S
C1468 C1467 1.397 . S
C1468 C1469 1.334 . S
C1469 H1446 0.950 . S
C1469 C1468 1.334 . S
C1469 C1470 1.287 . S
C1470 C1469 1.287 . S
C1470 C1471 1.524 . S
C1470 H1489 0.913 . S
C1471 H1447 0.950 . S
C1471 C1470 1.524 . S
C1471 C1472 1.415 . S
C1472 H1448 0.950 . S
C1472 C1467 1.363 . S
C1472 C1471 1.415 . S
C1473 H1449 0.951 . S
C1473 C1474 1.366 . S
C1473 C1475 1.388 . S
C1474 C1473 1.366 . S
C1474 C1478 1.385 . S
C1475 H1450 0.951 . S
C1475 C1473 1.388 . S
C1475 C1476 1.366 . S
C1476 C1475 1.366 . S
C1476 C1477 1.414 . S
C1476 C1479 1.499 . S
C1477 H1451 0.950 . S
C1477 C1476 1.414 . S
C1477 C1478 1.374 . S
C1478 H1452 0.950 . S
C1478 C1474 1.385 . S
C1478 C1477 1.374 . S
C1479 C1476 1.499 . S
C1479 C1480 1.373 . S
C1479 C1481 1.389 . S
C1480 H1453 0.950 . S
C1480 C1466 1.377 . S
C1480 C1479 1.373 . S
C1481 C1465 1.377 . S
C1481 C1479 1.389 . S
C1481 C1482 1.524 . S
C1482 C1481 1.524 . S
C1482 C1483 1.397 . S
C1482 C1487 1.363 . S
C1483 H1454 0.950 . S
C1483 C1482 1.397 . S
C1483 C1484 1.334 . S
C1484 H1455 0.950 . S
C1484 C1483 1.334 . S
C1484 C1485 1.287 . S
C1485 C1484 1.287 . S
C1485 C1486 1.524 . S
C1485 H1488 0.999 . S
C1486 H1456 0.950 . S
C1486 C1485 1.524 . S
C1486 C1487 1.415 . S
C1487 H1457 0.950 . S
C1487 C1482 1.363 . S
C1487 C1486 1.415 . S
H1488 C1485 0.999 . S
H1489 C1470 0.913 . S
H1490 C1508 0.951 . S
H1491 C1510 0.951 . S
H1492 C1512 0.950 . S
H1493 C1513 0.950 . S
H1494 C1515 0.950 . S
H1495 C1518 0.950 . S
H1496 C1519 0.950 . S
H1497 C1521 0.950 . S
H1498 C1522 0.950 . S
H1499 C1523 0.951 . S
H1500 C1525 0.951 . S
H1501 C1527 0.950 . S
H1502 C1528 0.950 . S
H1503 C1530 0.950 . S
H1504 C1533 0.950 . S
H1505 C1534 0.950 . S
H1506 C1536 0.950 . S
H1507 C1537 0.950 . S
C1508 H1490 0.951 . S
C1508 C1509 1.366 . S
C1508 C1510 1.388 . S
C1509 C1508 1.366 . S
C1509 C1513 1.385 . S
C1510 H1491 0.951 . S
C1510 C1508 1.388 . S
C1510 C1511 1.366 . S
C1511 C1510 1.366 . S
C1511 C1512 1.414 . S
C1511 C1514 1.499 . S
C1512 H1492 0.950 . S
C1512 C1511 1.414 . S
C1512 C1513 1.374 . S
C1513 H1493 0.950 . S
C1513 C1509 1.385 . S
C1513 C1512 1.374 . S
C1514 C1511 1.499 . S
C1514 C1515 1.373 . S
C1514 C1516 1.389 . S
C1515 H1494 0.950 . S
C1515 C1514 1.373 . S
C1515 C1531 1.377 . S
C1516 C1514 1.389 . S
C1516 C1517 1.524 . S
C1516 C1530 1.377 . S
C1517 C1516 1.524 . S
C1517 C1518 1.397 . S
C1517 C1522 1.363 . S
C1518 H1495 0.950 . S
C1518 C1517 1.397 . S
C1518 C1519 1.334 . S
C1519 H1496 0.950 . S
C1519 C1518 1.334 . S
C1519 C1520 1.287 . S
C1520 C1519 1.287 . S
C1520 C1521 1.524 . S
C1520 H1539 0.913 . S
C1521 H1497 0.950 . S
C1521 C1520 1.524 . S
C1521 C1522 1.415 . S
C1522 H1498 0.950 . S
C1522 C1517 1.363 . S
C1522 C1521 1.415 . S
C1523 H1499 0.951 . S
C1523 C1524 1.366 . S
C1523 C1525 1.388 . S
C1524 C1523 1.366 . S
C1524 C1528 1.385 . S
C1525 H1500 0.951 . S
C1525 C1523 1.388 . S
C1525 C1526 1.366 . S
C1526 C1525 1.366 . S
C1526 C1527 1.414 . S
C1526 C1529 1.499 . S
C1527 H1501 0.950 . S
C1527 C1526 1.414 . S
C1527 C1528 1.374 . S
C1528 H1502 0.950 . S
C1528 C1524 1.385 . S
C1528 C1527 1.374 . S
C1529 C1526 1.499 . S
C1529 C1530 1.373 . S
C1529 C1531 1.389 . S
C1530 H1503 0.950 . S
C1530 C1516 1.377 . S
C1530 C1529 1.373 . S
C1531 C1515 1.377 . S
C1531 C1529 1.389 . S
C1531 C1532 1.524 . S
C1532 C1531 1.524 . S
C1532 C1533 1.397 . S
C1532 C1537 1.363 . S
C1533 H1504 0.950 . S
C1533 C1532 1.397 . S
C1533 C1534 1.334 . S
C1534 H1505 0.950 . S
C1534 C1533 1.334 . S
C1534 C1535 1.287 . S
C1535 C1534 1.287 . S
C1535 C1536 1.524 . S
C1535 H1538 0.999 . S
C1536 H1506 0.950 . S
C1536 C1535 1.524 . S
C1536 C1537 1.415 . S
C1537 H1507 0.950 . S
C1537 C1532 1.363 . S
C1537 C1536 1.415 . S
H1538 C1535 0.999 . S
H1539 C1520 0.913 . S
H1540 C1558 0.951 . S
H1541 C1560 0.951 . S
H1542 C1562 0.950 . S
H1543 C1563 0.950 . S
H1544 C1565 0.950 . S
H1545 C1568 0.950 . S
H1546 C1569 0.950 . S
H1547 C1571 0.950 . S
H1548 C1572 0.950 . S
H1549 C1573 0.951 . S
H1550 C1575 0.951 . S
H1551 C1577 0.950 . S
H1552 C1578 0.950 . S
H1553 C1580 0.950 . S
H1554 C1583 0.950 . S
H1555 C1584 0.950 . S
H1556 C1586 0.950 . S
H1557 C1587 0.950 . S
C1558 H1540 0.951 . S
C1558 C1559 1.366 . S
C1558 C1560 1.388 . S
C1559 C1558 1.366 . S
C1559 C1563 1.385 . S
C1560 H1541 0.951 . S
C1560 C1558 1.388 . S
C1560 C1561 1.366 . S
C1561 C1560 1.366 . S
C1561 C1562 1.414 . S
C1561 C1564 1.499 . S
C1562 H1542 0.950 . S
C1562 C1561 1.414 . S
C1562 C1563 1.374 . S
C1563 H1543 0.950 . S
C1563 C1559 1.385 . S
C1563 C1562 1.374 . S
C1564 C1561 1.499 . S
C1564 C1565 1.373 . S
C1564 C1566 1.389 . S
C1565 H1544 0.950 . S
C1565 C1564 1.373 . S
C1565 C1581 1.377 . S
C1566 C1564 1.389 . S
C1566 C1567 1.524 . S
C1566 C1580 1.377 . S
C1567 C1566 1.524 . S
C1567 C1568 1.397 . S
C1567 C1572 1.363 . S
C1568 H1545 0.950 . S
C1568 C1567 1.397 . S
C1568 C1569 1.334 . S
C1569 H1546 0.950 . S
C1569 C1568 1.334 . S
C1569 C1570 1.287 . S
C1570 C1569 1.287 . S
C1570 C1571 1.524 . S
C1570 H1589 0.913 . S
C1571 H1547 0.950 . S
C1571 C1570 1.524 . S
C1571 C1572 1.415 . S
C1572 H1548 0.950 . S
C1572 C1567 1.363 . S
C1572 C1571 1.415 . S
C1573 H1549 0.951 . S
C1573 C1574 1.366 . S
C1573 C1575 1.388 . S
C1574 C1573 1.366 . S
C1574 C1578 1.385 . S
C1575 H1550 0.951 . S
C1575 C1573 1.388 . S
C1575 C1576 1.366 . S
C1576 C1575 1.366 . S
C1576 C1577 1.414 . S
C1576 C1579 1.499 . S
C1577 H1551 0.950 . S
C1577 C1576 1.414 . S
C1577 C1578 1.374 . S
C1578 H1552 0.950 . S
C1578 C1574 1.385 . S
C1578 C1577 1.374 . S
C1579 C1576 1.499 . S
C1579 C1580 1.373 . S
C1579 C1581 1.389 . S
C1580 H1553 0.950 . S
C1580 C1566 1.377 . S
C1580 C1579 1.373 . S
C1581 C1565 1.377 . S
C1581 C1579 1.389 . S
C1581 C1582 1.524 . S
C1582 C1581 1.524 . S
C1582 C1583 1.397 . S
C1582 C1587 1.363 . S
C1583 H1554 0.950 . S
C1583 C1582 1.397 . S
C1583 C1584 1.334 . S
C1584 H1555 0.950 . S
C1584 C1583 1.334 . S
C1584 C1585 1.287 . S
C1585 C1584 1.287 . S
C1585 C1586 1.524 . S
C1585 H1588 0.999 . S
C1586 H1556 0.950 . S
C1586 C1585 1.524 . S
C1586 C1587 1.415 . S
C1587 H1557 0.950 . S
C1587 C1582 1.363 . S
C1587 C1586 1.415 . S
H1588 C1585 0.999 . S
H1589 C1570 0.913 . S
H1590 C1608 0.951 . S
H1591 C1610 0.951 . S
H1592 C1612 0.950 . S
H1593 C1613 0.950 . S
H1594 C1615 0.950 . S
H1595 C1618 0.950 . S
H1596 C1619 0.950 . S
H1597 C1621 0.950 . S
H1598 C1622 0.950 . S
H1599 C1623 0.951 . S
H1600 C1625 0.951 . S
H1601 C1627 0.950 . S
H1602 C1628 0.950 . S
H1603 C1630 0.950 . S
H1604 C1633 0.950 . S
H1605 C1634 0.950 . S
H1606 C1636 0.950 . S
H1607 C1637 0.950 . S
C1608 H1590 0.951 . S
C1608 C1609 1.366 . S
C1608 C1610 1.388 . S
C1609 C1608 1.366 . S
C1609 C1613 1.385 . S
C1610 H1591 0.951 . S
C1610 C1608 1.388 . S
C1610 C1611 1.366 . S
C1611 C1610 1.366 . S
C1611 C1612 1.414 . S
C1611 C1614 1.499 . S
C1612 H1592 0.950 . S
C1612 C1611 1.414 . S
C1612 C1613 1.374 . S
C1613 H1593 0.950 . S
C1613 C1609 1.385 . S
C1613 C1612 1.374 . S
C1614 C1611 1.499 . S
C1614 C1615 1.373 . S
C1614 C1616 1.389 . S
C1615 H1594 0.950 . S
C1615 C1614 1.373 . S
C1615 C1631 1.377 . S
C1616 C1614 1.389 . S
C1616 C1617 1.524 . S
C1616 C1630 1.377 . S
C1617 C1616 1.524 . S
C1617 C1618 1.397 . S
C1617 C1622 1.363 . S
C1618 H1595 0.950 . S
C1618 C1617 1.397 . S
C1618 C1619 1.334 . S
C1619 H1596 0.950 . S
C1619 C1618 1.334 . S
C1619 C1620 1.287 . S
C1620 C1619 1.287 . S
C1620 C1621 1.524 . S
C1620 H1639 0.913 . S
C1621 H1597 0.950 . S
C1621 C1620 1.524 . S
C1621 C1622 1.415 . S
C1622 H1598 0.950 . S
C1622 C1617 1.363 . S
C1622 C1621 1.415 . S
C1623 H1599 0.951 . S
C1623 C1624 1.366 . S
C1623 C1625 1.388 . S
C1624 C1623 1.366 . S
C1624 C1628 1.385 . S
C1625 H1600 0.951 . S
C1625 C1623 1.388 . S
C1625 C1626 1.366 . S
C1626 C1625 1.366 . S
C1626 C1627 1.414 . S
C1626 C1629 1.499 . S
C1627 H1601 0.950 . S
C1627 C1626 1.414 . S
C1627 C1628 1.374 . S
C1628 H1602 0.950 . S
C1628 C1624 1.385 . S
C1628 C1627 1.374 . S
C1629 C1626 1.499 . S
C1629 C1630 1.373 . S
C1629 C1631 1.389 . S
C1630 H1603 0.950 . S
C1630 C1616 1.377 . S
C1630 C1629 1.373 . S
C1631 C1615 1.377 . S
C1631 C1629 1.389 . S
C1631 C1632 1.524 . S
C1632 C1631 1.524 . S
C1632 C1633 1.397 . S
C1632 C1637 1.363 . S
C1633 H1604 0.950 . S
C1633 C1632 1.397 . S
C1633 C1634 1.334 . S
C1634 H1605 0.950 . S
C1634 C1633 1.334 . S
C1634 C1635 1.287 . S
C1635 C1634 1.287 . S
C1635 C1636 1.524 . S
C1635 H1638 0.999 . S
C1636 H1606 0.950 . S
C1636 C1635 1.524 . S
C1636 C1637 1.415 . S
C1637 H1607 0.950 . S
C1637 C1632 1.363 . S
C1637 C1636 1.415 . S
H1638 C1635 0.999 . S
H1639 C1620 0.913 . S
H1640 C1658 0.951 . S
H1641 C1660 0.951 . S
H1642 C1662 0.950 . S
H1643 C1663 0.950 . S
H1644 C1665 0.950 . S
H1645 C1668 0.950 . S
H1646 C1669 0.950 . S
H1647 C1671 0.950 . S
H1648 C1672 0.950 . S
H1649 C1673 0.951 . S
H1650 C1675 0.951 . S
H1651 C1677 0.950 . S
H1652 C1678 0.925 1_565 S
H1653 C1680 0.950 . S
H1654 C1683 0.950 . S
H1655 C1684 0.950 . S
H1656 C1686 0.950 . S
H1657 C1687 0.950 . S
C1658 H1640 0.951 . S
C1658 C1659 1.366 . S
C1658 C1660 1.388 . S
C1659 C1658 1.366 . S
C1659 C1663 1.385 . S
C1660 H1641 0.951 . S
C1660 C1658 1.388 . S
C1660 C1661 1.366 . S
C1661 C1660 1.366 . S
C1661 C1662 1.414 . S
C1661 C1664 1.499 . S
C1662 H1642 0.950 . S
C1662 C1661 1.414 . S
C1662 C1663 1.374 . S
C1663 H1643 0.950 . S
C1663 C1659 1.385 . S
C1663 C1662 1.374 . S
C1664 C1661 1.499 . S
C1664 C1665 1.373 . S
C1664 C1666 1.389 . S
C1665 H1644 0.950 . S
C1665 C1664 1.373 . S
C1665 C1681 1.377 . S
C1666 C1664 1.389 . S
C1666 C1667 1.524 . S
C1666 C1680 1.377 . S
C1667 C1666 1.524 . S
C1667 C1668 1.397 . S
C1667 C1672 1.363 . S
C1668 H1645 0.950 . S
C1668 C1667 1.397 . S
C1668 C1669 1.334 . S
C1669 H1646 0.950 . S
C1669 C1668 1.334 . S
C1669 C1670 1.287 . S
C1670 C1669 1.287 . S
C1670 C1671 1.524 . S
C1670 H1689 0.913 . S
C1671 H1647 0.950 . S
C1671 C1670 1.524 . S
C1671 C1672 1.415 . S
C1672 H1648 0.950 . S
C1672 C1667 1.363 . S
C1672 C1671 1.415 . S
C1673 H1649 0.951 . S
C1673 C1674 1.366 . S
C1673 C1675 1.388 . S
C1674 C1673 1.366 . S
C1674 C1678 1.385 . S
C1675 H1650 0.951 . S
C1675 C1673 1.388 . S
C1675 C1676 1.366 . S
C1676 C1675 1.366 . S
C1676 C1677 1.414 . S
C1676 C1679 1.499 . S
C1677 H1651 0.950 . S
C1677 C1676 1.414 . S
C1677 C1678 1.374 . S
C1678 H1652 0.925 1_545 S
C1678 C1674 1.385 . S
C1678 C1677 1.374 . S
C1679 C1676 1.499 . S
C1679 C1680 1.373 . S
C1679 C1681 1.389 . S
C1680 H1653 0.950 . S
C1680 C1666 1.377 . S
C1680 C1679 1.373 . S
C1681 C1665 1.377 . S
C1681 C1679 1.389 . S
C1681 C1682 1.524 . S
C1682 C1681 1.524 . S
C1682 C1683 1.397 . S
C1682 C1687 1.363 . S
C1683 H1654 0.950 . S
C1683 C1682 1.397 . S
C1683 C1684 1.334 . S
C1684 H1655 0.950 . S
C1684 C1683 1.334 . S
C1684 C1685 1.287 . S
C1685 C1684 1.287 . S
C1685 C1686 1.524 . S
C1685 H1688 0.999 . S
C1686 H1656 0.950 . S
C1686 C1685 1.524 . S
C1686 C1687 1.415 . S
C1687 H1657 0.950 . S
C1687 C1682 1.363 . S
C1687 C1686 1.415 . S
H1688 C1685 0.999 . S
H1689 C1670 0.913 . S
H1690 C1708 0.951 . S
H1691 C1710 0.951 . S
H1692 C1712 0.950 . S
H1693 C1713 0.950 . S
H1694 C1715 0.950 . S
H1695 C1718 0.950 . S
H1696 C1719 0.950 . S
H1697 C1721 0.950 . S
H1698 C1722 0.950 . S
H1699 C1723 0.951 . S
H1700 C1725 0.951 . S
H1701 C1727 0.950 . S
H1702 C1728 0.950 . S
H1703 C1730 0.950 . S
H1704 C1733 0.950 . S
H1705 C1734 0.950 . S
H1706 C1736 0.950 . S
H1707 C1737 0.950 . S
C1708 H1690 0.951 . S
C1708 C1709 1.366 . S
C1708 C1710 1.388 . S
C1709 C1708 1.366 . S
C1709 C1713 1.385 . S
C1710 H1691 0.951 . S
C1710 C1708 1.388 . S
C1710 C1711 1.366 . S
C1711 C1710 1.366 . S
C1711 C1712 1.414 . S
C1711 C1714 1.499 . S
C1712 H1692 0.950 . S
C1712 C1711 1.414 . S
C1712 C1713 1.374 . S
C1713 H1693 0.950 . S
C1713 C1709 1.385 . S
C1713 C1712 1.374 . S
C1714 C1711 1.499 . S
C1714 C1715 1.373 . S
C1714 C1716 1.389 . S
C1715 H1694 0.950 . S
C1715 C1714 1.373 . S
C1715 C1731 1.377 . S
C1716 C1714 1.389 . S
C1716 C1717 1.524 . S
C1716 C1730 1.377 . S
C1717 C1716 1.524 . S
C1717 C1718 1.397 . S
C1717 C1722 1.363 . S
C1718 H1695 0.950 . S
C1718 C1717 1.397 . S
C1718 C1719 1.334 . S
C1719 H1696 0.950 . S
C1719 C1718 1.334 . S
C1719 C1720 1.287 . S
C1720 C1719 1.287 . S
C1720 C1721 1.524 . S
C1720 H1739 0.913 . S
C1721 H1697 0.950 . S
C1721 C1720 1.524 . S
C1721 C1722 1.415 . S
C1722 H1698 0.950 . S
C1722 C1717 1.363 . S
C1722 C1721 1.415 . S
C1723 H1699 0.951 . S
C1723 C1724 1.366 . S
C1723 C1725 1.388 . S
C1724 C1723 1.366 . S
C1724 C1728 1.385 . S
C1725 H1700 0.951 . S
C1725 C1723 1.388 . S
C1725 C1726 1.366 . S
C1726 C1725 1.366 . S
C1726 C1727 1.414 . S
C1726 C1729 1.499 . S
C1727 H1701 0.950 . S
C1727 C1726 1.414 . S
C1727 C1728 1.374 . S
C1728 H1702 0.950 . S
C1728 C1724 1.385 . S
C1728 C1727 1.374 . S
C1729 C1726 1.499 . S
C1729 C1730 1.373 . S
C1729 C1731 1.389 . S
C1730 H1703 0.950 . S
C1730 C1716 1.377 . S
C1730 C1729 1.373 . S
C1731 C1715 1.377 . S
C1731 C1729 1.389 . S
C1731 C1732 1.524 . S
C1732 C1731 1.524 . S
C1732 C1733 1.397 . S
C1732 C1737 1.363 . S
C1733 H1704 0.950 . S
C1733 C1732 1.397 . S
C1733 C1734 1.334 . S
C1734 H1705 0.950 . S
C1734 C1733 1.334 . S
C1734 C1735 1.287 . S
C1735 C1734 1.287 . S
C1735 C1736 1.524 . S
C1735 H1738 0.999 . S
C1736 H1706 0.950 . S
C1736 C1735 1.524 . S
C1736 C1737 1.415 . S
C1737 H1707 0.950 . S
C1737 C1732 1.363 . S
C1737 C1736 1.415 . S
H1738 C1735 0.999 . S
H1739 C1720 0.913 . S
H1740 C1758 0.951 . S
H1741 C1760 0.951 . S
H1742 C1762 0.950 . S
H1743 C1763 0.950 . S
H1744 C1765 0.950 . S
H1745 C1768 0.950 . S
H1746 C1769 0.950 . S
H1747 C1771 0.950 . S
H1748 C1772 0.950 . S
H1749 C1773 0.951 . S
H1750 C1775 0.951 . S
H1751 C1777 0.950 . S
H1752 C1778 0.950 . S
H1753 C1780 0.950 . S
H1754 C1783 0.950 . S
H1755 C1784 0.950 . S
H1756 C1786 0.950 . S
H1757 C1787 0.950 . S
C1758 H1740 0.951 . S
C1758 C1759 1.366 . S
C1758 C1760 1.388 . S
C1759 C1758 1.366 . S
C1759 C1763 1.385 . S
C1760 H1741 0.951 . S
C1760 C1758 1.388 . S
C1760 C1761 1.366 . S
C1761 C1760 1.366 . S
C1761 C1762 1.414 . S
C1761 C1764 1.499 . S
C1762 H1742 0.950 . S
C1762 C1761 1.414 . S
C1762 C1763 1.374 . S
C1763 H1743 0.950 . S
C1763 C1759 1.385 . S
C1763 C1762 1.374 . S
C1764 C1761 1.499 . S
C1764 C1765 1.373 . S
C1764 C1766 1.389 . S
C1765 H1744 0.950 . S
C1765 C1764 1.373 . S
C1765 C1781 1.377 . S
C1766 C1764 1.389 . S
C1766 C1767 1.524 . S
C1766 C1780 1.377 . S
C1767 C1766 1.524 . S
C1767 C1768 1.397 . S
C1767 C1772 1.363 . S
C1768 H1745 0.950 . S
C1768 C1767 1.397 . S
C1768 C1769 1.334 . S
C1769 H1746 0.950 . S
C1769 C1768 1.334 . S
C1769 C1770 1.287 . S
C1770 C1769 1.287 . S
C1770 C1771 1.524 . S
C1770 H1789 0.913 . S
C1771 H1747 0.950 . S
C1771 C1770 1.524 . S
C1771 C1772 1.415 . S
C1772 H1748 0.950 . S
C1772 C1767 1.363 . S
C1772 C1771 1.415 . S
C1773 H1749 0.951 . S
C1773 C1774 1.366 . S
C1773 C1775 1.388 . S
C1774 C1773 1.366 . S
C1774 C1778 1.385 . S
C1775 H1750 0.951 . S
C1775 C1773 1.388 . S
C1775 C1776 1.366 . S
C1776 C1775 1.366 . S
C1776 C1777 1.414 . S
C1776 C1779 1.499 . S
C1777 H1751 0.950 . S
C1777 C1776 1.414 . S
C1777 C1778 1.374 . S
C1778 H1752 0.950 . S
C1778 C1774 1.385 . S
C1778 C1777 1.374 . S
C1779 C1776 1.499 . S
C1779 C1780 1.373 . S
C1779 C1781 1.389 . S
C1780 H1753 0.950 . S
C1780 C1766 1.377 . S
C1780 C1779 1.373 . S
C1781 C1765 1.377 . S
C1781 C1779 1.389 . S
C1781 C1782 1.524 . S
C1782 C1781 1.524 . S
C1782 C1783 1.397 . S
C1782 C1787 1.363 . S
C1783 H1754 0.950 . S
C1783 C1782 1.397 . S
C1783 C1784 1.334 . S
C1784 H1755 0.950 . S
C1784 C1783 1.334 . S
C1784 C1785 1.287 . S
C1785 C1784 1.287 . S
C1785 C1786 1.524 . S
C1785 H1788 0.999 . S
C1786 H1756 0.950 . S
C1786 C1785 1.524 . S
C1786 C1787 1.415 . S
C1787 H1757 0.950 . S
C1787 C1782 1.363 . S
C1787 C1786 1.415 . S
H1788 C1785 0.999 . S
H1789 C1770 0.913 . S
H1790 C1808 0.951 . S
H1791 C1810 0.951 . S
H1792 C1812 0.950 . S
H1793 C1813 0.950 . S
H1794 C1815 0.950 . S
H1795 C1818 0.950 . S
H1796 C1819 0.950 . S
H1797 C1821 0.950 . S
H1798 C1822 0.950 . S
H1799 C1823 0.951 . S
H1800 C1825 0.951 . S
H1801 C1827 0.950 . S
H1802 C1828 0.950 . S
H1803 C1830 0.950 . S
H1804 C1833 0.950 . S
H1805 C1834 0.950 . S
H1806 C1836 0.950 . S
H1807 C1837 0.950 . S
C1808 H1790 0.951 . S
C1808 C1809 1.366 . S
C1808 C1810 1.388 . S
C1809 C1808 1.366 . S
C1809 C1813 1.385 . S
C1810 H1791 0.951 . S
C1810 C1808 1.388 . S
C1810 C1811 1.366 . S
C1811 C1810 1.366 . S
C1811 C1812 1.414 . S
C1811 C1814 1.499 . S
C1812 H1792 0.950 . S
C1812 C1811 1.414 . S
C1812 C1813 1.374 . S
C1813 H1793 0.950 . S
C1813 C1809 1.385 . S
C1813 C1812 1.374 . S
C1814 C1811 1.499 . S
C1814 C1815 1.373 . S
C1814 C1816 1.389 . S
C1815 H1794 0.950 . S
C1815 C1814 1.373 . S
C1815 C1831 1.377 . S
C1816 C1814 1.389 . S
C1816 C1817 1.524 . S
C1816 C1830 1.377 . S
C1817 C1816 1.524 . S
C1817 C1818 1.397 . S
C1817 C1822 1.363 . S
C1818 H1795 0.950 . S
C1818 C1817 1.397 . S
C1818 C1819 1.334 . S
C1819 H1796 0.950 . S
C1819 C1818 1.334 . S
C1819 C1820 1.287 . S
C1820 C1819 1.287 . S
C1820 C1821 1.524 . S
C1820 H1839 0.913 . S
C1821 H1797 0.950 . S
C1821 C1820 1.524 . S
C1821 C1822 1.415 . S
C1822 H1798 0.950 . S
C1822 C1817 1.363 . S
C1822 C1821 1.415 . S
C1823 H1799 0.951 . S
C1823 C1824 1.366 . S
C1823 C1825 1.388 . S
C1824 C1823 1.366 . S
C1824 C1828 1.385 . S
C1825 H1800 0.951 . S
C1825 C1823 1.388 . S
C1825 C1826 1.366 . S
C1826 C1825 1.366 . S
C1826 C1827 1.414 . S
C1826 C1829 1.499 . S
C1827 H1801 0.950 . S
C1827 C1826 1.414 . S
C1827 C1828 1.374 . S
C1828 H1802 0.950 . S
C1828 C1824 1.385 . S
C1828 C1827 1.374 . S
C1829 C1826 1.499 . S
C1829 C1830 1.373 . S
C1829 C1831 1.389 . S
C1830 H1803 0.950 . S
C1830 C1816 1.377 . S
C1830 C1829 1.373 . S
C1831 C1815 1.377 . S
C1831 C1829 1.389 . S
C1831 C1832 1.524 . S
C1832 C1831 1.524 . S
C1832 C1833 1.397 . S
C1832 C1837 1.363 . S
C1833 H1804 0.950 . S
C1833 C1832 1.397 . S
C1833 C1834 1.334 1_455 S
C1834 H1805 0.950 . S
C1834 C1833 1.334 1_655 S
C1834 C1835 1.287 . S
C1835 C1834 1.287 . S
C1835 C1836 1.524 . S
C1835 H1838 0.999 . S
C1836 H1806 0.950 . S
C1836 C1835 1.524 . S
C1836 C1837 1.415 1_655 S
C1837 H1807 0.950 . S
C1837 C1832 1.363 . S
C1837 C1836 1.415 1_455 S
H1838 C1835 0.999 . S
H1839 C1820 0.913 . S
H1840 C1858 0.951 . S
H1841 C1860 0.951 . S
H1842 C1862 0.950 . S
H1843 C1863 0.950 . S
H1844 C1865 0.950 . S
H1845 C1868 0.950 . S
H1846 C1869 0.950 . S
H1847 C1871 0.950 . S
H1848 C1872 0.950 . S
H1849 C1873 0.951 . S
H1850 C1875 0.951 . S
H1851 C1877 0.950 . S
H1852 C1878 0.950 . S
H1853 C1880 0.950 . S
H1854 C1883 0.950 . S
H1855 C1884 0.950 . S
H1856 C1886 0.950 . S
H1857 C1887 0.950 . S
C1858 H1840 0.951 . S
C1858 C1859 1.366 . S
C1858 C1860 1.388 . S
C1859 C1858 1.366 . S
C1859 C1863 1.385 . S
C1860 H1841 0.951 . S
C1860 C1858 1.388 . S
C1860 C1861 1.366 . S
C1861 C1860 1.366 . S
C1861 C1862 1.414 . S
C1861 C1864 1.499 . S
C1862 H1842 0.950 . S
C1862 C1861 1.414 . S
C1862 C1863 1.374 . S
C1863 H1843 0.950 . S
C1863 C1859 1.385 . S
C1863 C1862 1.374 . S
C1864 C1861 1.499 . S
C1864 C1865 1.373 . S
C1864 C1866 1.389 . S
C1865 H1844 0.950 . S
C1865 C1864 1.373 . S
C1865 C1881 1.377 . S
C1866 C1864 1.389 . S
C1866 C1867 1.524 . S
C1866 C1880 1.377 . S
C1867 C1866 1.524 . S
C1867 C1868 1.397 . S
C1867 C1872 1.363 . S
C1868 H1845 0.950 . S
C1868 C1867 1.397 . S
C1868 C1869 1.334 . S
C1869 H1846 0.950 . S
C1869 C1868 1.334 . S
C1869 C1870 1.287 . S
C1870 C1869 1.287 . S
C1870 C1871 1.524 . S
C1870 H1889 0.913 . S
C1871 H1847 0.950 . S
C1871 C1870 1.524 . S
C1871 C1872 1.415 . S
C1872 H1848 0.950 . S
C1872 C1867 1.363 . S
C1872 C1871 1.415 . S
C1873 H1849 0.951 . S
C1873 C1874 1.366 . S
C1873 C1875 1.388 . S
C1874 C1873 1.366 . S
C1874 C1878 1.385 . S
C1875 H1850 0.951 . S
C1875 C1873 1.388 . S
C1875 C1876 1.366 . S
C1876 C1875 1.366 . S
C1876 C1877 1.414 . S
C1876 C1879 1.499 . S
C1877 H1851 0.950 . S
C1877 C1876 1.414 . S
C1877 C1878 1.374 . S
C1878 H1852 0.950 . S
C1878 C1874 1.385 . S
C1878 C1877 1.374 . S
C1879 C1876 1.499 . S
C1879 C1880 1.373 . S
C1879 C1881 1.389 . S
C1880 H1853 0.950 . S
C1880 C1866 1.377 . S
C1880 C1879 1.373 . S
C1881 C1865 1.377 . S
C1881 C1879 1.389 . S
C1881 C1882 1.524 . S
C1882 C1881 1.524 . S
C1882 C1883 1.397 . S
C1882 C1887 1.363 . S
C1883 H1854 0.950 . S
C1883 C1882 1.397 . S
C1883 C1884 1.334 . S
C1884 H1855 0.950 . S
C1884 C1883 1.334 . S
C1884 C1885 1.287 . S
C1885 C1884 1.287 . S
C1885 C1886 1.524 . S
C1885 H1888 0.999 . S
C1886 H1856 0.950 . S
C1886 C1885 1.524 . S
C1886 C1887 1.415 . S
C1887 H1857 0.950 . S
C1887 C1882 1.363 . S
C1887 C1886 1.415 . S
H1888 C1885 0.999 . S
H1889 C1870 0.913 . S
H1890 C1908 0.951 . S
H1891 C1910 0.951 . S
H1892 C1912 0.950 . S
H1893 C1913 0.950 . S
H1894 C1915 0.950 . S
H1895 C1918 0.950 . S
H1896 C1919 0.950 . S
H1897 C1921 0.950 . S
H1898 C1922 0.950 . S
H1899 C1923 0.951 . S
H1900 C1925 0.951 . S
H1901 C1927 0.950 . S
H1902 C1928 0.950 . S
H1903 C1930 0.950 . S
H1904 C1933 0.950 . S
H1905 C1934 0.950 . S
H1906 C1936 0.950 . S
H1907 C1937 0.950 . S
C1908 H1890 0.951 . S
C1908 C1909 1.366 . S
C1908 C1910 1.388 . S
C1909 C1908 1.366 . S
C1909 C1913 1.385 . S
C1910 H1891 0.951 . S
C1910 C1908 1.388 . S
C1910 C1911 1.366 . S
C1911 C1910 1.366 . S
C1911 C1912 1.414 . S
C1911 C1914 1.499 . S
C1912 H1892 0.950 . S
C1912 C1911 1.414 . S
C1912 C1913 1.374 . S
C1913 H1893 0.950 . S
C1913 C1909 1.385 . S
C1913 C1912 1.374 . S
C1914 C1911 1.499 . S
C1914 C1915 1.373 . S
C1914 C1916 1.389 . S
C1915 H1894 0.950 . S
C1915 C1914 1.373 . S
C1915 C1931 1.377 . S
C1916 C1914 1.389 . S
C1916 C1917 1.524 . S
C1916 C1930 1.377 . S
C1917 C1916 1.524 . S
C1917 C1918 1.397 . S
C1917 C1922 1.363 . S
C1918 H1895 0.950 . S
C1918 C1917 1.397 . S
C1918 C1919 1.334 . S
C1919 H1896 0.950 . S
C1919 C1918 1.334 . S
C1919 C1920 1.287 . S
C1920 C1919 1.287 . S
C1920 C1921 1.524 . S
C1920 H1939 0.913 . S
C1921 H1897 0.950 . S
C1921 C1920 1.524 . S
C1921 C1922 1.415 . S
C1922 H1898 0.950 . S
C1922 C1917 1.363 . S
C1922 C1921 1.415 . S
C1923 H1899 0.951 . S
C1923 C1924 1.366 . S
C1923 C1925 1.388 . S
C1924 C1923 1.366 . S
C1924 C1928 1.385 . S
C1925 H1900 0.951 . S
C1925 C1923 1.388 . S
C1925 C1926 1.366 . S
C1926 C1925 1.366 . S
C1926 C1927 1.414 . S
C1926 C1929 1.499 . S
C1927 H1901 0.950 . S
C1927 C1926 1.414 . S
C1927 C1928 1.374 . S
C1928 H1902 0.950 . S
C1928 C1924 1.385 . S
C1928 C1927 1.374 . S
C1929 C1926 1.499 . S
C1929 C1930 1.373 . S
C1929 C1931 1.389 . S
C1930 H1903 0.950 . S
C1930 C1916 1.377 . S
C1930 C1929 1.373 . S
C1931 C1915 1.377 . S
C1931 C1929 1.389 . S
C1931 C1932 1.524 . S
C1932 C1931 1.524 . S
C1932 C1933 1.397 . S
C1932 C1937 1.363 . S
C1933 H1904 0.950 . S
C1933 C1932 1.397 . S
C1933 C1934 1.334 . S
C1934 H1905 0.950 . S
C1934 C1933 1.334 . S
C1934 C1935 1.287 . S
C1935 C1934 1.287 . S
C1935 C1936 1.524 . S
C1935 H1938 0.999 . S
C1936 H1906 0.950 . S
C1936 C1935 1.524 . S
C1936 C1937 1.415 . S
C1937 H1907 0.950 . S
C1937 C1932 1.363 . S
C1937 C1936 1.415 . S
H1938 C1935 0.999 . S
H1939 C1920 0.913 . S
H1940 C1958 0.951 . S
H1941 C1960 0.951 . S
H1942 C1962 0.950 . S
H1943 C1963 0.950 . S
H1944 C1965 0.950 . S
H1945 C1968 0.950 . S
H1946 C1969 0.950 . S
H1947 C1971 0.950 . S
H1948 C1972 0.950 . S
H1949 C1973 0.951 . S
H1950 C1975 0.951 . S
H1951 C1977 0.950 . S
H1952 C1978 0.950 . S
H1953 C1980 0.950 . S
H1954 C1983 0.950 . S
H1955 C1984 0.950 . S
H1956 C1986 0.950 . S
H1957 C1987 0.950 . S
C1958 H1940 0.951 . S
C1958 C1959 1.366 . S
C1958 C1960 1.388 . S
C1959 C1958 1.366 . S
C1959 C1963 1.385 . S
C1960 H1941 0.951 . S
C1960 C1958 1.388 . S
C1960 C1961 1.366 . S
C1961 C1960 1.366 . S
C1961 C1962 1.414 . S
C1961 C1964 1.499 . S
C1962 H1942 0.950 . S
C1962 C1961 1.414 . S
C1962 C1963 1.374 . S
C1963 H1943 0.950 . S
C1963 C1959 1.385 . S
C1963 C1962 1.374 . S
C1964 C1961 1.499 . S
C1964 C1965 1.373 . S
C1964 C1966 1.389 . S
C1965 H1944 0.950 . S
C1965 C1964 1.373 . S
C1965 C1981 1.377 . S
C1966 C1964 1.389 . S
C1966 C1967 1.524 . S
C1966 C1980 1.377 . S
C1967 C1966 1.524 . S
C1967 C1968 1.397 . S
C1967 C1972 1.363 . S
C1968 H1945 0.950 . S
C1968 C1967 1.397 . S
C1968 C1969 1.334 . S
C1969 H1946 0.950 . S
C1969 C1968 1.334 . S
C1969 C1970 1.287 . S
C1970 C1969 1.287 . S
C1970 C1971 1.524 . S
C1970 H1989 0.913 . S
C1971 H1947 0.950 . S
C1971 C1970 1.524 . S
C1971 C1972 1.415 . S
C1972 H1948 0.950 . S
C1972 C1967 1.363 . S
C1972 C1971 1.415 . S
C1973 H1949 0.951 . S
C1973 C1974 1.366 . S
C1973 C1975 1.388 . S
C1974 C1973 1.366 . S
C1974 C1978 1.385 . S
C1975 H1950 0.951 . S
C1975 C1973 1.388 . S
C1975 C1976 1.366 . S
C1976 C1975 1.366 . S
C1976 C1977 1.414 . S
C1976 C1979 1.499 . S
C1977 H1951 0.950 . S
C1977 C1976 1.414 . S
C1977 C1978 1.374 . S
C1978 H1952 0.950 . S
C1978 C1974 1.385 . S
C1978 C1977 1.374 . S
C1979 C1976 1.499 . S
C1979 C1980 1.373 . S
C1979 C1981 1.389 . S
C1980 H1953 0.950 . S
C1980 C1966 1.377 . S
C1980 C1979 1.373 . S
C1981 C1965 1.377 . S
C1981 C1979 1.389 . S
C1981 C1982 1.524 . S
C1982 C1981 1.524 . S
C1982 C1983 1.397 . S
C1982 C1987 1.363 . S
C1983 H1954 0.950 . S
C1983 C1982 1.397 . S
C1983 C1984 1.334 . S
C1984 H1955 0.950 . S
C1984 C1983 1.334 . S
C1984 C1985 1.287 . S
C1985 C1984 1.287 . S
C1985 C1986 1.524 . S
C1985 H1988 0.999 . S
C1986 H1956 0.950 . S
C1986 C1985 1.524 . S
C1986 C1987 1.415 . S
C1987 H1957 0.950 . S
C1987 C1982 1.363 . S
C1987 C1986 1.415 . S
H1988 C1985 0.999 . S
H1989 C1970 0.913 . S
H1990 C2008 0.951 . S
H1991 C2010 0.951 . S
H1992 C2012 0.950 . S
H1993 C2013 0.950 . S
H1994 C2015 0.950 . S
H1995 C2018 0.950 . S
H1996 C2019 0.950 . S
H1997 C2021 0.950 1_556 S
H1998 C2022 0.950 . S
H1999 C2023 0.951 . S
H2000 C2025 0.951 . S
H2001 C2027 0.950 . S
H2002 C2028 0.950 . S
H2003 C2030 0.950 . S
H2004 C2033 0.950 . S
H2005 C2034 0.950 . S
H2006 C2036 0.950 . S
H2007 C2037 0.950 . S
C2008 H1990 0.951 . S
C2008 C2009 1.366 . S
C2008 C2010 1.388 . S
C2009 C2008 1.366 . S
C2009 C2013 1.385 . S
C2010 H1991 0.951 . S
C2010 C2008 1.388 . S
C2010 C2011 1.366 . S
C2011 C2010 1.366 . S
C2011 C2012 1.414 . S
C2011 C2014 1.499 . S
C2012 H1992 0.950 . S
C2012 C2011 1.414 . S
C2012 C2013 1.374 . S
C2013 H1993 0.950 . S
C2013 C2009 1.385 . S
C2013 C2012 1.374 . S
C2014 C2011 1.499 . S
C2014 C2015 1.373 . S
C2014 C2016 1.389 . S
C2015 H1994 0.950 . S
C2015 C2014 1.373 . S
C2015 C2031 1.377 . S
C2016 C2014 1.389 . S
C2016 C2017 1.524 . S
C2016 C2030 1.377 . S
C2017 C2016 1.524 . S
C2017 C2018 1.397 . S
C2017 C2022 1.363 . S
C2018 H1995 0.950 . S
C2018 C2017 1.397 . S
C2018 C2019 1.334 . S
C2019 H1996 0.950 . S
C2019 C2018 1.334 . S
C2019 C2020 1.287 . S
C2020 C2019 1.287 . S
C2020 C2021 1.524 . S
C2020 H2039 0.913 1_554 S
C2021 H1997 0.950 1_554 S
C2021 C2020 1.524 . S
C2021 C2022 1.415 . S
C2022 H1998 0.950 . S
C2022 C2017 1.363 . S
C2022 C2021 1.415 . S
C2023 H1999 0.951 . S
C2023 C2024 1.366 . S
C2023 C2025 1.388 . S
C2024 C2023 1.366 . S
C2024 C2028 1.385 . S
C2025 H2000 0.951 . S
C2025 C2023 1.388 . S
C2025 C2026 1.366 . S
C2026 C2025 1.366 . S
C2026 C2027 1.414 . S
C2026 C2029 1.499 . S
C2027 H2001 0.950 . S
C2027 C2026 1.414 . S
C2027 C2028 1.374 . S
C2028 H2002 0.950 . S
C2028 C2024 1.385 . S
C2028 C2027 1.374 . S
C2029 C2026 1.499 . S
C2029 C2030 1.373 . S
C2029 C2031 1.389 . S
C2030 H2003 0.950 . S
C2030 C2016 1.377 . S
C2030 C2029 1.373 . S
C2031 C2015 1.377 . S
C2031 C2029 1.389 . S
C2031 C2032 1.524 . S
C2032 C2031 1.524 . S
C2032 C2033 1.397 . S
C2032 C2037 1.363 . S
C2033 H2004 0.950 . S
C2033 C2032 1.397 . S
C2033 C2034 1.334 . S
C2034 H2005 0.950 . S
C2034 C2033 1.334 . S
C2034 C2035 1.287 . S
C2035 C2034 1.287 . S
C2035 C2036 1.524 . S
C2035 H2038 0.999 . S
C2036 H2006 0.950 . S
C2036 C2035 1.524 . S
C2036 C2037 1.415 . S
C2037 H2007 0.950 . S
C2037 C2032 1.363 . S
C2037 C2036 1.415 . S
H2038 C2035 0.999 . S
H2039 C2020 0.913 1_556 S
H2040 C2058 0.951 . S
H2041 C2060 0.951 . S
H2042 C2062 0.950 . S
H2043 C2063 0.950 . S
H2044 C2065 0.950 . S
H2045 C2068 0.950 . S
H2046 C2069 0.950 . S
H2047 C2071 0.950 . S
H2048 C2072 0.950 . S
H2049 C2073 0.951 . S
H2050 C2075 0.951 . S
H2051 C2077 0.950 . S
H2052 C2078 0.950 . S
H2053 C2080 0.950 . S
H2054 C2083 0.950 . S
H2055 C2084 0.950 . S
H2056 C2086 0.950 . S
H2057 C2087 0.950 . S
C2058 H2040 0.951 . S
C2058 C2059 1.366 . S
C2058 C2060 1.388 . S
C2059 C2058 1.366 . S
C2059 C2063 1.385 . S
C2060 H2041 0.951 . S
C2060 C2058 1.388 . S
C2060 C2061 1.366 . S
C2061 C2060 1.366 . S
C2061 C2062 1.414 . S
C2061 C2064 1.499 . S
C2062 H2042 0.950 . S
C2062 C2061 1.414 . S
C2062 C2063 1.374 . S
C2063 H2043 0.950 . S
C2063 C2059 1.385 . S
C2063 C2062 1.374 . S
C2064 C2061 1.499 . S
C2064 C2065 1.373 . S
C2064 C2066 1.389 . S
C2065 H2044 0.950 . S
C2065 C2064 1.373 . S
C2065 C2081 1.377 . S
C2066 C2064 1.389 . S
C2066 C2067 1.524 . S
C2066 C2080 1.377 . S
C2067 C2066 1.524 . S
C2067 C2068 1.397 . S
C2067 C2072 1.363 . S
C2068 H2045 0.950 . S
C2068 C2067 1.397 . S
C2068 C2069 1.334 . S
C2069 H2046 0.950 . S
C2069 C2068 1.334 . S
C2069 C2070 1.287 . S
C2070 C2069 1.287 . S
C2070 C2071 1.524 . S
C2070 H2089 0.913 . S
C2071 H2047 0.950 . S
C2071 C2070 1.524 . S
C2071 C2072 1.415 . S
C2072 H2048 0.950 . S
C2072 C2067 1.363 . S
C2072 C2071 1.415 . S
C2073 H2049 0.951 . S
C2073 C2074 1.366 . S
C2073 C2075 1.388 . S
C2074 C2073 1.366 . S
C2074 C2078 1.385 . S
C2075 H2050 0.951 . S
C2075 C2073 1.388 . S
C2075 C2076 1.366 . S
C2076 C2075 1.366 . S
C2076 C2077 1.414 . S
C2076 C2079 1.499 . S
C2077 H2051 0.950 . S
C2077 C2076 1.414 . S
C2077 C2078 1.374 . S
C2078 H2052 0.950 . S
C2078 C2074 1.385 . S
C2078 C2077 1.374 . S
C2079 C2076 1.499 . S
C2079 C2080 1.373 . S
C2079 C2081 1.389 . S
C2080 H2053 0.950 . S
C2080 C2066 1.377 . S
C2080 C2079 1.373 . S
C2081 C2065 1.377 . S
C2081 C2079 1.389 . S
C2081 C2082 1.524 . S
C2082 C2081 1.524 . S
C2082 C2083 1.397 . S
C2082 C2087 1.363 . S
C2083 H2054 0.950 . S
C2083 C2082 1.397 . S
C2083 C2084 1.334 . S
C2084 H2055 0.950 . S
C2084 C2083 1.334 . S
C2084 C2085 1.287 . S
C2085 C2084 1.287 . S
C2085 C2086 1.524 . S
C2085 H2088 0.999 . S
C2086 H2056 0.950 . S
C2086 C2085 1.524 . S
C2086 C2087 1.415 . S
C2087 H2057 0.950 . S
C2087 C2082 1.363 . S
C2087 C2086 1.415 . S
H2088 C2085 0.999 . S
H2089 C2070 0.913 . S
H2090 C2108 0.951 . S
H2091 C2110 0.951 . S
H2092 C2112 0.950 . S
H2093 C2113 0.950 . S
H2094 C2115 0.950 . S
H2095 C2118 0.950 . S
H2096 C2119 0.950 . S
H2097 C2121 0.950 . S
H2098 C2122 0.950 . S
H2099 C2123 0.951 . S
H2100 C2125 0.951 . S
H2101 C2127 0.950 . S
H2102 C2128 0.950 . S
H2103 C2130 0.950 . S
H2104 C2133 0.950 . S
H2105 C2134 0.950 . S
H2106 C2136 0.950 . S
H2107 C2137 0.950 . S
C2108 H2090 0.951 . S
C2108 C2109 1.366 . S
C2108 C2110 1.388 . S
C2109 C2108 1.366 . S
C2109 C2113 1.385 . S
C2110 H2091 0.951 . S
C2110 C2108 1.388 . S
C2110 C2111 1.366 . S
C2111 C2110 1.366 . S
C2111 C2112 1.414 . S
C2111 C2114 1.499 . S
C2112 H2092 0.950 . S
C2112 C2111 1.414 . S
C2112 C2113 1.374 . S
C2113 H2093 0.950 . S
C2113 C2109 1.385 . S
C2113 C2112 1.374 . S
C2114 C2111 1.499 . S
C2114 C2115 1.373 . S
C2114 C2116 1.389 . S
C2115 H2094 0.950 . S
C2115 C2114 1.373 . S
C2115 C2131 1.377 . S
C2116 C2114 1.389 . S
C2116 C2117 1.524 . S
C2116 C2130 1.377 . S
C2117 C2116 1.524 . S
C2117 C2118 1.397 . S
C2117 C2122 1.363 . S
C2118 H2095 0.950 . S
C2118 C2117 1.397 . S
C2118 C2119 1.334 . S
C2119 H2096 0.950 . S
C2119 C2118 1.334 . S
C2119 C2120 1.287 . S
C2120 C2119 1.287 . S
C2120 C2121 1.524 . S
C2120 H2139 0.913 . S
C2121 H2097 0.950 . S
C2121 C2120 1.524 . S
C2121 C2122 1.415 . S
C2122 H2098 0.950 . S
C2122 C2117 1.363 . S
C2122 C2121 1.415 . S
C2123 H2099 0.951 . S
C2123 C2124 1.366 . S
C2123 C2125 1.388 . S
C2124 C2123 1.366 . S
C2124 C2128 1.385 . S
C2125 H2100 0.951 . S
C2125 C2123 1.388 . S
C2125 C2126 1.366 . S
C2126 C2125 1.366 . S
C2126 C2127 1.414 . S
C2126 C2129 1.499 . S
C2127 H2101 0.950 . S
C2127 C2126 1.414 . S
C2127 C2128 1.374 . S
C2128 H2102 0.950 . S
C2128 C2124 1.385 . S
C2128 C2127 1.374 . S
C2129 C2126 1.499 . S
C2129 C2130 1.373 . S
C2129 C2131 1.389 . S
C2130 H2103 0.950 . S
C2130 C2116 1.377 . S
C2130 C2129 1.373 . S
C2131 C2115 1.377 . S
C2131 C2129 1.389 . S
C2131 C2132 1.524 . S
C2132 C2131 1.524 . S
C2132 C2133 1.397 . S
C2132 C2137 1.363 . S
C2133 H2104 0.950 . S
C2133 C2132 1.397 . S
C2133 C2134 1.334 . S
C2134 H2105 0.950 . S
C2134 C2133 1.334 . S
C2134 C2135 1.287 . S
C2135 C2134 1.287 . S
C2135 C2136 1.524 . S
C2135 H2138 0.999 . S
C2136 H2106 0.950 . S
C2136 C2135 1.524 . S
C2136 C2137 1.415 . S
C2137 H2107 0.950 . S
C2137 C2132 1.363 . S
C2137 C2136 1.415 . S
H2138 C2135 0.999 . S
H2139 C2120 0.913 . S
H2140 C2158 0.951 . S
H2141 C2160 0.951 . S
H2142 C2162 0.950 . S
H2143 C2163 0.950 . S
H2144 C2165 0.950 . S
H2145 C2168 0.950 . S
H2146 C2169 0.950 . S
H2147 C2171 0.950 . S
H2148 C2172 0.950 . S
H2149 C2173 0.951 . S
H2150 C2175 0.951 . S
H2151 C2177 0.950 . S
H2152 C2178 0.950 . S
H2153 C2180 0.950 . S
H2154 C2183 0.950 . S
H2155 C2184 0.950 . S
H2156 C2186 0.950 . S
H2157 C2187 0.950 . S
C2158 H2140 0.951 . S
C2158 C2159 1.366 . S
C2158 C2160 1.388 . S
C2159 C2158 1.366 . S
C2159 C2163 1.385 . S
C2160 H2141 0.951 . S
C2160 C2158 1.388 . S
C2160 C2161 1.366 . S
C2161 C2160 1.366 . S
C2161 C2162 1.414 . S
C2161 C2164 1.499 . S
C2162 H2142 0.950 . S
C2162 C2161 1.414 . S
C2162 C2163 1.374 . S
C2163 H2143 0.950 . S
C2163 C2159 1.385 . S
C2163 C2162 1.374 . S
C2164 C2161 1.499 . S
C2164 C2165 1.373 . S
C2164 C2166 1.389 . S
C2165 H2144 0.950 . S
C2165 C2164 1.373 . S
C2165 C2181 1.377 . S
C2166 C2164 1.389 . S
C2166 C2167 1.524 . S
C2166 C2180 1.377 . S
C2167 C2166 1.524 . S
C2167 C2168 1.397 . S
C2167 C2172 1.363 . S
C2168 H2145 0.950 . S
C2168 C2167 1.397 . S
C2168 C2169 1.334 . S
C2169 H2146 0.950 . S
C2169 C2168 1.334 . S
C2169 C2170 1.287 . S
C2170 C2169 1.287 . S
C2170 C2171 1.524 . S
C2170 H2189 0.913 . S
C2171 H2147 0.950 . S
C2171 C2170 1.524 . S
C2171 C2172 1.415 . S
C2172 H2148 0.950 . S
C2172 C2167 1.363 . S
C2172 C2171 1.415 . S
C2173 H2149 0.951 . S
C2173 C2174 1.366 . S
C2173 C2175 1.388 . S
C2174 C2173 1.366 . S
C2174 C2178 1.385 . S
C2175 H2150 0.951 . S
C2175 C2173 1.388 . S
C2175 C2176 1.366 . S
C2176 C2175 1.366 . S
C2176 C2177 1.414 . S
C2176 C2179 1.499 . S
C2177 H2151 0.950 . S
C2177 C2176 1.414 . S
C2177 C2178 1.374 . S
C2178 H2152 0.950 . S
C2178 C2174 1.385 . S
C2178 C2177 1.374 . S
C2179 C2176 1.499 . S
C2179 C2180 1.373 . S
C2179 C2181 1.389 . S
C2180 H2153 0.950 . S
C2180 C2166 1.377 . S
C2180 C2179 1.373 . S
C2181 C2165 1.377 . S
C2181 C2179 1.389 . S
C2181 C2182 1.524 . S
C2182 C2181 1.524 . S
C2182 C2183 1.397 . S
C2182 C2187 1.363 . S
C2183 H2154 0.950 . S
C2183 C2182 1.397 . S
C2183 C2184 1.334 . S
C2184 H2155 0.950 . S
C2184 C2183 1.334 . S
C2184 C2185 1.287 . S
C2185 C2184 1.287 . S
C2185 C2186 1.524 . S
C2185 H2188 0.999 . S
C2186 H2156 0.950 . S
C2186 C2185 1.524 . S
C2186 C2187 1.415 . S
C2187 H2157 0.950 . S
C2187 C2182 1.363 . S
C2187 C2186 1.415 . S
H2188 C2185 0.999 . S
H2189 C2170 0.913 . S
H2190 C2208 0.951 . S
H2191 C2210 0.951 . S
H2192 C2212 0.950 . S
H2193 C2213 0.950 . S
H2194 C2215 0.950 . S
H2195 C2218 0.950 . S
H2196 C2219 0.950 . S
H2197 C2221 0.950 . S
H2198 C2222 0.950 . S
H2199 C2223 0.951 . S
H2200 C2225 0.951 . S
H2201 C2227 0.950 . S
H2202 C2228 0.950 . S
H2203 C2230 0.950 . S
H2204 C2233 0.950 . S
H2205 C2234 0.950 . S
H2206 C2236 0.950 . S
H2207 C2237 0.950 . S
C2208 H2190 0.951 . S
C2208 C2209 1.366 . S
C2208 C2210 1.388 . S
C2209 C2208 1.366 . S
C2209 C2213 1.385 . S
C2210 H2191 0.951 . S
C2210 C2208 1.388 . S
C2210 C2211 1.366 . S
C2211 C2210 1.366 . S
C2211 C2212 1.414 . S
C2211 C2214 1.499 . S
C2212 H2192 0.950 . S
C2212 C2211 1.414 . S
C2212 C2213 1.374 . S
C2213 H2193 0.950 . S
C2213 C2209 1.385 . S
C2213 C2212 1.374 . S
C2214 C2211 1.499 . S
C2214 C2215 1.373 . S
C2214 C2216 1.389 . S
C2215 H2194 0.950 . S
C2215 C2214 1.373 . S
C2215 C2231 1.377 . S
C2216 C2214 1.389 . S
C2216 C2217 1.524 . S
C2216 C2230 1.377 . S
C2217 C2216 1.524 . S
C2217 C2218 1.397 . S
C2217 C2222 1.363 . S
C2218 H2195 0.950 . S
C2218 C2217 1.397 . S
C2218 C2219 1.334 . S
C2219 H2196 0.950 . S
C2219 C2218 1.334 . S
C2219 C2220 1.287 . S
C2220 C2219 1.287 . S
C2220 C2221 1.524 . S
C2220 H2239 0.913 1_556 S
C2221 H2197 0.950 . S
C2221 C2220 1.524 . S
C2221 C2222 1.415 . S
C2222 H2198 0.950 . S
C2222 C2217 1.363 . S
C2222 C2221 1.415 . S
C2223 H2199 0.951 . S
C2223 C2224 1.366 . S
C2223 C2225 1.388 . S
C2224 C2223 1.366 . S
C2224 C2228 1.385 . S
C2225 H2200 0.951 . S
C2225 C2223 1.388 . S
C2225 C2226 1.366 . S
C2226 C2225 1.366 . S
C2226 C2227 1.414 . S
C2226 C2229 1.499 . S
C2227 H2201 0.950 . S
C2227 C2226 1.414 . S
C2227 C2228 1.374 . S
C2228 H2202 0.950 . S
C2228 C2224 1.385 . S
C2228 C2227 1.374 . S
C2229 C2226 1.499 . S
C2229 C2230 1.373 . S
C2229 C2231 1.389 . S
C2230 H2203 0.950 . S
C2230 C2216 1.377 . S
C2230 C2229 1.373 . S
C2231 C2215 1.377 . S
C2231 C2229 1.389 . S
C2231 C2232 1.524 . S
C2232 C2231 1.524 . S
C2232 C2233 1.397 . S
C2232 C2237 1.363 . S
C2233 H2204 0.950 . S
C2233 C2232 1.397 . S
C2233 C2234 1.334 . S
C2234 H2205 0.950 . S
C2234 C2233 1.334 . S
C2234 C2235 1.287 . S
C2235 C2234 1.287 . S
C2235 C2236 1.524 . S
C2235 H2238 0.999 . S
C2236 H2206 0.950 . S
C2236 C2235 1.524 . S
C2236 C2237 1.415 . S
C2237 H2207 0.950 . S
C2237 C2232 1.363 . S
C2237 C2236 1.415 . S
H2238 C2235 0.999 . S
H2239 C2220 0.913 1_554 S
H2240 C2258 0.951 . S
H2241 C2260 0.951 . S
H2242 C2262 0.950 . S
H2243 C2263 0.950 . S
H2244 C2265 0.950 . S
H2245 C2268 0.950 . S
H2246 C2269 0.950 . S
H2247 C2271 0.950 . S
H2248 C2272 0.950 . S
H2249 C2273 0.951 . S
H2250 C2275 0.951 . S
H2251 C2277 0.950 . S
H2252 C2278 0.950 . S
H2253 C2280 0.950 . S
H2254 C2283 0.950 . S
H2255 C2284 0.950 . S
H2256 C2286 0.950 . S
H2257 C2287 0.950 . S
C2258 H2240 0.951 . S
C2258 C2259 1.366 . S
C2258 C2260 1.388 . S
C2259 C2258 1.366 . S
C2259 C2263 1.385 . S
C2260 H2241 0.951 . S
C2260 C2258 1.388 . S
C2260 C2261 1.366 . S
C2261 C2260 1.366 . S
C2261 C2262 1.414 . S
C2261 C2264 1.499 . S
C2262 H2242 0.950 . S
C2262 C2261 1.414 . S
C2262 C2263 1.374 . S
C2263 H2243 0.950 . S
C2263 C2259 1.385 . S
C2263 C2262 1.374 . S
C2264 C2261 1.499 . S
C2264 C2265 1.373 . S
C2264 C2266 1.389 . S
C2265 H2244 0.950 . S
C2265 C2264 1.373 . S
C2265 C2281 1.377 . S
C2266 C2264 1.389 . S
C2266 C2267 1.524 . S
C2266 C2280 1.377 . S
C2267 C2266 1.524 . S
C2267 C2268 1.397 . S
C2267 C2272 1.363 . S
C2268 H2245 0.950 . S
C2268 C2267 1.397 . S
C2268 C2269 1.334 . S
C2269 H2246 0.950 . S
C2269 C2268 1.334 . S
C2269 C2270 1.287 . S
C2270 C2269 1.287 . S
C2270 C2271 1.524 . S
C2270 H2289 0.913 . S
C2271 H2247 0.950 . S
C2271 C2270 1.524 . S
C2271 C2272 1.415 . S
C2272 H2248 0.950 . S
C2272 C2267 1.363 . S
C2272 C2271 1.415 . S
C2273 H2249 0.951 . S
C2273 C2274 1.366 . S
C2273 C2275 1.388 . S
C2274 C2273 1.366 . S
C2274 C2278 1.385 . S
C2275 H2250 0.951 . S
C2275 C2273 1.388 . S
C2275 C2276 1.366 . S
C2276 C2275 1.366 . S
C2276 C2277 1.414 . S
C2276 C2279 1.499 . S
C2277 H2251 0.950 . S
C2277 C2276 1.414 . S
C2277 C2278 1.374 . S
C2278 H2252 0.950 . S
C2278 C2274 1.385 . S
C2278 C2277 1.374 . S
C2279 C2276 1.499 . S
C2279 C2280 1.373 . S
C2279 C2281 1.389 . S
C2280 H2253 0.950 . S
C2280 C2266 1.377 . S
C2280 C2279 1.373 . S
C2281 C2265 1.377 . S
C2281 C2279 1.389 . S
C2281 C2282 1.524 . S
C2282 C2281 1.524 . S
C2282 C2283 1.397 . S
C2282 C2287 1.363 . S
C2283 H2254 0.950 . S
C2283 C2282 1.397 . S
C2283 C2284 1.334 . S
C2284 H2255 0.950 . S
C2284 C2283 1.334 . S
C2284 C2285 1.287 . S
C2285 C2284 1.287 . S
C2285 C2286 1.524 . S
C2285 H2288 0.999 . S
C2286 H2256 0.950 . S
C2286 C2285 1.524 . S
C2286 C2287 1.415 . S
C2287 H2257 0.950 . S
C2287 C2282 1.363 . S
C2287 C2286 1.415 . S
H2288 C2285 0.999 . S
H2289 C2270 0.913 . S
H2290 C2308 0.951 . S
H2291 C2310 0.951 . S
H2292 C2312 0.950 . S
H2293 C2313 0.950 . S
H2294 C2315 0.950 . S
H2295 C2318 0.950 . S
H2296 C2319 0.950 . S
H2297 C2321 0.950 . S
H2298 C2322 0.950 . S
H2299 C2323 0.951 . S
H2300 C2325 0.951 . S
H2301 C2327 0.950 . S
H2302 C2328 0.950 . S
H2303 C2330 0.950 . S
H2304 C2333 0.950 . S
H2305 C2334 0.950 . S
H2306 C2336 0.950 . S
H2307 C2337 0.950 . S
C2308 H2290 0.951 . S
C2308 C2309 1.366 . S
C2308 C2310 1.388 . S
C2309 C2308 1.366 . S
C2309 C2313 1.385 . S
C2310 H2291 0.951 . S
C2310 C2308 1.388 . S
C2310 C2311 1.366 . S
C2311 C2310 1.366 . S
C2311 C2312 1.414 . S
C2311 C2314 1.499 . S
C2312 H2292 0.950 . S
C2312 C2311 1.414 . S
C2312 C2313 1.374 . S
C2313 H2293 0.950 . S
C2313 C2309 1.385 . S
C2313 C2312 1.374 . S
C2314 C2311 1.499 . S
C2314 C2315 1.373 . S
C2314 C2316 1.389 . S
C2315 H2294 0.950 . S
C2315 C2314 1.373 . S
C2315 C2331 1.377 . S
C2316 C2314 1.389 . S
C2316 C2317 1.524 . S
C2316 C2330 1.377 . S
C2317 C2316 1.524 . S
C2317 C2318 1.397 . S
C2317 C2322 1.363 . S
C2318 H2295 0.950 . S
C2318 C2317 1.397 . S
C2318 C2319 1.334 . S
C2319 H2296 0.950 . S
C2319 C2318 1.334 . S
C2319 C2320 1.287 . S
C2320 C2319 1.287 . S
C2320 C2321 1.524 . S
C2320 H2339 0.913 . S
C2321 H2297 0.950 . S
C2321 C2320 1.524 . S
C2321 C2322 1.415 . S
C2322 H2298 0.950 . S
C2322 C2317 1.363 . S
C2322 C2321 1.415 . S
C2323 H2299 0.951 . S
C2323 C2324 1.366 . S
C2323 C2325 1.388 . S
C2324 C2323 1.366 . S
C2324 C2328 1.385 . S
C2325 H2300 0.951 . S
C2325 C2323 1.388 . S
C2325 C2326 1.366 . S
C2326 C2325 1.366 . S
C2326 C2327 1.414 . S
C2326 C2329 1.499 . S
C2327 H2301 0.950 . S
C2327 C2326 1.414 . S
C2327 C2328 1.374 . S
C2328 H2302 0.950 . S
C2328 C2324 1.385 . S
C2328 C2327 1.374 . S
C2329 C2326 1.499 . S
C2329 C2330 1.373 . S
C2329 C2331 1.389 . S
C2330 H2303 0.950 . S
C2330 C2316 1.377 . S
C2330 C2329 1.373 . S
C2331 C2315 1.377 . S
C2331 C2329 1.389 . S
C2331 C2332 1.524 . S
C2332 C2331 1.524 . S
C2332 C2333 1.397 . S
C2332 C2337 1.363 . S
C2333 H2304 0.950 . S
C2333 C2332 1.397 . S
C2333 C2334 1.334 . S
C2334 H2305 0.950 . S
C2334 C2333 1.334 . S
C2334 C2335 1.287 . S
C2335 C2334 1.287 . S
C2335 C2336 1.524 . S
C2335 H2338 0.999 . S
C2336 H2306 0.950 . S
C2336 C2335 1.524 . S
C2336 C2337 1.415 . S
C2337 H2307 0.950 . S
C2337 C2332 1.363 . S
C2337 C2336 1.415 . S
H2338 C2335 0.999 . S
H2339 C2320 0.913 . S
H2340 C2358 0.951 . S
H2341 C2360 0.951 . S
H2342 C2362 0.950 . S
H2343 C2363 0.950 . S
H2344 C2365 0.950 . S
H2345 C2368 0.950 . S
H2346 C2369 0.950 . S
H2347 C2371 0.950 . S
H2348 C2372 0.950 . S
H2349 C2373 0.951 . S
H2350 C2375 0.951 . S
H2351 C2377 0.950 . S
H2352 C2378 0.950 . S
H2353 C2380 0.950 . S
H2354 C2383 0.950 . S
H2355 C2384 0.950 . S
H2356 C2386 0.950 . S
H2357 C2387 0.950 . S
C2358 H2340 0.951 . S
C2358 C2359 1.366 . S
C2358 C2360 1.388 . S
C2359 C2358 1.366 . S
C2359 C2363 1.385 . S
C2360 H2341 0.951 . S
C2360 C2358 1.388 . S
C2360 C2361 1.366 . S
C2361 C2360 1.366 . S
C2361 C2362 1.414 . S
C2361 C2364 1.499 . S
C2362 H2342 0.950 . S
C2362 C2361 1.414 . S
C2362 C2363 1.374 . S
C2363 H2343 0.950 . S
C2363 C2359 1.385 . S
C2363 C2362 1.374 . S
C2364 C2361 1.499 . S
C2364 C2365 1.373 . S
C2364 C2366 1.389 . S
C2365 H2344 0.950 . S
C2365 C2364 1.373 . S
C2365 C2381 1.377 . S
C2366 C2364 1.389 . S
C2366 C2367 1.524 . S
C2366 C2380 1.377 . S
C2367 C2366 1.524 . S
C2367 C2368 1.397 . S
C2367 C2372 1.363 . S
C2368 H2345 0.950 . S
C2368 C2367 1.397 . S
C2368 C2369 1.334 . S
C2369 H2346 0.950 . S
C2369 C2368 1.334 . S
C2369 C2370 1.287 . S
C2370 C2369 1.287 . S
C2370 C2371 1.524 . S
C2370 H2389 0.913 . S
C2371 H2347 0.950 . S
C2371 C2370 1.524 . S
C2371 C2372 1.415 . S
C2372 H2348 0.950 . S
C2372 C2367 1.363 . S
C2372 C2371 1.415 . S
C2373 H2349 0.951 . S
C2373 C2374 1.366 . S
C2373 C2375 1.388 . S
C2374 C2373 1.366 . S
C2374 C2378 1.385 . S
C2375 H2350 0.951 . S
C2375 C2373 1.388 . S
C2375 C2376 1.366 . S
C2376 C2375 1.366 . S
C2376 C2377 1.414 . S
C2376 C2379 1.499 . S
C2377 H2351 0.950 . S
C2377 C2376 1.414 . S
C2377 C2378 1.374 . S
C2378 H2352 0.950 . S
C2378 C2374 1.385 . S
C2378 C2377 1.374 . S
C2379 C2376 1.499 . S
C2379 C2380 1.373 . S
C2379 C2381 1.389 . S
C2380 H2353 0.950 . S
C2380 C2366 1.377 . S
C2380 C2379 1.373 . S
C2381 C2365 1.377 . S
C2381 C2379 1.389 . S
C2381 C2382 1.524 . S
C2382 C2381 1.524 . S
C2382 C2383 1.397 . S
C2382 C2387 1.363 . S
C2383 H2354 0.950 . S
C2383 C2382 1.397 . S
C2383 C2384 1.334 . S
C2384 H2355 0.950 . S
C2384 C2383 1.334 . S
C2384 C2385 1.287 . S
C2385 C2384 1.287 . S
C2385 C2386 1.524 . S
C2385 H2388 0.999 . S
C2386 H2356 0.950 . S
C2386 C2385 1.524 . S
C2386 C2387 1.415 . S
C2387 H2357 0.950 . S
C2387 C2382 1.363 . S
C2387 C2386 1.415 . S
H2388 C2385 0.999 . S
H2389 C2370 0.913 . S
H2390 C2408 0.951 . S
H2391 C2410 0.951 . S
H2392 C2412 0.950 . S
H2393 C2413 0.950 . S
H2394 C2415 0.950 . S
H2395 C2418 0.950 . S
H2396 C2419 0.950 . S
H2397 C2421 0.950 . S
H2398 C2422 0.950 . S
H2399 C2423 0.951 . S
H2400 C2425 0.951 . S
H2401 C2427 0.950 . S
H2402 C2428 0.950 . S
H2403 C2430 0.950 . S
H2404 C2433 0.950 . S
H2405 C2434 0.950 . S
H2406 C2436 0.950 . S
H2407 C2437 0.950 . S
C2408 H2390 0.951 . S
C2408 C2409 1.366 . S
C2408 C2410 1.388 . S
C2409 C2408 1.366 . S
C2409 C2413 1.385 . S
C2410 H2391 0.951 . S
C2410 C2408 1.388 . S
C2410 C2411 1.366 . S
C2411 C2410 1.366 . S
C2411 C2412 1.414 . S
C2411 C2414 1.499 . S
C2412 H2392 0.950 . S
C2412 C2411 1.414 . S
C2412 C2413 1.374 . S
C2413 H2393 0.950 . S
C2413 C2409 1.385 . S
C2413 C2412 1.374 . S
C2414 C2411 1.499 . S
C2414 C2415 1.373 . S
C2414 C2416 1.389 . S
C2415 H2394 0.950 . S
C2415 C2414 1.373 . S
C2415 C2431 1.377 . S
C2416 C2414 1.389 . S
C2416 C2417 1.524 . S
C2416 C2430 1.377 . S
C2417 C2416 1.524 . S
C2417 C2418 1.397 . S
C2417 C2422 1.363 . S
C2418 H2395 0.950 . S
C2418 C2417 1.397 . S
C2418 C2419 1.334 . S
C2419 H2396 0.950 . S
C2419 C2418 1.334 . S
C2419 C2420 1.287 . S
C2420 C2419 1.287 . S
C2420 C2421 1.524 . S
C2420 H2439 0.913 . S
C2421 H2397 0.950 . S
C2421 C2420 1.524 . S
C2421 C2422 1.415 . S
C2422 H2398 0.950 . S
C2422 C2417 1.363 . S
C2422 C2421 1.415 . S
C2423 H2399 0.951 . S
C2423 C2424 1.366 . S
C2423 C2425 1.388 . S
C2424 C2423 1.366 . S
C2424 C2428 1.385 . S
C2425 H2400 0.951 . S
C2425 C2423 1.388 . S
C2425 C2426 1.366 . S
C2426 C2425 1.366 . S
C2426 C2427 1.414 . S
C2426 C2429 1.499 . S
C2427 H2401 0.950 . S
C2427 C2426 1.414 . S
C2427 C2428 1.374 . S
C2428 H2402 0.950 . S
C2428 C2424 1.385 . S
C2428 C2427 1.374 . S
C2429 C2426 1.499 . S
C2429 C2430 1.373 . S
C2429 C2431 1.389 . S
C2430 H2403 0.950 . S
C2430 C2416 1.377 . S
C2430 C2429 1.373 . S
C2431 C2415 1.377 . S
C2431 C2429 1.389 . S
C2431 C2432 1.524 . S
C2432 C2431 1.524 . S
C2432 C2433 1.397 . S
C2432 C2437 1.363 . S
C2433 H2404 0.950 . S
C2433 C2432 1.397 . S
C2433 C2434 1.334 . S
C2434 H2405 0.950 . S
C2434 C2433 1.334 . S
C2434 C2435 1.287 . S
C2435 C2434 1.287 . S
C2435 C2436 1.524 . S
C2435 H2438 0.999 . S
C2436 H2406 0.950 . S
C2436 C2435 1.524 . S
C2436 C2437 1.415 . S
C2437 H2407 0.950 . S
C2437 C2432 1.363 . S
C2437 C2436 1.415 . S
H2438 C2435 0.999 . S
H2439 C2420 0.913 . S
H2440 C2458 0.951 1_554 S
H2441 C2460 0.951 . S
H2442 C2462 0.950 . S
H2443 C2463 0.950 . S
H2444 C2465 0.950 . S
H2445 C2468 0.950 . S
H2446 C2469 0.950 . S
H2447 C2471 0.950 . S
H2448 C2472 0.950 . S
H2449 C2473 0.951 . S
H2450 C2475 0.951 . S
H2451 C2477 0.950 . S
H2452 C2478 0.950 . S
H2453 C2480 0.950 . S
H2454 C2483 0.950 1_554 S
H2455 C2484 0.950 . S
H2456 C2486 0.950 . S
H2457 C2487 0.950 . S
C2458 H2440 0.951 1_556 S
C2458 C2459 1.366 . S
C2458 C2460 1.388 1_556 S
C2459 C2458 1.366 . S
C2459 C2463 1.385 . S
C2460 H2441 0.951 . S
C2460 C2458 1.388 1_554 S
C2460 C2461 1.366 1_554 S
C2461 C2460 1.366 1_556 S
C2461 C2462 1.414 . S
C2461 C2464 1.499 1_556 S
C2462 H2442 0.950 . S
C2462 C2461 1.414 . S
C2462 C2463 1.374 . S
C2463 H2443 0.950 . S
C2463 C2459 1.385 . S
C2463 C2462 1.374 . S
C2464 C2461 1.499 1_554 S
C2464 C2465 1.373 1_554 S
C2464 C2466 1.389 . S
C2465 H2444 0.950 . S
C2465 C2464 1.373 1_556 S
C2465 C2481 1.377 . S
C2466 C2464 1.389 . S
C2466 C2467 1.524 . S
C2466 C2480 1.377 . S
C2467 C2466 1.524 . S
C2467 C2468 1.397 . S
C2467 C2472 1.363 . S
C2468 H2445 0.950 . S
C2468 C2467 1.397 . S
C2468 C2469 1.334 . S
C2469 H2446 0.950 . S
C2469 C2468 1.334 . S
C2469 C2470 1.287 . S
C2470 C2469 1.287 . S
C2470 C2471 1.524 . S
C2470 H2489 0.913 . S
C2471 H2447 0.950 . S
C2471 C2470 1.524 . S
C2471 C2472 1.415 . S
C2472 H2448 0.950 . S
C2472 C2467 1.363 . S
C2472 C2471 1.415 . S
C2473 H2449 0.951 . S
C2473 C2474 1.366 . S
C2473 C2475 1.388 . S
C2474 C2473 1.366 . S
C2474 C2478 1.385 . S
C2475 H2450 0.951 . S
C2475 C2473 1.388 . S
C2475 C2476 1.366 . S
C2476 C2475 1.366 . S
C2476 C2477 1.414 . S
C2476 C2479 1.499 . S
C2477 H2451 0.950 . S
C2477 C2476 1.414 . S
C2477 C2478 1.374 . S
C2478 H2452 0.950 . S
C2478 C2474 1.385 . S
C2478 C2477 1.374 . S
C2479 C2476 1.499 . S
C2479 C2480 1.373 . S
C2479 C2481 1.389 1_554 S
C2480 H2453 0.950 . S
C2480 C2466 1.377 . S
C2480 C2479 1.373 . S
C2481 C2465 1.377 . S
C2481 C2479 1.389 1_556 S
C2481 C2482 1.524 . S
C2482 C2481 1.524 . S
C2482 C2483 1.397 . S
C2482 C2487 1.363 . S
C2483 H2454 0.950 1_556 S
C2483 C2482 1.397 . S
C2483 C2484 1.334 . S
C2484 H2455 0.950 . S
C2484 C2483 1.334 . S
C2484 C2485 1.287 . S
C2485 C2484 1.287 . S
C2485 C2486 1.524 . S
C2485 H2488 0.999 . S
C2486 H2456 0.950 . S
C2486 C2485 1.524 . S
C2486 C2487 1.415 . S
C2487 H2457 0.950 . S
C2487 C2482 1.363 . S
C2487 C2486 1.415 . S
H2488 C2485 0.999 . S
H2489 C2470 0.913 . S
H2490 C2508 0.951 . S
H2491 C2510 0.951 . S
H2492 C2512 0.950 . S
H2493 C2513 0.950 . S
H2494 C2515 0.950 . S
H2495 C2518 0.950 . S
H2496 C2519 0.950 . S
H2497 C2521 0.950 . S
H2498 C2522 0.950 . S
H2499 C2523 0.951 . S
H2500 C2525 0.962 . S
H2501 C2527 0.950 . S
H2502 C2528 0.950 . S
H2503 C2530 0.950 . S
H2504 C2533 0.950 . S
H2505 C2534 0.950 . S
H2506 C2536 0.950 . S
H2507 C2537 0.950 . S
C2508 H2490 0.951 . S
C2508 C2509 1.366 . S
C2508 C2510 1.388 . S
C2509 C2508 1.366 . S
C2509 C2513 1.385 . S
C2510 H2491 0.951 . S
C2510 C2508 1.388 . S
C2510 C2511 1.366 . S
C2511 C2510 1.366 . S
C2511 C2512 1.414 . S
C2511 C2514 1.499 . S
C2512 H2492 0.950 . S
C2512 C2511 1.414 . S
C2512 C2513 1.374 . S
C2513 H2493 0.950 . S
C2513 C2509 1.385 . S
C2513 C2512 1.374 . S
C2514 C2511 1.499 . S
C2514 C2515 1.373 . S
C2514 C2516 1.389 1_554 S
C2515 H2494 0.950 . S
C2515 C2514 1.373 . S
C2515 C2531 1.377 . S
C2516 C2514 1.389 1_556 S
C2516 C2517 1.524 . S
C2516 C2530 1.377 . S
C2517 C2516 1.524 . S
C2517 C2518 1.397 . S
C2517 C2522 1.363 . S
C2518 H2495 0.950 . S
C2518 C2517 1.397 . S
C2518 C2519 1.334 . S
C2519 H2496 0.950 . S
C2519 C2518 1.334 . S
C2519 C2520 1.287 . S
C2520 C2519 1.287 . S
C2520 C2521 1.524 . S
C2520 H2539 0.913 . S
C2521 H2497 0.950 . S
C2521 C2520 1.524 . S
C2521 C2522 1.415 . S
C2522 H2498 0.950 . S
C2522 C2517 1.363 . S
C2522 C2521 1.415 . S
C2523 H2499 0.951 . S
C2523 C2524 1.366 . S
C2523 C2525 1.381 1_556 S
C2524 C2523 1.366 . S
C2524 C2528 1.385 . S
C2525 H2500 0.962 . S
C2525 C2523 1.381 1_554 S
C2525 C2526 1.361 1_554 S
C2526 C2525 1.361 1_556 S
C2526 C2527 1.414 . S
C2526 C2529 1.499 1_556 S
C2527 H2501 0.950 . S
C2527 C2526 1.414 . S
C2527 C2528 1.374 . S
C2528 H2502 0.950 . S
C2528 C2524 1.385 . S
C2528 C2527 1.374 . S
C2529 C2526 1.499 1_554 S
C2529 C2530 1.373 1_554 S
C2529 C2531 1.389 . S
C2530 H2503 0.950 . S
C2530 C2516 1.377 . S
C2530 C2529 1.373 1_556 S
C2531 C2515 1.377 . S
C2531 C2529 1.389 . S
C2531 C2532 1.524 . S
C2532 C2531 1.524 . S
C2532 C2533 1.397 . S
C2532 C2537 1.363 . S
C2533 H2504 0.950 . S
C2533 C2532 1.397 . S
C2533 C2534 1.334 . S
C2534 H2505 0.950 . S
C2534 C2533 1.334 . S
C2534 C2535 1.287 . S
C2535 C2534 1.287 . S
C2535 C2536 1.524 . S
C2535 H2538 0.999 . S
C2536 H2506 0.950 . S
C2536 C2535 1.524 . S
C2536 C2537 1.415 . S
C2537 H2507 0.950 . S
C2537 C2532 1.363 . S
C2537 C2536 1.415 . S
H2538 C2535 0.999 . S
H2539 C2520 0.913 . S
H2540 C2558 0.951 . S
H2541 C2560 0.951 . S
H2542 C2562 0.978 . S
H2543 C2563 0.950 . S
H2544 C2565 0.950 1_556 S
H2545 C2568 0.950 . S
H2546 C2569 0.950 . S
H2547 C2571 0.950 . S
H2548 C2572 0.950 1_556 S
H2549 C2573 0.951 . S
H2550 C2575 0.951 . S
H2551 C2577 0.950 . S
H2552 C2578 0.950 . S
H2553 C2580 0.950 . S
H2554 C2583 0.950 . S
H2555 C2584 0.950 . S
H2556 C2586 0.950 . S
H2557 C2587 0.950 . S
C2558 H2540 0.951 . S
C2558 C2559 1.366 . S
C2558 C2560 1.388 . S
C2559 C2558 1.366 . S
C2559 C2563 1.385 . S
C2560 H2541 0.951 . S
C2560 C2558 1.388 . S
C2560 C2561 1.366 . S
C2561 C2560 1.366 . S
C2561 C2562 1.403 1_556 S
C2561 C2564 1.499 1_556 S
C2562 H2542 0.978 . S
C2562 C2561 1.403 1_554 S
C2562 C2563 1.359 1_554 S
C2563 H2543 0.950 . S
C2563 C2559 1.385 . S
C2563 C2562 1.359 1_556 S
C2564 C2561 1.499 1_554 S
C2564 C2565 1.373 . S
C2564 C2566 1.389 . S
C2565 H2544 0.950 1_554 S
C2565 C2564 1.373 . S
C2565 C2581 1.377 . S
C2566 C2564 1.389 . S
C2566 C2567 1.524 . S
C2566 C2580 1.377 . S
C2567 C2566 1.524 . S
C2567 C2568 1.397 . S
C2567 C2572 1.363 . S
C2568 H2545 0.950 . S
C2568 C2567 1.397 . S
C2568 C2569 1.334 . S
C2569 H2546 0.950 . S
C2569 C2568 1.334 . S
C2569 C2570 1.287 . S
C2570 C2569 1.287 . S
C2570 C2571 1.524 . S
C2570 H2589 0.913 . S
C2571 H2547 0.950 . S
C2571 C2570 1.524 . S
C2571 C2572 1.415 . S
C2572 H2548 0.950 1_554 S
C2572 C2567 1.363 . S
C2572 C2571 1.415 . S
C2573 H2549 0.951 . S
C2573 C2574 1.366 . S
C2573 C2575 1.388 . S
C2574 C2573 1.366 . S
C2574 C2578 1.385 . S
C2575 H2550 0.951 . S
C2575 C2573 1.388 . S
C2575 C2576 1.366 . S
C2576 C2575 1.366 . S
C2576 C2577 1.414 . S
C2576 C2579 1.499 . S
C2577 H2551 0.950 . S
C2577 C2576 1.414 . S
C2577 C2578 1.374 . S
C2578 H2552 0.950 . S
C2578 C2574 1.385 . S
C2578 C2577 1.374 . S
C2579 C2576 1.499 . S
C2579 C2580 1.373 . S
C2579 C2581 1.389 . S
C2580 H2553 0.950 . S
C2580 C2566 1.377 . S
C2580 C2579 1.373 . S
C2581 C2565 1.377 . S
C2581 C2579 1.389 . S
C2581 C2582 1.524 . S
C2582 C2581 1.524 . S
C2582 C2583 1.397 1_554 S
C2582 C2587 1.363 . S
C2583 H2554 0.950 . S
C2583 C2582 1.397 1_556 S
C2583 C2584 1.334 . S
C2584 H2555 0.950 . S
C2584 C2583 1.334 . S
C2584 C2585 1.287 . S
C2585 C2584 1.287 . S
C2585 C2586 1.524 1_556 S
C2585 H2588 0.999 . S
C2586 H2556 0.950 . S
C2586 C2585 1.524 1_554 S
C2586 C2587 1.415 . S
C2587 H2557 0.950 . S
C2587 C2582 1.363 . S
C2587 C2586 1.415 . S
H2588 C2585 0.999 . S
H2589 C2570 0.913 . S
H2590 C2608 0.951 . S
H2591 C2610 0.951 . S
H2592 C2612 0.950 . S
H2593 C2613 0.950 . S
H2594 C2615 0.950 . S
H2595 C2618 0.950 . S
H2596 C2619 0.950 . S
H2597 C2621 0.950 . S
H2598 C2622 0.950 . S
H2599 C2623 0.951 . S
H2600 C2625 0.951 . S
H2601 C2627 0.950 . S
H2602 C2628 0.950 . S
H2603 C2630 0.952 . S
H2604 C2633 0.950 . S
H2605 C2634 0.950 . S
H2606 C2636 0.951 . S
H2607 C2637 0.950 1_556 S
C2608 H2590 0.951 . S
C2608 C2609 1.366 . S
C2608 C2610 1.388 . S
C2609 C2608 1.366 . S
C2609 C2613 1.385 . S
C2610 H2591 0.951 . S
C2610 C2608 1.388 . S
C2610 C2611 1.366 . S
C2611 C2610 1.366 . S
C2611 C2612 1.414 . S
C2611 C2614 1.499 . S
C2612 H2592 0.950 . S
C2612 C2611 1.414 . S
C2612 C2613 1.374 . S
C2613 H2593 0.950 . S
C2613 C2609 1.385 . S
C2613 C2612 1.374 . S
C2614 C2611 1.499 . S
C2614 C2615 1.373 . S
C2614 C2616 1.389 . S
C2615 H2594 0.950 . S
C2615 C2614 1.373 . S
C2615 C2631 1.377 . S
C2616 C2614 1.389 . S
C2616 C2617 1.524 . S
C2616 C2630 1.377 . S
C2617 C2616 1.524 . S
C2617 C2618 1.397 1_554 S
C2617 C2622 1.363 . S
C2618 H2595 0.950 . S
C2618 C2617 1.397 1_556 S
C2618 C2619 1.334 . S
C2619 H2596 0.950 . S
C2619 C2618 1.334 . S
C2619 C2620 1.287 1_556 S
C2620 C2619 1.287 1_554 S
C2620 C2621 1.524 . S
C2620 H2639 0.913 . S
C2621 H2597 0.950 . S
C2621 C2620 1.524 . S
C2621 C2622 1.415 . S
C2622 H2598 0.950 . S
C2622 C2617 1.363 . S
C2622 C2621 1.415 . S
C2623 H2599 0.951 . S
C2623 C2624 1.366 . S
C2623 C2625 1.388 . S
C2624 C2623 1.366 . S
C2624 C2628 1.385 . S
C2625 H2600 0.951 . S
C2625 C2623 1.388 . S
C2625 C2626 1.366 . S
C2626 C2625 1.366 . S
C2626 C2627 1.414 1_556 S
C2626 C2629 1.499 1_556 S
C2627 H2601 0.950 . S
C2627 C2626 1.414 1_554 S
C2627 C2628 1.374 1_554 S
C2628 H2602 0.950 . S
C2628 C2624 1.385 . S
C2628 C2627 1.374 1_556 S
C2629 C2626 1.499 1_554 S
C2629 C2630 1.373 . S
C2629 C2631 1.389 . S
C2630 H2603 0.952 . S
C2630 C2616 1.377 . S
C2630 C2629 1.373 . S
C2631 C2615 1.377 . S
C2631 C2629 1.389 . S
C2631 C2632 1.524 . S
C2632 C2631 1.524 . S
C2632 C2633 1.397 . S
C2632 C2637 1.363 . S
C2633 H2604 0.950 . S
C2633 C2632 1.397 . S
C2633 C2634 1.334 . S
C2634 H2605 0.950 . S
C2634 C2633 1.334 . S
C2634 C2635 1.287 . S
C2635 C2634 1.287 . S
C2635 C2636 1.524 . S
C2635 H2638 0.999 . S
C2636 H2606 0.951 . S
C2636 C2635 1.524 . S
C2636 C2637 1.415 . S
C2637 H2607 0.950 1_554 S
C2637 C2632 1.363 . S
C2637 C2636 1.415 . S
H2638 C2635 0.999 . S
H2639 C2620 0.913 . S
H2640 C2658 0.951 . S
H2641 C2660 0.951 . S
H2642 C2662 0.950 . S
H2643 C2663 0.950 . S
H2644 C2665 0.950 . S
H2645 C2668 0.950 . S
H2646 C2669 0.950 . S
H2647 C2671 0.950 . S
H2648 C2672 0.950 . S
H2649 C2673 0.951 . S
H2650 C2675 0.951 . S
H2651 C2677 0.950 . S
H2652 C2678 0.950 . S
H2653 C2680 0.950 . S
H2654 C2683 0.950 . S
H2655 C2684 0.950 . S
H2656 C2686 0.950 . S
H2657 C2687 0.950 . S
C2658 H2640 0.951 . S
C2658 C2659 1.366 . S
C2658 C2660 1.388 . S
C2659 C2658 1.366 . S
C2659 C2663 1.385 . S
C2660 H2641 0.951 . S
C2660 C2658 1.388 . S
C2660 C2661 1.366 . S
C2661 C2660 1.366 . S
C2661 C2662 1.414 . S
C2661 C2664 1.499 . S
C2662 H2642 0.950 . S
C2662 C2661 1.414 . S
C2662 C2663 1.374 . S
C2663 H2643 0.950 . S
C2663 C2659 1.385 . S
C2663 C2662 1.374 . S
C2664 C2661 1.499 . S
C2664 C2665 1.373 . S
C2664 C2666 1.389 . S
C2665 H2644 0.950 . S
C2665 C2664 1.373 . S
C2665 C2681 1.377 . S
C2666 C2664 1.389 . S
C2666 C2667 1.524 . S
C2666 C2680 1.377 . S
C2667 C2666 1.524 . S
C2667 C2668 1.397 . S
C2667 C2672 1.363 . S
C2668 H2645 0.950 . S
C2668 C2667 1.397 . S
C2668 C2669 1.334 . S
C2669 H2646 0.950 . S
C2669 C2668 1.334 . S
C2669 C2670 1.287 . S
C2670 C2669 1.287 . S
C2670 C2671 1.524 . S
C2670 H2689 0.913 . S
C2671 H2647 0.950 . S
C2671 C2670 1.524 . S
C2671 C2672 1.415 . S
C2672 H2648 0.950 . S
C2672 C2667 1.363 . S
C2672 C2671 1.415 . S
C2673 H2649 0.951 . S
C2673 C2674 1.366 . S
C2673 C2675 1.388 . S
C2674 C2673 1.366 . S
C2674 C2678 1.385 . S
C2675 H2650 0.951 . S
C2675 C2673 1.388 . S
C2675 C2676 1.366 . S
C2676 C2675 1.366 . S
C2676 C2677 1.414 . S
C2676 C2679 1.499 . S
C2677 H2651 0.950 . S
C2677 C2676 1.414 . S
C2677 C2678 1.374 . S
C2678 H2652 0.950 . S
C2678 C2674 1.385 . S
C2678 C2677 1.374 . S
C2679 C2676 1.499 . S
C2679 C2680 1.373 . S
C2679 C2681 1.389 . S
C2680 H2653 0.950 . S
C2680 C2666 1.377 . S
C2680 C2679 1.373 . S
C2681 C2665 1.377 . S
C2681 C2679 1.389 . S
C2681 C2682 1.524 . S
C2682 C2681 1.524 . S
C2682 C2683 1.397 . S
C2682 C2687 1.363 . S
C2683 H2654 0.950 . S
C2683 C2682 1.397 . S
C2683 C2684 1.334 . S
C2684 H2655 0.950 . S
C2684 C2683 1.334 . S
C2684 C2685 1.287 . S
C2685 C2684 1.287 . S
C2685 C2686 1.524 . S
C2685 H2688 0.999 . S
C2686 H2656 0.950 . S
C2686 C2685 1.524 . S
C2686 C2687 1.415 . S
C2687 H2657 0.950 . S
C2687 C2682 1.363 . S
C2687 C2686 1.415 . S
H2688 C2685 0.999 . S
H2689 C2670 0.913 . S
H2690 C2708 0.951 . S
H2691 C2710 0.951 . S
H2692 C2712 0.950 . S
H2693 C2713 0.950 . S
H2694 C2715 0.950 . S
H2695 C2718 0.950 . S
H2696 C2719 0.950 . S
H2697 C2721 0.950 . S
H2698 C2722 0.950 . S
H2699 C2723 0.951 . S
H2700 C2725 0.951 . S
H2701 C2727 0.950 . S
H2702 C2728 0.950 . S
H2703 C2730 0.950 . S
H2704 C2733 0.950 . S
H2705 C2734 0.950 . S
H2706 C2736 0.950 . S
H2707 C2737 0.950 . S
C2708 H2690 0.951 . S
C2708 C2709 1.366 . S
C2708 C2710 1.388 . S
C2709 C2708 1.366 . S
C2709 C2713 1.385 . S
C2710 H2691 0.951 . S
C2710 C2708 1.388 . S
C2710 C2711 1.366 . S
C2711 C2710 1.366 . S
C2711 C2712 1.414 . S
C2711 C2714 1.499 . S
C2712 H2692 0.950 . S
C2712 C2711 1.414 . S
C2712 C2713 1.374 . S
C2713 H2693 0.950 . S
C2713 C2709 1.385 . S
C2713 C2712 1.374 . S
C2714 C2711 1.499 . S
C2714 C2715 1.373 . S
C2714 C2716 1.389 . S
C2715 H2694 0.950 . S
C2715 C2714 1.373 . S
C2715 C2731 1.377 . S
C2716 C2714 1.389 . S
C2716 C2717 1.524 . S
C2716 C2730 1.377 . S
C2717 C2716 1.524 . S
C2717 C2718 1.397 . S
C2717 C2722 1.363 . S
C2718 H2695 0.950 . S
C2718 C2717 1.397 . S
C2718 C2719 1.334 . S
C2719 H2696 0.950 . S
C2719 C2718 1.334 . S
C2719 C2720 1.287 . S
C2720 C2719 1.287 . S
C2720 C2721 1.524 . S
C2720 H2739 0.913 . S
C2721 H2697 0.950 . S
C2721 C2720 1.524 . S
C2721 C2722 1.415 . S
C2722 H2698 0.950 . S
C2722 C2717 1.363 . S
C2722 C2721 1.415 . S
C2723 H2699 0.951 . S
C2723 C2724 1.366 . S
C2723 C2725 1.388 . S
C2724 C2723 1.366 . S
C2724 C2728 1.385 . S
C2725 H2700 0.951 . S
C2725 C2723 1.388 . S
C2725 C2726 1.366 . S
C2726 C2725 1.366 . S
C2726 C2727 1.414 . S
C2726 C2729 1.499 . S
C2727 H2701 0.950 . S
C2727 C2726 1.414 . S
C2727 C2728 1.374 . S
C2728 H2702 0.950 . S
C2728 C2724 1.385 . S
C2728 C2727 1.374 . S
C2729 C2726 1.499 . S
C2729 C2730 1.373 . S
C2729 C2731 1.389 . S
C2730 H2703 0.950 . S
C2730 C2716 1.377 . S
C2730 C2729 1.373 . S
C2731 C2715 1.377 . S
C2731 C2729 1.389 . S
C2731 C2732 1.524 . S
C2732 C2731 1.524 . S
C2732 C2733 1.397 . S
C2732 C2737 1.363 . S
C2733 H2704 0.950 . S
C2733 C2732 1.397 . S
C2733 C2734 1.334 . S
C2734 H2705 0.950 . S
C2734 C2733 1.334 . S
C2734 C2735 1.287 . S
C2735 C2734 1.287 . S
C2735 C2736 1.524 . S
C2735 H2738 0.999 . S
C2736 H2706 0.950 . S
C2736 C2735 1.524 . S
C2736 C2737 1.415 . S
C2737 H2707 0.950 . S
C2737 C2732 1.363 . S
C2737 C2736 1.415 . S
H2738 C2735 0.999 . S
H2739 C2720 0.913 . S
H2740 C2758 0.951 . S
H2741 C2760 0.951 . S
H2742 C2762 0.950 . S
H2743 C2763 0.950 . S
H2744 C2765 0.950 . S
H2745 C2768 0.950 . S
H2746 C2769 0.950 . S
H2747 C2771 0.950 . S
H2748 C2772 0.950 . S
H2749 C2773 0.951 . S
H2750 C2775 0.951 . S
H2751 C2777 0.950 . S
H2752 C2778 0.950 . S
H2753 C2780 0.950 . S
H2754 C2783 0.950 . S
H2755 C2784 0.950 . S
H2756 C2786 0.950 . S
H2757 C2787 0.950 . S
C2758 H2740 0.951 . S
C2758 C2759 1.366 . S
C2758 C2760 1.388 . S
C2759 C2758 1.366 . S
C2759 C2763 1.385 . S
C2760 H2741 0.951 . S
C2760 C2758 1.388 . S
C2760 C2761 1.366 . S
C2761 C2760 1.366 . S
C2761 C2762 1.414 . S
C2761 C2764 1.499 . S
C2762 H2742 0.950 . S
C2762 C2761 1.414 . S
C2762 C2763 1.374 . S
C2763 H2743 0.950 . S
C2763 C2759 1.385 . S
C2763 C2762 1.374 . S
C2764 C2761 1.499 . S
C2764 C2765 1.373 . S
C2764 C2766 1.389 . S
C2765 H2744 0.950 . S
C2765 C2764 1.373 . S
C2765 C2781 1.377 . S
C2766 C2764 1.389 . S
C2766 C2767 1.524 . S
C2766 C2780 1.377 . S
C2767 C2766 1.524 . S
C2767 C2768 1.397 . S
C2767 C2772 1.363 . S
C2768 H2745 0.950 . S
C2768 C2767 1.397 . S
C2768 C2769 1.334 . S
C2769 H2746 0.950 . S
C2769 C2768 1.334 . S
C2769 C2770 1.287 . S
C2770 C2769 1.287 . S
C2770 C2771 1.524 . S
C2770 H2789 0.913 . S
C2771 H2747 0.950 . S
C2771 C2770 1.524 . S
C2771 C2772 1.415 . S
C2772 H2748 0.950 . S
C2772 C2767 1.363 . S
C2772 C2771 1.415 . S
C2773 H2749 0.951 . S
C2773 C2774 1.366 . S
C2773 C2775 1.388 . S
C2774 C2773 1.366 . S
C2774 C2778 1.385 . S
C2775 H2750 0.951 . S
C2775 C2773 1.388 . S
C2775 C2776 1.366 . S
C2776 C2775 1.366 . S
C2776 C2777 1.414 . S
C2776 C2779 1.499 . S
C2777 H2751 0.950 . S
C2777 C2776 1.414 . S
C2777 C2778 1.374 . S
C2778 H2752 0.950 . S
C2778 C2774 1.385 . S
C2778 C2777 1.374 . S
C2779 C2776 1.499 . S
C2779 C2780 1.373 . S
C2779 C2781 1.389 . S
C2780 H2753 0.950 . S
C2780 C2766 1.377 . S
C2780 C2779 1.373 . S
C2781 C2765 1.377 . S
C2781 C2779 1.389 . S
C2781 C2782 1.524 . S
C2782 C2781 1.524 . S
C2782 C2783 1.397 . S
C2782 C2787 1.363 . S
C2783 H2754 0.950 . S
C2783 C2782 1.397 . S
C2783 C2784 1.334 . S
C2784 H2755 0.950 . S
C2784 C2783 1.334 . S
C2784 C2785 1.287 . S
C2785 C2784 1.287 . S
C2785 C2786 1.524 . S
C2785 H2788 0.999 . S
C2786 H2756 0.950 . S
C2786 C2785 1.524 . S
C2786 C2787 1.415 . S
C2787 H2757 0.950 . S
C2787 C2782 1.363 . S
C2787 C2786 1.415 . S
H2788 C2785 0.999 . S
H2789 C2770 0.913 . S
H2790 C2808 0.951 . S
H2791 C2810 0.951 . S
H2792 C2812 0.950 . S
H2793 C2813 0.950 . S
H2794 C2815 0.950 . S
H2795 C2818 0.950 . S
H2796 C2819 0.950 . S
H2797 C2821 0.950 . S
H2798 C2822 0.950 . S
H2799 C2823 0.951 . S
H2800 C2825 0.951 . S
H2801 C2827 0.950 . S
H2802 C2828 0.950 . S
H2803 C2830 0.950 . S
H2804 C2833 0.950 . S
H2805 C2834 0.950 . S
H2806 C2836 0.950 . S
H2807 C2837 0.950 . S
C2808 H2790 0.951 . S
C2808 C2809 1.366 . S
C2808 C2810 1.388 . S
C2809 C2808 1.366 . S
C2809 C2813 1.385 . S
C2810 H2791 0.951 . S
C2810 C2808 1.388 . S
C2810 C2811 1.366 . S
C2811 C2810 1.366 . S
C2811 C2812 1.414 . S
C2811 C2814 1.499 . S
C2812 H2792 0.950 . S
C2812 C2811 1.414 . S
C2812 C2813 1.374 . S
C2813 H2793 0.950 . S
C2813 C2809 1.385 . S
C2813 C2812 1.374 . S
C2814 C2811 1.499 . S
C2814 C2815 1.373 . S
C2814 C2816 1.389 . S
C2815 H2794 0.950 . S
C2815 C2814 1.373 . S
C2815 C2831 1.377 . S
C2816 C2814 1.389 . S
C2816 C2817 1.524 . S
C2816 C2830 1.377 . S
C2817 C2816 1.524 . S
C2817 C2818 1.397 . S
C2817 C2822 1.363 . S
C2818 H2795 0.950 . S
C2818 C2817 1.397 . S
C2818 C2819 1.334 . S
C2819 H2796 0.950 . S
C2819 C2818 1.334 . S
C2819 C2820 1.287 . S
C2820 C2819 1.287 . S
C2820 C2821 1.524 . S
C2820 H2839 0.913 . S
C2821 H2797 0.950 . S
C2821 C2820 1.524 . S
C2821 C2822 1.415 . S
C2822 H2798 0.950 . S
C2822 C2817 1.363 . S
C2822 C2821 1.415 . S
C2823 H2799 0.951 . S
C2823 C2824 1.366 . S
C2823 C2825 1.388 . S
C2824 C2823 1.366 . S
C2824 C2828 1.385 . S
C2825 H2800 0.951 . S
C2825 C2823 1.388 . S
C2825 C2826 1.366 . S
C2826 C2825 1.366 . S
C2826 C2827 1.414 . S
C2826 C2829 1.499 . S
C2827 H2801 0.950 . S
C2827 C2826 1.414 . S
C2827 C2828 1.374 . S
C2828 H2802 0.950 . S
C2828 C2824 1.385 . S
C2828 C2827 1.374 . S
C2829 C2826 1.499 . S
C2829 C2830 1.373 . S
C2829 C2831 1.389 . S
C2830 H2803 0.950 . S
C2830 C2816 1.377 . S
C2830 C2829 1.373 . S
C2831 C2815 1.377 . S
C2831 C2829 1.389 . S
C2831 C2832 1.524 . S
C2832 C2831 1.524 . S
C2832 C2833 1.397 . S
C2832 C2837 1.363 . S
C2833 H2804 0.950 . S
C2833 C2832 1.397 . S
C2833 C2834 1.334 . S
C2834 H2805 0.950 . S
C2834 C2833 1.334 . S
C2834 C2835 1.287 . S
C2835 C2834 1.287 . S
C2835 C2836 1.524 . S
C2835 H2838 0.999 . S
C2836 H2806 0.950 . S
C2836 C2835 1.524 . S
C2836 C2837 1.415 . S
C2837 H2807 0.950 . S
C2837 C2832 1.363 . S
C2837 C2836 1.415 . S
H2838 C2835 0.999 . S
H2839 C2820 0.913 . S
H2840 C2858 0.951 . S
H2841 C2860 0.951 . S
H2842 C2862 0.950 . S
H2843 C2863 0.950 . S
H2844 C2865 0.950 . S
H2845 C2868 0.950 . S
H2846 C2869 0.950 . S
H2847 C2871 0.955 . S
H2848 C2872 0.950 . S
H2849 C2873 0.951 . S
H2850 C2875 0.951 . S
H2851 C2877 0.950 1_556 S
H2852 C2878 0.950 . S
H2853 C2880 0.951 1_554 S
H2854 C2883 0.950 . S
H2855 C2884 0.950 . S
H2856 C2886 0.976 . S
H2857 C2887 0.950 . S
C2858 H2840 0.951 . S
C2858 C2859 1.366 . S
C2858 C2860 1.388 . S
C2859 C2858 1.366 . S
C2859 C2863 1.385 . S
C2860 H2841 0.951 . S
C2860 C2858 1.388 . S
C2860 C2861 1.366 . S
C2861 C2860 1.366 . S
C2861 C2862 1.414 . S
C2861 C2864 1.499 . S
C2862 H2842 0.950 . S
C2862 C2861 1.414 . S
C2862 C2863 1.374 . S
C2863 H2843 0.950 . S
C2863 C2859 1.385 . S
C2863 C2862 1.374 . S
C2864 C2861 1.499 . S
C2864 C2865 1.373 . S
C2864 C2866 1.389 . S
C2865 H2844 0.950 . S
C2865 C2864 1.373 . S
C2865 C2881 1.377 . S
C2866 C2864 1.389 . S
C2866 C2867 1.524 . S
C2866 C2880 1.376 . S
C2867 C2866 1.524 . S
C2867 C2868 1.397 1_556 S
C2867 C2872 1.363 . S
C2868 H2845 0.950 . S
C2868 C2867 1.397 1_554 S
C2868 C2869 1.334 . S
C2869 H2846 0.950 . S
C2869 C2868 1.334 . S
C2869 C2870 1.287 . S
C2870 C2869 1.287 . S
C2870 C2871 1.524 . S
C2870 H2889 0.913 . S
C2871 H2847 0.955 . S
C2871 C2870 1.524 . S
C2871 C2872 1.415 1_554 S
C2872 H2848 0.950 . S
C2872 C2867 1.363 . S
C2872 C2871 1.415 1_556 S
C2873 H2849 0.951 . S
C2873 C2874 1.366 . S
C2873 C2875 1.388 . S
C2874 C2873 1.366 . S
C2874 C2878 1.385 . S
C2875 H2850 0.951 . S
C2875 C2873 1.388 . S
C2875 C2876 1.366 . S
C2876 C2875 1.366 . S
C2876 C2877 1.414 . S
C2876 C2879 1.499 1_554 S
C2877 H2851 0.950 1_554 S
C2877 C2876 1.414 . S
C2877 C2878 1.374 . S
C2878 H2852 0.950 . S
C2878 C2874 1.385 . S
C2878 C2877 1.374 . S
C2879 C2876 1.499 1_556 S
C2879 C2880 1.373 . S
C2879 C2881 1.389 . S
C2880 H2853 0.951 1_556 S
C2880 C2866 1.376 . S
C2880 C2879 1.373 . S
C2881 C2865 1.377 . S
C2881 C2879 1.389 . S
C2881 C2882 1.524 . S
C2882 C2881 1.524 . S
C2882 C2883 1.397 . S
C2882 C2887 1.363 . S
C2883 H2854 0.950 . S
C2883 C2882 1.397 . S
C2883 C2884 1.334 . S
C2884 H2855 0.950 . S
C2884 C2883 1.334 . S
C2884 C2885 1.287 . S
C2885 C2884 1.287 . S
C2885 C2886 1.524 . S
C2885 H2888 0.999 1_545 S
C2886 H2856 0.976 . S
C2886 C2885 1.524 . S
C2886 C2887 1.415 . S
C2887 H2857 0.950 . S
C2887 C2882 1.363 . S
C2887 C2886 1.415 . S
H2888 C2885 0.999 1_565 S
H2889 C2870 0.913 . S
H2890 C2908 0.951 . S
H2891 C2910 0.951 . S
H2892 C2912 0.950 . S
H2893 C2913 0.950 . S
H2894 C2915 0.950 . S
H2895 C2918 0.950 . S
H2896 C2919 0.950 . S
H2897 C2921 0.950 . S
H2898 C2922 0.950 . S
H2899 C2923 0.951 . S
H2900 C2925 0.951 . S
H2901 C2927 0.950 . S
H2902 C2928 0.950 . S
H2903 C2930 0.950 . S
H2904 C2933 0.950 . S
H2905 C2934 0.950 . S
H2906 C2936 0.950 . S
H2907 C2937 0.950 . S
C2908 H2890 0.951 . S
C2908 C2909 1.366 . S
C2908 C2910 1.388 . S
C2909 C2908 1.366 . S
C2909 C2913 1.385 . S
C2910 H2891 0.951 . S
C2910 C2908 1.388 . S
C2910 C2911 1.366 . S
C2911 C2910 1.366 . S
C2911 C2912 1.414 . S
C2911 C2914 1.499 . S
C2912 H2892 0.950 . S
C2912 C2911 1.414 . S
C2912 C2913 1.374 . S
C2913 H2893 0.950 . S
C2913 C2909 1.385 . S
C2913 C2912 1.374 . S
C2914 C2911 1.499 . S
C2914 C2915 1.373 . S
C2914 C2916 1.389 1_556 S
C2915 H2894 0.950 . S
C2915 C2914 1.373 . S
C2915 C2931 1.377 . S
C2916 C2914 1.389 1_554 S
C2916 C2917 1.524 . S
C2916 C2930 1.377 . S
C2917 C2916 1.524 . S
C2917 C2918 1.397 . S
C2917 C2922 1.363 . S
C2918 H2895 0.950 . S
C2918 C2917 1.397 . S
C2918 C2919 1.334 . S
C2919 H2896 0.950 . S
C2919 C2918 1.334 . S
C2919 C2920 1.287 . S
C2920 C2919 1.287 . S
C2920 C2921 1.524 . S
C2920 H2939 0.913 . S
C2921 H2897 0.950 . S
C2921 C2920 1.524 . S
C2921 C2922 1.415 . S
C2922 H2898 0.950 . S
C2922 C2917 1.363 . S
C2922 C2921 1.415 . S
C2923 H2899 0.951 . S
C2923 C2924 1.366 . S
C2923 C2925 1.388 1_554 S
C2924 C2923 1.366 . S
C2924 C2928 1.385 . S
C2925 H2900 0.951 . S
C2925 C2923 1.388 1_556 S
C2925 C2926 1.366 1_556 S
C2926 C2925 1.366 1_554 S
C2926 C2927 1.414 . S
C2926 C2929 1.499 1_554 S
C2927 H2901 0.950 . S
C2927 C2926 1.414 . S
C2927 C2928 1.374 . S
C2928 H2902 0.950 . S
C2928 C2924 1.385 . S
C2928 C2927 1.374 . S
C2929 C2926 1.499 1_556 S
C2929 C2930 1.373 1_556 S
C2929 C2931 1.389 . S
C2930 H2903 0.950 . S
C2930 C2916 1.377 . S
C2930 C2929 1.373 1_554 S
C2931 C2915 1.377 . S
C2931 C2929 1.389 . S
C2931 C2932 1.524 . S
C2932 C2931 1.524 . S
C2932 C2933 1.397 . S
C2932 C2937 1.363 . S
C2933 H2904 0.950 . S
C2933 C2932 1.397 . S
C2933 C2934 1.334 . S
C2934 H2905 0.950 . S
C2934 C2933 1.334 . S
C2934 C2935 1.287 . S
C2935 C2934 1.287 . S
C2935 C2936 1.524 . S
C2935 H2938 0.999 . S
C2936 H2906 0.950 . S
C2936 C2935 1.524 . S
C2936 C2937 1.415 . S
C2937 H2907 0.950 . S
C2937 C2932 1.363 . S
C2937 C2936 1.415 . S
H2938 C2935 0.999 . S
H2939 C2920 0.913 . S
H2940 C2958 0.951 . S
H2941 C2960 0.951 . S
H2942 C2962 0.950 . S
H2943 C2963 0.950 . S
H2944 C2965 0.950 . S
H2945 C2968 0.950 . S
H2946 C2969 0.950 . S
H2947 C2971 0.950 . S
H2948 C2972 0.950 . S
H2949 C2973 0.951 . S
H2950 C2975 0.951 . S
H2951 C2977 0.950 . S
H2952 C2978 0.950 . S
H2953 C2980 0.950 1_554 S
H2954 C2983 0.950 . S
H2955 C2984 0.950 . S
H2956 C2986 0.950 . S
H2957 C2987 0.950 . S
C2958 H2940 0.951 . S
C2958 C2959 1.366 . S
C2958 C2960 1.388 . S
C2959 C2958 1.366 . S
C2959 C2963 1.385 . S
C2960 H2941 0.951 . S
C2960 C2958 1.388 . S
C2960 C2961 1.366 . S
C2961 C2960 1.366 . S
C2961 C2962 1.414 . S
C2961 C2964 1.499 1_554 S
C2962 H2942 0.950 . S
C2962 C2961 1.414 . S
C2962 C2963 1.374 . S
C2963 H2943 0.950 . S
C2963 C2959 1.385 . S
C2963 C2962 1.374 . S
C2964 C2961 1.499 1_556 S
C2964 C2965 1.373 . S
C2964 C2966 1.389 1_556 S
C2965 H2944 0.950 . S
C2965 C2964 1.373 . S
C2965 C2981 1.377 . S
C2966 C2964 1.389 1_554 S
C2966 C2967 1.524 . S
C2966 C2980 1.377 1_554 S
C2967 C2966 1.524 . S
C2967 C2968 1.397 . S
C2967 C2972 1.363 . S
C2968 H2945 0.950 . S
C2968 C2967 1.397 . S
C2968 C2969 1.334 . S
C2969 H2946 0.950 . S
C2969 C2968 1.334 . S
C2969 C2970 1.287 . S
C2970 C2969 1.287 . S
C2970 C2971 1.524 . S
C2970 H2989 0.913 . S
C2971 H2947 0.950 . S
C2971 C2970 1.524 . S
C2971 C2972 1.415 . S
C2972 H2948 0.950 . S
C2972 C2967 1.363 . S
C2972 C2971 1.415 . S
C2973 H2949 0.951 . S
C2973 C2974 1.366 . S
C2973 C2975 1.388 . S
C2974 C2973 1.366 . S
C2974 C2978 1.385 . S
C2975 H2950 0.951 . S
C2975 C2973 1.388 . S
C2975 C2976 1.366 . S
C2976 C2975 1.366 . S
C2976 C2977 1.414 . S
C2976 C2979 1.499 . S
C2977 H2951 0.950 . S
C2977 C2976 1.414 . S
C2977 C2978 1.374 . S
C2978 H2952 0.950 . S
C2978 C2974 1.385 . S
C2978 C2977 1.374 . S
C2979 C2976 1.499 . S
C2979 C2980 1.373 . S
C2979 C2981 1.389 . S
C2980 H2953 0.950 1_556 S
C2980 C2966 1.377 1_556 S
C2980 C2979 1.373 . S
C2981 C2965 1.377 . S
C2981 C2979 1.389 . S
C2981 C2982 1.524 . S
C2982 C2981 1.524 . S
C2982 C2983 1.397 . S
C2982 C2987 1.363 . S
C2983 H2954 0.950 . S
C2983 C2982 1.397 . S
C2983 C2984 1.334 . S
C2984 H2955 0.950 . S
C2984 C2983 1.334 . S
C2984 C2985 1.287 . S
C2985 C2984 1.287 . S
C2985 C2986 1.524 . S
C2985 H2988 0.999 . S
C2986 H2956 0.950 . S
C2986 C2985 1.524 . S
C2986 C2987 1.415 . S
C2987 H2957 0.950 . S
C2987 C2982 1.363 . S
C2987 C2986 1.415 . S
H2988 C2985 0.999 . S
H2989 C2970 0.913 . S
H2990 C3008 0.951 . S
H2991 C3010 0.951 . S
H2992 C3012 0.950 . S
H2993 C3013 0.950 1_556 S
H2994 C3015 0.950 . S
H2995 C3018 0.950 1_556 S
H2996 C3019 0.950 . S
H2997 C3021 0.950 . S
H2998 C3022 0.950 . S
H2999 C3023 0.951 . S
H3000 C3025 0.951 . S
H3001 C3027 0.950 1_554 S
H3002 C3028 0.950 . S
H3003 C3030 0.963 . S
H3004 C3033 0.950 . S
H3005 C3034 0.950 . S
H3006 C3036 0.950 . S
H3007 C3037 0.950 . S
C3008 H2990 0.951 . S
C3008 C3009 1.366 . S
C3008 C3010 1.388 . S
C3009 C3008 1.366 . S
C3009 C3013 1.385 . S
C3010 H2991 0.951 . S
C3010 C3008 1.388 . S
C3010 C3011 1.366 . S
C3011 C3010 1.366 . S
C3011 C3012 1.414 1_554 S
C3011 C3014 1.499 1_554 S
C3012 H2992 0.950 . S
C3012 C3011 1.414 1_556 S
C3012 C3013 1.374 1_556 S
C3013 H2993 0.950 1_554 S
C3013 C3009 1.385 . S
C3013 C3012 1.374 1_554 S
C3014 C3011 1.499 1_556 S
C3014 C3015 1.373 . S
C3014 C3016 1.389 1_556 S
C3015 H2994 0.950 . S
C3015 C3014 1.373 . S
C3015 C3031 1.377 . S
C3016 C3014 1.389 1_554 S
C3016 C3017 1.524 . S
C3016 C3030 1.377 1_554 S
C3017 C3016 1.524 . S
C3017 C3018 1.397 . S
C3017 C3022 1.363 . S
C3018 H2995 0.950 1_554 S
C3018 C3017 1.397 . S
C3018 C3019 1.334 . S
C3019 H2996 0.950 . S
C3019 C3018 1.334 . S
C3019 C3020 1.287 . S
C3020 C3019 1.287 . S
C3020 C3021 1.524 . S
C3020 H3039 0.913 . S
C3021 H2997 0.950 . S
C3021 C3020 1.524 . S
C3021 C3022 1.415 . S
C3022 H2998 0.950 . S
C3022 C3017 1.363 . S
C3022 C3021 1.415 . S
C3023 H2999 0.951 . S
C3023 C3024 1.366 . S
C3023 C3025 1.388 . S
C3024 C3023 1.366 . S
C3024 C3028 1.385 . S
C3025 H3000 0.951 . S
C3025 C3023 1.388 . S
C3025 C3026 1.366 . S
C3026 C3025 1.366 . S
C3026 C3027 1.414 . S
C3026 C3029 1.499 . S
C3027 H3001 0.950 1_556 S
C3027 C3026 1.414 . S
C3027 C3028 1.374 . S
C3028 H3002 0.950 . S
C3028 C3024 1.385 . S
C3028 C3027 1.374 . S
C3029 C3026 1.499 . S
C3029 C3030 1.373 . S
C3029 C3031 1.389 . S
C3030 H3003 0.963 . S
C3030 C3016 1.377 1_556 S
C3030 C3029 1.373 . S
C3031 C3015 1.377 . S
C3031 C3029 1.389 . S
C3031 C3032 1.524 . S
C3032 C3031 1.524 . S
C3032 C3033 1.397 . S
C3032 C3037 1.363 . S
C3033 H3004 0.950 . S
C3033 C3032 1.397 . S
C3033 C3034 1.334 . S
C3034 H3005 0.950 . S
C3034 C3033 1.334 . S
C3034 C3035 1.287 . S
C3035 C3034 1.287 . S
C3035 C3036 1.524 . S
C3035 H3038 0.999 . S
C3036 H3006 0.950 . S
C3036 C3035 1.524 . S
C3036 C3037 1.415 . S
C3037 H3007 0.950 . S
C3037 C3032 1.363 . S
C3037 C3036 1.415 . S
H3038 C3035 0.999 . S
H3039 C3020 0.913 . S
C659 C18 2.295 . S
C674 C218 2.296 . S
C709 C258 2.296 . S
C724 C58 2.296 . S
C759 C98 2.296 . S
C774 C298 2.295 . S
C809 C138 2.296 . S
C824 C178 2.295 . S
C859 C528 2.296 . S
C874 C328 2.295 . S
C909 C568 2.296 . S
C924 C368 2.296 . S
C959 C408 2.296 . S
C974 C608 2.296 . S
C1009 C448 2.295 . S
C1024 C488 2.296 . S
C1059 C5 1.878 . S
C1074 C129 1.758 1_545 S
C1109 C45 1.877 . S
C1124 C9 1.758 . S
C1159 C85 1.878 . S
C1174 C49 1.758 . S
C1209 C125 1.877 . S
C1224 C89 1.758 1_455 S
C1259 C165 1.877 . S
C1274 C209 1.758 1_565 S
C1309 C249 1.758 . S
C1324 C205 1.878 . S
C1359 C245 1.878 . S
C1374 C289 1.757 . S
C1409 C169 1.757 1_655 S
C1424 C285 1.878 . S
C1459 C459 1.757 1_565 S
C1474 C335 1.878 . S
C1509 C375 1.878 . S
C1524 C339 1.758 . S
C1559 C415 1.878 . S
C1574 C379 1.758 . S
C1609 C455 1.878 . S
C1624 C419 1.757 1_655 S
C1659 C495 1.878 . S
C1674 C539 1.757 1_545 S
C1709 C535 1.878 . S
C1724 C579 1.758 . S
C1759 C575 1.878 . S
C1774 C619 1.758 . S
C1809 C615 1.877 . S
C1824 C499 1.758 1_455 S
C1859 C15 1.215 . S
C1874 C95 1.215 . S
C1909 C55 1.215 . S
C1924 C135 1.215 . S
C1959 C255 1.215 . S
C1974 C175 1.215 . S
C2009 C295 1.215 . S
C2024 C215 1.215 . S
C2059 C405 1.215 . S
C2074 C325 1.215 . S
C2109 C445 1.215 . S
C2124 C365 1.215 . S
C2159 C485 1.215 . S
C2174 C565 1.215 . S
C2209 C525 1.215 . S
C2224 C605 1.215 . S
C2259 C19 2.339 . S
C2274 C458 2.337 . S
C2309 C338 2.337 . S
C2324 C59 2.339 . S
C2359 C99 2.339 . S
C2374 C378 2.337 . S
C2409 C418 2.337 . S
C2424 C139 2.339 . S
C2459 C538 2.337 . S
C2474 C179 2.339 . S
C2509 C219 2.339 . S
C2524 C578 2.337 . S
C2559 C618 2.337 . S
C2574 C259 2.339 . S
C2609 C299 2.339 . S
C2624 C498 2.337 . S
C2659 C329 2.339 . S
C2674 C128 2.337 . S
C2709 C369 2.339 . S
C2724 C8 2.337 . S
C2759 C48 2.337 . S
C2774 C409 2.339 . S
C2809 C449 2.339 . S
C2824 C88 2.337 . S
C2859 C489 2.339 . S
C2874 C208 2.337 . S
C2909 C529 2.339 . S
C2924 C248 2.337 . S
C2959 C288 2.337 . S
C2974 C569 2.339 . S
C3009 C168 2.337 . S
C3024 C609 2.339 . S
