# Generated by pormake.
# Topology wmz, (6)-cn, num edge types: 1
# Building blocks:
#     Node 0, Type 0, BuildingBlock: OJICUG_clean_sbu_0, # of connection points: 6
#     Node 1, Type 0, BuildingBlock: OJICUG_clean_sbu_0, # of connection points: 6
#     Node 2, Type 0, BuildingBlock: OJICUG_clean_sbu_0, # of connection points: 6
#     Node 3, Type 0, BuildingBlock: OJICUG_clean_sbu_0, # of connection points: 6
#     Node 4, Type 0, BuildingBlock: OJICUG_clean_sbu_0, # of connection points: 6
#     Node 5, Type 0, BuildingBlock: OJICUG_clean_sbu_0, # of connection points: 6
#     Node 6, Type 0, BuildingBlock: OJICUG_clean_sbu_0, # of connection points: 6
#     Node 7, Type 0, BuildingBlock: OJICUG_clean_sbu_0, # of connection points: 6
#     Node 8, Type 0, BuildingBlock: OJICUG_clean_sbu_0, # of connection points: 6
#     Node 9, Type 0, BuildingBlock: OJICUG_clean_sbu_0, # of connection points: 6
#     Node 10, Type 0, BuildingBlock: OJICUG_clean_sbu_0, # of connection points: 6
#     Node 11, Type 0, BuildingBlock: OJICUG_clean_sbu_0, # of connection points: 6
#     Node 12, Type 0, BuildingBlock: OJICUG_clean_sbu_0, # of connection points: 6
#     Node 13, Type 0, BuildingBlock: OJICUG_clean_sbu_0, # of connection points: 6
#     Node 14, Type 0, BuildingBlock: OJICUG_clean_sbu_0, # of connection points: 6
#     Node 15, Type 0, BuildingBlock: OJICUG_clean_sbu_0, # of connection points: 6
#     Node 16, Type 0, BuildingBlock: OJICUG_clean_sbu_0, # of connection points: 6
#     Node 17, Type 0, BuildingBlock: OJICUG_clean_sbu_0, # of connection points: 6
#     Node 18, Type 0, BuildingBlock: OJICUG_clean_sbu_0, # of connection points: 6
#     Node 19, Type 0, BuildingBlock: OJICUG_clean_sbu_0, # of connection points: 6
#     Node 20, Type 0, BuildingBlock: OJICUG_clean_sbu_0, # of connection points: 6
#     Node 21, Type 0, BuildingBlock: OJICUG_clean_sbu_0, # of connection points: 6
#     Node 22, Type 0, BuildingBlock: OJICUG_clean_sbu_0, # of connection points: 6
#     Node 23, Type 0, BuildingBlock: OJICUG_clean_sbu_0, # of connection points: 6
#     Node 24, Type 0, BuildingBlock: OJICUG_clean_sbu_0, # of connection points: 6
#     Node 25, Type 0, BuildingBlock: OJICUG_clean_sbu_0, # of connection points: 6
#     Node 26, Type 0, BuildingBlock: OJICUG_clean_sbu_0, # of connection points: 6
#     Node 27, Type 0, BuildingBlock: OJICUG_clean_sbu_0, # of connection points: 6
#     Node 28, Type 0, BuildingBlock: OJICUG_clean_sbu_0, # of connection points: 6
#     Node 29, Type 0, BuildingBlock: OJICUG_clean_sbu_0, # of connection points: 6
#     Node 30, Type 0, BuildingBlock: OJICUG_clean_sbu_0, # of connection points: 6
#     Node 31, Type 0, BuildingBlock: OJICUG_clean_sbu_0, # of connection points: 6
#     Node 32, Type 0, BuildingBlock: OJICUG_clean_sbu_0, # of connection points: 6
#     Node 33, Type 0, BuildingBlock: OJICUG_clean_sbu_0, # of connection points: 6
#     Node 34, Type 0, BuildingBlock: OJICUG_clean_sbu_0, # of connection points: 6
#     Node 35, Type 0, BuildingBlock: OJICUG_clean_sbu_0, # of connection points: 6
#     Edge 36, Type (0, 0), None
#     Edge 37, Type (0, 0), None
#     Edge 38, Type (0, 0), None
#     Edge 39, Type (0, 0), None
#     Edge 40, Type (0, 0), None
#     Edge 41, Type (0, 0), None
#     Edge 42, Type (0, 0), None
#     Edge 43, Type (0, 0), None
#     Edge 44, Type (0, 0), None
#     Edge 45, Type (0, 0), None
#     Edge 46, Type (0, 0), None
#     Edge 47, Type (0, 0), None
#     Edge 48, Type (0, 0), None
#     Edge 49, Type (0, 0), None
#     Edge 50, Type (0, 0), None
#     Edge 51, Type (0, 0), None
#     Edge 52, Type (0, 0), None
#     Edge 53, Type (0, 0), None
#     Edge 54, Type (0, 0), None
#     Edge 55, Type (0, 0), None
#     Edge 56, Type (0, 0), None
#     Edge 57, Type (0, 0), None
#     Edge 58, Type (0, 0), None
#     Edge 59, Type (0, 0), None
#     Edge 60, Type (0, 0), None
#     Edge 61, Type (0, 0), None
#     Edge 62, Type (0, 0), None
#     Edge 63, Type (0, 0), None
#     Edge 64, Type (0, 0), None
#     Edge 65, Type (0, 0), None
#     Edge 66, Type (0, 0), None
#     Edge 67, Type (0, 0), None
#     Edge 68, Type (0, 0), None
#     Edge 69, Type (0, 0), None
#     Edge 70, Type (0, 0), None
#     Edge 71, Type (0, 0), None
#     Edge 72, Type (0, 0), None
#     Edge 73, Type (0, 0), None
#     Edge 74, Type (0, 0), None
#     Edge 75, Type (0, 0), None
#     Edge 76, Type (0, 0), None
#     Edge 77, Type (0, 0), None
#     Edge 78, Type (0, 0), None
#     Edge 79, Type (0, 0), None
#     Edge 80, Type (0, 0), None
#     Edge 81, Type (0, 0), None
#     Edge 82, Type (0, 0), None
#     Edge 83, Type (0, 0), None
#     Edge 84, Type (0, 0), None
#     Edge 85, Type (0, 0), None
#     Edge 86, Type (0, 0), None
#     Edge 87, Type (0, 0), None
#     Edge 88, Type (0, 0), None
#     Edge 89, Type (0, 0), None
#     Edge 90, Type (0, 0), None
#     Edge 91, Type (0, 0), None
#     Edge 92, Type (0, 0), None
#     Edge 93, Type (0, 0), None
#     Edge 94, Type (0, 0), None
#     Edge 95, Type (0, 0), None
#     Edge 96, Type (0, 0), None
#     Edge 97, Type (0, 0), None
#     Edge 98, Type (0, 0), None
#     Edge 99, Type (0, 0), None
#     Edge 100, Type (0, 0), None
#     Edge 101, Type (0, 0), None
#     Edge 102, Type (0, 0), None
#     Edge 103, Type (0, 0), None
#     Edge 104, Type (0, 0), None
#     Edge 105, Type (0, 0), None
#     Edge 106, Type (0, 0), None
#     Edge 107, Type (0, 0), None
#     Edge 108, Type (0, 0), None
#     Edge 109, Type (0, 0), None
#     Edge 110, Type (0, 0), None
#     Edge 111, Type (0, 0), None
#     Edge 112, Type (0, 0), None
#     Edge 113, Type (0, 0), None
#     Edge 114, Type (0, 0), None
#     Edge 115, Type (0, 0), None
#     Edge 116, Type (0, 0), None
#     Edge 117, Type (0, 0), None
#     Edge 118, Type (0, 0), None
#     Edge 119, Type (0, 0), None
#     Edge 120, Type (0, 0), None
#     Edge 121, Type (0, 0), None
#     Edge 122, Type (0, 0), None
#     Edge 123, Type (0, 0), None
#     Edge 124, Type (0, 0), None
#     Edge 125, Type (0, 0), None
#     Edge 126, Type (0, 0), None
#     Edge 127, Type (0, 0), None
#     Edge 128, Type (0, 0), None
#     Edge 129, Type (0, 0), None
#     Edge 130, Type (0, 0), None
#     Edge 131, Type (0, 0), None
#     Edge 132, Type (0, 0), None
#     Edge 133, Type (0, 0), None
#     Edge 134, Type (0, 0), None
#     Edge 135, Type (0, 0), None
#     Edge 136, Type (0, 0), None
#     Edge 137, Type (0, 0), None
#     Edge 138, Type (0, 0), None
#     Edge 139, Type (0, 0), None
#     Edge 140, Type (0, 0), None
#     Edge 141, Type (0, 0), None
#     Edge 142, Type (0, 0), None
#     Edge 143, Type (0, 0), None
# Relax obj value: 0.497
# Max RMSD: 0.230
# Mean RMSD: 0.230
data_MOF--net-wmz--node1-OJICUG_clean_sbu_0--edge1-none
_symmetry_space_group_name_H-M    P1
_symmetry_Int_Tables_number       1
_symmetry_cell_setting            triclinic
loop_
_symmetry_equiv_pos_as_xyz
'x, y, z'
_cell_length_a     23.278289
_cell_length_b     23.279356
_cell_length_c     33.818384
_cell_angle_alpha  90.000525
_cell_angle_beta   89.998637
_cell_angle_gamma 120.00637
loop_
_atom_site_label
_atom_site_type_symbol
_atom_site_fract_x
_atom_site_fract_y
_atom_site_fract_z
_atom_type_partial_charge
Sc0 Sc 0.3138 0.1981 -0.06274 0.0
Sc1 Sc 0.24529 0.2152 0.0239 0.0
Sc2 Sc 0.14611 0.13211 -0.05142 0.0
O3 O 0.2357 0.1821 -0.03095 0.0
C4 C 0.21724 0.20634 -0.12583 0.0
C5 C 0.31985 0.3333 -0.03923 0.0
C6 C 0.09694 0.18115 0.01379 0.0
C7 C 0.369 0.20912 0.02241 0.0
C8 C 0.22083 0.06126 -0.09134 0.0
C9 C 0.16605 0.06031 0.01868 0.0
O10 O 0.27024 0.20524 -0.11822 0.0
O11 O 0.27855 0.31148 -0.00915 0.0
O12 O 0.11635 0.19537 -0.02153 0.0
O13 O 0.36028 0.18251 -0.01128 0.0
O14 O 0.17118 0.06946 -0.08556 0.0
O15 O 0.21736 0.10931 0.03532 0.0
O16 O 0.2756 0.09566 -0.07383 0.0
O17 O 0.348 0.24828 0.02923 0.0
O18 O 0.12534 0.07004 -0.00092 0.0
O19 O 0.34771 0.30172 -0.05286 0.0
O20 O 0.17367 0.19659 -0.1001 0.0
O21 O 0.1403 0.18376 0.03724 0.0
Sc22 Sc 0.89086 0.13349 -0.06273 0.0
Sc23 Sc 0.87371 0.04786 0.0239 0.0
Sc24 Sc 0.95683 1.0318 -0.05141 0.0
O25 O 0.90684 0.07138 -0.03095 0.0
C26 C 0.88262 1.0287 -0.12583 0.0
C27 C 0.75563 1.00435 -0.03923 0.0
C28 C 0.90776 0.93356 0.01378 0.0
C29 C 0.87982 0.17767 0.02242 0.0
C30 C 1.02771 0.17738 -0.09132 0.0
C31 C 1.0286 0.12351 0.0187 0.0
O32 O 0.88373 0.0828 -0.11821 0.0
O33 O 0.77743 0.98486 -0.00916 0.0
O34 O 0.89354 0.93876 -0.02154 0.0
O35 O 0.90643 0.19556 -0.01127 0.0
O36 O 1.0195 0.11953 -0.08555 0.0
O37 O 0.97961 0.12582 0.03533 0.0
O38 O 0.99331 0.19774 -0.0738 0.0
O39 O 0.84066 0.1175 0.02925 0.0
O40 O 1.01889 0.07309 -0.00091 0.0
O41 O 0.78723 0.06378 -0.05287 0.0
O42 O 0.89236 0.99487 -0.1001 0.0
O43 O 0.90514 0.97431 0.03724 0.0
Sc44 Sc 0.95543 0.77514 -0.06274 0.0
Sc45 Sc 1.04106 0.84366 0.02389 0.0
Sc46 Sc 0.05711 0.94283 -0.05144 0.0
O47 O 1.01755 0.85325 -0.03096 0.0
C48 C 0.0602 0.87171 -0.12585 0.0
C49 C 0.08458 0.76908 -0.03924 0.0
C50 C 0.15535 0.99198 0.01375 0.0
C51 C 0.91124 0.71993 0.02241 0.0
C52 C 0.91152 0.86807 -0.09133 0.0
C53 C 0.9654 0.92288 0.01869 0.0
O54 O 1.00611 0.81871 -0.11823 0.0
O55 O 0.10407 0.81038 -0.00916 0.0
O56 O 0.15019 0.97267 -0.02159 0.0
O57 O 0.89336 0.72865 -0.01128 0.0
O58 O 0.96936 0.91773 -0.08556 0.0
O59 O 0.96309 0.87157 0.03532 0.0
O60 O 0.89116 0.81331 -0.07382 0.0
O61 O 0.97142 0.74095 0.02924 0.0
O62 O 1.01582 0.96359 -0.00093 0.0
O63 O 1.02515 0.74125 -0.05288 0.0
O64 O 0.09403 0.91529 -0.10012 0.0
O65 O 0.11461 0.94865 0.03723 0.0
Sc66 Sc 0.14987 0.12833 0.29402 0.0
Sc67 Sc 0.23298 0.22751 0.21871 0.0
Sc68 Sc 0.21586 0.29601 0.30535 0.0
O69 O 0.19986 0.21791 0.27356 0.0
C70 C 0.07901 0.20303 0.33394 0.0
C71 C 0.07808 0.14827 0.22392 0.0
C72 C 0.22689 0.35122 0.2202 0.0
C73 C 0.19893 0.07917 0.22883 0.0
C74 C 0.2241 0.19945 0.36844 0.0
C75 C 0.35107 0.30207 0.28184 0.0
O76 O 0.08721 0.15339 0.32816 0.0
O77 O 0.12708 0.19959 0.20729 0.0
O78 O 0.20027 0.34249 0.25389 0.0
O79 O 0.21315 0.09858 0.26414 0.0
O80 O 0.223 0.25244 0.36082 0.0
O81 O 0.32926 0.26078 0.25176 0.0
O82 O 0.21434 0.15588 0.34271 0.0
O83 O 0.20153 0.12253 0.20537 0.0
O84 O 0.31948 0.32992 0.29547 0.0
O85 O 0.08781 0.10757 0.24352 0.0
O86 O 0.11341 0.25781 0.31644 0.0
O87 O 0.26606 0.33022 0.21338 0.0
Sc88 Sc 0.9606 0.03933 0.29405 0.0
Sc89 Sc 0.86143 1.02328 0.21872 0.0
Sc90 Sc 0.7929 0.93765 0.30535 0.0
O91 O 0.87102 0.99977 0.27358 0.0
C92 C 0.88584 0.89375 0.33395 0.0
C93 C 0.94065 0.94762 0.22393 0.0
C94 C 0.7377 0.89347 0.2202 0.0
C95 C 1.00975 0.13757 0.22886 0.0
C96 C 0.88947 0.04242 0.36846 0.0
C97 C 0.78686 0.06681 0.28184 0.0
O98 O 0.9355 0.95159 0.32818 0.0
O99 O 0.88934 0.9453 0.2073 0.0
O100 O 0.74642 0.87559 0.25389 0.0
O101 O 0.99044 0.13241 0.26419 0.0
O102 O 0.83646 0.98834 0.36084 0.0
O103 O 0.82816 0.08629 0.25177 0.0
O104 O 0.93306 0.07625 0.34274 0.0
O105 O 0.96642 0.09682 0.20538 0.0
O106 O 0.75901 1.00738 0.29548 0.0
O107 O 0.98136 0.99805 0.24354 0.0
O108 O 0.83106 0.87339 0.31645 0.0
O109 O 0.75871 0.95364 0.21338 0.0
Sc110 Sc 0.15126 0.87309 0.30535 0.0
Sc111 Sc 0.06562 0.85595 0.21871 0.0
Sc112 Sc 1.04958 0.93908 0.29404 0.0
O113 O 0.08914 0.88907 0.27357 0.0
C114 C 1.04649 0.86487 0.36845 0.0
C115 C 1.02211 0.73786 0.28184 0.0
C116 C 0.95134 0.88997 0.22886 0.0
C117 C 0.19544 0.86204 0.2202 0.0
C118 C 0.19517 1.00994 0.33393 0.0
C119 C 0.14129 1.01084 0.22391 0.0
O120 O 0.10057 0.86596 0.36083 0.0
O121 O 1.00262 0.75966 0.25177 0.0
O122 O 0.9565 0.87582 0.26419 0.0
O123 O 0.21332 0.88866 0.25388 0.0
O124 O 0.13733 1.00174 0.32816 0.0
O125 O 0.1436 0.96184 0.20728 0.0
O126 O 0.21553 0.97553 0.31642 0.0
O127 O 0.13527 0.82289 0.21337 0.0
O128 O 0.09087 1.00112 0.24353 0.0
O129 O 0.08154 0.76946 0.29548 0.0
O130 O 1.01266 0.87463 0.34273 0.0
O131 O 0.99207 0.88738 0.20538 0.0
Sc132 Sc 0.79287 0.87302 0.80539 0.0
Sc133 Sc 0.8614 0.85597 0.71873 0.0
Sc134 Sc 0.96058 0.93906 0.79403 0.0
O135 O 0.87099 0.88909 0.77358 0.0
C136 C 0.8859 1.00994 0.83394 0.0
C137 C 0.73769 0.86205 0.72024 0.0
C138 C 0.94069 1.01087 0.7239 0.0
C139 C 0.78688 0.73786 0.78185 0.0
C140 C 0.88942 0.86472 0.86844 0.0
C141 C 1.00974 0.89 0.72884 0.0
O142 O 0.83102 0.97543 0.81656 0.0
O143 O 0.75869 0.82289 0.71341 0.0
O144 O 0.98136 1.00112 0.74353 0.0
O145 O 0.75898 0.7694 0.79547 0.0
O146 O 0.93304 0.87459 0.84272 0.0
O147 O 0.9664 0.88743 0.70538 0.0
O148 O 0.83644 0.86586 0.86085 0.0
O149 O 0.82816 0.75969 0.75177 0.0
O150 O 0.99031 0.87576 0.76416 0.0
O151 O 0.7464 0.88865 0.75394 0.0
O152 O 0.93554 1.00174 0.82816 0.0
O153 O 0.88932 0.96186 0.70731 0.0
Sc154 Sc 0.21586 0.93765 0.80538 0.0
Sc155 Sc 0.23296 1.02326 0.71873 0.0
Sc156 Sc 0.14985 0.03933 0.79403 0.0
O157 O 0.19982 0.99972 0.77358 0.0
C158 C 0.07893 0.89375 0.83391 0.0
C159 C 0.22686 0.89344 0.72024 0.0
C160 C 0.07806 0.94764 0.72388 0.0
C161 C 0.35106 0.06683 0.78186 0.0
C162 C 0.22416 0.0425 0.86844 0.0
C163 C 0.19894 0.13757 0.72885 0.0
O164 O 0.11343 0.87338 0.81653 0.0
O165 O 0.26602 0.95361 0.7134 0.0
O166 O 0.0878 0.99805 0.74352 0.0
O167 O 0.31949 1.00738 0.79548 0.0
O168 O 0.21431 0.07626 0.84271 0.0
O169 O 0.20152 0.0968 0.70539 0.0
O170 O 0.22301 0.98838 0.86084 0.0
O171 O 0.32925 0.08629 0.75177 0.0
O172 O 0.21318 0.13237 0.76416 0.0
O173 O 0.20025 0.87556 0.75393 0.0
O174 O 0.08714 0.9516 0.82814 0.0
O175 O 0.12707 0.94529 0.7073 0.0
Sc176 Sc 1.04961 0.12832 0.79405 0.0
Sc177 Sc 0.06567 0.22749 0.71874 0.0
Sc178 Sc 0.15127 0.29603 0.80539 0.0
O179 O 0.0892 0.21791 0.77359 0.0
C180 C 1.04645 0.19947 0.86846 0.0
C181 C 0.95136 0.07918 0.72888 0.0
C182 C 1.02209 0.30203 0.78186 0.0
C183 C 0.14129 0.14823 0.72389 0.0
C184 C 0.1952 0.20304 0.83393 0.0
C185 C 0.19548 0.35122 0.72024 0.0
O186 O 1.01269 0.15584 0.84274 0.0
O187 O 0.99212 0.1225 0.7054 0.0
O188 O 0.08153 0.32991 0.79548 0.0
O189 O 0.09088 0.10755 0.74354 0.0
O190 O 0.21556 0.25792 0.81655 0.0
O191 O 0.13531 0.3302 0.71341 0.0
O192 O 0.13736 0.15339 0.82816 0.0
O193 O 0.14364 0.19959 0.70731 0.0
O194 O 0.21337 0.34252 0.75393 0.0
O195 O 0.95653 0.09852 0.76421 0.0
O196 O 0.10055 0.25246 0.86086 0.0
O197 O 1.00263 0.26074 0.75178 0.0
Sc198 Sc 0.95684 0.94281 0.44859 0.0
Sc199 Sc 0.87374 0.84363 0.52389 0.0
Sc200 Sc 0.8908 0.77511 0.43723 0.0
O201 O 0.90686 0.85322 0.46904 0.0
C202 C 0.88251 0.87166 0.37418 0.0
C203 C 0.90776 0.99196 0.51377 0.0
C204 C 0.75563 0.7691 0.46077 0.0
C205 C 1.02864 0.92292 0.51873 0.0
C206 C 1.02774 0.86815 0.40869 0.0
C207 C 0.87984 0.71992 0.52238 0.0
O208 O 0.89238 0.91528 0.3999 0.0
O209 O 0.90519 0.94862 0.53723 0.0
O210 O 0.78718 0.74121 0.44715 0.0
O211 O 1.01889 0.96359 0.4991 0.0
O212 O 0.99323 0.81326 0.42606 0.0
O213 O 0.84067 0.74092 0.5292 0.0
O214 O 1.01954 0.91779 0.41447 0.0
O215 O 0.97964 0.87155 0.53531 0.0
O216 O 0.90643 0.72864 0.48868 0.0
O217 O 0.89352 0.97252 0.47846 0.0
O218 O 0.88364 0.81868 0.38177 0.0
O219 O 0.77745 0.81038 0.49085 0.0
Sc220 Sc 0.1461 1.03184 0.44857 0.0
Sc221 Sc 0.24527 0.04791 0.52388 0.0
Sc222 Sc 0.31382 0.13349 0.43723 0.0
O223 O 0.23569 0.07143 0.46902 0.0
C224 C 0.21726 1.02867 0.37416 0.0
C225 C 0.09696 0.9336 0.51374 0.0
C226 C 0.31981 1.00432 0.46077 0.0
C227 C 0.166 0.12353 0.51872 0.0
C228 C 0.22082 0.17742 0.40868 0.0
C229 C 0.369 0.17772 0.52238 0.0
O230 O 0.17362 0.99492 0.39988 0.0
O231 O 0.14027 0.97436 0.53722 0.0
O232 O 0.3477 0.06376 0.44714 0.0
O233 O 0.12533 0.07311 0.49909 0.0
O234 O 0.27571 0.19778 0.42605 0.0
O235 O 0.34799 0.11755 0.5292 0.0
O236 O 0.17117 0.11958 0.41446 0.0
O237 O 0.21736 0.12588 0.5353 0.0
O238 O 0.3603 0.1956 0.48868 0.0
O239 O 0.1163 0.93876 0.47841 0.0
O240 O 0.27026 0.08277 0.38176 0.0
O241 O 0.27852 0.98487 0.49085 0.0
Sc242 Sc 0.05709 0.13205 0.44858 0.0
Sc243 Sc 1.04103 0.21517 0.52388 0.0
Sc244 Sc 0.95543 0.19809 0.43723 0.0
O245 O 1.0175 0.18205 0.46903 0.0
C246 C 0.06026 0.20636 0.37417 0.0
C247 C 0.15534 0.18118 0.51374 0.0
C248 C 0.0846 0.33329 0.46076 0.0
C249 C 0.96541 0.06028 0.51873 0.0
C250 C 0.9115 0.06116 0.4087 0.0
C251 C 0.91121 0.20907 0.52238 0.0
O252 O 0.09401 0.19649 0.39988 0.0
O253 O 0.11458 0.18373 0.53722 0.0
O254 O 1.02516 0.30171 0.44714 0.0
O255 O 1.01582 0.07001 0.49909 0.0
O256 O 0.89113 0.09567 0.42608 0.0
O257 O 0.97138 0.24822 0.52922 0.0
O258 O 0.96934 0.06935 0.41447 0.0
O259 O 0.96306 0.10928 0.53532 0.0
O260 O 0.89333 0.18248 0.48869 0.0
O261 O 0.15017 0.19535 0.47841 0.0
O262 O 1.00615 0.20524 0.38177 0.0
O263 O 0.10406 0.31147 0.49085 0.0
Sc264 Sc 0.98046 0.53142 0.27059 0.0
Sc265 Sc 0.91196 0.54854 0.35723 0.0
Sc266 Sc 0.81278 0.46544 0.28191 0.0
O267 O 0.90236 0.51542 0.30238 0.0
C268 C 0.88391 0.53967 0.2075 0.0
C269 C 0.98648 0.66659 0.29407 0.0
C270 C 0.76361 0.51449 0.34712 0.0
C271 C 1.03567 0.54245 0.35574 0.0
C272 C 0.88748 0.39458 0.24199 0.0
C273 C 0.83271 0.39365 0.35202 0.0
O274 O 0.9369 0.53856 0.21511 0.0
O275 O 0.94522 0.64481 0.32417 0.0
O276 O 0.78302 0.5287 0.3118 0.0
O277 O 1.02694 0.51583 0.32205 0.0
O278 O 0.83784 0.40279 0.24777 0.0
O279 O 0.88403 0.44265 0.36865 0.0
O280 O 0.94226 0.42898 0.2595 0.0
O281 O 1.01467 0.58162 0.36256 0.0
O282 O 0.79201 0.40337 0.33241 0.0
O283 O 1.01438 0.63504 0.28047 0.0
O284 O 0.84034 0.52992 0.23323 0.0
O285 O 0.80697 0.51709 0.37058 0.0
Sc286 Sc 0.55754 0.46684 0.2706 0.0
Sc287 Sc 0.54037 0.38119 0.35723 0.0
Sc288 Sc 0.6235 0.36514 0.28192 0.0
O289 O 0.57351 0.40473 0.30238 0.0
C290 C 0.54929 0.36204 0.2075 0.0
C291 C 0.42234 0.33769 0.29407 0.0
C292 C 0.57443 0.2669 0.34711 0.0
C293 C 0.54649 0.51101 0.35575 0.0
C294 C 0.69439 0.51071 0.24202 0.0
C295 C 0.69527 0.45685 0.35203 0.0
O296 O 0.55042 0.41615 0.21512 0.0
O297 O 0.4441 0.3182 0.32417 0.0
O298 O 0.56021 0.27209 0.3118 0.0
O299 O 0.57312 0.5289 0.32206 0.0
O300 O 0.68617 0.45286 0.24779 0.0
O301 O 0.64627 0.45916 0.36866 0.0
O302 O 0.66 0.53109 0.25953 0.0
O303 O 0.50732 0.45084 0.36257 0.0
O304 O 0.68555 0.40643 0.33242 0.0
O305 O 0.45392 0.39714 0.28046 0.0
O306 O 0.55902 0.32821 0.23324 0.0
O307 O 0.57181 0.30765 0.37057 0.0
Sc308 Sc 0.62208 0.10848 0.27059 0.0
Sc309 Sc 0.70773 0.17699 0.35722 0.0
Sc310 Sc 0.72378 0.27617 0.2819 0.0
O311 O 0.6842 0.18659 0.30237 0.0
C312 C 0.72685 0.20504 0.20748 0.0
C313 C 0.75124 0.10246 0.29407 0.0
C314 C 0.82202 0.32531 0.34708 0.0
C315 C 0.57791 0.05327 0.35575 0.0
C316 C 0.57818 0.20142 0.242 0.0
C317 C 0.63207 0.25622 0.35202 0.0
O318 O 0.67276 0.15204 0.21511 0.0
O319 O 0.77073 0.14372 0.32417 0.0
O320 O 0.81686 0.30601 0.31175 0.0
O321 O 0.56002 0.06199 0.32206 0.0
O322 O 0.63603 0.25107 0.24777 0.0
O323 O 0.62976 0.20491 0.36865 0.0
O324 O 0.55782 0.14666 0.25952 0.0
O325 O 0.63808 0.07428 0.36257 0.0
O326 O 0.68249 0.29692 0.3324 0.0
O327 O 0.69179 0.07458 0.28045 0.0
O328 O 0.76069 0.24862 0.23321 0.0
O329 O 0.78128 0.28198 0.37056 0.0
Sc330 Sc 0.81653 0.46167 0.62736 0.0
Sc331 Sc 0.89964 0.56085 0.55204 0.0
Sc332 Sc 0.88252 0.62935 0.63868 0.0
O333 O 0.86653 0.55125 0.6069 0.0
C334 C 0.74567 0.53636 0.66727 0.0
C335 C 0.74475 0.4816 0.55725 0.0
C336 C 0.89355 0.68456 0.55353 0.0
C337 C 0.8656 0.41251 0.56216 0.0
C338 C 0.89076 0.53279 0.70178 0.0
C339 C 1.01774 0.63542 0.61517 0.0
O340 O 0.75387 0.48672 0.66149 0.0
O341 O 0.79374 0.53292 0.54062 0.0
O342 O 0.86693 0.67582 0.58722 0.0
O343 O 0.87981 0.43192 0.59748 0.0
O344 O 0.88966 0.58578 0.69416 0.0
O345 O 0.99592 0.59412 0.5851 0.0
O346 O 0.881 0.48922 0.67604 0.0
O347 O 0.8682 0.45587 0.5387 0.0
O348 O 0.98615 0.66326 0.62881 0.0
O349 O 0.75448 0.4409 0.57685 0.0
O350 O 0.78008 0.59114 0.64977 0.0
O351 O 0.93271 0.66356 0.54671 0.0
Sc352 Sc 0.62726 0.37266 0.62738 0.0
Sc353 Sc 0.52809 0.3566 0.55205 0.0
Sc354 Sc 0.45956 0.27098 0.63869 0.0
O355 O 0.53768 0.33309 0.60691 0.0
C356 C 0.55251 0.22708 0.66729 0.0
C357 C 0.60732 0.28095 0.55727 0.0
C358 C 0.40436 0.2268 0.55354 0.0
C359 C 0.67641 0.4709 0.56219 0.0
C360 C 0.55613 0.37575 0.7018 0.0
C361 C 0.45352 0.40013 0.61518 0.0
O362 O 0.60216 0.28492 0.66151 0.0
O363 O 0.55601 0.27863 0.54063 0.0
O364 O 0.41308 0.20891 0.58723 0.0
O365 O 0.6571 0.46574 0.59753 0.0
O366 O 0.50312 0.32167 0.69417 0.0
O367 O 0.49482 0.41961 0.5851 0.0
O368 O 0.59972 0.40957 0.67607 0.0
O369 O 0.63308 0.43015 0.53871 0.0
O370 O 0.42567 0.3407 0.62882 0.0
O371 O 0.64802 0.33138 0.57687 0.0
O372 O 0.49773 0.20672 0.64979 0.0
O373 O 0.42538 0.28696 0.54671 0.0
Sc374 Sc 0.81794 0.20642 0.63868 0.0
Sc375 Sc 0.7323 0.18929 0.55205 0.0
Sc376 Sc 0.71625 0.27242 0.62737 0.0
O377 O 0.75582 0.2224 0.6069 0.0
C378 C 0.71317 0.19821 0.70179 0.0
C379 C 0.68879 0.07119 0.61518 0.0
C380 C 0.61801 0.2233 0.56219 0.0
C381 C 0.86212 0.19539 0.55353 0.0
C382 C 0.86185 0.34328 0.66726 0.0
C383 C 0.80796 0.34417 0.55725 0.0
O384 O 0.76725 0.1993 0.69416 0.0
O385 O 0.6693 0.093 0.5851 0.0
O386 O 0.62317 0.20916 0.59753 0.0
O387 O 0.88 0.222 0.58722 0.0
O388 O 0.804 0.33508 0.66149 0.0
O389 O 0.81027 0.29518 0.54062 0.0
O390 O 0.8822 0.30887 0.64975 0.0
O391 O 0.80194 0.15623 0.5467 0.0
O392 O 0.75753 0.33445 0.57686 0.0
O393 O 0.74822 0.1028 0.62882 0.0
O394 O 0.67934 0.20797 0.67606 0.0
O395 O 0.65874 0.22072 0.53871 0.0
Sc396 Sc 0.45953 0.20635 0.13872 0.0
Sc397 Sc 0.52806 0.18931 0.05207 0.0
Sc398 Sc 0.62724 0.2724 0.12737 0.0
O399 O 0.53765 0.22242 0.10692 0.0
C400 C 0.55257 0.34328 0.16727 0.0
C401 C 0.40435 0.19539 0.05358 0.0
C402 C 0.60736 0.3442 0.05723 0.0
C403 C 0.45354 0.07119 0.11519 0.0
C404 C 0.55609 0.19807 0.20178 0.0
C405 C 0.6764 0.22333 0.06218 0.0
O406 O 0.49768 0.30877 0.14989 0.0
O407 O 0.42535 0.15623 0.04675 0.0
O408 O 0.64803 0.33446 0.07686 0.0
O409 O 0.42564 0.10274 0.12881 0.0
O410 O 0.5997 0.20793 0.17605 0.0
O411 O 0.63306 0.22076 0.03872 0.0
O412 O 0.5031 0.1992 0.19418 0.0
O413 O 0.49482 0.09302 0.0851 0.0
O414 O 0.65696 0.20909 0.09749 0.0
O415 O 0.41306 0.22198 0.08727 0.0
O416 O 0.60221 0.33508 0.1615 0.0
O417 O 0.55599 0.2952 0.04065 0.0
Sc418 Sc 0.88252 0.27098 0.13871 0.0
Sc419 Sc 0.89962 0.35658 0.05206 0.0
Sc420 Sc 0.81651 0.37266 0.12736 0.0
O421 O 0.86649 0.33304 0.10691 0.0
C422 C 0.74559 0.22708 0.16725 0.0
C423 C 0.89351 0.22676 0.05357 0.0
C424 C 0.74472 0.28097 0.05722 0.0
C425 C 1.01773 0.40015 0.11519 0.0
C426 C 0.89082 0.37583 0.20177 0.0
C427 C 0.86561 0.4709 0.06219 0.0
O428 O 0.78009 0.2067 0.14986 0.0
O429 O 0.93267 0.28693 0.04674 0.0
O430 O 0.75446 0.33138 0.07685 0.0
O431 O 0.98615 0.3407 0.12881 0.0
O432 O 0.88097 0.40958 0.17604 0.0
O433 O 0.86818 0.43013 0.03872 0.0
O434 O 0.88968 0.32171 0.19418 0.0
O435 O 0.99591 0.41961 0.0851 0.0
O436 O 0.87984 0.4657 0.09749 0.0
O437 O 0.86691 0.20888 0.08726 0.0
O438 O 0.75381 0.28493 0.16148 0.0
O439 O 0.79373 0.27861 0.04063 0.0
Sc440 Sc 0.71628 0.46165 0.12738 0.0
Sc441 Sc 0.73234 0.56083 0.05207 0.0
Sc442 Sc 0.81794 0.62937 0.13872 0.0
O443 O 0.75587 0.55124 0.10693 0.0
C444 C 0.71312 0.5328 0.20179 0.0
C445 C 0.61803 0.41252 0.06221 0.0
C446 C 0.68876 0.63537 0.11519 0.0
C447 C 0.80795 0.48156 0.05723 0.0
C448 C 0.86187 0.53637 0.16726 0.0
C449 C 0.86216 0.68455 0.05357 0.0
O450 O 0.67936 0.48918 0.17607 0.0
O451 O 0.65878 0.45583 0.03873 0.0
O452 O 0.74821 0.66325 0.12882 0.0
O453 O 0.75755 0.44088 0.07687 0.0
O454 O 0.88224 0.59125 0.14988 0.0
O455 O 0.80199 0.66354 0.04674 0.0
O456 O 0.80403 0.48672 0.16149 0.0
O457 O 0.81031 0.53292 0.04064 0.0
O458 O 0.88004 0.67585 0.08727 0.0
O459 O 0.62319 0.43185 0.09754 0.0
O460 O 0.76723 0.5858 0.19419 0.0
O461 O 0.66931 0.59409 0.08511 0.0
Sc462 Sc 0.62351 0.27615 0.78193 0.0
Sc463 Sc 0.54041 0.17696 0.85722 0.0
Sc464 Sc 0.55749 0.10845 0.77057 0.0
O465 O 0.57354 0.18656 0.80237 0.0
C466 C 0.54918 0.20499 0.70751 0.0
C467 C 0.57443 0.32529 0.84711 0.0
C468 C 0.42234 0.10247 0.79408 0.0
C469 C 0.69532 0.25626 0.85206 0.0
C470 C 0.69442 0.2015 0.74202 0.0
C471 C 0.54651 0.05325 0.85571 0.0
O472 O 0.55905 0.24861 0.73324 0.0
O473 O 0.57186 0.28195 0.87057 0.0
O474 O 0.45388 0.07454 0.78048 0.0
O475 O 0.68556 0.29693 0.83244 0.0
O476 O 0.65992 0.14661 0.7594 0.0
O477 O 0.50734 0.07425 0.86253 0.0
O478 O 0.68621 0.25113 0.7478 0.0
O479 O 0.64631 0.20489 0.86864 0.0
O480 O 0.57312 0.06198 0.82202 0.0
O481 O 0.56019 0.30585 0.8118 0.0
O482 O 0.55033 0.15202 0.71511 0.0
O483 O 0.44413 0.14371 0.82418 0.0
Sc484 Sc 0.81277 0.36518 0.7819 0.0
Sc485 Sc 0.91195 0.38125 0.85721 0.0
Sc486 Sc 0.98049 0.46685 0.77056 0.0
O487 O 0.90236 0.40477 0.80235 0.0
C488 C 0.88393 0.36202 0.70749 0.0
C489 C 0.76364 0.26693 0.84708 0.0
C490 C 0.98644 0.33766 0.79407 0.0
C491 C 0.83267 0.45686 0.85205 0.0
C492 C 0.88748 0.51076 0.74201 0.0
C493 C 1.03567 0.51106 0.85571 0.0
O494 O 0.8403 0.32826 0.73321 0.0
O495 O 0.80695 0.3077 0.87056 0.0
O496 O 1.01437 0.39712 0.78047 0.0
O497 O 0.792 0.40644 0.83242 0.0
O498 O 0.94237 0.53113 0.75939 0.0
O499 O 1.01466 0.45088 0.86253 0.0
O500 O 0.83783 0.45291 0.74779 0.0
O501 O 0.88403 0.45922 0.86863 0.0
O502 O 1.02696 0.52894 0.82201 0.0
O503 O 0.78297 0.2721 0.81175 0.0
O504 O 0.93692 0.41612 0.71509 0.0
O505 O 0.94519 0.31821 0.82417 0.0
Sc506 Sc 0.72376 0.46538 0.78191 0.0
Sc507 Sc 0.7077 0.5485 0.85722 0.0
Sc508 Sc 0.62208 0.5314 0.77057 0.0
O509 O 0.68416 0.51538 0.80236 0.0
C510 C 0.72692 0.53969 0.7075 0.0
C511 C 0.82201 0.51451 0.84707 0.0
C512 C 0.75126 0.66658 0.79407 0.0
C513 C 0.63208 0.39361 0.85207 0.0
C514 C 0.57816 0.39448 0.74203 0.0
C515 C 0.57788 0.5424 0.85571 0.0
O516 O 0.76067 0.52982 0.73322 0.0
O517 O 0.78125 0.51707 0.87056 0.0
O518 O 0.6918 0.63502 0.78047 0.0
O519 O 0.68249 0.40335 0.83243 0.0
O520 O 0.5578 0.42898 0.75942 0.0
O521 O 0.63805 0.58156 0.86254 0.0
O522 O 0.63601 0.40268 0.7478 0.0
O523 O 0.62973 0.44262 0.86865 0.0
O524 O 0.55999 0.51579 0.82202 0.0
O525 O 0.81684 0.52868 0.81174 0.0
O526 O 0.6728 0.53856 0.7151 0.0
O527 O 0.77073 0.6448 0.82417 0.0
Sc528 Sc 0.64713 0.86475 0.60393 0.0
Sc529 Sc 0.57863 0.88187 0.69056 0.0
Sc530 Sc 0.47945 0.79877 0.61525 0.0
O531 O 0.56903 0.84875 0.63571 0.0
C532 C 0.55058 0.87299 0.54083 0.0
C533 C 0.65316 0.99992 0.62741 0.0
C534 C 0.43028 0.84782 0.68045 0.0
C535 C 0.70234 0.87577 0.68907 0.0
C536 C 0.55415 0.72791 0.57533 0.0
C537 C 0.49938 0.72697 0.68535 0.0
O538 O 0.60357 0.87188 0.54845 0.0
O539 O 0.61189 0.97815 0.6575 0.0
O540 O 0.44969 0.86204 0.64513 0.0
O541 O 0.69361 0.84916 0.65539 0.0
O542 O 0.50451 0.73611 0.5811 0.0
O543 O 0.5507 0.77597 0.70198 0.0
O544 O 0.60892 0.7623 0.59283 0.0
O545 O 0.68134 0.91494 0.69589 0.0
O546 O 0.45868 0.7367 0.66574 0.0
O547 O 0.68105 0.96837 0.6138 0.0
O548 O 0.50701 0.86325 0.56656 0.0
O549 O 0.47364 0.85043 0.70391 0.0
Sc550 Sc 0.22422 0.80019 0.60394 0.0
Sc551 Sc 0.20704 0.71454 0.69057 0.0
Sc552 Sc 0.29016 0.69847 0.61525 0.0
O553 O 0.24018 0.73807 0.63572 0.0
C554 C 0.21596 0.69538 0.54084 0.0
C555 C 0.089 0.67104 0.62741 0.0
C556 C 0.24109 0.60024 0.68045 0.0
C557 C 0.21317 0.84436 0.68908 0.0
C558 C 0.36106 0.84405 0.57535 0.0
C559 C 0.36194 0.79018 0.68537 0.0
O560 O 0.21709 0.74949 0.54846 0.0
O561 O 0.11077 0.65154 0.6575 0.0
O562 O 0.22687 0.60543 0.64513 0.0
O563 O 0.23979 0.86225 0.6554 0.0
O564 O 0.35284 0.7862 0.58112 0.0
O565 O 0.31294 0.7925 0.702 0.0
O566 O 0.32667 0.86443 0.59287 0.0
O567 O 0.174 0.78419 0.69591 0.0
O568 O 0.35222 0.73976 0.66575 0.0
O569 O 0.12059 0.73049 0.61379 0.0
O570 O 0.22569 0.66155 0.56657 0.0
O571 O 0.23847 0.64098 0.70391 0.0
Sc572 Sc 0.28874 0.44181 0.60393 0.0
Sc573 Sc 0.37439 0.51032 0.69056 0.0
Sc574 Sc 0.39044 0.6095 0.61523 0.0
O575 O 0.35086 0.51992 0.6357 0.0
C576 C 0.39351 0.53837 0.54082 0.0
C577 C 0.4179 0.43578 0.6274 0.0
C578 C 0.48868 0.65864 0.68042 0.0
C579 C 0.24456 0.3866 0.68908 0.0
C580 C 0.24484 0.53475 0.57534 0.0
C581 C 0.29873 0.58955 0.68535 0.0
O582 O 0.33942 0.48537 0.54844 0.0
O583 O 0.43739 0.47705 0.6575 0.0
O584 O 0.48352 0.63934 0.64508 0.0
O585 O 0.22668 0.39532 0.65539 0.0
O586 O 0.30269 0.5844 0.58111 0.0
O587 O 0.29642 0.53824 0.70199 0.0
O588 O 0.22448 0.47999 0.59285 0.0
O589 O 0.30474 0.40762 0.6959 0.0
O590 O 0.34915 0.63026 0.66573 0.0
O591 O 0.35845 0.4079 0.61379 0.0
O592 O 0.42734 0.58195 0.56654 0.0
O593 O 0.44794 0.61531 0.7039 0.0
Sc594 Sc 0.4832 0.795 -0.03931 0.0
Sc595 Sc 0.56631 0.89418 -0.11462 0.0
Sc596 Sc 0.54917 0.96267 -0.02799 0.0
O597 O 0.53319 0.88458 -0.05977 0.0
C598 C 0.41232 0.86968 0.00061 0.0
C599 C 0.41141 0.81493 -0.10941 0.0
C600 C 0.56021 1.01789 -0.11313 0.0
C601 C 0.53226 0.74584 -0.10451 0.0
C602 C 0.55742 0.86613 0.03511 0.0
C603 C 0.68436 0.96871 -0.05147 0.0
O604 O 0.42053 0.82005 -0.00517 0.0
O605 O 0.46041 0.86625 -0.12604 0.0
O606 O 0.53359 1.00915 -0.07944 0.0
O607 O 0.54648 0.76525 -0.06919 0.0
O608 O 0.55631 0.91911 0.02749 0.0
O609 O 0.66259 0.92745 -0.08156 0.0
O610 O 0.54767 0.82255 0.00938 0.0
O611 O 0.53487 0.7892 -0.12797 0.0
O612 O 0.6528 0.9966 -0.03786 0.0
O613 O 0.42115 0.77423 -0.08981 0.0
O614 O 0.44672 0.92446 -0.0169 0.0
O615 O 0.59938 0.99689 -0.11995 0.0
Sc616 Sc 0.29393 0.70599 -0.03929 0.0
Sc617 Sc 0.19476 0.68993 -0.11461 0.0
Sc618 Sc 0.12623 0.6043 -0.02798 0.0
O619 O 0.20435 0.66642 -0.05976 0.0
C620 C 0.21918 0.56041 0.00062 0.0
C621 C 0.27399 0.61428 -0.1094 0.0
C622 C 0.07103 0.56012 -0.11313 0.0
C623 C 0.34308 0.80423 -0.10448 0.0
C624 C 0.22279 0.70907 0.03513 0.0
C625 C 0.12022 0.73345 -0.05147 0.0
O626 O 0.26884 0.61825 -0.00516 0.0
O627 O 0.22267 0.61196 -0.12603 0.0
O628 O 0.07976 0.54223 -0.07944 0.0
O629 O 0.32377 0.79907 -0.06914 0.0
O630 O 0.16979 0.65498 0.0275 0.0
O631 O 0.16149 0.75294 -0.08156 0.0
O632 O 0.26638 0.7429 0.0094 0.0
O633 O 0.29975 0.76348 -0.12796 0.0
O634 O 0.09233 0.67401 -0.03785 0.0
O635 O 0.31469 0.66471 -0.0898 0.0
O636 O 0.16441 0.54004 -0.01688 0.0
O637 O 0.09204 0.6203 -0.11995 0.0
Sc638 Sc 0.48462 0.53977 -0.02799 0.0
Sc639 Sc 0.39897 0.52262 -0.11462 0.0
Sc640 Sc 0.38292 0.60575 -0.03929 0.0
O641 O 0.42249 0.55574 -0.05976 0.0
C642 C 0.37984 0.53155 0.03512 0.0
C643 C 0.35547 0.40457 -0.05146 0.0
C644 C 0.28468 0.55663 -0.10447 0.0
C645 C 0.52879 0.52872 -0.11314 0.0
C646 C 0.52852 0.67662 0.0006 0.0
C647 C 0.47462 0.6775 -0.10942 0.0
O648 O 0.43393 0.53265 0.0275 0.0
O649 O 0.33597 0.42633 -0.08156 0.0
O650 O 0.28984 0.54249 -0.06914 0.0
O651 O 0.54668 0.55535 -0.07945 0.0
O652 O 0.47067 0.66842 -0.00517 0.0
O653 O 0.47694 0.62851 -0.12605 0.0
O654 O 0.54888 0.64222 -0.01692 0.0
O655 O 0.46862 0.48956 -0.11996 0.0
O656 O 0.4242 0.66779 -0.0898 0.0
O657 O 0.41492 0.43615 -0.03785 0.0
O658 O 0.34601 0.5413 0.0094 0.0
O659 O 0.32541 0.55405 -0.12796 0.0
Sc660 Sc 0.1262 0.53971 0.47206 0.0
Sc661 Sc 0.19472 0.52264 0.3854 0.0
Sc662 Sc 0.29391 0.60573 0.4607 0.0
O663 O 0.20431 0.55576 0.44025 0.0
C664 C 0.21924 0.67663 0.5006 0.0
C665 C 0.07102 0.52873 0.38691 0.0
C666 C 0.27402 0.67754 0.39057 0.0
C667 C 0.12024 0.40457 0.44855 0.0
C668 C 0.22274 0.5314 0.53511 0.0
C669 C 0.34306 0.55666 0.39551 0.0
O670 O 0.16436 0.64213 0.48322 0.0
O671 O 0.09201 0.48956 0.38009 0.0
O672 O 0.31469 0.66779 0.41019 0.0
O673 O 0.0923 0.43609 0.46214 0.0
O674 O 0.26636 0.54126 0.50938 0.0
O675 O 0.29972 0.55409 0.37205 0.0
O676 O 0.16977 0.53255 0.52752 0.0
O677 O 0.16148 0.42636 0.41844 0.0
O678 O 0.32363 0.54242 0.43082 0.0
O679 O 0.07973 0.55533 0.4206 0.0
O680 O 0.26888 0.66842 0.49483 0.0
O681 O 0.22265 0.62853 0.37398 0.0
Sc682 Sc 0.54917 0.6043 0.47205 0.0
Sc683 Sc 0.56629 0.68991 0.3854 0.0
Sc684 Sc 0.48318 0.70599 0.46069 0.0
O685 O 0.53314 0.66637 0.44025 0.0
C686 C 0.41224 0.56041 0.50058 0.0
C687 C 0.56017 0.56009 0.3869 0.0
C688 C 0.41138 0.61431 0.39055 0.0
C689 C 0.68435 0.73347 0.44855 0.0
C690 C 0.55748 0.70915 0.5351 0.0
C691 C 0.53227 0.80423 0.39552 0.0
O692 O 0.44674 0.54003 0.48319 0.0
O693 O 0.59934 0.62026 0.38008 0.0
O694 O 0.42112 0.66471 0.41018 0.0
O695 O 0.65279 0.67401 0.46214 0.0
O696 O 0.54763 0.74291 0.50938 0.0
O697 O 0.53485 0.76346 0.37205 0.0
O698 O 0.55632 0.65503 0.52751 0.0
O699 O 0.66257 0.75294 0.41845 0.0
O700 O 0.54651 0.79903 0.43083 0.0
O701 O 0.53356 0.54221 0.42059 0.0
O702 O 0.42046 0.61826 0.49481 0.0
O703 O 0.46039 0.61195 0.37397 0.0
Sc704 Sc 0.38294 0.79499 0.46072 0.0
Sc705 Sc 0.39901 0.89417 0.38541 0.0
Sc706 Sc 0.48462 0.9627 0.47206 0.0
O707 O 0.42254 0.88458 0.44026 0.0
C708 C 0.3798 0.86614 0.53513 0.0
C709 C 0.28469 0.74586 0.39555 0.0
C710 C 0.35544 0.96867 0.44855 0.0
C711 C 0.47462 0.81489 0.39056 0.0
C712 C 0.52854 0.86969 0.50059 0.0
C713 C 0.52883 1.01789 0.38691 0.0
O714 O 0.34603 0.82252 0.50941 0.0
O715 O 0.32545 0.78917 0.37207 0.0
O716 O 0.4149 0.99659 0.46215 0.0
O717 O 0.42421 0.77422 0.4102 0.0
O718 O 0.54891 0.92457 0.48321 0.0
O719 O 0.46865 0.99688 0.38008 0.0
O720 O 0.47069 0.82005 0.49483 0.0
O721 O 0.47697 0.86625 0.37398 0.0
O722 O 0.54671 1.00918 0.4206 0.0
O723 O 0.28986 0.76519 0.43088 0.0
O724 O 0.43391 0.91913 0.52752 0.0
O725 O 0.33597 0.92742 0.41845 0.0
Sc726 Sc 0.29018 0.60948 0.11526 0.0
Sc727 Sc 0.20708 0.51029 0.19055 0.0
Sc728 Sc 0.22416 0.44178 0.1039 0.0
O729 O 0.24021 0.51988 0.1357 0.0
C730 C 0.21585 0.53832 0.04085 0.0
C731 C 0.24109 0.65862 0.18044 0.0
C732 C 0.08901 0.43579 0.12741 0.0
C733 C 0.36198 0.58959 0.18539 0.0
C734 C 0.36109 0.53483 0.07536 0.0
C735 C 0.21318 0.38659 0.18904 0.0
O736 O 0.22572 0.58194 0.06657 0.0
O737 O 0.23852 0.61528 0.2039 0.0
O738 O 0.12054 0.40786 0.11381 0.0
O739 O 0.35223 0.63026 0.16577 0.0
O740 O 0.32659 0.47994 0.09274 0.0
O741 O 0.17401 0.40758 0.19587 0.0
O742 O 0.35288 0.58446 0.08113 0.0
O743 O 0.31298 0.53822 0.20198 0.0
O744 O 0.23979 0.39531 0.15535 0.0
O745 O 0.22686 0.63918 0.14513 0.0
O746 O 0.217 0.48534 0.04844 0.0
O747 O 0.11079 0.47704 0.15751 0.0
Sc748 Sc 0.47944 0.69851 0.11523 0.0
Sc749 Sc 0.57861 0.71459 0.19054 0.0
Sc750 Sc 0.64716 0.80018 0.10389 0.0
O751 O 0.56903 0.73811 0.13569 0.0
C752 C 0.5506 0.69536 0.04082 0.0
C753 C 0.43031 0.60027 0.18041 0.0
C754 C 0.65312 0.67101 0.12741 0.0
C755 C 0.49933 0.7902 0.18538 0.0
C756 C 0.55414 0.84409 0.07534 0.0
C757 C 0.70234 0.8444 0.18904 0.0
O758 O 0.50697 0.6616 0.06654 0.0
O759 O 0.47362 0.64103 0.20389 0.0
O760 O 0.68105 0.73047 0.11381 0.0
O761 O 0.45866 0.73978 0.16575 0.0
O762 O 0.60903 0.86446 0.09272 0.0
O763 O 0.68133 0.78423 0.19586 0.0
O764 O 0.50449 0.78625 0.08112 0.0
O765 O 0.5507 0.79256 0.20197 0.0
O766 O 0.69363 0.86228 0.15534 0.0
O767 O 0.44964 0.60544 0.14508 0.0
O768 O 0.60359 0.74946 0.04842 0.0
O769 O 0.61187 0.65155 0.15751 0.0
Sc770 Sc 0.39042 0.79871 0.11524 0.0
Sc771 Sc 0.37436 0.88183 0.19055 0.0
Sc772 Sc 0.28874 0.86473 0.1039 0.0
O773 O 0.35082 0.8487 0.1357 0.0
C774 C 0.39357 0.87302 0.04083 0.0
C775 C 0.48867 0.84785 0.1804 0.0
C776 C 0.41791 0.99991 0.12741 0.0
C777 C 0.29874 0.72694 0.1854 0.0
C778 C 0.24482 0.7278 0.07537 0.0
C779 C 0.24453 0.87572 0.18905 0.0
O780 O 0.42733 0.86315 0.06655 0.0
O781 O 0.44791 0.8504 0.20389 0.0
O782 O 0.35846 0.96835 0.1138 0.0
O783 O 0.34915 0.73668 0.16576 0.0
O784 O 0.22446 0.76231 0.09275 0.0
O785 O 0.3047 0.91488 0.19588 0.0
O786 O 0.30267 0.73601 0.08114 0.0
O787 O 0.29639 0.77594 0.20198 0.0
O788 O 0.22665 0.84912 0.15535 0.0
O789 O 0.4835 0.86201 0.14508 0.0
O790 O 0.33946 0.87189 0.04843 0.0
O791 O 0.43738 0.97813 0.15751 0.0
loop_
_geom_bond_atom_site_label_1
_geom_bond_atom_site_label_2
_geom_bond_distance
_geom_bond_site_symmetry_2
_ccdc_geom_bond_type
Sc0 O3 2.025 . S
Sc0 O10 2.105 . S
Sc0 O13 2.105 . S
Sc0 O16 2.105 . S
Sc0 O19 2.105 . S
Sc1 O3 2.025 . S
Sc1 O11 2.105 . S
Sc1 O15 2.105 . S
Sc1 O17 2.105 . S
Sc1 O21 2.105 . S
Sc2 O3 2.025 . S
Sc2 O12 2.105 . S
Sc2 O14 2.105 . S
Sc2 O18 2.105 . S
Sc2 O20 2.105 . S
O3 Sc0 2.025 . S
O3 Sc1 2.025 . S
O3 Sc2 2.025 . S
C4 O10 1.268 . S
C4 O20 1.268 . S
C5 O11 1.268 . S
C5 O19 1.268 . S
C6 O12 1.268 . S
C6 O21 1.268 . S
C7 O13 1.268 . S
C7 O17 1.268 . S
C8 O14 1.268 . S
C8 O16 1.268 . S
C9 O15 1.268 . S
C9 O18 1.268 . S
O10 Sc0 2.105 . S
O10 C4 1.268 . S
O11 Sc1 2.105 . S
O11 C5 1.268 . S
O12 Sc2 2.105 . S
O12 C6 1.268 . S
O13 Sc0 2.105 . S
O13 C7 1.268 . S
O14 Sc2 2.105 . S
O14 C8 1.268 . S
O15 Sc1 2.105 . S
O15 C9 1.268 . S
O16 Sc0 2.105 . S
O16 C8 1.268 . S
O17 Sc1 2.105 . S
O17 C7 1.268 . S
O18 Sc2 2.105 . S
O18 C9 1.268 . S
O19 Sc0 2.105 . S
O19 C5 1.268 . S
O20 Sc2 2.105 . S
O20 C4 1.268 . S
O21 Sc1 2.105 . S
O21 C6 1.268 . S
Sc22 O25 2.025 . S
Sc22 O32 2.105 1_545 S
Sc22 O35 2.105 . S
Sc22 O38 2.105 . S
Sc22 O41 2.105 1_545 S
Sc23 O25 2.025 . S
Sc23 O33 2.105 1_545 S
Sc23 O37 2.105 . S
Sc23 O39 2.105 . S
Sc23 O43 2.105 1_545 S
Sc24 O25 2.025 . S
Sc24 O34 2.105 1_545 S
Sc24 O36 2.105 . S
Sc24 O40 2.105 . S
Sc24 O42 2.105 1_545 S
O25 Sc22 2.025 . S
O25 Sc23 2.025 . S
O25 Sc24 2.025 . S
C26 O32 1.268 . S
C26 O42 1.268 . S
C27 O33 1.268 . S
C27 O41 1.268 . S
C28 O34 1.268 . S
C28 O43 1.268 . S
C29 O35 1.268 . S
C29 O39 1.268 . S
C30 O36 1.268 . S
C30 O38 1.268 . S
C31 O37 1.268 . S
C31 O40 1.268 . S
O32 Sc22 2.105 1_565 S
O32 C26 1.268 . S
O33 Sc23 2.105 1_565 S
O33 C27 1.268 . S
O34 Sc24 2.105 1_565 S
O34 C28 1.268 . S
O35 Sc22 2.105 . S
O35 C29 1.268 . S
O36 Sc24 2.105 . S
O36 C30 1.268 . S
O37 Sc23 2.105 . S
O37 C31 1.268 . S
O38 Sc22 2.105 . S
O38 C30 1.268 . S
O39 Sc23 2.105 . S
O39 C29 1.268 . S
O40 Sc24 2.105 . S
O40 C31 1.268 . S
O41 Sc22 2.105 1_565 S
O41 C27 1.268 . S
O42 Sc24 2.105 1_565 S
O42 C26 1.268 . S
O43 Sc23 2.105 1_565 S
O43 C28 1.268 . S
Sc44 O47 2.025 . S
Sc44 O54 2.105 1_655 S
Sc44 O57 2.105 . S
Sc44 O60 2.105 . S
Sc44 O63 2.105 1_655 S
Sc45 O47 2.025 . S
Sc45 O55 2.105 1_655 S
Sc45 O59 2.105 . S
Sc45 O61 2.105 . S
Sc45 O65 2.105 1_655 S
Sc46 O47 2.025 . S
Sc46 O56 2.105 1_655 S
Sc46 O58 2.105 . S
Sc46 O62 2.105 . S
Sc46 O64 2.105 1_655 S
O47 Sc44 2.025 . S
O47 Sc45 2.025 . S
O47 Sc46 2.025 . S
C48 O54 1.268 . S
C48 O64 1.268 . S
C49 O55 1.268 . S
C49 O63 1.268 . S
C50 O56 1.268 . S
C50 O65 1.268 . S
C51 O57 1.268 . S
C51 O61 1.268 . S
C52 O58 1.268 . S
C52 O60 1.268 . S
C53 O59 1.268 . S
C53 O62 1.268 . S
O54 Sc44 2.105 1_455 S
O54 C48 1.268 . S
O55 Sc45 2.105 1_455 S
O55 C49 1.268 . S
O56 Sc46 2.105 1_455 S
O56 C50 1.268 . S
O57 Sc44 2.105 . S
O57 C51 1.268 . S
O58 Sc46 2.105 . S
O58 C52 1.268 . S
O59 Sc45 2.105 . S
O59 C53 1.268 . S
O60 Sc44 2.105 . S
O60 C52 1.268 . S
O61 Sc45 2.105 . S
O61 C51 1.268 . S
O62 Sc46 2.105 . S
O62 C53 1.268 . S
O63 Sc44 2.105 1_455 S
O63 C49 1.268 . S
O64 Sc46 2.105 1_455 S
O64 C48 1.268 . S
O65 Sc45 2.105 1_455 S
O65 C50 1.268 . S
Sc66 O69 2.025 . S
Sc66 O76 2.105 . S
Sc66 O79 2.105 . S
Sc66 O82 2.105 . S
Sc66 O85 2.105 . S
Sc67 O69 2.025 . S
Sc67 O77 2.105 . S
Sc67 O81 2.105 . S
Sc67 O83 2.105 . S
Sc67 O87 2.105 . S
Sc68 O69 2.025 . S
Sc68 O78 2.105 . S
Sc68 O80 2.105 . S
Sc68 O84 2.105 . S
Sc68 O86 2.105 . S
O69 Sc66 2.025 . S
O69 Sc67 2.025 . S
O69 Sc68 2.025 . S
C70 O76 1.268 . S
C70 O86 1.268 . S
C71 O77 1.268 . S
C71 O85 1.268 . S
C72 O78 1.268 . S
C72 O87 1.268 . S
C73 O79 1.268 . S
C73 O83 1.268 . S
C74 O80 1.268 . S
C74 O82 1.268 . S
C75 O81 1.268 . S
C75 O84 1.268 . S
O76 Sc66 2.105 . S
O76 C70 1.268 . S
O77 Sc67 2.105 . S
O77 C71 1.268 . S
O78 Sc68 2.105 . S
O78 C72 1.268 . S
O79 Sc66 2.105 . S
O79 C73 1.268 . S
O80 Sc68 2.105 . S
O80 C74 1.268 . S
O81 Sc67 2.105 . S
O81 C75 1.268 . S
O82 Sc66 2.105 . S
O82 C74 1.268 . S
O83 Sc67 2.105 . S
O83 C73 1.268 . S
O84 Sc68 2.105 . S
O84 C75 1.268 . S
O85 Sc66 2.105 . S
O85 C71 1.268 . S
O86 Sc68 2.105 . S
O86 C70 1.268 . S
O87 Sc67 2.105 . S
O87 C72 1.268 . S
Sc88 O91 2.025 . S
Sc88 O98 2.105 . S
Sc88 O101 2.105 1_565 S
Sc88 O104 2.105 1_565 S
Sc88 O107 2.105 . S
Sc89 O91 2.025 . S
Sc89 O99 2.105 . S
Sc89 O103 2.105 1_565 S
Sc89 O105 2.105 1_565 S
Sc89 O109 2.105 . S
Sc90 O91 2.025 . S
Sc90 O100 2.105 . S
Sc90 O102 2.105 1_565 S
Sc90 O106 2.105 1_565 S
Sc90 O108 2.105 . S
O91 Sc88 2.025 . S
O91 Sc89 2.025 . S
O91 Sc90 2.025 . S
C92 O98 1.268 . S
C92 O108 1.268 . S
C93 O99 1.268 . S
C93 O107 1.268 . S
C94 O100 1.268 . S
C94 O109 1.268 . S
C95 O101 1.268 . S
C95 O105 1.268 . S
C96 O102 1.268 . S
C96 O104 1.268 . S
C97 O103 1.268 . S
C97 O106 1.268 . S
O98 Sc88 2.105 . S
O98 C92 1.268 . S
O99 Sc89 2.105 . S
O99 C93 1.268 . S
O100 Sc90 2.105 . S
O100 C94 1.268 . S
O101 Sc88 2.105 1_545 S
O101 C95 1.268 . S
O102 Sc90 2.105 1_545 S
O102 C96 1.268 . S
O103 Sc89 2.105 1_545 S
O103 C97 1.268 . S
O104 Sc88 2.105 1_545 S
O104 C96 1.268 . S
O105 Sc89 2.105 1_545 S
O105 C95 1.268 . S
O106 Sc90 2.105 1_545 S
O106 C97 1.268 . S
O107 Sc88 2.105 . S
O107 C93 1.268 . S
O108 Sc90 2.105 . S
O108 C92 1.268 . S
O109 Sc89 2.105 . S
O109 C94 1.268 . S
Sc110 O113 2.025 . S
Sc110 O120 2.105 1_455 S
Sc110 O123 2.105 . S
Sc110 O126 2.105 . S
Sc110 O129 2.105 1_455 S
Sc111 O113 2.025 . S
Sc111 O121 2.105 1_455 S
Sc111 O125 2.105 . S
Sc111 O127 2.105 . S
Sc111 O131 2.105 1_455 S
Sc112 O113 2.025 . S
Sc112 O122 2.105 1_455 S
Sc112 O124 2.105 . S
Sc112 O128 2.105 . S
Sc112 O130 2.105 1_455 S
O113 Sc110 2.025 . S
O113 Sc111 2.025 . S
O113 Sc112 2.025 . S
C114 O120 1.268 . S
C114 O130 1.268 . S
C115 O121 1.268 . S
C115 O129 1.268 . S
C116 O122 1.268 . S
C116 O131 1.268 . S
C117 O123 1.268 . S
C117 O127 1.268 . S
C118 O124 1.268 . S
C118 O126 1.268 . S
C119 O125 1.268 . S
C119 O128 1.268 . S
O120 Sc110 2.105 1_655 S
O120 C114 1.268 . S
O121 Sc111 2.105 1_655 S
O121 C115 1.268 . S
O122 Sc112 2.105 1_655 S
O122 C116 1.268 . S
O123 Sc110 2.105 . S
O123 C117 1.268 . S
O124 Sc112 2.105 . S
O124 C118 1.268 . S
O125 Sc111 2.105 . S
O125 C119 1.268 . S
O126 Sc110 2.105 . S
O126 C118 1.268 . S
O127 Sc111 2.105 . S
O127 C117 1.268 . S
O128 Sc112 2.105 . S
O128 C119 1.268 . S
O129 Sc110 2.105 1_655 S
O129 C115 1.268 . S
O130 Sc112 2.105 1_655 S
O130 C114 1.268 . S
O131 Sc111 2.105 1_655 S
O131 C116 1.268 . S
Sc132 O135 2.025 . S
Sc132 O142 2.105 . S
Sc132 O145 2.105 . S
Sc132 O148 2.105 . S
Sc132 O151 2.105 . S
Sc133 O135 2.025 . S
Sc133 O143 2.105 . S
Sc133 O147 2.105 . S
Sc133 O149 2.105 . S
Sc133 O153 2.105 . S
Sc134 O135 2.025 . S
Sc134 O144 2.105 . S
Sc134 O146 2.105 . S
Sc134 O150 2.105 . S
Sc134 O152 2.105 . S
O135 Sc132 2.025 . S
O135 Sc133 2.025 . S
O135 Sc134 2.025 . S
C136 O142 1.268 . S
C136 O152 1.268 . S
C137 O143 1.268 . S
C137 O151 1.268 . S
C138 O144 1.268 . S
C138 O153 1.268 . S
C139 O145 1.268 . S
C139 O149 1.268 . S
C140 O146 1.268 . S
C140 O148 1.268 . S
C141 O147 1.268 . S
C141 O150 1.268 . S
O142 Sc132 2.105 . S
O142 C136 1.268 . S
O143 Sc133 2.105 . S
O143 C137 1.268 . S
O144 Sc134 2.105 . S
O144 C138 1.268 . S
O145 Sc132 2.105 . S
O145 C139 1.268 . S
O146 Sc134 2.105 . S
O146 C140 1.268 . S
O147 Sc133 2.105 . S
O147 C141 1.268 . S
O148 Sc132 2.105 . S
O148 C140 1.268 . S
O149 Sc133 2.105 . S
O149 C139 1.268 . S
O150 Sc134 2.105 . S
O150 C141 1.268 . S
O151 Sc132 2.105 . S
O151 C137 1.268 . S
O152 Sc134 2.105 . S
O152 C136 1.268 . S
O153 Sc133 2.105 . S
O153 C138 1.268 . S
Sc154 O157 2.025 . S
Sc154 O164 2.105 . S
Sc154 O167 2.105 1_565 S
Sc154 O170 2.105 1_565 S
Sc154 O173 2.105 . S
Sc155 O157 2.025 . S
Sc155 O165 2.105 . S
Sc155 O169 2.105 1_565 S
Sc155 O171 2.105 1_565 S
Sc155 O175 2.105 . S
Sc156 O157 2.025 . S
Sc156 O166 2.105 . S
Sc156 O168 2.105 1_565 S
Sc156 O172 2.105 1_565 S
Sc156 O174 2.105 . S
O157 Sc154 2.025 . S
O157 Sc155 2.025 . S
O157 Sc156 2.025 . S
C158 O164 1.268 . S
C158 O174 1.268 . S
C159 O165 1.268 . S
C159 O173 1.268 . S
C160 O166 1.268 . S
C160 O175 1.268 . S
C161 O167 1.268 . S
C161 O171 1.268 . S
C162 O168 1.268 . S
C162 O170 1.268 . S
C163 O169 1.268 . S
C163 O172 1.268 . S
O164 Sc154 2.105 . S
O164 C158 1.268 . S
O165 Sc155 2.105 . S
O165 C159 1.268 . S
O166 Sc156 2.105 . S
O166 C160 1.268 . S
O167 Sc154 2.105 1_545 S
O167 C161 1.268 . S
O168 Sc156 2.105 1_545 S
O168 C162 1.268 . S
O169 Sc155 2.105 1_545 S
O169 C163 1.268 . S
O170 Sc154 2.105 1_545 S
O170 C162 1.268 . S
O171 Sc155 2.105 1_545 S
O171 C161 1.268 . S
O172 Sc156 2.105 1_545 S
O172 C163 1.268 . S
O173 Sc154 2.105 . S
O173 C159 1.268 . S
O174 Sc156 2.105 . S
O174 C158 1.268 . S
O175 Sc155 2.105 . S
O175 C160 1.268 . S
Sc176 O179 2.025 . S
Sc176 O186 2.105 1_455 S
Sc176 O189 2.105 . S
Sc176 O192 2.105 . S
Sc176 O195 2.105 1_455 S
Sc177 O179 2.025 . S
Sc177 O187 2.105 1_455 S
Sc177 O191 2.105 . S
Sc177 O193 2.105 . S
Sc177 O197 2.105 1_455 S
Sc178 O179 2.025 . S
Sc178 O188 2.105 1_455 S
Sc178 O190 2.105 . S
Sc178 O194 2.105 . S
Sc178 O196 2.105 1_455 S
O179 Sc176 2.025 . S
O179 Sc177 2.025 . S
O179 Sc178 2.025 . S
C180 O186 1.268 . S
C180 O196 1.268 . S
C181 O187 1.268 . S
C181 O195 1.268 . S
C182 O188 1.268 . S
C182 O197 1.268 . S
C183 O189 1.268 . S
C183 O193 1.268 . S
C184 O190 1.268 . S
C184 O192 1.268 . S
C185 O191 1.268 . S
C185 O194 1.268 . S
O186 Sc176 2.105 1_655 S
O186 C180 1.268 . S
O187 Sc177 2.105 1_655 S
O187 C181 1.268 . S
O188 Sc178 2.105 1_655 S
O188 C182 1.268 . S
O189 Sc176 2.105 . S
O189 C183 1.268 . S
O190 Sc178 2.105 . S
O190 C184 1.268 . S
O191 Sc177 2.105 . S
O191 C185 1.268 . S
O192 Sc176 2.105 . S
O192 C184 1.268 . S
O193 Sc177 2.105 . S
O193 C183 1.268 . S
O194 Sc178 2.105 . S
O194 C185 1.268 . S
O195 Sc176 2.105 1_655 S
O195 C181 1.268 . S
O196 Sc178 2.105 1_655 S
O196 C180 1.268 . S
O197 Sc177 2.105 1_655 S
O197 C182 1.268 . S
Sc198 O201 2.025 . S
Sc198 O208 2.105 . S
Sc198 O211 2.105 . S
Sc198 O214 2.105 . S
Sc198 O217 2.105 . S
Sc199 O201 2.025 . S
Sc199 O209 2.105 . S
Sc199 O213 2.105 . S
Sc199 O215 2.105 . S
Sc199 O219 2.105 . S
Sc200 O201 2.025 . S
Sc200 O210 2.105 . S
Sc200 O212 2.105 . S
Sc200 O216 2.105 . S
Sc200 O218 2.105 . S
O201 Sc198 2.025 . S
O201 Sc199 2.025 . S
O201 Sc200 2.025 . S
C202 O208 1.268 . S
C202 O218 1.268 . S
C203 O209 1.268 . S
C203 O217 1.268 . S
C204 O210 1.268 . S
C204 O219 1.268 . S
C205 O211 1.268 . S
C205 O215 1.268 . S
C206 O212 1.268 . S
C206 O214 1.268 . S
C207 O213 1.268 . S
C207 O216 1.268 . S
O208 Sc198 2.105 . S
O208 C202 1.268 . S
O209 Sc199 2.105 . S
O209 C203 1.268 . S
O210 Sc200 2.105 . S
O210 C204 1.268 . S
O211 Sc198 2.105 . S
O211 C205 1.268 . S
O212 Sc200 2.105 . S
O212 C206 1.268 . S
O213 Sc199 2.105 . S
O213 C207 1.268 . S
O214 Sc198 2.105 . S
O214 C206 1.268 . S
O215 Sc199 2.105 . S
O215 C205 1.268 . S
O216 Sc200 2.105 . S
O216 C207 1.268 . S
O217 Sc198 2.105 . S
O217 C203 1.268 . S
O218 Sc200 2.105 . S
O218 C202 1.268 . S
O219 Sc199 2.105 . S
O219 C204 1.268 . S
Sc220 O223 2.025 . S
Sc220 O230 2.105 1_545 S
Sc220 O233 2.105 . S
Sc220 O236 2.105 . S
Sc220 O239 2.105 1_545 S
Sc221 O223 2.025 . S
Sc221 O231 2.105 1_545 S
Sc221 O235 2.105 . S
Sc221 O237 2.105 . S
Sc221 O241 2.105 1_545 S
Sc222 O223 2.025 . S
Sc222 O232 2.105 1_545 S
Sc222 O234 2.105 . S
Sc222 O238 2.105 . S
Sc222 O240 2.105 1_545 S
O223 Sc220 2.025 . S
O223 Sc221 2.025 . S
O223 Sc222 2.025 . S
C224 O230 1.268 . S
C224 O240 1.268 . S
C225 O231 1.268 . S
C225 O239 1.268 . S
C226 O232 1.268 . S
C226 O241 1.268 . S
C227 O233 1.268 . S
C227 O237 1.268 . S
C228 O234 1.268 . S
C228 O236 1.268 . S
C229 O235 1.268 . S
C229 O238 1.268 . S
O230 Sc220 2.105 1_565 S
O230 C224 1.268 . S
O231 Sc221 2.105 1_565 S
O231 C225 1.268 . S
O232 Sc222 2.105 1_565 S
O232 C226 1.268 . S
O233 Sc220 2.105 . S
O233 C227 1.268 . S
O234 Sc222 2.105 . S
O234 C228 1.268 . S
O235 Sc221 2.105 . S
O235 C229 1.268 . S
O236 Sc220 2.105 . S
O236 C228 1.268 . S
O237 Sc221 2.105 . S
O237 C227 1.268 . S
O238 Sc222 2.105 . S
O238 C229 1.268 . S
O239 Sc220 2.105 1_565 S
O239 C225 1.268 . S
O240 Sc222 2.105 1_565 S
O240 C224 1.268 . S
O241 Sc221 2.105 1_565 S
O241 C226 1.268 . S
Sc242 O245 2.025 . S
Sc242 O252 2.105 1_655 S
Sc242 O255 2.105 . S
Sc242 O258 2.105 . S
Sc242 O261 2.105 1_655 S
Sc243 O245 2.025 . S
Sc243 O253 2.105 1_655 S
Sc243 O257 2.105 . S
Sc243 O259 2.105 . S
Sc243 O263 2.105 1_655 S
Sc244 O245 2.025 . S
Sc244 O254 2.105 1_655 S
Sc244 O256 2.105 . S
Sc244 O260 2.105 . S
Sc244 O262 2.105 1_655 S
O245 Sc242 2.025 . S
O245 Sc243 2.025 . S
O245 Sc244 2.025 . S
C246 O252 1.268 . S
C246 O262 1.268 . S
C247 O253 1.268 . S
C247 O261 1.268 . S
C248 O254 1.268 . S
C248 O263 1.268 . S
C249 O255 1.268 . S
C249 O259 1.268 . S
C250 O256 1.268 . S
C250 O258 1.268 . S
C251 O257 1.268 . S
C251 O260 1.268 . S
O252 Sc242 2.105 1_455 S
O252 C246 1.268 . S
O253 Sc243 2.105 1_455 S
O253 C247 1.268 . S
O254 Sc244 2.105 1_455 S
O254 C248 1.268 . S
O255 Sc242 2.105 . S
O255 C249 1.268 . S
O256 Sc244 2.105 . S
O256 C250 1.268 . S
O257 Sc243 2.105 . S
O257 C251 1.268 . S
O258 Sc242 2.105 . S
O258 C250 1.268 . S
O259 Sc243 2.105 . S
O259 C249 1.268 . S
O260 Sc244 2.105 . S
O260 C251 1.268 . S
O261 Sc242 2.105 1_455 S
O261 C247 1.268 . S
O262 Sc244 2.105 1_455 S
O262 C246 1.268 . S
O263 Sc243 2.105 1_455 S
O263 C248 1.268 . S
Sc264 O267 2.025 . S
Sc264 O274 2.105 . S
Sc264 O277 2.105 . S
Sc264 O280 2.105 . S
Sc264 O283 2.105 . S
Sc265 O267 2.025 . S
Sc265 O275 2.105 . S
Sc265 O279 2.105 . S
Sc265 O281 2.105 . S
Sc265 O285 2.105 . S
Sc266 O267 2.025 . S
Sc266 O276 2.105 . S
Sc266 O278 2.105 . S
Sc266 O282 2.105 . S
Sc266 O284 2.105 . S
O267 Sc264 2.025 . S
O267 Sc265 2.025 . S
O267 Sc266 2.025 . S
C268 O274 1.268 . S
C268 O284 1.268 . S
C269 O275 1.268 . S
C269 O283 1.268 . S
C270 O276 1.268 . S
C270 O285 1.268 . S
C271 O277 1.268 . S
C271 O281 1.268 . S
C272 O278 1.268 . S
C272 O280 1.268 . S
C273 O279 1.268 . S
C273 O282 1.268 . S
O274 Sc264 2.105 . S
O274 C268 1.268 . S
O275 Sc265 2.105 . S
O275 C269 1.268 . S
O276 Sc266 2.105 . S
O276 C270 1.268 . S
O277 Sc264 2.105 . S
O277 C271 1.268 . S
O278 Sc266 2.105 . S
O278 C272 1.268 . S
O279 Sc265 2.105 . S
O279 C273 1.268 . S
O280 Sc264 2.105 . S
O280 C272 1.268 . S
O281 Sc265 2.105 . S
O281 C271 1.268 . S
O282 Sc266 2.105 . S
O282 C273 1.268 . S
O283 Sc264 2.105 . S
O283 C269 1.268 . S
O284 Sc266 2.105 . S
O284 C268 1.268 . S
O285 Sc265 2.105 . S
O285 C270 1.268 . S
Sc286 O289 2.025 . S
Sc286 O296 2.105 . S
Sc286 O299 2.105 . S
Sc286 O302 2.105 . S
Sc286 O305 2.105 . S
Sc287 O289 2.025 . S
Sc287 O297 2.105 . S
Sc287 O301 2.105 . S
Sc287 O303 2.105 . S
Sc287 O307 2.105 . S
Sc288 O289 2.025 . S
Sc288 O298 2.105 . S
Sc288 O300 2.105 . S
Sc288 O304 2.105 . S
Sc288 O306 2.105 . S
O289 Sc286 2.025 . S
O289 Sc287 2.025 . S
O289 Sc288 2.025 . S
C290 O296 1.268 . S
C290 O306 1.268 . S
C291 O297 1.268 . S
C291 O305 1.268 . S
C292 O298 1.268 . S
C292 O307 1.268 . S
C293 O299 1.268 . S
C293 O303 1.268 . S
C294 O300 1.268 . S
C294 O302 1.268 . S
C295 O301 1.268 . S
C295 O304 1.268 . S
O296 Sc286 2.105 . S
O296 C290 1.268 . S
O297 Sc287 2.105 . S
O297 C291 1.268 . S
O298 Sc288 2.105 . S
O298 C292 1.268 . S
O299 Sc286 2.105 . S
O299 C293 1.268 . S
O300 Sc288 2.105 . S
O300 C294 1.268 . S
O301 Sc287 2.105 . S
O301 C295 1.268 . S
O302 Sc286 2.105 . S
O302 C294 1.268 . S
O303 Sc287 2.105 . S
O303 C293 1.268 . S
O304 Sc288 2.105 . S
O304 C295 1.268 . S
O305 Sc286 2.105 . S
O305 C291 1.268 . S
O306 Sc288 2.105 . S
O306 C290 1.268 . S
O307 Sc287 2.105 . S
O307 C292 1.268 . S
Sc308 O311 2.025 . S
Sc308 O318 2.105 . S
Sc308 O321 2.105 . S
Sc308 O324 2.105 . S
Sc308 O327 2.105 . S
Sc309 O311 2.025 . S
Sc309 O319 2.105 . S
Sc309 O323 2.105 . S
Sc309 O325 2.105 . S
Sc309 O329 2.105 . S
Sc310 O311 2.025 . S
Sc310 O320 2.105 . S
Sc310 O322 2.105 . S
Sc310 O326 2.105 . S
Sc310 O328 2.105 . S
O311 Sc308 2.025 . S
O311 Sc309 2.025 . S
O311 Sc310 2.025 . S
C312 O318 1.268 . S
C312 O328 1.268 . S
C313 O319 1.268 . S
C313 O327 1.268 . S
C314 O320 1.268 . S
C314 O329 1.268 . S
C315 O321 1.268 . S
C315 O325 1.268 . S
C316 O322 1.268 . S
C316 O324 1.268 . S
C317 O323 1.268 . S
C317 O326 1.268 . S
O318 Sc308 2.105 . S
O318 C312 1.268 . S
O319 Sc309 2.105 . S
O319 C313 1.268 . S
O320 Sc310 2.105 . S
O320 C314 1.268 . S
O321 Sc308 2.105 . S
O321 C315 1.268 . S
O322 Sc310 2.105 . S
O322 C316 1.268 . S
O323 Sc309 2.105 . S
O323 C317 1.268 . S
O324 Sc308 2.105 . S
O324 C316 1.268 . S
O325 Sc309 2.105 . S
O325 C315 1.268 . S
O326 Sc310 2.105 . S
O326 C317 1.268 . S
O327 Sc308 2.105 . S
O327 C313 1.268 . S
O328 Sc310 2.105 . S
O328 C312 1.268 . S
O329 Sc309 2.105 . S
O329 C314 1.268 . S
Sc330 O333 2.025 . S
Sc330 O340 2.105 . S
Sc330 O343 2.105 . S
Sc330 O346 2.105 . S
Sc330 O349 2.105 . S
Sc331 O333 2.025 . S
Sc331 O341 2.105 . S
Sc331 O345 2.105 . S
Sc331 O347 2.105 . S
Sc331 O351 2.105 . S
Sc332 O333 2.025 . S
Sc332 O342 2.105 . S
Sc332 O344 2.105 . S
Sc332 O348 2.105 . S
Sc332 O350 2.105 . S
O333 Sc330 2.025 . S
O333 Sc331 2.025 . S
O333 Sc332 2.025 . S
C334 O340 1.268 . S
C334 O350 1.268 . S
C335 O341 1.268 . S
C335 O349 1.268 . S
C336 O342 1.268 . S
C336 O351 1.268 . S
C337 O343 1.268 . S
C337 O347 1.268 . S
C338 O344 1.268 . S
C338 O346 1.268 . S
C339 O345 1.268 . S
C339 O348 1.268 . S
O340 Sc330 2.105 . S
O340 C334 1.268 . S
O341 Sc331 2.105 . S
O341 C335 1.268 . S
O342 Sc332 2.105 . S
O342 C336 1.268 . S
O343 Sc330 2.105 . S
O343 C337 1.268 . S
O344 Sc332 2.105 . S
O344 C338 1.268 . S
O345 Sc331 2.105 . S
O345 C339 1.268 . S
O346 Sc330 2.105 . S
O346 C338 1.268 . S
O347 Sc331 2.105 . S
O347 C337 1.268 . S
O348 Sc332 2.105 . S
O348 C339 1.268 . S
O349 Sc330 2.105 . S
O349 C335 1.268 . S
O350 Sc332 2.105 . S
O350 C334 1.268 . S
O351 Sc331 2.105 . S
O351 C336 1.268 . S
Sc352 O355 2.025 . S
Sc352 O362 2.105 . S
Sc352 O365 2.105 . S
Sc352 O368 2.105 . S
Sc352 O371 2.105 . S
Sc353 O355 2.025 . S
Sc353 O363 2.105 . S
Sc353 O367 2.105 . S
Sc353 O369 2.105 . S
Sc353 O373 2.105 . S
Sc354 O355 2.025 . S
Sc354 O364 2.105 . S
Sc354 O366 2.105 . S
Sc354 O370 2.105 . S
Sc354 O372 2.105 . S
O355 Sc352 2.025 . S
O355 Sc353 2.025 . S
O355 Sc354 2.025 . S
C356 O362 1.268 . S
C356 O372 1.268 . S
C357 O363 1.268 . S
C357 O371 1.268 . S
C358 O364 1.268 . S
C358 O373 1.268 . S
C359 O365 1.268 . S
C359 O369 1.268 . S
C360 O366 1.268 . S
C360 O368 1.268 . S
C361 O367 1.268 . S
C361 O370 1.268 . S
O362 Sc352 2.105 . S
O362 C356 1.268 . S
O363 Sc353 2.105 . S
O363 C357 1.268 . S
O364 Sc354 2.105 . S
O364 C358 1.268 . S
O365 Sc352 2.105 . S
O365 C359 1.268 . S
O366 Sc354 2.105 . S
O366 C360 1.268 . S
O367 Sc353 2.105 . S
O367 C361 1.268 . S
O368 Sc352 2.105 . S
O368 C360 1.268 . S
O369 Sc353 2.105 . S
O369 C359 1.268 . S
O370 Sc354 2.105 . S
O370 C361 1.268 . S
O371 Sc352 2.105 . S
O371 C357 1.268 . S
O372 Sc354 2.105 . S
O372 C356 1.268 . S
O373 Sc353 2.105 . S
O373 C358 1.268 . S
Sc374 O377 2.025 . S
Sc374 O384 2.105 . S
Sc374 O387 2.105 . S
Sc374 O390 2.105 . S
Sc374 O393 2.105 . S
Sc375 O377 2.025 . S
Sc375 O385 2.105 . S
Sc375 O389 2.105 . S
Sc375 O391 2.105 . S
Sc375 O395 2.105 . S
Sc376 O377 2.025 . S
Sc376 O386 2.105 . S
Sc376 O388 2.105 . S
Sc376 O392 2.105 . S
Sc376 O394 2.105 . S
O377 Sc374 2.025 . S
O377 Sc375 2.025 . S
O377 Sc376 2.025 . S
C378 O384 1.268 . S
C378 O394 1.268 . S
C379 O385 1.268 . S
C379 O393 1.268 . S
C380 O386 1.268 . S
C380 O395 1.268 . S
C381 O387 1.268 . S
C381 O391 1.268 . S
C382 O388 1.268 . S
C382 O390 1.268 . S
C383 O389 1.268 . S
C383 O392 1.268 . S
O384 Sc374 2.105 . S
O384 C378 1.268 . S
O385 Sc375 2.105 . S
O385 C379 1.268 . S
O386 Sc376 2.105 . S
O386 C380 1.268 . S
O387 Sc374 2.105 . S
O387 C381 1.268 . S
O388 Sc376 2.105 . S
O388 C382 1.268 . S
O389 Sc375 2.105 . S
O389 C383 1.268 . S
O390 Sc374 2.105 . S
O390 C382 1.268 . S
O391 Sc375 2.105 . S
O391 C381 1.268 . S
O392 Sc376 2.105 . S
O392 C383 1.268 . S
O393 Sc374 2.105 . S
O393 C379 1.268 . S
O394 Sc376 2.105 . S
O394 C378 1.268 . S
O395 Sc375 2.105 . S
O395 C380 1.268 . S
Sc396 O399 2.025 . S
Sc396 O406 2.105 . S
Sc396 O409 2.105 . S
Sc396 O412 2.105 . S
Sc396 O415 2.105 . S
Sc397 O399 2.025 . S
Sc397 O407 2.105 . S
Sc397 O411 2.105 . S
Sc397 O413 2.105 . S
Sc397 O417 2.105 . S
Sc398 O399 2.025 . S
Sc398 O408 2.105 . S
Sc398 O410 2.105 . S
Sc398 O414 2.105 . S
Sc398 O416 2.105 . S
O399 Sc396 2.025 . S
O399 Sc397 2.025 . S
O399 Sc398 2.025 . S
C400 O406 1.268 . S
C400 O416 1.268 . S
C401 O407 1.268 . S
C401 O415 1.268 . S
C402 O408 1.268 . S
C402 O417 1.268 . S
C403 O409 1.268 . S
C403 O413 1.268 . S
C404 O410 1.268 . S
C404 O412 1.268 . S
C405 O411 1.268 . S
C405 O414 1.268 . S
O406 Sc396 2.105 . S
O406 C400 1.268 . S
O407 Sc397 2.105 . S
O407 C401 1.268 . S
O408 Sc398 2.105 . S
O408 C402 1.268 . S
O409 Sc396 2.105 . S
O409 C403 1.268 . S
O410 Sc398 2.105 . S
O410 C404 1.268 . S
O411 Sc397 2.105 . S
O411 C405 1.268 . S
O412 Sc396 2.105 . S
O412 C404 1.268 . S
O413 Sc397 2.105 . S
O413 C403 1.268 . S
O414 Sc398 2.105 . S
O414 C405 1.268 . S
O415 Sc396 2.105 . S
O415 C401 1.268 . S
O416 Sc398 2.105 . S
O416 C400 1.268 . S
O417 Sc397 2.105 . S
O417 C402 1.268 . S
Sc418 O421 2.025 . S
Sc418 O428 2.105 . S
Sc418 O431 2.105 . S
Sc418 O434 2.105 . S
Sc418 O437 2.105 . S
Sc419 O421 2.025 . S
Sc419 O429 2.105 . S
Sc419 O433 2.105 . S
Sc419 O435 2.105 . S
Sc419 O439 2.105 . S
Sc420 O421 2.025 . S
Sc420 O430 2.105 . S
Sc420 O432 2.105 . S
Sc420 O436 2.105 . S
Sc420 O438 2.105 . S
O421 Sc418 2.025 . S
O421 Sc419 2.025 . S
O421 Sc420 2.025 . S
C422 O428 1.268 . S
C422 O438 1.268 . S
C423 O429 1.268 . S
C423 O437 1.268 . S
C424 O430 1.268 . S
C424 O439 1.268 . S
C425 O431 1.268 . S
C425 O435 1.268 . S
C426 O432 1.268 . S
C426 O434 1.268 . S
C427 O433 1.268 . S
C427 O436 1.268 . S
O428 Sc418 2.105 . S
O428 C422 1.268 . S
O429 Sc419 2.105 . S
O429 C423 1.268 . S
O430 Sc420 2.105 . S
O430 C424 1.268 . S
O431 Sc418 2.105 . S
O431 C425 1.268 . S
O432 Sc420 2.105 . S
O432 C426 1.268 . S
O433 Sc419 2.105 . S
O433 C427 1.268 . S
O434 Sc418 2.105 . S
O434 C426 1.268 . S
O435 Sc419 2.105 . S
O435 C425 1.268 . S
O436 Sc420 2.105 . S
O436 C427 1.268 . S
O437 Sc418 2.105 . S
O437 C423 1.268 . S
O438 Sc420 2.105 . S
O438 C422 1.268 . S
O439 Sc419 2.105 . S
O439 C424 1.268 . S
Sc440 O443 2.025 . S
Sc440 O450 2.105 . S
Sc440 O453 2.105 . S
Sc440 O456 2.105 . S
Sc440 O459 2.105 . S
Sc441 O443 2.025 . S
Sc441 O451 2.105 . S
Sc441 O455 2.105 . S
Sc441 O457 2.105 . S
Sc441 O461 2.105 . S
Sc442 O443 2.025 . S
Sc442 O452 2.105 . S
Sc442 O454 2.105 . S
Sc442 O458 2.105 . S
Sc442 O460 2.105 . S
O443 Sc440 2.025 . S
O443 Sc441 2.025 . S
O443 Sc442 2.025 . S
C444 O450 1.268 . S
C444 O460 1.268 . S
C445 O451 1.268 . S
C445 O459 1.268 . S
C446 O452 1.268 . S
C446 O461 1.268 . S
C447 O453 1.268 . S
C447 O457 1.268 . S
C448 O454 1.268 . S
C448 O456 1.268 . S
C449 O455 1.268 . S
C449 O458 1.268 . S
O450 Sc440 2.105 . S
O450 C444 1.268 . S
O451 Sc441 2.105 . S
O451 C445 1.268 . S
O452 Sc442 2.105 . S
O452 C446 1.268 . S
O453 Sc440 2.105 . S
O453 C447 1.268 . S
O454 Sc442 2.105 . S
O454 C448 1.268 . S
O455 Sc441 2.105 . S
O455 C449 1.268 . S
O456 Sc440 2.105 . S
O456 C448 1.268 . S
O457 Sc441 2.105 . S
O457 C447 1.268 . S
O458 Sc442 2.105 . S
O458 C449 1.268 . S
O459 Sc440 2.105 . S
O459 C445 1.268 . S
O460 Sc442 2.105 . S
O460 C444 1.268 . S
O461 Sc441 2.105 . S
O461 C446 1.268 . S
Sc462 O465 2.025 . S
Sc462 O472 2.105 . S
Sc462 O475 2.105 . S
Sc462 O478 2.105 . S
Sc462 O481 2.105 . S
Sc463 O465 2.025 1_554 S
Sc463 O473 2.105 . S
Sc463 O477 2.105 . S
Sc463 O479 2.105 . S
Sc463 O483 2.105 . S
Sc464 O465 2.025 . S
Sc464 O474 2.105 . S
Sc464 O476 2.105 . S
Sc464 O480 2.105 . S
Sc464 O482 2.105 . S
O465 Sc462 2.025 . S
O465 Sc463 2.025 1_556 S
O465 Sc464 2.025 . S
C466 O472 1.268 . S
C466 O482 1.268 . S
C467 O473 1.268 1_556 S
C467 O481 1.268 . S
C468 O474 1.268 . S
C468 O483 1.268 1_556 S
C469 O475 1.268 1_554 S
C469 O479 1.268 . S
C470 O476 1.268 . S
C470 O478 1.268 . S
C471 O477 1.268 1_556 S
C471 O480 1.268 . S
O472 Sc462 2.105 . S
O472 C466 1.268 . S
O473 Sc463 2.105 . S
O473 C467 1.268 1_554 S
O474 Sc464 2.105 . S
O474 C468 1.268 . S
O475 Sc462 2.105 . S
O475 C469 1.268 1_556 S
O476 Sc464 2.105 . S
O476 C470 1.268 . S
O477 Sc463 2.105 . S
O477 C471 1.268 1_554 S
O478 Sc462 2.105 . S
O478 C470 1.268 . S
O479 Sc463 2.105 . S
O479 C469 1.268 . S
O480 Sc464 2.105 . S
O480 C471 1.268 . S
O481 Sc462 2.105 . S
O481 C467 1.268 . S
O482 Sc464 2.105 . S
O482 C466 1.268 . S
O483 Sc463 2.105 . S
O483 C468 1.268 1_554 S
Sc484 O487 2.025 . S
Sc484 O494 2.105 . S
Sc484 O497 2.105 . S
Sc484 O500 2.105 . S
Sc484 O503 2.105 . S
Sc485 O487 2.025 1_554 S
Sc485 O495 2.105 . S
Sc485 O499 2.105 . S
Sc485 O501 2.105 . S
Sc485 O505 2.105 . S
Sc486 O487 2.025 . S
Sc486 O496 2.105 . S
Sc486 O498 2.105 . S
Sc486 O502 2.105 . S
Sc486 O504 2.105 . S
O487 Sc484 2.025 . S
O487 Sc485 2.025 1_556 S
O487 Sc486 2.025 . S
C488 O494 1.268 . S
C488 O504 1.268 . S
C489 O495 1.268 1_556 S
C489 O503 1.268 . S
C490 O496 1.268 . S
C490 O505 1.268 1_556 S
C491 O497 1.268 1_554 S
C491 O501 1.268 . S
C492 O498 1.268 . S
C492 O500 1.268 . S
C493 O499 1.268 1_556 S
C493 O502 1.268 . S
O494 Sc484 2.105 . S
O494 C488 1.268 . S
O495 Sc485 2.105 . S
O495 C489 1.268 1_554 S
O496 Sc486 2.105 . S
O496 C490 1.268 . S
O497 Sc484 2.105 . S
O497 C491 1.268 1_556 S
O498 Sc486 2.105 . S
O498 C492 1.268 . S
O499 Sc485 2.105 . S
O499 C493 1.268 1_554 S
O500 Sc484 2.105 . S
O500 C492 1.268 . S
O501 Sc485 2.105 . S
O501 C491 1.268 . S
O502 Sc486 2.105 . S
O502 C493 1.268 . S
O503 Sc484 2.105 . S
O503 C489 1.268 . S
O504 Sc486 2.105 . S
O504 C488 1.268 . S
O505 Sc485 2.105 . S
O505 C490 1.268 1_554 S
Sc506 O509 2.025 . S
Sc506 O516 2.105 . S
Sc506 O519 2.105 . S
Sc506 O522 2.105 . S
Sc506 O525 2.105 . S
Sc507 O509 2.025 1_554 S
Sc507 O517 2.105 . S
Sc507 O521 2.105 . S
Sc507 O523 2.105 . S
Sc507 O527 2.105 . S
Sc508 O509 2.025 . S
Sc508 O518 2.105 . S
Sc508 O520 2.105 . S
Sc508 O524 2.105 . S
Sc508 O526 2.105 . S
O509 Sc506 2.025 . S
O509 Sc507 2.025 1_556 S
O509 Sc508 2.025 . S
C510 O516 1.268 . S
C510 O526 1.268 . S
C511 O517 1.268 1_556 S
C511 O525 1.268 . S
C512 O518 1.268 . S
C512 O527 1.268 1_556 S
C513 O519 1.268 1_554 S
C513 O523 1.268 . S
C514 O520 1.268 . S
C514 O522 1.268 . S
C515 O521 1.268 1_556 S
C515 O524 1.268 . S
O516 Sc506 2.105 . S
O516 C510 1.268 . S
O517 Sc507 2.105 . S
O517 C511 1.268 1_554 S
O518 Sc508 2.105 . S
O518 C512 1.268 . S
O519 Sc506 2.105 . S
O519 C513 1.268 1_556 S
O520 Sc508 2.105 . S
O520 C514 1.268 . S
O521 Sc507 2.105 . S
O521 C515 1.268 1_554 S
O522 Sc506 2.105 . S
O522 C514 1.268 . S
O523 Sc507 2.105 . S
O523 C513 1.268 . S
O524 Sc508 2.105 . S
O524 C515 1.268 . S
O525 Sc506 2.105 . S
O525 C511 1.268 . S
O526 Sc508 2.105 . S
O526 C510 1.268 . S
O527 Sc507 2.105 . S
O527 C512 1.268 1_554 S
Sc528 O531 2.025 . S
Sc528 O538 2.105 . S
Sc528 O541 2.105 . S
Sc528 O544 2.105 . S
Sc528 O547 2.105 . S
Sc529 O531 2.025 . S
Sc529 O539 2.105 . S
Sc529 O543 2.105 . S
Sc529 O545 2.105 . S
Sc529 O549 2.105 . S
Sc530 O531 2.025 . S
Sc530 O540 2.105 . S
Sc530 O542 2.105 . S
Sc530 O546 2.105 . S
Sc530 O548 2.105 . S
O531 Sc528 2.025 . S
O531 Sc529 2.025 . S
O531 Sc530 2.025 . S
C532 O538 1.268 . S
C532 O548 1.268 . S
C533 O539 1.268 . S
C533 O547 1.268 . S
C534 O540 1.268 . S
C534 O549 1.268 . S
C535 O541 1.268 . S
C535 O545 1.268 . S
C536 O542 1.268 . S
C536 O544 1.268 . S
C537 O543 1.268 . S
C537 O546 1.268 . S
O538 Sc528 2.105 . S
O538 C532 1.268 . S
O539 Sc529 2.105 . S
O539 C533 1.268 . S
O540 Sc530 2.105 . S
O540 C534 1.268 . S
O541 Sc528 2.105 . S
O541 C535 1.268 . S
O542 Sc530 2.105 . S
O542 C536 1.268 . S
O543 Sc529 2.105 . S
O543 C537 1.268 . S
O544 Sc528 2.105 . S
O544 C536 1.268 . S
O545 Sc529 2.105 . S
O545 C535 1.268 . S
O546 Sc530 2.105 . S
O546 C537 1.268 . S
O547 Sc528 2.105 . S
O547 C533 1.268 . S
O548 Sc530 2.105 . S
O548 C532 1.268 . S
O549 Sc529 2.105 . S
O549 C534 1.268 . S
Sc550 O553 2.025 . S
Sc550 O560 2.105 . S
Sc550 O563 2.105 . S
Sc550 O566 2.105 . S
Sc550 O569 2.105 . S
Sc551 O553 2.025 . S
Sc551 O561 2.105 . S
Sc551 O565 2.105 . S
Sc551 O567 2.105 . S
Sc551 O571 2.105 . S
Sc552 O553 2.025 . S
Sc552 O562 2.105 . S
Sc552 O564 2.105 . S
Sc552 O568 2.105 . S
Sc552 O570 2.105 . S
O553 Sc550 2.025 . S
O553 Sc551 2.025 . S
O553 Sc552 2.025 . S
C554 O560 1.268 . S
C554 O570 1.268 . S
C555 O561 1.268 . S
C555 O569 1.268 . S
C556 O562 1.268 . S
C556 O571 1.268 . S
C557 O563 1.268 . S
C557 O567 1.268 . S
C558 O564 1.268 . S
C558 O566 1.268 . S
C559 O565 1.268 . S
C559 O568 1.268 . S
O560 Sc550 2.105 . S
O560 C554 1.268 . S
O561 Sc551 2.105 . S
O561 C555 1.268 . S
O562 Sc552 2.105 . S
O562 C556 1.268 . S
O563 Sc550 2.105 . S
O563 C557 1.268 . S
O564 Sc552 2.105 . S
O564 C558 1.268 . S
O565 Sc551 2.105 . S
O565 C559 1.268 . S
O566 Sc550 2.105 . S
O566 C558 1.268 . S
O567 Sc551 2.105 . S
O567 C557 1.268 . S
O568 Sc552 2.105 . S
O568 C559 1.268 . S
O569 Sc550 2.105 . S
O569 C555 1.268 . S
O570 Sc552 2.105 . S
O570 C554 1.268 . S
O571 Sc551 2.105 . S
O571 C556 1.268 . S
Sc572 O575 2.025 . S
Sc572 O582 2.105 . S
Sc572 O585 2.105 . S
Sc572 O588 2.105 . S
Sc572 O591 2.105 . S
Sc573 O575 2.025 . S
Sc573 O583 2.105 . S
Sc573 O587 2.105 . S
Sc573 O589 2.105 . S
Sc573 O593 2.105 . S
Sc574 O575 2.025 . S
Sc574 O584 2.105 . S
Sc574 O586 2.105 . S
Sc574 O590 2.105 . S
Sc574 O592 2.105 . S
O575 Sc572 2.025 . S
O575 Sc573 2.025 . S
O575 Sc574 2.025 . S
C576 O582 1.268 . S
C576 O592 1.268 . S
C577 O583 1.268 . S
C577 O591 1.268 . S
C578 O584 1.268 . S
C578 O593 1.268 . S
C579 O585 1.268 . S
C579 O589 1.268 . S
C580 O586 1.268 . S
C580 O588 1.268 . S
C581 O587 1.268 . S
C581 O590 1.268 . S
O582 Sc572 2.105 . S
O582 C576 1.268 . S
O583 Sc573 2.105 . S
O583 C577 1.268 . S
O584 Sc574 2.105 . S
O584 C578 1.268 . S
O585 Sc572 2.105 . S
O585 C579 1.268 . S
O586 Sc574 2.105 . S
O586 C580 1.268 . S
O587 Sc573 2.105 . S
O587 C581 1.268 . S
O588 Sc572 2.105 . S
O588 C580 1.268 . S
O589 Sc573 2.105 . S
O589 C579 1.268 . S
O590 Sc574 2.105 . S
O590 C581 1.268 . S
O591 Sc572 2.105 . S
O591 C577 1.268 . S
O592 Sc574 2.105 . S
O592 C576 1.268 . S
O593 Sc573 2.105 . S
O593 C578 1.268 . S
Sc594 O597 2.025 . S
Sc594 O604 2.105 . S
Sc594 O607 2.105 . S
Sc594 O610 2.105 . S
Sc594 O613 2.105 . S
Sc595 O597 2.025 1_556 S
Sc595 O605 2.105 . S
Sc595 O609 2.105 . S
Sc595 O611 2.105 . S
Sc595 O615 2.105 . S
Sc596 O597 2.025 . S
Sc596 O606 2.105 . S
Sc596 O608 2.105 . S
Sc596 O612 2.105 . S
Sc596 O614 2.105 . S
O597 Sc594 2.025 . S
O597 Sc595 2.025 1_554 S
O597 Sc596 2.025 . S
C598 O604 1.268 . S
C598 O614 1.268 . S
C599 O605 1.268 . S
C599 O613 1.268 1_556 S
C600 O606 1.268 . S
C600 O615 1.268 1_554 S
C601 O607 1.268 . S
C601 O611 1.268 1_554 S
C602 O608 1.268 . S
C602 O610 1.268 . S
C603 O609 1.268 1_554 S
C603 O612 1.268 . S
O604 Sc594 2.105 . S
O604 C598 1.268 . S
O605 Sc595 2.105 . S
O605 C599 1.268 . S
O606 Sc596 2.105 . S
O606 C600 1.268 . S
O607 Sc594 2.105 . S
O607 C601 1.268 . S
O608 Sc596 2.105 . S
O608 C602 1.268 . S
O609 Sc595 2.105 . S
O609 C603 1.268 1_556 S
O610 Sc594 2.105 . S
O610 C602 1.268 . S
O611 Sc595 2.105 . S
O611 C601 1.268 1_556 S
O612 Sc596 2.105 . S
O612 C603 1.268 . S
O613 Sc594 2.105 . S
O613 C599 1.268 1_554 S
O614 Sc596 2.105 . S
O614 C598 1.268 . S
O615 Sc595 2.105 . S
O615 C600 1.268 1_556 S
Sc616 O619 2.025 . S
Sc616 O626 2.105 . S
Sc616 O629 2.105 . S
Sc616 O632 2.105 . S
Sc616 O635 2.105 . S
Sc617 O619 2.025 1_556 S
Sc617 O627 2.105 . S
Sc617 O631 2.105 . S
Sc617 O633 2.105 . S
Sc617 O637 2.105 . S
Sc618 O619 2.025 . S
Sc618 O628 2.105 . S
Sc618 O630 2.105 . S
Sc618 O634 2.105 . S
Sc618 O636 2.105 . S
O619 Sc616 2.025 . S
O619 Sc617 2.025 1_554 S
O619 Sc618 2.025 . S
C620 O626 1.268 . S
C620 O636 1.268 . S
C621 O627 1.268 . S
C621 O635 1.268 1_556 S
C622 O628 1.268 . S
C622 O637 1.268 1_554 S
C623 O629 1.268 . S
C623 O633 1.268 1_554 S
C624 O630 1.268 . S
C624 O632 1.268 . S
C625 O631 1.268 1_554 S
C625 O634 1.268 . S
O626 Sc616 2.105 . S
O626 C620 1.268 . S
O627 Sc617 2.105 . S
O627 C621 1.268 . S
O628 Sc618 2.105 . S
O628 C622 1.268 . S
O629 Sc616 2.105 . S
O629 C623 1.268 . S
O630 Sc618 2.105 . S
O630 C624 1.268 . S
O631 Sc617 2.105 . S
O631 C625 1.268 1_556 S
O632 Sc616 2.105 . S
O632 C624 1.268 . S
O633 Sc617 2.105 . S
O633 C623 1.268 1_556 S
O634 Sc618 2.105 . S
O634 C625 1.268 . S
O635 Sc616 2.105 . S
O635 C621 1.268 1_554 S
O636 Sc618 2.105 . S
O636 C620 1.268 . S
O637 Sc617 2.105 . S
O637 C622 1.268 1_556 S
Sc638 O641 2.025 . S
Sc638 O648 2.105 . S
Sc638 O651 2.105 . S
Sc638 O654 2.105 . S
Sc638 O657 2.105 . S
Sc639 O641 2.025 1_556 S
Sc639 O649 2.105 . S
Sc639 O653 2.105 . S
Sc639 O655 2.105 . S
Sc639 O659 2.105 . S
Sc640 O641 2.025 . S
Sc640 O650 2.105 . S
Sc640 O652 2.105 . S
Sc640 O656 2.105 . S
Sc640 O658 2.105 . S
O641 Sc638 2.025 . S
O641 Sc639 2.025 1_554 S
O641 Sc640 2.025 . S
C642 O648 1.268 . S
C642 O658 1.268 . S
C643 O649 1.268 1_554 S
C643 O657 1.268 . S
C644 O650 1.268 . S
C644 O659 1.268 1_554 S
C645 O651 1.268 . S
C645 O655 1.268 1_554 S
C646 O652 1.268 . S
C646 O654 1.268 . S
C647 O653 1.268 . S
C647 O656 1.268 1_556 S
O648 Sc638 2.105 . S
O648 C642 1.268 . S
O649 Sc639 2.105 . S
O649 C643 1.268 1_556 S
O650 Sc640 2.105 . S
O650 C644 1.268 . S
O651 Sc638 2.105 . S
O651 C645 1.268 . S
O652 Sc640 2.105 . S
O652 C646 1.268 . S
O653 Sc639 2.105 . S
O653 C647 1.268 . S
O654 Sc638 2.105 . S
O654 C646 1.268 . S
O655 Sc639 2.105 . S
O655 C645 1.268 1_556 S
O656 Sc640 2.105 . S
O656 C647 1.268 1_554 S
O657 Sc638 2.105 . S
O657 C643 1.268 . S
O658 Sc640 2.105 . S
O658 C642 1.268 . S
O659 Sc639 2.105 . S
O659 C644 1.268 1_556 S
Sc660 O663 2.025 . S
Sc660 O670 2.105 . S
Sc660 O673 2.105 . S
Sc660 O676 2.105 . S
Sc660 O679 2.105 . S
Sc661 O663 2.025 . S
Sc661 O671 2.105 . S
Sc661 O675 2.105 . S
Sc661 O677 2.105 . S
Sc661 O681 2.105 . S
Sc662 O663 2.025 . S
Sc662 O672 2.105 . S
Sc662 O674 2.105 . S
Sc662 O678 2.105 . S
Sc662 O680 2.105 . S
O663 Sc660 2.025 . S
O663 Sc661 2.025 . S
O663 Sc662 2.025 . S
C664 O670 1.268 . S
C664 O680 1.268 . S
C665 O671 1.268 . S
C665 O679 1.268 . S
C666 O672 1.268 . S
C666 O681 1.268 . S
C667 O673 1.268 . S
C667 O677 1.268 . S
C668 O674 1.268 . S
C668 O676 1.268 . S
C669 O675 1.268 . S
C669 O678 1.268 . S
O670 Sc660 2.105 . S
O670 C664 1.268 . S
O671 Sc661 2.105 . S
O671 C665 1.268 . S
O672 Sc662 2.105 . S
O672 C666 1.268 . S
O673 Sc660 2.105 . S
O673 C667 1.268 . S
O674 Sc662 2.105 . S
O674 C668 1.268 . S
O675 Sc661 2.105 . S
O675 C669 1.268 . S
O676 Sc660 2.105 . S
O676 C668 1.268 . S
O677 Sc661 2.105 . S
O677 C667 1.268 . S
O678 Sc662 2.105 . S
O678 C669 1.268 . S
O679 Sc660 2.105 . S
O679 C665 1.268 . S
O680 Sc662 2.105 . S
O680 C664 1.268 . S
O681 Sc661 2.105 . S
O681 C666 1.268 . S
Sc682 O685 2.025 . S
Sc682 O692 2.105 . S
Sc682 O695 2.105 . S
Sc682 O698 2.105 . S
Sc682 O701 2.105 . S
Sc683 O685 2.025 . S
Sc683 O693 2.105 . S
Sc683 O697 2.105 . S
Sc683 O699 2.105 . S
Sc683 O703 2.105 . S
Sc684 O685 2.025 . S
Sc684 O694 2.105 . S
Sc684 O696 2.105 . S
Sc684 O700 2.105 . S
Sc684 O702 2.105 . S
O685 Sc682 2.025 . S
O685 Sc683 2.025 . S
O685 Sc684 2.025 . S
C686 O692 1.268 . S
C686 O702 1.268 . S
C687 O693 1.268 . S
C687 O701 1.268 . S
C688 O694 1.268 . S
C688 O703 1.268 . S
C689 O695 1.268 . S
C689 O699 1.268 . S
C690 O696 1.268 . S
C690 O698 1.268 . S
C691 O697 1.268 . S
C691 O700 1.268 . S
O692 Sc682 2.105 . S
O692 C686 1.268 . S
O693 Sc683 2.105 . S
O693 C687 1.268 . S
O694 Sc684 2.105 . S
O694 C688 1.268 . S
O695 Sc682 2.105 . S
O695 C689 1.268 . S
O696 Sc684 2.105 . S
O696 C690 1.268 . S
O697 Sc683 2.105 . S
O697 C691 1.268 . S
O698 Sc682 2.105 . S
O698 C690 1.268 . S
O699 Sc683 2.105 . S
O699 C689 1.268 . S
O700 Sc684 2.105 . S
O700 C691 1.268 . S
O701 Sc682 2.105 . S
O701 C687 1.268 . S
O702 Sc684 2.105 . S
O702 C686 1.268 . S
O703 Sc683 2.105 . S
O703 C688 1.268 . S
Sc704 O707 2.025 . S
Sc704 O714 2.105 . S
Sc704 O717 2.105 . S
Sc704 O720 2.105 . S
Sc704 O723 2.105 . S
Sc705 O707 2.025 . S
Sc705 O715 2.105 . S
Sc705 O719 2.105 . S
Sc705 O721 2.105 . S
Sc705 O725 2.105 . S
Sc706 O707 2.025 . S
Sc706 O716 2.105 . S
Sc706 O718 2.105 . S
Sc706 O722 2.105 . S
Sc706 O724 2.105 . S
O707 Sc704 2.025 . S
O707 Sc705 2.025 . S
O707 Sc706 2.025 . S
C708 O714 1.268 . S
C708 O724 1.268 . S
C709 O715 1.268 . S
C709 O723 1.268 . S
C710 O716 1.268 . S
C710 O725 1.268 . S
C711 O717 1.268 . S
C711 O721 1.268 . S
C712 O718 1.268 . S
C712 O720 1.268 . S
C713 O719 1.268 . S
C713 O722 1.268 . S
O714 Sc704 2.105 . S
O714 C708 1.268 . S
O715 Sc705 2.105 . S
O715 C709 1.268 . S
O716 Sc706 2.105 . S
O716 C710 1.268 . S
O717 Sc704 2.105 . S
O717 C711 1.268 . S
O718 Sc706 2.105 . S
O718 C712 1.268 . S
O719 Sc705 2.105 . S
O719 C713 1.268 . S
O720 Sc704 2.105 . S
O720 C712 1.268 . S
O721 Sc705 2.105 . S
O721 C711 1.268 . S
O722 Sc706 2.105 . S
O722 C713 1.268 . S
O723 Sc704 2.105 . S
O723 C709 1.268 . S
O724 Sc706 2.105 . S
O724 C708 1.268 . S
O725 Sc705 2.105 . S
O725 C710 1.268 . S
Sc726 O729 2.025 . S
Sc726 O736 2.105 . S
Sc726 O739 2.105 . S
Sc726 O742 2.105 . S
Sc726 O745 2.105 . S
Sc727 O729 2.025 . S
Sc727 O737 2.105 . S
Sc727 O741 2.105 . S
Sc727 O743 2.105 . S
Sc727 O747 2.105 . S
Sc728 O729 2.025 . S
Sc728 O738 2.105 . S
Sc728 O740 2.105 . S
Sc728 O744 2.105 . S
Sc728 O746 2.105 . S
O729 Sc726 2.025 . S
O729 Sc727 2.025 . S
O729 Sc728 2.025 . S
C730 O736 1.268 . S
C730 O746 1.268 . S
C731 O737 1.268 . S
C731 O745 1.268 . S
C732 O738 1.268 . S
C732 O747 1.268 . S
C733 O739 1.268 . S
C733 O743 1.268 . S
C734 O740 1.268 . S
C734 O742 1.268 . S
C735 O741 1.268 . S
C735 O744 1.268 . S
O736 Sc726 2.105 . S
O736 C730 1.268 . S
O737 Sc727 2.105 . S
O737 C731 1.268 . S
O738 Sc728 2.105 . S
O738 C732 1.268 . S
O739 Sc726 2.105 . S
O739 C733 1.268 . S
O740 Sc728 2.105 . S
O740 C734 1.268 . S
O741 Sc727 2.105 . S
O741 C735 1.268 . S
O742 Sc726 2.105 . S
O742 C734 1.268 . S
O743 Sc727 2.105 . S
O743 C733 1.268 . S
O744 Sc728 2.105 . S
O744 C735 1.268 . S
O745 Sc726 2.105 . S
O745 C731 1.268 . S
O746 Sc728 2.105 . S
O746 C730 1.268 . S
O747 Sc727 2.105 . S
O747 C732 1.268 . S
Sc748 O751 2.025 . S
Sc748 O758 2.105 . S
Sc748 O761 2.105 . S
Sc748 O764 2.105 . S
Sc748 O767 2.105 . S
Sc749 O751 2.025 . S
Sc749 O759 2.105 . S
Sc749 O763 2.105 . S
Sc749 O765 2.105 . S
Sc749 O769 2.105 . S
Sc750 O751 2.025 . S
Sc750 O760 2.105 . S
Sc750 O762 2.105 . S
Sc750 O766 2.105 . S
Sc750 O768 2.105 . S
O751 Sc748 2.025 . S
O751 Sc749 2.025 . S
O751 Sc750 2.025 . S
C752 O758 1.268 . S
C752 O768 1.268 . S
C753 O759 1.268 . S
C753 O767 1.268 . S
C754 O760 1.268 . S
C754 O769 1.268 . S
C755 O761 1.268 . S
C755 O765 1.268 . S
C756 O762 1.268 . S
C756 O764 1.268 . S
C757 O763 1.268 . S
C757 O766 1.268 . S
O758 Sc748 2.105 . S
O758 C752 1.268 . S
O759 Sc749 2.105 . S
O759 C753 1.268 . S
O760 Sc750 2.105 . S
O760 C754 1.268 . S
O761 Sc748 2.105 . S
O761 C755 1.268 . S
O762 Sc750 2.105 . S
O762 C756 1.268 . S
O763 Sc749 2.105 . S
O763 C757 1.268 . S
O764 Sc748 2.105 . S
O764 C756 1.268 . S
O765 Sc749 2.105 . S
O765 C755 1.268 . S
O766 Sc750 2.105 . S
O766 C757 1.268 . S
O767 Sc748 2.105 . S
O767 C753 1.268 . S
O768 Sc750 2.105 . S
O768 C752 1.268 . S
O769 Sc749 2.105 . S
O769 C754 1.268 . S
Sc770 O773 2.025 . S
Sc770 O780 2.105 . S
Sc770 O783 2.105 . S
Sc770 O786 2.105 . S
Sc770 O789 2.105 . S
Sc771 O773 2.025 . S
Sc771 O781 2.105 . S
Sc771 O785 2.105 . S
Sc771 O787 2.105 . S
Sc771 O791 2.105 . S
Sc772 O773 2.025 . S
Sc772 O782 2.105 . S
Sc772 O784 2.105 . S
Sc772 O788 2.105 . S
Sc772 O790 2.105 . S
O773 Sc770 2.025 . S
O773 Sc771 2.025 . S
O773 Sc772 2.025 . S
C774 O780 1.268 . S
C774 O790 1.268 . S
C775 O781 1.268 . S
C775 O789 1.268 . S
C776 O782 1.268 . S
C776 O791 1.268 . S
C777 O783 1.268 . S
C777 O787 1.268 . S
C778 O784 1.268 . S
C778 O786 1.268 . S
C779 O785 1.268 . S
C779 O788 1.268 . S
O780 Sc770 2.105 . S
O780 C774 1.268 . S
O781 Sc771 2.105 . S
O781 C775 1.268 . S
O782 Sc772 2.105 . S
O782 C776 1.268 . S
O783 Sc770 2.105 . S
O783 C777 1.268 . S
O784 Sc772 2.105 . S
O784 C778 1.268 . S
O785 Sc771 2.105 . S
O785 C779 1.268 . S
O786 Sc770 2.105 . S
O786 C778 1.268 . S
O787 Sc771 2.105 . S
O787 C777 1.268 . S
O788 Sc772 2.105 . S
O788 C779 1.268 . S
O789 Sc770 2.105 . S
O789 C775 1.268 . S
O790 Sc772 2.105 . S
O790 C774 1.268 . S
O791 Sc771 2.105 . S
O791 C776 1.268 . S
C162 C8 0.762 1_556 S
C180 C30 0.762 1_556 S
C140 C52 0.762 1_556 S
C70 C246 0.762 . S
C202 C92 0.762 . S
C118 C224 0.762 . S
C26 C136 0.762 1_554 S
C48 C158 0.762 1_554 S
C4 C184 0.762 1_554 S
C206 C114 0.762 . S
C228 C74 0.762 . S
C96 C250 0.762 . S
C272 C426 0.762 . S
C444 C294 0.762 . S
C316 C404 0.762 . S
C334 C510 0.762 . S
C356 C466 0.762 . S
C488 C382 0.762 . S
C290 C400 0.762 . S
C312 C422 0.762 . S
C268 C448 0.762 . S
C470 C378 0.762 . S
C492 C338 0.762 . S
C360 C514 0.762 . S
C536 C690 0.762 . S
C558 C708 0.762 . S
C580 C668 0.762 . S
C774 C598 0.762 . S
C620 C730 0.762 . S
C646 C752 0.762 . S
C554 C664 0.762 . S
C576 C686 0.762 . S
C532 C712 0.762 . S
C734 C642 0.762 . S
C756 C602 0.762 . S
C778 C624 0.762 . S
C7 C401 1.685 . S
C423 C29 1.685 . S
C51 C449 1.685 . S
C735 C72 1.685 . S
C94 C757 1.685 . S
C779 C117 1.685 . S
C535 C137 1.685 . S
C159 C557 1.685 . S
C185 C579 1.685 . S
C336 C207 1.685 . S
C229 C358 1.685 . S
C381 C251 1.685 . S
C271 C665 1.685 1_655 S
C687 C293 1.685 . S
C315 C713 1.685 1_545 S
C471 C600 1.685 1_546 S
C622 C493 1.685 1_454 S
C515 C645 1.685 1_556 S
C5 C643 3.703 . S
C603 C27 3.703 . S
C625 C49 3.703 . S
C291 C75 3.703 . S
C97 C313 3.703 . S
C269 C115 3.703 . S
C139 C512 3.703 . S
C468 C161 3.703 . S
C182 C490 3.703 . S
C689 C204 3.703 . S
C226 C710 3.703 . S
C667 C248 3.703 . S
C555 C339 3.703 1_455 S
C577 C361 3.703 . S
C533 C379 3.703 1_565 S
C776 C403 3.703 1_565 S
C425 C732 3.703 1_655 S
C754 C446 3.703 . S
C31 C6 1.769 1_655 S
C28 C53 1.769 . S
C9 C50 1.769 1_545 S
C73 C119 1.769 1_545 S
C71 C95 1.769 1_455 S
C93 C116 1.769 . S
C160 C141 1.769 1_455 S
C163 C183 1.769 . S
C138 C181 1.769 1_565 S
C249 C203 1.769 1_545 S
C205 C225 1.769 1_655 S
C227 C247 1.769 . S
C295 C270 1.769 . S
C292 C317 1.769 . S
C314 C273 1.769 . S
C337 C383 1.769 . S
C359 C335 1.769 . S
C380 C357 1.769 . S
C424 C405 1.769 . S
C447 C427 1.769 . S
C402 C445 1.769 . S
C467 C513 1.769 1_556 S
C489 C469 1.769 1_556 S
C511 C491 1.769 1_556 S
C559 C534 1.769 . S
C556 C581 1.769 . S
C537 C578 1.769 . S
C601 C647 1.769 1_554 S
C623 C599 1.769 1_554 S
C621 C644 1.769 1_556 S
C688 C669 1.769 . S
C711 C691 1.769 . S
C666 C709 1.769 . S
C731 C777 1.769 . S
C753 C733 1.769 . S
C755 C775 1.769 . S
