# Generated by pormake.
# Topology wla, (5)-cn, num edge types: 1
# Building blocks:
#     Node 0, Type 0, BuildingBlock: XOMCOT_clean_sbu_1, # of connection points: 5
#     Node 1, Type 0, BuildingBlock: XOMCOT_clean_sbu_1, # of connection points: 5
#     Node 2, Type 0, BuildingBlock: XOMCOT_clean_sbu_1, # of connection points: 5
#     Node 3, Type 0, BuildingBlock: XOMCOT_clean_sbu_1, # of connection points: 5
#     Node 4, Type 0, BuildingBlock: XOMCOT_clean_sbu_1, # of connection points: 5
#     Node 5, Type 0, BuildingBlock: XOMCOT_clean_sbu_1, # of connection points: 5
#     Node 6, Type 0, BuildingBlock: XOMCOT_clean_sbu_1, # of connection points: 5
#     Node 7, Type 0, BuildingBlock: XOMCOT_clean_sbu_1, # of connection points: 5
#     Node 8, Type 0, BuildingBlock: XOMCOT_clean_sbu_1, # of connection points: 5
#     Node 9, Type 0, BuildingBlock: XOMCOT_clean_sbu_1, # of connection points: 5
#     Node 10, Type 0, BuildingBlock: XOMCOT_clean_sbu_1, # of connection points: 5
#     Node 11, Type 0, BuildingBlock: XOMCOT_clean_sbu_1, # of connection points: 5
#     Node 12, Type 0, BuildingBlock: XOMCOT_clean_sbu_1, # of connection points: 5
#     Node 13, Type 0, BuildingBlock: XOMCOT_clean_sbu_1, # of connection points: 5
#     Node 14, Type 0, BuildingBlock: XOMCOT_clean_sbu_1, # of connection points: 5
#     Node 15, Type 0, BuildingBlock: XOMCOT_clean_sbu_1, # of connection points: 5
#     Node 16, Type 0, BuildingBlock: XOMCOT_clean_sbu_1, # of connection points: 5
#     Node 17, Type 0, BuildingBlock: XOMCOT_clean_sbu_1, # of connection points: 5
#     Edge 18, Type (0, 0), BuildingBlock: KIFKEQ_clean_linker_1, # of connection points: 2
#     Edge 19, Type (0, 0), BuildingBlock: KIFKEQ_clean_linker_1, # of connection points: 2
#     Edge 20, Type (0, 0), BuildingBlock: KIFKEQ_clean_linker_1, # of connection points: 2
#     Edge 21, Type (0, 0), BuildingBlock: KIFKEQ_clean_linker_1, # of connection points: 2
#     Edge 22, Type (0, 0), BuildingBlock: KIFKEQ_clean_linker_1, # of connection points: 2
#     Edge 23, Type (0, 0), BuildingBlock: KIFKEQ_clean_linker_1, # of connection points: 2
#     Edge 24, Type (0, 0), BuildingBlock: KIFKEQ_clean_linker_1, # of connection points: 2
#     Edge 25, Type (0, 0), BuildingBlock: KIFKEQ_clean_linker_1, # of connection points: 2
#     Edge 26, Type (0, 0), BuildingBlock: KIFKEQ_clean_linker_1, # of connection points: 2
#     Edge 27, Type (0, 0), BuildingBlock: KIFKEQ_clean_linker_1, # of connection points: 2
#     Edge 28, Type (0, 0), BuildingBlock: KIFKEQ_clean_linker_1, # of connection points: 2
#     Edge 29, Type (0, 0), BuildingBlock: KIFKEQ_clean_linker_1, # of connection points: 2
#     Edge 30, Type (0, 0), BuildingBlock: KIFKEQ_clean_linker_1, # of connection points: 2
#     Edge 31, Type (0, 0), BuildingBlock: KIFKEQ_clean_linker_1, # of connection points: 2
#     Edge 32, Type (0, 0), BuildingBlock: KIFKEQ_clean_linker_1, # of connection points: 2
#     Edge 33, Type (0, 0), BuildingBlock: KIFKEQ_clean_linker_1, # of connection points: 2
#     Edge 34, Type (0, 0), BuildingBlock: KIFKEQ_clean_linker_1, # of connection points: 2
#     Edge 35, Type (0, 0), BuildingBlock: KIFKEQ_clean_linker_1, # of connection points: 2
#     Edge 36, Type (0, 0), BuildingBlock: KIFKEQ_clean_linker_1, # of connection points: 2
#     Edge 37, Type (0, 0), BuildingBlock: KIFKEQ_clean_linker_1, # of connection points: 2
#     Edge 38, Type (0, 0), BuildingBlock: KIFKEQ_clean_linker_1, # of connection points: 2
#     Edge 39, Type (0, 0), BuildingBlock: KIFKEQ_clean_linker_1, # of connection points: 2
#     Edge 40, Type (0, 0), BuildingBlock: KIFKEQ_clean_linker_1, # of connection points: 2
#     Edge 41, Type (0, 0), BuildingBlock: KIFKEQ_clean_linker_1, # of connection points: 2
#     Edge 42, Type (0, 0), BuildingBlock: KIFKEQ_clean_linker_1, # of connection points: 2
#     Edge 43, Type (0, 0), BuildingBlock: KIFKEQ_clean_linker_1, # of connection points: 2
#     Edge 44, Type (0, 0), BuildingBlock: KIFKEQ_clean_linker_1, # of connection points: 2
#     Edge 45, Type (0, 0), BuildingBlock: KIFKEQ_clean_linker_1, # of connection points: 2
#     Edge 46, Type (0, 0), BuildingBlock: KIFKEQ_clean_linker_1, # of connection points: 2
#     Edge 47, Type (0, 0), BuildingBlock: KIFKEQ_clean_linker_1, # of connection points: 2
#     Edge 48, Type (0, 0), BuildingBlock: KIFKEQ_clean_linker_1, # of connection points: 2
#     Edge 49, Type (0, 0), BuildingBlock: KIFKEQ_clean_linker_1, # of connection points: 2
#     Edge 50, Type (0, 0), BuildingBlock: KIFKEQ_clean_linker_1, # of connection points: 2
#     Edge 51, Type (0, 0), BuildingBlock: KIFKEQ_clean_linker_1, # of connection points: 2
#     Edge 52, Type (0, 0), BuildingBlock: KIFKEQ_clean_linker_1, # of connection points: 2
#     Edge 53, Type (0, 0), BuildingBlock: KIFKEQ_clean_linker_1, # of connection points: 2
#     Edge 54, Type (0, 0), BuildingBlock: KIFKEQ_clean_linker_1, # of connection points: 2
#     Edge 55, Type (0, 0), BuildingBlock: KIFKEQ_clean_linker_1, # of connection points: 2
#     Edge 56, Type (0, 0), BuildingBlock: KIFKEQ_clean_linker_1, # of connection points: 2
#     Edge 57, Type (0, 0), BuildingBlock: KIFKEQ_clean_linker_1, # of connection points: 2
#     Edge 58, Type (0, 0), BuildingBlock: KIFKEQ_clean_linker_1, # of connection points: 2
#     Edge 59, Type (0, 0), BuildingBlock: KIFKEQ_clean_linker_1, # of connection points: 2
#     Edge 60, Type (0, 0), BuildingBlock: KIFKEQ_clean_linker_1, # of connection points: 2
#     Edge 61, Type (0, 0), BuildingBlock: KIFKEQ_clean_linker_1, # of connection points: 2
#     Edge 62, Type (0, 0), BuildingBlock: KIFKEQ_clean_linker_1, # of connection points: 2
# Relax obj value: 0.393
# Max RMSD: 0.240
# Mean RMSD: 0.240
data_MOF--net-wla--node1-XOMCOT_clean_sbu_1--edge1-KIFKEQ_clean_linker_1
_symmetry_space_group_name_H-M    P1
_symmetry_Int_Tables_number       1
_symmetry_cell_setting            triclinic
loop_
_symmetry_equiv_pos_as_xyz
'x, y, z'
_cell_length_a     61.846153
_cell_length_b     61.918194
_cell_length_c     28.382513
_cell_angle_alpha  89.897547
_cell_angle_beta   90.073025
_cell_angle_gamma 120.02682
loop_
_atom_site_label
_atom_site_type_symbol
_atom_site_fract_x
_atom_site_fract_y
_atom_site_fract_z
_atom_type_partial_charge
C0 C 0.1356 0.06471 0.28578 0.0
C1 C 0.11274 0.04323 0.28892 0.0
N2 N 0.11642 0.02496 0.3057 0.0
N3 N 0.15343 0.06 0.30134 0.0
C4 C 0.14123 0.03552 0.31247 0.0
H5 H 0.13895 0.08281 0.27437 0.0
Co6 Co 0.18699 0.08315 0.3094 0.0
C7 C 0.19514 0.05083 0.37989 0.0
O8 O 0.20364 0.04099 0.34929 0.0
N9 N 0.22081 0.1064 0.318 0.0
C10 C 0.25704 0.1328 0.3516 0.0
C11 C 0.23196 0.11709 0.35915 0.0
C12 C 0.23944 0.11598 0.28601 0.0
N13 N 0.26175 0.13202 0.30548 0.0
O14 O 0.19515 0.06403 0.26611 0.0
H15 H 0.22246 0.11356 0.39267 0.0
H16 H 0.23692 0.11079 0.24932 0.0
O17 O 0.18832 0.06608 0.36602 0.0
C18 C 0.19381 0.07187 0.22496 0.0
O19 O 0.18888 0.09016 0.22192 0.0
N20 N 0.1782 0.10251 0.34615 0.0
C21 C 0.15462 0.12793 0.37791 0.0
C22 C 0.15084 0.10624 0.40099 0.0
C23 C 0.16275 0.09366 0.38436 0.0
C24 C 0.18375 0.12465 0.32593 0.0
C25 C 0.17231 0.1378 0.34152 0.0
H26 H 0.15763 0.07567 0.39931 0.0
H27 H 0.19548 0.13103 0.29492 0.0
H28 H 0.15018 0.02578 0.32685 0.0
H29 H 0.0948 0.04123 0.28003 0.0
H30 H 0.27069 0.14381 0.37817 0.0
H31 H 0.13732 0.09803 0.4292 0.0
H32 H 0.1755 0.15422 0.32212 0.0
C33 C 0.01036 0.17056 0.20729 0.0
C34 C 0.033 0.17459 0.22369 0.0
N35 N 0.03069 0.16884 0.26996 0.0
N36 N 0.99381 0.16238 0.24304 0.0
C37 C 0.00672 0.16148 0.28066 0.0
H38 H 0.00615 0.17276 0.17125 0.0
Co39 Co 0.95997 0.15254 0.24037 0.0
C40 C 0.97825 0.18952 0.3202 0.0
O41 O -0.00436 0.20689 0.29358 0.0
N42 N 0.92619 0.14305 0.23787 0.0
C43 C 0.88643 0.12402 0.21549 0.0
C44 C 0.90644 0.1208 0.22589 0.0
C45 C 0.91768 0.15923 0.23559 0.0
N46 N 0.8938 0.14834 0.22084 0.0
O47 O 0.96803 0.18172 0.20127 0.0
H48 H 0.90721 0.10391 0.22049 0.0
H49 H 0.92956 0.17918 0.23983 0.0
O50 O 0.96277 0.16851 0.30186 0.0
C51 C 0.96168 0.17225 0.15982 0.0
O52 O 0.95253 0.14807 0.15547 0.0
N53 N 0.95208 0.12274 0.27051 0.0
C54 C 0.942 0.07592 0.30126 0.0
C55 C 0.93448 0.09001 0.32827 0.0
C56 C 0.93974 0.1136 0.31211 0.0
C57 C 0.95846 0.10877 0.24318 0.0
C58 C 0.95391 0.08553 0.25809 0.0
H59 H 0.93338 0.12415 0.33214 0.0
H60 H 0.96717 0.11581 0.2093 0.0
H61 H -0.00156 0.1551 0.31508 0.0
H62 H 0.04952 0.18023 0.20253 0.0
H63 H 0.86884 0.11018 0.20023 0.0
H64 H 0.92474 0.0829 0.36136 0.0
H65 H 0.95928 0.07492 0.23546 0.0
C66 C 0.92326 0.87995 0.24403 0.0
C67 C 0.93026 0.90457 0.25044 0.0
N68 N 0.91215 0.9055 0.27495 0.0
N69 N 0.90101 0.86549 0.26508 0.0
C70 C 0.89446 0.88161 0.28307 0.0
H71 H 0.93438 0.87301 0.22774 0.0
Co72 Co 0.88746 0.83136 0.27395 0.0
C73 C 0.84707 0.82106 0.34672 0.0
O74 O 0.82829 0.80544 0.32024 0.0
N75 N 0.87415 0.79709 0.28263 0.0
C76 C 0.86 0.75944 0.31403 0.0
C77 C 0.87023 0.78449 0.32354 0.0
C78 C 0.86661 0.77944 0.24893 0.0
N79 N 0.85781 0.75638 0.26696 0.0
O80 O 0.86123 0.82532 0.22856 0.0
H81 H 0.87455 0.79297 0.3581 0.0
H82 H 0.86711 0.78325 0.21173 0.0
O83 O 0.86919 0.832 0.32994 0.0
C84 C 0.87134 0.82652 0.1884 0.0
O85 O 0.89427 0.83037 0.18838 0.0
N86 N 0.91474 0.83805 0.31243 0.0
C87 C 0.96447 0.86244 0.34118 0.0
C88 C 0.94714 0.86767 0.3626 0.0
C89 C 0.92237 0.8553 0.34769 0.0
C90 C 0.93051 0.83067 0.29491 0.0
C91 C 0.95547 0.84244 0.30927 0.0
H92 H 0.91042 0.86215 0.35998 0.0
H93 H 0.92444 0.8174 0.26627 0.0
H94 H 0.87804 0.87611 0.30446 0.0
H95 H 0.94772 0.92059 0.23957 0.0
H96 H 0.85477 0.7447 0.33971 0.0
H97 H 0.95303 0.88315 0.3867 0.0
H98 H 0.96799 0.83735 0.29247 0.0
C99 C -0.00089 0.14569 0.81016 0.0
C100 C 0.97844 0.12223 0.8079 0.0
N101 N 0.96613 0.12063 0.76776 0.0
N102 N -0.00032 0.15888 0.77183 0.0
C103 C 0.97925 0.14305 0.74667 0.0
H104 H 0.01334 0.15233 0.83717 0.0
Co105 Co 0.02505 0.19114 0.75745 0.0
C106 C 0.00415 0.20546 0.67593 0.0
O107 O 0.00814 0.22567 0.69836 0.0
N108 N 0.05073 0.22373 0.74301 0.0
C109 C 0.08164 0.25622 0.70595 0.0
C110 C 0.06274 0.23186 0.7014 0.0
C111 C 0.06273 0.24347 0.77216 0.0
N112 N 0.08165 0.26342 0.7507 0.0
O113 O 0.00716 0.20403 0.79378 0.0
H114 H 0.05845 0.22055 0.67 0.0
H115 H 0.05795 0.24337 0.80867 0.0
O116 O 0.00908 0.19005 0.69656 0.0
C117 C 0.01559 0.20524 0.83568 0.0
O118 O 0.03346 0.19981 0.84132 0.0
N119 N 0.0434 0.17793 0.72964 0.0
C120 C 0.06711 0.14981 0.72041 0.0
C121 C 0.04522 0.14358 0.69476 0.0
C122 C 0.03383 0.15819 0.69931 0.0
C123 C 0.0656 0.18537 0.75166 0.0
C124 C 0.07815 0.17214 0.74624 0.0
H125 H 0.01617 0.15222 0.68197 0.0
H126 H 0.07285 0.20067 0.77642 0.0
H127 H 0.97442 0.14741 0.71272 0.0
H128 H 0.97361 0.10707 0.83242 0.0
H129 H 0.09479 0.26743 0.67883 0.0
H130 H 0.03585 0.12665 0.67416 0.0
H131 H 0.09556 0.17859 0.76498 0.0
C132 C 0.88406 0.91158 0.79521 0.0
C133 C 0.90866 0.91787 0.79057 0.0
N134 N 0.9093 0.8978 0.77421 0.0
N135 N 0.86934 0.88778 0.78111 0.0
C136 C 0.88526 0.87973 0.7692 0.0
H137 H 0.87732 0.92379 0.80672 0.0
Co138 Co 0.83482 0.87152 0.77474 0.0
C139 C 0.82446 0.83256 0.70011 0.0
O140 O 0.80531 0.81481 0.72293 0.0
N141 N 0.80004 0.85539 0.76793 0.0
C142 C 0.76222 0.84083 0.73701 0.0
C143 C 0.78738 0.8529 0.72761 0.0
C144 C 0.78219 0.84497 0.80138 0.0
N145 N 0.759 0.83587 0.78351 0.0
O146 O 0.83195 0.84655 0.82024 0.0
H147 H 0.79593 0.85964 0.6935 0.0
H148 H 0.786 0.84393 0.83818 0.0
O149 O 0.83717 0.85408 0.7189 0.0
C150 C 0.83275 0.8568 0.86002 0.0
O151 O 0.83449 0.87886 0.85912 0.0
N152 N 0.83807 0.89761 0.73681 0.0
C153 C 0.85252 0.94522 0.70305 0.0
C154 C 0.85865 0.92937 0.67819 0.0
C155 C 0.85146 0.90564 0.69601 0.0
C156 C 0.83011 0.91181 0.75908 0.0
C157 C 0.83708 0.93563 0.74285 0.0
H158 H 0.85839 0.89472 0.67911 0.0
H159 H 0.82005 0.9054 0.79199 0.0
H160 H 0.8794 0.86131 0.75546 0.0
H161 H 0.92484 0.93582 0.79832 0.0
H162 H 0.74752 0.83648 0.71166 0.0
H163 H 0.87026 0.93579 0.647 0.0
H164 H 0.83217 0.94708 0.76395 0.0
C165 C 0.10877 0.987 0.83646 0.0
C166 C 0.09711 0.0004 0.82593 0.0
N167 N 0.11302 0.0205 0.80043 0.0
N168 N 0.13175 -0.00156 0.81706 0.0
C169 C 0.13396 0.01903 0.79598 0.0
H170 H 0.10073 0.96959 0.85569 0.0
Co171 Co 0.15326 0.98564 0.81572 0.0
C172 C 0.17705 -0.00179 0.72175 0.0
O173 O 0.1741 0.97566 0.72189 0.0
N174 N 0.17575 0.97324 0.8158 0.0
C175 C 0.21278 0.97529 0.81644 0.0
C176 C 0.20068 0.9886 0.8112 0.0
C177 C 0.17334 0.95067 0.82522 0.0
N178 N 0.19557 0.95144 0.82543 0.0
O179 O 0.17516 0.01139 0.85961 0.0
H180 H 0.2096 0.0085 0.80534 0.0
H181 H 0.15595 0.93399 0.83293 0.0
O182 O 0.17008 0.00579 0.7578 0.0
C183 C 0.17077 0.00095 0.90024 0.0
O184 O 0.1545 0.97697 0.90297 0.0
N185 N 0.1293 0.95905 0.77872 0.0
C186 C 0.07987 0.92534 0.75302 0.0
C187 C 0.09486 0.94644 0.72523 0.0
C188 C 0.11944 0.96305 0.73865 0.0
C189 C 0.11562 0.93768 0.80395 0.0
C190 C 0.0913 0.92016 0.79071 0.0
H191 H 0.12884 0.98073 0.72059 0.0
H192 H 0.12197 0.93573 0.83825 0.0
H193 H 0.15023 0.03224 0.77625 0.0
H194 H 0.0784 0.99571 0.83609 0.0
H195 H 0.23279 0.98279 0.81586 0.0
H196 H 0.08705 0.95185 0.6965 0.0
H197 H 0.08082 0.90401 0.81303 0.0
C198 C 0.81606 0.31257 0.53821 0.0
C199 C 0.79825 0.28963 0.5547 0.0
N200 N 0.79318 0.2922 0.59977 0.0
N201 N 0.82244 0.32962 0.5728 0.0
C202 C 0.808 0.31663 0.60987 0.0
H203 H 0.82347 0.31647 0.50284 0.0
Co204 Co 0.84603 0.36366 0.56839 0.0
C205 C 0.86613 0.34603 0.64647 0.0
O206 O 0.86389 0.32731 0.62101 0.0
N207 N 0.86988 0.39752 0.56374 0.0
C208 C 0.88966 0.4372 0.54093 0.0
C209 C 0.8667 0.4168 0.5512 0.0
C210 C 0.89472 0.40664 0.56143 0.0
N211 N 0.90715 0.43054 0.54668 0.0
O212 O 0.86679 0.35589 0.52786 0.0
H213 H 0.84876 0.41551 0.54599 0.0
H214 H 0.90333 0.39528 0.56639 0.0
O215 O 0.86103 0.36178 0.62799 0.0
C216 C 0.86349 0.36218 0.48649 0.0
O217 O 0.84796 0.37075 0.482 0.0
N218 N 0.82482 0.37166 0.60128 0.0
C219 C 0.7946 0.39077 0.62934 0.0
C220 C 0.81671 0.39708 0.65389 0.0
C221 C 0.83157 0.38712 0.63944 0.0
C222 C 0.80297 0.36469 0.57824 0.0
C223 C 0.78738 0.37368 0.59218 0.0
H224 H 0.84941 0.39349 0.65626 0.0
H225 H 0.79832 0.35324 0.54699 0.0
H226 H 0.80829 0.32498 0.64352 0.0
H227 H 0.78898 0.27256 0.53443 0.0
H228 H 0.89295 0.45469 0.52602 0.0
H229 H 0.82302 0.4105 0.68237 0.0
H230 H 0.7708 0.3688 0.5716 0.0
C231 C 0.67274 0.47476 0.49662 0.0
C232 C 0.69201 0.46999 0.5032 0.0
N233 N 0.6963 0.47038 0.54975 0.0
N234 N 0.66509 0.47844 0.53886 0.0
C235 C 0.67991 0.47567 0.57048 0.0
H236 H 0.66425 0.47434 0.46314 0.0
Co237 Co 0.6377 0.48255 0.55183 0.0
C238 C 0.65602 0.52096 0.62922 0.0
O239 O 0.64617 0.53318 0.60914 0.0
N240 N 0.6098 0.48631 0.56577 0.0
C241 C 0.57817 0.48566 0.60461 0.0
C242 C 0.59749 0.48079 0.60734 0.0
C243 C 0.59748 0.49462 0.53849 0.0
N244 N 0.57816 0.49438 0.56116 0.0
O245 O 0.65144 0.5111 0.50882 0.0
H246 H 0.60236 0.47397 0.63826 0.0
H247 H 0.60274 0.50133 0.50296 0.0
O248 O 0.65504 0.50229 0.60801 0.0
C249 C 0.64156 0.50196 0.4686 0.0
O250 O 0.62412 0.47829 0.46722 0.0
N251 N 0.62363 0.453 0.58679 0.0
C252 C 0.6069 0.40477 0.61946 0.0
C253 C 0.62017 0.42535 0.64934 0.0
C254 C 0.62838 0.44943 0.63232 0.0
C255 C 0.60954 0.4332 0.55833 0.0
C256 C 0.60097 0.40893 0.57387 0.0
H257 H 0.63935 0.46502 0.65523 0.0
H258 H 0.60615 0.43641 0.52231 0.0
H259 H 0.67827 0.47673 0.60819 0.0
H260 H 0.70112 0.46514 0.47607 0.0
H261 H 0.56513 0.48286 0.63254 0.0
H262 H 0.62486 0.42293 0.68499 0.0
H263 H 0.59112 0.39372 0.54927 0.0
C264 C 0.59185 0.204 0.60122 0.0
C265 C 0.60166 0.22943 0.6018 0.0
N266 N 0.58605 0.23453 0.62632 0.0
N267 N 0.57026 0.19314 0.62548 0.0
C268 C 0.5671 0.21209 0.64005 0.0
H269 H 0.59976 0.19399 0.58392 0.0
Co270 Co 0.54922 0.15919 0.63329 0.0
C271 C 0.53192 0.15385 0.73154 0.0
O272 O 0.53723 0.13582 0.73465 0.0
N273 N 0.52686 0.12443 0.63834 0.0
C274 C 0.49071 0.08876 0.64562 0.0
C275 C 0.50364 0.11356 0.65717 0.0
C276 C 0.52675 0.10592 0.61279 0.0
N277 N 0.50524 0.08401 0.61743 0.0
O278 O 0.52572 0.16119 0.59098 0.0
H279 H 0.49558 0.12329 0.67485 0.0
H280 H 0.54117 0.10878 0.588 0.0
O281 O 0.53484 0.16522 0.69198 0.0
C282 C 0.53098 0.15659 0.54989 0.0
O283 O 0.54887 0.1511 0.54627 0.0
N284 N 0.57465 0.15816 0.66968 0.0
C285 C 0.62368 0.17124 0.69326 0.0
C286 C 0.61208 0.18323 0.71461 0.0
C287 C 0.58756 0.17632 0.7026 0.0
C288 C 0.5848 0.14465 0.65251 0.0
C289 C 0.60891 0.15035 0.665 0.0
H290 H 0.58035 0.18793 0.71526 0.0
H291 H 0.57571 0.13126 0.62504 0.0
H292 H 0.55114 0.20938 0.66029 0.0
H293 H 0.61864 0.24298 0.58435 0.0
H294 H 0.47134 0.07578 0.65386 0.0
H295 H 0.62249 0.19959 0.73637 0.0
H296 H 0.61668 0.13993 0.6487 0.0
C297 C 0.70491 0.47615 0.07789 0.0
C298 C 0.68447 0.45267 0.07376 0.0
N299 N 0.66525 0.45498 0.05765 0.0
N300 N 0.69866 0.4931 0.06361 0.0
C301 C 0.67422 0.47966 0.05224 0.0
H302 H 0.72332 0.48059 0.08967 0.0
Co303 Co 0.72038 0.52726 0.05878 0.0
C304 C 0.68791 0.53309 0.98353 0.0
O305 O 0.6751 0.53901 1.01236 0.0
N306 N 0.7422 0.56152 0.05379 0.0
C307 C 0.76727 0.59965 0.02598 0.0
C308 C 0.75116 0.57518 1.01408 0.0
C309 C 0.75331 0.57796 0.08919 0.0
N310 N 0.76859 0.60133 0.07333 0.0
O311 O 0.69891 0.53308 0.10108 0.0
H312 H 0.74661 0.56779 0.9787 0.0
H313 H 0.7502 0.57295 0.12602 0.0
O314 O 0.70428 0.52833 0.99999 0.0
C315 C 0.70641 0.53057 0.14188 0.0
O316 O 0.72416 0.52476 0.1433 0.0
N317 N 0.74248 0.52117 0.02429 0.0
C318 C 0.77164 0.50035 0.99894 0.0
C319 C 0.75071 0.49581 0.97185 0.0
C320 C 0.7362 0.5063 0.98536 0.0
C321 C 0.76391 0.52757 0.04834 0.0
C322 C 0.7788 0.51747 0.0362 0.0
H323 H 0.7187 0.50043 0.96743 0.0
H324 H 0.76821 0.53869 0.07999 0.0
H325 H 0.66333 0.48769 0.0393 0.0
H326 H 0.68369 0.43523 0.0822 0.0
H327 H 0.77754 0.61488 1.0016 0.0
H328 H 0.74458 0.48291 0.94256 0.0
H329 H 0.79443 0.5213 0.0588 0.0
C330 C 0.54807 0.26242 0.16595 0.0
C331 C 0.57308 0.27313 0.15577 0.0
N332 N 0.57648 0.25725 0.12841 0.0
N333 N 0.53567 0.23999 0.14491 0.0
C334 C 0.55344 0.23717 0.1229 0.0
H335 H 0.53929 0.27085 0.18583 0.0
Co336 Co 0.50124 0.22011 0.14291 0.0
C337 C 0.48962 0.19499 0.0501 0.0
O338 O 0.47076 0.1991 0.04796 0.0
N339 N 0.46618 0.19945 0.14261 0.0
C340 C 0.42959 0.16406 0.14501 0.0
C341 C 0.45475 0.17439 0.13767 0.0
C342 C 0.44748 0.20372 0.15464 0.0
N343 N 0.42508 0.18254 0.15593 0.0
O344 O 0.50311 0.19776 0.18855 0.0
H345 H 0.46432 0.1641 0.13094 0.0
H346 H 0.45003 0.22162 0.16451 0.0
O347 O 0.50366 0.20173 0.08692 0.0
C348 C 0.49823 0.20375 0.22872 0.0
O349 O 0.49308 0.22193 0.2301 0.0
N350 N 0.5005 0.24441 0.10356 0.0
C351 C 0.51581 0.29236 0.06893 0.0
C352 C 0.52151 0.27611 0.04459 0.0
C353 C 0.51395 0.25242 0.06266 0.0
C354 C 0.49377 0.25952 0.12633 0.0
C355 C 0.50042 0.28312 0.1088 0.0
H356 H 0.52194 0.24221 0.04679 0.0
H357 H 0.4861 0.25483 0.16138 0.0
H358 H 0.54945 0.22084 0.10263 0.0
H359 H 0.58742 0.29159 0.16638 0.0
H360 H 0.41591 0.14434 0.14527 0.0
H361 H 0.53408 0.28243 1.01475 0.0
H362 H 0.4955 0.29484 0.12904 0.0
C363 C 0.8147 0.34732 0.13533 0.0
C364 C 0.81427 0.3692 0.13036 0.0
N365 N 0.82109 0.37748 0.08598 0.0
N366 N 0.82201 0.34192 0.09439 0.0
C367 C 0.82584 0.36076 0.06506 0.0
H368 H 0.80892 0.33562 0.16631 0.0
Co369 Co 0.82296 0.31278 0.08135 0.0
C370 C 0.85976 0.3282 1.00236 0.0
O371 O 0.87261 0.31989 0.02528 0.0
N372 N 0.82356 0.28325 0.0678 0.0
C373 C 0.82072 0.25064 0.02903 0.0
C374 C 0.81838 0.27156 0.02563 0.0
C375 C 0.82853 0.26876 0.09635 0.0
N376 N 0.82698 0.24892 0.0737 0.0
O377 O 0.85312 0.32552 0.11943 0.0
H378 H 0.81337 0.27795 0.99418 0.0
H379 H 0.83379 0.27272 0.1329 0.0
O380 O 0.84076 0.32731 0.02206 0.0
C381 C 0.84498 0.31722 0.16094 0.0
O382 O 0.82083 0.3021 0.16618 0.0
N383 N 0.79216 0.29975 0.05123 0.0
C384 C 0.74246 0.28437 0.03183 0.0
C385 C 0.76157 0.30214 1.00304 0.0
C386 C 0.78648 0.30945 1.01308 0.0
C387 C 0.77377 0.28142 0.07762 0.0
C388 C 0.74877 0.27323 0.06822 0.0
H389 H 0.80106 0.32405 0.99226 0.0
H390 H 0.77863 0.27428 0.10819 0.0
H391 H 0.83122 0.36191 0.02852 0.0
H392 H 0.80797 0.37757 0.15646 0.0
H393 H 0.81798 0.23771 1.00095 0.0
H394 H 0.75737 0.31115 0.97459 0.0
H395 H 0.73467 0.25976 0.09175 0.0
C396 C 0.47553 0.66546 0.87698 0.0
C397 C 0.45093 0.64715 0.88084 0.0
N398 N 0.44581 0.6415 0.92674 0.0
N399 N 0.48601 0.67111 0.92023 0.0
C400 C 0.4673 0.65625 0.94989 0.0
H401 H 0.48485 0.6745 0.84463 0.0
Co402 Co 0.51868 0.69558 0.93417 0.0
C403 C 0.53316 0.6751 1.01544 0.0
O404 O 0.55404 0.68042 0.99384 0.0
N405 N 0.55174 0.72065 0.94856 0.0
C406 C 0.58496 0.75087 0.98565 0.0
C407 C 0.55957 0.73469 0.98812 0.0
C408 C 0.57279 0.72866 0.92292 0.0
N409 N 0.59316 0.74684 0.94459 0.0
O410 O 0.53042 0.67663 0.89827 0.0
H411 H 0.54766 0.73312 0.01731 0.0
H412 H 0.57352 0.72169 0.88861 0.0
O413 O 0.51716 0.67899 0.99431 0.0
C414 C 0.53393 0.68487 0.85582 0.0
O415 O 0.53193 0.70463 0.84681 0.0
N416 N 0.50643 0.71451 0.96209 0.0
C417 C 0.48046 0.73965 0.98031 0.0
C418 C 0.48091 0.72304 1.01369 0.0
C419 C 0.49405 0.71055 1.00387 0.0
C420 C 0.50742 0.73158 0.93071 0.0
C421 C 0.49462 0.74435 0.93903 0.0
H422 H 0.49314 0.69688 0.0287 0.0
H423 H 0.51699 0.73413 0.89753 0.0
H424 H 0.46918 0.65643 0.98779 0.0
H425 H 0.43754 0.63936 0.85234 0.0
H426 H 0.59648 0.76422 1.01222 0.0
H427 H 0.47047 0.71901 0.04624 0.0
H428 H 0.49456 0.75653 0.91169 0.0
C429 C 0.31371 0.77541 0.88199 0.0
C430 C 0.33218 0.76921 0.88263 0.0
N431 N 0.34709 0.78056 0.91981 0.0
N432 N 0.31718 0.79089 0.91822 0.0
C433 C 0.33766 0.79358 0.94083 0.0
H434 H 0.29851 0.76875 0.85703 0.0
Co435 Co 0.29657 0.80403 0.93188 0.0
C436 C 0.32402 0.84285 1.00668 0.0
O437 O 0.31969 0.85923 0.98561 0.0
N438 N 0.27544 0.81705 0.9459 0.0
C439 C 0.25017 0.82667 0.98486 0.0
C440 C 0.2643 0.81526 0.9878 0.0
C441 C 0.26775 0.82971 0.91817 0.0
N442 N 0.25236 0.83579 0.94093 0.0
O443 O 0.31558 0.83071 0.88654 0.0
H444 H 0.26643 0.80635 0.01886 0.0
H445 H 0.2737 0.83493 0.88222 0.0
O446 O 0.31733 0.82196 0.98666 0.0
C447 C 0.30464 0.82208 0.84684 0.0
O448 O 0.28344 0.80076 0.84741 0.0
N449 N 0.27707 0.77628 0.9697 0.0
C450 C 0.24784 0.72885 1.00785 0.0
C451 C 0.27115 0.74553 0.02754 0.0
C452 C 0.28559 0.7692 1.00776 0.0
C453 C 0.254 0.76078 0.95155 0.0
C454 C 0.23893 0.73705 0.97038 0.0
H455 H 0.30417 0.78104 0.02115 0.0
H456 H 0.24782 0.76641 0.92061 0.0
H457 H 0.34559 0.80477 0.97209 0.0
H458 H 0.33415 0.75681 0.85842 0.0
H459 H 0.23908 0.82796 1.01296 0.0
H460 H 0.27874 0.73985 0.0563 0.0
H461 H 0.2213 0.72462 0.95342 0.0
C462 C 0.17268 0.53024 0.87905 0.0
C463 C 0.17093 0.55033 0.89425 0.0
N464 N 0.17674 0.55383 0.94046 0.0
N465 N 0.17942 0.52091 0.91549 0.0
C466 C 0.18174 0.53565 0.95244 0.0
H467 H 0.17044 0.52372 0.84315 0.0
Co468 Co 0.18698 0.4954 0.91195 0.0
C469 C 0.14931 0.47822 0.99049 0.0
O470 O 0.13341 0.48113 0.96434 0.0
N471 N 0.19448 0.46983 0.90764 0.0
C472 C 0.21297 0.4488 0.88463 0.0
C473 C 0.21647 0.47207 0.89446 0.0
C474 C 0.17802 0.44514 0.90615 0.0
N475 N 0.18868 0.43191 0.89144 0.0
O476 O 0.15762 0.47632 0.87203 0.0
H477 H 0.23351 0.48962 0.88888 0.0
H478 H 0.15812 0.43734 0.91097 0.0
O479 O 0.16969 0.48175 0.97216 0.0
C480 C 0.16534 0.47705 0.82976 0.0
O481 O 0.18953 0.48896 0.82202 0.0
N482 N 0.2168 0.51496 0.94492 0.0
C483 C 0.2655 0.54334 0.97815 0.0
C484 C 0.24853 0.52105 1.00077 0.0
C485 C 0.22411 0.5071 0.98364 0.0
C486 C 0.23298 0.53677 0.92306 0.0
C487 C 0.25727 0.55146 0.93957 0.0
H488 H 0.21171 0.48917 0.99927 0.0
H489 H 0.22732 0.54228 0.89129 0.0
H490 H 0.18791 0.53358 0.98698 0.0
H491 H 0.1673 0.56241 0.87209 0.0
H492 H 0.22689 0.44484 0.87066 0.0
H493 H 0.25438 0.514 0.03016 0.0
H494 H 0.26997 0.5682 0.92035 0.0
C495 C 0.38103 0.80221 0.46787 0.0
C496 C 0.36408 0.77713 0.46584 0.0
N497 N 0.34351 0.77381 0.44277 0.0
N498 N 0.3714 0.81479 0.44598 0.0
C499 C 0.34847 0.79712 0.43154 0.0
H500 H 0.39963 0.81073 0.48266 0.0
Co501 Co 0.38869 0.84903 0.43504 0.0
C502 C 0.35586 0.85364 0.36107 0.0
O503 O 0.35122 0.86845 0.38687 0.0
N504 N 0.40621 0.88345 0.42421 0.0
C505 C 0.42774 0.92077 0.39047 0.0
C506 C 0.41351 0.89551 0.38249 0.0
C507 C 0.41641 0.90166 0.45685 0.0
N508 N 0.42963 0.92454 0.43736 0.0
O509 O 0.36644 0.85258 0.47928 0.0
H510 H 0.40944 0.88649 0.34845 0.0
H511 H 0.41447 0.89827 0.49433 0.0
O512 O 0.36876 0.84465 0.37837 0.0
C513 C 0.37622 0.85311 0.51956 0.0
O514 O 0.39692 0.85203 0.51975 0.0
N515 N 0.4117 0.8453 0.39809 0.0
C516 C 0.44506 0.8298 0.37109 0.0
C517 C 0.421 0.81874 0.3514 0.0
C518 C 0.4046 0.82691 0.36516 0.0
C519 C 0.43569 0.85783 0.41401 0.0
C520 C 0.45286 0.85081 0.39997 0.0
H521 H 0.3854 0.81646 0.35364 0.0
H522 H 0.44106 0.87197 0.44086 0.0
H523 H 0.33597 0.80137 0.41229 0.0
H524 H 0.3673 0.76256 0.47888 0.0
H525 H 0.43667 0.9351 0.36386 0.0
H526 H 0.41395 0.80235 0.32932 0.0
H527 H 0.47144 0.86044 0.415 0.0
C528 C 0.1923 0.53284 0.48454 0.0
C529 C 0.21639 0.53738 0.48149 0.0
N530 N 0.22146 0.53607 0.43588 0.0
N531 N 0.18207 0.52835 0.44107 0.0
C532 C 0.20041 0.5305 0.41215 0.0
H533 H 0.18329 0.53376 0.51641 0.0
Co534 Co 0.15049 0.52325 0.42566 0.0
C535 C 0.13414 0.48681 0.3461 0.0
O536 O 0.11314 0.47214 0.36824 0.0
N537 N 0.1188 0.51854 0.40984 0.0
C538 C 0.08741 0.51717 0.36868 0.0
C539 C 0.1119 0.52271 0.36708 0.0
C540 C 0.09827 0.51092 0.43692 0.0
N541 N 0.07899 0.5099 0.41281 0.0
O542 O 0.13573 0.49258 0.46261 0.0
H543 H 0.12387 0.52918 0.33642 0.0
H544 H 0.09693 0.50557 0.47341 0.0
O545 O 0.15068 0.5067 0.36639 0.0
C546 C 0.13265 0.49797 0.50478 0.0
O547 O 0.13731 0.52076 0.51346 0.0
N548 N 0.1656 0.55441 0.39642 0.0
C549 C 0.19747 0.60478 0.37801 0.0
C550 C 0.19562 0.58658 0.34619 0.0
C551 C 0.17928 0.56133 0.35582 0.0
C552 C 0.16574 0.57186 0.42566 0.0
C553 C 0.18141 0.5972 0.41697 0.0
H554 H 0.1791 0.54755 0.33239 0.0
H555 H 0.15494 0.56598 0.45785 0.0
H556 H 0.19871 0.52864 0.37427 0.0
H557 H 0.22962 0.5426 0.5102 0.0
H558 H 0.07668 0.51849 0.33979 0.0
H559 H 0.20762 0.59176 0.31554 0.0
H560 H 0.18242 0.61059 0.44266 0.0
C561 C 0.49524 0.68211 0.49427 0.0
C562 C 0.49978 0.70564 0.4834 0.0
N563 N 0.49489 0.70617 0.43731 0.0
N564 N 0.4878 0.66794 0.45508 0.0
C565 C 0.4876 0.68308 0.42096 0.0
H566 H 0.4966 0.67562 0.52888 0.0
Co567 Co 0.4791 0.63459 0.45102 0.0
C568 C 0.51638 0.6451 0.37057 0.0
O569 O 0.53391 0.64433 0.39543 0.0
N570 N 0.47061 0.60108 0.44719 0.0
C571 C 0.4507 0.5601 0.45891 0.0
C572 C 0.44808 0.58086 0.45576 0.0
C573 C 0.48652 0.59217 0.445 0.0
N574 N 0.47497 0.56733 0.45247 0.0
O575 O 0.50803 0.64182 0.48998 0.0
H576 H 0.43115 0.58139 0.46245 0.0
H577 H 0.50655 0.60399 0.44274 0.0
O578 O 0.4965 0.64171 0.39069 0.0
C579 C 0.50004 0.63245 0.53099 0.0
O580 O 0.47579 0.61943 0.53778 0.0
N581 N 0.44976 0.62723 0.41903 0.0
C582 C 0.40146 0.61054 0.38685 0.0
C583 C 0.41812 0.60642 0.36013 0.0
C584 C 0.44245 0.6152 0.37669 0.0
C585 C 0.43388 0.63172 0.44485 0.0
C586 C 0.40979 0.62392 0.42903 0.0
H587 H 0.45481 0.61094 0.35706 0.0
H588 H 0.43964 0.64052 0.47901 0.0
H589 H 0.48173 0.67715 0.38507 0.0
H590 H 0.50507 0.72084 0.50797 0.0
H591 H 0.43612 0.54141 0.46786 0.0
H592 H 0.41212 0.59582 0.3277 0.0
H593 H 0.39728 0.62695 0.45111 0.0
H594 H 0.10416 0.10024 0.38635 0.0
H595 H 0.16482 0.1765 0.38149 0.0
H596 H 0.07446 0.11423 0.37399 0.0
H597 H 0.1348 0.19074 0.36969 0.0
H598 H 0.08095 0.19441 0.25851 0.0
H599 H 0.11127 0.18783 0.30072 0.0
H600 H 0.05315 0.13595 0.39397 0.0
H601 H 0.02253 0.14141 0.34994 0.0
C602 C 0.11112 0.12013 0.38473 0.0
C603 C 0.1369 0.13725 0.38432 0.0
C604 C 0.09399 0.12821 0.37754 0.0
C605 C 0.10223 0.15361 0.36996 0.0
C606 C 0.12788 0.17098 0.37429 0.0
C607 C 0.14507 0.16286 0.38127 0.0
C608 C 0.07459 0.18165 0.28806 0.0
C609 C 0.04913 0.16799 0.29987 0.0
C610 C 0.09211 0.1782 0.31293 0.0
C611 C 0.08464 0.16114 0.35055 0.0
C612 C 0.05948 0.14891 0.36467 0.0
C613 C 0.04191 0.15222 0.33954 0.0
H614 H 0.8783 0.92037 0.26451 0.0
H615 H 0.94912 0.94014 0.32771 0.0
H616 H 0.88419 0.96138 0.28517 0.0
H617 H 0.95465 0.9805 0.35121 0.0
H618 H 0.89784 0.03606 0.33137 0.0
H619 H 0.88845 0.99276 0.33912 0.0
H620 H 0.96565 0.01648 0.3081 0.0
H621 H 0.97494 0.05927 0.30266 0.0
C622 C 0.89477 0.93336 0.28409 0.0
C623 C 0.9135 0.92757 0.29387 0.0
C624 C 0.89814 0.95675 0.29629 0.0
C625 C 0.92015 0.97453 0.31921 0.0
C626 C 0.93783 0.96765 0.33237 0.0
C627 C 0.93469 0.94456 0.31921 0.0
C628 C 0.91285 0.03195 0.32783 0.0
C629 C 0.93705 0.05089 0.31592 0.0
C630 C 0.90745 0.00715 0.33165 0.0
C631 C 0.92618 0.00096 0.32368 0.0
C632 C 0.95072 0.02035 0.31506 0.0
C633 C 0.95607 0.04496 0.31147 0.0
H634 H -0.00025 0.8772 0.27149 0.0
H635 H 0.99095 0.89057 0.41795 0.0
H636 H 0.04037 0.91478 0.27018 0.0
H637 H 0.03132 0.92908 0.41537 0.0
H638 H 0.0718 0.01048 0.3457 0.0
H639 H 0.03896 0.96778 0.36275 0.0
H640 H 0.08559 0.93999 0.30849 0.0
H641 H 0.11875 0.98301 0.29212 0.0
C642 C 0.00673 0.88753 0.30399 0.0
C643 C 0.99168 0.88094 0.34466 0.0
C644 C 0.03006 0.90924 0.30301 0.0
C645 C 0.03869 0.92497 0.3424 0.0
C646 C 0.02483 0.91736 0.38433 0.0
C647 C 0.00168 0.89537 0.38564 0.0
C648 C 0.07504 0.99524 0.33774 0.0
C649 C 0.09761 -0.0001 0.31727 0.0
C650 C 0.05645 0.97089 0.34802 0.0
C651 C 0.0599 0.95068 0.33727 0.0
C652 C 0.08261 0.95531 0.31734 0.0
C653 C 0.10147 0.9798 0.30799 0.0
H654 H 0.06968 0.01353 0.76365 0.0
H655 H 0.14575 0.06986 0.79372 0.0
H656 H 0.06082 0.0459 0.73618 0.0
H657 H 0.13681 0.10228 0.76696 0.0
H658 H 0.06477 0.11475 0.6564 0.0
H659 H 0.07714 0.0833 0.66954 0.0
H660 H 0.10423 0.11337 0.80784 0.0
H661 H 0.09053 0.14332 0.79696 0.0
C662 C 0.0845 0.03283 0.76409 0.0
C663 C 0.10833 0.03929 0.78119 0.0
C664 C 0.07952 0.05126 0.74792 0.0
C665 C 0.09816 0.0765 0.74942 0.0
C666 C 0.12216 0.0829 0.76536 0.0
C667 C 0.12727 0.06443 0.78061 0.0
C668 C 0.07325 0.11468 0.68972 0.0
C669 C 0.07675 0.13202 0.72529 0.0
C670 C 0.08047 0.09674 0.697 0.0
C671 C 0.09186 0.09618 0.73949 0.0
C672 C 0.09594 0.11375 0.77441 0.0
C673 C 0.08823 0.13117 0.76773 0.0
H674 H 0.96135 0.10473 0.67786 0.0
H675 H 0.92567 0.08591 0.814 0.0
H676 H 0.93013 0.06358 0.64785 0.0
H677 H 0.89423 0.04503 0.78402 0.0
H678 H 0.83414 0.97739 0.71264 0.0
H679 H 0.85894 0.02276 0.71918 0.0
H680 H 0.92473 0.02052 0.67682 0.0
H681 H 0.9006 0.97537 0.67268 0.0
C682 C 0.94637 0.09203 0.70085 0.0
C683 C 0.94583 0.09829 0.74823 0.0
C684 C 0.92863 0.06856 0.68378 0.0
C685 C 0.90977 0.05126 0.71359 0.0
C686 C 0.90839 0.05816 0.76014 0.0
C687 C 0.92642 0.08138 0.77742 0.0
C688 C 0.85382 0.98655 0.70404 0.0
C689 C 0.8654 0.97253 0.69323 0.0
C690 C 0.86793 0.01253 0.70751 0.0
C691 C 0.89373 0.025 0.699 0.0
C692 C 0.90481 0.01133 0.68328 0.0
C693 C 0.89085 0.98535 0.6807 0.0
H694 H 0.04506 0.9045 0.824 0.0
H695 H 0.05089 0.91727 0.67324 0.0
H696 H 0.00127 0.89175 0.82075 0.0
H697 H 0.00697 0.90604 0.67131 0.0
H698 H 0.95019 0.93279 0.72927 0.0
H699 H 0.98913 0.93253 0.71577 0.0
H700 H 0.95714 0.85989 0.78087 0.0
H701 H 0.91783 0.85999 0.79336 0.0
C702 C 0.03706 0.90387 0.78977 0.0
C703 C 0.05201 0.9123 0.74887 0.0
C704 C 0.01179 0.89666 0.78816 0.0
C705 C 0.00088 0.89816 0.74593 0.0
C706 C 0.01511 0.90494 0.70442 0.0
C707 C 0.04033 0.91157 0.70573 0.0
C708 C 0.95142 0.91666 0.74002 0.0
C709 C 0.93123 0.89651 0.76268 0.0
C710 C 0.97353 0.91637 0.73186 0.0
C711 C 0.97601 0.89613 0.74709 0.0
C712 C 0.95557 0.87563 0.76859 0.0
C713 C 0.9332 0.87568 0.77574 0.0
H714 H 0.74164 0.47994 0.52038 0.0
H715 H 0.68672 0.44323 0.62975 0.0
H716 H 0.76669 0.46313 0.55336 0.0
H717 H 0.7118 0.42637 0.66298 0.0
H718 H 0.74431 0.37144 0.63892 0.0
H719 H 0.72155 0.39404 0.63017 0.0
H720 H 0.79144 0.46369 0.62498 0.0
H721 H 0.81418 0.44105 0.63357 0.0
C722 C 0.73516 0.46856 0.55189 0.0
C723 C 0.71228 0.46284 0.57243 0.0
C724 C 0.74957 0.45913 0.57106 0.0
C725 C 0.74121 0.44349 0.61084 0.0
C726 C 0.71867 0.43838 0.63232 0.0
C727 C 0.70443 0.44814 0.61349 0.0
C728 C 0.75474 0.39163 0.63734 0.0
C729 C 0.78097 0.40449 0.63668 0.0
C730 C 0.74174 0.40458 0.63248 0.0
C731 C 0.75476 0.4306 0.62633 0.0
C732 C 0.78096 0.44361 0.62921 0.0
C733 C 0.79396 0.43068 0.63461 0.0
H734 H 0.63709 0.39196 0.66797 0.0
H735 H 0.56469 0.36016 0.60132 0.0
H736 H 0.63107 0.35031 0.67931 0.0
H737 H 0.55929 0.31869 0.61011 0.0
H738 H 0.62844 0.27972 0.62098 0.0
H739 H 0.63205 0.32041 0.62806 0.0
H740 H 0.55331 0.28536 0.66006 0.0
H741 H 0.54934 0.24463 0.65012 0.0
C742 C 0.61967 0.37606 0.65656 0.0
C743 C 0.60145 0.3794 0.63335 0.0
C744 C 0.61638 0.35219 0.6624 0.0
C745 C 0.59488 0.33114 0.64494 0.0
C746 C 0.57603 0.33441 0.62426 0.0
C747 C 0.57924 0.35824 0.61872 0.0
C748 C 0.61182 0.28059 0.62923 0.0
C749 C 0.58854 0.2587 0.63429 0.0
C750 C 0.61399 0.30402 0.6341 0.0
C751 C 0.59295 0.30622 0.64458 0.0
C752 C 0.56984 0.28437 0.65135 0.0
C753 C 0.56763 0.26092 0.64611 0.0
H754 H 0.65298 0.17194 0.6204 0.0
H755 H 0.658 0.19958 0.76234 0.0
H756 H 0.69724 0.1985 0.61085 0.0
H757 H 0.70291 0.22733 0.75145 0.0
H758 H 0.7642 0.29823 0.6639 0.0
H759 H 0.72589 0.26506 0.69918 0.0
H760 H 0.73972 0.20987 0.63524 0.0
H761 H 0.77787 0.24306 0.59972 0.0
C762 C 0.66349 0.18293 0.65043 0.0
C763 C 0.65152 0.1835 0.6922 0.0
C764 C 0.68912 0.19841 0.6447 0.0
C765 C 0.7036 0.21517 0.68026 0.0
C766 C 0.69213 0.21477 0.72322 0.0
C767 C 0.66637 0.19892 0.7293 0.0
C768 C 0.75944 0.27903 0.6586 0.0
C769 C 0.77369 0.27318 0.62823 0.0
C770 C 0.73753 0.26001 0.67895 0.0
C771 C 0.72959 0.23484 0.66937 0.0
C772 C 0.74512 0.22909 0.64253 0.0
C773 C 0.76689 0.24806 0.62208 0.0
H774 H 0.80491 0.37824 0.99772 0.0
H775 H 0.83297 0.42176 0.12474 0.0
H776 H 0.79706 0.41014 0.96409 0.0
H777 H 0.82523 0.45367 0.09125 0.0
H778 H 0.82099 0.51368 1.01108 0.0
H779 H 0.83727 0.48542 0.02399 0.0
H780 H 0.76515 0.42266 0.98942 0.0
H781 H 0.74855 0.4505 0.97827 0.0
C782 C 0.80996 0.39492 0.01794 0.0
C783 C 0.81948 0.39756 0.06389 0.0
C784 C 0.80534 0.41307 0.99882 0.0
C785 C 0.81057 0.43438 0.02502 0.0
C786 C 0.82129 0.43759 0.07001 0.0
C787 C 0.82552 0.41927 0.08937 0.0
C788 C 0.80867 0.49389 1.00556 0.0
C789 C 0.78331 0.48441 0.99437 0.0
C790 C 0.81804 0.47775 1.01285 0.0
C791 C 0.80239 0.45186 1.00824 0.0
C792 C 0.7777 0.44256 0.99292 0.0
C793 C 0.76822 0.45863 0.98627 0.0
H794 H 0.65276 0.41185 1.01408 0.0
H795 H 0.62197 0.45302 0.08067 0.0
H796 H 0.61093 0.3755 1.00704 0.0
H797 H 0.57987 0.41633 0.07456 0.0
H798 H 0.53289 0.33101 0.13219 0.0
H799 H 0.56494 0.37384 0.1193 0.0
H800 H 0.56595 0.35912 0.97112 0.0
H801 H 0.53248 0.31613 0.98309 0.0
C802 C 0.63689 0.41314 0.0265 0.0
C803 C 0.64043 0.43499 0.04828 0.0
C804 C 0.61298 0.39251 0.02203 0.0
C805 C 0.5922 0.3932 0.0401 0.0
C806 C 0.59561 0.41543 0.06014 0.0
C807 C 0.61956 0.43632 0.06365 0.0
C808 C 0.53881 0.33691 0.09631 0.0
C809 C 0.5302 0.31969 0.0588 0.0
C810 C 0.5574 0.36163 0.08906 0.0
C811 C 0.56811 0.36964 0.04438 0.0
C812 C 0.55811 0.35324 1.00605 0.0
C813 C 0.53909 0.32858 1.01308 0.0
H814 H 0.72835 0.31947 0.02743 0.0
H815 H 0.69858 0.23984 0.03379 0.0
H816 H 0.68684 0.31332 0.04337 0.0
H817 H 0.65706 0.2337 0.05007 0.0
H818 H 0.62371 0.29165 0.15457 0.0
H819 H 0.66253 0.29873 0.11972 0.0
H820 H 0.62131 0.23936 0.02029 0.0
H821 H 0.58222 0.23258 0.05405 0.0
C822 C 0.71279 0.30061 0.03067 0.0
C823 C 0.71668 0.28012 0.02957 0.0
C824 C 0.6891 0.29712 0.04035 0.0
C825 C 0.66884 0.27307 0.04863 0.0
C826 C 0.67233 0.25244 0.04377 0.0
C827 C 0.69607 0.25594 0.03456 0.0
C828 C 0.62271 0.2803 0.12484 0.0
C829 C 0.59959 0.26146 0.10748 0.0
C830 C 0.64506 0.28443 0.10476 0.0
C831 C 0.64492 0.26969 0.0671 0.0
C832 C 0.62194 0.25092 0.04946 0.0
C833 C 0.59952 0.24696 0.06917 0.0
H834 H 0.35879 0.77455 1.00882 0.0
H835 H 0.38251 0.78119 0.86414 0.0
H836 H 0.3931 0.76764 0.03305 0.0
H837 H 0.41702 0.77495 0.88823 0.0
H838 H 0.48873 0.78585 0.95362 0.0
H839 H 0.45748 0.7986 0.94431 0.0
H840 H 0.40215 0.73004 1.00937 0.0
H841 H 0.43294 0.71654 1.01676 0.0
C842 C 0.37161 0.77493 0.98244 0.0
C843 C 0.36811 0.77834 0.93465 0.0
C844 C 0.39108 0.7709 0.99621 0.0
C845 C 0.4077 0.77093 0.96249 0.0
C846 C 0.40459 0.7751 0.91494 0.0
C847 C 0.38483 0.7785 0.90111 0.0
C848 C 0.46998 0.77352 0.96634 0.0
C849 C 0.4633 0.74992 0.98509 0.0
C850 C 0.45216 0.78093 0.96119 0.0
C851 C 0.42743 0.76517 0.9757 0.0
C852 C 0.42117 0.74255 0.99811 0.0
C853 C 0.43889 0.73491 1.00254 0.0
H854 H 0.19766 0.6974 0.02163 0.0
H855 H 0.26852 0.69954 0.0204 0.0
H856 H 0.17594 0.65184 0.02281 0.0
H857 H 0.24711 0.65444 0.02043 0.0
H858 H 0.20778 0.5737 1.0159 0.0
H859 H 0.22106 0.61406 0.05175 0.0
H860 H 0.17026 0.62371 0.96117 0.0
H861 H 0.15595 0.58282 0.92758 0.0
C862 C 0.20856 0.68813 0.02268 0.0
C863 C 0.23476 0.70201 0.02036 0.0
C864 C 0.19616 0.66206 0.02318 0.0
C865 C 0.20973 0.64941 0.02084 0.0
C866 C 0.23596 0.66341 0.02276 0.0
C867 C 0.24832 0.68941 0.02266 0.0
C868 C 0.19882 0.58402 1.00471 0.0
C869 C 0.18122 0.57526 0.9679 0.0
C870 C 0.20663 0.60733 0.02502 0.0
C871 C 0.19717 0.62245 1.00871 0.0
C872 C 0.17798 0.61267 0.97487 0.0
C873 C 0.17002 0.58931 0.95492 0.0
H874 H 0.2964 0.59327 0.99177 0.0
H875 H 0.29542 0.52309 0.98837 0.0
H876 H 0.34204 0.61562 0.99145 0.0
H877 H 0.34108 0.54543 0.98813 0.0
H878 H 0.42586 0.6492 1.0052 0.0
H879 H 0.38258 0.62373 0.03247 0.0
H880 H 0.36812 0.57161 0.91942 0.0
H881 H 0.41114 0.5971 0.8923 0.0
C882 C 0.30599 0.58266 0.99236 0.0
C883 C 0.29245 0.5565 0.98975 0.0
C884 C 0.33208 0.59542 0.99243 0.0
C885 C 0.34504 0.58222 0.98931 0.0
C886 C 0.3315 0.55602 0.99024 0.0
C887 C 0.3054 0.54325 0.99074 0.0
C888 C 0.4135 0.63199 0.987 0.0
C889 C 0.42165 0.62508 0.94655 0.0
C890 C 0.38879 0.61753 1.00241 0.0
C891 C 0.37205 0.5957 0.97811 0.0
C892 C 0.38068 0.58817 0.93919 0.0
C893 C 0.40518 0.60282 0.92338 0.0
H894 H 0.46084 0.70238 0.37311 0.0
H895 H 0.52714 0.75526 0.44778 0.0
H896 H 0.45469 0.73631 0.34553 0.0
H897 H 0.52157 0.78937 0.41923 0.0
H898 H 0.47292 0.82596 0.44161 0.0
H899 H 0.49063 0.7992 0.44546 0.0
H900 H 0.46735 0.77531 0.30224 0.0
H901 H 0.44971 0.80293 0.29777 0.0
C902 C 0.47456 0.72138 0.38224 0.0
C903 C 0.49419 0.72625 0.41326 0.0
C904 C 0.47112 0.74085 0.36631 0.0
C905 C 0.48741 0.76552 0.38087 0.0
C906 C 0.50837 0.77051 0.40828 0.0
C907 C 0.51159 0.75105 0.42462 0.0
C908 C 0.47235 0.81592 0.41002 0.0
C909 C 0.45982 0.81678 0.36927 0.0
C910 C 0.48254 0.80038 0.41236 0.0
C911 C 0.48042 0.78505 0.37418 0.0
C912 C 0.46907 0.78674 0.33243 0.0
C913 C 0.45894 0.80253 0.32993 0.0
H914 H 0.33066 0.72755 0.47594 0.0
H915 H 0.30635 0.7658 0.38037 0.0
H916 H 0.29568 0.68796 0.45178 0.0
H917 H 0.27076 0.72584 0.3577 0.0
H918 H 0.1957 0.64788 0.38865 0.0
H919 H 0.23128 0.69005 0.39987 0.0
H920 H 0.28194 0.66241 0.3748 0.0
H921 H 0.24655 0.62042 0.36364 0.0
C922 C 0.31812 0.72774 0.44963 0.0
C923 C 0.32184 0.75025 0.42996 0.0
C924 C 0.29797 0.70488 0.43581 0.0
C925 C 0.28071 0.70384 0.40247 0.0
C926 C 0.28385 0.72617 0.38348 0.0
C927 C 0.30429 0.74912 0.39677 0.0
C928 C 0.21446 0.65099 0.38453 0.0
C929 C 0.21837 0.63089 0.37528 0.0
C930 C 0.23477 0.67507 0.39083 0.0
C931 C 0.2593 0.67936 0.38871 0.0
C932 C 0.26319 0.65952 0.37705 0.0
C933 C 0.24294 0.63556 0.37014 0.0
H934 H 0.37291 0.63246 0.378 0.0
H935 H 0.36955 0.56122 0.37185 0.0
H936 H 0.32725 0.61133 0.37789 0.0
H937 H 0.32384 0.54002 0.37233 0.0
H938 H 0.24296 0.56449 0.35887 0.0
H939 H 0.28623 0.5809 0.33264 0.0
H940 H 0.29741 0.5398 0.44386 0.0
H941 H 0.25439 0.52379 0.47024 0.0
C942 C 0.36234 0.61232 0.37515 0.0
C943 C 0.37463 0.59843 0.37497 0.0
C944 C 0.33627 0.60023 0.37497 0.0
C945 C 0.32209 0.57406 0.37545 0.0
C946 C 0.33439 0.56022 0.37214 0.0
C947 C 0.36048 0.57233 0.37151 0.0
C948 C 0.25457 0.55857 0.37687 0.0
C949 C 0.24551 0.54294 0.41657 0.0
C950 C 0.27926 0.56801 0.36206 0.0
C951 C 0.29506 0.56151 0.38613 0.0
C952 C 0.28553 0.54485 0.42431 0.0
C953 C 0.26105 0.53585 0.43963 0.0
H954 H 0.41848 0.20947 0.22362 0.0
H955 H 0.379 0.14845 0.12646 0.0
H956 H 0.37877 0.20118 0.25766 0.0
H957 H 0.3393 0.13988 0.16089 0.0
H958 H 0.27104 0.14184 0.21193 0.0
H959 H 0.31107 0.1577 0.17222 0.0
H960 H 0.34715 0.16552 0.30646 0.0
H961 H 0.30722 0.14921 0.34622 0.0
C962 C 0.4013 0.19461 0.20896 0.0
C963 C 0.40177 0.17952 0.17252 0.0
C964 C 0.37861 0.18973 0.2287 0.0
C965 C 0.356 0.16983 0.21204 0.0
C966 C 0.35643 0.15547 0.17419 0.0
C967 C 0.37911 0.16021 0.15478 0.0
C968 C 0.28745 0.14688 0.23309 0.0
C969 C 0.28574 0.14388 0.28236 0.0
C970 C 0.31039 0.15608 0.21027 0.0
C971 C 0.33216 0.16274 0.23625 0.0
C972 C 0.3307 0.16081 0.28557 0.0
C973 C 0.30775 0.15144 0.30838 0.0
H974 H 0.81819 0.23063 0.1625 0.0
H975 H 0.84905 0.22666 0.02864 0.0
H976 H 0.83207 0.20348 0.19761 0.0
H977 H 0.86286 0.19948 0.06365 0.0
H978 H 0.9159 0.18855 0.16441 0.0
H979 H 0.89661 0.21013 0.12684 0.0
H980 H 0.82593 0.15835 0.19072 0.0
H981 H 0.8455 0.13646 0.22842 0.0
C982 C 0.82773 0.22375 0.14055 0.0
C983 C 0.83275 0.23089 0.09297 0.0
C984 C 0.83546 0.20807 0.1605 0.0
C985 C 0.84862 0.19954 0.13334 0.0
C986 C 0.85285 0.20595 0.08537 0.0
C987 C 0.84483 0.22135 0.06529 0.0
C988 C 0.8963 0.18191 0.17079 0.0
C989 C 0.88219 0.16112 0.19984 0.0
C990 C 0.8852 0.19405 0.14882 0.0
C991 C 0.85978 0.18581 0.15576 0.0
C992 C 0.84559 0.16505 0.18496 0.0
C993 C 0.85668 0.15258 0.2064 0.0
H994 H 0.78575 0.60381 0.16243 0.0
H995 H 0.78408 0.6491 0.04803 0.0
H996 H 0.80885 0.64106 0.21054 0.0
H997 H 0.80728 0.68631 0.09604 0.0
H998 H 0.86911 0.75006 0.17781 0.0
H999 H 0.84865 0.71206 0.13109 0.0
H1000 H 0.80177 0.6724 0.24983 0.0
H1001 H 0.82225 0.71053 0.29662 0.0
C1002 C 0.79016 0.62166 0.14758 0.0
C1003 C 0.78296 0.62343 0.10133 0.0
C1004 C 0.80345 0.64301 0.17517 0.0
C1005 C 0.8099 0.66662 0.1571 0.0
C1006 C 0.80294 0.66842 0.11074 0.0
C1007 C 0.78963 0.64708 0.08318 0.0
C1008 C 0.8544 0.73327 0.19395 0.0
C1009 C 0.84712 0.73339 0.24081 0.0
C1010 C 0.84268 0.71149 0.16716 0.0
C1011 C 0.82344 0.6893 0.18662 0.0
C1012 C 0.8167 0.68917 0.23396 0.0
C1013 C 0.82844 0.711 0.26079 0.0
H1014 H 0.10816 0.30812 0.70668 0.0
H1015 H 0.09404 0.27263 0.84331 0.0
H1016 H 0.13595 0.34831 0.74318 0.0
H1017 H 0.12147 0.31281 0.87965 0.0
H1018 H 0.14606 0.39395 0.92714 0.0
H1019 H 0.12105 0.35224 0.89362 0.0
H1020 H 0.17661 0.37069 0.78529 0.0
H1021 H 0.20125 0.41243 0.81809 0.0
C1022 C 0.11113 0.3088 0.74435 0.0
C1023 C 0.09865 0.28711 0.77199 0.0
C1024 C 0.12706 0.33183 0.76527 0.0
C1025 C 0.13082 0.33368 0.81429 0.0
C1026 C 0.11864 0.312 0.84188 0.0
C1027 C 0.10282 0.28897 0.82097 0.0
C1028 C 0.15297 0.38897 0.89641 0.0
C1029 C 0.17558 0.40647 0.87529 0.0
C1030 C 0.13876 0.36509 0.87739 0.0
C1031 C 0.14682 0.35829 0.83665 0.0
C1032 C 0.16981 0.37552 0.81639 0.0
C1033 C 0.18408 0.39932 0.83558 0.0
H1034 H 0.61385 0.72713 0.88794 0.0
H1035 H 0.62933 0.79476 0.95992 0.0
H1036 H 0.65479 0.74889 0.85105 0.0
H1037 H 0.67053 0.81673 0.92273 0.0
H1038 H 0.75105 0.84116 0.87583 0.0
H1039 H 0.71156 0.81913 0.91849 0.0
H1040 H 0.6744 0.78077 0.79051 0.0
H1041 H 0.71388 0.80201 0.74844 0.0
C1042 C 0.626 0.7467 0.89576 0.0
C1043 C 0.61824 0.75934 0.92631 0.0
C1044 C 0.64946 0.75917 0.87461 0.0
C1045 C 0.66576 0.78461 0.88344 0.0
C1046 C 0.65843 0.79708 0.91542 0.0
C1047 C 0.63487 0.78453 0.93672 0.0
C1048 C 0.73451 0.82784 0.85693 0.0
C1049 C 0.73566 0.82329 0.8087 0.0
C1050 C 0.71184 0.81543 0.88128 0.0
C1051 C 0.68989 0.79813 0.85794 0.0
C1052 C 0.69104 0.79372 0.80969 0.0
C1053 C 0.71364 0.80614 0.7854 0.0
H1054 H 0.2444 0.84225 0.84892 0.0
H1055 H 0.23511 0.86149 0.99094 0.0
H1056 H 0.22805 0.86797 0.81808 0.0
H1057 H 0.21828 0.88667 0.95989 0.0
H1058 H 0.17058 0.91427 0.88862 0.0
H1059 H 0.18177 0.88342 0.91468 0.0
H1060 H 0.24349 0.91389 0.81676 0.0
H1061 H 0.23209 0.94443 0.79043 0.0
C1062 C 0.23895 0.85193 0.87366 0.0
C1063 C 0.24136 0.84988 0.92256 0.0
C1064 C 0.22945 0.86658 0.85589 0.0
C1065 C 0.2219 0.87932 0.88657 0.0
C1066 C 0.22363 0.87678 0.93539 0.0
C1067 C 0.23331 0.8623 0.95318 0.0
C1068 C 0.18623 0.91403 0.87211 0.0
C1069 C 0.20055 0.93178 0.83764 0.0
C1070 C 0.19277 0.89656 0.88731 0.0
C1071 C 0.21357 0.89634 0.8679 0.0
C1072 C 0.22727 0.91349 0.83214 0.0
C1073 C 0.22089 0.93109 0.81734 0.0
H1074 H 0.94099 0.47963 0.55439 0.0
H1075 H 0.92914 0.41038 0.49531 0.0
H1076 H 0.98324 0.50144 0.52023 0.0
H1077 H 0.97092 0.43195 0.46121 0.0
H1078 H 0.03562 0.48335 0.36543 0.0
H1079 H 0.99339 0.46568 0.39752 0.0
H1080 H 0.02415 0.49924 0.53236 0.0
H1081 H 0.06639 0.5169 0.50021 0.0
C1082 C 0.94751 0.46917 0.53424 0.0
C1083 C 0.93207 0.44336 0.528 0.0
C1084 C 0.97155 0.48154 0.51482 0.0
C1085 C 0.98021 0.46834 0.48798 0.0
C1086 C 0.96462 0.44259 0.48143 0.0
C1087 C 0.94086 0.43021 0.50143 0.0
C1088 C 0.03331 0.48725 0.40167 0.0
C1089 C 0.05421 0.50133 0.43045 0.0
C1090 C 0.00922 0.47703 0.42009 0.0
C1091 C 0.0056 0.48104 0.46743 0.0
C1092 C 0.02646 0.49598 0.4957 0.0
C1093 C 0.05056 0.50588 0.47746 0.0
H1094 H 0.51759 0.57377 0.41329 0.0
H1095 H 0.46028 0.52919 0.51449 0.0
H1096 H 0.54133 0.55378 0.43747 0.0
H1097 H 0.4837 0.50887 0.53798 0.0
H1098 H 0.55089 0.50949 0.6118 0.0
H1099 H 0.52372 0.52412 0.58151 0.0
H1100 H 0.54059 0.51298 0.43913 0.0
H1101 H 0.56749 0.49781 0.4693 0.0
C1102 C 0.50993 0.55946 0.44021 0.0
C1103 C 0.48715 0.55315 0.46211 0.0
C1104 C 0.52341 0.54789 0.45382 0.0
C1105 C 0.51445 0.5299 0.48988 0.0
C1106 C 0.49119 0.52288 0.51046 0.0
C1107 C 0.47764 0.53432 0.49661 0.0
C1108 C 0.54858 0.50973 0.57406 0.0
C1109 C 0.56154 0.50249 0.54311 0.0
C1110 C 0.53296 0.51814 0.5567 0.0
C1111 C 0.53 0.51966 0.50795 0.0
C1112 C 0.54273 0.51225 0.47689 0.0
C1113 C 0.55823 0.50365 0.49426 0.0
H1114 H 0.44063 0.97028 0.40582 0.0
H1115 H 0.44999 0.93198 0.52462 0.0
H1116 H 0.46184 0.00949 0.44929 0.0
H1117 H 0.47097 0.97105 0.56803 0.0
H1118 H 0.47401 0.03741 0.64817 0.0
H1119 H 0.45773 -0.00115 0.60322 0.0
H1120 H 0.50271 0.04044 0.48388 0.0
H1121 H 0.51851 0.07914 0.52865 0.0
C1122 C 0.44747 0.97026 0.44093 0.0
C1123 C 0.44332 0.94793 0.46193 0.0
C1124 C 0.45965 0.99272 0.4658 0.0
C1125 C 0.46791 0.99329 0.51217 0.0
C1126 C 0.46441 0.9711 0.53264 0.0
C1127 C 0.45229 0.94869 0.5078 0.0
C1128 C 0.48046 0.03826 0.6124 0.0
C1129 C 0.49748 0.06124 0.59194 0.0
C1130 C 0.47133 0.01619 0.5868 0.0
C1131 C 0.47895 0.01664 0.54001 0.0
C1132 C 0.49637 0.03957 0.51976 0.0
C1133 C 0.50564 0.06167 0.54556 0.0
H1134 H 0.19738 0.01207 0.42213 0.0
H1135 H 0.19032 0.0764 0.45402 0.0
H1136 H 0.19482 0.00231 0.50583 0.0
H1137 H 0.18865 0.06725 0.53783 0.0
H1138 H 0.15922 0.02678 0.68162 0.0
H1139 H 0.16428 0.0406 0.59942 0.0
H1140 H 0.21623 0.01411 0.57722 0.0
H1141 H 0.21018 -0.00056 0.65826 0.0
C1142 C 0.19549 0.02427 0.44702 0.0
C1143 C 0.19392 0.04493 0.43112 0.0
C1144 C 0.19421 0.0188 0.49529 0.0
C1145 C 0.19167 0.03405 0.52923 0.0
C1146 C 0.19023 0.05481 0.51313 0.0
C1147 C 0.19126 0.06011 0.46484 0.0
C1148 C 0.17216 0.02451 0.65935 0.0
C1149 C 0.18429 0.01203 0.67639 0.0
C1150 C 0.17503 0.03233 0.61203 0.0
C1151 C 0.19032 0.02807 0.58089 0.0
C1152 C 0.20367 0.01705 0.59928 0.0
C1153 C 0.20051 0.00895 0.6461 0.0
H1154 H 0.00204 0.23932 0.61629 0.0
H1155 H 0.99157 0.16496 0.6187 0.0
H1156 H -0.00572 0.2358 0.53152 0.0
H1157 H 0.98383 0.16147 0.53377 0.0
H1158 H 0.94909 0.15526 0.38781 0.0
H1159 H 0.9538 0.15871 0.47315 0.0
H1160 H 0.01483 0.2342 0.4582 0.0
H1161 H 0.01025 0.23068 0.37259 0.0
C1162 C -0.00213 0.2221 0.5989 0.0
C1163 C -0.00255 0.20242 0.62468 0.0
C1164 C 0.99361 0.22017 0.55006 0.0
C1165 C 0.9885 0.19839 0.52545 0.0
C1166 C 0.98748 0.17846 0.55141 0.0
C1167 C 0.99201 0.18049 0.60023 0.0
C1168 C 0.96347 0.17265 0.40246 0.0
C1169 C 0.97935 0.1926 0.37275 0.0
C1170 C 0.96626 0.17459 0.45167 0.0
C1171 C 0.98482 0.19667 0.4729 0.0
C1172 C 0.0002 0.21693 0.44333 0.0
C1173 C -0.00242 0.21489 0.39404 0.0
H1174 H 0.79346 0.79487 0.6398 0.0
H1175 H 0.86461 0.8631 0.64461 0.0
H1176 H 0.7985 0.79187 0.5551 0.0
H1177 H 0.86921 0.86073 0.56002 0.0
H1178 H 0.88238 0.83739 0.41644 0.0
H1179 H 0.8771 0.83914 0.50051 0.0
H1180 H 0.79804 0.80988 0.48022 0.0
H1181 H 0.80345 0.80786 0.39513 0.0
C1182 C 0.81026 0.80919 0.62292 0.0
C1183 C 0.82857 0.82931 0.6493 0.0
C1184 C 0.813 0.80765 0.57406 0.0
C1185 C 0.83419 0.82614 0.55012 0.0
C1186 C 0.85271 0.84595 0.57686 0.0
C1187 C 0.84998 0.84745 0.6256 0.0
C1188 C 0.86392 0.83181 0.42944 0.0
C1189 C 0.84347 0.823 0.39839 0.0
C1190 C 0.86084 0.83272 0.47813 0.0
C1191 C 0.83716 0.82485 0.49774 0.0
C1192 C 0.81657 0.8159 0.46675 0.0
C1193 C 0.81968 0.81491 0.41778 0.0
H1194 H 0.83917 0.34897 0.94495 0.0
H1195 H 0.89089 0.32134 0.94309 0.0
H1196 H 0.84348 0.35497 0.85985 0.0
H1197 H 0.89552 0.32772 0.85794 0.0
H1198 H 0.87004 0.31139 0.70104 0.0
H1199 H 0.87102 0.30934 0.78683 0.0
H1200 H 0.87161 0.3792 0.79642 0.0
H1201 H 0.87056 0.38122 0.71075 0.0
C1202 C 0.85168 0.34441 0.92655 0.0
C1203 C 0.86456 0.33453 0.95117 0.0
C1204 C 0.85429 0.348 0.87758 0.0
C1205 C 0.86977 0.34173 0.85165 0.0
C1206 C 0.88316 0.33246 0.87647 0.0
C1207 C 0.88067 0.329 0.92551 0.0
C1208 C 0.87072 0.32651 0.72132 0.0
C1209 C 0.86999 0.34637 0.69859 0.0
C1210 C 0.87134 0.32536 0.77072 0.0
C1211 C 0.87116 0.34399 0.7989 0.0
C1212 C 0.8713 0.36427 0.77609 0.0
C1213 C 0.87081 0.36548 0.72674 0.0
H1214 H 0.65019 0.53466 0.93456 0.0
H1215 H 0.71723 0.53072 0.91363 0.0
H1216 H 0.64394 0.53313 0.84931 0.0
H1217 H 0.71132 0.52966 0.8288 0.0
H1218 H 0.67893 0.5007 0.68178 0.0
H1219 H 0.68652 0.50398 0.76632 0.0
H1220 H 0.65873 0.55539 0.77685 0.0
H1221 H 0.65028 0.55135 0.69237 0.0
C1222 C 0.66366 0.53356 0.91186 0.0
C1223 C 0.68406 0.53252 0.93134 0.0
C1224 C 0.66018 0.53284 0.86276 0.0
C1225 C 0.67705 0.53118 0.83161 0.0
C1226 C 0.6976 0.53043 0.85127 0.0
C1227 C 0.70102 0.53108 0.90024 0.0
C1228 C 0.67448 0.51278 0.70198 0.0
C1229 C 0.66377 0.52558 0.67991 0.0
C1230 C 0.67902 0.51482 0.75071 0.0
C1231 C 0.67311 0.52984 0.77906 0.0
C1232 C 0.66311 0.54326 0.75668 0.0
C1233 C 0.65854 0.54118 0.7079 0.0
H1234 H 0.49955 0.12196 0.79565 0.0
H1235 H 0.54611 0.20051 0.76669 0.0
H1236 H 0.49002 0.13147 0.87366 0.0
H1237 H 0.53687 0.21017 0.84589 0.0
H1238 H 0.53636 0.21046 1.01348 0.0
H1239 H 0.54604 0.20171 0.9341 0.0
H1240 H 0.4674 0.15303 0.90788 0.0
H1241 H 0.45779 0.16205 0.98628 0.0
C1242 C 0.50743 0.14133 0.80581 0.0
C1243 C 0.52331 0.16051 0.77492 0.0
C1244 C 0.50206 0.14676 0.85057 0.0
C1245 C 0.51286 0.17154 0.86612 0.0
C1246 C 0.52847 0.19087 0.83498 0.0
C1247 C 0.53346 0.1854 0.7895 0.0
C1248 C 0.52124 0.19751 0.99104 0.0
C1249 C 0.49633 0.18669 1.00628 0.0
C1250 C 0.52674 0.19282 0.94538 0.0
C1251 C 0.50745 0.17684 0.9146 0.0
C1252 C 0.48267 0.1654 0.93069 0.0
C1253 C 0.47718 0.17046 0.9757 0.0
H1254 H 0.54901 0.64086 0.31075 0.0
H1255 H 0.48946 0.65803 0.31191 0.0
H1256 H 0.55209 0.64584 0.2254 0.0
H1257 H 0.49336 0.66443 0.2272 0.0
H1258 H 0.49038 0.65543 0.06897 0.0
H1259 H 0.48604 0.64693 0.15335 0.0
H1260 H 0.56514 0.67301 0.16274 0.0
H1261 H 0.56901 0.6801 0.07822 0.0
C1262 C 0.53677 0.64602 0.29286 0.0
C1263 C 0.51902 0.64906 0.31845 0.0
C1264 C 0.5386 0.64904 0.24366 0.0
C1265 C 0.523 0.6556 0.21851 0.0
C1266 C 0.50541 0.65885 0.24449 0.0
C1267 C 0.50332 0.65542 0.2935 0.0
C1268 C 0.50677 0.65907 0.08903 0.0
C1269 C 0.53001 0.66836 0.06654 0.0
C1270 C 0.50438 0.65444 0.13778 0.0
C1271 C 0.52525 0.65938 0.1658 0.0
C1272 C 0.54844 0.66845 0.14291 0.0
C1273 C 0.55072 0.67267 0.0941 0.0
H1274 H 0.33651 0.81392 0.06108 0.0
H1275 H 0.3285 0.87918 0.06817 0.0
H1276 H 0.3426 0.81549 0.14575 0.0
H1277 H 0.33616 0.88176 0.15282 0.0
H1278 H 0.32514 0.86579 0.31111 0.0
H1279 H 0.31845 0.86377 0.22597 0.0
H1280 H 0.36906 0.83531 0.20849 0.0
H1281 H 0.37485 0.83645 0.29302 0.0
C1282 C 0.33624 0.82877 0.08057 0.0
C1283 C 0.33159 0.84617 0.05746 0.0
C1284 C 0.34004 0.82987 0.12946 0.0
C1285 C 0.33972 0.84866 0.15695 0.0
C1286 C 0.336 0.86664 0.13346 0.0
C1287 C 0.33195 0.86538 0.08454 0.0
C1288 C 0.33461 0.85884 0.28908 0.0
C1289 C 0.35032 0.85102 0.30937 0.0
C1290 C 0.33099 0.85792 0.23999 0.0
C1291 C 0.34321 0.8494 0.20962 0.0
C1292 C 0.35885 0.84152 0.2302 0.0
C1293 C 0.36223 0.8422 0.27913 0.0
H1294 H 0.17587 0.51088 0.28977 0.0
H1295 H 0.09823 0.45337 0.28595 0.0
H1296 H 0.17885 0.50664 0.20481 0.0
H1297 H 0.10128 0.44896 0.20115 0.0
H1298 H 0.10935 0.47235 0.04306 0.0
H1299 H 0.10582 0.47259 0.12874 0.0
H1300 H 0.17813 0.47865 0.14297 0.0
H1301 H 0.18164 0.47838 0.05755 0.0
C1302 C 0.15947 0.49717 0.27098 0.0
C1303 C 0.13679 0.48256 0.29502 0.0
C1304 C 0.16121 0.49463 0.22213 0.0
C1305 C 0.14026 0.47753 0.19574 0.0
C1306 C 0.11773 0.46256 0.22 0.0
C1307 C 0.11605 0.46495 0.26887 0.0
C1308 C 0.1244 0.47343 0.06436 0.0
C1309 C 0.14586 0.47546 0.04288 0.0
C1310 C 0.12234 0.47351 0.11369 0.0
C1311 C 0.14177 0.47583 0.14312 0.0
C1312 C 0.16294 0.47723 0.12165 0.0
C1313 C 0.16488 0.47691 0.07238 0.0
H1314 H 0.21911 0.09842 0.1485 0.0
H1315 H 0.17626 0.02295 0.19977 0.0
H1316 H 0.21885 0.08316 0.06944 0.0
H1317 H 0.17487 0.00734 0.12 0.0
H1318 H 0.18338 0.98324 0.97618 0.0
H1319 H 0.19394 0.00086 0.055 0.0
H1320 H 0.19171 0.06585 1.00574 0.0
H1321 H 0.18219 0.0484 0.92613 0.0
C1322 C 0.20992 0.07845 0.14286 0.0
C1323 C 0.1978 0.06186 0.18038 0.0
C1324 C 0.20946 0.06967 0.09726 0.0
C1325 C 0.19646 0.04395 0.08751 0.0
C1326 C 0.18535 0.02729 0.12577 0.0
C1327 C 0.18615 0.03615 0.17174 0.0
C1328 C 0.18571 0.00158 0.98202 0.0
C1329 C 0.182 0.01446 0.94487 0.0
C1330 C 0.19147 0.01158 0.02751 0.0
C1331 C 0.19331 0.03467 0.03758 0.0
C1332 C 0.19075 0.04814 0.9997 0.0
C1333 C 0.18532 0.03821 0.95381 0.0
H1334 H -0.00014 0.2196 0.13563 0.0
H1335 H 0.93246 0.15662 0.08282 0.0
H1336 H 0.01085 0.23619 0.05529 0.0
H1337 H 0.94378 0.17185 1.00326 0.0
H1338 H 0.96764 0.19515 0.8577 0.0
H1339 H 0.95213 0.19555 0.937 0.0
H1340 H 0.02737 0.22757 0.99132 0.0
H1341 H 0.04253 0.22851 0.91276 0.0
C1342 C 0.98707 0.20968 0.10709 0.0
C1343 C 0.96548 0.18665 0.11556 0.0
C1344 C 0.99352 0.21889 0.06068 0.0
C1345 C 0.97867 0.2051 0.0217 0.0
C1346 C 0.95588 0.1833 0.0314 0.0
C1347 C 0.9494 0.17435 0.07746 0.0
C1348 C 0.98085 0.20318 0.88643 0.0
C1349 C 0.00625 0.2115 0.87894 0.0
C1350 C 0.97198 0.20304 0.93229 0.0
C1351 C 0.98828 0.21095 0.97169 0.0
C1352 C 0.01397 0.22138 0.96281 0.0
C1353 C 0.02275 0.22173 0.91731 0.0
H1354 H 0.84003 0.81721 0.88399 0.0
H1355 H 0.82311 0.87112 0.9437 0.0
H1356 H 0.84319 0.80368 0.96387 0.0
H1357 H 0.82721 0.85864 0.02216 0.0
H1358 H 0.82942 0.83012 0.16548 0.0
H1359 H 0.81422 0.83109 0.08594 0.0
H1360 H 0.87146 0.81876 0.02655 0.0
H1361 H 0.88563 0.81678 0.10478 0.0
C1362 C 0.83671 0.82596 0.91395 0.0
C1363 C 0.83166 0.84548 0.90715 0.0
C1364 C 0.83872 0.8184 0.95993 0.0
C1365 C 0.83575 0.8302 1.00014 0.0
C1366 C 0.82938 0.84877 0.99277 0.0
C1367 C 0.82733 0.85619 0.94725 0.0
C1368 C 0.83832 0.82709 0.13538 0.0
C1369 C 0.85897 0.82374 0.14176 0.0
C1370 C 0.8298 0.82787 0.08959 0.0
C1371 C 0.84175 0.82533 0.04914 0.0
C1372 C 0.86146 0.82056 0.05615 0.0
C1373 C 0.86984 0.81972 0.10151 0.0
H1374 H 0.83855 0.28745 0.23502 0.0
H1375 H 0.88544 0.36282 0.1859 0.0
H1376 H 0.85287 0.30017 0.31474 0.0
H1377 H 0.90114 0.37577 0.26632 0.0
H1378 H 0.87914 0.39325 0.41218 0.0
H1379 H 0.88429 0.38352 0.33209 0.0
H1380 H 0.87859 0.31445 0.37979 0.0
H1381 H 0.87209 0.32401 0.46062 0.0
C1382 C 0.85278 0.3067 0.24112 0.0
C1383 C 0.86059 0.32419 0.2042 0.0
C1384 C 0.86121 0.31405 0.2872 0.0
C1385 C 0.87787 0.33923 0.29797 0.0
C1386 C 0.88777 0.35631 0.25996 0.0
C1387 C 0.87913 0.34888 0.21353 0.0
C1388 C 0.87966 0.37626 0.40579 0.0
C1389 C 0.87481 0.35922 0.44263 0.0
C1390 C 0.88281 0.37069 0.35951 0.0
C1391 C 0.88132 0.34783 0.34848 0.0
C1392 C 0.87915 0.33194 0.38637 0.0
C1393 C 0.87583 0.33753 0.433 0.0
H1394 H 0.66158 0.52893 0.16364 0.0
H1395 H 0.73061 0.54107 0.22519 0.0
H1396 H 0.64595 0.52971 0.24289 0.0
H1397 H 0.71502 0.54072 0.30297 0.0
H1398 H 0.68755 0.54255 0.44471 0.0
H1399 H 0.70315 0.55671 0.36468 0.0
H1400 H 0.63066 0.50372 0.30842 0.0
H1401 H 0.6151 0.49085 0.38758 0.0
C1402 C 0.67352 0.5321 0.19384 0.0
C1403 C 0.69719 0.53455 0.18787 0.0
C1404 C 0.66453 0.53231 0.23948 0.0
C1405 C 0.67903 0.53501 0.28013 0.0
C1406 C 0.70322 0.53891 0.27331 0.0
C1407 C 0.71211 0.53876 0.22819 0.0
C1408 C 0.67482 0.53462 0.41526 0.0
C1409 C 0.65018 0.51536 0.42268 0.0
C1410 C 0.6838 0.54242 0.36911 0.0
C1411 C 0.66842 0.53099 0.32929 0.0
C1412 C 0.64324 0.51319 0.33745 0.0
C1413 C 0.6343 0.5056 0.38327 0.0
H1414 H 0.47301 0.20098 0.30849 0.0
H1415 H 0.52472 0.18015 0.252 0.0
H1416 H 0.47682 0.1867 0.38614 0.0
H1417 H 0.52936 0.16653 0.33057 0.0
H1418 H 0.51483 0.18965 0.52839 0.0
H1419 H 0.50467 0.19852 0.4499 0.0
H1420 H 0.51168 0.13766 0.39261 0.0
H1421 H 0.52263 0.1296 0.47041 0.0
C1422 C 0.48519 0.19321 0.31266 0.0
C1423 C 0.49865 0.19179 0.27397 0.0
C1424 C 0.48754 0.1852 0.3575 0.0
C1425 C 0.50366 0.17572 0.36534 0.0
C1426 C 0.51652 0.17346 0.32614 0.0
C1427 C 0.51392 0.18128 0.28093 0.0
C1428 C 0.51358 0.17786 0.49916 0.0
C1429 C 0.51953 0.15896 0.5056 0.0
C1430 C 0.50784 0.18294 0.45395 0.0
C1431 C 0.50766 0.16904 0.41427 0.0
C1432 C 0.51225 0.14924 0.42166 0.0
C1433 C 0.51824 0.1444 0.46653 0.0
H1434 H 0.57186 0.70516 0.7931 0.0
H1435 H 0.50313 0.63765 0.82407 0.0
H1436 H 0.57104 0.69084 0.71275 0.0
H1437 H 0.5013 0.62362 0.74325 0.0
H1438 H 0.53583 0.67842 0.56277 0.0
H1439 H 0.54949 0.68858 0.64439 0.0
H1440 H 0.51322 0.60993 0.6778 0.0
H1441 H 0.49847 0.60013 0.59676 0.0
C1442 C 0.55702 0.68677 0.78305 0.0
C1443 C 0.5378 0.6723 0.81508 0.0
C1444 C 0.55623 0.67873 0.7366 0.0
C1445 C 0.53583 0.65623 0.72048 0.0
C1446 C 0.51754 0.64092 0.75386 0.0
C1447 C 0.51859 0.64883 0.80062 0.0
C1448 C 0.53162 0.66336 0.58719 0.0
C1449 C 0.5161 0.6385 0.57334 0.0
C1450 C 0.53937 0.66912 0.63437 0.0
C1451 C 0.53205 0.65011 0.66868 0.0
C1452 C 0.51864 0.62518 0.65323 0.0
C1453 C 0.51055 0.6195 0.60642 0.0
H1454 H 0.28034 0.80967 0.76301 0.0
H1455 H 0.35237 0.86017 0.82345 0.0
H1456 H 0.29737 0.82154 0.68467 0.0
H1457 H 0.36949 0.8733 0.74394 0.0
H1458 H 0.39857 0.86014 0.60469 0.0
H1459 H 0.38173 0.85771 0.68207 0.0
H1460 H 0.31353 0.84802 0.6202 0.0
H1461 H 0.33037 0.84932 0.54123 0.0
C1462 C 0.29984 0.8238 0.75965 0.0
C1463 C 0.31505 0.83364 0.79994 0.0
C1464 C 0.30962 0.83086 0.71419 0.0
C1465 C 0.33501 0.84823 0.7071 0.0
C1466 C 0.34995 0.85938 0.74754 0.0
C1467 C 0.34012 0.8521 0.79338 0.0
C1468 C 0.37997 0.85761 0.60711 0.0
C1469 C 0.36573 0.85456 0.56621 0.0
C1470 C 0.37035 0.85654 0.65211 0.0
C1471 C 0.34611 0.85258 0.6583 0.0
C1472 C 0.33214 0.85065 0.61728 0.0
C1473 C 0.34182 0.85158 0.57178 0.0
H1474 H 0.16048 0.47794 0.5362 0.0
H1475 H 0.09564 0.48376 0.56888 0.0
H1476 H 0.16178 0.4655 0.61717 0.0
H1477 H 0.09579 0.46996 0.64936 0.0
H1478 H 0.13212 0.49074 0.79832 0.0
H1479 H 0.11838 0.48809 0.71696 0.0
H1480 H 0.14898 0.4406 0.68357 0.0
H1481 H 0.16388 0.44469 0.76444 0.0
C1482 C 0.14565 0.47516 0.5601 0.0
C1483 C 0.12776 0.48146 0.546 0.0
C1484 C 0.14641 0.46815 0.60696 0.0
C1485 C 0.12911 0.46704 0.64084 0.0
C1486 C 0.10987 0.47119 0.62515 0.0
C1487 C 0.10943 0.47862 0.57861 0.0
C1488 C 0.13498 0.47894 0.77399 0.0
C1489 C 0.14888 0.46776 0.78786 0.0
C1490 C 0.1272 0.47744 0.72693 0.0
C1491 C 0.13291 0.46448 0.69265 0.0
C1492 C 0.14478 0.45137 0.70808 0.0
C1493 C 0.15292 0.45327 0.75482 0.0
loop_
_geom_bond_atom_site_label_1
_geom_bond_atom_site_label_2
_geom_bond_distance
_geom_bond_site_symmetry_2
_ccdc_geom_bond_type
C0 C1 1.351 . S
C0 N3 1.368 . S
C0 H5 0.931 . S
C1 C0 1.351 . S
C1 N2 1.373 . S
C1 H29 0.930 . S
N2 C1 1.373 . S
N2 C4 1.340 . S
N3 C0 1.368 . S
N3 C4 1.321 . S
N3 Co6 2.135 1_565 S
C4 N2 1.340 . S
C4 N3 1.321 . S
C4 H28 0.930 . S
H5 C0 0.931 . S
Co6 N3 2.135 1_545 S
Co6 N9 2.121 . S
Co6 O14 2.037 1_545 S
Co6 O17 2.039 . S
Co6 N20 2.140 . S
C7 O8 1.227 . S
C7 O17 1.265 . S
O8 C7 1.227 . S
N9 Co6 2.121 . S
N9 C11 1.375 . S
N9 C12 1.313 . S
C10 C11 1.338 . S
C10 N13 1.377 . S
C10 H30 0.930 . S
C11 N9 1.375 . S
C11 C10 1.338 . S
C11 H15 0.931 . S
C12 N9 1.313 . S
C12 N13 1.344 . S
C12 H16 0.930 . S
N13 C10 1.377 . S
N13 C12 1.344 . S
O14 Co6 2.037 1_565 S
O14 C18 1.238 1_565 S
H15 C11 0.931 . S
H16 C12 0.930 . S
O17 Co6 2.039 . S
O17 C7 1.265 . S
C18 O14 1.238 1_545 S
C18 O19 1.227 . S
O19 C18 1.227 . S
N20 Co6 2.140 . S
N20 C23 1.346 . S
N20 C24 1.345 . S
C21 C22 1.387 . S
C21 C25 1.391 . S
C22 C21 1.387 . S
C22 C23 1.369 . S
C22 H31 0.929 . S
C23 N20 1.346 . S
C23 C22 1.369 . S
C23 H26 0.928 . S
C24 N20 1.345 . S
C24 C25 1.371 . S
C24 H27 0.931 . S
C25 C21 1.391 . S
C25 C24 1.371 . S
C25 H32 0.930 . S
H26 C23 0.928 . S
H27 C24 0.931 . S
H28 C4 0.930 . S
H29 C1 0.930 . S
H30 C10 0.930 . S
H31 C22 0.929 . S
H32 C25 0.930 . S
C33 C34 1.351 . S
C33 N36 1.368 . S
C33 H38 0.931 . S
C34 C33 1.351 . S
C34 N35 1.373 . S
C34 H62 0.930 . S
N35 C34 1.373 . S
N35 C37 1.340 . S
N36 C33 1.368 . S
N36 C37 1.321 . S
N36 Co39 2.135 . S
C37 N35 1.340 . S
C37 N36 1.321 . S
C37 H61 0.930 . S
H38 C33 0.931 . S
Co39 N36 2.135 . S
Co39 N42 2.121 1_455 S
Co39 O47 2.055 . S
Co39 O50 2.039 . S
Co39 N53 2.140 1_455 S
C40 O41 1.227 . S
C40 O50 1.265 . S
O41 C40 1.227 . S
N42 Co39 2.121 1_655 S
N42 C44 1.375 . S
N42 C45 1.313 . S
C43 C44 1.338 . S
C43 N46 1.377 . S
C43 H63 0.930 . S
C44 N42 1.375 . S
C44 C43 1.338 . S
C44 H48 0.931 . S
C45 N42 1.313 . S
C45 N46 1.344 . S
C45 H49 0.930 . S
N46 C43 1.377 . S
N46 C45 1.344 . S
O47 Co39 2.055 . S
O47 C51 1.253 . S
H48 C44 0.931 . S
H49 C45 0.930 . S
O50 Co39 2.039 . S
O50 C40 1.265 . S
C51 O47 1.253 . S
C51 O52 1.236 . S
O52 C51 1.236 . S
N53 Co39 2.140 1_655 S
N53 C56 1.346 . S
N53 C57 1.345 . S
C54 C55 1.387 . S
C54 C58 1.391 . S
C55 C54 1.387 . S
C55 C56 1.369 . S
C55 H64 0.929 . S
C56 N53 1.346 . S
C56 C55 1.369 . S
C56 H59 0.928 . S
C57 N53 1.345 . S
C57 C58 1.371 . S
C57 H60 0.931 . S
C58 C54 1.391 . S
C58 C57 1.371 . S
C58 H65 0.930 . S
H59 C56 0.928 . S
H60 C57 0.931 . S
H61 C37 0.930 . S
H62 C34 0.930 . S
H63 C43 0.930 . S
H64 C55 0.929 . S
H65 C58 0.930 . S
C66 C67 1.351 . S
C66 N69 1.368 . S
C66 H71 0.931 . S
C67 C66 1.351 . S
C67 N68 1.373 . S
C67 H95 0.930 . S
N68 C67 1.373 . S
N68 C70 1.340 . S
N69 C66 1.368 . S
N69 C70 1.321 . S
N69 Co72 2.135 . S
C70 N68 1.340 . S
C70 N69 1.321 . S
C70 H94 0.930 . S
H71 C66 0.931 . S
Co72 N69 2.135 . S
Co72 N75 2.121 . S
Co72 O80 2.055 . S
Co72 O83 2.039 . S
Co72 N86 2.140 . S
C73 O74 1.227 . S
C73 O83 1.265 . S
O74 C73 1.227 . S
N75 Co72 2.121 . S
N75 C77 1.375 . S
N75 C78 1.313 . S
C76 C77 1.338 . S
C76 N79 1.377 . S
C76 H96 0.930 . S
C77 N75 1.375 . S
C77 C76 1.338 . S
C77 H81 0.931 . S
C78 N75 1.313 . S
C78 N79 1.344 . S
C78 H82 0.930 . S
N79 C76 1.377 . S
N79 C78 1.344 . S
O80 Co72 2.055 . S
O80 C84 1.253 . S
H81 C77 0.931 . S
H82 C78 0.930 . S
O83 Co72 2.039 . S
O83 C73 1.265 . S
C84 O80 1.253 . S
C84 O85 1.227 . S
O85 C84 1.227 . S
N86 Co72 2.140 . S
N86 C89 1.346 . S
N86 C90 1.345 . S
C87 C88 1.387 . S
C87 C91 1.391 . S
C88 C87 1.387 . S
C88 C89 1.369 . S
C88 H97 0.929 . S
C89 N86 1.346 . S
C89 C88 1.369 . S
C89 H92 0.928 . S
C90 N86 1.345 . S
C90 C91 1.371 . S
C90 H93 0.931 . S
C91 C87 1.391 . S
C91 C90 1.371 . S
C91 H98 0.930 . S
H92 C89 0.928 . S
H93 C90 0.931 . S
H94 C70 0.930 . S
H95 C67 0.930 . S
H96 C76 0.930 . S
H97 C88 0.929 . S
H98 C91 0.930 . S
C99 C100 1.351 . S
C99 N102 1.368 . S
C99 H104 0.931 . S
C100 C99 1.351 . S
C100 N101 1.373 . S
C100 H128 0.930 . S
N101 C100 1.373 . S
N101 C103 1.340 . S
N102 C99 1.368 . S
N102 C103 1.321 . S
N102 Co105 2.135 1_655 S
C103 N101 1.340 . S
C103 N102 1.321 . S
C103 H127 0.930 . S
H104 C99 0.931 . S
Co105 N102 2.135 1_455 S
Co105 N108 2.121 . S
Co105 O113 2.036 1_455 S
Co105 O116 2.039 . S
Co105 N119 2.140 . S
C106 O107 1.227 . S
C106 O116 1.265 . S
O107 C106 1.227 . S
N108 Co105 2.121 . S
N108 C110 1.375 . S
N108 C111 1.313 . S
C109 C110 1.338 . S
C109 N112 1.377 . S
C109 H129 0.930 . S
C110 N108 1.375 . S
C110 C109 1.338 . S
C110 H114 0.931 . S
C111 N108 1.313 . S
C111 N112 1.344 . S
C111 H115 0.930 . S
N112 C109 1.377 . S
N112 C111 1.344 . S
O113 Co105 2.036 1_655 S
O113 C117 1.238 1_655 S
H114 C110 0.931 . S
H115 C111 0.930 . S
O116 Co105 2.039 . S
O116 C106 1.265 . S
C117 O113 1.238 1_455 S
C117 O118 1.227 . S
O118 C117 1.227 . S
N119 Co105 2.140 . S
N119 C122 1.346 . S
N119 C123 1.345 . S
C120 C121 1.387 . S
C120 C124 1.391 . S
C121 C120 1.387 . S
C121 C122 1.369 . S
C121 H130 0.929 . S
C122 N119 1.346 . S
C122 C121 1.369 . S
C122 H125 0.928 . S
C123 N119 1.345 . S
C123 C124 1.371 . S
C123 H126 0.931 . S
C124 C120 1.391 . S
C124 C123 1.371 . S
C124 H131 0.930 . S
H125 C122 0.928 . S
H126 C123 0.931 . S
H127 C103 0.930 . S
H128 C100 0.930 . S
H129 C109 0.930 . S
H130 C121 0.929 . S
H131 C124 0.930 . S
C132 C133 1.351 . S
C132 N135 1.368 . S
C132 H137 0.931 . S
C133 C132 1.351 . S
C133 N134 1.373 . S
C133 H161 0.930 . S
N134 C133 1.373 . S
N134 C136 1.340 . S
N135 C132 1.368 . S
N135 C136 1.321 . S
N135 Co138 2.135 . S
C136 N134 1.340 . S
C136 N135 1.321 . S
C136 H160 0.930 . S
H137 C132 0.931 . S
Co138 N135 2.135 . S
Co138 N141 2.121 . S
Co138 O146 2.055 . S
Co138 O149 2.039 . S
Co138 N152 2.140 . S
C139 O140 1.227 . S
C139 O149 1.265 . S
O140 C139 1.227 . S
N141 Co138 2.121 . S
N141 C143 1.375 . S
N141 C144 1.313 . S
C142 C143 1.338 . S
C142 N145 1.377 . S
C142 H162 0.930 . S
C143 N141 1.375 . S
C143 C142 1.338 . S
C143 H147 0.931 . S
C144 N141 1.313 . S
C144 N145 1.344 . S
C144 H148 0.930 . S
N145 C142 1.377 . S
N145 C144 1.344 . S
O146 Co138 2.055 . S
O146 C150 1.253 . S
H147 C143 0.931 . S
H148 C144 0.930 . S
O149 Co138 2.039 . S
O149 C139 1.265 . S
C150 O146 1.253 . S
C150 O151 1.227 . S
O151 C150 1.227 . S
N152 Co138 2.140 . S
N152 C155 1.346 . S
N152 C156 1.345 . S
C153 C154 1.387 . S
C153 C157 1.391 . S
C154 C153 1.387 . S
C154 C155 1.369 . S
C154 H163 0.929 . S
C155 N152 1.346 . S
C155 C154 1.369 . S
C155 H158 0.928 . S
C156 N152 1.345 . S
C156 C157 1.371 . S
C156 H159 0.931 . S
C157 C153 1.391 . S
C157 C156 1.371 . S
C157 H164 0.930 . S
H158 C155 0.928 . S
H159 C156 0.931 . S
H160 C136 0.930 . S
H161 C133 0.930 . S
H162 C142 0.930 . S
H163 C154 0.929 . S
H164 C157 0.930 . S
C165 C166 1.351 . S
C165 N168 1.368 . S
C165 H170 0.931 . S
C166 C165 1.351 . S
C166 N167 1.373 . S
C166 H194 0.930 . S
N167 C166 1.373 . S
N167 C169 1.340 . S
N168 C165 1.368 . S
N168 C169 1.321 . S
N168 Co171 2.135 . S
C169 N167 1.340 . S
C169 N168 1.321 . S
C169 H193 0.930 . S
H170 C165 0.931 . S
Co171 N168 2.135 . S
Co171 N174 2.121 1_545 S
Co171 O179 2.055 . S
Co171 O182 2.039 . S
Co171 N185 2.140 1_545 S
C172 O173 1.227 . S
C172 O182 1.265 . S
O173 C172 1.227 . S
N174 Co171 2.121 1_565 S
N174 C176 1.375 . S
N174 C177 1.313 . S
C175 C176 1.338 . S
C175 N178 1.377 . S
C175 H195 0.930 . S
C176 N174 1.375 . S
C176 C175 1.338 . S
C176 H180 0.931 . S
C177 N174 1.313 . S
C177 N178 1.344 . S
C177 H181 0.930 . S
N178 C175 1.377 . S
N178 C177 1.344 . S
O179 Co171 2.055 . S
O179 C183 1.253 . S
H180 C176 0.931 . S
H181 C177 0.930 . S
O182 Co171 2.039 . S
O182 C172 1.265 . S
C183 O179 1.253 . S
C183 O184 1.236 . S
O184 C183 1.236 . S
N185 Co171 2.140 1_565 S
N185 C188 1.346 . S
N185 C189 1.345 . S
C186 C187 1.387 . S
C186 C190 1.391 . S
C187 C186 1.387 . S
C187 C188 1.369 . S
C187 H196 0.929 . S
C188 N185 1.346 . S
C188 C187 1.369 . S
C188 H191 0.928 . S
C189 N185 1.345 . S
C189 C190 1.371 . S
C189 H192 0.931 . S
C190 C186 1.391 . S
C190 C189 1.371 . S
C190 H197 0.930 . S
H191 C188 0.928 . S
H192 C189 0.931 . S
H193 C169 0.930 . S
H194 C166 0.930 . S
H195 C175 0.930 . S
H196 C187 0.929 . S
H197 C190 0.930 . S
C198 C199 1.351 . S
C198 N201 1.368 . S
C198 H203 0.931 . S
C199 C198 1.351 . S
C199 N200 1.373 . S
C199 H227 0.930 . S
N200 C199 1.373 . S
N200 C202 1.340 . S
N201 C198 1.368 . S
N201 C202 1.321 . S
N201 Co204 2.135 . S
C202 N200 1.340 . S
C202 N201 1.321 . S
C202 H226 0.930 . S
H203 C198 0.931 . S
Co204 N201 2.135 . S
Co204 N207 2.121 . S
Co204 O212 2.055 . S
Co204 O215 2.039 . S
Co204 N218 2.140 . S
C205 O206 1.227 . S
C205 O215 1.265 . S
O206 C205 1.227 . S
N207 Co204 2.121 . S
N207 C209 1.375 . S
N207 C210 1.313 . S
C208 C209 1.338 . S
C208 N211 1.377 . S
C208 H228 0.930 . S
C209 N207 1.375 . S
C209 C208 1.338 . S
C209 H213 0.931 . S
C210 N207 1.313 . S
C210 N211 1.344 . S
C210 H214 0.930 . S
N211 C208 1.377 . S
N211 C210 1.344 . S
O212 Co204 2.055 . S
O212 C216 1.253 . S
H213 C209 0.931 . S
H214 C210 0.930 . S
O215 Co204 2.039 . S
O215 C205 1.265 . S
C216 O212 1.253 . S
C216 O217 1.227 . S
O217 C216 1.227 . S
N218 Co204 2.140 . S
N218 C221 1.346 . S
N218 C222 1.345 . S
C219 C220 1.387 . S
C219 C223 1.391 . S
C220 C219 1.387 . S
C220 C221 1.369 . S
C220 H229 0.929 . S
C221 N218 1.346 . S
C221 C220 1.369 . S
C221 H224 0.928 . S
C222 N218 1.345 . S
C222 C223 1.371 . S
C222 H225 0.931 . S
C223 C219 1.391 . S
C223 C222 1.371 . S
C223 H230 0.930 . S
H224 C221 0.928 . S
H225 C222 0.931 . S
H226 C202 0.930 . S
H227 C199 0.930 . S
H228 C208 0.930 . S
H229 C220 0.929 . S
H230 C223 0.930 . S
C231 C232 1.351 . S
C231 N234 1.368 . S
C231 H236 0.931 . S
C232 C231 1.351 . S
C232 N233 1.373 . S
C232 H260 0.930 . S
N233 C232 1.373 . S
N233 C235 1.340 . S
N234 C231 1.368 . S
N234 C235 1.321 . S
N234 Co237 2.135 . S
C235 N233 1.340 . S
C235 N234 1.321 . S
C235 H259 0.930 . S
H236 C231 0.931 . S
Co237 N234 2.135 . S
Co237 N240 2.121 . S
Co237 O245 2.055 . S
Co237 O248 2.039 . S
Co237 N251 2.140 . S
C238 O239 1.227 . S
C238 O248 1.265 . S
O239 C238 1.227 . S
N240 Co237 2.121 . S
N240 C242 1.375 . S
N240 C243 1.313 . S
C241 C242 1.338 . S
C241 N244 1.377 . S
C241 H261 0.930 . S
C242 N240 1.375 . S
C242 C241 1.338 . S
C242 H246 0.931 . S
C243 N240 1.313 . S
C243 N244 1.344 . S
C243 H247 0.930 . S
N244 C241 1.377 . S
N244 C243 1.344 . S
O245 Co237 2.055 . S
O245 C249 1.253 . S
H246 C242 0.931 . S
H247 C243 0.930 . S
O248 Co237 2.039 . S
O248 C238 1.265 . S
C249 O245 1.253 . S
C249 O250 1.227 . S
O250 C249 1.227 . S
N251 Co237 2.140 . S
N251 C254 1.346 . S
N251 C255 1.345 . S
C252 C253 1.387 . S
C252 C256 1.391 . S
C253 C252 1.387 . S
C253 C254 1.369 . S
C253 H262 0.929 . S
C254 N251 1.346 . S
C254 C253 1.369 . S
C254 H257 0.928 . S
C255 N251 1.345 . S
C255 C256 1.371 . S
C255 H258 0.931 . S
C256 C252 1.391 . S
C256 C255 1.371 . S
C256 H263 0.930 . S
H257 C254 0.928 . S
H258 C255 0.931 . S
H259 C235 0.930 . S
H260 C232 0.930 . S
H261 C241 0.930 . S
H262 C253 0.929 . S
H263 C256 0.930 . S
C264 C265 1.351 . S
C264 N267 1.368 . S
C264 H269 0.931 . S
C265 C264 1.351 . S
C265 N266 1.373 . S
C265 H293 0.930 . S
N266 C265 1.373 . S
N266 C268 1.340 . S
N267 C264 1.368 . S
N267 C268 1.321 . S
N267 Co270 2.135 . S
C268 N266 1.340 . S
C268 N267 1.321 . S
C268 H292 0.930 . S
H269 C264 0.931 . S
Co270 N267 2.135 . S
Co270 N273 2.121 . S
Co270 O278 2.055 . S
Co270 O281 2.039 . S
Co270 N284 2.140 . S
C271 O272 1.227 . S
C271 O281 1.265 . S
O272 C271 1.227 . S
N273 Co270 2.121 . S
N273 C275 1.375 . S
N273 C276 1.313 . S
C274 C275 1.338 . S
C274 N277 1.377 . S
C274 H294 0.930 . S
C275 N273 1.375 . S
C275 C274 1.338 . S
C275 H279 0.931 . S
C276 N273 1.313 . S
C276 N277 1.344 . S
C276 H280 0.930 . S
N277 C274 1.377 . S
N277 C276 1.344 . S
O278 Co270 2.055 . S
O278 C282 1.253 . S
H279 C275 0.931 . S
H280 C276 0.930 . S
O281 Co270 2.039 . S
O281 C271 1.265 . S
C282 O278 1.253 . S
C282 O283 1.227 . S
O283 C282 1.227 . S
N284 Co270 2.140 . S
N284 C287 1.346 . S
N284 C288 1.345 . S
C285 C286 1.387 . S
C285 C289 1.391 . S
C286 C285 1.387 . S
C286 C287 1.369 . S
C286 H295 0.929 . S
C287 N284 1.346 . S
C287 C286 1.369 . S
C287 H290 0.928 . S
C288 N284 1.345 . S
C288 C289 1.371 . S
C288 H291 0.931 . S
C289 C285 1.391 . S
C289 C288 1.371 . S
C289 H296 0.930 . S
H290 C287 0.928 . S
H291 C288 0.931 . S
H292 C268 0.930 . S
H293 C265 0.930 . S
H294 C274 0.930 . S
H295 C286 0.929 . S
H296 C289 0.930 . S
C297 C298 1.351 . S
C297 N300 1.368 . S
C297 H302 0.931 . S
C298 C297 1.351 . S
C298 N299 1.373 . S
C298 H326 0.930 . S
N299 C298 1.373 . S
N299 C301 1.340 . S
N300 C297 1.368 . S
N300 C301 1.321 . S
N300 Co303 2.135 . S
C301 N299 1.340 . S
C301 N300 1.321 . S
C301 H325 0.930 . S
H302 C297 0.931 . S
Co303 N300 2.135 . S
Co303 N306 2.121 . S
Co303 O311 2.055 . S
Co303 O314 2.039 . S
Co303 N317 2.140 . S
C304 O305 1.227 . S
C304 O314 1.265 1_556 S
O305 C304 1.227 . S
N306 Co303 2.121 . S
N306 C308 1.375 . S
N306 C309 1.313 . S
C307 C308 1.338 . S
C307 N310 1.377 . S
C307 H327 0.930 . S
C308 N306 1.375 . S
C308 C307 1.338 . S
C308 H312 0.931 . S
C309 N306 1.313 . S
C309 N310 1.344 . S
C309 H313 0.930 . S
N310 C307 1.377 . S
N310 C309 1.344 . S
O311 Co303 2.055 . S
O311 C315 1.253 . S
H312 C308 0.931 . S
H313 C309 0.930 . S
O314 Co303 2.039 . S
O314 C304 1.265 1_554 S
C315 O311 1.253 . S
C315 O316 1.227 . S
O316 C315 1.227 . S
N317 Co303 2.140 . S
N317 C320 1.346 . S
N317 C321 1.345 . S
C318 C319 1.387 . S
C318 C322 1.391 . S
C319 C318 1.387 . S
C319 C320 1.369 . S
C319 H328 0.929 . S
C320 N317 1.346 . S
C320 C319 1.369 . S
C320 H323 0.928 . S
C321 N317 1.345 . S
C321 C322 1.371 . S
C321 H324 0.931 . S
C322 C318 1.391 . S
C322 C321 1.371 . S
C322 H329 0.930 . S
H323 C320 0.928 . S
H324 C321 0.931 . S
H325 C301 0.930 . S
H326 C298 0.930 . S
H327 C307 0.930 . S
H328 C319 0.929 . S
H329 C322 0.930 . S
C330 C331 1.351 . S
C330 N333 1.368 . S
C330 H335 0.931 . S
C331 C330 1.351 . S
C331 N332 1.373 . S
C331 H359 0.930 . S
N332 C331 1.373 . S
N332 C334 1.340 . S
N333 C330 1.368 . S
N333 C334 1.321 . S
N333 Co336 2.135 . S
C334 N332 1.340 . S
C334 N333 1.321 . S
C334 H358 0.930 . S
H335 C330 0.931 . S
Co336 N333 2.135 . S
Co336 N339 2.121 . S
Co336 O344 2.055 . S
Co336 O347 2.039 . S
Co336 N350 2.140 . S
C337 O338 1.227 . S
C337 O347 1.265 1_556 S
O338 C337 1.227 . S
N339 Co336 2.121 . S
N339 C341 1.375 . S
N339 C342 1.313 . S
C340 C341 1.338 . S
C340 N343 1.377 . S
C340 H360 0.930 . S
C341 N339 1.375 . S
C341 C340 1.338 . S
C341 H345 0.931 . S
C342 N339 1.313 . S
C342 N343 1.344 . S
C342 H346 0.930 . S
N343 C340 1.377 . S
N343 C342 1.344 . S
O344 Co336 2.055 . S
O344 C348 1.253 . S
H345 C341 0.931 . S
H346 C342 0.930 . S
O347 Co336 2.039 . S
O347 C337 1.265 1_554 S
C348 O344 1.253 . S
C348 O349 1.227 . S
O349 C348 1.227 . S
N350 Co336 2.140 . S
N350 C353 1.346 . S
N350 C354 1.345 . S
C351 C352 1.387 . S
C351 C355 1.391 . S
C352 C351 1.387 . S
C352 C353 1.369 . S
C352 H361 0.929 . S
C353 N350 1.346 . S
C353 C352 1.369 . S
C353 H356 0.928 . S
C354 N350 1.345 . S
C354 C355 1.371 . S
C354 H357 0.931 . S
C355 C351 1.391 . S
C355 C354 1.371 . S
C355 H362 0.930 . S
H356 C353 0.928 . S
H357 C354 0.931 . S
H358 C334 0.930 . S
H359 C331 0.930 . S
H360 C340 0.930 . S
H361 C352 0.929 . S
H362 C355 0.930 . S
C363 C364 1.351 . S
C363 N366 1.368 . S
C363 H368 0.931 . S
C364 C363 1.351 . S
C364 N365 1.373 . S
C364 H392 0.930 . S
N365 C364 1.373 . S
N365 C367 1.340 . S
N366 C363 1.368 . S
N366 C367 1.321 . S
N366 Co369 2.135 . S
C367 N365 1.340 . S
C367 N366 1.321 . S
C367 H391 0.930 . S
H368 C363 0.931 . S
Co369 N366 2.135 . S
Co369 N372 2.121 . S
Co369 O377 2.055 . S
Co369 O380 2.039 . S
Co369 N383 2.140 . S
C370 O371 1.227 . S
C370 O380 1.265 1_556 S
O371 C370 1.227 . S
N372 Co369 2.121 . S
N372 C374 1.375 . S
N372 C375 1.313 . S
C373 C374 1.338 . S
C373 N376 1.377 . S
C373 H393 0.930 . S
C374 N372 1.375 . S
C374 C373 1.338 . S
C374 H378 0.931 . S
C375 N372 1.313 . S
C375 N376 1.344 . S
C375 H379 0.930 . S
N376 C373 1.377 . S
N376 C375 1.344 . S
O377 Co369 2.055 . S
O377 C381 1.253 . S
H378 C374 0.931 . S
H379 C375 0.930 . S
O380 Co369 2.039 . S
O380 C370 1.265 1_554 S
C381 O377 1.253 . S
C381 O382 1.227 . S
O382 C381 1.227 . S
N383 Co369 2.140 . S
N383 C386 1.346 . S
N383 C387 1.345 . S
C384 C385 1.387 . S
C384 C388 1.391 . S
C385 C384 1.387 . S
C385 C386 1.369 . S
C385 H394 0.929 . S
C386 N383 1.346 . S
C386 C385 1.369 . S
C386 H389 0.928 . S
C387 N383 1.345 . S
C387 C388 1.371 . S
C387 H390 0.931 . S
C388 C384 1.391 . S
C388 C387 1.371 . S
C388 H395 0.930 . S
H389 C386 0.928 . S
H390 C387 0.931 . S
H391 C367 0.930 . S
H392 C364 0.930 . S
H393 C373 0.930 . S
H394 C385 0.929 . S
H395 C388 0.930 . S
C396 C397 1.351 . S
C396 N399 1.368 . S
C396 H401 0.931 . S
C397 C396 1.351 . S
C397 N398 1.373 . S
C397 H425 0.930 . S
N398 C397 1.373 . S
N398 C400 1.340 . S
N399 C396 1.368 . S
N399 C400 1.321 . S
N399 Co402 2.135 . S
C400 N398 1.340 . S
C400 N399 1.321 . S
C400 H424 0.930 . S
H401 C396 0.931 . S
Co402 N399 2.135 . S
Co402 N405 2.121 . S
Co402 O410 2.055 . S
Co402 O413 2.039 . S
Co402 N416 2.140 . S
C403 O404 1.227 . S
C403 O413 1.265 1_554 S
O404 C403 1.227 . S
N405 Co402 2.121 . S
N405 C407 1.375 . S
N405 C408 1.313 . S
C406 C407 1.338 . S
C406 N409 1.377 . S
C406 H426 0.930 . S
C407 N405 1.375 . S
C407 C406 1.338 . S
C407 H411 0.931 . S
C408 N405 1.313 . S
C408 N409 1.344 . S
C408 H412 0.930 . S
N409 C406 1.377 . S
N409 C408 1.344 . S
O410 Co402 2.055 . S
O410 C414 1.253 . S
H411 C407 0.931 . S
H412 C408 0.930 . S
O413 Co402 2.039 . S
O413 C403 1.265 1_556 S
C414 O410 1.253 . S
C414 O415 1.227 . S
O415 C414 1.227 . S
N416 Co402 2.140 . S
N416 C419 1.346 . S
N416 C420 1.345 . S
C417 C418 1.387 . S
C417 C421 1.391 . S
C418 C417 1.387 . S
C418 C419 1.369 . S
C418 H427 0.929 . S
C419 N416 1.346 . S
C419 C418 1.369 . S
C419 H422 0.928 . S
C420 N416 1.345 . S
C420 C421 1.371 . S
C420 H423 0.931 . S
C421 C417 1.391 . S
C421 C420 1.371 . S
C421 H428 0.930 . S
H422 C419 0.928 . S
H423 C420 0.931 . S
H424 C400 0.930 . S
H425 C397 0.930 . S
H426 C406 0.930 . S
H427 C418 0.929 . S
H428 C421 0.930 . S
C429 C430 1.351 . S
C429 N432 1.368 . S
C429 H434 0.931 . S
C430 C429 1.351 . S
C430 N431 1.373 . S
C430 H458 0.930 . S
N431 C430 1.373 . S
N431 C433 1.340 . S
N432 C429 1.368 . S
N432 C433 1.321 . S
N432 Co435 2.135 . S
C433 N431 1.340 . S
C433 N432 1.321 . S
C433 H457 0.930 . S
H434 C429 0.931 . S
Co435 N432 2.135 . S
Co435 N438 2.121 . S
Co435 O443 2.055 . S
Co435 O446 2.039 . S
Co435 N449 2.140 . S
C436 O437 1.227 . S
C436 O446 1.265 1_554 S
O437 C436 1.227 . S
N438 Co435 2.121 . S
N438 C440 1.375 . S
N438 C441 1.313 . S
C439 C440 1.338 . S
C439 N442 1.377 . S
C439 H459 0.930 . S
C440 N438 1.375 . S
C440 C439 1.338 . S
C440 H444 0.931 . S
C441 N438 1.313 . S
C441 N442 1.344 . S
C441 H445 0.930 . S
N442 C439 1.377 . S
N442 C441 1.344 . S
O443 Co435 2.055 . S
O443 C447 1.253 . S
H444 C440 0.931 . S
H445 C441 0.930 . S
O446 Co435 2.039 . S
O446 C436 1.265 1_556 S
C447 O443 1.253 . S
C447 O448 1.227 . S
O448 C447 1.227 . S
N449 Co435 2.140 . S
N449 C452 1.346 . S
N449 C453 1.345 . S
C450 C451 1.387 . S
C450 C454 1.391 . S
C451 C450 1.387 . S
C451 C452 1.369 . S
C451 H460 0.929 . S
C452 N449 1.346 . S
C452 C451 1.369 . S
C452 H455 0.928 . S
C453 N449 1.345 . S
C453 C454 1.371 . S
C453 H456 0.931 . S
C454 C450 1.391 . S
C454 C453 1.371 . S
C454 H461 0.930 . S
H455 C452 0.928 . S
H456 C453 0.931 . S
H457 C433 0.930 . S
H458 C430 0.930 . S
H459 C439 0.930 . S
H460 C451 0.929 . S
H461 C454 0.930 . S
C462 C463 1.351 . S
C462 N465 1.368 . S
C462 H467 0.931 . S
C463 C462 1.351 . S
C463 N464 1.373 . S
C463 H491 0.930 . S
N464 C463 1.373 . S
N464 C466 1.340 . S
N465 C462 1.368 . S
N465 C466 1.321 . S
N465 Co468 2.135 . S
C466 N464 1.340 . S
C466 N465 1.321 . S
C466 H490 0.930 . S
H467 C462 0.931 . S
Co468 N465 2.135 . S
Co468 N471 2.121 . S
Co468 O476 2.055 . S
Co468 O479 2.039 . S
Co468 N482 2.140 . S
C469 O470 1.227 . S
C469 O479 1.265 1_554 S
O470 C469 1.227 . S
N471 Co468 2.121 . S
N471 C473 1.375 . S
N471 C474 1.313 . S
C472 C473 1.338 . S
C472 N475 1.377 . S
C472 H492 0.930 . S
C473 N471 1.375 . S
C473 C472 1.338 . S
C473 H477 0.931 . S
C474 N471 1.313 . S
C474 N475 1.344 . S
C474 H478 0.930 . S
N475 C472 1.377 . S
N475 C474 1.344 . S
O476 Co468 2.055 . S
O476 C480 1.253 . S
H477 C473 0.931 . S
H478 C474 0.930 . S
O479 Co468 2.039 . S
O479 C469 1.265 1_556 S
C480 O476 1.253 . S
C480 O481 1.227 . S
O481 C480 1.227 . S
N482 Co468 2.140 . S
N482 C485 1.346 . S
N482 C486 1.345 . S
C483 C484 1.387 . S
C483 C487 1.391 . S
C484 C483 1.387 . S
C484 C485 1.369 . S
C484 H493 0.929 . S
C485 N482 1.346 . S
C485 C484 1.369 . S
C485 H488 0.928 . S
C486 N482 1.345 . S
C486 C487 1.371 . S
C486 H489 0.931 . S
C487 C483 1.391 . S
C487 C486 1.371 . S
C487 H494 0.930 . S
H488 C485 0.928 . S
H489 C486 0.931 . S
H490 C466 0.930 . S
H491 C463 0.930 . S
H492 C472 0.930 . S
H493 C484 0.929 . S
H494 C487 0.930 . S
C495 C496 1.351 . S
C495 N498 1.368 . S
C495 H500 0.931 . S
C496 C495 1.351 . S
C496 N497 1.373 . S
C496 H524 0.930 . S
N497 C496 1.373 . S
N497 C499 1.340 . S
N498 C495 1.368 . S
N498 C499 1.321 . S
N498 Co501 2.135 . S
C499 N497 1.340 . S
C499 N498 1.321 . S
C499 H523 0.930 . S
H500 C495 0.931 . S
Co501 N498 2.135 . S
Co501 N504 2.121 . S
Co501 O509 2.055 . S
Co501 O512 2.039 . S
Co501 N515 2.140 . S
C502 O503 1.227 . S
C502 O512 1.265 . S
O503 C502 1.227 . S
N504 Co501 2.121 . S
N504 C506 1.375 . S
N504 C507 1.313 . S
C505 C506 1.338 . S
C505 N508 1.377 . S
C505 H525 0.930 . S
C506 N504 1.375 . S
C506 C505 1.338 . S
C506 H510 0.931 . S
C507 N504 1.313 . S
C507 N508 1.344 . S
C507 H511 0.930 . S
N508 C505 1.377 . S
N508 C507 1.344 . S
O509 Co501 2.055 . S
O509 C513 1.253 . S
H510 C506 0.931 . S
H511 C507 0.930 . S
O512 Co501 2.039 . S
O512 C502 1.265 . S
C513 O509 1.253 . S
C513 O514 1.227 . S
O514 C513 1.227 . S
N515 Co501 2.140 . S
N515 C518 1.346 . S
N515 C519 1.345 . S
C516 C517 1.387 . S
C516 C520 1.391 . S
C517 C516 1.387 . S
C517 C518 1.369 . S
C517 H526 0.929 . S
C518 N515 1.346 . S
C518 C517 1.369 . S
C518 H521 0.928 . S
C519 N515 1.345 . S
C519 C520 1.371 . S
C519 H522 0.931 . S
C520 C516 1.391 . S
C520 C519 1.371 . S
C520 H527 0.930 . S
H521 C518 0.928 . S
H522 C519 0.931 . S
H523 C499 0.930 . S
H524 C496 0.930 . S
H525 C505 0.930 . S
H526 C517 0.929 . S
H527 C520 0.930 . S
C528 C529 1.351 . S
C528 N531 1.368 . S
C528 H533 0.931 . S
C529 C528 1.351 . S
C529 N530 1.373 . S
C529 H557 0.930 . S
N530 C529 1.373 . S
N530 C532 1.340 . S
N531 C528 1.368 . S
N531 C532 1.321 . S
N531 Co534 2.135 . S
C532 N530 1.340 . S
C532 N531 1.321 . S
C532 H556 0.930 . S
H533 C528 0.931 . S
Co534 N531 2.135 . S
Co534 N537 2.121 . S
Co534 O542 2.055 . S
Co534 O545 2.039 . S
Co534 N548 2.140 . S
C535 O536 1.227 . S
C535 O545 1.265 . S
O536 C535 1.227 . S
N537 Co534 2.121 . S
N537 C539 1.375 . S
N537 C540 1.313 . S
C538 C539 1.338 . S
C538 N541 1.377 . S
C538 H558 0.930 . S
C539 N537 1.375 . S
C539 C538 1.338 . S
C539 H543 0.931 . S
C540 N537 1.313 . S
C540 N541 1.344 . S
C540 H544 0.930 . S
N541 C538 1.377 . S
N541 C540 1.344 . S
O542 Co534 2.055 . S
O542 C546 1.253 . S
H543 C539 0.931 . S
H544 C540 0.930 . S
O545 Co534 2.039 . S
O545 C535 1.265 . S
C546 O542 1.253 . S
C546 O547 1.227 . S
O547 C546 1.227 . S
N548 Co534 2.140 . S
N548 C551 1.346 . S
N548 C552 1.345 . S
C549 C550 1.387 . S
C549 C553 1.391 . S
C550 C549 1.387 . S
C550 C551 1.369 . S
C550 H559 0.929 . S
C551 N548 1.346 . S
C551 C550 1.369 . S
C551 H554 0.928 . S
C552 N548 1.345 . S
C552 C553 1.371 . S
C552 H555 0.931 . S
C553 C549 1.391 . S
C553 C552 1.371 . S
C553 H560 0.930 . S
H554 C551 0.928 . S
H555 C552 0.931 . S
H556 C532 0.930 . S
H557 C529 0.930 . S
H558 C538 0.930 . S
H559 C550 0.929 . S
H560 C553 0.930 . S
C561 C562 1.351 . S
C561 N564 1.368 . S
C561 H566 0.931 . S
C562 C561 1.351 . S
C562 N563 1.373 . S
C562 H590 0.930 . S
N563 C562 1.373 . S
N563 C565 1.340 . S
N564 C561 1.368 . S
N564 C565 1.321 . S
N564 Co567 2.135 . S
C565 N563 1.340 . S
C565 N564 1.321 . S
C565 H589 0.930 . S
H566 C561 0.931 . S
Co567 N564 2.135 . S
Co567 N570 2.121 . S
Co567 O575 2.055 . S
Co567 O578 2.039 . S
Co567 N581 2.140 . S
C568 O569 1.227 . S
C568 O578 1.265 . S
O569 C568 1.227 . S
N570 Co567 2.121 . S
N570 C572 1.375 . S
N570 C573 1.313 . S
C571 C572 1.338 . S
C571 N574 1.377 . S
C571 H591 0.930 . S
C572 N570 1.375 . S
C572 C571 1.338 . S
C572 H576 0.931 . S
C573 N570 1.313 . S
C573 N574 1.344 . S
C573 H577 0.930 . S
N574 C571 1.377 . S
N574 C573 1.344 . S
O575 Co567 2.055 . S
O575 C579 1.253 . S
H576 C572 0.931 . S
H577 C573 0.930 . S
O578 Co567 2.039 . S
O578 C568 1.265 . S
C579 O575 1.253 . S
C579 O580 1.227 . S
O580 C579 1.227 . S
N581 Co567 2.140 . S
N581 C584 1.346 . S
N581 C585 1.345 . S
C582 C583 1.387 . S
C582 C586 1.391 . S
C583 C582 1.387 . S
C583 C584 1.369 . S
C583 H592 0.929 . S
C584 N581 1.346 . S
C584 C583 1.369 . S
C584 H587 0.928 . S
C585 N581 1.345 . S
C585 C586 1.371 . S
C585 H588 0.931 . S
C586 C582 1.391 . S
C586 C585 1.371 . S
C586 H593 0.930 . S
H587 C584 0.928 . S
H588 C585 0.931 . S
H589 C565 0.930 . S
H590 C562 0.930 . S
H591 C571 0.930 . S
H592 C583 0.929 . S
H593 C586 0.930 . S
H594 C602 0.950 . S
H595 C607 0.950 . S
H596 C604 0.950 . S
H597 C606 0.950 . S
H598 C608 0.950 . S
H599 C610 0.950 . S
H600 C612 0.950 . S
H601 C613 0.950 . S
C602 H594 0.950 . S
C602 C603 1.386 . S
C602 C604 1.391 . S
C603 C602 1.386 . S
C603 C607 1.393 . S
C604 H596 0.950 . S
C604 C602 1.391 . S
C604 C605 1.400 . S
C605 C604 1.400 . S
C605 C606 1.398 . S
C605 C611 1.491 . S
C606 H597 0.950 . S
C606 C605 1.398 . S
C606 C607 1.391 . S
C607 H595 0.950 . S
C607 C603 1.393 . S
C607 C606 1.391 . S
C608 H598 0.950 . S
C608 C609 1.386 . S
C608 C610 1.391 . S
C609 C608 1.386 . S
C609 C613 1.393 . S
C610 H599 0.950 . S
C610 C608 1.391 . S
C610 C611 1.400 . S
C611 C605 1.491 . S
C611 C610 1.400 . S
C611 C612 1.398 . S
C612 H600 0.950 . S
C612 C611 1.398 . S
C612 C613 1.391 . S
C613 H601 0.950 . S
C613 C609 1.393 . S
C613 C612 1.391 . S
H614 C622 0.950 . S
H615 C627 0.950 . S
H616 C624 0.950 . S
H617 C626 0.950 . S
H618 C628 0.950 . S
H619 C630 0.950 . S
H620 C632 0.950 . S
H621 C633 0.950 . S
C622 H614 0.950 . S
C622 C623 1.386 . S
C622 C624 1.391 . S
C623 C622 1.386 . S
C623 C627 1.393 . S
C624 H616 0.950 . S
C624 C622 1.391 . S
C624 C625 1.400 . S
C625 C624 1.400 . S
C625 C626 1.398 . S
C625 C631 1.491 1_565 S
C626 H617 0.950 . S
C626 C625 1.398 . S
C626 C627 1.391 . S
C627 H615 0.950 . S
C627 C623 1.393 . S
C627 C626 1.391 . S
C628 H618 0.950 . S
C628 C629 1.386 . S
C628 C630 1.391 . S
C629 C628 1.386 . S
C629 C633 1.393 . S
C630 H619 0.950 . S
C630 C628 1.391 . S
C630 C631 1.400 . S
C631 C625 1.491 1_545 S
C631 C630 1.400 . S
C631 C632 1.398 . S
C632 H620 0.950 . S
C632 C631 1.398 . S
C632 C633 1.391 . S
C633 H621 0.950 . S
C633 C629 1.393 . S
C633 C632 1.391 . S
H634 C642 0.950 . S
H635 C647 0.950 . S
H636 C644 0.950 1_455 S
H637 C646 0.951 . S
H638 C648 0.950 . S
H639 C650 0.950 . S
H640 C652 0.950 . S
H641 C653 0.950 . S
C642 H634 0.950 . S
C642 C643 1.386 . S
C642 C644 1.391 . S
C643 C642 1.386 . S
C643 C647 1.393 . S
C644 H636 0.950 1_655 S
C644 C642 1.391 . S
C644 C645 1.400 1_655 S
C645 C644 1.400 1_455 S
C645 C646 1.398 1_455 S
C645 C651 1.491 . S
C646 H637 0.951 . S
C646 C645 1.398 1_655 S
C646 C647 1.391 . S
C647 H635 0.950 . S
C647 C643 1.393 . S
C647 C646 1.391 . S
C648 H638 0.950 . S
C648 C649 1.386 . S
C648 C650 1.391 . S
C649 C648 1.386 . S
C649 C653 1.393 . S
C650 H639 0.950 . S
C650 C648 1.391 . S
C650 C651 1.400 . S
C651 C645 1.491 . S
C651 C650 1.400 . S
C651 C652 1.398 . S
C652 H640 0.950 . S
C652 C651 1.398 . S
C652 C653 1.391 . S
C653 H641 0.950 . S
C653 C649 1.393 . S
C653 C652 1.391 . S
H654 C662 0.950 . S
H655 C667 0.950 . S
H656 C664 0.950 . S
H657 C666 0.950 . S
H658 C668 0.950 . S
H659 C670 0.950 . S
H660 C672 0.950 . S
H661 C673 0.950 . S
C662 H654 0.950 . S
C662 C663 1.386 . S
C662 C664 1.391 . S
C663 C662 1.386 . S
C663 C667 1.393 . S
C664 H656 0.950 . S
C664 C662 1.391 . S
C664 C665 1.400 . S
C665 C664 1.400 . S
C665 C666 1.398 . S
C665 C671 1.491 . S
C666 H657 0.950 . S
C666 C665 1.398 . S
C666 C667 1.391 . S
C667 H655 0.950 . S
C667 C663 1.393 . S
C667 C666 1.391 . S
C668 H658 0.950 . S
C668 C669 1.386 . S
C668 C670 1.391 . S
C669 C668 1.386 . S
C669 C673 1.393 . S
C670 H659 0.950 . S
C670 C668 1.391 . S
C670 C671 1.400 . S
C671 C665 1.491 . S
C671 C670 1.400 . S
C671 C672 1.398 . S
C672 H660 0.950 . S
C672 C671 1.398 . S
C672 C673 1.391 . S
C673 H661 0.950 . S
C673 C669 1.393 . S
C673 C672 1.391 . S
H674 C682 0.950 . S
H675 C687 0.950 . S
H676 C684 0.950 . S
H677 C686 0.950 . S
H678 C688 0.950 . S
H679 C690 0.950 1_545 S
H680 C692 0.946 . S
H681 C693 0.950 . S
C682 H674 0.950 . S
C682 C683 1.386 . S
C682 C684 1.391 . S
C683 C682 1.386 . S
C683 C687 1.393 . S
C684 H676 0.950 . S
C684 C682 1.391 . S
C684 C685 1.400 . S
C685 C684 1.400 . S
C685 C686 1.398 . S
C685 C691 1.491 . S
C686 H677 0.950 . S
C686 C685 1.398 . S
C686 C687 1.391 . S
C687 H675 0.950 . S
C687 C683 1.393 . S
C687 C686 1.391 . S
C688 H678 0.950 . S
C688 C689 1.386 . S
C688 C690 1.391 . S
C689 C688 1.386 . S
C689 C693 1.393 . S
C690 H679 0.950 1_565 S
C690 C688 1.391 . S
C690 C691 1.400 1_565 S
C691 C685 1.491 . S
C691 C690 1.400 1_545 S
C691 C692 1.398 1_545 S
C692 H680 0.946 . S
C692 C691 1.398 1_565 S
C692 C693 1.391 . S
C693 H681 0.950 . S
C693 C689 1.393 . S
C693 C692 1.391 . S
H694 C702 0.950 . S
H695 C707 0.950 . S
H696 C704 0.950 . S
H697 C706 0.950 . S
H698 C708 0.950 . S
H699 C710 0.950 . S
H700 C712 0.950 . S
H701 C713 0.950 . S
C702 H694 0.950 . S
C702 C703 1.386 . S
C702 C704 1.391 . S
C703 C702 1.386 . S
C703 C707 1.393 . S
C704 H696 0.950 . S
C704 C702 1.391 . S
C704 C705 1.400 . S
C705 C704 1.400 . S
C705 C706 1.398 . S
C705 C711 1.491 1_455 S
C706 H697 0.950 . S
C706 C705 1.398 . S
C706 C707 1.391 . S
C707 H695 0.950 . S
C707 C703 1.393 . S
C707 C706 1.391 . S
C708 H698 0.950 . S
C708 C709 1.386 . S
C708 C710 1.391 . S
C709 C708 1.386 . S
C709 C713 1.393 . S
C710 H699 0.950 . S
C710 C708 1.391 . S
C710 C711 1.400 . S
C711 C705 1.491 1_655 S
C711 C710 1.400 . S
C711 C712 1.398 . S
C712 H700 0.950 . S
C712 C711 1.398 . S
C712 C713 1.391 . S
C713 H701 0.950 . S
C713 C709 1.393 . S
C713 C712 1.391 . S
H714 C722 0.950 . S
H715 C727 0.950 . S
H716 C724 0.950 . S
H717 C726 0.950 . S
H718 C728 0.950 . S
H719 C730 0.950 . S
H720 C732 0.950 . S
H721 C733 0.950 . S
C722 H714 0.950 . S
C722 C723 1.386 . S
C722 C724 1.391 . S
C723 C722 1.386 . S
C723 C727 1.393 . S
C724 H716 0.950 . S
C724 C722 1.391 . S
C724 C725 1.400 . S
C725 C724 1.400 . S
C725 C726 1.398 . S
C725 C731 1.491 . S
C726 H717 0.950 . S
C726 C725 1.398 . S
C726 C727 1.391 . S
C727 H715 0.950 . S
C727 C723 1.393 . S
C727 C726 1.391 . S
C728 H718 0.950 . S
C728 C729 1.386 . S
C728 C730 1.391 . S
C729 C728 1.386 . S
C729 C733 1.393 . S
C730 H719 0.950 . S
C730 C728 1.391 . S
C730 C731 1.400 . S
C731 C725 1.491 . S
C731 C730 1.400 . S
C731 C732 1.398 . S
C732 H720 0.950 . S
C732 C731 1.398 . S
C732 C733 1.391 . S
C733 H721 0.950 . S
C733 C729 1.393 . S
C733 C732 1.391 . S
H734 C742 0.950 . S
H735 C747 0.950 . S
H736 C744 0.950 . S
H737 C746 0.950 . S
H738 C748 0.950 . S
H739 C750 0.950 . S
H740 C752 0.950 . S
H741 C753 0.950 . S
C742 H734 0.950 . S
C742 C743 1.386 . S
C742 C744 1.391 . S
C743 C742 1.386 . S
C743 C747 1.393 . S
C744 H736 0.950 . S
C744 C742 1.391 . S
C744 C745 1.400 . S
C745 C744 1.400 . S
C745 C746 1.398 . S
C745 C751 1.491 . S
C746 H737 0.950 . S
C746 C745 1.398 . S
C746 C747 1.391 . S
C747 H735 0.950 . S
C747 C743 1.393 . S
C747 C746 1.391 . S
C748 H738 0.950 . S
C748 C749 1.386 . S
C748 C750 1.391 . S
C749 C748 1.386 . S
C749 C753 1.393 . S
C750 H739 0.950 . S
C750 C748 1.391 . S
C750 C751 1.400 . S
C751 C745 1.491 . S
C751 C750 1.400 . S
C751 C752 1.398 . S
C752 H740 0.950 . S
C752 C751 1.398 . S
C752 C753 1.391 . S
C753 H741 0.950 . S
C753 C749 1.393 . S
C753 C752 1.391 . S
H754 C762 0.950 . S
H755 C767 0.950 . S
H756 C764 0.950 . S
H757 C766 0.950 . S
H758 C768 0.950 . S
H759 C770 0.950 . S
H760 C772 0.950 . S
H761 C773 0.950 . S
C762 H754 0.950 . S
C762 C763 1.386 . S
C762 C764 1.391 . S
C763 C762 1.386 . S
C763 C767 1.393 . S
C764 H756 0.950 . S
C764 C762 1.391 . S
C764 C765 1.400 . S
C765 C764 1.400 . S
C765 C766 1.398 . S
C765 C771 1.491 . S
C766 H757 0.950 . S
C766 C765 1.398 . S
C766 C767 1.391 . S
C767 H755 0.950 . S
C767 C763 1.393 . S
C767 C766 1.391 . S
C768 H758 0.950 . S
C768 C769 1.386 . S
C768 C770 1.391 . S
C769 C768 1.386 . S
C769 C773 1.393 . S
C770 H759 0.950 . S
C770 C768 1.391 . S
C770 C771 1.400 . S
C771 C765 1.491 . S
C771 C770 1.400 . S
C771 C772 1.398 . S
C772 H760 0.950 . S
C772 C771 1.398 . S
C772 C773 1.391 . S
C773 H761 0.950 . S
C773 C769 1.393 . S
C773 C772 1.391 . S
H774 C782 0.950 . S
H775 C787 0.950 . S
H776 C784 0.950 . S
H777 C786 0.950 . S
H778 C788 0.950 . S
H779 C790 0.950 . S
H780 C792 0.950 . S
H781 C793 0.950 . S
C782 H774 0.950 . S
C782 C783 1.386 . S
C782 C784 1.391 . S
C783 C782 1.386 . S
C783 C787 1.393 . S
C784 H776 0.950 . S
C784 C782 1.391 . S
C784 C785 1.400 . S
C785 C784 1.400 . S
C785 C786 1.398 . S
C785 C791 1.491 . S
C786 H777 0.950 . S
C786 C785 1.398 . S
C786 C787 1.391 . S
C787 H775 0.950 . S
C787 C783 1.393 . S
C787 C786 1.391 . S
C788 H778 0.950 . S
C788 C789 1.386 . S
C788 C790 1.391 . S
C789 C788 1.386 . S
C789 C793 1.393 . S
C790 H779 0.950 . S
C790 C788 1.391 . S
C790 C791 1.400 . S
C791 C785 1.491 . S
C791 C790 1.400 . S
C791 C792 1.398 . S
C792 H780 0.950 . S
C792 C791 1.398 . S
C792 C793 1.391 . S
C793 H781 0.950 . S
C793 C789 1.393 . S
C793 C792 1.391 . S
H794 C802 0.950 . S
H795 C807 0.950 . S
H796 C804 0.950 . S
H797 C806 0.950 . S
H798 C808 0.950 . S
H799 C810 0.950 . S
H800 C812 0.950 . S
H801 C813 0.950 . S
C802 H794 0.950 . S
C802 C803 1.386 . S
C802 C804 1.391 . S
C803 C802 1.386 . S
C803 C807 1.393 . S
C804 H796 0.950 . S
C804 C802 1.391 . S
C804 C805 1.400 . S
C805 C804 1.400 . S
C805 C806 1.398 . S
C805 C811 1.491 . S
C806 H797 0.950 . S
C806 C805 1.398 . S
C806 C807 1.391 . S
C807 H795 0.950 . S
C807 C803 1.393 . S
C807 C806 1.391 . S
C808 H798 0.950 . S
C808 C809 1.386 . S
C808 C810 1.391 . S
C809 C808 1.386 . S
C809 C813 1.393 . S
C810 H799 0.950 . S
C810 C808 1.391 . S
C810 C811 1.400 . S
C811 C805 1.491 . S
C811 C810 1.400 . S
C811 C812 1.398 . S
C812 H800 0.950 . S
C812 C811 1.398 . S
C812 C813 1.391 . S
C813 H801 0.950 . S
C813 C809 1.393 . S
C813 C812 1.391 . S
H814 C822 0.950 . S
H815 C827 0.950 . S
H816 C824 0.950 . S
H817 C826 0.950 . S
H818 C828 0.950 . S
H819 C830 0.950 . S
H820 C832 0.950 . S
H821 C833 0.950 . S
C822 H814 0.950 . S
C822 C823 1.386 . S
C822 C824 1.391 . S
C823 C822 1.386 . S
C823 C827 1.393 . S
C824 H816 0.950 . S
C824 C822 1.391 . S
C824 C825 1.400 . S
C825 C824 1.400 . S
C825 C826 1.398 . S
C825 C831 1.491 . S
C826 H817 0.950 . S
C826 C825 1.398 . S
C826 C827 1.391 . S
C827 H815 0.950 . S
C827 C823 1.393 . S
C827 C826 1.391 . S
C828 H818 0.950 . S
C828 C829 1.386 . S
C828 C830 1.391 . S
C829 C828 1.386 . S
C829 C833 1.393 . S
C830 H819 0.950 . S
C830 C828 1.391 . S
C830 C831 1.400 . S
C831 C825 1.491 . S
C831 C830 1.400 . S
C831 C832 1.398 . S
C832 H820 0.950 . S
C832 C831 1.398 . S
C832 C833 1.391 . S
C833 H821 0.950 . S
C833 C829 1.393 . S
C833 C832 1.391 . S
H834 C842 0.950 . S
H835 C847 0.950 . S
H836 C844 0.950 . S
H837 C846 0.950 . S
H838 C848 0.950 . S
H839 C850 0.950 . S
H840 C852 0.950 . S
H841 C853 0.950 . S
C842 H834 0.950 . S
C842 C843 1.386 . S
C842 C844 1.391 . S
C843 C842 1.386 . S
C843 C847 1.393 . S
C844 H836 0.950 . S
C844 C842 1.391 . S
C844 C845 1.400 . S
C845 C844 1.400 . S
C845 C846 1.398 . S
C845 C851 1.491 . S
C846 H837 0.950 . S
C846 C845 1.398 . S
C846 C847 1.391 . S
C847 H835 0.950 . S
C847 C843 1.393 . S
C847 C846 1.391 . S
C848 H838 0.950 . S
C848 C849 1.386 . S
C848 C850 1.391 . S
C849 C848 1.386 . S
C849 C853 1.393 . S
C850 H839 0.950 . S
C850 C848 1.391 . S
C850 C851 1.400 . S
C851 C845 1.491 . S
C851 C850 1.400 . S
C851 C852 1.398 . S
C852 H840 0.950 . S
C852 C851 1.398 . S
C852 C853 1.391 . S
C853 H841 0.950 . S
C853 C849 1.393 . S
C853 C852 1.391 . S
H854 C862 0.950 . S
H855 C867 0.950 . S
H856 C864 0.950 . S
H857 C866 0.950 . S
H858 C868 0.950 . S
H859 C870 0.950 . S
H860 C872 0.950 . S
H861 C873 0.950 . S
C862 H854 0.950 . S
C862 C863 1.386 . S
C862 C864 1.391 . S
C863 C862 1.386 . S
C863 C867 1.393 . S
C864 H856 0.950 . S
C864 C862 1.391 . S
C864 C865 1.400 . S
C865 C864 1.400 . S
C865 C866 1.398 . S
C865 C871 1.491 . S
C866 H857 0.950 . S
C866 C865 1.398 . S
C866 C867 1.391 . S
C867 H855 0.950 . S
C867 C863 1.393 . S
C867 C866 1.391 . S
C868 H858 0.950 . S
C868 C869 1.386 . S
C868 C870 1.391 . S
C869 C868 1.386 . S
C869 C873 1.393 . S
C870 H859 0.950 . S
C870 C868 1.391 . S
C870 C871 1.400 . S
C871 C865 1.491 . S
C871 C870 1.400 . S
C871 C872 1.398 . S
C872 H860 0.950 . S
C872 C871 1.398 . S
C872 C873 1.391 . S
C873 H861 0.950 . S
C873 C869 1.393 . S
C873 C872 1.391 . S
H874 C882 0.950 . S
H875 C887 0.950 . S
H876 C884 0.950 . S
H877 C886 0.950 . S
H878 C888 0.950 . S
H879 C890 0.950 . S
H880 C892 0.950 . S
H881 C893 0.950 . S
C882 H874 0.950 . S
C882 C883 1.386 . S
C882 C884 1.391 . S
C883 C882 1.386 . S
C883 C887 1.393 . S
C884 H876 0.950 . S
C884 C882 1.391 . S
C884 C885 1.400 . S
C885 C884 1.400 . S
C885 C886 1.398 . S
C885 C891 1.491 . S
C886 H877 0.950 . S
C886 C885 1.398 . S
C886 C887 1.391 . S
C887 H875 0.950 . S
C887 C883 1.393 . S
C887 C886 1.391 . S
C888 H878 0.950 . S
C888 C889 1.386 . S
C888 C890 1.391 . S
C889 C888 1.386 . S
C889 C893 1.393 . S
C890 H879 0.950 . S
C890 C888 1.391 . S
C890 C891 1.400 . S
C891 C885 1.491 . S
C891 C890 1.400 . S
C891 C892 1.398 . S
C892 H880 0.950 . S
C892 C891 1.398 . S
C892 C893 1.391 . S
C893 H881 0.950 . S
C893 C889 1.393 . S
C893 C892 1.391 . S
H894 C902 0.950 . S
H895 C907 0.950 . S
H896 C904 0.950 . S
H897 C906 0.950 . S
H898 C908 0.950 . S
H899 C910 0.950 . S
H900 C912 0.950 . S
H901 C913 0.950 . S
C902 H894 0.950 . S
C902 C903 1.386 . S
C902 C904 1.391 . S
C903 C902 1.386 . S
C903 C907 1.393 . S
C904 H896 0.950 . S
C904 C902 1.391 . S
C904 C905 1.400 . S
C905 C904 1.400 . S
C905 C906 1.398 . S
C905 C911 1.491 . S
C906 H897 0.950 . S
C906 C905 1.398 . S
C906 C907 1.391 . S
C907 H895 0.950 . S
C907 C903 1.393 . S
C907 C906 1.391 . S
C908 H898 0.950 . S
C908 C909 1.386 . S
C908 C910 1.391 . S
C909 C908 1.386 . S
C909 C913 1.393 . S
C910 H899 0.950 . S
C910 C908 1.391 . S
C910 C911 1.400 . S
C911 C905 1.491 . S
C911 C910 1.400 . S
C911 C912 1.398 . S
C912 H900 0.950 . S
C912 C911 1.398 . S
C912 C913 1.391 . S
C913 H901 0.950 . S
C913 C909 1.393 . S
C913 C912 1.391 . S
H914 C922 0.950 . S
H915 C927 0.950 . S
H916 C924 0.950 . S
H917 C926 0.950 . S
H918 C928 0.950 . S
H919 C930 0.950 . S
H920 C932 0.950 . S
H921 C933 0.950 . S
C922 H914 0.950 . S
C922 C923 1.386 . S
C922 C924 1.391 . S
C923 C922 1.386 . S
C923 C927 1.393 . S
C924 H916 0.950 . S
C924 C922 1.391 . S
C924 C925 1.400 . S
C925 C924 1.400 . S
C925 C926 1.398 . S
C925 C931 1.491 . S
C926 H917 0.950 . S
C926 C925 1.398 . S
C926 C927 1.391 . S
C927 H915 0.950 . S
C927 C923 1.393 . S
C927 C926 1.391 . S
C928 H918 0.950 . S
C928 C929 1.386 . S
C928 C930 1.391 . S
C929 C928 1.386 . S
C929 C933 1.393 . S
C930 H919 0.950 . S
C930 C928 1.391 . S
C930 C931 1.400 . S
C931 C925 1.491 . S
C931 C930 1.400 . S
C931 C932 1.398 . S
C932 H920 0.950 . S
C932 C931 1.398 . S
C932 C933 1.391 . S
C933 H921 0.950 . S
C933 C929 1.393 . S
C933 C932 1.391 . S
H934 C942 0.950 . S
H935 C947 0.950 . S
H936 C944 0.950 . S
H937 C946 0.950 . S
H938 C948 0.950 . S
H939 C950 0.950 . S
H940 C952 0.950 . S
H941 C953 0.950 . S
C942 H934 0.950 . S
C942 C943 1.386 . S
C942 C944 1.391 . S
C943 C942 1.386 . S
C943 C947 1.393 . S
C944 H936 0.950 . S
C944 C942 1.391 . S
C944 C945 1.400 . S
C945 C944 1.400 . S
C945 C946 1.398 . S
C945 C951 1.491 . S
C946 H937 0.950 . S
C946 C945 1.398 . S
C946 C947 1.391 . S
C947 H935 0.950 . S
C947 C943 1.393 . S
C947 C946 1.391 . S
C948 H938 0.950 . S
C948 C949 1.386 . S
C948 C950 1.391 . S
C949 C948 1.386 . S
C949 C953 1.393 . S
C950 H939 0.950 . S
C950 C948 1.391 . S
C950 C951 1.400 . S
C951 C945 1.491 . S
C951 C950 1.400 . S
C951 C952 1.398 . S
C952 H940 0.950 . S
C952 C951 1.398 . S
C952 C953 1.391 . S
C953 H941 0.950 . S
C953 C949 1.393 . S
C953 C952 1.391 . S
H954 C962 0.950 . S
H955 C967 0.950 . S
H956 C964 0.950 . S
H957 C966 0.950 . S
H958 C968 0.950 . S
H959 C970 0.950 . S
H960 C972 0.950 . S
H961 C973 0.950 . S
C962 H954 0.950 . S
C962 C963 1.386 . S
C962 C964 1.391 . S
C963 C962 1.386 . S
C963 C967 1.393 . S
C964 H956 0.950 . S
C964 C962 1.391 . S
C964 C965 1.400 . S
C965 C964 1.400 . S
C965 C966 1.398 . S
C965 C971 1.491 . S
C966 H957 0.950 . S
C966 C965 1.398 . S
C966 C967 1.391 . S
C967 H955 0.950 . S
C967 C963 1.393 . S
C967 C966 1.391 . S
C968 H958 0.950 . S
C968 C969 1.386 . S
C968 C970 1.391 . S
C969 C968 1.386 . S
C969 C973 1.393 . S
C970 H959 0.950 . S
C970 C968 1.391 . S
C970 C971 1.400 . S
C971 C965 1.491 . S
C971 C970 1.400 . S
C971 C972 1.398 . S
C972 H960 0.950 . S
C972 C971 1.398 . S
C972 C973 1.391 . S
C973 H961 0.950 . S
C973 C969 1.393 . S
C973 C972 1.391 . S
H974 C982 0.950 . S
H975 C987 0.950 . S
H976 C984 0.950 . S
H977 C986 0.950 . S
H978 C988 0.950 . S
H979 C990 0.950 . S
H980 C992 0.950 . S
H981 C993 0.950 . S
C982 H974 0.950 . S
C982 C983 1.386 . S
C982 C984 1.391 . S
C983 C982 1.386 . S
C983 C987 1.393 . S
C984 H976 0.950 . S
C984 C982 1.391 . S
C984 C985 1.400 . S
C985 C984 1.400 . S
C985 C986 1.398 . S
C985 C991 1.491 . S
C986 H977 0.950 . S
C986 C985 1.398 . S
C986 C987 1.391 . S
C987 H975 0.950 . S
C987 C983 1.393 . S
C987 C986 1.391 . S
C988 H978 0.950 . S
C988 C989 1.386 . S
C988 C990 1.391 . S
C989 C988 1.386 . S
C989 C993 1.393 . S
C990 H979 0.950 . S
C990 C988 1.391 . S
C990 C991 1.400 . S
C991 C985 1.491 . S
C991 C990 1.400 . S
C991 C992 1.398 . S
C992 H980 0.950 . S
C992 C991 1.398 . S
C992 C993 1.391 . S
C993 H981 0.950 . S
C993 C989 1.393 . S
C993 C992 1.391 . S
H994 C1002 0.950 . S
H995 C1007 0.950 . S
H996 C1004 0.950 . S
H997 C1006 0.950 . S
H998 C1008 0.950 . S
H999 C1010 0.950 . S
H1000 C1012 0.950 . S
H1001 C1013 0.950 . S
C1002 H994 0.950 . S
C1002 C1003 1.386 . S
C1002 C1004 1.391 . S
C1003 C1002 1.386 . S
C1003 C1007 1.393 . S
C1004 H996 0.950 . S
C1004 C1002 1.391 . S
C1004 C1005 1.400 . S
C1005 C1004 1.400 . S
C1005 C1006 1.398 . S
C1005 C1011 1.491 . S
C1006 H997 0.950 . S
C1006 C1005 1.398 . S
C1006 C1007 1.391 . S
C1007 H995 0.950 . S
C1007 C1003 1.393 . S
C1007 C1006 1.391 . S
C1008 H998 0.950 . S
C1008 C1009 1.386 . S
C1008 C1010 1.391 . S
C1009 C1008 1.386 . S
C1009 C1013 1.393 . S
C1010 H999 0.950 . S
C1010 C1008 1.391 . S
C1010 C1011 1.400 . S
C1011 C1005 1.491 . S
C1011 C1010 1.400 . S
C1011 C1012 1.398 . S
C1012 H1000 0.950 . S
C1012 C1011 1.398 . S
C1012 C1013 1.391 . S
C1013 H1001 0.950 . S
C1013 C1009 1.393 . S
C1013 C1012 1.391 . S
H1014 C1022 0.950 . S
H1015 C1027 0.950 . S
H1016 C1024 0.950 . S
H1017 C1026 0.950 . S
H1018 C1028 0.950 . S
H1019 C1030 0.950 . S
H1020 C1032 0.950 . S
H1021 C1033 0.950 . S
C1022 H1014 0.950 . S
C1022 C1023 1.386 . S
C1022 C1024 1.391 . S
C1023 C1022 1.386 . S
C1023 C1027 1.393 . S
C1024 H1016 0.950 . S
C1024 C1022 1.391 . S
C1024 C1025 1.400 . S
C1025 C1024 1.400 . S
C1025 C1026 1.398 . S
C1025 C1031 1.491 . S
C1026 H1017 0.950 . S
C1026 C1025 1.398 . S
C1026 C1027 1.391 . S
C1027 H1015 0.950 . S
C1027 C1023 1.393 . S
C1027 C1026 1.391 . S
C1028 H1018 0.950 . S
C1028 C1029 1.386 . S
C1028 C1030 1.391 . S
C1029 C1028 1.386 . S
C1029 C1033 1.393 . S
C1030 H1019 0.950 . S
C1030 C1028 1.391 . S
C1030 C1031 1.400 . S
C1031 C1025 1.491 . S
C1031 C1030 1.400 . S
C1031 C1032 1.398 . S
C1032 H1020 0.950 . S
C1032 C1031 1.398 . S
C1032 C1033 1.391 . S
C1033 H1021 0.950 . S
C1033 C1029 1.393 . S
C1033 C1032 1.391 . S
H1034 C1042 0.950 . S
H1035 C1047 0.950 . S
H1036 C1044 0.950 . S
H1037 C1046 0.950 . S
H1038 C1048 0.950 . S
H1039 C1050 0.950 . S
H1040 C1052 0.950 . S
H1041 C1053 0.950 . S
C1042 H1034 0.950 . S
C1042 C1043 1.386 . S
C1042 C1044 1.391 . S
C1043 C1042 1.386 . S
C1043 C1047 1.393 . S
C1044 H1036 0.950 . S
C1044 C1042 1.391 . S
C1044 C1045 1.400 . S
C1045 C1044 1.400 . S
C1045 C1046 1.398 . S
C1045 C1051 1.491 . S
C1046 H1037 0.950 . S
C1046 C1045 1.398 . S
C1046 C1047 1.391 . S
C1047 H1035 0.950 . S
C1047 C1043 1.393 . S
C1047 C1046 1.391 . S
C1048 H1038 0.950 . S
C1048 C1049 1.386 . S
C1048 C1050 1.391 . S
C1049 C1048 1.386 . S
C1049 C1053 1.393 . S
C1050 H1039 0.950 . S
C1050 C1048 1.391 . S
C1050 C1051 1.400 . S
C1051 C1045 1.491 . S
C1051 C1050 1.400 . S
C1051 C1052 1.398 . S
C1052 H1040 0.950 . S
C1052 C1051 1.398 . S
C1052 C1053 1.391 . S
C1053 H1041 0.950 . S
C1053 C1049 1.393 . S
C1053 C1052 1.391 . S
H1054 C1062 0.950 . S
H1055 C1067 0.950 . S
H1056 C1064 0.950 . S
H1057 C1066 0.950 . S
H1058 C1068 0.950 . S
H1059 C1070 0.950 . S
H1060 C1072 0.950 . S
H1061 C1073 0.950 . S
C1062 H1054 0.950 . S
C1062 C1063 1.386 . S
C1062 C1064 1.391 . S
C1063 C1062 1.386 . S
C1063 C1067 1.393 . S
C1064 H1056 0.950 . S
C1064 C1062 1.391 . S
C1064 C1065 1.400 . S
C1065 C1064 1.400 . S
C1065 C1066 1.398 . S
C1065 C1071 1.491 . S
C1066 H1057 0.950 . S
C1066 C1065 1.398 . S
C1066 C1067 1.391 . S
C1067 H1055 0.950 . S
C1067 C1063 1.393 . S
C1067 C1066 1.391 . S
C1068 H1058 0.950 . S
C1068 C1069 1.386 . S
C1068 C1070 1.391 . S
C1069 C1068 1.386 . S
C1069 C1073 1.393 . S
C1070 H1059 0.950 . S
C1070 C1068 1.391 . S
C1070 C1071 1.400 . S
C1071 C1065 1.491 . S
C1071 C1070 1.400 . S
C1071 C1072 1.398 . S
C1072 H1060 0.950 . S
C1072 C1071 1.398 . S
C1072 C1073 1.391 . S
C1073 H1061 0.950 . S
C1073 C1069 1.393 . S
C1073 C1072 1.391 . S
H1074 C1082 0.950 . S
H1075 C1087 0.950 . S
H1076 C1084 0.950 1_455 S
H1077 C1086 0.950 . S
H1078 C1088 0.950 . S
H1079 C1090 0.950 . S
H1080 C1092 0.950 . S
H1081 C1093 0.950 . S
C1082 H1074 0.950 . S
C1082 C1083 1.386 . S
C1082 C1084 1.391 . S
C1083 C1082 1.386 . S
C1083 C1087 1.393 . S
C1084 H1076 0.950 1_655 S
C1084 C1082 1.391 . S
C1084 C1085 1.400 1_655 S
C1085 C1084 1.400 1_455 S
C1085 C1086 1.398 1_455 S
C1085 C1091 1.491 . S
C1086 H1077 0.950 . S
C1086 C1085 1.398 1_655 S
C1086 C1087 1.391 . S
C1087 H1075 0.950 . S
C1087 C1083 1.393 . S
C1087 C1086 1.391 . S
C1088 H1078 0.950 . S
C1088 C1089 1.386 . S
C1088 C1090 1.391 . S
C1089 C1088 1.386 . S
C1089 C1093 1.393 . S
C1090 H1079 0.950 . S
C1090 C1088 1.391 . S
C1090 C1091 1.400 . S
C1091 C1085 1.491 . S
C1091 C1090 1.400 . S
C1091 C1092 1.398 . S
C1092 H1080 0.950 . S
C1092 C1091 1.398 . S
C1092 C1093 1.391 . S
C1093 H1081 0.950 . S
C1093 C1089 1.393 . S
C1093 C1092 1.391 . S
H1094 C1102 0.950 . S
H1095 C1107 0.950 . S
H1096 C1104 0.950 . S
H1097 C1106 0.950 . S
H1098 C1108 0.950 . S
H1099 C1110 0.950 . S
H1100 C1112 0.950 . S
H1101 C1113 0.950 . S
C1102 H1094 0.950 . S
C1102 C1103 1.386 . S
C1102 C1104 1.391 . S
C1103 C1102 1.386 . S
C1103 C1107 1.393 . S
C1104 H1096 0.950 . S
C1104 C1102 1.391 . S
C1104 C1105 1.400 . S
C1105 C1104 1.400 . S
C1105 C1106 1.398 . S
C1105 C1111 1.491 . S
C1106 H1097 0.950 . S
C1106 C1105 1.398 . S
C1106 C1107 1.391 . S
C1107 H1095 0.950 . S
C1107 C1103 1.393 . S
C1107 C1106 1.391 . S
C1108 H1098 0.950 . S
C1108 C1109 1.386 . S
C1108 C1110 1.391 . S
C1109 C1108 1.386 . S
C1109 C1113 1.393 . S
C1110 H1099 0.950 . S
C1110 C1108 1.391 . S
C1110 C1111 1.400 . S
C1111 C1105 1.491 . S
C1111 C1110 1.400 . S
C1111 C1112 1.398 . S
C1112 H1100 0.950 . S
C1112 C1111 1.398 . S
C1112 C1113 1.391 . S
C1113 H1101 0.950 . S
C1113 C1109 1.393 . S
C1113 C1112 1.391 . S
H1114 C1122 0.950 . S
H1115 C1127 0.950 . S
H1116 C1124 0.950 1_545 S
H1117 C1126 0.950 . S
H1118 C1128 0.950 . S
H1119 C1130 0.950 . S
H1120 C1132 0.950 . S
H1121 C1133 0.950 . S
C1122 H1114 0.950 . S
C1122 C1123 1.386 . S
C1122 C1124 1.391 . S
C1123 C1122 1.386 . S
C1123 C1127 1.393 . S
C1124 H1116 0.950 1_565 S
C1124 C1122 1.391 . S
C1124 C1125 1.400 1_565 S
C1125 C1124 1.400 1_545 S
C1125 C1126 1.398 1_545 S
C1125 C1131 1.491 . S
C1126 H1117 0.950 . S
C1126 C1125 1.398 1_565 S
C1126 C1127 1.391 . S
C1127 H1115 0.950 . S
C1127 C1123 1.393 . S
C1127 C1126 1.391 . S
C1128 H1118 0.950 . S
C1128 C1129 1.386 . S
C1128 C1130 1.391 . S
C1129 C1128 1.386 . S
C1129 C1133 1.393 . S
C1130 H1119 0.950 . S
C1130 C1128 1.391 . S
C1130 C1131 1.400 . S
C1131 C1125 1.491 . S
C1131 C1130 1.400 . S
C1131 C1132 1.398 . S
C1132 H1120 0.950 . S
C1132 C1131 1.398 . S
C1132 C1133 1.391 . S
C1133 H1121 0.950 . S
C1133 C1129 1.393 . S
C1133 C1132 1.391 . S
H1134 C1142 0.950 . S
H1135 C1147 0.950 . S
H1136 C1144 0.950 . S
H1137 C1146 0.950 . S
H1138 C1148 0.950 . S
H1139 C1150 0.950 . S
H1140 C1152 0.950 . S
H1141 C1153 0.950 . S
C1142 H1134 0.950 . S
C1142 C1143 1.386 1_565 S
C1142 C1144 1.391 . S
C1143 C1142 1.386 1_545 S
C1143 C1147 1.393 . S
C1144 H1136 0.950 . S
C1144 C1142 1.391 . S
C1144 C1145 1.400 1_565 S
C1145 C1144 1.400 1_545 S
C1145 C1146 1.398 . S
C1145 C1151 1.491 . S
C1146 H1137 0.950 . S
C1146 C1145 1.398 . S
C1146 C1147 1.391 . S
C1147 H1135 0.950 . S
C1147 C1143 1.393 . S
C1147 C1146 1.391 . S
C1148 H1138 0.950 . S
C1148 C1149 1.386 . S
C1148 C1150 1.391 . S
C1149 C1148 1.386 . S
C1149 C1153 1.393 1_545 S
C1150 H1139 0.950 . S
C1150 C1148 1.391 . S
C1150 C1151 1.400 . S
C1151 C1145 1.491 . S
C1151 C1150 1.400 . S
C1151 C1152 1.398 1_545 S
C1152 H1140 0.950 . S
C1152 C1151 1.398 1_565 S
C1152 C1153 1.391 . S
C1153 H1141 0.950 . S
C1153 C1149 1.393 1_565 S
C1153 C1152 1.391 . S
H1154 C1162 0.950 . S
H1155 C1167 0.950 . S
H1156 C1164 0.950 . S
H1157 C1166 0.950 . S
H1158 C1168 0.950 . S
H1159 C1170 0.950 . S
H1160 C1172 0.958 . S
H1161 C1173 0.950 1_655 S
C1162 H1154 0.950 . S
C1162 C1163 1.386 1_655 S
C1162 C1164 1.391 . S
C1163 C1162 1.386 1_455 S
C1163 C1167 1.393 . S
C1164 H1156 0.950 . S
C1164 C1162 1.391 . S
C1164 C1165 1.400 1_655 S
C1165 C1164 1.400 1_455 S
C1165 C1166 1.398 . S
C1165 C1171 1.491 . S
C1166 H1157 0.950 . S
C1166 C1165 1.398 . S
C1166 C1167 1.391 . S
C1167 H1155 0.950 . S
C1167 C1163 1.393 . S
C1167 C1166 1.391 . S
C1168 H1158 0.950 . S
C1168 C1169 1.386 . S
C1168 C1170 1.391 . S
C1169 C1168 1.386 . S
C1169 C1173 1.393 . S
C1170 H1159 0.950 . S
C1170 C1168 1.391 . S
C1170 C1171 1.400 . S
C1171 C1165 1.491 . S
C1171 C1170 1.400 . S
C1171 C1172 1.391 1_455 S
C1172 H1160 0.958 . S
C1172 C1171 1.391 1_655 S
C1172 C1173 1.390 1_655 S
C1173 H1161 0.950 1_455 S
C1173 C1169 1.393 . S
C1173 C1172 1.390 1_455 S
H1174 C1182 0.950 . S
H1175 C1187 0.950 . S
H1176 C1184 0.950 . S
H1177 C1186 0.950 . S
H1178 C1188 0.950 . S
H1179 C1190 0.950 . S
H1180 C1192 0.950 . S
H1181 C1193 0.950 . S
C1182 H1174 0.950 . S
C1182 C1183 1.386 . S
C1182 C1184 1.391 . S
C1183 C1182 1.386 . S
C1183 C1187 1.393 . S
C1184 H1176 0.950 . S
C1184 C1182 1.391 . S
C1184 C1185 1.400 . S
C1185 C1184 1.400 . S
C1185 C1186 1.398 . S
C1185 C1191 1.491 . S
C1186 H1177 0.950 . S
C1186 C1185 1.398 . S
C1186 C1187 1.391 . S
C1187 H1175 0.950 . S
C1187 C1183 1.393 . S
C1187 C1186 1.391 . S
C1188 H1178 0.950 . S
C1188 C1189 1.386 . S
C1188 C1190 1.391 . S
C1189 C1188 1.386 . S
C1189 C1193 1.393 . S
C1190 H1179 0.950 . S
C1190 C1188 1.391 . S
C1190 C1191 1.400 . S
C1191 C1185 1.491 . S
C1191 C1190 1.400 . S
C1191 C1192 1.398 . S
C1192 H1180 0.950 . S
C1192 C1191 1.398 . S
C1192 C1193 1.391 . S
C1193 H1181 0.950 . S
C1193 C1189 1.393 . S
C1193 C1192 1.391 . S
H1194 C1202 0.950 . S
H1195 C1207 0.950 . S
H1196 C1204 0.950 . S
H1197 C1206 0.950 . S
H1198 C1208 0.950 . S
H1199 C1210 0.950 . S
H1200 C1212 0.950 . S
H1201 C1213 0.950 . S
C1202 H1194 0.950 . S
C1202 C1203 1.386 . S
C1202 C1204 1.391 . S
C1203 C1202 1.386 . S
C1203 C1207 1.393 . S
C1204 H1196 0.950 . S
C1204 C1202 1.391 . S
C1204 C1205 1.400 . S
C1205 C1204 1.400 . S
C1205 C1206 1.398 . S
C1205 C1211 1.491 . S
C1206 H1197 0.950 . S
C1206 C1205 1.398 . S
C1206 C1207 1.391 . S
C1207 H1195 0.950 . S
C1207 C1203 1.393 . S
C1207 C1206 1.391 . S
C1208 H1198 0.950 . S
C1208 C1209 1.386 . S
C1208 C1210 1.391 . S
C1209 C1208 1.386 . S
C1209 C1213 1.393 . S
C1210 H1199 0.950 . S
C1210 C1208 1.391 . S
C1210 C1211 1.400 . S
C1211 C1205 1.491 . S
C1211 C1210 1.400 . S
C1211 C1212 1.398 . S
C1212 H1200 0.950 . S
C1212 C1211 1.398 . S
C1212 C1213 1.391 . S
C1213 H1201 0.950 . S
C1213 C1209 1.393 . S
C1213 C1212 1.391 . S
H1214 C1222 0.950 . S
H1215 C1227 0.950 . S
H1216 C1224 0.950 . S
H1217 C1226 0.950 . S
H1218 C1228 0.950 . S
H1219 C1230 0.950 . S
H1220 C1232 0.950 . S
H1221 C1233 0.950 . S
C1222 H1214 0.950 . S
C1222 C1223 1.386 . S
C1222 C1224 1.391 . S
C1223 C1222 1.386 . S
C1223 C1227 1.393 . S
C1224 H1216 0.950 . S
C1224 C1222 1.391 . S
C1224 C1225 1.400 . S
C1225 C1224 1.400 . S
C1225 C1226 1.398 . S
C1225 C1231 1.491 . S
C1226 H1217 0.950 . S
C1226 C1225 1.398 . S
C1226 C1227 1.391 . S
C1227 H1215 0.950 . S
C1227 C1223 1.393 . S
C1227 C1226 1.391 . S
C1228 H1218 0.950 . S
C1228 C1229 1.386 . S
C1228 C1230 1.391 . S
C1229 C1228 1.386 . S
C1229 C1233 1.393 . S
C1230 H1219 0.950 . S
C1230 C1228 1.391 . S
C1230 C1231 1.400 . S
C1231 C1225 1.491 . S
C1231 C1230 1.400 . S
C1231 C1232 1.398 . S
C1232 H1220 0.950 . S
C1232 C1231 1.398 . S
C1232 C1233 1.391 . S
C1233 H1221 0.950 . S
C1233 C1229 1.393 . S
C1233 C1232 1.391 . S
H1234 C1242 0.950 . S
H1235 C1247 0.950 . S
H1236 C1244 0.950 . S
H1237 C1246 0.950 . S
H1238 C1248 0.950 . S
H1239 C1250 0.950 . S
H1240 C1252 0.950 . S
H1241 C1253 0.950 . S
C1242 H1234 0.950 . S
C1242 C1243 1.386 . S
C1242 C1244 1.391 . S
C1243 C1242 1.386 . S
C1243 C1247 1.393 . S
C1244 H1236 0.950 . S
C1244 C1242 1.391 . S
C1244 C1245 1.400 . S
C1245 C1244 1.400 . S
C1245 C1246 1.398 . S
C1245 C1251 1.491 . S
C1246 H1237 0.950 . S
C1246 C1245 1.398 . S
C1246 C1247 1.391 . S
C1247 H1235 0.950 . S
C1247 C1243 1.393 . S
C1247 C1246 1.391 . S
C1248 H1238 0.950 . S
C1248 C1249 1.386 . S
C1248 C1250 1.391 . S
C1249 C1248 1.386 . S
C1249 C1253 1.393 . S
C1250 H1239 0.950 . S
C1250 C1248 1.391 . S
C1250 C1251 1.400 . S
C1251 C1245 1.491 . S
C1251 C1250 1.400 . S
C1251 C1252 1.398 . S
C1252 H1240 0.950 . S
C1252 C1251 1.398 . S
C1252 C1253 1.391 . S
C1253 H1241 0.950 . S
C1253 C1249 1.393 . S
C1253 C1252 1.391 . S
H1254 C1262 0.950 . S
H1255 C1267 0.950 . S
H1256 C1264 0.950 . S
H1257 C1266 0.950 . S
H1258 C1268 0.950 . S
H1259 C1270 0.950 . S
H1260 C1272 0.950 . S
H1261 C1273 0.950 . S
C1262 H1254 0.950 . S
C1262 C1263 1.386 . S
C1262 C1264 1.391 . S
C1263 C1262 1.386 . S
C1263 C1267 1.393 . S
C1264 H1256 0.950 . S
C1264 C1262 1.391 . S
C1264 C1265 1.400 . S
C1265 C1264 1.400 . S
C1265 C1266 1.398 . S
C1265 C1271 1.491 . S
C1266 H1257 0.950 . S
C1266 C1265 1.398 . S
C1266 C1267 1.391 . S
C1267 H1255 0.950 . S
C1267 C1263 1.393 . S
C1267 C1266 1.391 . S
C1268 H1258 0.950 . S
C1268 C1269 1.386 . S
C1268 C1270 1.391 . S
C1269 C1268 1.386 . S
C1269 C1273 1.393 . S
C1270 H1259 0.950 . S
C1270 C1268 1.391 . S
C1270 C1271 1.400 . S
C1271 C1265 1.491 . S
C1271 C1270 1.400 . S
C1271 C1272 1.398 . S
C1272 H1260 0.950 . S
C1272 C1271 1.398 . S
C1272 C1273 1.391 . S
C1273 H1261 0.950 . S
C1273 C1269 1.393 . S
C1273 C1272 1.391 . S
H1274 C1282 0.950 . S
H1275 C1287 0.950 . S
H1276 C1284 0.950 . S
H1277 C1286 0.950 . S
H1278 C1288 0.950 . S
H1279 C1290 0.950 . S
H1280 C1292 0.950 . S
H1281 C1293 0.950 . S
C1282 H1274 0.950 . S
C1282 C1283 1.386 . S
C1282 C1284 1.391 . S
C1283 C1282 1.386 . S
C1283 C1287 1.393 . S
C1284 H1276 0.950 . S
C1284 C1282 1.391 . S
C1284 C1285 1.400 . S
C1285 C1284 1.400 . S
C1285 C1286 1.398 . S
C1285 C1291 1.491 . S
C1286 H1277 0.950 . S
C1286 C1285 1.398 . S
C1286 C1287 1.391 . S
C1287 H1275 0.950 . S
C1287 C1283 1.393 . S
C1287 C1286 1.391 . S
C1288 H1278 0.950 . S
C1288 C1289 1.386 . S
C1288 C1290 1.391 . S
C1289 C1288 1.386 . S
C1289 C1293 1.393 . S
C1290 H1279 0.950 . S
C1290 C1288 1.391 . S
C1290 C1291 1.400 . S
C1291 C1285 1.491 . S
C1291 C1290 1.400 . S
C1291 C1292 1.398 . S
C1292 H1280 0.950 . S
C1292 C1291 1.398 . S
C1292 C1293 1.391 . S
C1293 H1281 0.950 . S
C1293 C1289 1.393 . S
C1293 C1292 1.391 . S
H1294 C1302 0.950 . S
H1295 C1307 0.950 . S
H1296 C1304 0.950 . S
H1297 C1306 0.950 . S
H1298 C1308 0.950 . S
H1299 C1310 0.950 . S
H1300 C1312 0.950 . S
H1301 C1313 0.950 . S
C1302 H1294 0.950 . S
C1302 C1303 1.386 . S
C1302 C1304 1.391 . S
C1303 C1302 1.386 . S
C1303 C1307 1.393 . S
C1304 H1296 0.950 . S
C1304 C1302 1.391 . S
C1304 C1305 1.400 . S
C1305 C1304 1.400 . S
C1305 C1306 1.398 . S
C1305 C1311 1.491 . S
C1306 H1297 0.950 . S
C1306 C1305 1.398 . S
C1306 C1307 1.391 . S
C1307 H1295 0.950 . S
C1307 C1303 1.393 . S
C1307 C1306 1.391 . S
C1308 H1298 0.950 . S
C1308 C1309 1.386 . S
C1308 C1310 1.391 . S
C1309 C1308 1.386 . S
C1309 C1313 1.393 . S
C1310 H1299 0.950 . S
C1310 C1308 1.391 . S
C1310 C1311 1.400 . S
C1311 C1305 1.491 . S
C1311 C1310 1.400 . S
C1311 C1312 1.398 . S
C1312 H1300 0.950 . S
C1312 C1311 1.398 . S
C1312 C1313 1.391 . S
C1313 H1301 0.950 . S
C1313 C1309 1.393 . S
C1313 C1312 1.391 . S
H1314 C1322 0.950 . S
H1315 C1327 0.950 . S
H1316 C1324 0.950 . S
H1317 C1326 0.950 . S
H1318 C1328 0.950 . S
H1319 C1330 0.950 . S
H1320 C1332 0.950 . S
H1321 C1333 0.950 . S
C1322 H1314 0.950 . S
C1322 C1323 1.386 . S
C1322 C1324 1.391 . S
C1323 C1322 1.386 . S
C1323 C1327 1.393 1_545 S
C1324 H1316 0.950 . S
C1324 C1322 1.391 . S
C1324 C1325 1.400 . S
C1325 C1324 1.400 . S
C1325 C1326 1.398 1_545 S
C1325 C1331 1.491 1_554 S
C1326 H1317 0.950 . S
C1326 C1325 1.398 1_565 S
C1326 C1327 1.391 . S
C1327 H1315 0.950 . S
C1327 C1323 1.393 1_565 S
C1327 C1326 1.391 . S
C1328 H1318 0.950 . S
C1328 C1329 1.386 1_565 S
C1328 C1330 1.391 . S
C1329 C1328 1.386 1_545 S
C1329 C1333 1.393 . S
C1330 H1319 0.950 . S
C1330 C1328 1.391 . S
C1330 C1331 1.400 1_565 S
C1331 C1325 1.491 1_556 S
C1331 C1330 1.400 1_545 S
C1331 C1332 1.398 . S
C1332 H1320 0.950 . S
C1332 C1331 1.398 . S
C1332 C1333 1.391 . S
C1333 H1321 0.950 . S
C1333 C1329 1.393 . S
C1333 C1332 1.391 . S
H1334 C1342 0.950 . S
H1335 C1347 0.981 . S
H1336 C1344 0.950 . S
H1337 C1346 0.950 1_655 S
H1338 C1348 0.950 . S
H1339 C1350 0.970 . S
H1340 C1352 0.950 . S
H1341 C1353 0.950 . S
C1342 H1334 0.950 . S
C1342 C1343 1.386 . S
C1342 C1344 1.391 . S
C1343 C1342 1.386 . S
C1343 C1347 1.393 . S
C1344 H1336 0.950 . S
C1344 C1342 1.391 . S
C1344 C1345 1.400 . S
C1345 C1344 1.400 . S
C1345 C1346 1.398 . S
C1345 C1351 1.491 1_554 S
C1346 H1337 0.950 1_455 S
C1346 C1345 1.398 . S
C1346 C1347 1.391 . S
C1347 H1335 0.981 . S
C1347 C1343 1.393 . S
C1347 C1346 1.391 . S
C1348 H1338 0.950 . S
C1348 C1349 1.386 1_655 S
C1348 C1350 1.394 . S
C1349 C1348 1.386 1_455 S
C1349 C1353 1.393 . S
C1350 H1339 0.970 . S
C1350 C1348 1.394 . S
C1350 C1351 1.378 1_655 S
C1351 C1345 1.491 1_556 S
C1351 C1350 1.378 1_455 S
C1351 C1352 1.398 . S
C1352 H1340 0.950 . S
C1352 C1351 1.398 . S
C1352 C1353 1.391 . S
C1353 H1341 0.950 . S
C1353 C1349 1.393 . S
C1353 C1352 1.391 . S
H1354 C1362 0.950 . S
H1355 C1367 0.950 . S
H1356 C1364 0.950 . S
H1357 C1366 0.950 . S
H1358 C1368 0.950 . S
H1359 C1370 0.950 . S
H1360 C1372 0.950 . S
H1361 C1373 0.950 . S
C1362 H1354 0.950 . S
C1362 C1363 1.386 . S
C1362 C1364 1.391 . S
C1363 C1362 1.386 . S
C1363 C1367 1.393 . S
C1364 H1356 0.950 . S
C1364 C1362 1.391 . S
C1364 C1365 1.400 . S
C1365 C1364 1.400 . S
C1365 C1366 1.398 . S
C1365 C1371 1.491 1_556 S
C1366 H1357 0.950 . S
C1366 C1365 1.398 . S
C1366 C1367 1.391 . S
C1367 H1355 0.950 . S
C1367 C1363 1.393 . S
C1367 C1366 1.391 . S
C1368 H1358 0.950 . S
C1368 C1369 1.386 . S
C1368 C1370 1.391 . S
C1369 C1368 1.386 . S
C1369 C1373 1.393 . S
C1370 H1359 0.950 . S
C1370 C1368 1.391 . S
C1370 C1371 1.400 . S
C1371 C1365 1.491 1_554 S
C1371 C1370 1.400 . S
C1371 C1372 1.398 . S
C1372 H1360 0.950 . S
C1372 C1371 1.398 . S
C1372 C1373 1.391 . S
C1373 H1361 0.950 . S
C1373 C1369 1.393 . S
C1373 C1372 1.391 . S
H1374 C1382 0.950 . S
H1375 C1387 0.950 . S
H1376 C1384 0.950 . S
H1377 C1386 0.950 . S
H1378 C1388 0.950 . S
H1379 C1390 0.950 . S
H1380 C1392 0.950 . S
H1381 C1393 0.950 . S
C1382 H1374 0.950 . S
C1382 C1383 1.386 . S
C1382 C1384 1.391 . S
C1383 C1382 1.386 . S
C1383 C1387 1.393 . S
C1384 H1376 0.950 . S
C1384 C1382 1.391 . S
C1384 C1385 1.400 . S
C1385 C1384 1.400 . S
C1385 C1386 1.398 . S
C1385 C1391 1.491 . S
C1386 H1377 0.950 . S
C1386 C1385 1.398 . S
C1386 C1387 1.391 . S
C1387 H1375 0.950 . S
C1387 C1383 1.393 . S
C1387 C1386 1.391 . S
C1388 H1378 0.950 . S
C1388 C1389 1.386 . S
C1388 C1390 1.391 . S
C1389 C1388 1.386 . S
C1389 C1393 1.393 . S
C1390 H1379 0.950 . S
C1390 C1388 1.391 . S
C1390 C1391 1.400 . S
C1391 C1385 1.491 . S
C1391 C1390 1.400 . S
C1391 C1392 1.398 . S
C1392 H1380 0.950 . S
C1392 C1391 1.398 . S
C1392 C1393 1.391 . S
C1393 H1381 0.950 . S
C1393 C1389 1.393 . S
C1393 C1392 1.391 . S
H1394 C1402 0.950 . S
H1395 C1407 0.950 . S
H1396 C1404 0.950 . S
H1397 C1406 0.950 . S
H1398 C1408 0.950 . S
H1399 C1410 0.950 . S
H1400 C1412 0.950 . S
H1401 C1413 0.950 . S
C1402 H1394 0.950 . S
C1402 C1403 1.386 . S
C1402 C1404 1.391 . S
C1403 C1402 1.386 . S
C1403 C1407 1.393 . S
C1404 H1396 0.950 . S
C1404 C1402 1.391 . S
C1404 C1405 1.400 . S
C1405 C1404 1.400 . S
C1405 C1406 1.398 . S
C1405 C1411 1.491 . S
C1406 H1397 0.950 . S
C1406 C1405 1.398 . S
C1406 C1407 1.391 . S
C1407 H1395 0.950 . S
C1407 C1403 1.393 . S
C1407 C1406 1.391 . S
C1408 H1398 0.950 . S
C1408 C1409 1.386 . S
C1408 C1410 1.391 . S
C1409 C1408 1.386 . S
C1409 C1413 1.393 . S
C1410 H1399 0.950 . S
C1410 C1408 1.391 . S
C1410 C1411 1.400 . S
C1411 C1405 1.491 . S
C1411 C1410 1.400 . S
C1411 C1412 1.398 . S
C1412 H1400 0.950 . S
C1412 C1411 1.398 . S
C1412 C1413 1.391 . S
C1413 H1401 0.950 . S
C1413 C1409 1.393 . S
C1413 C1412 1.391 . S
H1414 C1422 0.950 . S
H1415 C1427 0.950 . S
H1416 C1424 0.950 . S
H1417 C1426 0.950 . S
H1418 C1428 0.950 . S
H1419 C1430 0.950 . S
H1420 C1432 0.950 . S
H1421 C1433 0.950 . S
C1422 H1414 0.950 . S
C1422 C1423 1.386 . S
C1422 C1424 1.391 . S
C1423 C1422 1.386 . S
C1423 C1427 1.393 . S
C1424 H1416 0.950 . S
C1424 C1422 1.391 . S
C1424 C1425 1.400 . S
C1425 C1424 1.400 . S
C1425 C1426 1.398 . S
C1425 C1431 1.491 . S
C1426 H1417 0.950 . S
C1426 C1425 1.398 . S
C1426 C1427 1.391 . S
C1427 H1415 0.950 . S
C1427 C1423 1.393 . S
C1427 C1426 1.391 . S
C1428 H1418 0.950 . S
C1428 C1429 1.386 . S
C1428 C1430 1.391 . S
C1429 C1428 1.386 . S
C1429 C1433 1.393 . S
C1430 H1419 0.950 . S
C1430 C1428 1.391 . S
C1430 C1431 1.400 . S
C1431 C1425 1.491 . S
C1431 C1430 1.400 . S
C1431 C1432 1.398 . S
C1432 H1420 0.950 . S
C1432 C1431 1.398 . S
C1432 C1433 1.391 . S
C1433 H1421 0.950 . S
C1433 C1429 1.393 . S
C1433 C1432 1.391 . S
H1434 C1442 0.950 . S
H1435 C1447 0.950 . S
H1436 C1444 0.950 . S
H1437 C1446 0.950 . S
H1438 C1448 0.950 . S
H1439 C1450 0.950 . S
H1440 C1452 0.950 . S
H1441 C1453 0.950 . S
C1442 H1434 0.950 . S
C1442 C1443 1.386 . S
C1442 C1444 1.391 . S
C1443 C1442 1.386 . S
C1443 C1447 1.393 . S
C1444 H1436 0.950 . S
C1444 C1442 1.391 . S
C1444 C1445 1.400 . S
C1445 C1444 1.400 . S
C1445 C1446 1.398 . S
C1445 C1451 1.491 . S
C1446 H1437 0.950 . S
C1446 C1445 1.398 . S
C1446 C1447 1.391 . S
C1447 H1435 0.950 . S
C1447 C1443 1.393 . S
C1447 C1446 1.391 . S
C1448 H1438 0.950 . S
C1448 C1449 1.386 . S
C1448 C1450 1.391 . S
C1449 C1448 1.386 . S
C1449 C1453 1.393 . S
C1450 H1439 0.950 . S
C1450 C1448 1.391 . S
C1450 C1451 1.400 . S
C1451 C1445 1.491 . S
C1451 C1450 1.400 . S
C1451 C1452 1.398 . S
C1452 H1440 0.950 . S
C1452 C1451 1.398 . S
C1452 C1453 1.391 . S
C1453 H1441 0.950 . S
C1453 C1449 1.393 . S
C1453 C1452 1.391 . S
H1454 C1462 0.950 . S
H1455 C1467 0.950 . S
H1456 C1464 0.950 . S
H1457 C1466 0.950 . S
H1458 C1468 0.950 . S
H1459 C1470 0.950 . S
H1460 C1472 0.950 . S
H1461 C1473 0.950 . S
C1462 H1454 0.950 . S
C1462 C1463 1.386 . S
C1462 C1464 1.391 . S
C1463 C1462 1.386 . S
C1463 C1467 1.393 . S
C1464 H1456 0.950 . S
C1464 C1462 1.391 . S
C1464 C1465 1.400 . S
C1465 C1464 1.400 . S
C1465 C1466 1.398 . S
C1465 C1471 1.491 . S
C1466 H1457 0.950 . S
C1466 C1465 1.398 . S
C1466 C1467 1.391 . S
C1467 H1455 0.950 . S
C1467 C1463 1.393 . S
C1467 C1466 1.391 . S
C1468 H1458 0.950 . S
C1468 C1469 1.386 . S
C1468 C1470 1.391 . S
C1469 C1468 1.386 . S
C1469 C1473 1.393 . S
C1470 H1459 0.950 . S
C1470 C1468 1.391 . S
C1470 C1471 1.400 . S
C1471 C1465 1.491 . S
C1471 C1470 1.400 . S
C1471 C1472 1.398 . S
C1472 H1460 0.950 . S
C1472 C1471 1.398 . S
C1472 C1473 1.391 . S
C1473 H1461 0.950 . S
C1473 C1469 1.393 . S
C1473 C1472 1.391 . S
H1474 C1482 0.950 . S
H1475 C1487 0.950 . S
H1476 C1484 0.950 . S
H1477 C1486 0.950 . S
H1478 C1488 0.950 . S
H1479 C1490 0.950 . S
H1480 C1492 0.950 . S
H1481 C1493 0.950 . S
C1482 H1474 0.950 . S
C1482 C1483 1.386 . S
C1482 C1484 1.391 . S
C1483 C1482 1.386 . S
C1483 C1487 1.393 . S
C1484 H1476 0.950 . S
C1484 C1482 1.391 . S
C1484 C1485 1.400 . S
C1485 C1484 1.400 . S
C1485 C1486 1.398 . S
C1485 C1491 1.491 . S
C1486 H1477 0.950 . S
C1486 C1485 1.398 . S
C1486 C1487 1.391 . S
C1487 H1475 0.950 . S
C1487 C1483 1.393 . S
C1487 C1486 1.391 . S
C1488 H1478 0.950 . S
C1488 C1489 1.386 . S
C1488 C1490 1.391 . S
C1489 C1488 1.386 . S
C1489 C1493 1.393 . S
C1490 H1479 0.950 . S
C1490 C1488 1.391 . S
C1490 C1491 1.400 . S
C1491 C1485 1.491 . S
C1491 C1490 1.400 . S
C1491 C1492 1.398 . S
C1492 H1480 0.950 . S
C1492 C1491 1.398 . S
C1492 C1493 1.391 . S
C1493 H1481 0.950 . S
C1493 C1489 1.393 . S
C1493 C1492 1.391 . S
C603 C21 1.086 . S
C609 N35 1.032 . S
C623 N68 1.067 . S
C629 C54 1.073 . S
C643 C87 1.072 . S
C649 N2 1.064 . S
C663 N167 1.043 . S
C669 C120 1.070 . S
C683 N101 1.031 . S
C689 C153 1.083 . S
C703 C186 1.072 . S
C709 N134 1.065 . S
C723 N233 1.069 . S
C729 C219 1.089 . S
C743 C252 1.083 . S
C749 N266 1.031 . S
C763 C285 1.073 . S
C769 N200 1.065 . S
C783 N365 1.035 . S
C789 C318 1.074 . S
C803 N299 1.036 . S
C809 C351 1.090 . S
C823 C384 1.077 . S
C829 N332 1.032 . S
C843 N431 1.033 . S
C849 C417 1.076 . S
C863 C450 1.085 . S
C869 N464 1.072 . S
C883 C483 1.072 . S
C889 N398 1.065 . S
C903 N563 1.033 . S
C909 C516 1.088 . S
C923 N497 1.050 . S
C929 C549 1.069 . S
C943 C582 1.072 . S
C949 N530 1.064 . S
C963 N343 1.357 . S
C969 N13 1.350 . S
C983 N376 1.353 . S
C989 N46 1.349 . S
C1003 N310 1.357 . S
C1009 N79 1.350 . S
C1023 N112 1.348 . S
C1029 N475 1.352 . S
C1043 N409 1.360 . S
C1049 N145 1.354 . S
C1063 N442 1.358 . S
C1069 N178 1.351 . S
C1083 N211 1.349 . S
C1089 N541 1.356 . S
C1103 N574 1.358 . S
C1109 N244 1.359 . S
C1123 N508 1.351 . S
C1129 N277 1.358 . S
C1143 C7 1.195 . S
C1149 C172 1.167 . S
C1163 C106 1.185 . S
C1169 C40 1.165 . S
C1183 C139 1.166 . S
C1189 C73 1.194 . S
C1203 C370 1.182 . S
C1209 C205 1.203 . S
C1223 C304 1.195 . S
C1229 C238 1.167 . S
C1243 C271 1.166 . S
C1249 C337 1.182 . S
C1263 C568 1.178 . S
C1269 C403 1.168 . S
C1283 C436 1.203 . S
C1289 C502 1.178 . S
C1303 C535 1.179 . S
C1309 C469 1.203 . S
C1323 C18 1.230 . S
C1329 C183 1.210 . S
C1343 C51 1.202 . S
C1349 C117 1.210 . S
C1363 C150 1.222 . S
C1369 C84 1.236 . S
C1383 C381 1.219 . S
C1389 C216 1.202 . S
C1403 C315 1.229 . S
C1409 C249 1.236 . S
C1423 C348 1.235 . S
C1429 C282 1.232 . S
C1443 C414 1.232 . S
C1449 C579 1.235 . S
C1463 C447 1.216 . S
C1469 C513 1.202 . S
C1483 C546 1.214 . S
C1489 C480 1.233 . S
