# Generated by pormake.
# Topology ana, (4)-cn, num edge types: 1
# Building blocks:
#     Node 0, Type 0, BuildingBlock: KUFVIS_clean_sbu_0, # of connection points: 4
#     Node 1, Type 0, BuildingBlock: KUFVIS_clean_sbu_0, # of connection points: 4
#     Node 2, Type 0, BuildingBlock: KUFVIS_clean_sbu_0, # of connection points: 4
#     Node 3, Type 0, BuildingBlock: KUFVIS_clean_sbu_0, # of connection points: 4
#     Node 4, Type 0, BuildingBlock: KUFVIS_clean_sbu_0, # of connection points: 4
#     Node 5, Type 0, BuildingBlock: KUFVIS_clean_sbu_0, # of connection points: 4
#     Node 6, Type 0, BuildingBlock: KUFVIS_clean_sbu_0, # of connection points: 4
#     Node 7, Type 0, BuildingBlock: KUFVIS_clean_sbu_0, # of connection points: 4
#     Node 8, Type 0, BuildingBlock: KUFVIS_clean_sbu_0, # of connection points: 4
#     Node 9, Type 0, BuildingBlock: KUFVIS_clean_sbu_0, # of connection points: 4
#     Node 10, Type 0, BuildingBlock: KUFVIS_clean_sbu_0, # of connection points: 4
#     Node 11, Type 0, BuildingBlock: KUFVIS_clean_sbu_0, # of connection points: 4
#     Node 12, Type 0, BuildingBlock: KUFVIS_clean_sbu_0, # of connection points: 4
#     Node 13, Type 0, BuildingBlock: KUFVIS_clean_sbu_0, # of connection points: 4
#     Node 14, Type 0, BuildingBlock: KUFVIS_clean_sbu_0, # of connection points: 4
#     Node 15, Type 0, BuildingBlock: KUFVIS_clean_sbu_0, # of connection points: 4
#     Node 16, Type 0, BuildingBlock: KUFVIS_clean_sbu_0, # of connection points: 4
#     Node 17, Type 0, BuildingBlock: KUFVIS_clean_sbu_0, # of connection points: 4
#     Node 18, Type 0, BuildingBlock: KUFVIS_clean_sbu_0, # of connection points: 4
#     Node 19, Type 0, BuildingBlock: KUFVIS_clean_sbu_0, # of connection points: 4
#     Node 20, Type 0, BuildingBlock: KUFVIS_clean_sbu_0, # of connection points: 4
#     Node 21, Type 0, BuildingBlock: KUFVIS_clean_sbu_0, # of connection points: 4
#     Node 22, Type 0, BuildingBlock: KUFVIS_clean_sbu_0, # of connection points: 4
#     Node 23, Type 0, BuildingBlock: KUFVIS_clean_sbu_0, # of connection points: 4
#     Node 24, Type 0, BuildingBlock: KUFVIS_clean_sbu_0, # of connection points: 4
#     Node 25, Type 0, BuildingBlock: KUFVIS_clean_sbu_0, # of connection points: 4
#     Node 26, Type 0, BuildingBlock: KUFVIS_clean_sbu_0, # of connection points: 4
#     Node 27, Type 0, BuildingBlock: KUFVIS_clean_sbu_0, # of connection points: 4
#     Node 28, Type 0, BuildingBlock: KUFVIS_clean_sbu_0, # of connection points: 4
#     Node 29, Type 0, BuildingBlock: KUFVIS_clean_sbu_0, # of connection points: 4
#     Node 30, Type 0, BuildingBlock: KUFVIS_clean_sbu_0, # of connection points: 4
#     Node 31, Type 0, BuildingBlock: KUFVIS_clean_sbu_0, # of connection points: 4
#     Node 32, Type 0, BuildingBlock: KUFVIS_clean_sbu_0, # of connection points: 4
#     Node 33, Type 0, BuildingBlock: KUFVIS_clean_sbu_0, # of connection points: 4
#     Node 34, Type 0, BuildingBlock: KUFVIS_clean_sbu_0, # of connection points: 4
#     Node 35, Type 0, BuildingBlock: KUFVIS_clean_sbu_0, # of connection points: 4
#     Node 36, Type 0, BuildingBlock: KUFVIS_clean_sbu_0, # of connection points: 4
#     Node 37, Type 0, BuildingBlock: KUFVIS_clean_sbu_0, # of connection points: 4
#     Node 38, Type 0, BuildingBlock: KUFVIS_clean_sbu_0, # of connection points: 4
#     Node 39, Type 0, BuildingBlock: KUFVIS_clean_sbu_0, # of connection points: 4
#     Node 40, Type 0, BuildingBlock: KUFVIS_clean_sbu_0, # of connection points: 4
#     Node 41, Type 0, BuildingBlock: KUFVIS_clean_sbu_0, # of connection points: 4
#     Node 42, Type 0, BuildingBlock: KUFVIS_clean_sbu_0, # of connection points: 4
#     Node 43, Type 0, BuildingBlock: KUFVIS_clean_sbu_0, # of connection points: 4
#     Node 44, Type 0, BuildingBlock: KUFVIS_clean_sbu_0, # of connection points: 4
#     Node 45, Type 0, BuildingBlock: KUFVIS_clean_sbu_0, # of connection points: 4
#     Node 46, Type 0, BuildingBlock: KUFVIS_clean_sbu_0, # of connection points: 4
#     Node 47, Type 0, BuildingBlock: KUFVIS_clean_sbu_0, # of connection points: 4
#     Edge 48, Type (0, 0), BuildingBlock: XIVTED_clean_linker_0, # of connection points: 2
#     Edge 49, Type (0, 0), BuildingBlock: XIVTED_clean_linker_0, # of connection points: 2
#     Edge 50, Type (0, 0), BuildingBlock: XIVTED_clean_linker_0, # of connection points: 2
#     Edge 51, Type (0, 0), BuildingBlock: XIVTED_clean_linker_0, # of connection points: 2
#     Edge 52, Type (0, 0), BuildingBlock: XIVTED_clean_linker_0, # of connection points: 2
#     Edge 53, Type (0, 0), BuildingBlock: XIVTED_clean_linker_0, # of connection points: 2
#     Edge 54, Type (0, 0), BuildingBlock: XIVTED_clean_linker_0, # of connection points: 2
#     Edge 55, Type (0, 0), BuildingBlock: XIVTED_clean_linker_0, # of connection points: 2
#     Edge 56, Type (0, 0), BuildingBlock: XIVTED_clean_linker_0, # of connection points: 2
#     Edge 57, Type (0, 0), BuildingBlock: XIVTED_clean_linker_0, # of connection points: 2
#     Edge 58, Type (0, 0), BuildingBlock: XIVTED_clean_linker_0, # of connection points: 2
#     Edge 59, Type (0, 0), BuildingBlock: XIVTED_clean_linker_0, # of connection points: 2
#     Edge 60, Type (0, 0), BuildingBlock: XIVTED_clean_linker_0, # of connection points: 2
#     Edge 61, Type (0, 0), BuildingBlock: XIVTED_clean_linker_0, # of connection points: 2
#     Edge 62, Type (0, 0), BuildingBlock: XIVTED_clean_linker_0, # of connection points: 2
#     Edge 63, Type (0, 0), BuildingBlock: XIVTED_clean_linker_0, # of connection points: 2
#     Edge 64, Type (0, 0), BuildingBlock: XIVTED_clean_linker_0, # of connection points: 2
#     Edge 65, Type (0, 0), BuildingBlock: XIVTED_clean_linker_0, # of connection points: 2
#     Edge 66, Type (0, 0), BuildingBlock: XIVTED_clean_linker_0, # of connection points: 2
#     Edge 67, Type (0, 0), BuildingBlock: XIVTED_clean_linker_0, # of connection points: 2
#     Edge 68, Type (0, 0), BuildingBlock: XIVTED_clean_linker_0, # of connection points: 2
#     Edge 69, Type (0, 0), BuildingBlock: XIVTED_clean_linker_0, # of connection points: 2
#     Edge 70, Type (0, 0), BuildingBlock: XIVTED_clean_linker_0, # of connection points: 2
#     Edge 71, Type (0, 0), BuildingBlock: XIVTED_clean_linker_0, # of connection points: 2
#     Edge 72, Type (0, 0), BuildingBlock: XIVTED_clean_linker_0, # of connection points: 2
#     Edge 73, Type (0, 0), BuildingBlock: XIVTED_clean_linker_0, # of connection points: 2
#     Edge 74, Type (0, 0), BuildingBlock: XIVTED_clean_linker_0, # of connection points: 2
#     Edge 75, Type (0, 0), BuildingBlock: XIVTED_clean_linker_0, # of connection points: 2
#     Edge 76, Type (0, 0), BuildingBlock: XIVTED_clean_linker_0, # of connection points: 2
#     Edge 77, Type (0, 0), BuildingBlock: XIVTED_clean_linker_0, # of connection points: 2
#     Edge 78, Type (0, 0), BuildingBlock: XIVTED_clean_linker_0, # of connection points: 2
#     Edge 79, Type (0, 0), BuildingBlock: XIVTED_clean_linker_0, # of connection points: 2
#     Edge 80, Type (0, 0), BuildingBlock: XIVTED_clean_linker_0, # of connection points: 2
#     Edge 81, Type (0, 0), BuildingBlock: XIVTED_clean_linker_0, # of connection points: 2
#     Edge 82, Type (0, 0), BuildingBlock: XIVTED_clean_linker_0, # of connection points: 2
#     Edge 83, Type (0, 0), BuildingBlock: XIVTED_clean_linker_0, # of connection points: 2
#     Edge 84, Type (0, 0), BuildingBlock: XIVTED_clean_linker_0, # of connection points: 2
#     Edge 85, Type (0, 0), BuildingBlock: XIVTED_clean_linker_0, # of connection points: 2
#     Edge 86, Type (0, 0), BuildingBlock: XIVTED_clean_linker_0, # of connection points: 2
#     Edge 87, Type (0, 0), BuildingBlock: XIVTED_clean_linker_0, # of connection points: 2
#     Edge 88, Type (0, 0), BuildingBlock: XIVTED_clean_linker_0, # of connection points: 2
#     Edge 89, Type (0, 0), BuildingBlock: XIVTED_clean_linker_0, # of connection points: 2
#     Edge 90, Type (0, 0), BuildingBlock: XIVTED_clean_linker_0, # of connection points: 2
#     Edge 91, Type (0, 0), BuildingBlock: XIVTED_clean_linker_0, # of connection points: 2
#     Edge 92, Type (0, 0), BuildingBlock: XIVTED_clean_linker_0, # of connection points: 2
#     Edge 93, Type (0, 0), BuildingBlock: XIVTED_clean_linker_0, # of connection points: 2
#     Edge 94, Type (0, 0), BuildingBlock: XIVTED_clean_linker_0, # of connection points: 2
#     Edge 95, Type (0, 0), BuildingBlock: XIVTED_clean_linker_0, # of connection points: 2
#     Edge 96, Type (0, 0), BuildingBlock: XIVTED_clean_linker_0, # of connection points: 2
#     Edge 97, Type (0, 0), BuildingBlock: XIVTED_clean_linker_0, # of connection points: 2
#     Edge 98, Type (0, 0), BuildingBlock: XIVTED_clean_linker_0, # of connection points: 2
#     Edge 99, Type (0, 0), BuildingBlock: XIVTED_clean_linker_0, # of connection points: 2
#     Edge 100, Type (0, 0), BuildingBlock: XIVTED_clean_linker_0, # of connection points: 2
#     Edge 101, Type (0, 0), BuildingBlock: XIVTED_clean_linker_0, # of connection points: 2
#     Edge 102, Type (0, 0), BuildingBlock: XIVTED_clean_linker_0, # of connection points: 2
#     Edge 103, Type (0, 0), BuildingBlock: XIVTED_clean_linker_0, # of connection points: 2
#     Edge 104, Type (0, 0), BuildingBlock: XIVTED_clean_linker_0, # of connection points: 2
#     Edge 105, Type (0, 0), BuildingBlock: XIVTED_clean_linker_0, # of connection points: 2
#     Edge 106, Type (0, 0), BuildingBlock: XIVTED_clean_linker_0, # of connection points: 2
#     Edge 107, Type (0, 0), BuildingBlock: XIVTED_clean_linker_0, # of connection points: 2
#     Edge 108, Type (0, 0), BuildingBlock: XIVTED_clean_linker_0, # of connection points: 2
#     Edge 109, Type (0, 0), BuildingBlock: XIVTED_clean_linker_0, # of connection points: 2
#     Edge 110, Type (0, 0), BuildingBlock: XIVTED_clean_linker_0, # of connection points: 2
#     Edge 111, Type (0, 0), BuildingBlock: XIVTED_clean_linker_0, # of connection points: 2
#     Edge 112, Type (0, 0), BuildingBlock: XIVTED_clean_linker_0, # of connection points: 2
#     Edge 113, Type (0, 0), BuildingBlock: XIVTED_clean_linker_0, # of connection points: 2
#     Edge 114, Type (0, 0), BuildingBlock: XIVTED_clean_linker_0, # of connection points: 2
#     Edge 115, Type (0, 0), BuildingBlock: XIVTED_clean_linker_0, # of connection points: 2
#     Edge 116, Type (0, 0), BuildingBlock: XIVTED_clean_linker_0, # of connection points: 2
#     Edge 117, Type (0, 0), BuildingBlock: XIVTED_clean_linker_0, # of connection points: 2
#     Edge 118, Type (0, 0), BuildingBlock: XIVTED_clean_linker_0, # of connection points: 2
#     Edge 119, Type (0, 0), BuildingBlock: XIVTED_clean_linker_0, # of connection points: 2
#     Edge 120, Type (0, 0), BuildingBlock: XIVTED_clean_linker_0, # of connection points: 2
#     Edge 121, Type (0, 0), BuildingBlock: XIVTED_clean_linker_0, # of connection points: 2
#     Edge 122, Type (0, 0), BuildingBlock: XIVTED_clean_linker_0, # of connection points: 2
#     Edge 123, Type (0, 0), BuildingBlock: XIVTED_clean_linker_0, # of connection points: 2
#     Edge 124, Type (0, 0), BuildingBlock: XIVTED_clean_linker_0, # of connection points: 2
#     Edge 125, Type (0, 0), BuildingBlock: XIVTED_clean_linker_0, # of connection points: 2
#     Edge 126, Type (0, 0), BuildingBlock: XIVTED_clean_linker_0, # of connection points: 2
#     Edge 127, Type (0, 0), BuildingBlock: XIVTED_clean_linker_0, # of connection points: 2
#     Edge 128, Type (0, 0), BuildingBlock: XIVTED_clean_linker_0, # of connection points: 2
#     Edge 129, Type (0, 0), BuildingBlock: XIVTED_clean_linker_0, # of connection points: 2
#     Edge 130, Type (0, 0), BuildingBlock: XIVTED_clean_linker_0, # of connection points: 2
#     Edge 131, Type (0, 0), BuildingBlock: XIVTED_clean_linker_0, # of connection points: 2
#     Edge 132, Type (0, 0), BuildingBlock: XIVTED_clean_linker_0, # of connection points: 2
#     Edge 133, Type (0, 0), BuildingBlock: XIVTED_clean_linker_0, # of connection points: 2
#     Edge 134, Type (0, 0), BuildingBlock: XIVTED_clean_linker_0, # of connection points: 2
#     Edge 135, Type (0, 0), BuildingBlock: XIVTED_clean_linker_0, # of connection points: 2
#     Edge 136, Type (0, 0), BuildingBlock: XIVTED_clean_linker_0, # of connection points: 2
#     Edge 137, Type (0, 0), BuildingBlock: XIVTED_clean_linker_0, # of connection points: 2
#     Edge 138, Type (0, 0), BuildingBlock: XIVTED_clean_linker_0, # of connection points: 2
#     Edge 139, Type (0, 0), BuildingBlock: XIVTED_clean_linker_0, # of connection points: 2
#     Edge 140, Type (0, 0), BuildingBlock: XIVTED_clean_linker_0, # of connection points: 2
#     Edge 141, Type (0, 0), BuildingBlock: XIVTED_clean_linker_0, # of connection points: 2
#     Edge 142, Type (0, 0), BuildingBlock: XIVTED_clean_linker_0, # of connection points: 2
#     Edge 143, Type (0, 0), BuildingBlock: XIVTED_clean_linker_0, # of connection points: 2
# Relax obj value: 0.110
# Max RMSD: 0.147
# Mean RMSD: 0.127
data_MOF--net-ana--node1-KUFVIS_clean_sbu_0--edge1-XIVTED_clean_linker_0
_symmetry_space_group_name_H-M    P1
_symmetry_Int_Tables_number       1
_symmetry_cell_setting            triclinic
loop_
_symmetry_equiv_pos_as_xyz
'x, y, z'
_cell_length_a     63.297269
_cell_length_b     65.569968
_cell_length_c     65.524516
_cell_angle_alpha  90.097838
_cell_angle_beta   90.0866
_cell_angle_gamma 90.523689
loop_
_atom_site_label
_atom_site_type_symbol
_atom_site_fract_x
_atom_site_fract_y
_atom_site_fract_z
_atom_type_partial_charge
Mn0 Mn 0.11601 0.16673 0.41644 0.0
Mn1 Mn 0.11407 0.11558 0.41082 0.0
C2 C 0.08464 0.15077 0.40814 0.0
C3 C 0.12264 0.1986 0.40197 0.0
C4 C 0.11274 0.13636 0.45201 0.0
O5 O 0.14694 0.15951 0.41441 0.0
O6 O 0.14381 0.12547 0.41138 0.0
C7 C 0.131 0.1144 0.36876 0.0
N8 N 0.11541 0.10967 0.3823 0.0
C9 C 0.09561 0.09161 0.35655 0.0
C10 C 0.11148 0.09621 0.34233 0.0
C11 C 0.1292 0.10775 0.34844 0.0
C12 C 0.09813 0.0989 0.37651 0.0
H13 H 0.14472 0.12314 0.37342 0.0
C14 C 0.15485 0.14185 0.4127 0.0
O15 O 0.12359 0.19602 0.42163 0.0
O16 O 0.11804 0.18274 0.39099 0.0
N17 N 0.08654 0.10334 0.40991 0.0
C18 C 0.07278 0.09998 0.42555 0.0
C19 C 0.05407 0.08888 0.4219 0.0
C20 C 0.05001 0.08083 0.40239 0.0
C21 C 0.06474 0.08391 0.38672 0.0
C22 C 0.08295 0.09535 0.39117 0.0
H23 H 0.076 0.10586 0.44065 0.0
O24 O 0.08474 0.16899 0.41586 0.0
O25 O 0.10298 0.14263 0.40474 0.0
O26 O 0.11469 0.15472 0.44555 0.0
O27 O 0.11211 0.12078 0.44026 0.0
C28 C 0.06221 0.07589 0.36691 0.0
C29 C 0.0775 0.07992 0.35177 0.0
H30 H 0.11022 0.09095 0.32668 0.0
H31 H 0.1415 0.11139 0.33755 0.0
H32 H 0.04287 0.08641 0.43413 0.0
H33 H 0.03561 0.0722 0.39965 0.0
H34 H 0.0486 0.06655 0.36314 0.0
H35 H 0.07522 0.07384 0.33653 0.0
Mn36 Mn 0.09618 0.87769 0.66122 0.0
Mn37 Mn 0.10454 0.88543 0.61093 0.0
C38 C 0.09802 0.91037 0.64853 0.0
C39 C 0.10976 0.87272 0.69387 0.0
C40 C 0.06216 0.87265 0.6285 0.0
O41 O 0.10635 0.85009 0.65134 0.0
O42 O 0.11351 0.85744 0.61845 0.0
C43 C 0.15128 0.88441 0.61108 0.0
N44 N 0.13303 0.89438 0.6068 0.0
C45 C 0.15224 0.92335 0.59369 0.0
C46 C 0.17125 0.91333 0.59784 0.0
C47 C 0.17076 0.89379 0.6066 0.0
C48 C 0.13332 0.91318 0.59835 0.0
H49 H 0.15097 0.86943 0.61792 0.0
C50 C 0.11311 0.84517 0.63367 0.0
O51 O 0.09062 0.86698 0.68927 0.0
O52 O 0.12103 0.88068 0.67938 0.0
N53 N 0.09672 0.91194 0.60155 0.0
C54 C 0.07703 0.91993 0.59948 0.0
C55 C 0.07477 0.93962 0.59142 0.0
C56 C 0.09274 0.95084 0.58547 0.0
C57 C 0.11281 0.9422 0.58752 0.0
C58 C 0.11407 0.92243 0.59544 0.0
H59 H 0.06317 0.9114 0.60407 0.0
O60 O 0.08898 0.90688 0.66594 0.0
O61 O 0.10606 0.89469 0.6393 0.0
O62 O 0.06771 0.87273 0.64724 0.0
O63 O 0.07476 0.87677 0.61382 0.0
C64 C 0.13165 0.9526 0.58242 0.0
C65 C 0.15135 0.9432 0.58553 0.0
H66 H 0.1863 0.92057 0.59454 0.0
H67 H 0.18536 0.88601 0.60994 0.0
H68 H 0.05922 0.94619 0.58989 0.0
H69 H 0.09095 0.96611 0.57948 0.0
H70 H 0.13118 0.96796 0.57637 0.0
H71 H 0.16573 0.95146 0.58182 0.0
Mn72 Mn 0.37707 0.82463 0.91615 0.0
Mn73 Mn 0.37691 0.8753 0.90767 0.0
C74 C 0.40785 0.84128 0.90718 0.0
C75 C 0.37157 0.79185 0.90327 0.0
C76 C 0.37962 0.85715 0.94994 0.0
O77 O 0.3458 0.83045 0.91377 0.0
O78 O 0.34768 0.86432 0.90925 0.0
C79 C 0.35907 0.87295 0.86594 0.0
N80 N 0.37466 0.87931 0.87889 0.0
C81 C 0.39211 0.89786 0.85208 0.0
C82 C 0.37624 0.89157 0.83845 0.0
C83 C 0.35973 0.87891 0.84538 0.0
C84 C 0.39093 0.89096 0.87226 0.0
H85 H 0.34617 0.86351 0.87127 0.0
C86 C 0.33721 0.8477 0.91133 0.0
O87 O 0.37067 0.79537 0.9228 0.0
O88 O 0.37559 0.80727 0.89156 0.0
N89 N 0.40375 0.88875 0.90551 0.0
C90 C 0.4175 0.89392 0.92072 0.0
C91 C 0.43501 0.90644 0.91629 0.0
C92 C 0.43773 0.91418 0.89648 0.0
C93 C 0.42301 0.90916 0.88122 0.0
C94 C 0.40621 0.89616 0.88639 0.0
H95 H 0.41511 0.88852 0.93611 0.0
O96 O 0.40842 0.8235 0.91576 0.0
O97 O 0.38921 0.84847 0.90314 0.0
O98 O 0.37802 0.83839 0.94455 0.0
O99 O 0.37972 0.87202 0.93732 0.0
C100 C 0.42398 0.91701 0.86122 0.0
C101 C 0.40877 0.91108 0.84658 0.0
H102 H 0.37651 0.89644 0.82266 0.0
H103 H 0.34741 0.874 0.83497 0.0
H104 H 0.44617 0.91043 0.9282 0.0
H105 H 0.45102 0.92418 0.89325 0.0
H106 H 0.43622 0.92776 0.8569 0.0
H107 H 0.40989 0.91702 0.83119 0.0
Mn108 Mn 0.39505 0.12116 0.16244 0.0
Mn109 Mn 0.38481 0.11507 0.1122 0.0
C110 C 0.39219 0.0889 0.14874 0.0
C111 C 0.38257 0.12547 0.19553 0.0
C112 C 0.42807 0.12643 0.12892 0.0
O113 O 0.38508 0.14919 0.15382 0.0
O114 O 0.3767 0.14301 0.12094 0.0
C115 C 0.33814 0.117 0.11388 0.0
N116 N 0.356 0.1068 0.1087 0.0
C117 C 0.33569 0.07855 0.0954 0.0
C118 C 0.31708 0.08881 0.10046 0.0
C119 C 0.31832 0.10811 0.10977 0.0
C120 C 0.35499 0.08824 0.09972 0.0
H121 H 0.33903 0.13178 0.12115 0.0
C122 C 0.37781 0.15477 0.13657 0.0
O123 O 0.40168 0.13099 0.19064 0.0
O124 O 0.37074 0.11806 0.18112 0.0
N125 N 0.39171 0.08871 0.10169 0.0
C126 C 0.41113 0.08044 0.09865 0.0
C127 C 0.41266 0.06094 0.0899 0.0
C128 C 0.39424 0.05022 0.08426 0.0
C129 C 0.37445 0.05914 0.0873 0.0
C130 C 0.37391 0.07871 0.09588 0.0
H131 H 0.42534 0.08859 0.103 0.0
O132 O 0.40185 0.09174 0.166 0.0
O133 O 0.38411 0.10497 0.14027 0.0
O134 O 0.42315 0.12602 0.1478 0.0
O135 O 0.41487 0.12301 0.1145 0.0
C136 C 0.35522 0.04923 0.08254 0.0
C137 C 0.33585 0.05891 0.08662 0.0
H138 H 0.30176 0.08194 0.09745 0.0
H139 H 0.30402 0.11607 0.11383 0.0
H140 H 0.42799 0.05416 0.0876 0.0
H141 H 0.39548 0.03509 0.07773 0.0
H142 H 0.35513 0.03404 0.07601 0.0
H143 H 0.32117 0.05102 0.08315 0.0
Mn144 Mn 0.12908 0.82666 0.08213 0.0
Mn145 Mn 0.13014 0.83474 0.13302 0.0
C146 C 0.16048 0.83438 0.09818 0.0
C147 C 0.12336 0.83975 0.04952 0.0
C148 C 0.13023 0.79258 0.11428 0.0
O149 O 0.09817 0.83029 0.08874 0.0
O150 O 0.10073 0.83492 0.12261 0.0
C151 C 0.11509 0.87734 0.13201 0.0
N152 N 0.12988 0.86349 0.13771 0.0
C153 C 0.14923 0.88891 0.15669 0.0
C154 C 0.1342 0.90346 0.15107 0.0
C155 C 0.11714 0.89767 0.13854 0.0
C156 C 0.14663 0.869 0.1493 0.0
H157 H 0.10176 0.87289 0.12266 0.0
C158 C 0.09 0.83337 0.10614 0.0
O159 O 0.12165 0.82029 0.05305 0.0
O160 O 0.12849 0.85131 0.06482 0.0
N161 N 0.15729 0.83527 0.14589 0.0
C162 C 0.17028 0.81936 0.15012 0.0
C163 C 0.18834 0.82269 0.16219 0.0
C164 C 0.19242 0.84212 0.17042 0.0
C165 C 0.17846 0.8581 0.16639 0.0
C166 C 0.16104 0.85402 0.1538 0.0
H167 H 0.1669 0.80427 0.14427 0.0
O168 O 0.16035 0.82591 0.08027 0.0
O169 O 0.1422 0.83904 0.10587 0.0
O170 O 0.12886 0.79815 0.09558 0.0
O171 O 0.13093 0.80507 0.12926 0.0
C172 C 0.18087 0.87782 0.17472 0.0
C173 C 0.16646 0.89329 0.16963 0.0
H174 H 0.13557 0.91908 0.15634 0.0
H175 H 0.10546 0.90879 0.13414 0.0
H176 H 0.19893 0.81022 0.16539 0.0
H177 H 0.2062 0.84454 0.17998 0.0
H178 H 0.19376 0.88132 0.18503 0.0
H179 H 0.16871 0.90846 0.17588 0.0
Mn180 Mn 0.41116 0.87513 0.34617 0.0
Mn181 Mn 0.35995 0.86246 0.35369 0.0
C182 C 0.40113 0.84133 0.34778 0.0
C183 C 0.44479 0.88327 0.35799 0.0
C184 C 0.37717 0.87486 0.31267 0.0
O185 O 0.39901 0.90177 0.3562 0.0
O186 O 0.36503 0.89204 0.35941 0.0
C187 C 0.36013 0.86858 0.39848 0.0
N188 N 0.35653 0.85631 0.38202 0.0
C189 C 0.34558 0.82849 0.40357 0.0
C190 C 0.34904 0.84087 0.42075 0.0
C191 C 0.35639 0.86098 0.41819 0.0
C192 C 0.34955 0.83691 0.38432 0.0
H193 H 0.36584 0.88402 0.3966 0.0
C194 C 0.37977 0.90557 0.36021 0.0
O195 O 0.43858 0.88857 0.33988 0.0
O196 O 0.43112 0.87398 0.36953 0.0
N197 N 0.35231 0.83452 0.34899 0.0
C198 C 0.34997 0.82449 0.33089 0.0
C199 C 0.34277 0.80417 0.33078 0.0
C200 C 0.33786 0.79442 0.34926 0.0
C201 C 0.33999 0.80516 0.36768 0.0
C202 C 0.34703 0.82546 0.36681 0.0
H203 H 0.35381 0.83186 0.31665 0.0
O204 O 0.41854 0.84665 0.33879 0.0
O205 O 0.39011 0.85592 0.35594 0.0
O206 O 0.39586 0.8788 0.31892 0.0
O207 O 0.36243 0.86799 0.32414 0.0
C208 C 0.33571 0.79643 0.38688 0.0
C209 C 0.33855 0.80807 0.40482 0.0
H210 H 0.34622 0.83505 0.43598 0.0
H211 H 0.35918 0.8706 0.43138 0.0
H212 H 0.34115 0.79599 0.31649 0.0
H213 H 0.33256 0.77867 0.34913 0.0
H214 H 0.33041 0.78072 0.38803 0.0
H215 H 0.33537 0.80114 0.4195 0.0
Mn216 Mn 0.36544 0.16665 0.58307 0.0
Mn217 Mn 0.36593 0.15883 0.634 0.0
C218 C 0.33464 0.15828 0.59978 0.0
C219 C 0.37088 0.15335 0.55051 0.0
C220 C 0.36489 0.20089 0.61504 0.0
O221 O 0.39657 0.1638 0.58916 0.0
O222 O 0.39506 0.15823 0.62296 0.0
C223 C 0.3804 0.11605 0.63306 0.0
N224 N 0.36593 0.13014 0.63892 0.0
C225 C 0.34626 0.10503 0.65786 0.0
C226 C 0.36096 0.09023 0.6521 0.0
C227 C 0.37803 0.09575 0.63952 0.0
C228 C 0.34921 0.12492 0.65063 0.0
H229 H 0.39368 0.12027 0.6236 0.0
C230 C 0.40526 0.16023 0.60625 0.0
O231 O 0.37208 0.17289 0.55385 0.0
O232 O 0.36632 0.14183 0.56594 0.0
N233 N 0.33906 0.15879 0.64732 0.0
C234 C 0.32632 0.17489 0.65158 0.0
C235 C 0.30826 0.17185 0.66366 0.0
C236 C 0.30388 0.15246 0.6718 0.0
C237 C 0.3176 0.13629 0.66774 0.0
C238 C 0.33509 0.14013 0.65524 0.0
H239 H 0.32985 0.18992 0.6457 0.0
O240 O 0.33406 0.16655 0.58181 0.0
O241 O 0.35324 0.15425 0.60712 0.0
O242 O 0.36521 0.19525 0.59632 0.0
O243 O 0.36535 0.18847 0.63004 0.0
C244 C 0.31479 0.11659 0.67584 0.0
C245 C 0.32894 0.1009 0.67071 0.0
H246 H 0.35932 0.07461 0.65726 0.0
H247 H 0.38945 0.08442 0.63499 0.0
H248 H 0.29786 0.18446 0.66688 0.0
H249 H 0.29004 0.1502 0.68126 0.0
H250 H 0.30179 0.1133 0.68603 0.0
H251 H 0.3264 0.08573 0.67682 0.0
Mn252 Mn 0.08548 0.12062 0.85208 0.0
Mn253 Mn 0.13706 0.13261 0.85797 0.0
C254 C 0.09602 0.15427 0.85322 0.0
C255 C 0.05207 0.11305 0.86463 0.0
C256 C 0.11824 0.12053 0.81751 0.0
O257 O 0.0975 0.09391 0.86191 0.0
O258 O 0.1318 0.10298 0.86335 0.0
C259 C 0.13841 0.12592 0.90264 0.0
N260 N 0.14156 0.13835 0.88627 0.0
C261 C 0.15362 0.16578 0.90793 0.0
C262 C 0.15061 0.15322 0.92501 0.0
C263 C 0.14294 0.13322 0.92234 0.0
C264 C 0.14884 0.15765 0.88868 0.0
H265 H 0.13245 0.11056 0.90069 0.0
C266 C 0.11686 0.0897 0.86482 0.0
O267 O 0.05777 0.10745 0.84646 0.0
O268 O 0.06614 0.12226 0.87586 0.0
N269 N 0.14493 0.16051 0.85349 0.0
C270 C 0.14679 0.17072 0.83548 0.0
C271 C 0.15415 0.19099 0.83549 0.0
C272 C 0.15983 0.20046 0.85397 0.0
C273 C 0.15824 0.18949 0.87226 0.0
C274 C 0.15091 0.16929 0.87129 0.0
H275 H 0.1424 0.16356 0.82125 0.0
O276 O 0.07827 0.14906 0.8447 0.0
O277 O 0.1071 0.13963 0.86123 0.0
O278 O 0.09986 0.11651 0.82446 0.0
O279 O 0.13343 0.12749 0.82843 0.0
C280 C 0.16334 0.19792 0.89146 0.0
C281 C 0.16097 0.18609 0.90929 0.0
H282 H 0.15405 0.15881 0.94023 0.0
H283 H 0.1405 0.12347 0.93545 0.0
H284 H 0.15536 0.19933 0.82129 0.0
H285 H 0.1653 0.21616 0.85394 0.0
H286 H 0.16892 0.21354 0.8927 0.0
H287 H 0.16478 0.19278 0.92398 0.0
Mn288 Mn 0.15766 0.4055 0.11241 0.0
Mn289 Mn 0.10682 0.39133 0.1053 0.0
C290 C 0.145 0.4004 0.0798 0.0
C291 C 0.19246 0.39651 0.11878 0.0
C292 C 0.12054 0.43464 0.11571 0.0
O293 O 0.1485 0.39627 0.14063 0.0
O294 O 0.11573 0.38448 0.1336 0.0
C295 C 0.11165 0.34658 0.10824 0.0
N296 N 0.10537 0.36325 0.09753 0.0
C297 C 0.09358 0.34235 0.06945 0.0
C298 C 0.09977 0.32494 0.08023 0.0
C299 C 0.10888 0.32707 0.0997 0.0
C300 C 0.09657 0.36137 0.0788 0.0
H301 H 0.11876 0.34816 0.12316 0.0
C302 C 0.13131 0.38743 0.14584 0.0
O303 O 0.18569 0.41467 0.12305 0.0
O304 O 0.17892 0.3836 0.1112 0.0
N305 N 0.09621 0.39686 0.07851 0.0
C306 C 0.09207 0.41521 0.06971 0.0
C307 C 0.08344 0.41578 0.04997 0.0
C308 C 0.07903 0.3975 0.03954 0.0
C309 C 0.08319 0.37879 0.04899 0.0
C310 C 0.0916 0.37917 0.06878 0.0
H311 H 0.09547 0.42932 0.07764 0.0
O312 O 0.162 0.41117 0.08282 0.0
O313 O 0.13617 0.39258 0.09593 0.0
O314 O 0.14041 0.43153 0.11548 0.0
O315 O 0.10675 0.42058 0.11273 0.0
C316 C 0.07974 0.3598 0.03941 0.0
C317 C 0.08495 0.34159 0.04961 0.0
H318 H 0.0978 0.30988 0.07364 0.0
H319 H 0.11381 0.31372 0.10807 0.0
H320 H 0.08028 0.43028 0.04277 0.0
H321 H 0.07259 0.398 0.02422 0.0
H322 H 0.07336 0.35903 0.02407 0.0
H323 H 0.08248 0.3271 0.04197 0.0
Mn324 Mn 0.6524 0.09709 0.87456 0.0
Mn325 Mn 0.60051 0.10417 0.88332 0.0
C326 C 0.64048 0.10074 0.90753 0.0
C327 C 0.68557 0.11057 0.86736 0.0
C328 C 0.61931 0.06296 0.87303 0.0
O329 O 0.64113 0.10456 0.84657 0.0
O330 O 0.60726 0.11111 0.85446 0.0
C331 C 0.59966 0.14907 0.87895 0.0
N332 N 0.59591 0.13207 0.89034 0.0
C333 C 0.58281 0.15217 0.91827 0.0
C334 C 0.58639 0.16988 0.90679 0.0
C335 C 0.59489 0.16832 0.88705 0.0
C336 C 0.58779 0.1334 0.90936 0.0
H337 H 0.60628 0.14793 0.86381 0.0
C338 C 0.62259 0.11024 0.84172 0.0
O339 O 0.68094 0.09165 0.86323 0.0
O340 O 0.67073 0.12171 0.87502 0.0
N341 N 0.59166 0.09816 0.91059 0.0
C342 C 0.58979 0.07966 0.9199 0.0
C343 C 0.58189 0.07859 0.93989 0.0
C344 C 0.5758 0.09649 0.95002 0.0
C345 C 0.57751 0.11531 0.93999 0.0
C346 C 0.58534 0.11542 0.92001 0.0
H347 H 0.59444 0.06585 0.91219 0.0
O348 O 0.65858 0.09236 0.90398 0.0
O349 O 0.63008 0.10716 0.89169 0.0
O350 O 0.63856 0.06885 0.8722 0.0
O351 O 0.60397 0.07498 0.87668 0.0
C352 C 0.57211 0.13399 0.94917 0.0
C353 C 0.57479 0.15241 0.93833 0.0
H354 H 0.58282 0.18477 0.91302 0.0
H355 H 0.5978 0.18194 0.87813 0.0
H356 H 0.58058 0.064 0.94751 0.0
H357 H 0.56993 0.09562 0.96551 0.0
H358 H 0.56612 0.1344 0.96464 0.0
H359 H 0.57081 0.1667 0.94563 0.0
Mn360 Mn 0.8428 0.90256 0.37487 0.0
Mn361 Mn 0.89469 0.901 0.38646 0.0
C362 C 0.85334 0.8999 0.40838 0.0
C363 C 0.81102 0.88701 0.36601 0.0
C364 C 0.87216 0.94005 0.37641 0.0
O365 O 0.85594 0.89591 0.3476 0.0
O366 O 0.89027 0.89601 0.35662 0.0
C367 C 0.9006 0.85699 0.37834 0.0
N368 N 0.90189 0.87317 0.39134 0.0
C369 C 0.91538 0.85201 0.41827 0.0
C370 C 0.91432 0.83514 0.40512 0.0
C371 C 0.90687 0.83764 0.38508 0.0
C372 C 0.90898 0.87093 0.41067 0.0
H373 H 0.89479 0.85881 0.36296 0.0
C374 C 0.87547 0.89431 0.34329 0.0
O375 O 0.81473 0.90609 0.36199 0.0
O376 O 0.82608 0.87679 0.37458 0.0
N377 N 0.90155 0.90539 0.41461 0.0
C378 C 0.9011 0.9231 0.42552 0.0
C379 C 0.90781 0.92316 0.44596 0.0
C380 C 0.91508 0.90508 0.45491 0.0
C381 C 0.91576 0.88713 0.44327 0.0
C382 C 0.90902 0.88804 0.42292 0.0
H383 H 0.89543 0.93701 0.41875 0.0
O384 O 0.83484 0.90697 0.40388 0.0
O385 O 0.86515 0.89439 0.39311 0.0
O386 O 0.85427 0.93171 0.37277 0.0
O387 O 0.88841 0.93018 0.38221 0.0
C388 C 0.9225 0.86831 0.45117 0.0
C389 C 0.92227 0.85075 0.43869 0.0
H390 H 0.91907 0.82018 0.41028 0.0
H391 H 0.90592 0.82467 0.37487 0.0
H392 H 0.90725 0.93708 0.45483 0.0
H393 H 0.92002 0.90513 0.47075 0.0
H394 H 0.92768 0.86711 0.46688 0.0
H395 H 0.9273 0.83632 0.44499 0.0
Mn396 Mn 0.83911 0.09455 0.12729 0.0
Mn397 Mn 0.84271 0.14565 0.1325 0.0
C398 C 0.84231 0.10889 0.15927 0.0
C399 C 0.85533 0.06326 0.12239 0.0
C400 C 0.80147 0.12315 0.12433 0.0
O401 O 0.84599 0.10399 0.09854 0.0
O402 O 0.84994 0.13777 0.10401 0.0
C403 C 0.88891 0.15037 0.12698 0.0
N404 N 0.87131 0.15308 0.13857 0.0
C405 C 0.89169 0.1689 0.16539 0.0
C406 C 0.91001 0.16641 0.15367 0.0
C407 C 0.9086 0.15708 0.13439 0.0
C408 C 0.87248 0.16207 0.15713 0.0
H409 H 0.88792 0.14308 0.11221 0.0
C410 C 0.85034 0.122 0.0924 0.0
O411 O 0.83546 0.06572 0.1181 0.0
O412 O 0.86578 0.07911 0.12881 0.0
N413 N 0.8364 0.1553 0.15938 0.0
C414 C 0.81742 0.15565 0.16917 0.0
C415 C 0.8162 0.16399 0.18888 0.0
C416 C 0.83445 0.17197 0.19827 0.0
C417 C 0.85375 0.17165 0.18781 0.0
C418 C 0.85396 0.16335 0.1681 0.0
H419 H 0.80336 0.14945 0.16206 0.0
O420 O 0.83479 0.09054 0.15715 0.0
O421 O 0.84809 0.11813 0.14262 0.0
O422 O 0.80906 0.1052 0.12434 0.0
O423 O 0.81269 0.13927 0.12685 0.0
C424 C 0.87286 0.17888 0.19631 0.0
C425 C 0.89182 0.17749 0.18512 0.0
H426 H 0.92526 0.17142 0.1594 0.0
H427 H 0.92269 0.155 0.1253 0.0
H428 H 0.80125 0.16417 0.19686 0.0
H429 H 0.83349 0.17818 0.21357 0.0
H430 H 0.87321 0.1853 0.21156 0.0
H431 H 0.90645 0.18287 0.19192 0.0
Mn432 Mn 0.34065 0.58909 0.6237 0.0
Mn433 Mn 0.34605 0.64006 0.62896 0.0
C434 C 0.34553 0.60322 0.6556 0.0
C435 C 0.3556 0.55728 0.61822 0.0
C436 C 0.30385 0.61883 0.62218 0.0
O437 O 0.34678 0.59842 0.59474 0.0
O438 O 0.35189 0.63206 0.6002 0.0
C439 C 0.3921 0.64349 0.62173 0.0
N440 N 0.37507 0.64668 0.63396 0.0
C441 C 0.39692 0.66211 0.65992 0.0
C442 C 0.41467 0.65913 0.64753 0.0
C443 C 0.41224 0.64975 0.62836 0.0
C444 C 0.37722 0.65571 0.65243 0.0
H445 H 0.39032 0.63618 0.60703 0.0
C446 C 0.35141 0.61634 0.58852 0.0
O447 O 0.3357 0.5604 0.61457 0.0
O448 O 0.36681 0.57278 0.62429 0.0
N449 N 0.34111 0.64982 0.65607 0.0
C450 C 0.32258 0.65059 0.6666 0.0
C451 C 0.32239 0.65898 0.68633 0.0
C452 C 0.3412 0.66658 0.69498 0.0
C453 C 0.36002 0.66583 0.68376 0.0
C454 C 0.35921 0.65746 0.66409 0.0
H455 H 0.30809 0.6447 0.66006 0.0
O456 O 0.33731 0.58513 0.65369 0.0
O457 O 0.35097 0.61235 0.63879 0.0
O458 O 0.31087 0.60067 0.62181 0.0
O459 O 0.31565 0.6346 0.62441 0.0
C460 C 0.37963 0.67268 0.69148 0.0
C461 C 0.39807 0.67081 0.67958 0.0
H462 H 0.43026 0.6638 0.65265 0.0
H463 H 0.42589 0.64729 0.61876 0.0
H464 H 0.3078 0.65949 0.69489 0.0
H465 H 0.34103 0.67284 0.71029 0.0
H466 H 0.38076 0.67916 0.70667 0.0
H467 H 0.41309 0.67588 0.68579 0.0
Mn468 Mn 0.15115 0.59344 0.37465 0.0
Mn469 Mn 0.09919 0.59392 0.38605 0.0
C470 C 0.14037 0.59525 0.40814 0.0
C471 C 0.1828 0.60973 0.36677 0.0
C472 C 0.12236 0.55554 0.37474 0.0
O473 O 0.13797 0.60058 0.34747 0.0
O474 O 0.10365 0.59986 0.35649 0.0
C475 C 0.09246 0.63803 0.37934 0.0
N476 N 0.09146 0.62146 0.3918 0.0
C477 C 0.07744 0.64156 0.41932 0.0
C478 C 0.0782 0.65882 0.40673 0.0
C479 C 0.08577 0.65705 0.38666 0.0
C480 C 0.08425 0.623 0.41115 0.0
H481 H 0.09835 0.63676 0.36394 0.0
C482 C 0.11839 0.60207 0.34322 0.0
O483 O 0.17944 0.59074 0.36203 0.0
O484 O 0.16741 0.61947 0.37534 0.0
N485 N 0.09241 0.5886 0.41401 0.0
C486 C 0.09328 0.57062 0.42437 0.0
C487 C 0.08655 0.56984 0.44477 0.0
C488 C 0.07884 0.5875 0.45425 0.0
C489 C 0.07777 0.60574 0.44318 0.0
C490 C 0.08454 0.60555 0.42284 0.0
H491 H 0.09929 0.55704 0.4172 0.0
O492 O 0.15897 0.58845 0.40365 0.0
O493 O 0.12858 0.60084 0.3929 0.0
O494 O 0.14015 0.5642 0.37152 0.0
O495 O 0.10596 0.565 0.38083 0.0
C496 C 0.07061 0.62419 0.45164 0.0
C497 C 0.07048 0.6421 0.43973 0.0
H498 H 0.07314 0.67353 0.41234 0.0
H499 H 0.08649 0.67032 0.37688 0.0
H500 H 0.08742 0.5557 0.45321 0.0
H501 H 0.07388 0.58689 0.47006 0.0
H502 H 0.06538 0.62483 0.46736 0.0
H503 H 0.06515 0.65624 0.44647 0.0
Mn504 Mn 0.34262 0.40202 0.87583 0.0
Mn505 Mn 0.39421 0.39461 0.88612 0.0
C506 C 0.35347 0.3985 0.90915 0.0
C507 C 0.30964 0.38868 0.86737 0.0
C508 C 0.37607 0.43595 0.87568 0.0
O509 O 0.35467 0.39462 0.84818 0.0
O510 O 0.38842 0.38838 0.85682 0.0
C511 C 0.39454 0.34979 0.88086 0.0
N512 N 0.39817 0.36653 0.89272 0.0
C513 C 0.40978 0.34576 0.92074 0.0
C514 C 0.40631 0.32829 0.90878 0.0
C515 C 0.39862 0.33032 0.88876 0.0
C516 C 0.4055 0.36475 0.91201 0.0
H517 H 0.38852 0.35129 0.8655 0.0
C518 C 0.37345 0.38944 0.84366 0.0
O519 O 0.3145 0.40758 0.8635 0.0
O520 O 0.32414 0.37751 0.87559 0.0
N521 N 0.40235 0.40004 0.91375 0.0
C522 C 0.40453 0.41839 0.92337 0.0
C523 C 0.41187 0.41903 0.9436 0.0
C524 C 0.41709 0.40085 0.95365 0.0
C525 C 0.41514 0.38219 0.9433 0.0
C526 C 0.40794 0.38252 0.92308 0.0
H527 H 0.40054 0.43241 0.91571 0.0
O528 O 0.3355 0.40685 0.90497 0.0
O529 O 0.36435 0.39188 0.89367 0.0
O530 O 0.35682 0.43016 0.874 0.0
O531 O 0.39121 0.42389 0.87996 0.0
C532 C 0.41975 0.36326 0.95233 0.0
C533 C 0.41704 0.34505 0.94107 0.0
H534 H 0.40936 0.31324 0.91485 0.0
H535 H 0.39581 0.3169 0.87947 0.0
H536 H 0.4134 0.43349 0.95147 0.0
H537 H 0.42252 0.40138 0.96933 0.0
H538 H 0.42522 0.36252 0.96798 0.0
H539 H 0.42045 0.33058 0.94825 0.0
Mn540 Mn 0.8778 0.83041 0.58755 0.0
Mn541 Mn 0.8887 0.87998 0.59714 0.0
C542 C 0.91229 0.84095 0.59098 0.0
C543 C 0.869 0.79805 0.59942 0.0
C544 C 0.87631 0.86392 0.55527 0.0
O545 O 0.84965 0.84168 0.5965 0.0
O546 O 0.85895 0.8738 0.60513 0.0
C547 C 0.88628 0.87888 0.64224 0.0
N548 N 0.89739 0.88303 0.62493 0.0
C549 C 0.92768 0.89407 0.64441 0.0
C550 C 0.91651 0.89005 0.66244 0.0
C551 C 0.89573 0.88239 0.66135 0.0
C552 C 0.9174 0.89037 0.62581 0.0
H553 H 0.87035 0.87288 0.64146 0.0
C554 C 0.84539 0.8592 0.60378 0.0
O555 O 0.86461 0.80356 0.58086 0.0
O556 O 0.8781 0.81149 0.61112 0.0
N557 N 0.91694 0.88814 0.59036 0.0
C558 C 0.92581 0.89051 0.57156 0.0
C559 C 0.94669 0.89775 0.56998 0.0
C560 C 0.95819 0.90261 0.58772 0.0
C561 C 0.94863 0.90032 0.60688 0.0
C562 C 0.92769 0.89326 0.60749 0.0
H563 H 0.91707 0.8868 0.55787 0.0
O564 O 0.90784 0.82392 0.58175 0.0
O565 O 0.89643 0.85109 0.5983 0.0
O566 O 0.87526 0.84512 0.56018 0.0
O567 O 0.88048 0.87819 0.56803 0.0
C568 C 0.95918 0.90442 0.6254 0.0
C569 C 0.94873 0.90125 0.64415 0.0
H570 H 0.92378 0.89264 0.67721 0.0
H571 H 0.88705 0.87915 0.6752 0.0
H572 H 0.95395 0.89948 0.55514 0.0
H573 H 0.97437 0.90795 0.58645 0.0
H574 H 0.97543 0.90976 0.62541 0.0
H575 H 0.95711 0.90422 0.6583 0.0
Mn576 Mn 0.90714 0.12948 0.34238 0.0
Mn577 Mn 0.94192 0.10136 0.31591 0.0
C578 C 0.9406 0.12434 0.35547 0.0
C579 C 0.89213 0.16115 0.34828 0.0
C580 C 0.90476 0.08352 0.33937 0.0
O581 O 0.89412 0.12754 0.31384 0.0
O582 O 0.9214 0.11356 0.29682 0.0
C583 C 0.9637 0.13372 0.2923 0.0
N584 N 0.96454 0.11776 0.30553 0.0
C585 C 0.00242 0.12023 0.30753 0.0
C586 C 0.002 0.13648 0.29365 0.0
C587 C 0.98253 0.14331 0.28608 0.0
C588 C 0.98316 0.11114 0.31302 0.0
H589 H 0.94876 0.13917 0.28665 0.0
C590 C 0.90331 0.12212 0.29737 0.0
O591 O 0.88223 0.14446 0.35332 0.0
O592 O 0.91033 0.15935 0.33947 0.0
N593 N 0.96286 0.089 0.33282 0.0
C594 C 0.96033 0.07457 0.34757 0.0
C595 C 0.97816 0.06701 0.3577 0.0
C596 C -0.00163 0.07425 0.35246 0.0
C597 C 0.0006 0.089 0.33712 0.0
C598 C 0.98226 0.09591 0.3275 0.0
H599 H 0.94484 0.06896 0.35169 0.0
O600 O 0.92541 0.13015 0.36733 0.0
O601 O 0.93583 0.12224 0.33629 0.0
O602 O 0.89896 0.09984 0.34826 0.0
O603 O 0.91955 0.0828 0.32616 0.0
C604 C 0.02021 0.09749 0.33134 0.0
C605 C 0.02114 0.11309 0.31658 0.0
H606 H 0.01648 0.14403 0.28896 0.0
H607 H 0.98205 0.156 0.27555 0.0
H608 H 0.97632 0.05568 0.36957 0.0
H609 H 0.012 0.06852 0.36051 0.0
H610 H 0.03466 0.09246 0.33841 0.0
H611 H 0.03629 0.11979 0.31262 0.0
Mn612 Mn 0.61166 0.16933 0.08608 0.0
Mn613 Mn 0.60372 0.11936 0.09605 0.0
C614 C 0.57796 0.15734 0.09119 0.0
C615 C 0.61991 0.20204 0.09735 0.0
C616 C 0.61269 0.13577 0.05368 0.0
O617 O 0.64075 0.15938 0.09347 0.0
O618 O 0.63378 0.12674 0.10196 0.0
C619 C 0.60948 0.1208 0.14087 0.0
N620 N 0.59728 0.11611 0.12435 0.0
C621 C 0.56907 0.10388 0.14579 0.0
C622 C 0.58139 0.10844 0.16304 0.0
C623 C 0.60167 0.11697 0.16056 0.0
C624 C 0.57773 0.10796 0.12656 0.0
H625 H 0.62503 0.12745 0.13902 0.0
C626 C 0.64645 0.14199 0.09997 0.0
O627 O 0.62333 0.19653 0.07861 0.0
O628 O 0.61195 0.18846 0.10957 0.0
N629 N 0.57543 0.10998 0.09118 0.0
C630 C 0.5653 0.10712 0.07301 0.0
C631 C 0.54467 0.09904 0.07283 0.0
C632 C 0.53476 0.09381 0.09129 0.0
C633 C 0.54564 0.09656 0.10976 0.0
C634 C 0.56623 0.10452 0.10898 0.0
H635 H 0.57283 0.11111 0.05878 0.0
O636 O 0.58113 0.1745 0.0818 0.0
O637 O 0.59466 0.14791 0.09778 0.0
O638 O 0.61336 0.15458 0.05866 0.0
O639 O 0.60967 0.12137 0.06651 0.0
C640 C 0.53672 0.09206 0.12894 0.0
C641 C 0.54841 0.09576 0.14694 0.0
H642 H 0.57539 0.10559 0.17825 0.0
H643 H 0.61123 0.12063 0.17379 0.0
H644 H 0.53639 0.09693 0.05851 0.0
H645 H 0.51877 0.0878 0.0911 0.0
H646 H 0.52079 0.08599 0.13003 0.0
H647 H 0.54129 0.09246 0.16161 0.0
Mn648 Mn 0.58282 0.87384 0.83596 0.0
Mn649 Mn 0.54244 0.89751 0.81252 0.0
C650 C 0.54984 0.87481 0.85131 0.0
C651 C 0.60194 0.84419 0.84141 0.0
C652 C 0.57823 0.91998 0.83419 0.0
O653 O 0.59327 0.87661 0.80654 0.0
O654 O 0.56375 0.88924 0.79218 0.0
C655 C 0.52498 0.86315 0.78822 0.0
N656 N 0.52223 0.87833 0.80215 0.0
C657 C 0.48509 0.87077 0.80471 0.0
C658 C 0.48744 0.85524 0.79017 0.0
C659 C 0.5075 0.85135 0.78197 0.0
C660 C 0.50304 0.88211 0.81025 0.0
H661 H 0.5404 0.86003 0.782 0.0
C662 C 0.58248 0.88212 0.79101 0.0
O663 O 0.61014 0.86199 0.84548 0.0
O664 O 0.58314 0.84376 0.83359 0.0
N665 N 0.52055 0.90603 0.83054 0.0
C666 C 0.52151 0.91992 0.84602 0.0
C667 C 0.50315 0.92441 0.85701 0.0
C668 C 0.484 0.91475 0.85183 0.0
C669 C 0.48332 0.90076 0.83563 0.0
C670 C 0.50216 0.8968 0.8253 0.0
H671 H 0.53623 0.92724 0.85018 0.0
O672 O 0.56661 0.87148 0.86213 0.0
O673 O 0.55282 0.8773 0.83187 0.0
O674 O 0.58794 0.90443 0.841 0.0
O675 O 0.56183 0.91872 0.82289 0.0
C676 C 0.46488 0.89009 0.82975 0.0
C677 C 0.46575 0.87509 0.81433 0.0
H678 H 0.47402 0.84602 0.78541 0.0
H679 H 0.50949 0.83926 0.77089 0.0
H680 H 0.50377 0.93513 0.86958 0.0
H681 H 0.4701 0.91788 0.86073 0.0
H682 H 0.45006 0.89283 0.83738 0.0
H683 H 0.45155 0.86664 0.81034 0.0
Mn684 Mn 0.86477 0.16029 0.90968 0.0
Mn685 Mn 0.86205 0.15034 0.85913 0.0
C686 C 0.83238 0.15663 0.89398 0.0
C687 C 0.86787 0.14984 0.94344 0.0
C688 C 0.87235 0.19218 0.87648 0.0
O689 O 0.89436 0.15074 0.90295 0.0
O690 O 0.89018 0.14228 0.86981 0.0
C691 C 0.86386 0.10526 0.86052 0.0
N692 N 0.85372 0.12257 0.85481 0.0
C693 C 0.8257 0.10315 0.83898 0.0
C694 C 0.83592 0.08512 0.84457 0.0
C695 C 0.85506 0.08618 0.85542 0.0
C696 C 0.83529 0.12173 0.84437 0.0
H697 H 0.87853 0.106 0.86894 0.0
C698 C 0.90118 0.14329 0.88624 0.0
O699 O 0.87348 0.16803 0.93772 0.0
O700 O 0.86082 0.13749 0.92942 0.0
N701 N 0.83552 0.15713 0.84695 0.0
C702 C 0.82709 0.1759 0.84372 0.0
C703 C 0.8076 0.17749 0.83359 0.0
C704 C 0.79707 0.15979 0.82678 0.0
C705 C 0.80617 0.14066 0.83008 0.0
C706 C 0.82571 0.14004 0.84011 0.0
H707 H 0.83508 0.18956 0.84894 0.0
O708 O 0.83399 0.16635 0.9112 0.0
O709 O 0.84971 0.14915 0.88659 0.0
O710 O 0.87032 0.18722 0.89515 0.0
O711 O 0.87021 0.17948 0.86179 0.0
C712 C 0.79641 0.12217 0.82418 0.0
C713 C 0.80616 0.10343 0.82865 0.0
H714 H 0.82911 0.07037 0.84078 0.0
H715 H 0.86298 0.07233 0.85989 0.0
H716 H 0.80068 0.19231 0.83111 0.0
H717 H 0.78194 0.16107 0.81916 0.0
H718 H 0.78127 0.12217 0.81647 0.0
H719 H 0.79836 0.0893 0.8243 0.0
Mn720 Mn 0.58451 0.12128 0.64977 0.0
Mn721 Mn 0.54338 0.09645 0.67102 0.0
C722 C 0.55229 0.11953 0.63313 0.0
C723 C 0.60259 0.15163 0.64425 0.0
C724 C 0.58107 0.07519 0.65223 0.0
O725 O 0.59317 0.11916 0.67984 0.0
O726 O 0.56302 0.1057 0.69279 0.0
C727 C 0.52358 0.13066 0.69326 0.0
N728 N 0.52223 0.11546 0.67911 0.0
C729 C 0.48608 0.12374 0.67158 0.0
C730 C 0.48702 0.13933 0.68624 0.0
C731 C 0.50588 0.14284 0.69706 0.0
C732 C 0.50421 0.11205 0.66849 0.0
H733 H 0.5381 0.13355 0.70147 0.0
C734 C 0.58158 0.11346 0.69485 0.0
O735 O 0.61197 0.13427 0.64162 0.0
O736 O 0.58356 0.15126 0.6514 0.0
N737 N 0.52323 0.08731 0.65108 0.0
C738 C 0.52544 0.07278 0.63637 0.0
C739 C 0.50828 0.06804 0.62355 0.0
C740 C 0.48903 0.07824 0.62601 0.0
C741 C 0.48712 0.09313 0.64127 0.0
C742 C 0.50473 0.09714 0.65366 0.0
H743 H 0.5402 0.06491 0.63439 0.0
O744 O 0.56939 0.12297 0.62279 0.0
O745 O 0.55494 0.11666 0.65248 0.0
O746 O 0.59036 0.09105 0.64532 0.0
O747 O 0.56408 0.07557 0.66274 0.0
C748 C 0.46856 0.10441 0.6444 0.0
C749 C 0.46803 0.11969 0.65957 0.0
H750 H 0.47345 0.14885 0.68912 0.0
H751 H 0.5068 0.15497 0.70827 0.0
H752 H 0.50991 0.05658 0.61177 0.0
H753 H 0.47588 0.07464 0.616 0.0
H754 H 0.45471 0.10169 0.63502 0.0
H755 H 0.45378 0.12849 0.66162 0.0
Mn756 Mn 0.63202 0.83946 0.4042 0.0
Mn757 Mn 0.63532 0.84607 0.35321 0.0
C758 C 0.66455 0.84049 0.38859 0.0
C759 C 0.6296 0.85254 0.43708 0.0
C760 C 0.62285 0.80593 0.37297 0.0
O761 O 0.60295 0.84984 0.39665 0.0
O762 O 0.60755 0.85605 0.3631 0.0
C763 C 0.63575 0.8912 0.35192 0.0
N764 N 0.64505 0.87311 0.34737 0.0
C765 C 0.67431 0.89022 0.33114 0.0
C766 C 0.66496 0.90903 0.33552 0.0
C767 C 0.64561 0.90951 0.34598 0.0
C768 C 0.66365 0.87246 0.33727 0.0
H769 H 0.62094 0.89164 0.36007 0.0
C770 C 0.59648 0.85647 0.37947 0.0
O771 O 0.62303 0.83423 0.43273 0.0
O772 O 0.63713 0.86344 0.4222 0.0
N773 N 0.66153 0.8373 0.34176 0.0
C774 C 0.66904 0.81799 0.33977 0.0
C775 C 0.68858 0.81489 0.33018 0.0
C776 C 0.70014 0.83164 0.32267 0.0
C777 C 0.692 0.85136 0.32472 0.0
C778 C 0.67233 0.85349 0.33421 0.0
H779 H 0.66027 0.80506 0.34558 0.0
O780 O 0.66241 0.83205 0.40638 0.0
O781 O 0.64765 0.84831 0.38062 0.0
O782 O 0.62512 0.81189 0.39135 0.0
O783 O 0.62568 0.81759 0.35758 0.0
C784 C 0.70285 0.869 0.31813 0.0
C785 C 0.69402 0.88842 0.32135 0.0
H786 H 0.6726 0.9232 0.33112 0.0
H787 H 0.63836 0.92397 0.34952 0.0
H788 H 0.69477 0.79963 0.32868 0.0
H789 H 0.71532 0.82921 0.3155 0.0
H790 H 0.71814 0.86784 0.31084 0.0
H791 H 0.70266 0.90189 0.31648 0.0
Mn792 Mn 0.91412 0.88052 0.15214 0.0
Mn793 Mn 0.95615 0.90731 0.16922 0.0
C794 C 0.94544 0.88107 0.13401 0.0
C795 C 0.89638 0.84958 0.14909 0.0
C796 C 0.91781 0.92685 0.14966 0.0
O797 O 0.90699 0.88466 0.18226 0.0
O798 O 0.9367 0.90126 0.19225 0.0
C799 C 0.97546 0.87565 0.1953 0.0
N800 N 0.97692 0.88886 0.17933 0.0
C801 C 0.01248 0.87832 0.17216 0.0
C802 C 0.01139 0.86471 0.18861 0.0
C803 C 0.99278 0.86335 0.2002 0.0
C804 C 0.99474 0.89025 0.16804 0.0
H805 H 0.96115 0.87444 0.20419 0.0
C806 C 0.9187 0.89291 0.19598 0.0
O807 O 0.88652 0.8666 0.14591 0.0
O808 O 0.91562 0.85077 0.1557 0.0
N809 N 0.97622 0.91347 0.1482 0.0
C810 C 0.97423 0.92636 0.13205 0.0
C811 C 0.99126 0.929 0.11856 0.0
C812 C 0.01015 0.9184 0.12184 0.0
C813 C 0.01184 0.90524 0.1386 0.0
C814 C 0.9944 0.90333 0.1516 0.0
H815 H 0.95974 0.9345 0.1294 0.0
O816 O 0.92782 0.87706 0.12468 0.0
O817 O 0.94382 0.88537 0.15321 0.0
O818 O 0.90755 0.91038 0.14608 0.0
O819 O 0.93584 0.92735 0.1585 0.0
C820 C 0.03 0.89366 0.14267 0.0
C821 C 0.03032 0.88021 0.15944 0.0
H822 H 0.02467 0.8551 0.19236 0.0
H823 H 0.99178 0.85279 0.21285 0.0
H824 H 0.98981 0.93913 0.10562 0.0
H825 H 0.02318 0.92035 0.11131 0.0
H826 H 0.0437 0.89475 0.13283 0.0
H827 H 0.04426 0.87116 0.16223 0.0
Mn828 Mn 0.83849 0.59496 0.88164 0.0
Mn829 Mn 0.79512 0.57654 0.85777 0.0
C830 C 0.80691 0.61237 0.88332 0.0
C831 C 0.85889 0.59707 0.91111 0.0
C832 C 0.83151 0.59758 0.83569 0.0
O833 O 0.84627 0.56527 0.87613 0.0
O834 O 0.81536 0.55412 0.8628 0.0
C835 C 0.77817 0.5503 0.89076 0.0
N836 N 0.77555 0.5659 0.87733 0.0
C837 C 0.73981 0.57106 0.88857 0.0
C838 C 0.74208 0.55495 0.90242 0.0
C839 C 0.76137 0.54457 0.90356 0.0
C840 C 0.75711 0.57608 0.8762 0.0
H841 H 0.79298 0.54231 0.89172 0.0
C842 C 0.83421 0.55108 0.86926 0.0
O843 O 0.86687 0.60182 0.89346 0.0
O844 O 0.83966 0.5902 0.91137 0.0
N845 N 0.77413 0.59669 0.85235 0.0
C846 C 0.77493 0.61264 0.83906 0.0
C847 C 0.75709 0.62497 0.83655 0.0
C848 C 0.73858 0.6207 0.8476 0.0
C849 C 0.73807 0.60411 0.86106 0.0
C850 C 0.75632 0.59232 0.86289 0.0
H851 H 0.7891 0.616 0.8305 0.0
O852 O 0.82459 0.62188 0.88675 0.0
O853 O 0.80832 0.59314 0.87898 0.0
O854 O 0.84261 0.60197 0.85141 0.0
O855 O 0.81403 0.58769 0.83652 0.0
C856 C 0.7203 0.59902 0.873 0.0
C857 C 0.72119 0.58256 0.8868 0.0
H858 H 0.72918 0.55052 0.91236 0.0
H859 H 0.76327 0.53219 0.91429 0.0
H860 H 0.75762 0.63777 0.82615 0.0
H861 H 0.7249 0.63033 0.84573 0.0
H862 H 0.70598 0.60789 0.87194 0.0
H863 H 0.70755 0.57904 0.89616 0.0
Mn864 Mn 0.33725 0.90289 0.12363 0.0
Mn865 Mn 0.29895 0.92753 0.14902 0.0
C866 C 0.30415 0.88812 0.12645 0.0
C867 C 0.35492 0.89778 0.09312 0.0
C868 C 0.33577 0.90633 0.16957 0.0
O869 O 0.34868 0.93207 0.12624 0.0
O870 O 0.31953 0.9476 0.13826 0.0
C871 C 0.27897 0.94994 0.11502 0.0
N872 N 0.27736 0.93667 0.13091 0.0
C873 C 0.24002 0.93237 0.12533 0.0
C874 C 0.24121 0.94627 0.10912 0.0
C875 C 0.26079 0.95503 0.1039 0.0
C876 C 0.25862 0.9281 0.13604 0.0
H877 H 0.29404 0.95647 0.11077 0.0
C878 C 0.33828 0.94801 0.13097 0.0
O879 O 0.36377 0.8932 0.11041 0.0
O880 O 0.33623 0.90563 0.09367 0.0
N881 N 0.27785 0.90955 0.15985 0.0
C882 C 0.27986 0.89491 0.17442 0.0
C883 C 0.26203 0.88353 0.18036 0.0
C884 C 0.24234 0.88741 0.17133 0.0
C885 C 0.24059 0.90277 0.15658 0.0
C886 C 0.25889 0.91368 0.15134 0.0
H887 H 0.29498 0.89175 0.18129 0.0
O888 O 0.32031 0.87701 0.12188 0.0
O889 O 0.30784 0.90748 0.1288 0.0
O890 O 0.34333 0.89768 0.15378 0.0
O891 O 0.32018 0.91856 0.16919 0.0
C892 C 0.2216 0.90718 0.14631 0.0
C893 C 0.22128 0.92202 0.13077 0.0
H894 H 0.22726 0.95003 0.10035 0.0
H895 H 0.2619 0.96557 0.09125 0.0
H896 H 0.26348 0.87166 0.19171 0.0
H897 H 0.22881 0.87822 0.17561 0.0
H898 H 0.20728 0.89887 0.14977 0.0
H899 H 0.20666 0.92492 0.12271 0.0
Mn900 Mn 0.15675 0.09579 0.62744 0.0
Mn901 Mn 0.19262 0.06848 0.65331 0.0
C902 C 0.19067 0.10852 0.63146 0.0
C903 C 0.14012 0.10197 0.59655 0.0
C904 C 0.15667 0.09155 0.67326 0.0
O905 O 0.14334 0.06733 0.62935 0.0
O906 O 0.17131 0.04983 0.64127 0.0
C907 C 0.21242 0.04586 0.61933 0.0
N908 N 0.21425 0.0585 0.63576 0.0
C909 C 0.25201 0.06023 0.63208 0.0
C910 C 0.25059 0.04688 0.61539 0.0
C911 C 0.23068 0.03976 0.60891 0.0
C912 C 0.23328 0.06562 0.64199 0.0
H913 H 0.19714 0.04063 0.61412 0.0
C914 C 0.1527 0.05071 0.63369 0.0
O915 O 0.13121 0.10708 0.61365 0.0
O916 O 0.15834 0.09319 0.59749 0.0
N917 N 0.21436 0.08496 0.66538 0.0
C918 C 0.21275 0.09937 0.68029 0.0
C919 C 0.23109 0.10919 0.68752 0.0
C920 C 0.25086 0.10397 0.67947 0.0
C921 C 0.25214 0.08898 0.66423 0.0
C922 C 0.23334 0.07969 0.65767 0.0
H923 H 0.19759 0.10345 0.68653 0.0
O924 O 0.1754 0.12061 0.62652 0.0
O925 O 0.18566 0.08939 0.63334 0.0
O926 O 0.15028 0.10107 0.6575 0.0
O927 O 0.17128 0.07823 0.67297 0.0
C928 C 0.27123 0.08324 0.65494 0.0
C929 C 0.27119 0.06889 0.63889 0.0
H930 H 0.26463 0.04231 0.6072 0.0
H931 H 0.22941 0.02969 0.59585 0.0
H932 H 0.22998 0.12079 0.69923 0.0
H933 H 0.26488 0.11176 0.68495 0.0
H934 H 0.28601 0.09004 0.65967 0.0
H935 H 0.28596 0.06499 0.63158 0.0
Mn936 Mn 0.15725 0.89934 0.88173 0.0
Mn937 Mn 0.19989 0.91783 0.85688 0.0
C938 C 0.18877 0.8817 0.88209 0.0
C939 C 0.13786 0.8969 0.91174 0.0
C940 C 0.16251 0.89749 0.83553 0.0
O941 O 0.14956 0.92923 0.87709 0.0
O942 O 0.18013 0.94031 0.86311 0.0
C943 C 0.21845 0.94337 0.88976 0.0
N944 N 0.22034 0.92795 0.87595 0.0
C945 C 0.25653 0.92242 0.88564 0.0
C946 C 0.25501 0.93834 0.89986 0.0
C947 C 0.23587 0.9488 0.90197 0.0
C948 C 0.23864 0.91768 0.87389 0.0
H949 H 0.20376 0.95144 0.89145 0.0
C950 C 0.16157 0.94343 0.87023 0.0
O951 O 0.12924 0.89247 0.89425 0.0
O952 O 0.15715 0.90361 0.91158 0.0
N953 N 0.22041 0.89757 0.85031 0.0
C954 C 0.21889 0.88183 0.83677 0.0
C955 C 0.2365 0.86943 0.83333 0.0
C956 C 0.25553 0.87343 0.8437 0.0
C957 C 0.25677 0.88979 0.85746 0.0
C958 C 0.23871 0.90166 0.86024 0.0
H959 H 0.20433 0.87871 0.82871 0.0
O960 O 0.17114 0.87224 0.88586 0.0
O961 O 0.18733 0.901 0.87817 0.0
O962 O 0.15197 0.89285 0.85149 0.0
O963 O 0.18006 0.90727 0.83604 0.0
C964 C 0.27512 0.89461 0.86874 0.0
C965 C 0.27498 0.91087 0.88287 0.0
H966 H 0.26839 0.94255 0.90934 0.0
H967 H 0.23454 0.96104 0.91299 0.0
H968 H 0.23541 0.8568 0.82271 0.0
H969 H 0.26905 0.86375 0.84109 0.0
H970 H 0.28932 0.88569 0.86693 0.0
H971 H 0.28907 0.9142 0.89171 0.0
Mn972 Mn 0.66095 0.40631 0.37809 0.0
Mn973 Mn 0.70285 0.4257 0.3527 0.0
C974 C 0.69334 0.39021 0.37939 0.0
C975 C 0.64105 0.40414 0.40783 0.0
C976 C 0.66654 0.40303 0.33202 0.0
O977 O 0.65191 0.4356 0.37225 0.0
O978 O 0.68203 0.44749 0.358 0.0
C979 C 0.7201 0.45326 0.38459 0.0
N980 N 0.72275 0.43743 0.37139 0.0
C981 C 0.75921 0.43402 0.38117 0.0
C982 C 0.75691 0.45038 0.39477 0.0
C983 C 0.73724 0.45998 0.39654 0.0
C984 C 0.74156 0.42798 0.36968 0.0
H985 H 0.70501 0.46069 0.386 0.0
C986 C 0.66329 0.45004 0.36491 0.0
O987 O 0.63305 0.39878 0.39032 0.0
O988 O 0.66008 0.41157 0.40782 0.0
N989 N 0.72432 0.40613 0.34698 0.0
C990 C 0.72356 0.38979 0.33411 0.0
C991 C 0.74177 0.37808 0.33114 0.0
C992 C 0.76061 0.38339 0.34127 0.0
C993 C 0.76105 0.40034 0.35434 0.0
C994 C 0.74242 0.41145 0.35668 0.0
H995 H 0.70916 0.38567 0.32622 0.0
O996 O 0.67617 0.38008 0.3834 0.0
O997 O 0.69095 0.40923 0.37466 0.0
O998 O 0.65624 0.39851 0.34813 0.0
O999 O 0.68364 0.41355 0.33217 0.0
C1000 C 0.77917 0.40647 0.36535 0.0
C1001 C 0.77823 0.42327 0.3788 0.0
H1002 H 0.77008 0.45558 0.40405 0.0
H1003 H 0.73531 0.47255 0.40708 0.0
H1004 H 0.74129 0.36499 0.32106 0.0
H1005 H 0.77459 0.37425 0.33903 0.0
H1006 H 0.7938 0.39816 0.36388 0.0
H1007 H 0.79216 0.42762 0.38745 0.0
Mn1008 Mn 0.83457 0.40161 0.6225 0.0
Mn1009 Mn 0.79802 0.4275 0.64884 0.0
C1010 C 0.80055 0.3887 0.62483 0.0
C1011 C 0.85215 0.39698 0.59183 0.0
C1012 C 0.83378 0.40385 0.66838 0.0
O1013 O 0.84772 0.43002 0.62623 0.0
O1014 O 0.81927 0.44687 0.63806 0.0
C1015 C 0.77829 0.4516 0.61588 0.0
N1016 N 0.77646 0.43807 0.63153 0.0
C1017 C 0.73873 0.43628 0.62745 0.0
C1018 C 0.74016 0.45048 0.61153 0.0
C1019 C 0.76005 0.45808 0.60564 0.0
C1020 C 0.75744 0.4305 0.63719 0.0
H1021 H 0.79356 0.45727 0.61116 0.0
C1022 C 0.8381 0.44641 0.63098 0.0
O1023 O 0.86055 0.39113 0.60894 0.0
O1024 O 0.83384 0.40562 0.59265 0.0
N1025 N 0.77637 0.41018 0.6597 0.0
C1026 C 0.77802 0.39497 0.67374 0.0
C1027 C 0.75974 0.3846 0.68019 0.0
C1028 C 0.73997 0.39007 0.67227 0.0
C1029 C 0.73864 0.40587 0.65793 0.0
C1030 C 0.7574 0.41565 0.65207 0.0
H1031 H 0.79317 0.3907 0.67989 0.0
O1032 O 0.81597 0.37683 0.61975 0.0
O1033 O 0.80553 0.40768 0.62793 0.0
O1034 O 0.84035 0.39486 0.65238 0.0
O1035 O 0.81921 0.41718 0.66837 0.0
C1036 C 0.71953 0.41199 0.64886 0.0
C1037 C 0.71956 0.42717 0.63364 0.0
H1038 H 0.72613 0.45537 0.60348 0.0
H1039 H 0.76132 0.46884 0.59318 0.0
H1040 H 0.76088 0.37238 0.6912 0.0
H1041 H 0.72601 0.38185 0.67715 0.0
H1042 H 0.70476 0.40485 0.6531 0.0
H1043 H 0.70481 0.43136 0.62645 0.0
Mn1044 Mn 0.65451 0.60011 0.12106 0.0
Mn1045 Mn 0.69199 0.57501 0.1471 0.0
C1046 C 0.68787 0.61433 0.12429 0.0
C1047 C 0.63737 0.60518 0.0902 0.0
C1048 C 0.6551 0.59676 0.16696 0.0
O1049 O 0.64254 0.57114 0.12366 0.0
O1050 O 0.67138 0.55514 0.13586 0.0
C1051 C 0.71246 0.55223 0.11361 0.0
N1052 N 0.71387 0.56557 0.12951 0.0
C1053 C 0.75139 0.56939 0.12486 0.0
C1054 C 0.7504 0.55541 0.10865 0.0
C1055 C 0.73083 0.54686 0.10296 0.0
C1056 C 0.73259 0.57395 0.13508 0.0
H1057 H 0.69742 0.54586 0.109 0.0
C1058 C 0.65266 0.55504 0.12842 0.0
O1059 O 0.62836 0.61011 0.1073 0.0
O1060 O 0.65591 0.59706 0.09113 0.0
N1061 N 0.71306 0.59284 0.15838 0.0
C1062 C 0.71089 0.60762 0.17284 0.0
C1063 C 0.72872 0.6188 0.17921 0.0
C1064 C 0.74857 0.61461 0.17073 0.0
C1065 C 0.75046 0.59918 0.15602 0.0
C1066 C 0.73215 0.58847 0.15033 0.0
H1067 H 0.69565 0.61099 0.17932 0.0
O1068 O 0.67198 0.62569 0.11943 0.0
O1069 O 0.68374 0.59506 0.1267 0.0
O1070 O 0.64807 0.60566 0.15109 0.0
O1071 O 0.67044 0.58424 0.1668 0.0
C1072 C 0.76964 0.59445 0.14627 0.0
C1073 C 0.77013 0.57953 0.13076 0.0
H1074 H 0.7645 0.55143 0.10024 0.0
H1075 H 0.72989 0.53626 0.0903 0.0
H1076 H 0.72716 0.63074 0.19052 0.0
H1077 H 0.76214 0.62357 0.17541 0.0
H1078 H 0.78402 0.60253 0.15016 0.0
H1079 H 0.7849 0.57639 0.1231 0.0
Mn1080 Mn 0.6201 0.67498 0.91169 0.0
Mn1081 Mn 0.61924 0.62407 0.90417 0.0
C1082 C 0.58918 0.65882 0.90218 0.0
C1083 C 0.62631 0.70762 0.89877 0.0
C1084 C 0.6156 0.64308 0.94594 0.0
O1085 O 0.65129 0.6685 0.91019 0.0
O1086 O 0.64858 0.63449 0.90705 0.0
C1087 C 0.63901 0.62548 0.86328 0.0
N1088 N 0.6227 0.61963 0.87556 0.0
C1089 C 0.60565 0.60178 0.84793 0.0
C1090 C 0.62227 0.60755 0.83499 0.0
C1091 C 0.63896 0.61957 0.84267 0.0
C1092 C 0.60633 0.60852 0.86821 0.0
H1093 H 0.652 0.6345 0.86916 0.0
C1094 C 0.65943 0.65091 0.90893 0.0
O1095 O 0.62686 0.70418 0.91831 0.0
O1096 O 0.62243 0.69215 0.88701 0.0
N1097 N 0.59229 0.61106 0.90094 0.0
C1098 C 0.57793 0.60606 0.91562 0.0
C1099 C 0.56025 0.59403 0.91045 0.0
C1100 C 0.55794 0.5866 0.89045 0.0
C1101 C 0.57331 0.59132 0.87577 0.0
C1102 C 0.59035 0.60374 0.8817 0.0
H1103 H 0.57994 0.61129 0.93115 0.0
O1104 O 0.58882 0.67675 0.91051 0.0
O1105 O 0.60773 0.65111 0.89871 0.0
O1106 O 0.61818 0.66164 0.94024 0.0
O1107 O 0.61516 0.62794 0.93361 0.0
C1108 C 0.57271 0.58379 0.85561 0.0
C1109 C 0.58866 0.58928 0.84162 0.0
H1110 H 0.62243 0.60277 0.81915 0.0
H1111 H 0.65186 0.62409 0.83279 0.0
H1112 H 0.54859 0.59024 0.92193 0.0
H1113 H 0.54446 0.57703 0.88666 0.0
H1114 H 0.56021 0.57359 0.85068 0.0
H1115 H 0.58787 0.58355 0.82612 0.0
Mn1116 Mn 0.59675 0.38193 0.15939 0.0
Mn1117 Mn 0.60389 0.38881 0.10881 0.0
C1118 C 0.59851 0.4144 0.14614 0.0
C1119 C 0.61117 0.37724 0.19172 0.0
C1120 C 0.56193 0.37634 0.12758 0.0
O1121 O 0.60647 0.35414 0.14967 0.0
O1122 O 0.61311 0.36096 0.11657 0.0
C1123 C 0.65062 0.38787 0.10784 0.0
N1124 N 0.63224 0.39775 0.10387 0.0
C1125 C 0.65104 0.42661 0.09 0.0
C1126 C 0.67017 0.41668 0.09381 0.0
C1127 C 0.66995 0.39723 0.10279 0.0
C1128 C 0.63226 0.41645 0.0952 0.0
H1129 H 0.65051 0.37297 0.11486 0.0
C1130 C 0.61292 0.34894 0.13199 0.0
O1131 O 0.59187 0.37161 0.18767 0.0
O1132 O 0.6221 0.385 0.17688 0.0
N1133 N 0.59576 0.41517 0.09925 0.0
C1134 C 0.576 0.42309 0.09756 0.0
C1135 C 0.57349 0.44268 0.08933 0.0
C1136 C 0.59127 0.45387 0.08284 0.0
C1137 C 0.61142 0.44531 0.08454 0.0
C1138 C 0.61293 0.42562 0.09264 0.0
H1139 H 0.56228 0.41458 0.10257 0.0
O1140 O 0.5899 0.41126 0.16382 0.0
O1141 O 0.60616 0.3985 0.13698 0.0
O1142 O 0.5679 0.37692 0.14619 0.0
O1143 O 0.57421 0.38011 0.11254 0.0
C1144 C 0.63009 0.45569 0.07889 0.0
C1145 C 0.64989 0.44636 0.08165 0.0
H1146 H 0.68512 0.42391 0.09008 0.0
H1147 H 0.68465 0.38952 0.10588 0.0
H1148 H 0.55789 0.44919 0.08808 0.0
H1149 H 0.58929 0.46907 0.07672 0.0
H1150 H 0.62943 0.47098 0.07269 0.0
H1151 H 0.66415 0.45462 0.07752 0.0
Mn1152 Mn 0.88178 0.33441 0.4132 0.0
Mn1153 Mn 0.88443 0.3852 0.40537 0.0
C1154 C 0.91355 0.34968 0.4052 0.0
C1155 C 0.87536 0.3017 0.40062 0.0
C1156 C 0.88464 0.36654 0.4474 0.0
O1157 O 0.85098 0.34169 0.40979 0.0
O1158 O 0.85458 0.37561 0.40616 0.0
C1159 C 0.86767 0.38432 0.36317 0.0
N1160 N 0.88324 0.38964 0.37659 0.0
C1161 C 0.90296 0.40676 0.35027 0.0
C1162 C 0.88712 0.40153 0.33616 0.0
C1163 C 0.86946 0.39015 0.34263 0.0
C1164 C 0.9005 0.40019 0.37045 0.0
H1165 H 0.85395 0.37578 0.36811 0.0
C1166 C 0.8433 0.35939 0.40762 0.0
O1167 O 0.87378 0.30566 0.42 0.0
O1168 O 0.88041 0.31673 0.38873 0.0
N1169 N 0.91204 0.39722 0.40406 0.0
C1170 C 0.92575 0.40131 0.41963 0.0
C1171 C 0.94441 0.41234 0.41564 0.0
C1172 C 0.94843 0.41965 0.39587 0.0
C1173 C 0.93375 0.41583 0.38025 0.0
C1174 C 0.91566 0.40438 0.38503 0.0
H1175 H 0.9225 0.39608 0.43494 0.0
O1176 O 0.91298 0.33191 0.41384 0.0
O1177 O 0.89543 0.35778 0.40068 0.0
O1178 O 0.8823 0.348 0.44159 0.0
O1179 O 0.88615 0.38159 0.43509 0.0
C1180 C 0.93616 0.42322 0.3602 0.0
C1181 C 0.92093 0.41846 0.34516 0.0
H1182 H 0.88833 0.4062 0.32035 0.0
H1183 H 0.85716 0.38604 0.33185 0.0
H1184 H 0.95556 0.41539 0.42783 0.0
H1185 H 0.96273 0.42833 0.39291 0.0
H1186 H 0.94964 0.43261 0.35614 0.0
H1187 H 0.92314 0.42402 0.32974 0.0
Mn1188 Mn 0.89673 0.619 0.66163 0.0
Mn1189 Mn 0.88718 0.6113 0.61148 0.0
C1190 C 0.89433 0.58634 0.64886 0.0
C1191 C 0.88388 0.62402 0.69452 0.0
C1192 C 0.93009 0.62364 0.62834 0.0
O1193 O 0.88654 0.64667 0.65205 0.0
O1194 O 0.87865 0.63937 0.61927 0.0
C1195 C 0.84047 0.61277 0.61251 0.0
N1196 N 0.85851 0.60263 0.60784 0.0
C1197 C 0.8387 0.57385 0.59497 0.0
C1198 C 0.8199 0.58405 0.59951 0.0
C1199 C 0.8208 0.60358 0.60835 0.0
C1200 C 0.85784 0.58383 0.59933 0.0
H1201 H 0.84109 0.62774 0.61941 0.0
C1202 C 0.87942 0.65162 0.63453 0.0
O1203 O 0.90295 0.62965 0.68963 0.0
O1204 O 0.87225 0.61616 0.68018 0.0
N1205 N 0.89451 0.58471 0.60185 0.0
C1206 C 0.91406 0.57655 0.59935 0.0
C1207 C 0.91593 0.55686 0.59113 0.0
C1208 C 0.89772 0.54582 0.58546 0.0
C1209 C 0.87778 0.55463 0.58796 0.0
C1210 C 0.87691 0.5744 0.59603 0.0
H1211 H 0.92811 0.58494 0.60371 0.0
O1212 O 0.90379 0.58974 0.66611 0.0
O1213 O 0.88622 0.60208 0.63984 0.0
O1214 O 0.92494 0.62373 0.64717 0.0
O1215 O 0.91711 0.61963 0.61388 0.0
C1216 C 0.85873 0.54442 0.58315 0.0
C1217 C 0.83921 0.55401 0.58668 0.0
H1218 H 0.8047 0.57695 0.59645 0.0
H1219 H 0.80636 0.61149 0.612 0.0
H1220 H 0.93137 0.55016 0.58925 0.0
H1221 H 0.89921 0.53054 0.57934 0.0
H1222 H 0.8589 0.52908 0.577 0.0
H1223 H 0.82466 0.54589 0.5832 0.0
Mn1224 Mn 0.62491 0.33094 0.5756 0.0
Mn1225 Mn 0.62738 0.33385 0.62698 0.0
C1226 C 0.65641 0.33843 0.59153 0.0
C1227 C 0.61845 0.34607 0.54407 0.0
C1228 C 0.62898 0.294 0.60425 0.0
O1229 O 0.59411 0.33304 0.58323 0.0
O1230 O 0.59761 0.33258 0.61734 0.0
C1231 C 0.60872 0.37499 0.63027 0.0
N1232 N 0.62484 0.36195 0.63427 0.0
C1233 C 0.64311 0.3874 0.6542 0.0
C1234 C 0.6267 0.40108 0.65035 0.0
C1235 C 0.60948 0.39488 0.63822 0.0
C1236 C 0.64167 0.36789 0.64556 0.0
H1237 H 0.59533 0.37025 0.62116 0.0
C1238 C 0.58636 0.33287 0.6011 0.0
O1239 O 0.61713 0.32641 0.54639 0.0
O1240 O 0.6233 0.35679 0.56007 0.0
N1241 N 0.65484 0.33547 0.63914 0.0
C1242 C 0.66933 0.32041 0.64156 0.0
C1243 C 0.68768 0.32427 0.65306 0.0
C1244 C 0.69061 0.34333 0.66252 0.0
C1245 C 0.67519 0.35837 0.66032 0.0
C1246 C 0.65744 0.3538 0.64834 0.0
H1247 H 0.66698 0.30563 0.6346 0.0
O1248 O 0.65614 0.33131 0.57305 0.0
O1249 O 0.63819 0.34168 0.60006 0.0
O1250 O 0.62573 0.3015 0.58651 0.0
O1251 O 0.63059 0.30475 0.62048 0.0
C1252 C 0.67656 0.37764 0.66979 0.0
C1253 C 0.66071 0.39224 0.66651 0.0
H1254 H 0.62712 0.41637 0.65665 0.0
H1255 H 0.59674 0.40534 0.63517 0.0
H1256 H 0.69943 0.31252 0.6548 0.0
H1257 H 0.7047 0.34619 0.67153 0.0
H1258 H 0.68971 0.38142 0.67967 0.0
H1259 H 0.66213 0.4071 0.67366 0.0
Mn1260 Mn 0.90911 0.37394 0.8454 0.0
Mn1261 Mn 0.8578 0.36153 0.85248 0.0
C1262 C 0.89893 0.3402 0.84745 0.0
C1263 C 0.94278 0.38198 0.85716 0.0
C1264 C 0.87552 0.3734 0.81155 0.0
O1265 O 0.89696 0.40073 0.85507 0.0
O1266 O 0.86286 0.39119 0.85787 0.0
C1267 C 0.85725 0.36826 0.89718 0.0
N1268 N 0.85394 0.35577 0.88084 0.0
C1269 C 0.84266 0.32824 0.90261 0.0
C1270 C 0.84582 0.34085 0.91966 0.0
C1271 C 0.85319 0.36094 0.91693 0.0
C1272 C 0.84693 0.33639 0.8833 0.0
H1273 H 0.86297 0.38369 0.89517 0.0
C1274 C 0.87767 0.40467 0.85873 0.0
O1275 O 0.93658 0.38718 0.83902 0.0
O1276 O 0.92903 0.37295 0.86882 0.0
N1277 N 0.85027 0.33352 0.84806 0.0
C1278 C 0.84843 0.32318 0.83007 0.0
C1279 C 0.84144 0.3028 0.83016 0.0
C1280 C 0.83618 0.29331 0.84869 0.0
C1281 C 0.8378 0.30437 0.86697 0.0
C1282 C 0.84473 0.32469 0.86592 0.0
H1283 H 0.85253 0.33036 0.8158 0.0
O1284 O 0.91638 0.34533 0.83842 0.0
O1285 O 0.8879 0.35496 0.85529 0.0
O1286 O 0.8941 0.37738 0.81802 0.0
O1287 O 0.86062 0.36666 0.82288 0.0
C1288 C 0.83318 0.29591 0.88622 0.0
C1289 C 0.83565 0.30783 0.90403 0.0
H1290 H 0.84277 0.33524 0.93493 0.0
H1291 H 0.85575 0.37074 0.93002 0.0
H1292 H 0.84021 0.29438 0.81598 0.0
H1293 H 0.83101 0.27752 0.84872 0.0
H1294 H 0.82792 0.28021 0.88752 0.0
H1295 H 0.83223 0.3011 0.91876 0.0
Mn1296 Mn 0.86398 0.67174 0.07889 0.0
Mn1297 Mn 0.86135 0.66868 0.13024 0.0
C1298 C 0.83223 0.66511 0.09453 0.0
C1299 C 0.87081 0.65636 0.04752 0.0
C1300 C 0.86081 0.70865 0.10782 0.0
O1301 O 0.8946 0.66898 0.0867 0.0
O1302 O 0.89123 0.6693 0.12079 0.0
C1303 C 0.87897 0.62708 0.13317 0.0
N1304 N 0.86317 0.64046 0.13725 0.0
C1305 C 0.84433 0.61534 0.15696 0.0
C1306 C 0.8604 0.6013 0.15302 0.0
C1307 C 0.87774 0.60717 0.14096 0.0
C1308 C 0.8462 0.63484 0.14843 0.0
H1309 H 0.89246 0.63156 0.12414 0.0
C1310 C 0.9024 0.66885 0.10454 0.0
O1311 O 0.87228 0.67603 0.04978 0.0
O1312 O 0.86523 0.64583 0.06337 0.0
N1313 N 0.83386 0.66762 0.14233 0.0
C1314 C 0.81987 0.68305 0.14504 0.0
C1315 C 0.8015 0.67959 0.15656 0.0
C1316 C 0.79807 0.66053 0.16579 0.0
C1317 C 0.81303 0.64508 0.16335 0.0
C1318 C 0.8308 0.64927 0.15132 0.0
H1319 H 0.82261 0.69783 0.13828 0.0
O1320 O 0.83282 0.6721 0.07603 0.0
O1321 O 0.8503 0.66133 0.1032 0.0
O1322 O 0.86387 0.70118 0.09001 0.0
O1323 O 0.85889 0.69788 0.12396 0.0
C1324 C 0.81122 0.62581 0.17269 0.0
C1325 C 0.82668 0.61085 0.16926 0.0
H1326 H 0.85963 0.58601 0.15923 0.0
H1327 H 0.89023 0.59644 0.13786 0.0
H1328 H 0.79011 0.69165 0.15851 0.0
H1329 H 0.78399 0.65799 0.17485 0.0
H1330 H 0.79801 0.62228 0.18255 0.0
H1331 H 0.82493 0.596 0.17632 0.0
Mn1332 Mn 0.5807 0.62468 0.3447 0.0
Mn1333 Mn 0.63193 0.63788 0.35132 0.0
C1334 C 0.59031 0.65855 0.34673 0.0
C1335 C 0.54748 0.61609 0.35715 0.0
C1336 C 0.61376 0.6261 0.31041 0.0
O1337 O 0.59344 0.59805 0.35393 0.0
O1338 O 0.6274 0.60813 0.35634 0.0
C1339 C 0.63301 0.63073 0.39592 0.0
N1340 N 0.63603 0.6434 0.37972 0.0
C1341 C 0.64724 0.67084 0.40178 0.0
C1342 C 0.64437 0.65803 0.41869 0.0
C1343 C 0.63719 0.63791 0.41574 0.0
C1344 C 0.64283 0.66283 0.38239 0.0
H1345 H 0.62743 0.61527 0.39375 0.0
C1346 C 0.61286 0.5944 0.35726 0.0
O1347 O 0.55322 0.61107 0.33882 0.0
O1348 O 0.56142 0.62527 0.36854 0.0
N1349 N 0.63913 0.666 0.34721 0.0
C1350 C 0.64097 0.67644 0.32933 0.0
C1351 C 0.64797 0.69682 0.32961 0.0
C1352 C 0.65324 0.7062 0.34824 0.0
C1353 C 0.65165 0.69503 0.36641 0.0
C1354 C 0.64478 0.6747 0.36515 0.0
H1355 H 0.63686 0.66935 0.31498 0.0
O1356 O 0.57273 0.65313 0.33803 0.0
O1357 O 0.60176 0.644 0.35438 0.0
O1358 O 0.59533 0.62165 0.31701 0.0
O1359 O 0.62868 0.633 0.3217 0.0
C1360 C 0.65634 0.70336 0.38574 0.0
C1361 C 0.65409 0.69129 0.40342 0.0
H1362 H 0.64754 0.66352 0.434 0.0
H1363 H 0.63486 0.62796 0.42872 0.0
H1364 H 0.64917 0.70533 0.31551 0.0
H1365 H 0.65839 0.722 0.34842 0.0
H1366 H 0.66154 0.71909 0.3872 0.0
H1367 H 0.65759 0.69791 0.41821 0.0
Mn1368 Mn 0.65984 0.90193 0.61466 0.0
Mn1369 Mn 0.60844 0.89295 0.60368 0.0
C1370 C 0.64901 0.89859 0.58122 0.0
C1371 C 0.6936 0.89074 0.62238 0.0
C1372 C 0.62549 0.93455 0.61519 0.0
O1373 O 0.64831 0.89258 0.64191 0.0
O1374 O 0.61431 0.88729 0.63303 0.0
C1375 C 0.60873 0.84821 0.60971 0.0
N1376 N 0.6049 0.8646 0.59756 0.0
C1377 C 0.59319 0.84292 0.57004 0.0
C1378 C 0.59688 0.82581 0.5823 0.0
C1379 C 0.60471 0.82847 0.60221 0.0
C1380 C 0.59737 0.86221 0.57838 0.0
H1381 H 0.61482 0.85017 0.62499 0.0
C1382 C 0.62936 0.88746 0.64618 0.0
O1383 O 0.68758 0.90903 0.62711 0.0
O1384 O 0.67978 0.87879 0.61375 0.0
N1385 N 0.6004 0.89751 0.57589 0.0
C1386 C 0.59854 0.91553 0.56574 0.0
C1387 C 0.59127 0.91551 0.54548 0.0
C1388 C 0.58585 0.897 0.53591 0.0
C1389 C 0.58765 0.87867 0.54674 0.0
C1390 C 0.59479 0.87966 0.56697 0.0
H1391 H 0.60283 0.92977 0.57296 0.0
O1392 O 0.66641 0.90824 0.5856 0.0
O1393 O 0.63844 0.89107 0.59651 0.0
O1394 O 0.6445 0.92899 0.61806 0.0
O1395 O 0.61069 0.92254 0.60929 0.0
C1396 C 0.58306 0.85943 0.53813 0.0
C1397 C 0.58586 0.84157 0.54975 0.0
H1398 H 0.5939 0.81055 0.57654 0.0
H1399 H 0.60769 0.81534 0.61174 0.0
H1400 H 0.58997 0.92972 0.53721 0.0
H1401 H 0.58049 0.89702 0.5202 0.0
H1402 H 0.57763 0.85818 0.52248 0.0
H1403 H 0.58252 0.82685 0.54288 0.0
Mn1404 Mn 0.37683 0.33317 0.09009 0.0
Mn1405 Mn 0.3889 0.38284 0.09803 0.0
C1406 C 0.41153 0.34301 0.09354 0.0
C1407 C 0.36708 0.30123 0.10238 0.0
C1408 C 0.37689 0.36559 0.05659 0.0
O1409 O 0.34888 0.34536 0.09838 0.0
O1410 O 0.35876 0.37771 0.10539 0.0
C1411 C 0.38522 0.3833 0.14306 0.0
N1412 N 0.39689 0.38664 0.12592 0.0
C1413 C 0.42685 0.39779 0.14581 0.0
C1414 C 0.4151 0.3946 0.16367 0.0
C1415 C 0.39421 0.38729 0.16228 0.0
C1416 C 0.41702 0.39361 0.12708 0.0
H1417 H 0.36919 0.37759 0.14206 0.0
C1418 C 0.34488 0.36336 0.10455 0.0
O1419 O 0.363 0.30662 0.08374 0.0
O1420 O 0.37636 0.31461 0.11403 0.0
N1421 N 0.41749 0.39018 0.09173 0.0
C1422 C 0.42687 0.39189 0.0731 0.0
C1423 C 0.4479 0.39878 0.07182 0.0
C1424 C 0.459 0.40402 0.08968 0.0
C1425 C 0.44891 0.40247 0.10865 0.0
C1426 C 0.42786 0.39571 0.10896 0.0
H1427 H 0.41842 0.3879 0.05931 0.0
O1428 O 0.40672 0.32582 0.08478 0.0
O1429 O 0.39588 0.35377 0.10043 0.0
O1430 O 0.37497 0.34709 0.06231 0.0
O1431 O 0.38145 0.38024 0.06877 0.0
C1432 C 0.45903 0.40702 0.1273 0.0
C1433 C 0.44802 0.40463 0.14587 0.0
H1434 H 0.422 0.39758 0.17853 0.0
H1435 H 0.38508 0.38469 0.176 0.0
H1436 H 0.45556 0.39997 0.05712 0.0
H1437 H 0.47529 0.4091 0.08866 0.0
H1438 H 0.47535 0.41213 0.12756 0.0
H1439 H 0.45605 0.40795 0.16012 0.0
Mn1440 Mn 0.41154 0.62494 0.8387 0.0
Mn1441 Mn 0.44958 0.60093 0.81214 0.0
C1442 C 0.44553 0.62321 0.85172 0.0
C1443 C 0.39323 0.65463 0.84593 0.0
C1444 C 0.41512 0.57878 0.83585 0.0
O1445 O 0.39881 0.62264 0.8101 0.0
O1446 O 0.42686 0.60972 0.79345 0.0
C1447 C 0.46566 0.63534 0.78723 0.0
N1448 N 0.46923 0.62 0.80075 0.0
C1449 C 0.50653 0.62729 0.80117 0.0
C1450 C 0.50331 0.64302 0.78705 0.0
C1451 C 0.48276 0.64711 0.78013 0.0
C1452 C 0.4889 0.61599 0.80759 0.0
H1453 H 0.44987 0.6386 0.78197 0.0
C1454 C 0.4082 0.6171 0.79377 0.0
O1455 O 0.38516 0.63686 0.8502 0.0
O1456 O 0.41144 0.65504 0.83691 0.0
N1457 N 0.47265 0.59188 0.82848 0.0
C1458 C 0.47269 0.57763 0.84359 0.0
C1459 C 0.49179 0.57263 0.85312 0.0
C1460 C 0.51062 0.5822 0.84691 0.0
C1461 C 0.51023 0.59669 0.83121 0.0
C1462 C 0.49072 0.60106 0.82227 0.0
H1463 H 0.45824 0.57034 0.84852 0.0
O1464 O 0.42969 0.62669 0.8637 0.0
O1465 O 0.44106 0.62106 0.83248 0.0
O1466 O 0.40632 0.59444 0.84353 0.0
O1467 O 0.43066 0.57982 0.82349 0.0
C1468 C 0.5283 0.60739 0.82446 0.0
C1469 C 0.52646 0.62271 0.80949 0.0
H1470 H 0.51645 0.65222 0.78164 0.0
H1471 H 0.48012 0.65934 0.76937 0.0
H1472 H 0.492 0.56152 0.86531 0.0
H1473 H 0.52517 0.5785 0.85455 0.0
H1474 H 0.54363 0.60433 0.83099 0.0
H1475 H 0.54042 0.63114 0.80478 0.0
Mn1476 Mn 0.11418 0.66582 0.58661 0.0
Mn1477 Mn 0.10547 0.616 0.59676 0.0
C1478 C 0.08027 0.65423 0.59143 0.0
C1479 C 0.12248 0.69852 0.59799 0.0
C1480 C 0.11516 0.63206 0.55439 0.0
O1481 O 0.14309 0.65556 0.59433 0.0
O1482 O 0.13554 0.62306 0.60292 0.0
C1483 C 0.11073 0.61764 0.64162 0.0
N1484 N 0.09866 0.61298 0.625 0.0
C1485 C 0.07006 0.60121 0.6462 0.0
C1486 C 0.08223 0.60574 0.66355 0.0
C1487 C 0.10264 0.61403 0.66124 0.0
C1488 C 0.07899 0.60507 0.62704 0.0
H1489 H 0.12637 0.62411 0.6399 0.0
C1490 C 0.14846 0.63811 0.60096 0.0
O1491 O 0.12615 0.69299 0.57929 0.0
O1492 O 0.11435 0.68494 0.6101 0.0
N1493 N 0.07713 0.60691 0.59162 0.0
C1494 C 0.06718 0.60405 0.57337 0.0
C1495 C 0.04647 0.5962 0.57301 0.0
C1496 C 0.03628 0.59119 0.59138 0.0
C1497 C 0.04697 0.59393 0.60995 0.0
C1498 C 0.06766 0.60166 0.60936 0.0
H1499 H 0.07493 0.60787 0.55919 0.0
O1500 O 0.08374 0.67131 0.58199 0.0
O1501 O 0.09678 0.64464 0.5982 0.0
O1502 O 0.116 0.65091 0.55923 0.0
O1503 O 0.1118 0.61779 0.56729 0.0
C1504 C 0.03777 0.58964 0.62906 0.0
C1505 C 0.04929 0.59332 0.64717 0.0
H1506 H 0.07601 0.60306 0.67872 0.0
H1507 H 0.11208 0.61766 0.67456 0.0
H1508 H 0.03834 0.5941 0.5586 0.0
H1509 H 0.02022 0.58535 0.59105 0.0
H1510 H 0.02176 0.58377 0.63001 0.0
H1511 H 0.04196 0.59021 0.66178 0.0
Mn1512 Mn 0.09087 0.36676 0.33602 0.0
Mn1513 Mn 0.05391 0.39336 0.3107 0.0
C1514 C 0.05776 0.37084 0.35026 0.0
C1515 C 0.10729 0.33581 0.34221 0.0
C1516 C 0.09132 0.41274 0.33272 0.0
O1517 O 0.10263 0.36877 0.30693 0.0
O1518 O 0.07405 0.38162 0.29091 0.0
C1519 C 0.03232 0.3598 0.28845 0.0
N1520 N 0.03145 0.37606 0.30135 0.0
C1521 C 0.99382 0.37215 0.30502 0.0
C1522 C 0.99425 0.35566 0.29138 0.0
C1523 C 0.01362 0.3494 0.28315 0.0
C1524 C 0.01293 0.38212 0.30952 0.0
H1525 H 0.04721 0.35469 0.28246 0.0
C1526 C 0.09249 0.37374 0.29081 0.0
O1527 O 0.11675 0.35298 0.34641 0.0
O1528 O 0.08881 0.33671 0.33372 0.0
N1529 N 0.03328 0.4052 0.3283 0.0
C1530 C 0.03594 0.41983 0.3429 0.0
C1531 C 0.01835 0.42672 0.35385 0.0
C1532 C -0.00177 0.41858 0.34961 0.0
C1533 C 0.99582 0.40373 0.33433 0.0
C1534 C 0.01391 0.39754 0.32384 0.0
H1535 H 0.05138 0.42607 0.34632 0.0
O1536 O 0.07364 0.3658 0.36163 0.0
O1537 O 0.06167 0.37288 0.33092 0.0
O1538 O 0.09809 0.39668 0.34136 0.0
O1539 O 0.07601 0.41285 0.31999 0.0
C1540 C 0.97632 0.3943 0.32961 0.0
C1541 C 0.9753 0.37857 0.31493 0.0
H1542 H 0.97989 0.34744 0.28746 0.0
H1543 H 0.01415 0.33647 0.27288 0.0
H1544 H 0.02032 0.43814 0.36566 0.0
H1545 H 0.98485 0.42362 0.35844 0.0
H1546 H 0.9621 0.39858 0.33756 0.0
H1547 H 0.96029 0.37113 0.31182 0.0
Mn1548 Mn 0.36159 0.6611 0.40717 0.0
Mn1549 Mn 0.35662 0.65325 0.3564 0.0
C1550 C 0.32853 0.659 0.39257 0.0
C1551 C 0.36573 0.64938 0.44041 0.0
C1552 C 0.36905 0.69401 0.37497 0.0
O1553 O 0.39057 0.65094 0.39893 0.0
O1554 O 0.38486 0.64392 0.36566 0.0
C1555 C 0.35694 0.6081 0.35592 0.0
N1556 N 0.34718 0.62594 0.3513 0.0
C1557 C 0.31787 0.60803 0.33589 0.0
C1558 C 0.32768 0.58947 0.34036 0.0
C1559 C 0.34728 0.58951 0.35044 0.0
C1560 C 0.32833 0.62607 0.34158 0.0
H1561 H 0.37196 0.60806 0.36375 0.0
C1562 C 0.39652 0.64398 0.38168 0.0
O1563 O 0.37171 0.66757 0.43506 0.0
O1564 O 0.35768 0.63773 0.42629 0.0
N1565 N 0.32989 0.66133 0.34553 0.0
C1566 C 0.32198 0.68048 0.3434 0.0
C1567 C 0.30217 0.68306 0.33413 0.0
C1568 C 0.29076 0.66598 0.32706 0.0
C1569 C 0.29931 0.64646 0.32925 0.0
C1570 C 0.31922 0.64483 0.33842 0.0
H1571 H 0.33065 0.69366 0.34884 0.0
O1572 O 0.3311 0.668 0.41007 0.0
O1573 O 0.34531 0.65132 0.38427 0.0
O1574 O 0.36748 0.68837 0.39348 0.0
O1575 O 0.36593 0.682 0.35987 0.0
C1576 C 0.28866 0.62851 0.32309 0.0
C1577 C 0.29792 0.60931 0.32643 0.0
H1578 H 0.32021 0.57509 0.33629 0.0
H1579 H 0.3549 0.57525 0.35404 0.0
H1580 H 0.29566 0.69818 0.33252 0.0
H1581 H 0.27538 0.66802 0.32012 0.0
H1582 H 0.27319 0.62928 0.31605 0.0
H1583 H 0.28943 0.59561 0.3219 0.0
Mn1584 Mn 0.07924 0.62135 0.15275 0.0
Mn1585 Mn 0.03519 0.59804 0.17019 0.0
C1586 C 0.04752 0.62484 0.13568 0.0
C1587 C 0.101 0.64996 0.15198 0.0
C1588 C 0.07078 0.57573 0.1488 0.0
O1589 O 0.08696 0.61459 0.18221 0.0
O1590 O 0.0556 0.60189 0.19294 0.0
C1591 C 0.01924 0.63037 0.1976 0.0
N1592 N 0.01627 0.6177 0.18134 0.0
C1593 C 0.98105 0.6302 0.17602 0.0
C1594 C 0.98369 0.64329 0.19278 0.0
C1595 C 0.00289 0.64342 0.20358 0.0
C1596 C -0.0021 0.61752 0.17079 0.0
H1597 H 0.03397 0.63055 0.20592 0.0
C1598 C 0.07471 0.60774 0.19618 0.0
O1599 O 0.10807 0.63227 0.14638 0.0
O1600 O 0.08181 0.65078 0.15871 0.0
N1601 N 0.01416 0.59396 0.1495 0.0
C1602 C 0.01467 0.58144 0.1329 0.0
C1603 C 0.99694 0.58008 0.12004 0.0
C1604 C 0.97883 0.5915 0.12445 0.0
C1605 C 0.97863 0.60422 0.14167 0.0
C1606 C 0.99675 0.60491 0.15396 0.0
H1607 H 0.02854 0.57262 0.12944 0.0
O1608 O 0.06517 0.62794 0.12611 0.0
O1609 O 0.04913 0.61951 0.15463 0.0
O1610 O 0.08212 0.59137 0.14469 0.0
O1611 O 0.05337 0.5766 0.15861 0.0
C1612 C 0.96131 0.6165 0.14691 0.0
C1613 C 0.96253 0.6295 0.16407 0.0
H1614 H 0.97115 0.65345 0.19739 0.0
H1615 H 0.00508 0.65356 0.21647 0.0
H1616 H -0.00277 0.57028 0.10675 0.0
H1617 H 0.96524 0.59052 0.11442 0.0
H1618 H 0.94711 0.61634 0.13766 0.0
H1619 H 0.94924 0.63912 0.16775 0.0
Mn1620 Mn 0.13057 0.33799 0.90421 0.0
Mn1621 Mn 0.13368 0.34429 0.85318 0.0
C1622 C 0.16309 0.34075 0.88875 0.0
C1623 C 0.12695 0.35124 0.93692 0.0
C1624 C 0.12357 0.30371 0.8733 0.0
O1625 O 0.10096 0.3466 0.89644 0.0
O1626 O 0.10534 0.35296 0.8629 0.0
C1627 C 0.13163 0.38935 0.85148 0.0
N1628 N 0.14195 0.37173 0.84714 0.0
C1629 C 0.17038 0.39018 0.83101 0.0
C1630 C 0.15998 0.40851 0.83517 0.0
C1631 C 0.14053 0.40809 0.84547 0.0
C1632 C 0.16065 0.37196 0.83721 0.0
H1633 H 0.11674 0.38911 0.85952 0.0
C1634 C 0.0942 0.35288 0.87923 0.0
O1635 O 0.12168 0.33252 0.93272 0.0
O1636 O 0.13398 0.36239 0.922 0.0
N1637 N 0.16039 0.33678 0.8419 0.0
C1638 C 0.16889 0.31786 0.83999 0.0
C1639 C 0.18862 0.31568 0.83049 0.0
C1640 C 0.19934 0.33294 0.82298 0.0
C1641 C 0.19017 0.35223 0.82493 0.0
C1642 C 0.17037 0.35344 0.83433 0.0
H1643 H 0.16077 0.30453 0.84579 0.0
O1644 O 0.16137 0.33241 0.90664 0.0
O1645 O 0.14577 0.34749 0.88061 0.0
O1646 O 0.1255 0.30996 0.89162 0.0
O1647 O 0.12562 0.31537 0.85781 0.0
C1648 C 0.20011 0.37035 0.81829 0.0
C1649 C 0.19023 0.38931 0.82134 0.0
H1650 H 0.16687 0.42301 0.8307 0.0
H1651 H 0.13247 0.42218 0.84885 0.0
H1652 H 0.1956 0.30074 0.82905 0.0
H1653 H 0.21466 0.33123 0.81587 0.0
H1654 H 0.21548 0.3699 0.81106 0.0
H1655 H 0.19816 0.40316 0.81642 0.0
Mn1656 Mn 0.40857 0.37444 0.65221 0.0
Mn1657 Mn 0.45173 0.39974 0.66912 0.0
C1658 C 0.44021 0.37208 0.63486 0.0
C1659 C 0.38812 0.34496 0.65198 0.0
C1660 C 0.41505 0.42022 0.64749 0.0
O1661 O 0.40085 0.38129 0.68168 0.0
O1662 O 0.43178 0.39525 0.69211 0.0
C1663 C 0.46942 0.36838 0.69661 0.0
N1664 N 0.47165 0.38103 0.68027 0.0
C1665 C 0.50727 0.36978 0.67463 0.0
C1666 C 0.50539 0.35676 0.69149 0.0
C1667 C 0.48637 0.35602 0.70249 0.0
C1668 C 0.48986 0.38179 0.66952 0.0
H1669 H 0.45479 0.36768 0.70505 0.0
C1670 C 0.41298 0.38864 0.69556 0.0
O1671 O 0.38019 0.36223 0.64621 0.0
O1672 O 0.40741 0.34507 0.65857 0.0
N1673 N 0.47235 0.40448 0.64826 0.0
C1674 C 0.47112 0.41683 0.6316 0.0
C1675 C 0.48863 0.41875 0.61857 0.0
C1676 C 0.50723 0.40805 0.62285 0.0
C1677 C 0.50817 0.3955 0.64012 0.0
C1678 C 0.49026 0.39427 0.65261 0.0
H1679 H 0.45687 0.42509 0.62821 0.0
O1680 O 0.42259 0.36804 0.62553 0.0
O1681 O 0.43862 0.37754 0.6538 0.0
O1682 O 0.40432 0.40409 0.64371 0.0
O1683 O 0.43246 0.42022 0.65741 0.0
C1684 C 0.52603 0.38388 0.64522 0.0
C1685 C 0.52556 0.371 0.66245 0.0
H1686 H 0.51839 0.34711 0.69601 0.0
H1687 H 0.48476 0.34591 0.71544 0.0
H1688 H 0.48776 0.42842 0.60524 0.0
H1689 H 0.52064 0.40945 0.61268 0.0
H1690 H 0.54007 0.38446 0.63581 0.0
H1691 H 0.53926 0.36188 0.66601 0.0
Mn1692 Mn 0.33667 0.09515 0.38237 0.0
Mn1693 Mn 0.29434 0.07528 0.35788 0.0
C1694 C 0.30433 0.11127 0.3838 0.0
C1695 C 0.35672 0.09797 0.412 0.0
C1696 C 0.33022 0.09765 0.33636 0.0
O1697 O 0.34568 0.06575 0.37689 0.0
O1698 O 0.31532 0.05362 0.36318 0.0
C1699 C 0.27782 0.0483 0.39048 0.0
N1700 N 0.27484 0.06385 0.37705 0.0
C1701 C 0.23859 0.0674 0.38739 0.0
C1702 C 0.24122 0.05132 0.40122 0.0
C1703 C 0.26095 0.04179 0.40282 0.0
C1704 C 0.25598 0.07324 0.37551 0.0
H1705 H 0.29296 0.04096 0.39179 0.0
C1706 C 0.33417 0.05118 0.36989 0.0
O1707 O 0.36465 0.10304 0.39442 0.0
O1708 O 0.33777 0.09038 0.41211 0.0
N1709 N 0.2727 0.0947 0.35221 0.0
C1710 C 0.27316 0.11081 0.3391 0.0
C1711 C 0.25487 0.12243 0.33625 0.0
C1712 C 0.23625 0.11727 0.34676 0.0
C1713 C 0.23611 0.10055 0.36008 0.0
C1714 C 0.25482 0.08952 0.36228 0.0
H1715 H 0.2874 0.11483 0.33095 0.0
O1716 O 0.32155 0.12148 0.38743 0.0
O1717 O 0.30663 0.09216 0.37936 0.0
O1718 O 0.34091 0.10241 0.35223 0.0
O1719 O 0.31313 0.08714 0.33695 0.0
C1720 C 0.21825 0.0946 0.37149 0.0
C1721 C 0.2195 0.07807 0.38517 0.0
H1722 H 0.22826 0.04628 0.4108 0.0
H1723 H 0.26313 0.02945 0.41355 0.0
H1724 H 0.25511 0.13534 0.32599 0.0
H1725 H 0.2222 0.12634 0.34462 0.0
H1726 H 0.20357 0.10287 0.37013 0.0
H1727 H 0.20577 0.07388 0.39413 0.0
H1728 H 0.13371 0.32794 0.37435 0.0
H1729 H 0.12027 0.20729 0.36149 0.0
H1730 H 0.09941 0.29868 0.32531 0.0
H1731 H 0.13173 0.23571 0.42 0.0
H1732 H 0.1216 0.24071 0.34542 0.0
H1733 H 0.14192 0.29415 0.3884 0.0
C1734 C 0.12836 0.3144 0.36629 0.0
C1735 C 0.11578 0.31601 0.34872 0.0
C1736 C 0.124 0.23964 0.36175 0.0
C1737 C 0.12505 0.27762 0.36461 0.0
C1738 C 0.12325 0.22055 0.37098 0.0
C1739 C 0.12558 0.21873 0.3922 0.0
C1740 C 0.12717 0.25711 0.37376 0.0
C1741 C 0.12964 0.23647 0.40362 0.0
C1742 C 0.13289 0.2952 0.3744 0.0
C1743 C 0.10904 0.29808 0.33896 0.0
N1744 N 0.13015 0.25501 0.39427 0.0
N1745 N 0.1137 0.27963 0.34707 0.0
H1746 H 0.02889 0.86636 0.65469 0.0
H1747 H 0.94554 0.8442 0.56509 0.0
H1748 H 0.04467 0.86767 0.59055 0.0
H1749 H 0.92881 0.84665 0.62871 0.0
H1750 H 0.98243 0.85146 0.57425 0.0
H1751 H 0.99234 0.85828 0.64562 0.0
C1752 C 0.02472 0.86489 0.63871 0.0
C1753 C 0.03995 0.86766 0.62337 0.0
C1754 C 0.9707 0.85052 0.58623 0.0
C1755 C -0.00187 0.8583 0.61292 0.0
C1756 C 0.94974 0.84642 0.58098 0.0
C1757 C 0.93426 0.84572 0.59615 0.0
C1758 C 0.97615 0.85342 0.60685 0.0
C1759 C 0.94034 0.84792 0.61658 0.0
C1760 C 0.00383 0.86028 0.63355 0.0
C1761 C 0.03354 0.86566 0.60292 0.0
N1762 N 0.96085 0.85182 0.62136 0.0
N1763 N 0.01314 0.86108 0.59831 0.0
H1764 H 0.37094 0.78192 0.86304 0.0
H1765 H 0.3686 0.66123 0.87963 0.0
H1766 H 0.36643 0.75491 0.92295 0.0
H1767 H 0.39647 0.69163 0.82779 0.0
H1768 H 0.35846 0.69467 0.89351 0.0
H1769 H 0.37072 0.74801 0.84799 0.0
C1770 C 0.36973 0.76884 0.87307 0.0
C1771 C 0.36907 0.77125 0.89434 0.0
C1772 C 0.36648 0.6939 0.87895 0.0
C1773 C 0.3688 0.73227 0.87707 0.0
C1774 C 0.3721 0.6749 0.87095 0.0
C1775 C 0.38347 0.67379 0.85262 0.0
C1776 C 0.37198 0.71173 0.86827 0.0
C1777 C 0.38784 0.69187 0.84205 0.0
C1778 C 0.3696 0.74947 0.86442 0.0
C1779 C 0.3672 0.75371 0.90649 0.0
N1780 N 0.38215 0.71009 0.85005 0.0
N1781 N 0.36733 0.73487 0.89768 0.0
H1782 H 0.44495 0.12921 0.09055 0.0
H1783 H 0.563 0.15058 0.12938 0.0
H1784 H 0.46198 0.13341 0.15433 0.0
H1785 H 0.54405 0.15292 0.06628 0.0
H1786 H 0.52637 0.14279 0.13898 0.0
H1787 H 0.48155 0.1362 0.08145 0.0
C1788 C 0.45635 0.13164 0.10268 0.0
C1789 C 0.45028 0.13081 0.12328 0.0
C1790 C 0.53021 0.14488 0.12302 0.0
C1791 C 0.49236 0.13882 0.11287 0.0
C1792 C 0.55108 0.14911 0.11757 0.0
C1793 C 0.55643 0.15156 0.097 0.0
C1794 C 0.51467 0.14334 0.10774 0.0
C1795 C 0.54046 0.15056 0.08226 0.0
C1796 C 0.47728 0.13564 0.09744 0.0
C1797 C 0.46587 0.13399 0.13826 0.0
N1798 N 0.52028 0.14632 0.0879 0.0
N1799 N 0.4862 0.13785 0.13275 0.0
H1800 H 0.10328 0.68257 0.17717 0.0
H1801 H 0.12887 0.75921 0.08834 0.0
H1802 H 0.12405 0.66085 0.1185 0.0
H1803 H 0.13339 0.77562 0.15213 0.0
H1804 H 0.12759 0.72311 0.0983 0.0
H1805 H 0.11524 0.71685 0.16812 0.0
C1806 C 0.11089 0.68501 0.16256 0.0
C1807 C 0.11283 0.669 0.14858 0.0
C1808 C 0.12914 0.73469 0.11002 0.0
C1809 C 0.12575 0.70824 0.13772 0.0
C1810 C 0.12974 0.75528 0.10437 0.0
C1811 C 0.13086 0.77056 0.1194 0.0
C1812 C 0.12946 0.72945 0.13081 0.0
C1813 C 0.13217 0.76451 0.13994 0.0
C1814 C 0.11764 0.70456 0.15734 0.0
C1815 C 0.12254 0.67287 0.12974 0.0
N1816 N 0.13118 0.74451 0.145 0.0
N1817 N 0.12826 0.69227 0.12463 0.0
H1818 H 0.4628 0.87213 0.39423 0.0
H1819 H 0.5788 0.87763 0.34786 0.0
H1820 H 0.47771 0.89856 0.33565 0.0
H1821 H 0.56488 0.85453 0.40812 0.0
H1822 H 0.54243 0.88904 0.34487 0.0
H1823 H 0.50054 0.8697 0.40156 0.0
C1824 C 0.47401 0.87775 0.38305 0.0
C1825 C 0.46713 0.88528 0.36417 0.0
C1826 C 0.54735 0.88163 0.35882 0.0
C1827 C 0.5103 0.88229 0.37234 0.0
C1828 C 0.56813 0.87501 0.36052 0.0
C1829 C 0.57487 0.86479 0.37815 0.0
C1830 C 0.53308 0.87788 0.37479 0.0
C1831 C 0.56037 0.86216 0.39416 0.0
C1832 C 0.49556 0.8763 0.38722 0.0
C1833 C 0.48232 0.89246 0.35031 0.0
N1834 N 0.5401 0.86846 0.392 0.0
N1835 N 0.50321 0.89052 0.35456 0.0
H1836 H 0.36318 0.23414 0.58911 0.0
H1837 H 0.38799 0.31257 0.67738 0.0
H1838 H 0.36374 0.2179 0.65302 0.0
H1839 H 0.36493 0.3327 0.61894 0.0
H1840 H 0.37777 0.27769 0.66866 0.0
H1841 H 0.36306 0.2703 0.59903 0.0
C1842 C 0.36318 0.23811 0.60516 0.0
C1843 C 0.36383 0.22289 0.6202 0.0
C1844 C 0.3745 0.28973 0.65785 0.0
C1845 C 0.36358 0.26405 0.63159 0.0
C1846 C 0.38024 0.30963 0.66289 0.0
C1847 C 0.37718 0.32538 0.64888 0.0
C1848 C 0.36624 0.28547 0.63837 0.0
C1849 C 0.36731 0.32087 0.63021 0.0
C1850 C 0.36296 0.25872 0.6108 0.0
C1851 C 0.36356 0.22898 0.64079 0.0
N1852 N 0.36256 0.30118 0.62526 0.0
N1853 N 0.36367 0.24901 0.64582 0.0
H1854 H 0.01915 0.09522 0.84414 0.0
H1855 H 0.93244 0.1472 0.91521 0.0
H1856 H 0.03423 0.12793 0.89958 0.0
H1857 H 0.91954 0.12082 0.85597 0.0
H1858 H 0.96883 0.13522 0.91279 0.0
H1859 H 0.98166 0.0988 0.85175 0.0
C1860 C 0.01458 0.10286 0.8581 0.0
C1861 C 0.0298 0.11157 0.87109 0.0
C1862 C 0.95796 0.13195 0.9004 0.0
C1863 C 0.98693 0.11599 0.87974 0.0
C1864 C 0.93719 0.13881 0.90175 0.0
C1865 C 0.92296 0.13531 0.88563 0.0
C1866 C 0.96452 0.12146 0.88285 0.0
C1867 C 0.92999 0.12419 0.86865 0.0
C1868 C 0.99316 0.10498 0.86239 0.0
C1869 C 0.02299 0.12115 0.88905 0.0
N1870 N 0.95028 0.11779 0.86766 0.0
N1871 N 0.00201 0.12336 0.89272 0.0
H1872 H 0.40512 0.13267 0.23083 0.0
H1873 H 0.30812 0.09742 0.3006 0.0
H1874 H 0.34237 0.11894 0.20858 0.0
H1875 H 0.36901 0.11404 0.32577 0.0
H1876 H 0.32038 0.10761 0.26708 0.0
H1877 H 0.39217 0.12867 0.26594 0.0
C1878 C 0.38859 0.12911 0.23334 0.0
C1879 C 0.37484 0.12593 0.21678 0.0
C1880 C 0.33111 0.10914 0.27989 0.0
C1881 C 0.36002 0.1212 0.25671 0.0
C1882 C 0.32412 0.10323 0.29912 0.0
C1883 C 0.33761 0.10467 0.31609 0.0
C1884 C 0.35186 0.11643 0.2774 0.0
C1885 C 0.35809 0.11259 0.31312 0.0
C1886 C 0.38123 0.12676 0.25335 0.0
C1887 C 0.35359 0.12133 0.22086 0.0
N1888 N 0.36467 0.11801 0.29408 0.0
N1889 N 0.3469 0.11896 0.24036 0.0
H1890 H 0.11593 0.16375 0.48411 0.0
H1891 H 0.14053 0.07763 0.56339 0.0
H1892 H 0.10736 0.09961 0.4708 0.0
H1893 H 0.11905 0.13624 0.58434 0.0
H1894 H 0.12953 0.08632 0.52883 0.0
H1895 H 0.11796 0.15534 0.52063 0.0
C1896 C 0.11427 0.14799 0.48881 0.0
C1897 C 0.11187 0.13236 0.47426 0.0
C1898 C 0.1269 0.09721 0.54099 0.0
C1899 C 0.11424 0.12275 0.51578 0.0
C1900 C 0.1332 0.09225 0.56067 0.0
C1901 C 0.13061 0.10625 0.57659 0.0
C1902 C 0.11851 0.11656 0.53706 0.0
C1903 C 0.12111 0.12502 0.57237 0.0
C1904 C 0.11533 0.14324 0.50962 0.0
C1905 C 0.10961 0.11221 0.48129 0.0
N1906 N 0.11571 0.12985 0.55284 0.0
N1907 N 0.11113 0.108 0.50146 0.0
H1908 H 0.12342 0.88122 0.82549 0.0
H1909 H 0.15035 0.87882 0.70616 0.0
H1910 H 0.18331 0.89901 0.79911 0.0
H1911 H 0.08807 0.86536 0.72952 0.0
H1912 H 0.16336 0.88216 0.74093 0.0
H1913 H 0.11072 0.87186 0.79127 0.0
C1914 C 0.13392 0.88309 0.81258 0.0
C1915 C 0.15442 0.89111 0.81522 0.0
C1916 C 0.14686 0.87833 0.73855 0.0
C1917 C 0.14004 0.88031 0.77615 0.0
C1918 C 0.13942 0.87637 0.71865 0.0
C1919 C 0.11805 0.87199 0.71494 0.0
C1920 C 0.13282 0.87607 0.75499 0.0
C1921 C 0.10467 0.86881 0.73174 0.0
C1922 C 0.12666 0.87773 0.79307 0.0
C1923 C 0.16732 0.89312 0.79791 0.0
N1924 N 0.11223 0.87112 0.75109 0.0
N1925 N 0.15991 0.88782 0.77921 0.0
H1926 H 0.37871 0.83158 0.98351 0.0
H1927 H 0.35384 0.92108 0.05926 0.0
H1928 H 0.38365 0.89514 0.96659 0.0
H1929 H 0.37706 0.86385 0.08201 0.0
H1930 H 0.36433 0.9112 0.02487 0.0
H1931 H 0.37772 0.84195 0.01956 0.0
C1932 C 0.37977 0.84764 0.98731 0.0
C1933 C 0.38088 0.86249 0.97191 0.0
C1934 C 0.3675 0.90089 0.03739 0.0
C1935 C 0.37973 0.87435 0.01293 0.0
C1936 C 0.36152 0.90655 0.05698 0.0
C1937 C 0.36469 0.89326 0.07335 0.0
C1938 C 0.37613 0.88152 0.03403 0.0
C1939 C 0.37457 0.87455 0.06969 0.0
C1940 C 0.37931 0.85351 0.00787 0.0
C1941 C 0.38242 0.88308 0.9778 0.0
N1942 N 0.37961 0.869 0.05027 0.0
N1943 N 0.38152 0.88837 0.99776 0.0
H1944 H 0.34949 0.85403 0.28797 0.0
H1945 H 0.34682 0.93309 0.19943 0.0
H1946 H 0.39378 0.90447 0.28818 0.0
H1947 H 0.34445 0.86888 0.18525 0.0
H1948 H 0.35888 0.92484 0.23407 0.0
H1949 H 0.34174 0.86096 0.25196 0.0
C1950 C 0.35757 0.86653 0.28045 0.0
C1951 C 0.37234 0.87867 0.291 0.0
C1952 C 0.35591 0.91261 0.22327 0.0
C1953 C 0.36325 0.88682 0.2502 0.0
C1954 C 0.34903 0.91728 0.20363 0.0
C1955 C 0.34483 0.9016 0.18961 0.0
C1956 C 0.35785 0.89214 0.22903 0.0
C1957 C 0.34779 0.88134 0.19567 0.0
C1958 C 0.35324 0.87037 0.25994 0.0
C1959 C 0.38238 0.89469 0.28053 0.0
N1960 N 0.3538 0.87712 0.21513 0.0
N1961 N 0.37743 0.89851 0.26073 0.0
H1962 H 0.37 0.11308 0.54057 0.0
H1963 H 0.38211 0.13091 0.4205 0.0
H1964 H 0.37965 0.17268 0.51409 0.0
H1965 H 0.35339 0.07778 0.44792 0.0
H1966 H 0.39063 0.14396 0.45478 0.0
H1967 H 0.37296 0.09791 0.5068 0.0
C1968 C 0.37286 0.12301 0.52765 0.0
C1969 C 0.37423 0.14424 0.53012 0.0
C1970 C 0.38287 0.12925 0.45322 0.0
C1971 C 0.37771 0.12685 0.4913 0.0
C1972 C 0.37824 0.1217 0.4337 0.0
C1973 C 0.36696 0.10331 0.43149 0.0
C1974 C 0.37638 0.11813 0.47045 0.0
C1975 C 0.36201 0.09208 0.44903 0.0
C1976 C 0.37459 0.1143 0.50836 0.0
C1977 C 0.37824 0.15626 0.51282 0.0
N1978 N 0.36661 0.09974 0.46777 0.0
N1979 N 0.37966 0.1474 0.49405 0.0
H1980 H 0.10047 0.09099 0.79356 0.0
H1981 H 0.14915 0.12933 0.68892 0.0
H1982 H 0.14466 0.14147 0.7918 0.0
H1983 H 0.1444 0.06522 0.70297 0.0
H1984 H 0.13815 0.13728 0.72407 0.0
H1985 H 0.10753 0.08446 0.75733 0.0
C1986 C 0.11151 0.10079 0.7855 0.0
C1987 C 0.12208 0.11675 0.79566 0.0
C1988 C 0.13931 0.12151 0.71928 0.0
C1989 C 0.12974 0.10965 0.75438 0.0
C1990 C 0.14538 0.11699 0.69931 0.0
C1991 C 0.14762 0.09663 0.69322 0.0
C1992 C 0.13496 0.10553 0.7329 0.0
C1993 C 0.14287 0.08111 0.70722 0.0
C1994 C 0.11552 0.09702 0.76493 0.0
C1995 C 0.1363 0.12895 0.78456 0.0
N1996 N 0.13664 0.08588 0.72644 0.0
N1997 N 0.13962 0.12524 0.76441 0.0
H1998 H 0.11336 0.82026 0.01339 0.0
H1999 H 0.14175 0.91748 0.94742 0.0
H2000 H 0.12575 0.87983 0.03914 0.0
H2001 H 0.11259 0.86408 0.92075 0.0
H2002 H 0.13318 0.90456 0.9813 0.0
H2003 H 0.11079 0.83595 0.97945 0.0
C2004 C 0.11536 0.83662 0.01194 0.0
C2005 C 0.12008 0.84871 0.02907 0.0
C2006 C 0.12822 0.89579 0.96809 0.0
C2007 C 0.11715 0.86669 0.99046 0.0
C2008 C 0.13304 0.90324 0.94875 0.0
C2009 C 0.12785 0.89181 0.93136 0.0
C2010 C 0.11869 0.87646 0.97009 0.0
C2011 C 0.1167 0.87339 0.93385 0.0
C2012 C 0.11379 0.84557 0.9926 0.0
C2013 C 0.12236 0.86984 0.02635 0.0
N2014 N 0.11286 0.86603 0.95293 0.0
N2015 N 0.12109 0.87809 0.00744 0.0
H2016 H 0.32864 0.4001 0.117 0.0
H2017 H 0.20963 0.35877 0.11507 0.0
H2018 H 0.31081 0.33732 0.10566 0.0
H2019 H 0.22625 0.42156 0.1275 0.0
H2020 H 0.24698 0.35019 0.11507 0.0
H2021 H 0.29169 0.40782 0.12415 0.0
C2022 C 0.31703 0.3879 0.11613 0.0
C2023 C 0.32288 0.36806 0.11045 0.0
C2024 C 0.24251 0.36583 0.11797 0.0
C2025 C 0.28054 0.37684 0.11865 0.0
C2026 C 0.22116 0.37074 0.11798 0.0
C2027 C 0.21486 0.39095 0.12109 0.0
C2028 C 0.25774 0.38126 0.12091 0.0
C2029 C 0.23046 0.4058 0.12495 0.0
C2030 C 0.29592 0.39234 0.12024 0.0
C2031 C 0.3071 0.35288 0.10975 0.0
N2032 N 0.25124 0.4007 0.12453 0.0
N2033 N 0.28668 0.35763 0.11365 0.0
H2034 H 0.69892 0.15004 0.87153 0.0
H2035 H 0.81882 0.11828 0.88589 0.0
H2036 H 0.72173 0.08929 0.85989 0.0
H2037 H 0.79841 0.18076 0.88663 0.0
H2038 H 0.78349 0.10759 0.87489 0.0
H2039 H 0.73537 0.16212 0.87473 0.0
C2040 C 0.71162 0.1393 0.86935 0.0
C2041 C 0.70732 0.11858 0.86571 0.0
C2042 C 0.78674 0.12368 0.87716 0.0
C2043 C 0.74901 0.13223 0.86966 0.0
C2044 C 0.80688 0.12975 0.88335 0.0
C2045 C 0.81151 0.15043 0.88643 0.0
C2046 C 0.77099 0.1384 0.87457 0.0
C2047 C 0.79541 0.16469 0.88394 0.0
C2048 C 0.73243 0.1462 0.8712 0.0
C2049 C 0.72435 0.10537 0.86285 0.0
N2050 N 0.77579 0.15841 0.87809 0.0
N2051 N 0.74448 0.11236 0.86518 0.0
H2052 H 0.07974 0.4472 0.12108 0.0
H2053 H 0.11001 0.56522 0.13449 0.0
H2054 H 0.14396 0.47003 0.11901 0.0
H2055 H 0.04849 0.53976 0.14826 0.0
H2056 H 0.12216 0.53108 0.12538 0.0
H2057 H 0.06754 0.4817 0.12778 0.0
C2058 C 0.09131 0.45944 0.12201 0.0
C2059 C 0.11296 0.45562 0.11958 0.0
C2060 C 0.106 0.53301 0.13036 0.0
C2061 C 0.09899 0.49528 0.12719 0.0
C2062 C 0.09902 0.5525 0.1355 0.0
C2063 C 0.07821 0.55539 0.14227 0.0
C2064 C 0.09204 0.51631 0.13185 0.0
C2065 C 0.06471 0.5383 0.14328 0.0
C2066 C 0.08431 0.47916 0.12587 0.0
C2067 C 0.12714 0.47219 0.1209 0.0
N2068 N 0.07186 0.51953 0.13814 0.0
N2069 N 0.1199 0.4913 0.12461 0.0
H2070 H 0.69769 0.81471 0.3834 0.0
H2071 H 0.77581 0.90553 0.35099 0.0
H2072 H 0.67967 0.8777 0.37847 0.0
H2073 H 0.79778 0.84819 0.37495 0.0
H2074 H 0.73959 0.89248 0.35238 0.0
H2075 H 0.7338 0.82422 0.37296 0.0
C2076 C 0.70135 0.83047 0.37981 0.0
C2077 C 0.68574 0.8454 0.38104 0.0
C2078 C 0.75238 0.88269 0.35713 0.0
C2079 C 0.7266 0.85638 0.36951 0.0
C2080 C 0.77306 0.89008 0.35625 0.0
C2081 C 0.78977 0.87804 0.36322 0.0
C2082 C 0.74841 0.86316 0.36506 0.0
C2083 C 0.7853 0.85807 0.36968 0.0
C2084 C 0.72183 0.83588 0.37387 0.0
C2085 C 0.69119 0.86569 0.37689 0.0
N2086 N 0.76498 0.85131 0.37069 0.0
N2087 N 0.71117 0.8706 0.37122 0.0
H2088 H 0.87815 0.93394 0.13402 0.0
H2089 H 0.89692 0.05459 0.12803 0.0
H2090 H 0.93658 0.9646 0.15006 0.0
H2091 H 0.83649 0.02585 0.11624 0.0
H2092 H 0.91258 0.02106 0.13207 0.0
H2093 H 0.86339 0.96681 0.12399 0.0
C2094 C 0.88791 0.94753 0.13539 0.0
C2095 C 0.9086 0.94647 0.14309 0.0
C2096 C 0.89592 0.02203 0.12844 0.0
C2097 C 0.89182 0.98409 0.13152 0.0
C2098 C 0.88697 0.04119 0.12607 0.0
C2099 C 0.86532 0.04301 0.12198 0.0
C2100 C 0.88314 0.00448 0.12684 0.0
C2101 C 0.85324 0.02512 0.11947 0.0
C2102 C 0.87946 0.96628 0.12963 0.0
C2103 C 0.9205 0.96461 0.14442 0.0
N2104 N 0.86228 0.00657 0.12214 0.0
N2105 N 0.91192 0.98262 0.13876 0.0
H2106 H 0.16838 0.60226 0.61035 0.0
H2107 H 0.28243 0.65494 0.62063 0.0
H2108 H 0.18001 0.66688 0.60312 0.0
H2109 H 0.27256 0.58965 0.61923 0.0
H2110 H 0.24447 0.65962 0.61705 0.0
H2111 H 0.20607 0.59745 0.6167 0.0
C2112 C 0.1788 0.61545 0.61021 0.0
C2113 C 0.17099 0.63499 0.60605 0.0
C2114 C 0.25061 0.64427 0.61753 0.0
C2115 C 0.21413 0.62956 0.61328 0.0
C2116 C 0.27232 0.64157 0.61957 0.0
C2117 C 0.28079 0.62186 0.62012 0.0
C2118 C 0.23719 0.62716 0.6161 0.0
C2119 C 0.26681 0.60514 0.61877 0.0
C2120 C 0.20033 0.61268 0.61377 0.0
C2121 C 0.18528 0.65151 0.60609 0.0
N2122 N 0.2457 0.60818 0.61681 0.0
N2123 N 0.20614 0.6484 0.6096 0.0
H2124 H 0.10154 0.445 0.30843 0.0
H2125 H 0.09773 0.52697 0.39402 0.0
H2126 H 0.10004 0.4257 0.37129 0.0
H2127 H 0.14215 0.5344 0.34464 0.0
H2128 H 0.0934 0.4909 0.38458 0.0
H2129 H 0.11199 0.47941 0.3197 0.0
C2130 C 0.1037 0.448 0.32457 0.0
C2131 C 0.10014 0.4326 0.33899 0.0
C2132 C 0.10424 0.50046 0.376 0.0
C2133 C 0.11126 0.47176 0.3519 0.0
C2134 C 0.10664 0.52098 0.38129 0.0
C2135 C 0.12036 0.5336 0.37011 0.0
C2136 C 0.11512 0.49277 0.35906 0.0
C2137 C 0.13153 0.52511 0.35372 0.0
C2138 C 0.10965 0.46753 0.33096 0.0
C2139 C 0.10293 0.43718 0.35974 0.0
N2140 N 0.1284 0.50526 0.34845 0.0
N2141 N 0.10796 0.45651 0.36565 0.0
H2142 H 0.37854 0.5676 0.85606 0.0
H2143 H 0.41527 0.45261 0.86997 0.0
H2144 H 0.43564 0.54288 0.83021 0.0
H2145 H 0.34924 0.46864 0.87205 0.0
H2146 H 0.42403 0.48769 0.86118 0.0
H2147 H 0.36832 0.53303 0.86705 0.0
C2148 C 0.3889 0.55498 0.85269 0.0
C2149 C 0.40798 0.55819 0.84219 0.0
C2150 C 0.40762 0.48354 0.86359 0.0
C2151 C 0.39656 0.51893 0.85495 0.0
C2152 C 0.40258 0.46351 0.86871 0.0
C2153 C 0.38145 0.45758 0.87161 0.0
C2154 C 0.39147 0.4979 0.86151 0.0
C2155 C 0.36574 0.4725 0.86978 0.0
C2156 C 0.38303 0.53532 0.85893 0.0
C2157 C 0.42076 0.54124 0.8382 0.0
N2158 N 0.37106 0.49204 0.86484 0.0
N2159 N 0.41489 0.52244 0.8447 0.0
H2160 H 0.85981 0.66748 0.60087 0.0
H2161 H 0.87631 0.78259 0.63743 0.0
H2162 H 0.88378 0.68447 0.66034 0.0
H2163 H 0.85359 0.76551 0.5776 0.0
H2164 H 0.8744 0.74687 0.64776 0.0
H2165 H 0.85275 0.70325 0.59385 0.0
C2166 C 0.86346 0.67869 0.61255 0.0
C2167 C 0.87275 0.67294 0.63112 0.0
C2168 C 0.86962 0.75094 0.63244 0.0
C2169 C 0.86471 0.71403 0.6231 0.0
C2170 C 0.87069 0.77134 0.62652 0.0
C2171 C 0.86535 0.77698 0.60654 0.0
C2172 C 0.86327 0.73605 0.61822 0.0
C2173 C 0.85802 0.7618 0.59311 0.0
C2174 C 0.85938 0.69915 0.60851 0.0
C2175 C 0.8768 0.68817 0.64574 0.0
N2176 N 0.85741 0.74199 0.59913 0.0
N2177 N 0.87298 0.70804 0.64131 0.0
H2178 H 0.95633 0.10644 0.38972 0.0
H2179 H 0.07538 0.13962 0.36928 0.0
H2180 H 0.97366 0.1449 0.33909 0.0
H2181 H 0.04868 0.14392 0.42957 0.0
H2182 H 0.04033 0.13023 0.35587 0.0
H2183 H 0.99281 0.10942 0.40281 0.0
C2184 C 0.96795 0.11519 0.38123 0.0
C2185 C 0.96244 0.12477 0.36292 0.0
C2186 C 0.04231 0.13279 0.37208 0.0
C2187 C 0.00357 0.12821 0.37761 0.0
C2188 C 0.0622 0.13803 0.37971 0.0
C2189 C 0.06475 0.14212 0.40053 0.0
C2190 C 0.02509 0.13144 0.38547 0.0
C2191 C 0.0472 0.14057 0.41344 0.0
C2192 C 0.98859 0.11687 0.38865 0.0
C2193 C 0.97768 0.13652 0.35276 0.0
N2194 N 0.02803 0.13517 0.40572 0.0
N2195 N -0.0023 0.13775 0.36011 0.0
H2196 H 0.6138 0.21795 0.13546 0.0
H2197 H 0.63127 0.33251 0.09795 0.0
H2198 H 0.63462 0.23429 0.0749 0.0
H2199 H 0.60902 0.31645 0.15817 0.0
H2200 H 0.63736 0.29655 0.09091 0.0
H2201 H 0.61663 0.25373 0.14558 0.0
C2202 C 0.61916 0.22904 0.12434 0.0
C2203 C 0.62373 0.22319 0.10423 0.0
C2204 C 0.63133 0.3009 0.10573 0.0
C2205 C 0.62691 0.26416 0.11569 0.0
C2206 C 0.62782 0.32146 0.10978 0.0
C2207 C 0.61927 0.32753 0.12858 0.0
C2208 C 0.62615 0.28623 0.12053 0.0
C2209 C 0.61543 0.3125 0.14339 0.0
C2210 C 0.62077 0.24947 0.13014 0.0
C2211 C 0.63076 0.23817 0.09051 0.0
N2212 N 0.61867 0.29252 0.13895 0.0
N2213 N 0.63194 0.258 0.09645 0.0
H2214 H 0.41738 0.84932 0.86779 0.0
H2215 H 0.53431 0.88983 0.88712 0.0
H2216 H 0.44308 0.85161 0.92867 0.0
H2217 H 0.51848 0.85064 0.83643 0.0
H2218 H 0.49877 0.88368 0.90136 0.0
H2219 H 0.45243 0.8578 0.85422 0.0
C2220 C 0.43031 0.85233 0.87826 0.0
C2221 C 0.42748 0.8502 0.89931 0.0
C2222 C 0.50311 0.8766 0.88704 0.0
C2223 C 0.46718 0.86041 0.88404 0.0
C2224 C 0.52325 0.88009 0.87895 0.0
C2225 C 0.52879 0.87143 0.86017 0.0
C2226 C 0.48865 0.86434 0.87621 0.0
C2227 C 0.51432 0.85837 0.85045 0.0
C2228 C 0.45024 0.85713 0.87055 0.0
C2229 C 0.44476 0.85347 0.91233 0.0
N2230 N 0.49475 0.85543 0.85842 0.0
N2231 N 0.46393 0.85869 0.9045 0.0
H2232 H 0.87792 0.20996 0.83882 0.0
H2233 H 0.89146 0.32283 0.88432 0.0
H2234 H 0.87705 0.22405 0.90326 0.0
H2235 H 0.89872 0.30859 0.82055 0.0
H2236 H 0.88556 0.28658 0.89147 0.0
H2237 H 0.88474 0.24599 0.83159 0.0
C2238 C 0.87923 0.22056 0.85146 0.0
C2239 C 0.87694 0.21387 0.8717 0.0
C2240 C 0.88836 0.29133 0.87588 0.0
C2241 C 0.8847 0.25517 0.86348 0.0
C2242 C 0.89152 0.312 0.87182 0.0
C2243 C 0.89471 0.31859 0.85175 0.0
C2244 C 0.88859 0.27718 0.85973 0.0
C2245 C 0.89571 0.30401 0.83615 0.0
C2246 C 0.88313 0.24115 0.8473 0.0
C2247 C 0.87872 0.22841 0.88741 0.0
N2248 N 0.8924 0.28396 0.84042 0.0
N2249 N 0.88245 0.24833 0.88296 0.0
H2250 H 0.43101 0.14435 0.57672 0.0
H2251 H 0.53191 0.15088 0.64967 0.0
H2252 H 0.43158 0.1695 0.63763 0.0
H2253 H 0.52828 0.10809 0.59977 0.0
H2254 H 0.4976 0.16423 0.64008 0.0
H2255 H 0.46883 0.13668 0.58024 0.0
C2256 C 0.43919 0.14855 0.59066 0.0
C2257 C 0.42825 0.15746 0.60698 0.0
C2258 C 0.50425 0.15198 0.63111 0.0
C2259 C 0.47111 0.14898 0.61095 0.0
C2260 C 0.52375 0.14432 0.63663 0.0
C2261 C 0.53235 0.12794 0.62588 0.0
C2262 C 0.49322 0.14317 0.61471 0.0
C2263 C 0.52172 0.12043 0.60866 0.0
C2264 C 0.46065 0.14409 0.59267 0.0
C2265 C 0.43941 0.16247 0.62477 0.0
N2266 N 0.50237 0.12791 0.60373 0.0
N2267 N 0.46022 0.15817 0.62626 0.0
H2268 H 0.61854 0.7754 0.40123 0.0
H2269 H 0.58996 0.68909 0.31887 0.0
H2270 H 0.61409 0.78693 0.33647 0.0
H2271 H 0.59842 0.67721 0.38297 0.0
H2272 H 0.5967 0.72546 0.3252 0.0
H2273 H 0.60966 0.73971 0.39498 0.0
C2274 C 0.6156 0.77049 0.38569 0.0
C2275 C 0.61705 0.78429 0.36935 0.0
C2276 C 0.59717 0.71492 0.33789 0.0
C2277 C 0.60677 0.7433 0.36213 0.0
C2278 C 0.59336 0.69424 0.33426 0.0
C2279 C 0.59459 0.68026 0.35032 0.0
C2280 C 0.60173 0.72161 0.35782 0.0
C2281 C 0.59825 0.68755 0.3701 0.0
C2282 C 0.61054 0.75006 0.38214 0.0
C2283 C 0.61315 0.77691 0.34955 0.0
N2284 N 0.60186 0.70776 0.3733 0.0
N2285 N 0.60819 0.75692 0.3465 0.0
H2286 H 0.06475 0.82466 0.13836 0.0
H2287 H 0.96743 0.889 0.09853 0.0
H2288 H 0.06337 0.84946 0.07742 0.0
H2289 H 0.96669 0.85129 0.15233 0.0
H2290 H 0.00164 0.87396 0.08889 0.0
H2291 H 0.02783 0.83343 0.14253 0.0
C2292 C 0.05655 0.83179 0.12577 0.0
C2293 C 0.06708 0.83644 0.10758 0.0
C2294 C 0.9938 0.86884 0.10266 0.0
C2295 C 0.0248 0.84686 0.11228 0.0
C2296 C 0.97444 0.87746 0.10814 0.0
C2297 C 0.96489 0.87181 0.12655 0.0
C2298 C 0.00318 0.85443 0.11565 0.0
C2299 C 0.97406 0.8565 0.13835 0.0
C2300 C 0.03543 0.83676 0.1281 0.0
C2301 C 0.0557 0.84558 0.09167 0.0
N2302 N 0.9928 0.84851 0.13282 0.0
N2303 N 0.03516 0.85082 0.0945 0.0
H2304 H 0.5919 0.87273 0.66095 0.0
H2305 H 0.62427 0.87924 0.77896 0.0
H2306 H 0.65467 0.89063 0.68035 0.0
H2307 H 0.56043 0.87941 0.7556 0.0
H2308 H 0.63734 0.87713 0.74359 0.0
H2309 H 0.58198 0.86807 0.69645 0.0
C2310 C 0.60367 0.87558 0.67265 0.0
C2311 C 0.62406 0.88244 0.66761 0.0
C2312 C 0.62049 0.8775 0.74637 0.0
C2313 C 0.6127 0.87717 0.70848 0.0
C2314 C 0.61305 0.87866 0.76648 0.0
C2315 C 0.59124 0.8797 0.77025 0.0
C2316 C 0.60597 0.87704 0.7301 0.0
C2317 C 0.57737 0.87887 0.75352 0.0
C2318 C 0.59798 0.87293 0.69296 0.0
C2319 C 0.6387 0.88553 0.68353 0.0
N2320 N 0.58496 0.87761 0.73428 0.0
N2321 N 0.63267 0.88307 0.70331 0.0
H2322 H 0.87305 0.90223 0.5388 0.0
H2323 H 0.86466 0.86299 0.42336 0.0
H2324 H 0.87226 0.83844 0.52215 0.0
H2325 H 0.85088 0.92456 0.44163 0.0
H2326 H 0.87053 0.85401 0.45924 0.0
H2327 H 0.86804 0.91109 0.50295 0.0
C2328 C 0.87179 0.89006 0.52765 0.0
C2329 C 0.87298 0.86952 0.53359 0.0
C2330 C 0.86632 0.86952 0.45542 0.0
C2331 C 0.86733 0.87964 0.49245 0.0
C2332 C 0.8632 0.87465 0.43499 0.0
C2333 C 0.85806 0.89468 0.42967 0.0
C2334 C 0.86412 0.88452 0.47059 0.0
C2335 C 0.85536 0.90908 0.44522 0.0
C2336 C 0.8689 0.89515 0.50717 0.0
C2337 C 0.87131 0.85447 0.51836 0.0
N2338 N 0.85864 0.90378 0.46501 0.0
N2339 N 0.86862 0.85983 0.49851 0.0
H2340 H 0.81911 0.11079 0.19431 0.0
H2341 H 0.92242 0.13028 0.26132 0.0
H2342 H 0.88161 0.12064 0.17016 0.0
H2343 H 0.8608 0.12187 0.28824 0.0
H2344 H 0.90628 0.13169 0.2278 0.0
H2345 H 0.83257 0.11877 0.2287 0.0
C2346 C 0.83558 0.11501 0.1963 0.0
C2347 C 0.84923 0.11573 0.1795 0.0
C2348 C 0.89616 0.12969 0.24097 0.0
C2349 C 0.86477 0.12429 0.21845 0.0
C2350 C 0.9054 0.12889 0.26017 0.0
C2351 C 0.89294 0.12567 0.27755 0.0
C2352 C 0.87427 0.12681 0.23898 0.0
C2353 C 0.87094 0.12427 0.27517 0.0
C2354 C 0.84323 0.11955 0.21582 0.0
C2355 C 0.8705 0.12064 0.18271 0.0
N2356 N 0.86228 0.12449 0.25612 0.0
N2357 N 0.87762 0.12472 0.2018 0.0
H2358 H 0.63225 0.13829 0.9228 0.0
H2359 H 0.61422 0.09755 0.03662 0.0
H2360 H 0.63772 0.0752 0.93999 0.0
H2361 H 0.61791 0.16149 0.02102 0.0
H2362 H 0.62007 0.08894 0.00086 0.0
H2363 H 0.62456 0.14704 0.9584 0.0
C2364 C 0.63149 0.12628 0.93412 0.0
C2365 C 0.63479 0.10595 0.92855 0.0
C2366 C 0.61961 0.10485 0.00528 0.0
C2367 C 0.62666 0.11576 0.96918 0.0
C2368 C 0.61624 0.1098 0.02571 0.0
C2369 C 0.61571 0.1303 0.03194 0.0
C2370 C 0.62242 0.12048 0.99089 0.0
C2371 C 0.61831 0.14548 0.01701 0.0
C2372 C 0.62731 0.13126 0.9544 0.0
C2373 C 0.63468 0.09099 0.94375 0.0
N2374 N 0.62158 0.14025 0.9972 0.0
N2375 N 0.63046 0.09616 0.9634 0.0
H2376 H 0.58556 0.12391 0.82535 0.0
H2377 H 0.62271 0.11746 0.70877 0.0
H2378 H 0.64913 0.10736 0.8085 0.0
H2379 H 0.5579 0.11581 0.72927 0.0
H2380 H 0.63419 0.12003 0.74465 0.0
H2381 H 0.57693 0.12794 0.78945 0.0
C2382 C 0.59779 0.12125 0.81414 0.0
C2383 C 0.61803 0.11495 0.82003 0.0
C2384 C 0.61748 0.11923 0.74115 0.0
C2385 C 0.60813 0.11951 0.77867 0.0
C2386 C 0.61093 0.11782 0.72074 0.0
C2387 C 0.58932 0.11623 0.71601 0.0
C2388 C 0.60227 0.11938 0.75677 0.0
C2389 C 0.57473 0.11677 0.73211 0.0
C2390 C 0.59281 0.12352 0.79358 0.0
C2391 C 0.63325 0.11203 0.80468 0.0
N2392 N 0.58146 0.11829 0.75168 0.0
N2393 N 0.62793 0.11416 0.78466 0.0
H2394 H 0.61806 0.832 0.47163 0.0
H2395 H 0.64842 0.92323 0.54781 0.0
H2396 H 0.64171 0.89033 0.45084 0.0
H2397 H 0.64157 0.86059 0.56653 0.0
H2398 H 0.6419 0.91278 0.51229 0.0
H2399 H 0.62149 0.84383 0.50687 0.0
C2400 C 0.62383 0.84735 0.47447 0.0
C2401 C 0.62978 0.86015 0.45829 0.0
C2402 C 0.64168 0.90135 0.52419 0.0
C2403 C 0.63389 0.8737 0.49855 0.0
C2404 C 0.64536 0.90731 0.54437 0.0
C2405 C 0.64464 0.8928 0.55999 0.0
C2406 C 0.63762 0.88071 0.51974 0.0
C2407 C 0.64134 0.87228 0.55488 0.0
C2408 C 0.62589 0.85405 0.49458 0.0
C2409 C 0.63707 0.87992 0.46287 0.0
N2410 N 0.63778 0.86684 0.53518 0.0
N2411 N 0.639 0.88607 0.4826 0.0
H2412 H 0.84937 0.88745 0.3103 0.0
H2413 H 0.94238 0.90211 0.22964 0.0
H2414 H 0.91515 0.89495 0.32659 0.0
H2415 H 0.87981 0.8819 0.21194 0.0
H2416 H 0.93186 0.90059 0.26518 0.0
H2417 H 0.85951 0.88586 0.27433 0.0
C2418 C 0.86595 0.88863 0.30638 0.0
C2419 C 0.88141 0.89149 0.32158 0.0
C2420 C 0.9204 0.89643 0.25358 0.0
C2421 C 0.89304 0.88983 0.28037 0.0
C2422 C 0.92635 0.89741 0.23317 0.0
C2423 C 0.91193 0.89222 0.21764 0.0
C2424 C 0.89977 0.89038 0.25869 0.0
C2425 C 0.89145 0.88607 0.22336 0.0
C2426 C 0.8717 0.88771 0.28581 0.0
C2427 C 0.90264 0.89281 0.3155 0.0
N2428 N 0.88594 0.88542 0.24345 0.0
N2429 N 0.90777 0.89213 0.2954 0.0
H2430 H 0.85571 0.11347 0.96065 0.0
H2431 H 0.86672 0.15631 0.07445 0.0
H2432 H 0.88094 0.17299 0.97579 0.0
H2433 H 0.84633 0.09476 0.06062 0.0
H2434 H 0.87357 0.16191 0.03834 0.0
H2435 H 0.85382 0.10547 0.9971 0.0
C2436 C 0.86102 0.12478 0.97163 0.0
C2437 C 0.86835 0.14398 0.96519 0.0
C2438 C 0.8677 0.14713 0.04318 0.0
C2439 C 0.86612 0.13499 0.00685 0.0
C2440 C 0.86372 0.14392 0.06384 0.0
C2441 C 0.85573 0.12508 0.07062 0.0
C2442 C 0.86355 0.13145 0.02907 0.0
C2443 C 0.8524 0.10956 0.05611 0.0
C2444 C 0.85993 0.12021 0.99242 0.0
C2445 C 0.87507 0.15804 0.98006 0.0
N2446 N 0.85617 0.11315 0.036 0.0
N2447 N 0.87365 0.15331 0.00017 0.0
H2448 H 0.7813 0.59677 0.91204 0.0
H2449 H 0.68945 0.6777 0.89437 0.0
H2450 H 0.78844 0.64828 0.87185 0.0
H2451 H 0.68188 0.61938 0.92401 0.0
H2452 H 0.7276 0.6714 0.89154 0.0
H2453 H 0.74701 0.60953 0.92274 0.0
C2454 C 0.77551 0.61082 0.90548 0.0
C2455 C 0.78705 0.62111 0.89046 0.0
C2456 C 0.71757 0.66017 0.89892 0.0
C2457 C 0.74803 0.63593 0.90266 0.0
C2458 C 0.69589 0.66377 0.90059 0.0
C2459 C 0.68257 0.64891 0.90923 0.0
C2460 C 0.72584 0.64176 0.90624 0.0
C2461 C 0.69158 0.63111 0.91699 0.0
C2462 C 0.75603 0.61817 0.91165 0.0
C2463 C 0.77951 0.63969 0.88304 0.0
N2464 N 0.71261 0.62802 0.91526 0.0
N2465 N 0.76014 0.64637 0.88892 0.0
H2466 H 0.27333 0.90276 0.10229 0.0
H2467 H 0.19498 0.81136 0.10561 0.0
H2468 H 0.2874 0.85362 0.14354 0.0
H2469 H 0.1718 0.87286 0.10896 0.0
H2470 H 0.23044 0.82398 0.11498 0.0
H2471 H 0.23731 0.88926 0.09837 0.0
C2472 C 0.26864 0.88928 0.11074 0.0
C2473 C 0.28276 0.87979 0.12404 0.0
C2474 C 0.21746 0.83459 0.11401 0.0
C2475 C 0.24225 0.86392 0.11903 0.0
C2476 C 0.19738 0.82746 0.10869 0.0
C2477 C 0.18061 0.84114 0.10694 0.0
C2478 C 0.2208 0.85558 0.11655 0.0
C2479 C 0.18436 0.86188 0.1106 0.0
C2480 C 0.24823 0.88159 0.10846 0.0
C2481 C 0.27655 0.86165 0.13368 0.0
N2482 N 0.20422 0.86857 0.11492 0.0
N2483 N 0.25659 0.85423 0.13104 0.0
H2484 H 0.87482 0.53677 0.87456 0.0
H2485 H 0.83814 0.41982 0.86565 0.0
H2486 H 0.81059 0.51647 0.86407 0.0
H2487 H 0.90362 0.43856 0.86172 0.0
H2488 H 0.82823 0.45532 0.86987 0.0
H2489 H 0.88608 0.50098 0.87409 0.0
C2490 C 0.8631 0.52486 0.8722 0.0
C2491 C 0.84174 0.52971 0.86921 0.0
C2492 C 0.84479 0.45169 0.86815 0.0
C2493 C 0.85446 0.48886 0.86887 0.0
C2494 C 0.85049 0.43135 0.8658 0.0
C2495 C 0.87176 0.4261 0.86312 0.0
C2496 C 0.86041 0.46704 0.8679 0.0
C2497 C 0.88701 0.44186 0.86359 0.0
C2498 C 0.86954 0.50446 0.87191 0.0
C2499 C 0.82725 0.51359 0.86626 0.0
N2500 N 0.88103 0.46163 0.86583 0.0
N2501 N 0.83387 0.49399 0.86619 0.0
H2502 H 0.20842 0.14212 0.64941 0.0
H2503 H 0.32459 0.11953 0.61046 0.0
H2504 H 0.22186 0.0921 0.6089 0.0
H2505 H 0.29996 0.18056 0.60867 0.0
H2506 H 0.28966 0.1069 0.62113 0.0
H2507 H 0.2451 0.1545 0.64511 0.0
C2508 C 0.21924 0.13362 0.63991 0.0
C2509 C 0.21261 0.11566 0.63013 0.0
C2510 C 0.2921 0.12309 0.61886 0.0
C2511 C 0.25393 0.12953 0.62521 0.0
C2512 C 0.31192 0.13027 0.61287 0.0
C2513 C 0.31499 0.15107 0.60908 0.0
C2514 C 0.2755 0.13691 0.62127 0.0
C2515 C 0.29806 0.16442 0.61173 0.0
C2516 C 0.23998 0.14063 0.63749 0.0
C2517 C 0.2268 0.10548 0.61743 0.0
N2518 N 0.27895 0.15712 0.61784 0.0
N2519 N 0.24694 0.11242 0.61549 0.0
H2520 H 0.18565 0.97772 0.86521 0.0
H2521 H 0.09045 0.05632 0.86907 0.0
H2522 H 0.12145 0.95837 0.87727 0.0
H2523 H 0.15643 0.07376 0.86943 0.0
H2524 H 0.10076 0.02054 0.87215 0.0
H2525 H 0.1745 0.01295 0.86625 0.0
C2526 C 0.16913 0.98083 0.86804 0.0
C2527 C 0.15444 0.96492 0.87102 0.0
C2528 C 0.11293 0.03225 0.87172 0.0
C2529 C 0.14152 0.00567 0.87227 0.0
C2530 C 0.10709 0.0527 0.86997 0.0
C2531 C 0.1226 0.06816 0.8688 0.0
C2532 C 0.13444 0.0272 0.87216 0.0
C2533 C 0.14388 0.06246 0.87013 0.0
C2534 C 0.16279 0.00107 0.86874 0.0
C2535 C 0.13331 0.97011 0.87484 0.0
N2536 N 0.14913 0.04249 0.87156 0.0
N2537 N 0.12744 0.99006 0.87522 0.0
H2538 H 0.82043 0.39184 0.42015 0.0
H2539 H 0.71305 0.35468 0.36858 0.0
H2540 H 0.81373 0.3321 0.39304 0.0
H2541 H 0.71926 0.40798 0.40671 0.0
H2542 H 0.74892 0.34441 0.37874 0.0
H2543 H 0.78256 0.39665 0.41682 0.0
C2544 C 0.81091 0.37971 0.41351 0.0
C2545 C 0.82019 0.36163 0.4067 0.0
C2546 C 0.74231 0.35822 0.38505 0.0
C2547 C 0.77676 0.36714 0.40248 0.0
C2548 C 0.72196 0.36406 0.37921 0.0
C2549 C 0.71381 0.38255 0.38624 0.0
C2550 C 0.75417 0.37093 0.39816 0.0
C2551 C 0.72548 0.39399 0.4004 0.0
C2552 C 0.78925 0.3824 0.41169 0.0
C2553 C 0.80712 0.34629 0.39845 0.0
N2554 N 0.74518 0.38813 0.4057 0.0
N2555 N 0.78602 0.34951 0.39626 0.0
H2556 H 0.8201 0.48167 0.61926 0.0
H2557 H 0.91964 0.55295 0.6447 0.0
H2558 H 0.88005 0.45638 0.63702 0.0
H2559 H 0.85488 0.57242 0.64244 0.0
H2560 H 0.90787 0.51788 0.6365 0.0
H2561 H 0.83555 0.51559 0.62037 0.0
C2562 C 0.83663 0.48327 0.62323 0.0
C2563 C 0.84874 0.46626 0.62839 0.0
C2564 C 0.89633 0.52991 0.6376 0.0
C2565 C 0.86647 0.50524 0.63026 0.0
C2566 C 0.90301 0.54979 0.64226 0.0
C2567 C 0.88818 0.56549 0.6434 0.0
C2568 C 0.87473 0.52595 0.63444 0.0
C2569 C 0.86679 0.56078 0.64085 0.0
C2570 C 0.84544 0.50268 0.62395 0.0
C2571 C 0.87019 0.4692 0.63306 0.0
N2572 N 0.86072 0.54146 0.63635 0.0
N2573 N 0.87837 0.48846 0.63423 0.0
H2574 H 0.67196 0.51997 0.11782 0.0
H2575 H 0.57303 0.4477 0.14254 0.0
H2576 H 0.61079 0.5442 0.13292 0.0
H2577 H 0.63767 0.42824 0.13808 0.0
H2578 H 0.58445 0.48274 0.13406 0.0
H2579 H 0.65716 0.48575 0.11852 0.0
C2580 C 0.6553 0.51807 0.12112 0.0
C2581 C 0.64263 0.53489 0.12564 0.0
C2582 C 0.59605 0.47072 0.1347 0.0
C2583 C 0.62563 0.49557 0.12705 0.0
C2584 C 0.58956 0.45085 0.13952 0.0
C2585 C 0.60442 0.43517 0.14021 0.0
C2586 C 0.61754 0.47474 0.13097 0.0
C2587 C 0.62569 0.43988 0.1369 0.0
C2588 C 0.64686 0.49849 0.1216 0.0
C2589 C 0.62107 0.53156 0.12947 0.0
N2590 N 0.63161 0.45922 0.13233 0.0
N2591 N 0.61326 0.51216 0.13044 0.0
H2592 H 0.63238 0.7443 0.91872 0.0
H2593 H 0.59883 0.80773 0.82211 0.0
H2594 H 0.62547 0.71798 0.85862 0.0
H2595 H 0.62741 0.83696 0.87441 0.0
H2596 H 0.60987 0.7747 0.83518 0.0
H2597 H 0.63193 0.77844 0.90329 0.0
C2598 C 0.63104 0.74568 0.9023 0.0
C2599 C 0.62865 0.72828 0.88998 0.0
C2600 C 0.6141 0.78832 0.84368 0.0
C2601 C 0.62801 0.7671 0.87231 0.0
C2602 C 0.60781 0.80717 0.83619 0.0
C2603 C 0.61222 0.825 0.84723 0.0
C2604 C 0.62437 0.78721 0.86266 0.0
C2605 C 0.62384 0.82349 0.86541 0.0
C2606 C 0.63085 0.76514 0.89351 0.0
C2607 C 0.62709 0.73094 0.86878 0.0
N2608 N 0.62918 0.80483 0.87282 0.0
N2609 N 0.62652 0.74994 0.86068 0.0
H2610 H 0.52921 0.37079 0.15457 0.0
H2611 H 0.44452 0.34454 0.06725 0.0
H2612 H 0.54376 0.36982 0.09016 0.0
H2613 H 0.42861 0.35005 0.13088 0.0
H2614 H 0.48156 0.35191 0.07564 0.0
H2615 H 0.49259 0.36194 0.14647 0.0
C2616 C 0.52476 0.36867 0.13874 0.0
C2617 C 0.53965 0.37103 0.12304 0.0
C2618 C 0.46999 0.3516 0.08779 0.0
C2619 C 0.49777 0.36076 0.1137 0.0
C2620 C 0.44893 0.34743 0.08298 0.0
C2621 C 0.43363 0.34762 0.09833 0.0
C2622 C 0.47572 0.35548 0.10818 0.0
C2623 C 0.44 0.35066 0.11858 0.0
C2624 C 0.50383 0.36361 0.13413 0.0
C2625 C 0.53288 0.36818 0.1028 0.0
N2626 N 0.46061 0.35463 0.12294 0.0
N2627 N 0.51246 0.36317 0.09873 0.0
H2628 H 0.90036 0.19673 0.32874 0.0
H2629 H 0.86522 0.26627 0.42105 0.0
H2630 H 0.86643 0.17184 0.38015 0.0
H2631 H 0.87955 0.28972 0.36107 0.0
H2632 H 0.8646 0.2316 0.4068 0.0
H2633 H 0.89191 0.23102 0.34037 0.0
C2634 C 0.89086 0.19853 0.34236 0.0
C2635 C 0.88414 0.18151 0.35357 0.0
C2636 C 0.86759 0.2444 0.39676 0.0
C2637 C 0.87479 0.22073 0.36728 0.0
C2638 C 0.86801 0.26416 0.40488 0.0
C2639 C 0.87271 0.28088 0.39227 0.0
C2640 C 0.87214 0.24142 0.37598 0.0
C2641 C 0.87608 0.27729 0.37142 0.0
C2642 C 0.88602 0.2181 0.349 0.0
C2643 C 0.87183 0.18464 0.37107 0.0
N2644 N 0.87597 0.25797 0.364 0.0
N2645 N 0.86783 0.20394 0.37763 0.0
H2646 H 0.9473 0.62592 0.59008 0.0
H2647 H 0.06495 0.648 0.62956 0.0
H2648 H 0.96369 0.63139 0.65392 0.0
H2649 H 0.04649 0.64994 0.56631 0.0
H2650 H 0.0282 0.6405 0.63897 0.0
H2651 H 0.98393 0.63305 0.58118 0.0
C2652 C 0.95856 0.62866 0.60226 0.0
C2653 C 0.95231 0.62813 0.62282 0.0
C2654 C 0.03217 0.64245 0.62302 0.0
C2655 C 0.99441 0.63631 0.61264 0.0
C2656 C 0.0531 0.64652 0.61768 0.0
C2657 C 0.05863 0.64874 0.59713 0.0
C2658 C 0.01675 0.64083 0.60764 0.0
C2659 C 0.04276 0.64773 0.58228 0.0
C2660 C 0.97951 0.63275 0.59714 0.0
C2661 C 0.96772 0.63172 0.63788 0.0
N2662 N 0.02251 0.64363 0.58781 0.0
N2663 N 0.98807 0.63565 0.63248 0.0
H2664 H 0.61224 0.26463 0.57909 0.0
H2665 H 0.64099 0.1706 0.65138 0.0
H2666 H 0.648 0.27242 0.63478 0.0
H2667 H 0.58277 0.17565 0.61763 0.0
H2668 H 0.65183 0.20455 0.63844 0.0
H2669 H 0.60997 0.22796 0.58594 0.0
C2670 C 0.61994 0.25861 0.59253 0.0
C2671 C 0.63002 0.27163 0.60656 0.0
C2672 C 0.63684 0.19798 0.63371 0.0
C2673 C 0.62765 0.22984 0.61431 0.0
C2674 C 0.63073 0.17874 0.64103 0.0
C2675 C 0.61093 0.17068 0.63568 0.0
C2676 C 0.62323 0.20865 0.62061 0.0
C2677 C 0.59807 0.18162 0.62226 0.0
C2678 C 0.61859 0.23773 0.59645 0.0
C2679 C 0.63978 0.26296 0.62373 0.0
N2680 N 0.60443 0.20005 0.61516 0.0
N2681 N 0.63824 0.24259 0.62722 0.0
H2682 H 0.06326 0.35124 0.90856 0.0
H2683 H 0.97542 0.39812 0.83505 0.0
H2684 H 0.07529 0.37245 0.84723 0.0
H2685 H 0.96127 0.36914 0.8926 0.0
H2686 H 0.01305 0.39467 0.84225 0.0
H2687 H 0.02684 0.3629 0.90551 0.0
C2688 C 0.05831 0.35841 0.89449 0.0
C2689 C 0.07232 0.36059 0.87802 0.0
C2690 C 0.00173 0.38929 0.85343 0.0
C2691 C 0.03068 0.37408 0.87452 0.0
C2692 C 0.98023 0.39135 0.84937 0.0
C2693 C 0.96521 0.38363 0.86312 0.0
C2694 C 0.00823 0.37939 0.87133 0.0
C2695 C 0.97234 0.37512 0.88149 0.0
C2696 C 0.03751 0.36509 0.89279 0.0
C2697 C 0.06501 0.37016 0.86023 0.0
N2698 N 0.99337 0.37299 0.88495 0.0
N2699 N 0.04468 0.37645 0.85893 0.0
H2700 H 0.84012 0.73099 0.13674 0.0
H2701 H 0.91914 0.82029 0.13121 0.0
H2702 H 0.88208 0.7371 0.08521 0.0
H2703 H 0.8554 0.83442 0.14929 0.0
H2704 H 0.90677 0.78774 0.1176 0.0
H2705 H 0.84533 0.76729 0.14436 0.0
C2706 C 0.85013 0.74003 0.12683 0.0
C2707 C 0.86088 0.731 0.11043 0.0
C2708 C 0.89546 0.79799 0.12444 0.0
C2709 C 0.86712 0.77221 0.11933 0.0
C2710 C 0.90251 0.81643 0.13245 0.0
C2711 C 0.88826 0.82988 0.1416 0.0
C2712 C 0.87408 0.79264 0.12606 0.0
C2713 C 0.86683 0.82432 0.14244 0.0
C2714 C 0.85298 0.76072 0.13114 0.0
C2715 C 0.87355 0.74345 0.09801 0.0
N2716 N 0.86037 0.80582 0.13507 0.0
N2717 N 0.87673 0.76335 0.10301 0.0
H2718 H 0.41324 0.62251 0.34979 0.0
H2719 H 0.53044 0.62691 0.39391 0.0
H2720 H 0.42901 0.64623 0.40951 0.0
H2721 H 0.5139 0.60124 0.33526 0.0
H2722 H 0.49292 0.62973 0.40196 0.0
H2723 H 0.44943 0.61082 0.34605 0.0
C2724 C 0.42428 0.62523 0.36217 0.0
C2725 C 0.41811 0.63568 0.37988 0.0
C2726 C 0.49749 0.62321 0.38744 0.0
C2727 C 0.45969 0.62225 0.37566 0.0
C2728 C 0.51892 0.62152 0.38286 0.0
C2729 C 0.52529 0.6141 0.36376 0.0
C2730 C 0.48235 0.61756 0.37275 0.0
C2731 C 0.50969 0.60724 0.35009 0.0
C2732 C 0.44496 0.61845 0.36005 0.0
C2733 C 0.43308 0.63842 0.39551 0.0
N2734 N 0.48894 0.6094 0.35474 0.0
N2735 N 0.45323 0.63194 0.39294 0.0
H2736 H 0.80925 0.59727 0.79998 0.0
H2737 H 0.90621 0.632 0.72977 0.0
H2738 H 0.87045 0.61341 0.82476 0.0
H2739 H 0.8437 0.6172 0.70756 0.0
H2740 H 0.89324 0.62827 0.76489 0.0
H2741 H 0.82147 0.60711 0.76633 0.0
C2742 C 0.82531 0.60289 0.79839 0.0
C2743 C 0.83889 0.60431 0.8153 0.0
C2744 C 0.88235 0.62606 0.7523 0.0
C2745 C 0.85309 0.61568 0.77645 0.0
C2746 C 0.88971 0.62827 0.73228 0.0
C2747 C 0.87605 0.62472 0.71573 0.0
C2748 C 0.86121 0.62027 0.7557 0.0
C2749 C 0.85485 0.61989 0.71983 0.0
C2750 C 0.83227 0.6086 0.77908 0.0
C2751 C 0.85945 0.61197 0.81217 0.0
N2752 N 0.84816 0.61767 0.73935 0.0
N2753 N 0.86599 0.61723 0.79307 0.0
H2754 H 0.63811 0.58109 0.05681 0.0
H2755 H 0.6169 0.6694 0.979 0.0
H2756 H 0.61628 0.63941 0.07816 0.0
H2757 H 0.60973 0.60566 0.96328 0.0
H2758 H 0.61707 0.65986 0.01526 0.0
H2759 H 0.62818 0.59044 0.02211 0.0
C2760 C 0.63085 0.59576 0.05415 0.0
C2761 C 0.62791 0.6095 0.07022 0.0
C2762 C 0.61516 0.64808 0.00378 0.0
C2763 C 0.61713 0.62061 0.03055 0.0
C2764 C 0.61517 0.65348 0.98311 0.0
C2765 C 0.61369 0.63831 0.96798 0.0
C2766 C 0.61393 0.62739 0.00925 0.0
C2767 C 0.61128 0.61793 0.97427 0.0
C2768 C 0.62519 0.60111 0.03438 0.0
C2769 C 0.61857 0.62837 0.06608 0.0
N2770 N 0.61177 0.61309 0.99435 0.0
N2771 N 0.61386 0.63359 0.04649 0.0
H2772 H 0.65207 0.38356 0.203 0.0
H2773 H 0.62771 0.38591 0.32277 0.0
H2774 H 0.59053 0.36957 0.22785 0.0
H2775 H 0.68708 0.40382 0.2954 0.0
H2776 H 0.6146 0.37604 0.28889 0.0
H2777 H 0.66602 0.38673 0.23747 0.0
C2778 C 0.64151 0.38096 0.21574 0.0
C2779 C 0.62006 0.37649 0.21255 0.0
C2780 C 0.63052 0.38203 0.29038 0.0
C2781 C 0.63591 0.38035 0.25224 0.0
C2782 C 0.63803 0.38766 0.30971 0.0
C2783 C 0.65847 0.39593 0.31196 0.0
C2784 C 0.64359 0.38459 0.27324 0.0
C2785 C 0.67114 0.39777 0.29447 0.0
C2786 C 0.64948 0.38282 0.23547 0.0
C2787 C 0.60717 0.37311 0.22966 0.0
N2788 N 0.66346 0.39223 0.27592 0.0
N2789 N 0.61525 0.37532 0.24882 0.0
H2790 H 0.87716 0.36504 0.58031 0.0
H2791 H 0.88545 0.40417 0.46535 0.0
H2792 H 0.84953 0.42071 0.55825 0.0
H2793 H 0.88421 0.33991 0.48002 0.0
H2794 H 0.88219 0.41212 0.50144 0.0
H2795 H 0.88933 0.35752 0.54539 0.0
C2796 C 0.87406 0.37583 0.5682 0.0
C2797 C 0.86226 0.39344 0.57199 0.0
C2798 C 0.8828 0.39629 0.49676 0.0
C2799 C 0.87616 0.38512 0.53251 0.0
C2800 C 0.88468 0.39167 0.47613 0.0
C2801 C 0.88473 0.37128 0.46952 0.0
C2802 C 0.88114 0.38046 0.51101 0.0
C2803 C 0.88393 0.35584 0.48437 0.0
C2804 C 0.88085 0.37148 0.54836 0.0
C2805 C 0.85845 0.40689 0.55586 0.0
N2806 N 0.88202 0.36075 0.50448 0.0
N2807 N 0.86537 0.40246 0.53682 0.0
H2808 H 0.89302 0.4026 0.78721 0.0
H2809 H 0.84061 0.36574 0.68353 0.0
H2810 H 0.84788 0.35286 0.78649 0.0
H2811 H 0.84687 0.42962 0.69828 0.0
H2812 H 0.85219 0.35727 0.71842 0.0
H2813 H 0.88486 0.40932 0.75127 0.0
C2814 C 0.88154 0.39299 0.77944 0.0
C2815 C 0.87103 0.37719 0.78981 0.0
C2816 C 0.8512 0.3731 0.71384 0.0
C2817 C 0.86208 0.38454 0.74883 0.0
C2818 C 0.8448 0.37791 0.69403 0.0
C2819 C 0.84286 0.39836 0.68822 0.0
C2820 C 0.8562 0.38889 0.72755 0.0
C2821 C 0.84816 0.41367 0.70232 0.0
C2822 C 0.8769 0.39687 0.75903 0.0
C2823 C 0.85622 0.36525 0.77907 0.0
N2824 N 0.85474 0.40863 0.72136 0.0
N2825 N 0.85226 0.36908 0.75905 0.0
H2826 H 0.88561 0.62913 0.91917 0.0
H2827 H 0.86879 0.61567 0.03927 0.0
H2828 H 0.85474 0.57751 0.94732 0.0
H2829 H 0.8823 0.6737 0.0109 0.0
H2830 H 0.87273 0.59899 0.00626 0.0
H2831 H 0.89401 0.64267 0.95326 0.0
C2832 C 0.88127 0.62031 0.93251 0.0
C2833 C 0.86936 0.60227 0.93053 0.0
C2834 C 0.87502 0.61535 0.00726 0.0
C2835 C 0.8786 0.61769 0.9693 0.0
C2836 C 0.87273 0.62491 0.02611 0.0
C2837 C 0.87487 0.64617 0.02779 0.0
C2838 C 0.87948 0.62708 0.98988 0.0
C2839 C 0.88026 0.6573 0.01023 0.0
C2840 C 0.88584 0.62815 0.95192 0.0
C2841 C 0.86383 0.59155 0.94824 0.0
N2842 N 0.88219 0.64764 0.99193 0.0
N2843 N 0.86832 0.59952 0.96689 0.0
H2844 H 0.64095 0.64754 0.2859 0.0
H2845 H 0.64275 0.5698 0.19599 0.0
H2846 H 0.59657 0.59717 0.28525 0.0
H2847 H 0.64683 0.63418 0.18315 0.0
H2848 H 0.63028 0.57773 0.23055 0.0
H2849 H 0.64829 0.64135 0.2497 0.0
C2850 C 0.63273 0.63523 0.27814 0.0
C2851 C 0.6181 0.62287 0.28854 0.0
C2852 C 0.63367 0.59008 0.22005 0.0
C2853 C 0.62672 0.61555 0.24746 0.0
C2854 C 0.6408 0.58559 0.20046 0.0
C2855 C 0.64564 0.6014 0.18685 0.0
C2856 C 0.63212 0.61049 0.2262 0.0
C2857 C 0.64301 0.62162 0.19324 0.0
C2858 C 0.63683 0.63181 0.25752 0.0
C2859 C 0.60788 0.60711 0.27774 0.0
N2860 N 0.63675 0.62564 0.21267 0.0
N2861 N 0.61262 0.60369 0.25782 0.0
H2862 H 0.60768 0.3283 0.50743 0.0
H2863 H 0.64634 0.42362 0.44411 0.0
H2864 H 0.62321 0.38638 0.53496 0.0
H2865 H 0.61283 0.37337 0.41598 0.0
H2866 H 0.6355 0.41116 0.47759 0.0
H2867 H 0.60725 0.3448 0.47387 0.0
C2868 C 0.61076 0.34454 0.50645 0.0
C2869 C 0.61578 0.35593 0.52397 0.0
C2870 C 0.63014 0.40303 0.46412 0.0
C2871 C 0.61542 0.37483 0.48574 0.0
C2872 C 0.63629 0.41018 0.44501 0.0
C2873 C 0.63055 0.39943 0.42733 0.0
C2874 C 0.6186 0.38468 0.4656 0.0
C2875 C 0.61754 0.38211 0.42929 0.0
C2876 C 0.61043 0.35396 0.48731 0.0
C2877 C 0.61949 0.37695 0.52184 0.0
N2878 N 0.61234 0.375 0.44815 0.0
N2879 N 0.61951 0.38565 0.50307 0.0
H2880 H 0.71026 0.85314 0.61526 0.0
H2881 H 0.82918 0.89413 0.6206 0.0
H2882 H 0.72741 0.91402 0.63469 0.0
H2883 H 0.81153 0.83286 0.60262 0.0
H2884 H 0.7924 0.90065 0.62942 0.0
H2885 H 0.74759 0.84428 0.6145 0.0
C2886 C 0.72188 0.86458 0.61962 0.0
C2887 C 0.71576 0.88441 0.62481 0.0
C2888 C 0.79662 0.88573 0.62369 0.0
C2889 C 0.75854 0.87446 0.62374 0.0
C2890 C 0.81763 0.882 0.6186 0.0
C2891 C 0.82347 0.86299 0.61057 0.0
C2892 C 0.7813 0.87039 0.62068 0.0
C2893 C 0.80779 0.84782 0.60854 0.0
C2894 C 0.74321 0.85952 0.61915 0.0
C2895 C 0.73146 0.89858 0.63046 0.0
N2896 N 0.78743 0.85191 0.61339 0.0
N2897 N 0.75217 0.8934 0.62953 0.0
H2898 H 0.21892 0.59185 0.35306 0.0
H2899 H 0.29466 0.68401 0.38757 0.0
H2900 H 0.19507 0.64863 0.37676 0.0
H2901 H 0.3139 0.6213 0.38352 0.0
H2902 H 0.25874 0.67368 0.37707 0.0
H2903 H 0.25485 0.60537 0.35619 0.0
C2904 C 0.22121 0.60728 0.35862 0.0
C2905 C 0.20402 0.61902 0.36497 0.0
C2906 C 0.27092 0.66225 0.37826 0.0
C2907 C 0.24505 0.63444 0.36883 0.0
C2908 C 0.29128 0.66812 0.38425 0.0
C2909 C 0.30721 0.65352 0.38564 0.0
C2910 C 0.26659 0.64162 0.37398 0.0
C2911 C 0.30213 0.63306 0.38182 0.0
C2912 C 0.24172 0.61493 0.36052 0.0
C2913 C 0.20791 0.63898 0.37191 0.0
N2914 N 0.28227 0.6277 0.37603 0.0
N2915 N 0.22808 0.64601 0.37387 0.0
H2916 H 0.58761 0.04319 0.67776 0.0
H2917 H 0.5983 0.95934 0.59455 0.0
H2918 H 0.59345 0.06173 0.6149 0.0
H2919 H 0.64033 0.95802 0.64642 0.0
H2920 H 0.58919 0.99466 0.60321 0.0
H2921 H 0.60016 0.00904 0.66828 0.0
C2922 C 0.59165 0.04003 0.66201 0.0
C2923 C 0.58972 0.05515 0.64706 0.0
C2924 C 0.60048 0.98658 0.61256 0.0
C2925 C 0.60327 0.01638 0.63616 0.0
C2926 C 0.60561 0.9665 0.60771 0.0
C2927 C 0.62016 0.95589 0.61974 0.0
C2928 C 0.60943 0.99573 0.62993 0.0
C2929 C 0.62918 0.96581 0.63668 0.0
C2930 C 0.5988 0.02069 0.65666 0.0
C2931 C 0.595 0.05043 0.62683 0.0
N2932 N 0.62342 0.98513 0.64148 0.0
N2933 N 0.60124 0.03128 0.62186 0.0
H2934 H 0.19697 0.31613 0.88331 0.0
H2935 H 0.27416 0.40954 0.85615 0.0
H2936 H 0.17689 0.37852 0.87853 0.0
H2937 H 0.29583 0.34951 0.87254 0.0
H2938 H 0.2377 0.39682 0.85718 0.0
H2939 H 0.23274 0.32673 0.87316 0.0
C2940 C 0.20013 0.33201 0.87982 0.0
C2941 C 0.18404 0.34643 0.88109 0.0
C2942 C 0.25047 0.3864 0.86035 0.0
C2943 C 0.22467 0.35875 0.87 0.0
C2944 C 0.27127 0.39362 0.85966 0.0
C2945 C 0.28799 0.38064 0.86458 0.0
C2946 C 0.24644 0.36608 0.86602 0.0
C2947 C 0.28337 0.36012 0.86891 0.0
C2948 C 0.22044 0.33806 0.87404 0.0
C2949 C 0.18884 0.3669 0.87701 0.0
N2950 N 0.26301 0.35353 0.86974 0.0
N2951 N 0.20875 0.37248 0.87162 0.0
H2952 H 0.43592 0.45692 0.64674 0.0
H2953 H 0.33537 0.52063 0.61149 0.0
H2954 H 0.37602 0.42882 0.63121 0.0
H2955 H 0.39677 0.547 0.62403 0.0
H2956 H 0.35041 0.48658 0.61564 0.0
H2957 H 0.42224 0.48971 0.63594 0.0
C2958 C 0.41988 0.4576 0.64104 0.0
C2959 C 0.40705 0.44005 0.6401 0.0
C2960 C 0.36062 0.49983 0.61725 0.0
C2961 C 0.39122 0.47776 0.62764 0.0
C2962 C 0.35206 0.51926 0.61481 0.0
C2963 C 0.36479 0.53667 0.61762 0.0
C2964 C 0.38202 0.49787 0.62259 0.0
C2965 C 0.38631 0.53401 0.62191 0.0
C2966 C 0.41209 0.47638 0.63478 0.0
C2967 C 0.38646 0.44194 0.63231 0.0
N2968 N 0.39418 0.515 0.62444 0.0
N2969 N 0.37912 0.4605 0.62653 0.0
H2970 H 0.77123 0.09304 0.12047 0.0
H2971 H 0.67714 0.17149 0.10291 0.0
H2972 H 0.779 0.15858 0.12182 0.0
H2973 H 0.66735 0.10644 0.10859 0.0
H2974 H 0.71458 0.16681 0.10963 0.0
H2975 H 0.73327 0.09743 0.11574 0.0
C2976 C 0.76501 0.10836 0.11976 0.0
C2977 C 0.77841 0.12547 0.12147 0.0
C2978 C 0.70426 0.15355 0.10949 0.0
C2979 C 0.73493 0.13055 0.11608 0.0
C2980 C 0.68283 0.15619 0.10562 0.0
C2981 C 0.66903 0.13931 0.10507 0.0
C2982 C 0.71207 0.13386 0.11274 0.0
C2983 C 0.67738 0.1199 0.10884 0.0
C2984 C 0.7433 0.11083 0.11712 0.0
C2985 C 0.76936 0.14492 0.12052 0.0
N2986 N 0.6984 0.11769 0.11241 0.0
N2987 N 0.74822 0.14691 0.11784 0.0
H2988 H 0.64666 0.03068 0.86901 0.0
H2989 H 0.55636 0.95528 0.83006 0.0
H2990 H 0.58032 0.04557 0.86769 0.0
H2991 H 0.61579 0.93223 0.85239 0.0
H2992 H 0.56685 0.98928 0.84065 0.0
H2993 H 0.63743 0.99523 0.86044 0.0
C2994 C 0.63019 0.02653 0.867 0.0
C2995 C 0.61426 0.04122 0.86894 0.0
C2996 C 0.57763 0.97682 0.84331 0.0
C2997 C 0.60372 0.00085 0.85902 0.0
C2998 C 0.57171 0.95732 0.83714 0.0
C2999 C 0.58521 0.94074 0.84033 0.0
C3000 C 0.59735 0.98004 0.85255 0.0
C3001 C 0.60487 0.94453 0.84968 0.0
C3002 C 0.62497 0.0063 0.86218 0.0
C3003 C 0.59318 0.0349 0.86629 0.0
N3004 N 0.61043 0.96386 0.85539 0.0
N3005 N 0.58859 0.01528 0.86131 0.0
H3006 H 0.89007 0.05322 0.31473 0.0
H3007 H 0.89853 0.96724 0.39581 0.0
H3008 H 0.89907 0.0693 0.37799 0.0
H3009 H 0.85095 0.9631 0.34868 0.0
H3010 H 0.90296 0.00367 0.38816 0.0
H3011 H 0.87911 0.01878 0.32519 0.0
C3012 C 0.88939 0.04952 0.33083 0.0
C3013 C 0.89524 0.064 0.34558 0.0
C3014 C 0.89141 0.99476 0.3797 0.0
C3015 C 0.88356 0.02475 0.35751 0.0
C3016 C 0.88896 0.97401 0.38395 0.0
C3017 C 0.87435 0.96218 0.37286 0.0
C3018 C 0.87963 0.00349 0.36386 0.0
C3019 C 0.86232 0.97172 0.35766 0.0
C3020 C 0.88316 0.02997 0.33677 0.0
C3021 C 0.89437 0.05854 0.36624 0.0
N3022 N 0.86547 0.99177 0.35336 0.0
N3023 N 0.88902 0.03915 0.37163 0.0
H3024 H 0.34866 0.26978 0.08122 0.0
H3025 H 0.38233 0.18658 0.16366 0.0
H3026 H 0.37662 0.28471 0.13955 0.0
H3027 H 0.35836 0.17206 0.10355 0.0
H3028 H 0.37505 0.22253 0.15734 0.0
H3029 H 0.34669 0.23404 0.09148 0.0
C3030 C 0.35415 0.26558 0.09629 0.0
C3031 C 0.36308 0.28019 0.10945 0.0
C3032 C 0.37121 0.21144 0.14562 0.0
C3033 C 0.36105 0.23928 0.12123 0.0
C3034 C 0.37534 0.19088 0.14922 0.0
C3035 C 0.37129 0.17626 0.13399 0.0
C3036 C 0.36297 0.21744 0.12666 0.0
C3037 C 0.36207 0.18279 0.11564 0.0
C3038 C 0.35306 0.24516 0.10213 0.0
C3039 C 0.3698 0.2739 0.12885 0.0
N3040 N 0.35841 0.20289 0.11243 0.0
N3041 N 0.36886 0.25387 0.13407 0.0
H3042 H 0.57906 0.64865 0.86322 0.0
H3043 H 0.46328 0.60754 0.88619 0.0
H3044 H 0.55419 0.65001 0.92437 0.0
H3045 H 0.47614 0.64709 0.8352 0.0
H3046 H 0.49951 0.61381 0.89878 0.0
H3047 H 0.54393 0.63852 0.85056 0.0
C3048 C 0.56629 0.64623 0.87397 0.0
C3049 C 0.56938 0.64972 0.89483 0.0
C3050 C 0.49438 0.62086 0.8847 0.0
C3051 C 0.52966 0.63792 0.88064 0.0
C3052 C 0.47386 0.61731 0.87756 0.0
C3053 C 0.46722 0.62615 0.85922 0.0
C3054 C 0.50813 0.63334 0.87338 0.0
C3055 C 0.48113 0.63923 0.84887 0.0
C3056 C 0.54635 0.64053 0.86678 0.0
C3057 C 0.55231 0.64713 0.90819 0.0
N3058 N 0.50108 0.64225 0.85594 0.0
N3059 N 0.53314 0.64113 0.9009 0.0
H3060 H 0.11633 0.71413 0.63618 0.0
H3061 H 0.1316 0.82925 0.59944 0.0
H3062 H 0.13655 0.73116 0.57563 0.0
H3063 H 0.10951 0.81233 0.65949 0.0
H3064 H 0.13821 0.79345 0.59207 0.0
H3065 H 0.11843 0.74989 0.64647 0.0
C3066 C 0.12142 0.72537 0.62509 0.0
C3067 C 0.12604 0.7197 0.60494 0.0
C3068 C 0.13209 0.79757 0.60693 0.0
C3069 C 0.12835 0.76068 0.61659 0.0
C3070 C 0.12829 0.81805 0.61117 0.0
C3071 C 0.11964 0.82384 0.63003 0.0
C3072 C 0.12715 0.7827 0.62158 0.0
C3073 C 0.11599 0.80861 0.64468 0.0
C3074 C 0.12261 0.7458 0.63098 0.0
C3075 C 0.13269 0.73488 0.59127 0.0
N3076 N 0.11954 0.78872 0.64006 0.0
N3077 N 0.13345 0.75471 0.5973 0.0
H3078 H 0.02517 0.34833 0.33555 0.0
H3079 H 0.9489 0.35654 0.42765 0.0
H3080 H 0.04235 0.38915 0.38453 0.0
H3081 H 0.92445 0.35923 0.36631 0.0
H3082 H 0.98444 0.3643 0.41446 0.0
H3083 H 0.98908 0.34645 0.34903 0.0
C3084 C 0.02116 0.35715 0.34897 0.0
C3085 C 0.03624 0.36971 0.35844 0.0
C3086 C 0.97119 0.36356 0.404 0.0
C3087 C 0.9956 0.36697 0.37433 0.0
C3088 C 0.95105 0.35917 0.41146 0.0
C3089 C 0.93387 0.3577 0.39801 0.0
C3090 C 0.97418 0.36546 0.3829 0.0
C3091 C 0.93733 0.3607 0.37713 0.0
C3092 C 0.0007 0.35602 0.35666 0.0
C3093 C 0.03081 0.37983 0.37651 0.0
N3094 N 0.95723 0.36412 0.37012 0.0
N3095 N 0.0108 0.37828 0.38394 0.0
H3096 H 0.40027 0.81077 0.31973 0.0
H3097 H 0.37387 0.72489 0.40282 0.0
H3098 H 0.39394 0.82267 0.38407 0.0
H3099 H 0.37643 0.71274 0.33804 0.0
H3100 H 0.3824 0.7605 0.39618 0.0
H3101 H 0.39332 0.77443 0.32609 0.0
C3102 C 0.3973 0.80564 0.33518 0.0
C3103 C 0.39673 0.81963 0.35133 0.0
C3104 C 0.38117 0.75005 0.3834 0.0
C3105 C 0.38937 0.77832 0.35883 0.0
C3106 C 0.3763 0.72965 0.38717 0.0
C3107 C 0.37446 0.71568 0.37097 0.0
C3108 C 0.38437 0.75665 0.36328 0.0
C3109 C 0.3777 0.7229 0.35103 0.0
C3110 C 0.39336 0.78498 0.33882 0.0
C3111 C 0.3936 0.81235 0.37116 0.0
N3112 N 0.38252 0.74289 0.34775 0.0
N3113 N 0.38988 0.79218 0.37436 0.0
H3114 H 0.02671 0.61752 0.09959 0.0
H3115 H 0.92675 0.67948 0.13726 0.0
H3116 H 0.02531 0.65411 0.15423 0.0
H3117 H 0.93033 0.65293 0.07703 0.0
H3118 H 0.96405 0.67232 0.1423 0.0
H3119 H 0.99261 0.63215 0.08928 0.0
C3120 C 0.01923 0.62874 0.10926 0.0
C3121 C 0.02812 0.63411 0.12809 0.0
C3122 C 0.95679 0.66825 0.12786 0.0
C3123 C 0.98985 0.65108 0.11644 0.0
C3124 C 0.93546 0.67229 0.12502 0.0
C3125 C 0.92543 0.66665 0.10678 0.0
C3126 C 0.96809 0.65808 0.11253 0.0
C3127 C 0.93751 0.65752 0.09135 0.0
C3128 C -9e-05 0.63713 0.1034 0.0
C3129 C 0.01839 0.64908 0.13993 0.0
N3130 N 0.95818 0.65321 0.09469 0.0
N3131 N -0.00038 0.65686 0.13405 0.0
H3132 H 0.11761 0.28352 0.83689 0.0
H3133 H 0.10494 0.1736 0.88896 0.0
H3134 H 0.11963 0.27356 0.90203 0.0
H3135 H 0.09598 0.18422 0.82471 0.0
H3136 H 0.11135 0.21019 0.89399 0.0
H3137 H 0.11086 0.24709 0.83191 0.0
C3138 C 0.11658 0.27373 0.85015 0.0
C3139 C 0.11914 0.28171 0.86992 0.0
C3140 C 0.10808 0.20456 0.87876 0.0
C3141 C 0.11145 0.23994 0.86429 0.0
C3142 C 0.10463 0.1837 0.8759 0.0
C3143 C 0.10079 0.17599 0.85631 0.0
C3144 C 0.10746 0.21775 0.86187 0.0
C3145 C 0.09949 0.18966 0.83996 0.0
C3146 C 0.11272 0.25292 0.84729 0.0
C3147 C 0.11771 0.26819 0.8865 0.0
N3148 N 0.10306 0.20989 0.84306 0.0
N3149 N 0.114 0.24801 0.8833 0.0
H3150 H 0.56286 0.32112 0.63381 0.0
H3151 H 0.45995 0.38024 0.59847 0.0
H3152 H 0.5575 0.3485 0.57417 0.0
H3153 H 0.4643 0.34407 0.65311 0.0
H3154 H 0.49445 0.36699 0.58749 0.0
H3155 H 0.52559 0.32744 0.63961 0.0
C3156 C 0.55375 0.3283 0.62184 0.0
C3157 C 0.5633 0.33443 0.60355 0.0
C3158 C 0.48772 0.36181 0.60177 0.0
C3159 C 0.52056 0.34199 0.61018 0.0
C3160 C 0.46818 0.36942 0.60801 0.0
C3161 C 0.45996 0.36377 0.62701 0.0
C3162 C 0.49868 0.34832 0.61459 0.0
C3163 C 0.47066 0.34932 0.63868 0.0
C3164 C 0.53242 0.33187 0.62513 0.0
C3165 C 0.55071 0.34353 0.5885 0.0
N3166 N 0.4896 0.34227 0.63241 0.0
N3167 N 0.52999 0.34733 0.59226 0.0
H3168 H 0.13342 0.38079 0.2782 0.0
H3169 H 0.10061 0.36251 0.16153 0.0
H3170 H 0.07262 0.35913 0.25726 0.0
H3171 H 0.15631 0.39686 0.17907 0.0
H3172 H 0.09439 0.35436 0.1972 0.0
H3173 H 0.14609 0.38015 0.24261 0.0
C3174 C 0.12294 0.37547 0.2662 0.0
C3175 C 0.1019 0.3702 0.27057 0.0
C3176 C 0.10807 0.36358 0.19328 0.0
C3177 C 0.11611 0.3694 0.23023 0.0
C3178 C 0.11162 0.36829 0.17287 0.0
C3179 C 0.12878 0.38074 0.16728 0.0
C3180 C 0.12166 0.37148 0.20836 0.0
C3181 C 0.14273 0.3874 0.1827 0.0
C3182 C 0.13009 0.37523 0.24595 0.0
C3183 C 0.08886 0.36355 0.25455 0.0
N3184 N 0.13872 0.3829 0.2026 0.0
N3185 N 0.09613 0.36344 0.23514 0.0
H3186 H 0.35564 0.42531 0.9406 0.0
H3187 H 0.37211 0.33865 0.02479 0.0
H3188 H 0.36107 0.3615 0.92612 0.0
H3189 H 0.37526 0.40315 0.03819 0.0
H3190 H 0.36739 0.34664 0.98874 0.0
H3191 H 0.36192 0.41746 0.97667 0.0
C3192 C 0.35841 0.40967 0.9451 0.0
C3193 C 0.3587 0.39409 0.93048 0.0
C3194 C 0.36912 0.35904 -0.00043 0.0
C3195 C 0.36517 0.38485 0.97155 0.0
C3196 C 0.37176 0.3545 0.0202 0.0
C3197 C 0.37398 0.37025 0.03464 0.0
C3198 C 0.36852 0.37948 0.99327 0.0
C3199 C 0.37355 0.39049 0.02767 0.0
C3200 C 0.36196 0.40517 0.96561 0.0
C3201 C 0.36158 0.37397 0.93696 0.0
N3202 N 0.37079 0.39451 0.00751 0.0
N3203 N 0.36477 0.36991 0.95706 0.0
H3204 H 0.38551 0.61411 0.66501 0.0
H3205 H 0.36546 0.61941 0.78552 0.0
H3206 H 0.32392 0.60527 0.69159 0.0
H3207 H 0.4267 0.61968 0.75654 0.0
H3208 H 0.34887 0.61962 0.75152 0.0
H3209 H 0.39983 0.62177 0.69874 0.0
C3210 C 0.37495 0.61424 0.67801 0.0
C3211 C 0.35347 0.60975 0.67561 0.0
C3212 C 0.36593 0.61981 0.75272 0.0
C3213 C 0.36979 0.6175 0.7144 0.0
C3214 C 0.37539 0.61974 0.77207 0.0
C3215 C 0.39748 0.61922 0.77386 0.0
C3216 C 0.37874 0.61955 0.7352 0.0
C3217 C 0.40961 0.61974 0.75595 0.0
C3218 C 0.38311 0.6184 0.69729 0.0
C3219 C 0.34054 0.60911 0.69294 0.0
N3220 N 0.40009 0.61978 0.73745 0.0
N3221 N 0.3489 0.61297 0.71172 0.0
H3222 H 0.11863 0.59367 0.5381 0.0
H3223 H 0.12869 0.63214 0.42276 0.0
H3224 H 0.11863 0.65733 0.52114 0.0
H3225 H 0.1429 0.57087 0.44158 0.0
H3226 H 0.12201 0.64131 0.45844 0.0
H3227 H 0.12426 0.58459 0.50241 0.0
C3228 C 0.1198 0.60577 0.52691 0.0
C3229 C 0.11827 0.62633 0.53272 0.0
C3230 C 0.1265 0.62584 0.4548 0.0
C3231 C 0.1247 0.61596 0.49177 0.0
C3232 C 0.13011 0.62059 0.43448 0.0
C3233 C 0.13557 0.60058 0.42937 0.0
C3234 C 0.12854 0.61096 0.47005 0.0
C3235 C 0.13819 0.58633 0.44501 0.0
C3236 C 0.12307 0.60054 0.50652 0.0
C3237 C 0.11984 0.64128 0.51745 0.0
N3238 N 0.13441 0.59173 0.4647 0.0
N3239 N 0.12295 0.63579 0.49768 0.0
H3240 H 0.11495 0.61518 0.211 0.0
H3241 H 0.07844 0.60461 0.32744 0.0
H3242 H 0.05154 0.59988 0.2304 0.0
H3243 H 0.14415 0.60686 0.30969 0.0
H3244 H 0.06839 0.60697 0.2917 0.0
H3245 H 0.12608 0.61553 0.24691 0.0
C3246 C 0.1034 0.61185 0.22273 0.0
C3247 C 0.08229 0.6074 0.21759 0.0
C3248 C 0.08502 0.607 0.2956 0.0
C3249 C 0.09486 0.60803 0.25859 0.0
C3250 C 0.0908 0.60573 0.31606 0.0
C3251 C 0.11221 0.60535 0.32166 0.0
C3252 C 0.10071 0.60796 0.2805 0.0
C3253 C 0.12745 0.60697 0.30612 0.0
C3254 C 0.10976 0.61208 0.2432 0.0
C3255 C 0.06801 0.60327 0.23349 0.0
N3256 N 0.1214 0.60813 0.28623 0.0
N3257 N 0.07455 0.60374 0.25319 0.0
H3258 H 0.13901 0.42458 0.04664 0.0
H3259 H 0.11698 0.33028 0.97166 0.0
H3260 H 0.14039 0.36178 0.06571 0.0
H3261 H 0.13521 0.39011 0.95019 0.0
H3262 H 0.11894 0.34286 0.00676 0.0
H3263 H 0.13186 0.41328 0.01149 0.0
C3264 C 0.13753 0.40843 0.04338 0.0
C3265 C 0.13945 0.39404 0.05901 0.0
C3266 C 0.12244 0.35323 0.99435 0.0
C3267 C 0.13178 0.38104 0.01915 0.0
C3268 C 0.12123 0.34611 0.97432 0.0
C3269 C 0.12616 0.35913 0.958 0.0
C3270 C 0.12853 0.37354 0.99808 0.0
C3271 C 0.13147 0.37951 0.96233 0.0
C3272 C 0.13351 0.40199 0.02341 0.0
C3273 C 0.13813 0.37329 0.0541 0.0
N3274 N 0.13261 0.38608 0.98198 0.0
N3275 N 0.13424 0.36738 0.03459 0.0
H3276 H 0.41248 0.38353 0.82679 0.0
H3277 H 0.37304 0.38068 0.71079 0.0
H3278 H 0.34649 0.38811 0.81061 0.0
H3279 H 0.4368 0.39548 0.72968 0.0
H3280 H 0.36273 0.37877 0.74688 0.0
H3281 H 0.42138 0.38227 0.79069 0.0
C3282 C 0.3998 0.38406 0.81569 0.0
C3283 C 0.37869 0.38613 0.82184 0.0
C3284 C 0.37894 0.38247 0.74301 0.0
C3285 C 0.38888 0.38481 0.78029 0.0
C3286 C 0.38484 0.38359 0.72245 0.0
C3287 C 0.40581 0.38834 0.71711 0.0
C3288 C 0.3942 0.38581 0.75829 0.0
C3289 C 0.42042 0.39189 0.73293 0.0
C3290 C 0.40493 0.38346 0.79503 0.0
C3291 C 0.363 0.38667 0.80662 0.0
N3292 N 0.41436 0.39046 0.75271 0.0
N3293 N 0.36842 0.3861 0.78653 0.0
H3294 H 0.38241 0.67056 0.47253 0.0
H3295 H 0.34524 0.58952 0.55665 0.0
H3296 H 0.35167 0.61347 0.45737 0.0
H3297 H 0.36841 0.6502 0.57031 0.0
H3298 H 0.35132 0.59603 0.52034 0.0
H3299 H 0.38145 0.66119 0.50847 0.0
C3300 C 0.37558 0.65596 0.47675 0.0
C3301 C 0.36694 0.64285 0.46194 0.0
C3302 C 0.35515 0.60785 0.53133 0.0
C3303 C 0.36566 0.63204 0.50318 0.0
C3304 C 0.35173 0.60415 0.55207 0.0
C3305 C 0.35612 0.61941 0.56659 0.0
C3306 C 0.36314 0.62689 0.52508 0.0
C3307 C 0.36455 0.63804 0.55971 0.0
C3308 C 0.375 0.65063 0.4973 0.0
C3309 C 0.35842 0.62407 0.46831 0.0
N3310 N 0.3677 0.64126 0.53949 0.0
N3311 N 0.35786 0.61928 0.4885 0.0
H3312 H 0.17813 0.11013 0.4263 0.0
H3313 H 0.2844 0.14657 0.37275 0.0
H3314 H 0.18403 0.16905 0.39753 0.0
H3315 H 0.27905 0.09404 0.41185 0.0
H3316 H 0.24875 0.15702 0.38335 0.0
H3317 H 0.21604 0.10559 0.423 0.0
C3318 C 0.18748 0.12215 0.41932 0.0
C3319 C 0.17798 0.1399 0.41201 0.0
C3320 C 0.2555 0.14335 0.38978 0.0
C3321 C 0.22142 0.13468 0.4078 0.0
C3322 C 0.27571 0.1374 0.38369 0.0
C3323 C 0.28401 0.11905 0.39087 0.0
C3324 C 0.24393 0.1309 0.40329 0.0
C3325 C 0.27268 0.1079 0.40542 0.0
C3326 C 0.20916 0.11962 0.41751 0.0
C3327 C 0.19083 0.15512 0.40333 0.0
N3328 N 0.25309 0.11385 0.41096 0.0
N3329 N 0.21193 0.15203 0.40115 0.0
H3330 H 0.77071 0.40674 0.60188 0.0
H3331 H 0.6654 0.37635 0.60567 0.0
H3332 H 0.78157 0.35419 0.63969 0.0
H3333 H 0.69282 0.31727 0.59564 0.0
H3334 H 0.70027 0.38956 0.61574 0.0
H3335 H 0.73415 0.39535 0.59663 0.0
C3336 C 0.76516 0.39303 0.60944 0.0
C3337 C 0.77863 0.38188 0.62206 0.0
C3338 C 0.69855 0.37364 0.61167 0.0
C3339 C 0.73742 0.36836 0.61547 0.0
C3340 C 0.67873 0.36612 0.60606 0.0
C3341 C 0.67642 0.34571 0.60018 0.0
C3342 C 0.71599 0.36058 0.61147 0.0
C3343 C 0.69415 0.33308 0.6003 0.0
C3344 C 0.74443 0.38653 0.60639 0.0
C3345 C 0.7713 0.36347 0.63038 0.0
N3346 N 0.71328 0.34069 0.60607 0.0
N3347 N 0.75107 0.35717 0.62688 0.0
H3348 H 0.34041 0.92022 0.36875 0.0
H3349 H 0.37518 0.03781 0.37528 0.0
H3350 H 0.40542 0.93976 0.36222 0.0
H3351 H 0.31134 0.01608 0.36535 0.0
H3352 H 0.38718 0.00221 0.37531 0.0
H3353 H 0.33018 0.9556 0.37305 0.0
C3354 C 0.3526 0.93191 0.36834 0.0
C3355 C 0.37381 0.92692 0.36486 0.0
C3356 C 0.37056 0.00536 0.37316 0.0
C3357 C 0.36209 0.96772 0.36973 0.0
C3358 C 0.36371 0.02563 0.37315 0.0
C3359 C 0.34223 0.03001 0.37015 0.0
C3360 C 0.35578 0.98944 0.37044 0.0
C3361 C 0.32807 0.01358 0.36752 0.0
C3362 C 0.34671 0.95218 0.37075 0.0
C3363 C 0.38886 0.94286 0.3647 0.0
N3364 N 0.33509 0.99413 0.36776 0.0
N3365 N 0.38269 0.96258 0.36698 0.0
H3366 H 0.79742 0.68845 0.0989 0.0
H3367 H 0.71847 0.59848 0.10069 0.0
H3368 H 0.82075 0.62762 0.10821 0.0
H3369 H 0.70531 0.64891 0.14079 0.0
H3370 H 0.75472 0.61128 0.09659 0.0
H3371 H 0.76189 0.67663 0.10892 0.0
C3372 C 0.79503 0.6727 0.10338 0.0
C3373 C 0.81187 0.65899 0.1032 0.0
C3374 C 0.74394 0.61937 0.10648 0.0
C3375 C 0.77164 0.64538 0.1136 0.0
C3376 C 0.72341 0.61207 0.10889 0.0
C3377 C 0.70946 0.62215 0.12191 0.0
C3378 C 0.75019 0.63728 0.11654 0.0
C3379 C 0.716 0.64043 0.13116 0.0
C3380 C 0.77492 0.66603 0.1091 0.0
C3381 C 0.80813 0.63865 0.10863 0.0
N3382 N 0.73605 0.64751 0.12832 0.0
N3383 N 0.78824 0.63232 0.11331 0.0
H3384 H 0.58757 0.56009 0.36069 0.0
H3385 H 0.68578 0.48508 0.35865 0.0
H3386 H 0.65285 0.57984 0.36266 0.0
H3387 H 0.62251 0.46346 0.37152 0.0
H3388 H 0.6731 0.51981 0.35885 0.0
H3389 H 0.59917 0.5247 0.36404 0.0
C3390 C 0.6043 0.55706 0.36198 0.0
C3391 C 0.61925 0.57305 0.36121 0.0
C3392 C 0.66193 0.50754 0.3617 0.0
C3393 C 0.63256 0.53257 0.36487 0.0
C3394 C 0.66914 0.48759 0.36147 0.0
C3395 C 0.65518 0.47119 0.36498 0.0
C3396 C 0.64049 0.51135 0.36527 0.0
C3397 C 0.63384 0.4756 0.36872 0.0
C3398 C 0.61089 0.53683 0.3639 0.0
C3399 C 0.64071 0.56811 0.36304 0.0
N3400 N 0.62709 0.49529 0.36864 0.0
N3401 N 0.64668 0.54836 0.36461 0.0
H3402 H 0.20653 0.84584 0.8695 0.0
H3403 H 0.30875 0.81778 0.90001 0.0
H3404 H 0.21564 0.89693 0.91005 0.0
H3405 H 0.31288 0.88042 0.92009 0.0
H3406 H 0.2706 0.82174 0.89522 0.0
H3407 H 0.24158 0.83324 0.87904 0.0
C3408 C 0.2159 0.85418 0.88063 0.0
C3409 C 0.20881 0.87275 0.88848 0.0
C3410 C 0.27984 0.83463 0.9006 0.0
C3411 C 0.24824 0.85827 0.90013 0.0
C3412 C 0.30158 0.8323 0.90354 0.0
C3413 C 0.314 0.8489 0.91016 0.0
C3414 C 0.27059 0.85366 0.9045 0.0
C3415 C 0.30397 0.86732 0.91463 0.0
C3416 C 0.2358 0.84693 0.88626 0.0
C3417 C 0.22104 0.88289 0.90316 0.0
N3418 N 0.28291 0.86917 0.91172 0.0
N3419 N 0.24029 0.87567 0.9083 0.0
H3420 H 0.3182 0.98309 0.12185 0.0
H3421 H 0.41765 0.05587 0.14336 0.0
H3422 H 0.38022 0.95924 0.13422 0.0
H3423 H 0.35272 0.07492 0.14217 0.0
H3424 H 0.40606 0.02086 0.13491 0.0
H3425 H 0.33271 0.01742 0.12252 0.0
C3426 C 0.33497 0.98509 0.12456 0.0
C3427 C 0.34798 0.96833 0.12832 0.0
C3428 C 0.39442 0.03278 0.13625 0.0
C3429 C 0.36467 0.00778 0.12964 0.0
C3430 C 0.401 0.05264 0.14105 0.0
C3431 C 0.38609 0.06821 0.14265 0.0
C3432 C 0.37279 0.02865 0.13347 0.0
C3433 C 0.3647 0.06339 0.14024 0.0
C3434 C 0.34324 0.00474 0.12501 0.0
C3435 C 0.36966 0.97181 0.13138 0.0
N3436 N 0.35869 0.04405 0.13568 0.0
N3437 N 0.37734 0.99127 0.13231 0.0
H3438 H 0.07221 0.94347 0.6452 0.0
H3439 H 0.17039 0.01619 0.61948 0.0
H3440 H 0.13712 0.92474 0.64121 0.0
H3441 H 0.11093 0.04043 0.63993 0.0
H3442 H 0.15508 0.98217 0.61939 0.0
H3443 H 0.08336 0.97875 0.63727 0.0
C3444 C 0.08874 0.94684 0.6424 0.0
C3445 C 0.10377 0.93129 0.64301 0.0
C3446 C 0.14525 0.99489 0.62378 0.0
C3447 C 0.11653 0.97107 0.63434 0.0
C3448 C 0.15398 0.01435 0.62374 0.0
C3449 C 0.14198 0.03105 0.63004 0.0
C3450 C 0.12446 0.99197 0.63057 0.0
C3451 C 0.12068 0.02784 0.63508 0.0
C3452 C 0.09506 0.96683 0.6379 0.0
C3453 C 0.12503 0.93626 0.64002 0.0
N3454 N 0.11262 0.00851 0.6356 0.0
N3455 N 0.13076 0.95569 0.63568 0.0
loop_
_geom_bond_atom_site_label_1
_geom_bond_atom_site_label_2
_geom_bond_distance
_geom_bond_site_symmetry_2
_ccdc_geom_bond_type
Mn0 O5 2.095 . S
Mn0 O15 2.162 . S
Mn0 O16 2.297 . S
Mn0 O24 2.385 . S
Mn0 O25 2.209 . S
Mn0 O26 2.094 . S
Mn1 O6 2.121 . S
Mn1 N8 2.257 . S
Mn1 N17 2.282 . S
Mn1 O25 2.215 . S
Mn1 O27 2.117 . S
C2 O24 1.234 . S
C2 O25 1.283 . S
C3 O15 1.281 . S
C3 O16 1.236 . S
C4 O26 1.240 . S
C4 O27 1.264 . S
O5 Mn0 2.095 . S
O5 C14 1.250 . S
O6 Mn1 2.121 . S
O6 C14 1.258 . S
C7 N8 1.326 . S
C7 C11 1.460 . S
C7 H13 0.929 . S
N8 Mn1 2.257 . S
N8 C7 1.326 . S
N8 C12 1.362 . S
C9 C10 1.258 . S
C9 C12 1.431 . S
C9 C29 1.449 . S
C10 C9 1.258 . S
C10 C11 1.477 . S
C10 H30 0.931 . S
C11 C7 1.460 . S
C11 C10 1.477 . S
C11 H31 0.930 . S
C12 N8 1.362 . S
C12 C9 1.431 . S
C12 C22 1.476 . S
H13 C7 0.929 . S
C14 O5 1.250 . S
C14 O6 1.258 . S
O15 Mn0 2.162 . S
O15 C3 1.281 . S
O16 Mn0 2.297 . S
O16 C3 1.236 . S
N17 Mn1 2.282 . S
N17 C18 1.328 . S
N17 C22 1.318 . S
C18 N17 1.328 . S
C18 C19 1.457 . S
C18 H23 0.929 . S
C19 C18 1.457 . S
C19 C20 1.291 . S
C19 H32 0.931 . S
C20 C19 1.291 . S
C20 C21 1.373 . S
C20 H33 0.929 . S
C21 C20 1.373 . S
C21 C22 1.396 . S
C21 C28 1.403 . S
C22 C12 1.476 . S
C22 N17 1.318 . S
C22 C21 1.396 . S
H23 C18 0.929 . S
O24 Mn0 2.385 . S
O24 C2 1.234 . S
O25 Mn0 2.209 . S
O25 Mn1 2.215 . S
O25 C2 1.283 . S
O26 Mn0 2.094 . S
O26 C4 1.240 . S
O27 Mn1 2.117 . S
O27 C4 1.264 . S
C28 C21 1.403 . S
C28 C29 1.399 . S
C28 H34 0.929 . S
C29 C9 1.449 . S
C29 C28 1.399 . S
C29 H35 0.930 . S
H30 C10 0.931 . S
H31 C11 0.930 . S
H32 C19 0.931 . S
H33 C20 0.929 . S
H34 C28 0.929 . S
H35 C29 0.930 . S
Mn36 O41 2.095 . S
Mn36 O51 2.162 . S
Mn36 O52 2.297 . S
Mn36 O60 2.385 . S
Mn36 O61 2.209 . S
Mn36 O62 2.094 . S
Mn37 O42 2.121 . S
Mn37 N44 2.257 . S
Mn37 N53 2.282 . S
Mn37 O61 2.215 . S
Mn37 O63 2.117 . S
C38 O60 1.234 . S
C38 O61 1.283 . S
C39 O51 1.281 . S
C39 O52 1.236 . S
C40 O62 1.240 . S
C40 O63 1.264 . S
O41 Mn36 2.095 . S
O41 C50 1.250 . S
O42 Mn37 2.121 . S
O42 C50 1.258 . S
C43 N44 1.326 . S
C43 C47 1.460 . S
C43 H49 0.929 . S
N44 Mn37 2.257 . S
N44 C43 1.326 . S
N44 C48 1.362 . S
C45 C46 1.258 . S
C45 C48 1.431 . S
C45 C65 1.449 . S
C46 C45 1.258 . S
C46 C47 1.477 . S
C46 H66 0.931 . S
C47 C43 1.460 . S
C47 C46 1.477 . S
C47 H67 0.930 . S
C48 N44 1.362 . S
C48 C45 1.431 . S
C48 C58 1.476 . S
H49 C43 0.929 . S
C50 O41 1.250 . S
C50 O42 1.258 . S
O51 Mn36 2.162 . S
O51 C39 1.281 . S
O52 Mn36 2.297 . S
O52 C39 1.236 . S
N53 Mn37 2.282 . S
N53 C54 1.328 . S
N53 C58 1.318 . S
C54 N53 1.328 . S
C54 C55 1.457 . S
C54 H59 0.929 . S
C55 C54 1.457 . S
C55 C56 1.291 . S
C55 H68 0.931 . S
C56 C55 1.291 . S
C56 C57 1.373 . S
C56 H69 0.929 . S
C57 C56 1.373 . S
C57 C58 1.396 . S
C57 C64 1.403 . S
C58 C48 1.476 . S
C58 N53 1.318 . S
C58 C57 1.396 . S
H59 C54 0.929 . S
O60 Mn36 2.385 . S
O60 C38 1.234 . S
O61 Mn36 2.209 . S
O61 Mn37 2.215 . S
O61 C38 1.283 . S
O62 Mn36 2.094 . S
O62 C40 1.240 . S
O63 Mn37 2.117 . S
O63 C40 1.264 . S
C64 C57 1.403 . S
C64 C65 1.399 . S
C64 H70 0.929 . S
C65 C45 1.449 . S
C65 C64 1.399 . S
C65 H71 0.930 . S
H66 C46 0.931 . S
H67 C47 0.930 . S
H68 C55 0.931 . S
H69 C56 0.929 . S
H70 C64 0.929 . S
H71 C65 0.930 . S
Mn72 O77 2.095 . S
Mn72 O87 2.162 . S
Mn72 O88 2.297 . S
Mn72 O96 2.385 . S
Mn72 O97 2.209 . S
Mn72 O98 2.094 . S
Mn73 O78 2.121 . S
Mn73 N80 2.257 . S
Mn73 N89 2.282 . S
Mn73 O97 2.215 . S
Mn73 O99 2.117 . S
C74 O96 1.234 . S
C74 O97 1.283 . S
C75 O87 1.281 . S
C75 O88 1.236 . S
C76 O98 1.240 . S
C76 O99 1.264 . S
O77 Mn72 2.095 . S
O77 C86 1.250 . S
O78 Mn73 2.121 . S
O78 C86 1.258 . S
C79 N80 1.326 . S
C79 C83 1.460 . S
C79 H85 0.929 . S
N80 Mn73 2.257 . S
N80 C79 1.326 . S
N80 C84 1.362 . S
C81 C82 1.258 . S
C81 C84 1.431 . S
C81 C101 1.449 . S
C82 C81 1.258 . S
C82 C83 1.477 . S
C82 H102 0.931 . S
C83 C79 1.460 . S
C83 C82 1.477 . S
C83 H103 0.930 . S
C84 N80 1.362 . S
C84 C81 1.431 . S
C84 C94 1.476 . S
H85 C79 0.929 . S
C86 O77 1.250 . S
C86 O78 1.258 . S
O87 Mn72 2.162 . S
O87 C75 1.281 . S
O88 Mn72 2.297 . S
O88 C75 1.236 . S
N89 Mn73 2.282 . S
N89 C90 1.328 . S
N89 C94 1.318 . S
C90 N89 1.328 . S
C90 C91 1.457 . S
C90 H95 0.929 . S
C91 C90 1.457 . S
C91 C92 1.291 . S
C91 H104 0.931 . S
C92 C91 1.291 . S
C92 C93 1.373 . S
C92 H105 0.929 . S
C93 C92 1.373 . S
C93 C94 1.396 . S
C93 C100 1.403 . S
C94 C84 1.476 . S
C94 N89 1.318 . S
C94 C93 1.396 . S
H95 C90 0.929 . S
O96 Mn72 2.385 . S
O96 C74 1.234 . S
O97 Mn72 2.209 . S
O97 Mn73 2.215 . S
O97 C74 1.283 . S
O98 Mn72 2.094 . S
O98 C76 1.240 . S
O99 Mn73 2.117 . S
O99 C76 1.264 . S
C100 C93 1.403 . S
C100 C101 1.399 . S
C100 H106 0.929 . S
C101 C81 1.449 . S
C101 C100 1.399 . S
C101 H107 0.930 . S
H102 C82 0.931 . S
H103 C83 0.930 . S
H104 C91 0.931 . S
H105 C92 0.929 . S
H106 C100 0.929 . S
H107 C101 0.930 . S
Mn108 O113 2.095 . S
Mn108 O123 2.162 . S
Mn108 O124 2.297 . S
Mn108 O132 2.385 . S
Mn108 O133 2.209 . S
Mn108 O134 2.094 . S
Mn109 O114 2.121 . S
Mn109 N116 2.257 . S
Mn109 N125 2.282 . S
Mn109 O133 2.215 . S
Mn109 O135 2.117 . S
C110 O132 1.234 . S
C110 O133 1.283 . S
C111 O123 1.281 . S
C111 O124 1.236 . S
C112 O134 1.240 . S
C112 O135 1.264 . S
O113 Mn108 2.095 . S
O113 C122 1.250 . S
O114 Mn109 2.121 . S
O114 C122 1.258 . S
C115 N116 1.326 . S
C115 C119 1.460 . S
C115 H121 0.929 . S
N116 Mn109 2.257 . S
N116 C115 1.326 . S
N116 C120 1.362 . S
C117 C118 1.258 . S
C117 C120 1.431 . S
C117 C137 1.449 . S
C118 C117 1.258 . S
C118 C119 1.477 . S
C118 H138 0.931 . S
C119 C115 1.460 . S
C119 C118 1.477 . S
C119 H139 0.930 . S
C120 N116 1.362 . S
C120 C117 1.431 . S
C120 C130 1.476 . S
H121 C115 0.929 . S
C122 O113 1.250 . S
C122 O114 1.258 . S
O123 Mn108 2.162 . S
O123 C111 1.281 . S
O124 Mn108 2.297 . S
O124 C111 1.236 . S
N125 Mn109 2.282 . S
N125 C126 1.328 . S
N125 C130 1.318 . S
C126 N125 1.328 . S
C126 C127 1.457 . S
C126 H131 0.929 . S
C127 C126 1.457 . S
C127 C128 1.291 . S
C127 H140 0.931 . S
C128 C127 1.291 . S
C128 C129 1.373 . S
C128 H141 0.929 . S
C129 C128 1.373 . S
C129 C130 1.396 . S
C129 C136 1.403 . S
C130 C120 1.476 . S
C130 N125 1.318 . S
C130 C129 1.396 . S
H131 C126 0.929 . S
O132 Mn108 2.385 . S
O132 C110 1.234 . S
O133 Mn108 2.209 . S
O133 Mn109 2.215 . S
O133 C110 1.283 . S
O134 Mn108 2.094 . S
O134 C112 1.240 . S
O135 Mn109 2.117 . S
O135 C112 1.264 . S
C136 C129 1.403 . S
C136 C137 1.399 . S
C136 H142 0.929 . S
C137 C117 1.449 . S
C137 C136 1.399 . S
C137 H143 0.930 . S
H138 C118 0.931 . S
H139 C119 0.930 . S
H140 C127 0.931 . S
H141 C128 0.929 . S
H142 C136 0.929 . S
H143 C137 0.930 . S
Mn144 O149 2.095 . S
Mn144 O159 2.162 . S
Mn144 O160 2.297 . S
Mn144 O168 2.385 . S
Mn144 O169 2.209 . S
Mn144 O170 2.094 . S
Mn145 O150 2.121 . S
Mn145 N152 2.257 . S
Mn145 N161 2.282 . S
Mn145 O169 2.215 . S
Mn145 O171 2.117 . S
C146 O168 1.234 . S
C146 O169 1.283 . S
C147 O159 1.281 . S
C147 O160 1.236 . S
C148 O170 1.240 . S
C148 O171 1.264 . S
O149 Mn144 2.095 . S
O149 C158 1.250 . S
O150 Mn145 2.121 . S
O150 C158 1.258 . S
C151 N152 1.326 . S
C151 C155 1.460 . S
C151 H157 0.929 . S
N152 Mn145 2.257 . S
N152 C151 1.326 . S
N152 C156 1.362 . S
C153 C154 1.258 . S
C153 C156 1.431 . S
C153 C173 1.449 . S
C154 C153 1.258 . S
C154 C155 1.477 . S
C154 H174 0.931 . S
C155 C151 1.460 . S
C155 C154 1.477 . S
C155 H175 0.930 . S
C156 N152 1.362 . S
C156 C153 1.431 . S
C156 C166 1.476 . S
H157 C151 0.929 . S
C158 O149 1.250 . S
C158 O150 1.258 . S
O159 Mn144 2.162 . S
O159 C147 1.281 . S
O160 Mn144 2.297 . S
O160 C147 1.236 . S
N161 Mn145 2.282 . S
N161 C162 1.328 . S
N161 C166 1.318 . S
C162 N161 1.328 . S
C162 C163 1.457 . S
C162 H167 0.929 . S
C163 C162 1.457 . S
C163 C164 1.291 . S
C163 H176 0.931 . S
C164 C163 1.291 . S
C164 C165 1.373 . S
C164 H177 0.929 . S
C165 C164 1.373 . S
C165 C166 1.396 . S
C165 C172 1.403 . S
C166 C156 1.476 . S
C166 N161 1.318 . S
C166 C165 1.396 . S
H167 C162 0.929 . S
O168 Mn144 2.385 . S
O168 C146 1.234 . S
O169 Mn144 2.209 . S
O169 Mn145 2.215 . S
O169 C146 1.283 . S
O170 Mn144 2.094 . S
O170 C148 1.240 . S
O171 Mn145 2.117 . S
O171 C148 1.264 . S
C172 C165 1.403 . S
C172 C173 1.399 . S
C172 H178 0.929 . S
C173 C153 1.449 . S
C173 C172 1.399 . S
C173 H179 0.930 . S
H174 C154 0.931 . S
H175 C155 0.930 . S
H176 C163 0.931 . S
H177 C164 0.929 . S
H178 C172 0.929 . S
H179 C173 0.930 . S
Mn180 O185 2.095 . S
Mn180 O195 2.162 . S
Mn180 O196 2.297 . S
Mn180 O204 2.385 . S
Mn180 O205 2.209 . S
Mn180 O206 2.094 . S
Mn181 O186 2.121 . S
Mn181 N188 2.257 . S
Mn181 N197 2.282 . S
Mn181 O205 2.215 . S
Mn181 O207 2.117 . S
C182 O204 1.234 . S
C182 O205 1.283 . S
C183 O195 1.281 . S
C183 O196 1.236 . S
C184 O206 1.240 . S
C184 O207 1.264 . S
O185 Mn180 2.095 . S
O185 C194 1.250 . S
O186 Mn181 2.121 . S
O186 C194 1.258 . S
C187 N188 1.326 . S
C187 C191 1.460 . S
C187 H193 0.929 . S
N188 Mn181 2.257 . S
N188 C187 1.326 . S
N188 C192 1.362 . S
C189 C190 1.258 . S
C189 C192 1.431 . S
C189 C209 1.449 . S
C190 C189 1.258 . S
C190 C191 1.477 . S
C190 H210 0.931 . S
C191 C187 1.460 . S
C191 C190 1.477 . S
C191 H211 0.930 . S
C192 N188 1.362 . S
C192 C189 1.431 . S
C192 C202 1.476 . S
H193 C187 0.929 . S
C194 O185 1.250 . S
C194 O186 1.258 . S
O195 Mn180 2.162 . S
O195 C183 1.281 . S
O196 Mn180 2.297 . S
O196 C183 1.236 . S
N197 Mn181 2.282 . S
N197 C198 1.328 . S
N197 C202 1.318 . S
C198 N197 1.328 . S
C198 C199 1.457 . S
C198 H203 0.929 . S
C199 C198 1.457 . S
C199 C200 1.291 . S
C199 H212 0.931 . S
C200 C199 1.291 . S
C200 C201 1.373 . S
C200 H213 0.929 . S
C201 C200 1.373 . S
C201 C202 1.396 . S
C201 C208 1.403 . S
C202 C192 1.476 . S
C202 N197 1.318 . S
C202 C201 1.396 . S
H203 C198 0.929 . S
O204 Mn180 2.385 . S
O204 C182 1.234 . S
O205 Mn180 2.209 . S
O205 Mn181 2.215 . S
O205 C182 1.283 . S
O206 Mn180 2.094 . S
O206 C184 1.240 . S
O207 Mn181 2.117 . S
O207 C184 1.264 . S
C208 C201 1.403 . S
C208 C209 1.399 . S
C208 H214 0.929 . S
C209 C189 1.449 . S
C209 C208 1.399 . S
C209 H215 0.930 . S
H210 C190 0.931 . S
H211 C191 0.930 . S
H212 C199 0.931 . S
H213 C200 0.929 . S
H214 C208 0.929 . S
H215 C209 0.930 . S
Mn216 O221 2.095 . S
Mn216 O231 2.162 . S
Mn216 O232 2.297 . S
Mn216 O240 2.385 . S
Mn216 O241 2.209 . S
Mn216 O242 2.094 . S
Mn217 O222 2.121 . S
Mn217 N224 2.257 . S
Mn217 N233 2.282 . S
Mn217 O241 2.215 . S
Mn217 O243 2.117 . S
C218 O240 1.234 . S
C218 O241 1.283 . S
C219 O231 1.281 . S
C219 O232 1.236 . S
C220 O242 1.240 . S
C220 O243 1.264 . S
O221 Mn216 2.095 . S
O221 C230 1.250 . S
O222 Mn217 2.121 . S
O222 C230 1.258 . S
C223 N224 1.326 . S
C223 C227 1.460 . S
C223 H229 0.929 . S
N224 Mn217 2.257 . S
N224 C223 1.326 . S
N224 C228 1.362 . S
C225 C226 1.258 . S
C225 C228 1.431 . S
C225 C245 1.449 . S
C226 C225 1.258 . S
C226 C227 1.477 . S
C226 H246 0.931 . S
C227 C223 1.460 . S
C227 C226 1.477 . S
C227 H247 0.930 . S
C228 N224 1.362 . S
C228 C225 1.431 . S
C228 C238 1.476 . S
H229 C223 0.929 . S
C230 O221 1.250 . S
C230 O222 1.258 . S
O231 Mn216 2.162 . S
O231 C219 1.281 . S
O232 Mn216 2.297 . S
O232 C219 1.236 . S
N233 Mn217 2.282 . S
N233 C234 1.328 . S
N233 C238 1.318 . S
C234 N233 1.328 . S
C234 C235 1.457 . S
C234 H239 0.929 . S
C235 C234 1.457 . S
C235 C236 1.291 . S
C235 H248 0.931 . S
C236 C235 1.291 . S
C236 C237 1.373 . S
C236 H249 0.929 . S
C237 C236 1.373 . S
C237 C238 1.396 . S
C237 C244 1.403 . S
C238 C228 1.476 . S
C238 N233 1.318 . S
C238 C237 1.396 . S
H239 C234 0.929 . S
O240 Mn216 2.385 . S
O240 C218 1.234 . S
O241 Mn216 2.209 . S
O241 Mn217 2.215 . S
O241 C218 1.283 . S
O242 Mn216 2.094 . S
O242 C220 1.240 . S
O243 Mn217 2.117 . S
O243 C220 1.264 . S
C244 C237 1.403 . S
C244 C245 1.399 . S
C244 H250 0.929 . S
C245 C225 1.449 . S
C245 C244 1.399 . S
C245 H251 0.930 . S
H246 C226 0.931 . S
H247 C227 0.930 . S
H248 C235 0.931 . S
H249 C236 0.929 . S
H250 C244 0.929 . S
H251 C245 0.930 . S
Mn252 O257 2.095 . S
Mn252 O267 2.162 . S
Mn252 O268 2.297 . S
Mn252 O276 2.385 . S
Mn252 O277 2.209 . S
Mn252 O278 2.094 . S
Mn253 O258 2.121 . S
Mn253 N260 2.257 . S
Mn253 N269 2.282 . S
Mn253 O277 2.215 . S
Mn253 O279 2.117 . S
C254 O276 1.234 . S
C254 O277 1.283 . S
C255 O267 1.281 . S
C255 O268 1.236 . S
C256 O278 1.240 . S
C256 O279 1.264 . S
O257 Mn252 2.095 . S
O257 C266 1.250 . S
O258 Mn253 2.121 . S
O258 C266 1.258 . S
C259 N260 1.326 . S
C259 C263 1.460 . S
C259 H265 0.929 . S
N260 Mn253 2.257 . S
N260 C259 1.326 . S
N260 C264 1.362 . S
C261 C262 1.258 . S
C261 C264 1.431 . S
C261 C281 1.449 . S
C262 C261 1.258 . S
C262 C263 1.477 . S
C262 H282 0.931 . S
C263 C259 1.460 . S
C263 C262 1.477 . S
C263 H283 0.930 . S
C264 N260 1.362 . S
C264 C261 1.431 . S
C264 C274 1.476 . S
H265 C259 0.929 . S
C266 O257 1.250 . S
C266 O258 1.258 . S
O267 Mn252 2.162 . S
O267 C255 1.281 . S
O268 Mn252 2.297 . S
O268 C255 1.236 . S
N269 Mn253 2.282 . S
N269 C270 1.328 . S
N269 C274 1.318 . S
C270 N269 1.328 . S
C270 C271 1.457 . S
C270 H275 0.929 . S
C271 C270 1.457 . S
C271 C272 1.291 . S
C271 H284 0.931 . S
C272 C271 1.291 . S
C272 C273 1.373 . S
C272 H285 0.929 . S
C273 C272 1.373 . S
C273 C274 1.396 . S
C273 C280 1.403 . S
C274 C264 1.476 . S
C274 N269 1.318 . S
C274 C273 1.396 . S
H275 C270 0.929 . S
O276 Mn252 2.385 . S
O276 C254 1.234 . S
O277 Mn252 2.209 . S
O277 Mn253 2.215 . S
O277 C254 1.283 . S
O278 Mn252 2.094 . S
O278 C256 1.240 . S
O279 Mn253 2.117 . S
O279 C256 1.264 . S
C280 C273 1.403 . S
C280 C281 1.399 . S
C280 H286 0.929 . S
C281 C261 1.449 . S
C281 C280 1.399 . S
C281 H287 0.930 . S
H282 C262 0.931 . S
H283 C263 0.930 . S
H284 C271 0.931 . S
H285 C272 0.929 . S
H286 C280 0.929 . S
H287 C281 0.930 . S
Mn288 O293 2.095 . S
Mn288 O303 2.162 . S
Mn288 O304 2.297 . S
Mn288 O312 2.385 . S
Mn288 O313 2.209 . S
Mn288 O314 2.094 . S
Mn289 O294 2.121 . S
Mn289 N296 2.257 . S
Mn289 N305 2.282 . S
Mn289 O313 2.215 . S
Mn289 O315 2.117 . S
C290 O312 1.234 . S
C290 O313 1.283 . S
C291 O303 1.281 . S
C291 O304 1.236 . S
C292 O314 1.240 . S
C292 O315 1.264 . S
O293 Mn288 2.095 . S
O293 C302 1.250 . S
O294 Mn289 2.121 . S
O294 C302 1.258 . S
C295 N296 1.326 . S
C295 C299 1.460 . S
C295 H301 0.929 . S
N296 Mn289 2.257 . S
N296 C295 1.326 . S
N296 C300 1.362 . S
C297 C298 1.258 . S
C297 C300 1.431 . S
C297 C317 1.449 . S
C298 C297 1.258 . S
C298 C299 1.477 . S
C298 H318 0.931 . S
C299 C295 1.460 . S
C299 C298 1.477 . S
C299 H319 0.930 . S
C300 N296 1.362 . S
C300 C297 1.431 . S
C300 C310 1.476 . S
H301 C295 0.929 . S
C302 O293 1.250 . S
C302 O294 1.258 . S
O303 Mn288 2.162 . S
O303 C291 1.281 . S
O304 Mn288 2.297 . S
O304 C291 1.236 . S
N305 Mn289 2.282 . S
N305 C306 1.328 . S
N305 C310 1.318 . S
C306 N305 1.328 . S
C306 C307 1.457 . S
C306 H311 0.929 . S
C307 C306 1.457 . S
C307 C308 1.291 . S
C307 H320 0.931 . S
C308 C307 1.291 . S
C308 C309 1.373 . S
C308 H321 0.929 . S
C309 C308 1.373 . S
C309 C310 1.396 . S
C309 C316 1.403 . S
C310 C300 1.476 . S
C310 N305 1.318 . S
C310 C309 1.396 . S
H311 C306 0.929 . S
O312 Mn288 2.385 . S
O312 C290 1.234 . S
O313 Mn288 2.209 . S
O313 Mn289 2.215 . S
O313 C290 1.283 . S
O314 Mn288 2.094 . S
O314 C292 1.240 . S
O315 Mn289 2.117 . S
O315 C292 1.264 . S
C316 C309 1.403 . S
C316 C317 1.399 . S
C316 H322 0.929 . S
C317 C297 1.449 . S
C317 C316 1.399 . S
C317 H323 0.930 . S
H318 C298 0.931 . S
H319 C299 0.930 . S
H320 C307 0.931 . S
H321 C308 0.929 . S
H322 C316 0.929 . S
H323 C317 0.930 . S
Mn324 O329 2.095 . S
Mn324 O339 2.162 . S
Mn324 O340 2.297 . S
Mn324 O348 2.385 . S
Mn324 O349 2.209 . S
Mn324 O350 2.094 . S
Mn325 O330 2.121 . S
Mn325 N332 2.257 . S
Mn325 N341 2.282 . S
Mn325 O349 2.215 . S
Mn325 O351 2.117 . S
C326 O348 1.234 . S
C326 O349 1.283 . S
C327 O339 1.281 . S
C327 O340 1.236 . S
C328 O350 1.240 . S
C328 O351 1.264 . S
O329 Mn324 2.095 . S
O329 C338 1.250 . S
O330 Mn325 2.121 . S
O330 C338 1.258 . S
C331 N332 1.326 . S
C331 C335 1.460 . S
C331 H337 0.929 . S
N332 Mn325 2.257 . S
N332 C331 1.326 . S
N332 C336 1.362 . S
C333 C334 1.258 . S
C333 C336 1.431 . S
C333 C353 1.449 . S
C334 C333 1.258 . S
C334 C335 1.477 . S
C334 H354 0.931 . S
C335 C331 1.460 . S
C335 C334 1.477 . S
C335 H355 0.930 . S
C336 N332 1.362 . S
C336 C333 1.431 . S
C336 C346 1.476 . S
H337 C331 0.929 . S
C338 O329 1.250 . S
C338 O330 1.258 . S
O339 Mn324 2.162 . S
O339 C327 1.281 . S
O340 Mn324 2.297 . S
O340 C327 1.236 . S
N341 Mn325 2.282 . S
N341 C342 1.328 . S
N341 C346 1.318 . S
C342 N341 1.328 . S
C342 C343 1.457 . S
C342 H347 0.929 . S
C343 C342 1.457 . S
C343 C344 1.291 . S
C343 H356 0.931 . S
C344 C343 1.291 . S
C344 C345 1.373 . S
C344 H357 0.929 . S
C345 C344 1.373 . S
C345 C346 1.396 . S
C345 C352 1.403 . S
C346 C336 1.476 . S
C346 N341 1.318 . S
C346 C345 1.396 . S
H347 C342 0.929 . S
O348 Mn324 2.385 . S
O348 C326 1.234 . S
O349 Mn324 2.209 . S
O349 Mn325 2.215 . S
O349 C326 1.283 . S
O350 Mn324 2.094 . S
O350 C328 1.240 . S
O351 Mn325 2.117 . S
O351 C328 1.264 . S
C352 C345 1.403 . S
C352 C353 1.399 . S
C352 H358 0.929 . S
C353 C333 1.449 . S
C353 C352 1.399 . S
C353 H359 0.930 . S
H354 C334 0.931 . S
H355 C335 0.930 . S
H356 C343 0.931 . S
H357 C344 0.929 . S
H358 C352 0.929 . S
H359 C353 0.930 . S
Mn360 O365 2.095 . S
Mn360 O375 2.162 . S
Mn360 O376 2.297 . S
Mn360 O384 2.385 . S
Mn360 O385 2.209 . S
Mn360 O386 2.094 . S
Mn361 O366 2.121 . S
Mn361 N368 2.257 . S
Mn361 N377 2.282 . S
Mn361 O385 2.215 . S
Mn361 O387 2.117 . S
C362 O384 1.234 . S
C362 O385 1.283 . S
C363 O375 1.281 . S
C363 O376 1.236 . S
C364 O386 1.240 . S
C364 O387 1.264 . S
O365 Mn360 2.095 . S
O365 C374 1.250 . S
O366 Mn361 2.121 . S
O366 C374 1.258 . S
C367 N368 1.326 . S
C367 C371 1.460 . S
C367 H373 0.929 . S
N368 Mn361 2.257 . S
N368 C367 1.326 . S
N368 C372 1.362 . S
C369 C370 1.258 . S
C369 C372 1.431 . S
C369 C389 1.449 . S
C370 C369 1.258 . S
C370 C371 1.477 . S
C370 H390 0.931 . S
C371 C367 1.460 . S
C371 C370 1.477 . S
C371 H391 0.930 . S
C372 N368 1.362 . S
C372 C369 1.431 . S
C372 C382 1.476 . S
H373 C367 0.929 . S
C374 O365 1.250 . S
C374 O366 1.258 . S
O375 Mn360 2.162 . S
O375 C363 1.281 . S
O376 Mn360 2.297 . S
O376 C363 1.236 . S
N377 Mn361 2.282 . S
N377 C378 1.328 . S
N377 C382 1.318 . S
C378 N377 1.328 . S
C378 C379 1.457 . S
C378 H383 0.929 . S
C379 C378 1.457 . S
C379 C380 1.291 . S
C379 H392 0.931 . S
C380 C379 1.291 . S
C380 C381 1.373 . S
C380 H393 0.929 . S
C381 C380 1.373 . S
C381 C382 1.396 . S
C381 C388 1.403 . S
C382 C372 1.476 . S
C382 N377 1.318 . S
C382 C381 1.396 . S
H383 C378 0.929 . S
O384 Mn360 2.385 . S
O384 C362 1.234 . S
O385 Mn360 2.209 . S
O385 Mn361 2.215 . S
O385 C362 1.283 . S
O386 Mn360 2.094 . S
O386 C364 1.240 . S
O387 Mn361 2.117 . S
O387 C364 1.264 . S
C388 C381 1.403 . S
C388 C389 1.399 . S
C388 H394 0.929 . S
C389 C369 1.449 . S
C389 C388 1.399 . S
C389 H395 0.930 . S
H390 C370 0.931 . S
H391 C371 0.930 . S
H392 C379 0.931 . S
H393 C380 0.929 . S
H394 C388 0.929 . S
H395 C389 0.930 . S
Mn396 O401 2.095 . S
Mn396 O411 2.162 . S
Mn396 O412 2.297 . S
Mn396 O420 2.385 . S
Mn396 O421 2.209 . S
Mn396 O422 2.094 . S
Mn397 O402 2.121 . S
Mn397 N404 2.257 . S
Mn397 N413 2.282 . S
Mn397 O421 2.215 . S
Mn397 O423 2.117 . S
C398 O420 1.234 . S
C398 O421 1.283 . S
C399 O411 1.281 . S
C399 O412 1.236 . S
C400 O422 1.240 . S
C400 O423 1.264 . S
O401 Mn396 2.095 . S
O401 C410 1.250 . S
O402 Mn397 2.121 . S
O402 C410 1.258 . S
C403 N404 1.326 . S
C403 C407 1.460 . S
C403 H409 0.929 . S
N404 Mn397 2.257 . S
N404 C403 1.326 . S
N404 C408 1.362 . S
C405 C406 1.258 . S
C405 C408 1.431 . S
C405 C425 1.449 . S
C406 C405 1.258 . S
C406 C407 1.477 . S
C406 H426 0.931 . S
C407 C403 1.460 . S
C407 C406 1.477 . S
C407 H427 0.930 . S
C408 N404 1.362 . S
C408 C405 1.431 . S
C408 C418 1.476 . S
H409 C403 0.929 . S
C410 O401 1.250 . S
C410 O402 1.258 . S
O411 Mn396 2.162 . S
O411 C399 1.281 . S
O412 Mn396 2.297 . S
O412 C399 1.236 . S
N413 Mn397 2.282 . S
N413 C414 1.328 . S
N413 C418 1.318 . S
C414 N413 1.328 . S
C414 C415 1.457 . S
C414 H419 0.929 . S
C415 C414 1.457 . S
C415 C416 1.291 . S
C415 H428 0.931 . S
C416 C415 1.291 . S
C416 C417 1.373 . S
C416 H429 0.929 . S
C417 C416 1.373 . S
C417 C418 1.396 . S
C417 C424 1.403 . S
C418 C408 1.476 . S
C418 N413 1.318 . S
C418 C417 1.396 . S
H419 C414 0.929 . S
O420 Mn396 2.385 . S
O420 C398 1.234 . S
O421 Mn396 2.209 . S
O421 Mn397 2.215 . S
O421 C398 1.283 . S
O422 Mn396 2.094 . S
O422 C400 1.240 . S
O423 Mn397 2.117 . S
O423 C400 1.264 . S
C424 C417 1.403 . S
C424 C425 1.399 . S
C424 H430 0.929 . S
C425 C405 1.449 . S
C425 C424 1.399 . S
C425 H431 0.930 . S
H426 C406 0.931 . S
H427 C407 0.930 . S
H428 C415 0.931 . S
H429 C416 0.929 . S
H430 C424 0.929 . S
H431 C425 0.930 . S
Mn432 O437 2.095 . S
Mn432 O447 2.162 . S
Mn432 O448 2.297 . S
Mn432 O456 2.385 . S
Mn432 O457 2.209 . S
Mn432 O458 2.094 . S
Mn433 O438 2.121 . S
Mn433 N440 2.257 . S
Mn433 N449 2.282 . S
Mn433 O457 2.215 . S
Mn433 O459 2.117 . S
C434 O456 1.234 . S
C434 O457 1.283 . S
C435 O447 1.281 . S
C435 O448 1.236 . S
C436 O458 1.240 . S
C436 O459 1.264 . S
O437 Mn432 2.095 . S
O437 C446 1.250 . S
O438 Mn433 2.121 . S
O438 C446 1.258 . S
C439 N440 1.326 . S
C439 C443 1.460 . S
C439 H445 0.929 . S
N440 Mn433 2.257 . S
N440 C439 1.326 . S
N440 C444 1.362 . S
C441 C442 1.258 . S
C441 C444 1.431 . S
C441 C461 1.449 . S
C442 C441 1.258 . S
C442 C443 1.477 . S
C442 H462 0.931 . S
C443 C439 1.460 . S
C443 C442 1.477 . S
C443 H463 0.930 . S
C444 N440 1.362 . S
C444 C441 1.431 . S
C444 C454 1.476 . S
H445 C439 0.929 . S
C446 O437 1.250 . S
C446 O438 1.258 . S
O447 Mn432 2.162 . S
O447 C435 1.281 . S
O448 Mn432 2.297 . S
O448 C435 1.236 . S
N449 Mn433 2.282 . S
N449 C450 1.328 . S
N449 C454 1.318 . S
C450 N449 1.328 . S
C450 C451 1.457 . S
C450 H455 0.929 . S
C451 C450 1.457 . S
C451 C452 1.291 . S
C451 H464 0.931 . S
C452 C451 1.291 . S
C452 C453 1.373 . S
C452 H465 0.929 . S
C453 C452 1.373 . S
C453 C454 1.396 . S
C453 C460 1.403 . S
C454 C444 1.476 . S
C454 N449 1.318 . S
C454 C453 1.396 . S
H455 C450 0.929 . S
O456 Mn432 2.385 . S
O456 C434 1.234 . S
O457 Mn432 2.209 . S
O457 Mn433 2.215 . S
O457 C434 1.283 . S
O458 Mn432 2.094 . S
O458 C436 1.240 . S
O459 Mn433 2.117 . S
O459 C436 1.264 . S
C460 C453 1.403 . S
C460 C461 1.399 . S
C460 H466 0.929 . S
C461 C441 1.449 . S
C461 C460 1.399 . S
C461 H467 0.930 . S
H462 C442 0.931 . S
H463 C443 0.930 . S
H464 C451 0.931 . S
H465 C452 0.929 . S
H466 C460 0.929 . S
H467 C461 0.930 . S
Mn468 O473 2.095 . S
Mn468 O483 2.162 . S
Mn468 O484 2.297 . S
Mn468 O492 2.385 . S
Mn468 O493 2.209 . S
Mn468 O494 2.094 . S
Mn469 O474 2.121 . S
Mn469 N476 2.257 . S
Mn469 N485 2.282 . S
Mn469 O493 2.215 . S
Mn469 O495 2.117 . S
C470 O492 1.234 . S
C470 O493 1.283 . S
C471 O483 1.281 . S
C471 O484 1.236 . S
C472 O494 1.240 . S
C472 O495 1.264 . S
O473 Mn468 2.095 . S
O473 C482 1.250 . S
O474 Mn469 2.121 . S
O474 C482 1.258 . S
C475 N476 1.326 . S
C475 C479 1.460 . S
C475 H481 0.929 . S
N476 Mn469 2.257 . S
N476 C475 1.326 . S
N476 C480 1.362 . S
C477 C478 1.258 . S
C477 C480 1.431 . S
C477 C497 1.449 . S
C478 C477 1.258 . S
C478 C479 1.477 . S
C478 H498 0.931 . S
C479 C475 1.460 . S
C479 C478 1.477 . S
C479 H499 0.930 . S
C480 N476 1.362 . S
C480 C477 1.431 . S
C480 C490 1.476 . S
H481 C475 0.929 . S
C482 O473 1.250 . S
C482 O474 1.258 . S
O483 Mn468 2.162 . S
O483 C471 1.281 . S
O484 Mn468 2.297 . S
O484 C471 1.236 . S
N485 Mn469 2.282 . S
N485 C486 1.328 . S
N485 C490 1.318 . S
C486 N485 1.328 . S
C486 C487 1.457 . S
C486 H491 0.929 . S
C487 C486 1.457 . S
C487 C488 1.291 . S
C487 H500 0.931 . S
C488 C487 1.291 . S
C488 C489 1.373 . S
C488 H501 0.929 . S
C489 C488 1.373 . S
C489 C490 1.396 . S
C489 C496 1.403 . S
C490 C480 1.476 . S
C490 N485 1.318 . S
C490 C489 1.396 . S
H491 C486 0.929 . S
O492 Mn468 2.385 . S
O492 C470 1.234 . S
O493 Mn468 2.209 . S
O493 Mn469 2.215 . S
O493 C470 1.283 . S
O494 Mn468 2.094 . S
O494 C472 1.240 . S
O495 Mn469 2.117 . S
O495 C472 1.264 . S
C496 C489 1.403 . S
C496 C497 1.399 . S
C496 H502 0.929 . S
C497 C477 1.449 . S
C497 C496 1.399 . S
C497 H503 0.930 . S
H498 C478 0.931 . S
H499 C479 0.930 . S
H500 C487 0.931 . S
H501 C488 0.929 . S
H502 C496 0.929 . S
H503 C497 0.930 . S
Mn504 O509 2.095 . S
Mn504 O519 2.162 . S
Mn504 O520 2.297 . S
Mn504 O528 2.385 . S
Mn504 O529 2.209 . S
Mn504 O530 2.094 . S
Mn505 O510 2.121 . S
Mn505 N512 2.257 . S
Mn505 N521 2.282 . S
Mn505 O529 2.215 . S
Mn505 O531 2.117 . S
C506 O528 1.234 . S
C506 O529 1.283 . S
C507 O519 1.281 . S
C507 O520 1.236 . S
C508 O530 1.240 . S
C508 O531 1.264 . S
O509 Mn504 2.095 . S
O509 C518 1.250 . S
O510 Mn505 2.121 . S
O510 C518 1.258 . S
C511 N512 1.326 . S
C511 C515 1.460 . S
C511 H517 0.929 . S
N512 Mn505 2.257 . S
N512 C511 1.326 . S
N512 C516 1.362 . S
C513 C514 1.258 . S
C513 C516 1.431 . S
C513 C533 1.449 . S
C514 C513 1.258 . S
C514 C515 1.477 . S
C514 H534 0.931 . S
C515 C511 1.460 . S
C515 C514 1.477 . S
C515 H535 0.930 . S
C516 N512 1.362 . S
C516 C513 1.431 . S
C516 C526 1.476 . S
H517 C511 0.929 . S
C518 O509 1.250 . S
C518 O510 1.258 . S
O519 Mn504 2.162 . S
O519 C507 1.281 . S
O520 Mn504 2.297 . S
O520 C507 1.236 . S
N521 Mn505 2.282 . S
N521 C522 1.328 . S
N521 C526 1.318 . S
C522 N521 1.328 . S
C522 C523 1.457 . S
C522 H527 0.929 . S
C523 C522 1.457 . S
C523 C524 1.291 . S
C523 H536 0.931 . S
C524 C523 1.291 . S
C524 C525 1.373 . S
C524 H537 0.929 . S
C525 C524 1.373 . S
C525 C526 1.396 . S
C525 C532 1.403 . S
C526 C516 1.476 . S
C526 N521 1.318 . S
C526 C525 1.396 . S
H527 C522 0.929 . S
O528 Mn504 2.385 . S
O528 C506 1.234 . S
O529 Mn504 2.209 . S
O529 Mn505 2.215 . S
O529 C506 1.283 . S
O530 Mn504 2.094 . S
O530 C508 1.240 . S
O531 Mn505 2.117 . S
O531 C508 1.264 . S
C532 C525 1.403 . S
C532 C533 1.399 . S
C532 H538 0.929 . S
C533 C513 1.449 . S
C533 C532 1.399 . S
C533 H539 0.930 . S
H534 C514 0.931 . S
H535 C515 0.930 . S
H536 C523 0.931 . S
H537 C524 0.929 . S
H538 C532 0.929 . S
H539 C533 0.930 . S
Mn540 O545 2.095 . S
Mn540 O555 2.162 . S
Mn540 O556 2.297 . S
Mn540 O564 2.385 . S
Mn540 O565 2.209 . S
Mn540 O566 2.094 . S
Mn541 O546 2.121 . S
Mn541 N548 2.257 . S
Mn541 N557 2.282 . S
Mn541 O565 2.215 . S
Mn541 O567 2.117 . S
C542 O564 1.234 . S
C542 O565 1.283 . S
C543 O555 1.281 . S
C543 O556 1.236 . S
C544 O566 1.240 . S
C544 O567 1.264 . S
O545 Mn540 2.095 . S
O545 C554 1.250 . S
O546 Mn541 2.121 . S
O546 C554 1.258 . S
C547 N548 1.326 . S
C547 C551 1.460 . S
C547 H553 0.929 . S
N548 Mn541 2.257 . S
N548 C547 1.326 . S
N548 C552 1.362 . S
C549 C550 1.258 . S
C549 C552 1.431 . S
C549 C569 1.449 . S
C550 C549 1.258 . S
C550 C551 1.477 . S
C550 H570 0.931 . S
C551 C547 1.460 . S
C551 C550 1.477 . S
C551 H571 0.930 . S
C552 N548 1.362 . S
C552 C549 1.431 . S
C552 C562 1.476 . S
H553 C547 0.929 . S
C554 O545 1.250 . S
C554 O546 1.258 . S
O555 Mn540 2.162 . S
O555 C543 1.281 . S
O556 Mn540 2.297 . S
O556 C543 1.236 . S
N557 Mn541 2.282 . S
N557 C558 1.328 . S
N557 C562 1.318 . S
C558 N557 1.328 . S
C558 C559 1.457 . S
C558 H563 0.929 . S
C559 C558 1.457 . S
C559 C560 1.291 . S
C559 H572 0.931 . S
C560 C559 1.291 . S
C560 C561 1.373 . S
C560 H573 0.929 . S
C561 C560 1.373 . S
C561 C562 1.396 . S
C561 C568 1.403 . S
C562 C552 1.476 . S
C562 N557 1.318 . S
C562 C561 1.396 . S
H563 C558 0.929 . S
O564 Mn540 2.385 . S
O564 C542 1.234 . S
O565 Mn540 2.209 . S
O565 Mn541 2.215 . S
O565 C542 1.283 . S
O566 Mn540 2.094 . S
O566 C544 1.240 . S
O567 Mn541 2.117 . S
O567 C544 1.264 . S
C568 C561 1.403 . S
C568 C569 1.399 . S
C568 H574 0.929 . S
C569 C549 1.449 . S
C569 C568 1.399 . S
C569 H575 0.930 . S
H570 C550 0.931 . S
H571 C551 0.930 . S
H572 C559 0.931 . S
H573 C560 0.929 . S
H574 C568 0.929 . S
H575 C569 0.930 . S
Mn576 O581 2.095 . S
Mn576 O591 2.162 . S
Mn576 O592 2.297 . S
Mn576 O600 2.385 . S
Mn576 O601 2.209 . S
Mn576 O602 2.094 . S
Mn577 O582 2.121 . S
Mn577 N584 2.257 . S
Mn577 N593 2.282 . S
Mn577 O601 2.215 . S
Mn577 O603 2.117 . S
C578 O600 1.234 . S
C578 O601 1.283 . S
C579 O591 1.281 . S
C579 O592 1.236 . S
C580 O602 1.240 . S
C580 O603 1.264 . S
O581 Mn576 2.095 . S
O581 C590 1.250 . S
O582 Mn577 2.121 . S
O582 C590 1.258 . S
C583 N584 1.326 . S
C583 C587 1.460 . S
C583 H589 0.929 . S
N584 Mn577 2.257 . S
N584 C583 1.326 . S
N584 C588 1.362 . S
C585 C586 1.258 . S
C585 C588 1.431 1_455 S
C585 C605 1.449 . S
C586 C585 1.258 . S
C586 C587 1.477 1_455 S
C586 H606 0.931 . S
C587 C583 1.460 . S
C587 C586 1.477 1_655 S
C587 H607 0.930 . S
C588 N584 1.362 . S
C588 C585 1.431 1_655 S
C588 C598 1.476 . S
H589 C583 0.929 . S
C590 O581 1.250 . S
C590 O582 1.258 . S
O591 Mn576 2.162 . S
O591 C579 1.281 . S
O592 Mn576 2.297 . S
O592 C579 1.236 . S
N593 Mn577 2.282 . S
N593 C594 1.328 . S
N593 C598 1.318 . S
C594 N593 1.328 . S
C594 C595 1.457 . S
C594 H599 0.929 . S
C595 C594 1.457 . S
C595 C596 1.291 . S
C595 H608 0.931 . S
C596 C595 1.291 . S
C596 C597 1.373 . S
C596 H609 0.929 1_655 S
C597 C596 1.373 . S
C597 C598 1.396 . S
C597 C604 1.403 1_655 S
C598 C588 1.476 . S
C598 N593 1.318 . S
C598 C597 1.396 . S
H599 C594 0.929 . S
O600 Mn576 2.385 . S
O600 C578 1.234 . S
O601 Mn576 2.209 . S
O601 Mn577 2.215 . S
O601 C578 1.283 . S
O602 Mn576 2.094 . S
O602 C580 1.240 . S
O603 Mn577 2.117 . S
O603 C580 1.264 . S
C604 C597 1.403 1_455 S
C604 C605 1.399 . S
C604 H610 0.929 . S
C605 C585 1.449 . S
C605 C604 1.399 . S
C605 H611 0.930 . S
H606 C586 0.931 . S
H607 C587 0.930 . S
H608 C595 0.931 . S
H609 C596 0.929 1_455 S
H610 C604 0.929 . S
H611 C605 0.930 . S
Mn612 O617 2.095 . S
Mn612 O627 2.162 . S
Mn612 O628 2.297 . S
Mn612 O636 2.385 . S
Mn612 O637 2.209 . S
Mn612 O638 2.094 . S
Mn613 O618 2.121 . S
Mn613 N620 2.257 . S
Mn613 N629 2.282 . S
Mn613 O637 2.215 . S
Mn613 O639 2.117 . S
C614 O636 1.234 . S
C614 O637 1.283 . S
C615 O627 1.281 . S
C615 O628 1.236 . S
C616 O638 1.240 . S
C616 O639 1.264 . S
O617 Mn612 2.095 . S
O617 C626 1.250 . S
O618 Mn613 2.121 . S
O618 C626 1.258 . S
C619 N620 1.326 . S
C619 C623 1.460 . S
C619 H625 0.929 . S
N620 Mn613 2.257 . S
N620 C619 1.326 . S
N620 C624 1.362 . S
C621 C622 1.258 . S
C621 C624 1.431 . S
C621 C641 1.449 . S
C622 C621 1.258 . S
C622 C623 1.477 . S
C622 H642 0.931 . S
C623 C619 1.460 . S
C623 C622 1.477 . S
C623 H643 0.930 . S
C624 N620 1.362 . S
C624 C621 1.431 . S
C624 C634 1.476 . S
H625 C619 0.929 . S
C626 O617 1.250 . S
C626 O618 1.258 . S
O627 Mn612 2.162 . S
O627 C615 1.281 . S
O628 Mn612 2.297 . S
O628 C615 1.236 . S
N629 Mn613 2.282 . S
N629 C630 1.328 . S
N629 C634 1.318 . S
C630 N629 1.328 . S
C630 C631 1.457 . S
C630 H635 0.929 . S
C631 C630 1.457 . S
C631 C632 1.291 . S
C631 H644 0.931 . S
C632 C631 1.291 . S
C632 C633 1.373 . S
C632 H645 0.929 . S
C633 C632 1.373 . S
C633 C634 1.396 . S
C633 C640 1.403 . S
C634 C624 1.476 . S
C634 N629 1.318 . S
C634 C633 1.396 . S
H635 C630 0.929 . S
O636 Mn612 2.385 . S
O636 C614 1.234 . S
O637 Mn612 2.209 . S
O637 Mn613 2.215 . S
O637 C614 1.283 . S
O638 Mn612 2.094 . S
O638 C616 1.240 . S
O639 Mn613 2.117 . S
O639 C616 1.264 . S
C640 C633 1.403 . S
C640 C641 1.399 . S
C640 H646 0.929 . S
C641 C621 1.449 . S
C641 C640 1.399 . S
C641 H647 0.930 . S
H642 C622 0.931 . S
H643 C623 0.930 . S
H644 C631 0.931 . S
H645 C632 0.929 . S
H646 C640 0.929 . S
H647 C641 0.930 . S
Mn648 O653 2.095 . S
Mn648 O663 2.162 . S
Mn648 O664 2.297 . S
Mn648 O672 2.385 . S
Mn648 O673 2.209 . S
Mn648 O674 2.094 . S
Mn649 O654 2.121 . S
Mn649 N656 2.257 . S
Mn649 N665 2.282 . S
Mn649 O673 2.215 . S
Mn649 O675 2.117 . S
C650 O672 1.234 . S
C650 O673 1.283 . S
C651 O663 1.281 . S
C651 O664 1.236 . S
C652 O674 1.240 . S
C652 O675 1.264 . S
O653 Mn648 2.095 . S
O653 C662 1.250 . S
O654 Mn649 2.121 . S
O654 C662 1.258 . S
C655 N656 1.326 . S
C655 C659 1.460 . S
C655 H661 0.929 . S
N656 Mn649 2.257 . S
N656 C655 1.326 . S
N656 C660 1.362 . S
C657 C658 1.258 . S
C657 C660 1.431 . S
C657 C677 1.449 . S
C658 C657 1.258 . S
C658 C659 1.477 . S
C658 H678 0.931 . S
C659 C655 1.460 . S
C659 C658 1.477 . S
C659 H679 0.930 . S
C660 N656 1.362 . S
C660 C657 1.431 . S
C660 C670 1.476 . S
H661 C655 0.929 . S
C662 O653 1.250 . S
C662 O654 1.258 . S
O663 Mn648 2.162 . S
O663 C651 1.281 . S
O664 Mn648 2.297 . S
O664 C651 1.236 . S
N665 Mn649 2.282 . S
N665 C666 1.328 . S
N665 C670 1.318 . S
C666 N665 1.328 . S
C666 C667 1.457 . S
C666 H671 0.929 . S
C667 C666 1.457 . S
C667 C668 1.291 . S
C667 H680 0.931 . S
C668 C667 1.291 . S
C668 C669 1.373 . S
C668 H681 0.929 . S
C669 C668 1.373 . S
C669 C670 1.396 . S
C669 C676 1.403 . S
C670 C660 1.476 . S
C670 N665 1.318 . S
C670 C669 1.396 . S
H671 C666 0.929 . S
O672 Mn648 2.385 . S
O672 C650 1.234 . S
O673 Mn648 2.209 . S
O673 Mn649 2.215 . S
O673 C650 1.283 . S
O674 Mn648 2.094 . S
O674 C652 1.240 . S
O675 Mn649 2.117 . S
O675 C652 1.264 . S
C676 C669 1.403 . S
C676 C677 1.399 . S
C676 H682 0.929 . S
C677 C657 1.449 . S
C677 C676 1.399 . S
C677 H683 0.930 . S
H678 C658 0.931 . S
H679 C659 0.930 . S
H680 C667 0.931 . S
H681 C668 0.929 . S
H682 C676 0.929 . S
H683 C677 0.930 . S
Mn684 O689 2.095 . S
Mn684 O699 2.162 . S
Mn684 O700 2.297 . S
Mn684 O708 2.385 . S
Mn684 O709 2.209 . S
Mn684 O710 2.094 . S
Mn685 O690 2.121 . S
Mn685 N692 2.257 . S
Mn685 N701 2.282 . S
Mn685 O709 2.215 . S
Mn685 O711 2.117 . S
C686 O708 1.234 . S
C686 O709 1.283 . S
C687 O699 1.281 . S
C687 O700 1.236 . S
C688 O710 1.240 . S
C688 O711 1.264 . S
O689 Mn684 2.095 . S
O689 C698 1.250 . S
O690 Mn685 2.121 . S
O690 C698 1.258 . S
C691 N692 1.326 . S
C691 C695 1.460 . S
C691 H697 0.929 . S
N692 Mn685 2.257 . S
N692 C691 1.326 . S
N692 C696 1.362 . S
C693 C694 1.258 . S
C693 C696 1.431 . S
C693 C713 1.449 . S
C694 C693 1.258 . S
C694 C695 1.477 . S
C694 H714 0.931 . S
C695 C691 1.460 . S
C695 C694 1.477 . S
C695 H715 0.930 . S
C696 N692 1.362 . S
C696 C693 1.431 . S
C696 C706 1.476 . S
H697 C691 0.929 . S
C698 O689 1.250 . S
C698 O690 1.258 . S
O699 Mn684 2.162 . S
O699 C687 1.281 . S
O700 Mn684 2.297 . S
O700 C687 1.236 . S
N701 Mn685 2.282 . S
N701 C702 1.328 . S
N701 C706 1.318 . S
C702 N701 1.328 . S
C702 C703 1.457 . S
C702 H707 0.929 . S
C703 C702 1.457 . S
C703 C704 1.291 . S
C703 H716 0.931 . S
C704 C703 1.291 . S
C704 C705 1.373 . S
C704 H717 0.929 . S
C705 C704 1.373 . S
C705 C706 1.396 . S
C705 C712 1.403 . S
C706 C696 1.476 . S
C706 N701 1.318 . S
C706 C705 1.396 . S
H707 C702 0.929 . S
O708 Mn684 2.385 . S
O708 C686 1.234 . S
O709 Mn684 2.209 . S
O709 Mn685 2.215 . S
O709 C686 1.283 . S
O710 Mn684 2.094 . S
O710 C688 1.240 . S
O711 Mn685 2.117 . S
O711 C688 1.264 . S
C712 C705 1.403 . S
C712 C713 1.399 . S
C712 H718 0.929 . S
C713 C693 1.449 . S
C713 C712 1.399 . S
C713 H719 0.930 . S
H714 C694 0.931 . S
H715 C695 0.930 . S
H716 C703 0.931 . S
H717 C704 0.929 . S
H718 C712 0.929 . S
H719 C713 0.930 . S
Mn720 O725 2.095 . S
Mn720 O735 2.162 . S
Mn720 O736 2.297 . S
Mn720 O744 2.385 . S
Mn720 O745 2.209 . S
Mn720 O746 2.094 . S
Mn721 O726 2.121 . S
Mn721 N728 2.257 . S
Mn721 N737 2.282 . S
Mn721 O745 2.215 . S
Mn721 O747 2.117 . S
C722 O744 1.234 . S
C722 O745 1.283 . S
C723 O735 1.281 . S
C723 O736 1.236 . S
C724 O746 1.240 . S
C724 O747 1.264 . S
O725 Mn720 2.095 . S
O725 C734 1.250 . S
O726 Mn721 2.121 . S
O726 C734 1.258 . S
C727 N728 1.326 . S
C727 C731 1.460 . S
C727 H733 0.929 . S
N728 Mn721 2.257 . S
N728 C727 1.326 . S
N728 C732 1.362 . S
C729 C730 1.258 . S
C729 C732 1.431 . S
C729 C749 1.449 . S
C730 C729 1.258 . S
C730 C731 1.477 . S
C730 H750 0.931 . S
C731 C727 1.460 . S
C731 C730 1.477 . S
C731 H751 0.930 . S
C732 N728 1.362 . S
C732 C729 1.431 . S
C732 C742 1.476 . S
H733 C727 0.929 . S
C734 O725 1.250 . S
C734 O726 1.258 . S
O735 Mn720 2.162 . S
O735 C723 1.281 . S
O736 Mn720 2.297 . S
O736 C723 1.236 . S
N737 Mn721 2.282 . S
N737 C738 1.328 . S
N737 C742 1.318 . S
C738 N737 1.328 . S
C738 C739 1.457 . S
C738 H743 0.929 . S
C739 C738 1.457 . S
C739 C740 1.291 . S
C739 H752 0.931 . S
C740 C739 1.291 . S
C740 C741 1.373 . S
C740 H753 0.929 . S
C741 C740 1.373 . S
C741 C742 1.396 . S
C741 C748 1.403 . S
C742 C732 1.476 . S
C742 N737 1.318 . S
C742 C741 1.396 . S
H743 C738 0.929 . S
O744 Mn720 2.385 . S
O744 C722 1.234 . S
O745 Mn720 2.209 . S
O745 Mn721 2.215 . S
O745 C722 1.283 . S
O746 Mn720 2.094 . S
O746 C724 1.240 . S
O747 Mn721 2.117 . S
O747 C724 1.264 . S
C748 C741 1.403 . S
C748 C749 1.399 . S
C748 H754 0.929 . S
C749 C729 1.449 . S
C749 C748 1.399 . S
C749 H755 0.930 . S
H750 C730 0.931 . S
H751 C731 0.930 . S
H752 C739 0.931 . S
H753 C740 0.929 . S
H754 C748 0.929 . S
H755 C749 0.930 . S
Mn756 O761 2.095 . S
Mn756 O771 2.162 . S
Mn756 O772 2.297 . S
Mn756 O780 2.385 . S
Mn756 O781 2.209 . S
Mn756 O782 2.094 . S
Mn757 O762 2.121 . S
Mn757 N764 2.257 . S
Mn757 N773 2.282 . S
Mn757 O781 2.215 . S
Mn757 O783 2.117 . S
C758 O780 1.234 . S
C758 O781 1.283 . S
C759 O771 1.281 . S
C759 O772 1.236 . S
C760 O782 1.240 . S
C760 O783 1.264 . S
O761 Mn756 2.095 . S
O761 C770 1.250 . S
O762 Mn757 2.121 . S
O762 C770 1.258 . S
C763 N764 1.326 . S
C763 C767 1.460 . S
C763 H769 0.929 . S
N764 Mn757 2.257 . S
N764 C763 1.326 . S
N764 C768 1.362 . S
C765 C766 1.258 . S
C765 C768 1.431 . S
C765 C785 1.449 . S
C766 C765 1.258 . S
C766 C767 1.477 . S
C766 H786 0.931 . S
C767 C763 1.460 . S
C767 C766 1.477 . S
C767 H787 0.930 . S
C768 N764 1.362 . S
C768 C765 1.431 . S
C768 C778 1.476 . S
H769 C763 0.929 . S
C770 O761 1.250 . S
C770 O762 1.258 . S
O771 Mn756 2.162 . S
O771 C759 1.281 . S
O772 Mn756 2.297 . S
O772 C759 1.236 . S
N773 Mn757 2.282 . S
N773 C774 1.328 . S
N773 C778 1.318 . S
C774 N773 1.328 . S
C774 C775 1.457 . S
C774 H779 0.929 . S
C775 C774 1.457 . S
C775 C776 1.291 . S
C775 H788 0.931 . S
C776 C775 1.291 . S
C776 C777 1.373 . S
C776 H789 0.929 . S
C777 C776 1.373 . S
C777 C778 1.396 . S
C777 C784 1.403 . S
C778 C768 1.476 . S
C778 N773 1.318 . S
C778 C777 1.396 . S
H779 C774 0.929 . S
O780 Mn756 2.385 . S
O780 C758 1.234 . S
O781 Mn756 2.209 . S
O781 Mn757 2.215 . S
O781 C758 1.283 . S
O782 Mn756 2.094 . S
O782 C760 1.240 . S
O783 Mn757 2.117 . S
O783 C760 1.264 . S
C784 C777 1.403 . S
C784 C785 1.399 . S
C784 H790 0.929 . S
C785 C765 1.449 . S
C785 C784 1.399 . S
C785 H791 0.930 . S
H786 C766 0.931 . S
H787 C767 0.930 . S
H788 C775 0.931 . S
H789 C776 0.929 . S
H790 C784 0.929 . S
H791 C785 0.930 . S
Mn792 O797 2.095 . S
Mn792 O807 2.162 . S
Mn792 O808 2.297 . S
Mn792 O816 2.385 . S
Mn792 O817 2.209 . S
Mn792 O818 2.094 . S
Mn793 O798 2.121 . S
Mn793 N800 2.257 . S
Mn793 N809 2.282 . S
Mn793 O817 2.215 . S
Mn793 O819 2.117 . S
C794 O816 1.234 . S
C794 O817 1.283 . S
C795 O807 1.281 . S
C795 O808 1.236 . S
C796 O818 1.240 . S
C796 O819 1.264 . S
O797 Mn792 2.095 . S
O797 C806 1.250 . S
O798 Mn793 2.121 . S
O798 C806 1.258 . S
C799 N800 1.326 . S
C799 C803 1.460 . S
C799 H805 0.929 . S
N800 Mn793 2.257 . S
N800 C799 1.326 . S
N800 C804 1.362 . S
C801 C802 1.256 1_655 S
C801 C804 1.445 . S
C801 C821 1.437 1_655 S
C802 C801 1.256 1_455 S
C802 C803 1.477 1_455 S
C802 H822 0.931 . S
C803 C799 1.460 . S
C803 C802 1.477 1_655 S
C803 H823 0.930 . S
C804 N800 1.362 . S
C804 C801 1.445 . S
C804 C814 1.476 . S
H805 C799 0.929 . S
C806 O797 1.250 . S
C806 O798 1.258 . S
O807 Mn792 2.162 . S
O807 C795 1.281 . S
O808 Mn792 2.297 . S
O808 C795 1.236 . S
N809 Mn793 2.282 . S
N809 C810 1.328 . S
N809 C814 1.318 . S
C810 N809 1.328 . S
C810 C811 1.457 . S
C810 H815 0.929 . S
C811 C810 1.457 . S
C811 C812 1.291 . S
C811 H824 0.931 . S
C812 C811 1.291 . S
C812 C813 1.373 . S
C812 H825 0.929 1_655 S
C813 C812 1.373 . S
C813 C814 1.396 . S
C813 C820 1.403 1_655 S
C814 C804 1.476 . S
C814 N809 1.318 . S
C814 C813 1.396 . S
H815 C810 0.929 . S
O816 Mn792 2.385 . S
O816 C794 1.234 . S
O817 Mn792 2.209 . S
O817 Mn793 2.215 . S
O817 C794 1.283 . S
O818 Mn792 2.094 . S
O818 C796 1.240 . S
O819 Mn793 2.117 . S
O819 C796 1.264 . S
C820 C813 1.403 1_455 S
C820 C821 1.399 . S
C820 H826 0.929 . S
C821 C801 1.437 1_455 S
C821 C820 1.399 . S
C821 H827 0.930 . S
H822 C802 0.931 . S
H823 C803 0.930 . S
H824 C811 0.931 . S
H825 C812 0.929 1_455 S
H826 C820 0.929 . S
H827 C821 0.930 . S
Mn828 O833 2.095 . S
Mn828 O843 2.162 . S
Mn828 O844 2.297 . S
Mn828 O852 2.385 . S
Mn828 O853 2.209 . S
Mn828 O854 2.094 . S
Mn829 O834 2.121 . S
Mn829 N836 2.257 . S
Mn829 N845 2.282 . S
Mn829 O853 2.215 . S
Mn829 O855 2.117 . S
C830 O852 1.234 . S
C830 O853 1.283 . S
C831 O843 1.281 . S
C831 O844 1.236 . S
C832 O854 1.240 . S
C832 O855 1.264 . S
O833 Mn828 2.095 . S
O833 C842 1.250 . S
O834 Mn829 2.121 . S
O834 C842 1.258 . S
C835 N836 1.326 . S
C835 C839 1.460 . S
C835 H841 0.929 . S
N836 Mn829 2.257 . S
N836 C835 1.326 . S
N836 C840 1.362 . S
C837 C838 1.258 . S
C837 C840 1.431 . S
C837 C857 1.449 . S
C838 C837 1.258 . S
C838 C839 1.477 . S
C838 H858 0.931 . S
C839 C835 1.460 . S
C839 C838 1.477 . S
C839 H859 0.930 . S
C840 N836 1.362 . S
C840 C837 1.431 . S
C840 C850 1.476 . S
H841 C835 0.929 . S
C842 O833 1.250 . S
C842 O834 1.258 . S
O843 Mn828 2.162 . S
O843 C831 1.281 . S
O844 Mn828 2.297 . S
O844 C831 1.236 . S
N845 Mn829 2.282 . S
N845 C846 1.328 . S
N845 C850 1.318 . S
C846 N845 1.328 . S
C846 C847 1.457 . S
C846 H851 0.929 . S
C847 C846 1.457 . S
C847 C848 1.291 . S
C847 H860 0.931 . S
C848 C847 1.291 . S
C848 C849 1.373 . S
C848 H861 0.929 . S
C849 C848 1.373 . S
C849 C850 1.396 . S
C849 C856 1.403 . S
C850 C840 1.476 . S
C850 N845 1.318 . S
C850 C849 1.396 . S
H851 C846 0.929 . S
O852 Mn828 2.385 . S
O852 C830 1.234 . S
O853 Mn828 2.209 . S
O853 Mn829 2.215 . S
O853 C830 1.283 . S
O854 Mn828 2.094 . S
O854 C832 1.240 . S
O855 Mn829 2.117 . S
O855 C832 1.264 . S
C856 C849 1.403 . S
C856 C857 1.399 . S
C856 H862 0.929 . S
C857 C837 1.449 . S
C857 C856 1.399 . S
C857 H863 0.930 . S
H858 C838 0.931 . S
H859 C839 0.930 . S
H860 C847 0.931 . S
H861 C848 0.929 . S
H862 C856 0.929 . S
H863 C857 0.930 . S
Mn864 O869 2.095 . S
Mn864 O879 2.162 . S
Mn864 O880 2.297 . S
Mn864 O888 2.385 . S
Mn864 O889 2.209 . S
Mn864 O890 2.094 . S
Mn865 O870 2.121 . S
Mn865 N872 2.257 . S
Mn865 N881 2.282 . S
Mn865 O889 2.215 . S
Mn865 O891 2.117 . S
C866 O888 1.234 . S
C866 O889 1.283 . S
C867 O879 1.281 . S
C867 O880 1.236 . S
C868 O890 1.240 . S
C868 O891 1.264 . S
O869 Mn864 2.095 . S
O869 C878 1.250 . S
O870 Mn865 2.121 . S
O870 C878 1.258 . S
C871 N872 1.326 . S
C871 C875 1.460 . S
C871 H877 0.929 . S
N872 Mn865 2.257 . S
N872 C871 1.326 . S
N872 C876 1.362 . S
C873 C874 1.258 . S
C873 C876 1.431 . S
C873 C893 1.449 . S
C874 C873 1.258 . S
C874 C875 1.477 . S
C874 H894 0.931 . S
C875 C871 1.460 . S
C875 C874 1.477 . S
C875 H895 0.930 . S
C876 N872 1.362 . S
C876 C873 1.431 . S
C876 C886 1.476 . S
H877 C871 0.929 . S
C878 O869 1.250 . S
C878 O870 1.258 . S
O879 Mn864 2.162 . S
O879 C867 1.281 . S
O880 Mn864 2.297 . S
O880 C867 1.236 . S
N881 Mn865 2.282 . S
N881 C882 1.328 . S
N881 C886 1.318 . S
C882 N881 1.328 . S
C882 C883 1.457 . S
C882 H887 0.929 . S
C883 C882 1.457 . S
C883 C884 1.291 . S
C883 H896 0.931 . S
C884 C883 1.291 . S
C884 C885 1.373 . S
C884 H897 0.929 . S
C885 C884 1.373 . S
C885 C886 1.396 . S
C885 C892 1.403 . S
C886 C876 1.476 . S
C886 N881 1.318 . S
C886 C885 1.396 . S
H887 C882 0.929 . S
O888 Mn864 2.385 . S
O888 C866 1.234 . S
O889 Mn864 2.209 . S
O889 Mn865 2.215 . S
O889 C866 1.283 . S
O890 Mn864 2.094 . S
O890 C868 1.240 . S
O891 Mn865 2.117 . S
O891 C868 1.264 . S
C892 C885 1.403 . S
C892 C893 1.399 . S
C892 H898 0.929 . S
C893 C873 1.449 . S
C893 C892 1.399 . S
C893 H899 0.930 . S
H894 C874 0.931 . S
H895 C875 0.930 . S
H896 C883 0.931 . S
H897 C884 0.929 . S
H898 C892 0.929 . S
H899 C893 0.930 . S
Mn900 O905 2.095 . S
Mn900 O915 2.162 . S
Mn900 O916 2.297 . S
Mn900 O924 2.385 . S
Mn900 O925 2.209 . S
Mn900 O926 2.094 . S
Mn901 O906 2.121 . S
Mn901 N908 2.257 . S
Mn901 N917 2.282 . S
Mn901 O925 2.215 . S
Mn901 O927 2.117 . S
C902 O924 1.234 . S
C902 O925 1.283 . S
C903 O915 1.281 . S
C903 O916 1.236 . S
C904 O926 1.240 . S
C904 O927 1.264 . S
O905 Mn900 2.095 . S
O905 C914 1.250 . S
O906 Mn901 2.121 . S
O906 C914 1.258 . S
C907 N908 1.326 . S
C907 C911 1.460 . S
C907 H913 0.929 . S
N908 Mn901 2.257 . S
N908 C907 1.326 . S
N908 C912 1.362 . S
C909 C910 1.258 . S
C909 C912 1.431 . S
C909 C929 1.449 . S
C910 C909 1.258 . S
C910 C911 1.477 . S
C910 H930 0.931 . S
C911 C907 1.460 . S
C911 C910 1.477 . S
C911 H931 0.930 . S
C912 N908 1.362 . S
C912 C909 1.431 . S
C912 C922 1.476 . S
H913 C907 0.929 . S
C914 O905 1.250 . S
C914 O906 1.258 . S
O915 Mn900 2.162 . S
O915 C903 1.281 . S
O916 Mn900 2.297 . S
O916 C903 1.236 . S
N917 Mn901 2.282 . S
N917 C918 1.328 . S
N917 C922 1.318 . S
C918 N917 1.328 . S
C918 C919 1.457 . S
C918 H923 0.929 . S
C919 C918 1.457 . S
C919 C920 1.291 . S
C919 H932 0.931 . S
C920 C919 1.291 . S
C920 C921 1.373 . S
C920 H933 0.929 . S
C921 C920 1.373 . S
C921 C922 1.396 . S
C921 C928 1.403 . S
C922 C912 1.476 . S
C922 N917 1.318 . S
C922 C921 1.396 . S
H923 C918 0.929 . S
O924 Mn900 2.385 . S
O924 C902 1.234 . S
O925 Mn900 2.209 . S
O925 Mn901 2.215 . S
O925 C902 1.283 . S
O926 Mn900 2.094 . S
O926 C904 1.240 . S
O927 Mn901 2.117 . S
O927 C904 1.264 . S
C928 C921 1.403 . S
C928 C929 1.399 . S
C928 H934 0.929 . S
C929 C909 1.449 . S
C929 C928 1.399 . S
C929 H935 0.930 . S
H930 C910 0.931 . S
H931 C911 0.930 . S
H932 C919 0.931 . S
H933 C920 0.929 . S
H934 C928 0.929 . S
H935 C929 0.930 . S
Mn936 O941 2.095 . S
Mn936 O951 2.162 . S
Mn936 O952 2.297 . S
Mn936 O960 2.385 . S
Mn936 O961 2.209 . S
Mn936 O962 2.094 . S
Mn937 O942 2.121 . S
Mn937 N944 2.257 . S
Mn937 N953 2.282 . S
Mn937 O961 2.215 . S
Mn937 O963 2.117 . S
C938 O960 1.234 . S
C938 O961 1.283 . S
C939 O951 1.281 . S
C939 O952 1.236 . S
C940 O962 1.240 . S
C940 O963 1.264 . S
O941 Mn936 2.095 . S
O941 C950 1.250 . S
O942 Mn937 2.121 . S
O942 C950 1.258 . S
C943 N944 1.326 . S
C943 C947 1.460 . S
C943 H949 0.929 . S
N944 Mn937 2.257 . S
N944 C943 1.326 . S
N944 C948 1.362 . S
C945 C946 1.258 . S
C945 C948 1.431 . S
C945 C965 1.449 . S
C946 C945 1.258 . S
C946 C947 1.477 . S
C946 H966 0.931 . S
C947 C943 1.460 . S
C947 C946 1.477 . S
C947 H967 0.930 . S
C948 N944 1.362 . S
C948 C945 1.431 . S
C948 C958 1.476 . S
H949 C943 0.929 . S
C950 O941 1.250 . S
C950 O942 1.258 . S
O951 Mn936 2.162 . S
O951 C939 1.281 . S
O952 Mn936 2.297 . S
O952 C939 1.236 . S
N953 Mn937 2.282 . S
N953 C954 1.328 . S
N953 C958 1.318 . S
C954 N953 1.328 . S
C954 C955 1.457 . S
C954 H959 0.929 . S
C955 C954 1.457 . S
C955 C956 1.291 . S
C955 H968 0.931 . S
C956 C955 1.291 . S
C956 C957 1.373 . S
C956 H969 0.929 . S
C957 C956 1.373 . S
C957 C958 1.396 . S
C957 C964 1.403 . S
C958 C948 1.476 . S
C958 N953 1.318 . S
C958 C957 1.396 . S
H959 C954 0.929 . S
O960 Mn936 2.385 . S
O960 C938 1.234 . S
O961 Mn936 2.209 . S
O961 Mn937 2.215 . S
O961 C938 1.283 . S
O962 Mn936 2.094 . S
O962 C940 1.240 . S
O963 Mn937 2.117 . S
O963 C940 1.264 . S
C964 C957 1.403 . S
C964 C965 1.399 . S
C964 H970 0.929 . S
C965 C945 1.449 . S
C965 C964 1.399 . S
C965 H971 0.930 . S
H966 C946 0.931 . S
H967 C947 0.930 . S
H968 C955 0.931 . S
H969 C956 0.929 . S
H970 C964 0.929 . S
H971 C965 0.930 . S
Mn972 O977 2.095 . S
Mn972 O987 2.162 . S
Mn972 O988 2.297 . S
Mn972 O996 2.385 . S
Mn972 O997 2.209 . S
Mn972 O998 2.094 . S
Mn973 O978 2.121 . S
Mn973 N980 2.257 . S
Mn973 N989 2.282 . S
Mn973 O997 2.215 . S
Mn973 O999 2.117 . S
C974 O996 1.234 . S
C974 O997 1.283 . S
C975 O987 1.281 . S
C975 O988 1.236 . S
C976 O998 1.240 . S
C976 O999 1.264 . S
O977 Mn972 2.095 . S
O977 C986 1.250 . S
O978 Mn973 2.121 . S
O978 C986 1.258 . S
C979 N980 1.326 . S
C979 C983 1.460 . S
C979 H985 0.929 . S
N980 Mn973 2.257 . S
N980 C979 1.326 . S
N980 C984 1.362 . S
C981 C982 1.258 . S
C981 C984 1.431 . S
C981 C1001 1.449 . S
C982 C981 1.258 . S
C982 C983 1.477 . S
C982 H1002 0.931 . S
C983 C979 1.460 . S
C983 C982 1.477 . S
C983 H1003 0.930 . S
C984 N980 1.362 . S
C984 C981 1.431 . S
C984 C994 1.476 . S
H985 C979 0.929 . S
C986 O977 1.250 . S
C986 O978 1.258 . S
O987 Mn972 2.162 . S
O987 C975 1.281 . S
O988 Mn972 2.297 . S
O988 C975 1.236 . S
N989 Mn973 2.282 . S
N989 C990 1.328 . S
N989 C994 1.318 . S
C990 N989 1.328 . S
C990 C991 1.457 . S
C990 H995 0.929 . S
C991 C990 1.457 . S
C991 C992 1.291 . S
C991 H1004 0.931 . S
C992 C991 1.291 . S
C992 C993 1.373 . S
C992 H1005 0.929 . S
C993 C992 1.373 . S
C993 C994 1.396 . S
C993 C1000 1.403 . S
C994 C984 1.476 . S
C994 N989 1.318 . S
C994 C993 1.396 . S
H995 C990 0.929 . S
O996 Mn972 2.385 . S
O996 C974 1.234 . S
O997 Mn972 2.209 . S
O997 Mn973 2.215 . S
O997 C974 1.283 . S
O998 Mn972 2.094 . S
O998 C976 1.240 . S
O999 Mn973 2.117 . S
O999 C976 1.264 . S
C1000 C993 1.403 . S
C1000 C1001 1.399 . S
C1000 H1006 0.929 . S
C1001 C981 1.449 . S
C1001 C1000 1.399 . S
C1001 H1007 0.930 . S
H1002 C982 0.931 . S
H1003 C983 0.930 . S
H1004 C991 0.931 . S
H1005 C992 0.929 . S
H1006 C1000 0.929 . S
H1007 C1001 0.930 . S
Mn1008 O1013 2.095 . S
Mn1008 O1023 2.162 . S
Mn1008 O1024 2.297 . S
Mn1008 O1032 2.385 . S
Mn1008 O1033 2.209 . S
Mn1008 O1034 2.094 . S
Mn1009 O1014 2.121 . S
Mn1009 N1016 2.257 . S
Mn1009 N1025 2.282 . S
Mn1009 O1033 2.215 . S
Mn1009 O1035 2.117 . S
C1010 O1032 1.234 . S
C1010 O1033 1.283 . S
C1011 O1023 1.281 . S
C1011 O1024 1.236 . S
C1012 O1034 1.240 . S
C1012 O1035 1.264 . S
O1013 Mn1008 2.095 . S
O1013 C1022 1.250 . S
O1014 Mn1009 2.121 . S
O1014 C1022 1.258 . S
C1015 N1016 1.326 . S
C1015 C1019 1.460 . S
C1015 H1021 0.929 . S
N1016 Mn1009 2.257 . S
N1016 C1015 1.326 . S
N1016 C1020 1.362 . S
C1017 C1018 1.258 . S
C1017 C1020 1.431 . S
C1017 C1037 1.449 . S
C1018 C1017 1.258 . S
C1018 C1019 1.477 . S
C1018 H1038 0.931 . S
C1019 C1015 1.460 . S
C1019 C1018 1.477 . S
C1019 H1039 0.930 . S
C1020 N1016 1.362 . S
C1020 C1017 1.431 . S
C1020 C1030 1.476 . S
H1021 C1015 0.929 . S
C1022 O1013 1.250 . S
C1022 O1014 1.258 . S
O1023 Mn1008 2.162 . S
O1023 C1011 1.281 . S
O1024 Mn1008 2.297 . S
O1024 C1011 1.236 . S
N1025 Mn1009 2.282 . S
N1025 C1026 1.328 . S
N1025 C1030 1.318 . S
C1026 N1025 1.328 . S
C1026 C1027 1.457 . S
C1026 H1031 0.929 . S
C1027 C1026 1.457 . S
C1027 C1028 1.291 . S
C1027 H1040 0.931 . S
C1028 C1027 1.291 . S
C1028 C1029 1.373 . S
C1028 H1041 0.929 . S
C1029 C1028 1.373 . S
C1029 C1030 1.396 . S
C1029 C1036 1.403 . S
C1030 C1020 1.476 . S
C1030 N1025 1.318 . S
C1030 C1029 1.396 . S
H1031 C1026 0.929 . S
O1032 Mn1008 2.385 . S
O1032 C1010 1.234 . S
O1033 Mn1008 2.209 . S
O1033 Mn1009 2.215 . S
O1033 C1010 1.283 . S
O1034 Mn1008 2.094 . S
O1034 C1012 1.240 . S
O1035 Mn1009 2.117 . S
O1035 C1012 1.264 . S
C1036 C1029 1.403 . S
C1036 C1037 1.399 . S
C1036 H1042 0.929 . S
C1037 C1017 1.449 . S
C1037 C1036 1.399 . S
C1037 H1043 0.930 . S
H1038 C1018 0.931 . S
H1039 C1019 0.930 . S
H1040 C1027 0.931 . S
H1041 C1028 0.929 . S
H1042 C1036 0.929 . S
H1043 C1037 0.930 . S
Mn1044 O1049 2.095 . S
Mn1044 O1059 2.162 . S
Mn1044 O1060 2.297 . S
Mn1044 O1068 2.385 . S
Mn1044 O1069 2.209 . S
Mn1044 O1070 2.094 . S
Mn1045 O1050 2.121 . S
Mn1045 N1052 2.257 . S
Mn1045 N1061 2.282 . S
Mn1045 O1069 2.215 . S
Mn1045 O1071 2.117 . S
C1046 O1068 1.234 . S
C1046 O1069 1.283 . S
C1047 O1059 1.281 . S
C1047 O1060 1.236 . S
C1048 O1070 1.240 . S
C1048 O1071 1.264 . S
O1049 Mn1044 2.095 . S
O1049 C1058 1.250 . S
O1050 Mn1045 2.121 . S
O1050 C1058 1.258 . S
C1051 N1052 1.326 . S
C1051 C1055 1.460 . S
C1051 H1057 0.929 . S
N1052 Mn1045 2.257 . S
N1052 C1051 1.326 . S
N1052 C1056 1.362 . S
C1053 C1054 1.258 . S
C1053 C1056 1.431 . S
C1053 C1073 1.449 . S
C1054 C1053 1.258 . S
C1054 C1055 1.477 . S
C1054 H1074 0.931 . S
C1055 C1051 1.460 . S
C1055 C1054 1.477 . S
C1055 H1075 0.930 . S
C1056 N1052 1.362 . S
C1056 C1053 1.431 . S
C1056 C1066 1.476 . S
H1057 C1051 0.929 . S
C1058 O1049 1.250 . S
C1058 O1050 1.258 . S
O1059 Mn1044 2.162 . S
O1059 C1047 1.281 . S
O1060 Mn1044 2.297 . S
O1060 C1047 1.236 . S
N1061 Mn1045 2.282 . S
N1061 C1062 1.328 . S
N1061 C1066 1.318 . S
C1062 N1061 1.328 . S
C1062 C1063 1.457 . S
C1062 H1067 0.929 . S
C1063 C1062 1.457 . S
C1063 C1064 1.291 . S
C1063 H1076 0.931 . S
C1064 C1063 1.291 . S
C1064 C1065 1.373 . S
C1064 H1077 0.929 . S
C1065 C1064 1.373 . S
C1065 C1066 1.396 . S
C1065 C1072 1.403 . S
C1066 C1056 1.476 . S
C1066 N1061 1.318 . S
C1066 C1065 1.396 . S
H1067 C1062 0.929 . S
O1068 Mn1044 2.385 . S
O1068 C1046 1.234 . S
O1069 Mn1044 2.209 . S
O1069 Mn1045 2.215 . S
O1069 C1046 1.283 . S
O1070 Mn1044 2.094 . S
O1070 C1048 1.240 . S
O1071 Mn1045 2.117 . S
O1071 C1048 1.264 . S
C1072 C1065 1.403 . S
C1072 C1073 1.399 . S
C1072 H1078 0.929 . S
C1073 C1053 1.449 . S
C1073 C1072 1.399 . S
C1073 H1079 0.930 . S
H1074 C1054 0.931 . S
H1075 C1055 0.930 . S
H1076 C1063 0.931 . S
H1077 C1064 0.929 . S
H1078 C1072 0.929 . S
H1079 C1073 0.930 . S
Mn1080 O1085 2.095 . S
Mn1080 O1095 2.162 . S
Mn1080 O1096 2.297 . S
Mn1080 O1104 2.385 . S
Mn1080 O1105 2.209 . S
Mn1080 O1106 2.094 . S
Mn1081 O1086 2.121 . S
Mn1081 N1088 2.257 . S
Mn1081 N1097 2.282 . S
Mn1081 O1105 2.215 . S
Mn1081 O1107 2.117 . S
C1082 O1104 1.234 . S
C1082 O1105 1.283 . S
C1083 O1095 1.281 . S
C1083 O1096 1.236 . S
C1084 O1106 1.240 . S
C1084 O1107 1.264 . S
O1085 Mn1080 2.095 . S
O1085 C1094 1.250 . S
O1086 Mn1081 2.121 . S
O1086 C1094 1.258 . S
C1087 N1088 1.326 . S
C1087 C1091 1.460 . S
C1087 H1093 0.929 . S
N1088 Mn1081 2.257 . S
N1088 C1087 1.326 . S
N1088 C1092 1.362 . S
C1089 C1090 1.258 . S
C1089 C1092 1.431 . S
C1089 C1109 1.449 . S
C1090 C1089 1.258 . S
C1090 C1091 1.477 . S
C1090 H1110 0.931 . S
C1091 C1087 1.460 . S
C1091 C1090 1.477 . S
C1091 H1111 0.930 . S
C1092 N1088 1.362 . S
C1092 C1089 1.431 . S
C1092 C1102 1.476 . S
H1093 C1087 0.929 . S
C1094 O1085 1.250 . S
C1094 O1086 1.258 . S
O1095 Mn1080 2.162 . S
O1095 C1083 1.281 . S
O1096 Mn1080 2.297 . S
O1096 C1083 1.236 . S
N1097 Mn1081 2.282 . S
N1097 C1098 1.328 . S
N1097 C1102 1.318 . S
C1098 N1097 1.328 . S
C1098 C1099 1.457 . S
C1098 H1103 0.929 . S
C1099 C1098 1.457 . S
C1099 C1100 1.291 . S
C1099 H1112 0.931 . S
C1100 C1099 1.291 . S
C1100 C1101 1.373 . S
C1100 H1113 0.929 . S
C1101 C1100 1.373 . S
C1101 C1102 1.396 . S
C1101 C1108 1.403 . S
C1102 C1092 1.476 . S
C1102 N1097 1.318 . S
C1102 C1101 1.396 . S
H1103 C1098 0.929 . S
O1104 Mn1080 2.385 . S
O1104 C1082 1.234 . S
O1105 Mn1080 2.209 . S
O1105 Mn1081 2.215 . S
O1105 C1082 1.283 . S
O1106 Mn1080 2.094 . S
O1106 C1084 1.240 . S
O1107 Mn1081 2.117 . S
O1107 C1084 1.264 . S
C1108 C1101 1.403 . S
C1108 C1109 1.399 . S
C1108 H1114 0.929 . S
C1109 C1089 1.449 . S
C1109 C1108 1.399 . S
C1109 H1115 0.930 . S
H1110 C1090 0.931 . S
H1111 C1091 0.930 . S
H1112 C1099 0.931 . S
H1113 C1100 0.929 . S
H1114 C1108 0.929 . S
H1115 C1109 0.930 . S
Mn1116 O1121 2.095 . S
Mn1116 O1131 2.162 . S
Mn1116 O1132 2.297 . S
Mn1116 O1140 2.385 . S
Mn1116 O1141 2.209 . S
Mn1116 O1142 2.094 . S
Mn1117 O1122 2.121 . S
Mn1117 N1124 2.257 . S
Mn1117 N1133 2.282 . S
Mn1117 O1141 2.215 . S
Mn1117 O1143 2.117 . S
C1118 O1140 1.234 . S
C1118 O1141 1.283 . S
C1119 O1131 1.281 . S
C1119 O1132 1.236 . S
C1120 O1142 1.240 . S
C1120 O1143 1.264 . S
O1121 Mn1116 2.095 . S
O1121 C1130 1.250 . S
O1122 Mn1117 2.121 . S
O1122 C1130 1.258 . S
C1123 N1124 1.326 . S
C1123 C1127 1.460 . S
C1123 H1129 0.929 . S
N1124 Mn1117 2.257 . S
N1124 C1123 1.326 . S
N1124 C1128 1.362 . S
C1125 C1126 1.258 . S
C1125 C1128 1.431 . S
C1125 C1145 1.449 . S
C1126 C1125 1.258 . S
C1126 C1127 1.477 . S
C1126 H1146 0.931 . S
C1127 C1123 1.460 . S
C1127 C1126 1.477 . S
C1127 H1147 0.930 . S
C1128 N1124 1.362 . S
C1128 C1125 1.431 . S
C1128 C1138 1.476 . S
H1129 C1123 0.929 . S
C1130 O1121 1.250 . S
C1130 O1122 1.258 . S
O1131 Mn1116 2.162 . S
O1131 C1119 1.281 . S
O1132 Mn1116 2.297 . S
O1132 C1119 1.236 . S
N1133 Mn1117 2.282 . S
N1133 C1134 1.328 . S
N1133 C1138 1.318 . S
C1134 N1133 1.328 . S
C1134 C1135 1.457 . S
C1134 H1139 0.929 . S
C1135 C1134 1.457 . S
C1135 C1136 1.291 . S
C1135 H1148 0.931 . S
C1136 C1135 1.291 . S
C1136 C1137 1.373 . S
C1136 H1149 0.929 . S
C1137 C1136 1.373 . S
C1137 C1138 1.396 . S
C1137 C1144 1.403 . S
C1138 C1128 1.476 . S
C1138 N1133 1.318 . S
C1138 C1137 1.396 . S
H1139 C1134 0.929 . S
O1140 Mn1116 2.385 . S
O1140 C1118 1.234 . S
O1141 Mn1116 2.209 . S
O1141 Mn1117 2.215 . S
O1141 C1118 1.283 . S
O1142 Mn1116 2.094 . S
O1142 C1120 1.240 . S
O1143 Mn1117 2.117 . S
O1143 C1120 1.264 . S
C1144 C1137 1.403 . S
C1144 C1145 1.399 . S
C1144 H1150 0.929 . S
C1145 C1125 1.449 . S
C1145 C1144 1.399 . S
C1145 H1151 0.930 . S
H1146 C1126 0.931 . S
H1147 C1127 0.930 . S
H1148 C1135 0.931 . S
H1149 C1136 0.929 . S
H1150 C1144 0.929 . S
H1151 C1145 0.930 . S
Mn1152 O1157 2.095 . S
Mn1152 O1167 2.162 . S
Mn1152 O1168 2.297 . S
Mn1152 O1176 2.385 . S
Mn1152 O1177 2.209 . S
Mn1152 O1178 2.094 . S
Mn1153 O1158 2.121 . S
Mn1153 N1160 2.257 . S
Mn1153 N1169 2.282 . S
Mn1153 O1177 2.215 . S
Mn1153 O1179 2.117 . S
C1154 O1176 1.234 . S
C1154 O1177 1.283 . S
C1155 O1167 1.281 . S
C1155 O1168 1.236 . S
C1156 O1178 1.240 . S
C1156 O1179 1.264 . S
O1157 Mn1152 2.095 . S
O1157 C1166 1.250 . S
O1158 Mn1153 2.121 . S
O1158 C1166 1.258 . S
C1159 N1160 1.326 . S
C1159 C1163 1.460 . S
C1159 H1165 0.929 . S
N1160 Mn1153 2.257 . S
N1160 C1159 1.326 . S
N1160 C1164 1.362 . S
C1161 C1162 1.258 . S
C1161 C1164 1.431 . S
C1161 C1181 1.449 . S
C1162 C1161 1.258 . S
C1162 C1163 1.477 . S
C1162 H1182 0.931 . S
C1163 C1159 1.460 . S
C1163 C1162 1.477 . S
C1163 H1183 0.930 . S
C1164 N1160 1.362 . S
C1164 C1161 1.431 . S
C1164 C1174 1.476 . S
H1165 C1159 0.929 . S
C1166 O1157 1.250 . S
C1166 O1158 1.258 . S
O1167 Mn1152 2.162 . S
O1167 C1155 1.281 . S
O1168 Mn1152 2.297 . S
O1168 C1155 1.236 . S
N1169 Mn1153 2.282 . S
N1169 C1170 1.328 . S
N1169 C1174 1.318 . S
C1170 N1169 1.328 . S
C1170 C1171 1.457 . S
C1170 H1175 0.929 . S
C1171 C1170 1.457 . S
C1171 C1172 1.291 . S
C1171 H1184 0.931 . S
C1172 C1171 1.291 . S
C1172 C1173 1.373 . S
C1172 H1185 0.929 . S
C1173 C1172 1.373 . S
C1173 C1174 1.396 . S
C1173 C1180 1.403 . S
C1174 C1164 1.476 . S
C1174 N1169 1.318 . S
C1174 C1173 1.396 . S
H1175 C1170 0.929 . S
O1176 Mn1152 2.385 . S
O1176 C1154 1.234 . S
O1177 Mn1152 2.209 . S
O1177 Mn1153 2.215 . S
O1177 C1154 1.283 . S
O1178 Mn1152 2.094 . S
O1178 C1156 1.240 . S
O1179 Mn1153 2.117 . S
O1179 C1156 1.264 . S
C1180 C1173 1.403 . S
C1180 C1181 1.399 . S
C1180 H1186 0.929 . S
C1181 C1161 1.449 . S
C1181 C1180 1.399 . S
C1181 H1187 0.930 . S
H1182 C1162 0.931 . S
H1183 C1163 0.930 . S
H1184 C1171 0.931 . S
H1185 C1172 0.929 . S
H1186 C1180 0.929 . S
H1187 C1181 0.930 . S
Mn1188 O1193 2.095 . S
Mn1188 O1203 2.162 . S
Mn1188 O1204 2.297 . S
Mn1188 O1212 2.385 . S
Mn1188 O1213 2.209 . S
Mn1188 O1214 2.094 . S
Mn1189 O1194 2.121 . S
Mn1189 N1196 2.257 . S
Mn1189 N1205 2.282 . S
Mn1189 O1213 2.215 . S
Mn1189 O1215 2.117 . S
C1190 O1212 1.234 . S
C1190 O1213 1.283 . S
C1191 O1203 1.281 . S
C1191 O1204 1.236 . S
C1192 O1214 1.240 . S
C1192 O1215 1.264 . S
O1193 Mn1188 2.095 . S
O1193 C1202 1.250 . S
O1194 Mn1189 2.121 . S
O1194 C1202 1.258 . S
C1195 N1196 1.326 . S
C1195 C1199 1.460 . S
C1195 H1201 0.929 . S
N1196 Mn1189 2.257 . S
N1196 C1195 1.326 . S
N1196 C1200 1.362 . S
C1197 C1198 1.258 . S
C1197 C1200 1.431 . S
C1197 C1217 1.449 . S
C1198 C1197 1.258 . S
C1198 C1199 1.477 . S
C1198 H1218 0.931 . S
C1199 C1195 1.460 . S
C1199 C1198 1.477 . S
C1199 H1219 0.930 . S
C1200 N1196 1.362 . S
C1200 C1197 1.431 . S
C1200 C1210 1.476 . S
H1201 C1195 0.929 . S
C1202 O1193 1.250 . S
C1202 O1194 1.258 . S
O1203 Mn1188 2.162 . S
O1203 C1191 1.281 . S
O1204 Mn1188 2.297 . S
O1204 C1191 1.236 . S
N1205 Mn1189 2.282 . S
N1205 C1206 1.328 . S
N1205 C1210 1.318 . S
C1206 N1205 1.328 . S
C1206 C1207 1.457 . S
C1206 H1211 0.929 . S
C1207 C1206 1.457 . S
C1207 C1208 1.291 . S
C1207 H1220 0.931 . S
C1208 C1207 1.291 . S
C1208 C1209 1.373 . S
C1208 H1221 0.929 . S
C1209 C1208 1.373 . S
C1209 C1210 1.396 . S
C1209 C1216 1.403 . S
C1210 C1200 1.476 . S
C1210 N1205 1.318 . S
C1210 C1209 1.396 . S
H1211 C1206 0.929 . S
O1212 Mn1188 2.385 . S
O1212 C1190 1.234 . S
O1213 Mn1188 2.209 . S
O1213 Mn1189 2.215 . S
O1213 C1190 1.283 . S
O1214 Mn1188 2.094 . S
O1214 C1192 1.240 . S
O1215 Mn1189 2.117 . S
O1215 C1192 1.264 . S
C1216 C1209 1.403 . S
C1216 C1217 1.399 . S
C1216 H1222 0.929 . S
C1217 C1197 1.449 . S
C1217 C1216 1.399 . S
C1217 H1223 0.930 . S
H1218 C1198 0.931 . S
H1219 C1199 0.930 . S
H1220 C1207 0.931 . S
H1221 C1208 0.929 . S
H1222 C1216 0.929 . S
H1223 C1217 0.930 . S
Mn1224 O1229 2.095 . S
Mn1224 O1239 2.162 . S
Mn1224 O1240 2.297 . S
Mn1224 O1248 2.385 . S
Mn1224 O1249 2.209 . S
Mn1224 O1250 2.094 . S
Mn1225 O1230 2.121 . S
Mn1225 N1232 2.257 . S
Mn1225 N1241 2.282 . S
Mn1225 O1249 2.215 . S
Mn1225 O1251 2.117 . S
C1226 O1248 1.234 . S
C1226 O1249 1.283 . S
C1227 O1239 1.281 . S
C1227 O1240 1.236 . S
C1228 O1250 1.240 . S
C1228 O1251 1.264 . S
O1229 Mn1224 2.095 . S
O1229 C1238 1.250 . S
O1230 Mn1225 2.121 . S
O1230 C1238 1.258 . S
C1231 N1232 1.326 . S
C1231 C1235 1.460 . S
C1231 H1237 0.929 . S
N1232 Mn1225 2.257 . S
N1232 C1231 1.326 . S
N1232 C1236 1.362 . S
C1233 C1234 1.258 . S
C1233 C1236 1.431 . S
C1233 C1253 1.449 . S
C1234 C1233 1.258 . S
C1234 C1235 1.477 . S
C1234 H1254 0.931 . S
C1235 C1231 1.460 . S
C1235 C1234 1.477 . S
C1235 H1255 0.930 . S
C1236 N1232 1.362 . S
C1236 C1233 1.431 . S
C1236 C1246 1.476 . S
H1237 C1231 0.929 . S
C1238 O1229 1.250 . S
C1238 O1230 1.258 . S
O1239 Mn1224 2.162 . S
O1239 C1227 1.281 . S
O1240 Mn1224 2.297 . S
O1240 C1227 1.236 . S
N1241 Mn1225 2.282 . S
N1241 C1242 1.328 . S
N1241 C1246 1.318 . S
C1242 N1241 1.328 . S
C1242 C1243 1.457 . S
C1242 H1247 0.929 . S
C1243 C1242 1.457 . S
C1243 C1244 1.291 . S
C1243 H1256 0.931 . S
C1244 C1243 1.291 . S
C1244 C1245 1.373 . S
C1244 H1257 0.929 . S
C1245 C1244 1.373 . S
C1245 C1246 1.396 . S
C1245 C1252 1.403 . S
C1246 C1236 1.476 . S
C1246 N1241 1.318 . S
C1246 C1245 1.396 . S
H1247 C1242 0.929 . S
O1248 Mn1224 2.385 . S
O1248 C1226 1.234 . S
O1249 Mn1224 2.209 . S
O1249 Mn1225 2.215 . S
O1249 C1226 1.283 . S
O1250 Mn1224 2.094 . S
O1250 C1228 1.240 . S
O1251 Mn1225 2.117 . S
O1251 C1228 1.264 . S
C1252 C1245 1.403 . S
C1252 C1253 1.399 . S
C1252 H1258 0.929 . S
C1253 C1233 1.449 . S
C1253 C1252 1.399 . S
C1253 H1259 0.930 . S
H1254 C1234 0.931 . S
H1255 C1235 0.930 . S
H1256 C1243 0.931 . S
H1257 C1244 0.929 . S
H1258 C1252 0.929 . S
H1259 C1253 0.930 . S
Mn1260 O1265 2.095 . S
Mn1260 O1275 2.162 . S
Mn1260 O1276 2.297 . S
Mn1260 O1284 2.385 . S
Mn1260 O1285 2.209 . S
Mn1260 O1286 2.094 . S
Mn1261 O1266 2.121 . S
Mn1261 N1268 2.257 . S
Mn1261 N1277 2.282 . S
Mn1261 O1285 2.215 . S
Mn1261 O1287 2.117 . S
C1262 O1284 1.234 . S
C1262 O1285 1.283 . S
C1263 O1275 1.281 . S
C1263 O1276 1.236 . S
C1264 O1286 1.240 . S
C1264 O1287 1.264 . S
O1265 Mn1260 2.095 . S
O1265 C1274 1.250 . S
O1266 Mn1261 2.121 . S
O1266 C1274 1.258 . S
C1267 N1268 1.326 . S
C1267 C1271 1.460 . S
C1267 H1273 0.929 . S
N1268 Mn1261 2.257 . S
N1268 C1267 1.326 . S
N1268 C1272 1.362 . S
C1269 C1270 1.258 . S
C1269 C1272 1.431 . S
C1269 C1289 1.449 . S
C1270 C1269 1.258 . S
C1270 C1271 1.477 . S
C1270 H1290 0.931 . S
C1271 C1267 1.460 . S
C1271 C1270 1.477 . S
C1271 H1291 0.930 . S
C1272 N1268 1.362 . S
C1272 C1269 1.431 . S
C1272 C1282 1.476 . S
H1273 C1267 0.929 . S
C1274 O1265 1.250 . S
C1274 O1266 1.258 . S
O1275 Mn1260 2.162 . S
O1275 C1263 1.281 . S
O1276 Mn1260 2.297 . S
O1276 C1263 1.236 . S
N1277 Mn1261 2.282 . S
N1277 C1278 1.328 . S
N1277 C1282 1.318 . S
C1278 N1277 1.328 . S
C1278 C1279 1.457 . S
C1278 H1283 0.929 . S
C1279 C1278 1.457 . S
C1279 C1280 1.291 . S
C1279 H1292 0.931 . S
C1280 C1279 1.291 . S
C1280 C1281 1.373 . S
C1280 H1293 0.929 . S
C1281 C1280 1.373 . S
C1281 C1282 1.396 . S
C1281 C1288 1.403 . S
C1282 C1272 1.476 . S
C1282 N1277 1.318 . S
C1282 C1281 1.396 . S
H1283 C1278 0.929 . S
O1284 Mn1260 2.385 . S
O1284 C1262 1.234 . S
O1285 Mn1260 2.209 . S
O1285 Mn1261 2.215 . S
O1285 C1262 1.283 . S
O1286 Mn1260 2.094 . S
O1286 C1264 1.240 . S
O1287 Mn1261 2.117 . S
O1287 C1264 1.264 . S
C1288 C1281 1.403 . S
C1288 C1289 1.399 . S
C1288 H1294 0.929 . S
C1289 C1269 1.449 . S
C1289 C1288 1.399 . S
C1289 H1295 0.930 . S
H1290 C1270 0.931 . S
H1291 C1271 0.930 . S
H1292 C1279 0.931 . S
H1293 C1280 0.929 . S
H1294 C1288 0.929 . S
H1295 C1289 0.930 . S
Mn1296 O1301 2.095 . S
Mn1296 O1311 2.162 . S
Mn1296 O1312 2.297 . S
Mn1296 O1320 2.385 . S
Mn1296 O1321 2.209 . S
Mn1296 O1322 2.094 . S
Mn1297 O1302 2.121 . S
Mn1297 N1304 2.257 . S
Mn1297 N1313 2.282 . S
Mn1297 O1321 2.215 . S
Mn1297 O1323 2.117 . S
C1298 O1320 1.234 . S
C1298 O1321 1.283 . S
C1299 O1311 1.281 . S
C1299 O1312 1.236 . S
C1300 O1322 1.240 . S
C1300 O1323 1.264 . S
O1301 Mn1296 2.095 . S
O1301 C1310 1.250 . S
O1302 Mn1297 2.121 . S
O1302 C1310 1.258 . S
C1303 N1304 1.326 . S
C1303 C1307 1.460 . S
C1303 H1309 0.929 . S
N1304 Mn1297 2.257 . S
N1304 C1303 1.326 . S
N1304 C1308 1.362 . S
C1305 C1306 1.258 . S
C1305 C1308 1.431 . S
C1305 C1325 1.449 . S
C1306 C1305 1.258 . S
C1306 C1307 1.477 . S
C1306 H1326 0.931 . S
C1307 C1303 1.460 . S
C1307 C1306 1.477 . S
C1307 H1327 0.930 . S
C1308 N1304 1.362 . S
C1308 C1305 1.431 . S
C1308 C1318 1.476 . S
H1309 C1303 0.929 . S
C1310 O1301 1.250 . S
C1310 O1302 1.258 . S
O1311 Mn1296 2.162 . S
O1311 C1299 1.281 . S
O1312 Mn1296 2.297 . S
O1312 C1299 1.236 . S
N1313 Mn1297 2.282 . S
N1313 C1314 1.328 . S
N1313 C1318 1.318 . S
C1314 N1313 1.328 . S
C1314 C1315 1.457 . S
C1314 H1319 0.929 . S
C1315 C1314 1.457 . S
C1315 C1316 1.291 . S
C1315 H1328 0.931 . S
C1316 C1315 1.291 . S
C1316 C1317 1.373 . S
C1316 H1329 0.929 . S
C1317 C1316 1.373 . S
C1317 C1318 1.396 . S
C1317 C1324 1.403 . S
C1318 C1308 1.476 . S
C1318 N1313 1.318 . S
C1318 C1317 1.396 . S
H1319 C1314 0.929 . S
O1320 Mn1296 2.385 . S
O1320 C1298 1.234 . S
O1321 Mn1296 2.209 . S
O1321 Mn1297 2.215 . S
O1321 C1298 1.283 . S
O1322 Mn1296 2.094 . S
O1322 C1300 1.240 . S
O1323 Mn1297 2.117 . S
O1323 C1300 1.264 . S
C1324 C1317 1.403 . S
C1324 C1325 1.399 . S
C1324 H1330 0.929 . S
C1325 C1305 1.449 . S
C1325 C1324 1.399 . S
C1325 H1331 0.930 . S
H1326 C1306 0.931 . S
H1327 C1307 0.930 . S
H1328 C1315 0.931 . S
H1329 C1316 0.929 . S
H1330 C1324 0.929 . S
H1331 C1325 0.930 . S
Mn1332 O1337 2.095 . S
Mn1332 O1347 2.162 . S
Mn1332 O1348 2.297 . S
Mn1332 O1356 2.385 . S
Mn1332 O1357 2.209 . S
Mn1332 O1358 2.094 . S
Mn1333 O1338 2.121 . S
Mn1333 N1340 2.257 . S
Mn1333 N1349 2.282 . S
Mn1333 O1357 2.215 . S
Mn1333 O1359 2.117 . S
C1334 O1356 1.234 . S
C1334 O1357 1.283 . S
C1335 O1347 1.281 . S
C1335 O1348 1.236 . S
C1336 O1358 1.240 . S
C1336 O1359 1.264 . S
O1337 Mn1332 2.095 . S
O1337 C1346 1.250 . S
O1338 Mn1333 2.121 . S
O1338 C1346 1.258 . S
C1339 N1340 1.326 . S
C1339 C1343 1.460 . S
C1339 H1345 0.929 . S
N1340 Mn1333 2.257 . S
N1340 C1339 1.326 . S
N1340 C1344 1.362 . S
C1341 C1342 1.258 . S
C1341 C1344 1.431 . S
C1341 C1361 1.449 . S
C1342 C1341 1.258 . S
C1342 C1343 1.477 . S
C1342 H1362 0.931 . S
C1343 C1339 1.460 . S
C1343 C1342 1.477 . S
C1343 H1363 0.930 . S
C1344 N1340 1.362 . S
C1344 C1341 1.431 . S
C1344 C1354 1.476 . S
H1345 C1339 0.929 . S
C1346 O1337 1.250 . S
C1346 O1338 1.258 . S
O1347 Mn1332 2.162 . S
O1347 C1335 1.281 . S
O1348 Mn1332 2.297 . S
O1348 C1335 1.236 . S
N1349 Mn1333 2.282 . S
N1349 C1350 1.328 . S
N1349 C1354 1.318 . S
C1350 N1349 1.328 . S
C1350 C1351 1.457 . S
C1350 H1355 0.929 . S
C1351 C1350 1.457 . S
C1351 C1352 1.291 . S
C1351 H1364 0.931 . S
C1352 C1351 1.291 . S
C1352 C1353 1.373 . S
C1352 H1365 0.929 . S
C1353 C1352 1.373 . S
C1353 C1354 1.396 . S
C1353 C1360 1.403 . S
C1354 C1344 1.476 . S
C1354 N1349 1.318 . S
C1354 C1353 1.396 . S
H1355 C1350 0.929 . S
O1356 Mn1332 2.385 . S
O1356 C1334 1.234 . S
O1357 Mn1332 2.209 . S
O1357 Mn1333 2.215 . S
O1357 C1334 1.283 . S
O1358 Mn1332 2.094 . S
O1358 C1336 1.240 . S
O1359 Mn1333 2.117 . S
O1359 C1336 1.264 . S
C1360 C1353 1.403 . S
C1360 C1361 1.399 . S
C1360 H1366 0.929 . S
C1361 C1341 1.449 . S
C1361 C1360 1.399 . S
C1361 H1367 0.930 . S
H1362 C1342 0.931 . S
H1363 C1343 0.930 . S
H1364 C1351 0.931 . S
H1365 C1352 0.929 . S
H1366 C1360 0.929 . S
H1367 C1361 0.930 . S
Mn1368 O1373 2.095 . S
Mn1368 O1383 2.162 . S
Mn1368 O1384 2.297 . S
Mn1368 O1392 2.385 . S
Mn1368 O1393 2.209 . S
Mn1368 O1394 2.094 . S
Mn1369 O1374 2.121 . S
Mn1369 N1376 2.257 . S
Mn1369 N1385 2.282 . S
Mn1369 O1393 2.215 . S
Mn1369 O1395 2.117 . S
C1370 O1392 1.234 . S
C1370 O1393 1.283 . S
C1371 O1383 1.281 . S
C1371 O1384 1.236 . S
C1372 O1394 1.240 . S
C1372 O1395 1.264 . S
O1373 Mn1368 2.095 . S
O1373 C1382 1.250 . S
O1374 Mn1369 2.121 . S
O1374 C1382 1.258 . S
C1375 N1376 1.326 . S
C1375 C1379 1.460 . S
C1375 H1381 0.929 . S
N1376 Mn1369 2.257 . S
N1376 C1375 1.326 . S
N1376 C1380 1.362 . S
C1377 C1378 1.258 . S
C1377 C1380 1.431 . S
C1377 C1397 1.449 . S
C1378 C1377 1.258 . S
C1378 C1379 1.477 . S
C1378 H1398 0.931 . S
C1379 C1375 1.460 . S
C1379 C1378 1.477 . S
C1379 H1399 0.930 . S
C1380 N1376 1.362 . S
C1380 C1377 1.431 . S
C1380 C1390 1.476 . S
H1381 C1375 0.929 . S
C1382 O1373 1.250 . S
C1382 O1374 1.258 . S
O1383 Mn1368 2.162 . S
O1383 C1371 1.281 . S
O1384 Mn1368 2.297 . S
O1384 C1371 1.236 . S
N1385 Mn1369 2.282 . S
N1385 C1386 1.328 . S
N1385 C1390 1.318 . S
C1386 N1385 1.328 . S
C1386 C1387 1.457 . S
C1386 H1391 0.929 . S
C1387 C1386 1.457 . S
C1387 C1388 1.291 . S
C1387 H1400 0.931 . S
C1388 C1387 1.291 . S
C1388 C1389 1.373 . S
C1388 H1401 0.929 . S
C1389 C1388 1.373 . S
C1389 C1390 1.396 . S
C1389 C1396 1.403 . S
C1390 C1380 1.476 . S
C1390 N1385 1.318 . S
C1390 C1389 1.396 . S
H1391 C1386 0.929 . S
O1392 Mn1368 2.385 . S
O1392 C1370 1.234 . S
O1393 Mn1368 2.209 . S
O1393 Mn1369 2.215 . S
O1393 C1370 1.283 . S
O1394 Mn1368 2.094 . S
O1394 C1372 1.240 . S
O1395 Mn1369 2.117 . S
O1395 C1372 1.264 . S
C1396 C1389 1.403 . S
C1396 C1397 1.399 . S
C1396 H1402 0.929 . S
C1397 C1377 1.449 . S
C1397 C1396 1.399 . S
C1397 H1403 0.930 . S
H1398 C1378 0.931 . S
H1399 C1379 0.930 . S
H1400 C1387 0.931 . S
H1401 C1388 0.929 . S
H1402 C1396 0.929 . S
H1403 C1397 0.930 . S
Mn1404 O1409 2.095 . S
Mn1404 O1419 2.162 . S
Mn1404 O1420 2.297 . S
Mn1404 O1428 2.385 . S
Mn1404 O1429 2.209 . S
Mn1404 O1430 2.094 . S
Mn1405 O1410 2.121 . S
Mn1405 N1412 2.257 . S
Mn1405 N1421 2.282 . S
Mn1405 O1429 2.215 . S
Mn1405 O1431 2.117 . S
C1406 O1428 1.234 . S
C1406 O1429 1.283 . S
C1407 O1419 1.281 . S
C1407 O1420 1.236 . S
C1408 O1430 1.240 . S
C1408 O1431 1.264 . S
O1409 Mn1404 2.095 . S
O1409 C1418 1.250 . S
O1410 Mn1405 2.121 . S
O1410 C1418 1.258 . S
C1411 N1412 1.326 . S
C1411 C1415 1.460 . S
C1411 H1417 0.929 . S
N1412 Mn1405 2.257 . S
N1412 C1411 1.326 . S
N1412 C1416 1.362 . S
C1413 C1414 1.258 . S
C1413 C1416 1.431 . S
C1413 C1433 1.449 . S
C1414 C1413 1.258 . S
C1414 C1415 1.477 . S
C1414 H1434 0.931 . S
C1415 C1411 1.460 . S
C1415 C1414 1.477 . S
C1415 H1435 0.930 . S
C1416 N1412 1.362 . S
C1416 C1413 1.431 . S
C1416 C1426 1.476 . S
H1417 C1411 0.929 . S
C1418 O1409 1.250 . S
C1418 O1410 1.258 . S
O1419 Mn1404 2.162 . S
O1419 C1407 1.281 . S
O1420 Mn1404 2.297 . S
O1420 C1407 1.236 . S
N1421 Mn1405 2.282 . S
N1421 C1422 1.328 . S
N1421 C1426 1.318 . S
C1422 N1421 1.328 . S
C1422 C1423 1.457 . S
C1422 H1427 0.929 . S
C1423 C1422 1.457 . S
C1423 C1424 1.291 . S
C1423 H1436 0.931 . S
C1424 C1423 1.291 . S
C1424 C1425 1.373 . S
C1424 H1437 0.929 . S
C1425 C1424 1.373 . S
C1425 C1426 1.396 . S
C1425 C1432 1.403 . S
C1426 C1416 1.476 . S
C1426 N1421 1.318 . S
C1426 C1425 1.396 . S
H1427 C1422 0.929 . S
O1428 Mn1404 2.385 . S
O1428 C1406 1.234 . S
O1429 Mn1404 2.209 . S
O1429 Mn1405 2.215 . S
O1429 C1406 1.283 . S
O1430 Mn1404 2.094 . S
O1430 C1408 1.240 . S
O1431 Mn1405 2.117 . S
O1431 C1408 1.264 . S
C1432 C1425 1.403 . S
C1432 C1433 1.399 . S
C1432 H1438 0.929 . S
C1433 C1413 1.449 . S
C1433 C1432 1.399 . S
C1433 H1439 0.930 . S
H1434 C1414 0.931 . S
H1435 C1415 0.930 . S
H1436 C1423 0.931 . S
H1437 C1424 0.929 . S
H1438 C1432 0.929 . S
H1439 C1433 0.930 . S
Mn1440 O1445 2.095 . S
Mn1440 O1455 2.162 . S
Mn1440 O1456 2.297 . S
Mn1440 O1464 2.385 . S
Mn1440 O1465 2.209 . S
Mn1440 O1466 2.094 . S
Mn1441 O1446 2.121 . S
Mn1441 N1448 2.257 . S
Mn1441 N1457 2.282 . S
Mn1441 O1465 2.215 . S
Mn1441 O1467 2.117 . S
C1442 O1464 1.234 . S
C1442 O1465 1.283 . S
C1443 O1455 1.281 . S
C1443 O1456 1.236 . S
C1444 O1466 1.240 . S
C1444 O1467 1.264 . S
O1445 Mn1440 2.095 . S
O1445 C1454 1.250 . S
O1446 Mn1441 2.121 . S
O1446 C1454 1.258 . S
C1447 N1448 1.326 . S
C1447 C1451 1.460 . S
C1447 H1453 0.929 . S
N1448 Mn1441 2.257 . S
N1448 C1447 1.326 . S
N1448 C1452 1.362 . S
C1449 C1450 1.258 . S
C1449 C1452 1.431 . S
C1449 C1469 1.449 . S
C1450 C1449 1.258 . S
C1450 C1451 1.477 . S
C1450 H1470 0.931 . S
C1451 C1447 1.460 . S
C1451 C1450 1.477 . S
C1451 H1471 0.930 . S
C1452 N1448 1.362 . S
C1452 C1449 1.431 . S
C1452 C1462 1.476 . S
H1453 C1447 0.929 . S
C1454 O1445 1.250 . S
C1454 O1446 1.258 . S
O1455 Mn1440 2.162 . S
O1455 C1443 1.281 . S
O1456 Mn1440 2.297 . S
O1456 C1443 1.236 . S
N1457 Mn1441 2.282 . S
N1457 C1458 1.328 . S
N1457 C1462 1.318 . S
C1458 N1457 1.328 . S
C1458 C1459 1.457 . S
C1458 H1463 0.929 . S
C1459 C1458 1.457 . S
C1459 C1460 1.291 . S
C1459 H1472 0.931 . S
C1460 C1459 1.291 . S
C1460 C1461 1.373 . S
C1460 H1473 0.929 . S
C1461 C1460 1.373 . S
C1461 C1462 1.396 . S
C1461 C1468 1.403 . S
C1462 C1452 1.476 . S
C1462 N1457 1.318 . S
C1462 C1461 1.396 . S
H1463 C1458 0.929 . S
O1464 Mn1440 2.385 . S
O1464 C1442 1.234 . S
O1465 Mn1440 2.209 . S
O1465 Mn1441 2.215 . S
O1465 C1442 1.283 . S
O1466 Mn1440 2.094 . S
O1466 C1444 1.240 . S
O1467 Mn1441 2.117 . S
O1467 C1444 1.264 . S
C1468 C1461 1.403 . S
C1468 C1469 1.399 . S
C1468 H1474 0.929 . S
C1469 C1449 1.449 . S
C1469 C1468 1.399 . S
C1469 H1475 0.930 . S
H1470 C1450 0.931 . S
H1471 C1451 0.930 . S
H1472 C1459 0.931 . S
H1473 C1460 0.929 . S
H1474 C1468 0.929 . S
H1475 C1469 0.930 . S
Mn1476 O1481 2.095 . S
Mn1476 O1491 2.162 . S
Mn1476 O1492 2.297 . S
Mn1476 O1500 2.385 . S
Mn1476 O1501 2.209 . S
Mn1476 O1502 2.094 . S
Mn1477 O1482 2.121 . S
Mn1477 N1484 2.257 . S
Mn1477 N1493 2.282 . S
Mn1477 O1501 2.215 . S
Mn1477 O1503 2.117 . S
C1478 O1500 1.234 . S
C1478 O1501 1.283 . S
C1479 O1491 1.281 . S
C1479 O1492 1.236 . S
C1480 O1502 1.240 . S
C1480 O1503 1.264 . S
O1481 Mn1476 2.095 . S
O1481 C1490 1.250 . S
O1482 Mn1477 2.121 . S
O1482 C1490 1.258 . S
C1483 N1484 1.326 . S
C1483 C1487 1.460 . S
C1483 H1489 0.929 . S
N1484 Mn1477 2.257 . S
N1484 C1483 1.326 . S
N1484 C1488 1.362 . S
C1485 C1486 1.258 . S
C1485 C1488 1.431 . S
C1485 C1505 1.449 . S
C1486 C1485 1.258 . S
C1486 C1487 1.477 . S
C1486 H1506 0.931 . S
C1487 C1483 1.460 . S
C1487 C1486 1.477 . S
C1487 H1507 0.930 . S
C1488 N1484 1.362 . S
C1488 C1485 1.431 . S
C1488 C1498 1.476 . S
H1489 C1483 0.929 . S
C1490 O1481 1.250 . S
C1490 O1482 1.258 . S
O1491 Mn1476 2.162 . S
O1491 C1479 1.281 . S
O1492 Mn1476 2.297 . S
O1492 C1479 1.236 . S
N1493 Mn1477 2.282 . S
N1493 C1494 1.328 . S
N1493 C1498 1.318 . S
C1494 N1493 1.328 . S
C1494 C1495 1.457 . S
C1494 H1499 0.929 . S
C1495 C1494 1.457 . S
C1495 C1496 1.291 . S
C1495 H1508 0.931 . S
C1496 C1495 1.291 . S
C1496 C1497 1.373 . S
C1496 H1509 0.929 . S
C1497 C1496 1.373 . S
C1497 C1498 1.396 . S
C1497 C1504 1.403 . S
C1498 C1488 1.476 . S
C1498 N1493 1.318 . S
C1498 C1497 1.396 . S
H1499 C1494 0.929 . S
O1500 Mn1476 2.385 . S
O1500 C1478 1.234 . S
O1501 Mn1476 2.209 . S
O1501 Mn1477 2.215 . S
O1501 C1478 1.283 . S
O1502 Mn1476 2.094 . S
O1502 C1480 1.240 . S
O1503 Mn1477 2.117 . S
O1503 C1480 1.264 . S
C1504 C1497 1.403 . S
C1504 C1505 1.399 . S
C1504 H1510 0.929 . S
C1505 C1485 1.449 . S
C1505 C1504 1.399 . S
C1505 H1511 0.930 . S
H1506 C1486 0.931 . S
H1507 C1487 0.930 . S
H1508 C1495 0.931 . S
H1509 C1496 0.929 . S
H1510 C1504 0.929 . S
H1511 C1505 0.930 . S
Mn1512 O1517 2.095 . S
Mn1512 O1527 2.162 . S
Mn1512 O1528 2.297 . S
Mn1512 O1536 2.385 . S
Mn1512 O1537 2.209 . S
Mn1512 O1538 2.094 . S
Mn1513 O1518 2.121 . S
Mn1513 N1520 2.257 . S
Mn1513 N1529 2.282 . S
Mn1513 O1537 2.215 . S
Mn1513 O1539 2.117 . S
C1514 O1536 1.234 . S
C1514 O1537 1.283 . S
C1515 O1527 1.281 . S
C1515 O1528 1.236 . S
C1516 O1538 1.240 . S
C1516 O1539 1.264 . S
O1517 Mn1512 2.095 . S
O1517 C1526 1.250 . S
O1518 Mn1513 2.121 . S
O1518 C1526 1.258 . S
C1519 N1520 1.326 . S
C1519 C1523 1.460 . S
C1519 H1525 0.929 . S
N1520 Mn1513 2.257 . S
N1520 C1519 1.326 . S
N1520 C1524 1.362 . S
C1521 C1522 1.262 . S
C1521 C1524 1.399 1_655 S
C1521 C1541 1.478 . S
C1522 C1521 1.262 . S
C1522 C1523 1.477 1_655 S
C1522 H1542 0.931 . S
C1523 C1519 1.460 . S
C1523 C1522 1.477 1_455 S
C1523 H1543 0.930 . S
C1524 N1520 1.362 . S
C1524 C1521 1.399 1_455 S
C1524 C1534 1.476 . S
H1525 C1519 0.929 . S
C1526 O1517 1.250 . S
C1526 O1518 1.258 . S
O1527 Mn1512 2.162 . S
O1527 C1515 1.281 . S
O1528 Mn1512 2.297 . S
O1528 C1515 1.236 . S
N1529 Mn1513 2.282 . S
N1529 C1530 1.328 . S
N1529 C1534 1.318 . S
C1530 N1529 1.328 . S
C1530 C1531 1.457 . S
C1530 H1535 0.929 . S
C1531 C1530 1.457 . S
C1531 C1532 1.291 . S
C1531 H1544 0.931 . S
C1532 C1531 1.291 . S
C1532 C1533 1.373 . S
C1532 H1545 0.929 1_455 S
C1533 C1532 1.373 . S
C1533 C1534 1.396 . S
C1533 C1540 1.403 1_455 S
C1534 C1524 1.476 . S
C1534 N1529 1.318 . S
C1534 C1533 1.396 . S
H1535 C1530 0.929 . S
O1536 Mn1512 2.385 . S
O1536 C1514 1.234 . S
O1537 Mn1512 2.209 . S
O1537 Mn1513 2.215 . S
O1537 C1514 1.283 . S
O1538 Mn1512 2.094 . S
O1538 C1516 1.240 . S
O1539 Mn1513 2.117 . S
O1539 C1516 1.264 . S
C1540 C1533 1.403 1_655 S
C1540 C1541 1.399 . S
C1540 H1546 0.929 . S
C1541 C1521 1.478 . S
C1541 C1540 1.399 . S
C1541 H1547 0.930 . S
H1542 C1522 0.931 . S
H1543 C1523 0.930 . S
H1544 C1531 0.931 . S
H1545 C1532 0.929 1_655 S
H1546 C1540 0.929 . S
H1547 C1541 0.930 . S
Mn1548 O1553 2.095 . S
Mn1548 O1563 2.162 . S
Mn1548 O1564 2.297 . S
Mn1548 O1572 2.385 . S
Mn1548 O1573 2.209 . S
Mn1548 O1574 2.094 . S
Mn1549 O1554 2.121 . S
Mn1549 N1556 2.257 . S
Mn1549 N1565 2.282 . S
Mn1549 O1573 2.215 . S
Mn1549 O1575 2.117 . S
C1550 O1572 1.234 . S
C1550 O1573 1.283 . S
C1551 O1563 1.281 . S
C1551 O1564 1.236 . S
C1552 O1574 1.240 . S
C1552 O1575 1.264 . S
O1553 Mn1548 2.095 . S
O1553 C1562 1.250 . S
O1554 Mn1549 2.121 . S
O1554 C1562 1.258 . S
C1555 N1556 1.326 . S
C1555 C1559 1.460 . S
C1555 H1561 0.929 . S
N1556 Mn1549 2.257 . S
N1556 C1555 1.326 . S
N1556 C1560 1.362 . S
C1557 C1558 1.258 . S
C1557 C1560 1.431 . S
C1557 C1577 1.449 . S
C1558 C1557 1.258 . S
C1558 C1559 1.477 . S
C1558 H1578 0.931 . S
C1559 C1555 1.460 . S
C1559 C1558 1.477 . S
C1559 H1579 0.930 . S
C1560 N1556 1.362 . S
C1560 C1557 1.431 . S
C1560 C1570 1.476 . S
H1561 C1555 0.929 . S
C1562 O1553 1.250 . S
C1562 O1554 1.258 . S
O1563 Mn1548 2.162 . S
O1563 C1551 1.281 . S
O1564 Mn1548 2.297 . S
O1564 C1551 1.236 . S
N1565 Mn1549 2.282 . S
N1565 C1566 1.328 . S
N1565 C1570 1.318 . S
C1566 N1565 1.328 . S
C1566 C1567 1.457 . S
C1566 H1571 0.929 . S
C1567 C1566 1.457 . S
C1567 C1568 1.291 . S
C1567 H1580 0.931 . S
C1568 C1567 1.291 . S
C1568 C1569 1.373 . S
C1568 H1581 0.929 . S
C1569 C1568 1.373 . S
C1569 C1570 1.396 . S
C1569 C1576 1.403 . S
C1570 C1560 1.476 . S
C1570 N1565 1.318 . S
C1570 C1569 1.396 . S
H1571 C1566 0.929 . S
O1572 Mn1548 2.385 . S
O1572 C1550 1.234 . S
O1573 Mn1548 2.209 . S
O1573 Mn1549 2.215 . S
O1573 C1550 1.283 . S
O1574 Mn1548 2.094 . S
O1574 C1552 1.240 . S
O1575 Mn1549 2.117 . S
O1575 C1552 1.264 . S
C1576 C1569 1.403 . S
C1576 C1577 1.399 . S
C1576 H1582 0.929 . S
C1577 C1557 1.449 . S
C1577 C1576 1.399 . S
C1577 H1583 0.930 . S
H1578 C1558 0.931 . S
H1579 C1559 0.930 . S
H1580 C1567 0.931 . S
H1581 C1568 0.929 . S
H1582 C1576 0.929 . S
H1583 C1577 0.930 . S
Mn1584 O1589 2.095 . S
Mn1584 O1599 2.162 . S
Mn1584 O1600 2.297 . S
Mn1584 O1608 2.385 . S
Mn1584 O1609 2.209 . S
Mn1584 O1610 2.094 . S
Mn1585 O1590 2.121 . S
Mn1585 N1592 2.257 . S
Mn1585 N1601 2.282 . S
Mn1585 O1609 2.215 . S
Mn1585 O1611 2.117 . S
C1586 O1608 1.234 . S
C1586 O1609 1.283 . S
C1587 O1599 1.281 . S
C1587 O1600 1.236 . S
C1588 O1610 1.240 . S
C1588 O1611 1.264 . S
O1589 Mn1584 2.095 . S
O1589 C1598 1.250 . S
O1590 Mn1585 2.121 . S
O1590 C1598 1.258 . S
C1591 N1592 1.326 . S
C1591 C1595 1.460 . S
C1591 H1597 0.929 . S
N1592 Mn1585 2.257 . S
N1592 C1591 1.326 . S
N1592 C1596 1.362 . S
C1593 C1594 1.258 1_455 S
C1593 C1596 1.431 . S
C1593 C1613 1.449 1_455 S
C1594 C1593 1.258 1_655 S
C1594 C1595 1.477 1_655 S
C1594 H1614 0.931 . S
C1595 C1591 1.460 . S
C1595 C1594 1.477 1_455 S
C1595 H1615 0.930 . S
C1596 N1592 1.362 . S
C1596 C1593 1.431 . S
C1596 C1606 1.476 . S
H1597 C1591 0.929 . S
C1598 O1589 1.250 . S
C1598 O1590 1.258 . S
O1599 Mn1584 2.162 . S
O1599 C1587 1.281 . S
O1600 Mn1584 2.297 . S
O1600 C1587 1.236 . S
N1601 Mn1585 2.282 . S
N1601 C1602 1.328 . S
N1601 C1606 1.318 . S
C1602 N1601 1.328 . S
C1602 C1603 1.457 . S
C1602 H1607 0.929 . S
C1603 C1602 1.457 . S
C1603 C1604 1.291 . S
C1603 H1616 0.931 . S
C1604 C1603 1.291 . S
C1604 C1605 1.373 . S
C1604 H1617 0.929 1_455 S
C1605 C1604 1.373 . S
C1605 C1606 1.396 . S
C1605 C1612 1.403 1_455 S
C1606 C1596 1.476 . S
C1606 N1601 1.318 . S
C1606 C1605 1.396 . S
H1607 C1602 0.929 . S
O1608 Mn1584 2.385 . S
O1608 C1586 1.234 . S
O1609 Mn1584 2.209 . S
O1609 Mn1585 2.215 . S
O1609 C1586 1.283 . S
O1610 Mn1584 2.094 . S
O1610 C1588 1.240 . S
O1611 Mn1585 2.117 . S
O1611 C1588 1.264 . S
C1612 C1605 1.403 1_655 S
C1612 C1613 1.399 . S
C1612 H1618 0.929 . S
C1613 C1593 1.449 1_655 S
C1613 C1612 1.399 . S
C1613 H1619 0.930 . S
H1614 C1594 0.931 . S
H1615 C1595 0.930 . S
H1616 C1603 0.931 . S
H1617 C1604 0.929 1_655 S
H1618 C1612 0.929 . S
H1619 C1613 0.930 . S
Mn1620 O1625 2.095 . S
Mn1620 O1635 2.162 . S
Mn1620 O1636 2.297 . S
Mn1620 O1644 2.385 . S
Mn1620 O1645 2.209 . S
Mn1620 O1646 2.094 . S
Mn1621 O1626 2.121 . S
Mn1621 N1628 2.257 . S
Mn1621 N1637 2.282 . S
Mn1621 O1645 2.215 . S
Mn1621 O1647 2.117 . S
C1622 O1644 1.234 . S
C1622 O1645 1.283 . S
C1623 O1635 1.281 . S
C1623 O1636 1.236 . S
C1624 O1646 1.240 . S
C1624 O1647 1.264 . S
O1625 Mn1620 2.095 . S
O1625 C1634 1.250 . S
O1626 Mn1621 2.121 . S
O1626 C1634 1.258 . S
C1627 N1628 1.326 . S
C1627 C1631 1.460 . S
C1627 H1633 0.929 . S
N1628 Mn1621 2.257 . S
N1628 C1627 1.326 . S
N1628 C1632 1.362 . S
C1629 C1630 1.258 . S
C1629 C1632 1.431 . S
C1629 C1649 1.449 . S
C1630 C1629 1.258 . S
C1630 C1631 1.477 . S
C1630 H1650 0.931 . S
C1631 C1627 1.460 . S
C1631 C1630 1.477 . S
C1631 H1651 0.930 . S
C1632 N1628 1.362 . S
C1632 C1629 1.431 . S
C1632 C1642 1.476 . S
H1633 C1627 0.929 . S
C1634 O1625 1.250 . S
C1634 O1626 1.258 . S
O1635 Mn1620 2.162 . S
O1635 C1623 1.281 . S
O1636 Mn1620 2.297 . S
O1636 C1623 1.236 . S
N1637 Mn1621 2.282 . S
N1637 C1638 1.328 . S
N1637 C1642 1.318 . S
C1638 N1637 1.328 . S
C1638 C1639 1.457 . S
C1638 H1643 0.929 . S
C1639 C1638 1.457 . S
C1639 C1640 1.291 . S
C1639 H1652 0.931 . S
C1640 C1639 1.291 . S
C1640 C1641 1.373 . S
C1640 H1653 0.929 . S
C1641 C1640 1.373 . S
C1641 C1642 1.396 . S
C1641 C1648 1.403 . S
C1642 C1632 1.476 . S
C1642 N1637 1.318 . S
C1642 C1641 1.396 . S
H1643 C1638 0.929 . S
O1644 Mn1620 2.385 . S
O1644 C1622 1.234 . S
O1645 Mn1620 2.209 . S
O1645 Mn1621 2.215 . S
O1645 C1622 1.283 . S
O1646 Mn1620 2.094 . S
O1646 C1624 1.240 . S
O1647 Mn1621 2.117 . S
O1647 C1624 1.264 . S
C1648 C1641 1.403 . S
C1648 C1649 1.399 . S
C1648 H1654 0.929 . S
C1649 C1629 1.449 . S
C1649 C1648 1.399 . S
C1649 H1655 0.930 . S
H1650 C1630 0.931 . S
H1651 C1631 0.930 . S
H1652 C1639 0.931 . S
H1653 C1640 0.929 . S
H1654 C1648 0.929 . S
H1655 C1649 0.930 . S
Mn1656 O1661 2.095 . S
Mn1656 O1671 2.162 . S
Mn1656 O1672 2.297 . S
Mn1656 O1680 2.385 . S
Mn1656 O1681 2.209 . S
Mn1656 O1682 2.094 . S
Mn1657 O1662 2.121 . S
Mn1657 N1664 2.257 . S
Mn1657 N1673 2.282 . S
Mn1657 O1681 2.215 . S
Mn1657 O1683 2.117 . S
C1658 O1680 1.234 . S
C1658 O1681 1.283 . S
C1659 O1671 1.281 . S
C1659 O1672 1.236 . S
C1660 O1682 1.240 . S
C1660 O1683 1.264 . S
O1661 Mn1656 2.095 . S
O1661 C1670 1.250 . S
O1662 Mn1657 2.121 . S
O1662 C1670 1.258 . S
C1663 N1664 1.326 . S
C1663 C1667 1.460 . S
C1663 H1669 0.929 . S
N1664 Mn1657 2.257 . S
N1664 C1663 1.326 . S
N1664 C1668 1.362 . S
C1665 C1666 1.258 . S
C1665 C1668 1.431 . S
C1665 C1685 1.449 . S
C1666 C1665 1.258 . S
C1666 C1667 1.477 . S
C1666 H1686 0.931 . S
C1667 C1663 1.460 . S
C1667 C1666 1.477 . S
C1667 H1687 0.930 . S
C1668 N1664 1.362 . S
C1668 C1665 1.431 . S
C1668 C1678 1.476 . S
H1669 C1663 0.929 . S
C1670 O1661 1.250 . S
C1670 O1662 1.258 . S
O1671 Mn1656 2.162 . S
O1671 C1659 1.281 . S
O1672 Mn1656 2.297 . S
O1672 C1659 1.236 . S
N1673 Mn1657 2.282 . S
N1673 C1674 1.328 . S
N1673 C1678 1.318 . S
C1674 N1673 1.328 . S
C1674 C1675 1.457 . S
C1674 H1679 0.929 . S
C1675 C1674 1.457 . S
C1675 C1676 1.291 . S
C1675 H1688 0.931 . S
C1676 C1675 1.291 . S
C1676 C1677 1.373 . S
C1676 H1689 0.929 . S
C1677 C1676 1.373 . S
C1677 C1678 1.396 . S
C1677 C1684 1.403 . S
C1678 C1668 1.476 . S
C1678 N1673 1.318 . S
C1678 C1677 1.396 . S
H1679 C1674 0.929 . S
O1680 Mn1656 2.385 . S
O1680 C1658 1.234 . S
O1681 Mn1656 2.209 . S
O1681 Mn1657 2.215 . S
O1681 C1658 1.283 . S
O1682 Mn1656 2.094 . S
O1682 C1660 1.240 . S
O1683 Mn1657 2.117 . S
O1683 C1660 1.264 . S
C1684 C1677 1.403 . S
C1684 C1685 1.399 . S
C1684 H1690 0.929 . S
C1685 C1665 1.449 . S
C1685 C1684 1.399 . S
C1685 H1691 0.930 . S
H1686 C1666 0.931 . S
H1687 C1667 0.930 . S
H1688 C1675 0.931 . S
H1689 C1676 0.929 . S
H1690 C1684 0.929 . S
H1691 C1685 0.930 . S
Mn1692 O1697 2.095 . S
Mn1692 O1707 2.162 . S
Mn1692 O1708 2.297 . S
Mn1692 O1716 2.385 . S
Mn1692 O1717 2.209 . S
Mn1692 O1718 2.094 . S
Mn1693 O1698 2.121 . S
Mn1693 N1700 2.257 . S
Mn1693 N1709 2.282 . S
Mn1693 O1717 2.215 . S
Mn1693 O1719 2.117 . S
C1694 O1716 1.234 . S
C1694 O1717 1.283 . S
C1695 O1707 1.281 . S
C1695 O1708 1.236 . S
C1696 O1718 1.240 . S
C1696 O1719 1.264 . S
O1697 Mn1692 2.095 . S
O1697 C1706 1.250 . S
O1698 Mn1693 2.121 . S
O1698 C1706 1.258 . S
C1699 N1700 1.326 . S
C1699 C1703 1.460 . S
C1699 H1705 0.929 . S
N1700 Mn1693 2.257 . S
N1700 C1699 1.326 . S
N1700 C1704 1.362 . S
C1701 C1702 1.258 . S
C1701 C1704 1.431 . S
C1701 C1721 1.449 . S
C1702 C1701 1.258 . S
C1702 C1703 1.477 . S
C1702 H1722 0.931 . S
C1703 C1699 1.460 . S
C1703 C1702 1.477 . S
C1703 H1723 0.930 . S
C1704 N1700 1.362 . S
C1704 C1701 1.431 . S
C1704 C1714 1.476 . S
H1705 C1699 0.929 . S
C1706 O1697 1.250 . S
C1706 O1698 1.258 . S
O1707 Mn1692 2.162 . S
O1707 C1695 1.281 . S
O1708 Mn1692 2.297 . S
O1708 C1695 1.236 . S
N1709 Mn1693 2.282 . S
N1709 C1710 1.328 . S
N1709 C1714 1.318 . S
C1710 N1709 1.328 . S
C1710 C1711 1.457 . S
C1710 H1715 0.929 . S
C1711 C1710 1.457 . S
C1711 C1712 1.291 . S
C1711 H1724 0.931 . S
C1712 C1711 1.291 . S
C1712 C1713 1.373 . S
C1712 H1725 0.929 . S
C1713 C1712 1.373 . S
C1713 C1714 1.396 . S
C1713 C1720 1.403 . S
C1714 C1704 1.476 . S
C1714 N1709 1.318 . S
C1714 C1713 1.396 . S
H1715 C1710 0.929 . S
O1716 Mn1692 2.385 . S
O1716 C1694 1.234 . S
O1717 Mn1692 2.209 . S
O1717 Mn1693 2.215 . S
O1717 C1694 1.283 . S
O1718 Mn1692 2.094 . S
O1718 C1696 1.240 . S
O1719 Mn1693 2.117 . S
O1719 C1696 1.264 . S
C1720 C1713 1.403 . S
C1720 C1721 1.399 . S
C1720 H1726 0.929 . S
C1721 C1701 1.449 . S
C1721 C1720 1.399 . S
C1721 H1727 0.930 . S
H1722 C1702 0.931 . S
H1723 C1703 0.930 . S
H1724 C1711 0.931 . S
H1725 C1712 0.929 . S
H1726 C1720 0.929 . S
H1727 C1721 0.930 . S
H1728 C1734 0.930 . S
H1729 C1738 0.930 . S
H1730 C1743 0.929 . S
H1731 C1741 0.929 . S
H1732 C1736 0.929 . S
H1733 C1742 0.929 . S
C1734 H1728 0.930 . S
C1734 C1735 1.367 . S
C1734 C1742 1.378 . S
C1735 C1734 1.367 . S
C1735 C1743 1.433 . S
C1736 H1732 0.929 . S
C1736 C1738 1.378 . S
C1736 C1740 1.350 . S
C1737 C1740 1.463 . S
C1737 C1742 1.350 . S
C1737 N1745 1.427 . S
C1738 H1729 0.930 . S
C1738 C1736 1.378 . S
C1738 C1739 1.367 . S
C1739 C1738 1.367 . S
C1739 C1741 1.433 . S
C1740 C1736 1.350 . S
C1740 C1737 1.463 . S
C1740 N1744 1.427 . S
C1741 H1731 0.929 . S
C1741 C1739 1.433 . S
C1741 N1744 1.384 . S
C1742 H1733 0.929 . S
C1742 C1734 1.378 . S
C1742 C1737 1.350 . S
C1743 H1730 0.929 . S
C1743 C1735 1.433 . S
C1743 N1745 1.384 . S
N1744 C1740 1.427 . S
N1744 C1741 1.384 . S
N1745 C1737 1.427 . S
N1745 C1743 1.384 . S
H1746 C1752 0.930 . S
H1747 C1756 0.930 . S
H1748 C1761 0.929 . S
H1749 C1759 0.929 . S
H1750 C1754 0.929 . S
H1751 C1760 0.929 1_655 S
C1752 H1746 0.930 . S
C1752 C1753 1.367 . S
C1752 C1760 1.378 . S
C1753 C1752 1.367 . S
C1753 C1761 1.433 . S
C1754 H1750 0.929 . S
C1754 C1756 1.378 . S
C1754 C1758 1.350 . S
C1755 C1758 1.463 . S
C1755 C1760 1.350 1_655 S
C1755 N1763 1.427 1_655 S
C1756 H1747 0.930 . S
C1756 C1754 1.378 . S
C1756 C1757 1.367 . S
C1757 C1756 1.367 . S
C1757 C1759 1.433 . S
C1758 C1754 1.350 . S
C1758 C1755 1.463 . S
C1758 N1762 1.427 . S
C1759 H1749 0.929 . S
C1759 C1757 1.433 . S
C1759 N1762 1.384 . S
C1760 H1751 0.929 1_455 S
C1760 C1752 1.378 . S
C1760 C1755 1.350 1_455 S
C1761 H1748 0.929 . S
C1761 C1753 1.433 . S
C1761 N1763 1.384 . S
N1762 C1758 1.427 . S
N1762 C1759 1.384 . S
N1763 C1755 1.427 1_455 S
N1763 C1761 1.384 . S
H1764 C1770 0.930 . S
H1765 C1774 0.930 . S
H1766 C1779 0.929 . S
H1767 C1777 0.929 . S
H1768 C1772 0.929 . S
H1769 C1778 0.929 . S
C1770 H1764 0.930 . S
C1770 C1771 1.367 . S
C1770 C1778 1.378 . S
C1771 C1770 1.367 . S
C1771 C1779 1.433 . S
C1772 H1768 0.929 . S
C1772 C1774 1.378 . S
C1772 C1776 1.350 . S
C1773 C1776 1.463 . S
C1773 C1778 1.350 . S
C1773 N1781 1.427 . S
C1774 H1765 0.930 . S
C1774 C1772 1.378 . S
C1774 C1775 1.367 . S
C1775 C1774 1.367 . S
C1775 C1777 1.433 . S
C1776 C1772 1.350 . S
C1776 C1773 1.463 . S
C1776 N1780 1.427 . S
C1777 H1767 0.929 . S
C1777 C1775 1.433 . S
C1777 N1780 1.384 . S
C1778 H1769 0.929 . S
C1778 C1770 1.378 . S
C1778 C1773 1.350 . S
C1779 H1766 0.929 . S
C1779 C1771 1.433 . S
C1779 N1781 1.384 . S
N1780 C1776 1.427 . S
N1780 C1777 1.384 . S
N1781 C1773 1.427 . S
N1781 C1779 1.384 . S
H1782 C1788 0.930 . S
H1783 C1792 0.930 . S
H1784 C1797 0.929 . S
H1785 C1795 0.929 . S
H1786 C1790 0.929 . S
H1787 C1796 0.929 . S
C1788 H1782 0.930 . S
C1788 C1789 1.367 . S
C1788 C1796 1.378 . S
C1789 C1788 1.367 . S
C1789 C1797 1.433 . S
C1790 H1786 0.929 . S
C1790 C1792 1.378 . S
C1790 C1794 1.350 . S
C1791 C1794 1.463 . S
C1791 C1796 1.350 . S
C1791 N1799 1.427 . S
C1792 H1783 0.930 . S
C1792 C1790 1.378 . S
C1792 C1793 1.367 . S
C1793 C1792 1.367 . S
C1793 C1795 1.433 . S
C1794 C1790 1.350 . S
C1794 C1791 1.463 . S
C1794 N1798 1.427 . S
C1795 H1785 0.929 . S
C1795 C1793 1.433 . S
C1795 N1798 1.384 . S
C1796 H1787 0.929 . S
C1796 C1788 1.378 . S
C1796 C1791 1.350 . S
C1797 H1784 0.929 . S
C1797 C1789 1.433 . S
C1797 N1799 1.384 . S
N1798 C1794 1.427 . S
N1798 C1795 1.384 . S
N1799 C1791 1.427 . S
N1799 C1797 1.384 . S
H1800 C1806 0.930 . S
H1801 C1810 0.930 . S
H1802 C1815 0.929 . S
H1803 C1813 0.929 . S
H1804 C1808 0.929 . S
H1805 C1814 0.929 . S
C1806 H1800 0.930 . S
C1806 C1807 1.367 . S
C1806 C1814 1.378 . S
C1807 C1806 1.367 . S
C1807 C1815 1.433 . S
C1808 H1804 0.929 . S
C1808 C1810 1.378 . S
C1808 C1812 1.350 . S
C1809 C1812 1.463 . S
C1809 C1814 1.350 . S
C1809 N1817 1.427 . S
C1810 H1801 0.930 . S
C1810 C1808 1.378 . S
C1810 C1811 1.367 . S
C1811 C1810 1.367 . S
C1811 C1813 1.433 . S
C1812 C1808 1.350 . S
C1812 C1809 1.463 . S
C1812 N1816 1.427 . S
C1813 H1803 0.929 . S
C1813 C1811 1.433 . S
C1813 N1816 1.384 . S
C1814 H1805 0.929 . S
C1814 C1806 1.378 . S
C1814 C1809 1.350 . S
C1815 H1802 0.929 . S
C1815 C1807 1.433 . S
C1815 N1817 1.384 . S
N1816 C1812 1.427 . S
N1816 C1813 1.384 . S
N1817 C1809 1.427 . S
N1817 C1815 1.384 . S
H1818 C1824 0.930 . S
H1819 C1828 0.930 . S
H1820 C1833 0.929 . S
H1821 C1831 0.929 . S
H1822 C1826 0.929 . S
H1823 C1832 0.929 . S
C1824 H1818 0.930 . S
C1824 C1825 1.367 . S
C1824 C1832 1.378 . S
C1825 C1824 1.367 . S
C1825 C1833 1.433 . S
C1826 H1822 0.929 . S
C1826 C1828 1.378 . S
C1826 C1830 1.350 . S
C1827 C1830 1.463 . S
C1827 C1832 1.350 . S
C1827 N1835 1.427 . S
C1828 H1819 0.930 . S
C1828 C1826 1.378 . S
C1828 C1829 1.367 . S
C1829 C1828 1.367 . S
C1829 C1831 1.433 . S
C1830 C1826 1.350 . S
C1830 C1827 1.463 . S
C1830 N1834 1.427 . S
C1831 H1821 0.929 . S
C1831 C1829 1.433 . S
C1831 N1834 1.384 . S
C1832 H1823 0.929 . S
C1832 C1824 1.378 . S
C1832 C1827 1.350 . S
C1833 H1820 0.929 . S
C1833 C1825 1.433 . S
C1833 N1835 1.384 . S
N1834 C1830 1.427 . S
N1834 C1831 1.384 . S
N1835 C1827 1.427 . S
N1835 C1833 1.384 . S
H1836 C1842 0.930 . S
H1837 C1846 0.930 . S
H1838 C1851 0.929 . S
H1839 C1849 0.929 . S
H1840 C1844 0.929 . S
H1841 C1850 0.929 . S
C1842 H1836 0.930 . S
C1842 C1843 1.367 . S
C1842 C1850 1.378 . S
C1843 C1842 1.367 . S
C1843 C1851 1.433 . S
C1844 H1840 0.929 . S
C1844 C1846 1.378 . S
C1844 C1848 1.350 . S
C1845 C1848 1.463 . S
C1845 C1850 1.350 . S
C1845 N1853 1.427 . S
C1846 H1837 0.930 . S
C1846 C1844 1.378 . S
C1846 C1847 1.367 . S
C1847 C1846 1.367 . S
C1847 C1849 1.433 . S
C1848 C1844 1.350 . S
C1848 C1845 1.463 . S
C1848 N1852 1.427 . S
C1849 H1839 0.929 . S
C1849 C1847 1.433 . S
C1849 N1852 1.384 . S
C1850 H1841 0.929 . S
C1850 C1842 1.378 . S
C1850 C1845 1.350 . S
C1851 H1838 0.929 . S
C1851 C1843 1.433 . S
C1851 N1853 1.384 . S
N1852 C1848 1.427 . S
N1852 C1849 1.384 . S
N1853 C1845 1.427 . S
N1853 C1851 1.384 . S
H1854 C1860 0.930 . S
H1855 C1864 0.930 . S
H1856 C1869 0.929 . S
H1857 C1867 0.929 . S
H1858 C1862 0.929 . S
H1859 C1868 0.906 1_655 S
C1860 H1854 0.930 . S
C1860 C1861 1.367 . S
C1860 C1868 1.412 . S
C1861 C1860 1.367 . S
C1861 C1869 1.433 . S
C1862 H1858 0.929 . S
C1862 C1864 1.378 . S
C1862 C1866 1.350 . S
C1863 C1866 1.463 . S
C1863 C1868 1.339 1_655 S
C1863 N1871 1.427 1_655 S
C1864 H1855 0.930 . S
C1864 C1862 1.378 . S
C1864 C1865 1.367 . S
C1865 C1864 1.367 . S
C1865 C1867 1.433 . S
C1866 C1862 1.350 . S
C1866 C1863 1.463 . S
C1866 N1870 1.427 . S
C1867 H1857 0.929 . S
C1867 C1865 1.433 . S
C1867 N1870 1.384 . S
C1868 H1859 0.906 1_455 S
C1868 C1860 1.412 . S
C1868 C1863 1.339 1_455 S
C1869 H1856 0.929 . S
C1869 C1861 1.433 . S
C1869 N1871 1.384 . S
N1870 C1866 1.427 . S
N1870 C1867 1.384 . S
N1871 C1863 1.427 1_455 S
N1871 C1869 1.384 . S
H1872 C1878 0.930 . S
H1873 C1882 0.930 . S
H1874 C1887 0.929 . S
H1875 C1885 0.929 . S
H1876 C1880 0.929 . S
H1877 C1886 0.929 . S
C1878 H1872 0.930 . S
C1878 C1879 1.367 . S
C1878 C1886 1.378 . S
C1879 C1878 1.367 . S
C1879 C1887 1.433 . S
C1880 H1876 0.929 . S
C1880 C1882 1.378 . S
C1880 C1884 1.350 . S
C1881 C1884 1.463 . S
C1881 C1886 1.350 . S
C1881 N1889 1.427 . S
C1882 H1873 0.930 . S
C1882 C1880 1.378 . S
C1882 C1883 1.367 . S
C1883 C1882 1.367 . S
C1883 C1885 1.433 . S
C1884 C1880 1.350 . S
C1884 C1881 1.463 . S
C1884 N1888 1.427 . S
C1885 H1875 0.929 . S
C1885 C1883 1.433 . S
C1885 N1888 1.384 . S
C1886 H1877 0.929 . S
C1886 C1878 1.378 . S
C1886 C1881 1.350 . S
C1887 H1874 0.929 . S
C1887 C1879 1.433 . S
C1887 N1889 1.384 . S
N1888 C1884 1.427 . S
N1888 C1885 1.384 . S
N1889 C1881 1.427 . S
N1889 C1887 1.384 . S
H1890 C1896 0.930 . S
H1891 C1900 0.930 . S
H1892 C1905 0.929 . S
H1893 C1903 0.929 . S
H1894 C1898 0.929 . S
H1895 C1904 0.929 . S
C1896 H1890 0.930 . S
C1896 C1897 1.367 . S
C1896 C1904 1.378 . S
C1897 C1896 1.367 . S
C1897 C1905 1.433 . S
C1898 H1894 0.929 . S
C1898 C1900 1.378 . S
C1898 C1902 1.350 . S
C1899 C1902 1.463 . S
C1899 C1904 1.350 . S
C1899 N1907 1.427 . S
C1900 H1891 0.930 . S
C1900 C1898 1.378 . S
C1900 C1901 1.367 . S
C1901 C1900 1.367 . S
C1901 C1903 1.433 . S
C1902 C1898 1.350 . S
C1902 C1899 1.463 . S
C1902 N1906 1.427 . S
C1903 H1893 0.929 . S
C1903 C1901 1.433 . S
C1903 N1906 1.384 . S
C1904 H1895 0.929 . S
C1904 C1896 1.378 . S
C1904 C1899 1.350 . S
C1905 H1892 0.929 . S
C1905 C1897 1.433 . S
C1905 N1907 1.384 . S
N1906 C1902 1.427 . S
N1906 C1903 1.384 . S
N1907 C1899 1.427 . S
N1907 C1905 1.384 . S
H1908 C1914 0.930 . S
H1909 C1918 0.930 . S
H1910 C1923 0.929 . S
H1911 C1921 0.929 . S
H1912 C1916 0.929 . S
H1913 C1922 0.929 . S
C1914 H1908 0.930 . S
C1914 C1915 1.367 . S
C1914 C1922 1.378 . S
C1915 C1914 1.367 . S
C1915 C1923 1.433 . S
C1916 H1912 0.929 . S
C1916 C1918 1.378 . S
C1916 C1920 1.350 . S
C1917 C1920 1.463 . S
C1917 C1922 1.350 . S
C1917 N1925 1.427 . S
C1918 H1909 0.930 . S
C1918 C1916 1.378 . S
C1918 C1919 1.367 . S
C1919 C1918 1.367 . S
C1919 C1921 1.433 . S
C1920 C1916 1.350 . S
C1920 C1917 1.463 . S
C1920 N1924 1.427 . S
C1921 H1911 0.929 . S
C1921 C1919 1.433 . S
C1921 N1924 1.384 . S
C1922 H1913 0.929 . S
C1922 C1914 1.378 . S
C1922 C1917 1.350 . S
C1923 H1910 0.929 . S
C1923 C1915 1.433 . S
C1923 N1925 1.384 . S
N1924 C1920 1.427 . S
N1924 C1921 1.384 . S
N1925 C1917 1.427 . S
N1925 C1923 1.384 . S
H1926 C1932 0.930 . S
H1927 C1936 0.930 . S
H1928 C1941 0.929 . S
H1929 C1939 0.929 . S
H1930 C1934 0.929 . S
H1931 C1940 0.929 1_554 S
C1932 H1926 0.930 . S
C1932 C1933 1.367 . S
C1932 C1940 1.378 . S
C1933 C1932 1.367 . S
C1933 C1941 1.433 . S
C1934 H1930 0.929 . S
C1934 C1936 1.378 . S
C1934 C1938 1.350 . S
C1935 C1938 1.463 . S
C1935 C1940 1.350 1_554 S
C1935 N1943 1.427 1_554 S
C1936 H1927 0.930 . S
C1936 C1934 1.378 . S
C1936 C1937 1.367 . S
C1937 C1936 1.367 . S
C1937 C1939 1.433 . S
C1938 C1934 1.350 . S
C1938 C1935 1.463 . S
C1938 N1942 1.427 . S
C1939 H1929 0.929 . S
C1939 C1937 1.433 . S
C1939 N1942 1.384 . S
C1940 H1931 0.929 1_556 S
C1940 C1932 1.378 . S
C1940 C1935 1.350 1_556 S
C1941 H1928 0.929 . S
C1941 C1933 1.433 . S
C1941 N1943 1.384 . S
N1942 C1938 1.427 . S
N1942 C1939 1.384 . S
N1943 C1935 1.427 1_556 S
N1943 C1941 1.384 . S
H1944 C1950 0.930 . S
H1945 C1954 0.930 . S
H1946 C1959 0.929 . S
H1947 C1957 0.929 . S
H1948 C1952 0.929 . S
H1949 C1958 0.929 . S
C1950 H1944 0.930 . S
C1950 C1951 1.367 . S
C1950 C1958 1.378 . S
C1951 C1950 1.367 . S
C1951 C1959 1.433 . S
C1952 H1948 0.929 . S
C1952 C1954 1.378 . S
C1952 C1956 1.350 . S
C1953 C1956 1.463 . S
C1953 C1958 1.350 . S
C1953 N1961 1.427 . S
C1954 H1945 0.930 . S
C1954 C1952 1.378 . S
C1954 C1955 1.367 . S
C1955 C1954 1.367 . S
C1955 C1957 1.433 . S
C1956 C1952 1.350 . S
C1956 C1953 1.463 . S
C1956 N1960 1.427 . S
C1957 H1947 0.929 . S
C1957 C1955 1.433 . S
C1957 N1960 1.384 . S
C1958 H1949 0.929 . S
C1958 C1950 1.378 . S
C1958 C1953 1.350 . S
C1959 H1946 0.929 . S
C1959 C1951 1.433 . S
C1959 N1961 1.384 . S
N1960 C1956 1.427 . S
N1960 C1957 1.384 . S
N1961 C1953 1.427 . S
N1961 C1959 1.384 . S
H1962 C1968 0.930 . S
H1963 C1972 0.930 . S
H1964 C1977 0.929 . S
H1965 C1975 0.929 . S
H1966 C1970 0.929 . S
H1967 C1976 0.929 . S
C1968 H1962 0.930 . S
C1968 C1969 1.367 . S
C1968 C1976 1.378 . S
C1969 C1968 1.367 . S
C1969 C1977 1.433 . S
C1970 H1966 0.929 . S
C1970 C1972 1.378 . S
C1970 C1974 1.350 . S
C1971 C1974 1.463 . S
C1971 C1976 1.350 . S
C1971 N1979 1.427 . S
C1972 H1963 0.930 . S
C1972 C1970 1.378 . S
C1972 C1973 1.367 . S
C1973 C1972 1.367 . S
C1973 C1975 1.433 . S
C1974 C1970 1.350 . S
C1974 C1971 1.463 . S
C1974 N1978 1.427 . S
C1975 H1965 0.929 . S
C1975 C1973 1.433 . S
C1975 N1978 1.384 . S
C1976 H1967 0.929 . S
C1976 C1968 1.378 . S
C1976 C1971 1.350 . S
C1977 H1964 0.929 . S
C1977 C1969 1.433 . S
C1977 N1979 1.384 . S
N1978 C1974 1.427 . S
N1978 C1975 1.384 . S
N1979 C1971 1.427 . S
N1979 C1977 1.384 . S
H1980 C1986 0.930 . S
H1981 C1990 0.930 . S
H1982 C1995 0.929 . S
H1983 C1993 0.929 . S
H1984 C1988 0.929 . S
H1985 C1994 0.929 . S
C1986 H1980 0.930 . S
C1986 C1987 1.367 . S
C1986 C1994 1.378 . S
C1987 C1986 1.367 . S
C1987 C1995 1.433 . S
C1988 H1984 0.929 . S
C1988 C1990 1.378 . S
C1988 C1992 1.350 . S
C1989 C1992 1.463 . S
C1989 C1994 1.350 . S
C1989 N1997 1.427 . S
C1990 H1981 0.930 . S
C1990 C1988 1.378 . S
C1990 C1991 1.367 . S
C1991 C1990 1.367 . S
C1991 C1993 1.433 . S
C1992 C1988 1.350 . S
C1992 C1989 1.463 . S
C1992 N1996 1.427 . S
C1993 H1983 0.929 . S
C1993 C1991 1.433 . S
C1993 N1996 1.384 . S
C1994 H1985 0.929 . S
C1994 C1986 1.378 . S
C1994 C1989 1.350 . S
C1995 H1982 0.929 . S
C1995 C1987 1.433 . S
C1995 N1997 1.384 . S
N1996 C1992 1.427 . S
N1996 C1993 1.384 . S
N1997 C1989 1.427 . S
N1997 C1995 1.384 . S
H1998 C2004 0.930 . S
H1999 C2008 0.930 . S
H2000 C2013 0.929 . S
H2001 C2011 0.929 . S
H2002 C2006 0.929 . S
H2003 C2012 0.929 1_556 S
C2004 H1998 0.930 . S
C2004 C2005 1.367 . S
C2004 C2012 1.378 . S
C2005 C2004 1.367 . S
C2005 C2013 1.433 . S
C2006 H2002 0.929 . S
C2006 C2008 1.378 . S
C2006 C2010 1.350 . S
C2007 C2010 1.463 . S
C2007 C2012 1.350 1_556 S
C2007 N2015 1.427 1_556 S
C2008 H1999 0.930 . S
C2008 C2006 1.378 . S
C2008 C2009 1.367 . S
C2009 C2008 1.367 . S
C2009 C2011 1.433 . S
C2010 C2006 1.350 . S
C2010 C2007 1.463 . S
C2010 N2014 1.427 . S
C2011 H2001 0.929 . S
C2011 C2009 1.433 . S
C2011 N2014 1.384 . S
C2012 H2003 0.929 1_554 S
C2012 C2004 1.378 . S
C2012 C2007 1.350 1_554 S
C2013 H2000 0.929 . S
C2013 C2005 1.433 . S
C2013 N2015 1.384 . S
N2014 C2010 1.427 . S
N2014 C2011 1.384 . S
N2015 C2007 1.427 1_554 S
N2015 C2013 1.384 . S
H2016 C2022 0.930 . S
H2017 C2026 0.930 . S
H2018 C2031 0.929 . S
H2019 C2029 0.929 . S
H2020 C2024 0.929 . S
H2021 C2030 0.929 . S
C2022 H2016 0.930 . S
C2022 C2023 1.367 . S
C2022 C2030 1.378 . S
C2023 C2022 1.367 . S
C2023 C2031 1.433 . S
C2024 H2020 0.929 . S
C2024 C2026 1.378 . S
C2024 C2028 1.350 . S
C2025 C2028 1.463 . S
C2025 C2030 1.350 . S
C2025 N2033 1.427 . S
C2026 H2017 0.930 . S
C2026 C2024 1.378 . S
C2026 C2027 1.367 . S
C2027 C2026 1.367 . S
C2027 C2029 1.433 . S
C2028 C2024 1.350 . S
C2028 C2025 1.463 . S
C2028 N2032 1.427 . S
C2029 H2019 0.929 . S
C2029 C2027 1.433 . S
C2029 N2032 1.384 . S
C2030 H2021 0.929 . S
C2030 C2022 1.378 . S
C2030 C2025 1.350 . S
C2031 H2018 0.929 . S
C2031 C2023 1.433 . S
C2031 N2033 1.384 . S
N2032 C2028 1.427 . S
N2032 C2029 1.384 . S
N2033 C2025 1.427 . S
N2033 C2031 1.384 . S
H2034 C2040 0.930 . S
H2035 C2044 0.930 . S
H2036 C2049 0.929 . S
H2037 C2047 0.929 . S
H2038 C2042 0.929 . S
H2039 C2048 0.929 . S
C2040 H2034 0.930 . S
C2040 C2041 1.367 . S
C2040 C2048 1.378 . S
C2041 C2040 1.367 . S
C2041 C2049 1.433 . S
C2042 H2038 0.929 . S
C2042 C2044 1.378 . S
C2042 C2046 1.350 . S
C2043 C2046 1.463 . S
C2043 C2048 1.350 . S
C2043 N2051 1.427 . S
C2044 H2035 0.930 . S
C2044 C2042 1.378 . S
C2044 C2045 1.367 . S
C2045 C2044 1.367 . S
C2045 C2047 1.433 . S
C2046 C2042 1.350 . S
C2046 C2043 1.463 . S
C2046 N2050 1.427 . S
C2047 H2037 0.929 . S
C2047 C2045 1.433 . S
C2047 N2050 1.384 . S
C2048 H2039 0.929 . S
C2048 C2040 1.378 . S
C2048 C2043 1.350 . S
C2049 H2036 0.929 . S
C2049 C2041 1.433 . S
C2049 N2051 1.384 . S
N2050 C2046 1.427 . S
N2050 C2047 1.384 . S
N2051 C2043 1.427 . S
N2051 C2049 1.384 . S
H2052 C2058 0.930 . S
H2053 C2062 0.930 . S
H2054 C2067 0.929 . S
H2055 C2065 0.929 . S
H2056 C2060 0.929 . S
H2057 C2066 0.929 . S
C2058 H2052 0.930 . S
C2058 C2059 1.367 . S
C2058 C2066 1.378 . S
C2059 C2058 1.367 . S
C2059 C2067 1.433 . S
C2060 H2056 0.929 . S
C2060 C2062 1.378 . S
C2060 C2064 1.350 . S
C2061 C2064 1.463 . S
C2061 C2066 1.350 . S
C2061 N2069 1.427 . S
C2062 H2053 0.930 . S
C2062 C2060 1.378 . S
C2062 C2063 1.367 . S
C2063 C2062 1.367 . S
C2063 C2065 1.433 . S
C2064 C2060 1.350 . S
C2064 C2061 1.463 . S
C2064 N2068 1.427 . S
C2065 H2055 0.929 . S
C2065 C2063 1.433 . S
C2065 N2068 1.384 . S
C2066 H2057 0.929 . S
C2066 C2058 1.378 . S
C2066 C2061 1.350 . S
C2067 H2054 0.929 . S
C2067 C2059 1.433 . S
C2067 N2069 1.384 . S
N2068 C2064 1.427 . S
N2068 C2065 1.384 . S
N2069 C2061 1.427 . S
N2069 C2067 1.384 . S
H2070 C2076 0.930 . S
H2071 C2080 0.930 . S
H2072 C2085 0.929 . S
H2073 C2083 0.929 . S
H2074 C2078 0.929 . S
H2075 C2084 0.929 . S
C2076 H2070 0.930 . S
C2076 C2077 1.367 . S
C2076 C2084 1.378 . S
C2077 C2076 1.367 . S
C2077 C2085 1.433 . S
C2078 H2074 0.929 . S
C2078 C2080 1.378 . S
C2078 C2082 1.350 . S
C2079 C2082 1.463 . S
C2079 C2084 1.350 . S
C2079 N2087 1.427 . S
C2080 H2071 0.930 . S
C2080 C2078 1.378 . S
C2080 C2081 1.367 . S
C2081 C2080 1.367 . S
C2081 C2083 1.433 . S
C2082 C2078 1.350 . S
C2082 C2079 1.463 . S
C2082 N2086 1.427 . S
C2083 H2073 0.929 . S
C2083 C2081 1.433 . S
C2083 N2086 1.384 . S
C2084 H2075 0.929 . S
C2084 C2076 1.378 . S
C2084 C2079 1.350 . S
C2085 H2072 0.929 . S
C2085 C2077 1.433 . S
C2085 N2087 1.384 . S
N2086 C2082 1.427 . S
N2086 C2083 1.384 . S
N2087 C2079 1.427 . S
N2087 C2085 1.384 . S
H2088 C2094 0.930 . S
H2089 C2098 0.930 . S
H2090 C2103 0.929 . S
H2091 C2101 0.929 . S
H2092 C2096 0.929 . S
H2093 C2102 0.929 . S
C2094 H2088 0.930 . S
C2094 C2095 1.367 . S
C2094 C2102 1.378 . S
C2095 C2094 1.367 . S
C2095 C2103 1.433 . S
C2096 H2092 0.929 . S
C2096 C2098 1.378 . S
C2096 C2100 1.350 1_545 S
C2097 C2100 1.463 . S
C2097 C2102 1.350 . S
C2097 N2105 1.427 . S
C2098 H2089 0.930 . S
C2098 C2096 1.378 . S
C2098 C2099 1.367 . S
C2099 C2098 1.367 . S
C2099 C2101 1.433 . S
C2100 C2096 1.350 1_565 S
C2100 C2097 1.463 . S
C2100 N2104 1.427 1_565 S
C2101 H2091 0.929 . S
C2101 C2099 1.433 . S
C2101 N2104 1.384 . S
C2102 H2093 0.929 . S
C2102 C2094 1.378 . S
C2102 C2097 1.350 . S
C2103 H2090 0.929 . S
C2103 C2095 1.433 . S
C2103 N2105 1.384 . S
N2104 C2100 1.427 1_545 S
N2104 C2101 1.384 . S
N2105 C2097 1.427 . S
N2105 C2103 1.384 . S
H2106 C2112 0.930 . S
H2107 C2116 0.930 . S
H2108 C2121 0.929 . S
H2109 C2119 0.929 . S
H2110 C2114 0.929 . S
H2111 C2120 0.929 . S
C2112 H2106 0.930 . S
C2112 C2113 1.367 . S
C2112 C2120 1.378 . S
C2113 C2112 1.367 . S
C2113 C2121 1.433 . S
C2114 H2110 0.929 . S
C2114 C2116 1.378 . S
C2114 C2118 1.350 . S
C2115 C2118 1.463 . S
C2115 C2120 1.350 . S
C2115 N2123 1.427 . S
C2116 H2107 0.930 . S
C2116 C2114 1.378 . S
C2116 C2117 1.367 . S
C2117 C2116 1.367 . S
C2117 C2119 1.433 . S
C2118 C2114 1.350 . S
C2118 C2115 1.463 . S
C2118 N2122 1.427 . S
C2119 H2109 0.929 . S
C2119 C2117 1.433 . S
C2119 N2122 1.384 . S
C2120 H2111 0.929 . S
C2120 C2112 1.378 . S
C2120 C2115 1.350 . S
C2121 H2108 0.929 . S
C2121 C2113 1.433 . S
C2121 N2123 1.384 . S
N2122 C2118 1.427 . S
N2122 C2119 1.384 . S
N2123 C2115 1.427 . S
N2123 C2121 1.384 . S
H2124 C2130 0.930 . S
H2125 C2134 0.930 . S
H2126 C2139 0.929 . S
H2127 C2137 0.929 . S
H2128 C2132 0.929 . S
H2129 C2138 0.929 . S
C2130 H2124 0.930 . S
C2130 C2131 1.367 . S
C2130 C2138 1.378 . S
C2131 C2130 1.367 . S
C2131 C2139 1.433 . S
C2132 H2128 0.929 . S
C2132 C2134 1.378 . S
C2132 C2136 1.350 . S
C2133 C2136 1.463 . S
C2133 C2138 1.350 . S
C2133 N2141 1.427 . S
C2134 H2125 0.930 . S
C2134 C2132 1.378 . S
C2134 C2135 1.367 . S
C2135 C2134 1.367 . S
C2135 C2137 1.433 . S
C2136 C2132 1.350 . S
C2136 C2133 1.463 . S
C2136 N2140 1.427 . S
C2137 H2127 0.929 . S
C2137 C2135 1.433 . S
C2137 N2140 1.384 . S
C2138 H2129 0.929 . S
C2138 C2130 1.378 . S
C2138 C2133 1.350 . S
C2139 H2126 0.929 . S
C2139 C2131 1.433 . S
C2139 N2141 1.384 . S
N2140 C2136 1.427 . S
N2140 C2137 1.384 . S
N2141 C2133 1.427 . S
N2141 C2139 1.384 . S
H2142 C2148 0.930 . S
H2143 C2152 0.930 . S
H2144 C2157 0.929 . S
H2145 C2155 0.929 . S
H2146 C2150 0.929 . S
H2147 C2156 0.929 . S
C2148 H2142 0.930 . S
C2148 C2149 1.367 . S
C2148 C2156 1.378 . S
C2149 C2148 1.367 . S
C2149 C2157 1.433 . S
C2150 H2146 0.929 . S
C2150 C2152 1.378 . S
C2150 C2154 1.350 . S
C2151 C2154 1.463 . S
C2151 C2156 1.350 . S
C2151 N2159 1.427 . S
C2152 H2143 0.930 . S
C2152 C2150 1.378 . S
C2152 C2153 1.367 . S
C2153 C2152 1.367 . S
C2153 C2155 1.433 . S
C2154 C2150 1.350 . S
C2154 C2151 1.463 . S
C2154 N2158 1.427 . S
C2155 H2145 0.929 . S
C2155 C2153 1.433 . S
C2155 N2158 1.384 . S
C2156 H2147 0.929 . S
C2156 C2148 1.378 . S
C2156 C2151 1.350 . S
C2157 H2144 0.929 . S
C2157 C2149 1.433 . S
C2157 N2159 1.384 . S
N2158 C2154 1.427 . S
N2158 C2155 1.384 . S
N2159 C2151 1.427 . S
N2159 C2157 1.384 . S
H2160 C2166 0.930 . S
H2161 C2170 0.930 . S
H2162 C2175 0.929 . S
H2163 C2173 0.929 . S
H2164 C2168 0.929 . S
H2165 C2174 0.929 . S
C2166 H2160 0.930 . S
C2166 C2167 1.367 . S
C2166 C2174 1.378 . S
C2167 C2166 1.367 . S
C2167 C2175 1.433 . S
C2168 H2164 0.929 . S
C2168 C2170 1.378 . S
C2168 C2172 1.350 . S
C2169 C2172 1.463 . S
C2169 C2174 1.350 . S
C2169 N2177 1.427 . S
C2170 H2161 0.930 . S
C2170 C2168 1.378 . S
C2170 C2171 1.367 . S
C2171 C2170 1.367 . S
C2171 C2173 1.433 . S
C2172 C2168 1.350 . S
C2172 C2169 1.463 . S
C2172 N2176 1.427 . S
C2173 H2163 0.929 . S
C2173 C2171 1.433 . S
C2173 N2176 1.384 . S
C2174 H2165 0.929 . S
C2174 C2166 1.378 . S
C2174 C2169 1.350 . S
C2175 H2162 0.929 . S
C2175 C2167 1.433 . S
C2175 N2177 1.384 . S
N2176 C2172 1.427 . S
N2176 C2173 1.384 . S
N2177 C2169 1.427 . S
N2177 C2175 1.384 . S
H2178 C2184 0.930 . S
H2179 C2188 0.930 . S
H2180 C2193 0.929 . S
H2181 C2191 0.929 . S
H2182 C2186 0.929 . S
H2183 C2192 0.931 . S
C2184 H2178 0.930 . S
C2184 C2185 1.367 . S
C2184 C2192 1.378 . S
C2185 C2184 1.367 . S
C2185 C2193 1.433 . S
C2186 H2182 0.929 . S
C2186 C2188 1.378 . S
C2186 C2190 1.350 . S
C2187 C2190 1.463 . S
C2187 C2192 1.350 1_455 S
C2187 N2195 1.427 1_455 S
C2188 H2179 0.930 . S
C2188 C2186 1.378 . S
C2188 C2189 1.367 . S
C2189 C2188 1.367 . S
C2189 C2191 1.433 . S
C2190 C2186 1.350 . S
C2190 C2187 1.463 . S
C2190 N2194 1.427 . S
C2191 H2181 0.929 . S
C2191 C2189 1.433 . S
C2191 N2194 1.384 . S
C2192 H2183 0.931 . S
C2192 C2184 1.378 . S
C2192 C2187 1.350 1_655 S
C2193 H2180 0.929 . S
C2193 C2185 1.433 . S
C2193 N2195 1.384 . S
N2194 C2190 1.427 . S
N2194 C2191 1.384 . S
N2195 C2187 1.427 1_655 S
N2195 C2193 1.384 . S
H2196 C2202 0.930 . S
H2197 C2206 0.930 . S
H2198 C2211 0.929 . S
H2199 C2209 0.929 . S
H2200 C2204 0.929 . S
H2201 C2210 0.929 . S
C2202 H2196 0.930 . S
C2202 C2203 1.367 . S
C2202 C2210 1.378 . S
C2203 C2202 1.367 . S
C2203 C2211 1.433 . S
C2204 H2200 0.929 . S
C2204 C2206 1.378 . S
C2204 C2208 1.350 . S
C2205 C2208 1.463 . S
C2205 C2210 1.350 . S
C2205 N2213 1.427 . S
C2206 H2197 0.930 . S
C2206 C2204 1.378 . S
C2206 C2207 1.367 . S
C2207 C2206 1.367 . S
C2207 C2209 1.433 . S
C2208 C2204 1.350 . S
C2208 C2205 1.463 . S
C2208 N2212 1.427 . S
C2209 H2199 0.929 . S
C2209 C2207 1.433 . S
C2209 N2212 1.384 . S
C2210 H2201 0.929 . S
C2210 C2202 1.378 . S
C2210 C2205 1.350 . S
C2211 H2198 0.929 . S
C2211 C2203 1.433 . S
C2211 N2213 1.384 . S
N2212 C2208 1.427 . S
N2212 C2209 1.384 . S
N2213 C2205 1.427 . S
N2213 C2211 1.384 . S
H2214 C2220 0.930 . S
H2215 C2224 0.930 . S
H2216 C2229 0.929 . S
H2217 C2227 0.929 . S
H2218 C2222 0.929 . S
H2219 C2228 0.929 . S
C2220 H2214 0.930 . S
C2220 C2221 1.367 . S
C2220 C2228 1.378 . S
C2221 C2220 1.367 . S
C2221 C2229 1.433 . S
C2222 H2218 0.929 . S
C2222 C2224 1.378 . S
C2222 C2226 1.350 . S
C2223 C2226 1.463 . S
C2223 C2228 1.350 . S
C2223 N2231 1.427 . S
C2224 H2215 0.930 . S
C2224 C2222 1.378 . S
C2224 C2225 1.367 . S
C2225 C2224 1.367 . S
C2225 C2227 1.433 . S
C2226 C2222 1.350 . S
C2226 C2223 1.463 . S
C2226 N2230 1.427 . S
C2227 H2217 0.929 . S
C2227 C2225 1.433 . S
C2227 N2230 1.384 . S
C2228 H2219 0.929 . S
C2228 C2220 1.378 . S
C2228 C2223 1.350 . S
C2229 H2216 0.929 . S
C2229 C2221 1.433 . S
C2229 N2231 1.384 . S
N2230 C2226 1.427 . S
N2230 C2227 1.384 . S
N2231 C2223 1.427 . S
N2231 C2229 1.384 . S
H2232 C2238 0.930 . S
H2233 C2242 0.930 . S
H2234 C2247 0.929 . S
H2235 C2245 0.929 . S
H2236 C2240 0.929 . S
H2237 C2246 0.929 . S
C2238 H2232 0.930 . S
C2238 C2239 1.367 . S
C2238 C2246 1.378 . S
C2239 C2238 1.367 . S
C2239 C2247 1.433 . S
C2240 H2236 0.929 . S
C2240 C2242 1.378 . S
C2240 C2244 1.350 . S
C2241 C2244 1.463 . S
C2241 C2246 1.350 . S
C2241 N2249 1.427 . S
C2242 H2233 0.930 . S
C2242 C2240 1.378 . S
C2242 C2243 1.367 . S
C2243 C2242 1.367 . S
C2243 C2245 1.433 . S
C2244 C2240 1.350 . S
C2244 C2241 1.463 . S
C2244 N2248 1.427 . S
C2245 H2235 0.929 . S
C2245 C2243 1.433 . S
C2245 N2248 1.384 . S
C2246 H2237 0.929 . S
C2246 C2238 1.378 . S
C2246 C2241 1.350 . S
C2247 H2234 0.929 . S
C2247 C2239 1.433 . S
C2247 N2249 1.384 . S
N2248 C2244 1.427 . S
N2248 C2245 1.384 . S
N2249 C2241 1.427 . S
N2249 C2247 1.384 . S
H2250 C2256 0.930 . S
H2251 C2260 0.930 . S
H2252 C2265 0.929 . S
H2253 C2263 0.929 . S
H2254 C2258 0.929 . S
H2255 C2264 0.929 . S
C2256 H2250 0.930 . S
C2256 C2257 1.367 . S
C2256 C2264 1.378 . S
C2257 C2256 1.367 . S
C2257 C2265 1.433 . S
C2258 H2254 0.929 . S
C2258 C2260 1.378 . S
C2258 C2262 1.350 . S
C2259 C2262 1.463 . S
C2259 C2264 1.350 . S
C2259 N2267 1.427 . S
C2260 H2251 0.930 . S
C2260 C2258 1.378 . S
C2260 C2261 1.367 . S
C2261 C2260 1.367 . S
C2261 C2263 1.433 . S
C2262 C2258 1.350 . S
C2262 C2259 1.463 . S
C2262 N2266 1.427 . S
C2263 H2253 0.929 . S
C2263 C2261 1.433 . S
C2263 N2266 1.384 . S
C2264 H2255 0.929 . S
C2264 C2256 1.378 . S
C2264 C2259 1.350 . S
C2265 H2252 0.929 . S
C2265 C2257 1.433 . S
C2265 N2267 1.384 . S
N2266 C2262 1.427 . S
N2266 C2263 1.384 . S
N2267 C2259 1.427 . S
N2267 C2265 1.384 . S
H2268 C2274 0.930 . S
H2269 C2278 0.930 . S
H2270 C2283 0.929 . S
H2271 C2281 0.929 . S
H2272 C2276 0.929 . S
H2273 C2282 0.929 . S
C2274 H2268 0.930 . S
C2274 C2275 1.367 . S
C2274 C2282 1.378 . S
C2275 C2274 1.367 . S
C2275 C2283 1.433 . S
C2276 H2272 0.929 . S
C2276 C2278 1.378 . S
C2276 C2280 1.350 . S
C2277 C2280 1.463 . S
C2277 C2282 1.350 . S
C2277 N2285 1.427 . S
C2278 H2269 0.930 . S
C2278 C2276 1.378 . S
C2278 C2279 1.367 . S
C2279 C2278 1.367 . S
C2279 C2281 1.433 . S
C2280 C2276 1.350 . S
C2280 C2277 1.463 . S
C2280 N2284 1.427 . S
C2281 H2271 0.929 . S
C2281 C2279 1.433 . S
C2281 N2284 1.384 . S
C2282 H2273 0.929 . S
C2282 C2274 1.378 . S
C2282 C2277 1.350 . S
C2283 H2270 0.929 . S
C2283 C2275 1.433 . S
C2283 N2285 1.384 . S
N2284 C2280 1.427 . S
N2284 C2281 1.384 . S
N2285 C2277 1.427 . S
N2285 C2283 1.384 . S
H2286 C2292 0.930 . S
H2287 C2296 0.930 . S
H2288 C2301 0.929 . S
H2289 C2299 0.929 . S
H2290 C2294 0.929 . S
H2291 C2300 0.929 . S
C2292 H2286 0.930 . S
C2292 C2293 1.367 . S
C2292 C2300 1.378 . S
C2293 C2292 1.367 . S
C2293 C2301 1.433 . S
C2294 H2290 0.929 . S
C2294 C2296 1.378 . S
C2294 C2298 1.350 1_655 S
C2295 C2298 1.463 . S
C2295 C2300 1.350 . S
C2295 N2303 1.427 . S
C2296 H2287 0.930 . S
C2296 C2294 1.378 . S
C2296 C2297 1.367 . S
C2297 C2296 1.367 . S
C2297 C2299 1.433 . S
C2298 C2294 1.350 1_455 S
C2298 C2295 1.463 . S
C2298 N2302 1.427 1_455 S
C2299 H2289 0.929 . S
C2299 C2297 1.433 . S
C2299 N2302 1.384 . S
C2300 H2291 0.929 . S
C2300 C2292 1.378 . S
C2300 C2295 1.350 . S
C2301 H2288 0.929 . S
C2301 C2293 1.433 . S
C2301 N2303 1.384 . S
N2302 C2298 1.427 1_655 S
N2302 C2299 1.384 . S
N2303 C2295 1.427 . S
N2303 C2301 1.384 . S
H2304 C2310 0.930 . S
H2305 C2314 0.930 . S
H2306 C2319 0.929 . S
H2307 C2317 0.929 . S
H2308 C2312 0.929 . S
H2309 C2318 0.929 . S
C2310 H2304 0.930 . S
C2310 C2311 1.367 . S
C2310 C2318 1.378 . S
C2311 C2310 1.367 . S
C2311 C2319 1.433 . S
C2312 H2308 0.929 . S
C2312 C2314 1.378 . S
C2312 C2316 1.350 . S
C2313 C2316 1.463 . S
C2313 C2318 1.350 . S
C2313 N2321 1.427 . S
C2314 H2305 0.930 . S
C2314 C2312 1.378 . S
C2314 C2315 1.367 . S
C2315 C2314 1.367 . S
C2315 C2317 1.433 . S
C2316 C2312 1.350 . S
C2316 C2313 1.463 . S
C2316 N2320 1.427 . S
C2317 H2307 0.929 . S
C2317 C2315 1.433 . S
C2317 N2320 1.384 . S
C2318 H2309 0.929 . S
C2318 C2310 1.378 . S
C2318 C2313 1.350 . S
C2319 H2306 0.929 . S
C2319 C2311 1.433 . S
C2319 N2321 1.384 . S
N2320 C2316 1.427 . S
N2320 C2317 1.384 . S
N2321 C2313 1.427 . S
N2321 C2319 1.384 . S
H2322 C2328 0.930 . S
H2323 C2332 0.930 . S
H2324 C2337 0.929 . S
H2325 C2335 0.929 . S
H2326 C2330 0.929 . S
H2327 C2336 0.929 . S
C2328 H2322 0.930 . S
C2328 C2329 1.367 . S
C2328 C2336 1.378 . S
C2329 C2328 1.367 . S
C2329 C2337 1.433 . S
C2330 H2326 0.929 . S
C2330 C2332 1.378 . S
C2330 C2334 1.350 . S
C2331 C2334 1.463 . S
C2331 C2336 1.350 . S
C2331 N2339 1.427 . S
C2332 H2323 0.930 . S
C2332 C2330 1.378 . S
C2332 C2333 1.367 . S
C2333 C2332 1.367 . S
C2333 C2335 1.433 . S
C2334 C2330 1.350 . S
C2334 C2331 1.463 . S
C2334 N2338 1.427 . S
C2335 H2325 0.929 . S
C2335 C2333 1.433 . S
C2335 N2338 1.384 . S
C2336 H2327 0.929 . S
C2336 C2328 1.378 . S
C2336 C2331 1.350 . S
C2337 H2324 0.929 . S
C2337 C2329 1.433 . S
C2337 N2339 1.384 . S
N2338 C2334 1.427 . S
N2338 C2335 1.384 . S
N2339 C2331 1.427 . S
N2339 C2337 1.384 . S
H2340 C2346 0.930 . S
H2341 C2350 0.930 . S
H2342 C2355 0.929 . S
H2343 C2353 0.929 . S
H2344 C2348 0.929 . S
H2345 C2354 0.929 . S
C2346 H2340 0.930 . S
C2346 C2347 1.367 . S
C2346 C2354 1.378 . S
C2347 C2346 1.367 . S
C2347 C2355 1.433 . S
C2348 H2344 0.929 . S
C2348 C2350 1.378 . S
C2348 C2352 1.350 . S
C2349 C2352 1.463 . S
C2349 C2354 1.350 . S
C2349 N2357 1.427 . S
C2350 H2341 0.930 . S
C2350 C2348 1.378 . S
C2350 C2351 1.367 . S
C2351 C2350 1.367 . S
C2351 C2353 1.433 . S
C2352 C2348 1.350 . S
C2352 C2349 1.463 . S
C2352 N2356 1.427 . S
C2353 H2343 0.929 . S
C2353 C2351 1.433 . S
C2353 N2356 1.384 . S
C2354 H2345 0.929 . S
C2354 C2346 1.378 . S
C2354 C2349 1.350 . S
C2355 H2342 0.929 . S
C2355 C2347 1.433 . S
C2355 N2357 1.384 . S
N2356 C2352 1.427 . S
N2356 C2353 1.384 . S
N2357 C2349 1.427 . S
N2357 C2355 1.384 . S
H2358 C2364 0.930 . S
H2359 C2368 0.930 . S
H2360 C2373 0.929 . S
H2361 C2371 0.929 . S
H2362 C2366 0.929 . S
H2363 C2372 0.929 . S
C2364 H2358 0.930 . S
C2364 C2365 1.367 . S
C2364 C2372 1.378 . S
C2365 C2364 1.367 . S
C2365 C2373 1.433 . S
C2366 H2362 0.929 . S
C2366 C2368 1.378 1_556 S
C2366 C2370 1.350 . S
C2367 C2370 1.463 . S
C2367 C2372 1.350 . S
C2367 N2375 1.427 . S
C2368 H2359 0.930 . S
C2368 C2366 1.378 1_554 S
C2368 C2369 1.367 . S
C2369 C2368 1.367 . S
C2369 C2371 1.433 . S
C2370 C2366 1.350 . S
C2370 C2367 1.463 . S
C2370 N2374 1.427 . S
C2371 H2361 0.929 . S
C2371 C2369 1.433 . S
C2371 N2374 1.384 1_554 S
C2372 H2363 0.929 . S
C2372 C2364 1.378 . S
C2372 C2367 1.350 . S
C2373 H2360 0.929 . S
C2373 C2365 1.433 . S
C2373 N2375 1.384 . S
N2374 C2370 1.427 . S
N2374 C2371 1.384 1_556 S
N2375 C2367 1.427 . S
N2375 C2373 1.384 . S
H2376 C2382 0.930 . S
H2377 C2386 0.930 . S
H2378 C2391 0.929 . S
H2379 C2389 0.929 . S
H2380 C2384 0.929 . S
H2381 C2390 0.929 . S
C2382 H2376 0.930 . S
C2382 C2383 1.367 . S
C2382 C2390 1.378 . S
C2383 C2382 1.367 . S
C2383 C2391 1.433 . S
C2384 H2380 0.929 . S
C2384 C2386 1.378 . S
C2384 C2388 1.350 . S
C2385 C2388 1.463 . S
C2385 C2390 1.350 . S
C2385 N2393 1.427 . S
C2386 H2377 0.930 . S
C2386 C2384 1.378 . S
C2386 C2387 1.367 . S
C2387 C2386 1.367 . S
C2387 C2389 1.433 . S
C2388 C2384 1.350 . S
C2388 C2385 1.463 . S
C2388 N2392 1.427 . S
C2389 H2379 0.929 . S
C2389 C2387 1.433 . S
C2389 N2392 1.384 . S
C2390 H2381 0.929 . S
C2390 C2382 1.378 . S
C2390 C2385 1.350 . S
C2391 H2378 0.929 . S
C2391 C2383 1.433 . S
C2391 N2393 1.384 . S
N2392 C2388 1.427 . S
N2392 C2389 1.384 . S
N2393 C2385 1.427 . S
N2393 C2391 1.384 . S
H2394 C2400 0.930 . S
H2395 C2404 0.930 . S
H2396 C2409 0.929 . S
H2397 C2407 0.929 . S
H2398 C2402 0.929 . S
H2399 C2408 0.929 . S
C2400 H2394 0.930 . S
C2400 C2401 1.367 . S
C2400 C2408 1.378 . S
C2401 C2400 1.367 . S
C2401 C2409 1.433 . S
C2402 H2398 0.929 . S
C2402 C2404 1.378 . S
C2402 C2406 1.350 . S
C2403 C2406 1.463 . S
C2403 C2408 1.350 . S
C2403 N2411 1.427 . S
C2404 H2395 0.930 . S
C2404 C2402 1.378 . S
C2404 C2405 1.367 . S
C2405 C2404 1.367 . S
C2405 C2407 1.433 . S
C2406 C2402 1.350 . S
C2406 C2403 1.463 . S
C2406 N2410 1.427 . S
C2407 H2397 0.929 . S
C2407 C2405 1.433 . S
C2407 N2410 1.384 . S
C2408 H2399 0.929 . S
C2408 C2400 1.378 . S
C2408 C2403 1.350 . S
C2409 H2396 0.929 . S
C2409 C2401 1.433 . S
C2409 N2411 1.384 . S
N2410 C2406 1.427 . S
N2410 C2407 1.384 . S
N2411 C2403 1.427 . S
N2411 C2409 1.384 . S
H2412 C2418 0.930 . S
H2413 C2422 0.930 . S
H2414 C2427 0.929 . S
H2415 C2425 0.929 . S
H2416 C2420 0.929 . S
H2417 C2426 0.929 . S
C2418 H2412 0.930 . S
C2418 C2419 1.367 . S
C2418 C2426 1.378 . S
C2419 C2418 1.367 . S
C2419 C2427 1.433 . S
C2420 H2416 0.929 . S
C2420 C2422 1.378 . S
C2420 C2424 1.350 . S
C2421 C2424 1.463 . S
C2421 C2426 1.350 . S
C2421 N2429 1.427 . S
C2422 H2413 0.930 . S
C2422 C2420 1.378 . S
C2422 C2423 1.367 . S
C2423 C2422 1.367 . S
C2423 C2425 1.433 . S
C2424 C2420 1.350 . S
C2424 C2421 1.463 . S
C2424 N2428 1.427 . S
C2425 H2415 0.929 . S
C2425 C2423 1.433 . S
C2425 N2428 1.384 . S
C2426 H2417 0.929 . S
C2426 C2418 1.378 . S
C2426 C2421 1.350 . S
C2427 H2414 0.929 . S
C2427 C2419 1.433 . S
C2427 N2429 1.384 . S
N2428 C2424 1.427 . S
N2428 C2425 1.384 . S
N2429 C2421 1.427 . S
N2429 C2427 1.384 . S
H2430 C2436 0.930 . S
H2431 C2440 0.930 . S
H2432 C2445 0.929 . S
H2433 C2443 0.929 . S
H2434 C2438 0.929 . S
H2435 C2444 0.929 1_554 S
C2436 H2430 0.930 . S
C2436 C2437 1.367 . S
C2436 C2444 1.378 . S
C2437 C2436 1.367 . S
C2437 C2445 1.433 . S
C2438 H2434 0.929 . S
C2438 C2440 1.378 . S
C2438 C2442 1.350 . S
C2439 C2442 1.463 . S
C2439 C2444 1.350 1_554 S
C2439 N2447 1.427 . S
C2440 H2431 0.930 . S
C2440 C2438 1.378 . S
C2440 C2441 1.367 . S
C2441 C2440 1.367 . S
C2441 C2443 1.433 . S
C2442 C2438 1.350 . S
C2442 C2439 1.463 . S
C2442 N2446 1.427 . S
C2443 H2433 0.929 . S
C2443 C2441 1.433 . S
C2443 N2446 1.384 . S
C2444 H2435 0.929 1_556 S
C2444 C2436 1.378 . S
C2444 C2439 1.350 1_556 S
C2445 H2432 0.929 . S
C2445 C2437 1.433 . S
C2445 N2447 1.384 1_556 S
N2446 C2442 1.427 . S
N2446 C2443 1.384 . S
N2447 C2439 1.427 . S
N2447 C2445 1.384 1_554 S
H2448 C2454 0.930 . S
H2449 C2458 0.930 . S
H2450 C2463 0.929 . S
H2451 C2461 0.929 . S
H2452 C2456 0.929 . S
H2453 C2462 0.929 . S
C2454 H2448 0.930 . S
C2454 C2455 1.367 . S
C2454 C2462 1.378 . S
C2455 C2454 1.367 . S
C2455 C2463 1.433 . S
C2456 H2452 0.929 . S
C2456 C2458 1.378 . S
C2456 C2460 1.350 . S
C2457 C2460 1.463 . S
C2457 C2462 1.350 . S
C2457 N2465 1.427 . S
C2458 H2449 0.930 . S
C2458 C2456 1.378 . S
C2458 C2459 1.367 . S
C2459 C2458 1.367 . S
C2459 C2461 1.433 . S
C2460 C2456 1.350 . S
C2460 C2457 1.463 . S
C2460 N2464 1.427 . S
C2461 H2451 0.929 . S
C2461 C2459 1.433 . S
C2461 N2464 1.384 . S
C2462 H2453 0.929 . S
C2462 C2454 1.378 . S
C2462 C2457 1.350 . S
C2463 H2450 0.929 . S
C2463 C2455 1.433 . S
C2463 N2465 1.384 . S
N2464 C2460 1.427 . S
N2464 C2461 1.384 . S
N2465 C2457 1.427 . S
N2465 C2463 1.384 . S
H2466 C2472 0.930 . S
H2467 C2476 0.930 . S
H2468 C2481 0.929 . S
H2469 C2479 0.929 . S
H2470 C2474 0.929 . S
H2471 C2480 0.929 . S
C2472 H2466 0.930 . S
C2472 C2473 1.367 . S
C2472 C2480 1.378 . S
C2473 C2472 1.367 . S
C2473 C2481 1.433 . S
C2474 H2470 0.929 . S
C2474 C2476 1.378 . S
C2474 C2478 1.350 . S
C2475 C2478 1.463 . S
C2475 C2480 1.350 . S
C2475 N2483 1.427 . S
C2476 H2467 0.930 . S
C2476 C2474 1.378 . S
C2476 C2477 1.367 . S
C2477 C2476 1.367 . S
C2477 C2479 1.433 . S
C2478 C2474 1.350 . S
C2478 C2475 1.463 . S
C2478 N2482 1.427 . S
C2479 H2469 0.929 . S
C2479 C2477 1.433 . S
C2479 N2482 1.384 . S
C2480 H2471 0.929 . S
C2480 C2472 1.378 . S
C2480 C2475 1.350 . S
C2481 H2468 0.929 . S
C2481 C2473 1.433 . S
C2481 N2483 1.384 . S
N2482 C2478 1.427 . S
N2482 C2479 1.384 . S
N2483 C2475 1.427 . S
N2483 C2481 1.384 . S
H2484 C2490 0.930 . S
H2485 C2494 0.930 . S
H2486 C2499 0.929 . S
H2487 C2497 0.929 . S
H2488 C2492 0.929 . S
H2489 C2498 0.929 . S
C2490 H2484 0.930 . S
C2490 C2491 1.367 . S
C2490 C2498 1.378 . S
C2491 C2490 1.367 . S
C2491 C2499 1.433 . S
C2492 H2488 0.929 . S
C2492 C2494 1.378 . S
C2492 C2496 1.350 . S
C2493 C2496 1.463 . S
C2493 C2498 1.350 . S
C2493 N2501 1.427 . S
C2494 H2485 0.930 . S
C2494 C2492 1.378 . S
C2494 C2495 1.367 . S
C2495 C2494 1.367 . S
C2495 C2497 1.433 . S
C2496 C2492 1.350 . S
C2496 C2493 1.463 . S
C2496 N2500 1.427 . S
C2497 H2487 0.929 . S
C2497 C2495 1.433 . S
C2497 N2500 1.384 . S
C2498 H2489 0.929 . S
C2498 C2490 1.378 . S
C2498 C2493 1.350 . S
C2499 H2486 0.929 . S
C2499 C2491 1.433 . S
C2499 N2501 1.384 . S
N2500 C2496 1.427 . S
N2500 C2497 1.384 . S
N2501 C2493 1.427 . S
N2501 C2499 1.384 . S
H2502 C2508 0.930 . S
H2503 C2512 0.930 . S
H2504 C2517 0.929 . S
H2505 C2515 0.929 . S
H2506 C2510 0.929 . S
H2507 C2516 0.929 . S
C2508 H2502 0.930 . S
C2508 C2509 1.367 . S
C2508 C2516 1.378 . S
C2509 C2508 1.367 . S
C2509 C2517 1.433 . S
C2510 H2506 0.929 . S
C2510 C2512 1.378 . S
C2510 C2514 1.350 . S
C2511 C2514 1.463 . S
C2511 C2516 1.350 . S
C2511 N2519 1.427 . S
C2512 H2503 0.930 . S
C2512 C2510 1.378 . S
C2512 C2513 1.367 . S
C2513 C2512 1.367 . S
C2513 C2515 1.433 . S
C2514 C2510 1.350 . S
C2514 C2511 1.463 . S
C2514 N2518 1.427 . S
C2515 H2505 0.929 . S
C2515 C2513 1.433 . S
C2515 N2518 1.384 . S
C2516 H2507 0.929 . S
C2516 C2508 1.378 . S
C2516 C2511 1.350 . S
C2517 H2504 0.929 . S
C2517 C2509 1.433 . S
C2517 N2519 1.384 . S
N2518 C2514 1.427 . S
N2518 C2515 1.384 . S
N2519 C2511 1.427 . S
N2519 C2517 1.384 . S
H2520 C2526 0.930 . S
H2521 C2530 0.930 . S
H2522 C2535 0.929 . S
H2523 C2533 0.929 . S
H2524 C2528 0.929 . S
H2525 C2534 0.929 . S
C2526 H2520 0.930 . S
C2526 C2527 1.367 . S
C2526 C2534 1.378 1_565 S
C2527 C2526 1.367 . S
C2527 C2535 1.433 . S
C2528 H2524 0.929 . S
C2528 C2530 1.378 . S
C2528 C2532 1.350 . S
C2529 C2532 1.463 . S
C2529 C2534 1.350 . S
C2529 N2537 1.427 1_545 S
C2530 H2521 0.930 . S
C2530 C2528 1.378 . S
C2530 C2531 1.367 . S
C2531 C2530 1.367 . S
C2531 C2533 1.433 . S
C2532 C2528 1.350 . S
C2532 C2529 1.463 . S
C2532 N2536 1.427 . S
C2533 H2523 0.929 . S
C2533 C2531 1.433 . S
C2533 N2536 1.384 . S
C2534 H2525 0.929 . S
C2534 C2526 1.378 1_545 S
C2534 C2529 1.350 . S
C2535 H2522 0.929 . S
C2535 C2527 1.433 . S
C2535 N2537 1.384 . S
N2536 C2532 1.427 . S
N2536 C2533 1.384 . S
N2537 C2529 1.427 1_565 S
N2537 C2535 1.384 . S
H2538 C2544 0.930 . S
H2539 C2548 0.930 . S
H2540 C2553 0.929 . S
H2541 C2551 0.929 . S
H2542 C2546 0.929 . S
H2543 C2552 0.929 . S
C2544 H2538 0.930 . S
C2544 C2545 1.367 . S
C2544 C2552 1.378 . S
C2545 C2544 1.367 . S
C2545 C2553 1.433 . S
C2546 H2542 0.929 . S
C2546 C2548 1.378 . S
C2546 C2550 1.350 . S
C2547 C2550 1.463 . S
C2547 C2552 1.350 . S
C2547 N2555 1.427 . S
C2548 H2539 0.930 . S
C2548 C2546 1.378 . S
C2548 C2549 1.367 . S
C2549 C2548 1.367 . S
C2549 C2551 1.433 . S
C2550 C2546 1.350 . S
C2550 C2547 1.463 . S
C2550 N2554 1.427 . S
C2551 H2541 0.929 . S
C2551 C2549 1.433 . S
C2551 N2554 1.384 . S
C2552 H2543 0.929 . S
C2552 C2544 1.378 . S
C2552 C2547 1.350 . S
C2553 H2540 0.929 . S
C2553 C2545 1.433 . S
C2553 N2555 1.384 . S
N2554 C2550 1.427 . S
N2554 C2551 1.384 . S
N2555 C2547 1.427 . S
N2555 C2553 1.384 . S
H2556 C2562 0.930 . S
H2557 C2566 0.930 . S
H2558 C2571 0.929 . S
H2559 C2569 0.929 . S
H2560 C2564 0.929 . S
H2561 C2570 0.929 . S
C2562 H2556 0.930 . S
C2562 C2563 1.367 . S
C2562 C2570 1.378 . S
C2563 C2562 1.367 . S
C2563 C2571 1.433 . S
C2564 H2560 0.929 . S
C2564 C2566 1.378 . S
C2564 C2568 1.350 . S
C2565 C2568 1.463 . S
C2565 C2570 1.350 . S
C2565 N2573 1.427 . S
C2566 H2557 0.930 . S
C2566 C2564 1.378 . S
C2566 C2567 1.367 . S
C2567 C2566 1.367 . S
C2567 C2569 1.433 . S
C2568 C2564 1.350 . S
C2568 C2565 1.463 . S
C2568 N2572 1.427 . S
C2569 H2559 0.929 . S
C2569 C2567 1.433 . S
C2569 N2572 1.384 . S
C2570 H2561 0.929 . S
C2570 C2562 1.378 . S
C2570 C2565 1.350 . S
C2571 H2558 0.929 . S
C2571 C2563 1.433 . S
C2571 N2573 1.384 . S
N2572 C2568 1.427 . S
N2572 C2569 1.384 . S
N2573 C2565 1.427 . S
N2573 C2571 1.384 . S
H2574 C2580 0.930 . S
H2575 C2584 0.930 . S
H2576 C2589 0.929 . S
H2577 C2587 0.929 . S
H2578 C2582 0.929 . S
H2579 C2588 0.929 . S
C2580 H2574 0.930 . S
C2580 C2581 1.367 . S
C2580 C2588 1.378 . S
C2581 C2580 1.367 . S
C2581 C2589 1.433 . S
C2582 H2578 0.929 . S
C2582 C2584 1.378 . S
C2582 C2586 1.350 . S
C2583 C2586 1.463 . S
C2583 C2588 1.350 . S
C2583 N2591 1.427 . S
C2584 H2575 0.930 . S
C2584 C2582 1.378 . S
C2584 C2585 1.367 . S
C2585 C2584 1.367 . S
C2585 C2587 1.433 . S
C2586 C2582 1.350 . S
C2586 C2583 1.463 . S
C2586 N2590 1.427 . S
C2587 H2577 0.929 . S
C2587 C2585 1.433 . S
C2587 N2590 1.384 . S
C2588 H2579 0.929 . S
C2588 C2580 1.378 . S
C2588 C2583 1.350 . S
C2589 H2576 0.929 . S
C2589 C2581 1.433 . S
C2589 N2591 1.384 . S
N2590 C2586 1.427 . S
N2590 C2587 1.384 . S
N2591 C2583 1.427 . S
N2591 C2589 1.384 . S
H2592 C2598 0.930 . S
H2593 C2602 0.930 . S
H2594 C2607 0.929 . S
H2595 C2605 0.929 . S
H2596 C2600 0.929 . S
H2597 C2606 0.929 . S
C2598 H2592 0.930 . S
C2598 C2599 1.367 . S
C2598 C2606 1.378 . S
C2599 C2598 1.367 . S
C2599 C2607 1.433 . S
C2600 H2596 0.929 . S
C2600 C2602 1.378 . S
C2600 C2604 1.350 . S
C2601 C2604 1.463 . S
C2601 C2606 1.350 . S
C2601 N2609 1.427 . S
C2602 H2593 0.930 . S
C2602 C2600 1.378 . S
C2602 C2603 1.367 . S
C2603 C2602 1.367 . S
C2603 C2605 1.433 . S
C2604 C2600 1.350 . S
C2604 C2601 1.463 . S
C2604 N2608 1.427 . S
C2605 H2595 0.929 . S
C2605 C2603 1.433 . S
C2605 N2608 1.384 . S
C2606 H2597 0.929 . S
C2606 C2598 1.378 . S
C2606 C2601 1.350 . S
C2607 H2594 0.929 . S
C2607 C2599 1.433 . S
C2607 N2609 1.384 . S
N2608 C2604 1.427 . S
N2608 C2605 1.384 . S
N2609 C2601 1.427 . S
N2609 C2607 1.384 . S
H2610 C2616 0.930 . S
H2611 C2620 0.930 . S
H2612 C2625 0.929 . S
H2613 C2623 0.929 . S
H2614 C2618 0.929 . S
H2615 C2624 0.929 . S
C2616 H2610 0.930 . S
C2616 C2617 1.367 . S
C2616 C2624 1.378 . S
C2617 C2616 1.367 . S
C2617 C2625 1.433 . S
C2618 H2614 0.929 . S
C2618 C2620 1.378 . S
C2618 C2622 1.350 . S
C2619 C2622 1.463 . S
C2619 C2624 1.350 . S
C2619 N2627 1.427 . S
C2620 H2611 0.930 . S
C2620 C2618 1.378 . S
C2620 C2621 1.367 . S
C2621 C2620 1.367 . S
C2621 C2623 1.433 . S
C2622 C2618 1.350 . S
C2622 C2619 1.463 . S
C2622 N2626 1.427 . S
C2623 H2613 0.929 . S
C2623 C2621 1.433 . S
C2623 N2626 1.384 . S
C2624 H2615 0.929 . S
C2624 C2616 1.378 . S
C2624 C2619 1.350 . S
C2625 H2612 0.929 . S
C2625 C2617 1.433 . S
C2625 N2627 1.384 . S
N2626 C2622 1.427 . S
N2626 C2623 1.384 . S
N2627 C2619 1.427 . S
N2627 C2625 1.384 . S
H2628 C2634 0.930 . S
H2629 C2638 0.930 . S
H2630 C2643 0.929 . S
H2631 C2641 0.929 . S
H2632 C2636 0.929 . S
H2633 C2642 0.929 . S
C2634 H2628 0.930 . S
C2634 C2635 1.367 . S
C2634 C2642 1.378 . S
C2635 C2634 1.367 . S
C2635 C2643 1.433 . S
C2636 H2632 0.929 . S
C2636 C2638 1.378 . S
C2636 C2640 1.350 . S
C2637 C2640 1.463 . S
C2637 C2642 1.350 . S
C2637 N2645 1.427 . S
C2638 H2629 0.930 . S
C2638 C2636 1.378 . S
C2638 C2639 1.367 . S
C2639 C2638 1.367 . S
C2639 C2641 1.433 . S
C2640 C2636 1.350 . S
C2640 C2637 1.463 . S
C2640 N2644 1.427 . S
C2641 H2631 0.929 . S
C2641 C2639 1.433 . S
C2641 N2644 1.384 . S
C2642 H2633 0.929 . S
C2642 C2634 1.378 . S
C2642 C2637 1.350 . S
C2643 H2630 0.929 . S
C2643 C2635 1.433 . S
C2643 N2645 1.384 . S
N2644 C2640 1.427 . S
N2644 C2641 1.384 . S
N2645 C2637 1.427 . S
N2645 C2643 1.384 . S
H2646 C2652 0.930 . S
H2647 C2656 0.930 . S
H2648 C2661 0.929 . S
H2649 C2659 0.929 . S
H2650 C2654 0.929 . S
H2651 C2660 0.929 1_455 S
C2652 H2646 0.930 . S
C2652 C2653 1.367 . S
C2652 C2660 1.378 . S
C2653 C2652 1.367 . S
C2653 C2661 1.433 . S
C2654 H2650 0.929 . S
C2654 C2656 1.378 . S
C2654 C2658 1.350 . S
C2655 C2658 1.463 . S
C2655 C2660 1.350 1_455 S
C2655 N2663 1.427 1_455 S
C2656 H2647 0.930 . S
C2656 C2654 1.378 . S
C2656 C2657 1.367 . S
C2657 C2656 1.367 . S
C2657 C2659 1.433 . S
C2658 C2654 1.350 . S
C2658 C2655 1.463 . S
C2658 N2662 1.427 . S
C2659 H2649 0.929 . S
C2659 C2657 1.433 . S
C2659 N2662 1.384 . S
C2660 H2651 0.929 1_655 S
C2660 C2652 1.378 . S
C2660 C2655 1.350 1_655 S
C2661 H2648 0.929 . S
C2661 C2653 1.433 . S
C2661 N2663 1.384 . S
N2662 C2658 1.427 . S
N2662 C2659 1.384 . S
N2663 C2655 1.427 1_655 S
N2663 C2661 1.384 . S
H2664 C2670 0.930 . S
H2665 C2674 0.930 . S
H2666 C2679 0.929 . S
H2667 C2677 0.929 . S
H2668 C2672 0.929 . S
H2669 C2678 0.929 . S
C2670 H2664 0.930 . S
C2670 C2671 1.367 . S
C2670 C2678 1.378 . S
C2671 C2670 1.367 . S
C2671 C2679 1.433 . S
C2672 H2668 0.929 . S
C2672 C2674 1.378 . S
C2672 C2676 1.350 . S
C2673 C2676 1.463 . S
C2673 C2678 1.350 . S
C2673 N2681 1.427 . S
C2674 H2665 0.930 . S
C2674 C2672 1.378 . S
C2674 C2675 1.367 . S
C2675 C2674 1.367 . S
C2675 C2677 1.433 . S
C2676 C2672 1.350 . S
C2676 C2673 1.463 . S
C2676 N2680 1.427 . S
C2677 H2667 0.929 . S
C2677 C2675 1.433 . S
C2677 N2680 1.384 . S
C2678 H2669 0.929 . S
C2678 C2670 1.378 . S
C2678 C2673 1.350 . S
C2679 H2666 0.929 . S
C2679 C2671 1.433 . S
C2679 N2681 1.384 . S
N2680 C2676 1.427 . S
N2680 C2677 1.384 . S
N2681 C2673 1.427 . S
N2681 C2679 1.384 . S
H2682 C2688 0.930 . S
H2683 C2692 0.930 . S
H2684 C2697 0.929 . S
H2685 C2695 0.929 . S
H2686 C2690 0.929 1_455 S
H2687 C2696 0.929 . S
C2688 H2682 0.930 . S
C2688 C2689 1.367 . S
C2688 C2696 1.378 . S
C2689 C2688 1.367 . S
C2689 C2697 1.433 . S
C2690 H2686 0.929 1_655 S
C2690 C2692 1.378 . S
C2690 C2694 1.350 1_655 S
C2691 C2694 1.463 . S
C2691 C2696 1.350 . S
C2691 N2699 1.427 . S
C2692 H2683 0.930 . S
C2692 C2690 1.378 . S
C2692 C2693 1.367 . S
C2693 C2692 1.367 . S
C2693 C2695 1.433 . S
C2694 C2690 1.350 1_455 S
C2694 C2691 1.463 . S
C2694 N2698 1.427 1_455 S
C2695 H2685 0.929 . S
C2695 C2693 1.433 . S
C2695 N2698 1.384 . S
C2696 H2687 0.929 . S
C2696 C2688 1.378 . S
C2696 C2691 1.350 . S
C2697 H2684 0.929 . S
C2697 C2689 1.433 . S
C2697 N2699 1.384 . S
N2698 C2694 1.427 1_655 S
N2698 C2695 1.384 . S
N2699 C2691 1.427 . S
N2699 C2697 1.384 . S
H2700 C2706 0.930 . S
H2701 C2710 0.930 . S
H2702 C2715 0.929 . S
H2703 C2713 0.929 . S
H2704 C2708 0.929 . S
H2705 C2714 0.929 . S
C2706 H2700 0.930 . S
C2706 C2707 1.367 . S
C2706 C2714 1.378 . S
C2707 C2706 1.367 . S
C2707 C2715 1.433 . S
C2708 H2704 0.929 . S
C2708 C2710 1.378 . S
C2708 C2712 1.350 . S
C2709 C2712 1.463 . S
C2709 C2714 1.350 . S
C2709 N2717 1.427 . S
C2710 H2701 0.930 . S
C2710 C2708 1.378 . S
C2710 C2711 1.367 . S
C2711 C2710 1.367 . S
C2711 C2713 1.433 . S
C2712 C2708 1.350 . S
C2712 C2709 1.463 . S
C2712 N2716 1.427 . S
C2713 H2703 0.929 . S
C2713 C2711 1.433 . S
C2713 N2716 1.384 . S
C2714 H2705 0.929 . S
C2714 C2706 1.378 . S
C2714 C2709 1.350 . S
C2715 H2702 0.929 . S
C2715 C2707 1.433 . S
C2715 N2717 1.384 . S
N2716 C2712 1.427 . S
N2716 C2713 1.384 . S
N2717 C2709 1.427 . S
N2717 C2715 1.384 . S
H2718 C2724 0.930 . S
H2719 C2728 0.930 . S
H2720 C2733 0.929 . S
H2721 C2731 0.929 . S
H2722 C2726 0.929 . S
H2723 C2732 0.929 . S
C2724 H2718 0.930 . S
C2724 C2725 1.367 . S
C2724 C2732 1.378 . S
C2725 C2724 1.367 . S
C2725 C2733 1.433 . S
C2726 H2722 0.929 . S
C2726 C2728 1.378 . S
C2726 C2730 1.350 . S
C2727 C2730 1.463 . S
C2727 C2732 1.350 . S
C2727 N2735 1.427 . S
C2728 H2719 0.930 . S
C2728 C2726 1.378 . S
C2728 C2729 1.367 . S
C2729 C2728 1.367 . S
C2729 C2731 1.433 . S
C2730 C2726 1.350 . S
C2730 C2727 1.463 . S
C2730 N2734 1.427 . S
C2731 H2721 0.929 . S
C2731 C2729 1.433 . S
C2731 N2734 1.384 . S
C2732 H2723 0.929 . S
C2732 C2724 1.378 . S
C2732 C2727 1.350 . S
C2733 H2720 0.929 . S
C2733 C2725 1.433 . S
C2733 N2735 1.384 . S
N2734 C2730 1.427 . S
N2734 C2731 1.384 . S
N2735 C2727 1.427 . S
N2735 C2733 1.384 . S
H2736 C2742 0.930 . S
H2737 C2746 0.930 . S
H2738 C2751 0.929 . S
H2739 C2749 0.929 . S
H2740 C2744 0.929 . S
H2741 C2750 0.929 . S
C2742 H2736 0.930 . S
C2742 C2743 1.367 . S
C2742 C2750 1.378 . S
C2743 C2742 1.367 . S
C2743 C2751 1.433 . S
C2744 H2740 0.929 . S
C2744 C2746 1.378 . S
C2744 C2748 1.350 . S
C2745 C2748 1.463 . S
C2745 C2750 1.350 . S
C2745 N2753 1.427 . S
C2746 H2737 0.930 . S
C2746 C2744 1.378 . S
C2746 C2747 1.367 . S
C2747 C2746 1.367 . S
C2747 C2749 1.433 . S
C2748 C2744 1.350 . S
C2748 C2745 1.463 . S
C2748 N2752 1.427 . S
C2749 H2739 0.929 . S
C2749 C2747 1.433 . S
C2749 N2752 1.384 . S
C2750 H2741 0.929 . S
C2750 C2742 1.378 . S
C2750 C2745 1.350 . S
C2751 H2738 0.929 . S
C2751 C2743 1.433 . S
C2751 N2753 1.384 . S
N2752 C2748 1.427 . S
N2752 C2749 1.384 . S
N2753 C2745 1.427 . S
N2753 C2751 1.384 . S
H2754 C2760 0.930 . S
H2755 C2764 0.930 . S
H2756 C2769 0.929 . S
H2757 C2767 0.929 . S
H2758 C2762 0.914 1_554 S
H2759 C2768 0.929 . S
C2760 H2754 0.930 . S
C2760 C2761 1.367 . S
C2760 C2768 1.378 . S
C2761 C2760 1.367 . S
C2761 C2769 1.433 . S
C2762 H2758 0.914 1_556 S
C2762 C2764 1.378 . S
C2762 C2766 1.350 1_556 S
C2763 C2766 1.463 . S
C2763 C2768 1.350 . S
C2763 N2771 1.427 . S
C2764 H2755 0.930 . S
C2764 C2762 1.378 . S
C2764 C2765 1.367 . S
C2765 C2764 1.367 . S
C2765 C2767 1.433 . S
C2766 C2762 1.350 1_554 S
C2766 C2763 1.463 . S
C2766 N2770 1.427 1_554 S
C2767 H2757 0.929 . S
C2767 C2765 1.433 . S
C2767 N2770 1.384 . S
C2768 H2759 0.929 . S
C2768 C2760 1.378 . S
C2768 C2763 1.350 . S
C2769 H2756 0.929 . S
C2769 C2761 1.433 . S
C2769 N2771 1.384 . S
N2770 C2766 1.427 1_556 S
N2770 C2767 1.384 . S
N2771 C2763 1.427 . S
N2771 C2769 1.384 . S
H2772 C2778 0.930 . S
H2773 C2782 0.930 . S
H2774 C2787 0.929 . S
H2775 C2785 0.929 . S
H2776 C2780 0.929 . S
H2777 C2786 0.929 . S
C2778 H2772 0.930 . S
C2778 C2779 1.367 . S
C2778 C2786 1.378 . S
C2779 C2778 1.367 . S
C2779 C2787 1.433 . S
C2780 H2776 0.929 . S
C2780 C2782 1.378 . S
C2780 C2784 1.350 . S
C2781 C2784 1.463 . S
C2781 C2786 1.350 . S
C2781 N2789 1.427 . S
C2782 H2773 0.930 . S
C2782 C2780 1.378 . S
C2782 C2783 1.367 . S
C2783 C2782 1.367 . S
C2783 C2785 1.433 . S
C2784 C2780 1.350 . S
C2784 C2781 1.463 . S
C2784 N2788 1.427 . S
C2785 H2775 0.929 . S
C2785 C2783 1.433 . S
C2785 N2788 1.384 . S
C2786 H2777 0.929 . S
C2786 C2778 1.378 . S
C2786 C2781 1.350 . S
C2787 H2774 0.929 . S
C2787 C2779 1.433 . S
C2787 N2789 1.384 . S
N2788 C2784 1.427 . S
N2788 C2785 1.384 . S
N2789 C2781 1.427 . S
N2789 C2787 1.384 . S
H2790 C2796 0.930 . S
H2791 C2800 0.930 . S
H2792 C2805 0.929 . S
H2793 C2803 0.929 . S
H2794 C2798 0.929 . S
H2795 C2804 0.929 . S
C2796 H2790 0.930 . S
C2796 C2797 1.367 . S
C2796 C2804 1.378 . S
C2797 C2796 1.367 . S
C2797 C2805 1.433 . S
C2798 H2794 0.929 . S
C2798 C2800 1.378 . S
C2798 C2802 1.350 . S
C2799 C2802 1.463 . S
C2799 C2804 1.350 . S
C2799 N2807 1.427 . S
C2800 H2791 0.930 . S
C2800 C2798 1.378 . S
C2800 C2801 1.367 . S
C2801 C2800 1.367 . S
C2801 C2803 1.433 . S
C2802 C2798 1.350 . S
C2802 C2799 1.463 . S
C2802 N2806 1.427 . S
C2803 H2793 0.929 . S
C2803 C2801 1.433 . S
C2803 N2806 1.384 . S
C2804 H2795 0.929 . S
C2804 C2796 1.378 . S
C2804 C2799 1.350 . S
C2805 H2792 0.929 . S
C2805 C2797 1.433 . S
C2805 N2807 1.384 . S
N2806 C2802 1.427 . S
N2806 C2803 1.384 . S
N2807 C2799 1.427 . S
N2807 C2805 1.384 . S
H2808 C2814 0.930 . S
H2809 C2818 0.930 . S
H2810 C2823 0.929 . S
H2811 C2821 0.929 . S
H2812 C2816 0.929 . S
H2813 C2822 0.929 . S
C2814 H2808 0.930 . S
C2814 C2815 1.367 . S
C2814 C2822 1.378 . S
C2815 C2814 1.367 . S
C2815 C2823 1.433 . S
C2816 H2812 0.929 . S
C2816 C2818 1.378 . S
C2816 C2820 1.350 . S
C2817 C2820 1.463 . S
C2817 C2822 1.350 . S
C2817 N2825 1.427 . S
C2818 H2809 0.930 . S
C2818 C2816 1.378 . S
C2818 C2819 1.367 . S
C2819 C2818 1.367 . S
C2819 C2821 1.433 . S
C2820 C2816 1.350 . S
C2820 C2817 1.463 . S
C2820 N2824 1.427 . S
C2821 H2811 0.929 . S
C2821 C2819 1.433 . S
C2821 N2824 1.384 . S
C2822 H2813 0.929 . S
C2822 C2814 1.378 . S
C2822 C2817 1.350 . S
C2823 H2810 0.929 . S
C2823 C2815 1.433 . S
C2823 N2825 1.384 . S
N2824 C2820 1.427 . S
N2824 C2821 1.384 . S
N2825 C2817 1.427 . S
N2825 C2823 1.384 . S
H2826 C2832 0.930 . S
H2827 C2836 0.930 . S
H2828 C2841 0.929 . S
H2829 C2839 0.929 . S
H2830 C2834 0.929 . S
H2831 C2840 0.929 . S
C2832 H2826 0.930 . S
C2832 C2833 1.367 . S
C2832 C2840 1.378 . S
C2833 C2832 1.367 . S
C2833 C2841 1.433 . S
C2834 H2830 0.929 . S
C2834 C2836 1.378 . S
C2834 C2838 1.350 1_554 S
C2835 C2838 1.463 . S
C2835 C2840 1.350 . S
C2835 N2843 1.427 . S
C2836 H2827 0.930 . S
C2836 C2834 1.378 . S
C2836 C2837 1.367 . S
C2837 C2836 1.367 . S
C2837 C2839 1.433 . S
C2838 C2834 1.350 1_556 S
C2838 C2835 1.463 . S
C2838 N2842 1.427 1_556 S
C2839 H2829 0.929 . S
C2839 C2837 1.433 . S
C2839 N2842 1.384 . S
C2840 H2831 0.929 . S
C2840 C2832 1.378 . S
C2840 C2835 1.350 . S
C2841 H2828 0.929 . S
C2841 C2833 1.433 . S
C2841 N2843 1.384 . S
N2842 C2838 1.427 1_554 S
N2842 C2839 1.384 . S
N2843 C2835 1.427 . S
N2843 C2841 1.384 . S
H2844 C2850 0.930 . S
H2845 C2854 0.930 . S
H2846 C2859 0.929 . S
H2847 C2857 0.929 . S
H2848 C2852 0.929 . S
H2849 C2858 0.929 . S
C2850 H2844 0.930 . S
C2850 C2851 1.367 . S
C2850 C2858 1.378 . S
C2851 C2850 1.367 . S
C2851 C2859 1.433 . S
C2852 H2848 0.929 . S
C2852 C2854 1.378 . S
C2852 C2856 1.350 . S
C2853 C2856 1.463 . S
C2853 C2858 1.350 . S
C2853 N2861 1.427 . S
C2854 H2845 0.930 . S
C2854 C2852 1.378 . S
C2854 C2855 1.367 . S
C2855 C2854 1.367 . S
C2855 C2857 1.433 . S
C2856 C2852 1.350 . S
C2856 C2853 1.463 . S
C2856 N2860 1.427 . S
C2857 H2847 0.929 . S
C2857 C2855 1.433 . S
C2857 N2860 1.384 . S
C2858 H2849 0.929 . S
C2858 C2850 1.378 . S
C2858 C2853 1.350 . S
C2859 H2846 0.929 . S
C2859 C2851 1.433 . S
C2859 N2861 1.384 . S
N2860 C2856 1.427 . S
N2860 C2857 1.384 . S
N2861 C2853 1.427 . S
N2861 C2859 1.384 . S
H2862 C2868 0.930 . S
H2863 C2872 0.930 . S
H2864 C2877 0.929 . S
H2865 C2875 0.929 . S
H2866 C2870 0.929 . S
H2867 C2876 0.929 . S
C2868 H2862 0.930 . S
C2868 C2869 1.367 . S
C2868 C2876 1.378 . S
C2869 C2868 1.367 . S
C2869 C2877 1.433 . S
C2870 H2866 0.929 . S
C2870 C2872 1.378 . S
C2870 C2874 1.350 . S
C2871 C2874 1.463 . S
C2871 C2876 1.350 . S
C2871 N2879 1.427 . S
C2872 H2863 0.930 . S
C2872 C2870 1.378 . S
C2872 C2873 1.367 . S
C2873 C2872 1.367 . S
C2873 C2875 1.433 . S
C2874 C2870 1.350 . S
C2874 C2871 1.463 . S
C2874 N2878 1.427 . S
C2875 H2865 0.929 . S
C2875 C2873 1.433 . S
C2875 N2878 1.384 . S
C2876 H2867 0.929 . S
C2876 C2868 1.378 . S
C2876 C2871 1.350 . S
C2877 H2864 0.929 . S
C2877 C2869 1.433 . S
C2877 N2879 1.384 . S
N2878 C2874 1.427 . S
N2878 C2875 1.384 . S
N2879 C2871 1.427 . S
N2879 C2877 1.384 . S
H2880 C2886 0.930 . S
H2881 C2890 0.930 . S
H2882 C2895 0.929 . S
H2883 C2893 0.929 . S
H2884 C2888 0.929 . S
H2885 C2894 0.929 . S
C2886 H2880 0.930 . S
C2886 C2887 1.367 . S
C2886 C2894 1.378 . S
C2887 C2886 1.367 . S
C2887 C2895 1.433 . S
C2888 H2884 0.929 . S
C2888 C2890 1.378 . S
C2888 C2892 1.350 . S
C2889 C2892 1.463 . S
C2889 C2894 1.350 . S
C2889 N2897 1.427 . S
C2890 H2881 0.930 . S
C2890 C2888 1.378 . S
C2890 C2891 1.367 . S
C2891 C2890 1.367 . S
C2891 C2893 1.433 . S
C2892 C2888 1.350 . S
C2892 C2889 1.463 . S
C2892 N2896 1.427 . S
C2893 H2883 0.929 . S
C2893 C2891 1.433 . S
C2893 N2896 1.384 . S
C2894 H2885 0.929 . S
C2894 C2886 1.378 . S
C2894 C2889 1.350 . S
C2895 H2882 0.929 . S
C2895 C2887 1.433 . S
C2895 N2897 1.384 . S
N2896 C2892 1.427 . S
N2896 C2893 1.384 . S
N2897 C2889 1.427 . S
N2897 C2895 1.384 . S
H2898 C2904 0.930 . S
H2899 C2908 0.930 . S
H2900 C2913 0.929 . S
H2901 C2911 0.929 . S
H2902 C2906 0.929 . S
H2903 C2912 0.929 . S
C2904 H2898 0.930 . S
C2904 C2905 1.367 . S
C2904 C2912 1.378 . S
C2905 C2904 1.367 . S
C2905 C2913 1.433 . S
C2906 H2902 0.929 . S
C2906 C2908 1.378 . S
C2906 C2910 1.350 . S
C2907 C2910 1.463 . S
C2907 C2912 1.350 . S
C2907 N2915 1.427 . S
C2908 H2899 0.930 . S
C2908 C2906 1.378 . S
C2908 C2909 1.367 . S
C2909 C2908 1.367 . S
C2909 C2911 1.433 . S
C2910 C2906 1.350 . S
C2910 C2907 1.463 . S
C2910 N2914 1.427 . S
C2911 H2901 0.929 . S
C2911 C2909 1.433 . S
C2911 N2914 1.384 . S
C2912 H2903 0.929 . S
C2912 C2904 1.378 . S
C2912 C2907 1.350 . S
C2913 H2900 0.929 . S
C2913 C2905 1.433 . S
C2913 N2915 1.384 . S
N2914 C2910 1.427 . S
N2914 C2911 1.384 . S
N2915 C2907 1.427 . S
N2915 C2913 1.384 . S
H2916 C2922 0.930 . S
H2917 C2926 0.930 . S
H2918 C2931 0.929 . S
H2919 C2929 0.929 . S
H2920 C2924 0.929 1_545 S
H2921 C2930 0.929 . S
C2922 H2916 0.930 . S
C2922 C2923 1.367 . S
C2922 C2930 1.378 . S
C2923 C2922 1.367 . S
C2923 C2931 1.433 . S
C2924 H2920 0.929 1_565 S
C2924 C2926 1.378 . S
C2924 C2928 1.350 1_565 S
C2925 C2928 1.463 . S
C2925 C2930 1.350 . S
C2925 N2933 1.427 . S
C2926 H2917 0.930 . S
C2926 C2924 1.378 . S
C2926 C2927 1.367 . S
C2927 C2926 1.367 . S
C2927 C2929 1.433 . S
C2928 C2924 1.350 1_545 S
C2928 C2925 1.463 . S
C2928 N2932 1.427 1_545 S
C2929 H2919 0.929 . S
C2929 C2927 1.433 . S
C2929 N2932 1.384 . S
C2930 H2921 0.929 . S
C2930 C2922 1.378 . S
C2930 C2925 1.350 . S
C2931 H2918 0.929 . S
C2931 C2923 1.433 . S
C2931 N2933 1.384 . S
N2932 C2928 1.427 1_565 S
N2932 C2929 1.384 . S
N2933 C2925 1.427 . S
N2933 C2931 1.384 . S
H2934 C2940 0.930 . S
H2935 C2944 0.930 . S
H2936 C2949 0.929 . S
H2937 C2947 0.929 . S
H2938 C2942 0.929 . S
H2939 C2948 0.929 . S
C2940 H2934 0.930 . S
C2940 C2941 1.367 . S
C2940 C2948 1.378 . S
C2941 C2940 1.367 . S
C2941 C2949 1.433 . S
C2942 H2938 0.929 . S
C2942 C2944 1.378 . S
C2942 C2946 1.350 . S
C2943 C2946 1.463 . S
C2943 C2948 1.350 . S
C2943 N2951 1.427 . S
C2944 H2935 0.930 . S
C2944 C2942 1.378 . S
C2944 C2945 1.367 . S
C2945 C2944 1.367 . S
C2945 C2947 1.433 . S
C2946 C2942 1.350 . S
C2946 C2943 1.463 . S
C2946 N2950 1.427 . S
C2947 H2937 0.929 . S
C2947 C2945 1.433 . S
C2947 N2950 1.384 . S
C2948 H2939 0.929 . S
C2948 C2940 1.378 . S
C2948 C2943 1.350 . S
C2949 H2936 0.929 . S
C2949 C2941 1.433 . S
C2949 N2951 1.384 . S
N2950 C2946 1.427 . S
N2950 C2947 1.384 . S
N2951 C2943 1.427 . S
N2951 C2949 1.384 . S
H2952 C2958 0.930 . S
H2953 C2962 0.930 . S
H2954 C2967 0.929 . S
H2955 C2965 0.929 . S
H2956 C2960 0.929 . S
H2957 C2966 0.929 . S
C2958 H2952 0.930 . S
C2958 C2959 1.367 . S
C2958 C2966 1.378 . S
C2959 C2958 1.367 . S
C2959 C2967 1.433 . S
C2960 H2956 0.929 . S
C2960 C2962 1.378 . S
C2960 C2964 1.350 . S
C2961 C2964 1.463 . S
C2961 C2966 1.350 . S
C2961 N2969 1.427 . S
C2962 H2953 0.930 . S
C2962 C2960 1.378 . S
C2962 C2963 1.367 . S
C2963 C2962 1.367 . S
C2963 C2965 1.433 . S
C2964 C2960 1.350 . S
C2964 C2961 1.463 . S
C2964 N2968 1.427 . S
C2965 H2955 0.929 . S
C2965 C2963 1.433 . S
C2965 N2968 1.384 . S
C2966 H2957 0.929 . S
C2966 C2958 1.378 . S
C2966 C2961 1.350 . S
C2967 H2954 0.929 . S
C2967 C2959 1.433 . S
C2967 N2969 1.384 . S
N2968 C2964 1.427 . S
N2968 C2965 1.384 . S
N2969 C2961 1.427 . S
N2969 C2967 1.384 . S
H2970 C2976 0.930 . S
H2971 C2980 0.930 . S
H2972 C2985 0.929 . S
H2973 C2983 0.929 . S
H2974 C2978 0.929 . S
H2975 C2984 0.929 . S
C2976 H2970 0.930 . S
C2976 C2977 1.367 . S
C2976 C2984 1.378 . S
C2977 C2976 1.367 . S
C2977 C2985 1.433 . S
C2978 H2974 0.929 . S
C2978 C2980 1.378 . S
C2978 C2982 1.350 . S
C2979 C2982 1.463 . S
C2979 C2984 1.350 . S
C2979 N2987 1.427 . S
C2980 H2971 0.930 . S
C2980 C2978 1.378 . S
C2980 C2981 1.367 . S
C2981 C2980 1.367 . S
C2981 C2983 1.433 . S
C2982 C2978 1.350 . S
C2982 C2979 1.463 . S
C2982 N2986 1.427 . S
C2983 H2973 0.929 . S
C2983 C2981 1.433 . S
C2983 N2986 1.384 . S
C2984 H2975 0.929 . S
C2984 C2976 1.378 . S
C2984 C2979 1.350 . S
C2985 H2972 0.929 . S
C2985 C2977 1.433 . S
C2985 N2987 1.384 . S
N2986 C2982 1.427 . S
N2986 C2983 1.384 . S
N2987 C2979 1.427 . S
N2987 C2985 1.384 . S
H2988 C2994 0.930 . S
H2989 C2998 0.930 . S
H2990 C3003 0.929 . S
H2991 C3001 0.929 . S
H2992 C2996 0.929 . S
H2993 C3002 0.929 1_565 S
C2994 H2988 0.930 . S
C2994 C2995 1.367 . S
C2994 C3002 1.378 . S
C2995 C2994 1.367 . S
C2995 C3003 1.433 . S
C2996 H2992 0.929 . S
C2996 C2998 1.378 . S
C2996 C3000 1.350 . S
C2997 C3000 1.463 . S
C2997 C3002 1.350 1_565 S
C2997 N3005 1.427 1_565 S
C2998 H2989 0.930 . S
C2998 C2996 1.378 . S
C2998 C2999 1.367 . S
C2999 C2998 1.367 . S
C2999 C3001 1.433 . S
C3000 C2996 1.350 . S
C3000 C2997 1.463 . S
C3000 N3004 1.427 . S
C3001 H2991 0.929 . S
C3001 C2999 1.433 . S
C3001 N3004 1.384 . S
C3002 H2993 0.929 1_545 S
C3002 C2994 1.378 . S
C3002 C2997 1.350 1_545 S
C3003 H2990 0.929 . S
C3003 C2995 1.433 . S
C3003 N3005 1.384 . S
N3004 C3000 1.427 . S
N3004 C3001 1.384 . S
N3005 C2997 1.427 1_545 S
N3005 C3003 1.384 . S
H3006 C3012 0.930 . S
H3007 C3016 0.930 . S
H3008 C3021 0.929 . S
H3009 C3019 0.929 . S
H3010 C3014 0.929 . S
H3011 C3020 0.929 . S
C3012 H3006 0.930 . S
C3012 C3013 1.367 . S
C3012 C3020 1.378 . S
C3013 C3012 1.367 . S
C3013 C3021 1.433 . S
C3014 H3010 0.929 . S
C3014 C3016 1.378 . S
C3014 C3018 1.350 1_565 S
C3015 C3018 1.463 . S
C3015 C3020 1.350 . S
C3015 N3023 1.427 . S
C3016 H3007 0.930 . S
C3016 C3014 1.378 . S
C3016 C3017 1.367 . S
C3017 C3016 1.367 . S
C3017 C3019 1.433 . S
C3018 C3014 1.350 1_545 S
C3018 C3015 1.463 . S
C3018 N3022 1.427 1_545 S
C3019 H3009 0.929 . S
C3019 C3017 1.433 . S
C3019 N3022 1.384 . S
C3020 H3011 0.929 . S
C3020 C3012 1.378 . S
C3020 C3015 1.350 . S
C3021 H3008 0.929 . S
C3021 C3013 1.433 . S
C3021 N3023 1.384 . S
N3022 C3018 1.427 1_565 S
N3022 C3019 1.384 . S
N3023 C3015 1.427 . S
N3023 C3021 1.384 . S
H3024 C3030 0.930 . S
H3025 C3034 0.930 . S
H3026 C3039 0.929 . S
H3027 C3037 0.929 . S
H3028 C3032 0.929 . S
H3029 C3038 0.929 . S
C3030 H3024 0.930 . S
C3030 C3031 1.367 . S
C3030 C3038 1.378 . S
C3031 C3030 1.367 . S
C3031 C3039 1.433 . S
C3032 H3028 0.929 . S
C3032 C3034 1.378 . S
C3032 C3036 1.350 . S
C3033 C3036 1.463 . S
C3033 C3038 1.350 . S
C3033 N3041 1.427 . S
C3034 H3025 0.930 . S
C3034 C3032 1.378 . S
C3034 C3035 1.367 . S
C3035 C3034 1.367 . S
C3035 C3037 1.433 . S
C3036 C3032 1.350 . S
C3036 C3033 1.463 . S
C3036 N3040 1.427 . S
C3037 H3027 0.929 . S
C3037 C3035 1.433 . S
C3037 N3040 1.384 . S
C3038 H3029 0.929 . S
C3038 C3030 1.378 . S
C3038 C3033 1.350 . S
C3039 H3026 0.929 . S
C3039 C3031 1.433 . S
C3039 N3041 1.384 . S
N3040 C3036 1.427 . S
N3040 C3037 1.384 . S
N3041 C3033 1.427 . S
N3041 C3039 1.384 . S
H3042 C3048 0.930 . S
H3043 C3052 0.930 . S
H3044 C3057 0.929 . S
H3045 C3055 0.929 . S
H3046 C3050 0.929 . S
H3047 C3056 0.929 . S
C3048 H3042 0.930 . S
C3048 C3049 1.367 . S
C3048 C3056 1.378 . S
C3049 C3048 1.367 . S
C3049 C3057 1.433 . S
C3050 H3046 0.929 . S
C3050 C3052 1.378 . S
C3050 C3054 1.350 . S
C3051 C3054 1.463 . S
C3051 C3056 1.350 . S
C3051 N3059 1.427 . S
C3052 H3043 0.930 . S
C3052 C3050 1.378 . S
C3052 C3053 1.367 . S
C3053 C3052 1.367 . S
C3053 C3055 1.433 . S
C3054 C3050 1.350 . S
C3054 C3051 1.463 . S
C3054 N3058 1.427 . S
C3055 H3045 0.929 . S
C3055 C3053 1.433 . S
C3055 N3058 1.384 . S
C3056 H3047 0.929 . S
C3056 C3048 1.378 . S
C3056 C3051 1.350 . S
C3057 H3044 0.929 . S
C3057 C3049 1.433 . S
C3057 N3059 1.384 . S
N3058 C3054 1.427 . S
N3058 C3055 1.384 . S
N3059 C3051 1.427 . S
N3059 C3057 1.384 . S
H3060 C3066 0.930 . S
H3061 C3070 0.930 . S
H3062 C3075 0.929 . S
H3063 C3073 0.929 . S
H3064 C3068 0.929 . S
H3065 C3074 0.929 . S
C3066 H3060 0.930 . S
C3066 C3067 1.367 . S
C3066 C3074 1.378 . S
C3067 C3066 1.367 . S
C3067 C3075 1.433 . S
C3068 H3064 0.929 . S
C3068 C3070 1.378 . S
C3068 C3072 1.350 . S
C3069 C3072 1.463 . S
C3069 C3074 1.350 . S
C3069 N3077 1.427 . S
C3070 H3061 0.930 . S
C3070 C3068 1.378 . S
C3070 C3071 1.367 . S
C3071 C3070 1.367 . S
C3071 C3073 1.433 . S
C3072 C3068 1.350 . S
C3072 C3069 1.463 . S
C3072 N3076 1.427 . S
C3073 H3063 0.929 . S
C3073 C3071 1.433 . S
C3073 N3076 1.384 . S
C3074 H3065 0.929 . S
C3074 C3066 1.378 . S
C3074 C3069 1.350 . S
C3075 H3062 0.929 . S
C3075 C3067 1.433 . S
C3075 N3077 1.384 . S
N3076 C3072 1.427 . S
N3076 C3073 1.384 . S
N3077 C3069 1.427 . S
N3077 C3075 1.384 . S
H3078 C3084 0.930 . S
H3079 C3088 0.930 . S
H3080 C3093 0.929 . S
H3081 C3091 0.929 . S
H3082 C3086 0.929 . S
H3083 C3092 0.931 . S
C3084 H3078 0.930 . S
C3084 C3085 1.367 . S
C3084 C3092 1.374 1_455 S
C3085 C3084 1.367 . S
C3085 C3093 1.433 . S
C3086 H3082 0.929 . S
C3086 C3088 1.378 . S
C3086 C3090 1.350 . S
C3087 C3090 1.463 . S
C3087 C3092 1.351 . S
C3087 N3095 1.427 1_655 S
C3088 H3079 0.930 . S
C3088 C3086 1.378 . S
C3088 C3089 1.367 . S
C3089 C3088 1.367 . S
C3089 C3091 1.433 . S
C3090 C3086 1.350 . S
C3090 C3087 1.463 . S
C3090 N3094 1.427 . S
C3091 H3081 0.929 . S
C3091 C3089 1.433 . S
C3091 N3094 1.384 . S
C3092 H3083 0.931 . S
C3092 C3084 1.374 1_655 S
C3092 C3087 1.351 . S
C3093 H3080 0.929 . S
C3093 C3085 1.433 . S
C3093 N3095 1.384 . S
N3094 C3090 1.427 . S
N3094 C3091 1.384 . S
N3095 C3087 1.427 1_455 S
N3095 C3093 1.384 . S
H3096 C3102 0.930 . S
H3097 C3106 0.930 . S
H3098 C3111 0.929 . S
H3099 C3109 0.929 . S
H3100 C3104 0.929 . S
H3101 C3110 0.929 . S
C3102 H3096 0.930 . S
C3102 C3103 1.367 . S
C3102 C3110 1.378 . S
C3103 C3102 1.367 . S
C3103 C3111 1.433 . S
C3104 H3100 0.929 . S
C3104 C3106 1.378 . S
C3104 C3108 1.350 . S
C3105 C3108 1.463 . S
C3105 C3110 1.350 . S
C3105 N3113 1.427 . S
C3106 H3097 0.930 . S
C3106 C3104 1.378 . S
C3106 C3107 1.367 . S
C3107 C3106 1.367 . S
C3107 C3109 1.433 . S
C3108 C3104 1.350 . S
C3108 C3105 1.463 . S
C3108 N3112 1.427 . S
C3109 H3099 0.929 . S
C3109 C3107 1.433 . S
C3109 N3112 1.384 . S
C3110 H3101 0.929 . S
C3110 C3102 1.378 . S
C3110 C3105 1.350 . S
C3111 H3098 0.929 . S
C3111 C3103 1.433 . S
C3111 N3113 1.384 . S
N3112 C3108 1.427 . S
N3112 C3109 1.384 . S
N3113 C3105 1.427 . S
N3113 C3111 1.384 . S
H3114 C3120 0.930 . S
H3115 C3124 0.930 . S
H3116 C3129 0.929 . S
H3117 C3127 0.929 . S
H3118 C3122 0.929 . S
H3119 C3128 0.929 . S
C3120 H3114 0.930 . S
C3120 C3121 1.367 . S
C3120 C3128 1.378 . S
C3121 C3120 1.367 . S
C3121 C3129 1.433 . S
C3122 H3118 0.929 . S
C3122 C3124 1.378 . S
C3122 C3126 1.350 . S
C3123 C3126 1.463 . S
C3123 C3128 1.350 1_655 S
C3123 N3131 1.427 1_655 S
C3124 H3115 0.930 . S
C3124 C3122 1.378 . S
C3124 C3125 1.367 . S
C3125 C3124 1.367 . S
C3125 C3127 1.433 . S
C3126 C3122 1.350 . S
C3126 C3123 1.463 . S
C3126 N3130 1.427 . S
C3127 H3117 0.929 . S
C3127 C3125 1.433 . S
C3127 N3130 1.384 . S
C3128 H3119 0.929 . S
C3128 C3120 1.378 . S
C3128 C3123 1.350 1_455 S
C3129 H3116 0.929 . S
C3129 C3121 1.433 . S
C3129 N3131 1.384 . S
N3130 C3126 1.427 . S
N3130 C3127 1.384 . S
N3131 C3123 1.427 1_455 S
N3131 C3129 1.384 . S
H3132 C3138 0.930 . S
H3133 C3142 0.930 . S
H3134 C3147 0.929 . S
H3135 C3145 0.929 . S
H3136 C3140 0.929 . S
H3137 C3146 0.929 . S
C3138 H3132 0.930 . S
C3138 C3139 1.367 . S
C3138 C3146 1.378 . S
C3139 C3138 1.367 . S
C3139 C3147 1.433 . S
C3140 H3136 0.929 . S
C3140 C3142 1.378 . S
C3140 C3144 1.350 . S
C3141 C3144 1.463 . S
C3141 C3146 1.350 . S
C3141 N3149 1.427 . S
C3142 H3133 0.930 . S
C3142 C3140 1.378 . S
C3142 C3143 1.367 . S
C3143 C3142 1.367 . S
C3143 C3145 1.433 . S
C3144 C3140 1.350 . S
C3144 C3141 1.463 . S
C3144 N3148 1.427 . S
C3145 H3135 0.929 . S
C3145 C3143 1.433 . S
C3145 N3148 1.384 . S
C3146 H3137 0.929 . S
C3146 C3138 1.378 . S
C3146 C3141 1.350 . S
C3147 H3134 0.929 . S
C3147 C3139 1.433 . S
C3147 N3149 1.384 . S
N3148 C3144 1.427 . S
N3148 C3145 1.384 . S
N3149 C3141 1.427 . S
N3149 C3147 1.384 . S
H3150 C3156 0.930 . S
H3151 C3160 0.930 . S
H3152 C3165 0.929 . S
H3153 C3163 0.929 . S
H3154 C3158 0.929 . S
H3155 C3164 0.929 . S
C3156 H3150 0.930 . S
C3156 C3157 1.367 . S
C3156 C3164 1.378 . S
C3157 C3156 1.367 . S
C3157 C3165 1.433 . S
C3158 H3154 0.929 . S
C3158 C3160 1.378 . S
C3158 C3162 1.350 . S
C3159 C3162 1.463 . S
C3159 C3164 1.350 . S
C3159 N3167 1.427 . S
C3160 H3151 0.930 . S
C3160 C3158 1.378 . S
C3160 C3161 1.367 . S
C3161 C3160 1.367 . S
C3161 C3163 1.433 . S
C3162 C3158 1.350 . S
C3162 C3159 1.463 . S
C3162 N3166 1.427 . S
C3163 H3153 0.929 . S
C3163 C3161 1.433 . S
C3163 N3166 1.384 . S
C3164 H3155 0.929 . S
C3164 C3156 1.378 . S
C3164 C3159 1.350 . S
C3165 H3152 0.929 . S
C3165 C3157 1.433 . S
C3165 N3167 1.384 . S
N3166 C3162 1.427 . S
N3166 C3163 1.384 . S
N3167 C3159 1.427 . S
N3167 C3165 1.384 . S
H3168 C3174 0.930 . S
H3169 C3178 0.930 . S
H3170 C3183 0.929 . S
H3171 C3181 0.929 . S
H3172 C3176 0.929 . S
H3173 C3182 0.929 . S
C3174 H3168 0.930 . S
C3174 C3175 1.367 . S
C3174 C3182 1.378 . S
C3175 C3174 1.367 . S
C3175 C3183 1.433 . S
C3176 H3172 0.929 . S
C3176 C3178 1.378 . S
C3176 C3180 1.350 . S
C3177 C3180 1.463 . S
C3177 C3182 1.350 . S
C3177 N3185 1.427 . S
C3178 H3169 0.930 . S
C3178 C3176 1.378 . S
C3178 C3179 1.367 . S
C3179 C3178 1.367 . S
C3179 C3181 1.433 . S
C3180 C3176 1.350 . S
C3180 C3177 1.463 . S
C3180 N3184 1.427 . S
C3181 H3171 0.929 . S
C3181 C3179 1.433 . S
C3181 N3184 1.384 . S
C3182 H3173 0.929 . S
C3182 C3174 1.378 . S
C3182 C3177 1.350 . S
C3183 H3170 0.929 . S
C3183 C3175 1.433 . S
C3183 N3185 1.384 . S
N3184 C3180 1.427 . S
N3184 C3181 1.384 . S
N3185 C3177 1.427 . S
N3185 C3183 1.384 . S
H3186 C3192 0.930 . S
H3187 C3196 0.930 . S
H3188 C3201 0.929 . S
H3189 C3199 0.929 . S
H3190 C3194 0.929 . S
H3191 C3200 0.929 . S
C3192 H3186 0.930 . S
C3192 C3193 1.367 . S
C3192 C3200 1.378 . S
C3193 C3192 1.367 . S
C3193 C3201 1.433 . S
C3194 H3190 0.929 . S
C3194 C3196 1.378 1_556 S
C3194 C3198 1.350 . S
C3195 C3198 1.463 . S
C3195 C3200 1.350 . S
C3195 N3203 1.427 . S
C3196 H3187 0.930 . S
C3196 C3194 1.378 1_554 S
C3196 C3197 1.367 . S
C3197 C3196 1.367 . S
C3197 C3199 1.433 . S
C3198 C3194 1.350 . S
C3198 C3195 1.463 . S
C3198 N3202 1.395 1_556 S
C3199 H3189 0.929 . S
C3199 C3197 1.433 . S
C3199 N3202 1.431 . S
C3200 H3191 0.929 . S
C3200 C3192 1.378 . S
C3200 C3195 1.350 . S
C3201 H3188 0.929 . S
C3201 C3193 1.433 . S
C3201 N3203 1.384 . S
N3202 C3198 1.395 1_554 S
N3202 C3199 1.431 . S
N3203 C3195 1.427 . S
N3203 C3201 1.384 . S
H3204 C3210 0.930 . S
H3205 C3214 0.930 . S
H3206 C3219 0.929 . S
H3207 C3217 0.929 . S
H3208 C3212 0.929 . S
H3209 C3218 0.929 . S
C3210 H3204 0.930 . S
C3210 C3211 1.367 . S
C3210 C3218 1.378 . S
C3211 C3210 1.367 . S
C3211 C3219 1.433 . S
C3212 H3208 0.929 . S
C3212 C3214 1.378 . S
C3212 C3216 1.350 . S
C3213 C3216 1.463 . S
C3213 C3218 1.350 . S
C3213 N3221 1.427 . S
C3214 H3205 0.930 . S
C3214 C3212 1.378 . S
C3214 C3215 1.367 . S
C3215 C3214 1.367 . S
C3215 C3217 1.433 . S
C3216 C3212 1.350 . S
C3216 C3213 1.463 . S
C3216 N3220 1.427 . S
C3217 H3207 0.929 . S
C3217 C3215 1.433 . S
C3217 N3220 1.384 . S
C3218 H3209 0.929 . S
C3218 C3210 1.378 . S
C3218 C3213 1.350 . S
C3219 H3206 0.929 . S
C3219 C3211 1.433 . S
C3219 N3221 1.384 . S
N3220 C3216 1.427 . S
N3220 C3217 1.384 . S
N3221 C3213 1.427 . S
N3221 C3219 1.384 . S
H3222 C3228 0.930 . S
H3223 C3232 0.930 . S
H3224 C3237 0.929 . S
H3225 C3235 0.929 . S
H3226 C3230 0.929 . S
H3227 C3236 0.929 . S
C3228 H3222 0.930 . S
C3228 C3229 1.367 . S
C3228 C3236 1.378 . S
C3229 C3228 1.367 . S
C3229 C3237 1.433 . S
C3230 H3226 0.929 . S
C3230 C3232 1.378 . S
C3230 C3234 1.350 . S
C3231 C3234 1.463 . S
C3231 C3236 1.350 . S
C3231 N3239 1.427 . S
C3232 H3223 0.930 . S
C3232 C3230 1.378 . S
C3232 C3233 1.367 . S
C3233 C3232 1.367 . S
C3233 C3235 1.433 . S
C3234 C3230 1.350 . S
C3234 C3231 1.463 . S
C3234 N3238 1.427 . S
C3235 H3225 0.929 . S
C3235 C3233 1.433 . S
C3235 N3238 1.384 . S
C3236 H3227 0.929 . S
C3236 C3228 1.378 . S
C3236 C3231 1.350 . S
C3237 H3224 0.929 . S
C3237 C3229 1.433 . S
C3237 N3239 1.384 . S
N3238 C3234 1.427 . S
N3238 C3235 1.384 . S
N3239 C3231 1.427 . S
N3239 C3237 1.384 . S
H3240 C3246 0.930 . S
H3241 C3250 0.930 . S
H3242 C3255 0.929 . S
H3243 C3253 0.929 . S
H3244 C3248 0.929 . S
H3245 C3254 0.929 . S
C3246 H3240 0.930 . S
C3246 C3247 1.367 . S
C3246 C3254 1.378 . S
C3247 C3246 1.367 . S
C3247 C3255 1.433 . S
C3248 H3244 0.929 . S
C3248 C3250 1.378 . S
C3248 C3252 1.350 . S
C3249 C3252 1.463 . S
C3249 C3254 1.350 . S
C3249 N3257 1.427 . S
C3250 H3241 0.930 . S
C3250 C3248 1.378 . S
C3250 C3251 1.367 . S
C3251 C3250 1.367 . S
C3251 C3253 1.433 . S
C3252 C3248 1.350 . S
C3252 C3249 1.463 . S
C3252 N3256 1.427 . S
C3253 H3243 0.929 . S
C3253 C3251 1.433 . S
C3253 N3256 1.384 . S
C3254 H3245 0.929 . S
C3254 C3246 1.378 . S
C3254 C3249 1.350 . S
C3255 H3242 0.929 . S
C3255 C3247 1.433 . S
C3255 N3257 1.384 . S
N3256 C3252 1.427 . S
N3256 C3253 1.384 . S
N3257 C3249 1.427 . S
N3257 C3255 1.384 . S
H3258 C3264 0.930 . S
H3259 C3268 0.930 . S
H3260 C3273 0.929 . S
H3261 C3271 0.929 . S
H3262 C3266 0.929 . S
H3263 C3272 0.929 . S
C3264 H3258 0.930 . S
C3264 C3265 1.367 . S
C3264 C3272 1.378 . S
C3265 C3264 1.367 . S
C3265 C3273 1.433 . S
C3266 H3262 0.929 . S
C3266 C3268 1.378 1_554 S
C3266 C3270 1.350 . S
C3267 C3270 1.463 . S
C3267 C3272 1.350 . S
C3267 N3275 1.427 . S
C3268 H3259 0.930 . S
C3268 C3266 1.378 1_556 S
C3268 C3269 1.367 . S
C3269 C3268 1.367 . S
C3269 C3271 1.433 . S
C3270 C3266 1.350 . S
C3270 C3267 1.463 . S
C3270 N3274 1.401 1_554 S
C3271 H3261 0.929 . S
C3271 C3269 1.433 . S
C3271 N3274 1.423 . S
C3272 H3263 0.929 . S
C3272 C3264 1.378 . S
C3272 C3267 1.350 . S
C3273 H3260 0.929 . S
C3273 C3265 1.433 . S
C3273 N3275 1.384 . S
N3274 C3270 1.401 1_556 S
N3274 C3271 1.423 . S
N3275 C3267 1.427 . S
N3275 C3273 1.384 . S
H3276 C3282 0.930 . S
H3277 C3286 0.930 . S
H3278 C3291 0.929 . S
H3279 C3289 0.929 . S
H3280 C3284 0.929 . S
H3281 C3290 0.929 . S
C3282 H3276 0.930 . S
C3282 C3283 1.367 . S
C3282 C3290 1.378 . S
C3283 C3282 1.367 . S
C3283 C3291 1.433 . S
C3284 H3280 0.929 . S
C3284 C3286 1.378 . S
C3284 C3288 1.350 . S
C3285 C3288 1.463 . S
C3285 C3290 1.350 . S
C3285 N3293 1.427 . S
C3286 H3277 0.930 . S
C3286 C3284 1.378 . S
C3286 C3287 1.367 . S
C3287 C3286 1.367 . S
C3287 C3289 1.433 . S
C3288 C3284 1.350 . S
C3288 C3285 1.463 . S
C3288 N3292 1.427 . S
C3289 H3279 0.929 . S
C3289 C3287 1.433 . S
C3289 N3292 1.384 . S
C3290 H3281 0.929 . S
C3290 C3282 1.378 . S
C3290 C3285 1.350 . S
C3291 H3278 0.929 . S
C3291 C3283 1.433 . S
C3291 N3293 1.384 . S
N3292 C3288 1.427 . S
N3292 C3289 1.384 . S
N3293 C3285 1.427 . S
N3293 C3291 1.384 . S
H3294 C3300 0.930 . S
H3295 C3304 0.930 . S
H3296 C3309 0.929 . S
H3297 C3307 0.929 . S
H3298 C3302 0.929 . S
H3299 C3308 0.929 . S
C3300 H3294 0.930 . S
C3300 C3301 1.367 . S
C3300 C3308 1.378 . S
C3301 C3300 1.367 . S
C3301 C3309 1.433 . S
C3302 H3298 0.929 . S
C3302 C3304 1.378 . S
C3302 C3306 1.350 . S
C3303 C3306 1.463 . S
C3303 C3308 1.350 . S
C3303 N3311 1.427 . S
C3304 H3295 0.930 . S
C3304 C3302 1.378 . S
C3304 C3305 1.367 . S
C3305 C3304 1.367 . S
C3305 C3307 1.433 . S
C3306 C3302 1.350 . S
C3306 C3303 1.463 . S
C3306 N3310 1.427 . S
C3307 H3297 0.929 . S
C3307 C3305 1.433 . S
C3307 N3310 1.384 . S
C3308 H3299 0.929 . S
C3308 C3300 1.378 . S
C3308 C3303 1.350 . S
C3309 H3296 0.929 . S
C3309 C3301 1.433 . S
C3309 N3311 1.384 . S
N3310 C3306 1.427 . S
N3310 C3307 1.384 . S
N3311 C3303 1.427 . S
N3311 C3309 1.384 . S
H3312 C3318 0.930 . S
H3313 C3322 0.930 . S
H3314 C3327 0.929 . S
H3315 C3325 0.929 . S
H3316 C3320 0.929 . S
H3317 C3326 0.929 . S
C3318 H3312 0.930 . S
C3318 C3319 1.367 . S
C3318 C3326 1.378 . S
C3319 C3318 1.367 . S
C3319 C3327 1.433 . S
C3320 H3316 0.929 . S
C3320 C3322 1.378 . S
C3320 C3324 1.350 . S
C3321 C3324 1.463 . S
C3321 C3326 1.350 . S
C3321 N3329 1.427 . S
C3322 H3313 0.930 . S
C3322 C3320 1.378 . S
C3322 C3323 1.367 . S
C3323 C3322 1.367 . S
C3323 C3325 1.433 . S
C3324 C3320 1.350 . S
C3324 C3321 1.463 . S
C3324 N3328 1.427 . S
C3325 H3315 0.929 . S
C3325 C3323 1.433 . S
C3325 N3328 1.384 . S
C3326 H3317 0.929 . S
C3326 C3318 1.378 . S
C3326 C3321 1.350 . S
C3327 H3314 0.929 . S
C3327 C3319 1.433 . S
C3327 N3329 1.384 . S
N3328 C3324 1.427 . S
N3328 C3325 1.384 . S
N3329 C3321 1.427 . S
N3329 C3327 1.384 . S
H3330 C3336 0.930 . S
H3331 C3340 0.930 . S
H3332 C3345 0.929 . S
H3333 C3343 0.929 . S
H3334 C3338 0.929 . S
H3335 C3344 0.929 . S
C3336 H3330 0.930 . S
C3336 C3337 1.367 . S
C3336 C3344 1.378 . S
C3337 C3336 1.367 . S
C3337 C3345 1.433 . S
C3338 H3334 0.929 . S
C3338 C3340 1.378 . S
C3338 C3342 1.350 . S
C3339 C3342 1.463 . S
C3339 C3344 1.350 . S
C3339 N3347 1.427 . S
C3340 H3331 0.930 . S
C3340 C3338 1.378 . S
C3340 C3341 1.367 . S
C3341 C3340 1.367 . S
C3341 C3343 1.433 . S
C3342 C3338 1.350 . S
C3342 C3339 1.463 . S
C3342 N3346 1.427 . S
C3343 H3333 0.929 . S
C3343 C3341 1.433 . S
C3343 N3346 1.384 . S
C3344 H3335 0.929 . S
C3344 C3336 1.378 . S
C3344 C3339 1.350 . S
C3345 H3332 0.929 . S
C3345 C3337 1.433 . S
C3345 N3347 1.384 . S
N3346 C3342 1.427 . S
N3346 C3343 1.384 . S
N3347 C3339 1.427 . S
N3347 C3345 1.384 . S
H3348 C3354 0.930 . S
H3349 C3358 0.930 . S
H3350 C3363 0.929 . S
H3351 C3361 0.929 . S
H3352 C3356 0.929 1_565 S
H3353 C3362 0.929 . S
C3354 H3348 0.930 . S
C3354 C3355 1.367 . S
C3354 C3362 1.378 . S
C3355 C3354 1.367 . S
C3355 C3363 1.433 . S
C3356 H3352 0.929 1_545 S
C3356 C3358 1.378 . S
C3356 C3360 1.350 1_545 S
C3357 C3360 1.463 . S
C3357 C3362 1.350 . S
C3357 N3365 1.427 . S
C3358 H3349 0.930 . S
C3358 C3356 1.378 . S
C3358 C3359 1.367 . S
C3359 C3358 1.367 . S
C3359 C3361 1.433 . S
C3360 C3356 1.350 1_565 S
C3360 C3357 1.463 . S
C3360 N3364 1.427 1_565 S
C3361 H3351 0.929 . S
C3361 C3359 1.433 . S
C3361 N3364 1.384 . S
C3362 H3353 0.929 . S
C3362 C3354 1.378 . S
C3362 C3357 1.350 . S
C3363 H3350 0.929 . S
C3363 C3355 1.433 . S
C3363 N3365 1.384 . S
N3364 C3360 1.427 1_545 S
N3364 C3361 1.384 . S
N3365 C3357 1.427 . S
N3365 C3363 1.384 . S
H3366 C3372 0.930 . S
H3367 C3376 0.930 . S
H3368 C3381 0.929 . S
H3369 C3379 0.929 . S
H3370 C3374 0.929 . S
H3371 C3380 0.929 . S
C3372 H3366 0.930 . S
C3372 C3373 1.367 . S
C3372 C3380 1.378 . S
C3373 C3372 1.367 . S
C3373 C3381 1.433 . S
C3374 H3370 0.929 . S
C3374 C3376 1.378 . S
C3374 C3378 1.350 . S
C3375 C3378 1.463 . S
C3375 C3380 1.350 . S
C3375 N3383 1.427 . S
C3376 H3367 0.930 . S
C3376 C3374 1.378 . S
C3376 C3377 1.367 . S
C3377 C3376 1.367 . S
C3377 C3379 1.433 . S
C3378 C3374 1.350 . S
C3378 C3375 1.463 . S
C3378 N3382 1.427 . S
C3379 H3369 0.929 . S
C3379 C3377 1.433 . S
C3379 N3382 1.384 . S
C3380 H3371 0.929 . S
C3380 C3372 1.378 . S
C3380 C3375 1.350 . S
C3381 H3368 0.929 . S
C3381 C3373 1.433 . S
C3381 N3383 1.384 . S
N3382 C3378 1.427 . S
N3382 C3379 1.384 . S
N3383 C3375 1.427 . S
N3383 C3381 1.384 . S
H3384 C3390 0.930 . S
H3385 C3394 0.930 . S
H3386 C3399 0.929 . S
H3387 C3397 0.929 . S
H3388 C3392 0.929 . S
H3389 C3398 0.929 . S
C3390 H3384 0.930 . S
C3390 C3391 1.367 . S
C3390 C3398 1.378 . S
C3391 C3390 1.367 . S
C3391 C3399 1.433 . S
C3392 H3388 0.929 . S
C3392 C3394 1.378 . S
C3392 C3396 1.350 . S
C3393 C3396 1.463 . S
C3393 C3398 1.350 . S
C3393 N3401 1.427 . S
C3394 H3385 0.930 . S
C3394 C3392 1.378 . S
C3394 C3395 1.367 . S
C3395 C3394 1.367 . S
C3395 C3397 1.433 . S
C3396 C3392 1.350 . S
C3396 C3393 1.463 . S
C3396 N3400 1.427 . S
C3397 H3387 0.929 . S
C3397 C3395 1.433 . S
C3397 N3400 1.384 . S
C3398 H3389 0.929 . S
C3398 C3390 1.378 . S
C3398 C3393 1.350 . S
C3399 H3386 0.929 . S
C3399 C3391 1.433 . S
C3399 N3401 1.384 . S
N3400 C3396 1.427 . S
N3400 C3397 1.384 . S
N3401 C3393 1.427 . S
N3401 C3399 1.384 . S
H3402 C3408 0.930 . S
H3403 C3412 0.930 . S
H3404 C3417 0.929 . S
H3405 C3415 0.929 . S
H3406 C3410 0.929 . S
H3407 C3416 0.929 . S
C3408 H3402 0.930 . S
C3408 C3409 1.367 . S
C3408 C3416 1.378 . S
C3409 C3408 1.367 . S
C3409 C3417 1.433 . S
C3410 H3406 0.929 . S
C3410 C3412 1.378 . S
C3410 C3414 1.350 . S
C3411 C3414 1.463 . S
C3411 C3416 1.350 . S
C3411 N3419 1.427 . S
C3412 H3403 0.930 . S
C3412 C3410 1.378 . S
C3412 C3413 1.367 . S
C3413 C3412 1.367 . S
C3413 C3415 1.433 . S
C3414 C3410 1.350 . S
C3414 C3411 1.463 . S
C3414 N3418 1.427 . S
C3415 H3405 0.929 . S
C3415 C3413 1.433 . S
C3415 N3418 1.384 . S
C3416 H3407 0.929 . S
C3416 C3408 1.378 . S
C3416 C3411 1.350 . S
C3417 H3404 0.929 . S
C3417 C3409 1.433 . S
C3417 N3419 1.384 . S
N3418 C3414 1.427 . S
N3418 C3415 1.384 . S
N3419 C3411 1.427 . S
N3419 C3417 1.384 . S
H3420 C3426 0.930 . S
H3421 C3430 0.930 . S
H3422 C3435 0.929 . S
H3423 C3433 0.929 . S
H3424 C3428 0.929 . S
H3425 C3434 0.923 1_545 S
C3426 H3420 0.930 . S
C3426 C3427 1.367 . S
C3426 C3434 1.388 . S
C3427 C3426 1.367 . S
C3427 C3435 1.433 . S
C3428 H3424 0.929 . S
C3428 C3430 1.378 . S
C3428 C3432 1.350 . S
C3429 C3432 1.463 . S
C3429 C3434 1.346 1_545 S
C3429 N3437 1.427 1_545 S
C3430 H3421 0.930 . S
C3430 C3428 1.378 . S
C3430 C3431 1.367 . S
C3431 C3430 1.367 . S
C3431 C3433 1.433 . S
C3432 C3428 1.350 . S
C3432 C3429 1.463 . S
C3432 N3436 1.427 . S
C3433 H3423 0.929 . S
C3433 C3431 1.433 . S
C3433 N3436 1.384 . S
C3434 H3425 0.923 1_565 S
C3434 C3426 1.388 . S
C3434 C3429 1.346 1_565 S
C3435 H3422 0.929 . S
C3435 C3427 1.433 . S
C3435 N3437 1.384 . S
N3436 C3432 1.427 . S
N3436 C3433 1.384 . S
N3437 C3429 1.427 1_565 S
N3437 C3435 1.384 . S
H3438 C3444 0.930 . S
H3439 C3448 0.930 . S
H3440 C3453 0.929 . S
H3441 C3451 0.929 . S
H3442 C3446 0.904 1_565 S
H3443 C3452 0.929 . S
C3444 H3438 0.930 . S
C3444 C3445 1.367 . S
C3444 C3452 1.378 . S
C3445 C3444 1.367 . S
C3445 C3453 1.433 . S
C3446 H3442 0.904 1_545 S
C3446 C3448 1.427 . S
C3446 C3450 1.328 1_545 S
C3447 C3450 1.463 . S
C3447 C3452 1.350 . S
C3447 N3455 1.427 . S
C3448 H3439 0.930 . S
C3448 C3446 1.427 . S
C3448 C3449 1.367 . S
C3449 C3448 1.367 . S
C3449 C3451 1.433 . S
C3450 C3446 1.328 1_565 S
C3450 C3447 1.463 . S
C3450 N3454 1.427 1_565 S
C3451 H3441 0.929 . S
C3451 C3449 1.433 . S
C3451 N3454 1.384 . S
C3452 H3443 0.929 . S
C3452 C3444 1.378 . S
C3452 C3447 1.350 . S
C3453 H3440 0.929 . S
C3453 C3445 1.433 . S
C3453 N3455 1.384 . S
N3454 C3450 1.427 1_545 S
N3454 C3451 1.384 . S
N3455 C3447 1.427 . S
N3455 C3453 1.384 . S
C1735 C1515 1.352 . S
C1739 C3 1.354 . S
C1753 C40 1.298 . S
C1757 C542 1.270 . S
C1771 C75 1.359 . S
C1775 C1443 1.360 . S
C1789 C112 1.298 . S
C1793 C614 1.271 . S
C1807 C1587 1.354 . S
C1811 C148 1.360 . S
C1825 C183 1.284 . S
C1829 C770 1.241 . S
C1843 C220 1.359 . S
C1847 C1659 1.351 . S
C1861 C255 1.273 . S
C1865 C698 1.246 . S
C1879 C111 1.341 . S
C1883 C1696 1.315 . S
C1897 C4 1.358 . S
C1901 C903 1.350 . S
C1915 C940 1.318 . S
C1919 C39 1.337 . S
C1933 C76 1.351 . S
C1937 C867 1.343 . S
C1951 C184 1.320 . S
C1955 C868 1.291 . S
C1969 C219 1.358 . S
C1973 C1695 1.359 . S
C1987 C256 1.328 . S
C1991 C904 1.302 . S
C2005 C147 1.358 . S
C2009 C939 1.357 . S
C2023 C1418 1.217 . S
C2027 C291 1.265 . S
C2041 C327 1.314 . S
C2045 C686 1.291 . S
C2059 C292 1.326 . S
C2063 C1588 1.304 . S
C2077 C758 1.278 . S
C2081 C363 1.301 . S
C2095 C796 1.310 . S
C2099 C399 1.329 . S
C2113 C1490 1.210 . S
C2117 C436 1.260 . S
C2131 C1516 1.299 . S
C2135 C472 1.332 . S
C2149 C1444 1.300 . S
C2153 C508 1.320 . S
C2167 C1202 1.298 . S
C2171 C543 1.360 . S
C2185 C578 1.378 . S
C2189 C2 1.336 . S
C2203 C615 1.359 . S
C2207 C1130 1.296 . S
C2221 C74 1.325 . S
C2225 C650 1.371 . S
C2239 C688 1.346 . S
C2243 C1262 1.304 . S
C2257 C230 1.313 . S
C2261 C722 1.369 . S
C2275 C760 1.356 . S
C2279 C1334 1.304 . S
C2293 C158 1.317 . S
C2297 C794 1.366 . S
C2311 C1382 1.288 . S
C2315 C662 1.306 . S
C2329 C544 1.339 . S
C2333 C362 1.296 . S
C2347 C398 1.338 . S
C2351 C590 1.313 . S
C2365 C326 1.318 . S
C2369 C616 1.366 . S
C2383 C338 1.304 . S
C2387 C734 1.286 . S
C2401 C759 1.364 . S
C2405 C1370 1.315 . S
C2419 C374 1.276 . S
C2423 C806 1.265 . S
C2437 C687 1.345 . S
C2441 C410 1.276 . S
C2455 C830 1.352 . S
C2459 C1094 1.306 . S
C2473 C866 1.398 . S
C2477 C146 1.346 . S
C2491 C842 1.269 . S
C2495 C1274 1.262 . S
C2509 C902 1.396 . S
C2513 C218 1.355 . S
C2527 C950 1.264 . S
C2531 C266 1.274 . S
C2545 C1166 1.295 . S
C2549 C974 1.348 . S
C2563 C1022 1.329 . S
C2567 C1190 1.332 . S
C2581 C1058 1.336 . S
C2585 C1118 1.337 . S
C2599 C1083 1.348 . S
C2603 C651 1.349 . S
C2617 C1120 1.299 . S
C2621 C1406 1.262 . S
C2635 C579 1.357 . S
C2639 C1155 1.354 . S
C2653 C1192 1.299 . S
C2657 C1478 1.264 . S
C2671 C1228 1.360 . S
C2675 C723 1.356 . S
C2689 C1634 1.237 . S
C2693 C1263 1.283 . S
C2707 C1300 1.358 . S
C2711 C795 1.353 . S
C2725 C1562 1.244 . S
C2729 C1335 1.276 . S
C2743 C832 1.310 . S
C2747 C1191 1.339 . S
C2761 C1047 1.351 . S
C2765 C1084 1.358 . S
C2779 C1119 1.335 . S
C2783 C976 1.315 . S
C2797 C1011 1.346 . S
C2801 C1156 1.350 . S
C2815 C1264 1.320 . S
C2819 C1012 1.293 . S
C2833 C831 1.357 . S
C2837 C1299 1.358 . S
C2851 C1336 1.328 . S
C2855 C1048 1.297 . S
C2869 C1227 1.357 . S
C2873 C975 1.358 . S
C2887 C1371 1.264 . S
C2891 C554 1.215 . S
C2905 C471 1.311 . S
C2909 C1550 1.281 . S
C2923 C724 1.292 . S
C2927 C1372 1.328 . S
C2941 C1622 1.270 . S
C2945 C507 1.303 . S
C2959 C1660 1.297 . S
C2963 C435 1.326 . S
C2977 C400 1.260 . S
C2981 C626 1.227 . S
C2995 C328 1.333 . S
C2999 C652 1.300 . S
C3013 C580 1.298 . S
C3017 C364 1.320 . S
C3031 C1407 1.356 . S
C3035 C122 1.311 . S
C3049 C1082 1.335 . S
C3053 C1442 1.379 . S
C3067 C1479 1.358 . S
C3071 C50 1.294 . S
C3085 C1514 1.373 . S
C3089 C1154 1.328 . S
C3103 C182 1.295 . S
C3107 C1552 1.348 . S
C3121 C1586 1.366 . S
C3125 C1310 1.304 . S
C3139 C1624 1.355 . S
C3143 C254 1.311 . S
C3157 C1238 1.307 . S
C3161 C1658 1.368 . S
C3175 C1526 1.294 . S
C3179 C302 1.300 . S
C3193 C506 1.289 . S
C3197 C1408 1.341 . S
C3211 C434 1.343 . S
C3215 C1454 1.314 . S
C3229 C1480 1.366 . S
C3233 C470 1.327 . S
C3247 C1598 1.303 . S
C3251 C482 1.287 . S
C3265 C290 1.316 . S
C3269 C1623 1.364 . S
C3283 C518 1.260 . S
C3287 C1670 1.279 . S
C3301 C1551 1.342 . S
C3305 C446 1.293 . S
C3319 C14 1.297 . S
C3323 C1694 1.350 . S
C3337 C1010 1.395 . S
C3341 C1226 1.360 . S
C3355 C194 1.256 . S
C3359 C1706 1.276 . S
C3373 C1298 1.352 . S
C3377 C1046 1.400 . S
C3391 C1346 1.277 . S
C3395 C986 1.260 . S
C3409 C938 1.351 . S
C3413 C86 1.289 . S
C3427 C878 1.333 . S
C3431 C110 1.334 . S
C3445 C38 1.338 . S
C3449 C914 1.336 . S
