# Generated by pormake.
# Topology ecf, (8)-cn, num edge types: 1
# Building blocks:
#     Node 0, Type 0, BuildingBlock: GIZVER_clean_sbu_0, # of connection points: 8
#     Node 1, Type 0, BuildingBlock: GIZVER_clean_sbu_0, # of connection points: 8
#     Node 2, Type 0, BuildingBlock: GIZVER_clean_sbu_0, # of connection points: 8
#     Node 3, Type 0, BuildingBlock: GIZVER_clean_sbu_0, # of connection points: 8
#     Node 4, Type 0, BuildingBlock: GIZVER_clean_sbu_0, # of connection points: 8
#     Node 5, Type 0, BuildingBlock: GIZVER_clean_sbu_0, # of connection points: 8
#     Edge 6, Type (0, 0), BuildingBlock: OJICUG_clean_linker_0, # of connection points: 2
#     Edge 7, Type (0, 0), BuildingBlock: OJICUG_clean_linker_0, # of connection points: 2
#     Edge 8, Type (0, 0), BuildingBlock: OJICUG_clean_linker_0, # of connection points: 2
#     Edge 9, Type (0, 0), BuildingBlock: OJICUG_clean_linker_0, # of connection points: 2
#     Edge 10, Type (0, 0), BuildingBlock: OJICUG_clean_linker_0, # of connection points: 2
#     Edge 11, Type (0, 0), BuildingBlock: OJICUG_clean_linker_0, # of connection points: 2
#     Edge 12, Type (0, 0), BuildingBlock: OJICUG_clean_linker_0, # of connection points: 2
#     Edge 13, Type (0, 0), BuildingBlock: OJICUG_clean_linker_0, # of connection points: 2
#     Edge 14, Type (0, 0), BuildingBlock: OJICUG_clean_linker_0, # of connection points: 2
#     Edge 15, Type (0, 0), BuildingBlock: OJICUG_clean_linker_0, # of connection points: 2
#     Edge 16, Type (0, 0), BuildingBlock: OJICUG_clean_linker_0, # of connection points: 2
#     Edge 17, Type (0, 0), BuildingBlock: OJICUG_clean_linker_0, # of connection points: 2
#     Edge 18, Type (0, 0), BuildingBlock: OJICUG_clean_linker_0, # of connection points: 2
#     Edge 19, Type (0, 0), BuildingBlock: OJICUG_clean_linker_0, # of connection points: 2
#     Edge 20, Type (0, 0), BuildingBlock: OJICUG_clean_linker_0, # of connection points: 2
#     Edge 21, Type (0, 0), BuildingBlock: OJICUG_clean_linker_0, # of connection points: 2
#     Edge 22, Type (0, 0), BuildingBlock: OJICUG_clean_linker_0, # of connection points: 2
#     Edge 23, Type (0, 0), BuildingBlock: OJICUG_clean_linker_0, # of connection points: 2
#     Edge 24, Type (0, 0), BuildingBlock: OJICUG_clean_linker_0, # of connection points: 2
#     Edge 25, Type (0, 0), BuildingBlock: OJICUG_clean_linker_0, # of connection points: 2
#     Edge 26, Type (0, 0), BuildingBlock: OJICUG_clean_linker_0, # of connection points: 2
#     Edge 27, Type (0, 0), BuildingBlock: OJICUG_clean_linker_0, # of connection points: 2
#     Edge 28, Type (0, 0), BuildingBlock: OJICUG_clean_linker_0, # of connection points: 2
#     Edge 29, Type (0, 0), BuildingBlock: OJICUG_clean_linker_0, # of connection points: 2
# Relax obj value: 0.435
# Max RMSD: 0.278
# Mean RMSD: 0.278
data_MOF--net-ecf--node1-GIZVER_clean_sbu_0--edge1-OJICUG_clean_linker_0
_symmetry_space_group_name_H-M    P1
_symmetry_Int_Tables_number       1
_symmetry_cell_setting            triclinic
loop_
_symmetry_equiv_pos_as_xyz
'x, y, z'
_cell_length_a     29.878831
_cell_length_b     29.484523
_cell_length_c     16.131247
_cell_angle_alpha  90.366682
_cell_angle_beta   89.972774
_cell_angle_gamma 120.29593
loop_
_atom_site_label
_atom_site_type_symbol
_atom_site_fract_x
_atom_site_fract_y
_atom_site_fract_z
_atom_type_partial_charge
Co0 Co 0.28716 0.46817 0.44832 0.0
Co1 Co 0.19629 0.45395 0.40863 0.0
Co2 Co 0.18764 0.34735 0.36504 0.0
O3 O 0.23457 0.42468 0.3667 0.0
H4 H 0.24617 0.43741 0.31124 0.0
O5 O 0.13817 0.27278 0.36585 0.0
Co6 Co 0.09091 0.24954 0.2767 0.0
Co7 Co 0.15655 0.23021 0.32688 0.0
H8 H 0.12246 0.25958 0.4193 0.0
O9 O 0.21008 0.5142 0.36137 0.0
O10 O 0.24471 0.50351 0.4806 0.0
O11 O 0.12497 0.41081 0.45381 0.0
O12 O 0.13783 0.3437 0.45882 0.0
O13 O 0.14277 0.35594 0.27483 0.0
O14 O 1.04294 0.2254 0.20058 0.0
O15 O 1.03692 0.21026 0.33834 0.0
O16 O 0.14158 0.29306 0.20208 0.0
O17 O 0.23612 0.34308 0.27209 0.0
O18 O 0.22277 0.26098 0.27941 0.0
O19 O 0.10369 0.19041 0.25406 0.0
O20 O 0.12715 0.16863 0.37554 0.0
C21 C 0.35393 0.54164 0.44937 0.0
C22 C 0.25521 0.36643 0.51762 0.0
C23 C 0.11022 0.36448 0.47757 0.0
C24 C 0.23768 0.53384 0.42825 0.0
C25 C 1.01532 0.20766 0.26687 0.0
C26 C 0.13257 0.33079 0.20535 0.0
C27 C 0.24806 0.30737 0.25185 0.0
C28 C 0.09955 0.15533 0.30769 0.0
O29 O 0.33897 0.51271 0.51551 0.0
O30 O 0.32564 0.52417 0.38207 0.0
O31 O 0.23201 0.33828 0.453 0.0
O32 O 0.25717 0.4108 0.52941 0.0
Co33 Co 0.93195 0.12256 0.93773 0.0
Co34 Co 0.9846 0.21172 0.85342 0.0
Co35 Co 0.88037 0.18567 0.84899 0.0
O36 O 0.91914 0.15093 0.84472 0.0
H37 H 0.9164 0.13298 0.79295 0.0
O38 O 0.84236 0.22427 0.84833 0.0
Co39 Co 0.85119 0.27722 0.76579 0.0
Co40 Co 0.77732 0.18288 0.80284 0.0
H41 H 0.83956 0.23505 0.90383 0.0
O42 O 1.04029 0.21015 0.82335 0.0
O43 O 0.99971 0.18881 0.94857 0.0
O44 O 0.99601 0.28197 0.87032 0.0
O45 O 0.9285 0.23633 0.94684 0.0
O46 O 0.93004 0.23404 0.76122 0.0
O47 O 0.85708 0.32814 0.69979 0.0
O48 O 0.83201 0.31389 0.83321 0.0
O49 O 0.87978 0.25044 0.6814 0.0
O50 O 0.83733 0.13171 0.75492 0.0
O51 O 0.75576 0.11313 0.75723 0.0
O52 O 0.77565 0.2309 0.73184 0.0
O53 O 0.72791 0.19204 0.84758 0.0
C54 C 0.95952 0.07608 0.95231 0.0
C55 C 0.84843 0.12201 1.00273 0.0
C56 C 0.97589 0.27517 0.94075 0.0
C57 C 1.03798 0.19676 0.90061 0.0
C58 C 0.8428 0.34242 0.76635 0.0
C59 C 0.92296 0.25187 0.69357 0.0
C60 C 0.78925 0.10125 0.73496 0.0
C61 C 0.73783 0.22206 0.78332 0.0
O62 O 0.94707 0.09346 1.01685 0.0
O63 O 0.95975 0.09346 0.8785 0.0
O64 O 0.83117 0.1326 0.93669 0.0
O65 O 0.89741 0.14481 1.01156 0.0
Co66 Co 0.61849 0.83545 0.45139 0.0
Co67 Co 0.63927 0.76182 0.41508 0.0
Co68 Co 0.73877 0.86611 0.36885 0.0
O69 O 0.66221 0.82724 0.3688 0.0
H70 H 0.64872 0.82368 0.31322 0.0
O71 O 0.81198 0.90396 0.37223 0.0
Co72 Co 0.85317 0.91224 0.28208 0.0
Co73 Co 0.82643 0.96987 0.35416 0.0
H74 H 0.82635 0.90255 0.42519 0.0
O75 O 0.58107 0.71015 0.37045 0.0
O76 O 0.58903 0.75871 0.4861 0.0
O77 O 0.68824 0.74193 0.46075 0.0
O78 O 0.74832 0.82577 0.46795 0.0
O79 O 0.74112 0.81342 0.28743 0.0
O80 O 0.89813 0.92001 0.206 0.0
O81 O 0.90705 0.94138 0.34271 0.0
O82 O 0.79631 0.87659 0.20733 0.0
O83 O 0.73853 0.91241 0.26729 0.0
O84 O 0.77174 0.98699 0.33462 0.0
O85 O 0.86158 0.98212 0.26131 0.0
O86 O 0.88457 1.01741 0.39516 0.0
C87 C 0.54496 0.82565 0.452 0.0
C88 C 0.71635 0.91156 0.51984 0.0
C89 C 0.73258 0.77736 0.48575 0.0
C90 C 0.56056 0.71922 0.43498 0.0
C91 C 0.92252 0.92853 0.27641 0.0
C92 C 0.76759 0.82754 0.21999 0.0
C93 C 0.75244 0.96206 0.268 0.0
C94 C 0.87615 1.02067 0.31602 0.0
O95 O 0.57386 0.84122 0.51812 0.0
O96 O 0.56213 0.81404 0.3852 0.0
O97 O 0.74035 0.91894 0.45116 0.0
O98 O 0.67516 0.86707 0.5337 0.0
Co99 Co 1.00516 0.85939 0.89808 0.0
Co100 Co 0.92986 0.81008 0.9861 0.0
Co101 Co 0.91561 0.73206 0.86212 0.0
O102 O 0.94034 0.80487 0.87577 0.0
H103 H 0.91966 0.81581 0.84523 0.0
O104 O 0.8826 0.65508 0.84915 0.0
Co105 Co 0.82773 0.6119 0.76901 0.0
Co106 Co 0.92087 0.6331 0.7929 0.0
H107 H 0.8741 0.63884 0.9031 0.0
O108 O 0.89403 0.84265 0.99982 0.0
O109 O 0.98089 0.87388 1.00611 0.0
O110 O 0.90709 0.75088 1.05861 0.0
O111 O 0.85742 0.71941 0.94863 0.0
O112 O 0.86922 0.73498 0.77112 0.0
O113 O 0.77517 0.56777 0.70424 0.0
O114 O 0.79253 0.55502 0.83492 0.0
O115 O 0.85347 0.66847 0.68772 0.0
O116 O 0.97727 0.75316 0.7759 0.0
O117 O 0.98535 0.68397 0.74333 0.0
O118 O 0.87092 0.58088 0.72746 0.0
O119 O 0.91774 0.57608 0.83545 0.0
C120 C 1.03936 0.93434 0.8775 0.0
C121 C 1.00908 0.77136 0.98014 0.0
C122 C 0.86193 0.72899 1.02796 0.0
C123 C 0.9412 0.88105 1.00848 0.0
C124 C 0.76249 0.5382 0.76942 0.0
C125 C 0.85176 0.71045 0.70211 0.0
C126 C 1.00245 0.73296 0.73977 0.0
C127 C 0.88372 0.55349 0.77643 0.0
O128 O 0.0637 0.91393 0.91451 0.0
O129 O 0.99381 0.90551 0.8454 0.0
O130 O 0.96498 0.73212 0.95522 0.0
O131 O 1.02373 0.8174 0.95577 0.0
Co132 Co 0.26234 0.81011 0.45138 0.0
Co133 Co 0.33671 0.90443 0.41877 0.0
Co134 Co 0.23387 0.90302 0.3695 0.0
O135 O 0.27312 0.86519 0.36988 0.0
H136 H 0.27698 0.85533 0.31423 0.0
O137 O 0.19193 0.93451 0.37479 0.0
Co138 Co 0.17022 0.95913 0.28617 0.0
Co139 Co 0.13178 0.86623 0.36158 0.0
H140 H 0.19143 0.94901 0.42845 0.0
O141 O 0.38675 0.89614 0.37427 0.0
O142 O 0.33775 0.85508 0.48799 0.0
O143 O 0.35673 0.97344 0.46423 0.0
O144 O 0.27518 0.95578 0.46575 0.0
O145 O 0.28133 0.95782 0.28456 0.0
O146 O 0.14504 0.98368 0.2095 0.0
O147 O 0.13228 0.97622 0.34778 0.0
O148 O 0.21502 0.94981 0.20939 0.0
O149 O 0.19174 0.8562 0.26679 0.0
O150 O 0.12448 0.79818 0.33212 0.0
O151 O 0.10819 0.88599 0.27527 0.0
O152 O 0.07553 0.8559 0.40532 0.0
C153 C 0.26984 0.74337 0.44951 0.0
C154 C 0.19071 0.83741 0.52428 0.0
C155 C 0.32346 0.98594 0.48538 0.0
C156 C 0.37627 0.86499 0.43719 0.0
C157 C 0.12447 0.99082 0.27586 0.0
C158 C 0.26417 0.97101 0.22088 0.0
C159 C 0.14781 0.81296 0.26443 0.0
C160 C 0.07049 0.86808 0.32987 0.0
O161 O 0.25469 0.75708 0.5158 0.0
O162 O 0.28184 0.77312 0.38377 0.0
O163 O 0.18308 0.85207 0.45401 0.0
O164 O 0.23299 0.83684 0.53667 0.0
Co165 Co 0.26493 0.16871 0.93834 0.0
Co166 Co 0.29897 0.10954 0.86335 0.0
Co167 Co 0.37788 0.21784 0.8517 0.0
O168 O 0.30533 0.17527 0.8473 0.0
H169 H 0.29028 0.1751 0.79424 0.0
O170 O 0.45393 0.26068 0.85029 0.0
Co171 Co 0.49723 0.25219 0.7673 0.0
Co172 Co 0.47479 0.32472 0.8012 0.0
H173 H 0.46814 0.26553 0.90564 0.0
O174 O 0.24628 0.05497 0.81947 0.0
O175 O 0.25217 0.09499 0.94482 0.0
O176 O 0.35486 0.09846 0.89227 0.0
O177 O 0.38288 0.17426 0.953 0.0
O178 O 0.37887 0.16678 0.76947 0.0
O179 O 0.54169 0.24656 0.70048 0.0
O180 O 0.55344 0.27407 0.83332 0.0
O181 O 0.44088 0.2207 0.68466 0.0
O182 O 0.36398 0.25674 0.75448 0.0
O183 O 0.42435 0.34084 0.75242 0.0
O184 O 0.52548 0.32791 0.73182 0.0
O185 O 0.53232 0.37812 0.84464 0.0
C186 C 0.19372 0.15174 0.95102 0.0
C187 C 0.34676 0.24777 1.00461 0.0
C188 C 0.3718 0.12567 0.95701 0.0
C189 C 0.22518 0.06105 0.88595 0.0
C190 C 0.57061 0.26247 0.76656 0.0
C191 C 0.40056 0.17575 0.69877 0.0
C192 C 0.37947 0.3044 0.73161 0.0
C193 C 0.5535 0.3676 0.78258 0.0
O194 O 0.22079 0.15988 1.01806 0.0
O195 O 0.21112 0.14834 0.87888 0.0
O196 O 0.3717 0.2666 0.93658 0.0
O197 O 0.32101 0.19799 1.01198 0.0
C198 C 0.27642 0.6246 0.37251 0.0
C199 C 0.25902 0.59116 0.44182 0.0
H200 H 0.29398 0.69851 0.32039 0.0
C201 C 0.25178 0.61091 0.51682 0.0
H202 H 0.28234 0.61049 0.31367 0.0
C203 C 0.25778 0.66146 0.52036 0.0
C204 C 0.27143 0.6934 0.44909 0.0
H205 H 0.23773 0.586 0.57088 0.0
H206 H 0.24924 0.67443 0.57809 0.0
C207 C 0.28278 0.67505 0.37612 0.0
C208 C 0.64852 0.27191 0.84055 0.0
C209 C 0.62107 0.26411 0.76634 0.0
H210 H 0.70816 0.26547 0.90308 0.0
C211 C 0.63939 0.25211 0.69353 0.0
H212 H 0.63599 0.28181 0.89743 0.0
C213 C 0.68138 0.24339 0.6966 0.0
C214 C 0.70523 0.24608 0.77263 0.0
H215 H 0.61949 0.24648 0.63496 0.0
H216 H 0.69232 0.23047 0.64114 0.0
C217 C 0.68996 0.26268 0.84369 0.0
C218 C 0.43426 0.61152 0.52305 0.0
C219 C 0.40339 0.59315 0.45065 0.0
H220 H 0.50838 0.66728 0.57595 0.0
C221 C 0.42207 0.62284 0.37803 0.0
H222 H 0.42089 0.58994 0.58046 0.0
C223 C 0.47189 0.66702 0.37592 0.0
C224 C 0.50418 0.68309 0.44644 0.0
H225 H 0.39932 0.6105 0.3215 0.0
H226 H 0.48635 0.68709 0.31747 0.0
C227 C 0.48418 0.65622 0.52102 0.0
C228 C 0.84968 0.42041 0.69178 0.0
C229 C 0.84166 0.39219 0.76601 0.0
H230 H 0.86809 0.49401 0.63624 0.0
C231 C 0.83808 0.41475 0.84065 0.0
H232 H 0.85198 0.40384 0.63292 0.0
C233 C 0.84741 0.46619 0.84216 0.0
C234 C 0.85978 0.49592 0.76907 0.0
H235 H 0.83142 0.39404 0.89868 0.0
H236 H 0.84792 0.4839 0.9015 0.0
C237 C 0.85842 0.47185 0.69326 0.0
C238 C 0.43366 0.84416 0.52301 0.0
C239 C 0.40942 0.84137 0.44729 0.0
H240 H 0.49601 0.84144 0.58395 0.0
C241 C 0.42508 0.82546 0.37581 0.0
H242 H 0.42264 0.85672 0.57878 0.0
C243 C 0.46688 0.81667 0.37837 0.0
C244 C 0.49446 0.82425 0.45242 0.0
H245 H 0.40677 0.82276 0.31656 0.0
H246 H 0.47948 0.80715 0.32123 0.0
C247 C 0.47602 0.83589 0.5255 0.0
C248 C 0.63259 0.42472 0.69792 0.0
C249 C 0.61021 0.40156 0.7738 0.0
H250 H 0.69882 0.48669 0.63701 0.0
C251 C 0.641 0.41851 0.84598 0.0
H252 H 0.60962 0.41254 0.64159 0.0
C253 C 0.69193 0.46062 0.84371 0.0
C254 C 0.71291 0.48723 0.76928 0.0
H255 H 0.62463 0.40092 0.90533 0.0
H256 H 0.71356 0.47432 0.90119 0.0
C257 C 0.6835 0.46748 0.69574 0.0
C258 C 0.08666 0.08728 0.20659 0.0
C259 C 0.07478 0.09999 0.28426 0.0
H260 H 0.11265 1.04108 0.14276 0.0
C261 C 0.06078 0.06418 0.34927 0.0
H262 H 0.09613 0.11369 0.15492 0.0
C263 C 0.07327 1.02496 0.34429 0.0
C264 C 0.0952 1.01838 0.27158 0.0
H265 H 1.04996 0.07261 0.40911 0.0
H266 H 0.07101 1.00394 0.40036 0.0
C267 C 0.09699 0.04623 0.20019 0.0
C268 C 0.09628 0.18974 1.00144 0.0
C269 C 0.07044 0.17649 0.92515 0.0
H270 H 0.15826 0.19152 1.07048 0.0
C271 C 0.07702 0.14467 0.86807 0.0
H272 H 0.09027 0.21364 1.04632 0.0
C273 C 0.11337 0.13059 0.88277 0.0
C274 C 0.14432 0.14913 0.95382 0.0
H275 H 0.05595 0.13295 0.80979 0.0
H276 H 0.12089 0.11018 0.83388 0.0
C277 C 0.13412 0.17642 1.01557 0.0
C278 C 0.94282 0.14022 0.19083 0.0
C279 C 0.95984 0.17518 0.25801 0.0
H280 H 0.9037 0.05857 0.15935 0.0
C281 C 0.93002 0.16258 0.32984 0.0
H282 H 0.9641 0.15144 0.13335 0.0
C283 C 0.89485 0.11026 0.34446 0.0
C284 C 0.89075 0.07251 0.28664 0.0
H285 H 0.94098 0.19055 0.38055 0.0
H286 H 0.87739 0.09907 0.40533 0.0
C287 C 0.90912 0.08744 0.20605 0.0
C288 C 0.939 0.99037 0.90391 0.0
C289 C 0.96479 1.03089 0.96158 0.0
H290 H 0.908 0.90926 0.87846 0.0
C291 C 0.98391 1.02283 1.03581 0.0
H292 H 0.92256 0.9958 0.84753 0.0
C293 C 0.97673 0.97356 1.05251 0.0
C294 C 0.94927 0.93269 0.99582 0.0
H295 H 1.00298 0.05409 1.08126 0.0
H296 H 0.99276 0.96792 1.10879 0.0
C297 C 0.92977 0.94097 0.92233 0.0
C298 C 0.97437 0.89096 0.2222 0.0
C299 C 0.961 0.91325 0.2874 0.0
H300 H 1.02185 0.85947 0.18352 0.0
C301 C 0.97741 0.91206 0.36824 0.0
H302 H 0.9573 0.88596 0.16222 0.0
C303 C 1.0098 0.89268 0.3823 0.0
C304 C 1.02766 0.87591 0.31534 0.0
H305 H 0.96585 0.92652 0.42118 0.0
H306 H 1.0236 0.89448 0.44505 0.0
C307 C 1.00921 0.87385 0.23525 0.0
C308 C 0.14565 1.03166 0.80424 0.0
C309 C 0.17014 1.0403 0.8821 0.0
H310 H 0.07302 0.99533 0.74098 0.0
C311 C 0.14238 1.03414 0.95468 0.0
H312 H 0.16716 1.0403 0.7468 0.0
C313 C 0.08947 1.01348 0.94938 0.0
C314 C 0.06483 0.99047 0.87398 0.0
H315 H 0.1611 0.04336 1.01491 0.0
H316 H 0.06865 1.00187 1.007 0.0
C317 C 0.09228 1.00892 0.80046 0.0
C318 C 0.32318 0.29723 0.20983 0.0
C319 C 0.28812 0.31419 0.1883 0.0
H320 H 0.36876 0.26334 0.16984 0.0
C321 C 0.27958 0.317 1.10283 0.0
H322 H 0.32946 0.29249 0.27458 0.0
C323 C 0.30283 0.3004 1.04192 0.0
C324 C 0.33479 0.27984 1.06461 0.0
H325 H 0.2511 0.32718 1.08326 0.0
H326 H 0.29215 0.29939 0.97749 0.0
C327 C 0.34555 0.27995 0.14948 0.0
C328 C 0.97667 0.32075 0.58191 0.0
C329 C 0.96846 0.27834 0.63274 0.0
H330 H 1.02679 0.38124 0.49613 0.0
C331 C 1.00742 0.26439 0.63046 0.0
H332 H 0.94856 0.33364 0.5819 0.0
C333 C 1.05221 0.29128 0.57992 0.0
C334 C 0.06123 0.33463 0.53083 0.0
H335 H 1.00339 0.23237 0.66839 0.0
H336 H 0.08048 0.27859 0.58075 0.0
C337 C 1.02223 0.34858 0.53289 0.0
C338 C 0.77104 0.04763 0.19813 0.0
C339 C 0.76507 0.9968 0.19036 0.0
H340 H 0.80043 0.12537 0.14769 0.0
C341 C 0.78265 0.98658 0.11482 0.0
H342 H 0.75961 0.05848 0.2552 0.0
C343 C 0.80676 1.02592 1.05238 0.0
C344 C 0.81393 0.07711 1.06191 0.0
H345 H 0.78095 0.94932 1.10599 0.0
H346 H 0.82208 1.01693 0.99785 0.0
C347 C 0.79482 0.08663 0.1359 0.0
C348 C 0.83339 0.781 0.64392 0.0
C349 C 0.82408 0.72881 0.64234 0.0
H350 H 0.81402 0.83758 0.59663 0.0
C351 C 0.78501 0.69366 0.58717 0.0
H352 H 0.86271 0.80968 0.68526 0.0
C353 C 0.75591 0.70947 0.53777 0.0
C354 C 0.76505 0.76156 0.53936 0.0
H355 H 0.7757 0.65312 0.58377 0.0
H356 H 0.72594 0.68043 0.4977 0.0
C357 C 0.80514 0.7972 0.59279 0.0
C358 C 1.02725 0.74187 0.12032 0.0
C359 C 1.04505 0.76917 1.04513 0.0
H360 H 1.04511 0.73324 0.24653 0.0
C361 C 0.09904 0.80601 1.04024 0.0
H362 H 0.98629 0.71438 0.12842 0.0
C363 C 0.13304 0.81767 1.10849 0.0
C364 C 0.11485 0.79289 0.18538 0.0
H365 H 0.11477 0.82861 0.98419 0.0
H366 H 0.17314 0.84838 1.1021 0.0
C367 C 0.06147 0.75338 0.18882 0.0
C368 C 0.32734 0.09025 0.63742 0.0
C369 C 0.38022 0.13027 0.63712 0.0
H370 H 0.26773 1.01492 0.59042 0.0
C371 C 0.41336 0.12287 0.58376 0.0
H372 H 0.30032 0.09418 0.67728 0.0
C373 C 0.39474 0.07654 0.53514 0.0
C374 C 0.34198 1.03609 0.53633 0.0
H375 H 0.45425 0.152 0.58189 0.0
H376 H 0.4221 0.07234 0.49652 0.0
C377 C 0.30846 0.04446 0.58733 0.0
C378 C 0.82739 0.74269 0.16419 0.0
C379 C 0.82362 0.73875 1.07659 0.0
H380 H 0.81205 0.77191 0.27719 0.0
C381 C 0.79345 0.75745 1.03841 0.0
H382 H 0.85053 0.72961 0.19667 0.0
C383 C 0.77301 0.784 1.08506 0.0
C384 C 0.77944 0.79029 0.17205 0.0
H385 H 0.7901 0.75644 0.9715 0.0
H386 H 0.754 0.80164 1.05242 0.0
C387 C 0.80537 0.76736 0.21087 0.0
C388 C 0.11032 0.83374 0.59186 0.0
C389 C 0.14617 0.81547 0.58763 0.0
H390 H 1.03891 0.82458 0.64266 0.0
C391 C 0.13557 0.77281 0.63925 0.0
H392 H 0.11678 0.86675 0.55424 0.0
C393 C 0.09032 0.74811 0.68924 0.0
C394 C 0.05365 0.76533 0.69212 0.0
H395 H 0.16119 0.75682 0.63843 0.0
H396 H 0.08357 0.71436 0.72521 0.0
C397 C 0.06543 0.80968 0.64352 0.0
C398 C 0.35394 0.04368 1.0362 0.0
C399 C 0.35708 0.0934 1.03683 0.0
H400 H 0.32371 0.96725 1.09206 0.0
C401 C 0.3337 0.10367 1.105 0.0
H402 H 0.37039 1.03317 0.98487 0.0
C403 C 0.30549 0.06478 0.1658 0.0
C404 C 0.30062 1.01448 0.16253 0.0
H405 H 0.33422 0.14048 1.10909 0.0
H406 H 0.28587 0.07355 0.21431 0.0
C407 C 0.32666 1.00528 1.09775 0.0
C408 C 0.35548 0.37087 0.67597 0.0
C409 C 0.3455 0.31852 0.67845 0.0
H410 H 0.33549 0.42639 0.62744 0.0
C411 C 0.30347 0.28145 0.62937 0.0
H412 H 0.38693 0.40106 0.71251 0.0
C413 C 0.27405 0.29649 0.57858 0.0
C414 C 0.28426 0.349 0.57627 0.0
H415 H 0.2939 0.2408 0.6287 0.0
H416 H 0.24316 0.26671 0.54071 0.0
C417 C 0.3254 0.38558 0.62703 0.0
C418 C 0.106 0.32866 1.05696 0.0
C419 C 0.09472 0.33009 0.14099 0.0
H420 H 0.08016 0.3132 0.93185 0.0
C421 C 1.04323 0.31777 0.1598 0.0
H422 H 0.14433 0.33684 1.03911 0.0
C423 C 1.00382 0.30009 1.09705 0.0
C424 C 1.01531 0.29707 1.01274 0.0
H425 H 1.03224 0.31717 0.22393 0.0
H426 H 0.96442 0.28789 0.11486 0.0
C427 C 0.06802 0.314 0.99482 0.0
C428 C 0.80562 0.04511 0.62953 0.0
C429 C 0.77163 0.05161 0.68253 0.0
H430 H 0.81527 0.99742 0.5374 0.0
C431 C 0.71952 1.00975 0.6843 0.0
H432 H 0.84587 0.07584 0.6256 0.0
C433 C 0.70208 0.96371 0.63509 0.0
C434 C 0.73568 0.9579 0.58026 0.0
H435 H 0.6918 1.0125 0.72417 0.0
H436 H 0.66166 0.93331 0.63814 0.0
C437 C 0.78786 0.99967 0.57868 0.0
loop_
_geom_bond_atom_site_label_1
_geom_bond_atom_site_label_2
_geom_bond_distance
_geom_bond_site_symmetry_2
_ccdc_geom_bond_type
Co0 O3 2.042 . S
Co0 O10 2.264 . S
Co0 O29 2.286 . S
Co0 O30 2.069 . S
Co0 O32 2.015 . S
Co1 O3 2.122 . S
Co1 O9 2.073 . S
Co1 O10 2.327 . S
Co1 O11 1.976 . S
Co2 O3 2.087 . S
Co2 O5 2.087 . S
Co2 O12 2.111 . S
Co2 O13 2.143 . S
Co2 O17 2.111 . S
Co2 O31 2.143 . S
O3 Co0 2.042 . S
O3 Co1 2.122 . S
O3 Co2 2.087 . S
O3 H4 0.980 . S
H4 O3 0.980 . S
O5 Co2 2.087 . S
O5 Co6 2.042 . S
O5 Co7 2.122 . S
O5 H8 0.980 . S
Co6 O5 2.042 . S
Co6 O14 2.286 1_455 S
Co6 O15 2.069 . S
Co6 O16 2.015 . S
Co6 O19 2.264 . S
Co7 O5 2.122 . S
Co7 O18 1.976 . S
Co7 O19 2.327 . S
Co7 O20 2.073 . S
H8 O5 0.980 . S
O9 Co1 2.073 . S
O9 C24 1.245 . S
O10 Co0 2.264 . S
O10 Co1 2.327 . S
O10 C24 1.257 . S
O11 Co1 1.976 . S
O11 C23 1.251 . S
O12 Co2 2.111 . S
O12 C23 1.274 . S
O13 Co2 2.143 . S
O13 C26 1.246 . S
O14 Co6 2.286 1_655 S
O14 C25 1.259 . S
O15 Co6 2.069 . S
O15 C25 1.289 1_455 S
O16 Co6 2.015 . S
O16 C26 1.257 . S
O17 Co2 2.111 . S
O17 C27 1.274 . S
O18 Co7 1.976 . S
O18 C27 1.251 . S
O19 Co6 2.264 . S
O19 Co7 2.327 . S
O19 C28 1.257 . S
O20 Co7 2.073 . S
O20 C28 1.245 . S
C21 O29 1.259 . S
C21 O30 1.289 . S
C22 O31 1.246 . S
C22 O32 1.257 . S
C23 O11 1.251 . S
C23 O12 1.274 . S
C24 O9 1.245 . S
C24 O10 1.257 . S
C25 O14 1.259 . S
C25 O15 1.289 1_655 S
C26 O13 1.246 . S
C26 O16 1.257 . S
C27 O17 1.274 . S
C27 O18 1.251 . S
C28 O19 1.257 . S
C28 O20 1.245 . S
O29 Co0 2.286 . S
O29 C21 1.259 . S
O30 Co0 2.069 . S
O30 C21 1.289 . S
O31 Co2 2.143 . S
O31 C22 1.246 . S
O32 Co0 2.015 . S
O32 C22 1.257 . S
Co33 O36 2.042 . S
Co33 O43 2.264 . S
Co33 O62 2.286 1_545 S
Co33 O63 2.069 . S
Co33 O65 2.015 . S
Co34 O36 2.122 . S
Co34 O42 2.073 . S
Co34 O43 2.327 . S
Co34 O44 1.976 . S
Co35 O36 2.087 . S
Co35 O38 2.087 . S
Co35 O45 2.111 . S
Co35 O46 2.143 . S
Co35 O50 2.111 . S
Co35 O64 2.143 . S
O36 Co33 2.042 . S
O36 Co34 2.122 . S
O36 Co35 2.087 . S
O36 H37 0.980 . S
H37 O36 0.980 . S
O38 Co35 2.087 . S
O38 Co39 2.042 . S
O38 Co40 2.122 . S
O38 H41 0.980 . S
Co39 O38 2.042 . S
Co39 O47 2.286 . S
Co39 O48 2.069 . S
Co39 O49 2.015 . S
Co39 O52 2.264 . S
Co40 O38 2.122 . S
Co40 O51 1.976 . S
Co40 O52 2.327 . S
Co40 O53 2.073 . S
H41 O38 0.980 . S
O42 Co34 2.073 . S
O42 C57 1.245 . S
O43 Co33 2.264 . S
O43 Co34 2.327 . S
O43 C57 1.257 . S
O44 Co34 1.976 . S
O44 C56 1.251 . S
O45 Co35 2.111 . S
O45 C56 1.274 . S
O46 Co35 2.143 . S
O46 C59 1.246 . S
O47 Co39 2.286 . S
O47 C58 1.259 . S
O48 Co39 2.069 . S
O48 C58 1.289 . S
O49 Co39 2.015 . S
O49 C59 1.257 . S
O50 Co35 2.111 . S
O50 C60 1.274 . S
O51 Co40 1.976 . S
O51 C60 1.251 . S
O52 Co39 2.264 . S
O52 Co40 2.327 . S
O52 C61 1.257 . S
O53 Co40 2.073 . S
O53 C61 1.245 . S
C54 O62 1.259 . S
C54 O63 1.289 1_565 S
C55 O64 1.246 . S
C55 O65 1.257 . S
C56 O44 1.251 . S
C56 O45 1.274 . S
C57 O42 1.245 . S
C57 O43 1.257 . S
C58 O47 1.259 . S
C58 O48 1.289 . S
C59 O46 1.246 . S
C59 O49 1.257 . S
C60 O50 1.274 . S
C60 O51 1.251 . S
C61 O52 1.257 . S
C61 O53 1.245 . S
O62 Co33 2.286 1_565 S
O62 C54 1.259 . S
O63 Co33 2.069 . S
O63 C54 1.289 1_545 S
O64 Co35 2.143 . S
O64 C55 1.246 . S
O65 Co33 2.015 . S
O65 C55 1.257 . S
Co66 O69 2.042 . S
Co66 O76 2.264 . S
Co66 O95 2.286 . S
Co66 O96 2.069 . S
Co66 O98 2.015 . S
Co67 O69 2.122 . S
Co67 O75 2.073 . S
Co67 O76 2.327 . S
Co67 O77 1.976 . S
Co68 O69 2.087 . S
Co68 O71 2.087 . S
Co68 O78 2.111 . S
Co68 O79 2.143 . S
Co68 O83 2.111 . S
Co68 O97 2.143 . S
O69 Co66 2.042 . S
O69 Co67 2.122 . S
O69 Co68 2.087 . S
O69 H70 0.980 . S
H70 O69 0.980 . S
O71 Co68 2.087 . S
O71 Co72 2.042 . S
O71 Co73 2.122 . S
O71 H74 0.980 . S
Co72 O71 2.042 . S
Co72 O80 2.286 . S
Co72 O81 2.069 . S
Co72 O82 2.015 . S
Co72 O85 2.264 . S
Co73 O71 2.122 . S
Co73 O84 1.976 . S
Co73 O85 2.327 . S
Co73 O86 2.073 . S
H74 O71 0.980 . S
O75 Co67 2.073 . S
O75 C90 1.245 . S
O76 Co66 2.264 . S
O76 Co67 2.327 . S
O76 C90 1.257 . S
O77 Co67 1.976 . S
O77 C89 1.251 . S
O78 Co68 2.111 . S
O78 C89 1.274 . S
O79 Co68 2.143 . S
O79 C92 1.246 . S
O80 Co72 2.286 . S
O80 C91 1.259 . S
O81 Co72 2.069 . S
O81 C91 1.289 . S
O82 Co72 2.015 . S
O82 C92 1.257 . S
O83 Co68 2.111 . S
O83 C93 1.274 . S
O84 Co73 1.976 . S
O84 C93 1.251 . S
O85 Co72 2.264 . S
O85 Co73 2.327 . S
O85 C94 1.257 . S
O86 Co73 2.073 . S
O86 C94 1.245 . S
C87 O95 1.259 . S
C87 O96 1.289 . S
C88 O97 1.246 . S
C88 O98 1.257 . S
C89 O77 1.251 . S
C89 O78 1.274 . S
C90 O75 1.245 . S
C90 O76 1.257 . S
C91 O80 1.259 . S
C91 O81 1.289 . S
C92 O79 1.246 . S
C92 O82 1.257 . S
C93 O83 1.274 . S
C93 O84 1.251 . S
C94 O85 1.257 . S
C94 O86 1.245 . S
O95 Co66 2.286 . S
O95 C87 1.259 . S
O96 Co66 2.069 . S
O96 C87 1.289 . S
O97 Co68 2.143 . S
O97 C88 1.246 . S
O98 Co66 2.015 . S
O98 C88 1.257 . S
Co99 O102 2.042 . S
Co99 O109 2.264 . S
Co99 O128 2.286 1_655 S
Co99 O129 2.069 . S
Co99 O131 2.015 . S
Co100 O102 2.122 . S
Co100 O108 2.073 . S
Co100 O109 2.327 . S
Co100 O110 1.976 . S
Co101 O102 2.087 . S
Co101 O104 2.087 . S
Co101 O111 2.111 . S
Co101 O112 2.143 . S
Co101 O116 2.111 . S
Co101 O130 2.143 . S
O102 Co99 2.042 . S
O102 Co100 2.122 . S
O102 Co101 2.087 . S
O102 H103 0.980 . S
H103 O102 0.980 . S
O104 Co101 2.087 . S
O104 Co105 2.042 . S
O104 Co106 2.122 . S
O104 H107 0.980 . S
Co105 O104 2.042 . S
Co105 O113 2.286 . S
Co105 O114 2.069 . S
Co105 O115 2.015 . S
Co105 O118 2.264 . S
Co106 O104 2.122 . S
Co106 O117 1.976 . S
Co106 O118 2.327 . S
Co106 O119 2.073 . S
H107 O104 0.980 . S
O108 Co100 2.073 . S
O108 C123 1.245 . S
O109 Co99 2.264 . S
O109 Co100 2.327 . S
O109 C123 1.257 . S
O110 Co100 1.976 . S
O110 C122 1.251 . S
O111 Co101 2.111 . S
O111 C122 1.274 . S
O112 Co101 2.143 . S
O112 C125 1.246 . S
O113 Co105 2.286 . S
O113 C124 1.259 . S
O114 Co105 2.069 . S
O114 C124 1.289 . S
O115 Co105 2.015 . S
O115 C125 1.257 . S
O116 Co101 2.111 . S
O116 C126 1.274 . S
O117 Co106 1.976 . S
O117 C126 1.251 . S
O118 Co105 2.264 . S
O118 Co106 2.327 . S
O118 C127 1.257 . S
O119 Co106 2.073 . S
O119 C127 1.245 . S
C120 O128 1.259 . S
C120 O129 1.289 1_455 S
C121 O130 1.246 . S
C121 O131 1.257 . S
C122 O110 1.251 . S
C122 O111 1.274 . S
C123 O108 1.245 . S
C123 O109 1.257 . S
C124 O113 1.259 . S
C124 O114 1.289 . S
C125 O112 1.246 . S
C125 O115 1.257 . S
C126 O116 1.274 . S
C126 O117 1.251 . S
C127 O118 1.257 . S
C127 O119 1.245 . S
O128 Co99 2.286 1_455 S
O128 C120 1.259 . S
O129 Co99 2.069 . S
O129 C120 1.289 1_655 S
O130 Co101 2.143 . S
O130 C121 1.246 . S
O131 Co99 2.015 . S
O131 C121 1.257 . S
Co132 O135 2.042 . S
Co132 O142 2.264 . S
Co132 O161 2.286 . S
Co132 O162 2.069 . S
Co132 O164 2.015 . S
Co133 O135 2.122 . S
Co133 O141 2.073 . S
Co133 O142 2.327 . S
Co133 O143 1.976 . S
Co134 O135 2.087 . S
Co134 O137 2.087 . S
Co134 O144 2.111 . S
Co134 O145 2.143 . S
Co134 O149 2.111 . S
Co134 O163 2.143 . S
O135 Co132 2.042 . S
O135 Co133 2.122 . S
O135 Co134 2.087 . S
O135 H136 0.980 . S
H136 O135 0.980 . S
O137 Co134 2.087 . S
O137 Co138 2.042 . S
O137 Co139 2.122 . S
O137 H140 0.980 . S
Co138 O137 2.042 . S
Co138 O146 2.286 1_565 S
Co138 O147 2.069 . S
Co138 O148 2.015 . S
Co138 O151 2.264 . S
Co139 O137 2.122 . S
Co139 O150 1.976 . S
Co139 O151 2.327 . S
Co139 O152 2.073 . S
H140 O137 0.980 . S
O141 Co133 2.073 . S
O141 C156 1.245 . S
O142 Co132 2.264 . S
O142 Co133 2.327 . S
O142 C156 1.257 . S
O143 Co133 1.976 . S
O143 C155 1.251 . S
O144 Co134 2.111 . S
O144 C155 1.274 . S
O145 Co134 2.143 . S
O145 C158 1.246 . S
O146 Co138 2.286 1_545 S
O146 C157 1.259 . S
O147 Co138 2.069 . S
O147 C157 1.289 1_565 S
O148 Co138 2.015 . S
O148 C158 1.257 . S
O149 Co134 2.111 . S
O149 C159 1.274 . S
O150 Co139 1.976 . S
O150 C159 1.251 . S
O151 Co138 2.264 . S
O151 Co139 2.327 . S
O151 C160 1.257 . S
O152 Co139 2.073 . S
O152 C160 1.245 . S
C153 O161 1.259 . S
C153 O162 1.289 . S
C154 O163 1.246 . S
C154 O164 1.257 . S
C155 O143 1.251 . S
C155 O144 1.274 . S
C156 O141 1.245 . S
C156 O142 1.257 . S
C157 O146 1.259 . S
C157 O147 1.289 1_545 S
C158 O145 1.246 . S
C158 O148 1.257 . S
C159 O149 1.274 . S
C159 O150 1.251 . S
C160 O151 1.257 . S
C160 O152 1.245 . S
O161 Co132 2.286 . S
O161 C153 1.259 . S
O162 Co132 2.069 . S
O162 C153 1.289 . S
O163 Co134 2.143 . S
O163 C154 1.246 . S
O164 Co132 2.015 . S
O164 C154 1.257 . S
Co165 O168 2.042 . S
Co165 O175 2.264 . S
Co165 O194 2.286 . S
Co165 O195 2.069 . S
Co165 O197 2.015 . S
Co166 O168 2.122 . S
Co166 O174 2.073 . S
Co166 O175 2.327 . S
Co166 O176 1.976 . S
Co167 O168 2.087 . S
Co167 O170 2.087 . S
Co167 O177 2.111 . S
Co167 O178 2.143 . S
Co167 O182 2.111 . S
Co167 O196 2.143 . S
O168 Co165 2.042 . S
O168 Co166 2.122 . S
O168 Co167 2.087 . S
O168 H169 0.980 . S
H169 O168 0.980 . S
O170 Co167 2.087 . S
O170 Co171 2.042 . S
O170 Co172 2.122 . S
O170 H173 0.980 . S
Co171 O170 2.042 . S
Co171 O179 2.286 . S
Co171 O180 2.069 . S
Co171 O181 2.015 . S
Co171 O184 2.264 . S
Co172 O170 2.122 . S
Co172 O183 1.976 . S
Co172 O184 2.327 . S
Co172 O185 2.073 . S
H173 O170 0.980 . S
O174 Co166 2.073 . S
O174 C189 1.245 . S
O175 Co165 2.264 . S
O175 Co166 2.327 . S
O175 C189 1.257 . S
O176 Co166 1.976 . S
O176 C188 1.251 . S
O177 Co167 2.111 . S
O177 C188 1.274 . S
O178 Co167 2.143 . S
O178 C191 1.246 . S
O179 Co171 2.286 . S
O179 C190 1.259 . S
O180 Co171 2.069 . S
O180 C190 1.289 . S
O181 Co171 2.015 . S
O181 C191 1.257 . S
O182 Co167 2.111 . S
O182 C192 1.274 . S
O183 Co172 1.976 . S
O183 C192 1.251 . S
O184 Co171 2.264 . S
O184 Co172 2.327 . S
O184 C193 1.257 . S
O185 Co172 2.073 . S
O185 C193 1.245 . S
C186 O194 1.259 . S
C186 O195 1.289 . S
C187 O196 1.246 . S
C187 O197 1.257 . S
C188 O176 1.251 . S
C188 O177 1.274 . S
C189 O174 1.245 . S
C189 O175 1.257 . S
C190 O179 1.259 . S
C190 O180 1.289 . S
C191 O178 1.246 . S
C191 O181 1.257 . S
C192 O182 1.274 . S
C192 O183 1.251 . S
C193 O184 1.257 . S
C193 O185 1.245 . S
O194 Co165 2.286 . S
O194 C186 1.259 . S
O195 Co165 2.069 . S
O195 C186 1.289 . S
O196 Co167 2.143 . S
O196 C187 1.246 . S
O197 Co165 2.015 . S
O197 C187 1.257 . S
C198 C199 1.387 . S
C198 H202 0.950 . S
C198 C207 1.390 . S
C199 C198 1.387 . S
C199 C201 1.387 . S
H200 C207 0.950 . S
C201 C199 1.387 . S
C201 C203 1.390 . S
C201 H205 0.950 . S
H202 C198 0.950 . S
C203 C201 1.390 . S
C203 C204 1.387 . S
C203 H206 0.950 . S
C204 C203 1.387 . S
C204 C207 1.387 . S
H205 C201 0.950 . S
H206 C203 0.950 . S
C207 C198 1.390 . S
C207 H200 0.950 . S
C207 C204 1.387 . S
C208 C209 1.387 . S
C208 H212 0.950 . S
C208 C217 1.390 . S
C209 C208 1.387 . S
C209 C211 1.387 . S
H210 C217 0.950 . S
C211 C209 1.387 . S
C211 C213 1.390 . S
C211 H215 0.950 . S
H212 C208 0.950 . S
C213 C211 1.390 . S
C213 C214 1.387 . S
C213 H216 0.950 . S
C214 C213 1.387 . S
C214 C217 1.387 . S
H215 C211 0.950 . S
H216 C213 0.950 . S
C217 C208 1.390 . S
C217 H210 0.950 . S
C217 C214 1.387 . S
C218 C219 1.387 . S
C218 H222 0.950 . S
C218 C227 1.390 . S
C219 C218 1.387 . S
C219 C221 1.387 . S
H220 C227 0.950 . S
C221 C219 1.387 . S
C221 C223 1.390 . S
C221 H225 0.950 . S
H222 C218 0.950 . S
C223 C221 1.390 . S
C223 C224 1.387 . S
C223 H226 0.950 . S
C224 C223 1.387 . S
C224 C227 1.387 . S
H225 C221 0.950 . S
H226 C223 0.950 . S
C227 C218 1.390 . S
C227 H220 0.950 . S
C227 C224 1.387 . S
C228 C229 1.387 . S
C228 H232 0.950 . S
C228 C237 1.390 . S
C229 C228 1.387 . S
C229 C231 1.387 . S
H230 C237 0.950 . S
C231 C229 1.387 . S
C231 C233 1.390 . S
C231 H235 0.950 . S
H232 C228 0.950 . S
C233 C231 1.390 . S
C233 C234 1.387 . S
C233 H236 0.950 . S
C234 C233 1.387 . S
C234 C237 1.387 . S
H235 C231 0.950 . S
H236 C233 0.950 . S
C237 C228 1.390 . S
C237 H230 0.950 . S
C237 C234 1.387 . S
C238 C239 1.387 . S
C238 H242 0.950 . S
C238 C247 1.390 . S
C239 C238 1.387 . S
C239 C241 1.387 . S
H240 C247 0.950 . S
C241 C239 1.387 . S
C241 C243 1.390 . S
C241 H245 0.950 . S
H242 C238 0.950 . S
C243 C241 1.390 . S
C243 C244 1.387 . S
C243 H246 0.950 . S
C244 C243 1.387 . S
C244 C247 1.387 . S
H245 C241 0.950 . S
H246 C243 0.950 . S
C247 C238 1.390 . S
C247 H240 0.950 . S
C247 C244 1.387 . S
C248 C249 1.387 . S
C248 H252 0.950 . S
C248 C257 1.390 . S
C249 C248 1.387 . S
C249 C251 1.387 . S
H250 C257 0.950 . S
C251 C249 1.387 . S
C251 C253 1.390 . S
C251 H255 0.950 . S
H252 C248 0.950 . S
C253 C251 1.390 . S
C253 C254 1.387 . S
C253 H256 0.950 . S
C254 C253 1.387 . S
C254 C257 1.387 . S
H255 C251 0.950 . S
H256 C253 0.950 . S
C257 C248 1.390 . S
C257 H250 0.950 . S
C257 C254 1.387 . S
C258 C259 1.387 . S
C258 H262 0.950 . S
C258 C267 1.390 . S
C259 C258 1.387 . S
C259 C261 1.387 . S
H260 C267 0.950 . S
C261 C259 1.387 . S
C261 C263 1.390 . S
C261 H265 0.950 . S
H262 C258 0.950 . S
C263 C261 1.390 . S
C263 C264 1.387 . S
C263 H266 0.950 . S
C264 C263 1.387 . S
C264 C267 1.387 . S
H265 C261 0.950 . S
H266 C263 0.950 . S
C267 C258 1.390 . S
C267 H260 0.950 . S
C267 C264 1.387 . S
C268 C269 1.388 1_455 S
C268 H272 0.950 1_455 S
C268 C277 1.390 . S
C269 C268 1.388 1_655 S
C269 C271 1.387 1_655 S
H270 C277 0.950 . S
C271 C269 1.387 1_455 S
C271 C273 1.390 . S
C271 H275 0.950 1_455 S
H272 C268 0.950 1_655 S
C273 C271 1.390 . S
C273 C274 1.387 . S
C273 H276 0.950 . S
C274 C273 1.387 . S
C274 C277 1.387 . S
H275 C271 0.950 1_655 S
H276 C273 0.950 . S
C277 C268 1.390 . S
C277 H270 0.950 . S
C277 C274 1.387 . S
C278 C279 1.387 . S
C278 H282 0.950 1_655 S
C278 C287 1.390 1_545 S
C279 C278 1.387 . S
C279 C281 1.387 . S
H280 C287 0.950 . S
C281 C279 1.387 . S
C281 C283 1.390 . S
C281 H285 0.950 . S
H282 C278 0.950 1_455 S
C283 C281 1.390 . S
C283 C284 1.387 1_545 S
C283 H286 0.950 1_545 S
C284 C283 1.387 1_565 S
C284 C287 1.387 . S
H285 C281 0.950 . S
H286 C283 0.950 1_565 S
C287 C278 1.390 1_565 S
C287 H280 0.950 . S
C287 C284 1.387 . S
C288 C289 1.387 . S
C288 H292 0.950 . S
C288 C297 1.390 . S
C289 C288 1.387 . S
C289 C291 1.387 . S
H290 C297 0.950 . S
C291 C289 1.387 . S
C291 C293 1.390 . S
C291 H295 0.950 . S
H292 C288 0.950 . S
C293 C291 1.390 . S
C293 C294 1.387 . S
C293 H296 0.950 . S
C294 C293 1.387 . S
C294 C297 1.387 . S
H295 C291 0.950 . S
H296 C293 0.950 . S
C297 C288 1.390 . S
C297 H290 0.950 . S
C297 C294 1.387 . S
C298 C299 1.387 . S
C298 H302 0.950 . S
C298 C307 1.412 . S
C299 C298 1.387 . S
C299 C301 1.387 . S
H300 C307 0.939 1_455 S
C301 C299 1.387 . S
C301 C303 1.390 . S
C301 H305 0.950 . S
H302 C298 0.950 . S
C303 C301 1.390 . S
C303 C304 1.387 1_655 S
C303 H306 0.950 1_655 S
C304 C303 1.387 1_455 S
C304 C307 1.377 1_455 S
H305 C301 0.950 . S
H306 C303 0.950 1_455 S
C307 C298 1.412 . S
C307 H300 0.939 1_655 S
C307 C304 1.377 1_655 S
C308 C309 1.387 1_565 S
C308 H312 0.950 1_565 S
C308 C317 1.390 . S
C309 C308 1.387 1_545 S
C309 C311 1.387 1_545 S
H310 C317 0.950 . S
C311 C309 1.387 1_565 S
C311 C313 1.390 . S
C311 H315 0.950 1_565 S
H312 C308 0.950 1_545 S
C313 C311 1.390 . S
C313 C314 1.387 . S
C313 H316 0.950 . S
C314 C313 1.387 . S
C314 C317 1.387 . S
H315 C311 0.950 1_545 S
H316 C313 0.950 . S
C317 C308 1.390 . S
C317 H310 0.950 . S
C317 C314 1.387 . S
C318 C319 1.387 . S
C318 H322 0.950 . S
C318 C327 1.390 . S
C319 C318 1.387 . S
C319 C321 1.387 1_554 S
H320 C327 0.950 . S
C321 C319 1.387 1_556 S
C321 C323 1.390 . S
C321 H325 0.950 . S
H322 C318 0.950 . S
C323 C321 1.390 . S
C323 C324 1.387 . S
C323 H326 0.950 . S
C324 C323 1.387 . S
C324 C327 1.387 1_556 S
H325 C321 0.950 . S
H326 C323 0.950 . S
C327 C318 1.390 . S
C327 H320 0.950 . S
C327 C324 1.387 1_554 S
C328 C329 1.387 . S
C328 H332 0.950 . S
C328 C337 1.390 1_655 S
C329 C328 1.387 . S
C329 C331 1.387 . S
H330 C337 0.950 . S
C331 C329 1.387 . S
C331 C333 1.390 1_655 S
C331 H335 0.950 . S
H332 C328 0.950 . S
C333 C331 1.390 1_455 S
C333 C334 1.387 . S
C333 H336 0.950 . S
C334 C333 1.387 . S
C334 C337 1.387 . S
H335 C331 0.950 . S
H336 C333 0.950 . S
C337 C328 1.390 1_455 S
C337 H330 0.950 . S
C337 C334 1.387 . S
C338 C339 1.387 . S
C338 H342 0.950 . S
C338 C347 1.390 1_564 S
C339 C338 1.387 . S
C339 C341 1.387 . S
H340 C347 0.950 . S
C341 C339 1.387 . S
C341 C343 1.390 1_564 S
C341 H345 0.950 . S
H342 C338 0.950 . S
C343 C341 1.390 1_546 S
C343 C344 1.387 . S
C343 H346 0.950 . S
C344 C343 1.387 . S
C344 C347 1.387 . S
H345 C341 0.950 . S
H346 C343 0.950 . S
C347 C338 1.390 1_546 S
C347 H340 0.950 . S
C347 C344 1.387 . S
C348 C349 1.387 . S
C348 H352 0.950 . S
C348 C357 1.390 . S
C349 C348 1.387 . S
C349 C351 1.387 . S
H350 C357 0.950 . S
C351 C349 1.387 . S
C351 C353 1.390 . S
C351 H355 0.950 . S
H352 C348 0.950 . S
C353 C351 1.390 . S
C353 C354 1.387 . S
C353 H356 0.950 . S
C354 C353 1.387 . S
C354 C357 1.387 . S
H355 C351 0.950 . S
H356 C353 0.950 . S
C357 C348 1.390 . S
C357 H350 0.950 . S
C357 C354 1.387 . S
C358 C359 1.387 1_554 S
C358 H362 0.950 . S
C358 C367 1.390 1_655 S
C359 C358 1.387 1_556 S
C359 C361 1.387 1_655 S
H360 C367 0.950 . S
C361 C359 1.387 1_455 S
C361 C363 1.390 . S
C361 H365 0.950 . S
H362 C358 0.950 . S
C363 C361 1.390 . S
C363 C364 1.387 1_556 S
C363 H366 0.950 . S
C364 C363 1.387 1_554 S
C364 C367 1.387 . S
H365 C361 0.950 . S
H366 C363 0.950 . S
C367 C358 1.390 1_455 S
C367 H360 0.950 . S
C367 C364 1.387 . S
C368 C369 1.387 . S
C368 H372 0.950 . S
C368 C377 1.390 1_545 S
C369 C368 1.387 . S
C369 C371 1.387 . S
H370 C377 0.950 . S
C371 C369 1.387 . S
C371 C373 1.390 1_545 S
C371 H375 0.950 . S
H372 C368 0.950 . S
C373 C371 1.390 1_565 S
C373 C374 1.387 . S
C373 H376 0.950 . S
C374 C373 1.387 . S
C374 C377 1.387 . S
H375 C371 0.950 . S
H376 C373 0.950 . S
C377 C368 1.390 1_565 S
C377 H370 0.950 . S
C377 C374 1.387 . S
C378 C379 1.387 1_554 S
C378 H382 0.950 . S
C378 C387 1.390 . S
C379 C378 1.387 1_556 S
C379 C381 1.387 . S
H380 C387 0.950 . S
C381 C379 1.387 . S
C381 C383 1.390 . S
C381 H385 0.950 . S
H382 C378 0.950 . S
C383 C381 1.390 . S
C383 C384 1.387 1_556 S
C383 H386 0.950 . S
C384 C383 1.387 1_554 S
C384 C387 1.387 . S
H385 C381 0.950 . S
H386 C383 0.950 . S
C387 C378 1.390 . S
C387 H380 0.950 . S
C387 C384 1.387 . S
C388 C389 1.387 . S
C388 H392 0.950 . S
C388 C397 1.390 1_455 S
C389 C388 1.387 . S
C389 C391 1.387 . S
H390 C397 0.950 . S
C391 C389 1.387 . S
C391 C393 1.390 1_455 S
C391 H395 0.950 . S
H392 C388 0.950 . S
C393 C391 1.390 1_655 S
C393 C394 1.387 . S
C393 H396 0.950 . S
C394 C393 1.387 . S
C394 C397 1.387 . S
H395 C391 0.950 . S
H396 C393 0.950 . S
C397 C388 1.390 1_655 S
C397 H390 0.950 . S
C397 C394 1.387 . S
C398 C399 1.387 . S
C398 H402 0.950 . S
C398 C407 1.390 1_546 S
C399 C398 1.387 . S
C399 C401 1.387 . S
H400 C407 0.950 . S
C401 C399 1.387 . S
C401 C403 1.372 1_546 S
C401 H405 0.950 . S
H402 C398 0.950 . S
C403 C401 1.372 1_564 S
C403 C404 1.409 . S
C403 H406 0.947 . S
C404 C403 1.409 . S
C404 C407 1.387 . S
H405 C401 0.950 . S
H406 C403 0.947 . S
C407 C398 1.390 1_564 S
C407 H400 0.950 . S
C407 C404 1.387 . S
C408 C409 1.387 . S
C408 H412 0.950 . S
C408 C417 1.390 . S
C409 C408 1.387 . S
C409 C411 1.387 . S
H410 C417 0.950 . S
C411 C409 1.387 . S
C411 C413 1.390 . S
C411 H415 0.950 . S
H412 C408 0.950 . S
C413 C411 1.390 . S
C413 C414 1.387 . S
C413 H416 0.950 . S
C414 C413 1.387 . S
C414 C417 1.387 . S
H415 C411 0.950 . S
H416 C413 0.950 . S
C417 C408 1.390 . S
C417 H410 0.950 . S
C417 C414 1.387 . S
C418 C419 1.387 1_556 S
C418 H422 0.950 . S
C418 C427 1.390 1_455 S
C419 C418 1.387 1_554 S
C419 C421 1.387 1_455 S
H420 C427 0.950 . S
C421 C419 1.387 1_655 S
C421 C423 1.390 . S
C421 H425 0.950 . S
H422 C418 0.950 . S
C423 C421 1.390 . S
C423 C424 1.387 1_554 S
C423 H426 0.950 . S
C424 C423 1.387 1_556 S
C424 C427 1.387 . S
H425 C421 0.950 . S
H426 C423 0.950 . S
C427 C418 1.390 1_655 S
C427 H420 0.950 . S
C427 C424 1.387 . S
C428 C429 1.387 . S
C428 H432 0.950 . S
C428 C437 1.390 1_545 S
C429 C428 1.387 . S
C429 C431 1.387 . S
H430 C437 0.950 . S
C431 C429 1.387 . S
C431 C433 1.390 1_545 S
C431 H435 0.950 . S
H432 C428 0.950 . S
C433 C431 1.390 1_565 S
C433 C434 1.387 . S
C433 H436 0.950 . S
C434 C433 1.387 . S
C434 C437 1.387 . S
H435 C431 0.950 . S
H436 C433 0.950 . S
C437 C428 1.390 1_565 S
C437 H430 0.950 . S
C437 C434 1.387 . S
C199 C24 1.920 . S
C204 C153 1.978 . S
C209 C190 1.979 . S
C214 C61 1.918 . S
C219 C21 1.979 . S
C224 C90 1.918 . S
C229 C58 1.978 . S
C234 C127 1.920 . S
C239 C156 1.918 . S
C244 C87 1.979 . S
C249 C193 1.920 . S
C254 C124 1.978 . S
C259 C28 0.666 . S
C264 C157 0.468 . S
C269 C57 0.656 . S
C274 C186 0.465 . S
C279 C25 0.466 . S
C284 C94 0.667 . S
C289 C54 0.468 . S
C294 C123 0.668 . S
C299 C91 0.468 . S
C304 C160 0.668 . S
C309 C189 0.668 . S
C314 C120 0.468 . S
C319 C27 1.989 . S
C324 C187 2.140 . S
C329 C59 2.606 . S
C334 C23 2.453 . S
C339 C93 1.987 . S
C344 C55 2.140 . S
C349 C125 2.604 . S
C354 C89 2.450 . S
C359 C121 2.141 . S
C364 C159 1.991 . S
C369 C191 2.604 . S
C374 C155 2.450 . S
C379 C122 1.988 . S
C384 C92 2.139 . S
C389 C154 2.606 . S
C394 C126 2.453 . S
C399 C188 1.987 . S
C404 C158 2.140 . S
C409 C192 2.451 . S
C414 C22 2.604 . S
C419 C26 2.141 . S
C424 C56 1.987 . S
C429 C60 2.453 . S
C434 C88 2.606 . S
