# Generated by pormake.
# Topology vcd, (5)-cn, num edge types: 1
# Building blocks:
#     Node 0, Type 0, BuildingBlock: BEQFEK_clean_sbu_0, # of connection points: 5
#     Node 1, Type 0, BuildingBlock: BEQFEK_clean_sbu_0, # of connection points: 5
#     Node 2, Type 0, BuildingBlock: BEQFEK_clean_sbu_0, # of connection points: 5
#     Node 3, Type 0, BuildingBlock: BEQFEK_clean_sbu_0, # of connection points: 5
#     Node 4, Type 0, BuildingBlock: BEQFEK_clean_sbu_0, # of connection points: 5
#     Node 5, Type 0, BuildingBlock: BEQFEK_clean_sbu_0, # of connection points: 5
#     Node 6, Type 0, BuildingBlock: BEQFEK_clean_sbu_0, # of connection points: 5
#     Node 7, Type 0, BuildingBlock: BEQFEK_clean_sbu_0, # of connection points: 5
#     Node 8, Type 0, BuildingBlock: BEQFEK_clean_sbu_0, # of connection points: 5
#     Node 9, Type 0, BuildingBlock: BEQFEK_clean_sbu_0, # of connection points: 5
#     Node 10, Type 0, BuildingBlock: BEQFEK_clean_sbu_0, # of connection points: 5
#     Node 11, Type 0, BuildingBlock: BEQFEK_clean_sbu_0, # of connection points: 5
#     Node 12, Type 0, BuildingBlock: BEQFEK_clean_sbu_0, # of connection points: 5
#     Node 13, Type 0, BuildingBlock: BEQFEK_clean_sbu_0, # of connection points: 5
#     Node 14, Type 0, BuildingBlock: BEQFEK_clean_sbu_0, # of connection points: 5
#     Node 15, Type 0, BuildingBlock: BEQFEK_clean_sbu_0, # of connection points: 5
#     Node 16, Type 0, BuildingBlock: BEQFEK_clean_sbu_0, # of connection points: 5
#     Node 17, Type 0, BuildingBlock: BEQFEK_clean_sbu_0, # of connection points: 5
#     Node 18, Type 0, BuildingBlock: BEQFEK_clean_sbu_0, # of connection points: 5
#     Node 19, Type 0, BuildingBlock: BEQFEK_clean_sbu_0, # of connection points: 5
#     Node 20, Type 0, BuildingBlock: BEQFEK_clean_sbu_0, # of connection points: 5
#     Node 21, Type 0, BuildingBlock: BEQFEK_clean_sbu_0, # of connection points: 5
#     Node 22, Type 0, BuildingBlock: BEQFEK_clean_sbu_0, # of connection points: 5
#     Node 23, Type 0, BuildingBlock: BEQFEK_clean_sbu_0, # of connection points: 5
#     Node 24, Type 0, BuildingBlock: BEQFEK_clean_sbu_0, # of connection points: 5
#     Node 25, Type 0, BuildingBlock: BEQFEK_clean_sbu_0, # of connection points: 5
#     Node 26, Type 0, BuildingBlock: BEQFEK_clean_sbu_0, # of connection points: 5
#     Node 27, Type 0, BuildingBlock: BEQFEK_clean_sbu_0, # of connection points: 5
#     Node 28, Type 0, BuildingBlock: BEQFEK_clean_sbu_0, # of connection points: 5
#     Node 29, Type 0, BuildingBlock: BEQFEK_clean_sbu_0, # of connection points: 5
#     Node 30, Type 0, BuildingBlock: BEQFEK_clean_sbu_0, # of connection points: 5
#     Node 31, Type 0, BuildingBlock: BEQFEK_clean_sbu_0, # of connection points: 5
#     Edge 32, Type (0, 0), None
#     Edge 33, Type (0, 0), None
#     Edge 34, Type (0, 0), None
#     Edge 35, Type (0, 0), None
#     Edge 36, Type (0, 0), None
#     Edge 37, Type (0, 0), None
#     Edge 38, Type (0, 0), None
#     Edge 39, Type (0, 0), None
#     Edge 40, Type (0, 0), None
#     Edge 41, Type (0, 0), None
#     Edge 42, Type (0, 0), None
#     Edge 43, Type (0, 0), None
#     Edge 44, Type (0, 0), None
#     Edge 45, Type (0, 0), None
#     Edge 46, Type (0, 0), None
#     Edge 47, Type (0, 0), None
#     Edge 48, Type (0, 0), None
#     Edge 49, Type (0, 0), None
#     Edge 50, Type (0, 0), None
#     Edge 51, Type (0, 0), None
#     Edge 52, Type (0, 0), None
#     Edge 53, Type (0, 0), None
#     Edge 54, Type (0, 0), None
#     Edge 55, Type (0, 0), None
#     Edge 56, Type (0, 0), None
#     Edge 57, Type (0, 0), None
#     Edge 58, Type (0, 0), None
#     Edge 59, Type (0, 0), None
#     Edge 60, Type (0, 0), None
#     Edge 61, Type (0, 0), None
#     Edge 62, Type (0, 0), None
#     Edge 63, Type (0, 0), None
#     Edge 64, Type (0, 0), None
#     Edge 65, Type (0, 0), None
#     Edge 66, Type (0, 0), None
#     Edge 67, Type (0, 0), None
#     Edge 68, Type (0, 0), None
#     Edge 69, Type (0, 0), None
#     Edge 70, Type (0, 0), None
#     Edge 71, Type (0, 0), None
#     Edge 72, Type (0, 0), None
#     Edge 73, Type (0, 0), None
#     Edge 74, Type (0, 0), None
#     Edge 75, Type (0, 0), None
#     Edge 76, Type (0, 0), None
#     Edge 77, Type (0, 0), None
#     Edge 78, Type (0, 0), None
#     Edge 79, Type (0, 0), None
#     Edge 80, Type (0, 0), None
#     Edge 81, Type (0, 0), None
#     Edge 82, Type (0, 0), None
#     Edge 83, Type (0, 0), None
#     Edge 84, Type (0, 0), None
#     Edge 85, Type (0, 0), None
#     Edge 86, Type (0, 0), None
#     Edge 87, Type (0, 0), None
#     Edge 88, Type (0, 0), None
#     Edge 89, Type (0, 0), None
#     Edge 90, Type (0, 0), None
#     Edge 91, Type (0, 0), None
#     Edge 92, Type (0, 0), None
#     Edge 93, Type (0, 0), None
#     Edge 94, Type (0, 0), None
#     Edge 95, Type (0, 0), None
#     Edge 96, Type (0, 0), None
#     Edge 97, Type (0, 0), None
#     Edge 98, Type (0, 0), None
#     Edge 99, Type (0, 0), None
#     Edge 100, Type (0, 0), None
#     Edge 101, Type (0, 0), None
#     Edge 102, Type (0, 0), None
#     Edge 103, Type (0, 0), None
#     Edge 104, Type (0, 0), None
#     Edge 105, Type (0, 0), None
#     Edge 106, Type (0, 0), None
#     Edge 107, Type (0, 0), None
#     Edge 108, Type (0, 0), None
#     Edge 109, Type (0, 0), None
#     Edge 110, Type (0, 0), None
#     Edge 111, Type (0, 0), None
# Relax obj value: 0.019
# Max RMSD: 0.068
# Mean RMSD: 0.068
data_MOF--net-vcd--node1-BEQFEK_clean_sbu_0--edge1-none
_symmetry_space_group_name_H-M    P1
_symmetry_Int_Tables_number       1
_symmetry_cell_setting            triclinic
loop_
_symmetry_equiv_pos_as_xyz
'x, y, z'
_cell_length_a     89.357283
_cell_length_b     25.918458
_cell_length_c     10.354704
_cell_angle_alpha  90.000003
_cell_angle_beta   89.990894
_cell_angle_gamma 89.999539
loop_
_atom_site_label
_atom_site_type_symbol
_atom_site_fract_x
_atom_site_fract_y
_atom_site_fract_z
_atom_type_partial_charge
Co0 Co 0.08253 0.45584 0.13529 0.0
Co1 Co 0.04745 0.45966 0.10336 0.0
C2 C 0.06696 0.40021 0.92178 0.0
O3 O 0.07923 0.41545 0.97242 0.0
O4 O 0.05424 0.41473 0.96383 0.0
C5 C 0.11438 0.46601 0.09562 0.0
O6 O 0.11114 0.46555 0.97194 0.0
C7 C 0.01757 0.48154 0.98883 0.0
C8 C 0.00521 0.50569 0.16339 0.0
C9 C 0.00383 0.5004 0.03098 0.0
N10 N 0.02666 0.47662 0.09178 0.0
N11 N 0.01912 0.49072 0.19576 0.0
C12 C 0.0222 0.47084 0.85247 0.0
H13 H 0.0343 0.46208 0.84636 0.0
H14 H 0.01978 0.50484 0.79081 0.0
H15 H 0.0157 0.43765 0.8146 0.0
C16 C 0.07806 0.56926 0.14865 0.0
N17 N 0.07296 0.52069 0.13399 0.0
N18 N 0.05874 0.52205 0.10282 0.0
C19 C 0.05469 0.57147 0.08345 0.0
C20 C 0.06665 0.60358 0.11562 0.0
C21 C 0.09295 0.58146 0.20718 0.0
H22 H 0.0958 0.55207 0.28108 0.0
H23 H 0.10171 0.58 0.13137 0.0
H24 H 0.09289 0.62006 0.25338 0.0
O25 O 0.07456 0.41343 0.27054 0.0
O26 O 0.04978 0.41761 0.26418 0.0
H27 H 0.03099 0.5843 0.08373 0.0
H28 H 0.04129 0.62602 0.97473 0.0
C29 C 0.04055 0.58658 0.01573 0.0
H30 H 0.03844 0.55938 0.93537 0.0
H31 H 0.02363 0.49143 0.28871 0.0
O32 O 0.10398 0.46306 0.17837 0.0
C33 C 0.06183 0.40037 0.31315 0.0
Co34 Co 0.16185 0.80877 0.13535 0.0
Co35 Co 0.19693 0.80495 0.10334 0.0
C36 C 0.17742 0.8644 0.9218 0.0
O37 O 0.16515 0.84916 0.97248 0.0
O38 O 0.19014 0.84987 0.9638 0.0
C39 C 0.13 0.7986 0.09563 0.0
O40 O 0.13326 0.79905 0.97196 0.0
C41 C 0.22681 0.78307 0.98881 0.0
C42 C 0.23916 0.75892 0.16338 0.0
C43 C 0.24055 0.76421 0.03097 0.0
N44 N 0.21772 0.78799 0.09175 0.0
N45 N 0.22525 0.77388 0.19574 0.0
C46 C 0.22218 0.79376 0.85245 0.0
H47 H 0.21009 0.80253 0.84633 0.0
H48 H 0.22461 0.75976 0.79079 0.0
H49 H 0.22869 0.82695 0.81458 0.0
C50 C 0.16632 0.69535 0.1487 0.0
N51 N 0.17142 0.74392 0.13402 0.0
N52 N 0.18564 0.74255 0.10283 0.0
C53 C 0.18969 0.69314 0.08345 0.0
C54 C 0.17773 0.66102 0.11565 0.0
C55 C 0.15143 0.68314 0.20725 0.0
H56 H 0.14858 0.71254 0.28115 0.0
H57 H 0.14267 0.6846 0.13145 0.0
H58 H 0.15148 0.64455 0.25346 0.0
O59 O 0.16981 0.85117 0.2706 0.0
O60 O 0.1946 0.847 0.26414 0.0
H61 H 0.21339 0.68032 0.08368 0.0
H62 H 0.20309 0.63859 0.9747 0.0
C63 C 0.20383 0.67803 0.0157 0.0
H64 H 0.20594 0.70523 0.93534 0.0
H65 H 0.22074 0.77317 0.28869 0.0
O66 O 0.1404 0.80155 0.17841 0.0
C67 C 0.18254 0.86424 0.31316 0.0
Co68 Co 0.08253 0.8088 0.09893 0.0
Co69 Co 0.04745 0.80497 0.13094 0.0
C70 C 0.06696 0.86441 0.31251 0.0
O71 O 0.07923 0.84919 0.26182 0.0
O72 O 0.05424 0.84989 0.2705 0.0
C73 C 0.11438 0.7986 0.13865 0.0
O74 O 0.11113 0.79901 0.26232 0.0
C75 C 0.01757 0.78308 0.24541 0.0
C76 C 0.00523 0.75894 0.07081 0.0
C77 C 0.00383 0.76422 0.20321 0.0
N78 N 0.02666 0.78802 0.14249 0.0
N79 N 0.01914 0.77391 0.03848 0.0
C80 C 0.02219 0.79377 0.38178 0.0
H81 H 0.03428 0.80256 0.38792 0.0
H82 H 0.01977 0.75976 0.44341 0.0
H83 H 0.01568 0.82695 0.41966 0.0
C84 C 0.07806 0.69538 0.08551 0.0
N85 N 0.07296 0.74395 0.10023 0.0
N86 N 0.05874 0.74258 0.13142 0.0
C87 C 0.05469 0.69316 0.15075 0.0
C88 C 0.06665 0.66105 0.11849 0.0
C89 C 0.09295 0.68318 0.02696 0.0
H90 H 0.0958 0.71258 0.95307 0.0
H91 H 0.10172 0.68463 0.10276 0.0
H92 H 0.0929 0.64458 0.98074 0.0
O93 O 0.07457 0.85121 0.9637 0.0
O94 O 0.04978 0.84704 0.97016 0.0
H95 H 0.03099 0.68033 0.15053 0.0
H96 H 0.04129 0.63862 0.2595 0.0
C97 C 0.04055 0.67805 0.2185 0.0
H98 H 0.03844 0.70525 0.29887 0.0
H99 H 0.02365 0.77321 0.94554 0.0
O100 O 0.10399 0.80159 0.05587 0.0
C101 C 0.06184 0.86428 0.92114 0.0
Co102 Co 0.16185 0.45581 0.09902 0.0
Co103 Co 0.19693 0.45963 0.13093 0.0
C104 C 0.17742 0.40019 0.31255 0.0
O105 O 0.16515 0.41543 0.2619 0.0
O106 O 0.19014 0.41472 0.2705 0.0
C107 C 0.13 0.46601 0.13868 0.0
O108 O 0.13324 0.46559 0.26236 0.0
C109 C 0.22681 0.48153 0.2454 0.0
C110 C 0.23916 0.50567 0.07081 0.0
C111 C 0.24055 0.50039 0.20321 0.0
N112 N 0.21772 0.47659 0.14248 0.0
N113 N 0.22525 0.4907 0.03847 0.0
C114 C 0.22218 0.47084 0.38178 0.0
H115 H 0.21009 0.46206 0.38792 0.0
H116 H 0.2246 0.50484 0.44341 0.0
H117 H 0.22869 0.43765 0.41965 0.0
C118 C 0.16632 0.56923 0.08556 0.0
N119 N 0.17142 0.52066 0.10028 0.0
N120 N 0.18564 0.52202 0.13144 0.0
C121 C 0.18969 0.57145 0.15076 0.0
C122 C 0.17773 0.60356 0.11853 0.0
C123 C 0.15143 0.58142 0.02703 0.0
H124 H 0.14858 0.55202 0.95315 0.0
H125 H 0.14267 0.57997 0.10285 0.0
H126 H 0.15148 0.62002 0.98082 0.0
O127 O 0.16981 0.41339 0.96379 0.0
O128 O 0.1946 0.41757 0.97015 0.0
H129 H 0.21339 0.58428 0.15049 0.0
H130 H 0.20309 0.626 0.25947 0.0
C131 C 0.20383 0.58656 0.21848 0.0
H132 H 0.20594 0.55936 0.29885 0.0
H133 H 0.22074 0.4914 0.94554 0.0
O134 O 0.1404 0.46302 0.05594 0.0
C135 C 0.18254 0.40032 0.92118 0.0
Co136 Co 0.91185 0.55877 0.8489 0.0
Co137 Co 0.94693 0.55494 0.88083 0.0
C138 C 0.92742 0.6144 0.06241 0.0
O139 O 0.91515 0.59916 0.01177 0.0
O140 O 0.94014 0.59987 0.02037 0.0
C141 C 0.88 0.5486 0.88857 0.0
O142 O 0.88324 0.54906 0.01225 0.0
C143 C 0.97681 0.53305 -0.00463 0.0
C144 C 0.98917 0.50891 0.82081 0.0
C145 C 0.99055 0.51418 0.95322 0.0
N146 N 0.96772 0.53799 0.89241 0.0
N147 N 0.97526 0.52389 0.78843 0.0
C148 C 0.97217 0.54374 0.13173 0.0
H149 H 0.96008 0.55249 0.13784 0.0
H150 H 0.9746 0.50974 0.19338 0.0
H151 H 0.97868 0.57694 0.1696 0.0
C152 C 0.91632 0.44535 0.83553 0.0
N153 N 0.92142 0.49392 0.8502 0.0
N154 N 0.93564 0.49255 0.88136 0.0
C155 C 0.93969 0.44313 0.90073 0.0
C156 C 0.92773 0.41102 0.86855 0.0
C157 C 0.90143 0.43315 0.777 0.0
H158 H 0.89858 0.46254 0.7031 0.0
H159 H 0.89267 0.43461 0.85281 0.0
H160 H 0.90149 0.39455 0.7308 0.0
O161 O 0.91982 0.60118 0.71366 0.0
O162 O 0.9446 0.597 0.72002 0.0
H163 H 0.96339 0.43031 0.90047 0.0
H164 H 0.95309 0.38858 0.00944 0.0
C165 C 0.95383 0.42802 0.96845 0.0
H166 H 0.95594 0.45522 0.04883 0.0
H167 H 0.97075 0.52319 0.69548 0.0
O168 O 0.8904 0.55156 0.80582 0.0
C169 C 0.93255 0.61424 0.67104 0.0
Co170 Co 0.83253 0.20583 0.84884 0.0
Co171 Co 0.79745 0.20966 0.88085 0.0
C172 C 0.81696 0.15021 0.06239 0.0
O173 O 0.82923 0.16544 0.01171 0.0
O174 O 0.80424 0.16473 0.02039 0.0
C175 C 0.86438 0.21601 0.88855 0.0
O176 O 0.86112 0.21555 0.01222 0.0
C177 C 0.76757 0.23154 -0.00462 0.0
C178 C 0.75522 0.25569 0.82081 0.0
C179 C 0.75383 0.25039 0.95322 0.0
N180 N 0.77666 0.22661 0.89244 0.0
N181 N 0.76913 0.24072 0.78845 0.0
C182 C 0.7722 0.22084 0.13174 0.0
H183 H 0.78429 0.21207 0.13786 0.0
H184 H 0.76977 0.25484 0.19339 0.0
H185 H 0.76569 0.18765 0.16961 0.0
C186 C 0.82806 0.31926 0.83549 0.0
N187 N 0.82296 0.27069 0.85017 0.0
N188 N 0.80874 0.27205 0.88136 0.0
C189 C 0.80469 0.32147 0.90074 0.0
C190 C 0.81665 0.35358 0.86854 0.0
C191 C 0.84295 0.33146 0.77694 0.0
H192 H 0.8458 0.30207 0.70304 0.0
H193 H 0.85171 0.33001 0.85273 0.0
H194 H 0.8429 0.37006 0.73073 0.0
O195 O 0.82457 0.16343 0.71359 0.0
O196 O 0.79978 0.16761 0.72005 0.0
H197 H 0.78099 0.33429 0.90051 0.0
H198 H 0.79129 0.37601 0.00949 0.0
C199 C 0.79055 0.33658 0.96848 0.0
H200 H 0.78844 0.30938 0.04885 0.0
H201 H 0.77364 0.24143 0.6955 0.0
O202 O 0.85398 0.21305 0.80578 0.0
C203 C 0.81184 0.15037 0.67102 0.0
Co204 Co 0.91185 0.2058 0.88526 0.0
Co205 Co 0.94693 0.20964 0.85325 0.0
C206 C 0.92742 0.15019 0.67168 0.0
O207 O 0.91515 0.16542 0.72237 0.0
O208 O 0.94014 0.16472 0.71369 0.0
C209 C 0.88 0.21601 0.84554 0.0
O210 O 0.88325 0.2156 0.72187 0.0
C211 C 0.97681 0.23153 0.73878 0.0
C212 C 0.98915 0.25568 0.91338 0.0
C213 C 0.99055 0.25039 0.78098 0.0
N214 N 0.96772 0.2266 0.8417 0.0
N215 N 0.97524 0.2407 0.94571 0.0
C216 C 0.97219 0.22083 0.60241 0.0
H217 H 0.9601 0.21205 0.59627 0.0
H218 H 0.97461 0.25485 0.54077 0.0
H219 H 0.9787 0.18766 0.56453 0.0
C220 C 0.91632 0.31923 0.89867 0.0
N221 N 0.92142 0.27066 0.88395 0.0
N222 N 0.93564 0.27202 0.85276 0.0
C223 C 0.93969 0.32144 0.83343 0.0
C224 C 0.92773 0.35356 0.86568 0.0
C225 C 0.90142 0.33143 0.95722 0.0
H226 H 0.89858 0.30203 0.03111 0.0
H227 H 0.89266 0.32998 0.88142 0.0
H228 H 0.90148 0.37002 0.00344 0.0
O229 O 0.91981 0.1634 0.02049 0.0
O230 O 0.9446 0.16757 0.01404 0.0
H231 H 0.96339 0.33427 0.83364 0.0
H232 H 0.95309 0.37599 0.72467 0.0
C233 C 0.95383 0.33656 0.76567 0.0
H234 H 0.95594 0.30936 0.6853 0.0
H235 H 0.97073 0.24141 0.03865 0.0
O236 O 0.89039 0.21302 0.92832 0.0
C237 C 0.93254 0.15033 0.06305 0.0
Co238 Co 0.83253 0.5588 0.88517 0.0
Co239 Co 0.79745 0.55497 0.85325 0.0
C240 C 0.81696 0.61441 0.67164 0.0
O241 O 0.82923 0.59918 0.72228 0.0
O242 O 0.80424 0.59989 0.71368 0.0
C243 C 0.86438 0.5486 0.8455 0.0
O244 O 0.86114 0.54902 0.72182 0.0
C245 C 0.76757 0.53308 0.73879 0.0
C246 C 0.75522 0.50893 0.91338 0.0
C247 C 0.75383 0.51422 0.78098 0.0
N248 N 0.77666 0.53801 0.84171 0.0
N249 N 0.76913 0.52391 0.94572 0.0
C250 C 0.7722 0.54377 0.60241 0.0
H251 H 0.78429 0.55255 0.59627 0.0
H252 H 0.76978 0.50976 0.54078 0.0
H253 H 0.76568 0.57695 0.56454 0.0
C254 C 0.82806 0.44538 0.89862 0.0
N255 N 0.82296 0.49394 0.88391 0.0
N256 N 0.80874 0.49258 0.85275 0.0
C257 C 0.80469 0.44316 0.83343 0.0
C258 C 0.81665 0.41105 0.86566 0.0
C259 C 0.84295 0.43318 0.95716 0.0
H260 H 0.8458 0.46258 0.03104 0.0
H261 H 0.85171 0.43464 0.88134 0.0
H262 H 0.8429 0.39459 0.00337 0.0
O263 O 0.82457 0.60121 0.0204 0.0
O264 O 0.79978 0.59704 0.01404 0.0
H265 H 0.78099 0.43033 0.8337 0.0
H266 H 0.79129 0.38861 0.72471 0.0
C267 C 0.79055 0.42804 0.76571 0.0
H268 H 0.78844 0.45524 0.68534 0.0
H269 H 0.77364 0.5232 0.03865 0.0
O270 O 0.85398 0.55158 0.92825 0.0
C271 C 0.81184 0.61428 0.06301 0.0
Co272 Co 0.08253 0.95584 0.63525 0.0
Co273 Co 0.04745 0.95966 0.60333 0.0
C274 C 0.06696 0.90021 0.42174 0.0
O275 O 0.07923 0.91545 0.47238 0.0
O276 O 0.05424 0.91474 0.46378 0.0
C277 C 0.11438 0.966 0.5956 0.0
O278 O 0.11114 0.96554 0.47192 0.0
C279 C 0.01757 0.98154 0.48882 0.0
C280 C 0.00521 1.00569 0.66338 0.0
C281 C 0.00383 1.0004 0.53098 0.0
N282 N 0.02666 0.97662 0.59176 0.0
N283 N 0.01912 0.99072 0.69575 0.0
C284 C 0.0222 0.97085 0.35245 0.0
H285 H 0.0343 0.96209 0.34633 0.0
H286 H 0.01978 1.00485 0.2908 0.0
H287 H 0.01569 0.93765 0.31458 0.0
C288 C 0.07806 0.06926 0.64863 0.0
N289 N 0.07296 0.02069 0.63396 0.0
N290 N 0.05874 0.02205 0.6028 0.0
C291 C 0.05469 0.07147 0.58343 0.0
C292 C 0.06665 0.10358 0.61561 0.0
C293 C 0.09295 0.08146 0.70716 0.0
H294 H 0.0958 0.05206 0.78106 0.0
H295 H 0.10171 0.08 0.63135 0.0
H296 H 0.09289 0.12006 0.75337 0.0
O297 O 0.07457 0.91343 0.7705 0.0
O298 O 0.04978 0.91761 0.76414 0.0
H299 H 0.03099 0.08429 0.58371 0.0
H300 H 0.04129 0.12602 0.47472 0.0
C301 C 0.04055 0.08658 0.51572 0.0
H302 H 0.03844 0.05939 0.43535 0.0
H303 H 0.02363 0.99143 0.78869 0.0
O304 O 0.10398 0.96306 0.67834 0.0
C305 C 0.06184 0.90036 0.81311 0.0
Co306 Co 0.16185 0.30877 0.63534 0.0
Co307 Co 0.19693 0.30495 0.60333 0.0
C308 C 0.17742 0.36439 0.42178 0.0
O309 O 0.16515 0.34916 0.47246 0.0
O310 O 0.19014 0.34987 0.46378 0.0
C311 C 0.13 0.2986 0.59563 0.0
O312 O 0.13325 0.29907 0.47196 0.0
C313 C 0.22681 0.28307 0.48881 0.0
C314 C 0.23916 0.25892 0.66338 0.0
C315 C 0.24055 0.26421 0.53098 0.0
N316 N 0.21772 0.28799 0.59175 0.0
N317 N 0.22525 0.27389 0.69574 0.0
C318 C 0.22218 0.29376 0.35244 0.0
H319 H 0.21009 0.30253 0.34632 0.0
H320 H 0.22461 0.25976 0.2908 0.0
H321 H 0.22869 0.32695 0.31457 0.0
C322 C 0.16632 0.19535 0.64869 0.0
N323 N 0.17142 0.24391 0.63401 0.0
N324 N 0.18564 0.24256 0.60282 0.0
C325 C 0.18969 0.19314 0.58345 0.0
C326 C 0.17773 0.16102 0.61565 0.0
C327 C 0.15143 0.18314 0.70725 0.0
H328 H 0.14858 0.21254 0.78115 0.0
H329 H 0.14267 0.1846 0.63145 0.0
H330 H 0.15148 0.14455 0.75345 0.0
O331 O 0.16981 0.35117 0.77058 0.0
O332 O 0.1946 0.347 0.76413 0.0
H333 H 0.21339 0.18032 0.58368 0.0
H334 H 0.20309 0.13859 0.4747 0.0
C335 C 0.20383 0.17803 0.5157 0.0
H336 H 0.20594 0.20523 0.43533 0.0
H337 H 0.22074 0.27318 0.78868 0.0
O338 O 0.1404 0.30155 0.6784 0.0
C339 C 0.18254 0.36424 0.81315 0.0
Co340 Co 0.08253 0.30881 0.59896 0.0
Co341 Co 0.04745 0.30497 0.63098 0.0
C342 C 0.06696 0.36441 0.81256 0.0
O343 O 0.07923 0.34918 0.76186 0.0
O344 O 0.05424 0.34988 0.77055 0.0
C345 C 0.11438 0.2986 0.63866 0.0
O346 O 0.11113 0.299 0.76233 0.0
C347 C 0.01757 0.28306 0.74546 0.0
C348 C 0.00522 0.25893 0.57085 0.0
C349 C 0.00383 0.26419 0.70326 0.0
N350 N 0.02666 0.28801 0.64253 0.0
N351 N 0.01913 0.27392 0.53851 0.0
C352 C 0.0222 0.29374 0.88183 0.0
H353 H 0.03429 0.30251 0.88797 0.0
H354 H 0.01977 0.25973 0.94346 0.0
H355 H 0.01568 0.32692 0.91972 0.0
C356 C 0.07806 0.19538 0.58551 0.0
N357 N 0.07296 0.24395 0.60025 0.0
N358 N 0.05874 0.24258 0.63144 0.0
C359 C 0.05469 0.19316 0.65076 0.0
C360 C 0.06665 0.16105 0.61849 0.0
C361 C 0.09295 0.18319 0.52696 0.0
H362 H 0.0958 0.21259 0.45307 0.0
H363 H 0.10172 0.18464 0.60276 0.0
H364 H 0.0929 0.14459 0.48073 0.0
O365 O 0.07457 0.35122 0.46374 0.0
O366 O 0.04978 0.34704 0.4702 0.0
H367 H 0.03099 0.18033 0.65055 0.0
H368 H 0.04129 0.1386 0.75949 0.0
C369 C 0.04055 0.17804 0.71851 0.0
H370 H 0.03844 0.20524 0.7989 0.0
H371 H 0.02365 0.27323 0.44557 0.0
O372 O 0.10398 0.30159 0.55589 0.0
C373 C 0.06183 0.36429 0.42118 0.0
Co374 Co 0.16185 0.9558 0.59903 0.0
Co375 Co 0.19693 0.95963 0.63095 0.0
C376 C 0.17742 0.9002 0.81257 0.0
O377 O 0.16515 0.91543 0.76192 0.0
O378 O 0.19014 0.91472 0.77052 0.0
C379 C 0.13 0.96601 0.63867 0.0
O380 O 0.13324 0.96559 0.76236 0.0
C381 C 0.22681 0.98153 0.74542 0.0
C382 C 0.23916 1.00567 0.57083 0.0
C383 C 0.24055 1.00039 0.70324 0.0
N384 N 0.21772 0.97659 0.6425 0.0
N385 N 0.22525 0.9907 0.53849 0.0
C386 C 0.22218 0.97084 0.8818 0.0
H387 H 0.21009 0.96207 0.88793 0.0
H388 H 0.2246 1.00485 0.94343 0.0
H389 H 0.22869 0.93766 0.91968 0.0
C390 C 0.16632 0.06923 0.58557 0.0
N391 N 0.17142 0.02066 0.60029 0.0
N392 N 0.18564 0.02202 0.63145 0.0
C393 C 0.18969 0.07145 0.65076 0.0
C394 C 0.17773 0.10356 0.61853 0.0
C395 C 0.15143 0.08142 0.52703 0.0
H396 H 0.14858 0.05202 0.45314 0.0
H397 H 0.14267 0.07997 0.60284 0.0
H398 H 0.15149 0.12002 0.48082 0.0
O399 O 0.16981 0.91339 0.4638 0.0
O400 O 0.1946 0.91757 0.47016 0.0
H401 H 0.21339 0.08428 0.65049 0.0
H402 H 0.20309 0.126 0.75947 0.0
C403 C 0.20383 0.08656 0.71848 0.0
H404 H 0.20594 0.05937 0.79885 0.0
H405 H 0.22074 0.9914 0.44555 0.0
O406 O 0.1404 0.96302 0.55593 0.0
C407 C 0.18255 0.90032 0.4212 0.0
Co408 Co 0.91185 0.05877 0.34893 0.0
Co409 Co 0.94693 0.05494 0.38086 0.0
C410 C 0.92742 0.11439 0.56246 0.0
O411 O 0.91515 0.09916 0.51181 0.0
O412 O 0.94014 0.09987 0.52041 0.0
C413 C 0.88 0.0486 0.38859 0.0
O414 O 0.88324 0.04906 0.51227 0.0
C415 C 0.97681 0.03304 0.49538 0.0
C416 C 0.98916 0.00891 0.32081 0.0
C417 C 0.99055 0.01418 0.45323 0.0
N418 N 0.96772 0.03799 0.39244 0.0
N419 N 0.97526 0.02389 0.28844 0.0
C420 C 0.97217 0.04373 0.63175 0.0
H421 H 0.96008 0.05249 0.63786 0.0
H422 H 0.9746 0.00973 0.6934 0.0
H423 H 0.97868 0.07693 0.66963 0.0
C424 C 0.91632 0.94535 0.33555 0.0
N425 N 0.92142 0.99392 0.35022 0.0
N426 N 0.93564 0.99255 0.38139 0.0
C427 C 0.93969 0.94313 0.40075 0.0
C428 C 0.92773 0.91102 0.36857 0.0
C429 C 0.90143 0.93315 0.27702 0.0
H430 H 0.89858 0.96255 0.20313 0.0
H431 H 0.89267 0.93461 0.35283 0.0
H432 H 0.90148 0.89455 0.23082 0.0
O433 O 0.91981 0.10118 0.2137 0.0
O434 O 0.9446 0.097 0.22005 0.0
H435 H 0.96339 0.93031 0.40048 0.0
H436 H 0.95309 0.88858 0.50945 0.0
C437 C 0.95383 0.92802 0.46847 0.0
H438 H 0.95593 0.95521 0.54885 0.0
H439 H 0.97075 0.0232 0.19549 0.0
O440 O 0.8904 0.05155 0.30585 0.0
C441 C 0.93254 0.11425 0.17108 0.0
Co442 Co 0.83253 0.70583 0.34885 0.0
Co443 Co 0.79745 0.70966 0.38086 0.0
C444 C 0.81696 0.65021 0.56241 0.0
O445 O 0.82923 0.66544 0.51173 0.0
O446 O 0.80424 0.66473 0.5204 0.0
C447 C 0.86438 0.716 0.38856 0.0
O448 O 0.86113 0.71553 0.51223 0.0
C449 C 0.76757 0.73154 0.49538 0.0
C450 C 0.75522 0.75568 0.32081 0.0
C451 C 0.75383 0.75039 0.45321 0.0
N452 N 0.77666 0.72661 0.39244 0.0
N453 N 0.76913 0.74072 0.28845 0.0
C454 C 0.7722 0.72084 0.63175 0.0
H455 H 0.78429 0.71207 0.63786 0.0
H456 H 0.76977 0.75485 0.69339 0.0
H457 H 0.76569 0.68765 0.66962 0.0
C458 C 0.82806 0.81926 0.33549 0.0
N459 N 0.82296 0.77069 0.35018 0.0
N460 N 0.80874 0.77205 0.38137 0.0
C461 C 0.80469 0.82147 0.40074 0.0
C462 C 0.81665 0.85358 0.36854 0.0
C463 C 0.84295 0.83146 0.27694 0.0
H464 H 0.8458 0.80207 0.20304 0.0
H465 H 0.85171 0.83001 0.35274 0.0
H466 H 0.84289 0.87006 0.23074 0.0
O467 O 0.82457 0.66343 0.21361 0.0
O468 O 0.79978 0.6676 0.22006 0.0
H469 H 0.78099 0.83429 0.40051 0.0
H470 H 0.79129 0.87601 0.50948 0.0
C471 C 0.79055 0.83658 0.46849 0.0
H472 H 0.78844 0.80938 0.54885 0.0
H473 H 0.77364 0.74142 0.19551 0.0
O474 O 0.85398 0.71306 0.30578 0.0
C475 C 0.81184 0.65036 0.17104 0.0
Co476 Co 0.91185 0.7058 0.38523 0.0
Co477 Co 0.94693 0.70964 0.35321 0.0
C478 C 0.92742 0.6502 0.17164 0.0
O479 O 0.91515 0.66542 0.22233 0.0
O480 O 0.94014 0.66472 0.21365 0.0
C481 C 0.88 0.71601 0.34553 0.0
O482 O 0.88325 0.71561 0.22186 0.0
C483 C 0.97681 0.73155 0.23873 0.0
C484 C 0.98915 0.75568 0.41334 0.0
C485 C 0.99054 0.75043 0.28093 0.0
N486 N 0.96772 0.7266 0.34166 0.0
N487 N 0.97525 0.74069 0.44567 0.0
C488 C 0.97218 0.72087 0.10236 0.0
H489 H 0.96009 0.7121 0.09622 0.0
H490 H 0.97461 0.75488 0.04073 0.0
H491 H 0.9787 0.68769 0.06447 0.0
C492 C 0.91632 0.81923 0.39867 0.0
N493 N 0.92142 0.77066 0.38393 0.0
N494 N 0.93564 0.77203 0.35274 0.0
C495 C 0.93969 0.82145 0.33342 0.0
C496 C 0.92773 0.85356 0.36569 0.0
C497 C 0.90142 0.83142 0.45722 0.0
H498 H 0.89858 0.80202 0.53111 0.0
H499 H 0.89266 0.82997 0.38142 0.0
H500 H 0.90148 0.87001 0.50344 0.0
O501 O 0.91981 0.66339 0.52045 0.0
O502 O 0.9446 0.66757 0.51399 0.0
H503 H 0.96338 0.83428 0.33363 0.0
H504 H 0.95309 0.876 0.22468 0.0
C505 C 0.95383 0.83656 0.26566 0.0
H506 H 0.95593 0.80937 0.18528 0.0
H507 H 0.97073 0.74138 0.53862 0.0
O508 O 0.8904 0.71301 0.4283 0.0
C509 C 0.93254 0.65032 0.56301 0.0
Co510 Co 0.83253 0.0588 0.38516 0.0
Co511 Co 0.79745 0.05497 0.35324 0.0
C512 C 0.81696 0.11441 0.17162 0.0
O513 O 0.82923 0.09918 0.22227 0.0
O514 O 0.80424 0.09989 0.21367 0.0
C515 C 0.86438 0.0486 0.34552 0.0
O516 O 0.86114 0.04902 0.22183 0.0
C517 C 0.76757 0.03308 0.23877 0.0
C518 C 0.75522 0.00894 0.41336 0.0
C519 C 0.75383 0.01422 0.28095 0.0
N520 N 0.77666 0.03801 0.34169 0.0
N521 N 0.76913 0.02391 0.4457 0.0
C522 C 0.7722 0.04376 0.10239 0.0
H523 H 0.78429 0.05254 0.09625 0.0
H524 H 0.76978 0.00976 0.04076 0.0
H525 H 0.76569 0.07695 0.06451 0.0
C526 C 0.82806 0.94538 0.39862 0.0
N527 N 0.82296 0.99394 0.3839 0.0
N528 N 0.80874 0.99258 0.35274 0.0
C529 C 0.80469 0.94316 0.33343 0.0
C530 C 0.81664 0.91105 0.36566 0.0
C531 C 0.84295 0.93318 0.45716 0.0
H532 H 0.8458 0.96258 0.53105 0.0
H533 H 0.85171 0.93464 0.38135 0.0
H534 H 0.84289 0.89459 0.50337 0.0
O535 O 0.82457 0.10122 0.52039 0.0
O536 O 0.79978 0.09704 0.51403 0.0
H537 H 0.78099 0.93033 0.3337 0.0
H538 H 0.79129 0.8886 0.22472 0.0
C539 C 0.79055 0.92804 0.26571 0.0
H540 H 0.78844 0.95524 0.18534 0.0
H541 H 0.77364 0.02321 0.53864 0.0
O542 O 0.85398 0.05159 0.42825 0.0
C543 C 0.81183 0.11428 0.56299 0.0
Co544 Co 0.58253 0.45584 0.63528 0.0
Co545 Co 0.54745 0.45966 0.60335 0.0
C546 C 0.56696 0.40021 0.42176 0.0
O547 O 0.57923 0.41545 0.4724 0.0
O548 O 0.55424 0.41473 0.46381 0.0
C549 C 0.61438 0.466 0.59561 0.0
O550 O 0.61114 0.46553 0.47193 0.0
C551 C 0.51757 0.48154 0.48883 0.0
C552 C 0.50521 0.50569 0.66339 0.0
C553 C 0.50383 0.5004 0.53098 0.0
N554 N 0.52666 0.47661 0.59177 0.0
N555 N 0.51912 0.49072 0.69576 0.0
C556 C 0.5222 0.47085 0.35246 0.0
H557 H 0.5343 0.46208 0.34635 0.0
H558 H 0.51978 0.50485 0.29081 0.0
H559 H 0.5157 0.43765 0.31459 0.0
C560 C 0.57806 0.56926 0.64865 0.0
N561 N 0.57296 0.52069 0.63398 0.0
N562 N 0.55874 0.52205 0.60282 0.0
C563 C 0.55469 0.57147 0.58345 0.0
C564 C 0.56665 0.60358 0.61563 0.0
C565 C 0.59295 0.58146 0.70718 0.0
H566 H 0.5958 0.55207 0.78108 0.0
H567 H 0.60171 0.58 0.63137 0.0
H568 H 0.59289 0.62006 0.75338 0.0
O569 O 0.57457 0.41343 0.77052 0.0
O570 O 0.54978 0.41761 0.76416 0.0
H571 H 0.53099 0.58429 0.58373 0.0
H572 H 0.54129 0.62602 0.47474 0.0
C573 C 0.54055 0.58658 0.51574 0.0
H574 H 0.53844 0.55938 0.43537 0.0
H575 H 0.52363 0.49143 0.7887 0.0
O576 O 0.60398 0.46306 0.67836 0.0
C577 C 0.56183 0.40037 0.81313 0.0
Co578 Co 0.66185 0.80877 0.63533 0.0
Co579 Co 0.69693 0.80494 0.60332 0.0
C580 C 0.67742 0.8644 0.42178 0.0
O581 O 0.66515 0.84916 0.47246 0.0
O582 O 0.69014 0.84987 0.46378 0.0
C583 C 0.63 0.7986 0.59563 0.0
O584 O 0.63325 0.79905 0.47196 0.0
C585 C 0.72681 0.78304 0.48879 0.0
C586 C 0.73916 0.75891 0.66337 0.0
C587 C 0.74054 0.76417 0.53096 0.0
N588 N 0.71772 0.78799 0.59174 0.0
N589 N 0.72525 0.77389 0.69574 0.0
C590 C 0.72218 0.79373 0.35243 0.0
H591 H 0.71009 0.80249 0.34631 0.0
H592 H 0.7246 0.75973 0.29078 0.0
H593 H 0.72869 0.82693 0.31455 0.0
C594 C 0.66632 0.69535 0.64869 0.0
N595 N 0.67142 0.74392 0.63401 0.0
N596 N 0.68564 0.74255 0.60281 0.0
C597 C 0.68969 0.69313 0.58344 0.0
C598 C 0.67773 0.66102 0.61565 0.0
C599 C 0.65142 0.68315 0.70724 0.0
H600 H 0.64858 0.71254 0.78114 0.0
H601 H 0.64266 0.6846 0.63144 0.0
H602 H 0.65148 0.64455 0.75345 0.0
O603 O 0.66981 0.85118 0.77058 0.0
O604 O 0.6946 0.847 0.76412 0.0
H605 H 0.71339 0.68032 0.58366 0.0
H606 H 0.70309 0.63859 0.47471 0.0
C607 C 0.70383 0.67802 0.51569 0.0
H608 H 0.70593 0.70522 0.43531 0.0
H609 H 0.72074 0.7732 0.78868 0.0
O610 O 0.6404 0.80155 0.6784 0.0
C611 C 0.68254 0.86424 0.81314 0.0
Co612 Co 0.58253 0.8088 0.59895 0.0
Co613 Co 0.54745 0.80497 0.63096 0.0
C614 C 0.56696 0.86441 0.81254 0.0
O615 O 0.57923 0.84918 0.76184 0.0
O616 O 0.55424 0.84989 0.77053 0.0
C617 C 0.61438 0.7986 0.63865 0.0
O618 O 0.61113 0.79901 0.76232 0.0
C619 C 0.51757 0.78308 0.74543 0.0
C620 C 0.50522 0.75894 0.57083 0.0
C621 C 0.50383 0.76422 0.70323 0.0
N622 N 0.52666 0.78801 0.64251 0.0
N623 N 0.51914 0.77391 0.5385 0.0
C624 C 0.52219 0.79377 0.88181 0.0
H625 H 0.53428 0.80255 0.88795 0.0
H626 H 0.51977 0.75976 0.94344 0.0
H627 H 0.51568 0.82695 0.91969 0.0
C628 C 0.57806 0.69538 0.58552 0.0
N629 N 0.57296 0.74395 0.60024 0.0
N630 N 0.55874 0.74258 0.63144 0.0
C631 C 0.55469 0.69316 0.65076 0.0
C632 C 0.56665 0.66105 0.6185 0.0
C633 C 0.59295 0.68318 0.52696 0.0
H634 H 0.5958 0.71258 0.45307 0.0
H635 H 0.60171 0.68463 0.60276 0.0
H636 H 0.5929 0.64459 0.48074 0.0
O637 O 0.57457 0.85122 0.46372 0.0
O638 O 0.54978 0.84704 0.47018 0.0
H639 H 0.53099 0.68033 0.65054 0.0
H640 H 0.54129 0.63861 0.75951 0.0
C641 C 0.54055 0.67805 0.71851 0.0
H642 H 0.53844 0.70525 0.79888 0.0
H643 H 0.52365 0.77321 0.44557 0.0
O644 O 0.60398 0.80159 0.55588 0.0
C645 C 0.56184 0.86429 0.42117 0.0
Co646 Co 0.66185 0.4558 0.59903 0.0
Co647 Co 0.69693 0.45964 0.63096 0.0
C648 C 0.67742 0.4002 0.81258 0.0
O649 O 0.66515 0.41543 0.76193 0.0
O650 O 0.69014 0.41472 0.77053 0.0
C651 C 0.63 0.46601 0.63868 0.0
O652 O 0.63324 0.4656 0.76237 0.0
C653 C 0.72681 0.48155 0.74544 0.0
C654 C 0.73916 0.50568 0.57084 0.0
C655 C 0.74055 0.50042 0.70325 0.0
N656 N 0.71772 0.4766 0.64251 0.0
N657 N 0.72525 0.49069 0.5385 0.0
C658 C 0.72218 0.47087 0.88181 0.0
H659 H 0.71009 0.4621 0.88795 0.0
H660 H 0.7246 0.50488 0.94344 0.0
H661 H 0.72869 0.43768 0.9197 0.0
C662 C 0.66632 0.56923 0.58557 0.0
N663 N 0.67142 0.52066 0.60029 0.0
N664 N 0.68564 0.52203 0.63146 0.0
C665 C 0.68969 0.57145 0.65077 0.0
C666 C 0.67773 0.60355 0.61853 0.0
C667 C 0.65143 0.58142 0.52704 0.0
H668 H 0.64858 0.55202 0.45316 0.0
H669 H 0.64266 0.57996 0.60286 0.0
H670 H 0.65148 0.62001 0.48083 0.0
O671 O 0.66981 0.41339 0.46381 0.0
O672 O 0.6946 0.41757 0.47017 0.0
H673 H 0.71339 0.58428 0.65051 0.0
H674 H 0.70309 0.62601 0.75948 0.0
C675 C 0.70383 0.58657 0.7185 0.0
H676 H 0.70593 0.55938 0.79888 0.0
H677 H 0.72074 0.49138 0.44556 0.0
O678 O 0.6404 0.46301 0.55595 0.0
C679 C 0.68255 0.40032 0.42121 0.0
Co680 Co 0.41185 0.55877 0.34892 0.0
Co681 Co 0.44693 0.55494 0.38084 0.0
C682 C 0.42742 0.61439 0.56244 0.0
O683 O 0.41515 0.59916 0.5118 0.0
O684 O 0.44014 0.59987 0.52039 0.0
C685 C 0.38 0.54861 0.38858 0.0
O686 O 0.38324 0.54907 0.51226 0.0
C687 C 0.47681 0.53305 0.49538 0.0
C688 C 0.48917 0.50891 0.32081 0.0
C689 C 0.49055 0.51418 0.45323 0.0
N690 N 0.46772 0.53799 0.39243 0.0
N691 N 0.47526 0.52389 0.28844 0.0
C692 C 0.47217 0.54373 0.63174 0.0
H693 H 0.46008 0.55249 0.63785 0.0
H694 H 0.4746 0.50973 0.69339 0.0
H695 H 0.47868 0.57693 0.66962 0.0
C696 C 0.41632 0.44535 0.33554 0.0
N697 N 0.42142 0.49392 0.35021 0.0
N698 N 0.43564 0.49255 0.38138 0.0
C699 C 0.43969 0.44313 0.40074 0.0
C700 C 0.42773 0.41102 0.36856 0.0
C701 C 0.40143 0.43315 0.27701 0.0
H702 H 0.39858 0.46254 0.20311 0.0
H703 H 0.39267 0.43461 0.35282 0.0
H704 H 0.40149 0.39455 0.23081 0.0
O705 O 0.41981 0.60118 0.21368 0.0
O706 O 0.4446 0.597 0.22004 0.0
H707 H 0.46339 0.43031 0.40047 0.0
H708 H 0.45309 0.38858 0.50944 0.0
C709 C 0.45383 0.42802 0.46846 0.0
H710 H 0.45594 0.45522 0.54883 0.0
H711 H 0.47075 0.5232 0.19549 0.0
O712 O 0.3904 0.55155 0.30583 0.0
C713 C 0.43255 0.61424 0.17107 0.0
Co714 Co 0.33253 0.20583 0.34886 0.0
Co715 Co 0.29745 0.20966 0.38087 0.0
C716 C 0.31696 0.15021 0.56242 0.0
O717 O 0.32923 0.16544 0.51173 0.0
O718 O 0.30424 0.16474 0.52041 0.0
C719 C 0.36438 0.216 0.38856 0.0
O720 O 0.36113 0.21555 0.51224 0.0
C721 C 0.26757 0.23156 0.4954 0.0
C722 C 0.25522 0.2557 0.32082 0.0
C723 C 0.25383 0.25043 0.45323 0.0
N724 N 0.27666 0.22662 0.39245 0.0
N725 N 0.26913 0.24071 0.28845 0.0
C726 C 0.2722 0.22087 0.63176 0.0
H727 H 0.28429 0.21211 0.63788 0.0
H728 H 0.26978 0.25488 0.69341 0.0
H729 H 0.26569 0.18768 0.66964 0.0
C730 C 0.32806 0.31926 0.3355 0.0
N731 N 0.32296 0.27069 0.35018 0.0
N732 N 0.30874 0.27205 0.38138 0.0
C733 C 0.30469 0.32147 0.40075 0.0
C734 C 0.31665 0.35358 0.36854 0.0
C735 C 0.34295 0.33146 0.27695 0.0
H736 H 0.3458 0.30206 0.20305 0.0
H737 H 0.35172 0.33001 0.35275 0.0
H738 H 0.3429 0.37005 0.23074 0.0
O739 O 0.32457 0.16343 0.21361 0.0
O740 O 0.29978 0.1676 0.22007 0.0
H741 H 0.28099 0.33429 0.40053 0.0
H742 H 0.29129 0.37602 0.50948 0.0
C743 C 0.29055 0.33658 0.4685 0.0
H744 H 0.28844 0.30939 0.54888 0.0
H745 H 0.27364 0.24141 0.19551 0.0
O746 O 0.35398 0.21305 0.30579 0.0
C747 C 0.31184 0.15036 0.17105 0.0
Co748 Co 0.41185 0.2058 0.38524 0.0
Co749 Co 0.44693 0.20964 0.35323 0.0
C750 C 0.42742 0.15019 0.17166 0.0
O751 O 0.41515 0.16542 0.22235 0.0
O752 O 0.44014 0.16472 0.21367 0.0
C753 C 0.38 0.21601 0.34554 0.0
O754 O 0.38325 0.21559 0.22187 0.0
C755 C 0.47681 0.23153 0.23876 0.0
C756 C 0.48915 0.25568 0.41337 0.0
C757 C 0.49055 0.25039 0.28096 0.0
N758 N 0.46772 0.2266 0.34169 0.0
N759 N 0.47524 0.2407 0.4457 0.0
C760 C 0.47219 0.22084 0.10239 0.0
H761 H 0.4601 0.21206 0.09625 0.0
H762 H 0.47461 0.25485 0.04076 0.0
H763 H 0.4787 0.18766 0.06451 0.0
C764 C 0.41632 0.31923 0.39867 0.0
N765 N 0.42142 0.27066 0.38395 0.0
N766 N 0.43564 0.27202 0.35275 0.0
C767 C 0.43969 0.32144 0.33342 0.0
C768 C 0.42773 0.35355 0.36568 0.0
C769 C 0.40143 0.33143 0.45722 0.0
H770 H 0.39858 0.30203 0.53111 0.0
H771 H 0.39266 0.32997 0.38142 0.0
H772 H 0.40148 0.37002 0.50344 0.0
O773 O 0.41981 0.16339 0.52047 0.0
O774 O 0.4446 0.16757 0.51402 0.0
H775 H 0.46339 0.33427 0.33364 0.0
H776 H 0.45309 0.37599 0.22468 0.0
C777 C 0.45383 0.33656 0.26567 0.0
H778 H 0.45594 0.30936 0.1853 0.0
H779 H 0.47073 0.2414 0.53863 0.0
O780 O 0.3904 0.21302 0.42831 0.0
C781 C 0.43254 0.15032 0.56303 0.0
Co782 Co 0.33253 0.5588 0.38516 0.0
Co783 Co 0.29745 0.55497 0.35323 0.0
C784 C 0.31696 0.61441 0.17161 0.0
O785 O 0.32923 0.59918 0.22227 0.0
O786 O 0.30424 0.59988 0.21366 0.0
C787 C 0.36438 0.5486 0.34551 0.0
O788 O 0.36114 0.54901 0.22182 0.0
C789 C 0.26757 0.53305 0.23875 0.0
C790 C 0.25522 0.50892 0.41335 0.0
C791 C 0.25383 0.51418 0.28094 0.0
N792 N 0.27666 0.53801 0.34168 0.0
N793 N 0.26913 0.52391 0.44569 0.0
C794 C 0.2722 0.54374 0.10238 0.0
H795 H 0.28429 0.5525 0.09624 0.0
H796 H 0.26978 0.50973 0.04075 0.0
H797 H 0.26569 0.57692 0.06449 0.0
C798 C 0.32806 0.44538 0.39862 0.0
N799 N 0.32296 0.49394 0.3839 0.0
N800 N 0.30874 0.49258 0.35273 0.0
C801 C 0.30469 0.44316 0.33342 0.0
C802 C 0.31665 0.41105 0.36566 0.0
C803 C 0.34295 0.43319 0.45715 0.0
H804 H 0.3458 0.46259 0.53103 0.0
H805 H 0.35172 0.43464 0.38133 0.0
H806 H 0.3429 0.39459 0.50336 0.0
O807 O 0.32457 0.60122 0.52038 0.0
O808 O 0.29978 0.59704 0.51402 0.0
H809 H 0.28099 0.43033 0.33368 0.0
H810 H 0.29129 0.3886 0.22472 0.0
C811 C 0.29055 0.42804 0.2657 0.0
H812 H 0.28845 0.45523 0.18531 0.0
H813 H 0.27364 0.52322 0.53864 0.0
O814 O 0.35398 0.55159 0.42825 0.0
C815 C 0.31183 0.61428 0.56299 0.0
Co816 Co 0.58253 0.95584 0.13528 0.0
Co817 Co 0.54745 0.95966 0.10335 0.0
C818 C 0.56696 0.90021 0.92176 0.0
O819 O 0.57923 0.91545 0.9724 0.0
O820 O 0.55424 0.91474 0.96381 0.0
C821 C 0.61438 0.966 0.09561 0.0
O822 O 0.61114 0.96554 0.97193 0.0
C823 C 0.51757 0.98154 0.98883 0.0
C824 C 0.50521 1.00569 0.16339 0.0
C825 C 0.50383 1.0004 0.03098 0.0
N826 N 0.52666 0.97662 0.09177 0.0
N827 N 0.51912 0.99072 0.19576 0.0
C828 C 0.5222 0.97085 0.85246 0.0
H829 H 0.5343 0.96208 0.84635 0.0
H830 H 0.51978 1.00485 0.79081 0.0
H831 H 0.51569 0.93765 0.8146 0.0
C832 C 0.57806 0.06926 0.14864 0.0
N833 N 0.57296 0.02069 0.13397 0.0
N834 N 0.55874 0.02205 0.10281 0.0
C835 C 0.55469 0.07147 0.08344 0.0
C836 C 0.56665 0.10358 0.11562 0.0
C837 C 0.59295 0.08146 0.20717 0.0
H838 H 0.5958 0.05207 0.28107 0.0
H839 H 0.60171 0.08 0.13136 0.0
H840 H 0.59289 0.12006 0.25337 0.0
O841 O 0.57457 0.91343 0.27052 0.0
O842 O 0.54978 0.91761 0.26416 0.0
H843 H 0.53099 0.08429 0.08372 0.0
H844 H 0.54129 0.12602 0.97473 0.0
C845 C 0.54055 0.08658 0.01573 0.0
H846 H 0.53844 0.05938 0.93536 0.0
H847 H 0.52363 0.99143 0.2887 0.0
O848 O 0.60398 0.96306 0.17836 0.0
C849 C 0.56183 0.90037 0.31313 0.0
Co850 Co 0.66185 0.30877 0.13536 0.0
Co851 Co 0.69693 0.30494 0.10334 0.0
C852 C 0.67742 0.3644 0.9218 0.0
O853 O 0.66515 0.34917 0.97249 0.0
O854 O 0.69014 0.34987 0.96381 0.0
C855 C 0.63 0.2986 0.09565 0.0
O856 O 0.63325 0.29906 0.97198 0.0
C857 C 0.72681 0.28304 0.98881 0.0
C858 C 0.73916 0.25891 0.16338 0.0
C859 C 0.74054 0.26418 0.03097 0.0
N860 N 0.71772 0.28799 0.09176 0.0
N861 N 0.72525 0.27389 0.19575 0.0
C862 C 0.72218 0.29374 0.85245 0.0
H863 H 0.71009 0.3025 0.84633 0.0
H864 H 0.7246 0.25973 0.79079 0.0
H865 H 0.72869 0.32693 0.81457 0.0
C866 C 0.66632 0.19535 0.1487 0.0
N867 N 0.67142 0.24392 0.13403 0.0
N868 N 0.68564 0.24255 0.10283 0.0
C869 C 0.68969 0.19313 0.08345 0.0
C870 C 0.67773 0.16102 0.11565 0.0
C871 C 0.65143 0.18315 0.20725 0.0
H872 H 0.64858 0.21254 0.28115 0.0
H873 H 0.64266 0.1846 0.13145 0.0
H874 H 0.65148 0.14455 0.25346 0.0
O875 O 0.66981 0.35117 0.27061 0.0
O876 O 0.6946 0.347 0.26415 0.0
H877 H 0.71339 0.18032 0.08367 0.0
H878 H 0.70309 0.13859 0.97471 0.0
C879 C 0.70383 0.17803 0.0157 0.0
H880 H 0.70593 0.20522 0.93532 0.0
H881 H 0.72074 0.27319 0.2887 0.0
O882 O 0.6404 0.30155 0.17842 0.0
C883 C 0.68254 0.36424 0.31317 0.0
Co884 Co 0.58253 0.3088 0.09895 0.0
Co885 Co 0.54745 0.30497 0.13096 0.0
C886 C 0.56696 0.36441 0.31254 0.0
O887 O 0.57923 0.34918 0.26185 0.0
O888 O 0.55424 0.34989 0.27053 0.0
C889 C 0.61438 0.2986 0.13866 0.0
O890 O 0.61113 0.29901 0.26233 0.0
C891 C 0.51757 0.28306 0.24544 0.0
C892 C 0.50523 0.25893 0.07083 0.0
C893 C 0.50384 0.26419 0.20324 0.0
N894 N 0.52666 0.28801 0.14251 0.0
N895 N 0.51914 0.27392 0.0385 0.0
C896 C 0.5222 0.29374 0.38182 0.0
H897 H 0.53429 0.30252 0.38795 0.0
H898 H 0.51977 0.25973 0.44344 0.0
H899 H 0.51568 0.32693 0.4197 0.0
C900 C 0.57806 0.19538 0.08551 0.0
N901 N 0.57296 0.24395 0.10024 0.0
N902 N 0.55874 0.24258 0.13144 0.0
C903 C 0.55469 0.19316 0.15076 0.0
C904 C 0.56665 0.16105 0.11849 0.0
C905 C 0.59295 0.18318 0.02696 0.0
H906 H 0.5958 0.21258 0.95307 0.0
H907 H 0.60172 0.18464 0.10276 0.0
H908 H 0.5929 0.14459 0.98074 0.0
O909 O 0.57457 0.35122 0.96372 0.0
O910 O 0.54978 0.34704 0.97018 0.0
H911 H 0.53099 0.18033 0.15055 0.0
H912 H 0.54129 0.13861 0.2595 0.0
C913 C 0.54055 0.17805 0.21851 0.0
H914 H 0.53844 0.20524 0.29889 0.0
H915 H 0.52365 0.27323 0.94556 0.0
O916 O 0.60398 0.30159 0.05589 0.0
C917 C 0.56184 0.36428 0.92117 0.0
Co918 Co 0.66185 0.9558 0.09901 0.0
Co919 Co 0.69693 0.95964 0.13093 0.0
C920 C 0.67742 0.9002 0.31255 0.0
O921 O 0.66515 0.91542 0.2619 0.0
O922 O 0.69014 0.91472 0.2705 0.0
C923 C 0.63 0.966 0.13867 0.0
O924 O 0.63324 0.96559 0.26235 0.0
C925 C 0.72681 0.98155 0.24541 0.0
C926 C 0.73916 1.00568 0.07082 0.0
C927 C 0.74055 1.00042 0.20323 0.0
N928 N 0.71772 0.9766 0.14248 0.0
N929 N 0.72525 0.99069 0.03847 0.0
C930 C 0.72218 0.97086 0.38179 0.0
H931 H 0.71009 0.96209 0.38792 0.0
H932 H 0.7246 1.00487 0.44342 0.0
H933 H 0.72869 0.93768 0.41967 0.0
C934 C 0.66632 0.06923 0.08556 0.0
N935 N 0.67142 0.02066 0.10028 0.0
N936 N 0.68564 0.02203 0.13144 0.0
C937 C 0.68969 0.07145 0.15076 0.0
C938 C 0.67773 0.10356 0.11853 0.0
C939 C 0.65143 0.08142 0.02704 0.0
H940 H 0.64858 0.05202 0.95315 0.0
H941 H 0.64266 0.07996 0.10285 0.0
H942 H 0.65148 0.12002 0.98083 0.0
O943 O 0.66981 0.91339 0.96378 0.0
O944 O 0.6946 0.91757 0.97014 0.0
H945 H 0.71339 0.08428 0.15051 0.0
H946 H 0.70309 0.126 0.25947 0.0
C947 C 0.70383 0.08656 0.21849 0.0
H948 H 0.70593 0.05937 0.29887 0.0
H949 H 0.72074 0.99138 0.94553 0.0
O950 O 0.6404 0.96301 0.05593 0.0
C951 C 0.68255 0.90032 0.92118 0.0
Co952 Co 0.41185 0.05877 0.84892 0.0
Co953 Co 0.44693 0.05494 0.88085 0.0
C954 C 0.42742 0.11439 0.06244 0.0
O955 O 0.41515 0.09916 0.0118 0.0
O956 O 0.44014 0.09987 0.02039 0.0
C957 C 0.38 0.04861 0.88858 0.0
O958 O 0.38324 0.04906 0.01226 0.0
C959 C 0.47681 0.03304 -0.00462 0.0
C960 C 0.48916 0.00891 0.82081 0.0
C961 C 0.49055 0.01418 0.95323 0.0
N962 N 0.46772 0.03799 0.89243 0.0
N963 N 0.47526 0.02389 0.78844 0.0
C964 C 0.47217 0.04373 0.13174 0.0
H965 H 0.46008 0.05249 0.13786 0.0
H966 H 0.4746 0.00973 0.1934 0.0
H967 H 0.47868 0.07693 0.16962 0.0
C968 C 0.41632 0.94535 0.83555 0.0
N969 N 0.42142 0.99392 0.85022 0.0
N970 N 0.43564 0.99255 0.88138 0.0
C971 C 0.43969 0.94313 0.90075 0.0
C972 C 0.42773 0.91102 0.86857 0.0
C973 C 0.40143 0.93315 0.77702 0.0
H974 H 0.39858 0.96255 0.70312 0.0
H975 H 0.39267 0.93461 0.85283 0.0
H976 H 0.40148 0.89455 0.73081 0.0
O977 O 0.41981 0.10118 0.71368 0.0
O978 O 0.4446 0.097 0.72004 0.0
H979 H 0.46339 0.93031 0.90048 0.0
H980 H 0.45309 0.88858 0.00945 0.0
C981 C 0.45383 0.92802 0.96847 0.0
H982 H 0.45593 0.95522 0.04884 0.0
H983 H 0.47075 0.02319 0.69549 0.0
O984 O 0.3904 0.05156 0.80584 0.0
C985 C 0.43255 0.11424 0.67107 0.0
Co986 Co 0.33253 0.70583 0.84883 0.0
Co987 Co 0.29745 0.70966 0.88085 0.0
C988 C 0.31696 0.65021 0.06239 0.0
O989 O 0.32923 0.66544 0.01171 0.0
O990 O 0.30424 0.66473 0.02039 0.0
C991 C 0.36438 0.716 0.88855 0.0
O992 O 0.36112 0.71555 0.01222 0.0
C993 C 0.26757 0.73156 -0.00462 0.0
C994 C 0.25522 0.7557 0.82081 0.0
C995 C 0.25383 0.75043 0.95322 0.0
N996 N 0.27666 0.72662 0.89243 0.0
N997 N 0.26913 0.74072 0.78844 0.0
C998 C 0.2722 0.72087 0.13175 0.0
H999 H 0.28429 0.71211 0.13786 0.0
H1000 H 0.26978 0.75487 0.1934 0.0
H1001 H 0.26569 0.68767 0.16962 0.0
C1002 C 0.32806 0.81926 0.83549 0.0
N1003 N 0.32296 0.77069 0.85016 0.0
N1004 N 0.30874 0.77205 0.88136 0.0
C1005 C 0.30469 0.82147 0.90074 0.0
C1006 C 0.31665 0.85358 0.86854 0.0
C1007 C 0.34295 0.83146 0.77694 0.0
H1008 H 0.3458 0.80206 0.70304 0.0
H1009 H 0.35172 0.83001 0.85274 0.0
H1010 H 0.3429 0.87006 0.73073 0.0
O1011 O 0.32457 0.66343 0.71359 0.0
O1012 O 0.29978 0.66761 0.72004 0.0
H1013 H 0.28099 0.83429 0.90053 0.0
H1014 H 0.29129 0.87602 0.00948 0.0
C1015 C 0.29055 0.83658 0.96849 0.0
H1016 H 0.28844 0.80938 0.04887 0.0
H1017 H 0.27364 0.74141 0.69549 0.0
O1018 O 0.35398 0.71305 0.80577 0.0
C1019 C 0.31183 0.65037 0.67102 0.0
Co1020 Co 0.41185 0.7058 0.88524 0.0
Co1021 Co 0.44693 0.70964 0.85323 0.0
C1022 C 0.42742 0.6502 0.67166 0.0
O1023 O 0.41515 0.66542 0.72235 0.0
O1024 O 0.44014 0.66472 0.71367 0.0
C1025 C 0.38 0.716 0.84553 0.0
O1026 O 0.38325 0.71559 0.72186 0.0
C1027 C 0.47681 0.73155 0.73876 0.0
C1028 C 0.48915 0.75568 0.91336 0.0
C1029 C 0.49054 0.75042 0.78095 0.0
N1030 N 0.46772 0.7266 0.84168 0.0
N1031 N 0.47524 0.74069 0.9457 0.0
C1032 C 0.47218 0.72086 0.60238 0.0
H1033 H 0.46009 0.71209 0.59624 0.0
H1034 H 0.47461 0.75487 0.54075 0.0
H1035 H 0.4787 0.68768 0.5645 0.0
C1036 C 0.41632 0.81923 0.89867 0.0
N1037 N 0.42142 0.77066 0.88395 0.0
N1038 N 0.43564 0.77202 0.85275 0.0
C1039 C 0.43969 0.82145 0.83343 0.0
C1040 C 0.42773 0.85356 0.86569 0.0
C1041 C 0.40142 0.83142 0.95723 0.0
H1042 H 0.39858 0.80202 0.03111 0.0
H1043 H 0.39266 0.82997 0.88142 0.0
H1044 H 0.40148 0.87002 0.00344 0.0
O1045 O 0.41981 0.66339 0.02047 0.0
O1046 O 0.4446 0.66757 0.01402 0.0
H1047 H 0.46338 0.83427 0.83363 0.0
H1048 H 0.45309 0.876 0.72469 0.0
C1049 C 0.45382 0.83656 0.76567 0.0
H1050 H 0.45593 0.80937 0.68529 0.0
H1051 H 0.47073 0.74138 0.03864 0.0
O1052 O 0.39039 0.71302 0.9283 0.0
C1053 C 0.43254 0.65033 0.06303 0.0
Co1054 Co 0.33253 0.0588 0.88518 0.0
Co1055 Co 0.29745 0.05497 0.85326 0.0
C1056 C 0.31696 0.11441 0.67164 0.0
O1057 O 0.32923 0.09918 0.72229 0.0
O1058 O 0.30424 0.09989 0.71369 0.0
C1059 C 0.36438 0.0486 0.84552 0.0
O1060 O 0.36114 0.04902 0.72184 0.0
C1061 C 0.26757 0.03306 0.73878 0.0
C1062 C 0.25522 0.00892 0.91337 0.0
C1063 C 0.25383 0.01418 0.78096 0.0
N1064 N 0.27666 0.03801 0.84171 0.0
N1065 N 0.26913 0.02391 0.94572 0.0
C1066 C 0.2722 0.04374 0.6024 0.0
H1067 H 0.28429 0.05251 0.59627 0.0
H1068 H 0.26978 0.00973 0.54077 0.0
H1069 H 0.26569 0.07693 0.56452 0.0
C1070 C 0.32806 0.94538 0.89863 0.0
N1071 N 0.32296 0.99394 0.88391 0.0
N1072 N 0.30874 0.99258 0.85275 0.0
C1073 C 0.30469 0.94316 0.83343 0.0
C1074 C 0.31665 0.91105 0.86566 0.0
C1075 C 0.34295 0.93318 0.95715 0.0
H1076 H 0.3458 0.96258 0.03104 0.0
H1077 H 0.35172 0.93464 0.88134 0.0
H1078 H 0.3429 0.89459 0.00337 0.0
O1079 O 0.32457 0.10121 0.02041 0.0
O1080 O 0.29978 0.09703 0.01405 0.0
H1081 H 0.28099 0.93033 0.83368 0.0
H1082 H 0.29129 0.8886 0.72472 0.0
C1083 C 0.29055 0.92804 0.7657 0.0
H1084 H 0.28845 0.95523 0.68532 0.0
H1085 H 0.27364 0.02322 0.03866 0.0
O1086 O 0.35398 0.05159 0.92826 0.0
C1087 C 0.31183 0.11428 0.06301 0.0
loop_
_geom_bond_atom_site_label_1
_geom_bond_atom_site_label_2
_geom_bond_distance
_geom_bond_site_symmetry_2
_ccdc_geom_bond_type
Co0 O3 1.970 1_554 S
Co0 N17 1.989 . S
Co0 O25 1.967 . S
Co0 O32 1.920 . S
Co1 O4 1.966 1_554 S
Co1 N10 2.022 . S
Co1 N18 1.993 . S
Co1 O26 1.941 . S
C2 O3 1.258 . S
C2 O4 1.263 . S
O3 Co0 1.970 1_556 S
O3 C2 1.258 . S
O4 Co1 1.966 1_556 S
O4 C2 1.263 . S
C5 O6 1.235 1_554 S
C5 O32 1.289 . S
O6 C5 1.235 1_556 S
C7 C9 1.400 1_556 S
C7 N10 1.351 1_556 S
C7 C12 1.501 . S
C8 C9 1.387 . S
C8 N11 1.341 . S
C9 C7 1.400 1_554 S
C9 C8 1.387 . S
N10 Co1 2.022 . S
N10 C7 1.351 1_554 S
N10 N11 1.365 . S
N11 C8 1.341 . S
N11 N10 1.365 . S
N11 H31 0.862 . S
C12 C7 1.501 . S
C12 H13 0.961 . S
C12 H14 0.961 . S
C12 H15 0.960 . S
H13 C12 0.961 . S
H14 C12 0.961 . S
H15 C12 0.960 . S
C16 N17 1.342 . S
C16 C20 1.401 . S
C16 C21 1.499 . S
N17 Co0 1.989 . S
N17 C16 1.342 . S
N17 N18 1.388 . S
N18 Co1 1.993 . S
N18 N17 1.388 . S
N18 C19 1.346 . S
C19 N18 1.346 . S
C19 C20 1.396 . S
C19 C29 1.510 . S
C20 C16 1.401 . S
C20 C19 1.396 . S
C21 C16 1.499 . S
C21 H22 0.959 . S
C21 H23 0.960 . S
C21 H24 0.961 . S
H22 C21 0.959 . S
H23 C21 0.960 . S
H24 C21 0.961 . S
O25 Co0 1.967 . S
O25 C33 1.258 . S
O26 Co1 1.941 . S
O26 C33 1.266 . S
H27 C29 0.959 . S
H28 C29 0.961 . S
C29 C19 1.510 . S
C29 H27 0.959 . S
C29 H28 0.961 . S
C29 H30 0.960 . S
H30 C29 0.960 . S
H31 N11 0.862 . S
O32 Co0 1.920 . S
O32 C5 1.289 . S
C33 O25 1.258 . S
C33 O26 1.266 . S
Co34 O37 1.970 1_554 S
Co34 N51 1.989 . S
Co34 O59 1.967 . S
Co34 O66 1.920 . S
Co35 O38 1.966 1_554 S
Co35 N44 2.022 . S
Co35 N52 1.993 . S
Co35 O60 1.941 . S
C36 O37 1.258 . S
C36 O38 1.263 . S
O37 Co34 1.970 1_556 S
O37 C36 1.258 . S
O38 Co35 1.966 1_556 S
O38 C36 1.263 . S
C39 O40 1.235 1_554 S
C39 O66 1.289 . S
O40 C39 1.235 1_556 S
C41 C43 1.400 1_556 S
C41 N44 1.351 1_556 S
C41 C46 1.501 . S
C42 C43 1.387 . S
C42 N45 1.341 . S
C43 C41 1.400 1_554 S
C43 C42 1.387 . S
N44 Co35 2.022 . S
N44 C41 1.351 1_554 S
N44 N45 1.365 . S
N45 C42 1.341 . S
N45 N44 1.365 . S
N45 H65 0.862 . S
C46 C41 1.501 . S
C46 H47 0.961 . S
C46 H48 0.961 . S
C46 H49 0.960 . S
H47 C46 0.961 . S
H48 C46 0.961 . S
H49 C46 0.960 . S
C50 N51 1.342 . S
C50 C54 1.401 . S
C50 C55 1.499 . S
N51 Co34 1.989 . S
N51 C50 1.342 . S
N51 N52 1.388 . S
N52 Co35 1.993 . S
N52 N51 1.388 . S
N52 C53 1.346 . S
C53 N52 1.346 . S
C53 C54 1.396 . S
C53 C63 1.510 . S
C54 C50 1.401 . S
C54 C53 1.396 . S
C55 C50 1.499 . S
C55 H56 0.959 . S
C55 H57 0.960 . S
C55 H58 0.961 . S
H56 C55 0.959 . S
H57 C55 0.960 . S
H58 C55 0.961 . S
O59 Co34 1.967 . S
O59 C67 1.258 . S
O60 Co35 1.941 . S
O60 C67 1.266 . S
H61 C63 0.959 . S
H62 C63 0.961 . S
C63 C53 1.510 . S
C63 H61 0.959 . S
C63 H62 0.961 . S
C63 H64 0.960 . S
H64 C63 0.960 . S
H65 N45 0.862 . S
O66 Co34 1.920 . S
O66 C39 1.289 . S
C67 O59 1.258 . S
C67 O60 1.266 . S
Co68 O71 1.970 . S
Co68 N85 1.989 . S
Co68 O93 1.967 1_554 S
Co68 O100 1.920 . S
Co69 O72 1.966 . S
Co69 N78 2.022 . S
Co69 N86 1.993 . S
Co69 O94 1.941 1_554 S
C70 O71 1.258 . S
C70 O72 1.263 . S
O71 Co68 1.970 . S
O71 C70 1.258 . S
O72 Co69 1.966 . S
O72 C70 1.263 . S
C73 O74 1.235 . S
C73 O100 1.289 . S
O74 C73 1.235 . S
C75 C77 1.400 . S
C75 N78 1.351 . S
C75 C80 1.501 . S
C76 C77 1.387 . S
C76 N79 1.341 . S
C77 C75 1.400 . S
C77 C76 1.387 . S
N78 Co69 2.022 . S
N78 C75 1.351 . S
N78 N79 1.365 . S
N79 C76 1.341 . S
N79 N78 1.365 . S
N79 H99 0.862 1_554 S
C80 C75 1.501 . S
C80 H81 0.961 . S
C80 H82 0.961 . S
C80 H83 0.960 . S
H81 C80 0.961 . S
H82 C80 0.961 . S
H83 C80 0.960 . S
C84 N85 1.342 . S
C84 C88 1.401 . S
C84 C89 1.499 . S
N85 Co68 1.989 . S
N85 C84 1.342 . S
N85 N86 1.388 . S
N86 Co69 1.993 . S
N86 N85 1.388 . S
N86 C87 1.346 . S
C87 N86 1.346 . S
C87 C88 1.396 . S
C87 C97 1.510 . S
C88 C84 1.401 . S
C88 C87 1.396 . S
C89 C84 1.499 . S
C89 H90 0.959 . S
C89 H91 0.960 . S
C89 H92 0.961 1_554 S
H90 C89 0.959 . S
H91 C89 0.960 . S
H92 C89 0.961 1_556 S
O93 Co68 1.967 1_556 S
O93 C101 1.258 . S
O94 Co69 1.941 1_556 S
O94 C101 1.266 . S
H95 C97 0.959 . S
H96 C97 0.961 . S
C97 C87 1.510 . S
C97 H95 0.959 . S
C97 H96 0.961 . S
C97 H98 0.960 . S
H98 C97 0.960 . S
H99 N79 0.862 1_556 S
O100 Co68 1.920 . S
O100 C73 1.289 . S
C101 O93 1.258 . S
C101 O94 1.266 . S
Co102 O105 1.970 . S
Co102 N119 1.989 . S
Co102 O127 1.967 1_554 S
Co102 O134 1.920 . S
Co103 O106 1.966 . S
Co103 N112 2.022 . S
Co103 N120 1.993 . S
Co103 O128 1.941 1_554 S
C104 O105 1.258 . S
C104 O106 1.263 . S
O105 Co102 1.970 . S
O105 C104 1.258 . S
O106 Co103 1.966 . S
O106 C104 1.263 . S
C107 O108 1.235 . S
C107 O134 1.289 . S
O108 C107 1.235 . S
C109 C111 1.400 . S
C109 N112 1.351 . S
C109 C114 1.501 . S
C110 C111 1.387 . S
C110 N113 1.341 . S
C111 C109 1.400 . S
C111 C110 1.387 . S
N112 Co103 2.022 . S
N112 C109 1.351 . S
N112 N113 1.365 . S
N113 C110 1.341 . S
N113 N112 1.365 . S
N113 H133 0.862 1_554 S
C114 C109 1.501 . S
C114 H115 0.961 . S
C114 H116 0.961 . S
C114 H117 0.960 . S
H115 C114 0.961 . S
H116 C114 0.961 . S
H117 C114 0.960 . S
C118 N119 1.342 . S
C118 C122 1.401 . S
C118 C123 1.499 . S
N119 Co102 1.989 . S
N119 C118 1.342 . S
N119 N120 1.388 . S
N120 Co103 1.993 . S
N120 N119 1.388 . S
N120 C121 1.346 . S
C121 N120 1.346 . S
C121 C122 1.396 . S
C121 C131 1.510 . S
C122 C118 1.401 . S
C122 C121 1.396 . S
C123 C118 1.499 . S
C123 H124 0.959 . S
C123 H125 0.960 . S
C123 H126 0.961 1_554 S
H124 C123 0.959 . S
H125 C123 0.960 . S
H126 C123 0.961 1_556 S
O127 Co102 1.967 1_556 S
O127 C135 1.258 . S
O128 Co103 1.941 1_556 S
O128 C135 1.266 . S
H129 C131 0.959 . S
H130 C131 0.961 . S
C131 C121 1.510 . S
C131 H129 0.959 . S
C131 H130 0.961 . S
C131 H132 0.960 . S
H132 C131 0.960 . S
H133 N113 0.862 1_556 S
O134 Co102 1.920 . S
O134 C107 1.289 . S
C135 O127 1.258 . S
C135 O128 1.266 . S
Co136 O139 1.970 1_556 S
Co136 N153 1.989 . S
Co136 O161 1.967 . S
Co136 O168 1.920 . S
Co137 O140 1.966 1_556 S
Co137 N146 2.022 . S
Co137 N154 1.993 . S
Co137 O162 1.941 . S
C138 O139 1.258 . S
C138 O140 1.263 . S
O139 Co136 1.970 1_554 S
O139 C138 1.258 . S
O140 Co137 1.966 1_554 S
O140 C138 1.263 . S
C141 O142 1.235 1_556 S
C141 O168 1.289 . S
O142 C141 1.235 1_554 S
C143 C145 1.400 1_554 S
C143 N146 1.351 1_554 S
C143 C148 1.501 . S
C144 C145 1.387 . S
C144 N147 1.341 . S
C145 C143 1.400 1_556 S
C145 C144 1.387 . S
N146 Co137 2.022 . S
N146 C143 1.351 1_556 S
N146 N147 1.365 . S
N147 C144 1.341 . S
N147 N146 1.365 . S
N147 H167 0.862 . S
C148 C143 1.501 . S
C148 H149 0.961 . S
C148 H150 0.961 . S
C148 H151 0.960 . S
H149 C148 0.961 . S
H150 C148 0.961 . S
H151 C148 0.960 . S
C152 N153 1.342 . S
C152 C156 1.401 . S
C152 C157 1.499 . S
N153 Co136 1.989 . S
N153 C152 1.342 . S
N153 N154 1.388 . S
N154 Co137 1.993 . S
N154 N153 1.388 . S
N154 C155 1.346 . S
C155 N154 1.346 . S
C155 C156 1.396 . S
C155 C165 1.510 . S
C156 C152 1.401 . S
C156 C155 1.396 . S
C157 C152 1.499 . S
C157 H158 0.959 . S
C157 H159 0.960 . S
C157 H160 0.961 . S
H158 C157 0.959 . S
H159 C157 0.960 . S
H160 C157 0.961 . S
O161 Co136 1.967 . S
O161 C169 1.258 . S
O162 Co137 1.941 . S
O162 C169 1.266 . S
H163 C165 0.959 . S
H164 C165 0.961 . S
C165 C155 1.510 . S
C165 H163 0.959 . S
C165 H164 0.961 . S
C165 H166 0.960 . S
H166 C165 0.960 . S
H167 N147 0.862 . S
O168 Co136 1.920 . S
O168 C141 1.289 . S
C169 O161 1.258 . S
C169 O162 1.266 . S
Co170 O173 1.970 1_556 S
Co170 N187 1.989 . S
Co170 O195 1.967 . S
Co170 O202 1.920 . S
Co171 O174 1.966 1_556 S
Co171 N180 2.022 . S
Co171 N188 1.993 . S
Co171 O196 1.941 . S
C172 O173 1.258 . S
C172 O174 1.263 . S
O173 Co170 1.970 1_554 S
O173 C172 1.258 . S
O174 Co171 1.966 1_554 S
O174 C172 1.263 . S
C175 O176 1.235 1_556 S
C175 O202 1.289 . S
O176 C175 1.235 1_554 S
C177 C179 1.400 1_554 S
C177 N180 1.351 1_554 S
C177 C182 1.501 . S
C178 C179 1.387 . S
C178 N181 1.341 . S
C179 C177 1.400 1_556 S
C179 C178 1.387 . S
N180 Co171 2.022 . S
N180 C177 1.351 1_556 S
N180 N181 1.365 . S
N181 C178 1.341 . S
N181 N180 1.365 . S
N181 H201 0.862 . S
C182 C177 1.501 . S
C182 H183 0.961 . S
C182 H184 0.961 . S
C182 H185 0.960 . S
H183 C182 0.961 . S
H184 C182 0.961 . S
H185 C182 0.960 . S
C186 N187 1.342 . S
C186 C190 1.401 . S
C186 C191 1.499 . S
N187 Co170 1.989 . S
N187 C186 1.342 . S
N187 N188 1.388 . S
N188 Co171 1.993 . S
N188 N187 1.388 . S
N188 C189 1.346 . S
C189 N188 1.346 . S
C189 C190 1.396 . S
C189 C199 1.510 . S
C190 C186 1.401 . S
C190 C189 1.396 . S
C191 C186 1.499 . S
C191 H192 0.959 . S
C191 H193 0.960 . S
C191 H194 0.961 . S
H192 C191 0.959 . S
H193 C191 0.960 . S
H194 C191 0.961 . S
O195 Co170 1.967 . S
O195 C203 1.258 . S
O196 Co171 1.941 . S
O196 C203 1.266 . S
H197 C199 0.959 . S
H198 C199 0.961 . S
C199 C189 1.510 . S
C199 H197 0.959 . S
C199 H198 0.961 . S
C199 H200 0.960 . S
H200 C199 0.960 . S
H201 N181 0.862 . S
O202 Co170 1.920 . S
O202 C175 1.289 . S
C203 O195 1.258 . S
C203 O196 1.266 . S
Co204 O207 1.970 . S
Co204 N221 1.989 . S
Co204 O229 1.967 1_556 S
Co204 O236 1.920 . S
Co205 O208 1.966 . S
Co205 N214 2.022 . S
Co205 N222 1.993 . S
Co205 O230 1.941 1_556 S
C206 O207 1.258 . S
C206 O208 1.263 . S
O207 Co204 1.970 . S
O207 C206 1.258 . S
O208 Co205 1.966 . S
O208 C206 1.263 . S
C209 O210 1.235 . S
C209 O236 1.289 . S
O210 C209 1.235 . S
C211 C213 1.400 . S
C211 N214 1.351 . S
C211 C216 1.501 . S
C212 C213 1.387 . S
C212 N215 1.341 . S
C213 C211 1.400 . S
C213 C212 1.387 . S
N214 Co205 2.022 . S
N214 C211 1.351 . S
N214 N215 1.365 . S
N215 C212 1.341 . S
N215 N214 1.365 . S
N215 H235 0.862 1_556 S
C216 C211 1.501 . S
C216 H217 0.961 . S
C216 H218 0.961 . S
C216 H219 0.960 . S
H217 C216 0.961 . S
H218 C216 0.961 . S
H219 C216 0.960 . S
C220 N221 1.342 . S
C220 C224 1.401 . S
C220 C225 1.499 . S
N221 Co204 1.989 . S
N221 C220 1.342 . S
N221 N222 1.388 . S
N222 Co205 1.993 . S
N222 N221 1.388 . S
N222 C223 1.346 . S
C223 N222 1.346 . S
C223 C224 1.396 . S
C223 C233 1.510 . S
C224 C220 1.401 . S
C224 C223 1.396 . S
C225 C220 1.499 . S
C225 H226 0.959 . S
C225 H227 0.960 . S
C225 H228 0.961 1_556 S
H226 C225 0.959 . S
H227 C225 0.960 . S
H228 C225 0.961 1_554 S
O229 Co204 1.967 1_554 S
O229 C237 1.258 . S
O230 Co205 1.941 1_554 S
O230 C237 1.266 . S
H231 C233 0.959 . S
H232 C233 0.961 . S
C233 C223 1.510 . S
C233 H231 0.959 . S
C233 H232 0.961 . S
C233 H234 0.960 . S
H234 C233 0.960 . S
H235 N215 0.862 1_554 S
O236 Co204 1.920 . S
O236 C209 1.289 . S
C237 O229 1.258 . S
C237 O230 1.266 . S
Co238 O241 1.970 . S
Co238 N255 1.989 . S
Co238 O263 1.967 1_556 S
Co238 O270 1.920 . S
Co239 O242 1.966 . S
Co239 N248 2.022 . S
Co239 N256 1.993 . S
Co239 O264 1.941 1_556 S
C240 O241 1.258 . S
C240 O242 1.263 . S
O241 Co238 1.970 . S
O241 C240 1.258 . S
O242 Co239 1.966 . S
O242 C240 1.263 . S
C243 O244 1.235 . S
C243 O270 1.289 . S
O244 C243 1.235 . S
C245 C247 1.400 . S
C245 N248 1.351 . S
C245 C250 1.501 . S
C246 C247 1.387 . S
C246 N249 1.341 . S
C247 C245 1.400 . S
C247 C246 1.387 . S
N248 Co239 2.022 . S
N248 C245 1.351 . S
N248 N249 1.365 . S
N249 C246 1.341 . S
N249 N248 1.365 . S
N249 H269 0.862 1_556 S
C250 C245 1.501 . S
C250 H251 0.961 . S
C250 H252 0.961 . S
C250 H253 0.960 . S
H251 C250 0.961 . S
H252 C250 0.961 . S
H253 C250 0.960 . S
C254 N255 1.342 . S
C254 C258 1.401 . S
C254 C259 1.499 . S
N255 Co238 1.989 . S
N255 C254 1.342 . S
N255 N256 1.388 . S
N256 Co239 1.993 . S
N256 N255 1.388 . S
N256 C257 1.346 . S
C257 N256 1.346 . S
C257 C258 1.396 . S
C257 C267 1.510 . S
C258 C254 1.401 . S
C258 C257 1.396 . S
C259 C254 1.499 . S
C259 H260 0.959 . S
C259 H261 0.960 . S
C259 H262 0.961 1_556 S
H260 C259 0.959 . S
H261 C259 0.960 . S
H262 C259 0.961 1_554 S
O263 Co238 1.967 1_554 S
O263 C271 1.258 . S
O264 Co239 1.941 1_554 S
O264 C271 1.266 . S
H265 C267 0.959 . S
H266 C267 0.961 . S
C267 C257 1.510 . S
C267 H265 0.959 . S
C267 H266 0.961 . S
C267 H268 0.960 . S
H268 C267 0.960 . S
H269 N249 0.862 1_554 S
O270 Co238 1.920 . S
O270 C243 1.289 . S
C271 O263 1.258 . S
C271 O264 1.266 . S
Co272 O275 1.970 . S
Co272 N289 1.989 1_565 S
Co272 O297 1.967 . S
Co272 O304 1.920 . S
Co273 O276 1.966 . S
Co273 N282 2.022 . S
Co273 N290 1.993 1_565 S
Co273 O298 1.941 . S
C274 O275 1.258 . S
C274 O276 1.263 . S
O275 Co272 1.970 . S
O275 C274 1.258 . S
O276 Co273 1.966 . S
O276 C274 1.263 . S
C277 O278 1.235 . S
C277 O304 1.289 . S
O278 C277 1.235 . S
C279 C281 1.400 . S
C279 N282 1.351 . S
C279 C284 1.501 . S
C280 C281 1.387 1_545 S
C280 N283 1.341 1_545 S
C281 C279 1.400 . S
C281 C280 1.387 1_565 S
N282 Co273 2.022 . S
N282 C279 1.351 . S
N282 N283 1.365 . S
N283 C280 1.341 1_565 S
N283 N282 1.365 . S
N283 H303 0.862 . S
C284 C279 1.501 . S
C284 H285 0.961 . S
C284 H286 0.961 . S
C284 H287 0.960 . S
H285 C284 0.961 . S
H286 C284 0.961 . S
H287 C284 0.960 . S
C288 N289 1.342 . S
C288 C292 1.401 . S
C288 C293 1.499 . S
N289 Co272 1.989 1_545 S
N289 C288 1.342 . S
N289 N290 1.388 . S
N290 Co273 1.993 1_545 S
N290 N289 1.388 . S
N290 C291 1.346 . S
C291 N290 1.346 . S
C291 C292 1.396 . S
C291 C301 1.510 . S
C292 C288 1.401 . S
C292 C291 1.396 . S
C293 C288 1.499 . S
C293 H294 0.959 . S
C293 H295 0.960 . S
C293 H296 0.961 . S
H294 C293 0.959 . S
H295 C293 0.960 . S
H296 C293 0.961 . S
O297 Co272 1.967 . S
O297 C305 1.258 . S
O298 Co273 1.941 . S
O298 C305 1.266 . S
H299 C301 0.959 . S
H300 C301 0.961 . S
C301 C291 1.510 . S
C301 H299 0.959 . S
C301 H300 0.961 . S
C301 H302 0.960 . S
H302 C301 0.960 . S
H303 N283 0.862 . S
O304 Co272 1.920 . S
O304 C277 1.289 . S
C305 O297 1.258 . S
C305 O298 1.266 . S
Co306 O309 1.970 . S
Co306 N323 1.989 . S
Co306 O331 1.967 . S
Co306 O338 1.920 . S
Co307 O310 1.966 . S
Co307 N316 2.022 . S
Co307 N324 1.993 . S
Co307 O332 1.941 . S
C308 O309 1.258 . S
C308 O310 1.263 . S
O309 Co306 1.970 . S
O309 C308 1.258 . S
O310 Co307 1.966 . S
O310 C308 1.263 . S
C311 O312 1.235 . S
C311 O338 1.289 . S
O312 C311 1.235 . S
C313 C315 1.400 . S
C313 N316 1.351 . S
C313 C318 1.501 . S
C314 C315 1.387 . S
C314 N317 1.341 . S
C315 C313 1.400 . S
C315 C314 1.387 . S
N316 Co307 2.022 . S
N316 C313 1.351 . S
N316 N317 1.365 . S
N317 C314 1.341 . S
N317 N316 1.365 . S
N317 H337 0.862 . S
C318 C313 1.501 . S
C318 H319 0.961 . S
C318 H320 0.961 . S
C318 H321 0.960 . S
H319 C318 0.961 . S
H320 C318 0.961 . S
H321 C318 0.960 . S
C322 N323 1.342 . S
C322 C326 1.401 . S
C322 C327 1.499 . S
N323 Co306 1.989 . S
N323 C322 1.342 . S
N323 N324 1.388 . S
N324 Co307 1.993 . S
N324 N323 1.388 . S
N324 C325 1.346 . S
C325 N324 1.346 . S
C325 C326 1.396 . S
C325 C335 1.510 . S
C326 C322 1.401 . S
C326 C325 1.396 . S
C327 C322 1.499 . S
C327 H328 0.959 . S
C327 H329 0.960 . S
C327 H330 0.961 . S
H328 C327 0.959 . S
H329 C327 0.960 . S
H330 C327 0.961 . S
O331 Co306 1.967 . S
O331 C339 1.258 . S
O332 Co307 1.941 . S
O332 C339 1.266 . S
H333 C335 0.959 . S
H334 C335 0.961 . S
C335 C325 1.510 . S
C335 H333 0.959 . S
C335 H334 0.961 . S
C335 H336 0.960 . S
H336 C335 0.960 . S
H337 N317 0.862 . S
O338 Co306 1.920 . S
O338 C311 1.289 . S
C339 O331 1.258 . S
C339 O332 1.266 . S
Co340 O343 1.970 . S
Co340 N357 1.989 . S
Co340 O365 1.967 . S
Co340 O372 1.920 . S
Co341 O344 1.966 . S
Co341 N350 2.022 . S
Co341 N358 1.993 . S
Co341 O366 1.941 . S
C342 O343 1.258 . S
C342 O344 1.263 . S
O343 Co340 1.970 . S
O343 C342 1.258 . S
O344 Co341 1.966 . S
O344 C342 1.263 . S
C345 O346 1.235 . S
C345 O372 1.289 . S
O346 C345 1.235 . S
C347 C349 1.400 . S
C347 N350 1.351 . S
C347 C352 1.501 . S
C348 C349 1.387 . S
C348 N351 1.341 . S
C349 C347 1.400 . S
C349 C348 1.387 . S
N350 Co341 2.022 . S
N350 C347 1.351 . S
N350 N351 1.365 . S
N351 C348 1.341 . S
N351 N350 1.365 . S
N351 H371 0.862 . S
C352 C347 1.501 . S
C352 H353 0.961 . S
C352 H354 0.961 . S
C352 H355 0.960 . S
H353 C352 0.961 . S
H354 C352 0.961 . S
H355 C352 0.960 . S
C356 N357 1.342 . S
C356 C360 1.401 . S
C356 C361 1.499 . S
N357 Co340 1.989 . S
N357 C356 1.342 . S
N357 N358 1.388 . S
N358 Co341 1.993 . S
N358 N357 1.388 . S
N358 C359 1.346 . S
C359 N358 1.346 . S
C359 C360 1.396 . S
C359 C369 1.510 . S
C360 C356 1.401 . S
C360 C359 1.396 . S
C361 C356 1.499 . S
C361 H362 0.959 . S
C361 H363 0.960 . S
C361 H364 0.961 . S
H362 C361 0.959 . S
H363 C361 0.960 . S
H364 C361 0.961 . S
O365 Co340 1.967 . S
O365 C373 1.258 . S
O366 Co341 1.941 . S
O366 C373 1.266 . S
H367 C369 0.959 . S
H368 C369 0.961 . S
C369 C359 1.510 . S
C369 H367 0.959 . S
C369 H368 0.961 . S
C369 H370 0.960 . S
H370 C369 0.960 . S
H371 N351 0.862 . S
O372 Co340 1.920 . S
O372 C345 1.289 . S
C373 O365 1.258 . S
C373 O366 1.266 . S
Co374 O377 1.970 . S
Co374 N391 1.989 1_565 S
Co374 O399 1.967 . S
Co374 O406 1.920 . S
Co375 O378 1.966 . S
Co375 N384 2.022 . S
Co375 N392 1.993 1_565 S
Co375 O400 1.941 . S
C376 O377 1.258 . S
C376 O378 1.263 . S
O377 Co374 1.970 . S
O377 C376 1.258 . S
O378 Co375 1.966 . S
O378 C376 1.263 . S
C379 O380 1.235 . S
C379 O406 1.289 . S
O380 C379 1.235 . S
C381 C383 1.400 . S
C381 N384 1.351 . S
C381 C386 1.501 . S
C382 C383 1.387 1_545 S
C382 N385 1.341 1_545 S
C383 C381 1.400 . S
C383 C382 1.387 1_565 S
N384 Co375 2.022 . S
N384 C381 1.351 . S
N384 N385 1.365 . S
N385 C382 1.341 1_565 S
N385 N384 1.365 . S
N385 H405 0.862 . S
C386 C381 1.501 . S
C386 H387 0.961 . S
C386 H388 0.961 . S
C386 H389 0.960 . S
H387 C386 0.961 . S
H388 C386 0.961 . S
H389 C386 0.960 . S
C390 N391 1.342 . S
C390 C394 1.401 . S
C390 C395 1.499 . S
N391 Co374 1.989 1_545 S
N391 C390 1.342 . S
N391 N392 1.388 . S
N392 Co375 1.993 1_545 S
N392 N391 1.388 . S
N392 C393 1.346 . S
C393 N392 1.346 . S
C393 C394 1.396 . S
C393 C403 1.510 . S
C394 C390 1.401 . S
C394 C393 1.396 . S
C395 C390 1.499 . S
C395 H396 0.959 . S
C395 H397 0.960 . S
C395 H398 0.961 . S
H396 C395 0.959 . S
H397 C395 0.960 . S
H398 C395 0.961 . S
O399 Co374 1.967 . S
O399 C407 1.258 . S
O400 Co375 1.941 . S
O400 C407 1.266 . S
H401 C403 0.959 . S
H402 C403 0.961 . S
C403 C393 1.510 . S
C403 H401 0.959 . S
C403 H402 0.961 . S
C403 H404 0.960 . S
H404 C403 0.960 . S
H405 N385 0.862 . S
O406 Co374 1.920 . S
O406 C379 1.289 . S
C407 O399 1.258 . S
C407 O400 1.266 . S
Co408 O411 1.970 . S
Co408 N425 1.989 1_545 S
Co408 O433 1.967 . S
Co408 O440 1.920 . S
Co409 O412 1.966 . S
Co409 N418 2.022 . S
Co409 N426 1.993 1_545 S
Co409 O434 1.941 . S
C410 O411 1.258 . S
C410 O412 1.263 . S
O411 Co408 1.970 . S
O411 C410 1.258 . S
O412 Co409 1.966 . S
O412 C410 1.263 . S
C413 O414 1.235 . S
C413 O440 1.289 . S
O414 C413 1.235 . S
C415 C417 1.400 . S
C415 N418 1.351 . S
C415 C420 1.501 . S
C416 C417 1.387 1_565 S
C416 N419 1.341 1_565 S
C417 C415 1.400 . S
C417 C416 1.387 1_545 S
N418 Co409 2.022 . S
N418 C415 1.351 . S
N418 N419 1.365 . S
N419 C416 1.341 1_545 S
N419 N418 1.365 . S
N419 H439 0.862 . S
C420 C415 1.501 . S
C420 H421 0.961 . S
C420 H422 0.961 . S
C420 H423 0.960 . S
H421 C420 0.961 . S
H422 C420 0.961 . S
H423 C420 0.960 . S
C424 N425 1.342 . S
C424 C428 1.401 . S
C424 C429 1.499 . S
N425 Co408 1.989 1_565 S
N425 C424 1.342 . S
N425 N426 1.388 . S
N426 Co409 1.993 1_565 S
N426 N425 1.388 . S
N426 C427 1.346 . S
C427 N426 1.346 . S
C427 C428 1.396 . S
C427 C437 1.510 . S
C428 C424 1.401 . S
C428 C427 1.396 . S
C429 C424 1.499 . S
C429 H430 0.959 . S
C429 H431 0.960 . S
C429 H432 0.961 . S
H430 C429 0.959 . S
H431 C429 0.960 . S
H432 C429 0.961 . S
O433 Co408 1.967 . S
O433 C441 1.258 . S
O434 Co409 1.941 . S
O434 C441 1.266 . S
H435 C437 0.959 . S
H436 C437 0.961 . S
C437 C427 1.510 . S
C437 H435 0.959 . S
C437 H436 0.961 . S
C437 H438 0.960 . S
H438 C437 0.960 . S
H439 N419 0.862 . S
O440 Co408 1.920 . S
O440 C413 1.289 . S
C441 O433 1.258 . S
C441 O434 1.266 . S
Co442 O445 1.970 . S
Co442 N459 1.989 . S
Co442 O467 1.967 . S
Co442 O474 1.920 . S
Co443 O446 1.966 . S
Co443 N452 2.022 . S
Co443 N460 1.993 . S
Co443 O468 1.941 . S
C444 O445 1.258 . S
C444 O446 1.263 . S
O445 Co442 1.970 . S
O445 C444 1.258 . S
O446 Co443 1.966 . S
O446 C444 1.263 . S
C447 O448 1.235 . S
C447 O474 1.289 . S
O448 C447 1.235 . S
C449 C451 1.400 . S
C449 N452 1.351 . S
C449 C454 1.501 . S
C450 C451 1.387 . S
C450 N453 1.341 . S
C451 C449 1.400 . S
C451 C450 1.387 . S
N452 Co443 2.022 . S
N452 C449 1.351 . S
N452 N453 1.365 . S
N453 C450 1.341 . S
N453 N452 1.365 . S
N453 H473 0.862 . S
C454 C449 1.501 . S
C454 H455 0.961 . S
C454 H456 0.961 . S
C454 H457 0.960 . S
H455 C454 0.961 . S
H456 C454 0.961 . S
H457 C454 0.960 . S
C458 N459 1.342 . S
C458 C462 1.401 . S
C458 C463 1.499 . S
N459 Co442 1.989 . S
N459 C458 1.342 . S
N459 N460 1.388 . S
N460 Co443 1.993 . S
N460 N459 1.388 . S
N460 C461 1.346 . S
C461 N460 1.346 . S
C461 C462 1.396 . S
C461 C471 1.510 . S
C462 C458 1.401 . S
C462 C461 1.396 . S
C463 C458 1.499 . S
C463 H464 0.959 . S
C463 H465 0.960 . S
C463 H466 0.961 . S
H464 C463 0.959 . S
H465 C463 0.960 . S
H466 C463 0.961 . S
O467 Co442 1.967 . S
O467 C475 1.258 . S
O468 Co443 1.941 . S
O468 C475 1.266 . S
H469 C471 0.959 . S
H470 C471 0.961 . S
C471 C461 1.510 . S
C471 H469 0.959 . S
C471 H470 0.961 . S
C471 H472 0.960 . S
H472 C471 0.960 . S
H473 N453 0.862 . S
O474 Co442 1.920 . S
O474 C447 1.289 . S
C475 O467 1.258 . S
C475 O468 1.266 . S
Co476 O479 1.970 . S
Co476 N493 1.989 . S
Co476 O501 1.967 . S
Co476 O508 1.920 . S
Co477 O480 1.966 . S
Co477 N486 2.022 . S
Co477 N494 1.993 . S
Co477 O502 1.941 . S
C478 O479 1.258 . S
C478 O480 1.263 . S
O479 Co476 1.970 . S
O479 C478 1.258 . S
O480 Co477 1.966 . S
O480 C478 1.263 . S
C481 O482 1.235 . S
C481 O508 1.289 . S
O482 C481 1.235 . S
C483 C485 1.400 . S
C483 N486 1.351 . S
C483 C488 1.501 . S
C484 C485 1.387 . S
C484 N487 1.341 . S
C485 C483 1.400 . S
C485 C484 1.387 . S
N486 Co477 2.022 . S
N486 C483 1.351 . S
N486 N487 1.365 . S
N487 C484 1.341 . S
N487 N486 1.365 . S
N487 H507 0.862 . S
C488 C483 1.501 . S
C488 H489 0.961 . S
C488 H490 0.961 . S
C488 H491 0.960 . S
H489 C488 0.961 . S
H490 C488 0.961 . S
H491 C488 0.960 . S
C492 N493 1.342 . S
C492 C496 1.401 . S
C492 C497 1.499 . S
N493 Co476 1.989 . S
N493 C492 1.342 . S
N493 N494 1.388 . S
N494 Co477 1.993 . S
N494 N493 1.388 . S
N494 C495 1.346 . S
C495 N494 1.346 . S
C495 C496 1.396 . S
C495 C505 1.510 . S
C496 C492 1.401 . S
C496 C495 1.396 . S
C497 C492 1.499 . S
C497 H498 0.959 . S
C497 H499 0.960 . S
C497 H500 0.961 . S
H498 C497 0.959 . S
H499 C497 0.960 . S
H500 C497 0.961 . S
O501 Co476 1.967 . S
O501 C509 1.258 . S
O502 Co477 1.941 . S
O502 C509 1.266 . S
H503 C505 0.959 . S
H504 C505 0.961 . S
C505 C495 1.510 . S
C505 H503 0.959 . S
C505 H504 0.961 . S
C505 H506 0.960 . S
H506 C505 0.960 . S
H507 N487 0.862 . S
O508 Co476 1.920 . S
O508 C481 1.289 . S
C509 O501 1.258 . S
C509 O502 1.266 . S
Co510 O513 1.970 . S
Co510 N527 1.989 1_545 S
Co510 O535 1.967 . S
Co510 O542 1.920 . S
Co511 O514 1.966 . S
Co511 N520 2.022 . S
Co511 N528 1.993 1_545 S
Co511 O536 1.941 . S
C512 O513 1.258 . S
C512 O514 1.263 . S
O513 Co510 1.970 . S
O513 C512 1.258 . S
O514 Co511 1.966 . S
O514 C512 1.263 . S
C515 O516 1.235 . S
C515 O542 1.289 . S
O516 C515 1.235 . S
C517 C519 1.400 . S
C517 N520 1.351 . S
C517 C522 1.501 . S
C518 C519 1.387 1_565 S
C518 N521 1.341 1_565 S
C519 C517 1.400 . S
C519 C518 1.387 1_545 S
N520 Co511 2.022 . S
N520 C517 1.351 . S
N520 N521 1.365 . S
N521 C518 1.341 1_545 S
N521 N520 1.365 . S
N521 H541 0.862 . S
C522 C517 1.501 . S
C522 H523 0.961 . S
C522 H524 0.961 . S
C522 H525 0.960 . S
H523 C522 0.961 . S
H524 C522 0.961 . S
H525 C522 0.960 . S
C526 N527 1.342 . S
C526 C530 1.401 . S
C526 C531 1.499 . S
N527 Co510 1.989 1_565 S
N527 C526 1.342 . S
N527 N528 1.388 . S
N528 Co511 1.993 1_565 S
N528 N527 1.388 . S
N528 C529 1.346 . S
C529 N528 1.346 . S
C529 C530 1.396 . S
C529 C539 1.510 . S
C530 C526 1.401 . S
C530 C529 1.396 . S
C531 C526 1.499 . S
C531 H532 0.959 . S
C531 H533 0.960 . S
C531 H534 0.961 . S
H532 C531 0.959 . S
H533 C531 0.960 . S
H534 C531 0.961 . S
O535 Co510 1.967 . S
O535 C543 1.258 . S
O536 Co511 1.941 . S
O536 C543 1.266 . S
H537 C539 0.959 . S
H538 C539 0.961 . S
C539 C529 1.510 . S
C539 H537 0.959 . S
C539 H538 0.961 . S
C539 H540 0.960 . S
H540 C539 0.960 . S
H541 N521 0.862 . S
O542 Co510 1.920 . S
O542 C515 1.289 . S
C543 O535 1.258 . S
C543 O536 1.266 . S
Co544 O547 1.970 . S
Co544 N561 1.989 . S
Co544 O569 1.967 . S
Co544 O576 1.920 . S
Co545 O548 1.966 . S
Co545 N554 2.022 . S
Co545 N562 1.993 . S
Co545 O570 1.941 . S
C546 O547 1.258 . S
C546 O548 1.263 . S
O547 Co544 1.970 . S
O547 C546 1.258 . S
O548 Co545 1.966 . S
O548 C546 1.263 . S
C549 O550 1.235 . S
C549 O576 1.289 . S
O550 C549 1.235 . S
C551 C553 1.400 . S
C551 N554 1.351 . S
C551 C556 1.501 . S
C552 C553 1.387 . S
C552 N555 1.341 . S
C553 C551 1.400 . S
C553 C552 1.387 . S
N554 Co545 2.022 . S
N554 C551 1.351 . S
N554 N555 1.365 . S
N555 C552 1.341 . S
N555 N554 1.365 . S
N555 H575 0.862 . S
C556 C551 1.501 . S
C556 H557 0.961 . S
C556 H558 0.961 . S
C556 H559 0.960 . S
H557 C556 0.961 . S
H558 C556 0.961 . S
H559 C556 0.960 . S
C560 N561 1.342 . S
C560 C564 1.401 . S
C560 C565 1.499 . S
N561 Co544 1.989 . S
N561 C560 1.342 . S
N561 N562 1.388 . S
N562 Co545 1.993 . S
N562 N561 1.388 . S
N562 C563 1.346 . S
C563 N562 1.346 . S
C563 C564 1.396 . S
C563 C573 1.510 . S
C564 C560 1.401 . S
C564 C563 1.396 . S
C565 C560 1.499 . S
C565 H566 0.959 . S
C565 H567 0.960 . S
C565 H568 0.961 . S
H566 C565 0.959 . S
H567 C565 0.960 . S
H568 C565 0.961 . S
O569 Co544 1.967 . S
O569 C577 1.258 . S
O570 Co545 1.941 . S
O570 C577 1.266 . S
H571 C573 0.959 . S
H572 C573 0.961 . S
C573 C563 1.510 . S
C573 H571 0.959 . S
C573 H572 0.961 . S
C573 H574 0.960 . S
H574 C573 0.960 . S
H575 N555 0.862 . S
O576 Co544 1.920 . S
O576 C549 1.289 . S
C577 O569 1.258 . S
C577 O570 1.266 . S
Co578 O581 1.970 . S
Co578 N595 1.989 . S
Co578 O603 1.967 . S
Co578 O610 1.920 . S
Co579 O582 1.966 . S
Co579 N588 2.022 . S
Co579 N596 1.993 . S
Co579 O604 1.941 . S
C580 O581 1.258 . S
C580 O582 1.263 . S
O581 Co578 1.970 . S
O581 C580 1.258 . S
O582 Co579 1.966 . S
O582 C580 1.263 . S
C583 O584 1.235 . S
C583 O610 1.289 . S
O584 C583 1.235 . S
C585 C587 1.400 . S
C585 N588 1.351 . S
C585 C590 1.501 . S
C586 C587 1.387 . S
C586 N589 1.341 . S
C587 C585 1.400 . S
C587 C586 1.387 . S
N588 Co579 2.022 . S
N588 C585 1.351 . S
N588 N589 1.365 . S
N589 C586 1.341 . S
N589 N588 1.365 . S
N589 H609 0.862 . S
C590 C585 1.501 . S
C590 H591 0.961 . S
C590 H592 0.961 . S
C590 H593 0.960 . S
H591 C590 0.961 . S
H592 C590 0.961 . S
H593 C590 0.960 . S
C594 N595 1.342 . S
C594 C598 1.401 . S
C594 C599 1.499 . S
N595 Co578 1.989 . S
N595 C594 1.342 . S
N595 N596 1.388 . S
N596 Co579 1.993 . S
N596 N595 1.388 . S
N596 C597 1.346 . S
C597 N596 1.346 . S
C597 C598 1.396 . S
C597 C607 1.510 . S
C598 C594 1.401 . S
C598 C597 1.396 . S
C599 C594 1.499 . S
C599 H600 0.959 . S
C599 H601 0.960 . S
C599 H602 0.961 . S
H600 C599 0.959 . S
H601 C599 0.960 . S
H602 C599 0.961 . S
O603 Co578 1.967 . S
O603 C611 1.258 . S
O604 Co579 1.941 . S
O604 C611 1.266 . S
H605 C607 0.959 . S
H606 C607 0.961 . S
C607 C597 1.510 . S
C607 H605 0.959 . S
C607 H606 0.961 . S
C607 H608 0.960 . S
H608 C607 0.960 . S
H609 N589 0.862 . S
O610 Co578 1.920 . S
O610 C583 1.289 . S
C611 O603 1.258 . S
C611 O604 1.266 . S
Co612 O615 1.970 . S
Co612 N629 1.989 . S
Co612 O637 1.967 . S
Co612 O644 1.920 . S
Co613 O616 1.966 . S
Co613 N622 2.022 . S
Co613 N630 1.993 . S
Co613 O638 1.941 . S
C614 O615 1.258 . S
C614 O616 1.263 . S
O615 Co612 1.970 . S
O615 C614 1.258 . S
O616 Co613 1.966 . S
O616 C614 1.263 . S
C617 O618 1.235 . S
C617 O644 1.289 . S
O618 C617 1.235 . S
C619 C621 1.400 . S
C619 N622 1.351 . S
C619 C624 1.501 . S
C620 C621 1.387 . S
C620 N623 1.341 . S
C621 C619 1.400 . S
C621 C620 1.387 . S
N622 Co613 2.022 . S
N622 C619 1.351 . S
N622 N623 1.365 . S
N623 C620 1.341 . S
N623 N622 1.365 . S
N623 H643 0.862 . S
C624 C619 1.501 . S
C624 H625 0.961 . S
C624 H626 0.961 . S
C624 H627 0.960 . S
H625 C624 0.961 . S
H626 C624 0.961 . S
H627 C624 0.960 . S
C628 N629 1.342 . S
C628 C632 1.401 . S
C628 C633 1.499 . S
N629 Co612 1.989 . S
N629 C628 1.342 . S
N629 N630 1.388 . S
N630 Co613 1.993 . S
N630 N629 1.388 . S
N630 C631 1.346 . S
C631 N630 1.346 . S
C631 C632 1.396 . S
C631 C641 1.510 . S
C632 C628 1.401 . S
C632 C631 1.396 . S
C633 C628 1.499 . S
C633 H634 0.959 . S
C633 H635 0.960 . S
C633 H636 0.961 . S
H634 C633 0.959 . S
H635 C633 0.960 . S
H636 C633 0.961 . S
O637 Co612 1.967 . S
O637 C645 1.258 . S
O638 Co613 1.941 . S
O638 C645 1.266 . S
H639 C641 0.959 . S
H640 C641 0.961 . S
C641 C631 1.510 . S
C641 H639 0.959 . S
C641 H640 0.961 . S
C641 H642 0.960 . S
H642 C641 0.960 . S
H643 N623 0.862 . S
O644 Co612 1.920 . S
O644 C617 1.289 . S
C645 O637 1.258 . S
C645 O638 1.266 . S
Co646 O649 1.970 . S
Co646 N663 1.989 . S
Co646 O671 1.967 . S
Co646 O678 1.920 . S
Co647 O650 1.966 . S
Co647 N656 2.022 . S
Co647 N664 1.993 . S
Co647 O672 1.941 . S
C648 O649 1.258 . S
C648 O650 1.263 . S
O649 Co646 1.970 . S
O649 C648 1.258 . S
O650 Co647 1.966 . S
O650 C648 1.263 . S
C651 O652 1.235 . S
C651 O678 1.289 . S
O652 C651 1.235 . S
C653 C655 1.400 . S
C653 N656 1.351 . S
C653 C658 1.501 . S
C654 C655 1.387 . S
C654 N657 1.341 . S
C655 C653 1.400 . S
C655 C654 1.387 . S
N656 Co647 2.022 . S
N656 C653 1.351 . S
N656 N657 1.365 . S
N657 C654 1.341 . S
N657 N656 1.365 . S
N657 H677 0.862 . S
C658 C653 1.501 . S
C658 H659 0.961 . S
C658 H660 0.961 . S
C658 H661 0.960 . S
H659 C658 0.961 . S
H660 C658 0.961 . S
H661 C658 0.960 . S
C662 N663 1.342 . S
C662 C666 1.401 . S
C662 C667 1.499 . S
N663 Co646 1.989 . S
N663 C662 1.342 . S
N663 N664 1.388 . S
N664 Co647 1.993 . S
N664 N663 1.388 . S
N664 C665 1.346 . S
C665 N664 1.346 . S
C665 C666 1.396 . S
C665 C675 1.510 . S
C666 C662 1.401 . S
C666 C665 1.396 . S
C667 C662 1.499 . S
C667 H668 0.959 . S
C667 H669 0.960 . S
C667 H670 0.961 . S
H668 C667 0.959 . S
H669 C667 0.960 . S
H670 C667 0.961 . S
O671 Co646 1.967 . S
O671 C679 1.258 . S
O672 Co647 1.941 . S
O672 C679 1.266 . S
H673 C675 0.959 . S
H674 C675 0.961 . S
C675 C665 1.510 . S
C675 H673 0.959 . S
C675 H674 0.961 . S
C675 H676 0.960 . S
H676 C675 0.960 . S
H677 N657 0.862 . S
O678 Co646 1.920 . S
O678 C651 1.289 . S
C679 O671 1.258 . S
C679 O672 1.266 . S
Co680 O683 1.970 . S
Co680 N697 1.989 . S
Co680 O705 1.967 . S
Co680 O712 1.920 . S
Co681 O684 1.966 . S
Co681 N690 2.022 . S
Co681 N698 1.993 . S
Co681 O706 1.941 . S
C682 O683 1.258 . S
C682 O684 1.263 . S
O683 Co680 1.970 . S
O683 C682 1.258 . S
O684 Co681 1.966 . S
O684 C682 1.263 . S
C685 O686 1.235 . S
C685 O712 1.289 . S
O686 C685 1.235 . S
C687 C689 1.400 . S
C687 N690 1.351 . S
C687 C692 1.501 . S
C688 C689 1.387 . S
C688 N691 1.341 . S
C689 C687 1.400 . S
C689 C688 1.387 . S
N690 Co681 2.022 . S
N690 C687 1.351 . S
N690 N691 1.365 . S
N691 C688 1.341 . S
N691 N690 1.365 . S
N691 H711 0.862 . S
C692 C687 1.501 . S
C692 H693 0.961 . S
C692 H694 0.961 . S
C692 H695 0.960 . S
H693 C692 0.961 . S
H694 C692 0.961 . S
H695 C692 0.960 . S
C696 N697 1.342 . S
C696 C700 1.401 . S
C696 C701 1.499 . S
N697 Co680 1.989 . S
N697 C696 1.342 . S
N697 N698 1.388 . S
N698 Co681 1.993 . S
N698 N697 1.388 . S
N698 C699 1.346 . S
C699 N698 1.346 . S
C699 C700 1.396 . S
C699 C709 1.510 . S
C700 C696 1.401 . S
C700 C699 1.396 . S
C701 C696 1.499 . S
C701 H702 0.959 . S
C701 H703 0.960 . S
C701 H704 0.961 . S
H702 C701 0.959 . S
H703 C701 0.960 . S
H704 C701 0.961 . S
O705 Co680 1.967 . S
O705 C713 1.258 . S
O706 Co681 1.941 . S
O706 C713 1.266 . S
H707 C709 0.959 . S
H708 C709 0.961 . S
C709 C699 1.510 . S
C709 H707 0.959 . S
C709 H708 0.961 . S
C709 H710 0.960 . S
H710 C709 0.960 . S
H711 N691 0.862 . S
O712 Co680 1.920 . S
O712 C685 1.289 . S
C713 O705 1.258 . S
C713 O706 1.266 . S
Co714 O717 1.970 . S
Co714 N731 1.989 . S
Co714 O739 1.967 . S
Co714 O746 1.920 . S
Co715 O718 1.966 . S
Co715 N724 2.022 . S
Co715 N732 1.993 . S
Co715 O740 1.941 . S
C716 O717 1.258 . S
C716 O718 1.263 . S
O717 Co714 1.970 . S
O717 C716 1.258 . S
O718 Co715 1.966 . S
O718 C716 1.263 . S
C719 O720 1.235 . S
C719 O746 1.289 . S
O720 C719 1.235 . S
C721 C723 1.400 . S
C721 N724 1.351 . S
C721 C726 1.501 . S
C722 C723 1.387 . S
C722 N725 1.341 . S
C723 C721 1.400 . S
C723 C722 1.387 . S
N724 Co715 2.022 . S
N724 C721 1.351 . S
N724 N725 1.365 . S
N725 C722 1.341 . S
N725 N724 1.365 . S
N725 H745 0.862 . S
C726 C721 1.501 . S
C726 H727 0.961 . S
C726 H728 0.961 . S
C726 H729 0.960 . S
H727 C726 0.961 . S
H728 C726 0.961 . S
H729 C726 0.960 . S
C730 N731 1.342 . S
C730 C734 1.401 . S
C730 C735 1.499 . S
N731 Co714 1.989 . S
N731 C730 1.342 . S
N731 N732 1.388 . S
N732 Co715 1.993 . S
N732 N731 1.388 . S
N732 C733 1.346 . S
C733 N732 1.346 . S
C733 C734 1.396 . S
C733 C743 1.510 . S
C734 C730 1.401 . S
C734 C733 1.396 . S
C735 C730 1.499 . S
C735 H736 0.959 . S
C735 H737 0.960 . S
C735 H738 0.961 . S
H736 C735 0.959 . S
H737 C735 0.960 . S
H738 C735 0.961 . S
O739 Co714 1.967 . S
O739 C747 1.258 . S
O740 Co715 1.941 . S
O740 C747 1.266 . S
H741 C743 0.959 . S
H742 C743 0.961 . S
C743 C733 1.510 . S
C743 H741 0.959 . S
C743 H742 0.961 . S
C743 H744 0.960 . S
H744 C743 0.960 . S
H745 N725 0.862 . S
O746 Co714 1.920 . S
O746 C719 1.289 . S
C747 O739 1.258 . S
C747 O740 1.266 . S
Co748 O751 1.970 . S
Co748 N765 1.989 . S
Co748 O773 1.967 . S
Co748 O780 1.920 . S
Co749 O752 1.966 . S
Co749 N758 2.022 . S
Co749 N766 1.993 . S
Co749 O774 1.941 . S
C750 O751 1.258 . S
C750 O752 1.263 . S
O751 Co748 1.970 . S
O751 C750 1.258 . S
O752 Co749 1.966 . S
O752 C750 1.263 . S
C753 O754 1.235 . S
C753 O780 1.289 . S
O754 C753 1.235 . S
C755 C757 1.400 . S
C755 N758 1.351 . S
C755 C760 1.501 . S
C756 C757 1.387 . S
C756 N759 1.341 . S
C757 C755 1.400 . S
C757 C756 1.387 . S
N758 Co749 2.022 . S
N758 C755 1.351 . S
N758 N759 1.365 . S
N759 C756 1.341 . S
N759 N758 1.365 . S
N759 H779 0.862 . S
C760 C755 1.501 . S
C760 H761 0.961 . S
C760 H762 0.961 . S
C760 H763 0.960 . S
H761 C760 0.961 . S
H762 C760 0.961 . S
H763 C760 0.960 . S
C764 N765 1.342 . S
C764 C768 1.401 . S
C764 C769 1.499 . S
N765 Co748 1.989 . S
N765 C764 1.342 . S
N765 N766 1.388 . S
N766 Co749 1.993 . S
N766 N765 1.388 . S
N766 C767 1.346 . S
C767 N766 1.346 . S
C767 C768 1.396 . S
C767 C777 1.510 . S
C768 C764 1.401 . S
C768 C767 1.396 . S
C769 C764 1.499 . S
C769 H770 0.959 . S
C769 H771 0.960 . S
C769 H772 0.961 . S
H770 C769 0.959 . S
H771 C769 0.960 . S
H772 C769 0.961 . S
O773 Co748 1.967 . S
O773 C781 1.258 . S
O774 Co749 1.941 . S
O774 C781 1.266 . S
H775 C777 0.959 . S
H776 C777 0.961 . S
C777 C767 1.510 . S
C777 H775 0.959 . S
C777 H776 0.961 . S
C777 H778 0.960 . S
H778 C777 0.960 . S
H779 N759 0.862 . S
O780 Co748 1.920 . S
O780 C753 1.289 . S
C781 O773 1.258 . S
C781 O774 1.266 . S
Co782 O785 1.970 . S
Co782 N799 1.989 . S
Co782 O807 1.967 . S
Co782 O814 1.920 . S
Co783 O786 1.966 . S
Co783 N792 2.022 . S
Co783 N800 1.993 . S
Co783 O808 1.941 . S
C784 O785 1.258 . S
C784 O786 1.263 . S
O785 Co782 1.970 . S
O785 C784 1.258 . S
O786 Co783 1.966 . S
O786 C784 1.263 . S
C787 O788 1.235 . S
C787 O814 1.289 . S
O788 C787 1.235 . S
C789 C791 1.400 . S
C789 N792 1.351 . S
C789 C794 1.501 . S
C790 C791 1.387 . S
C790 N793 1.341 . S
C791 C789 1.400 . S
C791 C790 1.387 . S
N792 Co783 2.022 . S
N792 C789 1.351 . S
N792 N793 1.365 . S
N793 C790 1.341 . S
N793 N792 1.365 . S
N793 H813 0.862 . S
C794 C789 1.501 . S
C794 H795 0.961 . S
C794 H796 0.961 . S
C794 H797 0.960 . S
H795 C794 0.961 . S
H796 C794 0.961 . S
H797 C794 0.960 . S
C798 N799 1.342 . S
C798 C802 1.401 . S
C798 C803 1.499 . S
N799 Co782 1.989 . S
N799 C798 1.342 . S
N799 N800 1.388 . S
N800 Co783 1.993 . S
N800 N799 1.388 . S
N800 C801 1.346 . S
C801 N800 1.346 . S
C801 C802 1.396 . S
C801 C811 1.510 . S
C802 C798 1.401 . S
C802 C801 1.396 . S
C803 C798 1.499 . S
C803 H804 0.959 . S
C803 H805 0.960 . S
C803 H806 0.961 . S
H804 C803 0.959 . S
H805 C803 0.960 . S
H806 C803 0.961 . S
O807 Co782 1.967 . S
O807 C815 1.258 . S
O808 Co783 1.941 . S
O808 C815 1.266 . S
H809 C811 0.959 . S
H810 C811 0.961 . S
C811 C801 1.510 . S
C811 H809 0.959 . S
C811 H810 0.961 . S
C811 H812 0.960 . S
H812 C811 0.960 . S
H813 N793 0.862 . S
O814 Co782 1.920 . S
O814 C787 1.289 . S
C815 O807 1.258 . S
C815 O808 1.266 . S
Co816 O819 1.970 1_554 S
Co816 N833 1.989 1_565 S
Co816 O841 1.967 . S
Co816 O848 1.920 . S
Co817 O820 1.966 1_554 S
Co817 N826 2.022 . S
Co817 N834 1.993 1_565 S
Co817 O842 1.941 . S
C818 O819 1.258 . S
C818 O820 1.263 . S
O819 Co816 1.970 1_556 S
O819 C818 1.258 . S
O820 Co817 1.966 1_556 S
O820 C818 1.263 . S
C821 O822 1.235 1_554 S
C821 O848 1.289 . S
O822 C821 1.235 1_556 S
C823 C825 1.400 1_556 S
C823 N826 1.351 1_556 S
C823 C828 1.501 . S
C824 C825 1.387 1_545 S
C824 N827 1.341 1_545 S
C825 C823 1.400 1_554 S
C825 C824 1.387 1_565 S
N826 Co817 2.022 . S
N826 C823 1.351 1_554 S
N826 N827 1.365 . S
N827 C824 1.341 1_565 S
N827 N826 1.365 . S
N827 H847 0.862 . S
C828 C823 1.501 . S
C828 H829 0.961 . S
C828 H830 0.961 . S
C828 H831 0.960 . S
H829 C828 0.961 . S
H830 C828 0.961 . S
H831 C828 0.960 . S
C832 N833 1.342 . S
C832 C836 1.401 . S
C832 C837 1.499 . S
N833 Co816 1.989 1_545 S
N833 C832 1.342 . S
N833 N834 1.388 . S
N834 Co817 1.993 1_545 S
N834 N833 1.388 . S
N834 C835 1.346 . S
C835 N834 1.346 . S
C835 C836 1.396 . S
C835 C845 1.510 . S
C836 C832 1.401 . S
C836 C835 1.396 . S
C837 C832 1.499 . S
C837 H838 0.959 . S
C837 H839 0.960 . S
C837 H840 0.961 . S
H838 C837 0.959 . S
H839 C837 0.960 . S
H840 C837 0.961 . S
O841 Co816 1.967 . S
O841 C849 1.258 . S
O842 Co817 1.941 . S
O842 C849 1.266 . S
H843 C845 0.959 . S
H844 C845 0.961 . S
C845 C835 1.510 . S
C845 H843 0.959 . S
C845 H844 0.961 . S
C845 H846 0.960 . S
H846 C845 0.960 . S
H847 N827 0.862 . S
O848 Co816 1.920 . S
O848 C821 1.289 . S
C849 O841 1.258 . S
C849 O842 1.266 . S
Co850 O853 1.970 1_554 S
Co850 N867 1.989 . S
Co850 O875 1.967 . S
Co850 O882 1.920 . S
Co851 O854 1.966 1_554 S
Co851 N860 2.022 . S
Co851 N868 1.993 . S
Co851 O876 1.941 . S
C852 O853 1.258 . S
C852 O854 1.263 . S
O853 Co850 1.970 1_556 S
O853 C852 1.258 . S
O854 Co851 1.966 1_556 S
O854 C852 1.263 . S
C855 O856 1.235 1_554 S
C855 O882 1.289 . S
O856 C855 1.235 1_556 S
C857 C859 1.400 1_556 S
C857 N860 1.351 1_556 S
C857 C862 1.501 . S
C858 C859 1.387 . S
C858 N861 1.341 . S
C859 C857 1.400 1_554 S
C859 C858 1.387 . S
N860 Co851 2.022 . S
N860 C857 1.351 1_554 S
N860 N861 1.365 . S
N861 C858 1.341 . S
N861 N860 1.365 . S
N861 H881 0.862 . S
C862 C857 1.501 . S
C862 H863 0.961 . S
C862 H864 0.961 . S
C862 H865 0.960 . S
H863 C862 0.961 . S
H864 C862 0.961 . S
H865 C862 0.960 . S
C866 N867 1.342 . S
C866 C870 1.401 . S
C866 C871 1.499 . S
N867 Co850 1.989 . S
N867 C866 1.342 . S
N867 N868 1.388 . S
N868 Co851 1.993 . S
N868 N867 1.388 . S
N868 C869 1.346 . S
C869 N868 1.346 . S
C869 C870 1.396 . S
C869 C879 1.510 . S
C870 C866 1.401 . S
C870 C869 1.396 . S
C871 C866 1.499 . S
C871 H872 0.959 . S
C871 H873 0.960 . S
C871 H874 0.961 . S
H872 C871 0.959 . S
H873 C871 0.960 . S
H874 C871 0.961 . S
O875 Co850 1.967 . S
O875 C883 1.258 . S
O876 Co851 1.941 . S
O876 C883 1.266 . S
H877 C879 0.959 . S
H878 C879 0.961 . S
C879 C869 1.510 . S
C879 H877 0.959 . S
C879 H878 0.961 . S
C879 H880 0.960 . S
H880 C879 0.960 . S
H881 N861 0.862 . S
O882 Co850 1.920 . S
O882 C855 1.289 . S
C883 O875 1.258 . S
C883 O876 1.266 . S
Co884 O887 1.970 . S
Co884 N901 1.989 . S
Co884 O909 1.967 1_554 S
Co884 O916 1.920 . S
Co885 O888 1.966 . S
Co885 N894 2.022 . S
Co885 N902 1.993 . S
Co885 O910 1.941 1_554 S
C886 O887 1.258 . S
C886 O888 1.263 . S
O887 Co884 1.970 . S
O887 C886 1.258 . S
O888 Co885 1.966 . S
O888 C886 1.263 . S
C889 O890 1.235 . S
C889 O916 1.289 . S
O890 C889 1.235 . S
C891 C893 1.400 . S
C891 N894 1.351 . S
C891 C896 1.501 . S
C892 C893 1.387 . S
C892 N895 1.341 . S
C893 C891 1.400 . S
C893 C892 1.387 . S
N894 Co885 2.022 . S
N894 C891 1.351 . S
N894 N895 1.365 . S
N895 C892 1.341 . S
N895 N894 1.365 . S
N895 H915 0.862 1_554 S
C896 C891 1.501 . S
C896 H897 0.961 . S
C896 H898 0.961 . S
C896 H899 0.960 . S
H897 C896 0.961 . S
H898 C896 0.961 . S
H899 C896 0.960 . S
C900 N901 1.342 . S
C900 C904 1.401 . S
C900 C905 1.499 . S
N901 Co884 1.989 . S
N901 C900 1.342 . S
N901 N902 1.388 . S
N902 Co885 1.993 . S
N902 N901 1.388 . S
N902 C903 1.346 . S
C903 N902 1.346 . S
C903 C904 1.396 . S
C903 C913 1.510 . S
C904 C900 1.401 . S
C904 C903 1.396 . S
C905 C900 1.499 . S
C905 H906 0.959 . S
C905 H907 0.960 . S
C905 H908 0.961 1_554 S
H906 C905 0.959 . S
H907 C905 0.960 . S
H908 C905 0.961 1_556 S
O909 Co884 1.967 1_556 S
O909 C917 1.258 . S
O910 Co885 1.941 1_556 S
O910 C917 1.266 . S
H911 C913 0.959 . S
H912 C913 0.961 . S
C913 C903 1.510 . S
C913 H911 0.959 . S
C913 H912 0.961 . S
C913 H914 0.960 . S
H914 C913 0.960 . S
H915 N895 0.862 1_556 S
O916 Co884 1.920 . S
O916 C889 1.289 . S
C917 O909 1.258 . S
C917 O910 1.266 . S
Co918 O921 1.970 . S
Co918 N935 1.989 1_565 S
Co918 O943 1.967 1_554 S
Co918 O950 1.920 . S
Co919 O922 1.966 . S
Co919 N928 2.022 . S
Co919 N936 1.993 1_565 S
Co919 O944 1.941 1_554 S
C920 O921 1.258 . S
C920 O922 1.263 . S
O921 Co918 1.970 . S
O921 C920 1.258 . S
O922 Co919 1.966 . S
O922 C920 1.263 . S
C923 O924 1.235 . S
C923 O950 1.289 . S
O924 C923 1.235 . S
C925 C927 1.400 . S
C925 N928 1.351 . S
C925 C930 1.501 . S
C926 C927 1.387 1_545 S
C926 N929 1.341 1_545 S
C927 C925 1.400 . S
C927 C926 1.387 1_565 S
N928 Co919 2.022 . S
N928 C925 1.351 . S
N928 N929 1.365 . S
N929 C926 1.341 1_565 S
N929 N928 1.365 . S
N929 H949 0.862 1_554 S
C930 C925 1.501 . S
C930 H931 0.961 . S
C930 H932 0.961 . S
C930 H933 0.960 . S
H931 C930 0.961 . S
H932 C930 0.961 . S
H933 C930 0.960 . S
C934 N935 1.342 . S
C934 C938 1.401 . S
C934 C939 1.499 . S
N935 Co918 1.989 1_545 S
N935 C934 1.342 . S
N935 N936 1.388 . S
N936 Co919 1.993 1_545 S
N936 N935 1.388 . S
N936 C937 1.346 . S
C937 N936 1.346 . S
C937 C938 1.396 . S
C937 C947 1.510 . S
C938 C934 1.401 . S
C938 C937 1.396 . S
C939 C934 1.499 . S
C939 H940 0.959 . S
C939 H941 0.960 . S
C939 H942 0.961 1_554 S
H940 C939 0.959 . S
H941 C939 0.960 . S
H942 C939 0.961 1_556 S
O943 Co918 1.967 1_556 S
O943 C951 1.258 . S
O944 Co919 1.941 1_556 S
O944 C951 1.266 . S
H945 C947 0.959 . S
H946 C947 0.961 . S
C947 C937 1.510 . S
C947 H945 0.959 . S
C947 H946 0.961 . S
C947 H948 0.960 . S
H948 C947 0.960 . S
H949 N929 0.862 1_556 S
O950 Co918 1.920 . S
O950 C923 1.289 . S
C951 O943 1.258 . S
C951 O944 1.266 . S
Co952 O955 1.970 1_556 S
Co952 N969 1.989 1_545 S
Co952 O977 1.967 . S
Co952 O984 1.920 . S
Co953 O956 1.966 1_556 S
Co953 N962 2.022 . S
Co953 N970 1.993 1_545 S
Co953 O978 1.941 . S
C954 O955 1.258 . S
C954 O956 1.263 . S
O955 Co952 1.970 1_554 S
O955 C954 1.258 . S
O956 Co953 1.966 1_554 S
O956 C954 1.263 . S
C957 O958 1.235 1_556 S
C957 O984 1.289 . S
O958 C957 1.235 1_554 S
C959 C961 1.400 1_554 S
C959 N962 1.351 1_554 S
C959 C964 1.501 . S
C960 C961 1.387 1_565 S
C960 N963 1.341 1_565 S
C961 C959 1.400 1_556 S
C961 C960 1.387 1_545 S
N962 Co953 2.022 . S
N962 C959 1.351 1_556 S
N962 N963 1.365 . S
N963 C960 1.341 1_545 S
N963 N962 1.365 . S
N963 H983 0.862 . S
C964 C959 1.501 . S
C964 H965 0.961 . S
C964 H966 0.961 . S
C964 H967 0.960 . S
H965 C964 0.961 . S
H966 C964 0.961 . S
H967 C964 0.960 . S
C968 N969 1.342 . S
C968 C972 1.401 . S
C968 C973 1.499 . S
N969 Co952 1.989 1_565 S
N969 C968 1.342 . S
N969 N970 1.388 . S
N970 Co953 1.993 1_565 S
N970 N969 1.388 . S
N970 C971 1.346 . S
C971 N970 1.346 . S
C971 C972 1.396 . S
C971 C981 1.510 . S
C972 C968 1.401 . S
C972 C971 1.396 . S
C973 C968 1.499 . S
C973 H974 0.959 . S
C973 H975 0.960 . S
C973 H976 0.961 . S
H974 C973 0.959 . S
H975 C973 0.960 . S
H976 C973 0.961 . S
O977 Co952 1.967 . S
O977 C985 1.258 . S
O978 Co953 1.941 . S
O978 C985 1.266 . S
H979 C981 0.959 . S
H980 C981 0.961 . S
C981 C971 1.510 . S
C981 H979 0.959 . S
C981 H980 0.961 . S
C981 H982 0.960 . S
H982 C981 0.960 . S
H983 N963 0.862 . S
O984 Co952 1.920 . S
O984 C957 1.289 . S
C985 O977 1.258 . S
C985 O978 1.266 . S
Co986 O989 1.970 1_556 S
Co986 N1003 1.989 . S
Co986 O1011 1.967 . S
Co986 O1018 1.920 . S
Co987 O990 1.966 1_556 S
Co987 N996 2.022 . S
Co987 N1004 1.993 . S
Co987 O1012 1.941 . S
C988 O989 1.258 . S
C988 O990 1.263 . S
O989 Co986 1.970 1_554 S
O989 C988 1.258 . S
O990 Co987 1.966 1_554 S
O990 C988 1.263 . S
C991 O992 1.235 1_556 S
C991 O1018 1.289 . S
O992 C991 1.235 1_554 S
C993 C995 1.400 1_554 S
C993 N996 1.351 1_554 S
C993 C998 1.501 . S
C994 C995 1.387 . S
C994 N997 1.341 . S
C995 C993 1.400 1_556 S
C995 C994 1.387 . S
N996 Co987 2.022 . S
N996 C993 1.351 1_556 S
N996 N997 1.365 . S
N997 C994 1.341 . S
N997 N996 1.365 . S
N997 H1017 0.862 . S
C998 C993 1.501 . S
C998 H999 0.961 . S
C998 H1000 0.961 . S
C998 H1001 0.960 . S
H999 C998 0.961 . S
H1000 C998 0.961 . S
H1001 C998 0.960 . S
C1002 N1003 1.342 . S
C1002 C1006 1.401 . S
C1002 C1007 1.499 . S
N1003 Co986 1.989 . S
N1003 C1002 1.342 . S
N1003 N1004 1.388 . S
N1004 Co987 1.993 . S
N1004 N1003 1.388 . S
N1004 C1005 1.346 . S
C1005 N1004 1.346 . S
C1005 C1006 1.396 . S
C1005 C1015 1.510 . S
C1006 C1002 1.401 . S
C1006 C1005 1.396 . S
C1007 C1002 1.499 . S
C1007 H1008 0.959 . S
C1007 H1009 0.960 . S
C1007 H1010 0.961 . S
H1008 C1007 0.959 . S
H1009 C1007 0.960 . S
H1010 C1007 0.961 . S
O1011 Co986 1.967 . S
O1011 C1019 1.258 . S
O1012 Co987 1.941 . S
O1012 C1019 1.266 . S
H1013 C1015 0.959 . S
H1014 C1015 0.961 . S
C1015 C1005 1.510 . S
C1015 H1013 0.959 . S
C1015 H1014 0.961 . S
C1015 H1016 0.960 . S
H1016 C1015 0.960 . S
H1017 N997 0.862 . S
O1018 Co986 1.920 . S
O1018 C991 1.289 . S
C1019 O1011 1.258 . S
C1019 O1012 1.266 . S
Co1020 O1023 1.970 . S
Co1020 N1037 1.989 . S
Co1020 O1045 1.967 1_556 S
Co1020 O1052 1.920 . S
Co1021 O1024 1.966 . S
Co1021 N1030 2.022 . S
Co1021 N1038 1.993 . S
Co1021 O1046 1.941 1_556 S
C1022 O1023 1.258 . S
C1022 O1024 1.263 . S
O1023 Co1020 1.970 . S
O1023 C1022 1.258 . S
O1024 Co1021 1.966 . S
O1024 C1022 1.263 . S
C1025 O1026 1.235 . S
C1025 O1052 1.289 . S
O1026 C1025 1.235 . S
C1027 C1029 1.400 . S
C1027 N1030 1.351 . S
C1027 C1032 1.501 . S
C1028 C1029 1.387 . S
C1028 N1031 1.341 . S
C1029 C1027 1.400 . S
C1029 C1028 1.387 . S
N1030 Co1021 2.022 . S
N1030 C1027 1.351 . S
N1030 N1031 1.365 . S
N1031 C1028 1.341 . S
N1031 N1030 1.365 . S
N1031 H1051 0.862 1_556 S
C1032 C1027 1.501 . S
C1032 H1033 0.961 . S
C1032 H1034 0.961 . S
C1032 H1035 0.960 . S
H1033 C1032 0.961 . S
H1034 C1032 0.961 . S
H1035 C1032 0.960 . S
C1036 N1037 1.342 . S
C1036 C1040 1.401 . S
C1036 C1041 1.499 . S
N1037 Co1020 1.989 . S
N1037 C1036 1.342 . S
N1037 N1038 1.388 . S
N1038 Co1021 1.993 . S
N1038 N1037 1.388 . S
N1038 C1039 1.346 . S
C1039 N1038 1.346 . S
C1039 C1040 1.396 . S
C1039 C1049 1.510 . S
C1040 C1036 1.401 . S
C1040 C1039 1.396 . S
C1041 C1036 1.499 . S
C1041 H1042 0.959 . S
C1041 H1043 0.960 . S
C1041 H1044 0.961 1_556 S
H1042 C1041 0.959 . S
H1043 C1041 0.960 . S
H1044 C1041 0.961 1_554 S
O1045 Co1020 1.967 1_554 S
O1045 C1053 1.258 . S
O1046 Co1021 1.941 1_554 S
O1046 C1053 1.266 . S
H1047 C1049 0.959 . S
H1048 C1049 0.961 . S
C1049 C1039 1.510 . S
C1049 H1047 0.959 . S
C1049 H1048 0.961 . S
C1049 H1050 0.960 . S
H1050 C1049 0.960 . S
H1051 N1031 0.862 1_554 S
O1052 Co1020 1.920 . S
O1052 C1025 1.289 . S
C1053 O1045 1.258 . S
C1053 O1046 1.266 . S
Co1054 O1057 1.970 . S
Co1054 N1071 1.989 1_545 S
Co1054 O1079 1.967 1_556 S
Co1054 O1086 1.920 . S
Co1055 O1058 1.966 . S
Co1055 N1064 2.022 . S
Co1055 N1072 1.993 1_545 S
Co1055 O1080 1.941 1_556 S
C1056 O1057 1.258 . S
C1056 O1058 1.263 . S
O1057 Co1054 1.970 . S
O1057 C1056 1.258 . S
O1058 Co1055 1.966 . S
O1058 C1056 1.263 . S
C1059 O1060 1.235 . S
C1059 O1086 1.289 . S
O1060 C1059 1.235 . S
C1061 C1063 1.400 . S
C1061 N1064 1.351 . S
C1061 C1066 1.501 . S
C1062 C1063 1.387 1_565 S
C1062 N1065 1.341 1_565 S
C1063 C1061 1.400 . S
C1063 C1062 1.387 1_545 S
N1064 Co1055 2.022 . S
N1064 C1061 1.351 . S
N1064 N1065 1.365 . S
N1065 C1062 1.341 1_545 S
N1065 N1064 1.365 . S
N1065 H1085 0.862 1_556 S
C1066 C1061 1.501 . S
C1066 H1067 0.961 . S
C1066 H1068 0.961 . S
C1066 H1069 0.960 . S
H1067 C1066 0.961 . S
H1068 C1066 0.961 . S
H1069 C1066 0.960 . S
C1070 N1071 1.342 . S
C1070 C1074 1.401 . S
C1070 C1075 1.499 . S
N1071 Co1054 1.989 1_565 S
N1071 C1070 1.342 . S
N1071 N1072 1.388 . S
N1072 Co1055 1.993 1_565 S
N1072 N1071 1.388 . S
N1072 C1073 1.346 . S
C1073 N1072 1.346 . S
C1073 C1074 1.396 . S
C1073 C1083 1.510 . S
C1074 C1070 1.401 . S
C1074 C1073 1.396 . S
C1075 C1070 1.499 . S
C1075 H1076 0.959 . S
C1075 H1077 0.960 . S
C1075 H1078 0.961 1_556 S
H1076 C1075 0.959 . S
H1077 C1075 0.960 . S
H1078 C1075 0.961 1_554 S
O1079 Co1054 1.967 1_554 S
O1079 C1087 1.258 . S
O1080 Co1055 1.941 1_554 S
O1080 C1087 1.266 . S
H1081 C1083 0.959 . S
H1082 C1083 0.961 . S
C1083 C1073 1.510 . S
C1083 H1081 0.959 . S
C1083 H1082 0.961 . S
C1083 H1084 0.960 . S
H1084 C1083 0.960 . S
H1085 N1065 0.862 1_554 S
O1086 Co1054 1.920 . S
O1086 C1059 1.289 . S
C1087 O1079 1.258 . S
C1087 O1080 1.266 . S
C20 C88 1.444 . S
C122 C54 1.444 . S
C156 C224 1.444 . S
C258 C190 1.444 . S
C292 C360 1.444 . S
C394 C326 1.444 . S
C428 C496 1.444 . S
C530 C462 1.444 . S
C632 C564 1.444 . S
C666 C598 1.444 . S
C700 C768 1.444 . S
C734 C802 1.444 . S
C904 C836 1.444 . S
C938 C870 1.444 . S
C972 C1040 1.444 . S
C1006 C1074 1.444 . S
C9 C145 1.304 1_454 S
C43 C995 1.304 1_554 S
C485 C77 1.302 1_655 S
C791 C111 1.303 . S
C179 C859 1.304 1_556 S
C349 C213 1.303 1_455 S
C247 C655 1.303 . S
C281 C417 1.303 1_465 S
C315 C723 1.303 . S
C1063 C383 1.303 1_545 S
C587 C451 1.303 . S
C519 C927 1.303 1_545 S
C553 C689 1.303 . S
C621 C1029 1.302 . S
C757 C893 1.302 . S
C961 C825 1.304 1_546 S
C33 C373 1.636 . S
C67 C407 1.636 . S
C101 C305 1.636 . S
C339 C135 1.637 . S
C169 C509 1.636 . S
C203 C543 1.636 . S
C237 C441 1.636 . S
C475 C271 1.637 . S
C917 C577 1.636 . S
C611 C951 1.637 . S
C645 C849 1.636 . S
C883 C679 1.636 . S
C713 C1053 1.636 . S
C1087 C747 1.637 . S
C985 C781 1.636 . S
C815 C1019 1.636 . S
C342 C2 1.510 . S
C36 C376 1.511 . S
C274 C70 1.510 . S
C308 C104 1.511 . S
C138 C478 1.510 . S
C172 C512 1.511 . S
C410 C206 1.510 . S
C240 C444 1.511 . S
C546 C886 1.510 . S
C920 C580 1.511 . S
C818 C614 1.510 . S
C648 C852 1.511 . S
C682 C1022 1.510 . S
C716 C1056 1.511 . S
C750 C954 1.510 . S
C784 C988 1.511 . S
C107 C5 1.841 . S
C73 C39 1.841 . S
C141 C243 1.841 . S
C209 C175 1.841 . S
C379 C277 1.842 . S
C345 C311 1.842 . S
C515 C413 1.842 . S
C447 C481 1.842 . S
C651 C549 1.842 . S
C617 C583 1.842 . S
C685 C787 1.842 . S
C753 C719 1.842 . S
C923 C821 1.841 . S
C889 C855 1.841 . S
C1059 C957 1.841 . S
C1025 C991 1.841 . S
