# Generated by pormake.
# Topology fnw, (5)-cn, num edge types: 1
# Building blocks:
#     Node 0, Type 0, BuildingBlock: XOMCOT_clean_sbu_1, # of connection points: 5
#     Node 1, Type 0, BuildingBlock: XOMCOT_clean_sbu_1, # of connection points: 5
#     Node 2, Type 0, BuildingBlock: XOMCOT_clean_sbu_1, # of connection points: 5
#     Node 3, Type 0, BuildingBlock: XOMCOT_clean_sbu_1, # of connection points: 5
#     Node 4, Type 0, BuildingBlock: XOMCOT_clean_sbu_1, # of connection points: 5
#     Node 5, Type 0, BuildingBlock: XOMCOT_clean_sbu_1, # of connection points: 5
#     Node 6, Type 0, BuildingBlock: XOMCOT_clean_sbu_1, # of connection points: 5
#     Node 7, Type 0, BuildingBlock: XOMCOT_clean_sbu_1, # of connection points: 5
#     Node 8, Type 0, BuildingBlock: XOMCOT_clean_sbu_1, # of connection points: 5
#     Node 9, Type 0, BuildingBlock: XOMCOT_clean_sbu_1, # of connection points: 5
#     Node 10, Type 0, BuildingBlock: XOMCOT_clean_sbu_1, # of connection points: 5
#     Node 11, Type 0, BuildingBlock: XOMCOT_clean_sbu_1, # of connection points: 5
#     Edge 12, Type (0, 0), BuildingBlock: XIVTED_clean_linker_0, # of connection points: 2
#     Edge 13, Type (0, 0), BuildingBlock: XIVTED_clean_linker_0, # of connection points: 2
#     Edge 14, Type (0, 0), BuildingBlock: XIVTED_clean_linker_0, # of connection points: 2
#     Edge 15, Type (0, 0), BuildingBlock: XIVTED_clean_linker_0, # of connection points: 2
#     Edge 16, Type (0, 0), BuildingBlock: XIVTED_clean_linker_0, # of connection points: 2
#     Edge 17, Type (0, 0), BuildingBlock: XIVTED_clean_linker_0, # of connection points: 2
#     Edge 18, Type (0, 0), BuildingBlock: XIVTED_clean_linker_0, # of connection points: 2
#     Edge 19, Type (0, 0), BuildingBlock: XIVTED_clean_linker_0, # of connection points: 2
#     Edge 20, Type (0, 0), BuildingBlock: XIVTED_clean_linker_0, # of connection points: 2
#     Edge 21, Type (0, 0), BuildingBlock: XIVTED_clean_linker_0, # of connection points: 2
#     Edge 22, Type (0, 0), BuildingBlock: XIVTED_clean_linker_0, # of connection points: 2
#     Edge 23, Type (0, 0), BuildingBlock: XIVTED_clean_linker_0, # of connection points: 2
#     Edge 24, Type (0, 0), BuildingBlock: XIVTED_clean_linker_0, # of connection points: 2
#     Edge 25, Type (0, 0), BuildingBlock: XIVTED_clean_linker_0, # of connection points: 2
#     Edge 26, Type (0, 0), BuildingBlock: XIVTED_clean_linker_0, # of connection points: 2
#     Edge 27, Type (0, 0), BuildingBlock: XIVTED_clean_linker_0, # of connection points: 2
#     Edge 28, Type (0, 0), BuildingBlock: XIVTED_clean_linker_0, # of connection points: 2
#     Edge 29, Type (0, 0), BuildingBlock: XIVTED_clean_linker_0, # of connection points: 2
#     Edge 30, Type (0, 0), BuildingBlock: XIVTED_clean_linker_0, # of connection points: 2
#     Edge 31, Type (0, 0), BuildingBlock: XIVTED_clean_linker_0, # of connection points: 2
#     Edge 32, Type (0, 0), BuildingBlock: XIVTED_clean_linker_0, # of connection points: 2
#     Edge 33, Type (0, 0), BuildingBlock: XIVTED_clean_linker_0, # of connection points: 2
#     Edge 34, Type (0, 0), BuildingBlock: XIVTED_clean_linker_0, # of connection points: 2
#     Edge 35, Type (0, 0), BuildingBlock: XIVTED_clean_linker_0, # of connection points: 2
#     Edge 36, Type (0, 0), BuildingBlock: XIVTED_clean_linker_0, # of connection points: 2
#     Edge 37, Type (0, 0), BuildingBlock: XIVTED_clean_linker_0, # of connection points: 2
#     Edge 38, Type (0, 0), BuildingBlock: XIVTED_clean_linker_0, # of connection points: 2
#     Edge 39, Type (0, 0), BuildingBlock: XIVTED_clean_linker_0, # of connection points: 2
#     Edge 40, Type (0, 0), BuildingBlock: XIVTED_clean_linker_0, # of connection points: 2
#     Edge 41, Type (0, 0), BuildingBlock: XIVTED_clean_linker_0, # of connection points: 2
# Relax obj value: 0.361
# Max RMSD: 0.162
# Mean RMSD: 0.162
data_MOF--net-fnw--node1-XOMCOT_clean_sbu_1--edge1-XIVTED_clean_linker_0
_symmetry_space_group_name_H-M    P1
_symmetry_Int_Tables_number       1
_symmetry_cell_setting            triclinic
loop_
_symmetry_equiv_pos_as_xyz
'x, y, z'
_cell_length_a     53.601923
_cell_length_b     53.439869
_cell_length_c     27.274644
_cell_angle_alpha  89.983596
_cell_angle_beta   89.966589
_cell_angle_gamma 119.90894
loop_
_atom_site_label
_atom_site_type_symbol
_atom_site_fract_x
_atom_site_fract_y
_atom_site_fract_z
_atom_type_partial_charge
C0 C 0.26428 0.48937 0.16864 0.0
C1 C 0.26516 0.51547 0.17252 0.0
N2 N 0.25376 0.51624 0.21612 0.0
N3 N 0.25231 0.47375 0.20957 0.0
C4 C 0.24594 0.49066 0.23757 0.0
H5 H 0.27367 0.48316 0.13938 0.0
Co6 Co 0.25338 0.44088 0.22847 0.0
C7 C 0.20418 0.41499 0.30013 0.0
O8 O 0.19049 0.39062 0.27571 0.0
N9 N 0.25547 0.40841 0.24793 0.0
C10 C 0.26042 0.37681 0.29398 0.0
C11 C 0.25222 0.39736 0.2936 0.0
C12 C 0.26636 0.39466 0.22163 0.0
N13 N 0.26956 0.37529 0.24872 0.0
O14 O 0.22171 0.41805 0.18437 0.0
H15 H 0.24674 0.40534 0.32582 0.0
H16 H 0.27369 0.40007 0.18426 0.0
O17 O 0.22784 0.43541 0.28343 0.0
C18 C 0.23162 0.41769 0.14183 0.0
O19 O 0.25964 0.42978 0.13671 0.0
N20 N 0.28581 0.46424 0.26605 0.0
C21 C 0.33554 0.51409 0.29387 0.0
C22 C 0.31111 0.50221 0.32416 0.0
C23 C 0.28635 0.47698 0.30973 0.0
C24 C 0.31026 0.47359 0.23915 0.0
C25 C 0.33552 0.49852 0.25249 0.0
H26 H 0.26718 0.46953 0.33155 0.0
H27 H 0.30931 0.46333 0.20447 0.0
H28 H 0.23808 0.48553 0.27478 0.0
H29 H 0.2746 0.53298 0.14626 0.0
H30 H 0.26208 0.36585 0.32614 0.0
H31 H 0.31049 0.51345 0.35677 0.0
H32 H 0.35384 0.50701 0.22796 0.0
C33 C 0.79166 0.30734 0.74618 0.0
C34 C 0.76489 0.30456 0.74043 0.0
N35 N 0.74516 0.27859 0.75816 0.0
N36 N 0.78872 0.28339 0.76808 0.0
C37 C 0.76012 0.26608 0.77422 0.0
H38 H 0.81206 0.32604 0.73679 0.0
Co39 Co 0.81847 0.27801 0.79001 0.0
C40 C 0.78706 0.22686 0.85334 0.0
O41 O 0.79421 0.2117 0.82463 0.0
N42 N 0.84832 0.27271 0.81201 0.0
C43 C 0.87943 0.26748 0.85844 0.0
C44 C 0.85461 0.26905 0.85845 0.0
C45 C 0.86967 0.27365 0.78466 0.0
N46 N 0.88892 0.27044 0.81186 0.0
O47 O 0.80687 0.24722 0.7436 0.0
H48 H 0.84249 0.26852 0.89053 0.0
H49 H 0.87198 0.27836 0.74589 0.0
O50 O 0.79433 0.25271 0.84173 0.0
C51 C 0.81761 0.25841 0.702 0.0
O52 O 0.83462 0.28655 0.69966 0.0
N53 N 0.83075 0.30995 0.83081 0.0
C54 C 0.84021 0.36482 0.85092 0.0
C55 C 0.81685 0.34052 0.8723 0.0
C56 C 0.81242 0.31308 0.86163 0.0
C57 C 0.85571 0.33335 0.81576 0.0
C58 C 0.86103 0.36117 0.82584 0.0
H59 H 0.79215 0.29466 0.87206 0.0
H60 H 0.86973 0.33054 0.79061 0.0
H61 H 0.7505 0.24526 0.79215 0.0
H62 H 0.76031 0.32053 0.72511 0.0
H63 H 0.89008 0.26531 0.89049 0.0
H64 H 0.80009 0.34223 0.89155 0.0
H65 H 0.87961 0.37941 0.80943 0.0
C66 C 0.49958 0.76852 0.24115 0.0
C67 C 0.47705 0.74124 0.23191 0.0
N68 N 0.48029 0.72244 0.26039 0.0
N69 N 0.51674 0.76689 0.27555 0.0
C70 C 0.50469 0.7385 0.28603 0.0
H71 H 0.50249 0.78846 0.22577 0.0
Co72 Co 0.54672 0.79859 0.30609 0.0
C73 C 0.56793 0.77159 0.37585 0.0
O74 O 0.59227 0.78284 0.35137 0.0
N75 N 0.57673 0.83071 0.33716 0.0
C76 C 0.60091 0.86288 0.39537 0.0
C77 C 0.5804 0.83485 0.38612 0.0
C78 C 0.59518 0.85667 0.31751 0.0
N79 N 0.60991 0.87669 0.35218 0.0
O80 O 0.57336 0.79309 0.26664 0.0
H81 H 0.56729 0.8193 0.41372 0.0
H82 H 0.59563 0.86166 0.27901 0.0
O83 O 0.54724 0.77457 0.35946 0.0
C84 C 0.57699 0.80617 0.22579 0.0
O85 O 0.56476 0.82202 0.21987 0.0
N86 N 0.51988 0.805 0.33947 0.0
C87 C 0.4732 0.81295 0.35947 0.0
C88 C 0.47298 0.78761 0.37442 0.0
C89 C 0.49675 0.78416 0.36446 0.0
C90 C 0.52126 0.83042 0.32772 0.0
C91 C 0.49859 0.83516 0.33862 0.0
H92 H 0.49542 0.76377 0.37285 0.0
H93 H 0.53922 0.84647 0.30669 0.0
H94 H 0.51245 0.72989 0.3143 0.0
H95 H 0.45917 0.73577 0.20743 0.0
H96 H 0.60714 0.87282 0.43119 0.0
H97 H 0.45395 0.76971 0.39034 0.0
H98 H 0.50041 0.8555 0.32788 0.0
C99 C 0.72695 0.49737 0.73765 0.0
C100 C 0.73968 0.48047 0.73556 0.0
N101 N 0.75957 0.48913 0.77137 0.0
N102 N 0.73894 0.51658 0.77442 0.0
C103 C 0.75882 0.5111 0.79408 0.0
H104 H 0.70976 0.49553 0.71442 0.0
Co105 Co 0.7292 0.54388 0.79346 0.0
C106 C 0.77159 0.57345 0.87354 0.0
O107 O 0.78345 0.59783 0.84892 0.0
N108 N 0.71929 0.57136 0.81317 0.0
C109 C 0.70641 0.59704 0.86007 0.0
C110 C 0.7155 0.5772 0.85993 0.0
C111 C 0.71151 0.58733 0.78555 0.0
N112 N 0.70381 0.60327 0.81328 0.0
O113 O 0.76169 0.57242 0.75644 0.0
H114 H 0.71767 0.56661 0.89207 0.0
H115 H 0.71028 0.58651 0.74601 0.0
O116 O 0.75093 0.55081 0.85432 0.0
C117 C 0.75226 0.57111 0.71285 0.0
O118 O 0.72468 0.5538 0.70474 0.0
N119 N 0.69601 0.51491 0.82311 0.0
C120 C 0.64385 0.46491 0.84251 0.0
C121 C 0.66889 0.47102 0.86868 0.0
C122 C 0.69493 0.49618 0.85818 0.0
C123 C 0.67177 0.51001 0.79902 0.0
C124 C 0.6455 0.48531 0.80831 0.0
H125 H 0.71439 0.49953 0.87579 0.0
H126 H 0.67321 0.52446 0.77 0.0
H127 H 0.77259 0.5229 0.8245 0.0
H128 H 0.73414 0.46267 0.7107 0.0
H129 H 0.70016 0.60469 0.89196 0.0
H130 H 0.66867 0.45595 0.89544 0.0
H131 H 0.62713 0.48139 0.78618 0.0
C132 C 0.24919 0.78812 0.24533 0.0
C133 C 0.27844 0.80396 0.2528 0.0
N134 N 0.28422 0.7986 0.29852 0.0
N135 N 0.2365 0.77295 0.28623 0.0
C136 C 0.25829 0.78014 0.31819 0.0
H137 H 0.23825 0.78602 0.21101 0.0
Co138 Co 0.1989 0.74252 0.29202 0.0
C139 C 0.18149 0.7453 0.39633 0.0
O140 O 0.16045 0.71839 0.39524 0.0
N141 N 0.16085 0.71138 0.29705 0.0
C142 C 0.12282 0.6671 0.29941 0.0
C143 C 0.15217 0.68291 0.29468 0.0
C144 C 0.13612 0.71223 0.30153 0.0
N145 N 0.11282 0.68558 0.30377 0.0
O146 O 0.1853 0.76624 0.26189 0.0
H147 H 0.16605 0.67389 0.28931 0.0
H148 H 0.13526 0.73199 0.3043 0.0
O149 O 0.19742 0.75646 0.35846 0.0
C150 C 0.1766 0.75715 0.21837 0.0
O151 O 0.1755 0.73312 0.2042 0.0
N152 N 0.2133 0.71911 0.31431 0.0
C153 C 0.23413 0.68094 0.32295 0.0
C154 C 0.22338 0.68821 0.36421 0.0
C155 C 0.21334 0.70782 0.35927 0.0
C156 C 0.22414 0.71254 0.27435 0.0
C157 C 0.23486 0.69377 0.27787 0.0
H158 H 0.20517 0.71315 0.3912 0.0
H159 H 0.22368 0.72147 0.23899 0.0
H160 H 0.25525 0.77033 0.35399 0.0
H161 H 0.29432 0.81639 0.22511 0.0
H162 H 0.10974 0.64379 0.29855 0.0
H163 H 0.22248 0.6786 0.39961 0.0
H164 H 0.24244 0.68832 0.24494 0.0
C165 C 0.45905 0.24418 0.69155 0.0
C166 C 0.47403 0.273 0.70385 0.0
N167 N 0.48185 0.27516 0.75126 0.0
N168 N 0.45727 0.22826 0.73115 0.0
C169 C 0.47117 0.24777 0.76702 0.0
H170 H 0.45116 0.23551 0.65545 0.0
Co171 Co 0.4426 0.18853 0.73251 0.0
C172 C 0.42343 0.17195 0.83714 0.0
O173 O 0.43017 0.15144 0.83558 0.0
N174 N 0.42772 0.14826 0.7324 0.0
C175 C 0.42128 0.10496 0.71312 0.0
C176 C 0.43974 0.13416 0.71032 0.0
C177 C 0.40157 0.12697 0.74745 0.0
N178 N 0.39743 0.10055 0.73665 0.0
O179 O 0.40781 0.18295 0.70106 0.0
H180 H 0.46026 0.14418 0.69188 0.0
H181 H 0.38582 0.13073 0.76577 0.0
O182 O 0.4271 0.18742 0.79893 0.0
C183 C 0.40804 0.17578 0.65635 0.0
O184 O 0.42928 0.17201 0.64165 0.0
N185 N 0.47829 0.19501 0.75645 0.0
C186 C 0.53532 0.20906 0.7704 0.0
C187 C 0.51825 0.20755 0.81044 0.0
C188 C 0.48966 0.20052 0.80273 0.0
C189 C 0.4952 0.19776 0.71721 0.0
C190 C 0.5235 0.20409 0.72333 0.0
H191 H 0.47767 0.20113 0.83382 0.0
H192 H 0.48654 0.19519 0.68057 0.0
H193 H 0.47423 0.24216 0.80372 0.0
H194 H 0.48024 0.291 0.67908 0.0
H195 H 0.42523 0.08818 0.69968 0.0
H196 H 0.52701 0.21209 0.84723 0.0
H197 H 0.53633 0.20601 0.69133 0.0
C198 C 0.52607 0.76552 0.87656 0.0
C199 C 0.51328 0.78209 0.86932 0.0
N200 N 0.50315 0.77783 0.82308 0.0
N201 N 0.52412 0.75107 0.83492 0.0
C202 C 0.51048 0.7594 0.80287 0.0
H203 H 0.53439 0.76269 0.91092 0.0
Co204 Co 0.53247 0.72151 0.82575 0.0
C205 C 0.57284 0.75431 0.74175 0.0
O206 O 0.59681 0.76682 0.76723 0.0
N207 N 0.54083 0.69202 0.81577 0.0
C208 C 0.53739 0.64896 0.8105 0.0
C209 C 0.52293 0.66342 0.82185 0.0
C210 C 0.56606 0.69451 0.80162 0.0
N211 N 0.56451 0.66863 0.7979 0.0
O212 O 0.56794 0.74375 0.86156 0.0
H213 H 0.50087 0.65372 0.83425 0.0
H214 H 0.58533 0.71491 0.79473 0.0
O215 O 0.54899 0.73775 0.76282 0.0
C216 C 0.5658 0.73206 0.90345 0.0
O217 O 0.54296 0.70682 0.91217 0.0
N218 N 0.49678 0.69903 0.79609 0.0
C219 C 0.44086 0.66545 0.76241 0.0
C220 C 0.46418 0.67167 0.73157 0.0
C221 C 0.49222 0.68868 0.7492 0.0
C222 C 0.47432 0.69215 0.82696 0.0
C223 C 0.44617 0.67577 0.81065 0.0
H224 H 0.51014 0.69303 0.72563 0.0
H225 H 0.47841 0.6997 0.86447 0.0
H226 H 0.5042 0.75048 0.76637 0.0
H227 H 0.50951 0.79429 0.89712 0.0
H228 H 0.52893 0.6259 0.81303 0.0
H229 H 0.46075 0.66352 0.69437 0.0
H230 H 0.42867 0.67067 0.83594 0.0
C231 C 0.77983 0.50186 0.37596 0.0
C232 C 0.75255 0.4783 0.37696 0.0
N233 N 0.74054 0.47557 0.33248 0.0
N234 N 0.78501 0.51411 0.33113 0.0
C235 C 0.76053 0.49771 0.30561 0.0
H236 H 0.7954 0.50838 0.40521 0.0
Co237 Co 0.82072 0.5419 0.30694 0.0
C238 C 0.80562 0.57462 0.2368 0.0
O239 O 0.82241 0.59872 0.26036 0.0
N240 N 0.85675 0.56928 0.28178 0.0
C241 C 0.89242 0.5944 0.22912 0.0
C242 C 0.86375 0.57435 0.23375 0.0
C243 C 0.88177 0.58614 0.30552 0.0
N244 N 0.90374 0.60169 0.27435 0.0
O245 O 0.81978 0.5701 0.35039 0.0
H246 H 0.84918 0.56342 0.2037 0.0
H247 H 0.88426 0.58661 0.34479 0.0
O248 O 0.80199 0.55077 0.25377 0.0
C249 C 0.83111 0.57022 0.39174 0.0
O250 O 0.84352 0.55446 0.39632 0.0
N251 N 0.82193 0.51313 0.27009 0.0
C252 C 0.81017 0.45816 0.24328 0.0
C253 C 0.80196 0.47399 0.21279 0.0
C254 C 0.80822 0.50169 0.22674 0.0
C255 C 0.83276 0.4994 0.29727 0.0
C256 C 0.82717 0.47184 0.28451 0.0
H257 H 0.79992 0.51261 0.20468 0.0
H258 H 0.84338 0.50877 0.33164 0.0
H259 H 0.75819 0.50054 0.26695 0.0
H260 H 0.74277 0.46366 0.40751 0.0
H261 H 0.90434 0.60179 0.19511 0.0
H262 H 0.78919 0.46433 0.1802 0.0
H263 H 0.83383 0.46041 0.30926 0.0
C264 C 0.21538 0.75793 0.86497 0.0
C265 C 0.19954 0.72964 0.85008 0.0
N266 N 0.20697 0.72786 0.80358 0.0
N267 N 0.23252 0.77401 0.82785 0.0
C268 C 0.22696 0.75502 0.79096 0.0
H269 H 0.21485 0.76607 0.901 0.0
Co270 Co 0.25891 0.81357 0.82896 0.0
C271 C 0.24934 0.83334 0.72816 0.0
O272 O 0.27102 0.85986 0.73051 0.0
N273 N 0.28542 0.85329 0.83144 0.0
C274 C 0.32517 0.89454 0.8489 0.0
C275 C 0.31307 0.86508 0.84617 0.0
C276 C 0.28096 0.87596 0.82708 0.0
N277 N 0.30495 0.90129 0.83658 0.0
O278 O 0.23107 0.81991 0.86376 0.0
H279 H 0.3237 0.85298 0.85513 0.0
H280 H 0.26047 0.87395 0.81722 0.0
O281 O 0.24394 0.81595 0.76413 0.0
C282 C 0.23929 0.82652 0.90824 0.0
O283 O 0.26405 0.82904 0.92122 0.0
N284 N 0.28693 0.80679 0.80039 0.0
C285 C 0.33366 0.7998 0.77668 0.0
C286 C 0.32618 0.81629 0.74658 0.0
C287 C 0.30254 0.81941 0.75896 0.0
C288 C 0.29384 0.79045 0.82963 0.0
C289 C 0.3168 0.78629 0.81806 0.0
H290 H 0.29811 0.83332 0.73676 0.0
H291 H 0.28207 0.78146 0.86332 0.0
H292 H 0.23769 0.76098 0.75573 0.0
H293 H 0.18459 0.71158 0.8724 0.0
H294 H 0.34729 0.90988 0.85813 0.0
H295 H 0.33896 0.8273 0.7146 0.0
H296 H 0.32228 0.77391 0.84282 0.0
C297 C 0.45316 0.2216 0.33688 0.0
C298 C 0.46251 0.20194 0.33566 0.0
N299 N 0.46978 0.19985 0.28911 0.0
N300 N 0.45428 0.23177 0.2913 0.0
C301 C 0.4646 0.21826 0.26292 0.0
H302 H 0.44696 0.22884 0.36926 0.0
Co303 Co 0.44589 0.26048 0.27626 0.0
C304 C 0.43166 0.25495 0.16912 0.0
O305 O 0.44091 0.28277 0.16706 0.0
N306 N 0.43731 0.28989 0.26235 0.0
C307 C 0.43958 0.33221 0.25139 0.0
C308 C 0.45507 0.31881 0.26243 0.0
C309 C 0.41108 0.28635 0.25196 0.0
N310 N 0.41192 0.31173 0.24487 0.0
O311 O 0.40811 0.23675 0.30467 0.0
H312 H 0.47781 0.32978 0.27041 0.0
H313 H 0.39175 0.26549 0.24902 0.0
O314 O 0.43275 0.24346 0.20985 0.0
C315 C 0.40622 0.24696 0.3461 0.0
O316 O 0.4266 0.27308 0.35805 0.0
N317 N 0.48406 0.28397 0.25651 0.0
C318 C 0.54338 0.3206 0.25266 0.0
C319 C 0.52783 0.30773 0.2097 0.0
C320 C 0.49799 0.28884 0.21251 0.0
C321 C 0.49909 0.29614 0.29833 0.0
C322 C 0.52864 0.31448 0.29729 0.0
H323 H 0.48664 0.27801 0.17967 0.0
H324 H 0.48775 0.29155 0.33293 0.0
H325 H 0.4689 0.22243 0.22413 0.0
H326 H 0.46518 0.19121 0.36721 0.0
H327 H 0.44788 0.35527 0.24974 0.0
H328 H 0.53871 0.3117 0.17469 0.0
H329 H 0.53986 0.32411 0.33121 0.0
C330 C 0.19123 0.501 0.79856 0.0
C331 C 0.21813 0.52479 0.80316 0.0
N332 N 0.23504 0.5236 0.76779 0.0
N333 N 0.19126 0.48491 0.76055 0.0
C334 C 0.21834 0.49909 0.74272 0.0
H335 H 0.17244 0.49654 0.81983 0.0
Co336 Co 0.15827 0.45436 0.73505 0.0
C337 C 0.17835 0.42716 0.66343 0.0
O338 O 0.16488 0.40306 0.68869 0.0
N339 N 0.12468 0.42387 0.70897 0.0
C340 C 0.09128 0.3948 0.65603 0.0
C341 C 0.11679 0.42022 0.66135 0.0
C342 C 0.10342 0.40069 0.73192 0.0
N343 N 0.08287 0.38247 0.70057 0.0
O344 O 0.16413 0.42858 0.77737 0.0
H345 H 0.129 0.43501 0.63215 0.0
H346 H 0.10264 0.39752 0.77104 0.0
O347 O 0.17949 0.45001 0.68032 0.0
C348 C 0.15301 0.42758 0.81939 0.0
O349 O 0.13751 0.44026 0.82424 0.0
N350 N 0.15231 0.48086 0.69985 0.0
C351 C 0.15479 0.53356 0.6839 0.0
C352 C 0.17186 0.52563 0.65607 0.0
C353 C 0.17048 0.49918 0.66489 0.0
C354 C 0.13331 0.48665 0.72309 0.0
C355 C 0.13419 0.51291 0.71577 0.0
H356 H 0.18601 0.495 0.64715 0.0
H357 H 0.11963 0.47223 0.75157 0.0
H358 H 0.22522 0.49274 0.71005 0.0
H359 H 0.22451 0.54205 0.82955 0.0
H360 H 0.07992 0.38624 0.62191 0.0
H361 H 0.18766 0.54056 0.63032 0.0
H362 H 0.12071 0.5179 0.73857 0.0
C363 C 0.68508 0.20474 0.32855 0.0
C364 C 0.69146 0.23291 0.32279 0.0
N365 N 0.71553 0.24682 0.29539 0.0
N366 N 0.70484 0.2009 0.30438 0.0
C367 C 0.72329 0.22695 0.28504 0.0
H368 H 0.66706 0.18803 0.34865 0.0
Co369 Co 0.70553 0.1667 0.29912 0.0
C370 C 0.72188 0.1635 0.19826 0.0
O371 O 0.70121 0.13638 0.19961 0.0
N372 N 0.70758 0.13239 0.29503 0.0
C373 C 0.72888 0.10584 0.28729 0.0
C374 C 0.73288 0.13323 0.28644 0.0
C375 C 0.68862 0.10404 0.30207 0.0
N376 N 0.70105 0.08757 0.29729 0.0
O377 O 0.7397 0.18328 0.3386 0.0
H378 H 0.75319 0.15275 0.28015 0.0
H379 H 0.66618 0.09521 0.31066 0.0
O380 O 0.72694 0.17958 0.2362 0.0
C381 C 0.73058 0.17354 0.38166 0.0
O382 O 0.70287 0.15563 0.3875 0.0
N383 N 0.66983 0.1506 0.26641 0.0
C384 C 0.61428 0.14051 0.2461 0.0
C385 C 0.63775 0.15888 0.2162 0.0
C386 C 0.66528 0.16364 0.22694 0.0
C387 C 0.64716 0.132 0.29467 0.0
C388 C 0.61919 0.1255 0.28372 0.0
H389 H 0.68319 0.18056 0.2071 0.0
H390 H 0.65096 0.12461 0.3292 0.0
H391 H 0.74182 0.23118 0.26312 0.0
H392 H 0.67951 0.24248 0.33806 0.0
H393 H 0.74532 0.0999 0.2825 0.0
H394 H 0.63567 0.17176 0.18762 0.0
H395 H 0.60203 0.11068 0.30759 0.0
H396 H 0.3567 0.27847 0.27519 0.0
H397 H 0.3131 0.39316 0.18251 0.0
H398 H 0.41284 0.35542 0.19333 0.0
H399 H 0.2631 0.32554 0.28656 0.0
H400 H 0.34477 0.37313 0.17145 0.0
H401 H 0.31772 0.28938 0.26564 0.0
C402 C 0.36068 0.29741 0.25456 0.0
C403 C 0.38811 0.3163 0.23553 0.0
C404 C 0.32666 0.36245 0.19626 0.0
C405 C 0.3438 0.32898 0.22471 0.0
C406 C 0.30837 0.37373 0.20228 0.0
C407 C 0.28558 0.36119 0.23602 0.0
C408 C 0.32217 0.33848 0.22418 0.0
C409 C 0.28076 0.33618 0.26093 0.0
C410 C 0.3385 0.30371 0.24934 0.0
C411 C 0.39217 0.34065 0.20941 0.0
N412 N 0.2991 0.3258 0.25492 0.0
N413 N 0.37031 0.3464 0.20503 0.0
H414 H 0.90359 0.26392 0.71926 0.0
H415 H 0.07023 0.3508 0.78476 0.0
H416 H 0.93731 0.28713 0.86628 0.0
H417 H 0.03423 0.35477 0.64512 0.0
H418 H 0.02263 0.31319 0.81081 0.0
H419 H 0.95251 0.28242 0.6888 0.0
C420 C 0.92117 0.27257 0.74526 0.0
C421 C 0.91637 0.27498 0.79523 0.0
C422 C 0.02538 0.32206 0.7742 0.0
C423 C 0.9722 0.29555 0.76065 0.0
C424 C 0.0525 0.34377 0.75936 0.0
C425 C 0.05623 0.3569 0.7132 0.0
C426 C 0.0019 0.31322 0.74253 0.0
C427 C 0.03254 0.34577 0.68125 0.0
C428 C 0.94904 0.28293 0.72783 0.0
C429 C 0.93989 0.28522 0.82741 0.0
N430 N 0.00629 0.32487 0.69681 0.0
N431 N 0.96688 0.29563 0.80943 0.0
H432 H 0.65829 0.05495 0.36077 0.0
H433 H 0.64434 0.90587 0.27549 0.0
H434 H 0.71392 0.05068 0.25086 0.0
H435 H 0.61051 0.91736 0.41191 0.0
H436 H 0.66749 0.95812 0.26095 0.0
H437 H 0.63699 0.00315 0.37454 0.0
C438 C 0.66583 0.04301 0.33927 0.0
C439 C 0.68782 0.05699 0.30463 0.0
C440 C 0.6552 0.94913 0.29425 0.0
C441 C 0.66385 -0.0021 0.3204 0.0
C442 C 0.64201 0.91944 0.30245 0.0
C443 C 0.62568 0.90738 0.34503 0.0
C444 C 0.65157 0.96665 0.32858 0.0
C445 C 0.62329 0.92578 0.379 0.0
C446 C 0.65389 0.01354 0.34743 0.0
C447 C 0.69716 0.04064 0.27823 0.0
N448 N 0.63591 0.95446 0.36984 0.0
N449 N 0.68503 0.01184 0.28651 0.0
H450 H 0.71087 0.65288 0.85109 0.0
H451 H 0.56099 0.62234 0.75127 0.0
H452 H 0.66429 0.58828 0.74119 0.0
H453 H 0.62072 0.70258 0.82116 0.0
H454 H 0.59966 0.61093 0.74236 0.0
H455 H 0.68007 0.67376 0.83567 0.0
C456 C 0.69445 0.64352 0.82301 0.0
C457 C 0.68983 0.6188 0.79763 0.0
C458 C 0.60443 0.63126 0.7589 0.0
C459 C 0.65422 0.64197 0.78042 0.0
C460 C 0.58234 0.63763 0.76432 0.0
C461 C 0.58766 0.66323 0.7875 0.0
C462 C 0.63187 0.65041 0.77766 0.0
C463 C 0.61576 0.68262 0.80305 0.0
C464 C 0.67692 0.65539 0.81413 0.0
C465 C 0.66849 0.60742 0.76138 0.0
N466 N 0.63674 0.67559 0.79858 0.0
N467 N 0.65102 0.61876 0.7545 0.0
H468 H 0.07198 0.64159 0.35642 0.0
H469 H 0.94412 0.6481 0.22445 0.0
H470 H 0.08632 0.71193 0.26133 0.0
H471 H 0.93198 0.5945 0.35059 0.0
H472 H -0.00386 0.67327 0.23882 0.0
H473 H 0.02051 0.62519 0.35682 0.0
C474 C 0.06418 0.65366 0.33592 0.0
C475 C 0.08318 0.6779 0.30842 0.0
C476 C 0.98204 0.6563 0.26379 0.0
C477 C 0.02444 0.65927 0.30823 0.0
C478 C 0.95242 0.64185 0.25543 0.0
C479 C 0.93379 0.61902 0.28608 0.0
C480 C -0.00692 0.64751 0.30263 0.0
C481 C 0.94554 0.61203 0.32617 0.0
C482 C 0.03489 0.64444 0.33633 0.0
C483 C 0.07223 0.69314 0.28299 0.0
N484 N 0.97448 0.62593 0.33286 0.0
N485 N 0.04343 0.68329 0.28284 0.0
H486 H 0.33602 0.94813 0.89332 0.0
H487 H 0.36642 0.05426 0.67958 0.0
H488 H 0.28509 0.91948 0.76158 0.0
H489 H 0.37775 0.0842 0.82871 0.0
H490 H 0.33504 0.00469 0.70836 0.0
H491 H 0.3506 -0.00182 0.87203 0.0
C492 C 0.32755 0.95246 0.86036 0.0
C493 C 0.30956 0.92987 0.82892 0.0
C494 C 0.34375 0.02215 0.73475 0.0
C495 C 0.32644 0.98675 0.80387 0.0
C496 C 0.36158 0.0503 0.71831 0.0
C497 C 0.37444 0.07301 0.75197 0.0
C498 C 0.33965 0.0167 0.78532 0.0
C499 C 0.36792 0.06709 0.80184 0.0
C500 C 0.33571 0.9809 0.84834 0.0
C501 C 0.29896 0.93639 0.78674 0.0
N502 N 0.35147 0.03932 0.81726 0.0
N503 N 0.30808 0.96435 0.7748 0.0
H504 H 0.19646 0.41474 0.83464 0.0
H505 H 0.1777 0.41132 0.1264 0.0
H506 H 0.12518 0.41529 0.90711 0.0
H507 H 0.24555 0.40461 0.05347 0.0
H508 H 0.15446 0.40631 0.04651 0.0
H509 H 0.21137 0.40465 0.91392 0.0
C510 C 0.18363 0.41217 0.86694 0.0
C511 C 0.15973 0.41619 0.8642 0.0
C512 C 0.17422 0.40548 0.04811 0.0
C513 C 0.17684 0.40509 0.95526 0.0
C514 C 0.18735 0.40813 0.09384 0.0
C515 C 0.21375 0.40869 0.09665 0.0
C516 C 0.18765 0.40347 1.00497 0.0
C517 C 0.22538 0.40468 0.05305 0.0
C518 C 0.19221 0.40657 0.91233 0.0
C519 C 0.14399 0.41274 0.90747 0.0
N520 N 0.21251 0.40261 1.00915 0.0
N521 N 0.15298 0.40776 0.9511 0.0
H522 H 0.78413 0.22185 0.39464 0.0
H523 H 0.77414 0.20244 0.6863 0.0
H524 H 0.71883 0.1463 0.46952 0.0
H525 H 0.84206 0.27647 0.61207 0.0
H526 H 0.75715 0.17868 0.60663 0.0
H527 H 0.80953 0.23959 0.47305 0.0
C528 C 0.77544 0.20879 0.42731 0.0
C529 C 0.74916 0.18281 0.4257 0.0
C530 C 0.77599 0.20001 0.60786 0.0
C531 C 0.77773 0.20295 0.51538 0.0
C532 C 0.78573 0.2135 0.6534 0.0
C533 C 0.80928 0.24161 0.65583 0.0
C534 C 0.78987 0.21481 0.56453 0.0
C535 C 0.82352 0.25493 0.61194 0.0
C536 C 0.78982 0.21894 0.47212 0.0
C537 C 0.73881 0.16672 0.46918 0.0
N538 N 0.81342 0.24158 0.56816 0.0
N539 N 0.75291 0.17717 0.51219 0.0
H540 H 0.58366 0.75909 0.20739 0.0
H541 H 0.59333 0.79057 0.9211 0.0
H542 H 0.5982 0.83922 0.14403 0.0
H543 H 0.57719 0.70986 0.98413 0.0
H544 H 0.60776 0.81303 1.00224 0.0
H545 H 0.59335 0.745 0.12711 0.0
C546 C 0.58967 0.77404 0.17697 0.0
C547 C 0.58965 0.80013 0.18219 0.0
C548 C 0.60177 0.79057 0.99812 0.0
C549 C 0.60028 0.78404 0.09009 0.0
C550 C 0.59385 0.77785 0.9516 0.0
C551 C 0.58363 0.74822 0.94609 0.0
C552 C 0.59935 0.77347 0.03918 0.0
C553 C 0.58453 0.7327 0.987 0.0
C554 C 0.59502 0.76594 0.131 0.0
C555 C 0.59748 0.81865 0.14143 0.0
N556 N 0.59164 0.74533 1.03191 0.0
N557 N 0.60201 0.81008 0.09704 0.0
H558 H 0.86197 0.58371 0.47624 0.0
H559 H 0.73892 0.58988 0.63023 0.0
H560 H 0.78896 0.58429 0.4112 0.0
H561 H 0.80724 0.58098 0.6957 0.0
H562 H 0.76304 0.59906 0.55093 0.0
H563 H 0.84828 0.59358 0.55615 0.0
C564 C 0.84332 0.58649 0.47858 0.0
C565 C 0.82639 0.58284 0.43691 0.0
C566 C 0.77314 0.59568 0.58267 0.0
C567 C 0.81036 0.59384 0.52895 0.0
C568 C 0.75946 0.59061 0.62811 0.0
C569 C 0.77103 0.5845 0.66961 0.0
C570 C 0.79852 0.59434 0.57829 0.0
C571 C 0.79767 0.58574 0.66474 0.0
C572 C 0.83549 0.59206 0.52439 0.0
C573 C 0.80263 0.58692 0.44224 0.0
N574 N 0.81027 0.59003 0.61968 0.0
N575 N 0.79507 0.59176 0.48755 0.0
H576 H 0.18143 0.78938 0.92146 0.0
H577 H 0.20877 0.81593 0.20627 0.0
H578 H 0.25506 0.8621 0.98663 0.0
H579 H 0.13993 0.73892 0.14128 0.0
H580 H 0.21616 0.84088 0.12757 0.0
H581 H 0.15675 0.77891 1.00098 0.0
C582 C 0.19189 0.80386 0.95195 0.0
C583 C 0.22042 0.82636 0.94783 0.0
C584 C 0.19882 0.81877 0.13089 0.0
C585 C 0.19281 0.8142 0.03898 0.0
C586 C 0.1944 0.80465 0.17606 0.0
C587 C 0.17404 0.77522 0.17993 0.0
C588 C 0.18281 0.80323 0.08956 0.0
C589 C 0.15617 0.76155 0.13948 0.0
C590 C 0.17796 0.79773 0.99754 0.0
C591 C 0.23315 0.84429 0.98861 0.0
N592 N 0.16136 0.77544 0.09573 0.0
N593 N 0.21952 0.83751 1.03268 0.0
H594 H 0.38966 0.21516 0.64525 0.0
H595 H 0.38448 0.18866 0.35967 0.0
H596 H 0.38578 0.14031 0.57829 0.0
H597 H 0.38767 0.26342 0.42593 0.0
H598 H 0.37043 0.16399 0.43904 0.0
H599 H 0.37462 0.22632 0.56712 0.0
C600 C 0.38442 0.2004 0.61473 0.0
C601 C 0.38919 0.17695 0.61798 0.0
C602 C 0.3734 0.18551 0.43599 0.0
C603 C 0.37293 0.18996 0.52817 0.0
C604 C 0.38111 0.19947 0.39039 0.0
C605 C 0.38775 0.22831 0.3864 0.0
C606 C 0.37253 0.2006 0.47775 0.0
C607 C 0.38321 0.24132 0.42764 0.0
C608 C 0.37618 0.20694 0.56987 0.0
C609 C 0.38259 0.15878 0.57706 0.0
N610 N 0.37654 0.22766 0.47176 0.0
N611 N 0.37537 0.16596 0.53367 0.0
H612 H 0.82534 0.62181 0.17615 0.0
H613 H 0.75121 0.52701 0.93592 0.0
H614 H 0.76785 0.52965 0.17858 0.0
H615 H 0.80573 0.61963 0.93305 0.0
H616 H 0.75748 0.52769 1.02461 0.0
H617 H 0.81752 0.62179 0.08779 0.0
C618 C 0.81074 0.6016 0.15833 0.0
C619 C 0.79745 0.57563 0.18499 0.0
C620 C 0.76814 0.54789 1.00465 0.0
C621 C 0.78878 0.57542 0.0833 0.0
C622 C 0.76464 0.54751 0.95381 0.0
C623 C 0.77785 0.57332 0.9267 0.0
C624 C 0.78502 0.57427 1.02895 0.0
C625 C 0.79515 0.59918 0.95223 0.0
C626 C 0.80649 0.60159 0.10768 0.0
C627 C 0.7789 0.55014 0.15957 0.0
N628 N 0.79815 0.599 1.00182 0.0
N629 N 0.77529 0.55065 0.11025 0.0
H630 H 0.20397 0.77945 0.70687 0.0
H631 H 0.22572 0.80018 0.41692 0.0
H632 H 0.26306 0.86098 0.63926 0.0
H633 H 0.15472 0.72565 0.48477 0.0
H634 H 0.23966 0.82319 0.49771 0.0
H635 H 0.18529 0.75956 0.62567 0.0
C636 C 0.21282 0.79328 0.67507 0.0
C637 C 0.23525 0.82191 0.68005 0.0
C638 C 0.22088 0.80189 0.49477 0.0
C639 C 0.21417 0.79914 0.5867 0.0
C640 C 0.21291 0.78875 0.44863 0.0
C641 C 0.18908 0.76086 0.44393 0.0
C642 C 0.20508 0.78694 0.53659 0.0
C643 C 0.17333 0.74711 0.48645 0.0
C644 C 0.20215 0.7819 0.62864 0.0
C645 C 0.24581 0.83878 0.63735 0.0
N646 N 0.18173 0.76016 0.53089 0.0
N647 N 0.2354 0.82707 0.59253 0.0
H648 H 0.41732 0.21887 0.85923 0.0
H649 H 0.42546 0.20128 0.14996 0.0
H650 H 0.41752 0.14578 0.92621 0.0
H651 H 0.42095 0.27162 0.08098 0.0
H652 H 0.41845 0.17825 0.06928 0.0
H653 H 0.41443 0.23622 0.94081 0.0
C654 C 0.41637 0.20625 0.89098 0.0
C655 C 0.41786 0.1809 0.88567 0.0
C656 C 0.41873 0.1986 0.07196 0.0
C657 C 0.41491 0.20087 0.97959 0.0
C658 C 0.42262 0.21169 0.11807 0.0
C659 C 0.42406 0.23856 0.1223 0.0
C660 C 0.41626 0.21249 1.02985 0.0
C661 C 0.42033 0.25107 0.07957 0.0
C662 C 0.41482 0.21622 0.93769 0.0
C663 C 0.41661 0.16553 0.92839 0.0
N664 N 0.41683 0.23808 0.03531 0.0
N665 N 0.41548 0.17587 0.97344 0.0
H666 H 0.17163 0.37019 0.3631 0.0
H667 H 0.20751 0.47236 0.59918 0.0
H668 H 0.22084 0.46317 0.35684 0.0
H669 H 0.16366 0.37936 0.60677 0.0
H670 H 0.21204 0.4695 0.51038 0.0
H671 H 0.16633 0.37314 0.45177 0.0
C672 C 0.18097 0.39125 0.38017 0.0
C673 C 0.19689 0.41647 0.35233 0.0
C674 C 0.20154 0.44971 0.53149 0.0
C675 C 0.1913 0.42 0.45425 0.0
C676 C 0.19903 0.45134 0.58233 0.0
C677 C 0.18508 0.42608 0.61074 0.0
C678 C 0.18992 0.4226 0.50858 0.0
C679 C 0.17468 0.39945 0.58661 0.0
C680 C 0.17819 0.39291 0.43097 0.0
C681 C 0.20871 0.44314 0.37676 0.0
N682 N 0.17715 0.39842 0.53705 0.0
N683 N 0.20578 0.44419 0.42618 0.0
H684 H 0.77316 0.17482 0.89536 0.0
H685 H 0.7465 0.21925 0.16335 0.0
H686 H 0.77712 0.25588 0.92681 0.0
H687 H 0.72878 0.13369 0.12441 0.0
H688 H 0.76289 0.23507 0.07886 0.0
H689 H 0.76028 0.16062 0.98093 0.0
C690 C 0.77109 0.18955 0.92004 0.0
C691 C 0.77623 0.21659 0.90363 0.0
C692 C 0.75561 0.21289 0.08903 0.0
C693 C 0.76193 0.20068 1.00202 0.0
C694 C 0.74657 0.20398 0.1373 0.0
C695 C 0.73618 0.17513 0.15071 0.0
C696 C 0.75441 0.1928 0.05433 0.0
C697 C 0.73641 0.1561 0.11546 0.0
C698 C 0.76388 0.1815 0.96902 0.0
C699 C 0.77335 0.23482 0.93757 0.0
N700 N 0.74524 0.16522 0.06896 0.0
N701 N 0.76653 0.2266 0.98511 0.0
H702 H 0.61893 0.77416 0.67827 0.0
H703 H 0.52202 0.7486 0.43909 0.0
H704 H 0.52713 0.74044 0.68148 0.0
H705 H 0.61281 0.77719 0.43247 0.0
H706 H 0.52341 0.74364 0.52785 0.0
H707 H 0.61746 0.77521 0.58834 0.0
C708 C 0.59852 0.76712 0.66016 0.0
C709 C 0.57311 0.75706 0.68755 0.0
C710 C 0.543 0.75074 0.507 0.0
C711 C 0.5712 0.75794 0.58472 0.0
C712 C 0.54218 0.75342 0.45616 0.0
C713 C 0.56735 0.76345 0.42811 0.0
C714 C 0.56923 0.75832 0.53027 0.0
C715 C 0.59284 0.76937 0.45248 0.0
C716 C 0.59765 0.76753 0.60881 0.0
C717 C 0.54724 0.74806 0.66201 0.0
N718 N 0.59319 0.76699 0.50215 0.0
N719 N 0.54697 0.74873 0.61224 0.0
H720 H 0.29253 0.57286 0.20236 0.0
H721 H 0.20314 0.62645 0.3607 0.0
H722 H 0.21554 0.51513 0.28238 0.0
H723 H 0.2826 0.68341 0.28621 0.0
H724 H 0.21079 0.58583 0.34291 0.0
H725 H 0.29197 0.61387 0.24042 0.0
C726 C 0.27538 0.56884 0.22771 0.0
C727 C 0.25377 0.54059 0.23861 0.0
C728 C 0.22684 0.6073 0.33127 0.0
C729 C 0.25314 0.58743 0.28295 0.0
C730 C 0.22262 0.63051 0.3419 0.0
C731 C 0.24211 0.65817 0.32433 0.0
C732 C 0.25064 0.61192 0.30275 0.0
C733 C 0.26686 0.66227 0.29974 0.0
C734 C 0.27523 0.59225 0.2499 0.0
C735 C 0.23255 0.5366 0.27289 0.0
N736 N 0.27021 0.63933 0.28903 0.0
N737 N 0.23259 0.55977 0.2935 0.0
H738 H 0.70296 0.22287 0.75049 0.0
H739 H 0.5773 0.25615 0.81822 0.0
H740 H 0.71815 0.30882 0.77767 0.0
H741 H 0.56263 0.1813 0.73536 0.0
H742 H 0.62901 0.27255 0.81929 0.0
H743 H 0.6511 0.2042 0.7595 0.0
C744 C 0.69532 0.23774 0.75853 0.0
C745 C 0.71472 0.26741 0.76296 0.0
C746 C 0.6144 0.25243 0.80125 0.0
C747 C 0.65576 0.24631 0.77381 0.0
C748 C 0.58497 0.24298 0.80101 0.0
C749 C 0.56587 0.21743 0.77655 0.0
C750 C 0.6246 0.23597 0.77744 0.0
C751 C 0.5768 0.20123 0.75431 0.0
C752 C 0.66583 0.22714 0.76352 0.0
C753 C 0.70381 0.28587 0.77322 0.0
N754 N 0.60549 0.21078 0.75525 0.0
N755 N 0.67502 0.275 0.77848 0.0
H756 H 0.42228 0.69686 0.25633 0.0
H757 H 0.39419 0.537 0.28749 0.0
H758 H 0.49162 0.67962 0.2824 0.0
H759 H 0.32892 0.56057 0.31074 0.0
H760 H 0.43059 0.58845 0.28295 0.0
H761 H 0.38769 0.64603 0.27132 0.0
C762 C 0.4302 0.68228 0.26479 0.0
C763 C 0.45982 0.69236 0.26778 0.0
C764 C 0.40835 0.5823 0.28985 0.0
C765 C 0.42039 0.63419 0.28549 0.0
C766 C 0.38764 0.55301 0.2925 0.0
C767 C 0.35856 0.54454 0.29976 0.0
C768 C 0.39977 0.60314 0.29351 0.0
C769 C 0.35115 0.56612 0.30584 0.0
C770 C 0.41047 0.65334 0.2739 0.0
C771 C 0.46893 0.67264 0.27989 0.0
N772 N 0.37155 0.59438 0.30197 0.0
N773 N 0.44928 0.64439 0.28796 0.0
H774 H 0.8515 0.39678 0.7675 0.0
H775 H 0.77639 0.48427 0.86285 0.0
H776 H 0.82361 0.39277 0.91733 0.0
H777 H 0.78179 0.46504 0.71098 0.0
H778 H 0.80363 0.46041 0.88561 0.0
H779 H 0.83754 0.43264 0.74976 0.0
C780 C 0.84331 0.40408 0.79722 0.0
C781 C 0.83861 0.39155 0.84407 0.0
C782 C 0.79907 0.46166 0.8473 0.0
C783 C 0.82167 0.43209 0.82323 0.0
C784 C 0.78365 0.47535 0.83426 0.0
C785 C 0.77673 0.47644 0.78494 0.0
C786 C 0.80786 0.44929 0.81069 0.0
C787 C 0.78635 0.46428 0.74941 0.0
C788 C 0.83493 0.4243 0.78674 0.0
C789 C 0.82729 0.40159 0.8806 0.0
N790 N 0.8014 0.45116 0.76299 0.0
N791 N 0.81886 0.42106 0.86926 0.0
H792 H 0.33606 0.84375 0.27222 0.0
H793 H 0.42733 0.78905 0.42484 0.0
H794 H 0.29667 0.76927 0.36743 0.0
H795 H 0.45695 0.84075 0.29298 0.0
H796 H 0.38168 0.78896 0.41763 0.0
H797 H 0.38329 0.85095 0.2945 0.0
C798 C 0.33728 0.82904 0.29807 0.0
C799 C 0.31218 0.80561 0.31722 0.0
C800 C 0.39846 0.80061 0.39081 0.0
C801 C 0.36633 0.81389 0.34328 0.0
C802 C 0.4245 0.80057 0.39469 0.0
C803 C 0.44636 0.81496 0.35959 0.0
C804 C 0.39434 0.81538 0.35187 0.0
C805 C 0.44134 0.82987 0.32178 0.0
C806 C 0.36428 0.8332 0.31087 0.0
C807 C 0.31526 0.78767 0.35164 0.0
N808 N 0.41596 0.82961 0.31896 0.0
N809 N 0.34182 0.79203 0.36319 0.0
H810 H 0.5875 0.45247 0.83711 0.0
H811 H 0.52351 0.28204 0.81517 0.0
H812 H 0.63902 0.41151 0.8538 0.0
H813 H 0.48607 0.32763 0.74424 0.0
H814 H 0.56077 0.32773 0.85034 0.0
H815 H 0.54508 0.40501 0.82439 0.0
C816 C 0.58991 0.43354 0.83873 0.0
C817 C 0.61712 0.43618 0.84557 0.0
C818 C 0.54416 0.32764 0.82762 0.0
C819 C 0.56845 0.38174 0.83177 0.0
C820 C 0.52281 0.30159 0.80783 0.0
C821 C 0.50179 0.30117 0.77659 0.0
C822 C 0.54425 0.35334 0.81659 0.0
C823 C 0.5021 0.32717 0.76773 0.0
C824 C 0.56564 0.40646 0.83154 0.0
C825 C 0.61861 0.41069 0.84874 0.0
N826 N 0.52306 0.35224 0.78751 0.0
N827 N 0.59468 0.38457 0.84129 0.0
H828 H 0.38786 0.84508 0.76115 0.0
H829 H 0.50179 0.82718 0.83802 0.0
H830 H 0.34025 0.75234 0.77481 0.0
H831 H 0.45657 0.74414 0.76715 0.0
H832 H 0.46263 0.83603 0.8153 0.0
H833 H 0.43285 0.84358 0.76166 0.0
C834 C 0.38691 0.82438 0.76339 0.0
C835 C 0.36041 0.7988 0.76846 0.0
C836 C 0.46168 0.81626 0.8034 0.0
C837 C 0.41154 0.79697 0.77028 0.0
C838 C 0.48388 0.81113 0.8168 0.0
C839 C 0.48244 0.78501 0.80426 0.0
C840 C 0.4377 0.79485 0.77796 0.0
C841 C 0.45873 0.76475 0.77693 0.0
C842 C 0.41256 0.82358 0.76439 0.0
C843 C 0.3603 0.77255 0.77146 0.0
N844 N 0.43704 0.76989 0.76548 0.0
N845 N 0.38551 0.77232 0.77251 0.0
H846 H 0.57432 0.3698 0.19815 0.0
H847 H 0.71437 0.42018 0.36423 0.0
H848 H 0.5835 0.317 0.30808 0.0
H849 H 0.70597 0.47644 0.26042 0.0
H850 H 0.66859 0.38042 0.33631 0.0
H851 H 0.62487 0.40701 0.21122 0.0
C852 C 0.58722 0.36581 0.22415 0.0
C853 C 0.57483 0.34052 0.25242 0.0
C854 C 0.6767 0.40142 0.31945 0.0
C855 C 0.63215 0.38283 0.26809 0.0
C856 C 0.70277 0.42423 0.33576 0.0
C857 C 0.71377 0.45182 0.31526 0.0
C858 C 0.66127 0.40614 0.28248 0.0
C859 C 0.6982 0.45552 0.27731 0.0
C860 C 0.61592 0.38709 0.23192 0.0
C861 C 0.59225 0.33639 0.28596 0.0
N862 N 0.67257 0.43299 0.26242 0.0
N863 N 0.61991 0.35742 0.29316 0.0
H864 H 0.20763 0.58291 0.67754 0.0
H865 H 0.15409 0.68028 0.80427 0.0
H866 H 0.11736 0.55448 0.69704 0.0
H867 H 0.23844 0.7159 0.7397 0.0
H868 H 0.13984 0.63428 0.7635 0.0
H869 H 0.2191 0.63201 0.69623 0.0
C870 C 0.19006 0.58696 0.68446 0.0
C871 C 0.16139 0.56418 0.68603 0.0
C872 C 0.16135 0.65225 0.75766 0.0
C873 C 0.1747 0.62064 0.7093 0.0
C874 C 0.16952 0.67842 0.78116 0.0
C875 C 0.19752 0.7018 0.77561 0.0
C876 C 0.18152 0.64925 0.72909 0.0
C877 C 0.21661 0.69842 0.74477 0.0
C878 C 0.19674 0.61512 0.69562 0.0
C879 C 0.13981 0.57108 0.69643 0.0
N880 N 0.2084 0.67249 0.72325 0.0
N881 N 0.14694 0.59856 0.70842 0.0
H882 H 0.46584 0.15201 0.33089 0.0
H883 H 0.58862 0.15141 0.16634 0.0
H884 H 0.50562 0.21149 0.21063 0.0
H885 H 0.57646 0.13182 0.32153 0.0
H886 H 0.54829 0.16077 0.16891 0.0
H887 H 0.49581 0.13073 0.31258 0.0
C888 C 0.48069 0.16048 0.30039 0.0
C889 C 0.48373 0.18413 0.27315 0.0
C890 C 0.55435 0.15386 0.20195 0.0
C891 C 0.51774 0.15944 0.25149 0.0
C892 C 0.5775 0.14867 0.20076 0.0
C893 C 0.5866 0.14101 0.24387 0.0
C894 C 0.53974 0.15067 0.2462 0.0
C895 C 0.57046 0.13708 0.28687 0.0
C896 C 0.49766 0.1482 0.28981 0.0
C897 C 0.50267 0.19347 0.23288 0.0
N898 N 0.54803 0.14205 0.28686 0.0
N899 N 0.51929 0.18134 0.22362 0.0
H900 H 0.41695 0.61253 0.71828 0.0
H901 H 0.25861 0.58121 0.77941 0.0
H902 H 0.3967 0.67639 0.77108 0.0
H903 H 0.27713 0.51578 0.72861 0.0
H904 H 0.3085 0.61783 0.76423 0.0
H905 H 0.36539 0.57856 0.70777 0.0
C906 C 0.40163 0.61957 0.72649 0.0
C907 C 0.41086 0.64702 0.74624 0.0
C908 C 0.3017 0.5955 0.75606 0.0
C909 C 0.3522 0.60844 0.73516 0.0
C910 C 0.27327 0.57458 0.76517 0.0
C911 C 0.26397 0.54542 0.75618 0.0
C912 C 0.3211 0.5872 0.73829 0.0
C913 C 0.28358 0.53806 0.73625 0.0
C914 C 0.37226 0.60017 0.72085 0.0
C915 C 0.39029 0.65517 0.75656 0.0
N916 N 0.31139 0.55881 0.72853 0.0
N917 N 0.3619 0.63583 0.75147 0.0
H918 H 0.7726 0.28184 0.27806 0.0
H919 H 0.75431 0.41881 0.22234 0.0
H920 H 0.69114 0.2798 0.2778 0.0
H921 H 0.83634 0.42531 0.25289 0.0
H922 H 0.73141 0.36638 0.22717 0.0
H923 H 0.7966 0.33293 0.2551 0.0
C924 C 0.75974 0.29206 0.27274 0.0
C925 C 0.72985 0.27661 0.28025 0.0
C926 C 0.75448 0.37923 0.23218 0.0
C927 C 0.75712 0.33498 0.254 0.0
C928 C 0.76766 0.40919 0.22882 0.0
C929 C 0.79733 0.4265 0.23725 0.0
C930 C 0.77104 0.36639 0.24405 0.0
C931 C 0.81337 0.41277 0.24657 0.0
C932 C 0.77345 0.32124 0.25984 0.0
C933 C 0.71427 0.29101 0.27324 0.0
N934 N 0.79999 0.38352 0.25006 0.0
N935 N 0.72808 0.31937 0.26059 0.0
loop_
_geom_bond_atom_site_label_1
_geom_bond_atom_site_label_2
_geom_bond_distance
_geom_bond_site_symmetry_2
_ccdc_geom_bond_type
C0 C1 1.351 . S
C0 N3 1.368 . S
C0 H5 0.931 . S
C1 C0 1.351 . S
C1 N2 1.373 . S
C1 H29 0.930 . S
N2 C1 1.373 . S
N2 C4 1.340 . S
N3 C0 1.368 . S
N3 C4 1.321 . S
N3 Co6 2.135 . S
C4 N2 1.340 . S
C4 N3 1.321 . S
C4 H28 0.930 . S
H5 C0 0.931 . S
Co6 N3 2.135 . S
Co6 N9 2.121 . S
Co6 O14 2.055 . S
Co6 O17 2.039 . S
Co6 N20 2.140 . S
C7 O8 1.227 . S
C7 O17 1.265 . S
O8 C7 1.227 . S
N9 Co6 2.121 . S
N9 C11 1.375 . S
N9 C12 1.313 . S
C10 C11 1.338 . S
C10 N13 1.377 . S
C10 H30 0.930 . S
C11 N9 1.375 . S
C11 C10 1.338 . S
C11 H15 0.931 . S
C12 N9 1.313 . S
C12 N13 1.344 . S
C12 H16 0.930 . S
N13 C10 1.377 . S
N13 C12 1.344 . S
O14 Co6 2.055 . S
O14 C18 1.253 . S
H15 C11 0.931 . S
H16 C12 0.930 . S
O17 Co6 2.039 . S
O17 C7 1.265 . S
C18 O14 1.253 . S
C18 O19 1.227 . S
O19 C18 1.227 . S
N20 Co6 2.140 . S
N20 C23 1.346 . S
N20 C24 1.345 . S
C21 C22 1.387 . S
C21 C25 1.391 . S
C22 C21 1.387 . S
C22 C23 1.369 . S
C22 H31 0.929 . S
C23 N20 1.346 . S
C23 C22 1.369 . S
C23 H26 0.928 . S
C24 N20 1.345 . S
C24 C25 1.371 . S
C24 H27 0.931 . S
C25 C21 1.391 . S
C25 C24 1.371 . S
C25 H32 0.930 . S
H26 C23 0.928 . S
H27 C24 0.931 . S
H28 C4 0.930 . S
H29 C1 0.930 . S
H30 C10 0.930 . S
H31 C22 0.929 . S
H32 C25 0.930 . S
C33 C34 1.351 . S
C33 N36 1.368 . S
C33 H38 0.931 . S
C34 C33 1.351 . S
C34 N35 1.373 . S
C34 H62 0.930 . S
N35 C34 1.373 . S
N35 C37 1.340 . S
N36 C33 1.368 . S
N36 C37 1.321 . S
N36 Co39 2.135 . S
C37 N35 1.340 . S
C37 N36 1.321 . S
C37 H61 0.930 . S
H38 C33 0.931 . S
Co39 N36 2.135 . S
Co39 N42 2.121 . S
Co39 O47 2.055 . S
Co39 O50 2.039 . S
Co39 N53 2.140 . S
C40 O41 1.227 . S
C40 O50 1.265 . S
O41 C40 1.227 . S
N42 Co39 2.121 . S
N42 C44 1.375 . S
N42 C45 1.313 . S
C43 C44 1.338 . S
C43 N46 1.377 . S
C43 H63 0.930 . S
C44 N42 1.375 . S
C44 C43 1.338 . S
C44 H48 0.931 . S
C45 N42 1.313 . S
C45 N46 1.344 . S
C45 H49 0.930 . S
N46 C43 1.377 . S
N46 C45 1.344 . S
O47 Co39 2.055 . S
O47 C51 1.253 . S
H48 C44 0.931 . S
H49 C45 0.930 . S
O50 Co39 2.039 . S
O50 C40 1.265 . S
C51 O47 1.253 . S
C51 O52 1.227 . S
O52 C51 1.227 . S
N53 Co39 2.140 . S
N53 C56 1.346 . S
N53 C57 1.345 . S
C54 C55 1.387 . S
C54 C58 1.391 . S
C55 C54 1.387 . S
C55 C56 1.369 . S
C55 H64 0.929 . S
C56 N53 1.346 . S
C56 C55 1.369 . S
C56 H59 0.928 . S
C57 N53 1.345 . S
C57 C58 1.371 . S
C57 H60 0.931 . S
C58 C54 1.391 . S
C58 C57 1.371 . S
C58 H65 0.930 . S
H59 C56 0.928 . S
H60 C57 0.931 . S
H61 C37 0.930 . S
H62 C34 0.930 . S
H63 C43 0.930 . S
H64 C55 0.929 . S
H65 C58 0.930 . S
C66 C67 1.351 . S
C66 N69 1.368 . S
C66 H71 0.931 . S
C67 C66 1.351 . S
C67 N68 1.373 . S
C67 H95 0.930 . S
N68 C67 1.373 . S
N68 C70 1.340 . S
N69 C66 1.368 . S
N69 C70 1.321 . S
N69 Co72 2.135 . S
C70 N68 1.340 . S
C70 N69 1.321 . S
C70 H94 0.930 . S
H71 C66 0.931 . S
Co72 N69 2.135 . S
Co72 N75 2.121 . S
Co72 O80 2.055 . S
Co72 O83 2.039 . S
Co72 N86 2.140 . S
C73 O74 1.227 . S
C73 O83 1.265 . S
O74 C73 1.227 . S
N75 Co72 2.121 . S
N75 C77 1.375 . S
N75 C78 1.313 . S
C76 C77 1.338 . S
C76 N79 1.377 . S
C76 H96 0.930 . S
C77 N75 1.375 . S
C77 C76 1.338 . S
C77 H81 0.931 . S
C78 N75 1.313 . S
C78 N79 1.344 . S
C78 H82 0.930 . S
N79 C76 1.377 . S
N79 C78 1.344 . S
O80 Co72 2.055 . S
O80 C84 1.253 . S
H81 C77 0.931 . S
H82 C78 0.930 . S
O83 Co72 2.039 . S
O83 C73 1.265 . S
C84 O80 1.253 . S
C84 O85 1.227 . S
O85 C84 1.227 . S
N86 Co72 2.140 . S
N86 C89 1.346 . S
N86 C90 1.345 . S
C87 C88 1.387 . S
C87 C91 1.391 . S
C88 C87 1.387 . S
C88 C89 1.369 . S
C88 H97 0.929 . S
C89 N86 1.346 . S
C89 C88 1.369 . S
C89 H92 0.928 . S
C90 N86 1.345 . S
C90 C91 1.371 . S
C90 H93 0.931 . S
C91 C87 1.391 . S
C91 C90 1.371 . S
C91 H98 0.930 . S
H92 C89 0.928 . S
H93 C90 0.931 . S
H94 C70 0.930 . S
H95 C67 0.930 . S
H96 C76 0.930 . S
H97 C88 0.929 . S
H98 C91 0.930 . S
C99 C100 1.351 . S
C99 N102 1.368 . S
C99 H104 0.931 . S
C100 C99 1.351 . S
C100 N101 1.373 . S
C100 H128 0.930 . S
N101 C100 1.373 . S
N101 C103 1.340 . S
N102 C99 1.368 . S
N102 C103 1.321 . S
N102 Co105 2.135 . S
C103 N101 1.340 . S
C103 N102 1.321 . S
C103 H127 0.930 . S
H104 C99 0.931 . S
Co105 N102 2.135 . S
Co105 N108 2.121 . S
Co105 O113 2.055 . S
Co105 O116 2.039 . S
Co105 N119 2.140 . S
C106 O107 1.227 . S
C106 O116 1.265 . S
O107 C106 1.227 . S
N108 Co105 2.121 . S
N108 C110 1.375 . S
N108 C111 1.313 . S
C109 C110 1.338 . S
C109 N112 1.377 . S
C109 H129 0.930 . S
C110 N108 1.375 . S
C110 C109 1.338 . S
C110 H114 0.931 . S
C111 N108 1.313 . S
C111 N112 1.344 . S
C111 H115 0.930 . S
N112 C109 1.377 . S
N112 C111 1.344 . S
O113 Co105 2.055 . S
O113 C117 1.253 . S
H114 C110 0.931 . S
H115 C111 0.930 . S
O116 Co105 2.039 . S
O116 C106 1.265 . S
C117 O113 1.253 . S
C117 O118 1.227 . S
O118 C117 1.227 . S
N119 Co105 2.140 . S
N119 C122 1.346 . S
N119 C123 1.345 . S
C120 C121 1.387 . S
C120 C124 1.391 . S
C121 C120 1.387 . S
C121 C122 1.369 . S
C121 H130 0.929 . S
C122 N119 1.346 . S
C122 C121 1.369 . S
C122 H125 0.928 . S
C123 N119 1.345 . S
C123 C124 1.371 . S
C123 H126 0.931 . S
C124 C120 1.391 . S
C124 C123 1.371 . S
C124 H131 0.930 . S
H125 C122 0.928 . S
H126 C123 0.931 . S
H127 C103 0.930 . S
H128 C100 0.930 . S
H129 C109 0.930 . S
H130 C121 0.929 . S
H131 C124 0.930 . S
C132 C133 1.351 . S
C132 N135 1.368 . S
C132 H137 0.931 . S
C133 C132 1.351 . S
C133 N134 1.373 . S
C133 H161 0.930 . S
N134 C133 1.373 . S
N134 C136 1.340 . S
N135 C132 1.368 . S
N135 C136 1.321 . S
N135 Co138 2.135 . S
C136 N134 1.340 . S
C136 N135 1.321 . S
C136 H160 0.930 . S
H137 C132 0.931 . S
Co138 N135 2.135 . S
Co138 N141 2.121 . S
Co138 O146 2.055 . S
Co138 O149 2.039 . S
Co138 N152 2.140 . S
C139 O140 1.227 . S
C139 O149 1.265 . S
O140 C139 1.227 . S
N141 Co138 2.121 . S
N141 C143 1.375 . S
N141 C144 1.313 . S
C142 C143 1.338 . S
C142 N145 1.377 . S
C142 H162 0.930 . S
C143 N141 1.375 . S
C143 C142 1.338 . S
C143 H147 0.931 . S
C144 N141 1.313 . S
C144 N145 1.344 . S
C144 H148 0.930 . S
N145 C142 1.377 . S
N145 C144 1.344 . S
O146 Co138 2.055 . S
O146 C150 1.253 . S
H147 C143 0.931 . S
H148 C144 0.930 . S
O149 Co138 2.039 . S
O149 C139 1.265 . S
C150 O146 1.253 . S
C150 O151 1.227 . S
O151 C150 1.227 . S
N152 Co138 2.140 . S
N152 C155 1.346 . S
N152 C156 1.345 . S
C153 C154 1.387 . S
C153 C157 1.391 . S
C154 C153 1.387 . S
C154 C155 1.369 . S
C154 H163 0.929 . S
C155 N152 1.346 . S
C155 C154 1.369 . S
C155 H158 0.928 . S
C156 N152 1.345 . S
C156 C157 1.371 . S
C156 H159 0.931 . S
C157 C153 1.391 . S
C157 C156 1.371 . S
C157 H164 0.930 . S
H158 C155 0.928 . S
H159 C156 0.931 . S
H160 C136 0.930 . S
H161 C133 0.930 . S
H162 C142 0.930 . S
H163 C154 0.929 . S
H164 C157 0.930 . S
C165 C166 1.351 . S
C165 N168 1.368 . S
C165 H170 0.931 . S
C166 C165 1.351 . S
C166 N167 1.373 . S
C166 H194 0.930 . S
N167 C166 1.373 . S
N167 C169 1.340 . S
N168 C165 1.368 . S
N168 C169 1.321 . S
N168 Co171 2.135 . S
C169 N167 1.340 . S
C169 N168 1.321 . S
C169 H193 0.930 . S
H170 C165 0.931 . S
Co171 N168 2.135 . S
Co171 N174 2.121 . S
Co171 O179 2.055 . S
Co171 O182 2.039 . S
Co171 N185 2.140 . S
C172 O173 1.227 . S
C172 O182 1.265 . S
O173 C172 1.227 . S
N174 Co171 2.121 . S
N174 C176 1.375 . S
N174 C177 1.313 . S
C175 C176 1.338 . S
C175 N178 1.377 . S
C175 H195 0.930 . S
C176 N174 1.375 . S
C176 C175 1.338 . S
C176 H180 0.931 . S
C177 N174 1.313 . S
C177 N178 1.344 . S
C177 H181 0.930 . S
N178 C175 1.377 . S
N178 C177 1.344 . S
O179 Co171 2.055 . S
O179 C183 1.253 . S
H180 C176 0.931 . S
H181 C177 0.930 . S
O182 Co171 2.039 . S
O182 C172 1.265 . S
C183 O179 1.253 . S
C183 O184 1.227 . S
O184 C183 1.227 . S
N185 Co171 2.140 . S
N185 C188 1.346 . S
N185 C189 1.345 . S
C186 C187 1.387 . S
C186 C190 1.391 . S
C187 C186 1.387 . S
C187 C188 1.369 . S
C187 H196 0.929 . S
C188 N185 1.346 . S
C188 C187 1.369 . S
C188 H191 0.928 . S
C189 N185 1.345 . S
C189 C190 1.371 . S
C189 H192 0.931 . S
C190 C186 1.391 . S
C190 C189 1.371 . S
C190 H197 0.930 . S
H191 C188 0.928 . S
H192 C189 0.931 . S
H193 C169 0.930 . S
H194 C166 0.930 . S
H195 C175 0.930 . S
H196 C187 0.929 . S
H197 C190 0.930 . S
C198 C199 1.351 . S
C198 N201 1.368 . S
C198 H203 0.931 . S
C199 C198 1.351 . S
C199 N200 1.373 . S
C199 H227 0.930 . S
N200 C199 1.373 . S
N200 C202 1.340 . S
N201 C198 1.368 . S
N201 C202 1.321 . S
N201 Co204 2.135 . S
C202 N200 1.340 . S
C202 N201 1.321 . S
C202 H226 0.930 . S
H203 C198 0.931 . S
Co204 N201 2.135 . S
Co204 N207 2.121 . S
Co204 O212 2.055 . S
Co204 O215 2.039 . S
Co204 N218 2.140 . S
C205 O206 1.227 . S
C205 O215 1.265 . S
O206 C205 1.227 . S
N207 Co204 2.121 . S
N207 C209 1.375 . S
N207 C210 1.313 . S
C208 C209 1.338 . S
C208 N211 1.377 . S
C208 H228 0.930 . S
C209 N207 1.375 . S
C209 C208 1.338 . S
C209 H213 0.931 . S
C210 N207 1.313 . S
C210 N211 1.344 . S
C210 H214 0.930 . S
N211 C208 1.377 . S
N211 C210 1.344 . S
O212 Co204 2.055 . S
O212 C216 1.253 . S
H213 C209 0.931 . S
H214 C210 0.930 . S
O215 Co204 2.039 . S
O215 C205 1.265 . S
C216 O212 1.253 . S
C216 O217 1.227 . S
O217 C216 1.227 . S
N218 Co204 2.140 . S
N218 C221 1.346 . S
N218 C222 1.345 . S
C219 C220 1.387 . S
C219 C223 1.391 . S
C220 C219 1.387 . S
C220 C221 1.369 . S
C220 H229 0.929 . S
C221 N218 1.346 . S
C221 C220 1.369 . S
C221 H224 0.928 . S
C222 N218 1.345 . S
C222 C223 1.371 . S
C222 H225 0.931 . S
C223 C219 1.391 . S
C223 C222 1.371 . S
C223 H230 0.930 . S
H224 C221 0.928 . S
H225 C222 0.931 . S
H226 C202 0.930 . S
H227 C199 0.930 . S
H228 C208 0.930 . S
H229 C220 0.929 . S
H230 C223 0.930 . S
C231 C232 1.351 . S
C231 N234 1.368 . S
C231 H236 0.931 . S
C232 C231 1.351 . S
C232 N233 1.373 . S
C232 H260 0.930 . S
N233 C232 1.373 . S
N233 C235 1.340 . S
N234 C231 1.368 . S
N234 C235 1.321 . S
N234 Co237 2.135 . S
C235 N233 1.340 . S
C235 N234 1.321 . S
C235 H259 0.930 . S
H236 C231 0.931 . S
Co237 N234 2.135 . S
Co237 N240 2.121 . S
Co237 O245 2.055 . S
Co237 O248 2.039 . S
Co237 N251 2.140 . S
C238 O239 1.227 . S
C238 O248 1.265 . S
O239 C238 1.227 . S
N240 Co237 2.121 . S
N240 C242 1.375 . S
N240 C243 1.313 . S
C241 C242 1.338 . S
C241 N244 1.377 . S
C241 H261 0.930 . S
C242 N240 1.375 . S
C242 C241 1.338 . S
C242 H246 0.931 . S
C243 N240 1.313 . S
C243 N244 1.344 . S
C243 H247 0.930 . S
N244 C241 1.377 . S
N244 C243 1.344 . S
O245 Co237 2.055 . S
O245 C249 1.253 . S
H246 C242 0.931 . S
H247 C243 0.930 . S
O248 Co237 2.039 . S
O248 C238 1.265 . S
C249 O245 1.253 . S
C249 O250 1.227 . S
O250 C249 1.227 . S
N251 Co237 2.140 . S
N251 C254 1.346 . S
N251 C255 1.345 . S
C252 C253 1.387 . S
C252 C256 1.391 . S
C253 C252 1.387 . S
C253 C254 1.369 . S
C253 H262 0.929 . S
C254 N251 1.346 . S
C254 C253 1.369 . S
C254 H257 0.928 . S
C255 N251 1.345 . S
C255 C256 1.371 . S
C255 H258 0.931 . S
C256 C252 1.391 . S
C256 C255 1.371 . S
C256 H263 0.930 . S
H257 C254 0.928 . S
H258 C255 0.931 . S
H259 C235 0.930 . S
H260 C232 0.930 . S
H261 C241 0.930 . S
H262 C253 0.929 . S
H263 C256 0.930 . S
C264 C265 1.351 . S
C264 N267 1.368 . S
C264 H269 0.931 . S
C265 C264 1.351 . S
C265 N266 1.373 . S
C265 H293 0.930 . S
N266 C265 1.373 . S
N266 C268 1.340 . S
N267 C264 1.368 . S
N267 C268 1.321 . S
N267 Co270 2.135 . S
C268 N266 1.340 . S
C268 N267 1.321 . S
C268 H292 0.930 . S
H269 C264 0.931 . S
Co270 N267 2.135 . S
Co270 N273 2.121 . S
Co270 O278 2.055 . S
Co270 O281 2.039 . S
Co270 N284 2.140 . S
C271 O272 1.227 . S
C271 O281 1.265 . S
O272 C271 1.227 . S
N273 Co270 2.121 . S
N273 C275 1.375 . S
N273 C276 1.313 . S
C274 C275 1.338 . S
C274 N277 1.377 . S
C274 H294 0.930 . S
C275 N273 1.375 . S
C275 C274 1.338 . S
C275 H279 0.931 . S
C276 N273 1.313 . S
C276 N277 1.344 . S
C276 H280 0.930 . S
N277 C274 1.377 . S
N277 C276 1.344 . S
O278 Co270 2.055 . S
O278 C282 1.253 . S
H279 C275 0.931 . S
H280 C276 0.930 . S
O281 Co270 2.039 . S
O281 C271 1.265 . S
C282 O278 1.253 . S
C282 O283 1.227 . S
O283 C282 1.227 . S
N284 Co270 2.140 . S
N284 C287 1.346 . S
N284 C288 1.345 . S
C285 C286 1.387 . S
C285 C289 1.391 . S
C286 C285 1.387 . S
C286 C287 1.369 . S
C286 H295 0.929 . S
C287 N284 1.346 . S
C287 C286 1.369 . S
C287 H290 0.928 . S
C288 N284 1.345 . S
C288 C289 1.371 . S
C288 H291 0.931 . S
C289 C285 1.391 . S
C289 C288 1.371 . S
C289 H296 0.930 . S
H290 C287 0.928 . S
H291 C288 0.931 . S
H292 C268 0.930 . S
H293 C265 0.930 . S
H294 C274 0.930 . S
H295 C286 0.929 . S
H296 C289 0.930 . S
C297 C298 1.351 . S
C297 N300 1.368 . S
C297 H302 0.931 . S
C298 C297 1.351 . S
C298 N299 1.373 . S
C298 H326 0.930 . S
N299 C298 1.373 . S
N299 C301 1.340 . S
N300 C297 1.368 . S
N300 C301 1.321 . S
N300 Co303 2.135 . S
C301 N299 1.340 . S
C301 N300 1.321 . S
C301 H325 0.930 . S
H302 C297 0.931 . S
Co303 N300 2.135 . S
Co303 N306 2.121 . S
Co303 O311 2.055 . S
Co303 O314 2.039 . S
Co303 N317 2.140 . S
C304 O305 1.227 . S
C304 O314 1.265 . S
O305 C304 1.227 . S
N306 Co303 2.121 . S
N306 C308 1.375 . S
N306 C309 1.313 . S
C307 C308 1.338 . S
C307 N310 1.377 . S
C307 H327 0.930 . S
C308 N306 1.375 . S
C308 C307 1.338 . S
C308 H312 0.931 . S
C309 N306 1.313 . S
C309 N310 1.344 . S
C309 H313 0.930 . S
N310 C307 1.377 . S
N310 C309 1.344 . S
O311 Co303 2.055 . S
O311 C315 1.253 . S
H312 C308 0.931 . S
H313 C309 0.930 . S
O314 Co303 2.039 . S
O314 C304 1.265 . S
C315 O311 1.253 . S
C315 O316 1.227 . S
O316 C315 1.227 . S
N317 Co303 2.140 . S
N317 C320 1.346 . S
N317 C321 1.345 . S
C318 C319 1.387 . S
C318 C322 1.391 . S
C319 C318 1.387 . S
C319 C320 1.369 . S
C319 H328 0.929 . S
C320 N317 1.346 . S
C320 C319 1.369 . S
C320 H323 0.928 . S
C321 N317 1.345 . S
C321 C322 1.371 . S
C321 H324 0.931 . S
C322 C318 1.391 . S
C322 C321 1.371 . S
C322 H329 0.930 . S
H323 C320 0.928 . S
H324 C321 0.931 . S
H325 C301 0.930 . S
H326 C298 0.930 . S
H327 C307 0.930 . S
H328 C319 0.929 . S
H329 C322 0.930 . S
C330 C331 1.351 . S
C330 N333 1.368 . S
C330 H335 0.931 . S
C331 C330 1.351 . S
C331 N332 1.373 . S
C331 H359 0.930 . S
N332 C331 1.373 . S
N332 C334 1.340 . S
N333 C330 1.368 . S
N333 C334 1.321 . S
N333 Co336 2.135 . S
C334 N332 1.340 . S
C334 N333 1.321 . S
C334 H358 0.930 . S
H335 C330 0.931 . S
Co336 N333 2.135 . S
Co336 N339 2.121 . S
Co336 O344 2.055 . S
Co336 O347 2.039 . S
Co336 N350 2.140 . S
C337 O338 1.227 . S
C337 O347 1.265 . S
O338 C337 1.227 . S
N339 Co336 2.121 . S
N339 C341 1.375 . S
N339 C342 1.313 . S
C340 C341 1.338 . S
C340 N343 1.377 . S
C340 H360 0.930 . S
C341 N339 1.375 . S
C341 C340 1.338 . S
C341 H345 0.931 . S
C342 N339 1.313 . S
C342 N343 1.344 . S
C342 H346 0.930 . S
N343 C340 1.377 . S
N343 C342 1.344 . S
O344 Co336 2.055 . S
O344 C348 1.253 . S
H345 C341 0.931 . S
H346 C342 0.930 . S
O347 Co336 2.039 . S
O347 C337 1.265 . S
C348 O344 1.253 . S
C348 O349 1.227 . S
O349 C348 1.227 . S
N350 Co336 2.140 . S
N350 C353 1.346 . S
N350 C354 1.345 . S
C351 C352 1.387 . S
C351 C355 1.391 . S
C352 C351 1.387 . S
C352 C353 1.369 . S
C352 H361 0.929 . S
C353 N350 1.346 . S
C353 C352 1.369 . S
C353 H356 0.928 . S
C354 N350 1.345 . S
C354 C355 1.371 . S
C354 H357 0.931 . S
C355 C351 1.391 . S
C355 C354 1.371 . S
C355 H362 0.930 . S
H356 C353 0.928 . S
H357 C354 0.931 . S
H358 C334 0.930 . S
H359 C331 0.930 . S
H360 C340 0.930 . S
H361 C352 0.929 . S
H362 C355 0.930 . S
C363 C364 1.351 . S
C363 N366 1.368 . S
C363 H368 0.931 . S
C364 C363 1.351 . S
C364 N365 1.373 . S
C364 H392 0.930 . S
N365 C364 1.373 . S
N365 C367 1.340 . S
N366 C363 1.368 . S
N366 C367 1.321 . S
N366 Co369 2.135 . S
C367 N365 1.340 . S
C367 N366 1.321 . S
C367 H391 0.930 . S
H368 C363 0.931 . S
Co369 N366 2.135 . S
Co369 N372 2.121 . S
Co369 O377 2.055 . S
Co369 O380 2.039 . S
Co369 N383 2.140 . S
C370 O371 1.227 . S
C370 O380 1.265 . S
O371 C370 1.227 . S
N372 Co369 2.121 . S
N372 C374 1.375 . S
N372 C375 1.313 . S
C373 C374 1.338 . S
C373 N376 1.377 . S
C373 H393 0.930 . S
C374 N372 1.375 . S
C374 C373 1.338 . S
C374 H378 0.931 . S
C375 N372 1.313 . S
C375 N376 1.344 . S
C375 H379 0.930 . S
N376 C373 1.377 . S
N376 C375 1.344 . S
O377 Co369 2.055 . S
O377 C381 1.253 . S
H378 C374 0.931 . S
H379 C375 0.930 . S
O380 Co369 2.039 . S
O380 C370 1.265 . S
C381 O377 1.253 . S
C381 O382 1.227 . S
O382 C381 1.227 . S
N383 Co369 2.140 . S
N383 C386 1.346 . S
N383 C387 1.345 . S
C384 C385 1.387 . S
C384 C388 1.391 . S
C385 C384 1.387 . S
C385 C386 1.369 . S
C385 H394 0.929 . S
C386 N383 1.346 . S
C386 C385 1.369 . S
C386 H389 0.928 . S
C387 N383 1.345 . S
C387 C388 1.371 . S
C387 H390 0.931 . S
C388 C384 1.391 . S
C388 C387 1.371 . S
C388 H395 0.930 . S
H389 C386 0.928 . S
H390 C387 0.931 . S
H391 C367 0.930 . S
H392 C364 0.930 . S
H393 C373 0.930 . S
H394 C385 0.929 . S
H395 C388 0.930 . S
H396 C402 0.930 . S
H397 C406 0.930 . S
H398 C411 0.929 . S
H399 C409 0.929 . S
H400 C404 0.929 . S
H401 C410 0.929 . S
C402 H396 0.930 . S
C402 C403 1.367 . S
C402 C410 1.378 . S
C403 C402 1.367 . S
C403 C411 1.433 . S
C404 H400 0.929 . S
C404 C406 1.378 . S
C404 C408 1.350 . S
C405 C408 1.463 . S
C405 C410 1.350 . S
C405 N413 1.427 . S
C406 H397 0.930 . S
C406 C404 1.378 . S
C406 C407 1.367 . S
C407 C406 1.367 . S
C407 C409 1.433 . S
C408 C404 1.350 . S
C408 C405 1.463 . S
C408 N412 1.427 . S
C409 H399 0.929 . S
C409 C407 1.433 . S
C409 N412 1.384 . S
C410 H401 0.929 . S
C410 C402 1.378 . S
C410 C405 1.350 . S
C411 H398 0.929 . S
C411 C403 1.433 . S
C411 N413 1.384 . S
N412 C408 1.427 . S
N412 C409 1.384 . S
N413 C405 1.427 . S
N413 C411 1.384 . S
H414 C420 0.930 . S
H415 C424 0.930 . S
H416 C429 0.929 . S
H417 C427 0.929 . S
H418 C422 0.929 . S
H419 C428 0.929 . S
C420 H414 0.930 . S
C420 C421 1.367 . S
C420 C428 1.378 . S
C421 C420 1.367 . S
C421 C429 1.433 . S
C422 H418 0.929 . S
C422 C424 1.378 . S
C422 C426 1.350 . S
C423 C426 1.463 1_655 S
C423 C428 1.350 . S
C423 N431 1.427 . S
C424 H415 0.930 . S
C424 C422 1.378 . S
C424 C425 1.367 . S
C425 C424 1.367 . S
C425 C427 1.433 . S
C426 C422 1.350 . S
C426 C423 1.463 1_455 S
C426 N430 1.427 . S
C427 H417 0.929 . S
C427 C425 1.433 . S
C427 N430 1.384 . S
C428 H419 0.929 . S
C428 C420 1.378 . S
C428 C423 1.350 . S
C429 H416 0.929 . S
C429 C421 1.433 . S
C429 N431 1.384 . S
N430 C426 1.427 . S
N430 C427 1.384 . S
N431 C423 1.427 . S
N431 C429 1.384 . S
H432 C438 0.930 . S
H433 C442 0.930 . S
H434 C447 0.929 . S
H435 C445 0.929 . S
H436 C440 0.929 . S
H437 C446 0.929 . S
C438 H432 0.930 . S
C438 C439 1.367 . S
C438 C446 1.378 . S
C439 C438 1.367 . S
C439 C447 1.433 . S
C440 H436 0.929 . S
C440 C442 1.378 . S
C440 C444 1.350 . S
C441 C444 1.463 1_545 S
C441 C446 1.350 . S
C441 N449 1.427 . S
C442 H433 0.930 . S
C442 C440 1.378 . S
C442 C443 1.367 . S
C443 C442 1.367 . S
C443 C445 1.433 . S
C444 C440 1.350 . S
C444 C441 1.463 1_565 S
C444 N448 1.427 . S
C445 H435 0.929 . S
C445 C443 1.433 . S
C445 N448 1.384 . S
C446 H437 0.929 . S
C446 C438 1.378 . S
C446 C441 1.350 . S
C447 H434 0.929 . S
C447 C439 1.433 . S
C447 N449 1.384 . S
N448 C444 1.427 . S
N448 C445 1.384 . S
N449 C441 1.427 . S
N449 C447 1.384 . S
H450 C456 0.930 . S
H451 C460 0.930 . S
H452 C465 0.929 . S
H453 C463 0.929 . S
H454 C458 0.929 . S
H455 C464 0.929 . S
C456 H450 0.930 . S
C456 C457 1.367 . S
C456 C464 1.378 . S
C457 C456 1.367 . S
C457 C465 1.433 . S
C458 H454 0.929 . S
C458 C460 1.378 . S
C458 C462 1.350 . S
C459 C462 1.463 . S
C459 C464 1.350 . S
C459 N467 1.427 . S
C460 H451 0.930 . S
C460 C458 1.378 . S
C460 C461 1.367 . S
C461 C460 1.367 . S
C461 C463 1.433 . S
C462 C458 1.350 . S
C462 C459 1.463 . S
C462 N466 1.427 . S
C463 H453 0.929 . S
C463 C461 1.433 . S
C463 N466 1.384 . S
C464 H455 0.929 . S
C464 C456 1.378 . S
C464 C459 1.350 . S
C465 H452 0.929 . S
C465 C457 1.433 . S
C465 N467 1.384 . S
N466 C462 1.427 . S
N466 C463 1.384 . S
N467 C459 1.427 . S
N467 C465 1.384 . S
H468 C474 0.930 . S
H469 C478 0.930 . S
H470 C483 0.929 . S
H471 C481 0.929 . S
H472 C476 0.929 . S
H473 C482 0.929 . S
C474 H468 0.930 . S
C474 C475 1.367 . S
C474 C482 1.378 . S
C475 C474 1.367 . S
C475 C483 1.433 . S
C476 H472 0.929 . S
C476 C478 1.378 . S
C476 C480 1.350 . S
C477 C480 1.463 1_455 S
C477 C482 1.350 . S
C477 N485 1.427 . S
C478 H469 0.930 . S
C478 C476 1.378 . S
C478 C479 1.367 . S
C479 C478 1.367 . S
C479 C481 1.433 . S
C480 C476 1.350 . S
C480 C477 1.463 1_655 S
C480 N484 1.427 . S
C481 H471 0.929 . S
C481 C479 1.433 . S
C481 N484 1.384 . S
C482 H473 0.929 . S
C482 C474 1.378 . S
C482 C477 1.350 . S
C483 H470 0.929 . S
C483 C475 1.433 . S
C483 N485 1.384 . S
N484 C480 1.427 . S
N484 C481 1.384 . S
N485 C477 1.427 . S
N485 C483 1.384 . S
H486 C492 0.930 . S
H487 C496 0.930 . S
H488 C501 0.929 . S
H489 C499 0.929 . S
H490 C494 0.929 . S
H491 C500 0.929 . S
C492 H486 0.930 . S
C492 C493 1.367 . S
C492 C500 1.378 . S
C493 C492 1.367 . S
C493 C501 1.433 . S
C494 H490 0.929 . S
C494 C496 1.378 . S
C494 C498 1.350 . S
C495 C498 1.463 1_565 S
C495 C500 1.350 . S
C495 N503 1.427 . S
C496 H487 0.930 . S
C496 C494 1.378 . S
C496 C497 1.367 . S
C497 C496 1.367 . S
C497 C499 1.433 . S
C498 C494 1.350 . S
C498 C495 1.463 1_545 S
C498 N502 1.427 . S
C499 H489 0.929 . S
C499 C497 1.433 . S
C499 N502 1.384 . S
C500 H491 0.929 . S
C500 C492 1.378 . S
C500 C495 1.350 . S
C501 H488 0.929 . S
C501 C493 1.433 . S
C501 N503 1.384 . S
N502 C498 1.427 . S
N502 C499 1.384 . S
N503 C495 1.427 . S
N503 C501 1.384 . S
H504 C510 0.930 . S
H505 C514 0.930 . S
H506 C519 0.929 . S
H507 C517 0.929 . S
H508 C512 0.929 . S
H509 C518 0.929 . S
C510 H504 0.930 . S
C510 C511 1.367 . S
C510 C518 1.378 . S
C511 C510 1.367 . S
C511 C519 1.433 . S
C512 H508 0.929 . S
C512 C514 1.378 . S
C512 C516 1.350 . S
C513 C516 1.463 1_556 S
C513 C518 1.350 . S
C513 N521 1.427 . S
C514 H505 0.930 . S
C514 C512 1.378 . S
C514 C515 1.367 . S
C515 C514 1.367 . S
C515 C517 1.433 . S
C516 C512 1.350 . S
C516 C513 1.463 1_554 S
C516 N520 1.427 . S
C517 H507 0.929 . S
C517 C515 1.433 . S
C517 N520 1.384 . S
C518 H509 0.929 . S
C518 C510 1.378 . S
C518 C513 1.350 . S
C519 H506 0.929 . S
C519 C511 1.433 . S
C519 N521 1.384 . S
N520 C516 1.427 . S
N520 C517 1.384 . S
N521 C513 1.427 . S
N521 C519 1.384 . S
H522 C528 0.930 . S
H523 C532 0.930 . S
H524 C537 0.929 . S
H525 C535 0.929 . S
H526 C530 0.929 . S
H527 C536 0.929 . S
C528 H522 0.930 . S
C528 C529 1.367 . S
C528 C536 1.378 . S
C529 C528 1.367 . S
C529 C537 1.433 . S
C530 H526 0.929 . S
C530 C532 1.378 . S
C530 C534 1.350 . S
C531 C534 1.463 . S
C531 C536 1.350 . S
C531 N539 1.427 . S
C532 H523 0.930 . S
C532 C530 1.378 . S
C532 C533 1.367 . S
C533 C532 1.367 . S
C533 C535 1.433 . S
C534 C530 1.350 . S
C534 C531 1.463 . S
C534 N538 1.427 . S
C535 H525 0.929 . S
C535 C533 1.433 . S
C535 N538 1.384 . S
C536 H527 0.929 . S
C536 C528 1.378 . S
C536 C531 1.350 . S
C537 H524 0.929 . S
C537 C529 1.433 . S
C537 N539 1.384 . S
N538 C534 1.427 . S
N538 C535 1.384 . S
N539 C531 1.427 . S
N539 C537 1.384 . S
H540 C546 0.930 . S
H541 C550 0.930 . S
H542 C555 0.929 . S
H543 C553 0.929 . S
H544 C548 0.929 . S
H545 C554 0.929 . S
C546 H540 0.930 . S
C546 C547 1.367 . S
C546 C554 1.378 . S
C547 C546 1.367 . S
C547 C555 1.433 . S
C548 H544 0.929 . S
C548 C550 1.378 . S
C548 C552 1.350 . S
C549 C552 1.463 1_554 S
C549 C554 1.350 . S
C549 N557 1.427 . S
C550 H541 0.930 . S
C550 C548 1.378 . S
C550 C551 1.367 . S
C551 C550 1.367 . S
C551 C553 1.433 . S
C552 C548 1.350 . S
C552 C549 1.463 1_556 S
C552 N556 1.427 . S
C553 H543 0.929 . S
C553 C551 1.433 . S
C553 N556 1.384 . S
C554 H545 0.929 . S
C554 C546 1.378 . S
C554 C549 1.350 . S
C555 H542 0.929 . S
C555 C547 1.433 . S
C555 N557 1.384 . S
N556 C552 1.427 . S
N556 C553 1.384 . S
N557 C549 1.427 . S
N557 C555 1.384 . S
H558 C564 0.930 . S
H559 C568 0.930 . S
H560 C573 0.929 . S
H561 C571 0.929 . S
H562 C566 0.929 . S
H563 C572 0.929 . S
C564 H558 0.930 . S
C564 C565 1.367 . S
C564 C572 1.378 . S
C565 C564 1.367 . S
C565 C573 1.433 . S
C566 H562 0.929 . S
C566 C568 1.378 . S
C566 C570 1.350 . S
C567 C570 1.463 . S
C567 C572 1.350 . S
C567 N575 1.427 . S
C568 H559 0.930 . S
C568 C566 1.378 . S
C568 C569 1.367 . S
C569 C568 1.367 . S
C569 C571 1.433 . S
C570 C566 1.350 . S
C570 C567 1.463 . S
C570 N574 1.427 . S
C571 H561 0.929 . S
C571 C569 1.433 . S
C571 N574 1.384 . S
C572 H563 0.929 . S
C572 C564 1.378 . S
C572 C567 1.350 . S
C573 H560 0.929 . S
C573 C565 1.433 . S
C573 N575 1.384 . S
N574 C570 1.427 . S
N574 C571 1.384 . S
N575 C567 1.427 . S
N575 C573 1.384 . S
H576 C582 0.930 . S
H577 C586 0.930 . S
H578 C591 0.929 . S
H579 C589 0.929 . S
H580 C584 0.929 . S
H581 C590 0.929 . S
C582 H576 0.930 . S
C582 C583 1.367 . S
C582 C590 1.378 . S
C583 C582 1.367 . S
C583 C591 1.433 . S
C584 H580 0.929 . S
C584 C586 1.378 . S
C584 C588 1.350 . S
C585 C588 1.463 1_556 S
C585 C590 1.350 . S
C585 N593 1.427 . S
C586 H577 0.930 . S
C586 C584 1.378 . S
C586 C587 1.367 . S
C587 C586 1.367 . S
C587 C589 1.433 . S
C588 C584 1.350 . S
C588 C585 1.463 1_554 S
C588 N592 1.427 . S
C589 H579 0.929 . S
C589 C587 1.433 . S
C589 N592 1.384 . S
C590 H581 0.929 . S
C590 C582 1.378 . S
C590 C585 1.350 . S
C591 H578 0.929 . S
C591 C583 1.433 . S
C591 N593 1.384 . S
N592 C588 1.427 . S
N592 C589 1.384 . S
N593 C585 1.427 . S
N593 C591 1.384 . S
H594 C600 0.930 . S
H595 C604 0.930 . S
H596 C609 0.929 . S
H597 C607 0.929 . S
H598 C602 0.929 . S
H599 C608 0.929 . S
C600 H594 0.930 . S
C600 C601 1.367 . S
C600 C608 1.378 . S
C601 C600 1.367 . S
C601 C609 1.433 . S
C602 H598 0.929 . S
C602 C604 1.378 . S
C602 C606 1.350 . S
C603 C606 1.463 . S
C603 C608 1.350 . S
C603 N611 1.427 . S
C604 H595 0.930 . S
C604 C602 1.378 . S
C604 C605 1.367 . S
C605 C604 1.367 . S
C605 C607 1.433 . S
C606 C602 1.350 . S
C606 C603 1.463 . S
C606 N610 1.427 . S
C607 H597 0.929 . S
C607 C605 1.433 . S
C607 N610 1.384 . S
C608 H599 0.929 . S
C608 C600 1.378 . S
C608 C603 1.350 . S
C609 H596 0.929 . S
C609 C601 1.433 . S
C609 N611 1.384 . S
N610 C606 1.427 . S
N610 C607 1.384 . S
N611 C603 1.427 . S
N611 C609 1.384 . S
H612 C618 0.930 . S
H613 C622 0.930 . S
H614 C627 0.929 . S
H615 C625 0.929 . S
H616 C620 0.929 . S
H617 C626 0.929 . S
C618 H612 0.930 . S
C618 C619 1.367 . S
C618 C626 1.378 . S
C619 C618 1.367 . S
C619 C627 1.433 . S
C620 H616 0.929 . S
C620 C622 1.378 . S
C620 C624 1.350 . S
C621 C624 1.463 1_554 S
C621 C626 1.350 . S
C621 N629 1.427 . S
C622 H613 0.930 . S
C622 C620 1.378 . S
C622 C623 1.367 . S
C623 C622 1.367 . S
C623 C625 1.433 . S
C624 C620 1.350 . S
C624 C621 1.463 1_556 S
C624 N628 1.427 . S
C625 H615 0.929 . S
C625 C623 1.433 . S
C625 N628 1.384 . S
C626 H617 0.929 . S
C626 C618 1.378 . S
C626 C621 1.350 . S
C627 H614 0.929 . S
C627 C619 1.433 . S
C627 N629 1.384 . S
N628 C624 1.427 . S
N628 C625 1.384 . S
N629 C621 1.427 . S
N629 C627 1.384 . S
H630 C636 0.930 . S
H631 C640 0.930 . S
H632 C645 0.929 . S
H633 C643 0.929 . S
H634 C638 0.929 . S
H635 C644 0.929 . S
C636 H630 0.930 . S
C636 C637 1.367 . S
C636 C644 1.378 . S
C637 C636 1.367 . S
C637 C645 1.433 . S
C638 H634 0.929 . S
C638 C640 1.378 . S
C638 C642 1.350 . S
C639 C642 1.463 . S
C639 C644 1.350 . S
C639 N647 1.427 . S
C640 H631 0.930 . S
C640 C638 1.378 . S
C640 C641 1.367 . S
C641 C640 1.367 . S
C641 C643 1.433 . S
C642 C638 1.350 . S
C642 C639 1.463 . S
C642 N646 1.427 . S
C643 H633 0.929 . S
C643 C641 1.433 . S
C643 N646 1.384 . S
C644 H635 0.929 . S
C644 C636 1.378 . S
C644 C639 1.350 . S
C645 H632 0.929 . S
C645 C637 1.433 . S
C645 N647 1.384 . S
N646 C642 1.427 . S
N646 C643 1.384 . S
N647 C639 1.427 . S
N647 C645 1.384 . S
H648 C654 0.930 . S
H649 C658 0.930 . S
H650 C663 0.929 . S
H651 C661 0.929 . S
H652 C656 0.929 . S
H653 C662 0.929 . S
C654 H648 0.930 . S
C654 C655 1.367 . S
C654 C662 1.378 . S
C655 C654 1.367 . S
C655 C663 1.433 . S
C656 H652 0.929 . S
C656 C658 1.378 . S
C656 C660 1.350 . S
C657 C660 1.463 1_556 S
C657 C662 1.350 . S
C657 N665 1.427 . S
C658 H649 0.930 . S
C658 C656 1.378 . S
C658 C659 1.367 . S
C659 C658 1.367 . S
C659 C661 1.433 . S
C660 C656 1.350 . S
C660 C657 1.463 1_554 S
C660 N664 1.427 . S
C661 H651 0.929 . S
C661 C659 1.433 . S
C661 N664 1.384 . S
C662 H653 0.929 . S
C662 C654 1.378 . S
C662 C657 1.350 . S
C663 H650 0.929 . S
C663 C655 1.433 . S
C663 N665 1.384 . S
N664 C660 1.427 . S
N664 C661 1.384 . S
N665 C657 1.427 . S
N665 C663 1.384 . S
H666 C672 0.930 . S
H667 C676 0.930 . S
H668 C681 0.929 . S
H669 C679 0.929 . S
H670 C674 0.929 . S
H671 C680 0.929 . S
C672 H666 0.930 . S
C672 C673 1.367 . S
C672 C680 1.378 . S
C673 C672 1.367 . S
C673 C681 1.433 . S
C674 H670 0.929 . S
C674 C676 1.378 . S
C674 C678 1.350 . S
C675 C678 1.463 . S
C675 C680 1.350 . S
C675 N683 1.427 . S
C676 H667 0.930 . S
C676 C674 1.378 . S
C676 C677 1.367 . S
C677 C676 1.367 . S
C677 C679 1.433 . S
C678 C674 1.350 . S
C678 C675 1.463 . S
C678 N682 1.427 . S
C679 H669 0.929 . S
C679 C677 1.433 . S
C679 N682 1.384 . S
C680 H671 0.929 . S
C680 C672 1.378 . S
C680 C675 1.350 . S
C681 H668 0.929 . S
C681 C673 1.433 . S
C681 N683 1.384 . S
N682 C678 1.427 . S
N682 C679 1.384 . S
N683 C675 1.427 . S
N683 C681 1.384 . S
H684 C690 0.930 . S
H685 C694 0.930 . S
H686 C699 0.929 . S
H687 C697 0.929 . S
H688 C692 0.929 . S
H689 C698 0.929 . S
C690 H684 0.930 . S
C690 C691 1.367 . S
C690 C698 1.378 . S
C691 C690 1.367 . S
C691 C699 1.433 . S
C692 H688 0.929 . S
C692 C694 1.378 . S
C692 C696 1.350 . S
C693 C696 1.463 1_556 S
C693 C698 1.350 . S
C693 N701 1.427 . S
C694 H685 0.930 . S
C694 C692 1.378 . S
C694 C695 1.367 . S
C695 C694 1.367 . S
C695 C697 1.433 . S
C696 C692 1.350 . S
C696 C693 1.463 1_554 S
C696 N700 1.427 . S
C697 H687 0.929 . S
C697 C695 1.433 . S
C697 N700 1.384 . S
C698 H689 0.929 . S
C698 C690 1.378 . S
C698 C693 1.350 . S
C699 H686 0.929 . S
C699 C691 1.433 . S
C699 N701 1.384 . S
N700 C696 1.427 . S
N700 C697 1.384 . S
N701 C693 1.427 . S
N701 C699 1.384 . S
H702 C708 0.930 . S
H703 C712 0.930 . S
H704 C717 0.929 . S
H705 C715 0.929 . S
H706 C710 0.929 . S
H707 C716 0.929 . S
C708 H702 0.930 . S
C708 C709 1.367 . S
C708 C716 1.378 . S
C709 C708 1.367 . S
C709 C717 1.433 . S
C710 H706 0.929 . S
C710 C712 1.378 . S
C710 C714 1.350 . S
C711 C714 1.463 . S
C711 C716 1.350 . S
C711 N719 1.427 . S
C712 H703 0.930 . S
C712 C710 1.378 . S
C712 C713 1.367 . S
C713 C712 1.367 . S
C713 C715 1.433 . S
C714 C710 1.350 . S
C714 C711 1.463 . S
C714 N718 1.427 . S
C715 H705 0.929 . S
C715 C713 1.433 . S
C715 N718 1.384 . S
C716 H707 0.929 . S
C716 C708 1.378 . S
C716 C711 1.350 . S
C717 H704 0.929 . S
C717 C709 1.433 . S
C717 N719 1.384 . S
N718 C714 1.427 . S
N718 C715 1.384 . S
N719 C711 1.427 . S
N719 C717 1.384 . S
H720 C726 0.930 . S
H721 C730 0.930 . S
H722 C735 0.929 . S
H723 C733 0.929 . S
H724 C728 0.929 . S
H725 C734 0.929 . S
C726 H720 0.930 . S
C726 C727 1.367 . S
C726 C734 1.378 . S
C727 C726 1.367 . S
C727 C735 1.433 . S
C728 H724 0.929 . S
C728 C730 1.378 . S
C728 C732 1.350 . S
C729 C732 1.463 . S
C729 C734 1.350 . S
C729 N737 1.427 . S
C730 H721 0.930 . S
C730 C728 1.378 . S
C730 C731 1.367 . S
C731 C730 1.367 . S
C731 C733 1.433 . S
C732 C728 1.350 . S
C732 C729 1.463 . S
C732 N736 1.427 . S
C733 H723 0.929 . S
C733 C731 1.433 . S
C733 N736 1.384 . S
C734 H725 0.929 . S
C734 C726 1.378 . S
C734 C729 1.350 . S
C735 H722 0.929 . S
C735 C727 1.433 . S
C735 N737 1.384 . S
N736 C732 1.427 . S
N736 C733 1.384 . S
N737 C729 1.427 . S
N737 C735 1.384 . S
H738 C744 0.930 . S
H739 C748 0.930 . S
H740 C753 0.929 . S
H741 C751 0.929 . S
H742 C746 0.929 . S
H743 C752 0.929 . S
C744 H738 0.930 . S
C744 C745 1.367 . S
C744 C752 1.378 . S
C745 C744 1.367 . S
C745 C753 1.433 . S
C746 H742 0.929 . S
C746 C748 1.378 . S
C746 C750 1.350 . S
C747 C750 1.463 . S
C747 C752 1.350 . S
C747 N755 1.427 . S
C748 H739 0.930 . S
C748 C746 1.378 . S
C748 C749 1.367 . S
C749 C748 1.367 . S
C749 C751 1.433 . S
C750 C746 1.350 . S
C750 C747 1.463 . S
C750 N754 1.427 . S
C751 H741 0.929 . S
C751 C749 1.433 . S
C751 N754 1.384 . S
C752 H743 0.929 . S
C752 C744 1.378 . S
C752 C747 1.350 . S
C753 H740 0.929 . S
C753 C745 1.433 . S
C753 N755 1.384 . S
N754 C750 1.427 . S
N754 C751 1.384 . S
N755 C747 1.427 . S
N755 C753 1.384 . S
H756 C762 0.930 . S
H757 C766 0.930 . S
H758 C771 0.929 . S
H759 C769 0.929 . S
H760 C764 0.929 . S
H761 C770 0.929 . S
C762 H756 0.930 . S
C762 C763 1.367 . S
C762 C770 1.378 . S
C763 C762 1.367 . S
C763 C771 1.433 . S
C764 H760 0.929 . S
C764 C766 1.378 . S
C764 C768 1.350 . S
C765 C768 1.463 . S
C765 C770 1.350 . S
C765 N773 1.427 . S
C766 H757 0.930 . S
C766 C764 1.378 . S
C766 C767 1.367 . S
C767 C766 1.367 . S
C767 C769 1.433 . S
C768 C764 1.350 . S
C768 C765 1.463 . S
C768 N772 1.427 . S
C769 H759 0.929 . S
C769 C767 1.433 . S
C769 N772 1.384 . S
C770 H761 0.929 . S
C770 C762 1.378 . S
C770 C765 1.350 . S
C771 H758 0.929 . S
C771 C763 1.433 . S
C771 N773 1.384 . S
N772 C768 1.427 . S
N772 C769 1.384 . S
N773 C765 1.427 . S
N773 C771 1.384 . S
H774 C780 0.930 . S
H775 C784 0.930 . S
H776 C789 0.929 . S
H777 C787 0.929 . S
H778 C782 0.929 . S
H779 C788 0.929 . S
C780 H774 0.930 . S
C780 C781 1.367 . S
C780 C788 1.378 . S
C781 C780 1.367 . S
C781 C789 1.433 . S
C782 H778 0.929 . S
C782 C784 1.378 . S
C782 C786 1.350 . S
C783 C786 1.463 . S
C783 C788 1.350 . S
C783 N791 1.427 . S
C784 H775 0.930 . S
C784 C782 1.378 . S
C784 C785 1.367 . S
C785 C784 1.367 . S
C785 C787 1.433 . S
C786 C782 1.350 . S
C786 C783 1.463 . S
C786 N790 1.427 . S
C787 H777 0.929 . S
C787 C785 1.433 . S
C787 N790 1.384 . S
C788 H779 0.929 . S
C788 C780 1.378 . S
C788 C783 1.350 . S
C789 H776 0.929 . S
C789 C781 1.433 . S
C789 N791 1.384 . S
N790 C786 1.427 . S
N790 C787 1.384 . S
N791 C783 1.427 . S
N791 C789 1.384 . S
H792 C798 0.930 . S
H793 C802 0.930 . S
H794 C807 0.929 . S
H795 C805 0.929 . S
H796 C800 0.929 . S
H797 C806 0.929 . S
C798 H792 0.930 . S
C798 C799 1.367 . S
C798 C806 1.378 . S
C799 C798 1.367 . S
C799 C807 1.433 . S
C800 H796 0.929 . S
C800 C802 1.378 . S
C800 C804 1.350 . S
C801 C804 1.463 . S
C801 C806 1.350 . S
C801 N809 1.427 . S
C802 H793 0.930 . S
C802 C800 1.378 . S
C802 C803 1.367 . S
C803 C802 1.367 . S
C803 C805 1.433 . S
C804 C800 1.350 . S
C804 C801 1.463 . S
C804 N808 1.427 . S
C805 H795 0.929 . S
C805 C803 1.433 . S
C805 N808 1.384 . S
C806 H797 0.929 . S
C806 C798 1.378 . S
C806 C801 1.350 . S
C807 H794 0.929 . S
C807 C799 1.433 . S
C807 N809 1.384 . S
N808 C804 1.427 . S
N808 C805 1.384 . S
N809 C801 1.427 . S
N809 C807 1.384 . S
H810 C816 0.930 . S
H811 C820 0.930 . S
H812 C825 0.929 . S
H813 C823 0.929 . S
H814 C818 0.929 . S
H815 C824 0.929 . S
C816 H810 0.930 . S
C816 C817 1.367 . S
C816 C824 1.378 . S
C817 C816 1.367 . S
C817 C825 1.433 . S
C818 H814 0.929 . S
C818 C820 1.378 . S
C818 C822 1.350 . S
C819 C822 1.463 . S
C819 C824 1.350 . S
C819 N827 1.427 . S
C820 H811 0.930 . S
C820 C818 1.378 . S
C820 C821 1.367 . S
C821 C820 1.367 . S
C821 C823 1.433 . S
C822 C818 1.350 . S
C822 C819 1.463 . S
C822 N826 1.427 . S
C823 H813 0.929 . S
C823 C821 1.433 . S
C823 N826 1.384 . S
C824 H815 0.929 . S
C824 C816 1.378 . S
C824 C819 1.350 . S
C825 H812 0.929 . S
C825 C817 1.433 . S
C825 N827 1.384 . S
N826 C822 1.427 . S
N826 C823 1.384 . S
N827 C819 1.427 . S
N827 C825 1.384 . S
H828 C834 0.930 . S
H829 C838 0.930 . S
H830 C843 0.929 . S
H831 C841 0.929 . S
H832 C836 0.929 . S
H833 C842 0.929 . S
C834 H828 0.930 . S
C834 C835 1.367 . S
C834 C842 1.378 . S
C835 C834 1.367 . S
C835 C843 1.433 . S
C836 H832 0.929 . S
C836 C838 1.378 . S
C836 C840 1.350 . S
C837 C840 1.463 . S
C837 C842 1.350 . S
C837 N845 1.427 . S
C838 H829 0.930 . S
C838 C836 1.378 . S
C838 C839 1.367 . S
C839 C838 1.367 . S
C839 C841 1.433 . S
C840 C836 1.350 . S
C840 C837 1.463 . S
C840 N844 1.427 . S
C841 H831 0.929 . S
C841 C839 1.433 . S
C841 N844 1.384 . S
C842 H833 0.929 . S
C842 C834 1.378 . S
C842 C837 1.350 . S
C843 H830 0.929 . S
C843 C835 1.433 . S
C843 N845 1.384 . S
N844 C840 1.427 . S
N844 C841 1.384 . S
N845 C837 1.427 . S
N845 C843 1.384 . S
H846 C852 0.930 . S
H847 C856 0.930 . S
H848 C861 0.929 . S
H849 C859 0.929 . S
H850 C854 0.929 . S
H851 C860 0.929 . S
C852 H846 0.930 . S
C852 C853 1.367 . S
C852 C860 1.378 . S
C853 C852 1.367 . S
C853 C861 1.433 . S
C854 H850 0.929 . S
C854 C856 1.378 . S
C854 C858 1.350 . S
C855 C858 1.463 . S
C855 C860 1.350 . S
C855 N863 1.427 . S
C856 H847 0.930 . S
C856 C854 1.378 . S
C856 C857 1.367 . S
C857 C856 1.367 . S
C857 C859 1.433 . S
C858 C854 1.350 . S
C858 C855 1.463 . S
C858 N862 1.427 . S
C859 H849 0.929 . S
C859 C857 1.433 . S
C859 N862 1.384 . S
C860 H851 0.929 . S
C860 C852 1.378 . S
C860 C855 1.350 . S
C861 H848 0.929 . S
C861 C853 1.433 . S
C861 N863 1.384 . S
N862 C858 1.427 . S
N862 C859 1.384 . S
N863 C855 1.427 . S
N863 C861 1.384 . S
H864 C870 0.930 . S
H865 C874 0.930 . S
H866 C879 0.929 . S
H867 C877 0.929 . S
H868 C872 0.929 . S
H869 C878 0.929 . S
C870 H864 0.930 . S
C870 C871 1.367 . S
C870 C878 1.378 . S
C871 C870 1.367 . S
C871 C879 1.433 . S
C872 H868 0.929 . S
C872 C874 1.378 . S
C872 C876 1.350 . S
C873 C876 1.463 . S
C873 C878 1.350 . S
C873 N881 1.427 . S
C874 H865 0.930 . S
C874 C872 1.378 . S
C874 C875 1.367 . S
C875 C874 1.367 . S
C875 C877 1.433 . S
C876 C872 1.350 . S
C876 C873 1.463 . S
C876 N880 1.427 . S
C877 H867 0.929 . S
C877 C875 1.433 . S
C877 N880 1.384 . S
C878 H869 0.929 . S
C878 C870 1.378 . S
C878 C873 1.350 . S
C879 H866 0.929 . S
C879 C871 1.433 . S
C879 N881 1.384 . S
N880 C876 1.427 . S
N880 C877 1.384 . S
N881 C873 1.427 . S
N881 C879 1.384 . S
H882 C888 0.930 . S
H883 C892 0.930 . S
H884 C897 0.929 . S
H885 C895 0.929 . S
H886 C890 0.929 . S
H887 C896 0.929 . S
C888 H882 0.930 . S
C888 C889 1.367 . S
C888 C896 1.378 . S
C889 C888 1.367 . S
C889 C897 1.433 . S
C890 H886 0.929 . S
C890 C892 1.378 . S
C890 C894 1.350 . S
C891 C894 1.463 . S
C891 C896 1.350 . S
C891 N899 1.427 . S
C892 H883 0.930 . S
C892 C890 1.378 . S
C892 C893 1.367 . S
C893 C892 1.367 . S
C893 C895 1.433 . S
C894 C890 1.350 . S
C894 C891 1.463 . S
C894 N898 1.427 . S
C895 H885 0.929 . S
C895 C893 1.433 . S
C895 N898 1.384 . S
C896 H887 0.929 . S
C896 C888 1.378 . S
C896 C891 1.350 . S
C897 H884 0.929 . S
C897 C889 1.433 . S
C897 N899 1.384 . S
N898 C894 1.427 . S
N898 C895 1.384 . S
N899 C891 1.427 . S
N899 C897 1.384 . S
H900 C906 0.930 . S
H901 C910 0.930 . S
H902 C915 0.929 . S
H903 C913 0.929 . S
H904 C908 0.929 . S
H905 C914 0.929 . S
C906 H900 0.930 . S
C906 C907 1.367 . S
C906 C914 1.378 . S
C907 C906 1.367 . S
C907 C915 1.433 . S
C908 H904 0.929 . S
C908 C910 1.378 . S
C908 C912 1.350 . S
C909 C912 1.463 . S
C909 C914 1.350 . S
C909 N917 1.427 . S
C910 H901 0.930 . S
C910 C908 1.378 . S
C910 C911 1.367 . S
C911 C910 1.367 . S
C911 C913 1.433 . S
C912 C908 1.350 . S
C912 C909 1.463 . S
C912 N916 1.427 . S
C913 H903 0.929 . S
C913 C911 1.433 . S
C913 N916 1.384 . S
C914 H905 0.929 . S
C914 C906 1.378 . S
C914 C909 1.350 . S
C915 H902 0.929 . S
C915 C907 1.433 . S
C915 N917 1.384 . S
N916 C912 1.427 . S
N916 C913 1.384 . S
N917 C909 1.427 . S
N917 C915 1.384 . S
H918 C924 0.930 . S
H919 C928 0.930 . S
H920 C933 0.929 . S
H921 C931 0.929 . S
H922 C926 0.929 . S
H923 C932 0.929 . S
C924 H918 0.930 . S
C924 C925 1.367 . S
C924 C932 1.378 . S
C925 C924 1.367 . S
C925 C933 1.433 . S
C926 H922 0.929 . S
C926 C928 1.378 . S
C926 C930 1.350 . S
C927 C930 1.463 . S
C927 C932 1.350 . S
C927 N935 1.427 . S
C928 H919 0.930 . S
C928 C926 1.378 . S
C928 C929 1.367 . S
C929 C928 1.367 . S
C929 C931 1.433 . S
C930 C926 1.350 . S
C930 C927 1.463 . S
C930 N934 1.427 . S
C931 H921 0.929 . S
C931 C929 1.433 . S
C931 N934 1.384 . S
C932 H923 0.929 . S
C932 C924 1.378 . S
C932 C927 1.350 . S
C933 H920 0.929 . S
C933 C925 1.433 . S
C933 N935 1.384 . S
N934 C930 1.427 . S
N934 C931 1.384 . S
N935 C927 1.427 . S
N935 C933 1.384 . S
C403 N310 1.703 . S
C407 N13 1.703 . S
C421 N46 1.699 . S
C425 N343 1.702 . S
C439 N376 1.695 . S
C443 N79 1.699 . S
C457 N112 1.695 . S
C461 N211 1.692 . S
C475 N145 1.693 . S
C479 N244 1.691 . S
C493 N277 1.703 . S
C497 N178 1.700 . S
C511 C348 1.732 . S
C515 C18 1.725 . S
C529 C381 1.723 . S
C533 C51 1.733 . S
C547 C84 1.732 . S
C551 C216 1.726 . S
C565 C249 1.722 . S
C569 C117 1.731 . S
C583 C282 1.724 . S
C587 C150 1.733 . S
C601 C183 1.723 . S
C605 C315 1.733 . S
C619 C238 0.819 . S
C623 C106 0.796 . S
C637 C271 0.819 . S
C641 C139 0.815 . S
C655 C172 0.819 . S
C659 C304 0.816 . S
C673 C7 0.819 . S
C677 C337 0.796 . S
C691 C40 0.824 . S
C695 C370 0.808 . S
C709 C205 0.819 . S
C713 C73 0.796 . S
C727 N2 1.246 . S
C731 C153 1.311 . S
C745 N35 1.259 . S
C749 C186 1.310 . S
C763 N68 1.248 . S
C767 C21 1.313 . S
C781 C54 1.311 . S
C785 N101 1.260 . S
C799 N134 1.250 . S
C803 C87 1.311 . S
C817 C120 1.313 . S
C821 N167 1.242 . S
C835 C285 1.312 . S
C839 N200 1.243 . S
C853 C318 1.313 . S
C857 N233 1.241 . S
C871 C351 1.310 . S
C875 N266 1.260 . S
C889 N299 1.242 . S
C893 C384 1.313 . S
C907 C219 1.313 . S
C911 N332 1.242 . S
C925 N365 1.254 . S
C929 C252 1.310 . S
