# Generated by pormake.
# Topology zfv, (5)-cn, num edge types: 1
# Building blocks:
#     Node 0, Type 0, BuildingBlock: BEQFEK_clean_sbu_0, # of connection points: 5
#     Node 1, Type 0, BuildingBlock: BEQFEK_clean_sbu_0, # of connection points: 5
#     Node 2, Type 0, BuildingBlock: BEQFEK_clean_sbu_0, # of connection points: 5
#     Node 3, Type 0, BuildingBlock: BEQFEK_clean_sbu_0, # of connection points: 5
#     Node 4, Type 0, BuildingBlock: BEQFEK_clean_sbu_0, # of connection points: 5
#     Node 5, Type 0, BuildingBlock: BEQFEK_clean_sbu_0, # of connection points: 5
#     Node 6, Type 0, BuildingBlock: BEQFEK_clean_sbu_0, # of connection points: 5
#     Node 7, Type 0, BuildingBlock: BEQFEK_clean_sbu_0, # of connection points: 5
#     Node 8, Type 0, BuildingBlock: BEQFEK_clean_sbu_0, # of connection points: 5
#     Node 9, Type 0, BuildingBlock: BEQFEK_clean_sbu_0, # of connection points: 5
#     Node 10, Type 0, BuildingBlock: BEQFEK_clean_sbu_0, # of connection points: 5
#     Node 11, Type 0, BuildingBlock: BEQFEK_clean_sbu_0, # of connection points: 5
#     Node 12, Type 0, BuildingBlock: BEQFEK_clean_sbu_0, # of connection points: 5
#     Node 13, Type 0, BuildingBlock: BEQFEK_clean_sbu_0, # of connection points: 5
#     Node 14, Type 0, BuildingBlock: BEQFEK_clean_sbu_0, # of connection points: 5
#     Node 15, Type 0, BuildingBlock: BEQFEK_clean_sbu_0, # of connection points: 5
#     Edge 16, Type (0, 0), BuildingBlock: OJICUG_clean_linker_0, # of connection points: 2
#     Edge 17, Type (0, 0), BuildingBlock: OJICUG_clean_linker_0, # of connection points: 2
#     Edge 18, Type (0, 0), BuildingBlock: OJICUG_clean_linker_0, # of connection points: 2
#     Edge 19, Type (0, 0), BuildingBlock: OJICUG_clean_linker_0, # of connection points: 2
#     Edge 20, Type (0, 0), BuildingBlock: OJICUG_clean_linker_0, # of connection points: 2
#     Edge 21, Type (0, 0), BuildingBlock: OJICUG_clean_linker_0, # of connection points: 2
#     Edge 22, Type (0, 0), BuildingBlock: OJICUG_clean_linker_0, # of connection points: 2
#     Edge 23, Type (0, 0), BuildingBlock: OJICUG_clean_linker_0, # of connection points: 2
#     Edge 24, Type (0, 0), BuildingBlock: OJICUG_clean_linker_0, # of connection points: 2
#     Edge 25, Type (0, 0), BuildingBlock: OJICUG_clean_linker_0, # of connection points: 2
#     Edge 26, Type (0, 0), BuildingBlock: OJICUG_clean_linker_0, # of connection points: 2
#     Edge 27, Type (0, 0), BuildingBlock: OJICUG_clean_linker_0, # of connection points: 2
#     Edge 28, Type (0, 0), BuildingBlock: OJICUG_clean_linker_0, # of connection points: 2
#     Edge 29, Type (0, 0), BuildingBlock: OJICUG_clean_linker_0, # of connection points: 2
#     Edge 30, Type (0, 0), BuildingBlock: OJICUG_clean_linker_0, # of connection points: 2
#     Edge 31, Type (0, 0), BuildingBlock: OJICUG_clean_linker_0, # of connection points: 2
#     Edge 32, Type (0, 0), BuildingBlock: OJICUG_clean_linker_0, # of connection points: 2
#     Edge 33, Type (0, 0), BuildingBlock: OJICUG_clean_linker_0, # of connection points: 2
#     Edge 34, Type (0, 0), BuildingBlock: OJICUG_clean_linker_0, # of connection points: 2
#     Edge 35, Type (0, 0), BuildingBlock: OJICUG_clean_linker_0, # of connection points: 2
#     Edge 36, Type (0, 0), BuildingBlock: OJICUG_clean_linker_0, # of connection points: 2
#     Edge 37, Type (0, 0), BuildingBlock: OJICUG_clean_linker_0, # of connection points: 2
#     Edge 38, Type (0, 0), BuildingBlock: OJICUG_clean_linker_0, # of connection points: 2
#     Edge 39, Type (0, 0), BuildingBlock: OJICUG_clean_linker_0, # of connection points: 2
#     Edge 40, Type (0, 0), BuildingBlock: OJICUG_clean_linker_0, # of connection points: 2
#     Edge 41, Type (0, 0), BuildingBlock: OJICUG_clean_linker_0, # of connection points: 2
#     Edge 42, Type (0, 0), BuildingBlock: OJICUG_clean_linker_0, # of connection points: 2
#     Edge 43, Type (0, 0), BuildingBlock: OJICUG_clean_linker_0, # of connection points: 2
#     Edge 44, Type (0, 0), BuildingBlock: OJICUG_clean_linker_0, # of connection points: 2
#     Edge 45, Type (0, 0), BuildingBlock: OJICUG_clean_linker_0, # of connection points: 2
#     Edge 46, Type (0, 0), BuildingBlock: OJICUG_clean_linker_0, # of connection points: 2
#     Edge 47, Type (0, 0), BuildingBlock: OJICUG_clean_linker_0, # of connection points: 2
#     Edge 48, Type (0, 0), BuildingBlock: OJICUG_clean_linker_0, # of connection points: 2
#     Edge 49, Type (0, 0), BuildingBlock: OJICUG_clean_linker_0, # of connection points: 2
#     Edge 50, Type (0, 0), BuildingBlock: OJICUG_clean_linker_0, # of connection points: 2
#     Edge 51, Type (0, 0), BuildingBlock: OJICUG_clean_linker_0, # of connection points: 2
#     Edge 52, Type (0, 0), BuildingBlock: OJICUG_clean_linker_0, # of connection points: 2
#     Edge 53, Type (0, 0), BuildingBlock: OJICUG_clean_linker_0, # of connection points: 2
#     Edge 54, Type (0, 0), BuildingBlock: OJICUG_clean_linker_0, # of connection points: 2
#     Edge 55, Type (0, 0), BuildingBlock: OJICUG_clean_linker_0, # of connection points: 2
# Relax obj value: 0.071
# Max RMSD: 0.135
# Mean RMSD: 0.135
data_MOF--net-zfv--node1-BEQFEK_clean_sbu_0--edge1-OJICUG_clean_linker_0
_symmetry_space_group_name_H-M    P1
_symmetry_Int_Tables_number       1
_symmetry_cell_setting            triclinic
loop_
_symmetry_equiv_pos_as_xyz
'x, y, z'
_cell_length_a     56.443387
_cell_length_b     56.430672
_cell_length_c     15.455694
_cell_angle_alpha  89.982509
_cell_angle_beta   89.98636
_cell_angle_gamma 89.998826
loop_
_atom_site_label
_atom_site_type_symbol
_atom_site_fract_x
_atom_site_fract_y
_atom_site_fract_z
_atom_type_partial_charge
Co0 Co 0.00388 0.60821 0.17973 0.0
Co1 Co 0.00319 0.61736 0.98115 0.0
C2 C 0.96533 0.63701 0.09287 0.0
O3 O 0.97545 0.6279 0.15861 0.0
O4 O 0.97367 0.63418 0.01669 0.0
C5 C 0.9872 0.60099 0.35439 0.0
O6 O 0.96577 0.60471 0.3242 0.0
C7 C 0.9946 0.61761 0.79002 0.0
C8 C 0.03117 0.60952 0.74801 0.0
C9 C 0.00838 0.61283 0.71712 0.0
N10 N 0.00872 0.61647 0.86012 0.0
N11 N 0.03054 0.61197 0.83414 0.0
C12 C 0.96878 0.6235 0.79394 0.0
H13 H 0.96475 0.63375 0.85325 0.0
H14 H 0.95834 0.60686 0.79574 0.0
H15 H 0.96341 0.63393 0.7363 0.0
C16 C 0.00519 0.55802 0.12018 0.0
N17 N 0.00451 0.58158 0.10602 0.0
N18 N 0.00332 0.58554 0.02231 0.0
C19 C 0.00273 0.56459 0.98048 0.0
C20 C 0.00422 0.54645 0.0408 0.0
C21 C 0.00731 0.54704 0.20792 0.0
H22 H 0.01955 0.55764 0.24855 0.0
H23 H 0.98965 0.54712 0.23951 0.0
H24 H 0.01381 0.52852 0.20379 0.0
O25 O 0.03219 0.62807 0.1646 0.0
O26 O 0.0308 0.63564 0.02454 0.0
H27 H 0.01514 0.56552 0.84982 0.0
H28 H 0.99232 0.54379 0.86883 0.0
C29 C -0.00152 0.56189 0.88538 0.0
H30 H 0.98478 0.57468 0.86425 0.0
H31 H 0.04493 0.60985 0.87582 0.0
O32 O 0.00461 0.5998 0.30257 0.0
C33 C 0.04054 0.63824 0.09801 0.0
Co34 Co 0.6418 0.74751 0.43078 0.0
Co35 Co 0.63213 0.7482 0.23064 0.0
C36 C 0.61227 0.70997 0.34026 0.0
O37 O 0.62158 0.71966 0.40639 0.0
O38 O 0.61517 0.71861 0.26462 0.0
C39 C 0.64567 0.72938 0.60443 0.0
O40 O 0.63592 0.71028 0.57164 0.0
C41 C 0.63338 0.73829 0.04155 0.0
C42 C 0.63527 0.77505 0.99236 0.0
C43 C 0.63597 0.75159 0.96615 0.0
N44 N 0.63181 0.75337 0.10881 0.0
N45 N 0.63253 0.77525 0.07859 0.0
C46 C 0.63475 0.71194 0.05131 0.0
H47 H 0.63945 0.7071 0.11876 0.0
H48 H 0.64801 0.70443 0.00591 0.0
H49 H 0.61719 0.70414 0.0362 0.0
C50 C 0.69168 0.74918 0.36874 0.0
N51 N 0.66812 0.7485 0.35486 0.0
N52 N 0.66408 0.74832 0.27098 0.0
C53 C 0.685 0.74873 0.22881 0.0
C54 C 0.70318 0.74944 0.28917 0.0
C55 C 0.70272 0.7503 0.45662 0.0
H56 H 0.69262 0.76276 0.49809 0.0
H57 H 0.7018 0.73249 0.48696 0.0
H58 H 0.7215 0.75604 0.45318 0.0
O59 O 0.62207 0.77619 0.41833 0.0
O60 O 0.61435 0.77561 0.27791 0.0
H61 H 0.68047 0.76275 0.10126 0.0
H62 H 0.70624 0.74405 0.11252 0.0
C63 C 0.68759 0.7466 0.13272 0.0
H64 H 0.67739 0.73109 0.11006 0.0
H65 H 0.63209 0.79038 0.11738 0.0
O66 O 0.65115 0.74648 0.55456 0.0
C67 C 0.61191 0.78495 0.35224 0.0
Co68 Co 0.50278 0.38619 0.67596 0.0
Co69 Co 0.50258 0.37617 0.47587 0.0
C70 C 0.54019 0.35602 0.58729 0.0
O71 O 0.53034 0.36552 0.65271 0.0
O72 O 0.53192 0.35894 0.51111 0.0
C73 C 0.52103 0.39039 0.84929 0.0
O74 O 0.54027 0.38101 0.81608 0.0
C75 C 0.51254 0.37729 0.28649 0.0
C76 C 0.47577 0.37917 0.23764 0.0
C77 C 0.4992 0.37991 0.21118 0.0
N78 N 0.4975 0.3757 0.3539 0.0
N79 N 0.47561 0.37639 0.32384 0.0
C80 C 0.53889 0.37864 0.29601 0.0
H81 H 0.54377 0.38307 0.36364 0.0
H82 H 0.54636 0.39207 0.25118 0.0
H83 H 0.54669 0.36114 0.27986 0.0
C84 C 0.50172 0.43597 0.61272 0.0
N85 N 0.50232 0.41238 0.59939 0.0
N86 N 0.50267 0.40819 0.5156 0.0
C87 C 0.50243 0.42905 0.47297 0.0
C88 C 0.50167 0.44734 0.5329 0.0
C89 C 0.50038 0.44716 0.7003 0.0
H90 H 0.48779 0.43715 0.74159 0.0
H91 H 0.5181 0.44627 0.73126 0.0
H92 H 0.49469 0.46595 0.69623 0.0
O93 O 0.47385 0.36685 0.66305 0.0
O94 O 0.4749 0.35876 0.52295 0.0
H95 H 0.48852 0.42429 0.34538 0.0
H96 H 0.50714 0.45013 0.3563 0.0
C97 C 0.50463 0.4315 0.37685 0.0
H98 H 0.52018 0.42131 0.35458 0.0
H99 H 0.4605 0.37595 0.36275 0.0
O100 O 0.50379 0.39561 0.79974 0.0
C101 C 0.46524 0.35662 0.59686 0.0
Co102 Co 0.86369 0.24604 0.92822 0.0
Co103 Co 0.87298 0.24707 0.72969 0.0
C104 C 0.89292 0.2845 0.84235 0.0
O105 O 0.88369 0.27429 0.9077 0.0
O106 O 0.89002 0.2764 0.76587 0.0
C107 C 0.85647 0.26279 0.10266 0.0
O108 O 0.86021 0.28419 0.07217 0.0
C109 C 0.87329 0.25571 0.53846 0.0
C110 C 0.86531 0.21909 0.4966 0.0
C111 C 0.86857 0.24189 0.46559 0.0
N112 N 0.87217 0.24159 0.60863 0.0
N113 N 0.86773 0.21975 0.58272 0.0
C114 C 0.87908 0.28155 0.54234 0.0
H115 H 0.88915 0.28565 0.60201 0.0
H116 H 0.8624 0.29195 0.54338 0.0
H117 H 0.88964 0.28691 0.485 0.0
C118 C 0.81355 0.24505 0.86803 0.0
N119 N 0.83712 0.24576 0.85421 0.0
N120 N 0.84116 0.24708 0.77056 0.0
C121 C 0.82026 0.24772 0.72847 0.0
C122 C 0.80207 0.24613 0.78851 0.0
C123 C 0.80248 0.24271 0.95554 0.0
H124 H 0.81308 0.23042 -0.00396 0.0
H125 H 0.80246 0.26031 0.98757 0.0
H126 H 0.78399 0.23615 0.95096 0.0
O127 O 0.88326 0.21753 0.91276 0.0
O128 O 0.89101 0.21928 0.77287 0.0
H129 H 0.82133 0.23536 0.59778 0.0
H130 H 0.79954 0.25813 0.6166 0.0
C131 C 0.81764 0.25201 0.63335 0.0
H132 H 0.83041 0.26574 0.61246 0.0
H133 H 0.86564 0.20536 0.62444 0.0
O134 O 0.85523 0.24533 0.05105 0.0
C135 C 0.89344 0.20929 0.846 0.0
Co136 Co 0.00159 0.38594 0.8148 0.0
Co137 Co 0.00276 0.37514 0.01474 0.0
C138 C 0.96434 0.35593 0.90184 0.0
O139 O 0.97387 0.36559 0.83611 0.0
O140 O 0.97312 0.35845 0.97748 0.0
C141 C 0.98376 0.39178 0.64079 0.0
O142 O 0.96386 0.38368 0.67334 0.0
C143 C 0.99206 0.37868 0.20285 0.0
C144 C 0.02776 0.37192 0.25629 0.0
C145 C 0.00492 0.37819 0.2798 0.0
N146 N 0.0069 0.37344 0.13731 0.0
N147 N 0.02806 0.36904 0.17011 0.0
C148 C 0.96687 0.38611 0.19013 0.0
H149 H 0.96385 0.39163 0.12205 0.0
H150 H 0.96225 0.4008 0.23479 0.0
H151 H 0.95509 0.37086 0.20446 0.0
C152 C 0.00178 0.43546 0.88086 0.0
N153 N 0.00199 0.41182 0.89325 0.0
N154 N 0.00326 0.40736 0.97682 0.0
C155 C 0.00455 0.42811 0.01997 0.0
C156 C 0.00328 0.44657 0.96092 0.0
C157 C -0.00065 0.44695 0.79408 0.0
H158 H 0.01661 0.44603 0.75989 0.0
H159 H 0.98612 0.43718 0.75479 0.0
H160 H 0.99387 0.46576 0.79993 0.0
O161 O 0.03047 0.36617 0.82707 0.0
O162 O 0.03023 0.35784 0.96705 0.0
H163 H 0.02217 0.41683 0.1359 0.0
H164 H 0.01665 0.44811 0.13103 0.0
C165 C 0.00928 0.43043 0.11492 0.0
H166 H 0.99251 0.42809 0.15109 0.0
H167 H 0.04301 0.365 0.13322 0.0
O168 O 0.00119 0.39574 0.69105 0.0
C169 C 0.03946 0.35582 0.89242 0.0
Co170 Co 0.8635 0.74535 0.06214 0.0
Co171 Co 0.87428 0.74659 0.26211 0.0
C172 C 0.8934 0.70806 0.14977 0.0
O173 O 0.88377 0.71753 0.08387 0.0
O174 O 0.89089 0.71693 0.22524 0.0
C175 C 0.85777 0.72751 0.88815 0.0
O176 O 0.86606 0.70767 0.9206 0.0
C177 C 0.87088 0.73595 0.45025 0.0
C178 C 0.87738 0.77172 0.50353 0.0
C179 C 0.8713 0.74883 0.52716 0.0
N180 N 0.87598 0.75082 0.38463 0.0
N181 N 0.88023 0.77202 0.41732 0.0
C182 C 0.86366 0.71069 0.43763 0.0
H183 H 0.85816 0.70761 0.36959 0.0
H184 H 0.849 0.70597 0.48234 0.0
H185 H 0.879 0.69903 0.45196 0.0
C186 C 0.814 0.74628 0.12826 0.0
N187 N 0.83763 0.74607 0.14066 0.0
N188 N 0.84208 0.74713 0.22428 0.0
C189 C 0.82135 0.74854 0.26746 0.0
C190 C 0.80292 0.74771 0.20836 0.0
C191 C 0.80248 0.74445 0.04138 0.0
H192 H 0.80469 0.76151 0.00659 0.0
H193 H 0.81139 0.73048 0.00273 0.0
H194 H 0.78333 0.7403 0.04699 0.0
O195 O 0.88339 0.77413 0.07382 0.0
O196 O 0.89159 0.77401 0.21392 0.0
H197 H 0.83243 0.76584 0.38422 0.0
H198 H 0.80123 0.75982 0.37947 0.0
C199 C 0.81902 0.75282 0.36269 0.0
H200 H 0.82167 0.73593 0.39784 0.0
H201 H 0.88414 0.78699 0.38034 0.0
O202 O 0.85364 0.74489 0.93849 0.0
C203 C 0.89368 0.78316 0.13915 0.0
Co204 Co 0.50396 0.6079 0.3063 0.0
Co205 Co 0.50271 0.61833 0.50642 0.0
C206 C 0.54097 0.63806 0.39432 0.0
O207 O 0.53158 0.62846 0.32821 0.0
O208 O 0.53214 0.63531 0.46977 0.0
C209 C 0.52193 0.60253 0.13241 0.0
O210 O 0.5416 0.61118 0.16492 0.0
C211 C 0.51336 0.61514 0.69452 0.0
C212 C 0.47738 0.62048 0.74762 0.0
C213 C 0.50043 0.61514 0.77132 0.0
N214 N 0.49839 0.61979 0.62885 0.0
N215 N 0.47704 0.62335 0.66142 0.0
C216 C 0.53884 0.60872 0.68204 0.0
H217 H 0.54212 0.60326 0.61406 0.0
H218 H 0.54402 0.59425 0.72691 0.0
H219 H 0.54999 0.62444 0.69623 0.0
C220 C 0.50374 0.55827 0.37152 0.0
N221 N 0.5036 0.58189 0.38432 0.0
N222 N 0.50259 0.58621 0.46803 0.0
C223 C 0.5016 0.56541 0.51091 0.0
C224 C 0.50261 0.54706 0.45148 0.0
C225 C 0.50564 0.54689 0.28441 0.0
H226 H 0.48858 0.54907 0.24963 0.0
H227 H 0.51957 0.55593 0.24597 0.0
H228 H 0.50989 0.52774 0.28962 0.0
O229 O 0.47496 0.62749 0.31842 0.0
O230 O 0.47514 0.63539 0.45872 0.0
H231 H 0.48421 0.57591 0.62819 0.0
H232 H 0.49121 0.54492 0.62331 0.0
C233 C 0.49761 0.56292 0.60627 0.0
H234 H 0.51447 0.56614 0.64088 0.0
H235 H 0.46198 0.62679 0.62436 0.0
O236 O 0.50459 0.59814 0.18263 0.0
C237 C 0.46589 0.63756 0.38419 0.0
Co238 Co 0.64165 0.24713 0.561 0.0
Co239 Co 0.6309 0.24627 0.76103 0.0
C240 C 0.61144 0.28435 0.64714 0.0
O241 O 0.62111 0.27475 0.58159 0.0
O242 O 0.61407 0.27573 0.72301 0.0
C243 C 0.64763 0.26504 0.3872 0.0
O244 O 0.63969 0.28499 0.41996 0.0
C245 C 0.63437 0.25704 0.94922 0.0
C246 C 0.62781 0.22129 0.00259 0.0
C247 C 0.63396 0.24415 0.02613 0.0
N248 N 0.6292 0.2422 0.88365 0.0
N249 N 0.6249 0.221 0.91643 0.0
C250 C 0.64166 0.28229 0.93656 0.0
H251 H 0.6471 0.28538 0.86844 0.0
H252 H 0.65636 0.28696 0.98108 0.0
H253 H 0.62637 0.29398 0.95115 0.0
C254 C 0.69118 0.24748 0.62714 0.0
N255 N 0.66755 0.24706 0.63949 0.0
N256 N 0.6631 0.24589 0.7231 0.0
C257 C 0.68384 0.24483 0.76631 0.0
C258 C 0.70229 0.24619 0.70727 0.0
C259 C 0.70265 0.2499 0.54034 0.0
H260 H 0.70187 0.23259 0.50643 0.0
H261 H 0.69279 0.26302 0.50083 0.0
H262 H 0.72142 0.25554 0.54613 0.0
O263 O 0.62203 0.21813 0.57391 0.0
O264 O 0.61377 0.21869 0.71392 0.0
H265 H 0.67267 0.22728 0.88255 0.0
H266 H 0.70391 0.23297 0.87756 0.0
C267 C 0.68619 0.24022 0.86134 0.0
H268 H 0.68377 0.25703 0.89721 0.0
H269 H 0.62095 0.20604 0.87953 0.0
O270 O 0.65145 0.24753 0.43726 0.0
C271 C 0.61175 0.20926 0.63966 0.0
Co272 Co 0.36361 0.24675 0.56016 0.0
Co273 Co 0.3742 0.24792 0.76022 0.0
C274 C 0.39367 0.20958 0.64778 0.0
O275 O 0.38404 0.21904 0.58184 0.0
O276 O 0.39103 0.2184 0.72331 0.0
C277 C 0.35806 0.22883 0.3863 0.0
O278 O 0.36649 0.20907 0.4189 0.0
C279 C 0.37097 0.23726 0.9484 0.0
C280 C 0.37657 0.27321 0.00141 0.0
C281 C 0.37105 0.2502 0.02518 0.0
N282 N 0.37573 0.2522 0.88269 0.0
N283 N 0.37945 0.27352 0.91522 0.0
C284 C 0.36437 0.21182 0.93599 0.0
H285 H 0.35892 0.20857 0.86798 0.0
H286 H 0.34984 0.20676 0.98077 0.0
H287 H 0.37999 0.20055 0.95034 0.0
C288 C 0.31404 0.24714 0.62571 0.0
N289 N 0.33766 0.24721 0.63836 0.0
N290 N 0.34204 0.24821 0.72204 0.0
C291 C 0.32126 0.24927 0.76505 0.0
C292 C 0.30288 0.24831 0.70574 0.0
C293 C 0.30261 0.24524 0.53869 0.0
H294 H 0.30477 0.2623 0.50388 0.0
H295 H 0.31163 0.23131 0.5002 0.0
H296 H 0.28348 0.24099 0.54404 0.0
O297 O 0.38331 0.27565 0.57234 0.0
O298 O 0.39141 0.27544 0.7125 0.0
H299 H 0.3319 0.26654 0.88235 0.0
H300 H 0.30087 0.25975 0.87749 0.0
C301 C 0.31882 0.25325 0.86042 0.0
H302 H 0.32192 0.23634 0.89498 0.0
H303 H 0.383 0.28856 0.87813 0.0
O304 O 0.35382 0.24622 0.43647 0.0
C305 C 0.39353 0.28467 0.6379 0.0
Co306 Co 0.14165 0.74896 0.06226 0.0
Co307 Co 0.1308 0.74745 0.26221 0.0
C308 C 0.11159 0.78603 0.14997 0.0
O309 O 0.12128 0.77666 0.08401 0.0
O310 O 0.11409 0.77709 0.22536 0.0
C311 C 0.14719 0.76677 0.88806 0.0
O312 O 0.13873 0.78655 0.92039 0.0
C313 C 0.13421 0.75811 0.45024 0.0
C314 C 0.12767 0.72237 0.50382 0.0
C315 C 0.13377 0.74526 0.52724 0.0
N316 N 0.12909 0.74323 0.38475 0.0
N317 N 0.12481 0.72204 0.41761 0.0
C318 C 0.14149 0.78335 0.43742 0.0
H319 H 0.14708 0.78636 0.36941 0.0
H320 H 0.15611 0.78807 0.48226 0.0
H321 H 0.12616 0.79504 0.45142 0.0
C322 C 0.19115 0.74874 0.12876 0.0
N323 N 0.16751 0.74845 0.14091 0.0
N324 N 0.16301 0.74706 0.22443 0.0
C325 C 0.18372 0.74575 0.26776 0.0
C326 C 0.2022 0.74714 0.20892 0.0
C327 C 0.20269 0.7513 0.04214 0.0
H328 H 0.20196 0.73404 0.0079 0.0
H329 H 0.19286 0.76446 0.00274 0.0
H330 H 0.22145 0.75693 0.04829 0.0
O331 O 0.12184 0.72007 0.0739 0.0
O332 O 0.11361 0.72002 0.21397 0.0
H333 H 0.17242 0.72787 0.38316 0.0
H334 H 0.20366 0.73354 0.37884 0.0
C335 C 0.18597 0.74086 0.36264 0.0
H336 H 0.18352 0.75757 0.39914 0.0
H337 H 0.12089 0.70706 0.38075 0.0
O338 O 0.15148 0.74945 0.93852 0.0
C339 C 0.11155 0.71093 0.13912 0.0
Co340 Co 0.14183 0.2472 0.92859 0.0
Co341 Co 0.13203 0.24773 0.72847 0.0
C342 C 0.1122 0.20963 0.83868 0.0
O343 O 0.12155 0.21939 0.90458 0.0
O344 O 0.11508 0.21816 0.76288 0.0
C345 C 0.14585 0.22903 0.10216 0.0
O346 O 0.13626 0.20986 0.06924 0.0
C347 C 0.13327 0.23779 0.53931 0.0
C348 C 0.13502 0.27456 0.49015 0.0
C349 C 0.13582 0.2511 0.46391 0.0
N350 N 0.13164 0.25286 0.60658 0.0
N351 N 0.13227 0.27475 0.57637 0.0
C352 C 0.13473 0.21144 0.54905 0.0
H353 H 0.13937 0.20662 0.61657 0.0
H354 H 0.14807 0.20399 0.50383 0.0
H355 H 0.11722 0.20357 0.53366 0.0
C356 C 0.19167 0.24882 0.86612 0.0
N357 N 0.1681 0.2481 0.85243 0.0
N358 N 0.164 0.24788 0.76858 0.0
C359 C 0.1849 0.24831 0.72625 0.0
C360 C 0.20312 0.24907 0.78646 0.0
C361 C 0.20276 0.25002 0.95389 0.0
H362 H 0.19266 0.26249 0.99533 0.0
H363 H 0.20189 0.23224 0.98441 0.0
H364 H 0.22153 0.25579 0.95024 0.0
O365 O 0.12213 0.27591 0.91599 0.0
O366 O 0.11428 0.27518 0.77569 0.0
H367 H 0.18021 0.26233 0.59877 0.0
H368 H 0.20611 0.24379 0.6098 0.0
C369 C 0.18745 0.24621 0.63013 0.0
H370 H 0.17733 0.23065 0.60752 0.0
H371 H 0.13177 0.28987 0.61516 0.0
O372 O 0.1512 0.24619 0.05239 0.0
C373 C 0.11191 0.28461 0.84992 0.0
Co374 Co 0.36361 0.74546 0.4301 0.0
Co375 Co 0.37283 0.74664 0.23159 0.0
C376 C 0.39285 0.78396 0.3443 0.0
O377 O 0.38366 0.77369 0.40961 0.0
O378 O 0.38991 0.77593 0.26774 0.0
C379 C 0.35643 0.76221 0.60451 0.0
O380 O 0.36019 0.78361 0.57397 0.0
C381 C 0.37317 0.7552 0.04031 0.0
C382 C 0.36483 0.71864 -0.00127 0.0
C383 C 0.36831 0.74139 0.96756 0.0
N384 N 0.37192 0.74114 0.11058 0.0
N385 N 0.36727 0.71933 0.08485 0.0
C386 C 0.37923 0.78098 0.04397 0.0
H387 H 0.38937 0.78501 0.10355 0.0
H388 H 0.36266 0.79155 0.04508 0.0
H389 H 0.38981 0.78621 0.98653 0.0
C390 C 0.31343 0.7447 0.37009 0.0
N391 N 0.337 0.74529 0.35623 0.0
N392 N 0.34103 0.74671 0.2726 0.0
C393 C 0.32013 0.74755 0.23057 0.0
C394 C 0.30194 0.74597 0.29061 0.0
C395 C 0.30236 0.74236 0.4576 0.0
H396 H 0.31293 0.73004 0.49805 0.0
H397 H 0.30237 0.75995 0.48969 0.0
H398 H 0.28385 0.73584 0.45296 0.0
O399 O 0.38313 0.71692 0.41442 0.0
O400 O 0.39083 0.71883 0.27454 0.0
H401 H 0.321 0.73546 0.09952 0.0
H402 H 0.2995 0.75846 0.11913 0.0
C403 C 0.31753 0.75208 0.1356 0.0
H404 H 0.33046 0.7657 0.11503 0.0
H405 H 0.36504 0.70498 0.12669 0.0
O406 O 0.35518 0.74474 0.55295 0.0
C407 C 0.39329 0.70876 0.34748 0.0
Co408 Co 0.50242 0.10788 0.68153 0.0
Co409 Co 0.50269 0.11734 0.48133 0.0
C410 C 0.46501 0.13778 0.59168 0.0
O411 O 0.47481 0.12846 0.65757 0.0
O412 O 0.47335 0.13466 0.51572 0.0
C413 C 0.48415 0.1039 0.85492 0.0
O414 O 0.46499 0.11348 0.82186 0.0
C415 C 0.49273 0.11601 0.29221 0.0
C416 C 0.52947 0.11377 0.24319 0.0
C417 C 0.50603 0.11326 0.21689 0.0
N418 N 0.5078 0.11749 0.3595 0.0
N419 N 0.52968 0.11655 0.32939 0.0
C420 C 0.46637 0.1149 0.30187 0.0
H421 H 0.46147 0.11034 0.36939 0.0
H422 H 0.45875 0.10165 0.25668 0.0
H423 H 0.45873 0.13251 0.28637 0.0
C424 C 0.50355 0.05792 0.62033 0.0
N425 N 0.50292 0.08147 0.60606 0.0
N426 N 0.50256 0.08543 0.52213 0.0
C427 C 0.50279 0.06446 0.48031 0.0
C428 C 0.50358 0.04633 0.54096 0.0
C429 C 0.50495 0.04698 0.70835 0.0
H430 H 0.51761 0.05708 0.749 0.0
H431 H 0.48728 0.04802 0.73957 0.0
H432 H 0.5106 0.02817 0.70497 0.0
O433 O 0.53137 0.1272 0.66808 0.0
O434 O 0.53037 0.13485 0.52766 0.0
H435 H 0.51676 0.06867 0.35255 0.0
H436 H 0.49782 0.04309 0.36458 0.0
C437 C 0.50056 0.06176 0.3843 0.0
H438 H 0.48515 0.0721 0.36156 0.0
H439 H 0.54479 0.11688 0.36823 0.0
O440 O 0.50136 0.09862 0.80535 0.0
C441 C 0.54002 0.13722 0.60148 0.0
Co442 Co 0.00124 0.88611 0.17897 0.0
Co443 Co 0.00195 0.87662 0.98043 0.0
C444 C 0.03974 0.85712 0.09263 0.0
O445 O 0.02963 0.86633 0.15818 0.0
O446 O 0.03143 0.85985 0.01637 0.0
C447 C 0.01791 0.89328 0.35359 0.0
O448 O 0.0393 0.88937 0.32336 0.0
C449 C 0.01053 0.87618 0.78921 0.0
C450 C 0.97393 0.88411 0.74719 0.0
C451 C 0.99674 0.8809 0.71627 0.0
N452 N 0.9964 0.87729 0.85933 0.0
N453 N 0.97457 0.88168 0.83333 0.0
C454 C 0.03637 0.87041 0.79319 0.0
H455 H 0.04045 0.86026 0.85272 0.0
H456 H 0.04676 0.88709 0.7946 0.0
H457 H 0.04178 0.85992 0.73575 0.0
C458 C -4e-05 0.9362 0.11788 0.0
N459 N 0.00062 0.91261 0.10446 0.0
N460 N 0.00183 0.90848 0.02086 0.0
C461 C 0.00245 0.92933 0.97839 0.0
C462 C 0.00095 0.9476 0.03813 0.0
C463 C -0.00213 0.94739 0.20527 0.0
H464 H 0.98571 0.93684 0.24644 0.0
H465 H 0.01556 0.94745 0.23662 0.0
H466 H 0.9913 0.96587 0.20056 0.0
O467 O 0.97292 0.86622 0.16432 0.0
O468 O 0.97436 0.85843 0.02442 0.0
H469 H 0.99018 0.9281 0.84761 0.0
H470 H 0.01295 0.9499 0.86618 0.0
C471 C 0.0068 0.93183 0.88326 0.0
H472 H 0.02054 0.91903 0.86276 0.0
H473 H 0.96017 0.88376 0.875 0.0
O474 O 0.00051 0.89467 0.30178 0.0
C475 C 0.96461 0.85594 0.09793 0.0
Co476 Co 0.50125 0.88575 0.3168 0.0
Co477 Co 0.50231 0.87506 0.51682 0.0
C478 C 0.46408 0.85557 0.40417 0.0
O479 O 0.47362 0.86525 0.33848 0.0
O480 O 0.47279 0.85817 0.47988 0.0
C481 C 0.48331 0.89133 0.14292 0.0
O482 O 0.46353 0.88296 0.17559 0.0
C483 C 0.49167 0.87831 0.70504 0.0
C484 C 0.5276 0.87264 0.75803 0.0
C485 C 0.50461 0.87822 0.78181 0.0
N486 N 0.50659 0.87351 0.63932 0.0
N487 N 0.52791 0.86975 0.67185 0.0
C488 C 0.46624 0.88496 0.69263 0.0
H489 H 0.463 0.8904 0.6246 0.0
H490 H 0.46122 0.89951 0.73734 0.0
H491 H 0.45495 0.86937 0.70709 0.0
C492 C 0.50156 0.93528 0.3823 0.0
N493 N 0.50162 0.91166 0.39499 0.0
N494 N 0.50258 0.90726 0.47868 0.0
C495 C 0.50364 0.92805 0.52165 0.0
C496 C 0.50272 0.94644 0.46229 0.0
C497 C 0.49968 0.9467 0.29523 0.0
H498 H 0.5168 0.94466 0.26071 0.0
H499 H 0.48586 0.93761 0.25652 0.0
H500 H 0.49531 0.96582 0.3005 0.0
O501 O 0.5302 0.86616 0.32906 0.0
O502 O 0.52989 0.85788 0.46909 0.0
H503 H 0.5209 0.91736 0.63896 0.0
H504 H 0.5142 0.94842 0.63402 0.0
C505 C 0.50764 0.93049 0.61701 0.0
H506 H 0.49073 0.92743 0.65161 0.0
H507 H 0.54293 0.86617 0.63476 0.0
O508 O 0.50071 0.89553 0.19306 0.0
C509 C 0.5392 0.85588 0.39455 0.0
Co510 Co 0.00373 0.1078 0.80751 0.0
Co511 Co 0.00238 0.11864 0.00748 0.0
C512 C 0.0408 0.13793 0.89458 0.0
O513 O 0.03142 0.12824 0.82867 0.0
O514 O 0.03191 0.13537 0.97005 0.0
C515 C 0.02155 0.10207 0.63346 0.0
O516 O 0.04139 0.11035 0.66589 0.0
C517 C 0.0131 0.11523 0.19557 0.0
C518 C 0.9774 0.12194 0.24914 0.0
C519 C 0.00025 0.11572 0.27257 0.0
N520 N -0.00176 0.12042 0.13007 0.0
N521 N 0.97708 0.12481 0.16294 0.0
C522 C 0.0383 0.10783 0.18277 0.0
H523 H 0.0413 0.10228 0.11472 0.0
H524 H 0.04294 0.09315 0.22751 0.0
H525 H 0.05006 0.12309 0.19695 0.0
C526 C 0.0036 0.05828 0.87433 0.0
N527 N 0.00332 0.08193 0.88633 0.0
N528 N 0.00197 0.08645 0.96985 0.0
C529 C 0.00068 0.06575 0.0133 0.0
C530 C 0.00206 0.04725 0.95457 0.0
C531 C 0.00606 0.0467 0.78776 0.0
H532 H 0.98879 0.0475 0.75362 0.0
H533 H 0.01925 0.05646 0.74823 0.0
H534 H 0.01161 0.02791 0.79398 0.0
O535 O 0.97482 0.1276 0.81942 0.0
O536 O 0.97491 0.13578 0.95953 0.0
H537 H 0.98287 0.07712 0.12874 0.0
H538 H 0.98842 0.04584 0.12443 0.0
C539 C 0.99581 0.06351 0.1082 0.0
H540 H 0.01252 0.06589 0.14466 0.0
H541 H 0.96212 0.1288 0.12609 0.0
O542 O 0.00417 0.09794 0.68382 0.0
C543 C 0.96575 0.13785 0.88483 0.0
C544 C 0.01959 0.61339 0.56209 0.0
C545 C 0.00184 0.61028 0.62478 0.0
H546 H 0.029 0.6125 0.42882 0.0
C547 C 0.9791 0.60317 0.59785 0.0
H548 H 0.03734 0.61877 0.58018 0.0
C549 C 0.97417 0.5999 0.5098 0.0
C550 C 0.99207 0.60302 0.44775 0.0
H551 H 0.96523 0.59952 0.64407 0.0
H552 H 0.95648 0.59469 0.49039 0.0
C553 C 0.01484 0.60965 0.47501 0.0
C554 C 0.6305 0.72321 0.84191 0.0
C555 C 0.64068 0.74386 0.87626 0.0
H556 H 0.62444 0.70216 0.72886 0.0
C557 C 0.65441 0.7584 0.82194 0.0
H558 H 0.61938 0.71191 0.88123 0.0
C559 C 0.65711 0.75299 0.73448 0.0
C560 C 0.6461 0.7329 0.69919 0.0
H561 H 0.66268 0.77434 0.84664 0.0
H562 H 0.66717 0.76499 0.69396 0.0
C563 C 0.6333 0.7177 0.75424 0.0
C564 C 0.52754 0.37487 0.08641 0.0
C565 C 0.50683 0.38482 0.12127 0.0
H566 H 0.54853 0.36918 0.97292 0.0
C567 C 0.49214 0.39852 0.0674 0.0
H568 H 0.53896 0.36378 0.12533 0.0
C569 C 0.49745 0.40141 0.97992 0.0
C570 C 0.5176 0.39064 0.94412 0.0
H571 H 0.47615 0.40663 0.09246 0.0
H572 H 0.48533 0.41145 0.93977 0.0
C573 C 0.53295 0.37788 -0.00129 0.0
C574 C 0.8589 0.27111 0.346 0.0
C575 C 0.86599 0.24838 0.37317 0.0
H576 H 0.85036 0.29365 0.23831 0.0
C577 C 0.86902 0.23056 0.31067 0.0
H578 H 0.85534 0.28504 0.39204 0.0
C579 C 0.86519 0.23524 0.22357 0.0
C580 C 0.85857 0.25799 0.19608 0.0
H581 H 0.87438 0.21282 0.32892 0.0
H582 H 0.86797 0.22102 0.17756 0.0
C583 C 0.85556 0.27597 0.25791 0.0
C584 C 0.01445 0.3953 0.42408 0.0
C585 C -0.00224 0.38465 0.36891 0.0
H586 H 0.02297 0.40643 0.55246 0.0
C587 C 0.97537 0.37873 0.4021 0.0
H588 H 0.0318 0.40028 0.40021 0.0
C589 C 0.97024 0.38235 0.48981 0.0
C590 C 0.98745 0.39187 0.54588 0.0
H591 H 0.96227 0.37013 0.36183 0.0
H592 H 0.95321 0.37663 0.51437 0.0
C593 C 0.00935 0.39894 0.51137 0.0
C594 C 0.8542 0.75828 0.67158 0.0
C595 C 0.8649 0.74163 0.61633 0.0
H596 H 0.84302 0.76673 0.80001 0.0
C597 C 0.87089 0.71925 0.64943 0.0
H598 H 0.84917 0.77563 0.64779 0.0
C599 C 0.86726 0.71408 0.73711 0.0
C600 C 0.85768 0.73124 0.79325 0.0
H601 H 0.87953 0.70619 0.60912 0.0
H602 H 0.87303 0.69704 0.76158 0.0
C603 C 0.85056 0.75314 0.75885 0.0
C604 C 0.5299 0.61586 0.89376 0.0
C605 C 0.5078 0.609 0.8605 0.0
H606 H 0.5519 0.6189 0.0061 0.0
C607 C 0.49152 0.59769 0.91562 0.0
H608 H 0.54265 0.62498 0.8535 0.0
C609 C 0.49672 0.59429 0.00296 0.0
C610 C 0.51829 0.60227 0.03751 0.0
H611 H 0.47441 0.59198 0.89168 0.0
H612 H 0.48341 0.58624 0.04404 0.0
C613 C 0.53513 0.61247 0.98149 0.0
C614 C 0.65484 0.23961 0.2575 0.0
C615 C 0.6477 0.26145 0.29226 0.0
H616 H 0.65623 0.21726 0.14612 0.0
C617 C 0.63812 0.27869 0.2364 0.0
H618 H 0.6624 0.22598 0.29842 0.0
C619 C 0.63447 0.27363 0.14866 0.0
C620 C 0.64046 0.25128 0.11524 0.0
H621 H 0.63234 0.29569 0.26118 0.0
H622 H 0.62582 0.28673 0.10856 0.0
C623 C 0.65119 0.23458 0.17018 0.0
C624 C 0.35014 0.25413 0.25672 0.0
C625 C 0.35789 0.23247 0.29138 0.0
H626 H 0.3481 0.27646 0.14536 0.0
C627 C 0.36795 0.21554 0.23547 0.0
H628 H 0.3422 0.26752 0.29771 0.0
C629 C 0.37144 0.22073 0.14774 0.0
C630 C 0.36481 0.2429 0.11437 0.0
H631 H 0.37421 0.1987 0.26017 0.0
H632 H 0.38046 0.20788 0.1076 0.0
C633 C 0.35363 0.25929 0.16938 0.0
C634 C 0.13399 0.77486 0.64931 0.0
C635 C 0.14015 0.75252 0.61632 0.0
H636 H 0.13168 0.79708 0.76135 0.0
C637 C 0.15097 0.73596 0.67163 0.0
H638 H 0.12526 0.78785 0.60892 0.0
C639 C 0.15458 0.74116 0.75887 0.0
C640 C 0.14729 0.76301 0.79317 0.0
H641 H 0.15612 0.71865 0.6479 0.0
H642 H 0.16222 0.72764 0.80008 0.0
C643 C 0.13758 0.78008 0.73695 0.0
C644 C 0.15431 0.25803 0.31986 0.0
C645 C 0.14063 0.24341 0.37404 0.0
H646 H 0.16711 0.26473 0.19199 0.0
C647 C 0.13058 0.22271 0.33953 0.0
H648 H 0.16248 0.27402 0.34467 0.0
C649 C 0.13346 0.21724 0.25185 0.0
C650 C 0.14621 0.23253 0.19695 0.0
H651 H 0.1195 0.21135 0.37873 0.0
H652 H 0.1247 0.20167 0.22635 0.0
C653 C 0.15709 0.25266 0.23239 0.0
C654 C 0.36493 0.73465 0.7256 0.0
C655 C 0.35847 0.75744 0.69796 0.0
H656 H 0.37393 0.71221 0.83111 0.0
C657 C 0.35558 0.77546 0.75968 0.0
H658 H 0.36761 0.72039 0.67968 0.0
C659 C 0.35888 0.77062 0.8478 0.0
C660 C 0.36579 0.74785 0.87511 0.0
H661 H 0.35051 0.79317 0.73998 0.0
H662 H 0.35541 0.78459 0.89377 0.0
C663 C 0.3687 0.72998 0.81273 0.0
C664 C 0.47235 0.11624 0.00459 0.0
C665 C 0.48753 0.10337 0.94971 0.0
H666 H 0.46652 0.13013 0.13158 0.0
C667 C 0.50749 0.0922 0.98523 0.0
H668 H 0.45692 0.12524 0.979 0.0
C669 C 0.51281 0.09479 0.07279 0.0
C670 C 0.49831 0.1086 0.12697 0.0
H671 H 0.51946 0.08206 0.94483 0.0
H672 H 0.52866 0.08639 0.09767 0.0
C673 C 0.47777 0.11895 0.09238 0.0
C674 C 0.02603 0.89069 0.59701 0.0
C675 C 0.00327 0.88359 0.62391 0.0
H676 H 0.04865 0.8993 0.48963 0.0
C677 C 0.98551 0.88064 0.5612 0.0
H678 H 0.03992 0.89422 0.64321 0.0
C679 C 0.99025 0.88454 0.47417 0.0
C680 C 0.01302 0.89116 0.44695 0.0
H681 H 0.96775 0.87528 0.57923 0.0
H682 H 0.97607 0.88182 0.42797 0.0
C683 C 0.03095 0.89411 0.509 0.0
C684 C 0.50861 0.89915 0.01328 0.0
C685 C 0.48695 0.89147 0.048 0.0
H686 H 0.53093 0.90111 0.90188 0.0
C687 C 0.46998 0.88144 0.99214 0.0
H688 H 0.52203 0.90706 0.05422 0.0
C689 C 0.47516 0.87792 0.90443 0.0
C690 C 0.49733 0.88449 0.87099 0.0
H691 H 0.45314 0.87522 0.01689 0.0
H692 H 0.46229 0.86892 0.86433 0.0
C693 C 0.51375 0.89563 0.92595 0.0
C694 C 0.02983 0.11524 0.39475 0.0
C695 C 0.00745 0.10926 0.36167 0.0
H696 H 0.05202 0.11735 0.50689 0.0
C697 C 0.9908 0.09855 0.41689 0.0
H698 H 0.0429 0.12388 0.35441 0.0
C699 C 0.99594 0.09488 0.50415 0.0
C700 C 0.01783 0.102 0.53855 0.0
H701 H 0.97346 0.09353 0.3931 0.0
H702 H 0.98235 0.08734 0.5453 0.0
C703 C 0.03499 0.11159 0.48241 0.0
C704 C 0.01969 0.51156 0.95895 0.0
C705 C 0.00449 0.52073 0.02272 0.0
H706 H 0.03117 0.48077 0.88917 0.0
C707 C 0.98888 0.50542 0.06579 0.0
H708 H 0.03201 0.52305 0.92535 0.0
C709 C 0.98835 0.48133 0.04484 0.0
C710 C 0.00344 0.4722 0.98064 0.0
H711 H 0.97679 0.51215 0.11434 0.0
H712 H 0.976 0.46985 0.07833 0.0
C713 C 0.01914 0.48749 0.93793 0.0
C714 C 0.76248 0.76504 0.18998 0.0
C715 C 0.77734 0.74813 0.22823 0.0
H716 H 0.72727 0.77915 0.18178 0.0
C717 C 0.7679 0.73215 0.2888 0.0
H718 H 0.7695 0.77777 0.14419 0.0
C719 C 0.74385 0.73286 0.31006 0.0
C720 C 0.72891 0.74964 0.27128 0.0
H721 H 0.77912 0.71896 0.3191 0.0
H722 H 0.73684 0.72002 0.35545 0.0
C723 C 0.73846 0.76589 0.2118 0.0
C724 C 0.4857 0.50645 0.433 0.0
C725 C 0.50252 0.52145 0.47097 0.0
H726 H 0.47183 0.47114 0.42525 0.0
C727 C 0.51866 0.51213 0.53126 0.0
H728 H 0.47287 0.51337 0.38742 0.0
C729 C 0.51811 0.48809 0.55277 0.0
C730 C 0.50138 0.47303 0.51442 0.0
H731 H 0.53178 0.52346 0.56133 0.0
H732 H 0.531 0.48119 0.59814 0.0
C733 C 0.48505 0.48243 0.45497 0.0
C734 C 0.7609 0.26117 0.81271 0.0
C735 C 0.77638 0.24567 0.76999 0.0
H736 H 0.72523 0.27378 0.82459 0.0
C737 C 0.76741 0.23038 0.70614 0.0
H738 H 0.76748 0.27332 0.86133 0.0
C739 C 0.74336 0.23073 0.68475 0.0
C740 C 0.72791 0.24631 0.72714 0.0
H741 H 0.77904 0.21813 0.67279 0.0
H742 H 0.7368 0.2186 0.63601 0.0
C743 C 0.73685 0.26151 0.79135 0.0
C744 C 0.2439 0.23274 0.80681 0.0
C745 C 0.22883 0.24945 0.76835 0.0
H746 H 0.27929 0.21912 0.81563 0.0
C747 C 0.23824 0.26584 0.7091 0.0
H748 H 0.237 0.21979 0.85202 0.0
C749 C 0.26227 0.26523 0.68733 0.0
C750 C 0.27728 0.24841 0.72534 0.0
H751 H 0.22695 0.27904 0.67931 0.0
H752 H 0.26919 0.27809 0.64181 0.0
C753 C 0.26796 0.23225 0.78553 0.0
C754 C 0.23686 0.76192 0.29374 0.0
C755 C 0.22781 0.74698 0.22896 0.0
H756 H 0.26757 0.77328 0.36428 0.0
C757 C 0.24314 0.73135 0.18614 0.0
H758 H 0.22534 0.77422 0.32733 0.0
C759 C 0.26717 0.73072 0.20769 0.0
C760 C 0.27625 0.74576 0.27209 0.0
H761 H 0.23648 0.71942 0.13695 0.0
H762 H 0.27869 0.71845 0.17399 0.0
C763 C 0.2609 0.7613 0.31525 0.0
C764 C 0.48734 0.00556 0.56275 0.0
C765 C 0.50395 0.02058 0.5235 0.0
H766 H 0.47377 0.97016 0.57268 0.0
C767 C 0.52025 0.01109 0.46412 0.0
H768 H 0.47447 0.01253 0.60811 0.0
C769 C 0.51964 0.98703 0.44298 0.0
C770 C 0.5029 0.97206 0.4817 0.0
H771 H 0.53338 0.02236 0.43373 0.0
H772 H 0.53242 0.98005 0.3973 0.0
C773 C 0.48684 0.98146 0.54207 0.0
C774 C 0.98557 0.98229 0.95491 0.0
C775 C 0.00073 0.97327 0.01912 0.0
H776 H 0.9742 0.0129 0.88376 0.0
C777 C 0.01637 0.98866 0.06153 0.0
H778 H 0.97322 0.97073 0.92177 0.0
C779 C 0.01699 0.01267 0.03951 0.0
C780 C 0.00194 0.02166 0.9749 0.0
H781 H 0.02844 0.98204 0.11038 0.0
H782 H 0.02935 0.02423 0.07257 0.0
C783 C 0.98621 0.00629 0.9328 0.0
C784 C 0.08808 0.68343 0.0445 0.0
C785 C 0.09555 0.69038 0.12748 0.0
H786 H 0.06486 0.66147 0.96993 0.0
C787 C 0.08624 0.67856 0.20001 0.0
H788 H 0.09493 0.69214 0.98726 0.0
C789 C 0.06912 0.66093 0.1901 0.0
C790 C 0.06075 0.6548 0.10743 0.0
H791 H 0.09174 0.68333 0.26486 0.0
H792 H 0.06186 0.6527 0.24763 0.0
C793 C 0.07079 0.66588 0.03459 0.0
C794 C 0.56736 0.83315 0.3003 0.0
C795 C 0.55981 0.83993 0.38336 0.0
H796 H 0.58979 0.81054 0.22522 0.0
C797 C 0.5711 0.82999 0.45594 0.0
H798 H 0.55911 0.8405 0.243 0.0
C799 C 0.58877 0.81289 0.44577 0.0
C800 C 0.59545 0.80521 0.36279 0.0
H801 H 0.56585 0.83495 0.52089 0.0
H802 H 0.59655 0.80509 0.50315 0.0
C803 C 0.58494 0.81592 0.29013 0.0
C804 C 0.43421 0.32987 0.53401 0.0
C805 C 0.44475 0.34044 0.60688 0.0
H806 H 0.40957 0.30415 0.48646 0.0
C807 C 0.43667 0.33404 0.68967 0.0
H808 H 0.43989 0.33451 0.46924 0.0
C809 C 0.41936 0.31656 0.69951 0.0
C810 C 0.40961 0.30519 0.6268 0.0
H811 H 0.44432 0.34188 0.74719 0.0
H812 H 0.41411 0.31151 0.76437 0.0
C813 C 0.41676 0.31249 0.54385 0.0
C814 C 0.93828 0.16158 0.79093 0.0
C815 C 0.94521 0.15389 0.87366 0.0
H816 H 0.91644 0.18511 0.71712 0.0
C817 C 0.93343 0.16306 0.9465 0.0
H818 H 0.94696 0.15484 0.73348 0.0
C819 C 0.91589 0.18031 0.93716 0.0
C820 C 0.90982 0.18893 0.85478 0.0
H821 H 0.93819 0.15739 0.01117 0.0
H822 H 0.90772 0.18747 0.99493 0.0
C823 C 0.92082 0.17898 0.7816 0.0
C824 C 0.08492 0.31556 0.78775 0.0
C825 C 0.0955 0.3049 0.8604 0.0
H826 H 0.0591 0.34018 0.74071 0.0
C827 C 0.08895 0.31271 0.94337 0.0
H828 H 0.08967 0.31009 0.72285 0.0
C829 C 0.07135 0.32988 0.95357 0.0
C830 C 0.06 0.33977 0.88105 0.0
H831 H 0.09679 0.30495 0.00074 0.0
H832 H 0.06621 0.33493 0.01854 0.0
C833 C 0.06741 0.33287 0.79796 0.0
C834 C 0.93623 0.83306 0.19033 0.0
C835 C 0.94443 0.83936 0.10758 0.0
H836 H 0.91377 0.81048 0.26515 0.0
C837 C 0.93427 0.82841 0.03475 0.0
H838 H 0.94359 0.84118 0.24785 0.0
C839 C 0.91702 0.81082 0.0447 0.0
C840 C 0.90971 0.8037 0.1277 0.0
H841 H 0.94007 0.83295 0.97003 0.0
H842 H 0.91007 0.80223 0.98741 0.0
C843 C 0.91914 0.81538 0.20028 0.0
C844 C 0.43817 0.66122 0.29113 0.0
C845 C 0.44526 0.65351 0.37364 0.0
H846 H 0.41613 0.68471 0.21798 0.0
C847 C 0.43355 0.66257 0.44681 0.0
H848 H 0.44678 0.65455 0.23342 0.0
C849 C 0.41593 0.67976 0.43799 0.0
C850 C 0.40971 0.68841 0.3558 0.0
H851 H 0.43843 0.65688 0.51133 0.0
H852 H 0.40782 0.68686 0.49597 0.0
C853 C 0.42063 0.67856 0.28231 0.0
C854 C 0.58851 0.1812 0.54661 0.0
C855 C 0.59569 0.18869 0.62925 0.0
H856 H 0.56534 0.15901 0.47291 0.0
C857 C 0.58597 0.17749 0.70241 0.0
H858 H 0.59568 0.18941 0.48891 0.0
C859 C 0.56865 0.15999 0.69329 0.0
C860 C 0.56052 0.15341 0.61079 0.0
H861 H 0.59124 0.18268 0.76707 0.0
H862 H 0.56101 0.15229 0.75113 0.0
C863 C 0.57105 0.1638 0.53748 0.0
C864 C 0.93255 0.3287 0.95734 0.0
C865 C 0.94392 0.33985 0.88758 0.0
H866 H 0.90733 0.30273 -0.00214 0.0
C867 C 0.93676 0.33414 0.80274 0.0
H868 H 0.93751 0.33274 0.0234 0.0
C869 C 0.91954 0.31683 0.7879 0.0
C870 C 0.90894 0.3049 0.85753 0.0
H871 H 0.94507 0.34239 0.74724 0.0
H872 H 0.91508 0.31233 0.72175 0.0
C873 C 0.91519 0.31148 0.94249 0.0
C874 C 0.43289 0.16448 0.53558 0.0
C875 C 0.44475 0.15408 0.60576 0.0
H876 H 0.40736 0.18992 0.49374 0.0
C877 C 0.43819 0.1607 0.69036 0.0
H878 H 0.43741 0.15975 0.46968 0.0
C879 C 0.42096 0.17807 0.70437 0.0
C880 C 0.40982 0.18919 0.63411 0.0
H881 H 0.44694 0.15311 0.74615 0.0
H882 H 0.41691 0.18325 0.77021 0.0
C883 C 0.41559 0.18178 0.54959 0.0
C884 C 0.58965 0.68267 0.43811 0.0
C885 C 0.59617 0.68953 0.35371 0.0
H886 H 0.56727 0.66104 0.51735 0.0
C887 C 0.5858 0.67781 0.28317 0.0
H888 H 0.59722 0.6913 0.49416 0.0
C889 C 0.56861 0.66037 0.29667 0.0
C890 C 0.56128 0.65432 0.38103 0.0
H891 H 0.59046 0.68256 0.2174 0.0
H892 H 0.56048 0.65226 0.24059 0.0
C893 C 0.57239 0.66531 0.45161 0.0
C894 C 0.067 0.83493 0.19206 0.0
C895 C 0.06029 0.84124 0.10729 0.0
H896 H 0.08846 0.81262 0.27229 0.0
C897 C 0.07221 0.83082 0.03731 0.0
H898 H 0.05826 0.84267 0.24767 0.0
C899 C 0.08962 0.81368 0.05162 0.0
C900 C 0.09545 0.80643 0.13625 0.0
H901 H 0.06761 0.83534 0.9713 0.0
H902 H 0.09785 0.80548 -0.00412 0.0
C903 C 0.08432 0.81765 0.20636 0.0
C904 C 0.92052 0.67631 0.20614 0.0
C905 C 0.90953 0.68765 0.13598 0.0
H906 H 0.9465 0.65123 0.24764 0.0
C907 C 0.91551 0.68052 0.05136 0.0
H908 H 0.91626 0.68124 0.27206 0.0
C909 C 0.93296 0.66339 0.03716 0.0
C910 C 0.94475 0.65287 0.10724 0.0
H911 H 0.90739 0.68881 0.99558 0.0
H912 H 0.93769 0.65897 0.97118 0.0
C913 C 0.93787 0.65905 0.19194 0.0
C914 C 0.08954 0.18256 0.93726 0.0
C915 C 0.09609 0.18922 0.85267 0.0
H916 H 0.0671 0.16115 0.01706 0.0
C917 C 0.08575 0.17734 0.78245 0.0
H918 H 0.09709 0.19133 0.99307 0.0
C919 C 0.06855 0.15993 0.79642 0.0
C920 C 0.06117 0.1541 0.88093 0.0
H921 H 0.09044 0.18192 0.71656 0.0
H922 H 0.06043 0.15169 0.74055 0.0
C923 C 0.07225 0.16525 0.95122 0.0
C924 C 0.584 0.31594 0.7022 0.0
C925 C 0.59528 0.30469 0.63255 0.0
H926 H 0.55794 0.34098 0.74262 0.0
C927 C 0.58967 0.31192 0.54766 0.0
H928 H 0.58792 0.31089 0.76829 0.0
C929 C 0.57239 0.32919 0.53271 0.0
C930 C 0.5604 0.33973 0.6023 0.0
H931 H 0.59801 0.30368 0.49224 0.0
H932 H 0.568 0.33379 0.46658 0.0
C933 C 0.5668 0.33328 0.68726 0.0
C934 C 0.43664 0.83366 0.30493 0.0
C935 C 0.44374 0.8394 0.3898 0.0
H936 H 0.41503 0.81181 0.22383 0.0
C937 C 0.43238 0.82821 0.4595 0.0
H938 H 0.44495 0.84193 0.24947 0.0
C939 C 0.41508 0.81095 0.44457 0.0
C940 C 0.40886 0.80437 0.35957 0.0
H941 H 0.4373 0.83227 0.52559 0.0
H942 H 0.40721 0.80218 0.4999 0.0
C943 C 0.41946 0.81632 0.29 0.0
loop_
_geom_bond_atom_site_label_1
_geom_bond_atom_site_label_2
_geom_bond_distance
_geom_bond_site_symmetry_2
_ccdc_geom_bond_type
Co0 O3 1.970 1_455 S
Co0 N17 1.989 . S
Co0 O25 1.967 . S
Co0 O32 1.920 . S
Co1 O4 1.966 1_456 S
Co1 N10 2.022 . S
Co1 N18 1.993 1_556 S
Co1 O26 1.941 1_556 S
C2 O3 1.258 . S
C2 O4 1.263 . S
O3 Co0 1.970 1_655 S
O3 C2 1.258 . S
O4 Co1 1.966 1_654 S
O4 C2 1.263 . S
C5 O6 1.235 . S
C5 O32 1.289 1_655 S
O6 C5 1.235 . S
C7 C9 1.403 . S
C7 N10 1.351 1_655 S
C7 C12 1.501 . S
C8 C9 1.377 1_455 S
C8 N11 1.341 . S
C9 C7 1.403 . S
C9 C8 1.377 1_655 S
N10 Co1 2.022 . S
N10 C7 1.351 1_455 S
N10 N11 1.365 . S
N11 C8 1.341 . S
N11 N10 1.365 . S
N11 H31 0.862 . S
C12 C7 1.501 . S
C12 H13 0.961 . S
C12 H14 0.961 . S
C12 H15 0.960 . S
H13 C12 0.961 . S
H14 C12 0.961 . S
H15 C12 0.960 . S
C16 N17 1.342 . S
C16 C20 1.401 . S
C16 C21 1.499 . S
N17 Co0 1.989 . S
N17 C16 1.342 . S
N17 N18 1.388 . S
N18 Co1 1.993 1_554 S
N18 N17 1.388 . S
N18 C19 1.346 1_554 S
C19 N18 1.346 1_556 S
C19 C20 1.396 1_556 S
C19 C29 1.510 . S
C20 C16 1.401 . S
C20 C19 1.396 1_554 S
C21 C16 1.499 . S
C21 H22 0.959 . S
C21 H23 0.960 . S
C21 H24 0.961 . S
H22 C21 0.959 . S
H23 C21 0.960 . S
H24 C21 0.961 . S
O25 Co0 1.967 . S
O25 C33 1.258 . S
O26 Co1 1.941 1_554 S
O26 C33 1.266 . S
H27 C29 0.959 . S
H28 C29 0.961 1_655 S
C29 C19 1.510 . S
C29 H27 0.959 . S
C29 H28 0.961 1_455 S
C29 H30 0.960 . S
H30 C29 0.960 . S
H31 N11 0.862 . S
O32 Co0 1.920 . S
O32 C5 1.289 1_455 S
C33 O25 1.258 . S
C33 O26 1.266 . S
Co34 O37 1.970 . S
Co34 N51 1.989 . S
Co34 O59 1.967 . S
Co34 O66 1.920 . S
Co35 O38 1.966 . S
Co35 N44 2.022 . S
Co35 N52 1.993 . S
Co35 O60 1.941 . S
C36 O37 1.258 . S
C36 O38 1.263 . S
O37 Co34 1.970 . S
O37 C36 1.258 . S
O38 Co35 1.966 . S
O38 C36 1.263 . S
C39 O40 1.235 . S
C39 O66 1.289 . S
O40 C39 1.235 . S
C41 C43 1.400 1_554 S
C41 N44 1.351 . S
C41 C46 1.501 . S
C42 C43 1.387 . S
C42 N45 1.341 1_556 S
C43 C41 1.400 1_556 S
C43 C42 1.387 . S
N44 Co35 2.022 . S
N44 C41 1.351 . S
N44 N45 1.365 . S
N45 C42 1.341 1_554 S
N45 N44 1.365 . S
N45 H65 0.862 . S
C46 C41 1.501 . S
C46 H47 0.961 . S
C46 H48 0.961 . S
C46 H49 0.960 . S
H47 C46 0.961 . S
H48 C46 0.961 . S
H49 C46 0.960 . S
C50 N51 1.342 . S
C50 C54 1.401 . S
C50 C55 1.499 . S
N51 Co34 1.989 . S
N51 C50 1.342 . S
N51 N52 1.388 . S
N52 Co35 1.993 . S
N52 N51 1.388 . S
N52 C53 1.346 . S
C53 N52 1.346 . S
C53 C54 1.396 . S
C53 C63 1.510 . S
C54 C50 1.401 . S
C54 C53 1.396 . S
C55 C50 1.499 . S
C55 H56 0.959 . S
C55 H57 0.960 . S
C55 H58 0.961 . S
H56 C55 0.959 . S
H57 C55 0.960 . S
H58 C55 0.961 . S
O59 Co34 1.967 . S
O59 C67 1.258 . S
O60 Co35 1.941 . S
O60 C67 1.266 . S
H61 C63 0.959 . S
H62 C63 0.961 . S
C63 C53 1.510 . S
C63 H61 0.959 . S
C63 H62 0.961 . S
C63 H64 0.960 . S
H64 C63 0.960 . S
H65 N45 0.862 . S
O66 Co34 1.920 . S
O66 C39 1.289 . S
C67 O59 1.258 . S
C67 O60 1.266 . S
Co68 O71 1.970 . S
Co68 N85 1.989 . S
Co68 O93 1.967 . S
Co68 O100 1.920 . S
Co69 O72 1.966 . S
Co69 N78 2.022 . S
Co69 N86 1.993 . S
Co69 O94 1.941 . S
C70 O71 1.258 . S
C70 O72 1.263 . S
O71 Co68 1.970 . S
O71 C70 1.258 . S
O72 Co69 1.966 . S
O72 C70 1.263 . S
C73 O74 1.235 . S
C73 O100 1.289 . S
O74 C73 1.235 . S
C75 C77 1.400 . S
C75 N78 1.351 . S
C75 C80 1.501 . S
C76 C77 1.387 . S
C76 N79 1.341 . S
C77 C75 1.400 . S
C77 C76 1.387 . S
N78 Co69 2.022 . S
N78 C75 1.351 . S
N78 N79 1.365 . S
N79 C76 1.341 . S
N79 N78 1.365 . S
N79 H99 0.862 . S
C80 C75 1.501 . S
C80 H81 0.961 . S
C80 H82 0.961 . S
C80 H83 0.960 . S
H81 C80 0.961 . S
H82 C80 0.961 . S
H83 C80 0.960 . S
C84 N85 1.342 . S
C84 C88 1.401 . S
C84 C89 1.499 . S
N85 Co68 1.989 . S
N85 C84 1.342 . S
N85 N86 1.388 . S
N86 Co69 1.993 . S
N86 N85 1.388 . S
N86 C87 1.346 . S
C87 N86 1.346 . S
C87 C88 1.396 . S
C87 C97 1.510 . S
C88 C84 1.401 . S
C88 C87 1.396 . S
C89 C84 1.499 . S
C89 H90 0.959 . S
C89 H91 0.960 . S
C89 H92 0.961 . S
H90 C89 0.959 . S
H91 C89 0.960 . S
H92 C89 0.961 . S
O93 Co68 1.967 . S
O93 C101 1.258 . S
O94 Co69 1.941 . S
O94 C101 1.266 . S
H95 C97 0.959 . S
H96 C97 0.961 . S
C97 C87 1.510 . S
C97 H95 0.959 . S
C97 H96 0.961 . S
C97 H98 0.960 . S
H98 C97 0.960 . S
H99 N79 0.862 . S
O100 Co68 1.920 . S
O100 C73 1.289 . S
C101 O93 1.258 . S
C101 O94 1.266 . S
Co102 O105 1.970 . S
Co102 N119 1.989 . S
Co102 O127 1.967 . S
Co102 O134 1.920 1_556 S
Co103 O106 1.966 . S
Co103 N112 2.022 . S
Co103 N120 1.993 . S
Co103 O128 1.941 . S
C104 O105 1.258 . S
C104 O106 1.263 . S
O105 Co102 1.970 . S
O105 C104 1.258 . S
O106 Co103 1.966 . S
O106 C104 1.263 . S
C107 O108 1.235 . S
C107 O134 1.289 . S
O108 C107 1.235 . S
C109 C111 1.400 . S
C109 N112 1.351 . S
C109 C114 1.501 . S
C110 C111 1.387 . S
C110 N113 1.341 . S
C111 C109 1.400 . S
C111 C110 1.387 . S
N112 Co103 2.022 . S
N112 C109 1.351 . S
N112 N113 1.365 . S
N113 C110 1.341 . S
N113 N112 1.365 . S
N113 H133 0.862 . S
C114 C109 1.501 . S
C114 H115 0.961 . S
C114 H116 0.961 . S
C114 H117 0.960 . S
H115 C114 0.961 . S
H116 C114 0.961 . S
H117 C114 0.960 . S
C118 N119 1.342 . S
C118 C122 1.401 . S
C118 C123 1.499 . S
N119 Co102 1.989 . S
N119 C118 1.342 . S
N119 N120 1.388 . S
N120 Co103 1.993 . S
N120 N119 1.388 . S
N120 C121 1.346 . S
C121 N120 1.346 . S
C121 C122 1.396 . S
C121 C131 1.510 . S
C122 C118 1.401 . S
C122 C121 1.396 . S
C123 C118 1.499 . S
C123 H124 0.959 1_556 S
C123 H125 0.960 . S
C123 H126 0.961 . S
H124 C123 0.959 1_554 S
H125 C123 0.960 . S
H126 C123 0.961 . S
O127 Co102 1.967 . S
O127 C135 1.258 . S
O128 Co103 1.941 . S
O128 C135 1.266 . S
H129 C131 0.959 . S
H130 C131 0.961 . S
C131 C121 1.510 . S
C131 H129 0.959 . S
C131 H130 0.961 . S
C131 H132 0.960 . S
H132 C131 0.960 . S
H133 N113 0.862 . S
O134 Co102 1.920 1_554 S
O134 C107 1.289 . S
C135 O127 1.258 . S
C135 O128 1.266 . S
Co136 O139 1.970 1_455 S
Co136 N153 1.989 . S
Co136 O161 1.967 . S
Co136 O168 1.920 . S
Co137 O140 1.966 1_454 S
Co137 N146 2.022 . S
Co137 N154 1.993 1_554 S
Co137 O162 1.941 1_554 S
C138 O139 1.258 . S
C138 O140 1.263 . S
O139 Co136 1.970 1_655 S
O139 C138 1.258 . S
O140 Co137 1.966 1_656 S
O140 C138 1.263 . S
C141 O142 1.235 . S
C141 O168 1.289 1_655 S
O142 C141 1.235 . S
C143 C145 1.403 . S
C143 N146 1.351 1_655 S
C143 C148 1.501 . S
C144 C145 1.377 1_455 S
C144 N147 1.341 . S
C145 C143 1.403 . S
C145 C144 1.377 1_655 S
N146 Co137 2.022 . S
N146 C143 1.351 1_455 S
N146 N147 1.365 . S
N147 C144 1.341 . S
N147 N146 1.365 . S
N147 H167 0.862 . S
C148 C143 1.501 . S
C148 H149 0.961 . S
C148 H150 0.961 . S
C148 H151 0.960 . S
H149 C148 0.961 . S
H150 C148 0.961 . S
H151 C148 0.960 . S
C152 N153 1.342 . S
C152 C156 1.401 . S
C152 C157 1.499 . S
N153 Co136 1.989 . S
N153 C152 1.342 . S
N153 N154 1.388 . S
N154 Co137 1.993 1_556 S
N154 N153 1.388 . S
N154 C155 1.346 1_556 S
C155 N154 1.346 1_554 S
C155 C156 1.396 1_554 S
C155 C165 1.510 . S
C156 C152 1.401 . S
C156 C155 1.396 1_556 S
C157 C152 1.499 . S
C157 H158 0.959 . S
C157 H159 0.960 . S
C157 H160 0.961 . S
H158 C157 0.959 . S
H159 C157 0.960 . S
H160 C157 0.961 . S
O161 Co136 1.967 . S
O161 C169 1.258 . S
O162 Co137 1.941 1_556 S
O162 C169 1.266 . S
H163 C165 0.959 . S
H164 C165 0.961 1_655 S
C165 C155 1.510 . S
C165 H163 0.959 . S
C165 H164 0.961 1_455 S
C165 H166 0.960 . S
H166 C165 0.960 . S
H167 N147 0.862 . S
O168 Co136 1.920 . S
O168 C141 1.289 1_455 S
C169 O161 1.258 . S
C169 O162 1.266 . S
Co170 O173 1.970 . S
Co170 N187 1.989 . S
Co170 O195 1.967 . S
Co170 O202 1.920 1_554 S
Co171 O174 1.966 . S
Co171 N180 2.022 . S
Co171 N188 1.993 . S
Co171 O196 1.941 . S
C172 O173 1.258 . S
C172 O174 1.263 . S
O173 Co170 1.970 . S
O173 C172 1.258 . S
O174 Co171 1.966 . S
O174 C172 1.263 . S
C175 O176 1.235 . S
C175 O202 1.289 . S
O176 C175 1.235 . S
C177 C179 1.400 . S
C177 N180 1.351 . S
C177 C182 1.501 . S
C178 C179 1.387 . S
C178 N181 1.341 . S
C179 C177 1.400 . S
C179 C178 1.387 . S
N180 Co171 2.022 . S
N180 C177 1.351 . S
N180 N181 1.365 . S
N181 C178 1.341 . S
N181 N180 1.365 . S
N181 H201 0.862 . S
C182 C177 1.501 . S
C182 H183 0.961 . S
C182 H184 0.961 . S
C182 H185 0.960 . S
H183 C182 0.961 . S
H184 C182 0.961 . S
H185 C182 0.960 . S
C186 N187 1.342 . S
C186 C190 1.401 . S
C186 C191 1.499 . S
N187 Co170 1.989 . S
N187 C186 1.342 . S
N187 N188 1.388 . S
N188 Co171 1.993 . S
N188 N187 1.388 . S
N188 C189 1.346 . S
C189 N188 1.346 . S
C189 C190 1.396 . S
C189 C199 1.510 . S
C190 C186 1.401 . S
C190 C189 1.396 . S
C191 C186 1.499 . S
C191 H192 0.959 1_554 S
C191 H193 0.960 . S
C191 H194 0.961 . S
H192 C191 0.959 1_556 S
H193 C191 0.960 . S
H194 C191 0.961 . S
O195 Co170 1.967 . S
O195 C203 1.258 . S
O196 Co171 1.941 . S
O196 C203 1.266 . S
H197 C199 0.959 . S
H198 C199 0.961 . S
C199 C189 1.510 . S
C199 H197 0.959 . S
C199 H198 0.961 . S
C199 H200 0.960 . S
H200 C199 0.960 . S
H201 N181 0.862 . S
O202 Co170 1.920 1_556 S
O202 C175 1.289 . S
C203 O195 1.258 . S
C203 O196 1.266 . S
Co204 O207 1.970 . S
Co204 N221 1.989 . S
Co204 O229 1.967 . S
Co204 O236 1.920 . S
Co205 O208 1.966 . S
Co205 N214 2.022 . S
Co205 N222 1.993 . S
Co205 O230 1.941 . S
C206 O207 1.258 . S
C206 O208 1.263 . S
O207 Co204 1.970 . S
O207 C206 1.258 . S
O208 Co205 1.966 . S
O208 C206 1.263 . S
C209 O210 1.235 . S
C209 O236 1.289 . S
O210 C209 1.235 . S
C211 C213 1.400 . S
C211 N214 1.351 . S
C211 C216 1.501 . S
C212 C213 1.387 . S
C212 N215 1.341 . S
C213 C211 1.400 . S
C213 C212 1.387 . S
N214 Co205 2.022 . S
N214 C211 1.351 . S
N214 N215 1.365 . S
N215 C212 1.341 . S
N215 N214 1.365 . S
N215 H235 0.862 . S
C216 C211 1.501 . S
C216 H217 0.961 . S
C216 H218 0.961 . S
C216 H219 0.960 . S
H217 C216 0.961 . S
H218 C216 0.961 . S
H219 C216 0.960 . S
C220 N221 1.342 . S
C220 C224 1.401 . S
C220 C225 1.499 . S
N221 Co204 1.989 . S
N221 C220 1.342 . S
N221 N222 1.388 . S
N222 Co205 1.993 . S
N222 N221 1.388 . S
N222 C223 1.346 . S
C223 N222 1.346 . S
C223 C224 1.396 . S
C223 C233 1.510 . S
C224 C220 1.401 . S
C224 C223 1.396 . S
C225 C220 1.499 . S
C225 H226 0.959 . S
C225 H227 0.960 . S
C225 H228 0.961 . S
H226 C225 0.959 . S
H227 C225 0.960 . S
H228 C225 0.961 . S
O229 Co204 1.967 . S
O229 C237 1.258 . S
O230 Co205 1.941 . S
O230 C237 1.266 . S
H231 C233 0.959 . S
H232 C233 0.961 . S
C233 C223 1.510 . S
C233 H231 0.959 . S
C233 H232 0.961 . S
C233 H234 0.960 . S
H234 C233 0.960 . S
H235 N215 0.862 . S
O236 Co204 1.920 . S
O236 C209 1.289 . S
C237 O229 1.258 . S
C237 O230 1.266 . S
Co238 O241 1.970 . S
Co238 N255 1.989 . S
Co238 O263 1.967 . S
Co238 O270 1.920 . S
Co239 O242 1.966 . S
Co239 N248 2.022 . S
Co239 N256 1.993 . S
Co239 O264 1.941 . S
C240 O241 1.258 . S
C240 O242 1.263 . S
O241 Co238 1.970 . S
O241 C240 1.258 . S
O242 Co239 1.966 . S
O242 C240 1.263 . S
C243 O244 1.235 . S
C243 O270 1.289 . S
O244 C243 1.235 . S
C245 C247 1.400 1_556 S
C245 N248 1.351 . S
C245 C250 1.501 . S
C246 C247 1.387 . S
C246 N249 1.341 1_554 S
C247 C245 1.400 1_554 S
C247 C246 1.387 . S
N248 Co239 2.022 . S
N248 C245 1.351 . S
N248 N249 1.365 . S
N249 C246 1.341 1_556 S
N249 N248 1.365 . S
N249 H269 0.862 . S
C250 C245 1.501 . S
C250 H251 0.961 . S
C250 H252 0.961 . S
C250 H253 0.960 . S
H251 C250 0.961 . S
H252 C250 0.961 . S
H253 C250 0.960 . S
C254 N255 1.342 . S
C254 C258 1.401 . S
C254 C259 1.499 . S
N255 Co238 1.989 . S
N255 C254 1.342 . S
N255 N256 1.388 . S
N256 Co239 1.993 . S
N256 N255 1.388 . S
N256 C257 1.346 . S
C257 N256 1.346 . S
C257 C258 1.396 . S
C257 C267 1.510 . S
C258 C254 1.401 . S
C258 C257 1.396 . S
C259 C254 1.499 . S
C259 H260 0.959 . S
C259 H261 0.960 . S
C259 H262 0.961 . S
H260 C259 0.959 . S
H261 C259 0.960 . S
H262 C259 0.961 . S
O263 Co238 1.967 . S
O263 C271 1.258 . S
O264 Co239 1.941 . S
O264 C271 1.266 . S
H265 C267 0.959 . S
H266 C267 0.961 . S
C267 C257 1.510 . S
C267 H265 0.959 . S
C267 H266 0.961 . S
C267 H268 0.960 . S
H268 C267 0.960 . S
H269 N249 0.862 . S
O270 Co238 1.920 . S
O270 C243 1.289 . S
C271 O263 1.258 . S
C271 O264 1.266 . S
Co272 O275 1.970 . S
Co272 N289 1.989 . S
Co272 O297 1.967 . S
Co272 O304 1.920 . S
Co273 O276 1.966 . S
Co273 N282 2.022 . S
Co273 N290 1.993 . S
Co273 O298 1.941 . S
C274 O275 1.258 . S
C274 O276 1.263 . S
O275 Co272 1.970 . S
O275 C274 1.258 . S
O276 Co273 1.966 . S
O276 C274 1.263 . S
C277 O278 1.235 . S
C277 O304 1.289 . S
O278 C277 1.235 . S
C279 C281 1.400 1_556 S
C279 N282 1.351 . S
C279 C284 1.501 . S
C280 C281 1.387 . S
C280 N283 1.341 1_554 S
C281 C279 1.400 1_554 S
C281 C280 1.387 . S
N282 Co273 2.022 . S
N282 C279 1.351 . S
N282 N283 1.365 . S
N283 C280 1.341 1_556 S
N283 N282 1.365 . S
N283 H303 0.862 . S
C284 C279 1.501 . S
C284 H285 0.961 . S
C284 H286 0.961 . S
C284 H287 0.960 . S
H285 C284 0.961 . S
H286 C284 0.961 . S
H287 C284 0.960 . S
C288 N289 1.342 . S
C288 C292 1.401 . S
C288 C293 1.499 . S
N289 Co272 1.989 . S
N289 C288 1.342 . S
N289 N290 1.388 . S
N290 Co273 1.993 . S
N290 N289 1.388 . S
N290 C291 1.346 . S
C291 N290 1.346 . S
C291 C292 1.396 . S
C291 C301 1.510 . S
C292 C288 1.401 . S
C292 C291 1.396 . S
C293 C288 1.499 . S
C293 H294 0.959 . S
C293 H295 0.960 . S
C293 H296 0.961 . S
H294 C293 0.959 . S
H295 C293 0.960 . S
H296 C293 0.961 . S
O297 Co272 1.967 . S
O297 C305 1.258 . S
O298 Co273 1.941 . S
O298 C305 1.266 . S
H299 C301 0.959 . S
H300 C301 0.961 . S
C301 C291 1.510 . S
C301 H299 0.959 . S
C301 H300 0.961 . S
C301 H302 0.960 . S
H302 C301 0.960 . S
H303 N283 0.862 . S
O304 Co272 1.920 . S
O304 C277 1.289 . S
C305 O297 1.258 . S
C305 O298 1.266 . S
Co306 O309 1.970 . S
Co306 N323 1.989 . S
Co306 O331 1.967 . S
Co306 O338 1.920 1_554 S
Co307 O310 1.966 . S
Co307 N316 2.022 . S
Co307 N324 1.993 . S
Co307 O332 1.941 . S
C308 O309 1.258 . S
C308 O310 1.263 . S
O309 Co306 1.970 . S
O309 C308 1.258 . S
O310 Co307 1.966 . S
O310 C308 1.263 . S
C311 O312 1.235 . S
C311 O338 1.289 . S
O312 C311 1.235 . S
C313 C315 1.400 . S
C313 N316 1.351 . S
C313 C318 1.501 . S
C314 C315 1.387 . S
C314 N317 1.341 . S
C315 C313 1.400 . S
C315 C314 1.387 . S
N316 Co307 2.022 . S
N316 C313 1.351 . S
N316 N317 1.365 . S
N317 C314 1.341 . S
N317 N316 1.365 . S
N317 H337 0.862 . S
C318 C313 1.501 . S
C318 H319 0.961 . S
C318 H320 0.961 . S
C318 H321 0.960 . S
H319 C318 0.961 . S
H320 C318 0.961 . S
H321 C318 0.960 . S
C322 N323 1.342 . S
C322 C326 1.401 . S
C322 C327 1.499 . S
N323 Co306 1.989 . S
N323 C322 1.342 . S
N323 N324 1.388 . S
N324 Co307 1.993 . S
N324 N323 1.388 . S
N324 C325 1.346 . S
C325 N324 1.346 . S
C325 C326 1.396 . S
C325 C335 1.510 . S
C326 C322 1.401 . S
C326 C325 1.396 . S
C327 C322 1.499 . S
C327 H328 0.959 1_554 S
C327 H329 0.960 . S
C327 H330 0.961 . S
H328 C327 0.959 1_556 S
H329 C327 0.960 . S
H330 C327 0.961 . S
O331 Co306 1.967 . S
O331 C339 1.258 . S
O332 Co307 1.941 . S
O332 C339 1.266 . S
H333 C335 0.959 . S
H334 C335 0.961 . S
C335 C325 1.510 . S
C335 H333 0.959 . S
C335 H334 0.961 . S
C335 H336 0.960 . S
H336 C335 0.960 . S
H337 N317 0.862 . S
O338 Co306 1.920 1_556 S
O338 C311 1.289 . S
C339 O331 1.258 . S
C339 O332 1.266 . S
Co340 O343 1.970 . S
Co340 N357 1.989 . S
Co340 O365 1.967 . S
Co340 O372 1.920 1_556 S
Co341 O344 1.966 . S
Co341 N350 2.022 . S
Co341 N358 1.993 . S
Co341 O366 1.941 . S
C342 O343 1.258 . S
C342 O344 1.263 . S
O343 Co340 1.970 . S
O343 C342 1.258 . S
O344 Co341 1.966 . S
O344 C342 1.263 . S
C345 O346 1.235 . S
C345 O372 1.289 . S
O346 C345 1.235 . S
C347 C349 1.400 . S
C347 N350 1.351 . S
C347 C352 1.501 . S
C348 C349 1.387 . S
C348 N351 1.341 . S
C349 C347 1.400 . S
C349 C348 1.387 . S
N350 Co341 2.022 . S
N350 C347 1.351 . S
N350 N351 1.365 . S
N351 C348 1.341 . S
N351 N350 1.365 . S
N351 H371 0.862 . S
C352 C347 1.501 . S
C352 H353 0.961 . S
C352 H354 0.961 . S
C352 H355 0.960 . S
H353 C352 0.961 . S
H354 C352 0.961 . S
H355 C352 0.960 . S
C356 N357 1.342 . S
C356 C360 1.401 . S
C356 C361 1.499 . S
N357 Co340 1.989 . S
N357 C356 1.342 . S
N357 N358 1.388 . S
N358 Co341 1.993 . S
N358 N357 1.388 . S
N358 C359 1.346 . S
C359 N358 1.346 . S
C359 C360 1.396 . S
C359 C369 1.510 . S
C360 C356 1.401 . S
C360 C359 1.396 . S
C361 C356 1.499 . S
C361 H362 0.959 1_556 S
C361 H363 0.960 . S
C361 H364 0.961 . S
H362 C361 0.959 1_554 S
H363 C361 0.960 . S
H364 C361 0.961 . S
O365 Co340 1.967 . S
O365 C373 1.258 . S
O366 Co341 1.941 . S
O366 C373 1.266 . S
H367 C369 0.959 . S
H368 C369 0.961 . S
C369 C359 1.510 . S
C369 H367 0.959 . S
C369 H368 0.961 . S
C369 H370 0.960 . S
H370 C369 0.960 . S
H371 N351 0.862 . S
O372 Co340 1.920 1_554 S
O372 C345 1.289 . S
C373 O365 1.258 . S
C373 O366 1.266 . S
Co374 O377 1.970 . S
Co374 N391 1.989 . S
Co374 O399 1.967 . S
Co374 O406 1.920 . S
Co375 O378 1.966 . S
Co375 N384 2.022 . S
Co375 N392 1.993 . S
Co375 O400 1.941 . S
C376 O377 1.258 . S
C376 O378 1.263 . S
O377 Co374 1.970 . S
O377 C376 1.258 . S
O378 Co375 1.966 . S
O378 C376 1.263 . S
C379 O380 1.235 . S
C379 O406 1.289 . S
O380 C379 1.235 . S
C381 C383 1.400 1_554 S
C381 N384 1.351 . S
C381 C386 1.501 . S
C382 C383 1.387 . S
C382 N385 1.341 1_556 S
C383 C381 1.400 1_556 S
C383 C382 1.387 . S
N384 Co375 2.022 . S
N384 C381 1.351 . S
N384 N385 1.365 . S
N385 C382 1.341 1_554 S
N385 N384 1.365 . S
N385 H405 0.862 . S
C386 C381 1.501 . S
C386 H387 0.961 . S
C386 H388 0.961 . S
C386 H389 0.960 . S
H387 C386 0.961 . S
H388 C386 0.961 . S
H389 C386 0.960 . S
C390 N391 1.342 . S
C390 C394 1.401 . S
C390 C395 1.499 . S
N391 Co374 1.989 . S
N391 C390 1.342 . S
N391 N392 1.388 . S
N392 Co375 1.993 . S
N392 N391 1.388 . S
N392 C393 1.346 . S
C393 N392 1.346 . S
C393 C394 1.396 . S
C393 C403 1.510 . S
C394 C390 1.401 . S
C394 C393 1.396 . S
C395 C390 1.499 . S
C395 H396 0.959 . S
C395 H397 0.960 . S
C395 H398 0.961 . S
H396 C395 0.959 . S
H397 C395 0.960 . S
H398 C395 0.961 . S
O399 Co374 1.967 . S
O399 C407 1.258 . S
O400 Co375 1.941 . S
O400 C407 1.266 . S
H401 C403 0.959 . S
H402 C403 0.961 . S
C403 C393 1.510 . S
C403 H401 0.959 . S
C403 H402 0.961 . S
C403 H404 0.960 . S
H404 C403 0.960 . S
H405 N385 0.862 . S
O406 Co374 1.920 . S
O406 C379 1.289 . S
C407 O399 1.258 . S
C407 O400 1.266 . S
Co408 O411 1.970 . S
Co408 N425 1.989 . S
Co408 O433 1.967 . S
Co408 O440 1.920 . S
Co409 O412 1.966 . S
Co409 N418 2.022 . S
Co409 N426 1.993 . S
Co409 O434 1.941 . S
C410 O411 1.258 . S
C410 O412 1.263 . S
O411 Co408 1.970 . S
O411 C410 1.258 . S
O412 Co409 1.966 . S
O412 C410 1.263 . S
C413 O414 1.235 . S
C413 O440 1.289 . S
O414 C413 1.235 . S
C415 C417 1.400 . S
C415 N418 1.351 . S
C415 C420 1.501 . S
C416 C417 1.387 . S
C416 N419 1.341 . S
C417 C415 1.400 . S
C417 C416 1.387 . S
N418 Co409 2.022 . S
N418 C415 1.351 . S
N418 N419 1.365 . S
N419 C416 1.341 . S
N419 N418 1.365 . S
N419 H439 0.862 . S
C420 C415 1.501 . S
C420 H421 0.961 . S
C420 H422 0.961 . S
C420 H423 0.960 . S
H421 C420 0.961 . S
H422 C420 0.961 . S
H423 C420 0.960 . S
C424 N425 1.342 . S
C424 C428 1.401 . S
C424 C429 1.499 . S
N425 Co408 1.989 . S
N425 C424 1.342 . S
N425 N426 1.388 . S
N426 Co409 1.993 . S
N426 N425 1.388 . S
N426 C427 1.346 . S
C427 N426 1.346 . S
C427 C428 1.396 . S
C427 C437 1.510 . S
C428 C424 1.401 . S
C428 C427 1.396 . S
C429 C424 1.499 . S
C429 H430 0.959 . S
C429 H431 0.960 . S
C429 H432 0.961 . S
H430 C429 0.959 . S
H431 C429 0.960 . S
H432 C429 0.961 . S
O433 Co408 1.967 . S
O433 C441 1.258 . S
O434 Co409 1.941 . S
O434 C441 1.266 . S
H435 C437 0.959 . S
H436 C437 0.961 . S
C437 C427 1.510 . S
C437 H435 0.959 . S
C437 H436 0.961 . S
C437 H438 0.960 . S
H438 C437 0.960 . S
H439 N419 0.862 . S
O440 Co408 1.920 . S
O440 C413 1.289 . S
C441 O433 1.258 . S
C441 O434 1.266 . S
Co442 O445 1.970 . S
Co442 N459 1.989 1_455 S
Co442 O467 1.967 1_455 S
Co442 O474 1.920 1_455 S
Co443 O446 1.966 1_656 S
Co443 N452 2.022 . S
Co443 N460 1.990 1_656 S
Co443 O468 1.941 1_556 S
C444 O445 1.258 . S
C444 O446 1.263 . S
O445 Co442 1.970 . S
O445 C444 1.258 . S
O446 Co443 1.966 1_454 S
O446 C444 1.263 . S
C447 O448 1.235 . S
C447 O474 1.289 1_455 S
O448 C447 1.235 . S
C449 C451 1.400 . S
C449 N452 1.351 1_455 S
C449 C454 1.501 . S
C450 C451 1.387 1_655 S
C450 N453 1.341 . S
C451 C449 1.400 . S
C451 C450 1.387 1_455 S
N452 Co443 2.022 . S
N452 C449 1.351 1_655 S
N452 N453 1.365 . S
N453 C450 1.341 . S
N453 N452 1.365 . S
N453 H473 0.862 . S
C454 C449 1.501 . S
C454 H455 0.961 . S
C454 H456 0.961 . S
C454 H457 0.960 . S
H455 C454 0.961 . S
H456 C454 0.961 . S
H457 C454 0.960 . S
C458 N459 1.342 . S
C458 C462 1.401 . S
C458 C463 1.499 . S
N459 Co442 1.989 1_655 S
N459 C458 1.342 . S
N459 N460 1.387 1_655 S
N460 Co443 1.990 1_454 S
N460 N459 1.387 1_455 S
N460 C461 1.342 1_454 S
C461 N460 1.342 1_656 S
C461 C462 1.396 1_556 S
C461 C471 1.511 . S
C462 C458 1.401 . S
C462 C461 1.396 1_554 S
C463 C458 1.499 . S
C463 H464 0.959 . S
C463 H465 0.960 1_655 S
C463 H466 0.961 . S
H464 C463 0.959 . S
H465 C463 0.960 1_455 S
H466 C463 0.961 . S
O467 Co442 1.967 1_655 S
O467 C475 1.258 . S
O468 Co443 1.941 1_554 S
O468 C475 1.266 . S
H469 C471 0.980 . S
H470 C471 0.942 1_455 S
C471 C461 1.511 . S
C471 H469 0.980 . S
C471 H470 0.942 1_655 S
C471 H472 0.957 1_655 S
H472 C471 0.957 1_455 S
H473 N453 0.862 . S
O474 Co442 1.920 1_655 S
O474 C447 1.289 1_655 S
C475 O467 1.258 . S
C475 O468 1.266 . S
Co476 O479 1.970 . S
Co476 N493 1.989 . S
Co476 O501 1.967 . S
Co476 O508 1.920 . S
Co477 O480 1.966 . S
Co477 N486 2.022 . S
Co477 N494 1.993 . S
Co477 O502 1.941 . S
C478 O479 1.258 . S
C478 O480 1.263 . S
O479 Co476 1.970 . S
O479 C478 1.258 . S
O480 Co477 1.966 . S
O480 C478 1.263 . S
C481 O482 1.235 . S
C481 O508 1.289 . S
O482 C481 1.235 . S
C483 C485 1.400 . S
C483 N486 1.351 . S
C483 C488 1.501 . S
C484 C485 1.387 . S
C484 N487 1.341 . S
C485 C483 1.400 . S
C485 C484 1.387 . S
N486 Co477 2.022 . S
N486 C483 1.351 . S
N486 N487 1.365 . S
N487 C484 1.341 . S
N487 N486 1.365 . S
N487 H507 0.862 . S
C488 C483 1.501 . S
C488 H489 0.961 . S
C488 H490 0.961 . S
C488 H491 0.960 . S
H489 C488 0.961 . S
H490 C488 0.961 . S
H491 C488 0.960 . S
C492 N493 1.342 . S
C492 C496 1.401 . S
C492 C497 1.499 . S
N493 Co476 1.989 . S
N493 C492 1.342 . S
N493 N494 1.388 . S
N494 Co477 1.993 . S
N494 N493 1.388 . S
N494 C495 1.346 . S
C495 N494 1.346 . S
C495 C496 1.396 . S
C495 C505 1.510 . S
C496 C492 1.401 . S
C496 C495 1.396 . S
C497 C492 1.499 . S
C497 H498 0.959 . S
C497 H499 0.960 . S
C497 H500 0.961 . S
H498 C497 0.959 . S
H499 C497 0.960 . S
H500 C497 0.961 . S
O501 Co476 1.967 . S
O501 C509 1.258 . S
O502 Co477 1.941 . S
O502 C509 1.266 . S
H503 C505 0.959 . S
H504 C505 0.961 . S
C505 C495 1.510 . S
C505 H503 0.959 . S
C505 H504 0.961 . S
C505 H506 0.960 . S
H506 C505 0.960 . S
H507 N487 0.862 . S
O508 Co476 1.920 . S
O508 C481 1.289 . S
C509 O501 1.258 . S
C509 O502 1.266 . S
Co510 O513 1.970 . S
Co510 N527 1.989 1_455 S
Co510 O535 1.967 1_455 S
Co510 O542 1.920 1_455 S
Co511 O514 1.966 1_654 S
Co511 N520 2.022 . S
Co511 N528 1.990 1_654 S
Co511 O536 1.941 1_554 S
C512 O513 1.258 . S
C512 O514 1.263 . S
O513 Co510 1.970 . S
O513 C512 1.258 . S
O514 Co511 1.966 1_456 S
O514 C512 1.263 . S
C515 O516 1.235 . S
C515 O542 1.289 1_455 S
O516 C515 1.235 . S
C517 C519 1.400 . S
C517 N520 1.351 1_455 S
C517 C522 1.501 . S
C518 C519 1.387 1_655 S
C518 N521 1.341 . S
C519 C517 1.400 . S
C519 C518 1.387 1_455 S
N520 Co511 2.022 . S
N520 C517 1.351 1_655 S
N520 N521 1.365 . S
N521 C518 1.341 . S
N521 N520 1.365 . S
N521 H541 0.862 . S
C522 C517 1.501 . S
C522 H523 0.961 . S
C522 H524 0.961 . S
C522 H525 0.960 . S
H523 C522 0.961 . S
H524 C522 0.961 . S
H525 C522 0.960 . S
C526 N527 1.342 . S
C526 C530 1.401 . S
C526 C531 1.499 . S
N527 Co510 1.989 1_655 S
N527 C526 1.342 . S
N527 N528 1.387 1_655 S
N528 Co511 1.990 1_456 S
N528 N527 1.387 1_455 S
N528 C529 1.342 1_456 S
C529 N528 1.342 1_654 S
C529 C530 1.396 1_554 S
C529 C539 1.511 . S
C530 C526 1.401 . S
C530 C529 1.396 1_556 S
C531 C526 1.499 . S
C531 H532 0.959 . S
C531 H533 0.960 1_655 S
C531 H534 0.961 . S
H532 C531 0.959 . S
H533 C531 0.960 1_455 S
H534 C531 0.961 . S
O535 Co510 1.967 1_655 S
O535 C543 1.258 . S
O536 Co511 1.941 1_556 S
O536 C543 1.266 . S
H537 C539 0.980 . S
H538 C539 0.942 1_455 S
C539 C529 1.511 . S
C539 H537 0.980 . S
C539 H538 0.942 1_655 S
C539 H540 0.957 1_655 S
H540 C539 0.957 1_455 S
H541 N521 0.862 . S
O542 Co510 1.920 1_655 S
O542 C515 1.289 1_655 S
C543 O535 1.258 . S
C543 O536 1.266 . S
C544 C545 1.387 1_455 S
C544 H548 0.950 . S
C544 C553 1.390 . S
C545 C544 1.387 1_655 S
C545 C547 1.387 . S
H546 C553 0.950 . S
C547 C545 1.387 . S
C547 C549 1.390 . S
C547 H551 0.950 . S
H548 C544 0.950 . S
C549 C547 1.390 . S
C549 C550 1.387 . S
C549 H552 0.950 . S
C550 C549 1.387 . S
C550 C553 1.387 1_655 S
H551 C547 0.950 . S
H552 C549 0.950 . S
C553 C544 1.390 . S
C553 H546 0.950 . S
C553 C550 1.387 1_455 S
C554 C555 1.387 . S
C554 H558 0.950 . S
C554 C563 1.390 . S
C555 C554 1.387 . S
C555 C557 1.387 . S
H556 C563 0.950 . S
C557 C555 1.387 . S
C557 C559 1.390 . S
C557 H561 0.950 . S
H558 C554 0.950 . S
C559 C557 1.390 . S
C559 C560 1.387 . S
C559 H562 0.950 . S
C560 C559 1.387 . S
C560 C563 1.387 . S
H561 C557 0.950 . S
H562 C559 0.950 . S
C563 C554 1.390 . S
C563 H556 0.950 . S
C563 C560 1.387 . S
C564 C565 1.387 . S
C564 H568 0.950 . S
C564 C573 1.390 1_554 S
C565 C564 1.387 . S
C565 C567 1.387 . S
H566 C573 0.950 . S
C567 C565 1.387 . S
C567 C569 1.399 . S
C567 H571 0.950 . S
H568 C564 0.950 . S
C569 C567 1.399 . S
C569 C570 1.382 1_554 S
C569 H572 0.947 1_554 S
C570 C569 1.382 1_556 S
C570 C573 1.387 . S
H571 C567 0.950 . S
H572 C569 0.947 1_556 S
C573 C564 1.390 1_556 S
C573 H566 0.950 . S
C573 C570 1.387 . S
C574 C575 1.387 . S
C574 H578 0.950 . S
C574 C583 1.390 . S
C575 C574 1.387 . S
C575 C577 1.387 . S
H576 C583 0.950 . S
C577 C575 1.387 . S
C577 C579 1.390 . S
C577 H581 0.950 . S
H578 C574 0.950 . S
C579 C577 1.390 . S
C579 C580 1.387 . S
C579 H582 0.950 . S
C580 C579 1.387 . S
C580 C583 1.387 . S
H581 C577 0.950 . S
H582 C579 0.950 . S
C583 C574 1.390 . S
C583 H576 0.950 . S
C583 C580 1.387 . S
C584 C585 1.387 1_455 S
C584 H588 0.950 . S
C584 C593 1.390 . S
C585 C584 1.387 1_655 S
C585 C587 1.387 . S
H586 C593 0.950 . S
C587 C585 1.387 . S
C587 C589 1.390 . S
C587 H591 0.950 . S
H588 C584 0.950 . S
C589 C587 1.390 . S
C589 C590 1.387 . S
C589 H592 0.950 . S
C590 C589 1.387 . S
C590 C593 1.387 1_655 S
H591 C587 0.950 . S
H592 C589 0.950 . S
C593 C584 1.390 . S
C593 H586 0.950 . S
C593 C590 1.387 1_455 S
C594 C595 1.387 . S
C594 H598 0.950 . S
C594 C603 1.390 . S
C595 C594 1.387 . S
C595 C597 1.387 . S
H596 C603 0.950 . S
C597 C595 1.387 . S
C597 C599 1.390 . S
C597 H601 0.950 . S
H598 C594 0.950 . S
C599 C597 1.390 . S
C599 C600 1.387 . S
C599 H602 0.950 . S
C600 C599 1.387 . S
C600 C603 1.387 . S
H601 C597 0.950 . S
H602 C599 0.950 . S
C603 C594 1.390 . S
C603 H596 0.950 . S
C603 C600 1.387 . S
C604 C605 1.387 . S
C604 H608 0.950 . S
C604 C613 1.390 1_556 S
C605 C604 1.387 . S
C605 C607 1.387 . S
H606 C613 0.950 . S
C607 C605 1.387 . S
C607 C609 1.390 . S
C607 H611 0.950 . S
H608 C604 0.950 . S
C609 C607 1.390 . S
C609 C610 1.387 1_556 S
C609 H612 0.950 1_556 S
C610 C609 1.387 1_554 S
C610 C613 1.387 . S
H611 C607 0.950 . S
H612 C609 0.950 1_554 S
C613 C604 1.390 1_554 S
C613 H606 0.950 . S
C613 C610 1.387 . S
C614 C615 1.387 . S
C614 H618 0.950 . S
C614 C623 1.390 . S
C615 C614 1.387 . S
C615 C617 1.387 . S
H616 C623 0.950 . S
C617 C615 1.387 . S
C617 C619 1.390 . S
C617 H621 0.950 . S
H618 C614 0.950 . S
C619 C617 1.390 . S
C619 C620 1.387 . S
C619 H622 0.950 . S
C620 C619 1.387 . S
C620 C623 1.387 . S
H621 C617 0.950 . S
H622 C619 0.950 . S
C623 C614 1.390 . S
C623 H616 0.950 . S
C623 C620 1.387 . S
C624 C625 1.387 . S
C624 H628 0.950 . S
C624 C633 1.390 . S
C625 C624 1.387 . S
C625 C627 1.387 . S
H626 C633 0.950 . S
C627 C625 1.387 . S
C627 C629 1.390 . S
C627 H631 0.950 . S
H628 C624 0.950 . S
C629 C627 1.390 . S
C629 C630 1.387 . S
C629 H632 0.950 . S
C630 C629 1.387 . S
C630 C633 1.387 . S
H631 C627 0.950 . S
H632 C629 0.950 . S
C633 C624 1.390 . S
C633 H626 0.950 . S
C633 C630 1.387 . S
C634 C635 1.387 . S
C634 H638 0.950 . S
C634 C643 1.390 . S
C635 C634 1.387 . S
C635 C637 1.387 . S
H636 C643 0.950 . S
C637 C635 1.387 . S
C637 C639 1.390 . S
C637 H641 0.950 . S
H638 C634 0.950 . S
C639 C637 1.390 . S
C639 C640 1.387 . S
C639 H642 0.950 . S
C640 C639 1.387 . S
C640 C643 1.387 . S
H641 C637 0.950 . S
H642 C639 0.950 . S
C643 C634 1.390 . S
C643 H636 0.950 . S
C643 C640 1.387 . S
C644 C645 1.387 . S
C644 H648 0.950 . S
C644 C653 1.390 . S
C645 C644 1.387 . S
C645 C647 1.387 . S
H646 C653 0.950 . S
C647 C645 1.387 . S
C647 C649 1.390 . S
C647 H651 0.950 . S
H648 C644 0.950 . S
C649 C647 1.390 . S
C649 C650 1.387 . S
C649 H652 0.950 . S
C650 C649 1.387 . S
C650 C653 1.387 . S
H651 C647 0.950 . S
H652 C649 0.950 . S
C653 C644 1.390 . S
C653 H646 0.950 . S
C653 C650 1.387 . S
C654 C655 1.387 . S
C654 H658 0.950 . S
C654 C663 1.390 . S
C655 C654 1.387 . S
C655 C657 1.387 . S
H656 C663 0.950 . S
C657 C655 1.387 . S
C657 C659 1.390 . S
C657 H661 0.950 . S
H658 C654 0.950 . S
C659 C657 1.390 . S
C659 C660 1.387 . S
C659 H662 0.950 . S
C660 C659 1.387 . S
C660 C663 1.387 . S
H661 C657 0.950 . S
H662 C659 0.950 . S
C663 C654 1.390 . S
C663 H656 0.950 . S
C663 C660 1.387 . S
C664 C665 1.387 . S
C664 H668 0.950 . S
C664 C673 1.390 1_556 S
C665 C664 1.387 . S
C665 C667 1.386 1_556 S
H666 C673 0.950 . S
C667 C665 1.386 1_554 S
C667 C669 1.392 . S
C667 H671 0.949 1_554 S
H668 C664 0.950 . S
C669 C667 1.392 . S
C669 C670 1.387 . S
C669 H672 0.950 . S
C670 C669 1.387 . S
C670 C673 1.387 . S
H671 C667 0.949 1_556 S
H672 C669 0.950 . S
C673 C664 1.390 1_554 S
C673 H666 0.950 . S
C673 C670 1.387 . S
C674 C675 1.387 . S
C674 H678 0.950 . S
C674 C683 1.390 . S
C675 C674 1.387 . S
C675 C677 1.387 . S
H676 C683 0.950 . S
C677 C675 1.387 . S
C677 C679 1.390 . S
C677 H681 0.950 1_455 S
H678 C674 0.950 . S
C679 C677 1.390 . S
C679 C680 1.387 . S
C679 H682 0.950 1_455 S
C680 C679 1.387 . S
C680 C683 1.387 . S
H681 C677 0.950 1_655 S
H682 C679 0.950 1_655 S
C683 C674 1.390 . S
C683 H676 0.950 . S
C683 C680 1.387 . S
C684 C685 1.380 1_556 S
C684 H688 0.946 1_556 S
C684 C693 1.402 . S
C685 C684 1.380 1_554 S
C685 C687 1.387 . S
H686 C693 0.950 . S
C687 C685 1.387 . S
C687 C689 1.390 1_554 S
C687 H691 0.950 . S
H688 C684 0.946 1_554 S
C689 C687 1.390 1_556 S
C689 C690 1.387 . S
C689 H692 0.950 . S
C690 C689 1.387 . S
C690 C693 1.387 . S
H691 C687 0.950 . S
H692 C689 0.950 . S
C693 C684 1.402 . S
C693 H686 0.950 . S
C693 C690 1.387 . S
C694 C695 1.387 . S
C694 H698 0.950 . S
C694 C703 1.390 . S
C695 C694 1.387 . S
C695 C697 1.387 . S
H696 C703 0.950 . S
C697 C695 1.387 . S
C697 C699 1.390 . S
C697 H701 0.950 . S
H698 C694 0.950 . S
C699 C697 1.390 . S
C699 C700 1.387 . S
C699 H702 0.950 . S
C700 C699 1.387 . S
C700 C703 1.387 . S
H701 C697 0.950 . S
H702 C699 0.950 . S
C703 C694 1.390 . S
C703 H696 0.950 . S
C703 C700 1.387 . S
C704 C705 1.387 . S
C704 H708 0.950 . S
C704 C713 1.390 1_554 S
C705 C704 1.387 . S
C705 C707 1.387 1_455 S
H706 C713 0.950 . S
C707 C705 1.387 1_655 S
C707 C709 1.390 1_554 S
C707 H711 0.950 . S
H708 C704 0.950 . S
C709 C707 1.390 1_556 S
C709 C710 1.387 1_655 S
C709 H712 0.950 . S
C710 C709 1.387 1_455 S
C710 C713 1.387 . S
H711 C707 0.950 . S
H712 C709 0.950 . S
C713 C704 1.390 1_556 S
C713 H706 0.950 . S
C713 C710 1.387 . S
C714 C715 1.387 . S
C714 H718 0.950 . S
C714 C723 1.390 . S
C715 C714 1.387 . S
C715 C717 1.387 . S
H716 C723 0.950 . S
C717 C715 1.387 . S
C717 C719 1.390 . S
C717 H721 0.950 . S
H718 C714 0.950 . S
C719 C717 1.390 . S
C719 C720 1.387 . S
C719 H722 0.950 . S
C720 C719 1.387 . S
C720 C723 1.387 . S
H721 C717 0.950 . S
H722 C719 0.950 . S
C723 C714 1.390 . S
C723 H716 0.950 . S
C723 C720 1.387 . S
C724 C725 1.387 . S
C724 H728 0.950 . S
C724 C733 1.390 . S
C725 C724 1.387 . S
C725 C727 1.387 . S
H726 C733 0.950 . S
C727 C725 1.387 . S
C727 C729 1.390 . S
C727 H731 0.950 . S
H728 C724 0.950 . S
C729 C727 1.390 . S
C729 C730 1.387 . S
C729 H732 0.950 . S
C730 C729 1.387 . S
C730 C733 1.387 . S
H731 C727 0.950 . S
H732 C729 0.950 . S
C733 C724 1.390 . S
C733 H726 0.950 . S
C733 C730 1.387 . S
C734 C735 1.387 . S
C734 H738 0.950 . S
C734 C743 1.390 . S
C735 C734 1.387 . S
C735 C737 1.387 . S
H736 C743 0.950 . S
C737 C735 1.387 . S
C737 C739 1.390 . S
C737 H741 0.950 . S
H738 C734 0.950 . S
C739 C737 1.390 . S
C739 C740 1.387 . S
C739 H742 0.950 . S
C740 C739 1.387 . S
C740 C743 1.387 . S
H741 C737 0.950 . S
H742 C739 0.950 . S
C743 C734 1.390 . S
C743 H736 0.950 . S
C743 C740 1.387 . S
C744 C745 1.387 . S
C744 H748 0.950 . S
C744 C753 1.390 . S
C745 C744 1.387 . S
C745 C747 1.387 . S
H746 C753 0.950 . S
C747 C745 1.387 . S
C747 C749 1.390 . S
C747 H751 0.950 . S
H748 C744 0.950 . S
C749 C747 1.390 . S
C749 C750 1.387 . S
C749 H752 0.950 . S
C750 C749 1.387 . S
C750 C753 1.387 . S
H751 C747 0.950 . S
H752 C749 0.950 . S
C753 C744 1.390 . S
C753 H746 0.950 . S
C753 C750 1.387 . S
C754 C755 1.387 . S
C754 H758 0.950 . S
C754 C763 1.390 . S
C755 C754 1.387 . S
C755 C757 1.387 . S
H756 C763 0.950 . S
C757 C755 1.387 . S
C757 C759 1.390 . S
C757 H761 0.950 . S
H758 C754 0.950 . S
C759 C757 1.390 . S
C759 C760 1.387 . S
C759 H762 0.950 . S
C760 C759 1.387 . S
C760 C763 1.387 . S
H761 C757 0.950 . S
H762 C759 0.950 . S
C763 C754 1.390 . S
C763 H756 0.950 . S
C763 C760 1.387 . S
C764 C765 1.387 . S
C764 H768 0.950 . S
C764 C773 1.390 1_545 S
C765 C764 1.387 . S
C765 C767 1.387 . S
H766 C773 0.950 . S
C767 C765 1.387 . S
C767 C769 1.390 1_545 S
C767 H771 0.950 . S
H768 C764 0.950 . S
C769 C767 1.390 1_565 S
C769 C770 1.387 . S
C769 H772 0.950 . S
C770 C769 1.387 . S
C770 C773 1.387 . S
H771 C767 0.950 . S
H772 C769 0.950 . S
C773 C764 1.390 1_565 S
C773 H766 0.950 . S
C773 C770 1.387 . S
C774 C775 1.387 . S
C774 H778 0.950 . S
C774 C783 1.390 1_564 S
C775 C774 1.387 . S
C775 C777 1.387 1_655 S
H776 C783 0.950 . S
C777 C775 1.387 1_455 S
C777 C779 1.390 1_564 S
C777 H781 0.950 . S
H778 C774 0.950 . S
C779 C777 1.390 1_546 S
C779 C780 1.387 1_455 S
C779 H782 0.950 . S
C780 C779 1.387 1_655 S
C780 C783 1.387 . S
H781 C777 0.950 . S
H782 C779 0.950 . S
C783 C774 1.390 1_546 S
C783 H776 0.950 . S
C783 C780 1.387 . S
C784 C785 1.387 . S
C784 H788 0.950 . S
C784 C793 1.390 . S
C785 C784 1.387 . S
C785 C787 1.387 . S
H786 C793 0.950 1_556 S
C787 C785 1.387 . S
C787 C789 1.390 . S
C787 H791 0.950 . S
H788 C784 0.950 . S
C789 C787 1.390 . S
C789 C790 1.387 . S
C789 H792 0.950 . S
C790 C789 1.387 . S
C790 C793 1.387 . S
H791 C787 0.950 . S
H792 C789 0.950 . S
C793 C784 1.390 . S
C793 H786 0.950 1_554 S
C793 C790 1.387 . S
C794 C795 1.387 . S
C794 H798 0.950 . S
C794 C803 1.390 . S
C795 C794 1.387 . S
C795 C797 1.387 . S
H796 C803 0.950 . S
C797 C795 1.387 . S
C797 C799 1.390 . S
C797 H801 0.950 . S
H798 C794 0.950 . S
C799 C797 1.390 . S
C799 C800 1.387 . S
C799 H802 0.950 . S
C800 C799 1.387 . S
C800 C803 1.387 . S
H801 C797 0.950 . S
H802 C799 0.950 . S
C803 C794 1.390 . S
C803 H796 0.950 . S
C803 C800 1.387 . S
C804 C805 1.387 . S
C804 H808 0.950 . S
C804 C813 1.390 . S
C805 C804 1.387 . S
C805 C807 1.387 . S
H806 C813 0.950 . S
C807 C805 1.387 . S
C807 C809 1.390 . S
C807 H811 0.950 . S
H808 C804 0.950 . S
C809 C807 1.390 . S
C809 C810 1.387 . S
C809 H812 0.950 . S
C810 C809 1.387 . S
C810 C813 1.387 . S
H811 C807 0.950 . S
H812 C809 0.950 . S
C813 C804 1.390 . S
C813 H806 0.950 . S
C813 C810 1.387 . S
C814 C815 1.387 . S
C814 H818 0.950 . S
C814 C823 1.390 . S
C815 C814 1.387 . S
C815 C817 1.387 . S
H816 C823 0.950 . S
C817 C815 1.387 . S
C817 C819 1.390 . S
C817 H821 0.950 1_556 S
H818 C814 0.950 . S
C819 C817 1.390 . S
C819 C820 1.387 . S
C819 H822 0.950 . S
C820 C819 1.387 . S
C820 C823 1.387 . S
H821 C817 0.950 1_554 S
H822 C819 0.950 . S
C823 C814 1.390 . S
C823 H816 0.950 . S
C823 C820 1.387 . S
C824 C825 1.387 . S
C824 H828 0.950 . S
C824 C833 1.390 . S
C825 C824 1.387 . S
C825 C827 1.387 . S
H826 C833 0.950 . S
C827 C825 1.387 . S
C827 C829 1.390 . S
C827 H831 0.950 . S
H828 C824 0.950 . S
C829 C827 1.390 . S
C829 C830 1.387 . S
C829 H832 0.950 1_556 S
C830 C829 1.387 . S
C830 C833 1.387 . S
H831 C827 0.950 . S
H832 C829 0.950 1_554 S
C833 C824 1.390 . S
C833 H826 0.950 . S
C833 C830 1.387 . S
C834 C835 1.387 . S
C834 H838 0.950 . S
C834 C843 1.390 . S
C835 C834 1.387 . S
C835 C837 1.387 . S
H836 C843 0.950 . S
C837 C835 1.387 . S
C837 C839 1.390 . S
C837 H841 0.950 1_554 S
H838 C834 0.950 . S
C839 C837 1.390 . S
C839 C840 1.387 . S
C839 H842 0.950 . S
C840 C839 1.387 . S
C840 C843 1.387 . S
H841 C837 0.950 1_556 S
H842 C839 0.950 . S
C843 C834 1.390 . S
C843 H836 0.950 . S
C843 C840 1.387 . S
C844 C845 1.387 . S
C844 H848 0.950 . S
C844 C853 1.390 . S
C845 C844 1.387 . S
C845 C847 1.387 . S
H846 C853 0.950 . S
C847 C845 1.387 . S
C847 C849 1.390 . S
C847 H851 0.950 . S
H848 C844 0.950 . S
C849 C847 1.390 . S
C849 C850 1.387 . S
C849 H852 0.950 . S
C850 C849 1.387 . S
C850 C853 1.387 . S
H851 C847 0.950 . S
H852 C849 0.950 . S
C853 C844 1.390 . S
C853 H846 0.950 . S
C853 C850 1.387 . S
C854 C855 1.387 . S
C854 H858 0.950 . S
C854 C863 1.390 . S
C855 C854 1.387 . S
C855 C857 1.387 . S
H856 C863 0.950 . S
C857 C855 1.387 . S
C857 C859 1.390 . S
C857 H861 0.950 . S
H858 C854 0.950 . S
C859 C857 1.390 . S
C859 C860 1.387 . S
C859 H862 0.950 . S
C860 C859 1.387 . S
C860 C863 1.387 . S
H861 C857 0.950 . S
H862 C859 0.950 . S
C863 C854 1.390 . S
C863 H856 0.950 . S
C863 C860 1.387 . S
C864 C865 1.387 . S
C864 H868 0.950 1_556 S
C864 C873 1.390 . S
C865 C864 1.387 . S
C865 C867 1.387 . S
H866 C873 0.950 . S
C867 C865 1.387 . S
C867 C869 1.390 . S
C867 H871 0.950 . S
H868 C864 0.950 1_554 S
C869 C867 1.390 . S
C869 C870 1.387 . S
C869 H872 0.950 . S
C870 C869 1.387 . S
C870 C873 1.387 . S
H871 C867 0.950 . S
H872 C869 0.950 . S
C873 C864 1.390 . S
C873 H866 0.950 . S
C873 C870 1.387 . S
C874 C875 1.387 . S
C874 H878 0.950 . S
C874 C883 1.390 . S
C875 C874 1.387 . S
C875 C877 1.387 . S
H876 C883 0.950 . S
C877 C875 1.387 . S
C877 C879 1.390 . S
C877 H881 0.950 . S
H878 C874 0.950 . S
C879 C877 1.390 . S
C879 C880 1.387 . S
C879 H882 0.950 . S
C880 C879 1.387 . S
C880 C883 1.387 . S
H881 C877 0.950 . S
H882 C879 0.950 . S
C883 C874 1.390 . S
C883 H876 0.950 . S
C883 C880 1.387 . S
C884 C885 1.387 . S
C884 H888 0.950 . S
C884 C893 1.390 . S
C885 C884 1.387 . S
C885 C887 1.387 . S
H886 C893 0.950 . S
C887 C885 1.387 . S
C887 C889 1.390 . S
C887 H891 0.950 . S
H888 C884 0.950 . S
C889 C887 1.390 . S
C889 C890 1.387 . S
C889 H892 0.950 . S
C890 C889 1.387 . S
C890 C893 1.387 . S
H891 C887 0.950 . S
H892 C889 0.950 . S
C893 C884 1.390 . S
C893 H886 0.950 . S
C893 C890 1.387 . S
C894 C895 1.387 . S
C894 H898 0.950 . S
C894 C903 1.390 . S
C895 C894 1.387 . S
C895 C897 1.387 . S
H896 C903 0.950 . S
C897 C895 1.387 . S
C897 C899 1.390 . S
C897 H901 0.950 1_554 S
H898 C894 0.950 . S
C899 C897 1.390 . S
C899 C900 1.387 . S
C899 H902 0.950 . S
C900 C899 1.387 . S
C900 C903 1.387 . S
H901 C897 0.950 1_556 S
H902 C899 0.950 . S
C903 C894 1.390 . S
C903 H896 0.950 . S
C903 C900 1.387 . S
C904 C905 1.387 . S
C904 H908 0.950 . S
C904 C913 1.390 . S
C905 C904 1.387 . S
C905 C907 1.387 . S
H906 C913 0.950 . S
C907 C905 1.387 . S
C907 C909 1.390 . S
C907 H911 0.950 . S
H908 C904 0.950 . S
C909 C907 1.390 . S
C909 C910 1.387 . S
C909 H912 0.950 1_554 S
C910 C909 1.387 . S
C910 C913 1.387 . S
H911 C907 0.950 . S
H912 C909 0.950 1_556 S
C913 C904 1.390 . S
C913 H906 0.950 . S
C913 C910 1.387 . S
C914 C915 1.387 . S
C914 H918 0.950 . S
C914 C923 1.390 . S
C915 C914 1.387 . S
C915 C917 1.387 . S
H916 C923 0.950 . S
C917 C915 1.387 . S
C917 C919 1.390 . S
C917 H921 0.950 . S
H918 C914 0.950 . S
C919 C917 1.390 . S
C919 C920 1.387 . S
C919 H922 0.950 . S
C920 C919 1.387 . S
C920 C923 1.387 . S
H921 C917 0.950 . S
H922 C919 0.950 . S
C923 C914 1.390 . S
C923 H916 0.950 . S
C923 C920 1.387 . S
C924 C925 1.387 . S
C924 H928 0.950 . S
C924 C933 1.390 . S
C925 C924 1.387 . S
C925 C927 1.387 . S
H926 C933 0.950 . S
C927 C925 1.387 . S
C927 C929 1.390 . S
C927 H931 0.950 . S
H928 C924 0.950 . S
C929 C927 1.390 . S
C929 C930 1.387 . S
C929 H932 0.950 . S
C930 C929 1.387 . S
C930 C933 1.387 . S
H931 C927 0.950 . S
H932 C929 0.950 . S
C933 C924 1.390 . S
C933 H926 0.950 . S
C933 C930 1.387 . S
C934 C935 1.387 . S
C934 H938 0.950 . S
C934 C943 1.390 . S
C935 C934 1.387 . S
C935 C937 1.387 . S
H936 C943 0.950 . S
C937 C935 1.387 . S
C937 C939 1.390 . S
C937 H941 0.950 . S
H938 C934 0.950 . S
C939 C937 1.390 . S
C939 C940 1.387 . S
C939 H942 0.950 . S
C940 C939 1.387 . S
C940 C943 1.387 . S
H941 C937 0.950 . S
H942 C939 0.950 . S
C943 C934 1.390 . S
C943 H936 0.950 . S
C943 C940 1.387 . S
C545 C9 1.369 . S
C550 C5 1.453 . S
C555 C43 1.366 . S
C560 C39 1.452 . S
C565 C77 1.368 . S
C570 C73 1.452 . S
C575 C111 1.365 . S
C580 C107 1.451 . S
C585 C145 1.371 . S
C590 C141 1.453 . S
C595 C179 1.366 . S
C600 C175 1.453 . S
C605 C213 1.367 . S
C610 C209 1.452 . S
C615 C243 1.452 . S
C620 C247 1.366 . S
C625 C277 1.452 . S
C630 C281 1.365 . S
C635 C315 1.365 . S
C640 C311 1.451 . S
C645 C349 1.365 . S
C650 C345 1.452 . S
C655 C379 1.453 . S
C660 C383 1.366 . S
C665 C413 1.452 . S
C670 C417 1.368 . S
C675 C451 1.364 . S
C680 C447 1.451 . S
C685 C481 1.452 . S
C690 C485 1.364 . S
C695 C519 1.363 . S
C700 C515 1.451 . S
C705 C20 1.516 . S
C710 C156 1.516 . S
C715 C190 1.517 . S
C720 C54 1.517 . S
C725 C224 1.516 . S
C730 C88 1.516 . S
C735 C122 1.517 . S
C740 C258 1.518 . S
C745 C360 1.517 . S
C750 C292 1.517 . S
C755 C326 1.517 . S
C760 C394 1.517 . S
C765 C428 1.517 . S
C770 C496 1.517 . S
C775 C462 1.516 . S
C780 C530 1.516 . S
C785 C339 1.268 . S
C790 C33 1.269 . S
C795 C509 1.268 . S
C800 C67 1.269 . S
C805 C101 1.269 . S
C810 C305 1.269 . S
C815 C543 1.268 . S
C820 C135 1.269 . S
C825 C373 1.269 . S
C830 C169 1.268 . S
C835 C475 1.268 . S
C840 C203 1.269 . S
C845 C237 1.268 . S
C850 C407 1.269 . S
C855 C271 1.268 . S
C860 C441 1.269 . S
C865 C138 1.654 . S
C870 C104 1.654 . S
C875 C410 1.653 . S
C880 C274 1.653 . S
C885 C36 1.654 . S
C890 C206 1.654 . S
C895 C444 1.654 . S
C900 C308 1.654 . S
C905 C172 1.654 . S
C910 C2 1.654 . S
C915 C342 1.654 . S
C920 C512 1.654 . S
C925 C240 1.655 . S
C930 C70 1.655 . S
C935 C478 1.654 . S
C940 C376 1.654 . S
