# Generated by pormake.
# Topology svk, (7)-cn, num edge types: 1
# Building blocks:
#     Node 0, Type 0, BuildingBlock: HICVOG_clean_sbu_0, # of connection points: 7
#     Node 1, Type 0, BuildingBlock: HICVOG_clean_sbu_0, # of connection points: 7
#     Node 2, Type 0, BuildingBlock: HICVOG_clean_sbu_0, # of connection points: 7
#     Node 3, Type 0, BuildingBlock: HICVOG_clean_sbu_0, # of connection points: 7
#     Edge 4, Type (0, 0), BuildingBlock: CIFDUS_clean_linker_0, # of connection points: 2
#     Edge 5, Type (0, 0), BuildingBlock: CIFDUS_clean_linker_0, # of connection points: 2
#     Edge 6, Type (0, 0), BuildingBlock: CIFDUS_clean_linker_0, # of connection points: 2
#     Edge 7, Type (0, 0), BuildingBlock: CIFDUS_clean_linker_0, # of connection points: 2
#     Edge 8, Type (0, 0), BuildingBlock: CIFDUS_clean_linker_0, # of connection points: 2
#     Edge 9, Type (0, 0), BuildingBlock: CIFDUS_clean_linker_0, # of connection points: 2
#     Edge 10, Type (0, 0), BuildingBlock: CIFDUS_clean_linker_0, # of connection points: 2
#     Edge 11, Type (0, 0), BuildingBlock: CIFDUS_clean_linker_0, # of connection points: 2
#     Edge 12, Type (0, 0), BuildingBlock: CIFDUS_clean_linker_0, # of connection points: 2
#     Edge 13, Type (0, 0), BuildingBlock: CIFDUS_clean_linker_0, # of connection points: 2
#     Edge 14, Type (0, 0), BuildingBlock: CIFDUS_clean_linker_0, # of connection points: 2
#     Edge 15, Type (0, 0), BuildingBlock: CIFDUS_clean_linker_0, # of connection points: 2
#     Edge 16, Type (0, 0), BuildingBlock: CIFDUS_clean_linker_0, # of connection points: 2
#     Edge 17, Type (0, 0), BuildingBlock: CIFDUS_clean_linker_0, # of connection points: 2
# Relax obj value: 0.253
# Max RMSD: 0.247
# Mean RMSD: 0.247
data_MOF--net-svk--node1-HICVOG_clean_sbu_0--edge1-CIFDUS_clean_linker_0
_symmetry_space_group_name_H-M    P1
_symmetry_Int_Tables_number       1
_symmetry_cell_setting            triclinic
loop_
_symmetry_equiv_pos_as_xyz
'x, y, z'
_cell_length_a     15.892106
_cell_length_b     45.438739
_cell_length_c     18.404558
_cell_angle_alpha  90.991372
_cell_angle_beta   90.277447
_cell_angle_gamma 89.610079
loop_
_atom_site_label
_atom_site_type_symbol
_atom_site_fract_x
_atom_site_fract_y
_atom_site_fract_z
_atom_type_partial_charge
Zn0 Zn 0.09254 0.39362 0.12364 0.0
C1 C 0.93726 0.32819 0.0823 0.0
N2 N 0.0006 0.31142 0.10706 0.0
C3 C 0.06592 0.33006 0.10929 0.0
N4 N 0.04188 0.3573 0.0884 0.0
N5 N 0.96221 0.35582 0.06829 0.0
C6 C 0.75761 0.38422 0.05522 0.0
O7 O 0.80839 0.39151 0.10896 0.0
O8 O 0.22058 0.38935 0.12453 0.0
Zn9 Zn 0.91769 0.37992 0.99027 0.0
N10 N 0.03957 0.4023 0.21813 0.0
C11 C 0.91453 0.42424 0.26575 0.0
C12 C 0.96479 0.41629 0.2073 0.0
C13 C 0.0656 0.39531 0.28674 0.0
N14 N 0.9399 0.41739 0.33355 0.0
C15 C 0.01366 0.40302 0.34701 0.0
O16 O 0.94776 0.42344 0.99974 0.0
C17 C 0.00493 0.44028 0.02558 0.0
O18 O 0.06392 0.43044 0.06584 0.0
H19 H 0.94348 0.42101 0.15312 0.0
H20 H 0.12504 0.384 0.29365 0.0
C21 C 0.96049 0.37806 0.83312 0.0
C22 C 0.00108 0.36562 0.77098 0.0
C23 C 0.04982 0.32618 0.84355 0.0
C24 C 0.01041 0.33856 0.90387 0.0
N25 N 0.96562 0.36405 0.89821 0.0
N26 N 0.04418 0.33988 0.77912 0.0
H27 H 0.92685 0.39875 0.8309 0.0
C28 C 0.25436 0.39333 0.06276 0.0
O29 O 0.20565 0.40044 1.00782 0.0
O30 O 0.78951 0.37767 0.99357 0.0
H31 H 0.01716 0.32785 0.95505 0.0
H32 H 0.85508 0.43545 0.25736 0.0
H33 H 0.0854 0.3059 0.84796 0.0
Zn34 Zn 0.08634 0.66477 0.92173 0.0
C35 C 0.90368 0.72273 0.9571 0.0
N36 N 0.95432 0.74091 0.92171 0.0
C37 C 0.02755 0.72603 0.91838 0.0
N38 N 0.02057 0.69931 0.94925 0.0
N39 N 0.94336 0.69759 0.97545 0.0
C40 C 0.7459 0.65726 1.00471 0.0
O41 O 0.79355 0.64215 0.95914 0.0
O42 O 0.21306 0.67171 0.92259 0.0
Zn43 Zn 0.90984 0.67262 0.05518 0.0
N44 N 0.04069 0.65153 0.8269 0.0
C45 C 0.93588 0.62033 0.77489 0.0
C46 C 0.97848 0.63147 0.83506 0.0
C47 C 0.06046 0.66164 0.75944 0.0
N48 N 0.95525 0.63023 0.70827 0.0
C49 C 0.01581 0.65074 0.69747 0.0
O50 O 0.95156 0.62996 0.04763 0.0
C51 C 0.01765 0.61662 0.02525 0.0
O52 O 0.07195 0.6291 0.98577 0.0
H53 H 0.96058 0.62442 0.88831 0.0
H54 H 0.1092 0.67794 0.7549 0.0
C55 C 0.95328 0.67693 0.21117 0.0
C56 C 0.98922 0.69096 0.27352 0.0
C57 C 0.02649 0.73134 0.19984 0.0
C58 C 0.99146 0.7174 0.13927 0.0
N59 N 0.95483 0.69061 0.14561 0.0
N60 N 0.02449 0.7179 0.26488 0.0
H61 H 0.92539 0.65539 0.21349 0.0
C62 C 0.24686 0.68277 0.9797 0.0
O63 O 0.19807 0.69175 0.03322 0.0
O64 O 0.78143 0.67218 0.05527 0.0
H65 H 0.99449 0.72795 0.08743 0.0
H66 H 0.8866 0.60427 0.78109 0.0
H67 H 0.05559 0.75268 0.19519 0.0
Zn68 Zn 0.57744 0.88767 0.07401 0.0
C69 C 0.40224 0.82819 0.0399 0.0
N70 N 0.45523 0.81055 0.07555 0.0
C71 C 0.52753 0.82573 0.07691 0.0
N72 N 0.51767 0.85213 0.04454 0.0
N73 N 0.43956 0.8532 0.01944 0.0
C74 C 0.23806 0.89191 0.98895 0.0
O75 O 0.28615 0.9074 0.03327 0.0
O76 O 0.70524 0.88221 0.07196 0.0
Zn77 Zn 0.40186 0.8769 0.93865 0.0
N78 N 0.5302 0.8987 0.16959 0.0
C79 C 0.41556 0.92582 0.22081 0.0
C80 C 0.46109 0.91614 0.16096 0.0
C81 C 0.55414 0.88964 0.23727 0.0
N82 N 0.4391 0.91703 0.28766 0.0
C83 C 0.50661 0.89903 0.29888 0.0
O84 O 0.43775 0.91963 0.946 0.0
C85 C 0.49721 0.93529 0.97223 0.0
O86 O 0.55344 0.92442 0.0138 0.0
H87 H 0.44012 0.92217 0.1075 0.0
H88 H 0.60837 0.87534 0.2425 0.0
C89 C 0.44735 0.87291 0.78378 0.0
C90 C 0.48542 0.85921 0.72206 0.0
C91 C 0.5243 0.81879 0.79593 0.0
C92 C 0.48724 0.83243 0.85593 0.0
N93 N 0.44876 0.85907 0.84911 0.0
N94 N 0.52246 0.83239 0.73104 0.0
H95 H 0.41795 0.89433 0.78127 0.0
C96 C 0.73843 0.87043 0.01549 0.0
O97 O 0.68893 0.86054 0.96327 0.0
O98 O 0.27313 0.87651 0.93893 0.0
H99 H 0.49031 0.82185 0.90779 0.0
H100 H 0.36082 0.93982 0.2142 0.0
H101 H 0.55491 0.79757 0.80091 0.0
Zn102 Zn 0.60488 0.16695 0.92061 0.0
C103 C 0.43821 0.22561 0.98633 0.0
N104 N 0.4927 0.24382 0.95531 0.0
C105 C 0.56257 0.22763 0.94698 0.0
N106 N 0.55016 0.19988 0.96981 0.0
N107 N 0.47238 0.19852 0.99541 0.0
C108 C 0.2644 0.15217 1.00064 0.0
O109 O 0.30951 0.13532 0.95704 0.0
O110 O 0.7323 0.17283 0.91465 0.0
Zn111 Zn 0.43099 0.16505 0.04988 0.0
N112 N 0.54209 0.16415 0.8293 0.0
C113 C 0.40055 0.15603 0.79171 0.0
C114 C 0.46102 0.15798 0.84585 0.0
C115 C 0.5656 0.16869 0.75911 0.0
N116 N 0.42328 0.16051 0.72224 0.0
C117 C 0.50378 0.16682 0.70317 0.0
O118 O 0.46416 0.12362 0.01238 0.0
C119 C 0.53107 0.11139 0.98817 0.0
O120 O 0.59175 0.12633 0.96348 0.0
H121 H 0.44334 0.15506 0.90148 0.0
H122 H 0.63062 0.17356 0.74782 0.0
C123 C 0.46261 0.17057 0.21207 0.0
C124 C 0.52206 0.17166 0.26981 0.0
C125 C 0.63293 0.16745 0.18417 0.0
C126 C 0.57457 0.16581 0.12814 0.0
N127 N 0.49095 0.16774 0.14238 0.0
N128 N 0.60541 0.17022 0.25326 0.0
H129 H 0.39568 0.17198 0.22194 0.0
C130 C 0.76922 0.18222 0.97221 0.0
O131 O 0.72365 0.18988 0.02876 0.0
O132 O 0.30177 0.16671 0.05102 0.0
H133 H 0.59563 0.16286 0.07303 0.0
H134 H 0.33582 0.15122 0.80467 0.0
H135 H 0.69965 0.16613 0.17307 0.0
H136 H 0.12193 0.48283 0.05558 0.0
H137 H 0.86672 0.47114 0.97952 0.0
H138 H 0.84607 0.5244 0.97874 0.0
H139 H 0.89982 0.57469 1.00037 0.0
H140 H 0.15759 0.58654 0.06742 0.0
H141 H 0.17746 0.53306 0.07229 0.0
C142 C 0.06191 0.49189 0.03834 0.0
C143 C 0.99608 0.47278 0.01764 0.0
C144 C 0.05045 0.52269 0.03754 0.0
C145 C 0.91889 0.48512 0.99523 0.0
C146 C 0.90669 0.51567 0.9953 0.0
C147 C 0.95984 0.56547 0.01719 0.0
C148 C 0.02665 0.58446 0.03521 0.0
C149 C 0.97171 0.53469 0.01693 0.0
C150 C 0.10498 0.57232 0.05445 0.0
C151 C 0.11644 0.54176 0.05675 0.0
H152 H 0.40855 0.07127 0.95809 0.0
H153 H 0.6714 0.07845 0.01388 0.0
H154 H 0.68558 1.02476 0.0116 0.0
H155 H 0.62238 0.97555 0.99625 0.0
H156 H 0.36154 0.96862 0.93214 0.0
H157 H 0.34801 1.02213 0.93396 0.0
C158 C 0.46877 0.06102 0.97003 0.0
C159 C 0.53856 0.07879 0.98712 0.0
C160 C 0.47709 0.0301 0.96641 0.0
C161 C 0.61667 0.06524 1.0009 0.0
C162 C 0.62482 0.03454 0.99952 0.0
C163 C 0.56279 0.98573 0.98193 0.0
C164 C 0.49315 0.96788 0.96421 0.0
C165 C 0.55543 1.0167 0.98248 0.0
C166 C 0.41654 0.98162 0.94549 0.0
C167 C 0.40844 1.01232 0.94707 0.0
H168 H 0.09766 0.34981 0.65463 0.0
H169 H 0.90043 0.4112 0.71755 0.0
H170 H 0.89541 0.42948 0.59451 0.0
H171 H 0.93952 0.42618 0.46788 0.0
H172 H 0.12834 0.36215 0.40233 0.0
H173 H 0.14414 0.34729 0.52813 0.0
C174 C 0.05331 0.36726 0.64214 0.0
C175 C 0.99956 0.37888 0.6969 0.0
C176 C 0.04906 0.37731 0.5704 0.0
C177 C 0.94353 0.40171 0.6783 0.0
C178 C 0.94011 0.41218 0.60723 0.0
C179 C 0.98459 0.40897 0.48047 0.0
C180 C 0.03242 0.39542 0.42432 0.0
C181 C 0.99163 0.39982 0.55274 0.0
C182 C 0.09098 0.37343 0.44321 0.0
C183 C 0.0996 0.36465 0.51552 0.0
H184 H 0.07017 0.71236 0.39446 0.0
H185 H 0.911 0.64019 0.3241 0.0
H186 H 0.91243 0.62131 0.44619 0.0
H187 H 0.95302 0.62578 0.57354 0.0
H188 H 0.10481 0.69931 0.64689 0.0
H189 H 0.11227 0.71655 0.52266 0.0
C190 C 0.03556 0.69244 0.4051 0.0
C191 C 0.99073 0.67799 0.34818 0.0
C192 C 0.03525 0.68172 0.47646 0.0
C193 C 0.947 0.65208 0.36474 0.0
C194 C 0.94736 0.64116 0.43538 0.0
C195 C 0.98811 0.64563 0.56316 0.0
C196 C 0.02819 0.661 0.62112 0.0
C197 C 0.99058 0.65593 0.49166 0.0
C198 C 0.07371 0.68653 0.60477 0.0
C199 C 0.07755 0.69664 0.53324 0.0
H200 H 0.56776 0.83803 0.6018 0.0
H201 H 0.40673 0.91038 0.67146 0.0
H202 H 0.40788 0.92948 0.54975 0.0
H203 H 0.44752 0.92493 0.42245 0.0
H204 H 0.60029 0.8512 0.34926 0.0
H205 H 0.61022 0.83406 0.47387 0.0
C206 C 0.53275 0.85805 0.59109 0.0
C207 C 0.48721 0.87241 0.64768 0.0
C208 C 0.53229 0.86892 0.51987 0.0
C209 C 0.44306 0.89847 0.63108 0.0
C210 C 0.44333 0.90956 0.56064 0.0
C211 C 0.48343 0.90508 0.43312 0.0
C212 C 0.52292 0.88953 0.37528 0.0
C213 C 0.48684 0.8948 0.50459 0.0
C214 C 0.56982 0.86407 0.39163 0.0
C215 C 0.57486 0.85401 0.46322 0.0
H216 H 0.40128 0.15245 0.59016 0.0
H217 H 0.64305 0.19203 0.63678 0.0
H218 H 0.66505 0.19874 0.50739 0.0
H219 H 0.61763 0.1924 0.38123 0.0
H220 H 0.37676 0.1523 0.33551 0.0
H221 H 0.35138 0.14813 0.46534 0.0
C222 C 0.45899 0.16273 0.57279 0.0
C223 C 0.52077 0.17126 0.62439 0.0
C224 C 0.47088 0.16693 0.49833 0.0
C225 C 0.59479 0.18451 0.59944 0.0
C226 C 0.60719 0.18867 0.52507 0.0
C227 C 0.55914 0.18288 0.39941 0.0
C228 C 0.49921 0.17275 0.34804 0.0
C229 C 0.54587 0.17979 0.47416 0.0
C230 C 0.4236 0.16078 0.37308 0.0
C231 C 0.40947 0.15802 0.44756 0.0
H232 H 0.63048 0.38096 0.95461 0.0
H233 H 0.67761 0.3856 0.18558 0.0
H234 H 0.52683 0.3872 0.20906 0.0
H235 H 0.38063 0.38978 0.16415 0.0
H236 H 0.33393 0.38683 0.933 0.0
H237 H 0.48423 0.38197 0.90985 0.0
C238 C 0.6077 0.38214 0.01005 0.0
C239 C 0.66548 0.38342 0.06808 0.0
C240 C 0.5205 0.38352 0.02335 0.0
C241 C 0.63472 0.38491 0.13967 0.0
C242 C 0.5483 0.38578 0.1533 0.0
C243 C 0.40338 0.38792 0.10879 0.0
C244 C 0.34594 0.38898 0.05054 0.0
C245 C 0.49048 0.38553 0.09558 0.0
C246 C 0.37663 0.38647 0.97904 0.0
C247 C 0.46277 0.38361 0.96559 0.0
H248 H 0.62925 0.6921 0.07518 0.0
H249 H 0.65424 0.62621 0.9047 0.0
H250 H 0.50408 0.62961 0.87887 0.0
H251 H 0.36446 0.65055 0.90539 0.0
H252 H 0.33799 0.71626 0.0758 0.0
H253 H 0.48948 0.71417 0.09953 0.0
C254 C 0.60178 0.67838 0.03264 0.0
C255 C 0.65335 0.65881 0.99229 0.0
C256 C 0.51493 0.68063 0.01736 0.0
C257 C 0.61645 0.64142 0.9369 0.0
C258 C 0.53037 0.6434 0.92179 0.0
C259 C 0.39192 0.66462 0.94726 0.0
C260 C 0.33977 0.68342 0.98892 0.0
C261 C 0.47893 0.66291 0.96158 0.0
C262 C 0.37651 0.7014 0.04325 0.0
C263 C 0.46319 0.70016 0.05703 0.0
H264 H 0.11992 0.85695 0.92115 0.0
H265 H 0.14816 0.92453 0.08708 0.0
H266 H 0.99823 0.92268 0.11288 0.0
H267 H 0.85766 0.9027 0.08743 0.0
H268 H 0.82786 0.83532 0.92158 0.0
H269 H 0.97914 0.83584 0.89803 0.0
C270 C 0.0932 0.87136 0.96271 0.0
C271 C 0.14566 0.89096 1.00171 0.0
C272 C 0.00636 0.87005 0.97793 0.0
C273 C 0.10971 0.90926 0.05589 0.0
C274 C 0.02373 0.90818 0.07097 0.0
C275 C 0.88434 0.88796 0.04654 0.0
C276 C 0.83126 0.86916 1.00609 0.0
C277 C 0.97133 0.88871 0.03236 0.0
C278 C 0.86705 0.85025 0.95311 0.0
C279 C 0.95365 0.85056 0.93946 0.0
H280 H 0.1522 0.19116 0.06317 0.0
H281 H 0.17016 0.11992 0.90548 0.0
H282 H 0.02102 0.1247 0.8778 0.0
H283 H 0.88341 0.14779 0.90064 0.0
H284 H 0.86277 0.21792 0.06042 0.0
H285 H 0.01426 0.2153 0.08375 0.0
C286 C 0.12334 0.17661 0.02306 0.0
C287 C 0.17255 0.15506 0.98704 0.0
C288 C 0.0368 0.17943 1.00709 0.0
C289 C 0.13409 0.13663 0.93449 0.0
C290 C 0.04857 0.13937 0.91829 0.0
C291 C 0.91237 0.16276 0.93974 0.0
C292 C 0.86205 0.18296 0.97872 0.0
C293 C 0.99917 0.1606 0.95433 0.0
C294 C 0.90024 0.20203 0.02992 0.0
C295 C 0.98683 0.20048 0.04352 0.0
H296 H 0.35326 0.27079 0.93446 0.0
H297 H 0.35782 0.21178 0.1151 0.0
H298 H 0.24476 0.24057 0.174 0.0
H299 H 0.14678 0.28402 0.17336 0.0
H300 H 0.16425 0.3456 0.99839 0.0
H301 H 0.2729 0.31589 0.94128 0.0
C302 C 0.32926 0.26396 0.98663 0.0
C303 C 0.36082 0.23826 0.0186 0.0
C304 C 0.27187 0.28217 0.02303 0.0
C305 C 0.33051 0.23023 0.08693 0.0
C306 C 0.26797 0.24731 0.12164 0.0
C307 C 0.17699 0.29139 0.12426 0.0
C308 C 0.14935 0.31764 0.09156 0.0
C309 C 0.23899 0.27364 0.09048 0.0
C310 C 0.1871 0.3265 0.02682 0.0
C311 C 0.24752 0.30896 0.99278 0.0
H312 H 0.54838 0.77787 0.99433 0.0
H313 H 0.6803 0.83397 0.1473 0.0
H314 H 0.80926 0.80431 0.12879 0.0
H315 H 0.88436 0.7641 0.0622 0.0
H316 H 0.74814 0.70881 0.91058 0.0
H317 H 0.61831 0.73601 0.93739 0.0
C318 C 0.60504 0.78346 0.02461 0.0
C319 C 0.60592 0.80839 0.07106 0.0
C320 C 0.67685 0.7661 0.01484 0.0
C321 C 0.67933 0.81536 0.10981 0.0
C322 C 0.75233 0.79822 0.09975 0.0
C323 C 0.82534 0.75736 0.03747 0.0
C324 C 0.82417 0.73371 0.98697 0.0
C325 C 0.75182 0.7737 0.05177 0.0
C326 C 0.74901 0.72607 0.95193 0.0
C327 C 0.67549 0.74194 0.96633 0.0
H328 H 0.38254 0.78698 0.93446 0.0
H329 H 0.24734 0.84137 0.08908 0.0
H330 H 0.1178 0.81451 0.06163 0.0
H331 H 0.04798 0.77334 1.00257 0.0
H332 H 0.17859 0.71851 0.84574 0.0
H333 H 0.30721 0.74771 0.86551 0.0
C334 C 0.3238 0.79359 0.95984 0.0
C335 C 0.32274 0.81681 0.01145 0.0
C336 C 0.25039 0.7776 0.94473 0.0
C337 C 0.24804 0.8243 0.04722 0.0
C338 C 0.17468 0.8087 0.03227 0.0
C339 C 0.10422 0.76797 0.97167 0.0
C340 C 0.10501 0.74348 0.92382 0.0
C341 C 0.17581 0.78503 0.98231 0.0
C342 C 0.17783 0.73677 0.88427 0.0
C343 C 0.25063 0.75363 0.89512 0.0
H344 H 0.59447 0.26333 0.05802 0.0
H345 H 0.70493 0.22853 0.86091 0.0
H346 H 0.83225 0.25809 0.88435 0.0
H347 H 0.91092 0.29309 0.96391 0.0
H348 H 0.79031 0.33111 0.15299 0.0
H349 H 0.66501 0.30155 0.12853 0.0
C350 C 0.64645 0.26226 0.01995 0.0
C351 C 0.64216 0.24327 0.95898 0.0
C352 C 0.71579 0.28034 0.03164 0.0
C353 C 0.70857 0.24238 0.90928 0.0
C354 C 0.78044 0.2595 0.92233 0.0
C355 C 0.85601 0.29566 0.99804 0.0
C356 C 0.8579 0.31499 0.05864 0.0
C357 C 0.78446 0.2786 0.98339 0.0
C358 C 0.78843 0.31707 0.10481 0.0
C359 C 0.71761 0.29993 0.09135 0.0
loop_
_geom_bond_atom_site_label_1
_geom_bond_atom_site_label_2
_geom_bond_distance
_geom_bond_site_symmetry_2
_ccdc_geom_bond_type
Zn0 N4 2.020 . S
Zn0 O8 2.019 . S
Zn0 N10 2.119 . S
Zn0 O18 1.975 . S
C1 N2 1.334 1_656 S
C1 N5 1.336 . S
N2 C1 1.334 1_454 S
N2 C3 1.334 . S
C3 N2 1.334 . S
C3 N4 1.336 . S
N4 Zn0 2.020 . S
N4 C3 1.336 . S
N4 N5 1.354 1_454 S
N5 C1 1.336 . S
N5 N4 1.354 1_656 S
N5 Zn9 2.020 . S
C6 O7 1.244 1_556 S
C6 O30 1.257 . S
O7 C6 1.244 1_554 S
O8 Zn0 2.019 . S
O8 C28 1.257 . S
Zn9 N5 2.020 . S
Zn9 O16 1.975 . S
Zn9 N25 2.119 . S
Zn9 O30 2.019 . S
N10 Zn0 2.119 . S
N10 C12 1.334 1_455 S
N10 C13 1.328 . S
C11 C12 1.391 . S
C11 N14 1.329 1_655 S
C11 H32 0.930 . S
C12 N10 1.334 1_655 S
C12 C11 1.391 . S
C12 H19 0.930 . S
C13 N10 1.328 . S
C13 C15 1.392 . S
C13 H20 0.930 . S
N14 C11 1.329 1_455 S
N14 C15 1.331 . S
C15 C13 1.392 . S
C15 N14 1.331 . S
O16 Zn9 1.975 . S
O16 C17 1.252 1_656 S
C17 O16 1.252 1_454 S
C17 O18 1.252 . S
O18 Zn0 1.975 . S
O18 C17 1.252 . S
H19 C12 0.930 . S
H20 C13 0.930 . S
C21 C22 1.392 . S
C21 N25 1.328 . S
C21 H27 0.930 . S
C22 C21 1.392 . S
C22 N26 1.342 . S
C23 C24 1.391 . S
C23 N26 1.321 1_455 S
C23 H33 0.930 . S
C24 C23 1.391 . S
C24 N25 1.334 1_455 S
C24 H31 0.930 . S
N25 Zn9 2.119 . S
N25 C21 1.328 . S
N25 C24 1.334 1_655 S
N26 C22 1.342 . S
N26 C23 1.321 1_655 S
H27 C21 0.930 . S
C28 O8 1.257 . S
C28 O29 1.244 1_554 S
O29 C28 1.244 1_556 S
O30 C6 1.257 . S
O30 Zn9 2.019 . S
H31 C24 0.930 . S
H32 C11 0.930 . S
H33 C23 0.930 . S
Zn34 N38 2.020 . S
Zn34 O42 2.019 . S
Zn34 N44 2.119 . S
Zn34 O52 1.975 . S
C35 N36 1.334 1_655 S
C35 N39 1.336 . S
N36 C35 1.334 1_455 S
N36 C37 1.334 1_554 S
C37 N36 1.334 1_556 S
C37 N38 1.336 . S
N38 Zn34 2.020 . S
N38 C37 1.336 . S
N38 N39 1.354 1_456 S
N39 C35 1.336 . S
N39 N38 1.354 1_654 S
N39 Zn43 2.020 . S
C40 O41 1.244 1_554 S
C40 O64 1.257 . S
O41 C40 1.244 1_556 S
O42 Zn34 2.019 . S
O42 C62 1.257 . S
Zn43 N39 2.020 . S
Zn43 O50 1.975 . S
Zn43 N59 2.119 . S
Zn43 O64 2.019 . S
N44 Zn34 2.119 . S
N44 C46 1.334 1_455 S
N44 C47 1.328 . S
C45 C46 1.391 . S
C45 N48 1.329 1_655 S
C45 H66 0.930 . S
C46 N44 1.334 1_655 S
C46 C45 1.391 . S
C46 H53 0.930 . S
C47 N44 1.328 . S
C47 C49 1.392 . S
C47 H54 0.930 . S
N48 C45 1.329 1_455 S
N48 C49 1.331 . S
C49 C47 1.392 . S
C49 N48 1.331 . S
O50 Zn43 1.975 . S
O50 C51 1.252 1_655 S
C51 O50 1.252 1_455 S
C51 O52 1.252 1_554 S
O52 Zn34 1.975 . S
O52 C51 1.252 1_556 S
H53 C46 0.930 . S
H54 C47 0.930 . S
C55 C56 1.392 . S
C55 N59 1.328 . S
C55 H61 0.930 . S
C56 C55 1.392 . S
C56 N60 1.342 . S
C57 C58 1.391 . S
C57 N60 1.321 1_455 S
C57 H67 0.930 . S
C58 C57 1.391 . S
C58 N59 1.334 1_455 S
C58 H65 0.930 . S
N59 Zn43 2.119 . S
N59 C55 1.328 . S
N59 C58 1.334 1_655 S
N60 C56 1.342 . S
N60 C57 1.321 1_655 S
H61 C55 0.930 . S
C62 O42 1.257 . S
C62 O63 1.244 1_556 S
O63 C62 1.244 1_554 S
O64 C40 1.257 . S
O64 Zn43 2.019 . S
H65 C58 0.930 . S
H66 C45 0.930 . S
H67 C57 0.930 . S
Zn68 N72 2.020 . S
Zn68 O76 2.019 . S
Zn68 N78 2.119 . S
Zn68 O86 1.975 . S
C69 N70 1.334 1_556 S
C69 N73 1.336 . S
N70 C69 1.334 1_554 S
N70 C71 1.334 . S
C71 N70 1.334 . S
C71 N72 1.336 . S
N72 Zn68 2.020 . S
N72 C71 1.336 . S
N72 N73 1.354 1_554 S
N73 C69 1.336 . S
N73 N72 1.354 1_556 S
N73 Zn77 2.020 . S
C74 O75 1.244 1_556 S
C74 O98 1.257 . S
O75 C74 1.244 1_554 S
O76 Zn68 2.019 . S
O76 C96 1.257 . S
Zn77 N73 2.020 . S
Zn77 O84 1.975 . S
Zn77 N93 2.119 . S
Zn77 O98 2.019 . S
N78 Zn68 2.119 . S
N78 C80 1.334 . S
N78 C81 1.328 . S
C79 C80 1.391 . S
C79 N82 1.329 . S
C79 H100 0.930 . S
C80 N78 1.334 . S
C80 C79 1.391 . S
C80 H87 0.930 . S
C81 N78 1.328 . S
C81 C83 1.392 . S
C81 H88 0.930 . S
N82 C79 1.329 . S
N82 C83 1.331 . S
C83 C81 1.392 . S
C83 N82 1.331 . S
O84 Zn77 1.975 . S
O84 C85 1.252 1_556 S
C85 O84 1.252 1_554 S
C85 O86 1.252 . S
O86 Zn68 1.975 . S
O86 C85 1.252 . S
H87 C80 0.930 . S
H88 C81 0.930 . S
C89 C90 1.392 . S
C89 N93 1.328 . S
C89 H95 0.930 . S
C90 C89 1.392 . S
C90 N94 1.331 . S
C91 C92 1.391 . S
C91 N94 1.329 . S
C91 H101 0.930 . S
C92 C91 1.391 . S
C92 N93 1.334 . S
C92 H99 0.930 . S
N93 Zn77 2.119 . S
N93 C89 1.328 . S
N93 C92 1.334 . S
N94 C90 1.331 . S
N94 C91 1.329 . S
H95 C89 0.930 . S
C96 O76 1.257 . S
C96 O97 1.244 1_554 S
O97 C96 1.244 1_556 S
O98 C74 1.257 . S
O98 Zn77 2.019 . S
H99 C92 0.930 . S
H100 C79 0.930 . S
H101 C91 0.930 . S
Zn102 N106 2.020 . S
Zn102 O110 2.019 . S
Zn102 N112 2.119 . S
Zn102 O120 1.975 . S
C103 N104 1.334 . S
C103 N107 1.336 . S
N104 C103 1.334 . S
N104 C105 1.334 1_554 S
C105 N104 1.334 1_556 S
C105 N106 1.336 . S
N106 Zn102 2.020 . S
N106 C105 1.336 . S
N106 N107 1.354 1_556 S
N107 C103 1.336 . S
N107 N106 1.354 1_554 S
N107 Zn111 2.020 . S
C108 O109 1.244 1_554 S
C108 O132 1.257 . S
O109 C108 1.244 1_556 S
O110 Zn102 2.019 . S
O110 C130 1.257 . S
Zn111 N107 2.020 . S
Zn111 O118 1.975 . S
Zn111 N127 2.119 . S
Zn111 O132 2.019 . S
N112 Zn102 2.119 . S
N112 C114 1.334 . S
N112 C115 1.328 . S
C113 C114 1.391 . S
C113 N116 1.329 . S
C113 H134 0.930 . S
C114 N112 1.334 . S
C114 C113 1.391 . S
C114 H121 0.930 . S
C115 N112 1.328 . S
C115 C117 1.392 . S
C115 H122 0.930 . S
N116 C113 1.329 . S
N116 C117 1.331 . S
C117 C115 1.392 . S
C117 N116 1.331 . S
O118 Zn111 1.975 . S
O118 C119 1.252 . S
C119 O118 1.252 . S
C119 O120 1.252 1_554 S
O120 Zn102 1.975 . S
O120 C119 1.252 1_556 S
H121 C114 0.930 . S
H122 C115 0.930 . S
C123 C124 1.392 . S
C123 N127 1.328 . S
C123 H129 0.930 . S
C124 C123 1.392 . S
C124 N128 1.331 . S
C125 C126 1.391 . S
C125 N128 1.329 . S
C125 H135 0.930 . S
C126 C125 1.391 . S
C126 N127 1.334 . S
C126 H133 0.930 . S
N127 Zn111 2.119 . S
N127 C123 1.328 . S
N127 C126 1.334 . S
N128 C124 1.331 . S
N128 C125 1.329 . S
H129 C123 0.930 . S
C130 O110 1.257 . S
C130 O131 1.244 1_556 S
O131 C130 1.244 1_554 S
O132 C108 1.257 . S
O132 Zn111 2.019 . S
H133 C126 0.930 . S
H134 C113 0.930 . S
H135 C125 0.930 . S
H136 C142 0.930 . S
H137 C145 0.930 . S
H138 C146 0.930 . S
H139 C147 0.930 . S
H140 C150 0.930 . S
H141 C151 0.930 . S
C142 H136 0.930 . S
C142 C143 1.355 1_454 S
C142 C144 1.415 . S
C143 C142 1.355 1_656 S
C143 C145 1.419 . S
C144 C142 1.415 . S
C144 C149 1.425 1_454 S
C144 C151 1.409 . S
C145 H137 0.930 . S
C145 C143 1.419 . S
C145 C146 1.362 . S
C146 H138 0.930 . S
C146 C145 1.362 . S
C146 C149 1.409 . S
C147 H139 0.930 . S
C147 C148 1.355 1_656 S
C147 C149 1.415 . S
C148 C147 1.355 1_454 S
C148 C150 1.419 . S
C149 C144 1.425 1_656 S
C149 C146 1.409 . S
C149 C147 1.415 . S
C150 H140 0.930 . S
C150 C148 1.419 . S
C150 C151 1.362 . S
C151 H141 0.930 . S
C151 C144 1.409 . S
C151 C150 1.362 . S
H152 C158 0.930 . S
H153 C161 0.930 . S
H154 C162 0.930 . S
H155 C163 0.930 . S
H156 C166 0.930 . S
H157 C167 0.930 . S
C158 H152 0.930 . S
C158 C159 1.355 1_554 S
C158 C160 1.415 . S
C159 C158 1.355 1_556 S
C159 C161 1.419 . S
C160 C158 1.415 . S
C160 C165 1.425 1_544 S
C160 C167 1.409 1_545 S
C161 H153 0.930 . S
C161 C159 1.419 . S
C161 C162 1.362 . S
C162 H154 0.930 . S
C162 C161 1.362 . S
C162 C165 1.409 1_545 S
C163 H155 0.930 . S
C163 C164 1.355 1_556 S
C163 C165 1.415 . S
C164 C163 1.355 1_554 S
C164 C166 1.419 . S
C165 C160 1.425 1_566 S
C165 C162 1.409 1_565 S
C165 C163 1.415 . S
C166 H156 0.930 . S
C166 C164 1.419 . S
C166 C167 1.362 . S
C167 H157 0.930 . S
C167 C160 1.409 1_565 S
C167 C166 1.362 . S
H168 C174 0.930 . S
H169 C177 0.930 . S
H170 C178 0.930 . S
H171 C179 0.930 . S
H172 C182 0.930 . S
H173 C183 0.930 . S
C174 H168 0.930 . S
C174 C175 1.355 . S
C174 C176 1.415 1_655 S
C175 C174 1.355 . S
C175 C177 1.419 . S
C176 C174 1.415 1_455 S
C176 C181 1.425 1_455 S
C176 C183 1.409 . S
C177 H169 0.930 . S
C177 C175 1.419 . S
C177 C178 1.362 . S
C178 H170 0.930 . S
C178 C177 1.362 . S
C178 C181 1.409 . S
C179 H171 0.930 . S
C179 C180 1.355 . S
C179 C181 1.415 1_455 S
C180 C179 1.355 . S
C180 C182 1.419 . S
C181 C176 1.425 1_655 S
C181 C178 1.409 . S
C181 C179 1.415 1_655 S
C182 H172 0.930 . S
C182 C180 1.419 . S
C182 C183 1.362 . S
C183 H173 0.930 . S
C183 C176 1.409 . S
C183 C182 1.362 . S
H184 C190 0.930 . S
H185 C193 0.930 . S
H186 C194 0.930 . S
H187 C195 0.930 . S
H188 C198 0.930 . S
H189 C199 0.930 . S
C190 H184 0.930 . S
C190 C191 1.355 . S
C190 C192 1.415 . S
C191 C190 1.355 . S
C191 C193 1.419 . S
C192 C190 1.415 . S
C192 C197 1.425 1_655 S
C192 C199 1.409 1_655 S
C193 H185 0.930 . S
C193 C191 1.419 . S
C193 C194 1.362 . S
C194 H186 0.930 . S
C194 C193 1.362 . S
C194 C197 1.409 1_655 S
C195 H187 0.930 . S
C195 C196 1.355 . S
C195 C197 1.415 . S
C196 C195 1.355 . S
C196 C198 1.419 . S
C197 C192 1.425 1_455 S
C197 C194 1.409 1_455 S
C197 C195 1.415 . S
C198 H188 0.930 . S
C198 C196 1.419 . S
C198 C199 1.362 . S
C199 H189 0.930 . S
C199 C192 1.409 1_455 S
C199 C198 1.362 . S
H200 C206 0.930 . S
H201 C209 0.930 . S
H202 C210 0.930 . S
H203 C211 0.930 . S
H204 C214 0.930 . S
H205 C215 0.930 . S
C206 H200 0.930 . S
C206 C207 1.355 . S
C206 C208 1.415 . S
C207 C206 1.355 . S
C207 C209 1.419 . S
C208 C206 1.415 . S
C208 C213 1.425 . S
C208 C215 1.409 . S
C209 H201 0.930 . S
C209 C207 1.419 . S
C209 C210 1.362 . S
C210 H202 0.930 . S
C210 C209 1.362 . S
C210 C213 1.409 . S
C211 H203 0.930 . S
C211 C212 1.355 . S
C211 C213 1.415 . S
C212 C211 1.355 . S
C212 C214 1.419 . S
C213 C208 1.425 . S
C213 C210 1.409 . S
C213 C211 1.415 . S
C214 H204 0.930 . S
C214 C212 1.419 . S
C214 C215 1.362 . S
C215 H205 0.930 . S
C215 C208 1.409 . S
C215 C214 1.362 . S
H216 C222 0.930 . S
H217 C225 0.930 . S
H218 C226 0.930 . S
H219 C227 0.930 . S
H220 C230 0.930 . S
H221 C231 0.930 . S
C222 H216 0.930 . S
C222 C223 1.355 . S
C222 C224 1.415 . S
C223 C222 1.355 . S
C223 C225 1.419 . S
C224 C222 1.415 . S
C224 C229 1.425 . S
C224 C231 1.409 . S
C225 H217 0.930 . S
C225 C223 1.419 . S
C225 C226 1.362 . S
C226 H218 0.930 . S
C226 C225 1.362 . S
C226 C229 1.409 . S
C227 H219 0.930 . S
C227 C228 1.355 . S
C227 C229 1.415 . S
C228 C227 1.355 . S
C228 C230 1.419 . S
C229 C224 1.425 . S
C229 C226 1.409 . S
C229 C227 1.415 . S
C230 H220 0.930 . S
C230 C228 1.419 . S
C230 C231 1.362 . S
C231 H221 0.930 . S
C231 C224 1.409 . S
C231 C230 1.362 . S
H232 C238 0.930 . S
H233 C241 0.930 . S
H234 C242 0.930 . S
H235 C243 0.930 . S
H236 C246 0.930 . S
H237 C247 0.930 . S
C238 H232 0.930 . S
C238 C239 1.355 . S
C238 C240 1.415 . S
C239 C238 1.355 . S
C239 C241 1.419 1_556 S
C240 C238 1.415 . S
C240 C245 1.425 1_556 S
C240 C247 1.409 . S
C241 H233 0.930 . S
C241 C239 1.419 1_554 S
C241 C242 1.362 . S
C242 H234 0.930 . S
C242 C241 1.362 . S
C242 C245 1.409 . S
C243 H235 0.930 . S
C243 C244 1.355 . S
C243 C245 1.415 . S
C244 C243 1.355 . S
C244 C246 1.419 1_554 S
C245 C240 1.425 1_554 S
C245 C242 1.409 . S
C245 C243 1.415 . S
C246 H236 0.930 . S
C246 C244 1.419 1_556 S
C246 C247 1.362 . S
C247 H237 0.930 . S
C247 C240 1.409 . S
C247 C246 1.362 . S
H248 C254 0.930 . S
H249 C257 0.930 . S
H250 C258 0.930 . S
H251 C259 0.930 . S
H252 C262 0.930 . S
H253 C263 0.930 . S
C254 H248 0.930 . S
C254 C255 1.355 . S
C254 C256 1.415 . S
C255 C254 1.355 . S
C255 C257 1.419 1_554 S
C256 C254 1.415 . S
C256 C261 1.425 1_554 S
C256 C263 1.409 . S
C257 H249 0.930 . S
C257 C255 1.419 1_556 S
C257 C258 1.362 . S
C258 H250 0.930 . S
C258 C257 1.362 . S
C258 C261 1.409 . S
C259 H251 0.930 . S
C259 C260 1.355 . S
C259 C261 1.415 . S
C260 C259 1.355 . S
C260 C262 1.419 1_556 S
C261 C256 1.425 1_556 S
C261 C258 1.409 . S
C261 C259 1.415 . S
C262 H252 0.930 . S
C262 C260 1.419 1_554 S
C262 C263 1.362 . S
C263 H253 0.930 . S
C263 C256 1.409 . S
C263 C262 1.362 . S
H264 C270 0.930 . S
H265 C273 0.930 . S
H266 C274 0.930 . S
H267 C275 0.930 . S
H268 C278 0.930 . S
H269 C279 0.930 . S
C270 H264 0.930 . S
C270 C271 1.355 . S
C270 C272 1.415 . S
C271 C270 1.355 . S
C271 C273 1.419 1_556 S
C272 C270 1.415 . S
C272 C277 1.425 1_456 S
C272 C279 1.409 1_455 S
C273 H265 0.930 . S
C273 C271 1.419 1_554 S
C273 C274 1.362 . S
C274 H266 0.930 . S
C274 C273 1.362 . S
C274 C277 1.409 1_455 S
C275 H267 0.930 . S
C275 C276 1.355 . S
C275 C277 1.415 . S
C276 C275 1.355 . S
C276 C278 1.419 1_554 S
C277 C272 1.425 1_654 S
C277 C274 1.409 1_655 S
C277 C275 1.415 . S
C278 H268 0.930 . S
C278 C276 1.419 1_556 S
C278 C279 1.362 . S
C279 H269 0.930 . S
C279 C272 1.409 1_655 S
C279 C278 1.362 . S
H280 C286 0.930 . S
H281 C289 0.930 . S
H282 C290 0.930 . S
H283 C291 0.930 . S
H284 C294 0.930 . S
H285 C295 0.930 . S
C286 H280 0.930 . S
C286 C287 1.355 . S
C286 C288 1.415 . S
C287 C286 1.355 . S
C287 C289 1.419 1_554 S
C288 C286 1.415 . S
C288 C293 1.425 1_454 S
C288 C295 1.409 1_455 S
C289 H281 0.930 . S
C289 C287 1.419 1_556 S
C289 C290 1.362 . S
C290 H282 0.930 . S
C290 C289 1.362 . S
C290 C293 1.409 1_455 S
C291 H283 0.930 . S
C291 C292 1.355 . S
C291 C293 1.415 . S
C292 C291 1.355 . S
C292 C294 1.419 1_556 S
C293 C288 1.425 1_656 S
C293 C290 1.409 1_655 S
C293 C291 1.415 . S
C294 H284 0.930 . S
C294 C292 1.419 1_554 S
C294 C295 1.362 . S
C295 H285 0.930 . S
C295 C288 1.409 1_655 S
C295 C294 1.362 . S
H296 C302 0.930 1_556 S
H297 C305 0.930 . S
H298 C306 0.930 . S
H299 C307 0.930 . S
H300 C310 0.930 1_556 S
H301 C311 0.934 . S
C302 H296 0.930 1_554 S
C302 C303 1.355 . S
C302 C304 1.415 . S
C303 C302 1.355 . S
C303 C305 1.419 . S
C304 C302 1.415 . S
C304 C309 1.425 . S
C304 C311 1.406 1_554 S
C305 H297 0.930 . S
C305 C303 1.419 . S
C305 C306 1.362 . S
C306 H298 0.930 . S
C306 C305 1.362 . S
C306 C309 1.409 . S
C307 H299 0.930 . S
C307 C308 1.355 . S
C307 C309 1.415 . S
C308 C307 1.355 . S
C308 C310 1.419 . S
C309 C304 1.425 . S
C309 C306 1.409 . S
C309 C307 1.415 . S
C310 H300 0.930 1_554 S
C310 C308 1.419 . S
C310 C311 1.361 1_554 S
C311 H301 0.934 . S
C311 C304 1.406 1_556 S
C311 C310 1.361 1_556 S
H312 C318 0.930 . S
H313 C321 0.930 . S
H314 C322 0.930 . S
H315 C323 0.930 . S
H316 C326 0.930 . S
H317 C327 0.930 1_556 S
C318 H312 0.930 . S
C318 C319 1.355 . S
C318 C320 1.415 . S
C319 C318 1.355 . S
C319 C321 1.419 . S
C320 C318 1.415 . S
C320 C325 1.425 . S
C320 C327 1.409 . S
C321 H313 0.930 . S
C321 C319 1.419 . S
C321 C322 1.362 . S
C322 H314 0.930 . S
C322 C321 1.362 . S
C322 C325 1.409 . S
C323 H315 0.930 . S
C323 C324 1.355 . S
C323 C325 1.415 . S
C324 C323 1.355 . S
C324 C326 1.419 . S
C325 C320 1.425 . S
C325 C322 1.409 . S
C325 C323 1.415 . S
C326 H316 0.930 . S
C326 C324 1.419 . S
C326 C327 1.362 . S
C327 H317 0.930 1_554 S
C327 C320 1.409 . S
C327 C326 1.362 . S
H328 C334 0.930 . S
H329 C337 0.930 . S
H330 C338 0.930 . S
H331 C339 0.930 . S
H332 C342 0.930 . S
H333 C343 0.930 . S
C334 H328 0.930 . S
C334 C335 1.355 . S
C334 C336 1.415 . S
C335 C334 1.355 . S
C335 C337 1.419 . S
C336 C334 1.415 . S
C336 C341 1.425 . S
C336 C343 1.409 . S
C337 H329 0.930 . S
C337 C335 1.419 . S
C337 C338 1.362 . S
C338 H330 0.930 . S
C338 C337 1.362 . S
C338 C341 1.409 . S
C339 H331 0.930 . S
C339 C340 1.355 . S
C339 C341 1.415 . S
C340 C339 1.355 . S
C340 C342 1.419 . S
C341 C336 1.425 . S
C341 C338 1.409 . S
C341 C339 1.415 . S
C342 H332 0.930 . S
C342 C340 1.419 . S
C342 C343 1.362 . S
C343 H333 0.930 . S
C343 C336 1.409 . S
C343 C342 1.362 . S
H344 C350 0.930 . S
H345 C353 0.930 . S
H346 C354 0.930 . S
H347 C355 0.930 . S
H348 C358 0.930 . S
H349 C359 0.930 . S
C350 H344 0.930 . S
C350 C351 1.355 . S
C350 C352 1.415 . S
C351 C350 1.355 . S
C351 C353 1.419 . S
C352 C350 1.415 . S
C352 C357 1.425 . S
C352 C359 1.409 . S
C353 H345 0.930 . S
C353 C351 1.419 . S
C353 C354 1.362 . S
C354 H346 0.930 . S
C354 C353 1.362 . S
C354 C357 1.409 . S
C355 H347 0.930 . S
C355 C356 1.355 . S
C355 C357 1.415 . S
C356 C355 1.355 . S
C356 C358 1.419 . S
C357 C352 1.425 . S
C357 C354 1.409 . S
C357 C355 1.415 . S
C358 H348 0.930 . S
C358 C356 1.419 . S
C358 C359 1.362 . S
C359 H349 0.930 . S
C359 C352 1.409 . S
C359 C358 1.362 . S
C143 C17 1.525 1_656 S
C148 C51 1.525 . S
C159 C119 1.525 1_556 S
C164 C85 1.525 . S
C175 C22 1.896 . S
C180 C15 1.898 . S
C191 C56 1.842 . S
C196 C49 1.839 . S
C207 C90 1.887 . S
C212 C83 1.884 . S
C223 C117 1.810 . S
C228 C124 1.812 . S
C239 C6 1.306 . S
C244 C28 1.291 . S
C255 C40 1.287 . S
C260 C62 1.288 . S
C271 C74 1.306 . S
C276 C96 1.291 . S
C287 C108 1.307 . S
C292 C130 1.291 . S
C303 C103 1.749 . S
C308 C3 1.735 . S
C319 C71 1.743 . S
C324 C35 1.742 . S
C335 C69 1.738 . S
C340 C37 1.745 . S
C351 C105 1.739 . S
C356 C1 1.746 . S
