# Generated by pormake.
# Topology ukn, (4)-cn, num edge types: 1
# Building blocks:
#     Node 0, Type 0, BuildingBlock: CEKHIL_clean_sbu_0, # of connection points: 4
#     Node 1, Type 0, BuildingBlock: CEKHIL_clean_sbu_0, # of connection points: 4
#     Node 2, Type 0, BuildingBlock: CEKHIL_clean_sbu_0, # of connection points: 4
#     Node 3, Type 0, BuildingBlock: CEKHIL_clean_sbu_0, # of connection points: 4
#     Node 4, Type 0, BuildingBlock: CEKHIL_clean_sbu_0, # of connection points: 4
#     Node 5, Type 0, BuildingBlock: CEKHIL_clean_sbu_0, # of connection points: 4
#     Node 6, Type 0, BuildingBlock: CEKHIL_clean_sbu_0, # of connection points: 4
#     Node 7, Type 0, BuildingBlock: CEKHIL_clean_sbu_0, # of connection points: 4
#     Node 8, Type 0, BuildingBlock: CEKHIL_clean_sbu_0, # of connection points: 4
#     Node 9, Type 0, BuildingBlock: CEKHIL_clean_sbu_0, # of connection points: 4
#     Node 10, Type 0, BuildingBlock: CEKHIL_clean_sbu_0, # of connection points: 4
#     Node 11, Type 0, BuildingBlock: CEKHIL_clean_sbu_0, # of connection points: 4
#     Node 12, Type 0, BuildingBlock: CEKHIL_clean_sbu_0, # of connection points: 4
#     Node 13, Type 0, BuildingBlock: CEKHIL_clean_sbu_0, # of connection points: 4
#     Node 14, Type 0, BuildingBlock: CEKHIL_clean_sbu_0, # of connection points: 4
#     Node 15, Type 0, BuildingBlock: CEKHIL_clean_sbu_0, # of connection points: 4
#     Node 16, Type 0, BuildingBlock: CEKHIL_clean_sbu_0, # of connection points: 4
#     Node 17, Type 0, BuildingBlock: CEKHIL_clean_sbu_0, # of connection points: 4
#     Node 18, Type 0, BuildingBlock: CEKHIL_clean_sbu_0, # of connection points: 4
#     Node 19, Type 0, BuildingBlock: CEKHIL_clean_sbu_0, # of connection points: 4
#     Node 20, Type 0, BuildingBlock: CEKHIL_clean_sbu_0, # of connection points: 4
#     Node 21, Type 0, BuildingBlock: CEKHIL_clean_sbu_0, # of connection points: 4
#     Node 22, Type 0, BuildingBlock: CEKHIL_clean_sbu_0, # of connection points: 4
#     Node 23, Type 0, BuildingBlock: CEKHIL_clean_sbu_0, # of connection points: 4
#     Node 24, Type 0, BuildingBlock: CEKHIL_clean_sbu_0, # of connection points: 4
#     Node 25, Type 0, BuildingBlock: CEKHIL_clean_sbu_0, # of connection points: 4
#     Node 26, Type 0, BuildingBlock: CEKHIL_clean_sbu_0, # of connection points: 4
#     Node 27, Type 0, BuildingBlock: CEKHIL_clean_sbu_0, # of connection points: 4
#     Node 28, Type 0, BuildingBlock: CEKHIL_clean_sbu_0, # of connection points: 4
#     Node 29, Type 0, BuildingBlock: CEKHIL_clean_sbu_0, # of connection points: 4
#     Node 30, Type 0, BuildingBlock: CEKHIL_clean_sbu_0, # of connection points: 4
#     Node 31, Type 0, BuildingBlock: CEKHIL_clean_sbu_0, # of connection points: 4
#     Node 32, Type 0, BuildingBlock: CEKHIL_clean_sbu_0, # of connection points: 4
#     Node 33, Type 0, BuildingBlock: CEKHIL_clean_sbu_0, # of connection points: 4
#     Node 34, Type 0, BuildingBlock: CEKHIL_clean_sbu_0, # of connection points: 4
#     Node 35, Type 0, BuildingBlock: CEKHIL_clean_sbu_0, # of connection points: 4
#     Edge 36, Type (0, 0), BuildingBlock: MIFKUJ_clean_linker_0, # of connection points: 2
#     Edge 37, Type (0, 0), BuildingBlock: MIFKUJ_clean_linker_0, # of connection points: 2
#     Edge 38, Type (0, 0), BuildingBlock: MIFKUJ_clean_linker_0, # of connection points: 2
#     Edge 39, Type (0, 0), BuildingBlock: MIFKUJ_clean_linker_0, # of connection points: 2
#     Edge 40, Type (0, 0), BuildingBlock: MIFKUJ_clean_linker_0, # of connection points: 2
#     Edge 41, Type (0, 0), BuildingBlock: MIFKUJ_clean_linker_0, # of connection points: 2
#     Edge 42, Type (0, 0), BuildingBlock: MIFKUJ_clean_linker_0, # of connection points: 2
#     Edge 43, Type (0, 0), BuildingBlock: MIFKUJ_clean_linker_0, # of connection points: 2
#     Edge 44, Type (0, 0), BuildingBlock: MIFKUJ_clean_linker_0, # of connection points: 2
#     Edge 45, Type (0, 0), BuildingBlock: MIFKUJ_clean_linker_0, # of connection points: 2
#     Edge 46, Type (0, 0), BuildingBlock: MIFKUJ_clean_linker_0, # of connection points: 2
#     Edge 47, Type (0, 0), BuildingBlock: MIFKUJ_clean_linker_0, # of connection points: 2
#     Edge 48, Type (0, 0), BuildingBlock: MIFKUJ_clean_linker_0, # of connection points: 2
#     Edge 49, Type (0, 0), BuildingBlock: MIFKUJ_clean_linker_0, # of connection points: 2
#     Edge 50, Type (0, 0), BuildingBlock: MIFKUJ_clean_linker_0, # of connection points: 2
#     Edge 51, Type (0, 0), BuildingBlock: MIFKUJ_clean_linker_0, # of connection points: 2
#     Edge 52, Type (0, 0), BuildingBlock: MIFKUJ_clean_linker_0, # of connection points: 2
#     Edge 53, Type (0, 0), BuildingBlock: MIFKUJ_clean_linker_0, # of connection points: 2
#     Edge 54, Type (0, 0), BuildingBlock: MIFKUJ_clean_linker_0, # of connection points: 2
#     Edge 55, Type (0, 0), BuildingBlock: MIFKUJ_clean_linker_0, # of connection points: 2
#     Edge 56, Type (0, 0), BuildingBlock: MIFKUJ_clean_linker_0, # of connection points: 2
#     Edge 57, Type (0, 0), BuildingBlock: MIFKUJ_clean_linker_0, # of connection points: 2
#     Edge 58, Type (0, 0), BuildingBlock: MIFKUJ_clean_linker_0, # of connection points: 2
#     Edge 59, Type (0, 0), BuildingBlock: MIFKUJ_clean_linker_0, # of connection points: 2
#     Edge 60, Type (0, 0), BuildingBlock: MIFKUJ_clean_linker_0, # of connection points: 2
#     Edge 61, Type (0, 0), BuildingBlock: MIFKUJ_clean_linker_0, # of connection points: 2
#     Edge 62, Type (0, 0), BuildingBlock: MIFKUJ_clean_linker_0, # of connection points: 2
#     Edge 63, Type (0, 0), BuildingBlock: MIFKUJ_clean_linker_0, # of connection points: 2
#     Edge 64, Type (0, 0), BuildingBlock: MIFKUJ_clean_linker_0, # of connection points: 2
#     Edge 65, Type (0, 0), BuildingBlock: MIFKUJ_clean_linker_0, # of connection points: 2
#     Edge 66, Type (0, 0), BuildingBlock: MIFKUJ_clean_linker_0, # of connection points: 2
#     Edge 67, Type (0, 0), BuildingBlock: MIFKUJ_clean_linker_0, # of connection points: 2
#     Edge 68, Type (0, 0), BuildingBlock: MIFKUJ_clean_linker_0, # of connection points: 2
#     Edge 69, Type (0, 0), BuildingBlock: MIFKUJ_clean_linker_0, # of connection points: 2
#     Edge 70, Type (0, 0), BuildingBlock: MIFKUJ_clean_linker_0, # of connection points: 2
#     Edge 71, Type (0, 0), BuildingBlock: MIFKUJ_clean_linker_0, # of connection points: 2
#     Edge 72, Type (0, 0), BuildingBlock: MIFKUJ_clean_linker_0, # of connection points: 2
#     Edge 73, Type (0, 0), BuildingBlock: MIFKUJ_clean_linker_0, # of connection points: 2
#     Edge 74, Type (0, 0), BuildingBlock: MIFKUJ_clean_linker_0, # of connection points: 2
#     Edge 75, Type (0, 0), BuildingBlock: MIFKUJ_clean_linker_0, # of connection points: 2
#     Edge 76, Type (0, 0), BuildingBlock: MIFKUJ_clean_linker_0, # of connection points: 2
#     Edge 77, Type (0, 0), BuildingBlock: MIFKUJ_clean_linker_0, # of connection points: 2
#     Edge 78, Type (0, 0), BuildingBlock: MIFKUJ_clean_linker_0, # of connection points: 2
#     Edge 79, Type (0, 0), BuildingBlock: MIFKUJ_clean_linker_0, # of connection points: 2
#     Edge 80, Type (0, 0), BuildingBlock: MIFKUJ_clean_linker_0, # of connection points: 2
#     Edge 81, Type (0, 0), BuildingBlock: MIFKUJ_clean_linker_0, # of connection points: 2
#     Edge 82, Type (0, 0), BuildingBlock: MIFKUJ_clean_linker_0, # of connection points: 2
#     Edge 83, Type (0, 0), BuildingBlock: MIFKUJ_clean_linker_0, # of connection points: 2
#     Edge 84, Type (0, 0), BuildingBlock: MIFKUJ_clean_linker_0, # of connection points: 2
#     Edge 85, Type (0, 0), BuildingBlock: MIFKUJ_clean_linker_0, # of connection points: 2
#     Edge 86, Type (0, 0), BuildingBlock: MIFKUJ_clean_linker_0, # of connection points: 2
#     Edge 87, Type (0, 0), BuildingBlock: MIFKUJ_clean_linker_0, # of connection points: 2
#     Edge 88, Type (0, 0), BuildingBlock: MIFKUJ_clean_linker_0, # of connection points: 2
#     Edge 89, Type (0, 0), BuildingBlock: MIFKUJ_clean_linker_0, # of connection points: 2
#     Edge 90, Type (0, 0), BuildingBlock: MIFKUJ_clean_linker_0, # of connection points: 2
#     Edge 91, Type (0, 0), BuildingBlock: MIFKUJ_clean_linker_0, # of connection points: 2
#     Edge 92, Type (0, 0), BuildingBlock: MIFKUJ_clean_linker_0, # of connection points: 2
#     Edge 93, Type (0, 0), BuildingBlock: MIFKUJ_clean_linker_0, # of connection points: 2
#     Edge 94, Type (0, 0), BuildingBlock: MIFKUJ_clean_linker_0, # of connection points: 2
#     Edge 95, Type (0, 0), BuildingBlock: MIFKUJ_clean_linker_0, # of connection points: 2
#     Edge 96, Type (0, 0), BuildingBlock: MIFKUJ_clean_linker_0, # of connection points: 2
#     Edge 97, Type (0, 0), BuildingBlock: MIFKUJ_clean_linker_0, # of connection points: 2
#     Edge 98, Type (0, 0), BuildingBlock: MIFKUJ_clean_linker_0, # of connection points: 2
#     Edge 99, Type (0, 0), BuildingBlock: MIFKUJ_clean_linker_0, # of connection points: 2
#     Edge 100, Type (0, 0), BuildingBlock: MIFKUJ_clean_linker_0, # of connection points: 2
#     Edge 101, Type (0, 0), BuildingBlock: MIFKUJ_clean_linker_0, # of connection points: 2
#     Edge 102, Type (0, 0), BuildingBlock: MIFKUJ_clean_linker_0, # of connection points: 2
#     Edge 103, Type (0, 0), BuildingBlock: MIFKUJ_clean_linker_0, # of connection points: 2
#     Edge 104, Type (0, 0), BuildingBlock: MIFKUJ_clean_linker_0, # of connection points: 2
#     Edge 105, Type (0, 0), BuildingBlock: MIFKUJ_clean_linker_0, # of connection points: 2
#     Edge 106, Type (0, 0), BuildingBlock: MIFKUJ_clean_linker_0, # of connection points: 2
#     Edge 107, Type (0, 0), BuildingBlock: MIFKUJ_clean_linker_0, # of connection points: 2
# Relax obj value: 0.077
# Max RMSD: 0.097
# Mean RMSD: 0.097
data_MOF--net-ukn--node1-CEKHIL_clean_sbu_0--edge1-MIFKUJ_clean_linker_0
_symmetry_space_group_name_H-M    P1
_symmetry_Int_Tables_number       1
_symmetry_cell_setting            triclinic
loop_
_symmetry_equiv_pos_as_xyz
'x, y, z'
_cell_length_a     137.00309
_cell_length_b     137.02389
_cell_length_c     34.229687
_cell_angle_alpha  90.019607
_cell_angle_beta   90.012677
_cell_angle_gamma 120.03238
loop_
_atom_site_label
_atom_site_type_symbol
_atom_site_fract_x
_atom_site_fract_y
_atom_site_fract_z
_atom_type_partial_charge
Co0 Co 0.07972 0.29824 0.0925 0.0
O1 O 0.06529 0.29686 0.08137 0.0
O2 O 0.0695 0.28349 0.0704 0.0
C3 C 0.08162 0.30584 0.15262 0.0
O4 O 0.09361 0.29649 0.10106 0.0
Co5 Co 0.10104 0.32165 0.10905 0.0
O6 O 0.10716 0.31229 0.12961 0.0
C7 C 0.09253 0.31504 0.02806 0.0
C8 C 0.06209 0.28677 0.06876 0.0
C9 C 0.10318 0.3021 0.11874 0.0
O10 O 0.08524 0.30496 0.03893 0.0
O11 O 0.09894 0.32288 0.0518 0.0
O12 O 0.07575 0.29496 0.14809 0.0
O13 O 0.08539 0.31158 0.12098 0.0
Co14 Co 0.7075 0.78337 0.0848 0.0
O15 O 0.7099 0.77073 0.07887 0.0
O16 O 0.72234 0.78819 0.06239 0.0
C17 C 0.70027 0.7788 0.14578 0.0
O18 O 0.70801 0.79865 0.0883 0.0
Co19 Co 0.68317 0.77934 0.09871 0.0
O20 O 0.69154 0.79539 0.11431 0.0
C21 C 0.69009 0.77613 0.02006 0.0
C22 C 0.71974 0.77766 0.06456 0.0
C23 C 0.70163 0.80212 0.10346 0.0
O24 O 0.70043 0.78033 0.03107 0.0
O25 O 0.68204 0.77436 0.04328 0.0
O26 O 0.71115 0.78433 0.14096 0.0
O27 O 0.69443 0.77565 0.11419 0.0
Co28 Co 0.22337 0.9271 0.08735 0.0
O29 O 0.23608 0.94184 0.07706 0.0
O30 O 0.21834 0.93704 0.06581 0.0
C31 C 0.22919 0.92532 0.14733 0.0
O32 O 0.208 0.91264 0.09515 0.0
Co33 Co 0.22698 0.90661 0.10233 0.0
O34 O 0.21107 0.89913 0.11938 0.0
C35 C 0.22888 0.91564 0.02234 0.0
C36 C 0.22897 0.94473 0.0645 0.0
C37 C 0.20443 0.90275 0.11002 0.0
O38 O 0.22509 0.92211 0.03347 0.0
O39 O 0.23093 0.90961 0.04578 0.0
O40 O 0.22369 0.93072 0.14322 0.0
O41 O 0.23153 0.92196 0.11549 0.0
Co42 Co 0.29988 0.07724 0.90627 0.0
O43 O 0.29714 0.06208 0.91136 0.0
O44 O 0.28508 0.06747 0.92934 0.0
C45 C 0.30688 0.07989 0.845 0.0
O46 O 0.29973 0.0922 0.90353 0.0
Co47 Co 0.32437 0.09722 0.89185 0.0
O48 O 0.31627 0.10527 0.87748 0.0
C49 C 0.3177 0.08658 0.96977 0.0
C50 C 0.28742 0.05938 0.9263 0.0
C51 C 0.30621 0.10205 0.88848 0.0
O52 O 0.30722 0.08105 0.95966 0.0
O53 O 0.32569 0.09262 0.94601 0.0
O54 O 0.29601 0.07473 0.8502 0.0
O55 O 0.3128 0.0824 0.87633 0.0
Co56 Co 0.93082 0.22515 0.90302 0.0
O57 O 0.94609 0.23741 0.90671 0.0
O58 O 0.94052 0.21994 0.92516 0.0
C59 C 0.92768 0.22915 0.84197 0.0
O60 O 0.91573 0.21023 0.90166 0.0
Co61 Co 0.91122 0.23031 0.89168 0.0
O62 O 0.90241 0.21395 0.87993 0.0
C63 C 0.92344 0.2353 0.96639 0.0
C64 C 0.94871 0.23032 0.92151 0.0
C65 C 0.90566 0.20701 0.88914 0.0
O66 O 0.92759 0.22903 0.9567 0.0
O67 O 0.91775 0.23781 0.94292 0.0
O68 O 0.93282 0.22341 0.84694 0.0
O69 O 0.92562 0.23293 0.87338 0.0
Co70 Co 0.78171 0.70768 0.90484 0.0
O71 O 0.76934 0.71061 0.90829 0.0
O72 O 0.78656 0.72218 0.92974 0.0
C73 C 0.77839 0.70142 0.84236 0.0
O74 O 0.79675 0.70773 0.90484 0.0
Co75 Co 0.77718 0.68326 0.88806 0.0
O76 O 0.7938 0.69073 0.88525 0.0
C77 C 0.77221 0.68911 0.96577 0.0
C78 C 0.77626 0.72009 0.92508 0.0
C79 C 0.80035 0.70091 0.89572 0.0
O80 O 0.77736 0.69971 0.95717 0.0
O81 O 0.77033 0.68139 0.94088 0.0
O82 O 0.78402 0.71221 0.84928 0.0
O83 O 0.77438 0.69514 0.87264 0.0
Co84 Co 0.92781 0.70723 0.90234 0.0
O85 O 0.94287 0.70972 0.90799 0.0
O86 O 0.9378 0.72219 0.92375 0.0
C87 C 0.92486 0.69966 0.84179 0.0
O88 O 0.913 0.70764 0.89949 0.0
Co89 Co 0.90757 0.68269 0.89048 0.0
O90 O 0.89896 0.69051 0.88115 0.0
C91 C 0.91816 0.6902 0.96821 0.0
C92 C 0.94573 0.71959 0.92198 0.0
C93 C 0.90264 0.70083 0.88967 0.0
O94 O 0.92403 0.7005 0.95655 0.0
O95 O 0.91199 0.68196 0.94549 0.0
O96 O 0.93024 0.71057 0.84595 0.0
O97 O 0.92236 0.694 0.87371 0.0
Co98 Co 0.30026 0.22398 0.90175 0.0
O99 O 0.29814 0.23662 0.9114 0.0
O100 O 0.28592 0.21909 0.92812 0.0
C101 C 0.30619 0.22898 0.83971 0.0
O102 O 0.29953 0.20869 0.89529 0.0
Co103 Co 0.32399 0.22773 0.87926 0.0
O104 O 0.31534 0.21156 0.86504 0.0
C105 C 0.31912 0.23138 0.96062 0.0
C106 C 0.28857 0.22964 0.92739 0.0
C107 C 0.30546 0.205 0.87819 0.0
O108 O 0.30849 0.22682 0.95317 0.0
O109 O 0.32653 0.23326 0.93444 0.0
O110 O 0.29543 0.22323 0.84703 0.0
O111 O 0.31271 0.23186 0.86962 0.0
Co112 Co 0.7844 0.07974 0.9056 0.0
O113 O 0.7718 0.06486 0.91452 0.0
O114 O 0.78954 0.06986 0.92659 0.0
C115 C 0.77863 0.0818 0.84594 0.0
O116 O 0.79969 0.09427 0.89855 0.0
Co117 Co 0.78074 0.10026 0.89184 0.0
O118 O 0.79657 0.1077 0.87391 0.0
C119 C 0.7788 0.0909 0.97137 0.0
C120 C 0.77897 0.06199 0.92675 0.0
C121 C 0.80323 0.10412 0.88334 0.0
O122 O 0.78256 0.08444 0.95983 0.0
O123 O 0.77676 0.09702 0.94827 0.0
O124 O 0.78416 0.07641 0.84947 0.0
O125 O 0.77627 0.08498 0.8781 0.0
Co126 Co 0.70987 0.93147 0.093 0.0
O127 O 0.71361 0.94693 0.08803 0.0
O128 O 0.72437 0.94025 0.06682 0.0
C129 C 0.70424 0.92977 0.15565 0.0
O130 O 0.70884 0.916 0.09482 0.0
Co131 Co 0.68518 0.91294 0.11194 0.0
O132 O 0.69225 0.90361 0.12222 0.0
C133 C 0.69107 0.92294 0.03313 0.0
C134 C 0.72285 0.94886 0.07102 0.0
C135 C 0.70201 0.90622 0.10947 0.0
O136 O 0.70166 0.92774 0.04135 0.0
O137 O 0.68326 0.91763 0.05834 0.0
O138 O 0.71489 0.93403 0.14778 0.0
O139 O 0.69767 0.92746 0.12605 0.0
Co140 Co 0.07701 0.78124 0.08972 0.0
O141 O 0.06201 0.76869 0.08247 0.0
O142 O 0.06721 0.78628 0.06706 0.0
C143 C 0.07932 0.77641 0.15068 0.0
O144 O 0.09181 0.79639 0.09436 0.0
Co145 Co 0.09693 0.77664 0.10367 0.0
O146 O 0.10533 0.79297 0.11622 0.0
C147 C 0.08604 0.77264 0.02654 0.0
C148 C 0.05926 0.77574 0.06817 0.0
C149 C 0.10188 0.79978 0.10724 0.0
O150 O 0.08131 0.77838 0.03625 0.0
O151 O 0.09148 0.76997 0.05059 0.0
O152 O 0.07409 0.78204 0.14573 0.0
O153 O 0.08207 0.77329 0.11919 0.0
Co154 Co 0.22527 0.29806 0.09057 0.0
O155 O 0.23819 0.29654 0.07886 0.0
O156 O 0.22055 0.2834 0.06708 0.0
C157 C 0.23111 0.30517 0.15107 0.0
O158 O 0.20975 0.29657 0.09973 0.0
Co159 Co 0.22801 0.32161 0.11006 0.0
O160 O 0.21237 0.31237 0.12939 0.0
C161 C 0.23015 0.31561 0.02841 0.0
C162 C 0.23123 0.28655 0.06562 0.0
C163 C 0.20597 0.30228 0.11785 0.0
O164 O 0.22667 0.30527 0.03783 0.0
O165 O 0.23197 0.32332 0.05335 0.0
O166 O 0.22584 0.29431 0.14579 0.0
O167 O 0.23316 0.31112 0.11999 0.0
Co168 Co 0.74619 0.63233 0.4221 0.0
O169 O 0.73103 0.6298 0.42144 0.0
O170 O 0.73571 0.61724 0.40291 0.0
C171 C 0.75077 0.64043 0.4819 0.0
O172 O 0.76095 0.63183 0.42035 0.0
Co173 Co 0.76672 0.65684 0.42773 0.0
O174 O 0.77516 0.64886 0.43863 0.0
C175 C 0.75305 0.64899 0.35602 0.0
C176 C 0.72784 0.61982 0.40773 0.0
C177 C 0.77131 0.63849 0.43045 0.0
O178 O 0.74862 0.63867 0.36736 0.0
O179 O 0.75947 0.65741 0.37766 0.0
O180 O 0.74517 0.62948 0.4789 0.0
O181 O 0.75246 0.64581 0.44959 0.0
Co182 Co 0.37399 0.11383 0.42104 0.0
O183 O 0.3773 0.10174 0.42278 0.0
O184 O 0.38888 0.11875 0.3995 0.0
C185 C 0.3669 0.11137 0.48209 0.0
O186 O 0.3736 0.12858 0.4162 0.0
Co187 Co 0.3491 0.10852 0.42941 0.0
O188 O 0.35629 0.12513 0.43342 0.0
C189 C 0.35641 0.10175 0.35877 0.0
C190 C 0.38691 0.10859 0.40668 0.0
C191 C 0.36652 0.13194 0.42414 0.0
O192 O 0.36682 0.10844 0.36784 0.0
O193 O 0.34822 0.0997 0.38166 0.0
O194 O 0.37777 0.11705 0.47691 0.0
O195 O 0.36104 0.1067 0.45129 0.0
Co196 Co 0.8897 0.25931 0.41934 0.0
O197 O 0.90282 0.27395 0.41196 0.0
O198 O 0.88542 0.26984 0.39815 0.0
C199 C 0.89449 0.25642 0.47963 0.0
O200 O 0.87402 0.24512 0.42432 0.0
Co201 Co 0.89231 0.23811 0.43209 0.0
O202 O 0.8764 0.23118 0.44868 0.0
C203 C 0.89553 0.24829 0.35354 0.0
C204 C 0.89613 0.27732 0.39887 0.0
C205 C 0.87008 0.23515 0.43894 0.0
O206 O 0.89185 0.25482 0.36512 0.0
O207 O 0.89706 0.24179 0.37641 0.0
O208 O 0.88952 0.26233 0.47557 0.0
O209 O 0.89706 0.25333 0.44764 0.0
Co210 Co 0.96589 0.40963 0.23863 0.0
O211 O 0.96412 0.39497 0.24802 0.0
O212 O 0.95124 0.39963 0.26195 0.0
C213 C 0.97301 0.41153 0.17783 0.0
O214 O 0.96465 0.42388 0.23183 0.0
Co215 Co 0.98967 0.43044 0.22108 0.0
O216 O 0.98073 0.43746 0.2048 0.0
C217 C 0.98353 0.42131 0.30144 0.0
C218 C 0.95422 0.39197 0.26198 0.0
C219 C 0.97058 0.43367 0.21581 0.0
O220 O 0.97313 0.41481 0.29173 0.0
O221 O 0.99131 0.4273 0.2769 0.0
O222 O 0.96214 0.40593 0.18294 0.0
O223 O 0.97893 0.41499 0.20915 0.0
Co224 Co 0.59628 0.55782 0.24119 0.0
O225 O 0.61122 0.57015 0.25114 0.0
O226 O 0.60542 0.55245 0.26718 0.0
C227 C 0.59545 0.56292 0.17927 0.0
O228 O 0.58133 0.54283 0.23459 0.0
Co229 Co 0.57702 0.56281 0.22026 0.0
O230 O 0.56866 0.54657 0.2068 0.0
C231 C 0.58585 0.56612 0.30087 0.0
C232 C 0.61349 0.56295 0.26707 0.0
C233 C 0.57162 0.53961 0.2187 0.0
O234 O 0.59119 0.56084 0.29282 0.0
O235 O 0.58065 0.56859 0.27514 0.0
O236 O 0.60016 0.55689 0.18643 0.0
O237 O 0.59214 0.56611 0.20929 0.0
Co238 Co 0.44747 0.03827 0.23801 0.0
O239 O 0.43498 0.04073 0.24638 0.0
O240 O 0.45267 0.05306 0.26121 0.0
C241 C 0.44243 0.03129 0.17699 0.0
O242 O 0.46262 0.03866 0.23248 0.0
Co243 Co 0.44298 0.01388 0.22207 0.0
O244 O 0.45925 0.02185 0.20945 0.0
C245 C 0.43952 0.02046 0.30083 0.0
C246 C 0.44214 0.05047 0.26089 0.0
C247 C 0.46604 0.03205 0.21909 0.0
O248 O 0.4447 0.03097 0.29119 0.0
O249 O 0.43714 0.01249 0.27643 0.0
O250 O 0.44814 0.04215 0.18222 0.0
O251 O 0.4394 0.02533 0.20826 0.0
Co252 Co 0.59353 0.03887 0.23626 0.0
O253 O 0.60847 0.04117 0.24342 0.0
O254 O 0.60343 0.0537 0.25879 0.0
C255 C 0.5911 0.03166 0.17545 0.0
O256 O 0.57884 0.03945 0.23152 0.0
Co257 Co 0.57327 0.01451 0.22218 0.0
O258 O 0.56535 0.02273 0.20802 0.0
C259 C 0.58367 0.02135 0.30031 0.0
C260 C 0.61131 0.05101 0.25763 0.0
C261 C 0.56885 0.03295 0.21761 0.0
O262 O 0.58927 0.03178 0.28983 0.0
O263 O 0.57769 0.01328 0.27673 0.0
O264 O 0.59651 0.04255 0.18031 0.0
O265 O 0.58826 0.02581 0.20698 0.0
Co266 Co 0.96598 0.55517 0.23443 0.0
O267 O 0.96436 0.56824 0.24194 0.0
O268 O 0.95147 0.55089 0.25823 0.0
C269 C 0.97291 0.55963 0.17306 0.0
O270 O 0.9645 0.53951 0.22943 0.0
Co271 Co 0.9896 0.55768 0.21787 0.0
O272 O 0.98042 0.54171 0.20201 0.0
C273 C 0.98361 0.56114 0.29772 0.0
C274 C 0.9545 0.56153 0.25666 0.0
C275 C 0.97028 0.53547 0.21341 0.0
O276 O 0.97331 0.55761 0.28757 0.0
O277 O 0.99135 0.56251 0.27365 0.0
O278 O 0.96207 0.55464 0.17872 0.0
O279 O 0.97896 0.56239 0.20418 0.0
Co280 Co 0.44927 0.41075 0.23882 0.0
O281 O 0.43684 0.39569 0.24595 0.0
O282 O 0.45426 0.40134 0.26507 0.0
C283 C 0.44488 0.41224 0.17646 0.0
O284 O 0.46434 0.42572 0.23489 0.0
Co285 Co 0.44467 0.43032 0.21846 0.0
O286 O 0.46097 0.4385 0.20591 0.0
C287 C 0.43973 0.42017 0.29732 0.0
C288 C 0.44381 0.39323 0.26278 0.0
C289 C 0.46776 0.43544 0.21871 0.0
O290 O 0.44548 0.41525 0.29033 0.0
O291 O 0.43765 0.42561 0.27137 0.0
O292 O 0.45081 0.40743 0.1838 0.0
O293 O 0.44144 0.41528 0.20647 0.0
Co294 Co 0.37514 0.2607 0.42038 0.0
O295 O 0.37698 0.27554 0.41554 0.0
O296 O 0.38996 0.27121 0.39918 0.0
C297 C 0.3677 0.25712 0.4811 0.0
O298 O 0.37622 0.24625 0.4223 0.0
Co299 Co 0.35094 0.23986 0.43084 0.0
O300 O 0.35942 0.232 0.44222 0.0
C301 C 0.3579 0.25172 0.35547 0.0
C302 C 0.38694 0.27882 0.40157 0.0
C303 C 0.36979 0.23596 0.43359 0.0
O304 O 0.36831 0.25689 0.36629 0.0
O305 O 0.34972 0.24556 0.37841 0.0
O306 O 0.37858 0.26307 0.47668 0.0
O307 O 0.36192 0.25458 0.44939 0.0
Co308 Co 0.74266 0.114 0.42323 0.0
O309 O 0.72768 0.10133 0.41694 0.0
O310 O 0.73277 0.11883 0.40034 0.0
C311 C 0.74541 0.1097 0.48444 0.0
O312 O 0.75732 0.12927 0.42664 0.0
Co313 Co 0.76295 0.10995 0.4372 0.0
O314 O 0.77107 0.1263 0.44921 0.0
C315 C 0.75166 0.10518 0.36068 0.0
C316 C 0.72487 0.1083 0.4022 0.0
C317 C 0.76742 0.1329 0.4396 0.0
O318 O 0.74685 0.11089 0.36991 0.0
O319 O 0.7573 0.10282 0.38489 0.0
O320 O 0.7399 0.11506 0.47925 0.0
O321 O 0.74807 0.10644 0.45308 0.0
Co322 Co 0.89234 0.63152 0.41888 0.0
O323 O 0.90471 0.62859 0.41721 0.0
O324 O 0.8875 0.61677 0.39592 0.0
C325 C 0.89566 0.63849 0.48035 0.0
O326 O 0.87731 0.63148 0.41786 0.0
Co327 Co 0.89697 0.65611 0.4306 0.0
O328 O 0.88049 0.64828 0.44037 0.0
C329 C 0.90268 0.64936 0.35639 0.0
C330 C 0.89781 0.61896 0.40134 0.0
C331 C 0.8738 0.63813 0.42992 0.0
O332 O 0.89667 0.63887 0.36568 0.0
O333 O 0.90483 0.65744 0.37996 0.0
O334 O 0.89009 0.62762 0.47499 0.0
O335 O 0.89965 0.64441 0.44925 0.0
Co336 Co 0.41372 0.96442 0.75477 0.0
O337 O 0.39815 0.96071 0.75488 0.0
O338 O 0.4044 0.95007 0.72875 0.0
C339 C 0.41746 0.97027 0.81742 0.0
O340 O 0.42909 0.96524 0.75089 0.0
Co341 Co 0.43283 0.98925 0.76939 0.0
O342 O 0.44253 0.98234 0.77167 0.0
C343 C 0.42029 0.98314 0.69558 0.0
C344 C 0.39595 0.95162 0.73601 0.0
C345 C 0.4394 0.97234 0.76031 0.0
O346 O 0.41618 0.9726 0.70342 0.0
O347 O 0.4261 0.99101 0.72002 0.0
O348 O 0.41242 0.95952 0.80973 0.0
O349 O 0.41894 0.9767 0.78807 0.0
Co350 Co 0.0416 0.44992 0.75606 0.0
O351 O 0.04382 0.43718 0.75045 0.0
O352 O 0.05651 0.45466 0.73467 0.0
C353 C 0.03406 0.44558 0.81661 0.0
O354 O 0.04222 0.46523 0.75896 0.0
Co355 Co 0.01712 0.4458 0.76682 0.0
O356 O 0.02521 0.46213 0.77885 0.0
C357 C 0.02432 0.4409 0.69196 0.0
C358 C 0.05371 0.44407 0.73637 0.0
C359 C 0.03556 0.46879 0.77062 0.0
O360 O 0.03475 0.44686 0.70208 0.0
O361 O 0.0161 0.43847 0.71525 0.0
O362 O 0.04497 0.45087 0.81243 0.0
O363 O 0.02838 0.44237 0.78471 0.0
Co364 Co 0.55701 0.59314 0.75958 0.0
O365 O 0.57018 0.60775 0.75183 0.0
O366 O 0.55283 0.60337 0.73558 0.0
C367 C 0.56103 0.59051 0.82127 0.0
O368 O 0.54132 0.57905 0.76407 0.0
Co369 Co 0.55969 0.5721 0.77535 0.0
O370 O 0.54334 0.56469 0.78636 0.0
C371 C 0.56446 0.58259 0.69743 0.0
C372 C 0.5635 0.61088 0.73669 0.0
C373 C 0.53719 0.56887 0.7769 0.0
O374 O 0.55962 0.58826 0.70673 0.0
O375 O 0.56628 0.57662 0.72193 0.0
O376 O 0.55635 0.59661 0.81509 0.0
O377 O 0.56399 0.58726 0.79052 0.0
Co378 Co 0.6328 0.74176 0.56854 0.0
O379 O 0.62979 0.72648 0.56966 0.0
O380 O 0.61787 0.73184 0.58997 0.0
C381 C 0.64 0.74579 0.50763 0.0
O382 O 0.63299 0.75684 0.57003 0.0
Co383 Co 0.65768 0.76137 0.55998 0.0
O384 O 0.65028 0.77047 0.55138 0.0
C385 C 0.6501 0.74827 0.63258 0.0
C386 C 0.62007 0.72371 0.58483 0.0
C387 C 0.64001 0.76711 0.55995 0.0
O388 O 0.63974 0.74433 0.62237 0.0
O389 O 0.65843 0.75416 0.60989 0.0
O390 O 0.62912 0.74045 0.51251 0.0
O391 O 0.64584 0.74739 0.53885 0.0
Co392 Co 0.26434 0.89172 0.57001 0.0
O393 O 0.27937 0.90447 0.57524 0.0
O394 O 0.27437 0.88707 0.59287 0.0
C395 C 0.26121 0.89572 0.50878 0.0
O396 O 0.24975 0.87636 0.56726 0.0
Co397 Co 0.24382 0.89545 0.5576 0.0
O398 O 0.23582 0.87912 0.54523 0.0
C399 C 0.25545 0.90052 0.63326 0.0
C400 C 0.28227 0.89758 0.5901 0.0
C401 C 0.23962 0.87262 0.55443 0.0
O402 O 0.26033 0.89491 0.62358 0.0
O403 O 0.24962 0.90275 0.60953 0.0
O404 O 0.26691 0.89056 0.51387 0.0
O405 O 0.25863 0.89905 0.5402 0.0
Co406 Co 0.11653 0.37482 0.5757 0.0
O407 O 0.10393 0.37728 0.58055 0.0
O408 O 0.12146 0.38989 0.59594 0.0
C409 C 0.11198 0.36691 0.51563 0.0
O410 O 0.13174 0.37525 0.57289 0.0
Co411 Co 0.11209 0.3502 0.56727 0.0
O412 O 0.12836 0.35808 0.55387 0.0
C413 C 0.10795 0.35809 0.642 0.0
C414 C 0.11093 0.38727 0.59369 0.0
C415 C 0.13514 0.36846 0.56134 0.0
O416 O 0.11366 0.36841 0.63043 0.0
O417 O 0.10532 0.34964 0.61968 0.0
O418 O 0.11739 0.37784 0.51911 0.0
O419 O 0.10878 0.36142 0.54793 0.0
Co420 Co 0.2621 0.37361 0.57262 0.0
O421 O 0.27681 0.37534 0.57988 0.0
O422 O 0.27245 0.38839 0.59467 0.0
C423 C 0.25935 0.3662 0.512 0.0
O424 O 0.24771 0.37472 0.56784 0.0
Co425 Co 0.24138 0.34945 0.55998 0.0
O426 O 0.23372 0.35798 0.54612 0.0
C427 C 0.25256 0.35627 0.63663 0.0
C428 C 0.28003 0.3853 0.5937 0.0
C429 C 0.23759 0.36833 0.55479 0.0
O430 O 0.25764 0.36672 0.62638 0.0
O431 O 0.24674 0.34814 0.61305 0.0
O432 O 0.26515 0.37708 0.51656 0.0
O433 O 0.25637 0.36043 0.54373 0.0
Co434 Co 0.63557 0.88904 0.57407 0.0
O435 O 0.63397 0.90211 0.58211 0.0
O436 O 0.62091 0.88467 0.59665 0.0
C437 C 0.64276 0.8935 0.51304 0.0
O438 O 0.63412 0.87339 0.56868 0.0
Co439 Co 0.6595 0.89199 0.56048 0.0
O440 O 0.65069 0.87582 0.5467 0.0
C441 C 0.65283 0.89528 0.6391 0.0
C442 C 0.62401 0.89534 0.59607 0.0
C443 C 0.64033 0.86949 0.55539 0.0
O444 O 0.64254 0.89127 0.62784 0.0
O445 O 0.66087 0.89707 0.61586 0.0
O446 O 0.63192 0.88872 0.51824 0.0
O447 O 0.64872 0.89631 0.54441 0.0
Co448 Co 0.1186 0.74669 0.57281 0.0
O449 O 0.10545 0.73225 0.58312 0.0
O450 O 0.12297 0.73626 0.59407 0.0
C451 C 0.11314 0.74905 0.51291 0.0
O452 O 0.13432 0.7606 0.56484 0.0
Co453 Co 0.11644 0.76809 0.55878 0.0
O454 O 0.13216 0.77466 0.54042 0.0
C455 C 0.11406 0.75877 0.63841 0.0
C456 C 0.11225 0.7289 0.5954 0.0
C457 C 0.13835 0.7705 0.54957 0.0
O458 O 0.11736 0.75192 0.62689 0.0
O459 O 0.1124 0.76512 0.61523 0.0
O460 O 0.11792 0.74296 0.51692 0.0
O461 O 0.11109 0.75261 0.5449 0.0
Co462 Co 0.04203 0.59641 0.75208 0.0
O463 O 0.04458 0.61149 0.74729 0.0
O464 O 0.05714 0.60651 0.73204 0.0
C465 C 0.03403 0.59317 0.81185 0.0
O466 O 0.04236 0.58159 0.75491 0.0
Co467 Co 0.01738 0.57626 0.76079 0.0
O468 O 0.02523 0.56786 0.77452 0.0
C469 C 0.0253 0.58831 0.68595 0.0
C470 C 0.05456 0.61445 0.73429 0.0
C471 C 0.03558 0.57143 0.76678 0.0
O472 O 0.03563 0.59291 0.69738 0.0
O473 O 0.01687 0.58247 0.70836 0.0
O474 O 0.04497 0.59852 0.80874 0.0
O475 O 0.02862 0.59087 0.77941 0.0
Co476 Co 0.41217 0.44752 0.75519 0.0
O477 O 0.39722 0.43461 0.75095 0.0
O478 O 0.40186 0.45193 0.73344 0.0
C479 C 0.41589 0.44397 0.81608 0.0
O480 O 0.42659 0.46303 0.75659 0.0
Co481 Co 0.43309 0.44438 0.76569 0.0
O482 O 0.44091 0.46071 0.77729 0.0
C483 C 0.42109 0.43907 0.69046 0.0
C484 C 0.39411 0.44137 0.73632 0.0
C485 C 0.43685 0.46701 0.76841 0.0
O486 O 0.41578 0.44417 0.70128 0.0
O487 O 0.42748 0.43738 0.71331 0.0
O488 O 0.40994 0.44888 0.81133 0.0
O489 O 0.41833 0.44051 0.78461 0.0
Co490 Co 0.56038 0.96447 0.75145 0.0
O491 O 0.57309 0.96212 0.74883 0.0
O492 O 0.55592 0.94972 0.72906 0.0
C493 C 0.56371 0.97151 0.81277 0.0
O494 O 0.54514 0.96404 0.75095 0.0
Co495 Co 0.56469 0.989 0.76305 0.0
O496 O 0.54818 0.98097 0.77158 0.0
C497 C 0.5706 0.98228 0.68916 0.0
C498 C 0.56642 0.95238 0.73325 0.0
C499 C 0.54154 0.97073 0.76188 0.0
O500 O 0.56447 0.97177 0.69817 0.0
O501 O 0.57271 0.99032 0.71288 0.0
O502 O 0.55838 0.96063 0.80761 0.0
O503 O 0.56752 0.9774 0.78155 0.0
H504 H 0.11768 0.30575 0.17822 0.0
H505 H 0.13302 0.30158 0.1792 0.0
H506 H 0.12152 0.28395 0.06951 0.0
H507 H 0.10585 0.28787 0.06895 0.0
H508 H 0.13137 0.27453 0.11841 0.0
H509 H 0.14083 0.3106 0.06627 0.0
H510 H 0.14159 0.32896 0.06548 0.0
H511 H 0.16119 0.33861 0.17098 0.0
H512 H 0.1604 0.32023 0.17273 0.0
H513 H 0.18872 0.28751 0.06991 0.0
H514 H 0.16911 0.2835 0.07115 0.0
H515 H 0.17599 0.3028 0.17742 0.0
H516 H 0.19549 0.30697 0.17588 0.0
H517 H 0.16786 0.31046 0.12265 0.0
H518 H 0.15813 0.2738 0.17413 0.0
H519 H 0.15723 0.25537 0.17313 0.0
H520 H 0.13853 0.2469 0.06577 0.0
H521 H 0.13944 0.26535 0.06586 0.0
C522 C 0.11823 0.30072 0.15482 0.0
C523 C 0.11065 0.29725 0.12329 0.0
C524 C 0.12701 0.29835 0.15537 0.0
C525 C 0.12858 0.29268 0.12397 0.0
C526 C 0.12049 0.28837 0.09397 0.0
C527 C 0.11154 0.29061 0.09369 0.0
C528 C 0.13939 0.29263 0.12056 0.0
C529 C 0.13936 0.28237 0.11887 0.0
C530 C 0.14983 0.30286 0.12107 0.0
C531 C 0.15048 0.314 0.11978 0.0
C532 C 0.14524 0.31661 0.08942 0.0
C533 C 0.14568 0.32703 0.08879 0.0
C534 C 0.15141 0.33494 0.1182 0.0
C535 C 0.15674 0.33247 0.14823 0.0
C536 C 0.15631 0.32206 0.14904 0.0
C537 C 0.18594 0.29061 0.09408 0.0
C538 C 0.19367 0.29764 0.12259 0.0
C539 C 0.17473 0.28833 0.09475 0.0
C540 C 0.17108 0.29292 0.12425 0.0
C541 C 0.17862 0.29925 0.15416 0.0
C542 C 0.18977 0.30161 0.15329 0.0
C543 C 0.15993 0.29234 0.12214 0.0
C544 C 0.1599 0.30257 0.12224 0.0
C545 C 0.14952 0.28209 0.11979 0.0
C546 C 0.14896 0.271 0.11979 0.0
C547 C 0.15391 0.26805 0.15013 0.0
C548 C 0.15338 0.25759 0.14977 0.0
C549 C 0.14786 0.24999 0.11935 0.0
C550 C 0.14282 0.25281 0.08928 0.0
C551 C 0.14333 0.26326 0.08949 0.0
H552 H 0.14746 0.24189 0.11912 0.0
H553 H 0.15174 0.343 0.11767 0.0
H554 H 0.71806 0.81991 0.06046 0.0
H555 H 0.72148 0.83937 0.05868 0.0
H556 H 0.69705 0.83122 0.15049 0.0
H557 H 0.69367 0.81205 0.15259 0.0
H558 H 0.69247 0.8399 0.08444 0.0
H559 H 0.72436 0.84817 0.16826 0.0
H560 H 0.74241 0.84915 0.18378 0.0
H561 H 0.75797 0.87085 0.08519 0.0
H562 H 0.73996 0.86987 0.06877 0.0
H563 H 0.69269 0.88717 0.15377 0.0
H564 H 0.69591 0.87127 0.14961 0.0
H565 H 0.7214 0.88867 0.06179 0.0
H566 H 0.71831 0.90485 0.06617 0.0
H567 H 0.72706 0.87626 0.11326 0.0
H568 H 0.69612 0.86954 0.03201 0.0
H569 H 0.67828 0.86881 0.01503 0.0
H570 H 0.66107 0.84409 0.10452 0.0
H571 H 0.67885 0.84479 0.12249 0.0
C572 C 0.71364 0.82237 0.08085 0.0
C573 C 0.70549 0.81437 0.1063 0.0
C574 C 0.71557 0.83348 0.07973 0.0
C575 C 0.70941 0.83672 0.10416 0.0
C576 C 0.70181 0.8289 0.13105 0.0
C577 C 0.69989 0.81791 0.1322 0.0
C578 C 0.71001 0.84784 0.10024 0.0
C579 C 0.70004 0.84784 0.09091 0.0
C580 C 0.71998 0.85826 0.1071 0.0
C581 C 0.73078 0.85883 0.117 0.0
C582 C 0.7316 0.85306 0.14966 0.0
C583 C 0.74183 0.85364 0.15868 0.0
C584 C 0.75132 0.86003 0.13541 0.0
C585 C 0.75061 0.86588 0.10314 0.0
C586 C 0.74039 0.86533 0.09398 0.0
C587 C 0.69907 0.88771 0.13375 0.0
C588 C 0.70512 0.89725 0.10987 0.0
C589 C 0.7009 0.87859 0.13142 0.0
C590 C 0.70873 0.87866 0.10481 0.0
C591 C 0.71527 0.8884 0.08239 0.0
C592 C 0.71349 0.89763 0.08491 0.0
C593 C 0.70938 0.86821 0.09907 0.0
C594 C 0.71955 0.86834 0.10626 0.0
C595 C 0.69961 0.85785 0.08979 0.0
C596 C 0.68885 0.85727 0.07874 0.0
C597 C 0.68855 0.86399 0.04822 0.0
C598 C 0.67844 0.86358 0.0384 0.0
C599 C 0.66855 0.85642 0.05871 0.0
C600 C 0.66874 0.84963 0.08882 0.0
C601 C 0.67883 0.85002 0.0988 0.0
H602 H 0.66074 0.85611 0.05107 0.0
H603 H 0.75923 0.86047 0.14245 0.0
H604 H 0.10119 0.81788 0.07427 0.0
H605 H 0.11602 0.83786 0.07655 0.0
H606 H 0.1362 0.82923 0.1498 0.0
H607 H 0.12157 0.80954 0.1481 0.0
H608 H 0.1371 0.84808 0.17549 0.0
H609 H 0.14025 0.83306 0.04937 0.0
H610 H 0.13316 0.82457 0.98454 0.0
H611 H 0.12826 0.85219 0.9536 0.0
H612 H 0.13521 0.86078 0.01847 0.0
H613 H 0.19453 0.88344 0.15282 0.0
H614 H 0.1749 0.86877 0.15384 0.0
H615 H 0.16642 0.88859 0.07811 0.0
H616 H 0.18641 0.90342 0.0761 0.0
H617 H 0.15667 0.86713 0.05296 0.0
H618 H 0.15776 0.88413 0.17476 0.0
H619 H 0.16539 0.89263 0.23911 0.0
H620 H 0.16234 0.8615 0.27876 0.0
H621 H 0.15485 0.85285 0.2145 0.0
C622 C 0.10873 0.82028 0.09124 0.0
C623 C 0.11019 0.81205 0.11074 0.0
C624 C 0.11723 0.8317 0.09234 0.0
C625 C 0.1273 0.83507 0.11308 0.0
C626 C 0.12854 0.8269 0.13362 0.0
C627 C 0.12014 0.81557 0.13241 0.0
C628 C 0.13688 0.84694 0.11276 0.0
C629 C 0.14137 0.85226 0.14869 0.0
C630 C 0.14224 0.85263 0.0778 0.0
C631 C 0.1381 0.84748 0.03888 0.0
C632 C 0.13758 0.83727 0.02883 0.0
C633 C 0.1336 0.83246 0.99208 0.0
C634 C 0.13022 0.83782 0.96502 0.0
C635 C 0.13085 0.84803 0.97462 0.0
C636 C 0.13481 0.85288 0.01136 0.0
C637 C 0.18854 0.88482 0.13663 0.0
C638 C 0.19213 0.89466 0.11427 0.0
C639 C 0.17723 0.8764 0.1375 0.0
C640 C 0.16908 0.87758 0.1165 0.0
C641 C 0.17253 0.8875 0.09475 0.0
C642 C 0.18395 0.89601 0.09383 0.0
C643 C 0.15719 0.86804 0.11583 0.0
C644 C 0.15225 0.86314 0.07977 0.0
C645 C 0.15139 0.86273 0.15073 0.0
C646 C 0.15576 0.86784 0.1897 0.0
C647 C 0.15876 0.8791 0.19714 0.0
C648 C 0.16306 0.88395 0.23361 0.0
C649 C 0.16435 0.87761 0.263 0.0
C650 C 0.16132 0.8664 0.25599 0.0
C651 C 0.15703 0.86151 0.21956 0.0
H652 H 0.16769 0.88138 0.2912 0.0
H653 H 0.12715 0.83408 0.93658 0.0
H654 H 0.28878 0.10269 0.92737 0.0
H655 H 0.28482 0.11838 0.92775 0.0
H656 H 0.3113 0.13614 0.84342 0.0
H657 H 0.31521 0.12071 0.8426 0.0
H658 H 0.31379 0.14875 0.90947 0.0
H659 H 0.28462 0.12519 0.81696 0.0
H660 H 0.26746 0.10793 0.7958 0.0
H661 H 0.2486 0.11213 0.88791 0.0
H662 H 0.26571 0.12935 0.90996 0.0
H663 H 0.3129 0.19427 0.83014 0.0
H664 H 0.30909 0.17496 0.83481 0.0
H665 H 0.28512 0.16828 0.92699 0.0
H666 H 0.28895 0.18783 0.92265 0.0
H667 H 0.27925 0.14928 0.86923 0.0
H668 H 0.30816 0.17372 0.95855 0.0
H669 H 0.32531 0.1912 0.9783 0.0
H670 H 0.3446 0.18515 0.89278 0.0
H671 H 0.32752 0.16771 0.87206 0.0
C672 C 0.2936 0.10985 0.90841 0.0
C673 C 0.30243 0.11049 0.88543 0.0
C674 C 0.29134 0.11882 0.9087 0.0
C675 C 0.29786 0.1285 0.88592 0.0
C676 C 0.30625 0.12884 0.86158 0.0
C677 C 0.30847 0.11997 0.86121 0.0
C678 C 0.29671 0.13873 0.88891 0.0
C679 C 0.30622 0.14883 0.90065 0.0
C680 C 0.28674 0.13881 0.87862 0.0
C681 C 0.27648 0.12846 0.86544 0.0
C682 C 0.27685 0.12237 0.83296 0.0
C683 C 0.26712 0.11261 0.82075 0.0
C684 C 0.25695 0.10891 0.84059 0.0
C685 C 0.25649 0.11499 0.87263 0.0
C686 C 0.26619 0.12475 0.88499 0.0
C687 C 0.30667 0.18869 0.85105 0.0
C688 C 0.30137 0.19269 0.87647 0.0
C689 C 0.30447 0.17762 0.85357 0.0
C690 C 0.29693 0.17022 0.88158 0.0
C691 C 0.29097 0.17386 0.90516 0.0
C692 C 0.29318 0.18503 0.90265 0.0
C693 C 0.29645 0.15927 0.88859 0.0
C694 C 0.28671 0.1491 0.87883 0.0
C695 C 0.3062 0.15905 0.90087 0.0
C696 C 0.31654 0.16945 0.91358 0.0
C697 C 0.31604 0.17615 0.94376 0.0
C698 C 0.32575 0.18605 0.95515 0.0
C699 C 0.33603 0.18929 0.93676 0.0
C700 C 0.33663 0.18263 0.90699 0.0
C701 C 0.32694 0.17273 0.89544 0.0
H702 H 0.34354 0.19696 0.94562 0.0
H703 H 0.24943 0.10136 0.83107 0.0
H704 H 0.81314 0.12315 0.83912 0.0
H705 H 0.83279 0.13783 0.83805 0.0
H706 H 0.84115 0.11835 0.91596 0.0
H707 H 0.82117 0.10355 0.91804 0.0
H708 H 0.8506 0.13962 0.94059 0.0
H709 H 0.85029 0.1228 0.81948 0.0
H710 H 0.84304 0.11424 0.75492 0.0
H711 H 0.84593 0.1452 0.71408 0.0
H712 H 0.85306 0.15392 0.77854 0.0
H713 H 0.90613 0.18878 0.9219 0.0
H714 H 0.89128 0.16884 0.91862 0.0
H715 H 0.87134 0.17778 0.84541 0.0
H716 H 0.88598 0.19748 0.8482 0.0
H717 H 0.87066 0.15891 0.819 0.0
H718 H 0.86682 0.17366 0.9447 0.0
H719 H 0.87356 0.18206 0.00988 0.0
H720 H 0.87848 0.1545 0.04155 0.0
H721 H 0.8719 0.14601 0.97634 0.0
C722 C 0.81913 0.12186 0.85578 0.0
C723 C 0.81552 0.11215 0.87887 0.0
C724 C 0.83044 0.13027 0.85485 0.0
C725 C 0.83855 0.12919 0.87653 0.0
C726 C 0.83507 0.11937 0.89882 0.0
C727 C 0.82366 0.11088 0.8998 0.0
C728 C 0.85039 0.13879 0.8777 0.0
C729 C 0.85513 0.14365 0.91399 0.0
C730 C 0.85633 0.14416 0.84307 0.0
C731 C 0.8522 0.13901 0.80396 0.0
C732 C 0.84934 0.12778 0.7968 0.0
C733 C 0.84525 0.12289 0.7602 0.0
C734 C 0.84403 0.12917 0.73042 0.0
C735 C 0.8469 0.14035 0.73716 0.0
C736 C 0.85099 0.14528 0.77371 0.0
C737 C 0.89862 0.18647 0.90483 0.0
C738 C 0.89723 0.19478 0.88566 0.0
C739 C 0.89013 0.17507 0.90309 0.0
C740 C 0.88013 0.1718 0.88199 0.0
C741 C 0.87895 0.18006 0.86184 0.0
C742 C 0.88734 0.19137 0.86372 0.0
C743 C 0.87058 0.15994 0.88174 0.0
C744 C 0.86628 0.15467 0.84558 0.0
C745 C 0.86508 0.15419 0.91644 0.0
C746 C 0.86902 0.15929 0.95554 0.0
C747 C 0.86943 0.16945 0.96548 0.0
C748 C 0.8732 0.17421 0.00243 0.0
C749 C 0.87648 0.16884 0.02979 0.0
C750 C 0.87596 0.15867 0.0203 0.0
C751 C 0.87221 0.15388 0.98336 0.0
H752 H 0.8794 0.17254 0.05839 0.0
H753 H 0.84087 0.12537 0.70211 0.0
H754 H 0.81884 0.72199 0.88242 0.0
H755 H 0.83887 0.7271 0.88401 0.0
H756 H 0.82909 0.69319 0.91904 0.0
H757 H 0.80932 0.68803 0.91669 0.0
H758 H 0.84751 0.70999 0.96227 0.0
H759 H 0.8345 0.69938 0.82842 0.0
H760 H 0.82662 0.70128 0.76598 0.0
H761 H 0.854 0.73528 0.75432 0.0
H762 H 0.86196 0.73362 0.81706 0.0
H763 H 0.87991 0.68755 0.89488 0.0
H764 H 0.86568 0.69312 0.89883 0.0
H765 H 0.89142 0.7281 0.89088 0.0
H766 H 0.90603 0.72257 0.88767 0.0
H767 H 0.86839 0.71707 0.83738 0.0
H768 H 0.8833 0.72551 0.96744 0.0
H769 H 0.89081 0.72201 0.02799 0.0
H770 H 0.85958 0.69119 0.04599 0.0
H771 H 0.85195 0.69441 0.98514 0.0
C772 C 0.82102 0.71569 0.89078 0.0
C773 C 0.81251 0.70459 0.89918 0.0
C774 C 0.83243 0.7186 0.8916 0.0
C775 C 0.83547 0.71051 0.90168 0.0
C776 C 0.82697 0.69958 0.91134 0.0
C777 C 0.81565 0.69663 0.90974 0.0
C778 C 0.84736 0.71302 0.90062 0.0
C779 C 0.85215 0.71171 0.93507 0.0
C780 C 0.85351 0.71543 0.86526 0.0
C781 C 0.84872 0.71644 0.82768 0.0
C782 C 0.83877 0.7073 0.81275 0.0
C783 C 0.83431 0.70832 0.77727 0.0
C784 C 0.83978 0.71841 0.75629 0.0
C785 C 0.84975 0.72748 0.77068 0.0
C786 C 0.85424 0.72651 0.80619 0.0
C787 C 0.88265 0.69646 0.89371 0.0
C788 C 0.89417 0.70462 0.89083 0.0
C789 C 0.87446 0.69961 0.89606 0.0
C790 C 0.87749 0.71099 0.89516 0.0
C791 C 0.88893 0.71925 0.89159 0.0
C792 C 0.89725 0.71608 0.88988 0.0
C793 C 0.86843 0.71388 0.89893 0.0
C794 C 0.86403 0.71595 0.86492 0.0
C795 C 0.86261 0.71212 0.93468 0.0
C796 C 0.86708 0.71017 0.97156 0.0
C797 C 0.87806 0.71793 0.98412 0.0
C798 C 0.88234 0.71601 0.01854 0.0
C799 C 0.87568 0.70637 0.04079 0.0
C800 C 0.86473 0.69865 0.02871 0.0
C801 C 0.86042 0.70053 0.99428 0.0
H802 H 0.87901 0.7049 0.06742 0.0
H803 H 0.83632 0.71918 0.7288 0.0
H804 H 0.85659 0.62135 0.38637 0.0
H805 H 0.83668 0.6165 0.38503 0.0
H806 H 0.84353 0.64124 0.47468 0.0
H807 H 0.86322 0.64611 0.47604 0.0
H808 H 0.82356 0.62167 0.48769 0.0
H809 H 0.84296 0.64752 0.38013 0.0
H810 H 0.85382 0.65324 0.31872 0.0
H811 H 0.82766 0.62392 0.26119 0.0
H812 H 0.81671 0.61795 0.32248 0.0
H813 H 0.78996 0.64637 0.47597 0.0
H814 H 0.80452 0.64115 0.47469 0.0
H815 H 0.78603 0.61614 0.3864 0.0
H816 H 0.7712 0.62133 0.38776 0.0
H817 H 0.80898 0.63033 0.36778 0.0
H818 H 0.7878 0.60691 0.47288 0.0
H819 H 0.77694 0.6017 0.53426 0.0
H820 H 0.80619 0.62626 0.59664 0.0
H821 H 0.81719 0.63176 0.53553 0.0
C822 C 0.85379 0.62563 0.40611 0.0
C823 C 0.86152 0.63418 0.43109 0.0
C824 C 0.84243 0.62289 0.4052 0.0
C825 C 0.83862 0.62856 0.4296 0.0
C826 C 0.84624 0.63674 0.45561 0.0
C827 C 0.85754 0.63956 0.45618 0.0
C828 C 0.82689 0.62657 0.42728 0.0
C829 C 0.82035 0.62352 0.46145 0.0
C830 C 0.82252 0.62863 0.39272 0.0
C831 C 0.8291 0.63221 0.35597 0.0
C832 C 0.83957 0.64224 0.35447 0.0
C833 C 0.84574 0.64554 0.31968 0.0
C834 C 0.84146 0.63892 0.28611 0.0
C835 C 0.83098 0.62901 0.28724 0.0
C836 C 0.82479 0.62567 0.32199 0.0
C837 C 0.78889 0.63967 0.45652 0.0
C838 C 0.77942 0.63429 0.43189 0.0
C839 C 0.79721 0.63665 0.45597 0.0
C840 C 0.79636 0.6282 0.43063 0.0
C841 C 0.78684 0.62265 0.4063 0.0
C842 C 0.77836 0.62558 0.40726 0.0
C843 C 0.80584 0.62582 0.42862 0.0
C844 C 0.81199 0.62811 0.39372 0.0
C845 C 0.80986 0.62305 0.46253 0.0
C846 C 0.80331 0.61978 0.49951 0.0
C847 C 0.7919 0.61126 0.49963 0.0
C848 C 0.78572 0.60825 0.53439 0.0
C849 C 0.79087 0.61366 0.56932 0.0
C850 C 0.80221 0.62208 0.56956 0.0
C851 C 0.80843 0.62513 0.53486 0.0
H852 H 0.78607 0.61131 0.59621 0.0
H853 H 0.84624 0.64149 0.25919 0.0
H854 H 0.38757 0.15019 0.40673 0.0
H855 H 0.39275 0.17016 0.40271 0.0
H856 H 0.3587 0.16114 0.43295 0.0
H857 H 0.35348 0.14147 0.43676 0.0
H858 H 0.36592 0.1751 0.37173 0.0
H859 H 0.38028 0.1727 0.49949 0.0
H860 H 0.39241 0.16925 0.54389 0.0
H861 H 0.42189 0.19477 0.48522 0.0
H862 H 0.4099 0.19827 0.44014 0.0
H863 H 0.36027 0.21569 0.47047 0.0
H864 H 0.36487 0.20081 0.46302 0.0
H865 H 0.39342 0.22255 0.39121 0.0
H866 H 0.38875 0.23767 0.39796 0.0
H867 H 0.39367 0.20483 0.45983 0.0
H868 H 0.37815 0.20867 0.33698 0.0
H869 H 0.36495 0.2121 0.29848 0.0
H870 H 0.33687 0.18337 0.35148 0.0
H871 H 0.34991 0.17995 0.39107 0.0
C872 C 0.3812 0.15248 0.41252 0.0
C873 C 0.37008 0.14415 0.42195 0.0
C874 C 0.38419 0.1639 0.41029 0.0
C875 C 0.37611 0.16716 0.41743 0.0
C876 C 0.36507 0.15885 0.42699 0.0
C877 C 0.36211 0.14755 0.42929 0.0
C878 C 0.37881 0.17912 0.41504 0.0
C879 C 0.37211 0.18162 0.39066 0.0
C880 C 0.38702 0.18775 0.4391 0.0
C881 C 0.3942 0.18563 0.46613 0.0
C882 C 0.38934 0.1775 0.49584 0.0
C883 C 0.39619 0.17555 0.52117 0.0
C884 C 0.40791 0.18176 0.51728 0.0
C885 C 0.41281 0.18995 0.48813 0.0
C886 C 0.40599 0.19192 0.46269 0.0
C887 C 0.36765 0.21745 0.45348 0.0
C888 C 0.37404 0.22786 0.43429 0.0
C889 C 0.37029 0.20892 0.44948 0.0
C890 C 0.37943 0.21056 0.42642 0.0
C891 C 0.38634 0.22115 0.40925 0.0
C892 C 0.38366 0.22977 0.41311 0.0
C893 C 0.38061 0.20062 0.41718 0.0
C894 C 0.38788 0.19844 0.43965 0.0
C895 C 0.37288 0.19222 0.3915 0.0
C896 C 0.36501 0.19411 0.36718 0.0
C897 C 0.36916 0.20315 0.34067 0.0
C898 C 0.3617 0.20508 0.3186 0.0
C899 C 0.35007 0.19795 0.3225 0.0
C900 C 0.34588 0.18888 0.34848 0.0
C901 C 0.3533 0.18694 0.37074 0.0
H902 H 0.34431 0.19945 0.30538 0.0
H903 H 0.41321 0.18024 0.53693 0.0
H904 H 0.85267 0.2361 0.40121 0.0
H905 H 0.83274 0.22101 0.39859 0.0
H906 H 0.83984 0.20133 0.47976 0.0
H907 H 0.85944 0.2162 0.48311 0.0
H908 H 0.83039 0.19115 0.40243 0.0
H909 H 0.82548 0.21096 0.51291 0.0
H910 H 0.82569 0.22734 0.54361 0.0
H911 H 0.80196 0.22588 0.45847 0.0
H912 H 0.80175 0.20957 0.42692 0.0
H913 H 0.78711 0.14332 0.48026 0.0
H914 H 0.80197 0.16292 0.47666 0.0
H915 H 0.7815 0.1703 0.40022 0.0
H916 H 0.76636 0.15044 0.40356 0.0
H917 H 0.79585 0.18829 0.4604 0.0
H918 H 0.79853 0.1671 0.35523 0.0
H919 H 0.79769 0.15042 0.3249 0.0
H920 H 0.82559 0.15491 0.3954 0.0
H921 H 0.82638 0.17147 0.42704 0.0
C922 C 0.8499 0.22867 0.41921 0.0
C923 C 0.85771 0.2273 0.44192 0.0
C924 C 0.83853 0.22006 0.41759 0.0
C925 C 0.83487 0.21002 0.43869 0.0
C926 C 0.84251 0.20897 0.46303 0.0
C927 C 0.85375 0.21751 0.46483 0.0
C928 C 0.82349 0.20003 0.43316 0.0
C929 C 0.82283 0.19055 0.41489 0.0
C930 C 0.81356 0.19936 0.44825 0.0
C931 C 0.81372 0.20916 0.46722 0.0
C932 C 0.82041 0.21421 0.50046 0.0
C933 C 0.8205 0.22346 0.51809 0.0
C934 C 0.81388 0.22768 0.50291 0.0
C935 C 0.80712 0.22263 0.47014 0.0
C936 C 0.807 0.21338 0.45239 0.0
C937 C 0.78563 0.14908 0.46301 0.0
C938 C 0.77558 0.14522 0.44165 0.0
C939 C 0.79415 0.16033 0.46117 0.0
C940 C 0.7929 0.16804 0.43786 0.0
C941 C 0.78262 0.16447 0.41842 0.0
C942 C 0.774 0.15312 0.42028 0.0
C943 C 0.80291 0.17934 0.43097 0.0
C944 C 0.80334 0.189 0.44688 0.0
C945 C 0.81267 0.18027 0.41324 0.0
C946 C 0.81246 0.17049 0.39368 0.0
C947 C 0.80444 0.16449 0.36448 0.0
C948 C 0.80398 0.15505 0.34703 0.0
C949 C 0.81159 0.15159 0.35816 0.0
C950 C 0.81969 0.15759 0.38678 0.0
C951 C 0.82015 0.16701 0.40451 0.0
H952 H 0.81122 0.14428 0.34461 0.0
H953 H 0.81396 0.23484 0.51661 0.0
H954 H 0.95301 0.51837 0.25572 0.0
H955 H 0.94749 0.49829 0.25538 0.0
H956 H 0.97165 0.50475 0.16393 0.0
H957 H 0.97701 0.52454 0.1637 0.0
H958 H 0.95315 0.48513 0.15135 0.0
H959 H 0.97784 0.50423 0.26198 0.0
H960 H 0.98295 0.51497 0.32372 0.0
H961 H 0.953 0.48875 0.37799 0.0
H962 H 0.94765 0.47792 0.31635 0.0
H963 H 0.97783 0.45163 0.16699 0.0
H964 H 0.97234 0.46596 0.16628 0.0
H965 H 0.94752 0.44796 0.25559 0.0
H966 H 0.95314 0.43349 0.25687 0.0
H967 H 0.96063 0.47036 0.27314 0.0
H968 H 0.93891 0.44944 0.16323 0.0
H969 H 0.93545 0.43903 0.10127 0.0
H970 H 0.96099 0.46895 0.04486 0.0
H971 H 0.96471 0.47952 0.10658 0.0
C972 C 0.95696 0.51543 0.23504 0.0
C973 C 0.96554 0.52309 0.21004 0.0
C974 C 0.95386 0.50398 0.23503 0.0
C975 C 0.95927 0.50001 0.20997 0.0
C976 C 0.96735 0.50756 0.18357 0.0
C977 C 0.97046 0.51893 0.18365 0.0
C978 C 0.95728 0.48829 0.21247 0.0
C979 C 0.95472 0.48188 0.17803 0.0
C980 C 0.95904 0.48386 0.24746 0.0
C981 C 0.96227 0.49034 0.28447 0.0
C982 C 0.9723 0.5008 0.28701 0.0
C983 C 0.97525 0.50689 0.32198 0.0
C984 C 0.96828 0.50256 0.35472 0.0
C985 C 0.95837 0.49211 0.35258 0.0
C986 C 0.95538 0.48599 0.31764 0.0
C987 C 0.97109 0.45059 0.18621 0.0
C988 C 0.96595 0.4414 0.2121 0.0
C989 C 0.9679 0.45879 0.18558 0.0
C990 C 0.95943 0.45802 0.21061 0.0
C991 C 0.95405 0.44871 0.23589 0.0
C992 C 0.95721 0.44041 0.23641 0.0
C993 C 0.95691 0.46741 0.21169 0.0
C994 C 0.95866 0.4734 0.24674 0.0
C995 C 0.95452 0.47152 0.17715 0.0
C996 C 0.9521 0.46527 0.13962 0.0
C997 C 0.94381 0.4538 0.13764 0.0
C998 C 0.9418 0.44786 0.10255 0.0
C999 C 0.948 0.45332 0.06916 0.0
C1000 C 0.95618 0.46474 0.07074 0.0
C1001 C 0.95822 0.47072 0.10575 0.0
H1002 H 0.94646 0.4487 0.04205 0.0
H1003 H 0.97058 0.5073 0.38177 0.0
H1004 H 0.57027 0.52166 0.26047 0.0
H1005 H 0.55422 0.50225 0.26242 0.0
H1006 H 0.53733 0.51072 0.17377 0.0
H1007 H 0.55312 0.52991 0.17175 0.0
H1008 H 0.52405 0.50139 0.2363 0.0
H1009 H 0.54816 0.49353 0.15477 0.0
H1010 H 0.56542 0.49292 0.13922 0.0
H1011 H 0.55991 0.47169 0.2387 0.0
H1012 H 0.54268 0.4723 0.25514 0.0
H1013 H 0.47801 0.453 0.16816 0.0
H1014 H 0.4972 0.46883 0.17067 0.0
H1015 H 0.50466 0.4534 0.26713 0.0
H1016 H 0.48524 0.4373 0.2647 0.0
H1017 H 0.52327 0.46532 0.21174 0.0
H1018 H 0.49847 0.47213 0.29057 0.0
H1019 H 0.48104 0.47249 0.30525 0.0
H1020 H 0.48804 0.49587 0.21138 0.0
H1021 H 0.50544 0.49551 0.19575 0.0
C1022 C 0.56323 0.51931 0.24087 0.0
C1023 C 0.56296 0.52741 0.21627 0.0
C1024 C 0.55404 0.5082 0.24205 0.0
C1025 C 0.54449 0.50502 0.21846 0.0
C1026 C 0.54452 0.51297 0.19257 0.0
C1027 C 0.55361 0.52398 0.19144 0.0
C1028 C 0.53406 0.49377 0.22214 0.0
C1029 C 0.52391 0.49353 0.2307 0.0
C1030 C 0.53386 0.48343 0.2163 0.0
C1031 C 0.54422 0.48308 0.20647 0.0
C1032 C 0.55069 0.48882 0.17355 0.0
C1033 C 0.56045 0.48846 0.16452 0.0
C1034 C 0.56378 0.4823 0.18804 0.0
C1035 C 0.55733 0.47647 0.22056 0.0
C1036 C 0.54757 0.47682 0.22973 0.0
C1037 C 0.48373 0.45284 0.18965 0.0
C1038 C 0.48 0.44394 0.21666 0.0
C1039 C 0.49474 0.46192 0.19098 0.0
C1040 C 0.50233 0.46242 0.21952 0.0
C1041 C 0.49893 0.45321 0.24493 0.0
C1042 C 0.48784 0.44402 0.24351 0.0
C1043 C 0.51331 0.47307 0.22451 0.0
C1044 C 0.52349 0.47319 0.21784 0.0
C1045 C 0.51361 0.48337 0.23222 0.0
C1046 C 0.50323 0.48373 0.24184 0.0
C1047 C 0.49626 0.47729 0.2729 0.0
C1048 C 0.48639 0.4775 0.28141 0.0
C1049 C 0.48342 0.48418 0.25922 0.0
C1050 C 0.49035 0.49069 0.22853 0.0
C1051 C 0.50022 0.4905 0.21987 0.0
H1052 H 0.47578 0.48433 0.26584 0.0
H1053 H 0.57134 0.48203 0.18099 0.0
H1054 H 0.57068 0.05303 0.24333 0.0
H1055 H 0.55609 0.05849 0.24022 0.0
H1056 H 0.53379 0.02723 0.18149 0.0
H1057 H 0.54817 0.02196 0.1833 0.0
H1058 H 0.53208 0.0434 0.14874 0.0
H1059 H 0.53317 0.03218 0.28488 0.0
H1060 H 0.54263 0.03464 0.34849 0.0
H1061 H 0.54826 0.06835 0.35682 0.0
H1062 H 0.53893 0.06611 0.29306 0.0
H1063 H 0.47574 0.02053 0.18904 0.0
H1064 H 0.49549 0.0261 0.18636 0.0
H1065 H 0.50441 0.05813 0.23872 0.0
H1066 H 0.48429 0.05246 0.24237 0.0
H1067 H 0.51611 0.04867 0.27168 0.0
H1068 H 0.51009 0.05723 0.14255 0.0
H1069 H 0.49996 0.05399 0.08005 0.0
H1070 H 0.50344 0.02503 0.05802 0.0
H1071 H 0.51344 0.02798 0.12062 0.0
C1072 C 0.56271 0.04741 0.22938 0.0
C1073 C 0.56062 0.03701 0.21389 0.0
C1074 C 0.55434 0.05051 0.22782 0.0
C1075 C 0.54375 0.04323 0.21097 0.0
C1076 C 0.54185 0.03304 0.19457 0.0
C1077 C 0.55014 0.03 0.19589 0.0
C1078 C 0.53429 0.0457 0.21099 0.0
C1079 C 0.52863 0.0446 0.17563 0.0
C1080 C 0.52998 0.04775 0.24574 0.0
C1081 C 0.53549 0.04902 0.2841 0.0
C1082 C 0.53649 0.04013 0.30022 0.0
C1083 C 0.54181 0.04148 0.33629 0.0
C1084 C 0.54607 0.05166 0.35663 0.0
C1085 C 0.54498 0.06048 0.341 0.0
C1086 C 0.53967 0.05918 0.30492 0.0
C1087 C 0.48182 0.02882 0.19988 0.0
C1088 C 0.47833 0.03605 0.21586 0.0
C1089 C 0.49319 0.03202 0.19808 0.0
C1090 C 0.5015 0.04262 0.21167 0.0
C1091 C 0.49815 0.04993 0.22778 0.0
C1092 C 0.48665 0.0467 0.22969 0.0
C1093 C 0.51356 0.04563 0.20976 0.0
C1094 C 0.51974 0.04781 0.24461 0.0
C1095 C 0.51834 0.04452 0.17451 0.0
C1096 C 0.51252 0.04284 0.13636 0.0
C1097 C 0.50867 0.05015 0.12444 0.0
C1098 C 0.50294 0.04836 0.08899 0.0
C1099 C 0.50106 0.03931 0.06508 0.0
C1100 C 0.50492 0.03205 0.07653 0.0
C1101 C 0.51065 0.03379 0.11196 0.0
H1102 H 0.49661 0.03793 0.03768 0.0
H1103 H 0.5502 0.05269 0.38454 0.0
H1104 H 0.43727 0.95184 0.73846 0.0
H1105 H 0.45246 0.94728 0.73249 0.0
H1106 H 0.47669 0.98099 0.76935 0.0
H1107 H 0.46184 0.9856 0.77523 0.0
H1108 H 0.4838 0.97502 0.70504 0.0
H1109 H 0.46723 0.95864 0.83117 0.0
H1110 H 0.45172 0.94558 0.87422 0.0
H1111 H 0.44872 0.91734 0.80953 0.0
H1112 H 0.46413 0.93026 0.76577 0.0
H1113 H 0.53127 0.98126 0.79526 0.0
H1114 H 0.51187 0.97686 0.78823 0.0
H1115 H 0.50416 0.94719 0.72144 0.0
H1116 H 0.5239 0.95163 0.72789 0.0
H1117 H 0.48675 0.94668 0.78662 0.0
H1118 H 0.50597 0.96394 0.66647 0.0
H1119 H 0.52218 0.97777 0.62764 0.0
H1120 H 0.52041 0.00489 0.68365 0.0
H1121 H 0.50429 0.99122 0.72328 0.0
C1122 C 0.44584 0.95826 0.74534 0.0
C1123 C 0.44828 0.96911 0.75721 0.0
C1124 C 0.45451 0.95563 0.74199 0.0
C1125 C 0.46574 0.96381 0.75036 0.0
C1126 C 0.46812 0.97456 0.76242 0.0
C1127 C 0.45955 0.97716 0.76589 0.0
C1128 C 0.47525 0.96152 0.74647 0.0
C1129 C 0.48437 0.96874 0.72261 0.0
C1130 C 0.47594 0.95315 0.7686 0.0
C1131 C 0.46671 0.94541 0.79491 0.0
C1132 C 0.46319 0.94965 0.82592 0.0
C1133 C 0.45444 0.94227 0.85049 0.0
C1134 C 0.44921 0.93064 0.84453 0.0
C1135 C 0.45275 0.92636 0.81405 0.0
C1136 C 0.4615 0.9337 0.78937 0.0
C1137 C 0.52551 0.97371 0.77931 0.0
C1138 C 0.52926 0.96689 0.76163 0.0
C1139 C 0.51436 0.97119 0.77552 0.0
C1140 C 0.5066 0.96176 0.75414 0.0
C1141 C 0.51004 0.95451 0.73816 0.0
C1142 C 0.52132 0.95707 0.74182 0.0
C1143 C 0.49533 0.9604 0.74607 0.0
C1144 C 0.48596 0.95263 0.76787 0.0
C1145 C 0.49438 0.96829 0.72215 0.0
C1146 C 0.50396 0.97655 0.69798 0.0
C1147 C 0.50909 0.97286 0.6707 0.0
C1148 C 0.51825 0.98067 0.64852 0.0
C1149 C 0.52233 0.9922 0.65321 0.0
C1150 C 0.51724 0.99595 0.68004 0.0
C1151 C 0.50808 0.98817 0.70233 0.0
H1152 H 0.52943 0.99824 0.63602 0.0
H1153 H 0.44244 0.92494 0.86358 0.0
H1154 H 0.0541 0.57192 0.73246 0.0
H1155 H 0.05919 0.55707 0.73459 0.0
H1156 H 0.03107 0.53746 0.8113 0.0
H1157 H 0.02605 0.55214 0.80965 0.0
H1158 H 0.04922 0.53645 0.83452 0.0
H1159 H 0.02961 0.53283 0.71138 0.0
H1160 H 0.02743 0.53962 0.64702 0.0
H1161 H 0.05947 0.54418 0.61086 0.0
H1162 H 0.06189 0.53754 0.67523 0.0
H1163 H 0.02607 0.47883 0.81199 0.0
H1164 H 0.03122 0.49854 0.81262 0.0
H1165 H 0.05942 0.50664 0.73681 0.0
H1166 H 0.05417 0.48662 0.73564 0.0
H1167 H 0.04715 0.51629 0.71166 0.0
H1168 H 0.06435 0.51557 0.83079 0.0
H1169 H 0.06596 0.50822 0.89474 0.0
H1170 H 0.03853 0.51171 0.93892 0.0
H1171 H 0.03664 0.51892 0.87508 0.0
C1172 C 0.04911 0.56451 0.75017 0.0
C1173 C 0.0396 0.56319 0.77054 0.0
C1174 C 0.05199 0.55599 0.7512 0.0
C1175 C 0.04544 0.54606 0.77279 0.0
C1176 C 0.03626 0.545 0.7944 0.0
C1177 C 0.03336 0.55341 0.79321 0.0
C1178 C 0.0476 0.53642 0.77197 0.0
C1179 C 0.0488 0.53206 0.80765 0.0
C1180 C 0.04747 0.53087 0.73685 0.0
C1181 C 0.04599 0.53483 0.69822 0.0
C1182 C 0.03623 0.53536 0.68979 0.0
C1183 C 0.03494 0.53917 0.65331 0.0
C1184 C 0.04333 0.54237 0.62492 0.0
C1185 C 0.053 0.54173 0.63291 0.0
C1186 C 0.05433 0.53794 0.66938 0.0
C1187 C 0.03345 0.48477 0.79563 0.0
C1188 C 0.03969 0.48109 0.77364 0.0
C1189 C 0.03644 0.4961 0.79627 0.0
C1190 C 0.04579 0.50415 0.77513 0.0
C1191 C 0.05219 0.5006 0.75352 0.0
C1192 C 0.04923 0.48917 0.75305 0.0
C1193 C 0.04826 0.51606 0.77439 0.0
C1194 C 0.04793 0.52084 0.73848 0.0
C1195 C 0.04918 0.52201 0.80935 0.0
C1196 C 0.05034 0.51777 0.84802 0.0
C1197 C 0.05862 0.51472 0.85406 0.0
C1198 C 0.05958 0.51058 0.89032 0.0
C1199 C 0.05235 0.50949 0.92086 0.0
C1200 C 0.04414 0.51257 0.91524 0.0
C1201 C 0.04313 0.5167 0.87904 0.0
H1202 H 0.0531 0.50628 0.9489 0.0
H1203 H 0.04232 0.54531 0.59669 0.0
H1204 H 0.45668 0.47786 0.80797 0.0
H1205 H 0.4702 0.49789 0.80998 0.0
H1206 H 0.44843 0.50457 0.73763 0.0
H1207 H 0.43467 0.48423 0.73514 0.0
H1208 H 0.47092 0.51582 0.7125 0.0
H1209 H 0.4515 0.51273 0.83059 0.0
H1210 H 0.44222 0.50417 0.89309 0.0
H1211 H 0.47351 0.50898 0.93886 0.0
H1212 H 0.48295 0.51741 0.87648 0.0
H1213 H 0.52015 0.57077 0.74067 0.0
H1214 H 0.49991 0.55666 0.74028 0.0
H1215 H 0.50624 0.53563 0.81787 0.0
H1216 H 0.52613 0.54957 0.81904 0.0
H1217 H 0.48739 0.53506 0.83828 0.0
H1218 H 0.50454 0.53243 0.71511 0.0
H1219 H 0.51406 0.54005 0.65204 0.0
H1220 H 0.48716 0.54558 0.61635 0.0
H1221 H 0.47754 0.53809 0.67943 0.0
C1222 C 0.45466 0.48353 0.79258 0.0
C1223 C 0.44456 0.47939 0.77129 0.0
C1224 C 0.4624 0.49504 0.794 0.0
C1225 C 0.46029 0.50277 0.77439 0.0
C1226 C 0.4502 0.49875 0.7532 0.0
C1227 C 0.44233 0.48714 0.75195 0.0
C1228 C 0.46904 0.51492 0.77508 0.0
C1229 C 0.47433 0.52019 0.73993 0.0
C1230 C 0.47353 0.52061 0.81085 0.0
C1231 C 0.46794 0.51571 0.84876 0.0
C1232 C 0.4564 0.51192 0.85392 0.0
C1233 C 0.45111 0.5071 0.88935 0.0
C1234 C 0.45727 0.50604 0.91993 0.0
C1235 C 0.46875 0.50983 0.91517 0.0
C1236 C 0.47408 0.51466 0.8798 0.0
C1237 C 0.51716 0.56322 0.75814 0.0
C1238 C 0.52479 0.56126 0.77954 0.0
C1239 C 0.50561 0.55514 0.75772 0.0
C1240 C 0.50154 0.545 0.77872 0.0
C1241 C 0.50911 0.54335 0.80144 0.0
C1242 C 0.52055 0.55134 0.80186 0.0
C1243 C 0.48964 0.53564 0.77591 0.0
C1244 C 0.48374 0.5309 0.81074 0.0
C1245 C 0.48465 0.53041 0.73992 0.0
C1246 C 0.49041 0.53485 0.70208 0.0
C1247 C 0.5007 0.53534 0.69389 0.0
C1248 C 0.5061 0.53962 0.65815 0.0
C1249 C 0.50123 0.54333 0.63026 0.0
C1250 C 0.49093 0.54273 0.63801 0.0
C1251 C 0.4855 0.53847 0.67374 0.0
H1252 H 0.50543 0.54664 0.60261 0.0
H1253 H 0.45315 0.50229 0.94731 0.0
H1254 H 0.62103 0.85182 0.5881 0.0
H1255 H 0.61534 0.8317 0.58678 0.0
H1256 H 0.64396 0.83937 0.5137 0.0
H1257 H 0.64941 0.8591 0.51387 0.0
H1258 H 0.62703 0.82066 0.48999 0.0
H1259 H 0.6437 0.83644 0.61742 0.0
H1260 H 0.64438 0.84531 0.6809 0.0
H1261 H 0.61147 0.81789 0.70933 0.0
H1262 H 0.61055 0.80893 0.64578 0.0
H1263 H 0.65132 0.78804 0.52756 0.0
H1264 H 0.64597 0.80243 0.52575 0.0
H1265 H 0.61499 0.78028 0.58599 0.0
H1266 H 0.62038 0.76562 0.58836 0.0
H1267 H 0.62649 0.80261 0.61619 0.0
H1268 H 0.61316 0.78495 0.49191 0.0
H1269 H 0.6146 0.77655 0.43 0.0
H1270 H 0.64311 0.80817 0.39621 0.0
H1271 H 0.64191 0.81675 0.45807 0.0
C1272 C 0.62597 0.84915 0.57121 0.0
C1273 C 0.63576 0.85713 0.5515 0.0
C1274 C 0.62275 0.83766 0.57069 0.0
C1275 C 0.62931 0.83399 0.55057 0.0
C1276 C 0.63874 0.84191 0.52945 0.0
C1277 C 0.6419 0.85327 0.52984 0.0
C1278 C 0.62702 0.82214 0.55266 0.0
C1279 C 0.62683 0.81669 0.51763 0.0
C1280 C 0.62643 0.81673 0.58862 0.0
C1281 C 0.62699 0.8221 0.62673 0.0
C1282 C 0.63658 0.83235 0.63713 0.0
C1283 C 0.63701 0.83739 0.67311 0.0
C1284 C 0.62796 0.83219 0.69907 0.0
C1285 C 0.61846 0.82192 0.68915 0.0
C1286 C 0.61798 0.81687 0.65317 0.0
C1287 C 0.64334 0.78613 0.54049 0.0
C1288 C 0.63629 0.77562 0.55818 0.0
C1289 C 0.64026 0.79439 0.5392 0.0
C1290 C 0.63002 0.79241 0.55528 0.0
C1291 C 0.62292 0.78197 0.57321 0.0
C1292 C 0.62599 0.77359 0.57439 0.0
C1293 C 0.62708 0.80149 0.55359 0.0
C1294 C 0.62628 0.80638 0.58858 0.0
C1295 C 0.62694 0.8065 0.5176 0.0
C1296 C 0.62744 0.80149 0.47967 0.0
C1297 C 0.61974 0.79012 0.47128 0.0
C1298 C 0.62052 0.78532 0.4362 0.0
C1299 C 0.62894 0.79182 0.40918 0.0
C1300 C 0.63657 0.80315 0.41712 0.0
C1301 C 0.63582 0.808 0.45214 0.0
H1302 H 0.62956 0.78809 0.38211 0.0
H1303 H 0.62831 0.83609 0.72692 0.0
H1304 H 0.14903 0.7888 0.50231 0.0
H1305 H 0.16885 0.803 0.5016 0.0
H1306 H 0.17586 0.78382 0.58554 0.0
H1307 H 0.15569 0.76949 0.58711 0.0
H1308 H 0.18544 0.80539 0.60749 0.0
H1309 H 0.18602 0.78724 0.49081 0.0
H1310 H 0.17927 0.778 0.42684 0.0
H1311 H 0.18308 0.80868 0.37902 0.0
H1312 H 0.1897 0.81807 0.44281 0.0
H1313 H 0.24066 0.85507 0.59022 0.0
H1314 H 0.22638 0.8349 0.58771 0.0
H1315 H 0.20646 0.84228 0.50843 0.0
H1316 H 0.22054 0.86219 0.51055 0.0
H1317 H 0.20668 0.82343 0.48628 0.0
H1318 H 0.20124 0.83927 0.6073 0.0
H1319 H 0.20729 0.84838 0.67184 0.0
H1320 H 0.21257 0.8216 0.71098 0.0
H1321 H 0.20667 0.8124 0.64645 0.0
C1322 C 0.15476 0.78745 0.52027 0.0
C1323 C 0.15073 0.778 0.54493 0.0
C1324 C 0.16617 0.79558 0.51958 0.0
C1325 C 0.17394 0.79447 0.54316 0.0
C1326 C 0.17004 0.78485 0.56692 0.0
C1327 C 0.15853 0.77663 0.5676 0.0
C1328 C 0.18585 0.80391 0.54489 0.0
C1329 C 0.19024 0.80914 0.58105 0.0
C1330 C 0.19213 0.8089 0.51048 0.0
C1331 C 0.18835 0.80336 0.47172 0.0
C1332 C 0.18538 0.79201 0.46671 0.0
C1333 C 0.18158 0.78674 0.43046 0.0
C1334 C 0.18074 0.79275 0.3989 0.0
C1335 C 0.18375 0.80404 0.40349 0.0
C1336 C 0.18755 0.80935 0.43967 0.0
C1337 C 0.2333 0.85235 0.5719 0.0
C1338 C 0.23171 0.86028 0.5509 0.0
C1339 C 0.22513 0.84083 0.57061 0.0
C1340 C 0.21529 0.83707 0.54808 0.0
C1341 C 0.21396 0.84494 0.52597 0.0
C1342 C 0.22202 0.85637 0.52745 0.0
C1343 C 0.20595 0.82512 0.54856 0.0
C1344 C 0.20206 0.81944 0.51278 0.0
C1345 C 0.20014 0.81971 0.58328 0.0
C1346 C 0.20367 0.82524 0.62196 0.0
C1347 C 0.20378 0.83538 0.62959 0.0
C1348 C 0.20716 0.84054 0.66617 0.0
C1349 C 0.21035 0.83559 0.69545 0.0
C1350 C 0.21013 0.82544 0.68824 0.0
C1351 C 0.20677 0.82025 0.65168 0.0
H1352 H 0.21297 0.8396 0.72375 0.0
H1353 H 0.17777 0.78865 0.37088 0.0
H1354 H 0.23835 0.38673 0.59127 0.0
H1355 H 0.2236 0.392 0.59066 0.0
H1356 H 0.20402 0.36478 0.51048 0.0
H1357 H 0.21861 0.35967 0.51039 0.0
H1358 H 0.20255 0.38264 0.49085 0.0
H1359 H 0.19963 0.36241 0.61178 0.0
H1360 H 0.20678 0.35991 0.67495 0.0
H1361 H 0.21141 0.39168 0.71478 0.0
H1362 H 0.20441 0.39442 0.65161 0.0
H1363 H 0.14486 0.35888 0.51861 0.0
H1364 H 0.16459 0.36406 0.51603 0.0
H1365 H 0.17321 0.39225 0.59251 0.0
H1366 H 0.1532 0.38701 0.5955 0.0
H1367 H 0.18295 0.37975 0.61583 0.0
H1368 H 0.18147 0.3974 0.49858 0.0
H1369 H 0.17386 0.39925 0.43548 0.0
H1370 H 0.17718 0.37202 0.38832 0.0
H1371 H 0.18467 0.3699 0.45128 0.0
C1372 C 0.23098 0.38202 0.57301 0.0
C1373 C 0.22963 0.3727 0.55124 0.0
C1374 C 0.22252 0.38498 0.57289 0.0
C1375 C 0.21259 0.37869 0.55093 0.0
C1376 C 0.21155 0.36978 0.52773 0.0
C1377 C 0.21992 0.36682 0.52791 0.0
C1378 C 0.20289 0.38076 0.55319 0.0
C1379 C 0.19828 0.38204 0.51821 0.0
C1380 C 0.19748 0.38035 0.58894 0.0
C1381 C 0.20164 0.37868 0.62687 0.0
C1382 C 0.20225 0.36889 0.63393 0.0
C1383 C 0.20626 0.36743 0.66973 0.0
C1384 C 0.20959 0.37565 0.69881 0.0
C1385 C 0.20887 0.38534 0.69219 0.0
C1386 C 0.20487 0.38685 0.65641 0.0
C1387 C 0.15092 0.36625 0.53472 0.0
C1388 C 0.1474 0.37251 0.5574 0.0
C1389 C 0.16225 0.36926 0.53298 0.0
C1390 C 0.17044 0.37862 0.55375 0.0
C1391 C 0.16704 0.38502 0.57608 0.0
C1392 C 0.15562 0.38205 0.57761 0.0
C1393 C 0.18237 0.38114 0.5533 0.0
C1394 C 0.18738 0.3807 0.58857 0.0
C1395 C 0.18813 0.38226 0.51776 0.0
C1396 C 0.18362 0.38348 0.47975 0.0
C1397 C 0.18051 0.39176 0.47484 0.0
C1398 C 0.17623 0.39286 0.43908 0.0
C1399 C 0.17505 0.38576 0.40792 0.0
C1400 C 0.17812 0.37752 0.41247 0.0
C1401 C 0.18241 0.37638 0.44818 0.0
H1402 H 0.17181 0.38668 0.3802 0.0
H1403 H 0.21269 0.37451 0.72651 0.0
H1404 H 0.04995 0.26365 0.06337 0.0
H1405 H 0.03045 0.25194 0.0407 0.0
H1406 H 0.02896 0.282 0.01463 0.0
H1407 H 0.0481 0.29359 0.03921 0.0
H1408 H 0.01072 0.26849 0.04692 0.0
H1409 H 0.03192 0.26383 0.94284 0.0
H1410 H 0.04524 0.25865 0.91424 0.0
H1411 H 0.02484 0.22473 0.95583 0.0
H1412 H 0.01147 0.22975 0.98507 0.0
H1413 H 0.96691 0.25128 0.91342 0.0
H1414 H 0.98587 0.25845 0.93901 0.0
H1415 H 0.97629 0.2256 0.98528 0.0
H1416 H 0.95708 0.21825 0.95938 0.0
H1417 H 0.99892 0.23788 0.94913 0.0
H1418 H 0.97635 0.24315 0.04526 0.0
H1419 H 0.96266 0.24897 0.06412 0.0
H1420 H 0.98619 0.28309 0.03119 0.0
H1421 H 0.99989 0.2774 0.01088 0.0
C1422 C 0.04544 0.26772 0.05264 0.0
C1423 C 0.05054 0.27953 0.05313 0.0
C1424 C 0.0343 0.26103 0.03947 0.0
C1425 C 0.02816 0.26603 0.02545 0.0
C1426 C 0.03339 0.27786 0.02547 0.0
C1427 C 0.04438 0.28451 0.03942 0.0
C1428 C 0.01624 0.25914 0.01149 0.0
C1429 C 0.00823 0.26186 0.02535 0.0
C1430 C 0.01275 0.25021 0.9841 0.0
C1431 C 0.02077 0.2472 0.96652 0.0
C1432 C 0.03032 0.25529 0.94612 0.0
C1433 C 0.03787 0.25238 0.92976 0.0
C1434 C 0.03591 0.24138 0.93333 0.0
C1435 C 0.02637 0.23325 0.95316 0.0
C1436 C 0.0188 0.23612 0.96961 0.0
C1437 C 0.9688 0.2455 0.92871 0.0
C1438 C 0.96042 0.2342 0.93468 0.0
C1439 C 0.97968 0.24963 0.94328 0.0
C1440 C 0.98247 0.2426 0.96439 0.0
C1441 C 0.9743 0.23117 0.96906 0.0
C1442 C 0.96333 0.227 0.95441 0.0
C1443 C 0.99369 0.24755 0.9837 0.0
C1444 C 1.00148 0.24443 0.97107 0.0
C1445 C 0.99706 0.25625 0.01175 0.0
C1446 C 0.98912 0.25983 0.02631 0.0
C1447 C 0.9786 0.25189 0.04193 0.0
C1448 C 0.97082 0.25516 0.05279 0.0
C1449 C 0.97355 0.2664 0.0488 0.0
C1450 C 0.98408 0.27439 0.03421 0.0
C1451 C 0.99186 0.27115 0.02299 0.0
H1452 H 0.96749 0.26891 0.05702 0.0
H1453 H 0.04176 0.23914 0.92064 0.0
H1454 H 0.75668 0.71956 0.90612 0.0
H1455 H 0.74975 0.73181 0.92971 0.0
H1456 H 0.77986 0.75045 -0.00116 0.0
H1457 H 0.78694 0.73822 0.97491 0.0
H1458 H 0.7603 0.74464 0.04075 0.0
H1459 H 0.77696 0.76267 0.92045 0.0
H1460 H 0.78085 0.7639 0.84977 0.0
H1461 H 0.74591 0.75178 0.82502 0.0
H1462 H 0.74176 0.75032 0.89559 0.0
H1463 H 0.74019 0.78936 0.0265 0.0
H1464 H 0.75229 0.78197 0.00383 0.0
H1465 H 0.72845 0.74918 0.04926 0.0
H1466 H 0.71646 0.75645 0.07196 0.0
H1467 H 0.74836 0.76532 0.95171 0.0
H1468 H 0.74203 0.73613 0.0836 0.0
H1469 H 0.73892 0.73562 0.15472 0.0
H1470 H 0.75509 0.77174 0.15735 0.0
H1471 H 0.75844 0.77249 0.08635 0.0
C1472 C 0.76188 0.7263 0.92617 0.0
C1473 C 0.77238 0.72791 0.93859 0.0
C1474 C 0.75791 0.73334 0.93952 0.0
C1475 C 0.7643 0.74212 0.96587 0.0
C1476 C 0.77479 0.74376 0.97844 0.0
C1477 C 0.77884 0.73678 0.96465 0.0
C1478 C 0.75975 0.74927 0.98107 0.0
C1479 C 0.75775 0.74921 0.0213 0.0
C1480 C 0.75659 0.75542 0.95584 0.0
C1481 C 0.75904 0.7563 0.91335 0.0
C1482 C 0.77008 0.76018 0.89995 0.0
C1483 C 0.77234 0.76093 0.85989 0.0
C1484 C 0.76363 0.7579 0.83292 0.0
C1485 C 0.75265 0.75412 0.84595 0.0
C1486 C 0.75034 0.75334 0.88598 0.0
C1487 C 0.73758 0.78059 0.03181 0.0
C1488 C 0.72737 0.77352 0.05119 0.0
C1489 C 0.74448 0.77637 0.01874 0.0
C1490 C 0.74137 0.76503 0.02521 0.0
C1491 C 0.73116 0.75799 0.04445 0.0
C1492 C 0.72427 0.76217 0.05729 0.0
C1493 C 0.74856 0.76037 0.01126 0.0
C1494 C 0.75102 0.76086 0.97124 0.0
C1495 C 0.75223 0.75469 0.03674 0.0
C1496 C 0.75041 0.75435 0.07957 0.0
C1497 C 0.74498 0.74397 0.09938 0.0
C1498 C 0.74316 0.74364 0.13967 0.0
C1499 C 0.74678 0.75364 0.16052 0.0
C1500 C 0.75226 0.764 0.14114 0.0
C1501 C 0.75411 0.76438 0.10086 0.0
H1502 H 0.74536 0.75337 0.1917 0.0
H1503 H 0.7654 0.75849 0.80192 0.0
H1504 H 0.22003 0.95862 0.07463 0.0
H1505 H 0.2284 0.97838 0.054 0.0
H1506 H 0.25524 0.9761 0.99635 0.0
H1507 H 0.24734 0.95677 0.01939 0.0
H1508 H 0.26427 0.99419 0.03239 0.0
H1509 H 0.231 0.97701 0.9489 0.0
H1510 H 0.21054 0.96616 0.93594 0.0
H1511 H 0.20569 0.98958 0.00489 0.0
H1512 H 0.2261 1.0005 0.01858 0.0
H1513 H 0.28873 0.04073 0.90906 0.0
H1514 H 0.27711 0.02163 0.93364 0.0
H1515 H 0.25708 0.03214 -0.0008 0.0
H1516 H 0.26862 0.05142 0.97362 0.0
H1517 H 0.24391 0.01109 0.96715 0.0
H1518 H 0.27756 0.02913 0.04468 0.0
H1519 H 0.2981 0.04016 0.05552 0.0
H1520 H 0.30223 0.01487 0.99597 0.0
H1521 H 0.28173 0.00377 0.98428 0.0
C1522 C 0.22766 0.96236 0.05722 0.0
C1523 C 0.23306 0.95619 0.04863 0.0
C1524 C 0.23243 0.97365 0.0452 0.0
C1525 C 0.24247 0.97885 0.02313 0.0
C1526 C 0.24758 0.97245 0.01357 0.0
C1527 C 0.24303 0.96134 0.02658 0.0
C1528 C 0.2481 0.99102 0.01132 0.0
C1529 C 0.25977 0.99777 0.01766 0.0
C1530 C 0.24229 0.99602 0.99357 0.0
C1531 C 0.23005 0.9895 0.98507 0.0
C1532 C 0.22555 0.9798 0.96146 0.0
C1533 C 0.21397 0.97365 0.95396 0.0
C1534 C 0.20682 0.97716 0.96966 0.0
C1535 C 0.21123 0.98686 0.99279 0.0
C1536 C 0.22281 0.99304 0.0004 0.0
C1537 C 0.28182 0.03901 0.92855 0.0
C1538 C 0.27969 0.04765 0.93969 0.0
C1539 C 0.27518 0.02805 0.9427 0.0
C1540 C 0.26635 0.02545 0.96901 0.0
C1541 C 0.26389 0.03394 0.97913 0.0
C1542 C 0.2705 0.04496 0.96455 0.0
C1543 C 0.26007 0.01394 0.98668 0.0
C1544 C 0.24833 0.00742 0.98189 0.0
C1545 C 0.2658 0.00909 0.00568 0.0
C1546 C 0.27811 0.01564 0.01345 0.0
C1547 C 0.28285 0.02594 0.03377 0.0
C1548 C 0.29449 0.0322 0.04007 0.0
C1549 C 0.30147 0.02822 0.02642 0.0
C1550 C 0.29682 0.01794 0.00655 0.0
C1551 C 0.28519 0.01165 0.00013 0.0
H1552 H 0.31048 0.03309 0.03126 0.0
H1553 H 0.19785 0.97238 0.96385 0.0
H1554 H 0.96248 0.71457 0.92957 0.0
H1555 H 0.98136 0.7263 0.95612 0.0
H1556 H 0.97453 0.75345 0.97409 0.0
H1557 H 0.95538 0.74161 0.94763 0.0
H1558 H 0.99688 0.75989 0.94012 0.0
H1559 H 0.97358 0.74012 0.04988 0.0
H1560 H 0.95912 0.72326 0.08444 0.0
H1561 H 0.97969 0.70789 0.07462 0.0
H1562 H 0.99419 0.72457 0.03934 0.0
H1563 H 0.04881 0.788 0.05064 0.0
H1564 H 0.02931 0.78062 0.02822 0.0
H1565 H 0.02426 0.7469 0.02846 0.0
H1566 H 0.04339 0.75412 0.05209 0.0
H1567 H 0.00689 0.746 0.05874 0.0
H1568 H 0.02865 0.76371 0.94225 0.0
H1569 H 0.0429 0.77952 0.90298 0.0
H1570 H 0.02549 0.79788 0.9218 0.0
H1571 H 0.0112 0.78221 0.96159 0.0
C1572 C 0.96496 0.72305 0.93893 0.0
C1573 C 0.95737 0.72713 0.9366 0.0
C1574 C 0.97578 0.72975 0.95416 0.0
C1575 C 0.97934 0.74072 0.96732 0.0
C1576 C 0.97194 0.745 0.96409 0.0
C1577 C 0.961 0.73822 0.94912 0.0
C1578 C 0.99067 0.74741 0.98566 0.0
C1579 C 0.99905 0.75702 0.96651 0.0
C1580 C 0.99353 0.74353 0.01967 0.0
C1581 C 0.98495 0.73358 0.04173 0.0
C1582 C 0.97499 0.73312 0.05488 0.0
C1583 C 0.96679 0.7236 0.07461 0.0
C1584 C 0.96848 0.71451 0.08167 0.0
C1585 C 0.97839 0.71494 0.06912 0.0
C1586 C 0.98661 0.72443 0.04929 0.0
C1587 C 0.04352 0.77902 0.04582 0.0
C1588 C 0.04765 0.77165 0.05329 0.0
C1589 C 0.03237 0.7748 0.03283 0.0
C1590 C 0.02524 0.76317 0.02631 0.0
C1591 C 0.02948 0.75588 0.03347 0.0
C1592 C 0.04048 0.76005 0.04692 0.0
C1593 C 0.01333 0.75836 0.01255 0.0
C1594 C 0.00477 0.74905 0.03267 0.0
C1595 C 0.01036 0.76245 0.97916 0.0
C1596 C 0.01894 0.77186 0.95527 0.0
C1597 C 0.02791 0.77116 0.93825 0.0
C1598 C 0.03599 0.78008 0.91586 0.0
C1599 C 0.03512 0.78972 0.91001 0.0
C1600 C 0.02616 0.79043 0.92644 0.0
C1601 C 0.01807 0.78152 0.94889 0.0
H1602 H 0.04138 0.79662 0.89266 0.0
H1603 H 0.96211 0.70713 0.09691 0.0
H1604 H 0.26687 0.21735 0.95629 0.0
H1605 H 0.25515 0.22477 0.98273 0.0
H1606 H 0.28219 0.2587 0.96207 0.0
H1607 H 0.29382 0.25143 0.93594 0.0
H1608 H 0.2732 0.25633 0.03472 0.0
H1609 H 0.2595 0.246 0.90117 0.0
H1610 H 0.25086 0.23256 0.8467 0.0
H1611 H 0.22132 0.21256 0.9161 0.0
H1612 H 0.22986 0.22582 0.97117 0.0
H1613 H 0.25241 0.29317 0.04036 0.0
H1614 H 0.26013 0.28143 0.01932 0.0
H1615 H 0.2277 0.2516 0.03655 0.0
H1616 H 0.21976 0.26347 0.05631 0.0
H1617 H 0.23727 0.24895 0.97375 0.0
H1618 H 0.24959 0.25998 0.10444 0.0
H1619 H 0.25789 0.27297 0.16025 0.0
H1620 H 0.28955 0.29068 0.09991 0.0
H1621 H 0.2814 0.27791 0.04348 0.0
C1622 C 0.27029 0.22638 0.95746 0.0
C1623 C 0.28128 0.23378 0.94395 0.0
C1624 C 0.26358 0.23061 0.97243 0.0
C1625 C 0.26778 0.24231 0.97426 0.0
C1626 C 0.27876 0.24965 0.96107 0.0
C1627 C 0.2854 0.24546 0.94599 0.0
C1628 C 0.26094 0.24712 0.99003 0.0
C1629 C 0.26536 0.25476 0.02127 0.0
C1630 C 0.25049 0.24475 0.97355 0.0
C1631 C 0.24537 0.23682 0.94041 0.0
C1632 C 0.2512 0.23869 0.90491 0.0
C1633 C 0.24631 0.23111 0.87391 0.0
C1634 C 0.23556 0.22169 0.87798 0.0
C1635 C 0.22965 0.21985 0.91302 0.0
C1636 C 0.23451 0.22739 0.94412 0.0
C1637 C 0.24688 0.28411 0.03954 0.0
C1638 C 0.23549 0.27924 0.0504 0.0
C1639 C 0.25133 0.27738 0.0277 0.0
C1640 C 0.24461 0.26558 0.02739 0.0
C1641 C 0.2331 0.26068 0.03687 0.0
C1642 C 0.22857 0.26746 0.04817 0.0
C1643 C 0.24976 0.25851 0.01756 0.0
C1644 C 0.24501 0.25042 0.98764 0.0
C1645 C 0.25988 0.26036 0.03556 0.0
C1646 C 0.26486 0.26802 0.06961 0.0
C1647 C 0.25831 0.26669 0.10297 0.0
C1648 C 0.26299 0.27401 0.13473 0.0
C1649 C 0.27424 0.28265 0.13361 0.0
C1650 C 0.28084 0.28398 0.10075 0.0
C1651 C 0.27619 0.27669 0.06888 0.0
H1652 H 0.27784 0.28832 0.15822 0.0
H1653 H 0.23179 0.21584 0.85394 0.0
H1654 H 0.75752 0.04424 0.92563 0.0
H1655 H 0.75069 0.02506 0.94837 0.0
H1656 H 0.78455 0.03377 0.98039 0.0
H1657 H 0.7915 0.05318 0.9578 0.0
H1658 H 0.75474 0.00867 0.92666 0.0
H1659 H 0.78243 0.01798 0.06296 0.0
H1660 H 0.79324 0.03345 0.10967 0.0
H1661 H 0.77089 0.04639 0.08949 0.0
H1662 H 0.75987 0.03093 0.04307 0.0
H1663 H 0.73978 0.95535 0.01634 0.0
H1664 H 0.75205 0.97449 0.99058 0.0
H1665 H 0.73652 0.98737 0.06892 0.0
H1666 H 0.72429 0.96845 0.09425 0.0
H1667 H 0.75956 1.0014 0.06529 0.0
H1668 H 0.72772 0.98174 0.97781 0.0
H1669 H 0.71532 0.96635 0.93313 0.0
H1670 H 0.74351 0.97435 0.85833 0.0
H1671 H 0.75611 0.9897 0.90294 0.0
C1672 C 0.76356 0.04212 0.93742 0.0
C1673 C 0.77507 0.05029 0.94004 0.0
C1674 C 0.75963 0.03109 0.95022 0.0
C1675 C 0.76708 0.02793 0.96622 0.0
C1676 C 0.77862 0.03602 0.96843 0.0
C1677 C 0.78259 0.0471 0.95547 0.0
C1678 C 0.76253 0.01626 0.98161 0.0
C1679 C 0.75594 0.00709 0.95685 0.0
C1680 C 0.76397 0.01414 0.02107 0.0
C1681 C 0.77043 0.0234 0.04921 0.0
C1682 C 0.77982 0.02412 0.06858 0.0
C1683 C 0.78598 0.03288 0.095 0.0
C1684 C 0.78278 0.04092 0.10243 0.0
C1685 C 0.77338 0.04019 0.08359 0.0
C1686 C 0.76719 0.03144 0.05719 0.0
C1687 C 0.7391 0.9623 0.0283 0.0
C1688 C 0.73102 0.96038 0.05714 0.0
C1689 C 0.74609 0.97321 0.01354 0.0
C1690 C 0.74518 0.98237 0.02777 0.0
C1691 C 0.73741 0.98048 0.05758 0.0
C1692 C 0.73037 0.96962 0.07187 0.0
C1693 C 0.75173 0.99384 0.01041 0.0
C1694 C 0.75865 0.00297 0.03482 0.0
C1695 C 0.75044 0.99594 0.97081 0.0
C1696 C 0.74287 0.98676 0.94394 0.0
C1697 C 0.73129 0.98015 0.95201 0.0
C1698 C 0.72422 0.97145 0.92668 0.0
C1699 C 0.72863 0.96935 0.89298 0.0
C1700 C 0.74011 0.97597 0.8845 0.0
C1701 C 0.74722 0.98467 0.90979 0.0
H1702 H 0.72315 0.96261 0.8734 0.0
H1703 H 0.78756 0.0477 0.12286 0.0
H1704 H 0.62589 0.55214 0.27052 0.0
H1705 H 0.64534 0.56005 0.29433 0.0
H1706 H 0.64544 0.59037 0.32948 0.0
H1707 H 0.62646 0.5828 0.30357 0.0
H1708 H 0.66362 0.59663 0.29651 0.0
H1709 H 0.64395 0.56844 0.39507 0.0
H1710 H 0.63145 0.5493 0.42064 0.0
H1711 H 0.65284 0.53803 0.37065 0.0
H1712 H 0.6654 0.55708 0.34437 0.0
H1713 H 0.7099 0.62268 0.42219 0.0
H1714 H 0.6905 0.6111 0.39992 0.0
H1715 H 0.69907 0.58801 0.34543 0.0
H1716 H 0.71864 0.59956 0.36832 0.0
H1717 H 0.67749 0.57713 0.38297 0.0
H1718 H 0.69815 0.60761 0.29083 0.0
H1719 H 0.71067 0.62775 0.2756 0.0
H1720 H 0.6864 0.63553 0.32354 0.0
H1721 H 0.67382 0.61548 0.33965 0.0
C1722 C 0.63008 0.56045 0.28368 0.0
C1723 C 0.62469 0.56688 0.28505 0.0
C1724 C 0.64119 0.56497 0.29748 0.0
C1725 C 0.64697 0.57586 0.31403 0.0
C1726 C 0.64133 0.58204 0.31653 0.0
C1727 C 0.63042 0.57767 0.30185 0.0
C1728 C 0.659 0.58117 0.3273 0.0
C1729 C 0.66654 0.59233 0.31572 0.0
C1730 C 0.66307 0.5756 0.35167 0.0
C1731 C 0.65553 0.56415 0.36736 0.0
C1732 C 0.64593 0.56186 0.38927 0.0
C1733 C 0.63885 0.55103 0.40394 0.0
C1734 C 0.64133 0.54245 0.39716 0.0
C1735 C 0.65092 0.54468 0.3758 0.0
C1736 C 0.65803 0.55549 0.36104 0.0
C1737 C 0.70768 0.61509 0.40578 0.0
C1738 C 0.71587 0.61212 0.39672 0.0
C1739 C 0.69655 0.60847 0.39303 0.0
C1740 C 0.69334 0.59877 0.37044 0.0
C1741 C 0.70136 0.59547 0.36271 0.0
C1742 C 0.71254 0.6021 0.3757 0.0
C1743 C 0.68181 0.59258 0.3531 0.0
C1744 C 0.67447 0.5813 0.36356 0.0
C1745 C 0.67778 0.59811 0.32851 0.0
C1746 C 0.68508 0.61005 0.31667 0.0
C1747 C 0.69549 0.61362 0.29813 0.0
C1748 C 0.7026 0.62502 0.28941 0.0
C1749 C 0.69935 0.63291 0.29878 0.0
C1750 C 0.68892 0.6294 0.3164 0.0
C1751 C 0.68179 0.61803 0.32527 0.0
H1752 H 0.70491 0.64175 0.29249 0.0
H1753 H 0.63584 0.53407 0.40855 0.0
H1754 H 0.45358 0.07364 0.26666 0.0
H1755 H 0.44615 0.08557 0.29034 0.0
H1756 H 0.41448 0.05576 0.31781 0.0
H1757 H 0.42164 0.04399 0.29206 0.0
H1758 H 0.40961 0.06911 0.28701 0.0
H1759 H 0.436 0.07397 0.38857 0.0
H1760 H 0.45452 0.07895 0.41656 0.0
H1761 H 0.46838 0.11283 0.37423 0.0
H1762 H 0.44997 0.10801 0.34558 0.0
H1763 H 0.38471 0.08808 0.42146 0.0
H1764 H 0.39641 0.08059 0.39759 0.0
H1765 H 0.41866 0.11235 0.34202 0.0
H1766 H 0.40692 0.12001 0.36608 0.0
H1767 H 0.42953 0.10037 0.38189 0.0
H1768 H 0.40076 0.09415 0.2857 0.0
H1769 H 0.38091 0.0883 0.27149 0.0
H1770 H 0.37047 0.05511 0.315 0.0
H1771 H 0.39023 0.06082 0.33006 0.0
C1772 C 0.44506 0.06968 0.2779 0.0
C1773 C 0.43818 0.05789 0.27734 0.0
C1774 C 0.44081 0.0765 0.29166 0.0
C1775 C 0.42973 0.07163 0.30629 0.0
C1776 C 0.423 0.05981 0.30641 0.0
C1777 C 0.42713 0.05306 0.29179 0.0
C1778 C 0.42488 0.07864 0.32064 0.0
C1779 C 0.41403 0.0759 0.30787 0.0
C1780 C 0.43058 0.08769 0.34744 0.0
C1781 C 0.44165 0.09059 0.36452 0.0
C1782 C 0.44303 0.08246 0.38497 0.0
C1783 C 0.4535 0.08526 0.401 0.0
C1784 C 0.46263 0.09619 0.39706 0.0
C1785 C 0.46131 0.10436 0.37718 0.0
C1786 C 0.45086 0.1016 0.36105 0.0
C1787 C 0.39216 0.09356 0.40459 0.0
C1788 C 0.39481 0.10462 0.39535 0.0
C1789 C 0.39887 0.08926 0.39106 0.0
C1790 C 0.40836 0.09588 0.3678 0.0
C1791 C 0.41138 0.10711 0.36002 0.0
C1792 C 0.40464 0.11145 0.37362 0.0
C1793 C 0.41433 0.09058 0.34881 0.0
C1794 C 0.42531 0.09367 0.36055 0.0
C1795 C 0.40868 0.08167 0.3218 0.0
C1796 C 0.39696 0.07793 0.3092 0.0
C1797 C 0.39423 0.0856 0.2921 0.0
C1798 C 0.38299 0.08232 0.28405 0.0
C1799 C 0.37444 0.07137 0.29265 0.0
C1800 C 0.37711 0.06361 0.30852 0.0
C1801 C 0.38833 0.06685 0.31673 0.0
H1802 H 0.36572 0.0689 0.28709 0.0
H1803 H 0.47073 0.09834 0.4095 0.0
H1804 H 0.88473 0.28879 0.38441 0.0
H1805 H 0.89283 0.30854 0.36413 0.0
H1806 H 0.92591 0.312 0.36102 0.0
H1807 H 0.91797 0.29257 0.38255 0.0
H1808 H 0.92768 0.32951 0.39406 0.0
H1809 H 0.90917 0.30911 0.27622 0.0
H1810 H 0.893 0.29555 0.23649 0.0
H1811 H 0.87577 0.31385 0.26013 0.0
H1812 H 0.89179 0.32745 0.3004 0.0
H1813 H 0.95976 0.37563 0.27157 0.0
H1814 H 0.94814 0.35665 0.29729 0.0
H1815 H 0.92047 0.36282 0.31309 0.0
H1816 H 0.93216 0.38204 0.2872 0.0
H1817 H 0.91408 0.34136 0.27916 0.0
H1818 H 0.93437 0.36316 0.39077 0.0
H1819 H 0.95129 0.37686 0.42703 0.0
H1820 H 0.96589 0.35573 0.41215 0.0
H1821 H 0.94913 0.34199 0.37523 0.0
C1822 C 0.89372 0.29378 0.37928 0.0
C1823 C 0.9007 0.28911 0.38518 0.0
C1824 C 0.89835 0.30507 0.36752 0.0
C1825 C 0.91002 0.31183 0.36067 0.0
C1826 C 0.91692 0.30707 0.36628 0.0
C1827 C 0.91234 0.2959 0.37851 0.0
C1828 C 0.91522 0.32388 0.34823 0.0
C1829 C 0.92472 0.33204 0.36874 0.0
C1830 C 0.91123 0.32736 0.31591 0.0
C1831 C 0.90161 0.31921 0.29168 0.0
C1832 C 0.90189 0.31019 0.27318 0.0
C1833 C 0.89277 0.30251 0.25052 0.0
C1834 C 0.88335 0.30382 0.2459 0.0
C1835 C 0.88306 0.31283 0.26381 0.0
C1836 C 0.89216 0.32053 0.28653 0.0
C1837 C 0.9512 0.373 0.28045 0.0
C1838 C 0.94691 0.3804 0.27745 0.0
C1839 C 0.94457 0.36212 0.29526 0.0
C1840 C 0.93346 0.35833 0.30747 0.0
C1841 C 0.92903 0.36558 0.30391 0.0
C1842 C 0.93573 0.37657 0.28927 0.0
C1843 C 0.92668 0.3468 0.32429 0.0
C1844 C 0.91691 0.3388 0.30474 0.0
C1845 C 0.93048 0.34341 0.35724 0.0
C1846 C 0.94051 0.35157 0.38001 0.0
C1847 C 0.94121 0.36147 0.39502 0.0
C1848 C 0.95078 0.36923 0.41571 0.0
C1849 C 0.95967 0.36717 0.42184 0.0
C1850 C 0.959 0.35732 0.40738 0.0
C1851 C 0.94946 0.34953 0.3866 0.0
H1852 H 0.96707 0.3732 0.43785 0.0
H1853 H 0.87629 0.29786 0.22835 0.0
H1854 H 0.70855 0.08653 0.39036 0.0
H1855 H 0.68963 0.07942 0.3641 0.0
H1856 H 0.69573 0.11338 0.35413 0.0
H1857 H 0.71492 0.12066 0.38009 0.0
H1858 H 0.67348 0.09616 0.38848 0.0
H1859 H 0.69665 0.10294 0.27512 0.0
H1860 H 0.71127 0.10195 0.23621 0.0
H1861 H 0.69186 0.06579 0.23784 0.0
H1862 H 0.6772 0.06656 0.27731 0.0
H1863 H 0.62138 0.07338 0.2795 0.0
H1864 H 0.64086 0.08551 0.30213 0.0
H1865 H 0.64676 0.05748 0.29241 0.0
H1866 H 0.62761 0.04556 0.26886 0.0
H1867 H 0.66383 0.07498 0.26354 0.0
H1868 H 0.64216 0.06755 0.38226 0.0
H1869 H 0.62767 0.06755 0.42501 0.0
H1870 H 0.644 0.10361 0.4168 0.0
H1871 H 0.65852 0.10381 0.37358 0.0
C1872 C 0.7059 0.09252 0.38276 0.0
C1873 C 0.71327 0.10418 0.38722 0.0
C1874 C 0.69506 0.08843 0.36771 0.0
C1875 C 0.69128 0.09586 0.35704 0.0
C1876 C 0.69849 0.1075 0.36223 0.0
C1877 C 0.70945 0.11164 0.37689 0.0
C1878 C 0.67989 0.09129 0.33941 0.0
C1879 C 0.67138 0.09173 0.36075 0.0
C1880 C 0.67714 0.08531 0.30367 0.0
C1881 C 0.68586 0.08481 0.2794 0.0
C1882 C 0.69553 0.09478 0.26741 0.0
C1883 C 0.70383 0.09426 0.24523 0.0
C1884 C 0.70251 0.08382 0.23462 0.0
C1885 C 0.69288 0.07387 0.24609 0.0
C1886 C 0.68456 0.07435 0.26833 0.0
C1887 C 0.62685 0.06984 0.28225 0.0
C1888 C 0.62294 0.05852 0.27226 0.0
C1889 C 0.63798 0.07676 0.29534 0.0
C1890 C 0.64533 0.07242 0.29925 0.0
C1891 C 0.64135 0.06109 0.28946 0.0
C1892 C 0.63034 0.05425 0.27606 0.0
C1893 C 0.65721 0.07952 0.31308 0.0
C1894 C 0.66588 0.07956 0.29096 0.0
C1895 C 0.66005 0.08579 0.34837 0.0
C1896 C 0.65133 0.08568 0.3743 0.0
C1897 C 0.6426 0.07547 0.38932 0.0
C1898 C 0.6344 0.07543 0.41367 0.0
C1899 C 0.63489 0.08557 0.4235 0.0
C1900 C 0.64361 0.09577 0.40909 0.0
C1901 C 0.65183 0.09585 0.38467 0.0
H1902 H 0.62853 0.08553 0.44237 0.0
H1903 H 0.70894 0.08343 0.21746 0.0
H1904 H 0.89139 0.60489 0.33775 0.0
H1905 H 0.89978 0.59377 0.31487 0.0
H1906 H 0.92123 0.60389 0.41688 0.0
H1907 H 0.91344 0.61562 0.4379 0.0
H1908 H 0.93338 0.60551 0.36281 0.0
H1909 H 0.89701 0.57546 0.39808 0.0
H1910 H 0.87624 0.56433 0.39906 0.0
H1911 H 0.87579 0.5588 0.27543 0.0
H1912 H 0.89657 0.57002 0.27362 0.0
H1913 H 0.93613 0.55137 0.30572 0.0
H1914 H 0.9253 0.55966 0.33278 0.0
H1915 H 0.94548 0.5899 0.26576 0.0
H1916 H 0.95653 0.58187 0.24014 0.0
H1917 H 0.9122 0.56694 0.30741 0.0
H1918 H 0.95012 0.61295 0.31265 0.0
H1919 H 0.97074 0.62273 0.322 0.0
H1920 H 0.96767 0.59404 0.38367 0.0
H1921 H 0.94703 0.58416 0.3752 0.0
C1922 C 0.89781 0.60461 0.35538 0.0
C1923 C 0.90177 0.61111 0.38956 0.0
C1924 C 0.90258 0.59819 0.34244 0.0
C1925 C 0.91113 0.59782 0.3642 0.0
C1926 C 0.91475 0.60404 0.39915 0.0
C1927 C 0.91025 0.61071 0.41136 0.0
C1928 C 0.91683 0.59157 0.34975 0.0
C1929 C 0.92867 0.59705 0.35089 0.0
C1930 C 0.91083 0.58042 0.33473 0.0
C1931 C 0.89834 0.57367 0.33568 0.0
C1932 C 0.89248 0.57194 0.37106 0.0
C1933 C 0.8807 0.5656 0.37177 0.0
C1934 C 0.8747 0.56089 0.33731 0.0
C1935 C 0.88046 0.56247 0.30209 0.0
C1936 C 0.89223 0.5688 0.30121 0.0
C1937 C 0.93822 0.55977 0.29676 0.0
C1938 C 0.94728 0.56601 0.27118 0.0
C1939 C 0.932 0.5645 0.31215 0.0
C1940 C 0.93468 0.57553 0.30202 0.0
C1941 C 0.9434 0.58152 0.27501 0.0
C1942 C 0.94971 0.57689 0.26019 0.0
C1943 C 0.92866 0.58096 0.32026 0.0
C1944 C 0.91682 0.57536 0.31963 0.0
C1945 C 0.93462 0.59183 0.33735 0.0
C1946 C 0.94703 0.59778 0.34293 0.0
C1947 C 0.95384 0.60875 0.32834 0.0
C1948 C 0.96553 0.61431 0.33347 0.0
C1949 C 0.97051 0.609 0.35331 0.0
C1950 C 0.96381 0.59813 0.36819 0.0
C1951 C 0.95211 0.59254 0.3632 0.0
H1952 H 0.97957 0.61331 0.35721 0.0
H1953 H 0.86558 0.55599 0.33792 0.0
H1954 H 0.45605 0.38424 0.29556 0.0
H1955 H 0.4486 0.36517 0.32288 0.0
H1956 H 0.41481 0.35743 0.29433 0.0
H1957 H 0.4221 0.37622 0.26726 0.0
H1958 H 0.41642 0.35134 0.36921 0.0
H1959 H 0.42868 0.34762 0.23887 0.0
H1960 H 0.44296 0.35244 0.18734 0.0
H1961 H 0.46221 0.34364 0.26381 0.0
H1962 H 0.4481 0.3389 0.31597 0.0
H1963 H 0.38021 0.29344 0.37829 0.0
H1964 H 0.3918 0.31297 0.35783 0.0
H1965 H 0.42183 0.3108 0.37593 0.0
H1966 H 0.41008 0.29087 0.39444 0.0
H1967 H 0.425 0.32289 0.31498 0.0
H1968 H 0.41242 0.32461 0.44274 0.0
H1969 H 0.39891 0.32016 0.49671 0.0
H1970 H 0.38159 0.33349 0.43054 0.0
H1971 H 0.39489 0.33787 0.37593 0.0
C1972 C 0.44705 0.37844 0.29508 0.0
C1973 C 0.43969 0.38177 0.27917 0.0
C1974 C 0.4428 0.36754 0.3106 0.0
C1975 C 0.43112 0.35984 0.3106 0.0
C1976 C 0.42383 0.36321 0.2948 0.0
C1977 C 0.42804 0.37398 0.27917 0.0
C1978 C 0.42627 0.34827 0.32728 0.0
C1979 C 0.41825 0.3451 0.35724 0.0
C1980 C 0.42899 0.34024 0.31287 0.0
C1981 C 0.43741 0.34303 0.28143 0.0
C1982 C 0.436 0.3468 0.24479 0.0
C1983 C 0.44406 0.3495 0.21545 0.0
C1984 C 0.45351 0.34838 0.22234 0.0
C1985 C 0.4549 0.34453 0.25854 0.0
C1986 C 0.44688 0.34183 0.28798 0.0
C1987 C 0.38929 0.2971 0.37793 0.0
C1988 C 0.39423 0.29064 0.38838 0.0
C1989 C 0.39594 0.30834 0.36648 0.0
C1990 C 0.40777 0.31358 0.36644 0.0
C1991 C 0.41275 0.30704 0.37601 0.0
C1992 C 0.40603 0.29565 0.38665 0.0
C1993 C 0.41479 0.3258 0.35607 0.0
C1994 C 0.42324 0.32913 0.32747 0.0
C1995 C 0.41261 0.33407 0.37221 0.0
C1996 C 0.40462 0.33151 0.40512 0.0
C1997 C 0.40569 0.32654 0.4396 0.0
C1998 C 0.39807 0.32403 0.47032 0.0
C1999 C 0.38939 0.32652 0.46703 0.0
C2000 C 0.38832 0.33156 0.43305 0.0
C2001 C 0.39591 0.33407 0.40222 0.0
H2002 H 0.3835 0.32457 0.49083 0.0
H2003 H 0.45973 0.35048 0.19959 0.0
H2004 H 0.29004 0.88728 0.64022 0.0
H2005 H 0.30936 0.89501 0.66547 0.0
H2006 H 0.32029 0.92472 0.59484 0.0
H2007 H 0.30106 0.9173 0.57073 0.0
H2008 H 0.3316 0.90444 0.61663 0.0
H2009 H 0.32582 0.93887 0.64466 0.0
H2010 H 0.31382 0.94553 0.67469 0.0
H2011 H 0.3106 0.92644 0.77825 0.0
H2012 H 0.32208 0.91925 0.74793 0.0
H2013 H 0.38936 0.94305 0.66267 0.0
H2014 H 0.37005 0.93246 0.63755 0.0
H2015 H 0.35725 0.93166 0.7536 0.0
H2016 H 0.37655 0.9431 0.77759 0.0
H2017 H 0.34598 0.93612 0.71101 0.0
H2018 H 0.35579 0.90728 0.69869 0.0
H2019 H 0.36712 0.89875 0.67808 0.0
H2020 H 0.3622 0.90405 0.55774 0.0
H2021 H 0.35095 0.91273 0.57765 0.0
C2022 C 0.29658 0.89545 0.63008 0.0
C2023 C 0.294 0.90173 0.60377 0.0
C2024 C 0.3076 0.89986 0.64453 0.0
C2025 C 0.31621 0.91055 0.63264 0.0
C2026 C 0.31372 0.9166 0.60524 0.0
C2027 C 0.30273 0.91231 0.59131 0.0
C2028 C 0.32778 0.91554 0.64909 0.0
C2029 C 0.33483 0.91141 0.63712 0.0
C2030 C 0.33186 0.92438 0.67667 0.0
C2031 C 0.32453 0.92831 0.6937 0.0
C2032 C 0.32229 0.93588 0.6734 0.0
C2033 C 0.31559 0.93975 0.69049 0.0
C2034 C 0.31131 0.9363 0.72817 0.0
C2035 C 0.31373 0.92896 0.74881 0.0
C2036 C 0.32027 0.92492 0.7316 0.0
C2037 C 0.38238 0.94044 0.68277 0.0
C2038 C 0.3844 0.94381 0.72205 0.0
C2039 C 0.37131 0.93431 0.66849 0.0
C2040 C 0.36202 0.93103 0.6936 0.0
C2041 C 0.36415 0.93408 0.73331 0.0
C2042 C 0.3752 0.94056 0.74718 0.0
C2043 C 0.35015 0.92519 0.67838 0.0
C2044 C 0.34294 0.92915 0.69057 0.0
C2045 C 0.3459 0.91601 0.65174 0.0
C2046 C 0.35261 0.91074 0.63969 0.0
C2047 C 0.35718 0.90668 0.66785 0.0
C2048 C 0.36358 0.90182 0.65629 0.0
C2049 C 0.3654 0.90088 0.61663 0.0
C2050 C 0.36079 0.90479 0.58845 0.0
C2051 C 0.35439 0.90967 0.59985 0.0
H2052 H 0.37036 0.89712 0.60774 0.0
H2053 H 0.3062 0.93938 0.7415 0.0
H2054 H 0.0768 0.45555 0.72678 0.0
H2055 H 0.08861 0.44779 0.70468 0.0
H2056 H 0.05876 0.41525 0.68872 0.0
H2057 H 0.04715 0.42279 0.71274 0.0
H2058 H 0.07303 0.41163 0.71957 0.0
H2059 H 0.07519 0.43493 0.61079 0.0
H2060 H 0.07925 0.45255 0.57759 0.0
H2061 H 0.11398 0.46793 0.61216 0.0
H2062 H 0.11009 0.45043 0.64597 0.0
H2063 H 0.08951 0.3835 0.58897 0.0
H2064 H 0.0821 0.39518 0.61359 0.0
H2065 H 0.11532 0.4201 0.65243 0.0
H2066 H 0.12291 0.40837 0.62743 0.0
H2067 H 0.10198 0.42911 0.61571 0.0
H2068 H 0.09853 0.40306 0.71771 0.0
H2069 H 0.09313 0.38388 0.73991 0.0
H2070 H 0.05868 0.37229 0.70877 0.0
H2071 H 0.0639 0.39134 0.68566 0.0
C2072 C 0.07281 0.44675 0.7185 0.0
C2073 C 0.06106 0.43978 0.72167 0.0
C2074 C 0.07955 0.44232 0.70562 0.0
C2075 C 0.07463 0.4309 0.69456 0.0
C2076 C 0.06286 0.42404 0.6973 0.0
C2077 C 0.05619 0.42838 0.71097 0.0
C2078 C 0.08155 0.42588 0.68081 0.0
C2079 C 0.0793 0.41549 0.6967 0.0
C2080 C 0.08997 0.43091 0.6515 0.0
C2081 C 0.09232 0.44143 0.63131 0.0
C2082 C 0.08367 0.4421 0.61157 0.0
C2083 C 0.08594 0.45206 0.5926 0.0
C2084 C 0.09686 0.46136 0.59288 0.0
C2085 C 0.10552 0.46072 0.61205 0.0
C2086 C 0.10329 0.45079 0.6311 0.0
C2087 C 0.09531 0.3915 0.60246 0.0
C2088 C 0.10681 0.39494 0.60653 0.0
C2089 C 0.09104 0.39818 0.61651 0.0
C2090 C 0.09812 0.40846 0.63525 0.0
C2091 C 0.1097 0.41218 0.6381 0.0
C2092 C 0.11401 0.40546 0.62396 0.0
C2093 C 0.09314 0.41482 0.65375 0.0
C2094 C 0.0958 0.42542 0.63896 0.0
C2095 C 0.08488 0.40987 0.68337 0.0
C2096 C 0.08162 0.39862 0.69975 0.0
C2097 C 0.0898 0.39642 0.71561 0.0
C2098 C 0.08678 0.38557 0.72828 0.0
C2099 C 0.07558 0.37687 0.72559 0.0
C2100 C 0.06735 0.37904 0.71076 0.0
C2101 C 0.07033 0.38986 0.69791 0.0
H2102 H 0.07327 0.36844 0.73483 0.0
H2103 H 0.0986 0.46906 0.57817 0.0
H2104 H 0.55233 0.6226 0.72474 0.0
H2105 H 0.56022 0.6419 0.70016 0.0
H2106 H 0.59262 0.64416 0.6861 0.0
H2107 H 0.58492 0.62522 0.71266 0.0
H2108 H 0.59641 0.66257 0.71361 0.0
H2109 H 0.5732 0.64013 0.60718 0.0
H2110 H 0.55572 0.62602 0.57453 0.0
H2111 H 0.53977 0.64519 0.60407 0.0
H2112 H 0.55712 0.65936 0.63731 0.0
H2113 H 0.62326 0.70577 0.57692 0.0
H2114 H 0.6116 0.68674 0.60214 0.0
H2115 H 0.58763 0.69565 0.64624 0.0
H2116 H 0.59936 0.71493 0.62095 0.0
H2117 H 0.57834 0.67262 0.60752 0.0
H2118 H 0.60437 0.69633 0.7086 0.0
H2119 H 0.6236 0.71073 0.72823 0.0
H2120 H 0.6358 0.68831 0.69815 0.0
H2121 H 0.61669 0.67387 0.67744 0.0
C2122 C 0.56113 0.62724 0.71636 0.0
C2123 C 0.56801 0.62241 0.72071 0.0
C2124 C 0.56564 0.63827 0.70206 0.0
C2125 C 0.57703 0.64454 0.69071 0.0
C2126 C 0.58384 0.63961 0.69481 0.0
C2127 C 0.57941 0.62873 0.70991 0.0
C2128 C 0.58202 0.65628 0.67511 0.0
C2129 C 0.59241 0.66467 0.69031 0.0
C2130 C 0.57685 0.65924 0.64498 0.0
C2131 C 0.5664 0.65073 0.62514 0.0
C2132 C 0.56593 0.64129 0.60698 0.0
C2133 C 0.55606 0.63329 0.58832 0.0
C2134 C 0.54663 0.63469 0.58734 0.0
C2135 C 0.54707 0.6441 0.60493 0.0
C2136 C 0.55692 0.65212 0.62367 0.0
C2137 C 0.61546 0.70371 0.59159 0.0
C2138 C 0.6123 0.71192 0.59723 0.0
C2139 C 0.60879 0.69279 0.6059 0.0
C2140 C 0.5988 0.68981 0.62626 0.0
C2141 C 0.59531 0.6978 0.63052 0.0
C2142 C 0.60204 0.70881 0.61623 0.0
C2143 C 0.59267 0.67863 0.6457 0.0
C2144 C 0.58213 0.67043 0.63128 0.0
C2145 C 0.59782 0.67573 0.6758 0.0
C2146 C 0.60911 0.68405 0.69125 0.0
C2147 C 0.61115 0.69447 0.70617 0.0
C2148 C 0.62204 0.70265 0.71736 0.0
C2149 C 0.63093 0.70045 0.71422 0.0
C2150 C 0.62892 0.69001 0.70043 0.0
C2151 C 0.61805 0.68182 0.689 0.0
H2152 H 0.63937 0.70684 0.72254 0.0
H2153 H 0.53899 0.62848 0.57287 0.0
H2154 H 0.37757 0.41944 0.72866 0.0
H2155 H 0.35854 0.41208 0.70289 0.0
H2156 H 0.3649 0.44596 0.68636 0.0
H2157 H 0.38413 0.45345 0.71192 0.0
H2158 H 0.34302 0.43028 0.72079 0.0
H2159 H 0.36577 0.43346 0.60985 0.0
H2160 H 0.37994 0.43088 0.57414 0.0
H2161 H 0.3591 0.39495 0.58413 0.0
H2162 H 0.34488 0.39732 0.62054 0.0
H2163 H 0.29125 0.40803 0.61105 0.0
H2164 H 0.31087 0.4196 0.63311 0.0
H2165 H 0.31462 0.39014 0.63225 0.0
H2166 H 0.29535 0.37877 0.609 0.0
H2167 H 0.33233 0.40637 0.60194 0.0
H2168 H 0.31088 0.40274 0.71873 0.0
H2169 H 0.29691 0.40467 0.75842 0.0
H2170 H 0.31513 0.44049 0.74053 0.0
H2171 H 0.32914 0.43875 0.70033 0.0
C2172 C 0.37494 0.42536 0.71976 0.0
C2173 C 0.3824 0.43704 0.72223 0.0
C2174 C 0.36405 0.42112 0.70496 0.0
C2175 C 0.36032 0.42846 0.69247 0.0
C2176 C 0.36762 0.44015 0.69584 0.0
C2177 C 0.3786 0.44441 0.7103 0.0
C2178 C 0.34891 0.42379 0.67486 0.0
C2179 C 0.3407 0.42521 0.69439 0.0
C2180 C 0.34586 0.41705 0.64081 0.0
C2181 C 0.35429 0.41558 0.61818 0.0
C2182 C 0.36424 0.42501 0.60466 0.0
C2183 C 0.37228 0.42358 0.58427 0.0
C2184 C 0.37043 0.41276 0.57693 0.0
C2185 C 0.36052 0.40333 0.58986 0.0
C2186 C 0.35246 0.40471 0.61034 0.0
C2187 C 0.29629 0.40405 0.61564 0.0
C2188 C 0.29174 0.39248 0.60818 0.0
C2189 C 0.3075 0.41066 0.62842 0.0
C2190 C 0.31428 0.40576 0.63471 0.0
C2191 C 0.30966 0.39419 0.62745 0.0
C2192 C 0.29858 0.38766 0.61423 0.0
C2193 C 0.32622 0.41252 0.64848 0.0
C2194 C 0.3346 0.41153 0.62809 0.0
C2195 C 0.32937 0.41955 0.68199 0.0
C2196 C 0.32097 0.4206 0.70616 0.0
C2197 C 0.31185 0.41102 0.72302 0.0
C2198 C 0.30394 0.41208 0.74565 0.0
C2199 C 0.30511 0.42269 0.75189 0.0
C2200 C 0.31422 0.43227 0.73561 0.0
C2201 C 0.32215 0.43126 0.71292 0.0
H2202 H 0.29898 0.42349 0.76942 0.0
H2203 H 0.37667 0.41167 0.56118 0.0
H2204 H 0.60142 0.88356 0.61474 0.0
H2205 H 0.58979 0.89125 0.63959 0.0
H2206 H 0.61876 0.92473 0.63694 0.0
H2207 H 0.63032 0.91719 0.6118 0.0
H2208 H 0.60663 0.9195 0.70754 0.0
H2209 H 0.59953 0.917 0.56768 0.0
H2210 H 0.59315 0.90688 0.50494 0.0
H2211 H 0.56025 0.88537 0.55325 0.0
H2212 H 0.56649 0.89528 0.61647 0.0
H2213 H 0.58838 0.95837 0.72373 0.0
H2214 H 0.59619 0.94678 0.70237 0.0
H2215 H 0.56265 0.91808 0.69189 0.0
H2216 H 0.55469 0.92991 0.71203 0.0
H2217 H 0.57483 0.918 0.63312 0.0
H2218 H 0.58063 0.92102 0.77012 0.0
H2219 H 0.58638 0.93033 0.83439 0.0
H2220 H 0.62072 0.94929 0.79543 0.0
H2221 H 0.61515 0.94023 0.7307 0.0
C2222 C 0.60529 0.89255 0.61943 0.0
C2223 C 0.6168 0.89976 0.61121 0.0
C2224 C 0.59863 0.89694 0.63352 0.0
C2225 C 0.6034 0.90858 0.64004 0.0
C2226 C 0.61489 0.91573 0.63218 0.0
C2227 C 0.62149 0.91139 0.61766 0.0
C2228 C 0.59657 0.91345 0.65543 0.0
C2229 C 0.59972 0.91923 0.69118 0.0
C2230 C 0.58725 0.91272 0.6349 0.0
C2231 C 0.58352 0.90678 0.59692 0.0
C2232 C 0.59097 0.91004 0.56503 0.0
C2233 C 0.58737 0.90436 0.52936 0.0
C2234 C 0.57631 0.89546 0.52515 0.0
C2235 C 0.56882 0.89225 0.55657 0.0
C2236 C 0.57238 0.8979 0.59232 0.0
C2237 C 0.58262 0.94958 0.71703 0.0
C2238 C 0.5709 0.94504 0.72001 0.0
C2239 C 0.58713 0.94292 0.70497 0.0
C2240 C 0.58007 0.93143 0.69642 0.0
C2241 C 0.56831 0.92689 0.69861 0.0
C2242 C 0.56376 0.93364 0.71021 0.0
C2243 C 0.58511 0.92438 0.68484 0.0
C2244 C 0.58163 0.91816 0.64988 0.0
C2245 C 0.59403 0.92454 0.70646 0.0
C2246 C 0.59745 0.92999 0.74544 0.0
C2247 C 0.58939 0.92723 0.77516 0.0
C2248 C 0.59263 0.93246 0.81169 0.0
C2249 C 0.60391 0.94041 0.81897 0.0
C2250 C 0.61199 0.94313 0.78974 0.0
C2251 C 0.6088 0.93794 0.75314 0.0
H2252 H 0.60639 0.94445 0.84727 0.0
H2253 H 0.57354 0.89108 0.49751 0.0
H2254 H 0.05124 0.6323 0.74223 0.0
H2255 H 0.06289 0.65142 0.71795 0.0
H2256 H 0.08696 0.64274 0.67303 0.0
H2257 H 0.07528 0.62339 0.69783 0.0
H2258 H 0.09694 0.66468 0.70953 0.0
H2259 H 0.0689 0.64325 0.6116 0.0
H2260 H 0.04936 0.63021 0.59066 0.0
H2261 H 0.03937 0.65377 0.62894 0.0
H2262 H 0.0588 0.66686 0.65082 0.0
H2263 H 0.12297 0.71649 0.59971 0.0
H2264 H 0.11489 0.69685 0.62117 0.0
H2265 H 0.08355 0.69574 0.6481 0.0
H2266 H 0.09138 0.71501 0.62472 0.0
H2267 H 0.07854 0.67767 0.61446 0.0
H2268 H 0.1044 0.6978 0.71945 0.0
H2269 H 0.12289 0.71071 0.74901 0.0
H2270 H 0.13608 0.69027 0.70506 0.0
H2271 H 0.11769 0.6773 0.67483 0.0
C2272 C 0.05904 0.63441 0.72743 0.0
C2273 C 0.06226 0.62625 0.72165 0.0
C2274 C 0.0657 0.64539 0.71354 0.0
C2275 C 0.07572 0.64849 0.69315 0.0
C2276 C 0.07924 0.64052 0.68858 0.0
C2277 C 0.07255 0.62946 0.70264 0.0
C2278 C 0.08207 0.65991 0.67519 0.0
C2279 C 0.09303 0.66749 0.68819 0.0
C2280 C 0.07686 0.66365 0.64801 0.0
C2281 C 0.0653 0.65601 0.63305 0.0
C2282 C 0.06253 0.64564 0.61562 0.0
C2283 C 0.05147 0.63823 0.60363 0.0
C2284 C 0.04313 0.64115 0.60858 0.0
C2285 C 0.04585 0.65152 0.62517 0.0
C2286 C 0.05688 0.65894 0.63734 0.0
C2287 C 0.11437 0.71203 0.61038 0.0
C2288 C 0.1078 0.71728 0.61043 0.0
C2289 C 0.10976 0.70081 0.62287 0.0
C2290 C 0.09859 0.69473 0.63673 0.0
C2291 C 0.09214 0.70012 0.63734 0.0
C2292 C 0.09665 0.71119 0.62407 0.0
C2293 C 0.09337 0.6827 0.64969 0.0
C2294 C 0.08259 0.67492 0.63549 0.0
C2295 C 0.09867 0.67888 0.67637 0.0
C2296 C 0.10972 0.68666 0.6945 0.0
C2297 C 0.11127 0.69611 0.71584 0.0
C2298 C 0.12173 0.70342 0.73276 0.0
C2299 C 0.13067 0.70133 0.7288 0.0
C2300 C 0.12916 0.69189 0.70802 0.0
C2301 C 0.11872 0.68455 0.69102 0.0
H2302 H 0.13876 0.707 0.74193 0.0
H2303 H 0.03455 0.63538 0.59965 0.0
H2304 H 0.08841 0.34118 0.6712 0.0
H2305 H 0.08464 0.33455 0.73885 0.0
H2306 H 0.11698 0.36222 0.77355 0.0
H2307 H 0.12067 0.3691 0.70581 0.0
H2308 H 0.11275 0.3393 0.78838 0.0
H2309 H 0.09671 0.36281 0.81309 0.0
H2310 H 0.08431 0.37082 0.80308 0.0
H2311 H 0.05516 0.33777 0.81148 0.0
H2312 H 0.06741 0.32956 0.82173 0.0
H2313 H 0.1109 0.33169 0.99164 0.0
H2314 H 0.11227 0.33837 0.92495 0.0
H2315 H 0.07799 0.31225 0.90294 0.0
H2316 H 0.07651 0.30545 0.97038 0.0
H2317 H 0.08239 0.33365 0.88047 0.0
H2318 H 0.0984 0.31024 0.86021 0.0
H2319 H 0.11079 0.30238 0.87328 0.0
H2320 H 0.13996 0.33499 0.85558 0.0
H2321 H 0.12775 0.3431 0.84296 0.0
C2322 C 0.09457 0.34603 0.6935 0.0
C2323 C 0.10485 0.35561 0.68346 0.0
C2324 C 0.0924 0.34225 0.73205 0.0
C2325 C 0.10055 0.34789 0.76099 0.0
C2326 C 0.11059 0.3578 0.75147 0.0
C2327 C 0.11266 0.36174 0.71295 0.0
C2328 C 0.09917 0.34256 0.7996 0.0
C2329 C 0.10624 0.33822 0.80887 0.0
C2330 C 0.09036 0.34074 0.8253 0.0
C2331 C 0.08298 0.34556 0.81772 0.0
C2332 C 0.08766 0.35724 0.81234 0.0
C2333 C 0.08066 0.36182 0.80684 0.0
C2334 C 0.06895 0.3548 0.80648 0.0
C2335 C 0.06423 0.34319 0.81171 0.0
C2336 C 0.07119 0.33857 0.8175 0.0
C2337 C 0.10366 0.32727 0.97258 0.0
C2338 C 0.09357 0.31806 0.98627 0.0
C2339 C 0.10449 0.33108 0.93439 0.0
C2340 C 0.09525 0.32578 0.90903 0.0
C2341 C 0.08521 0.31643 0.92218 0.0
C2342 C 0.08441 0.31251 0.96051 0.0
C2343 C 0.09607 0.33052 0.86955 0.0
C2344 C 0.08887 0.33468 0.85995 0.0
C2345 C 0.10474 0.33213 0.84339 0.0
C2346 C 0.11214 0.3273 0.85096 0.0
C2347 C 0.10745 0.31576 0.85944 0.0
C2348 C 0.11445 0.31125 0.8667 0.0
C2349 C 0.12616 0.31818 0.86535 0.0
C2350 C 0.13089 0.32963 0.85665 0.0
C2351 C 0.12394 0.33419 0.84939 0.0
H2352 H 0.13156 0.31467 0.87097 0.0
H2353 H 0.06354 0.35837 0.80222 0.0
H2354 H 0.7017 0.77151 0.96434 0.0
H2355 H 0.69525 0.76436 0.89795 0.0
H2356 H 0.66517 0.76639 0.9168 0.0
H2357 H 0.6714 0.77331 0.98265 0.0
H2358 H 0.66004 0.74645 0.88686 0.0
H2359 H 0.68708 0.78572 0.86069 0.0
H2360 H 0.70588 0.80281 0.86246 0.0
H2361 H 0.71986 0.78542 0.80025 0.0
H2362 H 0.70115 0.76818 0.79855 0.0
H2363 H 0.63854 0.74706 0.69916 0.0
H2364 H 0.64536 0.74869 0.76617 0.0
H2365 H 0.67447 0.74752 0.72408 0.0
H2366 H 0.66791 0.74639 0.65706 0.0
H2367 H 0.68118 0.76506 0.76622 0.0
H2368 H 0.65431 0.72577 0.79201 0.0
H2369 H 0.63581 0.70827 0.79389 0.0
H2370 H 0.62158 0.72554 0.85514 0.0
H2371 H 0.6401 0.74303 0.85499 0.0
C2372 C 0.69378 0.77054 0.95407 0.0
C2373 C 0.68702 0.7729 0.97879 0.0
C2374 C 0.6901 0.76644 0.91624 0.0
C2375 C 0.6797 0.7648 0.9026 0.0
C2376 C 0.67315 0.76747 0.92691 0.0
C2377 C 0.67676 0.77146 0.96454 0.0
C2378 C 0.67539 0.76014 0.8633 0.0
C2379 C 0.66464 0.75053 0.86041 0.0
C2380 C 0.68153 0.76526 0.82892 0.0
C2381 C 0.69276 0.77563 0.82991 0.0
C2382 C 0.69419 0.78552 0.84768 0.0
C2383 C 0.70482 0.79523 0.84861 0.0
C2384 C 0.71407 0.79519 0.8316 0.0
C2385 C 0.71269 0.78544 0.8135 0.0
C2386 C 0.70208 0.77569 0.81252 0.0
C2387 C 0.64623 0.74685 0.70438 0.0
C2388 C 0.65279 0.74677 0.67303 0.0
C2389 C 0.65011 0.74771 0.74273 0.0
C2390 C 0.66045 0.74822 0.75027 0.0
C2391 C 0.66652 0.74722 0.71902 0.0
C2392 C 0.66276 0.74658 0.68075 0.0
C2393 C 0.6657 0.75141 0.78957 0.0
C2394 C 0.67664 0.76079 0.79254 0.0
C2395 C 0.65974 0.74607 0.82403 0.0
C2396 C 0.64854 0.73571 0.82313 0.0
C2397 C 0.64721 0.72584 0.80562 0.0
C2398 C 0.63674 0.71592 0.80652 0.0
C2399 C 0.62749 0.71583 0.8241 0.0
C2400 C 0.62874 0.72563 0.84138 0.0
C2401 C 0.63924 0.73552 0.84122 0.0
H2402 H 0.61939 0.70815 0.82453 0.0
H2403 H 0.72229 0.80272 0.83234 0.0
H2404 H 0.23408 0.93169 0.96552 0.0
H2405 H 0.24029 0.9313 0.89847 0.0
H2406 H 0.23538 0.89805 0.91873 0.0
H2407 H 0.22941 0.89845 0.98527 0.0
H2408 H 0.25555 0.91153 0.88707 0.0
H2409 H 0.21685 0.9025 0.86358 0.0
H2410 H 0.20105 0.90628 0.86648 0.0
H2411 H 0.22052 0.93699 0.80215 0.0
H2412 H 0.23648 0.93344 0.79928 0.0
H2413 H 0.25426 0.88895 0.69964 0.0
H2414 H 0.2514 0.89358 0.7662 0.0
H2415 H 0.25483 0.92493 0.72482 0.0
H2416 H 0.25711 0.92002 0.65818 0.0
H2417 H 0.23725 0.91515 0.76732 0.0
H2418 H 0.27502 0.9232 0.78302 0.0
H2419 H 0.29078 0.91952 0.77835 0.0
H2420 H 0.27408 0.89171 0.85776 0.0
H2421 H 0.25796 0.89498 0.86192 0.0
C2422 C 0.23418 0.92425 0.95537 0.0
C2423 C 0.23133 0.91513 0.98065 0.0
C2424 C 0.23775 0.92405 0.91718 0.0
C2425 C 0.23834 0.91466 0.90376 0.0
C2426 C 0.23512 0.90543 0.92864 0.0
C2427 C 0.23167 0.90566 0.96664 0.0
C2428 C 0.24252 0.91435 0.86417 0.0
C2429 C 0.25152 0.91225 0.86081 0.0
C2430 C 0.23751 0.91569 0.83004 0.0
C2431 C 0.22789 0.91777 0.83159 0.0
C2432 C 0.21778 0.91009 0.8503 0.0
C2433 C 0.20879 0.91219 0.85189 0.0
C2434 C 0.20979 0.92188 0.83461 0.0
C2435 C 0.21976 0.92949 0.81558 0.0
C2436 C 0.22878 0.92744 0.81394 0.0
C2437 C 0.25465 0.89692 0.70503 0.0
C2438 C 0.25587 0.90412 0.67399 0.0
C2439 C 0.25302 0.89959 0.74302 0.0
C2440 C 0.25294 0.90965 0.7506 0.0
C2441 C 0.25477 0.91709 0.71971 0.0
C2442 C 0.25614 0.91432 0.68173 0.0
C2443 C 0.25014 0.91203 0.79004 0.0
C2444 C 0.24142 0.91456 0.79343 0.0
C2445 C 0.25546 0.91115 0.82422 0.0
C2446 C 0.26524 0.90929 0.82254 0.0
C2447 C 0.27466 0.91625 0.79932 0.0
C2448 C 0.28367 0.91423 0.79677 0.0
C2449 C 0.28348 0.90541 0.81782 0.0
C2450 C 0.27423 0.89855 0.84147 0.0
C2451 C 0.26514 0.90047 0.84389 0.0
H2452 H 0.29048 0.90388 0.81578 0.0
H2453 H 0.20282 0.92349 0.83588 0.0
H2454 H 0.30459 0.07257 0.02924 0.0
H2455 H 0.31065 0.07181 0.09612 0.0
H2456 H 0.34419 0.09871 0.06902 0.0
H2457 H 0.33835 0.09947 0.0028 0.0
H2458 H 0.34511 0.08247 0.10881 0.0
H2459 H 0.32569 0.10371 0.11897 0.0
H2460 H 0.3095 0.10676 0.11183 0.0
H2461 H 0.28956 0.07831 0.1859 0.0
H2462 H 0.30561 0.075 0.19306 0.0
H2463 H 0.36885 0.10913 0.29125 0.0
H2464 H 0.36197 0.10274 0.2248 0.0
H2465 H 0.33039 0.07648 0.27118 0.0
H2466 H 0.3371 0.0829 0.33729 0.0
H2467 H 0.32707 0.08951 0.22257 0.0
H2468 H 0.34654 0.06822 0.21225 0.0
H2469 H 0.36255 0.06479 0.21674 0.0
H2470 H 0.38262 0.09385 0.14538 0.0
H2471 H 0.36656 0.09719 0.13923 0.0
C2472 C 0.31324 0.07833 0.03763 0.0
C2473 C 0.32096 0.08608 0.01063 0.0
C2474 C 0.31669 0.07787 0.07577 0.0
C2475 C 0.32788 0.08522 0.08746 0.0
C2476 C 0.33556 0.09291 0.06053 0.0
C2477 C 0.33215 0.09335 0.02264 0.0
C2478 C 0.33169 0.08525 0.12792 0.0
C2479 C 0.34118 0.08403 0.13372 0.0
C2480 C 0.32644 0.08705 0.16044 0.0
C2481 C 0.31679 0.08902 0.15613 0.0
C2482 C 0.31782 0.09805 0.13345 0.0
C2483 C 0.30868 0.09983 0.12945 0.0
C2484 C 0.29849 0.09271 0.14829 0.0
C2485 C 0.29745 0.0838 0.17125 0.0
C2486 C 0.30656 0.08197 0.1753 0.0
C2487 C 0.36056 0.10182 0.28726 0.0
C2488 C 0.35343 0.09667 0.31938 0.0
C2489 C 0.35665 0.09812 0.24929 0.0
C2490 C 0.34563 0.08915 0.24306 0.0
C2491 C 0.33888 0.08346 0.27531 0.0
C2492 C 0.34273 0.08718 0.31307 0.0
C2493 C 0.34056 0.08682 0.20352 0.0
C2494 C 0.33087 0.0877 0.19784 0.0
C2495 C 0.34565 0.08476 0.17114 0.0
C2496 C 0.35541 0.08301 0.17561 0.0
C2497 C 0.35439 0.07391 0.19774 0.0
C2498 C 0.36345 0.07196 0.20042 0.0
C2499 C 0.37364 0.07918 0.18179 0.0
C2500 C 0.37474 0.08829 0.15992 0.0
C2501 C 0.36563 0.09015 0.15653 0.0
H2502 H 0.38067 0.07769 0.18416 0.0
H2503 H 0.29143 0.09411 0.14518 0.0
H2504 H 0.90047 0.26464 0.29798 0.0
H2505 H 0.90741 0.26515 0.23139 0.0
H2506 H 0.90424 0.23252 0.24949 0.0
H2507 H 0.89748 0.23199 0.31547 0.0
H2508 H 0.92462 0.24736 0.22025 0.0
H2509 H 0.88537 0.23576 0.1937 0.0
H2510 H 0.86865 0.2381 0.19556 0.0
H2511 H 0.88683 0.2694 0.13343 0.0
H2512 H 0.9037 0.2673 0.1316 0.0
H2513 H 0.92416 0.22488 0.03361 0.0
H2514 H 0.92223 0.23012 0.1003 0.0
H2515 H 0.92359 0.26037 0.05691 0.0
H2516 H 0.92503 0.2549 0.99027 0.0
H2517 H 0.90613 0.24991 0.09929 0.0
H2518 H 0.94514 0.26207 0.12428 0.0
H2519 H 0.96268 0.26119 0.12604 0.0
H2520 H 0.9458 0.23011 0.18992 0.0
H2521 H 0.92824 0.231 0.18972 0.0
C2522 C 0.90113 0.25753 0.28748 0.0
C2523 C 0.89851 0.24832 0.31205 0.0
C2524 C 0.90511 0.25784 0.24955 0.0
C2525 C 0.9064 0.24889 0.23569 0.0
C2526 C 0.90344 0.23957 0.25979 0.0
C2527 C 0.89954 0.23927 0.29749 0.0
C2528 C 0.91104 0.24916 0.19645 0.0
C2529 C 0.92056 0.24787 0.19373 0.0
C2530 C 0.90598 0.25023 0.162 0.0
C2531 C 0.89582 0.25144 0.1629 0.0
C2532 C 0.88582 0.24318 0.1807 0.0
C2533 C 0.87632 0.24445 0.18169 0.0
C2534 C 0.87669 0.25391 0.16473 0.0
C2535 C 0.88656 0.26209 0.14661 0.0
C2536 C 0.89609 0.26086 0.14556 0.0
C2537 C 0.92432 0.23277 0.0385 0.0
C2538 C 0.92458 0.23941 0.00687 0.0
C2539 C 0.92329 0.23582 0.07665 0.0
C2540 C 0.92277 0.24567 0.08372 0.0
C2541 C 0.92387 0.25269 0.05222 0.0
C2542 C 0.9247 0.24956 0.01417 0.0
C2543 C 0.91963 0.24788 0.12287 0.0
C2544 C 0.91036 0.24961 0.12566 0.0
C2545 C 0.92498 0.24732 0.15742 0.0
C2546 C 0.93537 0.24655 0.15663 0.0
C2547 C 0.94516 0.25501 0.13845 0.0
C2548 C 0.95511 0.25453 0.1393 0.0
C2549 C 0.95533 0.24553 0.15761 0.0
C2550 C 0.94562 0.23706 0.17561 0.0
C2551 C 0.93569 0.23759 0.17543 0.0
H2552 H 0.96303 0.24516 0.15803 0.0
H2553 H 0.86933 0.25488 0.16555 0.0
H2554 H 0.7525 0.66745 0.33089 0.0
H2555 H 0.75301 0.67348 0.26353 0.0
H2556 H 0.75055 0.64256 0.2223 0.0
H2557 H 0.74992 0.6364 0.29011 0.0
H2558 H 0.76929 0.6619 0.19439 0.0
H2559 H 0.72939 0.64675 0.19737 0.0
H2560 H 0.71105 0.64315 0.2227 0.0
H2561 H 0.72298 0.67871 0.2242 0.0
H2562 H 0.74136 0.6825 0.19802 0.0
H2563 H 0.76413 0.66799 0.99483 0.0
H2564 H 0.75934 0.66169 0.06177 0.0
H2565 H 0.76736 0.69509 0.0971 0.0
H2566 H 0.77237 0.70168 0.02922 0.0
H2567 H 0.74584 0.67524 0.12843 0.0
H2568 H 0.78574 0.68968 0.11888 0.0
H2569 H 0.80308 0.69203 0.08833 0.0
H2570 H 0.79053 0.65646 0.09839 0.0
H2571 H 0.77302 0.65387 0.12844 0.0
C2572 C 0.75183 0.66183 0.30747 0.0
C2573 C 0.75131 0.65152 0.31562 0.0
C2574 C 0.75204 0.66525 0.26902 0.0
C2575 C 0.75183 0.65847 0.23802 0.0
C2576 C 0.7507 0.64789 0.24597 0.0
C2577 C 0.75031 0.64437 0.28459 0.0
C2578 C 0.75424 0.66313 0.19799 0.0
C2579 C 0.76407 0.66465 0.17972 0.0
C2580 C 0.74764 0.66707 0.17955 0.0
C2581 C 0.73676 0.66491 0.19619 0.0
C2582 C 0.72813 0.65381 0.20344 0.0
C2583 C 0.71772 0.65173 0.2178 0.0
C2584 C 0.71588 0.6607 0.22547 0.0
C2585 C 0.72443 0.67177 0.21838 0.0
C2586 C 0.73482 0.67389 0.20356 0.0
C2587 C 0.76484 0.67407 0.0165 0.0
C2588 C 0.76872 0.6854 0.00654 0.0
C2589 C 0.76209 0.67041 0.05485 0.0
C2590 C 0.76309 0.67795 0.0842 0.0
C2591 C 0.76657 0.68918 0.07459 0.0
C2592 C 0.76946 0.69293 0.03595 0.0
C2593 C 0.76083 0.67393 0.12494 0.0
C2594 C 0.75108 0.67255 0.14332 0.0
C2595 C 0.76747 0.67004 0.14345 0.0
C2596 C 0.77802 0.67157 0.12559 0.0
C2597 C 0.78663 0.68234 0.11425 0.0
C2598 C 0.7965 0.68372 0.09709 0.0
C2599 C 0.7979 0.6744 0.09134 0.0
C2600 C 0.78944 0.66368 0.10283 0.0
C2601 C 0.77954 0.66225 0.11996 0.0
H2602 H 0.80555 0.67548 0.07805 0.0
H2603 H 0.70781 0.65906 0.23671 0.0
H2604 H 0.90197 0.67197 0.00631 0.0
H2605 H 0.90178 0.6667 0.07404 0.0
H2606 H 0.93391 0.69674 0.09314 0.0
H2607 H 0.9342 0.70219 0.02435 0.0
H2608 H 0.93209 0.67622 0.12348 0.0
H2609 H 0.91281 0.69683 0.13098 0.0
H2610 H 0.8993 0.70282 0.11136 0.0
H2611 H 0.87174 0.6694 0.13225 0.0
H2612 H 0.88509 0.66314 0.15134 0.0
H2613 H 0.92219 0.66752 0.33255 0.0
H2614 H 0.92707 0.67497 0.26608 0.0
H2615 H 0.8967 0.64625 0.22282 0.0
H2616 H 0.89187 0.6386 0.28934 0.0
H2617 H 0.89954 0.66854 0.20779 0.0
H2618 H 0.91932 0.64791 0.19588 0.0
H2619 H 0.93306 0.64218 0.21528 0.0
H2620 H 0.96003 0.67639 0.20412 0.0
H2621 H 0.94643 0.68236 0.18522 0.0
C2622 C 0.90903 0.67751 0.02474 0.0
C2623 C 0.91812 0.68751 0.00996 0.0
C2624 C 0.90887 0.67449 0.06352 0.0
C2625 C 0.91778 0.68137 0.08852 0.0
C2626 C 0.92695 0.69136 0.07413 0.0
C2627 C 0.92706 0.69448 0.03505 0.0
C2628 C 0.9173 0.67781 0.12949 0.0
C2629 C 0.92513 0.67477 0.14237 0.0
C2630 C 0.90809 0.67577 0.15362 0.0
C2631 C 0.89998 0.67949 0.14236 0.0
C2632 C 0.90388 0.69073 0.13109 0.0
C2633 C 0.89624 0.69418 0.12011 0.0
C2634 C 0.88467 0.68649 0.1205 0.0
C2635 C 0.88071 0.67535 0.13195 0.0
C2636 C 0.88831 0.67184 0.1429 0.0
C2637 C 0.9167 0.66265 0.30869 0.0
C2638 C 0.90662 0.65253 0.31593 0.0
C2639 C 0.91952 0.66691 0.27084 0.0
C2640 C 0.91221 0.66117 0.23981 0.0
C2641 C 0.90243 0.65076 0.24659 0.0
C2642 C 0.89971 0.64638 0.28443 0.0
C2643 C 0.91414 0.66666 0.20132 0.0
C2644 C 0.90657 0.67011 0.1891 0.0
C2645 C 0.92365 0.66917 0.17811 0.0
C2646 C 0.93183 0.66561 0.18964 0.0
C2647 C 0.92817 0.65424 0.19801 0.0
C2648 C 0.93593 0.65094 0.2088 0.0
C2649 C 0.9474 0.65892 0.21107 0.0
C2650 C 0.95114 0.67022 0.20244 0.0
C2651 C 0.9434 0.67356 0.19166 0.0
H2652 H 0.9534 0.65635 0.2194 0.0
H2653 H 0.87877 0.68918 0.11201 0.0
H2654 H 0.30693 0.23002 0.02649 0.0
H2655 H 0.31413 0.23534 0.09333 0.0
H2656 H 0.34771 0.2455 0.05288 0.0
H2657 H 0.34069 0.24015 0.98673 0.0
H2658 H 0.34236 0.23235 0.11622 0.0
H2659 H 0.3405 0.26499 0.0758 0.0
H2660 H 0.33127 0.27514 0.04993 0.0
H2661 H 0.30781 0.26304 0.14542 0.0
H2662 H 0.31681 0.25269 0.17158 0.0
H2663 H 0.37167 0.25783 0.29102 0.0
H2664 H 0.36589 0.25654 0.22247 0.0
H2665 H 0.33183 0.24571 0.25901 0.0
H2666 H 0.33749 0.24707 0.32706 0.0
H2667 H 0.33796 0.25998 0.197 0.0
H2668 H 0.33898 0.22663 0.23533 0.0
H2669 H 0.3477 0.21597 0.26091 0.0
H2670 H 0.37225 0.22894 0.1688 0.0
H2671 H 0.36379 0.23984 0.14305 0.0
C2672 C 0.31584 0.23339 0.03186 0.0
C2673 C 0.3232 0.23462 0.0012 0.0
C2674 C 0.31995 0.23648 0.06998 0.0
C2675 C 0.33147 0.24087 0.07788 0.0
C2676 C 0.33879 0.24212 0.04737 0.0
C2677 C 0.33473 0.23906 0.00949 0.0
C2678 C 0.33594 0.24384 0.11808 0.0
C2679 C 0.34154 0.23852 0.13368 0.0
C2680 C 0.33466 0.25172 0.14101 0.0
C2681 C 0.32926 0.25797 0.12542 0.0
C2682 C 0.33332 0.26442 0.09111 0.0
C2683 C 0.32813 0.27022 0.07642 0.0
C2684 C 0.31893 0.26971 0.09596 0.0
C2685 C 0.31492 0.26342 0.13029 0.0
C2686 C 0.32007 0.25759 0.14507 0.0
C2687 C 0.363 0.25536 0.2844 0.0
C2688 C 0.355 0.25238 0.31438 0.0
C2689 C 0.35971 0.2546 0.24531 0.0
C2690 C 0.3484 0.25088 0.23581 0.0
C2691 C 0.34058 0.24856 0.26575 0.0
C2692 C 0.34383 0.24927 0.30463 0.0
C2693 C 0.34442 0.24853 0.19493 0.0
C2694 C 0.33887 0.2539 0.17932 0.0
C2695 C 0.3457 0.24066 0.17194 0.0
C2696 C 0.35084 0.23416 0.18755 0.0
C2697 C 0.34631 0.2273 0.22076 0.0
C2698 C 0.35119 0.22119 0.23525 0.0
C2699 C 0.36054 0.22179 0.21654 0.0
C2700 C 0.36502 0.2285 0.1833 0.0
C2701 C 0.36019 0.23465 0.16876 0.0
H2702 H 0.36429 0.21703 0.22768 0.0
H2703 H 0.31493 0.27421 0.08454 0.0
H2704 H 0.77492 0.0754 0.02929 0.0
H2705 H 0.76962 0.07615 0.09745 0.0
H2706 H 0.77216 0.10833 0.07513 0.0
H2707 H 0.77751 0.10774 0.00801 0.0
H2708 H 0.78194 0.10835 0.14317 0.0
H2709 H 0.74683 0.08438 0.075 0.0
H2710 H 0.73378 0.06779 0.0359 0.0
H2711 H 0.73405 0.04583 0.12483 0.0
H2712 H 0.74722 0.06231 0.16425 0.0
H2713 H 0.75199 0.11638 0.29418 0.0
H2714 H 0.75561 0.11226 0.22765 0.0
H2715 H 0.75476 0.08212 0.26922 0.0
H2716 H 0.7513 0.08626 0.33558 0.0
H2717 H 0.74451 0.07969 0.19437 0.0
H2718 H 0.77885 0.10352 0.26372 0.0
H2719 H 0.79256 0.12 0.30186 0.0
H2720 H 0.79413 0.1421 0.21013 0.0
H2721 H 0.78028 0.12576 0.17169 0.0
C2722 C 0.77447 0.08268 0.03918 0.0
C2723 C 0.77654 0.09147 0.01324 0.0
C2724 C 0.77137 0.08306 0.07793 0.0
C2725 C 0.77039 0.09225 0.09108 0.0
C2726 C 0.77284 0.10116 0.06553 0.0
C2727 C 0.77585 0.10077 0.02708 0.0
C2728 C 0.76667 0.09273 0.13119 0.0
C2729 C 0.77372 0.10212 0.15425 0.0
C2730 C 0.75606 0.08446 0.14589 0.0
C2731 C 0.74811 0.07457 0.12233 0.0
C2732 C 0.74418 0.07601 0.08606 0.0
C2733 C 0.73675 0.06663 0.06388 0.0
C2734 C 0.73312 0.05576 0.07782 0.0
C2735 C 0.73688 0.05425 0.11404 0.0
C2736 C 0.74433 0.06361 0.13632 0.0
C2737 C 0.75229 0.10874 0.28886 0.0
C2738 C 0.7515 0.1017 0.31991 0.0
C2739 C 0.7544 0.10642 0.25102 0.0
C2740 C 0.75558 0.09696 0.24385 0.0
C2741 C 0.7539 0.08947 0.27429 0.0
C2742 C 0.75197 0.09187 0.31211 0.0
C2743 C 0.75966 0.09547 0.20566 0.0
C2744 C 0.75273 0.08589 0.18323 0.0
C2745 C 0.77039 0.10356 0.19141 0.0
C2746 C 0.77843 0.11342 0.21502 0.0
C2747 C 0.782 0.1119 0.25191 0.0
C2748 C 0.78982 0.12121 0.27353 0.0
C2749 C 0.79421 0.13208 0.25841 0.0
C2750 C 0.79072 0.13368 0.22179 0.0
C2751 C 0.78288 0.12439 0.20009 0.0
H2752 H 0.80037 0.13926 0.27492 0.0
H2753 H 0.72736 0.04851 0.0606 0.0
H2754 H 0.64043 0.89802 0.69697 0.0
H2755 H 0.64612 0.90348 0.76521 0.0
H2756 H 0.67753 0.90431 0.74299 0.0
H2757 H 0.67196 0.89883 0.67558 0.0
H2758 H 0.66803 0.89352 0.81018 0.0
H2759 H 0.67671 0.92831 0.7464 0.0
H2760 H 0.67245 0.94095 0.70795 0.0
H2761 H 0.64835 0.93791 0.79426 0.0
H2762 H 0.65236 0.92512 0.833 0.0
H2763 H 0.70295 0.92462 0.96685 0.0
H2764 H 0.69573 0.92092 0.89977 0.0
H2765 H 0.66407 0.91685 0.93993 0.0
H2766 H 0.67114 0.92039 0.00705 0.0
H2767 H 0.67227 0.92888 0.86602 0.0
H2768 H 0.66431 0.89443 0.93069 0.0
H2769 H 0.66913 0.88217 0.96891 0.0
H2770 H 0.6924 0.88486 0.87977 0.0
H2771 H 0.68785 0.8973 0.84131 0.0
C2772 C 0.6485 0.89929 0.70678 0.0
C2773 C 0.65575 0.89803 0.6808 0.0
C2774 C 0.65177 0.90247 0.74563 0.0
C2775 C 0.66228 0.90437 0.75897 0.0
C2776 C 0.66938 0.90288 0.73328 0.0
C2777 C 0.66618 0.89979 0.69464 0.0
C2778 C 0.66606 0.90795 0.7996 0.0
C2779 C 0.66902 0.90129 0.82226 0.0
C2780 C 0.66716 0.91798 0.81556 0.0
C2781 C 0.66472 0.92565 0.79233 0.0
C2782 C 0.67042 0.93025 0.75699 0.0
C2783 C 0.66807 0.93746 0.73519 0.0
C2784 C 0.66011 0.9402 0.74858 0.0
C2785 C 0.6545 0.93576 0.78388 0.0
C2786 C 0.65681 0.92853 0.80578 0.0
C2787 C 0.69454 0.92318 0.96128 0.0
C2788 C 0.68755 0.92266 0.9922 0.0
C2789 C 0.69043 0.92104 0.92303 0.0
C2790 C 0.67934 0.91851 0.91518 0.0
C2791 C 0.67264 0.91877 0.94554 0.0
C2792 C 0.67667 0.92073 0.98383 0.0
C2793 C 0.67441 0.91455 0.87604 0.0
C2794 C 0.6712 0.92109 0.85388 0.0
C2795 C 0.67312 0.90443 0.86036 0.0
C2796 C 0.67583 0.8969 0.88333 0.0
C2797 C 0.67054 0.8925 0.91942 0.0
C2798 C 0.6732 0.8855 0.94109 0.0
C2799 C 0.68109 0.88277 0.92683 0.0
C2800 C 0.68631 0.88701 0.89081 0.0
C2801 C 0.68368 0.89403 0.86906 0.0
H2802 H 0.68315 0.87734 0.94362 0.0
H2803 H 0.6583 0.94578 0.73168 0.0
H2804 H 0.11338 0.77595 0.67507 0.0
H2805 H 0.1081 0.77671 0.74216 0.0
H2806 H 0.10436 0.74402 0.76436 0.0
H2807 H 0.10958 0.7431 0.69622 0.0
H2808 H 0.08625 0.74592 0.79145 0.0
H2809 H 0.12609 0.76627 0.80341 0.0
H2810 H 0.14568 0.78024 0.78612 0.0
H2811 H 0.13856 0.80708 0.80372 0.0
H2812 H 0.11887 0.79326 0.82055 0.0
H2813 H 0.08558 0.75383 -0.0005 0.0
H2814 H 0.08889 0.75002 0.93252 0.0
H2815 H 0.09025 0.78065 0.89405 0.0
H2816 H 0.08674 0.78443 0.96122 0.0
H2817 H 0.10981 0.77863 0.87721 0.0
H2818 H 0.0695 0.7576 0.86367 0.0
H2819 H 0.05013 0.74328 0.88208 0.0
H2820 H 0.05862 0.71722 0.8697 0.0
H2821 H 0.0781 0.73141 0.85178 0.0
C2822 C 0.11151 0.76891 0.69413 0.0
C2823 C 0.11187 0.75944 0.68029 0.0
C2824 C 0.10854 0.7694 0.73259 0.0
C2825 C 0.10592 0.76046 0.75824 0.0
C2826 C 0.10639 0.75101 0.74489 0.0
C2827 C 0.10944 0.75053 0.70616 0.0
C2828 C 0.10235 0.76105 0.79851 0.0
C2829 C 0.09147 0.75294 0.81059 0.0
C2830 C 0.10911 0.77034 0.82301 0.0
C2831 C 0.12097 0.77871 0.81296 0.0
C2832 C 0.12867 0.77515 0.80329 0.0
C2833 C 0.1398 0.78304 0.79362 0.0
C2834 C 0.14336 0.79454 0.79374 0.0
C2835 C 0.13579 0.79817 0.80361 0.0
C2836 C 0.12465 0.79031 0.81327 0.0
C2837 C 0.08634 0.75962 0.9766 0.0
C2838 C 0.08599 0.76946 0.98543 0.0
C2839 C 0.08819 0.75741 0.93841 0.0
C2840 C 0.08984 0.76507 0.90856 0.0
C2841 C 0.08897 0.77465 0.91689 0.0
C2842 C 0.08692 0.77677 0.95508 0.0
C2843 C 0.09364 0.76365 0.86975 0.0
C2844 C 0.10461 0.77159 0.85812 0.0
C2845 C 0.08701 0.75414 0.846 0.0
C2846 C 0.0753 0.74559 0.85681 0.0
C2847 C 0.06727 0.74883 0.86527 0.0
C2848 C 0.05627 0.74073 0.87552 0.0
C2849 C 0.05316 0.72935 0.87717 0.0
C2850 C 0.06105 0.72604 0.86847 0.0
C2851 C 0.07207 0.73411 0.85823 0.0
H2852 H 0.04463 0.72309 0.8851 0.0
H2853 H 0.15198 0.80063 0.78626 0.0
H2854 H 0.23357 0.33535 -0.00252 0.0
H2855 H 0.23812 0.34183 0.93057 0.0
H2856 H 0.23624 0.31054 0.89767 0.0
H2857 H 0.23178 0.30392 0.96557 0.0
H2858 H 0.2552 0.3294 0.86811 0.0
H2859 H 0.21549 0.3149 0.87138 0.0
H2860 H 0.19749 0.31216 0.89712 0.0
H2861 H 0.20937 0.34752 0.88407 0.0
H2862 H 0.22753 0.35051 0.85878 0.0
H2863 H 0.25099 0.33695 0.66368 0.0
H2864 H 0.24887 0.33063 0.73133 0.0
H2865 H 0.25245 0.36222 0.77014 0.0
H2866 H 0.25469 0.36869 0.70209 0.0
H2867 H 0.23268 0.34279 0.79605 0.0
H2868 H 0.27247 0.35708 0.79205 0.0
H2869 H 0.29025 0.3595 0.76538 0.0
H2870 H 0.27785 0.32403 0.77823 0.0
H2871 H 0.25991 0.32136 0.80445 0.0
C2872 C 0.23408 0.32977 0.9762 0.0
C2873 C 0.2323 0.31908 0.98696 0.0
C2874 C 0.23664 0.3335 0.93784 0.0
C2875 C 0.23741 0.32663 0.90918 0.0
C2876 C 0.23565 0.31594 0.91951 0.0
C2877 C 0.23304 0.31215 0.95816 0.0
C2878 C 0.24025 0.33085 0.8687 0.0
C2879 C 0.25018 0.33214 0.852 0.0
C2880 C 0.23383 0.3347 0.84829 0.0
C2881 C 0.22292 0.33294 0.86349 0.0
C2882 C 0.21431 0.32211 0.87431 0.0
C2883 C 0.20407 0.32051 0.88876 0.0
C2884 C 0.2023 0.32967 0.89231 0.0
C2885 C 0.21076 0.34044 0.88134 0.0
C2886 C 0.22103 0.34209 0.8669 0.0
C2887 C 0.2515 0.34263 0.68665 0.0
C2888 C 0.25289 0.35327 0.67771 0.0
C2889 C 0.25035 0.33903 0.72526 0.0
C2890 C 0.25051 0.34597 0.75557 0.0
C2891 C 0.25233 0.35678 0.74697 0.0
C2892 C 0.25365 0.36047 0.70823 0.0
C2893 C 0.24767 0.34143 0.79562 0.0
C2894 C 0.2377 0.34004 0.81217 0.0
C2895 C 0.25401 0.33744 0.81566 0.0
C2896 C 0.26479 0.33901 0.79987 0.0
C2897 C 0.27348 0.34977 0.78884 0.0
C2898 C 0.28361 0.35119 0.77388 0.0
C2899 C 0.28517 0.34192 0.77002 0.0
C2900 C 0.27662 0.3312 0.7812 0.0
C2901 C 0.26648 0.32974 0.79615 0.0
H2902 H 0.29302 0.34303 0.75844 0.0
H2903 H 0.19436 0.32841 0.9035 0.0
H2904 H 0.0055 0.42221 0.66667 0.0
H2905 H 0.99901 0.4172 0.59941 0.0
H2906 H 0.02977 0.44583 0.55807 0.0
H2907 H 0.03641 0.45088 0.62569 0.0
H2908 H 0.00986 0.44522 0.53371 0.0
H2909 H 0.0253 0.42067 0.53772 0.0
H2910 H 0.02832 0.40566 0.56431 0.0
H2911 H 0.99302 0.38176 0.55202 0.0
H2912 H 0.98975 0.39666 0.52592 0.0
H2913 H 1.00337 0.43711 0.33325 0.0
H2914 H 0.00964 0.43865 0.40027 0.0
H2915 H 0.97808 0.40928 0.43133 0.0
H2916 H 0.97164 0.40754 0.36323 0.0
H2917 H 0.99739 0.40938 0.46207 0.0
H2918 H 0.98174 0.43354 0.4585 0.0
H2919 H 0.97838 0.44837 0.43243 0.0
H2920 H 0.01351 0.47278 0.44547 0.0
H2921 H 0.01712 0.45805 0.47107 0.0
C2922 C 0.01098 0.42733 0.64322 0.0
C2923 C 0.0214 0.43701 0.6513 0.0
C2924 C 0.00729 0.42441 0.60485 0.0
C2925 C 0.01392 0.43115 0.57394 0.0
C2926 C 0.02457 0.44052 0.58171 0.0
C2927 C 0.02835 0.44338 0.62021 0.0
C2928 C 0.00912 0.42914 0.53422 0.0
C2929 C 0.00731 0.43746 0.51773 0.0
C2930 C 0.00533 0.4188 0.51442 0.0
C2931 C 0.00726 0.40982 0.53025 0.0
C2932 C 0.01816 0.41224 0.54107 0.0
C2933 C 0.01992 0.40375 0.55597 0.0
C2934 C 0.01086 0.39277 0.55996 0.0
C2935 C 1.00002 0.39027 0.54897 0.0
C2936 C 0.99822 0.39873 0.53409 0.0
C2937 C 0.9977 0.43093 0.3541 0.0
C2938 C 0.98696 0.4222 0.34282 0.0
C2939 C 1.00131 0.43186 0.39251 0.0
C2940 C 0.99428 0.42415 0.42069 0.0
C2941 C 0.98359 0.41533 0.40982 0.0
C2942 C 0.97991 0.4144 0.37108 0.0
C2943 C 0.99832 0.42554 0.4614 0.0
C2944 C 0.99993 0.41711 0.47815 0.0
C2945 C 1.00185 0.43576 0.48175 0.0
C2946 C 0.99972 0.44466 0.46642 0.0
C2947 C 0.98877 0.44205 0.45551 0.0
C2948 C 0.98681 0.45044 0.44086 0.0
C2949 C 0.99573 0.46151 0.43722 0.0
C2950 C 0.00661 0.4642 0.44828 0.0
C2951 C 0.00862 0.45584 0.4629 0.0
H2952 H 0.9942 0.46799 0.42589 0.0
H2953 H 0.01224 0.38621 0.57147 0.0
H2954 H 0.59376 0.56091 0.36686 0.0
H2955 H 0.59171 0.56538 0.43457 0.0
H2956 H 0.57479 0.58296 0.39499 0.0
H2957 H 0.57689 0.57872 0.32759 0.0
H2958 H 0.58923 0.59418 0.45429 0.0
H2959 H 0.55959 0.55643 0.42618 0.0
H2960 H 0.55166 0.53676 0.40417 0.0
H2961 H 0.56996 0.53093 0.49429 0.0
H2962 H 0.57813 0.55063 0.5165 0.0
H2963 H 0.56003 0.59157 0.63238 0.0
H2964 H 0.56511 0.59037 0.56455 0.0
H2965 H 0.58201 0.57263 0.60273 0.0
H2966 H 0.57693 0.57365 0.66989 0.0
H2967 H 0.56778 0.56187 0.5438 0.0
H2968 H 0.59691 0.59983 0.57338 0.0
H2969 H 0.60426 0.61941 0.59543 0.0
H2970 H 0.58633 0.62482 0.50288 0.0
H2971 H 0.57875 0.60521 0.48059 0.0
C2972 C 0.58969 0.56581 0.37254 0.0
C2973 C 0.58536 0.56932 0.34179 0.0
C2974 C 0.58852 0.56834 0.41121 0.0
C2975 C 0.58299 0.57439 0.41968 0.0
C2976 C 0.57908 0.57829 0.38903 0.0
C2977 C 0.58023 0.57576 0.35049 0.0
C2978 C 0.58064 0.57611 0.46047 0.0
C2979 C 0.58448 0.58713 0.47385 0.0
C2980 C 0.5745 0.56689 0.48591 0.0
C2981 C 0.56957 0.55503 0.47272 0.0
C2982 C 0.562 0.55098 0.4411 0.0
C2983 C 0.55744 0.53982 0.42862 0.0
C2984 C 0.56033 0.53261 0.44774 0.0
C2985 C 0.56775 0.53653 0.47946 0.0
C2986 C 0.57234 0.54769 0.49202 0.0
C2987 C 0.56489 0.58749 0.62631 0.0
C2988 C 0.56796 0.58261 0.65655 0.0
C2989 C 0.56782 0.58684 0.5876 0.0
C2990 C 0.57394 0.58141 0.57874 0.0
C2991 C 0.57723 0.5768 0.60896 0.0
C2992 C 0.5743 0.5774 0.6474 0.0
C2993 C 0.57649 0.57996 0.53792 0.0
C2994 C 0.57261 0.56895 0.52441 0.0
C2995 C 0.58253 0.58918 0.51243 0.0
C2996 C 0.58717 0.60101 0.52557 0.0
C2997 C 0.59446 0.60516 0.55791 0.0
C2998 C 0.59868 0.61628 0.57042 0.0
C2999 C 0.59574 0.62335 0.55064 0.0
C3000 C 0.58859 0.61933 0.51821 0.0
C3001 C 0.58434 0.60822 0.5056 0.0
H3002 H 0.59901 0.63195 0.56038 0.0
H3003 H 0.55679 0.52397 0.43805 0.0
H3004 H 0.4125 0.96998 0.62977 0.0
H3005 H 0.41349 0.97651 0.5626 0.0
H3006 H 0.42651 0.01054 0.60412 0.0
H3007 H 0.4254 0.00412 0.67112 0.0
H3008 H 0.4126 0.00607 0.54109 0.0
H3009 H 0.44455 1.00253 0.57763 0.0
H3010 H 0.45411 0.99268 0.60342 0.0
H3011 H 0.43953 0.96801 0.512 0.0
H3012 H 0.42975 0.97763 0.48601 0.0
H3013 H 0.44273 0.03414 0.36441 0.0
H3014 H 0.43764 0.02817 0.43259 0.0
H3015 H 0.42366 0.99344 0.39783 0.0
H3016 H 0.4287 0.99919 0.33051 0.0
H3017 H 0.43824 0.99906 0.45852 0.0
H3018 H 0.40662 0.00345 0.42105 0.0
H3019 H 0.39775 0.01401 0.39578 0.0
H3020 H 0.41262 0.03803 0.48896 0.0
H3021 H 0.42171 0.02769 0.51449 0.0
C3022 C 0.41536 0.97881 0.62469 0.0
C3023 C 0.41911 0.98657 0.65572 0.0
C3024 C 0.41593 0.98253 0.58633 0.0
C3025 C 0.42027 0.99404 0.57851 0.0
C3026 C 0.42319 1.00164 0.60958 0.0
C3027 C 0.42263 0.99794 0.64786 0.0
C3028 C 0.42296 0.99835 0.53811 0.0
C3029 C 0.41826 0.00461 0.52303 0.0
C3030 C 0.43038 0.99647 0.51478 0.0
C3031 C 0.43633 0.99072 0.53014 0.0
C3032 C 0.44332 0.99495 0.56321 0.0
C3033 C 0.44878 0.98942 0.57784 0.0
C3034 C 0.4474 0.97971 0.55942 0.0
C3035 C 0.44058 0.97552 0.52627 0.0
C3036 C 0.43507 0.98101 0.51157 0.0
C3037 C 0.43854 0.02523 0.37133 0.0
C3038 C 0.43621 0.01717 0.34198 0.0
C3039 C 0.43559 0.02184 0.4102 0.0
C3040 C 0.43027 0.01036 0.42006 0.0
C3041 C 0.4278 1.00233 0.39077 0.0
C3042 C 0.4307 0.00568 0.35221 0.0
C3043 C 0.42768 0.00656 0.46102 0.0
C3044 C 0.43253 1.00048 0.47641 0.0
C3045 C 0.42049 0.0087 0.48456 0.0
C3046 C 0.41495 0.01487 0.46943 0.0
C3047 C 0.40807 0.01103 0.43597 0.0
C3048 C 0.40299 0.01697 0.42163 0.0
C3049 C 0.40464 0.0267 0.44068 0.0
C3050 C 0.41136 0.0305 0.4742 0.0
C3051 C 0.41647 0.0246 0.48863 0.0
H3052 H 0.4007 0.03129 0.42953 0.0
H3053 H 0.45164 0.97543 0.57079 0.0
H3054 H 0.56174 0.97053 0.62127 0.0
H3055 H 0.56743 0.97771 0.55473 0.0
H3056 H 0.59514 0.00849 0.60065 0.0
H3057 H 0.58935 1.00149 0.66694 0.0
H3058 H 0.58309 0.0131 0.55334 0.0
H3059 H 0.59963 0.98974 0.54723 0.0
H3060 H 0.60046 0.97226 0.55412 0.0
H3061 H 0.57403 0.9559 0.46929 0.0
H3062 H 0.57292 0.97323 0.46229 0.0
H3063 H 0.59876 0.03422 0.35762 0.0
H3064 H 0.59988 0.02825 0.42428 0.0
H3065 H 0.57087 0.99558 0.40167 0.0
H3066 H 0.56976 1.00134 0.33557 0.0
H3067 H 0.58708 0.99351 0.43789 0.0
H3068 H 0.56865 0.01582 0.45292 0.0
H3069 H 0.56747 0.03313 0.44668 0.0
H3070 H 0.59753 0.05133 0.51548 0.0
H3071 H 0.59896 0.03413 0.52174 0.0
C3072 C 0.56919 0.97871 0.61705 0.0
C3073 C 0.57501 0.98552 0.64916 0.0
C3074 C 0.57246 0.9828 0.57906 0.0
C3075 C 0.58172 0.99365 0.57279 0.0
C3076 C 0.58794 1.00013 0.60486 0.0
C3077 C 0.58461 0.99612 0.64268 0.0
C3078 C 0.58416 0.99873 0.53332 0.0
C3079 C 0.58422 0.00893 0.52823 0.0
C3080 C 0.58546 0.99321 0.50052 0.0
C3081 C 0.58615 0.98278 0.50443 0.0
C3082 C 0.59394 0.9824 0.53023 0.0
C3083 C 0.59447 0.97251 0.53413 0.0
C3084 C 0.58729 0.96297 0.51221 0.0
C3085 C 0.57958 0.9633 0.48626 0.0
C3086 C 0.57901 0.97316 0.48227 0.0
C3087 C 0.59259 0.0258 0.36702 0.0
C3088 C 0.58418 0.01826 0.3413 0.0
C3089 C 0.59326 0.02239 0.40499 0.0
C3090 C 0.58546 0.01146 0.41778 0.0
C3091 C 0.57704 0.004 0.39224 0.0
C3092 C 0.57639 0.00735 0.35447 0.0
C3093 C 0.58574 0.0077 0.45803 0.0
C3094 C 0.58618 0.99776 0.46322 0.0
C3095 C 0.58489 0.01344 0.49098 0.0
C3096 C 0.58399 0.02374 0.4874 0.0
C3097 C 0.57505 0.02353 0.46647 0.0
C3098 C 0.57433 0.03332 0.46298 0.0
C3099 C 0.58244 0.04333 0.48057 0.0
C3100 C 0.59127 0.04357 0.5018 0.0
C3101 C 0.59204 0.03381 0.50535 0.0
H3102 H 0.58187 0.0509 0.47782 0.0
H3103 H 0.5877 0.95533 0.51528 0.0
H3104 H 1.00218 0.56274 0.33222 0.0
H3105 H 0.00869 0.56828 0.39879 0.0
H3106 H 0.97944 0.57124 0.42419 0.0
H3107 H 0.9728 0.56573 0.35663 0.0
H3108 H 0.99989 0.58976 0.4498 0.0
H3109 H 0.9804 0.54974 0.46087 0.0
H3110 H 0.97499 0.53032 0.44192 0.0
H3111 H 0.00912 0.53779 0.45834 0.0
H3112 H 0.01478 0.55733 0.47677 0.0
H3113 H 0.00764 0.58974 0.65733 0.0
H3114 H 1.00119 0.58712 0.5896 0.0
H3115 H 0.03034 0.58516 0.55371 0.0
H3116 H 0.03698 0.58801 0.6217 0.0
H3117 H 0.00901 0.56603 0.53464 0.0
H3118 H 0.02871 0.60619 0.51843 0.0
H3119 H 0.03446 0.6259 0.53408 0.0
H3120 H 0.99995 0.61799 0.5282 0.0
H3121 H 0.994 0.59822 0.51214 0.0
C3122 C 0.99707 0.56452 0.35183 0.0
C3123 C 0.98697 0.56381 0.33909 0.0
C3124 C 1.00079 0.56764 0.38998 0.0
C3125 C 0.9945 0.57008 0.4164 0.0
C3126 C 0.98438 0.56935 0.4041 0.0
C3127 C 0.98057 0.56614 0.36569 0.0
C3128 C 0.99883 0.57362 0.45649 0.0
C3129 C 1.00168 0.5845 0.46875 0.0
C3130 C 1.00142 0.56683 0.48057 0.0
C3131 C 0.99803 0.55504 0.46992 0.0
C3132 C 0.98677 0.54728 0.46016 0.0
C3133 C 0.98366 0.53624 0.44955 0.0
C3134 C 0.99171 0.53283 0.44884 0.0
C3135 C 1.00289 0.54045 0.45887 0.0
C3136 C 0.00605 0.5515 0.46945 0.0
C3137 C 0.01282 0.58904 0.63484 0.0
C3138 C 0.02276 0.58899 0.64461 0.0
C3139 C 0.00915 0.58758 0.59621 0.0
C3140 C 0.01528 0.58592 0.56683 0.0
C3141 C 0.02553 0.58646 0.57614 0.0
C3142 C 0.02933 0.58813 0.61481 0.0
C3143 C 0.01023 0.58223 0.52769 0.0
C3144 C 0.00718 0.57127 0.51576 0.0
C3145 C 0.00742 0.58892 0.50405 0.0
C3146 C 0.0109 0.60071 0.51452 0.0
C3147 C 0.02234 0.60863 0.52085 0.0
C3148 C 0.02563 0.61982 0.52965 0.0
C3149 C 0.01757 0.62319 0.53242 0.0
C3150 C 0.00619 0.61537 0.52614 0.0
C3151 C 1.00285 0.60418 0.51703 0.0
H3152 H 0.02014 0.63186 0.53928 0.0
H3153 H 0.98928 0.52429 0.44057 0.0
H3154 H 0.44528 0.41357 0.36575 0.0
H3155 H 0.4387 0.41433 0.43164 0.0
H3156 H 0.41744 0.42632 0.38415 0.0
H3157 H 0.42404 0.42578 0.31875 0.0
H3158 H 0.4298 0.43934 0.44189 0.0
H3159 H 0.40614 0.39974 0.42161 0.0
H3160 H 0.4017 0.38047 0.4044 0.0
H3161 H 0.42237 0.38065 0.49901 0.0
H3162 H 0.42707 0.39999 0.51647 0.0
H3163 H 0.40868 0.44081 0.63023 0.0
H3164 H 0.40816 0.43501 0.56211 0.0
H3165 H 0.43073 0.42266 0.59067 0.0
H3166 H 0.43117 0.42817 0.65822 0.0
H3167 H 0.41482 0.4087 0.54042 0.0
H3168 H 0.44072 0.44898 0.55325 0.0
H3169 H 0.44583 0.46847 0.57011 0.0
H3170 H 0.42124 0.46693 0.48867 0.0
H3171 H 0.4159 0.44737 0.4717 0.0
C3172 C 0.43913 0.41626 0.36935 0.0
C3173 C 0.4353 0.41974 0.33705 0.0
C3174 C 0.43533 0.41663 0.40696 0.0
C3175 C 0.42755 0.42034 0.41269 0.0
C3176 C 0.42347 0.42347 0.38037 0.0
C3177 C 0.4273 0.42318 0.34298 0.0
C3178 C 0.42429 0.42182 0.45251 0.0
C3179 C 0.4263 0.43257 0.46318 0.0
C3180 C 0.4199 0.41303 0.4804 0.0
C3181 C 0.41703 0.40136 0.47016 0.0
C3182 C 0.40981 0.39571 0.43858 0.0
C3183 C 0.40723 0.38476 0.4288 0.0
C3184 C 0.41177 0.37935 0.45054 0.0
C3185 C 0.41887 0.38486 0.48218 0.0
C3186 C 0.42148 0.39581 0.49206 0.0
C3187 C 0.41346 0.43678 0.62203 0.0
C3188 C 0.4201 0.43512 0.64963 0.0
C3189 C 0.41314 0.43346 0.58315 0.0
C3190 C 0.4195 0.42851 0.57136 0.0
C3191 C 0.42574 0.42644 0.59916 0.0
C3192 C 0.42604 0.42971 0.63782 0.0
C3193 C 0.42049 0.42624 0.52975 0.0
C3194 C 0.4181 0.41538 0.51879 0.0
C3195 C 0.42458 0.43492 0.5015 0.0
C3196 C 0.42782 0.44668 0.51157 0.0
C3197 C 0.43635 0.45278 0.53916 0.0
C3198 C 0.4393 0.46384 0.5487 0.0
C3199 C 0.43384 0.46893 0.53057 0.0
C3200 C 0.42545 0.46297 0.50276 0.0
C3201 C 0.42246 0.4519 0.49316 0.0
H3202 H 0.43613 0.47749 0.53799 0.0
H3203 H 0.40977 0.37088 0.44292 0.0
H3204 H 0.0785 0.29637 0.22585 0.0
H3205 H 0.08427 0.30643 0.28859 0.0
H3206 H 0.09725 0.33816 0.22806 0.0
H3207 H 0.0918 0.32828 0.16589 0.0
H3208 H 0.11168 0.33993 0.28156 0.0
H3209 H 0.07151 0.3255 0.27691 0.0
H3210 H 0.05152 0.31072 0.27139 0.0
H3211 H 0.05481 0.29421 0.373 0.0
H3212 H 0.07486 0.30883 0.37882 0.0
H3213 H 0.11588 0.37569 0.44125 0.0
H3214 H 0.11125 0.36513 0.37954 0.0
H3215 H 0.09887 0.33407 0.44389 0.0
H3216 H 0.10314 0.34444 0.505 0.0
H3217 H 0.08443 0.33158 0.3893 0.0
H3218 H 0.1246 0.34674 0.39543 0.0
H3219 H 0.1445 0.3618 0.40074 0.0
H3220 H 0.14116 0.37718 0.29617 0.0
H3221 H 0.1212 0.36231 0.29053 0.0
C3222 C 0.08256 0.30549 0.22609 0.0
C3223 C 0.08468 0.31153 0.191 0.0
C3224 C 0.08584 0.31123 0.26188 0.0
C3225 C 0.09114 0.32307 0.26305 0.0
C3226 C 0.09324 0.32905 0.22795 0.0
C3227 C 0.09007 0.32336 0.19239 0.0
C3228 C 0.0945 0.32937 0.30057 0.0
C3229 C 0.10569 0.33816 0.305 0.0
C3230 C 0.08677 0.32695 0.33146 0.0
C3231 C 0.07471 0.31818 0.32804 0.0
C3232 C 0.06799 0.31867 0.29789 0.0
C3233 C 0.05665 0.31033 0.29475 0.0
C3234 C 0.05191 0.30151 0.32176 0.0
C3235 C 0.0585 0.30103 0.35206 0.0
C3236 C 0.06985 0.30934 0.35531 0.0
C3237 C 0.11223 0.36663 0.44209 0.0
C3238 C 0.10987 0.36091 0.47795 0.0
C3239 C 0.10963 0.3606 0.40688 0.0
C3240 C 0.10477 0.34879 0.4071 0.0
C3241 C 0.10257 0.34315 0.44294 0.0
C3242 C 0.10507 0.34912 0.47792 0.0
C3243 C 0.10159 0.34218 0.37025 0.0
C3244 C 0.09044 0.33332 0.36595 0.0
C3245 C 0.10936 0.34456 0.33948 0.0
C3246 C 0.12138 0.35347 0.34277 0.0
C3247 C 0.12809 0.35338 0.37373 0.0
C3248 C 0.13938 0.36187 0.37677 0.0
C3249 C 0.14407 0.37045 0.34886 0.0
C3250 C 0.1375 0.37054 0.31779 0.0
C3251 C 0.12621 0.36208 0.31464 0.0
H3252 H 0.1528 0.37702 0.35122 0.0
H3253 H 0.04313 0.29506 0.31928 0.0
H3254 H 0.66218 0.76059 0.49527 0.0
H3255 H 0.67188 0.76741 0.43322 0.0
H3256 H 0.64043 0.7479 0.37174 0.0
H3257 H 0.63052 0.74108 0.43443 0.0
H3258 H 0.65803 0.74476 0.34459 0.0
H3259 H 0.65154 0.77508 0.37194 0.0
H3260 H 0.65136 0.78991 0.41214 0.0
H3261 H 0.68743 0.80691 0.42162 0.0
H3262 H 0.68783 0.79206 0.38202 0.0
H3263 H 0.67781 0.76689 0.15879 0.0
H3264 H 0.66789 0.76256 0.2207 0.0
H3265 H 0.69952 0.78119 0.28187 0.0
H3266 H 0.70969 0.78568 0.21909 0.0
H3267 H 0.68174 0.78513 0.30904 0.0
H3268 H 0.68785 0.75416 0.28278 0.0
H3269 H 0.68764 0.7391 0.24269 0.0
H3270 H 0.65168 0.72324 0.23096 0.0
H3271 H 0.6517 0.7383 0.27052 0.0
C3272 C 0.65726 0.75782 0.46867 0.0
C3273 C 0.64557 0.75028 0.4697 0.0
C3274 C 0.66284 0.76177 0.4332 0.0
C3275 C 0.65686 0.75822 0.39799 0.0
C3276 C 0.64516 0.75076 0.39874 0.0
C3277 C 0.63952 0.7469 0.43445 0.0
C3278 C 0.66308 0.76183 0.36059 0.0
C3279 C 0.66306 0.75357 0.33645 0.0
C3280 C 0.66988 0.77336 0.35074 0.0
C3281 C 0.66971 0.78239 0.37427 0.0
C3282 C 0.65943 0.78192 0.38286 0.0
C3283 C 0.65929 0.79034 0.4055 0.0
C3284 C 0.66937 0.79933 0.4195 0.0
C3285 C 0.67963 0.79993 0.41079 0.0
C3286 C 0.67982 0.79152 0.38821 0.0
C3287 C 0.68273 0.77014 0.18527 0.0
C3288 C 0.69457 0.77659 0.18406 0.0
C3289 C 0.67701 0.76763 0.22068 0.0
C3290 C 0.68297 0.77146 0.2558 0.0
C3291 C 0.69479 0.77815 0.25493 0.0
C3292 C 0.70058 0.78066 0.2192 0.0
C3293 C 0.67669 0.76804 0.29314 0.0
C3294 C 0.6767 0.77633 0.31724 0.0
C3295 C 0.66983 0.75652 0.30298 0.0
C3296 C 0.66979 0.74741 0.27933 0.0
C3297 C 0.67991 0.74751 0.27139 0.0
C3298 C 0.67983 0.73896 0.24881 0.0
C3299 C 0.66966 0.73023 0.23421 0.0
C3300 C 0.65955 0.73001 0.24225 0.0
C3301 C 0.65959 0.73855 0.26479 0.0
H3302 H 0.66961 0.72362 0.21673 0.0
H3303 H 0.66924 0.80584 0.43703 0.0
H3304 H 0.2204 0.92497 0.21998 0.0
H3305 H 0.22516 0.91919 0.28176 0.0
H3306 H 0.24985 0.91393 0.22157 0.0
H3307 H 0.24484 0.91924 0.16018 0.0
H3308 H 0.23846 0.89717 0.26816 0.0
H3309 H 0.25688 0.9378 0.28104 0.0
H3310 H 0.25759 0.95615 0.28271 0.0
H3311 H 0.234 0.94467 0.37782 0.0
H3312 H 0.23305 0.92621 0.37641 0.0
H3313 H 0.26892 0.89468 0.43546 0.0
H3314 H 0.26314 0.89917 0.37309 0.0
H3315 H 0.23861 0.90452 0.43392 0.0
H3316 H 0.24461 0.90058 0.49554 0.0
H3317 H 0.24969 0.92104 0.38702 0.0
H3318 H 0.23142 0.88061 0.37546 0.0
H3319 H 0.23051 0.86217 0.37419 0.0
H3320 H 0.25348 0.87305 0.27728 0.0
H3321 H 0.25463 0.89161 0.27829 0.0
C3322 C 0.22687 0.92263 0.22016 0.0
C3323 C 0.23225 0.92255 0.18538 0.0
C3324 C 0.22961 0.91935 0.2554 0.0
C3325 C 0.23794 0.9162 0.2564 0.0
C3326 C 0.24336 0.91625 0.22161 0.0
C3327 C 0.24051 0.91934 0.18652 0.0
C3328 C 0.24106 0.91273 0.29331 0.0
C3329 C 0.24103 0.90245 0.29405 0.0
C3330 C 0.24418 0.91947 0.32738 0.0
C3331 C 0.24481 0.9306 0.32837 0.0
C3332 C 0.25179 0.93917 0.30214 0.0
C3333 C 0.25225 0.94959 0.30307 0.0
C3334 C 0.24583 0.95157 0.33029 0.0
C3335 C 0.23896 0.94313 0.35672 0.0
C3336 C 0.23847 0.93269 0.3559 0.0
C3337 C 0.26223 0.89672 0.43529 0.0
C3338 C 0.25726 0.89731 0.47041 0.0
C3339 C 0.2589 0.89925 0.3997 0.0
C3340 C 0.2504 0.90216 0.39878 0.0
C3341 C 0.24524 0.90239 0.43381 0.0
C3342 C 0.24867 0.90007 0.46914 0.0
C3343 C 0.24709 0.90548 0.36192 0.0
C3344 C 0.2471 0.91574 0.36118 0.0
C3345 C 0.24392 0.8987 0.32793 0.0
C3346 C 0.2432 0.88753 0.3272 0.0
C3347 C 0.23634 0.8791 0.35406 0.0
C3348 C 0.23577 0.86862 0.35336 0.0
C3349 C 0.24196 0.86645 0.32574 0.0
C3350 C 0.2487 0.87475 0.29869 0.0
C3351 C 0.24931 0.88524 0.29929 0.0
H3352 H 0.24151 0.85834 0.32524 0.0
H3353 H 0.24619 0.95964 0.33094 0.0
H3354 H 0.37638 0.11667 0.55542 0.0
H3355 H 0.36628 0.11277 0.61802 0.0
H3356 H 0.33472 0.0996 0.55624 0.0
H3357 H 0.34462 0.10341 0.4943 0.0
H3358 H 0.33554 0.11221 0.61969 0.0
H3359 H 0.34267 0.0819 0.58891 0.0
H3360 H 0.35462 0.07372 0.57264 0.0
H3361 H 0.37296 0.08662 0.67981 0.0
H3362 H 0.36121 0.09501 0.69645 0.0
H3363 H 0.29739 0.07808 0.77219 0.0
H3364 H 0.30752 0.08449 0.7096 0.0
H3365 H 0.33917 0.09642 0.76984 0.0
H3366 H 0.32926 0.08999 0.83144 0.0
H3367 H 0.33824 0.08473 0.70681 0.0
H3368 H 0.33076 0.11449 0.73933 0.0
H3369 H 0.31871 0.1225 0.7563 0.0
H3370 H 0.30114 0.11083 0.64719 0.0
H3371 H 0.31296 0.10257 0.62986 0.0
C3372 C 0.36731 0.1131 0.55532 0.0
C3373 C 0.36129 0.11026 0.52 0.0
C3374 C 0.36156 0.11085 0.59098 0.0
C3375 C 0.34974 0.10581 0.59167 0.0
C3376 C 0.34382 0.10351 0.55639 0.0
C3377 C 0.34953 0.10565 0.52096 0.0
C3378 C 0.34335 0.1021 0.62877 0.0
C3379 C 0.33607 0.10615 0.63869 0.0
C3380 C 0.34411 0.09426 0.6536 0.0
C3381 C 0.35115 0.08919 0.6437 0.0
C3382 C 0.34931 0.08307 0.60885 0.0
C3383 C 0.35604 0.07838 0.59959 0.0
C3384 C 0.36457 0.07968 0.62512 0.0
C3385 C 0.36637 0.08564 0.66002 0.0
C3386 C 0.35967 0.09036 0.66939 0.0
C3387 C 0.3065 0.08206 0.77188 0.0
C3388 C 0.31251 0.08353 0.80669 0.0
C3389 C 0.31227 0.08576 0.73626 0.0
C3390 C 0.32411 0.09098 0.73518 0.0
C3391 C 0.33005 0.09239 0.76994 0.0
C3392 C 0.32434 0.08873 0.80522 0.0
C3393 C 0.33049 0.09491 0.69808 0.0
C3394 C 0.33773 0.09083 0.68801 0.0
C3395 C 0.32971 0.10275 0.6733 0.0
C3396 C 0.32267 0.10781 0.68348 0.0
C3397 C 0.32427 0.11355 0.71909 0.0
C3398 C 0.31749 0.11815 0.72876 0.0
C3399 C 0.30914 0.11715 0.70289 0.0
C3400 C 0.30759 0.11158 0.66724 0.0
C3401 C 0.31433 0.10694 0.65747 0.0
H3402 H 0.3039 0.12071 0.71042 0.0
H3403 H 0.36977 0.07605 0.61791 0.0
H3404 H 0.91663 0.24056 0.82831 0.0
H3405 H 0.91015 0.24381 0.76628 0.0
H3406 H 0.92325 0.22503 0.70674 0.0
H3407 H 0.92993 0.22176 0.76948 0.0
H3408 H 0.92892 0.24502 0.67039 0.0
H3409 H 0.89539 0.2135 0.71945 0.0
H3410 H 0.88084 0.2026 0.76874 0.0
H3411 H 0.87136 0.22809 0.77166 0.0
H3412 H 0.88601 0.23926 0.72291 0.0
H3413 H 0.90323 0.24278 0.4914 0.0
H3414 H 0.90785 0.23724 0.55291 0.0
H3415 H 0.89574 0.25635 0.61591 0.0
H3416 H 0.89084 0.26185 0.55367 0.0
H3417 H 0.88921 0.23544 0.64982 0.0
H3418 H 0.9234 0.26731 0.60333 0.0
H3419 H 0.93822 0.27836 0.55498 0.0
H3420 H 0.94646 0.25202 0.54768 0.0
H3421 H 0.93157 0.24074 0.59561 0.0
C3422 C 0.91811 0.23704 0.80214 0.0
C3423 C 0.92376 0.23085 0.80378 0.0
C3424 C 0.91434 0.23887 0.76668 0.0
C3425 C 0.91606 0.23452 0.73201 0.0
C3426 C 0.92178 0.2284 0.73331 0.0
C3427 C 0.92558 0.22653 0.76905 0.0
C3428 C 0.91216 0.23677 0.69451 0.0
C3429 C 0.9202 0.24274 0.66557 0.0
C3430 C 0.90083 0.23405 0.68881 0.0
C3431 C 0.89187 0.22727 0.7177 0.0
C3432 C 0.89026 0.21683 0.73078 0.0
C3433 C 0.88199 0.21059 0.75862 0.0
C3434 C 0.87519 0.21466 0.77336 0.0
C3435 C 0.87664 0.22496 0.76022 0.0
C3436 C 0.88492 0.23124 0.73246 0.0
C3437 C 0.90145 0.24578 0.51824 0.0
C3438 C 0.89673 0.25283 0.51767 0.0
C3439 C 0.90415 0.24262 0.55342 0.0
C3440 C 0.90231 0.24653 0.5889 0.0
C3441 C 0.89727 0.25329 0.58872 0.0
C3442 C 0.89451 0.25645 0.55326 0.0
C3443 C 0.90599 0.24373 0.62583 0.0
C3444 C 0.89792 0.23766 0.65463 0.0
C3445 C 0.91729 0.24634 0.63145 0.0
C3446 C 0.9263 0.25314 0.6028 0.0
C3447 C 0.92832 0.26384 0.5912 0.0
C3448 C 0.93674 0.27015 0.5639 0.0
C3449 C 0.94326 0.26588 0.54819 0.0
C3450 C 0.94139 0.25531 0.55984 0.0
C3451 C 0.93297 0.24896 0.5871 0.0
H3452 H 0.94978 0.27077 0.52706 0.0
H3453 H 0.86879 0.20982 0.79492 0.0
H3454 H 0.76703 0.67917 0.82563 0.0
H3455 H 0.76469 0.67003 0.76299 0.0
H3456 H 0.78436 0.70243 0.70752 0.0
H3457 H 0.78677 0.71182 0.77117 0.0
H3458 H 0.76464 0.68811 0.66756 0.0
H3459 H 0.79581 0.68617 0.71978 0.0
H3460 H 0.80649 0.68255 0.7701 0.0
H3461 H 0.78107 0.64752 0.77202 0.0
H3462 H 0.77014 0.65096 0.7222 0.0
H3463 H 0.76517 0.66284 0.49027 0.0
H3464 H 0.77172 0.67368 0.55025 0.0
H3465 H 0.75311 0.64326 0.61784 0.0
H3466 H 0.74663 0.63216 0.55715 0.0
H3467 H 0.77408 0.65781 0.64964 0.0
H3468 H 0.74222 0.66016 0.60241 0.0
H3469 H 0.73123 0.66376 0.55329 0.0
H3470 H 0.75795 0.69811 0.54286 0.0
H3471 H 0.76918 0.69467 0.59155 0.0
C3472 C 0.77096 0.68443 0.8003 0.0
C3473 C 0.77717 0.69625 0.80344 0.0
C3474 C 0.76963 0.67915 0.76444 0.0
C3475 C 0.77451 0.68552 0.73072 0.0
C3476 C 0.7806 0.69736 0.73337 0.0
C3477 C 0.78198 0.7027 0.76962 0.0
C3478 C 0.77275 0.67962 0.69284 0.0
C3479 C 0.76694 0.68167 0.66326 0.0
C3480 C 0.77548 0.67099 0.68777 0.0
C3481 C 0.78211 0.66884 0.71737 0.0
C3482 C 0.79246 0.6777 0.7311 0.0
C3483 C 0.79856 0.67568 0.75953 0.0
C3484 C 0.79445 0.66481 0.77428 0.0
C3485 C 0.78425 0.65594 0.76056 0.0
C3486 C 0.7781 0.65791 0.73219 0.0
C3487 C 0.76252 0.65837 0.51779 0.0
C3488 C 0.75529 0.64662 0.51896 0.0
C3489 C 0.76626 0.66463 0.55212 0.0
C3490 C 0.76274 0.65932 0.58848 0.0
C3491 C 0.75588 0.64752 0.58998 0.0
C3492 C 0.75217 0.6412 0.55539 0.0
C3493 C 0.76588 0.66624 0.62458 0.0
C3494 C 0.77192 0.66435 0.65379 0.0
C3495 C 0.76336 0.67502 0.62937 0.0
C3496 C 0.75658 0.67713 0.60034 0.0
C3497 C 0.74579 0.66846 0.58943 0.0
C3498 C 0.73951 0.67048 0.5617 0.0
C3499 C 0.7439 0.68115 0.54489 0.0
C3500 C 0.75457 0.68984 0.55587 0.0
C3501 C 0.76089 0.68787 0.58355 0.0
H3502 H 0.73903 0.68269 0.52342 0.0
H3503 H 0.79919 0.66327 0.7963 0.0
H3504 H 0.90441 0.66082 0.49303 0.0
H3505 H 0.90816 0.67069 0.55477 0.0
H3506 H 0.89442 0.63912 0.61669 0.0
H3507 H 0.89033 0.62897 0.55395 0.0
H3508 H 0.88808 0.65382 0.64908 0.0
H3509 H 0.92234 0.65535 0.60929 0.0
H3510 H 0.93763 0.65872 0.56364 0.0
H3511 H 0.94687 0.69355 0.55436 0.0
H3512 H 0.93152 0.69036 0.59954 0.0
H3513 H 0.91349 0.6771 0.83008 0.0
H3514 H 0.90757 0.66691 0.76869 0.0
H3515 H 0.92193 0.69837 0.70577 0.0
H3516 H 0.92807 0.70878 0.76791 0.0
H3517 H 0.92768 0.68363 0.67401 0.0
H3518 H 0.89363 0.68216 0.71538 0.0
H3519 H 0.87846 0.67876 0.76162 0.0
H3520 H 0.86887 0.6438 0.76862 0.0
H3521 H 0.88411 0.64702 0.72289 0.0
C3522 C 0.90207 0.65588 0.51961 0.0
C3523 C 0.89714 0.64408 0.51857 0.0
C3524 C 0.90428 0.66159 0.55498 0.0
C3525 C 0.90179 0.65568 0.5903 0.0
C3526 C 0.89647 0.64384 0.58964 0.0
C3527 C 0.89416 0.63806 0.5539 0.0
C3528 C 0.90512 0.66206 0.62753 0.0
C3529 C 0.89676 0.66022 0.65488 0.0
C3530 C 0.91641 0.67062 0.63449 0.0
C3531 C 0.92572 0.67259 0.60757 0.0
C3532 C 0.92758 0.66371 0.59731 0.0
C3533 C 0.93627 0.66559 0.57155 0.0
C3534 C 0.94321 0.67634 0.55604 0.0
C3535 C 0.94149 0.68523 0.56637 0.0
C3536 C 0.9328 0.68339 0.59209 0.0
C3537 C 0.91535 0.68192 0.8033 0.0
C3538 C 0.92122 0.69378 0.80385 0.0
C3539 C 0.9119 0.67604 0.76818 0.0
C3540 C 0.91414 0.68187 0.73272 0.0
C3541 C 0.92006 0.69373 0.73294 0.0
C3542 C 0.92354 0.69966 0.76834 0.0
C3543 C 0.91064 0.67544 0.69558 0.0
C3544 C 0.91899 0.67726 0.66823 0.0
C3545 C 0.89935 0.66686 0.68874 0.0
C3546 C 0.89008 0.66486 0.71591 0.0
C3547 C 0.88834 0.67376 0.72698 0.0
C3548 C 0.87972 0.67186 0.75308 0.0
C3549 C 0.87272 0.66107 0.76811 0.0
C3550 C 0.8743 0.65215 0.75697 0.0
C3551 C 0.88293 0.65401 0.73093 0.0
H3552 H 0.86605 0.65962 0.78832 0.0
H3553 H 0.94992 0.67777 0.53609 0.0
H3554 H 0.29741 0.21784 0.77022 0.0
H3555 H 0.30732 0.22213 0.70693 0.0
H3556 H 0.33597 0.25101 0.75842 0.0
H3557 H 0.32626 0.24677 0.82097 0.0
H3558 H 0.33104 0.25557 0.68525 0.0
H3559 H 0.33645 0.22758 0.75112 0.0
H3560 H 0.32996 0.20935 0.78398 0.0
H3561 H 0.31289 0.19183 0.67931 0.0
H3562 H 0.31912 0.21 0.646 0.0
H3563 H 0.37545 0.26635 0.55351 0.0
H3564 H 0.36465 0.26091 0.6149 0.0
H3565 H 0.3365 0.23353 0.55543 0.0
H3566 H 0.34705 0.23899 0.49451 0.0
H3567 H 0.34056 0.22775 0.63107 0.0
H3568 H 0.33557 0.2561 0.56534 0.0
H3569 H 0.34208 0.27451 0.53372 0.0
H3570 H 0.35867 0.29147 0.63973 0.0
H3571 H 0.3524 0.27315 0.67181 0.0
C3572 C 0.30573 0.22519 0.76763 0.0
C3573 C 0.31111 0.23194 0.80034 0.0
C3574 C 0.3114 0.2276 0.7317 0.0
C3575 C 0.3224 0.23684 0.72822 0.0
C3576 C 0.32749 0.24385 0.76049 0.0
C3577 C 0.32195 0.24138 0.79622 0.0
C3578 C 0.32901 0.23902 0.69186 0.0
C3579 C 0.33317 0.24951 0.67353 0.0
C3580 C 0.33172 0.23107 0.67654 0.0
C3581 C 0.32813 0.22015 0.69622 0.0
C3582 C 0.33124 0.21984 0.7352 0.0
C3583 C 0.32761 0.20952 0.7539 0.0
C3584 C 0.32098 0.19944 0.73379 0.0
C3585 C 0.318 0.19966 0.69487 0.0
C3586 C 0.32158 0.20996 0.67606 0.0
C3587 C 0.36704 0.25907 0.55381 0.0
C3588 C 0.36206 0.25316 0.51922 0.0
C3589 C 0.36088 0.25599 0.58874 0.0
C3590 C 0.34976 0.24686 0.58948 0.0
C3591 C 0.34506 0.24059 0.55544 0.0
C3592 C 0.3511 0.24377 0.52058 0.0
C3593 C 0.34265 0.24433 0.62471 0.0
C3594 C 0.33839 0.23377 0.64276 0.0
C3595 C 0.33989 0.25224 0.63996 0.0
C3596 C 0.34363 0.26326 0.62082 0.0
C3597 C 0.3407 0.26376 0.58179 0.0
C3598 C 0.34433 0.27418 0.56381 0.0
C3599 C 0.35082 0.28416 0.58466 0.0
C3600 C 0.35367 0.28374 0.62359 0.0
C3601 C 0.35007 0.27334 0.64169 0.0
H3602 H 0.35362 0.29222 0.57069 0.0
H3603 H 0.31817 0.19145 0.74834 0.0
H3604 H 0.78393 0.07831 0.77145 0.0
H3605 H 0.77872 0.0838 0.70984 0.0
H3606 H 0.76158 0.09778 0.77468 0.0
H3607 H 0.76655 0.09227 0.83553 0.0
H3608 H 0.74894 0.08527 0.7152 0.0
H3609 H 0.78716 0.11469 0.73585 0.0
H3610 H 0.80748 0.12244 0.74761 0.0
H3611 H 0.81041 0.10838 0.6391 0.0
H3612 H 0.79005 0.10037 0.62701 0.0
H3613 H 0.74124 0.1152 0.55767 0.0
H3614 H 0.7475 0.11152 0.6206 0.0
H3615 H 0.7644 0.09658 0.55989 0.0
H3616 H 0.75827 0.10017 0.49777 0.0
H3617 H 0.7774 0.11028 0.61822 0.0
H3618 H 0.73896 0.08015 0.59968 0.0
H3619 H 0.71858 0.07222 0.58873 0.0
H3620 H 0.71617 0.08782 0.6943 0.0
H3621 H 0.73659 0.09598 0.70559 0.0
C3622 C 0.77905 0.08254 0.77239 0.0
C3623 C 0.77568 0.08488 0.80826 0.0
C3624 C 0.77612 0.0857 0.7373 0.0
C3625 C 0.76981 0.09125 0.7378 0.0
C3626 C 0.76641 0.09349 0.77361 0.0
C3627 C 0.76932 0.09036 0.80841 0.0
C3628 C 0.76664 0.09474 0.70124 0.0
C3629 C 0.75517 0.09085 0.69421 0.0
C3630 C 0.77478 0.10192 0.67374 0.0
C3631 C 0.78705 0.10683 0.68071 0.0
C3632 C 0.79211 0.11317 0.71463 0.0
C3633 C 0.80364 0.11762 0.72135 0.0
C3634 C 0.81022 0.11588 0.69416 0.0
C3635 C 0.80529 0.10971 0.66016 0.0
C3636 C 0.79376 0.10522 0.65335 0.0
C3637 C 0.74633 0.11119 0.5579 0.0
C3638 C 0.74924 0.10797 0.52281 0.0
C3639 C 0.74989 0.10908 0.59375 0.0
C3640 C 0.75639 0.10374 0.59481 0.0
C3641 C 0.75946 0.10076 0.55974 0.0
C3642 C 0.75589 0.1028 0.5242 0.0
C3643 C 0.7597 0.10078 0.63221 0.0
C3644 C 0.77118 0.10476 0.63936 0.0
C3645 C 0.75159 0.0937 0.65993 0.0
C3646 C 0.73932 0.08878 0.65323 0.0
C3647 C 0.7341 0.08197 0.62038 0.0
C3648 C 0.72254 0.07741 0.61415 0.0
C3649 C 0.71609 0.07954 0.64074 0.0
C3650 C 0.72119 0.0862 0.67369 0.0
C3651 C 0.73275 0.09078 0.68003 0.0
H3652 H 0.70714 0.07601 0.63587 0.0
H3653 H 0.81914 0.11933 0.69941 0.0
H3654 H 0.7098 0.92051 0.21651 0.0
H3655 H 0.69956 0.91388 0.27892 0.0
H3656 H 0.67786 0.92686 0.24541 0.0
H3657 H 0.68776 0.93311 0.18299 0.0
H3658 H 0.68605 0.93133 0.32622 0.0
H3659 H 0.66772 0.9017 0.23066 0.0
H3660 H 0.66746 0.8887 0.18032 0.0
H3661 H 0.67875 0.87335 0.26478 0.0
H3662 H 0.67931 0.88644 0.3155 0.0
H3663 H 0.63654 0.89935 0.44501 0.0
H3664 H 0.64732 0.90509 0.3835 0.0
H3665 H 0.67159 0.89729 0.43259 0.0
H3666 H 0.66127 0.89213 0.49421 0.0
H3667 H 0.66239 0.88994 0.34473 0.0
H3668 H 0.68202 0.92044 0.4387 0.0
H3669 H 0.68282 0.93382 0.48853 0.0
H3670 H 0.66922 0.94754 0.40628 0.0
H3671 H 0.66815 0.93407 0.35613 0.0
C3672 C 0.70299 0.92211 0.223 0.0
C3673 C 0.69954 0.92731 0.19529 0.0
C3674 C 0.69713 0.91829 0.25837 0.0
C3675 C 0.68796 0.91987 0.26652 0.0
C3676 C 0.68493 0.92559 0.23962 0.0
C3677 C 0.69057 0.92913 0.20406 0.0
C3678 C 0.68099 0.91498 0.30183 0.0
C3679 C 0.68084 0.92229 0.33017 0.0
C3680 C 0.67426 0.90319 0.30693 0.0
C3681 C 0.67371 0.89515 0.27675 0.0
C3682 C 0.67026 0.89563 0.23842 0.0
C3683 C 0.67004 0.88823 0.20983 0.0
C3684 C 0.67312 0.88023 0.21931 0.0
C3685 C 0.67639 0.87958 0.25746 0.0
C3686 C 0.67666 0.88698 0.28615 0.0
C3687 C 0.64407 0.8987 0.44232 0.0
C3688 C 0.6481 0.89534 0.47432 0.0
C3689 C 0.6502 0.90197 0.40734 0.0
C3690 C 0.66022 0.90159 0.40375 0.0
C3691 C 0.66386 0.89759 0.43488 0.0
C3692 C 0.65796 0.89468 0.47009 0.0
C3693 C 0.66748 0.90631 0.369 0.0
C3694 C 0.66765 0.89897 0.34077 0.0
C3695 C 0.67426 0.91808 0.36393 0.0
C3696 C 0.67482 0.92614 0.39394 0.0
C3697 C 0.67905 0.9262 0.43143 0.0
C3698 C 0.67959 0.93383 0.45968 0.0
C3699 C 0.67602 0.94149 0.45064 0.0
C3700 C 0.67194 0.94157 0.41328 0.0
C3701 C 0.67136 0.93394 0.38494 0.0
H3702 H 0.67647 0.94741 0.47253 0.0
H3703 H 0.67295 0.87451 0.19713 0.0
H3704 H 0.11306 0.74054 0.44002 0.0
H3705 H 0.10774 0.74566 0.37805 0.0
H3706 H 0.10269 0.77046 0.43835 0.0
H3707 H 0.10749 0.7651 0.49982 0.0
H3708 H 0.08587 0.75906 0.39251 0.0
H3709 H 0.1262 0.77752 0.37839 0.0
H3710 H 0.14473 0.77861 0.37666 0.0
H3711 H 0.13355 0.75496 0.28167 0.0
H3712 H 0.11491 0.75362 0.28316 0.0
H3713 H 0.08033 0.78626 0.22189 0.0
H3714 H 0.08676 0.78245 0.28415 0.0
H3715 H 0.09172 0.7571 0.22757 0.0
H3716 H 0.08573 0.7611 0.16574 0.0
H3717 H 0.10896 0.76941 0.27193 0.0
H3718 H 0.06839 0.75064 0.28798 0.0
H3719 H 0.04994 0.74971 0.29016 0.0
H3720 H 0.06184 0.77433 0.38214 0.0
H3721 H 0.0804 0.7755 0.38019 0.0
C3722 C 0.11088 0.74712 0.43985 0.0
C3723 C 0.1107 0.75241 0.47477 0.0
C3724 C 0.10788 0.75008 0.40447 0.0
C3725 C 0.10488 0.75852 0.40348 0.0
C3726 C 0.10491 0.7639 0.43832 0.0
C3727 C 0.10773 0.76085 0.47352 0.0
C3728 C 0.10132 0.76157 0.36666 0.0
C3729 C 0.091 0.76146 0.36629 0.0
C3730 C 0.1079 0.76453 0.33223 0.0
C3731 C 0.11913 0.76539 0.33113 0.0
C3732 C 0.12767 0.77249 0.3573 0.0
C3733 C 0.1382 0.77317 0.35634 0.0
C3734 C 0.1403 0.76684 0.32914 0.0
C3735 C 0.1319 0.75985 0.30276 0.0
C3736 C 0.12136 0.75914 0.30362 0.0
C3737 C 0.08275 0.77985 0.22297 0.0
C3738 C 0.08254 0.77398 0.18906 0.0
C3739 C 0.0864 0.77766 0.25847 0.0
C3740 C 0.08967 0.76943 0.26059 0.0
C3741 C 0.08933 0.76353 0.22669 0.0
C3742 C 0.08585 0.76581 0.19136 0.0
C3743 C 0.0935 0.76686 0.29779 0.0
C3744 C 0.10386 0.76705 0.29822 0.0
C3745 C 0.08699 0.76401 0.33234 0.0
C3746 C 0.07581 0.76324 0.33367 0.0
C3747 C 0.06708 0.75591 0.3085 0.0
C3748 C 0.05661 0.75532 0.30972 0.0
C3749 C 0.05472 0.76197 0.3362 0.0
C3750 C 0.06331 0.76919 0.36161 0.0
C3751 C 0.07381 0.76981 0.36048 0.0
H3752 H 0.04661 0.76152 0.33709 0.0
H3753 H 0.14845 0.76737 0.32845 0.0
H3754 H 0.24524 0.32725 0.16504 0.0
H3755 H 0.24974 0.33713 0.22717 0.0
H3756 H 0.22815 0.30585 0.2868 0.0
H3757 H 0.22354 0.29574 0.22384 0.0
H3758 H 0.22486 0.32399 0.30898 0.0
H3759 H 0.25526 0.31655 0.29597 0.0
H3760 H 0.27088 0.31596 0.26238 0.0
H3761 H 0.28848 0.35199 0.25026 0.0
H3762 H 0.27289 0.35278 0.28328 0.0
H3763 H 0.24461 0.34409 0.49889 0.0
H3764 H 0.23955 0.33409 0.43702 0.0
H3765 H 0.26138 0.36508 0.37622 0.0
H3766 H 0.26653 0.37531 0.43884 0.0
H3767 H 0.26441 0.34696 0.35484 0.0
H3768 H 0.2341 0.35445 0.36842 0.0
H3769 H 0.2186 0.35507 0.40273 0.0
H3770 H 0.20084 0.31903 0.41402 0.0
H3771 H 0.21634 0.31819 0.38038 0.0
C3772 C 0.24146 0.32241 0.19132 0.0
C3773 C 0.23404 0.31071 0.18964 0.0
C3774 C 0.24408 0.32809 0.22683 0.0
C3775 C 0.23935 0.32221 0.26153 0.0
C3776 C 0.2319 0.3105 0.2602 0.0
C3777 C 0.22933 0.30475 0.2244 0.0
C3778 C 0.24213 0.32851 0.2988 0.0
C3779 C 0.23347 0.32886 0.31946 0.0
C3780 C 0.25343 0.33514 0.31157 0.0
C3781 C 0.26285 0.33471 0.29181 0.0
C3782 C 0.26242 0.32434 0.28585 0.0
C3783 C 0.27128 0.32397 0.26697 0.0
C3784 C 0.28065 0.33393 0.25412 0.0
C3785 C 0.28121 0.34428 0.26021 0.0
C3786 C 0.27237 0.34469 0.27904 0.0
C3787 C 0.24828 0.34886 0.47244 0.0
C3788 C 0.25596 0.36052 0.47371 0.0
C3789 C 0.24534 0.34311 0.43705 0.0
C3790 C 0.25001 0.34886 0.40209 0.0
C3791 C 0.25766 0.36052 0.40301 0.0
C3792 C 0.26055 0.36635 0.43865 0.0
C3793 C 0.24715 0.34246 0.36503 0.0
C3794 C 0.2558 0.3421 0.34439 0.0
C3795 C 0.23585 0.33582 0.35231 0.0
C3796 C 0.22644 0.33627 0.37217 0.0
C3797 C 0.22694 0.34666 0.37849 0.0
C3798 C 0.21815 0.34705 0.39779 0.0
C3799 C 0.20876 0.3371 0.41062 0.0
C3800 C 0.20813 0.32673 0.40409 0.0
C3801 C 0.21691 0.32629 0.38488 0.0
H3802 H 0.20196 0.33742 0.42556 0.0
H3803 H 0.2875 0.33363 0.23951 0.0
H3804 H 0.04316 0.4495 0.8906 0.0
H3805 H 0.03275 0.44464 0.95274 0.0
H3806 H 1.00147 0.43217 0.88969 0.0
H3807 H 0.01167 0.43696 0.82823 0.0
H3808 H 1.00185 0.44396 0.95403 0.0
H3809 H 0.00954 0.41415 0.92094 0.0
H3810 H 0.02174 0.40629 0.90426 0.0
H3811 H 0.03949 0.4185 0.01281 0.0
H3812 H 0.02748 0.42657 0.0299 0.0
H3813 H 0.96351 0.4092 0.10477 0.0
H3814 H 0.97367 0.41552 0.04218 0.0
H3815 H 0.00529 0.4276 0.10277 0.0
H3816 H 0.99534 0.42128 0.16439 0.0
H3817 H 0.00452 0.41609 0.03914 0.0
H3818 H 0.99672 0.44557 0.07348 0.0
H3819 H 0.9845 0.45334 0.09098 0.0
H3820 H 0.96709 0.44197 0.98148 0.0
H3821 H 0.97911 0.43397 0.96357 0.0
C3822 C 0.03408 0.44583 0.89015 0.0
C3823 C 0.02824 0.44355 0.85456 0.0
C3824 C 0.02815 0.44304 0.92555 0.0
C3825 C 0.01632 0.43796 0.92572 0.0
C3826 C 0.01058 0.4361 0.89025 0.0
C3827 C 0.01645 0.43881 0.85509 0.0
C3828 C 0.00976 0.43391 0.9624 0.0
C3829 C 1.00236 0.43781 0.97255 0.0
C3830 C 0.01051 0.42596 0.98664 0.0
C3831 C 0.0177 0.42107 0.97649 0.0
C3832 C 0.0161 0.41523 0.94111 0.0
C3833 C 0.02297 0.41073 0.93161 0.0
C3834 C 0.0314 0.41192 0.95741 0.0
C3835 C 0.03297 0.4176 0.99282 0.0
C3836 C 0.02613 0.42213 0.00244 0.0
C3837 C 0.97261 0.41315 0.1045 0.0
C3838 C 0.97862 0.41477 0.13941 0.0
C3839 C 0.97841 0.4168 0.0689 0.0
C3840 C 0.99025 0.42209 0.06797 0.0
C3841 C 0.99617 0.42353 0.10279 0.0
C3842 C 0.99044 0.41994 0.13805 0.0
C3843 C 0.99666 0.42619 0.03104 0.0
C3844 C 0.00401 0.42227 0.02074 0.0
C3845 C 0.99589 0.43414 0.00684 0.0
C3846 C 0.98873 0.43906 0.01736 0.0
C3847 C 0.99023 0.44464 0.05326 0.0
C3848 C 0.98335 0.4491 0.06324 0.0
C3849 C 0.975 0.44812 0.03741 0.0
C3850 C 0.97355 0.44271 0.00149 0.0
C3851 C 0.9804 0.43821 0.9914 0.0
H3852 H 0.96968 0.45158 0.0452 0.0
H3853 H 0.03671 0.40843 0.95001 0.0
H3854 H 0.59722 0.58257 0.15768 0.0
H3855 H 0.59146 0.58702 0.09598 0.0
H3856 H 0.58266 0.55415 0.05138 0.0
H3857 H 0.589 0.54986 0.11307 0.0
H3858 H 0.5917 0.56963 0.99537 0.0
H3859 H 0.56256 0.55981 0.09092 0.0
H3860 H 0.55499 0.56114 0.15479 0.0
H3861 H 0.5652 0.59578 0.13217 0.0
H3862 H 0.573 0.59471 0.06841 0.0
H3863 H 0.55903 0.57047 0.84106 0.0
H3864 H 0.56408 0.56532 0.90254 0.0
H3865 H 0.57258 0.59774 0.95073 0.0
H3866 H 0.56682 0.60269 0.88921 0.0
H3867 H 0.56339 0.58205 0.00499 0.0
H3868 H 0.59298 0.59199 0.91025 0.0
H3869 H 0.60071 0.59068 0.84663 0.0
H3870 H 0.58964 0.55579 0.86792 0.0
H3871 H 0.58172 0.55685 0.93145 0.0
C3872 C 0.59423 0.57636 0.13442 0.0
C3873 C 0.59348 0.56586 0.13995 0.0
C3874 C 0.59086 0.57888 0.09933 0.0
C3875 C 0.58629 0.57079 0.06953 0.0
C3876 C 0.58607 0.56047 0.07418 0.0
C3877 C 0.58971 0.55804 0.10923 0.0
C3878 C 0.58143 0.57304 0.03426 0.0
C3879 C 0.58539 0.57218 -0.00257 0.0
C3880 C 0.57336 0.57661 0.03702 0.0
C3881 C 0.56843 0.57719 0.07498 0.0
C3882 C 0.56323 0.56772 0.09963 0.0
C3883 C 0.5589 0.56843 0.13582 0.0
C3884 C 0.55962 0.57854 0.14755 0.0
C3885 C 0.56465 0.58796 0.12305 0.0
C3886 C 0.56901 0.5873 0.08686 0.0
C3887 C 0.56178 0.57645 0.86488 0.0
C3888 C 0.56263 0.58702 0.86031 0.0
C3889 C 0.56477 0.57352 0.89999 0.0
C3890 C 0.56909 0.58129 0.93082 0.0
C3891 C 0.56938 0.59166 0.92714 0.0
C3892 C 0.56608 0.59448 0.89212 0.0
C3893 C 0.5737 0.5787 0.96607 0.0
C3894 C 0.56969 0.57948 0.00291 0.0
C3895 C 0.58173 0.57506 0.96333 0.0
C3896 C 0.58669 0.57448 0.92547 0.0
C3897 C 0.59216 0.58403 0.90129 0.0
C3898 C 0.59657 0.58333 0.86525 0.0
C3899 C 0.59565 0.57316 0.85321 0.0
C3900 C 0.59035 0.56366 0.87726 0.0
C3901 C 0.5859 0.56431 0.91331 0.0
H3902 H 0.59906 0.57263 0.82528 0.0
H3903 H 0.55628 0.57908 0.1756 0.0
H3904 H 0.4535 0.03976 0.10723 0.0
H3905 H 0.45032 0.02924 0.04583 0.0
H3906 H 0.4229 0.99976 0.09965 0.0
H3907 H 0.42625 0.01004 0.16068 0.0
H3908 H 0.43562 0.9939 0.06185 0.0
H3909 H 0.41868 0.01669 0.03309 0.0
H3910 H 0.41839 0.03446 0.0262 0.0
H3911 H 0.44487 0.04614 0.94092 0.0
H3912 H 0.4454 0.02848 0.94766 0.0
H3913 H 0.40836 0.96139 0.88914 0.0
H3914 H 0.41356 0.97154 0.95186 0.0
H3915 H 0.44105 1.00036 0.89539 0.0
H3916 H 0.43572 0.99049 0.83335 0.0
H3917 H 0.42892 0.00673 0.93445 0.0
H3918 H 0.44525 0.98345 0.96128 0.0
H3919 H 0.44529 0.96555 0.96798 0.0
H3920 H 0.41977 0.95464 0.05659 0.0
H3921 H 0.41947 0.97242 0.05005 0.0
C3922 C 0.44673 0.03108 0.10562 0.0
C3923 C 0.44013 0.02571 0.13859 0.0
C3924 C 0.44492 0.02507 0.07066 0.0
C3925 C 0.43634 0.0137 0.06814 0.0
C3926 C 0.42962 0.00847 0.10093 0.0
C3927 C 0.43151 0.01439 0.13575 0.0
C3928 C 0.43434 0.00705 0.03178 0.0
C3929 C 0.43405 0.99666 0.03402 0.0
C3930 C 0.43251 0.01073 0.99536 0.0
C3931 C 0.43216 0.02132 0.99118 0.0
C3932 C 0.42449 0.02308 0.01308 0.0
C3933 C 0.42427 0.03313 0.00916 0.0
C3934 C 0.43163 0.04144 0.98322 0.0
C3935 C 0.43919 0.0397 0.96105 0.0
C3936 C 0.43945 0.02968 0.96488 0.0
C3937 C 0.41565 0.9698 0.8905 0.0
C3938 C 0.42157 0.97519 0.85639 0.0
C3939 C 0.41861 0.9756 0.92624 0.0
C3940 C 0.42767 0.98676 0.92826 0.0
C3941 C 0.43396 0.99182 0.89451 0.0
C3942 C 0.43091 0.98614 0.859 0.0
C3943 C 0.43019 0.99357 0.96446 0.0
C3944 C 0.43055 0.00398 0.9622 0.0
C3945 C 0.43206 0.98989 0.00083 0.0
C3946 C 0.43226 0.97922 0.0049 0.0
C3947 C 0.43959 0.9772 0.98198 0.0
C3948 C 0.43967 0.96708 0.98579 0.0
C3949 C 0.43252 0.95895 0.01262 0.0
C3950 C 0.42529 0.96094 0.03579 0.0
C3951 C 0.42517 0.97104 0.03207 0.0
H3952 H 0.43259 0.95112 0.01552 0.0
H3953 H 0.43145 0.04921 0.98023 0.0
H3954 H 0.5725 0.99385 0.82515 0.0
H3955 H 0.5759 0.00373 0.88675 0.0
H3956 H 0.56178 0.97217 0.9489 0.0
H3957 H 0.55804 0.96201 0.88629 0.0
H3958 H 0.55524 0.98712 0.97948 0.0
H3959 H 0.58957 0.98808 0.9433 0.0
H3960 H 0.60506 0.99129 0.89889 0.0
H3961 H 0.61474 0.02622 0.88903 0.0
H3962 H 0.59919 0.02319 0.93295 0.0
H3963 H 0.57961 0.00919 0.16218 0.0
H3964 H 0.574 0.99939 0.10004 0.0
H3965 H 0.58918 0.03124 0.0393 0.0
H3966 H 0.59498 0.04126 0.10224 0.0
H3967 H 0.59486 0.01634 0.00758 0.0
H3968 H 0.56105 0.01564 0.04594 0.0
H3969 H 0.54575 0.01256 0.09108 0.0
H3970 H 0.53509 0.97732 0.09723 0.0
H3971 H 0.55047 0.98022 0.05268 0.0
C3972 C 0.56999 0.98892 0.85174 0.0
C3973 C 0.56506 0.97712 0.85084 0.0
C3974 C 0.572 0.99463 0.88702 0.0
C3975 C 0.56929 0.98871 0.92235 0.0
C3976 C 0.56398 0.97688 0.92181 0.0
C3977 C 0.56189 0.9711 0.88617 0.0
C3978 C 0.57243 0.99509 0.95953 0.0
C3979 C 0.56391 0.99338 0.98599 0.0
C3980 C 0.58372 0.00351 0.96729 0.0
C3981 C 0.59315 0.00538 0.94117 0.0
C3982 C 0.59495 0.99643 0.93145 0.0
C3983 C 0.60375 0.99822 0.90639 0.0
C3984 C 0.61087 0.00895 0.89108 0.0
C3985 C 0.60921 0.01792 0.90089 0.0
C3986 C 0.60041 0.01617 0.92589 0.0
C3987 C 0.58172 0.01417 0.13573 0.0
C3988 C 0.5877 0.02602 0.13709 0.0
C3989 C 0.57845 0.00853 0.10018 0.0
C3990 C 0.58102 0.01458 0.06514 0.0
C3991 C 0.58707 0.02643 0.06617 0.0
C3992 C 0.59036 0.03213 0.102 0.0
C3993 C 0.57768 0.00837 0.02764 0.0
C3994 C 0.58617 0.0101 0.00108 0.0
C3995 C 0.56637 0.99999 0.01986 0.0
C3996 C 0.55698 0.99817 0.04616 0.0
C3997 C 0.5555 0.00725 0.05711 0.0
C3998 C 0.5468 0.00553 0.08259 0.0
C3999 C 0.53946 0.99475 0.09706 0.0
C4000 C 0.54079 0.98566 0.086 0.0
C4001 C 0.54949 0.98734 0.06061 0.0
H4002 H 0.53274 0.99344 0.1168 0.0
H4003 H 0.61767 0.01032 0.87168 0.0
H4004 H 0.04246 0.59395 0.88565 0.0
H4005 H 0.03155 0.5872 0.94658 0.0
H4006 H 1.00083 0.57703 0.88233 0.0
H4007 H 0.01154 0.58373 0.82209 0.0
H4008 H 1.00171 0.58838 0.94781 0.0
H4009 H 0.00737 0.55781 0.9108 0.0
H4010 H 0.01859 0.54899 0.89228 0.0
H4011 H 0.03571 0.55849 0.00278 0.0
H4012 H 0.02473 0.56755 0.02168 0.0
H4013 H 0.96311 0.55642 0.10031 0.0
H4014 H 0.97283 0.56084 0.03679 0.0
H4015 H 0.00449 0.57166 0.09549 0.0
H4016 H 0.99499 0.56735 0.15819 0.0
H4017 H 1.00246 0.55916 0.03125 0.0
H4018 H 0.99768 0.59071 0.06618 0.0
H4019 H 0.98676 0.59987 0.08432 0.0
H4020 H 0.96805 0.58852 0.97717 0.0
H4021 H 0.97878 0.57916 0.95864 0.0
C4022 C 0.03339 0.59029 0.88469 0.0
C4023 C 0.02786 0.58935 0.84916 0.0
C4024 C 0.02717 0.58641 0.91937 0.0
C4025 C 0.01537 0.58157 0.91884 0.0
C4026 C 0.00991 0.58074 0.88341 0.0
C4027 C 0.01607 0.58455 0.84896 0.0
C4028 C 0.00859 0.57737 0.95502 0.0
C4029 C 1.00177 0.58189 0.9658 0.0
C4030 C 0.00877 0.569 0.97863 0.0
C4031 C 0.01531 0.56347 0.96749 0.0
C4032 C 0.0136 0.5581 0.93103 0.0
C4033 C 0.0199 0.55305 0.92047 0.0
C4034 C 0.02787 0.5532 0.9463 0.0
C4035 C 0.02954 0.55839 0.98278 0.0
C4036 C 0.02328 0.56349 0.99343 0.0
C4037 C 0.97212 0.55965 0.09949 0.0
C4038 C 0.97828 0.56156 0.13423 0.0
C4039 C 0.97766 0.56218 0.06331 0.0
C4040 C 0.9894 0.56662 0.06153 0.0
C4041 C 0.99544 0.5682 0.09615 0.0
C4042 C 0.98997 0.56576 0.13206 0.0
C4043 C 0.99562 0.5702 0.02407 0.0
C4044 C 1.00235 0.56559 0.01307 0.0
C4045 C 0.99537 0.57849 0.00019 0.0
C4046 C 0.98893 0.58412 0.01126 0.0
C4047 C 0.99117 0.59009 0.04665 0.0
C4048 C 0.98503 0.59533 0.05697 0.0
C4049 C 0.97669 0.59475 0.03197 0.0
C4050 C 0.9745 0.58895 -0.00346 0.0
C4051 C 0.98061 0.58367 0.98611 0.0
H4052 H 0.97195 0.59882 0.04 0.0
H4053 H 0.03274 0.54928 0.93809 0.0
H4054 H 0.45655 0.4153 0.10767 0.0
H4055 H 0.45243 0.42105 0.04431 0.0
H4056 H 0.42304 0.42005 0.0944 0.0
H4057 H 0.42711 0.41446 0.15695 0.0
H4058 H 0.41883 0.41048 0.02168 0.0
H4059 H 0.44616 0.44429 0.08717 0.0
H4060 H 0.46427 0.45652 0.12022 0.0
H4061 H 0.48217 0.45737 0.01614 0.0
H4062 H 0.46415 0.44497 0.98265 0.0
H4063 H 0.40704 0.44305 0.88871 0.0
H4064 H 0.41293 0.43837 0.95054 0.0
H4065 H 0.44015 0.43741 0.89086 0.0
H4066 H 0.43423 0.44179 0.82948 0.0
H4067 H 0.44604 0.44796 0.9668 0.0
H4068 H 0.41823 0.41398 0.90184 0.0
H4069 H 0.3999 0.4017 0.87018 0.0
H4070 H 0.38269 0.40143 0.97538 0.0
H4071 H 0.40094 0.41387 0.00747 0.0
C4072 C 0.44915 0.41617 0.10477 0.0
C4073 C 0.44217 0.4145 0.13708 0.0
C4074 C 0.44683 0.4195 0.06881 0.0
C4075 C 0.43746 0.42104 0.06489 0.0
C4076 C 0.4303 0.41891 0.09681 0.0
C4077 C 0.43267 0.41576 0.13256 0.0
C4078 C 0.4352 0.42529 0.02827 0.0
C4079 C 0.42476 0.4187 0.00982 0.0
C4080 C 0.44297 0.43598 0.01275 0.0
C4081 C 0.45381 0.44359 0.03256 0.0
C4082 C 0.45396 0.44701 0.07142 0.0
C4083 C 0.46421 0.45398 0.09023 0.0
C4084 C 0.47437 0.45768 0.07035 0.0
C4085 C 0.4743 0.45447 0.03154 0.0
C4086 C 0.46407 0.44747 0.01262 0.0
C4087 C 0.41438 0.44202 0.88904 0.0
C4088 C 0.42011 0.44268 0.85427 0.0
C4089 C 0.41772 0.43934 0.92423 0.0
C4090 C 0.42694 0.4375 0.92505 0.0
C4091 C 0.43304 0.43883 0.8908 0.0
C4092 C 0.42959 0.44127 0.85568 0.0
C4093 C 0.42964 0.43317 0.96056 0.0
C4094 C 0.44015 0.43973 0.97867 0.0
C4095 C 0.42191 0.42247 0.97602 0.0
C4096 C 0.41094 0.41495 0.95689 0.0
C4097 C 0.41053 0.41138 0.9181 0.0
C4098 C 0.40016 0.40438 0.9001 0.0
C4099 C 0.39013 0.40082 0.92072 0.0
C4100 C 0.39046 0.40422 0.95942 0.0
C4101 C 0.40082 0.41124 0.97753 0.0
H4102 H 0.38211 0.39539 0.90674 0.0
H4103 H 0.48229 0.46307 0.08498 0.0
loop_
_geom_bond_atom_site_label_1
_geom_bond_atom_site_label_2
_geom_bond_distance
_geom_bond_site_symmetry_2
_ccdc_geom_bond_type
Co0 O1 2.216 . S
Co0 O2 2.091 . S
Co0 O4 2.004 . S
Co0 O10 2.021 . S
Co0 O12 2.137 . S
Co0 O13 2.244 . S
O1 Co0 2.216 . S
O1 C8 1.247 . S
O2 Co0 2.091 . S
O2 C8 1.261 . S
C3 O12 1.247 . S
C3 O13 1.272 . S
O4 Co0 2.004 . S
O4 C9 1.259 . S
Co5 O6 2.061 . S
Co5 O11 2.052 . S
Co5 O13 2.135 . S
O6 Co5 2.061 . S
O6 C9 1.235 . S
C7 O10 1.238 . S
C7 O11 1.241 . S
C8 O1 1.247 . S
C8 O2 1.261 . S
C9 O4 1.259 . S
C9 O6 1.235 . S
O10 Co0 2.021 . S
O10 C7 1.238 . S
O11 Co5 2.052 . S
O11 C7 1.241 . S
O12 Co0 2.137 . S
O12 C3 1.247 . S
O13 Co0 2.244 . S
O13 C3 1.272 . S
O13 Co5 2.135 . S
Co14 O15 2.216 . S
Co14 O16 2.091 . S
Co14 O18 2.004 . S
Co14 O24 2.021 . S
Co14 O26 2.137 . S
Co14 O27 2.244 . S
O15 Co14 2.216 . S
O15 C22 1.247 . S
O16 Co14 2.091 . S
O16 C22 1.261 . S
C17 O26 1.247 . S
C17 O27 1.272 . S
O18 Co14 2.004 . S
O18 C23 1.259 . S
Co19 O20 2.061 . S
Co19 O25 2.052 . S
Co19 O27 2.135 . S
O20 Co19 2.061 . S
O20 C23 1.235 . S
C21 O24 1.238 . S
C21 O25 1.241 . S
C22 O15 1.247 . S
C22 O16 1.261 . S
C23 O18 1.259 . S
C23 O20 1.235 . S
O24 Co14 2.021 . S
O24 C21 1.238 . S
O25 Co19 2.052 . S
O25 C21 1.241 . S
O26 Co14 2.137 . S
O26 C17 1.247 . S
O27 Co14 2.244 . S
O27 C17 1.272 . S
O27 Co19 2.135 . S
Co28 O29 2.216 . S
Co28 O30 2.091 . S
Co28 O32 2.004 . S
Co28 O38 2.021 . S
Co28 O40 2.137 . S
Co28 O41 2.244 . S
O29 Co28 2.216 . S
O29 C36 1.247 . S
O30 Co28 2.091 . S
O30 C36 1.261 . S
C31 O40 1.247 . S
C31 O41 1.272 . S
O32 Co28 2.004 . S
O32 C37 1.259 . S
Co33 O34 2.061 . S
Co33 O39 2.052 . S
Co33 O41 2.135 . S
O34 Co33 2.061 . S
O34 C37 1.235 . S
C35 O38 1.238 . S
C35 O39 1.241 . S
C36 O29 1.247 . S
C36 O30 1.261 . S
C37 O32 1.259 . S
C37 O34 1.235 . S
O38 Co28 2.021 . S
O38 C35 1.238 . S
O39 Co33 2.052 . S
O39 C35 1.241 . S
O40 Co28 2.137 . S
O40 C31 1.247 . S
O41 Co28 2.244 . S
O41 C31 1.272 . S
O41 Co33 2.135 . S
Co42 O43 2.216 . S
Co42 O44 2.091 . S
Co42 O46 2.004 . S
Co42 O52 2.021 . S
Co42 O54 2.137 . S
Co42 O55 2.244 . S
O43 Co42 2.216 . S
O43 C50 1.247 . S
O44 Co42 2.091 . S
O44 C50 1.261 . S
C45 O54 1.247 . S
C45 O55 1.272 . S
O46 Co42 2.004 . S
O46 C51 1.259 . S
Co47 O48 2.061 . S
Co47 O53 2.052 . S
Co47 O55 2.135 . S
O48 Co47 2.061 . S
O48 C51 1.235 . S
C49 O52 1.238 . S
C49 O53 1.241 . S
C50 O43 1.247 . S
C50 O44 1.261 . S
C51 O46 1.259 . S
C51 O48 1.235 . S
O52 Co42 2.021 . S
O52 C49 1.238 . S
O53 Co47 2.052 . S
O53 C49 1.241 . S
O54 Co42 2.137 . S
O54 C45 1.247 . S
O55 Co42 2.244 . S
O55 C45 1.272 . S
O55 Co47 2.135 . S
Co56 O57 2.216 . S
Co56 O58 2.091 . S
Co56 O60 2.004 . S
Co56 O66 2.021 . S
Co56 O68 2.137 . S
Co56 O69 2.244 . S
O57 Co56 2.216 . S
O57 C64 1.247 . S
O58 Co56 2.091 . S
O58 C64 1.261 . S
C59 O68 1.247 . S
C59 O69 1.272 . S
O60 Co56 2.004 . S
O60 C65 1.259 . S
Co61 O62 2.061 . S
Co61 O67 2.052 . S
Co61 O69 2.135 . S
O62 Co61 2.061 . S
O62 C65 1.235 . S
C63 O66 1.238 . S
C63 O67 1.241 . S
C64 O57 1.247 . S
C64 O58 1.261 . S
C65 O60 1.259 . S
C65 O62 1.235 . S
O66 Co56 2.021 . S
O66 C63 1.238 . S
O67 Co61 2.052 . S
O67 C63 1.241 . S
O68 Co56 2.137 . S
O68 C59 1.247 . S
O69 Co56 2.244 . S
O69 C59 1.272 . S
O69 Co61 2.135 . S
Co70 O71 2.216 . S
Co70 O72 2.091 . S
Co70 O74 2.004 . S
Co70 O80 2.021 . S
Co70 O82 2.137 . S
Co70 O83 2.244 . S
O71 Co70 2.216 . S
O71 C78 1.247 . S
O72 Co70 2.091 . S
O72 C78 1.261 . S
C73 O82 1.247 . S
C73 O83 1.272 . S
O74 Co70 2.004 . S
O74 C79 1.259 . S
Co75 O76 2.061 . S
Co75 O81 2.052 . S
Co75 O83 2.135 . S
O76 Co75 2.061 . S
O76 C79 1.235 . S
C77 O80 1.238 . S
C77 O81 1.241 . S
C78 O71 1.247 . S
C78 O72 1.261 . S
C79 O74 1.259 . S
C79 O76 1.235 . S
O80 Co70 2.021 . S
O80 C77 1.238 . S
O81 Co75 2.052 . S
O81 C77 1.241 . S
O82 Co70 2.137 . S
O82 C73 1.247 . S
O83 Co70 2.244 . S
O83 C73 1.272 . S
O83 Co75 2.135 . S
Co84 O85 2.216 . S
Co84 O86 2.091 . S
Co84 O88 2.004 . S
Co84 O94 2.021 . S
Co84 O96 2.137 . S
Co84 O97 2.244 . S
O85 Co84 2.216 . S
O85 C92 1.247 . S
O86 Co84 2.091 . S
O86 C92 1.261 . S
C87 O96 1.247 . S
C87 O97 1.272 . S
O88 Co84 2.004 . S
O88 C93 1.259 . S
Co89 O90 2.061 . S
Co89 O95 2.052 . S
Co89 O97 2.135 . S
O90 Co89 2.061 . S
O90 C93 1.235 . S
C91 O94 1.238 . S
C91 O95 1.241 . S
C92 O85 1.247 . S
C92 O86 1.261 . S
C93 O88 1.259 . S
C93 O90 1.235 . S
O94 Co84 2.021 . S
O94 C91 1.238 . S
O95 Co89 2.052 . S
O95 C91 1.241 . S
O96 Co84 2.137 . S
O96 C87 1.247 . S
O97 Co84 2.244 . S
O97 C87 1.272 . S
O97 Co89 2.135 . S
Co98 O99 2.216 . S
Co98 O100 2.091 . S
Co98 O102 2.004 . S
Co98 O108 2.021 . S
Co98 O110 2.137 . S
Co98 O111 2.244 . S
O99 Co98 2.216 . S
O99 C106 1.247 . S
O100 Co98 2.091 . S
O100 C106 1.261 . S
C101 O110 1.247 . S
C101 O111 1.272 . S
O102 Co98 2.004 . S
O102 C107 1.259 . S
Co103 O104 2.061 . S
Co103 O109 2.052 . S
Co103 O111 2.135 . S
O104 Co103 2.061 . S
O104 C107 1.235 . S
C105 O108 1.238 . S
C105 O109 1.241 . S
C106 O99 1.247 . S
C106 O100 1.261 . S
C107 O102 1.259 . S
C107 O104 1.235 . S
O108 Co98 2.021 . S
O108 C105 1.238 . S
O109 Co103 2.052 . S
O109 C105 1.241 . S
O110 Co98 2.137 . S
O110 C101 1.247 . S
O111 Co98 2.244 . S
O111 C101 1.272 . S
O111 Co103 2.135 . S
Co112 O113 2.216 . S
Co112 O114 2.091 . S
Co112 O116 2.004 . S
Co112 O122 2.021 . S
Co112 O124 2.137 . S
Co112 O125 2.244 . S
O113 Co112 2.216 . S
O113 C120 1.247 . S
O114 Co112 2.091 . S
O114 C120 1.261 . S
C115 O124 1.247 . S
C115 O125 1.272 . S
O116 Co112 2.004 . S
O116 C121 1.259 . S
Co117 O118 2.061 . S
Co117 O123 2.052 . S
Co117 O125 2.135 . S
O118 Co117 2.061 . S
O118 C121 1.235 . S
C119 O122 1.238 . S
C119 O123 1.241 . S
C120 O113 1.247 . S
C120 O114 1.261 . S
C121 O116 1.259 . S
C121 O118 1.235 . S
O122 Co112 2.021 . S
O122 C119 1.238 . S
O123 Co117 2.052 . S
O123 C119 1.241 . S
O124 Co112 2.137 . S
O124 C115 1.247 . S
O125 Co112 2.244 . S
O125 C115 1.272 . S
O125 Co117 2.135 . S
Co126 O127 2.216 . S
Co126 O128 2.091 . S
Co126 O130 2.004 . S
Co126 O136 2.021 . S
Co126 O138 2.137 . S
Co126 O139 2.244 . S
O127 Co126 2.216 . S
O127 C134 1.247 . S
O128 Co126 2.091 . S
O128 C134 1.261 . S
C129 O138 1.247 . S
C129 O139 1.272 . S
O130 Co126 2.004 . S
O130 C135 1.259 . S
Co131 O132 2.061 . S
Co131 O137 2.052 . S
Co131 O139 2.135 . S
O132 Co131 2.061 . S
O132 C135 1.235 . S
C133 O136 1.238 . S
C133 O137 1.241 . S
C134 O127 1.247 . S
C134 O128 1.261 . S
C135 O130 1.259 . S
C135 O132 1.235 . S
O136 Co126 2.021 . S
O136 C133 1.238 . S
O137 Co131 2.052 . S
O137 C133 1.241 . S
O138 Co126 2.137 . S
O138 C129 1.247 . S
O139 Co126 2.244 . S
O139 C129 1.272 . S
O139 Co131 2.135 . S
Co140 O141 2.216 . S
Co140 O142 2.091 . S
Co140 O144 2.004 . S
Co140 O150 2.021 . S
Co140 O152 2.137 . S
Co140 O153 2.244 . S
O141 Co140 2.216 . S
O141 C148 1.247 . S
O142 Co140 2.091 . S
O142 C148 1.261 . S
C143 O152 1.247 . S
C143 O153 1.272 . S
O144 Co140 2.004 . S
O144 C149 1.259 . S
Co145 O146 2.061 . S
Co145 O151 2.052 . S
Co145 O153 2.135 . S
O146 Co145 2.061 . S
O146 C149 1.235 . S
C147 O150 1.238 . S
C147 O151 1.241 . S
C148 O141 1.247 . S
C148 O142 1.261 . S
C149 O144 1.259 . S
C149 O146 1.235 . S
O150 Co140 2.021 . S
O150 C147 1.238 . S
O151 Co145 2.052 . S
O151 C147 1.241 . S
O152 Co140 2.137 . S
O152 C143 1.247 . S
O153 Co140 2.244 . S
O153 C143 1.272 . S
O153 Co145 2.135 . S
Co154 O155 2.216 . S
Co154 O156 2.091 . S
Co154 O158 2.004 . S
Co154 O164 2.021 . S
Co154 O166 2.137 . S
Co154 O167 2.244 . S
O155 Co154 2.216 . S
O155 C162 1.247 . S
O156 Co154 2.091 . S
O156 C162 1.261 . S
C157 O166 1.247 . S
C157 O167 1.272 . S
O158 Co154 2.004 . S
O158 C163 1.259 . S
Co159 O160 2.061 . S
Co159 O165 2.052 . S
Co159 O167 2.135 . S
O160 Co159 2.061 . S
O160 C163 1.235 . S
C161 O164 1.238 . S
C161 O165 1.241 . S
C162 O155 1.247 . S
C162 O156 1.261 . S
C163 O158 1.259 . S
C163 O160 1.235 . S
O164 Co154 2.021 . S
O164 C161 1.238 . S
O165 Co159 2.052 . S
O165 C161 1.241 . S
O166 Co154 2.137 . S
O166 C157 1.247 . S
O167 Co154 2.244 . S
O167 C157 1.272 . S
O167 Co159 2.135 . S
Co168 O169 2.216 . S
Co168 O170 2.091 . S
Co168 O172 2.004 . S
Co168 O178 2.021 . S
Co168 O180 2.137 . S
Co168 O181 2.244 . S
O169 Co168 2.216 . S
O169 C176 1.247 . S
O170 Co168 2.091 . S
O170 C176 1.261 . S
C171 O180 1.247 . S
C171 O181 1.272 . S
O172 Co168 2.004 . S
O172 C177 1.259 . S
Co173 O174 2.061 . S
Co173 O179 2.052 . S
Co173 O181 2.135 . S
O174 Co173 2.061 . S
O174 C177 1.235 . S
C175 O178 1.238 . S
C175 O179 1.241 . S
C176 O169 1.247 . S
C176 O170 1.261 . S
C177 O172 1.259 . S
C177 O174 1.235 . S
O178 Co168 2.021 . S
O178 C175 1.238 . S
O179 Co173 2.052 . S
O179 C175 1.241 . S
O180 Co168 2.137 . S
O180 C171 1.247 . S
O181 Co168 2.244 . S
O181 C171 1.272 . S
O181 Co173 2.135 . S
Co182 O183 2.216 . S
Co182 O184 2.091 . S
Co182 O186 2.004 . S
Co182 O192 2.021 . S
Co182 O194 2.137 . S
Co182 O195 2.244 . S
O183 Co182 2.216 . S
O183 C190 1.247 . S
O184 Co182 2.091 . S
O184 C190 1.261 . S
C185 O194 1.247 . S
C185 O195 1.272 . S
O186 Co182 2.004 . S
O186 C191 1.259 . S
Co187 O188 2.061 . S
Co187 O193 2.052 . S
Co187 O195 2.135 . S
O188 Co187 2.061 . S
O188 C191 1.235 . S
C189 O192 1.238 . S
C189 O193 1.241 . S
C190 O183 1.247 . S
C190 O184 1.261 . S
C191 O186 1.259 . S
C191 O188 1.235 . S
O192 Co182 2.021 . S
O192 C189 1.238 . S
O193 Co187 2.052 . S
O193 C189 1.241 . S
O194 Co182 2.137 . S
O194 C185 1.247 . S
O195 Co182 2.244 . S
O195 C185 1.272 . S
O195 Co187 2.135 . S
Co196 O197 2.216 . S
Co196 O198 2.091 . S
Co196 O200 2.004 . S
Co196 O206 2.021 . S
Co196 O208 2.137 . S
Co196 O209 2.244 . S
O197 Co196 2.216 . S
O197 C204 1.247 . S
O198 Co196 2.091 . S
O198 C204 1.261 . S
C199 O208 1.247 . S
C199 O209 1.272 . S
O200 Co196 2.004 . S
O200 C205 1.259 . S
Co201 O202 2.061 . S
Co201 O207 2.052 . S
Co201 O209 2.135 . S
O202 Co201 2.061 . S
O202 C205 1.235 . S
C203 O206 1.238 . S
C203 O207 1.241 . S
C204 O197 1.247 . S
C204 O198 1.261 . S
C205 O200 1.259 . S
C205 O202 1.235 . S
O206 Co196 2.021 . S
O206 C203 1.238 . S
O207 Co201 2.052 . S
O207 C203 1.241 . S
O208 Co196 2.137 . S
O208 C199 1.247 . S
O209 Co196 2.244 . S
O209 C199 1.272 . S
O209 Co201 2.135 . S
Co210 O211 2.216 . S
Co210 O212 2.091 . S
Co210 O214 2.004 . S
Co210 O220 2.021 . S
Co210 O222 2.137 . S
Co210 O223 2.244 . S
O211 Co210 2.216 . S
O211 C218 1.247 . S
O212 Co210 2.091 . S
O212 C218 1.261 . S
C213 O222 1.247 . S
C213 O223 1.272 . S
O214 Co210 2.004 . S
O214 C219 1.259 . S
Co215 O216 2.061 . S
Co215 O221 2.052 . S
Co215 O223 2.135 . S
O216 Co215 2.061 . S
O216 C219 1.235 . S
C217 O220 1.238 . S
C217 O221 1.241 . S
C218 O211 1.247 . S
C218 O212 1.261 . S
C219 O214 1.259 . S
C219 O216 1.235 . S
O220 Co210 2.021 . S
O220 C217 1.238 . S
O221 Co215 2.052 . S
O221 C217 1.241 . S
O222 Co210 2.137 . S
O222 C213 1.247 . S
O223 Co210 2.244 . S
O223 C213 1.272 . S
O223 Co215 2.135 . S
Co224 O225 2.216 . S
Co224 O226 2.091 . S
Co224 O228 2.004 . S
Co224 O234 2.021 . S
Co224 O236 2.137 . S
Co224 O237 2.244 . S
O225 Co224 2.216 . S
O225 C232 1.247 . S
O226 Co224 2.091 . S
O226 C232 1.261 . S
C227 O236 1.247 . S
C227 O237 1.272 . S
O228 Co224 2.004 . S
O228 C233 1.259 . S
Co229 O230 2.061 . S
Co229 O235 2.052 . S
Co229 O237 2.135 . S
O230 Co229 2.061 . S
O230 C233 1.235 . S
C231 O234 1.238 . S
C231 O235 1.241 . S
C232 O225 1.247 . S
C232 O226 1.261 . S
C233 O228 1.259 . S
C233 O230 1.235 . S
O234 Co224 2.021 . S
O234 C231 1.238 . S
O235 Co229 2.052 . S
O235 C231 1.241 . S
O236 Co224 2.137 . S
O236 C227 1.247 . S
O237 Co224 2.244 . S
O237 C227 1.272 . S
O237 Co229 2.135 . S
Co238 O239 2.216 . S
Co238 O240 2.091 . S
Co238 O242 2.004 . S
Co238 O248 2.021 . S
Co238 O250 2.137 . S
Co238 O251 2.244 . S
O239 Co238 2.216 . S
O239 C246 1.247 . S
O240 Co238 2.091 . S
O240 C246 1.261 . S
C241 O250 1.247 . S
C241 O251 1.272 . S
O242 Co238 2.004 . S
O242 C247 1.259 . S
Co243 O244 2.061 . S
Co243 O249 2.052 . S
Co243 O251 2.135 . S
O244 Co243 2.061 . S
O244 C247 1.235 . S
C245 O248 1.238 . S
C245 O249 1.241 . S
C246 O239 1.247 . S
C246 O240 1.261 . S
C247 O242 1.259 . S
C247 O244 1.235 . S
O248 Co238 2.021 . S
O248 C245 1.238 . S
O249 Co243 2.052 . S
O249 C245 1.241 . S
O250 Co238 2.137 . S
O250 C241 1.247 . S
O251 Co238 2.244 . S
O251 C241 1.272 . S
O251 Co243 2.135 . S
Co252 O253 2.216 . S
Co252 O254 2.091 . S
Co252 O256 2.004 . S
Co252 O262 2.021 . S
Co252 O264 2.137 . S
Co252 O265 2.244 . S
O253 Co252 2.216 . S
O253 C260 1.247 . S
O254 Co252 2.091 . S
O254 C260 1.261 . S
C255 O264 1.247 . S
C255 O265 1.272 . S
O256 Co252 2.004 . S
O256 C261 1.259 . S
Co257 O258 2.061 . S
Co257 O263 2.052 . S
Co257 O265 2.135 . S
O258 Co257 2.061 . S
O258 C261 1.235 . S
C259 O262 1.238 . S
C259 O263 1.241 . S
C260 O253 1.247 . S
C260 O254 1.261 . S
C261 O256 1.259 . S
C261 O258 1.235 . S
O262 Co252 2.021 . S
O262 C259 1.238 . S
O263 Co257 2.052 . S
O263 C259 1.241 . S
O264 Co252 2.137 . S
O264 C255 1.247 . S
O265 Co252 2.244 . S
O265 C255 1.272 . S
O265 Co257 2.135 . S
Co266 O267 2.216 . S
Co266 O268 2.091 . S
Co266 O270 2.004 . S
Co266 O276 2.021 . S
Co266 O278 2.137 . S
Co266 O279 2.244 . S
O267 Co266 2.216 . S
O267 C274 1.247 . S
O268 Co266 2.091 . S
O268 C274 1.261 . S
C269 O278 1.247 . S
C269 O279 1.272 . S
O270 Co266 2.004 . S
O270 C275 1.259 . S
Co271 O272 2.061 . S
Co271 O277 2.052 . S
Co271 O279 2.135 . S
O272 Co271 2.061 . S
O272 C275 1.235 . S
C273 O276 1.238 . S
C273 O277 1.241 . S
C274 O267 1.247 . S
C274 O268 1.261 . S
C275 O270 1.259 . S
C275 O272 1.235 . S
O276 Co266 2.021 . S
O276 C273 1.238 . S
O277 Co271 2.052 . S
O277 C273 1.241 . S
O278 Co266 2.137 . S
O278 C269 1.247 . S
O279 Co266 2.244 . S
O279 C269 1.272 . S
O279 Co271 2.135 . S
Co280 O281 2.216 . S
Co280 O282 2.091 . S
Co280 O284 2.004 . S
Co280 O290 2.021 . S
Co280 O292 2.137 . S
Co280 O293 2.244 . S
O281 Co280 2.216 . S
O281 C288 1.247 . S
O282 Co280 2.091 . S
O282 C288 1.261 . S
C283 O292 1.247 . S
C283 O293 1.272 . S
O284 Co280 2.004 . S
O284 C289 1.259 . S
Co285 O286 2.061 . S
Co285 O291 2.052 . S
Co285 O293 2.135 . S
O286 Co285 2.061 . S
O286 C289 1.235 . S
C287 O290 1.238 . S
C287 O291 1.241 . S
C288 O281 1.247 . S
C288 O282 1.261 . S
C289 O284 1.259 . S
C289 O286 1.235 . S
O290 Co280 2.021 . S
O290 C287 1.238 . S
O291 Co285 2.052 . S
O291 C287 1.241 . S
O292 Co280 2.137 . S
O292 C283 1.247 . S
O293 Co280 2.244 . S
O293 C283 1.272 . S
O293 Co285 2.135 . S
Co294 O295 2.216 . S
Co294 O296 2.091 . S
Co294 O298 2.004 . S
Co294 O304 2.021 . S
Co294 O306 2.137 . S
Co294 O307 2.244 . S
O295 Co294 2.216 . S
O295 C302 1.247 . S
O296 Co294 2.091 . S
O296 C302 1.261 . S
C297 O306 1.247 . S
C297 O307 1.272 . S
O298 Co294 2.004 . S
O298 C303 1.259 . S
Co299 O300 2.061 . S
Co299 O305 2.052 . S
Co299 O307 2.135 . S
O300 Co299 2.061 . S
O300 C303 1.235 . S
C301 O304 1.238 . S
C301 O305 1.241 . S
C302 O295 1.247 . S
C302 O296 1.261 . S
C303 O298 1.259 . S
C303 O300 1.235 . S
O304 Co294 2.021 . S
O304 C301 1.238 . S
O305 Co299 2.052 . S
O305 C301 1.241 . S
O306 Co294 2.137 . S
O306 C297 1.247 . S
O307 Co294 2.244 . S
O307 C297 1.272 . S
O307 Co299 2.135 . S
Co308 O309 2.216 . S
Co308 O310 2.091 . S
Co308 O312 2.004 . S
Co308 O318 2.021 . S
Co308 O320 2.137 . S
Co308 O321 2.244 . S
O309 Co308 2.216 . S
O309 C316 1.247 . S
O310 Co308 2.091 . S
O310 C316 1.261 . S
C311 O320 1.247 . S
C311 O321 1.272 . S
O312 Co308 2.004 . S
O312 C317 1.259 . S
Co313 O314 2.061 . S
Co313 O319 2.052 . S
Co313 O321 2.135 . S
O314 Co313 2.061 . S
O314 C317 1.235 . S
C315 O318 1.238 . S
C315 O319 1.241 . S
C316 O309 1.247 . S
C316 O310 1.261 . S
C317 O312 1.259 . S
C317 O314 1.235 . S
O318 Co308 2.021 . S
O318 C315 1.238 . S
O319 Co313 2.052 . S
O319 C315 1.241 . S
O320 Co308 2.137 . S
O320 C311 1.247 . S
O321 Co308 2.244 . S
O321 C311 1.272 . S
O321 Co313 2.135 . S
Co322 O323 2.216 . S
Co322 O324 2.091 . S
Co322 O326 2.004 . S
Co322 O332 2.021 . S
Co322 O334 2.137 . S
Co322 O335 2.244 . S
O323 Co322 2.216 . S
O323 C330 1.247 . S
O324 Co322 2.091 . S
O324 C330 1.261 . S
C325 O334 1.247 . S
C325 O335 1.272 . S
O326 Co322 2.004 . S
O326 C331 1.259 . S
Co327 O328 2.061 . S
Co327 O333 2.052 . S
Co327 O335 2.135 . S
O328 Co327 2.061 . S
O328 C331 1.235 . S
C329 O332 1.238 . S
C329 O333 1.241 . S
C330 O323 1.247 . S
C330 O324 1.261 . S
C331 O326 1.259 . S
C331 O328 1.235 . S
O332 Co322 2.021 . S
O332 C329 1.238 . S
O333 Co327 2.052 . S
O333 C329 1.241 . S
O334 Co322 2.137 . S
O334 C325 1.247 . S
O335 Co322 2.244 . S
O335 C325 1.272 . S
O335 Co327 2.135 . S
Co336 O337 2.216 . S
Co336 O338 2.091 . S
Co336 O340 2.004 . S
Co336 O346 2.021 . S
Co336 O348 2.137 . S
Co336 O349 2.244 . S
O337 Co336 2.216 . S
O337 C344 1.247 . S
O338 Co336 2.091 . S
O338 C344 1.261 . S
C339 O348 1.247 . S
C339 O349 1.272 . S
O340 Co336 2.004 . S
O340 C345 1.259 . S
Co341 O342 2.061 . S
Co341 O347 2.052 . S
Co341 O349 2.135 . S
O342 Co341 2.061 . S
O342 C345 1.235 . S
C343 O346 1.238 . S
C343 O347 1.241 . S
C344 O337 1.247 . S
C344 O338 1.261 . S
C345 O340 1.259 . S
C345 O342 1.235 . S
O346 Co336 2.021 . S
O346 C343 1.238 . S
O347 Co341 2.052 . S
O347 C343 1.241 . S
O348 Co336 2.137 . S
O348 C339 1.247 . S
O349 Co336 2.244 . S
O349 C339 1.272 . S
O349 Co341 2.135 . S
Co350 O351 2.216 . S
Co350 O352 2.091 . S
Co350 O354 2.004 . S
Co350 O360 2.021 . S
Co350 O362 2.137 . S
Co350 O363 2.244 . S
O351 Co350 2.216 . S
O351 C358 1.247 . S
O352 Co350 2.091 . S
O352 C358 1.261 . S
C353 O362 1.247 . S
C353 O363 1.272 . S
O354 Co350 2.004 . S
O354 C359 1.259 . S
Co355 O356 2.061 . S
Co355 O361 2.052 . S
Co355 O363 2.135 . S
O356 Co355 2.061 . S
O356 C359 1.235 . S
C357 O360 1.238 . S
C357 O361 1.241 . S
C358 O351 1.247 . S
C358 O352 1.261 . S
C359 O354 1.259 . S
C359 O356 1.235 . S
O360 Co350 2.021 . S
O360 C357 1.238 . S
O361 Co355 2.052 . S
O361 C357 1.241 . S
O362 Co350 2.137 . S
O362 C353 1.247 . S
O363 Co350 2.244 . S
O363 C353 1.272 . S
O363 Co355 2.135 . S
Co364 O365 2.216 . S
Co364 O366 2.091 . S
Co364 O368 2.004 . S
Co364 O374 2.021 . S
Co364 O376 2.137 . S
Co364 O377 2.244 . S
O365 Co364 2.216 . S
O365 C372 1.247 . S
O366 Co364 2.091 . S
O366 C372 1.261 . S
C367 O376 1.247 . S
C367 O377 1.272 . S
O368 Co364 2.004 . S
O368 C373 1.259 . S
Co369 O370 2.061 . S
Co369 O375 2.052 . S
Co369 O377 2.135 . S
O370 Co369 2.061 . S
O370 C373 1.235 . S
C371 O374 1.238 . S
C371 O375 1.241 . S
C372 O365 1.247 . S
C372 O366 1.261 . S
C373 O368 1.259 . S
C373 O370 1.235 . S
O374 Co364 2.021 . S
O374 C371 1.238 . S
O375 Co369 2.052 . S
O375 C371 1.241 . S
O376 Co364 2.137 . S
O376 C367 1.247 . S
O377 Co364 2.244 . S
O377 C367 1.272 . S
O377 Co369 2.135 . S
Co378 O379 2.216 . S
Co378 O380 2.091 . S
Co378 O382 2.004 . S
Co378 O388 2.021 . S
Co378 O390 2.137 . S
Co378 O391 2.244 . S
O379 Co378 2.216 . S
O379 C386 1.247 . S
O380 Co378 2.091 . S
O380 C386 1.261 . S
C381 O390 1.247 . S
C381 O391 1.272 . S
O382 Co378 2.004 . S
O382 C387 1.259 . S
Co383 O384 2.061 . S
Co383 O389 2.052 . S
Co383 O391 2.135 . S
O384 Co383 2.061 . S
O384 C387 1.235 . S
C385 O388 1.238 . S
C385 O389 1.241 . S
C386 O379 1.247 . S
C386 O380 1.261 . S
C387 O382 1.259 . S
C387 O384 1.235 . S
O388 Co378 2.021 . S
O388 C385 1.238 . S
O389 Co383 2.052 . S
O389 C385 1.241 . S
O390 Co378 2.137 . S
O390 C381 1.247 . S
O391 Co378 2.244 . S
O391 C381 1.272 . S
O391 Co383 2.135 . S
Co392 O393 2.216 . S
Co392 O394 2.091 . S
Co392 O396 2.004 . S
Co392 O402 2.021 . S
Co392 O404 2.137 . S
Co392 O405 2.244 . S
O393 Co392 2.216 . S
O393 C400 1.247 . S
O394 Co392 2.091 . S
O394 C400 1.261 . S
C395 O404 1.247 . S
C395 O405 1.272 . S
O396 Co392 2.004 . S
O396 C401 1.259 . S
Co397 O398 2.061 . S
Co397 O403 2.052 . S
Co397 O405 2.135 . S
O398 Co397 2.061 . S
O398 C401 1.235 . S
C399 O402 1.238 . S
C399 O403 1.241 . S
C400 O393 1.247 . S
C400 O394 1.261 . S
C401 O396 1.259 . S
C401 O398 1.235 . S
O402 Co392 2.021 . S
O402 C399 1.238 . S
O403 Co397 2.052 . S
O403 C399 1.241 . S
O404 Co392 2.137 . S
O404 C395 1.247 . S
O405 Co392 2.244 . S
O405 C395 1.272 . S
O405 Co397 2.135 . S
Co406 O407 2.216 . S
Co406 O408 2.091 . S
Co406 O410 2.004 . S
Co406 O416 2.021 . S
Co406 O418 2.137 . S
Co406 O419 2.244 . S
O407 Co406 2.216 . S
O407 C414 1.247 . S
O408 Co406 2.091 . S
O408 C414 1.261 . S
C409 O418 1.247 . S
C409 O419 1.272 . S
O410 Co406 2.004 . S
O410 C415 1.259 . S
Co411 O412 2.061 . S
Co411 O417 2.052 . S
Co411 O419 2.135 . S
O412 Co411 2.061 . S
O412 C415 1.235 . S
C413 O416 1.238 . S
C413 O417 1.241 . S
C414 O407 1.247 . S
C414 O408 1.261 . S
C415 O410 1.259 . S
C415 O412 1.235 . S
O416 Co406 2.021 . S
O416 C413 1.238 . S
O417 Co411 2.052 . S
O417 C413 1.241 . S
O418 Co406 2.137 . S
O418 C409 1.247 . S
O419 Co406 2.244 . S
O419 C409 1.272 . S
O419 Co411 2.135 . S
Co420 O421 2.216 . S
Co420 O422 2.091 . S
Co420 O424 2.004 . S
Co420 O430 2.021 . S
Co420 O432 2.137 . S
Co420 O433 2.244 . S
O421 Co420 2.216 . S
O421 C428 1.247 . S
O422 Co420 2.091 . S
O422 C428 1.261 . S
C423 O432 1.247 . S
C423 O433 1.272 . S
O424 Co420 2.004 . S
O424 C429 1.259 . S
Co425 O426 2.061 . S
Co425 O431 2.052 . S
Co425 O433 2.135 . S
O426 Co425 2.061 . S
O426 C429 1.235 . S
C427 O430 1.238 . S
C427 O431 1.241 . S
C428 O421 1.247 . S
C428 O422 1.261 . S
C429 O424 1.259 . S
C429 O426 1.235 . S
O430 Co420 2.021 . S
O430 C427 1.238 . S
O431 Co425 2.052 . S
O431 C427 1.241 . S
O432 Co420 2.137 . S
O432 C423 1.247 . S
O433 Co420 2.244 . S
O433 C423 1.272 . S
O433 Co425 2.135 . S
Co434 O435 2.216 . S
Co434 O436 2.091 . S
Co434 O438 2.004 . S
Co434 O444 2.021 . S
Co434 O446 2.137 . S
Co434 O447 2.244 . S
O435 Co434 2.216 . S
O435 C442 1.247 . S
O436 Co434 2.091 . S
O436 C442 1.261 . S
C437 O446 1.247 . S
C437 O447 1.272 . S
O438 Co434 2.004 . S
O438 C443 1.259 . S
Co439 O440 2.061 . S
Co439 O445 2.052 . S
Co439 O447 2.135 . S
O440 Co439 2.061 . S
O440 C443 1.235 . S
C441 O444 1.238 . S
C441 O445 1.241 . S
C442 O435 1.247 . S
C442 O436 1.261 . S
C443 O438 1.259 . S
C443 O440 1.235 . S
O444 Co434 2.021 . S
O444 C441 1.238 . S
O445 Co439 2.052 . S
O445 C441 1.241 . S
O446 Co434 2.137 . S
O446 C437 1.247 . S
O447 Co434 2.244 . S
O447 C437 1.272 . S
O447 Co439 2.135 . S
Co448 O449 2.216 . S
Co448 O450 2.091 . S
Co448 O452 2.004 . S
Co448 O458 2.021 . S
Co448 O460 2.137 . S
Co448 O461 2.244 . S
O449 Co448 2.216 . S
O449 C456 1.247 . S
O450 Co448 2.091 . S
O450 C456 1.261 . S
C451 O460 1.247 . S
C451 O461 1.272 . S
O452 Co448 2.004 . S
O452 C457 1.259 . S
Co453 O454 2.061 . S
Co453 O459 2.052 . S
Co453 O461 2.135 . S
O454 Co453 2.061 . S
O454 C457 1.235 . S
C455 O458 1.238 . S
C455 O459 1.241 . S
C456 O449 1.247 . S
C456 O450 1.261 . S
C457 O452 1.259 . S
C457 O454 1.235 . S
O458 Co448 2.021 . S
O458 C455 1.238 . S
O459 Co453 2.052 . S
O459 C455 1.241 . S
O460 Co448 2.137 . S
O460 C451 1.247 . S
O461 Co448 2.244 . S
O461 C451 1.272 . S
O461 Co453 2.135 . S
Co462 O463 2.216 . S
Co462 O464 2.091 . S
Co462 O466 2.004 . S
Co462 O472 2.021 . S
Co462 O474 2.137 . S
Co462 O475 2.244 . S
O463 Co462 2.216 . S
O463 C470 1.247 . S
O464 Co462 2.091 . S
O464 C470 1.261 . S
C465 O474 1.247 . S
C465 O475 1.272 . S
O466 Co462 2.004 . S
O466 C471 1.259 . S
Co467 O468 2.061 . S
Co467 O473 2.052 . S
Co467 O475 2.135 . S
O468 Co467 2.061 . S
O468 C471 1.235 . S
C469 O472 1.238 . S
C469 O473 1.241 . S
C470 O463 1.247 . S
C470 O464 1.261 . S
C471 O466 1.259 . S
C471 O468 1.235 . S
O472 Co462 2.021 . S
O472 C469 1.238 . S
O473 Co467 2.052 . S
O473 C469 1.241 . S
O474 Co462 2.137 . S
O474 C465 1.247 . S
O475 Co462 2.244 . S
O475 C465 1.272 . S
O475 Co467 2.135 . S
Co476 O477 2.216 . S
Co476 O478 2.091 . S
Co476 O480 2.004 . S
Co476 O486 2.021 . S
Co476 O488 2.137 . S
Co476 O489 2.244 . S
O477 Co476 2.216 . S
O477 C484 1.247 . S
O478 Co476 2.091 . S
O478 C484 1.261 . S
C479 O488 1.247 . S
C479 O489 1.272 . S
O480 Co476 2.004 . S
O480 C485 1.259 . S
Co481 O482 2.061 . S
Co481 O487 2.052 . S
Co481 O489 2.135 . S
O482 Co481 2.061 . S
O482 C485 1.235 . S
C483 O486 1.238 . S
C483 O487 1.241 . S
C484 O477 1.247 . S
C484 O478 1.261 . S
C485 O480 1.259 . S
C485 O482 1.235 . S
O486 Co476 2.021 . S
O486 C483 1.238 . S
O487 Co481 2.052 . S
O487 C483 1.241 . S
O488 Co476 2.137 . S
O488 C479 1.247 . S
O489 Co476 2.244 . S
O489 C479 1.272 . S
O489 Co481 2.135 . S
Co490 O491 2.216 . S
Co490 O492 2.091 . S
Co490 O494 2.004 . S
Co490 O500 2.021 . S
Co490 O502 2.137 . S
Co490 O503 2.244 . S
O491 Co490 2.216 . S
O491 C498 1.247 . S
O492 Co490 2.091 . S
O492 C498 1.261 . S
C493 O502 1.247 . S
C493 O503 1.272 . S
O494 Co490 2.004 . S
O494 C499 1.259 . S
Co495 O496 2.061 . S
Co495 O501 2.052 . S
Co495 O503 2.135 . S
O496 Co495 2.061 . S
O496 C499 1.235 . S
C497 O500 1.238 . S
C497 O501 1.241 . S
C498 O491 1.247 . S
C498 O492 1.261 . S
C499 O494 1.259 . S
C499 O496 1.235 . S
O500 Co490 2.021 . S
O500 C497 1.238 . S
O501 Co495 2.052 . S
O501 C497 1.241 . S
O502 Co490 2.137 . S
O502 C493 1.247 . S
O503 Co490 2.244 . S
O503 C493 1.272 . S
O503 Co495 2.135 . S
H504 C522 0.951 . S
H505 C524 0.951 . S
H506 C526 0.950 . S
H507 C527 0.950 . S
H508 C529 0.950 . S
H509 C532 0.950 . S
H510 C533 0.950 . S
H511 C535 0.950 . S
H512 C536 0.950 . S
H513 C537 0.951 . S
H514 C539 0.951 . S
H515 C541 0.950 . S
H516 C542 0.950 . S
H517 C544 0.950 . S
H518 C547 0.950 . S
H519 C548 0.950 . S
H520 C550 0.950 . S
H521 C551 0.950 1_556 S
C522 H504 0.951 . S
C522 C523 1.366 . S
C522 C524 1.388 . S
C523 C522 1.366 . S
C523 C527 1.385 . S
C524 H505 0.951 . S
C524 C522 1.388 . S
C524 C525 1.366 . S
C525 C524 1.366 . S
C525 C526 1.414 . S
C525 C528 1.499 . S
C526 H506 0.950 . S
C526 C525 1.414 . S
C526 C527 1.374 . S
C527 H507 0.950 . S
C527 C523 1.385 . S
C527 C526 1.374 . S
C528 C525 1.499 . S
C528 C529 1.373 . S
C528 C530 1.389 . S
C529 H508 0.950 . S
C529 C528 1.373 . S
C529 C545 1.377 . S
C530 C528 1.389 . S
C530 C531 1.524 . S
C530 C544 1.377 . S
C531 C530 1.524 . S
C531 C532 1.397 . S
C531 C536 1.363 . S
C532 H509 0.950 . S
C532 C531 1.397 . S
C532 C533 1.334 . S
C533 H510 0.950 . S
C533 C532 1.334 . S
C533 C534 1.287 . S
C534 C533 1.287 . S
C534 C535 1.524 . S
C534 H553 0.913 . S
C535 H511 0.950 . S
C535 C534 1.524 . S
C535 C536 1.415 . S
C536 H512 0.950 . S
C536 C531 1.363 . S
C536 C535 1.415 . S
C537 H513 0.951 . S
C537 C538 1.366 . S
C537 C539 1.388 . S
C538 C537 1.366 . S
C538 C542 1.385 . S
C539 H514 0.951 . S
C539 C537 1.388 . S
C539 C540 1.366 . S
C540 C539 1.366 . S
C540 C541 1.414 . S
C540 C543 1.499 . S
C541 H515 0.950 . S
C541 C540 1.414 . S
C541 C542 1.374 . S
C542 H516 0.950 . S
C542 C538 1.385 . S
C542 C541 1.374 . S
C543 C540 1.499 . S
C543 C544 1.373 . S
C543 C545 1.389 . S
C544 H517 0.950 . S
C544 C530 1.377 . S
C544 C543 1.373 . S
C545 C529 1.377 . S
C545 C543 1.389 . S
C545 C546 1.524 . S
C546 C545 1.524 . S
C546 C547 1.397 . S
C546 C551 1.363 . S
C547 H518 0.950 . S
C547 C546 1.397 . S
C547 C548 1.334 . S
C548 H519 0.950 . S
C548 C547 1.334 . S
C548 C549 1.287 . S
C549 C548 1.287 . S
C549 C550 1.524 1_554 S
C549 H552 0.999 . S
C550 H520 0.950 . S
C550 C549 1.524 1_556 S
C550 C551 1.415 1_556 S
C551 H521 0.950 1_554 S
C551 C546 1.363 . S
C551 C550 1.415 1_554 S
H552 C549 0.999 . S
H553 C534 0.913 . S
H554 C572 0.951 . S
H555 C574 0.951 . S
H556 C576 0.950 . S
H557 C577 0.950 . S
H558 C579 0.950 . S
H559 C582 0.950 . S
H560 C583 0.950 . S
H561 C585 0.950 . S
H562 C586 0.950 . S
H563 C587 0.951 . S
H564 C589 0.951 . S
H565 C591 0.950 . S
H566 C592 0.950 . S
H567 C594 0.950 . S
H568 C597 0.950 . S
H569 C598 0.950 . S
H570 C600 0.950 . S
H571 C601 0.950 . S
C572 H554 0.951 . S
C572 C573 1.366 . S
C572 C574 1.388 . S
C573 C572 1.366 . S
C573 C577 1.385 . S
C574 H555 0.951 . S
C574 C572 1.388 . S
C574 C575 1.366 . S
C575 C574 1.366 . S
C575 C576 1.414 . S
C575 C578 1.499 . S
C576 H556 0.950 . S
C576 C575 1.414 . S
C576 C577 1.374 . S
C577 H557 0.950 . S
C577 C573 1.385 . S
C577 C576 1.374 . S
C578 C575 1.499 . S
C578 C579 1.373 . S
C578 C580 1.389 . S
C579 H558 0.950 . S
C579 C578 1.373 . S
C579 C595 1.377 . S
C580 C578 1.389 . S
C580 C581 1.524 . S
C580 C594 1.377 . S
C581 C580 1.524 . S
C581 C582 1.397 . S
C581 C586 1.363 . S
C582 H559 0.950 . S
C582 C581 1.397 . S
C582 C583 1.334 . S
C583 H560 0.950 . S
C583 C582 1.334 . S
C583 C584 1.287 . S
C584 C583 1.287 . S
C584 C585 1.524 . S
C584 H603 0.913 . S
C585 H561 0.950 . S
C585 C584 1.524 . S
C585 C586 1.415 . S
C586 H562 0.950 . S
C586 C581 1.363 . S
C586 C585 1.415 . S
C587 H563 0.951 . S
C587 C588 1.366 . S
C587 C589 1.388 . S
C588 C587 1.366 . S
C588 C592 1.385 . S
C589 H564 0.951 . S
C589 C587 1.388 . S
C589 C590 1.366 . S
C590 C589 1.366 . S
C590 C591 1.414 . S
C590 C593 1.499 . S
C591 H565 0.950 . S
C591 C590 1.414 . S
C591 C592 1.374 . S
C592 H566 0.950 . S
C592 C588 1.385 . S
C592 C591 1.374 . S
C593 C590 1.499 . S
C593 C594 1.373 . S
C593 C595 1.389 . S
C594 H567 0.950 . S
C594 C580 1.377 . S
C594 C593 1.373 . S
C595 C579 1.377 . S
C595 C593 1.389 . S
C595 C596 1.524 . S
C596 C595 1.524 . S
C596 C597 1.397 . S
C596 C601 1.363 . S
C597 H568 0.950 . S
C597 C596 1.397 . S
C597 C598 1.334 . S
C598 H569 0.950 . S
C598 C597 1.334 . S
C598 C599 1.287 . S
C599 C598 1.287 . S
C599 C600 1.524 . S
C599 H602 0.999 . S
C600 H570 0.950 . S
C600 C599 1.524 . S
C600 C601 1.415 . S
C601 H571 0.950 . S
C601 C596 1.363 . S
C601 C600 1.415 . S
H602 C599 0.999 . S
H603 C584 0.913 . S
H604 C622 0.951 . S
H605 C624 0.951 . S
H606 C626 0.950 . S
H607 C627 0.950 . S
H608 C629 0.950 . S
H609 C632 0.950 . S
H610 C633 0.950 . S
H611 C635 0.950 . S
H612 C636 0.950 1_554 S
H613 C637 0.951 . S
H614 C639 0.951 . S
H615 C641 0.950 . S
H616 C642 0.950 . S
H617 C644 0.950 . S
H618 C647 0.950 . S
H619 C648 0.950 . S
H620 C650 0.950 . S
H621 C651 0.950 . S
C622 H604 0.951 . S
C622 C623 1.366 . S
C622 C624 1.388 . S
C623 C622 1.366 . S
C623 C627 1.385 . S
C624 H605 0.951 . S
C624 C622 1.388 . S
C624 C625 1.366 . S
C625 C624 1.366 . S
C625 C626 1.414 . S
C625 C628 1.499 . S
C626 H606 0.950 . S
C626 C625 1.414 . S
C626 C627 1.374 . S
C627 H607 0.950 . S
C627 C623 1.385 . S
C627 C626 1.374 . S
C628 C625 1.499 . S
C628 C629 1.373 . S
C628 C630 1.389 . S
C629 H608 0.950 . S
C629 C628 1.373 . S
C629 C645 1.377 . S
C630 C628 1.389 . S
C630 C631 1.524 . S
C630 C644 1.377 . S
C631 C630 1.524 . S
C631 C632 1.397 1_554 S
C631 C636 1.363 1_554 S
C632 H609 0.950 . S
C632 C631 1.397 1_556 S
C632 C633 1.334 . S
C633 H610 0.950 . S
C633 C632 1.334 . S
C633 C634 1.287 . S
C634 C633 1.287 . S
C634 C635 1.524 . S
C634 H653 0.913 . S
C635 H611 0.950 . S
C635 C634 1.524 . S
C635 C636 1.415 . S
C636 H612 0.950 1_556 S
C636 C631 1.363 1_556 S
C636 C635 1.415 . S
C637 H613 0.951 . S
C637 C638 1.366 . S
C637 C639 1.388 . S
C638 C637 1.366 . S
C638 C642 1.385 . S
C639 H614 0.951 . S
C639 C637 1.388 . S
C639 C640 1.366 . S
C640 C639 1.366 . S
C640 C641 1.414 . S
C640 C643 1.499 . S
C641 H615 0.950 . S
C641 C640 1.414 . S
C641 C642 1.374 . S
C642 H616 0.950 . S
C642 C638 1.385 . S
C642 C641 1.374 . S
C643 C640 1.499 . S
C643 C644 1.373 . S
C643 C645 1.389 . S
C644 H617 0.950 . S
C644 C630 1.377 . S
C644 C643 1.373 . S
C645 C629 1.377 . S
C645 C643 1.389 . S
C645 C646 1.524 . S
C646 C645 1.524 . S
C646 C647 1.397 . S
C646 C651 1.363 . S
C647 H618 0.950 . S
C647 C646 1.397 . S
C647 C648 1.334 . S
C648 H619 0.950 . S
C648 C647 1.334 . S
C648 C649 1.287 . S
C649 C648 1.287 . S
C649 C650 1.524 . S
C649 H652 0.999 . S
C650 H620 0.950 . S
C650 C649 1.524 . S
C650 C651 1.415 . S
C651 H621 0.950 . S
C651 C646 1.363 . S
C651 C650 1.415 . S
H652 C649 0.999 . S
H653 C634 0.913 . S
H654 C672 0.951 . S
H655 C674 0.951 . S
H656 C676 0.950 . S
H657 C677 0.950 . S
H658 C679 0.950 . S
H659 C682 0.950 . S
H660 C683 0.950 . S
H661 C685 0.950 . S
H662 C686 0.950 . S
H663 C687 0.951 . S
H664 C689 0.951 . S
H665 C691 0.950 . S
H666 C692 0.950 . S
H667 C694 0.950 . S
H668 C697 0.951 . S
H669 C698 0.950 . S
H670 C700 0.950 . S
H671 C701 0.950 . S
C672 H654 0.951 . S
C672 C673 1.366 . S
C672 C674 1.388 . S
C673 C672 1.366 . S
C673 C677 1.385 . S
C674 H655 0.951 . S
C674 C672 1.388 . S
C674 C675 1.366 . S
C675 C674 1.366 . S
C675 C676 1.414 . S
C675 C678 1.499 . S
C676 H656 0.950 . S
C676 C675 1.414 . S
C676 C677 1.374 . S
C677 H657 0.950 . S
C677 C673 1.385 . S
C677 C676 1.374 . S
C678 C675 1.499 . S
C678 C679 1.373 . S
C678 C680 1.389 . S
C679 H658 0.950 . S
C679 C678 1.373 . S
C679 C695 1.377 . S
C680 C678 1.389 . S
C680 C681 1.524 . S
C680 C694 1.377 . S
C681 C680 1.524 . S
C681 C682 1.397 . S
C681 C686 1.363 . S
C682 H659 0.950 . S
C682 C681 1.397 . S
C682 C683 1.334 . S
C683 H660 0.950 . S
C683 C682 1.334 . S
C683 C684 1.287 . S
C684 C683 1.287 . S
C684 C685 1.524 . S
C684 H703 0.913 . S
C685 H661 0.950 . S
C685 C684 1.524 . S
C685 C686 1.415 . S
C686 H662 0.950 . S
C686 C681 1.363 . S
C686 C685 1.415 . S
C687 H663 0.951 . S
C687 C688 1.366 . S
C687 C689 1.388 . S
C688 C687 1.366 . S
C688 C692 1.385 . S
C689 H664 0.951 . S
C689 C687 1.388 . S
C689 C690 1.366 . S
C690 C689 1.366 . S
C690 C691 1.414 . S
C690 C693 1.499 . S
C691 H665 0.950 . S
C691 C690 1.414 . S
C691 C692 1.374 . S
C692 H666 0.950 . S
C692 C688 1.385 . S
C692 C691 1.374 . S
C693 C690 1.499 . S
C693 C694 1.373 . S
C693 C695 1.389 . S
C694 H667 0.950 . S
C694 C680 1.377 . S
C694 C693 1.373 . S
C695 C679 1.377 . S
C695 C693 1.389 . S
C695 C696 1.524 . S
C696 C695 1.524 . S
C696 C697 1.397 . S
C696 C701 1.363 . S
C697 H668 0.951 . S
C697 C696 1.397 . S
C697 C698 1.334 1_556 S
C698 H669 0.950 . S
C698 C697 1.334 1_554 S
C698 C699 1.287 1_554 S
C699 C698 1.287 1_556 S
C699 C700 1.524 . S
C699 H702 0.999 1_556 S
C700 H670 0.950 . S
C700 C699 1.524 . S
C700 C701 1.415 . S
C701 H671 0.950 . S
C701 C696 1.363 . S
C701 C700 1.415 . S
H702 C699 0.999 1_554 S
H703 C684 0.913 . S
H704 C722 0.951 . S
H705 C724 0.951 . S
H706 C726 0.950 . S
H707 C727 0.950 . S
H708 C729 0.950 . S
H709 C732 0.950 . S
H710 C733 0.950 . S
H711 C735 0.950 . S
H712 C736 0.950 . S
H713 C737 0.951 . S
H714 C739 0.951 . S
H715 C741 0.950 . S
H716 C742 0.950 . S
H717 C744 0.950 . S
H718 C747 0.950 . S
H719 C748 0.950 . S
H720 C750 0.950 . S
H721 C751 0.950 . S
C722 H704 0.951 . S
C722 C723 1.366 . S
C722 C724 1.388 . S
C723 C722 1.366 . S
C723 C727 1.385 . S
C724 H705 0.951 . S
C724 C722 1.388 . S
C724 C725 1.366 . S
C725 C724 1.366 . S
C725 C726 1.414 . S
C725 C728 1.499 . S
C726 H706 0.950 . S
C726 C725 1.414 . S
C726 C727 1.374 . S
C727 H707 0.950 . S
C727 C723 1.385 . S
C727 C726 1.374 . S
C728 C725 1.499 . S
C728 C729 1.373 . S
C728 C730 1.389 . S
C729 H708 0.950 . S
C729 C728 1.373 . S
C729 C745 1.377 . S
C730 C728 1.389 . S
C730 C731 1.524 . S
C730 C744 1.377 . S
C731 C730 1.524 . S
C731 C732 1.397 . S
C731 C736 1.363 . S
C732 H709 0.950 . S
C732 C731 1.397 . S
C732 C733 1.334 . S
C733 H710 0.950 . S
C733 C732 1.334 . S
C733 C734 1.287 . S
C734 C733 1.287 . S
C734 C735 1.524 . S
C734 H753 0.913 . S
C735 H711 0.950 . S
C735 C734 1.524 . S
C735 C736 1.415 . S
C736 H712 0.950 . S
C736 C731 1.363 . S
C736 C735 1.415 . S
C737 H713 0.951 . S
C737 C738 1.366 . S
C737 C739 1.388 . S
C738 C737 1.366 . S
C738 C742 1.385 . S
C739 H714 0.951 . S
C739 C737 1.388 . S
C739 C740 1.366 . S
C740 C739 1.366 . S
C740 C741 1.414 . S
C740 C743 1.499 . S
C741 H715 0.950 . S
C741 C740 1.414 . S
C741 C742 1.374 . S
C742 H716 0.950 . S
C742 C738 1.385 . S
C742 C741 1.374 . S
C743 C740 1.499 . S
C743 C744 1.373 . S
C743 C745 1.389 . S
C744 H717 0.950 . S
C744 C730 1.377 . S
C744 C743 1.373 . S
C745 C729 1.377 . S
C745 C743 1.389 . S
C745 C746 1.538 . S
C746 C745 1.538 . S
C746 C747 1.391 1_556 S
C746 C751 1.355 1_556 S
C747 H718 0.950 . S
C747 C746 1.391 1_554 S
C747 C748 1.334 . S
C748 H719 0.950 . S
C748 C747 1.334 . S
C748 C749 1.287 . S
C749 C748 1.287 . S
C749 C750 1.524 . S
C749 H752 0.999 . S
C750 H720 0.950 . S
C750 C749 1.524 . S
C750 C751 1.415 . S
C751 H721 0.950 . S
C751 C746 1.355 1_554 S
C751 C750 1.415 . S
H752 C749 0.999 . S
H753 C734 0.913 . S
H754 C772 0.951 . S
H755 C774 0.951 . S
H756 C776 0.950 . S
H757 C777 0.950 . S
H758 C779 0.950 . S
H759 C782 0.950 . S
H760 C783 0.950 . S
H761 C785 0.950 . S
H762 C786 0.950 . S
H763 C787 0.951 . S
H764 C789 0.951 . S
H765 C791 0.950 . S
H766 C792 0.950 . S
H767 C794 0.950 . S
H768 C797 0.950 . S
H769 C798 0.950 . S
H770 C800 0.950 . S
H771 C801 0.950 . S
C772 H754 0.951 . S
C772 C773 1.366 . S
C772 C774 1.388 . S
C773 C772 1.366 . S
C773 C777 1.385 . S
C774 H755 0.951 . S
C774 C772 1.388 . S
C774 C775 1.366 . S
C775 C774 1.366 . S
C775 C776 1.414 . S
C775 C778 1.499 . S
C776 H756 0.950 . S
C776 C775 1.414 . S
C776 C777 1.374 . S
C777 H757 0.950 . S
C777 C773 1.385 . S
C777 C776 1.374 . S
C778 C775 1.499 . S
C778 C779 1.373 . S
C778 C780 1.389 . S
C779 H758 0.950 . S
C779 C778 1.373 . S
C779 C795 1.377 . S
C780 C778 1.389 . S
C780 C781 1.524 . S
C780 C794 1.377 . S
C781 C780 1.524 . S
C781 C782 1.397 . S
C781 C786 1.363 . S
C782 H759 0.950 . S
C782 C781 1.397 . S
C782 C783 1.334 . S
C783 H760 0.950 . S
C783 C782 1.334 . S
C783 C784 1.287 . S
C784 C783 1.287 . S
C784 C785 1.524 . S
C784 H803 0.913 . S
C785 H761 0.950 . S
C785 C784 1.524 . S
C785 C786 1.415 . S
C786 H762 0.950 . S
C786 C781 1.363 . S
C786 C785 1.415 . S
C787 H763 0.951 . S
C787 C788 1.366 . S
C787 C789 1.388 . S
C788 C787 1.366 . S
C788 C792 1.385 . S
C789 H764 0.951 . S
C789 C787 1.388 . S
C789 C790 1.366 . S
C790 C789 1.366 . S
C790 C791 1.414 . S
C790 C793 1.499 . S
C791 H765 0.950 . S
C791 C790 1.414 . S
C791 C792 1.374 . S
C792 H766 0.950 . S
C792 C788 1.385 . S
C792 C791 1.374 . S
C793 C790 1.499 . S
C793 C794 1.373 . S
C793 C795 1.389 . S
C794 H767 0.950 . S
C794 C780 1.377 . S
C794 C793 1.373 . S
C795 C779 1.377 . S
C795 C793 1.389 . S
C795 C796 1.524 . S
C796 C795 1.524 . S
C796 C797 1.397 . S
C796 C801 1.363 1_556 S
C797 H768 0.950 . S
C797 C796 1.397 . S
C797 C798 1.334 1_556 S
C798 H769 0.950 . S
C798 C797 1.334 1_554 S
C798 C799 1.287 . S
C799 C798 1.287 . S
C799 C800 1.524 . S
C799 H802 0.999 . S
C800 H770 0.950 . S
C800 C799 1.524 . S
C800 C801 1.415 . S
C801 H771 0.950 . S
C801 C796 1.363 1_554 S
C801 C800 1.415 . S
H802 C799 0.999 . S
H803 C784 0.913 . S
H804 C822 0.951 . S
H805 C824 0.951 . S
H806 C826 0.950 . S
H807 C827 0.950 . S
H808 C829 0.950 . S
H809 C832 0.950 . S
H810 C833 0.950 . S
H811 C835 0.950 . S
H812 C836 0.950 . S
H813 C837 0.951 . S
H814 C839 0.951 . S
H815 C841 0.950 . S
H816 C842 0.950 . S
H817 C844 0.950 . S
H818 C847 0.950 . S
H819 C848 0.950 . S
H820 C850 0.950 . S
H821 C851 0.950 . S
C822 H804 0.951 . S
C822 C823 1.366 . S
C822 C824 1.388 . S
C823 C822 1.366 . S
C823 C827 1.385 . S
C824 H805 0.951 . S
C824 C822 1.388 . S
C824 C825 1.366 . S
C825 C824 1.366 . S
C825 C826 1.414 . S
C825 C828 1.499 . S
C826 H806 0.950 . S
C826 C825 1.414 . S
C826 C827 1.374 . S
C827 H807 0.950 . S
C827 C823 1.385 . S
C827 C826 1.374 . S
C828 C825 1.499 . S
C828 C829 1.373 . S
C828 C830 1.389 . S
C829 H808 0.950 . S
C829 C828 1.373 . S
C829 C845 1.377 . S
C830 C828 1.389 . S
C830 C831 1.524 . S
C830 C844 1.377 . S
C831 C830 1.524 . S
C831 C832 1.397 . S
C831 C836 1.363 . S
C832 H809 0.950 . S
C832 C831 1.397 . S
C832 C833 1.334 . S
C833 H810 0.950 . S
C833 C832 1.334 . S
C833 C834 1.287 . S
C834 C833 1.287 . S
C834 C835 1.524 . S
C834 H853 0.913 . S
C835 H811 0.950 . S
C835 C834 1.524 . S
C835 C836 1.415 . S
C836 H812 0.950 . S
C836 C831 1.363 . S
C836 C835 1.415 . S
C837 H813 0.951 . S
C837 C838 1.366 . S
C837 C839 1.388 . S
C838 C837 1.366 . S
C838 C842 1.385 . S
C839 H814 0.951 . S
C839 C837 1.388 . S
C839 C840 1.366 . S
C840 C839 1.366 . S
C840 C841 1.414 . S
C840 C843 1.499 . S
C841 H815 0.950 . S
C841 C840 1.414 . S
C841 C842 1.374 . S
C842 H816 0.950 . S
C842 C838 1.385 . S
C842 C841 1.374 . S
C843 C840 1.499 . S
C843 C844 1.373 . S
C843 C845 1.389 . S
C844 H817 0.950 . S
C844 C830 1.377 . S
C844 C843 1.373 . S
C845 C829 1.377 . S
C845 C843 1.389 . S
C845 C846 1.524 . S
C846 C845 1.524 . S
C846 C847 1.397 . S
C846 C851 1.363 . S
C847 H818 0.950 . S
C847 C846 1.397 . S
C847 C848 1.334 . S
C848 H819 0.950 . S
C848 C847 1.334 . S
C848 C849 1.287 . S
C849 C848 1.287 . S
C849 C850 1.524 . S
C849 H852 0.999 . S
C850 H820 0.950 . S
C850 C849 1.524 . S
C850 C851 1.415 . S
C851 H821 0.950 . S
C851 C846 1.363 . S
C851 C850 1.415 . S
H852 C849 0.999 . S
H853 C834 0.913 . S
H854 C872 0.951 . S
H855 C874 0.951 . S
H856 C876 0.950 . S
H857 C877 0.950 . S
H858 C879 0.950 . S
H859 C882 0.950 . S
H860 C883 0.950 . S
H861 C885 0.950 . S
H862 C886 0.950 . S
H863 C887 0.951 . S
H864 C889 0.951 . S
H865 C891 0.950 . S
H866 C892 0.950 . S
H867 C894 0.950 . S
H868 C897 0.950 . S
H869 C898 0.950 . S
H870 C900 0.950 . S
H871 C901 0.950 . S
C872 H854 0.951 . S
C872 C873 1.366 . S
C872 C874 1.388 . S
C873 C872 1.366 . S
C873 C877 1.385 . S
C874 H855 0.951 . S
C874 C872 1.388 . S
C874 C875 1.366 . S
C875 C874 1.366 . S
C875 C876 1.414 . S
C875 C878 1.499 . S
C876 H856 0.950 . S
C876 C875 1.414 . S
C876 C877 1.374 . S
C877 H857 0.950 . S
C877 C873 1.385 . S
C877 C876 1.374 . S
C878 C875 1.499 . S
C878 C879 1.373 . S
C878 C880 1.389 . S
C879 H858 0.950 . S
C879 C878 1.373 . S
C879 C895 1.377 . S
C880 C878 1.389 . S
C880 C881 1.524 . S
C880 C894 1.377 . S
C881 C880 1.524 . S
C881 C882 1.397 . S
C881 C886 1.363 . S
C882 H859 0.950 . S
C882 C881 1.397 . S
C882 C883 1.334 . S
C883 H860 0.950 . S
C883 C882 1.334 . S
C883 C884 1.287 . S
C884 C883 1.287 . S
C884 C885 1.524 . S
C884 H903 0.913 . S
C885 H861 0.950 . S
C885 C884 1.524 . S
C885 C886 1.415 . S
C886 H862 0.950 . S
C886 C881 1.363 . S
C886 C885 1.415 . S
C887 H863 0.951 . S
C887 C888 1.366 . S
C887 C889 1.388 . S
C888 C887 1.366 . S
C888 C892 1.385 . S
C889 H864 0.951 . S
C889 C887 1.388 . S
C889 C890 1.366 . S
C890 C889 1.366 . S
C890 C891 1.414 . S
C890 C893 1.499 . S
C891 H865 0.950 . S
C891 C890 1.414 . S
C891 C892 1.374 . S
C892 H866 0.950 . S
C892 C888 1.385 . S
C892 C891 1.374 . S
C893 C890 1.499 . S
C893 C894 1.373 . S
C893 C895 1.389 . S
C894 H867 0.950 . S
C894 C880 1.377 . S
C894 C893 1.373 . S
C895 C879 1.377 . S
C895 C893 1.389 . S
C895 C896 1.524 . S
C896 C895 1.524 . S
C896 C897 1.397 . S
C896 C901 1.363 . S
C897 H868 0.950 . S
C897 C896 1.397 . S
C897 C898 1.334 . S
C898 H869 0.950 . S
C898 C897 1.334 . S
C898 C899 1.287 . S
C899 C898 1.287 . S
C899 C900 1.524 . S
C899 H902 0.999 . S
C900 H870 0.950 . S
C900 C899 1.524 . S
C900 C901 1.415 . S
C901 H871 0.950 . S
C901 C896 1.363 . S
C901 C900 1.415 . S
H902 C899 0.999 . S
H903 C884 0.913 . S
H904 C922 0.951 . S
H905 C924 0.951 . S
H906 C926 0.950 . S
H907 C927 0.950 . S
H908 C929 0.950 . S
H909 C932 0.950 . S
H910 C933 0.950 . S
H911 C935 0.950 . S
H912 C936 0.950 . S
H913 C937 0.951 . S
H914 C939 0.951 . S
H915 C941 0.950 . S
H916 C942 0.950 . S
H917 C944 0.950 . S
H918 C947 0.950 . S
H919 C948 0.950 . S
H920 C950 0.950 . S
H921 C951 0.950 . S
C922 H904 0.951 . S
C922 C923 1.366 . S
C922 C924 1.388 . S
C923 C922 1.366 . S
C923 C927 1.385 . S
C924 H905 0.951 . S
C924 C922 1.388 . S
C924 C925 1.366 . S
C925 C924 1.366 . S
C925 C926 1.414 . S
C925 C928 1.499 . S
C926 H906 0.950 . S
C926 C925 1.414 . S
C926 C927 1.374 . S
C927 H907 0.950 . S
C927 C923 1.385 . S
C927 C926 1.374 . S
C928 C925 1.499 . S
C928 C929 1.373 . S
C928 C930 1.389 . S
C929 H908 0.950 . S
C929 C928 1.373 . S
C929 C945 1.377 . S
C930 C928 1.389 . S
C930 C931 1.524 . S
C930 C944 1.377 . S
C931 C930 1.524 . S
C931 C932 1.397 . S
C931 C936 1.363 . S
C932 H909 0.950 . S
C932 C931 1.397 . S
C932 C933 1.334 . S
C933 H910 0.950 . S
C933 C932 1.334 . S
C933 C934 1.287 . S
C934 C933 1.287 . S
C934 C935 1.524 . S
C934 H953 0.913 . S
C935 H911 0.950 . S
C935 C934 1.524 . S
C935 C936 1.415 . S
C936 H912 0.950 . S
C936 C931 1.363 . S
C936 C935 1.415 . S
C937 H913 0.951 . S
C937 C938 1.366 . S
C937 C939 1.388 . S
C938 C937 1.366 . S
C938 C942 1.385 . S
C939 H914 0.951 . S
C939 C937 1.388 . S
C939 C940 1.366 . S
C940 C939 1.366 . S
C940 C941 1.414 . S
C940 C943 1.499 . S
C941 H915 0.950 . S
C941 C940 1.414 . S
C941 C942 1.374 . S
C942 H916 0.950 . S
C942 C938 1.385 . S
C942 C941 1.374 . S
C943 C940 1.499 . S
C943 C944 1.373 . S
C943 C945 1.389 . S
C944 H917 0.950 . S
C944 C930 1.377 . S
C944 C943 1.373 . S
C945 C929 1.377 . S
C945 C943 1.389 . S
C945 C946 1.524 . S
C946 C945 1.524 . S
C946 C947 1.397 . S
C946 C951 1.363 . S
C947 H918 0.950 . S
C947 C946 1.397 . S
C947 C948 1.334 . S
C948 H919 0.950 . S
C948 C947 1.334 . S
C948 C949 1.287 . S
C949 C948 1.287 . S
C949 C950 1.524 . S
C949 H952 0.999 . S
C950 H920 0.950 . S
C950 C949 1.524 . S
C950 C951 1.415 . S
C951 H921 0.950 . S
C951 C946 1.363 . S
C951 C950 1.415 . S
H952 C949 0.999 . S
H953 C934 0.913 . S
H954 C972 0.951 . S
H955 C974 0.951 . S
H956 C976 0.950 . S
H957 C977 0.950 . S
H958 C979 0.950 . S
H959 C982 0.950 . S
H960 C983 0.950 . S
H961 C985 0.950 . S
H962 C986 0.950 . S
H963 C987 0.951 . S
H964 C989 0.951 . S
H965 C991 0.950 . S
H966 C992 0.950 . S
H967 C994 0.950 . S
H968 C997 0.950 . S
H969 C998 0.950 . S
H970 C1000 0.950 . S
H971 C1001 0.950 . S
C972 H954 0.951 . S
C972 C973 1.366 . S
C972 C974 1.388 . S
C973 C972 1.366 . S
C973 C977 1.385 . S
C974 H955 0.951 . S
C974 C972 1.388 . S
C974 C975 1.366 . S
C975 C974 1.366 . S
C975 C976 1.414 . S
C975 C978 1.499 . S
C976 H956 0.950 . S
C976 C975 1.414 . S
C976 C977 1.374 . S
C977 H957 0.950 . S
C977 C973 1.385 . S
C977 C976 1.374 . S
C978 C975 1.499 . S
C978 C979 1.373 . S
C978 C980 1.389 . S
C979 H958 0.950 . S
C979 C978 1.373 . S
C979 C995 1.377 . S
C980 C978 1.389 . S
C980 C981 1.524 . S
C980 C994 1.377 . S
C981 C980 1.524 . S
C981 C982 1.397 . S
C981 C986 1.363 . S
C982 H959 0.950 . S
C982 C981 1.397 . S
C982 C983 1.334 . S
C983 H960 0.950 . S
C983 C982 1.334 . S
C983 C984 1.287 . S
C984 C983 1.287 . S
C984 C985 1.524 . S
C984 H1003 0.913 . S
C985 H961 0.950 . S
C985 C984 1.524 . S
C985 C986 1.415 . S
C986 H962 0.950 . S
C986 C981 1.363 . S
C986 C985 1.415 . S
C987 H963 0.951 . S
C987 C988 1.366 . S
C987 C989 1.388 . S
C988 C987 1.366 . S
C988 C992 1.385 . S
C989 H964 0.951 . S
C989 C987 1.388 . S
C989 C990 1.366 . S
C990 C989 1.366 . S
C990 C991 1.414 . S
C990 C993 1.499 . S
C991 H965 0.950 . S
C991 C990 1.414 . S
C991 C992 1.374 . S
C992 H966 0.950 . S
C992 C988 1.385 . S
C992 C991 1.374 . S
C993 C990 1.499 . S
C993 C994 1.373 . S
C993 C995 1.389 . S
C994 H967 0.950 . S
C994 C980 1.377 . S
C994 C993 1.373 . S
C995 C979 1.377 . S
C995 C993 1.389 . S
C995 C996 1.524 . S
C996 C995 1.524 . S
C996 C997 1.397 . S
C996 C1001 1.363 . S
C997 H968 0.950 . S
C997 C996 1.397 . S
C997 C998 1.334 . S
C998 H969 0.950 . S
C998 C997 1.334 . S
C998 C999 1.287 . S
C999 C998 1.287 . S
C999 C1000 1.524 . S
C999 H1002 0.999 . S
C1000 H970 0.950 . S
C1000 C999 1.524 . S
C1000 C1001 1.415 . S
C1001 H971 0.950 . S
C1001 C996 1.363 . S
C1001 C1000 1.415 . S
H1002 C999 0.999 . S
H1003 C984 0.913 . S
H1004 C1022 0.951 . S
H1005 C1024 0.951 . S
H1006 C1026 0.950 . S
H1007 C1027 0.950 . S
H1008 C1029 0.950 . S
H1009 C1032 0.950 . S
H1010 C1033 0.950 . S
H1011 C1035 0.950 . S
H1012 C1036 0.950 . S
H1013 C1037 0.951 . S
H1014 C1039 0.951 . S
H1015 C1041 0.950 . S
H1016 C1042 0.950 . S
H1017 C1044 0.950 . S
H1018 C1047 0.950 . S
H1019 C1048 0.950 . S
H1020 C1050 0.950 . S
H1021 C1051 0.950 . S
C1022 H1004 0.951 . S
C1022 C1023 1.366 . S
C1022 C1024 1.388 . S
C1023 C1022 1.366 . S
C1023 C1027 1.385 . S
C1024 H1005 0.951 . S
C1024 C1022 1.388 . S
C1024 C1025 1.366 . S
C1025 C1024 1.366 . S
C1025 C1026 1.414 . S
C1025 C1028 1.499 . S
C1026 H1006 0.950 . S
C1026 C1025 1.414 . S
C1026 C1027 1.374 . S
C1027 H1007 0.950 . S
C1027 C1023 1.385 . S
C1027 C1026 1.374 . S
C1028 C1025 1.499 . S
C1028 C1029 1.373 . S
C1028 C1030 1.389 . S
C1029 H1008 0.950 . S
C1029 C1028 1.373 . S
C1029 C1045 1.377 . S
C1030 C1028 1.389 . S
C1030 C1031 1.524 . S
C1030 C1044 1.377 . S
C1031 C1030 1.524 . S
C1031 C1032 1.397 . S
C1031 C1036 1.363 . S
C1032 H1009 0.950 . S
C1032 C1031 1.397 . S
C1032 C1033 1.334 . S
C1033 H1010 0.950 . S
C1033 C1032 1.334 . S
C1033 C1034 1.287 . S
C1034 C1033 1.287 . S
C1034 C1035 1.524 . S
C1034 H1053 0.913 . S
C1035 H1011 0.950 . S
C1035 C1034 1.524 . S
C1035 C1036 1.415 . S
C1036 H1012 0.950 . S
C1036 C1031 1.363 . S
C1036 C1035 1.415 . S
C1037 H1013 0.951 . S
C1037 C1038 1.366 . S
C1037 C1039 1.388 . S
C1038 C1037 1.366 . S
C1038 C1042 1.385 . S
C1039 H1014 0.951 . S
C1039 C1037 1.388 . S
C1039 C1040 1.366 . S
C1040 C1039 1.366 . S
C1040 C1041 1.414 . S
C1040 C1043 1.499 . S
C1041 H1015 0.950 . S
C1041 C1040 1.414 . S
C1041 C1042 1.374 . S
C1042 H1016 0.950 . S
C1042 C1038 1.385 . S
C1042 C1041 1.374 . S
C1043 C1040 1.499 . S
C1043 C1044 1.373 . S
C1043 C1045 1.389 . S
C1044 H1017 0.950 . S
C1044 C1030 1.377 . S
C1044 C1043 1.373 . S
C1045 C1029 1.377 . S
C1045 C1043 1.389 . S
C1045 C1046 1.524 . S
C1046 C1045 1.524 . S
C1046 C1047 1.397 . S
C1046 C1051 1.363 . S
C1047 H1018 0.950 . S
C1047 C1046 1.397 . S
C1047 C1048 1.334 . S
C1048 H1019 0.950 . S
C1048 C1047 1.334 . S
C1048 C1049 1.287 . S
C1049 C1048 1.287 . S
C1049 C1050 1.524 . S
C1049 H1052 0.999 . S
C1050 H1020 0.950 . S
C1050 C1049 1.524 . S
C1050 C1051 1.415 . S
C1051 H1021 0.950 . S
C1051 C1046 1.363 . S
C1051 C1050 1.415 . S
H1052 C1049 0.999 . S
H1053 C1034 0.913 . S
H1054 C1072 0.951 . S
H1055 C1074 0.951 . S
H1056 C1076 0.950 . S
H1057 C1077 0.950 . S
H1058 C1079 0.950 . S
H1059 C1082 0.950 . S
H1060 C1083 0.950 . S
H1061 C1085 0.950 . S
H1062 C1086 0.950 . S
H1063 C1087 0.951 . S
H1064 C1089 0.951 . S
H1065 C1091 0.950 . S
H1066 C1092 0.950 . S
H1067 C1094 0.950 . S
H1068 C1097 0.950 . S
H1069 C1098 0.950 . S
H1070 C1100 0.950 1_565 S
H1071 C1101 0.950 . S
C1072 H1054 0.951 . S
C1072 C1073 1.366 . S
C1072 C1074 1.388 . S
C1073 C1072 1.366 . S
C1073 C1077 1.385 . S
C1074 H1055 0.951 . S
C1074 C1072 1.388 . S
C1074 C1075 1.366 . S
C1075 C1074 1.366 . S
C1075 C1076 1.414 . S
C1075 C1078 1.499 . S
C1076 H1056 0.950 . S
C1076 C1075 1.414 . S
C1076 C1077 1.374 . S
C1077 H1057 0.950 . S
C1077 C1073 1.385 . S
C1077 C1076 1.374 . S
C1078 C1075 1.499 . S
C1078 C1079 1.373 . S
C1078 C1080 1.389 . S
C1079 H1058 0.950 . S
C1079 C1078 1.373 . S
C1079 C1095 1.377 . S
C1080 C1078 1.389 . S
C1080 C1081 1.524 . S
C1080 C1094 1.377 . S
C1081 C1080 1.524 . S
C1081 C1082 1.397 . S
C1081 C1086 1.363 . S
C1082 H1059 0.950 . S
C1082 C1081 1.397 . S
C1082 C1083 1.334 . S
C1083 H1060 0.950 . S
C1083 C1082 1.334 . S
C1083 C1084 1.287 . S
C1084 C1083 1.287 . S
C1084 C1085 1.524 . S
C1084 H1103 0.913 . S
C1085 H1061 0.950 . S
C1085 C1084 1.524 . S
C1085 C1086 1.415 . S
C1086 H1062 0.950 . S
C1086 C1081 1.363 . S
C1086 C1085 1.415 . S
C1087 H1063 0.951 . S
C1087 C1088 1.366 . S
C1087 C1089 1.388 . S
C1088 C1087 1.366 . S
C1088 C1092 1.385 . S
C1089 H1064 0.951 . S
C1089 C1087 1.388 . S
C1089 C1090 1.366 . S
C1090 C1089 1.366 . S
C1090 C1091 1.414 . S
C1090 C1093 1.499 . S
C1091 H1065 0.950 . S
C1091 C1090 1.414 . S
C1091 C1092 1.374 . S
C1092 H1066 0.950 . S
C1092 C1088 1.385 . S
C1092 C1091 1.374 . S
C1093 C1090 1.499 . S
C1093 C1094 1.373 . S
C1093 C1095 1.389 . S
C1094 H1067 0.950 . S
C1094 C1080 1.377 . S
C1094 C1093 1.373 . S
C1095 C1079 1.377 . S
C1095 C1093 1.389 . S
C1095 C1096 1.524 . S
C1096 C1095 1.524 . S
C1096 C1097 1.397 . S
C1096 C1101 1.363 . S
C1097 H1068 0.950 . S
C1097 C1096 1.397 . S
C1097 C1098 1.334 . S
C1098 H1069 0.950 . S
C1098 C1097 1.334 . S
C1098 C1099 1.287 . S
C1099 C1098 1.287 . S
C1099 C1100 1.524 . S
C1099 H1102 0.999 . S
C1100 H1070 0.950 1_545 S
C1100 C1099 1.524 . S
C1100 C1101 1.415 . S
C1101 H1071 0.950 . S
C1101 C1096 1.363 . S
C1101 C1100 1.415 . S
H1102 C1099 0.999 . S
H1103 C1084 0.913 . S
H1104 C1122 0.951 . S
H1105 C1124 0.951 . S
H1106 C1126 0.950 . S
H1107 C1127 0.950 . S
H1108 C1129 0.950 . S
H1109 C1132 0.950 . S
H1110 C1133 0.950 . S
H1111 C1135 0.950 . S
H1112 C1136 0.950 . S
H1113 C1137 0.951 . S
H1114 C1139 0.951 . S
H1115 C1141 0.950 . S
H1116 C1142 0.950 . S
H1117 C1144 0.950 . S
H1118 C1147 0.950 . S
H1119 C1148 0.950 . S
H1120 C1150 0.950 1_545 S
H1121 C1151 0.950 . S
C1122 H1104 0.951 . S
C1122 C1123 1.366 . S
C1122 C1124 1.388 . S
C1123 C1122 1.366 . S
C1123 C1127 1.385 . S
C1124 H1105 0.951 . S
C1124 C1122 1.388 . S
C1124 C1125 1.366 . S
C1125 C1124 1.366 . S
C1125 C1126 1.414 . S
C1125 C1128 1.499 . S
C1126 H1106 0.950 . S
C1126 C1125 1.414 . S
C1126 C1127 1.374 . S
C1127 H1107 0.950 . S
C1127 C1123 1.385 . S
C1127 C1126 1.374 . S
C1128 C1125 1.499 . S
C1128 C1129 1.373 . S
C1128 C1130 1.389 . S
C1129 H1108 0.950 . S
C1129 C1128 1.373 . S
C1129 C1145 1.377 . S
C1130 C1128 1.389 . S
C1130 C1131 1.524 . S
C1130 C1144 1.377 . S
C1131 C1130 1.524 . S
C1131 C1132 1.397 . S
C1131 C1136 1.363 . S
C1132 H1109 0.950 . S
C1132 C1131 1.397 . S
C1132 C1133 1.334 . S
C1133 H1110 0.950 . S
C1133 C1132 1.334 . S
C1133 C1134 1.287 . S
C1134 C1133 1.287 . S
C1134 C1135 1.524 . S
C1134 H1153 0.913 . S
C1135 H1111 0.950 . S
C1135 C1134 1.524 . S
C1135 C1136 1.415 . S
C1136 H1112 0.950 . S
C1136 C1131 1.363 . S
C1136 C1135 1.415 . S
C1137 H1113 0.951 . S
C1137 C1138 1.366 . S
C1137 C1139 1.388 . S
C1138 C1137 1.366 . S
C1138 C1142 1.385 . S
C1139 H1114 0.951 . S
C1139 C1137 1.388 . S
C1139 C1140 1.366 . S
C1140 C1139 1.366 . S
C1140 C1141 1.414 . S
C1140 C1143 1.499 . S
C1141 H1115 0.950 . S
C1141 C1140 1.414 . S
C1141 C1142 1.374 . S
C1142 H1116 0.950 . S
C1142 C1138 1.385 . S
C1142 C1141 1.374 . S
C1143 C1140 1.499 . S
C1143 C1144 1.373 . S
C1143 C1145 1.389 . S
C1144 H1117 0.950 . S
C1144 C1130 1.377 . S
C1144 C1143 1.373 . S
C1145 C1129 1.377 . S
C1145 C1143 1.389 . S
C1145 C1146 1.524 . S
C1146 C1145 1.524 . S
C1146 C1147 1.397 . S
C1146 C1151 1.363 . S
C1147 H1118 0.950 . S
C1147 C1146 1.397 . S
C1147 C1148 1.334 . S
C1148 H1119 0.950 . S
C1148 C1147 1.334 . S
C1148 C1149 1.287 . S
C1149 C1148 1.287 . S
C1149 C1150 1.524 . S
C1149 H1152 0.999 . S
C1150 H1120 0.950 1_565 S
C1150 C1149 1.524 . S
C1150 C1151 1.415 . S
C1151 H1121 0.950 . S
C1151 C1146 1.363 . S
C1151 C1150 1.415 . S
H1152 C1149 0.999 . S
H1153 C1134 0.913 . S
H1154 C1172 0.951 . S
H1155 C1174 0.951 . S
H1156 C1176 0.950 . S
H1157 C1177 0.950 . S
H1158 C1179 0.950 . S
H1159 C1182 0.950 . S
H1160 C1183 0.950 . S
H1161 C1185 0.950 . S
H1162 C1186 0.950 . S
H1163 C1187 0.951 . S
H1164 C1189 0.951 . S
H1165 C1191 0.950 . S
H1166 C1192 0.950 . S
H1167 C1194 0.950 . S
H1168 C1197 0.950 . S
H1169 C1198 0.950 . S
H1170 C1200 0.950 . S
H1171 C1201 0.950 . S
C1172 H1154 0.951 . S
C1172 C1173 1.366 . S
C1172 C1174 1.388 . S
C1173 C1172 1.366 . S
C1173 C1177 1.385 . S
C1174 H1155 0.951 . S
C1174 C1172 1.388 . S
C1174 C1175 1.366 . S
C1175 C1174 1.366 . S
C1175 C1176 1.414 . S
C1175 C1178 1.499 . S
C1176 H1156 0.950 . S
C1176 C1175 1.414 . S
C1176 C1177 1.374 . S
C1177 H1157 0.950 . S
C1177 C1173 1.385 . S
C1177 C1176 1.374 . S
C1178 C1175 1.499 . S
C1178 C1179 1.373 . S
C1178 C1180 1.389 . S
C1179 H1158 0.950 . S
C1179 C1178 1.373 . S
C1179 C1195 1.377 . S
C1180 C1178 1.389 . S
C1180 C1181 1.524 . S
C1180 C1194 1.377 . S
C1181 C1180 1.524 . S
C1181 C1182 1.397 . S
C1181 C1186 1.363 . S
C1182 H1159 0.950 . S
C1182 C1181 1.397 . S
C1182 C1183 1.334 . S
C1183 H1160 0.950 . S
C1183 C1182 1.334 . S
C1183 C1184 1.287 . S
C1184 C1183 1.287 . S
C1184 C1185 1.524 . S
C1184 H1203 0.913 . S
C1185 H1161 0.950 . S
C1185 C1184 1.524 . S
C1185 C1186 1.415 . S
C1186 H1162 0.950 . S
C1186 C1181 1.363 . S
C1186 C1185 1.415 . S
C1187 H1163 0.951 . S
C1187 C1188 1.366 . S
C1187 C1189 1.388 . S
C1188 C1187 1.366 . S
C1188 C1192 1.385 . S
C1189 H1164 0.951 . S
C1189 C1187 1.388 . S
C1189 C1190 1.366 . S
C1190 C1189 1.366 . S
C1190 C1191 1.414 . S
C1190 C1193 1.499 . S
C1191 H1165 0.950 . S
C1191 C1190 1.414 . S
C1191 C1192 1.374 . S
C1192 H1166 0.950 . S
C1192 C1188 1.385 . S
C1192 C1191 1.374 . S
C1193 C1190 1.499 . S
C1193 C1194 1.373 . S
C1193 C1195 1.389 . S
C1194 H1167 0.950 . S
C1194 C1180 1.377 . S
C1194 C1193 1.373 . S
C1195 C1179 1.377 . S
C1195 C1193 1.389 . S
C1195 C1196 1.524 . S
C1196 C1195 1.524 . S
C1196 C1197 1.397 . S
C1196 C1201 1.363 . S
C1197 H1168 0.950 . S
C1197 C1196 1.397 . S
C1197 C1198 1.334 . S
C1198 H1169 0.950 . S
C1198 C1197 1.334 . S
C1198 C1199 1.287 . S
C1199 C1198 1.287 . S
C1199 C1200 1.524 . S
C1199 H1202 0.999 . S
C1200 H1170 0.950 . S
C1200 C1199 1.524 . S
C1200 C1201 1.415 . S
C1201 H1171 0.950 . S
C1201 C1196 1.363 . S
C1201 C1200 1.415 . S
H1202 C1199 0.999 . S
H1203 C1184 0.913 . S
H1204 C1222 0.951 . S
H1205 C1224 0.951 . S
H1206 C1226 0.950 . S
H1207 C1227 0.950 . S
H1208 C1229 0.950 . S
H1209 C1232 0.950 . S
H1210 C1233 0.950 . S
H1211 C1235 0.950 . S
H1212 C1236 0.950 . S
H1213 C1237 0.951 . S
H1214 C1239 0.951 . S
H1215 C1241 0.950 . S
H1216 C1242 0.950 . S
H1217 C1244 0.950 . S
H1218 C1247 0.950 . S
H1219 C1248 0.950 . S
H1220 C1250 0.950 . S
H1221 C1251 0.950 . S
C1222 H1204 0.951 . S
C1222 C1223 1.366 . S
C1222 C1224 1.388 . S
C1223 C1222 1.366 . S
C1223 C1227 1.385 . S
C1224 H1205 0.951 . S
C1224 C1222 1.388 . S
C1224 C1225 1.366 . S
C1225 C1224 1.366 . S
C1225 C1226 1.414 . S
C1225 C1228 1.499 . S
C1226 H1206 0.950 . S
C1226 C1225 1.414 . S
C1226 C1227 1.374 . S
C1227 H1207 0.950 . S
C1227 C1223 1.385 . S
C1227 C1226 1.374 . S
C1228 C1225 1.499 . S
C1228 C1229 1.373 . S
C1228 C1230 1.389 . S
C1229 H1208 0.950 . S
C1229 C1228 1.373 . S
C1229 C1245 1.377 . S
C1230 C1228 1.389 . S
C1230 C1231 1.524 . S
C1230 C1244 1.377 . S
C1231 C1230 1.524 . S
C1231 C1232 1.397 . S
C1231 C1236 1.363 . S
C1232 H1209 0.950 . S
C1232 C1231 1.397 . S
C1232 C1233 1.334 . S
C1233 H1210 0.950 . S
C1233 C1232 1.334 . S
C1233 C1234 1.287 . S
C1234 C1233 1.287 . S
C1234 C1235 1.524 . S
C1234 H1253 0.913 . S
C1235 H1211 0.950 . S
C1235 C1234 1.524 . S
C1235 C1236 1.415 . S
C1236 H1212 0.950 . S
C1236 C1231 1.363 . S
C1236 C1235 1.415 . S
C1237 H1213 0.951 . S
C1237 C1238 1.366 . S
C1237 C1239 1.388 . S
C1238 C1237 1.366 . S
C1238 C1242 1.385 . S
C1239 H1214 0.951 . S
C1239 C1237 1.388 . S
C1239 C1240 1.366 . S
C1240 C1239 1.366 . S
C1240 C1241 1.414 . S
C1240 C1243 1.499 . S
C1241 H1215 0.950 . S
C1241 C1240 1.414 . S
C1241 C1242 1.374 . S
C1242 H1216 0.950 . S
C1242 C1238 1.385 . S
C1242 C1241 1.374 . S
C1243 C1240 1.499 . S
C1243 C1244 1.373 . S
C1243 C1245 1.389 . S
C1244 H1217 0.950 . S
C1244 C1230 1.377 . S
C1244 C1243 1.373 . S
C1245 C1229 1.377 . S
C1245 C1243 1.389 . S
C1245 C1246 1.524 . S
C1246 C1245 1.524 . S
C1246 C1247 1.397 . S
C1246 C1251 1.363 . S
C1247 H1218 0.950 . S
C1247 C1246 1.397 . S
C1247 C1248 1.334 . S
C1248 H1219 0.950 . S
C1248 C1247 1.334 . S
C1248 C1249 1.287 . S
C1249 C1248 1.287 . S
C1249 C1250 1.524 . S
C1249 H1252 0.999 . S
C1250 H1220 0.950 . S
C1250 C1249 1.524 . S
C1250 C1251 1.415 . S
C1251 H1221 0.950 . S
C1251 C1246 1.363 . S
C1251 C1250 1.415 . S
H1252 C1249 0.999 . S
H1253 C1234 0.913 . S
H1254 C1272 0.951 . S
H1255 C1274 0.951 . S
H1256 C1276 0.950 . S
H1257 C1277 0.950 . S
H1258 C1279 0.950 . S
H1259 C1282 0.950 . S
H1260 C1283 0.950 . S
H1261 C1285 0.950 . S
H1262 C1286 0.950 . S
H1263 C1287 0.951 . S
H1264 C1289 0.951 . S
H1265 C1291 0.950 . S
H1266 C1292 0.950 . S
H1267 C1294 0.950 . S
H1268 C1297 0.950 . S
H1269 C1298 0.950 . S
H1270 C1300 0.950 . S
H1271 C1301 0.950 . S
C1272 H1254 0.951 . S
C1272 C1273 1.366 . S
C1272 C1274 1.388 . S
C1273 C1272 1.366 . S
C1273 C1277 1.385 . S
C1274 H1255 0.951 . S
C1274 C1272 1.388 . S
C1274 C1275 1.366 . S
C1275 C1274 1.366 . S
C1275 C1276 1.414 . S
C1275 C1278 1.499 . S
C1276 H1256 0.950 . S
C1276 C1275 1.414 . S
C1276 C1277 1.374 . S
C1277 H1257 0.950 . S
C1277 C1273 1.385 . S
C1277 C1276 1.374 . S
C1278 C1275 1.499 . S
C1278 C1279 1.373 . S
C1278 C1280 1.389 . S
C1279 H1258 0.950 . S
C1279 C1278 1.373 . S
C1279 C1295 1.377 . S
C1280 C1278 1.389 . S
C1280 C1281 1.524 . S
C1280 C1294 1.377 . S
C1281 C1280 1.524 . S
C1281 C1282 1.397 . S
C1281 C1286 1.363 . S
C1282 H1259 0.950 . S
C1282 C1281 1.397 . S
C1282 C1283 1.334 . S
C1283 H1260 0.950 . S
C1283 C1282 1.334 . S
C1283 C1284 1.287 . S
C1284 C1283 1.287 . S
C1284 C1285 1.524 . S
C1284 H1303 0.913 . S
C1285 H1261 0.950 . S
C1285 C1284 1.524 . S
C1285 C1286 1.415 . S
C1286 H1262 0.950 . S
C1286 C1281 1.363 . S
C1286 C1285 1.415 . S
C1287 H1263 0.951 . S
C1287 C1288 1.366 . S
C1287 C1289 1.388 . S
C1288 C1287 1.366 . S
C1288 C1292 1.385 . S
C1289 H1264 0.951 . S
C1289 C1287 1.388 . S
C1289 C1290 1.366 . S
C1290 C1289 1.366 . S
C1290 C1291 1.414 . S
C1290 C1293 1.499 . S
C1291 H1265 0.950 . S
C1291 C1290 1.414 . S
C1291 C1292 1.374 . S
C1292 H1266 0.950 . S
C1292 C1288 1.385 . S
C1292 C1291 1.374 . S
C1293 C1290 1.499 . S
C1293 C1294 1.373 . S
C1293 C1295 1.389 . S
C1294 H1267 0.950 . S
C1294 C1280 1.377 . S
C1294 C1293 1.373 . S
C1295 C1279 1.377 . S
C1295 C1293 1.389 . S
C1295 C1296 1.524 . S
C1296 C1295 1.524 . S
C1296 C1297 1.397 . S
C1296 C1301 1.363 . S
C1297 H1268 0.950 . S
C1297 C1296 1.397 . S
C1297 C1298 1.334 . S
C1298 H1269 0.950 . S
C1298 C1297 1.334 . S
C1298 C1299 1.287 . S
C1299 C1298 1.287 . S
C1299 C1300 1.524 . S
C1299 H1302 0.999 . S
C1300 H1270 0.950 . S
C1300 C1299 1.524 . S
C1300 C1301 1.415 . S
C1301 H1271 0.950 . S
C1301 C1296 1.363 . S
C1301 C1300 1.415 . S
H1302 C1299 0.999 . S
H1303 C1284 0.913 . S
H1304 C1322 0.951 . S
H1305 C1324 0.951 . S
H1306 C1326 0.950 . S
H1307 C1327 0.950 . S
H1308 C1329 0.950 . S
H1309 C1332 0.950 . S
H1310 C1333 0.950 . S
H1311 C1335 0.950 . S
H1312 C1336 0.950 . S
H1313 C1337 0.951 . S
H1314 C1339 0.951 . S
H1315 C1341 0.950 . S
H1316 C1342 0.950 . S
H1317 C1344 0.950 . S
H1318 C1347 0.950 . S
H1319 C1348 0.950 . S
H1320 C1350 0.950 . S
H1321 C1351 0.950 . S
C1322 H1304 0.951 . S
C1322 C1323 1.366 . S
C1322 C1324 1.388 . S
C1323 C1322 1.366 . S
C1323 C1327 1.385 . S
C1324 H1305 0.951 . S
C1324 C1322 1.388 . S
C1324 C1325 1.366 . S
C1325 C1324 1.366 . S
C1325 C1326 1.414 . S
C1325 C1328 1.499 . S
C1326 H1306 0.950 . S
C1326 C1325 1.414 . S
C1326 C1327 1.374 . S
C1327 H1307 0.950 . S
C1327 C1323 1.385 . S
C1327 C1326 1.374 . S
C1328 C1325 1.499 . S
C1328 C1329 1.373 . S
C1328 C1330 1.389 . S
C1329 H1308 0.950 . S
C1329 C1328 1.373 . S
C1329 C1345 1.377 . S
C1330 C1328 1.389 . S
C1330 C1331 1.524 . S
C1330 C1344 1.377 . S
C1331 C1330 1.524 . S
C1331 C1332 1.397 . S
C1331 C1336 1.363 . S
C1332 H1309 0.950 . S
C1332 C1331 1.397 . S
C1332 C1333 1.334 . S
C1333 H1310 0.950 . S
C1333 C1332 1.334 . S
C1333 C1334 1.287 . S
C1334 C1333 1.287 . S
C1334 C1335 1.524 . S
C1334 H1353 0.913 . S
C1335 H1311 0.950 . S
C1335 C1334 1.524 . S
C1335 C1336 1.415 . S
C1336 H1312 0.950 . S
C1336 C1331 1.363 . S
C1336 C1335 1.415 . S
C1337 H1313 0.951 . S
C1337 C1338 1.366 . S
C1337 C1339 1.388 . S
C1338 C1337 1.366 . S
C1338 C1342 1.385 . S
C1339 H1314 0.951 . S
C1339 C1337 1.388 . S
C1339 C1340 1.366 . S
C1340 C1339 1.366 . S
C1340 C1341 1.414 . S
C1340 C1343 1.499 . S
C1341 H1315 0.950 . S
C1341 C1340 1.414 . S
C1341 C1342 1.374 . S
C1342 H1316 0.950 . S
C1342 C1338 1.385 . S
C1342 C1341 1.374 . S
C1343 C1340 1.499 . S
C1343 C1344 1.373 . S
C1343 C1345 1.389 . S
C1344 H1317 0.950 . S
C1344 C1330 1.377 . S
C1344 C1343 1.373 . S
C1345 C1329 1.377 . S
C1345 C1343 1.389 . S
C1345 C1346 1.524 . S
C1346 C1345 1.524 . S
C1346 C1347 1.397 . S
C1346 C1351 1.363 . S
C1347 H1318 0.950 . S
C1347 C1346 1.397 . S
C1347 C1348 1.334 . S
C1348 H1319 0.950 . S
C1348 C1347 1.334 . S
C1348 C1349 1.287 . S
C1349 C1348 1.287 . S
C1349 C1350 1.524 . S
C1349 H1352 0.999 . S
C1350 H1320 0.950 . S
C1350 C1349 1.524 . S
C1350 C1351 1.415 . S
C1351 H1321 0.950 . S
C1351 C1346 1.363 . S
C1351 C1350 1.415 . S
H1352 C1349 0.999 . S
H1353 C1334 0.913 . S
H1354 C1372 0.951 . S
H1355 C1374 0.951 . S
H1356 C1376 0.950 . S
H1357 C1377 0.950 . S
H1358 C1379 0.950 . S
H1359 C1382 0.950 . S
H1360 C1383 0.950 . S
H1361 C1385 0.950 . S
H1362 C1386 0.950 . S
H1363 C1387 0.951 . S
H1364 C1389 0.951 . S
H1365 C1391 0.950 . S
H1366 C1392 0.950 . S
H1367 C1394 0.950 . S
H1368 C1397 0.950 . S
H1369 C1398 0.950 . S
H1370 C1400 0.950 . S
H1371 C1401 0.950 . S
C1372 H1354 0.951 . S
C1372 C1373 1.366 . S
C1372 C1374 1.388 . S
C1373 C1372 1.366 . S
C1373 C1377 1.385 . S
C1374 H1355 0.951 . S
C1374 C1372 1.388 . S
C1374 C1375 1.366 . S
C1375 C1374 1.366 . S
C1375 C1376 1.414 . S
C1375 C1378 1.499 . S
C1376 H1356 0.950 . S
C1376 C1375 1.414 . S
C1376 C1377 1.374 . S
C1377 H1357 0.950 . S
C1377 C1373 1.385 . S
C1377 C1376 1.374 . S
C1378 C1375 1.499 . S
C1378 C1379 1.373 . S
C1378 C1380 1.389 . S
C1379 H1358 0.950 . S
C1379 C1378 1.373 . S
C1379 C1395 1.377 . S
C1380 C1378 1.389 . S
C1380 C1381 1.524 . S
C1380 C1394 1.377 . S
C1381 C1380 1.524 . S
C1381 C1382 1.397 . S
C1381 C1386 1.363 . S
C1382 H1359 0.950 . S
C1382 C1381 1.397 . S
C1382 C1383 1.334 . S
C1383 H1360 0.950 . S
C1383 C1382 1.334 . S
C1383 C1384 1.287 . S
C1384 C1383 1.287 . S
C1384 C1385 1.524 . S
C1384 H1403 0.913 . S
C1385 H1361 0.950 . S
C1385 C1384 1.524 . S
C1385 C1386 1.415 . S
C1386 H1362 0.950 . S
C1386 C1381 1.363 . S
C1386 C1385 1.415 . S
C1387 H1363 0.951 . S
C1387 C1388 1.366 . S
C1387 C1389 1.388 . S
C1388 C1387 1.366 . S
C1388 C1392 1.385 . S
C1389 H1364 0.951 . S
C1389 C1387 1.388 . S
C1389 C1390 1.366 . S
C1390 C1389 1.366 . S
C1390 C1391 1.414 . S
C1390 C1393 1.499 . S
C1391 H1365 0.950 . S
C1391 C1390 1.414 . S
C1391 C1392 1.374 . S
C1392 H1366 0.950 . S
C1392 C1388 1.385 . S
C1392 C1391 1.374 . S
C1393 C1390 1.499 . S
C1393 C1394 1.373 . S
C1393 C1395 1.389 . S
C1394 H1367 0.950 . S
C1394 C1380 1.377 . S
C1394 C1393 1.373 . S
C1395 C1379 1.377 . S
C1395 C1393 1.389 . S
C1395 C1396 1.524 . S
C1396 C1395 1.524 . S
C1396 C1397 1.397 . S
C1396 C1401 1.363 . S
C1397 H1368 0.950 . S
C1397 C1396 1.397 . S
C1397 C1398 1.334 . S
C1398 H1369 0.950 . S
C1398 C1397 1.334 . S
C1398 C1399 1.287 . S
C1399 C1398 1.287 . S
C1399 C1400 1.524 . S
C1399 H1402 0.999 . S
C1400 H1370 0.950 . S
C1400 C1399 1.524 . S
C1400 C1401 1.415 . S
C1401 H1371 0.950 . S
C1401 C1396 1.363 . S
C1401 C1400 1.415 . S
H1402 C1399 0.999 . S
H1403 C1384 0.913 . S
H1404 C1422 0.951 . S
H1405 C1424 0.951 . S
H1406 C1426 0.950 1_556 S
H1407 C1427 0.950 . S
H1408 C1429 0.950 1_556 S
H1409 C1432 0.950 . S
H1410 C1433 0.950 1_556 S
H1411 C1435 0.950 . S
H1412 C1436 0.950 1_655 S
H1413 C1437 0.951 . S
H1414 C1439 0.951 . S
H1415 C1441 0.950 1_554 S
H1416 C1442 0.950 . S
H1417 C1444 0.950 . S
H1418 C1447 0.950 . S
H1419 C1448 0.950 1_554 S
H1420 C1450 0.950 . S
H1421 C1451 0.950 1_455 S
C1422 H1404 0.951 . S
C1422 C1423 1.366 . S
C1422 C1424 1.388 . S
C1423 C1422 1.366 . S
C1423 C1427 1.385 . S
C1424 H1405 0.951 . S
C1424 C1422 1.388 . S
C1424 C1425 1.366 . S
C1425 C1424 1.366 . S
C1425 C1426 1.414 . S
C1425 C1428 1.499 . S
C1426 H1406 0.950 1_554 S
C1426 C1425 1.414 . S
C1426 C1427 1.374 . S
C1427 H1407 0.950 . S
C1427 C1423 1.385 . S
C1427 C1426 1.374 . S
C1428 C1425 1.499 . S
C1428 C1429 1.373 . S
C1428 C1430 1.389 . S
C1429 H1408 0.950 1_554 S
C1429 C1428 1.373 . S
C1429 C1445 1.377 1_454 S
C1430 C1428 1.389 . S
C1430 C1431 1.524 . S
C1430 C1444 1.375 1_454 S
C1431 C1430 1.524 . S
C1431 C1432 1.397 1_554 S
C1431 C1436 1.363 . S
C1432 H1409 0.950 . S
C1432 C1431 1.397 1_556 S
C1432 C1433 1.334 1_556 S
C1433 H1410 0.950 1_554 S
C1433 C1432 1.334 1_554 S
C1433 C1434 1.287 . S
C1434 C1433 1.287 . S
C1434 C1435 1.524 . S
C1434 H1453 0.913 . S
C1435 H1411 0.950 . S
C1435 C1434 1.524 . S
C1435 C1436 1.415 . S
C1436 H1412 0.950 1_455 S
C1436 C1431 1.363 . S
C1436 C1435 1.415 . S
C1437 H1413 0.951 . S
C1437 C1438 1.366 . S
C1437 C1439 1.388 . S
C1438 C1437 1.366 . S
C1438 C1442 1.385 . S
C1439 H1414 0.951 . S
C1439 C1437 1.388 . S
C1439 C1440 1.366 . S
C1440 C1439 1.366 . S
C1440 C1441 1.414 . S
C1440 C1443 1.499 . S
C1441 H1415 0.950 1_556 S
C1441 C1440 1.414 . S
C1441 C1442 1.374 . S
C1442 H1416 0.950 . S
C1442 C1438 1.385 . S
C1442 C1441 1.374 . S
C1443 C1440 1.499 . S
C1443 C1444 1.374 . S
C1443 C1445 1.389 . S
C1444 H1417 0.950 . S
C1444 C1430 1.375 1_656 S
C1444 C1443 1.374 . S
C1445 C1429 1.377 1_656 S
C1445 C1443 1.389 . S
C1445 C1446 1.524 . S
C1446 C1445 1.524 . S
C1446 C1447 1.397 1_556 S
C1446 C1451 1.363 . S
C1447 H1418 0.950 . S
C1447 C1446 1.397 1_554 S
C1447 C1448 1.334 1_554 S
C1448 H1419 0.950 1_556 S
C1448 C1447 1.334 1_556 S
C1448 C1449 1.287 . S
C1449 C1448 1.287 . S
C1449 C1450 1.524 . S
C1449 H1452 0.999 . S
C1450 H1420 0.950 . S
C1450 C1449 1.524 . S
C1450 C1451 1.415 . S
C1451 H1421 0.950 1_655 S
C1451 C1446 1.363 . S
C1451 C1450 1.415 . S
H1452 C1449 0.999 . S
H1453 C1434 0.913 . S
H1454 C1472 0.951 . S
H1455 C1474 0.951 . S
H1456 C1476 0.950 1_554 S
H1457 C1477 0.966 . S
H1458 C1479 0.950 . S
H1459 C1482 0.950 . S
H1460 C1483 0.950 . S
H1461 C1485 0.950 . S
H1462 C1486 0.950 . S
H1463 C1487 0.951 . S
H1464 C1489 0.951 . S
H1465 C1491 0.950 1_556 S
H1466 C1492 0.966 . S
H1467 C1494 0.950 . S
H1468 C1497 0.950 . S
H1469 C1498 0.950 . S
H1470 C1500 0.950 . S
H1471 C1501 0.950 . S
C1472 H1454 0.951 . S
C1472 C1473 1.366 . S
C1472 C1474 1.388 . S
C1473 C1472 1.366 . S
C1473 C1477 1.385 . S
C1474 H1455 0.951 . S
C1474 C1472 1.388 . S
C1474 C1475 1.366 . S
C1475 C1474 1.366 . S
C1475 C1476 1.414 . S
C1475 C1478 1.499 . S
C1476 H1456 0.950 1_556 S
C1476 C1475 1.414 . S
C1476 C1477 1.374 . S
C1477 H1457 0.966 . S
C1477 C1473 1.385 . S
C1477 C1476 1.374 . S
C1478 C1475 1.499 . S
C1478 C1479 1.373 1_556 S
C1478 C1480 1.389 . S
C1479 H1458 0.950 . S
C1479 C1478 1.373 1_554 S
C1479 C1495 1.377 . S
C1480 C1478 1.389 . S
C1480 C1481 1.524 . S
C1480 C1494 1.377 . S
C1481 C1480 1.524 . S
C1481 C1482 1.397 . S
C1481 C1486 1.363 . S
C1482 H1459 0.950 . S
C1482 C1481 1.397 . S
C1482 C1483 1.334 . S
C1483 H1460 0.950 . S
C1483 C1482 1.334 . S
C1483 C1484 1.287 . S
C1484 C1483 1.287 . S
C1484 C1485 1.524 . S
C1484 H1503 0.913 . S
C1485 H1461 0.950 . S
C1485 C1484 1.524 . S
C1485 C1486 1.415 . S
C1486 H1462 0.950 . S
C1486 C1481 1.363 . S
C1486 C1485 1.415 . S
C1487 H1463 0.951 . S
C1487 C1488 1.366 . S
C1487 C1489 1.388 . S
C1488 C1487 1.366 . S
C1488 C1492 1.385 . S
C1489 H1464 0.951 . S
C1489 C1487 1.388 . S
C1489 C1490 1.366 . S
C1490 C1489 1.366 . S
C1490 C1491 1.414 . S
C1490 C1493 1.499 . S
C1491 H1465 0.950 1_554 S
C1491 C1490 1.414 . S
C1491 C1492 1.374 . S
C1492 H1466 0.966 . S
C1492 C1488 1.385 . S
C1492 C1491 1.374 . S
C1493 C1490 1.499 . S
C1493 C1494 1.373 1_554 S
C1493 C1495 1.389 . S
C1494 H1467 0.950 . S
C1494 C1480 1.377 . S
C1494 C1493 1.373 1_556 S
C1495 C1479 1.377 . S
C1495 C1493 1.389 . S
C1495 C1496 1.524 . S
C1496 C1495 1.524 . S
C1496 C1497 1.397 . S
C1496 C1501 1.363 . S
C1497 H1468 0.950 . S
C1497 C1496 1.397 . S
C1497 C1498 1.334 . S
C1498 H1469 0.950 . S
C1498 C1497 1.334 . S
C1498 C1499 1.287 . S
C1499 C1498 1.287 . S
C1499 C1500 1.524 . S
C1499 H1502 0.999 . S
C1500 H1470 0.950 . S
C1500 C1499 1.524 . S
C1500 C1501 1.415 . S
C1501 H1471 0.950 . S
C1501 C1496 1.363 . S
C1501 C1500 1.415 . S
H1502 C1499 0.999 . S
H1503 C1484 0.913 . S
H1504 C1522 0.951 . S
H1505 C1524 0.951 . S
H1506 C1526 0.950 1_556 S
H1507 C1527 0.934 1_556 S
H1508 C1529 0.950 . S
H1509 C1532 0.950 1_556 S
H1510 C1533 0.950 . S
H1511 C1535 0.950 . S
H1512 C1536 0.950 1_545 S
H1513 C1537 0.951 . S
H1514 C1539 0.951 . S
H1515 C1541 0.950 1_554 S
H1516 C1542 0.950 1_554 S
H1517 C1544 0.950 . S
H1518 C1547 0.950 1_554 S
H1519 C1548 0.950 . S
H1520 C1550 0.950 . S
H1521 C1551 0.950 1_565 S
C1522 H1504 0.951 . S
C1522 C1523 1.366 . S
C1522 C1524 1.388 . S
C1523 C1522 1.366 . S
C1523 C1527 1.385 . S
C1524 H1505 0.951 . S
C1524 C1522 1.388 . S
C1524 C1525 1.366 . S
C1525 C1524 1.366 . S
C1525 C1526 1.414 . S
C1525 C1528 1.499 . S
C1526 H1506 0.950 1_554 S
C1526 C1525 1.414 . S
C1526 C1527 1.374 . S
C1527 H1507 0.934 1_554 S
C1527 C1523 1.385 . S
C1527 C1526 1.374 . S
C1528 C1525 1.499 . S
C1528 C1529 1.373 1_554 S
C1528 C1530 1.389 . S
C1529 H1508 0.950 . S
C1529 C1528 1.373 1_556 S
C1529 C1545 1.377 1_565 S
C1530 C1528 1.389 . S
C1530 C1531 1.524 . S
C1530 C1544 1.377 1_565 S
C1531 C1530 1.524 . S
C1531 C1532 1.397 . S
C1531 C1536 1.363 . S
C1532 H1509 0.950 1_554 S
C1532 C1531 1.397 . S
C1532 C1533 1.334 . S
C1533 H1510 0.950 . S
C1533 C1532 1.334 . S
C1533 C1534 1.287 . S
C1534 C1533 1.287 . S
C1534 C1535 1.524 . S
C1534 H1553 0.913 . S
C1535 H1511 0.950 . S
C1535 C1534 1.524 . S
C1535 C1536 1.415 . S
C1536 H1512 0.950 1_565 S
C1536 C1531 1.363 . S
C1536 C1535 1.415 . S
C1537 H1513 0.951 . S
C1537 C1538 1.366 . S
C1537 C1539 1.388 . S
C1538 C1537 1.366 . S
C1538 C1542 1.385 . S
C1539 H1514 0.951 . S
C1539 C1537 1.388 . S
C1539 C1540 1.366 . S
C1540 C1539 1.366 . S
C1540 C1541 1.414 . S
C1540 C1543 1.499 . S
C1541 H1515 0.950 1_556 S
C1541 C1540 1.414 . S
C1541 C1542 1.374 . S
C1542 H1516 0.950 1_556 S
C1542 C1538 1.385 . S
C1542 C1541 1.374 . S
C1543 C1540 1.499 . S
C1543 C1544 1.373 1_556 S
C1543 C1545 1.389 . S
C1544 H1517 0.950 . S
C1544 C1530 1.377 1_545 S
C1544 C1543 1.373 1_554 S
C1545 C1529 1.377 1_545 S
C1545 C1543 1.389 . S
C1545 C1546 1.524 . S
C1546 C1545 1.524 . S
C1546 C1547 1.397 . S
C1546 C1551 1.363 . S
C1547 H1518 0.950 1_556 S
C1547 C1546 1.397 . S
C1547 C1548 1.334 . S
C1548 H1519 0.950 . S
C1548 C1547 1.334 . S
C1548 C1549 1.287 . S
C1549 C1548 1.287 . S
C1549 C1550 1.524 . S
C1549 H1552 0.999 . S
C1550 H1520 0.950 . S
C1550 C1549 1.524 . S
C1550 C1551 1.415 . S
C1551 H1521 0.950 1_545 S
C1551 C1546 1.363 . S
C1551 C1550 1.415 . S
H1552 C1549 0.999 . S
H1553 C1534 0.913 . S
H1554 C1572 0.951 . S
H1555 C1574 0.951 . S
H1556 C1576 0.950 . S
H1557 C1577 0.950 . S
H1558 C1579 0.950 . S
H1559 C1582 0.950 . S
H1560 C1583 0.950 . S
H1561 C1585 0.950 . S
H1562 C1586 0.950 . S
H1563 C1587 0.951 . S
H1564 C1589 0.951 . S
H1565 C1591 0.950 . S
H1566 C1592 0.950 . S
H1567 C1594 0.950 . S
H1568 C1597 0.950 . S
H1569 C1598 0.950 . S
H1570 C1600 0.950 . S
H1571 C1601 0.950 . S
C1572 H1554 0.951 . S
C1572 C1573 1.366 . S
C1572 C1574 1.388 . S
C1573 C1572 1.366 . S
C1573 C1577 1.385 . S
C1574 H1555 0.951 . S
C1574 C1572 1.388 . S
C1574 C1575 1.366 . S
C1575 C1574 1.366 . S
C1575 C1576 1.414 . S
C1575 C1578 1.499 . S
C1576 H1556 0.950 . S
C1576 C1575 1.414 . S
C1576 C1577 1.374 . S
C1577 H1557 0.950 . S
C1577 C1573 1.385 . S
C1577 C1576 1.374 . S
C1578 C1575 1.499 . S
C1578 C1579 1.373 . S
C1578 C1580 1.389 1_556 S
C1579 H1558 0.950 . S
C1579 C1578 1.373 . S
C1579 C1595 1.377 1_655 S
C1580 C1578 1.389 1_554 S
C1580 C1581 1.524 . S
C1580 C1594 1.377 1_655 S
C1581 C1580 1.524 . S
C1581 C1582 1.397 . S
C1581 C1586 1.363 . S
C1582 H1559 0.950 . S
C1582 C1581 1.397 . S
C1582 C1583 1.334 . S
C1583 H1560 0.950 . S
C1583 C1582 1.334 . S
C1583 C1584 1.287 . S
C1584 C1583 1.287 . S
C1584 C1585 1.524 . S
C1584 H1603 0.913 . S
C1585 H1561 0.950 . S
C1585 C1584 1.524 . S
C1585 C1586 1.415 . S
C1586 H1562 0.950 . S
C1586 C1581 1.363 . S
C1586 C1585 1.415 . S
C1587 H1563 0.951 . S
C1587 C1588 1.366 . S
C1587 C1589 1.388 . S
C1588 C1587 1.366 . S
C1588 C1592 1.385 . S
C1589 H1564 0.951 . S
C1589 C1587 1.388 . S
C1589 C1590 1.366 . S
C1590 C1589 1.366 . S
C1590 C1591 1.414 . S
C1590 C1593 1.499 . S
C1591 H1565 0.950 . S
C1591 C1590 1.414 . S
C1591 C1592 1.374 . S
C1592 H1566 0.950 . S
C1592 C1588 1.385 . S
C1592 C1591 1.374 . S
C1593 C1590 1.499 . S
C1593 C1594 1.373 . S
C1593 C1595 1.389 1_554 S
C1594 H1567 0.950 . S
C1594 C1580 1.377 1_455 S
C1594 C1593 1.373 . S
C1595 C1579 1.377 1_455 S
C1595 C1593 1.389 1_556 S
C1595 C1596 1.524 . S
C1596 C1595 1.524 . S
C1596 C1597 1.397 . S
C1596 C1601 1.363 . S
C1597 H1568 0.950 . S
C1597 C1596 1.397 . S
C1597 C1598 1.334 . S
C1598 H1569 0.950 . S
C1598 C1597 1.334 . S
C1598 C1599 1.287 . S
C1599 C1598 1.287 . S
C1599 C1600 1.524 . S
C1599 H1602 0.999 . S
C1600 H1570 0.950 . S
C1600 C1599 1.524 . S
C1600 C1601 1.415 . S
C1601 H1571 0.950 . S
C1601 C1596 1.363 . S
C1601 C1600 1.415 . S
H1602 C1599 0.999 . S
H1603 C1584 0.913 . S
H1604 C1622 0.951 . S
H1605 C1624 0.951 1_554 S
H1606 C1626 0.950 . S
H1607 C1627 0.950 . S
H1608 C1629 0.950 . S
H1609 C1632 0.950 . S
H1610 C1633 0.950 . S
H1611 C1635 0.950 . S
H1612 C1636 0.950 1_554 S
H1613 C1637 0.951 . S
H1614 C1639 0.951 1_556 S
H1615 C1641 0.950 . S
H1616 C1642 0.950 . S
H1617 C1644 0.950 . S
H1618 C1647 0.950 . S
H1619 C1648 0.950 . S
H1620 C1650 0.950 . S
H1621 C1651 0.950 1_556 S
C1622 H1604 0.951 . S
C1622 C1623 1.366 . S
C1622 C1624 1.388 . S
C1623 C1622 1.366 . S
C1623 C1627 1.385 . S
C1624 H1605 0.951 1_556 S
C1624 C1622 1.388 . S
C1624 C1625 1.366 . S
C1625 C1624 1.366 . S
C1625 C1626 1.414 . S
C1625 C1628 1.499 . S
C1626 H1606 0.950 . S
C1626 C1625 1.414 . S
C1626 C1627 1.374 . S
C1627 H1607 0.950 . S
C1627 C1623 1.385 . S
C1627 C1626 1.374 . S
C1628 C1625 1.499 . S
C1628 C1629 1.373 . S
C1628 C1630 1.389 . S
C1629 H1608 0.950 . S
C1629 C1628 1.373 . S
C1629 C1645 1.377 1_556 S
C1630 C1628 1.389 . S
C1630 C1631 1.524 . S
C1630 C1644 1.377 1_556 S
C1631 C1630 1.524 . S
C1631 C1632 1.397 . S
C1631 C1636 1.363 . S
C1632 H1609 0.950 . S
C1632 C1631 1.397 . S
C1632 C1633 1.334 . S
C1633 H1610 0.950 . S
C1633 C1632 1.334 . S
C1633 C1634 1.287 . S
C1634 C1633 1.287 . S
C1634 C1635 1.524 . S
C1634 H1653 0.913 . S
C1635 H1611 0.950 . S
C1635 C1634 1.524 . S
C1635 C1636 1.415 . S
C1636 H1612 0.950 1_556 S
C1636 C1631 1.363 . S
C1636 C1635 1.415 . S
C1637 H1613 0.951 . S
C1637 C1638 1.366 . S
C1637 C1639 1.388 . S
C1638 C1637 1.366 . S
C1638 C1642 1.385 . S
C1639 H1614 0.951 1_554 S
C1639 C1637 1.388 . S
C1639 C1640 1.366 . S
C1640 C1639 1.366 . S
C1640 C1641 1.414 . S
C1640 C1643 1.499 . S
C1641 H1615 0.950 . S
C1641 C1640 1.414 . S
C1641 C1642 1.374 . S
C1642 H1616 0.950 . S
C1642 C1638 1.385 . S
C1642 C1641 1.374 . S
C1643 C1640 1.499 . S
C1643 C1644 1.373 . S
C1643 C1645 1.389 . S
C1644 H1617 0.950 . S
C1644 C1630 1.377 1_554 S
C1644 C1643 1.373 . S
C1645 C1629 1.377 1_554 S
C1645 C1643 1.389 . S
C1645 C1646 1.524 . S
C1646 C1645 1.524 . S
C1646 C1647 1.397 . S
C1646 C1651 1.363 . S
C1647 H1618 0.950 . S
C1647 C1646 1.397 . S
C1647 C1648 1.334 . S
C1648 H1619 0.950 . S
C1648 C1647 1.334 . S
C1648 C1649 1.287 . S
C1649 C1648 1.287 . S
C1649 C1650 1.524 . S
C1649 H1652 0.999 . S
C1650 H1620 0.950 . S
C1650 C1649 1.524 . S
C1650 C1651 1.415 . S
C1651 H1621 0.950 1_554 S
C1651 C1646 1.363 . S
C1651 C1650 1.415 . S
H1652 C1649 0.999 . S
H1653 C1634 0.913 . S
H1654 C1672 0.951 1_554 S
H1655 C1674 0.951 1_554 S
H1656 C1676 0.950 . S
H1657 C1677 0.950 . S
H1658 C1679 0.950 . S
H1659 C1682 0.950 1_556 S
H1660 C1683 0.950 . S
H1661 C1685 0.950 . S
H1662 C1686 0.950 . S
H1663 C1687 0.951 1_556 S
H1664 C1689 0.951 1_556 S
H1665 C1691 0.950 . S
H1666 C1692 0.950 . S
H1667 C1694 0.950 . S
H1668 C1697 0.950 1_554 S
H1669 C1698 0.950 . S
H1670 C1700 0.950 . S
H1671 C1701 0.950 . S
C1672 H1654 0.951 1_556 S
C1672 C1673 1.366 . S
C1672 C1674 1.388 . S
C1673 C1672 1.366 . S
C1673 C1677 1.385 . S
C1674 H1655 0.951 1_556 S
C1674 C1672 1.388 . S
C1674 C1675 1.366 . S
C1675 C1674 1.366 . S
C1675 C1676 1.414 . S
C1675 C1678 1.499 . S
C1676 H1656 0.950 . S
C1676 C1675 1.414 . S
C1676 C1677 1.374 . S
C1677 H1657 0.950 . S
C1677 C1673 1.385 . S
C1677 C1676 1.374 . S
C1678 C1675 1.499 . S
C1678 C1679 1.373 . S
C1678 C1680 1.389 1_556 S
C1679 H1658 0.950 . S
C1679 C1678 1.373 . S
C1679 C1695 1.377 1_545 S
C1680 C1678 1.389 1_554 S
C1680 C1681 1.524 . S
C1680 C1694 1.377 1_545 S
C1681 C1680 1.524 . S
C1681 C1682 1.397 . S
C1681 C1686 1.363 . S
C1682 H1659 0.950 1_554 S
C1682 C1681 1.397 . S
C1682 C1683 1.334 . S
C1683 H1660 0.950 . S
C1683 C1682 1.334 . S
C1683 C1684 1.287 . S
C1684 C1683 1.287 . S
C1684 C1685 1.524 . S
C1684 H1703 0.913 . S
C1685 H1661 0.950 . S
C1685 C1684 1.524 . S
C1685 C1686 1.415 . S
C1686 H1662 0.950 . S
C1686 C1681 1.363 . S
C1686 C1685 1.415 . S
C1687 H1663 0.951 1_554 S
C1687 C1688 1.366 . S
C1687 C1689 1.388 . S
C1688 C1687 1.366 . S
C1688 C1692 1.385 . S
C1689 H1664 0.951 1_554 S
C1689 C1687 1.388 . S
C1689 C1690 1.366 . S
C1690 C1689 1.366 . S
C1690 C1691 1.414 . S
C1690 C1693 1.499 . S
C1691 H1665 0.950 . S
C1691 C1690 1.414 . S
C1691 C1692 1.374 . S
C1692 H1666 0.950 . S
C1692 C1688 1.385 . S
C1692 C1691 1.374 . S
C1693 C1690 1.499 . S
C1693 C1694 1.373 . S
C1693 C1695 1.389 1_554 S
C1694 H1667 0.950 . S
C1694 C1680 1.377 1_565 S
C1694 C1693 1.373 . S
C1695 C1679 1.377 1_565 S
C1695 C1693 1.389 1_556 S
C1695 C1696 1.524 . S
C1696 C1695 1.524 . S
C1696 C1697 1.397 . S
C1696 C1701 1.363 . S
C1697 H1668 0.950 1_556 S
C1697 C1696 1.397 . S
C1697 C1698 1.334 . S
C1698 H1669 0.950 . S
C1698 C1697 1.334 . S
C1698 C1699 1.287 . S
C1699 C1698 1.287 . S
C1699 C1700 1.524 . S
C1699 H1702 0.999 . S
C1700 H1670 0.950 . S
C1700 C1699 1.524 . S
C1700 C1701 1.415 . S
C1701 H1671 0.950 . S
C1701 C1696 1.363 . S
C1701 C1700 1.415 . S
H1702 C1699 0.999 . S
H1703 C1684 0.913 . S
H1704 C1722 0.951 . S
H1705 C1724 0.951 . S
H1706 C1726 0.950 . S
H1707 C1727 0.950 . S
H1708 C1729 0.950 . S
H1709 C1732 0.950 . S
H1710 C1733 0.950 . S
H1711 C1735 0.950 . S
H1712 C1736 0.950 . S
H1713 C1737 0.951 . S
H1714 C1739 0.951 . S
H1715 C1741 0.950 . S
H1716 C1742 0.950 . S
H1717 C1744 0.950 . S
H1718 C1747 0.950 . S
H1719 C1748 0.950 . S
H1720 C1750 0.950 . S
H1721 C1751 0.950 . S
C1722 H1704 0.951 . S
C1722 C1723 1.366 . S
C1722 C1724 1.388 . S
C1723 C1722 1.366 . S
C1723 C1727 1.385 . S
C1724 H1705 0.951 . S
C1724 C1722 1.388 . S
C1724 C1725 1.366 . S
C1725 C1724 1.366 . S
C1725 C1726 1.414 . S
C1725 C1728 1.499 . S
C1726 H1706 0.950 . S
C1726 C1725 1.414 . S
C1726 C1727 1.374 . S
C1727 H1707 0.950 . S
C1727 C1723 1.385 . S
C1727 C1726 1.374 . S
C1728 C1725 1.499 . S
C1728 C1729 1.373 . S
C1728 C1730 1.389 . S
C1729 H1708 0.950 . S
C1729 C1728 1.373 . S
C1729 C1745 1.377 . S
C1730 C1728 1.389 . S
C1730 C1731 1.524 . S
C1730 C1744 1.377 . S
C1731 C1730 1.524 . S
C1731 C1732 1.397 . S
C1731 C1736 1.363 . S
C1732 H1709 0.950 . S
C1732 C1731 1.397 . S
C1732 C1733 1.334 . S
C1733 H1710 0.950 . S
C1733 C1732 1.334 . S
C1733 C1734 1.287 . S
C1734 C1733 1.287 . S
C1734 C1735 1.524 . S
C1734 H1753 0.913 . S
C1735 H1711 0.950 . S
C1735 C1734 1.524 . S
C1735 C1736 1.415 . S
C1736 H1712 0.950 . S
C1736 C1731 1.363 . S
C1736 C1735 1.415 . S
C1737 H1713 0.951 . S
C1737 C1738 1.366 . S
C1737 C1739 1.388 . S
C1738 C1737 1.366 . S
C1738 C1742 1.385 . S
C1739 H1714 0.951 . S
C1739 C1737 1.388 . S
C1739 C1740 1.366 . S
C1740 C1739 1.366 . S
C1740 C1741 1.414 . S
C1740 C1743 1.499 . S
C1741 H1715 0.950 . S
C1741 C1740 1.414 . S
C1741 C1742 1.374 . S
C1742 H1716 0.950 . S
C1742 C1738 1.385 . S
C1742 C1741 1.374 . S
C1743 C1740 1.499 . S
C1743 C1744 1.373 . S
C1743 C1745 1.389 . S
C1744 H1717 0.950 . S
C1744 C1730 1.377 . S
C1744 C1743 1.373 . S
C1745 C1729 1.377 . S
C1745 C1743 1.389 . S
C1745 C1746 1.524 . S
C1746 C1745 1.524 . S
C1746 C1747 1.397 . S
C1746 C1751 1.363 . S
C1747 H1718 0.950 . S
C1747 C1746 1.397 . S
C1747 C1748 1.334 . S
C1748 H1719 0.950 . S
C1748 C1747 1.334 . S
C1748 C1749 1.287 . S
C1749 C1748 1.287 . S
C1749 C1750 1.524 . S
C1749 H1752 0.999 . S
C1750 H1720 0.950 . S
C1750 C1749 1.524 . S
C1750 C1751 1.415 . S
C1751 H1721 0.950 . S
C1751 C1746 1.363 . S
C1751 C1750 1.415 . S
H1752 C1749 0.999 . S
H1753 C1734 0.913 . S
H1754 C1772 0.951 . S
H1755 C1774 0.951 . S
H1756 C1776 0.950 . S
H1757 C1777 0.950 . S
H1758 C1779 0.950 . S
H1759 C1782 0.950 . S
H1760 C1783 0.950 . S
H1761 C1785 0.950 . S
H1762 C1786 0.950 . S
H1763 C1787 0.951 . S
H1764 C1789 0.951 . S
H1765 C1791 0.950 . S
H1766 C1792 0.950 . S
H1767 C1794 0.950 . S
H1768 C1797 0.950 . S
H1769 C1798 0.950 . S
H1770 C1800 0.950 . S
H1771 C1801 0.950 . S
C1772 H1754 0.951 . S
C1772 C1773 1.366 . S
C1772 C1774 1.388 . S
C1773 C1772 1.366 . S
C1773 C1777 1.385 . S
C1774 H1755 0.951 . S
C1774 C1772 1.388 . S
C1774 C1775 1.366 . S
C1775 C1774 1.366 . S
C1775 C1776 1.414 . S
C1775 C1778 1.499 . S
C1776 H1756 0.950 . S
C1776 C1775 1.414 . S
C1776 C1777 1.374 . S
C1777 H1757 0.950 . S
C1777 C1773 1.385 . S
C1777 C1776 1.374 . S
C1778 C1775 1.499 . S
C1778 C1779 1.373 . S
C1778 C1780 1.389 . S
C1779 H1758 0.950 . S
C1779 C1778 1.373 . S
C1779 C1795 1.377 . S
C1780 C1778 1.389 . S
C1780 C1781 1.524 . S
C1780 C1794 1.377 . S
C1781 C1780 1.524 . S
C1781 C1782 1.397 . S
C1781 C1786 1.363 . S
C1782 H1759 0.950 . S
C1782 C1781 1.397 . S
C1782 C1783 1.334 . S
C1783 H1760 0.950 . S
C1783 C1782 1.334 . S
C1783 C1784 1.287 . S
C1784 C1783 1.287 . S
C1784 C1785 1.524 . S
C1784 H1803 0.913 . S
C1785 H1761 0.950 . S
C1785 C1784 1.524 . S
C1785 C1786 1.415 . S
C1786 H1762 0.950 . S
C1786 C1781 1.363 . S
C1786 C1785 1.415 . S
C1787 H1763 0.951 . S
C1787 C1788 1.366 . S
C1787 C1789 1.388 . S
C1788 C1787 1.366 . S
C1788 C1792 1.385 . S
C1789 H1764 0.951 . S
C1789 C1787 1.388 . S
C1789 C1790 1.366 . S
C1790 C1789 1.366 . S
C1790 C1791 1.414 . S
C1790 C1793 1.499 . S
C1791 H1765 0.950 . S
C1791 C1790 1.414 . S
C1791 C1792 1.374 . S
C1792 H1766 0.950 . S
C1792 C1788 1.385 . S
C1792 C1791 1.374 . S
C1793 C1790 1.499 . S
C1793 C1794 1.373 . S
C1793 C1795 1.389 . S
C1794 H1767 0.950 . S
C1794 C1780 1.377 . S
C1794 C1793 1.373 . S
C1795 C1779 1.377 . S
C1795 C1793 1.389 . S
C1795 C1796 1.524 . S
C1796 C1795 1.524 . S
C1796 C1797 1.397 . S
C1796 C1801 1.363 . S
C1797 H1768 0.950 . S
C1797 C1796 1.397 . S
C1797 C1798 1.334 . S
C1798 H1769 0.950 . S
C1798 C1797 1.334 . S
C1798 C1799 1.287 . S
C1799 C1798 1.287 . S
C1799 C1800 1.524 . S
C1799 H1802 0.999 . S
C1800 H1770 0.950 . S
C1800 C1799 1.524 . S
C1800 C1801 1.415 . S
C1801 H1771 0.950 . S
C1801 C1796 1.363 . S
C1801 C1800 1.415 . S
H1802 C1799 0.999 . S
H1803 C1784 0.913 . S
H1804 C1822 0.951 . S
H1805 C1824 0.951 . S
H1806 C1826 0.950 . S
H1807 C1827 0.950 . S
H1808 C1829 0.950 . S
H1809 C1832 0.950 . S
H1810 C1833 0.950 . S
H1811 C1835 0.950 . S
H1812 C1836 0.950 . S
H1813 C1837 0.951 . S
H1814 C1839 0.951 . S
H1815 C1841 0.950 . S
H1816 C1842 0.950 . S
H1817 C1844 0.950 . S
H1818 C1847 0.950 . S
H1819 C1848 0.950 . S
H1820 C1850 0.950 . S
H1821 C1851 0.950 . S
C1822 H1804 0.951 . S
C1822 C1823 1.366 . S
C1822 C1824 1.388 . S
C1823 C1822 1.366 . S
C1823 C1827 1.385 . S
C1824 H1805 0.951 . S
C1824 C1822 1.388 . S
C1824 C1825 1.366 . S
C1825 C1824 1.366 . S
C1825 C1826 1.414 . S
C1825 C1828 1.499 . S
C1826 H1806 0.950 . S
C1826 C1825 1.414 . S
C1826 C1827 1.374 . S
C1827 H1807 0.950 . S
C1827 C1823 1.385 . S
C1827 C1826 1.374 . S
C1828 C1825 1.499 . S
C1828 C1829 1.373 . S
C1828 C1830 1.389 . S
C1829 H1808 0.950 . S
C1829 C1828 1.373 . S
C1829 C1845 1.377 . S
C1830 C1828 1.389 . S
C1830 C1831 1.524 . S
C1830 C1844 1.377 . S
C1831 C1830 1.524 . S
C1831 C1832 1.397 . S
C1831 C1836 1.363 . S
C1832 H1809 0.950 . S
C1832 C1831 1.397 . S
C1832 C1833 1.334 . S
C1833 H1810 0.950 . S
C1833 C1832 1.334 . S
C1833 C1834 1.287 . S
C1834 C1833 1.287 . S
C1834 C1835 1.524 . S
C1834 H1853 0.913 . S
C1835 H1811 0.950 . S
C1835 C1834 1.524 . S
C1835 C1836 1.415 . S
C1836 H1812 0.950 . S
C1836 C1831 1.363 . S
C1836 C1835 1.415 . S
C1837 H1813 0.951 . S
C1837 C1838 1.366 . S
C1837 C1839 1.388 . S
C1838 C1837 1.366 . S
C1838 C1842 1.385 . S
C1839 H1814 0.951 . S
C1839 C1837 1.388 . S
C1839 C1840 1.366 . S
C1840 C1839 1.366 . S
C1840 C1841 1.414 . S
C1840 C1843 1.499 . S
C1841 H1815 0.950 . S
C1841 C1840 1.414 . S
C1841 C1842 1.374 . S
C1842 H1816 0.950 . S
C1842 C1838 1.385 . S
C1842 C1841 1.374 . S
C1843 C1840 1.499 . S
C1843 C1844 1.373 . S
C1843 C1845 1.389 . S
C1844 H1817 0.950 . S
C1844 C1830 1.377 . S
C1844 C1843 1.373 . S
C1845 C1829 1.377 . S
C1845 C1843 1.389 . S
C1845 C1846 1.524 . S
C1846 C1845 1.524 . S
C1846 C1847 1.397 . S
C1846 C1851 1.363 . S
C1847 H1818 0.950 . S
C1847 C1846 1.397 . S
C1847 C1848 1.334 . S
C1848 H1819 0.950 . S
C1848 C1847 1.334 . S
C1848 C1849 1.287 . S
C1849 C1848 1.287 . S
C1849 C1850 1.524 . S
C1849 H1852 0.999 . S
C1850 H1820 0.950 . S
C1850 C1849 1.524 . S
C1850 C1851 1.415 . S
C1851 H1821 0.950 . S
C1851 C1846 1.363 . S
C1851 C1850 1.415 . S
H1852 C1849 0.999 . S
H1853 C1834 0.913 . S
H1854 C1872 0.951 . S
H1855 C1874 0.951 . S
H1856 C1876 0.950 . S
H1857 C1877 0.950 . S
H1858 C1879 0.950 . S
H1859 C1882 0.950 . S
H1860 C1883 0.950 . S
H1861 C1885 0.950 . S
H1862 C1886 0.950 . S
H1863 C1887 0.951 . S
H1864 C1889 0.951 . S
H1865 C1891 0.950 . S
H1866 C1892 0.950 . S
H1867 C1894 0.950 . S
H1868 C1897 0.950 . S
H1869 C1898 0.950 . S
H1870 C1900 0.950 . S
H1871 C1901 0.950 . S
C1872 H1854 0.951 . S
C1872 C1873 1.366 . S
C1872 C1874 1.388 . S
C1873 C1872 1.366 . S
C1873 C1877 1.385 . S
C1874 H1855 0.951 . S
C1874 C1872 1.388 . S
C1874 C1875 1.366 . S
C1875 C1874 1.366 . S
C1875 C1876 1.414 . S
C1875 C1878 1.499 . S
C1876 H1856 0.950 . S
C1876 C1875 1.414 . S
C1876 C1877 1.374 . S
C1877 H1857 0.950 . S
C1877 C1873 1.385 . S
C1877 C1876 1.374 . S
C1878 C1875 1.499 . S
C1878 C1879 1.373 . S
C1878 C1880 1.389 . S
C1879 H1858 0.950 . S
C1879 C1878 1.373 . S
C1879 C1895 1.377 . S
C1880 C1878 1.389 . S
C1880 C1881 1.524 . S
C1880 C1894 1.377 . S
C1881 C1880 1.524 . S
C1881 C1882 1.397 . S
C1881 C1886 1.363 . S
C1882 H1859 0.950 . S
C1882 C1881 1.397 . S
C1882 C1883 1.334 . S
C1883 H1860 0.950 . S
C1883 C1882 1.334 . S
C1883 C1884 1.287 . S
C1884 C1883 1.287 . S
C1884 C1885 1.524 . S
C1884 H1903 0.913 . S
C1885 H1861 0.950 . S
C1885 C1884 1.524 . S
C1885 C1886 1.415 . S
C1886 H1862 0.950 . S
C1886 C1881 1.363 . S
C1886 C1885 1.415 . S
C1887 H1863 0.951 . S
C1887 C1888 1.366 . S
C1887 C1889 1.388 . S
C1888 C1887 1.366 . S
C1888 C1892 1.385 . S
C1889 H1864 0.951 . S
C1889 C1887 1.388 . S
C1889 C1890 1.366 . S
C1890 C1889 1.366 . S
C1890 C1891 1.414 . S
C1890 C1893 1.499 . S
C1891 H1865 0.950 . S
C1891 C1890 1.414 . S
C1891 C1892 1.374 . S
C1892 H1866 0.950 . S
C1892 C1888 1.385 . S
C1892 C1891 1.374 . S
C1893 C1890 1.499 . S
C1893 C1894 1.373 . S
C1893 C1895 1.389 . S
C1894 H1867 0.950 . S
C1894 C1880 1.377 . S
C1894 C1893 1.373 . S
C1895 C1879 1.377 . S
C1895 C1893 1.389 . S
C1895 C1896 1.524 . S
C1896 C1895 1.524 . S
C1896 C1897 1.397 . S
C1896 C1901 1.363 . S
C1897 H1868 0.950 . S
C1897 C1896 1.397 . S
C1897 C1898 1.334 . S
C1898 H1869 0.950 . S
C1898 C1897 1.334 . S
C1898 C1899 1.287 . S
C1899 C1898 1.287 . S
C1899 C1900 1.524 . S
C1899 H1902 0.999 . S
C1900 H1870 0.950 . S
C1900 C1899 1.524 . S
C1900 C1901 1.415 . S
C1901 H1871 0.950 . S
C1901 C1896 1.363 . S
C1901 C1900 1.415 . S
H1902 C1899 0.999 . S
H1903 C1884 0.913 . S
H1904 C1922 0.951 . S
H1905 C1924 0.951 . S
H1906 C1926 0.950 . S
H1907 C1927 0.950 . S
H1908 C1929 0.950 . S
H1909 C1932 0.950 . S
H1910 C1933 0.950 . S
H1911 C1935 0.950 . S
H1912 C1936 0.950 . S
H1913 C1937 0.951 . S
H1914 C1939 0.951 . S
H1915 C1941 0.950 . S
H1916 C1942 0.950 . S
H1917 C1944 0.950 . S
H1918 C1947 0.950 . S
H1919 C1948 0.950 . S
H1920 C1950 0.950 . S
H1921 C1951 0.950 . S
C1922 H1904 0.951 . S
C1922 C1923 1.366 . S
C1922 C1924 1.388 . S
C1923 C1922 1.366 . S
C1923 C1927 1.385 . S
C1924 H1905 0.951 . S
C1924 C1922 1.388 . S
C1924 C1925 1.366 . S
C1925 C1924 1.366 . S
C1925 C1926 1.414 . S
C1925 C1928 1.499 . S
C1926 H1906 0.950 . S
C1926 C1925 1.414 . S
C1926 C1927 1.374 . S
C1927 H1907 0.950 . S
C1927 C1923 1.385 . S
C1927 C1926 1.374 . S
C1928 C1925 1.499 . S
C1928 C1929 1.373 . S
C1928 C1930 1.389 . S
C1929 H1908 0.950 . S
C1929 C1928 1.373 . S
C1929 C1945 1.377 . S
C1930 C1928 1.389 . S
C1930 C1931 1.524 . S
C1930 C1944 1.377 . S
C1931 C1930 1.524 . S
C1931 C1932 1.397 . S
C1931 C1936 1.363 . S
C1932 H1909 0.950 . S
C1932 C1931 1.397 . S
C1932 C1933 1.334 . S
C1933 H1910 0.950 . S
C1933 C1932 1.334 . S
C1933 C1934 1.287 . S
C1934 C1933 1.287 . S
C1934 C1935 1.524 . S
C1934 H1953 0.913 . S
C1935 H1911 0.950 . S
C1935 C1934 1.524 . S
C1935 C1936 1.415 . S
C1936 H1912 0.950 . S
C1936 C1931 1.363 . S
C1936 C1935 1.415 . S
C1937 H1913 0.951 . S
C1937 C1938 1.366 . S
C1937 C1939 1.388 . S
C1938 C1937 1.366 . S
C1938 C1942 1.385 . S
C1939 H1914 0.951 . S
C1939 C1937 1.388 . S
C1939 C1940 1.366 . S
C1940 C1939 1.366 . S
C1940 C1941 1.414 . S
C1940 C1943 1.499 . S
C1941 H1915 0.950 . S
C1941 C1940 1.414 . S
C1941 C1942 1.374 . S
C1942 H1916 0.950 . S
C1942 C1938 1.385 . S
C1942 C1941 1.374 . S
C1943 C1940 1.499 . S
C1943 C1944 1.373 . S
C1943 C1945 1.389 . S
C1944 H1917 0.950 . S
C1944 C1930 1.377 . S
C1944 C1943 1.373 . S
C1945 C1929 1.377 . S
C1945 C1943 1.389 . S
C1945 C1946 1.524 . S
C1946 C1945 1.524 . S
C1946 C1947 1.397 . S
C1946 C1951 1.363 . S
C1947 H1918 0.950 . S
C1947 C1946 1.397 . S
C1947 C1948 1.334 . S
C1948 H1919 0.950 . S
C1948 C1947 1.334 . S
C1948 C1949 1.287 . S
C1949 C1948 1.287 . S
C1949 C1950 1.524 . S
C1949 H1952 0.999 . S
C1950 H1920 0.950 . S
C1950 C1949 1.524 . S
C1950 C1951 1.415 . S
C1951 H1921 0.950 . S
C1951 C1946 1.363 . S
C1951 C1950 1.415 . S
H1952 C1949 0.999 . S
H1953 C1934 0.913 . S
H1954 C1972 0.951 . S
H1955 C1974 0.951 . S
H1956 C1976 0.950 . S
H1957 C1977 0.950 . S
H1958 C1979 0.950 . S
H1959 C1982 0.950 . S
H1960 C1983 0.950 . S
H1961 C1985 0.950 . S
H1962 C1986 0.950 . S
H1963 C1987 0.951 . S
H1964 C1989 0.951 . S
H1965 C1991 0.950 . S
H1966 C1992 0.950 . S
H1967 C1994 0.950 . S
H1968 C1997 0.950 . S
H1969 C1998 0.950 . S
H1970 C2000 0.950 . S
H1971 C2001 0.950 . S
C1972 H1954 0.951 . S
C1972 C1973 1.366 . S
C1972 C1974 1.388 . S
C1973 C1972 1.366 . S
C1973 C1977 1.385 . S
C1974 H1955 0.951 . S
C1974 C1972 1.388 . S
C1974 C1975 1.366 . S
C1975 C1974 1.366 . S
C1975 C1976 1.414 . S
C1975 C1978 1.499 . S
C1976 H1956 0.950 . S
C1976 C1975 1.414 . S
C1976 C1977 1.374 . S
C1977 H1957 0.950 . S
C1977 C1973 1.385 . S
C1977 C1976 1.374 . S
C1978 C1975 1.499 . S
C1978 C1979 1.373 . S
C1978 C1980 1.389 . S
C1979 H1958 0.950 . S
C1979 C1978 1.373 . S
C1979 C1995 1.377 . S
C1980 C1978 1.389 . S
C1980 C1981 1.524 . S
C1980 C1994 1.377 . S
C1981 C1980 1.524 . S
C1981 C1982 1.397 . S
C1981 C1986 1.363 . S
C1982 H1959 0.950 . S
C1982 C1981 1.397 . S
C1982 C1983 1.334 . S
C1983 H1960 0.950 . S
C1983 C1982 1.334 . S
C1983 C1984 1.287 . S
C1984 C1983 1.287 . S
C1984 C1985 1.524 . S
C1984 H2003 0.913 . S
C1985 H1961 0.950 . S
C1985 C1984 1.524 . S
C1985 C1986 1.415 . S
C1986 H1962 0.950 . S
C1986 C1981 1.363 . S
C1986 C1985 1.415 . S
C1987 H1963 0.951 . S
C1987 C1988 1.366 . S
C1987 C1989 1.388 . S
C1988 C1987 1.366 . S
C1988 C1992 1.385 . S
C1989 H1964 0.951 . S
C1989 C1987 1.388 . S
C1989 C1990 1.366 . S
C1990 C1989 1.366 . S
C1990 C1991 1.414 . S
C1990 C1993 1.499 . S
C1991 H1965 0.950 . S
C1991 C1990 1.414 . S
C1991 C1992 1.374 . S
C1992 H1966 0.950 . S
C1992 C1988 1.385 . S
C1992 C1991 1.374 . S
C1993 C1990 1.499 . S
C1993 C1994 1.373 . S
C1993 C1995 1.389 . S
C1994 H1967 0.950 . S
C1994 C1980 1.377 . S
C1994 C1993 1.373 . S
C1995 C1979 1.377 . S
C1995 C1993 1.389 . S
C1995 C1996 1.524 . S
C1996 C1995 1.524 . S
C1996 C1997 1.397 . S
C1996 C2001 1.363 . S
C1997 H1968 0.950 . S
C1997 C1996 1.397 . S
C1997 C1998 1.334 . S
C1998 H1969 0.950 . S
C1998 C1997 1.334 . S
C1998 C1999 1.287 . S
C1999 C1998 1.287 . S
C1999 C2000 1.524 . S
C1999 H2002 0.999 . S
C2000 H1970 0.950 . S
C2000 C1999 1.524 . S
C2000 C2001 1.415 . S
C2001 H1971 0.950 . S
C2001 C1996 1.363 . S
C2001 C2000 1.415 . S
H2002 C1999 0.999 . S
H2003 C1984 0.913 . S
H2004 C2022 0.951 . S
H2005 C2024 0.951 . S
H2006 C2026 0.950 . S
H2007 C2027 0.950 . S
H2008 C2029 0.950 . S
H2009 C2032 0.950 . S
H2010 C2033 0.950 . S
H2011 C2035 0.950 . S
H2012 C2036 0.950 . S
H2013 C2037 0.951 . S
H2014 C2039 0.951 . S
H2015 C2041 0.950 . S
H2016 C2042 0.950 . S
H2017 C2044 0.950 . S
H2018 C2047 0.950 . S
H2019 C2048 0.950 . S
H2020 C2050 0.950 . S
H2021 C2051 0.950 . S
C2022 H2004 0.951 . S
C2022 C2023 1.366 . S
C2022 C2024 1.388 . S
C2023 C2022 1.366 . S
C2023 C2027 1.385 . S
C2024 H2005 0.951 . S
C2024 C2022 1.388 . S
C2024 C2025 1.366 . S
C2025 C2024 1.366 . S
C2025 C2026 1.414 . S
C2025 C2028 1.499 . S
C2026 H2006 0.950 . S
C2026 C2025 1.414 . S
C2026 C2027 1.374 . S
C2027 H2007 0.950 . S
C2027 C2023 1.385 . S
C2027 C2026 1.374 . S
C2028 C2025 1.499 . S
C2028 C2029 1.373 . S
C2028 C2030 1.389 . S
C2029 H2008 0.950 . S
C2029 C2028 1.373 . S
C2029 C2045 1.377 . S
C2030 C2028 1.389 . S
C2030 C2031 1.524 . S
C2030 C2044 1.377 . S
C2031 C2030 1.524 . S
C2031 C2032 1.397 . S
C2031 C2036 1.363 . S
C2032 H2009 0.950 . S
C2032 C2031 1.397 . S
C2032 C2033 1.334 . S
C2033 H2010 0.950 . S
C2033 C2032 1.334 . S
C2033 C2034 1.287 . S
C2034 C2033 1.287 . S
C2034 C2035 1.524 . S
C2034 H2053 0.913 . S
C2035 H2011 0.950 . S
C2035 C2034 1.524 . S
C2035 C2036 1.415 . S
C2036 H2012 0.950 . S
C2036 C2031 1.363 . S
C2036 C2035 1.415 . S
C2037 H2013 0.951 . S
C2037 C2038 1.366 . S
C2037 C2039 1.388 . S
C2038 C2037 1.366 . S
C2038 C2042 1.385 . S
C2039 H2014 0.951 . S
C2039 C2037 1.388 . S
C2039 C2040 1.366 . S
C2040 C2039 1.366 . S
C2040 C2041 1.414 . S
C2040 C2043 1.499 . S
C2041 H2015 0.950 . S
C2041 C2040 1.414 . S
C2041 C2042 1.374 . S
C2042 H2016 0.950 . S
C2042 C2038 1.385 . S
C2042 C2041 1.374 . S
C2043 C2040 1.499 . S
C2043 C2044 1.373 . S
C2043 C2045 1.389 . S
C2044 H2017 0.950 . S
C2044 C2030 1.377 . S
C2044 C2043 1.373 . S
C2045 C2029 1.377 . S
C2045 C2043 1.389 . S
C2045 C2046 1.524 . S
C2046 C2045 1.524 . S
C2046 C2047 1.397 . S
C2046 C2051 1.363 . S
C2047 H2018 0.950 . S
C2047 C2046 1.397 . S
C2047 C2048 1.334 . S
C2048 H2019 0.950 . S
C2048 C2047 1.334 . S
C2048 C2049 1.287 . S
C2049 C2048 1.287 . S
C2049 C2050 1.524 . S
C2049 H2052 0.999 . S
C2050 H2020 0.950 . S
C2050 C2049 1.524 . S
C2050 C2051 1.415 . S
C2051 H2021 0.950 . S
C2051 C2046 1.363 . S
C2051 C2050 1.415 . S
H2052 C2049 0.999 . S
H2053 C2034 0.913 . S
H2054 C2072 0.951 . S
H2055 C2074 0.951 . S
H2056 C2076 0.950 . S
H2057 C2077 0.950 . S
H2058 C2079 0.950 . S
H2059 C2082 0.950 . S
H2060 C2083 0.950 . S
H2061 C2085 0.950 . S
H2062 C2086 0.950 . S
H2063 C2087 0.951 . S
H2064 C2089 0.951 . S
H2065 C2091 0.950 . S
H2066 C2092 0.950 . S
H2067 C2094 0.950 . S
H2068 C2097 0.950 . S
H2069 C2098 0.950 . S
H2070 C2100 0.950 . S
H2071 C2101 0.950 . S
C2072 H2054 0.951 . S
C2072 C2073 1.366 . S
C2072 C2074 1.388 . S
C2073 C2072 1.366 . S
C2073 C2077 1.385 . S
C2074 H2055 0.951 . S
C2074 C2072 1.388 . S
C2074 C2075 1.366 . S
C2075 C2074 1.366 . S
C2075 C2076 1.414 . S
C2075 C2078 1.499 . S
C2076 H2056 0.950 . S
C2076 C2075 1.414 . S
C2076 C2077 1.374 . S
C2077 H2057 0.950 . S
C2077 C2073 1.385 . S
C2077 C2076 1.374 . S
C2078 C2075 1.499 . S
C2078 C2079 1.373 . S
C2078 C2080 1.389 . S
C2079 H2058 0.950 . S
C2079 C2078 1.373 . S
C2079 C2095 1.377 . S
C2080 C2078 1.389 . S
C2080 C2081 1.524 . S
C2080 C2094 1.377 . S
C2081 C2080 1.524 . S
C2081 C2082 1.397 . S
C2081 C2086 1.363 . S
C2082 H2059 0.950 . S
C2082 C2081 1.397 . S
C2082 C2083 1.334 . S
C2083 H2060 0.950 . S
C2083 C2082 1.334 . S
C2083 C2084 1.287 . S
C2084 C2083 1.287 . S
C2084 C2085 1.524 . S
C2084 H2103 0.913 . S
C2085 H2061 0.950 . S
C2085 C2084 1.524 . S
C2085 C2086 1.415 . S
C2086 H2062 0.950 . S
C2086 C2081 1.363 . S
C2086 C2085 1.415 . S
C2087 H2063 0.951 . S
C2087 C2088 1.366 . S
C2087 C2089 1.388 . S
C2088 C2087 1.366 . S
C2088 C2092 1.385 . S
C2089 H2064 0.951 . S
C2089 C2087 1.388 . S
C2089 C2090 1.366 . S
C2090 C2089 1.366 . S
C2090 C2091 1.414 . S
C2090 C2093 1.499 . S
C2091 H2065 0.950 . S
C2091 C2090 1.414 . S
C2091 C2092 1.374 . S
C2092 H2066 0.950 . S
C2092 C2088 1.385 . S
C2092 C2091 1.374 . S
C2093 C2090 1.499 . S
C2093 C2094 1.373 . S
C2093 C2095 1.389 . S
C2094 H2067 0.950 . S
C2094 C2080 1.377 . S
C2094 C2093 1.373 . S
C2095 C2079 1.377 . S
C2095 C2093 1.389 . S
C2095 C2096 1.524 . S
C2096 C2095 1.524 . S
C2096 C2097 1.397 . S
C2096 C2101 1.363 . S
C2097 H2068 0.950 . S
C2097 C2096 1.397 . S
C2097 C2098 1.334 . S
C2098 H2069 0.950 . S
C2098 C2097 1.334 . S
C2098 C2099 1.287 . S
C2099 C2098 1.287 . S
C2099 C2100 1.524 . S
C2099 H2102 0.999 . S
C2100 H2070 0.950 . S
C2100 C2099 1.524 . S
C2100 C2101 1.415 . S
C2101 H2071 0.950 . S
C2101 C2096 1.363 . S
C2101 C2100 1.415 . S
H2102 C2099 0.999 . S
H2103 C2084 0.913 . S
H2104 C2122 0.951 . S
H2105 C2124 0.951 . S
H2106 C2126 0.950 . S
H2107 C2127 0.950 . S
H2108 C2129 0.950 . S
H2109 C2132 0.950 . S
H2110 C2133 0.950 . S
H2111 C2135 0.950 . S
H2112 C2136 0.950 . S
H2113 C2137 0.951 . S
H2114 C2139 0.951 . S
H2115 C2141 0.950 . S
H2116 C2142 0.950 . S
H2117 C2144 0.950 . S
H2118 C2147 0.950 . S
H2119 C2148 0.950 . S
H2120 C2150 0.950 . S
H2121 C2151 0.950 . S
C2122 H2104 0.951 . S
C2122 C2123 1.366 . S
C2122 C2124 1.388 . S
C2123 C2122 1.366 . S
C2123 C2127 1.385 . S
C2124 H2105 0.951 . S
C2124 C2122 1.388 . S
C2124 C2125 1.366 . S
C2125 C2124 1.366 . S
C2125 C2126 1.414 . S
C2125 C2128 1.499 . S
C2126 H2106 0.950 . S
C2126 C2125 1.414 . S
C2126 C2127 1.374 . S
C2127 H2107 0.950 . S
C2127 C2123 1.385 . S
C2127 C2126 1.374 . S
C2128 C2125 1.499 . S
C2128 C2129 1.373 . S
C2128 C2130 1.389 . S
C2129 H2108 0.950 . S
C2129 C2128 1.373 . S
C2129 C2145 1.377 . S
C2130 C2128 1.389 . S
C2130 C2131 1.524 . S
C2130 C2144 1.377 . S
C2131 C2130 1.524 . S
C2131 C2132 1.397 . S
C2131 C2136 1.363 . S
C2132 H2109 0.950 . S
C2132 C2131 1.397 . S
C2132 C2133 1.334 . S
C2133 H2110 0.950 . S
C2133 C2132 1.334 . S
C2133 C2134 1.287 . S
C2134 C2133 1.287 . S
C2134 C2135 1.524 . S
C2134 H2153 0.913 . S
C2135 H2111 0.950 . S
C2135 C2134 1.524 . S
C2135 C2136 1.415 . S
C2136 H2112 0.950 . S
C2136 C2131 1.363 . S
C2136 C2135 1.415 . S
C2137 H2113 0.951 . S
C2137 C2138 1.366 . S
C2137 C2139 1.388 . S
C2138 C2137 1.366 . S
C2138 C2142 1.385 . S
C2139 H2114 0.951 . S
C2139 C2137 1.388 . S
C2139 C2140 1.366 . S
C2140 C2139 1.366 . S
C2140 C2141 1.414 . S
C2140 C2143 1.499 . S
C2141 H2115 0.950 . S
C2141 C2140 1.414 . S
C2141 C2142 1.374 . S
C2142 H2116 0.950 . S
C2142 C2138 1.385 . S
C2142 C2141 1.374 . S
C2143 C2140 1.499 . S
C2143 C2144 1.373 . S
C2143 C2145 1.389 . S
C2144 H2117 0.950 . S
C2144 C2130 1.377 . S
C2144 C2143 1.373 . S
C2145 C2129 1.377 . S
C2145 C2143 1.389 . S
C2145 C2146 1.524 . S
C2146 C2145 1.524 . S
C2146 C2147 1.397 . S
C2146 C2151 1.363 . S
C2147 H2118 0.950 . S
C2147 C2146 1.397 . S
C2147 C2148 1.334 . S
C2148 H2119 0.950 . S
C2148 C2147 1.334 . S
C2148 C2149 1.287 . S
C2149 C2148 1.287 . S
C2149 C2150 1.524 . S
C2149 H2152 0.999 . S
C2150 H2120 0.950 . S
C2150 C2149 1.524 . S
C2150 C2151 1.415 . S
C2151 H2121 0.950 . S
C2151 C2146 1.363 . S
C2151 C2150 1.415 . S
H2152 C2149 0.999 . S
H2153 C2134 0.913 . S
H2154 C2172 0.951 . S
H2155 C2174 0.951 . S
H2156 C2176 0.950 . S
H2157 C2177 0.950 . S
H2158 C2179 0.950 . S
H2159 C2182 0.950 . S
H2160 C2183 0.950 . S
H2161 C2185 0.950 . S
H2162 C2186 0.950 . S
H2163 C2187 0.951 . S
H2164 C2189 0.951 . S
H2165 C2191 0.950 . S
H2166 C2192 0.950 . S
H2167 C2194 0.950 . S
H2168 C2197 0.950 . S
H2169 C2198 0.950 . S
H2170 C2200 0.950 . S
H2171 C2201 0.950 . S
C2172 H2154 0.951 . S
C2172 C2173 1.366 . S
C2172 C2174 1.388 . S
C2173 C2172 1.366 . S
C2173 C2177 1.385 . S
C2174 H2155 0.951 . S
C2174 C2172 1.388 . S
C2174 C2175 1.366 . S
C2175 C2174 1.366 . S
C2175 C2176 1.414 . S
C2175 C2178 1.499 . S
C2176 H2156 0.950 . S
C2176 C2175 1.414 . S
C2176 C2177 1.374 . S
C2177 H2157 0.950 . S
C2177 C2173 1.385 . S
C2177 C2176 1.374 . S
C2178 C2175 1.499 . S
C2178 C2179 1.373 . S
C2178 C2180 1.389 . S
C2179 H2158 0.950 . S
C2179 C2178 1.373 . S
C2179 C2195 1.377 . S
C2180 C2178 1.389 . S
C2180 C2181 1.524 . S
C2180 C2194 1.377 . S
C2181 C2180 1.524 . S
C2181 C2182 1.397 . S
C2181 C2186 1.363 . S
C2182 H2159 0.950 . S
C2182 C2181 1.397 . S
C2182 C2183 1.334 . S
C2183 H2160 0.950 . S
C2183 C2182 1.334 . S
C2183 C2184 1.287 . S
C2184 C2183 1.287 . S
C2184 C2185 1.524 . S
C2184 H2203 0.913 . S
C2185 H2161 0.950 . S
C2185 C2184 1.524 . S
C2185 C2186 1.415 . S
C2186 H2162 0.950 . S
C2186 C2181 1.363 . S
C2186 C2185 1.415 . S
C2187 H2163 0.951 . S
C2187 C2188 1.366 . S
C2187 C2189 1.388 . S
C2188 C2187 1.366 . S
C2188 C2192 1.385 . S
C2189 H2164 0.951 . S
C2189 C2187 1.388 . S
C2189 C2190 1.366 . S
C2190 C2189 1.366 . S
C2190 C2191 1.414 . S
C2190 C2193 1.499 . S
C2191 H2165 0.950 . S
C2191 C2190 1.414 . S
C2191 C2192 1.374 . S
C2192 H2166 0.950 . S
C2192 C2188 1.385 . S
C2192 C2191 1.374 . S
C2193 C2190 1.499 . S
C2193 C2194 1.373 . S
C2193 C2195 1.389 . S
C2194 H2167 0.950 . S
C2194 C2180 1.377 . S
C2194 C2193 1.373 . S
C2195 C2179 1.377 . S
C2195 C2193 1.389 . S
C2195 C2196 1.524 . S
C2196 C2195 1.524 . S
C2196 C2197 1.397 . S
C2196 C2201 1.363 . S
C2197 H2168 0.950 . S
C2197 C2196 1.397 . S
C2197 C2198 1.334 . S
C2198 H2169 0.950 . S
C2198 C2197 1.334 . S
C2198 C2199 1.287 . S
C2199 C2198 1.287 . S
C2199 C2200 1.524 . S
C2199 H2202 0.999 . S
C2200 H2170 0.950 . S
C2200 C2199 1.524 . S
C2200 C2201 1.415 . S
C2201 H2171 0.950 . S
C2201 C2196 1.363 . S
C2201 C2200 1.415 . S
H2202 C2199 0.999 . S
H2203 C2184 0.913 . S
H2204 C2222 0.951 . S
H2205 C2224 0.951 . S
H2206 C2226 0.950 . S
H2207 C2227 0.950 . S
H2208 C2229 0.950 . S
H2209 C2232 0.950 . S
H2210 C2233 0.950 . S
H2211 C2235 0.950 . S
H2212 C2236 0.950 . S
H2213 C2237 0.951 . S
H2214 C2239 0.951 . S
H2215 C2241 0.950 . S
H2216 C2242 0.950 . S
H2217 C2244 0.950 . S
H2218 C2247 0.950 . S
H2219 C2248 0.950 . S
H2220 C2250 0.950 . S
H2221 C2251 0.950 . S
C2222 H2204 0.951 . S
C2222 C2223 1.366 . S
C2222 C2224 1.388 . S
C2223 C2222 1.366 . S
C2223 C2227 1.385 . S
C2224 H2205 0.951 . S
C2224 C2222 1.388 . S
C2224 C2225 1.366 . S
C2225 C2224 1.366 . S
C2225 C2226 1.414 . S
C2225 C2228 1.499 . S
C2226 H2206 0.950 . S
C2226 C2225 1.414 . S
C2226 C2227 1.374 . S
C2227 H2207 0.950 . S
C2227 C2223 1.385 . S
C2227 C2226 1.374 . S
C2228 C2225 1.499 . S
C2228 C2229 1.373 . S
C2228 C2230 1.389 . S
C2229 H2208 0.950 . S
C2229 C2228 1.373 . S
C2229 C2245 1.377 . S
C2230 C2228 1.389 . S
C2230 C2231 1.524 . S
C2230 C2244 1.377 . S
C2231 C2230 1.524 . S
C2231 C2232 1.397 . S
C2231 C2236 1.363 . S
C2232 H2209 0.950 . S
C2232 C2231 1.397 . S
C2232 C2233 1.334 . S
C2233 H2210 0.950 . S
C2233 C2232 1.334 . S
C2233 C2234 1.287 . S
C2234 C2233 1.287 . S
C2234 C2235 1.524 . S
C2234 H2253 0.913 . S
C2235 H2211 0.950 . S
C2235 C2234 1.524 . S
C2235 C2236 1.415 . S
C2236 H2212 0.950 . S
C2236 C2231 1.363 . S
C2236 C2235 1.415 . S
C2237 H2213 0.951 . S
C2237 C2238 1.366 . S
C2237 C2239 1.388 . S
C2238 C2237 1.366 . S
C2238 C2242 1.385 . S
C2239 H2214 0.951 . S
C2239 C2237 1.388 . S
C2239 C2240 1.366 . S
C2240 C2239 1.366 . S
C2240 C2241 1.414 . S
C2240 C2243 1.499 . S
C2241 H2215 0.950 . S
C2241 C2240 1.414 . S
C2241 C2242 1.374 . S
C2242 H2216 0.950 . S
C2242 C2238 1.385 . S
C2242 C2241 1.374 . S
C2243 C2240 1.499 . S
C2243 C2244 1.373 . S
C2243 C2245 1.389 . S
C2244 H2217 0.950 . S
C2244 C2230 1.377 . S
C2244 C2243 1.373 . S
C2245 C2229 1.377 . S
C2245 C2243 1.389 . S
C2245 C2246 1.524 . S
C2246 C2245 1.524 . S
C2246 C2247 1.397 . S
C2246 C2251 1.363 . S
C2247 H2218 0.950 . S
C2247 C2246 1.397 . S
C2247 C2248 1.334 . S
C2248 H2219 0.950 . S
C2248 C2247 1.334 . S
C2248 C2249 1.287 . S
C2249 C2248 1.287 . S
C2249 C2250 1.524 . S
C2249 H2252 0.999 . S
C2250 H2220 0.950 . S
C2250 C2249 1.524 . S
C2250 C2251 1.415 . S
C2251 H2221 0.950 . S
C2251 C2246 1.363 . S
C2251 C2250 1.415 . S
H2252 C2249 0.999 . S
H2253 C2234 0.913 . S
H2254 C2272 0.951 . S
H2255 C2274 0.951 . S
H2256 C2276 0.950 . S
H2257 C2277 0.950 . S
H2258 C2279 0.950 . S
H2259 C2282 0.950 . S
H2260 C2283 0.950 . S
H2261 C2285 0.950 . S
H2262 C2286 0.950 . S
H2263 C2287 0.951 . S
H2264 C2289 0.951 . S
H2265 C2291 0.950 . S
H2266 C2292 0.950 . S
H2267 C2294 0.950 . S
H2268 C2297 0.950 . S
H2269 C2298 0.950 . S
H2270 C2300 0.950 . S
H2271 C2301 0.950 . S
C2272 H2254 0.951 . S
C2272 C2273 1.366 . S
C2272 C2274 1.388 . S
C2273 C2272 1.366 . S
C2273 C2277 1.385 . S
C2274 H2255 0.951 . S
C2274 C2272 1.388 . S
C2274 C2275 1.366 . S
C2275 C2274 1.366 . S
C2275 C2276 1.414 . S
C2275 C2278 1.499 . S
C2276 H2256 0.950 . S
C2276 C2275 1.414 . S
C2276 C2277 1.374 . S
C2277 H2257 0.950 . S
C2277 C2273 1.385 . S
C2277 C2276 1.374 . S
C2278 C2275 1.499 . S
C2278 C2279 1.373 . S
C2278 C2280 1.389 . S
C2279 H2258 0.950 . S
C2279 C2278 1.373 . S
C2279 C2295 1.377 . S
C2280 C2278 1.389 . S
C2280 C2281 1.524 . S
C2280 C2294 1.377 . S
C2281 C2280 1.524 . S
C2281 C2282 1.397 . S
C2281 C2286 1.363 . S
C2282 H2259 0.950 . S
C2282 C2281 1.397 . S
C2282 C2283 1.334 . S
C2283 H2260 0.950 . S
C2283 C2282 1.334 . S
C2283 C2284 1.287 . S
C2284 C2283 1.287 . S
C2284 C2285 1.524 . S
C2284 H2303 0.913 . S
C2285 H2261 0.950 . S
C2285 C2284 1.524 . S
C2285 C2286 1.415 . S
C2286 H2262 0.950 . S
C2286 C2281 1.363 . S
C2286 C2285 1.415 . S
C2287 H2263 0.951 . S
C2287 C2288 1.366 . S
C2287 C2289 1.388 . S
C2288 C2287 1.366 . S
C2288 C2292 1.385 . S
C2289 H2264 0.951 . S
C2289 C2287 1.388 . S
C2289 C2290 1.366 . S
C2290 C2289 1.366 . S
C2290 C2291 1.414 . S
C2290 C2293 1.499 . S
C2291 H2265 0.950 . S
C2291 C2290 1.414 . S
C2291 C2292 1.374 . S
C2292 H2266 0.950 . S
C2292 C2288 1.385 . S
C2292 C2291 1.374 . S
C2293 C2290 1.499 . S
C2293 C2294 1.373 . S
C2293 C2295 1.389 . S
C2294 H2267 0.950 . S
C2294 C2280 1.377 . S
C2294 C2293 1.373 . S
C2295 C2279 1.377 . S
C2295 C2293 1.389 . S
C2295 C2296 1.524 . S
C2296 C2295 1.524 . S
C2296 C2297 1.397 . S
C2296 C2301 1.363 . S
C2297 H2268 0.950 . S
C2297 C2296 1.397 . S
C2297 C2298 1.334 . S
C2298 H2269 0.950 . S
C2298 C2297 1.334 . S
C2298 C2299 1.287 . S
C2299 C2298 1.287 . S
C2299 C2300 1.524 . S
C2299 H2302 0.999 . S
C2300 H2270 0.950 . S
C2300 C2299 1.524 . S
C2300 C2301 1.415 . S
C2301 H2271 0.950 . S
C2301 C2296 1.363 . S
C2301 C2300 1.415 . S
H2302 C2299 0.999 . S
H2303 C2284 0.913 . S
H2304 C2322 0.951 . S
H2305 C2324 0.951 . S
H2306 C2326 0.950 . S
H2307 C2327 0.950 . S
H2308 C2329 0.950 . S
H2309 C2332 0.950 . S
H2310 C2333 0.950 . S
H2311 C2335 0.950 . S
H2312 C2336 0.950 . S
H2313 C2337 0.951 . S
H2314 C2339 0.951 . S
H2315 C2341 0.950 . S
H2316 C2342 0.950 . S
H2317 C2344 0.950 . S
H2318 C2347 0.950 . S
H2319 C2348 0.950 . S
H2320 C2350 0.950 . S
H2321 C2351 0.950 . S
C2322 H2304 0.951 . S
C2322 C2323 1.366 . S
C2322 C2324 1.388 . S
C2323 C2322 1.366 . S
C2323 C2327 1.385 . S
C2324 H2305 0.951 . S
C2324 C2322 1.388 . S
C2324 C2325 1.366 . S
C2325 C2324 1.366 . S
C2325 C2326 1.414 . S
C2325 C2328 1.499 . S
C2326 H2306 0.950 . S
C2326 C2325 1.414 . S
C2326 C2327 1.374 . S
C2327 H2307 0.950 . S
C2327 C2323 1.385 . S
C2327 C2326 1.374 . S
C2328 C2325 1.499 . S
C2328 C2329 1.373 . S
C2328 C2330 1.389 . S
C2329 H2308 0.950 . S
C2329 C2328 1.373 . S
C2329 C2345 1.377 . S
C2330 C2328 1.389 . S
C2330 C2331 1.524 . S
C2330 C2344 1.377 . S
C2331 C2330 1.524 . S
C2331 C2332 1.397 . S
C2331 C2336 1.363 . S
C2332 H2309 0.950 . S
C2332 C2331 1.397 . S
C2332 C2333 1.334 . S
C2333 H2310 0.950 . S
C2333 C2332 1.334 . S
C2333 C2334 1.287 . S
C2334 C2333 1.287 . S
C2334 C2335 1.524 . S
C2334 H2353 0.913 . S
C2335 H2311 0.950 . S
C2335 C2334 1.524 . S
C2335 C2336 1.415 . S
C2336 H2312 0.950 . S
C2336 C2331 1.363 . S
C2336 C2335 1.415 . S
C2337 H2313 0.951 . S
C2337 C2338 1.366 . S
C2337 C2339 1.388 . S
C2338 C2337 1.366 . S
C2338 C2342 1.385 . S
C2339 H2314 0.951 . S
C2339 C2337 1.388 . S
C2339 C2340 1.366 . S
C2340 C2339 1.366 . S
C2340 C2341 1.414 . S
C2340 C2343 1.499 . S
C2341 H2315 0.950 . S
C2341 C2340 1.414 . S
C2341 C2342 1.374 . S
C2342 H2316 0.950 . S
C2342 C2338 1.385 . S
C2342 C2341 1.374 . S
C2343 C2340 1.499 . S
C2343 C2344 1.373 . S
C2343 C2345 1.389 . S
C2344 H2317 0.950 . S
C2344 C2330 1.377 . S
C2344 C2343 1.373 . S
C2345 C2329 1.377 . S
C2345 C2343 1.389 . S
C2345 C2346 1.524 . S
C2346 C2345 1.524 . S
C2346 C2347 1.397 . S
C2346 C2351 1.363 . S
C2347 H2318 0.950 . S
C2347 C2346 1.397 . S
C2347 C2348 1.334 . S
C2348 H2319 0.950 . S
C2348 C2347 1.334 . S
C2348 C2349 1.287 . S
C2349 C2348 1.287 . S
C2349 C2350 1.524 . S
C2349 H2352 0.999 . S
C2350 H2320 0.950 . S
C2350 C2349 1.524 . S
C2350 C2351 1.415 . S
C2351 H2321 0.950 . S
C2351 C2346 1.363 . S
C2351 C2350 1.415 . S
H2352 C2349 0.999 . S
H2353 C2334 0.913 . S
H2354 C2372 0.951 . S
H2355 C2374 0.951 . S
H2356 C2376 0.950 . S
H2357 C2377 0.950 . S
H2358 C2379 0.950 . S
H2359 C2382 0.950 . S
H2360 C2383 0.950 . S
H2361 C2385 0.950 . S
H2362 C2386 0.950 . S
H2363 C2387 0.951 . S
H2364 C2389 0.951 . S
H2365 C2391 0.950 . S
H2366 C2392 0.950 . S
H2367 C2394 0.950 . S
H2368 C2397 0.950 . S
H2369 C2398 0.950 . S
H2370 C2400 0.950 . S
H2371 C2401 0.950 . S
C2372 H2354 0.951 . S
C2372 C2373 1.366 . S
C2372 C2374 1.388 . S
C2373 C2372 1.366 . S
C2373 C2377 1.385 . S
C2374 H2355 0.951 . S
C2374 C2372 1.388 . S
C2374 C2375 1.366 . S
C2375 C2374 1.366 . S
C2375 C2376 1.414 . S
C2375 C2378 1.499 . S
C2376 H2356 0.950 . S
C2376 C2375 1.414 . S
C2376 C2377 1.374 . S
C2377 H2357 0.950 . S
C2377 C2373 1.385 . S
C2377 C2376 1.374 . S
C2378 C2375 1.499 . S
C2378 C2379 1.373 . S
C2378 C2380 1.389 . S
C2379 H2358 0.950 . S
C2379 C2378 1.373 . S
C2379 C2395 1.377 . S
C2380 C2378 1.389 . S
C2380 C2381 1.524 . S
C2380 C2394 1.377 . S
C2381 C2380 1.524 . S
C2381 C2382 1.397 . S
C2381 C2386 1.363 . S
C2382 H2359 0.950 . S
C2382 C2381 1.397 . S
C2382 C2383 1.334 . S
C2383 H2360 0.950 . S
C2383 C2382 1.334 . S
C2383 C2384 1.287 . S
C2384 C2383 1.287 . S
C2384 C2385 1.524 . S
C2384 H2403 0.913 . S
C2385 H2361 0.950 . S
C2385 C2384 1.524 . S
C2385 C2386 1.415 . S
C2386 H2362 0.950 . S
C2386 C2381 1.363 . S
C2386 C2385 1.415 . S
C2387 H2363 0.951 . S
C2387 C2388 1.366 . S
C2387 C2389 1.388 . S
C2388 C2387 1.366 . S
C2388 C2392 1.385 . S
C2389 H2364 0.951 . S
C2389 C2387 1.388 . S
C2389 C2390 1.366 . S
C2390 C2389 1.366 . S
C2390 C2391 1.414 . S
C2390 C2393 1.499 . S
C2391 H2365 0.950 . S
C2391 C2390 1.414 . S
C2391 C2392 1.374 . S
C2392 H2366 0.950 . S
C2392 C2388 1.385 . S
C2392 C2391 1.374 . S
C2393 C2390 1.499 . S
C2393 C2394 1.373 . S
C2393 C2395 1.389 . S
C2394 H2367 0.950 . S
C2394 C2380 1.377 . S
C2394 C2393 1.373 . S
C2395 C2379 1.377 . S
C2395 C2393 1.389 . S
C2395 C2396 1.524 . S
C2396 C2395 1.524 . S
C2396 C2397 1.397 . S
C2396 C2401 1.363 . S
C2397 H2368 0.950 . S
C2397 C2396 1.397 . S
C2397 C2398 1.334 . S
C2398 H2369 0.950 . S
C2398 C2397 1.334 . S
C2398 C2399 1.287 . S
C2399 C2398 1.287 . S
C2399 C2400 1.524 . S
C2399 H2402 0.999 . S
C2400 H2370 0.950 . S
C2400 C2399 1.524 . S
C2400 C2401 1.415 . S
C2401 H2371 0.950 . S
C2401 C2396 1.363 . S
C2401 C2400 1.415 . S
H2402 C2399 0.999 . S
H2403 C2384 0.913 . S
H2404 C2422 0.951 . S
H2405 C2424 0.951 . S
H2406 C2426 0.950 . S
H2407 C2427 0.950 . S
H2408 C2429 0.950 . S
H2409 C2432 0.950 . S
H2410 C2433 0.950 . S
H2411 C2435 0.950 . S
H2412 C2436 0.950 . S
H2413 C2437 0.951 . S
H2414 C2439 0.951 . S
H2415 C2441 0.950 . S
H2416 C2442 0.950 . S
H2417 C2444 0.950 . S
H2418 C2447 0.950 . S
H2419 C2448 0.950 . S
H2420 C2450 0.950 . S
H2421 C2451 0.950 . S
C2422 H2404 0.951 . S
C2422 C2423 1.366 . S
C2422 C2424 1.388 . S
C2423 C2422 1.366 . S
C2423 C2427 1.385 . S
C2424 H2405 0.951 . S
C2424 C2422 1.388 . S
C2424 C2425 1.366 . S
C2425 C2424 1.366 . S
C2425 C2426 1.414 . S
C2425 C2428 1.499 . S
C2426 H2406 0.950 . S
C2426 C2425 1.414 . S
C2426 C2427 1.374 . S
C2427 H2407 0.950 . S
C2427 C2423 1.385 . S
C2427 C2426 1.374 . S
C2428 C2425 1.499 . S
C2428 C2429 1.373 . S
C2428 C2430 1.389 . S
C2429 H2408 0.950 . S
C2429 C2428 1.373 . S
C2429 C2445 1.377 . S
C2430 C2428 1.389 . S
C2430 C2431 1.524 . S
C2430 C2444 1.377 . S
C2431 C2430 1.524 . S
C2431 C2432 1.397 . S
C2431 C2436 1.363 . S
C2432 H2409 0.950 . S
C2432 C2431 1.397 . S
C2432 C2433 1.334 . S
C2433 H2410 0.950 . S
C2433 C2432 1.334 . S
C2433 C2434 1.287 . S
C2434 C2433 1.287 . S
C2434 C2435 1.524 . S
C2434 H2453 0.913 . S
C2435 H2411 0.950 . S
C2435 C2434 1.524 . S
C2435 C2436 1.415 . S
C2436 H2412 0.950 . S
C2436 C2431 1.363 . S
C2436 C2435 1.415 . S
C2437 H2413 0.951 . S
C2437 C2438 1.366 . S
C2437 C2439 1.388 . S
C2438 C2437 1.366 . S
C2438 C2442 1.385 . S
C2439 H2414 0.951 . S
C2439 C2437 1.388 . S
C2439 C2440 1.366 . S
C2440 C2439 1.366 . S
C2440 C2441 1.414 . S
C2440 C2443 1.499 . S
C2441 H2415 0.950 . S
C2441 C2440 1.414 . S
C2441 C2442 1.374 . S
C2442 H2416 0.950 . S
C2442 C2438 1.385 . S
C2442 C2441 1.374 . S
C2443 C2440 1.499 . S
C2443 C2444 1.373 . S
C2443 C2445 1.389 . S
C2444 H2417 0.950 . S
C2444 C2430 1.377 . S
C2444 C2443 1.373 . S
C2445 C2429 1.377 . S
C2445 C2443 1.389 . S
C2445 C2446 1.524 . S
C2446 C2445 1.524 . S
C2446 C2447 1.397 . S
C2446 C2451 1.363 . S
C2447 H2418 0.950 . S
C2447 C2446 1.397 . S
C2447 C2448 1.334 . S
C2448 H2419 0.950 . S
C2448 C2447 1.334 . S
C2448 C2449 1.287 . S
C2449 C2448 1.287 . S
C2449 C2450 1.524 . S
C2449 H2452 0.999 . S
C2450 H2420 0.950 . S
C2450 C2449 1.524 . S
C2450 C2451 1.415 . S
C2451 H2421 0.950 . S
C2451 C2446 1.363 . S
C2451 C2450 1.415 . S
H2452 C2449 0.999 . S
H2453 C2434 0.913 . S
H2454 C2472 0.951 . S
H2455 C2474 0.951 . S
H2456 C2476 0.950 . S
H2457 C2477 0.950 1_556 S
H2458 C2479 0.950 . S
H2459 C2482 0.950 . S
H2460 C2483 0.950 . S
H2461 C2485 0.950 . S
H2462 C2486 0.950 . S
H2463 C2487 0.951 . S
H2464 C2489 0.951 . S
H2465 C2491 0.950 . S
H2466 C2492 0.950 . S
H2467 C2494 0.950 . S
H2468 C2497 0.950 . S
H2469 C2498 0.950 . S
H2470 C2500 0.950 . S
H2471 C2501 0.950 . S
C2472 H2454 0.951 . S
C2472 C2473 1.366 . S
C2472 C2474 1.388 . S
C2473 C2472 1.366 . S
C2473 C2477 1.385 . S
C2474 H2455 0.951 . S
C2474 C2472 1.388 . S
C2474 C2475 1.366 . S
C2475 C2474 1.366 . S
C2475 C2476 1.414 . S
C2475 C2478 1.499 . S
C2476 H2456 0.950 . S
C2476 C2475 1.414 . S
C2476 C2477 1.374 . S
C2477 H2457 0.950 1_554 S
C2477 C2473 1.385 . S
C2477 C2476 1.374 . S
C2478 C2475 1.499 . S
C2478 C2479 1.373 . S
C2478 C2480 1.389 . S
C2479 H2458 0.950 . S
C2479 C2478 1.373 . S
C2479 C2495 1.377 . S
C2480 C2478 1.389 . S
C2480 C2481 1.524 . S
C2480 C2494 1.377 . S
C2481 C2480 1.524 . S
C2481 C2482 1.397 . S
C2481 C2486 1.363 . S
C2482 H2459 0.950 . S
C2482 C2481 1.397 . S
C2482 C2483 1.334 . S
C2483 H2460 0.950 . S
C2483 C2482 1.334 . S
C2483 C2484 1.287 . S
C2484 C2483 1.287 . S
C2484 C2485 1.524 . S
C2484 H2503 0.913 . S
C2485 H2461 0.950 . S
C2485 C2484 1.524 . S
C2485 C2486 1.415 . S
C2486 H2462 0.950 . S
C2486 C2481 1.363 . S
C2486 C2485 1.415 . S
C2487 H2463 0.951 . S
C2487 C2488 1.366 . S
C2487 C2489 1.388 . S
C2488 C2487 1.366 . S
C2488 C2492 1.385 . S
C2489 H2464 0.951 . S
C2489 C2487 1.388 . S
C2489 C2490 1.366 . S
C2490 C2489 1.366 . S
C2490 C2491 1.414 . S
C2490 C2493 1.499 . S
C2491 H2465 0.950 . S
C2491 C2490 1.414 . S
C2491 C2492 1.374 . S
C2492 H2466 0.950 . S
C2492 C2488 1.385 . S
C2492 C2491 1.374 . S
C2493 C2490 1.499 . S
C2493 C2494 1.373 . S
C2493 C2495 1.389 . S
C2494 H2467 0.950 . S
C2494 C2480 1.377 . S
C2494 C2493 1.373 . S
C2495 C2479 1.377 . S
C2495 C2493 1.389 . S
C2495 C2496 1.524 . S
C2496 C2495 1.524 . S
C2496 C2497 1.397 . S
C2496 C2501 1.363 . S
C2497 H2468 0.950 . S
C2497 C2496 1.397 . S
C2497 C2498 1.334 . S
C2498 H2469 0.950 . S
C2498 C2497 1.334 . S
C2498 C2499 1.287 . S
C2499 C2498 1.287 . S
C2499 C2500 1.524 . S
C2499 H2502 0.999 . S
C2500 H2470 0.950 . S
C2500 C2499 1.524 . S
C2500 C2501 1.415 . S
C2501 H2471 0.950 . S
C2501 C2496 1.363 . S
C2501 C2500 1.415 . S
H2502 C2499 0.999 . S
H2503 C2484 0.913 . S
H2504 C2522 0.951 . S
H2505 C2524 0.951 . S
H2506 C2526 0.950 . S
H2507 C2527 0.950 . S
H2508 C2529 0.950 . S
H2509 C2532 0.950 . S
H2510 C2533 0.950 . S
H2511 C2535 0.950 . S
H2512 C2536 0.950 . S
H2513 C2537 0.951 . S
H2514 C2539 0.951 . S
H2515 C2541 0.950 . S
H2516 C2542 0.950 . S
H2517 C2544 0.950 . S
H2518 C2547 0.950 . S
H2519 C2548 0.950 . S
H2520 C2550 0.950 . S
H2521 C2551 0.950 . S
C2522 H2504 0.951 . S
C2522 C2523 1.366 . S
C2522 C2524 1.388 . S
C2523 C2522 1.366 . S
C2523 C2527 1.385 . S
C2524 H2505 0.951 . S
C2524 C2522 1.388 . S
C2524 C2525 1.366 . S
C2525 C2524 1.366 . S
C2525 C2526 1.414 . S
C2525 C2528 1.499 . S
C2526 H2506 0.950 . S
C2526 C2525 1.414 . S
C2526 C2527 1.374 . S
C2527 H2507 0.950 . S
C2527 C2523 1.385 . S
C2527 C2526 1.374 . S
C2528 C2525 1.499 . S
C2528 C2529 1.373 . S
C2528 C2530 1.389 . S
C2529 H2508 0.950 . S
C2529 C2528 1.373 . S
C2529 C2545 1.377 . S
C2530 C2528 1.389 . S
C2530 C2531 1.524 . S
C2530 C2544 1.377 . S
C2531 C2530 1.524 . S
C2531 C2532 1.397 . S
C2531 C2536 1.363 . S
C2532 H2509 0.950 . S
C2532 C2531 1.397 . S
C2532 C2533 1.334 . S
C2533 H2510 0.950 . S
C2533 C2532 1.334 . S
C2533 C2534 1.287 . S
C2534 C2533 1.287 . S
C2534 C2535 1.524 . S
C2534 H2553 0.913 . S
C2535 H2511 0.950 . S
C2535 C2534 1.524 . S
C2535 C2536 1.415 . S
C2536 H2512 0.950 . S
C2536 C2531 1.363 . S
C2536 C2535 1.415 . S
C2537 H2513 0.951 . S
C2537 C2538 1.366 . S
C2537 C2539 1.388 . S
C2538 C2537 1.366 . S
C2538 C2542 1.385 . S
C2539 H2514 0.951 . S
C2539 C2537 1.388 . S
C2539 C2540 1.366 . S
C2540 C2539 1.366 . S
C2540 C2541 1.414 . S
C2540 C2543 1.499 . S
C2541 H2515 0.950 . S
C2541 C2540 1.414 . S
C2541 C2542 1.374 . S
C2542 H2516 0.950 . S
C2542 C2538 1.385 . S
C2542 C2541 1.374 . S
C2543 C2540 1.499 . S
C2543 C2544 1.373 . S
C2543 C2545 1.389 . S
C2544 H2517 0.950 . S
C2544 C2530 1.377 . S
C2544 C2543 1.373 . S
C2545 C2529 1.377 . S
C2545 C2543 1.389 . S
C2545 C2546 1.524 . S
C2546 C2545 1.524 . S
C2546 C2547 1.397 . S
C2546 C2551 1.363 . S
C2547 H2518 0.950 . S
C2547 C2546 1.397 . S
C2547 C2548 1.334 . S
C2548 H2519 0.950 . S
C2548 C2547 1.334 . S
C2548 C2549 1.287 . S
C2549 C2548 1.287 . S
C2549 C2550 1.524 . S
C2549 H2552 0.999 . S
C2550 H2520 0.950 . S
C2550 C2549 1.524 . S
C2550 C2551 1.415 . S
C2551 H2521 0.950 . S
C2551 C2546 1.363 . S
C2551 C2550 1.415 . S
H2552 C2549 0.999 . S
H2553 C2534 0.913 . S
H2554 C2572 0.951 . S
H2555 C2574 0.951 . S
H2556 C2576 0.950 . S
H2557 C2577 0.950 . S
H2558 C2579 0.950 . S
H2559 C2582 0.950 . S
H2560 C2583 0.950 . S
H2561 C2585 0.950 . S
H2562 C2586 0.950 . S
H2563 C2587 0.951 . S
H2564 C2589 0.951 . S
H2565 C2591 0.950 . S
H2566 C2592 0.950 . S
H2567 C2594 0.950 . S
H2568 C2597 0.950 . S
H2569 C2598 0.950 . S
H2570 C2600 0.950 . S
H2571 C2601 0.950 . S
C2572 H2554 0.951 . S
C2572 C2573 1.366 . S
C2572 C2574 1.388 . S
C2573 C2572 1.366 . S
C2573 C2577 1.385 . S
C2574 H2555 0.951 . S
C2574 C2572 1.388 . S
C2574 C2575 1.366 . S
C2575 C2574 1.366 . S
C2575 C2576 1.414 . S
C2575 C2578 1.499 . S
C2576 H2556 0.950 . S
C2576 C2575 1.414 . S
C2576 C2577 1.374 . S
C2577 H2557 0.950 . S
C2577 C2573 1.385 . S
C2577 C2576 1.374 . S
C2578 C2575 1.499 . S
C2578 C2579 1.373 . S
C2578 C2580 1.389 . S
C2579 H2558 0.950 . S
C2579 C2578 1.373 . S
C2579 C2595 1.377 . S
C2580 C2578 1.389 . S
C2580 C2581 1.524 . S
C2580 C2594 1.377 . S
C2581 C2580 1.524 . S
C2581 C2582 1.397 . S
C2581 C2586 1.363 . S
C2582 H2559 0.950 . S
C2582 C2581 1.397 . S
C2582 C2583 1.334 . S
C2583 H2560 0.950 . S
C2583 C2582 1.334 . S
C2583 C2584 1.287 . S
C2584 C2583 1.287 . S
C2584 C2585 1.524 . S
C2584 H2603 0.913 . S
C2585 H2561 0.950 . S
C2585 C2584 1.524 . S
C2585 C2586 1.415 . S
C2586 H2562 0.950 . S
C2586 C2581 1.363 . S
C2586 C2585 1.415 . S
C2587 H2563 0.951 . S
C2587 C2588 1.366 . S
C2587 C2589 1.388 . S
C2588 C2587 1.366 . S
C2588 C2592 1.385 . S
C2589 H2564 0.951 . S
C2589 C2587 1.388 . S
C2589 C2590 1.366 . S
C2590 C2589 1.366 . S
C2590 C2591 1.414 . S
C2590 C2593 1.499 . S
C2591 H2565 0.950 . S
C2591 C2590 1.414 . S
C2591 C2592 1.374 . S
C2592 H2566 0.950 . S
C2592 C2588 1.385 . S
C2592 C2591 1.374 . S
C2593 C2590 1.499 . S
C2593 C2594 1.373 . S
C2593 C2595 1.389 . S
C2594 H2567 0.950 . S
C2594 C2580 1.377 . S
C2594 C2593 1.373 . S
C2595 C2579 1.377 . S
C2595 C2593 1.389 . S
C2595 C2596 1.524 . S
C2596 C2595 1.524 . S
C2596 C2597 1.397 . S
C2596 C2601 1.363 . S
C2597 H2568 0.950 . S
C2597 C2596 1.397 . S
C2597 C2598 1.334 . S
C2598 H2569 0.950 . S
C2598 C2597 1.334 . S
C2598 C2599 1.287 . S
C2599 C2598 1.287 . S
C2599 C2600 1.524 . S
C2599 H2602 0.999 . S
C2600 H2570 0.950 . S
C2600 C2599 1.524 . S
C2600 C2601 1.415 . S
C2601 H2571 0.950 . S
C2601 C2596 1.363 . S
C2601 C2600 1.415 . S
H2602 C2599 0.999 . S
H2603 C2584 0.913 . S
H2604 C2622 0.951 . S
H2605 C2624 0.951 . S
H2606 C2626 0.950 . S
H2607 C2627 0.950 . S
H2608 C2629 0.950 . S
H2609 C2632 0.950 . S
H2610 C2633 0.950 . S
H2611 C2635 0.950 . S
H2612 C2636 0.950 . S
H2613 C2637 0.951 . S
H2614 C2639 0.951 . S
H2615 C2641 0.950 . S
H2616 C2642 0.950 . S
H2617 C2644 0.950 . S
H2618 C2647 0.950 . S
H2619 C2648 0.950 . S
H2620 C2650 0.950 . S
H2621 C2651 0.950 . S
C2622 H2604 0.951 . S
C2622 C2623 1.366 . S
C2622 C2624 1.388 . S
C2623 C2622 1.366 . S
C2623 C2627 1.385 . S
C2624 H2605 0.951 . S
C2624 C2622 1.388 . S
C2624 C2625 1.366 . S
C2625 C2624 1.366 . S
C2625 C2626 1.414 . S
C2625 C2628 1.499 . S
C2626 H2606 0.950 . S
C2626 C2625 1.414 . S
C2626 C2627 1.374 . S
C2627 H2607 0.950 . S
C2627 C2623 1.385 . S
C2627 C2626 1.374 . S
C2628 C2625 1.499 . S
C2628 C2629 1.373 . S
C2628 C2630 1.389 . S
C2629 H2608 0.950 . S
C2629 C2628 1.373 . S
C2629 C2645 1.377 . S
C2630 C2628 1.389 . S
C2630 C2631 1.524 . S
C2630 C2644 1.377 . S
C2631 C2630 1.524 . S
C2631 C2632 1.397 . S
C2631 C2636 1.363 . S
C2632 H2609 0.950 . S
C2632 C2631 1.397 . S
C2632 C2633 1.334 . S
C2633 H2610 0.950 . S
C2633 C2632 1.334 . S
C2633 C2634 1.287 . S
C2634 C2633 1.287 . S
C2634 C2635 1.524 . S
C2634 H2653 0.913 . S
C2635 H2611 0.950 . S
C2635 C2634 1.524 . S
C2635 C2636 1.415 . S
C2636 H2612 0.950 . S
C2636 C2631 1.363 . S
C2636 C2635 1.415 . S
C2637 H2613 0.951 . S
C2637 C2638 1.366 . S
C2637 C2639 1.388 . S
C2638 C2637 1.366 . S
C2638 C2642 1.385 . S
C2639 H2614 0.951 . S
C2639 C2637 1.388 . S
C2639 C2640 1.366 . S
C2640 C2639 1.366 . S
C2640 C2641 1.414 . S
C2640 C2643 1.499 . S
C2641 H2615 0.950 . S
C2641 C2640 1.414 . S
C2641 C2642 1.374 . S
C2642 H2616 0.950 . S
C2642 C2638 1.385 . S
C2642 C2641 1.374 . S
C2643 C2640 1.499 . S
C2643 C2644 1.373 . S
C2643 C2645 1.389 . S
C2644 H2617 0.950 . S
C2644 C2630 1.377 . S
C2644 C2643 1.373 . S
C2645 C2629 1.377 . S
C2645 C2643 1.389 . S
C2645 C2646 1.524 . S
C2646 C2645 1.524 . S
C2646 C2647 1.397 . S
C2646 C2651 1.363 . S
C2647 H2618 0.950 . S
C2647 C2646 1.397 . S
C2647 C2648 1.334 . S
C2648 H2619 0.950 . S
C2648 C2647 1.334 . S
C2648 C2649 1.287 . S
C2649 C2648 1.287 . S
C2649 C2650 1.524 . S
C2649 H2652 0.999 . S
C2650 H2620 0.950 . S
C2650 C2649 1.524 . S
C2650 C2651 1.415 . S
C2651 H2621 0.950 . S
C2651 C2646 1.363 . S
C2651 C2650 1.415 . S
H2652 C2649 0.999 . S
H2653 C2634 0.913 . S
H2654 C2672 0.951 . S
H2655 C2674 0.951 . S
H2656 C2676 0.950 . S
H2657 C2677 0.964 . S
H2658 C2679 0.950 . S
H2659 C2682 0.950 . S
H2660 C2683 0.950 . S
H2661 C2685 0.950 . S
H2662 C2686 0.950 . S
H2663 C2687 0.951 . S
H2664 C2689 0.951 . S
H2665 C2691 0.950 . S
H2666 C2692 0.950 . S
H2667 C2694 0.950 . S
H2668 C2697 0.950 . S
H2669 C2698 0.950 . S
H2670 C2700 0.950 . S
H2671 C2701 0.950 . S
C2672 H2654 0.951 . S
C2672 C2673 1.366 . S
C2672 C2674 1.388 . S
C2673 C2672 1.366 . S
C2673 C2677 1.385 . S
C2674 H2655 0.951 . S
C2674 C2672 1.388 . S
C2674 C2675 1.366 . S
C2675 C2674 1.366 . S
C2675 C2676 1.414 . S
C2675 C2678 1.499 . S
C2676 H2656 0.950 . S
C2676 C2675 1.414 . S
C2676 C2677 1.374 . S
C2677 H2657 0.964 . S
C2677 C2673 1.385 . S
C2677 C2676 1.374 . S
C2678 C2675 1.499 . S
C2678 C2679 1.373 . S
C2678 C2680 1.389 . S
C2679 H2658 0.950 . S
C2679 C2678 1.373 . S
C2679 C2695 1.377 . S
C2680 C2678 1.389 . S
C2680 C2681 1.524 . S
C2680 C2694 1.377 . S
C2681 C2680 1.524 . S
C2681 C2682 1.397 . S
C2681 C2686 1.363 . S
C2682 H2659 0.950 . S
C2682 C2681 1.397 . S
C2682 C2683 1.334 . S
C2683 H2660 0.950 . S
C2683 C2682 1.334 . S
C2683 C2684 1.287 . S
C2684 C2683 1.287 . S
C2684 C2685 1.524 . S
C2684 H2703 0.913 . S
C2685 H2661 0.950 . S
C2685 C2684 1.524 . S
C2685 C2686 1.415 . S
C2686 H2662 0.950 . S
C2686 C2681 1.363 . S
C2686 C2685 1.415 . S
C2687 H2663 0.951 . S
C2687 C2688 1.366 . S
C2687 C2689 1.388 . S
C2688 C2687 1.366 . S
C2688 C2692 1.385 . S
C2689 H2664 0.951 . S
C2689 C2687 1.388 . S
C2689 C2690 1.366 . S
C2690 C2689 1.366 . S
C2690 C2691 1.414 . S
C2690 C2693 1.499 . S
C2691 H2665 0.950 . S
C2691 C2690 1.414 . S
C2691 C2692 1.374 . S
C2692 H2666 0.950 . S
C2692 C2688 1.385 . S
C2692 C2691 1.374 . S
C2693 C2690 1.499 . S
C2693 C2694 1.373 . S
C2693 C2695 1.389 . S
C2694 H2667 0.950 . S
C2694 C2680 1.377 . S
C2694 C2693 1.373 . S
C2695 C2679 1.377 . S
C2695 C2693 1.389 . S
C2695 C2696 1.524 . S
C2696 C2695 1.524 . S
C2696 C2697 1.397 . S
C2696 C2701 1.363 . S
C2697 H2668 0.950 . S
C2697 C2696 1.397 . S
C2697 C2698 1.334 . S
C2698 H2669 0.950 . S
C2698 C2697 1.334 . S
C2698 C2699 1.287 . S
C2699 C2698 1.287 . S
C2699 C2700 1.524 . S
C2699 H2702 0.999 . S
C2700 H2670 0.950 . S
C2700 C2699 1.524 . S
C2700 C2701 1.415 . S
C2701 H2671 0.950 . S
C2701 C2696 1.363 . S
C2701 C2700 1.415 . S
H2702 C2699 0.999 . S
H2703 C2684 0.913 . S
H2704 C2722 0.951 . S
H2705 C2724 0.951 . S
H2706 C2726 0.950 . S
H2707 C2727 0.950 . S
H2708 C2729 0.950 . S
H2709 C2732 0.950 . S
H2710 C2733 0.950 . S
H2711 C2735 0.950 . S
H2712 C2736 0.950 . S
H2713 C2737 0.951 . S
H2714 C2739 0.951 . S
H2715 C2741 0.950 . S
H2716 C2742 0.950 . S
H2717 C2744 0.950 . S
H2718 C2747 0.950 . S
H2719 C2748 0.950 . S
H2720 C2750 0.950 . S
H2721 C2751 0.950 . S
C2722 H2704 0.951 . S
C2722 C2723 1.366 . S
C2722 C2724 1.388 . S
C2723 C2722 1.366 . S
C2723 C2727 1.385 . S
C2724 H2705 0.951 . S
C2724 C2722 1.388 . S
C2724 C2725 1.366 . S
C2725 C2724 1.366 . S
C2725 C2726 1.414 . S
C2725 C2728 1.499 . S
C2726 H2706 0.950 . S
C2726 C2725 1.414 . S
C2726 C2727 1.374 . S
C2727 H2707 0.950 . S
C2727 C2723 1.385 . S
C2727 C2726 1.374 . S
C2728 C2725 1.499 . S
C2728 C2729 1.373 . S
C2728 C2730 1.389 . S
C2729 H2708 0.950 . S
C2729 C2728 1.373 . S
C2729 C2745 1.377 . S
C2730 C2728 1.389 . S
C2730 C2731 1.524 . S
C2730 C2744 1.377 . S
C2731 C2730 1.524 . S
C2731 C2732 1.397 . S
C2731 C2736 1.363 . S
C2732 H2709 0.950 . S
C2732 C2731 1.397 . S
C2732 C2733 1.334 . S
C2733 H2710 0.950 . S
C2733 C2732 1.334 . S
C2733 C2734 1.287 . S
C2734 C2733 1.287 . S
C2734 C2735 1.524 . S
C2734 H2753 0.913 . S
C2735 H2711 0.950 . S
C2735 C2734 1.524 . S
C2735 C2736 1.415 . S
C2736 H2712 0.950 . S
C2736 C2731 1.363 . S
C2736 C2735 1.415 . S
C2737 H2713 0.951 . S
C2737 C2738 1.366 . S
C2737 C2739 1.388 . S
C2738 C2737 1.366 . S
C2738 C2742 1.385 . S
C2739 H2714 0.951 . S
C2739 C2737 1.388 . S
C2739 C2740 1.366 . S
C2740 C2739 1.366 . S
C2740 C2741 1.414 . S
C2740 C2743 1.499 . S
C2741 H2715 0.950 . S
C2741 C2740 1.414 . S
C2741 C2742 1.374 . S
C2742 H2716 0.950 . S
C2742 C2738 1.385 . S
C2742 C2741 1.374 . S
C2743 C2740 1.499 . S
C2743 C2744 1.373 . S
C2743 C2745 1.389 . S
C2744 H2717 0.950 . S
C2744 C2730 1.377 . S
C2744 C2743 1.373 . S
C2745 C2729 1.377 . S
C2745 C2743 1.389 . S
C2745 C2746 1.524 . S
C2746 C2745 1.524 . S
C2746 C2747 1.397 . S
C2746 C2751 1.363 . S
C2747 H2718 0.950 . S
C2747 C2746 1.397 . S
C2747 C2748 1.334 . S
C2748 H2719 0.950 . S
C2748 C2747 1.334 . S
C2748 C2749 1.287 . S
C2749 C2748 1.287 . S
C2749 C2750 1.524 . S
C2749 H2752 0.999 . S
C2750 H2720 0.950 . S
C2750 C2749 1.524 . S
C2750 C2751 1.415 . S
C2751 H2721 0.950 . S
C2751 C2746 1.363 . S
C2751 C2750 1.415 . S
H2752 C2749 0.999 . S
H2753 C2734 0.913 . S
H2754 C2772 0.951 . S
H2755 C2774 0.951 . S
H2756 C2776 0.950 . S
H2757 C2777 0.950 . S
H2758 C2779 0.950 . S
H2759 C2782 0.950 . S
H2760 C2783 0.950 . S
H2761 C2785 0.950 . S
H2762 C2786 0.950 . S
H2763 C2787 0.951 . S
H2764 C2789 0.951 . S
H2765 C2791 0.950 . S
H2766 C2792 0.950 . S
H2767 C2794 0.950 . S
H2768 C2797 0.950 . S
H2769 C2798 0.950 . S
H2770 C2800 0.950 . S
H2771 C2801 0.950 . S
C2772 H2754 0.951 . S
C2772 C2773 1.366 . S
C2772 C2774 1.388 . S
C2773 C2772 1.366 . S
C2773 C2777 1.385 . S
C2774 H2755 0.951 . S
C2774 C2772 1.388 . S
C2774 C2775 1.366 . S
C2775 C2774 1.366 . S
C2775 C2776 1.414 . S
C2775 C2778 1.499 . S
C2776 H2756 0.950 . S
C2776 C2775 1.414 . S
C2776 C2777 1.374 . S
C2777 H2757 0.950 . S
C2777 C2773 1.385 . S
C2777 C2776 1.374 . S
C2778 C2775 1.499 . S
C2778 C2779 1.373 . S
C2778 C2780 1.389 . S
C2779 H2758 0.950 . S
C2779 C2778 1.373 . S
C2779 C2795 1.377 . S
C2780 C2778 1.389 . S
C2780 C2781 1.524 . S
C2780 C2794 1.377 . S
C2781 C2780 1.524 . S
C2781 C2782 1.397 . S
C2781 C2786 1.363 . S
C2782 H2759 0.950 . S
C2782 C2781 1.397 . S
C2782 C2783 1.334 . S
C2783 H2760 0.950 . S
C2783 C2782 1.334 . S
C2783 C2784 1.287 . S
C2784 C2783 1.287 . S
C2784 C2785 1.524 . S
C2784 H2803 0.913 . S
C2785 H2761 0.950 . S
C2785 C2784 1.524 . S
C2785 C2786 1.415 . S
C2786 H2762 0.950 . S
C2786 C2781 1.363 . S
C2786 C2785 1.415 . S
C2787 H2763 0.951 . S
C2787 C2788 1.366 . S
C2787 C2789 1.388 . S
C2788 C2787 1.366 . S
C2788 C2792 1.385 . S
C2789 H2764 0.951 . S
C2789 C2787 1.388 . S
C2789 C2790 1.366 . S
C2790 C2789 1.366 . S
C2790 C2791 1.414 . S
C2790 C2793 1.499 . S
C2791 H2765 0.950 . S
C2791 C2790 1.414 . S
C2791 C2792 1.374 . S
C2792 H2766 0.950 . S
C2792 C2788 1.385 . S
C2792 C2791 1.374 . S
C2793 C2790 1.499 . S
C2793 C2794 1.373 . S
C2793 C2795 1.389 . S
C2794 H2767 0.950 . S
C2794 C2780 1.377 . S
C2794 C2793 1.373 . S
C2795 C2779 1.377 . S
C2795 C2793 1.389 . S
C2795 C2796 1.524 . S
C2796 C2795 1.524 . S
C2796 C2797 1.397 . S
C2796 C2801 1.363 . S
C2797 H2768 0.950 . S
C2797 C2796 1.397 . S
C2797 C2798 1.334 . S
C2798 H2769 0.950 . S
C2798 C2797 1.334 . S
C2798 C2799 1.287 . S
C2799 C2798 1.287 . S
C2799 C2800 1.524 . S
C2799 H2802 0.999 . S
C2800 H2770 0.950 . S
C2800 C2799 1.524 . S
C2800 C2801 1.415 . S
C2801 H2771 0.950 . S
C2801 C2796 1.363 . S
C2801 C2800 1.415 . S
H2802 C2799 0.999 . S
H2803 C2784 0.913 . S
H2804 C2822 0.951 . S
H2805 C2824 0.951 . S
H2806 C2826 0.950 . S
H2807 C2827 0.950 . S
H2808 C2829 0.950 . S
H2809 C2832 0.950 . S
H2810 C2833 0.950 . S
H2811 C2835 0.950 . S
H2812 C2836 0.950 . S
H2813 C2837 0.951 . S
H2814 C2839 0.951 . S
H2815 C2841 0.950 . S
H2816 C2842 0.950 . S
H2817 C2844 0.950 . S
H2818 C2847 0.950 . S
H2819 C2848 0.950 . S
H2820 C2850 0.950 . S
H2821 C2851 0.950 . S
C2822 H2804 0.951 . S
C2822 C2823 1.366 . S
C2822 C2824 1.388 . S
C2823 C2822 1.366 . S
C2823 C2827 1.385 . S
C2824 H2805 0.951 . S
C2824 C2822 1.388 . S
C2824 C2825 1.366 . S
C2825 C2824 1.366 . S
C2825 C2826 1.414 . S
C2825 C2828 1.499 . S
C2826 H2806 0.950 . S
C2826 C2825 1.414 . S
C2826 C2827 1.374 . S
C2827 H2807 0.950 . S
C2827 C2823 1.385 . S
C2827 C2826 1.374 . S
C2828 C2825 1.499 . S
C2828 C2829 1.373 . S
C2828 C2830 1.389 . S
C2829 H2808 0.950 . S
C2829 C2828 1.373 . S
C2829 C2845 1.377 . S
C2830 C2828 1.389 . S
C2830 C2831 1.524 . S
C2830 C2844 1.377 . S
C2831 C2830 1.524 . S
C2831 C2832 1.397 . S
C2831 C2836 1.363 . S
C2832 H2809 0.950 . S
C2832 C2831 1.397 . S
C2832 C2833 1.334 . S
C2833 H2810 0.950 . S
C2833 C2832 1.334 . S
C2833 C2834 1.287 . S
C2834 C2833 1.287 . S
C2834 C2835 1.524 . S
C2834 H2853 0.913 . S
C2835 H2811 0.950 . S
C2835 C2834 1.524 . S
C2835 C2836 1.415 . S
C2836 H2812 0.950 . S
C2836 C2831 1.363 . S
C2836 C2835 1.415 . S
C2837 H2813 0.951 . S
C2837 C2838 1.366 . S
C2837 C2839 1.388 . S
C2838 C2837 1.366 . S
C2838 C2842 1.385 . S
C2839 H2814 0.951 . S
C2839 C2837 1.388 . S
C2839 C2840 1.366 . S
C2840 C2839 1.366 . S
C2840 C2841 1.414 . S
C2840 C2843 1.499 . S
C2841 H2815 0.950 . S
C2841 C2840 1.414 . S
C2841 C2842 1.374 . S
C2842 H2816 0.950 . S
C2842 C2838 1.385 . S
C2842 C2841 1.374 . S
C2843 C2840 1.499 . S
C2843 C2844 1.373 . S
C2843 C2845 1.389 . S
C2844 H2817 0.950 . S
C2844 C2830 1.377 . S
C2844 C2843 1.373 . S
C2845 C2829 1.377 . S
C2845 C2843 1.389 . S
C2845 C2846 1.524 . S
C2846 C2845 1.524 . S
C2846 C2847 1.397 . S
C2846 C2851 1.363 . S
C2847 H2818 0.950 . S
C2847 C2846 1.397 . S
C2847 C2848 1.334 . S
C2848 H2819 0.950 . S
C2848 C2847 1.334 . S
C2848 C2849 1.287 . S
C2849 C2848 1.287 . S
C2849 C2850 1.524 . S
C2849 H2852 0.999 . S
C2850 H2820 0.950 . S
C2850 C2849 1.524 . S
C2850 C2851 1.415 . S
C2851 H2821 0.950 . S
C2851 C2846 1.363 . S
C2851 C2850 1.415 . S
H2852 C2849 0.999 . S
H2853 C2834 0.913 . S
H2854 C2872 0.951 . S
H2855 C2874 0.951 . S
H2856 C2876 0.950 . S
H2857 C2877 0.950 . S
H2858 C2879 0.950 . S
H2859 C2882 0.950 . S
H2860 C2883 0.950 . S
H2861 C2885 0.950 . S
H2862 C2886 0.950 . S
H2863 C2887 0.951 . S
H2864 C2889 0.951 . S
H2865 C2891 0.950 . S
H2866 C2892 0.950 . S
H2867 C2894 0.950 . S
H2868 C2897 0.950 . S
H2869 C2898 0.950 . S
H2870 C2900 0.950 . S
H2871 C2901 0.950 . S
C2872 H2854 0.951 . S
C2872 C2873 1.366 . S
C2872 C2874 1.388 . S
C2873 C2872 1.366 . S
C2873 C2877 1.385 . S
C2874 H2855 0.951 . S
C2874 C2872 1.388 . S
C2874 C2875 1.366 . S
C2875 C2874 1.366 . S
C2875 C2876 1.414 . S
C2875 C2878 1.499 . S
C2876 H2856 0.950 . S
C2876 C2875 1.414 . S
C2876 C2877 1.374 . S
C2877 H2857 0.950 . S
C2877 C2873 1.385 . S
C2877 C2876 1.374 . S
C2878 C2875 1.499 . S
C2878 C2879 1.373 . S
C2878 C2880 1.389 . S
C2879 H2858 0.950 . S
C2879 C2878 1.373 . S
C2879 C2895 1.377 . S
C2880 C2878 1.389 . S
C2880 C2881 1.524 . S
C2880 C2894 1.377 . S
C2881 C2880 1.524 . S
C2881 C2882 1.397 . S
C2881 C2886 1.363 . S
C2882 H2859 0.950 . S
C2882 C2881 1.397 . S
C2882 C2883 1.334 . S
C2883 H2860 0.950 . S
C2883 C2882 1.334 . S
C2883 C2884 1.287 . S
C2884 C2883 1.287 . S
C2884 C2885 1.524 . S
C2884 H2903 0.913 . S
C2885 H2861 0.950 . S
C2885 C2884 1.524 . S
C2885 C2886 1.415 . S
C2886 H2862 0.950 . S
C2886 C2881 1.363 . S
C2886 C2885 1.415 . S
C2887 H2863 0.951 . S
C2887 C2888 1.366 . S
C2887 C2889 1.388 . S
C2888 C2887 1.366 . S
C2888 C2892 1.385 . S
C2889 H2864 0.951 . S
C2889 C2887 1.388 . S
C2889 C2890 1.366 . S
C2890 C2889 1.366 . S
C2890 C2891 1.414 . S
C2890 C2893 1.499 . S
C2891 H2865 0.950 . S
C2891 C2890 1.414 . S
C2891 C2892 1.374 . S
C2892 H2866 0.950 . S
C2892 C2888 1.385 . S
C2892 C2891 1.374 . S
C2893 C2890 1.499 . S
C2893 C2894 1.373 . S
C2893 C2895 1.389 . S
C2894 H2867 0.950 . S
C2894 C2880 1.377 . S
C2894 C2893 1.373 . S
C2895 C2879 1.377 . S
C2895 C2893 1.389 . S
C2895 C2896 1.524 . S
C2896 C2895 1.524 . S
C2896 C2897 1.397 . S
C2896 C2901 1.363 . S
C2897 H2868 0.950 . S
C2897 C2896 1.397 . S
C2897 C2898 1.334 . S
C2898 H2869 0.950 . S
C2898 C2897 1.334 . S
C2898 C2899 1.287 . S
C2899 C2898 1.287 . S
C2899 C2900 1.524 . S
C2899 H2902 0.999 . S
C2900 H2870 0.950 . S
C2900 C2899 1.524 . S
C2900 C2901 1.415 . S
C2901 H2871 0.950 . S
C2901 C2896 1.363 . S
C2901 C2900 1.415 . S
H2902 C2899 0.999 . S
H2903 C2884 0.913 . S
H2904 C2922 0.951 . S
H2905 C2924 0.998 . S
H2906 C2926 0.950 . S
H2907 C2927 0.950 . S
H2908 C2929 0.950 . S
H2909 C2932 0.950 . S
H2910 C2933 0.950 . S
H2911 C2935 0.950 1_655 S
H2912 C2936 1.051 . S
H2913 C2937 0.951 . S
H2914 C2939 0.996 . S
H2915 C2941 0.950 . S
H2916 C2942 0.950 . S
H2917 C2944 0.950 . S
H2918 C2947 0.950 . S
H2919 C2948 0.950 . S
H2920 C2950 0.950 1_455 S
H2921 C2951 1.054 . S
C2922 H2904 0.951 . S
C2922 C2923 1.366 . S
C2922 C2924 1.388 . S
C2923 C2922 1.366 . S
C2923 C2927 1.385 . S
C2924 H2905 0.998 . S
C2924 C2922 1.388 . S
C2924 C2925 1.366 . S
C2925 C2924 1.366 . S
C2925 C2926 1.414 . S
C2925 C2928 1.499 . S
C2926 H2906 0.950 . S
C2926 C2925 1.414 . S
C2926 C2927 1.374 . S
C2927 H2907 0.950 . S
C2927 C2923 1.385 . S
C2927 C2926 1.374 . S
C2928 C2925 1.499 . S
C2928 C2929 1.373 . S
C2928 C2930 1.389 . S
C2929 H2908 0.950 . S
C2929 C2928 1.373 . S
C2929 C2945 1.377 1_455 S
C2930 C2928 1.389 . S
C2930 C2931 1.524 . S
C2930 C2944 1.377 1_455 S
C2931 C2930 1.524 . S
C2931 C2932 1.397 . S
C2931 C2936 1.346 1_455 S
C2932 H2909 0.950 . S
C2932 C2931 1.397 . S
C2932 C2933 1.334 . S
C2933 H2910 0.950 . S
C2933 C2932 1.334 . S
C2933 C2934 1.287 . S
C2934 C2933 1.287 . S
C2934 C2935 1.524 . S
C2934 H2953 0.913 . S
C2935 H2911 0.950 1_455 S
C2935 C2934 1.524 . S
C2935 C2936 1.340 1_455 S
C2936 H2912 1.051 . S
C2936 C2931 1.346 1_655 S
C2936 C2935 1.340 1_655 S
C2937 H2913 0.951 . S
C2937 C2938 1.366 . S
C2937 C2939 1.388 . S
C2938 C2937 1.366 . S
C2938 C2942 1.385 . S
C2939 H2914 0.996 . S
C2939 C2937 1.388 . S
C2939 C2940 1.366 . S
C2940 C2939 1.366 . S
C2940 C2941 1.414 . S
C2940 C2943 1.499 . S
C2941 H2915 0.950 . S
C2941 C2940 1.414 . S
C2941 C2942 1.374 . S
C2942 H2916 0.950 . S
C2942 C2938 1.385 . S
C2942 C2941 1.374 . S
C2943 C2940 1.499 . S
C2943 C2944 1.373 . S
C2943 C2945 1.389 . S
C2944 H2917 0.950 . S
C2944 C2930 1.377 1_655 S
C2944 C2943 1.373 . S
C2945 C2929 1.377 1_655 S
C2945 C2943 1.389 . S
C2945 C2946 1.524 . S
C2946 C2945 1.524 . S
C2946 C2947 1.397 . S
C2946 C2951 1.346 1_655 S
C2947 H2918 0.950 . S
C2947 C2946 1.397 . S
C2947 C2948 1.334 . S
C2948 H2919 0.950 . S
C2948 C2947 1.334 . S
C2948 C2949 1.287 . S
C2949 C2948 1.287 . S
C2949 C2950 1.524 . S
C2949 H2952 0.999 . S
C2950 H2920 0.950 1_655 S
C2950 C2949 1.524 . S
C2950 C2951 1.337 1_655 S
C2951 H2921 1.054 . S
C2951 C2946 1.346 1_455 S
C2951 C2950 1.337 1_455 S
H2952 C2949 0.999 . S
H2953 C2934 0.913 . S
H2954 C2972 0.951 . S
H2955 C2974 0.951 . S
H2956 C2976 0.950 . S
H2957 C2977 0.950 . S
H2958 C2979 0.950 . S
H2959 C2982 0.950 . S
H2960 C2983 0.950 . S
H2961 C2985 0.950 . S
H2962 C2986 0.950 . S
H2963 C2987 0.951 . S
H2964 C2989 0.951 . S
H2965 C2991 0.950 . S
H2966 C2992 0.950 . S
H2967 C2994 0.950 . S
H2968 C2997 0.950 . S
H2969 C2998 0.950 . S
H2970 C3000 0.950 . S
H2971 C3001 0.950 . S
C2972 H2954 0.951 . S
C2972 C2973 1.366 . S
C2972 C2974 1.388 . S
C2973 C2972 1.366 . S
C2973 C2977 1.385 . S
C2974 H2955 0.951 . S
C2974 C2972 1.388 . S
C2974 C2975 1.366 . S
C2975 C2974 1.366 . S
C2975 C2976 1.414 . S
C2975 C2978 1.499 . S
C2976 H2956 0.950 . S
C2976 C2975 1.414 . S
C2976 C2977 1.374 . S
C2977 H2957 0.950 . S
C2977 C2973 1.385 . S
C2977 C2976 1.374 . S
C2978 C2975 1.499 . S
C2978 C2979 1.373 . S
C2978 C2980 1.389 . S
C2979 H2958 0.950 . S
C2979 C2978 1.373 . S
C2979 C2995 1.377 . S
C2980 C2978 1.389 . S
C2980 C2981 1.524 . S
C2980 C2994 1.377 . S
C2981 C2980 1.524 . S
C2981 C2982 1.397 . S
C2981 C2986 1.363 . S
C2982 H2959 0.950 . S
C2982 C2981 1.397 . S
C2982 C2983 1.334 . S
C2983 H2960 0.950 . S
C2983 C2982 1.334 . S
C2983 C2984 1.287 . S
C2984 C2983 1.287 . S
C2984 C2985 1.524 . S
C2984 H3003 0.913 . S
C2985 H2961 0.950 . S
C2985 C2984 1.524 . S
C2985 C2986 1.415 . S
C2986 H2962 0.950 . S
C2986 C2981 1.363 . S
C2986 C2985 1.415 . S
C2987 H2963 0.951 . S
C2987 C2988 1.366 . S
C2987 C2989 1.388 . S
C2988 C2987 1.366 . S
C2988 C2992 1.385 . S
C2989 H2964 0.951 . S
C2989 C2987 1.388 . S
C2989 C2990 1.366 . S
C2990 C2989 1.366 . S
C2990 C2991 1.414 . S
C2990 C2993 1.499 . S
C2991 H2965 0.950 . S
C2991 C2990 1.414 . S
C2991 C2992 1.374 . S
C2992 H2966 0.950 . S
C2992 C2988 1.385 . S
C2992 C2991 1.374 . S
C2993 C2990 1.499 . S
C2993 C2994 1.373 . S
C2993 C2995 1.389 . S
C2994 H2967 0.950 . S
C2994 C2980 1.377 . S
C2994 C2993 1.373 . S
C2995 C2979 1.377 . S
C2995 C2993 1.389 . S
C2995 C2996 1.524 . S
C2996 C2995 1.524 . S
C2996 C2997 1.397 . S
C2996 C3001 1.363 . S
C2997 H2968 0.950 . S
C2997 C2996 1.397 . S
C2997 C2998 1.334 . S
C2998 H2969 0.950 . S
C2998 C2997 1.334 . S
C2998 C2999 1.287 . S
C2999 C2998 1.287 . S
C2999 C3000 1.524 . S
C2999 H3002 0.999 . S
C3000 H2970 0.950 . S
C3000 C2999 1.524 . S
C3000 C3001 1.415 . S
C3001 H2971 0.950 . S
C3001 C2996 1.363 . S
C3001 C3000 1.415 . S
H3002 C2999 0.999 . S
H3003 C2984 0.913 . S
H3004 C3022 0.951 . S
H3005 C3024 0.951 . S
H3006 C3026 0.950 1_545 S
H3007 C3027 0.950 . S
H3008 C3029 0.957 1_545 S
H3009 C3032 0.950 1_545 S
H3010 C3033 0.950 . S
H3011 C3035 0.950 . S
H3012 C3036 0.950 . S
H3013 C3037 0.951 . S
H3014 C3039 0.951 . S
H3015 C3041 0.950 1_565 S
H3016 C3042 0.950 . S
H3017 C3044 0.957 1_565 S
H3018 C3047 0.950 1_565 S
H3019 C3048 0.950 . S
H3020 C3050 0.950 . S
H3021 C3051 0.950 . S
C3022 H3004 0.951 . S
C3022 C3023 1.366 . S
C3022 C3024 1.388 . S
C3023 C3022 1.366 . S
C3023 C3027 1.385 . S
C3024 H3005 0.951 . S
C3024 C3022 1.388 . S
C3024 C3025 1.366 . S
C3025 C3024 1.366 . S
C3025 C3026 1.414 . S
C3025 C3028 1.499 . S
C3026 H3006 0.950 1_565 S
C3026 C3025 1.414 . S
C3026 C3027 1.374 . S
C3027 H3007 0.950 . S
C3027 C3023 1.385 . S
C3027 C3026 1.374 . S
C3028 C3025 1.499 . S
C3028 C3029 1.364 . S
C3028 C3030 1.389 . S
C3029 H3008 0.957 1_565 S
C3029 C3028 1.364 . S
C3029 C3045 1.381 1_565 S
C3030 C3028 1.389 . S
C3030 C3031 1.524 . S
C3030 C3044 1.379 1_565 S
C3031 C3030 1.524 . S
C3031 C3032 1.397 . S
C3031 C3036 1.363 . S
C3032 H3009 0.950 1_565 S
C3032 C3031 1.397 . S
C3032 C3033 1.334 . S
C3033 H3010 0.950 . S
C3033 C3032 1.334 . S
C3033 C3034 1.287 . S
C3034 C3033 1.287 . S
C3034 C3035 1.524 . S
C3034 H3053 0.913 . S
C3035 H3011 0.950 . S
C3035 C3034 1.524 . S
C3035 C3036 1.415 . S
C3036 H3012 0.950 . S
C3036 C3031 1.363 . S
C3036 C3035 1.415 . S
C3037 H3013 0.951 . S
C3037 C3038 1.366 . S
C3037 C3039 1.388 . S
C3038 C3037 1.366 . S
C3038 C3042 1.385 . S
C3039 H3014 0.951 . S
C3039 C3037 1.388 . S
C3039 C3040 1.366 . S
C3040 C3039 1.366 . S
C3040 C3041 1.414 . S
C3040 C3043 1.499 . S
C3041 H3015 0.950 1_545 S
C3041 C3040 1.414 . S
C3041 C3042 1.374 . S
C3042 H3016 0.950 . S
C3042 C3038 1.385 . S
C3042 C3041 1.374 . S
C3043 C3040 1.499 . S
C3043 C3044 1.368 . S
C3043 C3045 1.389 . S
C3044 H3017 0.957 1_545 S
C3044 C3030 1.379 1_545 S
C3044 C3043 1.368 . S
C3045 C3029 1.381 1_545 S
C3045 C3043 1.389 . S
C3045 C3046 1.524 . S
C3046 C3045 1.524 . S
C3046 C3047 1.397 . S
C3046 C3051 1.363 . S
C3047 H3018 0.950 1_545 S
C3047 C3046 1.397 . S
C3047 C3048 1.334 . S
C3048 H3019 0.950 . S
C3048 C3047 1.334 . S
C3048 C3049 1.287 . S
C3049 C3048 1.287 . S
C3049 C3050 1.524 . S
C3049 H3052 0.999 . S
C3050 H3020 0.950 . S
C3050 C3049 1.524 . S
C3050 C3051 1.415 . S
C3051 H3021 0.950 . S
C3051 C3046 1.363 . S
C3051 C3050 1.415 . S
H3052 C3049 0.999 . S
H3053 C3034 0.913 . S
H3054 C3072 0.951 . S
H3055 C3074 0.951 . S
H3056 C3076 0.950 1_545 S
H3057 C3077 0.950 . S
H3058 C3079 0.950 . S
H3059 C3082 0.950 . S
H3060 C3083 0.950 . S
H3061 C3085 0.950 . S
H3062 C3086 0.950 . S
H3063 C3087 0.951 . S
H3064 C3089 0.951 . S
H3065 C3091 0.950 1_565 S
H3066 C3092 0.950 . S
H3067 C3094 0.950 . S
H3068 C3097 0.950 . S
H3069 C3098 0.950 . S
H3070 C3100 0.950 . S
H3071 C3101 0.950 . S
C3072 H3054 0.951 . S
C3072 C3073 1.366 . S
C3072 C3074 1.388 . S
C3073 C3072 1.366 . S
C3073 C3077 1.385 . S
C3074 H3055 0.951 . S
C3074 C3072 1.388 . S
C3074 C3075 1.366 . S
C3075 C3074 1.366 . S
C3075 C3076 1.414 . S
C3075 C3078 1.499 . S
C3076 H3056 0.950 1_565 S
C3076 C3075 1.414 . S
C3076 C3077 1.374 . S
C3077 H3057 0.950 . S
C3077 C3073 1.385 . S
C3077 C3076 1.374 . S
C3078 C3075 1.499 . S
C3078 C3079 1.373 1_565 S
C3078 C3080 1.389 . S
C3079 H3058 0.950 . S
C3079 C3078 1.373 1_545 S
C3079 C3095 1.377 . S
C3080 C3078 1.389 . S
C3080 C3081 1.524 . S
C3080 C3094 1.377 . S
C3081 C3080 1.524 . S
C3081 C3082 1.397 . S
C3081 C3086 1.363 . S
C3082 H3059 0.950 . S
C3082 C3081 1.397 . S
C3082 C3083 1.334 . S
C3083 H3060 0.950 . S
C3083 C3082 1.334 . S
C3083 C3084 1.287 . S
C3084 C3083 1.287 . S
C3084 C3085 1.524 . S
C3084 H3103 0.913 . S
C3085 H3061 0.950 . S
C3085 C3084 1.524 . S
C3085 C3086 1.415 . S
C3086 H3062 0.950 . S
C3086 C3081 1.363 . S
C3086 C3085 1.415 . S
C3087 H3063 0.951 . S
C3087 C3088 1.366 . S
C3087 C3089 1.388 . S
C3088 C3087 1.366 . S
C3088 C3092 1.385 . S
C3089 H3064 0.951 . S
C3089 C3087 1.388 . S
C3089 C3090 1.366 . S
C3090 C3089 1.366 . S
C3090 C3091 1.414 . S
C3090 C3093 1.499 . S
C3091 H3065 0.950 1_545 S
C3091 C3090 1.414 . S
C3091 C3092 1.374 . S
C3092 H3066 0.950 . S
C3092 C3088 1.385 . S
C3092 C3091 1.374 . S
C3093 C3090 1.499 . S
C3093 C3094 1.373 1_545 S
C3093 C3095 1.389 . S
C3094 H3067 0.950 . S
C3094 C3080 1.377 . S
C3094 C3093 1.373 1_565 S
C3095 C3079 1.377 . S
C3095 C3093 1.389 . S
C3095 C3096 1.524 . S
C3096 C3095 1.524 . S
C3096 C3097 1.397 . S
C3096 C3101 1.363 . S
C3097 H3068 0.950 . S
C3097 C3096 1.397 . S
C3097 C3098 1.334 . S
C3098 H3069 0.950 . S
C3098 C3097 1.334 . S
C3098 C3099 1.287 . S
C3099 C3098 1.287 . S
C3099 C3100 1.524 . S
C3099 H3102 0.999 . S
C3100 H3070 0.950 . S
C3100 C3099 1.524 . S
C3100 C3101 1.415 . S
C3101 H3071 0.950 . S
C3101 C3096 1.363 . S
C3101 C3100 1.415 . S
H3102 C3099 0.999 . S
H3103 C3084 0.913 . S
H3104 C3122 0.951 . S
H3105 C3124 0.951 . S
H3106 C3126 0.950 . S
H3107 C3127 0.950 . S
H3108 C3129 1.011 . S
H3109 C3132 0.950 . S
H3110 C3133 0.950 . S
H3111 C3135 0.950 . S
H3112 C3136 0.950 1_455 S
H3113 C3137 0.951 . S
H3114 C3139 0.951 . S
H3115 C3141 0.950 . S
H3116 C3142 0.950 . S
H3117 C3144 1.010 . S
H3118 C3147 0.950 . S
H3119 C3148 0.950 . S
H3120 C3150 0.950 . S
H3121 C3151 0.950 1_655 S
C3122 H3104 0.951 . S
C3122 C3123 1.366 . S
C3122 C3124 1.388 . S
C3123 C3122 1.366 . S
C3123 C3127 1.385 . S
C3124 H3105 0.951 . S
C3124 C3122 1.388 . S
C3124 C3125 1.366 . S
C3125 C3124 1.366 . S
C3125 C3126 1.414 . S
C3125 C3128 1.499 . S
C3126 H3106 0.950 . S
C3126 C3125 1.414 . S
C3126 C3127 1.374 . S
C3127 H3107 0.950 . S
C3127 C3123 1.385 . S
C3127 C3126 1.374 . S
C3128 C3125 1.499 . S
C3128 C3129 1.373 . S
C3128 C3130 1.389 . S
C3129 H3108 1.011 . S
C3129 C3128 1.373 . S
C3129 C3145 1.330 1_655 S
C3130 C3128 1.389 . S
C3130 C3131 1.524 . S
C3130 C3144 1.331 1_655 S
C3131 C3130 1.524 . S
C3131 C3132 1.397 . S
C3131 C3136 1.363 . S
C3132 H3109 0.950 . S
C3132 C3131 1.397 . S
C3132 C3133 1.334 . S
C3133 H3110 0.950 . S
C3133 C3132 1.334 . S
C3133 C3134 1.287 . S
C3134 C3133 1.287 . S
C3134 C3135 1.524 . S
C3134 H3153 0.913 . S
C3135 H3111 0.950 . S
C3135 C3134 1.524 . S
C3135 C3136 1.415 . S
C3136 H3112 0.950 1_655 S
C3136 C3131 1.363 . S
C3136 C3135 1.415 . S
C3137 H3113 0.951 . S
C3137 C3138 1.366 . S
C3137 C3139 1.388 . S
C3138 C3137 1.366 . S
C3138 C3142 1.385 . S
C3139 H3114 0.951 . S
C3139 C3137 1.388 . S
C3139 C3140 1.366 . S
C3140 C3139 1.366 . S
C3140 C3141 1.414 . S
C3140 C3143 1.499 . S
C3141 H3115 0.950 . S
C3141 C3140 1.414 . S
C3141 C3142 1.374 . S
C3142 H3116 0.950 . S
C3142 C3138 1.385 . S
C3142 C3141 1.374 . S
C3143 C3140 1.499 . S
C3143 C3144 1.373 . S
C3143 C3145 1.389 . S
C3144 H3117 1.010 . S
C3144 C3130 1.331 1_455 S
C3144 C3143 1.373 . S
C3145 C3129 1.330 1_455 S
C3145 C3143 1.389 . S
C3145 C3146 1.524 . S
C3146 C3145 1.524 . S
C3146 C3147 1.397 . S
C3146 C3151 1.363 . S
C3147 H3118 0.950 . S
C3147 C3146 1.397 . S
C3147 C3148 1.334 . S
C3148 H3119 0.950 . S
C3148 C3147 1.334 . S
C3148 C3149 1.287 . S
C3149 C3148 1.287 . S
C3149 C3150 1.524 . S
C3149 H3152 0.999 . S
C3150 H3120 0.950 . S
C3150 C3149 1.524 . S
C3150 C3151 1.415 . S
C3151 H3121 0.950 1_455 S
C3151 C3146 1.363 . S
C3151 C3150 1.415 . S
H3152 C3149 0.999 . S
H3153 C3134 0.913 . S
H3154 C3172 0.951 . S
H3155 C3174 0.951 . S
H3156 C3176 0.950 . S
H3157 C3177 0.950 . S
H3158 C3179 0.950 . S
H3159 C3182 0.950 . S
H3160 C3183 0.950 . S
H3161 C3185 0.950 . S
H3162 C3186 0.950 . S
H3163 C3187 0.951 . S
H3164 C3189 0.951 . S
H3165 C3191 0.950 . S
H3166 C3192 0.950 . S
H3167 C3194 0.950 . S
H3168 C3197 0.950 . S
H3169 C3198 0.950 . S
H3170 C3200 0.950 . S
H3171 C3201 0.950 . S
C3172 H3154 0.951 . S
C3172 C3173 1.366 . S
C3172 C3174 1.388 . S
C3173 C3172 1.366 . S
C3173 C3177 1.385 . S
C3174 H3155 0.951 . S
C3174 C3172 1.388 . S
C3174 C3175 1.366 . S
C3175 C3174 1.366 . S
C3175 C3176 1.414 . S
C3175 C3178 1.499 . S
C3176 H3156 0.950 . S
C3176 C3175 1.414 . S
C3176 C3177 1.374 . S
C3177 H3157 0.950 . S
C3177 C3173 1.385 . S
C3177 C3176 1.374 . S
C3178 C3175 1.499 . S
C3178 C3179 1.373 . S
C3178 C3180 1.389 . S
C3179 H3158 0.950 . S
C3179 C3178 1.373 . S
C3179 C3195 1.377 . S
C3180 C3178 1.389 . S
C3180 C3181 1.524 . S
C3180 C3194 1.377 . S
C3181 C3180 1.524 . S
C3181 C3182 1.397 . S
C3181 C3186 1.363 . S
C3182 H3159 0.950 . S
C3182 C3181 1.397 . S
C3182 C3183 1.334 . S
C3183 H3160 0.950 . S
C3183 C3182 1.334 . S
C3183 C3184 1.287 . S
C3184 C3183 1.287 . S
C3184 C3185 1.524 . S
C3184 H3203 0.913 . S
C3185 H3161 0.950 . S
C3185 C3184 1.524 . S
C3185 C3186 1.415 . S
C3186 H3162 0.950 . S
C3186 C3181 1.363 . S
C3186 C3185 1.415 . S
C3187 H3163 0.951 . S
C3187 C3188 1.366 . S
C3187 C3189 1.388 . S
C3188 C3187 1.366 . S
C3188 C3192 1.385 . S
C3189 H3164 0.951 . S
C3189 C3187 1.388 . S
C3189 C3190 1.366 . S
C3190 C3189 1.366 . S
C3190 C3191 1.414 . S
C3190 C3193 1.499 . S
C3191 H3165 0.950 . S
C3191 C3190 1.414 . S
C3191 C3192 1.374 . S
C3192 H3166 0.950 . S
C3192 C3188 1.385 . S
C3192 C3191 1.374 . S
C3193 C3190 1.499 . S
C3193 C3194 1.373 . S
C3193 C3195 1.389 . S
C3194 H3167 0.950 . S
C3194 C3180 1.377 . S
C3194 C3193 1.373 . S
C3195 C3179 1.377 . S
C3195 C3193 1.389 . S
C3195 C3196 1.524 . S
C3196 C3195 1.524 . S
C3196 C3197 1.397 . S
C3196 C3201 1.363 . S
C3197 H3168 0.950 . S
C3197 C3196 1.397 . S
C3197 C3198 1.334 . S
C3198 H3169 0.950 . S
C3198 C3197 1.334 . S
C3198 C3199 1.287 . S
C3199 C3198 1.287 . S
C3199 C3200 1.524 . S
C3199 H3202 0.999 . S
C3200 H3170 0.950 . S
C3200 C3199 1.524 . S
C3200 C3201 1.415 . S
C3201 H3171 0.950 . S
C3201 C3196 1.363 . S
C3201 C3200 1.415 . S
H3202 C3199 0.999 . S
H3203 C3184 0.913 . S
H3204 C3222 0.951 . S
H3205 C3224 0.951 . S
H3206 C3226 0.950 . S
H3207 C3227 0.950 . S
H3208 C3229 0.950 . S
H3209 C3232 0.950 . S
H3210 C3233 0.950 . S
H3211 C3235 0.950 . S
H3212 C3236 0.950 . S
H3213 C3237 0.951 . S
H3214 C3239 0.951 . S
H3215 C3241 0.950 . S
H3216 C3242 0.950 . S
H3217 C3244 0.950 . S
H3218 C3247 0.950 . S
H3219 C3248 0.950 . S
H3220 C3250 0.950 . S
H3221 C3251 0.950 . S
C3222 H3204 0.951 . S
C3222 C3223 1.366 . S
C3222 C3224 1.388 . S
C3223 C3222 1.366 . S
C3223 C3227 1.385 . S
C3224 H3205 0.951 . S
C3224 C3222 1.388 . S
C3224 C3225 1.366 . S
C3225 C3224 1.366 . S
C3225 C3226 1.414 . S
C3225 C3228 1.499 . S
C3226 H3206 0.950 . S
C3226 C3225 1.414 . S
C3226 C3227 1.374 . S
C3227 H3207 0.950 . S
C3227 C3223 1.385 . S
C3227 C3226 1.374 . S
C3228 C3225 1.499 . S
C3228 C3229 1.373 . S
C3228 C3230 1.389 . S
C3229 H3208 0.950 . S
C3229 C3228 1.373 . S
C3229 C3245 1.377 . S
C3230 C3228 1.389 . S
C3230 C3231 1.524 . S
C3230 C3244 1.377 . S
C3231 C3230 1.524 . S
C3231 C3232 1.397 . S
C3231 C3236 1.363 . S
C3232 H3209 0.950 . S
C3232 C3231 1.397 . S
C3232 C3233 1.334 . S
C3233 H3210 0.950 . S
C3233 C3232 1.334 . S
C3233 C3234 1.287 . S
C3234 C3233 1.287 . S
C3234 C3235 1.524 . S
C3234 H3253 0.913 . S
C3235 H3211 0.950 . S
C3235 C3234 1.524 . S
C3235 C3236 1.415 . S
C3236 H3212 0.950 . S
C3236 C3231 1.363 . S
C3236 C3235 1.415 . S
C3237 H3213 0.951 . S
C3237 C3238 1.366 . S
C3237 C3239 1.388 . S
C3238 C3237 1.366 . S
C3238 C3242 1.385 . S
C3239 H3214 0.951 . S
C3239 C3237 1.388 . S
C3239 C3240 1.366 . S
C3240 C3239 1.366 . S
C3240 C3241 1.414 . S
C3240 C3243 1.499 . S
C3241 H3215 0.950 . S
C3241 C3240 1.414 . S
C3241 C3242 1.374 . S
C3242 H3216 0.950 . S
C3242 C3238 1.385 . S
C3242 C3241 1.374 . S
C3243 C3240 1.499 . S
C3243 C3244 1.373 . S
C3243 C3245 1.389 . S
C3244 H3217 0.950 . S
C3244 C3230 1.377 . S
C3244 C3243 1.373 . S
C3245 C3229 1.377 . S
C3245 C3243 1.389 . S
C3245 C3246 1.524 . S
C3246 C3245 1.524 . S
C3246 C3247 1.397 . S
C3246 C3251 1.363 . S
C3247 H3218 0.950 . S
C3247 C3246 1.397 . S
C3247 C3248 1.334 . S
C3248 H3219 0.950 . S
C3248 C3247 1.334 . S
C3248 C3249 1.287 . S
C3249 C3248 1.287 . S
C3249 C3250 1.524 . S
C3249 H3252 0.999 . S
C3250 H3220 0.950 . S
C3250 C3249 1.524 . S
C3250 C3251 1.415 . S
C3251 H3221 0.950 . S
C3251 C3246 1.363 . S
C3251 C3250 1.415 . S
H3252 C3249 0.999 . S
H3253 C3234 0.913 . S
H3254 C3272 0.951 . S
H3255 C3274 0.951 . S
H3256 C3276 0.950 . S
H3257 C3277 0.950 . S
H3258 C3279 0.950 . S
H3259 C3282 0.950 . S
H3260 C3283 0.950 . S
H3261 C3285 0.950 . S
H3262 C3286 0.950 . S
H3263 C3287 0.951 . S
H3264 C3289 0.951 . S
H3265 C3291 0.950 . S
H3266 C3292 0.950 . S
H3267 C3294 0.950 . S
H3268 C3297 0.950 . S
H3269 C3298 0.950 . S
H3270 C3300 0.950 . S
H3271 C3301 0.950 . S
C3272 H3254 0.951 . S
C3272 C3273 1.366 . S
C3272 C3274 1.388 . S
C3273 C3272 1.366 . S
C3273 C3277 1.385 . S
C3274 H3255 0.951 . S
C3274 C3272 1.388 . S
C3274 C3275 1.366 . S
C3275 C3274 1.366 . S
C3275 C3276 1.414 . S
C3275 C3278 1.499 . S
C3276 H3256 0.950 . S
C3276 C3275 1.414 . S
C3276 C3277 1.374 . S
C3277 H3257 0.950 . S
C3277 C3273 1.385 . S
C3277 C3276 1.374 . S
C3278 C3275 1.499 . S
C3278 C3279 1.373 . S
C3278 C3280 1.389 . S
C3279 H3258 0.950 . S
C3279 C3278 1.373 . S
C3279 C3295 1.377 . S
C3280 C3278 1.389 . S
C3280 C3281 1.524 . S
C3280 C3294 1.377 . S
C3281 C3280 1.524 . S
C3281 C3282 1.397 . S
C3281 C3286 1.363 . S
C3282 H3259 0.950 . S
C3282 C3281 1.397 . S
C3282 C3283 1.334 . S
C3283 H3260 0.950 . S
C3283 C3282 1.334 . S
C3283 C3284 1.287 . S
C3284 C3283 1.287 . S
C3284 C3285 1.524 . S
C3284 H3303 0.913 . S
C3285 H3261 0.950 . S
C3285 C3284 1.524 . S
C3285 C3286 1.415 . S
C3286 H3262 0.950 . S
C3286 C3281 1.363 . S
C3286 C3285 1.415 . S
C3287 H3263 0.951 . S
C3287 C3288 1.366 . S
C3287 C3289 1.388 . S
C3288 C3287 1.366 . S
C3288 C3292 1.385 . S
C3289 H3264 0.951 . S
C3289 C3287 1.388 . S
C3289 C3290 1.366 . S
C3290 C3289 1.366 . S
C3290 C3291 1.414 . S
C3290 C3293 1.499 . S
C3291 H3265 0.950 . S
C3291 C3290 1.414 . S
C3291 C3292 1.374 . S
C3292 H3266 0.950 . S
C3292 C3288 1.385 . S
C3292 C3291 1.374 . S
C3293 C3290 1.499 . S
C3293 C3294 1.373 . S
C3293 C3295 1.389 . S
C3294 H3267 0.950 . S
C3294 C3280 1.377 . S
C3294 C3293 1.373 . S
C3295 C3279 1.377 . S
C3295 C3293 1.389 . S
C3295 C3296 1.524 . S
C3296 C3295 1.524 . S
C3296 C3297 1.397 . S
C3296 C3301 1.363 . S
C3297 H3268 0.950 . S
C3297 C3296 1.397 . S
C3297 C3298 1.334 . S
C3298 H3269 0.950 . S
C3298 C3297 1.334 . S
C3298 C3299 1.287 . S
C3299 C3298 1.287 . S
C3299 C3300 1.524 . S
C3299 H3302 0.999 . S
C3300 H3270 0.950 . S
C3300 C3299 1.524 . S
C3300 C3301 1.415 . S
C3301 H3271 0.950 . S
C3301 C3296 1.363 . S
C3301 C3300 1.415 . S
H3302 C3299 0.999 . S
H3303 C3284 0.913 . S
H3304 C3322 0.951 . S
H3305 C3324 0.951 . S
H3306 C3326 0.950 . S
H3307 C3327 0.950 . S
H3308 C3329 0.950 . S
H3309 C3332 0.950 . S
H3310 C3333 0.950 . S
H3311 C3335 0.950 . S
H3312 C3336 0.950 . S
H3313 C3337 0.951 . S
H3314 C3339 0.951 . S
H3315 C3341 0.950 . S
H3316 C3342 0.950 . S
H3317 C3344 0.950 . S
H3318 C3347 0.950 . S
H3319 C3348 0.950 . S
H3320 C3350 0.950 . S
H3321 C3351 0.950 . S
C3322 H3304 0.951 . S
C3322 C3323 1.366 . S
C3322 C3324 1.388 . S
C3323 C3322 1.366 . S
C3323 C3327 1.385 . S
C3324 H3305 0.951 . S
C3324 C3322 1.388 . S
C3324 C3325 1.366 . S
C3325 C3324 1.366 . S
C3325 C3326 1.414 . S
C3325 C3328 1.499 . S
C3326 H3306 0.950 . S
C3326 C3325 1.414 . S
C3326 C3327 1.374 . S
C3327 H3307 0.950 . S
C3327 C3323 1.385 . S
C3327 C3326 1.374 . S
C3328 C3325 1.499 . S
C3328 C3329 1.373 . S
C3328 C3330 1.389 . S
C3329 H3308 0.950 . S
C3329 C3328 1.373 . S
C3329 C3345 1.377 . S
C3330 C3328 1.389 . S
C3330 C3331 1.524 . S
C3330 C3344 1.377 . S
C3331 C3330 1.524 . S
C3331 C3332 1.397 . S
C3331 C3336 1.363 . S
C3332 H3309 0.950 . S
C3332 C3331 1.397 . S
C3332 C3333 1.334 . S
C3333 H3310 0.950 . S
C3333 C3332 1.334 . S
C3333 C3334 1.287 . S
C3334 C3333 1.287 . S
C3334 C3335 1.524 . S
C3334 H3353 0.913 . S
C3335 H3311 0.950 . S
C3335 C3334 1.524 . S
C3335 C3336 1.415 . S
C3336 H3312 0.950 . S
C3336 C3331 1.363 . S
C3336 C3335 1.415 . S
C3337 H3313 0.951 . S
C3337 C3338 1.366 . S
C3337 C3339 1.388 . S
C3338 C3337 1.366 . S
C3338 C3342 1.385 . S
C3339 H3314 0.951 . S
C3339 C3337 1.388 . S
C3339 C3340 1.366 . S
C3340 C3339 1.366 . S
C3340 C3341 1.414 . S
C3340 C3343 1.499 . S
C3341 H3315 0.950 . S
C3341 C3340 1.414 . S
C3341 C3342 1.374 . S
C3342 H3316 0.950 . S
C3342 C3338 1.385 . S
C3342 C3341 1.374 . S
C3343 C3340 1.499 . S
C3343 C3344 1.373 . S
C3343 C3345 1.389 . S
C3344 H3317 0.950 . S
C3344 C3330 1.377 . S
C3344 C3343 1.373 . S
C3345 C3329 1.377 . S
C3345 C3343 1.389 . S
C3345 C3346 1.524 . S
C3346 C3345 1.524 . S
C3346 C3347 1.397 . S
C3346 C3351 1.363 . S
C3347 H3318 0.950 . S
C3347 C3346 1.397 . S
C3347 C3348 1.334 . S
C3348 H3319 0.950 . S
C3348 C3347 1.334 . S
C3348 C3349 1.287 . S
C3349 C3348 1.287 . S
C3349 C3350 1.524 . S
C3349 H3352 0.999 . S
C3350 H3320 0.950 . S
C3350 C3349 1.524 . S
C3350 C3351 1.415 . S
C3351 H3321 0.950 . S
C3351 C3346 1.363 . S
C3351 C3350 1.415 . S
H3352 C3349 0.999 . S
H3353 C3334 0.913 . S
H3354 C3372 0.951 . S
H3355 C3374 0.951 . S
H3356 C3376 0.950 . S
H3357 C3377 0.950 . S
H3358 C3379 0.950 . S
H3359 C3382 0.950 . S
H3360 C3383 0.950 . S
H3361 C3385 0.950 . S
H3362 C3386 0.950 . S
H3363 C3387 0.951 . S
H3364 C3389 0.951 . S
H3365 C3391 0.950 . S
H3366 C3392 0.950 . S
H3367 C3394 0.950 . S
H3368 C3397 0.950 . S
H3369 C3398 0.950 . S
H3370 C3400 0.950 . S
H3371 C3401 0.950 . S
C3372 H3354 0.951 . S
C3372 C3373 1.366 . S
C3372 C3374 1.388 . S
C3373 C3372 1.366 . S
C3373 C3377 1.385 . S
C3374 H3355 0.951 . S
C3374 C3372 1.388 . S
C3374 C3375 1.366 . S
C3375 C3374 1.366 . S
C3375 C3376 1.414 . S
C3375 C3378 1.499 . S
C3376 H3356 0.950 . S
C3376 C3375 1.414 . S
C3376 C3377 1.374 . S
C3377 H3357 0.950 . S
C3377 C3373 1.385 . S
C3377 C3376 1.374 . S
C3378 C3375 1.499 . S
C3378 C3379 1.373 . S
C3378 C3380 1.389 . S
C3379 H3358 0.950 . S
C3379 C3378 1.373 . S
C3379 C3395 1.377 . S
C3380 C3378 1.389 . S
C3380 C3381 1.524 . S
C3380 C3394 1.377 . S
C3381 C3380 1.524 . S
C3381 C3382 1.397 . S
C3381 C3386 1.363 . S
C3382 H3359 0.950 . S
C3382 C3381 1.397 . S
C3382 C3383 1.334 . S
C3383 H3360 0.950 . S
C3383 C3382 1.334 . S
C3383 C3384 1.287 . S
C3384 C3383 1.287 . S
C3384 C3385 1.524 . S
C3384 H3403 0.913 . S
C3385 H3361 0.950 . S
C3385 C3384 1.524 . S
C3385 C3386 1.415 . S
C3386 H3362 0.950 . S
C3386 C3381 1.363 . S
C3386 C3385 1.415 . S
C3387 H3363 0.951 . S
C3387 C3388 1.366 . S
C3387 C3389 1.388 . S
C3388 C3387 1.366 . S
C3388 C3392 1.385 . S
C3389 H3364 0.951 . S
C3389 C3387 1.388 . S
C3389 C3390 1.366 . S
C3390 C3389 1.366 . S
C3390 C3391 1.414 . S
C3390 C3393 1.499 . S
C3391 H3365 0.950 . S
C3391 C3390 1.414 . S
C3391 C3392 1.374 . S
C3392 H3366 0.950 . S
C3392 C3388 1.385 . S
C3392 C3391 1.374 . S
C3393 C3390 1.499 . S
C3393 C3394 1.373 . S
C3393 C3395 1.389 . S
C3394 H3367 0.950 . S
C3394 C3380 1.377 . S
C3394 C3393 1.373 . S
C3395 C3379 1.377 . S
C3395 C3393 1.389 . S
C3395 C3396 1.524 . S
C3396 C3395 1.524 . S
C3396 C3397 1.397 . S
C3396 C3401 1.363 . S
C3397 H3368 0.950 . S
C3397 C3396 1.397 . S
C3397 C3398 1.334 . S
C3398 H3369 0.950 . S
C3398 C3397 1.334 . S
C3398 C3399 1.287 . S
C3399 C3398 1.287 . S
C3399 C3400 1.524 . S
C3399 H3402 0.999 . S
C3400 H3370 0.950 . S
C3400 C3399 1.524 . S
C3400 C3401 1.415 . S
C3401 H3371 0.950 . S
C3401 C3396 1.363 . S
C3401 C3400 1.415 . S
H3402 C3399 0.999 . S
H3403 C3384 0.913 . S
H3404 C3422 0.951 . S
H3405 C3424 0.951 . S
H3406 C3426 0.950 . S
H3407 C3427 0.950 . S
H3408 C3429 0.950 . S
H3409 C3432 0.950 . S
H3410 C3433 0.950 . S
H3411 C3435 0.950 . S
H3412 C3436 0.950 . S
H3413 C3437 0.951 . S
H3414 C3439 0.951 . S
H3415 C3441 0.950 . S
H3416 C3442 0.950 . S
H3417 C3444 0.950 . S
H3418 C3447 0.950 . S
H3419 C3448 0.950 . S
H3420 C3450 0.950 . S
H3421 C3451 0.950 . S
C3422 H3404 0.951 . S
C3422 C3423 1.366 . S
C3422 C3424 1.388 . S
C3423 C3422 1.366 . S
C3423 C3427 1.385 . S
C3424 H3405 0.951 . S
C3424 C3422 1.388 . S
C3424 C3425 1.366 . S
C3425 C3424 1.366 . S
C3425 C3426 1.414 . S
C3425 C3428 1.499 . S
C3426 H3406 0.950 . S
C3426 C3425 1.414 . S
C3426 C3427 1.374 . S
C3427 H3407 0.950 . S
C3427 C3423 1.385 . S
C3427 C3426 1.374 . S
C3428 C3425 1.499 . S
C3428 C3429 1.373 . S
C3428 C3430 1.389 . S
C3429 H3408 0.950 . S
C3429 C3428 1.373 . S
C3429 C3445 1.377 . S
C3430 C3428 1.389 . S
C3430 C3431 1.524 . S
C3430 C3444 1.377 . S
C3431 C3430 1.524 . S
C3431 C3432 1.397 . S
C3431 C3436 1.363 . S
C3432 H3409 0.950 . S
C3432 C3431 1.397 . S
C3432 C3433 1.334 . S
C3433 H3410 0.950 . S
C3433 C3432 1.334 . S
C3433 C3434 1.287 . S
C3434 C3433 1.287 . S
C3434 C3435 1.524 . S
C3434 H3453 0.913 . S
C3435 H3411 0.950 . S
C3435 C3434 1.524 . S
C3435 C3436 1.415 . S
C3436 H3412 0.950 . S
C3436 C3431 1.363 . S
C3436 C3435 1.415 . S
C3437 H3413 0.951 . S
C3437 C3438 1.366 . S
C3437 C3439 1.388 . S
C3438 C3437 1.366 . S
C3438 C3442 1.385 . S
C3439 H3414 0.951 . S
C3439 C3437 1.388 . S
C3439 C3440 1.366 . S
C3440 C3439 1.366 . S
C3440 C3441 1.414 . S
C3440 C3443 1.499 . S
C3441 H3415 0.950 . S
C3441 C3440 1.414 . S
C3441 C3442 1.374 . S
C3442 H3416 0.950 . S
C3442 C3438 1.385 . S
C3442 C3441 1.374 . S
C3443 C3440 1.499 . S
C3443 C3444 1.373 . S
C3443 C3445 1.389 . S
C3444 H3417 0.950 . S
C3444 C3430 1.377 . S
C3444 C3443 1.373 . S
C3445 C3429 1.377 . S
C3445 C3443 1.389 . S
C3445 C3446 1.524 . S
C3446 C3445 1.524 . S
C3446 C3447 1.397 . S
C3446 C3451 1.363 . S
C3447 H3418 0.950 . S
C3447 C3446 1.397 . S
C3447 C3448 1.334 . S
C3448 H3419 0.950 . S
C3448 C3447 1.334 . S
C3448 C3449 1.287 . S
C3449 C3448 1.287 . S
C3449 C3450 1.524 . S
C3449 H3452 0.999 . S
C3450 H3420 0.950 . S
C3450 C3449 1.524 . S
C3450 C3451 1.415 . S
C3451 H3421 0.950 . S
C3451 C3446 1.363 . S
C3451 C3450 1.415 . S
H3452 C3449 0.999 . S
H3453 C3434 0.913 . S
H3454 C3472 0.951 . S
H3455 C3474 0.951 . S
H3456 C3476 0.950 . S
H3457 C3477 0.950 . S
H3458 C3479 0.950 . S
H3459 C3482 0.950 . S
H3460 C3483 0.950 . S
H3461 C3485 0.950 . S
H3462 C3486 0.950 . S
H3463 C3487 0.951 . S
H3464 C3489 0.951 . S
H3465 C3491 0.950 . S
H3466 C3492 0.950 . S
H3467 C3494 0.950 . S
H3468 C3497 0.950 . S
H3469 C3498 0.950 . S
H3470 C3500 0.950 . S
H3471 C3501 0.950 . S
C3472 H3454 0.951 . S
C3472 C3473 1.366 . S
C3472 C3474 1.388 . S
C3473 C3472 1.366 . S
C3473 C3477 1.385 . S
C3474 H3455 0.951 . S
C3474 C3472 1.388 . S
C3474 C3475 1.366 . S
C3475 C3474 1.366 . S
C3475 C3476 1.414 . S
C3475 C3478 1.499 . S
C3476 H3456 0.950 . S
C3476 C3475 1.414 . S
C3476 C3477 1.374 . S
C3477 H3457 0.950 . S
C3477 C3473 1.385 . S
C3477 C3476 1.374 . S
C3478 C3475 1.499 . S
C3478 C3479 1.373 . S
C3478 C3480 1.389 . S
C3479 H3458 0.950 . S
C3479 C3478 1.373 . S
C3479 C3495 1.377 . S
C3480 C3478 1.389 . S
C3480 C3481 1.524 . S
C3480 C3494 1.377 . S
C3481 C3480 1.524 . S
C3481 C3482 1.397 . S
C3481 C3486 1.363 . S
C3482 H3459 0.950 . S
C3482 C3481 1.397 . S
C3482 C3483 1.334 . S
C3483 H3460 0.950 . S
C3483 C3482 1.334 . S
C3483 C3484 1.287 . S
C3484 C3483 1.287 . S
C3484 C3485 1.524 . S
C3484 H3503 0.913 . S
C3485 H3461 0.950 . S
C3485 C3484 1.524 . S
C3485 C3486 1.415 . S
C3486 H3462 0.950 . S
C3486 C3481 1.363 . S
C3486 C3485 1.415 . S
C3487 H3463 0.951 . S
C3487 C3488 1.366 . S
C3487 C3489 1.388 . S
C3488 C3487 1.366 . S
C3488 C3492 1.385 . S
C3489 H3464 0.951 . S
C3489 C3487 1.388 . S
C3489 C3490 1.366 . S
C3490 C3489 1.366 . S
C3490 C3491 1.414 . S
C3490 C3493 1.499 . S
C3491 H3465 0.950 . S
C3491 C3490 1.414 . S
C3491 C3492 1.374 . S
C3492 H3466 0.950 . S
C3492 C3488 1.385 . S
C3492 C3491 1.374 . S
C3493 C3490 1.499 . S
C3493 C3494 1.373 . S
C3493 C3495 1.389 . S
C3494 H3467 0.950 . S
C3494 C3480 1.377 . S
C3494 C3493 1.373 . S
C3495 C3479 1.377 . S
C3495 C3493 1.389 . S
C3495 C3496 1.524 . S
C3496 C3495 1.524 . S
C3496 C3497 1.397 . S
C3496 C3501 1.363 . S
C3497 H3468 0.950 . S
C3497 C3496 1.397 . S
C3497 C3498 1.334 . S
C3498 H3469 0.950 . S
C3498 C3497 1.334 . S
C3498 C3499 1.287 . S
C3499 C3498 1.287 . S
C3499 C3500 1.524 . S
C3499 H3502 0.999 . S
C3500 H3470 0.950 . S
C3500 C3499 1.524 . S
C3500 C3501 1.415 . S
C3501 H3471 0.950 . S
C3501 C3496 1.363 . S
C3501 C3500 1.415 . S
H3502 C3499 0.999 . S
H3503 C3484 0.913 . S
H3504 C3522 0.951 . S
H3505 C3524 0.951 . S
H3506 C3526 0.950 . S
H3507 C3527 0.950 . S
H3508 C3529 0.950 . S
H3509 C3532 0.950 . S
H3510 C3533 0.950 . S
H3511 C3535 0.950 . S
H3512 C3536 0.950 . S
H3513 C3537 0.951 . S
H3514 C3539 0.951 . S
H3515 C3541 0.950 . S
H3516 C3542 0.950 . S
H3517 C3544 0.950 . S
H3518 C3547 0.950 . S
H3519 C3548 0.950 . S
H3520 C3550 0.950 . S
H3521 C3551 0.950 . S
C3522 H3504 0.951 . S
C3522 C3523 1.366 . S
C3522 C3524 1.388 . S
C3523 C3522 1.366 . S
C3523 C3527 1.385 . S
C3524 H3505 0.951 . S
C3524 C3522 1.388 . S
C3524 C3525 1.366 . S
C3525 C3524 1.366 . S
C3525 C3526 1.414 . S
C3525 C3528 1.499 . S
C3526 H3506 0.950 . S
C3526 C3525 1.414 . S
C3526 C3527 1.374 . S
C3527 H3507 0.950 . S
C3527 C3523 1.385 . S
C3527 C3526 1.374 . S
C3528 C3525 1.499 . S
C3528 C3529 1.373 . S
C3528 C3530 1.389 . S
C3529 H3508 0.950 . S
C3529 C3528 1.373 . S
C3529 C3545 1.377 . S
C3530 C3528 1.389 . S
C3530 C3531 1.524 . S
C3530 C3544 1.377 . S
C3531 C3530 1.524 . S
C3531 C3532 1.397 . S
C3531 C3536 1.363 . S
C3532 H3509 0.950 . S
C3532 C3531 1.397 . S
C3532 C3533 1.334 . S
C3533 H3510 0.950 . S
C3533 C3532 1.334 . S
C3533 C3534 1.287 . S
C3534 C3533 1.287 . S
C3534 C3535 1.524 . S
C3534 H3553 0.913 . S
C3535 H3511 0.950 . S
C3535 C3534 1.524 . S
C3535 C3536 1.415 . S
C3536 H3512 0.950 . S
C3536 C3531 1.363 . S
C3536 C3535 1.415 . S
C3537 H3513 0.951 . S
C3537 C3538 1.366 . S
C3537 C3539 1.388 . S
C3538 C3537 1.366 . S
C3538 C3542 1.385 . S
C3539 H3514 0.951 . S
C3539 C3537 1.388 . S
C3539 C3540 1.366 . S
C3540 C3539 1.366 . S
C3540 C3541 1.414 . S
C3540 C3543 1.499 . S
C3541 H3515 0.950 . S
C3541 C3540 1.414 . S
C3541 C3542 1.374 . S
C3542 H3516 0.950 . S
C3542 C3538 1.385 . S
C3542 C3541 1.374 . S
C3543 C3540 1.499 . S
C3543 C3544 1.373 . S
C3543 C3545 1.389 . S
C3544 H3517 0.950 . S
C3544 C3530 1.377 . S
C3544 C3543 1.373 . S
C3545 C3529 1.377 . S
C3545 C3543 1.389 . S
C3545 C3546 1.524 . S
C3546 C3545 1.524 . S
C3546 C3547 1.397 . S
C3546 C3551 1.363 . S
C3547 H3518 0.950 . S
C3547 C3546 1.397 . S
C3547 C3548 1.334 . S
C3548 H3519 0.950 . S
C3548 C3547 1.334 . S
C3548 C3549 1.287 . S
C3549 C3548 1.287 . S
C3549 C3550 1.524 . S
C3549 H3552 0.999 . S
C3550 H3520 0.950 . S
C3550 C3549 1.524 . S
C3550 C3551 1.415 . S
C3551 H3521 0.950 . S
C3551 C3546 1.363 . S
C3551 C3550 1.415 . S
H3552 C3549 0.999 . S
H3553 C3534 0.913 . S
H3554 C3572 0.951 . S
H3555 C3574 0.951 . S
H3556 C3576 0.950 . S
H3557 C3577 0.950 . S
H3558 C3579 0.950 . S
H3559 C3582 0.950 . S
H3560 C3583 0.950 . S
H3561 C3585 0.950 . S
H3562 C3586 0.950 . S
H3563 C3587 0.951 . S
H3564 C3589 0.951 . S
H3565 C3591 0.950 . S
H3566 C3592 0.950 . S
H3567 C3594 0.950 . S
H3568 C3597 0.950 . S
H3569 C3598 0.950 . S
H3570 C3600 0.950 . S
H3571 C3601 0.950 . S
C3572 H3554 0.951 . S
C3572 C3573 1.366 . S
C3572 C3574 1.388 . S
C3573 C3572 1.366 . S
C3573 C3577 1.385 . S
C3574 H3555 0.951 . S
C3574 C3572 1.388 . S
C3574 C3575 1.366 . S
C3575 C3574 1.366 . S
C3575 C3576 1.414 . S
C3575 C3578 1.499 . S
C3576 H3556 0.950 . S
C3576 C3575 1.414 . S
C3576 C3577 1.374 . S
C3577 H3557 0.950 . S
C3577 C3573 1.385 . S
C3577 C3576 1.374 . S
C3578 C3575 1.499 . S
C3578 C3579 1.373 . S
C3578 C3580 1.389 . S
C3579 H3558 0.950 . S
C3579 C3578 1.373 . S
C3579 C3595 1.377 . S
C3580 C3578 1.389 . S
C3580 C3581 1.524 . S
C3580 C3594 1.377 . S
C3581 C3580 1.524 . S
C3581 C3582 1.397 . S
C3581 C3586 1.363 . S
C3582 H3559 0.950 . S
C3582 C3581 1.397 . S
C3582 C3583 1.334 . S
C3583 H3560 0.950 . S
C3583 C3582 1.334 . S
C3583 C3584 1.287 . S
C3584 C3583 1.287 . S
C3584 C3585 1.524 . S
C3584 H3603 0.913 . S
C3585 H3561 0.950 . S
C3585 C3584 1.524 . S
C3585 C3586 1.415 . S
C3586 H3562 0.950 . S
C3586 C3581 1.363 . S
C3586 C3585 1.415 . S
C3587 H3563 0.951 . S
C3587 C3588 1.366 . S
C3587 C3589 1.388 . S
C3588 C3587 1.366 . S
C3588 C3592 1.385 . S
C3589 H3564 0.951 . S
C3589 C3587 1.388 . S
C3589 C3590 1.366 . S
C3590 C3589 1.366 . S
C3590 C3591 1.414 . S
C3590 C3593 1.499 . S
C3591 H3565 0.950 . S
C3591 C3590 1.414 . S
C3591 C3592 1.374 . S
C3592 H3566 0.950 . S
C3592 C3588 1.385 . S
C3592 C3591 1.374 . S
C3593 C3590 1.499 . S
C3593 C3594 1.373 . S
C3593 C3595 1.389 . S
C3594 H3567 0.950 . S
C3594 C3580 1.377 . S
C3594 C3593 1.373 . S
C3595 C3579 1.377 . S
C3595 C3593 1.389 . S
C3595 C3596 1.524 . S
C3596 C3595 1.524 . S
C3596 C3597 1.397 . S
C3596 C3601 1.363 . S
C3597 H3568 0.950 . S
C3597 C3596 1.397 . S
C3597 C3598 1.334 . S
C3598 H3569 0.950 . S
C3598 C3597 1.334 . S
C3598 C3599 1.287 . S
C3599 C3598 1.287 . S
C3599 C3600 1.524 . S
C3599 H3602 0.999 . S
C3600 H3570 0.950 . S
C3600 C3599 1.524 . S
C3600 C3601 1.415 . S
C3601 H3571 0.950 . S
C3601 C3596 1.363 . S
C3601 C3600 1.415 . S
H3602 C3599 0.999 . S
H3603 C3584 0.913 . S
H3604 C3622 0.951 . S
H3605 C3624 0.951 . S
H3606 C3626 0.950 . S
H3607 C3627 0.950 . S
H3608 C3629 0.950 . S
H3609 C3632 0.950 . S
H3610 C3633 0.950 . S
H3611 C3635 0.950 . S
H3612 C3636 0.950 . S
H3613 C3637 0.951 . S
H3614 C3639 0.951 . S
H3615 C3641 0.950 . S
H3616 C3642 0.950 . S
H3617 C3644 0.950 . S
H3618 C3647 0.950 . S
H3619 C3648 0.950 . S
H3620 C3650 0.950 . S
H3621 C3651 0.950 . S
C3622 H3604 0.951 . S
C3622 C3623 1.366 . S
C3622 C3624 1.388 . S
C3623 C3622 1.366 . S
C3623 C3627 1.385 . S
C3624 H3605 0.951 . S
C3624 C3622 1.388 . S
C3624 C3625 1.366 . S
C3625 C3624 1.366 . S
C3625 C3626 1.414 . S
C3625 C3628 1.499 . S
C3626 H3606 0.950 . S
C3626 C3625 1.414 . S
C3626 C3627 1.374 . S
C3627 H3607 0.950 . S
C3627 C3623 1.385 . S
C3627 C3626 1.374 . S
C3628 C3625 1.499 . S
C3628 C3629 1.373 . S
C3628 C3630 1.389 . S
C3629 H3608 0.950 . S
C3629 C3628 1.373 . S
C3629 C3645 1.377 . S
C3630 C3628 1.389 . S
C3630 C3631 1.524 . S
C3630 C3644 1.377 . S
C3631 C3630 1.524 . S
C3631 C3632 1.397 . S
C3631 C3636 1.363 . S
C3632 H3609 0.950 . S
C3632 C3631 1.397 . S
C3632 C3633 1.334 . S
C3633 H3610 0.950 . S
C3633 C3632 1.334 . S
C3633 C3634 1.287 . S
C3634 C3633 1.287 . S
C3634 C3635 1.524 . S
C3634 H3653 0.913 . S
C3635 H3611 0.950 . S
C3635 C3634 1.524 . S
C3635 C3636 1.415 . S
C3636 H3612 0.950 . S
C3636 C3631 1.363 . S
C3636 C3635 1.415 . S
C3637 H3613 0.951 . S
C3637 C3638 1.366 . S
C3637 C3639 1.388 . S
C3638 C3637 1.366 . S
C3638 C3642 1.385 . S
C3639 H3614 0.951 . S
C3639 C3637 1.388 . S
C3639 C3640 1.366 . S
C3640 C3639 1.366 . S
C3640 C3641 1.414 . S
C3640 C3643 1.499 . S
C3641 H3615 0.950 . S
C3641 C3640 1.414 . S
C3641 C3642 1.374 . S
C3642 H3616 0.950 . S
C3642 C3638 1.385 . S
C3642 C3641 1.374 . S
C3643 C3640 1.499 . S
C3643 C3644 1.373 . S
C3643 C3645 1.389 . S
C3644 H3617 0.950 . S
C3644 C3630 1.377 . S
C3644 C3643 1.373 . S
C3645 C3629 1.377 . S
C3645 C3643 1.389 . S
C3645 C3646 1.524 . S
C3646 C3645 1.524 . S
C3646 C3647 1.397 . S
C3646 C3651 1.363 . S
C3647 H3618 0.950 . S
C3647 C3646 1.397 . S
C3647 C3648 1.334 . S
C3648 H3619 0.950 . S
C3648 C3647 1.334 . S
C3648 C3649 1.287 . S
C3649 C3648 1.287 . S
C3649 C3650 1.524 . S
C3649 H3652 0.999 . S
C3650 H3620 0.950 . S
C3650 C3649 1.524 . S
C3650 C3651 1.415 . S
C3651 H3621 0.950 . S
C3651 C3646 1.363 . S
C3651 C3650 1.415 . S
H3652 C3649 0.999 . S
H3653 C3634 0.913 . S
H3654 C3672 0.951 . S
H3655 C3674 0.951 . S
H3656 C3676 0.950 . S
H3657 C3677 0.950 . S
H3658 C3679 0.950 . S
H3659 C3682 0.950 . S
H3660 C3683 0.950 . S
H3661 C3685 0.950 . S
H3662 C3686 0.950 . S
H3663 C3687 0.951 . S
H3664 C3689 0.951 . S
H3665 C3691 0.950 . S
H3666 C3692 0.950 . S
H3667 C3694 0.950 . S
H3668 C3697 0.950 . S
H3669 C3698 0.950 . S
H3670 C3700 0.950 . S
H3671 C3701 0.950 . S
C3672 H3654 0.951 . S
C3672 C3673 1.366 . S
C3672 C3674 1.388 . S
C3673 C3672 1.366 . S
C3673 C3677 1.385 . S
C3674 H3655 0.951 . S
C3674 C3672 1.388 . S
C3674 C3675 1.366 . S
C3675 C3674 1.366 . S
C3675 C3676 1.414 . S
C3675 C3678 1.499 . S
C3676 H3656 0.950 . S
C3676 C3675 1.414 . S
C3676 C3677 1.374 . S
C3677 H3657 0.950 . S
C3677 C3673 1.385 . S
C3677 C3676 1.374 . S
C3678 C3675 1.499 . S
C3678 C3679 1.373 . S
C3678 C3680 1.389 . S
C3679 H3658 0.950 . S
C3679 C3678 1.373 . S
C3679 C3695 1.377 . S
C3680 C3678 1.389 . S
C3680 C3681 1.524 . S
C3680 C3694 1.377 . S
C3681 C3680 1.524 . S
C3681 C3682 1.397 . S
C3681 C3686 1.363 . S
C3682 H3659 0.950 . S
C3682 C3681 1.397 . S
C3682 C3683 1.334 . S
C3683 H3660 0.950 . S
C3683 C3682 1.334 . S
C3683 C3684 1.287 . S
C3684 C3683 1.287 . S
C3684 C3685 1.524 . S
C3684 H3703 0.913 . S
C3685 H3661 0.950 . S
C3685 C3684 1.524 . S
C3685 C3686 1.415 . S
C3686 H3662 0.950 . S
C3686 C3681 1.363 . S
C3686 C3685 1.415 . S
C3687 H3663 0.951 . S
C3687 C3688 1.366 . S
C3687 C3689 1.388 . S
C3688 C3687 1.366 . S
C3688 C3692 1.385 . S
C3689 H3664 0.951 . S
C3689 C3687 1.388 . S
C3689 C3690 1.366 . S
C3690 C3689 1.366 . S
C3690 C3691 1.414 . S
C3690 C3693 1.499 . S
C3691 H3665 0.950 . S
C3691 C3690 1.414 . S
C3691 C3692 1.374 . S
C3692 H3666 0.950 . S
C3692 C3688 1.385 . S
C3692 C3691 1.374 . S
C3693 C3690 1.499 . S
C3693 C3694 1.373 . S
C3693 C3695 1.389 . S
C3694 H3667 0.950 . S
C3694 C3680 1.377 . S
C3694 C3693 1.373 . S
C3695 C3679 1.377 . S
C3695 C3693 1.389 . S
C3695 C3696 1.524 . S
C3696 C3695 1.524 . S
C3696 C3697 1.397 . S
C3696 C3701 1.363 . S
C3697 H3668 0.950 . S
C3697 C3696 1.397 . S
C3697 C3698 1.334 . S
C3698 H3669 0.950 . S
C3698 C3697 1.334 . S
C3698 C3699 1.287 . S
C3699 C3698 1.287 . S
C3699 C3700 1.524 . S
C3699 H3702 0.999 . S
C3700 H3670 0.950 . S
C3700 C3699 1.524 . S
C3700 C3701 1.415 . S
C3701 H3671 0.950 . S
C3701 C3696 1.363 . S
C3701 C3700 1.415 . S
H3702 C3699 0.999 . S
H3703 C3684 0.913 . S
H3704 C3722 0.951 . S
H3705 C3724 0.951 . S
H3706 C3726 0.950 . S
H3707 C3727 0.950 . S
H3708 C3729 0.950 . S
H3709 C3732 0.950 . S
H3710 C3733 0.950 . S
H3711 C3735 0.950 . S
H3712 C3736 0.950 . S
H3713 C3737 0.951 . S
H3714 C3739 0.951 . S
H3715 C3741 0.950 . S
H3716 C3742 0.950 . S
H3717 C3744 0.950 . S
H3718 C3747 0.950 . S
H3719 C3748 0.950 . S
H3720 C3750 0.950 . S
H3721 C3751 0.950 . S
C3722 H3704 0.951 . S
C3722 C3723 1.366 . S
C3722 C3724 1.388 . S
C3723 C3722 1.366 . S
C3723 C3727 1.385 . S
C3724 H3705 0.951 . S
C3724 C3722 1.388 . S
C3724 C3725 1.366 . S
C3725 C3724 1.366 . S
C3725 C3726 1.414 . S
C3725 C3728 1.499 . S
C3726 H3706 0.950 . S
C3726 C3725 1.414 . S
C3726 C3727 1.374 . S
C3727 H3707 0.950 . S
C3727 C3723 1.385 . S
C3727 C3726 1.374 . S
C3728 C3725 1.499 . S
C3728 C3729 1.373 . S
C3728 C3730 1.389 . S
C3729 H3708 0.950 . S
C3729 C3728 1.373 . S
C3729 C3745 1.377 . S
C3730 C3728 1.389 . S
C3730 C3731 1.524 . S
C3730 C3744 1.377 . S
C3731 C3730 1.524 . S
C3731 C3732 1.397 . S
C3731 C3736 1.363 . S
C3732 H3709 0.950 . S
C3732 C3731 1.397 . S
C3732 C3733 1.334 . S
C3733 H3710 0.950 . S
C3733 C3732 1.334 . S
C3733 C3734 1.287 . S
C3734 C3733 1.287 . S
C3734 C3735 1.524 . S
C3734 H3753 0.913 . S
C3735 H3711 0.950 . S
C3735 C3734 1.524 . S
C3735 C3736 1.415 . S
C3736 H3712 0.950 . S
C3736 C3731 1.363 . S
C3736 C3735 1.415 . S
C3737 H3713 0.951 . S
C3737 C3738 1.366 . S
C3737 C3739 1.388 . S
C3738 C3737 1.366 . S
C3738 C3742 1.385 . S
C3739 H3714 0.951 . S
C3739 C3737 1.388 . S
C3739 C3740 1.366 . S
C3740 C3739 1.366 . S
C3740 C3741 1.414 . S
C3740 C3743 1.499 . S
C3741 H3715 0.950 . S
C3741 C3740 1.414 . S
C3741 C3742 1.374 . S
C3742 H3716 0.950 . S
C3742 C3738 1.385 . S
C3742 C3741 1.374 . S
C3743 C3740 1.499 . S
C3743 C3744 1.373 . S
C3743 C3745 1.389 . S
C3744 H3717 0.950 . S
C3744 C3730 1.377 . S
C3744 C3743 1.373 . S
C3745 C3729 1.377 . S
C3745 C3743 1.389 . S
C3745 C3746 1.524 . S
C3746 C3745 1.524 . S
C3746 C3747 1.397 . S
C3746 C3751 1.363 . S
C3747 H3718 0.950 . S
C3747 C3746 1.397 . S
C3747 C3748 1.334 . S
C3748 H3719 0.950 . S
C3748 C3747 1.334 . S
C3748 C3749 1.287 . S
C3749 C3748 1.287 . S
C3749 C3750 1.524 . S
C3749 H3752 0.999 . S
C3750 H3720 0.950 . S
C3750 C3749 1.524 . S
C3750 C3751 1.415 . S
C3751 H3721 0.950 . S
C3751 C3746 1.363 . S
C3751 C3750 1.415 . S
H3752 C3749 0.999 . S
H3753 C3734 0.913 . S
H3754 C3772 0.951 . S
H3755 C3774 0.951 . S
H3756 C3776 0.950 . S
H3757 C3777 0.950 . S
H3758 C3779 0.950 . S
H3759 C3782 0.950 . S
H3760 C3783 0.950 . S
H3761 C3785 0.950 . S
H3762 C3786 0.950 . S
H3763 C3787 0.951 . S
H3764 C3789 0.951 . S
H3765 C3791 0.950 . S
H3766 C3792 0.950 . S
H3767 C3794 0.950 . S
H3768 C3797 0.950 . S
H3769 C3798 0.950 . S
H3770 C3800 0.950 . S
H3771 C3801 0.950 . S
C3772 H3754 0.951 . S
C3772 C3773 1.366 . S
C3772 C3774 1.388 . S
C3773 C3772 1.366 . S
C3773 C3777 1.385 . S
C3774 H3755 0.951 . S
C3774 C3772 1.388 . S
C3774 C3775 1.366 . S
C3775 C3774 1.366 . S
C3775 C3776 1.414 . S
C3775 C3778 1.499 . S
C3776 H3756 0.950 . S
C3776 C3775 1.414 . S
C3776 C3777 1.374 . S
C3777 H3757 0.950 . S
C3777 C3773 1.385 . S
C3777 C3776 1.374 . S
C3778 C3775 1.499 . S
C3778 C3779 1.373 . S
C3778 C3780 1.389 . S
C3779 H3758 0.950 . S
C3779 C3778 1.373 . S
C3779 C3795 1.377 . S
C3780 C3778 1.389 . S
C3780 C3781 1.524 . S
C3780 C3794 1.377 . S
C3781 C3780 1.524 . S
C3781 C3782 1.397 . S
C3781 C3786 1.363 . S
C3782 H3759 0.950 . S
C3782 C3781 1.397 . S
C3782 C3783 1.334 . S
C3783 H3760 0.950 . S
C3783 C3782 1.334 . S
C3783 C3784 1.287 . S
C3784 C3783 1.287 . S
C3784 C3785 1.524 . S
C3784 H3803 0.913 . S
C3785 H3761 0.950 . S
C3785 C3784 1.524 . S
C3785 C3786 1.415 . S
C3786 H3762 0.950 . S
C3786 C3781 1.363 . S
C3786 C3785 1.415 . S
C3787 H3763 0.951 . S
C3787 C3788 1.366 . S
C3787 C3789 1.388 . S
C3788 C3787 1.366 . S
C3788 C3792 1.385 . S
C3789 H3764 0.951 . S
C3789 C3787 1.388 . S
C3789 C3790 1.366 . S
C3790 C3789 1.366 . S
C3790 C3791 1.414 . S
C3790 C3793 1.499 . S
C3791 H3765 0.950 . S
C3791 C3790 1.414 . S
C3791 C3792 1.374 . S
C3792 H3766 0.950 . S
C3792 C3788 1.385 . S
C3792 C3791 1.374 . S
C3793 C3790 1.499 . S
C3793 C3794 1.373 . S
C3793 C3795 1.389 . S
C3794 H3767 0.950 . S
C3794 C3780 1.377 . S
C3794 C3793 1.373 . S
C3795 C3779 1.377 . S
C3795 C3793 1.389 . S
C3795 C3796 1.524 . S
C3796 C3795 1.524 . S
C3796 C3797 1.397 . S
C3796 C3801 1.363 . S
C3797 H3768 0.950 . S
C3797 C3796 1.397 . S
C3797 C3798 1.334 . S
C3798 H3769 0.950 . S
C3798 C3797 1.334 . S
C3798 C3799 1.287 . S
C3799 C3798 1.287 . S
C3799 C3800 1.524 . S
C3799 H3802 0.999 . S
C3800 H3770 0.950 . S
C3800 C3799 1.524 . S
C3800 C3801 1.415 . S
C3801 H3771 0.950 . S
C3801 C3796 1.363 . S
C3801 C3800 1.415 . S
H3802 C3799 0.999 . S
H3803 C3784 0.913 . S
H3804 C3822 0.951 . S
H3805 C3824 0.951 . S
H3806 C3826 0.950 1_655 S
H3807 C3827 0.950 . S
H3808 C3829 0.950 . S
H3809 C3832 0.950 . S
H3810 C3833 0.950 . S
H3811 C3835 0.950 . S
H3812 C3836 0.950 . S
H3813 C3837 0.951 . S
H3814 C3839 0.951 . S
H3815 C3841 0.950 1_455 S
H3816 C3842 0.950 . S
H3817 C3844 0.950 . S
H3818 C3847 0.950 . S
H3819 C3848 0.950 . S
H3820 C3850 0.950 . S
H3821 C3851 0.950 . S
C3822 H3804 0.951 . S
C3822 C3823 1.366 . S
C3822 C3824 1.388 . S
C3823 C3822 1.366 . S
C3823 C3827 1.385 . S
C3824 H3805 0.951 . S
C3824 C3822 1.388 . S
C3824 C3825 1.366 . S
C3825 C3824 1.366 . S
C3825 C3826 1.414 . S
C3825 C3828 1.499 . S
C3826 H3806 0.950 1_455 S
C3826 C3825 1.414 . S
C3826 C3827 1.374 . S
C3827 H3807 0.950 . S
C3827 C3823 1.385 . S
C3827 C3826 1.374 . S
C3828 C3825 1.499 . S
C3828 C3829 1.373 1_455 S
C3828 C3830 1.389 . S
C3829 H3808 0.950 . S
C3829 C3828 1.373 1_655 S
C3829 C3845 1.377 1_556 S
C3830 C3828 1.389 . S
C3830 C3831 1.524 . S
C3830 C3844 1.377 1_556 S
C3831 C3830 1.524 . S
C3831 C3832 1.397 . S
C3831 C3836 1.363 1_556 S
C3832 H3809 0.950 . S
C3832 C3831 1.397 . S
C3832 C3833 1.334 . S
C3833 H3810 0.950 . S
C3833 C3832 1.334 . S
C3833 C3834 1.287 . S
C3834 C3833 1.287 . S
C3834 C3835 1.524 1_556 S
C3834 H3853 0.913 . S
C3835 H3811 0.950 . S
C3835 C3834 1.524 1_554 S
C3835 C3836 1.415 . S
C3836 H3812 0.950 . S
C3836 C3831 1.363 1_554 S
C3836 C3835 1.415 . S
C3837 H3813 0.951 . S
C3837 C3838 1.366 . S
C3837 C3839 1.388 . S
C3838 C3837 1.366 . S
C3838 C3842 1.385 . S
C3839 H3814 0.951 . S
C3839 C3837 1.388 . S
C3839 C3840 1.366 . S
C3840 C3839 1.366 . S
C3840 C3841 1.414 . S
C3840 C3843 1.499 . S
C3841 H3815 0.950 1_655 S
C3841 C3840 1.414 . S
C3841 C3842 1.374 . S
C3842 H3816 0.950 . S
C3842 C3838 1.385 . S
C3842 C3841 1.374 . S
C3843 C3840 1.499 . S
C3843 C3844 1.373 1_655 S
C3843 C3845 1.389 . S
C3844 H3817 0.950 . S
C3844 C3830 1.377 1_554 S
C3844 C3843 1.373 1_455 S
C3845 C3829 1.377 1_554 S
C3845 C3843 1.389 . S
C3845 C3846 1.524 . S
C3846 C3845 1.524 . S
C3846 C3847 1.397 . S
C3846 C3851 1.363 1_554 S
C3847 H3818 0.950 . S
C3847 C3846 1.397 . S
C3847 C3848 1.334 . S
C3848 H3819 0.950 . S
C3848 C3847 1.334 . S
C3848 C3849 1.287 . S
C3849 C3848 1.287 . S
C3849 C3850 1.524 1_554 S
C3849 H3852 0.999 . S
C3850 H3820 0.950 . S
C3850 C3849 1.524 1_556 S
C3850 C3851 1.415 . S
C3851 H3821 0.950 . S
C3851 C3846 1.363 1_556 S
C3851 C3850 1.415 . S
H3852 C3849 0.999 . S
H3853 C3834 0.913 . S
H3854 C3872 0.951 . S
H3855 C3874 0.951 . S
H3856 C3876 0.950 . S
H3857 C3877 0.950 . S
H3858 C3879 0.950 . S
H3859 C3882 0.950 . S
H3860 C3883 0.950 . S
H3861 C3885 0.950 . S
H3862 C3886 0.950 . S
H3863 C3887 0.951 . S
H3864 C3889 0.951 . S
H3865 C3891 0.950 . S
H3866 C3892 0.950 . S
H3867 C3894 0.950 . S
H3868 C3897 0.950 . S
H3869 C3898 0.950 . S
H3870 C3900 0.950 . S
H3871 C3901 0.950 . S
C3872 H3854 0.951 . S
C3872 C3873 1.366 . S
C3872 C3874 1.388 . S
C3873 C3872 1.366 . S
C3873 C3877 1.385 . S
C3874 H3855 0.951 . S
C3874 C3872 1.388 . S
C3874 C3875 1.366 . S
C3875 C3874 1.366 . S
C3875 C3876 1.414 . S
C3875 C3878 1.499 . S
C3876 H3856 0.950 . S
C3876 C3875 1.414 . S
C3876 C3877 1.374 . S
C3877 H3857 0.950 . S
C3877 C3873 1.385 . S
C3877 C3876 1.374 . S
C3878 C3875 1.499 . S
C3878 C3879 1.373 . S
C3878 C3880 1.389 . S
C3879 H3858 0.950 . S
C3879 C3878 1.373 . S
C3879 C3895 1.377 1_554 S
C3880 C3878 1.389 . S
C3880 C3881 1.524 . S
C3880 C3894 1.377 1_554 S
C3881 C3880 1.524 . S
C3881 C3882 1.397 . S
C3881 C3886 1.363 . S
C3882 H3859 0.950 . S
C3882 C3881 1.397 . S
C3882 C3883 1.334 . S
C3883 H3860 0.950 . S
C3883 C3882 1.334 . S
C3883 C3884 1.287 . S
C3884 C3883 1.287 . S
C3884 C3885 1.524 . S
C3884 H3903 0.913 . S
C3885 H3861 0.950 . S
C3885 C3884 1.524 . S
C3885 C3886 1.415 . S
C3886 H3862 0.950 . S
C3886 C3881 1.363 . S
C3886 C3885 1.415 . S
C3887 H3863 0.951 . S
C3887 C3888 1.366 . S
C3887 C3889 1.388 . S
C3888 C3887 1.366 . S
C3888 C3892 1.385 . S
C3889 H3864 0.951 . S
C3889 C3887 1.388 . S
C3889 C3890 1.366 . S
C3890 C3889 1.366 . S
C3890 C3891 1.414 . S
C3890 C3893 1.499 . S
C3891 H3865 0.950 . S
C3891 C3890 1.414 . S
C3891 C3892 1.374 . S
C3892 H3866 0.950 . S
C3892 C3888 1.385 . S
C3892 C3891 1.374 . S
C3893 C3890 1.499 . S
C3893 C3894 1.373 . S
C3893 C3895 1.389 . S
C3894 H3867 0.950 . S
C3894 C3880 1.377 1_556 S
C3894 C3893 1.373 . S
C3895 C3879 1.377 1_556 S
C3895 C3893 1.389 . S
C3895 C3896 1.524 . S
C3896 C3895 1.524 . S
C3896 C3897 1.397 . S
C3896 C3901 1.363 . S
C3897 H3868 0.950 . S
C3897 C3896 1.397 . S
C3897 C3898 1.334 . S
C3898 H3869 0.950 . S
C3898 C3897 1.334 . S
C3898 C3899 1.287 . S
C3899 C3898 1.287 . S
C3899 C3900 1.524 . S
C3899 H3902 0.999 . S
C3900 H3870 0.950 . S
C3900 C3899 1.524 . S
C3900 C3901 1.415 . S
C3901 H3871 0.950 . S
C3901 C3896 1.363 . S
C3901 C3900 1.415 . S
H3902 C3899 0.999 . S
H3903 C3884 0.913 . S
H3904 C3922 0.951 . S
H3905 C3924 0.951 . S
H3906 C3926 0.950 . S
H3907 C3927 0.950 . S
H3908 C3929 0.950 . S
H3909 C3932 0.950 . S
H3910 C3933 0.950 . S
H3911 C3935 0.950 . S
H3912 C3936 0.950 . S
H3913 C3937 0.951 . S
H3914 C3939 0.951 . S
H3915 C3941 0.950 . S
H3916 C3942 0.950 . S
H3917 C3944 0.950 . S
H3918 C3947 0.950 . S
H3919 C3948 0.950 . S
H3920 C3950 0.950 . S
H3921 C3951 0.950 . S
C3922 H3904 0.951 . S
C3922 C3923 1.366 . S
C3922 C3924 1.388 . S
C3923 C3922 1.366 . S
C3923 C3927 1.385 . S
C3924 H3905 0.951 . S
C3924 C3922 1.388 . S
C3924 C3925 1.366 . S
C3925 C3924 1.366 . S
C3925 C3926 1.414 . S
C3925 C3928 1.499 . S
C3926 H3906 0.950 . S
C3926 C3925 1.414 . S
C3926 C3927 1.374 . S
C3927 H3907 0.950 . S
C3927 C3923 1.385 . S
C3927 C3926 1.374 . S
C3928 C3925 1.499 . S
C3928 C3929 1.373 1_545 S
C3928 C3930 1.389 . S
C3929 H3908 0.950 . S
C3929 C3928 1.373 1_565 S
C3929 C3945 1.377 1_554 S
C3930 C3928 1.389 . S
C3930 C3931 1.524 1_554 S
C3930 C3944 1.377 1_554 S
C3931 C3930 1.524 1_556 S
C3931 C3932 1.389 1_556 S
C3931 C3936 1.372 . S
C3932 H3909 0.950 . S
C3932 C3931 1.389 1_554 S
C3932 C3933 1.334 . S
C3933 H3910 0.950 . S
C3933 C3932 1.334 . S
C3933 C3934 1.287 1_554 S
C3934 C3933 1.287 1_556 S
C3934 C3935 1.524 . S
C3934 H3953 0.913 . S
C3935 H3911 0.950 . S
C3935 C3934 1.524 . S
C3935 C3936 1.415 . S
C3936 H3912 0.950 . S
C3936 C3931 1.372 . S
C3936 C3935 1.415 . S
C3937 H3913 0.951 . S
C3937 C3938 1.366 . S
C3937 C3939 1.388 . S
C3938 C3937 1.366 . S
C3938 C3942 1.385 . S
C3939 H3914 0.951 . S
C3939 C3937 1.388 . S
C3939 C3940 1.366 . S
C3940 C3939 1.366 . S
C3940 C3941 1.414 . S
C3940 C3943 1.499 . S
C3941 H3915 0.950 . S
C3941 C3940 1.414 . S
C3941 C3942 1.374 . S
C3942 H3916 0.950 . S
C3942 C3938 1.385 . S
C3942 C3941 1.374 . S
C3943 C3940 1.499 . S
C3943 C3944 1.373 1_565 S
C3943 C3945 1.389 . S
C3944 H3917 0.950 . S
C3944 C3930 1.377 1_556 S
C3944 C3943 1.373 1_545 S
C3945 C3929 1.377 1_556 S
C3945 C3943 1.389 . S
C3945 C3946 1.524 1_556 S
C3946 C3945 1.524 1_554 S
C3946 C3947 1.389 1_554 S
C3946 C3951 1.373 . S
C3947 H3918 0.950 . S
C3947 C3946 1.389 1_556 S
C3947 C3948 1.334 . S
C3948 H3919 0.950 . S
C3948 C3947 1.334 . S
C3948 C3949 1.287 1_556 S
C3949 C3948 1.287 1_554 S
C3949 C3950 1.524 . S
C3949 H3952 0.999 . S
C3950 H3920 0.950 . S
C3950 C3949 1.524 . S
C3950 C3951 1.415 . S
C3951 H3921 0.950 . S
C3951 C3946 1.373 . S
C3951 C3950 1.415 . S
H3952 C3949 0.999 . S
H3953 C3934 0.913 . S
H3954 C3972 0.951 . S
H3955 C3974 0.951 1_545 S
H3956 C3976 0.950 . S
H3957 C3977 0.950 . S
H3958 C3979 0.950 . S
H3959 C3982 0.971 . S
H3960 C3983 0.950 1_565 S
H3961 C3985 0.950 . S
H3962 C3986 0.950 . S
H3963 C3987 0.951 . S
H3964 C3989 0.951 1_565 S
H3965 C3991 0.950 . S
H3966 C3992 0.950 . S
H3967 C3994 0.950 . S
H3968 C3997 0.967 . S
H3969 C3998 0.950 1_545 S
H3970 C4000 0.950 . S
H3971 C4001 0.950 . S
C3972 H3954 0.951 . S
C3972 C3973 1.366 . S
C3972 C3974 1.388 . S
C3973 C3972 1.366 . S
C3973 C3977 1.385 . S
C3974 H3955 0.951 1_565 S
C3974 C3972 1.388 . S
C3974 C3975 1.366 . S
C3975 C3974 1.366 . S
C3975 C3976 1.414 . S
C3975 C3978 1.499 . S
C3976 H3956 0.950 . S
C3976 C3975 1.414 . S
C3976 C3977 1.374 . S
C3977 H3957 0.950 . S
C3977 C3973 1.385 . S
C3977 C3976 1.374 . S
C3978 C3975 1.499 . S
C3978 C3979 1.373 . S
C3978 C3980 1.389 1_565 S
C3979 H3958 0.950 . S
C3979 C3978 1.373 . S
C3979 C3995 1.377 1_556 S
C3980 C3978 1.389 1_545 S
C3980 C3981 1.524 . S
C3980 C3994 1.377 1_556 S
C3981 C3980 1.524 . S
C3981 C3982 1.372 1_545 S
C3981 C3986 1.363 . S
C3982 H3959 0.971 . S
C3982 C3981 1.372 1_565 S
C3982 C3983 1.339 1_565 S
C3983 H3960 0.950 1_545 S
C3983 C3982 1.339 1_545 S
C3983 C3984 1.287 . S
C3984 C3983 1.287 . S
C3984 C3985 1.524 . S
C3984 H4003 0.913 . S
C3985 H3961 0.950 . S
C3985 C3984 1.524 . S
C3985 C3986 1.415 . S
C3986 H3962 0.950 . S
C3986 C3981 1.363 . S
C3986 C3985 1.415 . S
C3987 H3963 0.951 . S
C3987 C3988 1.366 . S
C3987 C3989 1.388 . S
C3988 C3987 1.366 . S
C3988 C3992 1.385 . S
C3989 H3964 0.951 1_545 S
C3989 C3987 1.388 . S
C3989 C3990 1.366 . S
C3990 C3989 1.366 . S
C3990 C3991 1.414 . S
C3990 C3993 1.499 . S
C3991 H3965 0.950 . S
C3991 C3990 1.414 . S
C3991 C3992 1.374 . S
C3992 H3966 0.950 . S
C3992 C3988 1.385 . S
C3992 C3991 1.374 . S
C3993 C3990 1.499 . S
C3993 C3994 1.373 . S
C3993 C3995 1.389 1_545 S
C3994 H3967 0.950 . S
C3994 C3980 1.377 1_554 S
C3994 C3993 1.373 . S
C3995 C3979 1.377 1_554 S
C3995 C3993 1.389 1_565 S
C3995 C3996 1.524 . S
C3996 C3995 1.524 . S
C3996 C3997 1.377 1_565 S
C3996 C4001 1.363 . S
C3997 H3968 0.967 . S
C3997 C3996 1.377 1_545 S
C3997 C3998 1.338 1_545 S
C3998 H3969 0.950 1_565 S
C3998 C3997 1.338 1_565 S
C3998 C3999 1.287 . S
C3999 C3998 1.287 . S
C3999 C4000 1.524 . S
C3999 H4002 0.999 . S
C4000 H3970 0.950 . S
C4000 C3999 1.524 . S
C4000 C4001 1.415 . S
C4001 H3971 0.950 . S
C4001 C3996 1.363 . S
C4001 C4000 1.415 . S
H4002 C3999 0.999 . S
H4003 C3984 0.913 . S
H4004 C4022 0.951 . S
H4005 C4024 0.951 . S
H4006 C4026 0.950 1_655 S
H4007 C4027 0.950 . S
H4008 C4029 1.003 . S
H4009 C4032 1.030 . S
H4010 C4033 0.950 . S
H4011 C4035 0.950 1_554 S
H4012 C4036 0.972 . S
H4013 C4037 0.951 . S
H4014 C4039 0.951 . S
H4015 C4041 0.950 1_455 S
H4016 C4042 0.950 . S
H4017 C4044 1.002 . S
H4018 C4047 1.032 . S
H4019 C4048 0.950 . S
H4020 C4050 0.950 1_556 S
H4021 C4051 0.970 . S
C4022 H4004 0.951 . S
C4022 C4023 1.366 . S
C4022 C4024 1.388 . S
C4023 C4022 1.366 . S
C4023 C4027 1.385 . S
C4024 H4005 0.951 . S
C4024 C4022 1.388 . S
C4024 C4025 1.366 . S
C4025 C4024 1.366 . S
C4025 C4026 1.414 . S
C4025 C4028 1.499 . S
C4026 H4006 0.950 1_455 S
C4026 C4025 1.414 . S
C4026 C4027 1.374 . S
C4027 H4007 0.950 . S
C4027 C4023 1.385 . S
C4027 C4026 1.374 . S
C4028 C4025 1.499 . S
C4028 C4029 1.288 1_455 S
C4028 C4030 1.389 . S
C4029 H4008 1.003 . S
C4029 C4028 1.288 1_655 S
C4029 C4045 1.418 1_556 S
C4030 C4028 1.389 . S
C4030 C4031 1.524 . S
C4030 C4044 1.417 1_556 S
C4031 C4030 1.524 . S
C4031 C4032 1.397 . S
C4031 C4036 1.348 1_556 S
C4032 H4009 1.030 . S
C4032 C4031 1.397 . S
C4032 C4033 1.334 . S
C4033 H4010 0.950 . S
C4033 C4032 1.334 . S
C4033 C4034 1.287 . S
C4034 C4033 1.287 . S
C4034 C4035 1.524 . S
C4034 H4053 0.913 . S
C4035 H4011 0.950 1_556 S
C4035 C4034 1.524 . S
C4035 C4036 1.409 1_556 S
C4036 H4012 0.972 . S
C4036 C4031 1.348 1_554 S
C4036 C4035 1.409 1_554 S
C4037 H4013 0.951 . S
C4037 C4038 1.366 . S
C4037 C4039 1.388 . S
C4038 C4037 1.366 . S
C4038 C4042 1.385 . S
C4039 H4014 0.951 . S
C4039 C4037 1.388 . S
C4039 C4040 1.366 . S
C4040 C4039 1.366 . S
C4040 C4041 1.414 . S
C4040 C4043 1.499 . S
C4041 H4015 0.950 1_655 S
C4041 C4040 1.414 . S
C4041 C4042 1.374 . S
C4042 H4016 0.950 . S
C4042 C4038 1.385 . S
C4042 C4041 1.374 . S
C4043 C4040 1.499 . S
C4043 C4044 1.290 1_655 S
C4043 C4045 1.389 . S
C4044 H4017 1.002 . S
C4044 C4030 1.417 1_554 S
C4044 C4043 1.290 1_455 S
C4045 C4029 1.418 1_554 S
C4045 C4043 1.389 . S
C4045 C4046 1.524 . S
C4046 C4045 1.524 . S
C4046 C4047 1.397 . S
C4046 C4051 1.349 1_554 S
C4047 H4018 1.032 . S
C4047 C4046 1.397 . S
C4047 C4048 1.334 . S
C4048 H4019 0.950 . S
C4048 C4047 1.334 . S
C4048 C4049 1.287 . S
C4049 C4048 1.287 . S
C4049 C4050 1.524 . S
C4049 H4052 0.999 . S
C4050 H4020 0.950 1_554 S
C4050 C4049 1.524 . S
C4050 C4051 1.410 1_554 S
C4051 H4021 0.970 . S
C4051 C4046 1.349 1_556 S
C4051 C4050 1.410 1_556 S
H4052 C4049 0.999 . S
H4053 C4034 0.913 . S
H4054 C4072 0.951 . S
H4055 C4074 0.951 . S
H4056 C4076 0.950 . S
H4057 C4077 0.950 . S
H4058 C4079 0.950 . S
H4059 C4082 0.950 . S
H4060 C4083 0.950 . S
H4061 C4085 0.950 . S
H4062 C4086 0.950 . S
H4063 C4087 0.951 . S
H4064 C4089 0.951 . S
H4065 C4091 0.950 . S
H4066 C4092 0.950 . S
H4067 C4094 0.950 . S
H4068 C4097 0.950 . S
H4069 C4098 0.950 . S
H4070 C4100 0.950 . S
H4071 C4101 0.950 . S
C4072 H4054 0.951 . S
C4072 C4073 1.366 . S
C4072 C4074 1.388 . S
C4073 C4072 1.366 . S
C4073 C4077 1.385 . S
C4074 H4055 0.951 . S
C4074 C4072 1.388 . S
C4074 C4075 1.366 . S
C4075 C4074 1.366 . S
C4075 C4076 1.414 . S
C4075 C4078 1.499 . S
C4076 H4056 0.950 . S
C4076 C4075 1.414 . S
C4076 C4077 1.374 . S
C4077 H4057 0.950 . S
C4077 C4073 1.385 . S
C4077 C4076 1.374 . S
C4078 C4075 1.499 . S
C4078 C4079 1.373 . S
C4078 C4080 1.389 . S
C4079 H4058 0.950 . S
C4079 C4078 1.373 . S
C4079 C4095 1.377 1_554 S
C4080 C4078 1.389 . S
C4080 C4081 1.524 . S
C4080 C4094 1.377 1_554 S
C4081 C4080 1.524 . S
C4081 C4082 1.397 . S
C4081 C4086 1.363 . S
C4082 H4059 0.950 . S
C4082 C4081 1.397 . S
C4082 C4083 1.334 . S
C4083 H4060 0.950 . S
C4083 C4082 1.334 . S
C4083 C4084 1.287 . S
C4084 C4083 1.287 . S
C4084 C4085 1.524 . S
C4084 H4103 0.913 . S
C4085 H4061 0.950 . S
C4085 C4084 1.524 . S
C4085 C4086 1.415 . S
C4086 H4062 0.950 . S
C4086 C4081 1.363 . S
C4086 C4085 1.415 . S
C4087 H4063 0.951 . S
C4087 C4088 1.366 . S
C4087 C4089 1.388 . S
C4088 C4087 1.366 . S
C4088 C4092 1.385 . S
C4089 H4064 0.951 . S
C4089 C4087 1.388 . S
C4089 C4090 1.366 . S
C4090 C4089 1.366 . S
C4090 C4091 1.414 . S
C4090 C4093 1.499 . S
C4091 H4065 0.950 . S
C4091 C4090 1.414 . S
C4091 C4092 1.374 . S
C4092 H4066 0.950 . S
C4092 C4088 1.385 . S
C4092 C4091 1.374 . S
C4093 C4090 1.499 . S
C4093 C4094 1.373 . S
C4093 C4095 1.389 . S
C4094 H4067 0.950 . S
C4094 C4080 1.377 1_556 S
C4094 C4093 1.373 . S
C4095 C4079 1.377 1_556 S
C4095 C4093 1.389 . S
C4095 C4096 1.524 . S
C4096 C4095 1.524 . S
C4096 C4097 1.397 . S
C4096 C4101 1.363 . S
C4097 H4068 0.950 . S
C4097 C4096 1.397 . S
C4097 C4098 1.334 . S
C4098 H4069 0.950 . S
C4098 C4097 1.334 . S
C4098 C4099 1.287 . S
C4099 C4098 1.287 . S
C4099 C4100 1.524 . S
C4099 H4102 0.999 . S
C4100 H4070 0.950 . S
C4100 C4099 1.524 . S
C4100 C4101 1.415 . S
C4101 H4071 0.950 . S
C4101 C4096 1.363 . S
C4101 C4100 1.415 . S
H4102 C4099 0.999 . S
H4103 C4084 0.913 . S
C523 C9 1.286 . S
C538 C163 1.285 . S
C573 C23 1.285 . S
C588 C135 1.286 . S
C623 C149 1.285 . S
C638 C37 1.285 . S
C673 C51 1.285 . S
C688 C107 1.285 . S
C723 C121 1.285 . S
C738 C65 1.285 . S
C773 C79 1.286 . S
C788 C93 1.285 . S
C823 C331 1.286 . S
C838 C177 1.285 . S
C873 C191 1.286 . S
C888 C303 1.287 . S
C923 C205 1.285 . S
C938 C317 1.286 . S
C973 C275 1.286 . S
C988 C219 1.286 . S
C1023 C233 1.285 . S
C1038 C289 1.286 . S
C1073 C261 1.287 . S
C1088 C247 1.287 . S
C1123 C345 1.285 . S
C1138 C499 1.286 . S
C1173 C471 1.286 . S
C1188 C359 1.286 . S
C1223 C485 1.286 . S
C1238 C373 1.285 . S
C1273 C443 1.286 . S
C1288 C387 1.286 . S
C1323 C457 1.285 . S
C1338 C401 1.285 . S
C1373 C429 1.286 . S
C1388 C415 1.285 . S
C1423 C8 1.299 . S
C1438 C64 1.299 . S
C1473 C78 1.300 . S
C1488 C22 1.300 . S
C1523 C36 1.299 . S
C1538 C50 1.300 . S
C1573 C92 1.299 . S
C1588 C148 1.299 . S
C1623 C106 1.300 . S
C1638 C162 1.300 . S
C1673 C120 1.299 . S
C1688 C134 1.300 . S
C1723 C232 1.299 . S
C1738 C176 1.300 . S
C1773 C246 1.299 . S
C1788 C190 1.299 . S
C1823 C204 1.299 . S
C1838 C218 1.300 . S
C1873 C316 1.300 . S
C1888 C260 1.300 . S
C1923 C330 1.300 . S
C1938 C274 1.300 . S
C1973 C288 1.299 . S
C1988 C302 1.299 . S
C2023 C400 1.300 . S
C2038 C344 1.300 . S
C2073 C358 1.301 . S
C2088 C414 1.301 . S
C2123 C372 1.299 . S
C2138 C386 1.300 . S
C2173 C484 1.300 . S
C2188 C428 1.300 . S
C2223 C442 1.300 . S
C2238 C498 1.300 . S
C2273 C470 1.300 . S
C2288 C456 1.300 . S
C2323 C413 0.886 . S
C2338 C7 0.886 1_556 S
C2373 C21 0.886 1_556 S
C2388 C385 0.886 . S
C2423 C35 0.886 1_556 S
C2438 C399 0.886 . S
C2473 C49 0.887 1_554 S
C2488 C189 0.886 . S
C2523 C203 0.886 . S
C2538 C63 0.886 1_554 S
C2573 C175 0.886 . S
C2588 C77 0.887 1_554 S
C2623 C91 0.887 1_554 S
C2638 C329 0.886 . S
C2673 C105 0.886 1_554 S
C2688 C301 0.887 . S
C2723 C119 0.887 1_554 S
C2738 C315 0.887 . S
C2773 C441 0.887 . S
C2788 C133 0.887 1_556 S
C2823 C455 0.887 . S
C2838 C147 0.886 1_556 S
C2873 C161 0.887 1_556 S
C2888 C427 0.886 . S
C2923 C357 0.886 . S
C2938 C217 0.887 . S
C2973 C231 0.887 . S
C2988 C371 0.886 . S
C3023 C343 0.888 . S
C3038 C245 0.887 . S
C3073 C497 0.886 . S
C3088 C259 0.887 . S
C3123 C273 0.887 . S
C3138 C469 0.886 . S
C3173 C287 0.885 . S
C3188 C483 0.886 . S
C3223 C3 1.743 . S
C3238 C409 1.743 . S
C3273 C381 1.742 . S
C3288 C17 1.742 . S
C3323 C31 1.743 . S
C3338 C395 1.743 . S
C3373 C185 1.743 . S
C3388 C45 1.744 . S
C3423 C59 1.743 . S
C3438 C199 1.743 . S
C3473 C73 1.743 . S
C3488 C171 1.743 . S
C3523 C325 1.743 . S
C3538 C87 1.743 . S
C3573 C101 1.742 . S
C3588 C297 1.742 . S
C3623 C115 1.743 . S
C3638 C311 1.743 . S
C3673 C129 1.743 . S
C3688 C437 1.743 . S
C3723 C451 1.743 . S
C3738 C143 1.743 . S
C3773 C157 1.743 . S
C3788 C423 1.743 . S
C3823 C353 1.743 . S
C3838 C213 1.743 . S
C3873 C227 1.743 . S
C3888 C367 1.743 . S
C3923 C241 1.743 . S
C3938 C339 1.743 . S
C3973 C493 1.743 . S
C3988 C255 1.743 . S
C4023 C465 1.743 . S
C4038 C269 1.743 . S
C4073 C283 1.743 . S
C4088 C479 1.743 . S
