# Generated by pormake.
# Topology mmt, (4)-cn, num edge types: 1
# Building blocks:
#     Node 0, Type 0, BuildingBlock: TATPOV_clean_sbu_0, # of connection points: 4
#     Node 1, Type 0, BuildingBlock: TATPOV_clean_sbu_0, # of connection points: 4
#     Node 2, Type 0, BuildingBlock: TATPOV_clean_sbu_0, # of connection points: 4
#     Node 3, Type 0, BuildingBlock: TATPOV_clean_sbu_0, # of connection points: 4
#     Node 4, Type 0, BuildingBlock: TATPOV_clean_sbu_0, # of connection points: 4
#     Node 5, Type 0, BuildingBlock: TATPOV_clean_sbu_0, # of connection points: 4
#     Node 6, Type 0, BuildingBlock: TATPOV_clean_sbu_0, # of connection points: 4
#     Node 7, Type 0, BuildingBlock: TATPOV_clean_sbu_0, # of connection points: 4
#     Edge 8, Type (0, 0), BuildingBlock: KIFKEQ_clean_linker_1, # of connection points: 2
#     Edge 9, Type (0, 0), BuildingBlock: KIFKEQ_clean_linker_1, # of connection points: 2
#     Edge 10, Type (0, 0), BuildingBlock: KIFKEQ_clean_linker_1, # of connection points: 2
#     Edge 11, Type (0, 0), BuildingBlock: KIFKEQ_clean_linker_1, # of connection points: 2
#     Edge 12, Type (0, 0), BuildingBlock: KIFKEQ_clean_linker_1, # of connection points: 2
#     Edge 13, Type (0, 0), BuildingBlock: KIFKEQ_clean_linker_1, # of connection points: 2
#     Edge 14, Type (0, 0), BuildingBlock: KIFKEQ_clean_linker_1, # of connection points: 2
#     Edge 15, Type (0, 0), BuildingBlock: KIFKEQ_clean_linker_1, # of connection points: 2
#     Edge 16, Type (0, 0), BuildingBlock: KIFKEQ_clean_linker_1, # of connection points: 2
#     Edge 17, Type (0, 0), BuildingBlock: KIFKEQ_clean_linker_1, # of connection points: 2
#     Edge 18, Type (0, 0), BuildingBlock: KIFKEQ_clean_linker_1, # of connection points: 2
#     Edge 19, Type (0, 0), BuildingBlock: KIFKEQ_clean_linker_1, # of connection points: 2
#     Edge 20, Type (0, 0), BuildingBlock: KIFKEQ_clean_linker_1, # of connection points: 2
#     Edge 21, Type (0, 0), BuildingBlock: KIFKEQ_clean_linker_1, # of connection points: 2
#     Edge 22, Type (0, 0), BuildingBlock: KIFKEQ_clean_linker_1, # of connection points: 2
#     Edge 23, Type (0, 0), BuildingBlock: KIFKEQ_clean_linker_1, # of connection points: 2
# Relax obj value: 0.064
# Max RMSD: 0.111
# Mean RMSD: 0.111
data_MOF--net-mmt--node1-TATPOV_clean_sbu_0--edge1-KIFKEQ_clean_linker_1
_symmetry_space_group_name_H-M    P1
_symmetry_Int_Tables_number       1
_symmetry_cell_setting            triclinic
loop_
_symmetry_equiv_pos_as_xyz
'x, y, z'
_cell_length_a     22.414782
_cell_length_b     39.237682
_cell_length_c     40.813605
_cell_angle_alpha  89.850661
_cell_angle_beta   90.111947
_cell_angle_gamma 89.937054
loop_
_atom_site_label
_atom_site_type_symbol
_atom_site_fract_x
_atom_site_fract_y
_atom_site_fract_z
_atom_type_partial_charge
Zn0 Zn 0.21383 0.51234 0.36065 0.0
Zn1 Zn 0.20365 0.58049 0.36421 0.0
O2 O 0.15304 0.56254 0.4032 0.0
O3 O 0.15899 0.50668 0.399 0.0
O4 O 0.20162 0.63236 0.36829 0.0
O5 O 0.3026 0.51393 0.36624 0.0
O6 O 0.29385 0.56967 0.36311 0.0
C7 C 0.13843 0.5328 0.41318 0.0
C8 C 0.15905 0.54308 0.30347 0.0
O9 O 0.16368 0.57049 0.32001 0.0
O10 O 0.17874 0.51522 0.31499 0.0
C11 C 0.23632 0.65052 0.35079 0.0
O12 O 0.27199 0.63527 0.32993 0.0
C13 C 0.3265 0.54306 0.36449 0.0
Zn14 Zn 0.26257 0.04638 0.36316 0.0
Zn15 Zn 0.27204 0.97855 0.3555 0.0
O16 O 0.31849 0.9888 0.39844 0.0
O17 O 0.30891 0.04422 0.40515 0.0
O18 O 0.27275 0.92676 0.35151 0.0
O19 O 0.17338 0.0449 0.36279 0.0
O20 O 0.18223 0.99025 0.35191 0.0
C21 C 0.32946 1.01584 0.41472 0.0
C22 C 0.32564 1.02589 0.30419 0.0
O23 O 0.31726 0.9958 0.31514 0.0
O24 O 0.30614 0.05141 0.31988 0.0
C25 C 0.25489 0.90781 0.37489 0.0
O26 O 0.23724 0.92215 0.40228 0.0
C27 C 0.14969 1.0167 0.35541 0.0
Zn28 Zn 0.71137 0.55986 0.1547 0.0
Zn29 Zn 0.70384 0.4912 0.15374 0.0
O30 O 0.65382 0.50653 0.11342 0.0
O31 O 0.65698 0.56261 0.1157 0.0
O32 O 0.70222 0.43907 0.15318 0.0
O33 O 0.80033 0.55869 0.14986 0.0
O34 O 0.79359 0.50304 0.15525 0.0
C35 C 0.6381 0.53565 0.10225 0.0
C36 C 0.65681 0.5313 0.21256 0.0
O37 O 0.66272 0.50334 0.19703 0.0
O38 O 0.6757 0.55891 0.20022 0.0
C39 C 0.74405 0.42132 0.14073 0.0
O40 O 0.78902 0.437 0.12667 0.0
C41 C 0.82527 0.52993 0.15299 0.0
Zn42 Zn 0.76015 1.02529 0.13964 0.0
Zn43 Zn 0.77274 0.09303 0.14365 0.0
O44 O 0.8188 0.0784 0.1019 0.0
O45 O 0.80704 1.02286 0.09798 0.0
O46 O 0.7759 0.14493 0.14193 0.0
O47 O 0.67105 1.02812 0.13925 0.0
O48 O 0.68253 0.08298 0.14822 0.0
C49 C 0.829 0.05034 0.08714 0.0
C50 C 0.82395 0.049 0.19785 0.0
O51 O 0.81739 0.07858 0.18529 0.0
O52 O 0.80308 1.023 0.18344 0.0
C53 C 0.75001 0.16356 0.1631 0.0
O54 O 0.72193 0.14887 0.18758 0.0
C55 C 0.64875 0.05696 0.14566 0.0
Zn56 Zn 0.76476 0.54216 0.63982 0.0
Zn57 Zn 0.76451 0.47433 0.64686 0.0
O58 O 0.81062 0.4841 0.60341 0.0
O59 O 0.80203 0.53947 0.59565 0.0
O60 O 0.7579 0.42239 0.65066 0.0
O61 O 0.67667 0.54555 0.64533 0.0
O62 O 0.67647 0.48984 0.65148 0.0
C63 C 0.82085 0.51074 0.58624 0.0
C64 C 0.83032 0.51821 0.69663 0.0
O65 O 0.81278 0.48885 0.68736 0.0
O66 O 0.81716 0.54451 0.68003 0.0
C67 C 0.78314 0.4008 0.63198 0.0
O68 O 0.81762 0.41177 0.60821 0.0
C69 C 0.64862 0.51824 0.65101 0.0
Zn70 Zn 0.71064 1.00715 0.64721 0.0
Zn71 Zn 0.70741 0.07512 0.64387 0.0
O72 O 0.65797 0.05892 0.60365 0.0
O73 O 0.65744 1.00297 0.60797 0.0
O74 O 0.71136 0.12688 0.63873 0.0
O75 O 0.79951 1.00543 0.64337 0.0
O76 O 0.79634 0.06128 0.64749 0.0
C77 C 0.64082 1.02981 0.59332 0.0
C78 C 0.65609 0.03904 0.70364 0.0
O79 O 0.66331 0.06646 0.68726 0.0
O80 O 0.67415 1.01084 0.69229 0.0
C81 C 0.72222 0.14644 0.66287 0.0
O82 O 0.72972 0.13293 0.69208 0.0
C83 C 0.82626 0.03361 0.64643 0.0
Zn84 Zn 0.26608 0.51546 0.87324 0.0
Zn85 Zn 0.26471 0.58317 0.86506 0.0
O86 O 0.3118 0.57462 0.90846 0.0
O87 O 0.30422 0.51938 0.91726 0.0
O88 O 0.25895 0.63494 0.86034 0.0
O89 O 0.1778 0.51211 0.86791 0.0
O90 O 0.17666 0.56774 0.86106 0.0
C91 C 0.32277 0.54837 0.92608 0.0
C92 C 0.33005 0.53844 0.81579 0.0
O93 O 0.31217 0.56787 0.82467 0.0
O94 O 0.31781 0.51238 0.83288 0.0
C95 C 0.25226 0.65495 0.88458 0.0
O96 O 0.25029 0.64205 0.9143 0.0
C97 C 0.14926 0.53925 0.86194 0.0
Zn98 Zn 0.21184 0.05007 0.85646 0.0
Zn99 Zn 0.20831 0.98224 0.86062 0.0
O100 O 0.15805 0.99887 0.90034 0.0
O101 O 0.15806 0.05475 0.89519 0.0
O102 O 0.2143 0.93054 0.8667 0.0
O103 O 0.30053 0.05226 0.86088 0.0
O104 O 0.29711 0.9964 0.85723 0.0
C105 C 0.14091 1.02821 0.91008 0.0
C106 C 0.15772 1.01771 0.80014 0.0
O107 O 0.16469 0.99045 0.81684 0.0
O108 O 0.17591 0.04598 0.81125 0.0
C109 C 0.18543 0.90846 0.85024 0.0
O110 O 0.14732 0.91882 0.82783 0.0
C111 C 0.32717 1.024 0.85817 0.0
H112 H 0.38666 0.59708 0.33838 0.0
H113 H 0.41142 0.49366 0.3724 0.0
H114 H 0.48087 0.59421 0.30948 0.0
H115 H 0.50722 0.49116 0.34441 0.0
H116 H 0.58988 0.48075 0.24021 0.0
H117 H 0.52416 0.48537 0.28718 0.0
H118 H 0.58574 0.58826 0.30397 0.0
H119 H 0.65012 0.58398 0.25612 0.0
C120 C 0.41337 0.57419 0.34083 0.0
C121 C 0.39084 0.54528 0.35693 0.0
C122 C 0.46773 0.57253 0.32425 0.0
C123 C 0.50094 0.54206 0.32384 0.0
C124 C 0.48182 0.51464 0.34339 0.0
C125 C 0.42714 0.51617 0.35967 0.0
C126 C 0.59019 0.50416 0.25423 0.0
C127 C 0.62432 0.5322 0.24405 0.0
C128 C 0.55284 0.50675 0.28145 0.0
C129 C 0.5492 0.53735 0.2993 0.0
C130 C 0.5866 0.56456 0.29044 0.0
C131 C 0.62357 0.56207 0.26303 0.0
H132 H 0.83148 0.99166 0.23567 0.0
H133 H 0.89429 0.09556 0.22939 0.0
H134 H 0.89646 0.98165 0.28259 0.0
H135 H 0.96058 0.08527 0.27565 0.0
H136 H 0.06547 0.06625 0.36422 0.0
H137 H 0.97362 0.07322 0.3329 0.0
H138 H 0.00178 0.97465 0.28847 0.0
H139 H 0.09236 0.96728 0.32041 0.0
C140 C 0.85887 1.01246 0.24445 0.0
C141 C 0.85837 0.0443 0.22851 0.0
C142 C 0.89619 1.00667 0.27133 0.0
C143 C 0.93417 0.0325 0.28277 0.0
C144 C 0.93139 0.06487 0.26782 0.0
C145 C 0.89371 0.07074 0.24107 0.0
C146 C 0.05104 0.04561 0.34851 0.0
C147 C 0.08682 1.01649 0.34431 0.0
C148 C -0.00134 0.04976 0.33035 0.0
C149 C 0.98113 1.02493 0.30753 0.0
C150 C 0.01378 0.99432 0.30583 0.0
C151 C 0.06596 0.99007 0.32417 0.0
H152 H 0.90756 0.58077 0.14571 0.0
H153 H 0.88842 0.47662 0.1787 0.0
H154 H 0.00385 0.58429 0.17325 0.0
H155 H 0.98335 0.48047 0.20704 0.0
H156 H 0.15445 0.49184 0.25833 0.0
H157 H 0.08863 0.48783 0.21095 0.0
H158 H 0.02255 0.58925 0.23072 0.0
H159 H 0.0896 0.59362 0.27734 0.0
C160 C 0.92457 0.55834 0.15814 0.0
C161 C 0.88972 0.52868 0.1607 0.0
C162 C 0.97957 0.56046 0.17413 0.0
C163 C 0.00059 0.53303 0.19315 0.0
C164 C 0.96871 0.50214 0.19264 0.0
C165 C 0.91396 0.49993 0.17642 0.0
C166 C 0.12666 0.51353 0.25217 0.0
C167 C 0.12643 0.54284 0.27194 0.0
C168 C 0.08885 0.51118 0.22503 0.0
C169 C 0.04968 0.53799 0.21721 0.0
C170 C 0.05251 0.5682 0.23572 0.0
C171 C 0.09067 0.57065 0.26269 0.0
H172 H 0.56066 1.01007 0.13567 0.0
H173 H 0.59614 0.1067 0.18228 0.0
H174 H 0.46928 1.00436 0.16741 0.0
H175 H 0.50622 0.10048 0.21478 0.0
H176 H 0.33723 0.08509 0.26937 0.0
H177 H 0.4013 0.09576 0.22232 0.0
H178 H 0.45752 0.99033 0.22394 0.0
H179 H 0.39207 0.97947 0.2702 0.0
C180 C 0.54818 1.0305 0.1521 0.0
C181 C 0.58618 0.05853 0.15693 0.0
C182 C 0.4961 1.02707 0.17053 0.0
C183 C 0.48124 0.05145 0.19434 0.0
C184 C 0.5161 0.08117 0.19668 0.0
C185 C 0.56789 0.08477 0.178 0.0
C186 C 0.36273 0.06408 0.2594 0.0
C187 C 0.36015 1.03149 0.27379 0.0
C188 C 0.39953 0.07024 0.23245 0.0
C189 C 0.43493 0.04401 0.21941 0.0
C190 C 0.43026 1.01107 0.23295 0.0
C191 C 0.39309 1.00486 0.25973 0.0
H192 H 0.33778 0.58163 0.76312 0.0
H193 H 0.40316 0.48558 0.80065 0.0
H194 H 0.39973 0.57485 0.71446 0.0
H195 H 0.46733 0.47962 0.75341 0.0
H196 H 0.58626 0.57567 0.66611 0.0
H197 H 0.49929 0.57934 0.70065 0.0
H198 H 0.48125 0.46962 0.69797 0.0
H199 H 0.57138 0.46588 0.66485 0.0
C200 C 0.36558 0.55915 0.76099 0.0
C201 C 0.36606 0.5343 0.7858 0.0
C202 C 0.40119 0.55523 0.73313 0.0
C203 C 0.43897 0.52671 0.72984 0.0
C204 C 0.43808 0.50156 0.75447 0.0
C205 C 0.40172 0.50517 0.78191 0.0
C206 C 0.56313 0.55229 0.67223 0.0
C207 C 0.58674 0.52039 0.66341 0.0
C208 C 0.51265 0.55442 0.69202 0.0
C209 C 0.4838 0.52472 0.70298 0.0
C210 C 0.50356 0.49299 0.69102 0.0
C211 C 0.55487 0.49082 0.67168 0.0
H212 H 0.89186 0.08588 0.67188 0.0
H213 H 0.90478 0.98038 0.64254 0.0
H214 H 0.98512 0.08051 0.70169 0.0
H215 H -0.00068 0.97525 0.67169 0.0
H216 H 0.08472 0.96769 0.77629 0.0
H217 H 0.0174 0.97188 0.72958 0.0
H218 H 0.08989 0.07093 0.70578 0.0
H219 H 0.1558 0.06717 0.75313 0.0
C220 C 0.91571 0.06188 0.67075 0.0
C221 C 0.89021 0.03336 0.65546 0.0
C222 C 0.96948 0.05878 0.68784 0.0
C223 C -0.00089 1.02717 0.68973 0.0
C224 C 0.97679 0.99969 0.67145 0.0
C225 C 0.92282 1.00273 0.65452 0.0
C226 C 0.08706 0.99005 0.76072 0.0
C227 C 0.12467 1.01736 0.76876 0.0
C228 C 0.04874 0.9924 0.73374 0.0
C229 C 0.0477 1.02198 0.71409 0.0
C230 C 0.08865 0.04813 0.72078 0.0
C231 C 0.12651 0.04592 0.74789 0.0
H232 H 0.07071 0.59111 0.84815 0.0
H233 H 0.08822 0.48143 0.84666 0.0
H234 H 0.98075 0.58687 0.81478 0.0
H235 H 0.00142 0.47729 0.81185 0.0
H236 H 0.90296 0.5711 0.71204 0.0
H237 H 0.96732 0.57702 0.75931 0.0
H238 H 0.90189 0.48113 0.79756 0.0
H239 H 0.83972 0.47442 0.74882 0.0
C240 C 0.0548 0.56608 0.84122 0.0
C241 C 0.08737 0.5367 0.8495 0.0
C242 C 0.00359 0.56362 0.82173 0.0
C243 C 0.98466 0.53181 0.8096 0.0
C244 C 0.01417 0.50226 0.82058 0.0
C245 C 0.06452 0.50468 0.84055 0.0
C246 C 0.90206 0.55135 0.73062 0.0
C247 C 0.86686 0.52209 0.72653 0.0
C248 C 0.93852 0.55493 0.75809 0.0
C249 C 0.93998 0.52963 0.78257 0.0
C250 C 0.90285 0.5009 0.77902 0.0
C251 C 0.86713 0.49701 0.75112 0.0
H252 H 0.39225 0.9714 0.83297 0.0
H253 H 0.40614 0.07694 0.86198 0.0
H254 H 0.48501 0.97639 0.8029 0.0
H255 H 0.50032 0.08168 0.83263 0.0
H256 H 0.58384 0.08916 0.72794 0.0
H257 H 0.51748 0.08508 0.77489 0.0
H258 H 0.58933 0.98554 0.79792 0.0
H259 H 0.65415 0.98918 0.75026 0.0
C260 C 0.41625 0.99533 0.83399 0.0
C261 C 0.39109 1.02398 0.84922 0.0
C262 C 0.46975 0.99821 0.81674 0.0
C263 C 0.49949 1.02973 0.81467 0.0
C264 C 0.47765 0.05732 0.83298 0.0
C265 C 0.4239 0.0545 0.85003 0.0
C266 C 0.58619 0.06668 0.74336 0.0
C267 C 0.62329 0.03923 0.73502 0.0
C268 C 0.54845 0.0644 0.7705 0.0
C269 C 0.54753 0.03475 0.79005 0.0
C270 C 0.58797 1.0084 0.78302 0.0
C271 C 0.6252 1.01054 0.75572 0.0
H272 H 0.08793 0.47333 0.43404 0.0
H273 H 0.08677 0.58191 0.45163 0.0
H274 H 0.00813 0.46586 0.47356 0.0
H275 H 0.00814 0.57425 0.49218 0.0
H276 H 0.82798 0.55691 0.53664 0.0
H277 H 0.90458 0.56099 0.49473 0.0
H278 H 0.98383 0.46743 0.5303 0.0
H279 H 0.90562 0.46281 0.57164 0.0
C280 C 0.07124 0.49562 0.44668 0.0
C281 C 0.0937 0.5283 0.43955 0.0
C282 C 0.02548 0.49126 0.46948 0.0
C283 C 0.00121 0.51943 0.48592 0.0
C284 C 0.02482 0.55203 0.47944 0.0
C285 C 0.07036 0.55643 0.45643 0.0
C286 C 0.8612 0.53689 0.53516 0.0
C287 C 0.86093 0.5096 0.55752 0.0
C288 C 0.90558 0.53945 0.51137 0.0
C289 C 0.95124 0.51497 0.50954 0.0
C290 C 0.94928 0.48672 0.5309 0.0
C291 C 0.90437 0.48398 0.55456 0.0
H292 H 0.34356 0.06461 0.46147 0.0
H293 H 0.41026 0.96625 0.43134 0.0
H294 H 0.4193 0.06727 0.50409 0.0
H295 H 0.48769 0.96941 0.4733 0.0
H296 H 0.58401 0.97256 0.57198 0.0
H297 H 0.50712 0.96804 0.53032 0.0
H298 H 0.5237 0.07578 0.50994 0.0
H299 H 0.59937 0.08056 0.55273 0.0
C300 C 0.37434 0.04346 0.46404 0.0
C301 C 0.37094 1.01522 0.44298 0.0
C302 C 0.41826 0.04516 0.48827 0.0
C303 C 0.46035 1.01883 0.49188 0.0
C304 C 0.4558 0.99007 0.47144 0.0
C305 C 0.41137 0.98821 0.44736 0.0
C306 C 0.57162 0.99532 0.55851 0.0
C307 C 0.59782 1.02699 0.56581 0.0
C308 C 0.52755 0.99265 0.53444 0.0
C309 C 0.50878 1.02153 0.5168 0.0
C310 C 0.53612 0.05309 0.5235 0.0
C311 C 0.57994 0.05582 0.54783 0.0
H312 H 0.58454 0.59348 0.07934 0.0
H313 H 0.59082 0.48451 0.06447 0.0
H314 H 0.50568 0.59836 0.03878 0.0
H315 H 0.51314 0.48958 0.02279 0.0
H316 H 0.40513 0.59772 0.94028 0.0
H317 H 0.48306 0.59511 0.98207 0.0
H318 H 0.40911 0.50062 0.01842 0.0
H319 H 0.33286 0.50269 0.97603 0.0
C320 C 0.56971 0.57055 0.06706 0.0
C321 C 0.59397 0.53853 0.07527 0.0
C322 C 0.52449 0.57342 0.04365 0.0
C323 C 0.50257 0.54438 0.0276 0.0
C324 C 0.52798 0.51243 0.03517 0.0
C325 C 0.57297 0.50952 0.05884 0.0
C326 C 0.40502 0.57673 0.95757 0.0
C327 C 0.36309 0.55033 0.95474 0.0
C328 C 0.44977 0.57515 0.98152 0.0
C329 C 0.45308 0.54731 1.00333 0.0
C330 C 0.40907 0.52191 1.00148 0.0
C331 C 0.36486 0.52331 0.9774 0.0
H332 H 0.08281 0.08585 0.92904 0.0
H333 H 0.09954 0.97868 0.95203 0.0
H334 H 0.00593 0.09173 0.97026 0.0
H335 H 0.02381 0.98488 0.99455 0.0
H336 H 0.8439 0.99853 0.04344 0.0
H337 H 0.91964 0.99346 1.0011 0.0
H338 H 0.98777 0.09289 0.02698 0.0
H339 H 0.91041 0.09845 0.06844 0.0
C340 C 0.07073 0.06356 0.94326 0.0
C341 C 0.09742 1.03173 0.93718 0.0
C342 C 0.02664 0.06701 0.96709 0.0
C343 C 0.00838 0.03881 0.9858 0.0
C344 C 0.03593 1.00705 0.9802 0.0
C345 C 0.07977 1.00351 0.95604 0.0
C346 C 0.87465 1.01948 0.03982 0.0
C347 C 0.87106 0.04894 0.05927 0.0
C348 C 0.91857 1.01641 0.01577 0.0
C349 C 0.96042 0.04257 0.01078 0.0
C350 C 0.95596 0.07235 0.02981 0.0
C351 C 0.91157 0.07558 0.05364 0.0
H352 H 0.31352 0.69506 0.3217 0.0
H353 H 0.16296 0.69155 0.38749 0.0
H354 H 0.31822 0.75663 0.32767 0.0
H355 H 0.16642 0.75348 0.39271 0.0
H356 H 0.22822 0.86025 0.42177 0.0
H357 H 0.22349 0.79857 0.41594 0.0
H358 H 0.2691 0.80824 0.31351 0.0
H359 H 0.27564 0.86991 0.31965 0.0
C360 C 0.28103 0.70745 0.33727 0.0
C361 C 0.23787 0.68825 0.35414 0.0
C362 C 0.28351 0.74291 0.34054 0.0
C363 C 0.24266 0.76028 0.36063 0.0
C364 C 0.19923 0.74105 0.37739 0.0
C365 C 0.19696 0.70549 0.37425 0.0
C366 C 0.23738 0.84924 0.39799 0.0
C367 C 0.25247 0.87013 0.3712 0.0
C368 C 0.23421 0.81379 0.39458 0.0
C369 C 0.24575 0.79819 0.36422 0.0
C370 C 0.26077 0.81916 0.3374 0.0
C371 C 0.26426 0.85463 0.34087 0.0
H372 H 0.70485 0.21059 0.20587 0.0
H373 H 0.79394 0.20217 0.11249 0.0
H374 H 0.70306 0.27239 0.20015 0.0
H375 H 0.79063 0.26394 0.10629 0.0
H376 H 0.83125 0.37692 0.12153 0.0
H377 H 0.83289 0.31519 0.12706 0.0
H378 H 0.65711 0.31786 0.17027 0.0
H379 H 0.65627 0.37988 0.16557 0.0
C380 C 0.72388 0.22189 0.18403 0.0
C381 C 0.74968 0.20132 0.15968 0.0
C382 C 0.72243 0.25741 0.18062 0.0
C383 C 0.74653 0.27337 0.1527 0.0
C384 C 0.77237 0.25272 0.12835 0.0
C385 C 0.77404 0.2172 0.13183 0.0
C386 C 0.79281 0.36439 0.13215 0.0
C387 C 0.74363 0.38348 0.14313 0.0
C388 C 0.79362 0.32885 0.13516 0.0
C389 C 0.74515 0.31132 0.14912 0.0
C390 C 0.69568 0.33043 0.15985 0.0
C391 C 0.69498 0.36604 0.15695 0.0
H392 H 0.72225 0.18255 0.60513 0.0
H393 H 0.73643 0.1953 0.70995 0.0
H394 H 0.73523 0.24388 0.59764 0.0
H395 H 0.7501 0.25643 0.70243 0.0
H396 H 0.71432 0.36893 0.67843 0.0
H397 H 0.69728 0.30791 0.68544 0.0
H398 H 0.81263 0.28726 0.6032 0.0
H399 H 0.82901 0.34821 0.59588 0.0
C400 C 0.72801 0.1984 0.62658 0.0
C401 C 0.72835 0.1839 0.65814 0.0
C402 C 0.73586 0.23357 0.62228 0.0
C403 C 0.74388 0.25518 0.64942 0.0
C404 C 0.74342 0.24068 0.68098 0.0
C405 C 0.73592 0.20553 0.68527 0.0
C406 C 0.73608 0.3514 0.66183 0.0
C407 C 0.77308 0.36359 0.63659 0.0
C408 C 0.7265 0.31635 0.66595 0.0
C409 C 0.75352 0.29257 0.64487 0.0
C410 C 0.79042 0.3048 0.61961 0.0
C411 C 0.80013 0.33982 0.61555 0.0
H412 H 0.24526 0.70488 0.93116 0.0
H413 H 0.24201 0.6897 0.82638 0.0
H414 H 0.22965 0.76583 0.92301 0.0
H415 H 0.22711 0.75079 0.81823 0.0
H416 H 0.13324 0.85494 0.81822 0.0
H417 H 0.15057 0.79419 0.82651 0.0
H418 H 0.279 0.81695 0.90234 0.0
H419 H 0.26107 0.8778 0.89439 0.0
C420 C 0.2415 0.71453 0.90635 0.0
C421 C 0.24479 0.69228 0.87943 0.0
C422 C 0.23288 0.74957 0.90168 0.0
C423 C 0.22698 0.76331 0.86996 0.0
C424 C 0.23069 0.74107 0.84302 0.0
C425 C 0.23964 0.70604 0.84769 0.0
C426 C 0.16516 0.84706 0.83671 0.0
C427 C 0.1957 0.87137 0.85564 0.0
C428 C 0.1754 0.81215 0.8413 0.0
C429 C 0.21634 0.80058 0.86503 0.0
C430 C 0.24669 0.8249 0.88409 0.0
C431 C 0.23658 0.85984 0.87942 0.0
loop_
_geom_bond_atom_site_label_1
_geom_bond_atom_site_label_2
_geom_bond_distance
_geom_bond_site_symmetry_2
_ccdc_geom_bond_type
Zn0 O3 2.031 . S
Zn0 O5 2.049 . S
Zn0 O10 2.067 . S
Zn1 O2 1.962 . S
Zn1 O4 1.986 . S
Zn1 O6 1.996 . S
Zn1 O9 1.943 . S
O2 Zn1 1.962 . S
O2 C7 1.254 . S
O3 Zn0 2.031 . S
O3 C7 1.269 . S
O4 Zn1 1.986 . S
O4 C11 1.262 . S
O5 Zn0 2.049 . S
O5 C13 1.260 . S
O6 Zn1 1.996 . S
O6 C13 1.257 . S
C7 O2 1.254 . S
C7 O3 1.269 . S
C8 O9 1.249 . S
C8 O10 1.270 . S
O9 Zn1 1.943 . S
O9 C8 1.249 . S
O10 Zn0 2.067 . S
O10 C8 1.270 . S
C11 O4 1.262 . S
C11 O12 1.232 . S
O12 C11 1.232 . S
C13 O5 1.260 . S
C13 O6 1.257 . S
Zn14 O17 2.031 1_545 S
Zn14 O19 2.049 . S
Zn14 O24 2.067 1_545 S
Zn15 O16 1.962 . S
Zn15 O18 1.986 . S
Zn15 O20 1.996 . S
Zn15 O23 1.943 . S
O16 Zn15 1.962 . S
O16 C21 1.254 . S
O17 Zn14 2.031 1_565 S
O17 C21 1.269 . S
O18 Zn15 1.986 . S
O18 C25 1.262 . S
O19 Zn14 2.049 . S
O19 C27 1.260 1_545 S
O20 Zn15 1.996 . S
O20 C27 1.257 . S
C21 O16 1.254 . S
C21 O17 1.269 . S
C22 O23 1.249 . S
C22 O24 1.270 . S
O23 Zn15 1.943 . S
O23 C22 1.249 . S
O24 Zn14 2.067 1_565 S
O24 C22 1.270 . S
C25 O18 1.262 . S
C25 O26 1.232 . S
O26 C25 1.232 . S
C27 O19 1.260 1_565 S
C27 O20 1.257 . S
Zn28 O31 2.031 . S
Zn28 O33 2.049 . S
Zn28 O38 2.067 . S
Zn29 O30 1.962 . S
Zn29 O32 1.986 . S
Zn29 O34 1.996 . S
Zn29 O37 1.943 . S
O30 Zn29 1.962 . S
O30 C35 1.254 . S
O31 Zn28 2.031 . S
O31 C35 1.269 . S
O32 Zn29 1.986 . S
O32 C39 1.262 . S
O33 Zn28 2.049 . S
O33 C41 1.260 . S
O34 Zn29 1.996 . S
O34 C41 1.257 . S
C35 O30 1.254 . S
C35 O31 1.269 . S
C36 O37 1.249 . S
C36 O38 1.270 . S
O37 Zn29 1.943 . S
O37 C36 1.249 . S
O38 Zn28 2.067 . S
O38 C36 1.270 . S
C39 O32 1.262 . S
C39 O40 1.232 . S
O40 C39 1.232 . S
C41 O33 1.260 . S
C41 O34 1.257 . S
Zn42 O45 2.031 1_565 S
Zn42 O47 2.049 . S
Zn42 O52 2.067 1_565 S
Zn43 O44 1.962 . S
Zn43 O46 1.986 . S
Zn43 O48 1.996 . S
Zn43 O51 1.943 . S
O44 Zn43 1.962 . S
O44 C49 1.254 . S
O45 Zn42 2.031 1_545 S
O45 C49 1.269 . S
O46 Zn43 1.986 . S
O46 C53 1.262 . S
O47 Zn42 2.049 . S
O47 C55 1.260 1_565 S
O48 Zn43 1.996 . S
O48 C55 1.257 . S
C49 O44 1.254 . S
C49 O45 1.269 . S
C50 O51 1.249 . S
C50 O52 1.270 . S
O51 Zn43 1.943 . S
O51 C50 1.249 . S
O52 Zn42 2.067 1_545 S
O52 C50 1.270 . S
C53 O46 1.262 . S
C53 O54 1.232 . S
O54 C53 1.232 . S
C55 O47 1.260 1_545 S
C55 O48 1.257 . S
Zn56 O59 2.031 . S
Zn56 O61 2.049 . S
Zn56 O66 2.067 . S
Zn57 O58 1.962 . S
Zn57 O60 1.986 . S
Zn57 O62 1.996 . S
Zn57 O65 1.943 . S
O58 Zn57 1.962 . S
O58 C63 1.254 . S
O59 Zn56 2.031 . S
O59 C63 1.269 . S
O60 Zn57 1.986 . S
O60 C67 1.262 . S
O61 Zn56 2.049 . S
O61 C69 1.260 . S
O62 Zn57 1.996 . S
O62 C69 1.257 . S
C63 O58 1.254 . S
C63 O59 1.269 . S
C64 O65 1.249 . S
C64 O66 1.270 . S
O65 Zn57 1.943 . S
O65 C64 1.249 . S
O66 Zn56 2.067 . S
O66 C64 1.270 . S
C67 O60 1.262 . S
C67 O68 1.232 . S
O68 C67 1.232 . S
C69 O61 1.260 . S
C69 O62 1.257 . S
Zn70 O73 2.031 1_565 S
Zn70 O75 2.049 . S
Zn70 O80 2.067 1_565 S
Zn71 O72 1.962 . S
Zn71 O74 1.986 . S
Zn71 O76 1.996 . S
Zn71 O79 1.943 . S
O72 Zn71 1.962 . S
O72 C77 1.254 . S
O73 Zn70 2.031 1_545 S
O73 C77 1.269 . S
O74 Zn71 1.986 . S
O74 C81 1.262 . S
O75 Zn70 2.049 . S
O75 C83 1.260 1_565 S
O76 Zn71 1.996 . S
O76 C83 1.257 . S
C77 O72 1.254 . S
C77 O73 1.269 . S
C78 O79 1.249 . S
C78 O80 1.270 . S
O79 Zn71 1.943 . S
O79 C78 1.249 . S
O80 Zn70 2.067 1_545 S
O80 C78 1.270 . S
C81 O74 1.262 . S
C81 O82 1.232 . S
O82 C81 1.232 . S
C83 O75 1.260 1_545 S
C83 O76 1.257 . S
Zn84 O87 2.031 . S
Zn84 O89 2.049 . S
Zn84 O94 2.067 . S
Zn85 O86 1.962 . S
Zn85 O88 1.986 . S
Zn85 O90 1.996 . S
Zn85 O93 1.943 . S
O86 Zn85 1.962 . S
O86 C91 1.254 . S
O87 Zn84 2.031 . S
O87 C91 1.269 . S
O88 Zn85 1.986 . S
O88 C95 1.262 . S
O89 Zn84 2.049 . S
O89 C97 1.260 . S
O90 Zn85 1.996 . S
O90 C97 1.257 . S
C91 O86 1.254 . S
C91 O87 1.269 . S
C92 O93 1.249 . S
C92 O94 1.270 . S
O93 Zn85 1.943 . S
O93 C92 1.249 . S
O94 Zn84 2.067 . S
O94 C92 1.270 . S
C95 O88 1.262 . S
C95 O96 1.232 . S
O96 C95 1.232 . S
C97 O89 1.260 . S
C97 O90 1.257 . S
Zn98 O101 2.031 1_545 S
Zn98 O103 2.049 . S
Zn98 O108 2.067 1_545 S
Zn99 O100 1.962 . S
Zn99 O102 1.986 . S
Zn99 O104 1.996 . S
Zn99 O107 1.943 . S
O100 Zn99 1.962 . S
O100 C105 1.254 . S
O101 Zn98 2.031 1_565 S
O101 C105 1.269 . S
O102 Zn99 1.986 . S
O102 C109 1.262 . S
O103 Zn98 2.049 . S
O103 C111 1.260 1_545 S
O104 Zn99 1.996 . S
O104 C111 1.257 . S
C105 O100 1.254 . S
C105 O101 1.269 . S
C106 O107 1.249 . S
C106 O108 1.270 . S
O107 Zn99 1.943 . S
O107 C106 1.249 . S
O108 Zn98 2.067 1_565 S
O108 C106 1.270 . S
C109 O102 1.262 . S
C109 O110 1.232 . S
O110 C109 1.232 . S
C111 O103 1.260 1_565 S
C111 O104 1.257 . S
H112 C120 0.950 . S
H113 C125 0.950 . S
H114 C122 0.950 . S
H115 C124 0.950 . S
H116 C126 0.950 . S
H117 C128 0.950 . S
H118 C130 0.950 . S
H119 C131 0.950 . S
C120 H112 0.950 . S
C120 C121 1.386 . S
C120 C122 1.391 . S
C121 C120 1.386 . S
C121 C125 1.393 . S
C122 H114 0.950 . S
C122 C120 1.391 . S
C122 C123 1.400 . S
C123 C122 1.400 . S
C123 C124 1.398 . S
C123 C129 1.491 . S
C124 H115 0.950 . S
C124 C123 1.398 . S
C124 C125 1.391 . S
C125 H113 0.950 . S
C125 C121 1.393 . S
C125 C124 1.391 . S
C126 H116 0.950 . S
C126 C127 1.386 . S
C126 C128 1.391 . S
C127 C126 1.386 . S
C127 C131 1.393 . S
C128 H117 0.950 . S
C128 C126 1.391 . S
C128 C129 1.400 . S
C129 C123 1.491 . S
C129 C128 1.400 . S
C129 C130 1.398 . S
C130 H118 0.950 . S
C130 C129 1.398 . S
C130 C131 1.391 . S
C131 H119 0.950 . S
C131 C127 1.393 . S
C131 C130 1.391 . S
H132 C140 0.950 . S
H133 C145 0.950 . S
H134 C142 0.950 1_665 S
H135 C144 0.950 . S
H136 C146 0.950 1_545 S
H137 C148 0.950 . S
H138 C150 0.950 . S
H139 C151 0.950 . S
C140 H132 0.950 . S
C140 C141 1.386 . S
C140 C142 1.391 1_655 S
C141 C140 1.386 . S
C141 C145 1.393 1_655 S
C142 H134 0.950 1_445 S
C142 C140 1.391 1_455 S
C142 C143 1.400 . S
C143 C142 1.400 . S
C143 C144 1.398 . S
C143 C149 1.491 . S
C144 H135 0.950 . S
C144 C143 1.398 . S
C144 C145 1.391 . S
C145 H133 0.950 . S
C145 C141 1.393 1_455 S
C145 C144 1.391 . S
C146 H136 0.950 1_565 S
C146 C147 1.386 . S
C146 C148 1.391 1_565 S
C147 C146 1.386 . S
C147 C151 1.393 . S
C148 H137 0.950 . S
C148 C146 1.391 1_545 S
C148 C149 1.400 . S
C149 C143 1.491 . S
C149 C148 1.400 . S
C149 C150 1.398 1_545 S
C150 H138 0.950 . S
C150 C149 1.398 1_565 S
C150 C151 1.391 . S
C151 H139 0.950 . S
C151 C147 1.393 . S
C151 C150 1.391 . S
H152 C160 0.950 . S
H153 C165 0.950 . S
H154 C162 0.950 . S
H155 C164 0.950 . S
H156 C166 0.950 . S
H157 C168 0.950 . S
H158 C170 0.950 . S
H159 C171 0.950 . S
C160 H152 0.950 . S
C160 C161 1.386 . S
C160 C162 1.391 . S
C161 C160 1.386 . S
C161 C165 1.393 . S
C162 H154 0.950 . S
C162 C160 1.391 . S
C162 C163 1.400 . S
C163 C162 1.400 . S
C163 C164 1.398 . S
C163 C169 1.491 . S
C164 H155 0.950 . S
C164 C163 1.398 . S
C164 C165 1.391 . S
C165 H153 0.950 . S
C165 C161 1.393 . S
C165 C164 1.391 . S
C166 H156 0.950 . S
C166 C167 1.386 . S
C166 C168 1.391 1_455 S
C167 C166 1.386 . S
C167 C171 1.393 1_455 S
C168 H157 0.950 . S
C168 C166 1.391 1_655 S
C168 C169 1.400 . S
C169 C163 1.491 . S
C169 C168 1.400 . S
C169 C170 1.398 . S
C170 H158 0.950 . S
C170 C169 1.398 . S
C170 C171 1.391 . S
C171 H159 0.950 . S
C171 C167 1.393 1_655 S
C171 C170 1.391 . S
H172 C180 0.950 . S
H173 C185 0.950 . S
H174 C182 0.956 . S
H175 C184 0.950 . S
H176 C186 0.950 . S
H177 C188 0.950 . S
H178 C190 0.950 . S
H179 C191 0.950 . S
C180 H172 0.950 . S
C180 C181 1.386 . S
C180 C182 1.385 1_545 S
C181 C180 1.386 . S
C181 C185 1.393 . S
C182 H174 0.956 . S
C182 C180 1.385 1_565 S
C182 C183 1.401 . S
C183 C182 1.401 . S
C183 C184 1.398 1_565 S
C183 C189 1.491 . S
C184 H175 0.950 . S
C184 C183 1.398 1_545 S
C184 C185 1.391 . S
C185 H173 0.950 . S
C185 C181 1.393 . S
C185 C184 1.391 . S
C186 H176 0.950 . S
C186 C187 1.386 . S
C186 C188 1.391 . S
C187 C186 1.386 . S
C187 C191 1.393 . S
C188 H177 0.950 . S
C188 C186 1.391 . S
C188 C189 1.400 . S
C189 C183 1.491 . S
C189 C188 1.400 . S
C189 C190 1.398 . S
C190 H178 0.950 . S
C190 C189 1.398 . S
C190 C191 1.391 . S
C191 H179 0.950 . S
C191 C187 1.393 . S
C191 C190 1.391 . S
H192 C200 0.950 . S
H193 C205 0.950 . S
H194 C202 0.950 . S
H195 C204 0.950 . S
H196 C206 0.950 . S
H197 C208 0.950 . S
H198 C210 0.950 . S
H199 C211 0.950 . S
C200 H192 0.950 . S
C200 C201 1.386 . S
C200 C202 1.391 . S
C201 C200 1.386 . S
C201 C205 1.393 . S
C202 H194 0.950 . S
C202 C200 1.391 . S
C202 C203 1.400 . S
C203 C202 1.400 . S
C203 C204 1.398 . S
C203 C209 1.491 . S
C204 H195 0.950 . S
C204 C203 1.398 . S
C204 C205 1.391 . S
C205 H193 0.950 . S
C205 C201 1.393 . S
C205 C204 1.391 . S
C206 H196 0.950 . S
C206 C207 1.386 . S
C206 C208 1.391 . S
C207 C206 1.386 . S
C207 C211 1.393 . S
C208 H197 0.950 . S
C208 C206 1.391 . S
C208 C209 1.400 . S
C209 C203 1.491 . S
C209 C208 1.400 . S
C209 C210 1.398 . S
C210 H198 0.950 . S
C210 C209 1.398 . S
C210 C211 1.391 . S
C211 H199 0.950 . S
C211 C207 1.393 . S
C211 C210 1.391 . S
H212 C220 0.950 . S
H213 C225 0.950 . S
H214 C222 0.950 . S
H215 C224 0.950 . S
H216 C226 0.950 . S
H217 C228 0.950 . S
H218 C230 0.950 1_455 S
H219 C231 0.950 . S
C220 H212 0.950 . S
C220 C221 1.386 . S
C220 C222 1.391 . S
C221 C220 1.386 . S
C221 C225 1.393 . S
C222 H214 0.950 . S
C222 C220 1.391 . S
C222 C223 1.400 1_545 S
C223 C222 1.400 1_565 S
C223 C224 1.398 . S
C223 C229 1.491 . S
C224 H215 0.950 . S
C224 C223 1.398 . S
C224 C225 1.391 1_565 S
C225 H213 0.950 . S
C225 C221 1.393 . S
C225 C224 1.391 1_545 S
C226 H216 0.950 . S
C226 C227 1.386 1_655 S
C226 C228 1.391 . S
C227 C226 1.386 1_455 S
C227 C231 1.393 . S
C228 H217 0.950 . S
C228 C226 1.391 . S
C228 C229 1.400 . S
C229 C223 1.491 . S
C229 C228 1.400 . S
C229 C230 1.398 . S
C230 H218 0.950 1_655 S
C230 C229 1.398 . S
C230 C231 1.391 1_655 S
C231 H219 0.950 . S
C231 C227 1.393 . S
C231 C230 1.391 1_455 S
H232 C240 0.950 . S
H233 C245 0.950 . S
H234 C242 0.950 . S
H235 C244 0.950 . S
H236 C246 0.950 . S
H237 C248 0.950 . S
H238 C250 0.950 . S
H239 C251 0.950 . S
C240 H232 0.950 . S
C240 C241 1.386 . S
C240 C242 1.391 . S
C241 C240 1.386 . S
C241 C245 1.393 . S
C242 H234 0.950 . S
C242 C240 1.391 . S
C242 C243 1.400 . S
C243 C242 1.400 . S
C243 C244 1.398 . S
C243 C249 1.491 . S
C244 H235 0.950 . S
C244 C243 1.398 . S
C244 C245 1.391 . S
C245 H233 0.950 . S
C245 C241 1.393 . S
C245 C244 1.391 . S
C246 H236 0.950 . S
C246 C247 1.386 1_455 S
C246 C248 1.391 . S
C247 C246 1.386 1_655 S
C247 C251 1.393 . S
C248 H237 0.950 . S
C248 C246 1.391 . S
C248 C249 1.400 . S
C249 C243 1.491 . S
C249 C248 1.400 . S
C249 C250 1.398 . S
C250 H238 0.950 . S
C250 C249 1.398 . S
C250 C251 1.391 1_455 S
C251 H239 0.950 . S
C251 C247 1.393 . S
C251 C250 1.391 1_655 S
H252 C260 0.950 . S
H253 C265 0.956 . S
H254 C262 0.950 . S
H255 C264 0.950 . S
H256 C266 0.950 . S
H257 C268 0.950 . S
H258 C270 0.950 1_565 S
H259 C271 0.950 . S
C260 H252 0.950 . S
C260 C261 1.386 . S
C260 C262 1.391 . S
C261 C260 1.386 . S
C261 C265 1.381 1_565 S
C262 H254 0.950 . S
C262 C260 1.391 . S
C262 C263 1.400 1_565 S
C263 C262 1.400 1_545 S
C263 C264 1.398 . S
C263 C269 1.491 . S
C264 H255 0.950 . S
C264 C263 1.398 . S
C264 C265 1.397 . S
C265 H253 0.956 . S
C265 C261 1.381 1_545 S
C265 C264 1.397 . S
C266 H256 0.950 . S
C266 C267 1.386 . S
C266 C268 1.391 . S
C267 C266 1.386 . S
C267 C271 1.393 . S
C268 H257 0.950 . S
C268 C266 1.391 . S
C268 C269 1.400 . S
C269 C263 1.491 . S
C269 C268 1.400 . S
C269 C270 1.398 . S
C270 H258 0.950 1_545 S
C270 C269 1.398 . S
C270 C271 1.391 . S
C271 H259 0.950 . S
C271 C267 1.393 . S
C271 C270 1.391 . S
H272 C280 0.950 . S
H273 C285 0.950 . S
H274 C282 0.950 . S
H275 C284 0.950 . S
H276 C286 0.950 . S
H277 C288 0.950 . S
H278 C290 0.950 . S
H279 C291 0.950 . S
C280 H272 0.950 . S
C280 C281 1.386 . S
C280 C282 1.391 . S
C281 C280 1.386 . S
C281 C285 1.393 . S
C282 H274 0.950 . S
C282 C280 1.391 . S
C282 C283 1.400 . S
C283 C282 1.400 . S
C283 C284 1.398 . S
C283 C289 1.491 1_455 S
C284 H275 0.950 . S
C284 C283 1.398 . S
C284 C285 1.391 . S
C285 H273 0.950 . S
C285 C281 1.393 . S
C285 C284 1.391 . S
C286 H276 0.950 . S
C286 C287 1.386 . S
C286 C288 1.391 . S
C287 C286 1.386 . S
C287 C291 1.393 . S
C288 H277 0.950 . S
C288 C286 1.391 . S
C288 C289 1.400 . S
C289 C283 1.491 1_655 S
C289 C288 1.400 . S
C289 C290 1.398 . S
C290 H278 0.950 . S
C290 C289 1.398 . S
C290 C291 1.391 . S
C291 H279 0.950 . S
C291 C287 1.393 . S
C291 C290 1.391 . S
H292 C300 0.957 . S
H293 C305 0.950 . S
H294 C302 0.950 . S
H295 C304 0.950 . S
H296 C306 0.957 . S
H297 C308 0.950 . S
H298 C310 0.950 . S
H299 C311 0.950 . S
C300 H292 0.957 . S
C300 C301 1.374 1_545 S
C300 C302 1.396 . S
C301 C300 1.374 1_565 S
C301 C305 1.393 . S
C302 H294 0.950 . S
C302 C300 1.396 . S
C302 C303 1.400 1_545 S
C303 C302 1.400 1_565 S
C303 C304 1.398 . S
C303 C309 1.491 1_565 S
C304 H295 0.950 . S
C304 C303 1.398 . S
C304 C305 1.391 . S
C305 H293 0.950 . S
C305 C301 1.393 . S
C305 C304 1.391 . S
C306 H296 0.957 . S
C306 C307 1.374 1_565 S
C306 C308 1.396 . S
C307 C306 1.374 1_545 S
C307 C311 1.393 . S
C308 H297 0.950 . S
C308 C306 1.396 . S
C308 C309 1.400 1_565 S
C309 C303 1.491 1_545 S
C309 C308 1.400 1_545 S
C309 C310 1.398 . S
C310 H298 0.950 . S
C310 C309 1.398 . S
C310 C311 1.391 . S
C311 H299 0.950 . S
C311 C307 1.393 . S
C311 C310 1.391 . S
H312 C320 0.950 . S
H313 C325 0.950 . S
H314 C322 0.950 . S
H315 C324 0.950 1_556 S
H316 C326 0.950 . S
H317 C328 0.950 . S
H318 C330 0.950 1_554 S
H319 C331 0.950 . S
C320 H312 0.950 . S
C320 C321 1.386 . S
C320 C322 1.391 . S
C321 C320 1.386 . S
C321 C325 1.393 . S
C322 H314 0.950 . S
C322 C320 1.391 . S
C322 C323 1.400 . S
C323 C322 1.400 . S
C323 C324 1.398 . S
C323 C329 1.491 1_554 S
C324 H315 0.950 1_554 S
C324 C323 1.398 . S
C324 C325 1.391 . S
C325 H313 0.950 . S
C325 C321 1.393 . S
C325 C324 1.391 . S
C326 H316 0.950 . S
C326 C327 1.386 . S
C326 C328 1.391 . S
C327 C326 1.386 . S
C327 C331 1.393 . S
C328 H317 0.950 . S
C328 C326 1.391 . S
C328 C329 1.400 . S
C329 C323 1.491 1_556 S
C329 C328 1.400 . S
C329 C330 1.398 . S
C330 H318 0.950 1_556 S
C330 C329 1.398 . S
C330 C331 1.391 . S
C331 H319 0.950 . S
C331 C327 1.393 . S
C331 C330 1.391 . S
H332 C340 0.950 1_545 S
H333 C345 0.950 . S
H334 C342 0.950 1_655 S
H335 C344 0.950 1_554 S
H336 C346 0.950 1_565 S
H337 C348 0.950 1_455 S
H338 C350 0.950 1_556 S
H339 C351 0.950 . S
C340 H332 0.950 1_565 S
C340 C341 1.386 . S
C340 C342 1.391 1_565 S
C341 C340 1.386 . S
C341 C345 1.393 . S
C342 H334 0.950 1_455 S
C342 C340 1.391 1_545 S
C342 C343 1.400 1_545 S
C343 C342 1.400 1_565 S
C343 C344 1.398 . S
C343 C349 1.491 1_466 S
C344 H335 0.950 1_556 S
C344 C343 1.398 . S
C344 C345 1.391 . S
C345 H333 0.950 . S
C345 C341 1.393 . S
C345 C344 1.391 . S
C346 H336 0.950 1_545 S
C346 C347 1.386 . S
C346 C348 1.391 1_545 S
C347 C346 1.386 . S
C347 C351 1.393 . S
C348 H337 0.950 1_655 S
C348 C346 1.391 1_565 S
C348 C349 1.400 1_565 S
C349 C343 1.491 1_644 S
C349 C348 1.400 1_545 S
C349 C350 1.398 . S
C350 H338 0.950 1_554 S
C350 C349 1.398 . S
C350 C351 1.391 . S
C351 H339 0.950 . S
C351 C347 1.393 . S
C351 C350 1.391 . S
H352 C360 0.950 . S
H353 C365 0.950 . S
H354 C362 0.950 . S
H355 C364 0.950 . S
H356 C366 0.950 . S
H357 C368 0.950 . S
H358 C370 0.950 . S
H359 C371 0.950 . S
C360 H352 0.950 . S
C360 C361 1.386 . S
C360 C362 1.391 . S
C361 C360 1.386 . S
C361 C365 1.393 . S
C362 H354 0.950 . S
C362 C360 1.391 . S
C362 C363 1.400 . S
C363 C362 1.400 . S
C363 C364 1.398 . S
C363 C369 1.491 . S
C364 H355 0.950 . S
C364 C363 1.398 . S
C364 C365 1.391 . S
C365 H353 0.950 . S
C365 C361 1.393 . S
C365 C364 1.391 . S
C366 H356 0.950 . S
C366 C367 1.386 . S
C366 C368 1.391 . S
C367 C366 1.386 . S
C367 C371 1.393 . S
C368 H357 0.950 . S
C368 C366 1.391 . S
C368 C369 1.400 . S
C369 C363 1.491 . S
C369 C368 1.400 . S
C369 C370 1.398 . S
C370 H358 0.950 . S
C370 C369 1.398 . S
C370 C371 1.391 . S
C371 H359 0.950 . S
C371 C367 1.393 . S
C371 C370 1.391 . S
H372 C380 0.950 . S
H373 C385 0.950 . S
H374 C382 0.950 . S
H375 C384 0.950 . S
H376 C386 0.950 . S
H377 C388 0.950 . S
H378 C390 0.950 . S
H379 C391 0.950 . S
C380 H372 0.950 . S
C380 C381 1.386 . S
C380 C382 1.391 . S
C381 C380 1.386 . S
C381 C385 1.393 . S
C382 H374 0.950 . S
C382 C380 1.391 . S
C382 C383 1.400 . S
C383 C382 1.400 . S
C383 C384 1.398 . S
C383 C389 1.491 . S
C384 H375 0.950 . S
C384 C383 1.398 . S
C384 C385 1.391 . S
C385 H373 0.950 . S
C385 C381 1.393 . S
C385 C384 1.391 . S
C386 H376 0.950 . S
C386 C387 1.386 . S
C386 C388 1.391 . S
C387 C386 1.386 . S
C387 C391 1.393 . S
C388 H377 0.950 . S
C388 C386 1.391 . S
C388 C389 1.400 . S
C389 C383 1.491 . S
C389 C388 1.400 . S
C389 C390 1.398 . S
C390 H378 0.950 . S
C390 C389 1.398 . S
C390 C391 1.391 . S
C391 H379 0.950 . S
C391 C387 1.393 . S
C391 C390 1.391 . S
H392 C400 0.950 . S
H393 C405 0.950 . S
H394 C402 0.950 . S
H395 C404 0.950 . S
H396 C406 0.950 . S
H397 C408 0.950 . S
H398 C410 0.950 . S
H399 C411 0.950 . S
C400 H392 0.950 . S
C400 C401 1.386 . S
C400 C402 1.391 . S
C401 C400 1.386 . S
C401 C405 1.393 . S
C402 H394 0.950 . S
C402 C400 1.391 . S
C402 C403 1.400 . S
C403 C402 1.400 . S
C403 C404 1.398 . S
C403 C409 1.491 . S
C404 H395 0.950 . S
C404 C403 1.398 . S
C404 C405 1.391 . S
C405 H393 0.950 . S
C405 C401 1.393 . S
C405 C404 1.391 . S
C406 H396 0.950 . S
C406 C407 1.386 . S
C406 C408 1.391 . S
C407 C406 1.386 . S
C407 C411 1.393 . S
C408 H397 0.950 . S
C408 C406 1.391 . S
C408 C409 1.400 . S
C409 C403 1.491 . S
C409 C408 1.400 . S
C409 C410 1.398 . S
C410 H398 0.950 . S
C410 C409 1.398 . S
C410 C411 1.391 . S
C411 H399 0.950 . S
C411 C407 1.393 . S
C411 C410 1.391 . S
H412 C420 0.950 . S
H413 C425 0.950 . S
H414 C422 0.950 . S
H415 C424 0.950 . S
H416 C426 0.950 . S
H417 C428 0.950 . S
H418 C430 0.950 . S
H419 C431 0.950 . S
C420 H412 0.950 . S
C420 C421 1.386 . S
C420 C422 1.391 . S
C421 C420 1.386 . S
C421 C425 1.393 . S
C422 H414 0.950 . S
C422 C420 1.391 . S
C422 C423 1.400 . S
C423 C422 1.400 . S
C423 C424 1.398 . S
C423 C429 1.491 . S
C424 H415 0.950 . S
C424 C423 1.398 . S
C424 C425 1.391 . S
C425 H413 0.950 . S
C425 C421 1.393 . S
C425 C424 1.391 . S
C426 H416 0.950 . S
C426 C427 1.386 . S
C426 C428 1.391 . S
C427 C426 1.386 . S
C427 C431 1.393 . S
C428 H417 0.950 . S
C428 C426 1.391 . S
C428 C429 1.400 . S
C429 C423 1.491 . S
C429 C428 1.400 . S
C429 C430 1.398 . S
C430 H418 0.950 . S
C430 C429 1.398 . S
C430 C431 1.391 . S
C431 H419 0.950 . S
C431 C427 1.393 . S
C431 C430 1.391 . S
C121 C13 1.167 . S
C127 C36 1.178 . S
C141 C50 1.160 . S
C147 C27 1.137 . S
C161 C41 1.165 . S
C167 C8 1.181 . S
C181 C55 1.167 . S
C187 C22 1.177 . S
C201 C92 1.177 . S
C207 C69 1.167 . S
C221 C83 1.163 . S
C227 C106 1.172 . S
C241 C97 1.167 . S
C247 C64 1.177 . S
C261 C111 1.156 . S
C267 C78 1.165 . S
C281 C7 1.517 . S
C287 C63 1.517 . S
C301 C21 1.515 . S
C307 C77 1.515 . S
C321 C35 1.513 . S
C327 C91 1.513 . S
C341 C105 1.513 . S
C347 C49 1.513 . S
C361 C11 1.512 . S
C367 C25 1.516 . S
C381 C53 1.510 . S
C387 C39 1.516 . S
C401 C81 1.511 . S
C407 C67 1.516 . S
C421 C95 1.513 . S
C427 C109 1.507 . S
