# Generated by pormake.
# Topology mmt, (4)-cn, num edge types: 1
# Building blocks:
#     Node 0, Type 0, BuildingBlock: GALJAG_clean_sbu_0, # of connection points: 4
#     Node 1, Type 0, BuildingBlock: GALJAG_clean_sbu_0, # of connection points: 4
#     Node 2, Type 0, BuildingBlock: GALJAG_clean_sbu_0, # of connection points: 4
#     Node 3, Type 0, BuildingBlock: GALJAG_clean_sbu_0, # of connection points: 4
#     Node 4, Type 0, BuildingBlock: GALJAG_clean_sbu_0, # of connection points: 4
#     Node 5, Type 0, BuildingBlock: GALJAG_clean_sbu_0, # of connection points: 4
#     Node 6, Type 0, BuildingBlock: GALJAG_clean_sbu_0, # of connection points: 4
#     Node 7, Type 0, BuildingBlock: GALJAG_clean_sbu_0, # of connection points: 4
#     Edge 8, Type (0, 0), BuildingBlock: MIFKUJ_clean_linker_0, # of connection points: 2
#     Edge 9, Type (0, 0), BuildingBlock: MIFKUJ_clean_linker_0, # of connection points: 2
#     Edge 10, Type (0, 0), BuildingBlock: MIFKUJ_clean_linker_0, # of connection points: 2
#     Edge 11, Type (0, 0), BuildingBlock: MIFKUJ_clean_linker_0, # of connection points: 2
#     Edge 12, Type (0, 0), BuildingBlock: MIFKUJ_clean_linker_0, # of connection points: 2
#     Edge 13, Type (0, 0), BuildingBlock: MIFKUJ_clean_linker_0, # of connection points: 2
#     Edge 14, Type (0, 0), BuildingBlock: MIFKUJ_clean_linker_0, # of connection points: 2
#     Edge 15, Type (0, 0), BuildingBlock: MIFKUJ_clean_linker_0, # of connection points: 2
#     Edge 16, Type (0, 0), BuildingBlock: MIFKUJ_clean_linker_0, # of connection points: 2
#     Edge 17, Type (0, 0), BuildingBlock: MIFKUJ_clean_linker_0, # of connection points: 2
#     Edge 18, Type (0, 0), BuildingBlock: MIFKUJ_clean_linker_0, # of connection points: 2
#     Edge 19, Type (0, 0), BuildingBlock: MIFKUJ_clean_linker_0, # of connection points: 2
#     Edge 20, Type (0, 0), BuildingBlock: MIFKUJ_clean_linker_0, # of connection points: 2
#     Edge 21, Type (0, 0), BuildingBlock: MIFKUJ_clean_linker_0, # of connection points: 2
#     Edge 22, Type (0, 0), BuildingBlock: MIFKUJ_clean_linker_0, # of connection points: 2
#     Edge 23, Type (0, 0), BuildingBlock: MIFKUJ_clean_linker_0, # of connection points: 2
# Relax obj value: 0.016
# Max RMSD: 0.061
# Mean RMSD: 0.061
data_MOF--net-mmt--node1-GALJAG_clean_sbu_0--edge1-MIFKUJ_clean_linker_0
_symmetry_space_group_name_H-M    P1
_symmetry_Int_Tables_number       1
_symmetry_cell_setting            triclinic
loop_
_symmetry_equiv_pos_as_xyz
'x, y, z'
_cell_length_a     32.229126
_cell_length_b     47.865925
_cell_length_c     53.220459
_cell_angle_alpha  90.053872
_cell_angle_beta   89.96706
_cell_angle_gamma 89.976484
loop_
_atom_site_label
_atom_site_type_symbol
_atom_site_fract_x
_atom_site_fract_y
_atom_site_fract_z
_atom_type_partial_charge
In0 In 0.12229 0.56032 0.34146 0.0
O1 O 0.19232 0.55331 0.34075 0.0
O2 O 0.15467 0.52289 0.32292 0.0
C3 C 0.0949 0.54202 0.38664 0.0
C4 C 0.14785 0.61418 0.34076 0.0
C5 C 0.05554 0.55559 0.31069 0.0
O6 O 0.11307 0.52605 0.37123 0.0
O7 O 0.0913 0.56694 0.37935 0.0
O8 O 0.0525 0.56019 0.33391 0.0
O9 O 0.09231 0.55391 0.30276 0.0
C10 C 0.19089 0.53116 0.32796 0.0
O11 O 0.13466 0.60187 0.32137 0.0
O12 O 0.14746 0.59952 0.3604 0.0
In13 In 0.38323 0.9333 0.33931 0.0
O14 O 0.32552 0.96136 0.34167 0.0
O15 O 0.33892 0.94161 0.3069 0.0
C16 C 0.41314 0.9477 0.38497 0.0
C17 C 0.3523 0.88103 0.34165 0.0
C18 C 0.45117 0.94573 0.31156 0.0
O19 O 0.39468 0.96477 0.37079 0.0
O20 O 0.41589 0.9232 0.37635 0.0
O21 O 0.44267 0.92111 0.31821 0.0
O22 O 0.42528 0.96383 0.31862 0.0
C23 C 0.31485 0.95723 0.31917 0.0
O24 O 0.37528 0.88921 0.3239 0.0
O25 O 0.34571 0.89901 0.35857 0.0
In26 In 0.62267 0.44047 0.16238 0.0
O27 O 0.63655 0.3977 0.17976 0.0
O28 O 0.6543 0.40439 0.14185 0.0
C29 C 0.55411 0.44857 0.19089 0.0
C30 C 0.69122 0.46583 0.18078 0.0
C31 C 0.59289 0.46063 0.11847 0.0
O32 O 0.5597 0.42649 0.17833 0.0
O33 O 0.58295 0.46622 0.18908 0.0
O34 O 0.61081 0.47595 0.13443 0.0
O35 O 0.59029 0.43525 0.12459 0.0
C36 C 0.6535 0.38789 0.16028 0.0
O37 O 0.68562 0.46222 0.15753 0.0
O38 O 0.66231 0.45685 0.19452 0.0
In39 In 0.8836 0.06723 0.16353 0.0
O40 O 0.83567 0.03167 0.16667 0.0
O41 O 0.83098 0.06569 0.19198 0.0
C42 C 0.91363 0.05524 0.11735 0.0
C43 C 0.85646 0.1204 0.15896 0.0
C44 C 0.94754 0.0517 0.19338 0.0
O45 O 0.87918 0.04609 0.12513 0.0
O46 O 0.93241 0.07096 0.13264 0.0
O47 O 0.93764 0.07693 0.19012 0.0
O48 O 0.92512 0.03441 0.1818 0.0
C49 C 0.81633 0.0427 0.18475 0.0
O50 O 0.87747 0.11204 0.17748 0.0
O51 O 0.85001 0.10213 0.14228 0.0
In52 In 0.87549 0.43645 0.66307 0.0
O53 O 0.87357 0.39003 0.67299 0.0
O54 O 0.82733 0.40571 0.64825 0.0
C55 C 0.94481 0.44471 0.69098 0.0
C56 C 0.81058 0.46117 0.6862 0.0
C57 C 0.90121 0.45349 0.61705 0.0
O58 O 0.94192 0.42548 0.6749 0.0
O59 O 0.91276 0.45956 0.69317 0.0
O60 O 0.88794 0.47037 0.63343 0.0
O61 O 0.90038 0.42825 0.62367 0.0
C62 C 0.84167 0.38495 0.65999 0.0
O63 O 0.82243 0.46839 0.66449 0.0
O64 O 0.83177 0.44193 0.69612 0.0
In65 In 0.62656 0.05874 0.65972 0.0
O66 O 0.69017 0.03846 0.65544 0.0
O67 O 0.65633 0.03022 0.68896 0.0
C68 C 0.60799 0.03778 0.61386 0.0
C69 C 0.65426 0.1124 0.66176 0.0
C70 C 0.55635 0.05511 0.68763 0.0
O71 O 0.60847 0.023 0.63347 0.0
O72 O 0.61832 0.06293 0.61723 0.0
O73 O 0.55626 0.05719 0.66405 0.0
O74 O 0.592 0.05536 0.69741 0.0
C75 C 0.68953 0.02675 0.6767 0.0
O76 O 0.61748 0.10642 0.65587 0.0
O77 O 0.6765 0.09158 0.66673 0.0
In78 In 0.37366 0.56303 0.84236 0.0
O79 O 0.31209 0.53938 0.84364 0.0
O80 O 0.34181 0.54338 0.80823 0.0
C81 C 0.40045 0.551 0.88933 0.0
C82 C 0.34175 0.61529 0.84378 0.0
C83 C 0.44211 0.55111 0.81502 0.0
O84 O 0.38285 0.53328 0.87541 0.0
O85 O 0.40374 0.57502 0.87983 0.0
O86 O 0.42146 0.57326 0.81173 0.0
O87 O 0.42802 0.53516 0.83183 0.0
C88 C 0.31101 0.53438 0.82038 0.0
O89 O 0.37816 0.61039 0.83615 0.0
O90 O 0.32194 0.59398 0.8508 0.0
In91 In 0.12499 0.94162 0.84095 0.0
O92 O 0.18586 0.9659 0.84155 0.0
O93 O 0.15862 0.95741 0.80593 0.0
C94 C 0.09722 0.9574 0.88705 0.0
C95 C 0.15699 0.88929 0.84461 0.0
C96 C 0.06 0.95279 0.81046 0.0
O97 O 0.12369 0.97125 0.8749 0.0
O98 O 0.0854 0.9354 0.87625 0.0
O99 O 0.07585 0.92874 0.8122 0.0
O100 O 0.07732 0.97123 0.82378 0.0
C101 C 0.18841 0.96816 0.81795 0.0
O102 O 0.11895 0.8937 0.84078 0.0
O103 O 0.17847 0.91106 0.84695 0.0
H104 H 0.19597 0.48417 0.2987 0.0
H105 H 0.2574 0.46633 0.27672 0.0
H106 H 0.33188 0.53104 0.31057 0.0
H107 H 0.27079 0.54895 0.33253 0.0
H108 H 0.34044 0.52871 0.25921 0.0
H109 H 0.34221 0.46417 0.32905 0.0
H110 H 0.31227 0.42839 0.357 0.0
H111 H 0.29384 0.37379 0.29393 0.0
H112 H 0.32318 0.40941 0.26554 0.0
H113 H 0.54166 0.49086 0.22417 0.0
H114 H 0.47918 0.50109 0.24836 0.0
H115 H 0.41878 0.42906 0.21612 0.0
H116 H 0.48201 0.41822 0.19229 0.0
H117 H 0.39978 0.43325 0.26458 0.0
H118 H 0.39763 0.49508 0.19469 0.0
H119 H 0.42496 0.52999 0.16495 0.0
H120 H 0.43968 0.58887 0.22521 0.0
H121 H 0.41301 0.55415 0.25539 0.0
C122 C 0.22559 0.49428 0.30179 0.0
C123 C 0.22855 0.51798 0.31732 0.0
C124 C 0.26066 0.48406 0.28923 0.0
C125 C 0.29921 0.49738 0.29201 0.0
C126 C 0.30241 0.5205 0.30812 0.0
C127 C 0.2675 0.53062 0.32075 0.0
C128 C 0.33572 0.48845 0.27698 0.0
C129 C 0.35377 0.50795 0.26063 0.0
C130 C 0.35197 0.46101 0.27806 0.0
C131 C 0.33449 0.43957 0.29514 0.0
C132 C 0.33145 0.44463 0.32111 0.0
C133 C 0.31466 0.42436 0.33704 0.0
C134 C 0.30105 0.39886 0.32724 0.0
C135 C 0.30433 0.39356 0.3015 0.0
C136 C 0.32108 0.41377 0.28548 0.0
C137 C 0.51514 0.47712 0.22227 0.0
C138 C 0.5166 0.45386 0.20618 0.0
C139 C 0.47936 0.48306 0.23605 0.0
C140 C 0.44394 0.46617 0.2337 0.0
C141 C 0.44565 0.44245 0.21815 0.0
C142 C 0.48172 0.43632 0.20451 0.0
C143 C 0.40512 0.47374 0.24721 0.0
C144 C 0.38645 0.45399 0.26312 0.0
C145 C 0.38778 0.50087 0.24546 0.0
C146 C 0.40364 0.52191 0.22734 0.0
C147 C 0.40697 0.5154 0.20163 0.0
C148 C 0.4223 0.53517 0.18469 0.0
C149 C 0.43413 0.56162 0.19319 0.0
C150 C 0.43054 0.56837 0.21865 0.0
C151 C 0.41528 0.54866 0.23569 0.0
H152 H 0.446 0.57689 0.18004 0.0
H153 H 0.28806 0.3832 0.33961 0.0
H154 H 0.98747 0.00169 0.1925 0.0
H155 H 0.04792 0.98763 0.21696 0.0
H156 H 0.0478 0.06765 0.2545 0.0
H157 H 0.98842 0.08231 0.22896 0.0
H158 H 0.12251 0.05536 0.24427 0.0
H159 H 0.01423 0.0045 0.28371 0.0
H160 H 0.95321 0.97366 0.2869 0.0
H161 H 0.02358 0.90576 0.25575 0.0
H162 H 0.08489 0.9363 0.25203 0.0
H163 H 0.2671 0.00035 0.3368 0.0
H164 H 0.20267 0.0186 0.31829 0.0
H165 H 0.21107 0.95756 0.25887 0.0
H166 H 0.27571 0.93972 0.27682 0.0
H167 H 0.13014 0.96243 0.28523 0.0
H168 H 0.23704 0.01771 0.24374 0.0
H169 H 0.2969 0.04978 0.24351 0.0
H170 H 0.22567 0.11112 0.28369 0.0
H171 H 0.16555 0.0792 0.28447 0.0
C172 C 1.00023 0.01623 0.20606 0.0
C173 C 0.98319 0.04303 0.20893 0.0
C174 C 0.03465 0.00811 0.22019 0.0
C175 C 0.05204 0.02632 0.23805 0.0
C176 C 0.03495 0.05316 0.24094 0.0
C177 C 1.00097 0.0615 0.2264 0.0
C178 C 0.08889 0.01759 0.25297 0.0
C179 C 0.12373 0.03525 0.25361 0.0
C180 C 0.09088 0.99129 0.26516 0.0
C181 C 0.0541 0.97278 0.26742 0.0
C182 C 0.01663 0.98305 0.27738 0.0
C183 C 0.98199 0.96561 0.2793 0.0
C184 C 0.98449 0.93779 0.27149 0.0
C185 C 0.02168 0.92732 0.26178 0.0
C186 C 0.0564 0.94468 0.25979 0.0
C187 C 0.25521 0.99093 0.31975 0.0
C188 C 0.27641 0.9687 0.30817 0.0
C189 C 0.21852 0.00135 0.30923 0.0
C190 C 0.20226 0.98936 0.28727 0.0
C191 C 0.22318 0.96702 0.27586 0.0
C192 C 0.26015 0.95697 0.28606 0.0
C193 C 0.16341 0.99997 0.27598 0.0
C194 C 0.12836 0.98266 0.2761 0.0
C195 C 0.16092 0.02677 0.265 0.0
C196 C 0.197 0.04594 0.26444 0.0
C197 C 0.23429 0.03792 0.25275 0.0
C198 C 0.26823 0.05609 0.25246 0.0
C199 C 0.26514 0.08244 0.26365 0.0
C200 C 0.22805 0.09069 0.27508 0.0
C201 C 0.19404 0.07257 0.27543 0.0
H202 H 0.29145 0.09648 0.2634 0.0
H203 H 0.95764 0.92432 0.27299 0.0
H204 H 0.76303 0.47955 0.1562 0.0
H205 H 0.82653 0.4991 0.17459 0.0
H206 H 0.76783 0.50104 0.24742 0.0
H207 H 0.70454 0.48147 0.22926 0.0
H208 H 0.81186 0.54963 0.23678 0.0
H209 H 0.83192 0.44942 0.2337 0.0
H210 H 0.83556 0.40361 0.21258 0.0
H211 H 0.93318 0.43376 0.16483 0.0
H212 H 0.92969 0.47991 0.18546 0.0
H213 H 0.9744 0.55415 0.32491 0.0
H214 H 0.9142 0.54339 0.29889 0.0
H215 H 0.99335 0.53605 0.23379 0.0
H216 H 0.05406 0.5462 0.25997 0.0
H217 H 0.94143 0.49362 0.23563 0.0
H218 H 0.92702 0.59234 0.24139 0.0
H219 H 0.92368 0.63835 0.26215 0.0
H220 H 0.81632 0.61224 0.30375 0.0
H221 H 0.81934 0.56591 0.28349 0.0
C222 C 0.76364 0.48432 0.17609 0.0
C223 C 0.72893 0.47888 0.19133 0.0
C224 C 0.7999 0.49542 0.18656 0.0
C225 C 0.8019 0.50136 0.21239 0.0
C226 C 0.76689 0.49664 0.22745 0.0
C227 C 0.73083 0.48535 0.21707 0.0
C228 C 0.84077 0.51163 0.22405 0.0
C229 C 0.84018 0.53737 0.23668 0.0
C230 C 0.87797 0.49596 0.22324 0.0
C231 C 0.88019 0.4682 0.2109 0.0
C232 C 0.8539 0.44636 0.21855 0.0
C233 C 0.85599 0.42032 0.2067 0.0
C234 C 0.88449 0.4158 0.18732 0.0
C235 C 0.91105 0.4373 0.17981 0.0
C236 C 0.90905 0.4634 0.19157 0.0
C237 C 0.97898 0.55052 0.305 0.0
C238 C 0.01894 0.55106 0.29446 0.0
C239 C 0.94447 0.5445 0.2901 0.0
C240 C 0.94911 0.53926 0.26428 0.0
C241 C 0.98899 0.5401 0.25364 0.0
C242 C 0.02362 0.54598 0.2686 0.0
C243 C 0.9125 0.53152 0.2488 0.0
C244 C 0.91342 0.5062 0.23546 0.0
C245 C 0.87566 0.54768 0.24885 0.0
C246 C 0.8736 0.57556 0.26103 0.0
C247 C 0.90287 0.59633 0.25509 0.0
C248 C 0.90101 0.62248 0.26675 0.0
C249 C 0.86986 0.62819 0.28429 0.0
C250 C 0.84044 0.60778 0.29017 0.0
C251 C 0.84218 0.58158 0.27857 0.0
H252 H 0.86847 0.64846 0.2933 0.0
H253 H 0.88607 0.39562 0.17817 0.0
H254 H 0.763 0.06753 0.21732 0.0
H255 H 0.70271 0.04704 0.23786 0.0
H256 H 0.72639 0.96858 0.20047 0.0
H257 H 0.78631 0.98946 0.17903 0.0
H258 H 0.64638 0.97864 0.20048 0.0
H259 H 0.7506 0.97855 0.26348 0.0
H260 H 0.80647 0.99758 0.29008 0.0
H261 H 0.7215 0.05693 0.32201 0.0
H262 H 0.66522 0.03854 0.29533 0.0
H263 H 0.50447 0.91055 0.28692 0.0
H264 H 0.56806 0.9233 0.26418 0.0
H265 H 0.54709 0.01005 0.28208 0.0
H266 H 0.48339 0.99759 0.30439 0.0
H267 H 0.62919 0.98975 0.29261 0.0
H268 H 0.52657 0.99024 0.22589 0.0
H269 H 0.47189 0.96898 0.19974 0.0
H270 H 0.5567 0.90495 0.17602 0.0
H271 H 0.61175 0.92563 0.20234 0.0
C272 C 0.75542 0.0459 0.21345 0.0
C273 C 0.77953 0.03001 0.19672 0.0
C274 C 0.72104 0.03415 0.22532 0.0
C275 C 0.7105 0.00605 0.22119 0.0
C276 C 0.73407 0.99024 0.20409 0.0
C277 C 0.7683 0.00215 0.1919 0.0
C278 C 0.67463 0.99354 0.23468 0.0
C279 C 0.64305 0.98061 0.22068 0.0
C280 C 0.67002 0.99619 0.26106 0.0
C281 C 0.70374 0.00728 0.27725 0.0
C282 C 0.74388 0.99579 0.27605 0.0
C283 C 0.77562 0.00645 0.29116 0.0
C284 C 0.76756 0.02848 0.30769 0.0
C285 C 0.72771 0.03987 0.30918 0.0
C286 C 0.69586 0.02931 0.29409 0.0
C287 C 0.51339 0.93234 0.28589 0.0
C288 C 0.489 0.9531 0.29737 0.0
C289 C 0.5496 0.93957 0.27289 0.0
C290 C 0.56214 0.9676 0.27147 0.0
C291 C 0.5379 0.9883 0.28301 0.0
C292 C 0.50147 0.98116 0.29565 0.0
C293 C 0.60084 0.97558 0.25832 0.0
C294 C 0.63293 0.98755 0.27245 0.0
C295 C 0.60614 0.97164 0.23219 0.0
C296 C 0.57311 0.95928 0.21632 0.0
C297 C 0.53344 0.97147 0.21529 0.0
C298 C 0.50241 0.95956 0.2004 0.0
C299 C 0.51077 0.93557 0.18629 0.0
C300 C 0.55024 0.9235 0.187 0.0
C301 C 0.58137 0.93531 0.20189 0.0
H302 H 0.48671 0.92639 0.17477 0.0
H303 H 0.79218 0.03671 0.31938 0.0
H304 H 0.49307 0.50641 0.82168 0.0
H305 H 0.55646 0.49509 0.79871 0.0
H306 H 0.54085 0.56873 0.75304 0.0
H307 H 0.47692 0.58021 0.77599 0.0
H308 H 0.56222 0.52105 0.72526 0.0
H309 H 0.61133 0.56987 0.79858 0.0
H310 H 0.61505 0.57906 0.84414 0.0
H311 H 0.66179 0.49621 0.8566 0.0
H312 H 0.65793 0.48642 0.81113 0.0
H313 H 0.76385 0.50615 0.67147 0.0
H314 H 0.70255 0.52544 0.69258 0.0
H315 H 0.71305 0.46251 0.75026 0.0
H316 H 0.7748 0.44383 0.72976 0.0
H317 H 0.69507 0.50975 0.77123 0.0
H318 H 0.64128 0.45828 0.70093 0.0
H319 H 0.63378 0.44533 0.65631 0.0
H320 H 0.59273 0.52846 0.63897 0.0
H321 H 0.60053 0.54201 0.68347 0.0
C322 C 0.50304 0.52022 0.80673 0.0
C323 C 0.48011 0.54427 0.80069 0.0
C324 C 0.53937 0.51376 0.79368 0.0
C325 C 0.55362 0.53125 0.77437 0.0
C326 C 0.53042 0.55503 0.76794 0.0
C327 C 0.49404 0.56159 0.7811 0.0
C328 C 0.59283 0.52453 0.76106 0.0
C329 C 0.59149 0.51909 0.73517 0.0
C330 C 0.63069 0.52128 0.77417 0.0
C331 C 0.63412 0.52737 0.80145 0.0
C332 C 0.62226 0.55358 0.81105 0.0
C333 C 0.62441 0.5589 0.83685 0.0
C334 C 0.63859 0.53822 0.85325 0.0
C335 C 0.65083 0.51222 0.84387 0.0
C336 C 0.64875 0.50679 0.81807 0.0
C337 C 0.75311 0.49655 0.68871 0.0
C338 C 0.77406 0.47345 0.69893 0.0
C339 C 0.71797 0.50749 0.7007 0.0
C340 C 0.70278 0.49523 0.72288 0.0
C341 C 0.72412 0.4724 0.73322 0.0
C342 C 0.75938 0.46167 0.72142 0.0
C343 C 0.66453 0.50583 0.73536 0.0
C344 C 0.66601 0.51202 0.76116 0.0
C345 C 0.62664 0.50933 0.72222 0.0
C346 C 0.62198 0.50125 0.69547 0.0
C347 C 0.63099 0.47386 0.68756 0.0
C348 C 0.62663 0.4664 0.6623 0.0
C349 C 0.61292 0.48608 0.6448 0.0
C350 C 0.60344 0.51325 0.65254 0.0
C351 C 0.60781 0.52084 0.67778 0.0
H352 H 0.60954 0.48026 0.62525 0.0
H353 H 0.64016 0.54235 0.87323 0.0
H354 H 0.69534 0.99898 0.7214 0.0
H355 H 0.75864 0.98274 0.74213 0.0
H356 H 0.83095 0.00904 0.67813 0.0
H357 H 0.76767 0.02458 0.65705 0.0
H358 H 0.86253 0.96267 0.69642 0.0
H359 H 0.82061 0.05096 0.73004 0.0
H360 H 0.77277 0.08488 0.74953 0.0
H361 H 0.76271 0.03276 0.81488 0.0
H362 H 0.81008 0.99833 0.79561 0.0
H363 H 0.02813 0.00379 0.79841 0.0
H364 H 0.96653 0.01383 0.77323 0.0
H365 H 0.94649 0.92545 0.76257 0.0
H366 H 0.00901 0.91538 0.787 0.0
H367 H 0.88967 0.00352 0.78054 0.0
H368 H 0.89614 0.91316 0.70776 0.0
H369 H 0.94844 0.88471 0.68552 0.0
H370 H 0.03801 0.95043 0.69394 0.0
H371 H 0.98612 0.9794 0.71592 0.0
C372 C 0.72464 0.00083 0.71157 0.0
C373 C 0.72659 0.01325 0.68768 0.0
C374 C 0.76083 0.99168 0.72348 0.0
C375 C 0.79968 0.9952 0.71191 0.0
C376 C 0.80139 0.00618 0.68748 0.0
C377 C 0.76517 0.0151 0.67546 0.0
C378 C 0.83866 0.98914 0.72582 0.0
C379 C 0.86841 0.97148 0.71487 0.0
C380 C 0.84692 0.00125 0.74958 0.0
C381 C 0.81854 0.02194 0.76127 0.0
C382 C 0.80795 0.04664 0.74849 0.0
C383 C 0.78096 0.06597 0.7595 0.0
C384 C 0.76462 0.06094 0.7834 0.0
C385 C 0.77534 0.0366 0.79635 0.0
C386 C 0.80227 0.01718 0.7854 0.0
C387 C 0.01077 0.98652 0.79051 0.0
C388 C 0.02344 0.95881 0.7946 0.0
C389 C 0.97547 0.99226 0.77619 0.0
C390 C 0.95191 0.97043 0.76579 0.0
C391 C 0.96451 0.9427 0.76994 0.0
C392 C 1.00016 0.93695 0.78401 0.0
C393 C 0.91356 0.97678 0.7513 0.0
C394 C 0.88381 0.99452 0.76216 0.0
C395 C 0.906 0.96547 0.72711 0.0
C396 C 0.93735 0.9483 0.71373 0.0
C397 C 0.92696 0.92156 0.70479 0.0
C398 C 0.95654 0.90534 0.69224 0.0
C399 C 0.99656 0.91572 0.6884 0.0
C400 C 0.00705 0.94237 0.69702 0.0
C401 C 0.97758 0.95868 0.70956 0.0
H402 H 0.01942 0.90312 0.67869 0.0
H403 H 0.74374 0.07594 0.7919 0.0
H404 H 0.2326 0.52882 0.83871 0.0
H405 H 0.17215 0.50965 0.81715 0.0
H406 H 0.24869 0.48896 0.75314 0.0
H407 H 0.30881 0.50963 0.77421 0.0
H408 H 0.18279 0.51029 0.73668 0.0
H409 H 0.20749 0.43823 0.79638 0.0
H410 H 0.22021 0.41725 0.83797 0.0
H411 H 0.10225 0.44736 0.864 0.0
H412 H 0.08904 0.46884 0.82266 0.0
H413 H 0.02306 0.42611 0.68077 0.0
H414 H 0.08711 0.43759 0.70344 0.0
H415 H 0.01679 0.4865 0.75657 0.0
H416 H 0.95277 0.47568 0.73368 0.0
H417 H 0.08076 0.44732 0.77744 0.0
H418 H 0.06092 0.52149 0.71613 0.0
H419 H 0.04979 0.53928 0.67318 0.0
H420 H 0.16259 0.4999 0.64878 0.0
H421 H 0.17404 0.48152 0.69154 0.0
C422 C 0.23657 0.51993 0.82013 0.0
C423 C 0.27536 0.52064 0.80813 0.0
C424 C 0.20202 0.50879 0.80785 0.0
C425 C 0.20579 0.49735 0.78361 0.0
C426 C 0.24484 0.49762 0.77181 0.0
C427 C 0.27922 0.50934 0.78388 0.0
C428 C 0.16865 0.48655 0.77007 0.0
C429 C 0.16102 0.4961 0.74553 0.0
C430 C 0.13967 0.46827 0.78156 0.0
C431 C 0.14744 0.45535 0.80646 0.0
C432 C 0.18439 0.44055 0.81102 0.0
C433 C 0.19167 0.42854 0.83455 0.0
C434 C 0.1621 0.43102 0.85363 0.0
C435 C 0.12514 0.44547 0.84921 0.0
C436 C 0.11772 0.45754 0.82572 0.0
C437 C 0.02126 0.43914 0.69739 0.0
C438 C 0.98303 0.4501 0.70545 0.0
C439 C 0.0578 0.44568 0.71027 0.0
C440 C 0.05653 0.46289 0.73161 0.0
C441 C 0.01827 0.47313 0.74016 0.0
C442 C 0.98184 0.46703 0.72703 0.0
C443 C 0.09531 0.47124 0.74442 0.0
C444 C 0.10303 0.46127 0.76872 0.0
C445 C 0.1248 0.48863 0.73258 0.0
C446 C 0.11807 0.49986 0.70694 0.0
C447 C 0.08314 0.51641 0.70155 0.0
C448 C 0.07681 0.52665 0.67726 0.0
C449 C 0.1054 0.52065 0.65825 0.0
C450 C 0.14043 0.50448 0.66352 0.0
C451 C 0.14687 0.49417 0.68777 0.0
H452 H 0.10045 0.5286 0.63945 0.0
H453 H 0.16779 0.42171 0.87183 0.0
H454 H 0.26377 0.98039 0.83842 0.0
H455 H 0.32517 0.99836 0.81692 0.0
H456 H 0.25589 0.00342 0.74767 0.0
H457 H 0.19489 0.98424 0.76893 0.0
H458 H 0.32687 0.9815 0.73837 0.0
H459 H 0.28448 0.06289 0.78437 0.0
H460 H 0.26419 0.09 0.82184 0.0
H461 H 0.38213 0.07263 0.85592 0.0
H462 H 0.40294 0.04511 0.81877 0.0
H463 H 0.47693 0.05693 0.67031 0.0
H464 H 0.41341 0.04601 0.69334 0.0
H465 H 0.48493 0.03204 0.76067 0.0
H466 H 0.54873 0.04351 0.73778 0.0
H467 H 0.41278 0.05962 0.77075 0.0
H468 H 0.45361 0.97726 0.72463 0.0
H469 H 0.4738 0.95118 0.68654 0.0
H470 H 0.35737 0.9718 0.65203 0.0
H471 H 0.33669 0.99831 0.68982 0.0
C472 C 0.26156 0.98557 0.81866 0.0
C473 C 0.22455 0.98097 0.80534 0.0
C474 C 0.29664 0.99601 0.80639 0.0
C475 C 0.29514 0.00268 0.78069 0.0
C476 C 0.25791 0.99845 0.76748 0.0
C477 C 0.22302 0.98757 0.77966 0.0
C478 C 0.33282 0.01281 0.76731 0.0
C479 C 0.34517 0.99891 0.74528 0.0
C480 C 0.35749 0.03508 0.77656 0.0
C481 C 0.34512 0.05174 0.79887 0.0
C482 C 0.30598 0.0647 0.79992 0.0
C483 C 0.2944 0.08016 0.82109 0.0
C484 C 0.32181 0.08298 0.84127 0.0
C485 C 0.36091 0.07041 0.84029 0.0
C486 C 0.37264 0.0549 0.81917 0.0
C487 C 0.47912 0.0518 0.69009 0.0
C488 C 0.51783 0.05086 0.70221 0.0
C489 C 0.4428 0.04546 0.7032 0.0
C490 C 0.4445 0.03772 0.72861 0.0
C491 C 0.48293 0.03786 0.74104 0.0
C492 C 0.51934 0.04436 0.72794 0.0
C493 C 0.40641 0.0284 0.74188 0.0
C494 C 0.39417 0.04235 0.76387 0.0
C495 C 0.38166 0.00628 0.73254 0.0
C496 C 0.39376 0.98995 0.70997 0.0
C497 C 0.43241 0.97635 0.70887 0.0
C498 C 0.44393 0.96148 0.68734 0.0
C499 C 0.41692 0.95988 0.66686 0.0
C500 C 0.37827 0.97307 0.6679 0.0
C501 C 0.36661 0.98799 0.68938 0.0
H502 H 0.4259 0.94836 0.65021 0.0
H503 H 0.31278 0.09495 0.85765 0.0
H504 H 0.05574 0.57345 0.42209 0.0
H505 H 0.02382 0.55768 0.46117 0.0
H506 H 0.06219 0.47315 0.4452 0.0
H507 H 0.09393 0.48883 0.40573 0.0
H508 H 0.98194 0.47537 0.46036 0.0
H509 H 0.11171 0.5115 0.48985 0.0
H510 H 0.16735 0.54647 0.49448 0.0
H511 H 0.08147 0.60351 0.52885 0.0
H512 H 0.02516 0.56901 0.52411 0.0
H513 H 0.93714 0.42071 0.58128 0.0
H514 H 0.96998 0.43546 0.54215 0.0
H515 H 0.93771 0.52112 0.55826 0.0
H516 H 0.90557 0.50649 0.59788 0.0
H517 H 0.01577 0.51773 0.54296 0.0
H518 H 0.88576 0.48216 0.51301 0.0
H519 H 0.82976 0.44748 0.50822 0.0
H520 H 0.91542 0.38978 0.47456 0.0
H521 H 0.97208 0.42399 0.47945 0.0
C522 C 0.05765 0.55152 0.42694 0.0
C523 C 0.07746 0.53238 0.41086 0.0
C524 C 0.03949 0.54255 0.44935 0.0
C525 C 0.04096 0.51428 0.45626 0.0
C526 C 0.06077 0.49508 0.44026 0.0
C527 C 0.07902 0.50407 0.41778 0.0
C528 C 0.02084 0.50479 0.47989 0.0
C529 C 0.98978 0.48431 0.47848 0.0
C530 C 0.03028 0.517 0.50345 0.0
C531 C 0.06413 0.53775 0.50641 0.0
C532 C 0.10461 0.53158 0.49822 0.0
C533 C 0.13628 0.55131 0.5009 0.0
C534 C 0.12793 0.57722 0.5119 0.0
C535 C 0.08789 0.58344 0.52031 0.0
C536 C 0.05609 0.56379 0.51765 0.0
C537 C 0.93672 0.44267 0.57641 0.0
C538 C 0.91864 0.46244 0.59262 0.0
C539 C 0.9554 0.45107 0.55396 0.0
C540 C 0.95593 0.47938 0.54706 0.0
C541 C 0.93764 0.49916 0.56316 0.0
C542 C 0.91913 0.49078 0.58573 0.0
C543 C 0.97668 0.48837 0.52344 0.0
C544 C 0.00791 0.50876 0.52485 0.0
C545 C 0.96731 0.47612 0.49987 0.0
C546 C 0.93325 0.45555 0.49682 0.0
C547 C 0.89272 0.462 0.50476 0.0
C548 C 0.86085 0.44244 0.50199 0.0
C549 C 0.86904 0.41642 0.49115 0.0
C550 C 0.90912 0.40993 0.48298 0.0
C551 C 0.94112 0.42941 0.48572 0.0
H552 H 0.84433 0.4013 0.48903 0.0
H553 H 0.15249 0.59246 0.51395 0.0
H554 H 0.4293 0.00052 0.4014 0.0
H555 H 0.46397 0.01436 0.44043 0.0
H556 H 0.47335 0.9279 0.46236 0.0
H557 H 0.43942 0.91381 0.42305 0.0
H558 H 0.44399 0.96755 0.50134 0.0
H559 H 0.55499 0.95332 0.44174 0.0
H560 H 0.59078 0.96021 0.40126 0.0
H561 H 0.59849 0.04836 0.41551 0.0
H562 H 0.56211 0.04205 0.45592 0.0
H563 H 0.5834 0.98468 0.6025 0.0
H564 H 0.55185 0.96823 0.56342 0.0
H565 H 0.56515 0.05052 0.53137 0.0
H566 H 0.59748 0.06695 0.57026 0.0
H567 H 0.58299 0.01196 0.49726 0.0
H568 H 0.47245 0.0285 0.55507 0.0
H569 H 0.43386 0.02451 0.59492 0.0
H570 H 0.42161 0.93604 0.58381 0.0
H571 H 0.4607 0.93944 0.54403 0.0
C572 C 0.43851 0.98446 0.41461 0.0
C573 C 0.43177 0.95608 0.40919 0.0
C574 C 0.45838 0.9924 0.43683 0.0
C575 C 0.47132 0.97212 0.45416 0.0
C576 C 0.46355 0.94382 0.44917 0.0
C577 C 0.44432 0.93582 0.42673 0.0
C578 C 0.49391 0.98052 0.47717 0.0
C579 C 0.47465 0.97686 0.50056 0.0
C580 C 0.53331 0.99343 0.47594 0.0
C581 C 0.55543 0.99725 0.45173 0.0
C582 C 0.56396 0.97421 0.43613 0.0
C583 C 0.58443 0.978 0.41322 0.0
C584 C 0.5968 0.00472 0.40578 0.0
C585 C 0.58883 0.02769 0.42128 0.0
C586 C 0.56831 0.02401 0.4442 0.0
C587 C 0.58004 0.99919 0.58702 0.0
C588 C 0.59274 0.02714 0.58947 0.0
C589 C 0.56176 0.98981 0.56475 0.0
C590 C 0.55545 0.00827 0.54461 0.0
C591 C 0.56956 0.03592 0.54669 0.0
C592 C 0.58801 0.04529 0.56892 0.0
C593 C 0.5332 0.99895 0.52163 0.0
C594 C 0.55244 0.00251 0.49818 0.0
C595 C 0.49345 0.98634 0.52279 0.0
C596 C 0.4699 0.98418 0.5467 0.0
C597 C 0.46184 0.00815 0.56122 0.0
C598 C 0.43983 0.00601 0.58378 0.0
C599 C 0.42539 0.98003 0.59192 0.0
C600 C 0.43288 0.95614 0.57749 0.0
C601 C 0.45494 0.95817 0.55493 0.0
H602 H 0.40826 0.97844 0.60935 0.0
H603 H 0.61265 0.00761 0.38804 0.0
H604 H 0.58333 0.51519 0.10446 0.0
H605 H 0.55189 0.53294 0.06568 0.0
H606 H 0.53189 0.44846 0.04019 0.0
H607 H 0.56302 0.43059 0.07891 0.0
H608 H 0.56407 0.48345 0.00287 0.0
H609 H 0.45355 0.48313 0.06406 0.0
H610 H 0.42099 0.49516 0.1046 0.0
H611 H 0.4316 0.58247 0.0873 0.0
H612 H 0.46485 0.57095 0.0468 0.0
H613 H 0.41194 0.49894 0.9087 0.0
H614 H 0.44642 0.48647 0.94806 0.0
H615 H 0.46401 0.57375 0.96511 0.0
H616 H 0.42997 0.58644 0.92548 0.0
H617 H 0.4358 0.54078 0.00668 0.0
H618 H 0.54302 0.54196 0.94509 0.0
H619 H 0.57648 0.53088 0.90464 0.0
H620 H 0.57375 0.44348 0.92263 0.0
H621 H 0.53956 0.454 0.96305 0.0
C622 C 0.57239 0.50042 0.09053 0.0
C623 C 0.57547 0.47151 0.09473 0.0
C624 C 0.55436 0.51058 0.06844 0.0
C625 C 0.53935 0.49199 0.05016 0.0
C626 C 0.5433 0.46313 0.05407 0.0
C627 C 0.56094 0.45297 0.07623 0.0
C628 C 0.51868 0.50252 0.02716 0.0
C629 C 0.53582 0.49576 0.00368 0.0
C630 C 0.48246 0.51923 0.0283 0.0
C631 C 0.46212 0.52618 0.05253 0.0
C632 C 0.44926 0.5049 0.06899 0.0
C633 C 0.43063 0.51162 0.09195 0.0
C634 C 0.42435 0.53957 0.09856 0.0
C635 C 0.43656 0.56084 0.08218 0.0
C636 C 0.45528 0.55422 0.05922 0.0
C637 C 0.42284 0.5155 0.92091 0.0
C638 C 0.41838 0.54367 0.914 0.0
C639 C 0.44265 0.50834 0.94333 0.0
C640 C 0.45802 0.5292 0.95935 0.0
C641 C 0.45239 0.55738 0.95295 0.0
C642 C 0.43304 0.56456 0.93032 0.0
C643 C 0.4809 0.52136 0.98243 0.0
C644 C 0.4642 0.52863 0.00589 0.0
C645 C 0.51767 0.50525 0.98129 0.0
C646 C 0.5383 0.49876 0.95701 0.0
C647 C 0.54916 0.52035 0.94033 0.0
C648 C 0.56835 0.51418 0.91742 0.0
C649 C 0.57716 0.48649 0.91103 0.0
C650 C 0.56685 0.46492 0.92758 0.0
C651 C 0.54759 0.47098 0.95051 0.0
H652 H 0.59205 0.48176 0.89329 0.0
H653 H 0.40992 0.54473 0.11633 0.0
H654 H 0.12641 0.99875 0.91773 0.0
H655 H 0.09566 0.01556 0.95711 0.0
H656 H 0.9975 0.95487 0.95009 0.0
H657 H 0.0284 0.93767 0.91095 0.0
H658 H 0.9699 0.01031 0.96067 0.0
H659 H 0.06769 0.94249 0.99117 0.0
H660 H 0.13654 0.92053 0.9954 0.0
H661 H 0.18557 0.99659 0.02622 0.0
H662 H 0.11709 0.01915 0.02182 0.0
H663 H 0.88068 0.01981 0.08239 0.0
H664 H 0.9123 0.00425 0.04301 0.0
H665 H 0.01866 0.05656 0.05746 0.0
H666 H 0.98747 0.07184 0.0971 0.0
H667 H 0.04287 0.00616 0.04265 0.0
H668 H 0.94647 0.07429 0.01298 0.0
H669 H 0.87859 0.09746 0.0083 0.0
H670 H 0.82804 0.023 0.9753 0.0
H671 H 0.89551 0.99923 0.98012 0.0
C672 C 0.09843 0.98889 0.92468 0.0
C673 C 0.07984 0.96687 0.91132 0.0
C674 C 0.08095 0.99848 0.94716 0.0
C675 C 0.04435 0.98642 0.95649 0.0
C676 C 0.02573 0.96445 0.94317 0.0
C677 C 0.04352 0.95458 0.9209 0.0
C678 C 0.02514 0.99699 0.97996 0.0
C679 C 0.98556 0.00911 0.97868 0.0
C680 C 0.04618 0.99611 0.00325 0.0
C681 C 0.08738 0.98261 0.00589 0.0
C682 C 0.09325 0.95463 0.99862 0.0
C683 C 0.13219 0.94205 1.0011 0.0
C684 C 0.16544 0.95718 0.011 0.0
C685 C 0.1598 0.98491 0.01851 0.0
C686 C 0.12092 0.9976 0.01604 0.0
C687 C 0.91066 0.02816 0.07709 0.0
C688 C 0.93155 0.0471 0.09281 0.0
C689 C 0.92866 0.01932 0.05453 0.0
C690 C 0.96773 0.02942 0.04714 0.0
C691 C 0.98851 0.04848 0.06276 0.0
C692 C 0.97057 0.05728 0.08535 0.0
C693 C 0.9874 0.0195 0.02347 0.0
C694 C 0.02713 0.00748 0.02468 0.0
C695 C 0.96661 0.02069 1.00006 0.0
C696 C 0.92595 0.03489 0.99715 0.0
C697 C 0.92079 0.06277 0.00493 0.0
C698 C 0.8824 0.07603 0.00221 0.0
C699 C 0.84899 0.06169 0.99157 0.0
C700 C 0.85393 0.03407 0.98357 0.0
C701 C 0.89225 0.0207 0.98628 0.0
H702 H 0.81929 0.07199 0.98947 0.0
H703 H 0.19556 0.9474 0.01292 0.0
H704 H 0.16973 0.64519 0.29978 0.0
H705 H 0.20337 0.69115 0.29955 0.0
H706 H 0.19802 0.69364 0.38049 0.0
H707 H 0.16496 0.64759 0.38089 0.0
H708 H 0.17423 0.74478 0.35584 0.0
H709 H 0.28473 0.67625 0.35588 0.0
H710 H 0.32196 0.63507 0.33949 0.0
H711 H 0.33961 0.67644 0.26874 0.0
H712 H 0.30187 0.71774 0.28459 0.0
H713 H 0.31319 0.85522 0.38077 0.0
H714 H 0.27788 0.81 0.38034 0.0
H715 H 0.31014 0.79936 0.30217 0.0
H716 H 0.34696 0.844 0.30286 0.0
H717 H 0.31882 0.75216 0.32443 0.0
H718 H 0.21046 0.82027 0.32237 0.0
H719 H 0.17089 0.8616 0.33625 0.0
H720 H 0.14598 0.82206 0.40706 0.0
H721 H 0.1859 0.78062 0.39372 0.0
C722 C 0.17538 0.65567 0.31749 0.0
C723 C 0.16488 0.64281 0.34036 0.0
C724 C 0.19468 0.68183 0.31734 0.0
C725 C 0.20337 0.69564 0.34002 0.0
C726 C 0.19156 0.68329 0.36281 0.0
C727 C 0.1728 0.65698 0.36299 0.0
C728 C 0.22608 0.72252 0.34008 0.0
C729 C 0.20599 0.74643 0.34924 0.0
C730 C 0.26706 0.72467 0.33079 0.0
C731 C 0.29009 0.69996 0.32133 0.0
C732 C 0.29623 0.67648 0.33676 0.0
C733 C 0.31749 0.65313 0.32758 0.0
C734 C 0.33304 0.65311 0.30307 0.0
C735 C 0.32748 0.67647 0.28771 0.0
C736 C 0.30619 0.69986 0.29679 0.0
C737 C 0.31294 0.84313 0.36355 0.0
C738 C 0.33268 0.85314 0.34182 0.0
C739 C 0.29249 0.81737 0.36326 0.0
C740 C 0.29054 0.80147 0.34106 0.0
C741 C 0.31107 0.81123 0.3195 0.0
C742 C 0.33208 0.83677 0.31991 0.0
C743 C 0.26708 0.77472 0.34028 0.0
C744 C 0.28701 0.75072 0.33099 0.0
C745 C 0.22566 0.7726 0.34907 0.0
C746 C 0.20151 0.79745 0.35713 0.0
C747 C 0.19679 0.82047 0.34097 0.0
C748 C 0.17426 0.8439 0.34873 0.0
C749 C 0.15602 0.84448 0.37255 0.0
C750 C 0.16017 0.82159 0.38863 0.0
C751 C 0.18272 0.79812 0.38097 0.0
H752 H 0.13859 0.86265 0.37852 0.0
H753 H 0.34948 0.63501 0.29599 0.0
H754 H 0.82493 0.14753 0.11799 0.0
H755 H 0.79103 0.1935 0.11714 0.0
H756 H 0.81121 0.2023 0.19682 0.0
H757 H 0.84603 0.15682 0.19772 0.0
H758 H 0.72524 0.21183 0.17781 0.0
H759 H 0.86835 0.23891 0.16457 0.0
H760 H 0.93587 0.23721 0.14283 0.0
H761 H 0.87752 0.26224 0.07391 0.0
H762 H 0.80949 0.26368 0.09519 0.0
H763 H 0.66843 0.35247 0.19942 0.0
H764 H 0.70267 0.30692 0.19796 0.0
H765 H 0.71458 0.31395 0.11742 0.0
H766 H 0.68169 0.35998 0.11895 0.0
H767 H 0.78346 0.29527 0.13528 0.0
H768 H 0.64185 0.26973 0.14621 0.0
H769 H 0.57221 0.26994 0.16541 0.0
H770 H 0.6234 0.24007 0.23484 0.0
H771 H 0.69348 0.24005 0.21617 0.0
C772 C 0.82247 0.15942 0.13525 0.0
C773 C 0.83819 0.14868 0.1579 0.0
C774 C 0.80313 0.1856 0.13474 0.0
C775 C 0.79863 0.20116 0.15693 0.0
C776 C 0.8144 0.19053 0.17953 0.0
C777 C 0.83443 0.16465 0.17997 0.0
C778 C 0.77666 0.22832 0.15675 0.0
C779 C 0.73807 0.23022 0.16879 0.0
C780 C 0.79291 0.25189 0.1442 0.0
C781 C 0.83377 0.25107 0.1314 0.0
C782 C 0.86985 0.24376 0.14472 0.0
C783 C 0.90823 0.24291 0.1325 0.0
C784 C 0.91097 0.24952 0.10698 0.0
C785 C 0.87534 0.25707 0.09366 0.0
C786 C 0.83687 0.25793 0.1058 0.0
C787 C 0.67813 0.34421 0.1814 0.0
C788 C 0.67227 0.35973 0.1593 0.0
C789 C 0.69756 0.3181 0.18055 0.0
C790 C 0.71076 0.30674 0.15752 0.0
C791 C 0.70471 0.32222 0.13541 0.0
C792 C 0.68576 0.34848 0.13629 0.0
C793 C 0.73182 0.27908 0.15658 0.0
C794 C 0.77032 0.27697 0.14428 0.0
C795 C 0.71508 0.25514 0.16852 0.0
C796 C 0.67299 0.25515 0.17985 0.0
C797 C 0.63832 0.26342 0.16564 0.0
C798 C 0.59875 0.26347 0.17641 0.0
C799 C 0.5934 0.2551 0.20135 0.0
C800 C 0.6276 0.24659 0.21554 0.0
C801 C 0.66725 0.24653 0.20486 0.0
H802 H 0.56273 0.25514 0.20965 0.0
H803 H 0.94072 0.24886 0.09755 0.0
H804 H 0.7314 0.12892 0.67609 0.0
H805 H 0.75997 0.17612 0.676 0.0
H806 H 0.6435 0.2083 0.64852 0.0
H807 H 0.61462 0.16084 0.64841 0.0
H808 H 0.7109 0.22932 0.6227 0.0
H809 H 0.66961 0.21837 0.70881 0.0
H810 H 0.66617 0.19454 0.74982 0.0
H811 H 0.79865 0.19982 0.75683 0.0
H812 H 0.80295 0.22335 0.71569 0.0
H813 H 0.76556 0.37172 0.64109 0.0
H814 H 0.73122 0.32622 0.64159 0.0
H815 H 0.83858 0.28989 0.67738 0.0
H816 H 0.87243 0.33564 0.67774 0.0
H817 H 0.77195 0.2717 0.69933 0.0
H818 H 0.81503 0.28003 0.61329 0.0
H819 H 0.82073 0.30247 0.57173 0.0
H820 H 0.68817 0.30073 0.56386 0.0
H821 H 0.68164 0.2786 0.60554 0.0
C822 C 0.71175 0.14603 0.67013 0.0
C823 C 0.67071 0.14121 0.66232 0.0
C824 C 0.7281 0.17302 0.67016 0.0
C825 C 0.70374 0.19575 0.6625 0.0
C826 C 0.66277 0.19103 0.65457 0.0
C827 C 0.64629 0.16396 0.6546 0.0
C828 C 0.72155 0.22432 0.66237 0.0
C829 C 0.72364 0.23884 0.63952 0.0
C830 C 0.73916 0.23634 0.68419 0.0
C831 C 0.73661 0.22244 0.70907 0.0
C832 C 0.69803 0.21428 0.71901 0.0
C833 C 0.69593 0.20086 0.7423 0.0
C834 C 0.73217 0.19562 0.7559 0.0
C835 C 0.7706 0.20388 0.74627 0.0
C836 C 0.77288 0.21729 0.72299 0.0
C837 C 0.78192 0.35399 0.64894 0.0
C838 C 0.82174 0.35718 0.6593 0.0
C839 C 0.76232 0.32795 0.64913 0.0
C840 C 0.78249 0.30448 0.65921 0.0
C841 C 0.82236 0.30767 0.6695 0.0
C842 C 0.84175 0.33379 0.66961 0.0
C843 C 0.76178 0.27672 0.65956 0.0
C844 C 0.75909 0.26232 0.68248 0.0
C845 C 0.74398 0.26471 0.63774 0.0
C846 C 0.74784 0.27792 0.61264 0.0
C847 C 0.78708 0.28462 0.60277 0.0
C848 C 0.79046 0.29725 0.57919 0.0
C849 C 0.75483 0.30309 0.5652 0.0
C850 C 0.71574 0.29623 0.57474 0.0
C851 C 0.71218 0.28363 0.59833 0.0
H852 H 0.75751 0.31287 0.54694 0.0
H853 H 0.73048 0.18521 0.77391 0.0
H854 H 0.3794 0.66516 0.83308 0.0
H855 H 0.34788 0.7118 0.83377 0.0
H856 H 0.23093 0.67575 0.85613 0.0
H857 H 0.26212 0.6292 0.85545 0.0
H858 H 0.22233 0.71414 0.81796 0.0
H859 H 0.28955 0.70835 0.89874 0.0
H860 H 0.34882 0.70077 0.92722 0.0
H861 H 0.41475 0.76823 0.89215 0.0
H862 H 0.35607 0.77596 0.86322 0.0
H863 H 0.11705 0.83925 0.85016 0.0
H864 H 0.14822 0.79259 0.85095 0.0
H865 H 0.26949 0.82905 0.8404 0.0
H866 H 0.23866 0.87566 0.84082 0.0
H867 H 0.27603 0.7899 0.87264 0.0
H868 H 0.21179 0.79593 0.79146 0.0
H869 H 0.15465 0.80361 0.76144 0.0
H870 H 0.08595 0.73631 0.79477 0.0
H871 H 0.14248 0.72846 0.82521 0.0
C872 C 0.347 0.66722 0.83818 0.0
C873 C 0.32326 0.64356 0.84428 0.0
C874 C 0.32908 0.69385 0.83863 0.0
C875 C 0.28712 0.69724 0.84516 0.0
C876 C 0.26333 0.6736 0.85104 0.0
C877 C 0.28126 0.64704 0.85073 0.0
C878 C 0.26783 0.72538 0.84577 0.0
C879 C 0.23371 0.73065 0.83012 0.0
C880 C 0.2834 0.74707 0.86116 0.0
C881 C 0.31858 0.74255 0.87866 0.0
C882 C 0.31682 0.72143 0.89697 0.0
C883 C 0.35028 0.71713 0.91322 0.0
C884 C 0.38557 0.73396 0.91146 0.0
C885 C 0.38742 0.75518 0.89348 0.0
C886 C 0.35405 0.75955 0.87717 0.0
C887 C 0.15036 0.83724 0.84808 0.0
C888 C 0.17543 0.86104 0.84538 0.0
C889 C 0.16815 0.81057 0.84837 0.0
C890 C 0.21122 0.80717 0.84527 0.0
C891 C 0.23624 0.83104 0.84282 0.0
C892 C 0.21856 0.85768 0.843 0.0
C893 C 0.23041 0.77887 0.84471 0.0
C894 C 0.26455 0.7735 0.8604 0.0
C895 C 0.21516 0.75717 0.8291 0.0
C896 C 0.18119 0.76179 0.81076 0.0
C897 C 0.18437 0.7829 0.7925 0.0
C898 C 0.15212 0.78726 0.77539 0.0
C899 C 0.11665 0.77051 0.77624 0.0
C900 C 0.11341 0.7493 0.79416 0.0
C901 C 0.14556 0.74487 0.81133 0.0
H902 H 0.0917 0.77392 0.76298 0.0
H903 H 0.41145 0.7306 0.92405 0.0
loop_
_geom_bond_atom_site_label_1
_geom_bond_atom_site_label_2
_geom_bond_distance
_geom_bond_site_symmetry_2
_ccdc_geom_bond_type
In0 O1 2.294 . S
In0 O2 2.326 . S
In0 O6 2.266 . S
In0 O7 2.326 . S
In0 O8 2.266 . S
In0 O9 2.326 . S
In0 O11 2.294 . S
In0 O12 2.326 . S
O1 In0 2.294 . S
O1 C10 1.240 . S
O2 In0 2.326 . S
O2 C10 1.252 . S
C3 O6 1.252 . S
C3 O7 1.260 . S
C4 O11 1.240 . S
C4 O12 1.252 . S
C5 O8 1.252 . S
C5 O9 1.260 . S
O6 In0 2.266 . S
O6 C3 1.252 . S
O7 In0 2.326 . S
O7 C3 1.260 . S
O8 In0 2.266 . S
O8 C5 1.252 . S
O9 In0 2.326 . S
O9 C5 1.260 . S
C10 O1 1.240 . S
C10 O2 1.252 . S
O11 In0 2.294 . S
O11 C4 1.240 . S
O12 In0 2.326 . S
O12 C4 1.252 . S
In13 O14 2.294 . S
In13 O15 2.326 . S
In13 O19 2.266 . S
In13 O20 2.326 . S
In13 O21 2.266 . S
In13 O22 2.326 . S
In13 O24 2.294 . S
In13 O25 2.326 . S
O14 In13 2.294 . S
O14 C23 1.240 . S
O15 In13 2.326 . S
O15 C23 1.252 . S
C16 O19 1.252 . S
C16 O20 1.260 . S
C17 O24 1.240 . S
C17 O25 1.252 . S
C18 O21 1.252 . S
C18 O22 1.260 . S
O19 In13 2.266 . S
O19 C16 1.252 . S
O20 In13 2.326 . S
O20 C16 1.260 . S
O21 In13 2.266 . S
O21 C18 1.252 . S
O22 In13 2.326 . S
O22 C18 1.260 . S
C23 O14 1.240 . S
C23 O15 1.252 . S
O24 In13 2.294 . S
O24 C17 1.240 . S
O25 In13 2.326 . S
O25 C17 1.252 . S
In26 O27 2.294 . S
In26 O28 2.326 . S
In26 O32 2.266 . S
In26 O33 2.326 . S
In26 O34 2.266 . S
In26 O35 2.326 . S
In26 O37 2.294 . S
In26 O38 2.326 . S
O27 In26 2.294 . S
O27 C36 1.240 . S
O28 In26 2.326 . S
O28 C36 1.252 . S
C29 O32 1.252 . S
C29 O33 1.260 . S
C30 O37 1.240 . S
C30 O38 1.252 . S
C31 O34 1.252 . S
C31 O35 1.260 . S
O32 In26 2.266 . S
O32 C29 1.252 . S
O33 In26 2.326 . S
O33 C29 1.260 . S
O34 In26 2.266 . S
O34 C31 1.252 . S
O35 In26 2.326 . S
O35 C31 1.260 . S
C36 O27 1.240 . S
C36 O28 1.252 . S
O37 In26 2.294 . S
O37 C30 1.240 . S
O38 In26 2.326 . S
O38 C30 1.252 . S
In39 O40 2.294 . S
In39 O41 2.326 . S
In39 O45 2.266 . S
In39 O46 2.326 . S
In39 O47 2.266 . S
In39 O48 2.326 . S
In39 O50 2.294 . S
In39 O51 2.326 . S
O40 In39 2.294 . S
O40 C49 1.240 . S
O41 In39 2.326 . S
O41 C49 1.252 . S
C42 O45 1.252 . S
C42 O46 1.260 . S
C43 O50 1.240 . S
C43 O51 1.252 . S
C44 O47 1.252 . S
C44 O48 1.260 . S
O45 In39 2.266 . S
O45 C42 1.252 . S
O46 In39 2.326 . S
O46 C42 1.260 . S
O47 In39 2.266 . S
O47 C44 1.252 . S
O48 In39 2.326 . S
O48 C44 1.260 . S
C49 O40 1.240 . S
C49 O41 1.252 . S
O50 In39 2.294 . S
O50 C43 1.240 . S
O51 In39 2.326 . S
O51 C43 1.252 . S
In52 O53 2.294 . S
In52 O54 2.326 . S
In52 O58 2.266 . S
In52 O59 2.326 . S
In52 O60 2.266 . S
In52 O61 2.326 . S
In52 O63 2.294 . S
In52 O64 2.326 . S
O53 In52 2.294 . S
O53 C62 1.240 . S
O54 In52 2.326 . S
O54 C62 1.252 . S
C55 O58 1.252 . S
C55 O59 1.260 . S
C56 O63 1.240 . S
C56 O64 1.252 . S
C57 O60 1.252 . S
C57 O61 1.260 . S
O58 In52 2.266 . S
O58 C55 1.252 . S
O59 In52 2.326 . S
O59 C55 1.260 . S
O60 In52 2.266 . S
O60 C57 1.252 . S
O61 In52 2.326 . S
O61 C57 1.260 . S
C62 O53 1.240 . S
C62 O54 1.252 . S
O63 In52 2.294 . S
O63 C56 1.240 . S
O64 In52 2.326 . S
O64 C56 1.252 . S
In65 O66 2.294 . S
In65 O67 2.326 . S
In65 O71 2.266 . S
In65 O72 2.326 . S
In65 O73 2.266 . S
In65 O74 2.326 . S
In65 O76 2.294 . S
In65 O77 2.326 . S
O66 In65 2.294 . S
O66 C75 1.240 . S
O67 In65 2.326 . S
O67 C75 1.252 . S
C68 O71 1.252 . S
C68 O72 1.260 . S
C69 O76 1.240 . S
C69 O77 1.252 . S
C70 O73 1.252 . S
C70 O74 1.260 . S
O71 In65 2.266 . S
O71 C68 1.252 . S
O72 In65 2.326 . S
O72 C68 1.260 . S
O73 In65 2.266 . S
O73 C70 1.252 . S
O74 In65 2.326 . S
O74 C70 1.260 . S
C75 O66 1.240 . S
C75 O67 1.252 . S
O76 In65 2.294 . S
O76 C69 1.240 . S
O77 In65 2.326 . S
O77 C69 1.252 . S
In78 O79 2.294 . S
In78 O80 2.326 . S
In78 O84 2.266 . S
In78 O85 2.326 . S
In78 O86 2.266 . S
In78 O87 2.326 . S
In78 O89 2.294 . S
In78 O90 2.326 . S
O79 In78 2.294 . S
O79 C88 1.240 . S
O80 In78 2.326 . S
O80 C88 1.252 . S
C81 O84 1.252 . S
C81 O85 1.260 . S
C82 O89 1.240 . S
C82 O90 1.252 . S
C83 O86 1.252 . S
C83 O87 1.260 . S
O84 In78 2.266 . S
O84 C81 1.252 . S
O85 In78 2.326 . S
O85 C81 1.260 . S
O86 In78 2.266 . S
O86 C83 1.252 . S
O87 In78 2.326 . S
O87 C83 1.260 . S
C88 O79 1.240 . S
C88 O80 1.252 . S
O89 In78 2.294 . S
O89 C82 1.240 . S
O90 In78 2.326 . S
O90 C82 1.252 . S
In91 O92 2.294 . S
In91 O93 2.326 . S
In91 O97 2.266 . S
In91 O98 2.326 . S
In91 O99 2.266 . S
In91 O100 2.326 . S
In91 O102 2.294 . S
In91 O103 2.326 . S
O92 In91 2.294 . S
O92 C101 1.240 . S
O93 In91 2.326 . S
O93 C101 1.252 . S
C94 O97 1.252 . S
C94 O98 1.260 . S
C95 O102 1.240 . S
C95 O103 1.252 . S
C96 O99 1.252 . S
C96 O100 1.260 . S
O97 In91 2.266 . S
O97 C94 1.252 . S
O98 In91 2.326 . S
O98 C94 1.260 . S
O99 In91 2.266 . S
O99 C96 1.252 . S
O100 In91 2.326 . S
O100 C96 1.260 . S
C101 O92 1.240 . S
C101 O93 1.252 . S
O102 In91 2.294 . S
O102 C95 1.240 . S
O103 In91 2.326 . S
O103 C95 1.252 . S
H104 C122 0.951 . S
H105 C124 0.951 . S
H106 C126 0.950 . S
H107 C127 0.950 . S
H108 C129 0.950 . S
H109 C132 0.950 . S
H110 C133 0.950 . S
H111 C135 0.950 . S
H112 C136 0.950 . S
H113 C137 0.951 . S
H114 C139 0.951 . S
H115 C141 0.950 . S
H116 C142 0.950 . S
H117 C144 0.950 . S
H118 C147 0.950 . S
H119 C148 0.950 . S
H120 C150 0.950 . S
H121 C151 0.950 . S
C122 H104 0.951 . S
C122 C123 1.366 . S
C122 C124 1.388 . S
C123 C122 1.366 . S
C123 C127 1.385 . S
C124 H105 0.951 . S
C124 C122 1.388 . S
C124 C125 1.366 . S
C125 C124 1.366 . S
C125 C126 1.414 . S
C125 C128 1.499 . S
C126 H106 0.950 . S
C126 C125 1.414 . S
C126 C127 1.374 . S
C127 H107 0.950 . S
C127 C123 1.385 . S
C127 C126 1.374 . S
C128 C125 1.499 . S
C128 C129 1.373 . S
C128 C130 1.389 . S
C129 H108 0.950 . S
C129 C128 1.373 . S
C129 C145 1.377 . S
C130 C128 1.389 . S
C130 C131 1.524 . S
C130 C144 1.377 . S
C131 C130 1.524 . S
C131 C132 1.397 . S
C131 C136 1.363 . S
C132 H109 0.950 . S
C132 C131 1.397 . S
C132 C133 1.334 . S
C133 H110 0.950 . S
C133 C132 1.334 . S
C133 C134 1.287 . S
C134 C133 1.287 . S
C134 C135 1.524 . S
C134 H153 0.913 . S
C135 H111 0.950 . S
C135 C134 1.524 . S
C135 C136 1.415 . S
C136 H112 0.950 . S
C136 C131 1.363 . S
C136 C135 1.415 . S
C137 H113 0.951 . S
C137 C138 1.366 . S
C137 C139 1.388 . S
C138 C137 1.366 . S
C138 C142 1.385 . S
C139 H114 0.951 . S
C139 C137 1.388 . S
C139 C140 1.366 . S
C140 C139 1.366 . S
C140 C141 1.414 . S
C140 C143 1.499 . S
C141 H115 0.950 . S
C141 C140 1.414 . S
C141 C142 1.374 . S
C142 H116 0.950 . S
C142 C138 1.385 . S
C142 C141 1.374 . S
C143 C140 1.499 . S
C143 C144 1.373 . S
C143 C145 1.389 . S
C144 H117 0.950 . S
C144 C130 1.377 . S
C144 C143 1.373 . S
C145 C129 1.377 . S
C145 C143 1.389 . S
C145 C146 1.524 . S
C146 C145 1.524 . S
C146 C147 1.397 . S
C146 C151 1.363 . S
C147 H118 0.950 . S
C147 C146 1.397 . S
C147 C148 1.334 . S
C148 H119 0.950 . S
C148 C147 1.334 . S
C148 C149 1.287 . S
C149 C148 1.287 . S
C149 C150 1.524 . S
C149 H152 0.999 . S
C150 H120 0.950 . S
C150 C149 1.524 . S
C150 C151 1.415 . S
C151 H121 0.950 . S
C151 C146 1.363 . S
C151 C150 1.415 . S
H152 C149 0.999 . S
H153 C134 0.913 . S
H154 C172 0.946 1_665 S
H155 C174 0.951 . S
H156 C176 0.950 . S
H157 C177 0.950 . S
H158 C179 0.950 . S
H159 C182 0.950 . S
H160 C183 0.950 . S
H161 C185 0.950 . S
H162 C186 0.950 . S
H163 C187 0.951 . S
H164 C189 0.951 1_545 S
H165 C191 0.950 . S
H166 C192 0.950 . S
H167 C194 0.950 . S
H168 C197 0.950 . S
H169 C198 0.950 . S
H170 C200 0.950 . S
H171 C201 0.950 . S
C172 H154 0.946 1_445 S
C172 C173 1.358 1_455 S
C172 C174 1.401 1_545 S
C173 C172 1.358 1_655 S
C173 C177 1.385 . S
C174 H155 0.951 . S
C174 C172 1.401 1_565 S
C174 C175 1.366 1_565 S
C175 C174 1.366 1_545 S
C175 C176 1.414 . S
C175 C178 1.499 . S
C176 H156 0.950 . S
C176 C175 1.414 . S
C176 C177 1.374 1_455 S
C177 H157 0.950 . S
C177 C173 1.385 . S
C177 C176 1.374 1_655 S
C178 C175 1.499 . S
C178 C179 1.373 . S
C178 C180 1.389 1_545 S
C179 H158 0.950 . S
C179 C178 1.373 . S
C179 C195 1.377 . S
C180 C178 1.389 1_565 S
C180 C181 1.524 . S
C180 C194 1.377 . S
C181 C180 1.524 . S
C181 C182 1.397 . S
C181 C186 1.363 . S
C182 H159 0.950 . S
C182 C181 1.397 . S
C182 C183 1.334 1_455 S
C183 H160 0.950 . S
C183 C182 1.334 1_655 S
C183 C184 1.287 . S
C184 C183 1.287 . S
C184 C185 1.524 1_655 S
C184 H203 0.913 . S
C185 H161 0.950 . S
C185 C184 1.524 1_455 S
C185 C186 1.415 . S
C186 H162 0.950 . S
C186 C181 1.363 . S
C186 C185 1.415 . S
C187 H163 0.951 . S
C187 C188 1.366 . S
C187 C189 1.388 . S
C188 C187 1.366 . S
C188 C192 1.385 . S
C189 H164 0.951 1_565 S
C189 C187 1.388 . S
C189 C190 1.366 . S
C190 C189 1.366 . S
C190 C191 1.414 . S
C190 C193 1.499 . S
C191 H165 0.950 . S
C191 C190 1.414 . S
C191 C192 1.374 . S
C192 H166 0.950 . S
C192 C188 1.385 . S
C192 C191 1.374 . S
C193 C190 1.499 . S
C193 C194 1.373 . S
C193 C195 1.389 1_565 S
C194 H167 0.950 . S
C194 C180 1.377 . S
C194 C193 1.373 . S
C195 C179 1.377 . S
C195 C193 1.389 1_545 S
C195 C196 1.524 . S
C196 C195 1.524 . S
C196 C197 1.397 . S
C196 C201 1.363 . S
C197 H168 0.950 . S
C197 C196 1.397 . S
C197 C198 1.334 . S
C198 H169 0.950 . S
C198 C197 1.334 . S
C198 C199 1.287 . S
C199 C198 1.287 . S
C199 C200 1.524 . S
C199 H202 0.999 . S
C200 H170 0.950 . S
C200 C199 1.524 . S
C200 C201 1.415 . S
C201 H171 0.950 . S
C201 C196 1.363 . S
C201 C200 1.415 . S
H202 C199 0.999 . S
H203 C184 0.913 . S
H204 C222 0.951 . S
H205 C224 0.951 . S
H206 C226 0.950 . S
H207 C227 0.950 . S
H208 C229 0.950 . S
H209 C232 0.950 . S
H210 C233 0.950 . S
H211 C235 0.950 . S
H212 C236 0.950 . S
H213 C237 0.951 . S
H214 C239 0.951 . S
H215 C241 0.950 . S
H216 C242 0.950 . S
H217 C244 0.950 . S
H218 C247 0.950 . S
H219 C248 0.950 . S
H220 C250 0.950 . S
H221 C251 0.950 . S
C222 H204 0.951 . S
C222 C223 1.366 . S
C222 C224 1.388 . S
C223 C222 1.366 . S
C223 C227 1.385 . S
C224 H205 0.951 . S
C224 C222 1.388 . S
C224 C225 1.366 . S
C225 C224 1.366 . S
C225 C226 1.414 . S
C225 C228 1.499 . S
C226 H206 0.950 . S
C226 C225 1.414 . S
C226 C227 1.374 . S
C227 H207 0.950 . S
C227 C223 1.385 . S
C227 C226 1.374 . S
C228 C225 1.499 . S
C228 C229 1.373 . S
C228 C230 1.389 . S
C229 H208 0.950 . S
C229 C228 1.373 . S
C229 C245 1.377 . S
C230 C228 1.389 . S
C230 C231 1.524 . S
C230 C244 1.377 . S
C231 C230 1.524 . S
C231 C232 1.397 . S
C231 C236 1.363 . S
C232 H209 0.950 . S
C232 C231 1.397 . S
C232 C233 1.334 . S
C233 H210 0.950 . S
C233 C232 1.334 . S
C233 C234 1.287 . S
C234 C233 1.287 . S
C234 C235 1.524 . S
C234 H253 0.913 . S
C235 H211 0.950 . S
C235 C234 1.524 . S
C235 C236 1.415 . S
C236 H212 0.950 . S
C236 C231 1.363 . S
C236 C235 1.415 . S
C237 H213 0.951 . S
C237 C238 1.366 1_655 S
C237 C239 1.388 . S
C238 C237 1.366 1_455 S
C238 C242 1.385 . S
C239 H214 0.951 . S
C239 C237 1.388 . S
C239 C240 1.366 . S
C240 C239 1.366 . S
C240 C241 1.414 . S
C240 C243 1.499 . S
C241 H215 0.950 . S
C241 C240 1.414 . S
C241 C242 1.374 1_655 S
C242 H216 0.950 . S
C242 C238 1.385 . S
C242 C241 1.374 1_455 S
C243 C240 1.499 . S
C243 C244 1.373 . S
C243 C245 1.389 . S
C244 H217 0.950 . S
C244 C230 1.377 . S
C244 C243 1.373 . S
C245 C229 1.377 . S
C245 C243 1.389 . S
C245 C246 1.524 . S
C246 C245 1.524 . S
C246 C247 1.397 . S
C246 C251 1.363 . S
C247 H218 0.950 . S
C247 C246 1.397 . S
C247 C248 1.334 . S
C248 H219 0.950 . S
C248 C247 1.334 . S
C248 C249 1.287 . S
C249 C248 1.287 . S
C249 C250 1.524 . S
C249 H252 0.999 . S
C250 H220 0.950 . S
C250 C249 1.524 . S
C250 C251 1.415 . S
C251 H221 0.950 . S
C251 C246 1.363 . S
C251 C250 1.415 . S
H252 C249 0.999 . S
H253 C234 0.913 . S
H254 C272 0.951 . S
H255 C274 0.951 . S
H256 C276 0.954 1_565 S
H257 C277 0.950 1_565 S
H258 C279 0.950 . S
H259 C282 0.956 . S
H260 C283 0.950 . S
H261 C285 0.950 . S
H262 C286 0.950 . S
H263 C287 0.951 . S
H264 C289 0.951 . S
H265 C291 0.950 . S
H266 C292 0.950 1_545 S
H267 C294 0.950 . S
H268 C297 0.950 1_545 S
H269 C298 0.950 . S
H270 C300 0.950 . S
H271 C301 0.950 . S
C272 H254 0.951 . S
C272 C273 1.366 . S
C272 C274 1.388 . S
C273 C272 1.366 . S
C273 C277 1.385 . S
C274 H255 0.951 . S
C274 C272 1.388 . S
C274 C275 1.366 . S
C275 C274 1.366 . S
C275 C276 1.411 . S
C275 C278 1.499 . S
C276 H256 0.954 1_545 S
C276 C275 1.411 . S
C276 C277 1.373 . S
C277 H257 0.950 1_545 S
C277 C273 1.385 . S
C277 C276 1.373 . S
C278 C275 1.499 . S
C278 C279 1.373 1_545 S
C278 C280 1.389 . S
C279 H258 0.950 . S
C279 C278 1.373 1_565 S
C279 C295 1.377 . S
C280 C278 1.389 . S
C280 C281 1.524 . S
C280 C294 1.377 . S
C281 C280 1.524 . S
C281 C282 1.397 . S
C281 C286 1.363 . S
C282 H259 0.956 . S
C282 C281 1.397 . S
C282 C283 1.334 . S
C283 H260 0.950 . S
C283 C282 1.334 . S
C283 C284 1.287 . S
C284 C283 1.287 . S
C284 C285 1.524 . S
C284 H303 0.913 . S
C285 H261 0.950 . S
C285 C284 1.524 . S
C285 C286 1.415 . S
C286 H262 0.950 . S
C286 C281 1.363 . S
C286 C285 1.415 . S
C287 H263 0.951 . S
C287 C288 1.366 . S
C287 C289 1.388 . S
C288 C287 1.366 . S
C288 C292 1.385 . S
C289 H264 0.951 . S
C289 C287 1.388 . S
C289 C290 1.366 . S
C290 C289 1.366 . S
C290 C291 1.414 1_565 S
C290 C293 1.499 . S
C291 H265 0.950 . S
C291 C290 1.414 1_545 S
C291 C292 1.374 1_545 S
C292 H266 0.950 1_565 S
C292 C288 1.385 . S
C292 C291 1.374 1_565 S
C293 C290 1.499 . S
C293 C294 1.373 1_565 S
C293 C295 1.389 . S
C294 H267 0.950 . S
C294 C280 1.377 . S
C294 C293 1.373 1_545 S
C295 C279 1.377 . S
C295 C293 1.389 . S
C295 C296 1.524 . S
C296 C295 1.524 . S
C296 C297 1.397 . S
C296 C301 1.363 . S
C297 H268 0.950 1_565 S
C297 C296 1.397 . S
C297 C298 1.334 . S
C298 H269 0.950 . S
C298 C297 1.334 . S
C298 C299 1.287 . S
C299 C298 1.287 . S
C299 C300 1.524 . S
C299 H302 0.999 . S
C300 H270 0.950 . S
C300 C299 1.524 . S
C300 C301 1.415 . S
C301 H271 0.950 . S
C301 C296 1.363 . S
C301 C300 1.415 . S
H302 C299 0.999 . S
H303 C284 0.913 . S
H304 C322 0.951 . S
H305 C324 0.951 . S
H306 C326 0.950 . S
H307 C327 0.950 . S
H308 C329 0.950 . S
H309 C332 0.950 . S
H310 C333 0.950 . S
H311 C335 0.950 . S
H312 C336 0.950 . S
H313 C337 0.951 . S
H314 C339 0.951 . S
H315 C341 0.950 . S
H316 C342 0.950 . S
H317 C344 0.950 . S
H318 C347 0.950 . S
H319 C348 0.950 . S
H320 C350 0.950 . S
H321 C351 0.950 . S
C322 H304 0.951 . S
C322 C323 1.366 . S
C322 C324 1.388 . S
C323 C322 1.366 . S
C323 C327 1.385 . S
C324 H305 0.951 . S
C324 C322 1.388 . S
C324 C325 1.366 . S
C325 C324 1.366 . S
C325 C326 1.414 . S
C325 C328 1.499 . S
C326 H306 0.950 . S
C326 C325 1.414 . S
C326 C327 1.374 . S
C327 H307 0.950 . S
C327 C323 1.385 . S
C327 C326 1.374 . S
C328 C325 1.499 . S
C328 C329 1.373 . S
C328 C330 1.389 . S
C329 H308 0.950 . S
C329 C328 1.373 . S
C329 C345 1.377 . S
C330 C328 1.389 . S
C330 C331 1.524 . S
C330 C344 1.377 . S
C331 C330 1.524 . S
C331 C332 1.397 . S
C331 C336 1.363 . S
C332 H309 0.950 . S
C332 C331 1.397 . S
C332 C333 1.334 . S
C333 H310 0.950 . S
C333 C332 1.334 . S
C333 C334 1.287 . S
C334 C333 1.287 . S
C334 C335 1.524 . S
C334 H353 0.913 . S
C335 H311 0.950 . S
C335 C334 1.524 . S
C335 C336 1.415 . S
C336 H312 0.950 . S
C336 C331 1.363 . S
C336 C335 1.415 . S
C337 H313 0.951 . S
C337 C338 1.366 . S
C337 C339 1.388 . S
C338 C337 1.366 . S
C338 C342 1.385 . S
C339 H314 0.951 . S
C339 C337 1.388 . S
C339 C340 1.366 . S
C340 C339 1.366 . S
C340 C341 1.414 . S
C340 C343 1.499 . S
C341 H315 0.950 . S
C341 C340 1.414 . S
C341 C342 1.374 . S
C342 H316 0.950 . S
C342 C338 1.385 . S
C342 C341 1.374 . S
C343 C340 1.499 . S
C343 C344 1.373 . S
C343 C345 1.389 . S
C344 H317 0.950 . S
C344 C330 1.377 . S
C344 C343 1.373 . S
C345 C329 1.377 . S
C345 C343 1.389 . S
C345 C346 1.524 . S
C346 C345 1.524 . S
C346 C347 1.397 . S
C346 C351 1.363 . S
C347 H318 0.950 . S
C347 C346 1.397 . S
C347 C348 1.334 . S
C348 H319 0.950 . S
C348 C347 1.334 . S
C348 C349 1.287 . S
C349 C348 1.287 . S
C349 C350 1.524 . S
C349 H352 0.999 . S
C350 H320 0.950 . S
C350 C349 1.524 . S
C350 C351 1.415 . S
C351 H321 0.950 . S
C351 C346 1.363 . S
C351 C350 1.415 . S
H352 C349 0.999 . S
H353 C334 0.913 . S
H354 C372 0.951 . S
H355 C374 0.951 1_565 S
H356 C376 0.950 . S
H357 C377 0.950 . S
H358 C379 0.950 . S
H359 C382 0.950 . S
H360 C383 0.950 . S
H361 C385 0.950 . S
H362 C386 0.950 1_565 S
H363 C387 0.951 . S
H364 C389 0.951 1_545 S
H365 C391 0.950 . S
H366 C392 0.950 . S
H367 C394 0.950 . S
H368 C397 0.950 . S
H369 C398 0.950 . S
H370 C400 0.950 . S
H371 C401 0.950 1_545 S
C372 H354 0.951 . S
C372 C373 1.366 . S
C372 C374 1.388 . S
C373 C372 1.366 . S
C373 C377 1.385 . S
C374 H355 0.951 1_545 S
C374 C372 1.388 . S
C374 C375 1.366 . S
C375 C374 1.366 . S
C375 C376 1.414 . S
C375 C378 1.499 . S
C376 H356 0.950 . S
C376 C375 1.414 . S
C376 C377 1.374 . S
C377 H357 0.950 . S
C377 C373 1.385 . S
C377 C376 1.374 . S
C378 C375 1.499 . S
C378 C379 1.373 . S
C378 C380 1.389 . S
C379 H358 0.950 . S
C379 C378 1.373 . S
C379 C395 1.377 1_545 S
C380 C378 1.389 . S
C380 C381 1.524 . S
C380 C394 1.377 . S
C381 C380 1.524 . S
C381 C382 1.397 . S
C381 C386 1.363 . S
C382 H359 0.950 . S
C382 C381 1.397 . S
C382 C383 1.334 . S
C383 H360 0.950 . S
C383 C382 1.334 . S
C383 C384 1.287 . S
C384 C383 1.287 . S
C384 C385 1.524 . S
C384 H403 0.913 . S
C385 H361 0.950 . S
C385 C384 1.524 . S
C385 C386 1.415 . S
C386 H362 0.950 1_545 S
C386 C381 1.363 . S
C386 C385 1.415 . S
C387 H363 0.951 . S
C387 C388 1.366 . S
C387 C389 1.388 1_455 S
C388 C387 1.366 . S
C388 C392 1.385 1_455 S
C389 H364 0.951 1_565 S
C389 C387 1.388 1_655 S
C389 C390 1.366 . S
C390 C389 1.366 . S
C390 C391 1.414 . S
C390 C393 1.499 . S
C391 H365 0.950 . S
C391 C390 1.414 . S
C391 C392 1.374 . S
C392 H366 0.950 . S
C392 C388 1.385 1_655 S
C392 C391 1.374 . S
C393 C390 1.499 . S
C393 C394 1.373 1_565 S
C393 C395 1.389 . S
C394 H367 0.950 . S
C394 C380 1.377 . S
C394 C393 1.373 1_545 S
C395 C379 1.377 1_565 S
C395 C393 1.389 . S
C395 C396 1.524 . S
C396 C395 1.524 . S
C396 C397 1.397 . S
C396 C401 1.363 . S
C397 H368 0.950 . S
C397 C396 1.397 . S
C397 C398 1.334 . S
C398 H369 0.950 . S
C398 C397 1.334 . S
C398 C399 1.287 . S
C399 C398 1.287 . S
C399 C400 1.524 . S
C399 H402 0.999 1_655 S
C400 H370 0.950 . S
C400 C399 1.524 . S
C400 C401 1.415 . S
C401 H371 0.950 1_565 S
C401 C396 1.363 . S
C401 C400 1.415 . S
H402 C399 0.999 1_455 S
H403 C384 0.913 . S
H404 C422 0.951 . S
H405 C424 0.951 . S
H406 C426 0.950 . S
H407 C427 0.950 . S
H408 C429 0.950 . S
H409 C432 0.950 . S
H410 C433 0.950 . S
H411 C435 0.950 . S
H412 C436 0.950 . S
H413 C437 0.951 . S
H414 C439 0.951 . S
H415 C441 0.950 . S
H416 C442 0.950 . S
H417 C444 0.950 . S
H418 C447 0.950 . S
H419 C448 0.950 . S
H420 C450 0.950 . S
H421 C451 0.950 . S
C422 H404 0.951 . S
C422 C423 1.366 . S
C422 C424 1.388 . S
C423 C422 1.366 . S
C423 C427 1.385 . S
C424 H405 0.951 . S
C424 C422 1.388 . S
C424 C425 1.366 . S
C425 C424 1.366 . S
C425 C426 1.414 . S
C425 C428 1.499 . S
C426 H406 0.950 . S
C426 C425 1.414 . S
C426 C427 1.374 . S
C427 H407 0.950 . S
C427 C423 1.385 . S
C427 C426 1.374 . S
C428 C425 1.499 . S
C428 C429 1.373 . S
C428 C430 1.389 . S
C429 H408 0.950 . S
C429 C428 1.373 . S
C429 C445 1.377 . S
C430 C428 1.389 . S
C430 C431 1.524 . S
C430 C444 1.377 . S
C431 C430 1.524 . S
C431 C432 1.397 . S
C431 C436 1.363 . S
C432 H409 0.950 . S
C432 C431 1.397 . S
C432 C433 1.334 . S
C433 H410 0.950 . S
C433 C432 1.334 . S
C433 C434 1.287 . S
C434 C433 1.287 . S
C434 C435 1.524 . S
C434 H453 0.913 . S
C435 H411 0.950 . S
C435 C434 1.524 . S
C435 C436 1.415 . S
C436 H412 0.950 . S
C436 C431 1.363 . S
C436 C435 1.415 . S
C437 H413 0.951 . S
C437 C438 1.366 1_455 S
C437 C439 1.388 . S
C438 C437 1.366 1_655 S
C438 C442 1.385 . S
C439 H414 0.951 . S
C439 C437 1.388 . S
C439 C440 1.366 . S
C440 C439 1.366 . S
C440 C441 1.414 . S
C440 C443 1.499 . S
C441 H415 0.950 . S
C441 C440 1.414 . S
C441 C442 1.374 1_455 S
C442 H416 0.950 . S
C442 C438 1.385 . S
C442 C441 1.374 1_655 S
C443 C440 1.499 . S
C443 C444 1.373 . S
C443 C445 1.389 . S
C444 H417 0.950 . S
C444 C430 1.377 . S
C444 C443 1.373 . S
C445 C429 1.377 . S
C445 C443 1.389 . S
C445 C446 1.524 . S
C446 C445 1.524 . S
C446 C447 1.397 . S
C446 C451 1.363 . S
C447 H418 0.950 . S
C447 C446 1.397 . S
C447 C448 1.334 . S
C448 H419 0.950 . S
C448 C447 1.334 . S
C448 C449 1.287 . S
C449 C448 1.287 . S
C449 C450 1.524 . S
C449 H452 0.999 . S
C450 H420 0.950 . S
C450 C449 1.524 . S
C450 C451 1.415 . S
C451 H421 0.950 . S
C451 C446 1.363 . S
C451 C450 1.415 . S
H452 C449 0.999 . S
H453 C434 0.913 . S
H454 C472 0.951 . S
H455 C474 0.951 . S
H456 C476 0.954 . S
H457 C477 0.950 . S
H458 C479 0.950 . S
H459 C482 0.950 . S
H460 C483 0.950 . S
H461 C485 0.950 . S
H462 C486 0.950 1_565 S
H463 C487 0.951 . S
H464 C489 0.951 . S
H465 C491 0.950 1_565 S
H466 C492 0.950 . S
H467 C494 0.950 . S
H468 C497 0.950 . S
H469 C498 0.950 . S
H470 C500 0.950 . S
H471 C501 0.950 1_545 S
C472 H454 0.951 . S
C472 C473 1.366 . S
C472 C474 1.388 . S
C473 C472 1.366 . S
C473 C477 1.385 . S
C474 H455 0.951 . S
C474 C472 1.388 . S
C474 C475 1.366 . S
C475 C474 1.366 . S
C475 C476 1.414 . S
C475 C478 1.499 . S
C476 H456 0.954 . S
C476 C475 1.414 . S
C476 C477 1.374 . S
C477 H457 0.950 . S
C477 C473 1.385 . S
C477 C476 1.374 . S
C478 C475 1.499 . S
C478 C479 1.373 . S
C478 C480 1.389 1_565 S
C479 H458 0.950 . S
C479 C478 1.373 . S
C479 C495 1.377 . S
C480 C478 1.389 1_545 S
C480 C481 1.524 . S
C480 C494 1.377 . S
C481 C480 1.524 . S
C481 C482 1.397 . S
C481 C486 1.363 . S
C482 H459 0.950 . S
C482 C481 1.397 . S
C482 C483 1.334 . S
C483 H460 0.950 . S
C483 C482 1.334 . S
C483 C484 1.287 . S
C484 C483 1.287 . S
C484 C485 1.524 . S
C484 H503 0.913 . S
C485 H461 0.950 . S
C485 C484 1.524 . S
C485 C486 1.415 . S
C486 H462 0.950 1_545 S
C486 C481 1.363 . S
C486 C485 1.415 . S
C487 H463 0.951 . S
C487 C488 1.366 . S
C487 C489 1.388 . S
C488 C487 1.366 . S
C488 C492 1.385 . S
C489 H464 0.951 . S
C489 C487 1.388 . S
C489 C490 1.366 . S
C490 C489 1.366 . S
C490 C491 1.414 . S
C490 C493 1.499 . S
C491 H465 0.950 1_545 S
C491 C490 1.414 . S
C491 C492 1.374 . S
C492 H466 0.950 . S
C492 C488 1.385 . S
C492 C491 1.374 . S
C493 C490 1.499 . S
C493 C494 1.373 . S
C493 C495 1.389 1_545 S
C494 H467 0.950 . S
C494 C480 1.377 . S
C494 C493 1.373 . S
C495 C479 1.377 . S
C495 C493 1.389 1_565 S
C495 C496 1.524 . S
C496 C495 1.524 . S
C496 C497 1.397 . S
C496 C501 1.363 . S
C497 H468 0.950 . S
C497 C496 1.397 . S
C497 C498 1.334 . S
C498 H469 0.950 . S
C498 C497 1.334 . S
C498 C499 1.287 . S
C499 C498 1.287 . S
C499 C500 1.524 . S
C499 H502 0.999 . S
C500 H470 0.950 . S
C500 C499 1.524 . S
C500 C501 1.415 . S
C501 H471 0.950 1_565 S
C501 C496 1.363 . S
C501 C500 1.415 . S
H502 C499 0.999 . S
H503 C484 0.913 . S
H504 C522 0.951 . S
H505 C524 0.951 . S
H506 C526 0.950 . S
H507 C527 0.950 . S
H508 C529 0.950 . S
H509 C532 0.950 . S
H510 C533 0.950 . S
H511 C535 0.950 . S
H512 C536 0.950 . S
H513 C537 0.951 . S
H514 C539 0.951 . S
H515 C541 0.950 . S
H516 C542 0.950 . S
H517 C544 0.950 . S
H518 C547 0.950 . S
H519 C548 0.950 . S
H520 C550 0.950 . S
H521 C551 0.950 . S
C522 H504 0.951 . S
C522 C523 1.366 . S
C522 C524 1.388 . S
C523 C522 1.366 . S
C523 C527 1.385 . S
C524 H505 0.951 . S
C524 C522 1.388 . S
C524 C525 1.366 . S
C525 C524 1.366 . S
C525 C526 1.414 . S
C525 C528 1.499 . S
C526 H506 0.950 . S
C526 C525 1.414 . S
C526 C527 1.374 . S
C527 H507 0.950 . S
C527 C523 1.385 . S
C527 C526 1.374 . S
C528 C525 1.499 . S
C528 C529 1.373 1_455 S
C528 C530 1.389 . S
C529 H508 0.950 . S
C529 C528 1.373 1_655 S
C529 C545 1.377 . S
C530 C528 1.389 . S
C530 C531 1.524 . S
C530 C544 1.377 . S
C531 C530 1.524 . S
C531 C532 1.397 . S
C531 C536 1.363 . S
C532 H509 0.950 . S
C532 C531 1.397 . S
C532 C533 1.334 . S
C533 H510 0.950 . S
C533 C532 1.334 . S
C533 C534 1.287 . S
C534 C533 1.287 . S
C534 C535 1.524 . S
C534 H553 0.913 . S
C535 H511 0.950 . S
C535 C534 1.524 . S
C535 C536 1.415 . S
C536 H512 0.950 . S
C536 C531 1.363 . S
C536 C535 1.415 . S
C537 H513 0.951 . S
C537 C538 1.366 . S
C537 C539 1.388 . S
C538 C537 1.366 . S
C538 C542 1.385 . S
C539 H514 0.951 . S
C539 C537 1.388 . S
C539 C540 1.366 . S
C540 C539 1.366 . S
C540 C541 1.414 . S
C540 C543 1.499 . S
C541 H515 0.950 . S
C541 C540 1.414 . S
C541 C542 1.374 . S
C542 H516 0.950 . S
C542 C538 1.385 . S
C542 C541 1.374 . S
C543 C540 1.499 . S
C543 C544 1.373 1_655 S
C543 C545 1.389 . S
C544 H517 0.950 . S
C544 C530 1.377 . S
C544 C543 1.373 1_455 S
C545 C529 1.377 . S
C545 C543 1.389 . S
C545 C546 1.524 . S
C546 C545 1.524 . S
C546 C547 1.397 . S
C546 C551 1.363 . S
C547 H518 0.950 . S
C547 C546 1.397 . S
C547 C548 1.334 . S
C548 H519 0.950 . S
C548 C547 1.334 . S
C548 C549 1.287 . S
C549 C548 1.287 . S
C549 C550 1.524 . S
C549 H552 0.999 . S
C550 H520 0.950 . S
C550 C549 1.524 . S
C550 C551 1.415 . S
C551 H521 0.950 . S
C551 C546 1.363 . S
C551 C550 1.415 . S
H552 C549 0.999 . S
H553 C534 0.913 . S
H554 C572 0.951 . S
H555 C574 0.951 1_545 S
H556 C576 0.950 . S
H557 C577 0.950 . S
H558 C579 0.950 . S
H559 C582 0.950 . S
H560 C583 0.950 . S
H561 C585 0.950 . S
H562 C586 0.950 . S
H563 C587 0.951 . S
H564 C589 0.951 1_565 S
H565 C591 0.950 . S
H566 C592 0.950 . S
H567 C594 0.950 . S
H568 C597 0.950 . S
H569 C598 0.950 . S
H570 C600 0.950 . S
H571 C601 0.950 . S
C572 H554 0.951 . S
C572 C573 1.366 . S
C572 C574 1.388 . S
C573 C572 1.366 . S
C573 C577 1.385 . S
C574 H555 0.951 1_565 S
C574 C572 1.388 . S
C574 C575 1.366 . S
C575 C574 1.366 . S
C575 C576 1.414 . S
C575 C578 1.499 . S
C576 H556 0.950 . S
C576 C575 1.414 . S
C576 C577 1.374 . S
C577 H557 0.950 . S
C577 C573 1.385 . S
C577 C576 1.374 . S
C578 C575 1.499 . S
C578 C579 1.373 . S
C578 C580 1.389 . S
C579 H558 0.950 . S
C579 C578 1.373 . S
C579 C595 1.377 1_565 S
C580 C578 1.389 . S
C580 C581 1.524 . S
C580 C594 1.377 1_565 S
C581 C580 1.524 . S
C581 C582 1.397 . S
C581 C586 1.363 1_565 S
C582 H559 0.950 . S
C582 C581 1.397 . S
C582 C583 1.334 . S
C583 H560 0.950 . S
C583 C582 1.334 . S
C583 C584 1.287 . S
C584 C583 1.287 . S
C584 C585 1.524 1_565 S
C584 H603 0.913 . S
C585 H561 0.950 . S
C585 C584 1.524 1_545 S
C585 C586 1.415 . S
C586 H562 0.950 . S
C586 C581 1.363 1_545 S
C586 C585 1.415 . S
C587 H563 0.951 . S
C587 C588 1.366 . S
C587 C589 1.388 . S
C588 C587 1.366 . S
C588 C592 1.385 . S
C589 H564 0.951 1_545 S
C589 C587 1.388 . S
C589 C590 1.366 . S
C590 C589 1.366 . S
C590 C591 1.414 . S
C590 C593 1.499 . S
C591 H565 0.950 . S
C591 C590 1.414 . S
C591 C592 1.374 . S
C592 H566 0.950 . S
C592 C588 1.385 . S
C592 C591 1.374 . S
C593 C590 1.499 . S
C593 C594 1.373 . S
C593 C595 1.389 . S
C594 H567 0.950 . S
C594 C580 1.377 1_545 S
C594 C593 1.373 . S
C595 C579 1.377 1_545 S
C595 C593 1.389 . S
C595 C596 1.524 . S
C596 C595 1.524 . S
C596 C597 1.397 . S
C596 C601 1.363 1_545 S
C597 H568 0.950 . S
C597 C596 1.397 . S
C597 C598 1.334 . S
C598 H569 0.950 . S
C598 C597 1.334 . S
C598 C599 1.287 . S
C599 C598 1.287 . S
C599 C600 1.524 1_545 S
C599 H602 0.999 . S
C600 H570 0.950 . S
C600 C599 1.524 1_565 S
C600 C601 1.415 . S
C601 H571 0.950 . S
C601 C596 1.363 1_565 S
C601 C600 1.415 . S
H602 C599 0.999 . S
H603 C584 0.913 . S
H604 C622 0.951 . S
H605 C624 0.951 . S
H606 C626 0.950 . S
H607 C627 0.950 . S
H608 C629 0.950 . S
H609 C632 0.950 . S
H610 C633 0.950 . S
H611 C635 0.950 . S
H612 C636 0.950 . S
H613 C637 0.951 . S
H614 C639 0.951 . S
H615 C641 0.950 . S
H616 C642 0.950 . S
H617 C644 0.950 . S
H618 C647 0.950 . S
H619 C648 0.950 . S
H620 C650 0.950 . S
H621 C651 0.950 . S
C622 H604 0.951 . S
C622 C623 1.366 . S
C622 C624 1.388 . S
C623 C622 1.366 . S
C623 C627 1.385 . S
C624 H605 0.951 . S
C624 C622 1.388 . S
C624 C625 1.366 . S
C625 C624 1.366 . S
C625 C626 1.414 . S
C625 C628 1.499 . S
C626 H606 0.950 . S
C626 C625 1.414 . S
C626 C627 1.374 . S
C627 H607 0.950 . S
C627 C623 1.385 . S
C627 C626 1.374 . S
C628 C625 1.499 . S
C628 C629 1.373 . S
C628 C630 1.389 . S
C629 H608 0.950 . S
C629 C628 1.373 . S
C629 C645 1.377 1_554 S
C630 C628 1.389 . S
C630 C631 1.524 . S
C630 C644 1.377 1_554 S
C631 C630 1.524 . S
C631 C632 1.397 . S
C631 C636 1.363 . S
C632 H609 0.950 . S
C632 C631 1.397 . S
C632 C633 1.334 . S
C633 H610 0.950 . S
C633 C632 1.334 . S
C633 C634 1.287 . S
C634 C633 1.287 . S
C634 C635 1.524 . S
C634 H653 0.913 . S
C635 H611 0.950 . S
C635 C634 1.524 . S
C635 C636 1.415 . S
C636 H612 0.950 . S
C636 C631 1.363 . S
C636 C635 1.415 . S
C637 H613 0.951 . S
C637 C638 1.366 . S
C637 C639 1.388 . S
C638 C637 1.366 . S
C638 C642 1.385 . S
C639 H614 0.951 . S
C639 C637 1.388 . S
C639 C640 1.366 . S
C640 C639 1.366 . S
C640 C641 1.414 . S
C640 C643 1.499 . S
C641 H615 0.950 . S
C641 C640 1.414 . S
C641 C642 1.374 . S
C642 H616 0.950 . S
C642 C638 1.385 . S
C642 C641 1.374 . S
C643 C640 1.499 . S
C643 C644 1.373 . S
C643 C645 1.389 . S
C644 H617 0.950 . S
C644 C630 1.377 1_556 S
C644 C643 1.373 . S
C645 C629 1.377 1_556 S
C645 C643 1.389 . S
C645 C646 1.524 . S
C646 C645 1.524 . S
C646 C647 1.397 . S
C646 C651 1.363 . S
C647 H618 0.950 . S
C647 C646 1.397 . S
C647 C648 1.334 . S
C648 H619 0.950 . S
C648 C647 1.334 . S
C648 C649 1.287 . S
C649 C648 1.287 . S
C649 C650 1.524 . S
C649 H652 0.999 . S
C650 H620 0.950 . S
C650 C649 1.524 . S
C650 C651 1.415 . S
C651 H621 0.950 . S
C651 C646 1.363 . S
C651 C650 1.415 . S
H652 C649 0.999 . S
H653 C634 0.913 . S
H654 C672 0.951 . S
H655 C674 0.951 . S
H656 C676 0.950 1_655 S
H657 C677 0.950 . S
H658 C679 0.950 . S
H659 C682 0.950 . S
H660 C683 0.950 . S
H661 C685 0.950 . S
H662 C686 0.950 . S
H663 C687 0.951 . S
H664 C689 0.951 . S
H665 C691 0.950 1_455 S
H666 C692 0.950 . S
H667 C694 0.950 . S
H668 C697 0.950 . S
H669 C698 0.950 . S
H670 C700 0.950 . S
H671 C701 0.950 . S
C672 H654 0.951 . S
C672 C673 1.366 . S
C672 C674 1.388 . S
C673 C672 1.366 . S
C673 C677 1.385 . S
C674 H655 0.951 . S
C674 C672 1.388 . S
C674 C675 1.366 . S
C675 C674 1.366 . S
C675 C676 1.414 . S
C675 C678 1.499 . S
C676 H656 0.950 1_455 S
C676 C675 1.414 . S
C676 C677 1.374 . S
C677 H657 0.950 . S
C677 C673 1.385 . S
C677 C676 1.374 . S
C678 C675 1.499 . S
C678 C679 1.373 1_465 S
C678 C680 1.389 1_556 S
C679 H658 0.950 . S
C679 C678 1.373 1_645 S
C679 C695 1.377 . S
C680 C678 1.389 1_554 S
C680 C681 1.524 . S
C680 C694 1.377 . S
C681 C680 1.524 . S
C681 C682 1.397 1_554 S
C681 C686 1.363 . S
C682 H659 0.950 . S
C682 C681 1.397 1_556 S
C682 C683 1.334 . S
C683 H660 0.950 . S
C683 C682 1.334 . S
C683 C684 1.287 1_556 S
C684 C683 1.287 1_554 S
C684 C685 1.524 . S
C684 H703 0.913 . S
C685 H661 0.950 . S
C685 C684 1.524 . S
C685 C686 1.415 . S
C686 H662 0.950 . S
C686 C681 1.363 . S
C686 C685 1.415 . S
C687 H663 0.951 . S
C687 C688 1.366 . S
C687 C689 1.388 . S
C688 C687 1.366 . S
C688 C692 1.385 . S
C689 H664 0.951 . S
C689 C687 1.388 . S
C689 C690 1.366 . S
C690 C689 1.366 . S
C690 C691 1.414 . S
C690 C693 1.499 . S
C691 H665 0.950 1_655 S
C691 C690 1.414 . S
C691 C692 1.374 . S
C692 H666 0.950 . S
C692 C688 1.385 . S
C692 C691 1.374 . S
C693 C690 1.499 . S
C693 C694 1.373 1_645 S
C693 C695 1.389 1_554 S
C694 H667 0.950 . S
C694 C680 1.377 . S
C694 C693 1.373 1_465 S
C695 C679 1.377 . S
C695 C693 1.389 1_556 S
C695 C696 1.524 . S
C696 C695 1.524 . S
C696 C697 1.397 1_556 S
C696 C701 1.363 . S
C697 H668 0.950 . S
C697 C696 1.397 1_554 S
C697 C698 1.334 . S
C698 H669 0.950 . S
C698 C697 1.334 . S
C698 C699 1.287 1_554 S
C699 C698 1.287 1_556 S
C699 C700 1.524 . S
C699 H702 0.999 . S
C700 H670 0.950 . S
C700 C699 1.524 . S
C700 C701 1.415 . S
C701 H671 0.950 . S
C701 C696 1.363 . S
C701 C700 1.415 . S
H702 C699 0.999 . S
H703 C684 0.913 . S
H704 C722 0.951 . S
H705 C724 0.951 . S
H706 C726 0.950 . S
H707 C727 0.950 . S
H708 C729 0.950 . S
H709 C732 0.950 . S
H710 C733 0.950 . S
H711 C735 0.950 . S
H712 C736 0.950 . S
H713 C737 0.951 . S
H714 C739 0.951 . S
H715 C741 0.950 . S
H716 C742 0.950 . S
H717 C744 0.950 . S
H718 C747 0.950 . S
H719 C748 0.950 . S
H720 C750 0.950 . S
H721 C751 0.950 . S
C722 H704 0.951 . S
C722 C723 1.366 . S
C722 C724 1.388 . S
C723 C722 1.366 . S
C723 C727 1.385 . S
C724 H705 0.951 . S
C724 C722 1.388 . S
C724 C725 1.366 . S
C725 C724 1.366 . S
C725 C726 1.414 . S
C725 C728 1.499 . S
C726 H706 0.950 . S
C726 C725 1.414 . S
C726 C727 1.374 . S
C727 H707 0.950 . S
C727 C723 1.385 . S
C727 C726 1.374 . S
C728 C725 1.499 . S
C728 C729 1.373 . S
C728 C730 1.389 . S
C729 H708 0.950 . S
C729 C728 1.373 . S
C729 C745 1.377 . S
C730 C728 1.389 . S
C730 C731 1.524 . S
C730 C744 1.377 . S
C731 C730 1.524 . S
C731 C732 1.397 . S
C731 C736 1.363 . S
C732 H709 0.950 . S
C732 C731 1.397 . S
C732 C733 1.334 . S
C733 H710 0.950 . S
C733 C732 1.334 . S
C733 C734 1.287 . S
C734 C733 1.287 . S
C734 C735 1.524 . S
C734 H753 0.913 . S
C735 H711 0.950 . S
C735 C734 1.524 . S
C735 C736 1.415 . S
C736 H712 0.950 . S
C736 C731 1.363 . S
C736 C735 1.415 . S
C737 H713 0.951 . S
C737 C738 1.366 . S
C737 C739 1.388 . S
C738 C737 1.366 . S
C738 C742 1.385 . S
C739 H714 0.951 . S
C739 C737 1.388 . S
C739 C740 1.366 . S
C740 C739 1.366 . S
C740 C741 1.414 . S
C740 C743 1.499 . S
C741 H715 0.950 . S
C741 C740 1.414 . S
C741 C742 1.374 . S
C742 H716 0.950 . S
C742 C738 1.385 . S
C742 C741 1.374 . S
C743 C740 1.499 . S
C743 C744 1.373 . S
C743 C745 1.389 . S
C744 H717 0.950 . S
C744 C730 1.377 . S
C744 C743 1.373 . S
C745 C729 1.377 . S
C745 C743 1.389 . S
C745 C746 1.524 . S
C746 C745 1.524 . S
C746 C747 1.397 . S
C746 C751 1.363 . S
C747 H718 0.950 . S
C747 C746 1.397 . S
C747 C748 1.334 . S
C748 H719 0.950 . S
C748 C747 1.334 . S
C748 C749 1.287 . S
C749 C748 1.287 . S
C749 C750 1.524 . S
C749 H752 0.999 . S
C750 H720 0.950 . S
C750 C749 1.524 . S
C750 C751 1.415 . S
C751 H721 0.950 . S
C751 C746 1.363 . S
C751 C750 1.415 . S
H752 C749 0.999 . S
H753 C734 0.913 . S
H754 C772 0.951 . S
H755 C774 0.951 . S
H756 C776 0.950 . S
H757 C777 0.950 . S
H758 C779 0.950 . S
H759 C782 0.950 . S
H760 C783 0.950 . S
H761 C785 0.950 . S
H762 C786 0.950 . S
H763 C787 0.951 . S
H764 C789 0.951 . S
H765 C791 0.950 . S
H766 C792 0.950 . S
H767 C794 0.950 . S
H768 C797 0.950 . S
H769 C798 0.950 . S
H770 C800 0.950 . S
H771 C801 0.950 . S
C772 H754 0.951 . S
C772 C773 1.366 . S
C772 C774 1.388 . S
C773 C772 1.366 . S
C773 C777 1.385 . S
C774 H755 0.951 . S
C774 C772 1.388 . S
C774 C775 1.366 . S
C775 C774 1.366 . S
C775 C776 1.414 . S
C775 C778 1.499 . S
C776 H756 0.950 . S
C776 C775 1.414 . S
C776 C777 1.374 . S
C777 H757 0.950 . S
C777 C773 1.385 . S
C777 C776 1.374 . S
C778 C775 1.499 . S
C778 C779 1.373 . S
C778 C780 1.389 . S
C779 H758 0.950 . S
C779 C778 1.373 . S
C779 C795 1.377 . S
C780 C778 1.389 . S
C780 C781 1.524 . S
C780 C794 1.377 . S
C781 C780 1.524 . S
C781 C782 1.397 . S
C781 C786 1.363 . S
C782 H759 0.950 . S
C782 C781 1.397 . S
C782 C783 1.334 . S
C783 H760 0.950 . S
C783 C782 1.334 . S
C783 C784 1.287 . S
C784 C783 1.287 . S
C784 C785 1.524 . S
C784 H803 0.913 . S
C785 H761 0.950 . S
C785 C784 1.524 . S
C785 C786 1.415 . S
C786 H762 0.950 . S
C786 C781 1.363 . S
C786 C785 1.415 . S
C787 H763 0.951 . S
C787 C788 1.366 . S
C787 C789 1.388 . S
C788 C787 1.366 . S
C788 C792 1.385 . S
C789 H764 0.951 . S
C789 C787 1.388 . S
C789 C790 1.366 . S
C790 C789 1.366 . S
C790 C791 1.414 . S
C790 C793 1.499 . S
C791 H765 0.950 . S
C791 C790 1.414 . S
C791 C792 1.374 . S
C792 H766 0.950 . S
C792 C788 1.385 . S
C792 C791 1.374 . S
C793 C790 1.499 . S
C793 C794 1.373 . S
C793 C795 1.389 . S
C794 H767 0.950 . S
C794 C780 1.377 . S
C794 C793 1.373 . S
C795 C779 1.377 . S
C795 C793 1.389 . S
C795 C796 1.524 . S
C796 C795 1.524 . S
C796 C797 1.397 . S
C796 C801 1.363 . S
C797 H768 0.950 . S
C797 C796 1.397 . S
C797 C798 1.334 . S
C798 H769 0.950 . S
C798 C797 1.334 . S
C798 C799 1.287 . S
C799 C798 1.287 . S
C799 C800 1.524 . S
C799 H802 0.999 . S
C800 H770 0.950 . S
C800 C799 1.524 . S
C800 C801 1.415 . S
C801 H771 0.950 . S
C801 C796 1.363 . S
C801 C800 1.415 . S
H802 C799 0.999 . S
H803 C784 0.913 . S
H804 C822 0.951 . S
H805 C824 0.951 . S
H806 C826 0.950 . S
H807 C827 0.950 . S
H808 C829 0.950 . S
H809 C832 0.950 . S
H810 C833 0.950 . S
H811 C835 0.950 . S
H812 C836 0.950 . S
H813 C837 0.951 . S
H814 C839 0.951 . S
H815 C841 0.950 . S
H816 C842 0.950 . S
H817 C844 0.950 . S
H818 C847 0.950 . S
H819 C848 0.950 . S
H820 C850 0.950 . S
H821 C851 0.950 . S
C822 H804 0.951 . S
C822 C823 1.366 . S
C822 C824 1.388 . S
C823 C822 1.366 . S
C823 C827 1.385 . S
C824 H805 0.951 . S
C824 C822 1.388 . S
C824 C825 1.366 . S
C825 C824 1.366 . S
C825 C826 1.414 . S
C825 C828 1.499 . S
C826 H806 0.950 . S
C826 C825 1.414 . S
C826 C827 1.374 . S
C827 H807 0.950 . S
C827 C823 1.385 . S
C827 C826 1.374 . S
C828 C825 1.499 . S
C828 C829 1.373 . S
C828 C830 1.389 . S
C829 H808 0.950 . S
C829 C828 1.373 . S
C829 C845 1.377 . S
C830 C828 1.389 . S
C830 C831 1.524 . S
C830 C844 1.377 . S
C831 C830 1.524 . S
C831 C832 1.397 . S
C831 C836 1.363 . S
C832 H809 0.950 . S
C832 C831 1.397 . S
C832 C833 1.334 . S
C833 H810 0.950 . S
C833 C832 1.334 . S
C833 C834 1.287 . S
C834 C833 1.287 . S
C834 C835 1.524 . S
C834 H853 0.913 . S
C835 H811 0.950 . S
C835 C834 1.524 . S
C835 C836 1.415 . S
C836 H812 0.950 . S
C836 C831 1.363 . S
C836 C835 1.415 . S
C837 H813 0.951 . S
C837 C838 1.366 . S
C837 C839 1.388 . S
C838 C837 1.366 . S
C838 C842 1.385 . S
C839 H814 0.951 . S
C839 C837 1.388 . S
C839 C840 1.366 . S
C840 C839 1.366 . S
C840 C841 1.414 . S
C840 C843 1.499 . S
C841 H815 0.950 . S
C841 C840 1.414 . S
C841 C842 1.374 . S
C842 H816 0.950 . S
C842 C838 1.385 . S
C842 C841 1.374 . S
C843 C840 1.499 . S
C843 C844 1.373 . S
C843 C845 1.389 . S
C844 H817 0.950 . S
C844 C830 1.377 . S
C844 C843 1.373 . S
C845 C829 1.377 . S
C845 C843 1.389 . S
C845 C846 1.524 . S
C846 C845 1.524 . S
C846 C847 1.397 . S
C846 C851 1.363 . S
C847 H818 0.950 . S
C847 C846 1.397 . S
C847 C848 1.334 . S
C848 H819 0.950 . S
C848 C847 1.334 . S
C848 C849 1.287 . S
C849 C848 1.287 . S
C849 C850 1.524 . S
C849 H852 0.999 . S
C850 H820 0.950 . S
C850 C849 1.524 . S
C850 C851 1.415 . S
C851 H821 0.950 . S
C851 C846 1.363 . S
C851 C850 1.415 . S
H852 C849 0.999 . S
H853 C834 0.913 . S
H854 C872 0.951 . S
H855 C874 0.951 . S
H856 C876 0.950 . S
H857 C877 0.950 . S
H858 C879 0.950 . S
H859 C882 0.950 . S
H860 C883 0.950 . S
H861 C885 0.950 . S
H862 C886 0.950 . S
H863 C887 0.951 . S
H864 C889 0.951 . S
H865 C891 0.950 . S
H866 C892 0.950 . S
H867 C894 0.950 . S
H868 C897 0.950 . S
H869 C898 0.950 . S
H870 C900 0.950 . S
H871 C901 0.950 . S
C872 H854 0.951 . S
C872 C873 1.366 . S
C872 C874 1.388 . S
C873 C872 1.366 . S
C873 C877 1.385 . S
C874 H855 0.951 . S
C874 C872 1.388 . S
C874 C875 1.366 . S
C875 C874 1.366 . S
C875 C876 1.414 . S
C875 C878 1.499 . S
C876 H856 0.950 . S
C876 C875 1.414 . S
C876 C877 1.374 . S
C877 H857 0.950 . S
C877 C873 1.385 . S
C877 C876 1.374 . S
C878 C875 1.499 . S
C878 C879 1.373 . S
C878 C880 1.389 . S
C879 H858 0.950 . S
C879 C878 1.373 . S
C879 C895 1.377 . S
C880 C878 1.389 . S
C880 C881 1.524 . S
C880 C894 1.377 . S
C881 C880 1.524 . S
C881 C882 1.397 . S
C881 C886 1.363 . S
C882 H859 0.950 . S
C882 C881 1.397 . S
C882 C883 1.334 . S
C883 H860 0.950 . S
C883 C882 1.334 . S
C883 C884 1.287 . S
C884 C883 1.287 . S
C884 C885 1.524 . S
C884 H903 0.913 . S
C885 H861 0.950 . S
C885 C884 1.524 . S
C885 C886 1.415 . S
C886 H862 0.950 . S
C886 C881 1.363 . S
C886 C885 1.415 . S
C887 H863 0.951 . S
C887 C888 1.366 . S
C887 C889 1.388 . S
C888 C887 1.366 . S
C888 C892 1.385 . S
C889 H864 0.951 . S
C889 C887 1.388 . S
C889 C890 1.366 . S
C890 C889 1.366 . S
C890 C891 1.414 . S
C890 C893 1.499 . S
C891 H865 0.950 . S
C891 C890 1.414 . S
C891 C892 1.374 . S
C892 H866 0.950 . S
C892 C888 1.385 . S
C892 C891 1.374 . S
C893 C890 1.499 . S
C893 C894 1.373 . S
C893 C895 1.389 . S
C894 H867 0.950 . S
C894 C880 1.377 . S
C894 C893 1.373 . S
C895 C879 1.377 . S
C895 C893 1.389 . S
C895 C896 1.524 . S
C896 C895 1.524 . S
C896 C897 1.397 . S
C896 C901 1.363 . S
C897 H868 0.950 . S
C897 C896 1.397 . S
C897 C898 1.334 . S
C898 H869 0.950 . S
C898 C897 1.334 . S
C898 C899 1.287 . S
C899 C898 1.287 . S
C899 C900 1.524 . S
C899 H902 0.999 . S
C900 H870 0.950 . S
C900 C899 1.524 . S
C900 C901 1.415 . S
C901 H871 0.950 . S
C901 C896 1.363 . S
C901 C900 1.415 . S
H902 C899 0.999 . S
H903 C884 0.913 . S
C123 C10 1.571 . S
C138 C29 1.572 . S
C173 C44 1.572 . S
C188 C23 1.571 . S
C223 C30 1.571 . S
C238 C5 1.572 . S
C273 C49 1.571 . S
C288 C18 1.572 . S
C323 C83 1.572 . S
C338 C56 1.571 . S
C373 C75 1.571 . S
C388 C96 1.572 . S
C423 C88 1.571 . S
C438 C55 1.572 . S
C473 C101 1.571 . S
C488 C70 1.572 . S
C523 C3 1.518 . S
C538 C57 1.518 . S
C573 C16 1.518 . S
C588 C68 1.518 . S
C623 C31 1.518 . S
C638 C81 1.518 . S
C673 C94 1.518 . S
C688 C42 1.518 . S
C723 C4 1.523 . S
C738 C17 1.522 . S
C773 C43 1.522 . S
C788 C36 1.522 . S
C823 C69 1.523 . S
C838 C62 1.522 . S
C873 C82 1.522 . S
C888 C95 1.523 . S
