# Generated by pormake.
# Topology acs-g, (3)-cn, num edge types: 1
# Building blocks:
#     Node 0, Type 0, BuildingBlock: WUSLED_clean_sbu_0, # of connection points: 3
#     Node 1, Type 0, BuildingBlock: WUSLED_clean_sbu_0, # of connection points: 3
#     Node 2, Type 0, BuildingBlock: WUSLED_clean_sbu_0, # of connection points: 3
#     Node 3, Type 0, BuildingBlock: WUSLED_clean_sbu_0, # of connection points: 3
#     Node 4, Type 0, BuildingBlock: WUSLED_clean_sbu_0, # of connection points: 3
#     Node 5, Type 0, BuildingBlock: WUSLED_clean_sbu_0, # of connection points: 3
#     Node 6, Type 0, BuildingBlock: WUSLED_clean_sbu_0, # of connection points: 3
#     Node 7, Type 0, BuildingBlock: WUSLED_clean_sbu_0, # of connection points: 3
#     Node 8, Type 0, BuildingBlock: WUSLED_clean_sbu_0, # of connection points: 3
#     Node 9, Type 0, BuildingBlock: WUSLED_clean_sbu_0, # of connection points: 3
#     Node 10, Type 0, BuildingBlock: WUSLED_clean_sbu_0, # of connection points: 3
#     Node 11, Type 0, BuildingBlock: WUSLED_clean_sbu_0, # of connection points: 3
#     Edge 12, Type (0, 0), BuildingBlock: AJUNOK_clean_linker_0, # of connection points: 2
#     Edge 13, Type (0, 0), BuildingBlock: AJUNOK_clean_linker_0, # of connection points: 2
#     Edge 14, Type (0, 0), BuildingBlock: AJUNOK_clean_linker_0, # of connection points: 2
#     Edge 15, Type (0, 0), BuildingBlock: AJUNOK_clean_linker_0, # of connection points: 2
#     Edge 16, Type (0, 0), BuildingBlock: AJUNOK_clean_linker_0, # of connection points: 2
#     Edge 17, Type (0, 0), BuildingBlock: AJUNOK_clean_linker_0, # of connection points: 2
#     Edge 18, Type (0, 0), BuildingBlock: AJUNOK_clean_linker_0, # of connection points: 2
#     Edge 19, Type (0, 0), BuildingBlock: AJUNOK_clean_linker_0, # of connection points: 2
#     Edge 20, Type (0, 0), BuildingBlock: AJUNOK_clean_linker_0, # of connection points: 2
#     Edge 21, Type (0, 0), BuildingBlock: AJUNOK_clean_linker_0, # of connection points: 2
#     Edge 22, Type (0, 0), BuildingBlock: AJUNOK_clean_linker_0, # of connection points: 2
#     Edge 23, Type (0, 0), BuildingBlock: AJUNOK_clean_linker_0, # of connection points: 2
#     Edge 24, Type (0, 0), BuildingBlock: AJUNOK_clean_linker_0, # of connection points: 2
#     Edge 25, Type (0, 0), BuildingBlock: AJUNOK_clean_linker_0, # of connection points: 2
#     Edge 26, Type (0, 0), BuildingBlock: AJUNOK_clean_linker_0, # of connection points: 2
#     Edge 27, Type (0, 0), BuildingBlock: AJUNOK_clean_linker_0, # of connection points: 2
#     Edge 28, Type (0, 0), BuildingBlock: AJUNOK_clean_linker_0, # of connection points: 2
#     Edge 29, Type (0, 0), BuildingBlock: AJUNOK_clean_linker_0, # of connection points: 2
# Relax obj value: 0.022
# Max RMSD: 0.019
# Mean RMSD: 0.019
data_MOF--net-acs-g--node1-WUSLED_clean_sbu_0--edge1-AJUNOK_clean_linker_0
_symmetry_space_group_name_H-M    P1
_symmetry_Int_Tables_number       1
_symmetry_cell_setting            triclinic
loop_
_symmetry_equiv_pos_as_xyz
'x, y, z'
_cell_length_a     62.930229
_cell_length_b     62.901551
_cell_length_c     52.231128
_cell_angle_alpha  90.043316
_cell_angle_beta   89.98522
_cell_angle_gamma 119.9116
loop_
_atom_site_label
_atom_site_type_symbol
_atom_site_fract_x
_atom_site_fract_y
_atom_site_fract_z
_atom_type_partial_charge
C0 C 0.27008 0.38866 0.19514 0.0
C1 C 0.27426 0.39014 0.2217 0.0
C2 C 0.23455 0.38674 0.22963 0.0
C3 C 0.25657 0.38898 0.23878 0.0
C4 C 0.23029 0.38503 0.20307 0.0
C5 C 0.2479 0.38596 0.18599 0.0
U6 U 0.33722 0.41765 0.17846 0.0
O7 O 0.35915 0.40341 0.16021 0.0
O8 O 0.35747 0.43431 0.14286 0.0
C9 C 0.36511 0.41838 0.14054 0.0
C10 C 0.28924 0.39143 0.17689 0.0
C11 C 0.36364 0.40797 0.1146 0.0
C12 C 0.36196 0.37592 0.08684 0.0
C13 C 0.36014 0.38422 0.11123 0.0
C14 C 0.37037 0.4147 0.06863 0.0
C15 C 0.36728 0.39114 0.06529 0.0
C16 C 0.36862 0.42301 0.09296 0.0
C17 C 0.38103 0.46251 0.22971 0.0
C18 C 0.42405 0.49272 0.22373 0.0
C19 C 0.40505 0.48805 0.26527 0.0
C20 C 0.3829 0.4694 0.25547 0.0
C21 C 0.42583 0.50008 0.24948 0.0
C22 C 0.4018 0.47401 0.21391 0.0
C23 C 0.35684 0.44457 0.21953 0.0
O24 O 0.30169 0.41322 0.16635 0.0
O25 O 0.30321 0.3825 0.18432 0.0
O26 O 0.35222 0.42183 0.21747 0.0
O27 O 0.34928 0.45189 0.19975 0.0
H28 H 0.29136 0.39256 0.22925 0.0
H29 H 0.26036 0.39048 0.25913 0.0
H30 H 0.21335 0.38302 0.19553 0.0
H31 H 0.24436 0.38492 0.1656 0.0
H32 H 0.35955 0.3577 0.08487 0.0
H33 H 0.35663 0.37223 0.12748 0.0
H34 H 0.37509 0.4271 0.05254 0.0
H35 H 0.37197 0.44159 0.09493 0.0
H36 H 0.43975 0.50172 0.21112 0.0
H37 H 0.40562 0.49369 0.28497 0.0
H38 H 0.36698 0.46085 0.26786 0.0
H39 H 0.40064 0.46894 0.19392 0.0
C40 C 0.88704 0.26739 0.69744 0.0
C41 C 0.89104 0.27125 0.72393 0.0
C42 C 0.85475 0.23172 0.7327 0.0
C43 C 0.87513 0.25357 0.74135 0.0
C44 C 0.85076 0.22796 0.70615 0.0
C45 C 0.86682 0.24559 0.68871 0.0
U46 U 0.92434 0.33453 0.68041 0.0
O47 O 0.96014 0.3566 0.66177 0.0
O48 O 0.92727 0.35465 0.64478 0.0
C49 C 0.9509 0.36278 0.64249 0.0
C50 C 0.9029 0.28655 0.67891 0.0
C51 C 0.95992 0.36188 0.61662 0.0
C52 C 0.97805 0.34634 0.58591 0.0
C53 C 0.96748 0.34501 0.60996 0.0
C54 C 0.97299 0.3809 0.57474 0.0
C55 C 0.98125 0.36457 0.56818 0.0
C56 C 0.9625 0.37959 0.59869 0.0
C57 C 0.92461 0.37899 0.73162 0.0
C58 C 0.93038 0.41989 0.72572 0.0
C59 C 0.93157 0.40539 0.76836 0.0
C60 C 0.92756 0.38317 0.75808 0.0
C61 C 0.93268 0.42387 0.75235 0.0
C62 C 0.92648 0.39767 0.71542 0.0
C63 C 0.9179 0.3545 0.72171 0.0
O64 O 0.89321 0.29886 0.66875 0.0
O65 O 0.92592 0.30065 0.6858 0.0
O66 O 0.93581 0.3496 0.71934 0.0
O67 O 0.90249 0.34655 0.70237 0.0
H68 H 0.90631 0.28808 0.73122 0.0
H69 H 0.87876 0.25703 0.76164 0.0
H70 H 0.8349 0.21167 0.69882 0.0
H71 H 0.86317 0.24239 0.66838 0.0
H72 H 0.9838 0.33319 0.58123 0.0
H73 H 0.9656 0.3311 0.62346 0.0
H74 H 0.97529 0.39522 0.5616 0.0
H75 H 0.9569 0.39285 0.60346 0.0
H76 H 0.93067 0.43356 0.71292 0.0
H77 H 0.9334 0.40798 0.78892 0.0
H78 H 0.92617 0.36898 0.77088 0.0
H79 H 0.92422 0.39482 0.69492 0.0
C80 C 0.62725 0.88444 0.199 0.0
C81 C 0.61145 0.87563 0.22018 0.0
C82 C 0.62973 0.85122 0.2336 0.0
C83 C 0.61268 0.8592 0.23732 0.0
C84 C 0.64583 0.86043 0.21257 0.0
C85 C 0.64454 0.87686 0.19538 0.0
U86 U 0.59838 0.92227 0.18093 0.0
O87 O 0.61311 0.959 0.16404 0.0
O88 O 0.5836 0.92695 0.14445 0.0
C89 C 0.59923 0.95065 0.1435 0.0
C90 C 0.62542 0.90125 0.18066 0.0
C91 C 0.61073 0.96096 0.11831 0.0
C92 C 0.60537 0.9652 0.07272 0.0
C93 C 0.59615 0.95332 0.09612 0.0
C94 C 0.6443 0.99228 0.09291 0.0
C95 C 0.62934 0.98521 0.07097 0.0
C96 C 0.63508 0.98034 0.11635 0.0
C97 C 0.55084 0.91958 0.22977 0.0
C98 C 0.51743 0.92777 0.22251 0.0
C99 C 0.52797 0.9225 0.26574 0.0
C100 C 0.54675 0.91904 0.25619 0.0
C101 C 0.51292 0.92665 0.249 0.0
C102 C 0.53632 0.92435 0.21295 0.0
C103 C 0.56925 0.91354 0.22038 0.0
O104 O 0.60427 0.89212 0.16872 0.0
O105 O 0.63341 0.92367 0.1891 0.0
O106 O 0.59205 0.93163 0.21982 0.0
O107 O 0.5631 0.89929 0.2001 0.0
H108 H 0.59799 0.88132 0.22333 0.0
H109 H 0.6 0.8524 0.25326 0.0
H110 H 0.65952 0.85505 0.20948 0.0
H111 H 0.65699 0.88358 0.17923 0.0
H112 H 0.59336 0.9594 0.05621 0.0
H113 H 0.57723 0.93869 0.09705 0.0
H114 H 0.663 0.00735 0.09205 0.0
H115 H 0.64683 0.98683 0.13305 0.0
H116 H 0.50609 0.93092 0.20919 0.0
H117 H 0.52461 0.92098 0.28618 0.0
H118 H 0.55768 0.91522 0.26944 0.0
H119 H 0.53921 0.92487 0.19245 0.0
C120 C 0.75103 0.62528 0.69712 0.0
C121 C 0.74391 0.60948 0.71832 0.0
C122 C 0.78653 0.62726 0.73165 0.0
C123 C 0.76149 0.61048 0.73542 0.0
C124 C 0.79354 0.64329 0.71055 0.0
C125 C 0.77592 0.64225 0.6934 0.0
U126 U 0.68444 0.59731 0.67936 0.0
O127 O 0.66286 0.61301 0.66322 0.0
O128 O 0.66469 0.58331 0.64301 0.0
C129 C 0.65697 0.59928 0.64254 0.0
C130 C 0.73245 0.62389 0.67897 0.0
C131 C 0.6583 0.61139 0.61777 0.0
C132 C 0.6684 0.61753 0.57232 0.0
C133 C 0.67061 0.60902 0.59642 0.0
C134 C 0.64239 0.63176 0.59063 0.0
C135 C 0.65394 0.62866 0.56907 0.0
C136 C 0.64455 0.62322 0.61467 0.0
C137 C 0.63938 0.5493 0.72773 0.0
C138 C 0.59967 0.51265 0.72153 0.0
C139 C 0.61222 0.53003 0.76396 0.0
C140 C 0.63428 0.54866 0.75394 0.0
C141 C 0.59481 0.51161 0.74794 0.0
C142 C 0.62172 0.53139 0.71148 0.0
C143 C 0.66389 0.56766 0.71836 0.0
O144 O 0.72024 0.6029 0.66675 0.0
O145 O 0.71824 0.63201 0.6878 0.0
O146 O 0.66894 0.59061 0.71835 0.0
O147 O 0.67194 0.5617 0.69789 0.0
H148 H 0.72474 0.59627 0.72154 0.0
H149 H 0.75552 0.59786 0.75143 0.0
H150 H 0.81263 0.65677 0.70742 0.0
H151 H 0.78173 0.65469 0.67724 0.0
H152 H 0.67751 0.61488 0.55605 0.0
H153 H 0.68128 0.5999 0.59812 0.0
H154 H 0.63067 0.63972 0.58872 0.0
H155 H 0.6346 0.62497 0.63071 0.0
H156 H 0.58685 0.49848 0.70876 0.0
H157 H 0.60894 0.52978 0.78435 0.0
H158 H 0.64767 0.56227 0.76681 0.0
H159 H 0.62524 0.53144 0.69117 0.0
C160 C 0.13092 0.74473 0.19672 0.0
C161 C 0.12841 0.74088 0.22333 0.0
C162 C 0.16471 0.78067 0.23072 0.0
C163 C 0.14504 0.75876 0.24016 0.0
C164 C 0.16704 0.78462 0.20411 0.0
C165 C 0.15026 0.7668 0.18727 0.0
U166 U 0.09325 0.67734 0.18151 0.0
O167 O 0.05694 0.65468 0.16406 0.0
O168 O 0.08936 0.65622 0.14639 0.0
C169 C 0.06564 0.64781 0.14484 0.0
C170 C 0.11449 0.72525 0.17877 0.0
C171 C 0.05577 0.64771 0.1192 0.0
C172 C 0.04194 0.66548 0.0863 0.0
C173 C 0.05281 0.66714 0.11026 0.0
C174 C 0.03725 0.62521 0.08 0.0
C175 C 0.03388 0.64437 0.071 0.0
C176 C 0.04809 0.62689 0.1038 0.0
C177 C 0.09503 0.63459 0.23351 0.0
C178 C 0.08915 0.59357 0.2284 0.0
C179 C 0.09089 0.60985 0.27088 0.0
C180 C 0.09393 0.63153 0.26015 0.0
C181 C 0.08889 0.59079 0.25516 0.0
C182 C 0.09212 0.61527 0.21765 0.0
C183 C 0.10115 0.65869 0.22298 0.0
O184 O 0.12388 0.71271 0.16844 0.0
O185 O 0.09171 0.7113 0.18647 0.0
O186 O 0.08301 0.66329 0.22094 0.0
O187 O 0.11594 0.66615 0.20313 0.0
H188 H 0.11385 0.72385 0.23111 0.0
H189 H 0.1429 0.75519 0.26056 0.0
H190 H 0.18188 0.80147 0.19634 0.0
H191 H 0.15262 0.77009 0.16683 0.0
H192 H 0.03932 0.68042 0.08001 0.0
H193 H 0.05854 0.68335 0.12193 0.0
H194 H 0.03145 0.60883 0.0686 0.0
H195 H 0.0502 0.6117 0.11036 0.0
H196 H 0.08811 0.5794 0.21579 0.0
H197 H 0.09065 0.60818 0.29154 0.0
H198 H 0.09615 0.64624 0.27269 0.0
H199 H 0.09295 0.61727 0.19702 0.0
C200 C 0.39178 0.12778 0.69955 0.0
C201 C 0.40595 0.13451 0.72198 0.0
C202 C 0.38989 0.16111 0.7345 0.0
C203 C 0.40505 0.15103 0.73926 0.0
C204 C 0.3757 0.15432 0.71197 0.0
C205 C 0.37663 0.13775 0.69465 0.0
U206 U 0.42037 0.08981 0.68161 0.0
O207 O 0.40521 0.05242 0.66597 0.0
O208 O 0.43422 0.08392 0.6452 0.0
C209 C 0.41888 0.06012 0.64528 0.0
C210 C 0.39325 0.11073 0.68122 0.0
C211 C 0.40687 0.04873 0.62077 0.0
C212 C 0.3917 0.05049 0.57837 0.0
C213 C 0.40084 0.06119 0.6024 0.0
C214 C 0.39384 0.01461 0.59113 0.0
C215 C 0.38852 0.02725 0.57231 0.0
C216 C 0.40293 0.02526 0.61504 0.0
C217 C 0.46869 0.09358 0.73023 0.0
C218 C 0.50673 0.09275 0.72529 0.0
C219 C 0.48675 0.08432 0.76665 0.0
C220 C 0.46806 0.08741 0.75613 0.0
C221 C 0.50662 0.08759 0.75151 0.0
C222 C 0.48793 0.09573 0.71472 0.0
C223 C 0.45019 0.09947 0.72059 0.0
O224 O 0.41419 0.11966 0.66891 0.0
O225 O 0.3854 0.08844 0.68996 0.0
O226 O 0.4273 0.08153 0.72072 0.0
O227 O 0.45597 0.11326 0.69999 0.0
H228 H 0.41781 0.12703 0.72606 0.0
H229 H 0.41614 0.15586 0.75644 0.0
H230 H 0.36423 0.16215 0.70751 0.0
H231 H 0.36568 0.13289 0.67736 0.0
H232 H 0.38733 0.0605 0.56445 0.0
H233 H 0.40363 0.0793 0.60643 0.0
H234 H 0.39175 0.99678 0.58706 0.0
H235 H 0.40754 0.01538 0.62888 0.0
H236 H 0.5218 0.09535 0.71315 0.0
H237 H 0.48587 0.07977 0.78677 0.0
H238 H 0.45336 0.08558 0.76842 0.0
H239 H 0.48884 0.10038 0.69464 0.0
C240 C 0.62395 0.74413 0.3419 0.0
C241 C 0.60832 0.73709 0.32057 0.0
C242 C 0.62791 0.77947 0.30594 0.0
C243 C 0.61021 0.75458 0.30283 0.0
C244 C 0.64345 0.78648 0.32745 0.0
C245 C 0.64152 0.76892 0.34526 0.0
U246 U 0.5934 0.67766 0.36005 0.0
O247 O 0.60697 0.65456 0.37678 0.0
O248 O 0.57798 0.65812 0.39633 0.0
C249 C 0.59259 0.6488 0.39692 0.0
C250 C 0.62167 0.72549 0.36051 0.0
C251 C 0.60338 0.64874 0.42195 0.0
C252 C 0.63619 0.66634 0.45358 0.0
C253 C 0.62627 0.66792 0.43001 0.0
C254 C 0.60035 0.62663 0.46117 0.0
C255 C 0.62334 0.64556 0.46933 0.0
C256 C 0.5905 0.62824 0.43779 0.0
C257 C 0.54481 0.63403 0.31134 0.0
C258 C 0.52937 0.59079 0.30234 0.0
C259 C 0.50546 0.60973 0.2903 0.0
C260 C 0.52362 0.63206 0.30026 0.0
C261 C 0.50813 0.58885 0.29114 0.0
C262 C 0.54754 0.61319 0.31246 0.0
C263 C 0.56391 0.65824 0.32069 0.0
O264 O 0.60051 0.71406 0.3725 0.0
O265 O 0.62906 0.71052 0.35218 0.0
O266 O 0.58655 0.66238 0.32108 0.0
O267 O 0.55818 0.66666 0.341 0.0
H268 H 0.59454 0.71804 0.31773 0.0
H269 H 0.59756 0.74866 0.28685 0.0
H270 H 0.65722 0.80552 0.33037 0.0
H271 H 0.65371 0.77469 0.36163 0.0
H272 H 0.65407 0.68109 0.45922 0.0
H273 H 0.63655 0.68389 0.41801 0.0
H274 H 0.58991 0.61051 0.47294 0.0
H275 H 0.57281 0.61325 0.43191 0.0
H276 H 0.53213 0.57513 0.3029 0.0
H277 H 0.48923 0.60876 0.282 0.0
H278 H 0.52116 0.64791 0.29918 0.0
H279 H 0.56377 0.61426 0.32088 0.0
C280 C 0.8885 0.62361 0.84064 0.0
C281 C 0.87979 0.60736 0.81979 0.0
C282 C 0.85653 0.62627 0.80447 0.0
C283 C 0.86389 0.60861 0.80194 0.0
C284 C 0.86515 0.6424 0.82552 0.0
C285 C 0.88107 0.64111 0.84343 0.0
U286 U 0.92675 0.59555 0.85965 0.0
O287 O 0.96384 0.61123 0.87616 0.0
O288 O 0.93219 0.58173 0.89628 0.0
C289 C 0.95585 0.5976 0.89687 0.0
C290 C 0.90534 0.62223 0.85928 0.0
C291 C 0.9665 0.60978 0.92164 0.0
C292 C 0.96231 0.61663 0.96686 0.0
C293 C 0.95176 0.60805 0.94269 0.0
C294 C 1.0025 0.62964 0.94916 0.0
C295 C 0.98777 0.62717 0.97045 0.0
C296 C 0.99197 0.62104 0.92507 0.0
C297 C 0.92454 0.54745 0.81199 0.0
C298 C 0.93265 0.51412 0.82024 0.0
C299 C 0.92911 0.52498 0.77658 0.0
C300 C 0.92509 0.54359 0.78563 0.0
C301 C 0.93267 0.50987 0.79379 0.0
C302 C 0.92874 0.53285 0.82929 0.0
C303 C 0.91811 0.56577 0.8208 0.0
O304 O 0.89642 0.60127 0.87157 0.0
O305 O 0.92778 0.6303 0.85089 0.0
O306 O 0.93593 0.58871 0.82089 0.0
O307 O 0.90397 0.55985 0.84113 0.0
H308 H 0.88524 0.59364 0.81738 0.0
H309 H 0.85711 0.59553 0.78633 0.0
H310 H 0.85978 0.65617 0.82797 0.0
H311 H 0.8876 0.65379 0.8594 0.0
H312 H 0.95049 0.61448 0.9829 0.0
H313 H 0.93205 0.59938 0.94072 0.0
H314 H 0.02207 0.63713 0.95135 0.0
H315 H 1.00371 0.62229 0.90927 0.0
H316 H 0.93537 0.50274 0.8339 0.0
H317 H 0.92854 0.52184 0.75614 0.0
H318 H 0.92176 0.55459 0.77201 0.0
H319 H 0.92845 0.53557 0.84974 0.0
C320 C 0.26933 0.884 0.33966 0.0
C321 C 0.27388 0.88817 0.31327 0.0
C322 C 0.2352 0.85122 0.30348 0.0
C323 C 0.2569 0.87208 0.29539 0.0
C324 C 0.23052 0.84731 0.32991 0.0
C325 C 0.24742 0.86354 0.34781 0.0
U326 U 0.33559 0.91949 0.36053 0.0
O327 O 0.358 0.95577 0.37834 0.0
O328 O 0.35334 0.92278 0.3978 0.0
C329 C 0.36216 0.94662 0.39914 0.0
C330 C 0.28781 0.89999 0.35876 0.0
C331 C 0.36024 0.9567 0.42425 0.0
C332 C 0.36012 0.98931 0.44953 0.0
C333 C 0.35819 0.97796 0.42585 0.0
C334 C 0.36547 0.95806 0.47059 0.0
C335 C 0.36434 0.97978 0.4721 0.0
C336 C 0.36358 0.94675 0.44697 0.0
C337 C 0.38093 0.91468 0.3135 0.0
C338 C 0.42268 0.942 0.29887 0.0
C339 C 0.40594 0.89801 0.29755 0.0
C340 C 0.38391 0.89454 0.30772 0.0
C341 C 0.4255 0.92175 0.29281 0.0
C342 C 0.40058 0.93851 0.30915 0.0
C343 C 0.35661 0.91001 0.32218 0.0
O344 O 0.29868 0.88983 0.3711 0.0
O345 O 0.3031 0.92261 0.35144 0.0
O346 O 0.3526 0.92863 0.32234 0.0
O347 O 0.34731 0.89555 0.34213 0.0
H348 H 0.29068 0.90373 0.30639 0.0
H349 H 0.26081 0.87599 0.27521 0.0
H350 H 0.21402 0.83138 0.33678 0.0
H351 H 0.24359 0.85987 0.36805 0.0
H352 H 0.35877 1.0058 0.45013 0.0
H353 H 0.35581 0.98628 0.40875 0.0
H354 H 0.36886 0.95035 0.4876 0.0
H355 H 0.36564 0.93065 0.4464 0.0
H356 H 0.4373 0.9605 0.29505 0.0
H357 H 0.40763 0.88207 0.29324 0.0
H358 H 0.36899 0.87599 0.3107 0.0
H359 H 0.39877 0.95442 0.31322 0.0
C360 C 0.39441 0.26945 0.84049 0.0
C361 C 0.40815 0.2763 0.81777 0.0
C362 C 0.39132 0.23337 0.80599 0.0
C363 C 0.40664 0.25845 0.80071 0.0
C364 C 0.3776 0.22657 0.82884 0.0
C365 C 0.37912 0.24449 0.84593 0.0
U366 U 0.42436 0.33629 0.85738 0.0
O367 O 0.40998 0.35947 0.87221 0.0
O368 O 0.43842 0.35642 0.89357 0.0
C369 C 0.42358 0.3655 0.89296 0.0
C370 C 0.39642 0.28841 0.85851 0.0
C371 C 0.41162 0.36565 0.91722 0.0
C372 C 0.39386 0.34845 0.9588 0.0
C373 C 0.40348 0.34655 0.93519 0.0
C374 C 0.40009 0.38827 0.94648 0.0
C375 C 0.39211 0.36939 0.96471 0.0
C376 C 0.40966 0.38637 0.92301 0.0
C377 C 0.47277 0.37966 0.80881 0.0
C378 C 0.50501 0.42173 0.81614 0.0
C379 C 0.49601 0.40539 0.773 0.0
C380 C 0.47753 0.38296 0.78247 0.0
C381 C 0.51006 0.42495 0.78974 0.0
C382 C 0.48641 0.39928 0.82561 0.0
C383 C 0.45421 0.35535 0.81823 0.0
O384 O 0.41746 0.30019 0.8707 0.0
O385 O 0.38899 0.30311 0.84947 0.0
O386 O 0.43143 0.35077 0.81799 0.0
O387 O 0.45989 0.34761 0.83911 0.0
H388 H 0.42012 0.2955 0.81326 0.0
H389 H 0.41738 0.26426 0.78327 0.0
H390 H 0.36602 0.20741 0.8337 0.0
H391 H 0.36851 0.23886 0.86346 0.0
H392 H 0.3879 0.33364 0.9725 0.0
H393 H 0.40489 0.33041 0.93115 0.0
H394 H 0.39962 0.4049 0.95064 0.0
H395 H 0.41608 0.40142 0.90953 0.0
H396 H 0.51557 0.43654 0.82944 0.0
H397 H 0.4998 0.40718 0.75264 0.0
H398 H 0.46726 0.36798 0.76925 0.0
H399 H 0.48295 0.39712 0.84603 0.0
C400 C 0.13085 0.38718 0.33882 0.0
C401 C 0.12677 0.38764 0.3124 0.0
C402 C 0.16396 0.38625 0.30272 0.0
C403 C 0.14302 0.38696 0.29458 0.0
C404 C 0.16778 0.38538 0.32916 0.0
C405 C 0.15139 0.38584 0.34701 0.0
U406 U 0.09574 0.41827 0.36025 0.0
O407 O 0.05912 0.40446 0.37718 0.0
O408 O 0.0918 0.43181 0.39781 0.0
C409 C 0.06789 0.41713 0.39843 0.0
C410 C 0.11468 0.38946 0.35788 0.0
C411 C 0.05693 0.40451 0.42304 0.0
C412 C 0.05695 0.40533 0.46975 0.0
C413 C 0.06886 0.41473 0.44637 0.0
C414 C 0.02109 0.37483 0.44713 0.0
C415 C 0.03278 0.38552 0.47041 0.0
C416 C 0.03299 0.38422 0.42373 0.0
C417 C 0.10202 0.46985 0.31489 0.0
C418 C 0.07525 0.48685 0.30757 0.0
C419 C 0.11822 0.51033 0.29613 0.0
C420 C 0.12167 0.4913 0.3048 0.0
C421 C 0.09495 0.50826 0.29721 0.0
C422 C 0.07875 0.46777 0.3164 0.0
C423 C 0.10642 0.44987 0.32281 0.0
O424 O 0.12482 0.4101 0.3709 0.0
O425 O 0.09226 0.38269 0.35021 0.0
O426 O 0.08761 0.42742 0.3222 0.0
O427 O 0.1204 0.4543 0.34306 0.0
H428 H 0.11115 0.38879 0.30547 0.0
H429 H 0.13917 0.38702 0.27438 0.0
H430 H 0.18376 0.38489 0.33606 0.0
H431 H 0.155 0.3856 0.36726 0.0
H432 H 0.06627 0.4144 0.48727 0.0
H433 H 0.08706 0.43069 0.44661 0.0
H434 H 1.00245 0.35958 0.44701 0.0
H435 H 0.02305 0.37613 0.40618 0.0
H436 H 0.05721 0.48495 0.309 0.0
H437 H 0.1337 0.52657 0.28815 0.0
H438 H 0.13974 0.49323 0.3034 0.0
H439 H 0.06331 0.45143 0.32425 0.0
C440 C 0.74968 0.12991 0.84198 0.0
C441 C 0.74494 0.12657 0.81554 0.0
C442 C 0.785 0.16185 0.80635 0.0
C443 C 0.76248 0.14231 0.79791 0.0
C444 C 0.78968 0.16521 0.8328 0.0
C445 C 0.7722 0.1493 0.85045 0.0
U446 U 0.68285 0.09374 0.86047 0.0
O447 O 0.66057 0.05809 0.8794 0.0
O448 O 0.6637 0.09141 0.89663 0.0
C449 C 0.65531 0.06773 0.89906 0.0
C450 C 0.73076 0.11427 0.8608 0.0
C451 C 0.65668 0.05884 0.92494 0.0
C452 C 0.66588 0.03382 0.9535 0.0
C453 C 0.66752 0.04427 0.92934 0.0
C454 C 0.64315 0.0528 0.96936 0.0
C455 C 0.65353 0.03784 0.97373 0.0
C456 C 0.64473 0.06315 0.94527 0.0
C457 C 0.63805 0.0948 0.8108 0.0
C458 C 0.59593 0.08437 0.81898 0.0
C459 C 0.61227 0.09418 0.77588 0.0
C460 C 0.63471 0.09759 0.78475 0.0
C461 C 0.59281 0.08804 0.79298 0.0
C462 C 0.6184 0.08774 0.82784 0.0
C463 C 0.66255 0.10086 0.81987 0.0
O464 O 0.71904 0.12437 0.87151 0.0
O465 O 0.71613 0.09134 0.85391 0.0
O466 O 0.66679 0.08249 0.82191 0.0
O467 O 0.67111 0.11621 0.83925 0.0
H468 H 0.72752 0.11201 0.80851 0.0
H469 H 0.7582 0.13958 0.77767 0.0
H470 H 0.80687 0.18015 0.83982 0.0
H471 H 0.77614 0.15236 0.87074 0.0
H472 H 0.67401 0.02234 0.95631 0.0
H473 H 0.67675 0.04047 0.91402 0.0
H474 H 0.633 0.05578 0.98432 0.0
H475 H 0.6359 0.07398 0.94229 0.0
H476 H 0.58109 0.07923 0.83248 0.0
H477 H 0.61042 0.0972 0.75579 0.0
H478 H 0.6497 0.10306 0.77135 0.0
H479 H 0.62063 0.08538 0.84802 0.0
C480 C 0.20796 0.37043 0.26871 0.0
C481 C 0.21632 0.38669 0.24781 0.0
C482 C 0.19101 0.37033 0.28629 0.0
C483 C 0.18188 0.38662 0.28374 0.0
H484 H 0.21441 0.3575 0.27136 0.0
H485 H 0.18485 0.35723 0.30186 0.0
S486 S 0.19983 0.43442 0.23362 0.0
N487 N 0.21525 0.42036 0.2263 0.0
N488 N 0.18379 0.42054 0.25947 0.0
C489 C 0.19046 0.40327 0.26313 0.0
C490 C 0.20757 0.40322 0.24516 0.0
C491 C 0.8126 0.20462 0.79045 0.0
C492 C 0.80319 0.17923 0.78764 0.0
C493 C 0.82924 0.22137 0.77268 0.0
C494 C 0.83729 0.21344 0.75144 0.0
H495 H 0.80669 0.21156 0.80628 0.0
H496 H 0.83555 0.24069 0.77539 0.0
S497 S 0.81973 0.14897 0.73672 0.0
N498 N 0.804 0.147 0.7628 0.0
N499 N 0.8356 0.17845 0.72961 0.0
C500 C 0.82835 0.18809 0.74871 0.0
C501 C 0.81126 0.17103 0.76674 0.0
C502 C 0.63009 0.81953 0.29566 0.0
C503 C 0.62966 0.79809 0.28712 0.0
C504 C 0.63036 0.83668 0.27827 0.0
C505 C 0.63044 0.83321 0.25163 0.0
H506 H 0.62965 0.82282 0.31596 0.0
H507 H 0.63048 0.85281 0.28575 0.0
S508 S 0.63024 0.78051 0.21938 0.0
N509 N 0.63021 0.77478 0.25023 0.0
N510 N 0.63026 0.80673 0.21759 0.0
C511 C 0.63043 0.81205 0.24284 0.0
C512 C 0.63011 0.79456 0.26055 0.0
C513 C 0.80167 0.62823 0.77638 0.0
C514 C 0.80513 0.62789 0.74977 0.0
C515 C 0.81856 0.62814 0.79388 0.0
C516 C 0.83948 0.62748 0.78549 0.0
H517 H 0.78576 0.6286 0.78375 0.0
H518 H 0.81495 0.62811 0.81417 0.0
S519 S 0.85726 0.62677 0.71787 0.0
N520 N 0.83116 0.62693 0.71591 0.0
N521 N 0.86308 0.62721 0.74875 0.0
C522 C 0.8433 0.6274 0.75894 0.0
C523 C 0.82613 0.62755 0.74112 0.0
C524 C 0.19222 0.82449 0.28714 0.0
C525 C 0.21757 0.83345 0.28447 0.0
C526 C 0.17527 0.80756 0.26963 0.0
C527 C 0.18301 0.79905 0.24868 0.0
H528 H 0.18541 0.83074 0.30278 0.0
H529 H 0.15596 0.80121 0.27241 0.0
S530 S 0.247 0.81516 0.2341 0.0
N531 N 0.24933 0.83129 0.25997 0.0
N532 N 0.21752 0.79987 0.22693 0.0
C533 C 0.20823 0.80769 0.24586 0.0
C534 C 0.22548 0.82477 0.26376 0.0
C535 C 0.41215 0.2164 0.77862 0.0
C536 C 0.39028 0.21453 0.78791 0.0
C537 C 0.41181 0.19904 0.76148 0.0
C538 C 0.38958 0.1792 0.75273 0.0
H539 H 0.42973 0.23131 0.78483 0.0
H540 H 0.42913 0.20134 0.75481 0.0
S541 S 0.32718 0.16593 0.77114 0.0
N542 N 0.34573 0.19131 0.78687 0.0
N543 N 0.34509 0.15852 0.75493 0.0
C544 C 0.36756 0.1771 0.76184 0.0
C545 C 0.36791 0.19474 0.7794 0.0
C546 C 0.45935 0.54376 0.24555 0.0
C547 C 0.44853 0.52162 0.25936 0.0
C548 C 0.479 0.56519 0.25571 0.0
C549 C 0.48871 0.56533 0.28004 0.0
H550 H 0.45199 0.54479 0.22714 0.0
H551 H 0.48642 0.58191 0.24457 0.0
S552 S 0.46807 0.51172 0.32315 0.0
N553 N 0.44998 0.50073 0.2979 0.0
N554 N 0.48661 0.54114 0.31725 0.0
C555 C 0.47866 0.54311 0.29366 0.0
C556 C 0.45862 0.52126 0.28329 0.0
C557 C 0.91895 0.44441 0.78409 0.0
C558 C 0.93441 0.44642 0.76361 0.0
C559 C 0.91904 0.46511 0.79418 0.0
C560 C 0.93455 0.48864 0.78415 0.0
H561 H 0.90612 0.42659 0.79192 0.0
H562 H 0.9063 0.46256 0.80942 0.0
S563 S 0.98038 0.50425 0.73243 0.0
N564 N 0.967 0.47412 0.73501 0.0
N565 N 0.96703 0.51303 0.75388 0.0
C566 C 0.95062 0.49105 0.76421 0.0
C567 C 0.95058 0.46996 0.75397 0.0
C568 C 0.46805 0.91238 0.2485 0.0
C569 C 0.49137 0.92769 0.2591 0.0
C570 C 0.44698 0.911 0.25924 0.0
C571 C 0.4484 0.92499 0.2809 0.0
H572 H 0.46594 0.90073 0.23229 0.0
H573 H 0.42937 0.89865 0.25065 0.0
S574 S 0.50529 0.96907 0.31494 0.0
N575 N 0.51484 0.95814 0.29162 0.0
N576 N 0.47517 0.95529 0.31204 0.0
C577 C 0.47169 0.94097 0.2912 0.0
C578 C 0.49317 0.94233 0.28029 0.0
C579 C 0.55428 0.4575 0.79081 0.0
C580 C 0.53091 0.44809 0.77978 0.0
C581 C 0.57468 0.47827 0.78065 0.0
C582 C 0.57251 0.4905 0.7591 0.0
H583 H 0.55698 0.44831 0.80697 0.0
H584 H 0.59244 0.48439 0.78933 0.0
S585 S 0.51483 0.47473 0.72487 0.0
N586 N 0.50639 0.45352 0.74729 0.0
N587 N 0.54473 0.49272 0.72828 0.0
C588 C 0.54909 0.48172 0.74838 0.0
C589 C 0.52831 0.4605 0.7587 0.0
C590 C 0.10636 0.57263 0.28532 0.0
C591 C 0.08871 0.5691 0.26672 0.0
C592 C 0.10786 0.5528 0.29543 0.0
C593 C 0.09165 0.52862 0.28751 0.0
H594 H 0.11961 0.59096 0.29162 0.0
H595 H 0.12199 0.55646 0.30942 0.0
S596 S 0.04144 0.50931 0.24011 0.0
N597 N 0.05407 0.53946 0.24149 0.0
N598 N 0.05705 0.50214 0.26034 0.0
C599 C 0.07353 0.52472 0.26938 0.0
C600 C 0.07207 0.54497 0.25897 0.0
C601 C 0.53741 0.07324 0.7515 0.0
C602 C 0.52776 0.08678 0.76319 0.0
C603 C 0.55809 0.07325 0.76157 0.0
C604 C 0.56988 0.08677 0.78372 0.0
H605 H 0.52895 0.06262 0.73439 0.0
H606 H 0.56501 0.06271 0.75187 0.0
S607 S 0.55282 0.12644 0.82063 0.0
N608 N 0.53218 0.11481 0.79756 0.0
N609 N 0.57092 0.11472 0.81649 0.0
C610 C 0.56037 0.1003 0.79564 0.0
C611 C 0.53937 0.10034 0.78538 0.0
C612 C 0.3872 0.37371 0.03703 0.0
C613 C 0.37123 0.38322 0.03967 0.0
C614 C 0.39313 0.3684 1.0128 0.0
C615 C 0.38333 0.37238 0.99027 0.0
H616 H 0.39592 0.37124 0.05374 0.0
H617 H 0.40626 0.36206 1.01168 0.0
S618 S 0.33799 0.39367 0.98697 0.0
N619 N 0.34389 0.39408 1.01783 0.0
N620 N 0.35494 0.38404 0.9724 0.0
C621 C 0.36644 0.38075 0.99275 0.0
C622 C 0.36043 0.38618 1.01739 0.0
C623 C 0.99574 0.37545 0.49701 0.0
C624 C 0.01905 0.37761 0.49508 0.0
C625 C 0.98337 0.37049 0.52052 0.0
C626 C 0.99369 0.36728 0.54309 0.0
H627 H 0.98733 0.37851 0.48038 0.0
H628 H 0.96571 0.36955 0.52112 0.0
S629 S 0.05362 0.36955 0.54813 0.0
N630 N 0.05138 0.37478 0.51754 0.0
N631 N 0.02831 0.36582 0.5618 0.0
C632 C 0.01662 0.36856 0.54129 0.0
C633 C 0.02927 0.37369 0.51732 0.0
C634 C 0.64048 0.9997 0.99972 0.0
C635 C 0.64996 0.02524 0.99886 0.0
C636 C 0.63448 0.98699 0.02311 0.0
C637 C 0.63798 0.99934 0.04659 0.0
H638 H 0.63682 0.98931 0.98213 0.0
H639 H 0.62669 0.96726 0.0228 0.0
S640 S 0.66358 0.06636 0.05488 0.0
N641 N 0.66375 0.06258 0.02361 0.0
N642 N 0.65221 0.03873 0.06747 0.0
C643 C 0.6482 0.02498 0.04602 0.0
C644 C 0.6542 0.0379 0.02221 0.0
C645 C 0.64106 0.61699 0.52345 0.0
C646 C 0.64887 0.63473 0.543 0.0
C647 C 0.63354 0.62099 0.49954 0.0
C648 C 0.63368 0.64297 0.49405 0.0
H649 H 0.63987 0.59945 0.52696 0.0
H650 H 0.62718 0.60654 0.48532 0.0
S651 S 0.65408 0.696 0.53799 0.0
N652 N 0.65763 0.67573 0.55474 0.0
N653 N 0.64326 0.68314 0.50984 0.0
C654 C 0.64229 0.66125 0.51306 0.0
C655 C 0.64986 0.65712 0.53752 0.0
C656 C 0.99941 0.61995 0.04046 0.0
C657 C 0.02145 0.64169 0.04594 0.0
C658 C 0.98821 0.61589 1.01636 0.0
C659 C 0.99865 0.63334 0.99663 0.0
H660 H 0.99091 0.60574 0.05486 0.0
H661 H 0.97167 0.59854 1.01289 0.0
S662 S 0.05546 0.6939 1.00147 0.0
N663 N 0.05282 0.68131 0.02989 0.0
N664 N 0.03162 0.67381 0.98464 0.0
C665 C 0.02028 0.65549 1.00206 0.0
C666 C 0.03166 0.65967 0.0267 0.0
C667 C 0.35698 0.97999 0.51938 0.0
C668 C 0.36889 0.99295 0.49703 0.0
C669 C 0.36275 0.99144 0.54347 0.0
C670 C 0.38072 0.01633 0.54624 0.0
H671 H 0.34332 0.9607 0.51829 0.0
H672 H 0.35333 0.98059 0.56016 0.0
S673 S 0.41767 0.05833 0.49379 0.0
N674 N 0.39961 0.03205 0.47925 0.0
N675 N 0.4105 0.05352 0.52446 0.0
C676 C 0.3924 0.02965 0.52398 0.0
C677 C 0.38649 0.01798 0.49942 0.0
loop_
_geom_bond_atom_site_label_1
_geom_bond_atom_site_label_2
_geom_bond_distance
_geom_bond_site_symmetry_2
_ccdc_geom_bond_type
C0 C1 1.264 . S
C0 C5 1.479 . S
C0 C10 1.465 . S
C1 C0 1.264 . S
C1 C3 1.339 . S
C1 H28 0.931 . S
C2 C3 1.395 . S
C2 C4 1.320 . S
C3 C1 1.339 . S
C3 C2 1.395 . S
C3 H29 0.929 . S
C4 C2 1.320 . S
C4 C5 1.405 . S
C4 H30 0.930 . S
C5 C0 1.479 . S
C5 C4 1.405 . S
C5 H31 0.931 . S
U6 O7 2.454 . S
U6 O8 2.458 . S
U6 C9 2.984 . S
U6 C10 2.847 . S
U6 C23 2.882 . S
U6 O24 2.441 . S
U6 O25 2.420 . S
U6 O26 2.455 . S
U6 O27 2.449 . S
O7 U6 2.454 . S
O7 C9 1.353 . S
O8 U6 2.458 . S
O8 C9 1.286 . S
C9 U6 2.984 . S
C9 O7 1.353 . S
C9 O8 1.286 . S
C9 C11 1.363 . S
C10 C0 1.465 . S
C10 U6 2.847 . S
C10 O24 1.249 . S
C10 O25 1.202 . S
C11 C9 1.363 . S
C11 C13 1.408 . S
C11 C16 1.342 . S
C12 C13 1.310 . S
C12 C15 1.461 . S
C12 H32 0.932 . S
C13 C11 1.408 . S
C13 C12 1.310 . S
C13 H33 0.930 . S
C14 C15 1.474 . S
C14 C16 1.285 . S
C14 H34 0.929 . S
C15 C12 1.461 . S
C15 C14 1.474 . S
C16 C11 1.342 . S
C16 C14 1.285 . S
C16 H35 0.930 . S
C17 C20 1.424 . S
C17 C22 1.245 . S
C17 C23 1.428 . S
C18 C21 1.260 . S
C18 C22 1.477 . S
C18 H36 0.932 . S
C19 C20 1.384 . S
C19 C21 1.479 . S
C19 H37 0.929 . S
C20 C17 1.424 . S
C20 C19 1.384 . S
C20 H38 0.928 . S
C21 C18 1.260 . S
C21 C19 1.479 . S
C22 C17 1.245 . S
C22 C18 1.477 . S
C22 H39 0.932 . S
C23 U6 2.882 . S
C23 C17 1.428 . S
C23 O26 1.301 . S
C23 O27 1.282 . S
O24 U6 2.441 . S
O24 C10 1.249 . S
O25 U6 2.420 . S
O25 C10 1.202 . S
O26 U6 2.455 . S
O26 C23 1.301 . S
O27 U6 2.449 . S
O27 C23 1.282 . S
H28 C1 0.931 . S
H29 C3 0.929 . S
H30 C4 0.930 . S
H31 C5 0.931 . S
H32 C12 0.932 . S
H33 C13 0.930 . S
H34 C14 0.929 . S
H35 C16 0.930 . S
H36 C18 0.932 . S
H37 C19 0.929 . S
H38 C20 0.928 . S
H39 C22 0.932 . S
C40 C41 1.264 . S
C40 C45 1.479 . S
C40 C50 1.465 . S
C41 C40 1.264 . S
C41 C43 1.339 . S
C41 H68 0.931 . S
C42 C43 1.395 . S
C42 C44 1.320 . S
C43 C41 1.339 . S
C43 C42 1.395 . S
C43 H69 0.929 . S
C44 C42 1.320 . S
C44 C45 1.405 . S
C44 H70 0.930 . S
C45 C40 1.479 . S
C45 C44 1.405 . S
C45 H71 0.931 . S
U46 O47 2.454 . S
U46 O48 2.458 . S
U46 C49 2.984 . S
U46 C50 2.847 . S
U46 C63 2.882 . S
U46 O64 2.441 . S
U46 O65 2.420 . S
U46 O66 2.455 . S
U46 O67 2.449 . S
O47 U46 2.454 . S
O47 C49 1.353 . S
O48 U46 2.458 . S
O48 C49 1.286 . S
C49 U46 2.984 . S
C49 O47 1.353 . S
C49 O48 1.286 . S
C49 C51 1.363 . S
C50 C40 1.465 . S
C50 U46 2.847 . S
C50 O64 1.249 . S
C50 O65 1.202 . S
C51 C49 1.363 . S
C51 C53 1.408 . S
C51 C56 1.342 1_655 S
C52 C53 1.311 1_455 S
C52 C55 1.461 . S
C52 H72 0.932 1_455 S
C53 C51 1.408 . S
C53 C52 1.311 1_655 S
C53 H73 0.930 . S
C54 C55 1.474 . S
C54 C56 1.285 . S
C54 H74 0.929 . S
C55 C52 1.461 . S
C55 C54 1.474 . S
C56 C51 1.342 1_455 S
C56 C54 1.285 . S
C56 H75 0.930 . S
C57 C60 1.424 . S
C57 C62 1.245 1_655 S
C57 C63 1.428 . S
C58 C61 1.260 1_455 S
C58 C62 1.477 . S
C58 H76 0.932 . S
C59 C60 1.384 . S
C59 C61 1.479 . S
C59 H77 0.929 . S
C60 C57 1.424 . S
C60 C59 1.384 . S
C60 H78 0.928 . S
C61 C58 1.260 1_655 S
C61 C59 1.479 . S
C62 C57 1.245 1_455 S
C62 C58 1.477 . S
C62 H79 0.932 . S
C63 U46 2.882 . S
C63 C57 1.428 . S
C63 O66 1.301 . S
C63 O67 1.282 . S
O64 U46 2.441 . S
O64 C50 1.249 . S
O65 U46 2.420 . S
O65 C50 1.202 . S
O66 U46 2.455 . S
O66 C63 1.301 . S
O67 U46 2.449 . S
O67 C63 1.282 . S
H68 C41 0.931 . S
H69 C43 0.929 . S
H70 C44 0.930 . S
H71 C45 0.931 . S
H72 C52 0.932 1_655 S
H73 C53 0.930 . S
H74 C54 0.929 . S
H75 C56 0.930 . S
H76 C58 0.932 . S
H77 C59 0.929 . S
H78 C60 0.928 . S
H79 C62 0.932 . S
C80 C81 1.264 . S
C80 C85 1.479 . S
C80 C90 1.465 . S
C81 C80 1.264 . S
C81 C83 1.339 . S
C81 H108 0.931 . S
C82 C83 1.395 . S
C82 C84 1.320 . S
C83 C81 1.339 . S
C83 C82 1.395 . S
C83 H109 0.929 . S
C84 C82 1.320 . S
C84 C85 1.405 . S
C84 H110 0.930 . S
C85 C80 1.479 . S
C85 C84 1.405 . S
C85 H111 0.931 . S
U86 O87 2.454 . S
U86 O88 2.458 . S
U86 C89 2.984 . S
U86 C90 2.847 . S
U86 C103 2.882 . S
U86 O104 2.441 . S
U86 O105 2.420 . S
U86 O106 2.455 . S
U86 O107 2.449 . S
O87 U86 2.454 . S
O87 C89 1.353 . S
O88 U86 2.458 . S
O88 C89 1.286 . S
C89 U86 2.984 . S
C89 O87 1.353 . S
C89 O88 1.286 . S
C89 C91 1.363 . S
C90 C80 1.465 . S
C90 U86 2.847 . S
C90 O104 1.249 . S
C90 O105 1.202 . S
C91 C89 1.363 . S
C91 C93 1.408 . S
C91 C96 1.342 1_565 S
C92 C93 1.310 . S
C92 C95 1.463 1_565 S
C92 H112 0.931 . S
C93 C91 1.408 . S
C93 C92 1.310 . S
C93 H113 0.930 . S
C94 C95 1.474 . S
C94 C96 1.285 . S
C94 H114 0.929 . S
C95 C92 1.463 1_545 S
C95 C94 1.474 . S
C96 C91 1.342 1_545 S
C96 C94 1.285 . S
C96 H115 0.930 . S
C97 C100 1.424 . S
C97 C102 1.245 1_565 S
C97 C103 1.428 . S
C98 C101 1.260 1_545 S
C98 C102 1.477 . S
C98 H116 0.932 . S
C99 C100 1.384 . S
C99 C101 1.479 . S
C99 H117 0.929 . S
C100 C97 1.424 . S
C100 C99 1.384 . S
C100 H118 0.928 . S
C101 C98 1.260 1_565 S
C101 C99 1.479 . S
C102 C97 1.245 1_545 S
C102 C98 1.477 . S
C102 H119 0.932 . S
C103 U86 2.882 . S
C103 C97 1.428 . S
C103 O106 1.301 . S
C103 O107 1.282 . S
O104 U86 2.441 . S
O104 C90 1.249 . S
O105 U86 2.420 . S
O105 C90 1.202 . S
O106 U86 2.455 . S
O106 C103 1.301 . S
O107 U86 2.449 . S
O107 C103 1.282 . S
H108 C81 0.931 . S
H109 C83 0.929 . S
H110 C84 0.930 . S
H111 C85 0.931 . S
H112 C92 0.931 . S
H113 C93 0.930 . S
H114 C94 0.929 . S
H115 C96 0.930 . S
H116 C98 0.932 . S
H117 C99 0.929 . S
H118 C100 0.928 . S
H119 C102 0.932 . S
C120 C121 1.264 . S
C120 C125 1.479 . S
C120 C130 1.465 . S
C121 C120 1.264 . S
C121 C123 1.339 . S
C121 H148 0.931 . S
C122 C123 1.395 . S
C122 C124 1.320 . S
C123 C121 1.339 . S
C123 C122 1.395 . S
C123 H149 0.929 . S
C124 C122 1.320 . S
C124 C125 1.405 . S
C124 H150 0.930 . S
C125 C120 1.479 . S
C125 C124 1.405 . S
C125 H151 0.931 . S
U126 O127 2.454 . S
U126 O128 2.458 . S
U126 C129 2.984 . S
U126 C130 2.847 . S
U126 C143 2.882 . S
U126 O144 2.441 . S
U126 O145 2.420 . S
U126 O146 2.455 . S
U126 O147 2.449 . S
O127 U126 2.454 . S
O127 C129 1.353 . S
O128 U126 2.458 . S
O128 C129 1.286 . S
C129 U126 2.984 . S
C129 O127 1.353 . S
C129 O128 1.286 . S
C129 C131 1.363 . S
C130 C120 1.465 . S
C130 U126 2.847 . S
C130 O144 1.249 . S
C130 O145 1.202 . S
C131 C129 1.363 . S
C131 C133 1.408 . S
C131 C136 1.342 . S
C132 C133 1.310 . S
C132 C135 1.461 . S
C132 H152 0.932 . S
C133 C131 1.408 . S
C133 C132 1.310 . S
C133 H153 0.930 . S
C134 C135 1.474 . S
C134 C136 1.285 . S
C134 H154 0.929 . S
C135 C132 1.461 . S
C135 C134 1.474 . S
C136 C131 1.342 . S
C136 C134 1.285 . S
C136 H155 0.930 . S
C137 C140 1.424 . S
C137 C142 1.245 . S
C137 C143 1.428 . S
C138 C141 1.260 . S
C138 C142 1.477 . S
C138 H156 0.932 . S
C139 C140 1.384 . S
C139 C141 1.479 . S
C139 H157 0.929 . S
C140 C137 1.424 . S
C140 C139 1.384 . S
C140 H158 0.928 . S
C141 C138 1.260 . S
C141 C139 1.479 . S
C142 C137 1.245 . S
C142 C138 1.477 . S
C142 H159 0.932 . S
C143 U126 2.882 . S
C143 C137 1.428 . S
C143 O146 1.301 . S
C143 O147 1.282 . S
O144 U126 2.441 . S
O144 C130 1.249 . S
O145 U126 2.420 . S
O145 C130 1.202 . S
O146 U126 2.455 . S
O146 C143 1.301 . S
O147 U126 2.449 . S
O147 C143 1.282 . S
H148 C121 0.931 . S
H149 C123 0.929 . S
H150 C124 0.930 . S
H151 C125 0.931 . S
H152 C132 0.932 . S
H153 C133 0.930 . S
H154 C134 0.929 . S
H155 C136 0.930 . S
H156 C138 0.932 . S
H157 C139 0.929 . S
H158 C140 0.928 . S
H159 C142 0.932 . S
C160 C161 1.264 . S
C160 C165 1.479 . S
C160 C170 1.465 . S
C161 C160 1.264 . S
C161 C163 1.339 . S
C161 H188 0.931 . S
C162 C163 1.395 . S
C162 C164 1.320 . S
C163 C161 1.339 . S
C163 C162 1.395 . S
C163 H189 0.929 . S
C164 C162 1.320 . S
C164 C165 1.405 . S
C164 H190 0.930 . S
C165 C160 1.479 . S
C165 C164 1.405 . S
C165 H191 0.931 . S
U166 O167 2.454 . S
U166 O168 2.458 . S
U166 C169 2.984 . S
U166 C170 2.847 . S
U166 C183 2.882 . S
U166 O184 2.441 . S
U166 O185 2.420 . S
U166 O186 2.455 . S
U166 O187 2.449 . S
O167 U166 2.454 . S
O167 C169 1.353 . S
O168 U166 2.458 . S
O168 C169 1.286 . S
C169 U166 2.984 . S
C169 O167 1.353 . S
C169 O168 1.286 . S
C169 C171 1.363 . S
C170 C160 1.465 . S
C170 U166 2.847 . S
C170 O184 1.249 . S
C170 O185 1.202 . S
C171 C169 1.363 . S
C171 C173 1.408 . S
C171 C176 1.342 1_455 S
C172 C173 1.310 1_655 S
C172 C175 1.461 . S
C172 H192 0.932 1_655 S
C173 C171 1.408 . S
C173 C172 1.310 1_455 S
C173 H193 0.930 . S
C174 C175 1.474 . S
C174 C176 1.285 . S
C174 H194 0.929 . S
C175 C172 1.461 . S
C175 C174 1.474 . S
C176 C171 1.342 1_655 S
C176 C174 1.285 . S
C176 H195 0.930 . S
C177 C180 1.424 . S
C177 C182 1.245 1_455 S
C177 C183 1.428 . S
C178 C181 1.260 1_655 S
C178 C182 1.477 . S
C178 H196 0.932 . S
C179 C180 1.384 . S
C179 C181 1.479 . S
C179 H197 0.929 . S
C180 C177 1.424 . S
C180 C179 1.384 . S
C180 H198 0.928 . S
C181 C178 1.260 1_455 S
C181 C179 1.479 . S
C182 C177 1.245 1_655 S
C182 C178 1.477 . S
C182 H199 0.932 . S
C183 U166 2.882 . S
C183 C177 1.428 . S
C183 O186 1.301 . S
C183 O187 1.282 . S
O184 U166 2.441 . S
O184 C170 1.249 . S
O185 U166 2.420 . S
O185 C170 1.202 . S
O186 U166 2.455 . S
O186 C183 1.301 . S
O187 U166 2.449 . S
O187 C183 1.282 . S
H188 C161 0.931 . S
H189 C163 0.929 . S
H190 C164 0.930 . S
H191 C165 0.931 . S
H192 C172 0.932 1_455 S
H193 C173 0.930 . S
H194 C174 0.929 . S
H195 C176 0.930 . S
H196 C178 0.932 . S
H197 C179 0.929 . S
H198 C180 0.928 . S
H199 C182 0.932 . S
C200 C201 1.264 . S
C200 C205 1.479 . S
C200 C210 1.465 . S
C201 C200 1.264 . S
C201 C203 1.339 . S
C201 H228 0.931 . S
C202 C203 1.395 . S
C202 C204 1.320 . S
C203 C201 1.339 . S
C203 C202 1.395 . S
C203 H229 0.929 . S
C204 C202 1.320 . S
C204 C205 1.405 . S
C204 H230 0.930 . S
C205 C200 1.479 . S
C205 C204 1.405 . S
C205 H231 0.931 . S
U206 O207 2.454 . S
U206 O208 2.458 . S
U206 C209 2.984 . S
U206 C210 2.847 . S
U206 C223 2.882 . S
U206 O224 2.441 . S
U206 O225 2.420 . S
U206 O226 2.455 . S
U206 O227 2.449 . S
O207 U206 2.454 . S
O207 C209 1.353 . S
O208 U206 2.458 . S
O208 C209 1.286 . S
C209 U206 2.984 . S
C209 O207 1.353 . S
C209 O208 1.286 . S
C209 C211 1.363 . S
C210 C200 1.465 . S
C210 U206 2.847 . S
C210 O224 1.249 . S
C210 O225 1.202 . S
C211 C209 1.363 . S
C211 C213 1.408 . S
C211 C216 1.342 1_545 S
C212 C213 1.310 . S
C212 C215 1.462 1_545 S
C212 H232 0.931 . S
C213 C211 1.408 . S
C213 C212 1.310 . S
C213 H233 0.930 . S
C214 C215 1.474 . S
C214 C216 1.285 . S
C214 H234 0.929 . S
C215 C212 1.462 1_565 S
C215 C214 1.474 . S
C216 C211 1.342 1_565 S
C216 C214 1.285 . S
C216 H235 0.930 . S
C217 C220 1.424 . S
C217 C222 1.245 1_545 S
C217 C223 1.428 . S
C218 C221 1.260 1_565 S
C218 C222 1.477 . S
C218 H236 0.932 . S
C219 C220 1.384 . S
C219 C221 1.479 . S
C219 H237 0.929 . S
C220 C217 1.424 . S
C220 C219 1.384 . S
C220 H238 0.928 . S
C221 C218 1.260 1_545 S
C221 C219 1.479 . S
C222 C217 1.245 1_565 S
C222 C218 1.477 . S
C222 H239 0.932 . S
C223 U206 2.882 . S
C223 C217 1.428 . S
C223 O226 1.301 . S
C223 O227 1.282 . S
O224 U206 2.441 . S
O224 C210 1.249 . S
O225 U206 2.420 . S
O225 C210 1.202 . S
O226 U206 2.455 . S
O226 C223 1.301 . S
O227 U206 2.449 . S
O227 C223 1.282 . S
H228 C201 0.931 . S
H229 C203 0.929 . S
H230 C204 0.930 . S
H231 C205 0.931 . S
H232 C212 0.931 . S
H233 C213 0.930 . S
H234 C214 0.929 . S
H235 C216 0.930 . S
H236 C218 0.932 . S
H237 C219 0.929 . S
H238 C220 0.928 . S
H239 C222 0.932 . S
C240 C241 1.264 . S
C240 C245 1.479 . S
C240 C250 1.465 . S
C241 C240 1.264 . S
C241 C243 1.339 . S
C241 H268 0.931 . S
C242 C243 1.395 . S
C242 C244 1.320 . S
C243 C241 1.339 . S
C243 C242 1.395 . S
C243 H269 0.929 . S
C244 C242 1.320 . S
C244 C245 1.405 . S
C244 H270 0.930 . S
C245 C240 1.479 . S
C245 C244 1.405 . S
C245 H271 0.931 . S
U246 O247 2.454 . S
U246 O248 2.458 . S
U246 C249 2.984 . S
U246 C250 2.847 . S
U246 C263 2.882 . S
U246 O264 2.441 . S
U246 O265 2.420 . S
U246 O266 2.455 . S
U246 O267 2.449 . S
O247 U246 2.454 . S
O247 C249 1.353 . S
O248 U246 2.458 . S
O248 C249 1.286 . S
C249 U246 2.984 . S
C249 O247 1.353 . S
C249 O248 1.286 . S
C249 C251 1.363 . S
C250 C240 1.465 . S
C250 U246 2.847 . S
C250 O264 1.249 . S
C250 O265 1.202 . S
C251 C249 1.363 . S
C251 C253 1.408 . S
C251 C256 1.342 . S
C252 C253 1.310 . S
C252 C255 1.461 . S
C252 H272 0.932 . S
C253 C251 1.408 . S
C253 C252 1.310 . S
C253 H273 0.930 . S
C254 C255 1.474 . S
C254 C256 1.285 . S
C254 H274 0.929 . S
C255 C252 1.461 . S
C255 C254 1.474 . S
C256 C251 1.342 . S
C256 C254 1.285 . S
C256 H275 0.930 . S
C257 C260 1.424 . S
C257 C262 1.245 . S
C257 C263 1.428 . S
C258 C261 1.260 . S
C258 C262 1.477 . S
C258 H276 0.932 . S
C259 C260 1.384 . S
C259 C261 1.479 . S
C259 H277 0.929 . S
C260 C257 1.424 . S
C260 C259 1.384 . S
C260 H278 0.928 . S
C261 C258 1.260 . S
C261 C259 1.479 . S
C262 C257 1.245 . S
C262 C258 1.477 . S
C262 H279 0.932 . S
C263 U246 2.882 . S
C263 C257 1.428 . S
C263 O266 1.301 . S
C263 O267 1.282 . S
O264 U246 2.441 . S
O264 C250 1.249 . S
O265 U246 2.420 . S
O265 C250 1.202 . S
O266 U246 2.455 . S
O266 C263 1.301 . S
O267 U246 2.449 . S
O267 C263 1.282 . S
H268 C241 0.931 . S
H269 C243 0.929 . S
H270 C244 0.930 . S
H271 C245 0.931 . S
H272 C252 0.932 . S
H273 C253 0.930 . S
H274 C254 0.929 . S
H275 C256 0.930 . S
H276 C258 0.932 . S
H277 C259 0.929 . S
H278 C260 0.928 . S
H279 C262 0.932 . S
C280 C281 1.264 . S
C280 C285 1.479 . S
C280 C290 1.465 . S
C281 C280 1.264 . S
C281 C283 1.339 . S
C281 H308 0.931 . S
C282 C283 1.395 . S
C282 C284 1.320 . S
C283 C281 1.339 . S
C283 C282 1.395 . S
C283 H309 0.929 . S
C284 C282 1.320 . S
C284 C285 1.405 . S
C284 H310 0.930 . S
C285 C280 1.479 . S
C285 C284 1.405 . S
C285 H311 0.931 . S
U286 O287 2.454 . S
U286 O288 2.458 . S
U286 C289 2.984 . S
U286 C290 2.847 . S
U286 C303 2.882 . S
U286 O304 2.441 . S
U286 O305 2.420 . S
U286 O306 2.455 . S
U286 O307 2.449 . S
O287 U286 2.454 . S
O287 C289 1.353 . S
O288 U286 2.458 . S
O288 C289 1.286 . S
C289 U286 2.984 . S
C289 O287 1.353 . S
C289 O288 1.286 . S
C289 C291 1.363 . S
C290 C280 1.465 . S
C290 U286 2.847 . S
C290 O304 1.249 . S
C290 O305 1.202 . S
C291 C289 1.363 . S
C291 C293 1.408 . S
C291 C296 1.342 1_655 S
C292 C293 1.310 . S
C292 C295 1.462 1_655 S
C292 H312 0.931 . S
C293 C291 1.408 . S
C293 C292 1.310 . S
C293 H313 0.930 . S
C294 C295 1.474 . S
C294 C296 1.285 . S
C294 H314 0.929 . S
C295 C292 1.462 1_455 S
C295 C294 1.474 . S
C296 C291 1.342 1_455 S
C296 C294 1.285 . S
C296 H315 0.930 . S
C297 C300 1.424 . S
C297 C302 1.245 1_655 S
C297 C303 1.428 . S
C298 C301 1.260 1_455 S
C298 C302 1.477 . S
C298 H316 0.932 . S
C299 C300 1.384 . S
C299 C301 1.479 . S
C299 H317 0.929 . S
C300 C297 1.424 . S
C300 C299 1.384 . S
C300 H318 0.928 . S
C301 C298 1.260 1_655 S
C301 C299 1.479 . S
C302 C297 1.245 1_455 S
C302 C298 1.477 . S
C302 H319 0.932 . S
C303 U286 2.882 . S
C303 C297 1.428 . S
C303 O306 1.301 . S
C303 O307 1.282 . S
O304 U286 2.441 . S
O304 C290 1.249 . S
O305 U286 2.420 . S
O305 C290 1.202 . S
O306 U286 2.455 . S
O306 C303 1.301 . S
O307 U286 2.449 . S
O307 C303 1.282 . S
H308 C281 0.931 . S
H309 C283 0.929 . S
H310 C284 0.930 . S
H311 C285 0.931 . S
H312 C292 0.931 . S
H313 C293 0.930 . S
H314 C294 0.929 . S
H315 C296 0.930 . S
H316 C298 0.932 . S
H317 C299 0.929 . S
H318 C300 0.928 . S
H319 C302 0.932 . S
C320 C321 1.264 . S
C320 C325 1.479 . S
C320 C330 1.465 . S
C321 C320 1.264 . S
C321 C323 1.339 . S
C321 H348 0.931 . S
C322 C323 1.395 . S
C322 C324 1.320 . S
C323 C321 1.339 . S
C323 C322 1.395 . S
C323 H349 0.929 . S
C324 C322 1.320 . S
C324 C325 1.405 . S
C324 H350 0.930 . S
C325 C320 1.479 . S
C325 C324 1.405 . S
C325 H351 0.931 . S
U326 O327 2.454 . S
U326 O328 2.458 . S
U326 C329 2.984 . S
U326 C330 2.847 . S
U326 C343 2.882 . S
U326 O344 2.441 . S
U326 O345 2.420 . S
U326 O346 2.455 . S
U326 O347 2.449 . S
O327 U326 2.454 . S
O327 C329 1.353 . S
O328 U326 2.458 . S
O328 C329 1.286 . S
C329 U326 2.984 . S
C329 O327 1.353 . S
C329 O328 1.286 . S
C329 C331 1.363 . S
C330 C320 1.465 . S
C330 U326 2.847 . S
C330 O344 1.249 . S
C330 O345 1.202 . S
C331 C329 1.363 . S
C331 C333 1.408 . S
C331 C336 1.342 1_565 S
C332 C333 1.311 1_545 S
C332 C335 1.461 . S
C332 H352 0.932 1_545 S
C333 C331 1.408 . S
C333 C332 1.311 1_565 S
C333 H353 0.930 . S
C334 C335 1.474 . S
C334 C336 1.285 . S
C334 H354 0.929 . S
C335 C332 1.461 . S
C335 C334 1.474 . S
C336 C331 1.342 1_545 S
C336 C334 1.285 . S
C336 H355 0.930 . S
C337 C340 1.424 . S
C337 C342 1.245 1_565 S
C337 C343 1.428 . S
C338 C341 1.260 1_545 S
C338 C342 1.477 . S
C338 H356 0.932 . S
C339 C340 1.384 . S
C339 C341 1.479 . S
C339 H357 0.929 . S
C340 C337 1.424 . S
C340 C339 1.384 . S
C340 H358 0.928 . S
C341 C338 1.260 1_565 S
C341 C339 1.479 . S
C342 C337 1.245 1_545 S
C342 C338 1.477 . S
C342 H359 0.932 . S
C343 U326 2.882 . S
C343 C337 1.428 . S
C343 O346 1.301 . S
C343 O347 1.282 . S
O344 U326 2.441 . S
O344 C330 1.249 . S
O345 U326 2.420 . S
O345 C330 1.202 . S
O346 U326 2.455 . S
O346 C343 1.301 . S
O347 U326 2.449 . S
O347 C343 1.282 . S
H348 C321 0.931 . S
H349 C323 0.929 . S
H350 C324 0.930 . S
H351 C325 0.931 . S
H352 C332 0.932 1_565 S
H353 C333 0.930 . S
H354 C334 0.929 . S
H355 C336 0.930 . S
H356 C338 0.932 . S
H357 C339 0.929 . S
H358 C340 0.928 . S
H359 C342 0.932 . S
C360 C361 1.264 . S
C360 C365 1.479 . S
C360 C370 1.465 . S
C361 C360 1.264 . S
C361 C363 1.339 . S
C361 H388 0.931 . S
C362 C363 1.395 . S
C362 C364 1.320 . S
C363 C361 1.339 . S
C363 C362 1.395 . S
C363 H389 0.929 . S
C364 C362 1.320 . S
C364 C365 1.405 . S
C364 H390 0.930 . S
C365 C360 1.479 . S
C365 C364 1.405 . S
C365 H391 0.931 . S
U366 O367 2.454 . S
U366 O368 2.458 . S
U366 C369 2.984 . S
U366 C370 2.847 . S
U366 C383 2.882 . S
U366 O384 2.441 . S
U366 O385 2.420 . S
U366 O386 2.455 . S
U366 O387 2.449 . S
O367 U366 2.454 . S
O367 C369 1.353 . S
O368 U366 2.458 . S
O368 C369 1.286 . S
C369 U366 2.984 . S
C369 O367 1.353 . S
C369 O368 1.286 . S
C369 C371 1.363 . S
C370 C360 1.465 . S
C370 U366 2.847 . S
C370 O384 1.249 . S
C370 O385 1.202 . S
C371 C369 1.363 . S
C371 C373 1.408 . S
C371 C376 1.342 . S
C372 C373 1.310 . S
C372 C375 1.461 . S
C372 H392 0.932 . S
C373 C371 1.408 . S
C373 C372 1.310 . S
C373 H393 0.930 . S
C374 C375 1.474 . S
C374 C376 1.285 . S
C374 H394 0.929 . S
C375 C372 1.461 . S
C375 C374 1.474 . S
C376 C371 1.342 . S
C376 C374 1.285 . S
C376 H395 0.930 . S
C377 C380 1.424 . S
C377 C382 1.245 . S
C377 C383 1.428 . S
C378 C381 1.260 . S
C378 C382 1.477 . S
C378 H396 0.932 . S
C379 C380 1.384 . S
C379 C381 1.479 . S
C379 H397 0.929 . S
C380 C377 1.424 . S
C380 C379 1.384 . S
C380 H398 0.928 . S
C381 C378 1.260 . S
C381 C379 1.479 . S
C382 C377 1.245 . S
C382 C378 1.477 . S
C382 H399 0.932 . S
C383 U366 2.882 . S
C383 C377 1.428 . S
C383 O386 1.301 . S
C383 O387 1.282 . S
O384 U366 2.441 . S
O384 C370 1.249 . S
O385 U366 2.420 . S
O385 C370 1.202 . S
O386 U366 2.455 . S
O386 C383 1.301 . S
O387 U366 2.449 . S
O387 C383 1.282 . S
H388 C361 0.931 . S
H389 C363 0.929 . S
H390 C364 0.930 . S
H391 C365 0.931 . S
H392 C372 0.932 . S
H393 C373 0.930 . S
H394 C374 0.929 . S
H395 C376 0.930 . S
H396 C378 0.932 . S
H397 C379 0.929 . S
H398 C380 0.928 . S
H399 C382 0.932 . S
C400 C401 1.264 . S
C400 C405 1.479 . S
C400 C410 1.465 . S
C401 C400 1.264 . S
C401 C403 1.339 . S
C401 H428 0.931 . S
C402 C403 1.395 . S
C402 C404 1.320 . S
C403 C401 1.339 . S
C403 C402 1.395 . S
C403 H429 0.929 . S
C404 C402 1.320 . S
C404 C405 1.405 . S
C404 H430 0.930 . S
C405 C400 1.479 . S
C405 C404 1.405 . S
C405 H431 0.931 . S
U406 O407 2.454 . S
U406 O408 2.458 . S
U406 C409 2.984 . S
U406 C410 2.847 . S
U406 C423 2.882 . S
U406 O424 2.441 . S
U406 O425 2.420 . S
U406 O426 2.455 . S
U406 O427 2.449 . S
O407 U406 2.454 . S
O407 C409 1.353 . S
O408 U406 2.458 . S
O408 C409 1.286 . S
C409 U406 2.984 . S
C409 O407 1.353 . S
C409 O408 1.286 . S
C409 C411 1.363 . S
C410 C400 1.465 . S
C410 U406 2.847 . S
C410 O424 1.249 . S
C410 O425 1.202 . S
C411 C409 1.363 . S
C411 C413 1.408 . S
C411 C416 1.342 1_455 S
C412 C413 1.310 . S
C412 C415 1.463 1_455 S
C412 H432 0.931 . S
C413 C411 1.408 . S
C413 C412 1.310 . S
C413 H433 0.930 . S
C414 C415 1.474 . S
C414 C416 1.285 . S
C414 H434 0.929 . S
C415 C412 1.463 1_655 S
C415 C414 1.474 . S
C416 C411 1.342 1_655 S
C416 C414 1.285 . S
C416 H435 0.930 . S
C417 C420 1.424 . S
C417 C422 1.245 1_455 S
C417 C423 1.428 . S
C418 C421 1.260 1_655 S
C418 C422 1.477 . S
C418 H436 0.932 . S
C419 C420 1.384 . S
C419 C421 1.479 . S
C419 H437 0.929 . S
C420 C417 1.424 . S
C420 C419 1.384 . S
C420 H438 0.928 . S
C421 C418 1.260 1_455 S
C421 C419 1.479 . S
C422 C417 1.245 1_655 S
C422 C418 1.477 . S
C422 H439 0.932 . S
C423 U406 2.882 . S
C423 C417 1.428 . S
C423 O426 1.301 . S
C423 O427 1.282 . S
O424 U406 2.441 . S
O424 C410 1.249 . S
O425 U406 2.420 . S
O425 C410 1.202 . S
O426 U406 2.455 . S
O426 C423 1.301 . S
O427 U406 2.449 . S
O427 C423 1.282 . S
H428 C401 0.931 . S
H429 C403 0.929 . S
H430 C404 0.930 . S
H431 C405 0.931 . S
H432 C412 0.931 . S
H433 C413 0.930 . S
H434 C414 0.929 . S
H435 C416 0.930 . S
H436 C418 0.932 . S
H437 C419 0.929 . S
H438 C420 0.928 . S
H439 C422 0.932 . S
C440 C441 1.264 . S
C440 C445 1.479 . S
C440 C450 1.465 . S
C441 C440 1.264 . S
C441 C443 1.339 . S
C441 H468 0.931 . S
C442 C443 1.395 . S
C442 C444 1.320 . S
C443 C441 1.339 . S
C443 C442 1.395 . S
C443 H469 0.929 . S
C444 C442 1.320 . S
C444 C445 1.405 . S
C444 H470 0.930 . S
C445 C440 1.479 . S
C445 C444 1.405 . S
C445 H471 0.931 . S
U446 O447 2.454 . S
U446 O448 2.458 . S
U446 C449 2.984 . S
U446 C450 2.847 . S
U446 C463 2.882 . S
U446 O464 2.441 . S
U446 O465 2.420 . S
U446 O466 2.455 . S
U446 O467 2.449 . S
O447 U446 2.454 . S
O447 C449 1.353 . S
O448 U446 2.458 . S
O448 C449 1.286 . S
C449 U446 2.984 . S
C449 O447 1.353 . S
C449 O448 1.286 . S
C449 C451 1.363 . S
C450 C440 1.465 . S
C450 U446 2.847 . S
C450 O464 1.249 . S
C450 O465 1.202 . S
C451 C449 1.363 . S
C451 C453 1.408 . S
C451 C456 1.342 1_545 S
C452 C453 1.311 1_565 S
C452 C455 1.461 . S
C452 H472 0.932 1_565 S
C453 C451 1.408 . S
C453 C452 1.311 1_545 S
C453 H473 0.930 . S
C454 C455 1.474 . S
C454 C456 1.285 . S
C454 H474 0.929 . S
C455 C452 1.461 . S
C455 C454 1.474 . S
C456 C451 1.342 1_565 S
C456 C454 1.285 . S
C456 H475 0.930 . S
C457 C460 1.424 . S
C457 C462 1.245 1_545 S
C457 C463 1.428 . S
C458 C461 1.260 1_565 S
C458 C462 1.477 . S
C458 H476 0.932 . S
C459 C460 1.384 . S
C459 C461 1.479 . S
C459 H477 0.929 . S
C460 C457 1.424 . S
C460 C459 1.384 . S
C460 H478 0.928 . S
C461 C458 1.260 1_545 S
C461 C459 1.479 . S
C462 C457 1.245 1_565 S
C462 C458 1.477 . S
C462 H479 0.932 . S
C463 U446 2.882 . S
C463 C457 1.428 . S
C463 O466 1.301 . S
C463 O467 1.282 . S
O464 U446 2.441 . S
O464 C450 1.249 . S
O465 U446 2.420 . S
O465 C450 1.202 . S
O466 U446 2.455 . S
O466 C463 1.301 . S
O467 U446 2.449 . S
O467 C463 1.282 . S
H468 C441 0.931 . S
H469 C443 0.929 . S
H470 C444 0.930 . S
H471 C445 0.931 . S
H472 C452 0.932 1_545 S
H473 C453 0.930 . S
H474 C454 0.929 . S
H475 C456 0.930 . S
H476 C458 0.932 . S
H477 C459 0.929 . S
H478 C460 0.928 . S
H479 C462 0.932 . S
C480 C481 1.369 . S
C480 C482 1.419 . S
C480 H484 0.930 . S
C481 C480 1.369 . S
C481 C490 1.429 . S
C482 C480 1.419 . S
C482 C483 1.363 . S
C482 H485 0.929 . S
C483 C482 1.363 . S
C483 C489 1.428 . S
H484 C480 0.930 . S
H485 C482 0.929 . S
S486 N487 1.613 . S
S486 N488 1.610 . S
N487 S486 1.613 . S
N487 C490 1.350 . S
N488 S486 1.610 . S
N488 C489 1.351 . S
C489 C483 1.428 . S
C489 N488 1.351 . S
C489 C490 1.434 . S
C490 C481 1.429 . S
C490 N487 1.350 . S
C490 C489 1.434 . S
C491 C492 1.369 . S
C491 C493 1.419 . S
C491 H495 0.930 . S
C492 C491 1.369 . S
C492 C501 1.429 . S
C493 C491 1.419 . S
C493 C494 1.363 . S
C493 H496 0.929 . S
C494 C493 1.363 . S
C494 C500 1.428 . S
H495 C491 0.930 . S
H496 C493 0.929 . S
S497 N498 1.613 . S
S497 N499 1.610 . S
N498 S497 1.613 . S
N498 C501 1.350 . S
N499 S497 1.610 . S
N499 C500 1.351 . S
C500 C494 1.428 . S
C500 N499 1.351 . S
C500 C501 1.434 . S
C501 C492 1.429 . S
C501 N498 1.350 . S
C501 C500 1.434 . S
C502 C503 1.369 . S
C502 C504 1.419 . S
C502 H506 0.930 . S
C503 C502 1.369 . S
C503 C512 1.429 . S
C504 C502 1.419 . S
C504 C505 1.363 . S
C504 H507 0.929 . S
C505 C504 1.363 . S
C505 C511 1.428 . S
H506 C502 0.930 . S
H507 C504 0.929 . S
S508 N509 1.613 . S
S508 N510 1.610 . S
N509 S508 1.613 . S
N509 C512 1.350 . S
N510 S508 1.610 . S
N510 C511 1.351 . S
C511 C505 1.428 . S
C511 N510 1.351 . S
C511 C512 1.434 . S
C512 C503 1.429 . S
C512 N509 1.350 . S
C512 C511 1.434 . S
C513 C514 1.369 . S
C513 C515 1.419 . S
C513 H517 0.930 . S
C514 C513 1.369 . S
C514 C523 1.429 . S
C515 C513 1.419 . S
C515 C516 1.363 . S
C515 H518 0.929 . S
C516 C515 1.363 . S
C516 C522 1.428 . S
H517 C513 0.930 . S
H518 C515 0.929 . S
S519 N520 1.613 . S
S519 N521 1.610 . S
N520 S519 1.613 . S
N520 C523 1.350 . S
N521 S519 1.610 . S
N521 C522 1.351 . S
C522 C516 1.428 . S
C522 N521 1.351 . S
C522 C523 1.434 . S
C523 C514 1.429 . S
C523 N520 1.350 . S
C523 C522 1.434 . S
C524 C525 1.369 . S
C524 C526 1.419 . S
C524 H528 0.930 . S
C525 C524 1.369 . S
C525 C534 1.429 . S
C526 C524 1.419 . S
C526 C527 1.363 . S
C526 H529 0.929 . S
C527 C526 1.363 . S
C527 C533 1.428 . S
H528 C524 0.930 . S
H529 C526 0.929 . S
S530 N531 1.613 . S
S530 N532 1.610 . S
N531 S530 1.613 . S
N531 C534 1.350 . S
N532 S530 1.610 . S
N532 C533 1.351 . S
C533 C527 1.428 . S
C533 N532 1.351 . S
C533 C534 1.434 . S
C534 C525 1.429 . S
C534 N531 1.350 . S
C534 C533 1.434 . S
C535 C536 1.369 . S
C535 C537 1.419 . S
C535 H539 0.930 . S
C536 C535 1.369 . S
C536 C545 1.429 . S
C537 C535 1.419 . S
C537 C538 1.363 . S
C537 H540 0.929 . S
C538 C537 1.363 . S
C538 C544 1.428 . S
H539 C535 0.930 . S
H540 C537 0.929 . S
S541 N542 1.613 . S
S541 N543 1.610 . S
N542 S541 1.613 . S
N542 C545 1.350 . S
N543 S541 1.610 . S
N543 C544 1.351 . S
C544 C538 1.428 . S
C544 N543 1.351 . S
C544 C545 1.434 . S
C545 C536 1.429 . S
C545 N542 1.350 . S
C545 C544 1.434 . S
C546 C547 1.369 . S
C546 C548 1.419 . S
C546 H550 0.930 . S
C547 C546 1.369 . S
C547 C556 1.429 . S
C548 C546 1.419 . S
C548 C549 1.363 . S
C548 H551 0.929 . S
C549 C548 1.363 . S
C549 C555 1.428 . S
H550 C546 0.930 . S
H551 C548 0.929 . S
S552 N553 1.613 . S
S552 N554 1.610 . S
N553 S552 1.613 . S
N553 C556 1.350 . S
N554 S552 1.610 . S
N554 C555 1.351 . S
C555 C549 1.428 . S
C555 N554 1.351 . S
C555 C556 1.434 . S
C556 C547 1.429 . S
C556 N553 1.350 . S
C556 C555 1.434 . S
C557 C558 1.369 . S
C557 C559 1.419 . S
C557 H561 0.930 . S
C558 C557 1.369 . S
C558 C567 1.429 1_655 S
C559 C557 1.419 . S
C559 C560 1.363 . S
C559 H562 0.929 . S
C560 C559 1.363 . S
C560 C566 1.428 1_655 S
H561 C557 0.930 . S
H562 C559 0.929 . S
S563 N564 1.613 . S
S563 N565 1.610 . S
N564 S563 1.613 . S
N564 C567 1.350 . S
N565 S563 1.610 . S
N565 C566 1.351 . S
C566 C560 1.428 1_455 S
C566 N565 1.351 . S
C566 C567 1.434 . S
C567 C558 1.429 1_455 S
C567 N564 1.350 . S
C567 C566 1.434 . S
C568 C569 1.369 . S
C568 C570 1.419 . S
C568 H572 0.930 . S
C569 C568 1.369 . S
C569 C578 1.429 1_565 S
C570 C568 1.419 . S
C570 C571 1.363 . S
C570 H573 0.929 . S
C571 C570 1.363 . S
C571 C577 1.428 1_565 S
H572 C568 0.930 . S
H573 C570 0.929 . S
S574 N575 1.613 . S
S574 N576 1.610 . S
N575 S574 1.613 . S
N575 C578 1.350 . S
N576 S574 1.610 . S
N576 C577 1.351 . S
C577 C571 1.428 1_545 S
C577 N576 1.351 . S
C577 C578 1.434 . S
C578 C569 1.429 1_545 S
C578 N575 1.350 . S
C578 C577 1.434 . S
C579 C580 1.369 . S
C579 C581 1.419 . S
C579 H583 0.930 . S
C580 C579 1.369 . S
C580 C589 1.429 . S
C581 C579 1.419 . S
C581 C582 1.363 . S
C581 H584 0.929 . S
C582 C581 1.363 . S
C582 C588 1.428 . S
H583 C579 0.930 . S
H584 C581 0.929 . S
S585 N586 1.613 . S
S585 N587 1.610 . S
N586 S585 1.613 . S
N586 C589 1.350 . S
N587 S585 1.610 . S
N587 C588 1.351 . S
C588 C582 1.428 . S
C588 N587 1.351 . S
C588 C589 1.434 . S
C589 C580 1.429 . S
C589 N586 1.350 . S
C589 C588 1.434 . S
C590 C591 1.369 . S
C590 C592 1.419 . S
C590 H594 0.930 . S
C591 C590 1.369 . S
C591 C600 1.429 1_455 S
C592 C590 1.419 . S
C592 C593 1.363 . S
C592 H595 0.929 . S
C593 C592 1.363 . S
C593 C599 1.428 1_455 S
H594 C590 0.930 . S
H595 C592 0.929 . S
S596 N597 1.613 . S
S596 N598 1.610 . S
N597 S596 1.613 . S
N597 C600 1.350 . S
N598 S596 1.610 . S
N598 C599 1.351 . S
C599 C593 1.428 1_655 S
C599 N598 1.351 . S
C599 C600 1.434 . S
C600 C591 1.429 1_655 S
C600 N597 1.350 . S
C600 C599 1.434 . S
C601 C602 1.369 1_565 S
C601 C603 1.419 . S
C601 H605 0.930 . S
C602 C601 1.369 1_545 S
C602 C611 1.429 . S
C603 C601 1.419 . S
C603 C604 1.363 1_565 S
C603 H606 0.929 . S
C604 C603 1.363 1_545 S
C604 C610 1.428 . S
H605 C601 0.930 . S
H606 C603 0.929 . S
S607 N608 1.613 . S
S607 N609 1.610 . S
N608 S607 1.613 . S
N608 C611 1.350 . S
N609 S607 1.610 . S
N609 C610 1.351 . S
C610 C604 1.428 . S
C610 N609 1.351 . S
C610 C611 1.434 . S
C611 C602 1.429 . S
C611 N608 1.350 . S
C611 C610 1.434 . S
C612 C613 1.369 . S
C612 C614 1.419 1_554 S
C612 H616 0.930 . S
C613 C612 1.369 . S
C613 C622 1.429 . S
C614 C612 1.419 1_556 S
C614 C615 1.363 . S
C614 H617 0.929 . S
C615 C614 1.363 . S
C615 C621 1.428 . S
H616 C612 0.930 . S
H617 C614 0.929 . S
S618 N619 1.613 . S
S618 N620 1.610 1_554 S
N619 S618 1.613 . S
N619 C622 1.350 . S
N620 S618 1.610 1_556 S
N620 C621 1.351 . S
C621 C615 1.428 . S
C621 N620 1.351 . S
C621 C622 1.434 1_556 S
C622 C613 1.429 . S
C622 N619 1.350 . S
C622 C621 1.434 1_554 S
C623 C624 1.369 . S
C623 C625 1.419 . S
C623 H627 0.930 . S
C624 C623 1.369 . S
C624 C633 1.429 1_655 S
C625 C623 1.419 . S
C625 C626 1.363 1_655 S
C625 H628 0.929 . S
C626 C625 1.363 1_455 S
C626 C632 1.428 . S
H627 C623 0.930 . S
H628 C625 0.929 . S
S629 N630 1.613 . S
S629 N631 1.610 . S
N630 S629 1.613 . S
N630 C633 1.350 . S
N631 S629 1.610 . S
N631 C632 1.351 . S
C632 C626 1.428 . S
C632 N631 1.351 . S
C632 C633 1.434 . S
C633 C624 1.429 1_455 S
C633 N630 1.350 . S
C633 C632 1.434 . S
C634 C635 1.369 . S
C634 C636 1.419 1_556 S
C634 H638 0.930 . S
C635 C634 1.369 . S
C635 C644 1.429 1_565 S
C636 C634 1.419 1_554 S
C636 C637 1.363 1_565 S
C636 H639 0.929 . S
C637 C636 1.363 1_545 S
C637 C643 1.428 . S
H638 C634 0.930 . S
H639 C636 0.929 . S
S640 N641 1.613 . S
S640 N642 1.610 1_556 S
N641 S640 1.613 . S
N641 C644 1.350 . S
N642 S640 1.610 1_554 S
N642 C643 1.351 . S
C643 C637 1.428 . S
C643 N642 1.351 . S
C643 C644 1.434 1_554 S
C644 C635 1.429 1_545 S
C644 N641 1.350 . S
C644 C643 1.434 1_556 S
C645 C646 1.369 . S
C645 C647 1.419 . S
C645 H649 0.930 . S
C646 C645 1.369 . S
C646 C655 1.429 . S
C647 C645 1.419 . S
C647 C648 1.363 . S
C647 H650 0.929 . S
C648 C647 1.363 . S
C648 C654 1.428 . S
H649 C645 0.930 . S
H650 C647 0.929 . S
S651 N652 1.613 . S
S651 N653 1.610 . S
N652 S651 1.613 . S
N652 C655 1.350 . S
N653 S651 1.610 . S
N653 C654 1.351 . S
C654 C648 1.428 . S
C654 N653 1.351 . S
C654 C655 1.434 . S
C655 C646 1.429 . S
C655 N652 1.350 . S
C655 C654 1.434 . S
C656 C657 1.369 . S
C656 C658 1.419 1_554 S
C656 H660 0.930 . S
C657 C656 1.369 . S
C657 C666 1.429 1_655 S
C658 C656 1.419 1_556 S
C658 C659 1.363 1_655 S
C658 H661 0.929 . S
C659 C658 1.363 1_455 S
C659 C665 1.428 . S
H660 C656 0.930 . S
H661 C658 0.929 . S
S662 N663 1.613 . S
S662 N664 1.610 1_554 S
N663 S662 1.613 . S
N663 C666 1.350 . S
N664 S662 1.610 1_556 S
N664 C665 1.351 . S
C665 C659 1.428 . S
C665 N664 1.351 . S
C665 C666 1.434 1_556 S
C666 C657 1.429 1_455 S
C666 N663 1.350 . S
C666 C665 1.434 1_554 S
C667 C668 1.369 1_565 S
C667 C669 1.419 . S
C667 H671 0.930 . S
C668 C667 1.369 1_545 S
C668 C677 1.429 . S
C669 C667 1.419 . S
C669 C670 1.363 . S
C669 H672 0.929 . S
C670 C669 1.363 . S
C670 C676 1.428 1_565 S
H671 C667 0.930 . S
H672 C669 0.929 . S
S673 N674 1.613 . S
S673 N675 1.610 . S
N674 S673 1.613 . S
N674 C677 1.350 . S
N675 S673 1.610 . S
N675 C676 1.351 . S
C676 C670 1.428 1_545 S
C676 N675 1.351 . S
C676 C677 1.434 . S
C677 C668 1.429 . S
C677 N674 1.350 . S
C677 C676 1.434 . S
C481 C2 2.075 . S
C483 C402 2.077 . S
C492 C442 2.078 . S
C494 C42 2.076 . S
C503 C242 2.078 . S
C505 C82 2.074 . S
C514 C122 2.073 . S
C516 C282 2.078 . S
C525 C322 2.079 . S
C527 C162 2.076 . S
C536 C362 2.074 . S
C538 C202 2.077 . S
C547 C21 2.193 . S
C549 C261 2.190 . S
C558 C61 2.190 . S
C560 C301 2.192 . S
C569 C101 2.194 . S
C571 C341 2.189 . S
C580 C381 2.194 . S
C582 C141 2.190 . S
C591 C181 2.192 . S
C593 C421 2.191 . S
C602 C221 2.190 . S
C604 C461 2.191 . S
C613 C15 2.257 . S
C615 C375 2.263 . S
C624 C415 2.261 . S
C626 C55 2.261 . S
C635 C455 2.257 . S
C637 C95 2.262 . S
C646 C135 2.264 . S
C648 C255 2.258 . S
C657 C175 2.256 . S
C659 C295 2.263 . S
C668 C335 2.264 . S
C670 C215 2.258 . S
