# Generated by pormake.
# Topology ukd, (4)-cn, num edge types: 1
# Building blocks:
#     Node 0, Type 0, BuildingBlock: TATPOV_clean_sbu_0, # of connection points: 4
#     Node 1, Type 0, BuildingBlock: TATPOV_clean_sbu_0, # of connection points: 4
#     Node 2, Type 0, BuildingBlock: TATPOV_clean_sbu_0, # of connection points: 4
#     Node 3, Type 0, BuildingBlock: TATPOV_clean_sbu_0, # of connection points: 4
#     Node 4, Type 0, BuildingBlock: TATPOV_clean_sbu_0, # of connection points: 4
#     Node 5, Type 0, BuildingBlock: TATPOV_clean_sbu_0, # of connection points: 4
#     Node 6, Type 0, BuildingBlock: TATPOV_clean_sbu_0, # of connection points: 4
#     Node 7, Type 0, BuildingBlock: TATPOV_clean_sbu_0, # of connection points: 4
#     Node 8, Type 0, BuildingBlock: TATPOV_clean_sbu_0, # of connection points: 4
#     Node 9, Type 0, BuildingBlock: TATPOV_clean_sbu_0, # of connection points: 4
#     Node 10, Type 0, BuildingBlock: TATPOV_clean_sbu_0, # of connection points: 4
#     Node 11, Type 0, BuildingBlock: TATPOV_clean_sbu_0, # of connection points: 4
#     Node 12, Type 0, BuildingBlock: TATPOV_clean_sbu_0, # of connection points: 4
#     Node 13, Type 0, BuildingBlock: TATPOV_clean_sbu_0, # of connection points: 4
#     Node 14, Type 0, BuildingBlock: TATPOV_clean_sbu_0, # of connection points: 4
#     Node 15, Type 0, BuildingBlock: TATPOV_clean_sbu_0, # of connection points: 4
#     Node 16, Type 0, BuildingBlock: TATPOV_clean_sbu_0, # of connection points: 4
#     Node 17, Type 0, BuildingBlock: TATPOV_clean_sbu_0, # of connection points: 4
#     Node 18, Type 0, BuildingBlock: TATPOV_clean_sbu_0, # of connection points: 4
#     Node 19, Type 0, BuildingBlock: TATPOV_clean_sbu_0, # of connection points: 4
#     Node 20, Type 0, BuildingBlock: TATPOV_clean_sbu_0, # of connection points: 4
#     Node 21, Type 0, BuildingBlock: TATPOV_clean_sbu_0, # of connection points: 4
#     Node 22, Type 0, BuildingBlock: TATPOV_clean_sbu_0, # of connection points: 4
#     Node 23, Type 0, BuildingBlock: TATPOV_clean_sbu_0, # of connection points: 4
#     Node 24, Type 0, BuildingBlock: TATPOV_clean_sbu_0, # of connection points: 4
#     Node 25, Type 0, BuildingBlock: TATPOV_clean_sbu_0, # of connection points: 4
#     Node 26, Type 0, BuildingBlock: TATPOV_clean_sbu_0, # of connection points: 4
#     Node 27, Type 0, BuildingBlock: TATPOV_clean_sbu_0, # of connection points: 4
#     Node 28, Type 0, BuildingBlock: TATPOV_clean_sbu_0, # of connection points: 4
#     Node 29, Type 0, BuildingBlock: TATPOV_clean_sbu_0, # of connection points: 4
#     Node 30, Type 0, BuildingBlock: TATPOV_clean_sbu_0, # of connection points: 4
#     Node 31, Type 0, BuildingBlock: TATPOV_clean_sbu_0, # of connection points: 4
#     Edge 32, Type (0, 0), BuildingBlock: KIFKEQ_clean_linker_1, # of connection points: 2
#     Edge 33, Type (0, 0), BuildingBlock: KIFKEQ_clean_linker_1, # of connection points: 2
#     Edge 34, Type (0, 0), BuildingBlock: KIFKEQ_clean_linker_1, # of connection points: 2
#     Edge 35, Type (0, 0), BuildingBlock: KIFKEQ_clean_linker_1, # of connection points: 2
#     Edge 36, Type (0, 0), BuildingBlock: KIFKEQ_clean_linker_1, # of connection points: 2
#     Edge 37, Type (0, 0), BuildingBlock: KIFKEQ_clean_linker_1, # of connection points: 2
#     Edge 38, Type (0, 0), BuildingBlock: KIFKEQ_clean_linker_1, # of connection points: 2
#     Edge 39, Type (0, 0), BuildingBlock: KIFKEQ_clean_linker_1, # of connection points: 2
#     Edge 40, Type (0, 0), BuildingBlock: KIFKEQ_clean_linker_1, # of connection points: 2
#     Edge 41, Type (0, 0), BuildingBlock: KIFKEQ_clean_linker_1, # of connection points: 2
#     Edge 42, Type (0, 0), BuildingBlock: KIFKEQ_clean_linker_1, # of connection points: 2
#     Edge 43, Type (0, 0), BuildingBlock: KIFKEQ_clean_linker_1, # of connection points: 2
#     Edge 44, Type (0, 0), BuildingBlock: KIFKEQ_clean_linker_1, # of connection points: 2
#     Edge 45, Type (0, 0), BuildingBlock: KIFKEQ_clean_linker_1, # of connection points: 2
#     Edge 46, Type (0, 0), BuildingBlock: KIFKEQ_clean_linker_1, # of connection points: 2
#     Edge 47, Type (0, 0), BuildingBlock: KIFKEQ_clean_linker_1, # of connection points: 2
#     Edge 48, Type (0, 0), BuildingBlock: KIFKEQ_clean_linker_1, # of connection points: 2
#     Edge 49, Type (0, 0), BuildingBlock: KIFKEQ_clean_linker_1, # of connection points: 2
#     Edge 50, Type (0, 0), BuildingBlock: KIFKEQ_clean_linker_1, # of connection points: 2
#     Edge 51, Type (0, 0), BuildingBlock: KIFKEQ_clean_linker_1, # of connection points: 2
#     Edge 52, Type (0, 0), BuildingBlock: KIFKEQ_clean_linker_1, # of connection points: 2
#     Edge 53, Type (0, 0), BuildingBlock: KIFKEQ_clean_linker_1, # of connection points: 2
#     Edge 54, Type (0, 0), BuildingBlock: KIFKEQ_clean_linker_1, # of connection points: 2
#     Edge 55, Type (0, 0), BuildingBlock: KIFKEQ_clean_linker_1, # of connection points: 2
#     Edge 56, Type (0, 0), BuildingBlock: KIFKEQ_clean_linker_1, # of connection points: 2
#     Edge 57, Type (0, 0), BuildingBlock: KIFKEQ_clean_linker_1, # of connection points: 2
#     Edge 58, Type (0, 0), BuildingBlock: KIFKEQ_clean_linker_1, # of connection points: 2
#     Edge 59, Type (0, 0), BuildingBlock: KIFKEQ_clean_linker_1, # of connection points: 2
#     Edge 60, Type (0, 0), BuildingBlock: KIFKEQ_clean_linker_1, # of connection points: 2
#     Edge 61, Type (0, 0), BuildingBlock: KIFKEQ_clean_linker_1, # of connection points: 2
#     Edge 62, Type (0, 0), BuildingBlock: KIFKEQ_clean_linker_1, # of connection points: 2
#     Edge 63, Type (0, 0), BuildingBlock: KIFKEQ_clean_linker_1, # of connection points: 2
#     Edge 64, Type (0, 0), BuildingBlock: KIFKEQ_clean_linker_1, # of connection points: 2
#     Edge 65, Type (0, 0), BuildingBlock: KIFKEQ_clean_linker_1, # of connection points: 2
#     Edge 66, Type (0, 0), BuildingBlock: KIFKEQ_clean_linker_1, # of connection points: 2
#     Edge 67, Type (0, 0), BuildingBlock: KIFKEQ_clean_linker_1, # of connection points: 2
#     Edge 68, Type (0, 0), BuildingBlock: KIFKEQ_clean_linker_1, # of connection points: 2
#     Edge 69, Type (0, 0), BuildingBlock: KIFKEQ_clean_linker_1, # of connection points: 2
#     Edge 70, Type (0, 0), BuildingBlock: KIFKEQ_clean_linker_1, # of connection points: 2
#     Edge 71, Type (0, 0), BuildingBlock: KIFKEQ_clean_linker_1, # of connection points: 2
#     Edge 72, Type (0, 0), BuildingBlock: KIFKEQ_clean_linker_1, # of connection points: 2
#     Edge 73, Type (0, 0), BuildingBlock: KIFKEQ_clean_linker_1, # of connection points: 2
#     Edge 74, Type (0, 0), BuildingBlock: KIFKEQ_clean_linker_1, # of connection points: 2
#     Edge 75, Type (0, 0), BuildingBlock: KIFKEQ_clean_linker_1, # of connection points: 2
#     Edge 76, Type (0, 0), BuildingBlock: KIFKEQ_clean_linker_1, # of connection points: 2
#     Edge 77, Type (0, 0), BuildingBlock: KIFKEQ_clean_linker_1, # of connection points: 2
#     Edge 78, Type (0, 0), BuildingBlock: KIFKEQ_clean_linker_1, # of connection points: 2
#     Edge 79, Type (0, 0), BuildingBlock: KIFKEQ_clean_linker_1, # of connection points: 2
#     Edge 80, Type (0, 0), BuildingBlock: KIFKEQ_clean_linker_1, # of connection points: 2
#     Edge 81, Type (0, 0), BuildingBlock: KIFKEQ_clean_linker_1, # of connection points: 2
#     Edge 82, Type (0, 0), BuildingBlock: KIFKEQ_clean_linker_1, # of connection points: 2
#     Edge 83, Type (0, 0), BuildingBlock: KIFKEQ_clean_linker_1, # of connection points: 2
#     Edge 84, Type (0, 0), BuildingBlock: KIFKEQ_clean_linker_1, # of connection points: 2
#     Edge 85, Type (0, 0), BuildingBlock: KIFKEQ_clean_linker_1, # of connection points: 2
#     Edge 86, Type (0, 0), BuildingBlock: KIFKEQ_clean_linker_1, # of connection points: 2
#     Edge 87, Type (0, 0), BuildingBlock: KIFKEQ_clean_linker_1, # of connection points: 2
#     Edge 88, Type (0, 0), BuildingBlock: KIFKEQ_clean_linker_1, # of connection points: 2
#     Edge 89, Type (0, 0), BuildingBlock: KIFKEQ_clean_linker_1, # of connection points: 2
#     Edge 90, Type (0, 0), BuildingBlock: KIFKEQ_clean_linker_1, # of connection points: 2
#     Edge 91, Type (0, 0), BuildingBlock: KIFKEQ_clean_linker_1, # of connection points: 2
#     Edge 92, Type (0, 0), BuildingBlock: KIFKEQ_clean_linker_1, # of connection points: 2
#     Edge 93, Type (0, 0), BuildingBlock: KIFKEQ_clean_linker_1, # of connection points: 2
#     Edge 94, Type (0, 0), BuildingBlock: KIFKEQ_clean_linker_1, # of connection points: 2
#     Edge 95, Type (0, 0), BuildingBlock: KIFKEQ_clean_linker_1, # of connection points: 2
# Relax obj value: 0.129
# Max RMSD: 0.184
# Mean RMSD: 0.177
data_MOF--net-ukd--node1-TATPOV_clean_sbu_0--edge1-KIFKEQ_clean_linker_1
_symmetry_space_group_name_H-M    P1
_symmetry_Int_Tables_number       1
_symmetry_cell_setting            triclinic
loop_
_symmetry_equiv_pos_as_xyz
'x, y, z'
_cell_length_a     44.065088
_cell_length_b     43.377624
_cell_length_c     78.489379
_cell_angle_alpha  89.96588
_cell_angle_beta   89.95013
_cell_angle_gamma 90.040158
loop_
_atom_site_label
_atom_site_type_symbol
_atom_site_fract_x
_atom_site_fract_y
_atom_site_fract_z
_atom_type_partial_charge
Zn0 Zn 0.14654 0.23811 0.30586 0.0
Zn1 Zn 0.2019 0.22592 0.31974 0.0
O2 O 0.17775 0.18634 0.32357 0.0
O3 O 0.13249 0.19522 0.31287 0.0
O4 O 0.24241 0.21477 0.32945 0.0
O5 O 0.16684 0.24477 0.28305 0.0
O6 O 0.2114 0.23736 0.29506 0.0
C7 C 0.15085 0.17736 0.32041 0.0
C8 C 0.16443 0.27871 0.33379 0.0
O9 O 0.18788 0.26168 0.33442 0.0
O10 O 0.14406 0.27386 0.3227 0.0
C11 C 0.24376 0.20473 0.34465 0.0
O12 O 0.21875 0.20335 0.35375 0.0
C13 C 0.1955 0.24385 0.282 0.0
Zn14 Zn 0.06483 0.98794 0.63559 0.0
Zn15 Zn 0.06507 0.99568 0.60135 0.0
O16 O 0.02056 0.98992 0.60742 0.0
O17 O 0.01881 0.98324 0.63516 0.0
O18 O 0.06227 0.0006 0.57616 0.0
O19 O 0.08431 0.03 0.63769 0.0
O20 O 0.08643 0.03476 0.60978 0.0
C21 C 0.00537 0.98493 0.62092 0.0
C22 C 0.09892 0.94152 0.61674 0.0
O23 O 0.08979 0.95657 0.60384 0.0
O24 O 0.09196 0.9503 0.63166 0.0
C25 C 0.04961 0.979 0.56784 0.0
O26 O 0.04021 0.95432 0.57601 0.0
C27 C 0.09212 0.0452 0.6246 0.0
Zn28 Zn 0.38664 0.7573 0.80699 0.0
Zn29 Zn 0.33209 0.78026 0.81852 0.0
O30 O 0.36165 0.8147 0.82401 0.0
O31 O 0.40591 0.798 0.81483 0.0
O32 O 0.29186 0.79765 0.82553 0.0
O33 O 0.36853 0.75278 0.78326 0.0
O34 O 0.32576 0.77169 0.79336 0.0
C35 C 0.38998 0.8188 0.82185 0.0
C36 C 0.35713 0.72102 0.83374 0.0
O37 O 0.33703 0.74199 0.83315 0.0
O38 O 0.3801 0.72221 0.824 0.0
C39 C 0.27929 0.79368 0.83996 0.0
O40 O 0.29305 0.77712 0.85164 0.0
C41 C 0.34123 0.76097 0.78103 0.0
Zn42 Zn 0.41761 0.01143 0.13903 0.0
Zn43 Zn 0.43103 0.00318 0.10577 0.0
O44 O 0.47244 0.00936 0.11697 0.0
O45 O 0.46224 0.01875 0.1439 0.0
O46 O 0.44224 8e-05 0.08115 0.0
O47 O 0.40043 0.96821 0.13896 0.0
O48 O 0.40872 0.96294 0.11142 0.0
C49 C 0.48137 0.01591 0.13194 0.0
C50 C 0.3888 0.05561 0.11692 0.0
O51 O 0.40373 0.04111 0.10561 0.0
O52 O 0.39028 0.0473 0.13238 0.0
C53 C 0.45672 0.02254 0.0746 0.0
O54 O 0.46386 0.04625 0.08422 0.0
C55 C 0.39835 0.95241 0.12543 0.0
Zn56 Zn 0.12829 0.7764 0.17797 0.0
Zn57 Zn 0.18339 0.78814 0.16369 0.0
O58 O 0.15837 0.82606 0.15732 0.0
O59 O 0.11344 0.81752 0.16862 0.0
O60 O 0.22473 0.79836 0.15468 0.0
O61 O 0.14725 0.77348 0.20135 0.0
O62 O 0.19155 0.78052 0.18898 0.0
C63 C 0.13112 0.8345 0.15998 0.0
C64 C 0.14824 0.73223 0.15203 0.0
O65 O 0.17109 0.74993 0.15051 0.0
O66 O 0.12767 0.73808 0.16288 0.0
C67 C 0.22853 0.80815 0.13957 0.0
O68 O 0.2049 0.81076 0.12947 0.0
C69 C 0.17587 0.77533 0.20231 0.0
Zn70 Zn 0.42931 0.99444 0.35576 0.0
Zn71 Zn 0.43246 0.00186 0.38998 0.0
O72 O 0.4766 0.9969 0.38281 0.0
O73 O 0.47513 0.98925 0.35514 0.0
O74 O 0.43609 0.00518 0.41531 0.0
O75 O 0.41071 0.03689 0.35446 0.0
O76 O 0.41125 0.04165 0.3824 0.0
C77 C 0.4902 0.99167 0.36882 0.0
C78 C 0.39642 0.94813 0.37478 0.0
O79 O 0.40711 0.96279 0.38745 0.0
O80 O 0.40194 0.95721 0.35973 0.0
C81 C 0.44782 0.98253 0.4232 0.0
O82 O 0.45703 0.95843 0.41448 0.0
C83 C 0.4046 0.0523 0.36773 0.0
Zn84 Zn 0.36022 0.21321 0.69171 0.0
Zn85 Zn 0.30564 0.2031 0.67614 0.0
O86 O 0.32726 0.16156 0.67495 0.0
O87 O 0.37118 0.16798 0.68781 0.0
O88 O 0.26533 0.19374 0.66559 0.0
O89 O 0.33763 0.22601 0.71308 0.0
O90 O 0.29422 0.21918 0.69972 0.0
C91 C 0.35258 0.15078 0.67997 0.0
C92 C 0.34872 0.2503 0.66113 0.0
O93 O 0.32393 0.23534 0.66054 0.0
O94 O 0.36759 0.24548 0.67305 0.0
C95 C 0.26403 0.18277 0.65061 0.0
O96 O 0.28933 0.17869 0.64202 0.0
C97 C 0.3089 0.22716 0.71296 0.0
Zn98 Zn 0.09587 -0.0023 0.84686 0.0
Zn99 Zn 0.07738 0.98884 0.87917 0.0
O100 O 0.03827 -0.00222 0.86607 0.0
O101 O 0.05278 0.00756 0.83979 0.0
O102 O 0.06145 0.98221 0.90276 0.0
O103 O 0.10976 0.95367 0.84611 0.0
O104 O 0.09998 0.94855 0.87352 0.0
C105 C 0.03188 0.00519 0.8508 0.0
C106 C 0.12298 0.0395 0.87147 0.0
O107 O 0.10488 0.0263 0.88178 0.0
O108 O 0.12445 0.03095 0.85604 0.0
C109 C 0.04485 0.00279 0.90955 0.0
O110 O 0.03925 0.0283 0.90109 0.0
C111 C 0.11039 0.9377 0.85961 0.0
Zn112 Zn 0.8331 0.79945 0.65589 0.0
Zn113 Zn 0.78094 0.80839 0.63995 0.0
O114 O 0.80908 0.84316 0.63094 0.0
O115 O 0.85386 0.83082 0.64141 0.0
O116 O 0.7397 0.81972 0.63052 0.0
O117 O 0.81574 0.8103 0.67877 0.0
O118 O 0.77178 0.80999 0.66556 0.0
C119 C 0.83753 0.84791 0.63215 0.0
C120 C 0.81063 0.74557 0.6381 0.0
O121 O 0.79028 0.76356 0.63217 0.0
O122 O 0.83027 0.75554 0.64849 0.0
C123 C 0.73534 0.8343 0.61668 0.0
O124 O 0.75861 0.84039 0.60675 0.0
C125 C 0.78707 0.8115 0.6793 0.0
Zn126 Zn 0.99376 0.07405 0.42131 0.0
Zn127 Zn 0.98045 0.01848 0.40944 0.0
O128 O 0.9461 0.04715 0.4012 0.0
O129 O 0.95529 0.09259 0.41254 0.0
O130 O 0.96439 0.97688 0.40231 0.0
O131 O 0.99554 0.05982 0.44514 0.0
O132 O 0.98733 0.01291 0.43551 0.0
C133 C 0.9388 0.07522 0.40353 0.0
C134 C 0.03672 0.04975 0.39626 0.0
O135 O 0.01904 0.02652 0.39549 0.0
O136 O 0.03108 0.07181 0.40636 0.0
C137 C 0.95243 0.97397 0.38767 0.0
O138 O 0.9538 0.99725 0.37698 0.0
C139 C 0.9925 0.03129 0.44786 0.0
Zn140 Zn 0.6643 0.20234 0.15365 0.0
Zn141 Zn 0.71458 0.18503 0.13957 0.0
O142 O 0.68631 0.14674 0.13798 0.0
O143 O 0.64862 0.15931 0.15504 0.0
O144 O 0.75387 0.16903 0.12985 0.0
O145 O 0.68611 0.22045 0.17363 0.0
O146 O 0.72755 0.19878 0.16362 0.0
C147 C 0.662 0.13964 0.14587 0.0
C148 C 0.6773 0.23621 0.12344 0.0
O149 O 0.70272 0.22239 0.12476 0.0
O150 O 0.65561 0.22922 0.13331 0.0
C151 C 0.75538 0.1564 0.11527 0.0
O152 O 0.73085 0.15508 0.1058 0.0
C153 C 0.71396 0.21406 0.17521 0.0
Zn154 Zn 0.52484 0.93039 0.93557 0.0
Zn155 Zn 0.55038 0.98023 0.92074 0.0
O156 O 0.58318 0.94705 0.92227 0.0
O157 O 0.5641 0.90639 0.93504 0.0
O158 O 0.57451 0.01462 0.90975 0.0
O159 O 0.51303 0.95669 0.95519 0.0
O160 O 0.53434 -0.00218 0.94362 0.0
C161 C 0.58623 0.91965 0.92781 0.0
C162 C 0.49802 0.94686 0.90317 0.0
O163 O 0.51768 0.96845 0.90303 0.0
O164 O 0.49652 0.92828 0.9156 0.0
C165 C 0.58945 0.00693 0.89654 0.0
O166 O 0.58595 0.97897 0.89041 0.0
C167 C 0.51956 0.98505 0.9557 0.0
Zn168 Zn 0.848 0.2006 0.81847 0.0
Zn169 Zn 0.80045 0.1751 0.83291 0.0
O170 O 0.83327 0.14051 0.83207 0.0
O171 O 0.87008 0.16089 0.81683 0.0
O172 O 0.76393 0.15428 0.84366 0.0
O173 O 0.82277 0.21516 0.79887 0.0
O174 O 0.78417 0.18941 0.80959 0.0
C175 C 0.85899 0.13809 0.8247 0.0
C176 C 0.83256 0.22954 0.84979 0.0
O177 O 0.80943 0.21197 0.84878 0.0
O178 O 0.85369 0.22757 0.83893 0.0
C179 C 0.76689 0.1323 0.85426 0.0
O180 O 0.79426 0.12339 0.85867 0.0
C181 C 0.79555 0.20606 0.79781 0.0
Zn182 Zn 0.46575 0.04655 0.57702 0.0
Zn183 Zn 0.50378 0.00087 0.58396 0.0
O184 O 0.53023 0.03926 0.58701 0.0
O185 O 0.49975 0.07742 0.58005 0.0
O186 O 0.53391 0.96637 0.58757 0.0
O187 O 0.45545 0.03015 0.55427 0.0
O188 O 0.48815 0.99287 0.55927 0.0
C189 C 0.52549 0.06797 0.58496 0.0
C190 C 0.44919 0.01306 0.60712 0.0
O191 O 0.47344 -0.00201 0.6041 0.0
O192 O 0.4406 0.03417 0.59711 0.0
C193 C 0.54765 0.9633 0.6017 0.0
O194 O 0.54094 0.98207 0.61429 0.0
C195 C 0.46907 0.00608 0.54944 0.0
Zn196 Zn 0.66536 0.79943 0.35091 0.0
Zn197 Zn 0.71839 0.81517 0.36512 0.0
O198 O 0.68993 0.85265 0.3686 0.0
O199 O 0.64726 0.84055 0.35555 0.0
O200 O 0.75749 0.83282 0.37398 0.0
O201 O 0.68619 0.79138 0.3285 0.0
O202 O 0.72945 0.80463 0.34045 0.0
C203 C 0.66314 0.8595 0.36388 0.0
C204 C 0.68429 0.75999 0.37898 0.0
O205 O 0.7085 0.77612 0.37908 0.0
O206 O 0.66292 0.76625 0.36877 0.0
C207 C 0.78388 0.82135 0.37237 0.0
O208 O 0.78702 0.79378 0.36568 0.0
C209 C 0.71458 0.79545 0.3275 0.0
Zn210 Zn 0.96792 0.91136 0.05297 0.0
Zn211 Zn 0.95145 0.96694 0.06345 0.0
O212 O 0.91897 0.93707 0.0726 0.0
O213 O 0.9316 0.89095 0.06347 0.0
O214 O 0.93304 0.0078 0.06995 0.0
O215 O 0.96737 0.9238 0.02861 0.0
O216 O 0.95818 0.97109 0.03733 0.0
C217 C 0.91393 0.90818 0.07186 0.0
C218 C 0.00994 0.94051 0.0769 0.0
O219 O 0.99058 0.96231 0.07736 0.0
O220 O 0.00583 0.91753 0.06719 0.0
C221 C 0.92496 0.01239 0.08529 0.0
O222 O 0.93136 0.99139 0.09681 0.0
C223 C 0.96358 0.95206 0.02532 0.0
Zn224 Zn 0.63814 0.75237 0.81426 0.0
Zn225 Zn 0.6914 0.72862 0.82527 0.0
O226 O 0.66213 0.69206 0.82702 0.0
O227 O 0.61892 0.71012 0.81716 0.0
O228 O 0.73098 0.71005 0.83239 0.0
O229 O 0.65726 0.76468 0.79206 0.0
O230 O 0.70046 0.74551 0.80134 0.0
C231 C 0.63434 0.68804 0.82322 0.0
C232 C 0.6628 0.78145 0.84471 0.0
O233 O 0.6839 0.76165 0.84322 0.0
O234 O 0.64115 0.78222 0.8341 0.0
C235 C 0.73298 0.6969 0.8468 0.0
O236 O 0.70912 0.69633 0.85685 0.0
C237 C 0.68518 0.75922 0.78982 0.0
Zn238 Zn 0.57952 0.4892 0.13907 0.0
Zn239 Zn 0.57487 0.50213 0.10545 0.0
O240 O 0.53099 0.49629 0.11303 0.0
O241 O 0.53366 0.48466 0.14025 0.0
O242 O 0.56949 0.51053 0.08059 0.0
O243 O 0.59899 0.53092 0.14228 0.0
O244 O 0.59694 0.54023 0.11472 0.0
C245 C 0.51797 0.48923 0.12696 0.0
C246 C 0.61093 0.44586 0.11727 0.0
O247 O 0.59999 0.46264 0.1055 0.0
O248 O 0.60604 0.45246 0.13276 0.0
C249 C 0.56103 0.48849 0.07103 0.0
O250 O 0.55692 0.46099 0.07768 0.0
C251 C 0.60459 0.54837 0.12971 0.0
Zn252 Zn 0.87171 0.28183 0.30536 0.0
Zn253 Zn 0.81645 0.29104 0.32057 0.0
O254 O 0.84096 0.32888 0.32749 0.0
O255 O 0.88539 0.32338 0.31497 0.0
O256 O 0.77507 0.29999 0.32992 0.0
O257 O 0.85187 0.27941 0.28223 0.0
O258 O 0.80788 0.2844 0.29525 0.0
C259 C 0.86758 0.33877 0.32437 0.0
C260 C 0.85303 0.23547 0.33068 0.0
O261 O 0.82994 0.25252 0.33288 0.0
O262 O 0.87326 0.24243 0.31983 0.0
C263 C 0.77112 0.30865 0.34522 0.0
O264 O 0.79467 0.31075 0.35541 0.0
C265 C 0.82317 0.28032 0.28166 0.0
Zn266 Zn 0.9109 0.48427 0.64441 0.0
Zn267 Zn 0.9204 0.48459 0.61062 0.0
O268 O 0.96223 0.49323 0.62097 0.0
O269 O 0.95519 0.49368 0.6487 0.0
O270 O 0.93005 0.48407 0.58568 0.0
O271 O 0.8971 0.44021 0.64303 0.0
O272 O 0.90154 0.44175 0.6151 0.0
C273 C 0.97267 0.49638 0.63598 0.0
C274 C 0.8765 0.53093 0.6259 0.0
O275 O 0.89084 0.52061 0.61304 0.0
O276 O 0.88054 0.519 0.64048 0.0
C277 C 0.94546 0.50573 0.57899 0.0
O278 O 0.95411 0.52904 0.58851 0.0
C279 C 0.89422 0.42732 0.62865 0.0
Zn280 Zn 0.61817 0.28235 0.67644 0.0
Zn281 Zn 0.67044 0.28613 0.65764 0.0
O282 O 0.64899 0.32714 0.65407 0.0
O283 O 0.60758 0.32647 0.66975 0.0
O284 O 0.70908 0.29325 0.64469 0.0
O285 O 0.64313 0.27414 0.69752 0.0
O286 O 0.68457 0.27599 0.68184 0.0
C287 C 0.62511 0.34036 0.6595 0.0
C288 C 0.62469 0.23705 0.6487 0.0
O289 O 0.64975 0.25053 0.64563 0.0
O290 O 0.60782 0.24602 0.66084 0.0
C291 C 0.73367 0.27847 0.64683 0.0
O292 O 0.73443 0.25554 0.65777 0.0
C293 C 0.67169 0.27197 0.69621 0.0
Zn294 Zn 0.92452 0.4859 0.85358 0.0
Zn295 Zn 0.92369 0.49177 0.88802 0.0
O296 O 0.9685 0.48723 0.88216 0.0
O297 O 0.97059 0.48169 0.85435 0.0
O298 O 0.92486 0.49545 0.91339 0.0
O299 O 0.90458 0.5278 0.85197 0.0
O300 O 0.90227 0.53103 0.87994 0.0
C301 C 0.98389 0.48305 0.86864 0.0
C302 C 0.89066 0.43807 0.87142 0.0
O303 O 0.89954 0.45241 0.88463 0.0
O304 O 0.8977 0.44783 0.8567 0.0
C305 C 0.94038 0.47592 0.92174 0.0
O306 O 0.95472 0.45394 0.91352 0.0
C307 C 0.89659 0.54221 0.86527 0.0
Zn308 Zn 0.86573 0.73637 0.19211 0.0
Zn309 Zn 0.80959 0.72125 0.17977 0.0
O310 O 0.83523 0.68331 0.1749 0.0
O311 O 0.88016 0.69292 0.18593 0.0
O312 O 0.76879 0.70841 0.17111 0.0
O313 O 0.84652 0.74487 0.21509 0.0
O314 O 0.80196 0.7313 0.2048 0.0
C315 C 0.86226 0.67491 0.17814 0.0
C316 C 0.8438 0.77516 0.16422 0.0
O317 O 0.82051 0.75791 0.16494 0.0
O318 O 0.86596 0.77073 0.17424 0.0
C319 C 0.76635 0.69976 0.15571 0.0
O320 O 0.79041 0.70058 0.14581 0.0
C321 C 0.81831 0.74061 0.21714 0.0
Zn322 Zn 0.58613 0.51435 0.35123 0.0
Zn323 Zn 0.56916 0.50156 0.38335 0.0
O324 O 0.52934 0.51096 0.37099 0.0
O325 O 0.54257 0.52418 0.34499 0.0
O326 O 0.55421 0.49301 0.40694 0.0
O327 O 0.60209 0.47089 0.34932 0.0
O328 O 0.59158 0.46206 0.37632 0.0
C329 C 0.52215 0.52014 0.35614 0.0
C330 C 0.61374 0.55401 0.37656 0.0
O331 O 0.59706 0.53872 0.38677 0.0
O332 O 0.61369 0.54775 0.36078 0.0
C333 C 0.53664 0.51241 0.41402 0.0
O334 O 0.52939 0.53776 0.40581 0.0
C335 C 0.60283 0.45324 0.36218 0.0
Zn336 Zn 0.34116 0.30487 0.14542 0.0
Zn337 Zn 0.28682 0.31966 0.13326 0.0
O338 O 0.313 0.35835 0.12822 0.0
O339 O 0.35624 0.34742 0.14102 0.0
O340 O 0.24508 0.33272 0.12575 0.0
O341 O 0.32326 0.29385 0.16822 0.0
O342 O 0.27938 0.31048 0.15853 0.0
C343 C 0.33971 0.36595 0.13279 0.0
C344 C 0.32155 0.26511 0.11838 0.0
O345 O 0.2968 0.28016 0.11966 0.0
O346 O 0.3444 0.27263 0.12722 0.0
C347 C 0.23956 0.34517 0.11143 0.0
O348 O 0.26171 0.34839 0.10035 0.0
C349 C 0.29542 0.29957 0.1706 0.0
Zn350 Zn 0.47865 0.5827 0.92733 0.0
Zn351 Zn 0.46594 0.52723 0.91721 0.0
O352 O 0.42822 0.55464 0.91407 0.0
O353 O 0.43555 0.59752 0.92823 0.0
O354 O 0.44818 0.48583 0.91123 0.0
O355 O 0.50017 0.56755 0.94799 0.0
O356 O 0.48364 0.52116 0.94143 0.0
C357 C 0.41849 0.58066 0.91923 0.0
C358 C 0.5071 0.56466 0.89529 0.0
O359 O 0.49755 0.53761 0.89868 0.0
O360 O 0.50078 0.58706 0.90501 0.0
C361 C 0.43483 0.48319 0.89695 0.0
O362 O 0.43603 0.50633 0.88615 0.0
C363 C 0.4976 0.53925 0.95156 0.0
Zn364 Zn 0.15419 0.69892 0.66417 0.0
Zn365 Zn 0.19955 0.67646 0.6457 0.0
O366 O 0.1674 0.64131 0.64737 0.0
O367 O 0.13234 0.65891 0.66478 0.0
O368 O 0.23411 0.65674 0.63272 0.0
O369 O 0.18304 0.70964 0.68299 0.0
O370 O 0.22023 0.68902 0.66813 0.0
C371 C 0.14278 0.63738 0.65566 0.0
C372 C 0.16449 0.73229 0.63303 0.0
O373 O 0.18737 0.71453 0.63159 0.0
O374 O 0.14607 0.72911 0.64528 0.0
C375 C 0.2298 0.6347 0.62233 0.0
O376 O 0.20195 0.6256 0.61911 0.0
C377 C 0.21075 0.70242 0.68156 0.0
Zn378 Zn 0.01736 0.42415 0.43202 0.0
Zn379 Zn 0.04105 0.47842 0.42359 0.0
O380 O 0.0736 0.44646 0.41731 0.0
O381 O 0.05447 0.40133 0.42424 0.0
O382 O 0.06337 0.51777 0.41784 0.0
O383 O 0.01347 0.43664 0.45618 0.0
O384 O 0.02916 0.48318 0.4492 0.0
C385 C 0.07586 0.41722 0.41802 0.0
C386 C 0.98433 0.45585 0.40544 0.0
O387 O 0.00557 0.47569 0.40658 0.0
O388 O 0.9836 0.43275 0.4153 0.0
C389 C 0.0729 0.52107 0.40265 0.0
O390 O 0.06572 0.50012 0.39125 0.0
C391 C 0.01933 0.46415 0.46033 0.0
Zn392 Zn 0.33613 0.70589 0.33086 0.0
Zn393 Zn 0.28729 0.68789 0.34579 0.0
O394 O 0.3165 0.65023 0.34717 0.0
O395 O 0.35243 0.6632 0.32903 0.0
O396 O 0.24861 0.67146 0.3562 0.0
O397 O 0.31325 0.72394 0.31129 0.0
O398 O 0.27288 0.70095 0.3218 0.0
C399 C 0.34031 0.64346 0.33872 0.0
C400 C 0.32489 0.73951 0.36123 0.0
O401 O 0.29943 0.72562 0.36031 0.0
O402 O 0.34607 0.73266 0.35101 0.0
C403 C 0.2476 0.65847 0.37071 0.0
O404 O 0.27252 0.65667 0.37984 0.0
C405 C 0.28555 0.71667 0.31004 0.0
Zn406 Zn 0.9928 0.57416 0.06973 0.0
Zn407 Zn 0.01883 0.52055 0.07768 0.0
O408 O 0.05241 0.55284 0.08068 0.0
O409 O 0.03217 0.59695 0.07288 0.0
O410 O 0.04229 0.48149 0.08202 0.0
O411 O 0.98086 0.55902 0.04687 0.0
O412 O 0.00141 0.5143 0.05335 0.0
C413 C 0.05468 0.58179 0.07833 0.0
C414 C 0.96799 0.54492 0.09995 0.0
O415 O 0.98789 0.52419 0.09726 0.0
O416 O 0.96535 0.56767 0.08996 0.0
C417 C 0.05588 0.47829 0.09618 0.0
O418 O 0.05213 0.49938 0.10801 0.0
C419 C 0.98729 0.53158 0.04285 0.0
Zn420 Zn 0.15998 0.28768 0.84752 0.0
Zn421 Zn 0.21416 0.30984 0.85774 0.0
O422 O 0.18375 0.34417 0.86445 0.0
O423 O 0.13941 0.32527 0.8566 0.0
O424 O 0.2547 0.32783 0.86416 0.0
O425 O 0.17563 0.28529 0.82325 0.0
O426 O 0.21939 0.30365 0.83217 0.0
C427 C 0.155 0.34655 0.86326 0.0
C428 C 0.19064 0.24793 0.87116 0.0
O429 O 0.21176 0.26797 0.87037 0.0
O430 O 0.16623 0.25155 0.86295 0.0
C431 C 0.26097 0.33782 0.87896 0.0
O432 O 0.24051 0.33559 0.89109 0.0
C433 C 0.20267 0.29354 0.82019 0.0
Zn434 Zn 0.48024 0.4187 0.55895 0.0
Zn435 Zn 0.44682 0.46657 0.56844 0.0
O436 O 0.42211 0.42842 0.57567 0.0
O437 O 0.45051 0.38854 0.56896 0.0
O438 O 0.41876 0.50136 0.57502 0.0
O439 O 0.47695 0.43034 0.53458 0.0
O440 O 0.45475 0.47346 0.54258 0.0
C441 C 0.4266 0.39941 0.57556 0.0
C442 C 0.50907 0.45763 0.58403 0.0
O443 O 0.48358 0.4714 0.58415 0.0
O444 O 0.51399 0.43583 0.57367 0.0
C445 C 0.40551 0.49957 0.58938 0.0
O446 O 0.41195 0.4764 0.59954 0.0
C447 C 0.46583 0.45634 0.53091 0.0
H448 H 0.11116 0.43999 0.39237 0.0
H449 H 0.09565 0.35831 0.42273 0.0
H450 H 0.1414 0.40967 0.37238 0.0
H451 H 0.1262 0.32824 0.40285 0.0
H452 H 0.19041 0.28327 0.36528 0.0
H453 H 0.17845 0.32091 0.38755 0.0
H454 H 0.11716 0.36726 0.35316 0.0
H455 H 0.12863 0.32956 0.33105 0.0
C456 C 0.11513 0.41585 0.39513 0.0
C457 C 0.10068 0.40136 0.40896 0.0
C458 C 0.13231 0.39852 0.38364 0.0
C459 C 0.13577 0.36663 0.38601 0.0
C460 C 0.12395 0.35282 0.40078 0.0
C461 C 0.10636 0.37001 0.4121 0.0
C462 C 0.17479 0.30183 0.36241 0.0
C463 C 0.16017 0.30335 0.34651 0.0
C464 C 0.168 0.32329 0.37513 0.0
C465 C 0.14703 0.34697 0.37201 0.0
C466 C 0.13373 0.34945 0.35581 0.0
C467 C 0.14005 0.32771 0.34323 0.0
H468 H 0.97357 0.97132 0.59204 0.0
H469 H 0.96395 0.97879 0.64671 0.0
H470 H 0.92451 0.94543 0.59046 0.0
H471 H 0.91473 0.95323 0.64499 0.0
H472 H 0.82506 0.90817 0.63806 0.0
H473 H 0.85956 0.95143 0.63221 0.0
H474 H 0.91756 0.89052 0.60335 0.0
H475 H 0.88369 0.84748 0.60964 0.0
C476 C 0.96059 0.96838 0.60366 0.0
C477 C 0.97292 0.97654 0.61957 0.0
C478 C 0.93249 0.95358 0.6027 0.0
C479 C 0.91601 0.94718 0.61759 0.0
C480 C 0.92689 0.95811 0.6333 0.0
C481 C 0.9552 0.97252 0.63429 0.0
C482 C 0.84453 0.90451 0.62986 0.0
C483 C 0.85186 0.87476 0.62419 0.0
C484 C 0.86429 0.92911 0.62663 0.0
C485 C 0.89118 0.92423 0.61737 0.0
C486 C 0.89681 0.89501 0.61034 0.0
C487 C 0.8775 0.87038 0.61392 0.0
H488 H 0.38444 0.55669 0.8933 0.0
H489 H 0.39266 0.63679 0.92573 0.0
H490 H 0.35696 0.58739 0.87243 0.0
H491 H 0.36531 0.66734 0.90482 0.0
H492 H 0.32157 0.71924 0.86235 0.0
H493 H 0.32208 0.68009 0.88482 0.0
H494 H 0.3868 0.62691 0.85577 0.0
H495 H 0.38646 0.66583 0.8335 0.0
C496 C 0.37928 0.58047 0.89635 0.0
C497 C 0.39175 0.59464 0.91087 0.0
C498 C 0.36364 0.59807 0.88433 0.0
C499 C 0.35993 0.62991 0.88678 0.0
C500 C 0.36806 0.64287 0.90252 0.0
C501 C 0.38386 0.62534 0.91451 0.0
C502 C 0.33545 0.69887 0.86064 0.0
C503 C 0.35436 0.69579 0.84629 0.0
C504 C 0.33566 0.67649 0.87348 0.0
C505 C 0.35435 0.65042 0.87202 0.0
C506 C 0.37176 0.6465 0.85716 0.0
C507 C 0.37189 0.669 0.84448 0.0
H508 H 0.50622 0.04137 0.1604 0.0
H509 H 0.52959 0.00753 0.11032 0.0
H510 H 0.55681 0.06196 0.16366 0.0
H511 H 0.58117 0.02694 0.11389 0.0
H512 H 0.64281 0.11517 0.11603 0.0
H513 H 0.60371 0.07583 0.11303 0.0
H514 H 0.60871 0.05741 0.16716 0.0
H515 H 0.64617 0.09845 0.17012 0.0
C516 C 0.52247 0.03755 0.15025 0.0
C517 C 0.5137 0.02327 0.135 0.0
C518 C 0.55177 0.04914 0.15218 0.0
C519 C 0.57328 0.04637 0.13898 0.0
C520 C 0.5651 0.03007 0.12418 0.0
C521 C 0.53556 0.01879 0.12217 0.0
C522 C 0.63621 0.10188 0.12713 0.0
C523 C 0.64711 0.1098 0.1433 0.0
C524 C 0.61378 0.07925 0.12546 0.0
C525 C 0.60234 0.0639 0.13995 0.0
C526 C 0.61615 0.06947 0.15582 0.0
C527 C 0.6379 0.09264 0.15752 0.0
H528 H 0.11608 0.67987 0.158 0.0
H529 H 0.17224 0.72464 0.12021 0.0
H530 H 0.10472 0.63877 0.13784 0.0
H531 H 0.1603 0.68355 0.09984 0.0
H532 H 0.07318 0.63987 0.06998 0.0
H533 H 0.10652 0.67263 0.08689 0.0
H534 H 0.12844 0.59523 0.11918 0.0
H535 H 0.09538 0.56221 0.10215 0.0
C536 C 0.12636 0.68063 0.14546 0.0
C537 C 0.14474 0.70555 0.14059 0.0
C538 C 0.12014 0.65696 0.13399 0.0
C539 C 0.13175 0.65802 0.11732 0.0
C540 C 0.15121 0.68223 0.11265 0.0
C541 C 0.15797 0.70566 0.12428 0.0
C542 C 0.08598 0.62957 0.08029 0.0
C543 C 0.08125 0.59866 0.08495 0.0
C544 C 0.10519 0.64829 0.08991 0.0
C545 C 0.11962 0.63647 0.10445 0.0
C546 C 0.11732 0.60485 0.10808 0.0
C547 C 0.09849 0.58599 0.09829 0.0
H548 H 0.52874 0.99077 0.39616 0.0
H549 H 0.52599 0.97637 0.34168 0.0
H550 H 0.57961 0.96879 0.39708 0.0
H551 H 0.57632 0.95387 0.34268 0.0
H552 H 0.66539 0.91209 0.34542 0.0
H553 H 0.63033 0.95563 0.34805 0.0
H554 H 0.59317 0.91494 0.39386 0.0
H555 H 0.62863 0.87215 0.39128 0.0
C556 C 0.5392 0.98354 0.38432 0.0
C557 C 0.52305 0.98468 0.36889 0.0
C558 C 0.56834 0.97089 0.38488 0.0
C559 C 0.58185 0.95915 0.37002 0.0
C560 C 0.56674 0.96288 0.35437 0.0
C561 C 0.53767 0.97555 0.35381 0.0
C562 C 0.65058 0.91339 0.35642 0.0
C563 C 0.6496 0.88919 0.36823 0.0
C564 C 0.63036 0.93806 0.35786 0.0
C565 C 0.60868 0.93856 0.37103 0.0
C566 C 0.60974 0.91554 0.38367 0.0
C567 C 0.62998 0.89097 0.38222 0.0
H568 H 0.32678 0.25235 0.62865 0.0
H569 H 0.386 0.3002 0.66365 0.0
H570 H 0.33961 0.2897 0.60631 0.0
H571 H 0.39808 0.33783 0.64145 0.0
H572 H 0.38974 0.41475 0.60213 0.0
H573 H 0.36615 0.37926 0.62241 0.0
H574 H 0.39496 0.30201 0.59184 0.0
H575 H 0.41929 0.33735 0.57171 0.0
C576 C 0.34225 0.27101 0.63161 0.0
C577 C 0.35554 0.27334 0.64784 0.0
C578 C 0.34953 0.29228 0.61885 0.0
C579 C 0.36958 0.31662 0.62228 0.0
C580 C 0.38228 0.31939 0.6386 0.0
C581 C 0.37557 0.29776 0.65123 0.0
C582 C 0.39038 0.39026 0.59948 0.0
C583 C 0.40657 0.37877 0.58542 0.0
C584 C 0.37703 0.37002 0.61114 0.0
C585 C 0.37904 0.33805 0.60868 0.0
C586 C 0.3931 0.32662 0.59393 0.0
C587 C 0.40702 0.34682 0.58247 0.0
H588 H 0.00655 0.00705 0.81913 0.0
H589 H 0.98648 0.02313 0.87226 0.0
H590 H 0.95803 0.02983 0.81125 0.0
H591 H 0.93868 0.04726 0.86439 0.0
H592 H 0.8522 0.08987 0.8472 0.0
H593 H 0.88857 0.04819 0.85236 0.0
H594 H 0.94424 0.08225 0.81102 0.0
H595 H 0.90792 0.12266 0.80564 0.0
C596 C 0.99159 0.01515 0.82913 0.0
C597 C 0.00054 0.0139 0.84627 0.0
C598 C 0.96382 0.02827 0.82463 0.0
C599 C 0.94473 0.04104 0.83715 0.0
C600 C 0.95267 0.03755 0.8544 0.0
C601 C 0.98023 0.02391 0.85892 0.0
C602 C 0.87186 0.08784 0.83899 0.0
C603 C 0.87746 0.10981 0.8262 0.0
C604 C 0.89277 0.06413 0.842 0.0
C605 C 0.9195 0.06197 0.83221 0.0
C606 C 0.92383 0.08279 0.8187 0.0
C607 C 0.90307 0.10631 0.81572 0.0
H608 H 0.87795 0.57533 0.60108 0.0
H609 H 0.83093 0.54875 0.64712 0.0
H610 H 0.853 0.62564 0.60194 0.0
H611 H 0.8053 0.59845 0.64764 0.0
H612 H 0.79899 0.7154 0.60775 0.0
H613 H 0.80651 0.65993 0.60216 0.0
H614 H 0.83039 0.64645 0.65505 0.0
H615 H 0.82296 0.70072 0.66044 0.0
C616 C 0.86159 0.57988 0.61108 0.0
C617 C 0.85695 0.55845 0.62428 0.0
C618 C 0.84714 0.60862 0.6115 0.0
C619 C 0.82762 0.6162 0.62504 0.0
C620 C 0.82074 0.59351 0.63725 0.0
C621 C 0.83544 0.56506 0.63696 0.0
C622 C 0.80523 0.70025 0.61814 0.0
C623 C 0.81068 0.71224 0.63447 0.0
C624 C 0.80967 0.66867 0.61496 0.0
C625 C 0.8189 0.64877 0.62819 0.0
C626 C 0.82278 0.66087 0.64462 0.0
C627 C 0.81883 0.69212 0.64769 0.0
H628 H 0.18198 0.13666 0.34051 0.0
H629 H 0.09516 0.1506 0.3161 0.0
H630 H 0.16082 0.09363 0.35662 0.0
H631 H 0.07405 0.1079 0.33233 0.0
H632 H 0.03852 0.03165 0.36294 0.0
H633 H 0.07247 0.05261 0.34105 0.0
H634 H 0.12408 0.09915 0.38014 0.0
H635 H 0.09034 0.07839 0.40177 0.0
C636 C 0.1586 0.13012 0.33826 0.0
C637 C 0.14004 0.14752 0.32731 0.0
C638 C 0.14651 0.10544 0.3475 0.0
C639 C 0.11569 0.09762 0.34591 0.0
C640 C 0.09794 0.11318 0.33377 0.0
C641 C 0.10998 0.13791 0.32458 0.0
C642 C 0.05789 0.04532 0.36684 0.0
C643 C 0.06169 0.05377 0.38398 0.0
C644 C 0.07715 0.0575 0.35432 0.0
C645 C 0.10069 0.07784 0.35885 0.0
C646 C 0.10632 0.08342 0.3762 0.0
C647 C 0.08689 0.07166 0.38862 0.0
H648 H 0.65248 0.41579 0.13678 0.0
H649 H 0.60723 0.41192 0.08802 0.0
H650 H 0.67523 0.36554 0.13134 0.0
H651 H 0.62964 0.36112 0.08275 0.0
H652 H 0.72056 0.27976 0.11773 0.0
H653 H 0.71043 0.33382 0.11089 0.0
H654 H 0.61693 0.31124 0.1003 0.0
H655 H 0.62687 0.25748 0.10745 0.0
C656 C 0.64782 0.40441 0.12478 0.0
C657 C 0.62784 0.41757 0.11292 0.0
C658 C 0.66111 0.37581 0.12158 0.0
C659 C 0.65425 0.35955 0.10659 0.0
C660 C 0.63537 0.3733 0.09435 0.0
C661 C 0.62255 0.40228 0.0974 0.0
C662 C 0.69823 0.28611 0.11317 0.0
C663 C 0.67437 0.26462 0.1133 0.0
C664 C 0.6924 0.31706 0.10938 0.0
C665 C 0.66283 0.32667 0.10531 0.0
C666 C 0.63995 0.30442 0.10334 0.0
C667 C 0.64561 0.27366 0.10745 0.0
H668 H 0.51228 0.95254 0.86938 0.0
H669 H 0.44026 0.92615 0.90372 0.0
H670 H 0.48422 0.92952 0.84555 0.0
H671 H 0.41236 0.90345 0.88019 0.0
H672 H 0.36223 0.86849 0.83649 0.0
H673 H 0.38611 0.90967 0.85275 0.0
H674 H 0.47449 0.87336 0.84002 0.0
H675 H 0.45069 0.83236 0.82353 0.0
C676 C 0.48999 0.94283 0.8717 0.0
C677 C 0.47844 0.94087 0.88835 0.0
C678 C 0.47408 0.92945 0.85813 0.0
C679 C 0.44621 0.91447 0.86102 0.0
C680 C 0.43361 0.91503 0.87747 0.0
C681 C 0.44965 0.92791 0.89099 0.0
C682 C 0.38678 0.86961 0.83684 0.0
C683 C 0.40455 0.84672 0.82901 0.0
C684 C 0.40043 0.89325 0.84616 0.0
C685 C 0.43214 0.89453 0.84785 0.0
C686 C 0.44999 0.87315 0.83887 0.0
C687 C 0.43633 0.84947 0.82952 0.0
H688 H 0.89076 0.39876 0.89859 0.0
H689 H 0.85288 0.41129 0.84831 0.0
H690 H 0.86921 0.34674 0.89973 0.0
H691 H 0.83089 0.35972 0.84965 0.0
H692 H 0.88032 0.24952 0.86839 0.0
H693 H 0.88705 0.30175 0.87923 0.0
H694 H 0.79388 0.3226 0.86682 0.0
H695 H 0.78692 0.26981 0.85638 0.0
C696 C 0.87717 0.39072 0.88799 0.0
C697 C 0.87382 0.40884 0.87325 0.0
C698 C 0.86481 0.36105 0.88869 0.0
C699 C 0.84831 0.34938 0.87483 0.0
C700 C 0.84317 0.36835 0.86061 0.0
C701 C 0.85603 0.39771 0.85976 0.0
C702 C 0.8609 0.26481 0.86878 0.0
C703 C 0.83317 0.25585 0.86154 0.0
C704 C 0.86471 0.29468 0.87499 0.0
C705 C 0.84105 0.31619 0.87366 0.0
C706 C 0.81243 0.30635 0.86794 0.0
C707 C 0.80841 0.27616 0.86209 0.0
H708 H 0.39708 0.1142 0.69375 0.0
H709 H 0.32869 0.11627 0.65443 0.0
H710 H 0.41705 0.06626 0.68204 0.0
H711 H 0.34958 0.07023 0.642 0.0
H712 H 0.39065 -0.00145 0.61464 0.0
H713 H 0.36269 0.02041 0.63854 0.0
H714 H 0.4473 0.05361 0.65977 0.0
H715 H 0.47478 0.02903 0.63684 0.0
C716 C 0.38616 0.10423 0.68269 0.0
C717 C 0.36167 0.11929 0.67483 0.0
C718 C 0.39771 0.0768 0.67587 0.0
C719 C 0.38557 0.06431 0.66075 0.0
C720 C 0.35961 0.07842 0.65372 0.0
C721 C 0.34766 0.1053 0.66078 0.0
C722 C 0.40319 0.00887 0.62505 0.0
C723 C 0.43474 0.01229 0.62395 0.0
C724 C 0.3872 0.02211 0.63858 0.0
C725 C 0.4024 0.04041 0.65073 0.0
C726 C 0.43442 0.04007 0.65075 0.0
C727 C 0.45042 0.02578 0.63756 0.0
H728 H 0.6349 0.73792 0.39537 0.0
H729 H 0.72779 0.71599 0.38297 0.0
H730 H 0.6246 0.68382 0.40099 0.0
H731 H 0.71749 0.6614 0.38851 0.0
H732 H 0.60825 0.5845 0.40697 0.0
H733 H 0.63297 0.63283 0.41509 0.0
H734 H 0.6849 0.63097 0.36841 0.0
H735 H 0.66039 0.58298 0.36033 0.0
C736 C 0.65348 0.72161 0.39464 0.0
C737 C 0.682 0.73094 0.38856 0.0
C738 C 0.64762 0.69058 0.3979 0.0
C739 C 0.6701 0.66829 0.39487 0.0
C740 C 0.69967 0.6781 0.39076 0.0
C741 C 0.70565 0.70934 0.38773 0.0
C742 C 0.62546 0.59408 0.39865 0.0
C743 C 0.63195 0.58029 0.38285 0.0
C744 C 0.63963 0.62169 0.40332 0.0
C745 C 0.66082 0.63573 0.39238 0.0
C746 C 0.66898 0.62058 0.37723 0.0
C747 C 0.65461 0.59325 0.37248 0.0
H748 H 0.15989 0.87106 0.13653 0.0
H749 H 0.07472 0.86012 0.16324 0.0
H750 H 0.13637 0.90878 0.11765 0.0
H751 H 0.05127 0.89747 0.14428 0.0
H752 H 0.01206 0.96503 0.10898 0.0
H753 H 0.04721 0.94993 0.13165 0.0
H754 H 0.09891 0.89666 0.09532 0.0
H755 H 0.06405 0.9117 0.07286 0.0
C756 C 0.13637 0.87723 0.13866 0.0
C757 C 0.11899 0.86207 0.15116 0.0
C758 C 0.12292 0.89883 0.12782 0.0
C759 C 0.09188 0.9058 0.12932 0.0
C760 C 0.07528 0.89279 0.14283 0.0
C761 C 0.08868 0.87111 0.15363 0.0
C762 C 0.03161 0.95106 0.10577 0.0
C763 C 0.03515 0.93916 0.08924 0.0
C764 C 0.05158 0.94224 0.11876 0.0
C765 C 0.07559 0.92179 0.11532 0.0
C766 C 0.0808 0.91258 0.09841 0.0
C767 C 0.06069 0.92104 0.08553 0.0
H768 H 0.6855 0.77328 0.87686 0.0
H769 H 0.64058 0.8395 0.84445 0.0
H770 H 0.6798 0.80848 0.9012 0.0
H771 H 0.63557 0.8746 0.86841 0.0
H772 H 0.63459 0.93915 0.90882 0.0
H773 H 0.66552 0.90622 0.89071 0.0
H774 H 0.62844 0.82562 0.91537 0.0
H775 H 0.59735 0.85837 0.93352 0.0
C776 C 0.67509 0.79561 0.87488 0.0
C777 C 0.66312 0.80364 0.85889 0.0
C778 C 0.67192 0.81567 0.88875 0.0
C779 C 0.65753 0.84431 0.88662 0.0
C780 C 0.64724 0.8529 0.87036 0.0
C781 C 0.64976 0.83268 0.85668 0.0
C782 C 0.63388 0.91446 0.9109 0.0
C783 C 0.61266 0.9013 0.92217 0.0
C784 C 0.65165 0.89564 0.90051 0.0
C785 C 0.64871 0.86346 0.90137 0.0
C786 C 0.63103 0.8504 0.9144 0.0
C787 C 0.61309 0.86922 0.92475 0.0
H788 H 0.47799 0.4925 0.1003 0.0
H789 H 0.48309 0.4722 0.15415 0.0
H790 H 0.42582 0.47368 0.09975 0.0
H791 H 0.43152 0.45282 0.15351 0.0
H792 H 0.3409 0.41711 0.15235 0.0
H793 H 0.37783 0.45897 0.14969 0.0
H794 H 0.40754 0.42129 0.10149 0.0
H795 H 0.36999 0.38033 0.10406 0.0
C796 C 0.46783 0.48458 0.11209 0.0
C797 C 0.4849 0.48328 0.12721 0.0
C798 C 0.43794 0.47375 0.11175 0.0
C799 C 0.42455 0.46143 0.12652 0.0
C800 C 0.44089 0.46244 0.14191 0.0
C801 C 0.47069 0.47328 0.14225 0.0
C802 C 0.35433 0.41889 0.14081 0.0
C803 C 0.35268 0.3959 0.12833 0.0
C804 C 0.3757 0.44256 0.13937 0.0
C805 C 0.39608 0.44312 0.12556 0.0
C806 C 0.39212 0.42178 0.11223 0.0
C807 C 0.3706 0.39828 0.11365 0.0
H808 H 0.93245 0.07138 0.36951 0.0
H809 H 0.89289 0.11221 0.41435 0.0
H810 H 0.90475 0.10702 0.35164 0.0
H811 H 0.86223 0.14604 0.39655 0.0
H812 H 0.85807 0.23414 0.36486 0.0
H813 H 0.87075 0.19026 0.3826 0.0
H814 H 0.86652 0.13081 0.33825 0.0
H815 H 0.85691 0.17587 0.32045 0.0
C816 C 0.91652 0.08709 0.37545 0.0
C817 C 0.9149 0.08943 0.39322 0.0
C818 C 0.90042 0.10764 0.3652 0.0
C819 C 0.88163 0.13037 0.37254 0.0
C820 C 0.87743 0.12998 0.39036 0.0
C821 C 0.89452 0.11023 0.40062 0.0
C822 C 0.85977 0.21155 0.35904 0.0
C823 C 0.85705 0.20817 0.3414 0.0
C824 C 0.86664 0.18613 0.36921 0.0
C825 C 0.86996 0.15652 0.362 0.0
C826 C 0.86517 0.15314 0.34433 0.0
C827 C 0.8594 0.17885 0.33409 0.0
H828 H 0.09769 0.61781 0.67653 0.0
H829 H 0.14727 0.59227 0.63116 0.0
H830 H 0.06265 0.57578 0.67189 0.0
H831 H 0.11211 0.54924 0.62663 0.0
H832 H 0.01156 0.52035 0.61227 0.0
H833 H 0.05913 0.54708 0.61775 0.0
H834 H 0.05352 0.52147 0.67088 0.0
H835 H 0.00535 0.49568 0.66551 0.0
C836 C 0.10147 0.60278 0.66571 0.0
C837 C 0.12498 0.60865 0.65406 0.0
C838 C 0.0815 0.57837 0.66314 0.0
C839 C 0.08449 0.55912 0.64885 0.0
C840 C 0.10906 0.56386 0.63768 0.0
C841 C 0.12926 0.58838 0.64031 0.0
C842 C 0.02081 0.51983 0.62505 0.0
C843 C 0.00436 0.50655 0.63855 0.0
C844 C 0.04824 0.53499 0.62818 0.0
C845 C 0.05984 0.53691 0.64483 0.0
C846 C 0.04479 0.52105 0.65799 0.0
C847 C 0.01723 0.50621 0.65491 0.0
H848 H 0.53111 0.12812 0.57521 0.0
H849 H 0.5703 0.05919 0.60832 0.0
H850 H 0.56123 0.16798 0.58938 0.0
H851 H 0.59972 0.09927 0.6227 0.0
H852 H 0.58845 0.18931 0.65813 0.0
H853 H 0.57132 0.14625 0.64053 0.0
H854 H 0.62144 0.18255 0.59773 0.0
H855 H 0.63947 0.22539 0.6155 0.0
C856 C 0.54669 0.12141 0.58522 0.0
C857 C 0.54822 0.09063 0.59075 0.0
C858 C 0.56393 0.14417 0.59326 0.0
C859 C 0.58248 0.13654 0.60715 0.0
C860 C 0.58547 0.10556 0.61201 0.0
C861 C 0.56874 0.0827 0.60373 0.0
C862 C 0.59602 0.18798 0.64501 0.0
C863 C 0.61517 0.21069 0.63814 0.0
C864 C 0.58643 0.16327 0.63501 0.0
C865 C 0.5953 0.16116 0.61788 0.0
C866 C 0.61451 0.18374 0.61096 0.0
C867 C 0.62475 0.20812 0.6211 0.0
H868 H 0.10812 0.34919 0.88516 0.0
H869 H 0.16502 0.40579 0.85317 0.0
H870 H 0.07333 0.39222 0.88915 0.0
H871 H 0.12955 0.44908 0.85676 0.0
H872 H 0.02474 0.47467 0.84273 0.0
H873 H 0.07418 0.44973 0.84484 0.0
H874 H 0.06607 0.44795 0.89963 0.0
H875 H 0.01674 0.47306 0.89764 0.0
C876 C 0.11361 0.37127 0.87946 0.0
C877 C 0.13912 0.37441 0.86894 0.0
C878 C 0.0938 0.39593 0.88177 0.0
C879 C 0.09876 0.42396 0.87323 0.0
C880 C 0.12532 0.4277 0.8635 0.0
C881 C 0.14562 0.40311 0.86153 0.0
C882 C 0.03388 0.46984 0.85526 0.0
C883 C 0.0165 0.47523 0.86998 0.0
C884 C 0.06233 0.45577 0.85647 0.0
C885 C 0.07374 0.44665 0.8724 0.0
C886 C 0.05764 0.45459 0.8872 0.0
C887 C 0.02937 0.46894 0.88601 0.0
H888 H 0.88831 0.933 0.10039 0.0
H889 H 0.88922 0.85072 0.06937 0.0
H890 H 0.86289 0.90449 0.12314 0.0
H891 H 0.8636 0.82244 0.09205 0.0
H892 H 0.81007 0.7804 0.13516 0.0
H893 H 0.81736 0.81724 0.1119 0.0
H894 H 0.88894 0.86149 0.14038 0.0
H895 H 0.88196 0.82466 0.16352 0.0
C896 C 0.88212 0.90916 0.09817 0.0
C897 C 0.89119 0.89391 0.08321 0.0
C898 C 0.86773 0.89284 0.11124 0.0
C899 C 0.86172 0.86122 0.10941 0.0
C900 C 0.86792 0.84683 0.09377 0.0
C901 C 0.88269 0.863 0.08081 0.0
C902 C 0.82701 0.79833 0.13657 0.0
C903 C 0.8457 0.79947 0.15108 0.0
C904 C 0.83114 0.81935 0.12326 0.0
C905 C 0.85362 0.8422 0.12439 0.0
C906 C 0.87116 0.84435 0.13928 0.0
C907 C 0.86738 0.82307 0.15245 0.0
H908 H 0.47168 0.51059 0.37595 0.0
H909 H 0.50072 0.54953 0.32794 0.0
H910 H 0.42068 0.53073 0.37122 0.0
H911 H 0.45063 0.57072 0.32357 0.0
H912 H 0.36077 0.60472 0.31435 0.0
H913 H 0.39927 0.56495 0.31787 0.0
H914 H 0.39726 0.57944 0.37241 0.0
H915 H 0.3572 0.61763 0.36876 0.0
C916 C 0.46711 0.52318 0.36431 0.0
C917 C 0.49035 0.52871 0.35239 0.0
C918 C 0.4379 0.53486 0.36164 0.0
C919 C 0.43139 0.55257 0.34707 0.0
C920 C 0.45439 0.55675 0.33481 0.0
C921 C 0.48339 0.54481 0.33738 0.0
C922 C 0.3678 0.59839 0.32711 0.0
C923 C 0.35631 0.61417 0.34129 0.0
C924 C 0.39013 0.57592 0.32915 0.0
C925 C 0.40219 0.56961 0.34538 0.0
C926 C 0.38858 0.58351 0.35971 0.0
C927 C 0.3656 0.60546 0.35767 0.0
H928 H 0.39093 0.08784 0.08697 0.0
H929 H 0.34656 0.08584 0.13609 0.0
H930 H 0.36684 0.13733 0.08076 0.0
H931 H 0.32258 0.13508 0.12985 0.0
H932 H 0.27778 0.2209 0.11651 0.0
H933 H 0.2872 0.16617 0.11103 0.0
H934 H 0.3786 0.18789 0.09512 0.0
H935 H 0.36925 0.24221 0.10073 0.0
C936 C 0.37557 0.09762 0.09629 0.0
C937 C 0.37104 0.08321 0.11215 0.0
C938 C 0.36176 0.1259 0.0927 0.0
C939 C 0.34286 0.14005 0.1048 0.0
C940 C 0.33671 0.12457 0.12016 0.0
C941 C 0.35076 0.09652 0.12384 0.0
C942 C 0.29935 0.21407 0.11107 0.0
C943 C 0.32294 0.23559 0.1092 0.0
C944 C 0.30483 0.18276 0.10809 0.0
C945 C 0.33378 0.17276 0.10293 0.0
C946 C 0.35605 0.19485 0.09903 0.0
C947 C 0.35073 0.22599 0.10227 0.0
H948 H 0.55825 0.53656 0.88256 0.0
H949 H 0.49366 0.60918 0.87303 0.0
H950 H 0.59098 0.55707 0.85976 0.0
H951 H 0.52566 0.62958 0.85064 0.0
H952 H 0.58066 0.66596 0.81093 0.0
H953 H 0.54974 0.62511 0.82334 0.0
H954 H 0.62156 0.60458 0.85903 0.0
H955 H 0.65289 0.64459 0.84617 0.0
C956 C 0.55069 0.55625 0.87521 0.0
C957 C 0.52371 0.57153 0.87951 0.0
C958 C 0.5694 0.5681 0.86228 0.0
C959 C 0.56101 0.59504 0.85339 0.0
C960 C 0.53275 0.6086 0.85696 0.0
C961 C 0.51446 0.59708 0.86991 0.0
C962 C 0.59017 0.65211 0.8211 0.0
C963 C 0.61887 0.65897 0.82787 0.0
C964 C 0.57246 0.62872 0.82822 0.0
C965 C 0.58287 0.61212 0.84246 0.0
C966 C 0.61283 0.61685 0.84806 0.0
C967 C 0.63074 0.63999 0.84076 0.0
H968 H 0.20777 0.77468 0.62555 0.0
H969 H 0.11337 0.75252 0.61764 0.0
H970 H 0.19794 0.82801 0.61672 0.0
H971 H 0.10378 0.80532 0.60827 0.0
H972 H 0.13814 0.9142 0.6389 0.0
H973 H 0.1608 0.86302 0.63643 0.0
H974 H 0.11967 0.85172 0.58695 0.0
H975 H 0.09756 0.90337 0.58916 0.0
C976 C 0.18533 0.78084 0.62106 0.0
C977 C 0.16126 0.75974 0.62225 0.0
C978 C 0.1797 0.8113 0.61614 0.0
C979 C 0.15012 0.82063 0.61193 0.0
C980 C 0.12682 0.79858 0.61132 0.0
C981 C 0.13227 0.76843 0.61667 0.0
C982 C 0.13451 0.90108 0.62734 0.0
C983 C 0.11588 0.91257 0.61431 0.0
C984 C 0.14772 0.87197 0.62584 0.0
C985 C 0.14203 0.85363 0.61146 0.0
C986 C 0.12451 0.8656 0.59809 0.0
C987 C 0.11186 0.89505 0.5994 0.0
H988 H 0.92283 0.46123 0.40519 0.0
H989 H 0.00053 0.44686 0.37287 0.0
H990 H 0.88936 0.44397 0.38239 0.0
H991 H 0.9681 0.42656 0.3507 0.0
H992 H 0.851 0.35872 0.3557 0.0
H993 H 0.87568 0.39738 0.37289 0.0
H994 H 0.93317 0.4217 0.33011 0.0
H995 H 0.9099 0.38058 0.31347 0.0
C996 C 0.93257 0.4551 0.39298 0.0
C997 C 0.96407 0.45543 0.39065 0.0
C998 C 0.91353 0.44453 0.37998 0.0
C999 C 0.92582 0.43253 0.36475 0.0
C1000 C 0.95734 0.43558 0.36203 0.0
C1001 C 0.97617 0.44726 0.37479 0.0
C1002 C 0.86864 0.37267 0.34991 0.0
C1003 C 0.87891 0.36632 0.33338 0.0
C1004 C 0.88276 0.39527 0.35975 0.0
C1005 C 0.90703 0.41283 0.35314 0.0
C1006 C 0.91541 0.40813 0.33598 0.0
C1007 C 0.9019 0.38473 0.32632 0.0
H1008 H 0.37568 0.75845 0.37766 0.0
H1009 H 0.28306 0.78436 0.36705 0.0
H1010 H 0.38706 0.81131 0.38611 0.0
H1011 H 0.29467 0.83761 0.37514 0.0
H1012 H 0.39795 0.91021 0.40256 0.0
H1013 H 0.3744 0.85928 0.40539 0.0
H1014 H 0.33201 0.87073 0.35624 0.0
H1015 H 0.35591 0.92119 0.35321 0.0
C1016 C 0.35747 0.77523 0.37782 0.0
C1017 C 0.32857 0.76747 0.37163 0.0
C1018 C 0.36396 0.80546 0.38266 0.0
C1019 C 0.34181 0.82852 0.38105 0.0
C1020 C 0.31212 0.82019 0.37641 0.0
C1021 C 0.30544 0.78972 0.37192 0.0
C1022 C 0.38312 0.90207 0.39252 0.0
C1023 C 0.37902 0.91946 0.37756 0.0
C1024 C 0.36965 0.87301 0.39417 0.0
C1025 C 0.3513 0.86123 0.38109 0.0
C1026 C 0.34572 0.87947 0.36663 0.0
C1027 C 0.35965 0.90819 0.36481 0.0
H1028 H 0.99126 0.5645 0.12948 0.0
H1029 H 0.90854 0.53236 0.10635 0.0
H1030 H 0.96262 0.58779 0.1524 0.0
H1031 H 0.87935 0.55314 0.13016 0.0
H1032 H 0.84051 0.64401 0.15072 0.0
H1033 H 0.86403 0.60175 0.13578 0.0
H1034 H 0.93229 0.59525 0.1753 0.0
H1035 H 0.9097 0.63964 0.18952 0.0
C1036 C 0.96692 0.5609 0.12992 0.0
C1037 C 0.95199 0.54676 0.11627 0.0
C1038 C 0.95029 0.57429 0.14312 0.0
C1039 C 0.9183 0.57335 0.14304 0.0
C1040 C 0.9038 0.55554 0.13038 0.0
C1041 C 0.92046 0.54301 0.11689 0.0
C1042 C 0.86029 0.63325 0.15636 0.0
C1043 C 0.87363 0.64552 0.17109 0.0
C1044 C 0.87375 0.60858 0.14785 0.0
C1045 C 0.90058 0.59495 0.15408 0.0
C1046 C 0.9123 0.60561 0.16973 0.0
C1047 C 0.89926 0.63095 0.17799 0.0
H1048 H 0.16943 0.22459 0.90111 0.0
H1049 H 0.22118 0.20214 0.85627 0.0
H1050 H 0.1618 0.16986 0.90687 0.0
H1051 H 0.2114 0.14802 0.86072 0.0
H1052 H 0.18205 0.05269 0.86435 0.0
H1053 H 0.20935 0.10007 0.8709 0.0
H1054 H 0.12913 0.13518 0.89632 0.0
H1055 H 0.10357 0.08667 0.8912 0.0
C1056 C 0.18007 0.20776 0.89285 0.0
C1057 C 0.19604 0.21729 0.87835 0.0
C1058 C 0.17513 0.17634 0.89586 0.0
C1059 C 0.1848 0.15407 0.88392 0.0
C1060 C 0.2035 0.16389 0.87036 0.0
C1061 C 0.20927 0.19515 0.86774 0.0
C1062 C 0.17073 0.07046 0.87168 0.0
C1063 C 0.14068 0.06638 0.8771 0.0
C1064 C 0.18621 0.0978 0.87534 0.0
C1065 C 0.17147 0.12228 0.8838 0.0
C1066 C 0.14179 0.11717 0.89 0.0
C1067 C 0.1268 0.08936 0.8869 0.0
H1068 H 0.57016 0.46716 0.58288 0.0
H1069 H 0.49516 0.45345 0.6173 0.0
H1070 H 0.60559 0.45295 0.60535 0.0
H1071 H 0.52955 0.43592 0.63914 0.0
H1072 H 0.58753 0.38424 0.6732 0.0
H1073 H 0.56607 0.42874 0.65857 0.0
H1074 H 0.61917 0.40588 0.61381 0.0
H1075 H 0.64206 0.36376 0.62895 0.0
C1076 C 0.56142 0.46193 0.59546 0.0
C1077 C 0.53008 0.46099 0.59839 0.0
C1078 C 0.5816 0.45313 0.60829 0.0
C1079 C 0.57062 0.44144 0.62391 0.0
C1080 C 0.53934 0.4444 0.6274 0.0
C1081 C 0.51934 0.4545 0.6148 0.0
C1082 C 0.59506 0.38945 0.66037 0.0
C1083 C 0.61597 0.37022 0.65208 0.0
C1084 C 0.58261 0.41484 0.65188 0.0
C1085 C 0.58995 0.42081 0.63469 0.0
C1086 C 0.6128 0.40278 0.62701 0.0
C1087 C 0.62587 0.3781 0.63567 0.0
H1088 H 0.31928 0.26534 0.19648 0.0
H1089 H 0.23962 0.31734 0.18218 0.0
H1090 H 0.29518 0.25124 0.22325 0.0
H1091 H 0.21592 0.30423 0.20928 0.0
H1092 H 0.1695 0.24797 0.25054 0.0
H1093 H 0.19398 0.26144 0.22375 0.0
H1094 H 0.27969 0.27143 0.24998 0.0
H1095 H 0.25539 0.25678 0.27664 0.0
C1096 C 0.29675 0.27409 0.19915 0.0
C1097 C 0.28132 0.29241 0.18721 0.0
C1098 C 0.28298 0.26611 0.21455 0.0
C1099 C 0.25358 0.27655 0.21843 0.0
C1100 C 0.23836 0.29531 0.20657 0.0
C1101 C 0.25202 0.30302 0.19109 0.0
C1102 C 0.19359 0.25294 0.25057 0.0
C1103 C 0.21052 0.25129 0.26569 0.0
C1104 C 0.2076 0.2609 0.23523 0.0
C1105 C 0.23879 0.2677 0.23471 0.0
C1106 C 0.25572 0.26591 0.24986 0.0
C1107 C 0.24177 0.25763 0.26517 0.0
H1108 H 0.06705 0.0264 0.5473 0.0
H1109 H 0.01693 0.94065 0.54707 0.0
H1110 H 0.05186 0.03584 0.51801 0.0
H1111 H 0.00134 0.95048 0.51765 0.0
H1112 H 0.00675 0.9726 0.45846 0.0
H1113 H 0.02124 0.95694 0.4874 0.0
H1114 H 0.00202 0.04892 0.50548 0.0
H1115 H 0.98808 0.06455 0.47688 0.0
C1116 C 0.05293 0.00947 0.54097 0.0
C1117 C 0.04289 0.98298 0.54956 0.0
C1118 C 0.0441 0.01496 0.52422 0.0
C1119 C 0.02498 0.99413 0.51569 0.0
C1120 C 0.01607 0.96689 0.52396 0.0
C1121 C 0.02494 0.96136 0.54079 0.0
C1122 C 0.00522 0.98924 0.46871 0.0
C1123 C 0.99678 0.01989 0.46539 0.0
C1124 C 0.01353 0.98031 0.48522 0.0
C1125 C 0.01342 0.00196 0.49855 0.0
C1126 C 0.00316 0.03201 0.49534 0.0
C1127 C 0.99502 0.04089 0.47897 0.0
H1128 H 0.273 0.70389 0.6806 0.0
H1129 H 0.19627 0.71945 0.71383 0.0
H1130 H 0.30729 0.72076 0.70326 0.0
H1131 H 0.23025 0.73518 0.73646 0.0
H1132 H 0.29131 0.79028 0.7689 0.0
H1133 H 0.26209 0.77746 0.74363 0.0
H1134 H 0.32694 0.70631 0.73094 0.0
H1135 H 0.35692 0.72011 0.75598 0.0
C1136 C 0.2635 0.7106 0.69278 0.0
C1137 C 0.23194 0.71055 0.69541 0.0
C1138 C 0.28312 0.72023 0.70575 0.0
C1139 C 0.27149 0.72977 0.72159 0.0
C1140 C 0.23996 0.72886 0.72427 0.0
C1141 C 0.22045 0.71955 0.71133 0.0
C1142 C 0.29956 0.7722 0.76058 0.0
C1143 C 0.32617 0.75595 0.76449 0.0
C1144 C 0.28271 0.76468 0.74616 0.0
C1145 C 0.2918 0.74037 0.73548 0.0
C1146 C 0.31934 0.7252 0.73888 0.0
C1147 C 0.33648 0.73305 0.75324 0.0
H1148 H 0.49032 0.06517 0.05698 0.0
H1149 H 0.44224 0.97892 0.05105 0.0
H1150 H 0.50412 0.064 0.02677 0.0
H1151 H 0.45627 0.97764 0.02116 0.0
H1152 H 0.46202 0.98982 0.96643 0.0
H1153 H 0.44519 0.00521 0.99474 0.0
H1154 H 0.53688 0.03222 0.00734 0.0
H1155 H 0.55345 0.01762 0.97858 0.0
C1156 C 0.48265 0.04602 0.04924 0.0
C1157 C 0.46514 0.02214 0.05639 0.0
C1158 C 0.49062 0.04537 0.03198 0.0
C1159 C 0.48097 0.02096 0.02156 0.0
C1160 C 0.46348 0.99715 0.02876 0.0
C1161 C 0.45566 -0.00228 0.04595 0.0
C1162 C 0.4783 0.00012 0.97508 0.0
C1163 C 0.50894 0.00256 0.97049 0.0
C1164 C 0.46877 0.00862 0.99131 0.0
C1165 C 0.48987 0.01914 0.00338 0.0
C1166 C 0.52012 0.02417 -0.00171 0.0
C1167 C 0.52962 0.01595 0.98186 0.0
H1168 H 0.30244 0.75962 0.28664 0.0
H1169 H 0.22942 0.69718 0.29947 0.0
H1170 H 0.27493 0.77621 0.26149 0.0
H1171 H 0.20219 0.71309 0.27384 0.0
H1172 H 0.15001 0.76777 0.2338 0.0
H1173 H 0.17559 0.75534 0.26049 0.0
H1174 H 0.26195 0.75598 0.23432 0.0
H1175 H 0.23662 0.76933 0.20789 0.0
C1176 C 0.28055 0.74927 0.28403 0.0
C1177 C 0.2682 0.72688 0.29497 0.0
C1178 C 0.26483 0.75872 0.26955 0.0
C1179 C 0.23649 0.74579 0.26555 0.0
C1180 C 0.22384 0.72375 0.27665 0.0
C1181 C 0.23951 0.71448 0.29127 0.0
C1182 C 0.17449 0.76552 0.2338 0.0
C1183 C 0.19129 0.76958 0.21872 0.0
C1184 C 0.18911 0.75816 0.24906 0.0
C1185 C 0.22081 0.75459 0.24954 0.0
C1186 C 0.23757 0.75904 0.23448 0.0
C1187 C 0.22301 0.76657 0.21928 0.0
H1188 H 0.47006 0.93725 0.44406 0.0
H1189 H 0.43225 0.02918 0.44473 0.0
H1190 H 0.47383 0.93815 0.47512 0.0
H1191 H 0.43657 0.03026 0.47556 0.0
H1192 H 0.41884 0.01511 0.5303 0.0
H1193 H 0.41289 0.00583 0.49997 0.0
H1194 H 0.50201 0.96445 0.49823 0.0
H1195 H 0.50766 0.97311 0.52892 0.0
C1196 C 0.46263 0.95766 0.45081 0.0
C1197 C 0.4507 0.9831 0.44195 0.0
C1198 C 0.46491 0.95818 0.46859 0.0
C1199 C 0.45521 0.98412 0.4778 0.0
C1200 C 0.44362 0.00964 0.46887 0.0
C1201 C 0.44134 0.00912 0.45117 0.0
C1202 C 0.43699 0.00358 0.52351 0.0
C1203 C 0.46389 0.9952 0.53189 0.0
C1204 C 0.43366 -0.00155 0.50612 0.0
C1205 C 0.45727 0.98511 0.49664 0.0
C1206 C 0.48342 0.97481 0.50521 0.0
C1207 C 0.48667 0.97974 0.52275 0.0
H1208 H 0.17888 0.26005 0.79393 0.0
H1209 H 0.25662 0.31529 0.80794 0.0
H1210 H 0.20395 0.24567 0.76748 0.0
H1211 H 0.28126 0.30179 0.7812 0.0
H1212 H 0.33176 0.23806 0.74471 0.0
H1213 H 0.30478 0.25692 0.76963 0.0
H1214 H 0.22199 0.26212 0.74026 0.0
H1215 H 0.24881 0.24221 0.71544 0.0
C1216 C 0.20106 0.26966 0.79119 0.0
C1217 C 0.21589 0.28857 0.8031 0.0
C1218 C 0.21541 0.26148 0.77599 0.0
C1219 C 0.24479 0.27227 0.7723 0.0
C1220 C 0.25893 0.29248 0.78383 0.0
C1221 C 0.2447 0.30042 0.7991 0.0
C1222 C 0.3078 0.24321 0.74356 0.0
C1223 C 0.29242 0.23853 0.72811 0.0
C1224 C 0.29236 0.2543 0.75782 0.0
C1225 C 0.26123 0.26125 0.75693 0.0
C1226 C 0.24587 0.25668 0.74144 0.0
C1227 C 0.26128 0.24534 0.72721 0.0
H1228 H 0.05142 0.95233 0.92988 0.0
H1229 H 0.00698 0.04105 0.92744 0.0
H1230 H 0.02771 0.94251 0.95729 0.0
H1231 H 0.98276 0.03089 0.95494 0.0
H1232 H 0.97854 0.01013 0.01423 0.0
H1233 H 0.99603 0.02428 0.98564 0.0
H1234 H 0.97677 0.93194 0.9681 0.0
H1235 H 0.96 0.91771 -0.00346 0.0
C1236 C 0.03652 0.96973 0.93517 0.0
C1237 C 0.031 -0.00258 0.92645 0.0
C1238 C 0.02273 0.964 0.95084 0.0
C1239 C 0.00304 0.98577 0.95816 0.0
C1240 C 0.99787 0.01372 0.94961 0.0
C1241 C 0.01167 0.01947 0.93386 0.0
C1242 C 0.97748 0.9931 0.00415 0.0
C1243 C 0.9684 0.96269 0.00766 0.0
C1244 C 0.98749 0.00119 0.98781 0.0
C1245 C 0.98839 0.979 0.97475 0.0
C1246 C 0.97712 0.94929 0.97802 0.0
C1247 C 0.96735 0.94121 0.99429 0.0
H1248 H 0.72651 0.80371 0.6852 0.0
H1249 H 0.8122 0.81685 0.711 0.0
H1250 H 0.70199 0.79364 0.71237 0.0
H1251 H 0.7874 0.80768 0.73829 0.0
H1252 H 0.74258 0.74596 0.77878 0.0
H1253 H 0.76684 0.76305 0.75253 0.0
H1254 H 0.6862 0.81436 0.73921 0.0
H1255 H 0.66162 0.79652 0.76516 0.0
C1256 C 0.74 0.80515 0.69671 0.0
C1257 C 0.77137 0.81075 0.69592 0.0
C1258 C 0.7259 0.79945 0.71231 0.0
C1259 C 0.74283 0.79948 0.72749 0.0
C1260 C 0.77387 0.80682 0.72679 0.0
C1261 C 0.78802 0.81234 0.71116 0.0
C1262 C 0.73005 0.76089 0.77025 0.0
C1263 C 0.70012 0.76969 0.77399 0.0
C1264 C 0.74404 0.77093 0.75527 0.0
C1265 C 0.72847 0.79015 0.74379 0.0
C1266 C 0.69867 0.79925 0.74767 0.0
C1267 C 0.68462 0.78905 0.76257 0.0
H1268 H 0.77106 0.19797 0.18576 0.0
H1269 H 0.69451 0.25565 0.19875 0.0
H1270 H 0.79775 0.21611 0.21108 0.0
H1271 H 0.72147 0.2745 0.22361 0.0
H1272 H 0.76251 0.27147 0.27689 0.0
H1273 H 0.73686 0.25632 0.25085 0.0
H1274 H 0.82199 0.26053 0.22353 0.0
H1275 H 0.84794 0.27475 0.24981 0.0
C1276 C 0.76004 0.21466 0.19395 0.0
C1277 C 0.73059 0.22516 0.19034 0.0
C1278 C 0.7754 0.22524 0.20838 0.0
C1279 C 0.7617 0.24671 0.2194 0.0
C1280 C 0.73246 0.25755 0.21558 0.0
C1281 C 0.71704 0.2468 0.20127 0.0
C1282 C 0.77576 0.26946 0.26531 0.0
C1283 C 0.80729 0.27422 0.26544 0.0
C1284 C 0.76101 0.26087 0.25034 0.0
C1285 C 0.77738 0.25711 0.2351 0.0
C1286 C 0.80881 0.26271 0.23512 0.0
C1287 C 0.82363 0.27111 0.25014 0.0
H1288 H 0.81178 0.2456 0.77241 0.0
H1289 H 0.73765 0.18813 0.78967 0.0
H1290 H 0.78167 0.26218 0.74822 0.0
H1291 H 0.70769 0.2042 0.76506 0.0
H1292 H 0.65227 0.26515 0.72909 0.0
H1293 H 0.68203 0.24926 0.75371 0.0
H1294 H 0.76182 0.24236 0.72188 0.0
H1295 H 0.73232 0.25902 0.69736 0.0
C1296 C 0.78911 0.2363 0.77098 0.0
C1297 C 0.77712 0.21548 0.78297 0.0
C1298 C 0.7719 0.24571 0.75704 0.0
C1299 C 0.74233 0.23443 0.75468 0.0
C1300 C 0.73029 0.21359 0.76665 0.0
C1301 C 0.7475 0.20423 0.78068 0.0
C1302 C 0.6762 0.26039 0.72735 0.0
C1303 C 0.68994 0.26341 0.71127 0.0
C1304 C 0.69319 0.25104 0.74144 0.0
C1305 C 0.72425 0.24444 0.73974 0.0
C1306 C 0.73801 0.24765 0.72367 0.0
C1307 C 0.72107 0.25711 0.70959 0.0
H1308 H 0.68979 0.78966 0.29589 0.0
H1309 H 0.77518 0.78536 0.3228 0.0
H1310 H 0.71549 0.77658 0.26946 0.0
H1311 H 0.80081 0.77085 0.29648 0.0
H1312 H 0.84154 0.77529 0.24303 0.0
H1313 H 0.8168 0.78939 0.26964 0.0
H1314 H 0.73867 0.73466 0.25557 0.0
H1315 H 0.7629 0.72179 0.22864 0.0
C1316 C 0.71407 0.78574 0.29616 0.0
C1317 C 0.73048 0.78852 0.31141 0.0
C1318 C 0.72879 0.77798 0.28103 0.0
C1319 C 0.76022 0.77236 0.28083 0.0
C1320 C 0.77666 0.7754 0.2961 0.0
C1321 C 0.76197 0.7836 0.31121 0.0
C1322 C 0.81912 0.76619 0.24567 0.0
C1323 C 0.80409 0.74755 0.23372 0.0
C1324 C 0.80498 0.77416 0.26097 0.0
C1325 C 0.77565 0.76331 0.26475 0.0
C1326 C 0.76097 0.74403 0.25293 0.0
C1327 C 0.77494 0.73643 0.23754 0.0
H1328 H 0.557 0.54387 0.05485 0.0
H1329 H 0.54982 0.44574 0.04622 0.0
H1330 H 0.54362 0.55346 0.02535 0.0
H1331 H 0.53747 0.45531 0.01637 0.0
H1332 H 0.4798 0.4891 0.97031 0.0
H1333 H 0.49722 0.47501 -0.00115 0.0
H1334 H 0.56257 0.54939 -0.00271 0.0
H1335 H 0.54427 0.56411 0.96928 0.0
C1336 C 0.55297 0.52431 0.04658 0.0
C1337 C 0.55444 0.49406 0.05286 0.0
C1338 C 0.54547 0.52978 0.0296 0.0
C1339 C 0.53964 0.50513 0.01843 0.0
C1340 C 0.54149 0.47481 0.02467 0.0
C1341 C 0.54872 0.46934 0.04175 0.0
C1342 C 0.49808 0.50215 0.97606 0.0
C1343 C 0.51037 0.52795 0.96774 0.0
C1344 C 0.50817 0.49405 0.99236 0.0
C1345 C 0.53098 0.5114 0.00048 0.0
C1346 C 0.54438 0.53608 0.99164 0.0
C1347 C 0.53401 0.54441 0.97554 0.0
H1348 H 0.01622 0.42697 0.48791 0.0
H1349 H 0.00827 0.52244 0.47281 0.0
H1350 H 0.99901 0.43991 0.51635 0.0
H1351 H 0.99035 0.53544 0.50159 0.0
H1352 H 0.98456 0.54379 0.56168 0.0
H1353 H 0.00473 0.53644 0.53289 0.0
H1354 H 0.9489 0.45523 0.52713 0.0
H1355 H 0.92921 0.46217 0.55578 0.0
C1356 C 0.01094 0.45083 0.49071 0.0
C1357 C 0.01316 0.47364 0.47806 0.0
C1358 C 0.0009 0.45819 0.50699 0.0
C1359 C 0.99261 0.48853 0.51106 0.0
C1360 C 0.99648 0.51182 0.49875 0.0
C1361 C 0.00675 0.50441 0.48233 0.0
C1362 C 0.97644 0.52452 0.55419 0.0
C1363 C 0.95557 0.50332 0.56108 0.0
C1364 C 0.98792 0.52041 0.53771 0.0
C1365 C 0.97876 0.495 0.5279 0.0
C1366 C 0.95692 0.47465 0.53455 0.0
C1367 C 0.94551 0.47871 0.55095 0.0
H1368 H 0.99118 0.47264 0.03002 0.0
H1369 H 0.96401 0.56543 0.01689 0.0
H1370 H 0.97673 0.45535 0.00144 0.0
H1371 H 0.95067 0.54855 0.98856 0.0
H1372 H 0.90534 0.50965 0.94337 0.0
H1373 H 0.91398 0.51919 0.97352 0.0
H1374 H 0.99312 0.46039 0.97208 0.0
H1375 H 0.98369 0.44987 0.94202 0.0
C1376 C 0.98219 0.4893 0.02107 0.0
C1377 C 0.97865 0.52036 0.02575 0.0
C1378 C 0.97401 0.47945 0.0047 0.0
C1379 C 0.96227 0.50052 0.99277 0.0
C1380 C 0.95889 0.53152 -0.00247 0.0
C1381 C 0.96682 0.54126 0.0138 0.0
C1382 C 0.92438 0.49851 0.94954 0.0
C1383 C 0.94406 0.47935 0.94031 0.0
C1384 C 0.92943 0.50405 0.9668 0.0
C1385 C 0.95456 0.49096 0.97514 0.0
C1386 C 0.97345 0.47067 0.96608 0.0
C1387 C 0.96816 0.46479 0.94883 0.0
H1388 H 0.54881 0.46343 0.4346 0.0
H1389 H 0.49532 0.54681 0.43189 0.0
H1390 H 0.52701 0.45191 0.46228 0.0
H1391 H 0.47291 0.53482 0.45964 0.0
H1392 H 0.47223 0.51552 0.51913 0.0
H1393 H 0.48676 0.53075 0.49016 0.0
H1394 H 0.47855 0.43598 0.47383 0.0
H1395 H 0.46506 0.42082 0.50267 0.0
C1396 C 0.53228 0.47925 0.43988 0.0
C1397 C 0.52372 0.50596 0.43102 0.0
C1398 C 0.51958 0.47253 0.45571 0.0
C1399 C 0.49789 0.49224 0.46304 0.0
C1400 C 0.4896 0.51924 0.45432 0.0
C1401 C 0.50239 0.52602 0.43843 0.0
C1402 C 0.47291 0.49817 0.50922 0.0
C1403 C 0.46803 0.46697 0.51313 0.0
C1404 C 0.48123 0.50684 0.49266 0.0
C1405 C 0.48451 0.48441 0.47984 0.0
C1406 C 0.47712 0.45364 0.48355 0.0
C1407 C 0.46918 0.44499 0.50003 0.0
H1408 H 0.25091 0.16832 0.37273 0.0
H1409 H 0.30049 0.20888 0.3308 0.0
H1410 H 0.29503 0.13744 0.38008 0.0
H1411 H 0.34507 0.17874 0.33852 0.0
H1412 H 0.38947 0.08201 0.33839 0.0
H1413 H 0.35509 0.12506 0.33504 0.0
H1414 H 0.34677 0.13254 0.38976 0.0
H1415 H 0.38082 0.08851 0.39314 0.0
C1416 C 0.2715 0.17125 0.36535 0.0
C1417 C 0.27205 0.19056 0.35098 0.0
C1418 C 0.29692 0.15368 0.36964 0.0
C1419 C 0.32348 0.15527 0.35973 0.0
C1420 C 0.32474 0.17646 0.34618 0.0
C1421 C 0.29923 0.19381 0.34179 0.0
C1422 C 0.38071 0.09304 0.34976 0.0
C1423 C 0.38754 0.0815 0.36603 0.0
C1424 C 0.36116 0.11802 0.34783 0.0
C1425 C 0.348 0.1322 0.36213 0.0
C1426 C 0.3562 0.12182 0.37848 0.0
C1427 C 0.37582 0.09671 0.38041 0.0
H1428 H 0.11973 0.07986 0.59976 0.0
H1429 H 0.10703 0.07402 0.65429 0.0
H1430 H 0.15717 0.12071 0.60388 0.0
H1431 H 0.14476 0.11394 0.65839 0.0
H1432 H 0.25499 0.14655 0.62262 0.0
H1433 H 0.20852 0.12006 0.61457 0.0
H1434 H 0.16044 0.1664 0.65516 0.0
H1435 H 0.20724 0.19218 0.66356 0.0
C1436 C 0.12452 0.08761 0.61259 0.0
C1437 C 0.11072 0.07336 0.62671 0.0
C1438 C 0.1461 0.11089 0.61496 0.0
C1439 C 0.15423 0.12037 0.63147 0.0
C1440 C 0.13889 0.10749 0.64548 0.0
C1441 C 0.11737 0.08433 0.64313 0.0
C1442 C 0.2344 0.15151 0.62964 0.0
C1443 C 0.23491 0.17098 0.64393 0.0
C1444 C 0.20764 0.13648 0.62494 0.0
C1445 C 0.18081 0.1408 0.63436 0.0
C1446 C 0.18087 0.16208 0.64787 0.0
C1447 C 0.20767 0.17692 0.65265 0.0
H1448 H 0.2467 0.83056 0.81879 0.0
H1449 H 0.2455 0.79101 0.86935 0.0
H1450 H 0.20057 0.85846 0.82504 0.0
H1451 H 0.19831 0.81856 0.87552 0.0
H1452 H 0.14592 0.91257 0.88441 0.0
H1453 H 0.18302 0.87138 0.8805 0.0
H1454 H 0.14761 0.85445 0.83 0.0
H1455 H 0.11172 0.89658 0.83368 0.0
C1456 C 0.23632 0.82744 0.83119 0.0
C1457 C 0.24993 0.80873 0.84361 0.0
C1458 C 0.20957 0.84323 0.83473 0.0
C1459 C 0.19552 0.84059 0.85076 0.0
C1460 C 0.20867 0.82123 0.86309 0.0
C1461 C 0.23564 0.80542 0.85954 0.0
C1462 C 0.14558 0.8994 0.87269 0.0
C1463 C 0.12646 0.90801 0.85922 0.0
C1464 C 0.16679 0.87576 0.87044 0.0
C1465 C 0.1688 0.86016 0.85475 0.0
C1466 C 0.1473 0.86667 0.84203 0.0
C1467 C 0.12659 0.89062 0.84416 0.0
H1468 H 0.24145 0.84517 0.11235 0.0
H1469 H 0.28311 0.7991 0.15517 0.0
H1470 H 0.28842 0.87313 0.10708 0.0
H1471 H 0.33048 0.82629 0.14956 0.0
H1472 H 0.37777 0.91808 0.09841 0.0
H1473 H 0.34168 0.87527 0.09952 0.0
H1474 H 0.34301 0.87908 0.15455 0.0
H1475 H 0.3793 0.92092 0.15345 0.0
C1476 C 0.2609 0.84038 0.12035 0.0
C1477 C 0.2584 0.82046 0.13439 0.0
C1478 C 0.28795 0.85626 0.11726 0.0
C1479 C 0.3131 0.8523 0.12807 0.0
C1480 C 0.31131 0.83038 0.14123 0.0
C1481 C 0.28419 0.81475 0.14442 0.0
C1482 C 0.37088 0.90922 0.11073 0.0
C1483 C 0.38104 0.9232 0.12584 0.0
C1484 C 0.35008 0.88484 0.11136 0.0
C1485 C 0.3392 0.87394 0.12711 0.0
C1486 C 0.35107 0.88659 0.14218 0.0
C1487 C 0.37174 0.91087 0.14155 0.0
H1488 H 0.71831 0.86865 0.589 0.0
H1489 H 0.68416 0.83155 0.63641 0.0
H1490 H 0.67086 0.89666 0.58499 0.0
H1491 H 0.63666 0.85931 0.63227 0.0
H1492 H 0.57913 0.94874 0.63057 0.0
H1493 H 0.62231 0.91408 0.63332 0.0
H1494 H 0.61572 0.8914 0.57988 0.0
H1495 H 0.57258 0.92637 0.57706 0.0
C1496 C 0.70053 0.86607 0.59843 0.0
C1497 C 0.70518 0.84804 0.61309 0.0
C1498 C 0.67327 0.88204 0.59609 0.0
C1499 C 0.65008 0.88044 0.60839 0.0
C1500 C 0.65426 0.8614 0.62269 0.0
C1501 C 0.68145 0.84533 0.625 0.0
C1502 C 0.58669 0.9362 0.61943 0.0
C1503 C 0.57245 0.94045 0.60359 0.0
C1504 C 0.61136 0.91616 0.62103 0.0
C1505 C 0.62248 0.89998 0.60682 0.0
C1506 C 0.60787 0.90375 0.59104 0.0
C1507 C 0.58305 0.92367 0.58945 0.0
H1508 H 0.91242 0.96791 0.36144 0.0
H1509 H 0.94689 0.91995 0.40568 0.0
H1510 H 0.87368 0.9283 0.35792 0.0
H1511 H 0.90812 0.87995 0.40186 0.0
H1512 H 0.84383 0.80409 0.3745 0.0
H1513 H 0.88808 0.8382 0.37759 0.0
H1514 H 0.82856 0.91698 0.38009 0.0
H1515 H 0.78463 0.88338 0.3774 0.0
C1516 C 0.91218 0.94862 0.37021 0.0
C1517 C 0.93255 0.94727 0.38396 0.0
C1518 C 0.88991 0.92602 0.3682 0.0
C1519 C 0.88783 0.90135 0.37972 0.0
C1520 C 0.90935 0.89879 0.39282 0.0
C1521 C 0.93142 0.92171 0.395 0.0
C1522 C 0.84024 0.82866 0.3759 0.0
C1523 C 0.81072 0.84101 0.37567 0.0
C1524 C 0.86551 0.84808 0.37766 0.0
C1525 C 0.86159 0.88014 0.37885 0.0
C1526 C 0.83213 0.89235 0.37897 0.0
C1527 C 0.80699 0.87302 0.37754 0.0
H1528 H 0.80896 0.15184 0.13272 0.0
H1529 H 0.76562 0.12483 0.08566 0.0
H1530 H 0.8535 0.1215 0.1251 0.0
H1531 H 0.80996 0.09413 0.07819 0.0
H1532 H 0.90169 0.05624 0.06382 0.0
H1533 H 0.86377 0.09542 0.0705 0.0
H1534 H 0.86429 0.06648 0.12317 0.0
H1535 H 0.90244 0.02773 0.11658 0.0
C1536 C 0.80901 0.13966 0.12068 0.0
C1537 C 0.78359 0.14057 0.10986 0.0
C1538 C 0.8345 0.12215 0.11636 0.0
C1539 C 0.83522 0.10521 0.1011 0.0
C1540 C 0.8103 0.10714 0.08996 0.0
C1541 C 0.78477 0.1246 0.0943 0.0
C1542 C 0.89406 0.05855 0.07687 0.0
C1543 C 0.90495 0.03868 0.08965 0.0
C1544 C 0.87218 0.08088 0.08067 0.0
C1545 C 0.86082 0.08393 0.09733 0.0
C1546 C 0.87274 0.06498 0.11023 0.0
C1547 C 0.89453 0.04261 0.10643 0.0
H1548 H 0.63378 0.99145 0.87398 0.0
H1549 H 0.59923 0.06843 0.90305 0.0
H1550 H 0.67571 0.0232 0.86393 0.0
H1551 H 0.64137 0.10042 0.8927 0.0
H1552 H 0.70731 0.15061 0.85336 0.0
H1553 H 0.66285 0.1218 0.86342 0.0
H1554 H 0.72121 0.04766 0.87981 0.0
H1555 H 0.76553 0.07636 0.87004 0.0
C1556 C 0.6349 0.01526 0.87808 0.0
C1557 C 0.61319 0.02739 0.88938 0.0
C1558 C 0.65905 0.03336 0.87239 0.0
C1559 C 0.66188 0.06414 0.87765 0.0
C1560 C 0.63964 0.07674 0.88844 0.0
C1561 C 0.61562 0.05843 0.89438 0.0
C1562 C 0.71062 0.12822 0.85919 0.0
C1563 C 0.73993 0.11572 0.86086 0.0
C1564 C 0.68522 0.11185 0.865 0.0
C1565 C 0.68864 0.08247 0.87228 0.0
C1566 C 0.71793 0.07015 0.87409 0.0
C1567 C 0.7433 0.08667 0.86857 0.0
H1568 H 0.78782 0.69802 0.83056 0.0
H1569 H 0.7412 0.65756 0.87357 0.0
H1570 H 0.83202 0.66606 0.83646 0.0
H1571 H 0.78496 0.62492 0.87915 0.0
H1572 H 0.87286 0.57805 0.89079 0.0
H1573 H 0.83727 0.6208 0.88778 0.0
H1574 H 0.84244 0.61235 0.83299 0.0
H1575 H 0.87846 0.57049 0.83596 0.0
C1576 C 0.78708 0.68244 0.84134 0.0
C1577 C 0.76088 0.68002 0.85147 0.0
C1578 C 0.81237 0.66405 0.84469 0.0
C1579 C 0.81193 0.64267 0.85816 0.0
C1580 C 0.78623 0.64135 0.86878 0.0
C1581 C 0.76102 0.65992 0.8655 0.0
C1582 C 0.86679 0.5857 0.87811 0.0
C1583 C 0.87827 0.57063 0.86362 0.0
C1584 C 0.84626 0.61008 0.87639 0.0
C1585 C 0.83679 0.61984 0.86015 0.0
C1586 C 0.84947 0.60573 0.84569 0.0
C1587 C 0.87001 0.58149 0.8474 0.0
H1588 H 0.71114 0.69944 0.17155 0.0
H1589 H 0.75744 0.66706 0.12643 0.0
H1590 H 0.66661 0.66924 0.16379 0.0
H1591 H 0.71338 0.6361 0.11897 0.0
H1592 H 0.62641 0.58887 0.10574 0.0
H1593 H 0.66082 0.6322 0.1105 0.0
H1594 H 0.65752 0.61494 0.16472 0.0
H1595 H 0.62277 0.57254 0.16005 0.0
C1596 C 0.7117 0.68612 0.15988 0.0
C1597 C 0.73797 0.68522 0.14975 0.0
C1598 C 0.68622 0.66874 0.15547 0.0
C1599 C 0.68658 0.64987 0.14091 0.0
C1600 C 0.71219 0.65055 0.1302 0.0
C1601 C 0.73758 0.66814 0.13455 0.0
C1602 C 0.63262 0.59473 0.11869 0.0
C1603 C 0.62213 0.57701 0.1325 0.0
C1604 C 0.65245 0.61945 0.1214 0.0
C1605 C 0.6621 0.62693 0.13798 0.0
C1606 C 0.6503 0.61016 0.1518 0.0
C1607 C 0.63053 0.58557 0.1491 0.0
H1608 H 0.75767 0.34279 0.37348 0.0
H1609 H 0.71688 0.30163 0.32891 0.0
H1610 H 0.71081 0.37065 0.37914 0.0
H1611 H 0.66967 0.32877 0.33487 0.0
H1612 H 0.62269 0.42475 0.3334 0.0
H1613 H 0.65837 0.38249 0.33138 0.0
H1614 H 0.65707 0.37239 0.38616 0.0
H1615 H 0.62155 0.41553 0.38823 0.0
C1616 C 0.73843 0.33903 0.36516 0.0
C1617 C 0.74117 0.32056 0.35054 0.0
C1618 C 0.71145 0.35485 0.36847 0.0
C1619 C 0.68663 0.35231 0.3573 0.0
C1620 C 0.6886 0.33174 0.34351 0.0
C1621 C 0.71563 0.31614 0.34012 0.0
C1622 C 0.62953 0.41321 0.34502 0.0
C1623 C 0.61967 0.42384 0.36099 0.0
C1624 C 0.64984 0.38871 0.34385 0.0
C1625 C 0.6608 0.37417 0.35863 0.0
C1626 C 0.64936 0.38341 0.37456 0.0
C1627 C 0.62888 0.40798 0.37573 0.0
H1628 H 0.86833 0.39919 0.60093 0.0
H1629 H 0.88621 0.38656 0.6546 0.0
H1630 H 0.83478 0.35424 0.60135 0.0
H1631 H 0.85259 0.34233 0.65509 0.0
H1632 H 0.79231 0.26259 0.65448 0.0
H1633 H 0.83817 0.29058 0.64628 0.0
H1634 H 0.7845 0.35043 0.61423 0.0
H1635 H 0.73902 0.32226 0.62212 0.0
C1636 C 0.86571 0.3864 0.6127 0.0
C1637 C 0.8794 0.39677 0.62781 0.0
C1638 C 0.84642 0.36075 0.61296 0.0
C1639 C 0.84069 0.34495 0.62829 0.0
C1640 C 0.85659 0.35376 0.64302 0.0
C1641 C 0.87568 0.37939 0.64278 0.0
C1642 C 0.79045 0.28118 0.64532 0.0
C1643 C 0.76197 0.29066 0.63924 0.0
C1644 C 0.81671 0.29727 0.64067 0.0
C1645 C 0.81493 0.32302 0.62981 0.0
C1646 C 0.78678 0.33062 0.62254 0.0
C1647 C 0.76059 0.31463 0.62721 0.0
H1648 H 0.0761 0.43648 0.07259 0.0
H1649 H 0.08747 0.46432 0.12506 0.0
H1650 H 0.11769 0.39973 0.07574 0.0
H1651 H 0.12913 0.42795 0.12811 0.0
H1652 H 0.19015 0.34551 0.13254 0.0
H1653 H 0.14254 0.37312 0.12858 0.0
H1654 H 0.17316 0.4044 0.07922 0.0
H1655 H 0.22066 0.37645 0.08304 0.0
C1656 C 0.0872 0.43451 0.08485 0.0
C1657 C 0.07858 0.45348 0.09855 0.0
C1658 C 0.11115 0.41359 0.08661 0.0
C1659 C 0.12682 0.41104 0.10214 0.0
C1660 C 0.11734 0.4291 0.11602 0.0
C1661 C 0.09354 0.45011 0.11425 0.0
C1662 C 0.18662 0.35794 0.12074 0.0
C1663 C 0.20937 0.35901 0.10817 0.0
C1664 C 0.15936 0.37389 0.11852 0.0
C1665 C 0.15417 0.39118 0.10366 0.0
C1666 C 0.17634 0.39109 0.09076 0.0
C1667 C 0.20366 0.3752 0.09299 0.0
H1668 H 0.42021 0.43556 0.91844 0.0
H1669 H 0.40257 0.4714 0.86802 0.0
H1670 H 0.38132 0.39618 0.91416 0.0
H1671 H 0.36352 0.43249 0.8639 0.0
H1672 H 0.30744 0.34712 0.85642 0.0
H1673 H 0.3532 0.37774 0.8606 0.0
H1674 H 0.32582 0.39663 0.91241 0.0
H1675 H 0.28028 0.36556 0.90835 0.0
C1676 C 0.40835 0.4348 0.90636 0.0
C1677 C 0.41436 0.45677 0.89361 0.0
C1678 C 0.38591 0.41238 0.90397 0.0
C1679 C 0.36914 0.41134 0.88875 0.0
C1680 C 0.37618 0.43242 0.87572 0.0
C1681 C 0.39851 0.45487 0.87812 0.0
C1682 C 0.31131 0.35753 0.86877 0.0
C1683 C 0.29004 0.35411 0.88201 0.0
C1684 C 0.3375 0.37519 0.87113 0.0
C1685 C 0.34308 0.38982 0.88679 0.0
C1686 C 0.32239 0.38542 0.90024 0.0
C1687 C 0.29616 0.36776 0.89787 0.0
H1688 H 0.36126 0.49135 0.6131 0.0
H1689 H 0.39439 0.55687 0.57597 0.0
H1690 H 0.31901 0.52562 0.61972 0.0
H1691 H 0.35215 0.59155 0.58297 0.0
H1692 H 0.28935 0.65264 0.62062 0.0
H1693 H 0.3329 0.6213 0.61177 0.0
H1694 H 0.27273 0.54552 0.60051 0.0
H1695 H 0.22922 0.57678 0.60898 0.0
C1696 C 0.3597 0.5132 0.60647 0.0
C1697 C 0.38111 0.52141 0.59399 0.0
C1698 C 0.33542 0.53269 0.6102 0.0
C1699 C 0.33234 0.56104 0.60177 0.0
C1700 C 0.35414 0.56976 0.58962 0.0
C1701 C 0.37818 0.54993 0.58562 0.0
C1702 C 0.28542 0.62943 0.61605 0.0
C1703 C 0.25588 0.61712 0.61555 0.0
C1704 C 0.31029 0.6116 0.61095 0.0
C1705 C 0.30605 0.58103 0.6056 0.0
C1706 C 0.27652 0.569 0.60471 0.0
C1707 C 0.25165 0.58696 0.60948 0.0
H1708 H 0.09981 0.56291 0.42408 0.0
H1709 H 0.0957 0.5351 0.37127 0.0
H1710 H 0.13964 0.60006 0.41704 0.0
H1711 H 0.13562 0.57178 0.36433 0.0
H1712 H 0.19306 0.65555 0.35414 0.0
H1713 H 0.14805 0.62646 0.3624 0.0
H1714 H 0.1932 0.59695 0.40842 0.0
H1715 H 0.2381 0.62641 0.40031 0.0
C1716 C 0.10715 0.56494 0.41095 0.0
C1717 C 0.09466 0.54592 0.39825 0.0
C1718 C 0.13011 0.58608 0.40695 0.0
C1719 C 0.14092 0.58879 0.39015 0.0
C1720 C 0.12762 0.57055 0.37737 0.0
C1721 C 0.10481 0.54936 0.38137 0.0
C1722 C 0.19331 0.64314 0.36611 0.0
C1723 C 0.21932 0.64312 0.37649 0.0
C1724 C 0.16753 0.62634 0.37081 0.0
C1725 C 0.16709 0.60919 0.38601 0.0
C1726 C 0.19267 0.61013 0.39671 0.0
C1727 C 0.2185 0.62689 0.392 0.0
loop_
_geom_bond_atom_site_label_1
_geom_bond_atom_site_label_2
_geom_bond_distance
_geom_bond_site_symmetry_2
_ccdc_geom_bond_type
Zn0 O3 2.031 . S
Zn0 O5 2.049 . S
Zn0 O10 2.067 . S
Zn1 O2 1.962 . S
Zn1 O4 1.986 . S
Zn1 O6 1.996 . S
Zn1 O9 1.943 . S
O2 Zn1 1.962 . S
O2 C7 1.254 . S
O3 Zn0 2.031 . S
O3 C7 1.269 . S
O4 Zn1 1.986 . S
O4 C11 1.262 . S
O5 Zn0 2.049 . S
O5 C13 1.260 . S
O6 Zn1 1.996 . S
O6 C13 1.257 . S
C7 O2 1.254 . S
C7 O3 1.269 . S
C8 O9 1.249 . S
C8 O10 1.270 . S
O9 Zn1 1.943 . S
O9 C8 1.249 . S
O10 Zn0 2.067 . S
O10 C8 1.270 . S
C11 O4 1.262 . S
C11 O12 1.232 . S
O12 C11 1.232 . S
C13 O5 1.260 . S
C13 O6 1.257 . S
Zn14 O17 2.031 . S
Zn14 O19 2.031 1_565 S
Zn14 O24 2.067 . S
Zn15 O16 1.962 . S
Zn15 O18 1.986 . S
Zn15 O20 1.984 1_565 S
Zn15 O23 1.943 . S
O16 Zn15 1.962 . S
O16 C21 1.254 . S
O17 Zn14 2.031 . S
O17 C21 1.269 . S
O18 Zn15 1.986 . S
O18 C25 1.262 . S
O19 Zn14 2.031 1_545 S
O19 C27 1.270 . S
O20 Zn15 1.984 1_545 S
O20 C27 1.264 . S
C21 O16 1.254 . S
C21 O17 1.269 . S
C22 O23 1.249 . S
C22 O24 1.270 . S
O23 Zn15 1.943 . S
O23 C22 1.249 . S
O24 Zn14 2.067 . S
O24 C22 1.270 . S
C25 O18 1.262 . S
C25 O26 1.232 . S
O26 C25 1.232 . S
C27 O19 1.270 . S
C27 O20 1.264 . S
Zn28 O31 2.031 . S
Zn28 O33 2.049 . S
Zn28 O38 2.067 . S
Zn29 O30 1.962 . S
Zn29 O32 1.986 . S
Zn29 O34 1.996 . S
Zn29 O37 1.943 . S
O30 Zn29 1.962 . S
O30 C35 1.254 . S
O31 Zn28 2.031 . S
O31 C35 1.269 . S
O32 Zn29 1.986 . S
O32 C39 1.262 . S
O33 Zn28 2.049 . S
O33 C41 1.260 . S
O34 Zn29 1.996 . S
O34 C41 1.257 . S
C35 O30 1.254 . S
C35 O31 1.269 . S
C36 O37 1.249 . S
C36 O38 1.270 . S
O37 Zn29 1.943 . S
O37 C36 1.249 . S
O38 Zn28 2.067 . S
O38 C36 1.270 . S
C39 O32 1.262 . S
C39 O40 1.232 . S
O40 C39 1.232 . S
C41 O33 1.260 . S
C41 O34 1.257 . S
Zn42 O45 2.031 . S
Zn42 O47 2.031 1_545 S
Zn42 O52 2.067 . S
Zn43 O44 1.962 . S
Zn43 O46 1.986 . S
Zn43 O48 1.984 1_545 S
Zn43 O51 1.943 . S
O44 Zn43 1.962 . S
O44 C49 1.254 . S
O45 Zn42 2.031 . S
O45 C49 1.269 . S
O46 Zn43 1.986 . S
O46 C53 1.262 . S
O47 Zn42 2.031 1_565 S
O47 C55 1.270 . S
O48 Zn43 1.984 1_565 S
O48 C55 1.264 . S
C49 O44 1.254 . S
C49 O45 1.269 . S
C50 O51 1.249 . S
C50 O52 1.270 . S
O51 Zn43 1.943 . S
O51 C50 1.249 . S
O52 Zn42 2.067 . S
O52 C50 1.270 . S
C53 O46 1.262 . S
C53 O54 1.232 . S
O54 C53 1.232 . S
C55 O47 1.270 . S
C55 O48 1.264 . S
Zn56 O59 2.031 . S
Zn56 O61 2.049 . S
Zn56 O66 2.067 . S
Zn57 O58 1.962 . S
Zn57 O60 1.986 . S
Zn57 O62 1.996 . S
Zn57 O65 1.943 . S
O58 Zn57 1.962 . S
O58 C63 1.254 . S
O59 Zn56 2.031 . S
O59 C63 1.269 . S
O60 Zn57 1.986 . S
O60 C67 1.262 . S
O61 Zn56 2.049 . S
O61 C69 1.260 . S
O62 Zn57 1.996 . S
O62 C69 1.257 . S
C63 O58 1.254 . S
C63 O59 1.269 . S
C64 O65 1.249 . S
C64 O66 1.270 . S
O65 Zn57 1.943 . S
O65 C64 1.249 . S
O66 Zn56 2.067 . S
O66 C64 1.270 . S
C67 O60 1.262 . S
C67 O68 1.232 . S
O68 C67 1.232 . S
C69 O61 1.260 . S
C69 O62 1.257 . S
Zn70 O73 2.031 . S
Zn70 O75 2.031 1_565 S
Zn70 O80 2.067 . S
Zn71 O72 1.962 . S
Zn71 O74 1.986 . S
Zn71 O76 1.984 1_565 S
Zn71 O79 1.943 . S
O72 Zn71 1.962 . S
O72 C77 1.254 . S
O73 Zn70 2.031 . S
O73 C77 1.269 . S
O74 Zn71 1.986 . S
O74 C81 1.262 . S
O75 Zn70 2.031 1_545 S
O75 C83 1.270 . S
O76 Zn71 1.984 1_545 S
O76 C83 1.264 . S
C77 O72 1.254 . S
C77 O73 1.269 . S
C78 O79 1.249 . S
C78 O80 1.270 . S
O79 Zn71 1.943 . S
O79 C78 1.249 . S
O80 Zn70 2.067 . S
O80 C78 1.270 . S
C81 O74 1.262 . S
C81 O82 1.232 . S
O82 C81 1.232 . S
C83 O75 1.270 . S
C83 O76 1.264 . S
Zn84 O87 2.031 . S
Zn84 O89 2.049 . S
Zn84 O94 2.067 . S
Zn85 O86 1.962 . S
Zn85 O88 1.986 . S
Zn85 O90 1.996 . S
Zn85 O93 1.943 . S
O86 Zn85 1.962 . S
O86 C91 1.254 . S
O87 Zn84 2.031 . S
O87 C91 1.269 . S
O88 Zn85 1.986 . S
O88 C95 1.262 . S
O89 Zn84 2.049 . S
O89 C97 1.260 . S
O90 Zn85 1.996 . S
O90 C97 1.257 . S
C91 O86 1.254 . S
C91 O87 1.269 . S
C92 O93 1.249 . S
C92 O94 1.270 . S
O93 Zn85 1.943 . S
O93 C92 1.249 . S
O94 Zn84 2.067 . S
O94 C92 1.270 . S
C95 O88 1.262 . S
C95 O96 1.232 . S
O96 C95 1.232 . S
C97 O89 1.260 . S
C97 O90 1.257 . S
Zn98 O101 2.031 . S
Zn98 O103 2.031 1_545 S
Zn98 O108 2.067 . S
Zn99 O100 1.962 . S
Zn99 O102 1.986 . S
Zn99 O104 1.984 1_545 S
Zn99 O107 1.943 . S
O100 Zn99 1.962 . S
O100 C105 1.254 . S
O101 Zn98 2.031 . S
O101 C105 1.269 . S
O102 Zn99 1.986 . S
O102 C109 1.262 . S
O103 Zn98 2.031 1_565 S
O103 C111 1.270 . S
O104 Zn99 1.984 1_565 S
O104 C111 1.264 . S
C105 O100 1.254 . S
C105 O101 1.269 . S
C106 O107 1.249 . S
C106 O108 1.270 . S
O107 Zn99 1.943 . S
O107 C106 1.249 . S
O108 Zn98 2.067 . S
O108 C106 1.270 . S
C109 O102 1.262 . S
C109 O110 1.232 . S
O110 C109 1.232 . S
C111 O103 1.270 . S
C111 O104 1.264 . S
Zn112 O115 2.031 . S
Zn112 O117 2.049 . S
Zn112 O122 2.067 . S
Zn113 O114 1.962 . S
Zn113 O116 1.986 . S
Zn113 O118 1.996 . S
Zn113 O121 1.943 . S
O114 Zn113 1.962 . S
O114 C119 1.254 . S
O115 Zn112 2.031 . S
O115 C119 1.269 . S
O116 Zn113 1.986 . S
O116 C123 1.262 . S
O117 Zn112 2.049 . S
O117 C125 1.260 . S
O118 Zn113 1.996 . S
O118 C125 1.257 . S
C119 O114 1.254 . S
C119 O115 1.269 . S
C120 O121 1.249 . S
C120 O122 1.270 . S
O121 Zn113 1.943 . S
O121 C120 1.249 . S
O122 Zn112 2.067 . S
O122 C120 1.270 . S
C123 O116 1.262 . S
C123 O124 1.232 . S
O124 C123 1.232 . S
C125 O117 1.260 . S
C125 O118 1.257 . S
Zn126 O129 2.031 . S
Zn126 O131 2.049 . S
Zn126 O136 2.067 1_655 S
Zn127 O128 1.962 . S
Zn127 O130 1.986 1_545 S
Zn127 O132 1.996 . S
Zn127 O135 1.943 . S
O128 Zn127 1.962 . S
O128 C133 1.254 . S
O129 Zn126 2.031 . S
O129 C133 1.269 . S
O130 Zn127 1.986 1_565 S
O130 C137 1.262 . S
O131 Zn126 2.049 . S
O131 C139 1.260 . S
O132 Zn127 1.996 . S
O132 C139 1.257 . S
C133 O128 1.254 . S
C133 O129 1.269 . S
C134 O135 1.249 . S
C134 O136 1.270 1_655 S
O135 Zn127 1.943 . S
O135 C134 1.249 . S
O136 Zn126 2.067 1_455 S
O136 C134 1.270 1_455 S
C137 O130 1.262 . S
C137 O138 1.232 1_565 S
O138 C137 1.232 1_545 S
C139 O131 1.260 . S
C139 O132 1.257 . S
Zn140 O143 2.031 . S
Zn140 O145 2.049 . S
Zn140 O150 2.067 . S
Zn141 O142 1.962 . S
Zn141 O144 1.986 . S
Zn141 O146 1.996 . S
Zn141 O149 1.943 . S
O142 Zn141 1.962 . S
O142 C147 1.254 . S
O143 Zn140 2.031 . S
O143 C147 1.269 . S
O144 Zn141 1.986 . S
O144 C151 1.262 . S
O145 Zn140 2.049 . S
O145 C153 1.260 . S
O146 Zn141 1.996 . S
O146 C153 1.257 . S
C147 O142 1.254 . S
C147 O143 1.269 . S
C148 O149 1.249 . S
C148 O150 1.270 . S
O149 Zn141 1.943 . S
O149 C148 1.249 . S
O150 Zn140 2.067 . S
O150 C148 1.270 . S
C151 O144 1.262 . S
C151 O152 1.232 . S
O152 C151 1.232 . S
C153 O145 1.260 . S
C153 O146 1.257 . S
Zn154 O157 2.031 . S
Zn154 O159 2.049 . S
Zn154 O164 2.067 . S
Zn155 O156 1.962 . S
Zn155 O158 1.986 1_565 S
Zn155 O160 1.996 . S
Zn155 O163 1.943 . S
O156 Zn155 1.962 . S
O156 C161 1.254 . S
O157 Zn154 2.031 . S
O157 C161 1.269 . S
O158 Zn155 1.986 1_545 S
O158 C165 1.262 . S
O159 Zn154 2.049 . S
O159 C167 1.260 . S
O160 Zn155 1.996 . S
O160 C167 1.257 . S
C161 O156 1.254 . S
C161 O157 1.269 . S
C162 O163 1.249 . S
C162 O164 1.270 . S
O163 Zn155 1.943 . S
O163 C162 1.249 . S
O164 Zn154 2.067 . S
O164 C162 1.270 . S
C165 O158 1.262 . S
C165 O166 1.232 1_545 S
O166 C165 1.232 1_565 S
C167 O159 1.260 . S
C167 O160 1.257 . S
Zn168 O171 2.031 . S
Zn168 O173 2.049 . S
Zn168 O178 2.067 . S
Zn169 O170 1.962 . S
Zn169 O172 1.986 . S
Zn169 O174 1.996 . S
Zn169 O177 1.943 . S
O170 Zn169 1.962 . S
O170 C175 1.254 . S
O171 Zn168 2.031 . S
O171 C175 1.269 . S
O172 Zn169 1.986 . S
O172 C179 1.262 . S
O173 Zn168 2.049 . S
O173 C181 1.260 . S
O174 Zn169 1.996 . S
O174 C181 1.257 . S
C175 O170 1.254 . S
C175 O171 1.269 . S
C176 O177 1.249 . S
C176 O178 1.270 . S
O177 Zn169 1.943 . S
O177 C176 1.249 . S
O178 Zn168 2.067 . S
O178 C176 1.270 . S
C179 O172 1.262 . S
C179 O180 1.232 . S
O180 C179 1.232 . S
C181 O173 1.260 . S
C181 O174 1.257 . S
Zn182 O185 2.031 . S
Zn182 O187 2.049 . S
Zn182 O192 2.067 . S
Zn183 O184 1.962 . S
Zn183 O186 1.986 1_545 S
Zn183 O188 1.996 . S
Zn183 O191 1.943 . S
O184 Zn183 1.962 . S
O184 C189 1.254 . S
O185 Zn182 2.031 . S
O185 C189 1.269 . S
O186 Zn183 1.986 1_565 S
O186 C193 1.262 . S
O187 Zn182 2.049 . S
O187 C195 1.260 . S
O188 Zn183 1.996 . S
O188 C195 1.257 . S
C189 O184 1.254 . S
C189 O185 1.269 . S
C190 O191 1.249 . S
C190 O192 1.270 . S
O191 Zn183 1.943 . S
O191 C190 1.249 . S
O192 Zn182 2.067 . S
O192 C190 1.270 . S
C193 O186 1.262 . S
C193 O194 1.232 1_565 S
O194 C193 1.232 1_545 S
C195 O187 1.260 . S
C195 O188 1.257 . S
Zn196 O199 2.031 . S
Zn196 O201 2.049 . S
Zn196 O206 2.067 . S
Zn197 O198 1.962 . S
Zn197 O200 1.986 . S
Zn197 O202 1.996 . S
Zn197 O205 1.943 . S
O198 Zn197 1.962 . S
O198 C203 1.254 . S
O199 Zn196 2.031 . S
O199 C203 1.269 . S
O200 Zn197 1.986 . S
O200 C207 1.262 . S
O201 Zn196 2.049 . S
O201 C209 1.260 . S
O202 Zn197 1.996 . S
O202 C209 1.257 . S
C203 O198 1.254 . S
C203 O199 1.269 . S
C204 O205 1.249 . S
C204 O206 1.270 . S
O205 Zn197 1.943 . S
O205 C204 1.249 . S
O206 Zn196 2.067 . S
O206 C204 1.270 . S
C207 O200 1.262 . S
C207 O208 1.232 . S
O208 C207 1.232 . S
C209 O201 1.260 . S
C209 O202 1.257 . S
Zn210 O213 2.031 . S
Zn210 O215 2.049 . S
Zn210 O220 2.067 1_655 S
Zn211 O212 1.962 . S
Zn211 O214 1.986 1_565 S
Zn211 O216 1.996 . S
Zn211 O219 1.943 . S
O212 Zn211 1.962 . S
O212 C217 1.254 . S
O213 Zn210 2.031 . S
O213 C217 1.269 . S
O214 Zn211 1.986 1_545 S
O214 C221 1.262 . S
O215 Zn210 2.049 . S
O215 C223 1.260 . S
O216 Zn211 1.996 . S
O216 C223 1.257 . S
C217 O212 1.254 . S
C217 O213 1.269 . S
C218 O219 1.249 . S
C218 O220 1.270 1_655 S
O219 Zn211 1.943 . S
O219 C218 1.249 . S
O220 Zn210 2.067 1_455 S
O220 C218 1.270 1_455 S
C221 O214 1.262 . S
C221 O222 1.232 1_545 S
O222 C221 1.232 1_565 S
C223 O215 1.260 . S
C223 O216 1.257 . S
Zn224 O227 2.031 . S
Zn224 O229 2.049 . S
Zn224 O234 2.067 . S
Zn225 O226 1.962 . S
Zn225 O228 1.986 . S
Zn225 O230 1.996 . S
Zn225 O233 1.943 . S
O226 Zn225 1.962 . S
O226 C231 1.254 . S
O227 Zn224 2.031 . S
O227 C231 1.269 . S
O228 Zn225 1.986 . S
O228 C235 1.262 . S
O229 Zn224 2.049 . S
O229 C237 1.260 . S
O230 Zn225 1.996 . S
O230 C237 1.257 . S
C231 O226 1.254 . S
C231 O227 1.269 . S
C232 O233 1.249 . S
C232 O234 1.270 . S
O233 Zn225 1.943 . S
O233 C232 1.249 . S
O234 Zn224 2.067 . S
O234 C232 1.270 . S
C235 O228 1.262 . S
C235 O236 1.232 . S
O236 C235 1.232 . S
C237 O229 1.260 . S
C237 O230 1.257 . S
Zn238 O241 2.031 . S
Zn238 O243 2.049 . S
Zn238 O248 2.067 . S
Zn239 O240 1.962 . S
Zn239 O242 1.986 . S
Zn239 O244 1.996 . S
Zn239 O247 1.943 . S
O240 Zn239 1.962 . S
O240 C245 1.254 . S
O241 Zn238 2.031 . S
O241 C245 1.269 . S
O242 Zn239 1.986 . S
O242 C249 1.262 . S
O243 Zn238 2.049 . S
O243 C251 1.260 . S
O244 Zn239 1.996 . S
O244 C251 1.257 . S
C245 O240 1.254 . S
C245 O241 1.269 . S
C246 O247 1.249 . S
C246 O248 1.270 . S
O247 Zn239 1.943 . S
O247 C246 1.249 . S
O248 Zn238 2.067 . S
O248 C246 1.270 . S
C249 O242 1.262 . S
C249 O250 1.232 . S
O250 C249 1.232 . S
C251 O243 1.260 . S
C251 O244 1.257 . S
Zn252 O255 2.031 . S
Zn252 O257 2.049 . S
Zn252 O262 2.067 . S
Zn253 O254 1.962 . S
Zn253 O256 1.986 . S
Zn253 O258 1.996 . S
Zn253 O261 1.943 . S
O254 Zn253 1.962 . S
O254 C259 1.254 . S
O255 Zn252 2.031 . S
O255 C259 1.269 . S
O256 Zn253 1.986 . S
O256 C263 1.262 . S
O257 Zn252 2.049 . S
O257 C265 1.260 . S
O258 Zn253 1.996 . S
O258 C265 1.257 . S
C259 O254 1.254 . S
C259 O255 1.269 . S
C260 O261 1.249 . S
C260 O262 1.270 . S
O261 Zn253 1.943 . S
O261 C260 1.249 . S
O262 Zn252 2.067 . S
O262 C260 1.270 . S
C263 O256 1.262 . S
C263 O264 1.232 . S
O264 C263 1.232 . S
C265 O257 1.260 . S
C265 O258 1.257 . S
Zn266 O269 2.031 . S
Zn266 O271 2.049 . S
Zn266 O276 2.067 . S
Zn267 O268 1.962 . S
Zn267 O270 1.986 . S
Zn267 O272 1.996 . S
Zn267 O275 1.943 . S
O268 Zn267 1.962 . S
O268 C273 1.254 . S
O269 Zn266 2.031 . S
O269 C273 1.269 . S
O270 Zn267 1.986 . S
O270 C277 1.262 . S
O271 Zn266 2.049 . S
O271 C279 1.260 . S
O272 Zn267 1.996 . S
O272 C279 1.257 . S
C273 O268 1.254 . S
C273 O269 1.269 . S
C274 O275 1.249 . S
C274 O276 1.270 . S
O275 Zn267 1.943 . S
O275 C274 1.249 . S
O276 Zn266 2.067 . S
O276 C274 1.270 . S
C277 O270 1.262 . S
C277 O278 1.232 . S
O278 C277 1.232 . S
C279 O271 1.260 . S
C279 O272 1.257 . S
Zn280 O283 2.031 . S
Zn280 O285 2.049 . S
Zn280 O290 2.067 . S
Zn281 O282 1.962 . S
Zn281 O284 1.986 . S
Zn281 O286 1.996 . S
Zn281 O289 1.943 . S
O282 Zn281 1.962 . S
O282 C287 1.254 . S
O283 Zn280 2.031 . S
O283 C287 1.269 . S
O284 Zn281 1.986 . S
O284 C291 1.262 . S
O285 Zn280 2.049 . S
O285 C293 1.260 . S
O286 Zn281 1.996 . S
O286 C293 1.257 . S
C287 O282 1.254 . S
C287 O283 1.269 . S
C288 O289 1.249 . S
C288 O290 1.270 . S
O289 Zn281 1.943 . S
O289 C288 1.249 . S
O290 Zn280 2.067 . S
O290 C288 1.270 . S
C291 O284 1.262 . S
C291 O292 1.232 . S
O292 C291 1.232 . S
C293 O285 1.260 . S
C293 O286 1.257 . S
Zn294 O297 2.031 . S
Zn294 O299 2.049 . S
Zn294 O304 2.067 . S
Zn295 O296 1.962 . S
Zn295 O298 1.986 . S
Zn295 O300 1.996 . S
Zn295 O303 1.943 . S
O296 Zn295 1.962 . S
O296 C301 1.254 . S
O297 Zn294 2.031 . S
O297 C301 1.269 . S
O298 Zn295 1.986 . S
O298 C305 1.262 . S
O299 Zn294 2.049 . S
O299 C307 1.260 . S
O300 Zn295 1.996 . S
O300 C307 1.257 . S
C301 O296 1.254 . S
C301 O297 1.269 . S
C302 O303 1.249 . S
C302 O304 1.270 . S
O303 Zn295 1.943 . S
O303 C302 1.249 . S
O304 Zn294 2.067 . S
O304 C302 1.270 . S
C305 O298 1.262 . S
C305 O306 1.232 . S
O306 C305 1.232 . S
C307 O299 1.260 . S
C307 O300 1.257 . S
Zn308 O311 2.031 . S
Zn308 O313 2.049 . S
Zn308 O318 2.067 . S
Zn309 O310 1.962 . S
Zn309 O312 1.986 . S
Zn309 O314 1.996 . S
Zn309 O317 1.943 . S
O310 Zn309 1.962 . S
O310 C315 1.254 . S
O311 Zn308 2.031 . S
O311 C315 1.269 . S
O312 Zn309 1.986 . S
O312 C319 1.262 . S
O313 Zn308 2.049 . S
O313 C321 1.260 . S
O314 Zn309 1.996 . S
O314 C321 1.257 . S
C315 O310 1.254 . S
C315 O311 1.269 . S
C316 O317 1.249 . S
C316 O318 1.270 . S
O317 Zn309 1.943 . S
O317 C316 1.249 . S
O318 Zn308 2.067 . S
O318 C316 1.270 . S
C319 O312 1.262 . S
C319 O320 1.232 . S
O320 C319 1.232 . S
C321 O313 1.260 . S
C321 O314 1.257 . S
Zn322 O325 2.031 . S
Zn322 O327 2.049 . S
Zn322 O332 2.067 . S
Zn323 O324 1.962 . S
Zn323 O326 1.986 . S
Zn323 O328 1.996 . S
Zn323 O331 1.943 . S
O324 Zn323 1.962 . S
O324 C329 1.254 . S
O325 Zn322 2.031 . S
O325 C329 1.269 . S
O326 Zn323 1.986 . S
O326 C333 1.262 . S
O327 Zn322 2.049 . S
O327 C335 1.260 . S
O328 Zn323 1.996 . S
O328 C335 1.257 . S
C329 O324 1.254 . S
C329 O325 1.269 . S
C330 O331 1.249 . S
C330 O332 1.270 . S
O331 Zn323 1.943 . S
O331 C330 1.249 . S
O332 Zn322 2.067 . S
O332 C330 1.270 . S
C333 O326 1.262 . S
C333 O334 1.232 . S
O334 C333 1.232 . S
C335 O327 1.260 . S
C335 O328 1.257 . S
Zn336 O339 2.031 . S
Zn336 O341 2.049 . S
Zn336 O346 2.067 . S
Zn337 O338 1.962 . S
Zn337 O340 1.986 . S
Zn337 O342 1.996 . S
Zn337 O345 1.943 . S
O338 Zn337 1.962 . S
O338 C343 1.254 . S
O339 Zn336 2.031 . S
O339 C343 1.269 . S
O340 Zn337 1.986 . S
O340 C347 1.262 . S
O341 Zn336 2.049 . S
O341 C349 1.260 . S
O342 Zn337 1.996 . S
O342 C349 1.257 . S
C343 O338 1.254 . S
C343 O339 1.269 . S
C344 O345 1.249 . S
C344 O346 1.270 . S
O345 Zn337 1.943 . S
O345 C344 1.249 . S
O346 Zn336 2.067 . S
O346 C344 1.270 . S
C347 O340 1.262 . S
C347 O348 1.232 . S
O348 C347 1.232 . S
C349 O341 1.260 . S
C349 O342 1.257 . S
Zn350 O353 2.031 . S
Zn350 O355 2.049 . S
Zn350 O360 2.067 . S
Zn351 O352 1.962 . S
Zn351 O354 1.986 . S
Zn351 O356 1.996 . S
Zn351 O359 1.943 . S
O352 Zn351 1.962 . S
O352 C357 1.254 . S
O353 Zn350 2.031 . S
O353 C357 1.269 . S
O354 Zn351 1.986 . S
O354 C361 1.262 . S
O355 Zn350 2.049 . S
O355 C363 1.260 . S
O356 Zn351 1.996 . S
O356 C363 1.257 . S
C357 O352 1.254 . S
C357 O353 1.269 . S
C358 O359 1.249 . S
C358 O360 1.270 . S
O359 Zn351 1.943 . S
O359 C358 1.249 . S
O360 Zn350 2.067 . S
O360 C358 1.270 . S
C361 O354 1.262 . S
C361 O362 1.232 . S
O362 C361 1.232 . S
C363 O355 1.260 . S
C363 O356 1.257 . S
Zn364 O367 2.031 . S
Zn364 O369 2.049 . S
Zn364 O374 2.067 . S
Zn365 O366 1.962 . S
Zn365 O368 1.986 . S
Zn365 O370 1.996 . S
Zn365 O373 1.943 . S
O366 Zn365 1.962 . S
O366 C371 1.254 . S
O367 Zn364 2.031 . S
O367 C371 1.269 . S
O368 Zn365 1.986 . S
O368 C375 1.262 . S
O369 Zn364 2.049 . S
O369 C377 1.260 . S
O370 Zn365 1.996 . S
O370 C377 1.257 . S
C371 O366 1.254 . S
C371 O367 1.269 . S
C372 O373 1.249 . S
C372 O374 1.270 . S
O373 Zn365 1.943 . S
O373 C372 1.249 . S
O374 Zn364 2.067 . S
O374 C372 1.270 . S
C375 O368 1.262 . S
C375 O376 1.232 . S
O376 C375 1.232 . S
C377 O369 1.260 . S
C377 O370 1.257 . S
Zn378 O381 2.031 . S
Zn378 O383 2.049 . S
Zn378 O388 2.067 1_455 S
Zn379 O380 1.962 . S
Zn379 O382 1.986 . S
Zn379 O384 1.996 . S
Zn379 O387 1.943 . S
O380 Zn379 1.962 . S
O380 C385 1.254 . S
O381 Zn378 2.031 . S
O381 C385 1.269 . S
O382 Zn379 1.986 . S
O382 C389 1.262 . S
O383 Zn378 2.049 . S
O383 C391 1.260 . S
O384 Zn379 1.996 . S
O384 C391 1.257 . S
C385 O380 1.254 . S
C385 O381 1.269 . S
C386 O387 1.249 . S
C386 O388 1.270 1_455 S
O387 Zn379 1.943 . S
O387 C386 1.249 . S
O388 Zn378 2.067 1_655 S
O388 C386 1.270 1_655 S
C389 O382 1.262 . S
C389 O390 1.232 . S
O390 C389 1.232 . S
C391 O383 1.260 . S
C391 O384 1.257 . S
Zn392 O395 2.031 . S
Zn392 O397 2.049 . S
Zn392 O402 2.067 . S
Zn393 O394 1.962 . S
Zn393 O396 1.986 . S
Zn393 O398 1.996 . S
Zn393 O401 1.943 . S
O394 Zn393 1.962 . S
O394 C399 1.254 . S
O395 Zn392 2.031 . S
O395 C399 1.269 . S
O396 Zn393 1.986 . S
O396 C403 1.262 . S
O397 Zn392 2.049 . S
O397 C405 1.260 . S
O398 Zn393 1.996 . S
O398 C405 1.257 . S
C399 O394 1.254 . S
C399 O395 1.269 . S
C400 O401 1.249 . S
C400 O402 1.270 . S
O401 Zn393 1.943 . S
O401 C400 1.249 . S
O402 Zn392 2.067 . S
O402 C400 1.270 . S
C403 O396 1.262 . S
C403 O404 1.232 . S
O404 C403 1.232 . S
C405 O397 1.260 . S
C405 O398 1.257 . S
Zn406 O409 2.031 . S
Zn406 O411 2.049 . S
Zn406 O416 2.067 1_455 S
Zn407 O408 1.962 . S
Zn407 O410 1.986 . S
Zn407 O412 1.996 . S
Zn407 O415 1.943 . S
O408 Zn407 1.962 . S
O408 C413 1.254 . S
O409 Zn406 2.031 . S
O409 C413 1.269 . S
O410 Zn407 1.986 . S
O410 C417 1.262 . S
O411 Zn406 2.049 . S
O411 C419 1.260 . S
O412 Zn407 1.996 . S
O412 C419 1.257 . S
C413 O408 1.254 . S
C413 O409 1.269 . S
C414 O415 1.249 . S
C414 O416 1.270 1_455 S
O415 Zn407 1.943 . S
O415 C414 1.249 . S
O416 Zn406 2.067 1_655 S
O416 C414 1.270 1_655 S
C417 O410 1.262 . S
C417 O418 1.232 . S
O418 C417 1.232 . S
C419 O411 1.260 . S
C419 O412 1.257 . S
Zn420 O423 2.031 . S
Zn420 O425 2.049 . S
Zn420 O430 2.067 . S
Zn421 O422 1.962 . S
Zn421 O424 1.986 . S
Zn421 O426 1.996 . S
Zn421 O429 1.943 . S
O422 Zn421 1.962 . S
O422 C427 1.254 . S
O423 Zn420 2.031 . S
O423 C427 1.269 . S
O424 Zn421 1.986 . S
O424 C431 1.262 . S
O425 Zn420 2.049 . S
O425 C433 1.260 . S
O426 Zn421 1.996 . S
O426 C433 1.257 . S
C427 O422 1.254 . S
C427 O423 1.269 . S
C428 O429 1.249 . S
C428 O430 1.270 . S
O429 Zn421 1.943 . S
O429 C428 1.249 . S
O430 Zn420 2.067 . S
O430 C428 1.270 . S
C431 O424 1.262 . S
C431 O432 1.232 . S
O432 C431 1.232 . S
C433 O425 1.260 . S
C433 O426 1.257 . S
Zn434 O437 2.031 . S
Zn434 O439 2.049 . S
Zn434 O444 2.067 . S
Zn435 O436 1.962 . S
Zn435 O438 1.986 . S
Zn435 O440 1.996 . S
Zn435 O443 1.943 . S
O436 Zn435 1.962 . S
O436 C441 1.254 . S
O437 Zn434 2.031 . S
O437 C441 1.269 . S
O438 Zn435 1.986 . S
O438 C445 1.262 . S
O439 Zn434 2.049 . S
O439 C447 1.260 . S
O440 Zn435 1.996 . S
O440 C447 1.257 . S
C441 O436 1.254 . S
C441 O437 1.269 . S
C442 O443 1.249 . S
C442 O444 1.270 . S
O443 Zn435 1.943 . S
O443 C442 1.249 . S
O444 Zn434 2.067 . S
O444 C442 1.270 . S
C445 O438 1.262 . S
C445 O446 1.232 . S
O446 C445 1.232 . S
C447 O439 1.260 . S
C447 O440 1.257 . S
H448 C456 0.950 . S
H449 C461 0.950 . S
H450 C458 0.950 . S
H451 C460 0.950 . S
H452 C462 0.950 . S
H453 C464 0.950 . S
H454 C466 0.950 . S
H455 C467 0.950 . S
C456 H448 0.950 . S
C456 C457 1.386 . S
C456 C458 1.391 . S
C457 C456 1.386 . S
C457 C461 1.393 . S
C458 H450 0.950 . S
C458 C456 1.391 . S
C458 C459 1.400 . S
C459 C458 1.400 . S
C459 C460 1.398 . S
C459 C465 1.491 . S
C460 H451 0.950 . S
C460 C459 1.398 . S
C460 C461 1.391 . S
C461 H449 0.950 . S
C461 C457 1.393 . S
C461 C460 1.391 . S
C462 H452 0.950 . S
C462 C463 1.386 . S
C462 C464 1.391 . S
C463 C462 1.386 . S
C463 C467 1.393 . S
C464 H453 0.950 . S
C464 C462 1.391 . S
C464 C465 1.400 . S
C465 C459 1.491 . S
C465 C464 1.400 . S
C465 C466 1.398 . S
C466 H454 0.950 . S
C466 C465 1.398 . S
C466 C467 1.391 . S
C467 H455 0.950 . S
C467 C463 1.393 . S
C467 C466 1.391 . S
H468 C476 0.950 1_455 S
H469 C481 0.950 . S
H470 C478 0.950 . S
H471 C480 0.950 . S
H472 C482 0.950 . S
H473 C484 0.950 . S
H474 C486 0.950 . S
H475 C487 0.950 . S
C476 H468 0.950 1_655 S
C476 C477 1.386 . S
C476 C478 1.391 . S
C477 C476 1.386 . S
C477 C481 1.393 . S
C478 H470 0.950 . S
C478 C476 1.391 . S
C478 C479 1.400 . S
C479 C478 1.400 . S
C479 C480 1.398 . S
C479 C485 1.491 . S
C480 H471 0.950 . S
C480 C479 1.398 . S
C480 C481 1.391 . S
C481 H469 0.950 . S
C481 C477 1.393 . S
C481 C480 1.391 . S
C482 H472 0.950 . S
C482 C483 1.386 . S
C482 C484 1.391 . S
C483 C482 1.386 . S
C483 C487 1.393 . S
C484 H473 0.950 . S
C484 C482 1.391 . S
C484 C485 1.400 . S
C485 C479 1.491 . S
C485 C484 1.400 . S
C485 C486 1.398 . S
C486 H474 0.950 . S
C486 C485 1.398 . S
C486 C487 1.391 . S
C487 H475 0.950 . S
C487 C483 1.393 . S
C487 C486 1.391 . S
H488 C496 0.950 . S
H489 C501 0.950 . S
H490 C498 0.950 . S
H491 C500 0.950 . S
H492 C502 0.950 . S
H493 C504 0.950 . S
H494 C506 0.950 . S
H495 C507 0.950 . S
C496 H488 0.950 . S
C496 C497 1.386 . S
C496 C498 1.391 . S
C497 C496 1.386 . S
C497 C501 1.393 . S
C498 H490 0.950 . S
C498 C496 1.391 . S
C498 C499 1.400 . S
C499 C498 1.400 . S
C499 C500 1.398 . S
C499 C505 1.491 . S
C500 H491 0.950 . S
C500 C499 1.398 . S
C500 C501 1.391 . S
C501 H489 0.950 . S
C501 C497 1.393 . S
C501 C500 1.391 . S
C502 H492 0.950 . S
C502 C503 1.386 . S
C502 C504 1.391 . S
C503 C502 1.386 . S
C503 C507 1.393 . S
C504 H493 0.950 . S
C504 C502 1.391 . S
C504 C505 1.400 . S
C505 C499 1.491 . S
C505 C504 1.400 . S
C505 C506 1.398 . S
C506 H494 0.950 . S
C506 C505 1.398 . S
C506 C507 1.391 . S
C507 H495 0.950 . S
C507 C503 1.393 . S
C507 C506 1.391 . S
H508 C516 0.950 . S
H509 C521 0.950 . S
H510 C518 0.950 . S
H511 C520 0.950 . S
H512 C522 0.950 . S
H513 C524 0.950 . S
H514 C526 0.950 . S
H515 C527 0.950 . S
C516 H508 0.950 . S
C516 C517 1.386 . S
C516 C518 1.391 . S
C517 C516 1.386 . S
C517 C521 1.393 . S
C518 H510 0.950 . S
C518 C516 1.391 . S
C518 C519 1.400 . S
C519 C518 1.400 . S
C519 C520 1.398 . S
C519 C525 1.491 . S
C520 H511 0.950 . S
C520 C519 1.398 . S
C520 C521 1.391 . S
C521 H509 0.950 . S
C521 C517 1.393 . S
C521 C520 1.391 . S
C522 H512 0.950 . S
C522 C523 1.386 . S
C522 C524 1.391 . S
C523 C522 1.386 . S
C523 C527 1.393 . S
C524 H513 0.950 . S
C524 C522 1.391 . S
C524 C525 1.400 . S
C525 C519 1.491 . S
C525 C524 1.400 . S
C525 C526 1.398 . S
C526 H514 0.950 . S
C526 C525 1.398 . S
C526 C527 1.391 . S
C527 H515 0.950 . S
C527 C523 1.393 . S
C527 C526 1.391 . S
H528 C536 0.950 . S
H529 C541 0.950 . S
H530 C538 0.950 . S
H531 C540 0.950 . S
H532 C542 0.950 . S
H533 C544 0.950 . S
H534 C546 0.950 . S
H535 C547 0.950 . S
C536 H528 0.950 . S
C536 C537 1.386 . S
C536 C538 1.391 . S
C537 C536 1.386 . S
C537 C541 1.393 . S
C538 H530 0.950 . S
C538 C536 1.391 . S
C538 C539 1.400 . S
C539 C538 1.400 . S
C539 C540 1.398 . S
C539 C545 1.491 . S
C540 H531 0.950 . S
C540 C539 1.398 . S
C540 C541 1.391 . S
C541 H529 0.950 . S
C541 C537 1.393 . S
C541 C540 1.391 . S
C542 H532 0.950 . S
C542 C543 1.386 . S
C542 C544 1.391 . S
C543 C542 1.386 . S
C543 C547 1.393 . S
C544 H533 0.950 . S
C544 C542 1.391 . S
C544 C545 1.400 . S
C545 C539 1.491 . S
C545 C544 1.400 . S
C545 C546 1.398 . S
C546 H534 0.950 . S
C546 C545 1.398 . S
C546 C547 1.391 . S
C547 H535 0.950 . S
C547 C543 1.393 . S
C547 C546 1.391 . S
H548 C556 0.950 . S
H549 C561 0.950 . S
H550 C558 0.950 . S
H551 C560 0.950 . S
H552 C562 0.950 . S
H553 C564 0.950 . S
H554 C566 0.950 . S
H555 C567 0.950 . S
C556 H548 0.950 . S
C556 C557 1.386 . S
C556 C558 1.391 . S
C557 C556 1.386 . S
C557 C561 1.393 . S
C558 H550 0.950 . S
C558 C556 1.391 . S
C558 C559 1.400 . S
C559 C558 1.400 . S
C559 C560 1.398 . S
C559 C565 1.491 . S
C560 H551 0.950 . S
C560 C559 1.398 . S
C560 C561 1.391 . S
C561 H549 0.950 . S
C561 C557 1.393 . S
C561 C560 1.391 . S
C562 H552 0.950 . S
C562 C563 1.386 . S
C562 C564 1.391 . S
C563 C562 1.386 . S
C563 C567 1.393 . S
C564 H553 0.950 . S
C564 C562 1.391 . S
C564 C565 1.400 . S
C565 C559 1.491 . S
C565 C564 1.400 . S
C565 C566 1.398 . S
C566 H554 0.950 . S
C566 C565 1.398 . S
C566 C567 1.391 . S
C567 H555 0.950 . S
C567 C563 1.393 . S
C567 C566 1.391 . S
H568 C576 0.950 . S
H569 C581 0.950 . S
H570 C578 0.950 . S
H571 C580 0.950 . S
H572 C582 0.950 . S
H573 C584 0.950 . S
H574 C586 0.950 . S
H575 C587 0.950 . S
C576 H568 0.950 . S
C576 C577 1.386 . S
C576 C578 1.391 . S
C577 C576 1.386 . S
C577 C581 1.393 . S
C578 H570 0.950 . S
C578 C576 1.391 . S
C578 C579 1.400 . S
C579 C578 1.400 . S
C579 C580 1.398 . S
C579 C585 1.491 . S
C580 H571 0.950 . S
C580 C579 1.398 . S
C580 C581 1.391 . S
C581 H569 0.950 . S
C581 C577 1.393 . S
C581 C580 1.391 . S
C582 H572 0.950 . S
C582 C583 1.386 . S
C582 C584 1.391 . S
C583 C582 1.386 . S
C583 C587 1.393 . S
C584 H573 0.950 . S
C584 C582 1.391 . S
C584 C585 1.400 . S
C585 C579 1.491 . S
C585 C584 1.400 . S
C585 C586 1.398 . S
C586 H574 0.950 . S
C586 C585 1.398 . S
C586 C587 1.391 . S
C587 H575 0.950 . S
C587 C583 1.393 . S
C587 C586 1.391 . S
H588 C596 0.950 1_455 S
H589 C601 0.950 . S
H590 C598 0.950 . S
H591 C600 0.950 . S
H592 C602 0.950 . S
H593 C604 0.950 . S
H594 C606 0.950 . S
H595 C607 0.950 . S
C596 H588 0.950 1_655 S
C596 C597 1.386 . S
C596 C598 1.391 . S
C597 C596 1.386 . S
C597 C601 1.393 . S
C598 H590 0.950 . S
C598 C596 1.391 . S
C598 C599 1.400 . S
C599 C598 1.400 . S
C599 C600 1.398 . S
C599 C605 1.491 . S
C600 H591 0.950 . S
C600 C599 1.398 . S
C600 C601 1.391 . S
C601 H589 0.950 . S
C601 C597 1.393 . S
C601 C600 1.391 . S
C602 H592 0.950 . S
C602 C603 1.386 . S
C602 C604 1.391 . S
C603 C602 1.386 . S
C603 C607 1.393 . S
C604 H593 0.950 . S
C604 C602 1.391 . S
C604 C605 1.400 . S
C605 C599 1.491 . S
C605 C604 1.400 . S
C605 C606 1.398 . S
C606 H594 0.950 . S
C606 C605 1.398 . S
C606 C607 1.391 . S
C607 H595 0.950 . S
C607 C603 1.393 . S
C607 C606 1.391 . S
H608 C616 0.950 . S
H609 C621 0.950 . S
H610 C618 0.950 . S
H611 C620 0.950 . S
H612 C622 0.950 . S
H613 C624 0.950 . S
H614 C626 0.950 . S
H615 C627 0.950 . S
C616 H608 0.950 . S
C616 C617 1.386 . S
C616 C618 1.391 . S
C617 C616 1.386 . S
C617 C621 1.393 . S
C618 H610 0.950 . S
C618 C616 1.391 . S
C618 C619 1.400 . S
C619 C618 1.400 . S
C619 C620 1.398 . S
C619 C625 1.491 . S
C620 H611 0.950 . S
C620 C619 1.398 . S
C620 C621 1.391 . S
C621 H609 0.950 . S
C621 C617 1.393 . S
C621 C620 1.391 . S
C622 H612 0.950 . S
C622 C623 1.386 . S
C622 C624 1.391 . S
C623 C622 1.386 . S
C623 C627 1.393 . S
C624 H613 0.950 . S
C624 C622 1.391 . S
C624 C625 1.400 . S
C625 C619 1.491 . S
C625 C624 1.400 . S
C625 C626 1.398 . S
C626 H614 0.950 . S
C626 C625 1.398 . S
C626 C627 1.391 . S
C627 H615 0.950 . S
C627 C623 1.393 . S
C627 C626 1.391 . S
H628 C636 0.950 . S
H629 C641 0.950 . S
H630 C638 0.950 . S
H631 C640 0.950 . S
H632 C642 0.950 1_655 S
H633 C644 0.950 . S
H634 C646 0.950 . S
H635 C647 0.950 . S
C636 H628 0.950 . S
C636 C637 1.386 . S
C636 C638 1.391 . S
C637 C636 1.386 . S
C637 C641 1.393 . S
C638 H630 0.950 . S
C638 C636 1.391 . S
C638 C639 1.400 . S
C639 C638 1.400 . S
C639 C640 1.398 . S
C639 C645 1.491 . S
C640 H631 0.950 . S
C640 C639 1.398 . S
C640 C641 1.391 . S
C641 H629 0.950 . S
C641 C637 1.393 . S
C641 C640 1.391 . S
C642 H632 0.950 1_455 S
C642 C643 1.386 . S
C642 C644 1.391 . S
C643 C642 1.386 . S
C643 C647 1.393 . S
C644 H633 0.950 . S
C644 C642 1.391 . S
C644 C645 1.400 . S
C645 C639 1.491 . S
C645 C644 1.400 . S
C645 C646 1.398 . S
C646 H634 0.950 . S
C646 C645 1.398 . S
C646 C647 1.391 . S
C647 H635 0.950 . S
C647 C643 1.393 . S
C647 C646 1.391 . S
H648 C656 0.950 . S
H649 C661 0.950 . S
H650 C658 0.950 . S
H651 C660 0.950 . S
H652 C662 0.950 . S
H653 C664 0.950 . S
H654 C666 0.950 . S
H655 C667 0.950 . S
C656 H648 0.950 . S
C656 C657 1.386 . S
C656 C658 1.391 . S
C657 C656 1.386 . S
C657 C661 1.393 . S
C658 H650 0.950 . S
C658 C656 1.391 . S
C658 C659 1.400 . S
C659 C658 1.400 . S
C659 C660 1.398 . S
C659 C665 1.491 . S
C660 H651 0.950 . S
C660 C659 1.398 . S
C660 C661 1.391 . S
C661 H649 0.950 . S
C661 C657 1.393 . S
C661 C660 1.391 . S
C662 H652 0.950 . S
C662 C663 1.386 . S
C662 C664 1.391 . S
C663 C662 1.386 . S
C663 C667 1.393 . S
C664 H653 0.950 . S
C664 C662 1.391 . S
C664 C665 1.400 . S
C665 C659 1.491 . S
C665 C664 1.400 . S
C665 C666 1.398 . S
C666 H654 0.950 . S
C666 C665 1.398 . S
C666 C667 1.391 . S
C667 H655 0.950 . S
C667 C663 1.393 . S
C667 C666 1.391 . S
H668 C676 0.950 . S
H669 C681 0.950 . S
H670 C678 0.950 . S
H671 C680 0.950 . S
H672 C682 0.950 . S
H673 C684 0.950 . S
H674 C686 0.950 . S
H675 C687 0.950 . S
C676 H668 0.950 . S
C676 C677 1.386 . S
C676 C678 1.391 . S
C677 C676 1.386 . S
C677 C681 1.393 . S
C678 H670 0.950 . S
C678 C676 1.391 . S
C678 C679 1.400 . S
C679 C678 1.400 . S
C679 C680 1.398 . S
C679 C685 1.491 . S
C680 H671 0.950 . S
C680 C679 1.398 . S
C680 C681 1.391 . S
C681 H669 0.950 . S
C681 C677 1.393 . S
C681 C680 1.391 . S
C682 H672 0.950 . S
C682 C683 1.386 . S
C682 C684 1.391 . S
C683 C682 1.386 . S
C683 C687 1.393 . S
C684 H673 0.950 . S
C684 C682 1.391 . S
C684 C685 1.400 . S
C685 C679 1.491 . S
C685 C684 1.400 . S
C685 C686 1.398 . S
C686 H674 0.950 . S
C686 C685 1.398 . S
C686 C687 1.391 . S
C687 H675 0.950 . S
C687 C683 1.393 . S
C687 C686 1.391 . S
H688 C696 0.950 . S
H689 C701 0.950 . S
H690 C698 0.950 . S
H691 C700 0.950 . S
H692 C702 0.950 . S
H693 C704 0.950 . S
H694 C706 0.950 . S
H695 C707 0.950 . S
C696 H688 0.950 . S
C696 C697 1.386 . S
C696 C698 1.391 . S
C697 C696 1.386 . S
C697 C701 1.393 . S
C698 H690 0.950 . S
C698 C696 1.391 . S
C698 C699 1.400 . S
C699 C698 1.400 . S
C699 C700 1.398 . S
C699 C705 1.491 . S
C700 H691 0.950 . S
C700 C699 1.398 . S
C700 C701 1.391 . S
C701 H689 0.950 . S
C701 C697 1.393 . S
C701 C700 1.391 . S
C702 H692 0.950 . S
C702 C703 1.386 . S
C702 C704 1.391 . S
C703 C702 1.386 . S
C703 C707 1.393 . S
C704 H693 0.950 . S
C704 C702 1.391 . S
C704 C705 1.400 . S
C705 C699 1.491 . S
C705 C704 1.400 . S
C705 C706 1.398 . S
C706 H694 0.950 . S
C706 C705 1.398 . S
C706 C707 1.391 . S
C707 H695 0.950 . S
C707 C703 1.393 . S
C707 C706 1.391 . S
H708 C716 0.950 . S
H709 C721 0.950 . S
H710 C718 0.950 . S
H711 C720 0.950 . S
H712 C722 0.950 . S
H713 C724 0.950 . S
H714 C726 0.950 . S
H715 C727 0.950 . S
C716 H708 0.950 . S
C716 C717 1.386 . S
C716 C718 1.391 . S
C717 C716 1.386 . S
C717 C721 1.393 . S
C718 H710 0.950 . S
C718 C716 1.391 . S
C718 C719 1.400 . S
C719 C718 1.400 . S
C719 C720 1.398 . S
C719 C725 1.491 . S
C720 H711 0.950 . S
C720 C719 1.398 . S
C720 C721 1.391 . S
C721 H709 0.950 . S
C721 C717 1.393 . S
C721 C720 1.391 . S
C722 H712 0.950 . S
C722 C723 1.386 . S
C722 C724 1.391 . S
C723 C722 1.386 . S
C723 C727 1.393 . S
C724 H713 0.950 . S
C724 C722 1.391 . S
C724 C725 1.400 . S
C725 C719 1.491 . S
C725 C724 1.400 . S
C725 C726 1.398 . S
C726 H714 0.950 . S
C726 C725 1.398 . S
C726 C727 1.391 . S
C727 H715 0.950 . S
C727 C723 1.393 . S
C727 C726 1.391 . S
H728 C736 0.950 . S
H729 C741 0.950 . S
H730 C738 0.950 . S
H731 C740 0.950 . S
H732 C742 0.950 . S
H733 C744 0.950 . S
H734 C746 0.950 . S
H735 C747 0.950 . S
C736 H728 0.950 . S
C736 C737 1.386 . S
C736 C738 1.391 . S
C737 C736 1.386 . S
C737 C741 1.393 . S
C738 H730 0.950 . S
C738 C736 1.391 . S
C738 C739 1.400 . S
C739 C738 1.400 . S
C739 C740 1.398 . S
C739 C745 1.491 . S
C740 H731 0.950 . S
C740 C739 1.398 . S
C740 C741 1.391 . S
C741 H729 0.950 . S
C741 C737 1.393 . S
C741 C740 1.391 . S
C742 H732 0.950 . S
C742 C743 1.386 . S
C742 C744 1.391 . S
C743 C742 1.386 . S
C743 C747 1.393 . S
C744 H733 0.950 . S
C744 C742 1.391 . S
C744 C745 1.400 . S
C745 C739 1.491 . S
C745 C744 1.400 . S
C745 C746 1.398 . S
C746 H734 0.950 . S
C746 C745 1.398 . S
C746 C747 1.391 . S
C747 H735 0.950 . S
C747 C743 1.393 . S
C747 C746 1.391 . S
H748 C756 0.950 . S
H749 C761 0.950 . S
H750 C758 0.950 . S
H751 C760 0.950 . S
H752 C762 0.950 1_655 S
H753 C764 0.950 . S
H754 C766 0.950 . S
H755 C767 0.950 . S
C756 H748 0.950 . S
C756 C757 1.386 . S
C756 C758 1.391 . S
C757 C756 1.386 . S
C757 C761 1.393 . S
C758 H750 0.950 . S
C758 C756 1.391 . S
C758 C759 1.400 . S
C759 C758 1.400 . S
C759 C760 1.398 . S
C759 C765 1.491 . S
C760 H751 0.950 . S
C760 C759 1.398 . S
C760 C761 1.391 . S
C761 H749 0.950 . S
C761 C757 1.393 . S
C761 C760 1.391 . S
C762 H752 0.950 1_455 S
C762 C763 1.386 . S
C762 C764 1.391 . S
C763 C762 1.386 . S
C763 C767 1.393 . S
C764 H753 0.950 . S
C764 C762 1.391 . S
C764 C765 1.400 . S
C765 C759 1.491 . S
C765 C764 1.400 . S
C765 C766 1.398 . S
C766 H754 0.950 . S
C766 C765 1.398 . S
C766 C767 1.391 . S
C767 H755 0.950 . S
C767 C763 1.393 . S
C767 C766 1.391 . S
H768 C776 0.950 . S
H769 C781 0.950 . S
H770 C778 0.950 . S
H771 C780 0.950 . S
H772 C782 0.950 . S
H773 C784 0.950 . S
H774 C786 0.950 . S
H775 C787 0.950 . S
C776 H768 0.950 . S
C776 C777 1.386 . S
C776 C778 1.391 . S
C777 C776 1.386 . S
C777 C781 1.393 . S
C778 H770 0.950 . S
C778 C776 1.391 . S
C778 C779 1.400 . S
C779 C778 1.400 . S
C779 C780 1.398 . S
C779 C785 1.491 . S
C780 H771 0.950 . S
C780 C779 1.398 . S
C780 C781 1.391 . S
C781 H769 0.950 . S
C781 C777 1.393 . S
C781 C780 1.391 . S
C782 H772 0.950 . S
C782 C783 1.386 . S
C782 C784 1.391 . S
C783 C782 1.386 . S
C783 C787 1.393 . S
C784 H773 0.950 . S
C784 C782 1.391 . S
C784 C785 1.400 . S
C785 C779 1.491 . S
C785 C784 1.400 . S
C785 C786 1.398 . S
C786 H774 0.950 . S
C786 C785 1.398 . S
C786 C787 1.391 . S
C787 H775 0.950 . S
C787 C783 1.393 . S
C787 C786 1.391 . S
H788 C796 0.950 . S
H789 C801 0.950 . S
H790 C798 0.950 . S
H791 C800 0.950 . S
H792 C802 0.950 . S
H793 C804 0.950 . S
H794 C806 0.950 . S
H795 C807 0.950 . S
C796 H788 0.950 . S
C796 C797 1.386 . S
C796 C798 1.391 . S
C797 C796 1.386 . S
C797 C801 1.393 . S
C798 H790 0.950 . S
C798 C796 1.391 . S
C798 C799 1.400 . S
C799 C798 1.400 . S
C799 C800 1.398 . S
C799 C805 1.491 . S
C800 H791 0.950 . S
C800 C799 1.398 . S
C800 C801 1.391 . S
C801 H789 0.950 . S
C801 C797 1.393 . S
C801 C800 1.391 . S
C802 H792 0.950 . S
C802 C803 1.386 . S
C802 C804 1.391 . S
C803 C802 1.386 . S
C803 C807 1.393 . S
C804 H793 0.950 . S
C804 C802 1.391 . S
C804 C805 1.400 . S
C805 C799 1.491 . S
C805 C804 1.400 . S
C805 C806 1.398 . S
C806 H794 0.950 . S
C806 C805 1.398 . S
C806 C807 1.391 . S
C807 H795 0.950 . S
C807 C803 1.393 . S
C807 C806 1.391 . S
H808 C816 0.950 . S
H809 C821 0.950 . S
H810 C818 0.950 . S
H811 C820 0.950 . S
H812 C822 0.950 . S
H813 C824 0.950 . S
H814 C826 0.950 . S
H815 C827 0.950 . S
C816 H808 0.950 . S
C816 C817 1.386 . S
C816 C818 1.391 . S
C817 C816 1.386 . S
C817 C821 1.393 . S
C818 H810 0.950 . S
C818 C816 1.391 . S
C818 C819 1.400 . S
C819 C818 1.400 . S
C819 C820 1.398 . S
C819 C825 1.491 . S
C820 H811 0.950 . S
C820 C819 1.398 . S
C820 C821 1.391 . S
C821 H809 0.950 . S
C821 C817 1.393 . S
C821 C820 1.391 . S
C822 H812 0.950 . S
C822 C823 1.386 . S
C822 C824 1.391 . S
C823 C822 1.386 . S
C823 C827 1.393 . S
C824 H813 0.950 . S
C824 C822 1.391 . S
C824 C825 1.400 . S
C825 C819 1.491 . S
C825 C824 1.400 . S
C825 C826 1.398 . S
C826 H814 0.950 . S
C826 C825 1.398 . S
C826 C827 1.391 . S
C827 H815 0.950 . S
C827 C823 1.393 . S
C827 C826 1.391 . S
H828 C836 0.950 . S
H829 C841 0.950 . S
H830 C838 0.950 . S
H831 C840 0.950 . S
H832 C842 0.950 . S
H833 C844 0.950 . S
H834 C846 0.950 . S
H835 C847 0.950 . S
C836 H828 0.950 . S
C836 C837 1.386 . S
C836 C838 1.391 . S
C837 C836 1.386 . S
C837 C841 1.393 . S
C838 H830 0.950 . S
C838 C836 1.391 . S
C838 C839 1.400 . S
C839 C838 1.400 . S
C839 C840 1.398 . S
C839 C845 1.491 . S
C840 H831 0.950 . S
C840 C839 1.398 . S
C840 C841 1.391 . S
C841 H829 0.950 . S
C841 C837 1.393 . S
C841 C840 1.391 . S
C842 H832 0.950 . S
C842 C843 1.386 . S
C842 C844 1.391 . S
C843 C842 1.386 . S
C843 C847 1.393 . S
C844 H833 0.950 . S
C844 C842 1.391 . S
C844 C845 1.400 . S
C845 C839 1.491 . S
C845 C844 1.400 . S
C845 C846 1.398 . S
C846 H834 0.950 . S
C846 C845 1.398 . S
C846 C847 1.391 . S
C847 H835 0.950 . S
C847 C843 1.393 . S
C847 C846 1.391 . S
H848 C856 0.950 . S
H849 C861 0.950 . S
H850 C858 0.950 . S
H851 C860 0.950 . S
H852 C862 0.950 . S
H853 C864 0.950 . S
H854 C866 0.950 . S
H855 C867 0.950 . S
C856 H848 0.950 . S
C856 C857 1.386 . S
C856 C858 1.391 . S
C857 C856 1.386 . S
C857 C861 1.393 . S
C858 H850 0.950 . S
C858 C856 1.391 . S
C858 C859 1.400 . S
C859 C858 1.400 . S
C859 C860 1.398 . S
C859 C865 1.491 . S
C860 H851 0.950 . S
C860 C859 1.398 . S
C860 C861 1.391 . S
C861 H849 0.950 . S
C861 C857 1.393 . S
C861 C860 1.391 . S
C862 H852 0.950 . S
C862 C863 1.386 . S
C862 C864 1.391 . S
C863 C862 1.386 . S
C863 C867 1.393 . S
C864 H853 0.950 . S
C864 C862 1.391 . S
C864 C865 1.400 . S
C865 C859 1.491 . S
C865 C864 1.400 . S
C865 C866 1.398 . S
C866 H854 0.950 . S
C866 C865 1.398 . S
C866 C867 1.391 . S
C867 H855 0.950 . S
C867 C863 1.393 . S
C867 C866 1.391 . S
H868 C876 0.950 . S
H869 C881 0.950 . S
H870 C878 0.950 . S
H871 C880 0.950 . S
H872 C882 0.950 . S
H873 C884 0.950 . S
H874 C886 0.950 . S
H875 C887 0.950 1_655 S
C876 H868 0.950 . S
C876 C877 1.386 . S
C876 C878 1.391 . S
C877 C876 1.386 . S
C877 C881 1.393 . S
C878 H870 0.950 . S
C878 C876 1.391 . S
C878 C879 1.400 . S
C879 C878 1.400 . S
C879 C880 1.398 . S
C879 C885 1.491 . S
C880 H871 0.950 . S
C880 C879 1.398 . S
C880 C881 1.391 . S
C881 H869 0.950 . S
C881 C877 1.393 . S
C881 C880 1.391 . S
C882 H872 0.950 . S
C882 C883 1.386 . S
C882 C884 1.391 . S
C883 C882 1.386 . S
C883 C887 1.393 . S
C884 H873 0.950 . S
C884 C882 1.391 . S
C884 C885 1.400 . S
C885 C879 1.491 . S
C885 C884 1.400 . S
C885 C886 1.398 . S
C886 H874 0.950 . S
C886 C885 1.398 . S
C886 C887 1.391 . S
C887 H875 0.950 1_455 S
C887 C883 1.393 . S
C887 C886 1.391 . S
H888 C896 0.950 . S
H889 C901 0.950 . S
H890 C898 0.950 . S
H891 C900 0.950 . S
H892 C902 0.950 . S
H893 C904 0.950 . S
H894 C906 0.950 . S
H895 C907 0.950 . S
C896 H888 0.950 . S
C896 C897 1.386 . S
C896 C898 1.391 . S
C897 C896 1.386 . S
C897 C901 1.393 . S
C898 H890 0.950 . S
C898 C896 1.391 . S
C898 C899 1.400 . S
C899 C898 1.400 . S
C899 C900 1.398 . S
C899 C905 1.491 . S
C900 H891 0.950 . S
C900 C899 1.398 . S
C900 C901 1.391 . S
C901 H889 0.950 . S
C901 C897 1.393 . S
C901 C900 1.391 . S
C902 H892 0.950 . S
C902 C903 1.386 . S
C902 C904 1.391 . S
C903 C902 1.386 . S
C903 C907 1.393 . S
C904 H893 0.950 . S
C904 C902 1.391 . S
C904 C905 1.400 . S
C905 C899 1.491 . S
C905 C904 1.400 . S
C905 C906 1.398 . S
C906 H894 0.950 . S
C906 C905 1.398 . S
C906 C907 1.391 . S
C907 H895 0.950 . S
C907 C903 1.393 . S
C907 C906 1.391 . S
H908 C916 0.950 . S
H909 C921 0.950 . S
H910 C918 0.950 . S
H911 C920 0.950 . S
H912 C922 0.950 . S
H913 C924 0.950 . S
H914 C926 0.950 . S
H915 C927 0.950 . S
C916 H908 0.950 . S
C916 C917 1.386 . S
C916 C918 1.391 . S
C917 C916 1.386 . S
C917 C921 1.393 . S
C918 H910 0.950 . S
C918 C916 1.391 . S
C918 C919 1.400 . S
C919 C918 1.400 . S
C919 C920 1.398 . S
C919 C925 1.491 . S
C920 H911 0.950 . S
C920 C919 1.398 . S
C920 C921 1.391 . S
C921 H909 0.950 . S
C921 C917 1.393 . S
C921 C920 1.391 . S
C922 H912 0.950 . S
C922 C923 1.386 . S
C922 C924 1.391 . S
C923 C922 1.386 . S
C923 C927 1.393 . S
C924 H913 0.950 . S
C924 C922 1.391 . S
C924 C925 1.400 . S
C925 C919 1.491 . S
C925 C924 1.400 . S
C925 C926 1.398 . S
C926 H914 0.950 . S
C926 C925 1.398 . S
C926 C927 1.391 . S
C927 H915 0.950 . S
C927 C923 1.393 . S
C927 C926 1.391 . S
H928 C936 0.950 . S
H929 C941 0.950 . S
H930 C938 0.950 . S
H931 C940 0.950 . S
H932 C942 0.950 . S
H933 C944 0.950 . S
H934 C946 0.950 . S
H935 C947 0.950 . S
C936 H928 0.950 . S
C936 C937 1.386 . S
C936 C938 1.391 . S
C937 C936 1.386 . S
C937 C941 1.393 . S
C938 H930 0.950 . S
C938 C936 1.391 . S
C938 C939 1.400 . S
C939 C938 1.400 . S
C939 C940 1.398 . S
C939 C945 1.491 . S
C940 H931 0.950 . S
C940 C939 1.398 . S
C940 C941 1.391 . S
C941 H929 0.950 . S
C941 C937 1.393 . S
C941 C940 1.391 . S
C942 H932 0.950 . S
C942 C943 1.386 . S
C942 C944 1.391 . S
C943 C942 1.386 . S
C943 C947 1.393 . S
C944 H933 0.950 . S
C944 C942 1.391 . S
C944 C945 1.400 . S
C945 C939 1.491 . S
C945 C944 1.400 . S
C945 C946 1.398 . S
C946 H934 0.950 . S
C946 C945 1.398 . S
C946 C947 1.391 . S
C947 H935 0.950 . S
C947 C943 1.393 . S
C947 C946 1.391 . S
H948 C956 0.950 . S
H949 C961 0.950 . S
H950 C958 0.950 . S
H951 C960 0.950 . S
H952 C962 0.950 . S
H953 C964 0.950 . S
H954 C966 0.950 . S
H955 C967 0.950 . S
C956 H948 0.950 . S
C956 C957 1.386 . S
C956 C958 1.391 . S
C957 C956 1.386 . S
C957 C961 1.393 . S
C958 H950 0.950 . S
C958 C956 1.391 . S
C958 C959 1.400 . S
C959 C958 1.400 . S
C959 C960 1.398 . S
C959 C965 1.491 . S
C960 H951 0.950 . S
C960 C959 1.398 . S
C960 C961 1.391 . S
C961 H949 0.950 . S
C961 C957 1.393 . S
C961 C960 1.391 . S
C962 H952 0.950 . S
C962 C963 1.386 . S
C962 C964 1.391 . S
C963 C962 1.386 . S
C963 C967 1.393 . S
C964 H953 0.950 . S
C964 C962 1.391 . S
C964 C965 1.400 . S
C965 C959 1.491 . S
C965 C964 1.400 . S
C965 C966 1.398 . S
C966 H954 0.950 . S
C966 C965 1.398 . S
C966 C967 1.391 . S
C967 H955 0.950 . S
C967 C963 1.393 . S
C967 C966 1.391 . S
H968 C976 0.950 . S
H969 C981 0.950 . S
H970 C978 0.950 . S
H971 C980 0.950 . S
H972 C982 0.950 . S
H973 C984 0.950 . S
H974 C986 0.950 . S
H975 C987 0.950 . S
C976 H968 0.950 . S
C976 C977 1.386 . S
C976 C978 1.391 . S
C977 C976 1.386 . S
C977 C981 1.393 . S
C978 H970 0.950 . S
C978 C976 1.391 . S
C978 C979 1.400 . S
C979 C978 1.400 . S
C979 C980 1.398 . S
C979 C985 1.491 . S
C980 H971 0.950 . S
C980 C979 1.398 . S
C980 C981 1.391 . S
C981 H969 0.950 . S
C981 C977 1.393 . S
C981 C980 1.391 . S
C982 H972 0.950 . S
C982 C983 1.386 . S
C982 C984 1.391 . S
C983 C982 1.386 . S
C983 C987 1.393 . S
C984 H973 0.950 . S
C984 C982 1.391 . S
C984 C985 1.400 . S
C985 C979 1.491 . S
C985 C984 1.400 . S
C985 C986 1.398 . S
C986 H974 0.950 . S
C986 C985 1.398 . S
C986 C987 1.391 . S
C987 H975 0.950 . S
C987 C983 1.393 . S
C987 C986 1.391 . S
H988 C996 0.950 . S
H989 C1001 0.950 . S
H990 C998 0.950 . S
H991 C1000 0.950 . S
H992 C1002 0.950 . S
H993 C1004 0.950 . S
H994 C1006 0.950 . S
H995 C1007 0.950 . S
C996 H988 0.950 . S
C996 C997 1.386 . S
C996 C998 1.391 . S
C997 C996 1.386 . S
C997 C1001 1.393 . S
C998 H990 0.950 . S
C998 C996 1.391 . S
C998 C999 1.400 . S
C999 C998 1.400 . S
C999 C1000 1.398 . S
C999 C1005 1.491 . S
C1000 H991 0.950 . S
C1000 C999 1.398 . S
C1000 C1001 1.391 . S
C1001 H989 0.950 . S
C1001 C997 1.393 . S
C1001 C1000 1.391 . S
C1002 H992 0.950 . S
C1002 C1003 1.386 . S
C1002 C1004 1.391 . S
C1003 C1002 1.386 . S
C1003 C1007 1.393 . S
C1004 H993 0.950 . S
C1004 C1002 1.391 . S
C1004 C1005 1.400 . S
C1005 C999 1.491 . S
C1005 C1004 1.400 . S
C1005 C1006 1.398 . S
C1006 H994 0.950 . S
C1006 C1005 1.398 . S
C1006 C1007 1.391 . S
C1007 H995 0.950 . S
C1007 C1003 1.393 . S
C1007 C1006 1.391 . S
H1008 C1016 0.950 . S
H1009 C1021 0.950 . S
H1010 C1018 0.950 . S
H1011 C1020 0.950 . S
H1012 C1022 0.950 . S
H1013 C1024 0.950 . S
H1014 C1026 0.950 . S
H1015 C1027 0.950 . S
C1016 H1008 0.950 . S
C1016 C1017 1.386 . S
C1016 C1018 1.391 . S
C1017 C1016 1.386 . S
C1017 C1021 1.393 . S
C1018 H1010 0.950 . S
C1018 C1016 1.391 . S
C1018 C1019 1.400 . S
C1019 C1018 1.400 . S
C1019 C1020 1.398 . S
C1019 C1025 1.491 . S
C1020 H1011 0.950 . S
C1020 C1019 1.398 . S
C1020 C1021 1.391 . S
C1021 H1009 0.950 . S
C1021 C1017 1.393 . S
C1021 C1020 1.391 . S
C1022 H1012 0.950 . S
C1022 C1023 1.386 . S
C1022 C1024 1.391 . S
C1023 C1022 1.386 . S
C1023 C1027 1.393 . S
C1024 H1013 0.950 . S
C1024 C1022 1.391 . S
C1024 C1025 1.400 . S
C1025 C1019 1.491 . S
C1025 C1024 1.400 . S
C1025 C1026 1.398 . S
C1026 H1014 0.950 . S
C1026 C1025 1.398 . S
C1026 C1027 1.391 . S
C1027 H1015 0.950 . S
C1027 C1023 1.393 . S
C1027 C1026 1.391 . S
H1028 C1036 0.950 1_455 S
H1029 C1041 0.950 . S
H1030 C1038 0.950 . S
H1031 C1040 0.950 . S
H1032 C1042 0.950 . S
H1033 C1044 0.950 . S
H1034 C1046 0.950 . S
H1035 C1047 0.950 . S
C1036 H1028 0.950 1_655 S
C1036 C1037 1.386 . S
C1036 C1038 1.391 . S
C1037 C1036 1.386 . S
C1037 C1041 1.393 . S
C1038 H1030 0.950 . S
C1038 C1036 1.391 . S
C1038 C1039 1.400 . S
C1039 C1038 1.400 . S
C1039 C1040 1.398 . S
C1039 C1045 1.491 . S
C1040 H1031 0.950 . S
C1040 C1039 1.398 . S
C1040 C1041 1.391 . S
C1041 H1029 0.950 . S
C1041 C1037 1.393 . S
C1041 C1040 1.391 . S
C1042 H1032 0.950 . S
C1042 C1043 1.386 . S
C1042 C1044 1.391 . S
C1043 C1042 1.386 . S
C1043 C1047 1.393 . S
C1044 H1033 0.950 . S
C1044 C1042 1.391 . S
C1044 C1045 1.400 . S
C1045 C1039 1.491 . S
C1045 C1044 1.400 . S
C1045 C1046 1.398 . S
C1046 H1034 0.950 . S
C1046 C1045 1.398 . S
C1046 C1047 1.391 . S
C1047 H1035 0.950 . S
C1047 C1043 1.393 . S
C1047 C1046 1.391 . S
H1048 C1056 0.950 . S
H1049 C1061 0.950 . S
H1050 C1058 0.950 . S
H1051 C1060 0.950 . S
H1052 C1062 0.950 . S
H1053 C1064 0.950 . S
H1054 C1066 0.950 . S
H1055 C1067 0.950 . S
C1056 H1048 0.950 . S
C1056 C1057 1.386 . S
C1056 C1058 1.391 . S
C1057 C1056 1.386 . S
C1057 C1061 1.393 . S
C1058 H1050 0.950 . S
C1058 C1056 1.391 . S
C1058 C1059 1.400 . S
C1059 C1058 1.400 . S
C1059 C1060 1.398 . S
C1059 C1065 1.491 . S
C1060 H1051 0.950 . S
C1060 C1059 1.398 . S
C1060 C1061 1.391 . S
C1061 H1049 0.950 . S
C1061 C1057 1.393 . S
C1061 C1060 1.391 . S
C1062 H1052 0.950 . S
C1062 C1063 1.386 . S
C1062 C1064 1.391 . S
C1063 C1062 1.386 . S
C1063 C1067 1.393 . S
C1064 H1053 0.950 . S
C1064 C1062 1.391 . S
C1064 C1065 1.400 . S
C1065 C1059 1.491 . S
C1065 C1064 1.400 . S
C1065 C1066 1.398 . S
C1066 H1054 0.950 . S
C1066 C1065 1.398 . S
C1066 C1067 1.391 . S
C1067 H1055 0.950 . S
C1067 C1063 1.393 . S
C1067 C1066 1.391 . S
H1068 C1076 0.950 . S
H1069 C1081 0.950 . S
H1070 C1078 0.950 . S
H1071 C1080 0.950 . S
H1072 C1082 0.950 . S
H1073 C1084 0.950 . S
H1074 C1086 0.950 . S
H1075 C1087 0.950 . S
C1076 H1068 0.950 . S
C1076 C1077 1.386 . S
C1076 C1078 1.391 . S
C1077 C1076 1.386 . S
C1077 C1081 1.393 . S
C1078 H1070 0.950 . S
C1078 C1076 1.391 . S
C1078 C1079 1.400 . S
C1079 C1078 1.400 . S
C1079 C1080 1.398 . S
C1079 C1085 1.491 . S
C1080 H1071 0.950 . S
C1080 C1079 1.398 . S
C1080 C1081 1.391 . S
C1081 H1069 0.950 . S
C1081 C1077 1.393 . S
C1081 C1080 1.391 . S
C1082 H1072 0.950 . S
C1082 C1083 1.386 . S
C1082 C1084 1.391 . S
C1083 C1082 1.386 . S
C1083 C1087 1.393 . S
C1084 H1073 0.950 . S
C1084 C1082 1.391 . S
C1084 C1085 1.400 . S
C1085 C1079 1.491 . S
C1085 C1084 1.400 . S
C1085 C1086 1.398 . S
C1086 H1074 0.950 . S
C1086 C1085 1.398 . S
C1086 C1087 1.391 . S
C1087 H1075 0.950 . S
C1087 C1083 1.393 . S
C1087 C1086 1.391 . S
H1088 C1096 0.950 . S
H1089 C1101 0.950 . S
H1090 C1098 0.950 . S
H1091 C1100 0.950 . S
H1092 C1102 0.950 . S
H1093 C1104 0.950 . S
H1094 C1106 0.950 . S
H1095 C1107 0.950 . S
C1096 H1088 0.950 . S
C1096 C1097 1.386 . S
C1096 C1098 1.391 . S
C1097 C1096 1.386 . S
C1097 C1101 1.393 . S
C1098 H1090 0.950 . S
C1098 C1096 1.391 . S
C1098 C1099 1.400 . S
C1099 C1098 1.400 . S
C1099 C1100 1.398 . S
C1099 C1105 1.491 . S
C1100 H1091 0.950 . S
C1100 C1099 1.398 . S
C1100 C1101 1.391 . S
C1101 H1089 0.950 . S
C1101 C1097 1.393 . S
C1101 C1100 1.391 . S
C1102 H1092 0.950 . S
C1102 C1103 1.386 . S
C1102 C1104 1.391 . S
C1103 C1102 1.386 . S
C1103 C1107 1.393 . S
C1104 H1093 0.950 . S
C1104 C1102 1.391 . S
C1104 C1105 1.400 . S
C1105 C1099 1.491 . S
C1105 C1104 1.400 . S
C1105 C1106 1.398 . S
C1106 H1094 0.950 . S
C1106 C1105 1.398 . S
C1106 C1107 1.391 . S
C1107 H1095 0.950 . S
C1107 C1103 1.393 . S
C1107 C1106 1.391 . S
H1108 C1116 0.950 . S
H1109 C1121 0.950 . S
H1110 C1118 0.964 . S
H1111 C1120 0.950 . S
H1112 C1122 0.950 . S
H1113 C1124 0.950 . S
H1114 C1126 0.950 . S
H1115 C1127 0.950 . S
C1116 H1108 0.950 . S
C1116 C1117 1.386 1_545 S
C1116 C1118 1.383 1_455 S
C1117 C1116 1.386 1_565 S
C1117 C1121 1.393 . S
C1118 H1110 0.964 . S
C1118 C1116 1.383 1_655 S
C1118 C1119 1.395 1_645 S
C1119 C1118 1.395 1_465 S
C1119 C1120 1.398 . S
C1119 C1125 1.491 1_465 S
C1120 H1111 0.950 . S
C1120 C1119 1.398 . S
C1120 C1121 1.391 . S
C1121 H1109 0.950 . S
C1121 C1117 1.393 . S
C1121 C1120 1.391 . S
C1122 H1112 0.950 . S
C1122 C1123 1.386 1_565 S
C1122 C1124 1.391 1_655 S
C1123 C1122 1.386 1_545 S
C1123 C1127 1.393 . S
C1124 H1113 0.950 . S
C1124 C1122 1.391 1_455 S
C1124 C1125 1.400 1_465 S
C1125 C1119 1.491 1_645 S
C1125 C1124 1.400 1_645 S
C1125 C1126 1.398 . S
C1126 H1114 0.950 . S
C1126 C1125 1.398 . S
C1126 C1127 1.391 . S
C1127 H1115 0.950 . S
C1127 C1123 1.393 . S
C1127 C1126 1.391 . S
H1128 C1136 0.950 . S
H1129 C1141 0.950 . S
H1130 C1138 0.950 . S
H1131 C1140 0.950 . S
H1132 C1142 0.950 . S
H1133 C1144 0.950 . S
H1134 C1146 0.950 . S
H1135 C1147 0.950 . S
C1136 H1128 0.950 . S
C1136 C1137 1.386 . S
C1136 C1138 1.391 . S
C1137 C1136 1.386 . S
C1137 C1141 1.393 . S
C1138 H1130 0.950 . S
C1138 C1136 1.391 . S
C1138 C1139 1.400 . S
C1139 C1138 1.400 . S
C1139 C1140 1.398 . S
C1139 C1145 1.491 . S
C1140 H1131 0.950 . S
C1140 C1139 1.398 . S
C1140 C1141 1.391 . S
C1141 H1129 0.950 . S
C1141 C1137 1.393 . S
C1141 C1140 1.391 . S
C1142 H1132 0.950 . S
C1142 C1143 1.386 . S
C1142 C1144 1.391 . S
C1143 C1142 1.386 . S
C1143 C1147 1.393 . S
C1144 H1133 0.950 . S
C1144 C1142 1.391 . S
C1144 C1145 1.400 . S
C1145 C1139 1.491 . S
C1145 C1144 1.400 . S
C1145 C1146 1.398 . S
C1146 H1134 0.950 . S
C1146 C1145 1.398 . S
C1146 C1147 1.391 . S
C1147 H1135 0.950 . S
C1147 C1143 1.393 . S
C1147 C1146 1.391 . S
H1148 C1156 0.950 . S
H1149 C1161 0.950 . S
H1150 C1158 0.950 . S
H1151 C1160 0.950 . S
H1152 C1162 0.950 . S
H1153 C1164 0.950 . S
H1154 C1166 0.950 . S
H1155 C1167 0.950 . S
C1156 H1148 0.950 . S
C1156 C1157 1.386 . S
C1156 C1158 1.391 . S
C1157 C1156 1.386 . S
C1157 C1161 1.393 1_545 S
C1158 H1150 0.950 . S
C1158 C1156 1.391 . S
C1158 C1159 1.400 . S
C1159 C1158 1.400 . S
C1159 C1160 1.398 1_545 S
C1159 C1165 1.491 1_544 S
C1160 H1151 0.950 . S
C1160 C1159 1.398 1_565 S
C1160 C1161 1.391 . S
C1161 H1149 0.950 . S
C1161 C1157 1.393 1_565 S
C1161 C1160 1.391 . S
C1162 H1152 0.950 . S
C1162 C1163 1.386 . S
C1162 C1164 1.391 . S
C1163 C1162 1.386 . S
C1163 C1167 1.393 1_565 S
C1164 H1153 0.950 . S
C1164 C1162 1.391 . S
C1164 C1165 1.400 . S
C1165 C1159 1.491 1_566 S
C1165 C1164 1.400 . S
C1165 C1166 1.398 1_565 S
C1166 H1154 0.950 . S
C1166 C1165 1.398 1_545 S
C1166 C1167 1.391 . S
C1167 H1155 0.950 . S
C1167 C1163 1.393 1_545 S
C1167 C1166 1.391 . S
H1168 C1176 0.950 . S
H1169 C1181 0.950 . S
H1170 C1178 0.950 . S
H1171 C1180 0.950 . S
H1172 C1182 0.950 . S
H1173 C1184 0.950 . S
H1174 C1186 0.950 . S
H1175 C1187 0.950 . S
C1176 H1168 0.950 . S
C1176 C1177 1.386 . S
C1176 C1178 1.391 . S
C1177 C1176 1.386 . S
C1177 C1181 1.393 . S
C1178 H1170 0.950 . S
C1178 C1176 1.391 . S
C1178 C1179 1.400 . S
C1179 C1178 1.400 . S
C1179 C1180 1.398 . S
C1179 C1185 1.491 . S
C1180 H1171 0.950 . S
C1180 C1179 1.398 . S
C1180 C1181 1.391 . S
C1181 H1169 0.950 . S
C1181 C1177 1.393 . S
C1181 C1180 1.391 . S
C1182 H1172 0.950 . S
C1182 C1183 1.386 . S
C1182 C1184 1.391 . S
C1183 C1182 1.386 . S
C1183 C1187 1.393 . S
C1184 H1173 0.950 . S
C1184 C1182 1.391 . S
C1184 C1185 1.400 . S
C1185 C1179 1.491 . S
C1185 C1184 1.400 . S
C1185 C1186 1.398 . S
C1186 H1174 0.950 . S
C1186 C1185 1.398 . S
C1186 C1187 1.391 . S
C1187 H1175 0.950 . S
C1187 C1183 1.393 . S
C1187 C1186 1.391 . S
H1188 C1196 0.950 . S
H1189 C1201 0.950 . S
H1190 C1198 0.950 . S
H1191 C1200 0.950 . S
H1192 C1202 0.950 . S
H1193 C1204 0.950 . S
H1194 C1206 0.950 . S
H1195 C1207 0.950 . S
C1196 H1188 0.950 . S
C1196 C1197 1.386 . S
C1196 C1198 1.391 . S
C1197 C1196 1.386 . S
C1197 C1201 1.393 1_565 S
C1198 H1190 0.950 . S
C1198 C1196 1.391 . S
C1198 C1199 1.400 . S
C1199 C1198 1.400 . S
C1199 C1200 1.398 1_565 S
C1199 C1205 1.491 1_565 S
C1200 H1191 0.950 . S
C1200 C1199 1.398 1_545 S
C1200 C1201 1.391 . S
C1201 H1189 0.950 . S
C1201 C1197 1.393 1_545 S
C1201 C1200 1.391 . S
C1202 H1192 0.950 . S
C1202 C1203 1.386 . S
C1202 C1204 1.391 . S
C1203 C1202 1.386 . S
C1203 C1207 1.393 1_545 S
C1204 H1193 0.950 . S
C1204 C1202 1.391 . S
C1204 C1205 1.400 . S
C1205 C1199 1.491 1_545 S
C1205 C1204 1.400 . S
C1205 C1206 1.398 1_545 S
C1206 H1194 0.950 . S
C1206 C1205 1.398 1_565 S
C1206 C1207 1.391 . S
C1207 H1195 0.950 . S
C1207 C1203 1.393 1_565 S
C1207 C1206 1.391 . S
H1208 C1216 0.950 . S
H1209 C1221 0.950 . S
H1210 C1218 0.950 . S
H1211 C1220 0.950 . S
H1212 C1222 0.950 . S
H1213 C1224 0.950 . S
H1214 C1226 0.950 . S
H1215 C1227 0.950 . S
C1216 H1208 0.950 . S
C1216 C1217 1.386 . S
C1216 C1218 1.391 . S
C1217 C1216 1.386 . S
C1217 C1221 1.393 . S
C1218 H1210 0.950 . S
C1218 C1216 1.391 . S
C1218 C1219 1.400 . S
C1219 C1218 1.400 . S
C1219 C1220 1.398 . S
C1219 C1225 1.491 . S
C1220 H1211 0.950 . S
C1220 C1219 1.398 . S
C1220 C1221 1.391 . S
C1221 H1209 0.950 . S
C1221 C1217 1.393 . S
C1221 C1220 1.391 . S
C1222 H1212 0.950 . S
C1222 C1223 1.386 . S
C1222 C1224 1.391 . S
C1223 C1222 1.386 . S
C1223 C1227 1.393 . S
C1224 H1213 0.950 . S
C1224 C1222 1.391 . S
C1224 C1225 1.400 . S
C1225 C1219 1.491 . S
C1225 C1224 1.400 . S
C1225 C1226 1.398 . S
C1226 H1214 0.950 . S
C1226 C1225 1.398 . S
C1226 C1227 1.391 . S
C1227 H1215 0.950 . S
C1227 C1223 1.393 . S
C1227 C1226 1.391 . S
H1228 C1236 0.950 . S
H1229 C1241 0.950 . S
H1230 C1238 0.950 1_655 S
H1231 C1240 0.936 1_554 S
H1232 C1242 0.950 . S
H1233 C1244 0.950 1_455 S
H1234 C1246 0.950 . S
H1235 C1247 0.950 . S
C1236 H1228 0.950 . S
C1236 C1237 1.386 1_565 S
C1236 C1238 1.391 . S
C1237 C1236 1.386 1_545 S
C1237 C1241 1.393 . S
C1238 H1230 0.950 1_455 S
C1238 C1236 1.391 . S
C1238 C1239 1.400 1_565 S
C1239 C1238 1.400 1_545 S
C1239 C1240 1.398 . S
C1239 C1245 1.491 1_446 S
C1240 H1231 0.936 1_556 S
C1240 C1239 1.398 . S
C1240 C1241 1.391 . S
C1241 H1229 0.950 . S
C1241 C1237 1.393 . S
C1241 C1240 1.391 . S
C1242 H1232 0.950 . S
C1242 C1243 1.386 1_545 S
C1242 C1244 1.391 . S
C1243 C1242 1.386 1_565 S
C1243 C1247 1.393 . S
C1244 H1233 0.950 1_655 S
C1244 C1242 1.391 . S
C1244 C1245 1.400 1_545 S
C1245 C1239 1.491 1_664 S
C1245 C1244 1.400 1_565 S
C1245 C1246 1.398 . S
C1246 H1234 0.950 . S
C1246 C1245 1.398 . S
C1246 C1247 1.391 . S
C1247 H1235 0.950 . S
C1247 C1243 1.393 . S
C1247 C1246 1.391 . S
H1248 C1256 0.950 . S
H1249 C1261 0.950 . S
H1250 C1258 0.950 . S
H1251 C1260 0.950 . S
H1252 C1262 0.950 . S
H1253 C1264 0.950 . S
H1254 C1266 0.950 . S
H1255 C1267 0.950 . S
C1256 H1248 0.950 . S
C1256 C1257 1.386 . S
C1256 C1258 1.391 . S
C1257 C1256 1.386 . S
C1257 C1261 1.393 . S
C1258 H1250 0.950 . S
C1258 C1256 1.391 . S
C1258 C1259 1.400 . S
C1259 C1258 1.400 . S
C1259 C1260 1.398 . S
C1259 C1265 1.491 . S
C1260 H1251 0.950 . S
C1260 C1259 1.398 . S
C1260 C1261 1.391 . S
C1261 H1249 0.950 . S
C1261 C1257 1.393 . S
C1261 C1260 1.391 . S
C1262 H1252 0.950 . S
C1262 C1263 1.386 . S
C1262 C1264 1.391 . S
C1263 C1262 1.386 . S
C1263 C1267 1.393 . S
C1264 H1253 0.950 . S
C1264 C1262 1.391 . S
C1264 C1265 1.400 . S
C1265 C1259 1.491 . S
C1265 C1264 1.400 . S
C1265 C1266 1.398 . S
C1266 H1254 0.950 . S
C1266 C1265 1.398 . S
C1266 C1267 1.391 . S
C1267 H1255 0.950 . S
C1267 C1263 1.393 . S
C1267 C1266 1.391 . S
H1268 C1276 0.950 . S
H1269 C1281 0.950 . S
H1270 C1278 0.950 . S
H1271 C1280 0.950 . S
H1272 C1282 0.950 . S
H1273 C1284 0.950 . S
H1274 C1286 0.950 . S
H1275 C1287 0.950 . S
C1276 H1268 0.950 . S
C1276 C1277 1.386 . S
C1276 C1278 1.391 . S
C1277 C1276 1.386 . S
C1277 C1281 1.393 . S
C1278 H1270 0.950 . S
C1278 C1276 1.391 . S
C1278 C1279 1.400 . S
C1279 C1278 1.400 . S
C1279 C1280 1.398 . S
C1279 C1285 1.491 . S
C1280 H1271 0.950 . S
C1280 C1279 1.398 . S
C1280 C1281 1.391 . S
C1281 H1269 0.950 . S
C1281 C1277 1.393 . S
C1281 C1280 1.391 . S
C1282 H1272 0.950 . S
C1282 C1283 1.386 . S
C1282 C1284 1.391 . S
C1283 C1282 1.386 . S
C1283 C1287 1.393 . S
C1284 H1273 0.950 . S
C1284 C1282 1.391 . S
C1284 C1285 1.400 . S
C1285 C1279 1.491 . S
C1285 C1284 1.400 . S
C1285 C1286 1.398 . S
C1286 H1274 0.950 . S
C1286 C1285 1.398 . S
C1286 C1287 1.391 . S
C1287 H1275 0.950 . S
C1287 C1283 1.393 . S
C1287 C1286 1.391 . S
H1288 C1296 0.950 . S
H1289 C1301 0.950 . S
H1290 C1298 0.950 . S
H1291 C1300 0.950 . S
H1292 C1302 0.950 . S
H1293 C1304 0.950 . S
H1294 C1306 0.950 . S
H1295 C1307 0.950 . S
C1296 H1288 0.950 . S
C1296 C1297 1.386 . S
C1296 C1298 1.391 . S
C1297 C1296 1.386 . S
C1297 C1301 1.393 . S
C1298 H1290 0.950 . S
C1298 C1296 1.391 . S
C1298 C1299 1.400 . S
C1299 C1298 1.400 . S
C1299 C1300 1.398 . S
C1299 C1305 1.491 . S
C1300 H1291 0.950 . S
C1300 C1299 1.398 . S
C1300 C1301 1.391 . S
C1301 H1289 0.950 . S
C1301 C1297 1.393 . S
C1301 C1300 1.391 . S
C1302 H1292 0.950 . S
C1302 C1303 1.386 . S
C1302 C1304 1.391 . S
C1303 C1302 1.386 . S
C1303 C1307 1.393 . S
C1304 H1293 0.950 . S
C1304 C1302 1.391 . S
C1304 C1305 1.400 . S
C1305 C1299 1.491 . S
C1305 C1304 1.400 . S
C1305 C1306 1.398 . S
C1306 H1294 0.950 . S
C1306 C1305 1.398 . S
C1306 C1307 1.391 . S
C1307 H1295 0.950 . S
C1307 C1303 1.393 . S
C1307 C1306 1.391 . S
H1308 C1316 0.950 . S
H1309 C1321 0.950 . S
H1310 C1318 0.950 . S
H1311 C1320 0.950 . S
H1312 C1322 0.950 . S
H1313 C1324 0.950 . S
H1314 C1326 0.950 . S
H1315 C1327 0.950 . S
C1316 H1308 0.950 . S
C1316 C1317 1.386 . S
C1316 C1318 1.391 . S
C1317 C1316 1.386 . S
C1317 C1321 1.393 . S
C1318 H1310 0.950 . S
C1318 C1316 1.391 . S
C1318 C1319 1.400 . S
C1319 C1318 1.400 . S
C1319 C1320 1.398 . S
C1319 C1325 1.491 . S
C1320 H1311 0.950 . S
C1320 C1319 1.398 . S
C1320 C1321 1.391 . S
C1321 H1309 0.950 . S
C1321 C1317 1.393 . S
C1321 C1320 1.391 . S
C1322 H1312 0.950 . S
C1322 C1323 1.386 . S
C1322 C1324 1.391 . S
C1323 C1322 1.386 . S
C1323 C1327 1.393 . S
C1324 H1313 0.950 . S
C1324 C1322 1.391 . S
C1324 C1325 1.400 . S
C1325 C1319 1.491 . S
C1325 C1324 1.400 . S
C1325 C1326 1.398 . S
C1326 H1314 0.950 . S
C1326 C1325 1.398 . S
C1326 C1327 1.391 . S
C1327 H1315 0.950 . S
C1327 C1323 1.393 . S
C1327 C1326 1.391 . S
H1328 C1336 0.950 . S
H1329 C1341 0.950 . S
H1330 C1338 0.900 1_556 S
H1331 C1340 0.950 . S
H1332 C1342 0.950 . S
H1333 C1344 0.950 . S
H1334 C1346 0.950 . S
H1335 C1347 0.950 . S
C1336 H1328 0.950 . S
C1336 C1337 1.386 . S
C1336 C1338 1.391 . S
C1337 C1336 1.386 . S
C1337 C1341 1.393 . S
C1338 H1330 0.900 1_554 S
C1338 C1336 1.391 . S
C1338 C1339 1.400 . S
C1339 C1338 1.400 . S
C1339 C1340 1.398 . S
C1339 C1345 1.491 1_554 S
C1340 H1331 0.950 . S
C1340 C1339 1.398 . S
C1340 C1341 1.391 . S
C1341 H1329 0.950 . S
C1341 C1337 1.393 . S
C1341 C1340 1.391 . S
C1342 H1332 0.950 . S
C1342 C1343 1.386 . S
C1342 C1344 1.391 . S
C1343 C1342 1.386 . S
C1343 C1347 1.393 . S
C1344 H1333 0.950 . S
C1344 C1342 1.391 . S
C1344 C1345 1.400 . S
C1345 C1339 1.491 1_556 S
C1345 C1344 1.400 . S
C1345 C1346 1.398 . S
C1346 H1334 0.950 . S
C1346 C1345 1.398 . S
C1346 C1347 1.391 . S
C1347 H1335 0.950 . S
C1347 C1343 1.393 . S
C1347 C1346 1.391 . S
H1348 C1356 0.950 . S
H1349 C1361 0.950 1_655 S
H1350 C1358 0.950 . S
H1351 C1360 0.950 . S
H1352 C1362 0.950 . S
H1353 C1364 0.950 . S
H1354 C1366 0.950 . S
H1355 C1367 0.950 1_455 S
C1356 H1348 0.950 . S
C1356 C1357 1.386 . S
C1356 C1358 1.391 . S
C1357 C1356 1.386 . S
C1357 C1361 1.393 . S
C1358 H1350 0.950 . S
C1358 C1356 1.391 . S
C1358 C1359 1.400 . S
C1359 C1358 1.400 . S
C1359 C1360 1.398 1_455 S
C1359 C1365 1.491 1_455 S
C1360 H1351 0.950 . S
C1360 C1359 1.398 1_655 S
C1360 C1361 1.391 1_655 S
C1361 H1349 0.950 1_455 S
C1361 C1357 1.393 . S
C1361 C1360 1.391 1_455 S
C1362 H1352 0.950 . S
C1362 C1363 1.386 . S
C1362 C1364 1.391 . S
C1363 C1362 1.386 . S
C1363 C1367 1.393 . S
C1364 H1353 0.950 . S
C1364 C1362 1.391 . S
C1364 C1365 1.400 . S
C1365 C1359 1.491 1_655 S
C1365 C1364 1.400 . S
C1365 C1366 1.398 1_655 S
C1366 H1354 0.950 . S
C1366 C1365 1.398 1_455 S
C1366 C1367 1.391 1_455 S
C1367 H1355 0.950 1_655 S
C1367 C1363 1.393 . S
C1367 C1366 1.391 1_655 S
H1368 C1376 0.950 . S
H1369 C1381 0.950 . S
H1370 C1378 0.950 . S
H1371 C1380 0.950 . S
H1372 C1382 0.950 . S
H1373 C1384 0.976 . S
H1374 C1386 0.950 . S
H1375 C1387 0.950 . S
C1376 H1368 0.950 . S
C1376 C1377 1.386 . S
C1376 C1378 1.391 . S
C1377 C1376 1.386 . S
C1377 C1381 1.393 1_455 S
C1378 H1370 0.950 . S
C1378 C1376 1.391 . S
C1378 C1379 1.400 . S
C1379 C1378 1.400 . S
C1379 C1380 1.398 1_455 S
C1379 C1385 1.491 1_454 S
C1380 H1371 0.950 . S
C1380 C1379 1.398 1_655 S
C1380 C1381 1.391 . S
C1381 H1369 0.950 . S
C1381 C1377 1.393 1_655 S
C1381 C1380 1.391 . S
C1382 H1372 0.950 . S
C1382 C1383 1.386 . S
C1382 C1384 1.391 . S
C1383 C1382 1.386 . S
C1383 C1387 1.393 1_655 S
C1384 H1373 0.976 . S
C1384 C1382 1.391 . S
C1384 C1385 1.400 . S
C1385 C1379 1.491 1_656 S
C1385 C1384 1.400 . S
C1385 C1386 1.398 1_655 S
C1386 H1374 0.950 . S
C1386 C1385 1.398 1_455 S
C1386 C1387 1.391 . S
C1387 H1375 0.950 . S
C1387 C1383 1.393 1_455 S
C1387 C1386 1.391 . S
H1388 C1396 0.950 . S
H1389 C1401 0.950 . S
H1390 C1398 0.950 . S
H1391 C1400 0.950 . S
H1392 C1402 0.950 . S
H1393 C1404 0.950 . S
H1394 C1406 0.950 . S
H1395 C1407 0.950 . S
C1396 H1388 0.950 . S
C1396 C1397 1.386 . S
C1396 C1398 1.391 . S
C1397 C1396 1.386 . S
C1397 C1401 1.393 . S
C1398 H1390 0.950 . S
C1398 C1396 1.391 . S
C1398 C1399 1.400 . S
C1399 C1398 1.400 . S
C1399 C1400 1.398 . S
C1399 C1405 1.491 . S
C1400 H1391 0.950 . S
C1400 C1399 1.398 . S
C1400 C1401 1.391 . S
C1401 H1389 0.950 . S
C1401 C1397 1.393 . S
C1401 C1400 1.391 . S
C1402 H1392 0.950 . S
C1402 C1403 1.386 . S
C1402 C1404 1.391 . S
C1403 C1402 1.386 . S
C1403 C1407 1.393 . S
C1404 H1393 0.950 . S
C1404 C1402 1.391 . S
C1404 C1405 1.400 . S
C1405 C1399 1.491 . S
C1405 C1404 1.400 . S
C1405 C1406 1.398 . S
C1406 H1394 0.950 . S
C1406 C1405 1.398 . S
C1406 C1407 1.391 . S
C1407 H1395 0.950 . S
C1407 C1403 1.393 . S
C1407 C1406 1.391 . S
H1408 C1416 0.950 . S
H1409 C1421 0.950 . S
H1410 C1418 0.950 . S
H1411 C1420 0.950 . S
H1412 C1422 0.950 . S
H1413 C1424 0.950 . S
H1414 C1426 0.950 . S
H1415 C1427 0.950 . S
C1416 H1408 0.950 . S
C1416 C1417 1.386 . S
C1416 C1418 1.391 . S
C1417 C1416 1.386 . S
C1417 C1421 1.393 . S
C1418 H1410 0.950 . S
C1418 C1416 1.391 . S
C1418 C1419 1.400 . S
C1419 C1418 1.400 . S
C1419 C1420 1.398 . S
C1419 C1425 1.491 . S
C1420 H1411 0.950 . S
C1420 C1419 1.398 . S
C1420 C1421 1.391 . S
C1421 H1409 0.950 . S
C1421 C1417 1.393 . S
C1421 C1420 1.391 . S
C1422 H1412 0.950 . S
C1422 C1423 1.386 . S
C1422 C1424 1.391 . S
C1423 C1422 1.386 . S
C1423 C1427 1.393 . S
C1424 H1413 0.950 . S
C1424 C1422 1.391 . S
C1424 C1425 1.400 . S
C1425 C1419 1.491 . S
C1425 C1424 1.400 . S
C1425 C1426 1.398 . S
C1426 H1414 0.950 . S
C1426 C1425 1.398 . S
C1426 C1427 1.391 . S
C1427 H1415 0.950 . S
C1427 C1423 1.393 . S
C1427 C1426 1.391 . S
H1428 C1436 0.950 . S
H1429 C1441 0.950 . S
H1430 C1438 0.950 . S
H1431 C1440 0.950 . S
H1432 C1442 0.950 . S
H1433 C1444 0.950 . S
H1434 C1446 0.950 . S
H1435 C1447 0.950 . S
C1436 H1428 0.950 . S
C1436 C1437 1.386 . S
C1436 C1438 1.391 . S
C1437 C1436 1.386 . S
C1437 C1441 1.393 . S
C1438 H1430 0.950 . S
C1438 C1436 1.391 . S
C1438 C1439 1.400 . S
C1439 C1438 1.400 . S
C1439 C1440 1.398 . S
C1439 C1445 1.491 . S
C1440 H1431 0.950 . S
C1440 C1439 1.398 . S
C1440 C1441 1.391 . S
C1441 H1429 0.950 . S
C1441 C1437 1.393 . S
C1441 C1440 1.391 . S
C1442 H1432 0.950 . S
C1442 C1443 1.386 . S
C1442 C1444 1.391 . S
C1443 C1442 1.386 . S
C1443 C1447 1.393 . S
C1444 H1433 0.950 . S
C1444 C1442 1.391 . S
C1444 C1445 1.400 . S
C1445 C1439 1.491 . S
C1445 C1444 1.400 . S
C1445 C1446 1.398 . S
C1446 H1434 0.950 . S
C1446 C1445 1.398 . S
C1446 C1447 1.391 . S
C1447 H1435 0.950 . S
C1447 C1443 1.393 . S
C1447 C1446 1.391 . S
H1448 C1456 0.950 . S
H1449 C1461 0.950 . S
H1450 C1458 0.950 . S
H1451 C1460 0.950 . S
H1452 C1462 0.950 . S
H1453 C1464 0.950 . S
H1454 C1466 0.950 . S
H1455 C1467 0.950 . S
C1456 H1448 0.950 . S
C1456 C1457 1.386 . S
C1456 C1458 1.391 . S
C1457 C1456 1.386 . S
C1457 C1461 1.393 . S
C1458 H1450 0.950 . S
C1458 C1456 1.391 . S
C1458 C1459 1.400 . S
C1459 C1458 1.400 . S
C1459 C1460 1.398 . S
C1459 C1465 1.491 . S
C1460 H1451 0.950 . S
C1460 C1459 1.398 . S
C1460 C1461 1.391 . S
C1461 H1449 0.950 . S
C1461 C1457 1.393 . S
C1461 C1460 1.391 . S
C1462 H1452 0.950 . S
C1462 C1463 1.386 . S
C1462 C1464 1.391 . S
C1463 C1462 1.386 . S
C1463 C1467 1.393 . S
C1464 H1453 0.950 . S
C1464 C1462 1.391 . S
C1464 C1465 1.400 . S
C1465 C1459 1.491 . S
C1465 C1464 1.400 . S
C1465 C1466 1.398 . S
C1466 H1454 0.950 . S
C1466 C1465 1.398 . S
C1466 C1467 1.391 . S
C1467 H1455 0.950 . S
C1467 C1463 1.393 . S
C1467 C1466 1.391 . S
H1468 C1476 0.950 . S
H1469 C1481 0.950 . S
H1470 C1478 0.950 . S
H1471 C1480 0.950 . S
H1472 C1482 0.950 . S
H1473 C1484 0.950 . S
H1474 C1486 0.950 . S
H1475 C1487 0.950 . S
C1476 H1468 0.950 . S
C1476 C1477 1.386 . S
C1476 C1478 1.391 . S
C1477 C1476 1.386 . S
C1477 C1481 1.393 . S
C1478 H1470 0.950 . S
C1478 C1476 1.391 . S
C1478 C1479 1.400 . S
C1479 C1478 1.400 . S
C1479 C1480 1.398 . S
C1479 C1485 1.491 . S
C1480 H1471 0.950 . S
C1480 C1479 1.398 . S
C1480 C1481 1.391 . S
C1481 H1469 0.950 . S
C1481 C1477 1.393 . S
C1481 C1480 1.391 . S
C1482 H1472 0.950 . S
C1482 C1483 1.386 . S
C1482 C1484 1.391 . S
C1483 C1482 1.386 . S
C1483 C1487 1.393 . S
C1484 H1473 0.950 . S
C1484 C1482 1.391 . S
C1484 C1485 1.400 . S
C1485 C1479 1.491 . S
C1485 C1484 1.400 . S
C1485 C1486 1.398 . S
C1486 H1474 0.950 . S
C1486 C1485 1.398 . S
C1486 C1487 1.391 . S
C1487 H1475 0.950 . S
C1487 C1483 1.393 . S
C1487 C1486 1.391 . S
H1488 C1496 0.950 . S
H1489 C1501 0.950 . S
H1490 C1498 0.950 . S
H1491 C1500 0.950 . S
H1492 C1502 0.950 . S
H1493 C1504 0.950 . S
H1494 C1506 0.950 . S
H1495 C1507 0.950 . S
C1496 H1488 0.950 . S
C1496 C1497 1.386 . S
C1496 C1498 1.391 . S
C1497 C1496 1.386 . S
C1497 C1501 1.393 . S
C1498 H1490 0.950 . S
C1498 C1496 1.391 . S
C1498 C1499 1.400 . S
C1499 C1498 1.400 . S
C1499 C1500 1.398 . S
C1499 C1505 1.491 . S
C1500 H1491 0.950 . S
C1500 C1499 1.398 . S
C1500 C1501 1.391 . S
C1501 H1489 0.950 . S
C1501 C1497 1.393 . S
C1501 C1500 1.391 . S
C1502 H1492 0.950 . S
C1502 C1503 1.386 . S
C1502 C1504 1.391 . S
C1503 C1502 1.386 . S
C1503 C1507 1.393 . S
C1504 H1493 0.950 . S
C1504 C1502 1.391 . S
C1504 C1505 1.400 . S
C1505 C1499 1.491 . S
C1505 C1504 1.400 . S
C1505 C1506 1.398 . S
C1506 H1494 0.950 . S
C1506 C1505 1.398 . S
C1506 C1507 1.391 . S
C1507 H1495 0.950 . S
C1507 C1503 1.393 . S
C1507 C1506 1.391 . S
H1508 C1516 0.950 . S
H1509 C1521 0.950 . S
H1510 C1518 0.950 . S
H1511 C1520 0.950 . S
H1512 C1522 0.950 . S
H1513 C1524 0.950 . S
H1514 C1526 0.950 . S
H1515 C1527 0.950 . S
C1516 H1508 0.950 . S
C1516 C1517 1.386 . S
C1516 C1518 1.391 . S
C1517 C1516 1.386 . S
C1517 C1521 1.393 . S
C1518 H1510 0.950 . S
C1518 C1516 1.391 . S
C1518 C1519 1.400 . S
C1519 C1518 1.400 . S
C1519 C1520 1.398 . S
C1519 C1525 1.491 . S
C1520 H1511 0.950 . S
C1520 C1519 1.398 . S
C1520 C1521 1.391 . S
C1521 H1509 0.950 . S
C1521 C1517 1.393 . S
C1521 C1520 1.391 . S
C1522 H1512 0.950 . S
C1522 C1523 1.386 . S
C1522 C1524 1.391 . S
C1523 C1522 1.386 . S
C1523 C1527 1.393 . S
C1524 H1513 0.950 . S
C1524 C1522 1.391 . S
C1524 C1525 1.400 . S
C1525 C1519 1.491 . S
C1525 C1524 1.400 . S
C1525 C1526 1.398 . S
C1526 H1514 0.950 . S
C1526 C1525 1.398 . S
C1526 C1527 1.391 . S
C1527 H1515 0.950 . S
C1527 C1523 1.393 . S
C1527 C1526 1.391 . S
H1528 C1536 0.950 . S
H1529 C1541 0.950 . S
H1530 C1538 0.950 . S
H1531 C1540 0.950 . S
H1532 C1542 0.950 . S
H1533 C1544 0.950 . S
H1534 C1546 0.950 . S
H1535 C1547 0.950 . S
C1536 H1528 0.950 . S
C1536 C1537 1.386 . S
C1536 C1538 1.391 . S
C1537 C1536 1.386 . S
C1537 C1541 1.393 . S
C1538 H1530 0.950 . S
C1538 C1536 1.391 . S
C1538 C1539 1.400 . S
C1539 C1538 1.400 . S
C1539 C1540 1.398 . S
C1539 C1545 1.491 . S
C1540 H1531 0.950 . S
C1540 C1539 1.398 . S
C1540 C1541 1.391 . S
C1541 H1529 0.950 . S
C1541 C1537 1.393 . S
C1541 C1540 1.391 . S
C1542 H1532 0.950 . S
C1542 C1543 1.386 . S
C1542 C1544 1.391 . S
C1543 C1542 1.386 . S
C1543 C1547 1.393 . S
C1544 H1533 0.950 . S
C1544 C1542 1.391 . S
C1544 C1545 1.400 . S
C1545 C1539 1.491 . S
C1545 C1544 1.400 . S
C1545 C1546 1.398 . S
C1546 H1534 0.950 . S
C1546 C1545 1.398 . S
C1546 C1547 1.391 . S
C1547 H1535 0.950 . S
C1547 C1543 1.393 . S
C1547 C1546 1.391 . S
H1548 C1556 0.950 . S
H1549 C1561 0.950 . S
H1550 C1558 0.950 . S
H1551 C1560 0.950 . S
H1552 C1562 0.950 . S
H1553 C1564 0.950 . S
H1554 C1566 0.950 . S
H1555 C1567 0.950 . S
C1556 H1548 0.950 . S
C1556 C1557 1.386 . S
C1556 C1558 1.391 . S
C1557 C1556 1.386 . S
C1557 C1561 1.393 . S
C1558 H1550 0.950 . S
C1558 C1556 1.391 . S
C1558 C1559 1.400 . S
C1559 C1558 1.400 . S
C1559 C1560 1.398 . S
C1559 C1565 1.491 . S
C1560 H1551 0.950 . S
C1560 C1559 1.398 . S
C1560 C1561 1.391 . S
C1561 H1549 0.950 . S
C1561 C1557 1.393 . S
C1561 C1560 1.391 . S
C1562 H1552 0.950 . S
C1562 C1563 1.386 . S
C1562 C1564 1.391 . S
C1563 C1562 1.386 . S
C1563 C1567 1.393 . S
C1564 H1553 0.950 . S
C1564 C1562 1.391 . S
C1564 C1565 1.400 . S
C1565 C1559 1.491 . S
C1565 C1564 1.400 . S
C1565 C1566 1.398 . S
C1566 H1554 0.950 . S
C1566 C1565 1.398 . S
C1566 C1567 1.391 . S
C1567 H1555 0.950 . S
C1567 C1563 1.393 . S
C1567 C1566 1.391 . S
H1568 C1576 0.950 . S
H1569 C1581 0.950 . S
H1570 C1578 0.950 . S
H1571 C1580 0.950 . S
H1572 C1582 0.950 . S
H1573 C1584 0.950 . S
H1574 C1586 0.950 . S
H1575 C1587 0.950 . S
C1576 H1568 0.950 . S
C1576 C1577 1.386 . S
C1576 C1578 1.391 . S
C1577 C1576 1.386 . S
C1577 C1581 1.393 . S
C1578 H1570 0.950 . S
C1578 C1576 1.391 . S
C1578 C1579 1.400 . S
C1579 C1578 1.400 . S
C1579 C1580 1.398 . S
C1579 C1585 1.491 . S
C1580 H1571 0.950 . S
C1580 C1579 1.398 . S
C1580 C1581 1.391 . S
C1581 H1569 0.950 . S
C1581 C1577 1.393 . S
C1581 C1580 1.391 . S
C1582 H1572 0.950 . S
C1582 C1583 1.386 . S
C1582 C1584 1.391 . S
C1583 C1582 1.386 . S
C1583 C1587 1.393 . S
C1584 H1573 0.950 . S
C1584 C1582 1.391 . S
C1584 C1585 1.400 . S
C1585 C1579 1.491 . S
C1585 C1584 1.400 . S
C1585 C1586 1.398 . S
C1586 H1574 0.950 . S
C1586 C1585 1.398 . S
C1586 C1587 1.391 . S
C1587 H1575 0.950 . S
C1587 C1583 1.393 . S
C1587 C1586 1.391 . S
H1588 C1596 0.950 . S
H1589 C1601 0.950 . S
H1590 C1598 0.950 . S
H1591 C1600 0.950 . S
H1592 C1602 0.950 . S
H1593 C1604 0.950 . S
H1594 C1606 0.950 . S
H1595 C1607 0.950 . S
C1596 H1588 0.950 . S
C1596 C1597 1.386 . S
C1596 C1598 1.391 . S
C1597 C1596 1.386 . S
C1597 C1601 1.393 . S
C1598 H1590 0.950 . S
C1598 C1596 1.391 . S
C1598 C1599 1.400 . S
C1599 C1598 1.400 . S
C1599 C1600 1.398 . S
C1599 C1605 1.491 . S
C1600 H1591 0.950 . S
C1600 C1599 1.398 . S
C1600 C1601 1.391 . S
C1601 H1589 0.950 . S
C1601 C1597 1.393 . S
C1601 C1600 1.391 . S
C1602 H1592 0.950 . S
C1602 C1603 1.386 . S
C1602 C1604 1.391 . S
C1603 C1602 1.386 . S
C1603 C1607 1.393 . S
C1604 H1593 0.950 . S
C1604 C1602 1.391 . S
C1604 C1605 1.400 . S
C1605 C1599 1.491 . S
C1605 C1604 1.400 . S
C1605 C1606 1.398 . S
C1606 H1594 0.950 . S
C1606 C1605 1.398 . S
C1606 C1607 1.391 . S
C1607 H1595 0.950 . S
C1607 C1603 1.393 . S
C1607 C1606 1.391 . S
H1608 C1616 0.950 . S
H1609 C1621 0.950 . S
H1610 C1618 0.950 . S
H1611 C1620 0.950 . S
H1612 C1622 0.950 . S
H1613 C1624 0.950 . S
H1614 C1626 0.950 . S
H1615 C1627 0.950 . S
C1616 H1608 0.950 . S
C1616 C1617 1.386 . S
C1616 C1618 1.391 . S
C1617 C1616 1.386 . S
C1617 C1621 1.393 . S
C1618 H1610 0.950 . S
C1618 C1616 1.391 . S
C1618 C1619 1.400 . S
C1619 C1618 1.400 . S
C1619 C1620 1.398 . S
C1619 C1625 1.491 . S
C1620 H1611 0.950 . S
C1620 C1619 1.398 . S
C1620 C1621 1.391 . S
C1621 H1609 0.950 . S
C1621 C1617 1.393 . S
C1621 C1620 1.391 . S
C1622 H1612 0.950 . S
C1622 C1623 1.386 . S
C1622 C1624 1.391 . S
C1623 C1622 1.386 . S
C1623 C1627 1.393 . S
C1624 H1613 0.950 . S
C1624 C1622 1.391 . S
C1624 C1625 1.400 . S
C1625 C1619 1.491 . S
C1625 C1624 1.400 . S
C1625 C1626 1.398 . S
C1626 H1614 0.950 . S
C1626 C1625 1.398 . S
C1626 C1627 1.391 . S
C1627 H1615 0.950 . S
C1627 C1623 1.393 . S
C1627 C1626 1.391 . S
H1628 C1636 0.950 . S
H1629 C1641 0.950 . S
H1630 C1638 0.950 . S
H1631 C1640 0.950 . S
H1632 C1642 0.950 . S
H1633 C1644 0.950 . S
H1634 C1646 0.950 . S
H1635 C1647 0.950 . S
C1636 H1628 0.950 . S
C1636 C1637 1.386 . S
C1636 C1638 1.391 . S
C1637 C1636 1.386 . S
C1637 C1641 1.393 . S
C1638 H1630 0.950 . S
C1638 C1636 1.391 . S
C1638 C1639 1.400 . S
C1639 C1638 1.400 . S
C1639 C1640 1.398 . S
C1639 C1645 1.491 . S
C1640 H1631 0.950 . S
C1640 C1639 1.398 . S
C1640 C1641 1.391 . S
C1641 H1629 0.950 . S
C1641 C1637 1.393 . S
C1641 C1640 1.391 . S
C1642 H1632 0.950 . S
C1642 C1643 1.386 . S
C1642 C1644 1.391 . S
C1643 C1642 1.386 . S
C1643 C1647 1.393 . S
C1644 H1633 0.950 . S
C1644 C1642 1.391 . S
C1644 C1645 1.400 . S
C1645 C1639 1.491 . S
C1645 C1644 1.400 . S
C1645 C1646 1.398 . S
C1646 H1634 0.950 . S
C1646 C1645 1.398 . S
C1646 C1647 1.391 . S
C1647 H1635 0.950 . S
C1647 C1643 1.393 . S
C1647 C1646 1.391 . S
H1648 C1656 0.950 . S
H1649 C1661 0.950 . S
H1650 C1658 0.950 . S
H1651 C1660 0.950 . S
H1652 C1662 0.950 . S
H1653 C1664 0.950 . S
H1654 C1666 0.950 . S
H1655 C1667 0.950 . S
C1656 H1648 0.950 . S
C1656 C1657 1.386 . S
C1656 C1658 1.391 . S
C1657 C1656 1.386 . S
C1657 C1661 1.393 . S
C1658 H1650 0.950 . S
C1658 C1656 1.391 . S
C1658 C1659 1.400 . S
C1659 C1658 1.400 . S
C1659 C1660 1.398 . S
C1659 C1665 1.491 . S
C1660 H1651 0.950 . S
C1660 C1659 1.398 . S
C1660 C1661 1.391 . S
C1661 H1649 0.950 . S
C1661 C1657 1.393 . S
C1661 C1660 1.391 . S
C1662 H1652 0.950 . S
C1662 C1663 1.386 . S
C1662 C1664 1.391 . S
C1663 C1662 1.386 . S
C1663 C1667 1.393 . S
C1664 H1653 0.950 . S
C1664 C1662 1.391 . S
C1664 C1665 1.400 . S
C1665 C1659 1.491 . S
C1665 C1664 1.400 . S
C1665 C1666 1.398 . S
C1666 H1654 0.950 . S
C1666 C1665 1.398 . S
C1666 C1667 1.391 . S
C1667 H1655 0.950 . S
C1667 C1663 1.393 . S
C1667 C1666 1.391 . S
H1668 C1676 0.950 . S
H1669 C1681 0.950 . S
H1670 C1678 0.950 . S
H1671 C1680 0.950 . S
H1672 C1682 0.950 . S
H1673 C1684 0.950 . S
H1674 C1686 0.950 . S
H1675 C1687 0.950 . S
C1676 H1668 0.950 . S
C1676 C1677 1.386 . S
C1676 C1678 1.391 . S
C1677 C1676 1.386 . S
C1677 C1681 1.393 . S
C1678 H1670 0.950 . S
C1678 C1676 1.391 . S
C1678 C1679 1.400 . S
C1679 C1678 1.400 . S
C1679 C1680 1.398 . S
C1679 C1685 1.491 . S
C1680 H1671 0.950 . S
C1680 C1679 1.398 . S
C1680 C1681 1.391 . S
C1681 H1669 0.950 . S
C1681 C1677 1.393 . S
C1681 C1680 1.391 . S
C1682 H1672 0.950 . S
C1682 C1683 1.386 . S
C1682 C1684 1.391 . S
C1683 C1682 1.386 . S
C1683 C1687 1.393 . S
C1684 H1673 0.950 . S
C1684 C1682 1.391 . S
C1684 C1685 1.400 . S
C1685 C1679 1.491 . S
C1685 C1684 1.400 . S
C1685 C1686 1.398 . S
C1686 H1674 0.950 . S
C1686 C1685 1.398 . S
C1686 C1687 1.391 . S
C1687 H1675 0.950 . S
C1687 C1683 1.393 . S
C1687 C1686 1.391 . S
H1688 C1696 0.950 . S
H1689 C1701 0.950 . S
H1690 C1698 0.950 . S
H1691 C1700 0.950 . S
H1692 C1702 0.950 . S
H1693 C1704 0.950 . S
H1694 C1706 0.950 . S
H1695 C1707 0.950 . S
C1696 H1688 0.950 . S
C1696 C1697 1.386 . S
C1696 C1698 1.391 . S
C1697 C1696 1.386 . S
C1697 C1701 1.393 . S
C1698 H1690 0.950 . S
C1698 C1696 1.391 . S
C1698 C1699 1.400 . S
C1699 C1698 1.400 . S
C1699 C1700 1.398 . S
C1699 C1705 1.491 . S
C1700 H1691 0.950 . S
C1700 C1699 1.398 . S
C1700 C1701 1.391 . S
C1701 H1689 0.950 . S
C1701 C1697 1.393 . S
C1701 C1700 1.391 . S
C1702 H1692 0.950 . S
C1702 C1703 1.386 . S
C1702 C1704 1.391 . S
C1703 C1702 1.386 . S
C1703 C1707 1.393 . S
C1704 H1693 0.950 . S
C1704 C1702 1.391 . S
C1704 C1705 1.400 . S
C1705 C1699 1.491 . S
C1705 C1704 1.400 . S
C1705 C1706 1.398 . S
C1706 H1694 0.950 . S
C1706 C1705 1.398 . S
C1706 C1707 1.391 . S
C1707 H1695 0.950 . S
C1707 C1703 1.393 . S
C1707 C1706 1.391 . S
H1708 C1716 0.950 . S
H1709 C1721 0.950 . S
H1710 C1718 0.950 . S
H1711 C1720 0.950 . S
H1712 C1722 0.950 . S
H1713 C1724 0.950 . S
H1714 C1726 0.950 . S
H1715 C1727 0.950 . S
C1716 H1708 0.950 . S
C1716 C1717 1.386 . S
C1716 C1718 1.391 . S
C1717 C1716 1.386 . S
C1717 C1721 1.393 . S
C1718 H1710 0.950 . S
C1718 C1716 1.391 . S
C1718 C1719 1.400 . S
C1719 C1718 1.400 . S
C1719 C1720 1.398 . S
C1719 C1725 1.491 . S
C1720 H1711 0.950 . S
C1720 C1719 1.398 . S
C1720 C1721 1.391 . S
C1721 H1709 0.950 . S
C1721 C1717 1.393 . S
C1721 C1720 1.391 . S
C1722 H1712 0.950 . S
C1722 C1723 1.386 . S
C1722 C1724 1.391 . S
C1723 C1722 1.386 . S
C1723 C1727 1.393 . S
C1724 H1713 0.950 . S
C1724 C1722 1.391 . S
C1724 C1725 1.400 . S
C1725 C1719 1.491 . S
C1725 C1724 1.400 . S
C1725 C1726 1.398 . S
C1726 H1714 0.950 . S
C1726 C1725 1.398 . S
C1726 C1727 1.391 . S
C1727 H1715 0.950 . S
C1727 C1723 1.393 . S
C1727 C1726 1.391 . S
C457 C385 1.337 . S
C463 C8 1.252 . S
C477 C21 1.203 1_655 S
C483 C119 1.217 . S
C497 C357 1.338 . S
C503 C36 1.269 . S
C517 C49 1.205 . S
C523 C147 1.216 . S
C537 C64 1.276 . S
C543 C413 1.339 . S
C557 C77 1.199 . S
C563 C203 1.217 . S
C577 C92 1.286 . S
C583 C441 1.338 . S
C597 C105 1.206 1_655 S
C603 C175 1.217 . S
C617 C274 1.233 . S
C623 C120 1.216 . S
C637 C7 1.171 . S
C643 C134 1.136 1_455 S
C657 C246 1.229 . S
C663 C148 1.194 . S
C677 C162 1.103 . S
C683 C35 1.170 . S
C697 C302 1.205 . S
C703 C176 1.228 . S
C717 C91 1.174 . S
C723 C190 1.112 . S
C737 C204 1.196 . S
C743 C330 1.234 . S
C757 C63 1.172 . S
C763 C218 1.133 1_455 S
C777 C232 1.287 . S
C783 C161 1.337 . S
C797 C245 1.207 . S
C803 C343 1.217 . S
C817 C133 1.338 . S
C823 C260 1.260 . S
C837 C371 1.217 . S
C843 C273 1.200 1_455 S
C857 C189 1.338 . S
C863 C288 1.275 . S
C877 C427 1.217 . S
C883 C301 1.201 1_455 S
C897 C217 1.336 . S
C903 C316 1.262 . S
C917 C329 1.196 . S
C923 C399 1.218 . S
C937 C50 1.212 . S
C943 C344 1.201 . S
C957 C358 1.132 . S
C963 C231 1.169 . S
C977 C372 1.227 . S
C983 C22 1.205 . S
C997 C386 1.121 1_655 S
C1003 C259 1.173 . S
C1017 C400 1.193 . S
C1023 C78 1.228 . S
C1037 C414 1.100 1_655 S
C1043 C315 1.173 . S
C1057 C428 1.195 . S
C1063 C106 1.232 . S
C1077 C442 1.135 . S
C1083 C287 1.170 . S
C1097 C349 1.399 . S
C1103 C13 1.396 . S
C1117 C25 1.510 . S
C1123 C139 1.436 . S
C1137 C377 1.370 . S
C1143 C41 1.366 . S
C1157 C53 1.499 . S
C1163 C167 1.435 . S
C1177 C405 1.404 . S
C1183 C69 1.400 . S
C1197 C81 1.498 . S
C1203 C195 1.434 . S
C1217 C433 1.394 . S
C1223 C97 1.390 . S
C1237 C109 1.510 . S
C1243 C223 1.433 . S
C1257 C125 1.401 . S
C1263 C237 1.397 . S
C1277 C153 1.372 . S
C1283 C265 1.368 . S
C1297 C181 1.404 . S
C1303 C293 1.400 . S
C1317 C209 1.376 . S
C1323 C321 1.372 . S
C1337 C249 1.499 . S
C1343 C363 1.405 . S
C1357 C391 1.440 . S
C1363 C277 1.506 . S
C1377 C419 1.436 . S
C1383 C305 1.499 . S
C1397 C333 1.507 . S
C1403 C447 1.440 . S
C1417 C11 1.190 . S
C1423 C83 1.145 . S
C1437 C27 1.139 . S
C1443 C95 1.196 . S
C1457 C39 1.206 . S
C1463 C111 1.144 . S
C1477 C67 1.193 . S
C1483 C55 1.172 . S
C1497 C123 1.226 . S
C1503 C193 1.215 . S
C1517 C137 1.232 . S
C1523 C207 1.215 . S
C1537 C151 1.205 . S
C1543 C221 1.235 . S
C1557 C165 1.229 . S
C1563 C179 1.218 . S
C1577 C235 1.202 . S
C1583 C307 1.160 . S
C1597 C319 1.198 . S
C1603 C251 1.167 . S
C1617 C263 1.189 . S
C1623 C335 1.146 . S
C1637 C279 1.169 . S
C1643 C291 1.196 . S
C1657 C417 1.217 . S
C1663 C347 1.230 . S
C1677 C361 1.215 . S
C1683 C431 1.227 . S
C1697 C445 1.229 . S
C1703 C375 1.219 . S
C1717 C389 1.214 . S
C1723 C403 1.230 . S
