# Generated by pormake.
# Topology sml, (6)-cn, num edge types: 1
# Building blocks:
#     Node 0, Type 0, BuildingBlock: VOLQOD_clean_sbu_1, # of connection points: 6
#     Node 1, Type 0, BuildingBlock: VOLQOD_clean_sbu_1, # of connection points: 6
#     Node 2, Type 0, BuildingBlock: VOLQOD_clean_sbu_1, # of connection points: 6
#     Node 3, Type 0, BuildingBlock: VOLQOD_clean_sbu_1, # of connection points: 6
#     Node 4, Type 0, BuildingBlock: VOLQOD_clean_sbu_1, # of connection points: 6
#     Node 5, Type 0, BuildingBlock: VOLQOD_clean_sbu_1, # of connection points: 6
#     Edge 6, Type (0, 0), BuildingBlock: OJICUG_clean_linker_0, # of connection points: 2
#     Edge 7, Type (0, 0), BuildingBlock: OJICUG_clean_linker_0, # of connection points: 2
#     Edge 8, Type (0, 0), BuildingBlock: OJICUG_clean_linker_0, # of connection points: 2
#     Edge 9, Type (0, 0), BuildingBlock: OJICUG_clean_linker_0, # of connection points: 2
#     Edge 10, Type (0, 0), BuildingBlock: OJICUG_clean_linker_0, # of connection points: 2
#     Edge 11, Type (0, 0), BuildingBlock: OJICUG_clean_linker_0, # of connection points: 2
#     Edge 12, Type (0, 0), BuildingBlock: OJICUG_clean_linker_0, # of connection points: 2
#     Edge 13, Type (0, 0), BuildingBlock: OJICUG_clean_linker_0, # of connection points: 2
#     Edge 14, Type (0, 0), BuildingBlock: OJICUG_clean_linker_0, # of connection points: 2
#     Edge 15, Type (0, 0), BuildingBlock: OJICUG_clean_linker_0, # of connection points: 2
#     Edge 16, Type (0, 0), BuildingBlock: OJICUG_clean_linker_0, # of connection points: 2
#     Edge 17, Type (0, 0), BuildingBlock: OJICUG_clean_linker_0, # of connection points: 2
#     Edge 18, Type (0, 0), BuildingBlock: OJICUG_clean_linker_0, # of connection points: 2
#     Edge 19, Type (0, 0), BuildingBlock: OJICUG_clean_linker_0, # of connection points: 2
#     Edge 20, Type (0, 0), BuildingBlock: OJICUG_clean_linker_0, # of connection points: 2
#     Edge 21, Type (0, 0), BuildingBlock: OJICUG_clean_linker_0, # of connection points: 2
#     Edge 22, Type (0, 0), BuildingBlock: OJICUG_clean_linker_0, # of connection points: 2
#     Edge 23, Type (0, 0), BuildingBlock: OJICUG_clean_linker_0, # of connection points: 2
# Relax obj value: 0.292
# Max RMSD: 0.187
# Mean RMSD: 0.187
data_MOF--net-sml--node1-VOLQOD_clean_sbu_1--edge1-OJICUG_clean_linker_0
_symmetry_space_group_name_H-M    P1
_symmetry_Int_Tables_number       1
_symmetry_cell_setting            triclinic
loop_
_symmetry_equiv_pos_as_xyz
'x, y, z'
_cell_length_a     33.217716
_cell_length_b     33.11171
_cell_length_c     12.348064
_cell_angle_alpha  90.406812
_cell_angle_beta   89.770735
_cell_angle_gamma 119.94693
loop_
_atom_site_label
_atom_site_type_symbol
_atom_site_fract_x
_atom_site_fract_y
_atom_site_fract_z
_atom_type_partial_charge
O0 O 0.12165 0.37263 0.94087 0.0
Zn1 Zn 0.18077 0.42751 0.88828 0.0
O2 O 0.23318 0.42124 0.941 0.0
Zn3 Zn 0.27252 0.47321 0.03394 0.0
Zn4 Zn 0.21084 0.36098 0.01294 0.0
Zn5 Zn 0.27345 0.42564 0.82646 0.0
O6 O 0.33466 0.51987 -0.03121 0.0
O7 O 0.33366 0.48525 0.81465 0.0
O8 O 0.18006 0.48341 -0.0419 0.0
O9 O 0.24035 0.50834 0.06879 0.0
O10 O 0.27741 0.45106 0.17854 0.0
O11 O 0.2243 0.3757 0.17008 0.0
O12 O 0.23645 0.32122 0.9429 0.0
O13 O 0.17968 0.42798 0.7226 0.0
O14 O 0.28298 0.37226 0.82089 0.0
O15 O 0.24215 0.42104 0.69331 0.0
C16 C 0.11034 0.33496 -0.00885 0.0
C17 C 0.35329 0.51994 0.87834 0.0
C18 C 0.24963 0.41272 0.22426 0.0
C19 C 0.20522 0.51001 0.03478 0.0
C20 C 0.26537 0.33249 0.86459 0.0
C21 C 0.2073 0.42285 0.65941 0.0
O22 O 0.14063 0.3242 0.01902 0.0
O23 O 0.74435 0.11091 0.25614 0.0
Zn24 Zn 0.74827 0.16985 0.20065 0.0
O25 O 0.80636 0.22348 0.25441 0.0
Zn26 Zn 0.79258 0.26163 0.34882 0.0
Zn27 Zn 0.8453 0.20219 0.32513 0.0
Zn28 Zn 0.84163 0.26528 0.14181 0.0
O29 O 0.80526 0.32336 0.28613 0.0
O30 O 0.84033 0.32503 0.13279 0.0
O31 O 0.69086 0.16852 0.26742 0.0
O32 O 0.72575 0.22743 0.38347 0.0
O33 O 0.8206 0.26764 0.49258 0.0
O34 O 0.84433 0.21565 0.48295 0.0
O35 O 0.91063 0.2294 0.2544 0.0
O36 O 0.74805 0.16859 0.03476 0.0
O37 O 0.90531 0.27687 0.13674 0.0
O38 O 0.81556 0.2337 0.0076 0.0
C39 C 0.7714 0.10057 0.30644 0.0
C40 C 0.82381 0.34315 0.19702 0.0
C41 C 0.83208 0.24046 0.53772 0.0
C42 C 0.68919 0.1926 0.3468 0.0
C43 C 0.92804 0.25949 0.17847 0.0
C44 C 0.78012 0.19759 -0.02742 0.0
O45 O 0.81259 0.13168 0.33186 0.0
O46 O 0.62907 0.75897 0.64025 0.0
Zn47 Zn 0.57626 0.7654 0.58112 0.0
O48 O 0.57703 0.81848 0.65286 0.0
Zn49 Zn 0.52527 0.79911 0.74495 0.0
Zn50 Zn 0.63742 0.85873 0.71882 0.0
Zn51 Zn 0.56364 0.85047 0.54471 0.0
O52 O 0.47441 0.80916 0.6829 0.0
O53 O 0.51493 0.86791 0.5731 0.0
O54 O 0.51807 0.70392 0.62721 0.0
O55 O 0.49716 0.73157 0.76802 0.0
O56 O 0.54849 0.82858 0.88708 0.0
O57 O 0.62594 0.86993 0.87483 0.0
O58 O 0.67537 0.91704 0.6216 0.0
O59 O 0.58527 0.78029 0.41797 0.0
O60 O 0.62236 0.90485 0.4961 0.0
O61 O 0.53606 0.80616 0.42513 0.0
C62 C 0.663 0.78271 0.70419 0.0
C63 C 0.47656 0.83975 0.61752 0.0
C64 C 0.58836 0.85362 0.92969 0.0
C65 C 0.49448 0.69749 0.71415 0.0
C66 C 0.66362 0.92815 0.53255 0.0
C67 C 0.56207 0.79616 0.37036 0.0
O68 O 0.67152 0.82247 0.73953 0.0
O69 O 0.87512 0.62864 -0.02517 0.0
Zn70 Zn 0.81631 0.57629 0.91188 0.0
O71 O 0.76408 0.58118 -0.0282 0.0
Zn72 Zn 0.727 0.52755 0.06021 0.0
Zn73 Zn 0.78582 0.64134 0.04477 0.0
Zn74 Zn 0.72228 0.5782 0.86379 0.0
O75 O 0.66503 0.48021 -0.00573 0.0
O76 O 0.66567 0.51595 0.84338 0.0
O77 O 0.81647 0.51727 -0.03838 0.0
O78 O 0.76 0.49224 0.08326 0.0
O79 O 0.72451 0.54915 0.2074 0.0
O80 O 0.76708 0.62674 0.19921 0.0
O81 O 0.76302 0.68265 -0.02951 0.0
O82 O 0.81728 0.58212 0.74785 0.0
O83 O 0.70611 0.62766 0.87209 0.0
O84 O 0.75543 0.59099 0.72952 0.0
C85 C 0.88615 0.66473 0.03271 0.0
C86 C 0.64702 0.48021 0.90332 0.0
C87 C 0.74573 0.58904 0.25285 0.0
C88 C 0.79324 0.48986 0.0386 0.0
C89 C 0.72884 0.66956 0.90523 0.0
C90 C 0.79075 0.59109 0.69098 0.0
O91 O 0.85598 0.6757 0.06164 0.0
O92 O 0.24556 0.87462 0.30564 0.0
Zn93 Zn 0.24368 0.81586 0.25719 0.0
O94 O 0.18574 0.76287 0.3124 0.0
Zn95 Zn 0.20133 0.7254 0.40304 0.0
Zn96 Zn 0.14674 0.78362 0.38643 0.0
Zn97 Zn 0.14893 0.72118 0.20062 0.0
O98 O 0.1912 0.66566 0.33117 0.0
O99 O 0.148 0.66087 0.19093 0.0
O100 O 0.30175 0.82056 0.32916 0.0
O101 O 0.2681 0.76136 0.44296 0.0
O102 O 0.1706 0.71585 0.54551 0.0
O103 O 0.14791 0.76878 0.54243 0.0
O104 O 0.08148 0.75853 0.31582 0.0
O105 O 0.24503 0.81445 0.0914 0.0
O106 O 0.08628 0.71205 0.19295 0.0
O107 O 0.17622 0.75065 0.06601 0.0
C108 C 0.21945 0.88501 0.36069 0.0
C109 C 0.16874 0.64464 0.24605 0.0
C110 C 0.15956 0.743 0.59407 0.0
C111 C 0.30416 0.79726 0.4084 0.0
C112 C 0.06408 0.72982 0.23655 0.0
C113 C 0.21266 0.78517 0.02989 0.0
O114 O 0.17982 0.85387 0.39475 0.0
O115 O 0.37386 0.24935 0.61792 0.0
Zn116 Zn 0.42894 0.24551 0.56443 0.0
O117 O 0.42388 0.18725 0.61823 0.0
Zn118 Zn 0.47745 0.20191 0.7064 0.0
Zn119 Zn 0.36479 0.14952 0.69453 0.0
Zn120 Zn 0.42625 0.14949 0.50461 0.0
O121 O 0.5231 0.18561 0.63709 0.0
O122 O 0.48369 0.14517 0.49374 0.0
O123 O 0.4845 0.30322 0.63037 0.0
O124 O 0.5126 0.26986 0.73776 0.0
O125 O 0.45718 0.17633 0.85301 0.0
O126 O 0.38102 0.15 0.84931 0.0
O127 O 0.32295 0.08441 0.62639 0.0
O128 O 0.42983 0.24665 0.39943 0.0
O129 O 0.37093 0.08787 0.49692 0.0
O130 O 0.42483 0.17778 0.37138 0.0
C131 C 0.3377 0.22348 0.67362 0.0
C132 C 0.52025 0.16296 0.55086 0.0
C133 C 0.4187 0.16328 0.90106 0.0
C134 C 0.51271 0.30601 0.70379 0.0
C135 C 0.33196 0.06651 0.54437 0.0
C136 C 0.42666 0.21442 0.33683 0.0
O137 O 0.32876 0.18342 0.70561 0.0
C138 C 0.31098 0.28088 0.65869 0.0
C139 C 0.31013 0.24401 0.71519 0.0
H140 H 0.297 0.33678 0.66104 0.0
C141 C 0.28936 0.23256 0.81867 0.0
H142 H 0.3263 0.29024 0.57865 0.0
C143 C 0.27283 0.25995 0.86766 0.0
C144 C 0.27701 0.299 0.81351 0.0
H145 H 0.28855 0.20436 0.86437 0.0
H146 H 0.25898 0.25197 0.94916 0.0
C147 C 0.29453 0.30784 0.7069 0.0
C148 C 0.05162 0.28328 0.13019 0.0
C149 C 0.06202 0.30741 0.03103 0.0
H150 H 0.00092 0.24928 0.2566 0.0
C151 C 0.02701 0.31138 -0.0219 0.0
H152 H 0.07819 0.28003 0.1733 0.0
C153 C 0.98358 0.29438 0.02561 0.0
C154 C 0.97369 0.27298 0.12808 0.0
H155 H 0.03374 0.32938 0.90143 0.0
H156 H 0.958 0.29921 -0.01765 0.0
C157 C 0.00764 0.2661 0.17846 0.0
C158 C 0.76579 0.04644 0.45517 0.0
C159 C 0.75105 0.05326 0.3534 0.0
H160 H 0.74955 0.00152 0.59314 0.0
C161 C 0.71115 0.01639 0.30647 0.0
H162 H 0.79626 0.07442 0.49393 0.0
C163 C 0.68465 0.97498 0.36288 0.0
C164 C 0.69696 0.96939 0.46858 0.0
H165 H 0.69902 0.0204 0.22811 0.0
H166 H 0.65319 0.94805 0.32495 0.0
C167 C 0.73888 0.00483 0.51249 0.0
C168 C 0.71066 0.77294 0.85071 0.0
C169 C 0.68798 0.75984 0.74936 0.0
H170 H 0.74157 0.75465 -0.01882 0.0
C171 C 0.68325 0.71985 0.69779 0.0
H172 H 0.71464 0.8035 0.89294 0.0
C173 C 0.69784 0.692 0.74847 0.0
C174 C 0.71786 0.70314 0.85249 0.0
H175 H 0.66651 0.7089 0.61946 0.0
H176 H 0.69247 0.6609 0.70622 0.0
C177 C 0.72573 0.74486 0.90177 0.0
C178 C 0.01137 0.7007 0.07733 0.0
C179 C 0.01964 0.71901 0.18355 0.0
H180 H 0.96366 0.67064 0.9462 0.0
C181 C 0.98534 0.72548 0.23446 0.0
H182 H 0.03732 0.69635 0.03364 0.0
C183 C 0.94251 0.71086 0.18243 0.0
C184 C 0.93365 0.68979 0.07889 0.0
H185 H 0.99082 0.73996 0.31553 0.0
H186 H 0.91556 0.71369 0.22556 0.0
C187 C 0.96913 0.68628 0.0261 0.0
C188 C 0.25915 0.98719 0.55337 0.0
C189 C 0.29688 0.02176 0.49506 0.0
H190 H 0.20382 0.91589 0.55494 0.0
C191 C 0.30305 0.01282 0.38633 0.0
H192 H 0.25324 0.99328 0.6367 0.0
C193 C 0.27502 0.96926 0.33983 0.0
C194 C 0.23974 0.93343 0.40032 0.0
H195 H 0.33091 0.03909 0.3376 0.0
H196 H 0.28255 0.96291 0.25802 0.0
C197 C 0.23068 0.94316 0.50614 0.0
C198 C 0.18761 0.37695 0.4935 0.0
C199 C 0.20258 0.42047 0.54266 0.0
H200 H 0.19246 0.34008 0.35567 0.0
C201 C 0.23191 0.46118 0.48583 0.0
H202 H 0.16647 0.3451 0.53816 0.0
C203 C 0.24866 0.45851 0.38413 0.0
C204 C 0.23591 0.41492 0.33681 0.0
H205 H 0.24529 0.49504 0.52423 0.0
H206 H 0.27197 0.49076 0.34327 0.0
C207 C 0.20397 0.37414 0.39109 0.0
C208 C 0.76556 0.22088 0.79837 0.0
C209 C 0.77838 0.1928 0.85572 0.0
H210 H 0.77447 0.26015 0.65564 0.0
C211 C 0.80813 0.17928 0.80728 0.0
H212 H 0.7441 0.23317 0.83618 0.0
C213 C 0.82686 0.19576 0.70487 0.0
C214 C 0.8165 0.22652 0.65012 0.0
H215 H 0.81993 0.15916 0.85239 0.0
H216 H 0.85028 0.18536 0.66987 0.0
C217 C 0.78459 0.23783 0.69686 0.0
C218 C 0.54292 0.82835 0.21064 0.0
C219 C 0.57156 0.81317 0.25784 0.0
H220 H 0.52772 0.856 0.07111 0.0
C221 C 0.61095 0.81943 0.20105 0.0
H222 H 0.51267 0.82489 0.25266 0.0
C223 C 0.62005 0.83839 0.09669 0.0
C224 C 0.58973 0.85109 0.04804 0.0
H225 H 0.63428 0.8092 0.23645 0.0
H226 H 0.64879 0.83996 0.05137 0.0
C227 C 0.552 0.8472 0.1074 0.0
C228 C 0.77605 0.55359 0.51483 0.0
C229 C 0.79442 0.59501 0.57443 0.0
H230 H 0.7435 0.51842 0.36838 0.0
C231 C 0.79723 0.6349 0.52798 0.0
H232 H 0.77201 0.52206 0.55116 0.0
C233 C 0.77986 0.63281 0.4244 0.0
C234 C 0.7588 0.59053 0.36676 0.0
H235 H 0.80978 0.66671 0.57499 0.0
H236 H 0.7821 0.66393 0.39037 0.0
C237 C 0.758 0.5512 0.41211 0.0
C238 C 0.20291 0.73988 0.75519 0.0
C239 C 0.17507 0.75584 0.70718 0.0
H240 H 0.2407 0.74056 0.89564 0.0
C241 C 0.16925 0.79011 0.76128 0.0
H242 H 0.20932 0.71447 0.71487 0.0
C243 C 0.18875 0.80611 0.86345 0.0
C244 C 0.21456 0.78838 0.91284 0.0
H245 H 0.149 0.80403 0.72562 0.0
H246 H 0.18048 0.82946 0.90758 0.0
C247 C 0.22256 0.75615 0.85683 0.0
C248 C 0.38234 0.18958 0.16995 0.0
C249 C 0.42548 0.21693 0.22019 0.0
H250 H 0.34598 0.14886 0.03139 0.0
C251 C 0.46626 0.22695 0.16497 0.0
H252 H 0.35041 0.17984 0.21356 0.0
C253 C 0.46389 0.2076 0.06322 0.0
C254 C 0.42057 0.17816 0.01442 0.0
H255 H 0.49975 0.24637 0.20455 0.0
H256 H 0.49612 0.21556 0.02339 0.0
C257 C 0.37984 0.17036 0.06775 0.0
C258 C 0.21442 0.5625 0.19062 0.0
C259 C 0.19278 0.54187 0.09149 0.0
H260 H 0.22298 0.60997 0.31846 0.0
C261 C 0.15936 0.55166 0.04976 0.0
H262 H 0.2397 0.55507 0.22654 0.0
C263 C 0.14957 0.5832 0.10333 0.0
C264 C 0.17276 0.60531 0.20013 0.0
H265 H 0.14167 0.53593 -0.02555 0.0
H266 H 0.1249 0.59137 0.0669 0.0
C267 C 0.20443 0.59366 0.24437 0.0
C268 C 0.60165 0.15073 0.35405 0.0
C269 C 0.64488 0.18001 0.4024 0.0
H270 H 0.52794 0.12175 0.36389 0.0
C271 C 0.64605 0.19864 0.50607 0.0
H272 H 0.59958 0.13546 0.27495 0.0
C273 C 0.60527 0.19048 0.55755 0.0
C274 C 0.56215 0.16366 0.50655 0.0
H275 H 0.67875 0.22054 0.54705 0.0
H276 H 0.60783 0.20696 0.6353 0.0
C277 C 0.56064 0.14276 0.40548 0.0
C278 C 0.41086 0.56699 0.73269 0.0
C279 C 0.39475 0.56314 0.84022 0.0
H280 H 0.45523 0.61256 0.60756 0.0
C281 C 0.41529 0.60271 0.90725 0.0
H282 H 0.39582 0.53709 0.67874 0.0
C283 C 0.44887 0.6456 0.86632 0.0
C284 C 0.46299 0.65023 0.75718 0.0
H285 H 0.40415 0.60108 -0.00953 0.0
H286 H 0.46287 0.67556 0.9201 0.0
C287 C 0.44481 0.61018 0.69157 0.0
C288 C 0.79528 0.39972 0.22212 0.0
C289 C 0.82114 0.38454 0.16157 0.0
H290 H 0.76624 0.44434 0.23072 0.0
C291 C 0.84041 0.40644 0.06199 0.0
H292 H 0.77992 0.38381 0.29898 0.0
C293 C 0.83256 0.44154 0.02237 0.0
C294 C 0.80486 0.45505 0.08101 0.0
H295 H 0.86057 0.39563 0.01316 0.0
H296 H 0.84698 0.45704 0.9446 0.0
C297 C 0.78712 0.4343 0.18226 0.0
C298 C 0.39143 0.84777 0.42632 0.0
C299 C 0.34873 0.81218 0.46605 0.0
H300 H 0.46552 0.88524 0.44421 0.0
C301 C 0.3485 0.7903 0.56373 0.0
H302 H 0.39286 0.86575 0.35222 0.0
C303 C 0.38986 0.80178 0.61712 0.0
C304 C 0.43281 0.83545 0.57445 0.0
H305 H 0.31626 0.76338 0.59843 0.0
H306 H 0.38818 0.78277 0.68962 0.0
C307 C 0.43305 0.85924 0.47987 0.0
C308 C 0.59583 0.39355 0.90805 0.0
C309 C 0.60812 0.43629 0.85901 0.0
H310 H 0.55677 0.31936 0.89703 0.0
C311 C 0.58677 0.43601 0.7603 0.0
H312 H 0.6116 0.39234 -0.01632 0.0
C313 C 0.55509 0.39387 0.7101 0.0
C314 C 0.54461 0.3512 0.75691 0.0
H315 H 0.59547 0.46836 0.72021 0.0
H316 H 0.53984 0.39474 0.6334 0.0
C317 C 0.56471 0.35161 0.85744 0.0
loop_
_geom_bond_atom_site_label_1
_geom_bond_atom_site_label_2
_geom_bond_distance
_geom_bond_site_symmetry_2
_ccdc_geom_bond_type
O0 Zn1 1.953 1_554 S
O0 C16 1.225 . S
Zn1 O0 1.953 1_556 S
Zn1 O2 1.949 1_556 S
Zn1 O8 1.919 1_556 S
Zn1 O13 1.924 . S
O2 Zn1 1.949 1_554 S
O2 Zn3 1.923 . S
O2 Zn4 1.950 . S
O2 Zn5 1.945 1_554 S
Zn3 O2 1.923 . S
Zn3 O6 1.933 . S
Zn3 O9 1.941 . S
Zn3 O10 1.965 . S
Zn4 O2 1.950 . S
Zn4 O11 1.938 . S
Zn4 O12 1.906 . S
Zn4 O22 1.953 . S
Zn5 O2 1.945 1_556 S
Zn5 O7 1.932 . S
Zn5 O14 1.977 . S
Zn5 O15 1.910 . S
O6 Zn3 1.933 . S
O6 C17 1.226 1_554 S
O7 Zn5 1.932 . S
O7 C17 1.307 . S
O8 Zn1 1.919 1_554 S
O8 C19 1.253 . S
O9 Zn3 1.941 . S
O9 C19 1.283 . S
O10 Zn3 1.965 . S
O10 C18 1.303 . S
O11 Zn4 1.938 . S
O11 C18 1.247 . S
O12 Zn4 1.906 . S
O12 C20 1.304 1_554 S
O13 Zn1 1.924 . S
O13 C21 1.311 . S
O14 Zn5 1.977 . S
O14 C20 1.272 . S
O15 Zn5 1.910 . S
O15 C21 1.231 . S
C16 O0 1.225 . S
C16 O22 1.298 . S
C17 O6 1.226 1_556 S
C17 O7 1.307 . S
C18 O10 1.303 . S
C18 O11 1.247 . S
C19 O8 1.253 . S
C19 O9 1.283 . S
C20 O12 1.304 1_556 S
C20 O14 1.272 . S
C21 O13 1.311 . S
C21 O15 1.231 . S
O22 Zn4 1.953 . S
O22 C16 1.298 . S
O23 Zn24 1.953 . S
O23 C39 1.225 . S
Zn24 O23 1.953 . S
Zn24 O25 1.949 . S
Zn24 O31 1.919 . S
Zn24 O36 1.924 . S
O25 Zn24 1.949 . S
O25 Zn26 1.923 . S
O25 Zn27 1.950 . S
O25 Zn28 1.945 . S
Zn26 O25 1.923 . S
Zn26 O29 1.933 . S
Zn26 O32 1.941 . S
Zn26 O33 1.965 . S
Zn27 O25 1.950 . S
Zn27 O34 1.938 . S
Zn27 O35 1.906 . S
Zn27 O45 1.953 . S
Zn28 O25 1.945 . S
Zn28 O30 1.932 . S
Zn28 O37 1.977 . S
Zn28 O38 1.910 . S
O29 Zn26 1.933 . S
O29 C40 1.226 . S
O30 Zn28 1.932 . S
O30 C40 1.307 . S
O31 Zn24 1.919 . S
O31 C42 1.253 . S
O32 Zn26 1.941 . S
O32 C42 1.283 . S
O33 Zn26 1.965 . S
O33 C41 1.303 . S
O34 Zn27 1.938 . S
O34 C41 1.247 . S
O35 Zn27 1.906 . S
O35 C43 1.304 . S
O36 Zn24 1.924 . S
O36 C44 1.311 . S
O37 Zn28 1.977 . S
O37 C43 1.272 . S
O38 Zn28 1.910 . S
O38 C44 1.231 . S
C39 O23 1.225 . S
C39 O45 1.298 . S
C40 O29 1.226 . S
C40 O30 1.307 . S
C41 O33 1.303 . S
C41 O34 1.247 . S
C42 O31 1.253 . S
C42 O32 1.283 . S
C43 O35 1.304 . S
C43 O37 1.272 . S
C44 O36 1.311 . S
C44 O38 1.231 . S
O45 Zn27 1.953 . S
O45 C39 1.298 . S
O46 Zn47 1.953 . S
O46 C62 1.225 . S
Zn47 O46 1.953 . S
Zn47 O48 1.949 . S
Zn47 O54 1.919 . S
Zn47 O59 1.924 . S
O48 Zn47 1.949 . S
O48 Zn49 1.923 . S
O48 Zn50 1.950 . S
O48 Zn51 1.945 . S
Zn49 O48 1.923 . S
Zn49 O52 1.933 . S
Zn49 O55 1.941 . S
Zn49 O56 1.965 . S
Zn50 O48 1.950 . S
Zn50 O57 1.938 . S
Zn50 O58 1.906 . S
Zn50 O68 1.953 . S
Zn51 O48 1.945 . S
Zn51 O53 1.932 . S
Zn51 O60 1.977 . S
Zn51 O61 1.910 . S
O52 Zn49 1.933 . S
O52 C63 1.226 . S
O53 Zn51 1.932 . S
O53 C63 1.307 . S
O54 Zn47 1.919 . S
O54 C65 1.253 . S
O55 Zn49 1.941 . S
O55 C65 1.283 . S
O56 Zn49 1.965 . S
O56 C64 1.303 . S
O57 Zn50 1.938 . S
O57 C64 1.247 . S
O58 Zn50 1.906 . S
O58 C66 1.304 . S
O59 Zn47 1.924 . S
O59 C67 1.311 . S
O60 Zn51 1.977 . S
O60 C66 1.272 . S
O61 Zn51 1.910 . S
O61 C67 1.231 . S
C62 O46 1.225 . S
C62 O68 1.298 . S
C63 O52 1.226 . S
C63 O53 1.307 . S
C64 O56 1.303 . S
C64 O57 1.247 . S
C65 O54 1.253 . S
C65 O55 1.283 . S
C66 O58 1.304 . S
C66 O60 1.272 . S
C67 O59 1.311 . S
C67 O61 1.231 . S
O68 Zn50 1.953 . S
O68 C62 1.298 . S
O69 Zn70 1.953 1_554 S
O69 C85 1.225 . S
Zn70 O69 1.953 1_556 S
Zn70 O71 1.949 1_556 S
Zn70 O77 1.919 1_556 S
Zn70 O82 1.924 . S
O71 Zn70 1.949 1_554 S
O71 Zn72 1.923 . S
O71 Zn73 1.950 . S
O71 Zn74 1.945 1_554 S
Zn72 O71 1.923 . S
Zn72 O75 1.933 . S
Zn72 O78 1.941 . S
Zn72 O79 1.965 . S
Zn73 O71 1.950 . S
Zn73 O80 1.938 . S
Zn73 O81 1.906 . S
Zn73 O91 1.953 . S
Zn74 O71 1.945 1_556 S
Zn74 O76 1.932 . S
Zn74 O83 1.977 . S
Zn74 O84 1.910 . S
O75 Zn72 1.933 . S
O75 C86 1.226 1_554 S
O76 Zn74 1.932 . S
O76 C86 1.307 . S
O77 Zn70 1.919 1_554 S
O77 C88 1.253 . S
O78 Zn72 1.941 . S
O78 C88 1.283 . S
O79 Zn72 1.965 . S
O79 C87 1.303 . S
O80 Zn73 1.938 . S
O80 C87 1.247 . S
O81 Zn73 1.906 . S
O81 C89 1.304 1_554 S
O82 Zn70 1.924 . S
O82 C90 1.311 . S
O83 Zn74 1.977 . S
O83 C89 1.272 . S
O84 Zn74 1.910 . S
O84 C90 1.231 . S
C85 O69 1.225 . S
C85 O91 1.298 . S
C86 O75 1.226 1_556 S
C86 O76 1.307 . S
C87 O79 1.303 . S
C87 O80 1.247 . S
C88 O77 1.253 . S
C88 O78 1.283 . S
C89 O81 1.304 1_556 S
C89 O83 1.272 . S
C90 O82 1.311 . S
C90 O84 1.231 . S
O91 Zn73 1.953 . S
O91 C85 1.298 . S
O92 Zn93 1.953 . S
O92 C108 1.225 . S
Zn93 O92 1.953 . S
Zn93 O94 1.949 . S
Zn93 O100 1.919 . S
Zn93 O105 1.924 . S
O94 Zn93 1.949 . S
O94 Zn95 1.923 . S
O94 Zn96 1.950 . S
O94 Zn97 1.945 . S
Zn95 O94 1.923 . S
Zn95 O98 1.933 . S
Zn95 O101 1.941 . S
Zn95 O102 1.965 . S
Zn96 O94 1.950 . S
Zn96 O103 1.938 . S
Zn96 O104 1.906 . S
Zn96 O114 1.953 . S
Zn97 O94 1.945 . S
Zn97 O99 1.932 . S
Zn97 O106 1.977 . S
Zn97 O107 1.910 . S
O98 Zn95 1.933 . S
O98 C109 1.226 . S
O99 Zn97 1.932 . S
O99 C109 1.307 . S
O100 Zn93 1.919 . S
O100 C111 1.253 . S
O101 Zn95 1.941 . S
O101 C111 1.283 . S
O102 Zn95 1.965 . S
O102 C110 1.303 . S
O103 Zn96 1.938 . S
O103 C110 1.247 . S
O104 Zn96 1.906 . S
O104 C112 1.304 . S
O105 Zn93 1.924 . S
O105 C113 1.311 . S
O106 Zn97 1.977 . S
O106 C112 1.272 . S
O107 Zn97 1.910 . S
O107 C113 1.231 . S
C108 O92 1.225 . S
C108 O114 1.298 . S
C109 O98 1.226 . S
C109 O99 1.307 . S
C110 O102 1.303 . S
C110 O103 1.247 . S
C111 O100 1.253 . S
C111 O101 1.283 . S
C112 O104 1.304 . S
C112 O106 1.272 . S
C113 O105 1.311 . S
C113 O107 1.231 . S
O114 Zn96 1.953 . S
O114 C108 1.298 . S
O115 Zn116 1.953 . S
O115 C131 1.225 . S
Zn116 O115 1.953 . S
Zn116 O117 1.949 . S
Zn116 O123 1.919 . S
Zn116 O128 1.924 . S
O117 Zn116 1.949 . S
O117 Zn118 1.923 . S
O117 Zn119 1.950 . S
O117 Zn120 1.945 . S
Zn118 O117 1.923 . S
Zn118 O121 1.933 . S
Zn118 O124 1.941 . S
Zn118 O125 1.965 . S
Zn119 O117 1.950 . S
Zn119 O126 1.938 . S
Zn119 O127 1.906 . S
Zn119 O137 1.953 . S
Zn120 O117 1.945 . S
Zn120 O122 1.932 . S
Zn120 O129 1.977 . S
Zn120 O130 1.910 . S
O121 Zn118 1.933 . S
O121 C132 1.226 . S
O122 Zn120 1.932 . S
O122 C132 1.307 . S
O123 Zn116 1.919 . S
O123 C134 1.253 . S
O124 Zn118 1.941 . S
O124 C134 1.283 . S
O125 Zn118 1.965 . S
O125 C133 1.303 . S
O126 Zn119 1.938 . S
O126 C133 1.247 . S
O127 Zn119 1.906 . S
O127 C135 1.304 . S
O128 Zn116 1.924 . S
O128 C136 1.311 . S
O129 Zn120 1.977 . S
O129 C135 1.272 . S
O130 Zn120 1.910 . S
O130 C136 1.231 . S
C131 O115 1.225 . S
C131 O137 1.298 . S
C132 O121 1.226 . S
C132 O122 1.307 . S
C133 O125 1.303 . S
C133 O126 1.247 . S
C134 O123 1.253 . S
C134 O124 1.283 . S
C135 O127 1.304 . S
C135 O129 1.272 . S
C136 O128 1.311 . S
C136 O130 1.231 . S
O137 Zn119 1.953 . S
O137 C131 1.298 . S
C138 C139 1.387 . S
C138 H142 0.950 . S
C138 C147 1.390 . S
C139 C138 1.387 . S
C139 C141 1.387 . S
H140 C147 0.950 . S
C141 C139 1.387 . S
C141 C143 1.390 . S
C141 H145 0.950 . S
H142 C138 0.950 . S
C143 C141 1.390 . S
C143 C144 1.387 . S
C143 H146 0.950 1_556 S
C144 C143 1.387 . S
C144 C147 1.387 . S
H145 C141 0.950 . S
H146 C143 0.950 1_554 S
C147 C138 1.390 . S
C147 H140 0.950 . S
C147 C144 1.387 . S
C148 C149 1.387 . S
C148 H152 0.950 . S
C148 C157 1.390 1_455 S
C149 C148 1.387 . S
C149 C151 1.387 1_455 S
H150 C157 0.950 . S
C151 C149 1.387 1_655 S
C151 C153 1.390 . S
C151 H155 0.950 1_554 S
H152 C148 0.950 . S
C153 C151 1.390 . S
C153 C154 1.387 . S
C153 H156 0.950 . S
C154 C153 1.387 . S
C154 C157 1.387 . S
H155 C151 0.950 1_556 S
H156 C153 0.950 . S
C157 C148 1.390 1_655 S
C157 H150 0.950 . S
C157 C154 1.387 . S
C158 C159 1.387 . S
C158 H162 0.950 . S
C158 C167 1.390 1_545 S
C159 C158 1.387 . S
C159 C161 1.387 . S
H160 C167 0.950 . S
C161 C159 1.387 . S
C161 C163 1.390 1_545 S
C161 H165 0.950 . S
H162 C158 0.950 . S
C163 C161 1.390 1_565 S
C163 C164 1.387 . S
C163 H166 0.950 . S
C164 C163 1.387 . S
C164 C167 1.387 . S
H165 C161 0.950 . S
H166 C163 0.950 . S
C167 C158 1.390 1_565 S
C167 H160 0.950 . S
C167 C164 1.387 . S
C168 C169 1.387 . S
C168 H172 0.950 . S
C168 C177 1.390 . S
C169 C168 1.387 . S
C169 C171 1.387 . S
H170 C177 0.950 1_554 S
C171 C169 1.387 . S
C171 C173 1.390 . S
C171 H175 0.950 . S
H172 C168 0.950 . S
C173 C171 1.390 . S
C173 C174 1.387 . S
C173 H176 0.950 . S
C174 C173 1.387 . S
C174 C177 1.387 . S
H175 C171 0.950 . S
H176 C173 0.950 . S
C177 C168 1.390 . S
C177 H170 0.950 1_556 S
C177 C174 1.387 . S
C178 C179 1.387 . S
C178 H182 0.950 . S
C178 C187 1.390 . S
C179 C178 1.387 . S
C179 C181 1.387 . S
H180 C187 0.950 1_655 S
C181 C179 1.387 . S
C181 C183 1.390 1_455 S
C181 H185 0.950 . S
H182 C178 0.950 . S
C183 C181 1.390 1_655 S
C183 C184 1.387 . S
C183 H186 0.950 . S
C184 C183 1.387 . S
C184 C187 1.387 1_655 S
H185 C181 0.950 . S
H186 C183 0.950 . S
C187 C178 1.390 . S
C187 H180 0.950 1_455 S
C187 C184 1.387 1_455 S
C188 C189 1.387 . S
C188 H192 0.950 . S
C188 C197 1.390 1_545 S
C189 C188 1.387 . S
C189 C191 1.387 . S
H190 C197 0.950 . S
C191 C189 1.387 . S
C191 C193 1.387 1_545 S
C191 H195 0.950 . S
H192 C188 0.950 . S
C193 C191 1.387 1_565 S
C193 C194 1.387 . S
C193 H196 0.953 . S
C194 C193 1.387 . S
C194 C197 1.387 . S
H195 C191 0.950 . S
H196 C193 0.953 . S
C197 C188 1.390 1_565 S
C197 H190 0.950 . S
C197 C194 1.387 . S
C198 C199 1.387 . S
C198 H202 0.950 . S
C198 C207 1.390 . S
C199 C198 1.387 . S
C199 C201 1.387 . S
H200 C207 0.950 . S
C201 C199 1.387 . S
C201 C203 1.390 . S
C201 H205 0.950 . S
H202 C198 0.950 . S
C203 C201 1.390 . S
C203 C204 1.387 . S
C203 H206 0.950 . S
C204 C203 1.387 . S
C204 C207 1.387 . S
H205 C201 0.950 . S
H206 C203 0.950 . S
C207 C198 1.390 . S
C207 H200 0.950 . S
C207 C204 1.387 . S
C208 C209 1.387 . S
C208 H212 0.950 . S
C208 C217 1.390 . S
C209 C208 1.387 . S
C209 C211 1.387 . S
H210 C217 0.950 . S
C211 C209 1.387 . S
C211 C213 1.390 . S
C211 H215 0.950 1_556 S
H212 C208 0.950 . S
C213 C211 1.390 . S
C213 C214 1.387 . S
C213 H216 0.950 . S
C214 C213 1.387 . S
C214 C217 1.387 . S
H215 C211 0.950 1_554 S
H216 C213 0.950 . S
C217 C208 1.390 . S
C217 H210 0.950 . S
C217 C214 1.387 . S
C218 C219 1.387 . S
C218 H222 0.950 . S
C218 C227 1.390 . S
C219 C218 1.387 . S
C219 C221 1.387 . S
H220 C227 0.950 . S
C221 C219 1.387 . S
C221 C223 1.390 . S
C221 H225 0.950 . S
H222 C218 0.950 . S
C223 C221 1.390 . S
C223 C224 1.387 . S
C223 H226 0.950 . S
C224 C223 1.387 . S
C224 C227 1.387 . S
H225 C221 0.950 . S
H226 C223 0.950 . S
C227 C218 1.390 . S
C227 H220 0.950 . S
C227 C224 1.387 . S
C228 C229 1.387 . S
C228 H232 0.950 . S
C228 C237 1.390 . S
C229 C228 1.387 . S
C229 C231 1.387 . S
H230 C237 0.950 . S
C231 C229 1.387 . S
C231 C233 1.390 . S
C231 H235 0.950 . S
H232 C228 0.950 . S
C233 C231 1.390 . S
C233 C234 1.387 . S
C233 H236 0.950 . S
C234 C233 1.387 . S
C234 C237 1.387 . S
H235 C231 0.950 . S
H236 C233 0.950 . S
C237 C228 1.390 . S
C237 H230 0.950 . S
C237 C234 1.387 . S
C238 C239 1.387 . S
C238 H242 0.950 . S
C238 C247 1.390 . S
C239 C238 1.387 . S
C239 C241 1.387 . S
H240 C247 0.950 1_554 S
C241 C239 1.387 . S
C241 C243 1.390 . S
C241 H245 0.950 . S
H242 C238 0.950 . S
C243 C241 1.390 . S
C243 C244 1.387 . S
C243 H246 0.950 . S
C244 C243 1.387 . S
C244 C247 1.387 . S
H245 C241 0.950 . S
H246 C243 0.950 . S
C247 C238 1.390 . S
C247 H240 0.950 1_556 S
C247 C244 1.387 . S
C248 C249 1.387 . S
C248 H252 0.950 . S
C248 C257 1.390 . S
C249 C248 1.387 . S
C249 C251 1.387 . S
H250 C257 0.950 . S
C251 C249 1.387 . S
C251 C253 1.390 . S
C251 H255 0.950 . S
H252 C248 0.950 . S
C253 C251 1.390 . S
C253 C254 1.387 . S
C253 H256 0.950 . S
C254 C253 1.387 . S
C254 C257 1.387 . S
H255 C251 0.950 . S
H256 C253 0.950 . S
C257 C248 1.390 . S
C257 H250 0.950 . S
C257 C254 1.387 . S
C258 C259 1.387 . S
C258 H262 0.950 . S
C258 C267 1.390 . S
C259 C258 1.387 . S
C259 C261 1.387 . S
H260 C267 0.950 . S
C261 C259 1.387 . S
C261 C263 1.390 . S
C261 H265 0.950 1_554 S
H262 C258 0.950 . S
C263 C261 1.390 . S
C263 C264 1.387 . S
C263 H266 0.950 . S
C264 C263 1.387 . S
C264 C267 1.387 . S
H265 C261 0.950 1_556 S
H266 C263 0.950 . S
C267 C258 1.390 . S
C267 H260 0.950 . S
C267 C264 1.387 . S
C268 C269 1.387 . S
C268 H272 0.950 . S
C268 C277 1.390 . S
C269 C268 1.387 . S
C269 C271 1.387 . S
H270 C277 0.950 . S
C271 C269 1.387 . S
C271 C273 1.390 . S
C271 H275 0.950 . S
H272 C268 0.950 . S
C273 C271 1.390 . S
C273 C274 1.387 . S
C273 H276 0.950 . S
C274 C273 1.387 . S
C274 C277 1.387 . S
H275 C271 0.950 . S
H276 C273 0.950 . S
C277 C268 1.390 . S
C277 H270 0.950 . S
C277 C274 1.387 . S
C278 C279 1.387 . S
C278 H282 0.950 . S
C278 C287 1.390 . S
C279 C278 1.387 . S
C279 C281 1.387 . S
H280 C287 0.950 . S
C281 C279 1.387 . S
C281 C283 1.390 . S
C281 H285 0.950 . S
H282 C278 0.950 . S
C283 C281 1.390 . S
C283 C284 1.387 . S
C283 H286 0.950 . S
C284 C283 1.387 . S
C284 C287 1.387 . S
H285 C281 0.950 . S
H286 C283 0.950 . S
C287 C278 1.390 . S
C287 H280 0.950 . S
C287 C284 1.387 . S
C288 C289 1.387 . S
C288 H292 0.950 . S
C288 C297 1.390 . S
C289 C288 1.387 . S
C289 C291 1.387 . S
H290 C297 0.950 . S
C291 C289 1.387 . S
C291 C293 1.390 . S
C291 H295 0.950 . S
H292 C288 0.950 . S
C293 C291 1.390 . S
C293 C294 1.387 . S
C293 H296 0.950 1_554 S
C294 C293 1.387 . S
C294 C297 1.387 . S
H295 C291 0.950 . S
H296 C293 0.950 1_556 S
C297 C288 1.390 . S
C297 H290 0.950 . S
C297 C294 1.387 . S
C298 C299 1.387 . S
C298 H302 0.950 . S
C298 C307 1.390 . S
C299 C298 1.387 . S
C299 C301 1.387 . S
H300 C307 0.950 . S
C301 C299 1.387 . S
C301 C303 1.390 . S
C301 H305 0.950 . S
H302 C298 0.950 . S
C303 C301 1.390 . S
C303 C304 1.387 . S
C303 H306 0.950 . S
C304 C303 1.387 . S
C304 C307 1.387 . S
H305 C301 0.950 . S
H306 C303 0.950 . S
C307 C298 1.390 . S
C307 H300 0.950 . S
C307 C304 1.387 . S
C308 C309 1.387 . S
C308 H312 0.950 . S
C308 C317 1.390 . S
C309 C308 1.387 . S
C309 C311 1.387 . S
H310 C317 0.950 . S
C311 C309 1.387 . S
C311 C313 1.390 . S
C311 H315 0.950 . S
H312 C308 0.950 . S
C313 C311 1.390 . S
C313 C314 1.387 . S
C313 H316 0.950 . S
C314 C313 1.387 . S
C314 C317 1.387 . S
H315 C311 0.950 . S
H316 C313 0.950 . S
C317 C308 1.390 . S
C317 H310 0.950 . S
C317 C314 1.387 . S
C139 C131 1.522 . S
C144 C20 1.508 . S
C149 C16 1.523 . S
C154 C43 1.509 . S
C159 C39 1.524 . S
C164 C66 1.510 . S
C169 C62 1.524 . S
C174 C89 1.510 . S
C179 C112 1.510 . S
C184 C85 1.523 . S
C189 C135 1.510 . S
C194 C108 1.524 . S
C199 C21 0.972 . S
C204 C18 1.077 . S
C209 C44 0.977 1_556 S
C214 C41 1.078 . S
C219 C67 0.974 . S
C224 C64 1.078 1_554 S
C229 C90 0.979 . S
C234 C87 1.079 . S
C239 C110 1.079 . S
C244 C113 0.975 1_556 S
C249 C136 0.973 . S
C254 C133 1.077 1_554 S
C259 C19 1.584 . S
C264 C109 1.633 . S
C269 C42 1.583 . S
C274 C132 1.632 . S
C279 C17 1.634 . S
C284 C65 1.586 . S
C289 C40 1.633 . S
C294 C88 1.585 . S
C299 C111 1.586 . S
C304 C63 1.634 . S
C309 C86 1.632 . S
C314 C134 1.582 . S
