# Generated by pormake.
# Topology soh, (5)-cn, num edge types: 1
# Building blocks:
#     Node 0, Type 0, BuildingBlock: BEQFEK_clean_sbu_0, # of connection points: 5
#     Node 1, Type 0, BuildingBlock: BEQFEK_clean_sbu_0, # of connection points: 5
#     Node 2, Type 0, BuildingBlock: BEQFEK_clean_sbu_0, # of connection points: 5
#     Node 3, Type 0, BuildingBlock: BEQFEK_clean_sbu_0, # of connection points: 5
#     Node 4, Type 0, BuildingBlock: BEQFEK_clean_sbu_0, # of connection points: 5
#     Node 5, Type 0, BuildingBlock: BEQFEK_clean_sbu_0, # of connection points: 5
#     Node 6, Type 0, BuildingBlock: BEQFEK_clean_sbu_0, # of connection points: 5
#     Node 7, Type 0, BuildingBlock: BEQFEK_clean_sbu_0, # of connection points: 5
#     Node 8, Type 0, BuildingBlock: BEQFEK_clean_sbu_0, # of connection points: 5
#     Node 9, Type 0, BuildingBlock: BEQFEK_clean_sbu_0, # of connection points: 5
#     Node 10, Type 0, BuildingBlock: BEQFEK_clean_sbu_0, # of connection points: 5
#     Node 11, Type 0, BuildingBlock: BEQFEK_clean_sbu_0, # of connection points: 5
#     Node 12, Type 0, BuildingBlock: BEQFEK_clean_sbu_0, # of connection points: 5
#     Node 13, Type 0, BuildingBlock: BEQFEK_clean_sbu_0, # of connection points: 5
#     Node 14, Type 0, BuildingBlock: BEQFEK_clean_sbu_0, # of connection points: 5
#     Node 15, Type 0, BuildingBlock: BEQFEK_clean_sbu_0, # of connection points: 5
#     Node 16, Type 0, BuildingBlock: BEQFEK_clean_sbu_0, # of connection points: 5
#     Node 17, Type 0, BuildingBlock: BEQFEK_clean_sbu_0, # of connection points: 5
#     Node 18, Type 0, BuildingBlock: BEQFEK_clean_sbu_0, # of connection points: 5
#     Node 19, Type 0, BuildingBlock: BEQFEK_clean_sbu_0, # of connection points: 5
#     Node 20, Type 0, BuildingBlock: BEQFEK_clean_sbu_0, # of connection points: 5
#     Node 21, Type 0, BuildingBlock: BEQFEK_clean_sbu_0, # of connection points: 5
#     Node 22, Type 0, BuildingBlock: BEQFEK_clean_sbu_0, # of connection points: 5
#     Node 23, Type 0, BuildingBlock: BEQFEK_clean_sbu_0, # of connection points: 5
#     Node 24, Type 0, BuildingBlock: BEQFEK_clean_sbu_0, # of connection points: 5
#     Node 25, Type 0, BuildingBlock: BEQFEK_clean_sbu_0, # of connection points: 5
#     Node 26, Type 0, BuildingBlock: BEQFEK_clean_sbu_0, # of connection points: 5
#     Node 27, Type 0, BuildingBlock: BEQFEK_clean_sbu_0, # of connection points: 5
#     Node 28, Type 0, BuildingBlock: BEQFEK_clean_sbu_0, # of connection points: 5
#     Node 29, Type 0, BuildingBlock: BEQFEK_clean_sbu_0, # of connection points: 5
#     Node 30, Type 0, BuildingBlock: BEQFEK_clean_sbu_0, # of connection points: 5
#     Node 31, Type 0, BuildingBlock: BEQFEK_clean_sbu_0, # of connection points: 5
#     Edge 32, Type (0, 0), BuildingBlock: XIVTED_clean_linker_0, # of connection points: 2
#     Edge 33, Type (0, 0), BuildingBlock: XIVTED_clean_linker_0, # of connection points: 2
#     Edge 34, Type (0, 0), BuildingBlock: XIVTED_clean_linker_0, # of connection points: 2
#     Edge 35, Type (0, 0), BuildingBlock: XIVTED_clean_linker_0, # of connection points: 2
#     Edge 36, Type (0, 0), BuildingBlock: XIVTED_clean_linker_0, # of connection points: 2
#     Edge 37, Type (0, 0), BuildingBlock: XIVTED_clean_linker_0, # of connection points: 2
#     Edge 38, Type (0, 0), BuildingBlock: XIVTED_clean_linker_0, # of connection points: 2
#     Edge 39, Type (0, 0), BuildingBlock: XIVTED_clean_linker_0, # of connection points: 2
#     Edge 40, Type (0, 0), BuildingBlock: XIVTED_clean_linker_0, # of connection points: 2
#     Edge 41, Type (0, 0), BuildingBlock: XIVTED_clean_linker_0, # of connection points: 2
#     Edge 42, Type (0, 0), BuildingBlock: XIVTED_clean_linker_0, # of connection points: 2
#     Edge 43, Type (0, 0), BuildingBlock: XIVTED_clean_linker_0, # of connection points: 2
#     Edge 44, Type (0, 0), BuildingBlock: XIVTED_clean_linker_0, # of connection points: 2
#     Edge 45, Type (0, 0), BuildingBlock: XIVTED_clean_linker_0, # of connection points: 2
#     Edge 46, Type (0, 0), BuildingBlock: XIVTED_clean_linker_0, # of connection points: 2
#     Edge 47, Type (0, 0), BuildingBlock: XIVTED_clean_linker_0, # of connection points: 2
#     Edge 48, Type (0, 0), BuildingBlock: XIVTED_clean_linker_0, # of connection points: 2
#     Edge 49, Type (0, 0), BuildingBlock: XIVTED_clean_linker_0, # of connection points: 2
#     Edge 50, Type (0, 0), BuildingBlock: XIVTED_clean_linker_0, # of connection points: 2
#     Edge 51, Type (0, 0), BuildingBlock: XIVTED_clean_linker_0, # of connection points: 2
#     Edge 52, Type (0, 0), BuildingBlock: XIVTED_clean_linker_0, # of connection points: 2
#     Edge 53, Type (0, 0), BuildingBlock: XIVTED_clean_linker_0, # of connection points: 2
#     Edge 54, Type (0, 0), BuildingBlock: XIVTED_clean_linker_0, # of connection points: 2
#     Edge 55, Type (0, 0), BuildingBlock: XIVTED_clean_linker_0, # of connection points: 2
#     Edge 56, Type (0, 0), BuildingBlock: XIVTED_clean_linker_0, # of connection points: 2
#     Edge 57, Type (0, 0), BuildingBlock: XIVTED_clean_linker_0, # of connection points: 2
#     Edge 58, Type (0, 0), BuildingBlock: XIVTED_clean_linker_0, # of connection points: 2
#     Edge 59, Type (0, 0), BuildingBlock: XIVTED_clean_linker_0, # of connection points: 2
#     Edge 60, Type (0, 0), BuildingBlock: XIVTED_clean_linker_0, # of connection points: 2
#     Edge 61, Type (0, 0), BuildingBlock: XIVTED_clean_linker_0, # of connection points: 2
#     Edge 62, Type (0, 0), BuildingBlock: XIVTED_clean_linker_0, # of connection points: 2
#     Edge 63, Type (0, 0), BuildingBlock: XIVTED_clean_linker_0, # of connection points: 2
#     Edge 64, Type (0, 0), BuildingBlock: XIVTED_clean_linker_0, # of connection points: 2
#     Edge 65, Type (0, 0), BuildingBlock: XIVTED_clean_linker_0, # of connection points: 2
#     Edge 66, Type (0, 0), BuildingBlock: XIVTED_clean_linker_0, # of connection points: 2
#     Edge 67, Type (0, 0), BuildingBlock: XIVTED_clean_linker_0, # of connection points: 2
#     Edge 68, Type (0, 0), BuildingBlock: XIVTED_clean_linker_0, # of connection points: 2
#     Edge 69, Type (0, 0), BuildingBlock: XIVTED_clean_linker_0, # of connection points: 2
#     Edge 70, Type (0, 0), BuildingBlock: XIVTED_clean_linker_0, # of connection points: 2
#     Edge 71, Type (0, 0), BuildingBlock: XIVTED_clean_linker_0, # of connection points: 2
#     Edge 72, Type (0, 0), BuildingBlock: XIVTED_clean_linker_0, # of connection points: 2
#     Edge 73, Type (0, 0), BuildingBlock: XIVTED_clean_linker_0, # of connection points: 2
#     Edge 74, Type (0, 0), BuildingBlock: XIVTED_clean_linker_0, # of connection points: 2
#     Edge 75, Type (0, 0), BuildingBlock: XIVTED_clean_linker_0, # of connection points: 2
#     Edge 76, Type (0, 0), BuildingBlock: XIVTED_clean_linker_0, # of connection points: 2
#     Edge 77, Type (0, 0), BuildingBlock: XIVTED_clean_linker_0, # of connection points: 2
#     Edge 78, Type (0, 0), BuildingBlock: XIVTED_clean_linker_0, # of connection points: 2
#     Edge 79, Type (0, 0), BuildingBlock: XIVTED_clean_linker_0, # of connection points: 2
#     Edge 80, Type (0, 0), BuildingBlock: XIVTED_clean_linker_0, # of connection points: 2
#     Edge 81, Type (0, 0), BuildingBlock: XIVTED_clean_linker_0, # of connection points: 2
#     Edge 82, Type (0, 0), BuildingBlock: XIVTED_clean_linker_0, # of connection points: 2
#     Edge 83, Type (0, 0), BuildingBlock: XIVTED_clean_linker_0, # of connection points: 2
#     Edge 84, Type (0, 0), BuildingBlock: XIVTED_clean_linker_0, # of connection points: 2
#     Edge 85, Type (0, 0), BuildingBlock: XIVTED_clean_linker_0, # of connection points: 2
#     Edge 86, Type (0, 0), BuildingBlock: XIVTED_clean_linker_0, # of connection points: 2
#     Edge 87, Type (0, 0), BuildingBlock: XIVTED_clean_linker_0, # of connection points: 2
#     Edge 88, Type (0, 0), BuildingBlock: XIVTED_clean_linker_0, # of connection points: 2
#     Edge 89, Type (0, 0), BuildingBlock: XIVTED_clean_linker_0, # of connection points: 2
#     Edge 90, Type (0, 0), BuildingBlock: XIVTED_clean_linker_0, # of connection points: 2
#     Edge 91, Type (0, 0), BuildingBlock: XIVTED_clean_linker_0, # of connection points: 2
#     Edge 92, Type (0, 0), BuildingBlock: XIVTED_clean_linker_0, # of connection points: 2
#     Edge 93, Type (0, 0), BuildingBlock: XIVTED_clean_linker_0, # of connection points: 2
#     Edge 94, Type (0, 0), BuildingBlock: XIVTED_clean_linker_0, # of connection points: 2
#     Edge 95, Type (0, 0), BuildingBlock: XIVTED_clean_linker_0, # of connection points: 2
#     Edge 96, Type (0, 0), BuildingBlock: XIVTED_clean_linker_0, # of connection points: 2
#     Edge 97, Type (0, 0), BuildingBlock: XIVTED_clean_linker_0, # of connection points: 2
#     Edge 98, Type (0, 0), BuildingBlock: XIVTED_clean_linker_0, # of connection points: 2
#     Edge 99, Type (0, 0), BuildingBlock: XIVTED_clean_linker_0, # of connection points: 2
#     Edge 100, Type (0, 0), BuildingBlock: XIVTED_clean_linker_0, # of connection points: 2
#     Edge 101, Type (0, 0), BuildingBlock: XIVTED_clean_linker_0, # of connection points: 2
#     Edge 102, Type (0, 0), BuildingBlock: XIVTED_clean_linker_0, # of connection points: 2
#     Edge 103, Type (0, 0), BuildingBlock: XIVTED_clean_linker_0, # of connection points: 2
#     Edge 104, Type (0, 0), BuildingBlock: XIVTED_clean_linker_0, # of connection points: 2
#     Edge 105, Type (0, 0), BuildingBlock: XIVTED_clean_linker_0, # of connection points: 2
#     Edge 106, Type (0, 0), BuildingBlock: XIVTED_clean_linker_0, # of connection points: 2
#     Edge 107, Type (0, 0), BuildingBlock: XIVTED_clean_linker_0, # of connection points: 2
#     Edge 108, Type (0, 0), BuildingBlock: XIVTED_clean_linker_0, # of connection points: 2
#     Edge 109, Type (0, 0), BuildingBlock: XIVTED_clean_linker_0, # of connection points: 2
#     Edge 110, Type (0, 0), BuildingBlock: XIVTED_clean_linker_0, # of connection points: 2
#     Edge 111, Type (0, 0), BuildingBlock: XIVTED_clean_linker_0, # of connection points: 2
# Relax obj value: 0.393
# Max RMSD: 0.181
# Mean RMSD: 0.181
data_MOF--net-soh--node1-BEQFEK_clean_sbu_0--edge1-XIVTED_clean_linker_0
_symmetry_space_group_name_H-M    P1
_symmetry_Int_Tables_number       1
_symmetry_cell_setting            triclinic
loop_
_symmetry_equiv_pos_as_xyz
'x, y, z'
_cell_length_a     77.857982
_cell_length_b     40.723831
_cell_length_c     48.275891
_cell_angle_alpha  90.045771
_cell_angle_beta   89.958274
_cell_angle_gamma 89.936765
loop_
_atom_site_label
_atom_site_type_symbol
_atom_site_fract_x
_atom_site_fract_y
_atom_site_fract_z
_atom_type_partial_charge
Co0 Co 0.30364 0.32367 0.18468 0.0
Co1 Co 0.29487 0.38052 0.22593 0.0
C2 C 0.33118 0.36666 0.20905 0.0
O3 O 0.32647 0.34281 0.19387 0.0
O4 O 0.32027 0.38348 0.22255 0.0
C5 C 0.3212 0.26547 0.17502 0.0
O6 O 0.32902 0.27641 0.19729 0.0
C7 C 0.29705 0.41159 0.27967 0.0
C8 C 0.27066 0.42953 0.28625 0.0
C9 C 0.28592 0.42292 0.30009 0.0
N10 N 0.28842 0.40929 0.25565 0.0
N11 N 0.27287 0.42154 0.25938 0.0
C12 C 0.31557 0.40232 0.28281 0.0
H13 H 0.3232 0.41467 0.26648 0.0
H14 H 0.31706 0.37538 0.28018 0.0
H15 H 0.32081 0.4102 0.30311 0.0
C16 C 0.28662 0.28309 0.22956 0.0
N17 N 0.29128 0.31219 0.218 0.0
N18 N 0.28767 0.33607 0.23547 0.0
C19 C 0.28064 0.32263 0.25857 0.0
C20 C 0.28006 0.28863 0.25601 0.0
C21 C 0.28952 0.25023 0.21648 0.0
H22 H 0.28768 0.25178 0.19378 0.0
H23 H 0.30278 0.24199 0.22111 0.0
H24 H 0.28064 0.23148 0.22481 0.0
O25 O 0.29103 0.35625 0.16017 0.0
O26 O 0.28533 0.39681 0.18972 0.0
H27 H 0.26606 0.32615 0.29663 0.0
H28 H 0.28508 0.35099 0.29477 0.0
C29 C 0.27405 0.34161 0.28279 0.0
H30 H 0.26609 0.36228 0.27542 0.0
H31 H 0.26325 0.42131 0.24435 0.0
O32 O 0.30927 0.28269 0.16432 0.0
C33 C 0.28502 0.38492 0.1652 0.0
Co34 Co 0.98281 0.97058 0.18816 0.0
Co35 Co 0.99395 0.91384 0.22717 0.0
C36 C 0.95668 0.92616 0.21383 0.0
O37 O 0.96056 0.95089 0.1991 0.0
O38 O 0.96829 0.90912 0.22559 0.0
C39 C 0.96437 0.02834 0.17843 0.0
O40 O 0.95618 1.01714 0.20026 0.0
C41 C 0.99439 0.88559 0.28146 0.0
C42 C 0.01921 0.8594 0.28291 0.0
C43 C 1.00559 0.86974 0.29931 0.0
N44 N 1.00122 0.8852 0.25594 0.0
N45 N 1.01578 0.86853 0.25665 0.0
C46 C 0.97912 0.90615 0.28925 0.0
H47 H 0.97738 0.92658 0.27436 0.0
H48 H 0.98043 0.91655 0.31038 0.0
H49 H 0.96745 0.89055 0.28875 0.0
C50 C 1.00014 1.01133 0.23276 0.0
N51 N 0.99592 0.98224 0.22075 0.0
N52 N 1.00093 0.95816 0.23702 0.0
C53 C 1.00873 0.97138 0.25959 0.0
C54 C 1.00812 1.00546 0.25812 0.0
C55 C 0.99532 0.04424 0.22141 0.0
H56 H 0.99721 0.04459 0.19867 0.0
H57 H 0.98165 0.04916 0.22627 0.0
H58 H 1.003 0.06426 0.23068 0.0
O59 O 0.99484 0.9384 0.16222 0.0
O60 O 1.00344 0.89876 0.19063 0.0
H61 H 0.02789 0.96735 0.2916 0.0
H62 H 1.00837 0.94562 0.29818 0.0
C63 C 1.01767 0.95232 0.28179 0.0
H64 H 0.02361 0.92995 0.27301 0.0
H65 H 0.02408 0.86597 0.2398 0.0
O66 O 0.97662 1.0115 0.16823 0.0
C67 C 1.00223 0.9107 0.16623 0.0
Co68 Co 0.3032 0.97156 0.11227 0.0
Co69 Co 0.29243 0.91398 0.07388 0.0
C70 C 0.32954 0.92689 0.08687 0.0
O71 O 0.32546 0.95167 0.10148 0.0
O72 O 0.31808 0.90949 0.07511 0.0
C73 C 0.32153 0.02963 0.12101 0.0
O74 O 0.32954 1.01823 0.09905 0.0
C75 C 0.29154 0.8822 1.02084 0.0
C76 C 0.26615 0.85813 1.02059 0.0
C77 C 0.27999 0.86608 1.00378 0.0
N78 N 0.28472 0.88419 0.0463 0.0
N79 N 0.26981 0.86873 0.04637 0.0
C80 C 0.30728 0.90075 1.01214 0.0
H81 H 0.30874 0.92333 1.02477 0.0
H82 H 0.30686 0.90758 0.98992 0.0
H83 H 0.31872 0.88504 1.01566 0.0
C84 C 0.28579 1.01126 0.06708 0.0
N85 N 0.29005 0.98243 0.0795 0.0
N86 N 0.28538 0.95802 0.06329 0.0
C87 C 0.27786 0.97075 0.04031 0.0
C88 C 0.27821 1.00487 0.04148 0.0
C89 C 0.29029 0.04442 0.07828 0.0
H90 H 0.28853 0.04485 0.10104 0.0
H91 H 0.30386 0.04986 0.07316 0.0
H92 H 0.28232 0.06407 0.06908 0.0
O93 O 0.29135 0.94 0.13884 0.0
O94 O 0.28319 0.89979 0.11072 0.0
H95 H 0.2599 0.96593 1.00655 0.0
H96 H 0.27954 0.9435 1.00253 0.0
C97 C 0.26965 0.95111 1.01773 0.0
H98 H 0.26326 0.92924 0.0265 0.0
H99 H 0.26147 0.86807 0.06328 0.0
O100 O 0.30941 1.01286 0.13161 0.0
C101 C 0.28421 0.91206 0.135 0.0
Co102 Co 0.9828 0.32246 0.11539 0.0
Co103 Co 0.99166 0.37933 0.07414 0.0
C104 C 0.95529 0.36482 0.09023 0.0
O105 O 0.95998 0.34127 0.10572 0.0
O106 O 0.96624 0.38166 0.07688 0.0
C107 C 0.96531 0.26423 0.12479 0.0
O108 O 0.95757 0.27518 0.10245 0.0
C109 C 0.98969 0.40937 1.01993 0.0
C110 C 1.01584 0.42872 1.01395 0.0
C111 C 1.00085 0.42111 0.99975 0.0
N112 N 0.99807 0.40788 0.04423 0.0
N113 N 1.01346 0.4209 0.04083 0.0
C114 C 0.97138 0.39892 1.0163 0.0
H115 H 0.96333 0.41108 0.03223 0.0
H116 H 0.97034 0.37196 1.01919 0.0
H117 H 0.96625 0.40613 0.99576 0.0
C118 C 1.00013 0.28197 0.07076 0.0
N119 N 0.99543 0.31107 0.08234 0.0
N120 N 0.99922 0.33498 0.06505 0.0
C121 C 1.00645 0.32157 0.04208 0.0
C122 C 1.00692 0.28758 0.04449 0.0
C123 C 0.99705 0.24906 0.08354 0.0
H124 H 0.99873 0.2504 0.10629 0.0
H125 H 0.98381 0.24103 0.0786 0.0
H126 H 1.00595 0.23027 0.07526 0.0
O127 O 0.99513 0.35531 0.14001 0.0
O128 O 1.00069 0.39608 0.11062 0.0
H129 H 0.0217 0.32512 1.00477 0.0
H130 H 1.00243 0.34933 1.00545 0.0
C131 C 1.0133 0.34053 1.01808 0.0
H132 H 0.02092 0.36154 0.02567 0.0
H133 H 0.02292 0.42143 0.05613 0.0
O134 O 0.97717 0.28146 0.13567 0.0
C135 C 1.00094 0.38414 0.13513 0.0
Co136 Co 0.73349 0.71884 0.863 0.0
Co137 Co 0.74417 0.6609 0.82501 0.0
C138 C 0.70678 0.67565 0.83925 0.0
O139 O 0.71069 0.70101 0.85333 0.0
O140 O 0.71836 0.65797 0.82786 0.0
C141 C 0.71644 0.77463 0.88811 0.0
O142 O 0.70211 0.75898 0.88258 0.0
C143 C 0.74417 0.63118 0.7711 0.0
C144 C 0.76894 0.60477 0.76999 0.0
C145 C 0.7553 0.61471 0.75353 0.0
N146 N 0.75101 0.6314 0.79659 0.0
N147 N 0.76554 0.61462 0.79609 0.0
C148 C 0.72896 0.65165 0.76294 0.0
H149 H 0.72728 0.67253 0.77744 0.0
H150 H 0.73031 0.66125 0.74155 0.0
H151 H 0.71726 0.63617 0.76381 0.0
C152 C 0.74812 0.75754 0.81592 0.0
N153 N 0.74552 0.72887 0.82948 0.0
N154 N 0.75129 0.70454 0.81423 0.0
C155 C 0.75858 0.71726 0.79107 0.0
C156 C 0.75652 0.75129 0.79093 0.0
C157 C 0.74059 0.78961 0.82506 0.0
H158 H 0.72733 0.78568 0.83272 0.0
H159 H 0.74018 0.80779 0.808 0.0
H160 H 0.74841 0.79962 0.84229 0.0
O161 O 0.74537 0.68644 0.88867 0.0
O162 O 0.75402 0.64612 0.86109 0.0
H163 H 0.77836 0.71298 0.76008 0.0
H164 H 0.75929 0.68983 0.7533 0.0
C165 C 0.7682 0.69778 0.76985 0.0
H166 H 0.77425 0.67603 0.77952 0.0
H167 H 0.77387 0.61251 0.81292 0.0
O168 O 0.73075 0.76093 0.88288 0.0
C169 C 0.75276 0.65868 0.88521 0.0
Co170 Co 0.05387 0.07465 0.86225 0.0
Co171 Co 0.04269 0.13247 0.82432 0.0
C172 C 0.07992 0.11966 0.83691 0.0
O173 O 0.07599 0.09469 0.85135 0.0
O174 O 0.06835 0.1371 0.82546 0.0
C175 C 0.07243 1.01668 0.8711 0.0
O176 O 0.08056 0.02814 0.84932 0.0
C177 C 0.04179 0.16387 0.77119 0.0
C178 C 1.01637 0.18794 0.77069 0.0
C179 C 0.03025 0.17983 0.754 0.0
N180 N 0.03493 0.16213 0.79664 0.0
N181 N 0.02 0.17757 0.79655 0.0
C182 C 0.05755 0.1452 0.76264 0.0
H183 H 0.05897 0.12267 0.77533 0.0
H184 H 0.05718 0.13824 0.74044 0.0
H185 H 0.06899 0.16086 0.76618 0.0
C186 C 0.03657 0.03513 0.81702 0.0
N187 N 0.04068 0.06392 0.82959 0.0
N188 N 0.03577 0.0884 0.81365 0.0
C189 C 0.02818 0.07573 0.7907 0.0
C190 C 0.02878 0.04162 0.7916 0.0
C191 C 0.04144 1.00198 0.82783 0.0
H192 H 0.03959 1.00112 0.85057 0.0
H193 H 0.0551 0.99721 0.82282 0.0
H194 H 0.03377 0.98213 0.81831 0.0
O195 O 0.04197 0.10598 0.88888 0.0
O196 O 0.03345 0.14643 0.86128 0.0
H197 H 1.00992 0.08046 0.75738 0.0
H198 H 0.0294 0.10318 0.75303 0.0
C199 C 0.01969 0.09537 0.76841 0.0
H200 H 1.01326 0.1171 0.77744 0.0
H201 H 1.01162 0.17837 0.81342 0.0
O202 O 0.06017 0.03335 0.88149 0.0
C203 C 0.03466 0.13384 0.88541 0.0
Co204 Co 0.73551 0.07565 0.93524 0.0
Co205 Co 0.74131 0.1318 0.97789 0.0
C206 C 0.70619 0.11651 0.96003 0.0
O207 O 0.71216 0.09516 0.94321 0.0
O208 O 0.71603 0.1325 0.97616 0.0
C209 C 0.71842 1.01678 0.92208 0.0
O210 O 0.70735 0.02879 0.93997 0.0
C211 C 0.74039 0.16998 0.02896 0.0
C212 C 0.76807 0.17545 0.03726 0.0
C213 C 0.75206 0.17784 0.04979 0.0
N214 N 0.74918 0.16092 1.00624 0.0
N215 N 0.76569 0.16576 1.0109 0.0
C216 C 0.72119 0.16936 0.03081 0.0
H217 H 0.71566 0.18062 1.01189 0.0
H218 H 0.71663 0.1436 0.03186 0.0
H219 H 0.71656 0.18318 0.04918 0.0
C220 C 0.75242 0.03584 0.98017 0.0
N221 N 0.74736 0.06481 0.96896 0.0
N222 N 0.74863 0.08795 0.9878 0.0
C223 C 0.75368 0.07403 1.01199 0.0
C224 C 0.75654 0.04048 1.00806 0.0
C225 C 0.75338 1.00425 0.96443 0.0
H226 H 0.75673 1.00904 0.94248 0.0
H227 H 0.74071 0.99187 0.96526 0.0
H228 H 0.76315 0.98762 0.97359 0.0
O229 O 0.7482 0.10743 0.91103 0.0
O230 O 0.75013 0.14872 0.94091 0.0
H231 H 0.76433 0.10643 0.04225 0.0
H232 H 0.75176 0.07357 0.05688 0.0
C233 C 0.75273 0.09109 0.03939 0.0
H234 H 0.74116 0.10672 0.03993 0.0
H235 H 0.77543 0.15915 0.99711 0.0
O236 O 0.73148 0.0338 0.91545 0.0
C237 C 0.75223 0.1371 0.91652 0.0
Co238 Co 0.05461 0.723 0.93513 0.0
Co239 Co 0.04531 0.66626 0.9761 0.0
C240 C 0.08183 0.67966 0.95984 0.0
O241 O 0.07737 0.70359 0.94457 0.0
O242 O 0.07071 0.6631 0.97309 0.0
C243 C 0.07239 0.78094 0.92511 0.0
O244 O 0.08041 0.76994 0.94717 0.0
C245 C 0.04719 0.63623 0.03023 0.0
C246 C 0.02097 0.6173 0.0363 0.0
C247 C 0.036 0.62472 0.05045 0.0
N248 N 0.03879 0.63779 1.00595 0.0
N249 N 0.02335 0.625 1.0094 0.0
C250 C 0.06555 0.64642 0.03379 0.0
H251 H 0.07354 0.63404 1.01791 0.0
H252 H 0.06669 0.67335 0.03078 0.0
H253 H 0.07065 0.63926 0.05436 0.0
C254 C 0.0376 0.76385 0.97995 0.0
N255 N 0.04213 0.73469 0.9683 0.0
N256 N 0.03808 0.71078 0.98544 0.0
C257 C 0.03079 0.72426 1.00834 0.0
C258 C 0.03057 0.75829 1.00608 0.0
C259 C 0.04108 0.79672 0.96735 0.0
H260 H 0.03913 0.79571 0.94464 0.0
H261 H 0.05451 0.80384 0.97191 0.0
H262 H 0.03261 0.81599 0.97603 0.0
O263 O 0.04196 0.69056 0.91047 0.0
O264 O 0.03602 0.64985 0.9397 0.0
H265 H 1.01498 0.72081 0.04506 0.0
H266 H 0.0341 0.69616 0.04497 0.0
C267 C 0.02347 0.7053 0.03199 0.0
H268 H 1.01584 0.6845 1.02401 0.0
H269 H 1.01388 0.62459 0.99413 0.0
O270 O 0.0603 0.76387 0.91473 0.0
C271 C 0.03588 0.66192 0.91525 0.0
Co272 Co 0.30422 0.8265 0.68699 0.0
Co273 Co 0.29467 0.88357 0.72716 0.0
C274 C 0.33168 0.86727 0.71052 0.0
O275 O 0.32743 0.8424 0.69614 0.0
O276 O 0.32037 0.88498 0.7225 0.0
C277 C 0.32009 0.77101 0.66 0.0
O278 O 0.33462 0.78597 0.66555 0.0
C279 C 0.29749 0.91002 0.78224 0.0
C280 C 0.27213 0.93277 0.78891 0.0
C281 C 0.28671 0.92212 0.80284 0.0
N282 N 0.28922 0.91143 0.75786 0.0
N283 N 0.27435 0.92637 0.76174 0.0
C284 C 0.31524 0.8963 0.78543 0.0
H285 H 0.32383 0.90766 0.76986 0.0
H286 H 0.31502 0.86941 0.78165 0.0
H287 H 0.32067 0.90168 0.80618 0.0
C288 C 0.28995 0.78665 0.73367 0.0
N289 N 0.29265 0.81568 0.72068 0.0
N290 N 0.28716 0.83968 0.73656 0.0
C291 C 0.27987 0.82639 0.75946 0.0
C292 C 0.28175 0.79236 0.75892 0.0
C293 C 0.2971 0.75465 0.72364 0.0
H294 H 0.3103 0.7584 0.71567 0.0
H295 H 0.2975 0.73596 0.7403 0.0
H296 H 0.289 0.74542 0.70642 0.0
O297 O 0.29239 0.861 0.66316 0.0
O298 O 0.28431 0.90057 0.69208 0.0
H299 H 0.26359 0.86653 0.77111 0.0
H300 H 0.26033 0.82961 0.79097 0.0
C301 C 0.27012 0.84533 0.78081 0.0
H302 H 0.27909 0.85397 0.79691 0.0
H303 H 0.26501 0.92917 0.74642 0.0
O304 O 0.30597 0.78511 0.66578 0.0
C305 C 0.28528 0.88887 0.66757 0.0
Co306 Co 0.98333 0.47216 0.68682 0.0
Co307 Co 0.99215 0.41554 0.72751 0.0
C308 C 0.9558 0.42898 0.71199 0.0
O309 O 0.96065 0.45201 0.696 0.0
O310 O 0.96659 0.41269 0.72623 0.0
C311 C 0.9665 0.53157 0.67916 0.0
O312 O 0.9595 0.52145 0.7024 0.0
C313 C 0.99278 0.38122 0.78021 0.0
C314 C 0.01942 0.36268 0.78139 0.0
C315 C 1.00491 0.36718 0.79766 0.0
N316 N 1.00001 0.38577 0.75523 0.0
N317 N 1.01569 0.37338 0.75571 0.0
C318 C 0.97565 0.39525 0.78825 0.0
H319 H 0.9732 0.41847 0.77696 0.0
H320 H 0.97474 0.40005 0.8108 0.0
H321 H 0.96546 0.37751 0.78242 0.0
C322 C 1.00128 0.51226 0.73104 0.0
N323 N 0.99612 0.4833 0.71988 0.0
N324 N 0.99939 0.4596 0.73762 0.0
C325 C 1.00646 0.47299 0.76076 0.0
C326 C 1.00776 0.50697 0.75756 0.0
C327 C 1.00073 0.5446 0.71639 0.0
H328 H 1.00219 0.54108 0.69375 0.0
H329 H 0.98829 0.55682 0.72073 0.0
H330 H 1.01112 0.56094 0.72397 0.0
O331 O 0.99555 0.44075 0.66134 0.0
O332 O 1.0014 0.40005 0.6904 0.0
H333 H 0.01894 0.43321 0.7814 0.0
H334 H 1.01659 0.46898 0.80281 0.0
C335 C 1.01041 0.45406 0.78655 0.0
H336 H 0.99832 0.44476 0.7955 0.0
H337 H 0.0244 0.37514 0.73933 0.0
O338 O 0.97756 0.51338 0.66723 0.0
C339 C 1.00161 0.4121 0.66595 0.0
Co340 Co 0.30173 0.47047 0.61301 0.0
Co341 Co 0.29456 0.41389 0.57144 0.0
C342 C 0.33032 0.4288 0.5885 0.0
O343 O 0.32481 0.45077 0.60506 0.0
O344 O 0.32008 0.41277 0.57307 0.0
C345 C 0.31958 0.52847 0.62788 0.0
O346 O 0.33141 0.51543 0.61188 0.0
C347 C 0.29469 0.3802 0.51861 0.0
C348 C 0.26862 0.35902 0.51739 0.0
C349 C 0.28296 0.36512 0.50112 0.0
N350 N 0.28739 0.38375 0.54364 0.0
N351 N 0.27208 0.36983 0.54314 0.0
C352 C 0.31135 0.39614 0.51061 0.0
H353 H 0.31318 0.41929 0.52231 0.0
H354 H 0.31199 0.40154 0.48814 0.0
H355 H 0.32206 0.37931 0.51597 0.0
C356 C 0.28507 0.51028 0.56777 0.0
N357 N 0.2898 0.48125 0.57921 0.0
N358 N 0.28659 0.4575 0.56149 0.0
C359 C 0.27965 0.47086 0.53824 0.0
C360 C 0.27861 0.50494 0.54122 0.0
C361 C 0.28656 0.54278 0.58202 0.0
H362 H 0.2827 0.54034 0.60402 0.0
H363 H 0.3001 0.55113 0.58112 0.0
H364 H 0.27832 0.56156 0.572 0.0
O365 O 0.28902 0.43883 0.63775 0.0
O366 O 0.28577 0.39746 0.60828 0.0
H367 H 0.26793 0.42983 0.51816 0.0
H368 H 0.26828 0.46606 0.49713 0.0
C369 C 0.27555 0.45175 0.5126 0.0
H370 H 0.28764 0.4441 0.5025 0.0
H371 H 0.26337 0.37057 0.55957 0.0
O372 O 0.3059 0.51239 0.63275 0.0
C373 C 0.28431 0.4094 0.63265 0.0
Co374 Co 0.98363 0.82556 0.6136 0.0
Co375 Co 0.99148 0.88197 0.57195 0.0
C376 C 0.95564 0.86845 0.58807 0.0
O377 O 0.96085 0.84586 0.6043 0.0
O378 O 0.96612 0.8847 0.57322 0.0
C379 C 0.96737 0.76582 0.62018 0.0
O380 O 0.96095 0.77594 0.5965 0.0
C381 C 0.99178 0.92004 0.5208 0.0
C382 C 0.01963 0.92405 0.51341 0.0
C383 C 1.00384 0.92716 0.50033 0.0
N384 N 1.00013 0.91066 0.54384 0.0
N385 N 1.01676 0.91466 0.53972 0.0
C386 C 0.97261 0.92042 0.51832 0.0
H387 H 0.96699 0.93225 0.53695 0.0
H388 H 0.96767 0.8949 0.51737 0.0
H389 H 0.96842 0.9342 0.49968 0.0
C390 C 1.00157 0.78554 0.5695 0.0
N391 N 0.99636 0.8145 0.58062 0.0
N392 N 0.99805 0.83769 0.56192 0.0
C393 C 1.00334 0.82376 0.53784 0.0
C394 C 1.00602 0.7902 0.54176 0.0
C395 C 1.00289 0.75404 0.58528 0.0
H396 H 1.00454 0.75896 0.60772 0.0
H397 H 0.99106 0.73944 0.5821 0.0
H398 H 1.01391 0.73927 0.57762 0.0
O399 O 0.99575 0.85697 0.63869 0.0
O400 O 1.00072 0.89763 0.60916 0.0
H401 H 1.01463 0.85569 0.50787 0.0
H402 H 1.00182 0.8234 0.49294 0.0
C403 C 1.00283 0.84086 0.51048 0.0
H404 H 0.99143 0.85694 0.50974 0.0
H405 H 0.02622 0.90763 0.55384 0.0
O406 O 0.97791 0.78421 0.63298 0.0
C407 C 1.00135 0.88582 0.6337 0.0
Co408 Co 0.73352 0.22006 0.36563 0.0
Co409 Co 0.74233 0.16416 0.32411 0.0
C410 C 0.70578 0.17862 0.34095 0.0
O411 O 0.7105 0.20117 0.35757 0.0
O412 O 0.71666 0.16292 0.32632 0.0
C413 C 0.71615 0.2764 0.38813 0.0
O414 O 0.70229 0.262 0.37851 0.0
C415 C 0.74175 0.13763 0.26907 0.0
C416 C 0.76589 0.10928 0.26675 0.0
C417 C 0.75247 0.12124 0.25078 0.0
N418 N 0.74864 0.13591 0.29449 0.0
N419 N 0.76279 0.11801 0.29322 0.0
C420 C 0.72698 0.15972 0.26183 0.0
H421 H 0.72555 0.17955 0.27739 0.0
H422 H 0.72869 0.17095 0.24108 0.0
H423 H 0.715 0.14501 0.26154 0.0
C424 C 0.74807 0.26085 0.31925 0.0
N425 N 0.74498 0.23159 0.33167 0.0
N426 N 0.75016 0.20784 0.31524 0.0
C427 C 0.75745 0.22139 0.29242 0.0
C428 C 0.75604 0.25545 0.29375 0.0
C429 C 0.74158 0.29297 0.33012 0.0
H430 H 0.72773 0.29068 0.33503 0.0
H431 H 0.74322 0.31318 0.31501 0.0
H432 H 0.74853 0.29915 0.34947 0.0
O433 O 0.74635 0.18727 0.38957 0.0
O434 O 0.75145 0.14659 0.36002 0.0
H435 H 0.77705 0.21774 0.26109 0.0
H436 H 0.75756 0.19643 0.25338 0.0
C437 C 0.76663 0.20262 0.27023 0.0
H438 H 0.7723 0.17989 0.27882 0.0
H439 H 0.77108 0.11426 0.3099 0.0
O440 O 0.73051 0.26161 0.38646 0.0
C441 C 0.75203 0.1584 0.38451 0.0
Co442 Co 0.052 0.57501 0.3635 0.0
Co443 Co 0.04485 0.63139 0.32186 0.0
C444 C 0.08053 0.6169 0.33845 0.0
O445 O 0.07499 0.5949 0.35493 0.0
O446 O 0.07029 0.63302 0.32309 0.0
C447 C 0.06822 0.51527 0.36987 0.0
O448 O 0.07467 0.5256 0.34627 0.0
C449 C 0.04424 0.66651 0.2694 0.0
C450 C 1.01747 0.68439 0.26841 0.0
C451 C 0.032 0.68044 0.25208 0.0
N452 N 0.03704 0.66143 0.29434 0.0
N453 N 0.02128 0.67345 0.29398 0.0
C454 C 0.06151 0.65321 0.26125 0.0
H455 H 0.06426 0.63007 0.27246 0.0
H456 H 0.06243 0.64849 0.23869 0.0
H457 H 0.0715 0.67135 0.26705 0.0
C458 C 0.03391 0.53536 0.3192 0.0
N459 N 0.03947 0.56414 0.33017 0.0
N460 N 0.03707 0.58766 0.31193 0.0
C461 C 0.0303 0.57428 0.28856 0.0
C462 C 0.02817 0.54052 0.29222 0.0
C463 C 0.03326 0.50343 0.33447 0.0
H464 H 0.03195 0.50771 0.35705 0.0
H465 H 0.04519 0.48941 0.33034 0.0
H466 H 0.02229 0.48838 0.32712 0.0
O467 O 0.03947 0.60634 0.38868 0.0
O468 O 0.03619 0.64754 0.35907 0.0
H469 H 0.01867 0.61368 0.26626 0.0
H470 H 0.02206 0.57766 0.24542 0.0
C471 C 0.02746 0.59286 0.26224 0.0
H472 H 0.03988 0.60223 0.25465 0.0
H473 H 1.01258 0.67124 0.31033 0.0
O474 O 0.05761 0.53351 0.38275 0.0
C475 C 0.03476 0.63576 0.3835 0.0
Co476 Co 0.73287 0.57582 0.43659 0.0
Co477 Co 0.74247 0.63288 0.47687 0.0
C478 C 0.70551 0.61746 0.46002 0.0
O479 O 0.70977 0.5925 0.44574 0.0
O480 O 0.7168 0.635 0.47213 0.0
C481 C 0.71622 0.52057 0.41073 0.0
O482 O 0.70196 0.53638 0.41659 0.0
C483 C 0.73958 0.65989 0.53178 0.0
C484 C 0.76514 0.68153 0.53875 0.0
C485 C 0.75036 0.67161 0.5525 0.0
N486 N 0.74802 0.66077 0.50752 0.0
N487 N 0.76303 0.67507 0.51156 0.0
C488 C 0.72164 0.64713 0.53476 0.0
H489 H 0.71331 0.65889 0.51903 0.0
H490 H 0.72152 0.62022 0.53106 0.0
H491 H 0.71614 0.6529 0.5554 0.0
C492 C 0.74718 0.53575 0.48317 0.0
N493 N 0.7444 0.56486 0.47034 0.0
N494 N 0.74975 0.58879 0.4864 0.0
C495 C 0.757 0.57536 0.50929 0.0
C496 C 0.75528 0.5413 0.50851 0.0
C497 C 0.74024 0.50374 0.47287 0.0
H498 H 0.72687 0.50722 0.46559 0.0
H499 H 0.74029 0.4846 0.48918 0.0
H500 H 0.74814 0.49526 0.45512 0.0
O501 O 0.74489 0.61004 0.41266 0.0
O502 O 0.75294 0.6495 0.4417 0.0
H503 H 0.77616 0.57843 0.5414 0.0
H504 H 0.75736 0.60304 0.54669 0.0
C505 C 0.76653 0.59421 0.5309 0.0
H506 H 0.77324 0.61526 0.52134 0.0
H507 H 0.7725 0.67737 0.49637 0.0
O508 O 0.73059 0.53418 0.41566 0.0
C509 C 0.75203 0.63785 0.41716 0.0
Co510 Co 0.05455 0.2212 0.43734 0.0
Co511 Co 0.04463 0.16459 0.478 0.0
C512 C 0.08156 0.17908 0.46277 0.0
O513 O 0.07726 0.20328 0.44771 0.0
O514 O 0.07027 0.16183 0.47507 0.0
C515 C 0.07197 0.27937 0.42398 0.0
O516 O 0.08144 0.2692 0.44478 0.0
C517 C 0.0463 0.13563 0.53256 0.0
C518 C 0.02025 0.11561 0.53814 0.0
C519 C 0.03503 0.12391 0.55261 0.0
N520 N 0.03814 0.13642 0.50805 0.0
N521 N 0.02282 0.12299 0.51123 0.0
C522 C 0.06448 0.14672 0.53645 0.0
H523 H 0.06529 0.17368 0.53332 0.0
H524 H 0.06951 0.13995 0.55716 0.0
H525 H 0.07275 0.13464 0.52079 0.0
C526 C 0.03791 0.26219 0.48239 0.0
N527 N 0.04193 0.23298 0.47035 0.0
N528 N 0.0373 0.20904 0.48706 0.0
C529 C 0.02986 0.22249 0.50983 0.0
C530 C 0.03037 0.25655 0.50815 0.0
C531 C 0.04277 0.29493 0.47077 0.0
H532 H 0.03989 0.29566 0.44831 0.0
H533 H 0.05671 0.29884 0.47394 0.0
H534 H 0.03589 0.31534 0.48109 0.0
O535 O 0.04268 0.18743 0.41283 0.0
O536 O 0.03489 0.14801 0.44207 0.0
H537 H 1.01264 0.2191 0.5448 0.0
H538 H 0.03173 0.19457 0.54687 0.0
C539 C 0.02164 0.20353 0.53271 0.0
H540 H 1.01439 0.18262 0.52404 0.0
H541 H 1.01353 0.12191 0.4957 0.0
O542 O 0.05941 0.26179 0.41597 0.0
C543 C 0.03573 0.15947 0.41747 0.0
Co544 Co 0.80267 0.32604 0.68634 0.0
Co545 Co 0.79476 0.38258 0.72778 0.0
C546 C 0.83081 0.36824 0.71105 0.0
O547 O 0.82559 0.34558 0.69494 0.0
O548 O 0.82031 0.38464 0.72581 0.0
C549 C 0.81902 0.26618 0.67753 0.0
O550 O 0.82656 0.276 0.70042 0.0
C551 C 0.79474 0.41641 0.78077 0.0
C552 C 0.76836 0.43623 0.78231 0.0
C553 C 0.78283 0.43084 0.79843 0.0
N554 N 0.78739 0.41246 0.75582 0.0
N555 N 0.77189 0.42562 0.75651 0.0
C556 C 0.81171 0.40154 0.78855 0.0
H557 H 0.81394 0.37856 0.77677 0.0
H558 H 0.81252 0.39615 0.811 0.0
H559 H 0.82207 0.41907 0.78311 0.0
C560 C 0.78515 0.28608 0.7311 0.0
N561 N 0.79023 0.31502 0.71983 0.0
N562 N 0.78726 0.33869 0.73778 0.0
C563 C 0.7804 0.32532 0.76109 0.0
C564 C 0.77901 0.29137 0.75785 0.0
C565 C 0.78551 0.25371 0.71644 0.0
H566 H 0.78369 0.25718 0.69387 0.0
H567 H 0.79802 0.24156 0.72027 0.0
H568 H 0.77526 0.23734 0.72446 0.0
O569 O 0.79029 0.35796 0.66145 0.0
O570 O 0.78526 0.39852 0.69111 0.0
H571 H 0.76861 0.36575 0.78192 0.0
H572 H 0.77002 0.32963 0.80296 0.0
C573 C 0.77668 0.34424 0.78699 0.0
H574 H 0.78889 0.35246 0.79626 0.0
H575 H 0.76313 0.42445 0.74019 0.0
O576 O 0.80788 0.28474 0.66628 0.0
C577 C 0.78455 0.38675 0.66657 0.0
Co578 Co 0.48339 0.97236 0.68529 0.0
Co579 Co 0.49305 0.91518 0.72508 0.0
C580 C 0.45635 0.92956 0.71164 0.0
O581 O 0.46082 0.95319 0.69603 0.0
O582 O 0.4675 0.91247 0.72443 0.0
C583 C 0.46556 0.03092 0.67589 0.0
O584 O 0.4575 1.02015 0.69799 0.0
C585 C 0.49375 0.88464 0.77864 0.0
C586 C 0.51894 0.8597 0.77918 0.0
C587 C 0.50521 0.8686 0.79591 0.0
N588 N 0.50053 0.88573 0.7531 0.0
N589 N 0.51531 0.86976 0.75324 0.0
C590 C 0.47818 0.90396 0.78709 0.0
H591 H 0.47706 0.92655 0.7744 0.0
H592 H 0.47855 0.91089 0.80929 0.0
H593 H 0.46657 0.88879 0.78341 0.0
C594 C 0.50105 1.01221 0.73 0.0
N595 N 0.4965 0.98331 0.71801 0.0
N596 N 0.50082 0.95907 0.73463 0.0
C597 C 0.5084 0.97198 0.7575 0.0
C598 C 0.50843 1.00606 0.75578 0.0
C599 C 0.49704 0.04531 0.71823 0.0
H600 H 0.49879 0.04505 0.69546 0.0
H601 H 0.48356 0.05169 0.72327 0.0
H602 H 0.50532 0.0647 0.72708 0.0
O603 O 0.49532 0.94016 0.65933 0.0
O604 O 0.5012 0.89912 0.68812 0.0
H605 H 0.52615 0.96726 0.79154 0.0
H606 H 0.50627 0.94578 0.79572 0.0
C607 C 0.51629 0.95257 0.7805 0.0
H608 H 0.5225 0.93023 0.77216 0.0
H609 H 0.52362 0.86839 0.7363 0.0
O610 O 0.47754 1.01358 0.66545 0.0
C611 C 0.50111 0.91122 0.66373 0.0
Co612 Co 0.80199 0.96979 0.61532 0.0
Co613 Co 0.79499 0.91348 0.57305 0.0
C614 C 0.83055 0.92795 0.58991 0.0
O615 O 0.82501 0.95018 0.60627 0.0
O616 O 0.82033 0.91154 0.57472 0.0
C617 C 0.81767 0.03009 0.62239 0.0
O618 O 0.82431 1.02025 0.59876 0.0
C619 C 0.79534 0.87575 0.5216 0.0
C620 C 0.76757 0.87059 0.51392 0.0
C621 C 0.78346 0.86809 0.50103 0.0
N622 N 0.78677 0.88476 0.54458 0.0
N623 N 0.77021 0.88012 0.54027 0.0
C624 C 0.81452 0.87617 0.51927 0.0
H625 H 0.81918 0.90189 0.51852 0.0
H626 H 0.81893 0.8627 0.50058 0.0
H627 H 0.82019 0.86444 0.53788 0.0
C628 C 0.78407 1.00956 0.57115 0.0
N629 N 0.78944 0.98068 0.58217 0.0
N630 N 0.78812 0.9576 0.56327 0.0
C631 C 0.78292 0.97153 0.53919 0.0
C632 C 0.77992 1.00496 0.5433 0.0
C633 C 0.78229 0.04087 0.58712 0.0
H634 H 0.78052 0.03571 0.60949 0.0
H635 H 0.79398 0.05596 0.58424 0.0
H636 H 0.77118 0.05526 0.57935 0.0
O637 O 0.78981 0.93787 0.63995 0.0
O638 O 0.7856 0.89729 0.60998 0.0
H639 H 0.77217 0.93936 0.50887 0.0
H640 H 0.78474 0.97223 0.49431 0.0
C641 C 0.78379 0.95463 0.51173 0.0
H642 H 0.79535 0.939 0.51107 0.0
H643 H 0.76061 0.88671 0.55431 0.0
O644 O 0.80723 1.01129 0.635 0.0
C645 C 0.78455 0.90887 0.63458 0.0
Co646 Co 0.48292 0.32544 0.61258 0.0
Co647 Co 0.4918 0.38164 0.57155 0.0
C648 C 0.4554 0.36839 0.58789 0.0
O649 O 0.46025 0.34592 0.60442 0.0
O650 O 0.46618 0.38383 0.57299 0.0
C651 C 0.46493 0.26763 0.62415 0.0
O652 O 0.45594 0.27874 0.60313 0.0
C653 C 0.49171 0.40929 0.51694 0.0
C654 C 0.51608 0.43687 0.51533 0.0
C655 C 0.50268 0.42555 0.49898 0.0
N656 N 0.49848 0.41038 0.54248 0.0
N657 N 0.51275 0.42788 0.54165 0.0
C658 C 0.4768 0.3878 0.50928 0.0
H659 H 0.4754 0.36738 0.52427 0.0
H660 H 0.47828 0.37734 0.4882 0.0
H661 H 0.46487 0.40274 0.50972 0.0
C662 C 0.49912 0.28464 0.56665 0.0
N663 N 0.49497 0.31371 0.57882 0.0
N664 N 0.49958 0.33778 0.56225 0.0
C665 C 0.50716 0.32466 0.53944 0.0
C666 C 0.50672 0.29058 0.54095 0.0
C667 C 0.49452 0.25175 0.57823 0.0
H668 H 0.48065 0.24735 0.5748 0.0
H669 H 0.50164 0.23155 0.56807 0.0
H670 H 0.49724 0.25115 0.60075 0.0
O671 O 0.49595 0.35715 0.63722 0.0
O672 O 0.5007 0.39841 0.60811 0.0
H673 H 0.52632 0.32912 0.50745 0.0
H674 H 0.50655 0.34988 0.50058 0.0
C675 C 0.51589 0.34384 0.51708 0.0
H676 H 0.52152 0.36658 0.52566 0.0
H677 H 0.52098 0.4311 0.55849 0.0
O678 O 0.47751 0.28452 0.63308 0.0
C679 C 0.50146 0.38619 0.63246 0.0
Co680 Co 0.2326 0.72236 0.36497 0.0
Co681 Co 0.2417 0.66688 0.32325 0.0
C682 C 0.20529 0.67944 0.33917 0.0
O683 O 0.21007 0.70149 0.35616 0.0
O684 O 0.21612 0.66447 0.324 0.0
C685 C 0.21435 0.77995 0.37504 0.0
O686 O 0.20627 0.76865 0.35315 0.0
C687 C 0.24213 0.63933 0.26848 0.0
C688 C 0.2668 0.6126 0.26711 0.0
C689 C 0.25335 0.62346 0.25062 0.0
N690 N 0.2488 0.63849 0.2941 0.0
N691 N 0.26326 0.62149 0.2934 0.0
C692 C 0.22698 0.66021 0.2607 0.0
H693 H 0.22553 0.68099 0.27536 0.0
H694 H 0.22822 0.67013 0.23941 0.0
H695 H 0.21519 0.645 0.26168 0.0
C696 C 0.24949 0.76393 0.32031 0.0
N697 N 0.245 0.73465 0.33172 0.0
N698 N 0.24943 0.71094 0.3146 0.0
C699 C 0.25707 0.72455 0.29207 0.0
C700 C 0.25698 0.75856 0.29446 0.0
C701 C 0.24556 0.79668 0.33286 0.0
H702 H 0.24748 0.79581 0.35557 0.0
H703 H 0.23203 0.80313 0.32825 0.0
H704 H 0.25376 0.81631 0.3242 0.0
O705 O 0.24562 0.69067 0.38958 0.0
O706 O 0.25021 0.64967 0.36 0.0
H707 H 0.27565 0.72079 0.2591 0.0
H708 H 0.25578 0.70014 0.25286 0.0
C709 C 0.26541 0.70588 0.26899 0.0
H710 H 0.27124 0.68299 0.27694 0.0
H711 H 0.27145 0.61854 0.31033 0.0
O712 O 0.22656 0.76311 0.38534 0.0
C713 C 0.251 0.66158 0.38449 0.0
Co714 Co 0.55219 0.07535 0.36235 0.0
Co715 Co 0.54552 0.13188 0.32041 0.0
C716 C 0.58101 0.11685 0.33776 0.0
O717 O 0.57534 0.09453 0.35383 0.0
O718 O 0.5709 0.13349 0.32255 0.0
C719 C 0.56759 1.01493 0.36934 0.0
O720 O 0.57423 0.02458 0.34568 0.0
C721 C 0.54647 0.16946 0.26902 0.0
C722 C 0.51881 0.17598 0.26111 0.0
C723 C 0.53476 0.17759 0.24833 0.0
N724 N 0.53772 0.16097 0.29194 0.0
N725 N 0.52124 0.16646 0.2875 0.0
C726 C 0.56565 0.16802 0.26683 0.0
H727 H 0.57141 0.17982 0.28534 0.0
H728 H 0.56998 0.14207 0.26641 0.0
H729 H 0.57028 0.18095 0.24803 0.0
C730 C 0.53416 0.03596 0.31784 0.0
N731 N 0.53973 0.06466 0.32899 0.0
N732 N 0.53847 0.08789 0.31024 0.0
C733 C 0.53306 0.07421 0.28614 0.0
C734 C 0.52989 0.04081 0.29006 0.0
C735 C 0.5323 1.00459 0.33364 0.0
H736 H 0.53062 1.00964 0.35606 0.0
H737 H 0.54393 0.9893 0.33058 0.0
H738 H 0.5211 0.99045 0.3259 0.0
O739 O 0.54009 0.1074 0.38708 0.0
O740 O 0.53591 0.14811 0.35727 0.0
H741 H 0.5223 0.10708 0.25638 0.0
H742 H 0.53439 0.07384 0.24121 0.0
C743 C 0.5338 0.0913 0.25879 0.0
H744 H 0.54551 0.10645 0.25796 0.0
H745 H 0.51152 0.1604 0.30147 0.0
O746 O 0.55721 0.03388 0.38197 0.0
C747 C 0.53484 0.13645 0.38183 0.0
Co748 Co 0.23303 0.07463 0.43675 0.0
Co749 Co 0.24347 0.13175 0.47619 0.0
C750 C 0.20644 0.11819 0.46252 0.0
O751 O 0.21061 0.09374 0.44762 0.0
O752 O 0.21782 0.13554 0.47445 0.0
C753 C 0.21502 1.01645 0.42754 0.0
O754 O 0.20704 0.02774 0.44956 0.0
C755 C 0.24312 0.15977 0.53065 0.0
C756 C 0.26773 0.18648 0.53302 0.0
C757 C 0.25397 0.17578 0.54893 0.0
N758 N 0.25025 0.16044 0.50533 0.0
N759 N 0.26468 0.17742 0.5066 0.0
C760 C 0.22791 0.13883 0.53786 0.0
H761 H 0.2268 0.1179 0.52329 0.0
H762 H 0.22878 0.12913 0.55927 0.0
H763 H 0.21608 0.15392 0.53622 0.0
C764 C 0.25061 0.03448 0.48141 0.0
N765 N 0.24616 0.06344 0.46941 0.0
N766 N 0.25082 0.08765 0.48584 0.0
C767 C 0.25859 0.07466 0.50849 0.0
C768 C 0.25832 0.0406 0.50693 0.0
C769 C 0.24631 1.0014 0.46986 0.0
H770 H 0.24805 1.00136 0.44709 0.0
H771 H 0.23279 0.99555 0.47497 0.0
H772 H 0.25445 0.98183 0.47882 0.0
O773 O 0.24487 0.10727 0.41108 0.0
O774 O 0.25294 0.14716 0.43972 0.0
H775 H 0.27733 0.07915 0.54111 0.0
H776 H 0.25757 0.10044 0.54708 0.0
C777 C 0.26712 0.09394 0.53099 0.0
H778 H 0.27301 0.11641 0.52239 0.0
H779 H 0.27318 0.18024 0.49004 0.0
O780 O 0.22706 0.0334 0.41688 0.0
C781 C 0.25196 0.13521 0.41528 0.0
Co782 Co 0.55252 0.72018 0.43568 0.0
Co783 Co 0.54445 0.66413 0.47736 0.0
C784 C 0.58062 0.67912 0.46142 0.0
O785 O 0.57563 0.70235 0.44575 0.0
O786 O 0.56988 0.66198 0.47497 0.0
C787 C 0.56864 0.77979 0.42628 0.0
O788 O 0.57602 0.77043 0.44944 0.0
C789 C 0.54547 0.63363 0.53127 0.0
C790 C 0.51991 0.61047 0.53414 0.0
C791 C 0.53424 0.61874 0.54974 0.0
N792 N 0.53787 0.63501 0.50633 0.0
N793 N 0.52289 0.61995 0.50785 0.0
C794 C 0.56179 0.65151 0.53805 0.0
H795 H 0.56296 0.67394 0.52519 0.0
H796 H 0.56246 0.65862 0.56018 0.0
H797 H 0.57285 0.63528 0.53325 0.0
C798 C 0.53431 0.76071 0.47919 0.0
N799 N 0.53964 0.73161 0.46849 0.0
N800 N 0.53654 0.70822 0.4866 0.0
C801 C 0.52925 0.72197 0.50945 0.0
C802 C 0.52784 0.75588 0.50575 0.0
C803 C 0.53477 0.79279 0.46414 0.0
H804 H 0.53312 0.78889 0.44159 0.0
H805 H 0.54724 0.80501 0.46807 0.0
H806 H 0.52444 0.80933 0.47174 0.0
O807 O 0.54058 0.68705 0.41102 0.0
O808 O 0.53541 0.64692 0.44104 0.0
H809 H 0.51791 0.68079 0.5299 0.0
H810 H 0.51698 0.7177 0.54993 0.0
C811 C 0.52494 0.70346 0.53531 0.0
H812 H 0.53693 0.69721 0.54635 0.0
H813 H 0.51402 0.61896 0.49167 0.0
O814 O 0.55759 0.76104 0.41506 0.0
C815 C 0.53498 0.65822 0.41636 0.0
Co816 Co 0.80427 0.82555 0.18721 0.0
Co817 Co 0.79466 0.88225 0.22758 0.0
C818 C 0.83143 0.86796 0.21332 0.0
O819 O 0.82701 0.84428 0.1977 0.0
O820 O 0.82023 0.88494 0.2261 0.0
C821 C 0.82182 0.7669 0.17712 0.0
O822 O 0.83011 0.77765 0.19901 0.0
C823 C 0.79498 0.91026 0.28206 0.0
C824 C 0.77043 0.93729 0.28425 0.0
C825 C 0.78409 0.92643 0.30026 0.0
N826 N 0.78793 0.911 0.25671 0.0
N827 N 0.77354 0.92817 0.25786 0.0
C828 C 0.81013 0.88916 0.28937 0.0
H829 H 0.81107 0.86793 0.27506 0.0
H830 H 0.80932 0.87987 0.31091 0.0
H831 H 0.82201 0.90396 0.28731 0.0
C832 C 0.78669 0.7852 0.23183 0.0
N833 N 0.79129 0.8142 0.22005 0.0
N834 N 0.7869 0.8383 0.23681 0.0
C835 C 0.77918 0.82521 0.25948 0.0
C836 C 0.77918 0.79116 0.25756 0.0
C837 C 0.79068 0.75218 0.21985 0.0
H838 H 0.78879 0.75252 0.19712 0.0
H839 H 0.80419 0.74586 0.22463 0.0
H840 H 0.78248 0.73271 0.22877 0.0
O841 O 0.79213 0.85828 0.16188 0.0
O842 O 0.78585 0.89879 0.1911 0.0
H843 H 0.76078 0.82981 0.29264 0.0
H844 H 0.78073 0.85047 0.29827 0.0
C845 C 0.77099 0.84443 0.28238 0.0
H846 H 0.76517 0.86718 0.27414 0.0
H847 H 0.76511 0.93109 0.24125 0.0
O848 O 0.80983 0.78441 0.16694 0.0
C849 C 0.78599 0.88694 0.16658 0.0
Co850 Co 0.48472 0.46952 0.18613 0.0
Co851 Co 0.49184 0.41199 0.22696 0.0
C852 C 0.45624 0.4269 0.21107 0.0
O853 O 0.46159 0.45032 0.19581 0.0
O854 O 0.46665 0.40934 0.22494 0.0
C855 C 0.46911 0.52991 0.18139 0.0
O856 O 0.46309 0.51932 0.2052 0.0
C857 C 0.49157 0.37312 0.27755 0.0
C858 C 0.51931 0.36938 0.28591 0.0
C859 C 0.50335 0.36603 0.29843 0.0
N860 N 0.50021 0.38272 0.25485 0.0
N861 N 0.51679 0.37889 0.25954 0.0
C862 C 0.47236 0.37249 0.27933 0.0
H863 H 0.4673 0.39794 0.28029 0.0
H864 H 0.46797 0.35846 0.29772 0.0
H865 H 0.46708 0.36078 0.26042 0.0
C866 C 0.50296 0.50804 0.23048 0.0
N867 N 0.49751 0.47945 0.21908 0.0
N868 N 0.49858 0.45606 0.2377 0.0
C869 C 0.50361 0.4696 0.26206 0.0
C870 C 0.50681 0.50305 0.25839 0.0
C871 C 0.50521 0.53937 0.21473 0.0
H872 H 0.50686 0.5343 0.19231 0.0
H873 H 0.49378 0.55519 0.21774 0.0
H874 H 0.51655 0.55298 0.22257 0.0
O875 O 0.4969 0.43824 0.1605 0.0
O876 O 0.50077 0.39669 0.18965 0.0
H877 H 0.51417 0.43759 0.29267 0.0
H878 H 0.50093 0.46984 0.30678 0.0
C879 C 0.50241 0.45238 0.28931 0.0
H880 H 0.49104 0.43625 0.28927 0.0
H881 H 0.52642 0.38619 0.24582 0.0
O882 O 0.47924 0.51157 0.16763 0.0
C883 C 0.5019 0.40892 0.16532 0.0
Co884 Co 0.80373 0.47122 0.11607 0.0
Co885 Co 0.79401 0.4145 0.07511 0.0
C886 C 0.83072 0.42807 0.09144 0.0
O887 O 0.82642 0.45251 0.10626 0.0
O888 O 0.81948 0.41108 0.07885 0.0
C889 C 0.82131 0.52938 0.12726 0.0
O890 O 0.82989 0.51854 0.10566 0.0
C891 C 0.79649 0.38581 1.0205 0.0
C892 C 0.77057 0.3657 1.01377 0.0
C893 C 0.78559 0.37412 0.99994 0.0
N894 N 0.78793 0.38645 0.04468 0.0
N895 N 0.77269 0.37298 0.04081 0.0
C896 C 0.8147 0.39706 1.01734 0.0
H897 H 0.82279 0.38468 0.03306 0.0
H898 H 0.81544 0.42395 1.02091 0.0
H899 H 0.82003 0.3907 0.99671 0.0
C900 C 0.787 0.51209 0.07114 0.0
N901 N 0.79127 0.48291 0.08295 0.0
N902 N 0.78696 0.45899 0.06596 0.0
C903 C 0.77964 0.47243 0.04314 0.0
C904 C 0.77981 0.50644 0.04517 0.0
C905 C 0.79098 0.54498 0.08333 0.0
H906 H 0.78872 0.54463 0.10598 0.0
H907 H 0.8046 0.551 0.07909 0.0
H908 H 0.78301 0.56464 0.07411 0.0
O909 O 0.79142 0.43787 0.14036 0.0
O910 O 0.78385 0.39841 0.11088 0.0
H911 H 0.76307 0.46911 1.0074 0.0
H912 H 0.7822 0.44465 1.0061 0.0
C913 C 0.77186 0.45353 1.01983 0.0
H914 H 0.76445 0.43259 0.0281 0.0
H915 H 0.76313 0.37178 0.05595 0.0
O916 O 0.80907 0.51209 0.13691 0.0
C917 C 0.78443 0.40998 0.1355 0.0
Co918 Co 0.48213 0.82367 0.1129 0.0
Co919 Co 0.491 0.88072 0.07202 0.0
C920 C 0.45447 0.86551 0.08798 0.0
O921 O 0.45913 0.84179 0.10333 0.0
O922 O 0.46547 0.88265 0.07496 0.0
C923 C 0.46497 0.7651 0.12512 0.0
O924 O 0.4558 0.77546 0.10404 0.0
C925 C 0.48888 0.91103 1.01799 0.0
C926 C 0.51508 0.93002 1.01182 0.0
C927 C 0.50005 0.92251 0.9977 0.0
N928 N 0.49731 0.90949 0.04223 0.0
N929 N 0.51272 0.92238 0.03873 0.0
C930 C 0.4705 0.90093 1.01455 0.0
H931 H 0.46936 0.87396 1.01727 0.0
H932 H 0.46531 0.90844 0.99413 0.0
H933 H 0.4626 0.91307 0.03069 0.0
C934 C 0.49885 0.78331 0.0675 0.0
N935 N 0.49453 0.81236 0.07955 0.0
N936 N 0.49861 0.83646 0.06263 0.0
C937 C 0.50586 0.82326 0.03958 0.0
C938 C 0.5059 0.78918 0.04143 0.0
C939 C 0.49483 0.75035 0.07953 0.0
H940 H 0.49756 0.75033 0.10204 0.0
H941 H 0.48106 0.74488 0.0761 0.0
H942 H 0.50238 0.73052 0.06963 0.0
O943 O 0.49445 0.85678 0.13746 0.0
O944 O 0.5003 0.89748 0.10824 0.0
H945 H 0.52182 0.82718 1.00309 0.0
H946 H 0.50264 0.85166 1.00307 0.0
C947 C 0.51323 0.8425 1.01614 0.0
H948 H 0.52078 0.86328 1.02435 0.0
H949 H 0.52222 0.9228 0.05397 0.0
O950 O 0.47734 0.78274 0.13381 0.0
C951 C 0.50046 0.88549 0.13271 0.0
Co952 Co 0.23273 0.22134 0.86238 0.0
Co953 Co 0.24117 0.16408 0.82166 0.0
C954 C 0.20495 0.17935 0.83595 0.0
O955 O 0.20983 0.20317 0.85117 0.0
O956 O 0.21579 0.16137 0.82327 0.0
C957 C 0.21709 0.28198 0.86939 0.0
O958 O 0.21048 0.27248 0.84567 0.0
C959 C 0.24125 0.1261 0.77035 0.0
C960 C 0.26906 0.12073 0.76318 0.0
C961 C 0.25328 0.11832 0.74999 0.0
N962 N 0.24963 0.13513 0.79347 0.0
N963 N 0.26623 0.13035 0.78947 0.0
C964 C 0.22208 0.12662 0.76769 0.0
H965 H 0.21629 0.11474 0.78612 0.0
H966 H 0.21742 0.15236 0.76702 0.0
H967 H 0.21781 0.11329 0.74886 0.0
C968 C 0.25141 0.26057 0.81886 0.0
N969 N 0.24612 0.23174 0.83004 0.0
N970 N 0.24791 0.20834 0.8115 0.0
C971 C 0.2534 0.22202 0.78746 0.0
C972 C 0.25603 0.25562 0.79124 0.0
C973 C 0.2526 0.29223 0.83446 0.0
H974 H 0.25418 0.28755 0.85694 0.0
H975 H 0.24076 0.30678 0.83105 0.0
H976 H 0.26363 0.30695 0.82684 0.0
O977 O 0.24401 0.18883 0.88801 0.0
O978 O 0.25041 0.14856 0.85874 0.0
H979 H 0.26482 0.18934 0.75812 0.0
H980 H 0.25252 0.22192 0.74248 0.0
C981 C 0.25312 0.20466 0.76018 0.0
H982 H 0.24159 0.18904 0.75913 0.0
H983 H 0.27572 0.13693 0.80367 0.0
O984 O 0.22743 0.2629 0.88193 0.0
C985 C 0.2502 0.16029 0.88333 0.0
Co986 Co 0.55371 0.57426 0.86204 0.0
Co987 Co 0.54525 0.63194 0.82193 0.0
C988 C 0.58147 0.61729 0.83698 0.0
O989 O 0.57668 0.59296 0.85165 0.0
O990 O 0.57058 0.63517 0.8244 0.0
C991 C 0.5694 0.51372 0.86816 0.0
O992 O 0.57582 0.52363 0.84443 0.0
C993 C 0.54591 0.67036 0.771 0.0
C994 C 0.51822 0.67634 0.76305 0.0
C995 C 0.53418 0.67852 0.75034 0.0
N996 N 0.53719 0.66131 0.7938 0.0
N997 N 0.52068 0.66647 0.78935 0.0
C998 C 0.56509 0.66935 0.76883 0.0
H999 H 0.57076 0.68129 0.78734 0.0
H1000 H 0.56958 0.64349 0.7684 0.0
H1001 H 0.56967 0.68242 0.75006 0.0
C1002 C 0.53522 0.53542 0.8179 0.0
N1003 N 0.54057 0.56408 0.82935 0.0
N1004 N 0.53874 0.58774 0.81109 0.0
C1005 C 0.53315 0.5744 0.78696 0.0
C1006 C 0.5305 0.54076 0.79039 0.0
C1007 C 0.53394 0.50359 0.8332 0.0
H1008 H 0.53246 0.50802 0.85574 0.0
H1009 H 0.5457 0.4889 0.8295 0.0
H1010 H 0.52282 0.48914 0.82556 0.0
O1011 O 0.54205 0.60623 0.88783 0.0
O1012 O 0.53548 0.64669 0.85888 0.0
H1013 H 0.52155 0.60758 0.7583 0.0
H1014 H 0.5337 0.5752 0.74199 0.0
C1015 C 0.53324 0.59219 0.75991 0.0
H1016 H 0.54478 0.60778 0.75883 0.0
H1017 H 0.51098 0.65997 0.80322 0.0
O1018 O 0.55908 0.5325 0.88113 0.0
C1019 C 0.53562 0.63463 0.88334 0.0
Co1020 Co 0.23465 0.57619 0.93659 0.0
Co1021 Co 0.24316 0.6333 0.97733 0.0
C1022 C 0.20702 0.61994 0.96162 0.0
O1023 O 0.21179 0.59566 0.9468 0.0
O1024 O 0.2179 0.63737 0.97467 0.0
C1025 C 0.21858 0.5161 0.9298 0.0
O1026 O 0.21203 0.52601 0.95348 0.0
C1027 C 0.24283 0.6717 0.02832 0.0
C1028 C 0.27056 0.67571 0.0367 0.0
C1029 C 0.25458 0.67895 0.04919 0.0
N1030 N 0.25151 0.66213 1.00562 0.0
N1031 N 0.26808 0.66611 1.01033 0.0
C1032 C 0.22362 0.6721 0.03013 0.0
H1033 H 0.2183 0.68411 1.01139 0.0
H1034 H 0.21867 0.64658 0.03072 0.0
H1035 H 0.21916 0.68578 0.04869 0.0
C1036 C 0.25262 0.53653 0.98071 0.0
N1037 N 0.24751 0.56543 0.9694 0.0
N1038 N 0.24927 0.58884 0.98791 0.0
C1039 C 0.25452 0.57514 1.01207 0.0
C1040 C 0.25708 0.54148 1.00839 0.0
C1041 C 0.25388 0.50485 0.96513 0.0
H1042 H 0.25556 0.50952 0.94266 0.0
H1043 H 0.24202 0.49037 0.96843 0.0
H1044 H 0.26487 0.49009 0.97286 0.0
O1045 O 0.24669 0.60792 0.91118 0.0
O1046 O 0.25302 0.64808 0.94056 0.0
H1047 H 0.26602 0.60728 0.04168 0.0
H1048 H 0.25312 0.57538 0.05698 0.0
C1049 C 0.25415 0.5926 0.0393 0.0
H1050 H 0.24282 0.60886 0.04002 0.0
H1051 H 0.27774 0.65896 0.99658 0.0
O1052 O 0.2291 0.53471 0.91717 0.0
C1053 C 0.25307 0.63625 0.91601 0.0
Co1054 Co 0.55352 0.2199 0.93594 0.0
Co1055 Co 0.54491 0.16318 0.97671 0.0
C1056 C 0.58121 0.17703 0.96024 0.0
O1057 O 0.57635 0.20023 0.94444 0.0
O1058 O 0.57043 0.16077 0.97449 0.0
C1059 C 0.57011 0.27931 0.92731 0.0
O1060 O 0.57759 0.2692 0.95016 0.0
C1061 C 0.54566 0.13156 0.03017 0.0
C1062 C 0.52019 0.10797 0.03228 0.0
C1063 C 0.5344 0.11606 0.04822 0.0
N1064 N 0.5382 0.13341 1.00515 0.0
N1065 N 0.52327 0.11809 1.00619 0.0
C1066 C 0.56183 0.14959 0.03755 0.0
H1067 H 0.56326 0.17183 1.02454 0.0
H1068 H 0.56205 0.15704 0.05963 0.0
H1069 H 0.57298 0.13325 0.03361 0.0
C1070 C 0.53584 0.25985 0.9807 0.0
N1071 N 0.54092 0.23093 0.96933 0.0
N1072 N 0.53734 0.20706 0.98676 0.0
C1073 C 0.52991 0.22024 1.00972 0.0
C1074 C 0.52896 0.2543 1.00691 0.0
C1075 C 0.53684 0.29247 0.96658 0.0
H1076 H 0.53513 0.28956 0.94393 0.0
H1077 H 0.54952 0.30372 0.97083 0.0
H1078 H 0.52679 0.30935 0.97462 0.0
O1079 O 0.5413 0.18792 0.91092 0.0
O1080 O 0.53537 0.14734 0.94012 0.0
H1081 H 0.51804 0.17845 0.02847 0.0
H1082 H 0.51656 0.21473 0.04919 0.0
C1083 C 0.52492 0.20093 0.03484 0.0
H1084 H 0.5366 0.19437 0.04658 0.0
H1085 H 0.51451 0.11734 0.98986 0.0
O1086 O 0.55884 0.26112 0.91599 0.0
C1087 C 0.5352 0.15934 0.91565 0.0
H1088 H 0.26914 0.45559 0.34159 0.0
H1089 H 0.30605 0.34242 0.46305 0.0
H1090 H 0.3038 0.37429 0.32776 0.0
H1091 H 0.25946 0.39889 0.47112 0.0
H1092 H 0.30753 0.35796 0.41398 0.0
H1093 H 0.26782 0.44027 0.39073 0.0
C1094 C 0.27678 0.43509 0.34888 0.0
C1095 C 0.28704 0.41704 0.3304 0.0
C1096 C 0.29688 0.36665 0.42643 0.0
C1097 C 0.28535 0.39904 0.38631 0.0
C1098 C 0.296 0.35757 0.45426 0.0
C1099 C 0.28257 0.36922 0.47085 0.0
C1100 C 0.28438 0.38788 0.4154 0.0
C1101 C 0.26992 0.38915 0.4588 0.0
C1102 C 0.27591 0.42621 0.37682 0.0
C1103 C 0.29636 0.3902 0.34098 0.0
N1104 N 0.27121 0.39817 0.43181 0.0
N1105 N 0.29531 0.38211 0.36813 0.0
H1106 H 0.97975 0.8908 0.4715 0.0
H1107 H 0.03157 0.89588 0.32965 0.0
H1108 H 0.0245 0.95182 0.45965 0.0
H1109 H 0.98045 0.8563 0.337 0.0
H1110 H 0.03036 0.91287 0.37831 0.0
H1111 H 0.98018 0.87684 0.42302 0.0
C1112 C 0.9893 0.9025 0.45871 0.0
C1113 C 1.00183 0.92354 0.46989 0.0
C1114 C 0.01946 0.90026 0.36935 0.0
C1115 C 1.00298 0.90553 0.41393 0.0
C1116 C 0.02025 0.89013 0.34177 0.0
C1117 C 1.00611 0.87453 0.32954 0.0
C1118 C 1.00448 0.89445 0.38479 0.0
C1119 C 0.99161 0.86819 0.34584 0.0
C1120 C 0.98973 0.89381 0.43084 0.0
C1121 C 1.01446 0.93589 0.45192 0.0
N1122 N 0.99115 0.87824 0.37266 0.0
N1123 N 1.01481 0.9265 0.42487 0.0
H1124 H 0.30135 0.86861 0.82906 0.0
H1125 H 0.25614 0.89878 0.97364 0.0
H1126 H 0.27135 0.95589 0.84514 0.0
H1127 H 0.30305 0.84327 0.9659 0.0
H1128 H 0.25812 0.91352 0.92448 0.0
H1129 H 0.29946 0.85407 0.87737 0.0
C1130 C 0.29493 0.8856 0.84275 0.0
C1131 C 0.28719 0.91458 0.83293 0.0
C1132 C 0.26787 0.89785 0.93349 0.0
C1133 C 0.28394 0.89629 0.88852 0.0
C1134 C 0.26661 0.88904 0.96132 0.0
C1135 C 0.27938 0.86955 0.97351 0.0
C1136 C 0.28185 0.88661 0.91779 0.0
C1137 C 0.2929 0.85808 0.95701 0.0
C1138 C 0.29356 0.87673 0.87045 0.0
C1139 C 0.27783 0.93374 0.85185 0.0
N1140 N 0.29379 0.86677 0.92989 0.0
N1141 N 0.27639 0.9242 0.87877 0.0
H1142 H 1.01712 0.45535 0.95871 0.0
H1143 H 0.98234 0.34212 0.83553 0.0
H1144 H 0.98417 0.37144 0.97145 0.0
H1145 H 0.02759 0.40237 0.82813 0.0
H1146 H 0.98068 0.35642 0.8849 0.0
H1147 H 0.01873 0.44102 0.90936 0.0
C1148 C 1.00992 0.43444 0.95115 0.0
C1149 C 1.00003 0.41539 0.96936 0.0
C1150 C 0.99107 0.36624 0.87251 0.0
C1151 C 1.00204 0.39853 0.91318 0.0
C1152 C 0.99206 0.35789 0.8445 0.0
C1153 C 1.00516 0.37094 0.828 0.0
C1154 C 1.00314 0.38813 0.88386 0.0
C1155 C 1.01739 0.39157 0.84034 0.0
C1156 C 1.01095 0.42613 0.92307 0.0
C1157 C 0.99129 0.38805 0.95843 0.0
N1158 N 1.01599 0.39982 0.8675 0.0
N1159 N 0.99247 0.38055 0.93114 0.0
H1160 H 0.78006 0.6448 0.72329 0.0
H1161 H 0.73487 0.61899 0.57865 0.0
H1162 H 0.73121 0.59592 0.71585 0.0
H1163 H 0.7659 0.70474 0.59496 0.0
H1164 H 0.73608 0.60477 0.6271 0.0
H1165 H 0.77844 0.66014 0.67419 0.0
C1166 C 0.76921 0.63665 0.71106 0.0
C1167 C 0.75582 0.61881 0.7233 0.0
C1168 C 0.74235 0.62704 0.62018 0.0
C1169 C 0.7538 0.63649 0.66767 0.0
C1170 C 0.74138 0.63576 0.59241 0.0
C1171 C 0.74959 0.66425 0.58262 0.0
C1172 C 0.75208 0.64619 0.63835 0.0
C1173 C 0.75906 0.68301 0.60164 0.0
C1174 C 0.76817 0.64581 0.68328 0.0
C1175 C 0.74183 0.60942 0.70693 0.0
N1176 N 0.76014 0.67356 0.62864 0.0
N1177 N 0.7412 0.6183 0.67984 0.0
H1178 H 0.05362 0.20237 0.71665 0.0
H1179 H 0.01847 0.09019 0.5937 0.0
H1180 H 1.0065 0.14752 0.72329 0.0
H1181 H 0.05113 0.17445 0.5806 0.0
H1182 H 1.01642 0.10536 0.64288 0.0
H1183 H 0.05524 0.18775 0.6674 0.0
C1184 C 0.04346 0.18783 0.70748 0.0
C1185 C 0.02981 0.17645 0.72369 0.0
C1186 C 0.02423 0.12012 0.62912 0.0
C1187 C 0.03183 0.15866 0.66804 0.0
C1188 C 0.02552 0.11135 0.60116 0.0
C1189 C 0.03551 0.1302 0.58293 0.0
C1190 C 0.03301 0.14794 0.63884 0.0
C1191 C 0.04402 0.15789 0.59369 0.0
C1192 C 0.04443 0.17926 0.67955 0.0
C1193 C 1.01708 0.15714 0.7112 0.0
N1194 N 0.04262 0.16578 0.62086 0.0
N1195 N 0.01848 0.1485 0.6841 0.0
H1196 H 0.77877 0.14587 0.22029 0.0
H1197 H 0.72807 0.14065 0.07803 0.0
H1198 H 0.72684 0.11027 0.21347 0.0
H1199 H 0.77184 0.20391 0.09095 0.0
H1200 H 0.72794 0.12743 0.12665 0.0
H1201 H 0.77775 0.16299 0.17166 0.0
C1202 C 0.76729 0.14104 0.2083 0.0
C1203 C 0.7529 0.12645 0.22063 0.0
C1204 C 0.73736 0.14476 0.11901 0.0
C1205 C 0.7515 0.14647 0.16545 0.0
C1206 C 0.73725 0.15301 0.09107 0.0
C1207 C 0.74967 0.17448 0.08016 0.0
C1208 C 0.75023 0.15726 0.13627 0.0
C1209 C 0.76189 0.18763 0.09846 0.0
C1210 C 0.76662 0.15126 0.18075 0.0
C1211 C 0.7382 0.12132 0.20452 0.0
N1212 N 0.76197 0.17858 0.12558 0.0
N1213 N 0.73787 0.13132 0.1777 0.0
H1214 H 0.05441 0.70559 0.21399 0.0
H1215 H 0.0196 0.59106 0.09168 0.0
H1216 H 1.00924 0.64518 0.22182 0.0
H1217 H 0.05286 0.67441 0.07841 0.0
H1218 H 1.01796 0.60598 0.1409 0.0
H1219 H 0.05606 0.69087 0.16472 0.0
C1220 C 0.04471 0.6897 0.20513 0.0
C1221 C 0.03166 0.67667 0.22175 0.0
C1222 C 0.02581 0.62062 0.12711 0.0
C1223 C 0.03365 0.65902 0.16601 0.0
C1224 C 0.02686 0.61197 0.09911 0.0
C1225 C 0.03684 0.63069 0.08079 0.0
C1226 C 0.03479 0.64825 0.1368 0.0
C1227 C 0.04566 0.65804 0.09154 0.0
C1228 C 0.04569 0.68111 0.17718 0.0
C1229 C 0.01943 0.65593 0.20954 0.0
N1230 N 0.04445 0.66588 0.11874 0.0
N1231 N 0.02082 0.64744 0.18244 0.0
H1232 H 0.77012 0.33987 0.95811 0.0
H1233 H 0.80564 0.4544 0.83662 0.0
H1234 H 0.8019 0.42501 0.97271 0.0
H1235 H 0.75978 0.39599 0.82845 0.0
H1236 H 0.80702 0.43941 0.88588 0.0
H1237 H 0.76894 0.3548 0.90886 0.0
C1238 C 0.77716 0.36118 0.95097 0.0
C1239 C 0.78662 0.38038 0.96966 0.0
C1240 C 0.79656 0.43015 0.87333 0.0
C1241 C 0.78512 0.39787 0.91361 0.0
C1242 C 0.79574 0.43888 0.84539 0.0
C1243 C 0.78253 0.42658 0.82872 0.0
C1244 C 0.78424 0.40858 0.88438 0.0
C1245 C 0.77007 0.40622 0.84079 0.0
C1246 C 0.77637 0.36981 0.92296 0.0
C1247 C 0.79516 0.40825 0.95928 0.0
N1248 N 0.77132 0.39755 0.86786 0.0
N1249 N 0.79424 0.41603 0.93203 0.0
H1250 H 0.48287 0.87292 0.97005 0.0
H1251 H 0.52959 0.89991 0.82608 0.0
H1252 H 0.51704 0.95482 0.9562 0.0
H1253 H 0.48168 0.84783 0.83379 0.0
H1254 H 0.52795 0.91463 0.87532 0.0
H1255 H 0.48433 0.85941 0.92158 0.0
C1256 C 0.49017 0.88906 0.95685 0.0
C1257 C 0.49924 0.91618 0.9674 0.0
C1258 C 0.51789 0.89975 0.86627 0.0
C1259 C 0.50189 0.89892 0.91142 0.0
C1260 C 0.51894 0.89095 0.83839 0.0
C1261 C 0.50581 0.87239 0.82618 0.0
C1262 C 0.50372 0.88948 0.88199 0.0
C1263 C 0.49209 0.86193 0.84267 0.0
C1264 C 0.49126 0.88072 0.929 0.0
C1265 C 0.50955 0.93414 0.94895 0.0
N1266 N 0.4914 0.87061 0.86981 0.0
N1267 N 0.51067 0.92511 0.92184 0.0
H1268 H 0.76363 0.84125 0.4603 0.0
H1269 H 0.80935 0.94029 0.33755 0.0
H1270 H 0.80701 0.90567 0.47232 0.0
H1271 H 0.75849 0.89939 0.33085 0.0
H1272 H 0.81032 0.9231 0.38621 0.0
H1273 H 0.76354 0.85613 0.41109 0.0
C1274 C 0.77342 0.85775 0.45255 0.0
C1275 C 0.7856 0.87144 0.4706 0.0
C1276 C 0.79887 0.91818 0.37418 0.0
C1277 C 0.78533 0.88916 0.41455 0.0
C1278 C 0.79829 0.92822 0.34658 0.0
C1279 C 0.78377 0.92149 0.33047 0.0
C1280 C 0.78491 0.90094 0.38555 0.0
C1281 C 0.76982 0.90542 0.34282 0.0
C1282 C 0.77324 0.86649 0.42455 0.0
C1283 C 0.79778 0.89325 0.45943 0.0
N1284 N 0.77078 0.89541 0.36962 0.0
N1285 N 0.79729 0.90145 0.43223 0.0
H1286 H 0.47855 0.40172 0.3265 0.0
H1287 H 0.52917 0.40015 0.46925 0.0
H1288 H 0.52369 0.34202 0.33979 0.0
H1289 H 0.47754 0.43708 0.46086 0.0
H1290 H 0.5285 0.38238 0.42078 0.0
H1291 H 0.47832 0.41595 0.3749 0.0
C1292 C 0.48806 0.39034 0.33957 0.0
C1293 C 0.5009 0.36963 0.3288 0.0
C1294 C 0.51736 0.39457 0.42947 0.0
C1295 C 0.50127 0.388 0.38471 0.0
C1296 C 0.51784 0.40516 0.45694 0.0
C1297 C 0.50341 0.42026 0.46882 0.0
C1298 C 0.5024 0.39944 0.41378 0.0
C1299 C 0.48892 0.42562 0.45229 0.0
C1300 C 0.48809 0.3992 0.3674 0.0
C1301 C 0.51342 0.35771 0.34717 0.0
N1302 N 0.48876 0.41517 0.42557 0.0
N1303 N 0.5134 0.36729 0.37418 0.0
H1304 H 0.2797 0.64936 0.22098 0.0
H1305 H 0.2301 0.64282 0.07734 0.0
H1306 H 0.22846 0.61077 0.21231 0.0
H1307 H 0.27456 0.70423 0.09049 0.0
H1308 H 0.22968 0.62971 0.12598 0.0
H1309 H 0.27917 0.66602 0.17224 0.0
C1310 C 0.26848 0.6438 0.20857 0.0
C1311 C 0.25413 0.62851 0.22044 0.0
C1312 C 0.23933 0.64659 0.1184 0.0
C1313 C 0.25328 0.64803 0.16506 0.0
C1314 C 0.2394 0.65479 0.09043 0.0
C1315 C 0.25209 0.67571 0.07957 0.0
C1316 C 0.25227 0.65866 0.13576 0.0
C1317 C 0.2644 0.68838 0.09795 0.0
C1318 C 0.26808 0.65374 0.18093 0.0
C1319 C 0.23978 0.6224 0.20376 0.0
N1320 N 0.26428 0.67946 0.1251 0.0
N1321 N 0.23971 0.63222 0.17687 0.0
H1322 H 0.55888 0.0989 0.08611 0.0
H1323 H 0.5154 0.20487 0.20727 0.0
H1324 H 0.50965 0.14651 0.0783 0.0
H1325 H 0.55791 0.1384 0.22006 0.0
H1326 H 0.51505 0.18898 0.1583 0.0
H1327 H 0.5602 0.11672 0.13464 0.0
C1328 C 0.54823 0.11257 0.09486 0.0
C1329 C 0.53411 0.1211 0.07844 0.0
C1330 C 0.52463 0.17836 0.17187 0.0
C1331 C 0.53566 0.14231 0.13335 0.0
C1332 C 0.52495 0.18768 0.19973 0.0
C1333 C 0.53694 0.17367 0.21794 0.0
C1334 C 0.53635 0.15474 0.16216 0.0
C1335 C 0.54881 0.151 0.20704 0.0
C1336 C 0.54902 0.12298 0.12239 0.0
C1337 C 0.52068 0.13914 0.09047 0.0
N1338 N 0.54816 0.14221 0.17997 0.0
N1339 N 0.52185 0.14942 0.11716 0.0
H1340 H 0.22846 0.18977 0.58583 0.0
H1341 H 0.27348 0.09142 0.70967 0.0
H1342 H 0.27942 0.14892 0.58002 0.0
H1343 H 0.2299 0.15579 0.72074 0.0
H1344 H 0.27393 0.10611 0.66041 0.0
H1345 H 0.2272 0.17284 0.63453 0.0
C1346 C 0.23948 0.17776 0.59506 0.0
C1347 C 0.25411 0.17097 0.57917 0.0
C1348 C 0.2641 0.11651 0.67368 0.0
C1349 C 0.25265 0.15073 0.63434 0.0
C1350 C 0.26373 0.10788 0.7017 0.0
C1351 C 0.25138 0.1216 0.7195 0.0
C1352 C 0.25205 0.13909 0.66339 0.0
C1353 C 0.23926 0.14335 0.70805 0.0
C1354 C 0.23873 0.16787 0.62269 0.0
C1355 C 0.26801 0.15499 0.5918 0.0
N1356 N 0.23994 0.15142 0.68083 0.0
N1357 N 0.26689 0.14513 0.61863 0.0
H1358 H 0.55888 0.6021 0.58758 0.0
H1359 H 0.51481 0.7062 0.70946 0.0
H1360 H 0.50965 0.64968 0.5798 0.0
H1361 H 0.55756 0.64017 0.72177 0.0
H1362 H 0.51473 0.69126 0.66026 0.0
H1363 H 0.56017 0.6198 0.63616 0.0
C1364 C 0.54825 0.61581 0.59633 0.0
C1365 C 0.53411 0.6243 0.57991 0.0
C1366 C 0.5243 0.68054 0.67378 0.0
C1367 C 0.5356 0.6453 0.63491 0.0
C1368 C 0.52447 0.68931 0.70177 0.0
C1369 C 0.53645 0.67516 0.71992 0.0
C1370 C 0.53617 0.6573 0.66387 0.0
C1371 C 0.54846 0.65289 0.70883 0.0
C1372 C 0.54901 0.62613 0.62388 0.0
C1373 C 0.52068 0.64234 0.59196 0.0
N1374 N 0.54796 0.64461 0.68163 0.0
N1375 N 0.52181 0.65248 0.61869 0.0
H1376 H 0.35885 0.3267 0.19967 0.0
H1377 H 0.42896 0.4677 0.20021 0.0
H1378 H 0.34555 0.42628 0.22163 0.0
H1379 H 0.44122 0.36819 0.22377 0.0
H1380 H 0.3983 0.45336 0.20094 0.0
H1381 H 0.38931 0.34172 0.20129 0.0
C1382 C 0.36234 0.35172 0.20481 0.0
C1383 C 0.34965 0.37527 0.21057 0.0
C1384 C 0.40775 0.43479 0.20605 0.0
C1385 C 0.38442 0.39267 0.21199 0.0
C1386 C 0.42521 0.44288 0.20552 0.0
C1387 C 0.43766 0.41911 0.21198 0.0
C1388 C 0.40275 0.40253 0.21238 0.0
C1389 C 0.43207 0.38734 0.21881 0.0
C1390 C 0.3797 0.36021 0.20583 0.0
C1391 C 0.35492 0.40732 0.2172 0.0
N1392 N 0.41505 0.37988 0.21854 0.0
N1393 N 0.37191 0.41519 0.21745 0.0
H1394 H 0.94302 0.86559 0.22569 0.0
H1395 H 0.8456 0.92655 0.22929 0.0
H1396 H 0.92855 0.96581 0.20842 0.0
H1397 H 0.85935 0.82842 0.20369 0.0
H1398 H 0.87619 0.94054 0.2316 0.0
H1399 H 0.91243 0.85078 0.22751 0.0
C1400 C 0.93343 0.88451 0.22254 0.0
C1401 C 0.93834 0.91695 0.21673 0.0
C1402 C 0.87247 0.91593 0.22559 0.0
C1403 C 0.90345 0.90026 0.21917 0.0
C1404 C 0.85504 0.90787 0.22436 0.0
C1405 C 0.8499 0.87631 0.2161 0.0
C1406 C 0.88488 0.89208 0.2191 0.0
C1407 C 0.86273 0.85312 0.20992 0.0
C1408 C 0.91602 0.87601 0.22344 0.0
C1409 C 0.92535 0.94046 0.21273 0.0
N1410 N 0.87963 0.86141 0.21166 0.0
N1411 N 0.90853 0.9317 0.21415 0.0
H1412 H 0.35732 0.96723 0.09242 0.0
H1413 H 0.42686 0.82543 0.09783 0.0
H1414 H 0.34372 0.86648 0.07559 0.0
H1415 H 0.43985 0.92404 0.07282 0.0
H1416 H 0.39632 0.83993 0.09508 0.0
H1417 H 0.38771 0.952 0.09052 0.0
C1418 C 0.36073 0.9419 0.08825 0.0
C1419 C 0.34795 0.91806 0.0842 0.0
C1420 C 0.40588 0.85828 0.09004 0.0
C1421 C 0.38273 0.90044 0.08243 0.0
C1422 C 0.4233 0.85011 0.09174 0.0
C1423 C 0.43594 0.87359 0.08559 0.0
C1424 C 0.40106 0.89035 0.08275 0.0
C1425 C 0.43056 0.90515 0.07766 0.0
C1426 C 0.37807 0.93328 0.08707 0.0
C1427 C 0.35314 0.88565 0.07875 0.0
N1428 N 0.41354 0.91271 0.07678 0.0
N1429 N 0.37015 0.87768 0.07836 0.0
H1430 H 0.92762 0.32507 0.10025 0.0
H1431 H 0.85862 0.46778 0.09901 0.0
H1432 H 0.94089 0.42383 0.07603 0.0
H1433 H 0.84471 0.36801 0.07897 0.0
H1434 H 0.88899 0.4522 0.09673 0.0
H1435 H 0.89714 0.34023 0.09855 0.0
C1436 C 0.92413 0.34991 0.09455 0.0
C1437 C 0.93682 0.37325 0.0883 0.0
C1438 C 0.87927 0.4338 0.0927 0.0
C1439 C 0.90205 0.39077 0.08674 0.0
C1440 C 0.86195 0.4426 0.09412 0.0
C1441 C 0.84911 0.41913 0.08921 0.0
C1442 C 0.8838 0.40113 0.08697 0.0
C1443 C 0.85419 0.38689 0.08282 0.0
C1444 C 0.90675 0.35847 0.09347 0.0
C1445 C 0.93154 0.40505 0.08091 0.0
N1446 N 0.87114 0.37873 0.0822 0.0
N1447 N 0.91457 0.41299 0.08065 0.0
H1448 H 0.69317 0.61501 0.82752 0.0
H1449 H 0.5959 0.67639 0.82346 0.0
H1450 H 0.67858 0.71516 0.8451 0.0
H1451 H 0.60925 0.57722 0.8465 0.0
H1452 H 0.62647 0.69032 0.82231 0.0
H1453 H 0.66262 0.60011 0.82554 0.0
C1454 C 0.68356 0.63389 0.83075 0.0
C1455 C 0.68844 0.66636 0.83662 0.0
C1456 C 0.62268 0.6655 0.82754 0.0
C1457 C 0.65358 0.64953 0.83404 0.0
C1458 C 0.60525 0.65746 0.82807 0.0
C1459 C 0.59999 0.6256 0.83519 0.0
C1460 C 0.635 0.64139 0.83364 0.0
C1461 C 0.61272 0.60214 0.8411 0.0
C1462 C 0.66617 0.62533 0.82976 0.0
C1463 C 0.67543 0.6898 0.84072 0.0
N1464 N 0.62965 0.61045 0.84007 0.0
N1465 N 0.65861 0.68097 0.83921 0.0
H1466 H 0.10772 0.07922 0.84166 0.0
H1467 H 0.17759 0.22025 0.84595 0.0
H1468 H 0.094 0.18015 0.82577 0.0
H1469 H 0.18996 0.12125 0.82088 0.0
H1470 H 0.14695 0.20636 0.84369 0.0
H1471 H 0.13807 0.09427 0.83918 0.0
C1472 C 0.11109 0.10456 0.83758 0.0
C1473 C 0.09829 0.12849 0.83396 0.0
C1474 C 0.1564 0.18781 0.83851 0.0
C1475 C 0.13306 0.14592 0.83149 0.0
C1476 C 0.17387 0.19563 0.83993 0.0
C1477 C 0.18637 0.17185 0.83364 0.0
C1478 C 0.1514 0.15579 0.83137 0.0
C1479 C 0.18079 0.14039 0.82582 0.0
C1480 C 0.12842 0.11308 0.83607 0.0
C1481 C 0.10345 0.16092 0.8286 0.0
N1482 N 0.16374 0.13318 0.82521 0.0
N1483 N 0.12045 0.16879 0.82786 0.0
H1484 H 0.59925 0.15036 1.00349 0.0
H1485 H 0.68338 0.11094 0.91723 0.0
H1486 H 0.605 0.18287 0.91897 0.0
H1487 H 0.6866 0.13859 1.00336 0.0
H1488 H 0.65279 0.12569 0.91751 0.0
H1489 H 0.62978 0.1348 1.00395 0.0
C1490 C 0.60692 0.15414 0.98504 0.0
C1491 C 0.59962 0.16802 0.96118 0.0
C1492 C 0.66023 0.1284 0.93633 0.0
C1493 C 0.63427 0.14965 0.96142 0.0
C1494 C 0.67762 0.11982 0.93624 0.0
C1495 C 0.68754 0.12367 0.96028 0.0
C1496 C 0.65262 0.14005 0.9608 0.0
C1497 C 0.67943 0.13547 0.98433 0.0
C1498 C 0.6243 0.14538 0.98537 0.0
C1499 C 0.61015 0.17248 0.93786 0.0
N1500 N 0.6624 0.14301 0.98406 0.0
N1501 N 0.62691 0.163 0.93845 0.0
H1502 H 0.09564 0.61992 0.97352 0.0
H1503 H 0.19287 0.67975 0.97384 0.0
H1504 H 0.10992 0.71854 0.95039 0.0
H1505 H 0.17913 0.58025 0.95254 0.0
H1506 H 0.16233 0.69437 0.97444 0.0
H1507 H 0.12617 0.60495 0.97494 0.0
C1508 C 0.10519 0.63847 0.96892 0.0
C1509 C 0.10023 0.67052 0.96173 0.0
C1510 C 0.16603 0.66934 0.9697 0.0
C1511 C 0.13509 0.65361 0.9637 0.0
C1512 C 0.18343 0.66091 0.96949 0.0
C1513 C 0.18856 0.62873 0.96304 0.0
C1514 C 0.15364 0.64528 0.96403 0.0
C1515 C 0.17575 0.60539 0.95743 0.0
C1516 C 0.12257 0.62985 0.96961 0.0
C1517 C 0.11316 0.69351 0.95586 0.0
N1518 N 0.15886 0.61407 0.95823 0.0
N1519 N 0.13 0.68468 0.95716 0.0
H1520 H 0.42864 0.96952 0.70244 0.0
H1521 H 0.35958 0.82713 0.70367 0.0
H1522 H 0.44198 0.8706 0.72621 0.0
H1523 H 0.34574 0.92725 0.72285 0.0
H1524 H 0.38997 0.8424 0.7063 0.0
H1525 H 0.39819 0.95452 0.70437 0.0
C1526 C 0.42517 0.94467 0.70813 0.0
C1527 C 0.43788 0.92125 0.71414 0.0
C1528 C 0.38026 0.86094 0.71007 0.0
C1529 C 0.4031 0.90388 0.71594 0.0
C1530 C 0.36293 0.85232 0.70844 0.0
C1531 C 0.3501 0.87598 0.71299 0.0
C1532 C 0.38482 0.89362 0.71565 0.0
C1533 C 0.35521 0.90821 0.71926 0.0
C1534 C 0.4078 0.9362 0.70933 0.0
C1535 C 0.43262 0.88945 0.72151 0.0
N1536 N 0.37217 0.91618 0.72009 0.0
N1537 N 0.41563 0.88158 0.72187 0.0
H1538 H 0.93761 0.40319 0.75561 0.0
H1539 H 0.8542 0.36169 0.66931 0.0
H1540 H 0.93202 0.43475 0.67082 0.0
H1541 H 0.8496 0.39335 0.75429 0.0
H1542 H 0.88467 0.37686 0.6701 0.0
H1543 H 0.90694 0.3884 0.75628 0.0
C1544 C 0.92995 0.40693 0.73716 0.0
C1545 C 0.93733 0.42029 0.71314 0.0
C1546 C 0.87697 0.38039 0.68856 0.0
C1547 C 0.90255 0.40281 0.71362 0.0
C1548 C 0.85964 0.37161 0.68819 0.0
C1549 C 0.84935 0.37637 0.71175 0.0
C1550 C 0.88421 0.3932 0.71287 0.0
C1551 C 0.85706 0.38948 0.73564 0.0
C1552 C 0.9125 0.39864 0.73761 0.0
C1553 C 0.92682 0.42473 0.68982 0.0
N1554 N 0.87409 0.39718 0.73569 0.0
N1555 N 0.91002 0.41565 0.69053 0.0
H1556 H 0.35354 0.43552 0.63047 0.0
H1557 H 0.4372 0.39368 0.5441 0.0
H1558 H 0.34942 0.40442 0.54528 0.0
H1559 H 0.4317 0.36373 0.62934 0.0
H1560 H 0.40656 0.40872 0.54343 0.0
H1561 H 0.38408 0.42073 0.62982 0.0
C1562 C 0.35909 0.42581 0.61157 0.0
C1563 C 0.34892 0.42106 0.58791 0.0
C1564 C 0.41213 0.3988 0.5622 0.0
C1565 C 0.38385 0.40465 0.58697 0.0
C1566 C 0.42957 0.39036 0.56265 0.0
C1567 C 0.43697 0.37736 0.5868 0.0
C1568 C 0.40221 0.39512 0.5863 0.0
C1569 C 0.42649 0.37346 0.61025 0.0
C1570 C 0.37646 0.41724 0.61128 0.0
C1571 C 0.35678 0.40825 0.56401 0.0
N1572 N 0.40969 0.38264 0.60951 0.0
N1573 N 0.37384 0.40073 0.56405 0.0
H1574 H 0.85379 0.93447 0.63189 0.0
H1575 H 0.9371 0.89341 0.54466 0.0
H1576 H 0.84955 0.90382 0.5466 0.0
H1577 H 0.93215 0.86273 0.6298 0.0
H1578 H 0.90645 0.90811 0.54447 0.0
H1579 H 0.88432 0.91948 0.63111 0.0
C1580 C 0.85932 0.92484 0.61295 0.0
C1581 C 0.84913 0.92028 0.58929 0.0
C1582 C 0.91213 0.89809 0.56312 0.0
C1583 C 0.884 0.90362 0.58821 0.0
C1584 C 0.92957 0.88982 0.56329 0.0
C1585 C 0.93713 0.87675 0.58727 0.0
C1586 C 0.90236 0.89415 0.58732 0.0
C1587 C 0.92679 0.87251 0.61083 0.0
C1588 C 0.87667 0.91613 0.6126 0.0
C1589 C 0.85694 0.90752 0.56533 0.0
N1590 N 0.90997 0.88155 0.61038 0.0
N1591 N 0.87397 0.89989 0.56531 0.0
H1592 H 0.6038 0.10986 0.38032 0.0
H1593 H 0.68812 0.15346 0.29664 0.0
H1594 H 0.60049 0.14156 0.29523 0.0
H1595 H 0.68161 0.18324 0.38178 0.0
H1596 H 0.65759 0.13802 0.2951 0.0
H1597 H 0.63426 0.12519 0.3807 0.0
C1598 C 0.60952 0.11977 0.36165 0.0
C1599 C 0.5996 0.12454 0.33772 0.0
C1600 C 0.66291 0.148 0.31404 0.0
C1601 C 0.63442 0.14162 0.33797 0.0
C1602 C 0.68028 0.15669 0.31498 0.0
C1603 C 0.68737 0.16973 0.33936 0.0
C1604 C 0.65273 0.15148 0.33788 0.0
C1605 C 0.67663 0.17349 0.36253 0.0
C1606 C 0.62684 0.12867 0.36196 0.0
C1607 C 0.60766 0.13768 0.31416 0.0
N1608 N 0.65989 0.16405 0.36133 0.0
N1609 N 0.62466 0.14552 0.31478 0.0
H1610 H 0.18727 0.65478 0.29493 0.0
H1611 H 0.10373 0.60991 0.38046 0.0
H1612 H 0.18148 0.68298 0.38059 0.0
H1613 H 0.09961 0.6419 0.29554 0.0
H1614 H 0.13418 0.62527 0.38015 0.0
H1615 H 0.15674 0.63913 0.29394 0.0
C1616 C 0.17959 0.65761 0.3135 0.0
C1617 C 0.18689 0.67029 0.33786 0.0
C1618 C 0.12658 0.62881 0.36159 0.0
C1619 C 0.15225 0.65181 0.337 0.0
C1620 C 0.10926 0.6199 0.36168 0.0
C1621 C 0.09912 0.62473 0.33801 0.0
C1622 C 0.13394 0.64185 0.33746 0.0
C1623 C 0.10696 0.63796 0.31428 0.0
C1624 C 0.16222 0.64881 0.31288 0.0
C1625 C 0.17635 0.67353 0.36133 0.0
N1626 N 0.12397 0.64582 0.31451 0.0
N1627 N 0.15962 0.66401 0.36041 0.0
H1628 H 0.67766 0.57731 0.45387 0.0
H1629 H 0.60805 0.71909 0.44987 0.0
H1630 H 0.69142 0.67792 0.47097 0.0
H1631 H 0.59546 0.62101 0.47685 0.0
H1632 H 0.63864 0.70452 0.45142 0.0
H1633 H 0.64727 0.59273 0.45604 0.0
C1634 C 0.67429 0.60265 0.45808 0.0
C1635 C 0.6871 0.62638 0.46222 0.0
C1636 C 0.62915 0.68631 0.45713 0.0
C1637 C 0.65237 0.6442 0.46432 0.0
C1638 C 0.61171 0.69453 0.45615 0.0
C1639 C 0.59918 0.67121 0.46321 0.0
C1640 C 0.63406 0.65434 0.46459 0.0
C1641 C 0.60468 0.63978 0.47131 0.0
C1642 C 0.65696 0.61137 0.45943 0.0
C1643 C 0.68197 0.65882 0.46775 0.0
N1644 N 0.62169 0.63215 0.47147 0.0
N1645 N 0.66499 0.66688 0.46833 0.0
H1646 H 0.17875 0.07777 0.45579 0.0
H1647 H 0.10921 0.21941 0.45501 0.0
H1648 H 0.19211 0.17782 0.47578 0.0
H1649 H 0.09598 0.11981 0.47669 0.0
H1650 H 0.13968 0.20474 0.45765 0.0
H1651 H 0.14831 0.09256 0.4585 0.0
C1652 C 0.17528 0.10284 0.46081 0.0
C1653 C 0.188 0.12664 0.46549 0.0
C1654 C 0.13009 0.18618 0.462 0.0
C1655 C 0.15318 0.14375 0.46824 0.0
C1656 C 0.11271 0.19446 0.46037 0.0
C1657 C 0.10002 0.17075 0.46555 0.0
C1658 C 0.13485 0.15379 0.46825 0.0
C1659 C 0.10532 0.13886 0.47259 0.0
C1660 C 0.15791 0.1112 0.46247 0.0
C1661 C 0.18274 0.1587 0.47208 0.0
N1662 N 0.12234 0.1312 0.47339 0.0
N1663 N 0.16572 0.16643 0.47292 0.0
H1664 H 0.33301 0.08002 0.08901 0.0
H1665 H 0.33321 0.21504 0.20643 0.0
H1666 H 0.31548 0.05756 0.17169 0.0
H1667 H 0.31474 0.23768 0.12433 0.0
H1668 H 0.33488 0.15701 0.19354 0.0
H1669 H 0.33446 0.13822 0.10165 0.0
C1670 C 0.32973 0.08727 0.10995 0.0
C1671 C 0.32409 0.06404 0.1294 0.0
C1672 C 0.33062 0.17481 0.17836 0.0
C1673 C 0.32596 0.13017 0.14385 0.0
C1674 C 0.32976 0.20788 0.18555 0.0
C1675 C 0.32379 0.23113 0.16637 0.0
C1676 C 0.32592 0.1651 0.15161 0.0
C1677 C 0.31934 0.22046 0.13971 0.0
C1678 C 0.33045 0.12042 0.117 0.0
C1679 C 0.31984 0.07478 0.15613 0.0
N1680 N 0.32059 0.1881 0.13301 0.0
N1681 N 0.32095 0.10717 0.16267 0.0
H1682 H 0.95249 0.07883 0.21006 0.0
H1683 H 0.95359 0.21387 0.09302 0.0
H1684 H 0.97107 0.05619 0.12796 0.0
H1685 H 0.97148 0.23632 0.17551 0.0
H1686 H 0.95185 0.15582 0.10573 0.0
H1687 H 0.9513 0.13703 0.19746 0.0
C1688 C 0.95605 0.08604 0.18923 0.0
C1689 C 0.96191 0.06275 0.16995 0.0
C1690 C 0.95601 0.17359 0.12103 0.0
C1691 C 0.96034 0.1289 0.15554 0.0
C1692 C 0.95691 0.20667 0.11394 0.0
C1693 C 0.96273 0.22986 0.1333 0.0
C1694 C 0.9605 0.16383 0.14785 0.0
C1695 C 0.96699 0.21914 0.16001 0.0
C1696 C 0.95548 0.11919 0.18222 0.0
C1697 C 0.96652 0.07345 0.14339 0.0
N1698 N 0.9657 0.18678 0.16661 0.0
N1699 N 0.96554 0.10586 0.13686 0.0
H1700 H 0.74306 0.97916 0.89695 0.0
H1701 H 0.68841 0.81346 0.89919 0.0
H1702 H 0.69143 0.97477 0.92945 0.0
H1703 H 0.74374 0.81629 0.89311 0.0
H1704 H 0.68824 0.87309 0.90598 0.0
H1705 H 0.74227 0.9199 0.88934 0.0
C1706 C 0.73147 0.96582 0.90215 0.0
C1707 C 0.71731 0.9819 0.91397 0.0
C1708 C 0.7004 0.86054 0.90329 0.0
C1709 C 0.71639 0.91408 0.90552 0.0
C1710 C 0.70052 0.82653 0.89952 0.0
C1711 C 0.71611 0.80986 0.89545 0.0
C1712 C 0.71596 0.87794 0.90265 0.0
C1713 C 0.73141 0.82807 0.89604 0.0
C1714 C 0.73109 0.93195 0.89803 0.0
C1715 C 0.70266 0.96331 0.9204 0.0
N1716 N 0.73093 0.86114 0.89932 0.0
N1717 N 0.70258 0.93033 0.91613 0.0
H1718 H 0.08394 0.96624 0.83906 0.0
H1719 H 0.08453 0.83139 0.95637 0.0
H1720 H 0.06638 0.98882 0.92175 0.0
H1721 H 0.0657 0.80863 0.8745 0.0
H1722 H 0.0861 0.88941 0.94347 0.0
H1723 H 0.08544 0.90804 0.85167 0.0
C1724 C 0.08067 0.95901 0.86 0.0
C1725 C 0.07501 0.98227 0.87946 0.0
C1726 C 0.08178 0.87158 0.92833 0.0
C1727 C 0.07694 0.91616 0.89389 0.0
C1728 C 0.08098 0.83852 0.93554 0.0
C1729 C 0.07493 0.81525 0.91643 0.0
C1730 C 0.07695 0.88124 0.90164 0.0
C1731 C 0.07036 0.82588 0.88982 0.0
C1732 C 0.08141 0.92587 0.86703 0.0
C1733 C 0.07076 0.97157 0.90618 0.0
N1734 N 0.07155 0.85822 0.8831 0.0
N1735 N 0.07191 0.93919 0.91271 0.0
H1736 H 0.29233 0.73055 0.65412 0.0
H1737 H 0.34716 0.56943 0.62216 0.0
H1738 H 0.34772 0.73114 0.64922 0.0
H1739 H 0.29443 0.56765 0.6499 0.0
H1740 H 0.34755 0.62895 0.62877 0.0
H1741 H 0.29262 0.6712 0.64774 0.0
C1742 C 0.30456 0.71827 0.65143 0.0
C1743 C 0.32005 0.73586 0.6524 0.0
C1744 C 0.33594 0.61546 0.6336 0.0
C1745 C 0.32044 0.66779 0.64522 0.0
C1746 C 0.33572 0.58149 0.62992 0.0
C1747 C 0.32071 0.56355 0.63539 0.0
C1748 C 0.321 0.63162 0.6425 0.0
C1749 C 0.30628 0.58047 0.64542 0.0
C1750 C 0.30471 0.68432 0.64799 0.0
C1751 C 0.33549 0.71856 0.64869 0.0
N1752 N 0.30673 0.6136 0.6484 0.0
N1753 N 0.3353 0.68543 0.64532 0.0
H1754 H 0.95562 0.58344 0.71024 0.0
H1755 H 0.95755 0.71396 0.58828 0.0
H1756 H 0.97188 0.5575 0.62756 0.0
H1757 H 0.9713 0.73982 0.67211 0.0
H1758 H 0.9555 0.65635 0.6023 0.0
H1759 H 0.95404 0.64107 0.69608 0.0
C1760 C 0.95861 0.5898 0.689 0.0
C1761 C 0.96393 0.56573 0.67 0.0
C1762 C 0.95883 0.67474 0.6176 0.0
C1763 C 0.96199 0.63134 0.6538 0.0
C1764 C 0.95989 0.70758 0.60973 0.0
C1765 C 0.96464 0.73162 0.62911 0.0
C1766 C 0.96215 0.66604 0.64515 0.0
C1767 C 0.96768 0.72197 0.65654 0.0
C1768 C 0.95781 0.62266 0.68105 0.0
C1769 C 0.9678 0.57537 0.64283 0.0
N1770 N 0.96632 0.68984 0.66382 0.0
N1771 N 0.96669 0.60751 0.63547 0.0
H1772 H 0.6879 0.48138 0.40415 0.0
H1773 H 0.74315 0.31581 0.4026 0.0
H1774 H 0.74336 0.47867 0.40341 0.0
H1775 H 0.68842 0.31794 0.38818 0.0
H1776 H 0.74301 0.37546 0.40676 0.0
H1777 H 0.68749 0.42153 0.40017 0.0
C1778 C 0.69999 0.46828 0.40282 0.0
C1779 C 0.71569 0.48509 0.40427 0.0
C1780 C 0.73102 0.36288 0.4028 0.0
C1781 C 0.71529 0.41661 0.40023 0.0
C1782 C 0.73106 0.32876 0.40064 0.0
C1783 C 0.71578 0.31182 0.39486 0.0
C1784 C 0.71558 0.38026 0.39931 0.0
C1785 C 0.70051 0.32998 0.39257 0.0
C1786 C 0.69973 0.43409 0.40071 0.0
C1787 C 0.73094 0.46678 0.40249 0.0
N1788 N 0.70081 0.36325 0.39468 0.0
N1789 N 0.73035 0.43353 0.40079 0.0
H1790 H 0.06214 0.30515 0.37406 0.0
H1791 H 0.06515 0.48906 0.42183 0.0
H1792 H 0.08506 0.33127 0.45241 0.0
H1793 H 0.07698 0.46342 0.33716 0.0
H1794 H 0.06783 0.43085 0.43455 0.0
H1795 H 0.06292 0.36332 0.36049 0.0
C1796 C 0.06744 0.32308 0.38825 0.0
C1797 C 0.07362 0.3135 0.41428 0.0
C1798 C 0.06996 0.43818 0.41326 0.0
C1799 C 0.0741 0.37957 0.39932 0.0
C1800 C 0.0684 0.47122 0.40601 0.0
C1801 C 0.07091 0.48095 0.37847 0.0
C1802 C 0.07354 0.41482 0.39265 0.0
C1803 C 0.07507 0.45692 0.35868 0.0
C1804 C 0.0679 0.35609 0.38052 0.0
C1805 C 0.08031 0.33763 0.43203 0.0
N1806 N 0.07601 0.42482 0.36608 0.0
N1807 N 0.08014 0.36969 0.42439 0.0
H1808 H 0.81325 0.05591 0.67434 0.0
H1809 H 0.81245 0.24048 0.62618 0.0
H1810 H 0.82703 0.08236 0.59067 0.0
H1811 H 0.82984 0.21385 0.70802 0.0
H1812 H 0.81385 0.18238 0.61268 0.0
H1813 H 0.81538 0.11401 0.68764 0.0
C1814 C 0.81682 0.0739 0.65886 0.0
C1815 C 0.82002 0.06439 0.63143 0.0
C1816 C 0.8175 0.18943 0.63349 0.0
C1817 C 0.82209 0.1305 0.64626 0.0
C1818 C 0.81667 0.22245 0.6412 0.0
C1819 C 0.82109 0.23191 0.66819 0.0
C1820 C 0.82231 0.16578 0.65316 0.0
C1821 C 0.82645 0.2076 0.68692 0.0
C1822 C 0.81807 0.10691 0.66645 0.0
C1823 C 0.82458 0.08864 0.61211 0.0
N1824 N 0.82668 0.17555 0.67917 0.0
N1825 N 0.82525 0.12068 0.61981 0.0
H1826 H 0.47168 0.05784 0.62485 0.0
H1827 H 0.47296 0.24058 0.67441 0.0
H1828 H 0.45458 0.08218 0.70743 0.0
H1829 H 0.45248 0.21662 0.59384 0.0
H1830 H 0.47132 0.18216 0.68704 0.0
H1831 H 0.46971 0.11628 0.61238 0.0
C1832 C 0.46741 0.07543 0.64024 0.0
C1833 C 0.46321 0.06527 0.66713 0.0
C1834 C 0.46707 0.18992 0.66671 0.0
C1835 C 0.46144 0.13163 0.65332 0.0
C1836 C 0.46802 0.22307 0.65951 0.0
C1837 C 0.46277 0.23333 0.63314 0.0
C1838 C 0.46136 0.16699 0.64706 0.0
C1839 C 0.45652 0.20972 0.61449 0.0
C1840 C 0.46627 0.10859 0.63313 0.0
C1841 C 0.4578 0.089 0.68639 0.0
N1842 N 0.45624 0.1775 0.62165 0.0
N1843 N 0.45732 0.12121 0.67924 0.0
H1844 H 0.20215 0.83014 0.34347 0.0
H1845 H 0.2034 0.96633 0.45965 0.0
H1846 H 0.22128 0.80828 0.42531 0.0
H1847 H 0.22126 0.98801 0.377 0.0
H1848 H 0.20177 0.90811 0.44731 0.0
H1849 H 0.20094 0.88843 0.35582 0.0
C1850 C 0.20583 0.83753 0.36419 0.0
C1851 C 0.21186 0.81442 0.38345 0.0
C1852 C 0.2059 0.92574 0.43189 0.0
C1853 C 0.21025 0.88071 0.3976 0.0
C1854 C 0.20673 0.95892 0.43877 0.0
C1855 C 0.2125 0.98196 0.41926 0.0
C1856 C 0.2104 0.91573 0.40512 0.0
C1857 C 0.2168 0.97096 0.39261 0.0
C1858 C 0.20525 0.87074 0.37106 0.0
C1859 C 0.21661 0.82538 0.40989 0.0
N1860 N 0.21556 0.93852 0.38621 0.0
N1861 N 0.21561 0.85784 0.4163 0.0
H1862 H 0.56338 0.98977 0.42146 0.0
H1863 H 0.5621 0.80471 0.37466 0.0
H1864 H 0.57675 0.96229 0.3378 0.0
H1865 H 0.57964 0.83239 0.4562 0.0
H1866 H 0.56363 0.86259 0.36061 0.0
H1867 H 0.56548 0.93183 0.4351 0.0
C1868 C 0.56685 0.97158 0.40605 0.0
C1869 C 0.56995 0.98073 0.37852 0.0
C1870 C 0.56729 0.85579 0.38148 0.0
C1871 C 0.57199 0.91483 0.39376 0.0
C1872 C 0.56639 0.82291 0.38949 0.0
C1873 C 0.57079 0.81383 0.41657 0.0
C1874 C 0.57218 0.87966 0.40092 0.0
C1875 C 0.57624 0.83833 0.43505 0.0
C1876 C 0.56809 0.93866 0.41383 0.0
C1877 C 0.57439 0.95625 0.3593 0.0
N1878 N 0.57656 0.87025 0.427 0.0
N1879 N 0.57505 0.9243 0.3672 0.0
H1880 H 0.81352 0.55708 0.17751 0.0
H1881 H 0.81478 0.73937 0.12659 0.0
H1882 H 0.83341 0.5801 0.09634 0.0
H1883 H 0.83298 0.71586 0.20865 0.0
H1884 H 0.8162 0.68069 0.1146 0.0
H1885 H 0.81523 0.6157 0.18966 0.0
C1886 C 0.81833 0.57441 0.16238 0.0
C1887 C 0.82341 0.56382 0.13598 0.0
C1888 C 0.81999 0.68862 0.13513 0.0
C1889 C 0.8249 0.63035 0.14935 0.0
C1890 C 0.81917 0.72191 0.14196 0.0
C1891 C 0.82385 0.73238 0.16855 0.0
C1892 C 0.82499 0.66578 0.15534 0.0
C1893 C 0.8294 0.70881 0.18782 0.0
C1894 C 0.81932 0.60767 0.1693 0.0
C1895 C 0.82951 0.58723 0.11702 0.0
N1896 N 0.82957 0.67648 0.18097 0.0
N1897 N 0.82984 0.61953 0.12392 0.0
H1898 H 0.46124 0.58136 0.21512 0.0
H1899 H 0.45171 0.71367 0.09623 0.0
H1900 H 0.47109 0.5569 0.12955 0.0
H1901 H 0.47462 0.73855 0.17488 0.0
H1902 H 0.45138 0.65587 0.11002 0.0
H1903 H 0.45883 0.63931 0.20215 0.0
C1904 C 0.46267 0.58814 0.19354 0.0
C1905 C 0.46639 0.56439 0.17331 0.0
C1906 C 0.45634 0.67409 0.12427 0.0
C1907 C 0.46343 0.63028 0.15851 0.0
C1908 C 0.45642 0.70704 0.11658 0.0
C1909 C 0.46322 0.73086 0.1345 0.0
C1910 C 0.4627 0.66506 0.1503 0.0
C1911 C 0.46932 0.72087 0.16048 0.0
C1912 C 0.46141 0.62115 0.18627 0.0
C1913 C 0.46828 0.57452 0.14574 0.0
N1914 N 0.46884 0.68863 0.16771 0.0
N1915 N 0.46667 0.6068 0.13907 0.0
H1916 H 0.20749 0.33457 0.83817 0.0
H1917 H 0.20852 0.464 0.96121 0.0
H1918 H 0.22195 0.3074 0.92136 0.0
H1919 H 0.22304 0.49037 0.87784 0.0
H1920 H 0.20652 0.40651 0.94679 0.0
H1921 H 0.20625 0.39212 0.85264 0.0
C1922 C 0.21017 0.34066 0.85958 0.0
C1923 C 0.21486 0.31623 0.87864 0.0
C1924 C 0.21002 0.42497 0.93167 0.0
C1925 C 0.21332 0.38181 0.89521 0.0
C1926 C 0.21106 0.45776 0.93977 0.0
C1927 C 0.21598 0.48193 0.92064 0.0
C1928 C 0.21356 0.41644 0.90413 0.0
C1929 C 0.21927 0.47244 0.89322 0.0
C1930 C 0.20957 0.37348 0.86771 0.0
C1931 C 0.21835 0.32553 0.90603 0.0
N1932 N 0.21793 0.44036 0.88571 0.0
N1933 N 0.21744 0.35766 0.91357 0.0
H1934 H 0.5814 0.33119 0.9579 0.0
H1935 H 0.57846 0.46151 0.83602 0.0
H1936 H 0.56382 0.30528 0.87598 0.0
H1937 H 0.5656 0.48781 0.92016 0.0
H1938 H 0.58022 0.40385 0.85001 0.0
H1939 H 0.58278 0.3888 0.94365 0.0
C1940 C 0.57807 0.33755 0.9368 0.0
C1941 C 0.57246 0.31349 0.91805 0.0
C1942 C 0.57714 0.42234 0.86538 0.0
C1943 C 0.57417 0.37908 0.90173 0.0
C1944 C 0.57624 0.45521 0.85752 0.0
C1945 C 0.57185 0.4794 0.87701 0.0
C1946 C 0.57403 0.41376 0.89302 0.0
C1947 C 0.56895 0.46985 0.90451 0.0
C1948 C 0.57875 0.3704 0.92881 0.0
C1949 C 0.56815 0.32314 0.89106 0.0
N1950 N 0.57017 0.43768 0.91178 0.0
N1951 N 0.56916 0.35526 0.88362 0.0
H1952 H 0.2718 0.19114 0.41598 0.0
H1953 H 0.25758 0.2359 0.25564 0.0
H1954 H 0.24514 0.12687 0.35948 0.0
H1955 H 0.29373 0.28618 0.30815 0.0
H1956 H 0.25192 0.19682 0.29337 0.0
H1957 H 0.27907 0.22708 0.37712 0.0
C1958 C 0.26757 0.18436 0.39539 0.0
C1959 C 0.25784 0.15568 0.3912 0.0
C1960 C 0.26118 0.21627 0.2966 0.0
C1961 C 0.26597 0.19743 0.34626 0.0
C1962 C 0.26451 0.23847 0.27495 0.0
C1963 C 0.27634 0.26417 0.27851 0.0
C1964 C 0.26955 0.21995 0.32226 0.0
C1965 C 0.28449 0.26683 0.30442 0.0
C1966 C 0.27172 0.20502 0.37313 0.0
C1967 C 0.25274 0.1485 0.36386 0.0
N1968 N 0.28092 0.24519 0.3252 0.0
N1969 N 0.25673 0.16928 0.34257 0.0
H1970 H 1.01763 0.10136 0.41896 0.0
H1971 H 0.02836 0.06134 0.25669 0.0
H1972 H 0.04112 0.16871 0.36139 0.0
H1973 H 0.99723 1.00357 0.312 0.0
H1974 H 0.03396 0.10013 0.29467 0.0
H1975 H 1.0107 0.06481 0.38031 0.0
C1976 C 0.02123 0.10869 0.3982 0.0
C1977 C 0.02998 0.13842 0.39365 0.0
C1978 C 0.02584 0.07905 0.29849 0.0
C1979 C 0.02223 0.09602 0.34892 0.0
C1980 C 0.02254 0.05699 0.27672 0.0
C1981 C 1.01209 0.02934 0.28096 0.0
C1982 C 0.01881 0.07334 0.32494 0.0
C1983 C 1.00539 0.02447 0.30772 0.0
C1984 C 1.01728 0.08767 0.37605 0.0
C1985 C 0.0343 0.14625 0.36607 0.0
N1986 N 1.00885 0.04611 0.32857 0.0
N1987 N 0.0305 0.12518 0.3449 0.0
H1988 H 0.28971 1.00202 0.98794 0.0
H1989 H 0.24588 0.17128 0.93931 0.0
H1990 H 0.25787 0.06083 0.04159 0.0
H1991 H 0.26691 0.10039 0.8821 0.0
H1992 H 0.25281 0.13424 0.9777 0.0
H1993 H 0.28369 0.04001 0.94978 0.0
C1994 C 0.28145 0.02296 0.99174 0.0
C1995 C 0.27446 0.02833 1.01823 0.0
C1996 C 0.25597 0.12683 0.95677 0.0
C1997 C 0.26765 0.07248 0.97444 0.0
C1998 C 0.25212 0.14811 0.93474 0.0
C1999 C 0.2558 0.13916 0.90719 0.0
C2000 C 0.26375 0.09627 0.95146 0.0
C2001 C 0.2638 0.10854 0.90285 0.0
C2002 C 0.27806 0.04475 0.96991 0.0
C2003 C 0.26392 0.05608 1.02181 0.0
N2004 N 0.26749 0.08834 0.92464 0.0
N2005 N 0.2609 0.0771 1.00028 0.0
H2006 H 0.04164 0.12355 0.94087 0.0
H2007 H 0.99282 0.28657 0.99277 0.0
H2008 H 1.01495 0.19 0.8862 0.0
H2009 H 0.02881 0.23377 0.04383 0.0
H2010 H 0.99852 0.24813 0.95482 0.0
H2011 H 0.0345 0.15959 0.98003 0.0
C2012 C 0.0341 0.14545 0.93706 0.0
C2013 C 0.02892 0.15358 0.90999 0.0
C2014 C 1.00513 0.24476 0.97434 0.0
C2015 C 0.02074 0.19523 0.955 0.0
C2016 C 1.0019 0.26678 0.99604 0.0
C2017 C 1.01023 0.26333 1.02168 0.0
C2018 C 1.01676 0.21871 0.97814 0.0
C2019 C 0.0218 0.23703 1.02468 0.0
C2020 C 0.03013 0.16617 0.95948 0.0
C2021 C 0.01928 0.18258 0.90655 0.0
N2022 N 0.0247 0.21576 1.00325 0.0
N2023 N 1.01554 0.2022 0.92867 0.0
H2024 H 0.75009 0.74335 0.73533 0.0
H2025 H 0.78467 0.92162 0.69069 0.0
H2026 H 0.77121 0.8129 0.79332 0.0
H2027 H 0.77143 0.84591 0.63191 0.0
H2028 H 0.77762 0.88399 0.72853 0.0
H2029 H 0.7561 0.78169 0.69753 0.0
C2030 C 0.75615 0.76657 0.74014 0.0
C2031 C 0.76026 0.77469 0.76767 0.0
C2032 C 0.77618 0.87563 0.70737 0.0
C2033 C 0.76685 0.81938 0.72422 0.0
C2034 C 0.78012 0.89723 0.68564 0.0
C2035 C 0.77868 0.88714 0.65783 0.0
C2036 C 0.77063 0.84352 0.70149 0.0
C2037 C 0.77277 0.85498 0.65288 0.0
C2038 C 0.75946 0.78863 0.71849 0.0
C2039 C 0.7677 0.80562 0.77251 0.0
N2040 N 0.769 0.83445 0.67439 0.0
N2041 N 0.77072 0.82676 0.75111 0.0
H2042 H 0.03993 0.0453 0.73793 0.0
H2043 H 0.99834 0.87421 0.68968 0.0
H2044 H 1.00894 0.9852 0.79168 0.0
H2045 H 1.0169 0.9468 0.63194 0.0
H2046 H 1.00513 0.9115 0.72793 0.0
H2047 H 0.0341 1.00731 0.69964 0.0
C2048 C 0.03189 0.02409 0.74171 0.0
C2049 C 0.0251 1.01831 0.76825 0.0
C2050 C 1.00779 0.91923 0.70691 0.0
C2051 C 0.01854 0.97421 0.72437 0.0
C2052 C 1.00402 0.89781 0.68496 0.0
C2053 C 1.00704 0.90718 0.65731 0.0
C2054 C 1.01481 0.95034 0.70143 0.0
C2055 C 1.01433 0.93835 0.65278 0.0
C2056 C 0.02862 1.00231 0.71982 0.0
C2057 C 1.01484 0.99024 0.77184 0.0
N2058 N 1.01796 0.95869 0.67451 0.0
N2059 N 1.01195 0.96923 0.75027 0.0
H2060 H 0.78433 0.95406 0.16545 0.0
H2061 H 0.74378 0.97746 1.01592 0.0
H2062 H 0.77564 0.8695 0.11348 0.0
H2063 H 0.78016 0.04617 0.0501 0.0
H2064 H 0.75086 0.93877 0.05332 0.0
H2065 H 0.77766 0.98979 0.12619 0.0
C2066 C 0.78082 0.9429 0.14589 0.0
C2067 C 0.78056 0.90852 0.14295 0.0
C2068 C 0.75732 0.96229 0.05249 0.0
C2069 C 0.77273 0.94976 0.09765 0.0
C2070 C 0.7534 0.98437 0.03099 0.0
C2071 C 0.76133 1.01541 0.0297 0.0
C2072 C 0.76896 0.97149 0.07333 0.0
C2073 C 0.77343 1.02293 0.05039 0.0
C2074 C 0.77714 0.96342 0.12339 0.0
C2075 C 0.77604 0.89578 0.1168 0.0
N2076 N 0.77668 1.00146 0.07143 0.0
N2077 N 0.77218 0.91634 0.09526 0.0
H2078 H 1.00873 0.81209 1.00549 0.0
H2079 H 0.02209 0.85471 0.16662 0.0
H2080 H 0.0435 0.75934 0.05873 0.0
H2081 H 0.99549 0.91949 0.11045 0.0
H2082 H 0.02939 0.81901 0.12757 0.0
H2083 H 1.00299 0.8509 0.04348 0.0
C2084 C 1.01534 0.8089 0.02503 0.0
C2085 C 0.02681 0.78259 0.02872 0.0
C2086 C 0.02205 0.84114 0.12369 0.0
C2087 C 0.01995 0.82655 0.07272 0.0
C2088 C 1.01788 0.86166 0.14606 0.0
C2089 C 1.00815 0.89041 0.14203 0.0
C2090 C 1.01633 0.84894 0.09684 0.0
C2091 C 1.00308 0.8978 0.11471 0.0
C2092 C 1.01197 0.83096 0.04681 0.0
C2093 C 0.03455 0.77918 0.05488 0.0
N2094 N 1.00711 0.87716 0.09331 0.0
N2095 N 0.03097 0.80073 0.07577 0.0
H2096 H 0.28893 0.7994 0.81426 0.0
H2097 H 0.25134 0.62355 0.85986 0.0
H2098 H 0.26666 0.73096 0.75645 0.0
H2099 H 0.26821 0.69745 0.91784 0.0
H2100 H 0.25873 0.6605 0.82161 0.0
H2101 H 0.28291 0.76107 0.852 0.0
C2102 C 0.28264 0.77638 0.80948 0.0
C2103 C 0.27819 0.76862 0.78202 0.0
C2104 C 0.2609 0.66858 0.84269 0.0
C2105 C 0.2715 0.72393 0.82544 0.0
C2106 C 0.25677 0.64737 0.86464 0.0
C2107 C 0.25912 0.65719 0.89235 0.0
C2108 C 0.26754 0.70001 0.84828 0.0
C2109 C 0.26613 0.6886 0.89697 0.0
C2110 C 0.27931 0.75433 0.8311 0.0
C2111 C 0.27043 0.73797 0.7772 0.0
N2112 N 0.27002 0.70876 0.87528 0.0
N2113 N 0.26734 0.71683 0.79861 0.0
H2114 H 0.02156 0.67994 0.865 0.0
H2115 H 0.03652 0.50856 0.79092 0.0
H2116 H 0.03845 0.59514 0.91096 0.0
H2117 H 0.99057 0.56351 0.77265 0.0
H2118 H 0.04254 0.54638 0.82937 0.0
H2119 H 1.01469 0.64373 0.82547 0.0
C2120 C 0.02375 0.65377 0.86686 0.0
C2121 C 0.03045 0.6406 0.89153 0.0
C2122 C 0.03116 0.55016 0.81686 0.0
C2123 C 0.02323 0.59931 0.84603 0.0
C2124 C 0.02765 0.52848 0.79501 0.0
C2125 C 1.01272 0.53214 0.77894 0.0
C2126 C 0.02006 0.57664 0.82217 0.0
C2127 C 1.00218 0.55952 0.78448 0.0
C2128 C 0.01984 0.63317 0.8443 0.0
C2129 C 0.03312 0.60643 0.89258 0.0
N2130 N 1.00605 0.58072 0.80555 0.0
N2131 N 0.02975 0.58713 0.87013 0.0
H2132 H 0.24969 0.50785 0.50832 0.0
H2133 H 0.26638 0.67836 0.43422 0.0
H2134 H 0.29664 0.56005 0.52527 0.0
H2135 H 0.24735 0.59497 0.38859 0.0
H2136 H 0.27328 0.6415 0.47327 0.0
H2137 H 0.24387 0.54584 0.46995 0.0
C2138 C 0.25885 0.52715 0.5039 0.0
C2139 C 0.27396 0.53002 0.51962 0.0
C2140 C 0.26767 0.63139 0.45461 0.0
C2141 C 0.26686 0.57479 0.47651 0.0
C2142 C 0.26372 0.65236 0.43234 0.0
C2143 C 0.25641 0.63978 0.40789 0.0
C2144 C 0.26369 0.59777 0.45287 0.0
C2145 C 0.25316 0.6058 0.4068 0.0
C2146 C 0.25544 0.54896 0.48212 0.0
C2147 C 0.28488 0.55668 0.51369 0.0
N2148 N 0.25658 0.58616 0.429 0.0
N2149 N 0.28111 0.57806 0.49271 0.0
H2150 H 0.99266 0.72785 0.5334 0.0
H2151 H 0.03505 0.70305 0.38486 0.0
H2152 H 0.03008 0.79521 0.50025 0.0
H2153 H 0.02237 0.61929 0.43552 0.0
H2154 H 0.02855 0.73919 0.42404 0.0
H2155 H 0.99943 0.68926 0.49581 0.0
C2156 C 1.00247 0.73445 0.51855 0.0
C2157 C 1.01077 0.76509 0.52017 0.0
C2158 C 0.02712 0.71291 0.42656 0.0
C2159 C 1.01806 0.72132 0.47626 0.0
C2160 C 0.03069 0.69218 0.40409 0.0
C2161 C 0.02926 0.65789 0.40672 0.0
C2162 C 0.02169 0.69954 0.4519 0.0
C2163 C 0.02369 0.64549 0.43244 0.0
C2164 C 1.0062 0.71245 0.49689 0.0
C2165 C 0.02308 0.77226 0.49969 0.0
N2166 N 0.02001 0.66626 0.45392 0.0
N2167 N 0.02617 0.75087 0.47851 0.0
H2168 H 0.76713 0.35107 0.13337 0.0
H2169 H 0.77318 0.31473 0.29693 0.0
H2170 H 0.78825 0.4203 0.19181 0.0
H2171 H 0.74743 0.2514 0.23878 0.0
H2172 H 0.77895 0.35371 0.25914 0.0
H2173 H 0.75983 0.31461 0.17181 0.0
C2174 C 0.77012 0.35884 0.15428 0.0
C2175 C 0.77835 0.38905 0.15914 0.0
C2176 C 0.77202 0.33129 0.25464 0.0
C2177 C 0.77013 0.34677 0.20365 0.0
C2178 C 0.76868 0.30907 0.27625 0.0
C2179 C 0.75982 0.27964 0.2711 0.0
C2180 C 0.76654 0.32408 0.22751 0.0
C2181 C 0.75452 0.27347 0.24374 0.0
C2182 C 0.76596 0.33786 0.17631 0.0
C2183 C 0.78187 0.39743 0.18689 0.0
N2184 N 0.75796 0.29535 0.2231 0.0
N2185 N 0.77786 0.37641 0.20797 0.0
H2186 H 1.00038 0.54062 0.25681 0.0
H2187 H 1.01461 0.36663 0.18596 0.0
H2188 H 0.04444 0.48227 0.27924 0.0
H2189 H 0.99862 0.45106 0.13866 0.0
H2190 H 0.02113 0.40325 0.22534 0.0
H2191 H 0.99453 0.50242 0.21857 0.0
C2192 C 1.00886 0.51982 0.25371 0.0
C2193 C 0.02321 0.51527 0.27093 0.0
C2194 C 1.01627 0.41364 0.20625 0.0
C2195 C 1.01607 0.47048 0.22783 0.0
C2196 C 1.01255 0.3928 0.18377 0.0
C2197 C 1.0062 0.40573 0.15877 0.0
C2198 C 1.01305 0.44753 0.2041 0.0
C2199 C 1.00369 0.43993 0.15731 0.0
C2200 C 1.00545 0.49796 0.23195 0.0
C2201 C 0.03325 0.48694 0.26654 0.0
N2202 N 1.00688 0.45948 0.17967 0.0
N2203 N 0.0295 0.46563 0.24551 0.0
H2204 H 0.76942 0.4479 0.66946 0.0
H2205 H 0.77099 0.48055 0.50506 0.0
H2206 H 0.78605 0.37516 0.61018 0.0
H2207 H 0.74826 0.54711 0.56409 0.0
H2208 H 0.77695 0.44187 0.54296 0.0
H2209 H 0.76186 0.48451 0.63118 0.0
C2210 C 0.77137 0.43942 0.64842 0.0
C2211 C 0.7784 0.40815 0.64326 0.0
C2212 C 0.77065 0.46493 0.54764 0.0
C2213 C 0.7699 0.45055 0.59893 0.0
C2214 C 0.76719 0.487 0.52596 0.0
C2215 C 0.75914 0.51726 0.53129 0.0
C2216 C 0.76611 0.47312 0.57504 0.0
C2217 C 0.75472 0.52437 0.55893 0.0
C2218 C 0.76707 0.46047 0.62648 0.0
C2219 C 0.78062 0.39887 0.61536 0.0
N2220 N 0.75828 0.50262 0.57964 0.0
N2221 N 0.77651 0.41995 0.59437 0.0
H2222 H 0.99789 0.42353 0.60995 0.0
H2223 H 0.04191 0.25423 0.56163 0.0
H2224 H 0.01836 0.35229 0.66722 0.0
H2225 H 1.0105 0.31311 0.50752 0.0
H2226 H 0.03583 0.29244 0.59964 0.0
H2227 H 1.00518 0.38672 0.5715 0.0
C2228 C 1.00409 0.40035 0.61452 0.0
C2229 C 1.0075 0.39121 0.6421 0.0
C2230 C 0.03031 0.29716 0.57945 0.0
C2231 C 1.01587 0.3486 0.59778 0.0
C2232 C 0.03374 0.27526 0.5577 0.0
C2233 C 0.02683 0.28051 0.53116 0.0
C2234 C 0.01994 0.3249 0.5748 0.0
C2235 C 1.01642 0.30839 0.52739 0.0
C2236 C 1.00816 0.3792 0.59246 0.0
C2237 C 1.01545 0.36057 0.64645 0.0
N2238 N 1.01334 0.32951 0.54886 0.0
N2239 N 0.01935 0.34051 0.62463 0.0
H2240 H 0.74765 0.20367 0.91305 0.0
H2241 H 0.79722 0.23605 0.77239 0.0
H2242 H 0.76828 0.12188 0.86697 0.0
H2243 H 0.75078 0.2886 0.79252 0.0
H2244 H 0.79112 0.19738 0.81027 0.0
H2245 H 0.75365 0.23967 0.8735 0.0
C2246 C 0.75368 0.19331 0.8948 0.0
C2247 C 0.7575 0.15958 0.89349 0.0
C2248 C 0.7823 0.21742 0.80635 0.0
C2249 C 0.76452 0.20098 0.84804 0.0
C2250 C 0.78569 0.23942 0.78462 0.0
C2251 C 0.77469 0.26616 0.77949 0.0
C2252 C 0.76796 0.22249 0.82354 0.0
C2253 C 0.75998 0.26916 0.79625 0.0
C2254 C 0.75694 0.21388 0.87213 0.0
C2255 C 0.76512 0.14766 0.86899 0.0
N2256 N 0.75721 0.24804 0.81773 0.0
N2257 N 0.76851 0.16834 0.84736 0.0
H2258 H 0.52945 0.06087 0.75537 0.0
H2259 H 0.5178 0.1004 0.91726 0.0
H2260 H 0.49629 1.00494 0.80897 0.0
H2261 H 0.53986 0.16948 0.85965 0.0
H2262 H 0.51097 0.06395 0.87841 0.0
H2263 H 0.53472 0.0995 0.79356 0.0
C2264 C 0.5231 0.05691 0.77505 0.0
C2265 C 0.51218 0.02983 0.77876 0.0
C2266 C 0.5172 0.08718 0.87422 0.0
C2267 C 0.51856 0.07355 0.82299 0.0
C2268 C 0.52109 0.10812 0.89645 0.0
C2269 C 0.52941 0.1383 0.89191 0.0
C2270 C 0.52183 0.09607 0.84707 0.0
C2271 C 0.53337 0.14666 0.86432 0.0
C2272 C 0.52621 0.07888 0.79694 0.0
C2273 C 0.50483 0.02539 0.80512 0.0
N2274 N 0.52968 0.12564 0.84308 0.0
N2275 N 0.50816 0.04687 0.82613 0.0
H2276 H 0.79295 0.06766 0.53562 0.0
H2277 H 0.7531 0.0912 0.38559 0.0
H2278 H 0.75628 0.99964 0.50128 0.0
H2279 H 0.76297 0.17562 0.4372 0.0
H2280 H 0.75935 0.05541 0.42501 0.0
H2281 H 0.78638 0.10621 0.49795 0.0
C2282 C 0.78335 0.06091 0.52049 0.0
C2283 C 0.77521 0.03009 0.52177 0.0
C2284 C 0.76023 0.08176 0.42768 0.0
C2285 C 0.76818 0.07378 0.47782 0.0
C2286 C 0.75681 0.1023 0.40509 0.0
C2287 C 0.75751 0.13666 0.40792 0.0
C2288 C 0.76478 0.09541 0.45337 0.0
C2289 C 0.76224 0.14936 0.43397 0.0
C2290 C 0.77974 0.08289 0.49881 0.0
C2291 C 0.76315 1.02272 0.50098 0.0
N2292 N 0.76581 0.12878 0.4556 0.0
N2293 N 0.7602 0.04408 0.47977 0.0
H2294 H 0.52687 0.23449 0.54215 0.0
H2295 H 0.51913 0.19724 0.37923 0.0
H2296 H 0.49596 0.29296 0.487 0.0
H2297 H 0.53766 0.12581 0.43803 0.0
H2298 H 0.51201 0.23407 0.41781 0.0
H2299 H 0.53254 0.19601 0.50397 0.0
C2300 C 0.5211 0.23905 0.52212 0.0
C2301 C 0.51067 0.2668 0.518 0.0
C2302 C 0.51753 0.21025 0.42229 0.0
C2303 C 0.51757 0.22326 0.47375 0.0
C2304 C 0.52159 0.18911 0.40022 0.0
C2305 C 0.52898 0.15813 0.40519 0.0
C2306 C 0.52109 0.20073 0.44972 0.0
C2307 C 0.5319 0.14926 0.43301 0.0
C2308 C 0.52444 0.21717 0.50023 0.0
C2309 C 0.50409 0.27199 0.4912 0.0
N2310 N 0.52809 0.17045 0.45408 0.0
N2311 N 0.50766 0.25058 0.4702 0.0
H2312 H 0.27809 0.81337 0.29569 0.0
H2313 H 0.26471 0.85584 0.13456 0.0
H2314 H 0.24472 0.75879 0.24146 0.0
H2315 H 0.29091 0.92109 0.19083 0.0
H2316 H 0.25778 0.81984 0.17344 0.0
H2317 H 0.28355 0.85254 0.25791 0.0
C2318 C 0.27174 0.80983 0.27597 0.0
C2319 C 0.26074 0.78292 0.27193 0.0
C2320 C 0.26494 0.84213 0.17741 0.0
C2321 C 0.26727 0.82731 0.22822 0.0
C2322 C 0.2689 0.86284 0.15512 0.0
C2323 C 0.27842 0.89179 0.15922 0.0
C2324 C 0.27065 0.84995 0.20424 0.0
C2325 C 0.28347 0.89923 0.18654 0.0
C2326 C 0.27496 0.8321 0.25432 0.0
C2327 C 0.25333 0.77907 0.24557 0.0
N2328 N 0.27965 0.87841 0.20788 0.0
N2329 N 0.25673 0.80086 0.22485 0.0
H2330 H 0.50582 0.04752 0.24885 0.0
H2331 H 0.51161 0.86726 0.18503 0.0
H2332 H 0.54198 0.97736 0.28159 0.0
H2333 H 0.50151 0.95272 0.13489 0.0
H2334 H 0.51867 0.90369 0.22423 0.0
H2335 H 0.49948 1.00955 0.21082 0.0
C2336 C 0.51242 0.02411 0.24816 0.0
C2337 C 0.52465 1.01602 0.26846 0.0
C2338 C 0.51499 0.91436 0.20457 0.0
C2339 C 0.51699 0.97172 0.22512 0.0
C2340 C 0.51095 0.8936 0.18216 0.0
C2341 C 0.50605 0.90681 0.15641 0.0
C2342 C 0.51362 0.94862 0.20154 0.0
C2343 C 0.50537 0.94127 0.15414 0.0
C2344 C 0.50875 1.0024 0.22641 0.0
C2345 C 0.53236 0.98475 0.26671 0.0
N2346 N 0.50889 0.96082 0.17637 0.0
N2347 N 0.5284 0.96378 0.24551 0.0
H2348 H 0.26683 0.94666 0.66841 0.0
H2349 H 0.27911 0.98538 0.50639 0.0
H2350 H 0.29108 0.87897 0.61175 0.0
H2351 H 0.24649 0.04239 0.56022 0.0
H2352 H 0.2845 0.94702 0.54472 0.0
H2353 H 0.25998 0.98263 0.62935 0.0
C2354 C 0.2706 0.93914 0.64776 0.0
C2355 C 0.27955 0.90951 0.64356 0.0
C2356 C 0.27609 0.96783 0.54813 0.0
C2357 C 0.27191 0.95119 0.59843 0.0
C2358 C 0.27292 0.98963 0.52616 0.0
C2359 C 0.26212 1.01694 0.52991 0.0
C2360 C 0.26859 0.97351 0.57426 0.0
C2361 C 0.25493 1.02174 0.55634 0.0
C2362 C 0.2667 0.95981 0.62539 0.0
C2363 C 0.2841 0.90138 0.61615 0.0
N2364 N 0.25829 1.00038 0.5774 0.0
N2365 N 0.28036 0.92213 0.59476 0.0
H2366 H 0.49788 0.84465 0.66045 0.0
H2367 H 0.54606 0.81117 0.52009 0.0
H2368 H 0.51471 0.92789 0.61244 0.0
H2369 H 0.49911 0.76004 0.53936 0.0
H2370 H 0.53959 0.85091 0.55711 0.0
H2371 H 0.50364 0.80886 0.6207 0.0
C2372 C 0.503 0.85542 0.64167 0.0
C2373 C 0.50586 0.88946 0.63992 0.0
C2374 C 0.53074 0.83095 0.55317 0.0
C2375 C 0.51267 0.84822 0.59427 0.0
C2376 C 0.53435 0.80831 0.53196 0.0
C2377 C 0.52333 0.7816 0.52691 0.0
C2378 C 0.51618 0.82651 0.56993 0.0
C2379 C 0.50838 0.7793 0.54316 0.0
C2380 C 0.50614 0.83494 0.61891 0.0
C2381 C 0.51231 0.90186 0.61477 0.0
N2382 N 0.50542 0.80099 0.5642 0.0
N2383 N 0.5157 0.88122 0.59304 0.0
H2384 H 0.7708 0.69517 0.41825 0.0
H2385 H 0.75804 0.73649 0.25681 0.0
H2386 H 0.74606 0.62869 0.36128 0.0
H2387 H 0.79129 0.7918 0.3107 0.0
H2388 H 0.75262 0.69768 0.29481 0.0
H2389 H 0.77769 0.73148 0.37944 0.0
C2390 C 0.76693 0.68798 0.39758 0.0
C2391 C 0.75783 0.65858 0.39324 0.0
C2392 C 0.76118 0.71821 0.2983 0.0
C2393 C 0.76552 0.70069 0.34837 0.0
C2394 C 0.76437 0.74027 0.27652 0.0
C2395 C 0.77535 0.76724 0.28037 0.0
C2396 C 0.76885 0.72328 0.32437 0.0
C2397 C 0.7827 0.77144 0.30674 0.0
C2398 C 0.77085 0.70885 0.37535 0.0
C2399 C 0.75316 0.65089 0.36579 0.0
N2400 N 0.77932 0.74984 0.32762 0.0
N2401 N 0.75693 0.67184 0.34455 0.0
H2402 H 0.49426 0.56623 0.26575 0.0
H2403 H 0.53389 0.59095 0.41605 0.0
H2404 H 0.52971 0.49679 0.30151 0.0
H2405 H 0.5242 0.67444 0.36338 0.0
H2406 H 0.52753 0.55443 0.37709 0.0
H2407 H 0.50097 0.6049 0.3032 0.0
C2408 C 0.50363 0.55916 0.28114 0.0
C2409 C 0.51143 0.52796 0.28023 0.0
C2410 C 0.52672 0.58074 0.37408 0.0
C2411 C 0.51859 0.5719 0.32404 0.0
C2412 C 0.53021 0.6017 0.39641 0.0
C2413 C 0.52958 0.63602 0.39316 0.0
C2414 C 0.52216 0.59393 0.34824 0.0
C2415 C 0.52488 0.64824 0.36694 0.0
C2416 C 0.50732 0.58124 0.30273 0.0
C2417 C 0.52312 0.5202 0.30147 0.0
N2418 N 0.52124 0.62727 0.34559 0.0
N2419 N 0.52616 0.54173 0.32257 0.0
H2420 H 0.74625 0.67002 0.94065 0.0
H2421 H 0.79315 0.50533 0.99292 0.0
H2422 H 0.77192 0.60181 0.88609 0.0
H2423 H 0.75897 0.56171 0.04465 0.0
H2424 H 0.78765 0.54335 0.95469 0.0
H2425 H 0.75325 0.63433 0.97998 0.0
C2426 C 0.75354 0.64779 0.9369 0.0
C2427 C 0.75847 0.63907 0.90981 0.0
C2428 C 0.78139 0.5476 0.97441 0.0
C2429 C 0.76648 0.5978 0.95503 0.0
C2430 C 0.7845 0.52581 0.99627 0.0
C2431 C 0.77663 0.53041 1.02218 0.0
C2432 C 0.77033 0.57452 0.97831 0.0
C2433 C 0.76561 0.55754 0.02527 0.0
C2434 C 0.75743 0.62727 0.95942 0.0
C2435 C 0.76779 0.60969 0.90645 0.0
N2436 N 0.76281 0.57855 1.00366 0.0
N2437 N 0.77145 0.59024 0.92867 0.0
H2438 H 0.54015 0.62372 0.93927 0.0
H2439 H 0.49344 0.79003 0.98846 0.0
H2440 H 0.51786 0.69338 0.88238 0.0
H2441 H 0.52694 0.73418 0.04157 0.0
H2442 H 0.49976 0.75198 0.95041 0.0
H2443 H 0.53262 0.66023 0.97783 0.0
C2444 C 0.5335 0.64649 0.93482 0.0
C2445 C 0.52966 0.65528 0.9073 0.0
C2446 C 0.50569 0.74788 0.9704 0.0
C2447 C 0.52099 0.69751 0.95175 0.0
C2448 C 0.50211 0.76968 0.99217 0.0
C2449 C 0.50954 0.76524 1.01844 0.0
C2450 C 0.51673 0.72105 0.97477 0.0
C2451 C 0.5206 0.73823 1.02194 0.0
C2452 C 0.5293 0.66746 0.95693 0.0
C2453 C 0.52113 0.68538 0.9031 0.0
N2454 N 0.52381 0.71719 1.00046 0.0
N2455 N 0.51709 0.70526 0.92497 0.0
H2456 H 0.24224 0.31752 0.78239 0.0
H2457 H 0.28483 0.34215 0.63418 0.0
H2458 H 0.28034 0.25081 0.75005 0.0
H2459 H 0.27183 0.42608 0.6846 0.0
H2460 H 0.27847 0.30617 0.67345 0.0
H2461 H 0.24891 0.35598 0.74475 0.0
C2462 C 0.25218 0.31105 0.7677 0.0
C2463 C 0.26071 0.28063 0.76957 0.0
C2464 C 0.27694 0.33245 0.6759 0.0
C2465 C 0.26789 0.32423 0.72559 0.0
C2466 C 0.28042 0.35308 0.65338 0.0
C2467 C 0.27886 0.38738 0.65591 0.0
C2468 C 0.27145 0.34591 0.7012 0.0
C2469 C 0.27324 0.39987 0.68159 0.0
C2470 C 0.25585 0.33297 0.74602 0.0
C2471 C 0.27318 0.27359 0.7493 0.0
N2472 N 0.26963 0.37919 0.70313 0.0
N2473 N 0.27621 0.2949 0.72807 0.0
H2474 H 0.50581 0.54683 0.75004 0.0
H2475 H 0.51368 0.36799 0.68412 0.0
H2476 H 0.5436 0.4784 0.78054 0.0
H2477 H 0.5015 0.45341 0.63514 0.0
H2478 H 0.52069 0.40434 0.72337 0.0
H2479 H 0.49959 0.50913 0.71174 0.0
C2480 C 0.51279 0.52386 0.7488 0.0
C2481 C 0.52542 0.51616 0.76857 0.0
C2482 C 0.51657 0.41503 0.70395 0.0
C2483 C 0.51791 0.47218 0.72496 0.0
C2484 C 0.51256 0.39432 0.68152 0.0
C2485 C 0.50708 0.40755 0.65608 0.0
C2486 C 0.51459 0.44922 0.70128 0.0
C2487 C 0.50582 0.44197 0.65413 0.0
C2488 C 0.50919 0.50231 0.7269 0.0
C2489 C 0.53365 0.48544 0.76612 0.0
N2490 N 0.50932 0.46145 0.67641 0.0
N2491 N 0.52974 0.4646 0.74481 0.0
H2492 H 0.2736 0.36723 0.11291 0.0
H2493 H 0.28127 0.54703 0.04954 0.0
H2494 H 0.2843 0.45213 0.16347 0.0
H2495 H 0.24394 0.47897 1.01716 0.0
H2496 H 0.28714 0.5088 0.08755 0.0
H2497 H 0.26679 0.40408 0.07391 0.0
C2498 C 0.27442 0.39354 0.11591 0.0
C2499 C 0.27943 0.40648 0.14171 0.0
C2500 C 0.27772 0.50218 0.07203 0.0
C2501 C 0.27217 0.44871 0.09683 0.0
C2502 C 0.27432 0.52404 0.05031 0.0
C2503 C 0.26192 0.51659 0.03009 0.0
C2504 C 0.26904 0.47199 0.07336 0.0
C2505 C 0.25372 0.48583 0.03194 0.0
C2506 C 0.27054 0.41453 0.09363 0.0
C2507 C 0.28034 0.44089 0.14418 0.0
N2508 N 0.25745 0.46468 0.05309 0.0
N2509 N 0.27698 0.46066 0.12205 0.0
H2510 H 0.49951 0.25829 0.03873 0.0
H2511 H 0.51805 0.42594 0.11634 0.0
H2512 H 0.5474 0.30827 1.02397 0.0
H2513 H 0.4973 0.34263 0.16004 0.0
H2514 H 0.52472 0.38965 0.07678 0.0
H2515 H 0.49381 0.29569 0.07762 0.0
C2516 C 0.50891 0.27693 0.04376 0.0
C2517 C 0.52426 0.27929 0.02857 0.0
C2518 C 0.51878 0.37942 0.09513 0.0
C2519 C 0.51731 0.32348 0.07219 0.0
C2520 C 0.51497 0.40006 0.1177 0.0
C2521 C 0.50724 0.38732 0.14174 0.0
C2522 C 0.51426 0.34602 0.09616 0.0
C2523 C 0.50345 0.35354 0.14216 0.0
C2524 C 0.50556 0.29843 0.06582 0.0
C2525 C 0.53546 0.30529 0.03517 0.0
N2526 N 0.50676 0.33425 0.11967 0.0
N2527 N 0.53177 0.32638 0.0564 0.0
loop_
_geom_bond_atom_site_label_1
_geom_bond_atom_site_label_2
_geom_bond_distance
_geom_bond_site_symmetry_2
_ccdc_geom_bond_type
Co0 O3 1.970 . S
Co0 N17 1.989 . S
Co0 O25 1.967 . S
Co0 O32 1.920 . S
Co1 O4 1.966 . S
Co1 N10 2.022 . S
Co1 N18 1.993 . S
Co1 O26 1.941 . S
C2 O3 1.258 . S
C2 O4 1.263 . S
O3 Co0 1.970 . S
O3 C2 1.258 . S
O4 Co1 1.966 . S
O4 C2 1.263 . S
C5 O6 1.235 . S
C5 O32 1.289 . S
O6 C5 1.235 . S
C7 C9 1.400 . S
C7 N10 1.351 . S
C7 C12 1.501 . S
C8 C9 1.387 . S
C8 N11 1.341 . S
C9 C7 1.400 . S
C9 C8 1.387 . S
N10 Co1 2.022 . S
N10 C7 1.351 . S
N10 N11 1.365 . S
N11 C8 1.341 . S
N11 N10 1.365 . S
N11 H31 0.862 . S
C12 C7 1.501 . S
C12 H13 0.961 . S
C12 H14 0.961 . S
C12 H15 0.960 . S
H13 C12 0.961 . S
H14 C12 0.961 . S
H15 C12 0.960 . S
C16 N17 1.342 . S
C16 C20 1.401 . S
C16 C21 1.499 . S
N17 Co0 1.989 . S
N17 C16 1.342 . S
N17 N18 1.388 . S
N18 Co1 1.993 . S
N18 N17 1.388 . S
N18 C19 1.346 . S
C19 N18 1.346 . S
C19 C20 1.396 . S
C19 C29 1.510 . S
C20 C16 1.401 . S
C20 C19 1.396 . S
C21 C16 1.499 . S
C21 H22 0.959 . S
C21 H23 0.960 . S
C21 H24 0.961 . S
H22 C21 0.959 . S
H23 C21 0.960 . S
H24 C21 0.961 . S
O25 Co0 1.967 . S
O25 C33 1.258 . S
O26 Co1 1.941 . S
O26 C33 1.266 . S
H27 C29 0.959 . S
H28 C29 0.961 . S
C29 C19 1.510 . S
C29 H27 0.959 . S
C29 H28 0.961 . S
C29 H30 0.960 . S
H30 C29 0.960 . S
H31 N11 0.862 . S
O32 Co0 1.920 . S
O32 C5 1.289 . S
C33 O25 1.258 . S
C33 O26 1.266 . S
Co34 O37 1.970 . S
Co34 N51 1.989 1_565 S
Co34 O59 1.967 . S
Co34 O66 1.920 1_565 S
Co35 O38 1.966 . S
Co35 N44 2.022 . S
Co35 N52 1.993 . S
Co35 O60 1.941 . S
C36 O37 1.258 . S
C36 O38 1.263 . S
O37 Co34 1.970 . S
O37 C36 1.258 . S
O38 Co35 1.966 . S
O38 C36 1.263 . S
C39 O40 1.235 . S
C39 O66 1.289 . S
O40 C39 1.235 . S
C41 C43 1.400 . S
C41 N44 1.351 . S
C41 C46 1.501 . S
C42 C43 1.387 . S
C42 N45 1.341 . S
C43 C41 1.400 . S
C43 C42 1.387 . S
N44 Co35 2.022 . S
N44 C41 1.351 . S
N44 N45 1.365 . S
N45 C42 1.341 . S
N45 N44 1.365 . S
N45 H65 0.862 . S
C46 C41 1.501 . S
C46 H47 0.961 . S
C46 H48 0.961 . S
C46 H49 0.960 . S
H47 C46 0.961 . S
H48 C46 0.961 . S
H49 C46 0.960 . S
C50 N51 1.342 . S
C50 C54 1.401 . S
C50 C55 1.499 . S
N51 Co34 1.989 1_545 S
N51 C50 1.342 . S
N51 N52 1.388 1_545 S
N52 Co35 1.993 . S
N52 N51 1.388 1_565 S
N52 C53 1.346 . S
C53 N52 1.346 . S
C53 C54 1.396 1_565 S
C53 C63 1.510 . S
C54 C50 1.401 . S
C54 C53 1.396 1_545 S
C55 C50 1.499 . S
C55 H56 0.959 . S
C55 H57 0.960 . S
C55 H58 0.961 . S
H56 C55 0.959 . S
H57 C55 0.960 . S
H58 C55 0.961 . S
O59 Co34 1.967 . S
O59 C67 1.258 . S
O60 Co35 1.941 . S
O60 C67 1.266 . S
H61 C63 0.959 . S
H62 C63 0.961 . S
C63 C53 1.510 . S
C63 H61 0.959 . S
C63 H62 0.961 . S
C63 H64 0.960 . S
H64 C63 0.960 . S
H65 N45 0.862 . S
O66 Co34 1.920 1_545 S
O66 C39 1.289 . S
C67 O59 1.258 . S
C67 O60 1.266 . S
Co68 O71 1.970 . S
Co68 N85 1.989 1_565 S
Co68 O93 1.967 . S
Co68 O100 1.920 1_565 S
Co69 O72 1.966 . S
Co69 N78 2.022 1_554 S
Co69 N86 1.993 . S
Co69 O94 1.941 . S
C70 O71 1.258 . S
C70 O72 1.263 . S
O71 Co68 1.970 . S
O71 C70 1.258 . S
O72 Co69 1.966 . S
O72 C70 1.263 . S
C73 O74 1.235 . S
C73 O100 1.289 . S
O74 C73 1.235 . S
C75 C77 1.400 . S
C75 N78 1.351 . S
C75 C80 1.501 . S
C76 C77 1.387 . S
C76 N79 1.341 . S
C77 C75 1.400 . S
C77 C76 1.387 . S
N78 Co69 2.022 1_556 S
N78 C75 1.351 . S
N78 N79 1.365 . S
N79 C76 1.341 . S
N79 N78 1.365 . S
N79 H99 0.862 . S
C80 C75 1.501 . S
C80 H81 0.961 . S
C80 H82 0.961 . S
C80 H83 0.960 . S
H81 C80 0.961 . S
H82 C80 0.961 . S
H83 C80 0.960 . S
C84 N85 1.342 . S
C84 C88 1.401 1_554 S
C84 C89 1.499 . S
N85 Co68 1.989 1_545 S
N85 C84 1.342 . S
N85 N86 1.388 1_545 S
N86 Co69 1.993 . S
N86 N85 1.388 1_565 S
N86 C87 1.346 1_554 S
C87 N86 1.346 1_556 S
C87 C88 1.396 1_565 S
C87 C97 1.510 . S
C88 C84 1.401 1_556 S
C88 C87 1.396 1_545 S
C89 C84 1.499 . S
C89 H90 0.959 . S
C89 H91 0.960 . S
C89 H92 0.961 . S
H90 C89 0.959 . S
H91 C89 0.960 . S
H92 C89 0.961 . S
O93 Co68 1.967 . S
O93 C101 1.258 . S
O94 Co69 1.941 . S
O94 C101 1.266 . S
H95 C97 0.959 . S
H96 C97 0.961 . S
C97 C87 1.510 . S
C97 H95 0.959 . S
C97 H96 0.961 . S
C97 H98 0.960 . S
H98 C97 0.960 . S
H99 N79 0.862 . S
O100 Co68 1.920 1_545 S
O100 C73 1.289 . S
C101 O93 1.258 . S
C101 O94 1.266 . S
Co102 O105 1.970 . S
Co102 N119 1.989 . S
Co102 O127 1.967 . S
Co102 O134 1.920 . S
Co103 O106 1.966 . S
Co103 N112 2.022 1_554 S
Co103 N120 1.993 . S
Co103 O128 1.941 . S
C104 O105 1.258 . S
C104 O106 1.263 . S
O105 Co102 1.970 . S
O105 C104 1.258 . S
O106 Co103 1.966 . S
O106 C104 1.263 . S
C107 O108 1.235 . S
C107 O134 1.289 . S
O108 C107 1.235 . S
C109 C111 1.400 . S
C109 N112 1.351 . S
C109 C114 1.501 . S
C110 C111 1.387 . S
C110 N113 1.341 . S
C111 C109 1.400 . S
C111 C110 1.387 . S
N112 Co103 2.022 1_556 S
N112 C109 1.351 . S
N112 N113 1.365 . S
N113 C110 1.341 . S
N113 N112 1.365 . S
N113 H133 0.862 . S
C114 C109 1.501 . S
C114 H115 0.961 . S
C114 H116 0.961 . S
C114 H117 0.960 . S
H115 C114 0.961 . S
H116 C114 0.961 . S
H117 C114 0.960 . S
C118 N119 1.342 . S
C118 C122 1.401 1_554 S
C118 C123 1.499 . S
N119 Co102 1.989 . S
N119 C118 1.342 . S
N119 N120 1.388 . S
N120 Co103 1.993 . S
N120 N119 1.388 . S
N120 C121 1.346 1_554 S
C121 N120 1.346 1_556 S
C121 C122 1.396 . S
C121 C131 1.510 . S
C122 C118 1.401 1_556 S
C122 C121 1.396 . S
C123 C118 1.499 . S
C123 H124 0.959 . S
C123 H125 0.960 . S
C123 H126 0.961 . S
H124 C123 0.959 . S
H125 C123 0.960 . S
H126 C123 0.961 . S
O127 Co102 1.967 . S
O127 C135 1.258 . S
O128 Co103 1.941 . S
O128 C135 1.266 . S
H129 C131 0.959 . S
H130 C131 0.961 . S
C131 C121 1.510 . S
C131 H129 0.959 . S
C131 H130 0.961 . S
C131 H132 0.960 . S
H132 C131 0.960 . S
H133 N113 0.862 . S
O134 Co102 1.920 . S
O134 C107 1.289 . S
C135 O127 1.258 . S
C135 O128 1.266 . S
Co136 O139 1.970 . S
Co136 N153 1.989 . S
Co136 O161 1.967 . S
Co136 O168 1.920 . S
Co137 O140 1.966 . S
Co137 N146 2.022 . S
Co137 N154 1.993 . S
Co137 O162 1.941 . S
C138 O139 1.258 . S
C138 O140 1.263 . S
O139 Co136 1.970 . S
O139 C138 1.258 . S
O140 Co137 1.966 . S
O140 C138 1.263 . S
C141 O142 1.235 . S
C141 O168 1.289 . S
O142 C141 1.235 . S
C143 C145 1.400 . S
C143 N146 1.351 . S
C143 C148 1.501 . S
C144 C145 1.387 . S
C144 N147 1.341 . S
C145 C143 1.400 . S
C145 C144 1.387 . S
N146 Co137 2.022 . S
N146 C143 1.351 . S
N146 N147 1.365 . S
N147 C144 1.341 . S
N147 N146 1.365 . S
N147 H167 0.862 . S
C148 C143 1.501 . S
C148 H149 0.961 . S
C148 H150 0.961 . S
C148 H151 0.960 . S
H149 C148 0.961 . S
H150 C148 0.961 . S
H151 C148 0.960 . S
C152 N153 1.342 . S
C152 C156 1.401 . S
C152 C157 1.499 . S
N153 Co136 1.989 . S
N153 C152 1.342 . S
N153 N154 1.388 . S
N154 Co137 1.993 . S
N154 N153 1.388 . S
N154 C155 1.346 . S
C155 N154 1.346 . S
C155 C156 1.396 . S
C155 C165 1.510 . S
C156 C152 1.401 . S
C156 C155 1.396 . S
C157 C152 1.499 . S
C157 H158 0.959 . S
C157 H159 0.960 . S
C157 H160 0.961 . S
H158 C157 0.959 . S
H159 C157 0.960 . S
H160 C157 0.961 . S
O161 Co136 1.967 . S
O161 C169 1.258 . S
O162 Co137 1.941 . S
O162 C169 1.266 . S
H163 C165 0.959 . S
H164 C165 0.961 . S
C165 C155 1.510 . S
C165 H163 0.959 . S
C165 H164 0.961 . S
C165 H166 0.960 . S
H166 C165 0.960 . S
H167 N147 0.862 . S
O168 Co136 1.920 . S
O168 C141 1.289 . S
C169 O161 1.258 . S
C169 O162 1.266 . S
Co170 O173 1.970 . S
Co170 N187 1.989 1_545 S
Co170 O195 1.967 . S
Co170 O202 1.920 1_545 S
Co171 O174 1.966 . S
Co171 N180 2.022 . S
Co171 N188 1.993 . S
Co171 O196 1.941 . S
C172 O173 1.258 . S
C172 O174 1.263 . S
O173 Co170 1.970 . S
O173 C172 1.258 . S
O174 Co171 1.966 . S
O174 C172 1.263 . S
C175 O176 1.235 . S
C175 O202 1.289 . S
O176 C175 1.235 . S
C177 C179 1.400 . S
C177 N180 1.351 . S
C177 C182 1.501 . S
C178 C179 1.387 . S
C178 N181 1.341 . S
C179 C177 1.400 . S
C179 C178 1.387 . S
N180 Co171 2.022 . S
N180 C177 1.351 . S
N180 N181 1.365 . S
N181 C178 1.341 . S
N181 N180 1.365 . S
N181 H201 0.862 . S
C182 C177 1.501 . S
C182 H183 0.961 . S
C182 H184 0.961 . S
C182 H185 0.960 . S
H183 C182 0.961 . S
H184 C182 0.961 . S
H185 C182 0.960 . S
C186 N187 1.342 . S
C186 C190 1.401 . S
C186 C191 1.499 . S
N187 Co170 1.989 1_565 S
N187 C186 1.342 . S
N187 N188 1.388 1_565 S
N188 Co171 1.993 . S
N188 N187 1.388 1_545 S
N188 C189 1.346 . S
C189 N188 1.346 . S
C189 C190 1.396 1_545 S
C189 C199 1.510 . S
C190 C186 1.401 . S
C190 C189 1.396 1_565 S
C191 C186 1.499 . S
C191 H192 0.959 . S
C191 H193 0.960 . S
C191 H194 0.961 . S
H192 C191 0.959 . S
H193 C191 0.960 . S
H194 C191 0.961 . S
O195 Co170 1.967 . S
O195 C203 1.258 . S
O196 Co171 1.941 . S
O196 C203 1.266 . S
H197 C199 0.959 . S
H198 C199 0.961 . S
C199 C189 1.510 . S
C199 H197 0.959 . S
C199 H198 0.961 . S
C199 H200 0.960 . S
H200 C199 0.960 . S
H201 N181 0.862 . S
O202 Co170 1.920 1_565 S
O202 C175 1.289 . S
C203 O195 1.258 . S
C203 O196 1.266 . S
Co204 O207 1.970 . S
Co204 N221 1.989 1_545 S
Co204 O229 1.967 . S
Co204 O236 1.920 1_545 S
Co205 O208 1.966 . S
Co205 N214 2.022 1_556 S
Co205 N222 1.993 . S
Co205 O230 1.941 . S
C206 O207 1.258 . S
C206 O208 1.263 . S
O207 Co204 1.970 . S
O207 C206 1.258 . S
O208 Co205 1.966 . S
O208 C206 1.263 . S
C209 O210 1.235 . S
C209 O236 1.289 . S
O210 C209 1.235 . S
C211 C213 1.400 . S
C211 N214 1.351 . S
C211 C216 1.501 . S
C212 C213 1.387 . S
C212 N215 1.341 . S
C213 C211 1.400 . S
C213 C212 1.387 . S
N214 Co205 2.022 1_554 S
N214 C211 1.351 . S
N214 N215 1.365 . S
N215 C212 1.341 . S
N215 N214 1.365 . S
N215 H235 0.862 . S
C216 C211 1.501 . S
C216 H217 0.961 . S
C216 H218 0.961 . S
C216 H219 0.960 . S
H217 C216 0.961 . S
H218 C216 0.961 . S
H219 C216 0.960 . S
C220 N221 1.342 . S
C220 C224 1.401 1_556 S
C220 C225 1.499 . S
N221 Co204 1.989 1_565 S
N221 C220 1.342 . S
N221 N222 1.388 1_565 S
N222 Co205 1.993 . S
N222 N221 1.388 1_545 S
N222 C223 1.346 1_556 S
C223 N222 1.346 1_554 S
C223 C224 1.396 1_545 S
C223 C233 1.510 . S
C224 C220 1.401 1_554 S
C224 C223 1.396 1_565 S
C225 C220 1.499 . S
C225 H226 0.959 . S
C225 H227 0.960 . S
C225 H228 0.961 . S
H226 C225 0.959 . S
H227 C225 0.960 . S
H228 C225 0.961 . S
O229 Co204 1.967 . S
O229 C237 1.258 . S
O230 Co205 1.941 . S
O230 C237 1.266 . S
H231 C233 0.959 . S
H232 C233 0.961 . S
C233 C223 1.510 . S
C233 H231 0.959 . S
C233 H232 0.961 . S
C233 H234 0.960 . S
H234 C233 0.960 . S
H235 N215 0.862 . S
O236 Co204 1.920 1_565 S
O236 C209 1.289 . S
C237 O229 1.258 . S
C237 O230 1.266 . S
Co238 O241 1.970 . S
Co238 N255 1.989 . S
Co238 O263 1.967 . S
Co238 O270 1.920 . S
Co239 O242 1.966 . S
Co239 N248 2.022 1_556 S
Co239 N256 1.993 . S
Co239 O264 1.941 . S
C240 O241 1.258 . S
C240 O242 1.263 . S
O241 Co238 1.970 . S
O241 C240 1.258 . S
O242 Co239 1.966 . S
O242 C240 1.263 . S
C243 O244 1.235 . S
C243 O270 1.289 . S
O244 C243 1.235 . S
C245 C247 1.400 . S
C245 N248 1.351 . S
C245 C250 1.501 . S
C246 C247 1.387 . S
C246 N249 1.341 . S
C247 C245 1.400 . S
C247 C246 1.387 . S
N248 Co239 2.022 1_554 S
N248 C245 1.351 . S
N248 N249 1.365 . S
N249 C246 1.341 . S
N249 N248 1.365 . S
N249 H269 0.862 . S
C250 C245 1.501 . S
C250 H251 0.961 . S
C250 H252 0.961 . S
C250 H253 0.960 . S
H251 C250 0.961 . S
H252 C250 0.961 . S
H253 C250 0.960 . S
C254 N255 1.342 . S
C254 C258 1.401 1_556 S
C254 C259 1.499 . S
N255 Co238 1.989 . S
N255 C254 1.342 . S
N255 N256 1.388 . S
N256 Co239 1.993 . S
N256 N255 1.388 . S
N256 C257 1.346 1_556 S
C257 N256 1.346 1_554 S
C257 C258 1.396 . S
C257 C267 1.510 . S
C258 C254 1.401 1_554 S
C258 C257 1.396 . S
C259 C254 1.499 . S
C259 H260 0.959 . S
C259 H261 0.960 . S
C259 H262 0.961 . S
H260 C259 0.959 . S
H261 C259 0.960 . S
H262 C259 0.961 . S
O263 Co238 1.967 . S
O263 C271 1.258 . S
O264 Co239 1.941 . S
O264 C271 1.266 . S
H265 C267 0.959 . S
H266 C267 0.961 . S
C267 C257 1.510 . S
C267 H265 0.959 . S
C267 H266 0.961 . S
C267 H268 0.960 . S
H268 C267 0.960 . S
H269 N249 0.862 . S
O270 Co238 1.920 . S
O270 C243 1.289 . S
C271 O263 1.258 . S
C271 O264 1.266 . S
Co272 O275 1.970 . S
Co272 N289 1.989 . S
Co272 O297 1.967 . S
Co272 O304 1.920 . S
Co273 O276 1.966 . S
Co273 N282 2.022 . S
Co273 N290 1.993 . S
Co273 O298 1.941 . S
C274 O275 1.258 . S
C274 O276 1.263 . S
O275 Co272 1.970 . S
O275 C274 1.258 . S
O276 Co273 1.966 . S
O276 C274 1.263 . S
C277 O278 1.235 . S
C277 O304 1.289 . S
O278 C277 1.235 . S
C279 C281 1.400 . S
C279 N282 1.351 . S
C279 C284 1.501 . S
C280 C281 1.387 . S
C280 N283 1.341 . S
C281 C279 1.400 . S
C281 C280 1.387 . S
N282 Co273 2.022 . S
N282 C279 1.351 . S
N282 N283 1.365 . S
N283 C280 1.341 . S
N283 N282 1.365 . S
N283 H303 0.862 . S
C284 C279 1.501 . S
C284 H285 0.961 . S
C284 H286 0.961 . S
C284 H287 0.960 . S
H285 C284 0.961 . S
H286 C284 0.961 . S
H287 C284 0.960 . S
C288 N289 1.342 . S
C288 C292 1.401 . S
C288 C293 1.499 . S
N289 Co272 1.989 . S
N289 C288 1.342 . S
N289 N290 1.388 . S
N290 Co273 1.993 . S
N290 N289 1.388 . S
N290 C291 1.346 . S
C291 N290 1.346 . S
C291 C292 1.396 . S
C291 C301 1.510 . S
C292 C288 1.401 . S
C292 C291 1.396 . S
C293 C288 1.499 . S
C293 H294 0.959 . S
C293 H295 0.960 . S
C293 H296 0.961 . S
H294 C293 0.959 . S
H295 C293 0.960 . S
H296 C293 0.961 . S
O297 Co272 1.967 . S
O297 C305 1.258 . S
O298 Co273 1.941 . S
O298 C305 1.266 . S
H299 C301 0.959 . S
H300 C301 0.961 . S
C301 C291 1.510 . S
C301 H299 0.959 . S
C301 H300 0.961 . S
C301 H302 0.960 . S
H302 C301 0.960 . S
H303 N283 0.862 . S
O304 Co272 1.920 . S
O304 C277 1.289 . S
C305 O297 1.258 . S
C305 O298 1.266 . S
Co306 O309 1.970 . S
Co306 N323 1.989 . S
Co306 O331 1.967 . S
Co306 O338 1.920 . S
Co307 O310 1.966 . S
Co307 N316 2.022 . S
Co307 N324 1.993 . S
Co307 O332 1.941 . S
C308 O309 1.258 . S
C308 O310 1.263 . S
O309 Co306 1.970 . S
O309 C308 1.258 . S
O310 Co307 1.966 . S
O310 C308 1.263 . S
C311 O312 1.235 . S
C311 O338 1.289 . S
O312 C311 1.235 . S
C313 C315 1.400 . S
C313 N316 1.351 . S
C313 C318 1.501 . S
C314 C315 1.387 . S
C314 N317 1.341 . S
C315 C313 1.400 . S
C315 C314 1.387 . S
N316 Co307 2.022 . S
N316 C313 1.351 . S
N316 N317 1.365 . S
N317 C314 1.341 . S
N317 N316 1.365 . S
N317 H337 0.862 . S
C318 C313 1.501 . S
C318 H319 0.961 . S
C318 H320 0.961 . S
C318 H321 0.960 . S
H319 C318 0.961 . S
H320 C318 0.961 . S
H321 C318 0.960 . S
C322 N323 1.342 . S
C322 C326 1.401 . S
C322 C327 1.499 . S
N323 Co306 1.989 . S
N323 C322 1.342 . S
N323 N324 1.388 . S
N324 Co307 1.993 . S
N324 N323 1.388 . S
N324 C325 1.346 . S
C325 N324 1.346 . S
C325 C326 1.396 . S
C325 C335 1.510 . S
C326 C322 1.401 . S
C326 C325 1.396 . S
C327 C322 1.499 . S
C327 H328 0.959 . S
C327 H329 0.960 . S
C327 H330 0.961 . S
H328 C327 0.959 . S
H329 C327 0.960 . S
H330 C327 0.961 . S
O331 Co306 1.967 . S
O331 C339 1.258 . S
O332 Co307 1.941 . S
O332 C339 1.266 . S
H333 C335 0.959 . S
H334 C335 0.961 . S
C335 C325 1.510 . S
C335 H333 0.959 . S
C335 H334 0.961 . S
C335 H336 0.960 . S
H336 C335 0.960 . S
H337 N317 0.862 . S
O338 Co306 1.920 . S
O338 C311 1.289 . S
C339 O331 1.258 . S
C339 O332 1.266 . S
Co340 O343 1.970 . S
Co340 N357 1.989 . S
Co340 O365 1.967 . S
Co340 O372 1.920 . S
Co341 O344 1.966 . S
Co341 N350 2.022 . S
Co341 N358 1.993 . S
Co341 O366 1.941 . S
C342 O343 1.258 . S
C342 O344 1.263 . S
O343 Co340 1.970 . S
O343 C342 1.258 . S
O344 Co341 1.966 . S
O344 C342 1.263 . S
C345 O346 1.235 . S
C345 O372 1.289 . S
O346 C345 1.235 . S
C347 C349 1.400 . S
C347 N350 1.351 . S
C347 C352 1.501 . S
C348 C349 1.387 . S
C348 N351 1.341 . S
C349 C347 1.400 . S
C349 C348 1.387 . S
N350 Co341 2.022 . S
N350 C347 1.351 . S
N350 N351 1.365 . S
N351 C348 1.341 . S
N351 N350 1.365 . S
N351 H371 0.862 . S
C352 C347 1.501 . S
C352 H353 0.961 . S
C352 H354 0.961 . S
C352 H355 0.960 . S
H353 C352 0.961 . S
H354 C352 0.961 . S
H355 C352 0.960 . S
C356 N357 1.342 . S
C356 C360 1.401 . S
C356 C361 1.499 . S
N357 Co340 1.989 . S
N357 C356 1.342 . S
N357 N358 1.388 . S
N358 Co341 1.993 . S
N358 N357 1.388 . S
N358 C359 1.346 . S
C359 N358 1.346 . S
C359 C360 1.396 . S
C359 C369 1.510 . S
C360 C356 1.401 . S
C360 C359 1.396 . S
C361 C356 1.499 . S
C361 H362 0.959 . S
C361 H363 0.960 . S
C361 H364 0.961 . S
H362 C361 0.959 . S
H363 C361 0.960 . S
H364 C361 0.961 . S
O365 Co340 1.967 . S
O365 C373 1.258 . S
O366 Co341 1.941 . S
O366 C373 1.266 . S
H367 C369 0.959 . S
H368 C369 0.961 . S
C369 C359 1.510 . S
C369 H367 0.959 . S
C369 H368 0.961 . S
C369 H370 0.960 . S
H370 C369 0.960 . S
H371 N351 0.862 . S
O372 Co340 1.920 . S
O372 C345 1.289 . S
C373 O365 1.258 . S
C373 O366 1.266 . S
Co374 O377 1.970 . S
Co374 N391 1.989 . S
Co374 O399 1.967 . S
Co374 O406 1.920 . S
Co375 O378 1.966 . S
Co375 N384 2.022 . S
Co375 N392 1.993 . S
Co375 O400 1.941 . S
C376 O377 1.258 . S
C376 O378 1.263 . S
O377 Co374 1.970 . S
O377 C376 1.258 . S
O378 Co375 1.966 . S
O378 C376 1.263 . S
C379 O380 1.235 . S
C379 O406 1.289 . S
O380 C379 1.235 . S
C381 C383 1.400 . S
C381 N384 1.351 . S
C381 C386 1.501 . S
C382 C383 1.387 . S
C382 N385 1.341 . S
C383 C381 1.400 . S
C383 C382 1.387 . S
N384 Co375 2.022 . S
N384 C381 1.351 . S
N384 N385 1.365 . S
N385 C382 1.341 . S
N385 N384 1.365 . S
N385 H405 0.862 . S
C386 C381 1.501 . S
C386 H387 0.961 . S
C386 H388 0.961 . S
C386 H389 0.960 . S
H387 C386 0.961 . S
H388 C386 0.961 . S
H389 C386 0.960 . S
C390 N391 1.342 . S
C390 C394 1.401 . S
C390 C395 1.499 . S
N391 Co374 1.989 . S
N391 C390 1.342 . S
N391 N392 1.388 . S
N392 Co375 1.993 . S
N392 N391 1.388 . S
N392 C393 1.346 . S
C393 N392 1.346 . S
C393 C394 1.396 . S
C393 C403 1.510 . S
C394 C390 1.401 . S
C394 C393 1.396 . S
C395 C390 1.499 . S
C395 H396 0.959 . S
C395 H397 0.960 . S
C395 H398 0.961 . S
H396 C395 0.959 . S
H397 C395 0.960 . S
H398 C395 0.961 . S
O399 Co374 1.967 . S
O399 C407 1.258 . S
O400 Co375 1.941 . S
O400 C407 1.266 . S
H401 C403 0.959 . S
H402 C403 0.961 . S
C403 C393 1.510 . S
C403 H401 0.959 . S
C403 H402 0.961 . S
C403 H404 0.960 . S
H404 C403 0.960 . S
H405 N385 0.862 . S
O406 Co374 1.920 . S
O406 C379 1.289 . S
C407 O399 1.258 . S
C407 O400 1.266 . S
Co408 O411 1.970 . S
Co408 N425 1.989 . S
Co408 O433 1.967 . S
Co408 O440 1.920 . S
Co409 O412 1.966 . S
Co409 N418 2.022 . S
Co409 N426 1.993 . S
Co409 O434 1.941 . S
C410 O411 1.258 . S
C410 O412 1.263 . S
O411 Co408 1.970 . S
O411 C410 1.258 . S
O412 Co409 1.966 . S
O412 C410 1.263 . S
C413 O414 1.235 . S
C413 O440 1.289 . S
O414 C413 1.235 . S
C415 C417 1.400 . S
C415 N418 1.351 . S
C415 C420 1.501 . S
C416 C417 1.387 . S
C416 N419 1.341 . S
C417 C415 1.400 . S
C417 C416 1.387 . S
N418 Co409 2.022 . S
N418 C415 1.351 . S
N418 N419 1.365 . S
N419 C416 1.341 . S
N419 N418 1.365 . S
N419 H439 0.862 . S
C420 C415 1.501 . S
C420 H421 0.961 . S
C420 H422 0.961 . S
C420 H423 0.960 . S
H421 C420 0.961 . S
H422 C420 0.961 . S
H423 C420 0.960 . S
C424 N425 1.342 . S
C424 C428 1.401 . S
C424 C429 1.499 . S
N425 Co408 1.989 . S
N425 C424 1.342 . S
N425 N426 1.388 . S
N426 Co409 1.993 . S
N426 N425 1.388 . S
N426 C427 1.346 . S
C427 N426 1.346 . S
C427 C428 1.396 . S
C427 C437 1.510 . S
C428 C424 1.401 . S
C428 C427 1.396 . S
C429 C424 1.499 . S
C429 H430 0.959 . S
C429 H431 0.960 . S
C429 H432 0.961 . S
H430 C429 0.959 . S
H431 C429 0.960 . S
H432 C429 0.961 . S
O433 Co408 1.967 . S
O433 C441 1.258 . S
O434 Co409 1.941 . S
O434 C441 1.266 . S
H435 C437 0.959 . S
H436 C437 0.961 . S
C437 C427 1.510 . S
C437 H435 0.959 . S
C437 H436 0.961 . S
C437 H438 0.960 . S
H438 C437 0.960 . S
H439 N419 0.862 . S
O440 Co408 1.920 . S
O440 C413 1.289 . S
C441 O433 1.258 . S
C441 O434 1.266 . S
Co442 O445 1.970 . S
Co442 N459 1.989 . S
Co442 O467 1.967 . S
Co442 O474 1.920 . S
Co443 O446 1.966 . S
Co443 N452 2.022 . S
Co443 N460 1.993 . S
Co443 O468 1.941 . S
C444 O445 1.258 . S
C444 O446 1.263 . S
O445 Co442 1.970 . S
O445 C444 1.258 . S
O446 Co443 1.966 . S
O446 C444 1.263 . S
C447 O448 1.235 . S
C447 O474 1.289 . S
O448 C447 1.235 . S
C449 C451 1.400 . S
C449 N452 1.351 . S
C449 C454 1.501 . S
C450 C451 1.387 . S
C450 N453 1.341 . S
C451 C449 1.400 . S
C451 C450 1.387 . S
N452 Co443 2.022 . S
N452 C449 1.351 . S
N452 N453 1.365 . S
N453 C450 1.341 . S
N453 N452 1.365 . S
N453 H473 0.862 . S
C454 C449 1.501 . S
C454 H455 0.961 . S
C454 H456 0.961 . S
C454 H457 0.960 . S
H455 C454 0.961 . S
H456 C454 0.961 . S
H457 C454 0.960 . S
C458 N459 1.342 . S
C458 C462 1.401 . S
C458 C463 1.499 . S
N459 Co442 1.989 . S
N459 C458 1.342 . S
N459 N460 1.388 . S
N460 Co443 1.993 . S
N460 N459 1.388 . S
N460 C461 1.346 . S
C461 N460 1.346 . S
C461 C462 1.396 . S
C461 C471 1.510 . S
C462 C458 1.401 . S
C462 C461 1.396 . S
C463 C458 1.499 . S
C463 H464 0.959 . S
C463 H465 0.960 . S
C463 H466 0.961 . S
H464 C463 0.959 . S
H465 C463 0.960 . S
H466 C463 0.961 . S
O467 Co442 1.967 . S
O467 C475 1.258 . S
O468 Co443 1.941 . S
O468 C475 1.266 . S
H469 C471 0.959 . S
H470 C471 0.961 . S
C471 C461 1.510 . S
C471 H469 0.959 . S
C471 H470 0.961 . S
C471 H472 0.960 . S
H472 C471 0.960 . S
H473 N453 0.862 . S
O474 Co442 1.920 . S
O474 C447 1.289 . S
C475 O467 1.258 . S
C475 O468 1.266 . S
Co476 O479 1.970 . S
Co476 N493 1.989 . S
Co476 O501 1.967 . S
Co476 O508 1.920 . S
Co477 O480 1.966 . S
Co477 N486 2.022 . S
Co477 N494 1.993 . S
Co477 O502 1.941 . S
C478 O479 1.258 . S
C478 O480 1.263 . S
O479 Co476 1.970 . S
O479 C478 1.258 . S
O480 Co477 1.966 . S
O480 C478 1.263 . S
C481 O482 1.235 . S
C481 O508 1.289 . S
O482 C481 1.235 . S
C483 C485 1.400 . S
C483 N486 1.351 . S
C483 C488 1.501 . S
C484 C485 1.387 . S
C484 N487 1.341 . S
C485 C483 1.400 . S
C485 C484 1.387 . S
N486 Co477 2.022 . S
N486 C483 1.351 . S
N486 N487 1.365 . S
N487 C484 1.341 . S
N487 N486 1.365 . S
N487 H507 0.862 . S
C488 C483 1.501 . S
C488 H489 0.961 . S
C488 H490 0.961 . S
C488 H491 0.960 . S
H489 C488 0.961 . S
H490 C488 0.961 . S
H491 C488 0.960 . S
C492 N493 1.342 . S
C492 C496 1.401 . S
C492 C497 1.499 . S
N493 Co476 1.989 . S
N493 C492 1.342 . S
N493 N494 1.388 . S
N494 Co477 1.993 . S
N494 N493 1.388 . S
N494 C495 1.346 . S
C495 N494 1.346 . S
C495 C496 1.396 . S
C495 C505 1.510 . S
C496 C492 1.401 . S
C496 C495 1.396 . S
C497 C492 1.499 . S
C497 H498 0.959 . S
C497 H499 0.960 . S
C497 H500 0.961 . S
H498 C497 0.959 . S
H499 C497 0.960 . S
H500 C497 0.961 . S
O501 Co476 1.967 . S
O501 C509 1.258 . S
O502 Co477 1.941 . S
O502 C509 1.266 . S
H503 C505 0.959 . S
H504 C505 0.961 . S
C505 C495 1.510 . S
C505 H503 0.959 . S
C505 H504 0.961 . S
C505 H506 0.960 . S
H506 C505 0.960 . S
H507 N487 0.862 . S
O508 Co476 1.920 . S
O508 C481 1.289 . S
C509 O501 1.258 . S
C509 O502 1.266 . S
Co510 O513 1.970 . S
Co510 N527 1.989 . S
Co510 O535 1.967 . S
Co510 O542 1.920 . S
Co511 O514 1.966 . S
Co511 N520 2.022 . S
Co511 N528 1.993 . S
Co511 O536 1.941 . S
C512 O513 1.258 . S
C512 O514 1.263 . S
O513 Co510 1.970 . S
O513 C512 1.258 . S
O514 Co511 1.966 . S
O514 C512 1.263 . S
C515 O516 1.235 . S
C515 O542 1.289 . S
O516 C515 1.235 . S
C517 C519 1.400 . S
C517 N520 1.351 . S
C517 C522 1.501 . S
C518 C519 1.387 . S
C518 N521 1.341 . S
C519 C517 1.400 . S
C519 C518 1.387 . S
N520 Co511 2.022 . S
N520 C517 1.351 . S
N520 N521 1.365 . S
N521 C518 1.341 . S
N521 N520 1.365 . S
N521 H541 0.862 . S
C522 C517 1.501 . S
C522 H523 0.961 . S
C522 H524 0.961 . S
C522 H525 0.960 . S
H523 C522 0.961 . S
H524 C522 0.961 . S
H525 C522 0.960 . S
C526 N527 1.342 . S
C526 C530 1.401 . S
C526 C531 1.499 . S
N527 Co510 1.989 . S
N527 C526 1.342 . S
N527 N528 1.388 . S
N528 Co511 1.993 . S
N528 N527 1.388 . S
N528 C529 1.346 . S
C529 N528 1.346 . S
C529 C530 1.396 . S
C529 C539 1.510 . S
C530 C526 1.401 . S
C530 C529 1.396 . S
C531 C526 1.499 . S
C531 H532 0.959 . S
C531 H533 0.960 . S
C531 H534 0.961 . S
H532 C531 0.959 . S
H533 C531 0.960 . S
H534 C531 0.961 . S
O535 Co510 1.967 . S
O535 C543 1.258 . S
O536 Co511 1.941 . S
O536 C543 1.266 . S
H537 C539 0.959 . S
H538 C539 0.961 . S
C539 C529 1.510 . S
C539 H537 0.959 . S
C539 H538 0.961 . S
C539 H540 0.960 . S
H540 C539 0.960 . S
H541 N521 0.862 . S
O542 Co510 1.920 . S
O542 C515 1.289 . S
C543 O535 1.258 . S
C543 O536 1.266 . S
Co544 O547 1.970 . S
Co544 N561 1.989 . S
Co544 O569 1.967 . S
Co544 O576 1.920 . S
Co545 O548 1.966 . S
Co545 N554 2.022 . S
Co545 N562 1.993 . S
Co545 O570 1.941 . S
C546 O547 1.258 . S
C546 O548 1.263 . S
O547 Co544 1.970 . S
O547 C546 1.258 . S
O548 Co545 1.966 . S
O548 C546 1.263 . S
C549 O550 1.235 . S
C549 O576 1.289 . S
O550 C549 1.235 . S
C551 C553 1.400 . S
C551 N554 1.351 . S
C551 C556 1.501 . S
C552 C553 1.387 . S
C552 N555 1.341 . S
C553 C551 1.400 . S
C553 C552 1.387 . S
N554 Co545 2.022 . S
N554 C551 1.351 . S
N554 N555 1.365 . S
N555 C552 1.341 . S
N555 N554 1.365 . S
N555 H575 0.862 . S
C556 C551 1.501 . S
C556 H557 0.961 . S
C556 H558 0.961 . S
C556 H559 0.960 . S
H557 C556 0.961 . S
H558 C556 0.961 . S
H559 C556 0.960 . S
C560 N561 1.342 . S
C560 C564 1.401 . S
C560 C565 1.499 . S
N561 Co544 1.989 . S
N561 C560 1.342 . S
N561 N562 1.388 . S
N562 Co545 1.993 . S
N562 N561 1.388 . S
N562 C563 1.346 . S
C563 N562 1.346 . S
C563 C564 1.396 . S
C563 C573 1.510 . S
C564 C560 1.401 . S
C564 C563 1.396 . S
C565 C560 1.499 . S
C565 H566 0.959 . S
C565 H567 0.960 . S
C565 H568 0.961 . S
H566 C565 0.959 . S
H567 C565 0.960 . S
H568 C565 0.961 . S
O569 Co544 1.967 . S
O569 C577 1.258 . S
O570 Co545 1.941 . S
O570 C577 1.266 . S
H571 C573 0.959 . S
H572 C573 0.961 . S
C573 C563 1.510 . S
C573 H571 0.959 . S
C573 H572 0.961 . S
C573 H574 0.960 . S
H574 C573 0.960 . S
H575 N555 0.862 . S
O576 Co544 1.920 . S
O576 C549 1.289 . S
C577 O569 1.258 . S
C577 O570 1.266 . S
Co578 O581 1.970 . S
Co578 N595 1.989 1_565 S
Co578 O603 1.967 . S
Co578 O610 1.920 1_565 S
Co579 O582 1.966 . S
Co579 N588 2.022 . S
Co579 N596 1.993 . S
Co579 O604 1.941 . S
C580 O581 1.258 . S
C580 O582 1.263 . S
O581 Co578 1.970 . S
O581 C580 1.258 . S
O582 Co579 1.966 . S
O582 C580 1.263 . S
C583 O584 1.235 . S
C583 O610 1.289 . S
O584 C583 1.235 . S
C585 C587 1.400 . S
C585 N588 1.351 . S
C585 C590 1.501 . S
C586 C587 1.387 . S
C586 N589 1.341 . S
C587 C585 1.400 . S
C587 C586 1.387 . S
N588 Co579 2.022 . S
N588 C585 1.351 . S
N588 N589 1.365 . S
N589 C586 1.341 . S
N589 N588 1.365 . S
N589 H609 0.862 . S
C590 C585 1.501 . S
C590 H591 0.961 . S
C590 H592 0.961 . S
C590 H593 0.960 . S
H591 C590 0.961 . S
H592 C590 0.961 . S
H593 C590 0.960 . S
C594 N595 1.342 . S
C594 C598 1.401 . S
C594 C599 1.499 . S
N595 Co578 1.989 1_545 S
N595 C594 1.342 . S
N595 N596 1.388 1_545 S
N596 Co579 1.993 . S
N596 N595 1.388 1_565 S
N596 C597 1.346 . S
C597 N596 1.346 . S
C597 C598 1.396 1_565 S
C597 C607 1.510 . S
C598 C594 1.401 . S
C598 C597 1.396 1_545 S
C599 C594 1.499 . S
C599 H600 0.959 . S
C599 H601 0.960 . S
C599 H602 0.961 . S
H600 C599 0.959 . S
H601 C599 0.960 . S
H602 C599 0.961 . S
O603 Co578 1.967 . S
O603 C611 1.258 . S
O604 Co579 1.941 . S
O604 C611 1.266 . S
H605 C607 0.959 . S
H606 C607 0.961 . S
C607 C597 1.510 . S
C607 H605 0.959 . S
C607 H606 0.961 . S
C607 H608 0.960 . S
H608 C607 0.960 . S
H609 N589 0.862 . S
O610 Co578 1.920 1_545 S
O610 C583 1.289 . S
C611 O603 1.258 . S
C611 O604 1.266 . S
Co612 O615 1.970 . S
Co612 N629 1.989 1_565 S
Co612 O637 1.967 . S
Co612 O644 1.920 1_565 S
Co613 O616 1.966 . S
Co613 N622 2.022 . S
Co613 N630 1.993 . S
Co613 O638 1.941 . S
C614 O615 1.258 . S
C614 O616 1.263 . S
O615 Co612 1.970 . S
O615 C614 1.258 . S
O616 Co613 1.966 . S
O616 C614 1.263 . S
C617 O618 1.235 . S
C617 O644 1.289 . S
O618 C617 1.235 . S
C619 C621 1.400 . S
C619 N622 1.351 . S
C619 C624 1.501 . S
C620 C621 1.387 . S
C620 N623 1.341 . S
C621 C619 1.400 . S
C621 C620 1.387 . S
N622 Co613 2.022 . S
N622 C619 1.351 . S
N622 N623 1.365 . S
N623 C620 1.341 . S
N623 N622 1.365 . S
N623 H643 0.862 . S
C624 C619 1.501 . S
C624 H625 0.961 . S
C624 H626 0.961 . S
C624 H627 0.960 . S
H625 C624 0.961 . S
H626 C624 0.961 . S
H627 C624 0.960 . S
C628 N629 1.342 . S
C628 C632 1.401 . S
C628 C633 1.499 . S
N629 Co612 1.989 1_545 S
N629 C628 1.342 . S
N629 N630 1.388 1_545 S
N630 Co613 1.993 . S
N630 N629 1.388 1_565 S
N630 C631 1.346 . S
C631 N630 1.346 . S
C631 C632 1.396 1_565 S
C631 C641 1.510 . S
C632 C628 1.401 . S
C632 C631 1.396 1_545 S
C633 C628 1.499 . S
C633 H634 0.959 . S
C633 H635 0.960 . S
C633 H636 0.961 . S
H634 C633 0.959 . S
H635 C633 0.960 . S
H636 C633 0.961 . S
O637 Co612 1.967 . S
O637 C645 1.258 . S
O638 Co613 1.941 . S
O638 C645 1.266 . S
H639 C641 0.959 . S
H640 C641 0.961 . S
C641 C631 1.510 . S
C641 H639 0.959 . S
C641 H640 0.961 . S
C641 H642 0.960 . S
H642 C641 0.960 . S
H643 N623 0.862 . S
O644 Co612 1.920 1_545 S
O644 C617 1.289 . S
C645 O637 1.258 . S
C645 O638 1.266 . S
Co646 O649 1.970 . S
Co646 N663 1.989 . S
Co646 O671 1.967 . S
Co646 O678 1.920 . S
Co647 O650 1.966 . S
Co647 N656 2.022 . S
Co647 N664 1.993 . S
Co647 O672 1.941 . S
C648 O649 1.258 . S
C648 O650 1.263 . S
O649 Co646 1.970 . S
O649 C648 1.258 . S
O650 Co647 1.966 . S
O650 C648 1.263 . S
C651 O652 1.235 . S
C651 O678 1.289 . S
O652 C651 1.235 . S
C653 C655 1.400 . S
C653 N656 1.351 . S
C653 C658 1.501 . S
C654 C655 1.387 . S
C654 N657 1.341 . S
C655 C653 1.400 . S
C655 C654 1.387 . S
N656 Co647 2.022 . S
N656 C653 1.351 . S
N656 N657 1.365 . S
N657 C654 1.341 . S
N657 N656 1.365 . S
N657 H677 0.862 . S
C658 C653 1.501 . S
C658 H659 0.961 . S
C658 H660 0.961 . S
C658 H661 0.960 . S
H659 C658 0.961 . S
H660 C658 0.961 . S
H661 C658 0.960 . S
C662 N663 1.342 . S
C662 C666 1.401 . S
C662 C667 1.499 . S
N663 Co646 1.989 . S
N663 C662 1.342 . S
N663 N664 1.388 . S
N664 Co647 1.993 . S
N664 N663 1.388 . S
N664 C665 1.346 . S
C665 N664 1.346 . S
C665 C666 1.396 . S
C665 C675 1.510 . S
C666 C662 1.401 . S
C666 C665 1.396 . S
C667 C662 1.499 . S
C667 H668 0.959 . S
C667 H669 0.960 . S
C667 H670 0.961 . S
H668 C667 0.959 . S
H669 C667 0.960 . S
H670 C667 0.961 . S
O671 Co646 1.967 . S
O671 C679 1.258 . S
O672 Co647 1.941 . S
O672 C679 1.266 . S
H673 C675 0.959 . S
H674 C675 0.961 . S
C675 C665 1.510 . S
C675 H673 0.959 . S
C675 H674 0.961 . S
C675 H676 0.960 . S
H676 C675 0.960 . S
H677 N657 0.862 . S
O678 Co646 1.920 . S
O678 C651 1.289 . S
C679 O671 1.258 . S
C679 O672 1.266 . S
Co680 O683 1.970 . S
Co680 N697 1.989 . S
Co680 O705 1.967 . S
Co680 O712 1.920 . S
Co681 O684 1.966 . S
Co681 N690 2.022 . S
Co681 N698 1.993 . S
Co681 O706 1.941 . S
C682 O683 1.258 . S
C682 O684 1.263 . S
O683 Co680 1.970 . S
O683 C682 1.258 . S
O684 Co681 1.966 . S
O684 C682 1.263 . S
C685 O686 1.235 . S
C685 O712 1.289 . S
O686 C685 1.235 . S
C687 C689 1.400 . S
C687 N690 1.351 . S
C687 C692 1.501 . S
C688 C689 1.387 . S
C688 N691 1.341 . S
C689 C687 1.400 . S
C689 C688 1.387 . S
N690 Co681 2.022 . S
N690 C687 1.351 . S
N690 N691 1.365 . S
N691 C688 1.341 . S
N691 N690 1.365 . S
N691 H711 0.862 . S
C692 C687 1.501 . S
C692 H693 0.961 . S
C692 H694 0.961 . S
C692 H695 0.960 . S
H693 C692 0.961 . S
H694 C692 0.961 . S
H695 C692 0.960 . S
C696 N697 1.342 . S
C696 C700 1.401 . S
C696 C701 1.499 . S
N697 Co680 1.989 . S
N697 C696 1.342 . S
N697 N698 1.388 . S
N698 Co681 1.993 . S
N698 N697 1.388 . S
N698 C699 1.346 . S
C699 N698 1.346 . S
C699 C700 1.396 . S
C699 C709 1.510 . S
C700 C696 1.401 . S
C700 C699 1.396 . S
C701 C696 1.499 . S
C701 H702 0.959 . S
C701 H703 0.960 . S
C701 H704 0.961 . S
H702 C701 0.959 . S
H703 C701 0.960 . S
H704 C701 0.961 . S
O705 Co680 1.967 . S
O705 C713 1.258 . S
O706 Co681 1.941 . S
O706 C713 1.266 . S
H707 C709 0.959 . S
H708 C709 0.961 . S
C709 C699 1.510 . S
C709 H707 0.959 . S
C709 H708 0.961 . S
C709 H710 0.960 . S
H710 C709 0.960 . S
H711 N691 0.862 . S
O712 Co680 1.920 . S
O712 C685 1.289 . S
C713 O705 1.258 . S
C713 O706 1.266 . S
Co714 O717 1.970 . S
Co714 N731 1.989 1_545 S
Co714 O739 1.967 . S
Co714 O746 1.920 1_545 S
Co715 O718 1.966 . S
Co715 N724 2.022 . S
Co715 N732 1.993 . S
Co715 O740 1.941 . S
C716 O717 1.258 . S
C716 O718 1.263 . S
O717 Co714 1.970 . S
O717 C716 1.258 . S
O718 Co715 1.966 . S
O718 C716 1.263 . S
C719 O720 1.235 . S
C719 O746 1.289 . S
O720 C719 1.235 . S
C721 C723 1.400 . S
C721 N724 1.351 . S
C721 C726 1.501 . S
C722 C723 1.387 . S
C722 N725 1.341 . S
C723 C721 1.400 . S
C723 C722 1.387 . S
N724 Co715 2.022 . S
N724 C721 1.351 . S
N724 N725 1.365 . S
N725 C722 1.341 . S
N725 N724 1.365 . S
N725 H745 0.862 . S
C726 C721 1.501 . S
C726 H727 0.961 . S
C726 H728 0.961 . S
C726 H729 0.960 . S
H727 C726 0.961 . S
H728 C726 0.961 . S
H729 C726 0.960 . S
C730 N731 1.342 . S
C730 C734 1.401 . S
C730 C735 1.499 . S
N731 Co714 1.989 1_565 S
N731 C730 1.342 . S
N731 N732 1.388 1_565 S
N732 Co715 1.993 . S
N732 N731 1.388 1_545 S
N732 C733 1.346 . S
C733 N732 1.346 . S
C733 C734 1.396 1_545 S
C733 C743 1.510 . S
C734 C730 1.401 . S
C734 C733 1.396 1_565 S
C735 C730 1.499 . S
C735 H736 0.959 . S
C735 H737 0.960 . S
C735 H738 0.961 . S
H736 C735 0.959 . S
H737 C735 0.960 . S
H738 C735 0.961 . S
O739 Co714 1.967 . S
O739 C747 1.258 . S
O740 Co715 1.941 . S
O740 C747 1.266 . S
H741 C743 0.959 . S
H742 C743 0.961 . S
C743 C733 1.510 . S
C743 H741 0.959 . S
C743 H742 0.961 . S
C743 H744 0.960 . S
H744 C743 0.960 . S
H745 N725 0.862 . S
O746 Co714 1.920 1_565 S
O746 C719 1.289 . S
C747 O739 1.258 . S
C747 O740 1.266 . S
Co748 O751 1.970 . S
Co748 N765 1.989 1_545 S
Co748 O773 1.967 . S
Co748 O780 1.920 1_545 S
Co749 O752 1.966 . S
Co749 N758 2.022 . S
Co749 N766 1.993 . S
Co749 O774 1.941 . S
C750 O751 1.258 . S
C750 O752 1.263 . S
O751 Co748 1.970 . S
O751 C750 1.258 . S
O752 Co749 1.966 . S
O752 C750 1.263 . S
C753 O754 1.235 . S
C753 O780 1.289 . S
O754 C753 1.235 . S
C755 C757 1.400 . S
C755 N758 1.351 . S
C755 C760 1.501 . S
C756 C757 1.387 . S
C756 N759 1.341 . S
C757 C755 1.400 . S
C757 C756 1.387 . S
N758 Co749 2.022 . S
N758 C755 1.351 . S
N758 N759 1.365 . S
N759 C756 1.341 . S
N759 N758 1.365 . S
N759 H779 0.862 . S
C760 C755 1.501 . S
C760 H761 0.961 . S
C760 H762 0.961 . S
C760 H763 0.960 . S
H761 C760 0.961 . S
H762 C760 0.961 . S
H763 C760 0.960 . S
C764 N765 1.342 . S
C764 C768 1.401 . S
C764 C769 1.499 . S
N765 Co748 1.989 1_565 S
N765 C764 1.342 . S
N765 N766 1.388 1_565 S
N766 Co749 1.993 . S
N766 N765 1.388 1_545 S
N766 C767 1.346 . S
C767 N766 1.346 . S
C767 C768 1.396 1_545 S
C767 C777 1.510 . S
C768 C764 1.401 . S
C768 C767 1.396 1_565 S
C769 C764 1.499 . S
C769 H770 0.959 . S
C769 H771 0.960 . S
C769 H772 0.961 . S
H770 C769 0.959 . S
H771 C769 0.960 . S
H772 C769 0.961 . S
O773 Co748 1.967 . S
O773 C781 1.258 . S
O774 Co749 1.941 . S
O774 C781 1.266 . S
H775 C777 0.959 . S
H776 C777 0.961 . S
C777 C767 1.510 . S
C777 H775 0.959 . S
C777 H776 0.961 . S
C777 H778 0.960 . S
H778 C777 0.960 . S
H779 N759 0.862 . S
O780 Co748 1.920 1_565 S
O780 C753 1.289 . S
C781 O773 1.258 . S
C781 O774 1.266 . S
Co782 O785 1.970 . S
Co782 N799 1.989 . S
Co782 O807 1.967 . S
Co782 O814 1.920 . S
Co783 O786 1.966 . S
Co783 N792 2.022 . S
Co783 N800 1.993 . S
Co783 O808 1.941 . S
C784 O785 1.258 . S
C784 O786 1.263 . S
O785 Co782 1.970 . S
O785 C784 1.258 . S
O786 Co783 1.966 . S
O786 C784 1.263 . S
C787 O788 1.235 . S
C787 O814 1.289 . S
O788 C787 1.235 . S
C789 C791 1.400 . S
C789 N792 1.351 . S
C789 C794 1.501 . S
C790 C791 1.387 . S
C790 N793 1.341 . S
C791 C789 1.400 . S
C791 C790 1.387 . S
N792 Co783 2.022 . S
N792 C789 1.351 . S
N792 N793 1.365 . S
N793 C790 1.341 . S
N793 N792 1.365 . S
N793 H813 0.862 . S
C794 C789 1.501 . S
C794 H795 0.961 . S
C794 H796 0.961 . S
C794 H797 0.960 . S
H795 C794 0.961 . S
H796 C794 0.961 . S
H797 C794 0.960 . S
C798 N799 1.342 . S
C798 C802 1.401 . S
C798 C803 1.499 . S
N799 Co782 1.989 . S
N799 C798 1.342 . S
N799 N800 1.388 . S
N800 Co783 1.993 . S
N800 N799 1.388 . S
N800 C801 1.346 . S
C801 N800 1.346 . S
C801 C802 1.396 . S
C801 C811 1.510 . S
C802 C798 1.401 . S
C802 C801 1.396 . S
C803 C798 1.499 . S
C803 H804 0.959 . S
C803 H805 0.960 . S
C803 H806 0.961 . S
H804 C803 0.959 . S
H805 C803 0.960 . S
H806 C803 0.961 . S
O807 Co782 1.967 . S
O807 C815 1.258 . S
O808 Co783 1.941 . S
O808 C815 1.266 . S
H809 C811 0.959 . S
H810 C811 0.961 . S
C811 C801 1.510 . S
C811 H809 0.959 . S
C811 H810 0.961 . S
C811 H812 0.960 . S
H812 C811 0.960 . S
H813 N793 0.862 . S
O814 Co782 1.920 . S
O814 C787 1.289 . S
C815 O807 1.258 . S
C815 O808 1.266 . S
Co816 O819 1.970 . S
Co816 N833 1.989 . S
Co816 O841 1.967 . S
Co816 O848 1.920 . S
Co817 O820 1.966 . S
Co817 N826 2.022 . S
Co817 N834 1.993 . S
Co817 O842 1.941 . S
C818 O819 1.258 . S
C818 O820 1.263 . S
O819 Co816 1.970 . S
O819 C818 1.258 . S
O820 Co817 1.966 . S
O820 C818 1.263 . S
C821 O822 1.235 . S
C821 O848 1.289 . S
O822 C821 1.235 . S
C823 C825 1.400 . S
C823 N826 1.351 . S
C823 C828 1.501 . S
C824 C825 1.387 . S
C824 N827 1.341 . S
C825 C823 1.400 . S
C825 C824 1.387 . S
N826 Co817 2.022 . S
N826 C823 1.351 . S
N826 N827 1.365 . S
N827 C824 1.341 . S
N827 N826 1.365 . S
N827 H847 0.862 . S
C828 C823 1.501 . S
C828 H829 0.961 . S
C828 H830 0.961 . S
C828 H831 0.960 . S
H829 C828 0.961 . S
H830 C828 0.961 . S
H831 C828 0.960 . S
C832 N833 1.342 . S
C832 C836 1.401 . S
C832 C837 1.499 . S
N833 Co816 1.989 . S
N833 C832 1.342 . S
N833 N834 1.388 . S
N834 Co817 1.993 . S
N834 N833 1.388 . S
N834 C835 1.346 . S
C835 N834 1.346 . S
C835 C836 1.396 . S
C835 C845 1.510 . S
C836 C832 1.401 . S
C836 C835 1.396 . S
C837 C832 1.499 . S
C837 H838 0.959 . S
C837 H839 0.960 . S
C837 H840 0.961 . S
H838 C837 0.959 . S
H839 C837 0.960 . S
H840 C837 0.961 . S
O841 Co816 1.967 . S
O841 C849 1.258 . S
O842 Co817 1.941 . S
O842 C849 1.266 . S
H843 C845 0.959 . S
H844 C845 0.961 . S
C845 C835 1.510 . S
C845 H843 0.959 . S
C845 H844 0.961 . S
C845 H846 0.960 . S
H846 C845 0.960 . S
H847 N827 0.862 . S
O848 Co816 1.920 . S
O848 C821 1.289 . S
C849 O841 1.258 . S
C849 O842 1.266 . S
Co850 O853 1.970 . S
Co850 N867 1.989 . S
Co850 O875 1.967 . S
Co850 O882 1.920 . S
Co851 O854 1.966 . S
Co851 N860 2.022 . S
Co851 N868 1.993 . S
Co851 O876 1.941 . S
C852 O853 1.258 . S
C852 O854 1.263 . S
O853 Co850 1.970 . S
O853 C852 1.258 . S
O854 Co851 1.966 . S
O854 C852 1.263 . S
C855 O856 1.235 . S
C855 O882 1.289 . S
O856 C855 1.235 . S
C857 C859 1.400 . S
C857 N860 1.351 . S
C857 C862 1.501 . S
C858 C859 1.387 . S
C858 N861 1.341 . S
C859 C857 1.400 . S
C859 C858 1.387 . S
N860 Co851 2.022 . S
N860 C857 1.351 . S
N860 N861 1.365 . S
N861 C858 1.341 . S
N861 N860 1.365 . S
N861 H881 0.862 . S
C862 C857 1.501 . S
C862 H863 0.961 . S
C862 H864 0.961 . S
C862 H865 0.960 . S
H863 C862 0.961 . S
H864 C862 0.961 . S
H865 C862 0.960 . S
C866 N867 1.342 . S
C866 C870 1.401 . S
C866 C871 1.499 . S
N867 Co850 1.989 . S
N867 C866 1.342 . S
N867 N868 1.388 . S
N868 Co851 1.993 . S
N868 N867 1.388 . S
N868 C869 1.346 . S
C869 N868 1.346 . S
C869 C870 1.396 . S
C869 C879 1.510 . S
C870 C866 1.401 . S
C870 C869 1.396 . S
C871 C866 1.499 . S
C871 H872 0.959 . S
C871 H873 0.960 . S
C871 H874 0.961 . S
H872 C871 0.959 . S
H873 C871 0.960 . S
H874 C871 0.961 . S
O875 Co850 1.967 . S
O875 C883 1.258 . S
O876 Co851 1.941 . S
O876 C883 1.266 . S
H877 C879 0.959 . S
H878 C879 0.961 . S
C879 C869 1.510 . S
C879 H877 0.959 . S
C879 H878 0.961 . S
C879 H880 0.960 . S
H880 C879 0.960 . S
H881 N861 0.862 . S
O882 Co850 1.920 . S
O882 C855 1.289 . S
C883 O875 1.258 . S
C883 O876 1.266 . S
Co884 O887 1.970 . S
Co884 N901 1.989 . S
Co884 O909 1.967 . S
Co884 O916 1.920 . S
Co885 O888 1.966 . S
Co885 N894 2.022 1_554 S
Co885 N902 1.993 . S
Co885 O910 1.941 . S
C886 O887 1.258 . S
C886 O888 1.263 . S
O887 Co884 1.970 . S
O887 C886 1.258 . S
O888 Co885 1.966 . S
O888 C886 1.263 . S
C889 O890 1.235 . S
C889 O916 1.289 . S
O890 C889 1.235 . S
C891 C893 1.400 . S
C891 N894 1.351 . S
C891 C896 1.501 . S
C892 C893 1.387 . S
C892 N895 1.341 . S
C893 C891 1.400 . S
C893 C892 1.387 . S
N894 Co885 2.022 1_556 S
N894 C891 1.351 . S
N894 N895 1.365 . S
N895 C892 1.341 . S
N895 N894 1.365 . S
N895 H915 0.862 . S
C896 C891 1.501 . S
C896 H897 0.961 . S
C896 H898 0.961 . S
C896 H899 0.960 . S
H897 C896 0.961 . S
H898 C896 0.961 . S
H899 C896 0.960 . S
C900 N901 1.342 . S
C900 C904 1.401 1_554 S
C900 C905 1.499 . S
N901 Co884 1.989 . S
N901 C900 1.342 . S
N901 N902 1.388 . S
N902 Co885 1.993 . S
N902 N901 1.388 . S
N902 C903 1.346 1_554 S
C903 N902 1.346 1_556 S
C903 C904 1.396 . S
C903 C913 1.510 . S
C904 C900 1.401 1_556 S
C904 C903 1.396 . S
C905 C900 1.499 . S
C905 H906 0.959 . S
C905 H907 0.960 . S
C905 H908 0.961 . S
H906 C905 0.959 . S
H907 C905 0.960 . S
H908 C905 0.961 . S
O909 Co884 1.967 . S
O909 C917 1.258 . S
O910 Co885 1.941 . S
O910 C917 1.266 . S
H911 C913 0.959 . S
H912 C913 0.961 . S
C913 C903 1.510 . S
C913 H911 0.959 . S
C913 H912 0.961 . S
C913 H914 0.960 . S
H914 C913 0.960 . S
H915 N895 0.862 . S
O916 Co884 1.920 . S
O916 C889 1.289 . S
C917 O909 1.258 . S
C917 O910 1.266 . S
Co918 O921 1.970 . S
Co918 N935 1.989 . S
Co918 O943 1.967 . S
Co918 O950 1.920 . S
Co919 O922 1.966 . S
Co919 N928 2.022 1_554 S
Co919 N936 1.993 . S
Co919 O944 1.941 . S
C920 O921 1.258 . S
C920 O922 1.263 . S
O921 Co918 1.970 . S
O921 C920 1.258 . S
O922 Co919 1.966 . S
O922 C920 1.263 . S
C923 O924 1.235 . S
C923 O950 1.289 . S
O924 C923 1.235 . S
C925 C927 1.400 . S
C925 N928 1.351 . S
C925 C930 1.501 . S
C926 C927 1.387 . S
C926 N929 1.341 . S
C927 C925 1.400 . S
C927 C926 1.387 . S
N928 Co919 2.022 1_556 S
N928 C925 1.351 . S
N928 N929 1.365 . S
N929 C926 1.341 . S
N929 N928 1.365 . S
N929 H949 0.862 . S
C930 C925 1.501 . S
C930 H931 0.961 . S
C930 H932 0.961 . S
C930 H933 0.960 . S
H931 C930 0.961 . S
H932 C930 0.961 . S
H933 C930 0.960 . S
C934 N935 1.342 . S
C934 C938 1.401 1_554 S
C934 C939 1.499 . S
N935 Co918 1.989 . S
N935 C934 1.342 . S
N935 N936 1.388 . S
N936 Co919 1.993 . S
N936 N935 1.388 . S
N936 C937 1.346 1_554 S
C937 N936 1.346 1_556 S
C937 C938 1.396 . S
C937 C947 1.510 . S
C938 C934 1.401 1_556 S
C938 C937 1.396 . S
C939 C934 1.499 . S
C939 H940 0.959 . S
C939 H941 0.960 . S
C939 H942 0.961 . S
H940 C939 0.959 . S
H941 C939 0.960 . S
H942 C939 0.961 . S
O943 Co918 1.967 . S
O943 C951 1.258 . S
O944 Co919 1.941 . S
O944 C951 1.266 . S
H945 C947 0.959 . S
H946 C947 0.961 . S
C947 C937 1.510 . S
C947 H945 0.959 . S
C947 H946 0.961 . S
C947 H948 0.960 . S
H948 C947 0.960 . S
H949 N929 0.862 . S
O950 Co918 1.920 . S
O950 C923 1.289 . S
C951 O943 1.258 . S
C951 O944 1.266 . S
Co952 O955 1.970 . S
Co952 N969 1.989 . S
Co952 O977 1.967 . S
Co952 O984 1.920 . S
Co953 O956 1.966 . S
Co953 N962 2.022 . S
Co953 N970 1.993 . S
Co953 O978 1.941 . S
C954 O955 1.258 . S
C954 O956 1.263 . S
O955 Co952 1.970 . S
O955 C954 1.258 . S
O956 Co953 1.966 . S
O956 C954 1.263 . S
C957 O958 1.235 . S
C957 O984 1.289 . S
O958 C957 1.235 . S
C959 C961 1.400 . S
C959 N962 1.351 . S
C959 C964 1.501 . S
C960 C961 1.387 . S
C960 N963 1.341 . S
C961 C959 1.400 . S
C961 C960 1.387 . S
N962 Co953 2.022 . S
N962 C959 1.351 . S
N962 N963 1.365 . S
N963 C960 1.341 . S
N963 N962 1.365 . S
N963 H983 0.862 . S
C964 C959 1.501 . S
C964 H965 0.961 . S
C964 H966 0.961 . S
C964 H967 0.960 . S
H965 C964 0.961 . S
H966 C964 0.961 . S
H967 C964 0.960 . S
C968 N969 1.342 . S
C968 C972 1.401 . S
C968 C973 1.499 . S
N969 Co952 1.989 . S
N969 C968 1.342 . S
N969 N970 1.388 . S
N970 Co953 1.993 . S
N970 N969 1.388 . S
N970 C971 1.346 . S
C971 N970 1.346 . S
C971 C972 1.396 . S
C971 C981 1.510 . S
C972 C968 1.401 . S
C972 C971 1.396 . S
C973 C968 1.499 . S
C973 H974 0.959 . S
C973 H975 0.960 . S
C973 H976 0.961 . S
H974 C973 0.959 . S
H975 C973 0.960 . S
H976 C973 0.961 . S
O977 Co952 1.967 . S
O977 C985 1.258 . S
O978 Co953 1.941 . S
O978 C985 1.266 . S
H979 C981 0.959 . S
H980 C981 0.961 . S
C981 C971 1.510 . S
C981 H979 0.959 . S
C981 H980 0.961 . S
C981 H982 0.960 . S
H982 C981 0.960 . S
H983 N963 0.862 . S
O984 Co952 1.920 . S
O984 C957 1.289 . S
C985 O977 1.258 . S
C985 O978 1.266 . S
Co986 O989 1.970 . S
Co986 N1003 1.989 . S
Co986 O1011 1.967 . S
Co986 O1018 1.920 . S
Co987 O990 1.966 . S
Co987 N996 2.022 . S
Co987 N1004 1.993 . S
Co987 O1012 1.941 . S
C988 O989 1.258 . S
C988 O990 1.263 . S
O989 Co986 1.970 . S
O989 C988 1.258 . S
O990 Co987 1.966 . S
O990 C988 1.263 . S
C991 O992 1.235 . S
C991 O1018 1.289 . S
O992 C991 1.235 . S
C993 C995 1.400 . S
C993 N996 1.351 . S
C993 C998 1.501 . S
C994 C995 1.387 . S
C994 N997 1.341 . S
C995 C993 1.400 . S
C995 C994 1.387 . S
N996 Co987 2.022 . S
N996 C993 1.351 . S
N996 N997 1.365 . S
N997 C994 1.341 . S
N997 N996 1.365 . S
N997 H1017 0.862 . S
C998 C993 1.501 . S
C998 H999 0.961 . S
C998 H1000 0.961 . S
C998 H1001 0.960 . S
H999 C998 0.961 . S
H1000 C998 0.961 . S
H1001 C998 0.960 . S
C1002 N1003 1.342 . S
C1002 C1006 1.401 . S
C1002 C1007 1.499 . S
N1003 Co986 1.989 . S
N1003 C1002 1.342 . S
N1003 N1004 1.388 . S
N1004 Co987 1.993 . S
N1004 N1003 1.388 . S
N1004 C1005 1.346 . S
C1005 N1004 1.346 . S
C1005 C1006 1.396 . S
C1005 C1015 1.510 . S
C1006 C1002 1.401 . S
C1006 C1005 1.396 . S
C1007 C1002 1.499 . S
C1007 H1008 0.959 . S
C1007 H1009 0.960 . S
C1007 H1010 0.961 . S
H1008 C1007 0.959 . S
H1009 C1007 0.960 . S
H1010 C1007 0.961 . S
O1011 Co986 1.967 . S
O1011 C1019 1.258 . S
O1012 Co987 1.941 . S
O1012 C1019 1.266 . S
H1013 C1015 0.959 . S
H1014 C1015 0.961 . S
C1015 C1005 1.510 . S
C1015 H1013 0.959 . S
C1015 H1014 0.961 . S
C1015 H1016 0.960 . S
H1016 C1015 0.960 . S
H1017 N997 0.862 . S
O1018 Co986 1.920 . S
O1018 C991 1.289 . S
C1019 O1011 1.258 . S
C1019 O1012 1.266 . S
Co1020 O1023 1.970 . S
Co1020 N1037 1.989 . S
Co1020 O1045 1.967 . S
Co1020 O1052 1.920 . S
Co1021 O1024 1.966 . S
Co1021 N1030 2.022 1_556 S
Co1021 N1038 1.993 . S
Co1021 O1046 1.941 . S
C1022 O1023 1.258 . S
C1022 O1024 1.263 . S
O1023 Co1020 1.970 . S
O1023 C1022 1.258 . S
O1024 Co1021 1.966 . S
O1024 C1022 1.263 . S
C1025 O1026 1.235 . S
C1025 O1052 1.289 . S
O1026 C1025 1.235 . S
C1027 C1029 1.400 . S
C1027 N1030 1.351 . S
C1027 C1032 1.501 . S
C1028 C1029 1.387 . S
C1028 N1031 1.341 . S
C1029 C1027 1.400 . S
C1029 C1028 1.387 . S
N1030 Co1021 2.022 1_554 S
N1030 C1027 1.351 . S
N1030 N1031 1.365 . S
N1031 C1028 1.341 . S
N1031 N1030 1.365 . S
N1031 H1051 0.862 . S
C1032 C1027 1.501 . S
C1032 H1033 0.961 . S
C1032 H1034 0.961 . S
C1032 H1035 0.960 . S
H1033 C1032 0.961 . S
H1034 C1032 0.961 . S
H1035 C1032 0.960 . S
C1036 N1037 1.342 . S
C1036 C1040 1.401 1_556 S
C1036 C1041 1.499 . S
N1037 Co1020 1.989 . S
N1037 C1036 1.342 . S
N1037 N1038 1.388 . S
N1038 Co1021 1.993 . S
N1038 N1037 1.388 . S
N1038 C1039 1.346 1_556 S
C1039 N1038 1.346 1_554 S
C1039 C1040 1.396 . S
C1039 C1049 1.510 . S
C1040 C1036 1.401 1_554 S
C1040 C1039 1.396 . S
C1041 C1036 1.499 . S
C1041 H1042 0.959 . S
C1041 H1043 0.960 . S
C1041 H1044 0.961 . S
H1042 C1041 0.959 . S
H1043 C1041 0.960 . S
H1044 C1041 0.961 . S
O1045 Co1020 1.967 . S
O1045 C1053 1.258 . S
O1046 Co1021 1.941 . S
O1046 C1053 1.266 . S
H1047 C1049 0.959 . S
H1048 C1049 0.961 . S
C1049 C1039 1.510 . S
C1049 H1047 0.959 . S
C1049 H1048 0.961 . S
C1049 H1050 0.960 . S
H1050 C1049 0.960 . S
H1051 N1031 0.862 . S
O1052 Co1020 1.920 . S
O1052 C1025 1.289 . S
C1053 O1045 1.258 . S
C1053 O1046 1.266 . S
Co1054 O1057 1.970 . S
Co1054 N1071 1.989 . S
Co1054 O1079 1.967 . S
Co1054 O1086 1.920 . S
Co1055 O1058 1.966 . S
Co1055 N1064 2.022 1_556 S
Co1055 N1072 1.993 . S
Co1055 O1080 1.941 . S
C1056 O1057 1.258 . S
C1056 O1058 1.263 . S
O1057 Co1054 1.970 . S
O1057 C1056 1.258 . S
O1058 Co1055 1.966 . S
O1058 C1056 1.263 . S
C1059 O1060 1.235 . S
C1059 O1086 1.289 . S
O1060 C1059 1.235 . S
C1061 C1063 1.400 . S
C1061 N1064 1.351 . S
C1061 C1066 1.501 . S
C1062 C1063 1.387 . S
C1062 N1065 1.341 . S
C1063 C1061 1.400 . S
C1063 C1062 1.387 . S
N1064 Co1055 2.022 1_554 S
N1064 C1061 1.351 . S
N1064 N1065 1.365 . S
N1065 C1062 1.341 . S
N1065 N1064 1.365 . S
N1065 H1085 0.862 . S
C1066 C1061 1.501 . S
C1066 H1067 0.961 . S
C1066 H1068 0.961 . S
C1066 H1069 0.960 . S
H1067 C1066 0.961 . S
H1068 C1066 0.961 . S
H1069 C1066 0.960 . S
C1070 N1071 1.342 . S
C1070 C1074 1.401 1_556 S
C1070 C1075 1.499 . S
N1071 Co1054 1.989 . S
N1071 C1070 1.342 . S
N1071 N1072 1.388 . S
N1072 Co1055 1.993 . S
N1072 N1071 1.388 . S
N1072 C1073 1.346 1_556 S
C1073 N1072 1.346 1_554 S
C1073 C1074 1.396 . S
C1073 C1083 1.510 . S
C1074 C1070 1.401 1_554 S
C1074 C1073 1.396 . S
C1075 C1070 1.499 . S
C1075 H1076 0.959 . S
C1075 H1077 0.960 . S
C1075 H1078 0.961 . S
H1076 C1075 0.959 . S
H1077 C1075 0.960 . S
H1078 C1075 0.961 . S
O1079 Co1054 1.967 . S
O1079 C1087 1.258 . S
O1080 Co1055 1.941 . S
O1080 C1087 1.266 . S
H1081 C1083 0.959 . S
H1082 C1083 0.961 . S
C1083 C1073 1.510 . S
C1083 H1081 0.959 . S
C1083 H1082 0.961 . S
C1083 H1084 0.960 . S
H1084 C1083 0.960 . S
H1085 N1065 0.862 . S
O1086 Co1054 1.920 . S
O1086 C1059 1.289 . S
C1087 O1079 1.258 . S
C1087 O1080 1.266 . S
H1088 C1094 0.930 . S
H1089 C1098 0.930 . S
H1090 C1103 0.929 . S
H1091 C1101 0.929 . S
H1092 C1096 0.929 . S
H1093 C1102 0.929 . S
C1094 H1088 0.930 . S
C1094 C1095 1.367 . S
C1094 C1102 1.378 . S
C1095 C1094 1.367 . S
C1095 C1103 1.433 . S
C1096 H1092 0.929 . S
C1096 C1098 1.378 . S
C1096 C1100 1.350 . S
C1097 C1100 1.463 . S
C1097 C1102 1.350 . S
C1097 N1105 1.427 . S
C1098 H1089 0.930 . S
C1098 C1096 1.378 . S
C1098 C1099 1.367 . S
C1099 C1098 1.367 . S
C1099 C1101 1.433 . S
C1100 C1096 1.350 . S
C1100 C1097 1.463 . S
C1100 N1104 1.427 . S
C1101 H1091 0.929 . S
C1101 C1099 1.433 . S
C1101 N1104 1.384 . S
C1102 H1093 0.929 . S
C1102 C1094 1.378 . S
C1102 C1097 1.350 . S
C1103 H1090 0.929 . S
C1103 C1095 1.433 . S
C1103 N1105 1.384 . S
N1104 C1100 1.427 . S
N1104 C1101 1.384 . S
N1105 C1097 1.427 . S
N1105 C1103 1.384 . S
H1106 C1112 0.930 . S
H1107 C1116 0.930 . S
H1108 C1121 0.929 . S
H1109 C1119 0.929 . S
H1110 C1114 0.929 . S
H1111 C1120 0.929 . S
C1112 H1106 0.930 . S
C1112 C1113 1.367 . S
C1112 C1120 1.378 . S
C1113 C1112 1.367 . S
C1113 C1121 1.433 . S
C1114 H1110 0.929 . S
C1114 C1116 1.378 . S
C1114 C1118 1.350 . S
C1115 C1118 1.463 . S
C1115 C1120 1.350 . S
C1115 N1123 1.427 . S
C1116 H1107 0.930 . S
C1116 C1114 1.378 . S
C1116 C1117 1.367 . S
C1117 C1116 1.367 . S
C1117 C1119 1.433 . S
C1118 C1114 1.350 . S
C1118 C1115 1.463 . S
C1118 N1122 1.427 . S
C1119 H1109 0.929 . S
C1119 C1117 1.433 . S
C1119 N1122 1.384 . S
C1120 H1111 0.929 . S
C1120 C1112 1.378 . S
C1120 C1115 1.350 . S
C1121 H1108 0.929 . S
C1121 C1113 1.433 . S
C1121 N1123 1.384 . S
N1122 C1118 1.427 . S
N1122 C1119 1.384 . S
N1123 C1115 1.427 . S
N1123 C1121 1.384 . S
H1124 C1130 0.930 . S
H1125 C1134 0.930 . S
H1126 C1139 0.929 . S
H1127 C1137 0.929 . S
H1128 C1132 0.929 . S
H1129 C1138 0.929 . S
C1130 H1124 0.930 . S
C1130 C1131 1.367 . S
C1130 C1138 1.378 . S
C1131 C1130 1.367 . S
C1131 C1139 1.433 . S
C1132 H1128 0.929 . S
C1132 C1134 1.378 . S
C1132 C1136 1.350 . S
C1133 C1136 1.463 . S
C1133 C1138 1.350 . S
C1133 N1141 1.427 . S
C1134 H1125 0.930 . S
C1134 C1132 1.378 . S
C1134 C1135 1.367 . S
C1135 C1134 1.367 . S
C1135 C1137 1.433 . S
C1136 C1132 1.350 . S
C1136 C1133 1.463 . S
C1136 N1140 1.427 . S
C1137 H1127 0.929 . S
C1137 C1135 1.433 . S
C1137 N1140 1.384 . S
C1138 H1129 0.929 . S
C1138 C1130 1.378 . S
C1138 C1133 1.350 . S
C1139 H1126 0.929 . S
C1139 C1131 1.433 . S
C1139 N1141 1.384 . S
N1140 C1136 1.427 . S
N1140 C1137 1.384 . S
N1141 C1133 1.427 . S
N1141 C1139 1.384 . S
H1142 C1148 0.930 . S
H1143 C1152 0.930 . S
H1144 C1157 0.929 . S
H1145 C1155 0.929 . S
H1146 C1150 0.929 . S
H1147 C1156 0.929 . S
C1148 H1142 0.930 . S
C1148 C1149 1.367 . S
C1148 C1156 1.378 . S
C1149 C1148 1.367 . S
C1149 C1157 1.433 . S
C1150 H1146 0.929 . S
C1150 C1152 1.378 . S
C1150 C1154 1.350 . S
C1151 C1154 1.463 . S
C1151 C1156 1.350 . S
C1151 N1159 1.427 . S
C1152 H1143 0.930 . S
C1152 C1150 1.378 . S
C1152 C1153 1.367 . S
C1153 C1152 1.367 . S
C1153 C1155 1.433 . S
C1154 C1150 1.350 . S
C1154 C1151 1.463 . S
C1154 N1158 1.427 . S
C1155 H1145 0.929 . S
C1155 C1153 1.433 . S
C1155 N1158 1.384 . S
C1156 H1147 0.929 . S
C1156 C1148 1.378 . S
C1156 C1151 1.350 . S
C1157 H1144 0.929 . S
C1157 C1149 1.433 . S
C1157 N1159 1.384 . S
N1158 C1154 1.427 . S
N1158 C1155 1.384 . S
N1159 C1151 1.427 . S
N1159 C1157 1.384 . S
H1160 C1166 0.930 . S
H1161 C1170 0.930 . S
H1162 C1175 0.929 . S
H1163 C1173 0.929 . S
H1164 C1168 0.929 . S
H1165 C1174 0.929 . S
C1166 H1160 0.930 . S
C1166 C1167 1.367 . S
C1166 C1174 1.378 . S
C1167 C1166 1.367 . S
C1167 C1175 1.433 . S
C1168 H1164 0.929 . S
C1168 C1170 1.378 . S
C1168 C1172 1.350 . S
C1169 C1172 1.463 . S
C1169 C1174 1.350 . S
C1169 N1177 1.427 . S
C1170 H1161 0.930 . S
C1170 C1168 1.378 . S
C1170 C1171 1.367 . S
C1171 C1170 1.367 . S
C1171 C1173 1.433 . S
C1172 C1168 1.350 . S
C1172 C1169 1.463 . S
C1172 N1176 1.427 . S
C1173 H1163 0.929 . S
C1173 C1171 1.433 . S
C1173 N1176 1.384 . S
C1174 H1165 0.929 . S
C1174 C1166 1.378 . S
C1174 C1169 1.350 . S
C1175 H1162 0.929 . S
C1175 C1167 1.433 . S
C1175 N1177 1.384 . S
N1176 C1172 1.427 . S
N1176 C1173 1.384 . S
N1177 C1169 1.427 . S
N1177 C1175 1.384 . S
H1178 C1184 0.930 . S
H1179 C1188 0.930 . S
H1180 C1193 0.929 . S
H1181 C1191 0.929 . S
H1182 C1186 0.929 . S
H1183 C1192 0.929 . S
C1184 H1178 0.930 . S
C1184 C1185 1.367 . S
C1184 C1192 1.378 . S
C1185 C1184 1.367 . S
C1185 C1193 1.433 . S
C1186 H1182 0.929 . S
C1186 C1188 1.378 . S
C1186 C1190 1.350 . S
C1187 C1190 1.463 . S
C1187 C1192 1.350 . S
C1187 N1195 1.427 . S
C1188 H1179 0.930 . S
C1188 C1186 1.378 . S
C1188 C1189 1.367 . S
C1189 C1188 1.367 . S
C1189 C1191 1.433 . S
C1190 C1186 1.350 . S
C1190 C1187 1.463 . S
C1190 N1194 1.427 . S
C1191 H1181 0.929 . S
C1191 C1189 1.433 . S
C1191 N1194 1.384 . S
C1192 H1183 0.929 . S
C1192 C1184 1.378 . S
C1192 C1187 1.350 . S
C1193 H1180 0.929 . S
C1193 C1185 1.433 . S
C1193 N1195 1.384 . S
N1194 C1190 1.427 . S
N1194 C1191 1.384 . S
N1195 C1187 1.427 . S
N1195 C1193 1.384 . S
H1196 C1202 0.930 . S
H1197 C1206 0.930 . S
H1198 C1211 0.929 . S
H1199 C1209 0.929 . S
H1200 C1204 0.929 . S
H1201 C1210 0.929 . S
C1202 H1196 0.930 . S
C1202 C1203 1.367 . S
C1202 C1210 1.378 . S
C1203 C1202 1.367 . S
C1203 C1211 1.433 . S
C1204 H1200 0.929 . S
C1204 C1206 1.378 . S
C1204 C1208 1.350 . S
C1205 C1208 1.463 . S
C1205 C1210 1.350 . S
C1205 N1213 1.427 . S
C1206 H1197 0.930 . S
C1206 C1204 1.378 . S
C1206 C1207 1.367 . S
C1207 C1206 1.367 . S
C1207 C1209 1.433 . S
C1208 C1204 1.350 . S
C1208 C1205 1.463 . S
C1208 N1212 1.427 . S
C1209 H1199 0.929 . S
C1209 C1207 1.433 . S
C1209 N1212 1.384 . S
C1210 H1201 0.929 . S
C1210 C1202 1.378 . S
C1210 C1205 1.350 . S
C1211 H1198 0.929 . S
C1211 C1203 1.433 . S
C1211 N1213 1.384 . S
N1212 C1208 1.427 . S
N1212 C1209 1.384 . S
N1213 C1205 1.427 . S
N1213 C1211 1.384 . S
H1214 C1220 0.930 . S
H1215 C1224 0.930 . S
H1216 C1229 0.929 . S
H1217 C1227 0.929 . S
H1218 C1222 0.929 . S
H1219 C1228 0.929 . S
C1220 H1214 0.930 . S
C1220 C1221 1.367 . S
C1220 C1228 1.378 . S
C1221 C1220 1.367 . S
C1221 C1229 1.433 . S
C1222 H1218 0.929 . S
C1222 C1224 1.378 . S
C1222 C1226 1.350 . S
C1223 C1226 1.463 . S
C1223 C1228 1.350 . S
C1223 N1231 1.427 . S
C1224 H1215 0.930 . S
C1224 C1222 1.378 . S
C1224 C1225 1.367 . S
C1225 C1224 1.367 . S
C1225 C1227 1.433 . S
C1226 C1222 1.350 . S
C1226 C1223 1.463 . S
C1226 N1230 1.427 . S
C1227 H1217 0.929 . S
C1227 C1225 1.433 . S
C1227 N1230 1.384 . S
C1228 H1219 0.929 . S
C1228 C1220 1.378 . S
C1228 C1223 1.350 . S
C1229 H1216 0.929 . S
C1229 C1221 1.433 . S
C1229 N1231 1.384 . S
N1230 C1226 1.427 . S
N1230 C1227 1.384 . S
N1231 C1223 1.427 . S
N1231 C1229 1.384 . S
H1232 C1238 0.930 . S
H1233 C1242 0.930 . S
H1234 C1247 0.929 . S
H1235 C1245 0.929 . S
H1236 C1240 0.929 . S
H1237 C1246 0.929 . S
C1238 H1232 0.930 . S
C1238 C1239 1.367 . S
C1238 C1246 1.378 . S
C1239 C1238 1.367 . S
C1239 C1247 1.433 . S
C1240 H1236 0.929 . S
C1240 C1242 1.378 . S
C1240 C1244 1.350 . S
C1241 C1244 1.463 . S
C1241 C1246 1.350 . S
C1241 N1249 1.427 . S
C1242 H1233 0.930 . S
C1242 C1240 1.378 . S
C1242 C1243 1.367 . S
C1243 C1242 1.367 . S
C1243 C1245 1.433 . S
C1244 C1240 1.350 . S
C1244 C1241 1.463 . S
C1244 N1248 1.427 . S
C1245 H1235 0.929 . S
C1245 C1243 1.433 . S
C1245 N1248 1.384 . S
C1246 H1237 0.929 . S
C1246 C1238 1.378 . S
C1246 C1241 1.350 . S
C1247 H1234 0.929 . S
C1247 C1239 1.433 . S
C1247 N1249 1.384 . S
N1248 C1244 1.427 . S
N1248 C1245 1.384 . S
N1249 C1241 1.427 . S
N1249 C1247 1.384 . S
H1250 C1256 0.930 . S
H1251 C1260 0.930 . S
H1252 C1265 0.929 . S
H1253 C1263 0.929 . S
H1254 C1258 0.929 . S
H1255 C1264 0.929 . S
C1256 H1250 0.930 . S
C1256 C1257 1.367 . S
C1256 C1264 1.378 . S
C1257 C1256 1.367 . S
C1257 C1265 1.433 . S
C1258 H1254 0.929 . S
C1258 C1260 1.378 . S
C1258 C1262 1.350 . S
C1259 C1262 1.463 . S
C1259 C1264 1.350 . S
C1259 N1267 1.427 . S
C1260 H1251 0.930 . S
C1260 C1258 1.378 . S
C1260 C1261 1.367 . S
C1261 C1260 1.367 . S
C1261 C1263 1.433 . S
C1262 C1258 1.350 . S
C1262 C1259 1.463 . S
C1262 N1266 1.427 . S
C1263 H1253 0.929 . S
C1263 C1261 1.433 . S
C1263 N1266 1.384 . S
C1264 H1255 0.929 . S
C1264 C1256 1.378 . S
C1264 C1259 1.350 . S
C1265 H1252 0.929 . S
C1265 C1257 1.433 . S
C1265 N1267 1.384 . S
N1266 C1262 1.427 . S
N1266 C1263 1.384 . S
N1267 C1259 1.427 . S
N1267 C1265 1.384 . S
H1268 C1274 0.930 . S
H1269 C1278 0.930 . S
H1270 C1283 0.929 . S
H1271 C1281 0.929 . S
H1272 C1276 0.929 . S
H1273 C1282 0.929 . S
C1274 H1268 0.930 . S
C1274 C1275 1.367 . S
C1274 C1282 1.378 . S
C1275 C1274 1.367 . S
C1275 C1283 1.433 . S
C1276 H1272 0.929 . S
C1276 C1278 1.378 . S
C1276 C1280 1.350 . S
C1277 C1280 1.463 . S
C1277 C1282 1.350 . S
C1277 N1285 1.427 . S
C1278 H1269 0.930 . S
C1278 C1276 1.378 . S
C1278 C1279 1.367 . S
C1279 C1278 1.367 . S
C1279 C1281 1.433 . S
C1280 C1276 1.350 . S
C1280 C1277 1.463 . S
C1280 N1284 1.427 . S
C1281 H1271 0.929 . S
C1281 C1279 1.433 . S
C1281 N1284 1.384 . S
C1282 H1273 0.929 . S
C1282 C1274 1.378 . S
C1282 C1277 1.350 . S
C1283 H1270 0.929 . S
C1283 C1275 1.433 . S
C1283 N1285 1.384 . S
N1284 C1280 1.427 . S
N1284 C1281 1.384 . S
N1285 C1277 1.427 . S
N1285 C1283 1.384 . S
H1286 C1292 0.930 . S
H1287 C1296 0.930 . S
H1288 C1301 0.929 . S
H1289 C1299 0.929 . S
H1290 C1294 0.929 . S
H1291 C1300 0.929 . S
C1292 H1286 0.930 . S
C1292 C1293 1.367 . S
C1292 C1300 1.378 . S
C1293 C1292 1.367 . S
C1293 C1301 1.433 . S
C1294 H1290 0.929 . S
C1294 C1296 1.378 . S
C1294 C1298 1.350 . S
C1295 C1298 1.463 . S
C1295 C1300 1.350 . S
C1295 N1303 1.427 . S
C1296 H1287 0.930 . S
C1296 C1294 1.378 . S
C1296 C1297 1.367 . S
C1297 C1296 1.367 . S
C1297 C1299 1.433 . S
C1298 C1294 1.350 . S
C1298 C1295 1.463 . S
C1298 N1302 1.427 . S
C1299 H1289 0.929 . S
C1299 C1297 1.433 . S
C1299 N1302 1.384 . S
C1300 H1291 0.929 . S
C1300 C1292 1.378 . S
C1300 C1295 1.350 . S
C1301 H1288 0.929 . S
C1301 C1293 1.433 . S
C1301 N1303 1.384 . S
N1302 C1298 1.427 . S
N1302 C1299 1.384 . S
N1303 C1295 1.427 . S
N1303 C1301 1.384 . S
H1304 C1310 0.930 . S
H1305 C1314 0.930 . S
H1306 C1319 0.929 . S
H1307 C1317 0.929 . S
H1308 C1312 0.929 . S
H1309 C1318 0.929 . S
C1310 H1304 0.930 . S
C1310 C1311 1.367 . S
C1310 C1318 1.378 . S
C1311 C1310 1.367 . S
C1311 C1319 1.433 . S
C1312 H1308 0.929 . S
C1312 C1314 1.378 . S
C1312 C1316 1.350 . S
C1313 C1316 1.463 . S
C1313 C1318 1.350 . S
C1313 N1321 1.427 . S
C1314 H1305 0.930 . S
C1314 C1312 1.378 . S
C1314 C1315 1.367 . S
C1315 C1314 1.367 . S
C1315 C1317 1.433 . S
C1316 C1312 1.350 . S
C1316 C1313 1.463 . S
C1316 N1320 1.427 . S
C1317 H1307 0.929 . S
C1317 C1315 1.433 . S
C1317 N1320 1.384 . S
C1318 H1309 0.929 . S
C1318 C1310 1.378 . S
C1318 C1313 1.350 . S
C1319 H1306 0.929 . S
C1319 C1311 1.433 . S
C1319 N1321 1.384 . S
N1320 C1316 1.427 . S
N1320 C1317 1.384 . S
N1321 C1313 1.427 . S
N1321 C1319 1.384 . S
H1322 C1328 0.930 . S
H1323 C1332 0.930 . S
H1324 C1337 0.929 . S
H1325 C1335 0.929 . S
H1326 C1330 0.929 . S
H1327 C1336 0.929 . S
C1328 H1322 0.930 . S
C1328 C1329 1.367 . S
C1328 C1336 1.378 . S
C1329 C1328 1.367 . S
C1329 C1337 1.433 . S
C1330 H1326 0.929 . S
C1330 C1332 1.378 . S
C1330 C1334 1.350 . S
C1331 C1334 1.463 . S
C1331 C1336 1.350 . S
C1331 N1339 1.427 . S
C1332 H1323 0.930 . S
C1332 C1330 1.378 . S
C1332 C1333 1.367 . S
C1333 C1332 1.367 . S
C1333 C1335 1.433 . S
C1334 C1330 1.350 . S
C1334 C1331 1.463 . S
C1334 N1338 1.427 . S
C1335 H1325 0.929 . S
C1335 C1333 1.433 . S
C1335 N1338 1.384 . S
C1336 H1327 0.929 . S
C1336 C1328 1.378 . S
C1336 C1331 1.350 . S
C1337 H1324 0.929 . S
C1337 C1329 1.433 . S
C1337 N1339 1.384 . S
N1338 C1334 1.427 . S
N1338 C1335 1.384 . S
N1339 C1331 1.427 . S
N1339 C1337 1.384 . S
H1340 C1346 0.930 . S
H1341 C1350 0.930 . S
H1342 C1355 0.929 . S
H1343 C1353 0.929 . S
H1344 C1348 0.929 . S
H1345 C1354 0.929 . S
C1346 H1340 0.930 . S
C1346 C1347 1.367 . S
C1346 C1354 1.378 . S
C1347 C1346 1.367 . S
C1347 C1355 1.433 . S
C1348 H1344 0.929 . S
C1348 C1350 1.378 . S
C1348 C1352 1.350 . S
C1349 C1352 1.463 . S
C1349 C1354 1.350 . S
C1349 N1357 1.427 . S
C1350 H1341 0.930 . S
C1350 C1348 1.378 . S
C1350 C1351 1.367 . S
C1351 C1350 1.367 . S
C1351 C1353 1.433 . S
C1352 C1348 1.350 . S
C1352 C1349 1.463 . S
C1352 N1356 1.427 . S
C1353 H1343 0.929 . S
C1353 C1351 1.433 . S
C1353 N1356 1.384 . S
C1354 H1345 0.929 . S
C1354 C1346 1.378 . S
C1354 C1349 1.350 . S
C1355 H1342 0.929 . S
C1355 C1347 1.433 . S
C1355 N1357 1.384 . S
N1356 C1352 1.427 . S
N1356 C1353 1.384 . S
N1357 C1349 1.427 . S
N1357 C1355 1.384 . S
H1358 C1364 0.930 . S
H1359 C1368 0.930 . S
H1360 C1373 0.929 . S
H1361 C1371 0.929 . S
H1362 C1366 0.929 . S
H1363 C1372 0.929 . S
C1364 H1358 0.930 . S
C1364 C1365 1.367 . S
C1364 C1372 1.378 . S
C1365 C1364 1.367 . S
C1365 C1373 1.433 . S
C1366 H1362 0.929 . S
C1366 C1368 1.378 . S
C1366 C1370 1.350 . S
C1367 C1370 1.463 . S
C1367 C1372 1.350 . S
C1367 N1375 1.427 . S
C1368 H1359 0.930 . S
C1368 C1366 1.378 . S
C1368 C1369 1.367 . S
C1369 C1368 1.367 . S
C1369 C1371 1.433 . S
C1370 C1366 1.350 . S
C1370 C1367 1.463 . S
C1370 N1374 1.427 . S
C1371 H1361 0.929 . S
C1371 C1369 1.433 . S
C1371 N1374 1.384 . S
C1372 H1363 0.929 . S
C1372 C1364 1.378 . S
C1372 C1367 1.350 . S
C1373 H1360 0.929 . S
C1373 C1365 1.433 . S
C1373 N1375 1.384 . S
N1374 C1370 1.427 . S
N1374 C1371 1.384 . S
N1375 C1367 1.427 . S
N1375 C1373 1.384 . S
H1376 C1382 0.930 . S
H1377 C1386 0.930 . S
H1378 C1391 0.929 . S
H1379 C1389 0.929 . S
H1380 C1384 0.929 . S
H1381 C1390 0.929 . S
C1382 H1376 0.930 . S
C1382 C1383 1.367 . S
C1382 C1390 1.378 . S
C1383 C1382 1.367 . S
C1383 C1391 1.433 . S
C1384 H1380 0.929 . S
C1384 C1386 1.378 . S
C1384 C1388 1.350 . S
C1385 C1388 1.463 . S
C1385 C1390 1.350 . S
C1385 N1393 1.427 . S
C1386 H1377 0.930 . S
C1386 C1384 1.378 . S
C1386 C1387 1.367 . S
C1387 C1386 1.367 . S
C1387 C1389 1.433 . S
C1388 C1384 1.350 . S
C1388 C1385 1.463 . S
C1388 N1392 1.427 . S
C1389 H1379 0.929 . S
C1389 C1387 1.433 . S
C1389 N1392 1.384 . S
C1390 H1381 0.929 . S
C1390 C1382 1.378 . S
C1390 C1385 1.350 . S
C1391 H1378 0.929 . S
C1391 C1383 1.433 . S
C1391 N1393 1.384 . S
N1392 C1388 1.427 . S
N1392 C1389 1.384 . S
N1393 C1385 1.427 . S
N1393 C1391 1.384 . S
H1394 C1400 0.930 . S
H1395 C1404 0.930 . S
H1396 C1409 0.929 . S
H1397 C1407 0.929 . S
H1398 C1402 0.929 . S
H1399 C1408 0.929 . S
C1400 H1394 0.930 . S
C1400 C1401 1.367 . S
C1400 C1408 1.378 . S
C1401 C1400 1.367 . S
C1401 C1409 1.433 . S
C1402 H1398 0.929 . S
C1402 C1404 1.378 . S
C1402 C1406 1.350 . S
C1403 C1406 1.463 . S
C1403 C1408 1.350 . S
C1403 N1411 1.427 . S
C1404 H1395 0.930 . S
C1404 C1402 1.378 . S
C1404 C1405 1.367 . S
C1405 C1404 1.367 . S
C1405 C1407 1.433 . S
C1406 C1402 1.350 . S
C1406 C1403 1.463 . S
C1406 N1410 1.427 . S
C1407 H1397 0.929 . S
C1407 C1405 1.433 . S
C1407 N1410 1.384 . S
C1408 H1399 0.929 . S
C1408 C1400 1.378 . S
C1408 C1403 1.350 . S
C1409 H1396 0.929 . S
C1409 C1401 1.433 . S
C1409 N1411 1.384 . S
N1410 C1406 1.427 . S
N1410 C1407 1.384 . S
N1411 C1403 1.427 . S
N1411 C1409 1.384 . S
H1412 C1418 0.930 . S
H1413 C1422 0.930 . S
H1414 C1427 0.929 . S
H1415 C1425 0.929 . S
H1416 C1420 0.929 . S
H1417 C1426 0.929 . S
C1418 H1412 0.930 . S
C1418 C1419 1.367 . S
C1418 C1426 1.378 . S
C1419 C1418 1.367 . S
C1419 C1427 1.433 . S
C1420 H1416 0.929 . S
C1420 C1422 1.378 . S
C1420 C1424 1.350 . S
C1421 C1424 1.463 . S
C1421 C1426 1.350 . S
C1421 N1429 1.427 . S
C1422 H1413 0.930 . S
C1422 C1420 1.378 . S
C1422 C1423 1.367 . S
C1423 C1422 1.367 . S
C1423 C1425 1.433 . S
C1424 C1420 1.350 . S
C1424 C1421 1.463 . S
C1424 N1428 1.427 . S
C1425 H1415 0.929 . S
C1425 C1423 1.433 . S
C1425 N1428 1.384 . S
C1426 H1417 0.929 . S
C1426 C1418 1.378 . S
C1426 C1421 1.350 . S
C1427 H1414 0.929 . S
C1427 C1419 1.433 . S
C1427 N1429 1.384 . S
N1428 C1424 1.427 . S
N1428 C1425 1.384 . S
N1429 C1421 1.427 . S
N1429 C1427 1.384 . S
H1430 C1436 0.930 . S
H1431 C1440 0.930 . S
H1432 C1445 0.929 . S
H1433 C1443 0.929 . S
H1434 C1438 0.929 . S
H1435 C1444 0.929 . S
C1436 H1430 0.930 . S
C1436 C1437 1.367 . S
C1436 C1444 1.378 . S
C1437 C1436 1.367 . S
C1437 C1445 1.433 . S
C1438 H1434 0.929 . S
C1438 C1440 1.378 . S
C1438 C1442 1.350 . S
C1439 C1442 1.463 . S
C1439 C1444 1.350 . S
C1439 N1447 1.427 . S
C1440 H1431 0.930 . S
C1440 C1438 1.378 . S
C1440 C1441 1.367 . S
C1441 C1440 1.367 . S
C1441 C1443 1.433 . S
C1442 C1438 1.350 . S
C1442 C1439 1.463 . S
C1442 N1446 1.427 . S
C1443 H1433 0.929 . S
C1443 C1441 1.433 . S
C1443 N1446 1.384 . S
C1444 H1435 0.929 . S
C1444 C1436 1.378 . S
C1444 C1439 1.350 . S
C1445 H1432 0.929 . S
C1445 C1437 1.433 . S
C1445 N1447 1.384 . S
N1446 C1442 1.427 . S
N1446 C1443 1.384 . S
N1447 C1439 1.427 . S
N1447 C1445 1.384 . S
H1448 C1454 0.930 . S
H1449 C1458 0.930 . S
H1450 C1463 0.929 . S
H1451 C1461 0.929 . S
H1452 C1456 0.929 . S
H1453 C1462 0.929 . S
C1454 H1448 0.930 . S
C1454 C1455 1.367 . S
C1454 C1462 1.378 . S
C1455 C1454 1.367 . S
C1455 C1463 1.433 . S
C1456 H1452 0.929 . S
C1456 C1458 1.378 . S
C1456 C1460 1.350 . S
C1457 C1460 1.463 . S
C1457 C1462 1.350 . S
C1457 N1465 1.427 . S
C1458 H1449 0.930 . S
C1458 C1456 1.378 . S
C1458 C1459 1.367 . S
C1459 C1458 1.367 . S
C1459 C1461 1.433 . S
C1460 C1456 1.350 . S
C1460 C1457 1.463 . S
C1460 N1464 1.427 . S
C1461 H1451 0.929 . S
C1461 C1459 1.433 . S
C1461 N1464 1.384 . S
C1462 H1453 0.929 . S
C1462 C1454 1.378 . S
C1462 C1457 1.350 . S
C1463 H1450 0.929 . S
C1463 C1455 1.433 . S
C1463 N1465 1.384 . S
N1464 C1460 1.427 . S
N1464 C1461 1.384 . S
N1465 C1457 1.427 . S
N1465 C1463 1.384 . S
H1466 C1472 0.930 . S
H1467 C1476 0.930 . S
H1468 C1481 0.929 . S
H1469 C1479 0.929 . S
H1470 C1474 0.929 . S
H1471 C1480 0.929 . S
C1472 H1466 0.930 . S
C1472 C1473 1.367 . S
C1472 C1480 1.378 . S
C1473 C1472 1.367 . S
C1473 C1481 1.433 . S
C1474 H1470 0.929 . S
C1474 C1476 1.378 . S
C1474 C1478 1.350 . S
C1475 C1478 1.463 . S
C1475 C1480 1.350 . S
C1475 N1483 1.427 . S
C1476 H1467 0.930 . S
C1476 C1474 1.378 . S
C1476 C1477 1.367 . S
C1477 C1476 1.367 . S
C1477 C1479 1.433 . S
C1478 C1474 1.350 . S
C1478 C1475 1.463 . S
C1478 N1482 1.427 . S
C1479 H1469 0.929 . S
C1479 C1477 1.433 . S
C1479 N1482 1.384 . S
C1480 H1471 0.929 . S
C1480 C1472 1.378 . S
C1480 C1475 1.350 . S
C1481 H1468 0.929 . S
C1481 C1473 1.433 . S
C1481 N1483 1.384 . S
N1482 C1478 1.427 . S
N1482 C1479 1.384 . S
N1483 C1475 1.427 . S
N1483 C1481 1.384 . S
H1484 C1490 0.930 . S
H1485 C1494 0.930 . S
H1486 C1499 0.929 . S
H1487 C1497 0.929 . S
H1488 C1492 0.929 . S
H1489 C1498 0.929 . S
C1490 H1484 0.930 . S
C1490 C1491 1.367 . S
C1490 C1498 1.378 . S
C1491 C1490 1.367 . S
C1491 C1499 1.433 . S
C1492 H1488 0.929 . S
C1492 C1494 1.378 . S
C1492 C1496 1.350 . S
C1493 C1496 1.463 . S
C1493 C1498 1.350 . S
C1493 N1501 1.427 . S
C1494 H1485 0.930 . S
C1494 C1492 1.378 . S
C1494 C1495 1.367 . S
C1495 C1494 1.367 . S
C1495 C1497 1.433 . S
C1496 C1492 1.350 . S
C1496 C1493 1.463 . S
C1496 N1500 1.427 . S
C1497 H1487 0.929 . S
C1497 C1495 1.433 . S
C1497 N1500 1.384 . S
C1498 H1489 0.929 . S
C1498 C1490 1.378 . S
C1498 C1493 1.350 . S
C1499 H1486 0.929 . S
C1499 C1491 1.433 . S
C1499 N1501 1.384 . S
N1500 C1496 1.427 . S
N1500 C1497 1.384 . S
N1501 C1493 1.427 . S
N1501 C1499 1.384 . S
H1502 C1508 0.930 . S
H1503 C1512 0.930 . S
H1504 C1517 0.929 . S
H1505 C1515 0.929 . S
H1506 C1510 0.929 . S
H1507 C1516 0.929 . S
C1508 H1502 0.930 . S
C1508 C1509 1.367 . S
C1508 C1516 1.378 . S
C1509 C1508 1.367 . S
C1509 C1517 1.433 . S
C1510 H1506 0.929 . S
C1510 C1512 1.378 . S
C1510 C1514 1.350 . S
C1511 C1514 1.463 . S
C1511 C1516 1.350 . S
C1511 N1519 1.427 . S
C1512 H1503 0.930 . S
C1512 C1510 1.378 . S
C1512 C1513 1.367 . S
C1513 C1512 1.367 . S
C1513 C1515 1.433 . S
C1514 C1510 1.350 . S
C1514 C1511 1.463 . S
C1514 N1518 1.427 . S
C1515 H1505 0.929 . S
C1515 C1513 1.433 . S
C1515 N1518 1.384 . S
C1516 H1507 0.929 . S
C1516 C1508 1.378 . S
C1516 C1511 1.350 . S
C1517 H1504 0.929 . S
C1517 C1509 1.433 . S
C1517 N1519 1.384 . S
N1518 C1514 1.427 . S
N1518 C1515 1.384 . S
N1519 C1511 1.427 . S
N1519 C1517 1.384 . S
H1520 C1526 0.930 . S
H1521 C1530 0.930 . S
H1522 C1535 0.929 . S
H1523 C1533 0.929 . S
H1524 C1528 0.929 . S
H1525 C1534 0.929 . S
C1526 H1520 0.930 . S
C1526 C1527 1.367 . S
C1526 C1534 1.378 . S
C1527 C1526 1.367 . S
C1527 C1535 1.433 . S
C1528 H1524 0.929 . S
C1528 C1530 1.378 . S
C1528 C1532 1.350 . S
C1529 C1532 1.463 . S
C1529 C1534 1.350 . S
C1529 N1537 1.427 . S
C1530 H1521 0.930 . S
C1530 C1528 1.378 . S
C1530 C1531 1.367 . S
C1531 C1530 1.367 . S
C1531 C1533 1.433 . S
C1532 C1528 1.350 . S
C1532 C1529 1.463 . S
C1532 N1536 1.427 . S
C1533 H1523 0.929 . S
C1533 C1531 1.433 . S
C1533 N1536 1.384 . S
C1534 H1525 0.929 . S
C1534 C1526 1.378 . S
C1534 C1529 1.350 . S
C1535 H1522 0.929 . S
C1535 C1527 1.433 . S
C1535 N1537 1.384 . S
N1536 C1532 1.427 . S
N1536 C1533 1.384 . S
N1537 C1529 1.427 . S
N1537 C1535 1.384 . S
H1538 C1544 0.930 . S
H1539 C1548 0.930 . S
H1540 C1553 0.929 . S
H1541 C1551 0.929 . S
H1542 C1546 0.929 . S
H1543 C1552 0.929 . S
C1544 H1538 0.930 . S
C1544 C1545 1.367 . S
C1544 C1552 1.378 . S
C1545 C1544 1.367 . S
C1545 C1553 1.433 . S
C1546 H1542 0.929 . S
C1546 C1548 1.378 . S
C1546 C1550 1.350 . S
C1547 C1550 1.463 . S
C1547 C1552 1.350 . S
C1547 N1555 1.427 . S
C1548 H1539 0.930 . S
C1548 C1546 1.378 . S
C1548 C1549 1.367 . S
C1549 C1548 1.367 . S
C1549 C1551 1.433 . S
C1550 C1546 1.350 . S
C1550 C1547 1.463 . S
C1550 N1554 1.427 . S
C1551 H1541 0.929 . S
C1551 C1549 1.433 . S
C1551 N1554 1.384 . S
C1552 H1543 0.929 . S
C1552 C1544 1.378 . S
C1552 C1547 1.350 . S
C1553 H1540 0.929 . S
C1553 C1545 1.433 . S
C1553 N1555 1.384 . S
N1554 C1550 1.427 . S
N1554 C1551 1.384 . S
N1555 C1547 1.427 . S
N1555 C1553 1.384 . S
H1556 C1562 0.930 . S
H1557 C1566 0.930 . S
H1558 C1571 0.929 . S
H1559 C1569 0.929 . S
H1560 C1564 0.929 . S
H1561 C1570 0.929 . S
C1562 H1556 0.930 . S
C1562 C1563 1.367 . S
C1562 C1570 1.378 . S
C1563 C1562 1.367 . S
C1563 C1571 1.433 . S
C1564 H1560 0.929 . S
C1564 C1566 1.378 . S
C1564 C1568 1.350 . S
C1565 C1568 1.463 . S
C1565 C1570 1.350 . S
C1565 N1573 1.427 . S
C1566 H1557 0.930 . S
C1566 C1564 1.378 . S
C1566 C1567 1.367 . S
C1567 C1566 1.367 . S
C1567 C1569 1.433 . S
C1568 C1564 1.350 . S
C1568 C1565 1.463 . S
C1568 N1572 1.427 . S
C1569 H1559 0.929 . S
C1569 C1567 1.433 . S
C1569 N1572 1.384 . S
C1570 H1561 0.929 . S
C1570 C1562 1.378 . S
C1570 C1565 1.350 . S
C1571 H1558 0.929 . S
C1571 C1563 1.433 . S
C1571 N1573 1.384 . S
N1572 C1568 1.427 . S
N1572 C1569 1.384 . S
N1573 C1565 1.427 . S
N1573 C1571 1.384 . S
H1574 C1580 0.930 . S
H1575 C1584 0.930 . S
H1576 C1589 0.929 . S
H1577 C1587 0.929 . S
H1578 C1582 0.929 . S
H1579 C1588 0.929 . S
C1580 H1574 0.930 . S
C1580 C1581 1.367 . S
C1580 C1588 1.378 . S
C1581 C1580 1.367 . S
C1581 C1589 1.433 . S
C1582 H1578 0.929 . S
C1582 C1584 1.378 . S
C1582 C1586 1.350 . S
C1583 C1586 1.463 . S
C1583 C1588 1.350 . S
C1583 N1591 1.427 . S
C1584 H1575 0.930 . S
C1584 C1582 1.378 . S
C1584 C1585 1.367 . S
C1585 C1584 1.367 . S
C1585 C1587 1.433 . S
C1586 C1582 1.350 . S
C1586 C1583 1.463 . S
C1586 N1590 1.427 . S
C1587 H1577 0.929 . S
C1587 C1585 1.433 . S
C1587 N1590 1.384 . S
C1588 H1579 0.929 . S
C1588 C1580 1.378 . S
C1588 C1583 1.350 . S
C1589 H1576 0.929 . S
C1589 C1581 1.433 . S
C1589 N1591 1.384 . S
N1590 C1586 1.427 . S
N1590 C1587 1.384 . S
N1591 C1583 1.427 . S
N1591 C1589 1.384 . S
H1592 C1598 0.930 . S
H1593 C1602 0.930 . S
H1594 C1607 0.929 . S
H1595 C1605 0.929 . S
H1596 C1600 0.929 . S
H1597 C1606 0.929 . S
C1598 H1592 0.930 . S
C1598 C1599 1.367 . S
C1598 C1606 1.378 . S
C1599 C1598 1.367 . S
C1599 C1607 1.433 . S
C1600 H1596 0.929 . S
C1600 C1602 1.378 . S
C1600 C1604 1.350 . S
C1601 C1604 1.463 . S
C1601 C1606 1.350 . S
C1601 N1609 1.427 . S
C1602 H1593 0.930 . S
C1602 C1600 1.378 . S
C1602 C1603 1.367 . S
C1603 C1602 1.367 . S
C1603 C1605 1.433 . S
C1604 C1600 1.350 . S
C1604 C1601 1.463 . S
C1604 N1608 1.427 . S
C1605 H1595 0.929 . S
C1605 C1603 1.433 . S
C1605 N1608 1.384 . S
C1606 H1597 0.929 . S
C1606 C1598 1.378 . S
C1606 C1601 1.350 . S
C1607 H1594 0.929 . S
C1607 C1599 1.433 . S
C1607 N1609 1.384 . S
N1608 C1604 1.427 . S
N1608 C1605 1.384 . S
N1609 C1601 1.427 . S
N1609 C1607 1.384 . S
H1610 C1616 0.930 . S
H1611 C1620 0.930 . S
H1612 C1625 0.929 . S
H1613 C1623 0.929 . S
H1614 C1618 0.929 . S
H1615 C1624 0.929 . S
C1616 H1610 0.930 . S
C1616 C1617 1.367 . S
C1616 C1624 1.378 . S
C1617 C1616 1.367 . S
C1617 C1625 1.433 . S
C1618 H1614 0.929 . S
C1618 C1620 1.378 . S
C1618 C1622 1.350 . S
C1619 C1622 1.463 . S
C1619 C1624 1.350 . S
C1619 N1627 1.427 . S
C1620 H1611 0.930 . S
C1620 C1618 1.378 . S
C1620 C1621 1.367 . S
C1621 C1620 1.367 . S
C1621 C1623 1.433 . S
C1622 C1618 1.350 . S
C1622 C1619 1.463 . S
C1622 N1626 1.427 . S
C1623 H1613 0.929 . S
C1623 C1621 1.433 . S
C1623 N1626 1.384 . S
C1624 H1615 0.929 . S
C1624 C1616 1.378 . S
C1624 C1619 1.350 . S
C1625 H1612 0.929 . S
C1625 C1617 1.433 . S
C1625 N1627 1.384 . S
N1626 C1622 1.427 . S
N1626 C1623 1.384 . S
N1627 C1619 1.427 . S
N1627 C1625 1.384 . S
H1628 C1634 0.930 . S
H1629 C1638 0.930 . S
H1630 C1643 0.929 . S
H1631 C1641 0.929 . S
H1632 C1636 0.929 . S
H1633 C1642 0.929 . S
C1634 H1628 0.930 . S
C1634 C1635 1.367 . S
C1634 C1642 1.378 . S
C1635 C1634 1.367 . S
C1635 C1643 1.433 . S
C1636 H1632 0.929 . S
C1636 C1638 1.378 . S
C1636 C1640 1.350 . S
C1637 C1640 1.463 . S
C1637 C1642 1.350 . S
C1637 N1645 1.427 . S
C1638 H1629 0.930 . S
C1638 C1636 1.378 . S
C1638 C1639 1.367 . S
C1639 C1638 1.367 . S
C1639 C1641 1.433 . S
C1640 C1636 1.350 . S
C1640 C1637 1.463 . S
C1640 N1644 1.427 . S
C1641 H1631 0.929 . S
C1641 C1639 1.433 . S
C1641 N1644 1.384 . S
C1642 H1633 0.929 . S
C1642 C1634 1.378 . S
C1642 C1637 1.350 . S
C1643 H1630 0.929 . S
C1643 C1635 1.433 . S
C1643 N1645 1.384 . S
N1644 C1640 1.427 . S
N1644 C1641 1.384 . S
N1645 C1637 1.427 . S
N1645 C1643 1.384 . S
H1646 C1652 0.930 . S
H1647 C1656 0.930 . S
H1648 C1661 0.929 . S
H1649 C1659 0.929 . S
H1650 C1654 0.929 . S
H1651 C1660 0.929 . S
C1652 H1646 0.930 . S
C1652 C1653 1.367 . S
C1652 C1660 1.378 . S
C1653 C1652 1.367 . S
C1653 C1661 1.433 . S
C1654 H1650 0.929 . S
C1654 C1656 1.378 . S
C1654 C1658 1.350 . S
C1655 C1658 1.463 . S
C1655 C1660 1.350 . S
C1655 N1663 1.427 . S
C1656 H1647 0.930 . S
C1656 C1654 1.378 . S
C1656 C1657 1.367 . S
C1657 C1656 1.367 . S
C1657 C1659 1.433 . S
C1658 C1654 1.350 . S
C1658 C1655 1.463 . S
C1658 N1662 1.427 . S
C1659 H1649 0.929 . S
C1659 C1657 1.433 . S
C1659 N1662 1.384 . S
C1660 H1651 0.929 . S
C1660 C1652 1.378 . S
C1660 C1655 1.350 . S
C1661 H1648 0.929 . S
C1661 C1653 1.433 . S
C1661 N1663 1.384 . S
N1662 C1658 1.427 . S
N1662 C1659 1.384 . S
N1663 C1655 1.427 . S
N1663 C1661 1.384 . S
H1664 C1670 0.930 . S
H1665 C1674 0.930 . S
H1666 C1679 0.929 . S
H1667 C1677 0.929 . S
H1668 C1672 0.929 . S
H1669 C1678 0.929 . S
C1670 H1664 0.930 . S
C1670 C1671 1.367 . S
C1670 C1678 1.378 . S
C1671 C1670 1.367 . S
C1671 C1679 1.433 . S
C1672 H1668 0.929 . S
C1672 C1674 1.378 . S
C1672 C1676 1.350 . S
C1673 C1676 1.463 . S
C1673 C1678 1.350 . S
C1673 N1681 1.427 . S
C1674 H1665 0.930 . S
C1674 C1672 1.378 . S
C1674 C1675 1.367 . S
C1675 C1674 1.367 . S
C1675 C1677 1.433 . S
C1676 C1672 1.350 . S
C1676 C1673 1.463 . S
C1676 N1680 1.427 . S
C1677 H1667 0.929 . S
C1677 C1675 1.433 . S
C1677 N1680 1.384 . S
C1678 H1669 0.929 . S
C1678 C1670 1.378 . S
C1678 C1673 1.350 . S
C1679 H1666 0.929 . S
C1679 C1671 1.433 . S
C1679 N1681 1.384 . S
N1680 C1676 1.427 . S
N1680 C1677 1.384 . S
N1681 C1673 1.427 . S
N1681 C1679 1.384 . S
H1682 C1688 0.930 . S
H1683 C1692 0.930 . S
H1684 C1697 0.929 . S
H1685 C1695 0.929 . S
H1686 C1690 0.929 . S
H1687 C1696 0.929 . S
C1688 H1682 0.930 . S
C1688 C1689 1.367 . S
C1688 C1696 1.378 . S
C1689 C1688 1.367 . S
C1689 C1697 1.433 . S
C1690 H1686 0.929 . S
C1690 C1692 1.378 . S
C1690 C1694 1.350 . S
C1691 C1694 1.463 . S
C1691 C1696 1.350 . S
C1691 N1699 1.427 . S
C1692 H1683 0.930 . S
C1692 C1690 1.378 . S
C1692 C1693 1.367 . S
C1693 C1692 1.367 . S
C1693 C1695 1.433 . S
C1694 C1690 1.350 . S
C1694 C1691 1.463 . S
C1694 N1698 1.427 . S
C1695 H1685 0.929 . S
C1695 C1693 1.433 . S
C1695 N1698 1.384 . S
C1696 H1687 0.929 . S
C1696 C1688 1.378 . S
C1696 C1691 1.350 . S
C1697 H1684 0.929 . S
C1697 C1689 1.433 . S
C1697 N1699 1.384 . S
N1698 C1694 1.427 . S
N1698 C1695 1.384 . S
N1699 C1691 1.427 . S
N1699 C1697 1.384 . S
H1700 C1706 0.930 . S
H1701 C1710 0.930 . S
H1702 C1715 0.929 . S
H1703 C1713 0.929 . S
H1704 C1708 0.929 . S
H1705 C1714 0.929 . S
C1706 H1700 0.930 . S
C1706 C1707 1.367 . S
C1706 C1714 1.378 . S
C1707 C1706 1.367 . S
C1707 C1715 1.433 . S
C1708 H1704 0.929 . S
C1708 C1710 1.378 . S
C1708 C1712 1.350 . S
C1709 C1712 1.463 . S
C1709 C1714 1.350 . S
C1709 N1717 1.427 . S
C1710 H1701 0.930 . S
C1710 C1708 1.378 . S
C1710 C1711 1.367 . S
C1711 C1710 1.367 . S
C1711 C1713 1.433 . S
C1712 C1708 1.350 . S
C1712 C1709 1.463 . S
C1712 N1716 1.427 . S
C1713 H1703 0.929 . S
C1713 C1711 1.433 . S
C1713 N1716 1.384 . S
C1714 H1705 0.929 . S
C1714 C1706 1.378 . S
C1714 C1709 1.350 . S
C1715 H1702 0.929 . S
C1715 C1707 1.433 . S
C1715 N1717 1.384 . S
N1716 C1712 1.427 . S
N1716 C1713 1.384 . S
N1717 C1709 1.427 . S
N1717 C1715 1.384 . S
H1718 C1724 0.930 . S
H1719 C1728 0.930 . S
H1720 C1733 0.929 . S
H1721 C1731 0.929 . S
H1722 C1726 0.929 . S
H1723 C1732 0.929 . S
C1724 H1718 0.930 . S
C1724 C1725 1.367 . S
C1724 C1732 1.378 . S
C1725 C1724 1.367 . S
C1725 C1733 1.433 . S
C1726 H1722 0.929 . S
C1726 C1728 1.378 . S
C1726 C1730 1.350 . S
C1727 C1730 1.463 . S
C1727 C1732 1.350 . S
C1727 N1735 1.427 . S
C1728 H1719 0.930 . S
C1728 C1726 1.378 . S
C1728 C1729 1.367 . S
C1729 C1728 1.367 . S
C1729 C1731 1.433 . S
C1730 C1726 1.350 . S
C1730 C1727 1.463 . S
C1730 N1734 1.427 . S
C1731 H1721 0.929 . S
C1731 C1729 1.433 . S
C1731 N1734 1.384 . S
C1732 H1723 0.929 . S
C1732 C1724 1.378 . S
C1732 C1727 1.350 . S
C1733 H1720 0.929 . S
C1733 C1725 1.433 . S
C1733 N1735 1.384 . S
N1734 C1730 1.427 . S
N1734 C1731 1.384 . S
N1735 C1727 1.427 . S
N1735 C1733 1.384 . S
H1736 C1742 0.930 . S
H1737 C1746 0.930 . S
H1738 C1751 0.929 . S
H1739 C1749 0.929 . S
H1740 C1744 0.929 . S
H1741 C1750 0.929 . S
C1742 H1736 0.930 . S
C1742 C1743 1.367 . S
C1742 C1750 1.378 . S
C1743 C1742 1.367 . S
C1743 C1751 1.433 . S
C1744 H1740 0.929 . S
C1744 C1746 1.378 . S
C1744 C1748 1.350 . S
C1745 C1748 1.463 . S
C1745 C1750 1.350 . S
C1745 N1753 1.427 . S
C1746 H1737 0.930 . S
C1746 C1744 1.378 . S
C1746 C1747 1.367 . S
C1747 C1746 1.367 . S
C1747 C1749 1.433 . S
C1748 C1744 1.350 . S
C1748 C1745 1.463 . S
C1748 N1752 1.427 . S
C1749 H1739 0.929 . S
C1749 C1747 1.433 . S
C1749 N1752 1.384 . S
C1750 H1741 0.929 . S
C1750 C1742 1.378 . S
C1750 C1745 1.350 . S
C1751 H1738 0.929 . S
C1751 C1743 1.433 . S
C1751 N1753 1.384 . S
N1752 C1748 1.427 . S
N1752 C1749 1.384 . S
N1753 C1745 1.427 . S
N1753 C1751 1.384 . S
H1754 C1760 0.930 . S
H1755 C1764 0.930 . S
H1756 C1769 0.929 . S
H1757 C1767 0.929 . S
H1758 C1762 0.929 . S
H1759 C1768 0.929 . S
C1760 H1754 0.930 . S
C1760 C1761 1.367 . S
C1760 C1768 1.378 . S
C1761 C1760 1.367 . S
C1761 C1769 1.433 . S
C1762 H1758 0.929 . S
C1762 C1764 1.378 . S
C1762 C1766 1.350 . S
C1763 C1766 1.463 . S
C1763 C1768 1.350 . S
C1763 N1771 1.427 . S
C1764 H1755 0.930 . S
C1764 C1762 1.378 . S
C1764 C1765 1.367 . S
C1765 C1764 1.367 . S
C1765 C1767 1.433 . S
C1766 C1762 1.350 . S
C1766 C1763 1.463 . S
C1766 N1770 1.427 . S
C1767 H1757 0.929 . S
C1767 C1765 1.433 . S
C1767 N1770 1.384 . S
C1768 H1759 0.929 . S
C1768 C1760 1.378 . S
C1768 C1763 1.350 . S
C1769 H1756 0.929 . S
C1769 C1761 1.433 . S
C1769 N1771 1.384 . S
N1770 C1766 1.427 . S
N1770 C1767 1.384 . S
N1771 C1763 1.427 . S
N1771 C1769 1.384 . S
H1772 C1778 0.930 . S
H1773 C1782 0.930 . S
H1774 C1787 0.929 . S
H1775 C1785 0.929 . S
H1776 C1780 0.929 . S
H1777 C1786 0.929 . S
C1778 H1772 0.930 . S
C1778 C1779 1.367 . S
C1778 C1786 1.378 . S
C1779 C1778 1.367 . S
C1779 C1787 1.433 . S
C1780 H1776 0.929 . S
C1780 C1782 1.378 . S
C1780 C1784 1.350 . S
C1781 C1784 1.463 . S
C1781 C1786 1.350 . S
C1781 N1789 1.427 . S
C1782 H1773 0.930 . S
C1782 C1780 1.378 . S
C1782 C1783 1.367 . S
C1783 C1782 1.367 . S
C1783 C1785 1.433 . S
C1784 C1780 1.350 . S
C1784 C1781 1.463 . S
C1784 N1788 1.427 . S
C1785 H1775 0.929 . S
C1785 C1783 1.433 . S
C1785 N1788 1.384 . S
C1786 H1777 0.929 . S
C1786 C1778 1.378 . S
C1786 C1781 1.350 . S
C1787 H1774 0.929 . S
C1787 C1779 1.433 . S
C1787 N1789 1.384 . S
N1788 C1784 1.427 . S
N1788 C1785 1.384 . S
N1789 C1781 1.427 . S
N1789 C1787 1.384 . S
H1790 C1796 0.930 . S
H1791 C1800 0.930 . S
H1792 C1805 0.929 . S
H1793 C1803 0.929 . S
H1794 C1798 0.929 . S
H1795 C1804 0.929 . S
C1796 H1790 0.930 . S
C1796 C1797 1.367 . S
C1796 C1804 1.378 . S
C1797 C1796 1.367 . S
C1797 C1805 1.433 . S
C1798 H1794 0.929 . S
C1798 C1800 1.378 . S
C1798 C1802 1.350 . S
C1799 C1802 1.463 . S
C1799 C1804 1.350 . S
C1799 N1807 1.427 . S
C1800 H1791 0.930 . S
C1800 C1798 1.378 . S
C1800 C1801 1.367 . S
C1801 C1800 1.367 . S
C1801 C1803 1.433 . S
C1802 C1798 1.350 . S
C1802 C1799 1.463 . S
C1802 N1806 1.427 . S
C1803 H1793 0.929 . S
C1803 C1801 1.433 . S
C1803 N1806 1.384 . S
C1804 H1795 0.929 . S
C1804 C1796 1.378 . S
C1804 C1799 1.350 . S
C1805 H1792 0.929 . S
C1805 C1797 1.433 . S
C1805 N1807 1.384 . S
N1806 C1802 1.427 . S
N1806 C1803 1.384 . S
N1807 C1799 1.427 . S
N1807 C1805 1.384 . S
H1808 C1814 0.930 . S
H1809 C1818 0.930 . S
H1810 C1823 0.929 . S
H1811 C1821 0.929 . S
H1812 C1816 0.929 . S
H1813 C1822 0.929 . S
C1814 H1808 0.930 . S
C1814 C1815 1.367 . S
C1814 C1822 1.378 . S
C1815 C1814 1.367 . S
C1815 C1823 1.433 . S
C1816 H1812 0.929 . S
C1816 C1818 1.378 . S
C1816 C1820 1.350 . S
C1817 C1820 1.463 . S
C1817 C1822 1.350 . S
C1817 N1825 1.427 . S
C1818 H1809 0.930 . S
C1818 C1816 1.378 . S
C1818 C1819 1.367 . S
C1819 C1818 1.367 . S
C1819 C1821 1.433 . S
C1820 C1816 1.350 . S
C1820 C1817 1.463 . S
C1820 N1824 1.427 . S
C1821 H1811 0.929 . S
C1821 C1819 1.433 . S
C1821 N1824 1.384 . S
C1822 H1813 0.929 . S
C1822 C1814 1.378 . S
C1822 C1817 1.350 . S
C1823 H1810 0.929 . S
C1823 C1815 1.433 . S
C1823 N1825 1.384 . S
N1824 C1820 1.427 . S
N1824 C1821 1.384 . S
N1825 C1817 1.427 . S
N1825 C1823 1.384 . S
H1826 C1832 0.930 . S
H1827 C1836 0.930 . S
H1828 C1841 0.929 . S
H1829 C1839 0.929 . S
H1830 C1834 0.929 . S
H1831 C1840 0.929 . S
C1832 H1826 0.930 . S
C1832 C1833 1.367 . S
C1832 C1840 1.378 . S
C1833 C1832 1.367 . S
C1833 C1841 1.433 . S
C1834 H1830 0.929 . S
C1834 C1836 1.378 . S
C1834 C1838 1.350 . S
C1835 C1838 1.463 . S
C1835 C1840 1.350 . S
C1835 N1843 1.427 . S
C1836 H1827 0.930 . S
C1836 C1834 1.378 . S
C1836 C1837 1.367 . S
C1837 C1836 1.367 . S
C1837 C1839 1.433 . S
C1838 C1834 1.350 . S
C1838 C1835 1.463 . S
C1838 N1842 1.427 . S
C1839 H1829 0.929 . S
C1839 C1837 1.433 . S
C1839 N1842 1.384 . S
C1840 H1831 0.929 . S
C1840 C1832 1.378 . S
C1840 C1835 1.350 . S
C1841 H1828 0.929 . S
C1841 C1833 1.433 . S
C1841 N1843 1.384 . S
N1842 C1838 1.427 . S
N1842 C1839 1.384 . S
N1843 C1835 1.427 . S
N1843 C1841 1.384 . S
H1844 C1850 0.930 . S
H1845 C1854 0.930 . S
H1846 C1859 0.929 . S
H1847 C1857 0.929 . S
H1848 C1852 0.929 . S
H1849 C1858 0.929 . S
C1850 H1844 0.930 . S
C1850 C1851 1.367 . S
C1850 C1858 1.378 . S
C1851 C1850 1.367 . S
C1851 C1859 1.433 . S
C1852 H1848 0.929 . S
C1852 C1854 1.378 . S
C1852 C1856 1.350 . S
C1853 C1856 1.463 . S
C1853 C1858 1.350 . S
C1853 N1861 1.427 . S
C1854 H1845 0.930 . S
C1854 C1852 1.378 . S
C1854 C1855 1.367 . S
C1855 C1854 1.367 . S
C1855 C1857 1.433 . S
C1856 C1852 1.350 . S
C1856 C1853 1.463 . S
C1856 N1860 1.427 . S
C1857 H1847 0.929 . S
C1857 C1855 1.433 . S
C1857 N1860 1.384 . S
C1858 H1849 0.929 . S
C1858 C1850 1.378 . S
C1858 C1853 1.350 . S
C1859 H1846 0.929 . S
C1859 C1851 1.433 . S
C1859 N1861 1.384 . S
N1860 C1856 1.427 . S
N1860 C1857 1.384 . S
N1861 C1853 1.427 . S
N1861 C1859 1.384 . S
H1862 C1868 0.930 . S
H1863 C1872 0.930 . S
H1864 C1877 0.929 . S
H1865 C1875 0.929 . S
H1866 C1870 0.929 . S
H1867 C1876 0.929 . S
C1868 H1862 0.930 . S
C1868 C1869 1.367 . S
C1868 C1876 1.378 . S
C1869 C1868 1.367 . S
C1869 C1877 1.433 . S
C1870 H1866 0.929 . S
C1870 C1872 1.378 . S
C1870 C1874 1.350 . S
C1871 C1874 1.463 . S
C1871 C1876 1.350 . S
C1871 N1879 1.427 . S
C1872 H1863 0.930 . S
C1872 C1870 1.378 . S
C1872 C1873 1.367 . S
C1873 C1872 1.367 . S
C1873 C1875 1.433 . S
C1874 C1870 1.350 . S
C1874 C1871 1.463 . S
C1874 N1878 1.427 . S
C1875 H1865 0.929 . S
C1875 C1873 1.433 . S
C1875 N1878 1.384 . S
C1876 H1867 0.929 . S
C1876 C1868 1.378 . S
C1876 C1871 1.350 . S
C1877 H1864 0.929 . S
C1877 C1869 1.433 . S
C1877 N1879 1.384 . S
N1878 C1874 1.427 . S
N1878 C1875 1.384 . S
N1879 C1871 1.427 . S
N1879 C1877 1.384 . S
H1880 C1886 0.930 . S
H1881 C1890 0.930 . S
H1882 C1895 0.929 . S
H1883 C1893 0.929 . S
H1884 C1888 0.929 . S
H1885 C1894 0.929 . S
C1886 H1880 0.930 . S
C1886 C1887 1.367 . S
C1886 C1894 1.378 . S
C1887 C1886 1.367 . S
C1887 C1895 1.433 . S
C1888 H1884 0.929 . S
C1888 C1890 1.378 . S
C1888 C1892 1.350 . S
C1889 C1892 1.463 . S
C1889 C1894 1.350 . S
C1889 N1897 1.427 . S
C1890 H1881 0.930 . S
C1890 C1888 1.378 . S
C1890 C1891 1.367 . S
C1891 C1890 1.367 . S
C1891 C1893 1.433 . S
C1892 C1888 1.350 . S
C1892 C1889 1.463 . S
C1892 N1896 1.427 . S
C1893 H1883 0.929 . S
C1893 C1891 1.433 . S
C1893 N1896 1.384 . S
C1894 H1885 0.929 . S
C1894 C1886 1.378 . S
C1894 C1889 1.350 . S
C1895 H1882 0.929 . S
C1895 C1887 1.433 . S
C1895 N1897 1.384 . S
N1896 C1892 1.427 . S
N1896 C1893 1.384 . S
N1897 C1889 1.427 . S
N1897 C1895 1.384 . S
H1898 C1904 0.930 . S
H1899 C1908 0.930 . S
H1900 C1913 0.929 . S
H1901 C1911 0.929 . S
H1902 C1906 0.929 . S
H1903 C1912 0.929 . S
C1904 H1898 0.930 . S
C1904 C1905 1.367 . S
C1904 C1912 1.378 . S
C1905 C1904 1.367 . S
C1905 C1913 1.433 . S
C1906 H1902 0.929 . S
C1906 C1908 1.378 . S
C1906 C1910 1.350 . S
C1907 C1910 1.463 . S
C1907 C1912 1.350 . S
C1907 N1915 1.427 . S
C1908 H1899 0.930 . S
C1908 C1906 1.378 . S
C1908 C1909 1.367 . S
C1909 C1908 1.367 . S
C1909 C1911 1.433 . S
C1910 C1906 1.350 . S
C1910 C1907 1.463 . S
C1910 N1914 1.427 . S
C1911 H1901 0.929 . S
C1911 C1909 1.433 . S
C1911 N1914 1.384 . S
C1912 H1903 0.929 . S
C1912 C1904 1.378 . S
C1912 C1907 1.350 . S
C1913 H1900 0.929 . S
C1913 C1905 1.433 . S
C1913 N1915 1.384 . S
N1914 C1910 1.427 . S
N1914 C1911 1.384 . S
N1915 C1907 1.427 . S
N1915 C1913 1.384 . S
H1916 C1922 0.930 . S
H1917 C1926 0.930 . S
H1918 C1931 0.929 . S
H1919 C1929 0.929 . S
H1920 C1924 0.929 . S
H1921 C1930 0.929 . S
C1922 H1916 0.930 . S
C1922 C1923 1.367 . S
C1922 C1930 1.378 . S
C1923 C1922 1.367 . S
C1923 C1931 1.433 . S
C1924 H1920 0.929 . S
C1924 C1926 1.378 . S
C1924 C1928 1.350 . S
C1925 C1928 1.463 . S
C1925 C1930 1.350 . S
C1925 N1933 1.427 . S
C1926 H1917 0.930 . S
C1926 C1924 1.378 . S
C1926 C1927 1.367 . S
C1927 C1926 1.367 . S
C1927 C1929 1.433 . S
C1928 C1924 1.350 . S
C1928 C1925 1.463 . S
C1928 N1932 1.427 . S
C1929 H1919 0.929 . S
C1929 C1927 1.433 . S
C1929 N1932 1.384 . S
C1930 H1921 0.929 . S
C1930 C1922 1.378 . S
C1930 C1925 1.350 . S
C1931 H1918 0.929 . S
C1931 C1923 1.433 . S
C1931 N1933 1.384 . S
N1932 C1928 1.427 . S
N1932 C1929 1.384 . S
N1933 C1925 1.427 . S
N1933 C1931 1.384 . S
H1934 C1940 0.930 . S
H1935 C1944 0.930 . S
H1936 C1949 0.929 . S
H1937 C1947 0.929 . S
H1938 C1942 0.929 . S
H1939 C1948 0.929 . S
C1940 H1934 0.930 . S
C1940 C1941 1.367 . S
C1940 C1948 1.378 . S
C1941 C1940 1.367 . S
C1941 C1949 1.433 . S
C1942 H1938 0.929 . S
C1942 C1944 1.378 . S
C1942 C1946 1.350 . S
C1943 C1946 1.463 . S
C1943 C1948 1.350 . S
C1943 N1951 1.427 . S
C1944 H1935 0.930 . S
C1944 C1942 1.378 . S
C1944 C1945 1.367 . S
C1945 C1944 1.367 . S
C1945 C1947 1.433 . S
C1946 C1942 1.350 . S
C1946 C1943 1.463 . S
C1946 N1950 1.427 . S
C1947 H1937 0.929 . S
C1947 C1945 1.433 . S
C1947 N1950 1.384 . S
C1948 H1939 0.929 . S
C1948 C1940 1.378 . S
C1948 C1943 1.350 . S
C1949 H1936 0.929 . S
C1949 C1941 1.433 . S
C1949 N1951 1.384 . S
N1950 C1946 1.427 . S
N1950 C1947 1.384 . S
N1951 C1943 1.427 . S
N1951 C1949 1.384 . S
H1952 C1958 0.930 . S
H1953 C1962 0.930 . S
H1954 C1967 0.929 . S
H1955 C1965 0.929 . S
H1956 C1960 0.929 . S
H1957 C1966 0.929 . S
C1958 H1952 0.930 . S
C1958 C1959 1.367 . S
C1958 C1966 1.378 . S
C1959 C1958 1.367 . S
C1959 C1967 1.433 . S
C1960 H1956 0.929 . S
C1960 C1962 1.378 . S
C1960 C1964 1.350 . S
C1961 C1964 1.463 . S
C1961 C1966 1.350 . S
C1961 N1969 1.427 . S
C1962 H1953 0.930 . S
C1962 C1960 1.378 . S
C1962 C1963 1.367 . S
C1963 C1962 1.367 . S
C1963 C1965 1.433 . S
C1964 C1960 1.350 . S
C1964 C1961 1.463 . S
C1964 N1968 1.427 . S
C1965 H1955 0.929 . S
C1965 C1963 1.433 . S
C1965 N1968 1.384 . S
C1966 H1957 0.929 . S
C1966 C1958 1.378 . S
C1966 C1961 1.350 . S
C1967 H1954 0.929 . S
C1967 C1959 1.433 . S
C1967 N1969 1.384 . S
N1968 C1964 1.427 . S
N1968 C1965 1.384 . S
N1969 C1961 1.427 . S
N1969 C1967 1.384 . S
H1970 C1976 0.933 1_655 S
H1971 C1980 0.930 . S
H1972 C1985 0.929 . S
H1973 C1983 0.929 . S
H1974 C1978 0.929 . S
H1975 C1984 0.929 . S
C1976 H1970 0.933 1_455 S
C1976 C1977 1.362 . S
C1976 C1984 1.379 1_455 S
C1977 C1976 1.362 . S
C1977 C1985 1.433 . S
C1978 H1974 0.929 . S
C1978 C1980 1.378 . S
C1978 C1982 1.363 . S
C1979 C1982 1.468 . S
C1979 C1984 1.350 1_455 S
C1979 N1987 1.427 . S
C1980 H1971 0.930 . S
C1980 C1978 1.378 . S
C1980 C1981 1.367 1_455 S
C1981 C1980 1.367 1_655 S
C1981 C1983 1.433 . S
C1982 C1978 1.363 . S
C1982 C1979 1.468 . S
C1982 N1986 1.407 1_455 S
C1983 H1973 0.929 . S
C1983 C1981 1.433 . S
C1983 N1986 1.384 . S
C1984 H1975 0.929 . S
C1984 C1976 1.379 1_655 S
C1984 C1979 1.350 1_655 S
C1985 H1972 0.929 . S
C1985 C1977 1.433 . S
C1985 N1987 1.384 . S
N1986 C1982 1.407 1_655 S
N1986 C1983 1.384 . S
N1987 C1979 1.427 . S
N1987 C1985 1.384 . S
H1988 C1994 0.930 . S
H1989 C1998 0.930 . S
H1990 C2003 0.929 . S
H1991 C2001 0.929 . S
H1992 C1996 0.929 . S
H1993 C2002 0.929 . S
C1994 H1988 0.930 . S
C1994 C1995 1.367 . S
C1994 C2002 1.378 . S
C1995 C1994 1.367 . S
C1995 C2003 1.433 . S
C1996 H1992 0.929 . S
C1996 C1998 1.378 . S
C1996 C2000 1.350 . S
C1997 C2000 1.463 . S
C1997 C2002 1.350 . S
C1997 N2005 1.427 . S
C1998 H1989 0.930 . S
C1998 C1996 1.378 . S
C1998 C1999 1.367 . S
C1999 C1998 1.367 . S
C1999 C2001 1.433 . S
C2000 C1996 1.350 . S
C2000 C1997 1.463 . S
C2000 N2004 1.427 . S
C2001 H1991 0.929 . S
C2001 C1999 1.433 . S
C2001 N2004 1.384 . S
C2002 H1993 0.929 . S
C2002 C1994 1.378 . S
C2002 C1997 1.350 . S
C2003 H1990 0.929 . S
C2003 C1995 1.433 . S
C2003 N2005 1.384 . S
N2004 C2000 1.427 . S
N2004 C2001 1.384 . S
N2005 C1997 1.427 . S
N2005 C2003 1.384 . S
H2006 C2012 0.930 . S
H2007 C2016 0.930 . S
H2008 C2021 0.929 . S
H2009 C2019 0.925 1_455 S
H2010 C2014 0.929 . S
H2011 C2020 0.929 . S
C2012 H2006 0.930 . S
C2012 C2013 1.367 . S
C2012 C2020 1.378 . S
C2013 C2012 1.367 . S
C2013 C2021 1.433 . S
C2014 H2010 0.929 . S
C2014 C2016 1.378 . S
C2014 C2018 1.363 . S
C2015 C2018 1.455 1_455 S
C2015 C2020 1.350 . S
C2015 N2023 1.437 . S
C2016 H2007 0.930 . S
C2016 C2014 1.378 . S
C2016 C2017 1.367 . S
C2017 C2016 1.367 . S
C2017 C2019 1.442 . S
C2018 C2014 1.363 . S
C2018 C2015 1.455 1_655 S
C2018 N2022 1.421 1_655 S
C2019 H2009 0.925 1_655 S
C2019 C2017 1.442 . S
C2019 N2022 1.379 1_655 S
C2020 H2011 0.929 . S
C2020 C2012 1.378 . S
C2020 C2015 1.350 . S
C2021 H2008 0.929 . S
C2021 C2013 1.433 . S
C2021 N2023 1.394 . S
N2022 C2018 1.421 1_455 S
N2022 C2019 1.379 1_455 S
N2023 C2015 1.437 . S
N2023 C2021 1.394 . S
H2024 C2030 0.930 . S
H2025 C2034 0.930 . S
H2026 C2039 0.929 . S
H2027 C2037 0.929 . S
H2028 C2032 0.929 . S
H2029 C2038 0.929 . S
C2030 H2024 0.930 . S
C2030 C2031 1.367 . S
C2030 C2038 1.378 . S
C2031 C2030 1.367 . S
C2031 C2039 1.433 . S
C2032 H2028 0.929 . S
C2032 C2034 1.378 . S
C2032 C2036 1.350 . S
C2033 C2036 1.463 . S
C2033 C2038 1.350 . S
C2033 N2041 1.427 . S
C2034 H2025 0.930 . S
C2034 C2032 1.378 . S
C2034 C2035 1.367 . S
C2035 C2034 1.367 . S
C2035 C2037 1.433 . S
C2036 C2032 1.350 . S
C2036 C2033 1.463 . S
C2036 N2040 1.427 . S
C2037 H2027 0.929 . S
C2037 C2035 1.433 . S
C2037 N2040 1.384 . S
C2038 H2029 0.929 . S
C2038 C2030 1.378 . S
C2038 C2033 1.350 . S
C2039 H2026 0.929 . S
C2039 C2031 1.433 . S
C2039 N2041 1.384 . S
N2040 C2036 1.427 . S
N2040 C2037 1.384 . S
N2041 C2033 1.427 . S
N2041 C2039 1.384 . S
H2042 C2048 0.930 . S
H2043 C2052 0.930 . S
H2044 C2057 0.929 . S
H2045 C2055 0.929 1_455 S
H2046 C2050 0.929 . S
H2047 C2056 0.929 . S
C2048 H2042 0.930 . S
C2048 C2049 1.367 . S
C2048 C2056 1.378 . S
C2049 C2048 1.367 . S
C2049 C2057 1.433 1_455 S
C2050 H2046 0.929 . S
C2050 C2052 1.378 . S
C2050 C2054 1.350 . S
C2051 C2054 1.453 1_455 S
C2051 C2056 1.370 . S
C2051 N2059 1.415 1_455 S
C2052 H2043 0.930 . S
C2052 C2050 1.378 . S
C2052 C2053 1.367 . S
C2053 C2052 1.367 . S
C2053 C2055 1.433 . S
C2054 C2050 1.350 . S
C2054 C2051 1.453 1_655 S
C2054 N2058 1.427 1_655 S
C2055 H2045 0.929 1_655 S
C2055 C2053 1.433 . S
C2055 N2058 1.384 1_655 S
C2056 H2047 0.929 . S
C2056 C2048 1.378 . S
C2056 C2051 1.370 . S
C2057 H2044 0.929 . S
C2057 C2049 1.433 1_655 S
C2057 N2059 1.384 . S
N2058 C2054 1.427 1_455 S
N2058 C2055 1.384 1_455 S
N2059 C2051 1.415 1_655 S
N2059 C2057 1.384 . S
H2060 C2066 0.930 . S
H2061 C2070 0.930 . S
H2062 C2075 0.929 . S
H2063 C2073 0.929 . S
H2064 C2068 0.929 . S
H2065 C2074 0.929 . S
C2066 H2060 0.930 . S
C2066 C2067 1.367 . S
C2066 C2074 1.378 . S
C2067 C2066 1.367 . S
C2067 C2075 1.433 . S
C2068 H2064 0.929 . S
C2068 C2070 1.378 . S
C2068 C2072 1.350 . S
C2069 C2072 1.463 . S
C2069 C2074 1.350 . S
C2069 N2077 1.427 . S
C2070 H2061 0.930 . S
C2070 C2068 1.378 . S
C2070 C2071 1.367 . S
C2071 C2070 1.367 . S
C2071 C2073 1.433 . S
C2072 C2068 1.350 . S
C2072 C2069 1.463 . S
C2072 N2076 1.427 . S
C2073 H2063 0.929 . S
C2073 C2071 1.433 . S
C2073 N2076 1.384 . S
C2074 H2065 0.929 . S
C2074 C2066 1.378 . S
C2074 C2069 1.350 . S
C2075 H2062 0.929 . S
C2075 C2067 1.433 . S
C2075 N2077 1.384 . S
N2076 C2072 1.427 . S
N2076 C2073 1.384 . S
N2077 C2069 1.427 . S
N2077 C2075 1.384 . S
H2078 C2084 0.925 1_655 S
H2079 C2088 0.930 . S
H2080 C2093 0.929 . S
H2081 C2091 0.929 . S
H2082 C2086 0.929 1_455 S
H2083 C2092 0.929 . S
C2084 H2078 0.925 1_455 S
C2084 C2085 1.367 . S
C2084 C2092 1.378 1_455 S
C2085 C2084 1.367 . S
C2085 C2093 1.433 . S
C2086 H2082 0.929 1_655 S
C2086 C2088 1.378 . S
C2086 C2090 1.350 . S
C2087 C2090 1.463 . S
C2087 C2092 1.350 . S
C2087 N2095 1.427 1_655 S
C2088 H2079 0.930 . S
C2088 C2086 1.378 . S
C2088 C2089 1.367 . S
C2089 C2088 1.367 . S
C2089 C2091 1.433 . S
C2090 C2086 1.350 . S
C2090 C2087 1.463 . S
C2090 N2094 1.427 . S
C2091 H2081 0.929 . S
C2091 C2089 1.433 . S
C2091 N2094 1.384 . S
C2092 H2083 0.929 . S
C2092 C2084 1.378 1_655 S
C2092 C2087 1.350 . S
C2093 H2080 0.929 . S
C2093 C2085 1.433 . S
C2093 N2095 1.384 . S
N2094 C2090 1.427 . S
N2094 C2091 1.384 . S
N2095 C2087 1.427 1_455 S
N2095 C2093 1.384 . S
H2096 C2102 0.930 . S
H2097 C2106 0.930 . S
H2098 C2111 0.929 . S
H2099 C2109 0.929 . S
H2100 C2104 0.929 . S
H2101 C2110 0.929 . S
C2102 H2096 0.930 . S
C2102 C2103 1.367 . S
C2102 C2110 1.378 . S
C2103 C2102 1.367 . S
C2103 C2111 1.433 . S
C2104 H2100 0.929 . S
C2104 C2106 1.378 . S
C2104 C2108 1.350 . S
C2105 C2108 1.463 . S
C2105 C2110 1.350 . S
C2105 N2113 1.427 . S
C2106 H2097 0.930 . S
C2106 C2104 1.378 . S
C2106 C2107 1.367 . S
C2107 C2106 1.367 . S
C2107 C2109 1.433 . S
C2108 C2104 1.350 . S
C2108 C2105 1.463 . S
C2108 N2112 1.427 . S
C2109 H2099 0.929 . S
C2109 C2107 1.433 . S
C2109 N2112 1.384 . S
C2110 H2101 0.929 . S
C2110 C2102 1.378 . S
C2110 C2105 1.350 . S
C2111 H2098 0.929 . S
C2111 C2103 1.433 . S
C2111 N2113 1.384 . S
N2112 C2108 1.427 . S
N2112 C2109 1.384 . S
N2113 C2105 1.427 . S
N2113 C2111 1.384 . S
H2114 C2120 0.930 . S
H2115 C2124 0.930 . S
H2116 C2129 0.929 . S
H2117 C2127 0.929 . S
H2118 C2122 0.935 . S
H2119 C2128 0.929 . S
C2120 H2114 0.930 . S
C2120 C2121 1.367 . S
C2120 C2128 1.378 . S
C2121 C2120 1.367 . S
C2121 C2129 1.433 . S
C2122 H2118 0.935 . S
C2122 C2124 1.372 1_455 S
C2122 C2126 1.350 . S
C2123 C2126 1.460 . S
C2123 C2128 1.350 . S
C2123 N2131 1.427 . S
C2124 H2115 0.930 . S
C2124 C2122 1.372 1_655 S
C2124 C2125 1.367 . S
C2125 C2124 1.367 . S
C2125 C2127 1.433 . S
C2126 C2122 1.350 . S
C2126 C2123 1.460 . S
C2126 N2130 1.430 1_455 S
C2127 H2117 0.929 . S
C2127 C2125 1.433 . S
C2127 N2130 1.384 . S
C2128 H2119 0.929 . S
C2128 C2120 1.378 . S
C2128 C2123 1.350 . S
C2129 H2116 0.929 . S
C2129 C2121 1.433 . S
C2129 N2131 1.384 . S
N2130 C2126 1.430 1_655 S
N2130 C2127 1.384 . S
N2131 C2123 1.427 . S
N2131 C2129 1.384 . S
H2132 C2138 0.930 . S
H2133 C2142 0.930 . S
H2134 C2147 0.929 . S
H2135 C2145 0.929 . S
H2136 C2140 0.929 . S
H2137 C2146 0.929 . S
C2138 H2132 0.930 . S
C2138 C2139 1.367 . S
C2138 C2146 1.378 . S
C2139 C2138 1.367 . S
C2139 C2147 1.433 . S
C2140 H2136 0.929 . S
C2140 C2142 1.378 . S
C2140 C2144 1.350 . S
C2141 C2144 1.463 . S
C2141 C2146 1.350 . S
C2141 N2149 1.427 . S
C2142 H2133 0.930 . S
C2142 C2140 1.378 . S
C2142 C2143 1.367 . S
C2143 C2142 1.367 . S
C2143 C2145 1.433 . S
C2144 C2140 1.350 . S
C2144 C2141 1.463 . S
C2144 N2148 1.427 . S
C2145 H2135 0.929 . S
C2145 C2143 1.433 . S
C2145 N2148 1.384 . S
C2146 H2137 0.929 . S
C2146 C2138 1.378 . S
C2146 C2141 1.350 . S
C2147 H2134 0.929 . S
C2147 C2139 1.433 . S
C2147 N2149 1.384 . S
N2148 C2144 1.427 . S
N2148 C2145 1.384 . S
N2149 C2141 1.427 . S
N2149 C2147 1.384 . S
H2150 C2156 0.930 . S
H2151 C2160 0.930 . S
H2152 C2165 0.929 . S
H2153 C2163 0.944 . S
H2154 C2158 0.929 . S
H2155 C2164 0.929 . S
C2156 H2150 0.930 . S
C2156 C2157 1.367 . S
C2156 C2164 1.378 . S
C2157 C2156 1.367 . S
C2157 C2165 1.433 1_655 S
C2158 H2154 0.929 . S
C2158 C2160 1.378 . S
C2158 C2162 1.350 . S
C2159 C2162 1.449 1_655 S
C2159 C2164 1.386 . S
C2159 N2167 1.402 1_655 S
C2160 H2151 0.930 . S
C2160 C2158 1.378 . S
C2160 C2161 1.367 . S
C2161 C2160 1.367 . S
C2161 C2163 1.411 1_455 S
C2162 C2158 1.350 . S
C2162 C2159 1.449 1_455 S
C2162 N2166 1.427 1_455 S
C2163 H2153 0.944 . S
C2163 C2161 1.411 1_655 S
C2163 N2166 1.391 . S
C2164 H2155 0.929 . S
C2164 C2156 1.378 . S
C2164 C2159 1.386 . S
C2165 H2152 0.929 . S
C2165 C2157 1.433 1_455 S
C2165 N2167 1.384 . S
N2166 C2162 1.427 1_655 S
N2166 C2163 1.391 . S
N2167 C2159 1.402 1_455 S
N2167 C2165 1.384 . S
H2168 C2174 0.930 . S
H2169 C2178 0.930 . S
H2170 C2183 0.929 . S
H2171 C2181 0.929 . S
H2172 C2176 0.929 . S
H2173 C2182 0.929 . S
C2174 H2168 0.930 . S
C2174 C2175 1.367 . S
C2174 C2182 1.378 . S
C2175 C2174 1.367 . S
C2175 C2183 1.433 . S
C2176 H2172 0.929 . S
C2176 C2178 1.378 . S
C2176 C2180 1.350 . S
C2177 C2180 1.463 . S
C2177 C2182 1.350 . S
C2177 N2185 1.427 . S
C2178 H2169 0.930 . S
C2178 C2176 1.378 . S
C2178 C2179 1.367 . S
C2179 C2178 1.367 . S
C2179 C2181 1.433 . S
C2180 C2176 1.350 . S
C2180 C2177 1.463 . S
C2180 N2184 1.427 . S
C2181 H2171 0.929 . S
C2181 C2179 1.433 . S
C2181 N2184 1.384 . S
C2182 H2173 0.929 . S
C2182 C2174 1.378 . S
C2182 C2177 1.350 . S
C2183 H2170 0.929 . S
C2183 C2175 1.433 . S
C2183 N2185 1.384 . S
N2184 C2180 1.427 . S
N2184 C2181 1.384 . S
N2185 C2177 1.427 . S
N2185 C2183 1.384 . S
H2186 C2192 0.930 . S
H2187 C2196 0.917 1_455 S
H2188 C2201 0.929 . S
H2189 C2199 0.929 . S
H2190 C2194 0.929 . S
H2191 C2200 0.929 . S
C2192 H2186 0.930 . S
C2192 C2193 1.367 1_655 S
C2192 C2200 1.378 . S
C2193 C2192 1.367 1_455 S
C2193 C2201 1.433 . S
C2194 H2190 0.929 . S
C2194 C2196 1.371 1_455 S
C2194 C2198 1.350 1_455 S
C2195 C2198 1.468 . S
C2195 C2200 1.362 . S
C2195 N2203 1.409 1_655 S
C2196 H2187 0.917 1_655 S
C2196 C2194 1.371 1_655 S
C2196 C2197 1.387 . S
C2197 C2196 1.387 . S
C2197 C2199 1.433 . S
C2198 C2194 1.350 1_655 S
C2198 C2195 1.468 . S
C2198 N2202 1.427 . S
C2199 H2189 0.929 . S
C2199 C2197 1.433 . S
C2199 N2202 1.384 . S
C2200 H2191 0.929 . S
C2200 C2192 1.378 . S
C2200 C2195 1.362 . S
C2201 H2188 0.929 . S
C2201 C2193 1.433 . S
C2201 N2203 1.384 . S
N2202 C2198 1.427 . S
N2202 C2199 1.384 . S
N2203 C2195 1.409 1_455 S
N2203 C2201 1.384 . S
H2204 C2210 0.930 . S
H2205 C2214 0.930 . S
H2206 C2219 0.929 . S
H2207 C2217 0.929 . S
H2208 C2212 0.929 . S
H2209 C2218 0.929 . S
C2210 H2204 0.930 . S
C2210 C2211 1.367 . S
C2210 C2218 1.378 . S
C2211 C2210 1.367 . S
C2211 C2219 1.433 . S
C2212 H2208 0.929 . S
C2212 C2214 1.378 . S
C2212 C2216 1.350 . S
C2213 C2216 1.463 . S
C2213 C2218 1.350 . S
C2213 N2221 1.427 . S
C2214 H2205 0.930 . S
C2214 C2212 1.378 . S
C2214 C2215 1.367 . S
C2215 C2214 1.367 . S
C2215 C2217 1.433 . S
C2216 C2212 1.350 . S
C2216 C2213 1.463 . S
C2216 N2220 1.427 . S
C2217 H2207 0.929 . S
C2217 C2215 1.433 . S
C2217 N2220 1.384 . S
C2218 H2209 0.929 . S
C2218 C2210 1.378 . S
C2218 C2213 1.350 . S
C2219 H2206 0.929 . S
C2219 C2211 1.433 . S
C2219 N2221 1.384 . S
N2220 C2216 1.427 . S
N2220 C2217 1.384 . S
N2221 C2213 1.427 . S
N2221 C2219 1.384 . S
H2222 C2228 0.930 . S
H2223 C2232 0.930 . S
H2224 C2237 0.964 . S
H2225 C2235 0.929 . S
H2226 C2230 0.929 . S
H2227 C2236 0.929 . S
C2228 H2222 0.930 . S
C2228 C2229 1.367 . S
C2228 C2236 1.378 . S
C2229 C2228 1.367 . S
C2229 C2237 1.382 1_655 S
C2230 H2226 0.929 . S
C2230 C2232 1.378 . S
C2230 C2234 1.388 . S
C2231 C2234 1.448 1_655 S
C2231 C2236 1.350 . S
C2231 N2239 1.427 1_655 S
C2232 H2223 0.930 . S
C2232 C2230 1.378 . S
C2232 C2233 1.367 . S
C2233 C2232 1.367 . S
C2233 C2235 1.433 1_455 S
C2234 C2230 1.388 . S
C2234 C2231 1.448 1_455 S
C2234 N2238 1.401 1_455 S
C2235 H2225 0.929 . S
C2235 C2233 1.433 1_655 S
C2235 N2238 1.384 . S
C2236 H2227 0.929 . S
C2236 C2228 1.378 . S
C2236 C2231 1.350 . S
C2237 H2224 0.964 . S
C2237 C2229 1.382 1_455 S
C2237 N2239 1.400 . S
N2238 C2234 1.401 1_655 S
N2238 C2235 1.384 . S
N2239 C2231 1.427 1_455 S
N2239 C2237 1.400 . S
H2240 C2246 0.930 . S
H2241 C2250 0.930 . S
H2242 C2255 0.929 . S
H2243 C2253 0.929 . S
H2244 C2248 0.929 . S
H2245 C2254 0.929 . S
C2246 H2240 0.930 . S
C2246 C2247 1.367 . S
C2246 C2254 1.378 . S
C2247 C2246 1.367 . S
C2247 C2255 1.433 . S
C2248 H2244 0.929 . S
C2248 C2250 1.378 . S
C2248 C2252 1.350 . S
C2249 C2252 1.463 . S
C2249 C2254 1.350 . S
C2249 N2257 1.427 . S
C2250 H2241 0.930 . S
C2250 C2248 1.378 . S
C2250 C2251 1.367 . S
C2251 C2250 1.367 . S
C2251 C2253 1.433 . S
C2252 C2248 1.350 . S
C2252 C2249 1.463 . S
C2252 N2256 1.427 . S
C2253 H2243 0.929 . S
C2253 C2251 1.433 . S
C2253 N2256 1.384 . S
C2254 H2245 0.929 . S
C2254 C2246 1.378 . S
C2254 C2249 1.350 . S
C2255 H2242 0.929 . S
C2255 C2247 1.433 . S
C2255 N2257 1.384 . S
N2256 C2252 1.427 . S
N2256 C2253 1.384 . S
N2257 C2249 1.427 . S
N2257 C2255 1.384 . S
H2258 C2264 0.930 . S
H2259 C2268 0.930 . S
H2260 C2273 0.929 . S
H2261 C2271 0.929 . S
H2262 C2266 0.929 . S
H2263 C2272 0.929 . S
C2264 H2258 0.930 . S
C2264 C2265 1.367 . S
C2264 C2272 1.378 . S
C2265 C2264 1.367 . S
C2265 C2273 1.433 . S
C2266 H2262 0.929 . S
C2266 C2268 1.378 . S
C2266 C2270 1.350 . S
C2267 C2270 1.463 . S
C2267 C2272 1.350 . S
C2267 N2275 1.427 . S
C2268 H2259 0.930 . S
C2268 C2266 1.378 . S
C2268 C2269 1.367 . S
C2269 C2268 1.367 . S
C2269 C2271 1.433 . S
C2270 C2266 1.350 . S
C2270 C2267 1.463 . S
C2270 N2274 1.427 . S
C2271 H2261 0.929 . S
C2271 C2269 1.433 . S
C2271 N2274 1.384 . S
C2272 H2263 0.929 . S
C2272 C2264 1.378 . S
C2272 C2267 1.350 . S
C2273 H2260 0.929 . S
C2273 C2265 1.433 . S
C2273 N2275 1.384 . S
N2274 C2270 1.427 . S
N2274 C2271 1.384 . S
N2275 C2267 1.427 . S
N2275 C2273 1.384 . S
H2276 C2282 0.930 . S
H2277 C2286 0.930 . S
H2278 C2291 0.929 . S
H2279 C2289 0.929 . S
H2280 C2284 0.929 . S
H2281 C2290 0.929 . S
C2282 H2276 0.930 . S
C2282 C2283 1.367 . S
C2282 C2290 1.378 . S
C2283 C2282 1.367 . S
C2283 C2291 1.433 . S
C2284 H2280 0.929 . S
C2284 C2286 1.378 . S
C2284 C2288 1.350 . S
C2285 C2288 1.463 . S
C2285 C2290 1.350 . S
C2285 N2293 1.427 . S
C2286 H2277 0.930 . S
C2286 C2284 1.378 . S
C2286 C2287 1.367 . S
C2287 C2286 1.367 . S
C2287 C2289 1.433 . S
C2288 C2284 1.350 . S
C2288 C2285 1.463 . S
C2288 N2292 1.427 . S
C2289 H2279 0.929 . S
C2289 C2287 1.433 . S
C2289 N2292 1.384 . S
C2290 H2281 0.929 . S
C2290 C2282 1.378 . S
C2290 C2285 1.350 . S
C2291 H2278 0.929 . S
C2291 C2283 1.433 . S
C2291 N2293 1.384 . S
N2292 C2288 1.427 . S
N2292 C2289 1.384 . S
N2293 C2285 1.427 . S
N2293 C2291 1.384 . S
H2294 C2300 0.930 . S
H2295 C2304 0.930 . S
H2296 C2309 0.929 . S
H2297 C2307 0.929 . S
H2298 C2302 0.929 . S
H2299 C2308 0.929 . S
C2300 H2294 0.930 . S
C2300 C2301 1.367 . S
C2300 C2308 1.378 . S
C2301 C2300 1.367 . S
C2301 C2309 1.433 . S
C2302 H2298 0.929 . S
C2302 C2304 1.378 . S
C2302 C2306 1.350 . S
C2303 C2306 1.463 . S
C2303 C2308 1.350 . S
C2303 N2311 1.427 . S
C2304 H2295 0.930 . S
C2304 C2302 1.378 . S
C2304 C2305 1.367 . S
C2305 C2304 1.367 . S
C2305 C2307 1.433 . S
C2306 C2302 1.350 . S
C2306 C2303 1.463 . S
C2306 N2310 1.427 . S
C2307 H2297 0.929 . S
C2307 C2305 1.433 . S
C2307 N2310 1.384 . S
C2308 H2299 0.929 . S
C2308 C2300 1.378 . S
C2308 C2303 1.350 . S
C2309 H2296 0.929 . S
C2309 C2301 1.433 . S
C2309 N2311 1.384 . S
N2310 C2306 1.427 . S
N2310 C2307 1.384 . S
N2311 C2303 1.427 . S
N2311 C2309 1.384 . S
H2312 C2318 0.930 . S
H2313 C2322 0.930 . S
H2314 C2327 0.929 . S
H2315 C2325 0.929 . S
H2316 C2320 0.929 . S
H2317 C2326 0.929 . S
C2318 H2312 0.930 . S
C2318 C2319 1.367 . S
C2318 C2326 1.378 . S
C2319 C2318 1.367 . S
C2319 C2327 1.433 . S
C2320 H2316 0.929 . S
C2320 C2322 1.378 . S
C2320 C2324 1.350 . S
C2321 C2324 1.463 . S
C2321 C2326 1.350 . S
C2321 N2329 1.427 . S
C2322 H2313 0.930 . S
C2322 C2320 1.378 . S
C2322 C2323 1.367 . S
C2323 C2322 1.367 . S
C2323 C2325 1.433 . S
C2324 C2320 1.350 . S
C2324 C2321 1.463 . S
C2324 N2328 1.427 . S
C2325 H2315 0.929 . S
C2325 C2323 1.433 . S
C2325 N2328 1.384 . S
C2326 H2317 0.929 . S
C2326 C2318 1.378 . S
C2326 C2321 1.350 . S
C2327 H2314 0.929 . S
C2327 C2319 1.433 . S
C2327 N2329 1.384 . S
N2328 C2324 1.427 . S
N2328 C2325 1.384 . S
N2329 C2321 1.427 . S
N2329 C2327 1.384 . S
H2330 C2336 0.930 . S
H2331 C2340 0.930 . S
H2332 C2345 0.929 . S
H2333 C2343 0.929 . S
H2334 C2338 0.929 . S
H2335 C2344 0.929 . S
C2336 H2330 0.930 . S
C2336 C2337 1.367 . S
C2336 C2344 1.378 . S
C2337 C2336 1.367 . S
C2337 C2345 1.433 . S
C2338 H2334 0.929 . S
C2338 C2340 1.378 . S
C2338 C2342 1.350 . S
C2339 C2342 1.463 . S
C2339 C2344 1.350 . S
C2339 N2347 1.427 . S
C2340 H2331 0.930 . S
C2340 C2338 1.378 . S
C2340 C2341 1.367 . S
C2341 C2340 1.367 . S
C2341 C2343 1.433 . S
C2342 C2338 1.350 . S
C2342 C2339 1.463 . S
C2342 N2346 1.427 . S
C2343 H2333 0.929 . S
C2343 C2341 1.433 . S
C2343 N2346 1.384 . S
C2344 H2335 0.929 . S
C2344 C2336 1.378 . S
C2344 C2339 1.350 . S
C2345 H2332 0.929 . S
C2345 C2337 1.433 . S
C2345 N2347 1.384 . S
N2346 C2342 1.427 . S
N2346 C2343 1.384 . S
N2347 C2339 1.427 . S
N2347 C2345 1.384 . S
H2348 C2354 0.930 . S
H2349 C2358 0.930 . S
H2350 C2363 0.929 . S
H2351 C2361 0.929 . S
H2352 C2356 0.929 . S
H2353 C2362 0.929 . S
C2354 H2348 0.930 . S
C2354 C2355 1.367 . S
C2354 C2362 1.378 . S
C2355 C2354 1.367 . S
C2355 C2363 1.433 . S
C2356 H2352 0.929 . S
C2356 C2358 1.378 . S
C2356 C2360 1.350 . S
C2357 C2360 1.463 . S
C2357 C2362 1.350 . S
C2357 N2365 1.427 . S
C2358 H2349 0.930 . S
C2358 C2356 1.378 . S
C2358 C2359 1.367 . S
C2359 C2358 1.367 . S
C2359 C2361 1.433 . S
C2360 C2356 1.350 . S
C2360 C2357 1.463 . S
C2360 N2364 1.427 . S
C2361 H2351 0.929 . S
C2361 C2359 1.433 . S
C2361 N2364 1.384 . S
C2362 H2353 0.929 . S
C2362 C2354 1.378 . S
C2362 C2357 1.350 . S
C2363 H2350 0.929 . S
C2363 C2355 1.433 . S
C2363 N2365 1.384 . S
N2364 C2360 1.427 . S
N2364 C2361 1.384 . S
N2365 C2357 1.427 . S
N2365 C2363 1.384 . S
H2366 C2372 0.930 . S
H2367 C2376 0.930 . S
H2368 C2381 0.929 . S
H2369 C2379 0.929 . S
H2370 C2374 0.929 . S
H2371 C2380 0.929 . S
C2372 H2366 0.930 . S
C2372 C2373 1.367 . S
C2372 C2380 1.378 . S
C2373 C2372 1.367 . S
C2373 C2381 1.433 . S
C2374 H2370 0.929 . S
C2374 C2376 1.378 . S
C2374 C2378 1.350 . S
C2375 C2378 1.463 . S
C2375 C2380 1.350 . S
C2375 N2383 1.427 . S
C2376 H2367 0.930 . S
C2376 C2374 1.378 . S
C2376 C2377 1.367 . S
C2377 C2376 1.367 . S
C2377 C2379 1.433 . S
C2378 C2374 1.350 . S
C2378 C2375 1.463 . S
C2378 N2382 1.427 . S
C2379 H2369 0.929 . S
C2379 C2377 1.433 . S
C2379 N2382 1.384 . S
C2380 H2371 0.929 . S
C2380 C2372 1.378 . S
C2380 C2375 1.350 . S
C2381 H2368 0.929 . S
C2381 C2373 1.433 . S
C2381 N2383 1.384 . S
N2382 C2378 1.427 . S
N2382 C2379 1.384 . S
N2383 C2375 1.427 . S
N2383 C2381 1.384 . S
H2384 C2390 0.930 . S
H2385 C2394 0.930 . S
H2386 C2399 0.929 . S
H2387 C2397 0.929 . S
H2388 C2392 0.929 . S
H2389 C2398 0.929 . S
C2390 H2384 0.930 . S
C2390 C2391 1.367 . S
C2390 C2398 1.378 . S
C2391 C2390 1.367 . S
C2391 C2399 1.433 . S
C2392 H2388 0.929 . S
C2392 C2394 1.378 . S
C2392 C2396 1.350 . S
C2393 C2396 1.463 . S
C2393 C2398 1.350 . S
C2393 N2401 1.427 . S
C2394 H2385 0.930 . S
C2394 C2392 1.378 . S
C2394 C2395 1.367 . S
C2395 C2394 1.367 . S
C2395 C2397 1.433 . S
C2396 C2392 1.350 . S
C2396 C2393 1.463 . S
C2396 N2400 1.427 . S
C2397 H2387 0.929 . S
C2397 C2395 1.433 . S
C2397 N2400 1.384 . S
C2398 H2389 0.929 . S
C2398 C2390 1.378 . S
C2398 C2393 1.350 . S
C2399 H2386 0.929 . S
C2399 C2391 1.433 . S
C2399 N2401 1.384 . S
N2400 C2396 1.427 . S
N2400 C2397 1.384 . S
N2401 C2393 1.427 . S
N2401 C2399 1.384 . S
H2402 C2408 0.930 . S
H2403 C2412 0.930 . S
H2404 C2417 0.929 . S
H2405 C2415 0.929 . S
H2406 C2410 0.929 . S
H2407 C2416 0.929 . S
C2408 H2402 0.930 . S
C2408 C2409 1.367 . S
C2408 C2416 1.378 . S
C2409 C2408 1.367 . S
C2409 C2417 1.433 . S
C2410 H2406 0.929 . S
C2410 C2412 1.378 . S
C2410 C2414 1.350 . S
C2411 C2414 1.463 . S
C2411 C2416 1.350 . S
C2411 N2419 1.427 . S
C2412 H2403 0.930 . S
C2412 C2410 1.378 . S
C2412 C2413 1.367 . S
C2413 C2412 1.367 . S
C2413 C2415 1.433 . S
C2414 C2410 1.350 . S
C2414 C2411 1.463 . S
C2414 N2418 1.427 . S
C2415 H2405 0.929 . S
C2415 C2413 1.433 . S
C2415 N2418 1.384 . S
C2416 H2407 0.929 . S
C2416 C2408 1.378 . S
C2416 C2411 1.350 . S
C2417 H2404 0.929 . S
C2417 C2409 1.433 . S
C2417 N2419 1.384 . S
N2418 C2414 1.427 . S
N2418 C2415 1.384 . S
N2419 C2411 1.427 . S
N2419 C2417 1.384 . S
H2420 C2426 0.930 . S
H2421 C2430 0.930 . S
H2422 C2435 0.929 . S
H2423 C2433 0.929 . S
H2424 C2428 0.929 . S
H2425 C2434 0.929 . S
C2426 H2420 0.930 . S
C2426 C2427 1.367 . S
C2426 C2434 1.378 . S
C2427 C2426 1.367 . S
C2427 C2435 1.433 . S
C2428 H2424 0.929 . S
C2428 C2430 1.378 . S
C2428 C2432 1.350 . S
C2429 C2432 1.463 . S
C2429 C2434 1.350 . S
C2429 N2437 1.427 . S
C2430 H2421 0.930 . S
C2430 C2428 1.378 . S
C2430 C2431 1.367 . S
C2431 C2430 1.367 . S
C2431 C2433 1.433 . S
C2432 C2428 1.350 . S
C2432 C2429 1.463 . S
C2432 N2436 1.427 . S
C2433 H2423 0.929 . S
C2433 C2431 1.433 . S
C2433 N2436 1.384 . S
C2434 H2425 0.929 . S
C2434 C2426 1.378 . S
C2434 C2429 1.350 . S
C2435 H2422 0.929 . S
C2435 C2427 1.433 . S
C2435 N2437 1.384 . S
N2436 C2432 1.427 . S
N2436 C2433 1.384 . S
N2437 C2429 1.427 . S
N2437 C2435 1.384 . S
H2438 C2444 0.930 . S
H2439 C2448 0.930 . S
H2440 C2453 0.929 . S
H2441 C2451 0.929 . S
H2442 C2446 0.929 . S
H2443 C2452 0.929 . S
C2444 H2438 0.930 . S
C2444 C2445 1.367 . S
C2444 C2452 1.378 . S
C2445 C2444 1.367 . S
C2445 C2453 1.433 . S
C2446 H2442 0.929 . S
C2446 C2448 1.378 . S
C2446 C2450 1.350 . S
C2447 C2450 1.463 . S
C2447 C2452 1.350 . S
C2447 N2455 1.427 . S
C2448 H2439 0.930 . S
C2448 C2446 1.378 . S
C2448 C2449 1.367 . S
C2449 C2448 1.367 . S
C2449 C2451 1.433 . S
C2450 C2446 1.350 . S
C2450 C2447 1.463 . S
C2450 N2454 1.427 . S
C2451 H2441 0.929 . S
C2451 C2449 1.433 . S
C2451 N2454 1.384 . S
C2452 H2443 0.929 . S
C2452 C2444 1.378 . S
C2452 C2447 1.350 . S
C2453 H2440 0.929 . S
C2453 C2445 1.433 . S
C2453 N2455 1.384 . S
N2454 C2450 1.427 . S
N2454 C2451 1.384 . S
N2455 C2447 1.427 . S
N2455 C2453 1.384 . S
H2456 C2462 0.930 . S
H2457 C2466 0.930 . S
H2458 C2471 0.929 . S
H2459 C2469 0.929 . S
H2460 C2464 0.929 . S
H2461 C2470 0.929 . S
C2462 H2456 0.930 . S
C2462 C2463 1.367 . S
C2462 C2470 1.378 . S
C2463 C2462 1.367 . S
C2463 C2471 1.433 . S
C2464 H2460 0.929 . S
C2464 C2466 1.378 . S
C2464 C2468 1.350 . S
C2465 C2468 1.463 . S
C2465 C2470 1.350 . S
C2465 N2473 1.427 . S
C2466 H2457 0.930 . S
C2466 C2464 1.378 . S
C2466 C2467 1.367 . S
C2467 C2466 1.367 . S
C2467 C2469 1.433 . S
C2468 C2464 1.350 . S
C2468 C2465 1.463 . S
C2468 N2472 1.427 . S
C2469 H2459 0.929 . S
C2469 C2467 1.433 . S
C2469 N2472 1.384 . S
C2470 H2461 0.929 . S
C2470 C2462 1.378 . S
C2470 C2465 1.350 . S
C2471 H2458 0.929 . S
C2471 C2463 1.433 . S
C2471 N2473 1.384 . S
N2472 C2468 1.427 . S
N2472 C2469 1.384 . S
N2473 C2465 1.427 . S
N2473 C2471 1.384 . S
H2474 C2480 0.930 . S
H2475 C2484 0.930 . S
H2476 C2489 0.929 . S
H2477 C2487 0.929 . S
H2478 C2482 0.929 . S
H2479 C2488 0.929 . S
C2480 H2474 0.930 . S
C2480 C2481 1.367 . S
C2480 C2488 1.378 . S
C2481 C2480 1.367 . S
C2481 C2489 1.433 . S
C2482 H2478 0.929 . S
C2482 C2484 1.378 . S
C2482 C2486 1.350 . S
C2483 C2486 1.463 . S
C2483 C2488 1.350 . S
C2483 N2491 1.427 . S
C2484 H2475 0.930 . S
C2484 C2482 1.378 . S
C2484 C2485 1.367 . S
C2485 C2484 1.367 . S
C2485 C2487 1.433 . S
C2486 C2482 1.350 . S
C2486 C2483 1.463 . S
C2486 N2490 1.427 . S
C2487 H2477 0.929 . S
C2487 C2485 1.433 . S
C2487 N2490 1.384 . S
C2488 H2479 0.929 . S
C2488 C2480 1.378 . S
C2488 C2483 1.350 . S
C2489 H2476 0.929 . S
C2489 C2481 1.433 . S
C2489 N2491 1.384 . S
N2490 C2486 1.427 . S
N2490 C2487 1.384 . S
N2491 C2483 1.427 . S
N2491 C2489 1.384 . S
H2492 C2498 0.930 . S
H2493 C2502 0.930 . S
H2494 C2507 0.929 . S
H2495 C2505 0.929 . S
H2496 C2500 0.929 . S
H2497 C2506 0.929 . S
C2498 H2492 0.930 . S
C2498 C2499 1.367 . S
C2498 C2506 1.378 . S
C2499 C2498 1.367 . S
C2499 C2507 1.433 . S
C2500 H2496 0.929 . S
C2500 C2502 1.378 . S
C2500 C2504 1.350 . S
C2501 C2504 1.463 . S
C2501 C2506 1.350 . S
C2501 N2509 1.427 . S
C2502 H2493 0.930 . S
C2502 C2500 1.378 . S
C2502 C2503 1.367 . S
C2503 C2502 1.367 . S
C2503 C2505 1.433 . S
C2504 C2500 1.350 . S
C2504 C2501 1.463 . S
C2504 N2508 1.427 . S
C2505 H2495 0.929 . S
C2505 C2503 1.433 . S
C2505 N2508 1.384 . S
C2506 H2497 0.929 . S
C2506 C2498 1.378 . S
C2506 C2501 1.350 . S
C2507 H2494 0.929 . S
C2507 C2499 1.433 . S
C2507 N2509 1.384 . S
N2508 C2504 1.427 . S
N2508 C2505 1.384 . S
N2509 C2501 1.427 . S
N2509 C2507 1.384 . S
H2510 C2516 0.930 . S
H2511 C2520 0.930 . S
H2512 C2525 0.929 . S
H2513 C2523 0.929 . S
H2514 C2518 0.929 . S
H2515 C2524 0.929 . S
C2516 H2510 0.930 . S
C2516 C2517 1.367 . S
C2516 C2524 1.378 . S
C2517 C2516 1.367 . S
C2517 C2525 1.433 . S
C2518 H2514 0.929 . S
C2518 C2520 1.378 . S
C2518 C2522 1.350 . S
C2519 C2522 1.463 . S
C2519 C2524 1.350 . S
C2519 N2527 1.427 . S
C2520 H2511 0.930 . S
C2520 C2518 1.378 . S
C2520 C2521 1.367 . S
C2521 C2520 1.367 . S
C2521 C2523 1.433 . S
C2522 C2518 1.350 . S
C2522 C2519 1.463 . S
C2522 N2526 1.427 . S
C2523 H2513 0.929 . S
C2523 C2521 1.433 . S
C2523 N2526 1.384 . S
C2524 H2515 0.929 . S
C2524 C2516 1.378 . S
C2524 C2519 1.350 . S
C2525 H2512 0.929 . S
C2525 C2517 1.433 . S
C2525 N2527 1.384 . S
N2526 C2522 1.427 . S
N2526 C2523 1.384 . S
N2527 C2519 1.427 . S
N2527 C2525 1.384 . S
C1095 C9 0.341 . S
C1099 C349 0.372 . S
C1113 C383 0.366 . S
C1117 C43 0.335 . S
C1131 C281 0.376 . S
C1135 C77 0.327 . S
C1149 C111 0.353 . S
C1153 C315 0.362 . S
C1167 C145 0.330 . S
C1171 C485 0.371 . S
C1185 C179 0.360 . S
C1189 C519 0.355 . S
C1203 C417 0.330 . S
C1207 C213 0.372 . S
C1221 C451 0.375 . S
C1225 C247 0.337 . S
C1239 C893 0.336 . S
C1243 C553 0.376 . S
C1257 C927 0.359 . S
C1261 C587 0.342 . S
C1275 C621 0.350 . S
C1279 C825 0.364 . S
C1293 C859 0.367 . S
C1297 C655 0.334 . S
C1311 C689 0.330 . S
C1315 C1029 0.372 . S
C1329 C1063 0.371 . S
C1333 C723 0.342 . S
C1347 C757 0.375 . S
C1351 C961 0.336 . S
C1365 C791 0.373 . S
C1369 C995 0.339 . S
C1383 C2 1.837 . S
C1387 C852 1.839 . S
C1401 C36 1.834 . S
C1405 C818 1.832 . S
C1419 C70 1.837 . S
C1423 C920 1.839 . S
C1437 C104 1.837 . S
C1441 C886 1.839 . S
C1455 C138 1.832 . S
C1459 C988 1.835 . S
C1473 C172 1.839 . S
C1477 C954 1.837 . S
C1491 C1056 1.833 . S
C1495 C206 1.836 . S
C1509 C240 1.832 . S
C1513 C1022 1.832 . S
C1527 C580 1.838 . S
C1531 C274 1.836 . S
C1545 C308 1.833 . S
C1549 C546 1.837 . S
C1563 C342 1.835 . S
C1567 C648 1.832 . S
C1581 C614 1.837 . S
C1585 C376 1.834 . S
C1599 C716 1.837 . S
C1603 C410 1.834 . S
C1617 C682 1.833 . S
C1621 C444 1.836 . S
C1635 C478 1.839 . S
C1639 C784 1.838 . S
C1653 C750 1.838 . S
C1657 C512 1.839 . S
C1671 C73 0.547 . S
C1675 C5 0.545 . S
C1689 C39 0.544 . S
C1693 C107 0.545 . S
C1707 C209 0.555 . S
C1711 C141 0.552 . S
C1725 C175 0.547 . S
C1729 C243 0.549 . S
C1743 C277 0.553 . S
C1747 C345 0.551 . S
C1761 C311 0.546 . S
C1765 C379 0.545 . S
C1779 C481 0.565 . S
C1783 C413 0.567 . S
C1797 C515 0.573 . S
C1801 C447 0.572 . S
C1815 C617 0.571 . S
C1819 C549 0.573 . S
C1833 C583 0.572 . S
C1837 C651 0.574 . S
C1851 C685 0.544 . S
C1855 C753 0.545 . S
C1869 C719 0.575 . S
C1873 C787 0.574 . S
C1887 C889 0.576 . S
C1891 C821 0.576 . S
C1905 C855 0.545 . S
C1909 C923 0.544 . S
C1923 C957 0.548 . S
C1927 C1025 0.550 . S
C1941 C1059 0.544 . S
C1945 C991 0.544 . S
C1959 C781 2.461 . S
C1963 C20 2.446 . S
C1977 C543 2.462 . S
C1981 C54 2.446 . S
C1995 C88 2.440 . S
C1999 C985 2.458 . S
C2013 C203 2.459 . S
C2017 C122 2.440 . S
C2031 C156 2.441 . S
C2035 C645 2.459 . S
C2049 C190 2.440 . S
C2053 C407 2.459 . S
C2067 C849 2.459 . S
C2071 C224 2.444 . S
C2085 C258 2.446 . S
C2089 C67 2.461 . S
C2103 C292 2.440 . S
C2107 C1053 2.458 . S
C2121 C271 2.460 . S
C2125 C326 2.442 . S
C2139 C360 2.444 . S
C2143 C713 2.462 . S
C2157 C394 2.441 . S
C2161 C475 2.458 . S
C2175 C917 2.461 . S
C2179 C428 2.446 . S
C2193 C462 2.445 . S
C2197 C135 2.462 . S
C2211 C577 2.461 . S
C2215 C496 2.446 . S
C2229 C339 2.458 . S
C2233 C530 2.441 . S
C2247 C237 2.460 . S
C2251 C564 2.444 . S
C2265 C598 2.442 . S
C2269 C1087 2.458 . S
C2283 C632 2.442 . S
C2287 C441 2.458 . S
C2301 C666 2.445 . S
C2305 C747 2.460 . S
C2319 C700 2.446 . S
C2323 C101 2.461 . S
C2337 C734 2.443 . S
C2341 C951 2.461 . S
C2355 C305 2.459 . S
C2359 C768 2.443 . S
C2373 C611 2.459 . S
C2377 C802 2.443 . S
C2391 C509 2.462 . S
C2395 C836 2.446 . S
C2409 C870 2.443 . S
C2413 C815 2.459 . S
C2427 C169 2.459 . S
C2431 C904 2.440 . S
C2445 C1019 2.459 . S
C2449 C938 2.441 . S
C2463 C972 2.444 . S
C2467 C373 2.459 . S
C2481 C1006 2.442 . S
C2485 C679 2.461 . S
C2499 C33 2.461 . S
C2503 C1040 2.444 . S
C2517 C1074 2.445 . S
C2521 C883 2.462 . S
