# Generated by pormake.
# Topology vmc, (5)-cn, num edge types: 1
# Building blocks:
#     Node 0, Type 0, BuildingBlock: XOMCOT_clean_sbu_1, # of connection points: 5
#     Node 1, Type 0, BuildingBlock: XOMCOT_clean_sbu_1, # of connection points: 5
#     Node 2, Type 0, BuildingBlock: XOMCOT_clean_sbu_1, # of connection points: 5
#     Node 3, Type 0, BuildingBlock: XOMCOT_clean_sbu_1, # of connection points: 5
#     Node 4, Type 0, BuildingBlock: XOMCOT_clean_sbu_1, # of connection points: 5
#     Node 5, Type 0, BuildingBlock: XOMCOT_clean_sbu_1, # of connection points: 5
#     Node 6, Type 0, BuildingBlock: XOMCOT_clean_sbu_1, # of connection points: 5
#     Node 7, Type 0, BuildingBlock: XOMCOT_clean_sbu_1, # of connection points: 5
#     Edge 8, Type (0, 0), BuildingBlock: XIVTED_clean_linker_0, # of connection points: 2
#     Edge 9, Type (0, 0), BuildingBlock: XIVTED_clean_linker_0, # of connection points: 2
#     Edge 10, Type (0, 0), BuildingBlock: XIVTED_clean_linker_0, # of connection points: 2
#     Edge 11, Type (0, 0), BuildingBlock: XIVTED_clean_linker_0, # of connection points: 2
#     Edge 12, Type (0, 0), BuildingBlock: XIVTED_clean_linker_0, # of connection points: 2
#     Edge 13, Type (0, 0), BuildingBlock: XIVTED_clean_linker_0, # of connection points: 2
#     Edge 14, Type (0, 0), BuildingBlock: XIVTED_clean_linker_0, # of connection points: 2
#     Edge 15, Type (0, 0), BuildingBlock: XIVTED_clean_linker_0, # of connection points: 2
#     Edge 16, Type (0, 0), BuildingBlock: XIVTED_clean_linker_0, # of connection points: 2
#     Edge 17, Type (0, 0), BuildingBlock: XIVTED_clean_linker_0, # of connection points: 2
#     Edge 18, Type (0, 0), BuildingBlock: XIVTED_clean_linker_0, # of connection points: 2
#     Edge 19, Type (0, 0), BuildingBlock: XIVTED_clean_linker_0, # of connection points: 2
#     Edge 20, Type (0, 0), BuildingBlock: XIVTED_clean_linker_0, # of connection points: 2
#     Edge 21, Type (0, 0), BuildingBlock: XIVTED_clean_linker_0, # of connection points: 2
#     Edge 22, Type (0, 0), BuildingBlock: XIVTED_clean_linker_0, # of connection points: 2
#     Edge 23, Type (0, 0), BuildingBlock: XIVTED_clean_linker_0, # of connection points: 2
#     Edge 24, Type (0, 0), BuildingBlock: XIVTED_clean_linker_0, # of connection points: 2
#     Edge 25, Type (0, 0), BuildingBlock: XIVTED_clean_linker_0, # of connection points: 2
#     Edge 26, Type (0, 0), BuildingBlock: XIVTED_clean_linker_0, # of connection points: 2
#     Edge 27, Type (0, 0), BuildingBlock: XIVTED_clean_linker_0, # of connection points: 2
# Relax obj value: 0.404
# Max RMSD: 0.211
# Mean RMSD: 0.211
data_MOF--net-vmc--node1-XOMCOT_clean_sbu_1--edge1-XIVTED_clean_linker_0
_symmetry_space_group_name_H-M    P1
_symmetry_Int_Tables_number       1
_symmetry_cell_setting            triclinic
loop_
_symmetry_equiv_pos_as_xyz
'x, y, z'
_cell_length_a     29.548517
_cell_length_b     49.512008
_cell_length_c     28.84824
_cell_angle_alpha  89.854791
_cell_angle_beta   98.244991
_cell_angle_gamma 90.038145
loop_
_atom_site_label
_atom_site_type_symbol
_atom_site_fract_x
_atom_site_fract_y
_atom_site_fract_z
_atom_type_partial_charge
C0 C 0.32743 0.38632 0.06905 0.0
C1 C 0.36273 0.3786 0.10278 0.0
N2 N 0.36941 0.39816 0.1355 0.0
N3 N 0.31138 0.41046 0.08068 0.0
C4 C 0.33785 0.41731 0.12111 0.0
H5 H 0.31485 0.37533 0.03746 0.0
Co6 Co 0.26675 0.43048 0.04323 0.0
C7 C 0.21023 0.44822 0.11564 0.0
O8 O 0.17284 0.43811 0.09174 0.0
N9 N 0.22404 0.45114 1.00327 0.0
C10 C 0.18141 0.48472 0.9689 0.0
C11 C 0.19702 0.47225 1.01085 0.0
C12 C 0.22506 0.45183 0.95657 0.0
N13 N 0.19959 0.472 0.9348 0.0
O14 O 0.31001 0.45817 0.04093 0.0
H15 H 0.19233 0.4802 0.04456 0.0
H16 H 0.24658 0.43873 0.93925 0.0
O17 O 0.24817 0.44672 0.09933 0.0
C18 C 0.33666 0.45314 1.01111 0.0
O19 O 0.32887 0.4316 0.98462 0.0
N20 N 0.22596 0.40131 0.0437 0.0
C21 C 0.20636 0.34634 0.04074 0.0
C22 C 0.21191 0.36019 0.08348 0.0
C23 C 0.22228 0.38766 0.08431 0.0
C24 C 0.21481 0.38881 1.00155 0.0
C25 C 0.20463 0.36132 0.99924 0.0
H26 H 0.23365 0.39673 0.11795 0.0
H27 H 0.2198 0.39896 0.96964 0.0
H28 H 0.33448 0.43618 0.13914 0.0
H29 H 0.38295 0.36042 0.10226 0.0
H30 H 0.16174 0.50322 0.96456 0.0
H31 H 0.2131 0.34939 0.11633 0.0
H32 H 0.201 0.35145 0.96545 0.0
C33 C 0.65565 0.38877 0.47865 0.0
C34 C 0.62143 0.38106 0.44385 0.0
N35 N 0.61603 0.40057 0.41084 0.0
N36 N 0.6723 0.41291 0.46749 0.0
C37 C 0.64728 0.41971 0.42614 0.0
H38 H 0.66692 0.37782 0.51071 0.0
Co39 Co 0.71593 0.43299 0.50621 0.0
C40 C 0.75028 0.4706 0.44012 0.0
O41 O 0.74843 0.49053 0.46976 0.0
N42 N 0.75869 0.453 0.54679 0.0
C43 C 0.82229 0.46735 0.59074 0.0
C44 C 0.80463 0.4546 0.54946 0.0
C45 C 0.74934 0.46513 0.58623 0.0
N46 N 0.78719 0.47402 0.61352 0.0
O47 O 0.67312 0.46152 0.50381 0.0
H48 H 0.82419 0.44571 0.52445 0.0
H49 H 0.71574 0.46578 0.59673 0.0
O50 O 0.73931 0.44676 0.45116 0.0
C51 C 0.64401 0.45582 0.53087 0.0
O52 O 0.65062 0.43412 0.55735 0.0
N53 N 0.75537 0.40357 0.5106 0.0
C54 C 0.77306 0.34873 0.51974 0.0
C55 C 0.77275 0.36161 0.47622 0.0
C56 C 0.76408 0.38935 0.47239 0.0
C57 C 0.7616 0.39214 0.554 0.0
C58 C 0.77124 0.36473 0.55948 0.0
H59 H 0.75803 0.39836 0.4379 0.0
H60 H 0.75366 0.4035 0.58378 0.0
H61 H 0.6514 0.43856 0.40815 0.0
H62 H 0.60093 0.36294 0.44385 0.0
H63 H 0.85808 0.47064 0.6037 0.0
H64 H 0.774 0.35007 0.4446 0.0
H65 H 0.77258 0.35573 0.5939 0.0
C66 C 0.65553 0.60788 0.9775 0.0
C67 C 0.62157 0.61576 0.94249 0.0
N68 N 0.61617 0.59631 0.90953 0.0
N69 N 0.67201 0.58371 0.96652 0.0
C70 C 0.64715 0.57705 0.92507 0.0
H71 H 0.66672 0.61874 1.00959 0.0
Co72 Co 0.7152 0.56333 1.00539 0.0
C73 C 0.74991 0.52613 0.9391 0.0
O74 O 0.74803 0.50595 0.96841 0.0
N75 N 0.75751 0.54301 0.04609 0.0
C76 C 0.82069 0.52839 0.09055 0.0
C77 C 0.8035 0.5414 0.04928 0.0
C78 C 0.74768 0.53061 0.08521 0.0
N79 N 0.78526 0.52155 0.1128 0.0
O80 O 0.6721 0.53488 1.00237 0.0
H81 H 0.82339 0.55047 0.02465 0.0
H82 H 0.71391 0.52988 0.09531 0.0
O83 O 0.73887 0.54985 0.95048 0.0
C84 C 0.64282 0.54056 0.02919 0.0
O85 O 0.64951 0.56214 0.0558 0.0
N86 N 0.7549 0.59265 1.01037 0.0
C87 C 0.77298 0.64742 1.02005 0.0
C88 C 0.773 0.63474 0.9765 0.0
C89 C 0.76411 0.60705 0.97241 0.0
C90 C 0.76081 0.60387 0.05385 0.0
C91 C 0.77063 0.63123 0.0596 0.0
H92 H 0.75832 0.59821 0.93784 0.0
H93 H 0.75249 0.59237 0.08342 0.0
H94 H 0.65118 0.55821 0.90717 0.0
H95 H 0.60122 0.63393 0.94231 0.0
H96 H 0.85638 0.52503 0.1039 0.0
H97 H 0.77465 0.64644 0.94502 0.0
H98 H 0.77171 0.64007 0.09404 0.0
C99 C 0.32822 0.61046 0.56689 0.0
C100 C 0.36365 0.61829 0.60035 0.0
N101 N 0.37005 0.59902 0.63376 0.0
N102 N 0.3118 0.58655 0.57942 0.0
C103 C 0.33818 0.57995 0.62008 0.0
H104 H 0.31584 0.62116 0.53484 0.0
Co105 Co 0.26743 0.56602 0.54268 0.0
C106 C 0.21097 0.54987 0.61632 0.0
O107 O 0.17395 0.56071 0.59292 0.0
N108 N 0.22515 0.54477 0.50359 0.0
C109 C 0.18064 0.51186 0.46984 0.0
C110 C 0.19578 0.52486 0.51139 0.0
C111 C 0.22785 0.54292 0.45736 0.0
N112 N 0.20132 0.52315 0.43595 0.0
O113 O 0.31108 0.53836 0.54202 0.0
H114 H 0.18848 0.51825 0.54514 0.0
H115 H 0.25057 0.55526 0.44004 0.0
O116 O 0.24861 0.55049 0.59933 0.0
C117 C 0.33812 0.54341 0.51254 0.0
O118 O 0.3305 0.56488 0.48566 0.0
N119 N 0.2262 0.59516 0.54116 0.0
C120 C 0.20565 0.64988 0.53219 0.0
C121 C 0.21365 0.6378 0.57662 0.0
C122 C 0.22389 0.6103 0.58038 0.0
C123 C 0.21261 0.60596 0.49787 0.0
C124 C 0.20156 0.63323 0.49264 0.0
H125 H 0.23643 0.60232 0.61472 0.0
H126 H 0.21575 0.59462 0.46675 0.0
H127 H 0.3346 0.56125 0.63872 0.0
H128 H 0.38423 0.6363 0.59915 0.0
H129 H 0.15897 0.49415 0.46573 0.0
H130 H 0.21747 0.64989 0.60816 0.0
H131 H 0.19457 0.6417 0.45768 0.0
C132 C 0.82899 0.88501 0.06499 0.0
C133 C 0.86359 0.87684 0.09916 0.0
N134 N 0.86942 0.89589 0.1328 0.0
N135 N 0.81254 0.90891 0.07731 0.0
C136 C 0.83807 0.91517 0.11856 0.0
H137 H 0.81717 0.87451 0.03267 0.0
Co138 Co 0.76882 0.92969 0.04012 0.0
C139 C 0.71151 0.9454 0.11373 0.0
O140 O 0.67432 0.93473 0.09042 0.0
N141 N 0.72707 0.95117 1.00058 0.0
C142 C 0.68219 0.98396 0.96676 0.0
C143 C 0.69698 0.97066 1.0082 0.0
C144 C 0.7305 0.95356 0.95452 0.0
N145 N 0.70373 0.97328 0.93306 0.0
O146 O 0.81257 0.95748 0.04084 0.0
H147 H 0.68878 0.97673 0.04183 0.0
H148 H 0.75381 0.94161 0.9374 0.0
O149 O 0.74906 0.94477 0.09658 0.0
C150 C 0.84036 0.9528 1.012 0.0
O151 O 0.83343 0.93155 0.9847 0.0
N152 N 0.7276 0.90049 0.03735 0.0
C153 C 0.70678 0.84579 0.02786 0.0
C154 C 0.71323 0.85784 0.07225 0.0
C155 C 0.72381 0.88528 0.07629 0.0
C156 C 0.71591 0.8897 0.99383 0.0
C157 C 0.70492 0.86242 0.9883 0.0
H158 H 0.73533 0.89314 0.11087 0.0
H159 H 0.72058 0.9011 0.96306 0.0
H160 H 0.83425 0.93375 0.13728 0.0
H161 H 0.884 0.85875 0.09835 0.0
H162 H 0.65997 0.00143 0.96264 0.0
H163 H 0.7155 0.84571 0.10379 0.0
H164 H 0.69945 0.85394 0.95336 0.0
C165 C 0.15454 0.88603 0.4776 0.0
C166 C 0.11971 0.87807 0.44356 0.0
N167 N 0.1138 0.89731 0.41007 0.0
N168 N 0.17104 0.90998 0.46534 0.0
C169 C 0.14534 0.91647 0.42426 0.0
H170 H 0.16645 0.87539 0.50984 0.0
Co171 Co 0.21473 0.93071 0.50251 0.0
C172 C 0.27245 0.9468 0.43 0.0
O173 O 0.30926 0.93621 0.45425 0.0
N174 N 0.25631 0.95217 0.54197 0.0
C175 C 0.29997 0.98532 0.57616 0.0
C176 C 0.28543 0.97229 0.5345 0.0
C177 C 0.25311 0.95396 0.58809 0.0
N178 N 0.27913 0.97385 0.60976 0.0
O179 O 0.17069 0.9583 0.50217 0.0
H180 H 0.29293 0.97898 0.50086 0.0
H181 H 0.23039 0.94146 0.60513 0.0
O182 O 0.23439 0.94611 0.44618 0.0
C183 C 0.14341 0.95331 0.53145 0.0
O184 O 0.15093 0.93193 0.55856 0.0
N185 N 0.25629 0.90166 0.50496 0.0
C186 C 0.27729 0.84703 0.51466 0.0
C187 C 0.26975 0.85898 0.47011 0.0
C188 C 0.25931 0.88644 0.46598 0.0
C189 C 0.26945 0.891 0.54843 0.0
C190 C 0.28076 0.86379 0.55404 0.0
H191 H 0.24717 0.89431 0.43147 0.0
H192 H 0.26581 0.90239 0.57936 0.0
H193 H 0.14914 0.93516 0.40568 0.0
H194 H 0.09919 0.86002 0.44439 0.0
H195 H 0.32133 0.00317 0.58053 0.0
H196 H 0.26645 0.8468 0.43868 0.0
H197 H 0.28742 0.85543 0.5891 0.0
C198 C 0.15531 0.11069 0.97482 0.0
C199 C 0.12073 0.11851 0.94039 0.0
N200 N 0.11468 0.099 0.90756 0.0
N201 N 0.17155 0.08652 0.96351 0.0
C202 C 0.14591 0.07978 0.92257 0.0
H203 H 0.16727 0.12161 1.00665 0.0
Co204 Co 0.21534 0.06631 1.0016 0.0
C205 C 0.27362 0.04882 0.93055 0.0
O206 O 0.31069 0.05876 0.95529 0.0
N207 N 0.25717 0.04546 0.04215 0.0
C208 C 0.29923 0.01185 0.07718 0.0
C209 C 0.28441 0.02437 0.03507 0.0
C210 C 0.25519 0.04471 0.08866 0.0
N211 N 0.28033 0.02454 0.11084 0.0
O212 O 0.17179 0.03857 1.00235 0.0
H213 H 0.28985 0.0165 1.00152 0.0
H214 H 0.23329 0.05782 0.10551 0.0
O215 O 0.23525 0.05034 0.94599 0.0
C216 C 0.14432 0.04337 0.03144 0.0
O217 O 0.15137 0.06479 0.05835 0.0
N218 N 0.25637 0.09547 1.00256 0.0
C219 C 0.27632 0.15039 1.00665 0.0
C220 C 0.27162 0.13672 0.96377 0.0
C221 C 0.2611 0.10927 0.96236 0.0
C222 C 0.26666 0.1078 0.04498 0.0
C223 C 0.27701 0.13526 0.04786 0.0
H224 H 0.25042 0.10034 0.92846 0.0
H225 H 0.26085 0.09755 0.07653 0.0
H226 H 0.14959 0.06092 0.90462 0.0
H227 H 0.10049 0.13671 0.94048 0.0
H228 H 0.31897 0.99338 0.08188 0.0
H229 H 0.27121 0.14766 0.93114 0.0
H230 H 0.27995 0.145 0.08173 0.0
C231 C 0.82873 0.11134 0.56319 0.0
C232 C 0.8636 0.11946 0.59704 0.0
N233 N 0.86978 0.10034 0.63072 0.0
N234 N 0.81246 0.08738 0.57575 0.0
C235 C 0.83836 0.08107 0.61681 0.0
H236 H 0.81659 0.12189 0.53092 0.0
Co237 Co 0.76852 0.0666 0.53902 0.0
C238 C 0.71197 0.05051 0.61307 0.0
O239 O 0.67463 0.06097 0.58964 0.0
N240 N 0.72652 0.0451 0.49992 0.0
C241 C 0.68231 0.01189 0.46681 0.0
C242 C 0.69733 0.02517 0.50809 0.0
C243 C 0.72921 0.04297 0.45369 0.0
N244 N 0.70285 0.02299 0.43265 0.0
O245 O 0.81241 0.03898 0.53913 0.0
H246 H 0.6901 0.01875 0.54196 0.0
H247 H 0.75187 0.05523 0.43614 0.0
O248 O 0.74948 0.0513 0.59585 0.0
C249 C 0.83947 0.04385 0.50959 0.0
O250 O 0.83175 0.06513 0.48227 0.0
N251 N 0.72715 0.09569 0.53677 0.0
C252 C 0.70611 0.15039 0.5276 0.0
C253 C 0.71309 0.1382 0.57196 0.0
C254 C 0.72377 0.11076 0.57584 0.0
C255 C 0.71491 0.10662 0.49334 0.0
C256 C 0.7038 0.13389 0.48797 0.0
H257 H 0.73569 0.1028 0.61033 0.0
H258 H 0.71924 0.09534 0.46244 0.0
H259 H 0.83474 0.06244 0.63564 0.0
H260 H 0.88394 0.13758 0.59597 0.0
H261 H 0.66081 0.99409 0.4631 0.0
H262 H 0.71571 0.15022 0.60354 0.0
H263 H 0.69791 0.14248 0.45305 0.0
H264 H 0.27914 0.5227 0.67217 0.0
H265 H 0.1317 0.49934 0.88115 0.0
H266 H 0.13829 0.5475 0.66545 0.0
H267 H 0.26655 0.46627 0.87993 0.0
H268 H 0.13339 0.5174 0.80231 0.0
H269 H 0.27528 0.50217 0.74863 0.0
C270 C 0.24736 0.52379 0.68669 0.0
C271 C 0.20898 0.53688 0.6623 0.0
C272 C 0.16248 0.50603 0.81919 0.0
C273 C 0.20437 0.51345 0.75002 0.0
C274 C 0.16156 0.4958 0.86423 0.0
C275 C 0.19894 0.48121 0.88721 0.0
C276 C 0.20127 0.50186 0.79703 0.0
C277 C 0.23666 0.47702 0.86345 0.0
C278 C 0.24516 0.51202 0.73036 0.0
C279 C 0.16873 0.53763 0.68293 0.0
N280 N 0.23694 0.48742 0.81985 0.0
N281 N 0.16753 0.52617 0.72562 0.0
H282 H 0.84701 0.46105 0.69073 0.0
H283 H 0.72953 0.55764 0.86078 0.0
H284 H 0.7301 0.51078 0.64251 0.0
H285 H 0.79582 0.48297 0.90869 0.0
H286 H 0.74356 0.54727 0.78106 0.0
H287 H 0.84277 0.47567 0.77155 0.0
C288 C 0.82105 0.47543 0.69715 0.0
C289 C 0.78881 0.48475 0.6601 0.0
C290 C 0.7553 0.53327 0.80913 0.0
C291 C 0.78381 0.50154 0.75189 0.0
C292 C 0.7475 0.53921 0.85467 0.0
C293 C 0.7613 0.52104 0.89145 0.0
C294 C 0.77782 0.50926 0.80036 0.0
C295 C 0.78429 0.49742 0.88133 0.0
C296 C 0.81838 0.48356 0.74315 0.0
C297 C 0.75539 0.50308 0.67024 0.0
N298 N 0.79193 0.49223 0.83676 0.0
N299 N 0.75378 0.51092 0.71512 0.0
H300 H 0.79613 0.51414 0.41067 0.0
H301 H 0.7279 0.48444 0.14052 0.0
H302 H 0.73004 0.43981 0.3611 0.0
H303 H 0.84385 0.53438 0.19092 0.0
H304 H 0.72407 0.46969 0.22113 0.0
H305 H 0.8102 0.52418 0.33064 0.0
C306 C 0.78479 0.49987 0.38303 0.0
C307 C 0.76178 0.47613 0.3926 0.0
C308 C 0.75072 0.48362 0.21454 0.0
C309 C 0.77721 0.48769 0.30094 0.0
C310 C 0.75283 0.49204 0.16866 0.0
C311 C 0.7863 0.51054 0.15921 0.0
C312 C 0.78161 0.49431 0.25148 0.0
C313 C 0.81785 0.51987 0.1968 0.0
C314 C 0.79302 0.50556 0.33744 0.0
C315 C 0.748 0.45832 0.35539 0.0
N316 N 0.81433 0.51197 0.24144 0.0
N317 N 0.75539 0.46463 0.31114 0.0
H318 H 0.27963 0.47329 0.17292 0.0
H319 H 0.13215 0.49722 0.38157 0.0
H320 H 0.13717 0.45143 0.16414 0.0
H321 H 0.26973 0.52669 0.38251 0.0
H322 H 0.13328 0.47967 0.30239 0.0
H323 H 0.27664 0.49254 0.25026 0.0
C324 C 0.24767 0.47259 0.18717 0.0
C325 C 0.20859 0.46069 0.16195 0.0
C326 C 0.16311 0.49012 0.31988 0.0
C327 C 0.20497 0.48264 0.25072 0.0
C328 C 0.16253 0.50003 0.36512 0.0
C329 C 0.20078 0.51355 0.3887 0.0
C330 C 0.2024 0.49356 0.29818 0.0
C331 C 0.23915 0.51682 0.36554 0.0
C332 C 0.24597 0.48362 0.23137 0.0
C333 C 0.16814 0.4604 0.18227 0.0
N334 N 0.23902 0.50681 0.32173 0.0
N335 N 0.16742 0.47112 0.2255 0.0
H336 H 0.63452 -0.00057 0.87886 0.0
H337 H 0.78141 0.0249 0.66979 0.0
H338 H 0.77229 0.97045 0.87957 0.0
H339 H 0.63955 0.04766 0.66265 0.0
H340 H 0.77874 0.0052 0.74707 0.0
H341 H 0.63568 0.01773 0.80008 0.0
C342 C 0.66497 0.99689 0.86247 0.0
C343 C 0.70326 0.98329 0.88593 0.0
C344 C 0.74813 0.01444 0.72856 0.0
C345 C 0.7049 0.00415 0.7957 0.0
C346 C 0.74965 0.02572 0.68439 0.0
C347 C 0.71064 0.03798 0.65959 0.0
C348 C 0.70738 0.01548 0.74833 0.0
C349 C 0.67046 0.03841 0.6804 0.0
C350 C 0.66557 0.00724 0.81742 0.0
C351 C 0.74168 0.98038 0.86274 0.0
N352 N 0.66991 0.0274 0.72356 0.0
N353 N 0.74156 0.99079 0.81909 0.0
H354 H 0.34769 0.04583 0.88342 0.0
H355 H 0.21016 0.96974 0.66236 0.0
H356 H 0.20504 0.02396 0.87191 0.0
H357 H 0.34746 5e-05 0.665 0.0
H358 H 0.20988 0.9867 0.74143 0.0
H359 H 0.35022 0.02664 0.80582 0.0
C360 C 0.31693 0.03692 0.86469 0.0
C361 C 0.27605 0.03655 0.88424 0.0
C362 C 0.24017 0.9896 0.72485 0.0
C363 C 0.27877 0.01455 0.79535 0.0
C364 C 0.24052 0.97969 0.67973 0.0
C365 C 0.27907 0.98332 0.657 0.0
C366 C 0.27866 0.00324 0.74771 0.0
C367 C 0.31695 0.99698 0.68107 0.0
C368 C 0.3184 0.02602 0.82032 0.0
C369 C 0.23728 0.02475 0.85826 0.0
N370 N 0.31583 0.00642 0.72515 0.0
N371 N 0.23962 0.01424 0.8152 0.0
H372 H 0.21266 0.03073 0.16472 0.0
H373 H 0.34615 0.94905 0.38229 0.0
H374 H 0.34742 0.99706 0.16553 0.0
H375 H 0.20488 0.97353 0.3726 0.0
H376 H 0.34943 0.9694 0.30558 0.0
H377 H 0.21178 0.01322 0.24362 0.0
C378 C 0.24238 0.01996 0.18166 0.0
C379 C 0.28031 0.01545 0.1584 0.0
C380 C 0.31774 0.97036 0.32027 0.0
C381 C 0.27916 0.99491 0.24882 0.0
C382 C 0.31583 0.95877 0.36413 0.0
C383 C 0.27514 0.95953 0.38395 0.0
C384 C 0.27874 0.98293 0.29603 0.0
C385 C 0.23696 0.9724 0.3587 0.0
C386 C 0.24165 0.00973 0.22666 0.0
C387 C 0.31736 0.00081 0.18198 0.0
N388 N 0.23971 0.98358 0.31609 0.0
N389 N 0.31587 0.99106 0.22586 0.0
H390 H 0.63408 0.9961 0.37932 0.0
H391 H 0.78046 0.97167 0.16979 0.0
H392 H 0.77076 0.02663 0.37846 0.0
H393 H 0.63917 0.94776 0.16349 0.0
H394 H 0.77756 0.99151 0.24672 0.0
H395 H 0.63524 0.97774 0.30072 0.0
C396 C 0.66428 -0.00102 0.36261 0.0
C397 C 0.70227 0.01303 0.38557 0.0
C398 C 0.74712 0.982 0.22848 0.0
C399 C 0.70391 0.99208 0.2956 0.0
C400 C 0.74877 0.97062 0.18451 0.0
C401 C 0.70999 0.958 0.16005 0.0
C402 C 0.70647 0.98067 0.24841 0.0
C403 C 0.6699 0.95729 0.18099 0.0
C404 C 0.66488 0.98859 0.31768 0.0
C405 C 0.74037 0.01635 0.36201 0.0
N406 N 0.66922 0.96839 0.22397 0.0
N407 N 0.74027 0.00588 0.3185 0.0
H408 H 0.37218 0.49248 0.07218 0.0
H409 H 0.60721 0.50247 0.96519 0.0
H410 H 0.39924 0.44751 0.95104 0.0
H411 H 0.57976 0.54528 0.08838 0.0
H412 H 0.53115 0.48189 0.95896 0.0
H413 H 0.44766 0.51318 0.07688 0.0
C414 C 0.3938 0.48721 0.04626 0.0
C415 C 0.37957 0.46821 1.01128 0.0
C416 C 0.54195 0.4957 0.98746 0.0
C417 C 0.46609 0.49146 1.01677 0.0
C418 C 0.58541 0.50727 0.99119 0.0
C419 C 0.59965 0.52559 0.02728 0.0
C420 C 0.51281 0.50259 1.02008 0.0
C421 C 0.57003 0.53133 0.05985 0.0
C422 C 0.437 0.49887 0.04912 0.0
C423 C 0.409 0.462 0.97872 0.0
N424 N 0.52797 0.51994 0.05537 0.0
N425 N 0.45101 0.47352 0.98237 0.0
H426 H 0.60846 0.49416 0.46708 0.0
H427 H 0.37401 0.50463 0.57497 0.0
H428 H 0.58128 0.45111 0.59052 0.0
H429 H 0.40052 0.54863 0.45223 0.0
H430 H 0.44959 0.48398 0.58006 0.0
H431 H 0.5326 0.51487 0.46116 0.0
C432 C 0.58676 0.48934 0.49321 0.0
C433 C 0.60101 0.4709 0.52926 0.0
C434 C 0.43877 0.49806 0.55187 0.0
C435 C 0.51436 0.49406 0.52242 0.0
C436 C 0.39552 0.50969 0.5488 0.0
C437 C 0.38111 0.5284 0.51323 0.0
C438 C 0.46768 0.50522 0.51914 0.0
C439 C 0.41041 0.53438 0.48037 0.0
C440 C 0.5434 0.50098 0.48965 0.0
C441 C 0.57152 0.46515 0.56201 0.0
N442 N 0.45243 0.5229 0.48423 0.0
N443 N 0.52953 0.47662 0.5577 0.0
H444 H 0.10984 0.00441 0.96894 0.0
H445 H 0.87507 0.99124 0.07558 0.0
H446 H 0.08107 0.04791 0.09095 0.0
H447 H 0.90358 0.94868 0.95252 0.0
H448 H 0.95028 0.01264 0.08155 0.0
H449 H 0.03478 0.98296 0.96338 0.0
C450 C 0.08794 0.00921 0.99484 0.0
C451 C 0.10158 0.02799 0.03037 0.0
C452 C 0.93995 -0.00129 0.05313 0.0
C453 C 0.01562 0.00387 0.02393 0.0
C454 C 0.89693 0.98664 0.04955 0.0
C455 C 0.88319 0.96814 1.01357 0.0
C456 C 0.96925 0.99218 1.0205 0.0
C457 C 0.91292 0.96276 0.98094 0.0
C458 C 0.045 0.99711 0.9915 0.0
C459 C 0.0718 0.03361 0.06287 0.0
N460 N 0.95464 0.97465 0.98529 0.0
N461 N 0.03012 0.02167 0.05876 0.0
H462 H 0.90036 0.04767 0.44752 0.0
H463 H 0.08254 0.94954 0.59353 0.0
H464 H 0.87681 0.00631 0.57386 0.0
H465 H 0.10613 0.99088 0.46718 0.0
H466 H 0.00754 0.9707 0.5875 0.0
H467 H 0.9754 0.02655 0.45357 0.0
C468 C 0.91085 0.03395 0.47636 0.0
C469 C 0.88241 0.02876 0.51033 0.0
C470 C 0.02914 0.97525 0.56118 0.0
C471 C 0.96846 0.00476 0.5177 0.0
C472 C 0.07206 0.96326 0.56468 0.0
C473 C 0.1005 0.96843 0.5307 0.0
C474 C 0.01449 0.99249 0.52335 0.0
C475 C 0.08529 0.98642 0.4942 0.0
C476 C 0.95379 0.02199 0.47987 0.0
C477 C 0.89765 0.01079 0.54684 0.0
N478 N 0.04312 0.99772 0.49135 0.0
N479 N 0.93984 -0.00049 0.5497 0.0
H480 H 0.26705 0.31571 0.09872 0.0
H481 H 0.21651 0.18124 0.94818 0.0
H482 H 0.16172 0.30954 0.97887 0.0
H483 H 0.32023 0.18692 0.0695 0.0
H484 H 0.19778 0.22854 0.95748 0.0
H485 H 0.28577 0.2684 0.08957 0.0
C486 C 0.24702 0.30425 0.07111 0.0
C487 C 0.2124 0.31663 0.03969 0.0
C488 C 0.22491 0.21955 0.98186 0.0
C489 C 0.23501 0.2625 0.02806 0.0
C490 C 0.23619 0.19259 0.97616 0.0
C491 C 0.27036 0.18009 1.00793 0.0
C492 C 0.24775 0.2342 1.01971 0.0
C493 C 0.29358 0.19571 0.04433 0.0
C494 C 0.25828 0.27728 0.06551 0.0
C495 C 0.18874 0.30087 1.00375 0.0
N496 N 0.28171 0.22194 0.04934 0.0
N497 N 0.20063 0.27464 0.99878 0.0
H498 H 0.81173 0.30832 0.4726 0.0
H499 H 0.66963 0.19038 0.57705 0.0
H500 H 0.71705 0.32161 0.57126 0.0
H501 H 0.75512 0.17787 0.46957 0.0
H502 H 0.68702 0.2387 0.57585 0.0
H503 H 0.79285 0.26013 0.47221 0.0
C504 C 0.78733 0.30111 0.49445 0.0
C505 C 0.76643 0.31906 0.52239 0.0
C506 C 0.7016 0.22539 0.5522 0.0
C507 C 0.74437 0.26407 0.52187 0.0
C508 C 0.69157 0.19784 0.55283 0.0
C509 C 0.71058 0.18008 0.52312 0.0
C510 C 0.73121 0.23519 0.52195 0.0
C511 C 0.7389 0.19085 0.49244 0.0
C512 C 0.77648 0.27363 0.49416 0.0
C513 C 0.73501 0.30854 0.55005 0.0
N514 N 0.74854 0.21765 0.49285 0.0
N515 N 0.72493 0.28181 0.54901 0.0
H516 H 0.66961 0.80563 0.07674 0.0
H517 H 0.81246 0.68799 0.9736 0.0
H518 H 0.75649 0.81851 0.97049 0.0
H519 H 0.71662 0.67439 0.0711 0.0
H520 H 0.79386 0.7362 0.97324 0.0
H521 H 0.68689 0.75731 0.07563 0.0
C522 C 0.69184 0.79825 0.05281 0.0
C523 C 0.71127 0.81611 0.02342 0.0
C524 C 0.77718 0.72263 0.99494 0.0
C525 C 0.73177 0.761 1.02235 0.0
C526 C 0.78787 0.69513 0.99521 0.0
C527 C 0.76655 0.67709 0.02281 0.0
C528 C 0.7448 0.73211 1.02232 0.0
C529 C 0.73489 0.68753 0.05016 0.0
C530 C 0.70181 0.7707 0.05223 0.0
C531 C 0.73995 0.80545 0.9931 0.0
N532 N 0.72497 0.71428 0.04914 0.0
N533 N 0.74952 0.77864 0.99355 0.0
H534 H 0.30954 0.80602 0.46388 0.0
H535 H 0.17409 0.69081 0.5836 0.0
H536 H 0.23009 0.82078 0.57577 0.0
H537 H 0.25252 0.67617 0.47087 0.0
H538 H 0.19381 0.73877 0.58098 0.0
H539 H 0.28997 0.75804 0.46665 0.0
C540 C 0.28848 0.79914 0.48935 0.0
C541 C 0.27182 0.81744 0.51986 0.0
C542 C 0.20635 0.72505 0.55655 0.0
C543 C 0.2488 0.76274 0.5229 0.0
C544 C 0.19496 0.69772 0.55798 0.0
C545 C 0.21127 0.67946 0.52718 0.0
C546 C 0.2345 0.73413 0.52431 0.0
C547 C 0.23826 0.68953 0.49464 0.0
C548 C 0.27718 0.77179 0.49086 0.0
C549 C 0.24462 0.80739 0.55223 0.0
N550 N 0.24917 0.71613 0.49423 0.0
N551 N 0.23382 0.78079 0.55273 0.0
H552 H 0.57746 0.44481 0.36443 0.0
H553 H 0.4105 0.35521 0.1824 0.0
H554 H 0.57634 0.35767 0.36295 0.0
H555 H 0.40888 0.44235 0.181 0.0
H556 H 0.47183 0.35621 0.24843 0.0
H557 H 0.51703 0.44486 0.29667 0.0
C558 C 0.56485 0.4257 0.34969 0.0
C559 C 0.58196 0.40118 0.36963 0.0
C560 C 0.45813 0.37516 0.23379 0.0
C561 C 0.51243 0.4011 0.29243 0.0
C562 C 0.42314 0.37459 0.19585 0.0
C563 C 0.40451 0.39872 0.17585 0.0
C564 C 0.47492 0.40006 0.25214 0.0
C565 C 0.42184 0.42324 0.1955 0.0
C566 C 0.5301 0.42575 0.3112 0.0
C567 C 0.56379 0.37705 0.34932 0.0
N568 N 0.45616 0.42328 0.23247 0.0
N569 N 0.5301 0.37764 0.31199 0.0
H570 H 0.41224 0.642 0.67927 0.0
H571 H 0.57731 0.55219 0.8634 0.0
H572 H 0.40876 0.55488 0.68034 0.0
H573 H 0.57708 0.63933 0.86115 0.0
H574 H 0.51717 0.55228 0.79543 0.0
H575 H 0.47357 0.64099 0.74538 0.0
C576 C 0.42447 0.62262 0.69328 0.0
C577 C 0.40528 0.5985 0.674 0.0
C578 C 0.53037 0.57137 0.80982 0.0
C579 C 0.47565 0.59716 0.75032 0.0
C580 C 0.56496 0.57133 0.84843 0.0
C581 C 0.58224 0.59581 0.86821 0.0
C582 C 0.51303 0.59606 0.79074 0.0
C583 C 0.56439 0.61999 0.84762 0.0
C584 C 0.45944 0.62205 0.73125 0.0
C585 C 0.42212 0.57399 0.69431 0.0
N586 N 0.53085 0.61949 0.81016 0.0
N587 N 0.45641 0.57395 0.73128 0.0
H588 H 0.07555 0.94145 0.36329 0.0
H589 H 0.90966 0.85255 0.17927 0.0
H590 H 0.07247 0.85431 0.36369 0.0
H591 H 0.9081 0.93968 0.17998 0.0
H592 H 0.96989 0.85307 0.24653 0.0
H593 H 0.01538 0.94152 0.29552 0.0
C594 C 0.06253 0.92233 0.34897 0.0
C595 C 0.07916 0.89781 0.36934 0.0
C596 C 0.95638 0.87211 0.23208 0.0
C597 C 0.00984 0.89777 0.29201 0.0
C598 C 0.92206 0.87181 0.19347 0.0
C599 C 0.90379 0.8961 0.17375 0.0
C600 C 0.97285 0.89689 0.25125 0.0
C601 C 0.92077 0.92046 0.19426 0.0
C602 C 0.02791 0.92239 0.31045 0.0
C603 C 0.06037 0.87368 0.34961 0.0
N604 N 0.95445 0.92024 0.23178 0.0
N605 N 0.02682 0.87428 0.31213 0.0
H606 H 0.0759 0.05477 0.8618 0.0
H607 H 0.9106 0.14366 0.67648 0.0
H608 H 0.0744 0.14191 0.85973 0.0
H609 H 0.90853 0.05652 0.67815 0.0
H610 H 0.97116 0.14308 0.7434 0.0
H611 H 0.01574 0.05462 0.79396 0.0
C612 C 0.06324 0.07387 0.84693 0.0
C613 C 0.08026 0.09841 0.86666 0.0
C614 C 0.95748 0.12405 0.72922 0.0
C615 C 0.01098 0.09838 0.78928 0.0
C616 C 0.92297 0.12437 0.6908 0.0
C617 C 0.90444 0.10011 0.67143 0.0
C618 C 0.97388 0.09927 0.74861 0.0
C619 C 0.92139 0.07573 0.69214 0.0
C620 C 0.02863 0.07377 0.80837 0.0
C621 C 0.06196 0.12252 0.84621 0.0
N622 N 0.95524 0.07593 0.7295 0.0
N623 N 0.02841 0.12189 0.80874 0.0
loop_
_geom_bond_atom_site_label_1
_geom_bond_atom_site_label_2
_geom_bond_distance
_geom_bond_site_symmetry_2
_ccdc_geom_bond_type
C0 C1 1.351 . S
C0 N3 1.368 . S
C0 H5 0.931 . S
C1 C0 1.351 . S
C1 N2 1.373 . S
C1 H29 0.930 . S
N2 C1 1.373 . S
N2 C4 1.340 . S
N3 C0 1.368 . S
N3 C4 1.321 . S
N3 Co6 2.135 . S
C4 N2 1.340 . S
C4 N3 1.321 . S
C4 H28 0.930 . S
H5 C0 0.931 . S
Co6 N3 2.135 . S
Co6 N9 2.121 1_554 S
Co6 O14 2.055 . S
Co6 O17 2.039 . S
Co6 N20 2.140 . S
C7 O8 1.227 . S
C7 O17 1.265 . S
O8 C7 1.227 . S
N9 Co6 2.121 1_556 S
N9 C11 1.375 . S
N9 C12 1.313 . S
C10 C11 1.338 . S
C10 N13 1.377 . S
C10 H30 0.930 . S
C11 N9 1.375 . S
C11 C10 1.338 . S
C11 H15 0.931 1_556 S
C12 N9 1.313 . S
C12 N13 1.344 . S
C12 H16 0.930 . S
N13 C10 1.377 . S
N13 C12 1.344 . S
O14 Co6 2.055 . S
O14 C18 1.242 1_554 S
H15 C11 0.931 1_554 S
H16 C12 0.930 . S
O17 Co6 2.039 . S
O17 C7 1.265 . S
C18 O14 1.242 1_556 S
C18 O19 1.230 . S
O19 C18 1.230 . S
N20 Co6 2.140 . S
N20 C23 1.346 . S
N20 C24 1.345 1_554 S
C21 C22 1.387 . S
C21 C25 1.391 1_554 S
C22 C21 1.387 . S
C22 C23 1.369 . S
C22 H31 0.929 . S
C23 N20 1.346 . S
C23 C22 1.369 . S
C23 H26 0.928 . S
C24 N20 1.345 1_556 S
C24 C25 1.371 . S
C24 H27 0.931 . S
C25 C21 1.391 1_556 S
C25 C24 1.371 . S
C25 H32 0.930 . S
H26 C23 0.928 . S
H27 C24 0.931 . S
H28 C4 0.930 . S
H29 C1 0.930 . S
H30 C10 0.930 . S
H31 C22 0.929 . S
H32 C25 0.930 . S
C33 C34 1.351 . S
C33 N36 1.368 . S
C33 H38 0.931 . S
C34 C33 1.351 . S
C34 N35 1.373 . S
C34 H62 0.930 . S
N35 C34 1.373 . S
N35 C37 1.340 . S
N36 C33 1.368 . S
N36 C37 1.321 . S
N36 Co39 2.135 . S
C37 N35 1.340 . S
C37 N36 1.321 . S
C37 H61 0.930 . S
H38 C33 0.931 . S
Co39 N36 2.135 . S
Co39 N42 2.121 . S
Co39 O47 2.055 . S
Co39 O50 2.039 . S
Co39 N53 2.140 . S
C40 O41 1.227 . S
C40 O50 1.265 . S
O41 C40 1.227 . S
N42 Co39 2.121 . S
N42 C44 1.375 . S
N42 C45 1.313 . S
C43 C44 1.338 . S
C43 N46 1.377 . S
C43 H63 0.930 . S
C44 N42 1.375 . S
C44 C43 1.338 . S
C44 H48 0.931 . S
C45 N42 1.313 . S
C45 N46 1.344 . S
C45 H49 0.930 . S
N46 C43 1.377 . S
N46 C45 1.344 . S
O47 Co39 2.055 . S
O47 C51 1.253 . S
H48 C44 0.931 . S
H49 C45 0.930 . S
O50 Co39 2.039 . S
O50 C40 1.265 . S
C51 O47 1.253 . S
C51 O52 1.227 . S
O52 C51 1.227 . S
N53 Co39 2.140 . S
N53 C56 1.346 . S
N53 C57 1.345 . S
C54 C55 1.387 . S
C54 C58 1.391 . S
C55 C54 1.387 . S
C55 C56 1.369 . S
C55 H64 0.929 . S
C56 N53 1.346 . S
C56 C55 1.369 . S
C56 H59 0.928 . S
C57 N53 1.345 . S
C57 C58 1.371 . S
C57 H60 0.931 . S
C58 C54 1.391 . S
C58 C57 1.371 . S
C58 H65 0.930 . S
H59 C56 0.928 . S
H60 C57 0.931 . S
H61 C37 0.930 . S
H62 C34 0.930 . S
H63 C43 0.930 . S
H64 C55 0.929 . S
H65 C58 0.930 . S
C66 C67 1.351 . S
C66 N69 1.368 . S
C66 H71 0.931 . S
C67 C66 1.351 . S
C67 N68 1.373 . S
C67 H95 0.930 . S
N68 C67 1.373 . S
N68 C70 1.340 . S
N69 C66 1.368 . S
N69 C70 1.321 . S
N69 Co72 2.135 . S
C70 N68 1.340 . S
C70 N69 1.321 . S
C70 H94 0.930 . S
H71 C66 0.931 . S
Co72 N69 2.135 . S
Co72 N75 2.121 1_556 S
Co72 O80 2.055 . S
Co72 O83 2.039 . S
Co72 N86 2.140 . S
C73 O74 1.227 . S
C73 O83 1.265 . S
O74 C73 1.227 . S
N75 Co72 2.121 1_554 S
N75 C77 1.375 . S
N75 C78 1.313 . S
C76 C77 1.338 . S
C76 N79 1.377 . S
C76 H96 0.930 . S
C77 N75 1.375 . S
C77 C76 1.338 . S
C77 H81 0.931 1_554 S
C78 N75 1.313 . S
C78 N79 1.344 . S
C78 H82 0.930 . S
N79 C76 1.377 . S
N79 C78 1.344 . S
O80 Co72 2.055 . S
O80 C84 1.242 1_556 S
H81 C77 0.931 1_556 S
H82 C78 0.930 . S
O83 Co72 2.039 . S
O83 C73 1.265 . S
C84 O80 1.242 1_554 S
C84 O85 1.230 . S
O85 C84 1.230 . S
N86 Co72 2.140 . S
N86 C89 1.346 . S
N86 C90 1.345 1_556 S
C87 C88 1.387 . S
C87 C91 1.391 1_556 S
C88 C87 1.387 . S
C88 C89 1.369 . S
C88 H97 0.929 . S
C89 N86 1.346 . S
C89 C88 1.369 . S
C89 H92 0.928 . S
C90 N86 1.345 1_554 S
C90 C91 1.371 . S
C90 H93 0.931 . S
C91 C87 1.391 1_554 S
C91 C90 1.371 . S
C91 H98 0.930 . S
H92 C89 0.928 . S
H93 C90 0.931 . S
H94 C70 0.930 . S
H95 C67 0.930 . S
H96 C76 0.930 . S
H97 C88 0.929 . S
H98 C91 0.930 . S
C99 C100 1.351 . S
C99 N102 1.368 . S
C99 H104 0.931 . S
C100 C99 1.351 . S
C100 N101 1.373 . S
C100 H128 0.930 . S
N101 C100 1.373 . S
N101 C103 1.340 . S
N102 C99 1.368 . S
N102 C103 1.321 . S
N102 Co105 2.135 . S
C103 N101 1.340 . S
C103 N102 1.321 . S
C103 H127 0.930 . S
H104 C99 0.931 . S
Co105 N102 2.135 . S
Co105 N108 2.121 . S
Co105 O113 2.055 . S
Co105 O116 2.039 . S
Co105 N119 2.140 . S
C106 O107 1.227 . S
C106 O116 1.265 . S
O107 C106 1.227 . S
N108 Co105 2.121 . S
N108 C110 1.375 . S
N108 C111 1.313 . S
C109 C110 1.338 . S
C109 N112 1.377 . S
C109 H129 0.930 . S
C110 N108 1.375 . S
C110 C109 1.338 . S
C110 H114 0.931 . S
C111 N108 1.313 . S
C111 N112 1.344 . S
C111 H115 0.930 . S
N112 C109 1.377 . S
N112 C111 1.344 . S
O113 Co105 2.055 . S
O113 C117 1.253 . S
H114 C110 0.931 . S
H115 C111 0.930 . S
O116 Co105 2.039 . S
O116 C106 1.265 . S
C117 O113 1.253 . S
C117 O118 1.227 . S
O118 C117 1.227 . S
N119 Co105 2.140 . S
N119 C122 1.346 . S
N119 C123 1.345 . S
C120 C121 1.387 . S
C120 C124 1.391 . S
C121 C120 1.387 . S
C121 C122 1.369 . S
C121 H130 0.929 . S
C122 N119 1.346 . S
C122 C121 1.369 . S
C122 H125 0.928 . S
C123 N119 1.345 . S
C123 C124 1.371 . S
C123 H126 0.931 . S
C124 C120 1.391 . S
C124 C123 1.371 . S
C124 H131 0.930 . S
H125 C122 0.928 . S
H126 C123 0.931 . S
H127 C103 0.930 . S
H128 C100 0.930 . S
H129 C109 0.930 . S
H130 C121 0.929 . S
H131 C124 0.930 . S
C132 C133 1.351 . S
C132 N135 1.368 . S
C132 H137 0.931 . S
C133 C132 1.351 . S
C133 N134 1.373 . S
C133 H161 0.930 . S
N134 C133 1.373 . S
N134 C136 1.340 . S
N135 C132 1.368 . S
N135 C136 1.321 . S
N135 Co138 2.135 . S
C136 N134 1.340 . S
C136 N135 1.321 . S
C136 H160 0.930 . S
H137 C132 0.931 . S
Co138 N135 2.135 . S
Co138 N141 2.121 1_554 S
Co138 O146 2.055 . S
Co138 O149 2.039 . S
Co138 N152 2.140 . S
C139 O140 1.227 . S
C139 O149 1.265 . S
O140 C139 1.227 . S
N141 Co138 2.121 1_556 S
N141 C143 1.375 . S
N141 C144 1.313 . S
C142 C143 1.338 . S
C142 N145 1.377 . S
C142 H162 0.930 . S
C143 N141 1.375 . S
C143 C142 1.338 . S
C143 H147 0.931 1_556 S
C144 N141 1.313 . S
C144 N145 1.344 . S
C144 H148 0.930 . S
N145 C142 1.377 . S
N145 C144 1.344 . S
O146 Co138 2.055 . S
O146 C150 1.242 1_554 S
H147 C143 0.931 1_554 S
H148 C144 0.930 . S
O149 Co138 2.039 . S
O149 C139 1.265 . S
C150 O146 1.242 1_556 S
C150 O151 1.230 . S
O151 C150 1.230 . S
N152 Co138 2.140 . S
N152 C155 1.346 . S
N152 C156 1.345 1_554 S
C153 C154 1.387 . S
C153 C157 1.391 1_554 S
C154 C153 1.387 . S
C154 C155 1.369 . S
C154 H163 0.929 . S
C155 N152 1.346 . S
C155 C154 1.369 . S
C155 H158 0.928 . S
C156 N152 1.345 1_556 S
C156 C157 1.371 . S
C156 H159 0.931 . S
C157 C153 1.391 1_556 S
C157 C156 1.371 . S
C157 H164 0.930 . S
H158 C155 0.928 . S
H159 C156 0.931 . S
H160 C136 0.930 . S
H161 C133 0.930 . S
H162 C142 0.930 . S
H163 C154 0.929 . S
H164 C157 0.930 . S
C165 C166 1.351 . S
C165 N168 1.368 . S
C165 H170 0.931 . S
C166 C165 1.351 . S
C166 N167 1.373 . S
C166 H194 0.930 . S
N167 C166 1.373 . S
N167 C169 1.340 . S
N168 C165 1.368 . S
N168 C169 1.321 . S
N168 Co171 2.135 . S
C169 N167 1.340 . S
C169 N168 1.321 . S
C169 H193 0.930 . S
H170 C165 0.931 . S
Co171 N168 2.135 . S
Co171 N174 2.121 . S
Co171 O179 2.055 . S
Co171 O182 2.039 . S
Co171 N185 2.140 . S
C172 O173 1.227 . S
C172 O182 1.265 . S
O173 C172 1.227 . S
N174 Co171 2.121 . S
N174 C176 1.375 . S
N174 C177 1.313 . S
C175 C176 1.338 . S
C175 N178 1.377 . S
C175 H195 0.930 . S
C176 N174 1.375 . S
C176 C175 1.338 . S
C176 H180 0.931 . S
C177 N174 1.313 . S
C177 N178 1.344 . S
C177 H181 0.930 . S
N178 C175 1.377 . S
N178 C177 1.344 . S
O179 Co171 2.055 . S
O179 C183 1.253 . S
H180 C176 0.931 . S
H181 C177 0.930 . S
O182 Co171 2.039 . S
O182 C172 1.265 . S
C183 O179 1.253 . S
C183 O184 1.227 . S
O184 C183 1.227 . S
N185 Co171 2.140 . S
N185 C188 1.346 . S
N185 C189 1.345 . S
C186 C187 1.387 . S
C186 C190 1.391 . S
C187 C186 1.387 . S
C187 C188 1.369 . S
C187 H196 0.929 . S
C188 N185 1.346 . S
C188 C187 1.369 . S
C188 H191 0.928 . S
C189 N185 1.345 . S
C189 C190 1.371 . S
C189 H192 0.931 . S
C190 C186 1.391 . S
C190 C189 1.371 . S
C190 H197 0.930 . S
H191 C188 0.928 . S
H192 C189 0.931 . S
H193 C169 0.930 . S
H194 C166 0.930 . S
H195 C175 0.930 . S
H196 C187 0.929 . S
H197 C190 0.930 . S
C198 C199 1.351 . S
C198 N201 1.368 . S
C198 H203 0.931 . S
C199 C198 1.351 . S
C199 N200 1.373 . S
C199 H227 0.930 . S
N200 C199 1.373 . S
N200 C202 1.340 . S
N201 C198 1.368 . S
N201 C202 1.321 . S
N201 Co204 2.135 . S
C202 N200 1.340 . S
C202 N201 1.321 . S
C202 H226 0.930 . S
H203 C198 0.931 . S
Co204 N201 2.135 . S
Co204 N207 2.121 1_556 S
Co204 O212 2.055 . S
Co204 O215 2.039 . S
Co204 N218 2.140 . S
C205 O206 1.227 . S
C205 O215 1.265 . S
O206 C205 1.227 . S
N207 Co204 2.121 1_554 S
N207 C209 1.375 . S
N207 C210 1.313 . S
C208 C209 1.338 . S
C208 N211 1.377 . S
C208 H228 0.930 . S
C209 N207 1.375 . S
C209 C208 1.338 . S
C209 H213 0.931 1_554 S
C210 N207 1.313 . S
C210 N211 1.344 . S
C210 H214 0.930 . S
N211 C208 1.377 . S
N211 C210 1.344 . S
O212 Co204 2.055 . S
O212 C216 1.242 1_556 S
H213 C209 0.931 1_556 S
H214 C210 0.930 . S
O215 Co204 2.039 . S
O215 C205 1.265 . S
C216 O212 1.242 1_554 S
C216 O217 1.230 . S
O217 C216 1.230 . S
N218 Co204 2.140 . S
N218 C221 1.346 . S
N218 C222 1.345 1_556 S
C219 C220 1.387 . S
C219 C223 1.391 1_556 S
C220 C219 1.387 . S
C220 C221 1.369 . S
C220 H229 0.929 . S
C221 N218 1.346 . S
C221 C220 1.369 . S
C221 H224 0.928 . S
C222 N218 1.345 1_554 S
C222 C223 1.371 . S
C222 H225 0.931 . S
C223 C219 1.391 1_554 S
C223 C222 1.371 . S
C223 H230 0.930 . S
H224 C221 0.928 . S
H225 C222 0.931 . S
H226 C202 0.930 . S
H227 C199 0.930 . S
H228 C208 0.930 . S
H229 C220 0.929 . S
H230 C223 0.930 . S
C231 C232 1.351 . S
C231 N234 1.368 . S
C231 H236 0.931 . S
C232 C231 1.351 . S
C232 N233 1.373 . S
C232 H260 0.930 . S
N233 C232 1.373 . S
N233 C235 1.340 . S
N234 C231 1.368 . S
N234 C235 1.321 . S
N234 Co237 2.135 . S
C235 N233 1.340 . S
C235 N234 1.321 . S
C235 H259 0.930 . S
H236 C231 0.931 . S
Co237 N234 2.135 . S
Co237 N240 2.121 . S
Co237 O245 2.055 . S
Co237 O248 2.039 . S
Co237 N251 2.140 . S
C238 O239 1.227 . S
C238 O248 1.265 . S
O239 C238 1.227 . S
N240 Co237 2.121 . S
N240 C242 1.375 . S
N240 C243 1.313 . S
C241 C242 1.338 . S
C241 N244 1.377 . S
C241 H261 0.930 . S
C242 N240 1.375 . S
C242 C241 1.338 . S
C242 H246 0.931 . S
C243 N240 1.313 . S
C243 N244 1.344 . S
C243 H247 0.930 . S
N244 C241 1.377 . S
N244 C243 1.344 . S
O245 Co237 2.055 . S
O245 C249 1.253 . S
H246 C242 0.931 . S
H247 C243 0.930 . S
O248 Co237 2.039 . S
O248 C238 1.265 . S
C249 O245 1.253 . S
C249 O250 1.227 . S
O250 C249 1.227 . S
N251 Co237 2.140 . S
N251 C254 1.346 . S
N251 C255 1.345 . S
C252 C253 1.387 . S
C252 C256 1.391 . S
C253 C252 1.387 . S
C253 C254 1.369 . S
C253 H262 0.929 . S
C254 N251 1.346 . S
C254 C253 1.369 . S
C254 H257 0.928 . S
C255 N251 1.345 . S
C255 C256 1.371 . S
C255 H258 0.931 . S
C256 C252 1.391 . S
C256 C255 1.371 . S
C256 H263 0.930 . S
H257 C254 0.928 . S
H258 C255 0.931 . S
H259 C235 0.930 . S
H260 C232 0.930 . S
H261 C241 0.930 . S
H262 C253 0.929 . S
H263 C256 0.930 . S
H264 C270 0.930 . S
H265 C274 0.930 . S
H266 C279 0.929 . S
H267 C277 0.929 . S
H268 C272 0.929 . S
H269 C278 0.929 . S
C270 H264 0.930 . S
C270 C271 1.367 . S
C270 C278 1.378 . S
C271 C270 1.367 . S
C271 C279 1.433 . S
C272 H268 0.929 . S
C272 C274 1.378 . S
C272 C276 1.350 . S
C273 C276 1.463 . S
C273 C278 1.350 . S
C273 N281 1.427 . S
C274 H265 0.930 . S
C274 C272 1.378 . S
C274 C275 1.367 . S
C275 C274 1.367 . S
C275 C277 1.433 . S
C276 C272 1.350 . S
C276 C273 1.463 . S
C276 N280 1.427 . S
C277 H267 0.929 . S
C277 C275 1.433 . S
C277 N280 1.384 . S
C278 H269 0.929 . S
C278 C270 1.378 . S
C278 C273 1.350 . S
C279 H266 0.929 . S
C279 C271 1.433 . S
C279 N281 1.384 . S
N280 C276 1.427 . S
N280 C277 1.384 . S
N281 C273 1.427 . S
N281 C279 1.384 . S
H282 C288 0.930 . S
H283 C292 0.930 . S
H284 C297 0.929 . S
H285 C295 0.929 . S
H286 C290 0.929 . S
H287 C296 0.929 . S
C288 H282 0.930 . S
C288 C289 1.367 . S
C288 C296 1.378 . S
C289 C288 1.367 . S
C289 C297 1.433 . S
C290 H286 0.929 . S
C290 C292 1.378 . S
C290 C294 1.350 . S
C291 C294 1.463 . S
C291 C296 1.350 . S
C291 N299 1.427 . S
C292 H283 0.930 . S
C292 C290 1.378 . S
C292 C293 1.367 . S
C293 C292 1.367 . S
C293 C295 1.433 . S
C294 C290 1.350 . S
C294 C291 1.463 . S
C294 N298 1.427 . S
C295 H285 0.929 . S
C295 C293 1.433 . S
C295 N298 1.384 . S
C296 H287 0.929 . S
C296 C288 1.378 . S
C296 C291 1.350 . S
C297 H284 0.929 . S
C297 C289 1.433 . S
C297 N299 1.384 . S
N298 C294 1.427 . S
N298 C295 1.384 . S
N299 C291 1.427 . S
N299 C297 1.384 . S
H300 C306 0.930 . S
H301 C310 0.930 . S
H302 C315 0.929 . S
H303 C313 0.929 . S
H304 C308 0.929 . S
H305 C314 0.929 . S
C306 H300 0.930 . S
C306 C307 1.367 . S
C306 C314 1.378 . S
C307 C306 1.367 . S
C307 C315 1.433 . S
C308 H304 0.929 . S
C308 C310 1.378 . S
C308 C312 1.350 . S
C309 C312 1.463 . S
C309 C314 1.350 . S
C309 N317 1.427 . S
C310 H301 0.930 . S
C310 C308 1.378 . S
C310 C311 1.367 . S
C311 C310 1.367 . S
C311 C313 1.433 . S
C312 C308 1.350 . S
C312 C309 1.463 . S
C312 N316 1.427 . S
C313 H303 0.929 . S
C313 C311 1.433 . S
C313 N316 1.384 . S
C314 H305 0.929 . S
C314 C306 1.378 . S
C314 C309 1.350 . S
C315 H302 0.929 . S
C315 C307 1.433 . S
C315 N317 1.384 . S
N316 C312 1.427 . S
N316 C313 1.384 . S
N317 C309 1.427 . S
N317 C315 1.384 . S
H318 C324 0.930 . S
H319 C328 0.930 . S
H320 C333 0.929 . S
H321 C331 0.929 . S
H322 C326 0.929 . S
H323 C332 0.929 . S
C324 H318 0.930 . S
C324 C325 1.367 . S
C324 C332 1.378 . S
C325 C324 1.367 . S
C325 C333 1.433 . S
C326 H322 0.929 . S
C326 C328 1.378 . S
C326 C330 1.350 . S
C327 C330 1.463 . S
C327 C332 1.350 . S
C327 N335 1.427 . S
C328 H319 0.930 . S
C328 C326 1.378 . S
C328 C329 1.367 . S
C329 C328 1.367 . S
C329 C331 1.433 . S
C330 C326 1.350 . S
C330 C327 1.463 . S
C330 N334 1.427 . S
C331 H321 0.929 . S
C331 C329 1.433 . S
C331 N334 1.384 . S
C332 H323 0.929 . S
C332 C324 1.378 . S
C332 C327 1.350 . S
C333 H320 0.929 . S
C333 C325 1.433 . S
C333 N335 1.384 . S
N334 C330 1.427 . S
N334 C331 1.384 . S
N335 C327 1.427 . S
N335 C333 1.384 . S
H336 C342 0.930 . S
H337 C346 0.930 . S
H338 C351 0.929 . S
H339 C349 0.929 1_565 S
H340 C344 0.929 . S
H341 C350 0.929 . S
C342 H336 0.930 . S
C342 C343 1.367 . S
C342 C350 1.378 . S
C343 C342 1.367 . S
C343 C351 1.433 1_565 S
C344 H340 0.929 . S
C344 C346 1.378 . S
C344 C348 1.350 . S
C345 C348 1.463 1_565 S
C345 C350 1.350 . S
C345 N353 1.427 1_565 S
C346 H337 0.930 . S
C346 C344 1.378 . S
C346 C347 1.367 . S
C347 C346 1.367 . S
C347 C349 1.433 . S
C348 C344 1.350 . S
C348 C345 1.463 1_545 S
C348 N352 1.427 1_545 S
C349 H339 0.929 1_545 S
C349 C347 1.433 . S
C349 N352 1.384 1_545 S
C350 H341 0.929 . S
C350 C342 1.378 . S
C350 C345 1.350 . S
C351 H338 0.929 . S
C351 C343 1.433 1_545 S
C351 N353 1.384 . S
N352 C348 1.427 1_565 S
N352 C349 1.384 1_565 S
N353 C345 1.427 1_545 S
N353 C351 1.384 . S
H354 C360 0.930 1_565 S
H355 C364 0.930 . S
H356 C369 0.929 . S
H357 C367 0.929 . S
H358 C362 0.929 . S
H359 C368 0.929 . S
C360 H354 0.930 1_545 S
C360 C361 1.367 . S
C360 C368 1.378 1_545 S
C361 C360 1.367 . S
C361 C369 1.433 . S
C362 H358 0.929 . S
C362 C364 1.378 . S
C362 C366 1.352 . S
C363 C366 1.464 . S
C363 C368 1.350 1_545 S
C363 N371 1.427 . S
C364 H355 0.930 . S
C364 C362 1.378 . S
C364 C365 1.367 1_545 S
C365 C364 1.367 1_565 S
C365 C367 1.433 . S
C366 C362 1.352 . S
C366 C363 1.464 . S
C366 N370 1.423 1_545 S
C367 H357 0.929 . S
C367 C365 1.433 . S
C367 N370 1.384 . S
C368 H359 0.929 . S
C368 C360 1.378 1_565 S
C368 C363 1.350 1_565 S
C369 H356 0.929 . S
C369 C361 1.433 . S
C369 N371 1.384 . S
N370 C366 1.423 1_565 S
N370 C367 1.384 . S
N371 C363 1.427 . S
N371 C369 1.384 . S
H372 C378 0.930 . S
H373 C382 0.930 . S
H374 C387 0.929 . S
H375 C385 0.938 . S
H376 C380 0.929 . S
H377 C386 0.929 . S
C378 H372 0.930 . S
C378 C379 1.367 . S
C378 C386 1.378 . S
C379 C378 1.367 . S
C379 C387 1.433 1_545 S
C380 H376 0.929 . S
C380 C382 1.378 . S
C380 C384 1.350 . S
C381 C384 1.463 1_545 S
C381 C386 1.350 . S
C381 N389 1.427 1_545 S
C382 H373 0.930 . S
C382 C380 1.378 . S
C382 C383 1.367 . S
C383 C382 1.367 . S
C383 C385 1.419 1_565 S
C384 C380 1.350 . S
C384 C381 1.463 1_565 S
C384 N388 1.427 1_565 S
C385 H375 0.938 . S
C385 C383 1.419 1_545 S
C385 N388 1.388 . S
C386 H377 0.929 . S
C386 C378 1.378 . S
C386 C381 1.350 . S
C387 H374 0.929 . S
C387 C379 1.433 1_565 S
C387 N389 1.384 . S
N388 C384 1.427 1_545 S
N388 C385 1.388 . S
N389 C381 1.427 1_565 S
N389 C387 1.384 . S
H390 C396 0.930 . S
H391 C400 0.930 . S
H392 C405 0.929 . S
H393 C403 0.929 . S
H394 C398 0.929 1_545 S
H395 C404 0.929 . S
C396 H390 0.930 . S
C396 C397 1.367 . S
C396 C404 1.378 1_545 S
C397 C396 1.367 . S
C397 C405 1.433 . S
C398 H394 0.929 1_565 S
C398 C400 1.378 . S
C398 C402 1.350 . S
C399 C402 1.462 1_545 S
C399 C404 1.350 1_545 S
C399 N407 1.428 . S
C400 H391 0.930 . S
C400 C398 1.378 . S
C400 C401 1.367 . S
C401 C400 1.367 . S
C401 C403 1.433 . S
C402 C398 1.350 . S
C402 C399 1.462 1_565 S
C402 N406 1.427 . S
C403 H393 0.929 . S
C403 C401 1.433 . S
C403 N406 1.384 . S
C404 H395 0.929 . S
C404 C396 1.378 1_565 S
C404 C399 1.350 1_565 S
C405 H392 0.929 . S
C405 C397 1.433 . S
C405 N407 1.384 . S
N406 C402 1.427 . S
N406 C403 1.384 . S
N407 C399 1.428 . S
N407 C405 1.384 . S
H408 C414 0.930 . S
H409 C418 0.930 . S
H410 C423 0.929 . S
H411 C421 0.929 . S
H412 C416 0.929 . S
H413 C422 0.929 . S
C414 H408 0.930 . S
C414 C415 1.367 1_554 S
C414 C422 1.378 . S
C415 C414 1.367 1_556 S
C415 C423 1.433 . S
C416 H412 0.929 . S
C416 C418 1.378 . S
C416 C420 1.336 1_556 S
C417 C420 1.466 1_556 S
C417 C422 1.336 1_556 S
C417 N425 1.440 . S
C418 H409 0.930 . S
C418 C416 1.378 . S
C418 C419 1.367 1_556 S
C419 C418 1.367 1_554 S
C419 C421 1.433 . S
C420 C416 1.336 1_554 S
C420 C417 1.466 1_554 S
C420 N424 1.440 . S
C421 H411 0.929 . S
C421 C419 1.433 . S
C421 N424 1.384 . S
C422 H413 0.929 . S
C422 C414 1.378 . S
C422 C417 1.336 1_554 S
C423 H410 0.929 . S
C423 C415 1.433 . S
C423 N425 1.384 . S
N424 C420 1.440 . S
N424 C421 1.384 . S
N425 C417 1.440 . S
N425 C423 1.384 . S
H426 C432 0.930 . S
H427 C436 0.930 . S
H428 C441 0.929 . S
H429 C439 0.929 . S
H430 C434 0.929 . S
H431 C440 0.929 . S
C432 H426 0.930 . S
C432 C433 1.367 . S
C432 C440 1.378 . S
C433 C432 1.367 . S
C433 C441 1.433 . S
C434 H430 0.929 . S
C434 C436 1.378 . S
C434 C438 1.350 . S
C435 C438 1.463 . S
C435 C440 1.350 . S
C435 N443 1.427 . S
C436 H427 0.930 . S
C436 C434 1.378 . S
C436 C437 1.367 . S
C437 C436 1.367 . S
C437 C439 1.433 . S
C438 C434 1.350 . S
C438 C435 1.463 . S
C438 N442 1.427 . S
C439 H429 0.929 . S
C439 C437 1.433 . S
C439 N442 1.384 . S
C440 H431 0.929 . S
C440 C432 1.378 . S
C440 C435 1.350 . S
C441 H428 0.929 . S
C441 C433 1.433 . S
C441 N443 1.384 . S
N442 C438 1.427 . S
N442 C439 1.384 . S
N443 C435 1.427 . S
N443 C441 1.384 . S
H444 C450 0.930 1_565 S
H445 C454 0.930 1_545 S
H446 C459 0.929 . S
H447 C457 0.929 . S
H448 C452 0.926 1_554 S
H449 C458 0.926 1_556 S
C450 H444 0.930 1_545 S
C450 C451 1.367 . S
C450 C458 1.377 1_545 S
C451 C450 1.367 . S
C451 C459 1.433 . S
C452 H448 0.926 1_556 S
C452 C454 1.377 1_545 S
C452 C456 1.354 1_545 S
C453 C456 1.463 1_444 S
C453 C458 1.354 1_545 S
C453 N461 1.427 . S
C454 H445 0.930 1_565 S
C454 C452 1.377 1_565 S
C454 C455 1.367 . S
C455 C454 1.367 . S
C455 C457 1.433 . S
C456 C452 1.354 1_565 S
C456 C453 1.463 1_666 S
C456 N460 1.427 . S
C457 H447 0.929 . S
C457 C455 1.433 . S
C457 N460 1.384 . S
C458 H449 0.926 1_554 S
C458 C450 1.377 1_565 S
C458 C453 1.354 1_565 S
C459 H446 0.929 . S
C459 C451 1.433 . S
C459 N461 1.384 . S
N460 C456 1.427 . S
N460 C457 1.384 . S
N461 C453 1.427 . S
N461 C459 1.384 . S
H462 C468 0.930 . S
H463 C472 0.930 . S
H464 C477 0.929 . S
H465 C475 0.929 . S
H466 C470 0.929 . S
H467 C476 0.929 . S
C468 H462 0.930 . S
C468 C469 1.367 . S
C468 C476 1.378 . S
C469 C468 1.367 . S
C469 C477 1.433 . S
C470 H466 0.929 . S
C470 C472 1.378 . S
C470 C474 1.350 . S
C471 C474 1.463 1_645 S
C471 C476 1.350 . S
C471 N479 1.427 . S
C472 H463 0.930 . S
C472 C470 1.378 . S
C472 C473 1.367 . S
C473 C472 1.367 . S
C473 C475 1.433 . S
C474 C470 1.350 . S
C474 C471 1.463 1_465 S
C474 N478 1.427 . S
C475 H465 0.929 . S
C475 C473 1.433 . S
C475 N478 1.384 . S
C476 H467 0.929 . S
C476 C468 1.378 . S
C476 C471 1.350 . S
C477 H464 0.929 . S
C477 C469 1.433 . S
C477 N479 1.384 . S
N478 C474 1.427 . S
N478 C475 1.384 . S
N479 C471 1.427 . S
N479 C477 1.384 . S
H480 C486 0.930 . S
H481 C490 0.930 . S
H482 C495 0.929 . S
H483 C493 0.929 . S
H484 C488 0.929 . S
H485 C494 0.929 . S
C486 H480 0.930 . S
C486 C487 1.367 . S
C486 C494 1.378 . S
C487 C486 1.367 . S
C487 C495 1.433 1_554 S
C488 H484 0.929 . S
C488 C490 1.378 . S
C488 C492 1.350 . S
C489 C492 1.463 1_554 S
C489 C494 1.350 . S
C489 N497 1.427 1_554 S
C490 H481 0.930 . S
C490 C488 1.378 . S
C490 C491 1.367 . S
C491 C490 1.367 . S
C491 C493 1.433 1_556 S
C492 C488 1.350 . S
C492 C489 1.463 1_556 S
C492 N496 1.427 1_556 S
C493 H483 0.929 . S
C493 C491 1.433 1_554 S
C493 N496 1.384 . S
C494 H485 0.929 . S
C494 C486 1.378 . S
C494 C489 1.350 . S
C495 H482 0.929 . S
C495 C487 1.433 1_556 S
C495 N497 1.384 . S
N496 C492 1.427 1_554 S
N496 C493 1.384 . S
N497 C489 1.427 1_556 S
N497 C495 1.384 . S
H498 C504 0.930 . S
H499 C508 0.930 . S
H500 C513 0.929 . S
H501 C511 0.929 . S
H502 C506 0.929 . S
H503 C512 0.929 . S
C504 H498 0.930 . S
C504 C505 1.367 . S
C504 C512 1.378 . S
C505 C504 1.367 . S
C505 C513 1.433 . S
C506 H502 0.929 . S
C506 C508 1.378 . S
C506 C510 1.350 . S
C507 C510 1.463 . S
C507 C512 1.350 . S
C507 N515 1.427 . S
C508 H499 0.930 . S
C508 C506 1.378 . S
C508 C509 1.367 . S
C509 C508 1.367 . S
C509 C511 1.433 . S
C510 C506 1.350 . S
C510 C507 1.463 . S
C510 N514 1.427 . S
C511 H501 0.929 . S
C511 C509 1.433 . S
C511 N514 1.384 . S
C512 H503 0.929 . S
C512 C504 1.378 . S
C512 C507 1.350 . S
C513 H500 0.929 . S
C513 C505 1.433 . S
C513 N515 1.384 . S
N514 C510 1.427 . S
N514 C511 1.384 . S
N515 C507 1.427 . S
N515 C513 1.384 . S
H516 C522 0.930 . S
H517 C526 0.930 . S
H518 C531 0.929 . S
H519 C529 0.929 . S
H520 C524 0.929 . S
H521 C530 0.929 . S
C522 H516 0.930 . S
C522 C523 1.367 . S
C522 C530 1.378 . S
C523 C522 1.367 . S
C523 C531 1.433 1_554 S
C524 H520 0.929 . S
C524 C526 1.378 . S
C524 C528 1.350 . S
C525 C528 1.463 1_554 S
C525 C530 1.350 . S
C525 N533 1.427 1_554 S
C526 H517 0.930 . S
C526 C524 1.378 . S
C526 C527 1.367 . S
C527 C526 1.367 . S
C527 C529 1.433 1_556 S
C528 C524 1.350 . S
C528 C525 1.463 1_556 S
C528 N532 1.427 1_556 S
C529 H519 0.929 . S
C529 C527 1.433 1_554 S
C529 N532 1.384 . S
C530 H521 0.929 . S
C530 C522 1.378 . S
C530 C525 1.350 . S
C531 H518 0.929 . S
C531 C523 1.433 1_556 S
C531 N533 1.384 . S
N532 C528 1.427 1_554 S
N532 C529 1.384 . S
N533 C525 1.427 1_556 S
N533 C531 1.384 . S
H534 C540 0.930 . S
H535 C544 0.930 . S
H536 C549 0.929 . S
H537 C547 0.929 . S
H538 C542 0.929 . S
H539 C548 0.929 . S
C540 H534 0.930 . S
C540 C541 1.367 . S
C540 C548 1.378 . S
C541 C540 1.367 . S
C541 C549 1.433 . S
C542 H538 0.929 . S
C542 C544 1.378 . S
C542 C546 1.350 . S
C543 C546 1.463 . S
C543 C548 1.350 . S
C543 N551 1.427 . S
C544 H535 0.930 . S
C544 C542 1.378 . S
C544 C545 1.367 . S
C545 C544 1.367 . S
C545 C547 1.433 . S
C546 C542 1.350 . S
C546 C543 1.463 . S
C546 N550 1.427 . S
C547 H537 0.929 . S
C547 C545 1.433 . S
C547 N550 1.384 . S
C548 H539 0.929 . S
C548 C540 1.378 . S
C548 C543 1.350 . S
C549 H536 0.929 . S
C549 C541 1.433 . S
C549 N551 1.384 . S
N550 C546 1.427 . S
N550 C547 1.384 . S
N551 C543 1.427 . S
N551 C549 1.384 . S
H552 C558 0.930 . S
H553 C562 0.930 . S
H554 C567 0.929 . S
H555 C565 0.929 . S
H556 C560 0.929 . S
H557 C566 0.929 . S
C558 H552 0.930 . S
C558 C559 1.367 . S
C558 C566 1.378 . S
C559 C558 1.367 . S
C559 C567 1.433 . S
C560 H556 0.929 . S
C560 C562 1.378 . S
C560 C564 1.350 . S
C561 C564 1.463 . S
C561 C566 1.350 . S
C561 N569 1.427 . S
C562 H553 0.930 . S
C562 C560 1.378 . S
C562 C563 1.367 . S
C563 C562 1.367 . S
C563 C565 1.433 . S
C564 C560 1.350 . S
C564 C561 1.463 . S
C564 N568 1.427 . S
C565 H555 0.929 . S
C565 C563 1.433 . S
C565 N568 1.384 . S
C566 H557 0.929 . S
C566 C558 1.378 . S
C566 C561 1.350 . S
C567 H554 0.929 . S
C567 C559 1.433 . S
C567 N569 1.384 . S
N568 C564 1.427 . S
N568 C565 1.384 . S
N569 C561 1.427 . S
N569 C567 1.384 . S
H570 C576 0.930 . S
H571 C580 0.930 . S
H572 C585 0.929 . S
H573 C583 0.929 . S
H574 C578 0.929 . S
H575 C584 0.929 . S
C576 H570 0.930 . S
C576 C577 1.367 . S
C576 C584 1.378 . S
C577 C576 1.367 . S
C577 C585 1.433 . S
C578 H574 0.929 . S
C578 C580 1.378 . S
C578 C582 1.350 . S
C579 C582 1.463 . S
C579 C584 1.350 . S
C579 N587 1.427 . S
C580 H571 0.930 . S
C580 C578 1.378 . S
C580 C581 1.367 . S
C581 C580 1.367 . S
C581 C583 1.433 . S
C582 C578 1.350 . S
C582 C579 1.463 . S
C582 N586 1.427 . S
C583 H573 0.929 . S
C583 C581 1.433 . S
C583 N586 1.384 . S
C584 H575 0.929 . S
C584 C576 1.378 . S
C584 C579 1.350 . S
C585 H572 0.929 . S
C585 C577 1.433 . S
C585 N587 1.384 . S
N586 C582 1.427 . S
N586 C583 1.384 . S
N587 C579 1.427 . S
N587 C585 1.384 . S
H588 C594 0.930 . S
H589 C598 0.930 . S
H590 C603 0.929 . S
H591 C601 0.929 . S
H592 C596 0.929 . S
H593 C602 0.929 . S
C594 H588 0.930 . S
C594 C595 1.367 . S
C594 C602 1.378 . S
C595 C594 1.367 . S
C595 C603 1.433 . S
C596 H592 0.929 . S
C596 C598 1.378 . S
C596 C600 1.350 . S
C597 C600 1.463 1_455 S
C597 C602 1.350 . S
C597 N605 1.427 . S
C598 H589 0.930 . S
C598 C596 1.378 . S
C598 C599 1.367 . S
C599 C598 1.367 . S
C599 C601 1.433 . S
C600 C596 1.350 . S
C600 C597 1.463 1_655 S
C600 N604 1.427 . S
C601 H591 0.929 . S
C601 C599 1.433 . S
C601 N604 1.384 . S
C602 H593 0.929 . S
C602 C594 1.378 . S
C602 C597 1.350 . S
C603 H590 0.929 . S
C603 C595 1.433 . S
C603 N605 1.384 . S
N604 C600 1.427 . S
N604 C601 1.384 . S
N605 C597 1.427 . S
N605 C603 1.384 . S
H606 C612 0.930 . S
H607 C616 0.930 . S
H608 C621 0.929 . S
H609 C619 0.929 . S
H610 C614 0.929 . S
H611 C620 0.929 . S
C612 H606 0.930 . S
C612 C613 1.367 . S
C612 C620 1.378 . S
C613 C612 1.367 . S
C613 C621 1.433 . S
C614 H610 0.929 . S
C614 C616 1.378 . S
C614 C618 1.350 . S
C615 C618 1.463 1_455 S
C615 C620 1.350 . S
C615 N623 1.427 . S
C616 H607 0.930 . S
C616 C614 1.378 . S
C616 C617 1.367 . S
C617 C616 1.367 . S
C617 C619 1.433 . S
C618 C614 1.350 . S
C618 C615 1.463 1_655 S
C618 N622 1.427 . S
C619 H609 0.929 . S
C619 C617 1.433 . S
C619 N622 1.384 . S
C620 H611 0.929 . S
C620 C612 1.378 . S
C620 C615 1.350 . S
C621 H608 0.929 . S
C621 C613 1.433 . S
C621 N623 1.384 . S
N622 C618 1.427 . S
N622 C619 1.384 . S
N623 C615 1.427 . S
N623 C621 1.384 . S
C271 C106 1.780 . S
C275 N13 1.876 . S
C289 N46 1.875 . S
C293 C73 1.778 . S
C307 C40 1.791 . S
C311 N79 1.872 . S
C325 C7 1.778 . S
C329 N112 1.875 . S
C343 N145 1.875 . S
C347 C238 1.778 . S
C361 C205 1.792 . S
C365 N178 1.872 . S
C379 N211 1.873 . S
C383 C172 1.783 . S
C397 N244 1.876 . S
C401 C139 1.781 . S
C415 C18 1.022 . S
C419 C84 1.022 . S
C433 C51 1.020 . S
C437 C117 1.020 . S
C451 C216 1.031 . S
C455 C150 1.031 . S
C469 C249 1.036 . S
C473 C183 1.036 . S
C487 C21 1.486 . S
C491 C219 1.486 . S
C505 C54 1.493 . S
C509 C252 1.493 . S
C523 C153 1.492 . S
C527 C87 1.492 . S
C541 C186 1.495 . S
C545 C120 1.495 . S
C559 N35 0.706 . S
C563 N2 0.724 . S
C577 N101 0.742 . S
C581 N68 0.727 . S
C595 N167 0.699 . S
C599 N134 0.714 . S
C613 N200 0.706 . S
C617 N233 0.725 . S
