# Generated by pormake.
# Topology rob, (6)-cn, num edge types: 1
# Building blocks:
#     Node 0, Type 0, BuildingBlock: BETDIP_clean_sbu_0, # of connection points: 6
#     Node 1, Type 0, BuildingBlock: BETDIP_clean_sbu_0, # of connection points: 6
#     Node 2, Type 0, BuildingBlock: BETDIP_clean_sbu_0, # of connection points: 6
#     Node 3, Type 0, BuildingBlock: BETDIP_clean_sbu_0, # of connection points: 6
#     Edge 4, Type (0, 0), BuildingBlock: AJUNOK_clean_linker_0, # of connection points: 2
#     Edge 5, Type (0, 0), BuildingBlock: AJUNOK_clean_linker_0, # of connection points: 2
#     Edge 6, Type (0, 0), BuildingBlock: AJUNOK_clean_linker_0, # of connection points: 2
#     Edge 7, Type (0, 0), BuildingBlock: AJUNOK_clean_linker_0, # of connection points: 2
#     Edge 8, Type (0, 0), BuildingBlock: AJUNOK_clean_linker_0, # of connection points: 2
#     Edge 9, Type (0, 0), BuildingBlock: AJUNOK_clean_linker_0, # of connection points: 2
#     Edge 10, Type (0, 0), BuildingBlock: AJUNOK_clean_linker_0, # of connection points: 2
#     Edge 11, Type (0, 0), BuildingBlock: AJUNOK_clean_linker_0, # of connection points: 2
#     Edge 12, Type (0, 0), BuildingBlock: AJUNOK_clean_linker_0, # of connection points: 2
#     Edge 13, Type (0, 0), BuildingBlock: AJUNOK_clean_linker_0, # of connection points: 2
#     Edge 14, Type (0, 0), BuildingBlock: AJUNOK_clean_linker_0, # of connection points: 2
#     Edge 15, Type (0, 0), BuildingBlock: AJUNOK_clean_linker_0, # of connection points: 2
# Relax obj value: 0.040
# Max RMSD: 0.156
# Mean RMSD: 0.156
data_MOF--net-rob--node1-BETDIP_clean_sbu_0--edge1-AJUNOK_clean_linker_0
_symmetry_space_group_name_H-M    P1
_symmetry_Int_Tables_number       1
_symmetry_cell_setting            triclinic
loop_
_symmetry_equiv_pos_as_xyz
'x, y, z'
_cell_length_a     11.917578
_cell_length_b     16.534885
_cell_length_c     28.750308
_cell_angle_alpha  97.152816
_cell_angle_beta   89.544251
_cell_angle_gamma 89.976146
loop_
_atom_site_label
_atom_site_type_symbol
_atom_site_fract_x
_atom_site_fract_y
_atom_site_fract_z
_atom_type_partial_charge
Tb0 Tb 0.15927 0.34165 0.065 0.0
Tb1 Tb 0.36321 0.25169 1.02319 0.0
C2 C 0.99054 0.37744 0.11647 0.0
C3 C 0.9702 0.37334 0.16698 0.0
C4 C 1.00793 0.30638 0.18833 0.0
C5 C 0.99293 0.30447 0.23645 0.0
C6 C 0.94 0.36945 0.26444 0.0
C7 C 0.901 0.43601 0.24293 0.0
C8 C 0.91662 0.43813 0.19471 0.0
C9 C 0.33041 0.43436 0.04972 0.0
C10 C 0.34232 0.26597 0.13057 0.0
C11 C 0.53 0.20978 0.97183 0.0
C12 C 0.55332 0.21256 0.92141 0.0
C13 C 0.54521 0.28579 0.90145 0.0
C14 C 0.56129 0.2864 0.85325 0.0
C15 C 0.58593 0.21395 0.82388 0.0
C16 C 0.59312 0.14068 0.84391 0.0
C17 C 0.57776 0.14013 0.89217 0.0
C18 C 0.19009 0.15996 1.03865 0.0
C19 C 0.18658 0.3329 0.95801 0.0
O20 O 1.00249 0.30764 0.08983 0.0
O21 O 0.06473 0.43117 0.10659 0.0
O22 O 0.33481 0.3658 0.06446 0.0
O23 O 0.22644 0.45575 0.04568 0.0
O24 O 0.23936 0.29305 0.12445 0.0
O25 O 0.41457 0.25177 0.09539 0.0
O26 O 0.52322 0.27968 0.99876 0.0
O27 O 0.45095 0.15928 0.98118 0.0
O28 O 0.18731 0.22802 1.02337 0.0
O29 O 0.29365 0.13885 0.04363 0.0
O30 O 0.2902 0.30779 0.96479 0.0
O31 O 0.11124 0.34185 0.99233 0.0
H32 H 0.04921 0.25527 0.16791 0.0
H33 H 0.02111 0.25128 0.25159 0.0
H34 H 0.85893 0.48664 0.26343 0.0
H35 H 0.88723 0.49055 0.1791 0.0
H36 H 0.52568 0.34266 0.92294 0.0
H37 H 0.55577 0.34392 0.83903 0.0
H38 H 0.60903 0.08346 0.82227 0.0
H39 H 0.58326 0.08275 0.90659 0.0
Tb40 Tb 0.65371 0.83513 0.0623 0.0
Tb41 Tb 0.86752 0.75659 1.02239 0.0
C42 C 0.48097 0.86378 0.11233 0.0
C43 C 0.46 0.86305 0.16321 0.0
C44 C 0.48655 0.79464 0.18564 0.0
C45 C 0.47141 0.79653 0.23411 0.0
C46 C 0.42991 0.86687 0.26143 0.0
C47 C 0.40462 0.93552 0.23892 0.0
C48 C 0.41828 0.93322 0.19034 0.0
C49 C 0.81765 0.93635 0.05009 0.0
C50 C 0.83705 0.76446 0.12935 0.0
C51 C 0.03905 0.72448 0.97216 0.0
C52 C 0.05988 0.72398 0.92116 0.0
C53 C 0.04973 0.79538 0.89953 0.0
C54 C 0.06425 0.79295 0.85103 0.0
C55 C 0.08945 0.71921 0.82294 0.0
C56 C 0.09824 0.64768 0.84457 0.0
C57 C 0.08443 0.65019 0.89313 0.0
C58 C 0.70311 0.65589 1.03491 0.0
C59 C 0.68514 0.8286 0.95561 0.0
O60 O 0.5011 0.7934 0.08731 0.0
O61 O 0.54849 0.92088 0.10126 0.0
O62 O 0.82714 0.86775 0.06447 0.0
O63 O 0.71243 0.95276 0.04483 0.0
O64 O 0.73231 0.7861 0.12176 0.0
O65 O 0.91374 0.7576 0.09549 0.0
O66 O 0.02169 0.79539 0.99711 0.0
O67 O 0.96952 0.66887 0.98352 0.0
O68 O 0.69432 0.72418 1.02021 0.0
O69 O 0.80811 0.63946 1.04041 0.0
O70 O 0.79065 0.80883 0.96334 0.0
O71 O 0.60792 0.83264 0.98918 0.0
H72 H 0.51979 0.73968 0.16588 0.0
H73 H 0.4911 0.74238 0.25013 0.0
H74 H 0.37502 0.99142 0.25878 0.0
H75 H 0.39754 0.98683 0.17397 0.0
H76 H 0.03009 0.85326 0.91996 0.0
H77 H 0.05748 0.84924 0.83557 0.0
H78 H 0.11456 0.58946 0.82396 0.0
H79 H 0.09147 0.59405 0.90875 0.0
Tb80 Tb 0.1603 0.74617 0.52112 0.0
Tb81 Tb 0.36529 0.83076 0.56308 0.0
C82 C 0.99292 0.70792 0.47047 0.0
C83 C 0.9687 0.71393 0.42044 0.0
C84 C 0.94733 0.7897 0.40485 0.0
C85 C 0.9295 0.79504 0.35735 0.0
C86 C 0.93346 0.72507 0.32412 0.0
C87 C 0.95331 0.64912 0.33972 0.0
C88 C 0.97022 0.64358 0.38739 0.0
C89 C 0.33111 0.65041 0.53282 0.0
C90 C 0.33699 0.83089 0.45696 0.0
C91 C 0.53457 0.86811 0.61299 0.0
C92 C 0.55907 0.86367 0.66298 0.0
C93 C 0.52823 0.79509 0.6845 0.0
C94 C 0.54471 0.79387 0.73251 0.0
C95 C 0.59239 0.86103 0.76006 0.0
C96 C 0.62587 0.92877 0.73828 0.0
C97 C 0.60857 0.93036 0.69026 0.0
C98 C 0.1942 0.92666 0.55153 0.0
C99 C 0.18567 0.74782 0.6272 0.0
O100 O 1.00017 0.77635 0.49867 0.0
O101 O 0.07164 0.65632 0.4783 0.0
O102 O 0.33615 0.71983 0.51916 0.0
O103 O 0.22714 0.63068 0.53848 0.0
O104 O 0.23263 0.80746 0.46418 0.0
O105 O 0.41359 0.83388 0.49019 0.0
O106 O 0.52437 0.79876 0.58586 0.0
O107 O 0.45675 0.92028 0.6051 0.0
O108 O 0.18969 0.85715 0.56506 0.0
O109 O 0.2982 0.94672 0.54623 0.0
O110 O 0.29051 0.77085 0.62038 0.0
O111 O 0.11002 0.7443 0.59366 0.0
H112 H 0.94521 0.84522 0.42921 0.0
H113 H 0.91359 0.85437 0.3465 0.0
H114 H 0.95423 0.59384 0.31524 0.0
H115 H 0.98527 0.58419 0.39838 0.0
H116 H 0.49091 0.74251 0.66428 0.0
H117 H 0.52148 0.73998 0.74812 0.0
H118 H 0.66401 0.98087 0.75856 0.0
H119 H 0.63287 0.98403 0.67451 0.0
Tb120 Tb 0.65783 0.24997 0.52332 0.0
Tb121 Tb 0.86705 0.32888 0.56513 0.0
C122 C 0.49064 0.21704 0.47186 0.0
C123 C 0.4716 0.22521 0.4218 0.0
C124 C 0.48535 0.30054 0.40449 0.0
C125 C 0.47412 0.30628 0.35664 0.0
C126 C 0.44955 0.23688 0.32501 0.0
C127 C 0.43569 0.1616 0.34223 0.0
C128 C 0.44638 0.15587 0.39019 0.0
C129 C 0.82228 0.14937 0.53622 0.0
C130 C 0.84084 0.32702 0.45875 0.0
C131 C 0.03778 0.36299 0.61471 0.0
C132 C 0.06149 0.36026 0.6649 0.0
C133 C 0.02568 0.29431 0.68768 0.0
C134 C 0.04106 0.29516 0.73591 0.0
C135 C 0.09266 0.36186 0.76238 0.0
C136 C 0.13064 0.42708 0.7394 0.0
C137 C 0.11462 0.4265 0.69113 0.0
C138 C 0.70281 0.4295 0.55193 0.0
C139 C 0.68205 0.25159 0.62936 0.0
O140 O 0.49971 0.28457 0.50078 0.0
O141 O 0.56601 0.16304 0.47976 0.0
O142 O 0.83205 0.21814 0.52201 0.0
O143 O 0.71696 0.13286 0.54134 0.0
O144 O 0.73487 0.30784 0.46612 0.0
O145 O 0.91663 0.32831 0.49222 0.0
O146 O 0.02379 0.29302 0.58851 0.0
O147 O 0.96301 0.41688 0.6061 0.0
O148 O 0.69322 0.36089 0.5663 0.0
O149 O 0.80814 0.44604 0.54701 0.0
O150 O 0.78793 0.27222 0.6226 0.0
O151 O 0.60644 0.24989 0.59586 0.0
H152 H 0.5057 0.35509 0.42778 0.0
H153 H 0.48479 0.3651 0.34427 0.0
H154 H 0.41444 0.10752 0.31877 0.0
H155 H 0.4356 0.09706 0.40259 0.0
H156 H 0.98542 0.24221 0.66826 0.0
H157 H 0.01394 0.24315 0.75249 0.0
H158 H 0.17144 0.47889 0.75891 0.0
H159 H 0.14262 0.47821 0.67438 0.0
C160 C 0.50253 0.61565 1.02277 0.0
C161 C 0.60964 0.59869 1.03929 0.0
C162 C 0.4129 0.56174 1.02606 0.0
C163 C 0.42728 0.48892 0.04593 0.0
H164 H 0.4878 0.67078 1.00689 0.0
H165 H 0.33183 0.5772 1.01282 0.0
S166 S 0.69054 0.41746 0.09574 0.0
N167 N 0.72484 0.50462 0.07696 0.0
N168 N 0.55632 0.40366 0.08345 0.0
C169 C 0.53389 0.47139 0.06277 0.0
C170 C 0.62516 0.52622 0.05938 0.0
C171 C 0.41203 0.52402 0.55831 0.0
C172 C 0.42757 0.59564 0.53723 0.0
C173 C 0.5013 0.47023 0.56265 0.0
C174 C 0.60938 0.48618 0.54613 0.0
H175 H 0.33032 0.50952 0.5718 0.0
H176 H 0.48562 0.41615 0.57946 0.0
S177 S 0.69323 0.66338 0.4862 0.0
N178 N 0.55852 0.67814 0.49817 0.0
N179 N 0.72646 0.5776 0.5067 0.0
C180 C 0.62596 0.55726 0.52466 0.0
C181 C 0.53498 0.61189 0.52014 0.0
C182 C 0.10704 1.03176 0.06096 0.0
C183 C 0.09303 0.105 0.04147 0.0
C184 C 0.01767 0.97728 0.06332 0.0
C185 C 0.91094 0.99411 0.04636 0.0
H186 H 0.1877 1.01633 0.07459 0.0
H187 H 0.03229 0.92182 0.07888 0.0
S188 S 0.83115 0.17593 0.99027 0.0
N189 N 0.96484 0.19021 1.00348 0.0
N190 N 0.79663 0.08832 1.00844 0.0
C191 C 0.89577 0.06691 1.02655 0.0
C192 C 0.98691 0.12226 1.024 0.0
C193 C 0.02341 0.10833 0.52421 0.0
C194 C 0.91573 0.09219 0.54112 0.0
C195 C 0.11271 0.05411 0.52758 0.0
C196 C 0.09764 0.98182 0.54803 0.0
H197 H 0.03877 0.16294 0.50785 0.0
H198 H 0.19407 0.06884 0.51385 0.0
S199 S 0.8334 0.91319 0.59972 0.0
N200 N 0.79968 0.99978 0.58026 0.0
N201 N 0.96768 0.8984 0.58691 0.0
C202 C 0.99068 0.96534 0.56549 0.0
C203 C 0.89966 1.02042 0.56199 0.0
C204 C 0.35151 0.30225 0.2631 0.0
C205 C 0.42959 0.24465 0.27481 0.0
C206 C 0.32431 0.30802 0.21642 0.0
C207 C 0.37682 0.2582 0.17925 0.0
H208 H 0.30981 0.34265 0.29032 0.0
H209 H 0.26204 0.35269 0.20951 0.0
S210 S 0.59865 0.10468 0.19094 0.0
N211 N 0.56543 0.14051 0.24556 0.0
N212 N 0.51758 0.15351 0.15725 0.0
C213 C 0.45925 0.20282 0.19026 0.0
C214 C 0.48479 0.19546 0.23814 0.0
C215 C 0.49021 0.8323 0.3406 0.0
C216 C 0.41031 0.86692 0.3129 0.0
C217 C 0.46905 0.82483 0.38811 0.0
C218 C 0.36659 0.85078 0.4095 0.0
H219 H 0.56906 0.80944 0.32524 0.0
H220 H 0.53118 0.79524 0.40754 0.0
S221 S 0.13419 0.95304 0.35451 0.0
N222 N 0.22745 0.93228 0.31195 0.0
N223 N 0.18875 0.91896 0.40095 0.0
C224 C 0.28831 0.88883 0.38298 0.0
C225 C 0.30991 0.89685 0.33482 0.0
C226 C 0.73944 0.86794 0.87729 0.0
C227 C 0.65528 0.84348 0.9073 0.0
C228 C 0.71746 0.87598 0.83023 0.0
C229 C 0.61069 0.8589 0.81105 0.0
H230 H 0.82371 0.88022 0.89008 0.0
H231 H 0.78563 0.89317 0.80832 0.0
S232 S 0.35937 0.79718 0.87499 0.0
N233 N 0.45936 0.8058 0.91474 0.0
N234 N 0.4181 0.82058 0.82619 0.0
C235 C 0.52481 0.83662 0.84089 0.0
C236 C 0.54696 0.82922 0.88903 0.0
C237 C 0.5547 0.26864 0.69956 0.0
C238 C 0.64973 0.23233 0.67646 0.0
C239 C 0.53318 0.2608 0.74694 0.0
C240 C 0.60548 0.21583 0.77272 0.0
H241 H 0.49931 0.30615 0.68153 0.0
H242 H 0.46026 0.29125 0.76371 0.0
S243 S 0.85859 0.1012 0.72597 0.0
N244 N 0.81028 0.14338 0.681 0.0
N245 N 0.77271 0.13071 0.7702 0.0
C246 C 0.69806 0.17627 0.74913 0.0
C247 C 0.71951 0.18411 0.70099 0.0
C248 C 0.79846 0.78902 0.21527 0.0
C249 C 0.86646 0.75243 0.17817 0.0
C250 C 0.82071 0.77918 0.26191 0.0
C251 C 0.91185 0.73205 0.27378 0.0
H252 H 0.72751 0.82663 0.20845 0.0
H253 H 0.76538 0.80858 0.28895 0.0
S254 S 0.11581 0.62237 0.19015 0.0
N255 N 0.02865 0.66622 0.1565 0.0
N256 N 0.07136 0.6482 0.24456 0.0
C257 C 0.9806 0.69453 0.23715 0.0
C258 C 0.95804 0.70489 0.18935 0.0
C259 C 0.78947 0.37145 0.38169 0.0
C260 C 0.8725 0.34513 0.41107 0.0
C261 C 0.81297 0.38171 0.33493 0.0
C262 C 0.92043 0.36556 0.31542 0.0
H263 H 0.70484 0.38331 0.39471 0.0
H264 H 0.74529 0.39975 0.31347 0.0
S265 S 0.16964 0.30079 0.37824 0.0
N266 N 0.0681 0.30725 0.41791 0.0
N267 N 0.11252 0.32671 0.33007 0.0
C268 C 1.00526 0.34192 0.34486 0.0
C269 C 0.98142 0.33196 0.39266 0.0
C270 C 0.21926 0.37572 0.83195 0.0
C271 C 0.11123 0.36148 0.81346 0.0
C272 C 0.24151 0.36868 0.87907 0.0
C273 C 0.15645 0.34814 0.90984 0.0
H274 H 0.2881 0.38968 0.80943 0.0
H275 H 0.32672 0.37841 0.89131 0.0
S276 S 0.85732 0.31075 0.87954 0.0
N277 N 0.91667 0.33024 0.83003 0.0
N278 N 0.95844 0.31763 0.91879 0.0
C279 C 0.04697 0.33706 0.89229 0.0
C280 C 0.02449 0.34332 0.84405 0.0
C281 C 0.05792 0.767 0.69719 0.0
C282 C 0.15346 0.73029 0.67468 0.0
C283 C 0.03624 0.76137 0.74482 0.0
C284 C 0.10875 0.71815 0.77149 0.0
H285 H 1.00229 0.80326 0.67847 0.0
H286 H 0.96304 0.79224 0.76109 0.0
S287 S 0.36283 0.60274 0.72654 0.0
N288 N 0.31484 0.64286 0.68079 0.0
N289 N 0.27634 0.63359 0.77033 0.0
C290 C 0.20167 0.67792 0.74847 0.0
C291 C 0.22354 0.68381 0.7001 0.0
loop_
_geom_bond_atom_site_label_1
_geom_bond_atom_site_label_2
_geom_bond_distance
_geom_bond_site_symmetry_2
_ccdc_geom_bond_type
Tb0 C2 2.809 . S
Tb0 O20 2.484 . S
Tb0 O21 2.440 . S
Tb0 O22 2.658 1_554 S
Tb0 O23 2.409 . S
Tb0 O24 2.378 . S
Tb0 O28 2.325 . S
Tb0 O31 2.341 1_554 S
Tb1 C11 2.809 . S
Tb1 O22 2.325 . S
Tb1 O25 2.341 1_556 S
Tb1 O26 2.484 . S
Tb1 O27 2.440 . S
Tb1 O28 2.658 1_556 S
Tb1 O29 2.409 . S
Tb1 O30 2.378 . S
C2 Tb0 2.809 . S
C2 C3 1.514 . S
C2 O20 1.248 . S
C2 O21 1.266 . S
C3 C2 1.514 . S
C3 C4 1.359 1_455 S
C3 C8 1.348 . S
C4 C3 1.359 1_655 S
C4 C5 1.380 . S
C4 H32 0.929 . S
C5 C4 1.380 . S
C5 C6 1.347 . S
C5 H33 0.931 . S
C6 C5 1.347 . S
C6 C7 1.369 . S
C7 C6 1.369 . S
C7 C8 1.408 1_655 S
C7 H34 0.930 . S
C8 C3 1.348 . S
C8 C7 1.408 1_455 S
C8 H35 0.930 . S
C9 O22 1.281 1_554 S
C9 O23 1.254 . S
C10 O24 1.236 . S
C10 O25 1.266 . S
C11 Tb1 2.809 . S
C11 C12 1.514 . S
C11 O26 1.248 . S
C11 O27 1.266 . S
C12 C11 1.514 . S
C12 C13 1.359 . S
C12 C17 1.348 . S
C13 C12 1.359 . S
C13 C14 1.380 . S
C13 H36 0.929 . S
C14 C13 1.380 . S
C14 C15 1.347 . S
C14 H37 0.931 . S
C15 C14 1.347 . S
C15 C16 1.369 . S
C16 C15 1.369 . S
C16 C17 1.408 . S
C16 H38 0.930 . S
C17 C12 1.348 . S
C17 C16 1.408 . S
C17 H39 0.930 . S
C18 O28 1.281 1_556 S
C18 O29 1.254 . S
C19 O30 1.236 . S
C19 O31 1.266 . S
O20 Tb0 2.484 . S
O20 C2 1.248 . S
O21 Tb0 2.440 . S
O21 C2 1.266 . S
O22 Tb0 2.658 1_556 S
O22 Tb1 2.325 . S
O22 C9 1.281 1_556 S
O23 Tb0 2.409 . S
O23 C9 1.254 . S
O24 Tb0 2.378 . S
O24 C10 1.236 . S
O25 Tb1 2.341 1_554 S
O25 C10 1.266 . S
O26 Tb1 2.484 . S
O26 C11 1.248 . S
O27 Tb1 2.440 . S
O27 C11 1.266 . S
O28 Tb0 2.325 . S
O28 Tb1 2.658 1_554 S
O28 C18 1.281 1_554 S
O29 Tb1 2.409 . S
O29 C18 1.254 . S
O30 Tb1 2.378 . S
O30 C19 1.236 . S
O31 Tb0 2.341 1_556 S
O31 C19 1.266 . S
H32 C4 0.929 . S
H33 C5 0.931 . S
H34 C7 0.930 . S
H35 C8 0.930 . S
H36 C13 0.929 . S
H37 C14 0.931 . S
H38 C16 0.930 . S
H39 C17 0.930 . S
Tb40 C42 2.809 . S
Tb40 O60 2.484 . S
Tb40 O61 2.440 . S
Tb40 O62 2.658 1_554 S
Tb40 O63 2.409 . S
Tb40 O64 2.378 . S
Tb40 O68 2.325 . S
Tb40 O71 2.341 1_554 S
Tb41 C51 2.809 . S
Tb41 O62 2.325 . S
Tb41 O65 2.341 1_556 S
Tb41 O66 2.484 . S
Tb41 O67 2.440 . S
Tb41 O68 2.658 1_556 S
Tb41 O69 2.409 . S
Tb41 O70 2.378 . S
C42 Tb40 2.809 . S
C42 C43 1.514 . S
C42 O60 1.248 . S
C42 O61 1.266 . S
C43 C42 1.514 . S
C43 C44 1.359 . S
C43 C48 1.348 . S
C44 C43 1.359 . S
C44 C45 1.380 . S
C44 H72 0.929 . S
C45 C44 1.380 . S
C45 C46 1.347 . S
C45 H73 0.931 . S
C46 C45 1.347 . S
C46 C47 1.369 . S
C47 C46 1.369 . S
C47 C48 1.408 . S
C47 H74 0.930 . S
C48 C43 1.348 . S
C48 C47 1.408 . S
C48 H75 0.930 . S
C49 O62 1.281 1_554 S
C49 O63 1.254 . S
C50 O64 1.236 . S
C50 O65 1.266 . S
C51 Tb41 2.809 . S
C51 C52 1.514 . S
C51 O66 1.248 . S
C51 O67 1.266 . S
C52 C51 1.514 . S
C52 C53 1.359 1_655 S
C52 C57 1.348 . S
C53 C52 1.359 1_455 S
C53 C54 1.380 . S
C53 H76 0.929 . S
C54 C53 1.380 . S
C54 C55 1.347 . S
C54 H77 0.931 . S
C55 C54 1.347 . S
C55 C56 1.369 . S
C56 C55 1.369 . S
C56 C57 1.408 1_455 S
C56 H78 0.930 . S
C57 C52 1.348 . S
C57 C56 1.408 1_655 S
C57 H79 0.930 . S
C58 O68 1.281 1_556 S
C58 O69 1.254 . S
C59 O70 1.236 . S
C59 O71 1.266 . S
O60 Tb40 2.484 . S
O60 C42 1.248 . S
O61 Tb40 2.440 . S
O61 C42 1.266 . S
O62 Tb40 2.658 1_556 S
O62 Tb41 2.325 . S
O62 C49 1.281 1_556 S
O63 Tb40 2.409 . S
O63 C49 1.254 . S
O64 Tb40 2.378 . S
O64 C50 1.236 . S
O65 Tb41 2.341 1_554 S
O65 C50 1.266 . S
O66 Tb41 2.484 . S
O66 C51 1.248 . S
O67 Tb41 2.440 . S
O67 C51 1.266 . S
O68 Tb40 2.325 . S
O68 Tb41 2.658 1_554 S
O68 C58 1.281 1_554 S
O69 Tb41 2.409 . S
O69 C58 1.254 . S
O70 Tb41 2.378 . S
O70 C59 1.236 . S
O71 Tb40 2.341 1_556 S
O71 C59 1.266 . S
H72 C44 0.929 . S
H73 C45 0.931 . S
H74 C47 0.930 . S
H75 C48 0.930 . S
H76 C53 0.929 . S
H77 C54 0.931 . S
H78 C56 0.930 . S
H79 C57 0.930 . S
Tb80 C82 2.809 . S
Tb80 O100 2.484 . S
Tb80 O101 2.440 . S
Tb80 O102 2.658 . S
Tb80 O103 2.409 . S
Tb80 O104 2.378 . S
Tb80 O108 2.325 . S
Tb80 O111 2.341 . S
Tb81 C91 2.809 . S
Tb81 O102 2.325 . S
Tb81 O105 2.341 . S
Tb81 O106 2.484 . S
Tb81 O107 2.440 . S
Tb81 O108 2.658 . S
Tb81 O109 2.409 . S
Tb81 O110 2.378 . S
C82 Tb80 2.809 . S
C82 C83 1.514 . S
C82 O100 1.248 . S
C82 O101 1.266 . S
C83 C82 1.514 . S
C83 C84 1.359 1_455 S
C83 C88 1.348 . S
C84 C83 1.359 1_655 S
C84 C85 1.380 . S
C84 H112 0.929 . S
C85 C84 1.380 . S
C85 C86 1.347 . S
C85 H113 0.931 . S
C86 C85 1.347 . S
C86 C87 1.369 . S
C87 C86 1.369 . S
C87 C88 1.408 1_655 S
C87 H114 0.930 . S
C88 C83 1.348 . S
C88 C87 1.408 1_455 S
C88 H115 0.930 . S
C89 O102 1.281 . S
C89 O103 1.254 . S
C90 O104 1.236 . S
C90 O105 1.266 . S
C91 Tb81 2.809 . S
C91 C92 1.514 . S
C91 O106 1.248 . S
C91 O107 1.266 . S
C92 C91 1.514 . S
C92 C93 1.359 . S
C92 C97 1.348 . S
C93 C92 1.359 . S
C93 C94 1.380 . S
C93 H116 0.929 . S
C94 C93 1.380 . S
C94 C95 1.347 . S
C94 H117 0.931 . S
C95 C94 1.347 . S
C95 C96 1.369 . S
C96 C95 1.369 . S
C96 C97 1.408 . S
C96 H118 0.930 . S
C97 C92 1.348 . S
C97 C96 1.408 . S
C97 H119 0.930 . S
C98 O108 1.281 . S
C98 O109 1.254 . S
C99 O110 1.236 . S
C99 O111 1.266 . S
O100 Tb80 2.484 . S
O100 C82 1.248 . S
O101 Tb80 2.440 . S
O101 C82 1.266 . S
O102 Tb80 2.658 . S
O102 Tb81 2.325 . S
O102 C89 1.281 . S
O103 Tb80 2.409 . S
O103 C89 1.254 . S
O104 Tb80 2.378 . S
O104 C90 1.236 . S
O105 Tb81 2.341 . S
O105 C90 1.266 . S
O106 Tb81 2.484 . S
O106 C91 1.248 . S
O107 Tb81 2.440 . S
O107 C91 1.266 . S
O108 Tb80 2.325 . S
O108 Tb81 2.658 . S
O108 C98 1.281 . S
O109 Tb81 2.409 . S
O109 C98 1.254 . S
O110 Tb81 2.378 . S
O110 C99 1.236 . S
O111 Tb80 2.341 . S
O111 C99 1.266 . S
H112 C84 0.929 . S
H113 C85 0.931 . S
H114 C87 0.930 . S
H115 C88 0.930 . S
H116 C93 0.929 . S
H117 C94 0.931 . S
H118 C96 0.930 . S
H119 C97 0.930 . S
Tb120 C122 2.809 . S
Tb120 O140 2.484 . S
Tb120 O141 2.440 . S
Tb120 O142 2.658 . S
Tb120 O143 2.409 . S
Tb120 O144 2.378 . S
Tb120 O148 2.325 . S
Tb120 O151 2.341 . S
Tb121 C131 2.809 . S
Tb121 O142 2.325 . S
Tb121 O145 2.341 . S
Tb121 O146 2.484 . S
Tb121 O147 2.440 . S
Tb121 O148 2.658 . S
Tb121 O149 2.409 . S
Tb121 O150 2.378 . S
C122 Tb120 2.809 . S
C122 C123 1.514 . S
C122 O140 1.248 . S
C122 O141 1.266 . S
C123 C122 1.514 . S
C123 C124 1.359 . S
C123 C128 1.348 . S
C124 C123 1.359 . S
C124 C125 1.380 . S
C124 H152 0.929 . S
C125 C124 1.380 . S
C125 C126 1.347 . S
C125 H153 0.931 . S
C126 C125 1.347 . S
C126 C127 1.369 . S
C127 C126 1.369 . S
C127 C128 1.408 . S
C127 H154 0.930 . S
C128 C123 1.348 . S
C128 C127 1.408 . S
C128 H155 0.930 . S
C129 O142 1.281 . S
C129 O143 1.254 . S
C130 O144 1.236 . S
C130 O145 1.266 . S
C131 Tb121 2.809 . S
C131 C132 1.514 . S
C131 O146 1.248 . S
C131 O147 1.266 . S
C132 C131 1.514 . S
C132 C133 1.359 1_655 S
C132 C137 1.348 . S
C133 C132 1.359 1_455 S
C133 C134 1.380 . S
C133 H156 0.929 . S
C134 C133 1.380 . S
C134 C135 1.347 . S
C134 H157 0.931 . S
C135 C134 1.347 . S
C135 C136 1.369 . S
C136 C135 1.369 . S
C136 C137 1.408 1_455 S
C136 H158 0.930 . S
C137 C132 1.348 . S
C137 C136 1.408 1_655 S
C137 H159 0.930 . S
C138 O148 1.281 . S
C138 O149 1.254 . S
C139 O150 1.236 . S
C139 O151 1.266 . S
O140 Tb120 2.484 . S
O140 C122 1.248 . S
O141 Tb120 2.440 . S
O141 C122 1.266 . S
O142 Tb120 2.658 . S
O142 Tb121 2.325 . S
O142 C129 1.281 . S
O143 Tb120 2.409 . S
O143 C129 1.254 . S
O144 Tb120 2.378 . S
O144 C130 1.236 . S
O145 Tb121 2.341 . S
O145 C130 1.266 . S
O146 Tb121 2.484 . S
O146 C131 1.248 . S
O147 Tb121 2.440 . S
O147 C131 1.266 . S
O148 Tb120 2.325 . S
O148 Tb121 2.658 . S
O148 C138 1.281 . S
O149 Tb121 2.409 . S
O149 C138 1.254 . S
O150 Tb121 2.378 . S
O150 C139 1.236 . S
O151 Tb120 2.341 . S
O151 C139 1.266 . S
H152 C124 0.929 . S
H153 C125 0.931 . S
H154 C127 0.930 . S
H155 C128 0.930 . S
H156 C133 0.929 . S
H157 C134 0.931 . S
H158 C136 0.930 . S
H159 C137 0.930 . S
C160 C161 1.369 1_556 S
C160 C162 1.419 . S
C160 H164 0.930 . S
C161 C160 1.369 1_554 S
C161 C170 1.429 . S
C162 C160 1.419 . S
C162 C163 1.363 1_556 S
C162 H165 0.929 . S
C163 C162 1.363 1_554 S
C163 C169 1.428 . S
H164 C160 0.930 . S
H165 C162 0.929 . S
S166 N167 1.613 . S
S166 N168 1.610 . S
N167 S166 1.613 . S
N167 C170 1.350 . S
N168 S166 1.610 . S
N168 C169 1.351 . S
C169 C163 1.428 . S
C169 N168 1.351 . S
C169 C170 1.434 . S
C170 C161 1.429 . S
C170 N167 1.350 . S
C170 C169 1.434 . S
C171 C172 1.369 . S
C171 C173 1.419 . S
C171 H175 0.930 . S
C172 C171 1.369 . S
C172 C181 1.429 . S
C173 C171 1.419 . S
C173 C174 1.363 . S
C173 H176 0.929 . S
C174 C173 1.363 . S
C174 C180 1.428 . S
H175 C171 0.930 . S
H176 C173 0.929 . S
S177 N178 1.613 . S
S177 N179 1.610 . S
N178 S177 1.613 . S
N178 C181 1.350 . S
N179 S177 1.610 . S
N179 C180 1.351 . S
C180 C174 1.428 . S
C180 N179 1.351 . S
C180 C181 1.434 . S
C181 C172 1.429 . S
C181 N178 1.350 . S
C181 C180 1.434 . S
C182 C183 1.369 1_566 S
C182 C184 1.419 . S
C182 H186 0.930 . S
C183 C182 1.369 1_544 S
C183 C192 1.429 1_455 S
C184 C182 1.419 . S
C184 C185 1.363 1_456 S
C184 H187 0.929 . S
C185 C184 1.363 1_654 S
C185 C191 1.428 1_565 S
H186 C182 0.930 . S
H187 C184 0.929 . S
S188 N189 1.613 . S
S188 N190 1.610 . S
N189 S188 1.613 . S
N189 C192 1.350 . S
N190 S188 1.610 . S
N190 C191 1.351 . S
C191 C185 1.428 1_545 S
C191 N190 1.351 . S
C191 C192 1.434 . S
C192 C183 1.429 1_655 S
C192 N189 1.350 . S
C192 C191 1.434 . S
C193 C194 1.369 1_455 S
C193 C195 1.419 . S
C193 H197 0.930 . S
C194 C193 1.369 1_655 S
C194 C203 1.429 1_545 S
C195 C193 1.419 . S
C195 C196 1.363 1_545 S
C195 H198 0.929 . S
C196 C195 1.363 1_565 S
C196 C202 1.428 1_455 S
H197 C193 0.930 . S
H198 C195 0.929 . S
S199 N200 1.613 . S
S199 N201 1.610 . S
N200 S199 1.613 . S
N200 C203 1.350 . S
N201 S199 1.610 . S
N201 C202 1.351 . S
C202 C196 1.428 1_655 S
C202 N201 1.351 . S
C202 C203 1.434 . S
C203 C194 1.429 1_565 S
C203 N200 1.350 . S
C203 C202 1.434 . S
C204 C205 1.369 . S
C204 C206 1.419 . S
C204 H208 0.930 . S
C205 C204 1.369 . S
C205 C214 1.429 . S
C206 C204 1.419 . S
C206 C207 1.363 . S
C206 H209 0.929 . S
C207 C206 1.363 . S
C207 C213 1.428 . S
H208 C204 0.930 . S
H209 C206 0.929 . S
S210 N211 1.613 . S
S210 N212 1.610 . S
N211 S210 1.613 . S
N211 C214 1.350 . S
N212 S210 1.610 . S
N212 C213 1.351 . S
C213 C207 1.428 . S
C213 N212 1.351 . S
C213 C214 1.434 . S
C214 C205 1.429 . S
C214 N211 1.350 . S
C214 C213 1.434 . S
C215 C216 1.369 . S
C215 C217 1.419 . S
C215 H219 0.930 . S
C216 C215 1.369 . S
C216 C225 1.429 . S
C217 C215 1.419 . S
C217 C218 1.363 . S
C217 H220 0.929 . S
C218 C217 1.363 . S
C218 C224 1.428 . S
H219 C215 0.930 . S
H220 C217 0.929 . S
S221 N222 1.616 . S
S221 N223 1.617 . S
N222 S221 1.616 . S
N222 C225 1.350 . S
N223 S221 1.617 . S
N223 C224 1.351 . S
C224 C218 1.428 . S
C224 N223 1.351 . S
C224 C225 1.434 . S
C225 C216 1.429 . S
C225 N222 1.350 . S
C225 C224 1.434 . S
C226 C227 1.369 . S
C226 C228 1.419 . S
C226 H230 0.930 . S
C227 C226 1.369 . S
C227 C236 1.429 . S
C228 C226 1.419 . S
C228 C229 1.363 . S
C228 H231 0.929 . S
C229 C228 1.363 . S
C229 C235 1.428 . S
H230 C226 0.930 . S
H231 C228 0.929 . S
S232 N233 1.613 . S
S232 N234 1.610 . S
N233 S232 1.613 . S
N233 C236 1.350 . S
N234 S232 1.610 . S
N234 C235 1.351 . S
C235 C229 1.428 . S
C235 N234 1.351 . S
C235 C236 1.434 . S
C236 C227 1.429 . S
C236 N233 1.350 . S
C236 C235 1.434 . S
C237 C238 1.369 . S
C237 C239 1.419 . S
C237 H241 0.930 . S
C238 C237 1.369 . S
C238 C247 1.429 . S
C239 C237 1.419 . S
C239 C240 1.363 . S
C239 H242 0.929 . S
C240 C239 1.363 . S
C240 C246 1.428 . S
H241 C237 0.930 . S
H242 C239 0.929 . S
S243 N244 1.620 . S
S243 N245 1.613 . S
N244 S243 1.620 . S
N244 C247 1.350 . S
N245 S243 1.613 . S
N245 C246 1.351 . S
C246 C240 1.428 . S
C246 N245 1.351 . S
C246 C247 1.434 . S
C247 C238 1.429 . S
C247 N244 1.350 . S
C247 C246 1.434 . S
C248 C249 1.369 . S
C248 C250 1.419 . S
C248 H252 0.930 . S
C249 C248 1.369 . S
C249 C258 1.429 . S
C250 C248 1.419 . S
C250 C251 1.363 . S
C250 H253 0.929 . S
C251 C250 1.363 . S
C251 C257 1.428 . S
H252 C248 0.930 . S
H253 C250 0.929 . S
S254 N255 1.613 . S
S254 N256 1.610 . S
N255 S254 1.613 . S
N255 C258 1.350 1_455 S
N256 S254 1.610 . S
N256 C257 1.351 1_455 S
C257 C251 1.428 . S
C257 N256 1.351 1_655 S
C257 C258 1.434 . S
C258 C249 1.429 . S
C258 N255 1.350 1_655 S
C258 C257 1.434 . S
C259 C260 1.369 . S
C259 C261 1.419 . S
C259 H263 0.930 . S
C260 C259 1.369 . S
C260 C269 1.429 . S
C261 C259 1.419 . S
C261 C262 1.363 . S
C261 H264 0.929 . S
C262 C261 1.363 . S
C262 C268 1.428 . S
H263 C259 0.930 . S
H264 C261 0.929 . S
S265 N266 1.613 1_455 S
S265 N267 1.610 1_455 S
N266 S265 1.613 1_655 S
N266 C269 1.350 . S
N267 S265 1.610 1_655 S
N267 C268 1.351 . S
C268 C262 1.428 . S
C268 N267 1.351 . S
C268 C269 1.434 . S
C269 C260 1.429 . S
C269 N266 1.350 . S
C269 C268 1.434 . S
C270 C271 1.369 . S
C270 C272 1.419 . S
C270 H274 0.930 . S
C271 C270 1.369 . S
C271 C280 1.429 . S
C272 C270 1.419 . S
C272 C273 1.363 . S
C272 H275 0.929 . S
C273 C272 1.363 . S
C273 C279 1.428 . S
H274 C270 0.930 . S
H275 C272 0.929 . S
S276 N277 1.613 . S
S276 N278 1.610 . S
N277 S276 1.613 . S
N277 C280 1.350 . S
N278 S276 1.610 . S
N278 C279 1.351 . S
C279 C273 1.428 . S
C279 N278 1.351 . S
C279 C280 1.434 . S
C280 C271 1.429 . S
C280 N277 1.350 . S
C280 C279 1.434 . S
C281 C282 1.369 . S
C281 C283 1.419 . S
C281 H285 0.930 1_455 S
C282 C281 1.369 . S
C282 C291 1.429 . S
C283 C281 1.419 . S
C283 C284 1.363 . S
C283 H286 0.929 1_455 S
C284 C283 1.363 . S
C284 C290 1.428 . S
H285 C281 0.930 1_655 S
H286 C283 0.929 1_655 S
S287 N288 1.613 . S
S287 N289 1.610 . S
N288 S287 1.613 . S
N288 C291 1.350 . S
N289 S287 1.610 . S
N289 C290 1.351 . S
C290 C284 1.428 . S
C290 N289 1.351 . S
C290 C291 1.434 . S
C291 C282 1.429 . S
C291 N288 1.350 . S
C291 C290 1.434 . S
C161 C58 1.537 1_554 S
C163 C9 1.541 . S
C172 C89 1.539 . S
C174 C138 1.539 . S
C183 C18 1.541 1_554 S
C185 C49 1.538 . S
C194 C129 1.538 . S
C196 C98 1.540 . S
C205 C126 1.396 . S
C207 C10 1.425 . S
C216 C46 1.399 . S
C218 C90 1.425 . S
C227 C59 1.423 . S
C229 C95 1.395 . S
C238 C139 1.425 . S
C240 C15 1.399 . S
C249 C50 1.425 . S
C251 C86 1.399 . S
C260 C130 1.424 . S
C262 C6 1.394 . S
C271 C135 1.393 . S
C273 C19 1.424 . S
C282 C99 1.424 . S
C284 C55 1.400 . S
