# Generated by pormake.
# Topology wme, (6)-cn, num edge types: 1
# Building blocks:
#     Node 0, Type 0, BuildingBlock: KUMBUR_clean_sbu_1, # of connection points: 6
#     Node 1, Type 0, BuildingBlock: KUMBUR_clean_sbu_1, # of connection points: 6
#     Node 2, Type 0, BuildingBlock: KUMBUR_clean_sbu_1, # of connection points: 6
#     Node 3, Type 0, BuildingBlock: KUMBUR_clean_sbu_1, # of connection points: 6
#     Node 4, Type 0, BuildingBlock: KUMBUR_clean_sbu_1, # of connection points: 6
#     Node 5, Type 0, BuildingBlock: KUMBUR_clean_sbu_1, # of connection points: 6
#     Node 6, Type 0, BuildingBlock: KUMBUR_clean_sbu_1, # of connection points: 6
#     Node 7, Type 0, BuildingBlock: KUMBUR_clean_sbu_1, # of connection points: 6
#     Node 8, Type 0, BuildingBlock: KUMBUR_clean_sbu_1, # of connection points: 6
#     Node 9, Type 0, BuildingBlock: KUMBUR_clean_sbu_1, # of connection points: 6
#     Node 10, Type 0, BuildingBlock: KUMBUR_clean_sbu_1, # of connection points: 6
#     Node 11, Type 0, BuildingBlock: KUMBUR_clean_sbu_1, # of connection points: 6
#     Edge 12, Type (0, 0), BuildingBlock: KIFKEQ_clean_linker_1, # of connection points: 2
#     Edge 13, Type (0, 0), BuildingBlock: KIFKEQ_clean_linker_1, # of connection points: 2
#     Edge 14, Type (0, 0), BuildingBlock: KIFKEQ_clean_linker_1, # of connection points: 2
#     Edge 15, Type (0, 0), BuildingBlock: KIFKEQ_clean_linker_1, # of connection points: 2
#     Edge 16, Type (0, 0), BuildingBlock: KIFKEQ_clean_linker_1, # of connection points: 2
#     Edge 17, Type (0, 0), BuildingBlock: KIFKEQ_clean_linker_1, # of connection points: 2
#     Edge 18, Type (0, 0), BuildingBlock: KIFKEQ_clean_linker_1, # of connection points: 2
#     Edge 19, Type (0, 0), BuildingBlock: KIFKEQ_clean_linker_1, # of connection points: 2
#     Edge 20, Type (0, 0), BuildingBlock: KIFKEQ_clean_linker_1, # of connection points: 2
#     Edge 21, Type (0, 0), BuildingBlock: KIFKEQ_clean_linker_1, # of connection points: 2
#     Edge 22, Type (0, 0), BuildingBlock: KIFKEQ_clean_linker_1, # of connection points: 2
#     Edge 23, Type (0, 0), BuildingBlock: KIFKEQ_clean_linker_1, # of connection points: 2
#     Edge 24, Type (0, 0), BuildingBlock: KIFKEQ_clean_linker_1, # of connection points: 2
#     Edge 25, Type (0, 0), BuildingBlock: KIFKEQ_clean_linker_1, # of connection points: 2
#     Edge 26, Type (0, 0), BuildingBlock: KIFKEQ_clean_linker_1, # of connection points: 2
#     Edge 27, Type (0, 0), BuildingBlock: KIFKEQ_clean_linker_1, # of connection points: 2
#     Edge 28, Type (0, 0), BuildingBlock: KIFKEQ_clean_linker_1, # of connection points: 2
#     Edge 29, Type (0, 0), BuildingBlock: KIFKEQ_clean_linker_1, # of connection points: 2
#     Edge 30, Type (0, 0), BuildingBlock: KIFKEQ_clean_linker_1, # of connection points: 2
#     Edge 31, Type (0, 0), BuildingBlock: KIFKEQ_clean_linker_1, # of connection points: 2
#     Edge 32, Type (0, 0), BuildingBlock: KIFKEQ_clean_linker_1, # of connection points: 2
#     Edge 33, Type (0, 0), BuildingBlock: KIFKEQ_clean_linker_1, # of connection points: 2
#     Edge 34, Type (0, 0), BuildingBlock: KIFKEQ_clean_linker_1, # of connection points: 2
#     Edge 35, Type (0, 0), BuildingBlock: KIFKEQ_clean_linker_1, # of connection points: 2
#     Edge 36, Type (0, 0), BuildingBlock: KIFKEQ_clean_linker_1, # of connection points: 2
#     Edge 37, Type (0, 0), BuildingBlock: KIFKEQ_clean_linker_1, # of connection points: 2
#     Edge 38, Type (0, 0), BuildingBlock: KIFKEQ_clean_linker_1, # of connection points: 2
#     Edge 39, Type (0, 0), BuildingBlock: KIFKEQ_clean_linker_1, # of connection points: 2
#     Edge 40, Type (0, 0), BuildingBlock: KIFKEQ_clean_linker_1, # of connection points: 2
#     Edge 41, Type (0, 0), BuildingBlock: KIFKEQ_clean_linker_1, # of connection points: 2
#     Edge 42, Type (0, 0), BuildingBlock: KIFKEQ_clean_linker_1, # of connection points: 2
#     Edge 43, Type (0, 0), BuildingBlock: KIFKEQ_clean_linker_1, # of connection points: 2
#     Edge 44, Type (0, 0), BuildingBlock: KIFKEQ_clean_linker_1, # of connection points: 2
#     Edge 45, Type (0, 0), BuildingBlock: KIFKEQ_clean_linker_1, # of connection points: 2
#     Edge 46, Type (0, 0), BuildingBlock: KIFKEQ_clean_linker_1, # of connection points: 2
#     Edge 47, Type (0, 0), BuildingBlock: KIFKEQ_clean_linker_1, # of connection points: 2
# Relax obj value: 0.061
# Max RMSD: 0.170
# Mean RMSD: 0.170
data_MOF--net-wme--node1-KUMBUR_clean_sbu_1--edge1-KIFKEQ_clean_linker_1
_symmetry_space_group_name_H-M    P1
_symmetry_Int_Tables_number       1
_symmetry_cell_setting            triclinic
loop_
_symmetry_equiv_pos_as_xyz
'x, y, z'
_cell_length_a     39.281226
_cell_length_b     39.254698
_cell_length_c     54.215892
_cell_angle_alpha  89.93241
_cell_angle_beta   90.008436
_cell_angle_gamma 120.01239
loop_
_atom_site_label
_atom_site_type_symbol
_atom_site_fract_x
_atom_site_fract_y
_atom_site_fract_z
_atom_type_partial_charge
Tb0 Tb 0.26026 0.32046 0.14632 0.0
C1 C 0.12016 0.32142 0.1013 0.0
N2 N 0.15574 0.3384 0.09001 0.0
C3 C 0.125 0.30741 0.05182 0.0
C4 C 0.08545 0.29598 0.08836 0.0
C5 C 0.15862 0.3323 0.06547 0.0
C6 C 0.08827 0.28896 0.06335 0.0
C7 C 0.0823 0.3131 0.13826 0.0
C8 C 0.11883 0.32947 0.12597 0.0
C9 C 0.04769 0.28674 0.12574 0.0
C10 C 0.04926 0.27822 0.10082 0.0
Tb11 Tb 0.20921 0.37725 0.11388 0.0
N12 N 0.15306 0.35478 0.13755 0.0
C13 C 0.08148 0.32483 0.16246 0.0
C14 C 0.15134 0.37012 0.15988 0.0
C15 C 0.11604 0.35433 0.17305 0.0
H16 H 0.18686 0.34676 0.05639 0.0
H17 H 0.11536 0.36573 0.1911 0.0
H18 H 0.20434 0.27698 0.19493 0.0
H19 H 0.41686 0.38593 0.13443 0.0
H20 H 0.17657 0.39547 0.16752 0.0
H21 H 0.05408 0.31297 0.17257 0.0
H22 H 0.34754 0.3542 0.12083 0.0
H23 H 0.12745 0.30247 0.03243 0.0
H24 H 1.01947 0.27345 0.135 0.0
H25 H 1.0223 0.2582 0.0913 0.0
H26 H 0.21257 0.27838 0.24026 0.0
H27 H 0.06229 0.26955 0.05276 0.0
H28 H 0.43279 0.3966 0.17898 0.0
N29 N 0.26514 0.31559 0.18799 0.0
C30 C 0.30176 0.33518 0.19765 0.0
C31 C 0.23794 0.29465 0.22848 0.0
C32 C 0.30813 0.33624 0.22326 0.0
C33 C 0.23337 0.29403 0.20284 0.0
C34 C 0.27547 0.31636 0.23879 0.0
N35 N 0.32484 0.34778 0.15707 0.0
C36 C 0.35428 0.35866 0.1402 0.0
C37 C 0.37184 0.3696 0.19028 0.0
C38 C 0.33293 0.35169 0.18151 0.0
C39 C 0.40241 0.38273 0.17305 0.0
C40 C 0.39353 0.37664 0.1479 0.0
H41 H 0.27899 0.3166 0.25862 0.0
H42 H 0.35246 0.35743 0.25199 0.0
H43 H 0.4084 0.38653 0.22303 0.0
O44 O 0.23911 0.27371 0.121 0.0
O45 O 0.29995 0.38548 0.1425 0.0
O46 O 0.27315 0.40857 0.1126 0.0
O47 O 0.26273 0.26969 0.15605 0.0
O48 O 0.27815 0.33702 0.10797 0.0
O49 O 0.24056 0.35958 0.08683 0.0
O50 O 0.20894 0.42992 0.12108 0.0
O51 O 0.18572 0.31341 0.10997 0.0
O52 O 0.19685 0.2978 0.14818 0.0
O53 O 0.20833 0.41176 0.08407 0.0
O54 O 0.23152 0.39338 0.15244 0.0
O55 O 0.21926 0.33345 0.16471 0.0
C56 C 0.30095 0.41371 0.12832 0.0
C57 C 0.2637 0.22973 0.12353 0.0
C58 C 0.25804 0.16605 0.11359 0.0
C59 C 0.29291 0.1862 0.09969 0.0
C60 C 0.29825 0.24899 0.10954 0.0
C61 C 0.31274 0.22724 0.09773 0.0
C62 C 0.24375 0.18836 0.12556 0.0
C63 C 0.26516 0.34532 0.08761 0.0
C64 C 0.247 0.2519 0.13537 0.0
C65 C 0.34684 0.35592 0.23234 0.0
C66 C 0.37869 0.3725 0.21585 0.0
C67 C 0.17455 0.28883 0.12853 0.0
C68 C 0.17303 0.44547 0.09296 0.0
C69 C 0.14448 0.48853 0.09768 0.0
C70 C 0.1104 0.45989 0.08564 0.0
C71 C 0.13868 0.41789 0.08074 0.0
C72 C 0.17594 0.4811 0.1012 0.0
C73 C 0.10768 0.42506 0.0772 0.0
C74 C 0.22854 0.36929 0.17028 0.0
C75 C 0.20503 0.43665 0.09819 0.0
H76 H 0.30523 0.1703 0.09055 0.0
H77 H 0.3138 0.28071 0.10765 0.0
H78 H 0.33949 0.24227 0.08696 0.0
H79 H 0.21667 0.17357 0.13607 0.0
H80 H 0.08596 0.46475 0.08229 0.0
H81 H 0.13558 0.39066 0.07392 0.0
H82 H 0.20228 0.50261 0.11068 0.0
H83 H 0.08135 0.40348 0.06779 0.0
Tb84 Tb 0.95378 0.25208 0.64724 0.0
C85 C 0.81628 0.11545 0.59759 0.0
N86 N 0.83624 0.152 0.58751 0.0
C87 C 0.83978 0.12436 0.54881 0.0
C88 C 0.80788 0.08179 0.58372 0.0
C89 C 0.84758 0.1569 0.56333 0.0
C90 C 0.82003 0.08665 0.55907 0.0
C91 C 0.78369 0.0746 0.63311 0.0
C92 C 0.80487 0.1121 0.62204 0.0
C93 C 0.77603 0.04098 0.6196 0.0
C94 C 0.78806 0.04456 0.59494 0.0
Tb95 Tb 0.84823 0.2032 0.61285 0.0
N96 N 0.8135 0.14542 0.6347 0.0
C97 C 0.7699 0.07193 0.65719 0.0
C98 C 0.79582 0.14218 0.65699 0.0
C99 C 0.77512 0.10579 0.66893 0.0
H100 H 0.86254 0.18588 0.55519 0.0
H101 H 0.76235 0.10379 0.68694 0.0
H102 H 0.93986 0.21256 0.70285 0.0
H103 H 0.03616 0.4028 0.61579 0.0
H104 H 0.79606 0.16707 0.66547 0.0
H105 H 0.75354 0.04373 0.66638 0.0
H106 H 1.00001 0.3306 0.61084 0.0
H107 H 0.84902 0.12838 0.52971 0.0
H108 H 0.76026 1.01202 0.62792 0.0
H109 H 0.78169 0.01836 0.58468 0.0
H110 H 0.94889 0.23567 0.74608 0.0
H111 H 0.81421 0.06153 0.5478 0.0
H112 H 0.04609 0.43208 0.65743 0.0
N113 N 0.96404 0.27001 0.68766 0.0
C114 C 0.98219 0.3092 0.69217 0.0
C115 C 0.95823 0.25666 0.73108 0.0
C116 C 0.98857 0.32381 0.71646 0.0
C117 C 0.95296 0.24366 0.70662 0.0
C118 C 0.9758 0.2969 0.73604 0.0
N119 N 0.98908 0.31916 0.64926 0.0
C120 C 1.00431 0.34303 0.62908 0.0
C121 C 1.01595 0.37569 0.67602 0.0
C122 C 0.99559 0.3347 0.67229 0.0
C123 C 0.03028 0.40038 0.65538 0.0
C124 C 0.02475 0.38395 0.63183 0.0
H125 H 0.98 0.3069 0.755 0.0
H126 H 1.013 0.37655 0.73887 0.0
H127 H 0.03706 0.422 0.70344 0.0
O128 O 0.98745 0.2346 0.62618 0.0
O129 O 0.92806 0.29108 0.64231 0.0
O130 O 0.88198 0.2671 0.61028 0.0
O131 O 1.00313 0.25355 0.66371 0.0
O132 O 0.95577 0.2578 0.60723 0.0
O133 O 0.8966 0.23885 0.58626 0.0
O134 O 0.79589 0.20384 0.6208 0.0
O135 O 0.88754 0.17792 0.61099 0.0
O136 O 0.91317 0.18867 0.64959 0.0
O137 O 0.81116 0.20022 0.5836 0.0
O138 O 0.85336 0.22468 0.65163 0.0
O139 O 0.89986 0.21144 0.66585 0.0
C140 C 0.90528 0.29489 0.62575 0.0
C141 C 0.05449 0.2621 0.63691 0.0
C142 C 0.11523 0.26047 0.62889 0.0
C143 C 0.13404 0.30086 0.62314 0.0
C144 C 0.07403 0.30221 0.63102 0.0
C145 C 0.11357 0.32143 0.6242 0.0
C146 C 0.07518 0.2413 0.63589 0.0
C147 C 0.93554 0.25381 0.58695 0.0
C148 C 1.01253 0.24146 0.64388 0.0
C149 C 1.00796 0.36468 0.72035 0.0
C150 C 1.02168 0.39057 0.70017 0.0
C151 C 0.89949 0.16612 0.63006 0.0
C152 C 0.74275 0.1658 0.59397 0.0
C153 C 0.67123 0.13753 0.59929 0.0
C154 C 0.66548 0.10279 0.588 0.0
C155 C 0.73558 0.1308 0.58246 0.0
C156 C 0.71025 0.1692 0.60215 0.0
C157 C 0.69732 0.09961 0.57961 0.0
C158 C 0.87254 0.22024 0.67019 0.0
C159 C 0.78387 0.19816 0.59812 0.0
H160 H 0.16486 0.31682 0.61814 0.0
H161 H 0.05877 0.31868 0.63174 0.0
H162 H 0.12849 0.35248 0.61978 0.0
H163 H 0.05992 0.21016 0.64021 0.0
H164 H 0.6361 0.07816 0.58521 0.0
H165 H 0.75949 0.1274 0.57556 0.0
H166 H 0.71534 0.19608 0.61102 0.0
H167 H 0.6923 0.07278 0.57076 0.0
Tb168 Tb 0.72607 0.94973 0.14473 0.0
C169 C 0.72121 0.81856 0.07633 0.0
N170 N 0.69935 0.83637 0.07363 0.0
C171 C 0.70951 0.83991 0.02986 0.0
C172 C 0.73858 0.81115 0.05583 0.0
C173 C 0.69296 0.84677 0.05078 0.0
C174 C 0.7325 0.82213 0.03238 0.0
C175 C 0.74973 0.79045 0.10359 0.0
C176 C 0.72682 0.80845 0.09989 0.0
C177 C 0.76714 0.783 0.08321 0.0
C178 C 0.76157 0.79332 0.05939 0.0
Tb179 Tb 0.67449 0.84637 0.10917 0.0
N180 N 0.7108 0.81755 0.11926 0.0
C181 C 0.75461 0.78071 0.12766 0.0
C182 C 0.71368 0.80615 0.14259 0.0
C183 C 0.73612 0.78819 0.1472 0.0
H184 H 0.67456 0.85977 0.04852 0.0
H185 H 0.73892 0.77991 0.16582 0.0
H186 H 0.7296 0.93309 0.20465 0.0
H187 H 0.66401 0.02454 0.0943 0.0
H188 H 0.69846 0.81037 0.15764 0.0
H189 H 0.77213 0.76698 0.13131 0.0
H190 H 0.70249 0.99112 0.09913 0.0
H191 H 0.7044 0.84822 0.01178 0.0
H192 H 0.785 0.76934 0.08568 0.0
H193 H 0.77523 0.78745 0.04386 0.0
H194 H 0.70114 0.94179 0.24308 0.0
H195 H 0.74533 0.81693 0.01614 0.0
H196 H 0.63308 0.03593 0.13074 0.0
N197 N 0.70388 0.95825 0.18177 0.0
C198 C 0.68249 0.97676 0.18081 0.0
C199 C 0.69553 0.95161 0.22567 0.0
C200 C 0.66631 0.98304 0.20234 0.0
C201 C 0.71118 0.94625 0.20382 0.0
C202 C 0.67287 0.96995 0.22494 0.0
N203 N 0.69182 0.98159 0.13762 0.0
C204 C 0.6885 0.995 0.11504 0.0
C205 C 0.65471 1.00862 0.15623 0.0
C206 C 0.67671 0.98933 0.15806 0.0
C207 C 0.64976 0.02096 0.13294 0.0
C208 C 0.66703 1.01442 0.11231 0.0
H209 H 0.66086 0.97413 0.24191 0.0
H210 H 0.63144 1.00716 0.21696 0.0
H211 H 0.62136 0.02961 0.17661 0.0
O212 O 0.77679 0.99744 0.12914 0.0
O213 O 0.66075 0.91754 0.14205 0.0
O214 O 0.64429 0.87991 0.10657 0.0
O215 O 0.76731 0.99358 0.16823 0.0
O216 O 0.73615 0.95008 0.10486 0.0
O217 O 0.68244 0.89693 0.08635 0.0
O218 O 0.63182 0.7921 0.12404 0.0
O219 O 0.7394 0.88252 0.10911 0.0
O220 O 0.75325 0.91286 0.14672 0.0
O221 O 0.63071 0.80453 0.08563 0.0
O222 O 0.6607 0.84733 0.14905 0.0
O223 O 0.718 0.8982 0.16455 0.0
C224 C 0.63565 0.89664 0.12451 0.0
C225 C 0.83226 0.01735 0.15458 0.0
C226 C 0.90356 0.05594 0.14902 0.0
C227 C 0.90702 0.02546 0.16017 0.0
C228 C 0.83674 0.98784 0.16622 0.0
C229 C 0.87384 0.99181 0.16883 0.0
C230 C 0.86591 0.05174 0.14625 0.0
C231 C 0.71371 0.93281 0.08556 0.0
C232 C 0.79245 1.01147 0.1506 0.0
C233 C 0.64418 1.0021 0.20062 0.0
C234 C 0.63843 1.01489 0.17764 0.0
C235 C 0.76344 0.89914 0.12776 0.0
C236 C 0.56985 0.76015 0.10489 0.0
C237 C 0.50593 0.70133 0.11339 0.0
C238 C 0.48794 0.72431 0.10975 0.0
C239 C 0.55106 0.78217 0.10159 0.0
C240 C 0.54721 0.7197 0.11075 0.0
C241 C 0.51034 0.76428 0.10397 0.0
C242 C 0.6837 0.86657 0.16784 0.0
C243 C 0.6131 0.77921 0.1033 0.0
H244 H 0.9356 0.02809 0.16272 0.0
H245 H 0.81152 0.96164 0.17337 0.0
H246 H 0.87692 0.9688 0.17774 0.0
H247 H 0.8628 0.07483 0.13744 0.0
H248 H 0.45634 0.71131 0.11108 0.0
H249 H 0.5679 0.81318 0.0972 0.0
H250 H 0.56186 0.70286 0.11372 0.0
H251 H 0.49602 0.78148 0.10131 0.0
Tb252 Tb 0.78437 0.71348 0.64605 0.0
C253 C 0.91925 0.71283 0.5918 0.0
N254 N 0.88088 0.6951 0.58486 0.0
C255 C 0.89991 0.72147 0.54406 0.0
C256 C 0.94951 0.73717 0.57533 0.0
C257 C 0.87087 0.69792 0.56115 0.0
C258 C 0.93937 0.74151 0.55124 0.0
C259 C 0.96727 0.7262 0.62388 0.0
C260 C 0.92787 0.70741 0.6158 0.0
C261 C 0.99753 0.75122 0.60773 0.0
C262 C 0.98868 0.75658 0.58349 0.0
Tb263 Tb 0.83598 0.65762 0.61407 0.0
N264 N 0.89771 0.68334 0.63105 0.0
C265 C 0.97515 0.71879 0.64782 0.0
C266 C 0.90578 0.67347 0.65365 0.0
C267 C 0.94433 0.69175 0.66258 0.0
H268 H 0.84055 0.68203 0.55532 0.0
H269 H 0.95031 0.68439 0.68071 0.0
H270 H 0.80504 0.71977 0.70633 0.0
H271 H 0.6454 0.66462 0.60084 0.0
H272 H 0.88309 0.65067 0.66475 0.0
H273 H 1.005 0.7327 0.65475 0.0
H274 H 0.71806 0.70209 0.6047 0.0
H275 H 0.89186 0.72411 0.52536 0.0
H276 H 0.02792 0.76617 0.61371 0.0
H277 H 1.01235 0.77573 0.57119 0.0
H278 H 0.77031 0.68598 0.74446 0.0
H279 H 0.96176 0.75993 0.53801 0.0
H280 H 0.60465 0.62399 0.63581 0.0
N281 N 0.75494 0.688 0.68328 0.0
C282 C 0.71529 0.66434 0.68271 0.0
C283 C 0.75452 0.67913 0.72714 0.0
C284 C 0.69379 0.64562 0.70418 0.0
C285 C 0.77432 0.69761 0.70537 0.0
C286 C 0.71416 0.6524 0.72647 0.0
N287 N 0.71785 0.68145 0.64099 0.0
C288 C 0.70028 0.68435 0.61995 0.0
C289 C 0.65465 0.63974 0.65962 0.0
C290 C 0.69595 0.66147 0.66087 0.0
C291 C 0.63638 0.64028 0.63754 0.0
C292 C 0.65929 0.66322 0.61776 0.0
H293 H 0.69879 0.63852 0.7434 0.0
H294 H 0.63559 0.60718 0.71909 0.0
H295 H 0.60128 0.60201 0.68 0.0
O296 O 0.79293 0.76555 0.62905 0.0
O297 O 0.74711 0.65392 0.62981 0.0
O298 O 0.78384 0.62452 0.63684 0.0
O299 O 0.77925 0.75564 0.66739 0.0
O300 O 0.7958 0.72117 0.60657 0.0
O301 O 0.79396 0.66557 0.58994 0.0
O302 O 0.8595 0.61986 0.6112 0.0
O303 O 0.86071 0.72175 0.61064 0.0
O304 O 0.84821 0.7387 0.64832 0.0
O305 O 0.8108 0.61051 0.58874 0.0
O306 O 0.8235 0.64738 0.6544 0.0
O307 O 0.82652 0.70476 0.66798 0.0
C308 C 0.74979 0.62211 0.63319 0.0
C309 C 0.82436 0.82072 0.65496 0.0
C310 C 0.85781 0.89256 0.65116 0.0
C311 C 0.89132 0.89489 0.66218 0.0
C312 C 0.858 0.82414 0.66641 0.0
C313 C 0.89126 0.86095 0.66985 0.0
C314 C 0.82416 0.85515 0.6476 0.0
C315 C 0.78776 0.69598 0.58844 0.0
C316 C 0.79063 0.78121 0.6496 0.0
C317 C 0.65263 0.62215 0.70285 0.0
C318 C 0.63308 0.61926 0.6806 0.0
C319 C 0.87166 0.74609 0.62936 0.0
C320 C 0.8137 0.55364 0.60197 0.0
C321 C 0.81842 0.49513 0.61281 0.0
C322 C 0.77727 0.47368 0.61531 0.0
C323 C 0.77264 0.53104 0.6043 0.0
C324 C 0.83649 0.53526 0.60591 0.0
C325 C 0.75469 0.49144 0.61093 0.0
C326 C 0.8273 0.67211 0.67226 0.0
C327 C 0.83297 0.59627 0.59579 0.0
H328 H 0.91744 0.92317 0.66527 0.0
H329 H 0.85867 0.79831 0.67265 0.0
H330 H 0.91714 0.86318 0.67851 0.0
H331 H 0.79832 0.85283 0.63877 0.0
H332 H 0.76238 0.44278 0.62021 0.0
H333 H 0.7543 0.54395 0.60105 0.0
H334 H 0.86819 0.55229 0.60401 0.0
H335 H 0.72301 0.47432 0.61263 0.0
Tb336 Tb 0.0907 0.78558 0.13767 0.0
C337 C 0.2304 0.91314 0.08677 0.0
N338 N 0.21219 0.87396 0.0818 0.0
C339 C 0.2083 0.88769 0.03896 0.0
C340 C 0.23635 0.94093 0.06829 0.0
C341 C 0.20367 0.8614 0.05785 0.0
C342 C 0.22394 0.92753 0.04428 0.0
C343 C 0.26626 0.96602 0.11598 0.0
C344 C 0.24515 0.92565 0.11019 0.0
C345 C 0.27072 0.99373 0.09798 0.0
C346 C 0.25565 0.98118 0.0742 0.0
Tb347 Tb 0.20368 0.83385 0.11512 0.0
N348 N 0.23882 0.89796 0.12737 0.0
C349 C 0.28232 0.9772 0.13965 0.0
C350 C 0.25619 0.90863 0.15007 0.0
C351 C 0.27769 0.94837 0.15667 0.0
H352 H 0.19386 0.83127 0.05291 0.0
H353 H 0.29055 0.95673 0.17486 0.0
H354 H 0.09427 0.74836 0.19141 0.0
H355 H 0.98777 0.72117 0.06229 0.0
H356 H 0.25251 0.88629 0.1632 0.0
H357 H 0.29872 1.00794 0.14486 0.0
H358 H 0.03631 0.77554 0.08826 0.0
H359 H 0.20044 0.87728 0.02019 0.0
H360 H 0.2862 0.02489 0.10217 0.0
H361 H 0.25999 1.00291 0.06033 0.0
H362 H 0.06688 0.68227 0.21035 0.0
H363 H 0.2279 0.94788 0.02955 0.0
H364 H 0.96483 0.65212 0.07417 0.0
N365 N 0.0667 0.72612 0.15677 0.0
C366 C 0.04068 0.69411 0.14375 0.0
C367 C 0.05953 0.68518 0.19152 0.0
C368 C 1.02437 0.65595 0.15366 0.0
C369 C 0.07501 0.72249 0.18079 0.0
C370 C 0.03458 0.6517 0.17776 0.0
N371 N 0.04366 0.73779 0.11314 0.0
C372 C 0.02767 0.74557 0.09304 0.0
C373 C 1.00069 0.66813 0.10715 0.0
C374 C 0.02921 0.70018 0.1209 0.0
C375 C 0.98675 0.67588 0.08531 0.0
C376 C 0.99966 0.71481 0.07854 0.0
H377 H 1.02263 0.62286 0.18611 0.0
H378 H 0.985 0.59393 0.14662 0.0
H379 H 0.96417 0.6046 0.10583 0.0
O380 O 0.03553 0.78255 0.14049 0.0
O381 O 0.11993 0.7491 0.13926 0.0
O382 O 0.16598 0.77121 0.10782 0.0
O383 O 0.07821 0.80824 0.16929 0.0
O384 O 0.10729 0.80846 0.1001 0.0
O385 O 0.15697 0.79766 0.08756 0.0
O386 O 0.24707 0.82608 0.13255 0.0
O387 O 0.18072 0.8672 0.13469 0.0
O388 O 0.11906 0.84363 0.11951 0.0
O389 O 0.25317 0.84254 0.09451 0.0
O390 O 0.19082 0.81068 0.15335 0.0
O391 O 0.13616 0.8147 0.16581 0.0
C392 C 0.14156 0.74333 0.12288 0.0
C393 C 0.04225 0.84 0.15918 0.0
C394 C 1.00373 0.87217 0.15066 0.0
C395 C 0.03781 0.90894 0.1541 0.0
C396 C 0.07566 0.87725 0.16285 0.0
C397 C 0.0734 0.91137 0.16023 0.0
C398 C 1.00612 0.83763 0.15335 0.0
C399 C 0.12297 0.7962 0.08352 0.0
C400 C 0.04565 0.80403 0.16025 0.0
C401 C 0.9976 0.6236 0.13948 0.0
C402 C 0.9858 0.62969 0.11623 0.0
C403 C 0.15284 0.87333 0.12666 0.0
C404 C 0.28776 0.81095 0.10873 0.0
C405 C 0.34706 0.80525 0.11028 0.0
C406 C 0.32387 0.76502 0.1046 0.0
C407 C 0.26529 0.77091 0.10299 0.0
C408 C 0.32863 0.82809 0.11215 0.0
C409 C 0.28334 0.74811 0.10086 0.0
C410 C 0.16884 0.81421 0.17052 0.0
C411 C 0.26911 0.83489 0.1131 0.0
H412 H 0.0368 0.93593 0.15243 0.0
H413 H 0.10378 0.88018 0.16756 0.0
H414 H 0.09939 0.93984 0.16294 0.0
H415 H 0.98021 0.80911 0.15042 0.0
H416 H 0.33714 0.74671 0.10281 0.0
H417 H 0.23386 0.75733 0.10049 0.0
H418 H 0.34588 0.85896 0.11698 0.0
H419 H 0.26581 0.71713 0.09648 0.0
Tb420 Tb 0.32188 0.0866 0.64491 0.0
C421 C 0.33787 0.22388 0.5832 0.0
N422 N 0.35347 0.20047 0.57836 0.0
C423 C 0.3324 0.19391 0.53628 0.0
C424 C 0.31748 0.23194 0.56483 0.0
C425 C 0.35213 0.18646 0.55514 0.0
C426 C 0.31474 0.21648 0.54118 0.0
C427 C 0.32397 0.26164 0.61283 0.0
C428 C 0.34114 0.23854 0.60699 0.0
C429 C 0.30336 0.26948 0.59461 0.0
C430 C 0.3002 0.25476 0.57068 0.0
Tb431 Tb 0.38609 0.19194 0.61023 0.0
N432 N 0.3608 0.22984 0.62438 0.0
C433 C 0.32812 0.27632 0.63679 0.0
C434 C 0.36723 0.24656 0.64726 0.0
C435 C 0.35027 0.26917 0.65396 0.0
H436 H 0.36659 0.16994 0.55094 0.0
H437 H 0.35495 0.28171 0.67226 0.0
H438 H 0.31207 0.10625 0.7035 0.0
H439 H 0.36251 0.98438 0.60801 0.0
H440 H 0.38647 0.24405 0.66026 0.0
H441 H 0.31519 0.294 0.64204 0.0
H442 H 0.33023 0.02491 0.60755 0.0
H443 H 0.33102 0.18242 0.51795 0.0
H444 H 0.28981 0.28698 0.59884 0.0
H445 H 0.28419 0.26106 0.55685 0.0
H446 H 0.33938 0.1032 0.74392 0.0
H447 H 0.29934 0.22202 0.52655 0.0
H448 H 0.39807 0.9829 0.64538 0.0
N449 N 0.34191 0.08201 0.6838 0.0
C450 C 0.36275 0.06308 0.68562 0.0
C451 C 0.3466 0.09221 0.72761 0.0
C452 C 0.37794 0.05947 0.7084 0.0
C453 C 0.33166 0.09442 0.70461 0.0
C454 C 0.37053 0.07536 0.72946 0.0
N455 N 0.34914 0.04715 0.64371 0.0
C456 C 0.3458 0.0243 0.62381 0.0
C457 C 0.38456 0.02175 0.66617 0.0
C458 C 0.366 0.04446 0.66491 0.0
C459 C 0.38411 1.00072 0.64519 0.0
C460 C 0.36403 1.00145 0.62406 0.0
H461 H 0.38173 0.07332 0.74733 0.0
H462 H 0.4108 0.03599 0.72684 0.0
H463 H 0.41662 1.00294 0.68979 0.0
O464 O 0.26961 0.04546 0.62714 0.0
O465 O 0.38037 0.10175 0.62989 0.0
O466 O 0.41833 0.16955 0.63124 0.0
O467 O 0.27575 0.04246 0.66605 0.0
O468 O 0.31671 0.0908 0.60504 0.0
O469 O 0.37498 0.13941 0.58775 0.0
O470 O 0.42526 0.25298 0.60878 0.0
O471 O 0.32116 0.15697 0.60765 0.0
O472 O 0.30205 0.12986 0.64596 0.0
O473 O 0.43381 0.21424 0.5852 0.0
O474 O 0.39709 0.19113 0.65048 0.0
O475 O 0.33727 0.14135 0.66429 0.0
C476 C 0.41472 0.13449 0.63007 0.0
C477 C 0.21255 0.02446 0.65093 0.0
C478 C 0.14088 0.98586 0.64687 0.0
C479 C 0.1386 0.01874 0.65488 0.0
C480 C 0.20929 0.05651 0.65933 0.0
C481 C 0.17256 0.05368 0.66115 0.0
C482 C 0.17818 0.98894 0.64496 0.0
C483 C 0.34328 0.10352 0.58736 0.0
C484 C 0.25174 0.02859 0.6475 0.0
C485 C 0.3985 0.03873 0.70956 0.0
C486 C 0.40177 0.01985 0.68848 0.0
C487 C 0.29659 0.14626 0.62634 0.0
C488 C 0.49104 0.27337 0.5991 0.0
C489 C 0.54933 0.33602 0.61061 0.0
C490 C 0.57046 0.31608 0.61343 0.0
C491 C 0.51322 0.25457 0.60184 0.0
C492 C 0.50955 0.3145 0.60317 0.0
C493 C 0.5526 0.27578 0.6089 0.0
C494 C 0.3727 0.17095 0.66863 0.0
C495 C 0.44848 0.2504 0.59291 0.0
H496 H 0.11039 0.01718 0.65673 0.0
H497 H 0.23513 0.08376 0.66449 0.0
H498 H 0.1704 0.07866 0.66752 0.0
H499 H 0.1805 0.96407 0.63848 0.0
H500 H 0.60104 0.33185 0.61902 0.0
H501 H 0.50012 0.22342 0.5987 0.0
H502 H 0.49284 0.32949 0.60119 0.0
H503 H 0.56929 0.26083 0.61103 0.0
Tb504 Tb 0.7242 0.78136 0.38129 0.0
C505 C 0.71562 0.91716 0.42642 0.0
N506 N 0.69944 0.87958 0.43482 0.0
C507 C 0.72537 0.90319 0.47519 0.0
C508 C 0.73896 0.94935 0.4419 0.0
C509 C 0.70274 0.87217 0.45905 0.0
C510 C 0.74389 0.94193 0.46652 0.0
C511 C 0.72681 0.96159 0.39236 0.0
C512 C 0.7096 0.92306 0.40194 0.0
C513 C 0.75087 0.99378 0.40754 0.0
C514 C 0.75681 0.98769 0.43227 0.0
Tb515 Tb 0.66301 0.83131 0.40712 0.0
N516 N 0.68648 0.8911 0.3877 0.0
C517 C 0.71883 0.96665 0.36793 0.0
C518 C 0.67606 0.89632 0.36451 0.0
C519 C 0.6928 0.93392 0.35411 0.0
H520 H 0.68801 0.84241 0.466 0.0
H521 H 0.68502 0.93767 0.33555 0.0
H522 H 0.73188 0.79482 0.32002 0.0
H523 H 0.67977 0.65 0.43495 0.0
H524 H 0.65397 0.87202 0.35403 0.0
H525 H 0.73154 0.99575 0.35985 0.0
H526 H 0.71373 0.72181 0.42744 0.0
H527 H 0.72845 0.89722 0.4943 0.0
H528 H 0.76462 0.02355 0.40041 0.0
H529 H 0.77519 1.01282 0.4438 0.0
H530 H 0.70234 0.75415 0.28306 0.0
H531 H 0.7616 0.96586 0.47903 0.0
H532 H 0.64419 0.60374 0.40086 0.0
N533 N 0.70257 0.74696 0.34516 0.0
C534 C 0.68145 0.7072 0.34758 0.0
C535 C 0.69574 0.74059 0.30114 0.0
C536 C 0.66522 0.68256 0.32688 0.0
C537 C 0.71179 0.76369 0.32222 0.0
C538 C 0.67178 0.69987 0.3035 0.0
N539 N 0.69562 0.71592 0.39 0.0
C540 C 0.69769 0.70176 0.41266 0.0
C541 C 0.6589 0.65001 0.37402 0.0
C542 C 0.67838 0.69108 0.37074 0.0
C543 C 0.65877 0.63516 0.39756 0.0
C544 C 0.67878 0.66118 0.41687 0.0
H545 H 0.65977 0.682 0.28712 0.0
H546 H 0.63121 0.62209 0.31449 0.0
H547 H 0.62565 0.59358 0.35581 0.0
O548 O 0.77841 0.80115 0.39924 0.0
O549 O 0.66339 0.74296 0.39578 0.0
O550 O 0.63249 0.77741 0.38567 0.0
O551 O 0.76849 0.7749 0.36346 0.0
O552 O 0.72792 0.79458 0.42056 0.0
O553 O 0.66988 0.79133 0.43365 0.0
O554 O 0.62325 0.85262 0.40738 0.0
O555 O 0.72701 0.85773 0.41182 0.0
O556 O 0.74694 0.84436 0.37554 0.0
O557 O 0.61581 0.80725 0.43241 0.0
O558 O 0.65528 0.81572 0.3671 0.0
O559 O 0.71365 0.81859 0.35564 0.0
C560 C 0.63113 0.74414 0.39075 0.0
C561 C 0.8169 0.77258 0.3887 0.0
C562 C 0.88142 0.77993 0.3978 0.0
C563 C 0.86254 0.73995 0.40451 0.0
C564 C 0.7989 0.73267 0.39503 0.0
C565 C 0.82166 0.71655 0.40299 0.0
C566 C 0.85821 0.79603 0.38987 0.0
C567 C 0.70053 0.78614 0.43727 0.0
C568 C 0.79341 0.79079 0.38144 0.0
C569 C 0.64421 0.64152 0.33013 0.0
C570 C 0.6411 0.62527 0.35366 0.0
C571 C 0.75183 0.86901 0.39335 0.0
C572 C 0.55776 0.80648 0.41799 0.0
C573 C 0.49775 0.80792 0.40677 0.0
C574 C 0.47742 0.76657 0.40571 0.0
C575 C 0.53636 0.7652 0.41703 0.0
C576 C 0.53807 0.82775 0.41314 0.0
C577 C 0.49653 0.7455 0.41093 0.0
C578 C 0.68108 0.81886 0.35013 0.0
C579 C 0.60046 0.8276 0.4238 0.0
H580 H 0.87949 0.72655 0.41044 0.0
H581 H 0.76739 0.71399 0.3938 0.0
H582 H 0.80755 0.68572 0.40792 0.0
H583 H 0.87222 0.8269 0.38493 0.0
H584 H 0.44641 0.75038 0.4012 0.0
H585 H 0.55036 0.74806 0.42099 0.0
H586 H 0.55425 0.85961 0.41392 0.0
H587 H 0.48032 0.71368 0.41027 0.0
Tb588 Tb 0.95449 0.72316 0.8758 0.0
C589 C 0.81769 0.70485 0.94402 0.0
N590 N 0.83872 0.68628 0.94728 0.0
C591 C 0.83945 0.69586 0.99102 0.0
C592 C 0.8071 0.72016 0.96424 0.0
C593 C 0.84918 0.68105 0.97041 0.0
C594 C 0.81844 0.71561 0.98793 0.0
C595 C 0.78539 0.72812 0.9161 0.0
C596 C 0.80717 0.70897 0.92022 0.0
C597 C 0.77465 0.74327 0.93621 0.0
C598 C 0.78559 0.73942 0.9602 0.0
Tb599 Tb 0.85191 0.66292 0.91224 0.0
N600 N 0.81901 0.69491 0.9011 0.0
C601 C 0.77527 0.73166 0.89188 0.0
C602 C 0.80733 0.69643 0.87762 0.0
C603 C 0.78598 0.7154 0.87259 0.0
H604 H 0.86437 0.66479 0.97319 0.0
H605 H 0.77739 0.71705 0.85385 0.0
H606 H 0.93714 0.74069 0.81872 0.0
H607 H 0.04075 0.66243 0.91256 0.0
H608 H 0.81343 0.68233 0.86276 0.0
H609 H 0.7588 0.7464 0.88792 0.0
H610 H 1.00131 0.69524 0.91508 0.0
H611 H 0.84789 0.69174 1.0093 0.0
H612 H 0.75791 0.75805 0.9334 0.0
H613 H 0.77718 0.75137 0.97551 0.0
H614 H 0.94784 0.72405 0.7765 0.0
H615 H 0.81088 0.72696 1.00395 0.0
H616 H 0.05433 0.64293 0.87197 0.0
N617 N 0.96534 0.71279 0.83605 0.0
C618 C 0.98601 0.69386 0.83301 0.0
C619 C 0.95865 0.71531 0.79224 0.0
C620 C 0.99358 0.68452 0.80932 0.0
C621 C 0.9523 0.72435 0.81615 0.0
C622 C 0.97921 0.69513 0.7888 0.0
N623 N 0.99181 0.69358 0.87633 0.0
C624 C 1.00684 0.68678 0.89729 0.0
C625 C 1.02258 0.66562 0.85149 0.0
C626 C 1.00022 0.68445 0.8538 0.0
C627 C 0.03698 0.65735 0.87295 0.0
C628 C 0.02932 0.66826 0.89591 0.0
H629 H 0.98423 0.68832 0.77026 0.0
H630 H 1.02145 0.65767 0.78883 0.0
H631 H 0.04693 0.64123 0.82575 0.0
O632 O 0.98937 0.77567 0.89512 0.0
O633 O 0.92998 0.65841 0.87892 0.0
O634 O 0.88768 0.63509 0.91273 0.0
O635 O 1.00084 0.77093 0.85688 0.0
O636 O 0.95797 0.72417 0.91585 0.0
O637 O 0.90266 0.67481 0.93624 0.0
O638 O 0.79571 0.62068 0.89994 0.0
O639 O 0.88631 0.72799 0.91391 0.0
O640 O 0.9121 0.74364 0.87523 0.0
O641 O 0.81529 0.61572 0.93594 0.0
O642 O 0.85405 0.64879 0.87256 0.0
O643 O 0.8998 0.70895 0.85787 0.0
C644 C 0.90911 0.63121 0.89561 0.0
C645 C 0.05452 0.81568 0.88167 0.0
C646 C 0.11364 0.87889 0.89008 0.0
C647 C 0.13405 0.85876 0.89519 0.0
C648 C 0.07558 0.79629 0.8866 0.0
C649 C 0.11515 0.81779 0.89331 0.0
C650 C 0.07373 0.85701 0.88319 0.0
C651 C 0.93975 0.70415 0.93578 0.0
C652 C 1.0121 0.79333 0.87633 0.0
C653 C 1.01539 0.66521 0.80689 0.0
C654 C 0.02992 0.65586 0.82792 0.0
C655 C 0.89952 0.75266 0.89524 0.0
C656 C 0.76806 0.55672 0.91579 0.0
C657 C 0.70811 0.49378 0.90727 0.0
C658 C 0.73154 0.47611 0.90483 0.0
C659 C 0.7906 0.53836 0.91311 0.0
C660 C 0.72685 0.53433 0.91291 0.0
C661 C 0.77236 0.49824 0.90776 0.0
C662 C 0.87223 0.67267 0.85391 0.0
C663 C 0.78697 0.59958 0.91986 0.0
H664 H 0.16483 0.87477 0.9003 0.0
H665 H 0.06141 0.76462 0.88546 0.0
H666 H 0.13123 0.80264 0.89714 0.0
H667 H 0.05741 0.87204 0.87956 0.0
H668 H 0.71828 0.44499 0.90091 0.0
H669 H 0.82226 0.55511 0.91492 0.0
H670 H 0.70957 0.54878 0.91447 0.0
H671 H 0.78997 0.48424 0.90576 0.0
Tb672 Tb 0.26116 0.95502 0.38522 0.0
C673 C 0.13526 0.81702 0.43691 0.0
N674 N 0.17459 0.83467 0.44123 0.0
C675 C 0.16296 0.84014 0.48423 0.0
C676 C 0.1085 0.81222 0.45579 0.0
C677 C 0.18819 0.84359 0.46496 0.0
C678 C 0.12305 0.82517 0.47953 0.0
C679 C 0.08096 0.78116 0.40862 0.0
C680 C 0.12154 0.8016 0.41377 0.0
C681 C 0.05429 0.77781 0.42702 0.0
C682 C 0.06805 0.79343 0.45055 0.0
Tb683 Tb 0.2129 0.84104 0.40736 0.0
N684 N 0.14825 0.80661 0.39623 0.0
C685 C 0.06851 0.76452 0.38519 0.0
C686 C 0.13632 0.78867 0.37377 0.0
C687 C 0.09631 0.76787 0.36779 0.0
H688 H 0.21832 0.85277 0.46946 0.0
H689 H 0.08695 0.75456 0.34977 0.0
H690 H 0.30093 0.95502 0.33166 0.0
H691 H 0.32177 0.05656 0.46149 0.0
H692 H 0.15786 0.79141 0.36031 0.0
H693 H 0.03756 0.74863 0.38047 0.0
H694 H 0.26871 1.00826 0.43456 0.0
H695 H 0.17423 0.84835 0.50281 0.0
H696 H 1.02299 0.7627 0.42335 0.0
H697 H 0.04711 0.78993 0.46473 0.0
H698 H 0.36797 0.98234 0.31419 0.0
H699 H 0.10352 0.82209 0.49456 0.0
H700 H 0.39133 0.07944 0.45122 0.0
N701 N 0.32151 0.98037 0.36704 0.0
C702 C 0.35288 1.00542 0.38086 0.0
C703 C 0.36413 0.98881 0.33305 0.0
C704 C 0.39149 0.02186 0.37176 0.0
C705 C 0.32632 0.9735 0.3429 0.0
C706 C 0.39692 1.01257 0.34768 0.0
N707 N 0.30777 1.0017 0.4105 0.0
C708 C 0.29896 0.01729 0.43034 0.0
C709 C 0.37703 0.04425 0.41802 0.0
C710 C 0.34572 1.01618 0.4036 0.0
C711 C 0.36817 0.05783 0.43959 0.0
C712 C 0.32894 0.045 0.44544 0.0
H713 H 0.42615 0.02457 0.33997 0.0
H714 H 0.45313 0.06063 0.38019 0.0
H715 H 0.44043 0.08041 0.42075 0.0
O716 O 0.2635 1.00996 0.38251 0.0
O717 O 0.29651 0.92505 0.38133 0.0
O718 O 0.27608 0.87824 0.41229 0.0
O719 O 0.23767 0.96714 0.35385 0.0
O720 O 0.2392 0.93654 0.42275 0.0
O721 O 0.25177 0.88775 0.43417 0.0
O722 O 0.2193 0.79662 0.39012 0.0
O723 O 0.17995 0.86466 0.38806 0.0
O724 O 0.20347 0.92608 0.40372 0.0
O725 O 0.20383 0.79168 0.42828 0.0
O726 O 0.23234 0.85254 0.36827 0.0
O727 O 0.2325 0.91012 0.35663 0.0
C728 C 0.30171 0.90066 0.39557 0.0
C729 C 0.20564 1.0028 0.36401 0.0
C730 C 0.17293 0.04073 0.37291 0.0
C731 C 0.13642 1.00678 0.36851 0.0
C732 C 0.16864 0.96959 0.35935 0.0
C733 C 0.13439 0.9716 0.36172 0.0
C734 C 0.20762 0.03854 0.37055 0.0
C735 C 0.25359 0.92183 0.43856 0.0
C736 C 0.24173 0.99964 0.36287 0.0
C737 C 0.42312 0.04797 0.38668 0.0
C738 C 0.41589 0.05916 0.4098 0.0
C739 C 0.17388 0.89252 0.39617 0.0
C740 C 0.23412 0.75584 0.41425 0.0
C741 C 0.23942 0.69635 0.41174 0.0
C742 C 0.279 0.71869 0.41904 0.0
C743 C 0.27334 0.77737 0.42198 0.0
C744 C 0.21716 0.71532 0.40942 0.0
C745 C 0.29568 0.75883 0.42425 0.0
C746 C 0.23065 0.87632 0.35151 0.0
C747 C 0.2107 0.77503 0.40978 0.0
H748 H 0.10932 1.00761 0.36983 0.0
H749 H 0.16603 0.94185 0.35396 0.0
H750 H 0.10611 0.94576 0.35822 0.0
H751 H 0.23595 0.06433 0.37416 0.0
H752 H 0.29687 0.70497 0.42111 0.0
H753 H 0.2867 0.80848 0.42597 0.0
H754 H 0.18683 0.69872 0.40335 0.0
H755 H 0.3261 0.77566 0.43 0.0
Tb756 Tb 0.32632 0.25873 0.88306 0.0
C757 C 0.33533 0.13021 0.93664 0.0
N758 N 0.35838 0.16943 0.94077 0.0
C759 C 0.3442 0.15852 0.98414 0.0
C760 C 0.31417 0.10384 0.95588 0.0
C761 C 0.36503 0.18335 0.96445 0.0
C762 C 0.31801 0.11871 0.97977 0.0
C763 C 0.31402 0.07556 0.90832 0.0
C764 C 0.33521 0.11618 0.91334 0.0
C765 C 0.29119 0.04926 0.92705 0.0
C766 C 0.29118 0.0634 0.9508 0.0
Tb767 Tb 0.38793 0.20757 0.90643 0.0
N768 N 0.35684 0.1426 0.89562 0.0
C769 C 0.31707 0.06269 0.88477 0.0
C770 C 0.36212 0.13017 0.87312 0.0
C771 C 0.34175 0.09009 0.86722 0.0
H772 H 0.38658 0.21357 0.96845 0.0
H773 H 0.34498 0.08038 0.84914 0.0
H774 H 0.36776 0.29304 0.82892 0.0
H775 H 0.29834 0.33175 0.95831 0.0
H776 H 0.38102 0.15143 0.85954 0.0
H777 H 0.30119 0.0317 0.88014 0.0
H778 H 0.28568 0.27514 0.93209 0.0
H779 H 0.34883 0.17001 1.00273 0.0
H780 H 0.27421 0.01794 0.92351 0.0
H781 H 0.2743 0.04272 0.96526 0.0
H782 H 0.41248 0.35796 0.81006 0.0
H783 H 0.30226 0.09948 0.99509 0.0
H784 H 0.34992 0.39896 0.94642 0.0
N785 N 0.3657 0.31723 0.86358 0.0
C786 C 0.37544 0.35034 0.8766 0.0
C787 C 0.40249 0.3562 0.82887 0.0
C788 C 0.40069 0.3879 0.86671 0.0
C789 C 0.3772 0.31955 0.83954 0.0
C790 C 0.4148 0.39052 0.84265 0.0
N791 N 0.33262 0.30927 0.90738 0.0
C792 C 0.30952 0.30407 0.92745 0.0
C793 C 0.36609 0.37956 0.91332 0.0
C794 C 0.35867 0.34614 0.89953 0.0
C795 C 0.34515 0.37408 0.93525 0.0
C796 C 0.31607 0.33619 0.94204 0.0
H797 H 0.43432 0.41886 0.83434 0.0
H798 H 0.42974 0.45061 0.87378 0.0
H799 H 0.39922 0.44332 0.91463 0.0
O800 O 0.2758 0.26482 0.88084 0.0
O801 O 0.39193 0.29043 0.88069 0.0
O802 O 0.41186 0.26971 0.91446 0.0
O803 O 0.29167 0.23995 0.85104 0.0
O804 O 0.31689 0.23539 0.92083 0.0
O805 O 0.37658 0.24381 0.93366 0.0
O806 O 0.43926 0.21718 0.88839 0.0
O807 O 0.33186 0.175 0.88694 0.0
O808 O 0.29417 0.20019 0.90057 0.0
O809 O 0.42921 0.19814 0.92598 0.0
O810 O 0.39684 0.22758 0.86729 0.0
O811 O 0.33928 0.2265 0.85533 0.0
C812 C 0.41804 0.29667 0.898 0.0
C813 C 0.22413 0.20931 0.86108 0.0
C814 C 0.15352 0.17805 0.86951 0.0
C815 C 0.15006 0.14106 0.86558 0.0
C816 C 0.21952 0.17183 0.85689 0.0
C817 C 0.18281 0.13807 0.8592 0.0
C818 C 0.19075 0.21228 0.86709 0.0
C819 C 0.34359 0.24439 0.93803 0.0
C820 C 0.26395 0.24468 0.86056 0.0
C821 C 0.41006 0.4214 0.88091 0.0
C822 C 0.39276 0.41723 0.90419 0.0
C823 C 0.29805 0.16998 0.89436 0.0
C824 C 0.49539 0.23104 0.91151 0.0
C825 C 0.56017 0.23626 0.90961 0.0
C826 C 0.57757 0.27678 0.91451 0.0
C827 C 0.51332 0.27136 0.91651 0.0
C828 C 0.51884 0.21354 0.90831 0.0
C829 C 0.55425 0.29408 0.91806 0.0
C830 C 0.3714 0.22509 0.85027 0.0
C831 C 0.45274 0.20726 0.90722 0.0
H832 H 0.12179 0.11437 0.86711 0.0
H833 H 0.2444 0.16845 0.85206 0.0
H834 H 0.17975 0.10943 0.85611 0.0
H835 H 0.19387 0.24093 0.87042 0.0
H836 H 0.60922 0.29505 0.91579 0.0
H837 H 0.49569 0.28524 0.91881 0.0
H838 H 0.50494 0.18245 0.904 0.0
H839 H 0.56798 0.32529 0.92179 0.0
Tb840 Tb 0.09596 0.31803 0.37307 0.0
C841 C 0.22293 0.31476 0.43942 0.0
N842 N 0.20622 0.33721 0.44396 0.0
C843 C 0.20126 0.32104 0.48698 0.0
C844 C 0.22875 0.29383 0.45852 0.0
C845 C 0.19588 0.3411 0.46739 0.0
C846 C 0.2176 0.29716 0.48252 0.0
C847 C 0.25015 0.28854 0.40981 0.0
C848 C 0.23328 0.31201 0.41533 0.0
C849 C 0.25587 0.26749 0.42877 0.0
C850 C 0.2452 0.27012 0.45306 0.0
Tb851 Tb 0.19844 0.36797 0.41058 0.0
N852 N 0.22601 0.33171 0.39728 0.0
C853 C 0.26075 0.28691 0.38541 0.0
C854 C 0.23885 0.3323 0.37379 0.0
C855 C 0.2556 0.30936 0.3674 0.0
H856 H 0.18401 0.36011 0.47114 0.0
H857 H 0.26503 0.30946 0.34863 0.0
H858 H 0.11284 0.30203 0.31549 0.0
H859 H 1.02066 0.38939 0.41114 0.0
H860 H 0.23762 0.35123 0.36003 0.0
H861 H 0.27365 0.26911 0.38038 0.0
H862 H 0.05287 0.34925 0.4127 0.0
H863 H 0.19292 0.32412 0.50551 0.0
H864 H 0.26854 0.2491 0.42484 0.0
H865 H 0.24977 0.2537 0.46749 0.0
H866 H 0.10787 0.32493 0.27382 0.0
H867 H 0.22162 0.28157 0.49773 0.0
H868 H 1.01356 0.41597 0.37126 0.0
N869 N 0.08976 0.33413 0.33359 0.0
C870 C 0.07314 0.35705 0.33103 0.0
C871 C 0.09817 0.33434 0.28978 0.0
C872 C 0.06886 0.3701 0.30763 0.0
C873 C 0.10139 0.32181 0.31339 0.0
C874 C 0.08208 0.35882 0.28689 0.0
N875 N 0.06488 0.35394 0.3742 0.0
C876 C 0.05009 0.36074 0.39523 0.0
C877 C 0.04151 0.38984 0.3502 0.0
C878 C 0.05967 0.3668 0.35198 0.0
C879 C 0.02772 0.39834 0.37182 0.0
C880 C 0.03172 0.38343 0.39439 0.0
H881 H 0.07947 0.36834 0.26857 0.0
H882 H 0.04784 0.40407 0.28792 0.0
H883 H 1.02384 0.42131 0.32519 0.0
O884 O 0.05146 0.26749 0.39083 0.0
O885 O 0.12649 0.38305 0.37706 0.0
O886 O 0.16808 0.40147 0.4112 0.0
O887 O 0.04963 0.27486 0.35176 0.0
O888 O 0.09145 0.31446 0.41333 0.0
O889 O 0.14857 0.3605 0.43395 0.0
O890 O 0.25664 0.40812 0.40017 0.0
O891 O 0.15777 0.30362 0.4121 0.0
O892 O 0.13328 0.29153 0.37313 0.0
O893 O 0.23628 0.41078 0.43627 0.0
O894 O 0.19893 0.38455 0.37109 0.0
O895 O 0.14951 0.32686 0.35575 0.0
C896 C 0.14862 0.4085 0.39417 0.0
C897 C 0.02743 0.21049 0.36634 0.0
C898 C 0.98691 0.1391 0.3714 0.0
C899 C 1.01743 0.13486 0.3611 0.0
C900 C 0.05692 0.20522 0.35548 0.0
C901 C 0.05202 0.16769 0.35307 0.0
C902 C 0.99208 0.17721 0.37399 0.0
C903 C 0.11036 0.3339 0.43332 0.0
C904 C 0.03426 0.2507 0.3702 0.0
C905 C 0.05129 0.39361 0.30573 0.0
C906 C 0.03759 0.40341 0.32696 0.0
C907 C 0.14312 0.27981 0.39317 0.0
C908 C 0.28593 0.47068 0.41827 0.0
C909 C 0.34647 0.53324 0.41024 0.0
C910 C 0.32393 0.55192 0.40879 0.0
C911 C 0.26428 0.49021 0.41686 0.0
C912 C 0.32724 0.49246 0.41521 0.0
C913 C 0.28324 0.5306 0.41226 0.0
C914 C 0.1797 0.36201 0.35215 0.0
C915 C 0.26548 0.42734 0.42082 0.0
H916 H 1.01415 0.10596 0.35878 0.0
H917 H 0.08379 0.23019 0.34884 0.0
H918 H 0.07507 0.164 0.34484 0.0
H919 H 0.96899 0.18096 0.38219 0.0
H920 H 0.33792 0.58316 0.40495 0.0
H921 H 0.23267 0.47414 0.41897 0.0
H922 H 0.34415 0.47754 0.41588 0.0
H923 H 0.26624 0.54535 0.41106 0.0
Tb924 Tb 0.79785 0.09403 0.87688 0.0
C925 C 0.92366 0.23001 0.94158 0.0
N926 N 0.88411 0.21116 0.94513 0.0
C927 C 0.89339 0.21013 0.9888 0.0
C928 C 0.94971 0.23915 0.96159 0.0
C929 C 0.86868 0.20155 0.96836 0.0
C930 C 0.93407 0.2289 0.98541 0.0
C931 C 0.97878 0.25814 0.91313 0.0
C932 C 0.93801 0.2393 0.91765 0.0
C933 C 1.00487 0.26736 0.93301 0.0
C934 C 0.99038 0.25789 0.95717 0.0
Tb935 Tb 0.84714 0.19876 0.91033 0.0
N936 N 0.91177 0.22847 0.89877 0.0
C937 C 0.99203 0.26679 0.88873 0.0
C938 C 0.92468 0.23864 0.87508 0.0
C939 C 0.96486 0.25735 0.86966 0.0
H940 H 0.83736 0.18785 0.9713 0.0
H941 H 0.97487 0.2647 0.85078 0.0
H942 H 0.81922 0.10632 0.8171 0.0
H943 H 0.66041 1.01637 0.92632 0.0
H944 H 0.90437 0.23292 0.86029 0.0
H945 H 1.02311 0.28109 0.88446 0.0
H946 H 0.73251 0.05348 0.92221 0.0
H947 H 0.88105 0.20242 1.00717 0.0
H948 H 0.0363 0.28168 0.92989 0.0
H949 H 1.01087 0.26508 0.97231 0.0
H950 H 0.78264 0.09258 0.77788 0.0
H951 H 0.9531 0.23542 1.00129 0.0
H952 H 0.61847 0.99981 0.88916 0.0
N953 N 0.76774 0.08074 0.83938 0.0
C954 C 0.72783 0.06068 0.83991 0.0
C955 C 0.76686 0.08356 0.79521 0.0
C956 C 0.70571 0.05136 0.81799 0.0
C957 C 0.78752 0.09177 0.81746 0.0
C958 C 0.72577 0.06336 0.79546 0.0
N959 N 0.73163 0.05968 0.88332 0.0
C960 C 0.7147 0.0472 0.90596 0.0
C961 C 0.66779 0.02788 0.86401 0.0
C962 C 0.70912 0.04928 0.8626 0.0
C963 C 0.65017 1.01637 0.88727 0.0
C964 C 0.67375 0.02578 0.9083 0.0
H965 H 0.70985 0.05689 0.77819 0.0
H966 H 0.64689 0.02296 0.80263 0.0
H967 H 0.6137 1.00224 0.84291 0.0
O968 O 0.80713 0.05216 0.89515 0.0
O969 O 0.76151 0.12289 0.8793 0.0
O970 O 0.78346 0.16442 0.9132 0.0
O971 O 0.79871 0.04935 0.85583 0.0
O972 O 0.80709 0.09573 0.91686 0.0
O973 O 0.80617 0.1493 0.93443 0.0
O974 O 0.85944 0.25326 0.89564 0.0
O975 O 0.87703 0.16359 0.9111 0.0
O976 O 0.86125 0.1331 0.87363 0.0
O977 O 0.84286 0.23965 0.93359 0.0
O978 O 0.82994 0.19552 0.87077 0.0
O979 O 0.83873 0.14578 0.85607 0.0
C980 C 0.75738 0.14502 0.89601 0.0
C981 C 0.78109 0.98975 0.87674 0.0
C982 C 0.77982 0.9272 0.88194 0.0
C983 C 0.73846 0.90765 0.88171 0.0
C984 C 0.73991 0.96973 0.87649 0.0
C985 C 0.71875 0.92883 0.87894 0.0
C986 C 0.80089 0.96844 0.87939 0.0
C987 C 0.80184 0.11359 0.93578 0.0
C988 C 0.80428 0.03285 0.87502 0.0
C989 C 0.66444 0.03038 0.81927 0.0
C990 C 0.64553 0.01859 0.84222 0.0
C991 C 0.88514 0.14731 0.89255 0.0
C992 C 0.82771 0.28436 0.91338 0.0
C993 C 0.82395 0.34401 0.90556 0.0
C994 C 0.78267 0.32063 0.905 0.0
C995 C 0.7866 0.26182 0.91269 0.0
C996 C 0.84627 0.32543 0.9099 0.0
C997 C 0.76425 0.27993 0.90859 0.0
C998 C 0.83395 0.17608 0.85221 0.0
C999 C 0.85186 0.26544 0.91606 0.0
H1000 H 0.72133 0.87592 0.88334 0.0
H1001 H 0.72417 0.98564 0.87448 0.0
H1002 H 0.68693 0.91346 0.87871 0.0
H1003 H 0.83275 0.98413 0.87992 0.0
H1004 H 0.76451 0.33385 0.90209 0.0
H1005 H 0.77188 0.23027 0.91513 0.0
H1006 H 0.8781 0.34272 0.90999 0.0
H1007 H 0.73249 0.26233 0.90812 0.0
H1008 H 0.19024 0.9298 0.16124 0.0
H1009 H 0.13289 0.90916 0.09061 0.0
H1010 H 0.2113 0.99958 0.15828 0.0
H1011 H 0.15374 0.97936 0.08753 0.0
H1012 H 0.22196 0.11985 0.15425 0.0
H1013 H 0.19043 0.0484 0.15787 0.0
H1014 H 0.21618 0.04093 0.08131 0.0
H1015 H 0.24644 0.11215 0.07745 0.0
C1016 C 0.18161 0.94023 0.14523 0.0
C1017 C 0.16014 0.91419 0.1261 0.0
C1018 C 0.19347 0.98022 0.14358 0.0
C1019 C 0.18446 0.99534 0.1226 0.0
C1020 C 0.16161 0.96886 0.10383 0.0
C1021 C 0.14928 0.92862 0.10567 0.0
C1022 C 0.22036 0.10298 0.13807 0.0
C1023 C 0.23703 0.12204 0.11559 0.0
C1024 C 0.20258 0.06195 0.1402 0.0
C1025 C 0.20076 0.03874 0.1199 0.0
C1026 C 0.21659 0.05769 0.09728 0.0
C1027 C 0.23447 0.0987 0.09516 0.0
H1028 H 0.25667 0.15303 0.5871 0.0
H1029 H 0.26629 0.16448 0.66625 0.0
H1030 H 0.20981 0.17677 0.58719 0.0
H1031 H 0.21987 0.18867 0.66647 0.0
H1032 H 0.11275 0.2046 0.66086 0.0
H1033 H 0.15265 0.17278 0.65988 0.0
H1034 H 0.21001 0.2373 0.59365 0.0
H1035 H 0.16927 0.26782 0.59413 0.0
C1036 C 0.24868 0.16059 0.60453 0.0
C1037 C 0.26554 0.15735 0.62662 0.0
C1038 C 0.22189 0.17431 0.60461 0.0
C1039 C 0.21114 0.18505 0.62683 0.0
C1040 C 0.22703 0.18039 0.64902 0.0
C1041 C 0.25378 0.16659 0.64891 0.0
C1042 C 0.13343 0.21153 0.64588 0.0
C1043 C 0.13782 0.23903 0.62766 0.0
C1044 C 0.15669 0.19361 0.64546 0.0
C1045 C 0.18484 0.20252 0.62675 0.0
C1046 C 0.18851 0.22932 0.60824 0.0
C1047 C 0.16537 0.24725 0.60869 0.0
H1048 H 0.96281 0.06154 0.12004 0.0
H1049 H 0.92655 0.13196 0.16125 0.0
H1050 H 0.02718 0.11971 0.11286 0.0
H1051 H 0.99119 0.19034 0.15416 0.0
H1052 H 0.12719 0.26068 0.16878 0.0
H1053 H 0.05912 0.20691 0.17057 0.0
H1054 H 0.06171 0.18796 0.09233 0.0
H1055 H 0.12999 0.24231 0.09052 0.0
C1056 C 0.96846 0.08966 0.12719 0.0
C1057 C 0.93981 0.09227 0.14128 0.0
C1058 C 1.00521 0.12295 0.123 0.0
C1059 C 1.0143 0.15946 0.13314 0.0
C1060 C 0.98506 0.16245 0.14633 0.0
C1061 C 0.94802 0.12919 0.15021 0.0
C1062 C 0.11327 0.24489 0.152 0.0
C1063 C 0.13381 0.25545 0.12952 0.0
C1064 C 0.07417 0.21446 0.15296 0.0
C1065 C 0.05503 0.19337 0.13156 0.0
C1066 C 0.07577 0.20365 0.10911 0.0
C1067 C 0.11474 0.23463 0.10807 0.0
H1068 H 0.80563 0.91677 0.6636 0.0
H1069 H 0.91281 0.95254 0.62307 0.0
H1070 H 0.81291 0.98196 0.65673 0.0
H1071 H 0.91999 0.01738 0.61608 0.0
H1072 H 0.9021 0.1208 0.59262 0.0
H1073 H 0.88772 0.05239 0.59501 0.0
H1074 H 0.86322 0.05025 0.67279 0.0
H1075 H 0.87797 0.11851 0.67041 0.0
C1076 C 0.83025 0.93828 0.6528 0.0
C1077 C 0.85869 0.92962 0.64393 0.0
C1078 C 0.83463 0.97566 0.64905 0.0
C1079 C 0.86718 1.00491 0.636 0.0
C1080 C 0.8945 0.99549 0.62608 0.0
C1081 C 0.89047 0.95842 0.63016 0.0
C1082 C 0.89373 0.10563 0.6102 0.0
C1083 C 0.89138 0.12499 0.63135 0.0
C1084 C 0.88551 0.06654 0.61158 0.0
C1085 C 0.87418 0.04584 0.63408 0.0
C1086 C 0.87144 0.0652 0.65514 0.0
C1087 C 0.88035 0.10444 0.65385 0.0
H1088 H 0.93139 0.82624 0.17182 0.0
H1089 H 0.99115 0.91523 0.11605 0.0
H1090 H 0.87154 0.82977 0.16504 0.0
H1091 H 0.93172 0.91911 0.10948 0.0
H1092 H 0.80685 0.89269 0.09059 0.0
H1093 H 0.86251 0.88131 0.09436 0.0
H1094 H 0.85276 0.88074 0.17372 0.0
H1095 H 0.79701 0.89153 0.16993 0.0
C1096 C 0.93154 0.84608 0.15787 0.0
C1097 C 0.96603 0.87063 0.14459 0.0
C1098 C 0.89743 0.84839 0.15414 0.0
C1099 C 0.89698 0.87496 0.13685 0.0
C1100 C 0.93099 0.8982 0.12283 0.0
C1101 C 0.96512 0.89618 0.12672 0.0
C1102 C 0.81676 0.89026 0.10882 0.0
C1103 C 0.79796 0.8936 0.12996 0.0
C1104 C 0.84859 0.88377 0.11098 0.0
C1105 C 0.86206 0.88011 0.13435 0.0
C1106 C 0.84288 0.883 0.15545 0.0
C1107 C 0.8113 0.8898 0.15329 0.0
H1108 H 0.91776 0.77667 0.66996 0.0
H1109 H 0.91703 0.79184 0.59119 0.0
H1110 H 0.98482 0.83241 0.67207 0.0
H1111 H 0.98431 0.84789 0.59326 0.0
H1112 H 0.07989 0.97634 0.61787 0.0
H1113 H 1.01611 0.9168 0.61212 0.0
H1114 H 0.0542 0.85169 0.65748 0.0
H1115 H 0.11823 0.91142 0.66319 0.0
C1116 C 0.93198 0.792 0.6531 0.0
C1117 C 0.91223 0.77999 0.63041 0.0
C1118 C 0.97051 0.82365 0.65427 0.0
C1119 C 0.98993 0.84447 0.63282 0.0
C1120 C 0.97007 0.83252 0.61011 0.0
C1121 C 0.93167 0.80043 0.6089 0.0
C1122 C 0.07478 0.94919 0.62639 0.0
C1123 C 0.10401 0.94858 0.64107 0.0
C1124 C 0.03835 0.91507 0.62298 0.0
C1125 C 0.03005 0.87961 0.63446 0.0
C1126 C 0.05966 0.87868 0.64857 0.0
C1127 C 0.09638 0.91275 0.65168 0.0
H1128 H 0.13522 0.90921 0.43202 0.0
H1129 H 0.12072 0.85887 0.35949 0.0
H1130 H 0.06464 0.88765 0.43318 0.0
H1131 H 0.05086 0.83803 0.36035 0.0
H1132 H 0.93083 0.7846 0.43499 0.0
H1133 H 1.00275 0.81909 0.43465 0.0
H1134 H 1.00312 0.86385 0.36185 0.0
H1135 H 0.93112 0.82947 0.36224 0.0
C1136 C 0.11713 0.89451 0.41611 0.0
C1137 C 0.13328 0.88573 0.39566 0.0
C1138 C 0.07676 0.88187 0.41682 0.0
C1139 C 0.05214 0.86114 0.39684 0.0
C1140 C 0.06898 0.85427 0.37593 0.0
C1141 C 0.10895 0.86607 0.37546 0.0
C1142 C 0.94629 0.80213 0.41901 0.0
C1143 C 0.92523 0.80411 0.39858 0.0
C1144 C 0.9875 0.82214 0.4189 0.0
C1145 C 1.00867 0.84412 0.39819 0.0
C1146 C 0.98765 0.84699 0.37803 0.0
C1147 C 0.94644 0.8275 0.37831 0.0
H1148 H 0.11446 0.93101 0.85619 0.0
H1149 H 0.15993 0.92551 0.92764 0.0
H1150 H 0.15338 1.00302 0.85733 0.0
H1151 H 0.1985 0.99743 0.92889 0.0
H1152 H 0.27805 0.11897 0.85647 0.0
H1153 H 0.22799 0.04936 0.856 0.0
H1154 H 0.19209 0.06005 0.92949 0.0
H1155 H 0.24212 0.13043 0.92967 0.0
C1156 C 0.13226 0.94521 0.8723 0.0
C1157 C 0.13434 0.92261 0.89175 0.0
C1158 C 0.15465 0.98638 0.87291 0.0
C1159 C 0.17904 1.00586 0.89319 0.0
C1160 C 0.17981 0.9833 0.9131 0.0
C1161 C 0.15797 0.94214 0.91229 0.0
C1162 C 0.25879 0.10661 0.87228 0.0
C1163 C 0.26361 0.12995 0.89304 0.0
C1164 C 0.23008 0.06681 0.87199 0.0
C1165 C 0.20607 0.04922 0.89269 0.0
C1166 C 0.21021 0.07286 0.91328 0.0
C1167 C 0.23848 0.11308 0.91333 0.0
H1168 H 0.14408 0.23422 0.43111 0.0
H1169 H 0.15601 0.24804 0.35203 0.0
H1170 H 0.15611 0.17878 0.42857 0.0
H1171 H 0.16734 0.19259 0.34943 0.0
H1172 H 0.22103 0.11436 0.3539 0.0
H1173 H 0.21675 0.17377 0.36061 0.0
H1174 H 0.12203 0.11054 0.41244 0.0
H1175 H 0.12688 0.05159 0.40612 0.0
C1176 C 0.149 0.22522 0.4132 0.0
C1177 C 0.14871 0.24521 0.39177 0.0
C1178 C 0.15586 0.19351 0.41173 0.0
C1179 C 0.16285 0.18134 0.3888 0.0
C1180 C 0.16263 0.20151 0.36741 0.0
C1181 C 0.15553 0.23294 0.36887 0.0
C1182 C 0.19988 0.11342 0.36709 0.0
C1183 C 0.17408 0.07818 0.37931 0.0
C1184 C 0.19712 0.14731 0.37075 0.0
C1185 C 0.16873 0.14677 0.38686 0.0
C1186 C 0.14431 0.11205 0.39999 0.0
C1187 C 0.14688 0.07817 0.39621 0.0
H1188 H 0.12599 0.22232 0.84746 0.0
H1189 H 0.0999 0.13738 0.90547 0.0
H1190 H 0.06221 0.21808 0.85427 0.0
H1191 H 0.03637 0.13306 0.91226 0.0
H1192 H 0.9368 0.15876 0.92978 0.0
H1193 H 1.0044 0.17178 0.92602 0.0
H1194 H 0.99231 0.16371 0.84677 0.0
H1195 H 0.92499 0.15088 0.85049 0.0
C1196 C 0.10694 0.20336 0.86196 0.0
C1197 C 0.11776 0.18004 0.87586 0.0
C1198 C 0.07035 0.20064 0.86571 0.0
C1199 C 0.04415 0.17499 0.88367 0.0
C1200 C 0.05593 0.15322 0.89838 0.0
C1201 C 0.0922 0.15555 0.89441 0.0
C1202 C 0.9486 0.15968 0.91157 0.0
C1203 C 0.9255 0.15356 0.89045 0.0
C1204 C 0.98727 0.16714 0.90943 0.0
C1205 C 1.00375 0.16895 0.88609 0.0
C1206 C 0.98065 0.16301 0.86498 0.0
C1207 C 0.94189 0.15512 0.86714 0.0
H1208 H 0.9119 0.11652 0.35673 0.0
H1209 H 0.97855 0.08016 0.40185 0.0
H1210 H 0.85246 0.05252 0.3637 0.0
H1211 H 0.91935 1.01657 0.40902 0.0
H1212 H 0.79637 0.91628 0.43108 0.0
H1213 H 0.85063 0.98447 0.42843 0.0
H1214 H 0.83422 0.98281 0.34962 0.0
H1215 H 0.78032 0.91468 0.35232 0.0
C1216 C 0.9136 0.09518 0.36857 0.0
C1217 C 0.94979 0.10323 0.37872 0.0
C1218 C 0.87973 0.05849 0.37239 0.0
C1219 C 0.8813 0.02944 0.3868 0.0
C1220 C 0.91711 0.03837 0.39797 0.0
C1221 C 0.95102 0.07471 0.39381 0.0
C1222 C 0.80441 0.93062 0.41323 0.0
C1223 C 0.78442 0.91021 0.39187 0.0
C1224 C 0.83542 0.96956 0.41171 0.0
C1225 C 0.84666 0.98904 0.38882 0.0
C1226 C 0.82603 0.96875 0.36754 0.0
C1227 C 0.79551 0.92963 0.36903 0.0
H1228 H 0.89063 0.78769 0.85407 0.0
H1229 H 0.88438 0.78849 0.93358 0.0
H1230 H 0.86466 0.83241 0.85167 0.0
H1231 H 0.85835 0.83343 0.93117 0.0
H1232 H 0.76262 0.86622 0.91361 0.0
H1233 H 0.79588 0.82804 0.91744 0.0
H1234 H 0.87846 0.89944 0.86096 0.0
H1235 H 0.84467 0.93714 0.85675 0.0
C1236 C 0.88446 0.79803 0.87108 0.0
C1237 C 0.88914 0.78415 0.89403 0.0
C1238 C 0.86953 0.8237 0.86969 0.0
C1239 C 0.85907 0.83625 0.89121 0.0
C1240 C 0.86555 0.82385 0.91422 0.0
C1241 C 0.88063 0.79827 0.91561 0.0
C1242 C 0.78778 0.87369 0.90194 0.0
C1243 C 0.80087 0.90466 0.8848 0.0
C1244 C 0.80712 0.85207 0.90433 0.0
C1245 C 0.83988 0.86069 0.88953 0.0
C1246 C 0.85316 0.89186 0.87253 0.0
C1247 C 0.83399 0.91367 0.87026 0.0
H1248 H 0.11569 0.68309 0.15726 0.0
H1249 H 0.16443 0.71568 0.084 0.0
H1250 H 0.11768 0.62172 0.15396 0.0
H1251 H 0.1676 0.65564 0.08104 0.0
H1252 H 0.2048 0.56442 0.09101 0.0
H1253 H 0.20418 0.62548 0.09913 0.0
H1254 H 0.08767 0.55854 0.13009 0.0
H1255 H 0.0885 0.49766 0.12219 0.0
C1256 C 0.12639 0.67707 0.14041 0.0
C1257 C 0.13993 0.70455 0.12099 0.0
C1258 C 0.12786 0.64202 0.13855 0.0
C1259 C 0.14343 0.63392 0.11736 0.0
C1260 C 0.1563 0.66118 0.09787 0.0
C1261 C 0.1543 0.69568 0.09957 0.0
C1262 C 0.17939 0.56278 0.09998 0.0
C1263 C 0.14662 0.52606 0.10576 0.0
C1264 C 0.17882 0.59776 0.10442 0.0
C1265 C 0.14564 0.597 0.11502 0.0
C1266 C 0.11372 0.56037 0.12197 0.0
C1267 C 0.11413 0.52541 0.11729 0.0
H1268 H 0.65413 0.19652 0.59074 0.0
H1269 H 0.60771 0.08305 0.62564 0.0
H1270 H 0.59226 0.19549 0.5992 0.0
H1271 H 0.54597 0.08177 0.63388 0.0
H1272 H 0.45112 0.10985 0.66283 0.0
H1273 H 0.51443 0.11224 0.65754 0.0
H1274 H 0.52374 0.15811 0.58387 0.0
H1275 H 0.46019 0.15468 0.58916 0.0
C1276 C 0.631 0.17167 0.60057 0.0
C1277 C 0.63593 0.13983 0.60739 0.0
C1278 C 0.59532 0.17082 0.60518 0.0
C1279 C 0.56378 0.13831 0.61702 0.0
C1280 C 0.56947 0.10733 0.62482 0.0
C1281 C 0.60489 0.108 0.61997 0.0
C1282 C 0.46658 0.1199 0.64544 0.0
C1283 C 0.45107 0.13245 0.62647 0.0
C1284 C 0.50292 0.12147 0.6424 0.0
C1285 C 0.5247 0.13599 0.62038 0.0
C1286 C 0.50842 0.14764 0.60127 0.0
C1287 C 0.47195 0.14555 0.60423 0.0
H1288 H 0.44255 0.66695 0.14455 0.0
H1289 H 0.51297 0.63826 0.09714 0.0
H1290 H 0.39689 0.59725 0.1511 0.0
H1291 H 0.46719 0.56796 0.1042 0.0
H1292 H 0.38033 0.44144 0.13853 0.0
H1293 H 0.43413 0.51057 0.13769 0.0
H1294 H 0.35027 0.54759 0.12049 0.0
H1295 H 0.29758 0.47985 0.12109 0.0
C1296 C 0.44848 0.64584 0.13557 0.0
C1297 C 0.48116 0.65852 0.11984 0.0
C1298 C 0.42234 0.60577 0.13948 0.0
C1299 C 0.4281 0.57695 0.12796 0.0
C1300 C 0.46201 0.5894 0.11344 0.0
C1301 C 0.48822 0.62974 0.10938 0.0
C1302 C 0.37353 0.4644 0.13471 0.0
C1303 C 0.33461 0.45488 0.12964 0.0
C1304 C 0.40432 0.50396 0.1341 0.0
C1305 C 0.39648 0.53466 0.12909 0.0
C1306 C 0.35744 0.5249 0.12464 0.0
C1307 C 0.32716 0.48581 0.12481 0.0
H1308 H 0.87498 0.49468 0.58313 0.0
H1309 H 0.813 0.44807 0.65164 0.0
H1310 H 0.90468 0.45285 0.58709 0.0
H1311 H 0.84247 0.40633 0.65561 0.0
H1312 H 0.88957 0.32612 0.58544 0.0
H1313 H 0.87672 0.38061 0.58374 0.0
H1314 H 0.90413 0.40278 0.66122 0.0
H1315 H 0.91733 0.34785 0.66289 0.0
C1316 C 0.86836 0.47616 0.59929 0.0
C1317 C 0.8414 0.47457 0.61697 0.0
C1318 C 0.88513 0.45193 0.60149 0.0
C1319 C 0.87585 0.42593 0.62162 0.0
C1320 C 0.85061 0.42609 0.63997 0.0
C1321 C 0.83346 0.44986 0.6376 0.0
C1322 C 0.89354 0.34297 0.60208 0.0
C1323 C 0.90418 0.3323 0.62436 0.0
C1324 C 0.88637 0.37448 0.60105 0.0
C1325 C 0.8891 0.3961 0.62235 0.0
C1326 C 0.9014 0.38657 0.64449 0.0
C1327 C 0.90925 0.35527 0.64543 0.0
H1328 H 0.58698 0.88469 0.16372 0.0
H1329 H 0.59416 0.89659 0.0845 0.0
H1330 H 0.51713 0.8658 0.16199 0.0
H1331 H 0.52499 0.87852 0.08278 0.0
H1332 H 0.4066 0.87441 0.09158 0.0
H1333 H 0.47758 0.90209 0.09679 0.0
H1334 H 0.45611 0.80417 0.14343 0.0
H1335 H 0.38519 0.77643 0.1382 0.0
C1336 C 0.57384 0.88414 0.14605 0.0
C1337 C 0.59583 0.89191 0.12424 0.0
C1338 C 0.53388 0.87303 0.14502 0.0
C1339 C 0.51554 0.8705 0.12222 0.0
C1340 C 0.53827 0.88042 0.10061 0.0
C1341 C 0.57785 0.89069 0.1016 0.0
C1342 C 0.41703 0.85903 0.10316 0.0
C1343 C 0.39024 0.82313 0.11438 0.0
C1344 C 0.45766 0.87478 0.10605 0.0
C1345 C 0.47243 0.85538 0.1206 0.0
C1346 C 0.44564 0.82003 0.13235 0.0
C1347 C 0.40504 0.80396 0.12914 0.0
H1348 H 0.67809 0.5969 0.61028 0.0
H1349 H 0.74164 0.55626 0.65494 0.0
H1350 H 0.62345 0.52892 0.60666 0.0
H1351 H 0.68857 0.4892 0.65081 0.0
H1352 H 0.58281 0.37202 0.65383 0.0
H1353 H 0.62487 0.4421 0.66163 0.0
H1354 H 0.6064 0.46747 0.58682 0.0
H1355 H 0.5626 0.3969 0.57957 0.0
C1356 C 0.68019 0.5736 0.61958 0.0
C1357 C 0.71434 0.58207 0.63281 0.0
C1358 C 0.64906 0.53452 0.6173 0.0
C1359 C 0.6513 0.50311 0.62837 0.0
C1360 C 0.68504 0.5122 0.64231 0.0
C1361 C 0.71589 0.55092 0.64452 0.0
C1362 C 0.58714 0.39269 0.63923 0.0
C1363 C 0.56954 0.37898 0.61608 0.0
C1364 C 0.61163 0.43296 0.64358 0.0
C1365 C 0.62001 0.46083 0.62472 0.0
C1366 C 0.60065 0.44716 0.60188 0.0
C1367 C 0.57555 0.40668 0.59766 0.0
H1368 H 0.29811 0.83478 0.37825 0.0
H1369 H 0.38019 0.9508 0.40483 0.0
H1370 H 0.34927 0.81721 0.37882 0.0
H1371 H 0.4327 0.93396 0.40468 0.0
H1372 H 0.49625 0.86676 0.43356 0.0
H1373 H 0.45284 0.89416 0.42751 0.0
H1374 H 0.40722 0.82509 0.36115 0.0
H1375 H 0.44957 0.79712 0.3677 0.0
C1376 C 0.32757 0.8569 0.38362 0.0
C1377 C 0.33525 0.89413 0.39136 0.0
C1378 C 0.35714 0.84695 0.38385 0.0
C1379 C 0.3955 0.87406 0.39181 0.0
C1380 C 0.40353 0.91208 0.39869 0.0
C1381 C 0.37367 0.92202 0.39844 0.0
C1382 C 0.47737 0.858 0.41748 0.0
C1383 C 0.47604 0.82936 0.4013 0.0
C1384 C 0.45246 0.87376 0.41394 0.0
C1385 C 0.42582 0.8615 0.39401 0.0
C1386 C 0.42638 0.83457 0.37709 0.0
C1387 C 0.45089 0.81862 0.38076 0.0
H1388 H 0.66665 0.43644 0.87275 0.0
H1389 H 0.6502 0.49639 0.93432 0.0
H1390 H 0.59557 0.39388 0.8693 0.0
H1391 H 0.57901 0.45445 0.93044 0.0
H1392 H 0.46297 0.33401 0.93772 0.0
H1393 H 0.53187 0.3852 0.93852 0.0
H1394 H 0.53255 0.39105 0.85896 0.0
H1395 H 0.46303 0.33914 0.85825 0.0
C1396 C 0.6479 0.44073 0.88549 0.0
C1397 C 0.66439 0.46975 0.90398 0.0
C1398 C 0.60703 0.4166 0.88329 0.0
C1399 C 0.58138 0.42061 0.89958 0.0
C1400 C 0.59781 0.45027 0.91768 0.0
C1401 C 0.6387 0.47458 0.91979 0.0
C1402 C 0.47761 0.34673 0.92039 0.0
C1403 C 0.45761 0.33244 0.89792 0.0
C1404 C 0.51716 0.37624 0.92085 0.0
C1405 C 0.53802 0.39224 0.89881 0.0
C1406 C 0.51753 0.3791 0.87628 0.0
C1407 C 0.47761 0.3497 0.87585 0.0
H1408 H 0.16915 0.63641 0.4286 0.0
H1409 H 0.2692 0.65913 0.38383 0.0
H1410 H 0.14139 0.56554 0.42245 0.0
H1411 H 0.24123 0.58827 0.3775 0.0
H1412 H 0.14816 0.44896 0.4345 0.0
H1413 H 0.16594 0.51809 0.43678 0.0
H1414 H 0.17873 0.52755 0.35761 0.0
H1415 H 0.15991 0.45766 0.3553 0.0
C1416 C 0.18493 0.62629 0.41718 0.0
C1417 C 0.22144 0.65338 0.40678 0.0
C1418 C 0.16912 0.58574 0.41373 0.0
C1419 C 0.18905 0.57137 0.3994 0.0
C1420 C 0.22498 0.59848 0.3884 0.0
C1421 C 0.24115 0.639 0.39221 0.0
C1422 C 0.15388 0.46558 0.41753 0.0
C1423 C 0.15262 0.44803 0.39472 0.0
C1424 C 0.16404 0.50513 0.41884 0.0
C1425 C 0.17393 0.52829 0.3974 0.0
C1426 C 0.17143 0.51041 0.37444 0.0
C1427 C 0.16035 0.47044 0.37309 0.0
H1428 H 0.716 0.14513 0.93598 0.0
H1429 H 0.71932 0.15467 0.85666 0.0
H1430 H 0.66467 0.16288 0.93757 0.0
H1431 H 0.66809 0.17322 0.85822 0.0
H1432 H 0.626 0.26335 0.88076 0.0
H1433 H 0.66869 0.23502 0.87565 0.0
H1434 H 0.59381 0.13963 0.92439 0.0
H1435 H 0.55098 0.16789 0.92945 0.0
C1436 C 0.7051 0.15028 0.91884 0.0
C1437 C 0.72154 0.14847 0.89619 0.0
C1438 C 0.67569 0.16043 0.91974 0.0
C1439 C 0.66245 0.16969 0.89804 0.0
C1440 C 0.67789 0.16648 0.87526 0.0
C1441 C 0.70686 0.1555 0.87433 0.0
C1442 C 0.61856 0.23625 0.89031 0.0
C1443 C 0.58517 0.21798 0.90562 0.0
C1444 C 0.6428 0.21981 0.88717 0.0
C1445 C 0.63458 0.18502 0.89956 0.0
C1446 C 0.60096 0.1665 0.91464 0.0
C1447 C 0.57635 0.18259 0.91746 0.0
H1448 H 0.40731 0.54843 0.44173 0.0
H1449 H 0.38282 0.57189 0.36819 0.0
H1450 H 0.47746 0.5954 0.43558 0.0
H1451 H 0.45259 0.61692 0.36132 0.0
H1452 H 0.5648 0.73409 0.36867 0.0
H1453 H 0.49844 0.67995 0.37249 0.0
H1454 H 0.53987 0.61644 0.41685 0.0
H1455 H 0.60715 0.67248 0.41382 0.0
C1456 C 0.41715 0.56294 0.42404 0.0
C1457 C 0.38962 0.55675 0.4055 0.0
C1458 C 0.45742 0.58983 0.42042 0.0
C1459 C 0.47113 0.61082 0.39805 0.0
C1460 C 0.44346 0.60253 0.37908 0.0
C1461 C 0.40335 0.57632 0.38287 0.0
C1462 C 0.56005 0.70854 0.37913 0.0
C1463 C 0.59153 0.70793 0.39107 0.0
C1464 C 0.52166 0.67699 0.38114 0.0
C1465 C 0.51316 0.64325 0.39496 0.0
C1466 C 0.54491 0.64198 0.40629 0.0
C1467 C 0.58366 0.67393 0.40433 0.0
H1468 H 0.90607 0.5877 0.93527 0.0
H1469 H 0.90837 0.58771 0.85572 0.0
H1470 H 0.89101 0.51956 0.93586 0.0
H1471 H 0.89314 0.51884 0.85624 0.0
H1472 H 0.80512 0.38426 0.87185 0.0
H1473 H 0.83306 0.45529 0.86791 0.0
H1474 H 0.91505 0.47376 0.92642 0.0
H1475 H 0.88657 0.40263 0.93073 0.0
C1476 C 0.90422 0.5733 0.91787 0.0
C1477 C 0.90828 0.59301 0.89544 0.0
C1478 C 0.89566 0.5342 0.91821 0.0
C1479 C 0.89056 0.51351 0.89611 0.0
C1480 C 0.89649 0.53381 0.8736 0.0
C1481 C 0.90564 0.57333 0.87328 0.0
C1482 C 0.82918 0.40344 0.88386 0.0
C1483 C 0.84331 0.38757 0.90178 0.0
C1484 C 0.84554 0.44424 0.88137 0.0
C1485 C 0.87633 0.47034 0.89684 0.0
C1486 C 0.8912 0.45453 0.9143 0.0
C1487 C 0.87504 0.41371 0.91666 0.0
H1488 H 0.20631 0.43061 0.3253 0.0
H1489 H 0.18943 0.31341 0.32166 0.0
H1490 H 0.22075 0.43879 0.28062 0.0
H1491 H 0.20403 0.32151 0.27777 0.0
H1492 H 0.16833 0.32091 0.19967 0.0
H1493 H 0.16186 0.32529 0.2439 0.0
H1494 H 0.26855 0.43817 0.24489 0.0
H1495 H 0.27498 0.43368 0.19979 0.0
C1496 C 0.20685 0.40716 0.31513 0.0
C1497 C 0.19659 0.37132 0.32689 0.0
C1498 C 0.21493 0.41174 0.28959 0.0
C1499 C 0.2128 0.3805 0.27557 0.0
C1500 C 0.20514 0.34584 0.28788 0.0
C1501 C 0.19703 0.34129 0.31309 0.0
C1502 C 0.19021 0.347 0.20919 0.0
C1503 C 0.22236 0.37679 0.1963 0.0
C1504 C 0.18658 0.34943 0.2346 0.0
C1505 C 0.2151 0.3817 0.24804 0.0
C1506 C 0.24617 0.41288 0.23503 0.0
C1507 C 0.2498 0.41041 0.20928 0.0
H1508 H 0.85886 0.26996 0.69936 0.0
H1509 H 0.85486 0.15817 0.69931 0.0
H1510 H 0.84846 0.26459 0.74452 0.0
H1511 H 0.8441 0.15255 0.7436 0.0
H1512 H 0.88882 0.18069 0.82047 0.0
H1513 H 0.89359 0.1937 0.77645 0.0
H1514 H 0.79899 0.21929 0.78124 0.0
H1515 H 0.79416 0.20602 0.82608 0.0
C1516 C 0.85446 0.24376 0.70885 0.0
C1517 C 0.85755 0.21442 0.69587 0.0
C1518 C 0.84873 0.24076 0.73465 0.0
C1519 C 0.84615 0.20845 0.74768 0.0
C1520 C 0.84671 0.17816 0.73425 0.0
C1521 C 0.85254 0.18121 0.7088 0.0
C1522 C 0.86939 0.18972 0.81229 0.0
C1523 C 0.84086 0.19197 0.82669 0.0
C1524 C 0.87202 0.19703 0.787 0.0
C1525 C 0.84618 0.20679 0.77522 0.0
C1526 C 0.81925 0.21174 0.7898 0.0
C1527 C 0.81659 0.20432 0.81542 0.0
H1528 H 0.73085 0.85133 0.19602 0.0
H1529 H 0.61895 0.8468 0.19688 0.0
H1530 H 0.72555 0.83769 0.23997 0.0
H1531 H 0.61411 0.83468 0.2417 0.0
H1532 H 0.61339 0.78516 0.3221 0.0
H1533 H 0.60874 0.79164 0.27717 0.0
H1534 H 0.73284 0.87705 0.27497 0.0
H1535 H 0.7374 0.86949 0.31904 0.0
C1536 C 0.70464 0.84658 0.20564 0.0
C1537 C 0.67512 0.84966 0.19302 0.0
C1538 C 0.70184 0.83939 0.23096 0.0
C1539 C 0.66988 0.83608 0.24465 0.0
C1540 C 0.63912 0.83702 0.23179 0.0
C1541 C 0.6417 0.84369 0.20612 0.0
C1542 C 0.6394 0.80564 0.3119 0.0
C1543 C 0.67586 0.82648 0.32397 0.0
C1544 C 0.63681 0.80932 0.2862 0.0
C1545 C 0.67063 0.83411 0.27224 0.0
C1546 C 0.70641 0.85663 0.28483 0.0
C1547 C 0.70901 0.85264 0.31021 0.0
H1548 H 0.79305 0.6034 0.69925 0.0
H1549 H 0.88076 0.72641 0.70308 0.0
H1550 H 0.7998 0.59717 0.74403 0.0
H1551 H 0.888 0.72029 0.74714 0.0
H1552 H 0.85326 0.71642 0.82506 0.0
H1553 H 0.84176 0.7108 0.78089 0.0
H1554 H 0.84751 0.60381 0.77997 0.0
H1555 H 0.85832 0.60918 0.82502 0.0
C1556 C 0.81445 0.62876 0.70954 0.0
C1557 C 0.83609 0.6655 0.69782 0.0
C1558 C 0.81823 0.62526 0.73513 0.0
C1559 C 0.84377 0.65846 0.74925 0.0
C1560 C 0.86729 0.69437 0.73698 0.0
C1561 C 0.8634 0.69786 0.71168 0.0
C1562 C 0.85094 0.69103 0.81561 0.0
C1563 C 0.85635 0.66306 0.82851 0.0
C1564 C 0.84488 0.68807 0.7902 0.0
C1565 C 0.84462 0.65735 0.77677 0.0
C1566 C 0.84761 0.62785 0.78981 0.0
C1567 C 0.85349 0.63072 0.81556 0.0
H1568 H 0.17944 0.8766 0.19703 0.0
H1569 H 0.19086 0.77319 0.20167 0.0
H1570 H 0.19674 0.8905 0.24029 0.0
H1571 H 0.20605 0.78551 0.24588 0.0
H1572 H 0.25961 0.83812 0.32308 0.0
H1573 H 0.24838 0.82328 0.27877 0.0
H1574 H 0.16759 0.86791 0.27807 0.0
H1575 H 0.18055 0.88438 0.32137 0.0
C1576 C 0.18571 0.8568 0.20747 0.0
C1577 C 0.18372 0.82381 0.1961 0.0
C1578 C 0.19518 0.86442 0.23243 0.0
C1579 C 0.20182 0.83859 0.24707 0.0
C1580 C 0.20124 0.80619 0.23536 0.0
C1581 C 0.19253 0.79903 0.21004 0.0
C1582 C 0.23939 0.84451 0.31329 0.0
C1583 C 0.22144 0.86295 0.32554 0.0
C1584 C 0.23284 0.83597 0.28791 0.0
C1585 C 0.20773 0.8452 0.27442 0.0
C1586 C 0.18835 0.86173 0.2873 0.0
C1587 C 0.19546 0.87089 0.31232 0.0
H1588 H 0.43991 0.2508 0.82336 0.0
H1589 H 0.31363 0.18046 0.81811 0.0
H1590 H 0.44521 0.24233 0.77876 0.0
H1591 H 0.31871 0.17078 0.77447 0.0
H1592 H 0.32809 0.19258 0.69455 0.0
H1593 H 0.3321 0.20792 0.73822 0.0
H1594 H 0.4365 0.19797 0.74447 0.0
H1595 H 0.43314 0.18431 0.69995 0.0
C1596 C 0.41342 0.23308 0.81277 0.0
C1597 C 0.37635 0.21684 0.82416 0.0
C1598 C 0.41638 0.2282 0.78723 0.0
C1599 C 0.38233 0.20671 0.77271 0.0
C1600 C 0.34558 0.1888 0.78465 0.0
C1601 C 0.34264 0.19408 0.80984 0.0
C1602 C 0.35243 0.19462 0.70515 0.0
C1603 C 0.3804 0.18749 0.69389 0.0
C1604 C 0.3545 0.20285 0.73032 0.0
C1605 C 0.38406 0.2032 0.74523 0.0
C1606 C 0.41336 0.19805 0.73367 0.0
C1607 C 0.4116 0.19039 0.70817 0.0
H1608 H 0.27425 0.21276 0.96277 0.0
H1609 H 0.39492 0.30586 0.96752 0.0
H1610 H 0.25717 0.24047 0.99769 0.0
H1611 H 0.37794 0.33422 1.00249 0.0
H1612 H 0.33687 0.35169 0.07942 0.0
H1613 H 0.3572 0.32663 0.0449 0.0
H1614 H 0.2485 0.29562 1.00748 0.0
H1615 H 0.22752 0.31957 0.04276 0.0
C1616 C 0.29733 0.23887 0.97163 0.0
C1617 C 0.33597 0.25704 0.96238 0.0
C1618 C 0.28741 0.25518 0.99144 0.0
C1619 C 0.31587 0.2902 1.0028 0.0
C1620 C 0.35509 0.30724 0.99436 0.0
C1621 C 0.36502 0.29083 0.97441 0.0
C1622 C 0.31731 0.33985 0.0638 0.0
C1623 C 0.28036 0.33765 0.06412 0.0
C1624 C 0.32919 0.32561 0.0438 0.0
C1625 C 0.30446 0.30847 0.02331 0.0
C1626 C 0.26817 0.30788 0.02307 0.0
C1627 C 0.25633 0.32231 0.04316 0.0
H1628 H 0.12837 0.37263 0.47856 0.0
H1629 H 0.03437 0.27453 0.43985 0.0
H1630 H 0.08566 0.3567 0.51476 0.0
H1631 H 0.99243 0.25866 0.47565 0.0
H1632 H 0.91245 0.25413 0.53827 0.0
H1633 H 0.95436 0.2765 0.50141 0.0
H1634 H 0.05647 0.30906 0.54673 0.0
H1635 H 1.01556 0.28766 0.58299 0.0
C1636 C 0.09886 0.3476 0.47772 0.0
C1637 C 0.08533 0.32495 0.45607 0.0
C1638 C 0.07418 0.33838 0.49853 0.0
C1639 C 0.03518 0.30629 0.49833 0.0
C1640 C 1.02176 0.28397 0.4766 0.0
C1641 C 0.04629 0.29306 0.45595 0.0
C1642 C 0.94382 0.26627 0.54037 0.0
C1643 C 0.96009 0.26879 0.56389 0.0
C1644 C 0.96801 0.27902 0.51917 0.0
C1645 C 1.00918 0.2948 0.52088 0.0
C1646 C 0.02526 0.29786 0.54445 0.0
C1647 C 1.00131 0.28512 0.56544 0.0
H1648 H 0.66604 0.93668 0.04922 0.0
H1649 H 0.7875 0.98432 0.06998 0.0
H1650 H 0.68689 0.9827 0.01398 0.0
H1651 H 0.80809 0.02935 0.03504 0.0
H1652 H 0.82964 0.06769 0.95335 0.0
H1653 H 0.8066 0.02307 0.98853 0.0
H1654 H 0.72328 0.06049 1.00626 0.0
H1655 H 0.74706 0.10614 0.97077 0.0
C1656 C 0.69711 0.95642 0.04604 0.0
C1657 C 0.72509 0.95654 0.06233 0.0
C1658 C 0.70904 0.98316 0.02609 0.0
C1659 C 0.74923 1.00993 0.02171 0.0
C1660 C 0.77698 1.00918 0.03773 0.0
C1661 C 0.76511 0.98322 0.05779 0.0
C1662 C 0.80678 0.06693 0.96492 0.0
C1663 C 0.79055 0.09089 0.95938 0.0
C1664 C 0.79347 0.0412 0.9851 0.0
C1665 C 0.76291 0.03791 1.00023 0.0
C1666 C 0.74667 0.06205 0.99487 0.0
C1667 C 0.76065 0.0886 0.9748 0.0
H1668 H 0.73869 0.64772 0.55075 0.0
H1669 H 0.80728 0.76909 0.57334 0.0
H1670 H 0.71392 0.66845 0.51515 0.0
H1671 H 0.78212 0.78914 0.53917 0.0
H1672 H 0.76963 0.82064 0.46123 0.0
H1673 H 0.78972 0.79586 0.4959 0.0
H1674 H 0.67133 0.69808 0.50302 0.0
H1675 H 0.6513 0.72305 0.46723 0.0
C1676 C 0.74884 0.67867 0.54802 0.0
C1677 C 0.77523 0.70663 0.56493 0.0
C1678 C 0.73419 0.69055 0.52787 0.0
C1679 C 0.74595 0.73062 0.52413 0.0
C1680 C 0.77263 0.75817 0.54101 0.0
C1681 C 0.78703 0.74648 0.56085 0.0
C1682 C 0.74755 0.79428 0.47047 0.0
C1683 C 0.70865 0.77435 0.46175 0.0
C1684 C 0.75913 0.77988 0.49042 0.0
C1685 C 0.73226 0.74486 0.50253 0.0
C1686 C 0.69294 0.72499 0.49411 0.0
C1687 C 0.68121 0.7397 0.47396 0.0
H1688 H 1.00299 0.77564 0.94495 0.0
H1689 H 0.93521 0.6603 0.97765 0.0
H1690 H 0.04955 0.79619 0.97839 0.0
H1691 H 0.9824 0.68181 0.01228 0.0
H1692 H 0.1 0.72772 0.05772 0.0
H1693 H 0.05404 0.70303 0.02254 0.0
H1694 H 0.05205 0.81202 0.02133 0.0
H1695 H 0.09772 0.83629 0.05584 0.0
C1696 C 0.99774 0.7545 0.95941 0.0
C1697 C 0.96506 0.71609 0.95839 0.0
C1698 C 1.02463 0.76655 0.9788 0.0
C1699 C 1.02001 0.74082 0.99817 0.0
C1700 C 0.98715 0.70233 0.99751 0.0
C1701 C 0.9598 0.69013 0.97787 0.0
C1702 C 0.09061 0.7467 0.04929 0.0
C1703 C 0.10293 0.7842 0.05922 0.0
C1704 C 0.06369 0.73231 0.0295 0.0
C1705 C 0.04903 0.75537 0.01907 0.0
C1706 C 0.06281 0.79344 0.02858 0.0
C1707 C 0.08924 0.80755 0.04832 0.0
H1708 H 0.21352 0.94492 0.46792 0.0
H1709 H 0.32376 0.94651 0.46292 0.0
H1710 H 0.238 0.9895 0.50291 0.0
H1711 H 0.3487 0.99136 0.49867 0.0
H1712 H 0.38833 0.10893 0.54578 0.0
H1713 H 0.36824 0.06224 0.51093 0.0
H1714 H 0.25521 0.99042 0.54534 0.0
H1715 H 0.27403 0.03624 0.57881 0.0
C1716 C 0.24274 0.95403 0.47482 0.0
C1717 C 0.26643 0.94168 0.46292 0.0
C1718 C 0.25697 0.97983 0.49488 0.0
C1719 C 0.2955 0.99431 0.50377 0.0
C1720 C 0.31903 0.9811 0.49226 0.0
C1721 C 0.30452 0.95482 0.47212 0.0
C1722 C 0.35917 0.08328 0.54574 0.0
C1723 C 0.33298 0.0769 0.56531 0.0
C1724 C 0.34776 0.05627 0.5259 0.0
C1725 C 0.30989 0.02246 0.52517 0.0
C1726 C 0.28429 1.01622 0.54488 0.0
C1727 C 0.29545 0.04282 0.56437 0.0
loop_
_geom_bond_atom_site_label_1
_geom_bond_atom_site_label_2
_geom_bond_distance
_geom_bond_site_symmetry_2
_ccdc_geom_bond_type
Tb0 N29 2.617 . S
Tb0 N35 2.572 . S
Tb0 O44 2.465 . S
Tb0 O45 2.387 . S
Tb0 O47 2.428 . S
Tb0 O48 2.308 . S
Tb0 O52 2.349 . S
Tb0 O55 2.393 . S
Tb0 C64 2.802 . S
C1 N2 1.379 . S
C1 C4 1.416 . S
C1 C8 1.424 . S
N2 C1 1.379 . S
N2 C5 1.334 . S
N2 Tb11 2.617 . S
C3 C5 1.390 . S
C3 C6 1.339 . S
C3 H23 0.930 1_554 S
C4 C1 1.416 . S
C4 C6 1.416 . S
C4 C10 1.448 . S
C5 N2 1.334 . S
C5 C3 1.390 . S
C5 H16 0.930 . S
C6 C3 1.339 . S
C6 C4 1.416 . S
C6 H27 0.930 . S
C7 C8 1.413 . S
C7 C9 1.427 . S
C7 C13 1.416 . S
C8 C1 1.424 . S
C8 C7 1.413 . S
C8 N12 1.361 . S
C9 C7 1.427 . S
C9 C10 1.328 . S
C9 H24 0.929 1_455 S
C10 C4 1.448 . S
C10 C9 1.328 . S
C10 H25 0.930 1_455 S
Tb11 N2 2.617 . S
Tb11 N12 2.572 . S
Tb11 O46 2.349 . S
Tb11 O49 2.393 . S
Tb11 O50 2.465 . S
Tb11 O51 2.387 . S
Tb11 O53 2.428 . S
Tb11 O54 2.308 . S
Tb11 C75 2.802 . S
N12 C8 1.361 . S
N12 Tb11 2.572 . S
N12 C14 1.340 . S
C13 C7 1.416 . S
C13 C15 1.332 . S
C13 H21 0.931 1_455 S
C14 N12 1.340 . S
C14 C15 1.407 . S
C14 H20 0.930 . S
C15 C13 1.332 . S
C15 C14 1.407 . S
C15 H17 0.929 . S
H16 C5 0.930 . S
H17 C15 0.929 . S
H18 C33 0.930 . S
H19 C40 0.929 . S
H20 C14 0.930 . S
H21 C13 0.931 1_655 S
H22 C36 0.930 . S
H23 C3 0.930 1_556 S
H24 C9 0.929 1_655 S
H25 C10 0.930 1_655 S
H26 C31 0.930 . S
H27 C6 0.930 . S
H28 C39 0.931 . S
N29 Tb0 2.617 . S
N29 C30 1.379 . S
N29 C33 1.334 . S
C30 N29 1.379 . S
C30 C32 1.416 . S
C30 C38 1.424 . S
C31 H26 0.930 . S
C31 C33 1.390 . S
C31 C34 1.339 . S
C32 C30 1.416 . S
C32 C34 1.416 . S
C32 C65 1.448 . S
C33 H18 0.930 . S
C33 N29 1.334 . S
C33 C31 1.390 . S
C34 C31 1.339 . S
C34 C32 1.416 . S
C34 H41 0.930 . S
N35 Tb0 2.572 . S
N35 C36 1.340 . S
N35 C38 1.361 . S
C36 H22 0.930 . S
C36 N35 1.340 . S
C36 C40 1.407 . S
C37 C38 1.413 . S
C37 C39 1.416 . S
C37 C66 1.427 . S
C38 C30 1.424 . S
C38 N35 1.361 . S
C38 C37 1.413 . S
C39 H28 0.931 . S
C39 C37 1.416 . S
C39 C40 1.332 . S
C40 H19 0.929 . S
C40 C36 1.407 . S
C40 C39 1.332 . S
H41 C34 0.930 . S
H42 C65 0.930 . S
H43 C66 0.929 . S
O44 Tb0 2.465 . S
O44 C64 1.264 . S
O45 Tb0 2.387 . S
O45 C56 1.264 . S
O46 Tb11 2.349 . S
O46 C56 1.243 . S
O47 Tb0 2.428 . S
O47 C64 1.256 . S
O48 Tb0 2.308 . S
O48 C63 1.266 . S
O49 Tb11 2.393 . S
O49 C63 1.248 . S
O50 Tb11 2.465 . S
O50 C75 1.264 . S
O51 Tb11 2.387 . S
O51 C67 1.264 . S
O52 Tb0 2.349 . S
O52 C67 1.243 . S
O53 Tb11 2.428 . S
O53 C75 1.256 . S
O54 Tb11 2.308 . S
O54 C74 1.266 . S
O55 Tb0 2.393 . S
O55 C74 1.248 . S
C56 O45 1.264 . S
C56 O46 1.243 . S
C57 C60 1.399 . S
C57 C62 1.383 . S
C57 C64 1.496 . S
C58 C59 1.399 . S
C58 C62 1.389 . S
C59 C58 1.399 . S
C59 C61 1.380 . S
C59 H76 0.929 . S
C60 C57 1.399 . S
C60 C61 1.392 . S
C60 H77 0.929 . S
C61 C59 1.380 . S
C61 C60 1.392 . S
C61 H78 0.929 . S
C62 C57 1.383 . S
C62 C58 1.389 . S
C62 H79 0.931 . S
C63 O48 1.266 . S
C63 O49 1.248 . S
C64 Tb0 2.802 . S
C64 O44 1.264 . S
C64 O47 1.256 . S
C64 C57 1.496 . S
C65 C32 1.448 . S
C65 H42 0.930 . S
C65 C66 1.328 . S
C66 C37 1.427 . S
C66 H43 0.929 . S
C66 C65 1.328 . S
C67 O51 1.264 . S
C67 O52 1.243 . S
C68 C71 1.399 . S
C68 C72 1.383 . S
C68 C75 1.496 . S
C69 C70 1.399 . S
C69 C72 1.389 . S
C70 C69 1.399 . S
C70 C73 1.380 . S
C70 H80 0.929 . S
C71 C68 1.399 . S
C71 C73 1.392 . S
C71 H81 0.929 . S
C72 C68 1.383 . S
C72 C69 1.389 . S
C72 H82 0.931 . S
C73 C70 1.380 . S
C73 C71 1.392 . S
C73 H83 0.929 . S
C74 O54 1.266 . S
C74 O55 1.248 . S
C75 Tb11 2.802 . S
C75 O50 1.264 . S
C75 O53 1.256 . S
C75 C68 1.496 . S
H76 C59 0.929 . S
H77 C60 0.929 . S
H78 C61 0.929 . S
H79 C62 0.931 . S
H80 C70 0.929 . S
H81 C71 0.929 . S
H82 C72 0.931 . S
H83 C73 0.929 . S
Tb84 N113 2.617 . S
Tb84 N119 2.572 . S
Tb84 O128 2.465 . S
Tb84 O129 2.387 . S
Tb84 O131 2.428 . S
Tb84 O132 2.308 . S
Tb84 O136 2.349 . S
Tb84 O139 2.393 . S
Tb84 C148 2.802 . S
C85 N86 1.379 . S
C85 C88 1.416 . S
C85 C92 1.424 . S
N86 C85 1.379 . S
N86 C89 1.334 . S
N86 Tb95 2.617 . S
C87 C89 1.390 . S
C87 C90 1.339 . S
C87 H107 0.930 . S
C88 C85 1.416 . S
C88 C90 1.416 . S
C88 C94 1.448 . S
C89 N86 1.334 . S
C89 C87 1.390 . S
C89 H100 0.930 . S
C90 C87 1.339 . S
C90 C88 1.416 . S
C90 H111 0.930 . S
C91 C92 1.413 . S
C91 C93 1.427 . S
C91 C97 1.416 . S
C92 C85 1.424 . S
C92 C91 1.413 . S
C92 N96 1.361 . S
C93 C91 1.427 . S
C93 C94 1.328 . S
C93 H108 0.929 1_545 S
C94 C88 1.448 . S
C94 C93 1.328 . S
C94 H109 0.930 1_545 S
Tb95 N86 2.617 . S
Tb95 N96 2.572 . S
Tb95 O130 2.349 . S
Tb95 O133 2.393 . S
Tb95 O134 2.465 . S
Tb95 O135 2.387 . S
Tb95 O137 2.428 . S
Tb95 O138 2.308 . S
Tb95 C159 2.802 . S
N96 C92 1.361 . S
N96 Tb95 2.572 . S
N96 C98 1.340 . S
C97 C91 1.416 . S
C97 C99 1.332 . S
C97 H105 0.931 1_545 S
C98 N96 1.340 . S
C98 C99 1.407 . S
C98 H104 0.930 . S
C99 C97 1.332 . S
C99 C98 1.407 . S
C99 H101 0.929 . S
H100 C89 0.930 . S
H101 C99 0.929 . S
H102 C117 0.930 . S
H103 C124 0.926 1_455 S
H104 C98 0.930 . S
H105 C97 0.931 1_565 S
H106 C120 0.930 . S
H107 C87 0.930 . S
H108 C93 0.929 1_565 S
H109 C94 0.930 1_565 S
H110 C115 0.930 . S
H111 C90 0.930 . S
H112 C123 0.931 . S
N113 Tb84 2.617 . S
N113 C114 1.379 . S
N113 C117 1.334 . S
C114 N113 1.379 . S
C114 C116 1.416 . S
C114 C122 1.424 . S
C115 H110 0.930 . S
C115 C117 1.390 . S
C115 C118 1.339 . S
C116 C114 1.416 . S
C116 C118 1.416 . S
C116 C149 1.448 . S
C117 H102 0.930 . S
C117 N113 1.334 . S
C117 C115 1.390 . S
C118 C115 1.339 . S
C118 C116 1.416 . S
C118 H125 0.930 . S
N119 Tb84 2.572 . S
N119 C120 1.340 . S
N119 C122 1.361 . S
C120 H106 0.930 . S
C120 N119 1.340 . S
C120 C124 1.410 . S
C121 C122 1.413 . S
C121 C123 1.416 1_655 S
C121 C150 1.427 1_655 S
C122 C114 1.424 . S
C122 N119 1.361 . S
C122 C121 1.413 . S
C123 H112 0.931 . S
C123 C121 1.416 1_455 S
C123 C124 1.333 1_455 S
C124 H103 0.926 1_655 S
C124 C120 1.410 . S
C124 C123 1.333 1_655 S
H125 C118 0.930 . S
H126 C149 0.930 1_455 S
H127 C150 0.929 . S
O128 Tb84 2.465 . S
O128 C148 1.264 . S
O129 Tb84 2.387 . S
O129 C140 1.264 . S
O130 Tb95 2.349 . S
O130 C140 1.243 . S
O131 Tb84 2.428 . S
O131 C148 1.256 . S
O132 Tb84 2.308 . S
O132 C147 1.266 . S
O133 Tb95 2.393 . S
O133 C147 1.248 . S
O134 Tb95 2.465 . S
O134 C159 1.264 . S
O135 Tb95 2.387 . S
O135 C151 1.264 . S
O136 Tb84 2.349 . S
O136 C151 1.243 . S
O137 Tb95 2.428 . S
O137 C159 1.256 . S
O138 Tb95 2.308 . S
O138 C158 1.266 . S
O139 Tb84 2.393 . S
O139 C158 1.248 . S
C140 O129 1.264 . S
C140 O130 1.243 . S
C141 C144 1.399 . S
C141 C146 1.383 . S
C141 C148 1.496 1_455 S
C142 C143 1.399 . S
C142 C146 1.389 . S
C143 C142 1.399 . S
C143 C145 1.380 . S
C143 H160 0.929 . S
C144 C141 1.399 . S
C144 C145 1.392 . S
C144 H161 0.929 . S
C145 C143 1.380 . S
C145 C144 1.392 . S
C145 H162 0.929 . S
C146 C141 1.383 . S
C146 C142 1.389 . S
C146 H163 0.931 . S
C147 O132 1.266 . S
C147 O133 1.248 . S
C148 Tb84 2.802 . S
C148 O128 1.264 . S
C148 O131 1.256 . S
C148 C141 1.496 1_655 S
C149 C116 1.448 . S
C149 H126 0.930 1_655 S
C149 C150 1.328 1_655 S
C150 C121 1.427 1_455 S
C150 H127 0.929 . S
C150 C149 1.328 1_455 S
C151 O135 1.264 . S
C151 O136 1.243 . S
C152 C155 1.399 . S
C152 C156 1.383 . S
C152 C159 1.496 . S
C153 C154 1.399 . S
C153 C156 1.389 . S
C154 C153 1.399 . S
C154 C157 1.380 . S
C154 H164 0.929 . S
C155 C152 1.399 . S
C155 C157 1.392 . S
C155 H165 0.929 . S
C156 C152 1.383 . S
C156 C153 1.389 . S
C156 H166 0.931 . S
C157 C154 1.380 . S
C157 C155 1.392 . S
C157 H167 0.929 . S
C158 O138 1.266 . S
C158 O139 1.248 . S
C159 Tb95 2.802 . S
C159 O134 1.264 . S
C159 O137 1.256 . S
C159 C152 1.496 . S
H160 C143 0.929 . S
H161 C144 0.929 . S
H162 C145 0.929 . S
H163 C146 0.931 . S
H164 C154 0.929 . S
H165 C155 0.929 . S
H166 C156 0.931 . S
H167 C157 0.929 . S
Tb168 N197 2.617 . S
Tb168 N203 2.572 . S
Tb168 O212 2.465 . S
Tb168 O213 2.387 . S
Tb168 O215 2.428 . S
Tb168 O216 2.308 . S
Tb168 O220 2.349 . S
Tb168 O223 2.393 . S
Tb168 C232 2.802 . S
C169 N170 1.379 . S
C169 C172 1.416 . S
C169 C176 1.424 . S
N170 C169 1.379 . S
N170 C173 1.334 . S
N170 Tb179 2.617 . S
C171 C173 1.390 . S
C171 C174 1.339 . S
C171 H191 0.930 1_554 S
C172 C169 1.416 . S
C172 C174 1.416 . S
C172 C178 1.448 . S
C173 N170 1.334 . S
C173 C171 1.390 . S
C173 H184 0.930 . S
C174 C171 1.339 . S
C174 C172 1.416 . S
C174 H195 0.930 . S
C175 C176 1.413 . S
C175 C177 1.427 . S
C175 C181 1.416 . S
C176 C169 1.424 . S
C176 C175 1.413 . S
C176 N180 1.361 . S
C177 C175 1.427 . S
C177 C178 1.328 . S
C177 H192 0.929 . S
C178 C172 1.448 . S
C178 C177 1.328 . S
C178 H193 0.930 . S
Tb179 N170 2.617 . S
Tb179 N180 2.572 . S
Tb179 O214 2.349 . S
Tb179 O217 2.393 . S
Tb179 O218 2.465 . S
Tb179 O219 2.387 . S
Tb179 O221 2.428 . S
Tb179 O222 2.308 . S
Tb179 C243 2.802 . S
N180 C176 1.361 . S
N180 Tb179 2.572 . S
N180 C182 1.340 . S
C181 C175 1.416 . S
C181 C183 1.332 . S
C181 H189 0.931 . S
C182 N180 1.340 . S
C182 C183 1.407 . S
C182 H188 0.930 . S
C183 C181 1.332 . S
C183 C182 1.407 . S
C183 H185 0.929 . S
H184 C173 0.930 . S
H185 C183 0.929 . S
H186 C201 0.930 . S
H187 C208 0.923 1_545 S
H188 C182 0.930 . S
H189 C181 0.931 . S
H190 C204 0.930 . S
H191 C171 0.930 1_556 S
H192 C177 0.929 . S
H193 C178 0.930 . S
H194 C199 0.930 . S
H195 C174 0.930 . S
H196 C207 0.931 . S
N197 Tb168 2.617 . S
N197 C198 1.379 . S
N197 C201 1.334 . S
C198 N197 1.379 . S
C198 C200 1.416 . S
C198 C206 1.424 . S
C199 H194 0.930 . S
C199 C201 1.390 . S
C199 C202 1.339 . S
C200 C198 1.416 . S
C200 C202 1.416 . S
C200 C233 1.448 . S
C201 H186 0.930 . S
C201 N197 1.334 . S
C201 C199 1.390 . S
C202 C199 1.339 . S
C202 C200 1.416 . S
C202 H209 0.930 . S
N203 Tb168 2.572 . S
N203 C204 1.340 . S
N203 C206 1.361 . S
C204 H190 0.930 . S
C204 N203 1.340 . S
C204 C208 1.426 . S
C205 C206 1.413 . S
C205 C207 1.416 1_565 S
C205 C234 1.427 1_565 S
C206 C198 1.424 . S
C206 N203 1.361 . S
C206 C205 1.413 . S
C207 H196 0.931 . S
C207 C205 1.416 1_545 S
C207 C208 1.321 1_545 S
C208 H187 0.923 1_565 S
C208 C204 1.426 . S
C208 C207 1.321 1_565 S
H209 C202 0.930 . S
H210 C233 0.930 1_545 S
H211 C234 0.929 . S
O212 Tb168 2.465 . S
O212 C232 1.264 . S
O213 Tb168 2.387 . S
O213 C224 1.264 . S
O214 Tb179 2.349 . S
O214 C224 1.243 . S
O215 Tb168 2.428 . S
O215 C232 1.256 . S
O216 Tb168 2.308 . S
O216 C231 1.266 . S
O217 Tb179 2.393 . S
O217 C231 1.248 . S
O218 Tb179 2.465 . S
O218 C243 1.264 . S
O219 Tb179 2.387 . S
O219 C235 1.264 . S
O220 Tb168 2.349 . S
O220 C235 1.243 . S
O221 Tb179 2.428 . S
O221 C243 1.256 . S
O222 Tb179 2.308 . S
O222 C242 1.266 . S
O223 Tb168 2.393 . S
O223 C242 1.248 . S
C224 O213 1.264 . S
C224 O214 1.243 . S
C225 C228 1.399 . S
C225 C230 1.383 . S
C225 C232 1.496 1_545 S
C226 C227 1.399 . S
C226 C230 1.389 . S
C227 C226 1.399 . S
C227 C229 1.380 . S
C227 H244 0.929 . S
C228 C225 1.399 . S
C228 C229 1.392 . S
C228 H245 0.929 . S
C229 C227 1.380 . S
C229 C228 1.392 . S
C229 H246 0.929 . S
C230 C225 1.383 . S
C230 C226 1.389 . S
C230 H247 0.931 . S
C231 O216 1.266 . S
C231 O217 1.248 . S
C232 Tb168 2.802 . S
C232 O212 1.264 . S
C232 O215 1.256 . S
C232 C225 1.496 1_565 S
C233 C200 1.448 . S
C233 H210 0.930 1_565 S
C233 C234 1.328 1_565 S
C234 C205 1.427 1_545 S
C234 H211 0.929 . S
C234 C233 1.328 1_545 S
C235 O219 1.264 . S
C235 O220 1.243 . S
C236 C239 1.399 . S
C236 C240 1.383 . S
C236 C243 1.496 . S
C237 C238 1.399 . S
C237 C240 1.389 . S
C238 C237 1.399 . S
C238 C241 1.380 . S
C238 H248 0.929 . S
C239 C236 1.399 . S
C239 C241 1.392 . S
C239 H249 0.929 . S
C240 C236 1.383 . S
C240 C237 1.389 . S
C240 H250 0.931 . S
C241 C238 1.380 . S
C241 C239 1.392 . S
C241 H251 0.929 . S
C242 O222 1.266 . S
C242 O223 1.248 . S
C243 Tb179 2.802 . S
C243 O218 1.264 . S
C243 O221 1.256 . S
C243 C236 1.496 . S
H244 C227 0.929 . S
H245 C228 0.929 . S
H246 C229 0.929 . S
H247 C230 0.931 . S
H248 C238 0.929 . S
H249 C239 0.929 . S
H250 C240 0.931 . S
H251 C241 0.929 . S
Tb252 N281 2.617 . S
Tb252 N287 2.572 . S
Tb252 O296 2.465 . S
Tb252 O297 2.387 . S
Tb252 O299 2.428 . S
Tb252 O300 2.308 . S
Tb252 O304 2.349 . S
Tb252 O307 2.393 . S
Tb252 C316 2.802 . S
C253 N254 1.379 . S
C253 C256 1.416 . S
C253 C260 1.424 . S
N254 C253 1.379 . S
N254 C257 1.334 . S
N254 Tb263 2.617 . S
C255 C257 1.390 . S
C255 C258 1.339 . S
C255 H275 0.930 . S
C256 C253 1.416 . S
C256 C258 1.416 . S
C256 C262 1.448 . S
C257 N254 1.334 . S
C257 C255 1.390 . S
C257 H268 0.930 . S
C258 C255 1.339 . S
C258 C256 1.416 . S
C258 H279 0.930 . S
C259 C260 1.413 . S
C259 C261 1.427 . S
C259 C265 1.416 . S
C260 C253 1.424 . S
C260 C259 1.413 . S
C260 N264 1.361 . S
C261 C259 1.427 . S
C261 C262 1.328 . S
C261 H276 0.929 1_655 S
C262 C256 1.448 . S
C262 C261 1.328 . S
C262 H277 0.930 1_655 S
Tb263 N254 2.617 . S
Tb263 N264 2.572 . S
Tb263 O298 2.349 . S
Tb263 O301 2.393 . S
Tb263 O302 2.465 . S
Tb263 O303 2.387 . S
Tb263 O305 2.428 . S
Tb263 O306 2.308 . S
Tb263 C327 2.802 . S
N264 C260 1.361 . S
N264 Tb263 2.572 . S
N264 C266 1.340 . S
C265 C259 1.416 . S
C265 C267 1.332 . S
C265 H273 0.931 1_655 S
C266 N264 1.340 . S
C266 C267 1.407 . S
C266 H272 0.930 . S
C267 C265 1.332 . S
C267 C266 1.407 . S
C267 H269 0.929 . S
H268 C257 0.930 . S
H269 C267 0.929 . S
H270 C285 0.930 . S
H271 C292 0.929 . S
H272 C266 0.930 . S
H273 C265 0.931 1_455 S
H274 C288 0.930 . S
H275 C255 0.930 . S
H276 C261 0.929 1_455 S
H277 C262 0.930 1_455 S
H278 C283 0.930 . S
H279 C258 0.930 . S
H280 C291 0.931 . S
N281 Tb252 2.617 . S
N281 C282 1.379 . S
N281 C285 1.334 . S
C282 N281 1.379 . S
C282 C284 1.416 . S
C282 C290 1.424 . S
C283 H278 0.930 . S
C283 C285 1.390 . S
C283 C286 1.339 . S
C284 C282 1.416 . S
C284 C286 1.416 . S
C284 C317 1.448 . S
C285 H270 0.930 . S
C285 N281 1.334 . S
C285 C283 1.390 . S
C286 C283 1.339 . S
C286 C284 1.416 . S
C286 H293 0.930 . S
N287 Tb252 2.572 . S
N287 C288 1.340 . S
N287 C290 1.361 . S
C288 H274 0.930 . S
C288 N287 1.340 . S
C288 C292 1.407 . S
C289 C290 1.413 . S
C289 C291 1.416 . S
C289 C318 1.427 . S
C290 C282 1.424 . S
C290 N287 1.361 . S
C290 C289 1.413 . S
C291 H280 0.931 . S
C291 C289 1.416 . S
C291 C292 1.332 . S
C292 H271 0.929 . S
C292 C288 1.407 . S
C292 C291 1.332 . S
H293 C286 0.930 . S
H294 C317 0.930 . S
H295 C318 0.929 . S
O296 Tb252 2.465 . S
O296 C316 1.264 . S
O297 Tb252 2.387 . S
O297 C308 1.264 . S
O298 Tb263 2.349 . S
O298 C308 1.243 . S
O299 Tb252 2.428 . S
O299 C316 1.256 . S
O300 Tb252 2.308 . S
O300 C315 1.266 . S
O301 Tb263 2.393 . S
O301 C315 1.248 . S
O302 Tb263 2.465 . S
O302 C327 1.264 . S
O303 Tb263 2.387 . S
O303 C319 1.264 . S
O304 Tb252 2.349 . S
O304 C319 1.243 . S
O305 Tb263 2.428 . S
O305 C327 1.256 . S
O306 Tb263 2.308 . S
O306 C326 1.266 . S
O307 Tb252 2.393 . S
O307 C326 1.248 . S
C308 O297 1.264 . S
C308 O298 1.243 . S
C309 C312 1.399 . S
C309 C314 1.383 . S
C309 C316 1.496 . S
C310 C311 1.399 . S
C310 C314 1.389 . S
C311 C310 1.399 . S
C311 C313 1.380 . S
C311 H328 0.929 . S
C312 C309 1.399 . S
C312 C313 1.392 . S
C312 H329 0.929 . S
C313 C311 1.380 . S
C313 C312 1.392 . S
C313 H330 0.929 . S
C314 C309 1.383 . S
C314 C310 1.389 . S
C314 H331 0.931 . S
C315 O300 1.266 . S
C315 O301 1.248 . S
C316 Tb252 2.802 . S
C316 O296 1.264 . S
C316 O299 1.256 . S
C316 C309 1.496 . S
C317 C284 1.448 . S
C317 H294 0.930 . S
C317 C318 1.328 . S
C318 C289 1.427 . S
C318 H295 0.929 . S
C318 C317 1.328 . S
C319 O303 1.264 . S
C319 O304 1.243 . S
C320 C323 1.399 . S
C320 C324 1.383 . S
C320 C327 1.496 . S
C321 C322 1.399 . S
C321 C324 1.389 . S
C322 C321 1.399 . S
C322 C325 1.380 . S
C322 H332 0.929 . S
C323 C320 1.399 . S
C323 C325 1.392 . S
C323 H333 0.929 . S
C324 C320 1.383 . S
C324 C321 1.389 . S
C324 H334 0.931 . S
C325 C322 1.380 . S
C325 C323 1.392 . S
C325 H335 0.929 . S
C326 O306 1.266 . S
C326 O307 1.248 . S
C327 Tb263 2.802 . S
C327 O302 1.264 . S
C327 O305 1.256 . S
C327 C320 1.496 . S
H328 C311 0.929 . S
H329 C312 0.929 . S
H330 C313 0.929 . S
H331 C314 0.931 . S
H332 C322 0.929 . S
H333 C323 0.929 . S
H334 C324 0.931 . S
H335 C325 0.929 . S
Tb336 N365 2.617 . S
Tb336 N371 2.572 . S
Tb336 O380 2.465 . S
Tb336 O381 2.387 . S
Tb336 O383 2.428 . S
Tb336 O384 2.308 . S
Tb336 O388 2.349 . S
Tb336 O391 2.393 . S
Tb336 C400 2.802 . S
C337 N338 1.379 . S
C337 C340 1.416 . S
C337 C344 1.424 . S
N338 C337 1.379 . S
N338 C341 1.334 . S
N338 Tb347 2.617 . S
C339 C341 1.390 . S
C339 C342 1.339 . S
C339 H359 0.930 1_554 S
C340 C337 1.416 . S
C340 C342 1.416 . S
C340 C346 1.448 . S
C341 N338 1.334 . S
C341 C339 1.390 . S
C341 H352 0.930 . S
C342 C339 1.339 . S
C342 C340 1.416 . S
C342 H363 0.930 . S
C343 C344 1.413 . S
C343 C345 1.427 . S
C343 C349 1.416 . S
C344 C337 1.424 . S
C344 C343 1.413 . S
C344 N348 1.361 . S
C345 C343 1.427 . S
C345 C346 1.328 . S
C345 H360 0.929 1_565 S
C346 C340 1.448 . S
C346 C345 1.328 . S
C346 H361 0.930 1_565 S
Tb347 N338 2.617 . S
Tb347 N348 2.572 . S
Tb347 O382 2.349 . S
Tb347 O385 2.393 . S
Tb347 O386 2.465 . S
Tb347 O387 2.387 . S
Tb347 O389 2.428 . S
Tb347 O390 2.308 . S
Tb347 C411 2.802 . S
N348 C344 1.361 . S
N348 Tb347 2.572 . S
N348 C350 1.340 . S
C349 C343 1.416 . S
C349 C351 1.332 . S
C349 H357 0.931 1_565 S
C350 N348 1.340 . S
C350 C351 1.407 . S
C350 H356 0.930 . S
C351 C349 1.332 . S
C351 C350 1.407 . S
C351 H353 0.929 . S
H352 C341 0.930 . S
H353 C351 0.929 . S
H354 C369 0.930 . S
H355 C376 0.926 1_655 S
H356 C350 0.930 . S
H357 C349 0.931 1_545 S
H358 C372 0.930 . S
H359 C339 0.930 1_556 S
H360 C345 0.929 1_545 S
H361 C346 0.930 1_545 S
H362 C367 0.930 . S
H363 C342 0.930 . S
H364 C375 0.931 . S
N365 Tb336 2.617 . S
N365 C366 1.379 . S
N365 C369 1.334 . S
C366 N365 1.379 . S
C366 C368 1.416 . S
C366 C374 1.424 . S
C367 H362 0.930 . S
C367 C369 1.390 . S
C367 C370 1.339 . S
C368 C366 1.416 . S
C368 C370 1.416 . S
C368 C401 1.448 . S
C369 H354 0.930 . S
C369 N365 1.334 . S
C369 C367 1.390 . S
C370 C367 1.339 . S
C370 C368 1.416 . S
C370 H377 0.930 . S
N371 Tb336 2.572 . S
N371 C372 1.340 . S
N371 C374 1.361 . S
C372 H358 0.930 . S
C372 N371 1.340 . S
C372 C376 1.410 . S
C373 C374 1.413 . S
C373 C375 1.416 1_455 S
C373 C402 1.427 1_455 S
C374 C366 1.424 . S
C374 N371 1.361 . S
C374 C373 1.413 . S
C375 H364 0.931 . S
C375 C373 1.416 1_655 S
C375 C376 1.333 1_655 S
C376 H355 0.926 1_455 S
C376 C372 1.410 . S
C376 C375 1.333 1_455 S
H377 C370 0.930 . S
H378 C401 0.930 1_655 S
H379 C402 0.929 . S
O380 Tb336 2.465 . S
O380 C400 1.264 . S
O381 Tb336 2.387 . S
O381 C392 1.264 . S
O382 Tb347 2.349 . S
O382 C392 1.243 . S
O383 Tb336 2.428 . S
O383 C400 1.256 . S
O384 Tb336 2.308 . S
O384 C399 1.266 . S
O385 Tb347 2.393 . S
O385 C399 1.248 . S
O386 Tb347 2.465 . S
O386 C411 1.264 . S
O387 Tb347 2.387 . S
O387 C403 1.264 . S
O388 Tb336 2.349 . S
O388 C403 1.243 . S
O389 Tb347 2.428 . S
O389 C411 1.256 . S
O390 Tb347 2.308 . S
O390 C410 1.266 . S
O391 Tb336 2.393 . S
O391 C410 1.248 . S
C392 O381 1.264 . S
C392 O382 1.243 . S
C393 C396 1.399 . S
C393 C398 1.383 . S
C393 C400 1.496 1_655 S
C394 C395 1.399 . S
C394 C398 1.389 . S
C395 C394 1.399 . S
C395 C397 1.380 . S
C395 H412 0.929 . S
C396 C393 1.399 . S
C396 C397 1.392 . S
C396 H413 0.929 . S
C397 C395 1.380 . S
C397 C396 1.392 . S
C397 H414 0.929 . S
C398 C393 1.383 . S
C398 C394 1.389 . S
C398 H415 0.931 . S
C399 O384 1.266 . S
C399 O385 1.248 . S
C400 Tb336 2.802 . S
C400 O380 1.264 . S
C400 O383 1.256 . S
C400 C393 1.496 1_455 S
C401 C368 1.448 . S
C401 H378 0.930 1_455 S
C401 C402 1.328 1_455 S
C402 C373 1.427 1_655 S
C402 H379 0.929 . S
C402 C401 1.328 1_655 S
C403 O387 1.264 . S
C403 O388 1.243 . S
C404 C407 1.399 . S
C404 C408 1.383 . S
C404 C411 1.496 . S
C405 C406 1.399 . S
C405 C408 1.389 . S
C406 C405 1.399 . S
C406 C409 1.380 . S
C406 H416 0.929 . S
C407 C404 1.399 . S
C407 C409 1.392 . S
C407 H417 0.929 . S
C408 C404 1.383 . S
C408 C405 1.389 . S
C408 H418 0.931 . S
C409 C406 1.380 . S
C409 C407 1.392 . S
C409 H419 0.929 . S
C410 O390 1.266 . S
C410 O391 1.248 . S
C411 Tb347 2.802 . S
C411 O386 1.264 . S
C411 O389 1.256 . S
C411 C404 1.496 . S
H412 C395 0.929 . S
H413 C396 0.929 . S
H414 C397 0.929 . S
H415 C398 0.931 . S
H416 C406 0.929 . S
H417 C407 0.929 . S
H418 C408 0.931 . S
H419 C409 0.929 . S
Tb420 N449 2.617 . S
Tb420 N455 2.572 . S
Tb420 O464 2.465 . S
Tb420 O465 2.387 . S
Tb420 O467 2.428 . S
Tb420 O468 2.308 . S
Tb420 O472 2.349 . S
Tb420 O475 2.393 . S
Tb420 C484 2.802 . S
C421 N422 1.379 . S
C421 C424 1.416 . S
C421 C428 1.424 . S
N422 C421 1.379 . S
N422 C425 1.334 . S
N422 Tb431 2.617 . S
C423 C425 1.390 . S
C423 C426 1.339 . S
C423 H443 0.930 . S
C424 C421 1.416 . S
C424 C426 1.416 . S
C424 C430 1.448 . S
C425 N422 1.334 . S
C425 C423 1.390 . S
C425 H436 0.930 . S
C426 C423 1.339 . S
C426 C424 1.416 . S
C426 H447 0.930 . S
C427 C428 1.413 . S
C427 C429 1.427 . S
C427 C433 1.416 . S
C428 C421 1.424 . S
C428 C427 1.413 . S
C428 N432 1.361 . S
C429 C427 1.427 . S
C429 C430 1.328 . S
C429 H444 0.929 . S
C430 C424 1.448 . S
C430 C429 1.328 . S
C430 H445 0.930 . S
Tb431 N422 2.617 . S
Tb431 N432 2.572 . S
Tb431 O466 2.349 . S
Tb431 O469 2.393 . S
Tb431 O470 2.465 . S
Tb431 O471 2.387 . S
Tb431 O473 2.428 . S
Tb431 O474 2.308 . S
Tb431 C495 2.802 . S
N432 C428 1.361 . S
N432 Tb431 2.572 . S
N432 C434 1.340 . S
C433 C427 1.416 . S
C433 C435 1.332 . S
C433 H441 0.931 . S
C434 N432 1.340 . S
C434 C435 1.407 . S
C434 H440 0.930 . S
C435 C433 1.332 . S
C435 C434 1.407 . S
C435 H437 0.929 . S
H436 C425 0.930 . S
H437 C435 0.929 . S
H438 C453 0.930 . S
H439 C460 0.923 1_565 S
H440 C434 0.930 . S
H441 C433 0.931 . S
H442 C456 0.930 . S
H443 C423 0.930 . S
H444 C429 0.929 . S
H445 C430 0.930 . S
H446 C451 0.930 . S
H447 C426 0.930 . S
H448 C459 0.931 . S
N449 Tb420 2.617 . S
N449 C450 1.379 . S
N449 C453 1.334 . S
C450 N449 1.379 . S
C450 C452 1.416 . S
C450 C458 1.424 . S
C451 H446 0.930 . S
C451 C453 1.390 . S
C451 C454 1.339 . S
C452 C450 1.416 . S
C452 C454 1.416 . S
C452 C485 1.448 . S
C453 H438 0.930 . S
C453 N449 1.334 . S
C453 C451 1.390 . S
C454 C451 1.339 . S
C454 C452 1.416 . S
C454 H461 0.930 . S
N455 Tb420 2.572 . S
N455 C456 1.340 . S
N455 C458 1.361 . S
C456 H442 0.930 . S
C456 N455 1.340 . S
C456 C460 1.426 . S
C457 C458 1.413 . S
C457 C459 1.416 1_545 S
C457 C486 1.427 1_545 S
C458 C450 1.424 . S
C458 N455 1.361 . S
C458 C457 1.413 . S
C459 H448 0.931 . S
C459 C457 1.416 1_565 S
C459 C460 1.321 1_565 S
C460 H439 0.923 1_545 S
C460 C456 1.426 . S
C460 C459 1.321 1_545 S
H461 C454 0.930 . S
H462 C485 0.930 1_565 S
H463 C486 0.929 . S
O464 Tb420 2.465 . S
O464 C484 1.264 . S
O465 Tb420 2.387 . S
O465 C476 1.264 . S
O466 Tb431 2.349 . S
O466 C476 1.243 . S
O467 Tb420 2.428 . S
O467 C484 1.256 . S
O468 Tb420 2.308 . S
O468 C483 1.266 . S
O469 Tb431 2.393 . S
O469 C483 1.248 . S
O470 Tb431 2.465 . S
O470 C495 1.264 . S
O471 Tb431 2.387 . S
O471 C487 1.264 . S
O472 Tb420 2.349 . S
O472 C487 1.243 . S
O473 Tb431 2.428 . S
O473 C495 1.256 . S
O474 Tb431 2.308 . S
O474 C494 1.266 . S
O475 Tb420 2.393 . S
O475 C494 1.248 . S
C476 O465 1.264 . S
C476 O466 1.243 . S
C477 C480 1.399 . S
C477 C482 1.383 . S
C477 C484 1.496 1_565 S
C478 C479 1.399 . S
C478 C482 1.389 . S
C479 C478 1.399 . S
C479 C481 1.380 . S
C479 H496 0.929 . S
C480 C477 1.399 . S
C480 C481 1.392 . S
C480 H497 0.929 . S
C481 C479 1.380 . S
C481 C480 1.392 . S
C481 H498 0.929 . S
C482 C477 1.383 . S
C482 C478 1.389 . S
C482 H499 0.931 . S
C483 O468 1.266 . S
C483 O469 1.248 . S
C484 Tb420 2.802 . S
C484 O464 1.264 . S
C484 O467 1.256 . S
C484 C477 1.496 1_545 S
C485 C452 1.448 . S
C485 H462 0.930 1_545 S
C485 C486 1.328 1_545 S
C486 C457 1.427 1_565 S
C486 H463 0.929 . S
C486 C485 1.328 1_565 S
C487 O471 1.264 . S
C487 O472 1.243 . S
C488 C491 1.399 . S
C488 C492 1.383 . S
C488 C495 1.496 . S
C489 C490 1.399 . S
C489 C492 1.389 . S
C490 C489 1.399 . S
C490 C493 1.380 . S
C490 H500 0.929 . S
C491 C488 1.399 . S
C491 C493 1.392 . S
C491 H501 0.929 . S
C492 C488 1.383 . S
C492 C489 1.389 . S
C492 H502 0.931 . S
C493 C490 1.380 . S
C493 C491 1.392 . S
C493 H503 0.929 . S
C494 O474 1.266 . S
C494 O475 1.248 . S
C495 Tb431 2.802 . S
C495 O470 1.264 . S
C495 O473 1.256 . S
C495 C488 1.496 . S
H496 C479 0.929 . S
H497 C480 0.929 . S
H498 C481 0.929 . S
H499 C482 0.931 . S
H500 C490 0.929 . S
H501 C491 0.929 . S
H502 C492 0.931 . S
H503 C493 0.929 . S
Tb504 N533 2.617 . S
Tb504 N539 2.572 . S
Tb504 O548 2.465 . S
Tb504 O549 2.387 . S
Tb504 O551 2.428 . S
Tb504 O552 2.308 . S
Tb504 O556 2.349 . S
Tb504 O559 2.393 . S
Tb504 C568 2.802 . S
C505 N506 1.379 . S
C505 C508 1.416 . S
C505 C512 1.424 . S
N506 C505 1.379 . S
N506 C509 1.334 . S
N506 Tb515 2.617 . S
C507 C509 1.390 . S
C507 C510 1.339 . S
C507 H527 0.930 . S
C508 C505 1.416 . S
C508 C510 1.416 . S
C508 C514 1.448 . S
C509 N506 1.334 . S
C509 C507 1.390 . S
C509 H520 0.930 . S
C510 C507 1.339 . S
C510 C508 1.416 . S
C510 H531 0.930 . S
C511 C512 1.413 . S
C511 C513 1.427 . S
C511 C517 1.416 . S
C512 C505 1.424 . S
C512 C511 1.413 . S
C512 N516 1.361 . S
C513 C511 1.427 . S
C513 C514 1.328 . S
C513 H528 0.929 1_565 S
C514 C508 1.448 . S
C514 C513 1.328 . S
C514 H529 0.930 1_565 S
Tb515 N506 2.617 . S
Tb515 N516 2.572 . S
Tb515 O550 2.349 . S
Tb515 O553 2.393 . S
Tb515 O554 2.465 . S
Tb515 O555 2.387 . S
Tb515 O557 2.428 . S
Tb515 O558 2.308 . S
Tb515 C579 2.802 . S
N516 C512 1.361 . S
N516 Tb515 2.572 . S
N516 C518 1.340 . S
C517 C511 1.416 . S
C517 C519 1.332 . S
C517 H525 0.931 1_565 S
C518 N516 1.340 . S
C518 C519 1.407 . S
C518 H524 0.930 . S
C519 C517 1.332 . S
C519 C518 1.407 . S
C519 H521 0.929 . S
H520 C509 0.930 . S
H521 C519 0.929 . S
H522 C537 0.930 . S
H523 C544 0.929 . S
H524 C518 0.930 . S
H525 C517 0.931 1_545 S
H526 C540 0.930 . S
H527 C507 0.930 . S
H528 C513 0.929 1_545 S
H529 C514 0.930 1_545 S
H530 C535 0.930 . S
H531 C510 0.930 . S
H532 C543 0.931 . S
N533 Tb504 2.617 . S
N533 C534 1.379 . S
N533 C537 1.334 . S
C534 N533 1.379 . S
C534 C536 1.416 . S
C534 C542 1.424 . S
C535 H530 0.930 . S
C535 C537 1.390 . S
C535 C538 1.339 . S
C536 C534 1.416 . S
C536 C538 1.416 . S
C536 C569 1.448 . S
C537 H522 0.930 . S
C537 N533 1.334 . S
C537 C535 1.390 . S
C538 C535 1.339 . S
C538 C536 1.416 . S
C538 H545 0.930 . S
N539 Tb504 2.572 . S
N539 C540 1.340 . S
N539 C542 1.361 . S
C540 H526 0.930 . S
C540 N539 1.340 . S
C540 C544 1.407 . S
C541 C542 1.413 . S
C541 C543 1.416 . S
C541 C570 1.427 . S
C542 C534 1.424 . S
C542 N539 1.361 . S
C542 C541 1.413 . S
C543 H532 0.931 . S
C543 C541 1.416 . S
C543 C544 1.332 . S
C544 H523 0.929 . S
C544 C540 1.407 . S
C544 C543 1.332 . S
H545 C538 0.930 . S
H546 C569 0.930 . S
H547 C570 0.929 . S
O548 Tb504 2.465 . S
O548 C568 1.264 . S
O549 Tb504 2.387 . S
O549 C560 1.264 . S
O550 Tb515 2.349 . S
O550 C560 1.243 . S
O551 Tb504 2.428 . S
O551 C568 1.256 . S
O552 Tb504 2.308 . S
O552 C567 1.266 . S
O553 Tb515 2.393 . S
O553 C567 1.248 . S
O554 Tb515 2.465 . S
O554 C579 1.264 . S
O555 Tb515 2.387 . S
O555 C571 1.264 . S
O556 Tb504 2.349 . S
O556 C571 1.243 . S
O557 Tb515 2.428 . S
O557 C579 1.256 . S
O558 Tb515 2.308 . S
O558 C578 1.266 . S
O559 Tb504 2.393 . S
O559 C578 1.248 . S
C560 O549 1.264 . S
C560 O550 1.243 . S
C561 C564 1.399 . S
C561 C566 1.383 . S
C561 C568 1.496 . S
C562 C563 1.399 . S
C562 C566 1.389 . S
C563 C562 1.399 . S
C563 C565 1.380 . S
C563 H580 0.929 . S
C564 C561 1.399 . S
C564 C565 1.392 . S
C564 H581 0.929 . S
C565 C563 1.380 . S
C565 C564 1.392 . S
C565 H582 0.929 . S
C566 C561 1.383 . S
C566 C562 1.389 . S
C566 H583 0.931 . S
C567 O552 1.266 . S
C567 O553 1.248 . S
C568 Tb504 2.802 . S
C568 O548 1.264 . S
C568 O551 1.256 . S
C568 C561 1.496 . S
C569 C536 1.448 . S
C569 H546 0.930 . S
C569 C570 1.328 . S
C570 C541 1.427 . S
C570 H547 0.929 . S
C570 C569 1.328 . S
C571 O555 1.264 . S
C571 O556 1.243 . S
C572 C575 1.399 . S
C572 C576 1.383 . S
C572 C579 1.496 . S
C573 C574 1.399 . S
C573 C576 1.389 . S
C574 C573 1.399 . S
C574 C577 1.380 . S
C574 H584 0.929 . S
C575 C572 1.399 . S
C575 C577 1.392 . S
C575 H585 0.929 . S
C576 C572 1.383 . S
C576 C573 1.389 . S
C576 H586 0.931 . S
C577 C574 1.380 . S
C577 C575 1.392 . S
C577 H587 0.929 . S
C578 O558 1.266 . S
C578 O559 1.248 . S
C579 Tb515 2.802 . S
C579 O554 1.264 . S
C579 O557 1.256 . S
C579 C572 1.496 . S
H580 C563 0.929 . S
H581 C564 0.929 . S
H582 C565 0.929 . S
H583 C566 0.931 . S
H584 C574 0.929 . S
H585 C575 0.929 . S
H586 C576 0.931 . S
H587 C577 0.929 . S
Tb588 N617 2.617 . S
Tb588 N623 2.572 . S
Tb588 O632 2.465 . S
Tb588 O633 2.387 . S
Tb588 O635 2.428 . S
Tb588 O636 2.308 . S
Tb588 O640 2.349 . S
Tb588 O643 2.393 . S
Tb588 C652 2.802 . S
C589 N590 1.379 . S
C589 C592 1.416 . S
C589 C596 1.424 . S
N590 C589 1.379 . S
N590 C593 1.334 . S
N590 Tb599 2.617 . S
C591 C593 1.390 . S
C591 C594 1.339 . S
C591 H611 0.930 1_556 S
C592 C589 1.416 . S
C592 C594 1.416 . S
C592 C598 1.448 . S
C593 N590 1.334 . S
C593 C591 1.390 . S
C593 H604 0.930 . S
C594 C591 1.339 . S
C594 C592 1.416 . S
C594 H615 0.930 . S
C595 C596 1.413 . S
C595 C597 1.427 . S
C595 C601 1.416 . S
C596 C589 1.424 . S
C596 C595 1.413 . S
C596 N600 1.361 . S
C597 C595 1.427 . S
C597 C598 1.328 . S
C597 H612 0.929 . S
C598 C592 1.448 . S
C598 C597 1.328 . S
C598 H613 0.930 . S
Tb599 N590 2.617 . S
Tb599 N600 2.572 . S
Tb599 O634 2.349 . S
Tb599 O637 2.393 . S
Tb599 O638 2.465 . S
Tb599 O639 2.387 . S
Tb599 O641 2.428 . S
Tb599 O642 2.308 . S
Tb599 C663 2.802 . S
N600 C596 1.361 . S
N600 Tb599 2.572 . S
N600 C602 1.340 . S
C601 C595 1.416 . S
C601 C603 1.332 . S
C601 H609 0.931 . S
C602 N600 1.340 . S
C602 C603 1.407 . S
C602 H608 0.930 . S
C603 C601 1.332 . S
C603 C602 1.407 . S
C603 H605 0.929 . S
H604 C593 0.930 . S
H605 C603 0.929 . S
H606 C621 0.930 . S
H607 C628 0.923 1_455 S
H608 C602 0.930 . S
H609 C601 0.931 . S
H610 C624 0.930 . S
H611 C591 0.930 1_554 S
H612 C597 0.929 . S
H613 C598 0.930 . S
H614 C619 0.930 . S
H615 C594 0.930 . S
H616 C627 0.931 . S
N617 Tb588 2.617 . S
N617 C618 1.379 . S
N617 C621 1.334 . S
C618 N617 1.379 . S
C618 C620 1.416 . S
C618 C626 1.424 . S
C619 H614 0.930 . S
C619 C621 1.390 . S
C619 C622 1.339 . S
C620 C618 1.416 . S
C620 C622 1.416 . S
C620 C653 1.448 . S
C621 H606 0.930 . S
C621 N617 1.334 . S
C621 C619 1.390 . S
C622 C619 1.339 . S
C622 C620 1.416 . S
C622 H629 0.930 . S
N623 Tb588 2.572 . S
N623 C624 1.340 . S
N623 C626 1.361 . S
C624 H610 0.930 . S
C624 N623 1.340 . S
C624 C628 1.426 . S
C625 C626 1.413 . S
C625 C627 1.416 1_655 S
C625 C654 1.427 1_655 S
C626 C618 1.424 . S
C626 N623 1.361 . S
C626 C625 1.413 . S
C627 H616 0.931 . S
C627 C625 1.416 1_455 S
C627 C628 1.321 1_455 S
C628 H607 0.923 1_655 S
C628 C624 1.426 . S
C628 C627 1.321 1_655 S
H629 C622 0.930 . S
H630 C653 0.930 1_455 S
H631 C654 0.929 . S
O632 Tb588 2.465 . S
O632 C652 1.264 . S
O633 Tb588 2.387 . S
O633 C644 1.264 . S
O634 Tb599 2.349 . S
O634 C644 1.243 . S
O635 Tb588 2.428 . S
O635 C652 1.256 . S
O636 Tb588 2.308 . S
O636 C651 1.266 . S
O637 Tb599 2.393 . S
O637 C651 1.248 . S
O638 Tb599 2.465 . S
O638 C663 1.264 . S
O639 Tb599 2.387 . S
O639 C655 1.264 . S
O640 Tb588 2.349 . S
O640 C655 1.243 . S
O641 Tb599 2.428 . S
O641 C663 1.256 . S
O642 Tb599 2.308 . S
O642 C662 1.266 . S
O643 Tb588 2.393 . S
O643 C662 1.248 . S
C644 O633 1.264 . S
C644 O634 1.243 . S
C645 C648 1.399 . S
C645 C650 1.383 . S
C645 C652 1.496 1_455 S
C646 C647 1.399 . S
C646 C650 1.389 . S
C647 C646 1.399 . S
C647 C649 1.380 . S
C647 H664 0.929 . S
C648 C645 1.399 . S
C648 C649 1.392 . S
C648 H665 0.929 . S
C649 C647 1.380 . S
C649 C648 1.392 . S
C649 H666 0.929 . S
C650 C645 1.383 . S
C650 C646 1.389 . S
C650 H667 0.931 . S
C651 O636 1.266 . S
C651 O637 1.248 . S
C652 Tb588 2.802 . S
C652 O632 1.264 . S
C652 O635 1.256 . S
C652 C645 1.496 1_655 S
C653 C620 1.448 . S
C653 H630 0.930 1_655 S
C653 C654 1.328 1_655 S
C654 C625 1.427 1_455 S
C654 H631 0.929 . S
C654 C653 1.328 1_455 S
C655 O639 1.264 . S
C655 O640 1.243 . S
C656 C659 1.399 . S
C656 C660 1.383 . S
C656 C663 1.496 . S
C657 C658 1.399 . S
C657 C660 1.389 . S
C658 C657 1.399 . S
C658 C661 1.380 . S
C658 H668 0.929 . S
C659 C656 1.399 . S
C659 C661 1.392 . S
C659 H669 0.929 . S
C660 C656 1.383 . S
C660 C657 1.389 . S
C660 H670 0.931 . S
C661 C658 1.380 . S
C661 C659 1.392 . S
C661 H671 0.929 . S
C662 O642 1.266 . S
C662 O643 1.248 . S
C663 Tb599 2.802 . S
C663 O638 1.264 . S
C663 O641 1.256 . S
C663 C656 1.496 . S
H664 C647 0.929 . S
H665 C648 0.929 . S
H666 C649 0.929 . S
H667 C650 0.931 . S
H668 C658 0.929 . S
H669 C659 0.929 . S
H670 C660 0.931 . S
H671 C661 0.929 . S
Tb672 N701 2.617 . S
Tb672 N707 2.572 . S
Tb672 O716 2.465 . S
Tb672 O717 2.387 . S
Tb672 O719 2.428 . S
Tb672 O720 2.308 . S
Tb672 O724 2.349 . S
Tb672 O727 2.393 . S
Tb672 C736 2.802 . S
C673 N674 1.379 . S
C673 C676 1.416 . S
C673 C680 1.424 . S
N674 C673 1.379 . S
N674 C677 1.334 . S
N674 Tb683 2.617 . S
C675 C677 1.390 . S
C675 C678 1.339 . S
C675 H695 0.930 . S
C676 C673 1.416 . S
C676 C678 1.416 . S
C676 C682 1.448 . S
C677 N674 1.334 . S
C677 C675 1.390 . S
C677 H688 0.930 . S
C678 C675 1.339 . S
C678 C676 1.416 . S
C678 H699 0.930 . S
C679 C680 1.413 . S
C679 C681 1.427 . S
C679 C685 1.416 . S
C680 C673 1.424 . S
C680 C679 1.413 . S
C680 N684 1.361 . S
C681 C679 1.427 . S
C681 C682 1.328 . S
C681 H696 0.929 1_455 S
C682 C676 1.448 . S
C682 C681 1.328 . S
C682 H697 0.930 1_455 S
Tb683 N674 2.617 . S
Tb683 N684 2.572 . S
Tb683 O718 2.349 . S
Tb683 O721 2.393 . S
Tb683 O722 2.465 . S
Tb683 O723 2.387 . S
Tb683 O725 2.428 . S
Tb683 O726 2.308 . S
Tb683 C747 2.802 . S
N684 C680 1.361 . S
N684 Tb683 2.572 . S
N684 C686 1.340 . S
C685 C679 1.416 . S
C685 C687 1.332 . S
C685 H693 0.931 1_455 S
C686 N684 1.340 . S
C686 C687 1.407 . S
C686 H692 0.930 . S
C687 C685 1.332 . S
C687 C686 1.407 . S
C687 H689 0.929 . S
H688 C677 0.930 . S
H689 C687 0.929 . S
H690 C705 0.930 . S
H691 C712 0.926 1_545 S
H692 C686 0.930 . S
H693 C685 0.931 1_655 S
H694 C708 0.930 . S
H695 C675 0.930 . S
H696 C681 0.929 1_655 S
H697 C682 0.930 1_655 S
H698 C703 0.930 . S
H699 C678 0.930 . S
H700 C711 0.931 . S
N701 Tb672 2.617 . S
N701 C702 1.379 . S
N701 C705 1.334 . S
C702 N701 1.379 . S
C702 C704 1.416 . S
C702 C710 1.424 . S
C703 H698 0.930 . S
C703 C705 1.390 . S
C703 C706 1.339 . S
C704 C702 1.416 . S
C704 C706 1.416 . S
C704 C737 1.448 . S
C705 H690 0.930 . S
C705 N701 1.334 . S
C705 C703 1.390 . S
C706 C703 1.339 . S
C706 C704 1.416 . S
C706 H713 0.930 . S
N707 Tb672 2.572 . S
N707 C708 1.340 . S
N707 C710 1.361 . S
C708 H694 0.930 . S
C708 N707 1.340 . S
C708 C712 1.410 . S
C709 C710 1.413 . S
C709 C711 1.416 1_565 S
C709 C738 1.427 1_565 S
C710 C702 1.424 . S
C710 N707 1.361 . S
C710 C709 1.413 . S
C711 H700 0.931 . S
C711 C709 1.416 1_545 S
C711 C712 1.333 1_545 S
C712 H691 0.926 1_565 S
C712 C708 1.410 . S
C712 C711 1.333 1_565 S
H713 C706 0.930 . S
H714 C737 0.930 1_545 S
H715 C738 0.929 . S
O716 Tb672 2.465 . S
O716 C736 1.264 . S
O717 Tb672 2.387 . S
O717 C728 1.264 . S
O718 Tb683 2.349 . S
O718 C728 1.243 . S
O719 Tb672 2.428 . S
O719 C736 1.256 . S
O720 Tb672 2.308 . S
O720 C735 1.266 . S
O721 Tb683 2.393 . S
O721 C735 1.248 . S
O722 Tb683 2.465 . S
O722 C747 1.264 . S
O723 Tb683 2.387 . S
O723 C739 1.264 . S
O724 Tb672 2.349 . S
O724 C739 1.243 . S
O725 Tb683 2.428 . S
O725 C747 1.256 . S
O726 Tb683 2.308 . S
O726 C746 1.266 . S
O727 Tb672 2.393 . S
O727 C746 1.248 . S
C728 O717 1.264 . S
C728 O718 1.243 . S
C729 C732 1.399 . S
C729 C734 1.383 . S
C729 C736 1.496 1_545 S
C730 C731 1.399 . S
C730 C734 1.389 . S
C731 C730 1.399 . S
C731 C733 1.380 . S
C731 H748 0.929 . S
C732 C729 1.399 . S
C732 C733 1.392 . S
C732 H749 0.929 . S
C733 C731 1.380 . S
C733 C732 1.392 . S
C733 H750 0.929 . S
C734 C729 1.383 . S
C734 C730 1.389 . S
C734 H751 0.931 . S
C735 O720 1.266 . S
C735 O721 1.248 . S
C736 Tb672 2.802 . S
C736 O716 1.264 . S
C736 O719 1.256 . S
C736 C729 1.496 1_565 S
C737 C704 1.448 . S
C737 H714 0.930 1_565 S
C737 C738 1.328 1_565 S
C738 C709 1.427 1_545 S
C738 H715 0.929 . S
C738 C737 1.328 1_545 S
C739 O723 1.264 . S
C739 O724 1.243 . S
C740 C743 1.399 . S
C740 C744 1.383 . S
C740 C747 1.496 . S
C741 C742 1.399 . S
C741 C744 1.389 . S
C742 C741 1.399 . S
C742 C745 1.380 . S
C742 H752 0.929 . S
C743 C740 1.399 . S
C743 C745 1.392 . S
C743 H753 0.929 . S
C744 C740 1.383 . S
C744 C741 1.389 . S
C744 H754 0.931 . S
C745 C742 1.380 . S
C745 C743 1.392 . S
C745 H755 0.929 . S
C746 O726 1.266 . S
C746 O727 1.248 . S
C747 Tb683 2.802 . S
C747 O722 1.264 . S
C747 O725 1.256 . S
C747 C740 1.496 . S
H748 C731 0.929 . S
H749 C732 0.929 . S
H750 C733 0.929 . S
H751 C734 0.931 . S
H752 C742 0.929 . S
H753 C743 0.929 . S
H754 C744 0.931 . S
H755 C745 0.929 . S
Tb756 N785 2.617 . S
Tb756 N791 2.572 . S
Tb756 O800 2.465 . S
Tb756 O801 2.387 . S
Tb756 O803 2.428 . S
Tb756 O804 2.308 . S
Tb756 O808 2.349 . S
Tb756 O811 2.393 . S
Tb756 C820 2.802 . S
C757 N758 1.379 . S
C757 C760 1.416 . S
C757 C764 1.424 . S
N758 C757 1.379 . S
N758 C761 1.334 . S
N758 Tb767 2.617 . S
C759 C761 1.390 . S
C759 C762 1.339 . S
C759 H779 0.930 1_556 S
C760 C757 1.416 . S
C760 C762 1.416 . S
C760 C766 1.448 . S
C761 N758 1.334 . S
C761 C759 1.390 . S
C761 H772 0.930 . S
C762 C759 1.339 . S
C762 C760 1.416 . S
C762 H783 0.930 . S
C763 C764 1.413 . S
C763 C765 1.427 . S
C763 C769 1.416 . S
C764 C757 1.424 . S
C764 C763 1.413 . S
C764 N768 1.361 . S
C765 C763 1.427 . S
C765 C766 1.328 . S
C765 H780 0.929 1_545 S
C766 C760 1.448 . S
C766 C765 1.328 . S
C766 H781 0.930 1_545 S
Tb767 N758 2.617 . S
Tb767 N768 2.572 . S
Tb767 O802 2.349 . S
Tb767 O805 2.393 . S
Tb767 O806 2.465 . S
Tb767 O807 2.387 . S
Tb767 O809 2.428 . S
Tb767 O810 2.308 . S
Tb767 C831 2.802 . S
N768 C764 1.361 . S
N768 Tb767 2.572 . S
N768 C770 1.340 . S
C769 C763 1.416 . S
C769 C771 1.332 . S
C769 H777 0.931 1_545 S
C770 N768 1.340 . S
C770 C771 1.407 . S
C770 H776 0.930 . S
C771 C769 1.332 . S
C771 C770 1.407 . S
C771 H773 0.929 . S
H772 C761 0.930 . S
H773 C771 0.929 . S
H774 C789 0.930 . S
H775 C796 0.929 . S
H776 C770 0.930 . S
H777 C769 0.931 1_565 S
H778 C792 0.930 . S
H779 C759 0.930 1_554 S
H780 C765 0.929 1_565 S
H781 C766 0.930 1_565 S
H782 C787 0.930 . S
H783 C762 0.930 . S
H784 C795 0.931 . S
N785 Tb756 2.617 . S
N785 C786 1.379 . S
N785 C789 1.334 . S
C786 N785 1.379 . S
C786 C788 1.416 . S
C786 C794 1.424 . S
C787 H782 0.930 . S
C787 C789 1.390 . S
C787 C790 1.339 . S
C788 C786 1.416 . S
C788 C790 1.416 . S
C788 C821 1.448 . S
C789 H774 0.930 . S
C789 N785 1.334 . S
C789 C787 1.390 . S
C790 C787 1.339 . S
C790 C788 1.416 . S
C790 H797 0.930 . S
N791 Tb756 2.572 . S
N791 C792 1.340 . S
N791 C794 1.361 . S
C792 H778 0.930 . S
C792 N791 1.340 . S
C792 C796 1.407 . S
C793 C794 1.413 . S
C793 C795 1.416 . S
C793 C822 1.427 . S
C794 C786 1.424 . S
C794 N791 1.361 . S
C794 C793 1.413 . S
C795 H784 0.931 . S
C795 C793 1.416 . S
C795 C796 1.332 . S
C796 H775 0.929 . S
C796 C792 1.407 . S
C796 C795 1.332 . S
H797 C790 0.930 . S
H798 C821 0.930 . S
H799 C822 0.929 . S
O800 Tb756 2.465 . S
O800 C820 1.264 . S
O801 Tb756 2.387 . S
O801 C812 1.264 . S
O802 Tb767 2.349 . S
O802 C812 1.243 . S
O803 Tb756 2.428 . S
O803 C820 1.256 . S
O804 Tb756 2.308 . S
O804 C819 1.266 . S
O805 Tb767 2.393 . S
O805 C819 1.248 . S
O806 Tb767 2.465 . S
O806 C831 1.264 . S
O807 Tb767 2.387 . S
O807 C823 1.264 . S
O808 Tb756 2.349 . S
O808 C823 1.243 . S
O809 Tb767 2.428 . S
O809 C831 1.256 . S
O810 Tb767 2.308 . S
O810 C830 1.266 . S
O811 Tb756 2.393 . S
O811 C830 1.248 . S
C812 O801 1.264 . S
C812 O802 1.243 . S
C813 C816 1.399 . S
C813 C818 1.383 . S
C813 C820 1.496 . S
C814 C815 1.399 . S
C814 C818 1.389 . S
C815 C814 1.399 . S
C815 C817 1.380 . S
C815 H832 0.929 . S
C816 C813 1.399 . S
C816 C817 1.392 . S
C816 H833 0.929 . S
C817 C815 1.380 . S
C817 C816 1.392 . S
C817 H834 0.929 . S
C818 C813 1.383 . S
C818 C814 1.389 . S
C818 H835 0.931 . S
C819 O804 1.266 . S
C819 O805 1.248 . S
C820 Tb756 2.802 . S
C820 O800 1.264 . S
C820 O803 1.256 . S
C820 C813 1.496 . S
C821 C788 1.448 . S
C821 H798 0.930 . S
C821 C822 1.328 . S
C822 C793 1.427 . S
C822 H799 0.929 . S
C822 C821 1.328 . S
C823 O807 1.264 . S
C823 O808 1.243 . S
C824 C827 1.399 . S
C824 C828 1.383 . S
C824 C831 1.496 . S
C825 C826 1.399 . S
C825 C828 1.389 . S
C826 C825 1.399 . S
C826 C829 1.380 . S
C826 H836 0.929 . S
C827 C824 1.399 . S
C827 C829 1.392 . S
C827 H837 0.929 . S
C828 C824 1.383 . S
C828 C825 1.389 . S
C828 H838 0.931 . S
C829 C826 1.380 . S
C829 C827 1.392 . S
C829 H839 0.929 . S
C830 O810 1.266 . S
C830 O811 1.248 . S
C831 Tb767 2.802 . S
C831 O806 1.264 . S
C831 O809 1.256 . S
C831 C824 1.496 . S
H832 C815 0.929 . S
H833 C816 0.929 . S
H834 C817 0.929 . S
H835 C818 0.931 . S
H836 C826 0.929 . S
H837 C827 0.929 . S
H838 C828 0.931 . S
H839 C829 0.929 . S
Tb840 N869 2.617 . S
Tb840 N875 2.572 . S
Tb840 O884 2.465 . S
Tb840 O885 2.387 . S
Tb840 O887 2.428 . S
Tb840 O888 2.308 . S
Tb840 O892 2.349 . S
Tb840 O895 2.393 . S
Tb840 C904 2.802 . S
C841 N842 1.379 . S
C841 C844 1.416 . S
C841 C848 1.424 . S
N842 C841 1.379 . S
N842 C845 1.334 . S
N842 Tb851 2.617 . S
C843 C845 1.390 . S
C843 C846 1.339 . S
C843 H863 0.930 . S
C844 C841 1.416 . S
C844 C846 1.416 . S
C844 C850 1.448 . S
C845 N842 1.334 . S
C845 C843 1.390 . S
C845 H856 0.930 . S
C846 C843 1.339 . S
C846 C844 1.416 . S
C846 H867 0.930 . S
C847 C848 1.413 . S
C847 C849 1.427 . S
C847 C853 1.416 . S
C848 C841 1.424 . S
C848 C847 1.413 . S
C848 N852 1.361 . S
C849 C847 1.427 . S
C849 C850 1.328 . S
C849 H864 0.929 . S
C850 C844 1.448 . S
C850 C849 1.328 . S
C850 H865 0.930 . S
Tb851 N842 2.617 . S
Tb851 N852 2.572 . S
Tb851 O886 2.349 . S
Tb851 O889 2.393 . S
Tb851 O890 2.465 . S
Tb851 O891 2.387 . S
Tb851 O893 2.428 . S
Tb851 O894 2.308 . S
Tb851 C915 2.802 . S
N852 C848 1.361 . S
N852 Tb851 2.572 . S
N852 C854 1.340 . S
C853 C847 1.416 . S
C853 C855 1.332 . S
C853 H861 0.931 . S
C854 N852 1.340 . S
C854 C855 1.407 . S
C854 H860 0.930 . S
C855 C853 1.332 . S
C855 C854 1.407 . S
C855 H857 0.929 . S
H856 C845 0.930 . S
H857 C855 0.929 . S
H858 C873 0.930 . S
H859 C880 0.923 1_655 S
H860 C854 0.930 . S
H861 C853 0.931 . S
H862 C876 0.930 . S
H863 C843 0.930 . S
H864 C849 0.929 . S
H865 C850 0.930 . S
H866 C871 0.930 . S
H867 C846 0.930 . S
H868 C879 0.931 . S
N869 Tb840 2.617 . S
N869 C870 1.379 . S
N869 C873 1.334 . S
C870 N869 1.379 . S
C870 C872 1.416 . S
C870 C878 1.424 . S
C871 H866 0.930 . S
C871 C873 1.390 . S
C871 C874 1.339 . S
C872 C870 1.416 . S
C872 C874 1.416 . S
C872 C905 1.448 . S
C873 H858 0.930 . S
C873 N869 1.334 . S
C873 C871 1.390 . S
C874 C871 1.339 . S
C874 C872 1.416 . S
C874 H881 0.930 . S
N875 Tb840 2.572 . S
N875 C876 1.340 . S
N875 C878 1.361 . S
C876 H862 0.930 . S
C876 N875 1.340 . S
C876 C880 1.426 . S
C877 C878 1.413 . S
C877 C879 1.416 1_455 S
C877 C906 1.427 1_455 S
C878 C870 1.424 . S
C878 N875 1.361 . S
C878 C877 1.413 . S
C879 H868 0.931 . S
C879 C877 1.416 1_655 S
C879 C880 1.321 1_655 S
C880 H859 0.923 1_455 S
C880 C876 1.426 . S
C880 C879 1.321 1_455 S
H881 C874 0.930 . S
H882 C905 0.930 1_655 S
H883 C906 0.929 . S
O884 Tb840 2.465 . S
O884 C904 1.264 . S
O885 Tb840 2.387 . S
O885 C896 1.264 . S
O886 Tb851 2.349 . S
O886 C896 1.243 . S
O887 Tb840 2.428 . S
O887 C904 1.256 . S
O888 Tb840 2.308 . S
O888 C903 1.266 . S
O889 Tb851 2.393 . S
O889 C903 1.248 . S
O890 Tb851 2.465 . S
O890 C915 1.264 . S
O891 Tb851 2.387 . S
O891 C907 1.264 . S
O892 Tb840 2.349 . S
O892 C907 1.243 . S
O893 Tb851 2.428 . S
O893 C915 1.256 . S
O894 Tb851 2.308 . S
O894 C914 1.266 . S
O895 Tb840 2.393 . S
O895 C914 1.248 . S
C896 O885 1.264 . S
C896 O886 1.243 . S
C897 C900 1.399 . S
C897 C902 1.383 . S
C897 C904 1.496 1_655 S
C898 C899 1.399 . S
C898 C902 1.389 . S
C899 C898 1.399 . S
C899 C901 1.380 . S
C899 H916 0.929 . S
C900 C897 1.399 . S
C900 C901 1.392 . S
C900 H917 0.929 . S
C901 C899 1.380 . S
C901 C900 1.392 . S
C901 H918 0.929 . S
C902 C897 1.383 . S
C902 C898 1.389 . S
C902 H919 0.931 . S
C903 O888 1.266 . S
C903 O889 1.248 . S
C904 Tb840 2.802 . S
C904 O884 1.264 . S
C904 O887 1.256 . S
C904 C897 1.496 1_455 S
C905 C872 1.448 . S
C905 H882 0.930 1_455 S
C905 C906 1.328 1_455 S
C906 C877 1.427 1_655 S
C906 H883 0.929 . S
C906 C905 1.328 1_655 S
C907 O891 1.264 . S
C907 O892 1.243 . S
C908 C911 1.399 . S
C908 C912 1.383 . S
C908 C915 1.496 . S
C909 C910 1.399 . S
C909 C912 1.389 . S
C910 C909 1.399 . S
C910 C913 1.380 . S
C910 H920 0.929 . S
C911 C908 1.399 . S
C911 C913 1.392 . S
C911 H921 0.929 . S
C912 C908 1.383 . S
C912 C909 1.389 . S
C912 H922 0.931 . S
C913 C910 1.380 . S
C913 C911 1.392 . S
C913 H923 0.929 . S
C914 O894 1.266 . S
C914 O895 1.248 . S
C915 Tb851 2.802 . S
C915 O890 1.264 . S
C915 O893 1.256 . S
C915 C908 1.496 . S
H916 C899 0.929 . S
H917 C900 0.929 . S
H918 C901 0.929 . S
H919 C902 0.931 . S
H920 C910 0.929 . S
H921 C911 0.929 . S
H922 C912 0.931 . S
H923 C913 0.929 . S
Tb924 N953 2.617 . S
Tb924 N959 2.572 . S
Tb924 O968 2.465 . S
Tb924 O969 2.387 . S
Tb924 O971 2.428 . S
Tb924 O972 2.308 . S
Tb924 O976 2.349 . S
Tb924 O979 2.393 . S
Tb924 C988 2.802 . S
C925 N926 1.379 . S
C925 C928 1.416 . S
C925 C932 1.424 . S
N926 C925 1.379 . S
N926 C929 1.334 . S
N926 Tb935 2.617 . S
C927 C929 1.390 . S
C927 C930 1.339 . S
C927 H947 0.930 1_556 S
C928 C925 1.416 . S
C928 C930 1.416 . S
C928 C934 1.448 . S
C929 N926 1.334 . S
C929 C927 1.390 . S
C929 H940 0.930 . S
C930 C927 1.339 . S
C930 C928 1.416 . S
C930 H951 0.930 . S
C931 C932 1.413 . S
C931 C933 1.427 . S
C931 C937 1.416 . S
C932 C925 1.424 . S
C932 C931 1.413 . S
C932 N936 1.361 . S
C933 C931 1.427 . S
C933 C934 1.328 . S
C933 H948 0.929 1_655 S
C934 C928 1.448 . S
C934 C933 1.328 . S
C934 H949 0.930 1_655 S
Tb935 N926 2.617 . S
Tb935 N936 2.572 . S
Tb935 O970 2.349 . S
Tb935 O973 2.393 . S
Tb935 O974 2.465 . S
Tb935 O975 2.387 . S
Tb935 O977 2.428 . S
Tb935 O978 2.308 . S
Tb935 C999 2.802 . S
N936 C932 1.361 . S
N936 Tb935 2.572 . S
N936 C938 1.340 . S
C937 C931 1.416 . S
C937 C939 1.332 . S
C937 H945 0.931 1_655 S
C938 N936 1.340 . S
C938 C939 1.407 . S
C938 H944 0.930 . S
C939 C937 1.332 . S
C939 C938 1.407 . S
C939 H941 0.929 . S
H940 C929 0.930 . S
H941 C939 0.929 . S
H942 C957 0.930 . S
H943 C964 0.926 1_565 S
H944 C938 0.930 . S
H945 C937 0.931 1_455 S
H946 C960 0.930 . S
H947 C927 0.930 1_554 S
H948 C933 0.929 1_455 S
H949 C934 0.930 1_455 S
H950 C955 0.930 . S
H951 C930 0.930 . S
H952 C963 0.931 . S
N953 Tb924 2.617 . S
N953 C954 1.379 . S
N953 C957 1.334 . S
C954 N953 1.379 . S
C954 C956 1.416 . S
C954 C962 1.424 . S
C955 H950 0.930 . S
C955 C957 1.390 . S
C955 C958 1.339 . S
C956 C954 1.416 . S
C956 C958 1.416 . S
C956 C989 1.448 . S
C957 H942 0.930 . S
C957 N953 1.334 . S
C957 C955 1.390 . S
C958 C955 1.339 . S
C958 C956 1.416 . S
C958 H965 0.930 . S
N959 Tb924 2.572 . S
N959 C960 1.340 . S
N959 C962 1.361 . S
C960 H946 0.930 . S
C960 N959 1.340 . S
C960 C964 1.410 . S
C961 C962 1.413 . S
C961 C963 1.416 1_545 S
C961 C990 1.427 1_545 S
C962 C954 1.424 . S
C962 N959 1.361 . S
C962 C961 1.413 . S
C963 H952 0.931 . S
C963 C961 1.416 1_565 S
C963 C964 1.333 1_565 S
C964 H943 0.926 1_545 S
C964 C960 1.410 . S
C964 C963 1.333 1_545 S
H965 C958 0.930 . S
H966 C989 0.930 1_565 S
H967 C990 0.929 . S
O968 Tb924 2.465 . S
O968 C988 1.264 . S
O969 Tb924 2.387 . S
O969 C980 1.264 . S
O970 Tb935 2.349 . S
O970 C980 1.243 . S
O971 Tb924 2.428 . S
O971 C988 1.256 . S
O972 Tb924 2.308 . S
O972 C987 1.266 . S
O973 Tb935 2.393 . S
O973 C987 1.248 . S
O974 Tb935 2.465 . S
O974 C999 1.264 . S
O975 Tb935 2.387 . S
O975 C991 1.264 . S
O976 Tb924 2.349 . S
O976 C991 1.243 . S
O977 Tb935 2.428 . S
O977 C999 1.256 . S
O978 Tb935 2.308 . S
O978 C998 1.266 . S
O979 Tb924 2.393 . S
O979 C998 1.248 . S
C980 O969 1.264 . S
C980 O970 1.243 . S
C981 C984 1.399 . S
C981 C986 1.383 . S
C981 C988 1.496 1_565 S
C982 C983 1.399 . S
C982 C986 1.389 . S
C983 C982 1.399 . S
C983 C985 1.380 . S
C983 H1000 0.929 . S
C984 C981 1.399 . S
C984 C985 1.392 . S
C984 H1001 0.929 . S
C985 C983 1.380 . S
C985 C984 1.392 . S
C985 H1002 0.929 . S
C986 C981 1.383 . S
C986 C982 1.389 . S
C986 H1003 0.931 . S
C987 O972 1.266 . S
C987 O973 1.248 . S
C988 Tb924 2.802 . S
C988 O968 1.264 . S
C988 O971 1.256 . S
C988 C981 1.496 1_545 S
C989 C956 1.448 . S
C989 H966 0.930 1_545 S
C989 C990 1.328 1_545 S
C990 C961 1.427 1_565 S
C990 H967 0.929 . S
C990 C989 1.328 1_565 S
C991 O975 1.264 . S
C991 O976 1.243 . S
C992 C995 1.399 . S
C992 C996 1.383 . S
C992 C999 1.496 . S
C993 C994 1.399 . S
C993 C996 1.389 . S
C994 C993 1.399 . S
C994 C997 1.380 . S
C994 H1004 0.929 . S
C995 C992 1.399 . S
C995 C997 1.392 . S
C995 H1005 0.929 . S
C996 C992 1.383 . S
C996 C993 1.389 . S
C996 H1006 0.931 . S
C997 C994 1.380 . S
C997 C995 1.392 . S
C997 H1007 0.929 . S
C998 O978 1.266 . S
C998 O979 1.248 . S
C999 Tb935 2.802 . S
C999 O974 1.264 . S
C999 O977 1.256 . S
C999 C992 1.496 . S
H1000 C983 0.929 . S
H1001 C984 0.929 . S
H1002 C985 0.929 . S
H1003 C986 0.931 . S
H1004 C994 0.929 . S
H1005 C995 0.929 . S
H1006 C996 0.931 . S
H1007 C997 0.929 . S
H1008 C1016 0.950 . S
H1009 C1021 0.950 . S
H1010 C1018 0.950 1_545 S
H1011 C1020 0.950 . S
H1012 C1022 0.950 . S
H1013 C1024 0.950 . S
H1014 C1026 0.950 . S
H1015 C1027 0.950 . S
C1016 H1008 0.950 . S
C1016 C1017 1.386 . S
C1016 C1018 1.391 . S
C1017 C1016 1.386 . S
C1017 C1021 1.393 . S
C1018 H1010 0.950 1_565 S
C1018 C1016 1.391 . S
C1018 C1019 1.400 . S
C1019 C1018 1.400 . S
C1019 C1020 1.398 . S
C1019 C1025 1.491 1_565 S
C1020 H1011 0.950 . S
C1020 C1019 1.398 . S
C1020 C1021 1.391 . S
C1021 H1009 0.950 . S
C1021 C1017 1.393 . S
C1021 C1020 1.391 . S
C1022 H1012 0.950 . S
C1022 C1023 1.386 . S
C1022 C1024 1.391 . S
C1023 C1022 1.386 . S
C1023 C1027 1.393 . S
C1024 H1013 0.950 . S
C1024 C1022 1.391 . S
C1024 C1025 1.400 . S
C1025 C1019 1.491 1_545 S
C1025 C1024 1.400 . S
C1025 C1026 1.398 . S
C1026 H1014 0.950 . S
C1026 C1025 1.398 . S
C1026 C1027 1.391 . S
C1027 H1015 0.950 . S
C1027 C1023 1.393 . S
C1027 C1026 1.391 . S
H1028 C1036 0.950 . S
H1029 C1041 0.950 . S
H1030 C1038 0.950 . S
H1031 C1040 0.950 . S
H1032 C1042 0.950 . S
H1033 C1044 0.950 . S
H1034 C1046 0.950 . S
H1035 C1047 0.950 . S
C1036 H1028 0.950 . S
C1036 C1037 1.386 . S
C1036 C1038 1.391 . S
C1037 C1036 1.386 . S
C1037 C1041 1.393 . S
C1038 H1030 0.950 . S
C1038 C1036 1.391 . S
C1038 C1039 1.400 . S
C1039 C1038 1.400 . S
C1039 C1040 1.398 . S
C1039 C1045 1.491 . S
C1040 H1031 0.950 . S
C1040 C1039 1.398 . S
C1040 C1041 1.391 . S
C1041 H1029 0.950 . S
C1041 C1037 1.393 . S
C1041 C1040 1.391 . S
C1042 H1032 0.950 . S
C1042 C1043 1.386 . S
C1042 C1044 1.391 . S
C1043 C1042 1.386 . S
C1043 C1047 1.393 . S
C1044 H1033 0.950 . S
C1044 C1042 1.391 . S
C1044 C1045 1.400 . S
C1045 C1039 1.491 . S
C1045 C1044 1.400 . S
C1045 C1046 1.398 . S
C1046 H1034 0.950 . S
C1046 C1045 1.398 . S
C1046 C1047 1.391 . S
C1047 H1035 0.950 . S
C1047 C1043 1.393 . S
C1047 C1046 1.391 . S
H1048 C1056 0.950 . S
H1049 C1061 0.950 . S
H1050 C1058 0.950 . S
H1051 C1060 0.950 . S
H1052 C1062 0.950 . S
H1053 C1064 0.950 . S
H1054 C1066 0.950 . S
H1055 C1067 0.950 . S
C1056 H1048 0.950 . S
C1056 C1057 1.386 . S
C1056 C1058 1.391 . S
C1057 C1056 1.386 . S
C1057 C1061 1.393 . S
C1058 H1050 0.950 . S
C1058 C1056 1.391 . S
C1058 C1059 1.400 . S
C1059 C1058 1.400 . S
C1059 C1060 1.398 . S
C1059 C1065 1.491 1_655 S
C1060 H1051 0.950 . S
C1060 C1059 1.398 . S
C1060 C1061 1.391 . S
C1061 H1049 0.950 . S
C1061 C1057 1.393 . S
C1061 C1060 1.391 . S
C1062 H1052 0.950 . S
C1062 C1063 1.386 . S
C1062 C1064 1.391 . S
C1063 C1062 1.386 . S
C1063 C1067 1.393 . S
C1064 H1053 0.950 . S
C1064 C1062 1.391 . S
C1064 C1065 1.400 . S
C1065 C1059 1.491 1_455 S
C1065 C1064 1.400 . S
C1065 C1066 1.398 . S
C1066 H1054 0.950 . S
C1066 C1065 1.398 . S
C1066 C1067 1.391 . S
C1067 H1055 0.950 . S
C1067 C1063 1.393 . S
C1067 C1066 1.391 . S
H1068 C1076 0.950 . S
H1069 C1081 0.950 . S
H1070 C1078 0.950 . S
H1071 C1080 0.950 . S
H1072 C1082 0.950 . S
H1073 C1084 0.950 . S
H1074 C1086 0.950 . S
H1075 C1087 0.950 . S
C1076 H1068 0.950 . S
C1076 C1077 1.386 . S
C1076 C1078 1.391 . S
C1077 C1076 1.386 . S
C1077 C1081 1.393 . S
C1078 H1070 0.950 . S
C1078 C1076 1.391 . S
C1078 C1079 1.400 . S
C1079 C1078 1.400 . S
C1079 C1080 1.398 . S
C1079 C1085 1.491 1_565 S
C1080 H1071 0.950 . S
C1080 C1079 1.398 . S
C1080 C1081 1.391 . S
C1081 H1069 0.950 . S
C1081 C1077 1.393 . S
C1081 C1080 1.391 . S
C1082 H1072 0.950 . S
C1082 C1083 1.386 . S
C1082 C1084 1.391 . S
C1083 C1082 1.386 . S
C1083 C1087 1.393 . S
C1084 H1073 0.950 . S
C1084 C1082 1.391 . S
C1084 C1085 1.400 . S
C1085 C1079 1.491 1_545 S
C1085 C1084 1.400 . S
C1085 C1086 1.398 . S
C1086 H1074 0.950 . S
C1086 C1085 1.398 . S
C1086 C1087 1.391 . S
C1087 H1075 0.950 . S
C1087 C1083 1.393 . S
C1087 C1086 1.391 . S
H1088 C1096 0.950 . S
H1089 C1101 0.950 . S
H1090 C1098 0.950 . S
H1091 C1100 0.950 . S
H1092 C1102 0.950 . S
H1093 C1104 0.950 . S
H1094 C1106 0.950 . S
H1095 C1107 0.950 . S
C1096 H1088 0.950 . S
C1096 C1097 1.386 . S
C1096 C1098 1.391 . S
C1097 C1096 1.386 . S
C1097 C1101 1.393 . S
C1098 H1090 0.950 . S
C1098 C1096 1.391 . S
C1098 C1099 1.400 . S
C1099 C1098 1.400 . S
C1099 C1100 1.398 . S
C1099 C1105 1.491 . S
C1100 H1091 0.950 . S
C1100 C1099 1.398 . S
C1100 C1101 1.391 . S
C1101 H1089 0.950 . S
C1101 C1097 1.393 . S
C1101 C1100 1.391 . S
C1102 H1092 0.950 . S
C1102 C1103 1.386 . S
C1102 C1104 1.391 . S
C1103 C1102 1.386 . S
C1103 C1107 1.393 . S
C1104 H1093 0.950 . S
C1104 C1102 1.391 . S
C1104 C1105 1.400 . S
C1105 C1099 1.491 . S
C1105 C1104 1.400 . S
C1105 C1106 1.398 . S
C1106 H1094 0.950 . S
C1106 C1105 1.398 . S
C1106 C1107 1.391 . S
C1107 H1095 0.950 . S
C1107 C1103 1.393 . S
C1107 C1106 1.391 . S
H1108 C1116 0.950 . S
H1109 C1121 0.950 . S
H1110 C1118 0.950 . S
H1111 C1120 0.950 . S
H1112 C1122 0.950 . S
H1113 C1124 0.950 . S
H1114 C1126 0.950 . S
H1115 C1127 0.950 . S
C1116 H1108 0.950 . S
C1116 C1117 1.386 . S
C1116 C1118 1.391 . S
C1117 C1116 1.386 . S
C1117 C1121 1.393 . S
C1118 H1110 0.950 . S
C1118 C1116 1.391 . S
C1118 C1119 1.400 . S
C1119 C1118 1.400 . S
C1119 C1120 1.398 . S
C1119 C1125 1.491 1_655 S
C1120 H1111 0.950 . S
C1120 C1119 1.398 . S
C1120 C1121 1.391 . S
C1121 H1109 0.950 . S
C1121 C1117 1.393 . S
C1121 C1120 1.391 . S
C1122 H1112 0.950 . S
C1122 C1123 1.386 . S
C1122 C1124 1.391 . S
C1123 C1122 1.386 . S
C1123 C1127 1.393 . S
C1124 H1113 0.950 . S
C1124 C1122 1.391 . S
C1124 C1125 1.400 . S
C1125 C1119 1.491 1_455 S
C1125 C1124 1.400 . S
C1125 C1126 1.398 . S
C1126 H1114 0.950 . S
C1126 C1125 1.398 . S
C1126 C1127 1.391 . S
C1127 H1115 0.950 . S
C1127 C1123 1.393 . S
C1127 C1126 1.391 . S
H1128 C1136 0.950 . S
H1129 C1141 0.950 . S
H1130 C1138 0.950 . S
H1131 C1140 0.950 1_655 S
H1132 C1142 0.950 . S
H1133 C1144 0.950 . S
H1134 C1146 0.950 . S
H1135 C1147 0.950 . S
C1136 H1128 0.950 . S
C1136 C1137 1.386 . S
C1136 C1138 1.391 . S
C1137 C1136 1.386 . S
C1137 C1141 1.393 . S
C1138 H1130 0.950 . S
C1138 C1136 1.391 . S
C1138 C1139 1.400 . S
C1139 C1138 1.400 . S
C1139 C1140 1.398 . S
C1139 C1145 1.491 1_455 S
C1140 H1131 0.950 1_455 S
C1140 C1139 1.398 . S
C1140 C1141 1.391 . S
C1141 H1129 0.950 . S
C1141 C1137 1.393 . S
C1141 C1140 1.391 . S
C1142 H1132 0.950 . S
C1142 C1143 1.386 . S
C1142 C1144 1.391 . S
C1143 C1142 1.386 . S
C1143 C1147 1.393 . S
C1144 H1133 0.950 . S
C1144 C1142 1.391 . S
C1144 C1145 1.400 . S
C1145 C1139 1.491 1_655 S
C1145 C1144 1.400 . S
C1145 C1146 1.398 . S
C1146 H1134 0.950 . S
C1146 C1145 1.398 . S
C1146 C1147 1.391 . S
C1147 H1135 0.950 . S
C1147 C1143 1.393 . S
C1147 C1146 1.391 . S
H1148 C1156 0.950 . S
H1149 C1161 0.950 . S
H1150 C1158 0.950 . S
H1151 C1160 0.950 . S
H1152 C1162 0.950 . S
H1153 C1164 0.919 1_565 S
H1154 C1166 0.950 . S
H1155 C1167 0.950 . S
C1156 H1148 0.950 . S
C1156 C1157 1.386 . S
C1156 C1158 1.391 . S
C1157 C1156 1.386 . S
C1157 C1161 1.393 . S
C1158 H1150 0.950 . S
C1158 C1156 1.391 . S
C1158 C1159 1.400 . S
C1159 C1158 1.400 . S
C1159 C1160 1.398 . S
C1159 C1165 1.491 1_565 S
C1160 H1151 0.950 . S
C1160 C1159 1.398 . S
C1160 C1161 1.391 . S
C1161 H1149 0.950 . S
C1161 C1157 1.393 . S
C1161 C1160 1.391 . S
C1162 H1152 0.950 . S
C1162 C1163 1.386 . S
C1162 C1164 1.391 . S
C1163 C1162 1.386 . S
C1163 C1167 1.393 . S
C1164 H1153 0.919 1_545 S
C1164 C1162 1.391 . S
C1164 C1165 1.400 . S
C1165 C1159 1.491 1_545 S
C1165 C1164 1.400 . S
C1165 C1166 1.398 . S
C1166 H1154 0.950 . S
C1166 C1165 1.398 . S
C1166 C1167 1.391 . S
C1167 H1155 0.950 . S
C1167 C1163 1.393 . S
C1167 C1166 1.391 . S
H1168 C1176 0.950 . S
H1169 C1181 0.950 . S
H1170 C1178 0.950 . S
H1171 C1180 0.950 . S
H1172 C1182 0.950 . S
H1173 C1184 0.950 . S
H1174 C1186 0.950 . S
H1175 C1187 0.950 . S
C1176 H1168 0.950 . S
C1176 C1177 1.386 . S
C1176 C1178 1.391 . S
C1177 C1176 1.386 . S
C1177 C1181 1.393 . S
C1178 H1170 0.950 . S
C1178 C1176 1.391 . S
C1178 C1179 1.400 . S
C1179 C1178 1.400 . S
C1179 C1180 1.398 . S
C1179 C1185 1.491 . S
C1180 H1171 0.950 . S
C1180 C1179 1.398 . S
C1180 C1181 1.391 . S
C1181 H1169 0.950 . S
C1181 C1177 1.393 . S
C1181 C1180 1.391 . S
C1182 H1172 0.950 . S
C1182 C1183 1.386 . S
C1182 C1184 1.391 . S
C1183 C1182 1.386 . S
C1183 C1187 1.393 . S
C1184 H1173 0.950 . S
C1184 C1182 1.391 . S
C1184 C1185 1.400 . S
C1185 C1179 1.491 . S
C1185 C1184 1.400 . S
C1185 C1186 1.398 . S
C1186 H1174 0.950 . S
C1186 C1185 1.398 . S
C1186 C1187 1.391 . S
C1187 H1175 0.950 . S
C1187 C1183 1.393 . S
C1187 C1186 1.391 . S
H1188 C1196 0.950 . S
H1189 C1201 0.950 . S
H1190 C1198 0.950 . S
H1191 C1200 0.950 . S
H1192 C1202 0.950 . S
H1193 C1204 0.950 . S
H1194 C1206 0.950 . S
H1195 C1207 0.950 . S
C1196 H1188 0.950 . S
C1196 C1197 1.386 . S
C1196 C1198 1.391 . S
C1197 C1196 1.386 . S
C1197 C1201 1.393 . S
C1198 H1190 0.950 . S
C1198 C1196 1.391 . S
C1198 C1199 1.400 . S
C1199 C1198 1.400 . S
C1199 C1200 1.398 . S
C1199 C1205 1.491 1_455 S
C1200 H1191 0.950 . S
C1200 C1199 1.398 . S
C1200 C1201 1.391 . S
C1201 H1189 0.950 . S
C1201 C1197 1.393 . S
C1201 C1200 1.391 . S
C1202 H1192 0.950 . S
C1202 C1203 1.386 . S
C1202 C1204 1.391 . S
C1203 C1202 1.386 . S
C1203 C1207 1.393 . S
C1204 H1193 0.950 . S
C1204 C1202 1.391 . S
C1204 C1205 1.400 . S
C1205 C1199 1.491 1_655 S
C1205 C1204 1.400 . S
C1205 C1206 1.398 . S
C1206 H1194 0.950 . S
C1206 C1205 1.398 . S
C1206 C1207 1.391 . S
C1207 H1195 0.950 . S
C1207 C1203 1.393 . S
C1207 C1206 1.391 . S
H1208 C1216 0.950 . S
H1209 C1221 0.950 . S
H1210 C1218 0.950 . S
H1211 C1220 0.950 . S
H1212 C1222 0.950 . S
H1213 C1224 0.950 . S
H1214 C1226 0.959 . S
H1215 C1227 0.950 . S
C1216 H1208 0.950 . S
C1216 C1217 1.386 . S
C1216 C1218 1.391 . S
C1217 C1216 1.386 . S
C1217 C1221 1.393 . S
C1218 H1210 0.950 . S
C1218 C1216 1.391 . S
C1218 C1219 1.400 . S
C1219 C1218 1.400 . S
C1219 C1220 1.398 . S
C1219 C1225 1.491 1_545 S
C1220 H1211 0.950 . S
C1220 C1219 1.398 . S
C1220 C1221 1.391 . S
C1221 H1209 0.950 . S
C1221 C1217 1.393 . S
C1221 C1220 1.391 . S
C1222 H1212 0.950 . S
C1222 C1223 1.386 . S
C1222 C1224 1.391 . S
C1223 C1222 1.386 . S
C1223 C1227 1.393 . S
C1224 H1213 0.950 . S
C1224 C1222 1.391 . S
C1224 C1225 1.400 . S
C1225 C1219 1.491 1_565 S
C1225 C1224 1.400 . S
C1225 C1226 1.398 . S
C1226 H1214 0.959 . S
C1226 C1225 1.398 . S
C1226 C1227 1.391 . S
C1227 H1215 0.950 . S
C1227 C1223 1.393 . S
C1227 C1226 1.391 . S
H1228 C1236 0.950 . S
H1229 C1241 0.950 . S
H1230 C1238 0.950 . S
H1231 C1240 0.950 . S
H1232 C1242 0.950 . S
H1233 C1244 0.950 . S
H1234 C1246 0.950 . S
H1235 C1247 0.950 . S
C1236 H1228 0.950 . S
C1236 C1237 1.386 . S
C1236 C1238 1.391 . S
C1237 C1236 1.386 . S
C1237 C1241 1.393 . S
C1238 H1230 0.950 . S
C1238 C1236 1.391 . S
C1238 C1239 1.400 . S
C1239 C1238 1.400 . S
C1239 C1240 1.398 . S
C1239 C1245 1.491 . S
C1240 H1231 0.950 . S
C1240 C1239 1.398 . S
C1240 C1241 1.391 . S
C1241 H1229 0.950 . S
C1241 C1237 1.393 . S
C1241 C1240 1.391 . S
C1242 H1232 0.950 . S
C1242 C1243 1.386 . S
C1242 C1244 1.391 . S
C1243 C1242 1.386 . S
C1243 C1247 1.393 . S
C1244 H1233 0.950 . S
C1244 C1242 1.391 . S
C1244 C1245 1.400 . S
C1245 C1239 1.491 . S
C1245 C1244 1.400 . S
C1245 C1246 1.398 . S
C1246 H1234 0.950 . S
C1246 C1245 1.398 . S
C1246 C1247 1.391 . S
C1247 H1235 0.950 . S
C1247 C1243 1.393 . S
C1247 C1246 1.391 . S
H1248 C1256 0.950 . S
H1249 C1261 0.950 . S
H1250 C1258 0.950 . S
H1251 C1260 0.950 . S
H1252 C1262 0.950 . S
H1253 C1264 0.950 . S
H1254 C1266 0.950 . S
H1255 C1267 0.950 . S
C1256 H1248 0.950 . S
C1256 C1257 1.386 . S
C1256 C1258 1.391 . S
C1257 C1256 1.386 . S
C1257 C1261 1.393 . S
C1258 H1250 0.950 . S
C1258 C1256 1.391 . S
C1258 C1259 1.400 . S
C1259 C1258 1.400 . S
C1259 C1260 1.398 . S
C1259 C1265 1.491 . S
C1260 H1251 0.950 . S
C1260 C1259 1.398 . S
C1260 C1261 1.391 . S
C1261 H1249 0.950 . S
C1261 C1257 1.393 . S
C1261 C1260 1.391 . S
C1262 H1252 0.950 . S
C1262 C1263 1.386 . S
C1262 C1264 1.391 . S
C1263 C1262 1.386 . S
C1263 C1267 1.393 . S
C1264 H1253 0.950 . S
C1264 C1262 1.391 . S
C1264 C1265 1.400 . S
C1265 C1259 1.491 . S
C1265 C1264 1.400 . S
C1265 C1266 1.398 . S
C1266 H1254 0.950 . S
C1266 C1265 1.398 . S
C1266 C1267 1.391 . S
C1267 H1255 0.950 . S
C1267 C1263 1.393 . S
C1267 C1266 1.391 . S
H1268 C1276 0.950 . S
H1269 C1281 0.950 . S
H1270 C1278 0.950 . S
H1271 C1280 0.950 . S
H1272 C1282 0.950 . S
H1273 C1284 0.950 . S
H1274 C1286 0.950 . S
H1275 C1287 0.950 . S
C1276 H1268 0.950 . S
C1276 C1277 1.386 . S
C1276 C1278 1.391 . S
C1277 C1276 1.386 . S
C1277 C1281 1.393 . S
C1278 H1270 0.950 . S
C1278 C1276 1.391 . S
C1278 C1279 1.400 . S
C1279 C1278 1.400 . S
C1279 C1280 1.398 . S
C1279 C1285 1.491 . S
C1280 H1271 0.950 . S
C1280 C1279 1.398 . S
C1280 C1281 1.391 . S
C1281 H1269 0.950 . S
C1281 C1277 1.393 . S
C1281 C1280 1.391 . S
C1282 H1272 0.950 . S
C1282 C1283 1.386 . S
C1282 C1284 1.391 . S
C1283 C1282 1.386 . S
C1283 C1287 1.393 . S
C1284 H1273 0.950 . S
C1284 C1282 1.391 . S
C1284 C1285 1.400 . S
C1285 C1279 1.491 . S
C1285 C1284 1.400 . S
C1285 C1286 1.398 . S
C1286 H1274 0.950 . S
C1286 C1285 1.398 . S
C1286 C1287 1.391 . S
C1287 H1275 0.950 . S
C1287 C1283 1.393 . S
C1287 C1286 1.391 . S
H1288 C1296 0.950 . S
H1289 C1301 0.950 . S
H1290 C1298 0.950 . S
H1291 C1300 0.950 . S
H1292 C1302 0.950 . S
H1293 C1304 0.950 . S
H1294 C1306 0.950 . S
H1295 C1307 0.950 . S
C1296 H1288 0.950 . S
C1296 C1297 1.386 . S
C1296 C1298 1.391 . S
C1297 C1296 1.386 . S
C1297 C1301 1.393 . S
C1298 H1290 0.950 . S
C1298 C1296 1.391 . S
C1298 C1299 1.400 . S
C1299 C1298 1.400 . S
C1299 C1300 1.398 . S
C1299 C1305 1.491 . S
C1300 H1291 0.950 . S
C1300 C1299 1.398 . S
C1300 C1301 1.391 . S
C1301 H1289 0.950 . S
C1301 C1297 1.393 . S
C1301 C1300 1.391 . S
C1302 H1292 0.950 . S
C1302 C1303 1.386 . S
C1302 C1304 1.391 . S
C1303 C1302 1.386 . S
C1303 C1307 1.393 . S
C1304 H1293 0.950 . S
C1304 C1302 1.391 . S
C1304 C1305 1.400 . S
C1305 C1299 1.491 . S
C1305 C1304 1.400 . S
C1305 C1306 1.398 . S
C1306 H1294 0.950 . S
C1306 C1305 1.398 . S
C1306 C1307 1.391 . S
C1307 H1295 0.950 . S
C1307 C1303 1.393 . S
C1307 C1306 1.391 . S
H1308 C1316 0.950 . S
H1309 C1321 0.950 . S
H1310 C1318 0.950 . S
H1311 C1320 0.950 . S
H1312 C1322 0.950 . S
H1313 C1324 0.950 . S
H1314 C1326 0.950 . S
H1315 C1327 0.950 . S
C1316 H1308 0.950 . S
C1316 C1317 1.386 . S
C1316 C1318 1.391 . S
C1317 C1316 1.386 . S
C1317 C1321 1.393 . S
C1318 H1310 0.950 . S
C1318 C1316 1.391 . S
C1318 C1319 1.400 . S
C1319 C1318 1.400 . S
C1319 C1320 1.398 . S
C1319 C1325 1.491 . S
C1320 H1311 0.950 . S
C1320 C1319 1.398 . S
C1320 C1321 1.391 . S
C1321 H1309 0.950 . S
C1321 C1317 1.393 . S
C1321 C1320 1.391 . S
C1322 H1312 0.950 . S
C1322 C1323 1.386 . S
C1322 C1324 1.391 . S
C1323 C1322 1.386 . S
C1323 C1327 1.393 . S
C1324 H1313 0.950 . S
C1324 C1322 1.391 . S
C1324 C1325 1.400 . S
C1325 C1319 1.491 . S
C1325 C1324 1.400 . S
C1325 C1326 1.398 . S
C1326 H1314 0.950 . S
C1326 C1325 1.398 . S
C1326 C1327 1.391 . S
C1327 H1315 0.950 . S
C1327 C1323 1.393 . S
C1327 C1326 1.391 . S
H1328 C1336 0.950 . S
H1329 C1341 0.950 . S
H1330 C1338 0.950 . S
H1331 C1340 0.950 . S
H1332 C1342 0.950 . S
H1333 C1344 0.950 . S
H1334 C1346 0.950 . S
H1335 C1347 0.950 . S
C1336 H1328 0.950 . S
C1336 C1337 1.386 . S
C1336 C1338 1.391 . S
C1337 C1336 1.386 . S
C1337 C1341 1.393 . S
C1338 H1330 0.950 . S
C1338 C1336 1.391 . S
C1338 C1339 1.400 . S
C1339 C1338 1.400 . S
C1339 C1340 1.398 . S
C1339 C1345 1.491 . S
C1340 H1331 0.950 . S
C1340 C1339 1.398 . S
C1340 C1341 1.391 . S
C1341 H1329 0.950 . S
C1341 C1337 1.393 . S
C1341 C1340 1.391 . S
C1342 H1332 0.950 . S
C1342 C1343 1.386 . S
C1342 C1344 1.391 . S
C1343 C1342 1.386 . S
C1343 C1347 1.393 . S
C1344 H1333 0.950 . S
C1344 C1342 1.391 . S
C1344 C1345 1.400 . S
C1345 C1339 1.491 . S
C1345 C1344 1.400 . S
C1345 C1346 1.398 . S
C1346 H1334 0.950 . S
C1346 C1345 1.398 . S
C1346 C1347 1.391 . S
C1347 H1335 0.950 . S
C1347 C1343 1.393 . S
C1347 C1346 1.391 . S
H1348 C1356 0.950 . S
H1349 C1361 0.950 . S
H1350 C1358 0.950 . S
H1351 C1360 0.950 . S
H1352 C1362 0.950 . S
H1353 C1364 0.950 . S
H1354 C1366 0.950 . S
H1355 C1367 0.950 . S
C1356 H1348 0.950 . S
C1356 C1357 1.386 . S
C1356 C1358 1.391 . S
C1357 C1356 1.386 . S
C1357 C1361 1.393 . S
C1358 H1350 0.950 . S
C1358 C1356 1.391 . S
C1358 C1359 1.400 . S
C1359 C1358 1.400 . S
C1359 C1360 1.398 . S
C1359 C1365 1.491 . S
C1360 H1351 0.950 . S
C1360 C1359 1.398 . S
C1360 C1361 1.391 . S
C1361 H1349 0.950 . S
C1361 C1357 1.393 . S
C1361 C1360 1.391 . S
C1362 H1352 0.950 . S
C1362 C1363 1.386 . S
C1362 C1364 1.391 . S
C1363 C1362 1.386 . S
C1363 C1367 1.393 . S
C1364 H1353 0.950 . S
C1364 C1362 1.391 . S
C1364 C1365 1.400 . S
C1365 C1359 1.491 . S
C1365 C1364 1.400 . S
C1365 C1366 1.398 . S
C1366 H1354 0.950 . S
C1366 C1365 1.398 . S
C1366 C1367 1.391 . S
C1367 H1355 0.950 . S
C1367 C1363 1.393 . S
C1367 C1366 1.391 . S
H1368 C1376 0.950 . S
H1369 C1381 0.950 . S
H1370 C1378 0.950 . S
H1371 C1380 0.950 . S
H1372 C1382 0.950 . S
H1373 C1384 0.950 . S
H1374 C1386 0.950 . S
H1375 C1387 0.950 . S
C1376 H1368 0.950 . S
C1376 C1377 1.386 . S
C1376 C1378 1.391 . S
C1377 C1376 1.386 . S
C1377 C1381 1.393 . S
C1378 H1370 0.950 . S
C1378 C1376 1.391 . S
C1378 C1379 1.400 . S
C1379 C1378 1.400 . S
C1379 C1380 1.398 . S
C1379 C1385 1.491 . S
C1380 H1371 0.950 . S
C1380 C1379 1.398 . S
C1380 C1381 1.391 . S
C1381 H1369 0.950 . S
C1381 C1377 1.393 . S
C1381 C1380 1.391 . S
C1382 H1372 0.950 . S
C1382 C1383 1.386 . S
C1382 C1384 1.391 . S
C1383 C1382 1.386 . S
C1383 C1387 1.393 . S
C1384 H1373 0.950 . S
C1384 C1382 1.391 . S
C1384 C1385 1.400 . S
C1385 C1379 1.491 . S
C1385 C1384 1.400 . S
C1385 C1386 1.398 . S
C1386 H1374 0.950 . S
C1386 C1385 1.398 . S
C1386 C1387 1.391 . S
C1387 H1375 0.950 . S
C1387 C1383 1.393 . S
C1387 C1386 1.391 . S
H1388 C1396 0.950 . S
H1389 C1401 0.950 . S
H1390 C1398 0.950 . S
H1391 C1400 0.950 . S
H1392 C1402 0.950 . S
H1393 C1404 0.950 . S
H1394 C1406 0.950 . S
H1395 C1407 0.950 . S
C1396 H1388 0.950 . S
C1396 C1397 1.386 . S
C1396 C1398 1.391 . S
C1397 C1396 1.386 . S
C1397 C1401 1.393 . S
C1398 H1390 0.950 . S
C1398 C1396 1.391 . S
C1398 C1399 1.400 . S
C1399 C1398 1.400 . S
C1399 C1400 1.398 . S
C1399 C1405 1.491 . S
C1400 H1391 0.950 . S
C1400 C1399 1.398 . S
C1400 C1401 1.391 . S
C1401 H1389 0.950 . S
C1401 C1397 1.393 . S
C1401 C1400 1.391 . S
C1402 H1392 0.950 . S
C1402 C1403 1.386 . S
C1402 C1404 1.391 . S
C1403 C1402 1.386 . S
C1403 C1407 1.393 . S
C1404 H1393 0.950 . S
C1404 C1402 1.391 . S
C1404 C1405 1.400 . S
C1405 C1399 1.491 . S
C1405 C1404 1.400 . S
C1405 C1406 1.398 . S
C1406 H1394 0.950 . S
C1406 C1405 1.398 . S
C1406 C1407 1.391 . S
C1407 H1395 0.950 . S
C1407 C1403 1.393 . S
C1407 C1406 1.391 . S
H1408 C1416 0.950 . S
H1409 C1421 0.950 . S
H1410 C1418 0.950 . S
H1411 C1420 0.950 . S
H1412 C1422 0.950 . S
H1413 C1424 0.950 . S
H1414 C1426 0.950 . S
H1415 C1427 0.950 . S
C1416 H1408 0.950 . S
C1416 C1417 1.386 . S
C1416 C1418 1.391 . S
C1417 C1416 1.386 . S
C1417 C1421 1.393 . S
C1418 H1410 0.950 . S
C1418 C1416 1.391 . S
C1418 C1419 1.400 . S
C1419 C1418 1.400 . S
C1419 C1420 1.398 . S
C1419 C1425 1.491 . S
C1420 H1411 0.950 . S
C1420 C1419 1.398 . S
C1420 C1421 1.391 . S
C1421 H1409 0.950 . S
C1421 C1417 1.393 . S
C1421 C1420 1.391 . S
C1422 H1412 0.950 . S
C1422 C1423 1.386 . S
C1422 C1424 1.391 . S
C1423 C1422 1.386 . S
C1423 C1427 1.393 . S
C1424 H1413 0.950 . S
C1424 C1422 1.391 . S
C1424 C1425 1.400 . S
C1425 C1419 1.491 . S
C1425 C1424 1.400 . S
C1425 C1426 1.398 . S
C1426 H1414 0.950 . S
C1426 C1425 1.398 . S
C1426 C1427 1.391 . S
C1427 H1415 0.950 . S
C1427 C1423 1.393 . S
C1427 C1426 1.391 . S
H1428 C1436 0.950 . S
H1429 C1441 0.950 . S
H1430 C1438 0.950 . S
H1431 C1440 0.950 . S
H1432 C1442 0.950 . S
H1433 C1444 0.950 . S
H1434 C1446 0.950 . S
H1435 C1447 0.950 . S
C1436 H1428 0.950 . S
C1436 C1437 1.386 . S
C1436 C1438 1.391 . S
C1437 C1436 1.386 . S
C1437 C1441 1.393 . S
C1438 H1430 0.950 . S
C1438 C1436 1.391 . S
C1438 C1439 1.400 . S
C1439 C1438 1.400 . S
C1439 C1440 1.398 . S
C1439 C1445 1.491 . S
C1440 H1431 0.950 . S
C1440 C1439 1.398 . S
C1440 C1441 1.391 . S
C1441 H1429 0.950 . S
C1441 C1437 1.393 . S
C1441 C1440 1.391 . S
C1442 H1432 0.950 . S
C1442 C1443 1.386 . S
C1442 C1444 1.391 . S
C1443 C1442 1.386 . S
C1443 C1447 1.393 . S
C1444 H1433 0.950 . S
C1444 C1442 1.391 . S
C1444 C1445 1.400 . S
C1445 C1439 1.491 . S
C1445 C1444 1.400 . S
C1445 C1446 1.398 . S
C1446 H1434 0.950 . S
C1446 C1445 1.398 . S
C1446 C1447 1.391 . S
C1447 H1435 0.950 . S
C1447 C1443 1.393 . S
C1447 C1446 1.391 . S
H1448 C1456 0.950 . S
H1449 C1461 0.950 . S
H1450 C1458 0.950 . S
H1451 C1460 0.950 . S
H1452 C1462 0.950 . S
H1453 C1464 0.950 . S
H1454 C1466 0.950 . S
H1455 C1467 0.950 . S
C1456 H1448 0.950 . S
C1456 C1457 1.386 . S
C1456 C1458 1.391 . S
C1457 C1456 1.386 . S
C1457 C1461 1.393 . S
C1458 H1450 0.950 . S
C1458 C1456 1.391 . S
C1458 C1459 1.400 . S
C1459 C1458 1.400 . S
C1459 C1460 1.398 . S
C1459 C1465 1.491 . S
C1460 H1451 0.950 . S
C1460 C1459 1.398 . S
C1460 C1461 1.391 . S
C1461 H1449 0.950 . S
C1461 C1457 1.393 . S
C1461 C1460 1.391 . S
C1462 H1452 0.950 . S
C1462 C1463 1.386 . S
C1462 C1464 1.391 . S
C1463 C1462 1.386 . S
C1463 C1467 1.393 . S
C1464 H1453 0.950 . S
C1464 C1462 1.391 . S
C1464 C1465 1.400 . S
C1465 C1459 1.491 . S
C1465 C1464 1.400 . S
C1465 C1466 1.398 . S
C1466 H1454 0.950 . S
C1466 C1465 1.398 . S
C1466 C1467 1.391 . S
C1467 H1455 0.950 . S
C1467 C1463 1.393 . S
C1467 C1466 1.391 . S
H1468 C1476 0.950 . S
H1469 C1481 0.950 . S
H1470 C1478 0.950 . S
H1471 C1480 0.950 . S
H1472 C1482 0.950 . S
H1473 C1484 0.950 . S
H1474 C1486 0.950 . S
H1475 C1487 0.950 . S
C1476 H1468 0.950 . S
C1476 C1477 1.386 . S
C1476 C1478 1.391 . S
C1477 C1476 1.386 . S
C1477 C1481 1.393 . S
C1478 H1470 0.950 . S
C1478 C1476 1.391 . S
C1478 C1479 1.400 . S
C1479 C1478 1.400 . S
C1479 C1480 1.398 . S
C1479 C1485 1.491 . S
C1480 H1471 0.950 . S
C1480 C1479 1.398 . S
C1480 C1481 1.391 . S
C1481 H1469 0.950 . S
C1481 C1477 1.393 . S
C1481 C1480 1.391 . S
C1482 H1472 0.950 . S
C1482 C1483 1.386 . S
C1482 C1484 1.391 . S
C1483 C1482 1.386 . S
C1483 C1487 1.393 . S
C1484 H1473 0.950 . S
C1484 C1482 1.391 . S
C1484 C1485 1.400 . S
C1485 C1479 1.491 . S
C1485 C1484 1.400 . S
C1485 C1486 1.398 . S
C1486 H1474 0.950 . S
C1486 C1485 1.398 . S
C1486 C1487 1.391 . S
C1487 H1475 0.950 . S
C1487 C1483 1.393 . S
C1487 C1486 1.391 . S
H1488 C1496 0.950 . S
H1489 C1501 0.950 . S
H1490 C1498 0.950 . S
H1491 C1500 0.950 . S
H1492 C1502 0.950 . S
H1493 C1504 0.950 . S
H1494 C1506 0.950 . S
H1495 C1507 0.950 . S
C1496 H1488 0.950 . S
C1496 C1497 1.386 . S
C1496 C1498 1.391 . S
C1497 C1496 1.386 . S
C1497 C1501 1.393 . S
C1498 H1490 0.950 . S
C1498 C1496 1.391 . S
C1498 C1499 1.400 . S
C1499 C1498 1.400 . S
C1499 C1500 1.398 . S
C1499 C1505 1.491 . S
C1500 H1491 0.950 . S
C1500 C1499 1.398 . S
C1500 C1501 1.391 . S
C1501 H1489 0.950 . S
C1501 C1497 1.393 . S
C1501 C1500 1.391 . S
C1502 H1492 0.950 . S
C1502 C1503 1.386 . S
C1502 C1504 1.391 . S
C1503 C1502 1.386 . S
C1503 C1507 1.393 . S
C1504 H1493 0.950 . S
C1504 C1502 1.391 . S
C1504 C1505 1.400 . S
C1505 C1499 1.491 . S
C1505 C1504 1.400 . S
C1505 C1506 1.398 . S
C1506 H1494 0.950 . S
C1506 C1505 1.398 . S
C1506 C1507 1.391 . S
C1507 H1495 0.950 . S
C1507 C1503 1.393 . S
C1507 C1506 1.391 . S
H1508 C1516 0.950 . S
H1509 C1521 0.950 . S
H1510 C1518 0.950 . S
H1511 C1520 0.950 . S
H1512 C1522 0.950 . S
H1513 C1524 0.950 . S
H1514 C1526 0.950 . S
H1515 C1527 0.950 . S
C1516 H1508 0.950 . S
C1516 C1517 1.386 . S
C1516 C1518 1.391 . S
C1517 C1516 1.386 . S
C1517 C1521 1.393 . S
C1518 H1510 0.950 . S
C1518 C1516 1.391 . S
C1518 C1519 1.400 . S
C1519 C1518 1.400 . S
C1519 C1520 1.398 . S
C1519 C1525 1.491 . S
C1520 H1511 0.950 . S
C1520 C1519 1.398 . S
C1520 C1521 1.391 . S
C1521 H1509 0.950 . S
C1521 C1517 1.393 . S
C1521 C1520 1.391 . S
C1522 H1512 0.950 . S
C1522 C1523 1.386 . S
C1522 C1524 1.391 . S
C1523 C1522 1.386 . S
C1523 C1527 1.393 . S
C1524 H1513 0.950 . S
C1524 C1522 1.391 . S
C1524 C1525 1.400 . S
C1525 C1519 1.491 . S
C1525 C1524 1.400 . S
C1525 C1526 1.398 . S
C1526 H1514 0.950 . S
C1526 C1525 1.398 . S
C1526 C1527 1.391 . S
C1527 H1515 0.950 . S
C1527 C1523 1.393 . S
C1527 C1526 1.391 . S
H1528 C1536 0.950 . S
H1529 C1541 0.950 . S
H1530 C1538 0.950 . S
H1531 C1540 0.950 . S
H1532 C1542 0.950 . S
H1533 C1544 0.950 . S
H1534 C1546 0.950 . S
H1535 C1547 0.950 . S
C1536 H1528 0.950 . S
C1536 C1537 1.386 . S
C1536 C1538 1.391 . S
C1537 C1536 1.386 . S
C1537 C1541 1.393 . S
C1538 H1530 0.950 . S
C1538 C1536 1.391 . S
C1538 C1539 1.400 . S
C1539 C1538 1.400 . S
C1539 C1540 1.398 . S
C1539 C1545 1.491 . S
C1540 H1531 0.950 . S
C1540 C1539 1.398 . S
C1540 C1541 1.391 . S
C1541 H1529 0.950 . S
C1541 C1537 1.393 . S
C1541 C1540 1.391 . S
C1542 H1532 0.950 . S
C1542 C1543 1.386 . S
C1542 C1544 1.391 . S
C1543 C1542 1.386 . S
C1543 C1547 1.393 . S
C1544 H1533 0.950 . S
C1544 C1542 1.391 . S
C1544 C1545 1.400 . S
C1545 C1539 1.491 . S
C1545 C1544 1.400 . S
C1545 C1546 1.398 . S
C1546 H1534 0.950 . S
C1546 C1545 1.398 . S
C1546 C1547 1.391 . S
C1547 H1535 0.950 . S
C1547 C1543 1.393 . S
C1547 C1546 1.391 . S
H1548 C1556 0.950 . S
H1549 C1561 0.950 . S
H1550 C1558 0.950 . S
H1551 C1560 0.950 . S
H1552 C1562 0.950 . S
H1553 C1564 0.950 . S
H1554 C1566 0.950 . S
H1555 C1567 0.950 . S
C1556 H1548 0.950 . S
C1556 C1557 1.386 . S
C1556 C1558 1.391 . S
C1557 C1556 1.386 . S
C1557 C1561 1.393 . S
C1558 H1550 0.950 . S
C1558 C1556 1.391 . S
C1558 C1559 1.400 . S
C1559 C1558 1.400 . S
C1559 C1560 1.398 . S
C1559 C1565 1.491 . S
C1560 H1551 0.950 . S
C1560 C1559 1.398 . S
C1560 C1561 1.391 . S
C1561 H1549 0.950 . S
C1561 C1557 1.393 . S
C1561 C1560 1.391 . S
C1562 H1552 0.950 . S
C1562 C1563 1.386 . S
C1562 C1564 1.391 . S
C1563 C1562 1.386 . S
C1563 C1567 1.393 . S
C1564 H1553 0.950 . S
C1564 C1562 1.391 . S
C1564 C1565 1.400 . S
C1565 C1559 1.491 . S
C1565 C1564 1.400 . S
C1565 C1566 1.398 . S
C1566 H1554 0.950 . S
C1566 C1565 1.398 . S
C1566 C1567 1.391 . S
C1567 H1555 0.950 . S
C1567 C1563 1.393 . S
C1567 C1566 1.391 . S
H1568 C1576 0.950 . S
H1569 C1581 0.950 . S
H1570 C1578 0.950 . S
H1571 C1580 0.950 . S
H1572 C1582 0.950 . S
H1573 C1584 0.950 . S
H1574 C1586 0.950 . S
H1575 C1587 0.950 . S
C1576 H1568 0.950 . S
C1576 C1577 1.386 . S
C1576 C1578 1.391 . S
C1577 C1576 1.386 . S
C1577 C1581 1.393 . S
C1578 H1570 0.950 . S
C1578 C1576 1.391 . S
C1578 C1579 1.400 . S
C1579 C1578 1.400 . S
C1579 C1580 1.398 . S
C1579 C1585 1.491 . S
C1580 H1571 0.950 . S
C1580 C1579 1.398 . S
C1580 C1581 1.391 . S
C1581 H1569 0.950 . S
C1581 C1577 1.393 . S
C1581 C1580 1.391 . S
C1582 H1572 0.950 . S
C1582 C1583 1.386 . S
C1582 C1584 1.391 . S
C1583 C1582 1.386 . S
C1583 C1587 1.393 . S
C1584 H1573 0.950 . S
C1584 C1582 1.391 . S
C1584 C1585 1.400 . S
C1585 C1579 1.491 . S
C1585 C1584 1.400 . S
C1585 C1586 1.398 . S
C1586 H1574 0.950 . S
C1586 C1585 1.398 . S
C1586 C1587 1.391 . S
C1587 H1575 0.950 . S
C1587 C1583 1.393 . S
C1587 C1586 1.391 . S
H1588 C1596 0.950 . S
H1589 C1601 0.950 . S
H1590 C1598 0.950 . S
H1591 C1600 0.950 . S
H1592 C1602 0.950 . S
H1593 C1604 0.950 . S
H1594 C1606 0.950 . S
H1595 C1607 0.950 . S
C1596 H1588 0.950 . S
C1596 C1597 1.386 . S
C1596 C1598 1.391 . S
C1597 C1596 1.386 . S
C1597 C1601 1.393 . S
C1598 H1590 0.950 . S
C1598 C1596 1.391 . S
C1598 C1599 1.400 . S
C1599 C1598 1.400 . S
C1599 C1600 1.398 . S
C1599 C1605 1.491 . S
C1600 H1591 0.950 . S
C1600 C1599 1.398 . S
C1600 C1601 1.391 . S
C1601 H1589 0.950 . S
C1601 C1597 1.393 . S
C1601 C1600 1.391 . S
C1602 H1592 0.950 . S
C1602 C1603 1.386 . S
C1602 C1604 1.391 . S
C1603 C1602 1.386 . S
C1603 C1607 1.393 . S
C1604 H1593 0.950 . S
C1604 C1602 1.391 . S
C1604 C1605 1.400 . S
C1605 C1599 1.491 . S
C1605 C1604 1.400 . S
C1605 C1606 1.398 . S
C1606 H1594 0.950 . S
C1606 C1605 1.398 . S
C1606 C1607 1.391 . S
C1607 H1595 0.950 . S
C1607 C1603 1.393 . S
C1607 C1606 1.391 . S
H1608 C1616 0.950 . S
H1609 C1621 0.950 . S
H1610 C1618 0.950 . S
H1611 C1620 0.903 1_554 S
H1612 C1622 0.950 . S
H1613 C1624 0.950 . S
H1614 C1626 0.903 1_556 S
H1615 C1627 0.950 . S
C1616 H1608 0.950 . S
C1616 C1617 1.386 . S
C1616 C1618 1.391 . S
C1617 C1616 1.386 . S
C1617 C1621 1.393 . S
C1618 H1610 0.950 . S
C1618 C1616 1.391 . S
C1618 C1619 1.400 . S
C1619 C1618 1.400 . S
C1619 C1620 1.414 . S
C1619 C1625 1.491 1_556 S
C1620 H1611 0.903 1_556 S
C1620 C1619 1.414 . S
C1620 C1621 1.422 . S
C1621 H1609 0.950 . S
C1621 C1617 1.393 . S
C1621 C1620 1.422 . S
C1622 H1612 0.950 . S
C1622 C1623 1.386 . S
C1622 C1624 1.391 . S
C1623 C1622 1.386 . S
C1623 C1627 1.393 . S
C1624 H1613 0.950 . S
C1624 C1622 1.391 . S
C1624 C1625 1.400 . S
C1625 C1619 1.491 1_554 S
C1625 C1624 1.400 . S
C1625 C1626 1.414 . S
C1626 H1614 0.903 1_554 S
C1626 C1625 1.414 . S
C1626 C1627 1.422 . S
C1627 H1615 0.950 . S
C1627 C1623 1.393 . S
C1627 C1626 1.422 . S
H1628 C1636 0.950 . S
H1629 C1641 0.950 . S
H1630 C1638 0.950 . S
H1631 C1640 0.950 1_655 S
H1632 C1642 0.950 . S
H1633 C1644 0.950 . S
H1634 C1646 0.950 1_455 S
H1635 C1647 0.950 . S
C1636 H1628 0.950 . S
C1636 C1637 1.386 . S
C1636 C1638 1.391 . S
C1637 C1636 1.386 . S
C1637 C1641 1.393 . S
C1638 H1630 0.950 . S
C1638 C1636 1.391 . S
C1638 C1639 1.400 . S
C1639 C1638 1.400 . S
C1639 C1640 1.398 . S
C1639 C1645 1.491 1_455 S
C1640 H1631 0.950 1_455 S
C1640 C1639 1.398 . S
C1640 C1641 1.391 . S
C1641 H1629 0.950 . S
C1641 C1637 1.393 . S
C1641 C1640 1.391 . S
C1642 H1632 0.950 . S
C1642 C1643 1.386 . S
C1642 C1644 1.391 . S
C1643 C1642 1.386 . S
C1643 C1647 1.393 . S
C1644 H1633 0.950 . S
C1644 C1642 1.391 . S
C1644 C1645 1.400 . S
C1645 C1639 1.491 1_655 S
C1645 C1644 1.400 . S
C1645 C1646 1.398 . S
C1646 H1634 0.950 1_655 S
C1646 C1645 1.398 . S
C1646 C1647 1.391 . S
C1647 H1635 0.950 . S
C1647 C1643 1.393 . S
C1647 C1646 1.391 . S
H1648 C1656 0.950 . S
H1649 C1661 0.950 . S
H1650 C1658 0.931 1_556 S
H1651 C1660 0.950 . S
H1652 C1662 0.950 . S
H1653 C1664 0.931 1_554 S
H1654 C1666 0.950 . S
H1655 C1667 0.950 . S
C1656 H1648 0.950 . S
C1656 C1657 1.386 . S
C1656 C1658 1.391 . S
C1657 C1656 1.386 . S
C1657 C1661 1.393 . S
C1658 H1650 0.931 1_554 S
C1658 C1656 1.391 . S
C1658 C1659 1.400 . S
C1659 C1658 1.400 . S
C1659 C1660 1.398 . S
C1659 C1665 1.491 1_564 S
C1660 H1651 0.950 . S
C1660 C1659 1.398 . S
C1660 C1661 1.391 . S
C1661 H1649 0.950 . S
C1661 C1657 1.393 . S
C1661 C1660 1.391 . S
C1662 H1652 0.950 . S
C1662 C1663 1.386 . S
C1662 C1664 1.391 . S
C1663 C1662 1.386 . S
C1663 C1667 1.393 . S
C1664 H1653 0.931 1_556 S
C1664 C1662 1.391 . S
C1664 C1665 1.400 . S
C1665 C1659 1.491 1_546 S
C1665 C1664 1.400 . S
C1665 C1666 1.398 . S
C1666 H1654 0.950 . S
C1666 C1665 1.398 . S
C1666 C1667 1.391 . S
C1667 H1655 0.950 . S
C1667 C1663 1.393 . S
C1667 C1666 1.391 . S
H1668 C1676 0.950 . S
H1669 C1681 0.950 . S
H1670 C1678 0.950 . S
H1671 C1680 0.950 . S
H1672 C1682 0.950 . S
H1673 C1684 0.950 . S
H1674 C1686 0.950 . S
H1675 C1687 0.950 . S
C1676 H1668 0.950 . S
C1676 C1677 1.386 . S
C1676 C1678 1.391 . S
C1677 C1676 1.386 . S
C1677 C1681 1.393 . S
C1678 H1670 0.950 . S
C1678 C1676 1.391 . S
C1678 C1679 1.400 . S
C1679 C1678 1.400 . S
C1679 C1680 1.398 . S
C1679 C1685 1.491 . S
C1680 H1671 0.950 . S
C1680 C1679 1.398 . S
C1680 C1681 1.391 . S
C1681 H1669 0.950 . S
C1681 C1677 1.393 . S
C1681 C1680 1.391 . S
C1682 H1672 0.950 . S
C1682 C1683 1.386 . S
C1682 C1684 1.391 . S
C1683 C1682 1.386 . S
C1683 C1687 1.393 . S
C1684 H1673 0.950 . S
C1684 C1682 1.391 . S
C1684 C1685 1.400 . S
C1685 C1679 1.491 . S
C1685 C1684 1.400 . S
C1685 C1686 1.398 . S
C1686 H1674 0.950 . S
C1686 C1685 1.398 . S
C1686 C1687 1.391 . S
C1687 H1675 0.950 . S
C1687 C1683 1.393 . S
C1687 C1686 1.391 . S
H1688 C1696 0.950 . S
H1689 C1701 0.950 . S
H1690 C1698 0.950 1_554 S
H1691 C1700 0.950 1_455 S
H1692 C1702 0.950 . S
H1693 C1704 0.950 1_556 S
H1694 C1706 0.950 1_655 S
H1695 C1707 0.950 . S
C1696 H1688 0.950 . S
C1696 C1697 1.386 . S
C1696 C1698 1.391 . S
C1697 C1696 1.386 . S
C1697 C1701 1.393 . S
C1698 H1690 0.950 1_556 S
C1698 C1696 1.391 . S
C1698 C1699 1.400 . S
C1699 C1698 1.400 . S
C1699 C1700 1.398 . S
C1699 C1705 1.491 1_656 S
C1700 H1691 0.950 1_655 S
C1700 C1699 1.398 . S
C1700 C1701 1.391 . S
C1701 H1689 0.950 . S
C1701 C1697 1.393 . S
C1701 C1700 1.391 . S
C1702 H1692 0.950 . S
C1702 C1703 1.386 . S
C1702 C1704 1.391 . S
C1703 C1702 1.386 . S
C1703 C1707 1.393 . S
C1704 H1693 0.950 1_554 S
C1704 C1702 1.391 . S
C1704 C1705 1.400 . S
C1705 C1699 1.491 1_454 S
C1705 C1704 1.400 . S
C1705 C1706 1.398 . S
C1706 H1694 0.950 1_455 S
C1706 C1705 1.398 . S
C1706 C1707 1.391 . S
C1707 H1695 0.950 . S
C1707 C1703 1.393 . S
C1707 C1706 1.391 . S
H1708 C1716 0.950 . S
H1709 C1721 0.950 . S
H1710 C1718 0.950 . S
H1711 C1720 0.950 . S
H1712 C1722 0.950 . S
H1713 C1724 0.950 . S
H1714 C1726 0.950 . S
H1715 C1727 0.950 . S
C1716 H1708 0.950 . S
C1716 C1717 1.386 . S
C1716 C1718 1.391 . S
C1717 C1716 1.386 . S
C1717 C1721 1.393 . S
C1718 H1710 0.950 . S
C1718 C1716 1.391 . S
C1718 C1719 1.400 . S
C1719 C1718 1.400 . S
C1719 C1720 1.398 . S
C1719 C1725 1.491 1_565 S
C1720 H1711 0.950 . S
C1720 C1719 1.398 . S
C1720 C1721 1.391 . S
C1721 H1709 0.950 . S
C1721 C1717 1.393 . S
C1721 C1720 1.391 . S
C1722 H1712 0.950 . S
C1722 C1723 1.386 . S
C1722 C1724 1.391 . S
C1723 C1722 1.386 . S
C1723 C1727 1.393 . S
C1724 H1713 0.950 . S
C1724 C1722 1.391 . S
C1724 C1725 1.400 . S
C1725 C1719 1.491 1_545 S
C1725 C1724 1.400 . S
C1725 C1726 1.398 . S
C1726 H1714 0.950 . S
C1726 C1725 1.398 . S
C1726 C1727 1.391 . S
C1727 H1715 0.950 . S
C1727 C1723 1.393 . S
C1727 C1726 1.391 . S
C1017 C403 1.353 . S
C1023 C58 1.175 . S
C1037 C487 1.360 . S
C1043 C142 1.200 . S
C1057 C226 1.201 . S
C1063 C67 1.361 . S
C1077 C310 1.197 . S
C1083 C151 1.355 . S
C1097 C394 1.179 . S
C1103 C235 1.353 . S
C1117 C319 1.354 . S
C1123 C478 1.183 . S
C1137 C739 1.363 . S
C1143 C562 1.226 . S
C1157 C646 1.226 . S
C1163 C823 1.363 . S
C1177 C907 1.364 . S
C1183 C730 1.221 . S
C1197 C814 1.185 . S
C1203 C991 1.354 . S
C1217 C898 1.179 . S
C1223 C571 1.353 . S
C1237 C655 1.358 . S
C1243 C982 1.208 . S
C1257 C392 1.442 . S
C1263 C69 1.307 . S
C1277 C153 1.275 . S
C1283 C476 1.428 . S
C1297 C237 1.267 . S
C1303 C56 1.428 . S
C1317 C321 1.308 . S
C1323 C140 1.442 . S
C1337 C224 1.440 . S
C1343 C405 1.279 . S
C1357 C308 1.440 . S
C1363 C489 1.310 . S
C1377 C728 1.434 . S
C1383 C573 1.265 . S
C1397 C657 1.271 . S
C1403 C812 1.437 . S
C1417 C741 1.310 . S
C1423 C896 1.440 . S
C1437 C980 1.430 . S
C1443 C825 1.291 . S
C1457 C909 1.310 . S
C1463 C560 1.440 . S
C1477 C644 1.433 . S
C1483 C993 1.301 . S
C1497 C914 1.812 . S
C1503 C74 1.826 . S
C1517 C158 1.813 . S
C1523 C998 1.826 . S
C1537 C242 1.806 . S
C1543 C578 1.802 . S
C1557 C326 1.826 . S
C1563 C662 1.815 . S
C1577 C410 1.806 . S
C1583 C746 1.802 . S
C1597 C830 1.822 . S
C1603 C494 1.821 . S
C1617 C819 1.948 . S
C1623 C63 1.939 . S
C1637 C903 1.938 . S
C1643 C147 1.946 . S
C1657 C231 1.939 . S
C1663 C987 1.942 . S
C1677 C315 1.945 . S
C1683 C567 1.938 . S
C1697 C651 1.941 . S
C1703 C399 1.949 . S
C1717 C735 1.945 . S
C1723 C483 1.949 . S
