# Generated by pormake.
# Topology smb, (6)-cn, num edge types: 1
# Building blocks:
#     Node 0, Type 0, BuildingBlock: OJICUG_clean_sbu_0, # of connection points: 6
#     Node 1, Type 0, BuildingBlock: OJICUG_clean_sbu_0, # of connection points: 6
#     Node 2, Type 0, BuildingBlock: OJICUG_clean_sbu_0, # of connection points: 6
#     Node 3, Type 0, BuildingBlock: OJICUG_clean_sbu_0, # of connection points: 6
#     Node 4, Type 0, BuildingBlock: OJICUG_clean_sbu_0, # of connection points: 6
#     Node 5, Type 0, BuildingBlock: OJICUG_clean_sbu_0, # of connection points: 6
#     Node 6, Type 0, BuildingBlock: OJICUG_clean_sbu_0, # of connection points: 6
#     Node 7, Type 0, BuildingBlock: OJICUG_clean_sbu_0, # of connection points: 6
#     Node 8, Type 0, BuildingBlock: OJICUG_clean_sbu_0, # of connection points: 6
#     Edge 9, Type (0, 0), BuildingBlock: ZUJKAS_clean_linker_0, # of connection points: 2
#     Edge 10, Type (0, 0), BuildingBlock: ZUJKAS_clean_linker_0, # of connection points: 2
#     Edge 11, Type (0, 0), BuildingBlock: ZUJKAS_clean_linker_0, # of connection points: 2
#     Edge 12, Type (0, 0), BuildingBlock: ZUJKAS_clean_linker_0, # of connection points: 2
#     Edge 13, Type (0, 0), BuildingBlock: ZUJKAS_clean_linker_0, # of connection points: 2
#     Edge 14, Type (0, 0), BuildingBlock: ZUJKAS_clean_linker_0, # of connection points: 2
#     Edge 15, Type (0, 0), BuildingBlock: ZUJKAS_clean_linker_0, # of connection points: 2
#     Edge 16, Type (0, 0), BuildingBlock: ZUJKAS_clean_linker_0, # of connection points: 2
#     Edge 17, Type (0, 0), BuildingBlock: ZUJKAS_clean_linker_0, # of connection points: 2
#     Edge 18, Type (0, 0), BuildingBlock: ZUJKAS_clean_linker_0, # of connection points: 2
#     Edge 19, Type (0, 0), BuildingBlock: ZUJKAS_clean_linker_0, # of connection points: 2
#     Edge 20, Type (0, 0), BuildingBlock: ZUJKAS_clean_linker_0, # of connection points: 2
#     Edge 21, Type (0, 0), BuildingBlock: ZUJKAS_clean_linker_0, # of connection points: 2
#     Edge 22, Type (0, 0), BuildingBlock: ZUJKAS_clean_linker_0, # of connection points: 2
#     Edge 23, Type (0, 0), BuildingBlock: ZUJKAS_clean_linker_0, # of connection points: 2
#     Edge 24, Type (0, 0), BuildingBlock: ZUJKAS_clean_linker_0, # of connection points: 2
#     Edge 25, Type (0, 0), BuildingBlock: ZUJKAS_clean_linker_0, # of connection points: 2
#     Edge 26, Type (0, 0), BuildingBlock: ZUJKAS_clean_linker_0, # of connection points: 2
#     Edge 27, Type (0, 0), BuildingBlock: ZUJKAS_clean_linker_0, # of connection points: 2
#     Edge 28, Type (0, 0), BuildingBlock: ZUJKAS_clean_linker_0, # of connection points: 2
#     Edge 29, Type (0, 0), BuildingBlock: ZUJKAS_clean_linker_0, # of connection points: 2
#     Edge 30, Type (0, 0), BuildingBlock: ZUJKAS_clean_linker_0, # of connection points: 2
#     Edge 31, Type (0, 0), BuildingBlock: ZUJKAS_clean_linker_0, # of connection points: 2
#     Edge 32, Type (0, 0), BuildingBlock: ZUJKAS_clean_linker_0, # of connection points: 2
#     Edge 33, Type (0, 0), BuildingBlock: ZUJKAS_clean_linker_0, # of connection points: 2
#     Edge 34, Type (0, 0), BuildingBlock: ZUJKAS_clean_linker_0, # of connection points: 2
#     Edge 35, Type (0, 0), BuildingBlock: ZUJKAS_clean_linker_0, # of connection points: 2
# Relax obj value: 0.341
# Max RMSD: 0.254
# Mean RMSD: 0.254
data_MOF--net-smb--node1-OJICUG_clean_sbu_0--edge1-ZUJKAS_clean_linker_0
_symmetry_space_group_name_H-M    P1
_symmetry_Int_Tables_number       1
_symmetry_cell_setting            triclinic
loop_
_symmetry_equiv_pos_as_xyz
'x, y, z'
_cell_length_a     50.991204
_cell_length_b     50.980261
_cell_length_c     35.850271
_cell_angle_alpha  90.014014
_cell_angle_beta   89.999846
_cell_angle_gamma 120.00901
loop_
_atom_site_label
_atom_site_type_symbol
_atom_site_fract_x
_atom_site_fract_y
_atom_site_fract_z
_atom_type_partial_charge
Sc0 Sc 0.34798 0.16285 0.01094 0.0
Sc1 Sc 0.41884 0.19675 0.96538 0.0
Sc2 Sc 0.41551 0.19856 0.06319 0.0
O3 O 0.39407 0.18601 0.01315 0.0
C4 C 0.35982 0.20953 0.07638 0.0
C5 C 0.36608 0.20988 0.94328 0.0
C6 C 0.45614 0.25685 0.01446 0.0
C7 C 0.36502 0.12998 0.94754 0.0
C8 C 0.3618 0.13204 0.08014 0.0
C9 C 0.45725 0.17912 0.01842 0.0
O10 O 0.34374 0.19326 0.04941 0.0
O11 O 0.39285 0.21447 0.93976 0.0
O12 O 0.44442 0.24435 0.04539 0.0
O13 O 0.34715 0.13015 0.97215 0.0
O14 O 0.38832 0.15414 0.08565 0.0
O15 O 0.44726 0.18005 0.98631 0.0
O16 O 0.34419 0.13193 0.05488 0.0
O17 O 0.39098 0.15271 0.94121 0.0
O18 O 0.44901 0.18657 0.04811 0.0
O19 O 0.34725 0.19127 0.96678 0.0
O20 O 0.38528 0.2124 0.08475 0.0
O21 O 0.45007 0.24225 0.9839 0.0
Sc22 Sc 0.82844 0.16461 0.01119 0.0
Sc23 Sc 0.79532 0.20219 0.96505 0.0
Sc24 Sc 0.79464 0.19853 0.06304 0.0
O25 O 0.80615 0.18844 0.01309 0.0
C26 C 0.78219 0.13164 0.07786 0.0
C27 C 0.77993 0.13508 0.94518 0.0
C28 C 0.7364 0.18248 0.01482 0.0
C29 C 0.8611 0.21293 0.94604 0.0
C30 C 0.86086 0.20978 0.07926 0.0
C31 C 0.81573 0.25965 0.01687 0.0
O32 O 0.79862 0.13135 0.05138 0.0
O33 O 0.77631 0.1578 0.94062 0.0
O34 O 0.74881 0.18317 0.04578 0.0
O35 O 0.86066 0.19485 0.97077 0.0
O36 O 0.83888 0.21426 0.08542 0.0
O37 O 0.81288 0.2477 0.98493 0.0
O38 O 0.86064 0.1924 0.05362 0.0
O39 O 0.83886 0.21705 0.94026 0.0
O40 O 0.8091 0.2445 0.047 0.0
O41 O 0.79849 0.13476 0.96869 0.0
O42 O 0.7792 0.15433 0.08521 0.0
O43 O 0.75059 0.18983 0.984 0.0
Sc44 Sc 0.82599 0.64227 0.00829 0.0
Sc45 Sc 0.79032 0.57112 0.96299 0.0
Sc46 Sc 0.79102 0.57496 0.06102 0.0
O47 O 0.80246 0.59614 0.01076 0.0
C48 C 0.8579 0.62917 0.07653 0.0
C49 C 0.85703 0.62402 0.94354 0.0
C50 C 0.80966 0.53309 0.01529 0.0
C51 C 0.77795 0.62478 0.94217 0.0
C52 C 0.78006 0.63041 0.07507 0.0
C53 C 0.73146 0.53401 0.01336 0.0
O54 O 0.85835 0.64606 0.05013 0.0
O55 O 0.83446 0.59768 0.93862 0.0
O56 O 0.80531 0.54333 0.04554 0.0
O57 O 0.79627 0.64317 0.96622 0.0
O58 O 0.7759 0.60424 0.0823 0.0
O59 O 0.74485 0.54147 0.98201 0.0
O60 O 0.79725 0.64703 0.049 0.0
O61 O 0.77381 0.59827 0.93751 0.0
O62 O 0.74516 0.54429 0.04414 0.0
O63 O 0.85706 0.64257 0.96729 0.0
O64 O 0.83525 0.60332 0.08347 0.0
O65 O 0.80518 0.54098 0.98337 0.0
Sc66 Sc 0.01449 0.49675 0.34406 0.0
Sc67 Sc 0.08469 0.5326 0.29673 0.0
Sc68 Sc 0.08289 0.53204 0.39478 0.0
O69 O 0.06066 0.52048 0.34518 0.0
C70 C 0.02782 0.54322 0.41078 0.0
C71 C 0.03036 0.54445 0.27792 0.0
C72 C 0.12297 0.59154 0.34653 0.0
C73 C 0.0318 0.46566 0.27839 0.0
C74 C 0.02894 0.46513 0.41137 0.0
C75 C 0.12369 0.51325 0.34729 0.0
O76 O 0.01051 0.52551 0.38549 0.0
O77 O 0.05675 0.54857 0.27233 0.0
O78 O 0.11379 0.57776 0.37747 0.0
O79 O 0.01354 0.46567 0.30255 0.0
O80 O 0.05475 0.48799 0.41783 0.0
O81 O 0.11552 0.51823 0.31584 0.0
O82 O 0.01161 0.46445 0.3854 0.0
O83 O 0.05801 0.48828 0.27296 0.0
O84 O 0.11378 0.51719 0.37805 0.0
O85 O 0.01254 0.52632 0.30254 0.0
O86 O 0.05426 0.54767 0.41686 0.0
O87 O 0.11428 0.57823 0.31524 0.0
Sc88 Sc 0.49405 0.4984 0.34172 0.0
Sc89 Sc 0.45859 0.53387 0.29584 0.0
Sc90 Sc 0.45931 0.53124 0.39386 0.0
O91 O 0.47067 0.52117 0.34378 0.0
C92 C 0.44768 0.46464 0.40829 0.0
C93 C 0.44604 0.46766 0.27556 0.0
C94 C 0.39981 0.51265 0.34611 0.0
C95 C 0.52526 0.54745 0.27667 0.0
C96 C 0.52607 0.54371 0.40971 0.0
C97 C 0.47816 0.59156 0.34775 0.0
O98 O 0.46515 0.46514 0.38262 0.0
O99 O 0.4422 0.49018 0.27052 0.0
O100 O 0.41363 0.51643 0.37685 0.0
O101 O 0.52516 0.52888 0.30045 0.0
O102 O 0.50336 0.54682 0.41651 0.0
O103 O 0.47335 0.57892 0.31596 0.0
O104 O 0.52659 0.52724 0.38337 0.0
O105 O 0.50279 0.55136 0.27173 0.0
O106 O 0.47406 0.5772 0.37814 0.0
O107 O 0.46412 0.4675 0.2999 0.0
O108 O 0.44363 0.48677 0.41518 0.0
O109 O 0.41304 0.5181 0.31468 0.0
Sc110 Sc 0.49445 0.9775 0.34642 0.0
Sc111 Sc 0.45957 0.90715 0.29941 0.0
Sc112 Sc 0.45956 0.90922 0.39746 0.0
O113 O 0.47121 0.93132 0.34777 0.0
C114 C 0.52613 0.96369 0.41427 0.0
C115 C 0.52624 0.96069 0.28112 0.0
C116 C 0.4791 0.86864 0.35054 0.0
C117 C 0.44677 0.96074 0.28004 0.0
C118 C 0.44778 0.96401 0.41284 0.0
C119 C 0.40044 0.86865 0.34892 0.0
O120 O 0.52658 0.98094 0.38833 0.0
O121 O 0.50379 0.93438 0.27562 0.0
O122 O 0.47449 0.87828 0.38112 0.0
O123 O 0.46492 0.97887 0.30442 0.0
O124 O 0.44379 0.9378 0.41941 0.0
O125 O 0.41407 0.87704 0.3178 0.0
O126 O 0.46516 0.98118 0.38726 0.0
O127 O 0.44288 0.93439 0.27478 0.0
O128 O 0.41387 0.87824 0.38 0.0
O129 O 0.52602 0.9788 0.30537 0.0
O130 O 0.50356 0.93763 0.42051 0.0
O131 O 0.47463 0.87697 0.31891 0.0
Sc132 Sc 0.68053 0.83166 0.68037 0.0
Sc133 Sc 0.75109 0.86658 0.63399 0.0
Sc134 Sc 0.74842 0.86428 0.73209 0.0
O135 O 0.72666 0.85416 0.68215 0.0
C136 C 0.69454 0.8774 0.74806 0.0
C137 C 0.69852 0.88105 0.61573 0.0
C138 C 0.79032 0.92424 0.68561 0.0
C139 C 0.69689 0.8006 0.61382 0.0
C140 C 0.69302 0.79788 0.7469 0.0
C141 C 0.78836 0.8447 0.68383 0.0
O142 O 0.67732 0.86061 0.7221 0.0
O143 O 0.72479 0.88474 0.61043 0.0
O144 O 0.78005 0.91008 0.71611 0.0
O145 O 0.67892 0.80056 0.63847 0.0
O146 O 0.71925 0.81994 0.75382 0.0
O147 O 0.78018 0.85 0.65257 0.0
O148 O 0.67615 0.79839 0.72113 0.0
O149 O 0.72325 0.82304 0.60856 0.0
O150 O 0.77898 0.84898 0.71483 0.0
O151 O 0.68003 0.86237 0.63942 0.0
O152 O 0.7204 0.88052 0.75472 0.0
O153 O 0.7821 0.91149 0.65394 0.0
Sc154 Sc 0.15873 0.82875 0.67655 0.0
Sc155 Sc 0.12374 0.86447 0.6305 0.0
Sc156 Sc 0.12488 0.86266 0.72856 0.0
O157 O 0.13579 0.85194 0.67854 0.0
C158 C 0.11263 0.79594 0.74369 0.0
C159 C 0.1101 0.79779 0.61113 0.0
C160 C 0.06535 0.84458 0.68106 0.0
C161 C 0.18997 0.87712 0.61085 0.0
C162 C 0.19145 0.87424 0.74405 0.0
C163 C 0.14454 0.92278 0.68171 0.0
O164 O 0.13004 0.79619 0.71811 0.0
O165 O 0.1067 0.82053 0.60575 0.0
O166 O 0.07923 0.84875 0.71184 0.0
O167 O 0.18973 0.85855 0.63474 0.0
O168 O 0.16889 0.87756 0.75108 0.0
O169 O 0.13916 0.90975 0.65013 0.0
O170 O 0.19172 0.85773 0.71761 0.0
O171 O 0.16771 0.88137 0.60604 0.0
O172 O 0.14048 0.90871 0.71232 0.0
O173 O 0.12822 0.79758 0.63538 0.0
O174 O 0.10858 0.81813 0.75024 0.0
O175 O 0.07845 0.8492 0.64963 0.0
Sc176 Sc 0.16248 0.30907 0.67579 0.0
Sc177 Sc 0.12608 0.23795 0.63041 0.0
Sc178 Sc 0.12925 0.24179 0.72849 0.0
O179 O 0.13927 0.26296 0.67821 0.0
C180 C 0.1962 0.29647 0.74226 0.0
C181 C 0.19236 0.291 0.6094 0.0
C182 C 0.14712 0.20027 0.68087 0.0
C183 C 0.11303 0.29147 0.61137 0.0
C184 C 0.11776 0.29669 0.7442 0.0
C185 C 0.06858 0.20039 0.68276 0.0
O186 O 0.19594 0.3132 0.71614 0.0
O187 O 0.16974 0.26463 0.60475 0.0
O188 O 0.14384 0.21073 0.71158 0.0
O189 O 0.13172 0.30981 0.63517 0.0
O190 O 0.11398 0.27059 0.75098 0.0
O191 O 0.08101 0.20823 0.65087 0.0
O192 O 0.13443 0.31348 0.71789 0.0
O193 O 0.109 0.26505 0.60616 0.0
O194 O 0.08318 0.21055 0.71303 0.0
O195 O 0.19273 0.3095 0.63351 0.0
O196 O 0.17382 0.27058 0.74972 0.0
O197 O 0.14136 0.2078 0.64944 0.0
H198 H 0.31497 0.07425 0.95849 0.0
H199 H 0.29925 0.02814 0.92251 0.0
H200 H 0.37772 0.07548 0.85188 0.0
H201 H 0.39369 0.12197 0.88757 0.0
H202 H 0.32334 0.04367 0.81319 0.0
H203 H 0.33318 0.97019 0.91889 0.0
H204 H 0.31283 0.98795 0.9362 0.0
H205 H 0.35209 0.01093 0.9235 0.0
C206 C 0.32903 0.07492 0.93544 0.0
C207 C 0.35555 0.10189 0.92588 0.0
C208 C 0.32018 0.04842 0.91518 0.0
C209 C 0.33769 0.04828 0.88507 0.0
C210 C 0.36415 0.07507 0.87536 0.0
H211 H 0.2507 0.89922 0.72191 0.0
H212 H 0.29497 0.93943 0.75468 0.0
C213 C 0.37313 0.10161 0.89573 0.0
C214 C 0.32655 0.02076 0.86185 0.0
H215 H 0.29756 0.94444 0.86854 0.0
C216 C 0.31846 0.02204 0.82481 0.0
C217 C 0.32052 0.99273 0.87712 0.0
C218 C 0.33041 0.99037 0.91602 0.0
C219 C 0.30183 0.99557 0.80374 0.0
C220 C 0.29363 0.96721 0.8201 0.0
C221 C 0.30391 0.96621 0.85609 0.0
C222 C 0.26961 0.93874 0.80345 0.0
C223 C 0.29092 -0.00206 0.7654 0.0
C224 C 0.24128 0.92398 0.82104 0.0
C225 C 0.21622 0.90122 0.80257 0.0
C226 C 0.21904 0.89265 0.76623 0.0
C227 C 0.24794 0.90543 0.74992 0.0
C228 C 0.27314 0.92849 0.76846 0.0
H229 H 0.29673 0.02149 0.75847 0.0
H230 H 0.30146 0.99028 0.74417 0.0
H231 H 0.26597 0.9831 0.76337 0.0
H232 H 0.2381 0.9315 0.84808 0.0
H233 H 0.19426 0.89149 0.81596 0.0
H234 H 0.87123 0.25401 0.89056 0.0
H235 H 0.91773 0.2839 0.85473 0.0
H236 H 0.96066 0.24246 0.91522 0.0
H237 H 0.91452 0.21266 0.95146 0.0
H238 H -0.00359 0.30833 0.90687 0.0
H239 H 0.94778 0.24698 0.77319 0.0
H240 H 0.92773 0.26252 0.79742 0.0
H241 H 0.93005 0.23155 0.81758 0.0
C242 C 0.89052 0.25116 0.89626 0.0
C243 C 0.88902 0.2307 0.92376 0.0
C244 C 0.91705 0.2683 0.87573 0.0
C245 C 0.94246 0.26521 0.88226 0.0
C246 C 0.94121 0.24515 0.90988 0.0
H247 H 0.103 0.2845 0.817 0.0
H248 H 0.06358 0.28853 0.85016 0.0
C249 C 0.91475 0.228 0.9304 0.0
C250 C 0.97027 0.28202 0.85974 0.0
H251 H -0.00013 0.28094 0.77493 0.0
C252 C -0.00285 0.30284 0.87779 0.0
C253 C 0.971 0.27514 0.8217 0.0
C254 C 0.94271 0.25275 0.80116 0.0
C255 C 0.02512 0.31552 0.85937 0.0
C256 C 0.02616 0.30664 0.8223 0.0
C257 C -0.00099 0.28774 0.80336 0.0
C258 C 0.05465 0.31143 0.80528 0.0
C259 C 0.05342 0.3373 0.88027 0.0
C260 C 0.06323 0.32352 0.76919 0.0
C261 C 0.08597 0.32124 0.75008 0.0
C262 C 0.09984 0.30627 0.76665 0.0
C263 C 0.0926 0.29609 0.80361 0.0
C264 C 0.07025 0.29865 0.82273 0.0
H265 H 0.04857 0.35062 0.90086 0.0
H266 H 0.06196 0.32431 0.89593 0.0
H267 H 0.07148 0.35316 0.86103 0.0
H268 H 0.0512 0.33315 0.75512 0.0
H269 H 0.09099 0.32902 0.72147 0.0
H270 H 0.6598 0.73931 0.72249 0.0
H271 H 0.65506 0.69437 0.75414 0.0
H272 H 0.70106 0.74913 0.85028 0.0
H273 H 0.70578 0.79363 0.81906 0.0
H274 H 0.70702 0.69382 0.77247 0.0
H275 H 0.638 0.67138 0.89924 0.0
H276 H 0.63552 0.69251 0.86022 0.0
H277 H 0.66451 0.71111 0.89517 0.0
C278 C 0.6678 0.74139 0.75093 0.0
C279 C 0.68332 0.76988 0.76834 0.0
C280 C 0.66515 0.71578 0.7689 0.0
C281 C 0.67741 0.71835 0.80471 0.0
C282 C 0.69081 0.74641 0.82304 0.0
H283 H 0.77775 0.67825 0.94622 0.0
H284 H 0.74692 0.69339 0.91028 0.0
C285 C 0.69376 0.77192 0.80503 0.0
C286 C 0.6817 0.69395 0.82051 0.0
H287 H 0.68039 0.66143 0.90409 0.0
C288 C 0.70032 0.68576 0.8008 0.0
C289 C 0.67291 0.68347 0.8574 0.0
C290 C 0.65135 0.68986 0.87902 0.0
C291 C 0.71296 0.67007 0.81836 0.0
C292 C 0.70642 0.66216 0.85637 0.0
C293 C 0.68563 0.66791 0.87504 0.0
C294 C 0.72401 0.65183 0.87843 0.0
C295 C 0.73518 0.66434 0.79717 0.0
C296 C 0.72127 0.62342 0.87233 0.0
C297 C 0.73901 0.61468 0.89274 0.0
C298 C 0.75975 0.63425 0.91962 0.0
C299 C 0.7622 0.66265 0.92566 0.0
C300 C 0.74446 0.67129 0.90531 0.0
H301 H 0.74003 0.67461 0.76888 0.0
H302 H 0.75682 0.67363 0.8128 0.0
H303 H 0.72584 0.63958 0.79412 0.0
H304 H 0.70542 0.60804 0.85184 0.0
H305 H 0.73637 0.59256 0.88752 0.0
H306 H 0.09592 0.79261 0.81583 0.0
H307 H 0.05684 0.74836 0.8482 0.0
H308 H 0.04784 0.69235 0.75331 0.0
H309 H 0.08736 0.73704 0.72048 0.0
H310 H -0.00494 0.69123 0.77231 0.0
H311 H 0.0443 0.67187 0.89881 0.0
H312 H 0.05694 0.71141 0.89373 0.0
H313 H 0.06713 0.69247 0.85903 0.0
C314 C 0.08631 0.77071 0.80229 0.0
C315 C 0.09445 0.76821 0.76563 0.0
C316 C 0.06417 0.74535 0.82097 0.0
C317 C 0.04967 0.71698 0.80336 0.0
C318 C 0.05906 0.71401 0.76753 0.0
H319 H 0.86637 0.59119 0.88977 0.0
H320 H 0.91262 0.60639 0.85387 0.0
C321 C 0.08161 0.73947 0.74888 0.0
C322 C 0.02142 0.69256 0.81996 0.0
H323 H 0.99179 0.66121 0.90456 0.0
C324 C 0.99424 0.68368 0.80079 0.0
C325 C 0.02046 0.68275 0.85705 0.0
C326 C 0.04885 0.6899 0.87815 0.0
C327 C 0.96622 0.668 0.81905 0.0
C328 C 0.96554 0.66075 0.85721 0.0
C329 C 0.99248 0.66717 0.87538 0.0
C330 C 0.93791 0.65043 0.87985 0.0
C331 C 0.93783 0.66157 0.79835 0.0
C332 C 0.93707 0.67007 0.9066 0.0
C333 C 0.91078 0.66157 0.92712 0.0
C334 C 0.8848 0.63315 0.92134 0.0
C335 C 0.88588 0.61334 0.89476 0.0
C336 C 0.91225 0.62193 0.87421 0.0
H337 H 0.94275 0.67164 0.76995 0.0
H338 H 0.92276 0.63673 0.79561 0.0
H339 H 0.92533 0.67061 0.81416 0.0
H340 H 0.95669 0.69223 0.91122 0.0
H341 H 0.91089 0.67733 0.94745 0.0
H342 H 0.20035 0.28521 0.81498 0.0
H343 H 0.24429 0.28898 0.84659 0.0
H344 H 0.29911 0.33118 0.7492 0.0
H345 H 0.25471 0.32737 0.71714 0.0
H346 H 0.29788 0.27882 0.76995 0.0
H347 H 0.32311 0.35143 0.89387 0.0
H348 H 0.28316 0.32575 0.89045 0.0
H349 H 0.30218 0.35368 0.85447 0.0
C350 C 0.222 0.29623 0.80073 0.0
C351 C 0.22417 0.30586 0.76362 0.0
C352 C 0.2472 0.29864 0.81895 0.0
C353 C 0.27509 0.31068 0.80042 0.0
C354 C 0.27786 0.32215 0.76411 0.0
H355 H 0.39852 0.25037 0.88778 0.0
H356 H 0.3834 0.28091 0.85064 0.0
C357 C 0.25256 0.32005 0.7459 0.0
C358 C 0.29892 0.30578 0.81681 0.0
H359 H 0.33149 0.30816 0.90075 0.0
C360 C 0.3062 0.28607 0.79807 0.0
C361 C 0.30974 0.31529 0.85346 0.0
C362 C 0.30437 0.33798 0.87401 0.0
C363 C 0.32136 0.2732 0.8164 0.0
C364 C 0.32963 0.28057 0.85419 0.0
C365 C 0.32474 0.3023 0.87187 0.0
C366 C 0.33965 0.26312 0.87706 0.0
C367 C 0.32621 0.24996 0.79628 0.0
C368 C 0.32007 0.24324 0.90428 0.0
C369 C 0.3285 0.2257 0.92546 0.0
C370 C 0.3568 0.22784 0.91992 0.0
C371 C 0.37649 0.24801 0.89268 0.0
C372 C 0.36795 0.26551 0.87142 0.0
H373 H 0.31593 0.24477 0.768 0.0
H374 H 0.35086 0.25853 0.7934 0.0
H375 H 0.31635 0.22862 0.81266 0.0
H376 H 0.29807 0.24108 0.9089 0.0
H377 H 0.31284 0.2106 0.94628 0.0
H378 H 0.65804 0.90002 0.72655 0.0
H379 H 0.65369 0.94058 0.75789 0.0
H380 H 0.70806 0.93879 0.84897 0.0
H381 H 0.71222 0.89844 0.81831 0.0
H382 H 0.66008 0.94954 0.87098 0.0
H383 H 0.73187 0.02477 0.75558 0.0
H384 H 0.69617 0.99195 0.74408 0.0
H385 H 0.72649 0.98729 0.76187 0.0
C386 C 0.66824 0.90769 0.75379 0.0
C387 C 0.68586 0.89645 0.76979 0.0
C388 C 0.66591 0.93095 0.77149 0.0
C389 C 0.68101 0.94296 0.80538 0.0
C390 C 0.69632 0.92988 0.82277 0.0
H391 H 0.7749 0.07951 0.95378 0.0
H392 H 0.74309 0.03347 0.91859 0.0
C393 C 0.69881 0.90692 0.80512 0.0
C394 C 0.68474 0.97145 0.82098 0.0
H395 H 0.72971 0.04789 0.81072 0.0
C396 C 0.67458 0.97109 0.85744 0.0
C397 C 0.70357 -0.00048 0.80315 0.0
C398 C 0.71535 0.00119 0.76407 0.0
C399 C 0.68471 -0.00197 0.87761 0.0
C400 C 0.70581 0.02583 0.86098 0.0
C401 C 0.71369 0.02644 0.8234 0.0
C402 C 0.72339 0.0536 0.88341 0.0
C403 C 0.67392 0.99637 0.91717 0.0
C404 C 0.7235 0.08044 0.87455 0.0
C405 C 0.74191 0.10703 0.89452 0.0
C406 C 0.76083 0.10724 0.92331 0.0
C407 C 0.76072 0.08026 0.93179 0.0
C408 C 0.74224 0.05377 0.912 0.0
H409 H 0.65107 0.97627 0.92125 0.0
H410 H 0.68975 0.99418 0.93645 0.0
H411 H 0.67314 0.01708 0.9248 0.0
H412 H 0.70942 0.08081 0.85217 0.0
H413 H 0.74144 0.1274 0.88723 0.0
H414 H 0.9199 0.23443 0.05704 0.0
H415 H 0.96441 0.27369 0.09039 0.0
H416 H 0.90773 0.265 0.18437 0.0
H417 H 0.86366 0.22615 0.15148 0.0
H418 H 0.96541 0.32643 0.10847 0.0
H419 H 0.98381 0.27799 0.23634 0.0
H420 H 0.96343 0.25488 0.19662 0.0
H421 H 0.94432 0.26533 0.23076 0.0
C422 C 0.91728 0.24016 0.08538 0.0
C423 C 0.88841 0.22752 0.10168 0.0
C424 C 0.94265 0.26257 0.10433 0.0
C425 C 0.93943 0.27202 0.14001 0.0
C426 C 0.91093 0.25762 0.15726 0.0
H427 H 0.9784 0.41188 0.28254 0.0
H428 H 0.96355 0.36575 0.24694 0.0
C429 C 0.88566 0.23562 0.13828 0.0
C430 C 0.96371 0.30036 0.15662 0.0
H431 H 0.99434 0.33054 0.24132 0.0
C432 C 0.97272 0.32743 0.13711 0.0
C433 C 0.9732 0.30156 0.19392 0.0
C434 C 0.9659 0.2733 0.21542 0.0
C435 C 0.98821 0.35556 0.15515 0.0
C436 C -0.00485 0.35648 0.19346 0.0
C437 C 0.9886 0.32966 0.21203 0.0
C438 C 0.00539 0.38429 0.21573 0.0
C439 C -0.00525 0.38381 0.134 0.0
C440 C 0.03389 0.40991 0.20994 0.0
C441 C 0.04242 0.43646 0.23009 0.0
C442 C 0.02259 0.43776 0.25644 0.0
C443 C 0.99418 0.41181 0.26236 0.0
C444 C 0.98571 0.38535 0.24222 0.0
H445 H 0.98472 0.37866 0.10558 0.0
H446 H 0.98578 0.39652 0.14947 0.0
H447 H 0.01961 0.39877 0.13124 0.0
H448 H 0.04946 0.40938 0.18981 0.0
H449 H 0.06458 0.45592 0.22501 0.0
H450 H 0.53445 0.58901 0.22218 0.0
H451 H 0.58056 0.6197 0.18594 0.0
H452 H 0.62497 0.57884 0.24444 0.0
H453 H 0.57924 0.54825 0.28103 0.0
H454 H 0.65992 0.64514 0.23628 0.0
H455 H 0.61041 0.58327 0.1031 0.0
H456 H 0.5903 0.59831 0.12825 0.0
H457 H 0.59335 0.56753 0.14768 0.0
C458 C 0.55399 0.58649 0.22738 0.0
C459 C 0.55301 0.56592 0.25437 0.0
C460 C 0.5803 0.60409 0.20662 0.0
C461 C 0.606 0.60137 0.21247 0.0
C462 C 0.60529 0.58126 0.23965 0.0
H463 H 0.76504 0.61912 0.14787 0.0
H464 H 0.72601 0.62422 0.18039 0.0
C465 C 0.57906 0.56365 0.26037 0.0
C466 C 0.63351 0.61844 0.18953 0.0
H467 H 0.66261 0.61668 0.10462 0.0
C468 C 0.66048 0.63947 0.20723 0.0
C469 C 0.63401 0.61134 0.15153 0.0
C470 C 0.60559 0.58881 0.13133 0.0
C471 C 0.68834 0.65198 0.18859 0.0
C472 C 0.68917 0.6427 0.15166 0.0
C473 C 0.66191 0.62376 0.13297 0.0
C474 C 0.71749 0.64686 0.13482 0.0
C475 C 0.71676 0.6739 0.20917 0.0
C476 C 0.72616 0.65841 0.09852 0.0
C477 C 0.74869 0.65551 0.07976 0.0
C478 C 0.76223 0.64045 0.09692 0.0
C479 C 0.75488 0.63076 0.13403 0.0
C480 C 0.73276 0.63396 0.15279 0.0
H481 H 0.71209 0.68759 0.22937 0.0
H482 H 0.7252 0.66102 0.22524 0.0
H483 H 0.73483 0.68942 0.18968 0.0
H484 H 0.71437 0.66811 0.08404 0.0
H485 H 0.75381 0.66293 0.05103 0.0
H486 H 0.327 0.07275 0.05898 0.0
H487 H 0.32216 0.02855 0.09267 0.0
H488 H 0.37189 0.08624 0.18521 0.0
H489 H 0.3767 0.13 0.15199 0.0
H490 H 0.37402 0.02738 0.10982 0.0
H491 H 0.3091 0.01099 0.23897 0.0
H492 H 0.30601 0.03101 0.1991 0.0
H493 H 0.33612 0.05034 0.23253 0.0
C494 C 0.33584 0.07567 0.08709 0.0
C495 C 0.35241 0.10472 0.10288 0.0
C496 C 0.33312 0.05048 0.10623 0.0
C497 C 0.34637 0.05406 0.1416 0.0
C498 C 0.36088 0.08277 0.15836 0.0
H499 H 0.44754 0.01473 0.2834 0.0
H500 H 0.4166 0.02995 0.24778 0.0
C501 C 0.3639 0.10785 0.13919 0.0
C502 C 0.35044 0.02984 0.15835 0.0
H503 H 0.35071 -0.00013 0.24325 0.0
C504 C 0.36805 0.02039 0.13861 0.0
C505 C 0.34258 0.02078 0.19585 0.0
C506 C 0.32213 0.02859 0.21765 0.0
C507 C 0.38065 0.00482 0.15655 0.0
C508 C 0.37505 -0.00173 0.19499 0.0
C509 C 0.35523 0.0053 0.21385 0.0
C510 C 0.39261 0.98791 0.21705 0.0
C511 C 0.40185 -0.00224 0.13511 0.0
C512 C 0.38927 0.95919 0.2115 0.0
C513 C 0.40709 0.95043 0.23166 0.0
C514 C 0.42848 0.97026 0.25781 0.0
C515 C 0.43148 -0.00106 0.26341 0.0
C516 C 0.41368 0.00762 0.24325 0.0
H517 H 0.40652 0.00756 0.10657 0.0
H518 H 0.42369 0.00662 0.15019 0.0
H519 H 0.39165 0.97285 0.13261 0.0
H520 H 0.3729 0.94359 0.19161 0.0
H521 H 0.40398 0.92808 0.22684 0.0
H522 H 0.76745 0.12887 0.15067 0.0
H523 H 0.72799 0.08543 0.18378 0.0
H524 H 0.71477 0.02865 0.08818 0.0
H525 H 0.75461 0.07257 0.05456 0.0
H526 H 0.66366 0.02955 0.10895 0.0
H527 H 0.71314 0.00816 0.23374 0.0
H528 H 0.72667 0.0479 0.2291 0.0
H529 H 0.73578 0.02856 0.19376 0.0
C530 C 0.75682 0.10694 0.1371 0.0
C531 C 0.76386 0.10406 0.10002 0.0
C532 C 0.73446 0.08201 0.1562 0.0
C533 C 0.71865 0.05369 0.13863 0.0
C534 C 0.72697 0.05026 0.10236 0.0
H535 H 0.5357 0.9289 0.22612 0.0
H536 H 0.58189 0.94479 0.18992 0.0
C537 C 0.74972 0.07529 0.08325 0.0
C538 C 0.69027 0.02999 0.15586 0.0
H539 H 0.66115 -0.0013 0.24069 0.0
C540 C 0.66299 0.02187 0.13733 0.0
C541 C 0.68949 0.02005 0.19286 0.0
C542 C 0.71791 0.0264 0.2133 0.0
C543 C 0.63515 0.00662 0.15604 0.0
C544 C 0.6347 -0.00096 0.19404 0.0
C545 C 0.66168 0.00491 0.21165 0.0
C546 C 0.60716 0.98837 0.21697 0.0
C547 C 0.60673 0.00087 0.13595 0.0
C548 C 0.60634 0.00751 0.24448 0.0
C549 C 0.58005 -0.0014 0.26521 0.0
C550 C 0.55408 0.97028 0.25888 0.0
C551 C 0.55519 0.95096 0.23157 0.0
C552 C 0.58154 0.95994 0.21083 0.0
H553 H 0.61159 0.01152 0.10788 0.0
H554 H 0.59149 0.97611 0.13251 0.0
H555 H 0.59445 0.00973 0.15256 0.0
H556 H 0.62596 0.02959 0.24951 0.0
H557 H 0.58013 0.01398 0.28611 0.0
H558 H 0.97662 0.54411 0.28284 0.0
H559 H 0.96052 0.57408 0.24661 0.0
H560 H 0.04528 0.61588 0.18695 0.0
H561 H 0.06167 0.5858 0.22281 0.0
H562 H 0.99078 0.64003 0.2389 0.0
H563 H 0.97876 0.57947 0.10475 0.0
H564 H 0.98074 0.56372 0.14904 0.0
H565 H 0.01418 0.59484 0.12935 0.0
C566 C 0.99188 0.55956 0.26197 0.0
C567 C 0.02035 0.56231 0.25557 0.0
C568 C 0.98269 0.57681 0.24145 0.0
C569 C 0.00169 0.59703 0.21408 0.0
C570 C 0.03022 0.60015 0.20776 0.0
H571 H 0.91706 0.66151 0.05392 0.0
H572 H 0.96094 0.66541 0.08741 0.0
C573 C 0.03949 0.58291 0.2283 0.0
C574 C 0.99082 0.61397 0.19161 0.0
H575 H 0.96028 0.61314 0.10677 0.0
C576 C 0.98464 0.63466 0.20977 0.0
C577 C 0.98332 0.60725 0.15352 0.0
C578 C 0.98939 0.58503 0.13284 0.0
C579 C 0.9693 0.64732 0.19144 0.0
C580 C 0.95947 0.63856 0.15432 0.0
C581 C 0.96788 0.61984 0.13525 0.0
C582 C 0.9357 0.64328 0.13736 0.0
C583 C 0.96262 0.66893 0.21248 0.0
C584 C 0.90728 0.63029 0.15475 0.0
C585 C 0.88238 0.62784 0.13571 0.0
C586 C 0.88538 0.63835 0.0989 0.0
C587 C 0.91424 0.65345 0.08241 0.0
C588 C 0.93924 0.65562 0.10143 0.0
H589 H 0.9807 0.6822 0.23318 0.0
H590 H 0.96041 0.68485 0.19334 0.0
H591 H 0.94105 0.65581 0.22802 0.0
H592 H 0.90381 0.61998 0.18206 0.0
H593 H 0.86038 0.61616 0.14908 0.0
H594 H 0.32743 0.23577 0.05134 0.0
H595 H 0.32418 0.27712 0.08225 0.0
H596 H 0.36942 0.26786 0.17879 0.0
H597 H 0.37234 0.22668 0.14856 0.0
H598 H 0.32486 0.28345 0.19647 0.0
H599 H 0.40541 0.35752 0.08646 0.0
H600 H 0.36906 0.32714 0.07194 0.0
H601 H 0.39618 0.3187 0.09226 0.0
C602 C 0.3357 0.24194 0.07964 0.0
C603 C 0.35057 0.22843 0.0974 0.0
C604 C 0.33405 0.26567 0.09711 0.0
C605 C 0.34714 0.27591 0.13245 0.0
C606 C 0.3593 0.26041 0.15145 0.0
H607 H 0.43987 0.41168 0.2856 0.0
H608 H 0.40907 0.36589 0.24925 0.0
C609 C 0.36107 0.23695 0.13408 0.0
C610 C 0.3524 0.30498 0.14814 0.0
H611 H 0.40143 0.38097 0.14025 0.0
C612 C 0.34097 0.30486 0.18379 0.0
C613 C 0.37347 0.33289 0.13149 0.0
C614 C 0.38695 0.33433 0.09352 0.0
C615 C 0.35165 0.33173 0.20429 0.0
C616 C 0.3745 0.35922 0.18882 0.0
C617 C 0.38402 0.35974 0.15202 0.0
C618 C 0.39158 0.38677 0.21178 0.0
C619 C 0.33936 0.3303 0.24296 0.0
C620 C 0.39254 0.41387 0.2021 0.0
C621 C 0.4103 0.44023 0.22273 0.0
C622 C 0.42773 0.43998 0.25308 0.0
C623 C 0.42684 0.41276 0.2624 0.0
C624 C 0.40895 0.38645 0.24192 0.0
H625 H 0.31615 0.31055 0.24602 0.0
H626 H 0.35416 0.32776 0.2636 0.0
H627 H 0.33885 0.35131 0.24967 0.0
H628 H 0.3796 0.41462 0.17857 0.0
H629 H 0.41048 0.46081 0.21474 0.0
H630 H 0.6459 0.74526 0.6227 0.0
H631 H 0.6305 0.69935 0.58643 0.0
H632 H 0.71037 0.74664 0.51806 0.0
H633 H 0.72606 0.79295 0.55408 0.0
H634 H 0.65617 0.71429 0.47792 0.0
H635 H 0.66546 0.64199 0.58592 0.0
H636 H 0.64479 0.65978 0.60198 0.0
H637 H 0.68417 0.68277 0.58989 0.0
C638 C 0.66029 0.746 0.60002 0.0
C639 C 0.68721 0.77287 0.59131 0.0
C640 C 0.65161 0.71961 0.5796 0.0
C641 C 0.66966 0.71948 0.55014 0.0
C642 C 0.69638 0.74623 0.54105 0.0
H643 H 0.5855 0.56935 0.38794 0.0
H644 H 0.62931 0.61016 0.42073 0.0
C645 C 0.7052 0.77267 0.5616 0.0
C646 C 0.65906 0.69187 0.52725 0.0
H647 H 0.63088 0.61573 0.53496 0.0
C648 C 0.65138 0.69281 0.48993 0.0
C649 C 0.65318 0.66404 0.54303 0.0
C650 C 0.66263 0.66208 0.58232 0.0
C651 C 0.63525 0.66615 0.46901 0.0
C652 C 0.62718 0.63797 0.48582 0.0
C653 C 0.63712 0.63736 0.52215 0.0
C654 C 0.60355 0.60923 0.46922 0.0
C655 C 0.62472 0.66813 0.43029 0.0
C656 C 0.57519 0.59408 0.48669 0.0
C657 C 0.55041 0.57094 0.46825 0.0
C658 C 0.55353 0.56238 0.43202 0.0
C659 C 0.58251 0.57555 0.41587 0.0
C660 C 0.60744 0.59897 0.4344 0.0
H661 H 0.63022 0.69153 0.42303 0.0
H662 H 0.63582 0.6607 0.40956 0.0
H663 H 0.59985 0.65294 0.42778 0.0
H664 H 0.57173 0.60156 0.51361 0.0
H665 H 0.52839 0.56093 0.48153 0.0
H666 H 0.42154 -0.00337 0.38928 0.0
H667 H 0.38133 0.00076 0.42187 0.0
H668 H 0.39184 0.95525 0.5173 0.0
H669 H 0.43163 0.95116 0.48517 0.0
H670 H 0.32946 0.94846 0.44065 0.0
H671 H 0.37654 0.01745 0.56738 0.0
H672 H 0.39994 0.02026 0.52798 0.0
H673 H 0.39012 0.99127 0.56278 0.0
C674 C 0.41599 0.98862 0.41776 0.0
C675 C 0.42944 0.9734 0.43472 0.0
C676 C 0.39303 0.99092 0.43627 0.0
C677 C 0.38383 0.97861 0.47216 0.0
C678 C 0.39899 0.96554 0.49002 0.0
H679 H 0.24366 0.87733 0.61514 0.0
H680 H 0.28969 0.90816 0.57916 0.0
C681 C 0.42154 0.96294 0.47149 0.0
C682 C 0.35515 0.97388 0.48851 0.0
H683 H 0.32444 0.9747 0.57268 0.0
C684 C 0.32824 0.95505 0.46909 0.0
C685 C 0.35366 0.98252 0.52556 0.0
C686 C 0.38169 0.00427 0.54692 0.0
C687 C 0.30005 0.94213 0.48701 0.0
C688 C 0.2989 0.9486 0.5251 0.0
C689 C 0.32551 0.96951 0.54356 0.0
C690 C 0.27107 0.93108 0.54733 0.0
C691 C 0.27202 0.91975 0.46604 0.0
C692 C 0.24544 0.93387 0.54127 0.0
C693 C 0.21897 0.91616 0.56167 0.0
C694 C 0.21775 0.89538 0.58852 0.0
C695 C 0.24367 0.89291 0.59459 0.0
C696 C 0.27007 0.91064 0.57423 0.0
H697 H 0.27734 0.91476 0.43777 0.0
H698 H 0.25973 0.89819 0.48184 0.0
H699 H 0.25658 0.92906 0.46295 0.0
H700 H 0.24592 0.94972 0.52079 0.0
H701 H 0.19951 0.91882 0.55641 0.0
H702 H 0.10921 0.34268 0.62059 0.0
H703 H 0.07839 0.35816 0.58531 0.0
H704 H 0.0435 0.27741 0.51808 0.0
H705 H 0.07449 0.26163 0.55316 0.0
H706 H 0.06523 0.33095 0.47711 0.0
H707 H 0.98662 0.32517 0.58707 0.0
H708 H 0.02532 0.34537 0.60232 0.0
H709 H 0.00806 0.30578 0.59077 0.0
C710 C 0.09495 0.32808 0.59842 0.0
C711 C 0.09442 0.30092 0.5897 0.0
C712 C 0.07705 0.33681 0.57856 0.0
C713 C 0.05817 0.31857 0.54968 0.0
C714 C 0.05763 0.29155 0.54065 0.0
H715 H 0.99319 0.40569 0.39047 0.0
H716 H 0.98941 0.36136 0.42274 0.0
C717 C 0.07545 0.28267 0.56065 0.0
C718 C 0.04121 0.32942 0.52713 0.0
H719 H -0.00434 0.36025 0.53624 0.0
C720 C 0.04928 0.33657 0.48957 0.0
C721 C 0.02021 0.33638 0.54349 0.0
C722 C 0.00929 0.32747 0.58305 0.0
C723 C 0.03929 0.35332 0.469 0.0
C724 C 0.02036 0.36261 0.48644 0.0
C725 C 0.01019 0.35312 0.52298 0.0
C726 C 0.0163 0.38698 0.47018 0.0
C727 C 0.05123 0.36322 0.42993 0.0
C728 C 0.03114 0.41554 0.48722 0.0
C729 C 0.03328 0.44064 0.46905 0.0
C730 C 0.02046 0.43765 0.43353 0.0
C731 C 0.00329 0.4086 0.41784 0.0
C732 C 0.00129 0.38335 0.43608 0.0
H733 H 0.06806 0.35645 0.42193 0.0
H734 H 0.03217 0.35284 0.40979 0.0
H735 H 0.06204 0.38822 0.42735 0.0
H736 H 0.04279 0.41879 0.51358 0.0
H737 H 0.04635 0.4627 0.48201 0.0
H738 H 0.19925 0.26118 0.54974 0.0
H739 H 0.2453 0.27629 0.51333 0.0
H740 H 0.29363 0.35625 0.58138 0.0
H741 H 0.24806 0.34145 0.61795 0.0
H742 H 0.27783 0.3304 0.47296 0.0
H743 H 0.35046 0.32076 0.58001 0.0
H744 H 0.30972 0.30212 0.5843 0.0
H745 H 0.33287 0.34142 0.59679 0.0
C746 C 0.21973 0.28191 0.5571 0.0
C747 C 0.21992 0.30014 0.58677 0.0
C748 C 0.246 0.2904 0.53634 0.0
C749 C 0.27297 0.31699 0.54524 0.0
C750 C 0.27322 0.33522 0.5747 0.0
H751 H 0.42867 0.46049 0.47955 0.0
H752 H 0.38849 0.41585 0.51018 0.0
C753 C 0.24701 0.32689 0.5953 0.0
C754 C 0.30042 0.32742 0.52209 0.0
H755 H 0.37667 0.35662 0.52989 0.0
C756 C 0.29938 0.33533 0.4849 0.0
C757 C 0.32833 0.33345 0.53774 0.0
C758 C 0.3304 0.32368 0.57681 0.0
C759 C 0.32603 0.35202 0.46414 0.0
C760 C 0.35427 0.3605 0.48103 0.0
C761 C 0.35499 0.35012 0.51705 0.0
C762 C 0.38276 0.38512 0.46517 0.0
C763 C 0.32395 0.36282 0.42562 0.0
C764 C 0.3939 0.38232 0.43044 0.0
C765 C 0.41708 0.408 0.41277 0.0
C766 C 0.42909 0.43662 0.42967 0.0
C767 C 0.41957 0.43874 0.46573 0.0
C768 C 0.3967 0.41322 0.48334 0.0
H769 H 0.30036 0.35642 0.41802 0.0
H770 H 0.3383 0.38785 0.42383 0.0
H771 H 0.3324 0.35276 0.40474 0.0
H772 H 0.38361 0.36068 0.41621 0.0
H773 H 0.42403 0.40579 0.38494 0.0
H774 H 0.58554 0.00107 0.3944 0.0
H775 H 0.63014 0.0062 0.42743 0.0
H776 H 0.57262 0.95099 0.51712 0.0
H777 H 0.52844 0.94609 0.48483 0.0
H778 H 0.63035 -0.00095 0.54088 0.0
H779 H 0.63755 0.92896 0.42592 0.0
H780 H 0.64032 0.96459 0.41432 0.0
H781 H 0.60508 0.93388 0.43093 0.0
C782 C 0.58263 0.99083 0.42168 0.0
C783 C 0.55353 0.97275 0.43682 0.0
C784 C 0.60804 0.99363 0.44036 0.0
C785 C 0.60451 0.97851 0.47434 0.0
C786 C 0.5758 0.96275 0.49086 0.0
H787 H 0.64744 0.88517 0.62453 0.0
H788 H 0.63268 0.9167 0.58954 0.0
C789 C 0.55055 0.95983 0.47227 0.0
C790 C 0.62918 0.97509 0.49085 0.0
H791 H 0.66194 0.93121 0.4818 0.0
C792 C 0.63803 0.98494 0.52764 0.0
C793 C 0.6392 0.95674 0.47341 0.0
C794 C 0.63007 0.94523 0.43403 0.0
C795 C 0.65469 0.975 0.54843 0.0
C796 C 0.66223 0.95441 0.53207 0.0
C797 C 0.65586 0.94683 0.49427 0.0
C798 C 0.67274 0.93722 0.55473 0.0
C799 C 0.66285 0.9855 0.58825 0.0
C800 C 0.69978 0.93771 0.54605 0.0
C801 C 0.7082 0.91945 0.56583 0.0
C802 C 0.6895 0.90011 0.59433 0.0
C803 C 0.66237 0.8997 0.60277 0.0
C804 C 0.65407 0.91801 0.5831 0.0
H805 H 0.66509 0.00813 0.59236 0.0
H806 H 0.64458 0.96929 0.60697 0.0
H807 H 0.68438 0.98664 0.5966 0.0
H808 H 0.71424 0.95207 0.52385 0.0
H809 H 0.72926 0.92036 0.55858 0.0
H810 H 0.99034 0.56479 0.38966 0.0
H811 H 0.98471 0.6043 0.42189 0.0
H812 H 0.03909 0.60249 0.51296 0.0
H813 H 0.0445 0.56321 0.48142 0.0
H814 H 0.99083 0.6123 0.53536 0.0
H815 H 0.06198 0.68895 0.42057 0.0
H816 H 0.02639 0.65604 0.40892 0.0
H817 H 0.05698 0.65156 0.42608 0.0
C818 C 0.00025 0.57222 0.41708 0.0
C819 C 0.01828 0.56138 0.43284 0.0
C820 C -0.00283 0.59486 0.4353 0.0
C821 C 0.01195 0.60661 0.46944 0.0
C822 C 0.02759 0.59378 0.48658 0.0
H823 H 0.10533 0.74225 0.61968 0.0
H824 H 0.07359 0.6962 0.5843 0.0
C825 C 0.0308 0.57145 0.46842 0.0
C826 C 0.01528 0.63481 0.48549 0.0
H827 H 0.06001 0.71136 0.47636 0.0
C828 C 0.00521 0.63401 0.52211 0.0
C829 C 0.03397 0.66309 0.46803 0.0
C830 C 0.04565 0.66524 0.42879 0.0
C831 C 0.01535 0.66071 0.5428 0.0
C832 C 0.03637 0.68871 0.52651 0.0
C833 C 0.0441 0.68975 0.4888 0.0
C834 C 0.05382 0.71633 0.54922 0.0
C835 C 0.00466 0.65859 0.58248 0.0
C836 C 0.05387 0.74315 0.54047 0.0
C837 C 0.07224 0.76969 0.56046 0.0
C838 C 0.09117 0.76992 0.58926 0.0
C839 C 0.09112 0.74297 0.5977 0.0
C840 C 0.07268 0.71649 0.57781 0.0
H841 H 0.98184 0.63842 0.58643 0.0
H842 H 0.02055 0.65621 0.60145 0.0
H843 H 0.00385 0.67918 0.59065 0.0
H844 H 0.03978 0.74354 0.5181 0.0
H845 H 0.07169 0.79003 0.5532 0.0
H846 H 0.50835 0.20752 0.05962 0.0
H847 H 0.55094 0.19835 0.05938 0.0
H848 H 0.50164 0.12222 0.98533 0.0
H849 H 0.45991 0.1331 0.9832 0.0
H850 H 0.56052 0.15628 0.07966 0.0
H851 H 0.57579 0.16671 0.92599 0.0
H852 H 0.54926 0.17444 0.94962 0.0
H853 H 0.53969 0.13596 0.93989 0.0
C854 C 0.50666 0.18881 0.04337 0.0
C855 C 0.4812 0.17122 0.02107 0.0
C856 C 0.53094 0.18349 0.04329 0.0
C857 C 0.52989 0.16001 0.02161 0.0
C858 C 0.50353 0.14118 0.00114 0.0
H859 H 0.68962 0.13759 0.05408 0.0
H860 H 0.63673 0.12591 0.05478 0.0
C861 C 0.47961 0.14719 0.00018 0.0
C862 C 0.55699 0.15636 0.0198 0.0
H863 H 0.60865 0.15589 0.95974 0.0
C864 C 0.57107 0.15618 0.05342 0.0
C865 C 0.5708 0.15632 0.98552 0.0
C866 C 0.5583 0.15866 0.94825 0.0
C867 C 0.59931 0.15772 0.05384 0.0
C868 C 0.61306 0.15761 0.01955 0.0
C869 C 0.59811 0.15597 0.98599 0.0
C870 C 0.64427 0.16247 0.01741 0.0
C871 C 0.61478 0.16139 0.09096 0.0
C872 C 0.66572 0.18572 0.99458 0.0
C873 C 0.69544 0.1915 0.99296 0.0
C874 C 0.70449 0.17464 0.01485 0.0
C875 C 0.68311 0.15111 0.03734 0.0
C876 C 0.65303 0.14464 0.038 0.0
H877 H 0.60507 0.16934 0.11302 0.0
H878 H 0.61165 0.13918 0.09996 0.0
H879 H 0.63942 0.1778 0.08902 0.0
H880 H 0.65963 0.19984 0.97844 0.0
H881 H 0.71161 0.20986 0.97554 0.0
H882 H 0.81515 0.50056 0.958 0.0
H883 H 0.82593 0.45907 0.96276 0.0
H884 H 0.83702 0.4722 0.08176 0.0
H885 H 0.82591 0.51348 0.07754 0.0
H886 H 0.87595 0.45474 0.99403 0.0
H887 H 0.76687 0.38414 0.06854 0.0
H888 H 0.7753 0.41845 0.04418 0.0
H889 H 0.79194 0.42043 0.089 0.0
C890 C 0.82015 0.49486 0.98518 0.0
C891 C 0.81916 0.51004 0.01747 0.0
C892 C 0.82641 0.47122 0.98779 0.0
C893 C 0.8318 0.4624 0.02266 0.0
C894 C 0.83243 0.47846 0.05468 0.0
H895 H 0.8276 0.29452 0.07957 0.0
H896 H 0.83769 0.34658 0.08317 0.0
C897 C 0.82606 0.50202 0.05216 0.0
C898 C 0.83453 0.43499 0.02568 0.0
H899 H 0.79712 0.36226 0.05753 0.0
C900 C 0.85889 0.43455 0.00812 0.0
C901 C 0.81217 0.40878 0.04413 0.0
C902 C 0.78494 0.40771 0.06232 0.0
C903 C 0.86134 0.40832 0.00826 0.0
C904 C 0.83855 0.38189 0.02587 0.0
C905 C 0.81464 0.38265 0.04423 0.0
C906 C 0.8375 0.35244 0.02343 0.0
C907 C 0.88823 0.40912 0.98956 0.0
C908 C 0.83451 0.33869 0.98859 0.0
C909 C 0.82875 0.30894 0.98638 0.0
C910 C 0.8255 0.29227 0.01903 0.0
C911 C 0.82974 0.30659 0.05387 0.0
C912 C 0.83561 0.33638 0.05601 0.0
H913 H 0.9078 0.43258 0.98812 0.0
H914 H 0.89533 0.39461 0.00448 0.0
H915 H 0.882 0.40057 0.96058 0.0
H916 H 0.8352 0.35045 0.96313 0.0
H917 H 0.82561 0.29865 0.9591 0.0
H918 H 0.69544 0.50129 0.95486 0.0
H919 H 0.64319 0.4599 0.95752 0.0
H920 H 0.64092 0.47383 0.07588 0.0
H921 H 0.69346 0.515 0.07374 0.0
H922 H 0.62476 0.41598 0.05821 0.0
H923 H 0.5612 0.45377 0.96924 0.0
H924 H 0.59412 0.45731 0.9464 0.0
H925 H 0.59848 0.47964 0.98729 0.0
C926 C 0.68373 0.49596 0.98139 0.0
C927 C 0.69877 0.5113 0.01416 0.0
C928 C 0.65372 0.47244 0.98277 0.0
C929 C 0.63808 0.46409 0.0168 0.0
C930 C 0.65259 0.48009 0.0493 0.0
H931 H 0.47153 0.29696 0.0723 0.0
H932 H 0.51291 0.34941 0.07424 0.0
C933 C 0.68266 0.50354 0.04801 0.0
C934 C 0.60811 0.43631 0.01915 0.0
H935 H 0.53742 0.40007 0.98061 0.0
C936 C 0.60547 0.41268 0.04179 0.0
C937 C 0.5831 0.43208 0.99749 0.0
C938 C 0.58423 0.45717 0.97401 0.0
C939 C 0.57892 0.38441 0.04214 0.0
C940 C 0.55422 0.37989 0.01967 0.0
C941 C 0.55648 0.40373 0.99777 0.0
C942 C 0.52663 0.34988 0.01705 0.0
C943 C 0.578 0.3592 0.06527 0.0
C944 C 0.51999 0.33335 0.98375 0.0
C945 C 0.49631 0.30339 0.98243 0.0
C946 C 0.47895 0.2895 0.01449 0.0
C947 C 0.48472 0.30678 0.04725 0.0
C948 C 0.50832 0.33675 0.04845 0.0
H949 H 0.60087 0.36474 0.07512 0.0
H950 H 0.56351 0.35524 0.09012 0.0
H951 H 0.56812 0.3378 0.04902 0.0
H952 H 0.53392 0.34323 0.95921 0.0
H953 H 0.49238 0.29083 0.95669 0.0
H954 H 0.36383 0.51052 0.28814 0.0
H955 H 0.31179 0.50053 0.29168 0.0
H956 H 0.30972 0.4825 0.40947 0.0
H957 H 0.3619 0.49284 0.40648 0.0
H958 H 0.25576 0.4503 0.31813 0.0
H959 H 0.29535 0.55521 0.40245 0.0
H960 H 0.32114 0.54692 0.37764 0.0
H961 H 0.30453 0.52799 0.42081 0.0
C962 C 0.35225 0.50408 0.31475 0.0
C963 C 0.36723 0.50303 0.34717 0.0
C964 C 0.32248 0.49829 0.31666 0.0
C965 C 0.30723 0.49129 0.35093 0.0
C966 C 0.3214 0.48839 0.38289 0.0
H967 H 0.14454 0.49699 0.40835 0.0
H968 H 0.18577 0.48577 0.41059 0.0
C969 C 0.3512 0.49432 0.38109 0.0
C970 C 0.27755 0.48957 0.35366 0.0
H971 H 0.24347 0.52719 0.38876 0.0
C972 C 0.25291 0.46693 0.33377 0.0
C973 C 0.27409 0.51139 0.37406 0.0
C974 C 0.30018 0.53693 0.39475 0.0
C975 C 0.22478 0.46567 0.33357 0.0
C976 C 0.22157 0.48792 0.35327 0.0
C977 C 0.24602 0.51008 0.37386 0.0
C978 C 0.19386 0.49019 0.35109 0.0
C979 C 0.19881 0.44063 0.31228 0.0
C980 C 0.18461 0.49608 0.31679 0.0
C981 C 0.16108 0.50256 0.31535 0.0
C982 C 0.14661 0.50357 0.34829 0.0
C983 C 0.15531 0.49662 0.38247 0.0
C984 C 0.17878 0.49008 0.38383 0.0
H985 H 0.20198 0.42075 0.30854 0.0
H986 H 0.17692 0.43315 0.3267 0.0
H987 H 0.19755 0.44905 0.28417 0.0
H988 H 0.19643 0.49696 0.29131 0.0
H989 H 0.15499 0.50779 0.28856 0.0
H990 H 0.49367 0.84692 0.41225 0.0
H991 H 0.50451 0.80543 0.41498 0.0
H992 H 0.49662 0.79645 0.29529 0.0
H993 H 0.48619 0.83814 0.29208 0.0
H994 H 0.46347 0.74814 0.39151 0.0
H995 H 0.5718 0.78982 0.31565 0.0
H996 H 0.5592 0.8149 0.33325 0.0
H997 H 0.54439 0.79488 0.29006 0.0
C998 C 0.49471 0.83648 0.3864 0.0
C999 C 0.48878 0.84571 0.35195 0.0
C1000 C 0.50102 0.81285 0.38805 0.0
C1001 C 0.5017 0.79814 0.35532 0.0
C1002 C 0.49688 0.80796 0.3208 0.0
H1003 H 0.48173 0.62868 0.2904 0.0
H1004 H 0.49173 0.6807 0.29492 0.0
C1005 C 0.49063 0.83164 0.31907 0.0
C1006 C 0.50363 0.77023 0.35758 0.0
H1007 H 0.54149 0.73589 0.32367 0.0
C1008 C 0.48082 0.74558 0.37724 0.0
C1009 C 0.52622 0.76702 0.33872 0.0
C1010 C 0.55196 0.79316 0.31852 0.0
C1011 C 0.47917 0.71735 0.37724 0.0
C1012 C 0.5013 0.71389 0.35759 0.0
C1013 C 0.52461 0.73872 0.33871 0.0
C1014 C 0.49928 0.68407 0.35453 0.0
C1015 C 0.45297 0.6911 0.39684 0.0
C1016 C 0.50118 0.66922 0.38643 0.0
C1017 C 0.49524 0.63942 0.38405 0.0
C1018 C 0.48753 0.62407 0.34963 0.0
C1019 C 0.48738 0.63972 0.31738 0.0
C1020 C 0.49319 0.66948 0.31985 0.0
H1021 H 0.43469 0.69608 0.40395 0.0
H1022 H 0.44321 0.67041 0.37924 0.0
H1023 H 0.46114 0.6862 0.42316 0.0
H1024 H 0.50637 0.68039 0.41334 0.0
H1025 H 0.496 0.62822 0.40936 0.0
H1026 H 0.36267 0.84598 0.28869 0.0
H1027 H 0.31052 0.80413 0.28786 0.0
H1028 H 0.31228 0.79675 0.40755 0.0
H1029 H 0.36436 0.83887 0.40886 0.0
H1030 H 0.29602 0.74725 0.31263 0.0
H1031 H 0.2293 0.78877 0.3892 0.0
H1032 H 0.26645 0.81397 0.37028 0.0
H1033 H 0.26256 0.79442 0.41346 0.0
C1034 C 0.35188 0.83582 0.31496 0.0
C1035 C 0.36784 0.84561 0.34883 0.0
C1036 C 0.32202 0.81198 0.3144 0.0
C1037 C 0.3075 0.79758 0.34765 0.0
C1038 C 0.32288 0.80799 0.38166 0.0
H1039 H 0.15415 0.62647 0.40662 0.0
H1040 H 0.19683 0.67832 0.40566 0.0
C1041 C 0.35276 0.83192 0.38229 0.0
C1042 C 0.27782 0.7694 0.34624 0.0
H1043 H 0.20524 0.7353 0.37888 0.0
C1044 C 0.27605 0.74474 0.32669 0.0
C1045 C 0.25199 0.76622 0.36496 0.0
C1046 C 0.25249 0.79232 0.38541 0.0
C1047 C 0.24932 0.71665 0.3261 0.0
C1048 C 0.22349 0.71335 0.34498 0.0
C1049 C 0.2251 0.73806 0.3643 0.0
C1050 C 0.19512 0.68388 0.34607 0.0
C1051 C 0.24928 0.69044 0.30638 0.0
C1052 C 0.17946 0.67036 0.31303 0.0
C1053 C 0.15525 0.64068 0.31336 0.0
C1054 C 0.14613 0.6241 0.34686 0.0
C1055 C 0.1607 0.63848 0.3803 0.0
C1056 C 0.18504 0.66814 0.37986 0.0
H1057 H 0.2726 0.69499 0.30063 0.0
H1058 H 0.23726 0.66939 0.3232 0.0
H1059 H 0.23732 0.68644 0.2793 0.0
H1060 H 0.18666 0.68244 0.28678 0.0
H1061 H 0.14425 0.63048 0.28719 0.0
H1062 H 0.02604 0.82683 0.62215 0.0
H1063 H 0.9741 0.81728 0.62226 0.0
H1064 H 0.97916 0.83231 0.74104 0.0
H1065 H 0.03102 0.8415 0.74148 0.0
H1066 H 0.92202 0.78331 0.71487 0.0
H1067 H 0.96134 0.89058 0.63609 0.0
H1068 H 0.97001 0.86394 0.61472 0.0
H1069 H 0.9872 0.8811 0.6585 0.0
C1070 C 0.01607 0.82782 0.6484 0.0
C1071 C 0.03289 0.83546 0.68172 0.0
C1072 C 0.98639 0.82234 0.64838 0.0
C1073 C 0.97313 0.82464 0.68154 0.0
C1074 C 0.98914 0.83056 0.71516 0.0
H1075 H 0.81793 0.83848 0.74404 0.0
H1076 H 0.85997 0.82843 0.74306 0.0
C1077 C 0.0188 0.8359 0.71529 0.0
C1078 C 0.9436 0.82338 0.6807 0.0
H1079 H 0.90911 0.86135 0.6481 0.0
C1080 C 0.91906 0.80025 0.7002 0.0
C1081 C 0.94004 0.8457 0.66171 0.0
C1082 C 0.96606 0.87191 0.64182 0.0
C1083 C 0.89078 0.79871 0.70086 0.0
C1084 C 0.88732 0.82111 0.68194 0.0
C1085 C 0.91183 0.84407 0.66228 0.0
C1086 C 0.859 0.82232 0.68324 0.0
C1087 C 0.86485 0.77309 0.7215 0.0
C1088 C 0.84449 0.8221 0.64993 0.0
C1089 C 0.8207 0.82817 0.65029 0.0
C1090 C 0.81107 0.83473 0.68402 0.0
C1091 C 0.82476 0.83354 0.71757 0.0
C1092 C 0.84866 0.82755 0.71714 0.0
H1093 H 0.86866 0.75365 0.72559 0.0
H1094 H 0.86266 0.78121 0.74942 0.0
H1095 H 0.84316 0.76509 0.70634 0.0
H1096 H 0.8523 0.81824 0.62348 0.0
H1097 H 0.81052 0.82864 0.62397 0.0
H1098 H 0.15047 0.95999 0.62335 0.0
H1099 H 0.16201 0.01247 0.62652 0.0
H1100 H 0.17354 0.01246 0.7457 0.0
H1101 H 0.16157 0.95975 0.74302 0.0
H1102 H 0.13272 0.02949 0.72481 0.0
H1103 H 0.23846 0.09377 0.64337 0.0
H1104 H 0.20989 0.06129 0.6189 0.0
H1105 H 0.22584 0.05615 0.66114 0.0
C1106 C 0.15594 0.97123 0.6502 0.0
C1107 C 0.15477 0.95552 0.68299 0.0
C1108 C 0.16283 0.00136 0.65189 0.0
C1109 C 0.16901 0.01642 0.68627 0.0
C1110 C 0.16901 0.00123 0.71886 0.0
H1111 H 0.16746 0.18263 0.74116 0.0
H1112 H 0.17776 0.14077 0.74436 0.0
C1113 C 0.16204 0.97107 0.71726 0.0
C1114 C 0.17158 0.04655 0.6887 0.0
H1115 H 0.20895 0.11814 0.65287 0.0
C1116 C 0.14972 0.04905 0.70965 0.0
C1117 C 0.19368 0.07188 0.66867 0.0
C1118 C 0.21848 0.07078 0.64703 0.0
C1119 C 0.14847 0.07586 0.70981 0.0
C1120 C 0.17006 0.10096 0.68897 0.0
C1121 C 0.19248 0.09879 0.66882 0.0
C1122 C 0.16828 0.12889 0.68605 0.0
C1123 C 0.1232 0.07661 0.73087 0.0
C1124 C 0.16089 0.1368 0.6518 0.0
C1125 C 0.15511 0.16079 0.64976 0.0
C1126 C 0.15659 0.17719 0.68202 0.0
C1127 C 0.16566 0.17018 0.71589 0.0
C1128 C 0.17157 0.14629 0.71782 0.0
H1129 H 0.10503 0.05358 0.73904 0.0
H1130 H 0.13247 0.09018 0.75669 0.0
H1131 H 0.11299 0.08739 0.71383 0.0
H1132 H 0.15835 0.12361 0.62697 0.0
H1133 H 0.1484 0.16569 0.62318 0.0
H1134 H 0.82323 0.96095 0.62763 0.0
H1135 H 0.86599 0.0126 0.63135 0.0
H1136 H 0.85362 0.01282 0.7503 0.0
H1137 H 0.81107 0.96099 0.74711 0.0
H1138 H 0.87289 0.0681 0.66037 0.0
H1139 H 0.94037 0.02758 0.73815 0.0
H1140 H 0.90555 0.00205 0.71448 0.0
H1141 H 0.90457 0.01828 0.75857 0.0
C1142 C 0.82936 0.97202 0.65458 0.0
C1143 C 0.81401 0.95661 0.68717 0.0
C1144 C 0.85374 0.00158 0.6566 0.0
C1145 C 0.86318 0.01623 0.69116 0.0
C1146 C 0.84694 0.00162 0.72346 0.0
H1147 H 0.03322 0.17878 0.74527 0.0
H1148 H 0.98096 0.13725 0.74908 0.0
C1149 C 0.82262 0.97201 0.72153 0.0
C1150 C 0.89127 0.04589 0.69355 0.0
H1151 H 0.96393 0.07966 0.72553 0.0
C1152 C 0.89278 0.07077 0.67481 0.0
C1153 C 0.91709 0.04916 0.71242 0.0
C1154 C 0.91707 0.02285 0.73183 0.0
C1155 C 0.91965 0.09892 0.67422 0.0
C1156 C 0.94565 0.10193 0.69232 0.0
C1157 C 0.94387 0.07725 0.71183 0.0
C1158 C 0.97558 0.12972 0.6895 0.0
C1159 C 0.92 0.12511 0.65422 0.0
C1160 C 0.98971 0.13941 0.65467 0.0
C1161 C 0.01961 0.16312 0.65233 0.0
C1162 C 0.036 0.17737 0.68487 0.0
C1163 C 0.02137 0.16823 0.71965 0.0
C1164 C 0.99146 0.14456 0.72192 0.0
H1165 H 0.89687 0.12197 0.65191 0.0
H1166 H 0.93483 0.14686 0.66876 0.0
H1167 H 0.92888 0.12668 0.62555 0.0
H1168 H 0.97807 0.1278 0.62938 0.0
H1169 H 0.03014 0.16953 0.6251 0.0
loop_
_geom_bond_atom_site_label_1
_geom_bond_atom_site_label_2
_geom_bond_distance
_geom_bond_site_symmetry_2
_ccdc_geom_bond_type
Sc0 O3 2.025 . S
Sc0 O10 2.105 . S
Sc0 O13 2.105 1_554 S
Sc0 O16 2.105 . S
Sc0 O19 2.105 1_554 S
Sc1 O3 2.025 1_556 S
Sc1 O11 2.105 . S
Sc1 O15 2.105 . S
Sc1 O17 2.105 . S
Sc1 O21 2.105 . S
Sc2 O3 2.025 . S
Sc2 O12 2.105 . S
Sc2 O14 2.105 . S
Sc2 O18 2.105 . S
Sc2 O20 2.105 . S
O3 Sc0 2.025 . S
O3 Sc1 2.025 1_554 S
O3 Sc2 2.025 . S
C4 O10 1.268 . S
C4 O20 1.268 . S
C5 O11 1.268 . S
C5 O19 1.268 . S
C6 O12 1.268 1_556 S
C6 O21 1.268 . S
C7 O13 1.268 . S
C7 O17 1.268 . S
C8 O14 1.268 . S
C8 O16 1.268 . S
C9 O15 1.268 . S
C9 O18 1.268 1_556 S
O10 Sc0 2.105 . S
O10 C4 1.268 . S
O11 Sc1 2.105 . S
O11 C5 1.268 . S
O12 Sc2 2.105 . S
O12 C6 1.268 1_554 S
O13 Sc0 2.105 1_556 S
O13 C7 1.268 . S
O14 Sc2 2.105 . S
O14 C8 1.268 . S
O15 Sc1 2.105 . S
O15 C9 1.268 . S
O16 Sc0 2.105 . S
O16 C8 1.268 . S
O17 Sc1 2.105 . S
O17 C7 1.268 . S
O18 Sc2 2.105 . S
O18 C9 1.268 1_554 S
O19 Sc0 2.105 1_556 S
O19 C5 1.268 . S
O20 Sc2 2.105 . S
O20 C4 1.268 . S
O21 Sc1 2.105 . S
O21 C6 1.268 . S
Sc22 O25 2.025 . S
Sc22 O32 2.105 . S
Sc22 O35 2.105 1_554 S
Sc22 O38 2.105 . S
Sc22 O41 2.105 1_554 S
Sc23 O25 2.025 1_556 S
Sc23 O33 2.105 . S
Sc23 O37 2.105 . S
Sc23 O39 2.105 . S
Sc23 O43 2.105 . S
Sc24 O25 2.025 . S
Sc24 O34 2.105 . S
Sc24 O36 2.105 . S
Sc24 O40 2.105 . S
Sc24 O42 2.105 . S
O25 Sc22 2.025 . S
O25 Sc23 2.025 1_554 S
O25 Sc24 2.025 . S
C26 O32 1.268 . S
C26 O42 1.268 . S
C27 O33 1.268 . S
C27 O41 1.268 . S
C28 O34 1.268 1_556 S
C28 O43 1.268 . S
C29 O35 1.268 . S
C29 O39 1.268 . S
C30 O36 1.268 . S
C30 O38 1.268 . S
C31 O37 1.268 . S
C31 O40 1.268 1_556 S
O32 Sc22 2.105 . S
O32 C26 1.268 . S
O33 Sc23 2.105 . S
O33 C27 1.268 . S
O34 Sc24 2.105 . S
O34 C28 1.268 1_554 S
O35 Sc22 2.105 1_556 S
O35 C29 1.268 . S
O36 Sc24 2.105 . S
O36 C30 1.268 . S
O37 Sc23 2.105 . S
O37 C31 1.268 . S
O38 Sc22 2.105 . S
O38 C30 1.268 . S
O39 Sc23 2.105 . S
O39 C29 1.268 . S
O40 Sc24 2.105 . S
O40 C31 1.268 1_554 S
O41 Sc22 2.105 1_556 S
O41 C27 1.268 . S
O42 Sc24 2.105 . S
O42 C26 1.268 . S
O43 Sc23 2.105 . S
O43 C28 1.268 . S
Sc44 O47 2.025 . S
Sc44 O54 2.105 . S
Sc44 O57 2.105 1_554 S
Sc44 O60 2.105 . S
Sc44 O63 2.105 1_554 S
Sc45 O47 2.025 1_556 S
Sc45 O55 2.105 . S
Sc45 O59 2.105 . S
Sc45 O61 2.105 . S
Sc45 O65 2.105 . S
Sc46 O47 2.025 . S
Sc46 O56 2.105 . S
Sc46 O58 2.105 . S
Sc46 O62 2.105 . S
Sc46 O64 2.105 . S
O47 Sc44 2.025 . S
O47 Sc45 2.025 1_554 S
O47 Sc46 2.025 . S
C48 O54 1.268 . S
C48 O64 1.268 . S
C49 O55 1.268 . S
C49 O63 1.268 . S
C50 O56 1.268 1_556 S
C50 O65 1.268 . S
C51 O57 1.268 . S
C51 O61 1.268 . S
C52 O58 1.268 . S
C52 O60 1.268 . S
C53 O59 1.268 . S
C53 O62 1.268 1_556 S
O54 Sc44 2.105 . S
O54 C48 1.268 . S
O55 Sc45 2.105 . S
O55 C49 1.268 . S
O56 Sc46 2.105 . S
O56 C50 1.268 1_554 S
O57 Sc44 2.105 1_556 S
O57 C51 1.268 . S
O58 Sc46 2.105 . S
O58 C52 1.268 . S
O59 Sc45 2.105 . S
O59 C53 1.268 . S
O60 Sc44 2.105 . S
O60 C52 1.268 . S
O61 Sc45 2.105 . S
O61 C51 1.268 . S
O62 Sc46 2.105 . S
O62 C53 1.268 1_554 S
O63 Sc44 2.105 1_556 S
O63 C49 1.268 . S
O64 Sc46 2.105 . S
O64 C48 1.268 . S
O65 Sc45 2.105 . S
O65 C50 1.268 . S
Sc66 O69 2.025 . S
Sc66 O76 2.105 . S
Sc66 O79 2.105 . S
Sc66 O82 2.105 . S
Sc66 O85 2.105 . S
Sc67 O69 2.025 . S
Sc67 O77 2.105 . S
Sc67 O81 2.105 . S
Sc67 O83 2.105 . S
Sc67 O87 2.105 . S
Sc68 O69 2.025 . S
Sc68 O78 2.105 . S
Sc68 O80 2.105 . S
Sc68 O84 2.105 . S
Sc68 O86 2.105 . S
O69 Sc66 2.025 . S
O69 Sc67 2.025 . S
O69 Sc68 2.025 . S
C70 O76 1.268 . S
C70 O86 1.268 . S
C71 O77 1.268 . S
C71 O85 1.268 . S
C72 O78 1.268 . S
C72 O87 1.268 . S
C73 O79 1.268 . S
C73 O83 1.268 . S
C74 O80 1.268 . S
C74 O82 1.268 . S
C75 O81 1.268 . S
C75 O84 1.268 . S
O76 Sc66 2.105 . S
O76 C70 1.268 . S
O77 Sc67 2.105 . S
O77 C71 1.268 . S
O78 Sc68 2.105 . S
O78 C72 1.268 . S
O79 Sc66 2.105 . S
O79 C73 1.268 . S
O80 Sc68 2.105 . S
O80 C74 1.268 . S
O81 Sc67 2.105 . S
O81 C75 1.268 . S
O82 Sc66 2.105 . S
O82 C74 1.268 . S
O83 Sc67 2.105 . S
O83 C73 1.268 . S
O84 Sc68 2.105 . S
O84 C75 1.268 . S
O85 Sc66 2.105 . S
O85 C71 1.268 . S
O86 Sc68 2.105 . S
O86 C70 1.268 . S
O87 Sc67 2.105 . S
O87 C72 1.268 . S
Sc88 O91 2.025 . S
Sc88 O98 2.105 . S
Sc88 O101 2.105 . S
Sc88 O104 2.105 . S
Sc88 O107 2.105 . S
Sc89 O91 2.025 . S
Sc89 O99 2.105 . S
Sc89 O103 2.105 . S
Sc89 O105 2.105 . S
Sc89 O109 2.105 . S
Sc90 O91 2.025 . S
Sc90 O100 2.105 . S
Sc90 O102 2.105 . S
Sc90 O106 2.105 . S
Sc90 O108 2.105 . S
O91 Sc88 2.025 . S
O91 Sc89 2.025 . S
O91 Sc90 2.025 . S
C92 O98 1.268 . S
C92 O108 1.268 . S
C93 O99 1.268 . S
C93 O107 1.268 . S
C94 O100 1.268 . S
C94 O109 1.268 . S
C95 O101 1.268 . S
C95 O105 1.268 . S
C96 O102 1.268 . S
C96 O104 1.268 . S
C97 O103 1.268 . S
C97 O106 1.268 . S
O98 Sc88 2.105 . S
O98 C92 1.268 . S
O99 Sc89 2.105 . S
O99 C93 1.268 . S
O100 Sc90 2.105 . S
O100 C94 1.268 . S
O101 Sc88 2.105 . S
O101 C95 1.268 . S
O102 Sc90 2.105 . S
O102 C96 1.268 . S
O103 Sc89 2.105 . S
O103 C97 1.268 . S
O104 Sc88 2.105 . S
O104 C96 1.268 . S
O105 Sc89 2.105 . S
O105 C95 1.268 . S
O106 Sc90 2.105 . S
O106 C97 1.268 . S
O107 Sc88 2.105 . S
O107 C93 1.268 . S
O108 Sc90 2.105 . S
O108 C92 1.268 . S
O109 Sc89 2.105 . S
O109 C94 1.268 . S
Sc110 O113 2.025 . S
Sc110 O120 2.105 . S
Sc110 O123 2.105 . S
Sc110 O126 2.105 . S
Sc110 O129 2.105 . S
Sc111 O113 2.025 . S
Sc111 O121 2.105 . S
Sc111 O125 2.105 . S
Sc111 O127 2.105 . S
Sc111 O131 2.105 . S
Sc112 O113 2.025 . S
Sc112 O122 2.105 . S
Sc112 O124 2.105 . S
Sc112 O128 2.105 . S
Sc112 O130 2.105 . S
O113 Sc110 2.025 . S
O113 Sc111 2.025 . S
O113 Sc112 2.025 . S
C114 O120 1.268 . S
C114 O130 1.268 . S
C115 O121 1.268 . S
C115 O129 1.268 . S
C116 O122 1.268 . S
C116 O131 1.268 . S
C117 O123 1.268 . S
C117 O127 1.268 . S
C118 O124 1.268 . S
C118 O126 1.268 . S
C119 O125 1.268 . S
C119 O128 1.268 . S
O120 Sc110 2.105 . S
O120 C114 1.268 . S
O121 Sc111 2.105 . S
O121 C115 1.268 . S
O122 Sc112 2.105 . S
O122 C116 1.268 . S
O123 Sc110 2.105 . S
O123 C117 1.268 . S
O124 Sc112 2.105 . S
O124 C118 1.268 . S
O125 Sc111 2.105 . S
O125 C119 1.268 . S
O126 Sc110 2.105 . S
O126 C118 1.268 . S
O127 Sc111 2.105 . S
O127 C117 1.268 . S
O128 Sc112 2.105 . S
O128 C119 1.268 . S
O129 Sc110 2.105 . S
O129 C115 1.268 . S
O130 Sc112 2.105 . S
O130 C114 1.268 . S
O131 Sc111 2.105 . S
O131 C116 1.268 . S
Sc132 O135 2.025 . S
Sc132 O142 2.105 . S
Sc132 O145 2.105 . S
Sc132 O148 2.105 . S
Sc132 O151 2.105 . S
Sc133 O135 2.025 . S
Sc133 O143 2.105 . S
Sc133 O147 2.105 . S
Sc133 O149 2.105 . S
Sc133 O153 2.105 . S
Sc134 O135 2.025 . S
Sc134 O144 2.105 . S
Sc134 O146 2.105 . S
Sc134 O150 2.105 . S
Sc134 O152 2.105 . S
O135 Sc132 2.025 . S
O135 Sc133 2.025 . S
O135 Sc134 2.025 . S
C136 O142 1.268 . S
C136 O152 1.268 . S
C137 O143 1.268 . S
C137 O151 1.268 . S
C138 O144 1.268 . S
C138 O153 1.268 . S
C139 O145 1.268 . S
C139 O149 1.268 . S
C140 O146 1.268 . S
C140 O148 1.268 . S
C141 O147 1.268 . S
C141 O150 1.268 . S
O142 Sc132 2.105 . S
O142 C136 1.268 . S
O143 Sc133 2.105 . S
O143 C137 1.268 . S
O144 Sc134 2.105 . S
O144 C138 1.268 . S
O145 Sc132 2.105 . S
O145 C139 1.268 . S
O146 Sc134 2.105 . S
O146 C140 1.268 . S
O147 Sc133 2.105 . S
O147 C141 1.268 . S
O148 Sc132 2.105 . S
O148 C140 1.268 . S
O149 Sc133 2.105 . S
O149 C139 1.268 . S
O150 Sc134 2.105 . S
O150 C141 1.268 . S
O151 Sc132 2.105 . S
O151 C137 1.268 . S
O152 Sc134 2.105 . S
O152 C136 1.268 . S
O153 Sc133 2.105 . S
O153 C138 1.268 . S
Sc154 O157 2.025 . S
Sc154 O164 2.105 . S
Sc154 O167 2.105 . S
Sc154 O170 2.105 . S
Sc154 O173 2.105 . S
Sc155 O157 2.025 . S
Sc155 O165 2.105 . S
Sc155 O169 2.105 . S
Sc155 O171 2.105 . S
Sc155 O175 2.105 . S
Sc156 O157 2.025 . S
Sc156 O166 2.105 . S
Sc156 O168 2.105 . S
Sc156 O172 2.105 . S
Sc156 O174 2.105 . S
O157 Sc154 2.025 . S
O157 Sc155 2.025 . S
O157 Sc156 2.025 . S
C158 O164 1.268 . S
C158 O174 1.268 . S
C159 O165 1.268 . S
C159 O173 1.268 . S
C160 O166 1.268 . S
C160 O175 1.268 . S
C161 O167 1.268 . S
C161 O171 1.268 . S
C162 O168 1.268 . S
C162 O170 1.268 . S
C163 O169 1.268 . S
C163 O172 1.268 . S
O164 Sc154 2.105 . S
O164 C158 1.268 . S
O165 Sc155 2.105 . S
O165 C159 1.268 . S
O166 Sc156 2.105 . S
O166 C160 1.268 . S
O167 Sc154 2.105 . S
O167 C161 1.268 . S
O168 Sc156 2.105 . S
O168 C162 1.268 . S
O169 Sc155 2.105 . S
O169 C163 1.268 . S
O170 Sc154 2.105 . S
O170 C162 1.268 . S
O171 Sc155 2.105 . S
O171 C161 1.268 . S
O172 Sc156 2.105 . S
O172 C163 1.268 . S
O173 Sc154 2.105 . S
O173 C159 1.268 . S
O174 Sc156 2.105 . S
O174 C158 1.268 . S
O175 Sc155 2.105 . S
O175 C160 1.268 . S
Sc176 O179 2.025 . S
Sc176 O186 2.105 . S
Sc176 O189 2.105 . S
Sc176 O192 2.105 . S
Sc176 O195 2.105 . S
Sc177 O179 2.025 . S
Sc177 O187 2.105 . S
Sc177 O191 2.105 . S
Sc177 O193 2.105 . S
Sc177 O197 2.105 . S
Sc178 O179 2.025 . S
Sc178 O188 2.105 . S
Sc178 O190 2.105 . S
Sc178 O194 2.105 . S
Sc178 O196 2.105 . S
O179 Sc176 2.025 . S
O179 Sc177 2.025 . S
O179 Sc178 2.025 . S
C180 O186 1.268 . S
C180 O196 1.268 . S
C181 O187 1.268 . S
C181 O195 1.268 . S
C182 O188 1.268 . S
C182 O197 1.268 . S
C183 O189 1.268 . S
C183 O193 1.268 . S
C184 O190 1.268 . S
C184 O192 1.268 . S
C185 O191 1.268 . S
C185 O194 1.268 . S
O186 Sc176 2.105 . S
O186 C180 1.268 . S
O187 Sc177 2.105 . S
O187 C181 1.268 . S
O188 Sc178 2.105 . S
O188 C182 1.268 . S
O189 Sc176 2.105 . S
O189 C183 1.268 . S
O190 Sc178 2.105 . S
O190 C184 1.268 . S
O191 Sc177 2.105 . S
O191 C185 1.268 . S
O192 Sc176 2.105 . S
O192 C184 1.268 . S
O193 Sc177 2.105 . S
O193 C183 1.268 . S
O194 Sc178 2.105 . S
O194 C185 1.268 . S
O195 Sc176 2.105 . S
O195 C181 1.268 . S
O196 Sc178 2.105 . S
O196 C180 1.268 . S
O197 Sc177 2.105 . S
O197 C182 1.268 . S
H198 C206 0.929 . S
H199 C208 0.930 . S
H200 C210 0.930 . S
H201 C213 0.929 . S
H202 C216 0.930 . S
H203 C218 0.960 . S
H204 C218 0.960 . S
H205 C218 0.960 . S
C206 H198 0.929 . S
C206 C207 1.377 . S
C206 C208 1.384 . S
C207 C206 1.377 . S
C207 C213 1.390 . S
C208 H199 0.930 . S
C208 C206 1.384 . S
C208 C209 1.372 . S
C209 C208 1.372 . S
C209 C210 1.400 . S
C209 C214 1.490 . S
C210 H200 0.930 . S
C210 C209 1.400 . S
C210 C213 1.386 . S
H211 C227 0.930 . S
H212 C228 0.931 . S
C213 H201 0.929 . S
C213 C207 1.390 . S
C213 C210 1.386 . S
C214 C209 1.490 . S
C214 C216 1.395 . S
C214 C217 1.403 . S
H215 C221 0.930 . S
C216 H202 0.930 . S
C216 C214 1.395 . S
C216 C219 1.403 1_545 S
C217 C214 1.403 . S
C217 C218 1.524 . S
C217 C221 1.400 . S
C218 H203 0.960 . S
C218 H204 0.960 . S
C218 H205 0.960 . S
C218 C217 1.524 . S
C219 C216 1.403 1_565 S
C219 C220 1.392 . S
C219 C223 1.495 . S
C220 C219 1.392 . S
C220 C221 1.385 1_565 S
C220 C222 1.478 . S
C221 H215 0.930 . S
C221 C217 1.400 . S
C221 C220 1.385 1_545 S
C222 C220 1.478 . S
C222 C224 1.381 . S
C222 C228 1.383 . S
C223 C219 1.495 . S
C223 H229 0.959 . S
C223 H230 0.961 . S
C223 H231 0.960 . S
C224 C222 1.381 . S
C224 C225 1.394 . S
C224 H232 0.930 . S
C225 C224 1.394 . S
C225 C226 1.383 . S
C225 H233 0.929 . S
C226 C225 1.383 . S
C226 C227 1.377 . S
C227 H211 0.930 . S
C227 C226 1.377 . S
C227 C228 1.379 . S
C228 H212 0.931 . S
C228 C222 1.383 . S
C228 C227 1.379 . S
H229 C223 0.959 . S
H230 C223 0.961 . S
H231 C223 0.960 . S
H232 C224 0.930 . S
H233 C225 0.929 . S
H234 C242 0.929 . S
H235 C244 0.930 . S
H236 C246 0.930 . S
H237 C249 0.929 . S
H238 C252 0.930 . S
H239 C254 0.960 . S
H240 C254 0.960 . S
H241 C254 0.960 . S
C242 H234 0.929 . S
C242 C243 1.377 . S
C242 C244 1.384 . S
C243 C242 1.377 . S
C243 C249 1.390 . S
C244 H235 0.930 . S
C244 C242 1.384 . S
C244 C245 1.372 . S
C245 C244 1.372 . S
C245 C246 1.400 . S
C245 C250 1.490 . S
C246 H236 0.930 . S
C246 C245 1.400 . S
C246 C249 1.386 . S
H247 C263 0.930 . S
H248 C264 0.931 . S
C249 H237 0.929 . S
C249 C243 1.390 . S
C249 C246 1.386 . S
C250 C245 1.490 . S
C250 C252 1.395 . S
C250 C253 1.403 . S
H251 C257 0.930 1_455 S
C252 H238 0.930 . S
C252 C250 1.395 . S
C252 C255 1.432 . S
C253 C250 1.403 . S
C253 C254 1.524 . S
C253 C257 1.400 . S
C254 H239 0.960 . S
C254 H240 0.960 . S
C254 H241 0.960 . S
C254 C253 1.524 . S
C255 C252 1.432 . S
C255 C256 1.365 1_655 S
C255 C259 1.496 1_655 S
C256 C255 1.365 1_455 S
C256 C257 1.385 1_455 S
C256 C258 1.478 . S
C257 H251 0.930 1_655 S
C257 C253 1.400 . S
C257 C256 1.385 1_655 S
C258 C256 1.478 . S
C258 C260 1.381 . S
C258 C264 1.383 . S
C259 C255 1.496 1_455 S
C259 H265 0.959 . S
C259 H266 0.961 . S
C259 H267 0.960 . S
C260 C258 1.381 . S
C260 C261 1.394 . S
C260 H268 0.930 . S
C261 C260 1.394 . S
C261 C262 1.383 . S
C261 H269 0.929 . S
C262 C261 1.383 . S
C262 C263 1.377 . S
C263 H247 0.930 . S
C263 C262 1.377 . S
C263 C264 1.379 . S
C264 H248 0.931 . S
C264 C258 1.383 . S
C264 C263 1.379 . S
H265 C259 0.959 . S
H266 C259 0.961 . S
H267 C259 0.960 . S
H268 C260 0.930 . S
H269 C261 0.929 . S
H270 C278 0.929 . S
H271 C280 0.930 . S
H272 C282 0.930 . S
H273 C285 0.929 . S
H274 C288 0.930 . S
H275 C290 0.960 . S
H276 C290 0.960 . S
H277 C290 0.960 . S
C278 H270 0.929 . S
C278 C279 1.377 . S
C278 C280 1.384 . S
C279 C278 1.377 . S
C279 C285 1.390 . S
C280 H271 0.930 . S
C280 C278 1.384 . S
C280 C281 1.372 . S
C281 C280 1.372 . S
C281 C282 1.400 . S
C281 C286 1.490 . S
C282 H272 0.930 . S
C282 C281 1.400 . S
C282 C285 1.386 . S
H283 C299 0.930 . S
H284 C300 0.931 . S
C285 H273 0.929 . S
C285 C279 1.390 . S
C285 C282 1.386 . S
C286 C281 1.490 . S
C286 C288 1.395 . S
C286 C289 1.403 . S
H287 C293 0.930 . S
C288 H274 0.930 . S
C288 C286 1.395 . S
C288 C291 1.403 . S
C289 C286 1.403 . S
C289 C290 1.524 . S
C289 C293 1.400 . S
C290 H275 0.960 . S
C290 H276 0.960 . S
C290 H277 0.960 . S
C290 C289 1.524 . S
C291 C288 1.403 . S
C291 C292 1.392 . S
C291 C295 1.495 . S
C292 C291 1.392 . S
C292 C293 1.385 . S
C292 C294 1.478 . S
C293 H287 0.930 . S
C293 C289 1.400 . S
C293 C292 1.385 . S
C294 C292 1.478 . S
C294 C296 1.381 . S
C294 C300 1.383 . S
C295 C291 1.495 . S
C295 H301 0.959 . S
C295 H302 0.961 . S
C295 H303 0.960 . S
C296 C294 1.381 . S
C296 C297 1.394 . S
C296 H304 0.930 . S
C297 C296 1.394 . S
C297 C298 1.383 . S
C297 H305 0.929 . S
C298 C297 1.383 . S
C298 C299 1.377 . S
C299 H283 0.930 . S
C299 C298 1.377 . S
C299 C300 1.379 . S
C300 H284 0.931 . S
C300 C294 1.383 . S
C300 C299 1.379 . S
H301 C295 0.959 . S
H302 C295 0.961 . S
H303 C295 0.960 . S
H304 C296 0.930 . S
H305 C297 0.929 . S
H306 C314 0.929 . S
H307 C316 0.930 . S
H308 C318 0.930 . S
H309 C321 0.929 . S
H310 C324 0.930 . S
H311 C326 0.960 . S
H312 C326 0.960 . S
H313 C326 0.960 . S
C314 H306 0.929 . S
C314 C315 1.377 . S
C314 C316 1.384 . S
C315 C314 1.377 . S
C315 C321 1.390 . S
C316 H307 0.930 . S
C316 C314 1.384 . S
C316 C317 1.372 . S
C317 C316 1.372 . S
C317 C318 1.400 . S
C317 C322 1.490 . S
C318 H308 0.930 . S
C318 C317 1.400 . S
C318 C321 1.386 . S
H319 C335 0.930 . S
H320 C336 0.931 . S
C321 H309 0.929 . S
C321 C315 1.390 . S
C321 C318 1.386 . S
C322 C317 1.490 . S
C322 C324 1.395 1_455 S
C322 C325 1.403 . S
H323 C329 0.930 . S
C324 H310 0.930 . S
C324 C322 1.395 1_655 S
C324 C327 1.403 . S
C325 C322 1.403 . S
C325 C326 1.524 . S
C325 C329 1.400 1_455 S
C326 H311 0.960 . S
C326 H312 0.960 . S
C326 H313 0.960 . S
C326 C325 1.524 . S
C327 C324 1.403 . S
C327 C328 1.392 . S
C327 C331 1.495 . S
C328 C327 1.392 . S
C328 C329 1.385 . S
C328 C330 1.478 . S
C329 H323 0.930 . S
C329 C325 1.400 1_655 S
C329 C328 1.385 . S
C330 C328 1.478 . S
C330 C332 1.381 . S
C330 C336 1.383 . S
C331 C327 1.495 . S
C331 H337 0.959 . S
C331 H338 0.961 . S
C331 H339 0.960 . S
C332 C330 1.381 . S
C332 C333 1.394 . S
C332 H340 0.930 . S
C333 C332 1.394 . S
C333 C334 1.383 . S
C333 H341 0.929 . S
C334 C333 1.383 . S
C334 C335 1.377 . S
C335 H319 0.930 . S
C335 C334 1.377 . S
C335 C336 1.379 . S
C336 H320 0.931 . S
C336 C330 1.383 . S
C336 C335 1.379 . S
H337 C331 0.959 . S
H338 C331 0.961 . S
H339 C331 0.960 . S
H340 C332 0.930 . S
H341 C333 0.929 . S
H342 C350 0.929 . S
H343 C352 0.930 . S
H344 C354 0.930 . S
H345 C357 0.929 . S
H346 C360 0.930 . S
H347 C362 0.960 . S
H348 C362 0.960 . S
H349 C362 0.960 . S
C350 H342 0.929 . S
C350 C351 1.377 . S
C350 C352 1.384 . S
C351 C350 1.377 . S
C351 C357 1.390 . S
C352 H343 0.930 . S
C352 C350 1.384 . S
C352 C353 1.372 . S
C353 C352 1.372 . S
C353 C354 1.400 . S
C353 C358 1.490 . S
C354 H344 0.930 . S
C354 C353 1.400 . S
C354 C357 1.386 . S
H355 C371 0.930 . S
H356 C372 0.931 . S
C357 H345 0.929 . S
C357 C351 1.390 . S
C357 C354 1.386 . S
C358 C353 1.490 . S
C358 C360 1.395 . S
C358 C361 1.403 . S
H359 C365 0.930 . S
C360 H346 0.930 . S
C360 C358 1.395 . S
C360 C363 1.403 . S
C361 C358 1.403 . S
C361 C362 1.524 . S
C361 C365 1.400 . S
C362 H347 0.960 . S
C362 H348 0.960 . S
C362 H349 0.960 . S
C362 C361 1.524 . S
C363 C360 1.403 . S
C363 C364 1.392 . S
C363 C367 1.495 . S
C364 C363 1.392 . S
C364 C365 1.385 . S
C364 C366 1.478 . S
C365 H359 0.930 . S
C365 C361 1.400 . S
C365 C364 1.385 . S
C366 C364 1.478 . S
C366 C368 1.381 . S
C366 C372 1.383 . S
C367 C363 1.495 . S
C367 H373 0.959 . S
C367 H374 0.961 . S
C367 H375 0.960 . S
C368 C366 1.381 . S
C368 C369 1.394 . S
C368 H376 0.930 . S
C369 C368 1.394 . S
C369 C370 1.383 . S
C369 H377 0.929 . S
C370 C369 1.383 . S
C370 C371 1.377 . S
C371 H355 0.930 . S
C371 C370 1.377 . S
C371 C372 1.379 . S
C372 H356 0.931 . S
C372 C366 1.383 . S
C372 C371 1.379 . S
H373 C367 0.959 . S
H374 C367 0.961 . S
H375 C367 0.960 . S
H376 C368 0.930 . S
H377 C369 0.929 . S
H378 C386 0.929 . S
H379 C388 0.930 . S
H380 C390 0.930 . S
H381 C393 0.929 . S
H382 C396 0.930 . S
H383 C398 0.960 . S
H384 C398 0.960 . S
H385 C398 0.960 . S
C386 H378 0.929 . S
C386 C387 1.377 . S
C386 C388 1.384 . S
C387 C386 1.377 . S
C387 C393 1.390 . S
C388 H379 0.930 . S
C388 C386 1.384 . S
C388 C389 1.372 . S
C389 C388 1.372 . S
C389 C390 1.400 . S
C389 C394 1.490 . S
C390 H380 0.930 . S
C390 C389 1.400 . S
C390 C393 1.386 . S
H391 C407 0.930 . S
H392 C408 0.931 . S
C393 H381 0.929 . S
C393 C387 1.390 . S
C393 C390 1.386 . S
C394 C389 1.490 . S
C394 C396 1.395 . S
C394 C397 1.403 1_565 S
H395 C401 0.930 . S
C396 H382 0.930 . S
C396 C394 1.395 . S
C396 C399 1.403 1_565 S
C397 C394 1.403 1_545 S
C397 C398 1.524 . S
C397 C401 1.400 . S
C398 H383 0.960 . S
C398 H384 0.960 . S
C398 H385 0.960 . S
C398 C397 1.524 . S
C399 C396 1.403 1_545 S
C399 C400 1.392 . S
C399 C403 1.495 . S
C400 C399 1.392 . S
C400 C401 1.385 . S
C400 C402 1.478 . S
C401 H395 0.930 . S
C401 C397 1.400 . S
C401 C400 1.385 . S
C402 C400 1.478 . S
C402 C404 1.381 . S
C402 C408 1.383 . S
C403 C399 1.495 . S
C403 H409 0.959 1_545 S
C403 H410 0.961 . S
C403 H411 0.960 . S
C404 C402 1.381 . S
C404 C405 1.394 . S
C404 H412 0.930 . S
C405 C404 1.394 . S
C405 C406 1.383 . S
C405 H413 0.929 . S
C406 C405 1.383 . S
C406 C407 1.377 . S
C407 H391 0.930 . S
C407 C406 1.377 . S
C407 C408 1.379 . S
C408 H392 0.931 . S
C408 C402 1.383 . S
C408 C407 1.379 . S
H409 C403 0.959 1_565 S
H410 C403 0.961 . S
H411 C403 0.960 . S
H412 C404 0.930 . S
H413 C405 0.929 . S
H414 C422 0.929 . S
H415 C424 0.930 . S
H416 C426 0.930 . S
H417 C429 0.929 . S
H418 C432 0.930 . S
H419 C434 0.960 . S
H420 C434 0.960 . S
H421 C434 0.960 . S
C422 H414 0.929 . S
C422 C423 1.377 . S
C422 C424 1.384 . S
C423 C422 1.377 . S
C423 C429 1.390 . S
C424 H415 0.930 . S
C424 C422 1.384 . S
C424 C425 1.372 . S
C425 C424 1.372 . S
C425 C426 1.400 . S
C425 C430 1.490 . S
C426 H416 0.930 . S
C426 C425 1.400 . S
C426 C429 1.386 . S
H427 C443 0.909 1_655 S
H428 C444 0.931 . S
C429 H417 0.929 . S
C429 C423 1.390 . S
C429 C426 1.386 . S
C430 C425 1.490 . S
C430 C432 1.395 . S
C430 C433 1.403 . S
H431 C437 0.930 . S
C432 H418 0.930 . S
C432 C430 1.395 . S
C432 C435 1.403 . S
C433 C430 1.403 . S
C433 C434 1.524 . S
C433 C437 1.400 . S
C434 H419 0.960 . S
C434 H420 0.960 . S
C434 H421 0.960 . S
C434 C433 1.524 . S
C435 C432 1.403 . S
C435 C436 1.392 . S
C435 C439 1.495 1_655 S
C436 C435 1.392 . S
C436 C437 1.385 . S
C436 C438 1.478 . S
C437 H431 0.930 . S
C437 C433 1.400 . S
C437 C436 1.385 . S
C438 C436 1.478 . S
C438 C440 1.381 1_655 S
C438 C444 1.383 . S
C439 C435 1.495 1_455 S
C439 H445 0.959 . S
C439 H446 0.961 . S
C439 H447 0.960 . S
C440 C438 1.381 1_455 S
C440 C441 1.394 . S
C440 H448 0.930 . S
C441 C440 1.394 . S
C441 C442 1.383 . S
C441 H449 0.929 . S
C442 C441 1.383 . S
C442 C443 1.403 . S
C443 H427 0.909 1_455 S
C443 C442 1.403 . S
C443 C444 1.373 1_455 S
C444 H428 0.931 . S
C444 C438 1.383 . S
C444 C443 1.373 1_655 S
H445 C439 0.959 . S
H446 C439 0.961 . S
H447 C439 0.960 . S
H448 C440 0.930 . S
H449 C441 0.929 . S
H450 C458 0.929 . S
H451 C460 0.930 . S
H452 C462 0.930 . S
H453 C465 0.929 . S
H454 C468 0.930 . S
H455 C470 0.960 . S
H456 C470 0.960 . S
H457 C470 0.960 . S
C458 H450 0.929 . S
C458 C459 1.377 . S
C458 C460 1.384 . S
C459 C458 1.377 . S
C459 C465 1.390 . S
C460 H451 0.930 . S
C460 C458 1.384 . S
C460 C461 1.372 . S
C461 C460 1.372 . S
C461 C462 1.400 . S
C461 C466 1.490 . S
C462 H452 0.930 . S
C462 C461 1.400 . S
C462 C465 1.386 . S
H463 C479 0.930 . S
H464 C480 0.931 . S
C465 H453 0.929 . S
C465 C459 1.390 . S
C465 C462 1.386 . S
C466 C461 1.490 . S
C466 C468 1.395 . S
C466 C469 1.403 . S
H467 C473 0.930 . S
C468 H454 0.930 . S
C468 C466 1.395 . S
C468 C471 1.403 . S
C469 C466 1.403 . S
C469 C470 1.524 . S
C469 C473 1.400 . S
C470 H455 0.960 . S
C470 H456 0.960 . S
C470 H457 0.960 . S
C470 C469 1.524 . S
C471 C468 1.403 . S
C471 C472 1.392 . S
C471 C475 1.495 . S
C472 C471 1.392 . S
C472 C473 1.385 . S
C472 C474 1.478 . S
C473 H467 0.930 . S
C473 C469 1.400 . S
C473 C472 1.385 . S
C474 C472 1.478 . S
C474 C476 1.381 . S
C474 C480 1.383 . S
C475 C471 1.495 . S
C475 H481 0.959 . S
C475 H482 0.961 . S
C475 H483 0.960 . S
C476 C474 1.381 . S
C476 C477 1.394 . S
C476 H484 0.930 . S
C477 C476 1.394 . S
C477 C478 1.383 . S
C477 H485 0.929 . S
C478 C477 1.383 . S
C478 C479 1.377 . S
C479 H463 0.930 . S
C479 C478 1.377 . S
C479 C480 1.379 . S
C480 H464 0.931 . S
C480 C474 1.383 . S
C480 C479 1.379 . S
H481 C475 0.959 . S
H482 C475 0.961 . S
H483 C475 0.960 . S
H484 C476 0.930 . S
H485 C477 0.929 . S
H486 C494 0.929 . S
H487 C496 0.930 . S
H488 C498 0.930 . S
H489 C501 0.929 . S
H490 C504 0.930 . S
H491 C506 0.960 . S
H492 C506 0.960 . S
H493 C506 0.960 . S
C494 H486 0.929 . S
C494 C495 1.377 . S
C494 C496 1.384 . S
C495 C494 1.377 . S
C495 C501 1.390 . S
C496 H487 0.930 . S
C496 C494 1.384 . S
C496 C497 1.372 . S
C497 C496 1.372 . S
C497 C498 1.400 . S
C497 C502 1.490 . S
C498 H488 0.930 . S
C498 C497 1.400 . S
C498 C501 1.386 . S
H499 C515 0.930 1_545 S
H500 C516 0.931 . S
C501 H489 0.929 . S
C501 C495 1.390 . S
C501 C498 1.386 . S
C502 C497 1.490 . S
C502 C504 1.395 . S
C502 C505 1.403 . S
H503 C509 0.930 . S
C504 H490 0.930 . S
C504 C502 1.395 . S
C504 C507 1.403 . S
C505 C502 1.403 . S
C505 C506 1.524 . S
C505 C509 1.400 . S
C506 H491 0.960 . S
C506 H492 0.960 . S
C506 H493 0.960 . S
C506 C505 1.524 . S
C507 C504 1.403 . S
C507 C508 1.392 . S
C507 C511 1.495 1_545 S
C508 C507 1.392 . S
C508 C509 1.385 . S
C508 C510 1.478 . S
C509 H503 0.930 . S
C509 C505 1.400 . S
C509 C508 1.385 . S
C510 C508 1.478 . S
C510 C512 1.381 1_545 S
C510 C516 1.383 . S
C511 C507 1.495 1_565 S
C511 H517 0.959 . S
C511 H518 0.961 . S
C511 H519 0.960 . S
C512 C510 1.381 1_565 S
C512 C513 1.394 . S
C512 H520 0.930 . S
C513 C512 1.394 . S
C513 C514 1.383 . S
C513 H521 0.929 . S
C514 C513 1.383 . S
C514 C515 1.377 . S
C515 H499 0.930 1_565 S
C515 C514 1.377 . S
C515 C516 1.379 1_565 S
C516 H500 0.931 . S
C516 C510 1.383 . S
C516 C515 1.379 1_545 S
H517 C511 0.959 . S
H518 C511 0.961 . S
H519 C511 0.960 . S
H520 C512 0.930 . S
H521 C513 0.929 . S
H522 C530 0.929 . S
H523 C532 0.930 . S
H524 C534 0.930 . S
H525 C537 0.929 . S
H526 C540 0.930 . S
H527 C542 0.960 . S
H528 C542 0.960 . S
H529 C542 0.960 . S
C530 H522 0.929 . S
C530 C531 1.377 . S
C530 C532 1.384 . S
C531 C530 1.377 . S
C531 C537 1.390 . S
C532 H523 0.930 . S
C532 C530 1.384 . S
C532 C533 1.372 . S
C533 C532 1.372 . S
C533 C534 1.400 . S
C533 C538 1.490 . S
C534 H524 0.930 . S
C534 C533 1.400 . S
C534 C537 1.386 . S
H535 C551 0.930 . S
H536 C552 0.931 . S
C537 H525 0.929 . S
C537 C531 1.390 . S
C537 C534 1.386 . S
C538 C533 1.490 . S
C538 C540 1.395 . S
C538 C541 1.403 . S
H539 C545 0.930 . S
C540 H526 0.930 . S
C540 C538 1.395 . S
C540 C543 1.403 . S
C541 C538 1.403 . S
C541 C542 1.524 . S
C541 C545 1.400 . S
C542 H527 0.960 . S
C542 H528 0.960 . S
C542 H529 0.960 . S
C542 C541 1.524 . S
C543 C540 1.403 . S
C543 C544 1.392 . S
C543 C547 1.495 . S
C544 C543 1.392 . S
C544 C545 1.385 . S
C544 C546 1.478 . S
C545 H539 0.930 . S
C545 C541 1.400 . S
C545 C544 1.385 . S
C546 C544 1.478 . S
C546 C548 1.381 . S
C546 C552 1.383 1_545 S
C547 C543 1.495 . S
C547 H553 0.959 . S
C547 H554 0.961 . S
C547 H555 0.960 . S
C548 C546 1.381 . S
C548 C549 1.394 . S
C548 H556 0.930 . S
C549 C548 1.394 . S
C549 C550 1.383 1_545 S
C549 H557 0.929 . S
C550 C549 1.383 1_565 S
C550 C551 1.377 . S
C551 H535 0.930 . S
C551 C550 1.377 . S
C551 C552 1.379 . S
C552 H536 0.931 . S
C552 C546 1.383 1_565 S
C552 C551 1.379 . S
H553 C547 0.959 . S
H554 C547 0.961 . S
H555 C547 0.960 . S
H556 C548 0.930 . S
H557 C549 0.929 . S
H558 C566 0.929 . S
H559 C568 0.930 . S
H560 C570 0.930 . S
H561 C573 0.929 . S
H562 C576 0.930 . S
H563 C578 0.960 . S
H564 C578 0.960 . S
H565 C578 0.960 1_455 S
C566 H558 0.929 . S
C566 C567 1.377 1_655 S
C566 C568 1.384 . S
C567 C566 1.377 1_455 S
C567 C573 1.390 . S
C568 H559 0.930 . S
C568 C566 1.384 . S
C568 C569 1.372 . S
C569 C568 1.372 . S
C569 C570 1.400 1_655 S
C569 C574 1.490 . S
C570 H560 0.930 . S
C570 C569 1.400 1_455 S
C570 C573 1.386 . S
H571 C587 0.930 . S
H572 C588 0.931 . S
C573 H561 0.929 . S
C573 C567 1.390 . S
C573 C570 1.386 . S
C574 C569 1.490 . S
C574 C576 1.395 . S
C574 C577 1.403 . S
H575 C581 0.930 . S
C576 H562 0.930 . S
C576 C574 1.395 . S
C576 C579 1.403 . S
C577 C574 1.403 . S
C577 C578 1.524 . S
C577 C581 1.400 . S
C578 H563 0.960 . S
C578 H564 0.960 . S
C578 H565 0.960 1_655 S
C578 C577 1.524 . S
C579 C576 1.403 . S
C579 C580 1.392 . S
C579 C583 1.495 . S
C580 C579 1.392 . S
C580 C581 1.385 . S
C580 C582 1.478 . S
C581 H575 0.930 . S
C581 C577 1.400 . S
C581 C580 1.385 . S
C582 C580 1.478 . S
C582 C584 1.381 . S
C582 C588 1.383 . S
C583 C579 1.495 . S
C583 H589 0.959 . S
C583 H590 0.961 . S
C583 H591 0.960 . S
C584 C582 1.381 . S
C584 C585 1.394 . S
C584 H592 0.930 . S
C585 C584 1.394 . S
C585 C586 1.383 . S
C585 H593 0.929 . S
C586 C585 1.383 . S
C586 C587 1.377 . S
C587 H571 0.930 . S
C587 C586 1.377 . S
C587 C588 1.379 . S
C588 H572 0.931 . S
C588 C582 1.383 . S
C588 C587 1.379 . S
H589 C583 0.959 . S
H590 C583 0.961 . S
H591 C583 0.960 . S
H592 C584 0.930 . S
H593 C585 0.929 . S
H594 C602 0.929 . S
H595 C604 0.930 . S
H596 C606 0.930 . S
H597 C609 0.929 . S
H598 C612 0.930 . S
H599 C614 0.960 . S
H600 C614 0.960 . S
H601 C614 0.960 . S
C602 H594 0.929 . S
C602 C603 1.377 . S
C602 C604 1.384 . S
C603 C602 1.377 . S
C603 C609 1.390 . S
C604 H595 0.930 . S
C604 C602 1.384 . S
C604 C605 1.372 . S
C605 C604 1.372 . S
C605 C606 1.400 . S
C605 C610 1.490 . S
C606 H596 0.930 . S
C606 C605 1.400 . S
C606 C609 1.386 . S
H607 C623 0.930 . S
H608 C624 0.931 . S
C609 H597 0.929 . S
C609 C603 1.390 . S
C609 C606 1.386 . S
C610 C605 1.490 . S
C610 C612 1.395 . S
C610 C613 1.403 . S
H611 C617 0.930 . S
C612 H598 0.930 . S
C612 C610 1.395 . S
C612 C615 1.403 . S
C613 C610 1.403 . S
C613 C614 1.524 . S
C613 C617 1.400 . S
C614 H599 0.960 . S
C614 H600 0.960 . S
C614 H601 0.960 . S
C614 C613 1.524 . S
C615 C612 1.403 . S
C615 C616 1.392 . S
C615 C619 1.495 . S
C616 C615 1.392 . S
C616 C617 1.385 . S
C616 C618 1.478 . S
C617 H611 0.930 . S
C617 C613 1.400 . S
C617 C616 1.385 . S
C618 C616 1.478 . S
C618 C620 1.381 . S
C618 C624 1.383 . S
C619 C615 1.495 . S
C619 H625 0.959 . S
C619 H626 0.961 . S
C619 H627 0.960 . S
C620 C618 1.381 . S
C620 C621 1.394 . S
C620 H628 0.930 . S
C621 C620 1.394 . S
C621 C622 1.383 . S
C621 H629 0.929 . S
C622 C621 1.383 . S
C622 C623 1.377 . S
C623 H607 0.930 . S
C623 C622 1.377 . S
C623 C624 1.379 . S
C624 H608 0.931 . S
C624 C618 1.383 . S
C624 C623 1.379 . S
H625 C619 0.959 . S
H626 C619 0.961 . S
H627 C619 0.960 . S
H628 C620 0.930 . S
H629 C621 0.929 . S
H630 C638 0.929 . S
H631 C640 0.930 . S
H632 C642 0.930 . S
H633 C645 0.929 . S
H634 C648 0.930 . S
H635 C650 0.960 . S
H636 C650 0.960 . S
H637 C650 0.960 . S
C638 H630 0.929 . S
C638 C639 1.377 . S
C638 C640 1.384 . S
C639 C638 1.377 . S
C639 C645 1.390 . S
C640 H631 0.930 . S
C640 C638 1.384 . S
C640 C641 1.372 . S
C641 C640 1.372 . S
C641 C642 1.400 . S
C641 C646 1.490 . S
C642 H632 0.930 . S
C642 C641 1.400 . S
C642 C645 1.386 . S
H643 C659 0.930 . S
H644 C660 0.931 . S
C645 H633 0.929 . S
C645 C639 1.390 . S
C645 C642 1.386 . S
C646 C641 1.490 . S
C646 C648 1.395 . S
C646 C649 1.403 . S
H647 C653 0.930 . S
C648 H634 0.930 . S
C648 C646 1.395 . S
C648 C651 1.403 . S
C649 C646 1.403 . S
C649 C650 1.524 . S
C649 C653 1.400 . S
C650 H635 0.960 . S
C650 H636 0.960 . S
C650 H637 0.960 . S
C650 C649 1.524 . S
C651 C648 1.403 . S
C651 C652 1.392 . S
C651 C655 1.495 . S
C652 C651 1.392 . S
C652 C653 1.385 . S
C652 C654 1.478 . S
C653 H647 0.930 . S
C653 C649 1.400 . S
C653 C652 1.385 . S
C654 C652 1.478 . S
C654 C656 1.381 . S
C654 C660 1.383 . S
C655 C651 1.495 . S
C655 H661 0.959 . S
C655 H662 0.961 . S
C655 H663 0.960 . S
C656 C654 1.381 . S
C656 C657 1.394 . S
C656 H664 0.930 . S
C657 C656 1.394 . S
C657 C658 1.383 . S
C657 H665 0.929 . S
C658 C657 1.383 . S
C658 C659 1.377 . S
C659 H643 0.930 . S
C659 C658 1.377 . S
C659 C660 1.379 . S
C660 H644 0.931 . S
C660 C654 1.383 . S
C660 C659 1.379 . S
H661 C655 0.959 . S
H662 C655 0.961 . S
H663 C655 0.960 . S
H664 C656 0.930 . S
H665 C657 0.929 . S
H666 C674 0.929 . S
H667 C676 0.930 . S
H668 C678 0.930 . S
H669 C681 0.929 . S
H670 C684 0.930 . S
H671 C686 0.960 . S
H672 C686 0.960 . S
H673 C686 0.960 . S
C674 H666 0.929 . S
C674 C675 1.377 . S
C674 C676 1.384 . S
C675 C674 1.377 . S
C675 C681 1.390 . S
C676 H667 0.930 . S
C676 C674 1.384 . S
C676 C677 1.372 . S
C677 C676 1.372 . S
C677 C678 1.400 . S
C677 C682 1.490 . S
C678 H668 0.930 . S
C678 C677 1.400 . S
C678 C681 1.386 . S
H679 C695 0.930 . S
H680 C696 0.931 . S
C681 H669 0.929 . S
C681 C675 1.390 . S
C681 C678 1.386 . S
C682 C677 1.490 . S
C682 C684 1.395 . S
C682 C685 1.403 . S
H683 C689 0.930 . S
C684 H670 0.930 . S
C684 C682 1.395 . S
C684 C687 1.403 . S
C685 C682 1.403 . S
C685 C686 1.524 . S
C685 C689 1.400 . S
C686 H671 0.960 . S
C686 H672 0.960 . S
C686 H673 0.960 . S
C686 C685 1.524 . S
C687 C684 1.403 . S
C687 C688 1.392 . S
C687 C691 1.495 . S
C688 C687 1.392 . S
C688 C689 1.385 . S
C688 C690 1.478 . S
C689 H683 0.930 . S
C689 C685 1.400 . S
C689 C688 1.385 . S
C690 C688 1.478 . S
C690 C692 1.381 . S
C690 C696 1.383 . S
C691 C687 1.495 . S
C691 H697 0.959 . S
C691 H698 0.961 . S
C691 H699 0.960 . S
C692 C690 1.381 . S
C692 C693 1.394 . S
C692 H700 0.930 . S
C693 C692 1.394 . S
C693 C694 1.383 . S
C693 H701 0.929 . S
C694 C693 1.383 . S
C694 C695 1.377 . S
C695 H679 0.930 . S
C695 C694 1.377 . S
C695 C696 1.379 . S
C696 H680 0.931 . S
C696 C690 1.383 . S
C696 C695 1.379 . S
H697 C691 0.959 . S
H698 C691 0.961 . S
H699 C691 0.960 . S
H700 C692 0.930 . S
H701 C693 0.929 . S
H702 C710 0.929 . S
H703 C712 0.930 . S
H704 C714 0.930 . S
H705 C717 0.929 . S
H706 C720 0.930 . S
H707 C722 0.960 . S
H708 C722 0.960 . S
H709 C722 0.960 . S
C710 H702 0.929 . S
C710 C711 1.377 . S
C710 C712 1.384 . S
C711 C710 1.377 . S
C711 C717 1.390 . S
C712 H703 0.930 . S
C712 C710 1.384 . S
C712 C713 1.372 . S
C713 C712 1.372 . S
C713 C714 1.400 . S
C713 C718 1.490 . S
C714 H704 0.930 . S
C714 C713 1.400 . S
C714 C717 1.386 . S
H715 C731 0.930 . S
H716 C732 0.931 . S
C717 H705 0.929 . S
C717 C711 1.390 . S
C717 C714 1.386 . S
C718 C713 1.490 . S
C718 C720 1.395 . S
C718 C721 1.403 . S
H719 C725 0.930 . S
C720 H706 0.930 . S
C720 C718 1.395 . S
C720 C723 1.403 . S
C721 C718 1.403 . S
C721 C722 1.524 . S
C721 C725 1.400 . S
C722 H707 0.960 . S
C722 H708 0.960 . S
C722 H709 0.960 . S
C722 C721 1.524 . S
C723 C720 1.403 . S
C723 C724 1.392 . S
C723 C727 1.495 . S
C724 C723 1.392 . S
C724 C725 1.385 . S
C724 C726 1.478 . S
C725 H719 0.930 . S
C725 C721 1.400 . S
C725 C724 1.385 . S
C726 C724 1.478 . S
C726 C728 1.381 . S
C726 C732 1.383 . S
C727 C723 1.495 . S
C727 H733 0.959 . S
C727 H734 0.961 . S
C727 H735 0.960 . S
C728 C726 1.381 . S
C728 C729 1.394 . S
C728 H736 0.930 . S
C729 C728 1.394 . S
C729 C730 1.383 . S
C729 H737 0.929 . S
C730 C729 1.383 . S
C730 C731 1.377 . S
C731 H715 0.930 . S
C731 C730 1.377 . S
C731 C732 1.379 . S
C732 H716 0.931 . S
C732 C726 1.383 . S
C732 C731 1.379 . S
H733 C727 0.959 . S
H734 C727 0.961 . S
H735 C727 0.960 . S
H736 C728 0.930 . S
H737 C729 0.929 . S
H738 C746 0.929 . S
H739 C748 0.930 . S
H740 C750 0.930 . S
H741 C753 0.929 . S
H742 C756 0.930 . S
H743 C758 0.960 . S
H744 C758 0.960 . S
H745 C758 0.960 . S
C746 H738 0.929 . S
C746 C747 1.377 . S
C746 C748 1.384 . S
C747 C746 1.377 . S
C747 C753 1.390 . S
C748 H739 0.930 . S
C748 C746 1.384 . S
C748 C749 1.372 . S
C749 C748 1.372 . S
C749 C750 1.400 . S
C749 C754 1.490 . S
C750 H740 0.930 . S
C750 C749 1.400 . S
C750 C753 1.386 . S
H751 C767 0.930 . S
H752 C768 0.931 . S
C753 H741 0.929 . S
C753 C747 1.390 . S
C753 C750 1.386 . S
C754 C749 1.490 . S
C754 C756 1.395 . S
C754 C757 1.403 . S
H755 C761 0.930 . S
C756 H742 0.930 . S
C756 C754 1.395 . S
C756 C759 1.403 . S
C757 C754 1.403 . S
C757 C758 1.524 . S
C757 C761 1.400 . S
C758 H743 0.960 . S
C758 H744 0.960 . S
C758 H745 0.960 . S
C758 C757 1.524 . S
C759 C756 1.403 . S
C759 C760 1.392 . S
C759 C763 1.495 . S
C760 C759 1.392 . S
C760 C761 1.385 . S
C760 C762 1.478 . S
C761 H755 0.930 . S
C761 C757 1.400 . S
C761 C760 1.385 . S
C762 C760 1.478 . S
C762 C764 1.381 . S
C762 C768 1.383 . S
C763 C759 1.495 . S
C763 H769 0.959 . S
C763 H770 0.961 . S
C763 H771 0.960 . S
C764 C762 1.381 . S
C764 C765 1.394 . S
C764 H772 0.930 . S
C765 C764 1.394 . S
C765 C766 1.383 . S
C765 H773 0.929 . S
C766 C765 1.383 . S
C766 C767 1.377 . S
C767 H751 0.930 . S
C767 C766 1.377 . S
C767 C768 1.379 . S
C768 H752 0.931 . S
C768 C762 1.383 . S
C768 C767 1.379 . S
H769 C763 0.959 . S
H770 C763 0.961 . S
H771 C763 0.960 . S
H772 C764 0.930 . S
H773 C765 0.929 . S
H774 C782 0.929 . S
H775 C784 0.930 . S
H776 C786 0.930 . S
H777 C789 0.929 . S
H778 C792 0.930 . S
H779 C794 0.960 . S
H780 C794 0.960 . S
H781 C794 0.960 . S
C782 H774 0.929 . S
C782 C783 1.377 . S
C782 C784 1.384 . S
C783 C782 1.377 . S
C783 C789 1.390 . S
C784 H775 0.930 . S
C784 C782 1.384 . S
C784 C785 1.372 . S
C785 C784 1.372 . S
C785 C786 1.400 . S
C785 C790 1.490 . S
C786 H776 0.930 . S
C786 C785 1.400 . S
C786 C789 1.386 . S
H787 C803 0.930 . S
H788 C804 0.931 . S
C789 H777 0.929 . S
C789 C783 1.390 . S
C789 C786 1.386 . S
C790 C785 1.490 . S
C790 C792 1.395 . S
C790 C793 1.403 . S
H791 C797 0.930 . S
C792 H778 0.930 . S
C792 C790 1.395 . S
C792 C795 1.403 . S
C793 C790 1.403 . S
C793 C794 1.524 . S
C793 C797 1.400 . S
C794 H779 0.960 . S
C794 H780 0.960 . S
C794 H781 0.960 . S
C794 C793 1.524 . S
C795 C792 1.403 . S
C795 C796 1.392 . S
C795 C799 1.495 . S
C796 C795 1.392 . S
C796 C797 1.385 . S
C796 C798 1.478 . S
C797 H791 0.930 . S
C797 C793 1.400 . S
C797 C796 1.385 . S
C798 C796 1.478 . S
C798 C800 1.381 . S
C798 C804 1.383 . S
C799 C795 1.495 . S
C799 H805 0.959 . S
C799 H806 0.961 . S
C799 H807 0.960 . S
C800 C798 1.381 . S
C800 C801 1.394 . S
C800 H808 0.930 . S
C801 C800 1.394 . S
C801 C802 1.383 . S
C801 H809 0.929 . S
C802 C801 1.383 . S
C802 C803 1.377 . S
C803 H787 0.930 . S
C803 C802 1.377 . S
C803 C804 1.379 . S
C804 H788 0.931 . S
C804 C798 1.383 . S
C804 C803 1.379 . S
H805 C799 0.959 . S
H806 C799 0.961 . S
H807 C799 0.960 . S
H808 C800 0.930 . S
H809 C801 0.929 . S
H810 C818 0.929 . S
H811 C820 0.930 . S
H812 C822 0.930 . S
H813 C825 0.929 . S
H814 C828 0.930 . S
H815 C830 0.960 . S
H816 C830 0.960 . S
H817 C830 0.960 . S
C818 H810 0.929 . S
C818 C819 1.377 . S
C818 C820 1.384 . S
C819 C818 1.377 . S
C819 C825 1.390 . S
C820 H811 0.930 . S
C820 C818 1.384 . S
C820 C821 1.372 . S
C821 C820 1.372 . S
C821 C822 1.400 . S
C821 C826 1.490 . S
C822 H812 0.930 . S
C822 C821 1.400 . S
C822 C825 1.386 . S
H823 C839 0.930 . S
H824 C840 0.931 . S
C825 H813 0.929 . S
C825 C819 1.390 . S
C825 C822 1.386 . S
C826 C821 1.490 . S
C826 C828 1.395 . S
C826 C829 1.403 . S
H827 C833 0.930 . S
C828 H814 0.930 . S
C828 C826 1.395 . S
C828 C831 1.403 . S
C829 C826 1.403 . S
C829 C830 1.524 . S
C829 C833 1.400 . S
C830 H815 0.960 . S
C830 H816 0.960 . S
C830 H817 0.960 . S
C830 C829 1.524 . S
C831 C828 1.403 . S
C831 C832 1.392 . S
C831 C835 1.495 . S
C832 C831 1.392 . S
C832 C833 1.385 . S
C832 C834 1.478 . S
C833 H827 0.930 . S
C833 C829 1.400 . S
C833 C832 1.385 . S
C834 C832 1.478 . S
C834 C836 1.381 . S
C834 C840 1.383 . S
C835 C831 1.495 . S
C835 H841 0.959 . S
C835 H842 0.961 . S
C835 H843 0.960 . S
C836 C834 1.381 . S
C836 C837 1.394 . S
C836 H844 0.930 . S
C837 C836 1.394 . S
C837 C838 1.383 . S
C837 H845 0.929 . S
C838 C837 1.383 . S
C838 C839 1.377 . S
C839 H823 0.930 . S
C839 C838 1.377 . S
C839 C840 1.379 . S
C840 H824 0.931 . S
C840 C834 1.383 . S
C840 C839 1.379 . S
H841 C835 0.959 . S
H842 C835 0.961 . S
H843 C835 0.960 . S
H844 C836 0.930 . S
H845 C837 0.929 . S
H846 C854 0.929 . S
H847 C856 0.930 . S
H848 C858 0.930 . S
H849 C861 0.929 . S
H850 C864 0.930 . S
H851 C866 0.960 . S
H852 C866 0.960 . S
H853 C866 0.960 . S
C854 H846 0.929 . S
C854 C855 1.377 . S
C854 C856 1.384 . S
C855 C854 1.377 . S
C855 C861 1.390 . S
C856 H847 0.930 . S
C856 C854 1.384 . S
C856 C857 1.372 . S
C857 C856 1.372 . S
C857 C858 1.400 . S
C857 C862 1.490 . S
C858 H848 0.930 . S
C858 C857 1.400 . S
C858 C861 1.386 . S
H859 C875 0.930 . S
H860 C876 0.930 1_554 S
C861 H849 0.929 . S
C861 C855 1.390 . S
C861 C858 1.386 . S
C862 C857 1.490 . S
C862 C864 1.395 1_556 S
C862 C865 1.403 . S
H863 C869 0.930 . S
C864 H850 0.930 . S
C864 C862 1.395 1_554 S
C864 C867 1.403 . S
C865 C862 1.403 . S
C865 C866 1.524 . S
C865 C869 1.400 . S
C866 H851 0.960 . S
C866 H852 0.960 . S
C866 H853 0.960 . S
C866 C865 1.524 . S
C867 C864 1.403 . S
C867 C868 1.392 1_554 S
C867 C871 1.495 . S
C868 C867 1.392 1_556 S
C868 C869 1.385 . S
C868 C870 1.478 . S
C869 H863 0.930 . S
C869 C865 1.400 . S
C869 C868 1.385 . S
C870 C868 1.478 . S
C870 C872 1.381 . S
C870 C876 1.383 . S
C871 C867 1.495 . S
C871 H877 0.959 . S
C871 H878 0.961 . S
C871 H879 0.960 . S
C872 C870 1.381 . S
C872 C873 1.394 . S
C872 H880 0.930 . S
C873 C872 1.394 . S
C873 C874 1.383 . S
C873 H881 0.929 . S
C874 C873 1.383 . S
C874 C875 1.377 . S
C875 H859 0.930 . S
C875 C874 1.377 . S
C875 C876 1.379 . S
C876 H860 0.930 1_556 S
C876 C870 1.383 . S
C876 C875 1.379 . S
H877 C871 0.959 . S
H878 C871 0.961 . S
H879 C871 0.960 . S
H880 C872 0.930 . S
H881 C873 0.929 . S
H882 C890 0.929 . S
H883 C892 0.930 . S
H884 C894 0.930 . S
H885 C897 0.929 . S
H886 C900 0.930 . S
H887 C902 0.960 . S
H888 C902 0.960 . S
H889 C902 0.960 . S
C890 H882 0.929 . S
C890 C891 1.377 . S
C890 C892 1.384 . S
C891 C890 1.377 . S
C891 C897 1.390 1_556 S
C892 H883 0.930 . S
C892 C890 1.384 . S
C892 C893 1.372 . S
C893 C892 1.372 . S
C893 C894 1.400 1_556 S
C893 C898 1.490 . S
C894 H884 0.930 . S
C894 C893 1.400 1_554 S
C894 C897 1.386 . S
H895 C911 0.930 . S
H896 C912 0.931 . S
C897 H885 0.929 . S
C897 C891 1.390 1_554 S
C897 C894 1.386 . S
C898 C893 1.490 . S
C898 C900 1.395 . S
C898 C901 1.403 1_556 S
H899 C905 0.930 . S
C900 H886 0.930 . S
C900 C898 1.395 . S
C900 C903 1.403 . S
C901 C898 1.403 1_554 S
C901 C902 1.524 . S
C901 C905 1.400 . S
C902 H887 0.960 . S
C902 H888 0.960 . S
C902 H889 0.960 . S
C902 C901 1.524 . S
C903 C900 1.403 . S
C903 C904 1.392 . S
C903 C907 1.495 . S
C904 C903 1.392 . S
C904 C905 1.385 1_556 S
C904 C906 1.478 . S
C905 H899 0.930 . S
C905 C901 1.400 . S
C905 C904 1.385 1_554 S
C906 C904 1.478 . S
C906 C908 1.381 . S
C906 C912 1.383 1_556 S
C907 C903 1.495 . S
C907 H913 0.959 . S
C907 H914 0.961 . S
C907 H915 0.960 . S
C908 C906 1.381 . S
C908 C909 1.394 . S
C908 H916 0.930 . S
C909 C908 1.394 . S
C909 C910 1.383 . S
C909 H917 0.929 . S
C910 C909 1.383 . S
C910 C911 1.377 1_556 S
C911 H895 0.930 . S
C911 C910 1.377 1_554 S
C911 C912 1.379 . S
C912 H896 0.931 . S
C912 C906 1.383 1_554 S
C912 C911 1.379 . S
H913 C907 0.959 . S
H914 C907 0.961 . S
H915 C907 0.960 . S
H916 C908 0.930 . S
H917 C909 0.929 . S
H918 C926 0.937 . S
H919 C928 0.930 . S
H920 C930 0.930 . S
H921 C933 0.929 . S
H922 C936 0.930 . S
H923 C938 0.960 . S
H924 C938 0.960 . S
H925 C938 0.960 . S
C926 H918 0.937 . S
C926 C927 1.371 1_554 S
C926 C928 1.384 . S
C927 C926 1.371 1_556 S
C927 C933 1.390 . S
C928 H919 0.930 . S
C928 C926 1.384 . S
C928 C929 1.372 1_554 S
C929 C928 1.372 1_556 S
C929 C930 1.400 . S
C929 C934 1.490 . S
C930 H920 0.930 . S
C930 C929 1.400 . S
C930 C933 1.386 . S
H931 C947 0.930 . S
H932 C948 0.931 . S
C933 H921 0.929 . S
C933 C927 1.390 . S
C933 C930 1.386 . S
C934 C929 1.490 . S
C934 C936 1.395 1_556 S
C934 C937 1.403 . S
H935 C941 0.930 . S
C936 H922 0.930 . S
C936 C934 1.395 1_554 S
C936 C939 1.403 . S
C937 C934 1.403 . S
C937 C938 1.524 . S
C937 C941 1.400 . S
C938 H923 0.960 . S
C938 H924 0.960 . S
C938 H925 0.960 . S
C938 C937 1.524 . S
C939 C936 1.403 . S
C939 C940 1.392 1_554 S
C939 C943 1.495 . S
C940 C939 1.392 1_556 S
C940 C941 1.385 . S
C940 C942 1.478 . S
C941 H935 0.930 . S
C941 C937 1.400 . S
C941 C940 1.385 . S
C942 C940 1.478 . S
C942 C944 1.381 1_556 S
C942 C948 1.383 . S
C943 C939 1.495 . S
C943 H949 0.959 . S
C943 H950 0.961 . S
C943 H951 0.960 . S
C944 C942 1.381 1_554 S
C944 C945 1.394 . S
C944 H952 0.930 . S
C945 C944 1.394 . S
C945 C946 1.383 1_554 S
C945 H953 0.929 . S
C946 C945 1.383 1_556 S
C946 C947 1.377 . S
C947 H931 0.930 . S
C947 C946 1.377 . S
C947 C948 1.379 . S
C948 H932 0.931 . S
C948 C942 1.383 . S
C948 C947 1.379 . S
H949 C943 0.959 . S
H950 C943 0.961 . S
H951 C943 0.960 . S
H952 C944 0.930 . S
H953 C945 0.929 . S
H954 C962 0.929 . S
H955 C964 0.930 . S
H956 C966 0.930 . S
H957 C969 0.929 . S
H958 C972 0.930 . S
H959 C974 0.960 . S
H960 C974 0.960 . S
H961 C974 0.960 . S
C962 H954 0.929 . S
C962 C963 1.377 . S
C962 C964 1.384 . S
C963 C962 1.377 . S
C963 C969 1.390 . S
C964 H955 0.930 . S
C964 C962 1.384 . S
C964 C965 1.372 . S
C965 C964 1.372 . S
C965 C966 1.400 . S
C965 C970 1.490 . S
C966 H956 0.930 . S
C966 C965 1.400 . S
C966 C969 1.386 . S
H967 C983 0.930 . S
H968 C984 0.931 . S
C969 H957 0.929 . S
C969 C963 1.390 . S
C969 C966 1.386 . S
C970 C965 1.490 . S
C970 C972 1.395 . S
C970 C973 1.403 . S
H971 C977 0.930 . S
C972 H958 0.930 . S
C972 C970 1.395 . S
C972 C975 1.403 . S
C973 C970 1.403 . S
C973 C974 1.524 . S
C973 C977 1.400 . S
C974 H959 0.960 . S
C974 H960 0.960 . S
C974 H961 0.960 . S
C974 C973 1.524 . S
C975 C972 1.403 . S
C975 C976 1.392 . S
C975 C979 1.495 . S
C976 C975 1.392 . S
C976 C977 1.385 . S
C976 C978 1.478 . S
C977 H971 0.930 . S
C977 C973 1.400 . S
C977 C976 1.385 . S
C978 C976 1.478 . S
C978 C980 1.381 . S
C978 C984 1.383 . S
C979 C975 1.495 . S
C979 H985 0.959 . S
C979 H986 0.961 . S
C979 H987 0.960 . S
C980 C978 1.381 . S
C980 C981 1.394 . S
C980 H988 0.930 . S
C981 C980 1.394 . S
C981 C982 1.383 . S
C981 H989 0.929 . S
C982 C981 1.383 . S
C982 C983 1.377 . S
C983 H967 0.930 . S
C983 C982 1.377 . S
C983 C984 1.379 . S
C984 H968 0.931 . S
C984 C978 1.383 . S
C984 C983 1.379 . S
H985 C979 0.959 . S
H986 C979 0.961 . S
H987 C979 0.960 . S
H988 C980 0.930 . S
H989 C981 0.929 . S
H990 C998 0.929 . S
H991 C1000 0.930 . S
H992 C1002 0.930 . S
H993 C1005 0.929 . S
H994 C1008 0.930 . S
H995 C1010 0.960 . S
H996 C1010 0.960 . S
H997 C1010 0.960 . S
C998 H990 0.929 . S
C998 C999 1.377 . S
C998 C1000 1.384 . S
C999 C998 1.377 . S
C999 C1005 1.390 . S
C1000 H991 0.930 . S
C1000 C998 1.384 . S
C1000 C1001 1.372 . S
C1001 C1000 1.372 . S
C1001 C1002 1.400 . S
C1001 C1006 1.490 . S
C1002 H992 0.930 . S
C1002 C1001 1.400 . S
C1002 C1005 1.386 . S
H1003 C1019 0.930 . S
H1004 C1020 0.931 . S
C1005 H993 0.929 . S
C1005 C999 1.390 . S
C1005 C1002 1.386 . S
C1006 C1001 1.490 . S
C1006 C1008 1.395 . S
C1006 C1009 1.403 . S
H1007 C1013 0.930 . S
C1008 H994 0.930 . S
C1008 C1006 1.395 . S
C1008 C1011 1.403 . S
C1009 C1006 1.403 . S
C1009 C1010 1.524 . S
C1009 C1013 1.400 . S
C1010 H995 0.960 . S
C1010 H996 0.960 . S
C1010 H997 0.960 . S
C1010 C1009 1.524 . S
C1011 C1008 1.403 . S
C1011 C1012 1.392 . S
C1011 C1015 1.495 . S
C1012 C1011 1.392 . S
C1012 C1013 1.385 . S
C1012 C1014 1.478 . S
C1013 H1007 0.930 . S
C1013 C1009 1.400 . S
C1013 C1012 1.385 . S
C1014 C1012 1.478 . S
C1014 C1016 1.381 . S
C1014 C1020 1.383 . S
C1015 C1011 1.495 . S
C1015 H1021 0.959 . S
C1015 H1022 0.961 . S
C1015 H1023 0.960 . S
C1016 C1014 1.381 . S
C1016 C1017 1.394 . S
C1016 H1024 0.930 . S
C1017 C1016 1.394 . S
C1017 C1018 1.383 . S
C1017 H1025 0.929 . S
C1018 C1017 1.383 . S
C1018 C1019 1.377 . S
C1019 H1003 0.930 . S
C1019 C1018 1.377 . S
C1019 C1020 1.379 . S
C1020 H1004 0.931 . S
C1020 C1014 1.383 . S
C1020 C1019 1.379 . S
H1021 C1015 0.959 . S
H1022 C1015 0.961 . S
H1023 C1015 0.960 . S
H1024 C1016 0.930 . S
H1025 C1017 0.929 . S
H1026 C1034 0.929 . S
H1027 C1036 0.930 . S
H1028 C1038 0.930 . S
H1029 C1041 0.929 . S
H1030 C1044 0.930 . S
H1031 C1046 0.960 . S
H1032 C1046 0.960 . S
H1033 C1046 0.960 . S
C1034 H1026 0.929 . S
C1034 C1035 1.377 . S
C1034 C1036 1.384 . S
C1035 C1034 1.377 . S
C1035 C1041 1.390 . S
C1036 H1027 0.930 . S
C1036 C1034 1.384 . S
C1036 C1037 1.372 . S
C1037 C1036 1.372 . S
C1037 C1038 1.400 . S
C1037 C1042 1.490 . S
C1038 H1028 0.930 . S
C1038 C1037 1.400 . S
C1038 C1041 1.386 . S
H1039 C1055 0.930 . S
H1040 C1056 0.931 . S
C1041 H1029 0.929 . S
C1041 C1035 1.390 . S
C1041 C1038 1.386 . S
C1042 C1037 1.490 . S
C1042 C1044 1.395 . S
C1042 C1045 1.403 . S
H1043 C1049 0.930 . S
C1044 H1030 0.930 . S
C1044 C1042 1.395 . S
C1044 C1047 1.403 . S
C1045 C1042 1.403 . S
C1045 C1046 1.524 . S
C1045 C1049 1.400 . S
C1046 H1031 0.960 . S
C1046 H1032 0.960 . S
C1046 H1033 0.960 . S
C1046 C1045 1.524 . S
C1047 C1044 1.403 . S
C1047 C1048 1.392 . S
C1047 C1051 1.495 . S
C1048 C1047 1.392 . S
C1048 C1049 1.385 . S
C1048 C1050 1.478 . S
C1049 H1043 0.930 . S
C1049 C1045 1.400 . S
C1049 C1048 1.385 . S
C1050 C1048 1.478 . S
C1050 C1052 1.381 . S
C1050 C1056 1.383 . S
C1051 C1047 1.495 . S
C1051 H1057 0.959 . S
C1051 H1058 0.961 . S
C1051 H1059 0.960 . S
C1052 C1050 1.381 . S
C1052 C1053 1.394 . S
C1052 H1060 0.930 . S
C1053 C1052 1.394 . S
C1053 C1054 1.383 . S
C1053 H1061 0.929 . S
C1054 C1053 1.383 . S
C1054 C1055 1.377 . S
C1055 H1039 0.930 . S
C1055 C1054 1.377 . S
C1055 C1056 1.379 . S
C1056 H1040 0.931 . S
C1056 C1050 1.383 . S
C1056 C1055 1.379 . S
H1057 C1051 0.959 . S
H1058 C1051 0.961 . S
H1059 C1051 0.960 . S
H1060 C1052 0.930 . S
H1061 C1053 0.929 . S
H1062 C1070 0.929 . S
H1063 C1072 0.930 . S
H1064 C1074 0.930 . S
H1065 C1077 0.929 . S
H1066 C1080 0.930 . S
H1067 C1082 0.960 . S
H1068 C1082 0.960 . S
H1069 C1082 0.960 . S
C1070 H1062 0.929 . S
C1070 C1071 1.377 . S
C1070 C1072 1.384 1_455 S
C1071 C1070 1.377 . S
C1071 C1077 1.390 . S
C1072 H1063 0.930 . S
C1072 C1070 1.384 1_655 S
C1072 C1073 1.372 . S
C1073 C1072 1.372 . S
C1073 C1074 1.400 1_655 S
C1073 C1078 1.490 . S
C1074 H1064 0.930 . S
C1074 C1073 1.400 1_455 S
C1074 C1077 1.386 . S
H1075 C1091 0.930 . S
H1076 C1092 0.931 . S
C1077 H1065 0.929 . S
C1077 C1071 1.390 . S
C1077 C1074 1.386 . S
C1078 C1073 1.490 . S
C1078 C1080 1.395 . S
C1078 C1081 1.403 . S
H1079 C1085 0.930 . S
C1080 H1066 0.930 . S
C1080 C1078 1.395 . S
C1080 C1083 1.403 . S
C1081 C1078 1.403 . S
C1081 C1082 1.524 . S
C1081 C1085 1.400 . S
C1082 H1067 0.960 . S
C1082 H1068 0.960 . S
C1082 H1069 0.960 . S
C1082 C1081 1.524 . S
C1083 C1080 1.403 . S
C1083 C1084 1.392 . S
C1083 C1087 1.495 . S
C1084 C1083 1.392 . S
C1084 C1085 1.385 . S
C1084 C1086 1.478 . S
C1085 H1079 0.930 . S
C1085 C1081 1.400 . S
C1085 C1084 1.385 . S
C1086 C1084 1.478 . S
C1086 C1088 1.381 . S
C1086 C1092 1.383 . S
C1087 C1083 1.495 . S
C1087 H1093 0.959 . S
C1087 H1094 0.961 . S
C1087 H1095 0.960 . S
C1088 C1086 1.381 . S
C1088 C1089 1.394 . S
C1088 H1096 0.930 . S
C1089 C1088 1.394 . S
C1089 C1090 1.383 . S
C1089 H1097 0.929 . S
C1090 C1089 1.383 . S
C1090 C1091 1.377 . S
C1091 H1075 0.930 . S
C1091 C1090 1.377 . S
C1091 C1092 1.379 . S
C1092 H1076 0.931 . S
C1092 C1086 1.383 . S
C1092 C1091 1.379 . S
H1093 C1087 0.959 . S
H1094 C1087 0.961 . S
H1095 C1087 0.960 . S
H1096 C1088 0.930 . S
H1097 C1089 0.929 . S
H1098 C1106 0.929 . S
H1099 C1108 0.930 . S
H1100 C1110 0.930 . S
H1101 C1113 0.929 . S
H1102 C1116 0.930 . S
H1103 C1118 0.960 . S
H1104 C1118 0.960 . S
H1105 C1118 0.960 . S
C1106 H1098 0.929 . S
C1106 C1107 1.377 . S
C1106 C1108 1.384 . S
C1107 C1106 1.377 . S
C1107 C1113 1.390 . S
C1108 H1099 0.930 . S
C1108 C1106 1.384 . S
C1108 C1109 1.372 1_565 S
C1109 C1108 1.372 1_545 S
C1109 C1110 1.400 . S
C1109 C1114 1.490 . S
C1110 H1100 0.930 . S
C1110 C1109 1.400 . S
C1110 C1113 1.386 1_545 S
H1111 C1127 0.930 . S
H1112 C1128 0.931 . S
C1113 H1101 0.929 . S
C1113 C1107 1.390 . S
C1113 C1110 1.386 1_565 S
C1114 C1109 1.490 . S
C1114 C1116 1.395 . S
C1114 C1117 1.403 . S
H1115 C1121 0.930 . S
C1116 H1102 0.930 . S
C1116 C1114 1.395 . S
C1116 C1119 1.403 . S
C1117 C1114 1.403 . S
C1117 C1118 1.524 . S
C1117 C1121 1.400 . S
C1118 H1103 0.960 . S
C1118 H1104 0.960 . S
C1118 H1105 0.960 . S
C1118 C1117 1.524 . S
C1119 C1116 1.403 . S
C1119 C1120 1.392 . S
C1119 C1123 1.495 . S
C1120 C1119 1.392 . S
C1120 C1121 1.385 . S
C1120 C1122 1.478 . S
C1121 H1115 0.930 . S
C1121 C1117 1.400 . S
C1121 C1120 1.385 . S
C1122 C1120 1.478 . S
C1122 C1124 1.381 . S
C1122 C1128 1.383 . S
C1123 C1119 1.495 . S
C1123 H1129 0.959 . S
C1123 H1130 0.961 . S
C1123 H1131 0.960 . S
C1124 C1122 1.381 . S
C1124 C1125 1.394 . S
C1124 H1132 0.930 . S
C1125 C1124 1.394 . S
C1125 C1126 1.383 . S
C1125 H1133 0.929 . S
C1126 C1125 1.383 . S
C1126 C1127 1.377 . S
C1127 H1111 0.930 . S
C1127 C1126 1.377 . S
C1127 C1128 1.379 . S
C1128 H1112 0.931 . S
C1128 C1122 1.383 . S
C1128 C1127 1.379 . S
H1129 C1123 0.959 . S
H1130 C1123 0.961 . S
H1131 C1123 0.960 . S
H1132 C1124 0.930 . S
H1133 C1125 0.929 . S
H1134 C1142 0.929 . S
H1135 C1144 0.930 . S
H1136 C1146 0.930 . S
H1137 C1149 0.929 . S
H1138 C1152 0.930 . S
H1139 C1154 0.960 . S
H1140 C1154 0.960 . S
H1141 C1154 0.960 . S
C1142 H1134 0.929 . S
C1142 C1143 1.377 . S
C1142 C1144 1.384 . S
C1143 C1142 1.377 . S
C1143 C1149 1.390 . S
C1144 H1135 0.930 . S
C1144 C1142 1.384 . S
C1144 C1145 1.372 1_565 S
C1145 C1144 1.372 1_545 S
C1145 C1146 1.400 . S
C1145 C1150 1.490 . S
C1146 H1136 0.930 . S
C1146 C1145 1.400 . S
C1146 C1149 1.386 1_545 S
H1147 C1163 0.930 . S
H1148 C1164 0.931 . S
C1149 H1137 0.929 . S
C1149 C1143 1.390 . S
C1149 C1146 1.386 1_565 S
C1150 C1145 1.490 . S
C1150 C1152 1.395 . S
C1150 C1153 1.403 . S
H1151 C1157 0.930 . S
C1152 H1138 0.930 . S
C1152 C1150 1.395 . S
C1152 C1155 1.403 . S
C1153 C1150 1.403 . S
C1153 C1154 1.524 . S
C1153 C1157 1.400 . S
C1154 H1139 0.960 . S
C1154 H1140 0.960 . S
C1154 H1141 0.960 . S
C1154 C1153 1.524 . S
C1155 C1152 1.403 . S
C1155 C1156 1.392 . S
C1155 C1159 1.495 . S
C1156 C1155 1.392 . S
C1156 C1157 1.385 . S
C1156 C1158 1.478 . S
C1157 H1151 0.930 . S
C1157 C1153 1.400 . S
C1157 C1156 1.385 . S
C1158 C1156 1.478 . S
C1158 C1160 1.381 1_655 S
C1158 C1164 1.383 . S
C1159 C1155 1.495 . S
C1159 H1165 0.959 . S
C1159 H1166 0.961 . S
C1159 H1167 0.960 . S
C1160 C1158 1.381 1_455 S
C1160 C1161 1.394 . S
C1160 H1168 0.930 . S
C1161 C1160 1.394 . S
C1161 C1162 1.383 . S
C1161 H1169 0.929 . S
C1162 C1161 1.383 . S
C1162 C1163 1.377 . S
C1163 H1147 0.930 . S
C1163 C1162 1.377 . S
C1163 C1164 1.379 1_455 S
C1164 H1148 0.931 . S
C1164 C1158 1.383 . S
C1164 C1163 1.379 1_655 S
H1165 C1159 0.959 . S
H1166 C1159 0.961 . S
H1167 C1159 0.960 . S
H1168 C1160 0.930 . S
H1169 C1161 0.929 . S
C207 C7 1.061 . S
C226 C162 1.066 . S
C243 C29 1.050 . S
C262 C184 1.092 . S
C279 C140 1.077 . S
C298 C51 1.023 . S
C315 C158 1.073 . S
C334 C49 1.022 . S
C351 C180 1.077 . S
C370 C5 1.039 . S
C387 C136 1.075 . S
C406 C27 1.087 . S
C423 C30 1.076 . S
C442 C73 1.048 . S
C459 C95 1.060 . S
C478 C52 1.069 . S
C495 C8 1.075 . S
C514 C117 1.052 . S
C531 C26 1.072 . S
C550 C115 1.021 . S
C567 C71 1.050 . S
C586 C48 1.062 . S
C603 C4 1.069 . S
C622 C93 1.057 . S
C639 C139 1.064 . S
C658 C96 1.051 . S
C675 C118 1.077 . S
C694 C161 1.030 . S
C711 C183 1.060 . S
C730 C74 1.054 . S
C747 C181 1.063 . S
C766 C92 1.068 . S
C783 C114 1.075 . S
C802 C137 1.087 . S
C819 C70 1.074 . S
C838 C159 1.088 . S
C855 C9 0.998 . S
C874 C28 0.977 . S
C891 C50 0.997 . S
C910 C31 1.040 . S
C927 C53 0.996 . S
C946 C6 0.987 . S
C963 C94 0.993 . S
C982 C75 1.021 . S
C999 C116 1.010 . S
C1018 C97 0.987 . S
C1035 C119 1.008 . S
C1054 C72 0.963 . S
C1071 C160 1.002 . S
C1090 C141 1.034 . S
C1107 C163 0.997 . S
C1126 C182 0.983 . S
C1143 C138 0.995 . S
C1162 C185 1.036 . S
