# Generated by pormake.
# Topology hjm, (4)-cn, num edge types: 1
# Building blocks:
#     Node 0, Type 0, BuildingBlock: QUQFOY_clean_sbu_3, # of connection points: 4
#     Node 1, Type 0, BuildingBlock: QUQFOY_clean_sbu_3, # of connection points: 4
#     Node 2, Type 0, BuildingBlock: QUQFOY_clean_sbu_3, # of connection points: 4
#     Node 3, Type 0, BuildingBlock: QUQFOY_clean_sbu_3, # of connection points: 4
#     Node 4, Type 0, BuildingBlock: QUQFOY_clean_sbu_3, # of connection points: 4
#     Node 5, Type 0, BuildingBlock: QUQFOY_clean_sbu_3, # of connection points: 4
#     Node 6, Type 0, BuildingBlock: QUQFOY_clean_sbu_3, # of connection points: 4
#     Node 7, Type 0, BuildingBlock: QUQFOY_clean_sbu_3, # of connection points: 4
#     Edge 8, Type (0, 0), BuildingBlock: TEMPAE_clean_linker_10, # of connection points: 2
#     Edge 9, Type (0, 0), BuildingBlock: TEMPAE_clean_linker_10, # of connection points: 2
#     Edge 10, Type (0, 0), BuildingBlock: TEMPAE_clean_linker_10, # of connection points: 2
#     Edge 11, Type (0, 0), BuildingBlock: TEMPAE_clean_linker_10, # of connection points: 2
#     Edge 12, Type (0, 0), BuildingBlock: TEMPAE_clean_linker_10, # of connection points: 2
#     Edge 13, Type (0, 0), BuildingBlock: TEMPAE_clean_linker_10, # of connection points: 2
#     Edge 14, Type (0, 0), BuildingBlock: TEMPAE_clean_linker_10, # of connection points: 2
#     Edge 15, Type (0, 0), BuildingBlock: TEMPAE_clean_linker_10, # of connection points: 2
#     Edge 16, Type (0, 0), BuildingBlock: TEMPAE_clean_linker_10, # of connection points: 2
#     Edge 17, Type (0, 0), BuildingBlock: TEMPAE_clean_linker_10, # of connection points: 2
#     Edge 18, Type (0, 0), BuildingBlock: TEMPAE_clean_linker_10, # of connection points: 2
#     Edge 19, Type (0, 0), BuildingBlock: TEMPAE_clean_linker_10, # of connection points: 2
#     Edge 20, Type (0, 0), BuildingBlock: TEMPAE_clean_linker_10, # of connection points: 2
#     Edge 21, Type (0, 0), BuildingBlock: TEMPAE_clean_linker_10, # of connection points: 2
#     Edge 22, Type (0, 0), BuildingBlock: TEMPAE_clean_linker_10, # of connection points: 2
#     Edge 23, Type (0, 0), BuildingBlock: TEMPAE_clean_linker_10, # of connection points: 2
# Relax obj value: 0.092
# Max RMSD: 0.137
# Mean RMSD: 0.137
data_MOF--net-hjm--node1-QUQFOY_clean_sbu_3--edge1-TEMPAE_clean_linker_10
_symmetry_space_group_name_H-M    P1
_symmetry_Int_Tables_number       1
_symmetry_cell_setting            triclinic
loop_
_symmetry_equiv_pos_as_xyz
'x, y, z'
_cell_length_a     27.952251
_cell_length_b     23.995131
_cell_length_c     27.430912
_cell_angle_alpha  90.025299
_cell_angle_beta   60.065636
_cell_angle_gamma 90.090413
loop_
_atom_site_label
_atom_site_type_symbol
_atom_site_fract_x
_atom_site_fract_y
_atom_site_fract_z
_atom_type_partial_charge
C0 C 0.20928 0.31771 0.18968 0.0
O1 O 0.21162 0.36299 0.21239 0.0
Cd2 Cd 0.18977 0.37226 0.3072 0.0
O3 O 0.19583 0.27197 0.21729 0.0
Cd4 Cd 0.17108 0.24069 0.31372 0.0
C5 C 0.29375 0.28974 0.29595 0.0
O6 O 0.10847 0.31616 0.35231 0.0
O7 O 0.11933 0.27275 0.41441 0.0
O8 O 0.1071 0.17029 0.31482 0.0
C9 C 0.09231 0.30826 0.4036 0.0
O10 O 0.27269 0.33826 0.30557 0.0
C11 C 0.12424 0.13128 0.33341 0.0
O12 O 0.26691 0.24778 0.29379 0.0
O13 O 0.16575 0.14205 0.33899 0.0
C14 C 0.79184 0.30159 0.27805 0.0
O15 O 0.78381 0.34772 0.26054 0.0
Cd16 Cd 0.80152 0.36668 0.16796 0.0
O17 O 0.80659 0.2582 0.24681 0.0
Cd18 Cd 0.82164 0.23774 0.15093 0.0
C19 C 0.69753 0.28909 0.17617 0.0
O20 O 0.88486 0.31489 0.11588 0.0
O21 O 0.87304 0.27508 0.05278 0.0
O22 O 0.87415 0.15319 0.14658 0.0
C23 C 0.89984 0.30989 0.06454 0.0
O24 O 0.71908 0.33743 0.16546 0.0
C25 C 0.86043 0.12726 0.11493 0.0
O26 O 0.72409 0.24722 0.17854 0.0
O27 O 0.82629 0.1512 0.10425 0.0
C28 C 0.89803 0.63762 0.63469 0.0
O29 O 0.92834 0.66542 0.64831 0.0
Cd30 Cd 0.90579 0.74981 0.70096 0.0
O31 O 0.85098 0.65572 0.645 0.0
Cd32 Cd 0.7977 0.74275 0.68591 0.0
C33 C 0.90234 0.83348 0.60296 0.0
O34 O 0.81117 0.73472 0.76551 0.0
O35 O 0.76321 0.80602 0.7683 0.0
O36 O 0.71143 0.69137 0.71715 0.0
C37 C 0.78278 0.77632 0.79237 0.0
O38 O 0.92288 0.82404 0.63437 0.0
C39 C 0.69108 0.72617 0.69765 0.0
O40 O 0.86018 0.8067 0.6093 0.0
O41 O 0.7215 0.76708 0.67019 0.0
C42 C 0.09985 0.62962 0.81616 0.0
O43 O 0.07345 0.65287 0.79513 0.0
Cd44 Cd 0.09333 0.73889 0.74736 0.0
O45 O 0.14253 0.65242 0.81341 0.0
Cd46 Cd 0.19798 0.73975 0.77376 0.0
C47 C 0.08356 0.82018 0.85535 0.0
O48 O 0.19029 0.72736 0.69213 0.0
O49 O 0.23953 0.79842 0.68652 0.0
O50 O 0.28034 0.6873 0.75531 0.0
C51 C 0.2201 0.76738 0.66315 0.0
O52 O 0.06286 0.80332 0.82586 0.0
C53 C 0.29882 0.724 0.77507 0.0
O54 O 0.13121 0.80435 0.84502 0.0
O55 O 0.26922 0.76707 0.79632 0.0
C56 C 0.71558 0.8218 0.18529 0.0
O57 O 0.72094 0.86959 0.20198 0.0
Cd58 Cd 0.71375 0.8911 0.28935 0.0
O59 O 0.70351 0.77892 0.21707 0.0
Cd60 Cd 0.68346 0.75515 0.31454 0.0
C61 C 0.81375 0.79884 0.27743 0.0
O62 O 0.63352 0.83917 0.34934 0.0
O63 O 0.64027 0.79275 0.41257 0.0
O64 O 0.60957 0.6905 0.32958 0.0
C65 C 0.62092 0.83467 0.40014 0.0
O66 O 0.79852 0.84829 0.27534 0.0
C67 C 0.62766 0.65002 0.3455 0.0
O68 O 0.78069 0.75768 0.29078 0.0
O69 O 0.6735 0.65732 0.34382 0.0
C70 C 0.30872 0.7802 0.26045 0.0
O71 O 0.31046 0.8275 0.23877 0.0
Cd72 Cd 0.32887 0.84868 0.14685 0.0
O73 O 0.31651 0.73498 0.23262 0.0
Cd74 Cd 0.33409 0.70972 0.13585 0.0
C75 C 0.21592 0.77811 0.16062 0.0
O76 O 0.4002 0.78291 0.0975 0.0
O77 O 0.39245 0.7377 0.03454 0.0
O78 O 0.37884 0.6223 0.13872 0.0
C79 C 0.4164 0.77593 0.04609 0.0
O80 O 0.24021 0.8244 0.15582 0.0
C81 C 0.36118 0.59492 0.11113 0.0
O82 O 0.24032 0.73204 0.15625 0.0
O83 O 0.32846 0.61999 0.09912 0.0
C84 C 0.41077 0.15706 0.64557 0.0
O85 O 0.43399 0.18591 0.66683 0.0
Cd86 Cd 0.40305 0.27031 0.7185 0.0
O87 O 0.36558 0.17289 0.64886 0.0
Cd88 Cd 0.30047 0.2532 0.68904 0.0
C89 C 0.40177 0.35014 0.61472 0.0
O90 O 0.30838 0.25048 0.77084 0.0
O91 O 0.25637 0.31707 0.7723 0.0
O92 O 0.22172 0.19099 0.71539 0.0
C93 C 0.27745 0.29084 0.79705 0.0
O94 O 0.41994 0.34093 0.64829 0.0
C95 C 0.19916 0.22109 0.69446 0.0
O96 O 0.36165 0.32202 0.61752 0.0
O97 O 0.22533 0.26458 0.66817 0.0
C98 C 0.61381 0.09921 0.80226 0.0
O99 O 0.58794 0.12397 0.78146 0.0
Cd100 Cd 0.60291 0.21498 0.74421 0.0
O101 O 0.6536 0.12303 0.80468 0.0
Cd102 Cd 0.70575 0.21369 0.77572 0.0
C103 C 0.58637 0.28633 0.86117 0.0
O104 O 0.70029 0.21156 0.69266 0.0
O105 O 0.74561 0.28239 0.69582 0.0
O106 O 0.78991 0.16185 0.75258 0.0
C107 C 0.72738 0.25493 0.66905 0.0
O108 O 0.56796 0.27173 0.82898 0.0
C109 C 0.80684 0.19571 0.7763 0.0
O110 O 0.63429 0.27185 0.85129 0.0
O111 O 0.77546 0.23663 0.802 0.0
C112 C 0.03497 0.07971 0.37753 0.0
C113 C 0.09218 0.07936 0.35632 0.0
C114 C 1.00151 0.03607 0.41162 0.0
C115 C 0.02614 0.99037 0.42339 0.0
C116 C 0.08442 0.98722 0.39724 0.0
C117 C 0.11674 0.03227 0.36477 0.0
C118 C 0.93958 0.04148 0.43914 0.0
C119 C 0.11247 0.93819 0.4069 0.0
C120 C 0.95094 0.9238 0.56787 0.0
C121 C 0.92946 0.87524 0.55778 0.0
C122 C 0.98088 0.96226 0.52475 0.0
C123 C 0.99118 0.951 0.46962 0.0
C124 C 0.96907 0.90218 0.45922 0.0
C125 C 0.93772 0.86512 0.50377 0.0
C126 C 0.00221 0.0146 0.53816 0.0
C127 C 0.9805 0.88781 0.4008 0.0
H128 H 0.01575 0.11611 0.37125 0.0
H129 H 0.16102 0.03163 0.34797 0.0
H130 H 0.92084 0.00193 0.43582 0.0
H131 H 0.92215 0.05053 0.48458 0.0
H132 H 0.92725 0.07552 0.42023 0.0
H133 H 0.15732 0.93693 0.37568 0.0
H134 H 0.10752 0.94112 0.44955 0.0
H135 H 0.09334 0.89843 0.40466 0.0
H136 H 0.94432 0.93167 0.60973 0.0
H137 H 0.92174 0.82707 0.49585 0.0
H138 H 0.98896 0.05189 0.52407 0.0
H139 H 0.048 0.0143 0.51524 0.0
H140 H 0.98739 0.01877 0.58383 0.0
H141 H 0.97375 0.92442 0.38032 0.0
H142 H 0.95422 0.85288 0.4011 0.0
H143 H 0.02442 0.87547 0.37455 0.0
C144 C 0.07568 0.90625 0.90971 0.0
C145 C 0.05113 0.85854 0.90241 0.0
C146 C 0.04362 0.94638 0.95017 0.0
C147 C 0.98614 0.93732 -0.01462 0.0
C148 C 0.96208 0.88705 0.98085 0.0
C149 C 0.99466 0.8488 0.93845 0.0
C150 C 0.07059 -2e-05 0.95284 0.0
C151 C 0.90151 0.87473 0.01913 0.0
C152 C 0.91154 0.0388 0.10735 0.0
C153 C 0.88816 0.07548 0.08534 0.0
C154 C 0.94189 -0.00785 0.07627 0.0
C155 C 0.95039 0.98336 0.02139 0.0
C156 C 0.92632 0.02016 -0.0006 0.0
C157 C 0.89474 0.06512 0.03204 0.0
C158 C 0.9643 0.9521 0.1023 0.0
C159 C 0.93549 0.01332 0.94053 0.0
H160 H 0.11937 0.91361 0.88169 0.0
H161 H 0.9759 0.81138 0.93318 0.0
H162 H 0.05379 0.03528 0.93989 0.0
H163 H 0.06108 0.00823 -0.00344 0.0
H164 H 0.11614 -0.00085 0.92502 0.0
H165 H 0.89148 0.8303 0.01702 0.0
H166 H 0.88881 0.88513 0.06337 0.0
H167 H 0.87664 0.90087 0.00677 0.0
H168 H 0.90605 0.04659 0.14877 0.0
H169 H 0.8772 0.09376 0.01463 0.0
H170 H 0.00882 0.94408 0.07335 0.0
H171 H 0.94239 0.9117 0.10983 0.0
H172 H 0.95872 0.96755 0.143 0.0
H173 H 0.98038 0.01356 0.90957 0.0
H174 H 0.91553 0.04688 0.92909 0.0
H175 H 0.91876 0.97266 0.93667 0.0
C176 C 0.43632 0.38654 0.51714 0.0
C177 C 0.42964 0.39322 0.57095 0.0
C178 C 0.4679 0.42477 0.4739 0.0
C179 C 0.49193 0.47133 0.48538 0.0
C180 C 0.48365 0.47904 0.54026 0.0
C181 C 0.45314 0.4396 0.58212 0.0
C182 C 0.47705 0.41429 0.41566 0.0
C183 C 0.50737 0.52877 0.55479 0.0
C184 C 0.61777 0.55113 0.37807 0.0
C185 C 0.59367 0.5998 0.37184 0.0
C186 C 0.58492 0.50673 0.41137 0.0
C187 C 0.52665 0.51196 0.4404 0.0
C188 C 0.50218 0.55972 0.43166 0.0
C189 C 0.53605 0.60279 0.39688 0.0
C190 C 0.61266 0.4558 0.41829 0.0
C191 C 0.44032 0.56742 0.46245 0.0
H192 H 0.41871 0.3503 0.5083 0.0
H193 H 0.44769 0.445 0.62385 0.0
H194 H 0.46405 0.451 0.40059 0.0
H195 H 0.52169 0.40778 0.38591 0.0
H196 H 0.45398 0.37712 0.41438 0.0
H197 H 0.49779 0.52796 0.59923 0.0
H198 H 0.55287 0.53005 0.52725 0.0
H199 H 0.49059 0.56779 0.54749 0.0
H200 H 0.66232 0.54848 0.3584 0.0
H201 H 0.51718 0.64043 0.39239 0.0
H202 H 0.59274 0.41723 0.4146 0.0
H203 H 0.6082 0.45594 0.46082 0.0
H204 H 0.65737 0.45439 0.38662 0.0
H205 H 0.41945 0.52937 0.45933 0.0
H206 H 0.42766 0.60336 0.44594 0.0
H207 H 0.42545 0.57471 0.50774 0.0
C208 C 0.4083 0.50539 0.10923 0.0
C209 C 0.38396 0.53984 0.08646 0.0
C210 C 0.43697 0.45697 0.08082 0.0
C211 C 0.4435 0.44447 0.02734 0.0
C212 C 0.4169 0.47793 0.00548 0.0
C213 C 0.38664 0.52458 0.03582 0.0
C214 C 0.46218 0.42076 0.10693 0.0
C215 C 0.42347 0.46681 0.9482 0.0
C216 C 0.5732 0.37339 0.91549 0.0
C217 C 0.55193 0.32284 0.90924 0.0
C218 C 0.53864 0.41268 0.9555 0.0
C219 C 0.48201 0.39994 -0.00855 0.0
C220 C 0.46139 0.34704 -0.01197 0.0
C221 C 0.49638 0.30953 0.94595 0.0
C222 C 0.56195 0.46916 0.9567 0.0
C223 C 0.40213 0.33081 0.02789 0.0
H224 H 0.40586 0.51682 0.14865 0.0
H225 H 0.36805 0.5512 0.01791 0.0
H226 H 0.45782 0.37596 0.09984 0.0
H227 H 0.50689 0.43013 0.08714 0.0
H228 H 0.44292 0.42823 0.15291 0.0
H229 H 0.39753 0.49485 0.93877 0.0
H230 H 0.46732 0.47283 0.91537 0.0
H231 H 0.41235 0.42308 0.94519 0.0
H232 H 0.61612 0.3836 0.88674 0.0
H233 H 0.48023 0.26999 0.9413 0.0
H234 H 0.55388 0.47867 -0.00031 0.0
H235 H 0.54119 0.50179 0.94522 0.0
H236 H 0.60713 0.47182 0.92714 0.0
H237 H 0.39366 0.33323 0.0719 0.0
H238 H 0.39255 0.28796 0.01991 0.0
H239 H 0.37363 0.36039 0.02426 0.0
C240 C 0.96389 0.33888 0.96493 0.0
C241 C 0.94046 0.34867 0.02275 0.0
C242 C 0.99955 0.37821 0.92564 0.0
C243 C 0.0101 0.42896 0.945 0.0
C244 C 0.98886 0.4375 0.00323 0.0
C245 C 0.95478 0.39696 0.04134 0.0
C246 C 0.02348 0.36643 0.86375 0.0
C247 C 0.99889 0.49115 0.02564 0.0
C248 C 0.11323 0.53951 0.85394 0.0
C249 C 0.07888 0.57616 0.84575 0.0
C250 C 0.09237 0.48921 0.88318 0.0
C251 C 0.03565 0.47658 0.9061 0.0
C252 C 1.00126 0.51288 0.89669 0.0
C253 C 0.02344 0.56192 0.86619 0.0
C254 C 0.1307 0.45059 0.89073 0.0
C255 C 0.94039 0.5012 0.92088 0.0
H256 H 0.95378 0.30101 0.9504 0.0
H257 H 0.93721 0.40444 0.08603 0.0
H258 H 0.99539 0.38323 0.84969 0.0
H259 H 0.06452 0.38634 0.8382 0.0
H260 H 0.02782 0.3209 0.85532 0.0
H261 H 0.98212 0.48977 0.07184 0.0
H262 H 0.04372 0.50019 0.00484 0.0
H263 H 0.97908 0.52626 0.01605 0.0
H264 H 0.15634 0.55002 0.83746 0.0
H265 H 0.99668 0.59011 0.85996 0.0
H266 H 0.12006 0.40637 0.88889 0.0
H267 H 0.12669 0.45802 0.93251 0.0
H268 H 0.1745 0.45777 0.85817 0.0
H269 H 0.93447 0.45997 0.90634 0.0
H270 H 0.91967 0.53328 0.9087 0.0
H271 H 0.91964 0.49974 0.96749 0.0
C272 C 0.03945 0.34609 0.50192 0.0
C273 C 0.05008 0.34523 0.44633 0.0
C274 C 0.00497 0.38712 0.5396 0.0
C275 C 0.98186 0.42836 0.52061 0.0
C276 C 0.98852 0.42444 0.46619 0.0
C277 C 0.02232 0.38273 0.42983 0.0
C278 C 0.99622 0.38839 0.59845 0.0
C279 C 0.96357 0.46689 0.44475 0.0
C280 C 0.88186 0.53998 0.61417 0.0
C281 C 0.91841 0.58362 0.60641 0.0
C282 C 0.90177 0.48789 0.5887 0.0
C283 C 0.95932 0.48044 0.55313 0.0
C284 C 0.99621 0.52461 0.54516 0.0
C285 C 0.9753 0.57536 0.57253 0.0
C286 C 0.86099 0.44165 0.59938 0.0
C287 C 0.0578 0.51885 0.50651 0.0
H288 H 0.05978 0.31638 0.51531 0.0
H289 H 0.02908 0.38128 0.38734 0.0
H290 H 0.02607 0.41781 0.60003 0.0
H291 H 0.95393 0.4027 0.62916 0.0
H292 H 0.00278 0.34664 0.61142 0.0
H293 H 0.96939 0.45553 0.40286 0.0
H294 H 0.91874 0.47121 0.47469 0.0
H295 H 0.98295 0.5082 0.44132 0.0
H296 H 0.83781 0.5462 0.64093 0.0
H297 H 0.00355 0.6092 0.56638 0.0
H298 H 0.87897 0.39994 0.59741 0.0
H299 H 0.84833 0.44333 0.56699 0.0
H300 H 0.82317 0.44649 0.64112 0.0
H301 H 0.07389 0.48415 0.52091 0.0
H302 H 0.08063 0.55746 0.50466 0.0
H303 H 0.06671 0.50867 0.46329 0.0
C304 C 0.54563 0.0216 0.83215 0.0
C305 C 0.59496 0.04301 0.8264 0.0
C306 C 0.5231 0.9717 0.86085 0.0
C307 C 0.55098 0.94197 0.88369 0.0
C308 C 0.60295 0.96096 0.87417 0.0
C309 C 0.62416 0.01166 0.84607 0.0
C310 C 0.46725 0.95329 0.8706 0.0
C311 C 0.63475 0.92988 0.89655 0.0
C312 C 0.45631 0.87071 0.02144 0.0
C313 C 0.45365 0.81652 0.004 0.0
C314 C 0.48896 0.91143 -0.01736 0.0
C315 C 0.52113 0.89714 0.9251 0.0
C316 C 0.52091 0.8417 0.90745 0.0
C317 C 0.48615 0.80205 0.94715 0.0
C318 C 0.48747 0.97025 0.00313 0.0
C319 C 0.55743 0.82445 0.84692 0.0
H320 H 0.52296 0.04517 0.81658 0.0
H321 H 0.66278 0.02736 0.84098 0.0
H322 H 0.46805 0.90864 0.85984 0.0
H323 H 0.43611 0.95811 0.91583 0.0
H324 H 0.45358 0.97797 0.8455 0.0
H325 H 0.67993 0.93606 0.86909 0.0
H326 H 0.62305 0.94589 0.939 0.0
H327 H 0.6255 0.88471 0.90008 0.0
H328 H 0.4313 0.88191 0.06543 0.0
H329 H 0.48477 0.75977 0.93392 0.0
H330 H 0.47327 -0.00065 0.98153 0.0
H331 H 0.52951 0.98347 -0.00717 0.0
H332 H 0.45961 0.97443 0.04926 0.0
H333 H 0.54748 0.84922 0.81902 0.0
H334 H 0.55307 0.7795 0.84025 0.0
H335 H 0.60124 0.8331 0.83388 0.0
C336 C 0.58449 0.93098 0.42106 0.0
C337 C 0.5883 0.87835 0.44094 0.0
C338 C 0.55278 0.97324 0.45815 0.0
C339 C 0.52329 0.96228 0.5166 0.0
C340 C 0.52613 0.90889 0.53705 0.0
C341 C 0.55948 0.86763 0.49886 0.0
C342 C 0.55139 0.02986 0.43473 0.0
C343 C 0.49477 0.89529 0.59903 0.0
C344 C 0.49086 0.09194 0.60547 0.0
C345 C 0.43748 0.10472 0.61617 0.0
C346 C 0.51828 0.04412 0.57536 0.0
C347 C 0.49159 0.00801 0.55571 0.0
C348 C 0.4368 0.01912 0.56854 0.0
C349 C 0.41042 0.06766 0.59837 0.0
C350 C 0.57667 0.03347 0.56258 0.0
C351 C 0.40671 0.98047 0.54941 0.0
H352 H 0.60692 0.93945 0.37625 0.0
H353 H 0.56212 0.82678 0.51424 0.0
H354 H 0.50827 0.04119 0.44742 0.0
H355 H 0.56724 0.06199 0.45222 0.0
H356 H 0.57652 0.03131 0.38809 0.0
H357 H 0.48717 0.84978 0.60615 0.0
H358 H 0.51946 0.90877 0.61845 0.0
H359 H 0.45448 0.91715 0.62095 0.0
H360 H 0.51202 0.12008 0.61938 0.0
H361 H 0.36888 0.0768 0.60723 0.0
H362 H 0.60527 0.03563 0.51648 0.0
H363 H 0.57997 0.99098 0.57654 0.0
H364 H 0.59051 0.0641 0.58338 0.0
H365 H 0.42696 0.98128 0.50284 0.0
H366 H 0.36267 -0.00779 0.56719 0.0
H367 H 0.4088 0.93696 0.56197 0.0
C368 C 0.3147 0.73474 0.33943 0.0
C369 C 0.2966 0.77883 0.31931 0.0
C370 C 0.30469 0.73496 0.39496 0.0
C371 C 0.27493 0.77972 0.43117 0.0
C372 C 0.2563 0.82409 0.41106 0.0
C373 C 0.2677 0.82327 0.35528 0.0
C374 C 0.32571 0.68728 0.41498 0.0
C375 C 0.22324 0.87183 0.44876 0.0
C376 C 0.1982 0.75 0.58734 0.0
C377 C 0.23262 0.77492 0.60469 0.0
C378 C 0.21125 0.75192 0.53108 0.0
C379 C 0.26041 0.7787 0.49104 0.0
C380 C 0.295 0.80477 0.50837 0.0
C381 C 0.28039 0.80298 0.56534 0.0
C382 C 0.17267 0.72475 0.51444 0.0
C383 C 0.34791 0.83344 0.46662 0.0
H384 H 0.33743 0.70062 0.31155 0.0
H385 H 0.25315 0.85724 0.34004 0.0
H386 H 0.35144 0.70351 0.43223 0.0
H387 H 0.29042 0.66464 0.44948 0.0
H388 H 0.35061 0.65721 0.38079 0.0
H389 H 0.21523 0.90497 0.42548 0.0
H390 H 0.183 0.85607 0.48282 0.0
H391 H 0.2452 0.89064 0.46906 0.0
H392 H 0.16102 0.72855 0.61786 0.0
H393 H 0.30721 0.82188 0.57871 0.0
H394 H 0.19441 0.69072 0.48391 0.0
H395 H 0.15949 0.75557 0.49336 0.0
H396 H 0.13526 0.7071 0.55113 0.0
H397 H 0.37583 0.80302 0.43457 0.0
H398 H 0.36981 0.85232 0.48704 0.0
H399 H 0.33909 0.86665 0.44409 0.0
C400 C 0.7219 0.80752 0.89083 0.0
C401 C 0.77336 0.78855 0.84882 0.0
C402 C 0.71087 0.81389 0.94631 0.0
C403 C 0.75297 0.80204 0.95921 0.0
C404 C 0.80552 0.7841 0.91638 0.0
C405 C 0.81489 0.77701 0.86168 0.0
C406 C 0.65417 0.83276 -0.00903 0.0
C407 C 0.8517 0.77208 0.9284 0.0
C408 C 0.7434 0.86245 0.0911 0.0
C409 C 0.72431 0.8165 0.12774 0.0
C410 C 0.7524 0.85849 0.03626 0.0
C411 C 0.74203 0.80739 0.01763 0.0
C412 C 0.72251 0.76091 0.05431 0.0
C413 C 0.71396 0.76598 0.10901 0.0
C414 C 0.7732 0.90889 -0.00179 0.0
C415 C 0.71077 0.70585 0.03566 0.0
H416 H 0.68969 0.81495 0.88066 0.0
H417 H 0.85474 0.76231 0.82884 0.0
H418 H 0.63919 0.80795 0.03005 0.0
H419 H 0.65629 0.87697 0.00163 0.0
H420 H 0.62343 0.8293 0.97672 0.0
H421 H 0.88959 0.75686 0.89063 0.0
H422 H 0.86217 0.8105 0.94359 0.0
H423 H 0.83831 0.74036 0.96217 0.0
H424 H 0.75176 0.90166 0.10507 0.0
H425 H 0.69911 0.73039 0.13707 0.0
H426 H 0.74293 0.92082 -0.01488 0.0
H427 H 0.81251 0.89884 0.95943 0.0
H428 H 0.78025 0.94529 0.01889 0.0
H429 H 0.68007 0.71176 0.02169 0.0
H430 H 0.69471 0.67408 0.06966 0.0
H431 H 0.74905 0.68959 -0.00084 0.0
C432 C 0.75709 0.3423 0.37357 0.0
C433 C 0.78502 0.29929 0.33499 0.0
C434 C 0.75007 0.34109 0.4278 0.0
C435 C 0.77183 0.29597 0.44367 0.0
C436 C 0.8014 0.25321 0.40448 0.0
C437 C 0.80731 0.25517 0.35064 0.0
C438 C 0.71745 0.38693 0.46873 0.0
C439 C 0.82562 0.20468 0.41989 0.0
C440 C 0.78217 0.30358 0.57655 0.0
C441 C 0.73644 0.27135 0.6134 0.0
C442 C 0.79415 0.3128 0.52097 0.0
C443 C 0.7587 0.29022 0.50287 0.0
C444 C 0.71113 0.25991 0.54093 0.0
C445 C 0.70085 0.25052 0.59557 0.0
C446 C 0.84531 0.34529 0.48134 0.0
C447 C 0.67188 0.23584 0.52351 0.0
H448 H 0.73968 0.37655 0.36179 0.0
H449 H 0.82952 0.2222 0.32079 0.0
H450 H 0.67723 0.37008 0.50181 0.0
H451 H 0.73963 0.40284 0.48998 0.0
H452 H 0.70931 0.42236 0.44783 0.0
H453 H 0.85145 0.17752 0.38321 0.0
H454 H 0.85125 0.22 0.43762 0.0
H455 H 0.79188 0.17908 0.45281 0.0
H456 H 0.80973 0.31955 0.5904 0.0
H457 H 0.66515 0.226 0.62427 0.0
H458 H 0.83344 0.384 0.46796 0.0
H459 H 0.87136 0.32053 0.44286 0.0
H460 H 0.87047 0.35678 0.50092 0.0
H461 H 0.65754 0.26899 0.50565 0.0
H462 H 0.63518 0.21598 0.55921 0.0
H463 H 0.69353 0.20407 0.49021 0.0
C464 C 0.20983 0.27203 0.10767 0.0
C465 C 0.22087 0.31885 0.13097 0.0
C466 C 0.21894 0.27328 0.05266 0.0
C467 C 0.23989 0.32242 0.02017 0.0
C468 C 0.25162 0.36969 0.04316 0.0
C469 C 0.24175 0.36742 0.09845 0.0
C470 C 0.20649 0.22184 0.02913 0.0
C471 C 0.27416 0.42271 0.00966 0.0
C472 C 0.31192 0.29567 0.86415 0.0
C473 C 0.27001 0.30743 0.85188 0.0
C474 C 0.30362 0.30345 0.91828 0.0
C475 C 0.25182 0.32278 0.96122 0.0
C476 C 0.21012 0.33725 0.94848 0.0
C477 C 0.22 0.32984 0.89345 0.0
C478 C 0.34964 0.28916 0.92988 0.0
C479 C 0.15447 0.35824 -0.00664 0.0
H480 H 0.19358 0.23446 0.13255 0.0
H481 H 0.25055 0.4038 0.11612 0.0
H482 H 0.17682 0.23209 0.01474 0.0
H483 H 0.24487 0.20663 -0.00799 0.0
H484 H 0.1889 0.18757 0.06046 0.0
H485 H 0.28739 0.45315 0.03116 0.0
H486 H 0.30982 0.41362 0.96747 0.0
H487 H 0.24186 0.44239 0.00319 0.0
H488 H 0.35095 0.27906 0.83158 0.0
H489 H 0.18767 0.33854 0.88371 0.0
H490 H 0.33545 0.2575 0.9638 0.0
H491 H 0.36164 0.32691 0.94455 0.0
H492 H 0.38684 0.2729 0.89205 0.0
H493 H 0.13602 0.32898 0.02951 0.0
H494 H 0.12514 0.36341 0.9775 0.0
H495 H 0.15957 0.39901 0.00933 0.0
C496 C 0.38434 0.23985 0.24684 0.0
C497 C 0.35194 0.28339 0.28188 0.0
C498 C 0.44119 0.23711 0.22783 0.0
C499 C 0.46585 0.27805 0.24547 0.0
C500 C 0.43292 0.32102 0.28231 0.0
C501 C 0.37654 0.32356 0.2995 0.0
C502 C 0.47524 0.19173 0.18714 0.0
C503 C 0.4574 0.36523 0.30256 0.0
C504 C 0.60394 0.24823 0.23553 0.0
C505 C 0.63953 0.28245 0.19045 0.0
C506 C 0.54731 0.24589 0.25361 0.0
C507 C 0.52631 0.27695 0.22453 0.0
C508 C 0.56273 0.30949 0.17726 0.0
C509 C 0.61876 0.3128 0.16153 0.0
C510 C 0.50959 0.21241 0.30542 0.0
C511 C 0.54236 0.34198 0.14416 0.0
H512 H 0.36572 0.20917 0.23237 0.0
H513 H 0.35173 0.35735 0.3265 0.0
H514 H 0.50684 0.21069 0.14689 0.0
H515 H 0.49755 0.16763 0.20408 0.0
H516 H 0.44967 0.16249 0.17827 0.0
H517 H 0.42507 0.38994 0.33787 0.0
H518 H 0.4848 0.34611 0.31637 0.0
H519 H 0.48292 0.39419 0.26756 0.0
H520 H 0.61998 0.22529 0.25832 0.0
H521 H 0.64641 0.33911 0.12654 0.0
H522 H 0.48496 0.18249 0.29607 0.0
H523 H 0.48007 0.2408 0.33887 0.0
H524 H 0.53269 0.18891 0.32197 0.0
H525 H 0.51542 0.31556 0.13465 0.0
H526 H 0.57683 0.35824 0.10399 0.0
H527 H 0.51739 0.3778 0.16961 0.0
C528 C 0.61523 0.75406 0.67954 0.0
C529 C 0.63353 0.72129 0.70928 0.0
C530 C 0.56003 0.75217 0.69219 0.0
C531 C 0.52195 0.71739 0.73631 0.0
C532 C 0.54017 0.6842 0.76654 0.0
C533 C 0.59589 0.68618 0.75232 0.0
C534 C 0.54237 0.78774 0.65856 0.0
C535 C 0.50063 0.64742 0.81454 0.0
C536 C 0.37092 0.75623 0.79752 0.0
C537 C 0.35403 0.71882 0.76972 0.0
C538 C 0.42495 0.75495 0.7886 0.0
C539 C 0.46316 0.7158 0.75042 0.0
C540 C 0.44589 0.67697 0.72342 0.0
C541 C 0.39143 0.67872 0.73368 0.0
C542 C 0.44147 0.79629 0.8191 0.0
C543 C 0.48546 0.63493 0.68203 0.0
H544 H 0.64412 0.78131 0.6463 0.0
H545 H 0.60964 0.66128 0.77595 0.0
H546 H 0.52381 0.76118 0.63919 0.0
H547 H 0.51027 0.81773 0.68678 0.0
H548 H 0.5773 0.81149 0.6247 0.0
H549 H 0.52165 0.62298 0.83278 0.0
H550 H 0.46817 0.67339 0.84827 0.0
H551 H 0.47961 0.61808 0.80004 0.0
H552 H 0.34211 0.78712 0.82567 0.0
H553 H 0.37874 0.64982 0.71188 0.0
H554 H 0.47538 0.82325 0.78828 0.0
H555 H 0.45721 0.77386 0.84359 0.0
H556 H 0.40657 0.82327 0.84829 0.0
H557 H 0.5186 0.65691 0.64488 0.0
H558 H 0.46456 0.60549 0.66743 0.0
H559 H 0.50553 0.61068 0.70131 0.0
C560 C 0.12445 0.82526 0.20083 0.0
C561 C 0.15722 0.77812 0.17554 0.0
C562 C 0.06805 0.82529 0.21814 0.0
C563 C 0.04402 0.77745 0.20882 0.0
C564 C 0.07695 0.72994 0.18266 0.0
C565 C 0.13311 0.73062 0.16687 0.0
C566 C 0.03429 0.87673 0.24615 0.0
C567 C 0.05304 0.67883 0.17057 0.0
C568 C 0.88779 0.76442 0.29522 0.0
C569 C 0.87215 0.78918 0.25918 0.0
C570 C 0.94387 0.75958 0.27912 0.0
C571 C 0.98474 0.77811 0.22503 0.0
C572 C 0.96879 0.80061 0.18759 0.0
C573 C 0.91256 0.80699 0.20565 0.0
C574 C 0.95936 0.7367 0.32063 0.0
C575 C 0.0109 0.81945 0.12904 0.0
H576 H 0.14265 0.86196 0.20817 0.0
H577 H 0.15828 0.69414 0.14719 0.0
H578 H 0.0229 0.89746 0.21724 0.0
H579 H 0.99538 0.86534 0.28481 0.0
H580 H 0.05715 0.90715 0.2575 0.0
H581 H 0.08418 0.64532 0.14994 0.0
H582 H 0.01826 0.66221 0.2102 0.0
H583 H 0.03623 0.6901 0.14281 0.0
H584 H 0.85619 0.75097 0.3367 0.0
H585 H 0.90007 0.8258 0.17778 0.0
H586 H 0.98274 0.76863 0.32957 0.0
H587 H 0.98677 0.70005 0.30241 0.0
H588 H 0.92265 0.72412 0.36095 0.0
H589 H 0.02777 0.86057 0.13147 0.0
H590 H 0.99254 0.8236 0.10145 0.0
H591 H 0.04592 0.7898 0.10907 0.0
C592 C 0.10891 0.17026 0.74587 0.0
C593 C 0.14304 0.20869 0.70432 0.0
C594 C 0.05357 0.16267 0.75999 0.0
C595 C 0.0321 0.19378 0.73139 0.0
C596 C 0.06701 0.23103 0.68798 0.0
C597 C 0.12188 0.23831 0.67525 0.0
C598 C 0.01767 0.12271 0.80667 0.0
C599 C 0.0459 0.26453 0.65608 0.0
C600 C 0.90033 0.15148 0.73266 0.0
C601 C 0.86244 0.19045 0.77019 0.0
C602 C 0.95526 0.15058 0.72118 0.0
C603 C 0.97266 0.18943 0.74805 0.0
C604 C 0.9339 0.22704 0.78802 0.0
C605 C 0.87934 0.22725 0.79845 0.0
C606 C 0.99521 0.10986 0.67821 0.0
C607 C 0.95056 0.26847 0.81833 0.0
H608 H 0.12488 0.14742 0.76877 0.0
H609 H 0.14802 0.26796 0.64303 0.0
H610 H 0.98425 0.14607 0.84227 0.0
H611 H 0.99763 0.09248 0.79185 0.0
H612 H 0.04139 0.09924 0.82251 0.0
H613 H 0.07903 0.28936 0.62148 0.0
H614 H 0.02717 0.23653 0.63795 0.0
H615 H 0.01314 0.29341 0.68534 0.0
H616 H 0.88766 0.12291 0.71058 0.0
H617 H 0.85025 0.25726 0.82775 0.0
H618 H 0.02023 0.08896 0.69396 0.0
H619 H 0.02415 0.13271 0.6393 0.0
H620 H 0.97373 0.07751 0.66721 0.0
H621 H 0.97023 0.24653 0.83938 0.0
H622 H 0.9149 0.29278 0.85043 0.0
H623 H 0.98148 0.29798 0.78757 0.0
loop_
_geom_bond_atom_site_label_1
_geom_bond_atom_site_label_2
_geom_bond_distance
_geom_bond_site_symmetry_2
_ccdc_geom_bond_type
C0 O1 1.306 . S
C0 O3 1.160 . S
O1 C0 1.306 . S
O1 Cd2 2.228 . S
Cd2 O1 2.228 . S
Cd2 O6 2.273 . S
Cd2 O10 2.277 . S
O3 C0 1.160 . S
O3 Cd4 2.203 . S
Cd4 O3 2.203 . S
Cd4 O6 2.411 . S
Cd4 O7 2.333 . S
Cd4 O8 2.352 . S
Cd4 O12 2.277 . S
Cd4 O13 2.356 . S
C5 O10 1.209 . S
C5 O12 1.226 . S
O6 Cd2 2.273 . S
O6 Cd4 2.411 . S
O6 C9 1.320 . S
O7 Cd4 2.333 . S
O7 C9 1.214 . S
O8 Cd4 2.352 . S
O8 C11 1.258 . S
C9 O6 1.320 . S
C9 O7 1.214 . S
O10 Cd2 2.277 . S
O10 C5 1.209 . S
C11 O8 1.258 . S
C11 O13 1.282 . S
O12 Cd4 2.277 . S
O12 C5 1.226 . S
O13 Cd4 2.356 . S
O13 C11 1.282 . S
C14 O15 1.306 . S
C14 O17 1.160 . S
O15 C14 1.306 . S
O15 Cd16 2.228 . S
Cd16 O15 2.228 . S
Cd16 O20 2.273 . S
Cd16 O24 2.277 . S
O17 C14 1.160 . S
O17 Cd18 2.203 . S
Cd18 O17 2.203 . S
Cd18 O20 2.411 . S
Cd18 O21 2.333 . S
Cd18 O22 2.352 . S
Cd18 O26 2.277 . S
Cd18 O27 2.356 . S
C19 O24 1.209 . S
C19 O26 1.226 . S
O20 Cd16 2.273 . S
O20 Cd18 2.411 . S
O20 C23 1.320 . S
O21 Cd18 2.333 . S
O21 C23 1.214 . S
O22 Cd18 2.352 . S
O22 C25 1.258 . S
C23 O20 1.320 . S
C23 O21 1.214 . S
O24 Cd16 2.277 . S
O24 C19 1.209 . S
C25 O22 1.258 . S
C25 O27 1.282 . S
O26 Cd18 2.277 . S
O26 C19 1.226 . S
O27 Cd18 2.356 . S
O27 C25 1.282 . S
C28 O29 1.306 . S
C28 O31 1.160 . S
O29 C28 1.306 . S
O29 Cd30 2.228 . S
Cd30 O29 2.228 . S
Cd30 O34 2.273 . S
Cd30 O38 2.277 . S
O31 C28 1.160 . S
O31 Cd32 2.203 . S
Cd32 O31 2.203 . S
Cd32 O34 2.411 . S
Cd32 O35 2.333 . S
Cd32 O36 2.352 . S
Cd32 O40 2.277 . S
Cd32 O41 2.356 . S
C33 O38 1.209 . S
C33 O40 1.226 . S
O34 Cd30 2.273 . S
O34 Cd32 2.411 . S
O34 C37 1.320 . S
O35 Cd32 2.333 . S
O35 C37 1.214 . S
O36 Cd32 2.352 . S
O36 C39 1.258 . S
C37 O34 1.320 . S
C37 O35 1.214 . S
O38 Cd30 2.277 . S
O38 C33 1.209 . S
C39 O36 1.258 . S
C39 O41 1.282 . S
O40 Cd32 2.277 . S
O40 C33 1.226 . S
O41 Cd32 2.356 . S
O41 C39 1.282 . S
C42 O43 1.306 . S
C42 O45 1.160 . S
O43 C42 1.306 . S
O43 Cd44 2.228 . S
Cd44 O43 2.228 . S
Cd44 O48 2.273 . S
Cd44 O52 2.277 . S
O45 C42 1.160 . S
O45 Cd46 2.203 . S
Cd46 O45 2.203 . S
Cd46 O48 2.411 . S
Cd46 O49 2.333 . S
Cd46 O50 2.352 . S
Cd46 O54 2.277 . S
Cd46 O55 2.356 . S
C47 O52 1.209 . S
C47 O54 1.226 . S
O48 Cd44 2.273 . S
O48 Cd46 2.411 . S
O48 C51 1.320 . S
O49 Cd46 2.333 . S
O49 C51 1.214 . S
O50 Cd46 2.352 . S
O50 C53 1.258 . S
C51 O48 1.320 . S
C51 O49 1.214 . S
O52 Cd44 2.277 . S
O52 C47 1.209 . S
C53 O50 1.258 . S
C53 O55 1.282 . S
O54 Cd46 2.277 . S
O54 C47 1.226 . S
O55 Cd46 2.356 . S
O55 C53 1.282 . S
C56 O57 1.306 . S
C56 O59 1.160 . S
O57 C56 1.306 . S
O57 Cd58 2.228 . S
Cd58 O57 2.228 . S
Cd58 O62 2.273 . S
Cd58 O66 2.277 . S
O59 C56 1.160 . S
O59 Cd60 2.203 . S
Cd60 O59 2.203 . S
Cd60 O62 2.411 . S
Cd60 O63 2.333 . S
Cd60 O64 2.352 . S
Cd60 O68 2.277 . S
Cd60 O69 2.356 . S
C61 O66 1.209 . S
C61 O68 1.226 . S
O62 Cd58 2.273 . S
O62 Cd60 2.411 . S
O62 C65 1.320 . S
O63 Cd60 2.333 . S
O63 C65 1.214 . S
O64 Cd60 2.352 . S
O64 C67 1.258 . S
C65 O62 1.320 . S
C65 O63 1.214 . S
O66 Cd58 2.277 . S
O66 C61 1.209 . S
C67 O64 1.258 . S
C67 O69 1.282 . S
O68 Cd60 2.277 . S
O68 C61 1.226 . S
O69 Cd60 2.356 . S
O69 C67 1.282 . S
C70 O71 1.306 . S
C70 O73 1.160 . S
O71 C70 1.306 . S
O71 Cd72 2.228 . S
Cd72 O71 2.228 . S
Cd72 O76 2.273 . S
Cd72 O80 2.277 . S
O73 C70 1.160 . S
O73 Cd74 2.203 . S
Cd74 O73 2.203 . S
Cd74 O76 2.411 . S
Cd74 O77 2.333 . S
Cd74 O78 2.352 . S
Cd74 O82 2.277 . S
Cd74 O83 2.356 . S
C75 O80 1.209 . S
C75 O82 1.226 . S
O76 Cd72 2.273 . S
O76 Cd74 2.411 . S
O76 C79 1.320 . S
O77 Cd74 2.333 . S
O77 C79 1.214 . S
O78 Cd74 2.352 . S
O78 C81 1.258 . S
C79 O76 1.320 . S
C79 O77 1.214 . S
O80 Cd72 2.277 . S
O80 C75 1.209 . S
C81 O78 1.258 . S
C81 O83 1.282 . S
O82 Cd74 2.277 . S
O82 C75 1.226 . S
O83 Cd74 2.356 . S
O83 C81 1.282 . S
C84 O85 1.306 . S
C84 O87 1.160 . S
O85 C84 1.306 . S
O85 Cd86 2.228 . S
Cd86 O85 2.228 . S
Cd86 O90 2.273 . S
Cd86 O94 2.277 . S
O87 C84 1.160 . S
O87 Cd88 2.203 . S
Cd88 O87 2.203 . S
Cd88 O90 2.411 . S
Cd88 O91 2.333 . S
Cd88 O92 2.352 . S
Cd88 O96 2.277 . S
Cd88 O97 2.356 . S
C89 O94 1.209 . S
C89 O96 1.226 . S
O90 Cd86 2.273 . S
O90 Cd88 2.411 . S
O90 C93 1.320 . S
O91 Cd88 2.333 . S
O91 C93 1.214 . S
O92 Cd88 2.352 . S
O92 C95 1.258 . S
C93 O90 1.320 . S
C93 O91 1.214 . S
O94 Cd86 2.277 . S
O94 C89 1.209 . S
C95 O92 1.258 . S
C95 O97 1.282 . S
O96 Cd88 2.277 . S
O96 C89 1.226 . S
O97 Cd88 2.356 . S
O97 C95 1.282 . S
C98 O99 1.306 . S
C98 O101 1.160 . S
O99 C98 1.306 . S
O99 Cd100 2.228 . S
Cd100 O99 2.228 . S
Cd100 O104 2.273 . S
Cd100 O108 2.277 . S
O101 C98 1.160 . S
O101 Cd102 2.203 . S
Cd102 O101 2.203 . S
Cd102 O104 2.411 . S
Cd102 O105 2.333 . S
Cd102 O106 2.352 . S
Cd102 O110 2.277 . S
Cd102 O111 2.356 . S
C103 O108 1.209 . S
C103 O110 1.226 . S
O104 Cd100 2.273 . S
O104 Cd102 2.411 . S
O104 C107 1.320 . S
O105 Cd102 2.333 . S
O105 C107 1.214 . S
O106 Cd102 2.352 . S
O106 C109 1.258 . S
C107 O104 1.320 . S
C107 O105 1.214 . S
O108 Cd100 2.277 . S
O108 C103 1.209 . S
C109 O106 1.258 . S
C109 O111 1.282 . S
O110 Cd102 2.277 . S
O110 C103 1.226 . S
O111 Cd102 2.356 . S
O111 C109 1.282 . S
C112 C113 1.391 . S
C112 C114 1.394 1_455 S
C112 H128 0.931 1_455 S
C113 C112 1.391 . S
C113 C117 1.376 . S
C114 C112 1.394 1_655 S
C114 C115 1.369 1_655 S
C114 C118 1.531 . S
C115 C114 1.369 1_455 S
C115 C116 1.410 . S
C115 C123 1.503 1_445 S
C116 C115 1.410 . S
C116 C117 1.392 . S
C116 C119 1.511 1_545 S
C117 C113 1.376 . S
C117 C116 1.392 . S
C117 H129 0.929 . S
C118 C114 1.531 . S
C118 H130 0.960 . S
C118 H131 0.962 . S
C118 H132 0.960 . S
C119 C116 1.511 1_565 S
C119 H133 0.961 . S
C119 H134 0.961 . S
C119 H135 0.961 . S
C120 C121 1.370 . S
C120 C122 1.363 . S
C120 H136 0.931 . S
C121 C120 1.370 . S
C121 C125 1.408 . S
C122 C120 1.363 . S
C122 C123 1.370 . S
C122 C126 1.524 1_665 S
C123 C115 1.503 1_665 S
C123 C122 1.370 . S
C123 C124 1.403 . S
C124 C123 1.403 . S
C124 C125 1.404 . S
C124 C127 1.539 . S
C125 C121 1.408 . S
C125 C124 1.404 . S
C125 H137 0.930 . S
C126 C122 1.524 1_445 S
C126 H138 0.956 1_455 S
C126 H139 0.961 . S
C126 H140 0.957 1_545 S
C127 C124 1.539 . S
C127 H141 0.958 . S
C127 H142 0.961 . S
C127 H143 0.960 1_655 S
H128 C112 0.931 1_655 S
H129 C117 0.929 . S
H130 C118 0.960 . S
H131 C118 0.962 . S
H132 C118 0.960 . S
H133 C119 0.961 . S
H134 C119 0.961 . S
H135 C119 0.961 . S
H136 C120 0.931 . S
H137 C125 0.930 . S
H138 C126 0.956 1_655 S
H139 C126 0.961 . S
H140 C126 0.957 1_565 S
H141 C127 0.958 . S
H142 C127 0.961 . S
H143 C127 0.960 1_455 S
C144 C145 1.391 . S
C144 C146 1.394 . S
C144 H160 0.931 . S
C145 C144 1.391 . S
C145 C149 1.376 . S
C146 C144 1.394 . S
C146 C147 1.369 . S
C146 C150 1.531 1_565 S
C147 C146 1.369 . S
C147 C148 1.410 1_455 S
C147 C155 1.503 1_466 S
C148 C147 1.410 1_655 S
C148 C149 1.392 1_655 S
C148 C151 1.511 1_556 S
C149 C145 1.376 . S
C149 C148 1.392 1_455 S
C149 H161 0.929 1_455 S
C150 C146 1.531 1_545 S
C150 H162 0.960 . S
C150 H163 0.962 . S
C150 H164 0.960 . S
C151 C148 1.511 1_554 S
C151 H165 0.961 . S
C151 H166 0.961 . S
C151 H167 0.961 1_554 S
C152 C153 1.370 . S
C152 C154 1.363 . S
C152 H168 0.931 . S
C153 C152 1.370 . S
C153 C157 1.408 . S
C154 C152 1.363 . S
C154 C155 1.370 . S
C154 C158 1.524 1_545 S
C155 C147 1.503 1_644 S
C155 C154 1.370 . S
C155 C156 1.403 1_554 S
C156 C155 1.403 1_556 S
C156 C157 1.404 1_556 S
C156 C159 1.539 . S
C157 C153 1.408 . S
C157 C156 1.404 1_554 S
C157 H169 0.930 . S
C158 C154 1.524 1_565 S
C158 H170 0.956 1_655 S
C158 H171 0.961 . S
C158 H172 0.961 . S
C159 C156 1.539 . S
C159 H173 0.958 1_655 S
C159 H174 0.961 . S
C159 H175 0.960 . S
H160 C144 0.931 . S
H161 C149 0.929 1_655 S
H162 C150 0.960 . S
H163 C150 0.962 . S
H164 C150 0.960 . S
H165 C151 0.961 . S
H166 C151 0.961 . S
H167 C151 0.961 1_556 S
H168 C152 0.931 . S
H169 C157 0.930 . S
H170 C158 0.956 1_455 S
H171 C158 0.961 . S
H172 C158 0.961 . S
H173 C159 0.958 1_455 S
H174 C159 0.961 . S
H175 C159 0.960 . S
C176 C177 1.391 . S
C176 C178 1.394 . S
C176 H192 0.931 . S
C177 C176 1.391 . S
C177 C181 1.376 . S
C178 C176 1.394 . S
C178 C179 1.369 . S
C178 C182 1.531 . S
C179 C178 1.369 . S
C179 C180 1.410 . S
C179 C187 1.503 . S
C180 C179 1.410 . S
C180 C181 1.392 . S
C180 C183 1.511 . S
C181 C177 1.376 . S
C181 C180 1.392 . S
C181 H193 0.929 . S
C182 C178 1.531 . S
C182 H194 0.960 . S
C182 H195 0.962 . S
C182 H196 0.960 . S
C183 C180 1.511 . S
C183 H197 0.961 . S
C183 H198 0.961 . S
C183 H199 0.961 . S
C184 C185 1.370 . S
C184 C186 1.363 . S
C184 H200 0.931 . S
C185 C184 1.370 . S
C185 C189 1.408 . S
C186 C184 1.363 . S
C186 C187 1.370 . S
C186 C190 1.524 . S
C187 C179 1.503 . S
C187 C186 1.370 . S
C187 C188 1.403 . S
C188 C187 1.403 . S
C188 C189 1.404 . S
C188 C191 1.539 . S
C189 C185 1.408 . S
C189 C188 1.404 . S
C189 H201 0.930 . S
C190 C186 1.524 . S
C190 H202 0.956 . S
C190 H203 0.961 . S
C190 H204 0.961 . S
C191 C188 1.539 . S
C191 H205 0.958 . S
C191 H206 0.961 . S
C191 H207 0.960 . S
H192 C176 0.931 . S
H193 C181 0.929 . S
H194 C182 0.960 . S
H195 C182 0.962 . S
H196 C182 0.960 . S
H197 C183 0.961 . S
H198 C183 0.961 . S
H199 C183 0.961 . S
H200 C184 0.931 . S
H201 C189 0.930 . S
H202 C190 0.956 . S
H203 C190 0.961 . S
H204 C190 0.961 . S
H205 C191 0.958 . S
H206 C191 0.961 . S
H207 C191 0.960 . S
C208 C209 1.391 . S
C208 C210 1.394 . S
C208 H224 0.931 . S
C209 C208 1.391 . S
C209 C213 1.376 . S
C210 C208 1.394 . S
C210 C211 1.369 . S
C210 C214 1.531 . S
C211 C210 1.369 . S
C211 C212 1.410 1_554 S
C211 C219 1.503 1_554 S
C212 C211 1.410 1_556 S
C212 C213 1.392 1_556 S
C212 C215 1.511 . S
C213 C209 1.376 . S
C213 C212 1.392 1_554 S
C213 H225 0.929 . S
C214 C210 1.531 . S
C214 H226 0.960 . S
C214 H227 0.962 . S
C214 H228 0.960 . S
C215 C212 1.511 . S
C215 H229 0.961 . S
C215 H230 0.961 . S
C215 H231 0.961 . S
C216 C217 1.370 . S
C216 C218 1.363 . S
C216 H232 0.931 . S
C217 C216 1.370 . S
C217 C221 1.408 . S
C218 C216 1.363 . S
C218 C219 1.370 . S
C218 C222 1.524 . S
C219 C211 1.503 1_556 S
C219 C218 1.370 . S
C219 C220 1.403 . S
C220 C219 1.403 . S
C220 C221 1.404 . S
C220 C223 1.539 . S
C221 C217 1.408 . S
C221 C220 1.404 . S
C221 H233 0.930 . S
C222 C218 1.524 . S
C222 H234 0.956 1_556 S
C222 H235 0.961 . S
C222 H236 0.961 . S
C223 C220 1.539 . S
C223 H237 0.958 . S
C223 H238 0.961 . S
C223 H239 0.960 . S
H224 C208 0.931 . S
H225 C213 0.929 . S
H226 C214 0.960 . S
H227 C214 0.962 . S
H228 C214 0.960 . S
H229 C215 0.961 . S
H230 C215 0.961 . S
H231 C215 0.961 . S
H232 C216 0.931 . S
H233 C221 0.930 . S
H234 C222 0.956 1_554 S
H235 C222 0.961 . S
H236 C222 0.961 . S
H237 C223 0.958 . S
H238 C223 0.961 . S
H239 C223 0.960 . S
C240 C241 1.391 . S
C240 C242 1.394 1_554 S
C240 H256 0.931 . S
C241 C240 1.391 . S
C241 C245 1.376 . S
C242 C240 1.394 1_556 S
C242 C243 1.369 1_556 S
C242 C246 1.531 1_655 S
C243 C242 1.369 1_554 S
C243 C244 1.410 . S
C243 C251 1.503 1_654 S
C244 C243 1.410 . S
C244 C245 1.392 . S
C244 C247 1.511 . S
C245 C241 1.376 . S
C245 C244 1.392 . S
C245 H257 0.929 . S
C246 C242 1.531 1_455 S
C246 H258 0.960 . S
C246 H259 0.962 . S
C246 H260 0.960 1_455 S
C247 C244 1.511 . S
C247 H261 0.961 . S
C247 H262 0.961 . S
C247 H263 0.961 . S
C248 C249 1.370 . S
C248 C250 1.363 . S
C248 H264 0.931 . S
C249 C248 1.370 . S
C249 C253 1.408 . S
C250 C248 1.363 . S
C250 C251 1.370 . S
C250 C254 1.524 1_556 S
C251 C243 1.503 1_456 S
C251 C250 1.370 . S
C251 C252 1.403 1_455 S
C252 C251 1.403 1_655 S
C252 C253 1.404 1_655 S
C252 C255 1.539 . S
C253 C249 1.408 . S
C253 C252 1.404 1_455 S
C253 H265 0.930 . S
C254 C250 1.524 1_554 S
C254 H266 0.950 1_554 S
C254 H267 0.961 . S
C254 H268 0.961 . S
C255 C252 1.539 . S
C255 H269 0.958 . S
C255 H270 0.961 . S
C255 H271 0.960 . S
H256 C240 0.931 . S
H257 C245 0.929 . S
H258 C246 0.960 . S
H259 C246 0.962 . S
H260 C246 0.960 1_655 S
H261 C247 0.961 . S
H262 C247 0.961 . S
H263 C247 0.961 . S
H264 C248 0.931 . S
H265 C253 0.930 . S
H266 C254 0.950 1_556 S
H267 C254 0.961 . S
H268 C254 0.961 . S
H269 C255 0.958 . S
H270 C255 0.961 . S
H271 C255 0.960 . S
C272 C273 1.391 . S
C272 C274 1.394 . S
C272 H288 0.931 . S
C273 C272 1.391 . S
C273 C277 1.376 . S
C274 C272 1.394 . S
C274 C275 1.369 . S
C274 C278 1.531 . S
C275 C274 1.369 . S
C275 C276 1.410 . S
C275 C283 1.503 1_455 S
C276 C275 1.410 . S
C276 C277 1.392 . S
C276 C279 1.511 1_455 S
C277 C273 1.376 . S
C277 C276 1.392 . S
C277 H289 0.929 . S
C278 C274 1.531 . S
C278 H290 0.960 . S
C278 H291 0.962 . S
C278 H292 0.960 . S
C279 C276 1.511 1_655 S
C279 H293 0.961 . S
C279 H294 0.961 . S
C279 H295 0.961 . S
C280 C281 1.370 . S
C280 C282 1.363 . S
C280 H296 0.931 . S
C281 C280 1.370 . S
C281 C285 1.408 . S
C282 C280 1.363 . S
C282 C283 1.370 . S
C282 C286 1.524 . S
C283 C275 1.503 1_655 S
C283 C282 1.370 . S
C283 C284 1.403 . S
C284 C283 1.403 . S
C284 C285 1.404 . S
C284 C287 1.539 1_655 S
C285 C281 1.408 . S
C285 C284 1.404 . S
C285 H297 0.930 . S
C286 C282 1.524 . S
C286 H298 0.956 . S
C286 H299 0.961 . S
C286 H300 0.961 . S
C287 C284 1.539 1_455 S
C287 H301 0.958 . S
C287 H302 0.961 . S
C287 H303 0.960 . S
H288 C272 0.931 . S
H289 C277 0.929 . S
H290 C278 0.960 . S
H291 C278 0.962 . S
H292 C278 0.960 . S
H293 C279 0.961 . S
H294 C279 0.961 . S
H295 C279 0.961 . S
H296 C280 0.931 . S
H297 C285 0.930 . S
H298 C286 0.956 . S
H299 C286 0.961 . S
H300 C286 0.961 . S
H301 C287 0.958 . S
H302 C287 0.961 . S
H303 C287 0.960 . S
C304 C305 1.391 . S
C304 C306 1.394 . S
C304 H320 0.931 . S
C305 C304 1.391 . S
C305 C309 1.376 . S
C306 C304 1.394 . S
C306 C307 1.369 . S
C306 C310 1.531 1_545 S
C307 C306 1.369 . S
C307 C308 1.410 1_556 S
C307 C315 1.503 1_546 S
C308 C307 1.410 1_554 S
C308 C309 1.392 1_554 S
C308 C311 1.511 . S
C309 C305 1.376 . S
C309 C308 1.392 1_556 S
C309 H321 0.929 . S
C310 C306 1.531 1_565 S
C310 H322 0.960 . S
C310 H323 0.962 1_565 S
C310 H324 0.960 . S
C311 C308 1.511 . S
C311 H325 0.961 . S
C311 H326 0.961 . S
C311 H327 0.961 1_545 S
C312 C313 1.370 . S
C312 C314 1.363 . S
C312 H328 0.931 . S
C313 C312 1.370 . S
C313 C317 1.408 . S
C314 C312 1.363 . S
C314 C315 1.370 . S
C314 C318 1.524 1_565 S
C315 C307 1.503 1_564 S
C315 C314 1.370 . S
C315 C316 1.403 . S
C316 C315 1.403 . S
C316 C317 1.404 . S
C316 C319 1.539 1_554 S
C317 C313 1.408 . S
C317 C316 1.404 . S
C317 H329 0.930 . S
C318 C314 1.524 1_545 S
C318 H330 0.956 . S
C318 H331 0.961 . S
C318 H332 0.961 . S
C319 C316 1.539 1_556 S
C319 H333 0.958 . S
C319 H334 0.962 . S
C319 H335 0.960 . S
H320 C304 0.931 . S
H321 C309 0.929 . S
H322 C310 0.960 . S
H323 C310 0.962 1_545 S
H324 C310 0.960 . S
H325 C311 0.961 . S
H326 C311 0.961 . S
H327 C311 0.961 1_565 S
H328 C312 0.931 . S
H329 C317 0.930 . S
H330 C318 0.956 . S
H331 C318 0.961 . S
H332 C318 0.961 . S
H333 C319 0.958 . S
H334 C319 0.962 . S
H335 C319 0.960 . S
C336 C337 1.391 . S
C336 C338 1.394 . S
C336 H352 0.931 . S
C337 C336 1.391 . S
C337 C341 1.376 . S
C338 C336 1.394 . S
C338 C339 1.369 . S
C338 C342 1.531 1_565 S
C339 C338 1.369 . S
C339 C340 1.410 . S
C339 C347 1.503 1_565 S
C340 C339 1.410 . S
C340 C341 1.392 . S
C340 C343 1.511 . S
C341 C337 1.376 . S
C341 C340 1.392 . S
C341 H353 0.929 . S
C342 C338 1.531 1_545 S
C342 H354 0.960 . S
C342 H355 0.962 . S
C342 H356 0.960 . S
C343 C340 1.511 . S
C343 H357 0.961 . S
C343 H358 0.961 . S
C343 H359 0.961 . S
C344 C345 1.370 . S
C344 C346 1.363 . S
C344 H360 0.931 . S
C345 C344 1.370 . S
C345 C349 1.408 . S
C346 C344 1.363 . S
C346 C347 1.370 . S
C346 C350 1.524 . S
C347 C339 1.503 1_545 S
C347 C346 1.370 . S
C347 C348 1.403 . S
C348 C347 1.403 . S
C348 C349 1.404 . S
C348 C351 1.539 1_545 S
C349 C345 1.408 . S
C349 C348 1.404 . S
C349 H361 0.930 . S
C350 C346 1.524 . S
C350 H362 0.956 . S
C350 H363 0.961 . S
C350 H364 0.961 . S
C351 C348 1.539 1_565 S
C351 H365 0.958 . S
C351 H366 0.961 . S
C351 H367 0.960 . S
H352 C336 0.931 . S
H353 C341 0.929 . S
H354 C342 0.960 . S
H355 C342 0.962 . S
H356 C342 0.960 . S
H357 C343 0.961 . S
H358 C343 0.961 . S
H359 C343 0.961 . S
H360 C344 0.931 . S
H361 C349 0.930 . S
H362 C350 0.956 . S
H363 C350 0.961 . S
H364 C350 0.961 . S
H365 C351 0.958 . S
H366 C351 0.961 . S
H367 C351 0.960 . S
C368 C369 1.391 . S
C368 C370 1.394 . S
C368 H384 0.931 . S
C369 C368 1.391 . S
C369 C373 1.376 . S
C370 C368 1.394 . S
C370 C371 1.369 . S
C370 C374 1.531 . S
C371 C370 1.369 . S
C371 C372 1.410 . S
C371 C379 1.503 . S
C372 C371 1.410 . S
C372 C373 1.392 . S
C372 C375 1.511 . S
C373 C369 1.376 . S
C373 C372 1.392 . S
C373 H385 0.929 . S
C374 C370 1.531 . S
C374 H386 0.960 . S
C374 H387 0.962 . S
C374 H388 0.960 . S
C375 C372 1.511 . S
C375 H389 0.961 . S
C375 H390 0.961 . S
C375 H391 0.961 . S
C376 C377 1.370 . S
C376 C378 1.363 . S
C376 H392 0.931 . S
C377 C376 1.370 . S
C377 C381 1.408 . S
C378 C376 1.363 . S
C378 C379 1.370 . S
C378 C382 1.524 . S
C379 C371 1.503 . S
C379 C378 1.370 . S
C379 C380 1.403 . S
C380 C379 1.403 . S
C380 C381 1.404 . S
C380 C383 1.539 . S
C381 C377 1.408 . S
C381 C380 1.404 . S
C381 H393 0.930 . S
C382 C378 1.524 . S
C382 H394 0.956 . S
C382 H395 0.961 . S
C382 H396 0.961 . S
C383 C380 1.539 . S
C383 H397 0.958 . S
C383 H398 0.961 . S
C383 H399 0.960 . S
H384 C368 0.931 . S
H385 C373 0.929 . S
H386 C374 0.960 . S
H387 C374 0.962 . S
H388 C374 0.960 . S
H389 C375 0.961 . S
H390 C375 0.961 . S
H391 C375 0.961 . S
H392 C376 0.931 . S
H393 C381 0.930 . S
H394 C382 0.956 . S
H395 C382 0.961 . S
H396 C382 0.961 . S
H397 C383 0.958 . S
H398 C383 0.961 . S
H399 C383 0.960 . S
C400 C401 1.391 . S
C400 C402 1.394 . S
C400 H416 0.931 . S
C401 C400 1.391 . S
C401 C405 1.376 . S
C402 C400 1.394 . S
C402 C403 1.369 . S
C402 C406 1.531 1_556 S
C403 C402 1.369 . S
C403 C404 1.410 . S
C403 C411 1.503 1_556 S
C404 C403 1.410 . S
C404 C405 1.392 . S
C404 C407 1.511 . S
C405 C401 1.376 . S
C405 C404 1.392 . S
C405 H417 0.929 . S
C406 C402 1.531 1_554 S
C406 H418 0.959 . S
C406 H419 0.962 . S
C406 H420 0.961 1_554 S
C407 C404 1.511 . S
C407 H421 0.961 . S
C407 H422 0.961 . S
C407 H423 0.961 . S
C408 C409 1.370 . S
C408 C410 1.363 . S
C408 H424 0.931 . S
C409 C408 1.370 . S
C409 C413 1.408 . S
C410 C408 1.363 . S
C410 C411 1.370 . S
C410 C414 1.524 . S
C411 C403 1.503 1_554 S
C411 C410 1.370 . S
C411 C412 1.403 . S
C412 C411 1.403 . S
C412 C413 1.404 . S
C412 C415 1.539 . S
C413 C409 1.408 . S
C413 C412 1.404 . S
C413 H425 0.930 . S
C414 C410 1.524 . S
C414 H426 0.956 . S
C414 H427 0.961 1_554 S
C414 H428 0.961 . S
C415 C412 1.539 . S
C415 H429 0.958 . S
C415 H430 0.961 . S
C415 H431 0.960 1_554 S
H416 C400 0.931 . S
H417 C405 0.929 . S
H418 C406 0.959 . S
H419 C406 0.962 . S
H420 C406 0.961 1_556 S
H421 C407 0.961 . S
H422 C407 0.961 . S
H423 C407 0.961 . S
H424 C408 0.931 . S
H425 C413 0.930 . S
H426 C414 0.956 . S
H427 C414 0.961 1_556 S
H428 C414 0.961 . S
H429 C415 0.958 . S
H430 C415 0.961 . S
H431 C415 0.960 1_556 S
C432 C433 1.391 . S
C432 C434 1.394 . S
C432 H448 0.931 . S
C433 C432 1.391 . S
C433 C437 1.376 . S
C434 C432 1.394 . S
C434 C435 1.369 . S
C434 C438 1.531 . S
C435 C434 1.369 . S
C435 C436 1.410 . S
C435 C443 1.503 . S
C436 C435 1.410 . S
C436 C437 1.392 . S
C436 C439 1.511 . S
C437 C433 1.376 . S
C437 C436 1.392 . S
C437 H449 0.929 . S
C438 C434 1.531 . S
C438 H450 0.960 . S
C438 H451 0.962 . S
C438 H452 0.960 . S
C439 C436 1.511 . S
C439 H453 0.961 . S
C439 H454 0.961 . S
C439 H455 0.961 . S
C440 C441 1.370 . S
C440 C442 1.363 . S
C440 H456 0.931 . S
C441 C440 1.370 . S
C441 C445 1.408 . S
C442 C440 1.363 . S
C442 C443 1.370 . S
C442 C446 1.524 . S
C443 C435 1.503 . S
C443 C442 1.370 . S
C443 C444 1.403 . S
C444 C443 1.403 . S
C444 C445 1.404 . S
C444 C447 1.539 . S
C445 C441 1.408 . S
C445 C444 1.404 . S
C445 H457 0.930 . S
C446 C442 1.524 . S
C446 H458 0.956 . S
C446 H459 0.961 . S
C446 H460 0.961 . S
C447 C444 1.539 . S
C447 H461 0.958 . S
C447 H462 0.961 . S
C447 H463 0.960 . S
H448 C432 0.931 . S
H449 C437 0.929 . S
H450 C438 0.960 . S
H451 C438 0.962 . S
H452 C438 0.960 . S
H453 C439 0.961 . S
H454 C439 0.961 . S
H455 C439 0.961 . S
H456 C440 0.931 . S
H457 C445 0.930 . S
H458 C446 0.956 . S
H459 C446 0.961 . S
H460 C446 0.961 . S
H461 C447 0.958 . S
H462 C447 0.961 . S
H463 C447 0.960 . S
C464 C465 1.391 . S
C464 C466 1.394 . S
C464 H480 0.931 . S
C465 C464 1.391 . S
C465 C469 1.376 . S
C466 C464 1.394 . S
C466 C467 1.369 . S
C466 C470 1.531 . S
C467 C466 1.369 . S
C467 C468 1.410 . S
C467 C475 1.503 1_554 S
C468 C467 1.410 . S
C468 C469 1.392 . S
C468 C471 1.511 . S
C469 C465 1.376 . S
C469 C468 1.392 . S
C469 H481 0.929 . S
C470 C466 1.531 . S
C470 H482 0.960 . S
C470 H483 0.962 . S
C470 H484 0.960 . S
C471 C468 1.511 . S
C471 H485 0.961 . S
C471 H486 0.961 1_554 S
C471 H487 0.961 . S
C472 C473 1.370 . S
C472 C474 1.363 . S
C472 H488 0.931 . S
C473 C472 1.370 . S
C473 C477 1.408 . S
C474 C472 1.363 . S
C474 C475 1.370 . S
C474 C478 1.524 . S
C475 C467 1.503 1_556 S
C475 C474 1.370 . S
C475 C476 1.403 . S
C476 C475 1.403 . S
C476 C477 1.404 . S
C476 C479 1.539 1_556 S
C477 C473 1.408 . S
C477 C476 1.404 . S
C477 H489 0.930 . S
C478 C474 1.524 . S
C478 H490 0.956 . S
C478 H491 0.961 . S
C478 H492 0.961 . S
C479 C476 1.539 1_554 S
C479 H493 0.958 . S
C479 H494 0.961 1_554 S
C479 H495 0.960 . S
H480 C464 0.931 . S
H481 C469 0.929 . S
H482 C470 0.960 . S
H483 C470 0.962 . S
H484 C470 0.960 . S
H485 C471 0.961 . S
H486 C471 0.961 1_556 S
H487 C471 0.961 . S
H488 C472 0.931 . S
H489 C477 0.930 . S
H490 C478 0.956 . S
H491 C478 0.961 . S
H492 C478 0.961 . S
H493 C479 0.958 . S
H494 C479 0.961 1_556 S
H495 C479 0.960 . S
C496 C497 1.391 . S
C496 C498 1.394 . S
C496 H512 0.931 . S
C497 C496 1.391 . S
C497 C501 1.376 . S
C498 C496 1.394 . S
C498 C499 1.369 . S
C498 C502 1.531 . S
C499 C498 1.369 . S
C499 C500 1.410 . S
C499 C507 1.503 . S
C500 C499 1.410 . S
C500 C501 1.392 . S
C500 C503 1.511 . S
C501 C497 1.376 . S
C501 C500 1.392 . S
C501 H513 0.929 . S
C502 C498 1.531 . S
C502 H514 0.960 . S
C502 H515 0.962 . S
C502 H516 0.960 . S
C503 C500 1.511 . S
C503 H517 0.961 . S
C503 H518 0.961 . S
C503 H519 0.961 . S
C504 C505 1.370 . S
C504 C506 1.363 . S
C504 H520 0.931 . S
C505 C504 1.370 . S
C505 C509 1.408 . S
C506 C504 1.363 . S
C506 C507 1.370 . S
C506 C510 1.524 . S
C507 C499 1.503 . S
C507 C506 1.370 . S
C507 C508 1.403 . S
C508 C507 1.403 . S
C508 C509 1.404 . S
C508 C511 1.539 . S
C509 C505 1.408 . S
C509 C508 1.404 . S
C509 H521 0.930 . S
C510 C506 1.524 . S
C510 H522 0.956 . S
C510 H523 0.961 . S
C510 H524 0.961 . S
C511 C508 1.539 . S
C511 H525 0.958 . S
C511 H526 0.961 . S
C511 H527 0.960 . S
H512 C496 0.931 . S
H513 C501 0.929 . S
H514 C502 0.960 . S
H515 C502 0.962 . S
H516 C502 0.960 . S
H517 C503 0.961 . S
H518 C503 0.961 . S
H519 C503 0.961 . S
H520 C504 0.931 . S
H521 C509 0.930 . S
H522 C510 0.956 . S
H523 C510 0.961 . S
H524 C510 0.961 . S
H525 C511 0.958 . S
H526 C511 0.961 . S
H527 C511 0.960 . S
C528 C529 1.391 . S
C528 C530 1.394 . S
C528 H544 0.931 . S
C529 C528 1.391 . S
C529 C533 1.376 . S
C530 C528 1.394 . S
C530 C531 1.369 . S
C530 C534 1.531 . S
C531 C530 1.369 . S
C531 C532 1.410 . S
C531 C539 1.503 . S
C532 C531 1.410 . S
C532 C533 1.392 . S
C532 C535 1.511 . S
C533 C529 1.376 . S
C533 C532 1.392 . S
C533 H545 0.929 . S
C534 C530 1.531 . S
C534 H546 0.960 . S
C534 H547 0.962 . S
C534 H548 0.960 . S
C535 C532 1.511 . S
C535 H549 0.961 . S
C535 H550 0.961 . S
C535 H551 0.961 . S
C536 C537 1.370 . S
C536 C538 1.363 . S
C536 H552 0.931 . S
C537 C536 1.370 . S
C537 C541 1.408 . S
C538 C536 1.363 . S
C538 C539 1.370 . S
C538 C542 1.524 . S
C539 C531 1.503 . S
C539 C538 1.370 . S
C539 C540 1.403 . S
C540 C539 1.403 . S
C540 C541 1.404 . S
C540 C543 1.539 . S
C541 C537 1.408 . S
C541 C540 1.404 . S
C541 H553 0.930 . S
C542 C538 1.524 . S
C542 H554 0.956 . S
C542 H555 0.961 . S
C542 H556 0.961 . S
C543 C540 1.539 . S
C543 H557 0.958 . S
C543 H558 0.961 . S
C543 H559 0.960 . S
H544 C528 0.931 . S
H545 C533 0.929 . S
H546 C534 0.960 . S
H547 C534 0.962 . S
H548 C534 0.960 . S
H549 C535 0.961 . S
H550 C535 0.961 . S
H551 C535 0.961 . S
H552 C536 0.931 . S
H553 C541 0.930 . S
H554 C542 0.956 . S
H555 C542 0.961 . S
H556 C542 0.961 . S
H557 C543 0.958 . S
H558 C543 0.961 . S
H559 C543 0.960 . S
C560 C561 1.391 . S
C560 C562 1.394 . S
C560 H576 0.931 . S
C561 C560 1.391 . S
C561 C565 1.376 . S
C562 C560 1.394 . S
C562 C563 1.369 . S
C562 C566 1.531 . S
C563 C562 1.369 . S
C563 C564 1.410 . S
C563 C571 1.503 1_455 S
C564 C563 1.410 . S
C564 C565 1.392 . S
C564 C567 1.511 . S
C565 C561 1.376 . S
C565 C564 1.392 . S
C565 H577 0.929 . S
C566 C562 1.531 . S
C566 H578 0.958 . S
C566 H579 0.962 . S
C566 H580 0.960 . S
C567 C564 1.511 . S
C567 H581 0.961 . S
C567 H582 0.961 . S
C567 H583 0.961 . S
C568 C569 1.370 . S
C568 C570 1.363 . S
C568 H584 0.931 . S
C569 C568 1.370 . S
C569 C573 1.408 . S
C570 C568 1.363 . S
C570 C571 1.370 . S
C570 C574 1.524 . S
C571 C563 1.503 1_655 S
C571 C570 1.370 . S
C571 C572 1.403 . S
C572 C571 1.403 . S
C572 C573 1.404 . S
C572 C575 1.539 1_655 S
C573 C569 1.408 . S
C573 C572 1.404 . S
C573 H585 0.930 . S
C574 C570 1.524 . S
C574 H586 0.956 . S
C574 H587 0.961 . S
C574 H588 0.961 . S
C575 C572 1.539 1_455 S
C575 H589 0.958 . S
C575 H590 0.961 1_455 S
C575 H591 0.960 . S
H576 C560 0.931 . S
H577 C565 0.929 . S
H578 C566 0.958 . S
H579 C566 0.962 . S
H580 C566 0.960 . S
H581 C567 0.961 . S
H582 C567 0.961 . S
H583 C567 0.961 . S
H584 C568 0.931 . S
H585 C573 0.930 . S
H586 C574 0.956 . S
H587 C574 0.961 . S
H588 C574 0.961 . S
H589 C575 0.958 . S
H590 C575 0.961 1_655 S
H591 C575 0.960 . S
C592 C593 1.391 . S
C592 C594 1.394 . S
C592 H608 0.931 . S
C593 C592 1.391 . S
C593 C597 1.376 . S
C594 C592 1.394 . S
C594 C595 1.369 . S
C594 C598 1.531 1_455 S
C595 C594 1.369 . S
C595 C596 1.410 . S
C595 C603 1.503 1_455 S
C596 C595 1.410 . S
C596 C597 1.392 . S
C596 C599 1.511 . S
C597 C593 1.376 . S
C597 C596 1.392 . S
C597 H609 0.929 . S
C598 C594 1.531 1_655 S
C598 H610 0.960 . S
C598 H611 0.962 . S
C598 H612 0.960 1_655 S
C599 C596 1.511 . S
C599 H613 0.961 . S
C599 H614 0.961 . S
C599 H615 0.961 . S
C600 C601 1.370 . S
C600 C602 1.363 . S
C600 H616 0.931 . S
C601 C600 1.370 . S
C601 C605 1.408 . S
C602 C600 1.363 . S
C602 C603 1.370 . S
C602 C606 1.524 . S
C603 C595 1.503 1_655 S
C603 C602 1.370 . S
C603 C604 1.403 . S
C604 C603 1.403 . S
C604 C605 1.404 . S
C604 C607 1.539 . S
C605 C601 1.408 . S
C605 C604 1.404 . S
C605 H617 0.930 . S
C606 C602 1.524 . S
C606 H618 0.956 . S
C606 H619 0.961 1_655 S
C606 H620 0.961 . S
C607 C604 1.539 . S
C607 H621 0.958 . S
C607 H622 0.961 . S
C607 H623 0.960 1_655 S
H608 C592 0.931 . S
H609 C597 0.929 . S
H610 C598 0.960 . S
H611 C598 0.962 . S
H612 C598 0.960 1_455 S
H613 C599 0.961 . S
H614 C599 0.961 . S
H615 C599 0.961 . S
H616 C600 0.931 . S
H617 C605 0.930 . S
H618 C606 0.956 . S
H619 C606 0.961 1_455 S
H620 C606 0.961 . S
H621 C607 0.958 . S
H622 C607 0.961 . S
H623 C607 0.960 1_455 S
C113 C11 1.834 . S
C121 C33 1.838 . S
C145 C47 1.844 . S
C153 C25 1.821 . S
C177 C89 1.827 . S
C185 C67 1.831 . S
C209 C81 1.806 . S
C217 C103 1.845 . S
C241 C23 1.268 . S
C249 C42 1.228 . S
C273 C9 1.257 . S
C281 C28 1.243 . S
C305 C98 1.254 . S
C313 C79 1.243 . S
C337 C65 1.229 . S
C345 C84 1.250 . S
C369 C70 1.512 . S
C377 C51 1.515 . S
C401 C37 1.514 . S
C409 C56 1.513 . S
C433 C14 1.521 . S
C441 C107 1.515 . S
C465 C0 1.504 . S
C473 C93 1.516 . S
C497 C5 1.536 . S
C505 C19 1.539 . S
C529 C39 1.591 . S
C537 C53 1.586 . S
C561 C75 1.535 . S
C569 C61 1.537 . S
C593 C95 1.561 . S
C601 C109 1.575 . S
