# Generated by pormake.
# Topology wjh, (4)-cn, num edge types: 1
# Building blocks:
#     Node 0, Type 0, BuildingBlock: CEKHIL_clean_sbu_0, # of connection points: 4
#     Node 1, Type 0, BuildingBlock: CEKHIL_clean_sbu_0, # of connection points: 4
#     Node 2, Type 0, BuildingBlock: CEKHIL_clean_sbu_0, # of connection points: 4
#     Node 3, Type 0, BuildingBlock: CEKHIL_clean_sbu_0, # of connection points: 4
#     Node 4, Type 0, BuildingBlock: CEKHIL_clean_sbu_0, # of connection points: 4
#     Node 5, Type 0, BuildingBlock: CEKHIL_clean_sbu_0, # of connection points: 4
#     Node 6, Type 0, BuildingBlock: CEKHIL_clean_sbu_0, # of connection points: 4
#     Node 7, Type 0, BuildingBlock: CEKHIL_clean_sbu_0, # of connection points: 4
#     Node 8, Type 0, BuildingBlock: CEKHIL_clean_sbu_0, # of connection points: 4
#     Node 9, Type 0, BuildingBlock: CEKHIL_clean_sbu_0, # of connection points: 4
#     Node 10, Type 0, BuildingBlock: CEKHIL_clean_sbu_0, # of connection points: 4
#     Node 11, Type 0, BuildingBlock: CEKHIL_clean_sbu_0, # of connection points: 4
#     Edge 12, Type (0, 0), BuildingBlock: TEMPAE_clean_linker_10, # of connection points: 2
#     Edge 13, Type (0, 0), BuildingBlock: TEMPAE_clean_linker_10, # of connection points: 2
#     Edge 14, Type (0, 0), BuildingBlock: TEMPAE_clean_linker_10, # of connection points: 2
#     Edge 15, Type (0, 0), BuildingBlock: TEMPAE_clean_linker_10, # of connection points: 2
#     Edge 16, Type (0, 0), BuildingBlock: TEMPAE_clean_linker_10, # of connection points: 2
#     Edge 17, Type (0, 0), BuildingBlock: TEMPAE_clean_linker_10, # of connection points: 2
#     Edge 18, Type (0, 0), BuildingBlock: TEMPAE_clean_linker_10, # of connection points: 2
#     Edge 19, Type (0, 0), BuildingBlock: TEMPAE_clean_linker_10, # of connection points: 2
#     Edge 20, Type (0, 0), BuildingBlock: TEMPAE_clean_linker_10, # of connection points: 2
#     Edge 21, Type (0, 0), BuildingBlock: TEMPAE_clean_linker_10, # of connection points: 2
#     Edge 22, Type (0, 0), BuildingBlock: TEMPAE_clean_linker_10, # of connection points: 2
#     Edge 23, Type (0, 0), BuildingBlock: TEMPAE_clean_linker_10, # of connection points: 2
#     Edge 24, Type (0, 0), BuildingBlock: TEMPAE_clean_linker_10, # of connection points: 2
#     Edge 25, Type (0, 0), BuildingBlock: TEMPAE_clean_linker_10, # of connection points: 2
#     Edge 26, Type (0, 0), BuildingBlock: TEMPAE_clean_linker_10, # of connection points: 2
#     Edge 27, Type (0, 0), BuildingBlock: TEMPAE_clean_linker_10, # of connection points: 2
#     Edge 28, Type (0, 0), BuildingBlock: TEMPAE_clean_linker_10, # of connection points: 2
#     Edge 29, Type (0, 0), BuildingBlock: TEMPAE_clean_linker_10, # of connection points: 2
#     Edge 30, Type (0, 0), BuildingBlock: TEMPAE_clean_linker_10, # of connection points: 2
#     Edge 31, Type (0, 0), BuildingBlock: TEMPAE_clean_linker_10, # of connection points: 2
#     Edge 32, Type (0, 0), BuildingBlock: TEMPAE_clean_linker_10, # of connection points: 2
#     Edge 33, Type (0, 0), BuildingBlock: TEMPAE_clean_linker_10, # of connection points: 2
#     Edge 34, Type (0, 0), BuildingBlock: TEMPAE_clean_linker_10, # of connection points: 2
#     Edge 35, Type (0, 0), BuildingBlock: TEMPAE_clean_linker_10, # of connection points: 2
# Relax obj value: 0.078
# Max RMSD: 0.099
# Mean RMSD: 0.099
data_MOF--net-wjh--node1-CEKHIL_clean_sbu_0--edge1-TEMPAE_clean_linker_10
_symmetry_space_group_name_H-M    P1
_symmetry_Int_Tables_number       1
_symmetry_cell_setting            triclinic
loop_
_symmetry_equiv_pos_as_xyz
'x, y, z'
_cell_length_a     61.278115
_cell_length_b     61.248154
_cell_length_c     26.756315
_cell_angle_alpha  90.012956
_cell_angle_beta   89.954298
_cell_angle_gamma 120.00126
loop_
_atom_site_label
_atom_site_type_symbol
_atom_site_fract_x
_atom_site_fract_y
_atom_site_fract_z
_atom_type_partial_charge
Co0 Co 0.52786 0.15614 0.02859 0.0
O1 O 0.53823 0.19142 0.03069 0.0
O2 O 0.50209 0.16105 0.06066 0.0
C3 C 0.53961 0.15606 0.94896 0.0
O4 O 0.51045 0.1176 0.03124 0.0
Co5 Co 0.56774 0.13963 0.01005 0.0
O6 O 0.53746 0.10564 0.00282 0.0
C7 C 0.56587 0.16138 0.1067 0.0
C8 C 0.51717 0.18508 0.05331 0.0
C9 C 0.51556 0.10044 0.01752 0.0
O10 O 0.54441 0.15902 0.09516 0.0
O11 O 0.57948 0.1573 0.07603 0.0
O12 O 0.51783 0.15406 0.95817 0.0
O13 O 0.55392 0.16002 0.98694 0.0
Co14 Co 0.37788 0.52552 0.20287 0.0
O15 O 0.35379 0.53698 0.20213 0.0
O16 O 0.34563 0.49944 0.22872 0.0
C17 C 0.39377 0.53993 0.1261 0.0
O18 O 0.39761 0.50677 0.20746 0.0
Co19 Co 0.43531 0.56465 0.19614 0.0
O20 O 0.43912 0.53431 0.19769 0.0
C21 C 0.40696 0.56106 0.28686 0.0
C22 C 0.33776 0.5154 0.22152 0.0
C23 C 0.42072 0.51202 0.20425 0.0
O24 O 0.38874 0.53962 0.2723 0.0
O25 O 0.42571 0.57547 0.2591 0.0
O26 O 0.3732 0.51822 0.13075 0.0
O27 O 0.40251 0.55256 0.16667 0.0
Co28 Co 0.85871 0.37797 0.36832 0.0
O29 O 0.82291 0.35553 0.37628 0.0
O30 O 0.85204 0.34521 0.39187 0.0
C31 C 0.85633 0.39381 0.29339 0.0
O32 O 0.89727 0.39539 0.36302 0.0
Co33 Co 0.88215 0.4363 0.35903 0.0
O34 O 0.91229 0.43516 0.33623 0.0
C35 C 0.86621 0.41155 0.4578 0.0
C36 C 0.82829 0.3386 0.3912 0.0
C37 C 0.91539 0.4166 0.34673 0.0
O38 O 0.86109 0.39007 0.43939 0.0
O39 O 0.87333 0.43148 0.43162 0.0
O40 O 0.8557 0.37226 0.29551 0.0
O41 O 0.85644 0.40368 0.33584 0.0
Co42 Co 0.49119 0.85645 0.52901 0.0
O43 O 0.47904 0.82082 0.53505 0.0
O44 O 0.51532 0.85062 0.56543 0.0
C45 C 0.48116 0.85511 0.44791 0.0
O46 O 0.51054 0.89521 0.52848 0.0
Co47 Co 0.45518 0.87665 0.49935 0.0
O48 O 0.48715 0.90868 0.48848 0.0
C49 C 0.45417 0.85824 0.60201 0.0
C50 C 0.4996 0.82666 0.55917 0.0
C51 C 0.50779 0.91285 0.5083 0.0
O52 O 0.47352 0.85583 0.59299 0.0
O53 O 0.44329 0.86461 0.56895 0.0
O54 O 0.50224 0.85622 0.4601 0.0
O55 O 0.46655 0.85321 0.48411 0.0
Co56 Co 0.63718 0.4838 0.69014 0.0
O57 O 0.66133 0.47244 0.69251 0.0
O58 O 0.66673 0.50728 0.72849 0.0
C59 C 0.62884 0.47629 0.6083 0.0
O60 O 0.61672 0.50206 0.69372 0.0
Co61 Co 0.58145 0.44682 0.65958 0.0
O62 O 0.57975 0.47823 0.65447 0.0
C63 C 0.59955 0.44311 0.75961 0.0
C64 C 0.67551 0.49223 0.71917 0.0
C65 C 0.5958 0.4988 0.67532 0.0
O66 O 0.62042 0.46382 0.75233 0.0
O67 O 0.58259 0.43238 0.72599 0.0
O68 O 0.6484 0.49728 0.62247 0.0
O69 O 0.61647 0.4603 0.64291 0.0
Co70 Co 0.15996 0.63489 0.86933 0.0
O71 O 0.19582 0.65782 0.87245 0.0
O72 O 0.16706 0.66697 0.89816 0.0
C73 C 0.15945 0.62093 0.79109 0.0
O74 O 0.12111 0.61621 0.87053 0.0
Co75 Co 0.13933 0.57693 0.85474 0.0
O76 O 0.1065 0.5756 0.84965 0.0
C77 C 0.15929 0.60074 0.9523 0.0
C78 C 0.19081 0.67411 0.8925 0.0
C79 C 0.10284 0.59375 0.86078 0.0
O80 O 0.1609 0.62154 0.93774 0.0
O81 O 0.15322 0.58182 0.92371 0.0
O82 O 0.15987 0.6422 0.79753 0.0
O83 O 0.16166 0.61052 0.83089 0.0
Co84 Co 0.86171 0.49021 0.89077 0.0
O85 O 0.82554 0.47499 0.88587 0.0
O86 O 0.85286 0.51225 0.85482 0.0
C87 C 0.86212 0.48094 0.97209 0.0
O88 O 0.90028 0.51273 0.88963 0.0
Co89 Co 0.88735 0.45885 0.91906 0.0
O90 O 0.91784 0.49242 0.92741 0.0
C91 C 0.86576 0.45437 0.81812 0.0
C92 C 0.82944 0.49502 0.86179 0.0
C93 C 0.91943 0.51218 0.90817 0.0
O94 O 0.86233 0.47315 0.82672 0.0
O95 O 0.8736 0.44482 0.85126 0.0
O96 O 0.86057 0.50066 0.95982 0.0
O97 O 0.8616 0.46693 0.93585 0.0
Co98 Co 0.38287 0.85871 0.05102 0.0
O99 O 0.36025 0.82283 0.04571 0.0
O100 O 0.35024 0.85176 0.02576 0.0
C101 C 0.39821 0.85724 0.12699 0.0
O102 O 0.40086 0.89743 0.05316 0.0
Co103 Co 0.4411 0.88148 0.06235 0.0
O104 O 0.44014 0.91208 0.08267 0.0
C105 C 0.41657 0.86349 0.96378 0.0
C106 C 0.34351 0.828 0.02885 0.0
C107 C 0.422 0.91545 0.06992 0.0
O108 O 0.39523 0.85956 0.98083 0.0
O109 O 0.43619 0.87055 0.99088 0.0
O110 O 0.37696 0.85717 0.1238 0.0
O111 O 0.4081 0.85656 0.08513 0.0
Co112 Co 0.52932 0.37808 0.21076 0.0
O113 O 0.54063 0.35384 0.21037 0.0
O114 O 0.50242 0.34542 0.18838 0.0
C115 C 0.54597 0.3953 0.28579 0.0
O116 O 0.51062 0.39806 0.20799 0.0
Co117 Co 0.56877 0.43595 0.21423 0.0
O118 O 0.53845 0.4394 0.21928 0.0
C119 C 0.55965 0.40761 0.12011 0.0
C120 C 0.51846 0.33753 0.19383 0.0
C121 C 0.51606 0.42122 0.21278 0.0
O122 O 0.54123 0.38769 0.1396 0.0
O123 O 0.57379 0.42782 0.14447 0.0
O124 O 0.5243 0.37452 0.2837 0.0
O125 O 0.55732 0.40331 0.24372 0.0
Co126 Co 0.15529 0.52365 0.39016 0.0
O127 O 0.1912 0.53682 0.38652 0.0
O128 O 0.1624 0.49958 0.35761 0.0
C129 C 0.15466 0.53502 0.46995 0.0
O130 O 0.1166 0.50305 0.38849 0.0
Co131 Co 0.13311 0.55906 0.41118 0.0
O132 O 0.10089 0.52688 0.4176 0.0
C133 C 0.1555 0.55993 0.31316 0.0
C134 C 0.18612 0.51602 0.36399 0.0
C135 C 0.09799 0.50584 0.40266 0.0
O136 O 0.15642 0.53992 0.32407 0.0
O137 O 0.14892 0.57147 0.34424 0.0
O138 O 0.15521 0.51443 0.46079 0.0
O139 O 0.15655 0.54853 0.43175 0.0
Co140 Co 0.63816 0.15436 0.54968 0.0
O141 O 0.66236 0.18988 0.54908 0.0
O142 O 0.67058 0.16016 0.52526 0.0
C143 C 0.62173 0.15387 0.62567 0.0
O144 O 0.6179 0.11572 0.54707 0.0
Co145 Co 0.58076 0.13687 0.55438 0.0
O146 O 0.57743 0.10324 0.56531 0.0
C147 C 0.6098 0.15982 0.46304 0.0
C148 C 0.67845 0.18409 0.53108 0.0
C149 C 0.59505 0.09836 0.55673 0.0
O150 O 0.62783 0.15676 0.47932 0.0
O151 O 0.59074 0.15583 0.48949 0.0
O152 O 0.6424 0.15282 0.62246 0.0
O153 O 0.61347 0.15733 0.58406 0.0
Co154 Co 0.49136 0.63577 0.72352 0.0
O155 O 0.48021 0.66008 0.72224 0.0
O156 O 0.51752 0.66769 0.69578 0.0
C157 C 0.47706 0.62158 0.80125 0.0
O158 O 0.50953 0.61527 0.72098 0.0
Co159 Co 0.45184 0.57859 0.73543 0.0
O160 O 0.48237 0.57573 0.74667 0.0
C161 C 0.45546 0.60504 0.6414 0.0
C162 C 0.50174 0.67583 0.70244 0.0
C163 C 0.50449 0.59294 0.73424 0.0
O164 O 0.47683 0.62372 0.65486 0.0
O165 O 0.4413 0.58662 0.67016 0.0
O166 O 0.49897 0.64176 0.79544 0.0
O167 O 0.46434 0.61215 0.76106 0.0
C168 C 0.55709 0.15455 0.19758 0.0
C169 C 0.57435 0.16674 0.15891 0.0
C170 C 0.56532 0.15638 0.24704 0.0
C171 C 0.59132 0.17152 0.25805 0.0
C172 C 0.60862 0.18515 0.21945 0.0
C173 C 0.59997 0.18218 0.17002 0.0
C174 C 0.54635 0.14108 0.28702 0.0
C175 C 0.63629 0.20227 0.23011 0.0
C176 C 0.60332 0.18423 0.39647 0.0
C177 C 0.60953 0.16594 0.41014 0.0
C178 C 0.59926 0.18766 0.34626 0.0
C179 C 0.60035 0.17162 0.3095 0.0
C180 C 0.60764 0.1538 0.32305 0.0
C181 C 0.61259 0.1515 0.37332 0.0
C182 C 0.59264 0.2076 0.33293 0.0
C183 C 0.60842 0.13593 0.28513 0.0
H184 H 0.53731 0.14244 0.18877 0.0
H185 H 0.61326 0.19173 0.13994 0.0
H186 H 0.55125 0.12747 0.30362 0.0
H187 H 0.54686 0.15356 0.31756 0.0
H188 H 0.52682 0.13044 0.27225 0.0
H189 H 0.64651 0.21417 0.19735 0.0
H190 H 0.63885 0.21474 0.26235 0.0
H191 H 0.64504 0.19081 0.24021 0.0
H192 H 0.60115 0.19548 0.42523 0.0
H193 H 0.61719 0.13722 0.38426 0.0
H194 H 0.57225 0.19851 0.32417 0.0
H195 H 0.60317 0.21818 0.29921 0.0
H196 H 0.59681 0.22116 0.36401 0.0
H197 H 0.58913 0.12326 0.27066 0.0
H198 H 0.61577 0.12417 0.30126 0.0
H199 H 0.62037 0.14653 0.25283 0.0
C200 C 0.41867 0.59399 0.35196 0.0
C201 C 0.40817 0.56847 0.33946 0.0
C202 C 0.42413 0.60195 0.40177 0.0
C203 C 0.41976 0.58401 0.43943 0.0
C204 C 0.40796 0.55805 0.42723 0.0
C205 C 0.40194 0.55054 0.37728 0.0
C206 C 0.43578 0.62966 0.41363 0.0
C207 C 0.40342 0.5384 0.46626 0.0
C208 C 0.46362 0.60467 0.5509 0.0
C209 C 0.4475 0.60333 0.58925 0.0
C210 C 0.45491 0.59886 0.50159 0.0
C211 C 0.42979 0.5925 0.49051 0.0
C212 C 0.414 0.59278 0.5288 0.0
C213 C 0.4229 0.59765 0.5781 0.0
C214 C 0.47213 0.59818 0.46196 0.0
C215 C 0.3875 0.58713 0.518 0.0
H216 H 0.42329 0.60781 0.32256 0.0
H217 H 0.39399 0.53083 0.36743 0.0
H218 H 0.42675 0.63247 0.44709 0.0
H219 H 0.45608 0.63764 0.42221 0.0
H220 H 0.43409 0.64041 0.3819 0.0
H221 H 0.39267 0.51892 0.45121 0.0
H222 H 0.42178 0.54157 0.48058 0.0
H223 H 0.39293 0.54003 0.49847 0.0
H224 H 0.48256 0.6088 0.55997 0.0
H225 H 0.41056 0.59673 0.6081 0.0
H226 H 0.47406 0.6108 0.43048 0.0
H227 H 0.46385 0.5788 0.44667 0.0
H228 H 0.49122 0.60398 0.47668 0.0
H229 H 0.38731 0.59806 0.48507 0.0
H230 H 0.37905 0.59162 0.55034 0.0
H231 H 0.37544 0.56686 0.50891 0.0
C232 C 0.84878 0.44978 0.73112 0.0
C233 C 0.86163 0.44379 0.76698 0.0
C234 C 0.84651 0.44124 0.68168 0.0
C235 C 0.85771 0.42674 0.66777 0.0
C236 C 0.86971 0.41971 0.70426 0.0
C237 C 0.87139 0.42819 0.75346 0.0
C238 C 0.83317 0.44871 0.64384 0.0
C239 C 0.8822 0.40458 0.69076 0.0
C240 C 0.84456 0.3954 0.53999 0.0
C241 C 0.86451 0.41409 0.51209 0.0
C242 C 0.84188 0.39922 0.59093 0.0
C243 C 0.85994 0.42192 0.61422 0.0
C244 C 0.88057 0.44038 0.58635 0.0
C245 C 0.88241 0.43634 0.53551 0.0
C246 C 0.81943 0.37936 0.6194 0.0
C247 C 0.90063 0.46453 0.61009 0.0
H248 H 0.84087 0.46151 0.7414 0.0
H249 H 0.8813 0.42336 0.78088 0.0
H250 H 0.84717 0.46282 0.61766 0.0
H251 H 0.81984 0.43213 0.62136 0.0
H252 H 0.82263 0.45702 0.66177 0.0
H253 H 0.88833 0.39839 0.72431 0.0
H254 H 0.86922 0.38769 0.66868 0.0
H255 H 0.89898 0.41623 0.66713 0.0
H256 H 0.83063 0.37829 0.52159 0.0
H257 H 0.89797 0.45068 0.5139 0.0
H258 H 0.80758 0.38728 0.63217 0.0
H259 H 0.82571 0.37359 0.65326 0.0
H260 H 0.80765 0.36235 0.59636 0.0
H261 H 0.89211 0.47565 0.62402 0.0
H262 H 0.91599 0.47642 0.58356 0.0
H263 H 0.90899 0.46018 0.64269 0.0
C264 C 0.43274 0.86825 0.66963 0.0
C265 C 0.44468 0.85502 0.65367 0.0
C266 C 0.42545 0.86732 0.71948 0.0
C267 C 0.4297 0.85233 0.7539 0.0
C268 C 0.44046 0.8378 0.73746 0.0
C269 C 0.44818 0.83959 0.68752 0.0
C270 C 0.41466 0.88361 0.73585 0.0
C271 C 0.44473 0.82118 0.77304 0.0
C272 C 0.44275 0.87548 0.88719 0.0
C273 C 0.41926 0.8605 0.90996 0.0
C274 C 0.44629 0.87291 0.83643 0.0
C275 C 0.42595 0.85452 0.80794 0.0
C276 C 0.40218 0.83916 0.8307 0.0
C277 C 0.399 0.84257 0.88156 0.0
C278 C 0.47176 0.89011 0.81322 0.0
C279 C 0.38026 0.81908 0.80146 0.0
H280 H 0.43012 0.88031 0.6436 0.0
H281 H 0.45712 0.82911 0.67508 0.0
H282 H 0.397 0.87233 0.7573 0.0
H283 H 0.42824 0.89873 0.76097 0.0
H284 H 0.41064 0.89255 0.70373 0.0
H285 H 0.45002 0.80857 0.75314 0.0
H286 H 0.46008 0.83308 0.79946 0.0
H287 H 0.42752 0.80946 0.79551 0.0
H288 H 0.45837 0.88954 0.90903 0.0
H289 H 0.38089 0.83086 0.89934 0.0
H290 H 0.46976 0.90088 0.78196 0.0
H291 H 0.47969 0.8788 0.79748 0.0
H292 H 0.48544 0.90372 0.84057 0.0
H293 H 0.37544 0.82779 0.77019 0.0
H294 H 0.36324 0.80825 0.82507 0.0
H295 H 0.38555 0.80579 0.78476 0.0
C296 C 0.56493 0.38874 0.04141 0.0
C297 C 0.56397 0.40839 0.06609 0.0
C298 C 0.57105 0.39079 0.99032 0.0
C299 C 0.57549 0.41265 0.96373 0.0
C300 C 0.57364 0.43208 0.98849 0.0
C301 C 0.56825 0.42984 0.03954 0.0
C302 C 0.57346 0.37003 0.96524 0.0
C303 C 0.57746 0.45535 0.96119 0.0
C304 C 0.61315 0.43855 0.84526 0.0
C305 C 0.59387 0.43195 0.81019 0.0
C306 C 0.6075 0.43031 0.89494 0.0
C307 C 0.58199 0.41567 0.90989 0.0
C308 C 0.56256 0.40766 0.87398 0.0
C309 C 0.56876 0.41573 0.82442 0.0
C310 C 0.62874 0.43867 0.93208 0.0
C311 C 0.53511 0.39241 0.88857 0.0
H312 H 0.56176 0.37225 0.06237 0.0
H313 H 0.56721 0.44488 0.05882 0.0
H314 H 0.56153 0.36339 0.93126 0.0
H315 H 0.59324 0.37743 0.95306 0.0
H316 H 0.56803 0.35368 0.99045 0.0
H317 H 0.57408 0.46805 0.98559 0.0
H318 H 0.597 0.46608 0.94662 0.0
H319 H 0.56453 0.44989 0.92869 0.0
H320 H 0.63262 0.45072 0.83426 0.0
H321 H 0.55374 0.41045 0.79749 0.0
H322 H 0.62556 0.4228 0.95681 0.0
H323 H 0.62946 0.45378 0.95612 0.0
H324 H 0.6473 0.4461 0.91329 0.0
H325 H 0.53177 0.37651 0.9133 0.0
H326 H 0.52259 0.38476 0.85547 0.0
H327 H 0.52971 0.40458 0.90975 0.0
C328 C 0.17645 0.56484 0.23038 0.0
C329 C 0.16095 0.56961 0.26162 0.0
C330 C 0.18046 0.57302 0.18052 0.0
C331 C 0.16808 0.58553 0.16151 0.0
C332 C 0.15315 0.59116 0.19344 0.0
C333 C 0.15 0.58335 0.24326 0.0
C334 C 0.19703 0.5673 0.14767 0.0
C335 C 0.13908 0.60387 0.17425 0.0
C336 C 0.18114 0.61685 0.03418 0.0
C337 C 0.16257 0.59729 0.00544 0.0
C338 C 0.1841 0.613 0.0849 0.0
C339 C 0.16749 0.5894 0.10711 0.0
C340 C 0.1487 0.56969 0.078 0.0
C341 C 0.14673 0.5738 0.02735 0.0
C342 C 0.20476 0.63413 0.11474 0.0
C343 C 0.1301 0.54451 0.10064 0.0
H344 H 0.18525 0.55455 0.24476 0.0
H345 H 0.13795 0.58705 0.26729 0.0
H346 H 0.18515 0.55204 0.12107 0.0
H347 H 0.20997 0.58413 0.1253 0.0
H348 H 0.20836 0.56117 0.16978 0.0
H349 H 0.12991 0.60865 0.20481 0.0
H350 H 0.152 0.62139 0.15377 0.0
H351 H 0.12431 0.59115 0.14755 0.0
H352 H 0.19351 0.63493 0.01686 0.0
H353 H 0.13222 0.55877 0.00505 0.0
H354 H 0.21625 0.62731 0.13406 0.0
H355 H 0.19642 0.64056 0.144 0.0
H356 H 0.21735 0.65053 0.09094 0.0
H357 H 0.14023 0.53568 0.118 0.0
H358 H 0.11667 0.53121 0.07258 0.0
H359 H 0.11915 0.54724 0.13059 0.0
C360 C 0.49346 0.29759 0.14448 0.0
C361 C 0.51282 0.31192 0.17855 0.0
C362 C 0.49043 0.2749 0.1247 0.0
C363 C 0.50693 0.2662 0.13989 0.0
C364 C 0.52553 0.27989 0.17649 0.0
C365 C 0.52836 0.30262 0.19501 0.0
C366 C 0.47049 0.26101 0.08554 0.0
C367 C 0.5433 0.27119 0.19438 0.0
C368 C 0.49485 0.19992 0.11127 0.0
C369 C 0.5118 0.20476 0.07189 0.0
C370 C 0.49228 0.21954 0.13283 0.0
C371 C 0.50675 0.24445 0.11406 0.0
C372 C 0.52288 0.24906 0.07261 0.0
C373 C 0.52534 0.22926 0.05237 0.0
C374 C 0.47503 0.21385 0.17717 0.0
C375 C 0.53841 0.27519 0.05083 0.0
H376 H 0.48143 0.30469 0.13148 0.0
H377 H 0.54323 0.31347 0.22166 0.0
H378 H 0.47967 0.26273 0.04884 0.0
H379 H 0.45938 0.24064 0.09463 0.0
H380 H 0.45743 0.26855 0.08184 0.0
H381 H 0.55491 0.28245 0.22658 0.0
H382 H 0.5326 0.25106 0.20555 0.0
H383 H 0.55613 0.27283 0.1635 0.0
H384 H 0.4844 0.18105 0.12666 0.0
H385 H 0.53832 0.23311 0.02165 0.0
H386 H 0.46246 0.2218 0.17143 0.0
H387 H 0.48644 0.2229 0.21105 0.0
H388 H 0.46327 0.19327 0.1842 0.0
H389 H 0.52624 0.28338 0.04246 0.0
H390 H 0.54832 0.27523 0.01602 0.0
H391 H 0.55269 0.28771 0.07849 0.0
C392 C 0.29945 0.49315 0.27628 0.0
C393 C 0.3126 0.5105 0.23805 0.0
C394 C 0.27735 0.49115 0.29688 0.0
C395 C 0.26799 0.50655 0.27818 0.0
C396 C 0.28048 0.52305 0.23771 0.0
C397 C 0.30271 0.52499 0.21851 0.0
C398 C 0.26479 0.47352 0.34031 0.0
C399 C 0.27095 0.53949 0.21595 0.0
C400 C 0.20165 0.49346 0.30864 0.0
C401 C 0.20656 0.51196 0.3448 0.0
C402 C 0.22134 0.49098 0.28741 0.0
C403 C 0.24648 0.50713 0.30328 0.0
C404 C 0.25136 0.52517 0.34116 0.0
C405 C 0.23141 0.5275 0.36111 0.0
C406 C 0.21536 0.47173 0.24673 0.0
C407 C 0.27781 0.54254 0.35973 0.0
H408 H 0.30708 0.482 0.29173 0.0
H409 H 0.31269 0.53831 0.18871 0.0
H410 H 0.26687 0.48468 0.37448 0.0
H411 H 0.24431 0.46139 0.33325 0.0
H412 H 0.27303 0.46128 0.34766 0.0
H413 H 0.28136 0.54947 0.18162 0.0
H414 H 0.25062 0.52797 0.2068 0.0
H415 H 0.27299 0.55376 0.24394 0.0
H416 H 0.1825 0.48145 0.29573 0.0
H417 H 0.23535 0.54172 0.38929 0.0
H418 H 0.22351 0.45962 0.25592 0.0
H419 H 0.22405 0.48149 0.2111 0.0
H420 H 0.19475 0.45952 0.24086 0.0
H421 H 0.28677 0.53145 0.37121 0.0
H422 H 0.27821 0.55421 0.3919 0.0
H423 H 0.2894 0.55533 0.32914 0.0
C424 C 0.71418 0.22832 0.53578 0.0
C425 C 0.70367 0.20423 0.51447 0.0
C426 C 0.73626 0.24876 0.5164 0.0
C427 C 0.74789 0.24525 0.47377 0.0
C428 C 0.73792 0.22073 0.45322 0.0
C429 C 0.71604 0.20043 0.47417 0.0
C430 C 0.74649 0.27438 0.5403 0.0
C431 C 0.74948 0.21621 0.4074 0.0
C432 C 0.78311 0.30452 0.39474 0.0
C433 C 0.80823 0.31347 0.40869 0.0
C434 C 0.76351 0.28171 0.41374 0.0
C435 C 0.76901 0.26769 0.44856 0.0
C436 C 0.79443 0.27632 0.46186 0.0
C437 C 0.81377 0.29899 0.44137 0.0
C438 C 0.73677 0.27302 0.39769 0.0
C439 C 0.8011 0.26221 0.49941 0.0
H440 H 0.70477 0.23133 0.56714 0.0
H441 H 0.70788 0.1819 0.45729 0.0
H442 H 0.76699 0.28295 0.54742 0.0
H443 H 0.74394 0.28712 0.51451 0.0
H444 H 0.7369 0.27345 0.57615 0.0
H445 H 0.74109 0.19582 0.39889 0.0
H446 H 0.74656 0.22562 0.37473 0.0
H447 H 0.77011 0.22455 0.41229 0.0
H448 H 0.77871 0.3155 0.36917 0.0
H449 H 0.83314 0.30586 0.45247 0.0
H450 H 0.72583 0.27389 0.42992 0.0
H451 H 0.72745 0.25311 0.38502 0.0
H452 H 0.73587 0.28476 0.36699 0.0
H453 H 0.79344 0.26292 0.53659 0.0
H454 H 0.82179 0.27026 0.50287 0.0
H455 H 0.7924 0.24207 0.48877 0.0
C456 C 0.4894 0.78175 0.56233 0.0
C457 C 0.50424 0.80667 0.57904 0.0
C458 C 0.4922 0.76209 0.58233 0.0
C459 C 0.51008 0.76729 0.62066 0.0
C460 C 0.5256 0.79252 0.63691 0.0
C461 C 0.52261 0.81195 0.61568 0.0
C462 C 0.47542 0.73558 0.56339 0.0
C463 C 0.5447 0.79886 0.67799 0.0
C464 C 0.49216 0.71091 0.70507 0.0
C465 C 0.50679 0.7011 0.68581 0.0
C466 C 0.49412 0.73319 0.68603 0.0
C467 C 0.51089 0.74592 0.64605 0.0
C468 C 0.5265 0.7367 0.62775 0.0
C469 C 0.5244 0.71447 0.6481 0.0
C470 C 0.47734 0.74244 0.70727 0.0
C471 C 0.54448 0.74956 0.58495 0.0
H472 H 0.47531 0.7775 0.53373 0.0
H473 H 0.53413 0.83115 0.62885 0.0
H474 H 0.48694 0.72701 0.5523 0.0
H475 H 0.46254 0.72374 0.59366 0.0
H476 H 0.46386 0.73495 0.53087 0.0
H477 H 0.55658 0.81951 0.68384 0.0
H478 H 0.53483 0.79008 0.7135 0.0
H479 H 0.55712 0.79101 0.66922 0.0
H480 H 0.47864 0.70081 0.73451 0.0
H481 H 0.53569 0.70695 0.63289 0.0
H482 H 0.4632 0.74028 0.67889 0.0
H483 H 0.4886 0.76277 0.71664 0.0
H484 H 0.46719 0.73189 0.74137 0.0
H485 H 0.5336 0.74734 0.55031 0.0
H486 H 0.55703 0.74162 0.5783 0.0
H487 H 0.55625 0.77007 0.59225 0.0
C488 C 0.71173 0.51232 0.77987 0.0
C489 C 0.70004 0.49653 0.73874 0.0
C490 C 0.73382 0.51447 0.80092 0.0
C491 C 0.74465 0.5008 0.77984 0.0
C492 C 0.7334 0.48564 0.73711 0.0
C493 C 0.7112 0.48355 0.71742 0.0
C494 C 0.74505 0.53063 0.84675 0.0
C495 C 0.74443 0.47101 0.71292 0.0
C496 C 0.81208 0.51688 0.80911 0.0
C497 C 0.80808 0.4977 0.84288 0.0
C498 C 0.7917 0.51861 0.78925 0.0
C499 C 0.76673 0.50091 0.80392 0.0
C500 C 0.76271 0.48201 0.83922 0.0
C501 C 0.78336 0.48055 0.85798 0.0
C502 C 0.79682 0.5389 0.75141 0.0
C503 C 0.73647 0.46288 0.85631 0.0
H504 H 0.70315 0.52233 0.79665 0.0
H505 H 0.70241 0.47146 0.68537 0.0
H506 H 0.74366 0.51854 0.87889 0.0
H507 H 0.76535 0.54421 0.8407 0.0
H508 H 0.73537 0.54127 0.85678 0.0
H509 H 0.73446 0.46152 0.67791 0.0
H510 H 0.76464 0.48376 0.70421 0.0
H511 H 0.74328 0.45647 0.73921 0.0
H512 H 0.83111 0.53022 0.79725 0.0
H513 H 0.78007 0.46578 0.88436 0.0
H514 H 0.78772 0.54982 0.76318 0.0
H515 H 0.78853 0.5301 0.71486 0.0
H516 H 0.8173 0.55212 0.74614 0.0
H517 H 0.72641 0.47256 0.87 0.0
H518 H 0.73663 0.45053 0.88655 0.0
H519 H 0.72555 0.45083 0.82434 0.0
C520 C 0.20679 0.71373 0.94372 0.0
C521 C 0.21144 0.699 0.90992 0.0
C522 C 0.22674 0.73618 0.96367 0.0
C523 C 0.25189 0.74427 0.94894 0.0
C524 C 0.25651 0.72995 0.91328 0.0
C525 C 0.23631 0.70747 0.89457 0.0
C526 C 0.221 0.75071 0.00195 0.0
C527 C 0.28292 0.73798 0.89588 0.0
C528 C 0.30582 0.81133 0.97228 0.0
C529 C 0.31852 0.80754 0.01192 0.0
C530 C 0.28367 0.79108 0.95214 0.0
C531 C 0.27365 0.76663 0.97302 0.0
C532 C 0.28575 0.76309 0.01481 0.0
C533 C 0.30819 0.78347 0.03321 0.0
C534 C 0.27172 0.79561 0.90699 0.0
C535 C 0.27547 0.73755 0.03909 0.0
H536 H 0.18764 0.70729 0.95589 0.0
H537 H 0.24009 0.69633 0.8682 0.0
H538 H 0.22927 0.75015 0.03847 0.0
H539 H 0.22972 0.7708 0.99084 0.0
H540 H 0.20042 0.74295 0.00697 0.0
H541 H 0.28316 0.72591 0.86511 0.0
H542 H 0.29248 0.75783 0.88282 0.0
H543 H 0.29408 0.73699 0.92753 0.0
H544 H 0.31386 0.82987 0.95545 0.0
H545 H 0.31784 0.78049 0.06411 0.0
H546 H 0.25128 0.78796 0.91335 0.0
H547 H 0.27364 0.78553 0.8743 0.0
H548 H 0.28055 0.81595 0.89761 0.0
H549 H 0.25515 0.72942 0.04769 0.0
H550 H 0.28558 0.73847 0.07418 0.0
H551 H 0.27723 0.72446 0.01292 0.0
C552 C 0.61554 0.14563 0.71817 0.0
C553 C 0.608 0.15123 0.67285 0.0
C554 C 0.60281 0.14427 0.76293 0.0
C555 C 0.58234 0.14892 0.76217 0.0
C556 C 0.57435 0.15399 0.71627 0.0
C557 C 0.58718 0.15495 0.67227 0.0
C558 C 0.61164 0.13848 0.81117 0.0
C559 C 0.55285 0.15937 0.71384 0.0
C560 C 0.53763 0.13158 0.8731 0.0
C561 C 0.54835 0.15452 0.89879 0.0
C562 C 0.54866 0.12928 0.82873 0.0
C563 C 0.57054 0.15059 0.80958 0.0
C564 C 0.58093 0.17393 0.8351 0.0
C565 C 0.56991 0.17548 0.87986 0.0
C566 C 0.53735 0.10399 0.80308 0.0
C567 C 0.60384 0.19724 0.81538 0.0
H568 H 0.63151 0.14258 0.71876 0.0
H569 H 0.58116 0.15926 0.63737 0.0
H570 H 0.61954 0.15523 0.83597 0.0
H571 H 0.59551 0.12288 0.83117 0.0
H572 H 0.6263 0.13316 0.80491 0.0
H573 H 0.54813 0.1617 0.67484 0.0
H574 H 0.53577 0.14389 0.73168 0.0
H575 H 0.55792 0.1769 0.73487 0.0
H576 H 0.5213 0.11526 0.88879 0.0
H577 H 0.57829 0.19308 0.90047 0.0
H578 H 0.55149 0.09774 0.80124 0.0
H579 H 0.53216 0.10555 0.76407 0.0
H580 H 0.52033 0.08932 0.82273 0.0
H581 H 0.62013 0.19407 0.81368 0.0
H582 H 0.60907 0.21409 0.83896 0.0
H583 H 0.60026 0.2013 0.77678 0.0
C584 C 0.44023 0.5981 0.85651 0.0
C585 C 0.46637 0.60985 0.84988 0.0
C586 C 0.42888 0.58593 0.90132 0.0
C587 C 0.44399 0.58476 0.93997 0.0
C588 C 0.47043 0.59619 0.93316 0.0
C589 C 0.48142 0.60903 0.88829 0.0
C590 C 0.40078 0.57482 0.9076 0.0
C591 C 0.48701 0.59471 0.9731 0.0
C592 C 0.41811 0.57683 0.07134 0.0
C593 C 0.40627 0.55067 0.07805 0.0
C594 C 0.43062 0.58813 0.02676 0.0
C595 C 0.43209 0.57297 0.98851 0.0
C596 C 0.42066 0.54653 -0.00447 0.0
C597 C 0.40744 0.53558 0.04008 0.0
C598 C 0.44167 0.61621 0.02015 0.0
C599 C 0.42245 0.52989 0.95606 0.0
H600 H 0.4286 0.59881 0.82672 0.0
H601 H 0.5016 0.61781 0.88273 0.0
H602 H 0.3917 0.55433 0.91535 0.0
H603 H 0.39693 0.58366 0.94008 0.0
H604 H 0.39181 0.57758 0.87397 0.0
H605 H 0.50694 0.60318 0.96081 0.0
H606 H 0.48638 0.60465 0.00724 0.0
H607 H 0.47992 0.57473 0.98355 0.0
H608 H 0.41711 0.58848 0.10077 0.0
H609 H 0.39856 0.51539 0.0457 0.0
H610 H 0.43279 0.61992 0.98756 0.0
H611 H 0.46215 0.62533 0.01238 0.0
H612 H 0.43886 0.62527 0.05362 0.0
H613 H 0.4124 0.53015 0.92181 0.0
H614 H 0.41425 0.51006 0.9688 0.0
H615 H 0.44246 0.5372 0.94563 0.0
C616 C 0.88511 0.47451 0.04126 0.0
C617 C 0.86316 0.47356 0.02375 0.0
C618 C 0.88499 0.46239 0.08584 0.0
C619 C 0.86217 0.44856 0.11275 0.0
C620 C 0.84008 0.44819 0.09579 0.0
C621 C 0.84088 0.46083 0.05142 0.0
C622 C 0.90906 0.46371 0.10321 0.0
C623 C 0.81537 0.43357 0.12331 0.0
C624 C 0.85501 0.39605 0.19964 0.0
C625 C 0.85861 0.40759 0.24644 0.0
C626 C 0.85615 0.40917 0.15561 0.0
C627 C 0.86139 0.43448 0.15866 0.0
C628 C 0.86557 0.44631 0.20576 0.0
C629 C 0.8639 0.43269 0.24897 0.0
C630 C 0.85139 0.39589 0.10592 0.0
C631 C 0.87162 0.47336 0.21061 0.0
H632 H 0.90223 0.48414 0.01936 0.0
H633 H 0.82379 0.45963 0.03693 0.0
H634 H 0.91305 0.47023 0.14257 0.0
H635 H 0.90693 0.44463 0.10192 0.0
H636 H 0.9255 0.4766 0.0798 0.0
H637 H 0.80012 0.43579 0.10599 0.0
H638 H 0.8095 0.41324 0.12362 0.0
H639 H 0.81759 0.43986 0.16279 0.0
H640 H 0.85084 0.37666 0.19749 0.0
H641 H 0.86672 0.44183 0.28493 0.0
H642 H 0.86789 0.40641 0.08097 0.0
H643 H 0.83498 0.39541 0.08732 0.0
H644 H 0.84766 0.37626 0.10985 0.0
H645 H 0.8884 0.48584 0.18769 0.0
H646 H 0.87536 0.48011 0.2499 0.0
H647 H 0.85569 0.47529 0.19624 0.0
C648 C 0.45471 0.83453 0.37442 0.0
C649 C 0.47377 0.85647 0.39659 0.0
C650 C 0.44296 0.8357 0.33042 0.0
C651 C 0.45013 0.85948 0.30889 0.0
C652 C 0.46977 0.88171 0.33083 0.0
C653 C 0.48146 0.87991 0.37455 0.0
C654 C 0.42241 0.81153 0.30774 0.0
C655 C 0.47782 0.90739 0.3091 0.0
C656 C 0.4342 0.8586 0.17222 0.0
C657 C 0.41158 0.85916 0.17423 0.0
C658 C 0.44722 0.85938 0.21567 0.0
C659 C 0.43747 0.86082 0.2626 0.0
C660 C 0.41495 0.86201 0.2651 0.0
C661 C 0.40217 0.8611 0.22072 0.0
C662 C 0.47105 0.85791 0.21135 0.0
C663 C 0.40414 0.86374 0.31465 0.0
H664 H 0.44845 0.81651 0.39253 0.0
H665 H 0.49579 0.89687 0.39273 0.0
H666 H 0.40437 0.81165 0.30775 0.0
H667 H 0.42703 0.80999 0.26826 0.0
H668 H 0.41962 0.79457 0.32832 0.0
H669 H 0.49365 0.92277 0.33023 0.0
H670 H 0.48368 0.90822 0.26959 0.0
H671 H 0.46167 0.91081 0.30937 0.0
H672 H 0.44168 0.85711 0.13647 0.0
H673 H 0.38477 0.86163 0.22244 0.0
H674 H 0.46825 0.8404 0.22948 0.0
H675 H 0.48677 0.87402 0.23109 0.0
H676 H 0.47672 0.858 0.17187 0.0
H677 H 0.39856 0.84641 0.33676 0.0
H678 H 0.3874 0.86608 0.31012 0.0
H679 H 0.41862 0.87987 0.33657 0.0
C680 C 0.60667 0.4794 0.53348 0.0
C681 C 0.6208 0.47 0.55634 0.0
C682 C 0.59383 0.4689 0.48849 0.0
C683 C 0.59538 0.44868 0.46633 0.0
C684 C 0.61049 0.43989 0.48867 0.0
C685 C 0.6228 0.45051 0.53376 0.0
C686 C 0.57778 0.47865 0.46589 0.0
C687 C 0.61294 0.41864 0.46591 0.0
C688 C 0.54524 0.4014 0.37853 0.0
C689 C 0.5572 0.40969 0.33217 0.0
C690 C 0.55699 0.4146 0.42257 0.0
C691 C 0.58121 0.43645 0.41993 0.0
C692 C 0.59291 0.44532 0.37301 0.0
C693 C 0.58077 0.43186 0.32979 0.0
C694 C 0.54387 0.40473 0.47207 0.0
C695 C 0.61875 0.46843 0.36859 0.0
H696 H 0.60463 0.49403 0.55205 0.0
H697 H 0.63335 0.443 0.55242 0.0
H698 H 0.58291 0.48373 0.42611 0.0
H699 H 0.55769 0.46362 0.46689 0.0
H700 H 0.57978 0.49541 0.48608 0.0
H701 H 0.62636 0.41485 0.48681 0.0
H702 H 0.59427 0.40114 0.46546 0.0
H703 H 0.61944 0.42316 0.4266 0.0
H704 H 0.52699 0.38438 0.38051 0.0
H705 H 0.59015 0.43849 0.29408 0.0
H706 H 0.54339 0.42002 0.49338 0.0
H707 H 0.55454 0.39807 0.49482 0.0
H708 H 0.52428 0.38887 0.46744 0.0
H709 H 0.6193 0.48457 0.38854 0.0
H710 H 0.62438 0.47396 0.32907 0.0
H711 H 0.63292 0.46471 0.38643 0.0
C712 C 0.16748 0.5448 0.55916 0.0
C713 C 0.15161 0.54302 0.51995 0.0
C714 C 0.16816 0.55741 0.60357 0.0
C715 C 0.15208 0.56772 0.60891 0.0
C716 C 0.13503 0.56462 0.57035 0.0
C717 C 0.13536 0.55271 0.52602 0.0
C718 C 0.18684 0.5607 0.64377 0.0
C719 C 0.11691 0.57447 0.5753 0.0
C720 C 0.14006 0.58199 0.74023 0.0
C721 C 0.15549 0.60824 0.74256 0.0
C722 C 0.13829 0.56866 0.69658 0.0
C723 C 0.15304 0.58185 0.6547 0.0
C724 C 0.16842 0.60848 0.65645 0.0
C725 C 0.16918 0.62147 0.70037 0.0
C726 C 0.1209 0.54042 0.69557 0.0
C727 C 0.18469 0.62311 0.61261 0.0
H728 H 0.18037 0.53769 0.55394 0.0
H729 H 0.12317 0.55145 0.49564 0.0
H730 H 0.20026 0.58108 0.6495 0.0
H731 H 0.17696 0.55303 0.67977 0.0
H732 H 0.19769 0.55118 0.63422 0.0
H733 H 0.10349 0.56864 0.54351 0.0
H734 H 0.10599 0.56758 0.61052 0.0
H735 H 0.12756 0.59536 0.57703 0.0
H736 H 0.12943 0.57172 0.77277 0.0
H737 H 0.18139 0.64174 0.70255 0.0
H738 H 0.13205 0.53083 0.69079 0.0
H739 H 0.10786 0.53506 0.66328 0.0
H740 H 0.10956 0.53328 0.73033 0.0
H741 H 0.19799 0.61633 0.60361 0.0
H742 H 0.1957 0.64369 0.62008 0.0
H743 H 0.17284 0.61988 0.57906 0.0
C744 C 0.47383 0.06544 0.04968 0.0
C745 C 0.49593 0.07329 0.02165 0.0
C746 C 0.45687 0.03963 0.0584 0.0
C747 C 0.46216 0.02128 0.03868 0.0
C748 C 0.4837 0.0291 0.00811 0.0
C749 C 0.50022 0.05488 -1e-05 0.0
C750 C 0.43399 0.0321 0.09068 0.0
C751 C 0.49005 0.01027 0.98593 0.0
C752 C 0.44532 0.95958 0.10185 0.0
C753 C 0.42731 0.94191 0.06901 0.0
C754 C 0.45519 0.98554 0.0949 0.0
C755 C 0.44708 0.99419 0.05371 0.0
C756 C 0.42732 0.97641 0.02295 0.0
C757 C 0.41757 0.95041 0.03108 0.0
C758 C 0.47586 1.00372 0.12927 0.0
C759 C 0.41791 0.98477 0.97898 0.0
H760 H 0.47022 0.07944 0.06642 0.0
H761 H 0.51698 0.06062 0.97763 0.0
H762 H 0.41703 0.01604 0.07376 0.0
H763 H 0.43687 0.02581 0.12773 0.0
H764 H 0.43036 0.04797 0.09647 0.0
H765 H 0.50642 0.01923 0.96006 0.0
H766 H 0.49456 1.00084 0.01634 0.0
H767 H 0.47364 0.99543 0.96523 0.0
H768 H 0.45267 0.95311 0.13167 0.0
H769 H 0.40366 0.93688 0.00552 0.0
H770 H 0.47231 0.01901 0.14125 0.0
H771 H 0.49411 0.01262 0.10898 0.0
H772 H 0.47765 0.99421 0.16308 0.0
H773 H 0.41564 1.00108 0.98916 0.0
H774 H 0.39965 0.96932 0.96477 0.0
H775 H 0.43193 0.99091 0.94825 0.0
C776 C 0.47271 0.41436 0.2312 0.0
C777 C 0.49617 0.42803 0.20747 0.0
C778 C 0.45554 0.42338 0.23126 0.0
C779 C 0.46193 0.44625 0.20626 0.0
C780 C 0.48489 0.45903 0.17944 0.0
C781 C 0.50176 0.44992 0.18084 0.0
C782 C 0.43133 0.40926 0.26043 0.0
C783 C 0.49235 0.48318 0.15137 0.0
C784 C 0.41829 0.47189 0.17603 0.0
C785 C 0.42688 0.49178 0.2103 0.0
C786 C 0.42811 0.45542 0.17635 0.0
C787 C 0.44655 0.4588 0.21234 0.0
C788 C 0.45351 0.47759 0.24959 0.0
C789 C 0.4439 0.49409 0.24759 0.0
C790 C 0.4203 0.43581 0.13579 0.0
C791 C 0.47262 0.48156 0.28937 0.0
H792 H 0.46837 0.39743 0.25181 0.0
H793 H 0.51974 0.4603 0.16179 0.0
H794 H 0.43274 0.41982 0.29512 0.0
H795 H 0.41523 0.40769 0.23859 0.0
H796 H 0.42727 0.39004 0.27097 0.0
H797 H 0.50951 0.4893 0.12825 0.0
H798 H 0.47679 0.4808 0.12664 0.0
H799 H 0.49611 0.49844 0.17833 0.0
H800 H 0.40518 0.47023 0.14705 0.0
H801 H 0.45036 0.50942 0.27427 0.0
H802 H 0.41722 0.41768 0.15124 0.0
H803 H 0.4356 0.44226 0.10762 0.0
H804 H 0.40285 0.43251 0.11655 0.0
H805 H 0.46841 0.46329 0.30609 0.0
H806 H 0.4731 0.49421 0.31965 0.0
H807 H 0.49165 0.49013 0.27227 0.0
C808 C 0.05278 0.48516 0.42724 0.0
C809 C 0.07165 0.48467 0.39835 0.0
C810 C 0.0272 0.46864 0.41765 0.0
C811 C 0.02011 0.45101 0.3781 0.0
C812 C 0.03901 0.44888 0.35158 0.0
C813 C 0.06464 0.46579 0.36199 0.0
C814 C 1.00779 0.47147 0.44745 0.0
C815 C 0.03229 0.42998 0.30995 0.0
C816 C 0.94908 0.40736 0.37581 0.0
C817 C 0.94167 0.42131 0.34573 0.0
C818 C 0.9748 0.41546 0.38333 0.0
C819 C 0.99341 0.43803 0.36044 0.0
C820 C 0.98591 0.45073 0.32638 0.0
C821 C 0.96022 0.4422 0.3194 0.0
C822 C 0.98195 0.40093 0.41879 0.0
C823 C 1.00501 0.47472 0.30062 0.0
H824 H 0.05802 0.49935 0.4561 0.0
H825 H 0.07909 0.46518 0.33965 0.0
H826 H 0.99854 0.47908 0.42299 0.0
H827 H 0.99294 0.45288 0.46149 0.0
H828 H 0.01624 0.48438 0.47982 0.0
H829 H 0.04813 0.4267 0.30103 0.0
H830 H 0.01545 0.41171 0.31983 0.0
H831 H 0.0277 0.43714 0.2758 0.0
H832 H 0.93492 0.39106 0.39602 0.0
H833 H 0.95471 0.45282 0.29524 0.0
H834 H 0.9868 0.41046 0.45571 0.0
H835 H 0.99873 0.40035 0.40502 0.0
H836 H 0.96623 0.38132 0.42419 0.0
H837 H 0.01405 0.49009 0.3286 0.0
H838 H 0.99631 0.48072 0.27124 0.0
H839 H 0.02008 0.47225 0.28326 0.0
C840 C 0.54448 0.94837 0.55313 0.0
C841 C 0.52821 0.93959 0.51183 0.0
C842 C 0.56011 0.97444 0.56168 0.0
C843 C 0.55956 0.99201 0.52794 0.0
C844 C 0.54483 0.9831 0.48396 0.0
C845 C 0.52929 0.95707 0.47661 0.0
C846 C 0.57572 0.98309 0.60873 0.0
C847 C 0.54389 1.00104 0.44647 0.0
C848 C 0.56447 0.05288 0.57381 0.0
C849 C 0.58801 0.07127 0.55516 0.0
C850 C 0.55571 0.02708 0.56748 0.0
C851 C 0.57081 0.01919 0.54185 0.0
C852 C 0.59522 0.03753 0.52546 0.0
C853 C 0.60355 0.06339 0.53228 0.0
C854 C 0.52963 0.00827 0.586 0.0
C855 C 0.61205 0.02994 0.49857 0.0
H856 H 0.54378 0.93499 0.5805 0.0
H857 H 0.51707 0.9504 0.44416 0.0
H858 H 0.59472 0.99935 0.60093 0.0
H859 H 0.56647 0.98942 0.63621 0.0
H860 H 0.57782 0.96775 0.62603 0.0
H861 H 0.5341 0.99132 0.41147 0.0
H862 H 0.53373 0.01006 0.46302 0.0
H863 H 0.56319 0.01626 0.43694 0.0
H864 H 0.5524 0.05863 0.59229 0.0
H865 H 0.62182 0.07737 0.51792 0.0
H866 H 0.53029 0.99361 0.60921 0.0
H867 H 0.51715 0.99862 0.55366 0.0
H868 H 0.52106 0.01732 0.60847 0.0
H869 H 0.61217 0.01402 0.51806 0.0
H870 H 0.63172 0.04584 0.49552 0.0
H871 H 0.60469 0.02344 0.46031 0.0
C872 C 0.56801 0.51659 0.6543 0.0
C873 C 0.58868 0.51868 0.68109 0.0
C874 C 0.55845 0.53278 0.66352 0.0
C875 C 0.56983 0.55179 0.70039 0.0
C876 C 0.59169 0.55512 0.7254 0.0
C877 C 0.60086 0.5385 0.71552 0.0
C878 C 0.5352 0.52852 0.63565 0.0
C879 C 0.60464 0.5754 0.76439 0.0
C880 C 0.54478 0.59765 0.69866 0.0
C881 C 0.52438 0.58577 0.73187 0.0
C882 C 0.56103 0.58789 0.69038 0.0
C883 C 0.55683 0.56587 0.71612 0.0
C884 C 0.53747 0.55508 0.75249 0.0
C885 C 0.5215 0.56508 0.75975 0.0
C886 C 0.58161 0.60018 0.65173 0.0
C887 C 0.53243 0.53183 0.78138 0.0
H888 H 0.55865 0.50167 0.62698 0.0
H889 H 0.61692 0.54043 0.73626 0.0
H890 H 0.51917 0.52195 0.6621 0.0
H891 H 0.53832 0.54642 0.61888 0.0
H892 H 0.52979 0.51427 0.60547 0.0
H893 H 0.6235 0.57828 0.7743 0.0
H894 H 0.60681 0.59354 0.7511 0.0
H895 H 0.59293 0.57001 0.79874 0.0
H896 H 0.54723 0.61369 0.67705 0.0
H897 H 0.50607 0.55603 0.78617 0.0
H898 H 0.57597 0.58842 0.61744 0.0
H899 H 0.59935 0.6016 0.66545 0.0
H900 H 0.5853 0.61932 0.64154 0.0
H901 H 0.52489 0.51542 0.75569 0.0
H902 H 0.51861 0.52743 0.81205 0.0
H903 H 0.55015 0.53424 0.79763 0.0
C904 C 0.05688 0.56208 0.86372 0.0
C905 C 0.07602 0.58751 0.8652 0.0
C906 C 0.03149 0.55487 0.87008 0.0
C907 C 0.02461 0.57349 0.8778 0.0
C908 C 0.04362 0.5993 0.87833 0.0
C909 C 0.06916 0.60603 0.87228 0.0
C910 C 0.01204 0.52708 0.86972 0.0
C911 C 0.03698 0.61969 0.88586 0.0
C912 C 0.95444 0.54401 0.85513 0.0
C913 C 0.94507 0.53412 0.90262 0.0
C914 C 0.98055 0.55932 0.847 0.0
C915 C 0.9975 0.56514 0.88754 0.0
C916 C 0.98773 0.55755 0.93646 0.0
C917 C 0.96167 0.54178 0.94327 0.0
C918 C 0.99003 0.56681 0.79421 0.0
C919 C 1.00491 0.56375 0.98103 0.0
H920 H 0.0617 0.54745 0.85857 0.0
H921 H 0.08371 0.62572 0.87332 0.0
H922 H 1.00249 0.52147 0.90659 0.0
H923 H 0.9974 0.52316 0.8412 0.0
H924 H 0.02043 0.51503 0.8617 0.0
H925 H 0.0538 0.63887 0.88414 0.0
H926 H 0.02335 0.61818 0.85688 0.0
H927 H 0.02767 0.61725 0.92265 0.0
H928 H 0.94164 0.53792 0.82357 0.0
H929 H 0.9544 0.53419 0.98007 0.0
H930 H 0.99661 0.55407 0.7799 0.0
H931 H 1.00626 0.58632 0.79292 0.0
H932 H 0.97504 0.56542 0.76886 0.0
H933 H 0.01309 0.55116 0.98124 0.0
H934 H 0.99463 0.56111 0.01677 0.0
H935 H 0.02074 0.58347 0.97907 0.0
loop_
_geom_bond_atom_site_label_1
_geom_bond_atom_site_label_2
_geom_bond_distance
_geom_bond_site_symmetry_2
_ccdc_geom_bond_type
Co0 O1 2.216 . S
Co0 O2 2.091 . S
Co0 O4 2.004 . S
Co0 O10 2.021 . S
Co0 O12 2.137 1_554 S
Co0 O13 2.244 . S
O1 Co0 2.216 . S
O1 C8 1.247 . S
O2 Co0 2.091 . S
O2 C8 1.261 . S
C3 O12 1.247 . S
C3 O13 1.272 1_556 S
O4 Co0 2.004 . S
O4 C9 1.259 . S
Co5 O6 2.061 . S
Co5 O11 2.052 . S
Co5 O13 2.135 . S
O6 Co5 2.061 . S
O6 C9 1.235 . S
C7 O10 1.238 . S
C7 O11 1.241 . S
C8 O1 1.247 . S
C8 O2 1.261 . S
C9 O4 1.259 . S
C9 O6 1.235 . S
O10 Co0 2.021 . S
O10 C7 1.238 . S
O11 Co5 2.052 . S
O11 C7 1.241 . S
O12 Co0 2.137 1_556 S
O12 C3 1.247 . S
O13 Co0 2.244 . S
O13 C3 1.272 1_554 S
O13 Co5 2.135 . S
Co14 O15 2.216 . S
Co14 O16 2.091 . S
Co14 O18 2.004 . S
Co14 O24 2.021 . S
Co14 O26 2.137 . S
Co14 O27 2.244 . S
O15 Co14 2.216 . S
O15 C22 1.247 . S
O16 Co14 2.091 . S
O16 C22 1.261 . S
C17 O26 1.247 . S
C17 O27 1.272 . S
O18 Co14 2.004 . S
O18 C23 1.259 . S
Co19 O20 2.061 . S
Co19 O25 2.052 . S
Co19 O27 2.135 . S
O20 Co19 2.061 . S
O20 C23 1.235 . S
C21 O24 1.238 . S
C21 O25 1.241 . S
C22 O15 1.247 . S
C22 O16 1.261 . S
C23 O18 1.259 . S
C23 O20 1.235 . S
O24 Co14 2.021 . S
O24 C21 1.238 . S
O25 Co19 2.052 . S
O25 C21 1.241 . S
O26 Co14 2.137 . S
O26 C17 1.247 . S
O27 Co14 2.244 . S
O27 C17 1.272 . S
O27 Co19 2.135 . S
Co28 O29 2.216 . S
Co28 O30 2.091 . S
Co28 O32 2.004 . S
Co28 O38 2.021 . S
Co28 O40 2.137 . S
Co28 O41 2.244 . S
O29 Co28 2.216 . S
O29 C36 1.247 . S
O30 Co28 2.091 . S
O30 C36 1.261 . S
C31 O40 1.247 . S
C31 O41 1.272 . S
O32 Co28 2.004 . S
O32 C37 1.259 . S
Co33 O34 2.061 . S
Co33 O39 2.052 . S
Co33 O41 2.135 . S
O34 Co33 2.061 . S
O34 C37 1.235 . S
C35 O38 1.238 . S
C35 O39 1.241 . S
C36 O29 1.247 . S
C36 O30 1.261 . S
C37 O32 1.259 . S
C37 O34 1.235 . S
O38 Co28 2.021 . S
O38 C35 1.238 . S
O39 Co33 2.052 . S
O39 C35 1.241 . S
O40 Co28 2.137 . S
O40 C31 1.247 . S
O41 Co28 2.244 . S
O41 C31 1.272 . S
O41 Co33 2.135 . S
Co42 O43 2.216 . S
Co42 O44 2.091 . S
Co42 O46 2.004 . S
Co42 O52 2.021 . S
Co42 O54 2.137 . S
Co42 O55 2.244 . S
O43 Co42 2.216 . S
O43 C50 1.247 . S
O44 Co42 2.091 . S
O44 C50 1.261 . S
C45 O54 1.247 . S
C45 O55 1.272 . S
O46 Co42 2.004 . S
O46 C51 1.259 . S
Co47 O48 2.061 . S
Co47 O53 2.052 . S
Co47 O55 2.135 . S
O48 Co47 2.061 . S
O48 C51 1.235 . S
C49 O52 1.238 . S
C49 O53 1.241 . S
C50 O43 1.247 . S
C50 O44 1.261 . S
C51 O46 1.259 . S
C51 O48 1.235 . S
O52 Co42 2.021 . S
O52 C49 1.238 . S
O53 Co47 2.052 . S
O53 C49 1.241 . S
O54 Co42 2.137 . S
O54 C45 1.247 . S
O55 Co42 2.244 . S
O55 C45 1.272 . S
O55 Co47 2.135 . S
Co56 O57 2.216 . S
Co56 O58 2.091 . S
Co56 O60 2.004 . S
Co56 O66 2.021 . S
Co56 O68 2.137 . S
Co56 O69 2.244 . S
O57 Co56 2.216 . S
O57 C64 1.247 . S
O58 Co56 2.091 . S
O58 C64 1.261 . S
C59 O68 1.247 . S
C59 O69 1.272 . S
O60 Co56 2.004 . S
O60 C65 1.259 . S
Co61 O62 2.061 . S
Co61 O67 2.052 . S
Co61 O69 2.135 . S
O62 Co61 2.061 . S
O62 C65 1.235 . S
C63 O66 1.238 . S
C63 O67 1.241 . S
C64 O57 1.247 . S
C64 O58 1.261 . S
C65 O60 1.259 . S
C65 O62 1.235 . S
O66 Co56 2.021 . S
O66 C63 1.238 . S
O67 Co61 2.052 . S
O67 C63 1.241 . S
O68 Co56 2.137 . S
O68 C59 1.247 . S
O69 Co56 2.244 . S
O69 C59 1.272 . S
O69 Co61 2.135 . S
Co70 O71 2.216 . S
Co70 O72 2.091 . S
Co70 O74 2.004 . S
Co70 O80 2.021 . S
Co70 O82 2.137 . S
Co70 O83 2.244 . S
O71 Co70 2.216 . S
O71 C78 1.247 . S
O72 Co70 2.091 . S
O72 C78 1.261 . S
C73 O82 1.247 . S
C73 O83 1.272 . S
O74 Co70 2.004 . S
O74 C79 1.259 . S
Co75 O76 2.061 . S
Co75 O81 2.052 . S
Co75 O83 2.135 . S
O76 Co75 2.061 . S
O76 C79 1.235 . S
C77 O80 1.238 . S
C77 O81 1.241 . S
C78 O71 1.247 . S
C78 O72 1.261 . S
C79 O74 1.259 . S
C79 O76 1.235 . S
O80 Co70 2.021 . S
O80 C77 1.238 . S
O81 Co75 2.052 . S
O81 C77 1.241 . S
O82 Co70 2.137 . S
O82 C73 1.247 . S
O83 Co70 2.244 . S
O83 C73 1.272 . S
O83 Co75 2.135 . S
Co84 O85 2.216 . S
Co84 O86 2.091 . S
Co84 O88 2.004 . S
Co84 O94 2.021 . S
Co84 O96 2.137 . S
Co84 O97 2.244 . S
O85 Co84 2.216 . S
O85 C92 1.247 . S
O86 Co84 2.091 . S
O86 C92 1.261 . S
C87 O96 1.247 . S
C87 O97 1.272 . S
O88 Co84 2.004 . S
O88 C93 1.259 . S
Co89 O90 2.061 . S
Co89 O95 2.052 . S
Co89 O97 2.135 . S
O90 Co89 2.061 . S
O90 C93 1.235 . S
C91 O94 1.238 . S
C91 O95 1.241 . S
C92 O85 1.247 . S
C92 O86 1.261 . S
C93 O88 1.259 . S
C93 O90 1.235 . S
O94 Co84 2.021 . S
O94 C91 1.238 . S
O95 Co89 2.052 . S
O95 C91 1.241 . S
O96 Co84 2.137 . S
O96 C87 1.247 . S
O97 Co84 2.244 . S
O97 C87 1.272 . S
O97 Co89 2.135 . S
Co98 O99 2.216 . S
Co98 O100 2.091 . S
Co98 O102 2.004 . S
Co98 O108 2.021 1_554 S
Co98 O110 2.137 . S
Co98 O111 2.244 . S
O99 Co98 2.216 . S
O99 C106 1.247 . S
O100 Co98 2.091 . S
O100 C106 1.261 . S
C101 O110 1.247 . S
C101 O111 1.272 . S
O102 Co98 2.004 . S
O102 C107 1.259 . S
Co103 O104 2.061 . S
Co103 O109 2.052 1_554 S
Co103 O111 2.135 . S
O104 Co103 2.061 . S
O104 C107 1.235 . S
C105 O108 1.238 . S
C105 O109 1.241 . S
C106 O99 1.247 . S
C106 O100 1.261 . S
C107 O102 1.259 . S
C107 O104 1.235 . S
O108 Co98 2.021 1_556 S
O108 C105 1.238 . S
O109 Co103 2.052 1_556 S
O109 C105 1.241 . S
O110 Co98 2.137 . S
O110 C101 1.247 . S
O111 Co98 2.244 . S
O111 C101 1.272 . S
O111 Co103 2.135 . S
Co112 O113 2.216 . S
Co112 O114 2.091 . S
Co112 O116 2.004 . S
Co112 O122 2.021 . S
Co112 O124 2.137 . S
Co112 O125 2.244 . S
O113 Co112 2.216 . S
O113 C120 1.247 . S
O114 Co112 2.091 . S
O114 C120 1.261 . S
C115 O124 1.247 . S
C115 O125 1.272 . S
O116 Co112 2.004 . S
O116 C121 1.259 . S
Co117 O118 2.061 . S
Co117 O123 2.052 . S
Co117 O125 2.135 . S
O118 Co117 2.061 . S
O118 C121 1.235 . S
C119 O122 1.238 . S
C119 O123 1.241 . S
C120 O113 1.247 . S
C120 O114 1.261 . S
C121 O116 1.259 . S
C121 O118 1.235 . S
O122 Co112 2.021 . S
O122 C119 1.238 . S
O123 Co117 2.052 . S
O123 C119 1.241 . S
O124 Co112 2.137 . S
O124 C115 1.247 . S
O125 Co112 2.244 . S
O125 C115 1.272 . S
O125 Co117 2.135 . S
Co126 O127 2.216 . S
Co126 O128 2.091 . S
Co126 O130 2.004 . S
Co126 O136 2.021 . S
Co126 O138 2.137 . S
Co126 O139 2.244 . S
O127 Co126 2.216 . S
O127 C134 1.247 . S
O128 Co126 2.091 . S
O128 C134 1.261 . S
C129 O138 1.247 . S
C129 O139 1.272 . S
O130 Co126 2.004 . S
O130 C135 1.259 . S
Co131 O132 2.061 . S
Co131 O137 2.052 . S
Co131 O139 2.135 . S
O132 Co131 2.061 . S
O132 C135 1.235 . S
C133 O136 1.238 . S
C133 O137 1.241 . S
C134 O127 1.247 . S
C134 O128 1.261 . S
C135 O130 1.259 . S
C135 O132 1.235 . S
O136 Co126 2.021 . S
O136 C133 1.238 . S
O137 Co131 2.052 . S
O137 C133 1.241 . S
O138 Co126 2.137 . S
O138 C129 1.247 . S
O139 Co126 2.244 . S
O139 C129 1.272 . S
O139 Co131 2.135 . S
Co140 O141 2.216 . S
Co140 O142 2.091 . S
Co140 O144 2.004 . S
Co140 O150 2.021 . S
Co140 O152 2.137 . S
Co140 O153 2.244 . S
O141 Co140 2.216 . S
O141 C148 1.247 . S
O142 Co140 2.091 . S
O142 C148 1.261 . S
C143 O152 1.247 . S
C143 O153 1.272 . S
O144 Co140 2.004 . S
O144 C149 1.259 . S
Co145 O146 2.061 . S
Co145 O151 2.052 . S
Co145 O153 2.135 . S
O146 Co145 2.061 . S
O146 C149 1.235 . S
C147 O150 1.238 . S
C147 O151 1.241 . S
C148 O141 1.247 . S
C148 O142 1.261 . S
C149 O144 1.259 . S
C149 O146 1.235 . S
O150 Co140 2.021 . S
O150 C147 1.238 . S
O151 Co145 2.052 . S
O151 C147 1.241 . S
O152 Co140 2.137 . S
O152 C143 1.247 . S
O153 Co140 2.244 . S
O153 C143 1.272 . S
O153 Co145 2.135 . S
Co154 O155 2.216 . S
Co154 O156 2.091 . S
Co154 O158 2.004 . S
Co154 O164 2.021 . S
Co154 O166 2.137 . S
Co154 O167 2.244 . S
O155 Co154 2.216 . S
O155 C162 1.247 . S
O156 Co154 2.091 . S
O156 C162 1.261 . S
C157 O166 1.247 . S
C157 O167 1.272 . S
O158 Co154 2.004 . S
O158 C163 1.259 . S
Co159 O160 2.061 . S
Co159 O165 2.052 . S
Co159 O167 2.135 . S
O160 Co159 2.061 . S
O160 C163 1.235 . S
C161 O164 1.238 . S
C161 O165 1.241 . S
C162 O155 1.247 . S
C162 O156 1.261 . S
C163 O158 1.259 . S
C163 O160 1.235 . S
O164 Co154 2.021 . S
O164 C161 1.238 . S
O165 Co159 2.052 . S
O165 C161 1.241 . S
O166 Co154 2.137 . S
O166 C157 1.247 . S
O167 Co154 2.244 . S
O167 C157 1.272 . S
O167 Co159 2.135 . S
C168 C169 1.391 . S
C168 C170 1.394 . S
C168 H184 0.931 . S
C169 C168 1.391 . S
C169 C173 1.376 . S
C170 C168 1.394 . S
C170 C171 1.369 . S
C170 C174 1.531 . S
C171 C170 1.369 . S
C171 C172 1.410 . S
C171 C179 1.503 . S
C172 C171 1.410 . S
C172 C173 1.392 . S
C172 C175 1.511 . S
C173 C169 1.376 . S
C173 C172 1.392 . S
C173 H185 0.929 . S
C174 C170 1.531 . S
C174 H186 0.960 . S
C174 H187 0.962 . S
C174 H188 0.960 . S
C175 C172 1.511 . S
C175 H189 0.961 . S
C175 H190 0.961 . S
C175 H191 0.961 . S
C176 C177 1.370 . S
C176 C178 1.363 . S
C176 H192 0.931 . S
C177 C176 1.370 . S
C177 C181 1.408 . S
C178 C176 1.363 . S
C178 C179 1.370 . S
C178 C182 1.524 . S
C179 C171 1.503 . S
C179 C178 1.370 . S
C179 C180 1.403 . S
C180 C179 1.403 . S
C180 C181 1.404 . S
C180 C183 1.539 . S
C181 C177 1.408 . S
C181 C180 1.404 . S
C181 H193 0.930 . S
C182 C178 1.524 . S
C182 H194 0.956 . S
C182 H195 0.961 . S
C182 H196 0.961 . S
C183 C180 1.539 . S
C183 H197 0.958 . S
C183 H198 0.961 . S
C183 H199 0.960 . S
H184 C168 0.931 . S
H185 C173 0.929 . S
H186 C174 0.960 . S
H187 C174 0.962 . S
H188 C174 0.960 . S
H189 C175 0.961 . S
H190 C175 0.961 . S
H191 C175 0.961 . S
H192 C176 0.931 . S
H193 C181 0.930 . S
H194 C182 0.956 . S
H195 C182 0.961 . S
H196 C182 0.961 . S
H197 C183 0.958 . S
H198 C183 0.961 . S
H199 C183 0.960 . S
C200 C201 1.391 . S
C200 C202 1.394 . S
C200 H216 0.931 . S
C201 C200 1.391 . S
C201 C205 1.376 . S
C202 C200 1.394 . S
C202 C203 1.369 . S
C202 C206 1.531 . S
C203 C202 1.369 . S
C203 C204 1.410 . S
C203 C211 1.503 . S
C204 C203 1.410 . S
C204 C205 1.392 . S
C204 C207 1.511 . S
C205 C201 1.376 . S
C205 C204 1.392 . S
C205 H217 0.929 . S
C206 C202 1.531 . S
C206 H218 0.960 . S
C206 H219 0.962 . S
C206 H220 0.960 . S
C207 C204 1.511 . S
C207 H221 0.961 . S
C207 H222 0.961 . S
C207 H223 0.961 . S
C208 C209 1.370 . S
C208 C210 1.363 . S
C208 H224 0.931 . S
C209 C208 1.370 . S
C209 C213 1.408 . S
C210 C208 1.363 . S
C210 C211 1.370 . S
C210 C214 1.524 . S
C211 C203 1.503 . S
C211 C210 1.370 . S
C211 C212 1.403 . S
C212 C211 1.403 . S
C212 C213 1.404 . S
C212 C215 1.539 . S
C213 C209 1.408 . S
C213 C212 1.404 . S
C213 H225 0.930 . S
C214 C210 1.524 . S
C214 H226 0.956 . S
C214 H227 0.961 . S
C214 H228 0.961 . S
C215 C212 1.539 . S
C215 H229 0.958 . S
C215 H230 0.961 . S
C215 H231 0.960 . S
H216 C200 0.931 . S
H217 C205 0.929 . S
H218 C206 0.960 . S
H219 C206 0.962 . S
H220 C206 0.960 . S
H221 C207 0.961 . S
H222 C207 0.961 . S
H223 C207 0.961 . S
H224 C208 0.931 . S
H225 C213 0.930 . S
H226 C214 0.956 . S
H227 C214 0.961 . S
H228 C214 0.961 . S
H229 C215 0.958 . S
H230 C215 0.961 . S
H231 C215 0.960 . S
C232 C233 1.391 . S
C232 C234 1.394 . S
C232 H248 0.931 . S
C233 C232 1.391 . S
C233 C237 1.376 . S
C234 C232 1.394 . S
C234 C235 1.369 . S
C234 C238 1.531 . S
C235 C234 1.369 . S
C235 C236 1.410 . S
C235 C243 1.503 . S
C236 C235 1.410 . S
C236 C237 1.392 . S
C236 C239 1.511 . S
C237 C233 1.376 . S
C237 C236 1.392 . S
C237 H249 0.929 . S
C238 C234 1.531 . S
C238 H250 0.960 . S
C238 H251 0.962 . S
C238 H252 0.960 . S
C239 C236 1.511 . S
C239 H253 0.961 . S
C239 H254 0.961 . S
C239 H255 0.961 . S
C240 C241 1.370 . S
C240 C242 1.363 . S
C240 H256 0.931 . S
C241 C240 1.370 . S
C241 C245 1.408 . S
C242 C240 1.363 . S
C242 C243 1.370 . S
C242 C246 1.524 . S
C243 C235 1.503 . S
C243 C242 1.370 . S
C243 C244 1.403 . S
C244 C243 1.403 . S
C244 C245 1.404 . S
C244 C247 1.539 . S
C245 C241 1.408 . S
C245 C244 1.404 . S
C245 H257 0.930 . S
C246 C242 1.524 . S
C246 H258 0.956 . S
C246 H259 0.961 . S
C246 H260 0.961 . S
C247 C244 1.539 . S
C247 H261 0.958 . S
C247 H262 0.961 . S
C247 H263 0.960 . S
H248 C232 0.931 . S
H249 C237 0.929 . S
H250 C238 0.960 . S
H251 C238 0.962 . S
H252 C238 0.960 . S
H253 C239 0.961 . S
H254 C239 0.961 . S
H255 C239 0.961 . S
H256 C240 0.931 . S
H257 C245 0.930 . S
H258 C246 0.956 . S
H259 C246 0.961 . S
H260 C246 0.961 . S
H261 C247 0.958 . S
H262 C247 0.961 . S
H263 C247 0.960 . S
C264 C265 1.391 . S
C264 C266 1.394 . S
C264 H280 0.931 . S
C265 C264 1.391 . S
C265 C269 1.376 . S
C266 C264 1.394 . S
C266 C267 1.369 . S
C266 C270 1.531 . S
C267 C266 1.369 . S
C267 C268 1.410 . S
C267 C275 1.503 . S
C268 C267 1.410 . S
C268 C269 1.392 . S
C268 C271 1.511 . S
C269 C265 1.376 . S
C269 C268 1.392 . S
C269 H281 0.929 . S
C270 C266 1.531 . S
C270 H282 0.960 . S
C270 H283 0.962 . S
C270 H284 0.960 . S
C271 C268 1.511 . S
C271 H285 0.961 . S
C271 H286 0.961 . S
C271 H287 0.961 . S
C272 C273 1.370 . S
C272 C274 1.363 . S
C272 H288 0.931 . S
C273 C272 1.370 . S
C273 C277 1.408 . S
C274 C272 1.363 . S
C274 C275 1.370 . S
C274 C278 1.524 . S
C275 C267 1.503 . S
C275 C274 1.370 . S
C275 C276 1.403 . S
C276 C275 1.403 . S
C276 C277 1.404 . S
C276 C279 1.539 . S
C277 C273 1.408 . S
C277 C276 1.404 . S
C277 H289 0.930 . S
C278 C274 1.524 . S
C278 H290 0.956 . S
C278 H291 0.961 . S
C278 H292 0.961 . S
C279 C276 1.539 . S
C279 H293 0.958 . S
C279 H294 0.961 . S
C279 H295 0.960 . S
H280 C264 0.931 . S
H281 C269 0.929 . S
H282 C270 0.960 . S
H283 C270 0.962 . S
H284 C270 0.960 . S
H285 C271 0.961 . S
H286 C271 0.961 . S
H287 C271 0.961 . S
H288 C272 0.931 . S
H289 C277 0.930 . S
H290 C278 0.956 . S
H291 C278 0.961 . S
H292 C278 0.961 . S
H293 C279 0.958 . S
H294 C279 0.961 . S
H295 C279 0.960 . S
C296 C297 1.391 . S
C296 C298 1.394 . S
C296 H312 0.931 . S
C297 C296 1.391 . S
C297 C301 1.376 . S
C298 C296 1.394 . S
C298 C299 1.369 1_554 S
C298 C302 1.531 1_554 S
C299 C298 1.369 1_556 S
C299 C300 1.410 1_556 S
C299 C307 1.503 . S
C300 C299 1.410 1_554 S
C300 C301 1.392 . S
C300 C303 1.511 1_554 S
C301 C297 1.376 . S
C301 C300 1.392 . S
C301 H313 0.929 . S
C302 C298 1.531 1_556 S
C302 H314 0.960 . S
C302 H315 0.962 . S
C302 H316 0.960 . S
C303 C300 1.511 1_556 S
C303 H317 0.961 1_556 S
C303 H318 0.961 . S
C303 H319 0.961 . S
C304 C305 1.370 . S
C304 C306 1.363 . S
C304 H320 0.931 . S
C305 C304 1.370 . S
C305 C309 1.408 . S
C306 C304 1.363 . S
C306 C307 1.370 . S
C306 C310 1.524 . S
C307 C299 1.503 . S
C307 C306 1.370 . S
C307 C308 1.403 . S
C308 C307 1.403 . S
C308 C309 1.404 . S
C308 C311 1.539 . S
C309 C305 1.408 . S
C309 C308 1.404 . S
C309 H321 0.930 . S
C310 C306 1.524 . S
C310 H322 0.956 . S
C310 H323 0.961 1_556 S
C310 H324 0.961 . S
C311 C308 1.539 . S
C311 H325 0.958 . S
C311 H326 0.961 . S
C311 H327 0.960 . S
H312 C296 0.931 . S
H313 C301 0.929 . S
H314 C302 0.960 . S
H315 C302 0.962 . S
H316 C302 0.960 . S
H317 C303 0.961 1_554 S
H318 C303 0.961 . S
H319 C303 0.961 . S
H320 C304 0.931 . S
H321 C309 0.930 . S
H322 C310 0.956 . S
H323 C310 0.961 1_554 S
H324 C310 0.961 . S
H325 C311 0.958 . S
H326 C311 0.961 . S
H327 C311 0.960 . S
C328 C329 1.391 . S
C328 C330 1.394 . S
C328 H344 0.931 . S
C329 C328 1.391 . S
C329 C333 1.376 . S
C330 C328 1.394 . S
C330 C331 1.369 . S
C330 C334 1.531 . S
C331 C330 1.369 . S
C331 C332 1.410 . S
C331 C339 1.503 . S
C332 C331 1.410 . S
C332 C333 1.392 . S
C332 C335 1.511 . S
C333 C329 1.376 . S
C333 C332 1.392 . S
C333 H345 0.929 . S
C334 C330 1.531 . S
C334 H346 0.960 . S
C334 H347 0.962 . S
C334 H348 0.960 . S
C335 C332 1.511 . S
C335 H349 0.961 . S
C335 H350 0.961 . S
C335 H351 0.961 . S
C336 C337 1.370 . S
C336 C338 1.363 . S
C336 H352 0.931 . S
C337 C336 1.370 . S
C337 C341 1.408 . S
C338 C336 1.363 . S
C338 C339 1.370 . S
C338 C342 1.524 . S
C339 C331 1.503 . S
C339 C338 1.370 . S
C339 C340 1.403 . S
C340 C339 1.403 . S
C340 C341 1.404 . S
C340 C343 1.539 . S
C341 C337 1.408 . S
C341 C340 1.404 . S
C341 H353 0.930 . S
C342 C338 1.524 . S
C342 H354 0.956 . S
C342 H355 0.961 . S
C342 H356 0.961 . S
C343 C340 1.539 . S
C343 H357 0.958 . S
C343 H358 0.961 . S
C343 H359 0.960 . S
H344 C328 0.931 . S
H345 C333 0.929 . S
H346 C334 0.960 . S
H347 C334 0.962 . S
H348 C334 0.960 . S
H349 C335 0.961 . S
H350 C335 0.961 . S
H351 C335 0.961 . S
H352 C336 0.931 . S
H353 C341 0.930 . S
H354 C342 0.956 . S
H355 C342 0.961 . S
H356 C342 0.961 . S
H357 C343 0.958 . S
H358 C343 0.961 . S
H359 C343 0.960 . S
C360 C361 1.391 . S
C360 C362 1.394 . S
C360 H376 0.931 . S
C361 C360 1.391 . S
C361 C365 1.376 . S
C362 C360 1.394 . S
C362 C363 1.369 . S
C362 C366 1.531 . S
C363 C362 1.369 . S
C363 C364 1.410 . S
C363 C371 1.503 . S
C364 C363 1.410 . S
C364 C365 1.392 . S
C364 C367 1.511 . S
C365 C361 1.376 . S
C365 C364 1.392 . S
C365 H377 0.929 . S
C366 C362 1.531 . S
C366 H378 0.960 . S
C366 H379 0.962 . S
C366 H380 0.960 . S
C367 C364 1.511 . S
C367 H381 0.961 . S
C367 H382 0.961 . S
C367 H383 0.961 . S
C368 C369 1.370 . S
C368 C370 1.363 . S
C368 H384 0.931 . S
C369 C368 1.370 . S
C369 C373 1.408 . S
C370 C368 1.363 . S
C370 C371 1.370 . S
C370 C374 1.524 . S
C371 C363 1.503 . S
C371 C370 1.370 . S
C371 C372 1.403 . S
C372 C371 1.403 . S
C372 C373 1.404 . S
C372 C375 1.539 . S
C373 C369 1.408 . S
C373 C372 1.404 . S
C373 H385 0.930 . S
C374 C370 1.524 . S
C374 H386 0.956 . S
C374 H387 0.961 . S
C374 H388 0.961 . S
C375 C372 1.539 . S
C375 H389 0.958 . S
C375 H390 0.961 . S
C375 H391 0.960 . S
H376 C360 0.931 . S
H377 C365 0.929 . S
H378 C366 0.960 . S
H379 C366 0.962 . S
H380 C366 0.960 . S
H381 C367 0.961 . S
H382 C367 0.961 . S
H383 C367 0.961 . S
H384 C368 0.931 . S
H385 C373 0.930 . S
H386 C374 0.956 . S
H387 C374 0.961 . S
H388 C374 0.961 . S
H389 C375 0.958 . S
H390 C375 0.961 . S
H391 C375 0.960 . S
C392 C393 1.391 . S
C392 C394 1.394 . S
C392 H408 0.931 . S
C393 C392 1.391 . S
C393 C397 1.376 . S
C394 C392 1.394 . S
C394 C395 1.369 . S
C394 C398 1.531 . S
C395 C394 1.369 . S
C395 C396 1.410 . S
C395 C403 1.503 . S
C396 C395 1.410 . S
C396 C397 1.392 . S
C396 C399 1.511 . S
C397 C393 1.376 . S
C397 C396 1.392 . S
C397 H409 0.929 . S
C398 C394 1.531 . S
C398 H410 0.960 . S
C398 H411 0.962 . S
C398 H412 0.960 . S
C399 C396 1.511 . S
C399 H413 0.961 . S
C399 H414 0.961 . S
C399 H415 0.961 . S
C400 C401 1.370 . S
C400 C402 1.363 . S
C400 H416 0.931 . S
C401 C400 1.370 . S
C401 C405 1.408 . S
C402 C400 1.363 . S
C402 C403 1.370 . S
C402 C406 1.524 . S
C403 C395 1.503 . S
C403 C402 1.370 . S
C403 C404 1.403 . S
C404 C403 1.403 . S
C404 C405 1.404 . S
C404 C407 1.539 . S
C405 C401 1.408 . S
C405 C404 1.404 . S
C405 H417 0.930 . S
C406 C402 1.524 . S
C406 H418 0.956 . S
C406 H419 0.961 . S
C406 H420 0.961 . S
C407 C404 1.539 . S
C407 H421 0.958 . S
C407 H422 0.961 . S
C407 H423 0.960 . S
H408 C392 0.931 . S
H409 C397 0.929 . S
H410 C398 0.960 . S
H411 C398 0.962 . S
H412 C398 0.960 . S
H413 C399 0.961 . S
H414 C399 0.961 . S
H415 C399 0.961 . S
H416 C400 0.931 . S
H417 C405 0.930 . S
H418 C406 0.956 . S
H419 C406 0.961 . S
H420 C406 0.961 . S
H421 C407 0.958 . S
H422 C407 0.961 . S
H423 C407 0.960 . S
C424 C425 1.391 . S
C424 C426 1.394 . S
C424 H440 0.931 . S
C425 C424 1.391 . S
C425 C429 1.376 . S
C426 C424 1.394 . S
C426 C427 1.369 . S
C426 C430 1.531 . S
C427 C426 1.369 . S
C427 C428 1.410 . S
C427 C435 1.503 . S
C428 C427 1.410 . S
C428 C429 1.392 . S
C428 C431 1.511 . S
C429 C425 1.376 . S
C429 C428 1.392 . S
C429 H441 0.929 . S
C430 C426 1.531 . S
C430 H442 0.960 . S
C430 H443 0.962 . S
C430 H444 0.960 . S
C431 C428 1.511 . S
C431 H445 0.961 . S
C431 H446 0.961 . S
C431 H447 0.961 . S
C432 C433 1.370 . S
C432 C434 1.363 . S
C432 H448 0.931 . S
C433 C432 1.370 . S
C433 C437 1.408 . S
C434 C432 1.363 . S
C434 C435 1.370 . S
C434 C438 1.524 . S
C435 C427 1.503 . S
C435 C434 1.370 . S
C435 C436 1.403 . S
C436 C435 1.403 . S
C436 C437 1.404 . S
C436 C439 1.539 . S
C437 C433 1.408 . S
C437 C436 1.404 . S
C437 H449 0.930 . S
C438 C434 1.524 . S
C438 H450 0.956 . S
C438 H451 0.961 . S
C438 H452 0.961 . S
C439 C436 1.539 . S
C439 H453 0.958 . S
C439 H454 0.961 . S
C439 H455 0.960 . S
H440 C424 0.931 . S
H441 C429 0.929 . S
H442 C430 0.960 . S
H443 C430 0.962 . S
H444 C430 0.960 . S
H445 C431 0.961 . S
H446 C431 0.961 . S
H447 C431 0.961 . S
H448 C432 0.931 . S
H449 C437 0.930 . S
H450 C438 0.956 . S
H451 C438 0.961 . S
H452 C438 0.961 . S
H453 C439 0.958 . S
H454 C439 0.961 . S
H455 C439 0.960 . S
C456 C457 1.391 . S
C456 C458 1.394 . S
C456 H472 0.931 . S
C457 C456 1.391 . S
C457 C461 1.376 . S
C458 C456 1.394 . S
C458 C459 1.369 . S
C458 C462 1.531 . S
C459 C458 1.369 . S
C459 C460 1.410 . S
C459 C467 1.503 . S
C460 C459 1.410 . S
C460 C461 1.392 . S
C460 C463 1.511 . S
C461 C457 1.376 . S
C461 C460 1.392 . S
C461 H473 0.929 . S
C462 C458 1.531 . S
C462 H474 0.960 . S
C462 H475 0.962 . S
C462 H476 0.960 . S
C463 C460 1.511 . S
C463 H477 0.961 . S
C463 H478 0.961 . S
C463 H479 0.961 . S
C464 C465 1.370 . S
C464 C466 1.363 . S
C464 H480 0.931 . S
C465 C464 1.370 . S
C465 C469 1.408 . S
C466 C464 1.363 . S
C466 C467 1.370 . S
C466 C470 1.524 . S
C467 C459 1.503 . S
C467 C466 1.370 . S
C467 C468 1.403 . S
C468 C467 1.403 . S
C468 C469 1.404 . S
C468 C471 1.539 . S
C469 C465 1.408 . S
C469 C468 1.404 . S
C469 H481 0.930 . S
C470 C466 1.524 . S
C470 H482 0.956 . S
C470 H483 0.961 . S
C470 H484 0.961 . S
C471 C468 1.539 . S
C471 H485 0.958 . S
C471 H486 0.961 . S
C471 H487 0.960 . S
H472 C456 0.931 . S
H473 C461 0.929 . S
H474 C462 0.960 . S
H475 C462 0.962 . S
H476 C462 0.960 . S
H477 C463 0.961 . S
H478 C463 0.961 . S
H479 C463 0.961 . S
H480 C464 0.931 . S
H481 C469 0.930 . S
H482 C470 0.956 . S
H483 C470 0.961 . S
H484 C470 0.961 . S
H485 C471 0.958 . S
H486 C471 0.961 . S
H487 C471 0.960 . S
C488 C489 1.391 . S
C488 C490 1.394 . S
C488 H504 0.931 . S
C489 C488 1.391 . S
C489 C493 1.376 . S
C490 C488 1.394 . S
C490 C491 1.369 . S
C490 C494 1.531 . S
C491 C490 1.369 . S
C491 C492 1.410 . S
C491 C499 1.503 . S
C492 C491 1.410 . S
C492 C493 1.392 . S
C492 C495 1.511 . S
C493 C489 1.376 . S
C493 C492 1.392 . S
C493 H505 0.929 . S
C494 C490 1.531 . S
C494 H506 0.960 . S
C494 H507 0.962 . S
C494 H508 0.960 . S
C495 C492 1.511 . S
C495 H509 0.961 . S
C495 H510 0.961 . S
C495 H511 0.961 . S
C496 C497 1.370 . S
C496 C498 1.363 . S
C496 H512 0.931 . S
C497 C496 1.370 . S
C497 C501 1.408 . S
C498 C496 1.363 . S
C498 C499 1.370 . S
C498 C502 1.524 . S
C499 C491 1.503 . S
C499 C498 1.370 . S
C499 C500 1.403 . S
C500 C499 1.403 . S
C500 C501 1.404 . S
C500 C503 1.539 . S
C501 C497 1.408 . S
C501 C500 1.404 . S
C501 H513 0.930 . S
C502 C498 1.524 . S
C502 H514 0.956 . S
C502 H515 0.961 . S
C502 H516 0.961 . S
C503 C500 1.539 . S
C503 H517 0.958 . S
C503 H518 0.961 . S
C503 H519 0.960 . S
H504 C488 0.931 . S
H505 C493 0.929 . S
H506 C494 0.960 . S
H507 C494 0.962 . S
H508 C494 0.960 . S
H509 C495 0.961 . S
H510 C495 0.961 . S
H511 C495 0.961 . S
H512 C496 0.931 . S
H513 C501 0.930 . S
H514 C502 0.956 . S
H515 C502 0.961 . S
H516 C502 0.961 . S
H517 C503 0.958 . S
H518 C503 0.961 . S
H519 C503 0.960 . S
C520 C521 1.391 . S
C520 C522 1.394 . S
C520 H536 0.931 . S
C521 C520 1.391 . S
C521 C525 1.376 . S
C522 C520 1.394 . S
C522 C523 1.369 . S
C522 C526 1.531 . S
C523 C522 1.369 . S
C523 C524 1.410 . S
C523 C531 1.503 . S
C524 C523 1.410 . S
C524 C525 1.392 . S
C524 C527 1.521 . S
C525 C521 1.376 . S
C525 C524 1.392 . S
C525 H537 0.929 . S
C526 C522 1.531 . S
C526 H538 0.960 . S
C526 H539 0.962 . S
C526 H540 0.960 . S
C527 C524 1.521 . S
C527 H541 0.968 . S
C527 H542 0.963 . S
C527 H543 0.942 1_556 S
C528 C529 1.370 1_556 S
C528 C530 1.363 . S
C528 H544 0.931 . S
C529 C528 1.370 1_554 S
C529 C533 1.408 . S
C530 C528 1.363 . S
C530 C531 1.370 . S
C530 C534 1.524 . S
C531 C523 1.503 . S
C531 C530 1.370 . S
C531 C532 1.403 1_556 S
C532 C531 1.403 1_554 S
C532 C533 1.404 . S
C532 C535 1.539 . S
C533 C529 1.408 . S
C533 C532 1.404 . S
C533 H545 0.930 . S
C534 C530 1.524 . S
C534 H546 0.956 . S
C534 H547 0.961 . S
C534 H548 0.961 . S
C535 C532 1.539 . S
C535 H549 0.958 . S
C535 H550 0.961 . S
C535 H551 0.960 . S
H536 C520 0.931 . S
H537 C525 0.929 . S
H538 C526 0.960 . S
H539 C526 0.962 . S
H540 C526 0.960 . S
H541 C527 0.968 . S
H542 C527 0.963 . S
H543 C527 0.942 1_554 S
H544 C528 0.931 . S
H545 C533 0.930 . S
H546 C534 0.956 . S
H547 C534 0.961 . S
H548 C534 0.961 . S
H549 C535 0.958 . S
H550 C535 0.961 . S
H551 C535 0.960 . S
C552 C553 1.391 . S
C552 C554 1.394 . S
C552 H568 0.931 . S
C553 C552 1.391 . S
C553 C557 1.376 . S
C554 C552 1.394 . S
C554 C555 1.369 . S
C554 C558 1.531 . S
C555 C554 1.369 . S
C555 C556 1.410 . S
C555 C563 1.503 . S
C556 C555 1.410 . S
C556 C557 1.392 . S
C556 C559 1.511 . S
C557 C553 1.376 . S
C557 C556 1.392 . S
C557 H569 0.929 . S
C558 C554 1.531 . S
C558 H570 0.960 . S
C558 H571 0.962 . S
C558 H572 0.960 . S
C559 C556 1.511 . S
C559 H573 0.961 . S
C559 H574 0.961 . S
C559 H575 0.961 . S
C560 C561 1.370 . S
C560 C562 1.363 . S
C560 H576 0.931 . S
C561 C560 1.370 . S
C561 C565 1.408 . S
C562 C560 1.363 . S
C562 C563 1.370 . S
C562 C566 1.524 . S
C563 C555 1.503 . S
C563 C562 1.370 . S
C563 C564 1.403 . S
C564 C563 1.403 . S
C564 C565 1.404 . S
C564 C567 1.539 . S
C565 C561 1.408 . S
C565 C564 1.404 . S
C565 H577 0.930 . S
C566 C562 1.524 . S
C566 H578 0.956 . S
C566 H579 0.961 . S
C566 H580 0.961 . S
C567 C564 1.539 . S
C567 H581 0.958 . S
C567 H582 0.961 . S
C567 H583 0.960 . S
H568 C552 0.931 . S
H569 C557 0.929 . S
H570 C558 0.960 . S
H571 C558 0.962 . S
H572 C558 0.960 . S
H573 C559 0.961 . S
H574 C559 0.961 . S
H575 C559 0.961 . S
H576 C560 0.931 . S
H577 C565 0.930 . S
H578 C566 0.956 . S
H579 C566 0.961 . S
H580 C566 0.961 . S
H581 C567 0.958 . S
H582 C567 0.961 . S
H583 C567 0.960 . S
C584 C585 1.391 . S
C584 C586 1.394 . S
C584 H600 0.931 . S
C585 C584 1.391 . S
C585 C589 1.376 . S
C586 C584 1.394 . S
C586 C587 1.369 . S
C586 C590 1.531 . S
C587 C586 1.369 . S
C587 C588 1.410 . S
C587 C595 1.503 . S
C588 C587 1.410 . S
C588 C589 1.392 . S
C588 C591 1.511 . S
C589 C585 1.376 . S
C589 C588 1.392 . S
C589 H601 0.929 . S
C590 C586 1.531 . S
C590 H602 0.960 . S
C590 H603 0.962 . S
C590 H604 0.960 . S
C591 C588 1.511 . S
C591 H605 0.961 . S
C591 H606 0.961 1_556 S
C591 H607 0.961 . S
C592 C593 1.370 . S
C592 C594 1.363 . S
C592 H608 0.931 . S
C593 C592 1.370 . S
C593 C597 1.408 . S
C594 C592 1.363 . S
C594 C595 1.370 1_554 S
C594 C598 1.524 . S
C595 C587 1.503 . S
C595 C594 1.370 1_556 S
C595 C596 1.403 . S
C596 C595 1.403 . S
C596 C597 1.404 1_556 S
C596 C599 1.539 . S
C597 C593 1.408 . S
C597 C596 1.404 1_554 S
C597 H609 0.930 . S
C598 C594 1.524 . S
C598 H610 0.956 1_554 S
C598 H611 0.965 . S
C598 H612 0.961 . S
C599 C596 1.539 . S
C599 H613 0.958 . S
C599 H614 0.961 . S
C599 H615 0.960 . S
H600 C584 0.931 . S
H601 C589 0.929 . S
H602 C590 0.960 . S
H603 C590 0.962 . S
H604 C590 0.960 . S
H605 C591 0.961 . S
H606 C591 0.961 1_554 S
H607 C591 0.961 . S
H608 C592 0.931 . S
H609 C597 0.930 . S
H610 C598 0.956 1_556 S
H611 C598 0.965 . S
H612 C598 0.961 . S
H613 C599 0.958 . S
H614 C599 0.961 . S
H615 C599 0.960 . S
C616 C617 1.391 . S
C616 C618 1.394 . S
C616 H632 0.931 . S
C617 C616 1.391 . S
C617 C621 1.376 . S
C618 C616 1.394 . S
C618 C619 1.369 . S
C618 C622 1.531 . S
C619 C618 1.369 . S
C619 C620 1.410 . S
C619 C627 1.503 . S
C620 C619 1.410 . S
C620 C621 1.392 . S
C620 C623 1.511 . S
C621 C617 1.376 . S
C621 C620 1.392 . S
C621 H633 0.929 . S
C622 C618 1.531 . S
C622 H634 0.960 . S
C622 H635 0.962 . S
C622 H636 0.960 . S
C623 C620 1.511 . S
C623 H637 0.961 . S
C623 H638 0.961 . S
C623 H639 0.961 . S
C624 C625 1.370 . S
C624 C626 1.363 . S
C624 H640 0.931 . S
C625 C624 1.370 . S
C625 C629 1.408 . S
C626 C624 1.363 . S
C626 C627 1.370 . S
C626 C630 1.524 . S
C627 C619 1.503 . S
C627 C626 1.370 . S
C627 C628 1.403 . S
C628 C627 1.403 . S
C628 C629 1.404 . S
C628 C631 1.539 . S
C629 C625 1.408 . S
C629 C628 1.404 . S
C629 H641 0.930 . S
C630 C626 1.524 . S
C630 H642 0.956 . S
C630 H643 0.961 . S
C630 H644 0.961 . S
C631 C628 1.539 . S
C631 H645 0.958 . S
C631 H646 0.961 . S
C631 H647 0.960 . S
H632 C616 0.931 . S
H633 C621 0.929 . S
H634 C622 0.960 . S
H635 C622 0.962 . S
H636 C622 0.960 . S
H637 C623 0.961 . S
H638 C623 0.961 . S
H639 C623 0.961 . S
H640 C624 0.931 . S
H641 C629 0.930 . S
H642 C630 0.956 . S
H643 C630 0.961 . S
H644 C630 0.961 . S
H645 C631 0.958 . S
H646 C631 0.961 . S
H647 C631 0.960 . S
C648 C649 1.391 . S
C648 C650 1.394 . S
C648 H664 0.931 . S
C649 C648 1.391 . S
C649 C653 1.376 . S
C650 C648 1.394 . S
C650 C651 1.369 . S
C650 C654 1.531 . S
C651 C650 1.369 . S
C651 C652 1.410 . S
C651 C659 1.503 . S
C652 C651 1.410 . S
C652 C653 1.392 . S
C652 C655 1.511 . S
C653 C649 1.376 . S
C653 C652 1.392 . S
C653 H665 0.929 . S
C654 C650 1.531 . S
C654 H666 0.960 . S
C654 H667 0.962 . S
C654 H668 0.960 . S
C655 C652 1.511 . S
C655 H669 0.961 . S
C655 H670 0.961 . S
C655 H671 0.961 . S
C656 C657 1.370 . S
C656 C658 1.363 . S
C656 H672 0.931 . S
C657 C656 1.370 . S
C657 C661 1.408 . S
C658 C656 1.363 . S
C658 C659 1.370 . S
C658 C662 1.524 . S
C659 C651 1.503 . S
C659 C658 1.370 . S
C659 C660 1.403 . S
C660 C659 1.403 . S
C660 C661 1.404 . S
C660 C663 1.539 . S
C661 C657 1.408 . S
C661 C660 1.404 . S
C661 H673 0.930 . S
C662 C658 1.524 . S
C662 H674 0.956 . S
C662 H675 0.961 . S
C662 H676 0.961 . S
C663 C660 1.539 . S
C663 H677 0.958 . S
C663 H678 0.961 . S
C663 H679 0.960 . S
H664 C648 0.931 . S
H665 C653 0.929 . S
H666 C654 0.960 . S
H667 C654 0.962 . S
H668 C654 0.960 . S
H669 C655 0.961 . S
H670 C655 0.961 . S
H671 C655 0.961 . S
H672 C656 0.931 . S
H673 C661 0.930 . S
H674 C662 0.956 . S
H675 C662 0.961 . S
H676 C662 0.961 . S
H677 C663 0.958 . S
H678 C663 0.961 . S
H679 C663 0.960 . S
C680 C681 1.391 . S
C680 C682 1.394 . S
C680 H696 0.931 . S
C681 C680 1.391 . S
C681 C685 1.376 . S
C682 C680 1.394 . S
C682 C683 1.369 . S
C682 C686 1.531 . S
C683 C682 1.369 . S
C683 C684 1.410 . S
C683 C691 1.503 . S
C684 C683 1.410 . S
C684 C685 1.392 . S
C684 C687 1.511 . S
C685 C681 1.376 . S
C685 C684 1.392 . S
C685 H697 0.929 . S
C686 C682 1.531 . S
C686 H698 0.960 . S
C686 H699 0.962 . S
C686 H700 0.960 . S
C687 C684 1.511 . S
C687 H701 0.961 . S
C687 H702 0.961 . S
C687 H703 0.961 . S
C688 C689 1.370 . S
C688 C690 1.363 . S
C688 H704 0.931 . S
C689 C688 1.370 . S
C689 C693 1.408 . S
C690 C688 1.363 . S
C690 C691 1.370 . S
C690 C694 1.524 . S
C691 C683 1.503 . S
C691 C690 1.370 . S
C691 C692 1.403 . S
C692 C691 1.403 . S
C692 C693 1.404 . S
C692 C695 1.539 . S
C693 C689 1.408 . S
C693 C692 1.404 . S
C693 H705 0.930 . S
C694 C690 1.524 . S
C694 H706 0.956 . S
C694 H707 0.961 . S
C694 H708 0.961 . S
C695 C692 1.539 . S
C695 H709 0.958 . S
C695 H710 0.961 . S
C695 H711 0.960 . S
H696 C680 0.931 . S
H697 C685 0.929 . S
H698 C686 0.960 . S
H699 C686 0.962 . S
H700 C686 0.960 . S
H701 C687 0.961 . S
H702 C687 0.961 . S
H703 C687 0.961 . S
H704 C688 0.931 . S
H705 C693 0.930 . S
H706 C694 0.956 . S
H707 C694 0.961 . S
H708 C694 0.961 . S
H709 C695 0.958 . S
H710 C695 0.961 . S
H711 C695 0.960 . S
C712 C713 1.391 . S
C712 C714 1.394 . S
C712 H728 0.931 . S
C713 C712 1.391 . S
C713 C717 1.376 . S
C714 C712 1.394 . S
C714 C715 1.369 . S
C714 C718 1.531 . S
C715 C714 1.369 . S
C715 C716 1.410 . S
C715 C723 1.503 . S
C716 C715 1.410 . S
C716 C717 1.392 . S
C716 C719 1.511 . S
C717 C713 1.376 . S
C717 C716 1.392 . S
C717 H729 0.929 . S
C718 C714 1.531 . S
C718 H730 0.960 . S
C718 H731 0.962 . S
C718 H732 0.960 . S
C719 C716 1.511 . S
C719 H733 0.961 . S
C719 H734 0.961 . S
C719 H735 0.961 . S
C720 C721 1.370 . S
C720 C722 1.363 . S
C720 H736 0.931 . S
C721 C720 1.370 . S
C721 C725 1.408 . S
C722 C720 1.363 . S
C722 C723 1.370 . S
C722 C726 1.524 . S
C723 C715 1.503 . S
C723 C722 1.370 . S
C723 C724 1.403 . S
C724 C723 1.403 . S
C724 C725 1.404 . S
C724 C727 1.539 . S
C725 C721 1.408 . S
C725 C724 1.404 . S
C725 H737 0.930 . S
C726 C722 1.524 . S
C726 H738 0.956 . S
C726 H739 0.961 . S
C726 H740 0.961 . S
C727 C724 1.539 . S
C727 H741 0.958 . S
C727 H742 0.961 . S
C727 H743 0.960 . S
H728 C712 0.931 . S
H729 C717 0.929 . S
H730 C718 0.960 . S
H731 C718 0.962 . S
H732 C718 0.960 . S
H733 C719 0.961 . S
H734 C719 0.961 . S
H735 C719 0.961 . S
H736 C720 0.931 . S
H737 C725 0.930 . S
H738 C726 0.956 . S
H739 C726 0.961 . S
H740 C726 0.961 . S
H741 C727 0.958 . S
H742 C727 0.961 . S
H743 C727 0.960 . S
C744 C745 1.391 . S
C744 C746 1.394 . S
C744 H760 0.931 . S
C745 C744 1.391 . S
C745 C749 1.376 . S
C746 C744 1.394 . S
C746 C747 1.369 . S
C746 C750 1.531 . S
C747 C746 1.369 . S
C747 C748 1.410 . S
C747 C755 1.503 1_545 S
C748 C747 1.410 . S
C748 C749 1.392 . S
C748 C751 1.511 . S
C749 C745 1.376 . S
C749 C748 1.392 . S
C749 H761 0.929 . S
C750 C746 1.531 . S
C750 H762 0.960 1_545 S
C750 H763 0.962 . S
C750 H764 0.954 1_554 S
C751 C748 1.511 . S
C751 H765 0.961 . S
C751 H766 0.961 1_545 S
C751 H767 0.961 . S
C752 C753 1.370 . S
C752 C754 1.363 . S
C752 H768 0.931 . S
C753 C752 1.370 . S
C753 C757 1.408 1_554 S
C754 C752 1.363 . S
C754 C755 1.370 . S
C754 C758 1.524 . S
C755 C747 1.503 1_565 S
C755 C754 1.370 . S
C755 C756 1.403 1_554 S
C756 C755 1.403 1_556 S
C756 C757 1.404 . S
C756 C759 1.539 . S
C757 C753 1.408 1_556 S
C757 C756 1.404 . S
C757 H769 0.930 . S
C758 C754 1.524 . S
C758 H770 0.956 . S
C758 H771 0.956 1_565 S
C758 H772 0.961 . S
C759 C756 1.539 . S
C759 H773 0.958 . S
C759 H774 0.961 . S
C759 H775 0.944 1_565 S
H760 C744 0.931 . S
H761 C749 0.929 . S
H762 C750 0.960 1_565 S
H763 C750 0.962 . S
H764 C750 0.954 1_556 S
H765 C751 0.961 . S
H766 C751 0.961 1_565 S
H767 C751 0.961 . S
H768 C752 0.931 . S
H769 C757 0.930 . S
H770 C758 0.956 . S
H771 C758 0.956 1_545 S
H772 C758 0.961 . S
H773 C759 0.958 . S
H774 C759 0.961 . S
H775 C759 0.944 1_545 S
C776 C777 1.391 . S
C776 C778 1.394 . S
C776 H792 0.931 . S
C777 C776 1.391 . S
C777 C781 1.376 . S
C778 C776 1.394 . S
C778 C779 1.369 . S
C778 C782 1.531 . S
C779 C778 1.369 . S
C779 C780 1.410 . S
C779 C787 1.503 . S
C780 C779 1.410 . S
C780 C781 1.392 . S
C780 C783 1.511 . S
C781 C777 1.376 . S
C781 C780 1.392 . S
C781 H793 0.929 . S
C782 C778 1.531 . S
C782 H794 0.960 . S
C782 H795 0.962 . S
C782 H796 0.960 . S
C783 C780 1.511 . S
C783 H797 0.961 . S
C783 H798 0.961 . S
C783 H799 0.961 . S
C784 C785 1.370 . S
C784 C786 1.363 . S
C784 H800 0.931 . S
C785 C784 1.370 . S
C785 C789 1.408 . S
C786 C784 1.363 . S
C786 C787 1.370 . S
C786 C790 1.524 . S
C787 C779 1.503 . S
C787 C786 1.370 . S
C787 C788 1.403 . S
C788 C787 1.403 . S
C788 C789 1.404 . S
C788 C791 1.539 . S
C789 C785 1.408 . S
C789 C788 1.404 . S
C789 H801 0.930 . S
C790 C786 1.524 . S
C790 H802 0.956 . S
C790 H803 0.961 . S
C790 H804 0.961 . S
C791 C788 1.539 . S
C791 H805 0.958 . S
C791 H806 0.961 . S
C791 H807 0.960 . S
H792 C776 0.931 . S
H793 C781 0.929 . S
H794 C782 0.960 . S
H795 C782 0.962 . S
H796 C782 0.960 . S
H797 C783 0.961 . S
H798 C783 0.961 . S
H799 C783 0.961 . S
H800 C784 0.931 . S
H801 C789 0.930 . S
H802 C790 0.956 . S
H803 C790 0.961 . S
H804 C790 0.961 . S
H805 C791 0.958 . S
H806 C791 0.961 . S
H807 C791 0.960 . S
C808 C809 1.391 . S
C808 C810 1.394 . S
C808 H824 0.931 . S
C809 C808 1.391 . S
C809 C813 1.376 . S
C810 C808 1.394 . S
C810 C811 1.369 . S
C810 C814 1.531 . S
C811 C810 1.369 . S
C811 C812 1.410 . S
C811 C819 1.503 1_455 S
C812 C811 1.410 . S
C812 C813 1.392 . S
C812 C815 1.511 . S
C813 C809 1.376 . S
C813 C812 1.392 . S
C813 H825 0.929 . S
C814 C810 1.531 . S
C814 H826 0.960 1_455 S
C814 H827 0.962 . S
C814 H828 0.960 . S
C815 C812 1.511 . S
C815 H829 0.961 . S
C815 H830 0.961 1_455 S
C815 H831 0.961 . S
C816 C817 1.370 . S
C816 C818 1.363 . S
C816 H832 0.931 . S
C817 C816 1.370 . S
C817 C821 1.408 . S
C818 C816 1.363 . S
C818 C819 1.370 . S
C818 C822 1.524 . S
C819 C811 1.503 1_655 S
C819 C818 1.370 . S
C819 C820 1.403 . S
C820 C819 1.403 . S
C820 C821 1.404 . S
C820 C823 1.539 . S
C821 C817 1.408 . S
C821 C820 1.404 . S
C821 H833 0.930 . S
C822 C818 1.524 . S
C822 H834 0.966 . S
C822 H835 0.961 1_655 S
C822 H836 0.961 . S
C823 C820 1.539 . S
C823 H837 0.958 . S
C823 H838 0.961 . S
C823 H839 0.999 . S
H824 C808 0.931 . S
H825 C813 0.929 . S
H826 C814 0.960 1_655 S
H827 C814 0.962 . S
H828 C814 0.960 . S
H829 C815 0.961 . S
H830 C815 0.961 1_655 S
H831 C815 0.961 . S
H832 C816 0.931 . S
H833 C821 0.930 . S
H834 C822 0.966 . S
H835 C822 0.961 1_455 S
H836 C822 0.961 . S
H837 C823 0.958 . S
H838 C823 0.961 . S
H839 C823 0.999 . S
C840 C841 1.391 . S
C840 C842 1.394 . S
C840 H856 0.931 . S
C841 C840 1.391 . S
C841 C845 1.376 . S
C842 C840 1.394 . S
C842 C843 1.369 . S
C842 C846 1.531 . S
C843 C842 1.369 . S
C843 C844 1.410 . S
C843 C851 1.503 1_565 S
C844 C843 1.410 . S
C844 C845 1.392 . S
C844 C847 1.511 . S
C845 C841 1.376 . S
C845 C844 1.392 . S
C845 H857 0.929 . S
C846 C842 1.531 . S
C846 H858 0.960 1_565 S
C846 H859 0.962 . S
C846 H860 0.960 . S
C847 C844 1.511 . S
C847 H861 0.961 . S
C847 H862 0.961 1_565 S
C847 H863 0.961 . S
C848 C849 1.370 . S
C848 C850 1.363 . S
C848 H864 0.931 . S
C849 C848 1.370 . S
C849 C853 1.408 . S
C850 C848 1.363 . S
C850 C851 1.370 . S
C850 C854 1.524 . S
C851 C843 1.503 1_545 S
C851 C850 1.370 . S
C851 C852 1.403 . S
C852 C851 1.403 . S
C852 C853 1.404 . S
C852 C855 1.539 . S
C853 C849 1.408 . S
C853 C852 1.404 . S
C853 H865 0.930 . S
C854 C850 1.524 . S
C854 H866 0.956 . S
C854 H867 0.961 1_545 S
C854 H868 0.961 . S
C855 C852 1.539 . S
C855 H869 0.958 . S
C855 H870 0.961 . S
C855 H871 0.978 . S
H856 C840 0.931 . S
H857 C845 0.929 . S
H858 C846 0.960 1_545 S
H859 C846 0.962 . S
H860 C846 0.960 . S
H861 C847 0.961 . S
H862 C847 0.961 1_545 S
H863 C847 0.961 . S
H864 C848 0.931 . S
H865 C853 0.930 . S
H866 C854 0.956 . S
H867 C854 0.961 1_565 S
H868 C854 0.961 . S
H869 C855 0.958 . S
H870 C855 0.961 . S
H871 C855 0.978 . S
C872 C873 1.391 . S
C872 C874 1.394 . S
C872 H888 0.931 . S
C873 C872 1.391 . S
C873 C877 1.376 . S
C874 C872 1.394 . S
C874 C875 1.369 . S
C874 C878 1.531 . S
C875 C874 1.369 . S
C875 C876 1.410 . S
C875 C883 1.503 . S
C876 C875 1.410 . S
C876 C877 1.392 . S
C876 C879 1.511 . S
C877 C873 1.376 . S
C877 C876 1.392 . S
C877 H889 0.929 . S
C878 C874 1.531 . S
C878 H890 0.960 . S
C878 H891 0.962 . S
C878 H892 0.960 . S
C879 C876 1.511 . S
C879 H893 0.961 . S
C879 H894 0.961 . S
C879 H895 0.961 . S
C880 C881 1.370 . S
C880 C882 1.363 . S
C880 H896 0.931 . S
C881 C880 1.370 . S
C881 C885 1.408 . S
C882 C880 1.363 . S
C882 C883 1.370 . S
C882 C886 1.524 . S
C883 C875 1.503 . S
C883 C882 1.370 . S
C883 C884 1.403 . S
C884 C883 1.403 . S
C884 C885 1.404 . S
C884 C887 1.539 . S
C885 C881 1.408 . S
C885 C884 1.404 . S
C885 H897 0.930 . S
C886 C882 1.524 . S
C886 H898 0.956 . S
C886 H899 0.961 . S
C886 H900 0.961 . S
C887 C884 1.539 . S
C887 H901 0.958 . S
C887 H902 0.961 . S
C887 H903 0.960 . S
H888 C872 0.931 . S
H889 C877 0.929 . S
H890 C878 0.960 . S
H891 C878 0.962 . S
H892 C878 0.960 . S
H893 C879 0.961 . S
H894 C879 0.961 . S
H895 C879 0.961 . S
H896 C880 0.931 . S
H897 C885 0.930 . S
H898 C886 0.956 . S
H899 C886 0.961 . S
H900 C886 0.961 . S
H901 C887 0.958 . S
H902 C887 0.961 . S
H903 C887 0.960 . S
C904 C905 1.391 . S
C904 C906 1.394 . S
C904 H920 0.931 . S
C905 C904 1.391 . S
C905 C909 1.376 . S
C906 C904 1.394 . S
C906 C907 1.369 . S
C906 C910 1.531 . S
C907 C906 1.369 . S
C907 C908 1.410 . S
C907 C915 1.503 1_455 S
C908 C907 1.410 . S
C908 C909 1.392 . S
C908 C911 1.511 . S
C909 C905 1.376 . S
C909 C908 1.392 . S
C909 H921 0.929 . S
C910 C906 1.531 . S
C910 H922 0.960 1_455 S
C910 H923 0.962 . S
C910 H924 0.960 . S
C911 C908 1.511 . S
C911 H925 0.961 . S
C911 H926 0.961 1_455 S
C911 H927 0.961 . S
C912 C913 1.370 . S
C912 C914 1.363 . S
C912 H928 0.931 . S
C913 C912 1.370 . S
C913 C917 1.408 . S
C914 C912 1.363 . S
C914 C915 1.370 . S
C914 C918 1.524 . S
C915 C907 1.503 1_655 S
C915 C914 1.370 . S
C915 C916 1.403 . S
C916 C915 1.403 . S
C916 C917 1.404 . S
C916 C919 1.539 . S
C917 C913 1.408 . S
C917 C916 1.404 . S
C917 H929 0.930 . S
C918 C914 1.524 . S
C918 H930 0.981 . S
C918 H931 0.961 1_655 S
C918 H932 0.961 . S
C919 C916 1.539 . S
C919 H933 0.958 . S
C919 H934 0.961 . S
C919 H935 0.960 . S
H920 C904 0.931 . S
H921 C909 0.929 . S
H922 C910 0.960 1_655 S
H923 C910 0.962 . S
H924 C910 0.960 . S
H925 C911 0.961 . S
H926 C911 0.961 1_655 S
H927 C911 0.961 . S
H928 C912 0.931 . S
H929 C917 0.930 . S
H930 C918 0.981 . S
H931 C918 0.961 1_455 S
H932 C918 0.961 . S
H933 C919 0.958 . S
H934 C919 0.961 . S
H935 C919 0.960 . S
C169 C7 1.047 . S
C177 C147 1.080 . S
C201 C21 1.107 . S
C209 C161 1.084 . S
C233 C91 1.061 . S
C241 C35 1.070 . S
C265 C49 1.073 . S
C273 C105 1.093 . S
C297 C119 1.091 . S
C305 C63 1.068 . S
C329 C133 1.064 . S
C337 C77 1.069 1_554 S
C361 C120 1.345 . S
C369 C8 1.364 . S
C393 C22 1.347 . S
C401 C134 1.361 . S
C425 C148 1.369 . S
C433 C36 1.359 . S
C457 C50 1.372 . S
C465 C162 1.359 . S
C489 C64 1.351 . S
C497 C92 1.359 . S
C521 C78 1.345 . S
C529 C106 1.367 . S
C553 C143 1.635 . S
C561 C3 1.635 . S
C585 C157 1.624 . S
C593 C17 1.630 . S
C617 C87 1.627 1_554 S
C625 C31 1.633 . S
C649 C45 1.629 . S
C657 C101 1.632 . S
C681 C59 1.629 . S
C689 C115 1.634 . S
C713 C129 1.633 . S
C721 C73 1.634 . S
C745 C9 1.314 . S
C753 C107 1.321 . S
C777 C121 1.304 . S
C785 C23 1.317 . S
C809 C135 1.294 . S
C817 C37 1.313 . S
C841 C51 1.350 . S
C849 C149 1.337 . S
C873 C65 1.322 . S
C881 C163 1.325 . S
C905 C79 1.340 . S
C913 C93 1.332 . S
