# Generated by pormake.
# Topology oof, (8)-cn, num edge types: 1
# Building blocks:
#     Node 0, Type 0, BuildingBlock: LIZSOE_clean_sbu_0, # of connection points: 8
#     Node 1, Type 0, BuildingBlock: LIZSOE_clean_sbu_0, # of connection points: 8
#     Node 2, Type 0, BuildingBlock: LIZSOE_clean_sbu_0, # of connection points: 8
#     Node 3, Type 0, BuildingBlock: LIZSOE_clean_sbu_0, # of connection points: 8
#     Edge 4, Type (0, 0), BuildingBlock: XIVTED_clean_linker_0, # of connection points: 2
#     Edge 5, Type (0, 0), BuildingBlock: XIVTED_clean_linker_0, # of connection points: 2
#     Edge 6, Type (0, 0), BuildingBlock: XIVTED_clean_linker_0, # of connection points: 2
#     Edge 7, Type (0, 0), BuildingBlock: XIVTED_clean_linker_0, # of connection points: 2
#     Edge 8, Type (0, 0), BuildingBlock: XIVTED_clean_linker_0, # of connection points: 2
#     Edge 9, Type (0, 0), BuildingBlock: XIVTED_clean_linker_0, # of connection points: 2
#     Edge 10, Type (0, 0), BuildingBlock: XIVTED_clean_linker_0, # of connection points: 2
#     Edge 11, Type (0, 0), BuildingBlock: XIVTED_clean_linker_0, # of connection points: 2
#     Edge 12, Type (0, 0), BuildingBlock: XIVTED_clean_linker_0, # of connection points: 2
#     Edge 13, Type (0, 0), BuildingBlock: XIVTED_clean_linker_0, # of connection points: 2
#     Edge 14, Type (0, 0), BuildingBlock: XIVTED_clean_linker_0, # of connection points: 2
#     Edge 15, Type (0, 0), BuildingBlock: XIVTED_clean_linker_0, # of connection points: 2
#     Edge 16, Type (0, 0), BuildingBlock: XIVTED_clean_linker_0, # of connection points: 2
#     Edge 17, Type (0, 0), BuildingBlock: XIVTED_clean_linker_0, # of connection points: 2
#     Edge 18, Type (0, 0), BuildingBlock: XIVTED_clean_linker_0, # of connection points: 2
#     Edge 19, Type (0, 0), BuildingBlock: XIVTED_clean_linker_0, # of connection points: 2
# Relax obj value: 0.086
# Max RMSD: 0.207
# Mean RMSD: 0.204
data_MOF--net-oof--node1-LIZSOE_clean_sbu_0--edge1-XIVTED_clean_linker_0
_symmetry_space_group_name_H-M    P1
_symmetry_Int_Tables_number       1
_symmetry_cell_setting            triclinic
loop_
_symmetry_equiv_pos_as_xyz
'x, y, z'
_cell_length_a     15.626314
_cell_length_b     42.799852
_cell_length_c     23.426415
_cell_angle_alpha  88.256613
_cell_angle_beta   116.19245
_cell_angle_gamma 89.824412
loop_
_atom_site_label
_atom_site_type_symbol
_atom_site_fract_x
_atom_site_fract_y
_atom_site_fract_z
_atom_type_partial_charge
Co0 Co 0.02393 0.18188 0.14014 0.0
N1 N 0.0761 0.18702 0.08382 0.0
C2 C 0.15855 0.20124 0.09436 0.0
N3 N 0.09822 0.18552 0.99598 0.0
C4 C 0.03988 0.17826 0.02298 0.0
C5 C 0.17251 0.20021 0.04052 0.0
Co6 Co 0.01827 0.12231 0.39831 0.0
N7 N 0.9924 0.12445 0.4691 0.0
N8 N 0.99466 0.12934 0.56465 0.0
C9 C 0.91404 0.11496 0.52709 0.0
C10 C 0.91279 0.112 0.46878 0.0
C11 C 0.04187 0.13473 0.52895 0.0
Co12 Co 0.01301 0.14909 0.2656 0.0
C13 C 0.09456 0.10549 0.39638 0.0
H14 H 0.85783 0.10057 0.42907 0.0
O15 O 0.97146 0.18091 0.19131 0.0
O16 O 0.0417 0.18576 0.32081 0.0
O17 O 0.15112 0.14748 0.28566 0.0
O18 O 0.98853 0.114 0.20388 0.0
O19 O 0.00291 0.13933 0.12249 0.0
O20 O 0.02103 0.16585 0.40038 0.0
O21 O 0.04595 0.11571 0.33588 0.0
O22 O 0.88869 0.12453 0.34297 0.0
O23 O 0.14484 0.17277 0.20113 0.0
O24 O 0.04246 0.22055 0.16466 0.0
O25 O 0.87571 0.14864 0.25213 0.0
O26 O 0.14699 0.12337 0.44207 0.0
C27 C 0.19182 0.15976 0.25472 0.0
C28 C 0.14206 0.14652 0.55484 0.0
H29 H 0.15005 0.16305 0.52035 0.0
H30 H 0.16413 0.15813 0.60064 0.0
H31 H 0.1915 0.12637 0.56323 0.0
C32 C 0.03599 0.18901 0.37229 0.0
C33 C 0.98918 0.11456 0.1489 0.0
H34 H 0.20549 0.21179 0.13836 0.0
H35 H 0.94853 0.13935 0.98704 0.0
H36 H 0.90737 0.17453 0.93849 0.0
H37 H 0.89756 0.1706 1.01277 0.0
C38 C 0.94227 0.16506 0.98832 0.0
C39 C 0.98142 0.21124 0.18508 0.0
C40 C 0.83921 0.13616 0.28701 0.0
H41 H 0.23316 0.20907 0.03475 0.0
H42 H 0.86019 0.107 0.54117 0.0
Co43 Co 0.92917 0.93136 0.62106 0.0
N44 N 0.91089 0.92427 0.53744 0.0
C45 C 0.82491 0.9165 0.4911 0.0
N46 N 0.92388 0.91488 0.44806 0.0
C47 C 0.96991 0.92353 0.509 0.0
C48 C 0.833 0.91037 0.43668 0.0
Co49 Co 0.98379 0.87515 0.89611 0.0
N50 N 0.94729 0.87065 0.96018 0.0
N51 N 0.95537 0.86951 0.05782 0.0
C52 C 0.87311 0.85639 0.0183 0.0
C53 C 0.86857 0.85694 0.9584 0.0
C54 C 0.99963 0.87763 0.02158 0.0
Co55 Co 0.9754 0.90647 0.76421 0.0
C56 C 0.01926 0.84511 0.84867 0.0
H57 H 0.81276 0.84716 0.91675 0.0
O58 O 0.94054 0.94057 0.69451 0.0
O59 O 0.01345 0.94197 0.82583 0.0
O60 O 0.10358 0.9045 0.76328 0.0
O61 O 0.9353 0.8684 0.71113 0.0
O62 O 0.88597 0.89153 0.61841 0.0
O63 O 0.00389 0.91808 0.91018 0.0
O64 O 0.02438 0.87542 0.8392 0.0
O65 O 0.85635 0.8828 0.84015 0.0
O66 O 0.06061 0.91704 0.65883 0.0
O67 O 0.80665 0.94366 0.59732 0.0
O68 O 0.84154 0.90984 0.75489 0.0
O69 O 0.96518 0.83578 0.87477 0.0
C70 C 0.12316 0.90875 0.71541 0.0
C71 C 0.09935 0.88945 0.04695 0.0
H72 H 0.12993 0.88534 1.01306 0.0
H73 H 0.0984 0.91488 0.05415 0.0
H74 H 0.14497 0.8778 0.09371 0.0
C75 C 0.01673 0.9423 0.88187 0.0
C76 C 0.89062 0.86775 0.65155 0.0
H77 H 0.76035 0.91437 0.49694 0.0
H78 H 0.10121 0.93725 0.5063 0.0
H79 H 0.11399 0.90908 0.56813 0.0
H80 H 0.08697 0.94946 0.57447 0.0
C81 C 0.07408 0.93036 0.54125 0.0
C82 C 0.88675 0.95483 0.63837 0.0
C83 C 0.80498 0.89675 0.78795 0.0
H84 H 0.77724 0.90236 0.39259 0.0
H85 H 0.82009 0.84713 0.03191 0.0
Co86 Co 0.55186 0.68013 0.14328 0.0
N87 N 0.61231 0.68415 0.09188 0.0
C88 C 0.6986 0.69638 0.10584 0.0
N89 N 0.64051 0.68188 1.0066 0.0
C90 C 0.57792 0.67597 0.03084 0.0
C91 C 0.71614 0.69494 0.05341 0.0
Co92 Co 0.52838 0.62469 0.39765 0.0
N93 N 0.5091 0.63008 0.47051 0.0
N94 N 0.51218 0.63602 0.56616 0.0
C95 C 0.42779 0.62406 0.52774 0.0
C96 C 0.42582 0.62069 0.4694 0.0
C97 C 0.56076 0.63958 0.53086 0.0
Co98 Co 0.52338 0.64875 0.26276 0.0
C99 C 0.58457 0.60202 0.39048 0.0
H100 H 0.36714 0.61121 0.42875 0.0
O101 O 0.49195 0.67999 0.18905 0.0
O102 O 0.55837 0.6861 0.31758 0.0
O103 O 0.66151 0.64301 0.28572 0.0
O104 O 0.49362 0.61377 0.20032 0.0
O105 O 0.53122 0.63732 0.12663 0.0
O106 O 0.57104 0.66528 0.40721 0.0
O107 O 0.545 0.61521 0.33187 0.0
O108 O 0.40248 0.63851 0.34537 0.0
O109 O 0.66969 0.67116 0.20863 0.0
O110 O 0.5673 0.7194 0.16598 0.0
O111 O 0.38648 0.65269 0.24737 0.0
O112 O 0.6524 0.61456 0.43904 0.0
C113 C 0.70922 0.65607 0.26054 0.0
C114 C 0.66034 0.65177 0.55685 0.0
H115 H 0.69796 0.64502 0.52888 0.0
H116 H 0.65683 0.67765 0.55669 0.0
H117 H 0.70253 0.64323 0.60687 0.0
C118 C 0.58086 0.68801 0.37602 0.0
C119 C 0.50624 0.61343 0.14935 0.0
H120 H 0.74582 0.70573 0.15123 0.0
H121 H 0.48066 0.63844 0.99436 0.0
H122 H 0.4484 0.67318 0.94358 0.0
H123 H 0.43211 0.67182 1.01571 0.0
C124 C 0.47868 0.66435 0.99381 0.0
C125 C 0.50091 0.71025 0.18165 0.0
C126 C 0.35282 0.64851 0.28814 0.0
H127 H 0.77992 0.70247 0.05007 0.0
H128 H 0.3719 0.61794 0.54128 0.0
Co129 Co 0.50939 0.41076 0.63797 0.0
N130 N 0.54686 0.39249 0.58188 0.0
C131 C 0.56607 0.36192 0.57884 0.0
N132 N 0.55216 0.38451 0.48951 0.0
C133 C 0.53998 0.40567 0.52705 0.0
C134 C 0.56999 0.35706 0.52242 0.0
Co135 Co 0.43077 0.38076 0.88184 0.0
N136 N 0.37727 0.38577 0.9376 0.0
N137 N 0.3584 0.38951 0.02654 0.0
C138 C 0.27817 0.37784 0.98149 0.0
C139 C 0.29001 0.37548 0.927 0.0
C140 C 0.41696 0.39459 0.99884 0.0
Co141 Co 0.47939 0.40294 0.76262 0.0
C142 C 0.56022 0.36773 0.89204 0.0
H143 H 0.24035 0.36496 0.88366 0.0
O144 O 0.47423 0.43157 0.68931 0.0
O145 O 0.51273 0.44053 0.81805 0.0
O146 O 0.62084 0.3961 0.79103 0.0
O147 O 0.43384 0.36479 0.70511 0.0
O148 O 0.40578 0.38623 0.6106 0.0
O149 O 0.45792 0.42363 0.88648 0.0
O150 O 0.49025 0.37358 0.83491 0.0
O151 O 0.31516 0.38927 0.81491 0.0
O152 O 0.58555 0.37876 0.69851 0.0
O153 O 0.60465 0.43565 0.66956 0.0
O154 O 0.33669 0.41154 0.73468 0.0
O155 O 0.54488 0.37247 0.94111 0.0
C156 C 0.64853 0.38385 0.75349 0.0
C157 C 0.5159 0.40725 0.03362 0.0
H158 H 0.53647 0.42146 1.00174 0.0
H159 H 0.52094 0.42193 0.07319 0.0
H160 H 0.56792 0.38753 0.05416 0.0
C161 C 0.49151 0.44499 0.86409 0.0
C162 C 0.3917 0.36479 0.6437 0.0
H163 H 0.56851 0.34369 0.61252 0.0
H164 H 0.4421 0.44436 0.49658 0.0
H165 H 0.53433 0.44705 0.46981 0.0
H166 H 0.56233 0.45351 0.55168 0.0
C167 C 0.51852 0.43967 0.5099 0.0
C168 C 0.54025 0.4487 0.68272 0.0
C169 C 0.28271 0.40253 0.76041 0.0
H170 H 0.57634 0.33462 0.50433 0.0
H171 H 0.21864 0.36932 0.98902 0.0
H172 H 0.12026 0.22398 0.91054 0.0
H173 H 0.00801 0.08932 0.65857 0.0
H174 H 0.05818 0.12904 0.94349 0.0
H175 H 0.03699 0.18608 0.6157 0.0
H176 H 0.03993 0.10271 0.76703 0.0
H177 H 0.1039 0.21004 0.80535 0.0
C178 C 0.10277 0.20025 0.89517 0.0
C179 C 0.08809 0.17774 0.93437 0.0
C180 C 0.04029 0.12103 0.73422 0.0
C181 C 0.07033 0.1615 0.8156 0.0
C182 C 0.02239 0.11334 0.67274 0.0
C183 C 0.02178 0.13663 0.62942 0.0
C184 C 0.05664 0.15233 0.75196 0.0
C185 C 0.03929 0.16752 0.6488 0.0
C186 C 0.0934 0.19228 0.83547 0.0
C187 C 0.06674 0.1472 0.91341 0.0
N188 N 0.05599 0.17455 0.70887 0.0
N189 N 0.05827 0.13996 0.85526 0.0
H190 H 0.95124 0.85743 0.41725 0.0
H191 H 0.01694 0.92349 0.11852 0.0
H192 H 0.98215 0.95498 0.38229 0.0
H193 H 0.95664 0.82758 0.14587 0.0
H194 H 0.04348 0.93371 0.22728 0.0
H195 H 0.99255 0.84432 0.33127 0.0
C196 C 0.96875 0.87593 0.39181 0.0
C197 C 0.96335 0.90715 0.40573 0.0
C198 C 0.0264 0.91026 0.21003 0.0
C199 C 0.00805 0.89283 0.30714 0.0
C200 C 0.01217 0.9044 0.14829 0.0
C201 C 0.98497 0.87466 0.12389 0.0
C202 C 0.0124 0.8862 0.24699 0.0
C203 C 0.97694 0.85085 0.16334 0.0
C204 C 0.99201 0.86859 0.3429 0.0
C205 C 0.98598 0.93064 0.3722 0.0
N206 N 0.98972 0.85719 0.22288 0.0
N207 N 0.00619 0.92303 0.32355 0.0
H208 H 0.6762 0.72044 0.92699 0.0
H209 H 0.50875 0.59506 0.65376 0.0
H210 H 0.58831 0.62722 0.94771 0.0
H211 H 0.58297 0.68938 0.62726 0.0
H212 H 0.55021 0.6053 0.76497 0.0
H213 H 0.65607 0.70855 0.81996 0.0
C214 C 0.65269 0.69749 0.90867 0.0
C215 C 0.63146 0.67497 0.94485 0.0
C216 C 0.55837 0.62374 0.73517 0.0
C217 C 0.6089 0.66109 0.82384 0.0
C218 C 0.5347 0.61786 0.67198 0.0
C219 C 0.54346 0.64139 0.63225 0.0
C220 C 0.59011 0.6535 0.75839 0.0
C221 C 0.57717 0.67059 0.6572 0.0
C222 C 0.6411 0.6907 0.84789 0.0
C223 C 0.60222 0.64544 0.92006 0.0
N224 N 0.59895 0.67593 0.71888 0.0
N225 N 0.59131 0.63937 0.86084 0.0
H226 H 0.50485 0.35683 0.11686 0.0
H227 H 0.39063 0.41107 0.39871 0.0
H228 H 0.27008 0.4188 0.08659 0.0
H229 H 0.65082 0.36321 0.42892 0.0
H230 H 0.34194 0.41318 0.28422 0.0
H231 H 0.55535 0.35696 0.23142 0.0
C232 C 0.46468 0.3707 0.13489 0.0
C233 C 0.38492 0.38846 0.09327 0.0
C234 C 0.41023 0.40256 0.31583 0.0
C235 C 0.44039 0.38831 0.22341 0.0
C236 C 0.43842 0.40169 0.38107 0.0
C237 C 0.52605 0.38776 0.42287 0.0
C238 C 0.46944 0.38887 0.29238 0.0
C239 C 0.58344 0.3745 0.39782 0.0
C240 C 0.49308 0.37071 0.2 0.0
C241 C 0.33255 0.40514 0.11791 0.0
N242 N 0.55411 0.37536 0.33399 0.0
N243 N 0.36148 0.40479 0.18178 0.0
H244 H 0.71464 0.18496 0.22878 0.0
H245 H 0.30317 0.10694 0.29861 0.0
H246 H 0.73301 0.09071 0.30436 0.0
H247 H 0.31016 0.20487 0.25265 0.0
H248 H 0.45952 0.09957 0.29929 0.0
H249 H 0.55693 0.19098 0.22648 0.0
C250 C 0.68395 0.16527 0.24287 0.0
C251 C 0.73616 0.13737 0.2668 0.0
C252 C 0.42738 0.12276 0.28995 0.0
C253 C 0.55887 0.14427 0.26666 0.0
C254 C 0.33928 0.12701 0.29082 0.0
C255 C 0.29459 0.1565 0.27556 0.0
C256 C 0.46979 0.14821 0.27333 0.0
C257 C 0.34269 0.18172 0.26422 0.0
C258 C 0.59501 0.16884 0.24277 0.0
C259 C 0.69449 0.11264 0.28571 0.0
N260 N 0.42728 0.17696 0.26259 0.0
N261 N 0.6086 0.11676 0.28583 0.0
H262 H 0.67309 0.94296 0.71825 0.0
H263 H 0.25812 0.86397 0.78501 0.0
H264 H 0.69968 0.85257 0.81148 0.0
H265 H 0.21722 0.94905 0.67221 0.0
H266 H 0.42246 0.86017 0.79756 0.0
H267 H 0.50506 0.94577 0.69898 0.0
C268 C 0.64339 0.92364 0.73413 0.0
C269 C 0.70086 0.89782 0.76777 0.0
C270 C 0.37723 0.87956 0.76955 0.0
C271 C 0.50994 0.90092 0.74676 0.0
C272 C 0.28377 0.88175 0.76275 0.0
C273 C 0.22351 0.90637 0.72608 0.0
C274 C 0.41085 0.90242 0.74021 0.0
C275 C 0.26029 0.92903 0.6987 0.0
C276 C 0.54783 0.9253 0.72358 0.0
C277 C 0.65883 0.87339 0.78728 0.0
N278 N 0.35142 0.92653 0.70626 0.0
N279 N 0.56646 0.87562 0.77695 0.0
H280 H 0.85055 0.69455 0.33071 0.0
H281 H 0.19971 0.61665 0.20633 0.0
H282 H 0.79384 0.60738 0.23475 0.0
H283 H 0.28263 0.6916 0.33771 0.0
H284 H 0.04309 0.61614 0.20726 0.0
H285 H 0.00832 0.695 0.33238 0.0
C286 C 0.87351 0.67481 0.31267 0.0
C287 C 0.81128 0.65042 0.28437 0.0
C288 C 0.095 0.63307 0.235 0.0
C289 C 0.98775 0.65167 0.28204 0.0
C290 C 0.1832 0.63379 0.23327 0.0
C291 C 0.25239 0.65464 0.27091 0.0
C292 C 0.07696 0.65331 0.27483 0.0
C293 C 0.22977 0.67563 0.30712 0.0
C294 C 0.96247 0.67534 0.31236 0.0
C295 C 0.84168 0.62605 0.25876 0.0
N296 N 0.14405 0.67435 0.30848 0.0
N297 N 0.92758 0.62746 0.25745 0.0
H298 H 0.78623 0.42699 0.81819 0.0
H299 H 0.14205 0.36622 0.67911 0.0
H300 H 0.73566 0.34626 0.70284 0.0
H301 H 0.1913 0.44906 0.78798 0.0
H302 H 0.98578 0.36143 0.67908 0.0
H303 H 0.93373 0.4362 0.80714 0.0
C304 C 0.80739 0.41072 0.79204 0.0
C305 C 0.74863 0.38566 0.76181 0.0
C306 C 0.02936 0.38123 0.70148 0.0
C307 C 0.91558 0.39669 0.74684 0.0
C308 C 0.11765 0.38441 0.69992 0.0
C309 C 0.17878 0.40862 0.73185 0.0
C310 C 0.00237 0.40212 0.73623 0.0
C311 C 0.14521 0.43061 0.76103 0.0
C312 C 0.89071 0.41631 0.78468 0.0
C313 C 0.7786 0.36586 0.72699 0.0
N314 N 0.06029 0.42658 0.76343 0.0
N315 N 0.85924 0.37185 0.72027 0.0
H316 H 0.363 0.35041 0.5253 0.0
H317 H 0.02495 0.20514 0.48174 0.0
H318 H 0.2928 0.31843 0.67604 0.0
H319 H 0.11752 0.23975 0.34343 0.0
H320 H 0.10869 0.24788 0.55091 0.0
H321 H 0.26483 0.31094 0.45832 0.0
C322 C 0.32716 0.33493 0.54486 0.0
C323 C 0.33665 0.338 0.60702 0.0
C324 C 0.10979 0.24623 0.5052 0.0
C325 C 0.22127 0.29188 0.52833 0.0
C326 C 0.06182 0.22193 0.46547 0.0
C327 C 0.06609 0.21838 0.40717 0.0
C328 C 0.16136 0.26733 0.48607 0.0
C329 C 0.1129 0.24123 0.38806 0.0
C330 C 0.27028 0.31224 0.5059 0.0
C331 C 0.28807 0.31683 0.62872 0.0
N332 N 0.15933 0.26445 0.42765 0.0
N333 N 0.23195 0.29458 0.5892 0.0
H334 H 0.74969 0.37498 0.96243 0.0
H335 H 0.8072 0.19688 0.09042 0.0
H336 H 0.54024 0.30624 0.86389 0.0
H337 H 0.96673 0.27319 0.20224 0.0
H338 H 0.71043 0.23444 1.00471 0.0
H339 H 0.84421 0.33481 0.04193 0.0
C340 C 0.7263 0.35098 0.95531 0.0
C341 C 0.63655 0.34412 0.9063 0.0
C342 C 0.76504 0.24305 0.04863 0.0
C343 C 0.74198 0.29806 0.99956 0.0
C344 C 0.81862 0.22164 0.09855 0.0
C345 C 0.89532 0.23181 0.15419 0.0
C346 C 0.78844 0.27487 0.05419 0.0
C347 C 0.90798 0.26426 0.16067 0.0
C348 C 0.77871 0.32821 1.00211 0.0
C349 C 0.60923 0.31262 0.90053 0.0
N350 N 0.85698 0.28446 0.1109 0.0
N351 N 0.66029 0.29092 0.94746 0.0
H352 H 0.52582 0.75 0.34965 0.0
H353 H 0.94198 0.80523 0.68167 0.0
H354 H 0.74556 0.68819 0.48343 0.0
H355 H 0.72759 0.86705 0.54296 0.0
H356 H 0.86734 0.76117 0.61243 0.0
H357 H 0.59946 0.79359 0.42017 0.0
C358 C 0.59 0.74577 0.39356 0.0
C359 C 0.62896 0.71557 0.41164 0.0
C360 C 0.83663 0.78444 0.59738 0.0
C361 C 0.71271 0.76473 0.4927 0.0
C362 C 0.87872 0.80942 0.63718 0.0
C363 C 0.84165 0.83978 0.61748 0.0
C364 C 0.75696 0.79005 0.53799 0.0
C365 C 0.75967 0.84406 0.55927 0.0
C366 C 0.63162 0.77046 0.43411 0.0
C367 C 0.71212 0.71111 0.46893 0.0
N368 N 0.72051 0.8196 0.52155 0.0
N369 N 0.75096 0.73532 0.50763 0.0
H370 H 0.32747 0.69141 0.09171 0.0
H371 H 0.19736 0.86401 0.93015 0.0
H372 H 0.48058 0.7736 0.1813 0.0
H373 H 0.0406 0.7823 0.8413 0.0
H374 H 0.30938 0.83073 0.01827 0.0
H375 H 0.2191 0.72427 1.0011 0.0
C376 C 0.33578 0.71653 0.09389 0.0
C377 C 0.4133 0.72968 0.1449 0.0
C378 C 0.25184 0.81991 0.97881 0.0
C379 C 0.29186 0.76748 0.03901 0.0
C380 C 0.18916 0.8389 0.92729 0.0
C381 C 0.10888 0.82605 0.8778 0.0
C382 C 0.23481 0.78772 0.9809 0.0
C383 C 0.10161 0.79325 0.87808 0.0
C384 C 0.27519 0.73526 0.04111 0.0
C385 C 0.42137 0.76243 0.14353 0.0
N386 N 0.16215 0.77536 0.92934 0.0
N387 N 0.36273 0.78006 0.0912 0.0
H388 H 0.86053 0.10367 0.02824 0.0
H389 H 0.14969 0.95444 1.00078 0.0
H390 H 0.10208 0.06173 0.18774 0.0
H391 H 0.90447 0.99518 0.84218 0.0
H392 H 0.13779 0.99478 0.06894 0.0
H393 H 0.87373 0.06378 0.95975 0.0
C394 C 0.91479 0.08543 0.04911 0.0
C395 C 0.97957 0.08571 0.11379 0.0
C396 C 0.08735 0.9953 0.01906 0.0
C397 C 0.99743 0.04049 0.03533 0.0
C398 C 0.09482 0.97248 0.98002 0.0
C399 C 0.02845 0.97168 0.91576 0.0
C400 C 0.01231 1.01746 0.99378 0.0
C401 C 0.95819 0.99537 0.89118 0.0
C402 C 0.92309 0.0629 1.00986 0.0
C403 C 0.04951 0.06192 0.13839 0.0
N404 N 0.95137 1.01713 0.93037 0.0
N405 N 0.05713 0.04041 0.09901 0.0
H406 H 0.93846 0.06615 0.34447 0.0
H407 H 0.06832 0.9808 0.68454 0.0
H408 H 0.2147 0.07239 0.50491 0.0
H409 H 0.78291 0.99307 0.53377 0.0
H410 H 0.12749 1.01258 0.62057 0.0
H411 H 0.88825 0.03178 0.40941 0.0
C412 C 0.98982 0.0595 0.39245 0.0
C413 C 0.07991 0.07331 0.41965 0.0
C414 C 0.05171 1.00855 0.60191 0.0
C415 C 0.02209 0.03451 0.49519 0.0
C416 C 0.01764 0.99087 0.6391 0.0
C417 C 0.92045 0.98358 0.6145 0.0
C418 C 0.98843 1.01856 0.53932 0.0
C419 C 0.85869 0.99741 0.55477 0.0
C420 C 0.96043 0.04033 0.43014 0.0
C421 C 0.14354 0.06308 0.48213 0.0
N422 N 0.89373 1.01348 0.51893 0.0
N423 N 0.11288 0.04505 0.51814 0.0
H424 H 0.36049 0.60152 0.03532 0.0
H425 H 0.64697 0.46246 0.96896 0.0
H426 H 0.62797 0.56344 0.17687 0.0
H427 H 0.36357 0.49269 0.83635 0.0
H428 H 0.64765 0.50236 0.04223 0.0
H429 H 0.36167 0.56291 0.96057 0.0
C430 C 0.41766 0.58415 0.05133 0.0
C431 C 0.49251 0.58487 0.11295 0.0
C432 C 0.58607 0.50081 0.99651 0.0
C433 C 0.49748 0.5417 0.02662 0.0
C434 C 0.58661 0.47851 0.95415 0.0
C435 C 0.50638 0.47506 0.8957 0.0
C436 C 0.50418 0.51962 0.98053 0.0
C437 C 0.42799 0.49533 0.88008 0.0
C438 C 0.41928 0.56248 1.00834 0.0
C439 C 0.56732 0.56289 0.13046 0.0
N440 N 0.42861 0.51662 0.9223 0.0
N441 N 0.56827 0.54231 0.08741 0.0
H442 H 0.65583 0.49848 0.70667 0.0
H443 H 0.40559 0.57628 0.35777 0.0
H444 H 0.37324 0.46905 0.58113 0.0
H445 H 0.70582 0.55595 0.46549 0.0
H446 H 0.37501 0.54355 0.43533 0.0
H447 H 0.6543 0.53332 0.62187 0.0
C448 C 0.59115 0.50062 0.66236 0.0
C449 C 0.51533 0.48032 0.65101 0.0
C450 C 0.44733 0.54585 0.44106 0.0
C451 C 0.51453 0.51939 0.55206 0.0
C452 C 0.46479 0.56397 0.39593 0.0
C453 C 0.55902 0.57008 0.40636 0.0
C454 C 0.52487 0.53392 0.49646 0.0
C455 C 0.63215 0.55281 0.45626 0.0
C456 C 0.59136 0.51988 0.61317 0.0
C457 C 0.43354 0.48416 0.59212 0.0
N458 N 0.61408 0.53664 0.50044 0.0
N459 N 0.43596 0.50272 0.54416 0.0
loop_
_geom_bond_atom_site_label_1
_geom_bond_atom_site_label_2
_geom_bond_distance
_geom_bond_site_symmetry_2
_ccdc_geom_bond_type
Co0 N1 2.034 . S
Co0 O15 2.262 1_455 S
Co0 O19 1.958 1_455 S
Co0 O23 1.950 . S
Co0 O24 2.057 1_455 S
N1 Co0 2.034 . S
N1 C2 1.366 1_554 S
N1 C4 1.332 . S
C2 N1 1.366 1_556 S
C2 C5 1.377 . S
C2 H34 0.931 1_455 S
N3 C4 1.346 1_556 S
N3 C5 1.337 . S
C4 N1 1.332 . S
C4 N3 1.346 1_554 S
C4 C38 1.361 . S
C5 C2 1.377 . S
C5 N3 1.337 . S
C5 H41 0.930 . S
Co6 N7 2.034 . S
Co6 O20 1.950 1_655 S
Co6 O21 2.262 1_655 S
Co6 O22 1.958 . S
Co6 O26 2.057 1_655 S
N7 Co6 2.034 . S
N7 C10 1.366 . S
N7 C11 1.332 . S
N8 C9 1.337 . S
N8 C11 1.346 . S
C9 N8 1.337 . S
C9 C10 1.377 . S
C9 H42 0.930 . S
C10 N7 1.366 . S
C10 C9 1.377 . S
C10 H14 0.931 . S
C11 N7 1.332 . S
C11 N8 1.346 . S
C11 C28 1.361 1_655 S
Co12 O15 2.097 . S
Co12 O16 2.065 1_655 S
Co12 O17 2.065 1_655 S
Co12 O18 2.042 . S
Co12 O21 2.097 1_655 S
Co12 O25 2.042 . S
C13 O21 1.253 . S
C13 O26 1.263 . S
H14 C10 0.931 . S
O15 Co0 2.262 1_655 S
O15 Co12 2.097 . S
O15 C39 1.253 . S
O16 Co12 2.065 1_455 S
O16 C32 1.221 . S
O17 Co12 2.065 1_455 S
O17 C27 1.221 . S
O18 Co12 2.042 . S
O18 C33 1.237 . S
O19 Co0 1.958 1_655 S
O19 C33 1.278 . S
O20 Co6 1.950 1_455 S
O20 C32 1.277 . S
O21 Co6 2.262 1_455 S
O21 Co12 2.097 1_455 S
O21 C13 1.253 . S
O22 Co6 1.958 . S
O22 C40 1.278 . S
O23 Co0 1.950 . S
O23 C27 1.277 . S
O24 Co0 2.057 1_655 S
O24 C39 1.263 . S
O25 Co12 2.042 . S
O25 C40 1.237 . S
O26 Co6 2.057 1_455 S
O26 C13 1.263 . S
C27 O17 1.221 . S
C27 O23 1.277 . S
C28 C11 1.361 1_455 S
C28 H29 0.960 . S
C28 H30 0.961 . S
C28 H31 0.961 . S
H29 C28 0.960 . S
H30 C28 0.961 . S
H31 C28 0.961 . S
C32 O16 1.221 . S
C32 O20 1.277 . S
C33 O18 1.237 . S
C33 O19 1.278 . S
H34 C2 0.931 1_655 S
H35 C38 0.961 . S
H36 C38 0.961 . S
H37 C38 0.960 . S
C38 C4 1.361 . S
C38 H35 0.961 . S
C38 H36 0.961 . S
C38 H37 0.960 . S
C39 O15 1.253 . S
C39 O24 1.263 . S
C40 O22 1.278 . S
C40 O25 1.237 . S
H41 C5 0.930 . S
H42 C9 0.930 . S
Co43 N44 2.034 . S
Co43 O58 2.262 1_455 S
Co43 O62 1.958 1_455 S
Co43 O66 1.950 . S
Co43 O67 2.057 1_455 S
N44 Co43 2.034 . S
N44 C45 1.366 . S
N44 C47 1.332 . S
C45 N44 1.366 . S
C45 C48 1.377 . S
C45 H77 0.931 1_455 S
N46 C47 1.346 . S
N46 C48 1.337 . S
C47 N44 1.332 . S
C47 N46 1.346 . S
C47 C81 1.361 . S
C48 C45 1.377 . S
C48 N46 1.337 . S
C48 H84 0.930 . S
Co49 N50 2.034 . S
Co49 O63 1.950 1_655 S
Co49 O64 2.262 1_655 S
Co49 O65 1.958 . S
Co49 O69 2.057 1_655 S
N50 Co49 2.034 . S
N50 C53 1.366 . S
N50 C54 1.332 1_556 S
N51 C52 1.337 . S
N51 C54 1.346 . S
C52 N51 1.337 . S
C52 C53 1.377 1_554 S
C52 H85 0.930 . S
C53 N50 1.366 . S
C53 C52 1.377 1_556 S
C53 H57 0.931 . S
C54 N50 1.332 1_554 S
C54 N51 1.346 . S
C54 C71 1.361 1_655 S
Co55 O58 2.097 . S
Co55 O59 2.065 1_655 S
Co55 O60 2.065 1_655 S
Co55 O61 2.042 . S
Co55 O64 2.097 1_655 S
Co55 O68 2.042 . S
C56 O64 1.253 . S
C56 O69 1.263 . S
H57 C53 0.931 . S
O58 Co43 2.262 1_655 S
O58 Co55 2.097 . S
O58 C82 1.253 . S
O59 Co55 2.065 1_455 S
O59 C75 1.221 . S
O60 Co55 2.065 1_455 S
O60 C70 1.221 . S
O61 Co55 2.042 . S
O61 C76 1.237 . S
O62 Co43 1.958 1_655 S
O62 C76 1.278 . S
O63 Co49 1.950 1_455 S
O63 C75 1.277 . S
O64 Co49 2.262 1_455 S
O64 Co55 2.097 1_455 S
O64 C56 1.253 . S
O65 Co49 1.958 . S
O65 C83 1.278 . S
O66 Co43 1.950 . S
O66 C70 1.277 . S
O67 Co43 2.057 1_655 S
O67 C82 1.263 . S
O68 Co55 2.042 . S
O68 C83 1.237 . S
O69 Co49 2.057 1_455 S
O69 C56 1.263 . S
C70 O60 1.221 . S
C70 O66 1.277 . S
C71 C54 1.361 1_455 S
C71 H72 0.960 . S
C71 H73 0.961 . S
C71 H74 0.961 . S
H72 C71 0.960 . S
H73 C71 0.961 . S
H74 C71 0.961 . S
C75 O59 1.221 . S
C75 O63 1.277 . S
C76 O61 1.237 . S
C76 O62 1.278 . S
H77 C45 0.931 1_655 S
H78 C81 0.961 . S
H79 C81 0.961 . S
H80 C81 0.960 . S
C81 C47 1.361 . S
C81 H78 0.961 . S
C81 H79 0.961 . S
C81 H80 0.960 . S
C82 O58 1.253 . S
C82 O67 1.263 . S
C83 O65 1.278 . S
C83 O68 1.237 . S
H84 C48 0.930 . S
H85 C52 0.930 . S
Co86 N87 2.034 . S
Co86 O101 2.262 . S
Co86 O105 1.958 . S
Co86 O109 1.950 . S
Co86 O110 2.057 . S
N87 Co86 2.034 . S
N87 C88 1.366 1_554 S
N87 C90 1.332 . S
C88 N87 1.366 1_556 S
C88 C91 1.377 . S
C88 H120 0.931 . S
N89 C90 1.346 1_556 S
N89 C91 1.337 . S
C90 N87 1.332 . S
C90 N89 1.346 1_554 S
C90 C124 1.361 . S
C91 C88 1.377 . S
C91 N89 1.337 . S
C91 H127 0.930 . S
Co92 N93 2.034 . S
Co92 O106 1.950 . S
Co92 O107 2.262 . S
Co92 O108 1.958 . S
Co92 O112 2.057 . S
N93 Co92 2.034 . S
N93 C96 1.366 . S
N93 C97 1.332 . S
N94 C95 1.337 . S
N94 C97 1.346 . S
C95 N94 1.337 . S
C95 C96 1.377 . S
C95 H128 0.930 . S
C96 N93 1.366 . S
C96 C95 1.377 . S
C96 H100 0.931 . S
C97 N93 1.332 . S
C97 N94 1.346 . S
C97 C114 1.361 . S
Co98 O101 2.097 . S
Co98 O102 2.065 . S
Co98 O103 2.065 . S
Co98 O104 2.042 . S
Co98 O107 2.097 . S
Co98 O111 2.042 . S
C99 O107 1.253 . S
C99 O112 1.263 . S
H100 C96 0.931 . S
O101 Co86 2.262 . S
O101 Co98 2.097 . S
O101 C125 1.253 . S
O102 Co98 2.065 . S
O102 C118 1.221 . S
O103 Co98 2.065 . S
O103 C113 1.221 . S
O104 Co98 2.042 . S
O104 C119 1.237 . S
O105 Co86 1.958 . S
O105 C119 1.278 . S
O106 Co92 1.950 . S
O106 C118 1.277 . S
O107 Co92 2.262 . S
O107 Co98 2.097 . S
O107 C99 1.253 . S
O108 Co92 1.958 . S
O108 C126 1.278 . S
O109 Co86 1.950 . S
O109 C113 1.277 . S
O110 Co86 2.057 . S
O110 C125 1.263 . S
O111 Co98 2.042 . S
O111 C126 1.237 . S
O112 Co92 2.057 . S
O112 C99 1.263 . S
C113 O103 1.221 . S
C113 O109 1.277 . S
C114 C97 1.361 . S
C114 H115 0.960 . S
C114 H116 0.961 . S
C114 H117 0.961 . S
H115 C114 0.960 . S
H116 C114 0.961 . S
H117 C114 0.961 . S
C118 O102 1.221 . S
C118 O106 1.277 . S
C119 O104 1.237 . S
C119 O105 1.278 . S
H120 C88 0.931 . S
H121 C124 0.961 . S
H122 C124 0.961 . S
H123 C124 0.960 . S
C124 C90 1.361 . S
C124 H121 0.961 . S
C124 H122 0.961 . S
C124 H123 0.960 . S
C125 O101 1.253 . S
C125 O110 1.263 . S
C126 O108 1.278 . S
C126 O111 1.237 . S
H127 C91 0.930 . S
H128 C95 0.930 . S
Co129 N130 2.034 . S
Co129 O144 2.262 . S
Co129 O148 1.958 . S
Co129 O152 1.950 . S
Co129 O153 2.057 . S
N130 Co129 2.034 . S
N130 C131 1.366 . S
N130 C133 1.332 . S
C131 N130 1.366 . S
C131 C134 1.377 . S
C131 H163 0.931 . S
N132 C133 1.346 . S
N132 C134 1.337 . S
C133 N130 1.332 . S
C133 N132 1.346 . S
C133 C167 1.361 . S
C134 C131 1.377 . S
C134 N132 1.337 . S
C134 H170 0.930 . S
Co135 N136 2.034 . S
Co135 O149 1.950 . S
Co135 O150 2.262 . S
Co135 O151 1.958 . S
Co135 O155 2.057 . S
N136 Co135 2.034 . S
N136 C139 1.366 . S
N136 C140 1.332 1_556 S
N137 C138 1.337 . S
N137 C140 1.346 . S
C138 N137 1.337 . S
C138 C139 1.377 1_554 S
C138 H171 0.930 . S
C139 N136 1.366 . S
C139 C138 1.377 1_556 S
C139 H143 0.931 . S
C140 N136 1.332 1_554 S
C140 N137 1.346 . S
C140 C157 1.361 . S
Co141 O144 2.097 . S
Co141 O145 2.065 . S
Co141 O146 2.065 . S
Co141 O147 2.042 . S
Co141 O150 2.097 . S
Co141 O154 2.042 . S
C142 O150 1.253 . S
C142 O155 1.263 . S
H143 C139 0.931 . S
O144 Co129 2.262 . S
O144 Co141 2.097 . S
O144 C168 1.253 . S
O145 Co141 2.065 . S
O145 C161 1.221 . S
O146 Co141 2.065 . S
O146 C156 1.221 . S
O147 Co141 2.042 . S
O147 C162 1.237 . S
O148 Co129 1.958 . S
O148 C162 1.278 . S
O149 Co135 1.950 . S
O149 C161 1.277 . S
O150 Co135 2.262 . S
O150 Co141 2.097 . S
O150 C142 1.253 . S
O151 Co135 1.958 . S
O151 C169 1.278 . S
O152 Co129 1.950 . S
O152 C156 1.277 . S
O153 Co129 2.057 . S
O153 C168 1.263 . S
O154 Co141 2.042 . S
O154 C169 1.237 . S
O155 Co135 2.057 . S
O155 C142 1.263 . S
C156 O146 1.221 . S
C156 O152 1.277 . S
C157 C140 1.361 . S
C157 H158 0.960 . S
C157 H159 0.961 . S
C157 H160 0.961 . S
H158 C157 0.960 . S
H159 C157 0.961 . S
H160 C157 0.961 . S
C161 O145 1.221 . S
C161 O149 1.277 . S
C162 O147 1.237 . S
C162 O148 1.278 . S
H163 C131 0.931 . S
H164 C167 0.961 . S
H165 C167 0.961 . S
H166 C167 0.960 . S
C167 C133 1.361 . S
C167 H164 0.961 . S
C167 H165 0.961 . S
C167 H166 0.960 . S
C168 O144 1.253 . S
C168 O153 1.263 . S
C169 O151 1.278 . S
C169 O154 1.237 . S
H170 C134 0.930 . S
H171 C138 0.930 . S
H172 C178 0.930 . S
H173 C182 0.930 . S
H174 C187 0.929 . S
H175 C185 0.929 . S
H176 C180 0.929 . S
H177 C186 0.929 . S
C178 H172 0.930 . S
C178 C179 1.367 . S
C178 C186 1.378 . S
C179 C178 1.367 . S
C179 C187 1.433 . S
C180 H176 0.929 . S
C180 C182 1.378 . S
C180 C184 1.350 1_655 S
C181 C184 1.463 . S
C181 C186 1.350 . S
C181 N189 1.427 . S
C182 H173 0.930 . S
C182 C180 1.378 . S
C182 C183 1.367 . S
C183 C182 1.367 . S
C183 C185 1.433 1_655 S
C184 C180 1.350 1_455 S
C184 C181 1.463 . S
C184 N188 1.427 . S
C185 H175 0.929 . S
C185 C183 1.433 1_455 S
C185 N188 1.384 . S
C186 H177 0.929 . S
C186 C178 1.378 . S
C186 C181 1.350 . S
C187 H174 0.929 . S
C187 C179 1.433 . S
C187 N189 1.384 . S
N188 C184 1.427 . S
N188 C185 1.384 . S
N189 C181 1.427 . S
N189 C187 1.384 . S
H190 C196 0.930 . S
H191 C200 0.930 1_455 S
H192 C205 0.929 . S
H193 C203 0.929 . S
H194 C198 0.929 . S
H195 C204 0.926 1_655 S
C196 H190 0.930 . S
C196 C197 1.367 . S
C196 C204 1.378 . S
C197 C196 1.367 . S
C197 C205 1.433 . S
C198 H194 0.929 . S
C198 C200 1.378 1_455 S
C198 C202 1.350 . S
C199 C202 1.463 . S
C199 C204 1.350 . S
C199 N207 1.427 . S
C200 H191 0.930 1_655 S
C200 C198 1.378 1_655 S
C200 C201 1.367 . S
C201 C200 1.367 . S
C201 C203 1.433 . S
C202 C198 1.350 . S
C202 C199 1.463 . S
C202 N206 1.427 1_455 S
C203 H193 0.929 . S
C203 C201 1.433 . S
C203 N206 1.384 . S
C204 H195 0.926 1_455 S
C204 C196 1.378 . S
C204 C199 1.350 . S
C205 H192 0.929 . S
C205 C197 1.433 . S
C205 N207 1.384 . S
N206 C202 1.427 1_655 S
N206 C203 1.384 . S
N207 C199 1.427 . S
N207 C205 1.384 . S
H208 C214 0.930 . S
H209 C218 0.930 . S
H210 C223 0.929 . S
H211 C221 0.929 . S
H212 C216 0.929 . S
H213 C222 0.929 . S
C214 H208 0.930 . S
C214 C215 1.367 . S
C214 C222 1.378 . S
C215 C214 1.367 . S
C215 C223 1.433 . S
C216 H212 0.929 . S
C216 C218 1.378 . S
C216 C220 1.350 . S
C217 C220 1.463 . S
C217 C222 1.350 . S
C217 N225 1.427 . S
C218 H209 0.930 . S
C218 C216 1.378 . S
C218 C219 1.367 . S
C219 C218 1.367 . S
C219 C221 1.433 . S
C220 C216 1.350 . S
C220 C217 1.463 . S
C220 N224 1.427 . S
C221 H211 0.929 . S
C221 C219 1.433 . S
C221 N224 1.384 . S
C222 H213 0.929 . S
C222 C214 1.378 . S
C222 C217 1.350 . S
C223 H210 0.929 . S
C223 C215 1.433 . S
C223 N225 1.384 . S
N224 C220 1.427 . S
N224 C221 1.384 . S
N225 C217 1.427 . S
N225 C223 1.384 . S
H226 C232 0.930 . S
H227 C236 0.930 . S
H228 C241 0.929 . S
H229 C239 0.929 . S
H230 C234 0.929 . S
H231 C240 0.929 . S
C232 H226 0.930 . S
C232 C233 1.367 . S
C232 C240 1.378 . S
C233 C232 1.367 . S
C233 C241 1.433 . S
C234 H230 0.929 . S
C234 C236 1.378 . S
C234 C238 1.350 . S
C235 C238 1.463 . S
C235 C240 1.350 . S
C235 N243 1.427 . S
C236 H227 0.930 . S
C236 C234 1.378 . S
C236 C237 1.367 . S
C237 C236 1.367 . S
C237 C239 1.433 . S
C238 C234 1.350 . S
C238 C235 1.463 . S
C238 N242 1.427 . S
C239 H229 0.929 . S
C239 C237 1.433 . S
C239 N242 1.384 . S
C240 H231 0.929 . S
C240 C232 1.378 . S
C240 C235 1.350 . S
C241 H228 0.929 . S
C241 C233 1.433 . S
C241 N243 1.384 . S
N242 C238 1.427 . S
N242 C239 1.384 . S
N243 C235 1.427 . S
N243 C241 1.384 . S
H244 C250 0.930 . S
H245 C254 0.930 . S
H246 C259 0.929 . S
H247 C257 0.929 . S
H248 C252 0.929 . S
H249 C258 0.929 . S
C250 H244 0.930 . S
C250 C251 1.367 . S
C250 C258 1.378 . S
C251 C250 1.367 . S
C251 C259 1.433 . S
C252 H248 0.929 . S
C252 C254 1.378 . S
C252 C256 1.350 . S
C253 C256 1.463 . S
C253 C258 1.350 . S
C253 N261 1.427 . S
C254 H245 0.930 . S
C254 C252 1.378 . S
C254 C255 1.367 . S
C255 C254 1.367 . S
C255 C257 1.433 . S
C256 C252 1.350 . S
C256 C253 1.463 . S
C256 N260 1.427 . S
C257 H247 0.929 . S
C257 C255 1.433 . S
C257 N260 1.384 . S
C258 H249 0.929 . S
C258 C250 1.378 . S
C258 C253 1.350 . S
C259 H246 0.929 . S
C259 C251 1.433 . S
C259 N261 1.384 . S
N260 C256 1.427 . S
N260 C257 1.384 . S
N261 C253 1.427 . S
N261 C259 1.384 . S
H262 C268 0.930 . S
H263 C272 0.930 . S
H264 C277 0.929 . S
H265 C275 0.929 . S
H266 C270 0.929 . S
H267 C276 0.929 . S
C268 H262 0.930 . S
C268 C269 1.367 . S
C268 C276 1.378 . S
C269 C268 1.367 . S
C269 C277 1.433 . S
C270 H266 0.929 . S
C270 C272 1.378 . S
C270 C274 1.350 . S
C271 C274 1.463 . S
C271 C276 1.350 . S
C271 N279 1.427 . S
C272 H263 0.930 . S
C272 C270 1.378 . S
C272 C273 1.367 . S
C273 C272 1.367 . S
C273 C275 1.433 . S
C274 C270 1.350 . S
C274 C271 1.463 . S
C274 N278 1.427 . S
C275 H265 0.929 . S
C275 C273 1.433 . S
C275 N278 1.384 . S
C276 H267 0.929 . S
C276 C268 1.378 . S
C276 C271 1.350 . S
C277 H264 0.929 . S
C277 C269 1.433 . S
C277 N279 1.384 . S
N278 C274 1.427 . S
N278 C275 1.384 . S
N279 C271 1.427 . S
N279 C277 1.384 . S
H280 C286 0.930 . S
H281 C290 0.930 . S
H282 C295 0.929 . S
H283 C293 0.929 . S
H284 C288 0.929 1_655 S
H285 C294 0.929 . S
C286 H280 0.930 . S
C286 C287 1.367 . S
C286 C294 1.378 . S
C287 C286 1.367 . S
C287 C295 1.433 . S
C288 H284 0.929 1_455 S
C288 C290 1.378 . S
C288 C292 1.350 . S
C289 C292 1.463 1_655 S
C289 C294 1.350 . S
C289 N297 1.427 . S
C290 H281 0.930 . S
C290 C288 1.378 . S
C290 C291 1.367 . S
C291 C290 1.367 . S
C291 C293 1.433 . S
C292 C288 1.350 . S
C292 C289 1.463 1_455 S
C292 N296 1.427 . S
C293 H283 0.929 . S
C293 C291 1.433 . S
C293 N296 1.384 . S
C294 H285 0.929 . S
C294 C286 1.378 . S
C294 C289 1.350 . S
C295 H282 0.929 . S
C295 C287 1.433 . S
C295 N297 1.384 . S
N296 C292 1.427 . S
N296 C293 1.384 . S
N297 C289 1.427 . S
N297 C295 1.384 . S
H298 C304 0.930 . S
H299 C308 0.930 . S
H300 C313 0.929 . S
H301 C311 0.929 . S
H302 C306 0.929 . S
H303 C312 0.929 . S
C304 H298 0.930 . S
C304 C305 1.367 . S
C304 C312 1.378 . S
C305 C304 1.367 . S
C305 C313 1.433 . S
C306 H302 0.929 . S
C306 C308 1.378 . S
C306 C310 1.350 . S
C307 C310 1.463 1_655 S
C307 C312 1.350 . S
C307 N315 1.427 . S
C308 H299 0.930 . S
C308 C306 1.378 . S
C308 C309 1.367 . S
C309 C308 1.367 . S
C309 C311 1.433 . S
C310 C306 1.350 . S
C310 C307 1.463 1_455 S
C310 N314 1.427 . S
C311 H301 0.929 . S
C311 C309 1.433 . S
C311 N314 1.384 . S
C312 H303 0.929 . S
C312 C304 1.378 . S
C312 C307 1.350 . S
C313 H300 0.929 . S
C313 C305 1.433 . S
C313 N315 1.384 . S
N314 C310 1.427 . S
N314 C311 1.384 . S
N315 C307 1.427 . S
N315 C313 1.384 . S
H316 C322 0.930 . S
H317 C326 0.930 . S
H318 C331 0.929 . S
H319 C329 0.929 . S
H320 C324 0.929 . S
H321 C330 0.929 . S
C322 H316 0.930 . S
C322 C323 1.367 . S
C322 C330 1.378 . S
C323 C322 1.367 . S
C323 C331 1.433 . S
C324 H320 0.929 . S
C324 C326 1.378 . S
C324 C328 1.350 . S
C325 C328 1.463 . S
C325 C330 1.350 . S
C325 N333 1.427 . S
C326 H317 0.930 . S
C326 C324 1.378 . S
C326 C327 1.367 . S
C327 C326 1.367 . S
C327 C329 1.433 . S
C328 C324 1.350 . S
C328 C325 1.463 . S
C328 N332 1.427 . S
C329 H319 0.929 . S
C329 C327 1.433 . S
C329 N332 1.384 . S
C330 H321 0.929 . S
C330 C322 1.378 . S
C330 C325 1.350 . S
C331 H318 0.929 . S
C331 C323 1.433 . S
C331 N333 1.384 . S
N332 C328 1.427 . S
N332 C329 1.384 . S
N333 C325 1.427 . S
N333 C331 1.384 . S
H334 C340 0.930 . S
H335 C344 0.930 . S
H336 C349 0.929 . S
H337 C347 0.929 . S
H338 C342 0.912 1_556 S
H339 C348 0.929 1_554 S
C340 H334 0.930 . S
C340 C341 1.367 . S
C340 C348 1.378 . S
C341 C340 1.367 . S
C341 C349 1.433 . S
C342 H338 0.912 1_554 S
C342 C344 1.389 . S
C342 C346 1.356 . S
C343 C346 1.463 1_556 S
C343 C348 1.350 . S
C343 N351 1.427 . S
C344 H335 0.930 . S
C344 C342 1.389 . S
C344 C345 1.367 . S
C345 C344 1.367 . S
C345 C347 1.433 . S
C346 C342 1.356 . S
C346 C343 1.463 1_554 S
C346 N350 1.427 . S
C347 H337 0.929 . S
C347 C345 1.433 . S
C347 N350 1.384 . S
C348 H339 0.929 1_556 S
C348 C340 1.378 . S
C348 C343 1.350 . S
C349 H336 0.929 . S
C349 C341 1.433 . S
C349 N351 1.384 . S
N350 C346 1.427 . S
N350 C347 1.384 . S
N351 C343 1.427 . S
N351 C349 1.384 . S
H352 C358 0.930 . S
H353 C362 0.930 . S
H354 C367 0.929 . S
H355 C365 0.929 . S
H356 C360 0.929 . S
H357 C366 0.929 . S
C358 H352 0.930 . S
C358 C359 1.367 . S
C358 C366 1.378 . S
C359 C358 1.367 . S
C359 C367 1.433 . S
C360 H356 0.929 . S
C360 C362 1.378 . S
C360 C364 1.350 . S
C361 C364 1.463 . S
C361 C366 1.350 . S
C361 N369 1.427 . S
C362 H353 0.930 . S
C362 C360 1.378 . S
C362 C363 1.367 . S
C363 C362 1.367 . S
C363 C365 1.433 . S
C364 C360 1.350 . S
C364 C361 1.463 . S
C364 N368 1.427 . S
C365 H355 0.929 . S
C365 C363 1.433 . S
C365 N368 1.384 . S
C366 H357 0.929 . S
C366 C358 1.378 . S
C366 C361 1.350 . S
C367 H354 0.929 . S
C367 C359 1.433 . S
C367 N369 1.384 . S
N368 C364 1.427 . S
N368 C365 1.384 . S
N369 C361 1.427 . S
N369 C367 1.384 . S
H370 C376 0.930 . S
H371 C380 0.930 . S
H372 C385 0.929 . S
H373 C383 0.929 . S
H374 C378 0.929 1_554 S
H375 C384 0.932 . S
C376 H370 0.930 . S
C376 C377 1.367 . S
C376 C384 1.376 1_554 S
C377 C376 1.367 . S
C377 C385 1.433 . S
C378 H374 0.929 1_556 S
C378 C380 1.378 . S
C378 C382 1.350 . S
C379 C382 1.463 1_554 S
C379 C384 1.348 1_554 S
C379 N387 1.427 . S
C380 H371 0.930 . S
C380 C378 1.378 . S
C380 C381 1.367 . S
C381 C380 1.367 . S
C381 C383 1.433 . S
C382 C378 1.350 . S
C382 C379 1.463 1_556 S
C382 N386 1.427 . S
C383 H373 0.929 . S
C383 C381 1.433 . S
C383 N386 1.384 . S
C384 H375 0.932 . S
C384 C376 1.376 1_556 S
C384 C379 1.348 1_556 S
C385 H372 0.929 . S
C385 C377 1.433 . S
C385 N387 1.384 . S
N386 C382 1.427 . S
N386 C383 1.384 . S
N387 C379 1.427 . S
N387 C385 1.384 . S
H388 C394 0.930 . S
H389 C398 0.930 . S
H390 C403 0.929 . S
H391 C401 0.929 . S
H392 C396 0.929 1_545 S
H393 C402 0.929 . S
C394 H388 0.930 . S
C394 C395 1.367 . S
C394 C402 1.378 1_545 S
C395 C394 1.367 . S
C395 C403 1.433 1_655 S
C396 H392 0.929 1_565 S
C396 C398 1.378 . S
C396 C400 1.350 . S
C397 C400 1.463 1_644 S
C397 C402 1.350 1_545 S
C397 N405 1.427 1_655 S
C398 H389 0.930 . S
C398 C396 1.378 . S
C398 C399 1.367 . S
C399 C398 1.367 . S
C399 C401 1.433 1_455 S
C400 C396 1.350 . S
C400 C397 1.463 1_466 S
C400 N404 1.427 1_455 S
C401 H391 0.929 . S
C401 C399 1.433 1_655 S
C401 N404 1.384 . S
C402 H393 0.929 . S
C402 C394 1.378 1_565 S
C402 C397 1.350 1_565 S
C403 H390 0.929 . S
C403 C395 1.433 1_455 S
C403 N405 1.384 . S
N404 C400 1.427 1_655 S
N404 C401 1.384 . S
N405 C397 1.427 1_455 S
N405 C403 1.384 . S
H406 C412 0.930 1_655 S
H407 C416 0.930 1_455 S
H408 C421 0.929 . S
H409 C419 0.929 . S
H410 C414 0.929 . S
H411 C420 0.929 . S
C412 H406 0.930 1_455 S
C412 C413 1.367 . S
C412 C420 1.378 1_455 S
C413 C412 1.367 . S
C413 C421 1.433 . S
C414 H410 0.929 . S
C414 C416 1.378 1_455 S
C414 C418 1.350 1_455 S
C415 C418 1.463 1_445 S
C415 C420 1.350 1_455 S
C415 N423 1.427 1_545 S
C416 H407 0.930 1_655 S
C416 C414 1.378 1_655 S
C416 C417 1.367 . S
C417 C416 1.367 . S
C417 C419 1.433 . S
C418 C414 1.350 1_655 S
C418 C415 1.463 1_665 S
C418 N422 1.427 1_565 S
C419 H409 0.929 . S
C419 C417 1.433 . S
C419 N422 1.384 1_565 S
C420 H411 0.929 . S
C420 C412 1.378 1_655 S
C420 C415 1.350 1_655 S
C421 H408 0.929 . S
C421 C413 1.433 . S
C421 N423 1.384 1_545 S
N422 C418 1.427 1_545 S
N422 C419 1.384 1_545 S
N423 C415 1.427 1_565 S
N423 C421 1.384 1_565 S
H424 C430 0.930 . S
H425 C434 0.930 . S
H426 C439 0.929 . S
H427 C437 0.929 . S
H428 C432 0.930 . S
H429 C438 0.929 . S
C430 H424 0.930 . S
C430 C431 1.367 . S
C430 C438 1.378 1_554 S
C431 C430 1.367 . S
C431 C439 1.433 . S
C432 H428 0.930 . S
C432 C434 1.376 1_554 S
C432 C436 1.350 1_554 S
C433 C436 1.463 1_554 S
C433 C438 1.350 1_554 S
C433 N441 1.427 . S
C434 H425 0.930 . S
C434 C432 1.376 1_556 S
C434 C435 1.367 . S
C435 C434 1.367 . S
C435 C437 1.433 . S
C436 C432 1.350 1_556 S
C436 C433 1.463 1_556 S
C436 N440 1.427 . S
C437 H427 0.929 . S
C437 C435 1.433 . S
C437 N440 1.384 . S
C438 H429 0.929 . S
C438 C430 1.378 1_556 S
C438 C433 1.350 1_556 S
C439 H426 0.929 . S
C439 C431 1.433 . S
C439 N441 1.384 . S
N440 C436 1.427 . S
N440 C437 1.384 . S
N441 C433 1.427 . S
N441 C439 1.384 . S
H442 C448 0.930 . S
H443 C452 0.930 . S
H444 C457 0.929 . S
H445 C455 0.929 . S
H446 C450 0.929 . S
H447 C456 0.929 . S
C448 H442 0.930 . S
C448 C449 1.367 . S
C448 C456 1.378 . S
C449 C448 1.367 . S
C449 C457 1.433 . S
C450 H446 0.929 . S
C450 C452 1.378 . S
C450 C454 1.350 . S
C451 C454 1.463 . S
C451 C456 1.350 . S
C451 N459 1.427 . S
C452 H443 0.930 . S
C452 C450 1.378 . S
C452 C453 1.367 . S
C453 C452 1.367 . S
C453 C455 1.433 . S
C454 C450 1.350 . S
C454 C451 1.463 . S
C454 N458 1.427 . S
C455 H445 0.929 . S
C455 C453 1.433 . S
C455 N458 1.384 . S
C456 H447 0.929 . S
C456 C448 1.378 . S
C456 C451 1.350 . S
C457 H444 0.929 . S
C457 C449 1.433 . S
C457 N459 1.384 . S
N458 C454 1.427 . S
N458 C455 1.384 . S
N459 C451 1.427 . S
N459 C457 1.384 . S
C179 N3 1.185 . S
C183 N8 1.231 . S
C197 N46 1.173 . S
C201 N51 1.234 . S
C215 N89 1.184 . S
C219 N94 1.229 . S
C233 N137 1.243 . S
C237 N132 1.192 . S
C251 C40 1.206 . S
C255 C27 1.205 . S
C269 C83 1.204 . S
C273 C70 1.203 . S
C287 C113 1.210 . S
C291 C126 1.208 . S
C305 C156 1.198 . S
C309 C169 1.195 . S
C323 C162 1.519 . S
C327 C32 1.529 . S
C341 C142 1.550 . S
C345 C39 1.542 . S
C359 C118 1.537 . S
C363 C76 1.530 . S
C377 C125 1.540 . S
C381 C56 1.548 . S
C395 C33 1.850 . S
C399 C75 1.823 . S
C413 C13 1.821 . S
C417 C82 1.851 . S
C431 C119 1.836 . S
C435 C161 1.809 . S
C449 C168 1.867 . S
C453 C99 1.836 . S
