# Generated by pormake.
# Topology sra, (4)-cn, num edge types: 1
# Building blocks:
#     Node 0, Type 0, BuildingBlock: KUFVIS_clean_sbu_0, # of connection points: 4
#     Node 1, Type 0, BuildingBlock: KUFVIS_clean_sbu_0, # of connection points: 4
#     Node 2, Type 0, BuildingBlock: KUFVIS_clean_sbu_0, # of connection points: 4
#     Node 3, Type 0, BuildingBlock: KUFVIS_clean_sbu_0, # of connection points: 4
#     Node 4, Type 0, BuildingBlock: KUFVIS_clean_sbu_0, # of connection points: 4
#     Node 5, Type 0, BuildingBlock: KUFVIS_clean_sbu_0, # of connection points: 4
#     Node 6, Type 0, BuildingBlock: KUFVIS_clean_sbu_0, # of connection points: 4
#     Node 7, Type 0, BuildingBlock: KUFVIS_clean_sbu_0, # of connection points: 4
#     Edge 8, Type (0, 0), BuildingBlock: UVAHIK_clean_linker_0, # of connection points: 2
#     Edge 9, Type (0, 0), BuildingBlock: UVAHIK_clean_linker_0, # of connection points: 2
#     Edge 10, Type (0, 0), BuildingBlock: UVAHIK_clean_linker_0, # of connection points: 2
#     Edge 11, Type (0, 0), BuildingBlock: UVAHIK_clean_linker_0, # of connection points: 2
#     Edge 12, Type (0, 0), BuildingBlock: UVAHIK_clean_linker_0, # of connection points: 2
#     Edge 13, Type (0, 0), BuildingBlock: UVAHIK_clean_linker_0, # of connection points: 2
#     Edge 14, Type (0, 0), BuildingBlock: UVAHIK_clean_linker_0, # of connection points: 2
#     Edge 15, Type (0, 0), BuildingBlock: UVAHIK_clean_linker_0, # of connection points: 2
#     Edge 16, Type (0, 0), BuildingBlock: UVAHIK_clean_linker_0, # of connection points: 2
#     Edge 17, Type (0, 0), BuildingBlock: UVAHIK_clean_linker_0, # of connection points: 2
#     Edge 18, Type (0, 0), BuildingBlock: UVAHIK_clean_linker_0, # of connection points: 2
#     Edge 19, Type (0, 0), BuildingBlock: UVAHIK_clean_linker_0, # of connection points: 2
#     Edge 20, Type (0, 0), BuildingBlock: UVAHIK_clean_linker_0, # of connection points: 2
#     Edge 21, Type (0, 0), BuildingBlock: UVAHIK_clean_linker_0, # of connection points: 2
#     Edge 22, Type (0, 0), BuildingBlock: UVAHIK_clean_linker_0, # of connection points: 2
#     Edge 23, Type (0, 0), BuildingBlock: UVAHIK_clean_linker_0, # of connection points: 2
# Relax obj value: 0.055
# Max RMSD: 0.085
# Mean RMSD: 0.085
data_MOF--net-sra--node1-KUFVIS_clean_sbu_0--edge1-UVAHIK_clean_linker_0
_symmetry_space_group_name_H-M    P1
_symmetry_Int_Tables_number       1
_symmetry_cell_setting            triclinic
loop_
_symmetry_equiv_pos_as_xyz
'x, y, z'
_cell_length_a     34.565929
_cell_length_b     68.100096
_cell_length_c     42.918539
_cell_angle_alpha  90.049144
_cell_angle_beta   89.989648
_cell_angle_gamma 89.989973
loop_
_atom_site_label
_atom_site_type_symbol
_atom_site_fract_x
_atom_site_fract_y
_atom_site_fract_z
_atom_type_partial_charge
Mn0 Mn -0.00352 0.11162 0.15246 0.0
Mn1 Mn 0.99432 0.0713 0.19814 0.0
C2 C 0.93848 0.10027 0.17179 0.0
C3 C 0.00345 0.14556 0.14793 0.0
C4 C 0.00434 0.06964 0.12798 0.0
O5 O 0.05263 0.10844 0.16572 0.0
O6 O 0.04717 0.08271 0.19858 0.0
C7 C 0.00665 0.09065 0.25911 0.0
N8 N 0.98467 0.07908 0.24023 0.0
C9 C 0.93676 0.07484 0.28036 0.0
C10 C 0.95903 0.08659 0.30031 0.0
C11 C 0.99409 0.09456 0.28961 0.0
C12 C 0.95084 0.07138 0.25025 0.0
H13 H 0.0335 0.0969 0.25092 0.0
C14 C 0.06681 0.09628 0.18526 0.0
O15 O 0.00977 0.13403 0.12432 0.0
O16 O 0.9938 0.13732 0.174 0.0
N17 N 0.94464 0.05892 0.2 0.0
C18 C 0.9259 0.04851 0.17746 0.0
C19 C 0.89002 0.03983 0.18423 0.0
C20 C 0.8739 0.04184 0.21411 0.0
C21 C 0.89393 0.05243 0.23703 0.0
C22 C 0.92978 0.06058 0.22902 0.0
H23 H 0.93813 0.04693 0.15444 0.0
O24 O 0.93898 0.11169 0.14762 0.0
O25 O 0.97184 0.09606 0.18395 0.0
O26 O 0.001 0.08804 0.12288 0.0
O27 O 0.00341 0.06198 0.15516 0.0
C28 C 0.87947 0.05547 0.26735 0.0
C29 C 0.90083 0.06671 0.28897 0.0
H30 H 0.94934 0.08973 0.3238 0.0
H31 H 0.01133 0.10374 0.30482 0.0
H32 H 0.87474 0.03167 0.16642 0.0
H33 H 0.84604 0.0353 0.21915 0.0
H34 H 0.85175 0.04943 0.27416 0.0
H35 H 0.88917 0.06915 0.31208 0.0
Mn36 Mn 0.01761 0.39048 0.15135 0.0
Mn37 Mn 0.02264 0.43161 0.19522 0.0
C38 C 0.07658 0.4012 0.16971 0.0
C39 C 0.00845 0.35665 0.14754 0.0
C40 C 0.01128 0.43203 0.12519 0.0
O41 O 0.96193 0.39468 0.16517 0.0
O42 O 0.96928 0.42088 0.19691 0.0
C43 C 0.01009 0.41431 0.25764 0.0
N44 N 0.03232 0.42505 0.23777 0.0
C45 C 0.07946 0.43123 0.27784 0.0
C46 C 0.05695 0.42034 0.2988 0.0
C47 C 0.02217 0.41179 0.28862 0.0
C48 C 0.06586 0.43331 0.24729 0.0
H49 H 0.98335 0.40771 0.24988 0.0
C50 C 0.94874 0.40733 0.18441 0.0
O51 O 0.00247 0.36812 0.12386 0.0
O52 O 0.01911 0.36488 0.17341 0.0
N53 N 0.07293 0.44335 0.19579 0.0
C54 C 0.09266 0.45207 0.17206 0.0
C55 C 0.1289 0.46061 0.178 0.0
C56 C 0.14429 0.46024 0.20829 0.0
C57 C 0.12332 0.45129 0.23237 0.0
C58 C 0.08734 0.44305 0.22506 0.0
H59 H 0.08093 0.45241 0.14875 0.0
O60 O 0.07484 0.38951 0.14585 0.0
O61 O 0.04373 0.40614 0.18223 0.0
O62 O 0.01385 0.41355 0.12084 0.0
O63 O 0.01319 0.44013 0.15198 0.0
C64 C 0.13701 0.4499 0.2632 0.0
C65 C 0.11519 0.43981 0.28589 0.0
H66 H 0.06626 0.41828 0.32267 0.0
H67 H 0.00474 0.40328 0.30462 0.0
H68 H 0.14496 0.46744 0.15927 0.0
H69 H 0.17236 0.46673 0.21274 0.0
H70 H 0.16454 0.45632 0.26962 0.0
H71 H 0.12638 0.43853 0.30937 0.0
Mn72 Mn -0.00174 0.88956 0.84784 0.0
Mn73 Mn 0.99181 0.93028 0.80327 0.0
C74 C 0.93903 0.89949 0.82889 0.0
C75 C 0.00858 0.85584 0.85196 0.0
C76 C 0.00325 0.93133 0.87333 0.0
O77 O 0.05388 0.89424 0.83407 0.0
O78 O 0.04537 0.91984 0.80135 0.0
C79 C 0.00417 0.91267 0.74098 0.0
N80 N 0.98177 0.92333 0.76089 0.0
C81 C 0.93338 0.92831 0.72137 0.0
C82 C 0.95605 0.91749 0.70038 0.0
C83 C 0.99156 0.90961 0.71026 0.0
C84 C 0.94759 0.93101 0.75163 0.0
H85 H 0.03141 0.90653 0.74852 0.0
C86 C 0.06648 0.90665 0.8142 0.0
O87 O 0.01398 0.86744 0.87561 0.0
O88 O -0.0021 0.86388 0.82598 0.0
N89 N 0.94111 0.9416 0.80293 0.0
C90 C 0.92149 0.95042 0.82666 0.0
C91 C 0.88467 0.95839 0.821 0.0
C92 C 0.86852 0.95729 0.79102 0.0
C93 C 0.88939 0.94827 0.76692 0.0
C94 C 0.92607 0.94072 0.77389 0.0
H95 H 0.9337 0.95126 0.84977 0.0
O96 O 0.94088 0.88802 0.85297 0.0
O97 O 0.97183 0.90474 0.81672 0.0
O98 O 0.00089 0.91287 0.87805 0.0
O99 O 0.00148 0.93916 0.84635 0.0
C100 C 0.87484 0.94607 0.73645 0.0
C101 C 0.89683 0.9361 0.71369 0.0
H102 H 0.94629 0.91497 0.67673 0.0
H103 H 0.00911 0.90116 0.69424 0.0
H104 H 0.86871 0.96528 0.83974 0.0
H105 H 0.83994 0.96326 0.78683 0.0
H106 H 0.8465 0.95168 0.73041 0.0
H107 H 0.88507 0.93422 0.69049 0.0
Mn108 Mn 0.02025 0.61104 0.84551 0.0
Mn109 Mn 0.02752 0.57065 0.80019 0.0
C110 C 0.08001 0.60033 0.82881 0.0
C111 C 0.01176 0.6449 0.84978 0.0
C112 C 0.01262 0.56904 0.86976 0.0
O113 O 0.96524 0.6072 0.82967 0.0
O114 O 0.97435 0.58146 0.7973 0.0
C115 C 0.01852 0.58968 0.73863 0.0
N116 N 0.03971 0.57843 0.75855 0.0
C117 C 0.09037 0.57453 0.72058 0.0
C118 C 0.06898 0.58596 0.69958 0.0
C119 C 0.03293 0.59359 0.70867 0.0
C120 C 0.07447 0.57107 0.75008 0.0
H121 H 0.9909 0.59566 0.74558 0.0
C122 C 0.95311 0.59482 0.80957 0.0
O123 O 0.00416 0.6333 0.87302 0.0
O124 O 0.02338 0.63677 0.82412 0.0
N125 N 0.07781 0.55888 0.80065 0.0
C126 C 0.09547 0.54878 0.82407 0.0
C127 C 0.1321 0.54045 0.81894 0.0
C128 C 0.15008 0.54249 0.78976 0.0
C129 C 0.13116 0.55277 0.76591 0.0
C130 C 0.09453 0.56059 0.7723 0.0
H131 H 0.08179 0.54717 0.84654 0.0
O132 O 0.07734 0.61175 0.85292 0.0
O133 O 0.04774 0.59573 0.81522 0.0
O134 O 0.01471 0.58749 0.87488 0.0
O135 O 0.01587 0.56132 0.84273 0.0
C136 C 0.14745 0.55579 0.7362 0.0
C137 C 0.12712 0.56672 0.71359 0.0
H138 H 0.08007 0.58909 0.67651 0.0
H139 H 0.01635 0.60251 0.69265 0.0
H140 H 0.14651 0.53254 0.83746 0.0
H141 H 0.17848 0.5362 0.78599 0.0
H142 H 0.17577 0.54997 0.73061 0.0
H143 H 0.14017 0.56916 0.69097 0.0
Mn144 Mn 0.50036 0.61015 0.65019 0.0
Mn145 Mn 0.49547 0.57054 0.69728 0.0
C146 C 0.44151 0.59973 0.66921 0.0
C147 C 0.50912 0.64394 0.64482 0.0
C148 C 0.50613 0.56766 0.62721 0.0
O149 O 0.55602 0.60658 0.6642 0.0
O150 O 0.54902 0.58116 0.69741 0.0
C151 C 0.50884 0.59069 0.75746 0.0
N152 N 0.48624 0.57913 0.73903 0.0
C153 C 0.4382 0.57613 0.77933 0.0
C154 C 0.46109 0.58788 0.79882 0.0
C155 C 0.49653 0.59522 0.78781 0.0
C156 C 0.45203 0.57206 0.74935 0.0
H157 H 0.536 0.59645 0.74903 0.0
C158 C 0.56942 0.59441 0.68402 0.0
O159 O 0.51518 0.63209 0.62156 0.0
O160 O 0.49842 0.63612 0.67093 0.0
N161 N 0.44515 0.55889 0.6996 0.0
C162 C 0.42597 0.54827 0.67755 0.0
C163 C 0.38976 0.54009 0.68472 0.0
C164 C 0.37378 0.54278 0.71451 0.0
C165 C 0.39427 0.55356 0.73694 0.0
C166 C 0.43041 0.5612 0.72856 0.0
H167 H 0.43811 0.54613 0.65462 0.0
O168 O 0.44297 0.61078 0.64462 0.0
O169 O 0.47443 0.59535 0.68196 0.0
O170 O 0.50465 0.58608 0.6215 0.0
O171 O 0.50385 0.56048 0.65467 0.0
C172 C 0.38005 0.55722 0.76716 0.0
C173 C 0.40194 0.56855 0.78831 0.0
H174 H 0.45162 0.59149 0.8222 0.0
H175 H 0.51426 0.60439 0.80265 0.0
H176 H 0.37414 0.53177 0.66729 0.0
H177 H 0.34569 0.53659 0.71986 0.0
H178 H 0.35213 0.55156 0.77428 0.0
H179 H 0.39048 0.57146 0.81134 0.0
Mn180 Mn 0.51806 0.8889 0.65197 0.0
Mn181 Mn 0.52105 0.93016 0.69572 0.0
C182 C 0.57657 0.9007 0.66972 0.0
C183 C 0.51157 0.8549 0.64804 0.0
C184 C 0.50899 0.93038 0.6258 0.0
O185 O 0.4623 0.89207 0.66636 0.0
O186 O 0.46835 0.91865 0.69745 0.0
C187 C 0.50967 0.91258 0.75809 0.0
N188 N 0.5312 0.9237 0.73824 0.0
C189 C 0.57797 0.93059 0.77829 0.0
C190 C 0.55618 0.91931 0.79924 0.0
C191 C 0.52195 0.91022 0.78905 0.0
C192 C 0.56422 0.93248 0.74776 0.0
H193 H 0.48336 0.90556 0.75033 0.0
C194 C 0.44851 0.9047 0.68536 0.0
O195 O 0.50418 0.8663 0.62454 0.0
O196 O 0.52187 0.8633 0.67388 0.0
N197 N 0.57059 0.94269 0.69629 0.0
C198 C 0.58968 0.95181 0.67259 0.0
C199 C 0.62534 0.96095 0.67855 0.0
C200 C 0.64079 0.96079 0.70882 0.0
C201 C 0.62044 0.95144 0.73288 0.0
C202 C 0.58503 0.9426 0.72556 0.0
H203 H 0.5779 0.952 0.64929 0.0
O204 O 0.57524 0.88899 0.64586 0.0
O205 O 0.54361 0.90503 0.68262 0.0
O206 O 0.5122 0.91191 0.62152 0.0
O207 O 0.51104 0.93856 0.65251 0.0
C208 C 0.63425 0.95025 0.7637 0.0
C209 C 0.61312 0.93975 0.78636 0.0
H210 H 0.56563 0.91739 0.8231 0.0
H211 H 0.50507 0.90141 0.80504 0.0
H212 H 0.64091 0.96809 0.65984 0.0
H213 H 0.66842 0.96774 0.71328 0.0
H214 H 0.66134 0.95712 0.77014 0.0
H215 H 0.6244 0.93863 0.80984 0.0
Mn216 Mn 0.49957 0.38786 0.34748 0.0
Mn217 Mn 0.48912 0.42786 0.30171 0.0
C218 C 0.43925 0.39658 0.32928 0.0
C219 C 0.51168 0.35434 0.35264 0.0
C220 C 0.50138 0.43017 0.37161 0.0
O221 O 0.55441 0.39309 0.33256 0.0
O222 O 0.54368 0.41871 0.30034 0.0
C223 C 0.50341 0.40941 0.24029 0.0
N224 N 0.48003 0.41995 0.25961 0.0
C225 C 0.43163 0.42324 0.21964 0.0
C226 C 0.45531 0.41253 0.19926 0.0
C227 C 0.49132 0.40555 0.20966 0.0
C228 C 0.44532 0.42673 0.24985 0.0
H229 H 0.53105 0.40396 0.24823 0.0
C230 C 0.56588 0.40585 0.31285 0.0
O231 O 0.51722 0.36635 0.37576 0.0
O232 O 0.49991 0.36188 0.32659 0.0
N233 N 0.43752 0.43806 0.30063 0.0
C234 C 0.41711 0.44703 0.32379 0.0
C235 C 0.37985 0.45425 0.31754 0.0
C236 C 0.36409 0.4523 0.28753 0.0
C237 C 0.38578 0.44319 0.264 0.0
C238 C 0.42286 0.4364 0.27155 0.0
H239 H 0.42906 0.44854 0.34691 0.0
O240 O 0.44248 0.38558 0.35382 0.0
O241 O 0.47133 0.40214 0.31624 0.0
O242 O 0.50204 0.4117 0.37673 0.0
O243 O 0.49741 0.43756 0.34447 0.0
C244 C 0.37172 0.44018 0.23356 0.0
C245 C 0.39462 0.4302 0.2114 0.0
H246 H 0.44599 0.40941 0.17567 0.0
H247 H 0.50966 0.39718 0.19411 0.0
H248 H 0.36326 0.46123 0.33584 0.0
H249 H 0.33517 0.4577 0.28289 0.0
H250 H 0.34308 0.44519 0.22709 0.0
H251 H 0.38325 0.4277 0.18822 0.0
Mn252 Mn 0.51747 0.10981 0.34739 0.0
Mn253 Mn 0.52355 0.0696 0.30157 0.0
C254 C 0.57696 0.09856 0.33088 0.0
C255 C 0.51045 0.14374 0.35208 0.0
C256 C 0.50821 0.06775 0.37107 0.0
O257 O 0.46245 0.10666 0.33119 0.0
O258 O 0.47078 0.08092 0.2987 0.0
C259 C 0.51544 0.08907 0.24028 0.0
N260 N 0.53617 0.07753 0.26008 0.0
C261 C 0.58695 0.07352 0.22224 0.0
C262 C 0.56601 0.08525 0.20136 0.0
C263 C 0.53014 0.09308 0.21045 0.0
C264 C 0.57077 0.06996 0.25161 0.0
H265 H 0.48795 0.09521 0.24723 0.0
C266 C 0.44996 0.09446 0.31093 0.0
O267 O 0.50211 0.1321 0.37512 0.0
O268 O 0.5219 0.1356 0.32638 0.0
N269 N 0.57344 0.05738 0.30197 0.0
C270 C 0.59067 0.04701 0.32529 0.0
C271 C 0.62711 0.03846 0.32015 0.0
C272 C 0.64534 0.04058 0.29109 0.0
C273 C 0.62685 0.05115 0.26735 0.0
C274 C 0.59038 0.05917 0.27372 0.0
H275 H 0.57682 0.04534 0.34768 0.0
O276 O 0.57451 0.10986 0.35515 0.0
O277 O 0.54463 0.09438 0.31703 0.0
O278 O 0.51073 0.08615 0.3764 0.0
O279 O 0.51145 0.06012 0.34396 0.0
C280 C 0.64341 0.05428 0.23777 0.0
C281 C 0.62353 0.0655 0.21526 0.0
H282 H 0.57734 0.08846 0.17839 0.0
H283 H 0.51391 0.10223 0.19453 0.0
H284 H 0.64119 0.03033 0.3386 0.0
H285 H 0.67361 0.03414 0.28733 0.0
H286 H 0.67162 0.0483 0.23219 0.0
H287 H 0.63679 0.06801 0.19275 0.0
C288 C 0.00552 0.3235 0.17222 0.0
C289 C 0.00451 0.33508 0.14517 0.0
C290 C 0.00336 0.30307 0.17022 0.0
C291 C 0.02299 0.26171 0.11819 0.0
H292 H 0.95794 0.23303 0.17599 0.0
C293 C 0.00801 0.17653 0.11628 0.0
C294 C 0.0055 0.16719 0.1454 0.0
C295 C 0.00708 0.19707 0.11426 0.0
C296 C 0.97662 0.24078 0.1599 0.0
H297 H 0.00033 0.33434 0.09477 0.0
H298 H -0.0031 0.29846 0.09128 0.0
H299 H 0.95682 0.26877 0.17605 0.0
H300 H 0.00158 0.17204 0.19526 0.0
H301 H 0.00099 0.20761 0.19184 0.0
H302 H 0.04354 0.23369 0.10256 0.0
C303 C -0.00066 0.30528 0.11401 0.0
C304 C 0.97583 0.26126 0.15987 0.0
C305 C 0.00107 0.32579 0.11603 0.0
C306 C 0.00318 0.17876 0.17243 0.0
C307 C 0.00252 0.1992 0.17044 0.0
C308 C 0.02402 0.24115 0.11837 0.0
C309 C 0.0005 0.29372 0.14111 0.0
C310 C -0.00063 0.27196 0.13934 0.0
C311 C 0.00381 0.20864 0.14134 0.0
C312 C 0.00127 0.23044 0.13958 0.0
H313 H 0.00819 0.3302 0.19501 0.0
H314 H 0.00475 0.29454 0.1915 0.0
H315 H 0.04167 0.26959 0.10225 0.0
H316 H 0.00971 0.16799 0.09503 0.0
H317 H 0.00793 0.20385 0.09145 0.0
C318 C 0.01507 0.82503 0.88366 0.0
C319 C 0.01295 0.8343 0.85446 0.0
C320 C 0.0167 0.80452 0.88569 0.0
C321 C 0.04196 0.76042 0.84049 0.0
H322 H 0.97029 0.7331 0.89482 0.0
C323 C 0.01335 0.67819 0.82569 0.0
C324 C 0.00937 0.66652 0.85245 0.0
C325 C 0.01421 0.69861 0.82799 0.0
C326 C 0.99089 0.74048 0.87987 0.0
H327 H 0.01174 0.82941 0.80452 0.0
H328 H 0.01509 0.79377 0.80806 0.0
H329 H 0.97307 0.76898 0.89568 0.0
H330 H 0.00232 0.66712 0.90263 0.0
H331 H 0.00443 0.70295 0.90677 0.0
H332 H 0.05998 0.73212 0.82465 0.0
C333 C 0.01545 0.8023 0.82938 0.0
C334 C 0.99246 0.76103 0.88037 0.0
C335 C 0.01335 0.82272 0.82737 0.0
C336 C 0.0053 0.67574 0.88157 0.0
C337 C 0.00643 0.69627 0.88392 0.0
C338 C 0.04061 0.73994 0.84014 0.0
C339 C 0.01682 0.79296 0.85853 0.0
C340 C 0.01752 0.7712 0.86025 0.0
C341 C 0.01149 0.70793 0.85716 0.0
C342 C 0.01452 0.7297 0.85935 0.0
H343 H 0.01468 0.83359 0.90494 0.0
H344 H 0.01796 0.79769 0.90846 0.0
H345 H 0.06204 0.76785 0.82511 0.0
H346 H 0.01619 0.67155 0.80286 0.0
H347 H 0.01712 0.70711 0.8068 0.0
C348 C 0.51404 0.67708 0.66913 0.0
C349 C 0.51337 0.66547 0.64206 0.0
C350 C 0.51634 0.69748 0.6671 0.0
C351 C 0.49339 0.73888 0.61656 0.0
H352 H 0.56171 0.76741 0.67213 0.0
C353 C 0.5059 0.82408 0.61621 0.0
C354 C 0.51019 0.83325 0.64535 0.0
C355 C 0.50733 0.80358 0.61369 0.0
C356 C 0.54212 0.75971 0.65668 0.0
H357 H 0.51475 0.66612 0.59158 0.0
H358 H 0.51832 0.70206 0.58802 0.0
H359 H 0.56359 0.73168 0.67115 0.0
H360 H 0.51805 0.82813 0.69481 0.0
H361 H 0.51955 0.79255 0.69058 0.0
H362 H 0.47112 0.76691 0.6027 0.0
C363 C 0.51715 0.69524 0.61079 0.0
C364 C 0.54338 0.73923 0.65602 0.0
C365 C 0.51534 0.67471 0.61283 0.0
C366 C 0.51495 0.82153 0.67198 0.0
C367 C 0.51614 0.8011 0.6695 0.0
C368 C 0.4919 0.75942 0.61737 0.0
C369 C 0.51765 0.70681 0.63795 0.0
C370 C 0.51864 0.72857 0.63632 0.0
C371 C 0.51293 0.79185 0.64029 0.0
C372 C 0.51583 0.77008 0.63784 0.0
H373 H 0.51258 0.67042 0.69201 0.0
H374 H 0.51623 0.70601 0.68842 0.0
H375 H 0.47376 0.73103 0.60132 0.0
H376 H 0.50232 0.83273 0.59525 0.0
H377 H 0.50501 0.79697 0.59081 0.0
C378 C 0.51872 0.32397 0.38531 0.0
C379 C 0.51684 0.33289 0.35583 0.0
C380 C 0.52055 0.30348 0.38794 0.0
C381 C 0.54633 0.25886 0.34418 0.0
H382 H 0.4724 0.23226 0.39745 0.0
C383 C 0.51422 0.1771 0.32847 0.0
C384 C 0.50913 0.16536 0.35503 0.0
C385 C 0.51615 0.19749 0.33103 0.0
C386 C 0.49364 0.23944 0.38282 0.0
H387 H 0.51649 0.32745 0.30603 0.0
H388 H 0.52027 0.29187 0.31061 0.0
H389 H 0.47625 0.26813 0.3981 0.0
H390 H 0.50118 0.16582 0.40513 0.0
H391 H 0.50507 0.20161 0.40973 0.0
H392 H 0.56383 0.23038 0.32879 0.0
C393 C 0.52024 0.30063 0.33169 0.0
C394 C 0.49583 0.25998 0.38321 0.0
C395 C 0.51789 0.32101 0.32908 0.0
C396 C 0.50502 0.17451 0.38422 0.0
C397 C 0.50718 0.195 0.38683 0.0
C398 C 0.54436 0.23839 0.34395 0.0
C399 C 0.52118 0.29162 0.36111 0.0
C400 C 0.52164 0.26988 0.36339 0.0
C401 C 0.51337 0.20671 0.36028 0.0
C402 C 0.51739 0.22842 0.36271 0.0
H403 H 0.51781 0.33277 0.40633 0.0
H404 H 0.52145 0.29691 0.4109 0.0
H405 H 0.56696 0.26609 0.32905 0.0
H406 H 0.51714 0.17054 0.30559 0.0
H407 H 0.5199 0.20604 0.30999 0.0
C408 C 0.39083 0.11455 0.29927 0.0
C409 C 0.40979 0.0963 0.29963 0.0
C410 C 0.35437 0.11641 0.28535 0.0
C411 C 0.29033 0.09047 0.22907 0.0
H412 H 0.2102 0.12412 0.26302 0.0
C413 C 0.1286 0.08128 0.20315 0.0
C414 C 0.10794 0.09805 0.19391 0.0
C415 C 0.16676 0.08287 0.2133 0.0
C416 C 0.23257 0.11488 0.25312 0.0
H417 H 0.40468 0.06552 0.28733 0.0
H418 H 0.34083 0.06854 0.26441 0.0
H419 H 0.27389 0.12322 0.28785 0.0
H420 H 0.11089 0.12963 0.18796 0.0
H421 H 0.17784 0.13244 0.20668 0.0
H422 H 0.24829 0.08145 0.19532 0.0
C423 C 0.3545 0.08163 0.2736 0.0
C424 C 0.26903 0.11436 0.26726 0.0
C425 C 0.39101 0.07984 0.28703 0.0
C426 C 0.12631 0.11646 0.19474 0.0
C427 C 0.16437 0.1181 0.20559 0.0
C428 C 0.25381 0.09078 0.2153 0.0
C429 C 0.33606 0.1 0.27189 0.0
C430 C 0.29813 0.10184 0.25575 0.0
C431 C 0.1848 0.10129 0.21499 0.0
C432 C 0.22448 0.10274 0.22749 0.0
H433 H 0.40477 0.12752 0.30865 0.0
H434 H 0.34113 0.13081 0.28433 0.0
H435 H 0.31232 0.0811 0.21896 0.0
H436 H 0.11517 0.06691 0.20268 0.0
H437 H 0.1819 0.06972 0.22063 0.0
C438 C 0.6271 0.3875 0.30157 0.0
C439 C 0.60647 0.40527 0.30223 0.0
C440 C 0.66391 0.38665 0.28808 0.0
C441 C 0.72667 0.41461 0.23335 0.0
H442 H 0.80752 0.3806 0.26511 0.0
C443 C 0.88815 0.42302 0.20368 0.0
C444 C 0.90783 0.40604 0.19395 0.0
C445 C 0.85034 0.42181 0.2148 0.0
C446 C 0.78498 0.38999 0.25586 0.0
H447 H 0.60887 0.43626 0.29094 0.0
H448 H 0.67354 0.43503 0.26886 0.0
H449 H 0.74431 0.38103 0.29062 0.0
H450 H 0.90343 0.37449 0.18808 0.0
H451 H 0.8372 0.37234 0.20841 0.0
H452 H 0.76811 0.42415 0.19947 0.0
C453 C 0.6609 0.42154 0.27747 0.0
C454 C 0.74876 0.39023 0.27038 0.0
C455 C 0.62394 0.42231 0.29042 0.0
C456 C 0.8888 0.38782 0.19523 0.0
C457 C 0.85114 0.38656 0.20701 0.0
C458 C 0.763 0.41459 0.21922 0.0
C459 C 0.68102 0.40363 0.27542 0.0
C460 C 0.71926 0.40272 0.25951 0.0
C461 C 0.83172 0.40356 0.21697 0.0
C462 C 0.79252 0.4024 0.2305 0.0
H463 H 0.61417 0.37409 0.31028 0.0
H464 H 0.67833 0.37257 0.28669 0.0
H465 H 0.70442 0.42401 0.22372 0.0
H466 H 0.90211 0.43726 0.20289 0.0
H467 H 0.83597 0.4351 0.22253 0.0
C468 C 0.12658 0.88713 0.80359 0.0
C469 C 0.10706 0.90523 0.80373 0.0
C470 C 0.16322 0.8855 0.78993 0.0
C471 C 0.22636 0.91157 0.73336 0.0
H472 H 0.30702 0.87798 0.76653 0.0
C473 C 0.38727 0.92006 0.70375 0.0
C474 C 0.40763 0.90311 0.69486 0.0
C475 C 0.34945 0.9187 0.71475 0.0
C476 C 0.2845 0.88721 0.75685 0.0
H477 H 0.11143 0.93602 0.79146 0.0
H478 H 0.17568 0.93342 0.76898 0.0
H479 H 0.24385 0.87908 0.7922 0.0
H480 H 0.40443 0.87143 0.69038 0.0
H481 H 0.33806 0.86904 0.71053 0.0
H482 H 0.26767 0.92031 0.69888 0.0
C483 C 0.16228 0.92027 0.77816 0.0
C484 C 0.24835 0.88785 0.77149 0.0
C485 C 0.12556 0.92182 0.79133 0.0
C486 C 0.38925 0.88474 0.69688 0.0
C487 C 0.35152 0.88334 0.70856 0.0
C488 C 0.26257 0.91113 0.71907 0.0
C489 C 0.18119 0.90201 0.77652 0.0
C490 C 0.21903 0.90031 0.76021 0.0
C491 C 0.33142 0.90034 0.71763 0.0
C492 C 0.29208 0.89916 0.73093 0.0
H493 H 0.11286 0.87406 0.81279 0.0
H494 H 0.1768 0.87119 0.78895 0.0
H495 H 0.20418 0.92089 0.72342 0.0
H496 H 0.4007 0.93441 0.70236 0.0
H497 H 0.33459 0.932 0.72181 0.0
C498 C 0.63038 0.57919 0.70341 0.0
C499 C 0.61044 0.59594 0.6931 0.0
C500 C 0.66846 0.58067 0.71384 0.0
C501 C 0.73483 0.61306 0.75237 0.0
H502 H 0.81439 0.57854 0.71985 0.0
C503 C 0.89333 0.61425 0.7975 0.0
C504 C 0.91276 0.59615 0.79857 0.0
C505 C 0.85666 0.6156 0.78384 0.0
C506 C 0.79244 0.5881 0.72954 0.0
H507 H 0.61457 0.62736 0.68558 0.0
H508 H 0.68127 0.62998 0.70476 0.0
H509 H 0.75025 0.57838 0.6964 0.0
H510 H 0.90835 0.56512 0.78785 0.0
H511 H 0.84406 0.56725 0.76545 0.0
H512 H 0.77628 0.62216 0.78649 0.0
C513 C 0.66734 0.61574 0.7043 0.0
C514 C 0.75586 0.58811 0.71588 0.0
C515 C 0.62942 0.6142 0.69319 0.0
C516 C 0.89427 0.57932 0.78697 0.0
C517 C 0.85751 0.5806 0.77383 0.0
C518 C 0.77133 0.61283 0.76644 0.0
C519 C 0.68706 0.59897 0.71475 0.0
C520 C 0.72665 0.6004 0.72741 0.0
C521 C 0.83857 0.59881 0.77139 0.0
C522 C 0.80041 0.6001 0.75549 0.0
H523 H 0.61648 0.56493 0.70353 0.0
H524 H 0.68309 0.56756 0.72197 0.0
H525 H 0.71254 0.62256 0.76177 0.0
H526 H 0.90708 0.62749 0.8061 0.0
H527 H 0.84306 0.62989 0.7822 0.0
C528 C 0.64639 0.90969 0.66779 0.0
C529 C 0.61374 0.90427 0.68519 0.0
C530 C 0.68247 0.91132 0.68228 0.0
C531 C 0.73298 0.92147 0.75253 0.0
H532 H 0.80598 0.88017 0.73226 0.0
C533 C 0.86868 0.90748 0.82739 0.0
C534 C 0.90244 0.90156 0.812 0.0
C535 C 0.83384 0.90892 0.811 0.0
C536 C 0.78641 0.89208 0.73782 0.0
H537 H 0.59327 0.89491 0.73048 0.0
H538 H 0.6561 0.89869 0.75619 0.0
H539 H 0.74495 0.88229 0.70406 0.0
H540 H 0.92623 0.89083 0.76859 0.0
H541 H 0.86622 0.89416 0.73951 0.0
H542 H 0.77446 0.93168 0.78575 0.0
C543 C 0.65356 0.90206 0.7316 0.0
C544 C 0.75143 0.89319 0.72172 0.0
C545 C 0.61774 0.90006 0.71701 0.0
C546 C 0.90067 0.89614 0.78056 0.0
C547 C 0.86609 0.89774 0.76409 0.0
C548 C 0.76833 0.92065 0.76825 0.0
C549 C 0.68615 0.90755 0.71427 0.0
C550 C 0.72436 0.90772 0.72926 0.0
C551 C 0.8322 0.90424 0.77903 0.0
C552 C 0.79528 0.90574 0.76142 0.0
H553 H 0.644 0.91247 0.64302 0.0
H554 H 0.70755 0.9153 0.66852 0.0
H555 H 0.71234 0.9328 0.75856 0.0
H556 H 0.86937 0.91117 0.85194 0.0
H557 H 0.80816 0.91345 0.82352 0.0
C558 C 0.37263 0.58904 0.67181 0.0
C559 C 0.40497 0.59762 0.68604 0.0
C560 C 0.33763 0.58776 0.68803 0.0
C561 C 0.27985 0.57781 0.74345 0.0
H562 H 0.23012 0.62747 0.76277 0.0
C563 C 0.14919 0.58992 0.82817 0.0
C564 C 0.11723 0.5982 0.81297 0.0
C565 C 0.18476 0.58858 0.81277 0.0
C566 C 0.24386 0.61354 0.75759 0.0
H567 H 0.42615 0.61278 0.72699 0.0
H568 H 0.36451 0.61108 0.75503 0.0
H569 H 0.29225 0.62725 0.73525 0.0
H570 H 0.09727 0.61278 0.77114 0.0
H571 H 0.15981 0.61096 0.74454 0.0
H572 H 0.23176 0.56415 0.7666 0.0
C573 C 0.36658 0.60476 0.73192 0.0
C574 C 0.27918 0.61342 0.74195 0.0
C575 C 0.40166 0.60565 0.71601 0.0
C576 C 0.12148 0.60589 0.78288 0.0
C577 C 0.15709 0.60495 0.7678 0.0
C578 C 0.24485 0.57795 0.7598 0.0
C579 C 0.33445 0.59572 0.7181 0.0
C580 C 0.29722 0.59557 0.73461 0.0
C581 C 0.18888 0.5962 0.78257 0.0
C582 C 0.22656 0.59583 0.76669 0.0
H583 H 0.37462 0.58313 0.64842 0.0
H584 H 0.31288 0.58095 0.67694 0.0
H585 H 0.29354 0.56392 0.738 0.0
H586 H 0.14644 0.58427 0.85165 0.0
H587 H 0.20919 0.58198 0.8246 0.0
C588 C 0.61901 0.10405 0.28527 0.0
C589 C 0.61425 0.0962 0.31521 0.0
C590 C 0.65481 0.10306 0.27049 0.0
C591 C 0.74221 0.11181 0.26263 0.0
H592 H 0.79059 0.06255 0.23901 0.0
C593 C 0.89926 0.10517 0.21923 0.0
C594 C 0.90236 0.09753 0.189 0.0
C595 C 0.86445 0.10381 0.23545 0.0
C596 C 0.77727 0.07634 0.24561 0.0
H597 H 0.64273 0.08189 0.3539 0.0
H598 H 0.70582 0.07953 0.32735 0.0
H599 H 0.72848 0.06229 0.26722 0.0
H600 H 0.8719 0.08324 0.15125 0.0
H601 H 0.81067 0.08025 0.18025 0.0
H602 H 0.79112 0.1259 0.24173 0.0
C603 C 0.68163 0.08628 0.31541 0.0
C604 C 0.74209 0.07619 0.26173 0.0
C605 C 0.64586 0.08766 0.33052 0.0
C606 C 0.87009 0.08883 0.17484 0.0
C607 C 0.83538 0.08709 0.19135 0.0
C608 C 0.77766 0.11195 0.24721 0.0
C609 C 0.68628 0.09412 0.2854 0.0
C610 C 0.72425 0.09395 0.27001 0.0
C611 C 0.83236 0.0947 0.22167 0.0
C612 C 0.79524 0.09425 0.23837 0.0
H613 H 0.59509 0.11115 0.27346 0.0
H614 H 0.65798 0.10926 0.24738 0.0
H615 H 0.72878 0.12565 0.26889 0.0
H616 H 0.92368 0.11239 0.23017 0.0
H617 H 0.86254 0.10987 0.25875 0.0
C618 C 0.14707 0.40876 0.16876 0.0
C619 C 0.11366 0.40401 0.1857 0.0
C620 C 0.18296 0.40955 0.18371 0.0
C621 C 0.23268 0.41842 0.25477 0.0
H622 H 0.30366 0.37627 0.23424 0.0
C623 C 0.36849 0.40361 0.3289 0.0
C624 C 0.40205 0.39786 0.31308 0.0
C625 C 0.33328 0.40477 0.31298 0.0
C626 C 0.28464 0.38838 0.23991 0.0
H627 H 0.09153 0.39496 0.23064 0.0
H628 H 0.15409 0.39732 0.25718 0.0
H629 H 0.24299 0.3794 0.20572 0.0
H630 H 0.42511 0.38691 0.26956 0.0
H631 H 0.36441 0.38968 0.2413 0.0
H632 H 0.27442 0.42789 0.28829 0.0
C633 C 0.15233 0.40079 0.23259 0.0
C634 C 0.24988 0.39007 0.22363 0.0
C635 C 0.11667 0.39963 0.21753 0.0
C636 C 0.39968 0.3921 0.28181 0.0
C637 C 0.36471 0.39338 0.26583 0.0
C638 C 0.26783 0.41701 0.27066 0.0
C639 C 0.18569 0.4056 0.21571 0.0
C640 C 0.22358 0.40497 0.23119 0.0
C641 C 0.33109 0.39996 0.28108 0.0
C642 C 0.29407 0.40181 0.2637 0.0
H643 H 0.14541 0.41166 0.14398 0.0
H644 H 0.20862 0.41303 0.17031 0.0
H645 H 0.21263 0.43001 0.26084 0.0
H646 H 0.36967 0.40754 0.35334 0.0
H647 H 0.30781 0.40933 0.32575 0.0
C648 C 0.99071 0.06058 0.07249 0.0
C649 C 0.00825 0.05618 0.10114 0.0
C650 C 0.99192 0.04706 0.04795 0.0
C651 C 0.01177 0.99402 0.03181 0.0
H652 H 0.01041 0.01195 0.94621 0.0
C653 C 0.99016 0.94011 0.92905 0.0
C654 C 0.00735 0.94464 0.90032 0.0
C655 C 0.99163 0.95354 0.95373 0.0
C656 C 0.01145 0.00658 0.96993 0.0
H657 H 0.04215 0.03461 0.12623 0.0
H658 H 0.04621 0.01155 0.08307 0.0
H659 H 0.01265 0.03578 0.98804 0.0
H660 H 0.04102 0.96629 0.87522 0.0
H661 H 0.04554 0.98917 0.91853 0.0
H662 H 0.01278 0.96481 0.01367 0.0
C663 C 0.03002 0.02499 0.07974 0.0
C664 C 0.01197 0.02036 0.99408 0.0
C665 C 0.02804 0.0383 0.10447 0.0
C666 C 0.02712 0.96252 0.89704 0.0
C667 C 0.02937 0.97573 0.92186 0.0
C668 C 0.01205 0.98024 0.00765 0.0
C669 C 0.01145 0.029 0.05125 0.0
C670 C 0.01188 0.0143 0.0254 0.0
C671 C 0.01107 0.97163 0.95043 0.0
C672 C 0.01165 0.9863 0.97632 0.0
H673 H 0.97488 0.07417 0.0694 0.0
H674 H 0.97664 0.05063 0.02668 0.0
H675 H 0.01098 0.98867 0.05553 0.0
H676 H 0.97441 0.9265 0.93212 0.0
H677 H 0.9766 0.9499 0.97508 0.0
C678 C 0.98852 0.53762 0.89258 0.0
C679 C 0.00759 0.55565 0.89649 0.0
C680 C 0.98561 0.52438 0.91732 0.0
C681 C -0.00021 0.52016 0.00353 0.0
H682 H 0.00224 0.46457 0.98429 0.0
C683 C 0.98569 0.46261 0.10084 0.0
C684 C 0.00665 0.44505 0.09798 0.0
C685 C 0.98296 0.47561 0.07581 0.0
C686 C 0.00204 0.48002 0.99022 0.0
H687 H 0.0387 0.574 0.92921 0.0
H688 H 0.03543 0.5506 0.97195 0.0
H689 H 0.00445 0.48829 0.94233 0.0
H690 H 0.04115 0.42723 0.06678 0.0
H691 H 0.03821 0.45032 0.02349 0.0
H692 H 0.00015 0.51194 0.05145 0.0
C693 C 0.02134 0.54685 0.95023 0.0
C694 C 0.00254 0.49371 0.96599 0.0
C695 C 0.02344 0.56028 0.92567 0.0
C696 C 0.0245 0.4406 0.06948 0.0
C697 C 0.02258 0.45384 0.04462 0.0
C698 C 0.00013 0.50648 0.02776 0.0
C699 C 0.00255 0.52864 0.94638 0.0
C700 C 0.00139 0.51401 0.97227 0.0
C701 C 0.002 0.47163 0.0475 0.0
C702 C 0.00118 0.48619 0.0215 0.0
H703 H 0.97571 0.53375 0.87037 0.0
H704 H 0.97002 0.51081 0.91353 0.0
H705 H -0.00179 0.53559 0.00946 0.0
H706 H 0.97126 0.46629 0.12249 0.0
H707 H 0.9659 0.48881 0.0788 0.0
C708 C 0.50853 0.43699 0.42903 0.0
C709 C 0.50473 0.44394 0.39832 0.0
C710 C 0.5109 0.45015 0.45402 0.0
C711 C 0.5329 0.50203 0.47309 0.0
H712 H 0.47344 0.49144 0.54779 0.0
C713 C 0.50862 0.56019 0.56975 0.0
C714 C 0.50946 0.55365 0.60082 0.0
C715 C 0.50995 0.54672 0.54511 0.0
C716 C 0.49063 0.49451 0.52726 0.0
H717 H 0.50059 0.47031 0.37001 0.0
H718 H 0.50443 0.49306 0.41345 0.0
H719 H 0.47271 0.46787 0.50507 0.0
H720 H 0.51329 0.52772 0.63017 0.0
H721 H 0.51611 0.50445 0.58736 0.0
H722 H 0.55066 0.52873 0.49525 0.0
C723 C 0.50608 0.47746 0.4182 0.0
C724 C 0.49021 0.48098 0.50278 0.0
C725 C 0.50364 0.46435 0.39327 0.0
C726 C 0.51235 0.53336 0.60659 0.0
C727 C 0.51372 0.51995 0.58201 0.0
C728 C 0.53334 0.51557 0.4976 0.0
C729 C 0.50963 0.47054 0.44888 0.0
C730 C 0.51121 0.48461 0.47535 0.0
C731 C 0.51217 0.52643 0.55098 0.0
C732 C 0.51212 0.51199 0.52495 0.0
H733 H 0.50954 0.42139 0.43382 0.0
H734 H 0.51401 0.44436 0.47738 0.0
H735 H 0.54982 0.50514 0.45243 0.0
H736 H 0.5063 0.57568 0.5644 0.0
H737 H 0.50832 0.55219 0.52146 0.0
C738 C 0.48192 0.96063 0.60147 0.0
C739 C 0.50354 0.94328 0.59855 0.0
C740 C 0.4786 0.9736 0.57644 0.0
C741 C 0.49758 0.97834 0.49084 0.0
H742 H 0.49238 0.03384 0.51043 0.0
C743 C 0.48404 0.03619 0.39349 0.0
C744 C 0.50287 0.05427 0.39767 0.0
C745 C 0.48098 0.02287 0.4181 0.0
C746 C 0.49434 0.01843 0.5044 0.0
H747 H 0.53853 0.92578 0.56725 0.0
H748 H 0.53454 0.94884 0.52396 0.0
H749 H 0.49462 0.0101 0.55226 0.0
H750 H 0.53339 0.0726 0.43078 0.0
H751 H 0.52985 0.04907 0.47331 0.0
H752 H 0.50009 0.98676 0.443 0.0
C753 C 0.51886 0.95221 0.54513 0.0
C754 C 0.49484 0.0047 0.52855 0.0
C755 C 0.52138 0.93899 0.56999 0.0
C756 C 0.51831 0.05885 0.42702 0.0
C757 C 0.51605 0.04535 0.45146 0.0
C758 C 0.49791 0.9921 0.46669 0.0
C759 C 0.49769 0.96982 0.54808 0.0
C760 C 0.49644 0.98443 0.52216 0.0
C761 C 0.49753 0.02709 0.44733 0.0
C762 C 0.49631 0.01237 0.4731 0.0
H763 H 0.46749 0.96419 0.62317 0.0
H764 H 0.4611 0.98665 0.57949 0.0
H765 H 0.4982 0.96291 0.48481 0.0
H766 H 0.47156 0.03235 0.37115 0.0
H767 H 0.46562 0.00925 0.4141 0.0
loop_
_geom_bond_atom_site_label_1
_geom_bond_atom_site_label_2
_geom_bond_distance
_geom_bond_site_symmetry_2
_ccdc_geom_bond_type
Mn0 O5 2.095 . S
Mn0 O15 2.162 . S
Mn0 O16 2.297 . S
Mn0 O24 2.385 1_455 S
Mn0 O25 2.209 1_455 S
Mn0 O26 2.094 . S
Mn1 O6 2.121 . S
Mn1 N8 2.257 1_455 S
Mn1 N17 2.282 1_455 S
Mn1 O25 2.215 1_455 S
Mn1 O27 2.117 . S
C2 O24 1.234 . S
C2 O25 1.283 . S
C3 O15 1.281 . S
C3 O16 1.236 . S
C4 O26 1.240 . S
C4 O27 1.264 . S
O5 Mn0 2.095 . S
O5 C14 1.250 . S
O6 Mn1 2.121 . S
O6 C14 1.258 . S
C7 N8 1.326 1_455 S
C7 C11 1.460 . S
C7 H13 0.929 . S
N8 Mn1 2.257 1_655 S
N8 C7 1.326 1_655 S
N8 C12 1.362 . S
C9 C10 1.258 . S
C9 C12 1.431 . S
C9 C29 1.449 . S
C10 C9 1.258 . S
C10 C11 1.477 1_655 S
C10 H30 0.931 . S
C11 C7 1.460 . S
C11 C10 1.477 1_455 S
C11 H31 0.930 . S
C12 N8 1.362 . S
C12 C9 1.431 . S
C12 C22 1.476 . S
H13 C7 0.929 . S
C14 O5 1.250 . S
C14 O6 1.258 . S
O15 Mn0 2.162 . S
O15 C3 1.281 . S
O16 Mn0 2.297 . S
O16 C3 1.236 . S
N17 Mn1 2.282 1_655 S
N17 C18 1.328 . S
N17 C22 1.318 . S
C18 N17 1.328 . S
C18 C19 1.457 . S
C18 H23 0.929 . S
C19 C18 1.457 . S
C19 C20 1.291 . S
C19 H32 0.931 . S
C20 C19 1.291 . S
C20 C21 1.373 . S
C20 H33 0.929 . S
C21 C20 1.373 . S
C21 C22 1.396 . S
C21 C28 1.403 . S
C22 C12 1.476 . S
C22 N17 1.318 . S
C22 C21 1.396 . S
H23 C18 0.929 . S
O24 Mn0 2.385 1_655 S
O24 C2 1.234 . S
O25 Mn0 2.209 1_655 S
O25 Mn1 2.215 1_655 S
O25 C2 1.283 . S
O26 Mn0 2.094 . S
O26 C4 1.240 . S
O27 Mn1 2.117 . S
O27 C4 1.264 . S
C28 C21 1.403 . S
C28 C29 1.399 . S
C28 H34 0.929 . S
C29 C9 1.449 . S
C29 C28 1.399 . S
C29 H35 0.930 . S
H30 C10 0.931 . S
H31 C11 0.930 . S
H32 C19 0.931 . S
H33 C20 0.929 . S
H34 C28 0.929 . S
H35 C29 0.930 . S
Mn36 O41 2.095 1_455 S
Mn36 O51 2.162 . S
Mn36 O52 2.297 . S
Mn36 O60 2.385 . S
Mn36 O61 2.209 . S
Mn36 O62 2.094 . S
Mn37 O42 2.121 1_455 S
Mn37 N44 2.257 . S
Mn37 N53 2.282 . S
Mn37 O61 2.215 . S
Mn37 O63 2.117 . S
C38 O60 1.234 . S
C38 O61 1.283 . S
C39 O51 1.281 . S
C39 O52 1.236 . S
C40 O62 1.240 . S
C40 O63 1.264 . S
O41 Mn36 2.095 1_655 S
O41 C50 1.250 . S
O42 Mn37 2.121 1_655 S
O42 C50 1.258 . S
C43 N44 1.326 . S
C43 C47 1.460 . S
C43 H49 0.929 1_455 S
N44 Mn37 2.257 . S
N44 C43 1.326 . S
N44 C48 1.362 . S
C45 C46 1.258 . S
C45 C48 1.431 . S
C45 C65 1.449 . S
C46 C45 1.258 . S
C46 C47 1.477 . S
C46 H66 0.931 . S
C47 C43 1.460 . S
C47 C46 1.477 . S
C47 H67 0.930 . S
C48 N44 1.362 . S
C48 C45 1.431 . S
C48 C58 1.476 . S
H49 C43 0.929 1_655 S
C50 O41 1.250 . S
C50 O42 1.258 . S
O51 Mn36 2.162 . S
O51 C39 1.281 . S
O52 Mn36 2.297 . S
O52 C39 1.236 . S
N53 Mn37 2.282 . S
N53 C54 1.328 . S
N53 C58 1.318 . S
C54 N53 1.328 . S
C54 C55 1.457 . S
C54 H59 0.929 . S
C55 C54 1.457 . S
C55 C56 1.291 . S
C55 H68 0.931 . S
C56 C55 1.291 . S
C56 C57 1.373 . S
C56 H69 0.929 . S
C57 C56 1.373 . S
C57 C58 1.396 . S
C57 C64 1.403 . S
C58 C48 1.476 . S
C58 N53 1.318 . S
C58 C57 1.396 . S
H59 C54 0.929 . S
O60 Mn36 2.385 . S
O60 C38 1.234 . S
O61 Mn36 2.209 . S
O61 Mn37 2.215 . S
O61 C38 1.283 . S
O62 Mn36 2.094 . S
O62 C40 1.240 . S
O63 Mn37 2.117 . S
O63 C40 1.264 . S
C64 C57 1.403 . S
C64 C65 1.399 . S
C64 H70 0.929 . S
C65 C45 1.449 . S
C65 C64 1.399 . S
C65 H71 0.930 . S
H66 C46 0.931 . S
H67 C47 0.930 . S
H68 C55 0.931 . S
H69 C56 0.929 . S
H70 C64 0.929 . S
H71 C65 0.930 . S
Mn72 O77 2.095 . S
Mn72 O87 2.162 . S
Mn72 O88 2.297 . S
Mn72 O96 2.385 1_455 S
Mn72 O97 2.209 1_455 S
Mn72 O98 2.094 . S
Mn73 O78 2.121 . S
Mn73 N80 2.257 1_455 S
Mn73 N89 2.282 1_455 S
Mn73 O97 2.215 1_455 S
Mn73 O99 2.117 . S
C74 O96 1.234 . S
C74 O97 1.283 . S
C75 O87 1.281 . S
C75 O88 1.236 . S
C76 O98 1.240 . S
C76 O99 1.264 . S
O77 Mn72 2.095 . S
O77 C86 1.250 . S
O78 Mn73 2.121 . S
O78 C86 1.258 . S
C79 N80 1.326 1_455 S
C79 C83 1.460 . S
C79 H85 0.929 . S
N80 Mn73 2.257 1_655 S
N80 C79 1.326 1_655 S
N80 C84 1.362 . S
C81 C82 1.258 . S
C81 C84 1.431 . S
C81 C101 1.449 . S
C82 C81 1.258 . S
C82 C83 1.477 1_655 S
C82 H102 0.931 . S
C83 C79 1.460 . S
C83 C82 1.477 1_455 S
C83 H103 0.930 . S
C84 N80 1.362 . S
C84 C81 1.431 . S
C84 C94 1.476 . S
H85 C79 0.929 . S
C86 O77 1.250 . S
C86 O78 1.258 . S
O87 Mn72 2.162 . S
O87 C75 1.281 . S
O88 Mn72 2.297 . S
O88 C75 1.236 . S
N89 Mn73 2.282 1_655 S
N89 C90 1.328 . S
N89 C94 1.318 . S
C90 N89 1.328 . S
C90 C91 1.457 . S
C90 H95 0.929 . S
C91 C90 1.457 . S
C91 C92 1.291 . S
C91 H104 0.931 . S
C92 C91 1.291 . S
C92 C93 1.373 . S
C92 H105 0.929 . S
C93 C92 1.373 . S
C93 C94 1.396 . S
C93 C100 1.403 . S
C94 C84 1.476 . S
C94 N89 1.318 . S
C94 C93 1.396 . S
H95 C90 0.929 . S
O96 Mn72 2.385 1_655 S
O96 C74 1.234 . S
O97 Mn72 2.209 1_655 S
O97 Mn73 2.215 1_655 S
O97 C74 1.283 . S
O98 Mn72 2.094 . S
O98 C76 1.240 . S
O99 Mn73 2.117 . S
O99 C76 1.264 . S
C100 C93 1.403 . S
C100 C101 1.399 . S
C100 H106 0.929 . S
C101 C81 1.449 . S
C101 C100 1.399 . S
C101 H107 0.930 . S
H102 C82 0.931 . S
H103 C83 0.930 . S
H104 C91 0.931 . S
H105 C92 0.929 . S
H106 C100 0.929 . S
H107 C101 0.930 . S
Mn108 O113 2.095 1_455 S
Mn108 O123 2.162 . S
Mn108 O124 2.297 . S
Mn108 O132 2.385 . S
Mn108 O133 2.209 . S
Mn108 O134 2.094 . S
Mn109 O114 2.121 1_455 S
Mn109 N116 2.257 . S
Mn109 N125 2.282 . S
Mn109 O133 2.215 . S
Mn109 O135 2.117 . S
C110 O132 1.234 . S
C110 O133 1.283 . S
C111 O123 1.281 . S
C111 O124 1.236 . S
C112 O134 1.240 . S
C112 O135 1.264 . S
O113 Mn108 2.095 1_655 S
O113 C122 1.250 . S
O114 Mn109 2.121 1_655 S
O114 C122 1.258 . S
C115 N116 1.326 . S
C115 C119 1.460 . S
C115 H121 0.929 1_455 S
N116 Mn109 2.257 . S
N116 C115 1.326 . S
N116 C120 1.362 . S
C117 C118 1.258 . S
C117 C120 1.431 . S
C117 C137 1.449 . S
C118 C117 1.258 . S
C118 C119 1.477 . S
C118 H138 0.931 . S
C119 C115 1.460 . S
C119 C118 1.477 . S
C119 H139 0.930 . S
C120 N116 1.362 . S
C120 C117 1.431 . S
C120 C130 1.476 . S
H121 C115 0.929 1_655 S
C122 O113 1.250 . S
C122 O114 1.258 . S
O123 Mn108 2.162 . S
O123 C111 1.281 . S
O124 Mn108 2.297 . S
O124 C111 1.236 . S
N125 Mn109 2.282 . S
N125 C126 1.328 . S
N125 C130 1.318 . S
C126 N125 1.328 . S
C126 C127 1.457 . S
C126 H131 0.929 . S
C127 C126 1.457 . S
C127 C128 1.291 . S
C127 H140 0.931 . S
C128 C127 1.291 . S
C128 C129 1.373 . S
C128 H141 0.929 . S
C129 C128 1.373 . S
C129 C130 1.396 . S
C129 C136 1.403 . S
C130 C120 1.476 . S
C130 N125 1.318 . S
C130 C129 1.396 . S
H131 C126 0.929 . S
O132 Mn108 2.385 . S
O132 C110 1.234 . S
O133 Mn108 2.209 . S
O133 Mn109 2.215 . S
O133 C110 1.283 . S
O134 Mn108 2.094 . S
O134 C112 1.240 . S
O135 Mn109 2.117 . S
O135 C112 1.264 . S
C136 C129 1.403 . S
C136 C137 1.399 . S
C136 H142 0.929 . S
C137 C117 1.449 . S
C137 C136 1.399 . S
C137 H143 0.930 . S
H138 C118 0.931 . S
H139 C119 0.930 . S
H140 C127 0.931 . S
H141 C128 0.929 . S
H142 C136 0.929 . S
H143 C137 0.930 . S
Mn144 O149 2.095 . S
Mn144 O159 2.162 . S
Mn144 O160 2.297 . S
Mn144 O168 2.385 . S
Mn144 O169 2.209 . S
Mn144 O170 2.094 . S
Mn145 O150 2.121 . S
Mn145 N152 2.257 . S
Mn145 N161 2.282 . S
Mn145 O169 2.215 . S
Mn145 O171 2.117 . S
C146 O168 1.234 . S
C146 O169 1.283 . S
C147 O159 1.281 . S
C147 O160 1.236 . S
C148 O170 1.240 . S
C148 O171 1.264 . S
O149 Mn144 2.095 . S
O149 C158 1.250 . S
O150 Mn145 2.121 . S
O150 C158 1.258 . S
C151 N152 1.326 . S
C151 C155 1.460 . S
C151 H157 0.929 . S
N152 Mn145 2.257 . S
N152 C151 1.326 . S
N152 C156 1.362 . S
C153 C154 1.258 . S
C153 C156 1.431 . S
C153 C173 1.449 . S
C154 C153 1.258 . S
C154 C155 1.477 . S
C154 H174 0.931 . S
C155 C151 1.460 . S
C155 C154 1.477 . S
C155 H175 0.930 . S
C156 N152 1.362 . S
C156 C153 1.431 . S
C156 C166 1.476 . S
H157 C151 0.929 . S
C158 O149 1.250 . S
C158 O150 1.258 . S
O159 Mn144 2.162 . S
O159 C147 1.281 . S
O160 Mn144 2.297 . S
O160 C147 1.236 . S
N161 Mn145 2.282 . S
N161 C162 1.328 . S
N161 C166 1.318 . S
C162 N161 1.328 . S
C162 C163 1.457 . S
C162 H167 0.929 . S
C163 C162 1.457 . S
C163 C164 1.291 . S
C163 H176 0.931 . S
C164 C163 1.291 . S
C164 C165 1.373 . S
C164 H177 0.929 . S
C165 C164 1.373 . S
C165 C166 1.396 . S
C165 C172 1.403 . S
C166 C156 1.476 . S
C166 N161 1.318 . S
C166 C165 1.396 . S
H167 C162 0.929 . S
O168 Mn144 2.385 . S
O168 C146 1.234 . S
O169 Mn144 2.209 . S
O169 Mn145 2.215 . S
O169 C146 1.283 . S
O170 Mn144 2.094 . S
O170 C148 1.240 . S
O171 Mn145 2.117 . S
O171 C148 1.264 . S
C172 C165 1.403 . S
C172 C173 1.399 . S
C172 H178 0.929 . S
C173 C153 1.449 . S
C173 C172 1.399 . S
C173 H179 0.930 . S
H174 C154 0.931 . S
H175 C155 0.930 . S
H176 C163 0.931 . S
H177 C164 0.929 . S
H178 C172 0.929 . S
H179 C173 0.930 . S
Mn180 O185 2.095 . S
Mn180 O195 2.162 . S
Mn180 O196 2.297 . S
Mn180 O204 2.385 . S
Mn180 O205 2.209 . S
Mn180 O206 2.094 . S
Mn181 O186 2.121 . S
Mn181 N188 2.257 . S
Mn181 N197 2.282 . S
Mn181 O205 2.215 . S
Mn181 O207 2.117 . S
C182 O204 1.234 . S
C182 O205 1.283 . S
C183 O195 1.281 . S
C183 O196 1.236 . S
C184 O206 1.240 . S
C184 O207 1.264 . S
O185 Mn180 2.095 . S
O185 C194 1.250 . S
O186 Mn181 2.121 . S
O186 C194 1.258 . S
C187 N188 1.326 . S
C187 C191 1.460 . S
C187 H193 0.929 . S
N188 Mn181 2.257 . S
N188 C187 1.326 . S
N188 C192 1.362 . S
C189 C190 1.258 . S
C189 C192 1.431 . S
C189 C209 1.449 . S
C190 C189 1.258 . S
C190 C191 1.477 . S
C190 H210 0.931 . S
C191 C187 1.460 . S
C191 C190 1.477 . S
C191 H211 0.930 . S
C192 N188 1.362 . S
C192 C189 1.431 . S
C192 C202 1.476 . S
H193 C187 0.929 . S
C194 O185 1.250 . S
C194 O186 1.258 . S
O195 Mn180 2.162 . S
O195 C183 1.281 . S
O196 Mn180 2.297 . S
O196 C183 1.236 . S
N197 Mn181 2.282 . S
N197 C198 1.328 . S
N197 C202 1.318 . S
C198 N197 1.328 . S
C198 C199 1.457 . S
C198 H203 0.929 . S
C199 C198 1.457 . S
C199 C200 1.291 . S
C199 H212 0.931 . S
C200 C199 1.291 . S
C200 C201 1.373 . S
C200 H213 0.929 . S
C201 C200 1.373 . S
C201 C202 1.396 . S
C201 C208 1.403 . S
C202 C192 1.476 . S
C202 N197 1.318 . S
C202 C201 1.396 . S
H203 C198 0.929 . S
O204 Mn180 2.385 . S
O204 C182 1.234 . S
O205 Mn180 2.209 . S
O205 Mn181 2.215 . S
O205 C182 1.283 . S
O206 Mn180 2.094 . S
O206 C184 1.240 . S
O207 Mn181 2.117 . S
O207 C184 1.264 . S
C208 C201 1.403 . S
C208 C209 1.399 . S
C208 H214 0.929 . S
C209 C189 1.449 . S
C209 C208 1.399 . S
C209 H215 0.930 . S
H210 C190 0.931 . S
H211 C191 0.930 . S
H212 C199 0.931 . S
H213 C200 0.929 . S
H214 C208 0.929 . S
H215 C209 0.930 . S
Mn216 O221 2.095 . S
Mn216 O231 2.162 . S
Mn216 O232 2.297 . S
Mn216 O240 2.385 . S
Mn216 O241 2.209 . S
Mn216 O242 2.094 . S
Mn217 O222 2.121 . S
Mn217 N224 2.257 . S
Mn217 N233 2.282 . S
Mn217 O241 2.215 . S
Mn217 O243 2.117 . S
C218 O240 1.234 . S
C218 O241 1.283 . S
C219 O231 1.281 . S
C219 O232 1.236 . S
C220 O242 1.240 . S
C220 O243 1.264 . S
O221 Mn216 2.095 . S
O221 C230 1.250 . S
O222 Mn217 2.121 . S
O222 C230 1.258 . S
C223 N224 1.326 . S
C223 C227 1.460 . S
C223 H229 0.929 . S
N224 Mn217 2.257 . S
N224 C223 1.326 . S
N224 C228 1.362 . S
C225 C226 1.258 . S
C225 C228 1.431 . S
C225 C245 1.449 . S
C226 C225 1.258 . S
C226 C227 1.477 . S
C226 H246 0.931 . S
C227 C223 1.460 . S
C227 C226 1.477 . S
C227 H247 0.930 . S
C228 N224 1.362 . S
C228 C225 1.431 . S
C228 C238 1.476 . S
H229 C223 0.929 . S
C230 O221 1.250 . S
C230 O222 1.258 . S
O231 Mn216 2.162 . S
O231 C219 1.281 . S
O232 Mn216 2.297 . S
O232 C219 1.236 . S
N233 Mn217 2.282 . S
N233 C234 1.328 . S
N233 C238 1.318 . S
C234 N233 1.328 . S
C234 C235 1.457 . S
C234 H239 0.929 . S
C235 C234 1.457 . S
C235 C236 1.291 . S
C235 H248 0.931 . S
C236 C235 1.291 . S
C236 C237 1.373 . S
C236 H249 0.929 . S
C237 C236 1.373 . S
C237 C238 1.396 . S
C237 C244 1.403 . S
C238 C228 1.476 . S
C238 N233 1.318 . S
C238 C237 1.396 . S
H239 C234 0.929 . S
O240 Mn216 2.385 . S
O240 C218 1.234 . S
O241 Mn216 2.209 . S
O241 Mn217 2.215 . S
O241 C218 1.283 . S
O242 Mn216 2.094 . S
O242 C220 1.240 . S
O243 Mn217 2.117 . S
O243 C220 1.264 . S
C244 C237 1.403 . S
C244 C245 1.399 . S
C244 H250 0.929 . S
C245 C225 1.449 . S
C245 C244 1.399 . S
C245 H251 0.930 . S
H246 C226 0.931 . S
H247 C227 0.930 . S
H248 C235 0.931 . S
H249 C236 0.929 . S
H250 C244 0.929 . S
H251 C245 0.930 . S
Mn252 O257 2.095 . S
Mn252 O267 2.162 . S
Mn252 O268 2.297 . S
Mn252 O276 2.385 . S
Mn252 O277 2.209 . S
Mn252 O278 2.094 . S
Mn253 O258 2.121 . S
Mn253 N260 2.257 . S
Mn253 N269 2.282 . S
Mn253 O277 2.215 . S
Mn253 O279 2.117 . S
C254 O276 1.234 . S
C254 O277 1.283 . S
C255 O267 1.281 . S
C255 O268 1.236 . S
C256 O278 1.240 . S
C256 O279 1.264 . S
O257 Mn252 2.095 . S
O257 C266 1.250 . S
O258 Mn253 2.121 . S
O258 C266 1.258 . S
C259 N260 1.326 . S
C259 C263 1.460 . S
C259 H265 0.929 . S
N260 Mn253 2.257 . S
N260 C259 1.326 . S
N260 C264 1.362 . S
C261 C262 1.258 . S
C261 C264 1.431 . S
C261 C281 1.449 . S
C262 C261 1.258 . S
C262 C263 1.477 . S
C262 H282 0.931 . S
C263 C259 1.460 . S
C263 C262 1.477 . S
C263 H283 0.930 . S
C264 N260 1.362 . S
C264 C261 1.431 . S
C264 C274 1.476 . S
H265 C259 0.929 . S
C266 O257 1.250 . S
C266 O258 1.258 . S
O267 Mn252 2.162 . S
O267 C255 1.281 . S
O268 Mn252 2.297 . S
O268 C255 1.236 . S
N269 Mn253 2.282 . S
N269 C270 1.328 . S
N269 C274 1.318 . S
C270 N269 1.328 . S
C270 C271 1.457 . S
C270 H275 0.929 . S
C271 C270 1.457 . S
C271 C272 1.291 . S
C271 H284 0.931 . S
C272 C271 1.291 . S
C272 C273 1.373 . S
C272 H285 0.929 . S
C273 C272 1.373 . S
C273 C274 1.396 . S
C273 C280 1.403 . S
C274 C264 1.476 . S
C274 N269 1.318 . S
C274 C273 1.396 . S
H275 C270 0.929 . S
O276 Mn252 2.385 . S
O276 C254 1.234 . S
O277 Mn252 2.209 . S
O277 Mn253 2.215 . S
O277 C254 1.283 . S
O278 Mn252 2.094 . S
O278 C256 1.240 . S
O279 Mn253 2.117 . S
O279 C256 1.264 . S
C280 C273 1.403 . S
C280 C281 1.399 . S
C280 H286 0.929 . S
C281 C261 1.449 . S
C281 C280 1.399 . S
C281 H287 0.930 . S
H282 C262 0.931 . S
H283 C263 0.930 . S
H284 C271 0.931 . S
H285 C272 0.929 . S
H286 C280 0.929 . S
H287 C281 0.930 . S
C288 C289 1.349 1_655 S
C288 C290 1.327 . S
C288 H313 0.950 . S
C289 C288 1.349 1_455 S
C289 C305 1.349 . S
C290 C288 1.327 . S
C290 C309 1.429 1_655 S
C290 H314 0.950 . S
C291 C308 1.574 . S
C291 C310 1.368 . S
C291 H315 0.949 . S
H292 C296 0.949 . S
C293 C294 1.349 . S
C293 C295 1.327 . S
C293 H316 0.950 . S
C294 C293 1.349 . S
C294 C306 1.349 1_455 S
C295 C293 1.327 . S
C295 C311 1.429 . S
C295 H317 0.950 . S
C296 H292 0.949 . S
C296 C304 1.574 . S
C296 C312 1.368 1_655 S
H297 C305 0.950 . S
H298 C303 0.950 . S
H299 C304 0.949 . S
H300 C306 0.950 . S
H301 C307 0.950 . S
H302 C308 0.949 . S
C303 H298 0.950 . S
C303 C305 1.327 . S
C303 C309 1.429 . S
C304 C296 1.574 . S
C304 H299 0.949 . S
C304 C310 1.368 1_655 S
C305 C289 1.349 . S
C305 H297 0.950 . S
C305 C303 1.327 . S
C306 C294 1.349 1_655 S
C306 H300 0.950 . S
C306 C307 1.327 . S
C307 H301 0.950 . S
C307 C306 1.327 . S
C307 C311 1.429 1_655 S
C308 C291 1.574 . S
C308 H302 0.949 . S
C308 C312 1.368 . S
C309 C290 1.429 1_455 S
C309 C303 1.429 . S
C309 C310 1.523 . S
C310 C291 1.368 . S
C310 C304 1.368 1_455 S
C310 C309 1.523 . S
C311 C295 1.429 . S
C311 C307 1.429 1_455 S
C311 C312 1.523 . S
C312 C296 1.368 1_455 S
C312 C308 1.368 . S
C312 C311 1.523 . S
H313 C288 0.950 . S
H314 C290 0.950 . S
H315 C291 0.949 . S
H316 C293 0.950 . S
H317 C295 0.950 . S
C318 C319 1.349 1_655 S
C318 C320 1.327 . S
C318 H343 0.950 . S
C319 C318 1.349 1_455 S
C319 C335 1.349 . S
C320 C318 1.327 . S
C320 C339 1.429 1_655 S
C320 H344 0.950 . S
C321 C338 1.574 . S
C321 C340 1.368 . S
C321 H345 0.949 . S
H322 C326 0.949 . S
C323 C324 1.349 . S
C323 C325 1.327 . S
C323 H346 0.950 . S
C324 C323 1.349 . S
C324 C336 1.349 1_455 S
C325 C323 1.327 . S
C325 C341 1.429 . S
C325 H347 0.950 . S
C326 H322 0.949 . S
C326 C334 1.574 . S
C326 C342 1.368 1_655 S
H327 C335 0.950 . S
H328 C333 0.950 . S
H329 C334 0.949 . S
H330 C336 0.950 . S
H331 C337 0.950 . S
H332 C338 0.949 . S
C333 H328 0.950 . S
C333 C335 1.327 . S
C333 C339 1.429 . S
C334 C326 1.574 . S
C334 H329 0.949 . S
C334 C340 1.368 1_655 S
C335 C319 1.349 . S
C335 H327 0.950 . S
C335 C333 1.327 . S
C336 C324 1.349 1_655 S
C336 H330 0.950 . S
C336 C337 1.327 . S
C337 H331 0.950 . S
C337 C336 1.327 . S
C337 C341 1.429 1_655 S
C338 C321 1.574 . S
C338 H332 0.949 . S
C338 C342 1.368 . S
C339 C320 1.429 1_455 S
C339 C333 1.429 . S
C339 C340 1.523 . S
C340 C321 1.368 . S
C340 C334 1.368 1_455 S
C340 C339 1.523 . S
C341 C325 1.429 . S
C341 C337 1.429 1_455 S
C341 C342 1.523 . S
C342 C326 1.368 1_455 S
C342 C338 1.368 . S
C342 C341 1.523 . S
H343 C318 0.950 . S
H344 C320 0.950 . S
H345 C321 0.949 . S
H346 C323 0.950 . S
H347 C325 0.950 . S
C348 C349 1.349 . S
C348 C350 1.327 . S
C348 H373 0.950 . S
C349 C348 1.349 . S
C349 C365 1.349 . S
C350 C348 1.327 . S
C350 C369 1.429 . S
C350 H374 0.950 . S
C351 C368 1.574 . S
C351 C370 1.368 . S
C351 H375 0.949 . S
H352 C356 0.949 . S
C353 C354 1.349 . S
C353 C355 1.327 . S
C353 H376 0.950 . S
C354 C353 1.349 . S
C354 C366 1.349 . S
C355 C353 1.327 . S
C355 C371 1.429 . S
C355 H377 0.950 . S
C356 H352 0.949 . S
C356 C364 1.574 . S
C356 C372 1.368 . S
H357 C365 0.950 . S
H358 C363 0.950 . S
H359 C364 0.949 . S
H360 C366 0.950 . S
H361 C367 0.950 . S
H362 C368 0.949 . S
C363 H358 0.950 . S
C363 C365 1.327 . S
C363 C369 1.429 . S
C364 C356 1.574 . S
C364 H359 0.949 . S
C364 C370 1.368 . S
C365 C349 1.349 . S
C365 H357 0.950 . S
C365 C363 1.327 . S
C366 C354 1.349 . S
C366 H360 0.950 . S
C366 C367 1.327 . S
C367 H361 0.950 . S
C367 C366 1.327 . S
C367 C371 1.429 . S
C368 C351 1.574 . S
C368 H362 0.949 . S
C368 C372 1.368 . S
C369 C350 1.429 . S
C369 C363 1.429 . S
C369 C370 1.523 . S
C370 C351 1.368 . S
C370 C364 1.368 . S
C370 C369 1.523 . S
C371 C355 1.429 . S
C371 C367 1.429 . S
C371 C372 1.523 . S
C372 C356 1.368 . S
C372 C368 1.368 . S
C372 C371 1.523 . S
H373 C348 0.950 . S
H374 C350 0.950 . S
H375 C351 0.949 . S
H376 C353 0.950 . S
H377 C355 0.950 . S
C378 C379 1.349 . S
C378 C380 1.327 . S
C378 H403 0.950 . S
C379 C378 1.349 . S
C379 C395 1.349 . S
C380 C378 1.327 . S
C380 C399 1.429 . S
C380 H404 0.950 . S
C381 C398 1.574 . S
C381 C400 1.368 . S
C381 H405 0.949 . S
H382 C386 0.949 . S
C383 C384 1.349 . S
C383 C385 1.327 . S
C383 H406 0.950 . S
C384 C383 1.349 . S
C384 C396 1.349 . S
C385 C383 1.327 . S
C385 C401 1.429 . S
C385 H407 0.950 . S
C386 H382 0.949 . S
C386 C394 1.574 . S
C386 C402 1.368 . S
H387 C395 0.950 . S
H388 C393 0.950 . S
H389 C394 0.949 . S
H390 C396 0.950 . S
H391 C397 0.950 . S
H392 C398 0.949 . S
C393 H388 0.950 . S
C393 C395 1.327 . S
C393 C399 1.429 . S
C394 C386 1.574 . S
C394 H389 0.949 . S
C394 C400 1.368 . S
C395 C379 1.349 . S
C395 H387 0.950 . S
C395 C393 1.327 . S
C396 C384 1.349 . S
C396 H390 0.950 . S
C396 C397 1.327 . S
C397 H391 0.950 . S
C397 C396 1.327 . S
C397 C401 1.429 . S
C398 C381 1.574 . S
C398 H392 0.949 . S
C398 C402 1.368 . S
C399 C380 1.429 . S
C399 C393 1.429 . S
C399 C400 1.523 . S
C400 C381 1.368 . S
C400 C394 1.368 . S
C400 C399 1.523 . S
C401 C385 1.429 . S
C401 C397 1.429 . S
C401 C402 1.523 . S
C402 C386 1.368 . S
C402 C398 1.368 . S
C402 C401 1.523 . S
H403 C378 0.950 . S
H404 C380 0.950 . S
H405 C381 0.949 . S
H406 C383 0.950 . S
H407 C385 0.950 . S
C408 C409 1.349 . S
C408 C410 1.327 . S
C408 H433 0.950 . S
C409 C408 1.349 . S
C409 C425 1.349 . S
C410 C408 1.327 . S
C410 C429 1.429 . S
C410 H434 0.950 . S
C411 C428 1.574 . S
C411 C430 1.368 . S
C411 H435 0.949 . S
H412 C416 0.949 . S
C413 C414 1.349 . S
C413 C415 1.327 . S
C413 H436 0.950 . S
C414 C413 1.349 . S
C414 C426 1.349 . S
C415 C413 1.327 . S
C415 C431 1.429 . S
C415 H437 0.950 . S
C416 H412 0.949 . S
C416 C424 1.574 . S
C416 C432 1.368 . S
H417 C425 0.950 . S
H418 C423 0.950 . S
H419 C424 0.949 . S
H420 C426 0.950 . S
H421 C427 0.950 . S
H422 C428 0.949 . S
C423 H418 0.950 . S
C423 C425 1.327 . S
C423 C429 1.429 . S
C424 C416 1.574 . S
C424 H419 0.949 . S
C424 C430 1.368 . S
C425 C409 1.349 . S
C425 H417 0.950 . S
C425 C423 1.327 . S
C426 C414 1.349 . S
C426 H420 0.950 . S
C426 C427 1.327 . S
C427 H421 0.950 . S
C427 C426 1.327 . S
C427 C431 1.429 . S
C428 C411 1.574 . S
C428 H422 0.949 . S
C428 C432 1.368 . S
C429 C410 1.429 . S
C429 C423 1.429 . S
C429 C430 1.523 . S
C430 C411 1.368 . S
C430 C424 1.368 . S
C430 C429 1.523 . S
C431 C415 1.429 . S
C431 C427 1.429 . S
C431 C432 1.523 . S
C432 C416 1.368 . S
C432 C428 1.368 . S
C432 C431 1.523 . S
H433 C408 0.950 . S
H434 C410 0.950 . S
H435 C411 0.949 . S
H436 C413 0.950 . S
H437 C415 0.950 . S
C438 C439 1.349 . S
C438 C440 1.327 . S
C438 H463 0.950 . S
C439 C438 1.349 . S
C439 C455 1.349 . S
C440 C438 1.327 . S
C440 C459 1.429 . S
C440 H464 0.950 . S
C441 C458 1.574 . S
C441 C460 1.368 . S
C441 H465 0.949 . S
H442 C446 0.949 . S
C443 C444 1.349 . S
C443 C445 1.327 . S
C443 H466 0.950 . S
C444 C443 1.349 . S
C444 C456 1.349 . S
C445 C443 1.327 . S
C445 C461 1.429 . S
C445 H467 0.950 . S
C446 H442 0.949 . S
C446 C454 1.574 . S
C446 C462 1.368 . S
H447 C455 0.950 . S
H448 C453 0.950 . S
H449 C454 0.949 . S
H450 C456 0.950 . S
H451 C457 0.950 . S
H452 C458 0.949 . S
C453 H448 0.950 . S
C453 C455 1.327 . S
C453 C459 1.429 . S
C454 C446 1.574 . S
C454 H449 0.949 . S
C454 C460 1.368 . S
C455 C439 1.349 . S
C455 H447 0.950 . S
C455 C453 1.327 . S
C456 C444 1.349 . S
C456 H450 0.950 . S
C456 C457 1.327 . S
C457 H451 0.950 . S
C457 C456 1.327 . S
C457 C461 1.429 . S
C458 C441 1.574 . S
C458 H452 0.949 . S
C458 C462 1.368 . S
C459 C440 1.429 . S
C459 C453 1.429 . S
C459 C460 1.523 . S
C460 C441 1.368 . S
C460 C454 1.368 . S
C460 C459 1.523 . S
C461 C445 1.429 . S
C461 C457 1.429 . S
C461 C462 1.523 . S
C462 C446 1.368 . S
C462 C458 1.368 . S
C462 C461 1.523 . S
H463 C438 0.950 . S
H464 C440 0.950 . S
H465 C441 0.949 . S
H466 C443 0.950 . S
H467 C445 0.950 . S
C468 C469 1.349 . S
C468 C470 1.327 . S
C468 H493 0.950 . S
C469 C468 1.349 . S
C469 C485 1.349 . S
C470 C468 1.327 . S
C470 C489 1.429 . S
C470 H494 0.950 . S
C471 C488 1.574 . S
C471 C490 1.368 . S
C471 H495 0.949 . S
H472 C476 0.949 . S
C473 C474 1.349 . S
C473 C475 1.327 . S
C473 H496 0.950 . S
C474 C473 1.349 . S
C474 C486 1.349 . S
C475 C473 1.327 . S
C475 C491 1.429 . S
C475 H497 0.950 . S
C476 H472 0.949 . S
C476 C484 1.574 . S
C476 C492 1.368 . S
H477 C485 0.950 . S
H478 C483 0.950 . S
H479 C484 0.949 . S
H480 C486 0.950 . S
H481 C487 0.950 . S
H482 C488 0.949 . S
C483 H478 0.950 . S
C483 C485 1.327 . S
C483 C489 1.429 . S
C484 C476 1.574 . S
C484 H479 0.949 . S
C484 C490 1.368 . S
C485 C469 1.349 . S
C485 H477 0.950 . S
C485 C483 1.327 . S
C486 C474 1.349 . S
C486 H480 0.950 . S
C486 C487 1.327 . S
C487 H481 0.950 . S
C487 C486 1.327 . S
C487 C491 1.429 . S
C488 C471 1.574 . S
C488 H482 0.949 . S
C488 C492 1.368 . S
C489 C470 1.429 . S
C489 C483 1.429 . S
C489 C490 1.523 . S
C490 C471 1.368 . S
C490 C484 1.368 . S
C490 C489 1.523 . S
C491 C475 1.429 . S
C491 C487 1.429 . S
C491 C492 1.523 . S
C492 C476 1.368 . S
C492 C488 1.368 . S
C492 C491 1.523 . S
H493 C468 0.950 . S
H494 C470 0.950 . S
H495 C471 0.949 . S
H496 C473 0.950 . S
H497 C475 0.950 . S
C498 C499 1.349 . S
C498 C500 1.327 . S
C498 H523 0.950 . S
C499 C498 1.349 . S
C499 C515 1.349 . S
C500 C498 1.327 . S
C500 C519 1.429 . S
C500 H524 0.950 . S
C501 C518 1.574 . S
C501 C520 1.368 . S
C501 H525 0.949 . S
H502 C506 0.949 . S
C503 C504 1.349 . S
C503 C505 1.327 . S
C503 H526 0.950 . S
C504 C503 1.349 . S
C504 C516 1.349 . S
C505 C503 1.327 . S
C505 C521 1.429 . S
C505 H527 0.950 . S
C506 H502 0.949 . S
C506 C514 1.574 . S
C506 C522 1.368 . S
H507 C515 0.950 . S
H508 C513 0.950 . S
H509 C514 0.949 . S
H510 C516 0.950 . S
H511 C517 0.950 . S
H512 C518 0.949 . S
C513 H508 0.950 . S
C513 C515 1.327 . S
C513 C519 1.429 . S
C514 C506 1.574 . S
C514 H509 0.949 . S
C514 C520 1.368 . S
C515 C499 1.349 . S
C515 H507 0.950 . S
C515 C513 1.327 . S
C516 C504 1.349 . S
C516 H510 0.950 . S
C516 C517 1.327 . S
C517 H511 0.950 . S
C517 C516 1.327 . S
C517 C521 1.429 . S
C518 C501 1.574 . S
C518 H512 0.949 . S
C518 C522 1.368 . S
C519 C500 1.429 . S
C519 C513 1.429 . S
C519 C520 1.523 . S
C520 C501 1.368 . S
C520 C514 1.368 . S
C520 C519 1.523 . S
C521 C505 1.429 . S
C521 C517 1.429 . S
C521 C522 1.523 . S
C522 C506 1.368 . S
C522 C518 1.368 . S
C522 C521 1.523 . S
H523 C498 0.950 . S
H524 C500 0.950 . S
H525 C501 0.949 . S
H526 C503 0.950 . S
H527 C505 0.950 . S
C528 C529 1.349 . S
C528 C530 1.327 . S
C528 H553 0.950 . S
C529 C528 1.349 . S
C529 C545 1.349 . S
C530 C528 1.327 . S
C530 C549 1.429 . S
C530 H554 0.950 . S
C531 C548 1.574 . S
C531 C550 1.368 . S
C531 H555 0.949 . S
H532 C536 0.949 . S
C533 C534 1.349 . S
C533 C535 1.327 . S
C533 H556 0.950 . S
C534 C533 1.349 . S
C534 C546 1.349 . S
C535 C533 1.327 . S
C535 C551 1.429 . S
C535 H557 0.950 . S
C536 H532 0.949 . S
C536 C544 1.574 . S
C536 C552 1.368 . S
H537 C545 0.950 . S
H538 C543 0.950 . S
H539 C544 0.949 . S
H540 C546 0.950 . S
H541 C547 0.950 . S
H542 C548 0.949 . S
C543 H538 0.950 . S
C543 C545 1.327 . S
C543 C549 1.429 . S
C544 C536 1.574 . S
C544 H539 0.949 . S
C544 C550 1.368 . S
C545 C529 1.349 . S
C545 H537 0.950 . S
C545 C543 1.327 . S
C546 C534 1.349 . S
C546 H540 0.950 . S
C546 C547 1.327 . S
C547 H541 0.950 . S
C547 C546 1.327 . S
C547 C551 1.429 . S
C548 C531 1.574 . S
C548 H542 0.949 . S
C548 C552 1.368 . S
C549 C530 1.429 . S
C549 C543 1.429 . S
C549 C550 1.523 . S
C550 C531 1.368 . S
C550 C544 1.368 . S
C550 C549 1.523 . S
C551 C535 1.429 . S
C551 C547 1.429 . S
C551 C552 1.523 . S
C552 C536 1.368 . S
C552 C548 1.368 . S
C552 C551 1.523 . S
H553 C528 0.950 . S
H554 C530 0.950 . S
H555 C531 0.949 . S
H556 C533 0.950 . S
H557 C535 0.950 . S
C558 C559 1.349 . S
C558 C560 1.327 . S
C558 H583 0.950 . S
C559 C558 1.349 . S
C559 C575 1.349 . S
C560 C558 1.327 . S
C560 C579 1.429 . S
C560 H584 0.950 . S
C561 C578 1.574 . S
C561 C580 1.368 . S
C561 H585 0.949 . S
H562 C566 0.949 . S
C563 C564 1.349 . S
C563 C565 1.327 . S
C563 H586 0.950 . S
C564 C563 1.349 . S
C564 C576 1.349 . S
C565 C563 1.327 . S
C565 C581 1.429 . S
C565 H587 0.950 . S
C566 H562 0.949 . S
C566 C574 1.574 . S
C566 C582 1.368 . S
H567 C575 0.950 . S
H568 C573 0.950 . S
H569 C574 0.949 . S
H570 C576 0.950 . S
H571 C577 0.950 . S
H572 C578 0.949 . S
C573 H568 0.950 . S
C573 C575 1.327 . S
C573 C579 1.429 . S
C574 C566 1.574 . S
C574 H569 0.949 . S
C574 C580 1.368 . S
C575 C559 1.349 . S
C575 H567 0.950 . S
C575 C573 1.327 . S
C576 C564 1.349 . S
C576 H570 0.950 . S
C576 C577 1.327 . S
C577 H571 0.950 . S
C577 C576 1.327 . S
C577 C581 1.429 . S
C578 C561 1.574 . S
C578 H572 0.949 . S
C578 C582 1.368 . S
C579 C560 1.429 . S
C579 C573 1.429 . S
C579 C580 1.523 . S
C580 C561 1.368 . S
C580 C574 1.368 . S
C580 C579 1.523 . S
C581 C565 1.429 . S
C581 C577 1.429 . S
C581 C582 1.523 . S
C582 C566 1.368 . S
C582 C578 1.368 . S
C582 C581 1.523 . S
H583 C558 0.950 . S
H584 C560 0.950 . S
H585 C561 0.949 . S
H586 C563 0.950 . S
H587 C565 0.950 . S
C588 C589 1.349 . S
C588 C590 1.327 . S
C588 H613 0.950 . S
C589 C588 1.349 . S
C589 C605 1.349 . S
C590 C588 1.327 . S
C590 C609 1.429 . S
C590 H614 0.950 . S
C591 C608 1.574 . S
C591 C610 1.368 . S
C591 H615 0.949 . S
H592 C596 0.949 . S
C593 C594 1.349 . S
C593 C595 1.327 . S
C593 H616 0.950 . S
C594 C593 1.349 . S
C594 C606 1.349 . S
C595 C593 1.327 . S
C595 C611 1.429 . S
C595 H617 0.950 . S
C596 H592 0.949 . S
C596 C604 1.574 . S
C596 C612 1.368 . S
H597 C605 0.950 . S
H598 C603 0.950 . S
H599 C604 0.949 . S
H600 C606 0.950 . S
H601 C607 0.950 . S
H602 C608 0.949 . S
C603 H598 0.950 . S
C603 C605 1.327 . S
C603 C609 1.429 . S
C604 C596 1.574 . S
C604 H599 0.949 . S
C604 C610 1.368 . S
C605 C589 1.349 . S
C605 H597 0.950 . S
C605 C603 1.327 . S
C606 C594 1.349 . S
C606 H600 0.950 . S
C606 C607 1.327 . S
C607 H601 0.950 . S
C607 C606 1.327 . S
C607 C611 1.429 . S
C608 C591 1.574 . S
C608 H602 0.949 . S
C608 C612 1.368 . S
C609 C590 1.429 . S
C609 C603 1.429 . S
C609 C610 1.523 . S
C610 C591 1.368 . S
C610 C604 1.368 . S
C610 C609 1.523 . S
C611 C595 1.429 . S
C611 C607 1.429 . S
C611 C612 1.523 . S
C612 C596 1.368 . S
C612 C608 1.368 . S
C612 C611 1.523 . S
H613 C588 0.950 . S
H614 C590 0.950 . S
H615 C591 0.949 . S
H616 C593 0.950 . S
H617 C595 0.950 . S
C618 C619 1.349 . S
C618 C620 1.327 . S
C618 H643 0.950 . S
C619 C618 1.349 . S
C619 C635 1.349 . S
C620 C618 1.327 . S
C620 C639 1.429 . S
C620 H644 0.950 . S
C621 C638 1.574 . S
C621 C640 1.368 . S
C621 H645 0.949 . S
H622 C626 0.949 . S
C623 C624 1.349 . S
C623 C625 1.327 . S
C623 H646 0.950 . S
C624 C623 1.349 . S
C624 C636 1.349 . S
C625 C623 1.327 . S
C625 C641 1.429 . S
C625 H647 0.950 . S
C626 H622 0.949 . S
C626 C634 1.574 . S
C626 C642 1.368 . S
H627 C635 0.950 . S
H628 C633 0.950 . S
H629 C634 0.949 . S
H630 C636 0.950 . S
H631 C637 0.950 . S
H632 C638 0.949 . S
C633 H628 0.950 . S
C633 C635 1.327 . S
C633 C639 1.429 . S
C634 C626 1.574 . S
C634 H629 0.949 . S
C634 C640 1.368 . S
C635 C619 1.349 . S
C635 H627 0.950 . S
C635 C633 1.327 . S
C636 C624 1.349 . S
C636 H630 0.950 . S
C636 C637 1.327 . S
C637 H631 0.950 . S
C637 C636 1.327 . S
C637 C641 1.429 . S
C638 C621 1.574 . S
C638 H632 0.949 . S
C638 C642 1.368 . S
C639 C620 1.429 . S
C639 C633 1.429 . S
C639 C640 1.523 . S
C640 C621 1.368 . S
C640 C634 1.368 . S
C640 C639 1.523 . S
C641 C625 1.429 . S
C641 C637 1.429 . S
C641 C642 1.523 . S
C642 C626 1.368 . S
C642 C638 1.368 . S
C642 C641 1.523 . S
H643 C618 0.950 . S
H644 C620 0.950 . S
H645 C621 0.949 . S
H646 C623 0.950 . S
H647 C625 0.950 . S
C648 C649 1.349 . S
C648 C650 1.327 . S
C648 H673 0.950 . S
C649 C648 1.349 . S
C649 C665 1.358 . S
C650 C648 1.327 . S
C650 C669 1.429 . S
C650 H674 0.950 . S
C651 C668 1.574 . S
C651 C670 1.366 1_665 S
C651 H675 0.951 . S
H652 C656 0.949 . S
C653 C654 1.358 . S
C653 C655 1.327 . S
C653 H676 0.941 1_455 S
C654 C653 1.358 . S
C654 C666 1.349 . S
C655 C653 1.327 . S
C655 C671 1.433 . S
C655 H677 0.945 1_455 S
C656 H652 0.949 . S
C656 C664 1.574 . S
C656 C672 1.368 1_545 S
H657 C665 0.941 1_655 S
H658 C663 0.945 1_655 S
H659 C664 0.949 . S
H660 C666 0.950 . S
H661 C667 0.950 . S
H662 C668 0.951 . S
C663 H658 0.945 1_455 S
C663 C665 1.327 . S
C663 C669 1.433 . S
C664 C656 1.574 . S
C664 H659 0.949 . S
C664 C670 1.368 1_556 S
C665 C649 1.358 . S
C665 H657 0.941 1_455 S
C665 C663 1.327 . S
C666 C654 1.349 . S
C666 H660 0.950 . S
C666 C667 1.327 . S
C667 H661 0.950 . S
C667 C666 1.327 . S
C667 C671 1.429 . S
C668 C651 1.574 . S
C668 H662 0.951 . S
C668 C672 1.366 1_654 S
C669 C650 1.429 . S
C669 C663 1.433 . S
C669 C670 1.523 . S
C670 C651 1.366 1_445 S
C670 C664 1.368 1_554 S
C670 C669 1.523 . S
C671 C655 1.433 . S
C671 C667 1.429 . S
C671 C672 1.523 . S
C672 C656 1.368 1_565 S
C672 C668 1.366 1_456 S
C672 C671 1.523 . S
H673 C648 0.950 . S
H674 C650 0.950 . S
H675 C651 0.951 . S
H676 C653 0.941 1_655 S
H677 C655 0.945 1_655 S
C678 C679 1.349 . S
C678 C680 1.327 . S
C678 H703 0.950 . S
C679 C678 1.349 . S
C679 C695 1.349 . S
C680 C678 1.327 . S
C680 C699 1.429 . S
C680 H704 0.950 . S
C681 C698 1.574 . S
C681 C700 1.368 1_554 S
C681 H705 0.949 . S
H682 C686 0.949 . S
C683 C684 1.349 . S
C683 C685 1.327 . S
C683 H706 0.950 . S
C684 C683 1.349 . S
C684 C696 1.349 . S
C685 C683 1.327 . S
C685 C701 1.429 . S
C685 H707 0.950 . S
C686 H682 0.949 . S
C686 C694 1.574 . S
C686 C702 1.368 1_556 S
H687 C695 0.950 . S
H688 C693 0.950 . S
H689 C694 0.949 . S
H690 C696 0.950 . S
H691 C697 0.950 . S
H692 C698 0.949 . S
C693 H688 0.950 . S
C693 C695 1.327 . S
C693 C699 1.429 . S
C694 C686 1.574 . S
C694 H689 0.949 . S
C694 C700 1.368 . S
C695 C679 1.349 . S
C695 H687 0.950 . S
C695 C693 1.327 . S
C696 C684 1.349 . S
C696 H690 0.950 . S
C696 C697 1.327 . S
C697 H691 0.950 . S
C697 C696 1.327 . S
C697 C701 1.429 . S
C698 C681 1.574 . S
C698 H692 0.949 . S
C698 C702 1.368 . S
C699 C680 1.429 . S
C699 C693 1.429 . S
C699 C700 1.523 . S
C700 C681 1.368 1_556 S
C700 C694 1.368 . S
C700 C699 1.523 . S
C701 C685 1.429 . S
C701 C697 1.429 . S
C701 C702 1.523 . S
C702 C686 1.368 1_554 S
C702 C698 1.368 . S
C702 C701 1.523 . S
H703 C678 0.950 . S
H704 C680 0.950 . S
H705 C681 0.949 . S
H706 C683 0.950 . S
H707 C685 0.950 . S
C708 C709 1.349 . S
C708 C710 1.327 . S
C708 H733 0.950 . S
C709 C708 1.349 . S
C709 C725 1.349 . S
C710 C708 1.327 . S
C710 C729 1.429 . S
C710 H734 0.950 . S
C711 C728 1.574 . S
C711 C730 1.368 . S
C711 H735 0.949 . S
H712 C716 0.949 . S
C713 C714 1.349 . S
C713 C715 1.327 . S
C713 H736 0.950 . S
C714 C713 1.349 . S
C714 C726 1.349 . S
C715 C713 1.327 . S
C715 C731 1.429 . S
C715 H737 0.950 . S
C716 H712 0.949 . S
C716 C724 1.574 . S
C716 C732 1.368 . S
H717 C725 0.950 . S
H718 C723 0.950 . S
H719 C724 0.949 . S
H720 C726 0.950 . S
H721 C727 0.950 . S
H722 C728 0.949 . S
C723 H718 0.950 . S
C723 C725 1.327 . S
C723 C729 1.429 . S
C724 C716 1.574 . S
C724 H719 0.949 . S
C724 C730 1.368 . S
C725 C709 1.349 . S
C725 H717 0.950 . S
C725 C723 1.327 . S
C726 C714 1.349 . S
C726 H720 0.950 . S
C726 C727 1.327 . S
C727 H721 0.950 . S
C727 C726 1.327 . S
C727 C731 1.429 . S
C728 C711 1.574 . S
C728 H722 0.949 . S
C728 C732 1.368 . S
C729 C710 1.429 . S
C729 C723 1.429 . S
C729 C730 1.523 . S
C730 C711 1.368 . S
C730 C724 1.368 . S
C730 C729 1.523 . S
C731 C715 1.429 . S
C731 C727 1.429 . S
C731 C732 1.523 . S
C732 C716 1.368 . S
C732 C728 1.368 . S
C732 C731 1.523 . S
H733 C708 0.950 . S
H734 C710 0.950 . S
H735 C711 0.949 . S
H736 C713 0.950 . S
H737 C715 0.950 . S
C738 C739 1.349 . S
C738 C740 1.327 . S
C738 H763 0.950 . S
C739 C738 1.349 . S
C739 C755 1.349 . S
C740 C738 1.327 . S
C740 C759 1.429 . S
C740 H764 0.950 . S
C741 C758 1.574 . S
C741 C760 1.368 . S
C741 H765 0.949 . S
H742 C746 0.949 . S
C743 C744 1.349 . S
C743 C745 1.327 . S
C743 H766 0.950 . S
C744 C743 1.349 . S
C744 C756 1.349 . S
C745 C743 1.327 . S
C745 C761 1.429 . S
C745 H767 0.950 . S
C746 H742 0.949 . S
C746 C754 1.574 . S
C746 C762 1.368 . S
H747 C755 0.950 . S
H748 C753 0.950 . S
H749 C754 0.949 . S
H750 C756 0.950 . S
H751 C757 0.950 . S
H752 C758 0.949 . S
C753 H748 0.950 . S
C753 C755 1.327 . S
C753 C759 1.429 . S
C754 C746 1.574 . S
C754 H749 0.949 . S
C754 C760 1.368 1_545 S
C755 C739 1.349 . S
C755 H747 0.950 . S
C755 C753 1.327 . S
C756 C744 1.349 . S
C756 H750 0.950 . S
C756 C757 1.327 . S
C757 H751 0.950 . S
C757 C756 1.327 . S
C757 C761 1.429 . S
C758 C741 1.574 . S
C758 H752 0.949 . S
C758 C762 1.368 1_565 S
C759 C740 1.429 . S
C759 C753 1.429 . S
C759 C760 1.523 . S
C760 C741 1.368 . S
C760 C754 1.368 1_565 S
C760 C759 1.523 . S
C761 C745 1.429 . S
C761 C757 1.429 . S
C761 C762 1.523 . S
C762 C746 1.368 . S
C762 C758 1.368 1_545 S
C762 C761 1.523 . S
H763 C738 0.950 . S
H764 C740 0.950 . S
H765 C741 0.949 . S
H766 C743 0.950 . S
H767 C745 0.950 . S
C289 C39 1.406 . S
C294 C3 1.406 . S
C319 C75 1.406 . S
C324 C111 1.406 . S
C349 C147 1.406 . S
C354 C183 1.406 . S
C379 C219 1.406 . S
C384 C255 1.406 . S
C409 C266 1.273 . S
C414 C14 1.273 . S
C439 C230 1.273 . S
C444 C50 1.273 . S
C469 C86 1.273 . S
C474 C194 1.273 . S
C499 C158 1.273 . S
C504 C122 1.273 . S
C529 C182 1.443 . S
C534 C74 1.443 . S
C559 C146 1.443 . S
C564 C110 1.443 . S
C589 C254 1.443 . S
C594 C2 1.443 . S
C619 C38 1.443 . S
C624 C218 1.443 . S
C649 C4 1.265 . S
C654 C76 1.265 . S
C679 C112 1.265 . S
C684 C40 1.265 . S
C709 C220 1.265 . S
C714 C148 1.265 . S
C739 C184 1.265 . S
C744 C256 1.265 . S
