# Generated by pormake.
# Topology yfh, (5)-cn, num edge types: 1
# Building blocks:
#     Node 0, Type 0, BuildingBlock: BEQFEK_clean_sbu_0, # of connection points: 5
#     Node 1, Type 0, BuildingBlock: BEQFEK_clean_sbu_0, # of connection points: 5
#     Node 2, Type 0, BuildingBlock: BEQFEK_clean_sbu_0, # of connection points: 5
#     Node 3, Type 0, BuildingBlock: BEQFEK_clean_sbu_0, # of connection points: 5
#     Node 4, Type 0, BuildingBlock: BEQFEK_clean_sbu_0, # of connection points: 5
#     Node 5, Type 0, BuildingBlock: BEQFEK_clean_sbu_0, # of connection points: 5
#     Node 6, Type 0, BuildingBlock: BEQFEK_clean_sbu_0, # of connection points: 5
#     Node 7, Type 0, BuildingBlock: BEQFEK_clean_sbu_0, # of connection points: 5
#     Edge 8, Type (0, 0), None
#     Edge 9, Type (0, 0), None
#     Edge 10, Type (0, 0), None
#     Edge 11, Type (0, 0), None
#     Edge 12, Type (0, 0), None
#     Edge 13, Type (0, 0), None
#     Edge 14, Type (0, 0), None
#     Edge 15, Type (0, 0), None
#     Edge 16, Type (0, 0), None
#     Edge 17, Type (0, 0), None
#     Edge 18, Type (0, 0), None
#     Edge 19, Type (0, 0), None
#     Edge 20, Type (0, 0), None
#     Edge 21, Type (0, 0), None
#     Edge 22, Type (0, 0), None
#     Edge 23, Type (0, 0), None
#     Edge 24, Type (0, 0), None
#     Edge 25, Type (0, 0), None
#     Edge 26, Type (0, 0), None
#     Edge 27, Type (0, 0), None
# Relax obj value: 0.540
# Max RMSD: 0.273
# Mean RMSD: 0.273
data_MOF--net-yfh--node1-BEQFEK_clean_sbu_0--edge1-none
_symmetry_space_group_name_H-M    P1
_symmetry_Int_Tables_number       1
_symmetry_cell_setting            triclinic
loop_
_symmetry_equiv_pos_as_xyz
'x, y, z'
_cell_length_a     14.387545
_cell_length_b     14.387908
_cell_length_c     30.848967
_cell_angle_alpha  89.998339
_cell_angle_beta   90.001661
_cell_angle_gamma 89.999181
loop_
_atom_site_label
_atom_site_type_symbol
_atom_site_fract_x
_atom_site_fract_y
_atom_site_fract_z
_atom_type_partial_charge
Co0 Co 0.2209 0.97244 0.0619 0.0
Co1 Co 0.40173 0.97939 0.11811 0.0
C2 C 0.26818 0.14222 0.11091 0.0
O3 O 0.21041 0.09918 0.08711 0.0
O4 O 0.34214 0.1028 0.12356 0.0
C5 C 0.04142 0.00056 0.02485 0.0
O6 O 0.02204 0.03803 0.06259 0.0
C7 C 0.46043 0.97928 0.20716 0.0
C8 C 0.61154 0.95905 0.20422 0.0
C9 C 0.53774 0.96649 0.23306 0.0
N10 N 0.48678 0.97999 0.16539 0.0
N11 N 0.578 0.97093 0.16378 0.0
C12 C 0.36129 0.97716 0.22184 0.0
H13 H 0.31397 0.00031 0.1956 0.0
H14 H 0.34251 0.9053 0.23153 0.0
H15 H 0.35263 0.02233 0.25073 0.0
C16 C 0.19243 0.79704 0.11116 0.0
N17 N 0.23704 0.87799 0.10406 0.0
N18 N 0.31721 0.87681 0.12466 0.0
C19 C 0.3278 0.79328 0.14403 0.0
C20 C 0.24865 0.74002 0.13664 0.0
C21 C 0.10156 0.77182 0.09068 0.0
H22 H 0.11348 0.71941 0.06486 0.0
H23 H 0.06756 0.83379 0.07658 0.0
H24 H 0.05442 0.74084 0.11521 0.0
O25 O 0.32974 0.96713 0.02331 0.0
O26 O 0.46274 0.96987 0.06032 0.0
H27 H 0.4337 0.68928 0.15123 0.0
H28 H 0.41016 0.75608 0.19922 0.0
C29 C 0.41714 0.75981 0.16344 0.0
H30 H 0.47556 0.806 0.15474 0.0
H31 H 0.61631 0.9665 0.13513 0.0
O32 O 0.11637 0.95493 0.02068 0.0
C33 C 0.41801 0.96469 0.0247 0.0
Co34 Co 0.5268 0.721 0.31186 0.0
Co35 Co 0.51985 0.90172 0.36813 0.0
C36 C 0.35699 0.76824 0.36089 0.0
O37 O 0.40003 0.71052 0.33706 0.0
O38 O 0.39642 0.84216 0.37357 0.0
C39 C 0.49871 0.54148 0.27485 0.0
O40 O 0.46128 0.52211 0.3126 0.0
C41 C 0.51994 0.96048 0.45716 0.0
C42 C 0.54023 0.11157 0.4542 0.0
C43 C 0.53276 0.0378 0.48305 0.0
N44 N 0.51925 0.98679 0.4154 0.0
N45 N 0.52834 0.07801 0.41377 0.0
C46 C 0.52204 0.86135 0.47186 0.0
H47 H 0.49893 0.81401 0.44563 0.0
H48 H 0.59388 0.84256 0.48159 0.0
H49 H 0.47681 0.85271 0.50074 0.0
C50 C 0.70218 0.69243 0.36114 0.0
N51 N 0.62124 0.73706 0.35404 0.0
N52 N 0.62242 0.8172 0.37467 0.0
C53 C 0.70593 0.82773 0.39406 0.0
C54 C 0.7592 0.74859 0.38665 0.0
C55 C 0.72741 0.6016 0.34063 0.0
H56 H 0.77983 0.61356 0.31481 0.0
H57 H 0.66545 0.56762 0.32652 0.0
H58 H 0.75839 0.55442 0.36515 0.0
O59 O 0.53216 0.82987 0.27327 0.0
O60 O 0.5294 0.96277 0.31034 0.0
H61 H 0.80996 0.9336 0.4013 0.0
H62 H 0.74312 0.91 0.44928 0.0
C63 C 0.73942 0.91704 0.4135 0.0
H64 H 0.69324 0.97548 0.40481 0.0
H65 H 0.53279 0.11629 0.38511 0.0
O66 O 0.54427 0.61646 0.27065 0.0
C67 C 0.53461 0.91813 0.2747 0.0
Co68 Co 0.7783 0.02686 0.56183 0.0
Co69 Co 0.59759 0.0199 0.61811 0.0
C70 C 0.73106 0.85705 0.61085 0.0
O71 O 0.78879 0.90009 0.58702 0.0
O72 O 0.65715 0.89648 0.62353 0.0
C73 C 0.95781 -0.00127 0.52483 0.0
O74 O 0.97716 0.96136 0.5626 0.0
C75 C 0.53891 0.01997 0.70715 0.0
C76 C 0.3878 0.04018 0.70422 0.0
C77 C 0.46161 0.03274 0.73306 0.0
N78 N 0.51256 0.01928 0.66539 0.0
N79 N 0.42134 0.02832 0.66378 0.0
C80 C 0.63806 0.02211 0.72183 0.0
H81 H 0.68538 -0.00102 0.69559 0.0
H82 H 0.65684 0.09396 0.73153 0.0
H83 H 0.64674 0.97692 0.75072 0.0
C84 C 0.80686 0.20225 0.6111 0.0
N85 N 0.76225 0.12131 0.60401 0.0
N86 N 0.68211 0.12247 0.62464 0.0
C87 C 0.67156 0.20598 0.64402 0.0
C88 C 0.75069 0.25926 0.63661 0.0
C89 C 0.89768 0.22751 0.59058 0.0
H90 H 0.88569 0.27996 0.56477 0.0
H91 H 0.93165 0.16557 0.57644 0.0
H92 H 0.94487 0.25847 0.61509 0.0
O93 O 0.66941 0.03224 0.52325 0.0
O94 O 0.53651 0.02946 0.56033 0.0
H95 H 0.56564 0.30996 0.65124 0.0
H96 H 0.58928 0.24321 0.69924 0.0
C97 C 0.58224 0.23945 0.66346 0.0
H98 H 0.52382 0.19324 0.65479 0.0
H99 H 0.38302 0.03274 0.63513 0.0
O100 O 0.88284 0.04431 0.52061 0.0
C101 C 0.58114 0.03469 0.52469 0.0
Co102 Co 0.47251 0.27827 0.81183 0.0
Co103 Co 0.47949 0.09757 0.86811 0.0
C104 C 0.64232 0.23108 0.86086 0.0
O105 O 0.59927 0.28879 0.83703 0.0
O106 O 0.60289 0.15716 0.87355 0.0
C107 C 0.50058 0.45778 0.77479 0.0
O108 O 0.538 0.47716 0.81254 0.0
C109 C 0.47919 0.03894 0.95716 0.0
C110 C 0.45907 0.88776 0.95422 0.0
C111 C 0.46622 0.96163 0.98302 0.0
N112 N 0.48008 0.01256 0.91541 0.0
N113 N 0.47111 0.92132 0.91379 0.0
C114 C 0.47701 0.13808 0.97184 0.0
H115 H 0.5002 0.1854 0.94561 0.0
H116 H 0.40513 0.15685 0.98151 0.0
H117 H 0.52213 0.14675 1.00075 0.0
C118 C 0.29712 0.30683 0.86109 0.0
N119 N 0.37806 0.26221 0.854 0.0
N120 N 0.37689 0.18207 0.87462 0.0
C121 C 0.29336 0.17151 0.894 0.0
C122 C 0.24009 0.25065 0.88659 0.0
C123 C 0.27187 0.39766 0.84058 0.0
H124 H 0.21943 0.3857 0.81477 0.0
H125 H 0.33382 0.43164 0.82645 0.0
H126 H 0.24091 0.44484 0.8651 0.0
O127 O 0.46717 0.16938 0.77326 0.0
O128 O 0.46996 0.03648 0.81034 0.0
H129 H 0.18936 0.0656 0.90118 0.0
H130 H 0.25611 0.08917 0.94919 0.0
C131 C 0.25988 0.08217 0.91341 0.0
H132 H 0.30609 0.02375 0.90473 0.0
H133 H 0.46687 0.88299 0.88514 0.0
O134 O 0.45503 0.38279 0.77059 0.0
C135 C 0.46474 0.08111 0.77469 0.0
Co136 Co 0.72081 0.52685 0.69856 0.0
Co137 Co 0.90165 0.51991 0.64237 0.0
C138 C 0.76816 0.35704 0.64957 0.0
O139 O 0.71038 0.4001 0.67337 0.0
O140 O 0.8421 0.39647 0.63691 0.0
C141 C 0.54129 0.49869 0.73554 0.0
O142 O 0.5219 0.46125 0.6978 0.0
C143 C 0.96043 0.52002 0.55333 0.0
C144 C 0.11152 0.54034 0.55629 0.0
C145 C 0.03774 0.53286 0.52744 0.0
N146 N 0.98674 0.51933 0.5951 0.0
N147 N 0.07796 0.52844 0.59673 0.0
C148 C 0.8613 0.5221 0.53863 0.0
H149 H 0.81396 0.49895 0.56487 0.0
H150 H 0.84249 0.59394 0.52892 0.0
H151 H 0.85267 0.4769 0.50975 0.0
C152 C 0.69233 0.70224 0.6493 0.0
N153 N 0.73695 0.6213 0.65639 0.0
N154 N 0.81713 0.62248 0.6358 0.0
C155 C 0.8277 0.70601 0.61643 0.0
C156 C 0.74857 0.75929 0.62383 0.0
C157 C 0.60145 0.72745 0.66976 0.0
H158 H 0.61335 0.77985 0.6956 0.0
H159 H 0.56745 0.66547 0.68385 0.0
H160 H 0.55433 0.75844 0.64523 0.0
O161 O 0.82962 0.5322 0.73717 0.0
O162 O 0.96263 0.52944 0.70018 0.0
H163 H 0.93357 0.81004 0.6092 0.0
H164 H 0.91007 0.74314 0.56123 0.0
C165 C 0.91705 0.73948 0.59702 0.0
H166 H 0.97547 0.69332 0.60574 0.0
H167 H 0.11625 0.53289 0.62538 0.0
O168 O 0.61623 0.54432 0.73975 0.0
C169 C 0.91789 0.53464 0.7358 0.0
Co170 Co 0.97252 0.22082 0.94856 0.0
Co171 Co 0.97947 0.40166 0.89236 0.0
C172 C 0.14232 0.26812 0.89955 0.0
O173 O 0.09927 0.21036 0.92336 0.0
O174 O 0.10289 0.34207 0.8869 0.0
C175 C 0.00062 0.0413 0.98558 0.0
O176 O 0.03812 0.02188 0.94785 0.0
C177 C 0.97913 0.46038 0.80332 0.0
C178 C 0.95889 0.61154 0.80629 0.0
C179 C 0.96609 0.5377 0.77748 0.0
N180 N 0.98001 0.48672 0.84509 0.0
N181 N 0.97097 0.57796 0.84671 0.0
C182 C 0.97701 0.36125 0.78863 0.0
H183 H 0.00022 0.31392 0.81485 0.0
H184 H 0.90514 0.34245 0.77895 0.0
H185 H 0.02215 0.35263 0.75972 0.0
C186 C 0.79713 0.19235 0.89931 0.0
N187 N 0.87807 0.23697 0.9064 0.0
N188 N 0.87688 0.31715 0.88582 0.0
C189 C 0.79333 0.32774 0.86646 0.0
C190 C 0.74007 0.24859 0.87386 0.0
C191 C 0.77194 0.10145 0.91977 0.0
H192 H 0.71955 0.11332 0.9456 0.0
H193 H 0.83393 0.06744 0.93384 0.0
H194 H 0.74095 0.05435 0.89522 0.0
O195 O 0.96721 0.32964 0.98717 0.0
O196 O 0.96997 0.46264 0.95017 0.0
H197 H 0.68928 0.4336 0.85926 0.0
H198 H 0.75617 0.41017 0.81128 0.0
C199 C 0.75984 0.4171 0.84707 0.0
H200 H 0.80599 0.47552 0.8558 0.0
H201 H 0.9667 0.61626 0.87537 0.0
O202 O 0.95502 0.11627 0.98977 0.0
C203 C 0.96478 0.41791 0.98579 0.0
Co204 Co 0.27849 0.47243 0.1986 0.0
Co205 Co 0.09767 0.4794 0.14238 0.0
C206 C 0.23119 0.64223 0.1496 0.0
O207 O 0.28896 0.59918 0.1734 0.0
O208 O 0.15724 0.60281 0.13694 0.0
C209 C 0.45799 0.50057 0.2356 0.0
O210 O 0.4774 0.538 0.19785 0.0
C211 C 0.03902 0.47909 0.05333 0.0
C212 C 0.88784 0.45894 0.05627 0.0
C213 C 0.96171 0.4661 0.02747 0.0
N214 N 0.01263 0.47998 0.09509 0.0
N215 N 0.92139 0.47099 0.0967 0.0
C216 C 0.13816 0.47692 0.03866 0.0
H217 H 0.18548 0.50014 0.06488 0.0
H218 H 0.15695 0.40504 0.029 0.0
H219 H 0.14682 0.52202 0.00974 0.0
C220 C 0.30695 0.29703 0.14935 0.0
N221 N 0.26235 0.37798 0.15643 0.0
N222 N 0.18217 0.3768 0.13585 0.0
C223 C 0.17156 0.29326 0.11649 0.0
C224 C 0.2507 0.23998 0.1239 0.0
C225 C 0.39783 0.2718 0.16982 0.0
H226 H 0.38593 0.21938 0.19564 0.0
H227 H 0.43183 0.33377 0.18391 0.0
H228 H 0.44496 0.24083 0.14528 0.0
O229 O 0.16965 0.46711 0.23719 0.0
O230 O 0.03665 0.46989 0.20018 0.0
H231 H 0.06565 0.18925 0.10932 0.0
H232 H 0.08913 0.25607 0.06132 0.0
C233 C 0.08219 0.25978 0.09711 0.0
H234 H 0.02378 0.30598 0.10582 0.0
H235 H 0.88306 0.46674 0.12535 0.0
O236 O 0.38304 0.45495 0.2398 0.0
C237 C 0.08138 0.46468 0.2358 0.0
Co238 Co 0.0268 0.77835 0.44864 0.0
Co239 Co 0.01984 0.59763 0.39237 0.0
C240 C 0.85698 0.73109 0.39961 0.0
O241 O 0.90002 0.78881 0.42345 0.0
O242 O 0.89642 0.65719 0.38692 0.0
C243 C -0.00131 0.9579 0.4856 0.0
O244 O 0.9613 0.97729 0.44784 0.0
C245 C 0.02015 0.53894 0.30333 0.0
C246 C 0.04036 0.38777 0.30629 0.0
C247 C 0.03317 0.46163 0.27748 0.0
N248 N 0.01928 0.51259 0.34509 0.0
N249 N 0.0283 0.42135 0.34671 0.0
C250 C 0.02228 0.63807 0.28863 0.0
H251 H -0.00091 0.6854 0.31486 0.0
H252 H 0.09415 0.65687 0.27895 0.0
H253 H 0.97713 0.64671 0.25973 0.0
C254 C 0.20219 0.80691 0.39937 0.0
N255 N 0.12125 0.76229 0.40646 0.0
N256 N 0.12243 0.68215 0.38584 0.0
C257 C 0.20596 0.67159 0.36647 0.0
C258 C 0.25923 0.75072 0.37389 0.0
C259 C 0.22742 0.89776 0.41987 0.0
H260 H 0.27985 0.88582 0.44568 0.0
H261 H 0.16546 0.93174 0.43398 0.0
H262 H 0.25839 0.94492 0.39535 0.0
O263 O 0.03219 0.66949 0.48723 0.0
O264 O 0.02938 0.53658 0.45015 0.0
H265 H 0.30999 0.56572 0.35925 0.0
H266 H 0.24315 0.58925 0.31127 0.0
C267 C 0.23945 0.58226 0.34705 0.0
H268 H 0.19328 0.52383 0.35576 0.0
H269 H 0.03256 0.38305 0.37537 0.0
O270 O 0.04424 0.88292 0.48984 0.0
C271 C 0.03462 0.58122 0.4858 0.0
loop_
_geom_bond_atom_site_label_1
_geom_bond_atom_site_label_2
_geom_bond_distance
_geom_bond_site_symmetry_2
_ccdc_geom_bond_type
Co0 O3 1.970 . S
Co0 N17 1.989 1_545 S
Co0 O25 1.967 . S
Co0 O32 1.920 . S
Co1 O4 1.966 . S
Co1 N10 2.022 . S
Co1 N18 1.993 1_545 S
Co1 O26 1.941 . S
C2 O3 1.258 . S
C2 O4 1.263 . S
O3 Co0 1.970 . S
O3 C2 1.258 . S
O4 Co1 1.966 . S
O4 C2 1.263 . S
C5 O6 1.235 . S
C5 O32 1.289 . S
O6 C5 1.235 . S
C7 C9 1.400 1_545 S
C7 N10 1.351 . S
C7 C12 1.501 . S
C8 C9 1.387 . S
C8 N11 1.341 . S
C9 C7 1.400 1_565 S
C9 C8 1.387 . S
N10 Co1 2.022 . S
N10 C7 1.351 . S
N10 N11 1.365 1_545 S
N11 C8 1.341 . S
N11 N10 1.365 1_565 S
N11 H31 0.862 . S
C12 C7 1.501 . S
C12 H13 0.961 . S
C12 H14 0.961 . S
C12 H15 0.960 . S
H13 C12 0.961 . S
H14 C12 0.961 . S
H15 C12 0.960 . S
C16 N17 1.342 . S
C16 C20 1.401 . S
C16 C21 1.499 . S
N17 Co0 1.989 1_565 S
N17 C16 1.342 . S
N17 N18 1.388 . S
N18 Co1 1.993 1_565 S
N18 N17 1.388 . S
N18 C19 1.346 . S
C19 N18 1.346 . S
C19 C20 1.396 . S
C19 C29 1.510 . S
C20 C16 1.401 . S
C20 C19 1.396 . S
C21 C16 1.499 . S
C21 H22 0.959 . S
C21 H23 0.960 . S
C21 H24 0.961 . S
H22 C21 0.959 . S
H23 C21 0.960 . S
H24 C21 0.961 . S
O25 Co0 1.967 . S
O25 C33 1.258 . S
O26 Co1 1.941 . S
O26 C33 1.266 . S
H27 C29 0.959 . S
H28 C29 0.961 . S
C29 C19 1.510 . S
C29 H27 0.959 . S
C29 H28 0.961 . S
C29 H30 0.960 . S
H30 C29 0.960 . S
H31 N11 0.862 . S
O32 Co0 1.920 . S
O32 C5 1.289 . S
C33 O25 1.258 . S
C33 O26 1.266 . S
Co34 O37 1.970 . S
Co34 N51 1.989 . S
Co34 O59 1.967 . S
Co34 O66 1.920 . S
Co35 O38 1.966 . S
Co35 N44 2.022 . S
Co35 N52 1.993 . S
Co35 O60 1.941 . S
C36 O37 1.258 . S
C36 O38 1.263 . S
O37 Co34 1.970 . S
O37 C36 1.258 . S
O38 Co35 1.966 . S
O38 C36 1.263 . S
C39 O40 1.235 . S
C39 O66 1.289 . S
O40 C39 1.235 . S
C41 C43 1.400 1_565 S
C41 N44 1.351 . S
C41 C46 1.501 . S
C42 C43 1.387 . S
C42 N45 1.341 . S
C43 C41 1.400 1_545 S
C43 C42 1.387 . S
N44 Co35 2.022 . S
N44 C41 1.351 . S
N44 N45 1.365 1_565 S
N45 C42 1.341 . S
N45 N44 1.365 1_545 S
N45 H65 0.862 . S
C46 C41 1.501 . S
C46 H47 0.961 . S
C46 H48 0.961 . S
C46 H49 0.960 . S
H47 C46 0.961 . S
H48 C46 0.961 . S
H49 C46 0.960 . S
C50 N51 1.342 . S
C50 C54 1.401 . S
C50 C55 1.499 . S
N51 Co34 1.989 . S
N51 C50 1.342 . S
N51 N52 1.388 . S
N52 Co35 1.993 . S
N52 N51 1.388 . S
N52 C53 1.346 . S
C53 N52 1.346 . S
C53 C54 1.396 . S
C53 C63 1.510 . S
C54 C50 1.401 . S
C54 C53 1.396 . S
C55 C50 1.499 . S
C55 H56 0.959 . S
C55 H57 0.960 . S
C55 H58 0.961 . S
H56 C55 0.959 . S
H57 C55 0.960 . S
H58 C55 0.961 . S
O59 Co34 1.967 . S
O59 C67 1.258 . S
O60 Co35 1.941 . S
O60 C67 1.266 . S
H61 C63 0.959 . S
H62 C63 0.961 . S
C63 C53 1.510 . S
C63 H61 0.959 . S
C63 H62 0.961 . S
C63 H64 0.960 . S
H64 C63 0.960 . S
H65 N45 0.862 . S
O66 Co34 1.920 . S
O66 C39 1.289 . S
C67 O59 1.258 . S
C67 O60 1.266 . S
Co68 O71 1.970 . S
Co68 N85 1.989 1_565 S
Co68 O93 1.967 . S
Co68 O100 1.920 . S
Co69 O72 1.966 . S
Co69 N78 2.026 . S
Co69 N86 1.993 1_565 S
Co69 O94 1.941 . S
C70 O71 1.258 . S
C70 O72 1.263 . S
O71 Co68 1.970 . S
O71 C70 1.258 . S
O72 Co69 1.966 . S
O72 C70 1.263 . S
C73 O74 1.235 . S
C73 O100 1.289 . S
O74 C73 1.235 . S
C75 C77 1.400 1_565 S
C75 N78 1.354 . S
C75 C80 1.501 . S
C76 C77 1.387 . S
C76 N79 1.341 . S
C77 C75 1.400 1_545 S
C77 C76 1.387 . S
N78 Co69 2.026 . S
N78 C75 1.354 . S
N78 N79 1.355 1_565 S
N79 C76 1.341 . S
N79 N78 1.355 1_545 S
N79 H99 0.862 . S
C80 C75 1.501 . S
C80 H81 0.961 . S
C80 H82 0.961 . S
C80 H83 0.960 . S
H81 C80 0.961 . S
H82 C80 0.961 . S
H83 C80 0.960 . S
C84 N85 1.342 . S
C84 C88 1.401 . S
C84 C89 1.499 . S
N85 Co68 1.989 1_545 S
N85 C84 1.342 . S
N85 N86 1.388 . S
N86 Co69 1.993 1_545 S
N86 N85 1.388 . S
N86 C87 1.346 . S
C87 N86 1.346 . S
C87 C88 1.396 . S
C87 C97 1.510 . S
C88 C84 1.401 . S
C88 C87 1.396 . S
C89 C84 1.499 . S
C89 H90 0.959 . S
C89 H91 0.960 . S
C89 H92 0.961 . S
H90 C89 0.959 . S
H91 C89 0.960 . S
H92 C89 0.961 . S
O93 Co68 1.967 . S
O93 C101 1.258 . S
O94 Co69 1.941 . S
O94 C101 1.266 . S
H95 C97 0.959 . S
H96 C97 0.961 . S
C97 C87 1.510 . S
C97 H95 0.959 . S
C97 H96 0.961 . S
C97 H98 0.960 . S
H98 C97 0.960 . S
H99 N79 0.862 . S
O100 Co68 1.920 . S
O100 C73 1.289 . S
C101 O93 1.258 . S
C101 O94 1.266 . S
Co102 O105 1.970 . S
Co102 N119 1.989 . S
Co102 O127 1.967 . S
Co102 O134 1.920 . S
Co103 O106 1.966 . S
Co103 N112 2.022 . S
Co103 N120 1.993 . S
Co103 O128 1.941 . S
C104 O105 1.258 . S
C104 O106 1.263 . S
O105 Co102 1.970 . S
O105 C104 1.258 . S
O106 Co103 1.966 . S
O106 C104 1.263 . S
C107 O108 1.235 . S
C107 O134 1.289 . S
O108 C107 1.235 . S
C109 C111 1.400 1_546 S
C109 N112 1.351 . S
C109 C114 1.501 . S
C110 C111 1.387 1_556 S
C110 N113 1.341 . S
C111 C109 1.400 1_564 S
C111 C110 1.387 1_554 S
N112 Co103 2.022 . S
N112 C109 1.351 . S
N112 N113 1.365 1_545 S
N113 C110 1.341 . S
N113 N112 1.365 1_565 S
N113 H133 0.862 . S
C114 C109 1.501 . S
C114 H115 0.961 . S
C114 H116 0.961 1_556 S
C114 H117 0.960 1_556 S
H115 C114 0.961 . S
H116 C114 0.961 1_554 S
H117 C114 0.960 1_554 S
C118 N119 1.342 . S
C118 C122 1.401 . S
C118 C123 1.499 . S
N119 Co102 1.989 . S
N119 C118 1.342 . S
N119 N120 1.388 . S
N120 Co103 1.993 . S
N120 N119 1.388 . S
N120 C121 1.346 . S
C121 N120 1.346 . S
C121 C122 1.396 . S
C121 C131 1.510 . S
C122 C118 1.401 . S
C122 C121 1.396 . S
C123 C118 1.499 . S
C123 H124 0.959 . S
C123 H125 0.960 . S
C123 H126 0.961 . S
H124 C123 0.959 . S
H125 C123 0.960 . S
H126 C123 0.961 . S
O127 Co102 1.967 . S
O127 C135 1.258 . S
O128 Co103 1.941 . S
O128 C135 1.266 . S
H129 C131 0.959 . S
H130 C131 0.961 . S
C131 C121 1.510 . S
C131 H129 0.959 . S
C131 H130 0.961 . S
C131 H132 0.960 . S
H132 C131 0.960 . S
H133 N113 0.862 . S
O134 Co102 1.920 . S
O134 C107 1.289 . S
C135 O127 1.258 . S
C135 O128 1.266 . S
Co136 O139 1.970 . S
Co136 N153 1.989 . S
Co136 O161 1.967 . S
Co136 O168 1.920 . S
Co137 O140 1.966 . S
Co137 N146 2.022 . S
Co137 N154 1.993 . S
Co137 O162 1.941 . S
C138 O139 1.258 . S
C138 O140 1.263 . S
O139 Co136 1.970 . S
O139 C138 1.258 . S
O140 Co137 1.966 . S
O140 C138 1.263 . S
C141 O142 1.235 . S
C141 O168 1.289 . S
O142 C141 1.235 . S
C143 C145 1.400 1_655 S
C143 N146 1.351 . S
C143 C148 1.501 . S
C144 C145 1.387 . S
C144 N147 1.341 . S
C145 C143 1.400 1_455 S
C145 C144 1.387 . S
N146 Co137 2.022 . S
N146 C143 1.351 . S
N146 N147 1.365 1_655 S
N147 C144 1.341 . S
N147 N146 1.365 1_455 S
N147 H167 0.862 . S
C148 C143 1.501 . S
C148 H149 0.961 . S
C148 H150 0.961 . S
C148 H151 0.960 . S
H149 C148 0.961 . S
H150 C148 0.961 . S
H151 C148 0.960 . S
C152 N153 1.342 . S
C152 C156 1.401 . S
C152 C157 1.499 . S
N153 Co136 1.989 . S
N153 C152 1.342 . S
N153 N154 1.388 . S
N154 Co137 1.993 . S
N154 N153 1.388 . S
N154 C155 1.346 . S
C155 N154 1.346 . S
C155 C156 1.396 . S
C155 C165 1.510 . S
C156 C152 1.401 . S
C156 C155 1.396 . S
C157 C152 1.499 . S
C157 H158 0.959 . S
C157 H159 0.960 . S
C157 H160 0.961 . S
H158 C157 0.959 . S
H159 C157 0.960 . S
H160 C157 0.961 . S
O161 Co136 1.967 . S
O161 C169 1.258 . S
O162 Co137 1.941 . S
O162 C169 1.266 . S
H163 C165 0.959 . S
H164 C165 0.961 . S
C165 C155 1.510 . S
C165 H163 0.959 . S
C165 H164 0.961 . S
C165 H166 0.960 . S
H166 C165 0.960 . S
H167 N147 0.862 . S
O168 Co136 1.920 . S
O168 C141 1.289 . S
C169 O161 1.258 . S
C169 O162 1.266 . S
Co170 O173 1.970 . S
Co170 N187 1.989 1_455 S
Co170 O195 1.967 . S
Co170 O202 1.920 . S
Co171 O174 1.966 . S
Co171 N180 2.022 . S
Co171 N188 1.993 1_455 S
Co171 O196 1.941 . S
C172 O173 1.258 . S
C172 O174 1.263 . S
O173 Co170 1.970 . S
O173 C172 1.258 . S
O174 Co171 1.966 . S
O174 C172 1.263 . S
C175 O176 1.235 . S
C175 O202 1.289 . S
O176 C175 1.235 . S
C177 C179 1.400 1_455 S
C177 N180 1.351 . S
C177 C182 1.501 . S
C178 C179 1.387 . S
C178 N181 1.341 . S
C179 C177 1.400 1_655 S
C179 C178 1.387 . S
N180 Co171 2.022 . S
N180 C177 1.351 . S
N180 N181 1.365 1_455 S
N181 C178 1.341 . S
N181 N180 1.365 1_655 S
N181 H201 0.862 . S
C182 C177 1.501 . S
C182 H183 0.961 . S
C182 H184 0.961 . S
C182 H185 0.960 . S
H183 C182 0.961 . S
H184 C182 0.961 . S
H185 C182 0.960 . S
C186 N187 1.342 . S
C186 C190 1.401 . S
C186 C191 1.499 . S
N187 Co170 1.989 1_655 S
N187 C186 1.342 . S
N187 N188 1.388 . S
N188 Co171 1.993 1_655 S
N188 N187 1.388 . S
N188 C189 1.346 . S
C189 N188 1.346 . S
C189 C190 1.396 . S
C189 C199 1.510 . S
C190 C186 1.401 . S
C190 C189 1.396 . S
C191 C186 1.499 . S
C191 H192 0.959 . S
C191 H193 0.960 . S
C191 H194 0.961 . S
H192 C191 0.959 . S
H193 C191 0.960 . S
H194 C191 0.961 . S
O195 Co170 1.967 . S
O195 C203 1.258 . S
O196 Co171 1.941 . S
O196 C203 1.266 . S
H197 C199 0.959 . S
H198 C199 0.961 . S
C199 C189 1.510 . S
C199 H197 0.959 . S
C199 H198 0.961 . S
C199 H200 0.960 . S
H200 C199 0.960 . S
H201 N181 0.862 . S
O202 Co170 1.920 . S
O202 C175 1.289 . S
C203 O195 1.258 . S
C203 O196 1.266 . S
Co204 O207 1.970 . S
Co204 N221 1.989 . S
Co204 O229 1.967 . S
Co204 O236 1.920 . S
Co205 O208 1.966 . S
Co205 N214 2.022 . S
Co205 N222 1.993 . S
Co205 O230 1.941 . S
C206 O207 1.258 . S
C206 O208 1.263 . S
O207 Co204 1.970 . S
O207 C206 1.258 . S
O208 Co205 1.966 . S
O208 C206 1.263 . S
C209 O210 1.235 . S
C209 O236 1.289 . S
O210 C209 1.235 . S
C211 C213 1.400 1_454 S
C211 N214 1.351 . S
C211 C216 1.501 . S
C212 C213 1.387 1_554 S
C212 N215 1.341 . S
C213 C211 1.400 1_656 S
C213 C212 1.387 1_556 S
N214 Co205 2.022 . S
N214 C211 1.351 . S
N214 N215 1.365 1_455 S
N215 C212 1.341 . S
N215 N214 1.365 1_655 S
N215 H235 0.862 . S
C216 C211 1.501 . S
C216 H217 0.961 . S
C216 H218 0.961 1_554 S
C216 H219 0.960 1_554 S
H217 C216 0.961 . S
H218 C216 0.961 1_556 S
H219 C216 0.960 1_556 S
C220 N221 1.342 . S
C220 C224 1.401 . S
C220 C225 1.499 . S
N221 Co204 1.989 . S
N221 C220 1.342 . S
N221 N222 1.388 . S
N222 Co205 1.993 . S
N222 N221 1.388 . S
N222 C223 1.346 . S
C223 N222 1.346 . S
C223 C224 1.396 . S
C223 C233 1.510 . S
C224 C220 1.401 . S
C224 C223 1.396 . S
C225 C220 1.499 . S
C225 H226 0.959 . S
C225 H227 0.960 . S
C225 H228 0.961 . S
H226 C225 0.959 . S
H227 C225 0.960 . S
H228 C225 0.961 . S
O229 Co204 1.967 . S
O229 C237 1.258 . S
O230 Co205 1.941 . S
O230 C237 1.266 . S
H231 C233 0.959 . S
H232 C233 0.961 . S
C233 C223 1.510 . S
C233 H231 0.959 . S
C233 H232 0.961 . S
C233 H234 0.960 . S
H234 C233 0.960 . S
H235 N215 0.862 . S
O236 Co204 1.920 . S
O236 C209 1.289 . S
C237 O229 1.258 . S
C237 O230 1.266 . S
Co238 O241 1.970 . S
Co238 N255 1.989 1_655 S
Co238 O263 1.967 . S
Co238 O270 1.920 . S
Co239 O242 1.966 . S
Co239 N248 2.026 . S
Co239 N256 1.993 1_655 S
Co239 O264 1.941 . S
C240 O241 1.258 . S
C240 O242 1.263 . S
O241 Co238 1.970 . S
O241 C240 1.258 . S
O242 Co239 1.966 . S
O242 C240 1.263 . S
C243 O244 1.235 . S
C243 O270 1.289 . S
O244 C243 1.235 . S
C245 C247 1.400 1_655 S
C245 N248 1.354 . S
C245 C250 1.501 . S
C246 C247 1.387 . S
C246 N249 1.341 . S
C247 C245 1.400 1_455 S
C247 C246 1.387 . S
N248 Co239 2.026 . S
N248 C245 1.354 . S
N248 N249 1.355 1_655 S
N249 C246 1.341 . S
N249 N248 1.355 1_455 S
N249 H269 0.862 . S
C250 C245 1.501 . S
C250 H251 0.961 . S
C250 H252 0.961 . S
C250 H253 0.960 . S
H251 C250 0.961 . S
H252 C250 0.961 . S
H253 C250 0.960 . S
C254 N255 1.342 . S
C254 C258 1.401 . S
C254 C259 1.499 . S
N255 Co238 1.989 1_455 S
N255 C254 1.342 . S
N255 N256 1.388 . S
N256 Co239 1.993 1_455 S
N256 N255 1.388 . S
N256 C257 1.346 . S
C257 N256 1.346 . S
C257 C258 1.396 . S
C257 C267 1.510 . S
C258 C254 1.401 . S
C258 C257 1.396 . S
C259 C254 1.499 . S
C259 H260 0.959 . S
C259 H261 0.960 . S
C259 H262 0.961 . S
H260 C259 0.959 . S
H261 C259 0.960 . S
H262 C259 0.961 . S
O263 Co238 1.967 . S
O263 C271 1.258 . S
O264 Co239 1.941 . S
O264 C271 1.266 . S
H265 C267 0.959 . S
H266 C267 0.961 . S
C267 C257 1.510 . S
C267 H265 0.959 . S
C267 H266 0.961 . S
C267 H268 0.960 . S
H268 C267 0.960 . S
H269 N249 0.862 . S
O270 Co238 1.920 . S
O270 C243 1.289 . S
C271 O263 1.258 . S
C271 O264 1.266 . S
C5 C175 1.080 1_554 S
C209 C39 1.081 . S
C243 C73 1.080 . S
C141 C107 1.081 . S
C111 C33 2.090 1_565 S
C67 C9 2.090 . S
C43 C101 2.090 1_545 S
C135 C77 2.090 . S
C179 C169 2.090 . S
C203 C213 2.089 1_455 S
C237 C247 2.090 . S
C271 C145 2.090 1_655 S
C206 C20 1.499 . S
C240 C54 1.498 . S
C88 C138 1.499 . S
C122 C172 1.498 . S
C156 C70 1.498 . S
C104 C190 1.499 . S
C224 C2 1.498 . S
C36 C258 1.499 . S
