# Generated by pormake.
# Topology sra, (4)-cn, num edge types: 1
# Building blocks:
#     Node 0, Type 0, BuildingBlock: GALJAG_clean_sbu_0, # of connection points: 4
#     Node 1, Type 0, BuildingBlock: GALJAG_clean_sbu_0, # of connection points: 4
#     Node 2, Type 0, BuildingBlock: GALJAG_clean_sbu_0, # of connection points: 4
#     Node 3, Type 0, BuildingBlock: GALJAG_clean_sbu_0, # of connection points: 4
#     Node 4, Type 0, BuildingBlock: GALJAG_clean_sbu_0, # of connection points: 4
#     Node 5, Type 0, BuildingBlock: GALJAG_clean_sbu_0, # of connection points: 4
#     Node 6, Type 0, BuildingBlock: GALJAG_clean_sbu_0, # of connection points: 4
#     Node 7, Type 0, BuildingBlock: GALJAG_clean_sbu_0, # of connection points: 4
#     Edge 8, Type (0, 0), BuildingBlock: XUDNAN_clean_linker_2, # of connection points: 2
#     Edge 9, Type (0, 0), BuildingBlock: XUDNAN_clean_linker_2, # of connection points: 2
#     Edge 10, Type (0, 0), BuildingBlock: XUDNAN_clean_linker_2, # of connection points: 2
#     Edge 11, Type (0, 0), BuildingBlock: XUDNAN_clean_linker_2, # of connection points: 2
#     Edge 12, Type (0, 0), BuildingBlock: XUDNAN_clean_linker_2, # of connection points: 2
#     Edge 13, Type (0, 0), BuildingBlock: XUDNAN_clean_linker_2, # of connection points: 2
#     Edge 14, Type (0, 0), BuildingBlock: XUDNAN_clean_linker_2, # of connection points: 2
#     Edge 15, Type (0, 0), BuildingBlock: XUDNAN_clean_linker_2, # of connection points: 2
#     Edge 16, Type (0, 0), BuildingBlock: XUDNAN_clean_linker_2, # of connection points: 2
#     Edge 17, Type (0, 0), BuildingBlock: XUDNAN_clean_linker_2, # of connection points: 2
#     Edge 18, Type (0, 0), BuildingBlock: XUDNAN_clean_linker_2, # of connection points: 2
#     Edge 19, Type (0, 0), BuildingBlock: XUDNAN_clean_linker_2, # of connection points: 2
#     Edge 20, Type (0, 0), BuildingBlock: XUDNAN_clean_linker_2, # of connection points: 2
#     Edge 21, Type (0, 0), BuildingBlock: XUDNAN_clean_linker_2, # of connection points: 2
#     Edge 22, Type (0, 0), BuildingBlock: XUDNAN_clean_linker_2, # of connection points: 2
#     Edge 23, Type (0, 0), BuildingBlock: XUDNAN_clean_linker_2, # of connection points: 2
# Relax obj value: 0.076
# Max RMSD: 0.110
# Mean RMSD: 0.110
data_MOF--net-sra--node1-GALJAG_clean_sbu_0--edge1-XUDNAN_clean_linker_2
_symmetry_space_group_name_H-M    P1
_symmetry_Int_Tables_number       1
_symmetry_cell_setting            triclinic
loop_
_symmetry_equiv_pos_as_xyz
'x, y, z'
_cell_length_a     28.391204
_cell_length_b     53.63917
_cell_length_c     28.518425
_cell_angle_alpha  90.005287
_cell_angle_beta   89.980553
_cell_angle_gamma 90.049993
loop_
_atom_site_label
_atom_site_type_symbol
_atom_site_fract_x
_atom_site_fract_y
_atom_site_fract_z
_atom_type_partial_charge
In0 In 0.02252 0.10983 0.15777 0.0
O1 O 0.02489 0.10239 0.07882 0.0
O2 O 0.02714 0.07153 0.12589 0.0
C3 C 0.02498 0.15964 0.16662 0.0
C4 C 0.93553 0.09837 0.18906 0.0
C5 C 0.10676 0.1022 0.19872 0.0
O6 O 0.02481 0.14944 0.12658 0.0
O7 O 0.02243 0.14477 0.20073 0.0
O8 O 0.0682 0.09819 0.21956 0.0
O9 O 0.1028 0.10934 0.15673 0.0
C10 C 0.0271 0.07898 0.08396 0.0
O11 O 0.97258 0.09004 0.20788 0.0
O12 O 0.94233 0.1126 0.15446 0.0
In13 In 0.06039 0.3917 0.17077 0.0
O14 O 0.0475 0.41088 0.10019 0.0
O15 O 0.05425 0.4328 0.16281 0.0
C16 C 0.05912 0.34197 0.17271 0.0
C17 C 0.15329 0.39655 0.18277 0.0
C18 C 0.97932 0.39715 0.21711 0.0
O19 O 0.05099 0.35359 0.13468 0.0
O20 O 0.06781 0.35557 0.20779 0.0
O21 O 0.01867 0.402 0.23622 0.0
O22 O 0.98148 0.38949 0.1752 0.0
C23 C 0.04716 0.43236 0.11908 0.0
O24 O 0.12446 0.39958 0.21629 0.0
O25 O 0.13495 0.39153 0.14348 0.0
In26 In 0.03083 0.89181 0.82707 0.0
O27 O 0.97752 0.89647 0.76697 0.0
O28 O 0.95371 0.89707 0.83821 0.0
C29 C 0.12101 0.89533 0.801 0.0
C30 C 0.03281 0.93547 0.87177 0.0
C31 C 0.02611 0.84328 0.84924 0.0
O32 O 0.08829 0.89537 0.77064 0.0
O33 O 0.10778 0.89275 0.84296 0.0
O34 O 0.02611 0.86014 0.88032 0.0
O35 O 0.02849 0.85103 0.80748 0.0
C36 C 0.94336 0.89894 0.79535 0.0
O37 O 0.03072 0.91493 0.89382 0.0
O38 O 0.03396 0.93371 0.82756 0.0
In39 In 0.03321 0.61089 0.84075 0.0
O40 O 0.02567 0.59922 0.91638 0.0
O41 O 0.03919 0.57074 0.8657 0.0
C42 C 0.02509 0.66046 0.85561 0.0
C43 C 0.12444 0.60435 0.81665 0.0
C44 C 0.95039 0.59779 0.80105 0.0
O45 O 0.02445 0.64468 0.8883 0.0
O46 O 0.02945 0.65127 0.81512 0.0
O47 O 0.98556 0.60351 0.77598 0.0
O48 O 0.95724 0.59912 0.8445 0.0
C49 C 0.03192 0.57627 0.90824 0.0
O50 O 0.09172 0.60122 0.78706 0.0
O51 O 0.11089 0.61117 0.85665 0.0
In52 In 0.53602 0.60402 0.66644 0.0
O53 O 0.49048 0.59196 0.72837 0.0
O54 O 0.45575 0.60401 0.66628 0.0
C55 C 0.6242 0.59344 0.69556 0.0
C56 C 0.53039 0.57213 0.59412 0.0
C57 C 0.53689 0.654 0.67328 0.0
O58 O 0.58791 0.5853 0.71622 0.0
O59 O 0.616 0.60697 0.6603 0.0
O60 O 0.53558 0.64324 0.63379 0.0
O61 O 0.53798 0.63956 0.70814 0.0
C62 C 0.45184 0.59614 0.70781 0.0
O63 O 0.53003 0.5955 0.58802 0.0
O64 O 0.53361 0.56521 0.63624 0.0
In65 In 0.53199 0.887 0.65145 0.0
O66 O 0.58034 0.90475 0.70507 0.0
O67 O 0.61223 0.8859 0.64749 0.0
C68 C 0.44734 0.89641 0.6898 0.0
C69 C 0.52856 0.9185 0.57844 0.0
C70 C 0.53365 0.83723 0.66282 0.0
O71 O 0.48562 0.90204 0.70972 0.0
O72 O 0.45172 0.88613 0.65021 0.0
O73 O 0.53415 0.84689 0.62229 0.0
O74 O 0.53242 0.85262 0.69616 0.0
C75 C 0.61793 0.89817 0.68488 0.0
O76 O 0.52648 0.89511 0.57258 0.0
O77 O 0.53261 0.92546 0.62043 0.0
In78 In 0.56046 0.38527 0.33855 0.0
O79 O 0.52058 0.38914 0.2693 0.0
O80 O 0.48211 0.37977 0.33118 0.0
C81 C 0.65114 0.39592 0.32221 0.0
C82 C 0.54237 0.42752 0.38505 0.0
C83 C 0.57255 0.3365 0.35614 0.0
O84 O 0.62174 0.39333 0.2891 0.0
O85 O 0.63446 0.39336 0.36302 0.0
O86 O 0.55338 0.35064 0.38621 0.0
O87 O 0.58421 0.34693 0.31827 0.0
C88 C 0.48093 0.38466 0.28789 0.0
O89 O 0.54617 0.40683 0.40636 0.0
O90 O 0.54753 0.42649 0.34113 0.0
In91 In 0.52545 0.10944 0.33146 0.0
O92 O 0.57537 0.10274 0.26924 0.0
O93 O 0.6005 0.09755 0.33945 0.0
C94 C 0.43417 0.11255 0.30822 0.0
C95 C 0.51687 0.06578 0.37564 0.0
C96 C 0.54749 0.15692 0.35082 0.0
O97 O 0.46537 0.10817 0.27739 0.0
O98 O 0.44973 0.11636 0.34906 0.0
O99 O 0.53586 0.1419 0.38312 0.0
O100 O 0.54694 0.14807 0.30982 0.0
C101 C 0.60932 0.09682 0.29606 0.0
O102 O 0.52579 0.08578 0.39782 0.0
O103 O 0.51186 0.06816 0.33181 0.0
H104 H 0.03878 0.30591 0.10553 0.0
H105 H 0.07598 0.31615 0.25216 0.0
H106 H 0.07101 0.27112 0.26487 0.0
H107 H 0.95551 0.25626 0.12409 0.0
H108 H 0.97208 0.23876 0.07271 0.0
H109 H 0.97918 0.27214 0.07359 0.0
H110 H 0.06764 0.26726 0.05334 0.0
H111 H 0.06075 0.23386 0.05218 0.0
H112 H 0.10438 0.24788 0.08979 0.0
H113 H 0.05931 0.22629 0.26424 0.0
H114 H 0.0459 0.18188 0.24891 0.0
H115 H 0.01844 0.19825 0.10219 0.0
C116 C 0.0461 0.29857 0.14013 0.0
C117 C 0.05762 0.3146 0.17785 0.0
C118 C 0.06696 0.30434 0.22269 0.0
C119 C 0.06423 0.27873 0.23039 0.0
C120 C 0.05234 0.26349 0.1929 0.0
C121 C 0.04376 0.27278 0.14854 0.0
C122 C 0.03171 0.25179 0.11479 0.0
C123 C 0.98164 0.25493 0.09514 0.0
C124 C 0.06832 0.2501 0.07518 0.0
C125 C 0.03476 0.22945 0.14741 0.0
C126 C 0.04645 0.23687 0.1923 0.0
C127 C 0.05038 0.22012 0.22922 0.0
C128 C 0.04249 0.19493 0.22013 0.0
C129 C 0.03115 0.18662 0.17437 0.0
C130 C 0.02723 0.20412 0.13745 0.0
H131 H 0.02838 0.80444 0.7875 0.0
H132 H 0.01878 0.82151 0.93596 0.0
H133 H 0.01556 0.77638 0.95387 0.0
H134 H 0.94959 0.75169 0.78813 0.0
H135 H 0.98353 0.73443 0.74571 0.0
H136 H 0.98412 0.76801 0.74483 0.0
H137 H 0.07521 0.76777 0.75116 0.0
H138 H 0.0749 0.73421 0.75202 0.0
H139 H 0.10293 0.75127 0.7988 0.0
H140 H 0.01456 0.72932 0.95522 0.0
H141 H 0.01683 0.68396 0.94024 0.0
H142 H 0.02736 0.69809 0.79075 0.0
C143 C 0.02544 0.79872 0.82381 0.0
C144 C 0.02375 0.81643 0.8604 0.0
C145 C 0.02008 0.80821 0.90743 0.0
C146 C 0.01819 0.78265 0.91789 0.0
C147 C 0.02 0.76566 0.88091 0.0
C148 C 0.02357 0.77337 0.83482 0.0
C149 C 0.02568 0.75143 0.80154 0.0
C150 C 0.9832 0.7514 0.76809 0.0
C151 C 0.07247 0.75116 0.77429 0.0
C152 C 0.02298 0.73009 0.83609 0.0
C153 C 0.01957 0.73867 0.88168 0.0
C154 C 0.01712 0.7224 0.91967 0.0
C155 C 0.01842 0.69669 0.9108 0.0
C156 C 0.02222 0.68755 0.86435 0.0
C157 C 0.02432 0.70453 0.82662 0.0
H158 H 0.53801 0.69064 0.60494 0.0
H159 H 0.5352 0.67909 0.75571 0.0
H160 H 0.53429 0.72439 0.76817 0.0
H161 H 0.61427 0.74493 0.60733 0.0
H162 H 0.58411 0.76076 0.56039 0.0
H163 H 0.58456 0.72719 0.56249 0.0
H164 H 0.49335 0.72667 0.56017 0.0
H165 H 0.49262 0.76023 0.55808 0.0
H166 H 0.46069 0.74403 0.60344 0.0
H167 H 0.53318 0.77004 0.76549 0.0
H168 H 0.53241 0.81481 0.74784 0.0
H169 H 0.53627 0.79843 0.59866 0.0
C170 C 0.53723 0.69771 0.6405 0.0
C171 C 0.53668 0.68133 0.67937 0.0
C172 C 0.5357 0.69125 0.7254 0.0
C173 C 0.53515 0.71697 0.7329 0.0
C174 C 0.5357 0.7326 0.69403 0.0
C175 C 0.53679 0.72351 0.64872 0.0
C176 C 0.53726 0.74473 0.61344 0.0
C177 C 0.58276 0.74437 0.58419 0.0
C178 C 0.49336 0.74386 0.58193 0.0
C179 C 0.53602 0.76704 0.64618 0.0
C180 C 0.53518 0.75944 0.69246 0.0
C181 C 0.53389 0.77629 0.72943 0.0
C182 C 0.53345 0.80171 0.71895 0.0
C183 C 0.5343 0.81013 0.67187 0.0
C184 C 0.53562 0.79252 0.63496 0.0
H185 H 0.51902 0.30169 0.40387 0.0
H186 H 0.64698 0.31118 0.3227 0.0
H187 H 0.65996 0.26586 0.32365 0.0
H188 H 0.55984 0.24556 0.47386 0.0
H189 H 0.50267 0.23102 0.4707 0.0
H190 H 0.50752 0.26454 0.47174 0.0
H191 H 0.45946 0.26712 0.39474 0.0
H192 H 0.45467 0.23369 0.39332 0.0
H193 H 0.47931 0.25011 0.3439 0.0
H194 H 0.65309 0.22062 0.32117 0.0
H195 H 0.62731 0.17678 0.31714 0.0
H196 H 0.50443 0.19445 0.40094 0.0
C197 C 0.55053 0.29416 0.38784 0.0
C198 C 0.58233 0.30983 0.36361 0.0
C199 C 0.62238 0.29942 0.34157 0.0
C200 C 0.63017 0.27373 0.34212 0.0
C201 C 0.59755 0.25861 0.36486 0.0
C202 C 0.55861 0.2683 0.38762 0.0
C203 C 0.52648 0.24748 0.40462 0.0
C204 C 0.524 0.24713 0.45844 0.0
C205 C 0.47707 0.24974 0.38283 0.0
C206 C 0.55251 0.22479 0.38604 0.0
C207 C 0.59375 0.23178 0.3638 0.0
C208 C 0.62159 0.21477 0.33951 0.0
C209 C 0.60663 0.18998 0.33724 0.0
C210 C 0.56455 0.18237 0.35946 0.0
C211 C 0.53752 0.19982 0.38497 0.0
H212 H 0.3873 0.11161 0.2231 0.0
H213 H 0.36535 0.10974 0.37378 0.0
H214 H 0.28016 0.10479 0.36157 0.0
H215 H 0.2827 0.14768 0.1974 0.0
H216 H 0.27009 0.13148 0.14347 0.0
H217 H 0.32996 0.13414 0.16373 0.0
H218 H 0.33853 0.08608 0.1604 0.0
H219 H 0.27852 0.08327 0.14051 0.0
H220 H 0.29749 0.06678 0.19223 0.0
H221 H 0.19809 0.099 0.33414 0.0
H222 H 0.12203 0.09716 0.2925 0.0
H223 H 0.19503 0.1048 0.15946 0.0
C224 C 0.36446 0.1102 0.2534 0.0
C225 C 0.38298 0.11101 0.29936 0.0
C226 C 0.35199 0.10926 0.33821 0.0
C227 C 0.30352 0.10629 0.3317 0.0
C228 C 0.28635 0.10535 0.28611 0.0
C229 C 0.3156 0.10759 0.24755 0.0
C230 C 0.28737 0.10695 0.20241 0.0
C231 C 0.29286 0.13153 0.17516 0.0
C232 C 0.30132 0.08443 0.17211 0.0
C233 C 0.23789 0.10404 0.22181 0.0
C234 C 0.23832 0.10283 0.27017 0.0
C235 C 0.19717 0.10001 0.29625 0.0
C236 C 0.15418 0.09888 0.27229 0.0
C237 C 0.15267 0.10086 0.22284 0.0
C238 C 0.19517 0.10323 0.19732 0.0
H239 H 0.70011 0.39117 0.23996 0.0
H240 H 0.71659 0.40984 0.38709 0.0
H241 H 0.80244 0.4142 0.37567 0.0
H242 H 0.80177 0.35371 0.23195 0.0
H243 H 0.81697 0.36333 0.17331 0.0
H244 H 0.75644 0.36384 0.19203 0.0
H245 H 0.7506 0.41064 0.17008 0.0
H246 H 0.8111 0.41024 0.15101 0.0
H247 H 0.79224 0.43244 0.19457 0.0
H248 H 0.88705 0.41453 0.34897 0.0
H249 H 0.964 0.41043 0.30879 0.0
H250 H 0.89176 0.39059 0.17996 0.0
C251 C 0.72172 0.39659 0.26955 0.0
C252 C 0.7018 0.40033 0.31431 0.0
C253 C 0.73123 0.40696 0.35244 0.0
C254 C 0.77999 0.40952 0.3463 0.0
C255 C 0.79869 0.4053 0.30187 0.0
C256 C 0.77047 0.39901 0.26414 0.0
C257 C 0.79959 0.39416 0.22066 0.0
C258 C 0.79331 0.36716 0.2035 0.0
C259 C 0.78767 0.413 0.18179 0.0
C260 C 0.84855 0.39848 0.23995 0.0
C261 C 0.84736 0.40506 0.28675 0.0
C262 C 0.88844 0.40951 0.31224 0.0
C263 C 0.93192 0.40711 0.28921 0.0
C264 C 0.93378 0.40019 0.24137 0.0
C265 C 0.89147 0.39593 0.21658 0.0
H266 H 0.16747 0.88691 0.71733 0.0
H267 H 0.18762 0.91251 0.86034 0.0
H268 H 0.27223 0.91823 0.84526 0.0
H269 H 0.27286 0.85141 0.71212 0.0
H270 H 0.28585 0.85861 0.65174 0.0
H271 H 0.22577 0.85861 0.67195 0.0
H272 H 0.21561 0.90399 0.64248 0.0
H273 H 0.27573 0.90412 0.62216 0.0
H274 H 0.25578 0.92779 0.66239 0.0
H275 H 0.35431 0.91969 0.81687 0.0
H276 H 0.43091 0.91493 0.77716 0.0
H277 H 0.35969 0.88703 0.65303 0.0
C278 C 0.18972 0.89403 0.74511 0.0
C279 C 0.17112 0.89935 0.78991 0.0
C280 C 0.20127 0.90825 0.82577 0.0
C281 C 0.24933 0.91169 0.81753 0.0
C282 C 0.26682 0.90601 0.7733 0.0
C283 C 0.2382 0.89727 0.73766 0.0
C284 C 0.26694 0.89108 0.69437 0.0
C285 C 0.26259 0.86328 0.68183 0.0
C286 C 0.25266 0.90774 0.6529 0.0
C287 C 0.31603 0.89741 0.71166 0.0
C288 C 0.31494 0.90629 0.75709 0.0
C289 C 0.35573 0.91288 0.78118 0.0
C290 C 0.39904 0.91011 0.75835 0.0
C291 C 0.40118 0.90062 0.7121 0.0
C292 C 0.35906 0.8944 0.68837 0.0
H293 H 0.70708 0.61494 0.66643 0.0
H294 H 0.65014 0.55961 0.76198 0.0
H295 H 0.73008 0.55132 0.79201 0.0
H296 H 0.82011 0.58296 0.64207 0.0
H297 H 0.85311 0.61168 0.6414 0.0
H298 H 0.79221 0.61148 0.62351 0.0
H299 H 0.77335 0.64564 0.68491 0.0
H300 H 0.83411 0.64601 0.70281 0.0
H301 H 0.78848 0.64048 0.74553 0.0
H302 H 0.8133 0.55184 0.8171 0.0
H303 H 0.89545 0.56187 0.83764 0.0
H304 H 0.90082 0.6164 0.72557 0.0
C305 C 0.71163 0.60078 0.69311 0.0
C306 C 0.67247 0.5878 0.71178 0.0
C307 C 0.67963 0.56972 0.74718 0.0
C308 C 0.72493 0.5648 0.76426 0.0
C309 C 0.76272 0.57807 0.74551 0.0
C310 C 0.7567 0.5957 0.71074 0.0
C311 C 0.8029 0.60866 0.69935 0.0
C312 C 0.81797 0.60337 0.64856 0.0
C313 C 0.79949 0.63686 0.70873 0.0
C314 C 0.83555 0.596 0.73405 0.0
C315 C 0.81153 0.57823 0.7599 0.0
C316 C 0.83271 0.56538 0.79662 0.0
C317 C 0.87931 0.57122 0.80804 0.0
C318 C 0.90442 0.58961 0.78272 0.0
C319 C 0.88268 0.60178 0.74454 0.0
H320 H 0.70434 0.88357 0.65119 0.0
H321 H 0.6371 0.9252 0.76331 0.0
H322 H 0.71462 0.93286 0.79934 0.0
H323 H 0.78803 0.85324 0.72155 0.0
H324 H 0.83532 0.85468 0.67945 0.0
H325 H 0.77513 0.85435 0.65969 0.0
H326 H 0.78928 0.89539 0.61386 0.0
H327 H 0.84963 0.89584 0.63347 0.0
H328 H 0.81204 0.92229 0.64427 0.0
H329 H 0.79665 0.93269 0.82719 0.0
H330 H 0.88026 0.92539 0.84525 0.0
H331 H 0.89679 0.8849 0.71456 0.0
C332 C 0.7061 0.89462 0.68292 0.0
C333 C 0.66478 0.90386 0.70446 0.0
C334 C 0.66832 0.918 0.74621 0.0
C335 C 0.71219 0.92251 0.76686 0.0
C336 C 0.75216 0.9129 0.74514 0.0
C337 C 0.74974 0.89936 0.70401 0.0
C338 C 0.79805 0.89004 0.68947 0.0
C339 C 0.79918 0.86138 0.68744 0.0
C340 C 0.81313 0.90158 0.64248 0.0
C341 C 0.82773 0.89993 0.72957 0.0
C342 C 0.80036 0.91317 0.76104 0.0
C343 C 0.81864 0.92271 0.80254 0.0
C344 C 0.86607 0.91837 0.81254 0.0
C345 C 0.89481 0.90475 0.78109 0.0
C346 C 0.87566 0.89577 0.73867 0.0
H347 H 0.36391 0.60081 0.66866 0.0
H348 H 0.43561 0.58553 0.79996 0.0
H349 H 0.35893 0.58374 0.84062 0.0
H350 H 0.27619 0.64032 0.71453 0.0
H351 H 0.22947 0.62908 0.67732 0.0
H352 H 0.28964 0.62752 0.65762 0.0
H353 H 0.2811 0.58 0.64392 0.0
H354 H 0.22076 0.5814 0.66341 0.0
H355 H 0.26145 0.56031 0.69129 0.0
H356 H 0.27626 0.58721 0.86814 0.0
H357 H 0.19135 0.59353 0.88087 0.0
H358 H 0.17129 0.60488 0.73153 0.0
C359 C 0.36339 0.59678 0.70587 0.0
C360 C 0.4057 0.5933 0.73123 0.0
C361 C 0.40364 0.58817 0.77986 0.0
C362 C 0.36027 0.58712 0.80324 0.0
C363 C 0.31927 0.59097 0.77738 0.0
C364 C 0.3203 0.59544 0.72971 0.0
C365 C 0.27101 0.59957 0.71057 0.0
C366 C 0.26632 0.62568 0.68873 0.0
C367 C 0.25781 0.57909 0.6752 0.0
C368 C 0.24224 0.59732 0.75519 0.0
C369 C 0.27097 0.59233 0.79321 0.0
C370 C 0.25332 0.59078 0.8386 0.0
C371 C 0.20506 0.59451 0.84546 0.0
C372 C 0.17478 0.59956 0.80714 0.0
C373 C 0.19357 0.6007 0.76131 0.0
H374 H 0.65744 0.11483 0.21937 0.0
H375 H 0.66833 0.06411 0.33725 0.0
H376 H 0.75153 0.05609 0.31777 0.0
H377 H 0.74096 0.08137 0.13965 0.0
H378 H 0.76559 0.11006 0.11765 0.0
H379 H 0.70492 0.10897 0.13623 0.0
H380 H 0.72044 0.14561 0.19336 0.0
H381 H 0.78115 0.14667 0.17534 0.0
H382 H 0.7666 0.14288 0.23646 0.0
H383 H 0.83456 0.05681 0.29157 0.0
H384 H 0.9133 0.06601 0.25935 0.0
H385 H 0.85062 0.11707 0.15914 0.0
C386 C 0.6771 0.10146 0.23999 0.0
C387 C 0.65657 0.08981 0.2794 0.0
C388 C 0.68355 0.07307 0.30673 0.0
C389 C 0.73073 0.06835 0.29589 0.0
C390 C 0.75054 0.08064 0.25772 0.0
C391 C 0.7247 0.09679 0.23 0.0
C392 C 0.75594 0.10931 0.19378 0.0
C393 C 0.74096 0.10198 0.14386 0.0
C394 C 0.75603 0.1378 0.20015 0.0
C395 C 0.80333 0.0981 0.20633 0.0
C396 C 0.7992 0.08141 0.24297 0.0
C397 C 0.83824 0.06959 0.26243 0.0
C398 C 0.88283 0.075 0.24403 0.0
C399 C 0.88803 0.09217 0.2067 0.0
C400 C 0.84764 0.10369 0.18742 0.0
H401 H 0.20216 0.39406 0.26522 0.0
H402 H 0.22047 0.39992 0.11459 0.0
H403 H 0.30688 0.39812 0.12468 0.0
H404 H 0.30484 0.4305 0.29897 0.0
H405 H 0.31836 0.41067 0.34817 0.0
H406 H 0.25829 0.41409 0.32896 0.0
H407 H 0.25148 0.36613 0.31996 0.0
H408 H 0.31164 0.36256 0.33873 0.0
H409 H 0.29299 0.3498 0.28328 0.0
H410 H 0.39157 0.39484 0.15145 0.0
H411 H 0.46764 0.38995 0.19304 0.0
H412 H 0.39274 0.38441 0.32531 0.0
C413 C 0.2244 0.39534 0.23445 0.0
C414 C 0.2048 0.3973 0.18918 0.0
C415 C 0.23492 0.39848 0.14963 0.0
C416 C 0.28398 0.39748 0.15499 0.0
C417 C 0.30224 0.39512 0.2001 0.0
C418 C 0.27336 0.39406 0.23913 0.0
C419 C 0.30164 0.39046 0.28352 0.0
C420 C 0.29541 0.41276 0.31686 0.0
C421 C 0.28866 0.36577 0.30778 0.0
C422 C 0.35089 0.38959 0.26339 0.0
C423 C 0.35065 0.39248 0.21527 0.0
C424 C 0.3922 0.39252 0.18913 0.0
C425 C 0.43516 0.38969 0.21297 0.0
C426 C 0.43598 0.38663 0.26225 0.0
C427 C 0.39321 0.38648 0.28753 0.0
H428 H 0.02819 0.02834 0.08913 0.0
H429 H 0.0304 0.0897 0.98991 0.0
H430 H 0.03323 0.05946 0.92431 0.0
H431 H 0.10745 0.98807 0.02658 0.0
H432 H 0.07586 0.96007 0.04192 0.0
H433 H 0.07469 0.98657 0.08067 0.0
H434 H 0.98341 0.98659 0.07815 0.0
H435 H 0.98429 0.9601 0.0394 0.0
H436 H 0.95378 0.98812 0.02232 0.0
H437 H 0.03519 0.0224 0.87004 0.0
H438 H 0.03537 0.9814 0.83071 0.0
H439 H 0.03134 0.9446 0.96623 0.0
C440 C 0.02941 0.03547 0.05361 0.0
C441 C 0.02916 0.06133 0.04445 0.0
C442 C 0.0306 0.06992 -0.00244 0.0
C443 C 0.03224 0.05291 0.96019 0.0
C444 C 0.03236 0.02749 0.97053 0.0
C445 C 0.03095 0.01882 0.0161 0.0
C446 C 0.03081 0.99064 0.01793 0.0
C447 C 0.07483 0.98077 0.04327 0.0
C448 C 0.98537 0.98079 0.04079 0.0
C449 C 0.03227 0.98473 0.96616 0.0
C450 C 0.03326 0.00623 0.93939 0.0
C451 C 0.03447 0.00546 0.89063 0.0
C452 C 0.03456 0.98209 0.86866 0.0
C453 C 0.03336 0.95987 0.8955 0.0
C454 C 0.0323 0.96128 0.94485 0.0
H455 H 0.04679 0.52583 0.90065 0.0
H456 H 0.0122 0.58424 0.00033 0.0
H457 H 0.00855 0.55309 0.06369 0.0
H458 H 0.97201 0.47777 0.9518 0.0
H459 H 0.0136 0.45304 0.94109 0.0
H460 H 0.01189 0.47972 0.90272 0.0
H461 H 0.10066 0.48765 0.9177 0.0
H462 H 0.10269 0.46098 0.95599 0.0
H463 H 0.12149 0.49106 0.97707 0.0
H464 H 0.01159 0.51674 0.11626 0.0
H465 H 0.0219 0.47664 0.15661 0.0
H466 H 0.05375 0.44083 0.02376 0.0
C467 C 0.03823 0.532 0.93579 0.0
C468 C 0.02975 0.55742 0.94569 0.0
C469 C 0.01886 0.56486 0.99205 0.0
C470 C 0.01657 0.54731 0.02822 0.0
C471 C 0.02517 0.52243 0.01737 0.0
C472 C 0.0358 0.51469 0.97242 0.0
C473 C 0.04488 0.48683 0.97085 0.0
C474 C 0.00841 0.47356 0.93977 0.0
C475 C 0.09544 0.48132 0.95444 0.0
C476 C 0.03818 0.48024 0.0221 0.0
C477 C 0.02667 0.50113 0.04809 0.0
C478 C 0.02032 0.50021 0.09635 0.0
C479 C 0.0264 0.47734 0.11891 0.0
C480 C 0.03859 0.45568 0.09324 0.0
C481 C 0.04399 0.45708 0.04409 0.0
H482 H 0.54077 0.43678 0.47984 0.0
H483 H 0.52701 0.47258 0.34404 0.0
H484 H 0.51904 0.51344 0.38276 0.0
H485 H 0.4578 0.4772 0.54244 0.0
H486 H 0.49263 0.47742 0.59527 0.0
H487 H 0.4941 0.45073 0.55691 0.0
H488 H 0.58494 0.45458 0.55101 0.0
H489 H 0.58372 0.48132 0.58911 0.0
H490 H 0.61069 0.48362 0.53205 0.0
H491 H 0.51721 0.55073 0.4358 0.0
H492 H 0.52017 0.58166 0.50018 0.0
H493 H 0.53491 0.52152 0.60095 0.0
C494 C 0.53543 0.45318 0.45835 0.0
C495 C 0.53443 0.45153 0.40901 0.0
C496 C 0.52787 0.47343 0.38197 0.0
C497 C 0.52324 0.49673 0.4036 0.0
C498 C 0.52511 0.49781 0.45229 0.0
C499 C 0.53081 0.47663 0.47938 0.0
C500 C 0.53341 0.48307 0.53096 0.0
C501 C 0.49201 0.47141 0.55798 0.0
C502 C 0.58102 0.47518 0.552 0.0
C503 C 0.52899 0.51116 0.52848 0.0
C504 C 0.52403 0.51931 0.48284 0.0
C505 C 0.52071 0.54458 0.47177 0.0
C506 C 0.52252 0.56199 0.50846 0.0
C507 C 0.52765 0.55397 0.55542 0.0
C508 C 0.53072 0.52822 0.56537 0.0
H509 H 0.53813 0.96876 0.58546 0.0
H510 H 0.51208 0.90959 0.48492 0.0
H511 H 0.50486 0.94112 0.42175 0.0
H512 H 0.45735 0.013 0.53789 0.0
H513 H 0.49477 0.03946 0.54951 0.0
H514 H 0.49816 0.01223 0.5863 0.0
H515 H 0.58768 0.00877 0.56962 0.0
H516 H 0.58465 0.03605 0.53298 0.0
H517 H 0.60809 0.00737 0.50981 0.0
H518 H 0.49976 0.97934 0.3703 0.0
H519 H 0.49981 0.021 0.33357 0.0
H520 H 0.52967 0.05479 0.46866 0.0
C521 C 0.53097 0.96236 0.55015 0.0
C522 C 0.52558 0.93675 0.53994 0.0
C523 C 0.51637 0.92914 0.49334 0.0
C524 C 0.51213 0.9469 0.45738 0.0
C525 C 0.51733 0.97205 0.46882 0.0
C526 C 0.52676 0.97973 0.51406 0.0
C527 C 0.53116 0.00779 0.51731 0.0
C528 C 0.49308 0.01876 0.54966 0.0
C529 C 0.58085 0.01543 0.53337 0.0
C530 C 0.52264 0.01481 0.46673 0.0
C531 C 0.51462 0.99396 0.43933 0.0
C532 C 0.50603 0.99578 0.39141 0.0
C533 C 0.50606 0.01953 0.37093 0.0
C534 C 0.5147 0.0411 0.39834 0.0
C535 C 0.52282 0.03864 0.44688 0.0
loop_
_geom_bond_atom_site_label_1
_geom_bond_atom_site_label_2
_geom_bond_distance
_geom_bond_site_symmetry_2
_ccdc_geom_bond_type
In0 O1 2.294 . S
In0 O2 2.326 . S
In0 O6 2.266 . S
In0 O7 2.326 . S
In0 O8 2.266 . S
In0 O9 2.326 . S
In0 O11 2.294 1_455 S
In0 O12 2.326 1_455 S
O1 In0 2.294 . S
O1 C10 1.240 . S
O2 In0 2.326 . S
O2 C10 1.252 . S
C3 O6 1.252 . S
C3 O7 1.260 . S
C4 O11 1.240 . S
C4 O12 1.252 . S
C5 O8 1.252 . S
C5 O9 1.260 . S
O6 In0 2.266 . S
O6 C3 1.252 . S
O7 In0 2.326 . S
O7 C3 1.260 . S
O8 In0 2.266 . S
O8 C5 1.252 . S
O9 In0 2.326 . S
O9 C5 1.260 . S
C10 O1 1.240 . S
C10 O2 1.252 . S
O11 In0 2.294 1_655 S
O11 C4 1.240 . S
O12 In0 2.326 1_655 S
O12 C4 1.252 . S
In13 O14 2.294 . S
In13 O15 2.326 . S
In13 O19 2.266 . S
In13 O20 2.326 . S
In13 O21 2.266 1_455 S
In13 O22 2.326 1_455 S
In13 O24 2.294 . S
In13 O25 2.326 . S
O14 In13 2.294 . S
O14 C23 1.240 . S
O15 In13 2.326 . S
O15 C23 1.252 . S
C16 O19 1.252 . S
C16 O20 1.260 . S
C17 O24 1.240 . S
C17 O25 1.252 . S
C18 O21 1.252 . S
C18 O22 1.260 . S
O19 In13 2.266 . S
O19 C16 1.252 . S
O20 In13 2.326 . S
O20 C16 1.260 . S
O21 In13 2.266 1_655 S
O21 C18 1.252 . S
O22 In13 2.326 1_655 S
O22 C18 1.260 . S
C23 O14 1.240 . S
C23 O15 1.252 . S
O24 In13 2.294 . S
O24 C17 1.240 . S
O25 In13 2.326 . S
O25 C17 1.252 . S
In26 O27 2.294 1_455 S
In26 O28 2.326 1_455 S
In26 O32 2.266 . S
In26 O33 2.326 . S
In26 O34 2.266 . S
In26 O35 2.326 . S
In26 O37 2.294 . S
In26 O38 2.326 . S
O27 In26 2.294 1_655 S
O27 C36 1.240 . S
O28 In26 2.326 1_655 S
O28 C36 1.252 . S
C29 O32 1.252 . S
C29 O33 1.260 . S
C30 O37 1.240 . S
C30 O38 1.252 . S
C31 O34 1.252 . S
C31 O35 1.260 . S
O32 In26 2.266 . S
O32 C29 1.252 . S
O33 In26 2.326 . S
O33 C29 1.260 . S
O34 In26 2.266 . S
O34 C31 1.252 . S
O35 In26 2.326 . S
O35 C31 1.260 . S
C36 O27 1.240 . S
C36 O28 1.252 . S
O37 In26 2.294 . S
O37 C30 1.240 . S
O38 In26 2.326 . S
O38 C30 1.252 . S
In39 O40 2.294 . S
In39 O41 2.326 . S
In39 O45 2.266 . S
In39 O46 2.326 . S
In39 O47 2.266 1_455 S
In39 O48 2.326 1_455 S
In39 O50 2.294 . S
In39 O51 2.326 . S
O40 In39 2.294 . S
O40 C49 1.240 . S
O41 In39 2.326 . S
O41 C49 1.252 . S
C42 O45 1.252 . S
C42 O46 1.260 . S
C43 O50 1.240 . S
C43 O51 1.252 . S
C44 O47 1.252 . S
C44 O48 1.260 . S
O45 In39 2.266 . S
O45 C42 1.252 . S
O46 In39 2.326 . S
O46 C42 1.260 . S
O47 In39 2.266 1_655 S
O47 C44 1.252 . S
O48 In39 2.326 1_655 S
O48 C44 1.260 . S
C49 O40 1.240 . S
C49 O41 1.252 . S
O50 In39 2.294 . S
O50 C43 1.240 . S
O51 In39 2.326 . S
O51 C43 1.252 . S
In52 O53 2.294 . S
In52 O54 2.326 . S
In52 O58 2.266 . S
In52 O59 2.326 . S
In52 O60 2.266 . S
In52 O61 2.326 . S
In52 O63 2.294 . S
In52 O64 2.326 . S
O53 In52 2.294 . S
O53 C62 1.240 . S
O54 In52 2.326 . S
O54 C62 1.252 . S
C55 O58 1.252 . S
C55 O59 1.260 . S
C56 O63 1.240 . S
C56 O64 1.252 . S
C57 O60 1.252 . S
C57 O61 1.260 . S
O58 In52 2.266 . S
O58 C55 1.252 . S
O59 In52 2.326 . S
O59 C55 1.260 . S
O60 In52 2.266 . S
O60 C57 1.252 . S
O61 In52 2.326 . S
O61 C57 1.260 . S
C62 O53 1.240 . S
C62 O54 1.252 . S
O63 In52 2.294 . S
O63 C56 1.240 . S
O64 In52 2.326 . S
O64 C56 1.252 . S
In65 O66 2.294 . S
In65 O67 2.326 . S
In65 O71 2.266 . S
In65 O72 2.326 . S
In65 O73 2.266 . S
In65 O74 2.326 . S
In65 O76 2.294 . S
In65 O77 2.326 . S
O66 In65 2.294 . S
O66 C75 1.240 . S
O67 In65 2.326 . S
O67 C75 1.252 . S
C68 O71 1.252 . S
C68 O72 1.260 . S
C69 O76 1.240 . S
C69 O77 1.252 . S
C70 O73 1.252 . S
C70 O74 1.260 . S
O71 In65 2.266 . S
O71 C68 1.252 . S
O72 In65 2.326 . S
O72 C68 1.260 . S
O73 In65 2.266 . S
O73 C70 1.252 . S
O74 In65 2.326 . S
O74 C70 1.260 . S
C75 O66 1.240 . S
C75 O67 1.252 . S
O76 In65 2.294 . S
O76 C69 1.240 . S
O77 In65 2.326 . S
O77 C69 1.252 . S
In78 O79 2.294 . S
In78 O80 2.326 . S
In78 O84 2.266 . S
In78 O85 2.326 . S
In78 O86 2.266 . S
In78 O87 2.326 . S
In78 O89 2.294 . S
In78 O90 2.326 . S
O79 In78 2.294 . S
O79 C88 1.240 . S
O80 In78 2.326 . S
O80 C88 1.252 . S
C81 O84 1.252 . S
C81 O85 1.260 . S
C82 O89 1.240 . S
C82 O90 1.252 . S
C83 O86 1.252 . S
C83 O87 1.260 . S
O84 In78 2.266 . S
O84 C81 1.252 . S
O85 In78 2.326 . S
O85 C81 1.260 . S
O86 In78 2.266 . S
O86 C83 1.252 . S
O87 In78 2.326 . S
O87 C83 1.260 . S
C88 O79 1.240 . S
C88 O80 1.252 . S
O89 In78 2.294 . S
O89 C82 1.240 . S
O90 In78 2.326 . S
O90 C82 1.252 . S
In91 O92 2.294 . S
In91 O93 2.326 . S
In91 O97 2.266 . S
In91 O98 2.326 . S
In91 O99 2.266 . S
In91 O100 2.326 . S
In91 O102 2.294 . S
In91 O103 2.326 . S
O92 In91 2.294 . S
O92 C101 1.240 . S
O93 In91 2.326 . S
O93 C101 1.252 . S
C94 O97 1.252 . S
C94 O98 1.260 . S
C95 O102 1.240 . S
C95 O103 1.252 . S
C96 O99 1.252 . S
C96 O100 1.260 . S
O97 In91 2.266 . S
O97 C94 1.252 . S
O98 In91 2.326 . S
O98 C94 1.260 . S
O99 In91 2.266 . S
O99 C96 1.252 . S
O100 In91 2.326 . S
O100 C96 1.260 . S
C101 O92 1.240 . S
C101 O93 1.252 . S
O102 In91 2.294 . S
O102 C95 1.240 . S
O103 In91 2.326 . S
O103 C95 1.252 . S
H104 C116 0.930 . S
H105 C118 0.930 . S
H106 C119 0.930 . S
H107 C123 0.959 1_655 S
H108 C123 0.959 . S
H109 C123 0.961 . S
H110 C124 0.960 . S
H111 C124 0.961 . S
H112 C124 0.959 . S
H113 C127 0.929 . S
H114 C128 0.931 . S
H115 C130 0.930 . S
C116 H104 0.930 . S
C116 C117 1.399 . S
C116 C121 1.399 . S
C117 C116 1.399 . S
C117 C118 1.376 . S
C118 H105 0.930 . S
C118 C117 1.376 . S
C118 C119 1.388 . S
C119 H106 0.930 . S
C119 C118 1.388 . S
C119 C120 1.390 . S
C120 C119 1.390 . S
C120 C121 1.394 . S
C120 C126 1.465 . S
C121 C116 1.399 . S
C121 C120 1.394 . S
C121 C122 1.516 . S
C122 C121 1.516 . S
C122 C123 1.502 . S
C122 C124 1.561 . S
C122 C125 1.526 . S
C123 H107 0.959 1_455 S
C123 H108 0.959 . S
C123 H109 0.961 . S
C123 C122 1.502 . S
C124 H110 0.960 . S
C124 H111 0.961 . S
C124 H112 0.959 . S
C124 C122 1.561 . S
C125 C122 1.526 . S
C125 C126 1.396 . S
C125 C130 1.390 . S
C126 C120 1.465 . S
C126 C125 1.396 . S
C126 C127 1.399 . S
C127 H113 0.929 . S
C127 C126 1.399 . S
C127 C128 1.385 . S
C128 H114 0.931 . S
C128 C127 1.385 . S
C128 C129 1.389 . S
C129 C128 1.389 . S
C129 C130 1.387 . S
C130 H115 0.930 . S
C130 C125 1.390 . S
C130 C129 1.387 . S
H131 C143 0.930 . S
H132 C145 0.930 . S
H133 C146 0.930 . S
H134 C150 0.959 . S
H135 C150 0.959 . S
H136 C150 0.961 . S
H137 C151 0.960 . S
H138 C151 0.961 . S
H139 C151 0.959 . S
H140 C154 0.929 . S
H141 C155 0.931 . S
H142 C157 0.930 . S
C143 H131 0.930 . S
C143 C144 1.399 . S
C143 C148 1.399 . S
C144 C143 1.399 . S
C144 C145 1.376 . S
C145 H132 0.930 . S
C145 C144 1.376 . S
C145 C146 1.388 . S
C146 H133 0.930 . S
C146 C145 1.388 . S
C146 C147 1.390 . S
C147 C146 1.390 . S
C147 C148 1.394 . S
C147 C153 1.465 . S
C148 C143 1.399 . S
C148 C147 1.394 . S
C148 C149 1.516 . S
C149 C148 1.516 . S
C149 C150 1.502 1_455 S
C149 C151 1.561 . S
C149 C152 1.526 . S
C150 H134 0.959 . S
C150 H135 0.959 . S
C150 H136 0.961 . S
C150 C149 1.502 1_655 S
C151 H137 0.960 . S
C151 H138 0.961 . S
C151 H139 0.959 . S
C151 C149 1.561 . S
C152 C149 1.526 . S
C152 C153 1.396 . S
C152 C157 1.390 . S
C153 C147 1.465 . S
C153 C152 1.396 . S
C153 C154 1.399 . S
C154 H140 0.929 . S
C154 C153 1.399 . S
C154 C155 1.385 . S
C155 H141 0.931 . S
C155 C154 1.385 . S
C155 C156 1.389 . S
C156 C155 1.389 . S
C156 C157 1.387 . S
C157 H142 0.930 . S
C157 C152 1.390 . S
C157 C156 1.387 . S
H158 C170 0.930 . S
H159 C172 0.930 . S
H160 C173 0.930 . S
H161 C177 0.959 . S
H162 C177 0.959 . S
H163 C177 0.961 . S
H164 C178 0.960 . S
H165 C178 0.961 . S
H166 C178 0.959 . S
H167 C181 0.929 . S
H168 C182 0.931 . S
H169 C184 0.930 . S
C170 H158 0.930 . S
C170 C171 1.399 . S
C170 C175 1.399 . S
C171 C170 1.399 . S
C171 C172 1.376 . S
C172 H159 0.930 . S
C172 C171 1.376 . S
C172 C173 1.388 . S
C173 H160 0.930 . S
C173 C172 1.388 . S
C173 C174 1.390 . S
C174 C173 1.390 . S
C174 C175 1.394 . S
C174 C180 1.465 . S
C175 C170 1.399 . S
C175 C174 1.394 . S
C175 C176 1.516 . S
C176 C175 1.516 . S
C176 C177 1.502 . S
C176 C178 1.561 . S
C176 C179 1.526 . S
C177 H161 0.959 . S
C177 H162 0.959 . S
C177 H163 0.961 . S
C177 C176 1.502 . S
C178 H164 0.960 . S
C178 H165 0.961 . S
C178 H166 0.959 . S
C178 C176 1.561 . S
C179 C176 1.526 . S
C179 C180 1.396 . S
C179 C184 1.390 . S
C180 C174 1.465 . S
C180 C179 1.396 . S
C180 C181 1.399 . S
C181 H167 0.929 . S
C181 C180 1.399 . S
C181 C182 1.385 . S
C182 H168 0.931 . S
C182 C181 1.385 . S
C182 C183 1.389 . S
C183 C182 1.389 . S
C183 C184 1.387 . S
C184 H169 0.930 . S
C184 C179 1.390 . S
C184 C183 1.387 . S
H185 C197 0.930 . S
H186 C199 0.930 . S
H187 C200 0.930 . S
H188 C204 0.959 . S
H189 C204 0.959 . S
H190 C204 0.961 . S
H191 C205 0.960 . S
H192 C205 0.961 . S
H193 C205 0.959 . S
H194 C208 0.929 . S
H195 C209 0.931 . S
H196 C211 0.930 . S
C197 H185 0.930 . S
C197 C198 1.399 . S
C197 C202 1.399 . S
C198 C197 1.399 . S
C198 C199 1.376 . S
C199 H186 0.930 . S
C199 C198 1.376 . S
C199 C200 1.388 . S
C200 H187 0.930 . S
C200 C199 1.388 . S
C200 C201 1.390 . S
C201 C200 1.390 . S
C201 C202 1.394 . S
C201 C207 1.465 . S
C202 C197 1.399 . S
C202 C201 1.394 . S
C202 C203 1.516 . S
C203 C202 1.516 . S
C203 C204 1.502 . S
C203 C205 1.561 . S
C203 C206 1.526 . S
C204 H188 0.959 . S
C204 H189 0.959 . S
C204 H190 0.961 . S
C204 C203 1.502 . S
C205 H191 0.960 . S
C205 H192 0.961 . S
C205 H193 0.959 . S
C205 C203 1.561 . S
C206 C203 1.526 . S
C206 C207 1.396 . S
C206 C211 1.390 . S
C207 C201 1.465 . S
C207 C206 1.396 . S
C207 C208 1.399 . S
C208 H194 0.929 . S
C208 C207 1.399 . S
C208 C209 1.385 . S
C209 H195 0.931 . S
C209 C208 1.385 . S
C209 C210 1.389 . S
C210 C209 1.389 . S
C210 C211 1.387 . S
C211 H196 0.930 . S
C211 C206 1.390 . S
C211 C210 1.387 . S
H212 C224 0.930 . S
H213 C226 0.930 . S
H214 C227 0.930 . S
H215 C231 0.959 . S
H216 C231 0.959 . S
H217 C231 0.961 . S
H218 C232 0.960 . S
H219 C232 0.961 . S
H220 C232 0.959 . S
H221 C235 0.929 . S
H222 C236 0.931 . S
H223 C238 0.930 . S
C224 H212 0.930 . S
C224 C225 1.399 . S
C224 C229 1.399 . S
C225 C224 1.399 . S
C225 C226 1.376 . S
C226 H213 0.930 . S
C226 C225 1.376 . S
C226 C227 1.388 . S
C227 H214 0.930 . S
C227 C226 1.388 . S
C227 C228 1.390 . S
C228 C227 1.390 . S
C228 C229 1.394 . S
C228 C234 1.465 . S
C229 C224 1.399 . S
C229 C228 1.394 . S
C229 C230 1.516 . S
C230 C229 1.516 . S
C230 C231 1.502 . S
C230 C232 1.561 . S
C230 C233 1.526 . S
C231 H215 0.959 . S
C231 H216 0.959 . S
C231 H217 0.961 . S
C231 C230 1.502 . S
C232 H218 0.960 . S
C232 H219 0.961 . S
C232 H220 0.959 . S
C232 C230 1.561 . S
C233 C230 1.526 . S
C233 C234 1.396 . S
C233 C238 1.390 . S
C234 C228 1.465 . S
C234 C233 1.396 . S
C234 C235 1.399 . S
C235 H221 0.929 . S
C235 C234 1.399 . S
C235 C236 1.385 . S
C236 H222 0.931 . S
C236 C235 1.385 . S
C236 C237 1.389 . S
C237 C236 1.389 . S
C237 C238 1.387 . S
C238 H223 0.930 . S
C238 C233 1.390 . S
C238 C237 1.387 . S
H239 C251 0.930 . S
H240 C253 0.930 . S
H241 C254 0.930 . S
H242 C258 0.959 . S
H243 C258 0.959 . S
H244 C258 0.961 . S
H245 C259 0.960 . S
H246 C259 0.961 . S
H247 C259 0.959 . S
H248 C262 0.929 . S
H249 C263 0.931 . S
H250 C265 0.930 . S
C251 H239 0.930 . S
C251 C252 1.399 . S
C251 C256 1.399 . S
C252 C251 1.399 . S
C252 C253 1.376 . S
C253 H240 0.930 . S
C253 C252 1.376 . S
C253 C254 1.388 . S
C254 H241 0.930 . S
C254 C253 1.388 . S
C254 C255 1.390 . S
C255 C254 1.390 . S
C255 C256 1.394 . S
C255 C261 1.465 . S
C256 C251 1.399 . S
C256 C255 1.394 . S
C256 C257 1.516 . S
C257 C256 1.516 . S
C257 C258 1.502 . S
C257 C259 1.561 . S
C257 C260 1.526 . S
C258 H242 0.959 . S
C258 H243 0.959 . S
C258 H244 0.961 . S
C258 C257 1.502 . S
C259 H245 0.960 . S
C259 H246 0.961 . S
C259 H247 0.959 . S
C259 C257 1.561 . S
C260 C257 1.526 . S
C260 C261 1.396 . S
C260 C265 1.390 . S
C261 C255 1.465 . S
C261 C260 1.396 . S
C261 C262 1.399 . S
C262 H248 0.929 . S
C262 C261 1.399 . S
C262 C263 1.385 . S
C263 H249 0.931 . S
C263 C262 1.385 . S
C263 C264 1.389 . S
C264 C263 1.389 . S
C264 C265 1.387 . S
C265 H250 0.930 . S
C265 C260 1.390 . S
C265 C264 1.387 . S
H266 C278 0.930 . S
H267 C280 0.930 . S
H268 C281 0.930 . S
H269 C285 0.959 . S
H270 C285 0.959 . S
H271 C285 0.961 . S
H272 C286 0.960 . S
H273 C286 0.961 . S
H274 C286 0.959 . S
H275 C289 0.929 . S
H276 C290 0.931 . S
H277 C292 0.930 . S
C278 H266 0.930 . S
C278 C279 1.399 . S
C278 C283 1.399 . S
C279 C278 1.399 . S
C279 C280 1.376 . S
C280 H267 0.930 . S
C280 C279 1.376 . S
C280 C281 1.388 . S
C281 H268 0.930 . S
C281 C280 1.388 . S
C281 C282 1.390 . S
C282 C281 1.390 . S
C282 C283 1.394 . S
C282 C288 1.465 . S
C283 C278 1.399 . S
C283 C282 1.394 . S
C283 C284 1.516 . S
C284 C283 1.516 . S
C284 C285 1.502 . S
C284 C286 1.561 . S
C284 C287 1.526 . S
C285 H269 0.959 . S
C285 H270 0.959 . S
C285 H271 0.961 . S
C285 C284 1.502 . S
C286 H272 0.960 . S
C286 H273 0.961 . S
C286 H274 0.959 . S
C286 C284 1.561 . S
C287 C284 1.526 . S
C287 C288 1.396 . S
C287 C292 1.390 . S
C288 C282 1.465 . S
C288 C287 1.396 . S
C288 C289 1.399 . S
C289 H275 0.929 . S
C289 C288 1.399 . S
C289 C290 1.385 . S
C290 H276 0.931 . S
C290 C289 1.385 . S
C290 C291 1.389 . S
C291 C290 1.389 . S
C291 C292 1.387 . S
C292 H277 0.930 . S
C292 C287 1.390 . S
C292 C291 1.387 . S
H293 C305 0.930 . S
H294 C307 0.930 . S
H295 C308 0.930 . S
H296 C312 0.959 . S
H297 C312 0.959 . S
H298 C312 0.961 . S
H299 C313 0.960 . S
H300 C313 0.961 . S
H301 C313 0.959 . S
H302 C316 0.929 . S
H303 C317 0.931 . S
H304 C319 0.930 . S
C305 H293 0.930 . S
C305 C306 1.399 . S
C305 C310 1.399 . S
C306 C305 1.399 . S
C306 C307 1.376 . S
C307 H294 0.930 . S
C307 C306 1.376 . S
C307 C308 1.388 . S
C308 H295 0.930 . S
C308 C307 1.388 . S
C308 C309 1.390 . S
C309 C308 1.390 . S
C309 C310 1.394 . S
C309 C315 1.465 . S
C310 C305 1.399 . S
C310 C309 1.394 . S
C310 C311 1.516 . S
C311 C310 1.516 . S
C311 C312 1.502 . S
C311 C313 1.561 . S
C311 C314 1.526 . S
C312 H296 0.959 . S
C312 H297 0.959 . S
C312 H298 0.961 . S
C312 C311 1.502 . S
C313 H299 0.960 . S
C313 H300 0.961 . S
C313 H301 0.959 . S
C313 C311 1.561 . S
C314 C311 1.526 . S
C314 C315 1.396 . S
C314 C319 1.390 . S
C315 C309 1.465 . S
C315 C314 1.396 . S
C315 C316 1.399 . S
C316 H302 0.929 . S
C316 C315 1.399 . S
C316 C317 1.385 . S
C317 H303 0.931 . S
C317 C316 1.385 . S
C317 C318 1.389 . S
C318 C317 1.389 . S
C318 C319 1.387 . S
C319 H304 0.930 . S
C319 C314 1.390 . S
C319 C318 1.387 . S
H320 C332 0.930 . S
H321 C334 0.930 . S
H322 C335 0.930 . S
H323 C339 0.959 . S
H324 C339 0.959 . S
H325 C339 0.961 . S
H326 C340 0.960 . S
H327 C340 0.961 . S
H328 C340 0.959 . S
H329 C343 0.929 . S
H330 C344 0.931 . S
H331 C346 0.930 . S
C332 H320 0.930 . S
C332 C333 1.399 . S
C332 C337 1.399 . S
C333 C332 1.399 . S
C333 C334 1.376 . S
C334 H321 0.930 . S
C334 C333 1.376 . S
C334 C335 1.388 . S
C335 H322 0.930 . S
C335 C334 1.388 . S
C335 C336 1.390 . S
C336 C335 1.390 . S
C336 C337 1.394 . S
C336 C342 1.465 . S
C337 C332 1.399 . S
C337 C336 1.394 . S
C337 C338 1.516 . S
C338 C337 1.516 . S
C338 C339 1.502 . S
C338 C340 1.561 . S
C338 C341 1.526 . S
C339 H323 0.959 . S
C339 H324 0.959 . S
C339 H325 0.961 . S
C339 C338 1.502 . S
C340 H326 0.960 . S
C340 H327 0.961 . S
C340 H328 0.959 . S
C340 C338 1.561 . S
C341 C338 1.526 . S
C341 C342 1.396 . S
C341 C346 1.390 . S
C342 C336 1.465 . S
C342 C341 1.396 . S
C342 C343 1.399 . S
C343 H329 0.929 . S
C343 C342 1.399 . S
C343 C344 1.385 . S
C344 H330 0.931 . S
C344 C343 1.385 . S
C344 C345 1.389 . S
C345 C344 1.389 . S
C345 C346 1.387 . S
C346 H331 0.930 . S
C346 C341 1.390 . S
C346 C345 1.387 . S
H347 C359 0.930 . S
H348 C361 0.930 . S
H349 C362 0.930 . S
H350 C366 0.959 . S
H351 C366 0.959 . S
H352 C366 0.961 . S
H353 C367 0.960 . S
H354 C367 0.961 . S
H355 C367 0.959 . S
H356 C370 0.929 . S
H357 C371 0.931 . S
H358 C373 0.930 . S
C359 H347 0.930 . S
C359 C360 1.399 . S
C359 C364 1.399 . S
C360 C359 1.399 . S
C360 C361 1.376 . S
C361 H348 0.930 . S
C361 C360 1.376 . S
C361 C362 1.388 . S
C362 H349 0.930 . S
C362 C361 1.388 . S
C362 C363 1.390 . S
C363 C362 1.390 . S
C363 C364 1.394 . S
C363 C369 1.465 . S
C364 C359 1.399 . S
C364 C363 1.394 . S
C364 C365 1.516 . S
C365 C364 1.516 . S
C365 C366 1.502 . S
C365 C367 1.561 . S
C365 C368 1.526 . S
C366 H350 0.959 . S
C366 H351 0.959 . S
C366 H352 0.961 . S
C366 C365 1.502 . S
C367 H353 0.960 . S
C367 H354 0.961 . S
C367 H355 0.959 . S
C367 C365 1.561 . S
C368 C365 1.526 . S
C368 C369 1.396 . S
C368 C373 1.390 . S
C369 C363 1.465 . S
C369 C368 1.396 . S
C369 C370 1.399 . S
C370 H356 0.929 . S
C370 C369 1.399 . S
C370 C371 1.385 . S
C371 H357 0.931 . S
C371 C370 1.385 . S
C371 C372 1.389 . S
C372 C371 1.389 . S
C372 C373 1.387 . S
C373 H358 0.930 . S
C373 C368 1.390 . S
C373 C372 1.387 . S
H374 C386 0.930 . S
H375 C388 0.930 . S
H376 C389 0.930 . S
H377 C393 0.959 . S
H378 C393 0.959 . S
H379 C393 0.961 . S
H380 C394 0.960 . S
H381 C394 0.961 . S
H382 C394 0.959 . S
H383 C397 0.929 . S
H384 C398 0.931 . S
H385 C400 0.930 . S
C386 H374 0.930 . S
C386 C387 1.399 . S
C386 C391 1.399 . S
C387 C386 1.399 . S
C387 C388 1.376 . S
C388 H375 0.930 . S
C388 C387 1.376 . S
C388 C389 1.388 . S
C389 H376 0.930 . S
C389 C388 1.388 . S
C389 C390 1.390 . S
C390 C389 1.390 . S
C390 C391 1.394 . S
C390 C396 1.465 . S
C391 C386 1.399 . S
C391 C390 1.394 . S
C391 C392 1.516 . S
C392 C391 1.516 . S
C392 C393 1.502 . S
C392 C394 1.561 . S
C392 C395 1.526 . S
C393 H377 0.959 . S
C393 H378 0.959 . S
C393 H379 0.961 . S
C393 C392 1.502 . S
C394 H380 0.960 . S
C394 H381 0.961 . S
C394 H382 0.959 . S
C394 C392 1.561 . S
C395 C392 1.526 . S
C395 C396 1.396 . S
C395 C400 1.390 . S
C396 C390 1.465 . S
C396 C395 1.396 . S
C396 C397 1.399 . S
C397 H383 0.929 . S
C397 C396 1.399 . S
C397 C398 1.385 . S
C398 H384 0.931 . S
C398 C397 1.385 . S
C398 C399 1.389 . S
C399 C398 1.389 . S
C399 C400 1.387 . S
C400 H385 0.930 . S
C400 C395 1.390 . S
C400 C399 1.387 . S
H401 C413 0.930 . S
H402 C415 0.930 . S
H403 C416 0.930 . S
H404 C420 0.959 . S
H405 C420 0.959 . S
H406 C420 0.961 . S
H407 C421 0.960 . S
H408 C421 0.961 . S
H409 C421 0.959 . S
H410 C424 0.929 . S
H411 C425 0.931 . S
H412 C427 0.930 . S
C413 H401 0.930 . S
C413 C414 1.399 . S
C413 C418 1.399 . S
C414 C413 1.399 . S
C414 C415 1.376 . S
C415 H402 0.930 . S
C415 C414 1.376 . S
C415 C416 1.388 . S
C416 H403 0.930 . S
C416 C415 1.388 . S
C416 C417 1.390 . S
C417 C416 1.390 . S
C417 C418 1.394 . S
C417 C423 1.465 . S
C418 C413 1.399 . S
C418 C417 1.394 . S
C418 C419 1.516 . S
C419 C418 1.516 . S
C419 C420 1.502 . S
C419 C421 1.561 . S
C419 C422 1.526 . S
C420 H404 0.959 . S
C420 H405 0.959 . S
C420 H406 0.961 . S
C420 C419 1.502 . S
C421 H407 0.960 . S
C421 H408 0.961 . S
C421 H409 0.959 . S
C421 C419 1.561 . S
C422 C419 1.526 . S
C422 C423 1.396 . S
C422 C427 1.390 . S
C423 C417 1.465 . S
C423 C422 1.396 . S
C423 C424 1.399 . S
C424 H410 0.929 . S
C424 C423 1.399 . S
C424 C425 1.385 . S
C425 H411 0.931 . S
C425 C424 1.385 . S
C425 C426 1.389 . S
C426 C425 1.389 . S
C426 C427 1.387 . S
C427 H412 0.930 . S
C427 C422 1.390 . S
C427 C426 1.387 . S
H428 C440 0.930 . S
H429 C442 0.930 . S
H430 C443 0.930 1_556 S
H431 C447 0.959 . S
H432 C447 0.959 . S
H433 C447 0.961 . S
H434 C448 0.960 1_554 S
H435 C448 0.961 1_565 S
H436 C448 0.959 . S
H437 C451 0.929 . S
H438 C452 0.931 . S
H439 C454 0.930 . S
C440 H428 0.930 . S
C440 C441 1.399 1_655 S
C440 C445 1.399 . S
C441 C440 1.399 1_455 S
C441 C442 1.376 . S
C442 H429 0.930 . S
C442 C441 1.376 . S
C442 C443 1.388 . S
C443 H430 0.930 1_554 S
C443 C442 1.388 . S
C443 C444 1.390 . S
C444 C443 1.390 . S
C444 C445 1.394 1_455 S
C444 C450 1.465 1_544 S
C445 C440 1.399 . S
C445 C444 1.394 1_655 S
C445 C446 1.516 1_545 S
C446 C445 1.516 1_565 S
C446 C447 1.502 . S
C446 C448 1.561 1_564 S
C446 C449 1.526 1_554 S
C447 H431 0.959 . S
C447 H432 0.959 . S
C447 H433 0.961 . S
C447 C446 1.502 . S
C448 H434 0.960 1_556 S
C448 H435 0.961 1_545 S
C448 H436 0.959 . S
C448 C446 1.561 1_546 S
C449 C446 1.526 1_556 S
C449 C450 1.396 1_655 S
C449 C454 1.390 . S
C450 C444 1.465 1_566 S
C450 C449 1.396 1_455 S
C450 C451 1.399 . S
C451 H437 0.929 . S
C451 C450 1.399 . S
C451 C452 1.385 . S
C452 H438 0.931 . S
C452 C451 1.385 . S
C452 C453 1.389 . S
C453 C452 1.389 . S
C453 C454 1.387 1_455 S
C454 H439 0.930 . S
C454 C449 1.390 . S
C454 C453 1.387 1_655 S
H455 C467 0.930 . S
H456 C469 0.930 . S
H457 C470 0.930 . S
H458 C474 0.959 . S
H459 C474 0.959 . S
H460 C474 0.961 . S
H461 C475 0.960 . S
H462 C475 0.961 . S
H463 C475 0.959 1_554 S
H464 C478 0.929 . S
H465 C479 0.931 . S
H466 C481 0.930 . S
C467 H455 0.930 . S
C467 C468 1.399 . S
C467 C472 1.399 . S
C468 C467 1.399 . S
C468 C469 1.376 . S
C469 H456 0.930 . S
C469 C468 1.376 . S
C469 C470 1.388 1_556 S
C470 H457 0.930 . S
C470 C469 1.388 1_554 S
C470 C471 1.391 . S
C471 C470 1.391 . S
C471 C472 1.375 1_554 S
C471 C477 1.481 . S
C472 C467 1.399 . S
C472 C471 1.375 1_556 S
C472 C473 1.516 . S
C473 C472 1.516 . S
C473 C474 1.502 . S
C473 C475 1.561 . S
C473 C476 1.526 1_556 S
C474 H458 0.959 . S
C474 H459 0.959 . S
C474 H460 0.961 . S
C474 C473 1.502 . S
C475 H461 0.960 . S
C475 H462 0.961 . S
C475 H463 0.959 1_556 S
C475 C473 1.561 . S
C476 C473 1.526 1_554 S
C476 C477 1.396 . S
C476 C481 1.390 . S
C477 C471 1.481 . S
C477 C476 1.396 . S
C477 C478 1.399 . S
C478 H464 0.929 . S
C478 C477 1.399 . S
C478 C479 1.385 . S
C479 H465 0.931 . S
C479 C478 1.385 . S
C479 C480 1.389 . S
C480 C479 1.389 . S
C480 C481 1.387 . S
C481 H466 0.930 . S
C481 C476 1.390 . S
C481 C480 1.387 . S
H482 C494 0.930 . S
H483 C496 0.930 . S
H484 C497 0.930 . S
H485 C501 0.959 . S
H486 C501 0.959 . S
H487 C501 0.961 . S
H488 C502 0.960 . S
H489 C502 0.961 . S
H490 C502 0.959 . S
H491 C505 0.929 . S
H492 C506 0.931 . S
H493 C508 0.930 . S
C494 H482 0.930 . S
C494 C495 1.399 . S
C494 C499 1.399 . S
C495 C494 1.399 . S
C495 C496 1.376 . S
C496 H483 0.930 . S
C496 C495 1.376 . S
C496 C497 1.388 . S
C497 H484 0.930 . S
C497 C496 1.388 . S
C497 C498 1.390 . S
C498 C497 1.390 . S
C498 C499 1.394 . S
C498 C504 1.465 . S
C499 C494 1.399 . S
C499 C498 1.394 . S
C499 C500 1.516 . S
C500 C499 1.516 . S
C500 C501 1.502 . S
C500 C502 1.561 . S
C500 C503 1.526 . S
C501 H485 0.959 . S
C501 H486 0.959 . S
C501 H487 0.961 . S
C501 C500 1.502 . S
C502 H488 0.960 . S
C502 H489 0.961 . S
C502 H490 0.959 . S
C502 C500 1.561 . S
C503 C500 1.526 . S
C503 C504 1.396 . S
C503 C508 1.390 . S
C504 C498 1.465 . S
C504 C503 1.396 . S
C504 C505 1.399 . S
C505 H491 0.929 . S
C505 C504 1.399 . S
C505 C506 1.385 . S
C506 H492 0.931 . S
C506 C505 1.385 . S
C506 C507 1.389 . S
C507 C506 1.389 . S
C507 C508 1.387 . S
C508 H493 0.930 . S
C508 C503 1.390 . S
C508 C507 1.387 . S
H509 C521 0.930 . S
H510 C523 0.930 . S
H511 C524 0.930 . S
H512 C528 0.959 . S
H513 C528 0.959 . S
H514 C528 0.961 . S
H515 C529 0.960 . S
H516 C529 0.961 . S
H517 C529 0.959 . S
H518 C532 0.929 1_565 S
H519 C533 0.931 . S
H520 C535 0.930 . S
C521 H509 0.930 . S
C521 C522 1.399 . S
C521 C526 1.399 . S
C522 C521 1.399 . S
C522 C523 1.376 . S
C523 H510 0.930 . S
C523 C522 1.376 . S
C523 C524 1.388 . S
C524 H511 0.930 . S
C524 C523 1.388 . S
C524 C525 1.390 . S
C525 C524 1.390 . S
C525 C526 1.394 . S
C525 C531 1.465 1_565 S
C526 C521 1.399 . S
C526 C525 1.394 . S
C526 C527 1.516 1_565 S
C527 C526 1.516 1_545 S
C527 C528 1.502 . S
C527 C529 1.561 . S
C527 C530 1.526 . S
C528 H512 0.959 . S
C528 H513 0.959 . S
C528 H514 0.961 . S
C528 C527 1.502 . S
C529 H515 0.960 . S
C529 H516 0.961 . S
C529 H517 0.959 . S
C529 C527 1.561 . S
C530 C527 1.526 . S
C530 C531 1.396 . S
C530 C535 1.390 . S
C531 C525 1.465 1_545 S
C531 C530 1.396 . S
C531 C532 1.399 . S
C532 H518 0.929 1_545 S
C532 C531 1.399 . S
C532 C533 1.385 . S
C533 H519 0.931 . S
C533 C532 1.385 . S
C533 C534 1.389 . S
C534 C533 1.389 . S
C534 C535 1.387 . S
C535 H520 0.930 . S
C535 C530 1.390 . S
C535 C534 1.387 . S
C117 C16 1.440 . S
C129 C3 1.445 . S
C144 C31 1.464 . S
C156 C42 1.458 . S
C171 C57 1.440 . S
C183 C70 1.451 . S
C198 C83 1.445 . S
C210 C96 1.440 . S
C225 C94 1.658 . S
C237 C5 1.674 . S
C252 C81 1.677 . S
C264 C18 1.671 . S
C279 C29 1.658 . S
C291 C68 1.673 . S
C306 C55 1.680 . S
C318 C44 1.664 . S
C333 C75 1.182 . S
C345 C36 1.172 . S
C360 C62 1.179 . S
C372 C43 1.172 . S
C387 C101 1.192 . S
C399 C4 1.200 . S
C414 C17 1.193 . S
C426 C88 1.200 . S
C441 C10 1.409 . S
C453 C30 1.404 . S
C468 C49 1.411 . S
C480 C23 1.404 . S
C495 C82 1.404 . S
C507 C56 1.408 . S
C522 C69 1.413 . S
C534 C95 1.406 . S
