# Generated by pormake.
# Topology sxb, (6)-cn, num edge types: 1
# Building blocks:
#     Node 0, Type 0, BuildingBlock: KUMBOL_clean_sbu_0, # of connection points: 6
#     Node 1, Type 0, BuildingBlock: KUMBOL_clean_sbu_0, # of connection points: 6
#     Node 2, Type 0, BuildingBlock: KUMBOL_clean_sbu_0, # of connection points: 6
#     Node 3, Type 0, BuildingBlock: KUMBOL_clean_sbu_0, # of connection points: 6
#     Edge 4, Type (0, 0), None
#     Edge 5, Type (0, 0), None
#     Edge 6, Type (0, 0), None
#     Edge 7, Type (0, 0), None
#     Edge 8, Type (0, 0), None
#     Edge 9, Type (0, 0), None
#     Edge 10, Type (0, 0), None
#     Edge 11, Type (0, 0), None
#     Edge 12, Type (0, 0), None
#     Edge 13, Type (0, 0), None
#     Edge 14, Type (0, 0), None
#     Edge 15, Type (0, 0), None
# Relax obj value: 0.939
# Max RMSD: 0.171
# Mean RMSD: 0.153
data_MOF--net-sxb--node1-KUMBOL_clean_sbu_0--edge1-none
_symmetry_space_group_name_H-M    P1
_symmetry_Int_Tables_number       1
_symmetry_cell_setting            triclinic
loop_
_symmetry_equiv_pos_as_xyz
'x, y, z'
_cell_length_a     14.280999
_cell_length_b     20.984779
_cell_length_c     14.749849
_cell_angle_alpha  106.30542
_cell_angle_beta   117.0535
_cell_angle_gamma 55.911095
loop_
_atom_site_label
_atom_site_type_symbol
_atom_site_fract_x
_atom_site_fract_y
_atom_site_fract_z
_atom_type_partial_charge
Gd0 Gd -0.06165 1.09535 0.00388 0.0
Gd1 Gd 0.72668 0.10492 0.91735 0.0
C2 C 0.72436 0.89616 0.95958 0.0
C3 C 0.77324 0.81236 0.82001 0.0
C4 C 0.76315 0.93527 0.84666 0.0
C5 C 0.73742 0.95023 0.93322 0.0
C6 C 0.78613 0.86434 0.79255 0.0
C7 C 0.7439 0.82734 0.90372 0.0
C8 C 0.67818 0.9157 0.03385 0.0
C9 C 0.64191 0.98832 0.07823 0.0
N10 N 0.71132 1.01986 -0.01584 0.0
C11 C 0.65786 1.03975 0.05294 0.0
H12 H 0.62008 1.09662 0.08665 0.0
C13 C 0.74868 0.98263 0.71134 0.0
N14 N 0.75299 0.99209 0.80883 0.0
C15 C 0.78533 0.91084 0.66165 0.0
C16 C 0.80463 0.85119 0.70317 0.0
H17 H 0.70717 1.03011 0.66607 0.0
H18 H 0.72653 0.78837 0.91963 0.0
H19 H 0.04202 0.10613 0.83318 0.0
H20 H 0.66265 0.87685 0.05228 0.0
H21 H 0.59766 1.00537 0.12981 0.0
H22 H 0.76916 0.76562 0.76803 0.0
H23 H -0.04029 0.16646 0.25767 0.0
H24 H 0.00368 0.32561 0.87504 0.0
H25 H 0.06857 0.19788 0.79542 0.0
H26 H -0.10515 0.43447 0.15963 0.0
H27 H 0.78742 0.90346 0.58708 0.0
H28 H 0.81932 0.7978 0.66031 0.0
H29 H -0.05992 0.41271 0.00935 0.0
H30 H -0.12589 0.29416 0.3356 0.0
N31 N -0.04341 0.18051 0.94021 0.0
C32 C -0.01059 0.28593 0.89317 0.0
C33 C 0.02423 0.21398 0.84661 0.0
C34 C -0.05407 0.30376 -0.03123 0.0
C35 C -0.06512 0.24856 -0.00538 0.0
C36 C 0.00686 0.1622 0.86952 0.0
N37 N -0.08069 0.20497 0.1175 0.0
C38 C -0.08802 0.26171 0.08221 0.0
C39 C -0.11969 0.28636 0.26273 0.0
C40 C -0.13905 0.34655 0.22222 0.0
C41 C -0.07987 0.21423 0.21365 0.0
C42 C -0.1152 0.3332 0.13556 0.0
H43 H -0.15807 0.40065 0.26404 0.0
O44 O 0.10114 1.07867 0.14144 0.0
O45 O -0.05586 0.9775 0.95875 0.0
O46 O 0.73434 0.13403 0.08089 0.0
O47 O -0.06491 1.07181 0.14511 0.0
O48 O -0.04854 0.97133 0.95926 0.0
O49 O 0.11358 1.0269 -0.00338 0.0
O50 O 0.54962 0.17475 0.92208 0.0
O51 O 0.72671 0.2213 -0.03723 0.0
O52 O -0.07117 1.06776 0.83942 0.0
O53 O 0.72805 0.12674 0.77395 0.0
O54 O 0.71946 0.22631 -0.0378 0.0
O55 O 0.56522 0.12079 0.77898 0.0
C56 C 0.05682 0.90169 -0.02506 0.0
C57 C -0.10523 0.3867 0.10828 0.0
C58 C -0.07487 0.37249 0.02531 0.0
C59 C 0.16991 1.04309 0.0886 0.0
C60 C 0.24823 1.06973 0.09651 0.0
C61 C 0.31467 1.0901 0.19052 0.0
C62 C 0.26749 1.06576 0.00934 0.0
C63 C 0.32982 1.09788 0.00864 0.0
C64 C 0.39134 0.11219 0.19449 0.0
C65 C 0.39132 0.1221 0.10452 0.0
C66 C -0.1661 0.10398 0.16041 0.0
C67 C 0.65856 0.30566 -0.02657 0.0
C68 C 0.49496 0.1569 0.83046 0.0
C69 C 0.41805 0.12901 0.82273 0.0
C70 C 0.35284 0.10759 0.72881 0.0
C71 C 0.39807 0.13333 0.9096 0.0
C72 C 0.33485 0.10174 0.91012 0.0
C73 C 0.27526 1.08607 0.72454 0.0
C74 C 0.27295 1.07774 0.81419 0.0
C75 C 0.82933 1.09505 0.7589 0.0
H76 H 0.31013 1.08666 0.26024 0.0
H77 H 0.23477 1.0358 0.94242 0.0
H78 H 0.45015 0.12245 0.26753 0.0
H79 H 0.44829 0.14297 0.11366 0.0
H80 H 0.35829 0.11036 0.65921 0.0
H81 H 0.42981 0.16389 -0.02385 0.0
H82 H 0.217 1.07536 0.65153 0.0
H83 H 0.21463 1.05774 0.80472 0.0
Gd84 Gd -0.16696 0.19339 0.50284 0.0
Gd85 Gd -0.16842 1.00207 0.41511 0.0
C86 C 0.20854 0.93263 0.55004 0.0
C87 C 0.21853 0.94854 0.39775 0.0
C88 C 0.07236 0.91987 0.38362 0.0
C89 C 0.11166 0.91974 0.48807 0.0
C90 C 0.13031 0.92767 0.33681 0.0
C91 C 0.25517 0.95253 0.5036 0.0
C92 C 0.23951 0.93893 0.65536 0.0
C93 C 0.16569 0.942 0.69539 0.0
N94 N 0.03634 0.92609 0.52682 0.0
C95 C 0.06316 0.93613 0.62952 0.0
H96 H 0.00823 0.93682 0.66164 0.0
C97 C -0.081 0.91341 0.2184 0.0
N98 N -0.0402 0.92368 0.32498 0.0
C99 C -0.01029 0.90975 0.17365 0.0
C100 C 0.08757 0.92274 0.23045 0.0
H101 H -0.0962 0.9251 0.2867 0.0
H102 H 0.3085 0.97942 0.54713 0.0
H103 H 0.65505 0.26041 0.25724 0.0
H104 H 0.31704 0.94482 0.70663 0.0
H105 H 0.18799 0.94809 0.77683 0.0
H106 H 0.25152 0.96807 0.36488 0.0
H107 H 0.76409 0.27217 0.6313 0.0
H108 H 0.34633 0.25354 0.21574 0.0
H109 H 0.47413 0.25002 0.14356 0.0
H110 H 0.41695 0.23035 0.5599 0.0
H111 H -0.03598 0.89944 0.09267 0.0
H112 H 0.12778 0.92994 0.19032 0.0
H113 H 0.35934 0.2171 0.37723 0.0
H114 H 0.70762 0.29933 0.82725 0.0
N115 N 0.6288 0.27076 0.39289 0.0
C116 C 0.42468 0.25872 0.26633 0.0
C117 C 0.49777 0.25548 0.22516 0.0
C118 C 0.45704 0.26469 0.37183 0.0
C119 C 0.55433 0.27722 0.43266 0.0
C120 C 0.60049 0.26138 0.29004 0.0
N121 N 0.70737 0.27365 0.594 0.0
C122 C 0.59479 0.27736 0.53707 0.0
C123 C 0.67989 0.28866 0.74667 0.0
C124 C 0.57962 0.27766 0.69177 0.0
C125 C 0.7502 0.28364 0.70036 0.0
C126 C 0.53682 0.27105 0.58538 0.0
H127 H 0.53707 0.27391 0.73316 0.0
O128 O -0.04278 0.22552 0.62631 0.0
O129 O 0.77173 0.12118 0.43644 0.0
O130 O 0.81721 1.03697 0.5817 0.0
O131 O -0.14349 0.14215 0.64343 0.0
O132 O -0.02483 1.07758 0.53428 0.0
O133 O -0.04773 0.2085 0.47369 0.0
O134 O 0.71766 0.9612 0.29285 0.0
O135 O -0.11142 1.07545 0.48027 0.0
O136 O -0.15346 0.15976 0.33732 0.0
O137 O 0.80731 1.05461 0.27435 0.0
O138 O 0.68544 0.1171 0.38 0.0
O139 O 0.70849 0.989 0.44144 0.0
C140 C -0.11409 1.06486 0.47283 0.0
C141 C 0.44861 0.24994 0.52575 0.0
C142 C 0.41152 0.24492 0.41967 0.0
C143 C 0.00525 0.22347 0.56881 0.0
C144 C 0.03435 0.28206 0.58527 0.0
C145 C 0.01333 0.34006 0.6601 0.0
C146 C 0.07507 0.28211 0.51648 0.0
C147 C 0.06733 0.34811 0.50368 0.0
C148 C 0.01548 0.40426 0.65567 0.0
C149 C 0.03381 0.41097 0.57434 0.0
C150 C -0.16764 1.09148 0.65475 0.0
C151 C 0.77352 0.13073 0.44275 0.0
C152 C 0.66218 0.96877 0.34737 0.0
C153 C 0.63014 0.91191 0.33384 0.0
C154 C 0.64214 0.8556 0.25614 0.0
C155 C 0.59147 0.91312 0.40513 0.0
C156 C 0.59276 0.84926 0.41671 0.0
C157 C 0.63616 0.79306 0.26095 0.0
C158 C 0.62022 0.78701 0.34414 0.0
C159 C -0.16881 0.1058 0.26384 0.0
H160 H -0.0068 0.33628 0.71986 0.0
H161 H 0.10291 0.23127 0.46832 0.0
H162 H -0.00269 0.45036 0.71249 0.0
H163 H 0.02433 0.4651 0.57204 0.0
H164 H 0.65925 0.85894 0.19412 0.0
H165 H 0.56888 0.96326 0.45512 0.0
H166 H 0.64928 0.7477 0.20266 0.0
H167 H 0.62688 0.73385 0.34651 0.0
Gd168 Gd 0.43358 0.59312 0.0036 0.0
Gd169 Gd 0.2219 0.60269 0.91707 0.0
C170 C 0.21435 0.39422 0.95205 0.0
C171 C 0.26549 0.31133 0.8125 0.0
C172 C 0.24829 0.43632 0.83866 0.0
C173 C 0.2254 0.44945 0.92624 0.0
C174 C 0.27545 0.36485 0.78527 0.0
C175 C 0.23516 0.3255 0.89549 0.0
C176 C 0.17084 0.41204 0.02763 0.0
C177 C 0.13597 0.48398 0.07418 0.0
N178 N 0.20367 0.51749 -0.01933 0.0
C179 C 0.15338 0.53578 0.05134 0.0
H180 H 0.11821 0.59185 0.0877 0.0
C181 C 0.24003 0.48388 0.70722 0.0
N182 N 0.24094 0.49309 0.8034 0.0
C183 C 0.27982 0.41177 0.65809 0.0
C184 C 0.2992 0.35156 0.69857 0.0
H185 H 0.20041 0.53167 0.66323 0.0
H186 H 0.22022 0.28527 0.91142 0.0
H187 H 0.54034 0.60134 0.83439 0.0
H188 H 0.15656 0.37234 0.04572 0.0
H189 H 0.09158 0.50007 0.12533 0.0
H190 H 0.26543 0.26356 0.76114 0.0
H191 H 0.45296 0.66799 0.25483 0.0
H192 H 0.49787 0.82109 0.86875 0.0
H193 H 0.56293 0.69254 0.7913 0.0
H194 H 0.39116 0.93241 0.15287 0.0
H195 H 0.28591 0.404 0.58518 0.0
H196 H 0.31813 0.29748 0.65669 0.0
H197 H 0.43381 0.90964 0.00129 0.0
H198 H 0.37286 0.79463 0.33386 0.0
N199 N 0.44902 0.67815 0.93681 0.0
C200 C 0.48229 0.78226 0.88716 0.0
C201 C 0.51858 0.70962 0.84281 0.0
C202 C 0.43599 0.80185 -0.03863 0.0
C203 C 0.4229 0.74779 -0.01228 0.0
C204 C 0.50256 0.65823 0.86808 0.0
N205 N 0.4072 0.70598 0.11208 0.0
C206 C 0.39709 0.76278 0.07424 0.0
C207 C 0.37488 0.78724 0.25927 0.0
C208 C 0.35561 0.84689 0.21773 0.0
C209 C 0.41146 0.71546 0.20955 0.0
C210 C 0.37409 0.83372 0.12834 0.0
H211 H 0.34096 0.90027 0.26062 0.0
O212 O 0.61068 0.52328 -0.00105 0.0
O213 O 0.43354 0.47674 0.95819 0.0
O214 O 0.23148 0.63019 0.08155 0.0
O215 O 0.43226 0.57129 0.14702 0.0
O216 O 0.44079 0.47173 0.95876 0.0
O217 O 0.59499 0.57729 0.142 0.0
O218 O 0.05907 0.6194 0.77955 0.0
O219 O 0.21611 0.72054 -0.03777 0.0
O220 O 0.42589 0.56404 0.84006 0.0
O221 O 0.22514 0.62626 0.77584 0.0
O222 O 0.20878 0.72671 -0.03829 0.0
O223 O 0.0467 0.67112 0.9244 0.0
C224 C 0.5017 0.39238 0.94753 0.0
C225 C 0.38702 0.88568 0.10087 0.0
C226 C 0.41641 0.87068 0.01719 0.0
C227 C 0.66529 0.54115 0.09056 0.0
C228 C 0.74222 0.56904 0.09831 0.0
C229 C 0.80737 0.59051 0.19223 0.0
C230 C 0.76227 0.56467 0.01147 0.0
C231 C 0.82548 0.59626 0.01093 0.0
C232 C -0.11506 0.61204 0.19649 0.0
C233 C -0.11267 0.6203 0.10684 0.0
C234 C 0.331 0.60292 0.16205 0.0
C235 C 0.10342 0.79635 0.94598 0.0
C236 C -0.00967 0.65495 0.83242 0.0
C237 C -0.08797 0.6283 0.82452 0.0
C238 C -0.1543 0.60785 0.73052 0.0
C239 C -0.10725 0.63229 0.91168 0.0
C240 C -0.16946 0.60009 0.91241 0.0
C241 C 0.76916 0.58565 0.72658 0.0
C242 C 0.7692 0.57574 0.81656 0.0
C243 C 0.32632 0.5941 0.76053 0.0
H244 H 0.80187 0.58778 0.26181 0.0
H245 H 0.73057 0.53408 0.94494 0.0
H246 H -0.05686 0.6228 0.2695 0.0
H247 H -0.05433 0.64028 0.11632 0.0
H248 H -0.14976 0.61128 0.6608 0.0
H249 H -0.0746 0.6623 -0.02142 0.0
H250 H 0.71043 0.57532 0.65354 0.0
H251 H 0.71232 0.5548 0.80743 0.0
Gd252 Gd 0.32889 0.69587 0.50587 0.0
Gd253 Gd 0.32707 0.50467 0.41806 0.0
C254 C 0.7031 0.43317 0.54908 0.0
C255 C 0.71157 0.44791 0.39517 0.0
C256 C 0.56533 0.42055 0.38384 0.0
C257 C 0.60577 0.42067 0.48825 0.0
C258 C 0.6233 0.42686 0.33554 0.0
C259 C 0.74865 0.45293 0.50125 0.0
C260 C 0.73542 0.43918 0.65458 0.0
C261 C 0.66227 0.44248 0.69574 0.0
N262 N 0.53125 0.42719 0.528 0.0
C263 C 0.55954 0.43659 0.63085 0.0
H264 H 0.50494 0.43758 0.66364 0.0
C265 C 0.40988 0.41431 0.22054 0.0
N266 N 0.4527 0.42431 0.3269 0.0
C267 C 0.48017 0.40934 0.17423 0.0
C268 C 0.58046 0.42031 0.22915 0.0
H269 H 0.39589 0.42595 0.28957 0.0
H270 H 0.80087 0.48072 0.5437 0.0
H271 H 0.1523 0.76118 0.25938 0.0
H272 H 0.81378 0.44435 0.70518 0.0
H273 H 0.68587 0.44797 0.77733 0.0
H274 H 0.74328 0.46747 0.36105 0.0
H275 H 0.25665 0.77301 0.63428 0.0
H276 H -0.15659 0.75325 0.21435 0.0
H277 H -0.02744 0.74988 0.14417 0.0
H278 H -0.09125 0.73013 0.55607 0.0
H279 H 0.45252 0.39861 0.09366 0.0
H280 H 0.62304 0.42404 0.18777 0.0
H281 H -0.14823 0.7188 0.37384 0.0
H282 H 0.19645 0.79857 0.82833 0.0
N283 N 0.12416 0.77193 0.39419 0.0
C284 C -0.07904 0.75913 0.26562 0.0
C285 C -0.00516 0.756 0.22561 0.0
C286 C -0.04811 0.76546 0.37094 0.0
C287 C 0.0488 0.77831 0.43293 0.0
C288 C 0.09735 0.76188 0.29148 0.0
N289 N 0.2007 0.77433 0.59601 0.0
C290 C 0.08811 0.77818 0.53737 0.0
C291 C 0.17071 0.78833 0.74734 0.0
C292 C 0.07277 0.77541 0.69053 0.0
C293 C 0.24152 0.78455 0.7026 0.0
C294 C 0.03007 0.77045 0.58417 0.0
H295 H 0.03249 0.76826 0.73065 0.0
O296 O 0.4431 0.73651 0.62817 0.0
O297 O 0.27178 0.62256 0.4407 0.0
O298 O 0.31357 0.53835 0.58359 0.0
O299 O 0.35305 0.64339 0.64662 0.0
O300 O 0.47495 0.58082 0.54092 0.0
O301 O 0.45187 0.70899 0.47945 0.0
O302 O 0.20261 0.4728 0.29455 0.0
O303 O 0.3886 0.57678 0.48449 0.0
O304 O 0.34325 0.66095 0.33929 0.0
O305 O 0.30371 0.55587 0.27749 0.0
O306 O 0.18512 0.62052 0.38674 0.0
O307 O 0.20779 0.4896 0.44722 0.0
C308 C 0.38681 0.56725 0.47819 0.0
C309 C -0.0582 0.74963 0.52322 0.0
C310 C -0.09484 0.74565 0.41737 0.0
C311 C 0.49841 0.72906 0.57356 0.0
C312 C 0.53047 0.78592 0.58718 0.0
C313 C 0.51822 0.8423 0.66477 0.0
C314 C 0.56928 0.78467 0.51598 0.0
C315 C 0.56774 0.8486 0.50427 0.0
C316 C 0.52408 0.90488 0.65992 0.0
C317 C 0.54004 0.91092 0.57673 0.0
C318 C 0.32903 0.59227 0.6571 0.0
C319 C 0.27446 0.63315 0.44815 0.0
C320 C 0.15468 0.47476 0.35206 0.0
C321 C 0.12551 0.41619 0.33548 0.0
C322 C 0.14684 0.35811 0.26078 0.0
C323 C 0.08461 0.41616 0.40415 0.0
C324 C 0.09259 0.35011 0.41707 0.0
C325 C 0.14477 0.29388 0.26524 0.0
C326 C 0.12637 0.28719 0.34653 0.0
C327 C 0.32799 0.60648 0.2662 0.0
H328 H 0.501 0.83899 0.72674 0.0
H329 H 0.59214 0.73446 0.46613 0.0
H330 H 0.51077 0.9503 0.71812 0.0
H331 H 0.53313 0.96413 0.57424 0.0
H332 H 0.16713 0.36185 0.20111 0.0
H333 H 0.05648 0.46707 0.45214 0.0
H334 H 0.16316 0.24772 0.20852 0.0
H335 H 0.13606 0.23301 0.34894 0.0
loop_
_geom_bond_atom_site_label_1
_geom_bond_atom_site_label_2
_geom_bond_distance
_geom_bond_site_symmetry_2
_ccdc_geom_bond_type
Gd0 N31 2.661 . S
Gd0 N37 2.601 . S
Gd0 O44 2.545 . S
Gd0 O45 2.606 1_544 S
Gd0 O47 2.429 . S
Gd0 O48 2.545 1_545 S
Gd0 O49 2.412 . S
Gd0 O51 2.362 1_455 S
Gd0 O52 2.324 1_554 S
Gd0 C59 2.828 . S
Gd1 N10 2.661 . S
Gd1 N14 2.601 . S
Gd1 O45 2.362 1_655 S
Gd1 O46 2.324 1_556 S
Gd1 O50 2.545 . S
Gd1 O51 2.606 1_566 S
Gd1 O53 2.429 . S
Gd1 O54 2.545 1_565 S
Gd1 O55 2.412 . S
Gd1 C68 2.828 . S
C2 C5 1.417 . S
C2 C7 1.431 . S
C2 C8 1.412 1_556 S
C3 C6 1.437 . S
C3 C7 1.317 . S
C3 H22 0.929 . S
C4 C5 1.426 . S
C4 C6 1.413 . S
C4 N14 1.359 . S
C5 C2 1.417 . S
C5 C4 1.426 . S
C5 N10 1.350 . S
C6 C3 1.437 . S
C6 C4 1.413 . S
C6 C16 1.391 . S
C7 C2 1.431 . S
C7 C3 1.317 . S
C7 H18 0.930 . S
C8 C2 1.412 1_554 S
C8 C9 1.355 1_655 S
C8 H20 0.930 1_655 S
C9 C8 1.355 1_455 S
C9 C11 1.402 1_455 S
C9 H21 0.930 . S
N10 Gd1 2.661 . S
N10 C5 1.350 . S
N10 C11 1.307 1_556 S
C11 C9 1.402 1_655 S
C11 N10 1.307 1_554 S
C11 H12 0.931 . S
H12 C11 0.931 . S
C13 N14 1.334 . S
C13 C15 1.394 . S
C13 H17 0.930 . S
N14 Gd1 2.601 . S
N14 C4 1.359 . S
N14 C13 1.334 . S
C15 C13 1.394 . S
C15 C16 1.359 . S
C15 H27 0.930 . S
C16 C6 1.391 . S
C16 C15 1.359 . S
C16 H28 0.929 . S
H17 C13 0.930 . S
H18 C7 0.930 . S
H19 C36 0.931 . S
H20 C8 0.930 1_455 S
H21 C9 0.930 . S
H22 C3 0.929 . S
H23 C41 0.930 . S
H24 C32 0.930 1_655 S
H25 C33 0.930 . S
H26 C57 0.929 . S
H27 C15 0.930 . S
H28 C16 0.929 . S
H29 C58 0.930 . S
H30 C39 0.930 . S
N31 Gd0 2.661 . S
N31 C35 1.350 . S
N31 C36 1.307 1_554 S
C32 H24 0.930 1_455 S
C32 C33 1.355 1_455 S
C32 C34 1.412 1_556 S
C33 H25 0.930 . S
C33 C32 1.355 1_655 S
C33 C36 1.402 1_655 S
C34 C32 1.412 1_554 S
C34 C35 1.417 . S
C34 C58 1.431 . S
C35 N31 1.350 . S
C35 C34 1.417 . S
C35 C38 1.426 . S
C36 H19 0.931 . S
C36 N31 1.307 1_556 S
C36 C33 1.402 1_455 S
N37 Gd0 2.601 . S
N37 C38 1.359 . S
N37 C41 1.334 . S
C38 C35 1.426 . S
C38 N37 1.359 . S
C38 C42 1.413 . S
C39 H30 0.930 . S
C39 C40 1.359 . S
C39 C41 1.394 . S
C40 C39 1.359 . S
C40 C42 1.391 . S
C40 H43 0.929 . S
C41 H23 0.930 . S
C41 N37 1.334 . S
C41 C39 1.394 . S
C42 C38 1.413 . S
C42 C40 1.391 . S
C42 C57 1.437 . S
H43 C40 0.929 . S
O44 Gd0 2.545 . S
O44 C59 1.258 . S
O45 Gd0 2.606 1_566 S
O45 Gd1 2.362 1_455 S
O45 C56 1.284 . S
O46 Gd1 2.324 1_554 S
O46 C66 1.254 1_665 S
O47 Gd0 2.429 . S
O47 C66 1.268 . S
O48 Gd0 2.545 1_565 S
O48 C56 1.250 1_554 S
O49 Gd0 2.412 . S
O49 C59 1.252 . S
O50 Gd1 2.545 . S
O50 C68 1.258 . S
O51 Gd0 2.362 1_655 S
O51 Gd1 2.606 1_544 S
O51 C67 1.284 . S
O52 Gd0 2.324 1_556 S
O52 C75 1.254 1_445 S
O53 Gd1 2.429 . S
O53 C75 1.268 . S
O54 Gd1 2.545 1_545 S
O54 C67 1.250 1_556 S
O55 Gd1 2.412 . S
O55 C68 1.252 . S
C56 O45 1.284 . S
C56 O48 1.250 1_556 S
C57 H26 0.929 . S
C57 C42 1.437 . S
C57 C58 1.317 . S
C58 H29 0.930 . S
C58 C34 1.431 . S
C58 C57 1.317 . S
C59 Gd0 2.828 . S
C59 O44 1.258 . S
C59 O49 1.252 . S
C59 C60 1.497 1_545 S
C60 C59 1.497 1_565 S
C60 C61 1.395 1_565 S
C60 C62 1.380 . S
C61 C60 1.395 1_545 S
C61 C64 1.398 1_545 S
C61 H76 0.930 . S
C62 C60 1.380 . S
C62 C63 1.391 . S
C62 H77 0.930 1_554 S
C63 C62 1.391 . S
C63 C65 1.387 . S
C64 C61 1.398 1_565 S
C64 C65 1.380 . S
C64 H78 0.930 1_565 S
C65 C63 1.387 . S
C65 C64 1.380 . S
C65 H79 0.930 . S
C66 O46 1.254 1_445 S
C66 O47 1.268 . S
C67 O51 1.284 . S
C67 O54 1.250 1_554 S
C68 Gd1 2.828 . S
C68 O50 1.258 . S
C68 O55 1.252 . S
C68 C69 1.497 1_565 S
C69 C68 1.497 1_545 S
C69 C70 1.395 1_545 S
C69 C71 1.380 . S
C70 C69 1.395 1_565 S
C70 C73 1.398 1_565 S
C70 H80 0.930 . S
C71 C69 1.380 . S
C71 C72 1.391 . S
C71 H81 0.930 1_556 S
C72 C71 1.391 . S
C72 C74 1.387 . S
C73 C70 1.398 1_545 S
C73 C74 1.380 . S
C73 H82 0.930 1_545 S
C74 C72 1.387 . S
C74 C73 1.380 . S
C74 H83 0.930 . S
C75 O52 1.254 1_665 S
C75 O53 1.268 . S
H76 C61 0.930 . S
H77 C62 0.930 1_556 S
H78 C64 0.930 1_545 S
H79 C65 0.930 . S
H80 C70 0.930 . S
H81 C71 0.930 1_554 S
H82 C73 0.930 1_565 S
H83 C74 0.930 . S
Gd84 N115 2.661 . S
Gd84 N121 2.601 . S
Gd84 O128 2.545 1_655 S
Gd84 O129 2.606 1_645 S
Gd84 O131 2.429 1_655 S
Gd84 O132 2.545 1_655 S
Gd84 O133 2.412 . S
Gd84 O135 2.362 . S
Gd84 O136 2.324 . S
Gd84 C143 2.828 1_655 S
Gd85 N94 2.661 . S
Gd85 N98 2.601 . S
Gd85 O129 2.362 . S
Gd85 O130 2.324 . S
Gd85 O134 2.545 1_455 S
Gd85 O135 2.606 1_465 S
Gd85 O137 2.429 1_455 S
Gd85 O138 2.545 1_455 S
Gd85 O139 2.412 . S
Gd85 C152 2.828 1_455 S
C86 C89 1.417 . S
C86 C91 1.431 . S
C86 C92 1.412 . S
C87 C90 1.437 . S
C87 C91 1.317 . S
C87 H106 0.929 . S
C88 C89 1.426 . S
C88 C90 1.413 . S
C88 N98 1.359 . S
C89 C86 1.417 . S
C89 C88 1.426 . S
C89 N94 1.350 . S
C90 C87 1.437 . S
C90 C88 1.413 . S
C90 C100 1.391 . S
C91 C86 1.431 . S
C91 C87 1.317 . S
C91 H102 0.930 . S
C92 C86 1.412 . S
C92 C93 1.355 . S
C92 H104 0.930 . S
C93 C92 1.355 . S
C93 C95 1.402 . S
C93 H105 0.930 . S
N94 Gd85 2.661 . S
N94 C89 1.350 . S
N94 C95 1.307 . S
C95 C93 1.402 . S
C95 N94 1.307 . S
C95 H96 0.930 . S
H96 C95 0.930 . S
C97 N98 1.334 . S
C97 C99 1.394 . S
C97 H101 0.930 . S
N98 Gd85 2.601 . S
N98 C88 1.359 . S
N98 C97 1.334 . S
C99 C97 1.394 . S
C99 C100 1.359 . S
C99 H111 0.930 . S
C100 C90 1.391 . S
C100 C99 1.359 . S
C100 H112 0.929 . S
H101 C97 0.930 . S
H102 C91 0.930 . S
H103 C120 0.930 . S
H104 C92 0.930 . S
H105 C93 0.930 . S
H106 C87 0.929 . S
H107 C125 0.930 . S
H108 C116 0.930 . S
H109 C117 0.930 . S
H110 C141 0.929 . S
H111 C99 0.930 . S
H112 C100 0.929 . S
H113 C142 0.930 . S
H114 C123 0.930 . S
N115 Gd84 2.661 . S
N115 C119 1.350 . S
N115 C120 1.307 . S
C116 H108 0.930 . S
C116 C117 1.355 . S
C116 C118 1.412 . S
C117 H109 0.930 . S
C117 C116 1.355 . S
C117 C120 1.402 . S
C118 C116 1.412 . S
C118 C119 1.417 . S
C118 C142 1.431 . S
C119 N115 1.350 . S
C119 C118 1.417 . S
C119 C122 1.426 . S
C120 H103 0.930 . S
C120 N115 1.307 . S
C120 C117 1.402 . S
N121 Gd84 2.601 . S
N121 C122 1.359 . S
N121 C125 1.334 . S
C122 C119 1.426 . S
C122 N121 1.359 . S
C122 C126 1.413 . S
C123 H114 0.930 . S
C123 C124 1.359 . S
C123 C125 1.394 . S
C124 C123 1.359 . S
C124 C126 1.391 . S
C124 H127 0.929 . S
C125 H107 0.930 . S
C125 N121 1.334 . S
C125 C123 1.394 . S
C126 C122 1.413 . S
C126 C124 1.391 . S
C126 C141 1.437 . S
H127 C124 0.929 . S
O128 Gd84 2.545 1_455 S
O128 C143 1.258 . S
O129 Gd84 2.606 1_465 S
O129 Gd85 2.362 . S
O129 C140 1.284 1_565 S
O130 Gd85 2.324 . S
O130 C150 1.254 . S
O131 Gd84 2.429 1_455 S
O131 C150 1.268 1_545 S
O132 Gd84 2.545 1_455 S
O132 C140 1.250 . S
O133 Gd84 2.412 . S
O133 C143 1.252 1_655 S
O134 Gd85 2.545 1_655 S
O134 C152 1.258 . S
O135 Gd84 2.362 . S
O135 Gd85 2.606 1_645 S
O135 C151 1.284 1_545 S
O136 Gd84 2.324 . S
O136 C159 1.254 . S
O137 Gd85 2.429 1_655 S
O137 C159 1.268 1_565 S
O138 Gd85 2.545 1_655 S
O138 C151 1.250 . S
O139 Gd85 2.412 . S
O139 C152 1.252 1_455 S
C140 O129 1.284 1_545 S
C140 O132 1.250 . S
C141 H110 0.929 . S
C141 C126 1.437 . S
C141 C142 1.317 . S
C142 H113 0.930 . S
C142 C118 1.431 . S
C142 C141 1.317 . S
C143 Gd84 2.828 1_455 S
C143 O128 1.258 . S
C143 O133 1.252 1_455 S
C143 C144 1.497 . S
C144 C143 1.497 . S
C144 C145 1.395 . S
C144 C146 1.380 . S
C145 C144 1.395 . S
C145 C148 1.398 . S
C145 H160 0.930 . S
C146 C144 1.380 . S
C146 C147 1.391 . S
C146 H161 0.930 . S
C147 C146 1.391 . S
C147 C149 1.387 . S
C148 C145 1.398 . S
C148 C149 1.380 . S
C148 H162 0.930 . S
C149 C147 1.387 . S
C149 C148 1.380 . S
C149 H163 0.930 . S
C150 O130 1.254 . S
C150 O131 1.268 1_565 S
C151 O135 1.284 1_565 S
C151 O138 1.250 . S
C152 Gd85 2.828 1_655 S
C152 O134 1.258 . S
C152 O139 1.252 1_655 S
C152 C153 1.497 . S
C153 C152 1.497 . S
C153 C154 1.395 . S
C153 C155 1.380 . S
C154 C153 1.395 . S
C154 C157 1.398 . S
C154 H164 0.930 . S
C155 C153 1.380 . S
C155 C156 1.391 . S
C155 H165 0.930 . S
C156 C155 1.391 . S
C156 C158 1.387 . S
C157 C154 1.398 . S
C157 C158 1.380 . S
C157 H166 0.930 . S
C158 C156 1.387 . S
C158 C157 1.380 . S
C158 H167 0.930 . S
C159 O136 1.254 . S
C159 O137 1.268 1_545 S
H160 C145 0.930 . S
H161 C146 0.930 . S
H162 C148 0.930 . S
H163 C149 0.930 . S
H164 C154 0.930 . S
H165 C155 0.930 . S
H166 C157 0.930 . S
H167 C158 0.930 . S
Gd168 N199 2.661 . S
Gd168 N205 2.601 . S
Gd168 O212 2.545 . S
Gd168 O213 2.606 1_554 S
Gd168 O215 2.429 . S
Gd168 O216 2.545 . S
Gd168 O217 2.412 . S
Gd168 O219 2.362 . S
Gd168 O220 2.324 1_554 S
Gd168 C227 2.828 . S
Gd169 N178 2.661 . S
Gd169 N182 2.601 . S
Gd169 O213 2.362 . S
Gd169 O214 2.324 1_556 S
Gd169 O218 2.545 . S
Gd169 O219 2.606 1_556 S
Gd169 O221 2.429 . S
Gd169 O222 2.545 . S
Gd169 O223 2.412 . S
Gd169 C236 2.828 . S
C170 C173 1.417 . S
C170 C175 1.431 . S
C170 C176 1.412 1_556 S
C171 C174 1.437 . S
C171 C175 1.317 . S
C171 H190 0.929 . S
C172 C173 1.426 . S
C172 C174 1.413 . S
C172 N182 1.359 . S
C173 C170 1.417 . S
C173 C172 1.426 . S
C173 N178 1.350 . S
C174 C171 1.437 . S
C174 C172 1.413 . S
C174 C184 1.391 . S
C175 C170 1.431 . S
C175 C171 1.317 . S
C175 H186 0.930 . S
C176 C170 1.412 1_554 S
C176 C177 1.355 . S
C176 H188 0.930 . S
C177 C176 1.355 . S
C177 C179 1.402 . S
C177 H189 0.930 . S
N178 Gd169 2.661 . S
N178 C173 1.350 . S
N178 C179 1.307 1_556 S
C179 C177 1.402 . S
C179 N178 1.307 1_554 S
C179 H180 0.930 . S
H180 C179 0.930 . S
C181 N182 1.334 . S
C181 C183 1.394 . S
C181 H185 0.930 . S
N182 Gd169 2.601 . S
N182 C172 1.359 . S
N182 C181 1.334 . S
C183 C181 1.394 . S
C183 C184 1.359 . S
C183 H195 0.930 . S
C184 C174 1.391 . S
C184 C183 1.359 . S
C184 H196 0.929 . S
H185 C181 0.930 . S
H186 C175 0.930 . S
H187 C204 0.930 . S
H188 C176 0.930 . S
H189 C177 0.930 . S
H190 C171 0.929 . S
H191 C209 0.930 . S
H192 C200 0.930 . S
H193 C201 0.930 . S
H194 C225 0.929 . S
H195 C183 0.930 . S
H196 C184 0.929 . S
H197 C226 0.930 . S
H198 C207 0.930 . S
N199 Gd168 2.661 . S
N199 C203 1.350 . S
N199 C204 1.307 1_554 S
C200 H192 0.930 . S
C200 C201 1.355 . S
C200 C202 1.412 1_556 S
C201 H193 0.930 . S
C201 C200 1.355 . S
C201 C204 1.402 . S
C202 C200 1.412 1_554 S
C202 C203 1.417 . S
C202 C226 1.431 . S
C203 N199 1.350 . S
C203 C202 1.417 . S
C203 C206 1.426 . S
C204 H187 0.930 . S
C204 N199 1.307 1_556 S
C204 C201 1.402 . S
N205 Gd168 2.601 . S
N205 C206 1.359 . S
N205 C209 1.334 . S
C206 C203 1.426 . S
C206 N205 1.359 . S
C206 C210 1.413 . S
C207 H198 0.930 . S
C207 C208 1.359 . S
C207 C209 1.394 . S
C208 C207 1.359 . S
C208 C210 1.391 . S
C208 H211 0.929 . S
C209 H191 0.930 . S
C209 N205 1.334 . S
C209 C207 1.394 . S
C210 C206 1.413 . S
C210 C208 1.391 . S
C210 C225 1.437 . S
H211 C208 0.929 . S
O212 Gd168 2.545 . S
O212 C227 1.258 . S
O213 Gd168 2.606 1_556 S
O213 Gd169 2.362 . S
O213 C224 1.284 . S
O214 Gd169 2.324 1_554 S
O214 C234 1.254 . S
O215 Gd168 2.429 . S
O215 C234 1.268 . S
O216 Gd168 2.545 . S
O216 C224 1.250 1_554 S
O217 Gd168 2.412 . S
O217 C227 1.252 . S
O218 Gd169 2.545 . S
O218 C236 1.258 . S
O219 Gd168 2.362 . S
O219 Gd169 2.606 1_554 S
O219 C235 1.284 . S
O220 Gd168 2.324 1_556 S
O220 C243 1.254 . S
O221 Gd169 2.429 . S
O221 C243 1.268 . S
O222 Gd169 2.545 . S
O222 C235 1.250 1_556 S
O223 Gd169 2.412 . S
O223 C236 1.252 . S
C224 O213 1.284 . S
C224 O216 1.250 1_556 S
C225 H194 0.929 . S
C225 C210 1.437 . S
C225 C226 1.317 . S
C226 H197 0.930 . S
C226 C202 1.431 . S
C226 C225 1.317 . S
C227 Gd168 2.828 . S
C227 O212 1.258 . S
C227 O217 1.252 . S
C227 C228 1.497 1_655 S
C228 C227 1.497 1_455 S
C228 C229 1.395 . S
C228 C230 1.380 . S
C229 C228 1.395 . S
C229 C232 1.398 . S
C229 H244 0.930 . S
C230 C228 1.380 . S
C230 C231 1.391 . S
C230 H245 0.930 1_554 S
C231 C230 1.391 . S
C231 C233 1.387 . S
C232 C229 1.398 . S
C232 C233 1.380 . S
C232 H246 0.930 . S
C233 C231 1.387 . S
C233 C232 1.380 . S
C233 H247 0.930 . S
C234 O214 1.254 . S
C234 O215 1.268 . S
C235 O219 1.284 . S
C235 O222 1.250 1_554 S
C236 Gd169 2.828 . S
C236 O218 1.258 . S
C236 O223 1.252 . S
C236 C237 1.497 1_455 S
C237 C236 1.497 1_655 S
C237 C238 1.395 . S
C237 C239 1.380 . S
C238 C237 1.395 . S
C238 C241 1.398 . S
C238 H248 0.930 . S
C239 C237 1.380 . S
C239 C240 1.391 . S
C239 H249 0.930 1_556 S
C240 C239 1.391 . S
C240 C242 1.387 . S
C241 C238 1.398 . S
C241 C242 1.380 . S
C241 H250 0.930 . S
C242 C240 1.387 . S
C242 C241 1.380 . S
C242 H251 0.930 . S
C243 O220 1.254 . S
C243 O221 1.268 . S
H244 C229 0.930 . S
H245 C230 0.930 1_556 S
H246 C232 0.930 . S
H247 C233 0.930 . S
H248 C238 0.930 . S
H249 C239 0.930 1_554 S
H250 C241 0.930 . S
H251 C242 0.930 . S
Gd252 N283 2.661 . S
Gd252 N289 2.601 . S
Gd252 O296 2.545 . S
Gd252 O297 2.606 . S
Gd252 O299 2.429 . S
Gd252 O300 2.545 . S
Gd252 O301 2.412 . S
Gd252 O303 2.362 . S
Gd252 O304 2.324 . S
Gd252 C311 2.828 . S
Gd253 N262 2.661 . S
Gd253 N266 2.601 . S
Gd253 O297 2.362 . S
Gd253 O298 2.324 . S
Gd253 O302 2.545 . S
Gd253 O303 2.606 . S
Gd253 O305 2.429 . S
Gd253 O306 2.545 . S
Gd253 O307 2.412 . S
Gd253 C320 2.828 . S
C254 C257 1.417 . S
C254 C259 1.431 1_655 S
C254 C260 1.412 1_655 S
C255 C258 1.437 . S
C255 C259 1.317 1_655 S
C255 H274 0.929 1_655 S
C256 C257 1.426 . S
C256 C258 1.413 . S
C256 N266 1.359 . S
C257 C254 1.417 . S
C257 C256 1.426 . S
C257 N262 1.350 . S
C258 C255 1.437 . S
C258 C256 1.413 . S
C258 C268 1.391 . S
C259 C254 1.431 1_455 S
C259 C255 1.317 1_455 S
C259 H270 0.930 . S
C260 C254 1.412 1_455 S
C260 C261 1.355 1_455 S
C260 H272 0.930 . S
C261 C260 1.355 1_655 S
C261 C263 1.402 . S
C261 H273 0.930 . S
N262 Gd253 2.661 . S
N262 C257 1.350 . S
N262 C263 1.307 . S
C263 C261 1.402 . S
C263 N262 1.307 . S
C263 H264 0.930 . S
H264 C263 0.930 . S
C265 N266 1.334 . S
C265 C267 1.394 . S
C265 H269 0.930 . S
N266 Gd253 2.601 . S
N266 C256 1.359 . S
N266 C265 1.334 . S
C267 C265 1.394 . S
C267 C268 1.359 . S
C267 H279 0.930 . S
C268 C258 1.391 . S
C268 C267 1.359 . S
C268 H280 0.929 . S
H269 C265 0.930 . S
H270 C259 0.930 . S
H271 C288 0.930 . S
H272 C260 0.930 . S
H273 C261 0.930 . S
H274 C255 0.929 1_455 S
H275 C293 0.930 . S
H276 C284 0.930 . S
H277 C285 0.930 . S
H278 C309 0.929 1_655 S
H279 C267 0.930 . S
H280 C268 0.929 . S
H281 C310 0.930 . S
H282 C291 0.930 . S
N283 Gd252 2.661 . S
N283 C287 1.350 . S
N283 C288 1.307 . S
C284 H276 0.930 . S
C284 C285 1.355 1_655 S
C284 C286 1.412 1_655 S
C285 H277 0.930 . S
C285 C284 1.355 1_455 S
C285 C288 1.402 . S
C286 C284 1.412 1_455 S
C286 C287 1.417 . S
C286 C310 1.431 1_455 S
C287 N283 1.350 . S
C287 C286 1.417 . S
C287 C290 1.426 . S
C288 H271 0.930 . S
C288 N283 1.307 . S
C288 C285 1.402 . S
N289 Gd252 2.601 . S
N289 C290 1.359 . S
N289 C293 1.334 . S
C290 C287 1.426 . S
C290 N289 1.359 . S
C290 C294 1.413 . S
C291 H282 0.930 . S
C291 C292 1.359 . S
C291 C293 1.394 . S
C292 C291 1.359 . S
C292 C294 1.391 . S
C292 H295 0.929 . S
C293 H275 0.930 . S
C293 N289 1.334 . S
C293 C291 1.394 . S
C294 C290 1.413 . S
C294 C292 1.391 . S
C294 C309 1.437 . S
H295 C292 0.929 . S
O296 Gd252 2.545 . S
O296 C311 1.258 . S
O297 Gd252 2.606 . S
O297 Gd253 2.362 . S
O297 C308 1.284 . S
O298 Gd253 2.324 . S
O298 C318 1.254 . S
O299 Gd252 2.429 . S
O299 C318 1.268 . S
O300 Gd252 2.545 . S
O300 C308 1.250 . S
O301 Gd252 2.412 . S
O301 C311 1.252 . S
O302 Gd253 2.545 . S
O302 C320 1.258 . S
O303 Gd252 2.362 . S
O303 Gd253 2.606 . S
O303 C319 1.284 . S
O304 Gd252 2.324 . S
O304 C327 1.254 . S
O305 Gd253 2.429 . S
O305 C327 1.268 . S
O306 Gd253 2.545 . S
O306 C319 1.250 . S
O307 Gd253 2.412 . S
O307 C320 1.252 . S
C308 O297 1.284 . S
C308 O300 1.250 . S
C309 H278 0.929 1_455 S
C309 C294 1.437 . S
C309 C310 1.317 1_455 S
C310 H281 0.930 . S
C310 C286 1.431 1_655 S
C310 C309 1.317 1_655 S
C311 Gd252 2.828 . S
C311 O296 1.258 . S
C311 O301 1.252 . S
C311 C312 1.497 . S
C312 C311 1.497 . S
C312 C313 1.395 . S
C312 C314 1.380 . S
C313 C312 1.395 . S
C313 C316 1.398 . S
C313 H328 0.930 . S
C314 C312 1.380 . S
C314 C315 1.391 . S
C314 H329 0.930 . S
C315 C314 1.391 . S
C315 C317 1.387 . S
C316 C313 1.398 . S
C316 C317 1.380 . S
C316 H330 0.930 . S
C317 C315 1.387 . S
C317 C316 1.380 . S
C317 H331 0.930 . S
C318 O298 1.254 . S
C318 O299 1.268 . S
C319 O303 1.284 . S
C319 O306 1.250 . S
C320 Gd253 2.828 . S
C320 O302 1.258 . S
C320 O307 1.252 . S
C320 C321 1.497 . S
C321 C320 1.497 . S
C321 C322 1.395 . S
C321 C323 1.380 . S
C322 C321 1.395 . S
C322 C325 1.398 . S
C322 H332 0.930 . S
C323 C321 1.380 . S
C323 C324 1.391 . S
C323 H333 0.930 . S
C324 C323 1.391 . S
C324 C326 1.387 . S
C325 C322 1.398 . S
C325 C326 1.380 . S
C325 H334 0.930 . S
C326 C324 1.387 . S
C326 C325 1.380 . S
C326 H335 0.930 . S
C327 O304 1.254 . S
C327 O305 1.268 . S
H328 C313 0.930 . S
H329 C314 0.930 . S
H330 C316 0.930 . S
H331 C317 0.930 . S
H332 C322 0.930 . S
H333 C323 0.930 . S
H334 C325 0.930 . S
H335 C326 0.930 . S
C235 C56 5.911 1_554 S
C224 C67 5.907 1_556 S
C147 C324 2.868 . S
C156 C315 2.866 . S
C63 C72 4.490 1_564 S
C140 C151 5.213 1_445 S
C231 C240 4.490 1_454 S
C319 C308 5.213 . S
C159 C66 1.504 1_655 S
C75 C150 1.506 1_655 S
C327 C234 1.504 . S
C318 C243 1.506 . S
