# Generated by pormake.
# Topology gis, (4)-cn, num edge types: 1
# Building blocks:
#     Node 0, Type 0, BuildingBlock: ICAMEG_clean_sbu_1, # of connection points: 4
#     Node 1, Type 0, BuildingBlock: ICAMEG_clean_sbu_1, # of connection points: 4
#     Node 2, Type 0, BuildingBlock: ICAMEG_clean_sbu_1, # of connection points: 4
#     Node 3, Type 0, BuildingBlock: ICAMEG_clean_sbu_1, # of connection points: 4
#     Node 4, Type 0, BuildingBlock: ICAMEG_clean_sbu_1, # of connection points: 4
#     Node 5, Type 0, BuildingBlock: ICAMEG_clean_sbu_1, # of connection points: 4
#     Node 6, Type 0, BuildingBlock: ICAMEG_clean_sbu_1, # of connection points: 4
#     Node 7, Type 0, BuildingBlock: ICAMEG_clean_sbu_1, # of connection points: 4
#     Node 8, Type 0, BuildingBlock: ICAMEG_clean_sbu_1, # of connection points: 4
#     Node 9, Type 0, BuildingBlock: ICAMEG_clean_sbu_1, # of connection points: 4
#     Node 10, Type 0, BuildingBlock: ICAMEG_clean_sbu_1, # of connection points: 4
#     Node 11, Type 0, BuildingBlock: ICAMEG_clean_sbu_1, # of connection points: 4
#     Node 12, Type 0, BuildingBlock: ICAMEG_clean_sbu_1, # of connection points: 4
#     Node 13, Type 0, BuildingBlock: ICAMEG_clean_sbu_1, # of connection points: 4
#     Node 14, Type 0, BuildingBlock: ICAMEG_clean_sbu_1, # of connection points: 4
#     Node 15, Type 0, BuildingBlock: ICAMEG_clean_sbu_1, # of connection points: 4
#     Edge 16, Type (0, 0), BuildingBlock: MIFKUJ_clean_linker_0, # of connection points: 2
#     Edge 17, Type (0, 0), BuildingBlock: MIFKUJ_clean_linker_0, # of connection points: 2
#     Edge 18, Type (0, 0), BuildingBlock: MIFKUJ_clean_linker_0, # of connection points: 2
#     Edge 19, Type (0, 0), BuildingBlock: MIFKUJ_clean_linker_0, # of connection points: 2
#     Edge 20, Type (0, 0), BuildingBlock: MIFKUJ_clean_linker_0, # of connection points: 2
#     Edge 21, Type (0, 0), BuildingBlock: MIFKUJ_clean_linker_0, # of connection points: 2
#     Edge 22, Type (0, 0), BuildingBlock: MIFKUJ_clean_linker_0, # of connection points: 2
#     Edge 23, Type (0, 0), BuildingBlock: MIFKUJ_clean_linker_0, # of connection points: 2
#     Edge 24, Type (0, 0), BuildingBlock: MIFKUJ_clean_linker_0, # of connection points: 2
#     Edge 25, Type (0, 0), BuildingBlock: MIFKUJ_clean_linker_0, # of connection points: 2
#     Edge 26, Type (0, 0), BuildingBlock: MIFKUJ_clean_linker_0, # of connection points: 2
#     Edge 27, Type (0, 0), BuildingBlock: MIFKUJ_clean_linker_0, # of connection points: 2
#     Edge 28, Type (0, 0), BuildingBlock: MIFKUJ_clean_linker_0, # of connection points: 2
#     Edge 29, Type (0, 0), BuildingBlock: MIFKUJ_clean_linker_0, # of connection points: 2
#     Edge 30, Type (0, 0), BuildingBlock: MIFKUJ_clean_linker_0, # of connection points: 2
#     Edge 31, Type (0, 0), BuildingBlock: MIFKUJ_clean_linker_0, # of connection points: 2
#     Edge 32, Type (0, 0), BuildingBlock: MIFKUJ_clean_linker_0, # of connection points: 2
#     Edge 33, Type (0, 0), BuildingBlock: MIFKUJ_clean_linker_0, # of connection points: 2
#     Edge 34, Type (0, 0), BuildingBlock: MIFKUJ_clean_linker_0, # of connection points: 2
#     Edge 35, Type (0, 0), BuildingBlock: MIFKUJ_clean_linker_0, # of connection points: 2
#     Edge 36, Type (0, 0), BuildingBlock: MIFKUJ_clean_linker_0, # of connection points: 2
#     Edge 37, Type (0, 0), BuildingBlock: MIFKUJ_clean_linker_0, # of connection points: 2
#     Edge 38, Type (0, 0), BuildingBlock: MIFKUJ_clean_linker_0, # of connection points: 2
#     Edge 39, Type (0, 0), BuildingBlock: MIFKUJ_clean_linker_0, # of connection points: 2
#     Edge 40, Type (0, 0), BuildingBlock: MIFKUJ_clean_linker_0, # of connection points: 2
#     Edge 41, Type (0, 0), BuildingBlock: MIFKUJ_clean_linker_0, # of connection points: 2
#     Edge 42, Type (0, 0), BuildingBlock: MIFKUJ_clean_linker_0, # of connection points: 2
#     Edge 43, Type (0, 0), BuildingBlock: MIFKUJ_clean_linker_0, # of connection points: 2
#     Edge 44, Type (0, 0), BuildingBlock: MIFKUJ_clean_linker_0, # of connection points: 2
#     Edge 45, Type (0, 0), BuildingBlock: MIFKUJ_clean_linker_0, # of connection points: 2
#     Edge 46, Type (0, 0), BuildingBlock: MIFKUJ_clean_linker_0, # of connection points: 2
#     Edge 47, Type (0, 0), BuildingBlock: MIFKUJ_clean_linker_0, # of connection points: 2
# Relax obj value: 0.027
# Max RMSD: 0.090
# Mean RMSD: 0.089
data_MOF--net-gis--node1-ICAMEG_clean_sbu_1--edge1-MIFKUJ_clean_linker_0
_symmetry_space_group_name_H-M    P1
_symmetry_Int_Tables_number       1
_symmetry_cell_setting            triclinic
loop_
_symmetry_equiv_pos_as_xyz
'x, y, z'
_cell_length_a     74.479649
_cell_length_b     74.429543
_cell_length_c     45.484421
_cell_angle_alpha  90.082101
_cell_angle_beta   90.047436
_cell_angle_gamma 89.997233
loop_
_atom_site_label
_atom_site_type_symbol
_atom_site_fract_x
_atom_site_fract_y
_atom_site_fract_z
_atom_type_partial_charge
Co0 Co 0.13063 0.62006 0.0838 0.0
Co1 Co 0.12821 0.61564 0.15942 0.0
O2 O 0.13778 0.60899 0.12093 0.0
C3 C 0.12237 0.58167 0.07628 0.0
O4 O 0.11544 0.58228 0.10278 0.0
C5 C 0.16717 0.62143 0.16531 0.0
O6 O 0.16643 0.62971 0.13988 0.0
O7 O 0.13148 0.64172 0.15117 0.0
O8 O 0.13176 0.64445 0.10194 0.0
H9 H 0.08943 0.65056 0.22948 0.0
H10 H 0.1613 0.59471 0.08519 0.0
O11 O 0.12924 0.59573 0.06497 0.0
H12 H 0.18638 0.65194 0.04933 0.0
H13 H 0.13148 0.6272 0.97376 0.0
H14 H 0.10585 0.64947 0.06688 0.0
H15 H 0.15414 0.64932 0.06091 0.0
H16 H 0.14034 0.61364 0.02108 0.0
O17 O 0.15301 0.61467 0.17641 0.0
H18 H 0.10135 0.64198 0.18086 0.0
H19 H 0.1355 0.60327 0.22058 0.0
H20 H 0.09676 0.66354 0.02011 0.0
H21 H 0.1936 0.59669 0.07362 0.0
H22 H 0.1096 0.65239 0.97311 0.0
H23 H 0.20634 0.62549 0.05565 0.0
O24 O 0.1047 0.61831 0.09401 0.0
H25 H 0.14708 0.55085 0.16209 0.0
H26 H 0.09791 0.59348 0.18228 0.0
H27 H 0.09313 0.56111 0.19074 0.0
H28 H 0.11783 0.53955 0.18064 0.0
H29 H 0.15123 0.58332 0.15367 0.0
H30 H 0.12405 0.61153 0.26966 0.0
H31 H 0.1008 0.63529 0.27431 0.0
O32 O 0.10335 0.61682 0.14328 0.0
C33 C 0.13218 0.65114 0.12778 0.0
C34 C 0.09952 0.64015 0.22773 0.0
C35 C 0.11897 0.61826 0.25029 0.0
N36 N 0.11899 0.62204 0.19789 0.0
C37 C 0.10628 0.6352 0.20026 0.0
C38 C 0.12542 0.61366 0.22245 0.0
C39 C 0.10592 0.63158 0.25288 0.0
C40 C 0.16672 0.60724 0.07711 0.0
N41 N 0.15584 0.62186 0.0736 0.0
C42 C 0.18503 0.6083 0.07071 0.0
C43 C 0.19218 0.62447 0.06066 0.0
C44 C 0.18099 0.63932 0.05713 0.0
C45 C 0.16275 0.63777 0.06379 0.0
C46 C 0.12581 0.63219 0.9941 0.0
C47 C 0.11158 0.64462 0.04653 0.0
C48 C 0.13075 0.62454 0.02094 0.0
N49 N 0.12372 0.63085 0.04671 0.0
C50 C 0.10634 0.6526 0.02011 0.0
C51 C 0.11354 0.64633 0.99375 0.0
C52 C 0.09593 0.61759 0.11805 0.0
C53 C 0.13624 0.56012 0.16668 0.0
C54 C 0.10872 0.58418 0.17781 0.0
C55 C 0.10594 0.56587 0.1827 0.0
C56 C 0.11981 0.55378 0.17704 0.0
N57 N 0.12486 0.59029 0.16761 0.0
C58 C 0.13854 0.57852 0.16208 0.0
Co59 Co 0.63282 0.87576 0.41088 0.0
Co60 Co 0.63075 0.87867 0.33504 0.0
O61 O 0.6405 0.88576 0.37323 0.0
C62 C 0.62648 0.91464 0.41662 0.0
O63 O 0.61969 0.91406 0.39 0.0
C64 C 0.66956 0.87167 0.32976 0.0
O65 O 0.66856 0.86372 0.35545 0.0
O66 O 0.6332 0.85268 0.34471 0.0
O67 O 0.63268 0.85101 0.39405 0.0
H68 H 0.59093 0.84363 0.26663 0.0
H69 H 0.66474 0.89949 0.40854 0.0
O70 O 0.63264 0.90043 0.4285 0.0
H71 H 0.68687 0.84168 0.44707 0.0
H72 H 0.63332 0.87074 0.52123 0.0
H73 H 0.60641 0.84817 0.42922 0.0
H74 H 0.65482 0.84573 0.43515 0.0
H75 H 0.64297 0.88278 0.47326 0.0
O76 O 0.65557 0.87854 0.31823 0.0
H77 H 0.60308 0.8528 0.31484 0.0
H78 H 0.6385 0.88955 0.27329 0.0
H79 H 0.59648 0.83564 0.47668 0.0
H80 H 0.69688 0.89608 0.4204 0.0
H81 H 0.60997 0.84695 0.52313 0.0
H82 H 0.70814 0.86698 0.43973 0.0
O83 O 0.60706 0.87865 0.4004 0.0
H84 H 0.65188 0.94264 0.32851 0.0
H85 H 0.60124 0.90135 0.31069 0.0
H86 H 0.59766 0.93362 0.29996 0.0
H87 H 0.62311 0.95451 0.30886 0.0
H88 H 0.65482 0.91029 0.3392 0.0
H89 H 0.62684 0.88068 0.2246 0.0
H90 H 0.60283 0.85761 0.22107 0.0
O91 O 0.60581 0.87863 0.35104 0.0
C92 C 0.63316 0.84375 0.36864 0.0
C93 C 0.60135 0.85374 0.26788 0.0
C94 C 0.62152 0.87451 0.24429 0.0
N95 N 0.62137 0.87179 0.29687 0.0
C96 C 0.60824 0.85902 0.29512 0.0
C97 C 0.6281 0.87945 0.27191 0.0
C98 C 0.60804 0.86158 0.24233 0.0
C99 C 0.66951 0.88685 0.41721 0.0
N100 N 0.65791 0.87286 0.4213 0.0
C101 C 0.68774 0.88497 0.42377 0.0
C102 C 0.69405 0.86863 0.43458 0.0
C103 C 0.68213 0.85443 0.43869 0.0
C104 C 0.664 0.85679 0.43184 0.0
C105 C 0.62737 0.86568 0.50115 0.0
C106 C 0.61243 0.85307 0.44933 0.0
C107 C 0.63276 0.87247 0.47393 0.0
N108 N 0.62536 0.86607 0.44848 0.0
C109 C 0.60671 0.84596 0.47614 0.0
C110 C 0.61427 0.85233 0.50219 0.0
C111 C 0.59835 0.87899 0.37627 0.0
C112 C 0.64071 0.93367 0.32447 0.0
C113 C 0.61236 0.91035 0.31468 0.0
C114 C 0.61027 0.92861 0.30851 0.0
C115 C 0.62456 0.94032 0.31348 0.0
N116 N 0.62825 0.90393 0.32545 0.0
C117 C 0.64232 0.91533 0.33035 0.0
Co118 Co 0.37296 0.3835 0.66263 0.0
Co119 Co 0.36975 0.37998 0.58694 0.0
O120 O 0.36292 0.39053 0.62466 0.0
C121 C 0.33408 0.37754 0.66846 0.0
O122 O 0.33467 0.37038 0.64209 0.0
C123 C 0.37743 0.41854 0.58035 0.0
O124 O 0.38522 0.41765 0.6062 0.0
O125 O 0.39577 0.38205 0.59645 0.0
O126 O 0.39766 0.38298 0.64576 0.0
H127 H 0.40372 0.33819 0.52032 0.0
H128 H 0.34937 0.41548 0.65864 0.0
O129 O 0.34832 0.38372 0.68027 0.0
H130 H 0.40728 0.43813 0.69605 0.0
H131 H 0.37815 0.38596 0.77292 0.0
H132 H 0.40056 0.35741 0.68218 0.0
H133 H 0.40306 0.40584 0.68591 0.0
H134 H 0.36604 0.39476 0.72452 0.0
O135 O 0.37036 0.40455 0.56906 0.0
H136 H 0.39495 0.35139 0.56798 0.0
H137 H 0.35894 0.38693 0.52489 0.0
H138 H 0.41317 0.34832 0.73007 0.0
H139 H 0.35296 0.44786 0.66868 0.0
H140 H 0.40194 0.36264 0.77588 0.0
H141 H 0.38211 0.45938 0.68743 0.0
O142 O 0.36998 0.35754 0.65342 0.0
H143 H 0.30621 0.40222 0.57946 0.0
H144 H 0.34647 0.35046 0.56411 0.0
H145 H 0.31412 0.34727 0.55372 0.0
H146 H 0.29376 0.37329 0.56138 0.0
H147 H 0.33862 0.40476 0.58989 0.0
H148 H 0.36742 0.37422 0.47673 0.0
H149 H 0.38991 0.34961 0.47426 0.0
O150 O 0.36934 0.35533 0.60414 0.0
C151 C 0.4048 0.38263 0.62028 0.0
C152 C 0.39386 0.34886 0.52112 0.0
C153 C 0.3735 0.3691 0.49665 0.0
N154 N 0.37635 0.3698 0.54921 0.0
C155 C 0.38881 0.35635 0.54804 0.0
C156 C 0.36878 0.37627 0.52397 0.0
C157 C 0.38612 0.35529 0.49528 0.0
C158 C 0.36203 0.42037 0.66708 0.0
N159 N 0.37595 0.40878 0.67183 0.0
C160 C 0.36401 0.43873 0.67261 0.0
C161 C 0.38038 0.44519 0.68309 0.0
C162 C 0.39451 0.43327 0.68791 0.0
C163 C 0.39205 0.41501 0.68209 0.0
C164 C 0.38318 0.37965 0.75311 0.0
C165 C 0.3957 0.36378 0.702 0.0
C166 C 0.37635 0.38455 0.72566 0.0
N167 N 0.3827 0.3767 0.70056 0.0
C168 C 0.40285 0.35854 0.72906 0.0
C169 C 0.39653 0.36657 0.75476 0.0
C170 C 0.36924 0.34836 0.62976 0.0
C171 C 0.31496 0.39081 0.57596 0.0
C172 C 0.33769 0.36183 0.56755 0.0
C173 C 0.31939 0.35995 0.56157 0.0
C174 C 0.30797 0.37456 0.56586 0.0
N175 N 0.34444 0.3778 0.57749 0.0
C176 C 0.33333 0.39219 0.58169 0.0
Co177 Co 0.86873 0.12158 0.83509 0.0
Co178 Co 0.86609 0.12311 0.91104 0.0
O179 O 0.85878 0.11369 0.87269 0.0
C180 C 0.82982 0.128 0.82995 0.0
O181 O 0.83041 0.13433 0.85688 0.0
C182 C 0.87268 0.08416 0.91495 0.0
O183 O 0.87969 0.08525 0.88855 0.0
O184 O 0.89196 0.12057 0.90098 0.0
O185 O 0.89356 0.12133 0.85166 0.0
H186 H 0.90171 0.16219 0.9798 0.0
H187 H 0.84473 0.08984 0.83677 0.0
O188 O 0.84403 0.12213 0.81767 0.0
H189 H 0.90224 0.06749 0.79744 0.0
H190 H 0.87342 0.12205 0.72468 0.0
H191 H 0.89639 0.14801 0.81717 0.0
H192 H 0.8985 0.0995 0.81008 0.0
H193 H 0.86151 0.11199 0.77251 0.0
O194 O 0.86632 0.09813 0.92737 0.0
H195 H 0.89218 0.15051 0.93145 0.0
H196 H 0.85553 0.11489 0.97278 0.0
H197 H 0.90876 0.15839 0.76985 0.0
H198 H 0.84783 0.05774 0.82414 0.0
H199 H 0.89727 0.14537 0.72317 0.0
H200 H 0.87677 0.04637 0.80443 0.0
O201 O 0.86608 0.14726 0.84619 0.0
H202 H 0.80213 0.10215 0.91816 0.0
H203 H 0.84369 0.15254 0.93635 0.0
H204 H 0.81152 0.15614 0.94774 0.0
H205 H 0.7905 0.13082 0.93865 0.0
H206 H 0.83439 0.09917 0.90687 0.0
H207 H 0.86477 0.12607 0.02159 0.0
H208 H 0.88798 0.14994 0.0253 0.0
O209 O 0.86616 0.14821 0.89556 0.0
C210 C 0.90085 0.1206 0.87703 0.0
C211 C 0.89155 0.15183 0.97846 0.0
C212 C 0.87083 0.13154 0.00192 0.0
N213 N 0.87321 0.13216 0.9493 0.0
C214 C 0.88606 0.14521 0.95115 0.0
C215 C 0.86567 0.12524 0.97423 0.0
C216 C 0.88385 0.14494 0.00399 0.0
C217 C 0.8573 0.08502 0.8279 0.0
N218 N 0.87138 0.09654 0.82402 0.0
C219 C 0.859 0.06682 0.82091 0.0
C220 C 0.87526 0.06045 0.8099 0.0
C221 C 0.88955 0.07228 0.80598 0.0
C222 C 0.88737 0.09039 0.81324 0.0
C223 C 0.87857 0.12779 0.74487 0.0
C224 C 0.89141 0.1422 0.79695 0.0
C225 C 0.87186 0.12216 0.77201 0.0
N226 N 0.87837 0.12929 0.79759 0.0
C227 C 0.89843 0.14816 0.77022 0.0
C228 C 0.89195 0.14087 0.74404 0.0
C229 C 0.86581 0.15583 0.87046 0.0
C230 C 0.81117 0.11326 0.9223 0.0
C231 C 0.83462 0.14147 0.93229 0.0
C232 C 0.81643 0.14358 0.93884 0.0
C233 C 0.80464 0.12936 0.93376 0.0
N234 N 0.84092 0.12563 0.92108 0.0
C235 C 0.82945 0.11162 0.91608 0.0
Co236 Co 0.13296 0.37592 0.91209 0.0
Co237 Co 0.12959 0.37832 0.83627 0.0
O238 O 0.13972 0.38593 0.87394 0.0
C239 C 0.12557 0.41466 0.91707 0.0
O240 O 0.11864 0.41364 0.89059 0.0
C241 C 0.16852 0.3726 0.8302 0.0
O242 O 0.16814 0.36566 0.8567 0.0
O243 O 0.13276 0.35253 0.84637 0.0
O244 O 0.13351 0.351 0.89571 0.0
H245 H 0.08955 0.3418 0.77034 0.0
H246 H 0.16395 0.40075 0.90793 0.0
O247 O 0.13214 0.40072 0.92926 0.0
H248 H 0.18874 0.34413 0.94686 0.0
H249 H 0.13519 0.37182 0.02249 0.0
H250 H 0.10792 0.34748 0.93198 0.0
H251 H 0.15638 0.34694 0.93627 0.0
H252 H 0.14369 0.38383 0.97392 0.0
O253 O 0.15416 0.37849 0.81842 0.0
H254 H 0.1022 0.35169 0.81783 0.0
H255 H 0.13615 0.38883 0.77398 0.0
H256 H 0.09915 0.33495 0.98006 0.0
H257 H 0.19638 0.39857 0.91842 0.0
H258 H 0.11282 0.34715 0.02575 0.0
H259 H 0.20898 0.37008 0.93793 0.0
O260 O 0.10694 0.37788 0.90262 0.0
H261 H 0.1491 0.44272 0.82755 0.0
H262 H 0.09916 0.40014 0.81289 0.0
H263 H 0.09458 0.43226 0.802 0.0
H264 H 0.11967 0.45379 0.8093 0.0
H265 H 0.15302 0.41051 0.83854 0.0
H266 H 0.12395 0.37927 0.72599 0.0
H267 H 0.10043 0.35563 0.72399 0.0
O268 O 0.10494 0.37793 0.85332 0.0
C269 C 0.13362 0.34369 0.87031 0.0
C270 C 0.09974 0.35216 0.77093 0.0
C271 C 0.11907 0.37317 0.74604 0.0
N272 N 0.11978 0.37092 0.79867 0.0
C273 C 0.10692 0.35784 0.79775 0.0
C274 C 0.12595 0.37851 0.77326 0.0
C275 C 0.10587 0.35991 0.74493 0.0
C276 C 0.16931 0.38837 0.91669 0.0
N277 N 0.15828 0.37402 0.92159 0.0
C278 C 0.18769 0.38719 0.92247 0.0
C279 C 0.19475 0.37119 0.93338 0.0
C280 C 0.18341 0.35662 0.93837 0.0
C281 C 0.1651 0.35828 0.93228 0.0
C282 C 0.12917 0.36637 0.00274 0.0
C283 C 0.11401 0.35276 0.95176 0.0
C284 C 0.1339 0.37314 0.97519 0.0
N285 N 0.12641 0.36625 0.95015 0.0
C286 C 0.10895 0.34566 0.97892 0.0
C287 C 0.11662 0.35252 0.00455 0.0
C288 C 0.09786 0.3781 0.87883 0.0
C289 C 0.13808 0.43346 0.82419 0.0
C290 C 0.11014 0.40942 0.81617 0.0
C291 C 0.10747 0.42759 0.80991 0.0
C292 C 0.12156 0.43967 0.81399 0.0
N293 N 0.12637 0.40344 0.82623 0.0
C294 C 0.14026 0.41519 0.83023 0.0
Co295 Co 0.87038 0.87911 0.08252 0.0
Co296 Co 0.87266 0.88345 0.15816 0.0
O297 O 0.86288 0.88991 0.11974 0.0
C298 C 0.87693 0.91782 0.07522 0.0
O299 O 0.88386 0.91753 0.10174 0.0
C300 C 0.83384 0.87695 0.1645 0.0
O301 O 0.83463 0.8684 0.13927 0.0
O302 O 0.86964 0.85737 0.14978 0.0
O303 O 0.8704 0.85467 0.10054 0.0
H304 H 0.91201 0.84896 0.22788 0.0
H305 H 0.83865 0.90314 0.0839 0.0
O306 O 0.87069 0.90348 0.0638 0.0
H307 H 0.81598 0.84475 0.0484 0.0
H308 H 0.86939 0.872 0.97246 0.0
H309 H 0.89656 0.85103 0.06518 0.0
H310 H 0.84809 0.84877 0.05997 0.0
H311 H 0.86005 0.88503 0.01996 0.0
O312 O 0.84791 0.88413 0.17527 0.0
H313 H 0.89986 0.85741 0.17936 0.0
H314 H 0.8654 0.89575 0.21941 0.0
H315 H 0.90619 0.83751 0.01821 0.0
H316 H 0.80646 0.89975 0.07233 0.0
H317 H 0.89257 0.84801 0.97141 0.0
H318 H 0.79493 0.87036 0.05453 0.0
O319 O 0.89621 0.88198 0.09261 0.0
H320 H 0.85293 0.94797 0.16161 0.0
H321 H 0.90276 0.90598 0.18093 0.0
H322 H 0.90713 0.93839 0.18974 0.0
H323 H 0.88208 0.95963 0.18008 0.0
H324 H 0.84921 0.91547 0.1528 0.0
H325 H 0.87708 0.88762 0.2684 0.0
H326 H 0.90061 0.86412 0.27283 0.0
O327 O 0.89752 0.88256 0.14194 0.0
C328 C 0.86967 0.84796 0.12632 0.0
C329 C 0.90181 0.85927 0.22623 0.0
C330 C 0.88218 0.88095 0.24897 0.0
N331 N 0.88205 0.87716 0.19655 0.0
C332 C 0.89491 0.86414 0.19881 0.0
C333 C 0.8756 0.88547 0.22119 0.0
C334 C 0.89539 0.86776 0.25144 0.0
C335 C 0.83376 0.89036 0.07589 0.0
N336 N 0.84524 0.87621 0.07245 0.0
C337 C 0.81551 0.8885 0.0695 0.0
C338 C 0.80904 0.872 0.05954 0.0
C339 C 0.82085 0.85762 0.05612 0.0
C340 C 0.83901 0.85997 0.06276 0.0
C341 C 0.87539 0.86728 0.99271 0.0
C342 C 0.89049 0.85557 0.04492 0.0
C343 C 0.87018 0.87463 0.01965 0.0
N344 N 0.87764 0.86867 0.04531 0.0
C345 C 0.89603 0.84791 0.01839 0.0
C346 C 0.88839 0.85382 0.99214 0.0
C347 C 0.90496 0.88244 0.1167 0.0
C348 C 0.86392 0.93884 0.16599 0.0
C349 C 0.89181 0.91514 0.17662 0.0
C350 C 0.89435 0.93347 0.18172 0.0
C351 C 0.88029 0.94538 0.17631 0.0
N352 N 0.87572 0.90883 0.16646 0.0
C353 C 0.86186 0.92042 0.16118 0.0
Co354 Co 0.37045 0.62092 0.33692 0.0
Co355 Co 0.36793 0.62306 0.41265 0.0
O356 O 0.36068 0.61321 0.37465 0.0
C357 C 0.33154 0.62672 0.33087 0.0
O358 O 0.33228 0.63482 0.3565 0.0
C359 C 0.37481 0.58427 0.4185 0.0
O360 O 0.38326 0.58525 0.39323 0.0
O361 O 0.39381 0.62016 0.40284 0.0
O362 O 0.39526 0.62186 0.35356 0.0
H363 H 0.40373 0.66247 0.48066 0.0
H364 H 0.34773 0.58827 0.33985 0.0
O365 O 0.34574 0.62014 0.31955 0.0
H366 H 0.40613 0.56769 0.30143 0.0
H367 H 0.37526 0.62003 0.22653 0.0
H368 H 0.39706 0.64817 0.31806 0.0
H369 H 0.40109 0.5997 0.31279 0.0
H370 H 0.36371 0.61017 0.27472 0.0
O371 O 0.36766 0.59825 0.42962 0.0
H372 H 0.39428 0.65035 0.43255 0.0
H373 H 0.35701 0.61566 0.47448 0.0
H374 H 0.40904 0.6584 0.27039 0.0
H375 H 0.35214 0.55615 0.3285 0.0
H376 H 0.39813 0.64428 0.22418 0.0
H377 H 0.38154 0.54567 0.30925 0.0
O378 O 0.36685 0.64665 0.34713 0.0
H379 H 0.30365 0.60304 0.41952 0.0
H380 H 0.34581 0.65304 0.43688 0.0
H381 H 0.31364 0.65719 0.44777 0.0
H382 H 0.29232 0.63207 0.4391 0.0
H383 H 0.33591 0.59951 0.40872 0.0
H384 H 0.36614 0.62729 0.52307 0.0
H385 H 0.38962 0.65092 0.52635 0.0
O386 O 0.36835 0.64799 0.39644 0.0
C387 C 0.40263 0.62079 0.37883 0.0
C388 C 0.39344 0.65222 0.47951 0.0
C389 C 0.37236 0.63246 0.50331 0.0
N390 N 0.375 0.63245 0.45072 0.0
C391 C 0.388 0.64535 0.45233 0.0
C392 C 0.36726 0.62591 0.47576 0.0
C393 C 0.38553 0.64572 0.50514 0.0
C394 C 0.3605 0.58383 0.33119 0.0
N395 N 0.3741 0.59586 0.32684 0.0
C396 C 0.36294 0.56562 0.32492 0.0
C397 C 0.37945 0.55975 0.31416 0.0
C398 C 0.39326 0.57209 0.30978 0.0
C399 C 0.39033 0.5902 0.31631 0.0
C400 C 0.38015 0.62625 0.24652 0.0
C401 C 0.39234 0.64189 0.29806 0.0
C402 C 0.37364 0.62074 0.27385 0.0
N403 N 0.37983 0.62848 0.29916 0.0
C404 C 0.39913 0.64777 0.27113 0.0
C405 C 0.39299 0.63985 0.24521 0.0
C406 C 0.36719 0.65541 0.37124 0.0
C407 C 0.31281 0.61407 0.42346 0.0
C408 C 0.33661 0.64205 0.433 0.0
C409 C 0.31841 0.64447 0.43926 0.0
C410 C 0.30646 0.63037 0.43441 0.0
N411 N 0.34274 0.62602 0.4223 0.0
C412 C 0.3311 0.61212 0.41751 0.0
Co413 Co 0.62515 0.11555 0.66261 0.0
Co414 Co 0.62822 0.11884 0.58686 0.0
O415 O 0.63563 0.10889 0.62473 0.0
C416 C 0.66364 0.1238 0.66883 0.0
O417 O 0.66269 0.13104 0.64258 0.0
C418 C 0.62312 0.07978 0.58066 0.0
O419 O 0.61604 0.08008 0.60707 0.0
O420 O 0.6024 0.11532 0.59633 0.0
O421 O 0.60043 0.11461 0.64562 0.0
H422 H 0.59172 0.15821 0.52001 0.0
H423 H 0.65047 0.08491 0.65912 0.0
O424 O 0.64976 0.11673 0.68037 0.0
H425 H 0.59389 0.05932 0.6966 0.0
H426 H 0.62006 0.11343 0.7729 0.0
H427 H 0.59618 0.14023 0.68179 0.0
H428 H 0.59631 0.09173 0.68604 0.0
H429 H 0.63262 0.10501 0.72463 0.0
O430 O 0.6289 0.09423 0.56903 0.0
H431 H 0.60138 0.14582 0.56774 0.0
H432 H 0.63938 0.1123 0.52482 0.0
H433 H 0.58311 0.14891 0.72957 0.0
H434 H 0.64869 0.05245 0.66962 0.0
H435 H 0.59507 0.13548 0.77555 0.0
H436 H 0.62021 0.03945 0.6884 0.0
O437 O 0.62677 0.14161 0.65314 0.0
H438 H 0.69291 0.10018 0.57996 0.0
H439 H 0.6498 0.14947 0.56368 0.0
H440 H 0.68192 0.1544 0.55332 0.0
H441 H 0.70372 0.12964 0.56146 0.0
H442 H 0.66068 0.09588 0.59026 0.0
H443 H 0.63004 0.12423 0.47659 0.0
H444 H 0.6061 0.14741 0.47399 0.0
O445 O 0.6273 0.14353 0.60385 0.0
C446 C 0.59335 0.11437 0.62007 0.0
C447 C 0.60221 0.14817 0.52085 0.0
C448 C 0.62371 0.12908 0.49649 0.0
N449 N 0.62103 0.12847 0.54906 0.0
C450 C 0.60778 0.14114 0.54782 0.0
C451 C 0.62892 0.12235 0.52385 0.0
C452 C 0.61027 0.14208 0.49505 0.0
C453 C 0.6381 0.07938 0.66757 0.0
N454 N 0.62354 0.0902 0.67207 0.0
C455 C 0.63714 0.06098 0.67336 0.0
C456 C 0.62115 0.05369 0.68385 0.0
C457 C 0.60637 0.06483 0.68843 0.0
C458 C 0.60781 0.08316 0.68235 0.0
C459 C 0.61471 0.11934 0.75301 0.0
C460 C 0.60137 0.13424 0.7017 0.0
C461 C 0.62179 0.11466 0.72563 0.0
N462 N 0.61504 0.12202 0.70043 0.0
C463 C 0.59395 0.13924 0.72869 0.0
C464 C 0.60068 0.13171 0.75449 0.0
C465 C 0.62707 0.15066 0.62935 0.0
C466 C 0.68354 0.11106 0.57624 0.0
C467 C 0.6592 0.13864 0.5673 0.0
C468 C 0.67737 0.1415 0.56135 0.0
C469 C 0.6896 0.1276 0.5659 0.0
N470 N 0.65337 0.12237 0.57743 0.0
C471 C 0.66526 0.10867 0.58191 0.0
Co472 Co 0.87124 0.3808 0.91167 0.0
Co473 Co 0.87312 0.38377 0.8358 0.0
O474 O 0.86285 0.39026 0.87397 0.0
C475 C 0.87393 0.42008 0.91762 0.0
O476 O 0.88044 0.42023 0.89082 0.0
C477 C 0.83468 0.37499 0.8306 0.0
O478 O 0.8359 0.36784 0.85689 0.0
O479 O 0.87204 0.35773 0.84542 0.0
O480 O 0.87343 0.35617 0.89469 0.0
H481 H 0.915 0.35099 0.7678 0.0
H482 H 0.83739 0.40173 0.9095 0.0
O483 O 0.86933 0.40532 0.92958 0.0
H484 H 0.82021 0.34186 0.94633 0.0
H485 H 0.87112 0.37528 0.02198 0.0
H486 H 0.89998 0.35562 0.92985 0.0
H487 H 0.85185 0.34885 0.93534 0.0
H488 H 0.86041 0.38657 0.97408 0.0
O489 O 0.8484 0.38214 0.81867 0.0
H490 H 0.90225 0.35949 0.8159 0.0
H491 H 0.86493 0.39419 0.77397 0.0
H492 H 0.91108 0.34394 0.97722 0.0
H493 H 0.80559 0.39539 0.92059 0.0
H494 H 0.8966 0.35376 0.02373 0.0
H495 H 0.79683 0.36524 0.939 0.0
O496 O 0.89663 0.38591 0.9014 0.0
H497 H 0.84836 0.44641 0.82878 0.0
H498 H 0.90139 0.4081 0.81187 0.0
H499 H 0.90314 0.44051 0.80107 0.0
H500 H 0.87648 0.4599 0.80952 0.0
H501 H 0.84725 0.41395 0.83953 0.0
H502 H 0.87716 0.38595 0.7254 0.0
H503 H 0.90243 0.36425 0.72212 0.0
O504 O 0.89802 0.38515 0.85207 0.0
C505 C 0.873 0.34886 0.86933 0.0
C506 C 0.90403 0.36051 0.76895 0.0
C507 C 0.88278 0.38011 0.74515 0.0
N508 N 0.88298 0.37744 0.79774 0.0
C509 C 0.8968 0.36541 0.79612 0.0
C510 C 0.87589 0.3847 0.7727 0.0
C511 C 0.89696 0.36794 0.74333 0.0
C512 C 0.8337 0.38866 0.91787 0.0
N513 N 0.84647 0.37572 0.92189 0.0
C514 C 0.81567 0.38511 0.92397 0.0
C515 C 0.81075 0.36818 0.93425 0.0
C516 C 0.82386 0.35506 0.93836 0.0
C517 C 0.84176 0.35909 0.93203 0.0
C518 C 0.87751 0.37086 0.00186 0.0
C519 C 0.89354 0.35987 0.94998 0.0
C520 C 0.87151 0.37722 0.97469 0.0
N521 N 0.87946 0.37163 0.94921 0.0
C522 C 0.89992 0.35325 0.97674 0.0
C523 C 0.8918 0.35878 0.00283 0.0
C524 C 0.90537 0.38646 0.87734 0.0
C525 C 0.86005 0.43809 0.82493 0.0
C526 C 0.88975 0.41645 0.81566 0.0
C527 C 0.8908 0.43479 0.80944 0.0
C528 C 0.87584 0.44566 0.81417 0.0
N529 N 0.87421 0.40913 0.82622 0.0
C530 C 0.85947 0.41969 0.83084 0.0
Co531 Co 0.36532 0.12319 0.59087 0.0
Co532 Co 0.36965 0.12067 0.66658 0.0
O533 O 0.35892 0.11326 0.62924 0.0
C534 C 0.37247 0.0844 0.58554 0.0
O535 O 0.37966 0.0853 0.61185 0.0
C536 C 0.33095 0.12754 0.67372 0.0
O537 O 0.33124 0.13425 0.64706 0.0
O538 O 0.36709 0.14656 0.65646 0.0
O539 O 0.36513 0.14806 0.60721 0.0
H540 H 0.41148 0.15613 0.73106 0.0
H541 H 0.33423 0.09854 0.59597 0.0
O542 O 0.3658 0.0984 0.57369 0.0
H543 H 0.30933 0.15536 0.55804 0.0
H544 H 0.3618 0.12731 0.48056 0.0
H545 H 0.39035 0.15143 0.57017 0.0
H546 H 0.3418 0.15234 0.56754 0.0
H547 H 0.35378 0.11537 0.5294 0.0
O548 O 0.34527 0.12129 0.68517 0.0
H549 H 0.39803 0.14649 0.68402 0.0
H550 H 0.36343 0.11054 0.72914 0.0
H551 H 0.39866 0.16387 0.5218 0.0
H552 H 0.30169 0.10094 0.58661 0.0
H553 H 0.38433 0.15178 0.47657 0.0
H554 H 0.28904 0.12954 0.5676 0.0
O555 O 0.39144 0.12113 0.59956 0.0
H556 H 0.34829 0.05691 0.67588 0.0
H557 H 0.39955 0.09801 0.68964 0.0
H558 H 0.40322 0.06579 0.70066 0.0
H559 H 0.37746 0.045 0.6938 0.0
H560 H 0.34528 0.08921 0.66481 0.0
H561 H 0.37641 0.11988 0.7767 0.0
H562 H 0.40066 0.14279 0.77783 0.0
O563 O 0.39412 0.1203 0.64876 0.0
C564 C 0.36575 0.1554 0.63255 0.0
C565 C 0.40096 0.14609 0.73084 0.0
C566 C 0.38126 0.12576 0.75646 0.0
N567 N 0.38008 0.12787 0.70384 0.0
C568 C 0.39334 0.14055 0.70428 0.0
C569 C 0.37395 0.12055 0.72948 0.0
C570 C 0.39487 0.13861 0.75708 0.0
C571 C 0.32885 0.11096 0.58741 0.0
N572 N 0.33991 0.12525 0.58217 0.0
C573 C 0.3104 0.11227 0.58227 0.0
C574 C 0.30331 0.12833 0.57165 0.0
C575 C 0.31469 0.14283 0.5663 0.0
C576 C 0.33306 0.14105 0.57176 0.0
C577 C 0.3681 0.13271 0.50012 0.0
C578 C 0.38398 0.14619 0.55059 0.0
C579 C 0.36364 0.12598 0.52782 0.0
N580 N 0.37149 0.13281 0.5526 0.0
C581 C 0.38877 0.15324 0.52326 0.0
C582 C 0.38074 0.14644 0.49789 0.0
C583 C 0.40084 0.12041 0.62297 0.0
C584 C 0.3596 0.06584 0.67903 0.0
C585 C 0.3883 0.08905 0.68654 0.0
C586 C 0.39044 0.07082 0.69288 0.0
C587 C 0.37598 0.05916 0.68904 0.0
N588 N 0.3722 0.09549 0.67668 0.0
C589 C 0.35795 0.08415 0.67293 0.0
Co590 Co 0.62798 0.61582 0.33727 0.0
Co591 Co 0.62992 0.61864 0.41319 0.0
O592 O 0.63779 0.60878 0.37546 0.0
C593 C 0.6667 0.62331 0.33279 0.0
O594 O 0.66563 0.63007 0.35939 0.0
C595 C 0.62434 0.57961 0.4187 0.0
O596 O 0.61759 0.58006 0.39205 0.0
O597 O 0.60421 0.6153 0.40262 0.0
O598 O 0.60303 0.61533 0.35323 0.0
H599 H 0.59279 0.658 0.47923 0.0
H600 H 0.65271 0.58471 0.34096 0.0
O601 O 0.65283 0.61669 0.32046 0.0
H602 H 0.59605 0.56034 0.30137 0.0
H603 H 0.62425 0.6142 0.22679 0.0
H604 H 0.59987 0.64126 0.31738 0.0
H605 H 0.59894 0.59264 0.31261 0.0
H606 H 0.63601 0.60534 0.27538 0.0
O607 O 0.63017 0.59395 0.43067 0.0
H608 H 0.60297 0.6457 0.43169 0.0
H609 H 0.64019 0.61179 0.47553 0.0
H610 H 0.5876 0.6504 0.26927 0.0
H611 H 0.65045 0.55234 0.32979 0.0
H612 H 0.59982 0.63683 0.22354 0.0
H613 H 0.62193 0.53996 0.30995 0.0
O614 O 0.62995 0.64175 0.34725 0.0
H615 H 0.69434 0.59948 0.42258 0.0
H616 H 0.65138 0.64906 0.43762 0.0
H617 H 0.68338 0.6537 0.4494 0.0
H618 H 0.7051 0.6288 0.44189 0.0
H619 H 0.66224 0.59546 0.41086 0.0
H620 H 0.63032 0.62361 0.52357 0.0
H621 H 0.6065 0.64695 0.52561 0.0
O622 O 0.62937 0.64346 0.39657 0.0
C623 C 0.59554 0.61484 0.37844 0.0
C624 C 0.60322 0.64789 0.47862 0.0
C625 C 0.62427 0.62857 0.50352 0.0
N626 N 0.62227 0.62816 0.45084 0.0
C627 C 0.60908 0.64091 0.45177 0.0
C628 C 0.62978 0.6219 0.47626 0.0
C629 C 0.61091 0.64166 0.50464 0.0
C630 C 0.64032 0.57945 0.33203 0.0
N631 N 0.62601 0.59056 0.3273 0.0
C632 C 0.63909 0.5611 0.32588 0.0
C633 C 0.62308 0.55415 0.31479 0.0
C634 C 0.60855 0.56558 0.30998 0.0
C635 C 0.61026 0.58385 0.31644 0.0
C636 C 0.61879 0.62017 0.24656 0.0
C637 C 0.60516 0.63521 0.29758 0.0
C638 C 0.62541 0.61523 0.27412 0.0
N639 N 0.61851 0.62266 0.29918 0.0
C640 C 0.5982 0.64047 0.2704 0.0
C641 C 0.60508 0.63287 0.24475 0.0
C642 C 0.62978 0.6507 0.37117 0.0
C643 C 0.685 0.61041 0.42603 0.0
C644 C 0.66075 0.63816 0.43426 0.0
C645 C 0.67885 0.64086 0.44102 0.0
C646 C 0.69103 0.62688 0.43682 0.0
N647 N 0.65494 0.62197 0.42369 0.0
C648 C 0.6668 0.60819 0.41957 0.0
Co649 Co 0.1292 0.87913 0.16688 0.0
Co650 Co 0.133 0.87646 0.09111 0.0
O651 O 0.13998 0.88617 0.12942 0.0
C652 C 0.16769 0.87104 0.17381 0.0
O653 O 0.16709 0.86407 0.14731 0.0
C654 C 0.12736 0.91549 0.0857 0.0
O655 O 0.12044 0.915 0.11221 0.0
O656 O 0.10705 0.87959 0.10011 0.0
O657 O 0.10467 0.88016 0.14935 0.0
H658 H 0.09755 0.83711 0.02255 0.0
H659 H 0.1545 0.90985 0.165 0.0
O660 O 0.15363 0.87786 0.1852 0.0
H661 H 0.09744 0.93502 0.2014 0.0
H662 H 0.12302 0.88042 0.27706 0.0
H663 H 0.10014 0.85421 0.1847 0.0
H664 H 0.10005 0.90272 0.19005 0.0
H665 H 0.13604 0.88921 0.22934 0.0
O666 O 0.13339 0.9012 0.07384 0.0
H667 H 0.1067 0.84926 0.07078 0.0
H668 H 0.14453 0.88362 0.02947 0.0
H669 H 0.08662 0.84514 0.2319 0.0
H670 H 0.15253 0.94221 0.17633 0.0
H671 H 0.09807 0.85829 0.27852 0.0
H672 H 0.12381 0.95501 0.19455 0.0
O673 O 0.13092 0.85315 0.15674 0.0
H674 H 0.19745 0.89613 0.08633 0.0
H675 H 0.15524 0.84639 0.06742 0.0
H676 H 0.18752 0.84205 0.05768 0.0
H677 H 0.20887 0.86704 0.06715 0.0
H678 H 0.16506 0.89985 0.09595 0.0
H679 H 0.13572 0.87194 0.98076 0.0
H680 H 0.11211 0.84847 0.9771 0.0
O681 O 0.13231 0.85162 0.10745 0.0
C682 C 0.0978 0.88046 0.12365 0.0
C683 C 0.1079 0.84729 0.02386 0.0
C684 C 0.1293 0.86686 0.0004 0.0
N685 N 0.12624 0.86702 0.05293 0.0
C686 C 0.11317 0.85418 0.05111 0.0
C687 C 0.13422 0.87344 0.02803 0.0
C688 C 0.11606 0.85368 0.99837 0.0
C689 C 0.14202 0.91529 0.17323 0.0
N690 N 0.12744 0.90439 0.17699 0.0
C691 C 0.14096 0.93363 0.17948 0.0
C692 C 0.12483 0.94081 0.18966 0.0
C693 C 0.11003 0.9296 0.19349 0.0
C694 C 0.11158 0.91133 0.18697 0.0
C695 C 0.11789 0.87463 0.25689 0.0
C696 C 0.10512 0.86007 0.20488 0.0
C697 C 0.12523 0.87953 0.22982 0.0
N698 N 0.11876 0.87233 0.20427 0.0
C699 C 0.09745 0.85484 0.23154 0.0
C700 C 0.10389 0.86221 0.25769 0.0
C701 C 0.13166 0.84428 0.13275 0.0
C702 C 0.18827 0.88516 0.08203 0.0
C703 C 0.16444 0.85732 0.07162 0.0
C704 C 0.1827 0.85479 0.06601 0.0
C705 C 0.19467 0.86883 0.07131 0.0
N706 N 0.15827 0.87338 0.08213 0.0
C707 C 0.16991 0.88721 0.08732 0.0
Co708 Co 0.86839 0.62345 0.09072 0.0
Co709 Co 0.87144 0.62033 0.16644 0.0
O710 O 0.86064 0.61393 0.12867 0.0
C711 C 0.87191 0.58427 0.08426 0.0
O712 O 0.87947 0.58435 0.11033 0.0
C713 C 0.83315 0.62949 0.17331 0.0
O714 O 0.83406 0.63691 0.1472 0.0
O715 O 0.87035 0.6464 0.15694 0.0
O716 O 0.87082 0.64807 0.1076 0.0
H717 H 0.91452 0.6527 0.23305 0.0
H718 H 0.83476 0.60227 0.09427 0.0
O719 O 0.86631 0.59889 0.07297 0.0
H720 H 0.81654 0.66199 0.05812 0.0
H721 H 0.86622 0.62895 0.98048 0.0
H722 H 0.89676 0.64869 0.07118 0.0
H723 H 0.84841 0.65527 0.06797 0.0
H724 H 0.85647 0.61762 0.02886 0.0
O725 O 0.84695 0.62201 0.18446 0.0
H726 H 0.90099 0.64441 0.1854 0.0
H727 H 0.86408 0.60985 0.22849 0.0
H728 H 0.90688 0.66045 0.02331 0.0
H729 H 0.80276 0.60836 0.08441 0.0
H730 H 0.89156 0.65058 0.97752 0.0
H731 H 0.79347 0.63843 0.06633 0.0
O732 O 0.89401 0.61856 0.09997 0.0
H733 H 0.84664 0.55772 0.17352 0.0
H734 H 0.89991 0.59587 0.18942 0.0
H735 H 0.90173 0.56341 0.19981 0.0
H736 H 0.87495 0.5441 0.19186 0.0
H737 H 0.84546 0.59023 0.1632 0.0
H738 H 0.87711 0.61788 0.27665 0.0
H739 H 0.90256 0.6394 0.27911 0.0
O740 O 0.89608 0.61889 0.14926 0.0
C741 C 0.87095 0.65531 0.13303 0.0
C742 C 0.90347 0.64327 0.23226 0.0
C743 C 0.88246 0.62374 0.25673 0.0
N744 N 0.88187 0.62655 0.20417 0.0
C745 C 0.89579 0.63848 0.20534 0.0
C746 C 0.87511 0.61927 0.22941 0.0
C747 C 0.89674 0.63581 0.25809 0.0
C748 C 0.83084 0.61532 0.08606 0.0
N749 N 0.84344 0.62836 0.08155 0.0
C750 C 0.81269 0.61872 0.08066 0.0
C751 C 0.80749 0.6356 0.07055 0.0
C752 C 0.82042 0.64883 0.06595 0.0
C753 C 0.83844 0.64495 0.07163 0.0
C754 C 0.87297 0.63339 0.00028 0.0
C755 C 0.88995 0.64443 0.05137 0.0
C756 C 0.86752 0.62701 0.02772 0.0
N757 N 0.87593 0.63263 0.05282 0.0
C758 C 0.89578 0.65109 0.02432 0.0
C759 C 0.88719 0.64553 0.99863 0.0
C760 C 0.90308 0.61786 0.12372 0.0
C761 C 0.85838 0.566 0.17715 0.0
C762 C 0.88821 0.58755 0.18587 0.0
C763 C 0.88931 0.56919 0.19185 0.0
C764 C 0.87428 0.55836 0.1874 0.0
N765 N 0.87257 0.59494 0.17583 0.0
C766 C 0.85777 0.58443 0.17147 0.0
Co767 Co 0.12841 0.11924 0.91504 0.0
Co768 Co 0.12611 0.11562 0.83922 0.0
O769 O 0.13591 0.10884 0.87751 0.0
C770 C 0.1219 0.08038 0.9215 0.0
O771 O 0.11511 0.08071 0.89487 0.0
C772 C 0.16488 0.12269 0.83446 0.0
O773 O 0.16388 0.12972 0.86088 0.0
O774 O 0.12827 0.14166 0.84853 0.0
O775 O 0.1286 0.14389 0.89781 0.0
H776 H 0.08575 0.14979 0.77063 0.0
H777 H 0.16005 0.09511 0.91285 0.0
O778 O 0.12801 0.09472 0.9331 0.0
H779 H 0.183 0.15297 0.95014 0.0
H780 H 0.12921 0.12517 0.02529 0.0
H781 H 0.1024 0.14732 0.93302 0.0
H782 H 0.15083 0.14914 0.93892 0.0
H783 H 0.13859 0.1126 0.97749 0.0
O784 O 0.15093 0.11612 0.82229 0.0
H785 H 0.09807 0.14102 0.81888 0.0
H786 H 0.13397 0.10456 0.77754 0.0
H787 H 0.09274 0.16037 0.98033 0.0
H788 H 0.1923 0.09828 0.92411 0.0
H789 H 0.10618 0.14929 0.02689 0.0
H790 H 0.20398 0.12741 0.94276 0.0
O791 O 0.10255 0.11656 0.9047 0.0
H792 H 0.14801 0.05188 0.83349 0.0
H793 H 0.09687 0.09246 0.81517 0.0
H794 H 0.09369 0.06008 0.80481 0.0
H795 H 0.11938 0.03955 0.81398 0.0
H796 H 0.15057 0.08434 0.84372 0.0
H797 H 0.12215 0.11305 0.7288 0.0
H798 H 0.09782 0.13577 0.72515 0.0
O799 O 0.10123 0.11546 0.85535 0.0
C800 C 0.12871 0.15085 0.87219 0.0
C801 C 0.09631 0.13983 0.77193 0.0
C802 C 0.11676 0.11923 0.74846 0.0
N803 N 0.1166 0.12218 0.80102 0.0
C804 C 0.1033 0.13477 0.7992 0.0
C805 C 0.12342 0.1145 0.7761 0.0
C806 C 0.1031 0.13197 0.74643 0.0
C807 C 0.165 0.10776 0.92128 0.0
N808 N 0.15356 0.1219 0.92531 0.0
C809 C 0.18329 0.1095 0.92749 0.0
C810 C 0.18984 0.12586 0.93791 0.0
C811 C 0.17808 0.14021 0.94204 0.0
C812 C 0.15988 0.13797 0.93557 0.0
C813 C 0.12328 0.13014 0.00515 0.0
C814 C 0.10839 0.14251 0.95319 0.0
C815 C 0.12851 0.12305 0.97803 0.0
N816 N 0.12114 0.12932 0.9525 0.0
C817 C 0.10283 0.14991 0.97991 0.0
C818 C 0.11036 0.14367 0.00603 0.0
C819 C 0.0938 0.11567 0.88061 0.0
C820 C 0.13674 0.0607 0.82931 0.0
C821 C 0.10811 0.08361 0.81923 0.0
C822 C 0.10624 0.06529 0.81328 0.0
C823 C 0.12066 0.05378 0.81841 0.0
N824 N 0.12392 0.09029 0.82989 0.0
C825 C 0.13813 0.07909 0.83494 0.0
Co826 Co 0.62981 0.37864 0.66345 0.0
Co827 Co 0.63262 0.3754 0.58764 0.0
O828 O 0.63977 0.38573 0.62542 0.0
C829 C 0.6687 0.37226 0.66922 0.0
O830 O 0.66814 0.36526 0.64274 0.0
C831 C 0.62544 0.41414 0.58151 0.0
O832 O 0.61864 0.41357 0.6081 0.0
O833 O 0.6067 0.37766 0.59751 0.0
O834 O 0.60501 0.37846 0.64682 0.0
H835 H 0.59785 0.33402 0.52135 0.0
H836 H 0.65379 0.41034 0.65984 0.0
O837 O 0.65449 0.37853 0.68095 0.0
H838 H 0.59623 0.43355 0.69763 0.0
H839 H 0.625 0.38084 0.77378 0.0
H840 H 0.60208 0.3527 0.68298 0.0
H841 H 0.60002 0.40126 0.68705 0.0
H842 H 0.63702 0.38967 0.72538 0.0
O843 O 0.63191 0.39999 0.56981 0.0
H844 H 0.60708 0.34704 0.56892 0.0
H845 H 0.64301 0.38243 0.52542 0.0
H846 H 0.58958 0.34357 0.7309 0.0
H847 H 0.65064 0.44271 0.67036 0.0
H848 H 0.60105 0.35769 0.77673 0.0
H849 H 0.62167 0.45451 0.68929 0.0
O850 O 0.63248 0.35267 0.65392 0.0
H851 H 0.69618 0.39738 0.57936 0.0
H852 H 0.65558 0.34586 0.56407 0.0
H853 H 0.68782 0.34261 0.55293 0.0
H854 H 0.70836 0.3685 0.56056 0.0
H855 H 0.66386 0.39999 0.59044 0.0
H856 H 0.63404 0.36992 0.47733 0.0
H857 H 0.61136 0.34548 0.47512 0.0
O858 O 0.633 0.35072 0.60462 0.0
C859 C 0.59777 0.37826 0.6214 0.0
C860 C 0.60779 0.34462 0.52203 0.0
C861 C 0.62809 0.36479 0.49733 0.0
N862 N 0.62568 0.36536 0.54994 0.0
C863 C 0.61311 0.35201 0.54891 0.0
C864 C 0.63308 0.37184 0.5246 0.0
C865 C 0.61536 0.35107 0.4961 0.0
C866 C 0.64121 0.41535 0.66837 0.0
N867 N 0.62714 0.40391 0.67296 0.0
C868 C 0.63948 0.4337 0.67416 0.0
C869 C 0.62321 0.44032 0.68474 0.0
C870 C 0.60893 0.42856 0.68941 0.0
C871 C 0.61114 0.4103 0.68332 0.0
C872 C 0.61987 0.37462 0.75397 0.0
C873 C 0.60706 0.35898 0.70283 0.0
C874 C 0.62664 0.37954 0.72651 0.0
N875 N 0.62015 0.3718 0.70139 0.0
C876 C 0.59997 0.35372 0.7299 0.0
C877 C 0.60643 0.36163 0.7556 0.0
C878 C 0.6331 0.34361 0.63012 0.0
C879 C 0.68736 0.38602 0.57586 0.0
C880 C 0.66443 0.35718 0.56749 0.0
C881 C 0.68267 0.35527 0.56109 0.0
C882 C 0.69418 0.36981 0.56536 0.0
N883 N 0.65784 0.37313 0.57776 0.0
C884 C 0.66904 0.38745 0.58197 0.0
Co885 Co 0.37136 0.88005 0.41511 0.0
Co886 Co 0.37261 0.88366 0.33925 0.0
O887 O 0.36305 0.89023 0.37786 0.0
C888 C 0.37659 0.91904 0.4219 0.0
O889 O 0.38314 0.91893 0.39512 0.0
C890 C 0.33383 0.87628 0.33495 0.0
O891 O 0.33492 0.86935 0.3614 0.0
O892 O 0.37073 0.85759 0.34836 0.0
O893 O 0.3721 0.85548 0.3976 0.0
H894 H 0.41284 0.85012 0.26958 0.0
H895 H 0.33871 0.90284 0.41452 0.0
O896 O 0.37096 0.90452 0.43348 0.0
H897 H 0.31867 0.84366 0.45049 0.0
H898 H 0.37181 0.87372 0.52528 0.0
H899 H 0.39884 0.85318 0.43217 0.0
H900 H 0.35051 0.84898 0.43853 0.0
H901 H 0.36145 0.886 0.47785 0.0
O902 O 0.3477 0.88293 0.32271 0.0
H903 H 0.40077 0.85863 0.31814 0.0
H904 H 0.36414 0.89475 0.27781 0.0
H905 H 0.40952 0.84044 0.47908 0.0
H906 H 0.30675 0.89817 0.42658 0.0
H907 H 0.39597 0.85072 0.52607 0.0
H908 H 0.29655 0.86838 0.44456 0.0
O909 O 0.39693 0.88381 0.40421 0.0
H910 H 0.34997 0.94716 0.33463 0.0
H911 H 0.40138 0.9072 0.31477 0.0
H912 H 0.4041 0.93964 0.30467 0.0
H913 H 0.37827 0.95985 0.31462 0.0
H914 H 0.34787 0.91466 0.3446 0.0
H915 H 0.37569 0.88651 0.22879 0.0
H916 H 0.40027 0.8641 0.22447 0.0
O917 O 0.39766 0.88408 0.35483 0.0
C918 C 0.37134 0.84846 0.37203 0.0
C919 C 0.40217 0.85995 0.27118 0.0
C920 C 0.3813 0.88035 0.24828 0.0
N921 N 0.38188 0.87728 0.3008 0.0
C922 C 0.39532 0.86486 0.29861 0.0
C923 C 0.37479 0.88494 0.27609 0.0
C924 C 0.3951 0.86778 0.24588 0.0
C925 C 0.3344 0.88991 0.4227 0.0
N926 N 0.34647 0.87624 0.42595 0.0
C927 C 0.31628 0.88732 0.42935 0.0
C928 C 0.31055 0.87059 0.43939 0.0
C929 C 0.32296 0.85671 0.44271 0.0
C930 C 0.34097 0.8598 0.43584 0.0
C931 C 0.37779 0.86911 0.50495 0.0
C932 C 0.3928 0.85763 0.45252 0.0
C933 C 0.372 0.87603 0.47804 0.0
N934 N 0.37943 0.87019 0.45228 0.0
C935 C 0.39894 0.85041 0.47901 0.0
C936 C 0.39134 0.85619 0.50537 0.0
C937 C 0.40538 0.88448 0.37987 0.0
C938 C 0.3613 0.93848 0.33013 0.0
C939 C 0.39009 0.91591 0.31918 0.0
C940 C 0.39169 0.93426 0.31337 0.0
C941 C 0.37719 0.9456 0.31894 0.0
N942 N 0.37445 0.90904 0.33015 0.0
C943 C 0.36016 0.92006 0.33561 0.0
H944 H 0.12907 0.82283 0.18166 0.0
H945 H 0.12917 0.79001 0.18349 0.0
H946 H 0.13499 0.78786 0.0892 0.0
H947 H 0.13458 0.82055 0.087 0.0
H948 H 0.11018 0.76465 0.10731 0.0
H949 H 0.17056 0.7803 0.13564 0.0
H950 H 0.19355 0.79567 0.16555 0.0
H951 H 0.17436 0.76886 0.24293 0.0
H952 H 0.15107 0.75353 0.21353 0.0
H953 H 0.13682 0.6757 0.08377 0.0
H954 H 0.13712 0.7083 0.0878 0.0
H955 H 0.13 0.70439 0.18167 0.0
H956 H 0.13004 0.67157 0.17801 0.0
H957 H 0.15416 0.73047 0.16723 0.0
H958 H 0.09458 0.71378 0.13823 0.0
H959 H 0.07205 0.69806 0.10789 0.0
H960 H 0.08989 0.72681 0.03153 0.0
H961 H 0.11273 0.74251 0.06133 0.0
C962 C 0.13041 0.8154 0.16129 0.0
C963 C 0.13189 0.82439 0.13419 0.0
C964 C 0.13052 0.79662 0.16241 0.0
C965 C 0.13227 0.78649 0.1365 0.0
C966 C 0.13363 0.79541 0.10946 0.0
C967 C 0.13346 0.81414 0.10828 0.0
C968 C 0.13249 0.76656 0.13733 0.0
C969 C 0.11991 0.75719 0.12019 0.0
C970 C 0.14487 0.75683 0.15478 0.0
C971 C 0.15895 0.76592 0.17243 0.0
C972 C 0.17115 0.77779 0.15907 0.0
C973 C 0.18425 0.78648 0.17592 0.0
C974 C 0.18538 0.78328 0.20613 0.0
C975 C 0.17345 0.77135 0.21953 0.0
C976 C 0.16031 0.76265 0.20278 0.0
C977 C 0.13542 0.68169 0.10536 0.0
C978 C 0.13328 0.67095 0.13055 0.0
C979 C 0.13554 0.70037 0.10759 0.0
C980 C 0.13327 0.70877 0.13497 0.0
C981 C 0.1317 0.69816 0.16031 0.0
C982 C 0.13168 0.67941 0.15814 0.0
C983 C 0.13205 0.72862 0.13682 0.0
C984 C 0.14437 0.73796 0.15451 0.0
C985 C 0.11944 0.73837 0.11986 0.0
C986 C 0.10546 0.72922 0.10199 0.0
C987 C 0.09377 0.71668 0.11494 0.0
C988 C 0.08094 0.70778 0.09783 0.0
C989 C 0.07957 0.71141 0.06779 0.0
C990 C 0.09098 0.724 0.0548 0.0
C991 C 0.10385 0.73293 0.0718 0.0
H992 H 0.06964 0.70449 0.05458 0.0
H993 H 0.19553 0.79002 0.21914 0.0
H994 H 0.4284 0.88617 0.33307 0.0
H995 H 0.46111 0.88604 0.33409 0.0
H996 H 0.46031 0.88445 0.42886 0.0
H997 H 0.42748 0.88477 0.4282 0.0
H998 H 0.48591 0.90774 0.40765 0.0
H999 H 0.46764 0.84671 0.39141 0.0
H1000 H 0.45094 0.82241 0.36663 0.0
H1001 H 0.47786 0.83429 0.28552 0.0
H1002 H 0.49453 0.85886 0.30972 0.0
H1003 H 0.57684 0.88012 0.42518 0.0
H1004 H 0.5441 0.88164 0.42685 0.0
H1005 H 0.54209 0.88165 0.33207 0.0
H1006 H 0.57476 0.8799 0.33007 0.0
H1007 H 0.51782 0.85884 0.3549 0.0
H1008 H 0.53578 0.92007 0.37066 0.0
H1009 H 0.55232 0.94463 0.39503 0.0
H1010 H 0.52601 0.93261 0.47663 0.0
H1011 H 0.50951 0.90778 0.45283 0.0
C1012 C 0.43511 0.8859 0.3542 0.0
C1013 C 0.42525 0.88537 0.38057 0.0
C1014 C 0.45384 0.88577 0.35471 0.0
C1015 C 0.46311 0.88499 0.38153 0.0
C1016 C 0.45338 0.88502 0.40792 0.0
C1017 C 0.43462 0.88515 0.40747 0.0
C1018 C 0.48295 0.88362 0.3819 0.0
C1019 C 0.49291 0.89692 0.39649 0.0
C1020 C 0.49203 0.86967 0.36685 0.0
C1021 C 0.48222 0.85473 0.35233 0.0
C1022 C 0.46991 0.84422 0.36825 0.0
C1023 C 0.46046 0.83039 0.35431 0.0
C1024 C 0.46331 0.82684 0.3245 0.0
C1025 C 0.47566 0.83708 0.3086 0.0
C1026 C 0.48512 0.85094 0.32242 0.0
C1027 C 0.56947 0.88047 0.40465 0.0
C1028 C 0.57849 0.87997 0.37748 0.0
C1029 C 0.55074 0.8814 0.40567 0.0
C1030 C 0.54068 0.88194 0.37958 0.0
C1031 C 0.54961 0.88127 0.35246 0.0
C1032 C 0.56831 0.88033 0.35139 0.0
C1033 C 0.52083 0.88305 0.38046 0.0
C1034 C 0.51085 0.86965 0.36613 0.0
C1035 C 0.51175 0.89693 0.39573 0.0
C1036 C 0.52155 0.91194 0.41003 0.0
C1037 C 0.53362 0.92257 0.39385 0.0
C1038 C 0.54298 0.93655 0.40755 0.0
C1039 C 0.54025 0.94015 0.43738 0.0
C1040 C 0.52813 0.92979 0.45354 0.0
C1041 C 0.51876 0.91577 0.43995 0.0
H1042 H 0.54751 0.95098 0.44795 0.0
H1043 H 0.45597 0.81613 0.31375 0.0
H1044 H 0.36694 0.32392 0.58488 0.0
H1045 H 0.3651 0.29132 0.58861 0.0
H1046 H 0.3671 0.29506 0.68319 0.0
H1047 H 0.36914 0.32778 0.67979 0.0
H1048 H 0.38916 0.26881 0.66233 0.0
H1049 H 0.32794 0.28633 0.64981 0.0
H1050 H 0.30269 0.30226 0.62639 0.0
H1051 H 0.31185 0.27334 0.54604 0.0
H1052 H 0.33735 0.25742 0.56883 0.0
H1053 H 0.36618 0.1767 0.68186 0.0
H1054 H 0.36535 0.20949 0.68412 0.0
H1055 H 0.3628 0.21193 0.58946 0.0
H1056 H 0.36335 0.17922 0.5869 0.0
H1057 H 0.33959 0.23522 0.61427 0.0
H1058 H 0.40201 0.21933 0.62593 0.0
H1059 H 0.42748 0.20361 0.64916 0.0
H1060 H 0.41596 0.22963 0.73133 0.0
H1061 H 0.39025 0.24532 0.70867 0.0
C1062 C 0.36695 0.31788 0.60654 0.0
C1063 C 0.36808 0.32854 0.63205 0.0
C1064 C 0.36584 0.29921 0.6086 0.0
C1065 C 0.36573 0.29079 0.63618 0.0
C1066 C 0.3671 0.30131 0.6617 0.0
C1067 C 0.3682 0.32002 0.65968 0.0
C1068 C 0.36436 0.27097 0.6382 0.0
C1069 C 0.37817 0.26146 0.65228 0.0
C1070 C 0.35015 0.26142 0.62466 0.0
C1071 C 0.33466 0.27078 0.61097 0.0
C1072 C 0.32465 0.28345 0.62708 0.0
C1073 C 0.31028 0.29247 0.61392 0.0
C1074 C 0.30569 0.28884 0.58472 0.0
C1075 C 0.31543 0.27614 0.56865 0.0
C1076 C 0.32983 0.2671 0.58169 0.0
C1077 C 0.36538 0.18418 0.6615 0.0
C1078 C 0.3649 0.17527 0.63418 0.0
C1079 C 0.36496 0.20294 0.66285 0.0
C1080 C 0.36419 0.21314 0.63694 0.0
C1081 C 0.36339 0.20431 0.60972 0.0
C1082 C 0.36377 0.18558 0.60832 0.0
C1083 C 0.36452 0.23305 0.63803 0.0
C1084 C 0.3505 0.24257 0.62455 0.0
C1085 C 0.37853 0.24261 0.65213 0.0
C1086 C 0.39409 0.23334 0.66569 0.0
C1087 C 0.40483 0.2216 0.64901 0.0
C1088 C 0.41932 0.21271 0.66206 0.0
C1089 C 0.4233 0.21558 0.69172 0.0
C1090 C 0.41284 0.2274 0.70837 0.0
C1091 C 0.39831 0.2363 0.69543 0.0
H1092 H 0.43452 0.20868 0.70179 0.0
H1093 H 0.29457 0.29585 0.57457 0.0
H1094 H 0.07024 0.11674 0.83448 0.0
H1095 H 0.03755 0.11711 0.83642 0.0
H1096 H 0.03936 0.11372 0.931 0.0
H1097 H 0.07223 0.11334 0.92943 0.0
H1098 H 0.01352 0.09087 0.905 0.0
H1099 H 0.03135 0.15282 0.90188 0.0
H1100 H 0.04785 0.17892 0.88238 0.0
H1101 H 0.02089 0.17314 0.79942 0.0
H1102 H 0.00442 0.14681 0.81829 0.0
H1103 H 0.92189 0.11599 0.92599 0.0
H1104 H 0.95465 0.1146 0.92831 0.0
H1105 H 0.95754 0.1216 0.83432 0.0
H1106 H 0.92487 0.12311 0.83169 0.0
H1107 H 0.98117 0.14312 0.86275 0.0
H1108 H 0.96453 0.08103 0.86354 0.0
H1109 H 0.94866 0.05393 0.88065 0.0
H1110 H 0.97338 0.05915 0.96554 0.0
H1111 H 0.98925 0.08645 0.94904 0.0
C1112 C 0.06377 0.11599 0.85576 0.0
C1113 C 0.07392 0.11511 0.88183 0.0
C1114 C 0.04505 0.11624 0.85679 0.0
C1115 C 0.03608 0.11563 0.88386 0.0
C1116 C 0.04608 0.11424 0.9099 0.0
C1117 C 0.06485 0.11409 0.90893 0.0
C1118 C 0.01625 0.11687 0.88481 0.0
C1119 C 0.00641 0.10241 0.89625 0.0
C1120 C 0.00705 0.13176 0.87272 0.0
C1121 C 0.01676 0.14775 0.86143 0.0
C1122 C 0.02903 0.15703 0.87941 0.0
C1123 C 0.03837 0.17188 0.86848 0.0
C1124 C 0.03545 0.17766 0.83966 0.0
C1125 C 0.02315 0.16864 0.82174 0.0
C1126 C 0.01379 0.15376 0.83255 0.0
C1127 C 0.92947 0.11722 0.90577 0.0
C1128 C 0.9207 0.11964 0.87863 0.0
C1129 C 0.9482 0.11635 0.90715 0.0
C1130 C 0.95851 0.11787 0.88146 0.0
C1131 C 0.94983 0.12041 0.85441 0.0
C1132 C 0.93112 0.1212 0.85296 0.0
C1133 C 0.97838 0.11705 0.88273 0.0
C1134 C 0.98824 0.13162 0.87172 0.0
C1135 C 0.98757 0.10219 0.89502 0.0
C1136 C 0.97794 0.08589 0.90515 0.0
C1137 C 0.96646 0.0765 0.88595 0.0
C1138 C 0.95749 0.06108 0.89551 0.0
C1139 C 0.96001 0.05483 0.92416 0.0
C1140 C 0.97146 0.06401 0.94334 0.0
C1141 C 0.98045 0.07946 0.9339 0.0
H1142 H 0.95312 0.04284 0.93145 0.0
H1143 H 0.0427 0.18915 0.83123 0.0
H1144 H 0.13075 0.32241 0.82127 0.0
H1145 H 0.13126 0.28963 0.81889 0.0
H1146 H 0.13917 0.2871 0.91272 0.0
H1147 H 0.13871 0.31986 0.91545 0.0
H1148 H 0.16107 0.2633 0.8821 0.0
H1149 H 0.09856 0.28041 0.88546 0.0
H1150 H 0.07172 0.29683 0.86858 0.0
H1151 H 0.07555 0.2713 0.7841 0.0
H1152 H 0.1026 0.25491 0.80035 0.0
H1153 H 0.13388 0.17514 0.91665 0.0
H1154 H 0.13599 0.20773 0.91282 0.0
H1155 H 0.12771 0.20434 0.81914 0.0
H1156 H 0.12562 0.1716 0.82262 0.0
H1157 H 0.10714 0.23098 0.84566 0.0
H1158 H 0.16815 0.21221 0.84271 0.0
H1159 H 0.19494 0.19553 0.85895 0.0
H1160 H 0.1945 0.22403 0.94108 0.0
H1161 H 0.16742 0.24063 0.92559 0.0
C1162 C 0.1327 0.31493 0.84143 0.0
C1163 C 0.13463 0.32382 0.86859 0.0
C1164 C 0.13295 0.29618 0.84 0.0
C1165 C 0.13512 0.28596 0.86566 0.0
C1166 C 0.1375 0.29476 0.89267 0.0
C1167 C 0.13716 0.3135 0.89417 0.0
C1168 C 0.13435 0.26609 0.86455 0.0
C1169 C 0.14923 0.25622 0.8744 0.0
C1170 C 0.11908 0.25689 0.85371 0.0
C1171 C 0.10271 0.26658 0.84401 0.0
C1172 C 0.09376 0.2784 0.86321 0.0
C1173 C 0.0785 0.28769 0.85376 0.0
C1174 C 0.07196 0.28515 0.82525 0.0
C1175 C 0.08065 0.27327 0.80616 0.0
C1176 C 0.09594 0.26397 0.81548 0.0
C1177 C 0.13254 0.18125 0.89517 0.0
C1178 C 0.12971 0.17069 0.8699 0.0
C1179 C 0.13379 0.1999 0.89304 0.0
C1180 C 0.13219 0.2084 0.86566 0.0
C1181 C 0.12903 0.198 0.84045 0.0
C1182 C 0.12791 0.17929 0.8425 0.0
C1183 C 0.13377 0.22819 0.86358 0.0
C1184 C 0.11904 0.23805 0.85315 0.0
C1185 C 0.14923 0.23736 0.87374 0.0
C1186 C 0.16564 0.22756 0.88308 0.0
C1187 C 0.17366 0.21483 0.86434 0.0
C1188 C 0.18892 0.2054 0.87339 0.0
C1189 C 0.19642 0.20871 0.90103 0.0
C1190 C 0.18867 0.22148 0.91967 0.0
C1191 C 0.17336 0.2309 0.91076 0.0
H1192 H 0.20824 0.2014 0.90799 0.0
H1193 H 0.06015 0.29236 0.81798 0.0
H1194 H 0.92854 0.88297 0.16286 0.0
H1195 H 0.9612 0.88376 0.16092 0.0
H1196 H 0.95932 0.88384 0.06614 0.0
H1197 H 0.9265 0.88279 0.06774 0.0
H1198 H 0.98454 0.86076 0.08674 0.0
H1199 H 0.96834 0.92212 0.10288 0.0
H1200 H 0.95257 0.9471 0.12743 0.0
H1201 H 0.97971 0.935 0.20834 0.0
H1202 H 0.99544 0.90976 0.18439 0.0
H1203 H 0.07747 0.88188 0.07336 0.0
H1204 H 0.04478 0.88359 0.06958 0.0
H1205 H 0.04061 0.88369 0.16416 0.0
H1206 H 0.07321 0.88224 0.16827 0.0
H1207 H 0.01841 0.90817 0.13992 0.0
H1208 H 0.03293 0.84569 0.12466 0.0
H1209 H 0.04842 0.82039 0.10049 0.0
H1210 H 0.02431 0.83463 0.01795 0.0
H1211 H 0.00886 0.86018 0.04158 0.0
C1212 C 0.935 0.8832 0.14153 0.0
C1213 C 0.92483 0.88294 0.11544 0.0
C1214 C 0.9537 0.8837 0.14049 0.0
C1215 C 0.96267 0.88412 0.11339 0.0
C1216 C 0.95264 0.8836 0.08728 0.0
C1217 C 0.93388 0.88306 0.08827 0.0
C1218 C 0.98254 0.88499 0.11248 0.0
C1219 C 0.99196 0.8713 0.09792 0.0
C1220 C 0.99219 0.89859 0.1275 0.0
C1221 C 0.98297 0.91395 0.14187 0.0
C1222 C 0.97087 0.92471 0.12595 0.0
C1223 C 0.96194 0.93893 0.13976 0.0
C1224 C 0.96511 0.94261 0.16944 0.0
C1225 C 0.97726 0.93212 0.18535 0.0
C1226 C 0.9862 0.91787 0.17166 0.0
C1227 C 0.06963 0.88232 0.09339 0.0
C1228 C 0.07801 0.88185 0.12113 0.0
C1229 C 0.05093 0.88324 0.09117 0.0
C1230 C 0.04027 0.88359 0.1166 0.0
C1231 C 0.04859 0.88345 0.14426 0.0
C1232 C 0.06726 0.88255 0.14654 0.0
C1233 C 0.02041 0.88381 0.11452 0.0
C1234 C 0.01099 0.89773 0.12851 0.0
C1235 C 0.01077 0.87043 0.09898 0.0
C1236 C 0.0199 0.85496 0.08482 0.0
C1237 C 0.03103 0.8435 0.10131 0.0
C1238 C 0.03979 0.82911 0.08772 0.0
C1239 C 0.0374 0.82594 0.05768 0.0
C1240 C 0.02618 0.83712 0.04121 0.0
C1241 C 0.01741 0.85155 0.05469 0.0
H1242 H 0.04419 0.81479 0.0472 0.0
H1243 H 0.95817 0.95361 0.1801 0.0
H1244 H 0.35914 0.67656 0.32372 0.0
H1245 H 0.35816 0.70934 0.32177 0.0
H1246 H 0.37247 0.712 0.41362 0.0
H1247 H 0.37296 0.67929 0.41603 0.0
H1248 H 0.34705 0.7357 0.40168 0.0
H1249 H 0.40362 0.71861 0.35748 0.0
H1250 H 0.42246 0.70223 0.32182 0.0
H1251 H 0.39548 0.72859 0.25043 0.0
H1252 H 0.37629 0.74494 0.28568 0.0
H1253 H 0.37799 0.82417 0.41569 0.0
H1254 H 0.37634 0.79155 0.41284 0.0
H1255 H 0.36149 0.79495 0.32132 0.0
H1256 H 0.36359 0.82774 0.3237 0.0
H1257 H 0.38516 0.76839 0.33005 0.0
H1258 H 0.32991 0.787 0.37425 0.0
H1259 H 0.31126 0.80361 0.40988 0.0
H1260 H 0.33553 0.77451 0.48101 0.0
H1261 H 0.35455 0.75792 0.44584 0.0
C1262 C 0.36205 0.68411 0.34354 0.0
C1263 C 0.36624 0.67527 0.37 0.0
C1264 C 0.36153 0.70286 0.34235 0.0
C1265 C 0.36551 0.71314 0.36744 0.0
C1266 C 0.36937 0.70435 0.39398 0.0
C1267 C 0.3697 0.68562 0.39528 0.0
C1268 C 0.36595 0.73305 0.3661 0.0
C1269 C 0.35551 0.74284 0.38619 0.0
C1270 C 0.37661 0.74239 0.34535 0.0
C1271 C 0.38841 0.73286 0.3242 0.0
C1272 C 0.40164 0.72084 0.33417 0.0
C1273 C 0.41239 0.71157 0.31403 0.0
C1274 C 0.41014 0.71433 0.28388 0.0
C1275 C 0.39719 0.72644 0.2738 0.0
C1276 C 0.38639 0.73573 0.29384 0.0
C1277 C 0.3744 0.81804 0.39489 0.0
C1278 C 0.37079 0.82861 0.36996 0.0
C1279 C 0.3734 0.79936 0.39334 0.0
C1280 C 0.36845 0.79083 0.36701 0.0
C1281 C 0.36525 0.80127 0.34189 0.0
C1282 C 0.36642 0.82001 0.34332 0.0
C1283 C 0.3665 0.771 0.36596 0.0
C1284 C 0.37661 0.76125 0.34539 0.0
C1285 C 0.35551 0.76168 0.38624 0.0
C1286 C 0.34374 0.7713 0.4074 0.0
C1287 C 0.33133 0.78419 0.3975 0.0
C1288 C 0.3207 0.79361 0.41761 0.0
C1289 C 0.32224 0.79014 0.44769 0.0
C1290 C 0.33436 0.77719 0.4577 0.0
C1291 C 0.34506 0.76776 0.43769 0.0
H1292 H 0.31402 0.79747 0.46323 0.0
H1293 H 0.41845 0.70712 0.26832 0.0
H1294 H 0.57246 0.11676 0.57053 0.0
H1295 H 0.5397 0.11618 0.56756 0.0
H1296 H 0.53653 0.10882 0.66143 0.0
H1297 H 0.56923 0.10933 0.66475 0.0
H1298 H 0.51285 0.08686 0.63082 0.0
H1299 H 0.53039 0.14943 0.63326 0.0
H1300 H 0.54707 0.17597 0.6158 0.0
H1301 H 0.52167 0.17146 0.53132 0.0
H1302 H 0.50503 0.14471 0.54817 0.0
H1303 H 0.4255 0.11518 0.66679 0.0
H1304 H 0.45799 0.1127 0.6621 0.0
H1305 H 0.4538 0.12072 0.56847 0.0
H1306 H 0.42114 0.12321 0.57282 0.0
H1307 H 0.481 0.14094 0.59397 0.0
H1308 H 0.46143 0.08021 0.59213 0.0
H1309 H 0.44448 0.05373 0.60893 0.0
H1310 H 0.47353 0.05413 0.6905 0.0
H1311 H 0.49039 0.08091 0.67446 0.0
C1312 C 0.56483 0.1149 0.59056 0.0
C1313 C 0.57352 0.11317 0.61792 0.0
C1314 C 0.5461 0.1146 0.5888 0.0
C1315 C 0.53571 0.11259 0.61431 0.0
C1316 C 0.54432 0.11037 0.64149 0.0
C1317 C 0.56303 0.11074 0.64333 0.0
C1318 C 0.51586 0.11346 0.61293 0.0
C1319 C 0.50587 0.09872 0.623 0.0
C1320 C 0.5068 0.12876 0.6019 0.0
C1321 C 0.51662 0.14496 0.59187 0.0
C1322 C 0.52847 0.15402 0.61089 0.0
C1323 C 0.5379 0.16911 0.60112 0.0
C1324 C 0.53547 0.17537 0.57244 0.0
C1325 C 0.52356 0.16658 0.55351 0.0
C1326 C 0.51412 0.15146 0.56316 0.0
C1327 C 0.43141 0.1164 0.64514 0.0
C1328 C 0.42064 0.11926 0.62014 0.0
C1329 C 0.45001 0.11493 0.64252 0.0
C1330 C 0.45826 0.11633 0.6149 0.0
C1331 C 0.44766 0.11954 0.58996 0.0
C1332 C 0.42899 0.1209 0.59251 0.0
C1333 C 0.47799 0.11445 0.61233 0.0
C1334 C 0.48796 0.129 0.60152 0.0
C1335 C 0.48703 0.09893 0.62252 0.0
C1336 C 0.47708 0.08268 0.63218 0.0
C1337 C 0.46411 0.07475 0.61375 0.0
C1338 C 0.45453 0.05966 0.62312 0.0
C1339 C 0.45792 0.05224 0.65076 0.0
C1340 C 0.47092 0.0599 0.66909 0.0
C1341 C 0.48049 0.07503 0.65987 0.0
H1342 H 0.45049 0.04056 0.65797 0.0
H1343 H 0.54279 0.18705 0.56491 0.0
H1344 H 0.86288 0.17742 0.82193 0.0
H1345 H 0.8633 0.21019 0.82028 0.0
H1346 H 0.86847 0.21215 0.9147 0.0
H1347 H 0.8677 0.1794 0.91672 0.0
H1348 H 0.84516 0.23697 0.89572 0.0
H1349 H 0.90485 0.21787 0.86983 0.0
H1350 H 0.92717 0.20068 0.84129 0.0
H1351 H 0.91015 0.22709 0.76215 0.0
H1352 H 0.88754 0.24425 0.79017 0.0
H1353 H 0.87659 0.32517 0.91487 0.0
H1354 H 0.87513 0.29251 0.91292 0.0
H1355 H 0.86792 0.29458 0.81889 0.0
H1356 H 0.86958 0.3274 0.82047 0.0
H1357 H 0.89129 0.26791 0.8355 0.0
H1358 H 0.8324 0.28806 0.86226 0.0
H1359 H 0.81072 0.30564 0.89145 0.0
H1360 H 0.82658 0.27739 0.9695 0.0
H1361 H 0.84861 0.25985 0.94086 0.0
C1362 C 0.86403 0.18479 0.8424 0.0
C1363 C 0.86537 0.17573 0.86945 0.0
C1364 C 0.86433 0.20354 0.84138 0.0
C1365 C 0.86618 0.21361 0.86733 0.0
C1366 C 0.86707 0.20464 0.89441 0.0
C1367 C 0.86668 0.18589 0.89548 0.0
C1368 C 0.86753 0.23347 0.86626 0.0
C1369 C 0.85536 0.24373 0.88279 0.0
C1370 C 0.8806 0.24229 0.84886 0.0
C1371 C 0.89438 0.23221 0.83205 0.0
C1372 C 0.90579 0.21993 0.84631 0.0
C1373 C 0.9185 0.2102 0.83023 0.0
C1374 C 0.92004 0.21276 0.79991 0.0
C1375 C 0.90892 0.2251 0.78563 0.0
C1376 C 0.89617 0.23484 0.8016 0.0
C1377 C 0.87475 0.31875 0.8937 0.0
C1378 C 0.87302 0.32897 0.86784 0.0
C1379 C 0.87389 0.30005 0.89266 0.0
C1380 C 0.87113 0.29115 0.86583 0.0
C1381 C 0.86997 0.30122 0.83984 0.0
C1382 C 0.87088 0.31997 0.84082 0.0
C1383 C 0.86903 0.27136 0.86516 0.0
C1384 C 0.88104 0.26114 0.84829 0.0
C1385 C 0.85585 0.26256 0.8823 0.0
C1386 C 0.84226 0.27274 0.89944 0.0
C1387 C 0.83133 0.28566 0.88568 0.0
C1388 C 0.81898 0.29562 0.90212 0.0
C1389 C 0.8173 0.29266 0.93232 0.0
C1390 C 0.82791 0.27968 0.94611 0.0
C1391 C 0.84032 0.26971 0.92978 0.0
H1392 H 0.80776 0.30041 0.94502 0.0
H1393 H 0.92988 0.2052 0.7875 0.0
H1394 H 0.63351 0.67167 0.32202 0.0
H1395 H 0.63414 0.70445 0.31947 0.0
H1396 H 0.62751 0.70756 0.41353 0.0
H1397 H 0.62678 0.67484 0.4164 0.0
H1398 H 0.6054 0.73088 0.38436 0.0
H1399 H 0.66782 0.71439 0.38376 0.0
H1400 H 0.69455 0.69823 0.36577 0.0
H1401 H 0.68893 0.72342 0.28139 0.0
H1402 H 0.66197 0.73953 0.29875 0.0
H1403 H 0.6308 0.81995 0.41421 0.0
H1404 H 0.63028 0.78727 0.41168 0.0
H1405 H 0.63573 0.78953 0.31738 0.0
H1406 H 0.63631 0.82241 0.31956 0.0
H1407 H 0.65773 0.7636 0.3433 0.0
H1408 H 0.59598 0.78109 0.34466 0.0
H1409 H 0.56939 0.79735 0.36292 0.0
H1410 H 0.57376 0.77028 0.44592 0.0
H1411 H 0.60057 0.75405 0.42831 0.0
C1412 C 0.63219 0.67929 0.34221 0.0
C1413 C 0.63016 0.67057 0.36945 0.0
C1414 C 0.6326 0.69804 0.34068 0.0
C1415 C 0.63101 0.70841 0.36633 0.0
C1416 C 0.62877 0.69979 0.39348 0.0
C1417 C 0.62843 0.68106 0.39506 0.0
C1418 C 0.63164 0.72828 0.36496 0.0
C1419 C 0.61691 0.73804 0.37567 0.0
C1420 C 0.64648 0.73758 0.35288 0.0
C1421 C 0.66276 0.72801 0.34246 0.0
C1422 C 0.67219 0.71637 0.36129 0.0
C1423 C 0.6874 0.70724 0.35122 0.0
C1424 C 0.6934 0.70975 0.32242 0.0
C1425 C 0.68424 0.72146 0.30367 0.0
C1426 C 0.669 0.7306 0.31362 0.0
C1427 C 0.63195 0.81358 0.39287 0.0
C1428 C 0.6335 0.82387 0.36705 0.0
C1429 C 0.6316 0.79487 0.3915 0.0
C1430 C 0.63276 0.78601 0.36433 0.0
C1431 C 0.63477 0.79615 0.33856 0.0
C1432 C 0.63504 0.81492 0.33986 0.0
C1433 C 0.63158 0.76617 0.36303 0.0
C1434 C 0.64618 0.75643 0.35181 0.0
C1435 C 0.61662 0.75686 0.37464 0.0
C1436 C 0.60039 0.76647 0.38524 0.0
C1437 C 0.59136 0.7787 0.36688 0.0
C1438 C 0.57623 0.7879 0.37711 0.0
C1439 C 0.56991 0.78488 0.40559 0.0
C1440 C 0.57868 0.77262 0.42388 0.0
C1441 C 0.59384 0.7634 0.41377 0.0
H1442 H 0.5582 0.79201 0.41347 0.0
H1443 H 0.70517 0.70267 0.31466 0.0
H1444 H 0.86364 0.67683 0.18048 0.0
H1445 H 0.8639 0.70971 0.18226 0.0
H1446 H 0.88025 0.7115 0.09138 0.0
H1447 H 0.8799 0.67873 0.08923 0.0
H1448 H 0.89937 0.73547 0.12765 0.0
H1449 H 0.83891 0.71904 0.10444 0.0
H1450 H 0.81095 0.70193 0.11177 0.0
H1451 H 0.80413 0.72624 0.1967 0.0
H1452 H 0.83228 0.74332 0.19005 0.0
H1453 H 0.87592 0.82305 0.08333 0.0
H1454 H 0.87623 0.79042 0.08814 0.0
H1455 H 0.86219 0.79512 0.17977 0.0
H1456 H 0.862 0.82794 0.17535 0.0
H1457 H 0.84239 0.76803 0.14711 0.0
H1458 H 0.90302 0.7867 0.16648 0.0
H1459 H 0.93101 0.80322 0.1563 0.0
H1460 H 0.93727 0.77438 0.07512 0.0
H1461 H 0.90912 0.75789 0.08459 0.0
C1462 C 0.86738 0.68421 0.16091 0.0
C1463 C 0.87165 0.67515 0.13466 0.0
C1464 C 0.8675 0.70298 0.16197 0.0
C1465 C 0.87204 0.71297 0.13692 0.0
C1466 C 0.87675 0.70399 0.11095 0.0
C1467 C 0.87643 0.68526 0.10975 0.0
C1468 C 0.87121 0.73283 0.13736 0.0
C1469 C 0.88692 0.74261 0.13174 0.0
C1470 C 0.85498 0.74206 0.14307 0.0
C1471 C 0.83779 0.73229 0.1469 0.0
C1472 C 0.83151 0.72066 0.12476 0.0
C1473 C 0.81563 0.71098 0.12878 0.0
C1474 C 0.80582 0.71295 0.15472 0.0
C1475 C 0.81179 0.72471 0.17664 0.0
C1476 C 0.8277 0.73441 0.17275 0.0
C1477 C 0.87282 0.81721 0.10452 0.0
C1478 C 0.86905 0.82814 0.12902 0.0
C1479 C 0.87303 0.79855 0.10721 0.0
C1480 C 0.86937 0.79043 0.13435 0.0
C1481 C 0.86508 0.8012 0.15866 0.0
C1482 C 0.86506 0.81992 0.1561 0.0
C1483 C 0.87056 0.77068 0.13727 0.0
C1484 C 0.8549 0.76091 0.14343 0.0
C1485 C 0.88682 0.76144 0.13173 0.0
C1486 C 0.90387 0.77117 0.12614 0.0
C1487 C 0.91028 0.78398 0.14635 0.0
C1488 C 0.92619 0.79333 0.14072 0.0
C1489 C 0.93589 0.78988 0.11505 0.0
C1490 C 0.92973 0.77705 0.09499 0.0
C1491 C 0.91381 0.76769 0.10049 0.0
H1492 H 0.9482 0.79713 0.11072 0.0
H1493 H 0.79359 0.70537 0.15776 0.0
H1494 H 0.63283 0.31945 0.58473 0.0
H1495 H 0.63205 0.28679 0.58774 0.0
H1496 H 0.63359 0.2898 0.68239 0.0
H1497 H 0.63445 0.32264 0.67973 0.0
H1498 H 0.65622 0.26313 0.65909 0.0
H1499 H 0.59484 0.28215 0.65077 0.0
H1500 H 0.56968 0.29898 0.62882 0.0
H1501 H 0.57706 0.27088 0.54721 0.0
H1502 H 0.60246 0.25407 0.56854 0.0
H1503 H 0.62983 0.17164 0.67886 0.0
H1504 H 0.63098 0.20444 0.68148 0.0
H1505 H 0.62658 0.20746 0.58706 0.0
H1506 H 0.62529 0.17479 0.58413 0.0
H1507 H 0.60456 0.23128 0.61379 0.0
H1508 H 0.66639 0.21372 0.61962 0.0
H1509 H 0.69256 0.1974 0.63931 0.0
H1510 H 0.68515 0.22269 0.72332 0.0
H1511 H 0.65875 0.23902 0.70422 0.0
C1512 C 0.6331 0.31325 0.60625 0.0
C1513 C 0.63358 0.32374 0.63201 0.0
C1514 C 0.63261 0.29455 0.6079 0.0
C1515 C 0.63255 0.28592 0.63529 0.0
C1516 C 0.63359 0.29624 0.66105 0.0
C1517 C 0.63402 0.31501 0.65945 0.0
C1518 C 0.63086 0.26612 0.63683 0.0
C1519 C 0.64479 0.25614 0.64967 0.0
C1520 C 0.61611 0.25706 0.62395 0.0
C1521 C 0.60065 0.26695 0.6112 0.0
C1522 C 0.59118 0.27964 0.62809 0.0
C1523 C 0.57686 0.28917 0.61576 0.0
C1524 C 0.5718 0.28603 0.58662 0.0
C1525 C 0.581 0.27331 0.56977 0.0
C1526 C 0.59535 0.26376 0.58198 0.0
C1527 C 0.62907 0.17926 0.65863 0.0
C1528 C 0.62752 0.17053 0.63127 0.0
C1529 C 0.6298 0.19801 0.66018 0.0
C1530 C 0.629 0.20836 0.63444 0.0
C1531 C 0.62721 0.19972 0.60718 0.0
C1532 C 0.62654 0.18101 0.60558 0.0
C1533 C 0.63001 0.22823 0.63575 0.0
C1534 C 0.61593 0.23824 0.62347 0.0
C1535 C 0.64467 0.23728 0.64895 0.0
C1536 C 0.66048 0.22745 0.66058 0.0
C1537 C 0.67024 0.21569 0.64237 0.0
C1538 C 0.68513 0.20646 0.6534 0.0
C1539 C 0.6905 0.209 0.68255 0.0
C1540 C 0.68097 0.22075 0.70074 0.0
C1541 C 0.66604 0.23 0.68982 0.0
H1542 H 0.70209 0.2019 0.69098 0.0
H1543 H 0.56072 0.29343 0.57711 0.0
H1544 H 0.07363 0.3765 0.83369 0.0
H1545 H 0.04113 0.3795 0.83644 0.0
H1546 H 0.04441 0.38544 0.93064 0.0
H1547 H 0.07707 0.38216 0.92825 0.0
H1548 H 0.01697 0.36359 0.91489 0.0
H1549 H 0.03788 0.42194 0.8882 0.0
H1550 H 0.05554 0.44373 0.85944 0.0
H1551 H 0.02697 0.4287 0.78114 0.0
H1552 H 0.0093 0.40663 0.80936 0.0
H1553 H 0.92629 0.39156 0.92626 0.0
H1554 H 0.95902 0.39241 0.92886 0.0
H1555 H 0.9621 0.38574 0.83478 0.0
H1556 H 0.92939 0.38524 0.83179 0.0
H1557 H 0.98655 0.40988 0.85418 0.0
H1558 H 0.96713 0.35006 0.88124 0.0
H1559 H 0.9495 0.32853 0.9106 0.0
H1560 H 0.97547 0.34697 0.98938 0.0
H1561 H 0.99307 0.36881 0.96051 0.0
C1562 C 0.06751 0.37841 0.85506 0.0
C1563 C 0.07803 0.37922 0.88074 0.0
C1564 C 0.0489 0.38019 0.85656 0.0
C1565 C 0.04039 0.383 0.88368 0.0
C1566 C 0.05074 0.38336 0.90947 0.0
C1567 C 0.06941 0.38152 0.90803 0.0
C1568 C 0.02068 0.38566 0.88491 0.0
C1569 C 0.01033 0.3739 0.90201 0.0
C1570 C 0.01202 0.39899 0.86783 0.0
C1571 C 0.02235 0.41254 0.85087 0.0
C1572 C 0.03542 0.42321 0.86482 0.0
C1573 C 0.04543 0.43562 0.84862 0.0
C1574 C 0.04241 0.43756 0.81847 0.0
C1575 C 0.02931 0.42717 0.80449 0.0
C1576 C 0.01926 0.41473 0.82059 0.0
C1577 C 0.93389 0.39041 0.90605 0.0
C1578 C 0.92517 0.38816 0.87883 0.0
C1579 C 0.95262 0.39086 0.90761 0.0
C1580 C 0.96299 0.38886 0.88207 0.0
C1581 C 0.95434 0.38727 0.85477 0.0
C1582 C 0.93562 0.38692 0.85314 0.0
C1583 C 0.98283 0.38764 0.8838 0.0
C1584 C 0.9932 0.39968 0.86725 0.0
C1585 C 0.99151 0.37462 0.90151 0.0
C1586 C 0.98129 0.36117 0.91876 0.0
C1587 C 0.96902 0.34957 0.90484 0.0
C1588 C 0.95903 0.33732 0.92139 0.0
C1589 C 0.96133 0.33641 0.95184 0.0
C1590 C 0.97369 0.3477 0.96579 0.0
C1591 C 0.98368 0.36001 0.94935 0.0
H1592 H 0.95356 0.32694 0.96463 0.0
H1593 H 0.0502 0.44715 0.80595 0.0
H1594 H 0.5719 0.61844 0.33274 0.0
H1595 H 0.53919 0.61882 0.33497 0.0
H1596 H 0.54125 0.60992 0.42856 0.0
H1597 H 0.5741 0.60957 0.4267 0.0
H1598 H 0.51522 0.58878 0.39902 0.0
H1599 H 0.53359 0.65038 0.40651 0.0
H1600 H 0.5502 0.67751 0.39151 0.0
H1601 H 0.52269 0.67751 0.30851 0.0
H1602 H 0.50611 0.65019 0.32284 0.0
H1603 H 0.42396 0.61383 0.42675 0.0
H1604 H 0.45676 0.6121 0.42824 0.0
H1605 H 0.45904 0.62405 0.33557 0.0
H1606 H 0.42638 0.62584 0.33377 0.0
H1607 H 0.4831 0.64381 0.36702 0.0
H1608 H 0.46418 0.58256 0.35969 0.0
H1609 H 0.44818 0.55492 0.37381 0.0
H1610 H 0.47736 0.55329 0.45521 0.0
H1611 H 0.493 0.58133 0.44214 0.0
C1612 C 0.56546 0.61646 0.35383 0.0
C1613 C 0.57567 0.61409 0.37959 0.0
C1614 C 0.54675 0.61673 0.35504 0.0
C1615 C 0.53785 0.61457 0.38197 0.0
C1616 C 0.54791 0.61164 0.40759 0.0
C1617 C 0.56667 0.61152 0.40646 0.0
C1618 C 0.51804 0.61589 0.38335 0.0
C1619 C 0.50814 0.60088 0.3925 0.0
C1620 C 0.50892 0.63159 0.37422 0.0
C1621 C 0.51873 0.64813 0.36565 0.0
C1622 C 0.53118 0.65608 0.38496 0.0
C1623 C 0.54057 0.6715 0.3766 0.0
C1624 C 0.53753 0.6792 0.34904 0.0
C1625 C 0.52505 0.67151 0.32983 0.0
C1626 C 0.51564 0.65607 0.33807 0.0
C1627 C 0.43142 0.61612 0.40668 0.0
C1628 C 0.4225 0.61994 0.38012 0.0
C1629 C 0.45016 0.61505 0.40757 0.0
C1630 C 0.4603 0.61783 0.38197 0.0
C1631 C 0.45146 0.62187 0.35556 0.0
C1632 C 0.43276 0.62282 0.35459 0.0
C1633 C 0.48016 0.61664 0.38257 0.0
C1634 C 0.4901 0.63172 0.37376 0.0
C1635 C 0.48928 0.60096 0.39197 0.0
C1636 C 0.47957 0.58426 0.40012 0.0
C1637 C 0.46696 0.57651 0.38084 0.0
C1638 C 0.45794 0.56075 0.38867 0.0
C1639 C 0.46163 0.55243 0.41551 0.0
C1640 C 0.47436 0.55984 0.43457 0.0
C1641 C 0.48327 0.5757 0.42699 0.0
H1642 H 0.4547 0.54018 0.42146 0.0
H1643 H 0.54482 0.69114 0.3426 0.0
H1644 H 0.57665 0.37819 0.57192 0.0
H1645 H 0.54388 0.37879 0.56943 0.0
H1646 H 0.54111 0.38013 0.66413 0.0
H1647 H 0.57379 0.37932 0.66696 0.0
H1648 H 0.51768 0.35622 0.64136 0.0
H1649 H 0.53433 0.41781 0.6239 0.0
H1650 H 0.55037 0.44231 0.59862 0.0
H1651 H 0.52443 0.42834 0.5174 0.0
H1652 H 0.50843 0.40357 0.54212 0.0
H1653 H 0.42884 0.38383 0.66576 0.0
H1654 H 0.46147 0.38305 0.66302 0.0
H1655 H 0.45869 0.38077 0.56838 0.0
H1656 H 0.42588 0.38174 0.57077 0.0
H1657 H 0.48479 0.40407 0.58778 0.0
H1658 H 0.4671 0.3433 0.6058 0.0
H1659 H 0.4509 0.31899 0.63128 0.0
H1660 H 0.47878 0.33142 0.71143 0.0
H1661 H 0.49496 0.35599 0.68654 0.0
C1662 C 0.5691 0.37865 0.59225 0.0
C1663 C 0.5779 0.37878 0.61965 0.0
C1664 C 0.55036 0.37904 0.59076 0.0
C1665 C 0.54008 0.37966 0.61659 0.0
C1666 C 0.5488 0.37965 0.64393 0.0
C1667 C 0.56751 0.37926 0.64547 0.0
C1668 C 0.5202 0.38022 0.61528 0.0
C1669 C 0.51049 0.36679 0.6299 0.0
C1670 C 0.51084 0.39373 0.59963 0.0
C1671 C 0.52034 0.40871 0.58479 0.0
C1672 C 0.53216 0.41987 0.6006 0.0
C1673 C 0.54122 0.43382 0.58638 0.0
C1674 C 0.53846 0.43685 0.55641 0.0
C1675 C 0.52658 0.42596 0.54061 0.0
C1676 C 0.5175 0.41197 0.55471 0.0
C1677 C 0.43509 0.38323 0.64429 0.0
C1678 C 0.42467 0.38276 0.61847 0.0
C1679 C 0.45378 0.38272 0.6428 0.0
C1680 C 0.46248 0.38161 0.61552 0.0
C1681 C 0.45221 0.38158 0.58965 0.0
C1682 C 0.43346 0.38209 0.59109 0.0
C1683 C 0.48231 0.38022 0.61423 0.0
C1684 C 0.492 0.39345 0.59908 0.0
C1685 C 0.49167 0.36651 0.62939 0.0
C1686 C 0.48214 0.35159 0.64435 0.0
C1687 C 0.46969 0.34093 0.62891 0.0
C1688 C 0.46052 0.32709 0.64324 0.0
C1689 C 0.46378 0.32369 0.67297 0.0
C1690 C 0.47626 0.33408 0.68841 0.0
C1691 C 0.48545 0.34795 0.67419 0.0
H1692 H 0.45666 0.31298 0.68403 0.0
H1693 H 0.54549 0.44765 0.54544 0.0
H1694 H 0.0724 0.61689 0.16418 0.0
H1695 H 0.03975 0.61589 0.16225 0.0
H1696 H 0.04151 0.61654 0.06747 0.0
H1697 H 0.07432 0.61781 0.06908 0.0
H1698 H 0.01583 0.63903 0.08881 0.0
H1699 H 0.03333 0.57786 0.10311 0.0
H1700 H 0.04971 0.55305 0.12696 0.0
H1701 H 0.02245 0.56385 0.20823 0.0
H1702 H 0.00611 0.58893 0.18499 0.0
H1703 H 0.92366 0.61618 0.0738 0.0
H1704 H 0.95635 0.61471 0.07054 0.0
H1705 H 0.96007 0.61439 0.16517 0.0
H1706 H 0.92742 0.61564 0.16877 0.0
H1707 H 0.98303 0.59039 0.1405 0.0
H1708 H 0.96707 0.65261 0.12703 0.0
H1709 H 0.9509 0.6777 0.10354 0.0
H1710 H 0.97539 0.66487 0.02069 0.0
H1711 H 0.99151 0.63952 0.04362 0.0
C1712 C 0.06592 0.61682 0.14286 0.0
C1713 C 0.07605 0.61729 0.11676 0.0
C1714 C 0.04722 0.61619 0.14182 0.0
C1715 C 0.03822 0.61586 0.11472 0.0
C1716 C 0.04821 0.61671 0.08862 0.0
C1717 C 0.06697 0.61737 0.0896 0.0
C1718 C 0.01837 0.6146 0.11382 0.0
C1719 C 0.00865 0.62823 0.09967 0.0
C1720 C 0.00903 0.60067 0.12843 0.0
C1721 C 0.01859 0.58537 0.14235 0.0
C1722 C 0.0309 0.57502 0.12612 0.0
C1723 C 0.04018 0.5609 0.13952 0.0
C1724 C 0.03715 0.5569 0.16911 0.0
C1725 C 0.02479 0.56697 0.18532 0.0
C1726 C 0.0155 0.58113 0.17203 0.0
C1727 C 0.93139 0.61569 0.09397 0.0
C1728 C 0.92286 0.61612 0.12157 0.0
C1729 C 0.95009 0.6149 0.09203 0.0
C1730 C 0.96063 0.61465 0.11761 0.0
C1731 C 0.95218 0.61459 0.14516 0.0
C1732 C 0.93349 0.61537 0.14715 0.0
C1733 C 0.9805 0.61492 0.11579 0.0
C1734 C 0.99021 0.6011 0.12943 0.0
C1735 C 0.98983 0.62867 0.1007 0.0
C1736 C 0.98034 0.64406 0.08697 0.0
C1737 C 0.96891 0.65506 0.10376 0.0
C1738 C 0.95976 0.66934 0.09055 0.0
C1739 C 0.96207 0.67284 0.06062 0.0
C1740 C 0.97359 0.66212 0.04386 0.0
C1741 C 0.98274 0.6478 0.05695 0.0
H1742 H 0.95497 0.68389 0.05043 0.0
H1743 H 0.04436 0.54598 0.17946 0.0
H1744 H 0.11718 0.54777 0.09753 0.0
H1745 H 0.11762 0.51953 0.06982 0.0
H1746 H 0.12761 0.5488 0.98974 0.0
H1747 H 0.12743 0.5771 0.01729 0.0
H1748 H 0.09982 0.52134 0.98617 0.0
H1749 H 0.16124 0.52953 0.01818 0.0
H1750 H 0.18477 0.53496 0.05531 0.0
H1751 H 0.16904 0.48717 0.10137 0.0
H1752 H 0.14522 0.48161 0.06474 0.0
H1753 H 0.12283 0.44836 0.89397 0.0
H1754 H 0.12251 0.47691 0.92059 0.0
H1755 H 0.12699 0.4484 0.00289 0.0
H1756 H 0.1282 0.4199 0.97625 0.0
H1757 H 0.14721 0.47599 0.00552 0.0
H1758 H 0.08616 0.467 0.97616 0.0
H1759 H 0.06145 0.46095 0.94141 0.0
H1760 H 0.07427 0.50904 0.89381 0.0
H1761 H 0.09925 0.51524 0.92803 0.0
C1762 C 0.11941 0.54821 0.07401 0.0
C1763 C 0.12232 0.56464 0.05957 0.0
C1764 C 0.11969 0.53208 0.05825 0.0
C1765 C 0.12268 0.53214 0.0278 0.0
C1766 C 0.12525 0.54852 0.01324 0.0
C1767 C 0.12524 0.56464 0.02903 0.0
C1768 C 0.12351 0.51504 0.01123 0.0
C1769 C 0.11028 0.51147 0.99007 0.0
C1770 C 0.13687 0.50204 0.01704 0.0
C1771 C 0.15133 0.50525 0.03888 0.0
C1772 C 0.1627 0.52026 0.03635 0.0
C1773 C 0.17611 0.52335 0.05729 0.0
C1774 C 0.17837 0.51144 0.08073 0.0
C1775 C 0.16726 0.49639 0.08323 0.0
C1776 C 0.15381 0.49326 0.06237 0.0
C1777 C 0.12375 0.44821 0.91774 0.0
C1778 C 0.12546 0.43192 0.93306 0.0
C1779 C 0.12347 0.46453 0.93297 0.0
C1780 C 0.12437 0.46484 0.96385 0.0
C1781 C 0.12626 0.44855 0.9791 0.0
C1782 C 0.12691 0.43226 0.96386 0.0
C1783 C 0.12345 0.4821 0.98028 0.0
C1784 C 0.13668 0.48576 0.0015 0.0
C1785 C 0.10987 0.49504 0.97487 0.0
C1786 C 0.09469 0.4915 0.9545 0.0
C1787 C 0.08378 0.47623 0.95818 0.0
C1788 C 0.06972 0.47278 0.93859 0.0
C1789 C 0.06633 0.48457 0.91537 0.0
C1790 C 0.07694 0.49989 0.91178 0.0
C1791 C 0.09104 0.5034 0.93128 0.0
H1792 H 0.05545 0.48186 0.9002 0.0
H1793 H 0.18875 0.51386 0.09692 0.0
H1794 H 0.70229 0.85894 0.34767 0.0
H1795 H 0.73081 0.86055 0.32108 0.0
H1796 H 0.70443 0.88782 0.24944 0.0
H1797 H 0.67598 0.88647 0.27588 0.0
H1798 H 0.74086 0.84683 0.26865 0.0
H1799 H 0.73312 0.91832 0.21997 0.0
H1800 H 0.7186 0.94711 0.23258 0.0
H1801 H 0.72138 0.9339 0.32434 0.0
H1802 H 0.73615 0.90517 0.31231 0.0
H1803 H 0.80213 0.86012 0.1515 0.0
H1804 H 0.77464 0.85986 0.18093 0.0
H1805 H 0.79966 0.89463 0.24489 0.0
H1806 H 0.82714 0.89506 0.21562 0.0
H1807 H 0.76532 0.90489 0.23308 0.0
H1808 H 0.79673 0.85101 0.25878 0.0
H1809 H 0.8124 0.82242 0.2491 0.0
H1810 H 0.76464 0.80082 0.20964 0.0
H1811 H 0.74876 0.8294 0.21869 0.0
C1812 C 0.70257 0.86531 0.32628 0.0
C1813 C 0.68687 0.87261 0.31393 0.0
C1814 C 0.71886 0.86617 0.31109 0.0
C1815 C 0.71976 0.87444 0.28342 0.0
C1816 C 0.70409 0.88161 0.27096 0.0
C1817 C 0.68782 0.88077 0.28609 0.0
C1818 C 0.73706 0.87551 0.2674 0.0
C1819 C 0.74622 0.85952 0.26089 0.0
C1820 C 0.74417 0.89211 0.25767 0.0
C1821 C 0.7356 0.90951 0.26519 0.0
C1822 C 0.73072 0.9216 0.24284 0.0
C1823 C 0.72243 0.9379 0.24989 0.0
C1824 C 0.71902 0.9423 0.27923 0.0
C1825 C 0.72397 0.93045 0.30161 0.0
C1826 C 0.73228 0.91414 0.29469 0.0
C1827 C 0.80176 0.86779 0.17174 0.0
C1828 C 0.81686 0.87752 0.18131 0.0
C1829 C 0.78607 0.86757 0.18857 0.0
C1830 C 0.7852 0.87707 0.21523 0.0
C1831 C 0.80007 0.8872 0.22441 0.0
C1832 C 0.81578 0.88737 0.20768 0.0
C1833 C 0.76891 0.87619 0.23385 0.0
C1834 C 0.75995 0.89221 0.24083 0.0
C1835 C 0.76214 0.85965 0.24444 0.0
C1836 C 0.77161 0.8424 0.23916 0.0
C1837 C 0.78961 0.84021 0.24783 0.0
C1838 C 0.79852 0.824 0.24249 0.0
C1839 C 0.78953 0.80983 0.2287 0.0
C1840 C 0.77159 0.81182 0.22029 0.0
C1841 C 0.76262 0.82802 0.22554 0.0
H1842 H 0.79646 0.79729 0.22458 0.0
H1843 H 0.71258 0.95492 0.28464 0.0
H1844 H 0.38936 0.4514 0.599 0.0
H1845 H 0.38813 0.47989 0.57234 0.0
H1846 H 0.36321 0.45315 0.49864 0.0
H1847 H 0.36413 0.42469 0.52524 0.0
H1848 H 0.40302 0.49056 0.52216 0.0
H1849 H 0.33354 0.4816 0.46611 0.0
H1850 H 0.30462 0.46654 0.47576 0.0
H1851 H 0.31465 0.46898 0.56865 0.0
H1852 H 0.34348 0.48428 0.5596 0.0
H1853 H 0.39273 0.55309 0.40605 0.0
H1854 H 0.39245 0.52515 0.43434 0.0
H1855 H 0.35502 0.54859 0.49569 0.0
H1856 H 0.35521 0.57657 0.46762 0.0
H1857 H 0.34587 0.51402 0.48116 0.0
H1858 H 0.3971 0.54627 0.51519 0.0
H1859 H 0.42544 0.56316 0.51093 0.0
H1860 H 0.45077 0.51741 0.47103 0.0
H1861 H 0.42246 0.50029 0.47469 0.0
C1862 C 0.3836 0.45158 0.57712 0.0
C1863 C 0.3768 0.43579 0.56427 0.0
C1864 C 0.38296 0.46786 0.56189 0.0
C1865 C 0.37544 0.46867 0.53361 0.0
C1866 C 0.36882 0.45289 0.52062 0.0
C1867 C 0.36941 0.43662 0.53584 0.0
C1868 C 0.37457 0.48601 0.51764 0.0
C1869 C 0.39053 0.49565 0.51315 0.0
C1870 C 0.35821 0.49287 0.50642 0.0
C1871 C 0.34075 0.48392 0.51213 0.0
C1872 C 0.32953 0.47899 0.4886 0.0
C1873 C 0.31316 0.4704 0.49396 0.0
C1874 C 0.30783 0.46675 0.52279 0.0
C1875 C 0.31883 0.47175 0.54633 0.0
C1876 C 0.33519 0.48036 0.54109 0.0
C1877 C 0.38437 0.55227 0.42547 0.0
C1878 C 0.37407 0.56707 0.43469 0.0
C1879 C 0.38426 0.53632 0.44164 0.0
C1880 C 0.37382 0.53487 0.4672 0.0
C1881 C 0.36316 0.54945 0.47601 0.0
C1882 C 0.36335 0.56544 0.46001 0.0
C1883 C 0.37436 0.51831 0.48519 0.0
C1884 C 0.35836 0.50884 0.49005 0.0
C1885 C 0.39059 0.51184 0.49739 0.0
C1886 C 0.40762 0.52206 0.49497 0.0
C1887 C 0.40866 0.53986 0.50526 0.0
C1888 C 0.42472 0.54946 0.50301 0.0
C1889 C 0.43988 0.54136 0.49071 0.0
C1890 C 0.439 0.52365 0.48057 0.0
C1891 C 0.42296 0.51399 0.48274 0.0
H1892 H 0.45231 0.5488 0.48919 0.0
H1893 H 0.29517 0.46008 0.5269 0.0
H1894 H 0.66882 0.11677 0.72714 0.0
H1895 H 0.69708 0.11767 0.75452 0.0
H1896 H 0.7254 0.13207 0.67533 0.0
H1897 H 0.69715 0.13135 0.64772 0.0
H1898 H 0.74171 0.10392 0.70909 0.0
H1899 H 0.71686 0.16348 0.72234 0.0
H1900 H 0.69312 0.18487 0.73666 0.0
H1901 H 0.69414 0.16453 0.82487 0.0
H1902 H 0.7176 0.14272 0.81098 0.0
H1903 H 0.82512 0.12772 0.7706 0.0
H1904 H 0.79682 0.12736 0.74352 0.0
H1905 H 0.76755 0.12645 0.82541 0.0
H1906 H 0.7959 0.12779 0.85261 0.0
H1907 H 0.75117 0.14746 0.79036 0.0
H1908 H 0.77401 0.08789 0.78009 0.0
H1909 H 0.79631 0.06447 0.76837 0.0
H1910 H 0.79753 0.08196 0.67848 0.0
H1911 H 0.77542 0.10567 0.68975 0.0
C1912 C 0.68106 0.1201 0.71551 0.0
C1913 C 0.68076 0.12404 0.68528 0.0
C1914 C 0.69717 0.12066 0.73121 0.0
C1915 C 0.71326 0.12504 0.71694 0.0
C1916 C 0.71308 0.12869 0.68669 0.0
C1917 C 0.69694 0.12834 0.67101 0.0
C1918 C 0.73031 0.12585 0.73364 0.0
C1919 C 0.74392 0.11358 0.72662 0.0
C1920 C 0.73284 0.13805 0.75714 0.0
C1921 C 0.71888 0.15133 0.76554 0.0
C1922 C 0.71192 0.16345 0.74473 0.0
C1923 C 0.69853 0.17567 0.75277 0.0
C1924 C 0.69213 0.17605 0.78162 0.0
C1925 C 0.69911 0.16421 0.80252 0.0
C1926 C 0.71245 0.15191 0.79458 0.0
C1927 C 0.81264 0.12744 0.78282 0.0
C1928 C 0.81268 0.12769 0.81369 0.0
C1929 C 0.79646 0.12713 0.76731 0.0
C1930 C 0.78 0.12648 0.78236 0.0
C1931 C 0.78004 0.12691 0.81326 0.0
C1932 C 0.79624 0.12763 0.82879 0.0
C1933 C 0.76276 0.12551 0.76586 0.0
C1934 C 0.74905 0.13775 0.77288 0.0
C1935 C 0.75998 0.113 0.74276 0.0
C1936 C 0.77318 0.09867 0.73584 0.0
C1937 C 0.77912 0.08682 0.75787 0.0
C1938 C 0.79172 0.07348 0.7513 0.0
C1939 C 0.79837 0.07176 0.72272 0.0
C1940 C 0.79239 0.08333 0.70062 0.0
C1941 C 0.77981 0.09671 0.70708 0.0
H1942 H 0.80812 0.06142 0.71768 0.0
H1943 H 0.68177 0.18553 0.78779 0.0
H1944 H 0.87017 0.454 0.8959 0.0
H1945 H 0.86803 0.48203 0.92382 0.0
H1946 H 0.87303 0.45231 0.00489 0.0
H1947 H 0.87411 0.42422 0.97709 0.0
H1948 H 0.84997 0.47685 0.01299 0.0
H1949 H 0.90913 0.47678 0.97112 0.0
H1950 H 0.93158 0.47489 0.9314 0.0
H1951 H 0.90839 0.52117 0.88981 0.0
H1952 H 0.88565 0.5232 0.9291 0.0
H1953 H 0.87841 0.5501 0.10359 0.0
H1954 H 0.87726 0.52228 0.07487 0.0
H1955 H 0.86141 0.55232 0.9981 0.0
H1956 H 0.8625 0.58018 0.02657 0.0
H1957 H 0.88939 0.52824 0.98755 0.0
H1958 H 0.8309 0.52826 0.033 0.0
H1959 H 0.81 0.52984 0.07495 0.0
H1960 H 0.83435 0.48293 0.11273 0.0
H1961 H 0.85557 0.48123 0.07119 0.0
C1962 C 0.87077 0.45349 0.91969 0.0
C1963 C 0.87241 0.43699 0.93436 0.0
C1964 C 0.86965 0.46951 0.93564 0.0
C1965 C 0.87077 0.46938 0.96651 0.0
C1966 C 0.87215 0.45282 0.98113 0.0
C1967 C 0.87282 0.43677 0.96523 0.0
C1968 C 0.87059 0.48642 0.98363 0.0
C1969 C 0.85878 0.48798 0.00759 0.0
C1970 C 0.88184 0.50113 0.97643 0.0
C1971 C 0.89559 0.50003 0.9529 0.0
C1972 C 0.90875 0.48649 0.95341 0.0
C1973 C 0.92153 0.4854 0.93098 0.0
C1974 C 0.92138 0.49788 0.90806 0.0
C1975 C 0.90848 0.5115 0.90756 0.0
C1976 C 0.89565 0.51264 0.92991 0.0
C1977 C 0.87461 0.55078 0.08063 0.0
C1978 C 0.87055 0.56734 0.06735 0.0
C1979 C 0.8739 0.53488 0.06429 0.0
C1980 C 0.86917 0.53527 0.03442 0.0
C1981 C 0.86509 0.55176 0.02113 0.0
C1982 C 0.86565 0.56764 0.03748 0.0
C1983 C 0.8689 0.51852 0.01681 0.0
C1984 C 0.88061 0.51707 0.99281 0.0
C1985 C 0.85781 0.50381 0.02429 0.0
C1986 C 0.84492 0.50471 0.04911 0.0
C1987 C 0.83188 0.51836 0.05036 0.0
C1988 C 0.81996 0.51927 0.07405 0.0
C1989 C 0.82087 0.50652 0.09653 0.0
C1990 C 0.83367 0.49281 0.09532 0.0
C1991 C 0.84563 0.49186 0.07169 0.0
H1992 H 0.81164 0.50725 0.11485 0.0
H1993 H 0.93128 0.49701 0.89071 0.0
H1994 H 0.19856 0.1269 0.8572 0.0
H1995 H 0.22699 0.12745 0.8304 0.0
H1996 H 0.19843 0.12001 0.74865 0.0
H1997 H 0.17008 0.11867 0.77547 0.0
H1998 H 0.22667 0.10043 0.74753 0.0
H1999 H 0.21567 0.162 0.77214 0.0
H2000 H 0.20901 0.18765 0.80474 0.0
H2001 H 0.25763 0.17786 0.85291 0.0
H2002 H 0.26446 0.15199 0.82083 0.0
H2003 H 0.2968 0.13077 0.65252 0.0
H2004 H 0.26874 0.12985 0.68058 0.0
H2005 H 0.29876 0.12296 0.76087 0.0
H2006 H 0.32688 0.12358 0.73299 0.0
H2007 H 0.27033 0.14995 0.76269 0.0
H2008 H 0.28066 0.08801 0.73553 0.0
H2009 H 0.2868 0.06352 0.70038 0.0
H2010 H 0.23826 0.07595 0.65362 0.0
H2011 H 0.23198 0.10072 0.68826 0.0
C2012 C 0.19837 0.12537 0.83351 0.0
C2013 C 0.1821 0.12282 0.81841 0.0
C2014 C 0.21462 0.12579 0.81818 0.0
C2015 C 0.21486 0.12411 0.78739 0.0
C2016 C 0.19861 0.12135 0.77237 0.0
C2017 C 0.18241 0.12062 0.78772 0.0
C2018 C 0.23202 0.12513 0.7708 0.0
C2019 C 0.23607 0.1114 0.75063 0.0
C2020 C 0.24449 0.1393 0.77505 0.0
C2021 C 0.24049 0.15495 0.79425 0.0
C2022 C 0.22488 0.16524 0.78981 0.0
C2023 C 0.22108 0.17983 0.80818 0.0
C2024 C 0.23287 0.18435 0.83093 0.0
C2025 C 0.2485 0.17433 0.8353 0.0
C2026 C 0.25235 0.15971 0.81701 0.0
C2027 C 0.29742 0.1291 0.67616 0.0
C2028 C 0.31402 0.12721 0.69057 0.0
C2029 C 0.28141 0.12855 0.69211 0.0
C2030 C 0.28174 0.12631 0.72273 0.0
C2031 C 0.29828 0.12472 0.73724 0.0
C2032 C 0.31429 0.12499 0.72127 0.0
C2033 C 0.26479 0.12532 0.73958 0.0
C2034 C 0.26084 0.13903 0.75972 0.0
C2035 C 0.25228 0.11133 0.73496 0.0
C2036 C 0.25595 0.09633 0.71431 0.0
C2037 C 0.27137 0.08562 0.71761 0.0
C2038 C 0.27487 0.07167 0.69781 0.0
C2039 C 0.26295 0.06821 0.67474 0.0
C2040 C 0.24749 0.07866 0.67148 0.0
C2041 C 0.24395 0.09265 0.6912 0.0
H2042 H 0.26568 0.05741 0.65943 0.0
H2043 H 0.22991 0.19565 0.84513 0.0
H2044 H 0.6208 0.54554 0.39701 0.0
H2045 H 0.62127 0.51738 0.42461 0.0
H2046 H 0.62886 0.54701 0.50533 0.0
H2047 H 0.62908 0.57512 0.47772 0.0
H2048 H 0.64928 0.51918 0.50641 0.0
H2049 H 0.58725 0.52856 0.48436 0.0
H2050 H 0.56083 0.53437 0.45308 0.0
H2051 H 0.57079 0.48559 0.40529 0.0
H2052 H 0.59743 0.47961 0.43604 0.0
H2053 H 0.62176 0.44823 0.60305 0.0
H2054 H 0.62181 0.47638 0.57509 0.0
H2055 H 0.62865 0.44658 0.4945 0.0
H2056 H 0.62892 0.41842 0.52225 0.0
H2057 H 0.60069 0.47418 0.49397 0.0
H2058 H 0.66328 0.4656 0.51858 0.0
H2059 H 0.68843 0.46029 0.55275 0.0
H2060 H 0.67539 0.50872 0.5995 0.0
H2061 H 0.64996 0.51416 0.56585 0.0
C2062 C 0.62257 0.54604 0.42064 0.0
C2063 C 0.62482 0.56254 0.43522 0.0
C2064 C 0.62275 0.52994 0.43643 0.0
C2065 C 0.62478 0.53006 0.46716 0.0
C2066 C 0.62725 0.54654 0.48166 0.0
C2067 C 0.62734 0.56262 0.46585 0.0
C2068 C 0.62441 0.51304 0.48422 0.0
C2069 C 0.63851 0.50948 0.50391 0.0
C2070 C 0.61049 0.50021 0.4808 0.0
C2071 C 0.59444 0.50373 0.46232 0.0
C2072 C 0.58389 0.51914 0.46704 0.0
C2073 C 0.56886 0.52245 0.44943 0.0
C2074 C 0.56416 0.51038 0.42716 0.0
C2075 C 0.57446 0.49494 0.42252 0.0
C2076 C 0.58952 0.49157 0.44005 0.0
C2077 C 0.62326 0.44768 0.57937 0.0
C2078 C 0.62538 0.43114 0.56482 0.0
C2079 C 0.62332 0.46375 0.56348 0.0
C2080 C 0.62527 0.46349 0.5328 0.0
C2081 C 0.62712 0.447 0.51818 0.0
C2082 C 0.62736 0.43097 0.53408 0.0
C2083 C 0.62551 0.48046 0.51592 0.0
C2084 C 0.6114 0.48396 0.49634 0.0
C2085 C 0.63923 0.49336 0.51981 0.0
C2086 C 0.6546 0.49018 0.53989 0.0
C2087 C 0.66567 0.47503 0.5363 0.0
C2088 C 0.68 0.47202 0.55554 0.0
C2089 C 0.68348 0.48414 0.57833 0.0
C2090 C 0.67267 0.49933 0.58186 0.0
C2091 C 0.6583 0.50239 0.5627 0.0
H2092 H 0.69458 0.48178 0.59321 0.0
H2093 H 0.55252 0.51297 0.41355 0.0
H2094 H 0.30002 0.87408 0.35779 0.0
H2095 H 0.27161 0.87336 0.33077 0.0
H2096 H 0.3006 0.87602 0.24871 0.0
H2097 H 0.32891 0.87772 0.27569 0.0
H2098 H 0.27337 0.89619 0.24428 0.0
H2099 H 0.2813 0.83573 0.27772 0.0
H2100 H 0.28659 0.81169 0.31396 0.0
H2101 H 0.23835 0.82642 0.35965 0.0
H2102 H 0.2329 0.85072 0.32389 0.0
H2103 H 0.20161 0.8653 0.15288 0.0
H2104 H 0.22978 0.86599 0.18073 0.0
H2105 H 0.20038 0.87734 0.26026 0.0
H2106 H 0.17219 0.87687 0.23261 0.0
H2107 H 0.22734 0.84982 0.26565 0.0
H2108 H 0.22018 0.9105 0.22943 0.0
H2109 H 0.21538 0.93312 0.19065 0.0
H2110 H 0.26333 0.9156 0.14679 0.0
H2111 H 0.26827 0.89268 0.1851 0.0
C2112 C 0.30029 0.87453 0.33398 0.0
C2113 C 0.31664 0.87589 0.31881 0.0
C2114 C 0.28406 0.874 0.31853 0.0
C2115 C 0.28393 0.87427 0.28761 0.0
C2116 C 0.3003 0.87578 0.27252 0.0
C2117 C 0.31649 0.87672 0.28796 0.0
C2118 C 0.26678 0.87315 0.27091 0.0
C2119 C 0.26346 0.88587 0.24876 0.0
C2120 C 0.25363 0.85986 0.27689 0.0
C2121 C 0.25679 0.84516 0.29829 0.0
C2122 C 0.27188 0.83391 0.2956 0.0
C2123 C 0.2749 0.82023 0.31604 0.0
C2124 C 0.26284 0.81756 0.33914 0.0
C2125 C 0.2477 0.82852 0.34177 0.0
C2126 C 0.24462 0.84224 0.32141 0.0
C2127 C 0.20114 0.86789 0.17631 0.0
C2128 C 0.1847 0.87109 0.19055 0.0
C2129 C 0.21723 0.86831 0.19215 0.0
C2130 C 0.21711 0.87178 0.22249 0.0
C2131 C 0.20071 0.87463 0.23685 0.0
C2132 C 0.18465 0.87444 0.22099 0.0
C2133 C 0.23414 0.87277 0.23919 0.0
C2134 C 0.23736 0.86006 0.26128 0.0
C2135 C 0.24733 0.88583 0.23281 0.0
C2136 C 0.24449 0.89976 0.20998 0.0
C2137 C 0.22962 0.91138 0.2114 0.0
C2138 C 0.22689 0.92427 0.18952 0.0
C2139 C 0.23902 0.92577 0.16623 0.0
C2140 C 0.25394 0.91441 0.16482 0.0
C2141 C 0.25672 0.90148 0.18662 0.0
H2142 H 0.23688 0.93575 0.14931 0.0
H2143 H 0.26521 0.80696 0.35495 0.0
H2144 H 0.62834 0.07548 0.52172 0.0
H2145 H 0.62927 0.04731 0.494 0.0
H2146 H 0.62143 0.01745 0.57415 0.0
H2147 H 0.62023 0.04562 0.6021 0.0
H2148 H 0.64985 0.00437 0.53551 0.0
H2149 H 0.58729 0.02154 0.53345 0.0
H2150 H 0.56222 0.04246 0.5244 0.0
H2151 H 0.57702 0.04595 0.43337 0.0
H2152 H 0.60237 0.02525 0.44199 0.0
H2153 H 0.63008 0.91913 0.47581 0.0
H2154 H 0.62986 0.94726 0.50339 0.0
H2155 H 0.62372 0.97691 0.42248 0.0
H2156 H 0.62316 0.94867 0.39485 0.0
H2157 H 0.60281 0.99066 0.46145 0.0
H2158 H 0.66475 0.97416 0.46122 0.0
H2159 H 0.69093 0.95437 0.46844 0.0
H2160 H 0.67926 0.95099 0.5607 0.0
H2161 H 0.65284 0.97056 0.55397 0.0
C2162 C 0.62686 0.06293 0.53348 0.0
C2163 C 0.62414 0.06275 0.56407 0.0
C2164 C 0.62736 0.04687 0.5176 0.0
C2165 C 0.62534 0.03037 0.53206 0.0
C2166 C 0.623 0.0301 0.56266 0.0
C2167 C 0.62224 0.04618 0.57853 0.0
C2168 C 0.62541 0.0134 0.5151 0.0
C2169 C 0.63947 0.0012 0.51957 0.0
C2170 C 0.61215 0.00967 0.49369 0.0
C2171 C 0.59683 0.02199 0.48843 0.0
C2172 C 0.58529 0.02689 0.51156 0.0
C2173 C 0.57102 0.03868 0.5065 0.0
C2174 C 0.56806 0.04557 0.47834 0.0
C2175 C 0.57935 0.04063 0.45517 0.0
C2176 C 0.59366 0.02886 0.46013 0.0
C2177 C 0.62874 0.93165 0.46388 0.0
C2178 C 0.62671 0.93172 0.43316 0.0
C2179 C 0.62871 0.94774 0.47966 0.0
C2180 C 0.62711 0.96427 0.46501 0.0
C2181 C 0.625 0.96434 0.4343 0.0
C2182 C 0.62472 0.94821 0.41852 0.0
C2183 C 0.6273 0.98142 0.48178 0.0
C2184 C 0.61327 0.99373 0.4773 0.0
C2185 C 0.64077 0.98538 0.50286 0.0
C2186 C 0.65672 0.9737 0.50703 0.0
C2187 C 0.66769 0.9691 0.48302 0.0
C2188 C 0.68259 0.95793 0.48703 0.0
C2189 C 0.68673 0.95139 0.515 0.0
C2190 C 0.67602 0.95605 0.53904 0.0
C2191 C 0.6611 0.96719 0.53514 0.0
H2192 H 0.69827 0.94275 0.51806 0.0
H2193 H 0.557 0.0547 0.47447 0.0
H2194 H 0.32943 0.38204 0.72749 0.0
H2195 H 0.30114 0.38171 0.75485 0.0
H2196 H 0.27186 0.37406 0.67398 0.0
H2197 H 0.30013 0.37407 0.64641 0.0
H2198 H 0.25778 0.4016 0.71439 0.0
H2199 H 0.2767 0.33951 0.71197 0.0
H2200 H 0.29836 0.31486 0.7193 0.0
H2201 H 0.30141 0.32741 0.81135 0.0
H2202 H 0.27997 0.35234 0.80447 0.0
H2203 H 0.17307 0.37748 0.77128 0.0
H2204 H 0.20126 0.37881 0.7441 0.0
H2205 H 0.23082 0.37186 0.82498 0.0
H2206 H 0.20256 0.36981 0.85217 0.0
H2207 H 0.24533 0.35221 0.78467 0.0
H2208 H 0.22683 0.41358 0.78921 0.0
H2209 H 0.20621 0.43927 0.7836 0.0
H2210 H 0.20356 0.4299 0.69053 0.0
H2211 H 0.22397 0.40398 0.69563 0.0
C2212 C 0.31697 0.38037 0.7155 0.0
C2213 C 0.31698 0.37801 0.68483 0.0
C2214 C 0.30085 0.38015 0.73117 0.0
C2215 C 0.28449 0.37779 0.71638 0.0
C2216 C 0.28439 0.37589 0.68571 0.0
C2217 C 0.30054 0.37582 0.67005 0.0
C2218 C 0.2675 0.37693 0.73311 0.0
C2219 C 0.25489 0.39072 0.72951 0.0
C2220 C 0.26411 0.36299 0.75342 0.0
C2221 C 0.27688 0.34791 0.75764 0.0
C2222 C 0.28211 0.33712 0.73373 0.0
C2223 C 0.29433 0.32308 0.73781 0.0
C2224 C 0.3013 0.31961 0.76576 0.0
C2225 C 0.29602 0.33014 0.7897 0.0
C2226 C 0.28383 0.34421 0.78573 0.0
C2227 C 0.18557 0.37628 0.78329 0.0
C2228 C 0.18562 0.37359 0.81387 0.0
C2229 C 0.2017 0.37713 0.76774 0.0
C2230 C 0.21821 0.37576 0.78253 0.0
C2231 C 0.21826 0.37298 0.81307 0.0
C2232 C 0.20211 0.37184 0.8286 0.0
C2233 C 0.23539 0.37692 0.76604 0.0
C2234 C 0.24811 0.36317 0.76966 0.0
C2235 C 0.23899 0.39107 0.74604 0.0
C2236 C 0.2268 0.40673 0.74285 0.0
C2237 C 0.22175 0.41692 0.76758 0.0
C2238 C 0.21012 0.43153 0.76448 0.0
C2239 C 0.20355 0.43619 0.73674 0.0
C2240 C 0.20864 0.42627 0.71201 0.0
C2241 C 0.22026 0.41162 0.71499 0.0
H2242 H 0.19454 0.44751 0.73439 0.0
H2243 H 0.31075 0.30873 0.76888 0.0
H2244 H 0.8667 0.07855 0.97341 0.0
H2245 H 0.86742 0.04998 0.99986 0.0
H2246 H 0.87897 0.02203 0.91895 0.0
H2247 H 0.87845 0.05062 0.89223 0.0
H2248 H 0.85129 0.00605 0.95511 0.0
H2249 H 0.91174 0.02925 0.96264 0.0
H2250 H 0.9342 0.05243 0.97487 0.0
H2251 H 0.91733 0.05167 0.06505 0.0
H2252 H 0.89442 0.02883 0.05327 0.0
H2253 H 0.87455 0.92194 0.01581 0.0
H2254 H 0.87401 0.95001 0.9881 0.0
H2255 H 0.87674 0.98007 0.06926 0.0
H2256 H 0.87821 0.95197 0.09695 0.0
H2257 H 0.89724 0.99527 0.03216 0.0
H2258 H 0.83664 0.97443 0.02745 0.0
H2259 H 0.81215 0.95289 0.01795 0.0
H2260 H 0.82669 0.95077 0.92668 0.0
H2261 H 0.85145 0.97211 0.93571 0.0
C2262 C 0.86933 0.06632 0.96119 0.0
C2263 C 0.87259 0.06683 0.93074 0.0
C2264 C 0.86978 0.05004 0.97636 0.0
C2265 C 0.87336 0.03396 0.96135 0.0
C2266 C 0.87622 0.03434 0.93087 0.0
C2267 C 0.87599 0.05066 0.91571 0.0
C2268 C 0.87433 0.01679 0.97761 0.0
C2269 C 0.86146 0.00353 0.97169 0.0
C2270 C 0.88727 0.01387 0.99987 0.0
C2271 C 0.90123 0.02744 0.007 0.0
C2272 C 0.9127 0.03413 0.98503 0.0
C2273 C 0.92554 0.04719 0.99188 0.0
C2274 C 0.9272 0.05351 0.02069 0.0
C2275 C 0.91603 0.04677 0.04273 0.0
C2276 C 0.9031 0.03378 0.03598 0.0
C2277 C 0.87501 0.93455 0.02772 0.0
C2278 C 0.87636 0.93479 0.05852 0.0
C2279 C 0.8746 0.9506 0.01187 0.0
C2280 C 0.87498 0.96722 0.02657 0.0
C2281 C 0.87642 0.96745 0.05738 0.0
C2282 C 0.87721 0.95138 0.0732 0.0
C2283 C 0.87411 0.98436 0.00983 0.0
C2284 C 0.88702 0.99768 0.01561 0.0
C2285 C 0.86095 0.9875 0.98788 0.0
C2286 C 0.84601 0.97474 0.98232 0.0
C2287 C 0.8347 0.96928 0.00539 0.0
C2288 C 0.82076 0.95712 1.00009 0.0
C2289 C 0.8179 0.95043 0.97175 0.0
C2290 C 0.82894 0.95594 0.94863 0.0
C2291 C 0.84292 0.96808 0.95382 0.0
H2292 H 0.8071 0.94102 0.96768 0.0
H2293 H 0.93716 0.06361 0.02593 0.0
H2294 H 0.17353 0.60466 0.21772 0.0
H2295 H 0.20123 0.60487 0.24652 0.0
H2296 H 0.22717 0.63644 0.17941 0.0
H2297 H 0.19947 0.63642 0.15047 0.0
H2298 H 0.23504 0.59294 0.23563 0.0
H2299 H 0.25461 0.66691 0.21385 0.0
H2300 H 0.23995 0.69573 0.20192 0.0
H2301 H 0.19144 0.67784 0.24359 0.0
H2302 H 0.20589 0.64904 0.25615 0.0
H2303 H 0.32514 0.61011 0.27825 0.0
H2304 H 0.2968 0.60851 0.25132 0.0
H2305 H 0.27062 0.63873 0.31998 0.0
H2306 H 0.29896 0.64051 0.34707 0.0
H2307 H 0.26177 0.6512 0.26582 0.0
H2308 H 0.26391 0.59444 0.31504 0.0
H2309 H 0.27742 0.56562 0.33001 0.0
H2310 H 0.2801 0.54897 0.2397 0.0
H2311 H 0.26684 0.57781 0.22414 0.0
C2312 C 0.18514 0.61159 0.20899 0.0
C2313 C 0.18425 0.62065 0.18189 0.0
C2314 C 0.20097 0.61164 0.22545 0.0
C2315 C 0.21617 0.62083 0.21525 0.0
C2316 C 0.2155 0.62947 0.18785 0.0
C2317 C 0.19968 0.6294 0.17131 0.0
C2318 C 0.23258 0.62174 0.23364 0.0
C2319 C 0.24091 0.60567 0.24218 0.0
C2320 C 0.24003 0.63836 0.24265 0.0
C2321 C 0.23129 0.65575 0.23565 0.0
C2322 C 0.24084 0.66917 0.22057 0.0
C2323 C 0.23256 0.68549 0.21369 0.0
C2324 C 0.21475 0.68859 0.2219 0.0
C2325 C 0.20521 0.6754 0.23714 0.0
C2326 C 0.21344 0.65906 0.24411 0.0
C2327 C 0.31336 0.6164 0.28769 0.0
C2328 C 0.31431 0.62545 0.31483 0.0
C2329 C 0.29716 0.61542 0.27229 0.0
C2330 C 0.28159 0.6234 0.28375 0.0
C2331 C 0.2825 0.6325 0.31076 0.0
C2332 C 0.29869 0.63345 0.32624 0.0
C2333 C 0.26441 0.6224 0.26738 0.0
C2334 C 0.25593 0.63847 0.25921 0.0
C2335 C 0.25667 0.60577 0.25912 0.0
C2336 C 0.26453 0.58836 0.26841 0.0
C2337 C 0.26751 0.58469 0.29835 0.0
C2338 C 0.2751 0.56834 0.30695 0.0
C2339 C 0.27966 0.55549 0.28581 0.0
C2340 C 0.27658 0.55894 0.25604 0.0
C2341 C 0.26901 0.57528 0.24732 0.0
H2342 H 0.28554 0.54284 0.29251 0.0
H2343 H 0.20836 0.70122 0.21652 0.0
H2344 H 0.37718 0.0506 0.60756 0.0
H2345 H 0.37752 0.02229 0.58024 0.0
H2346 H 0.36888 0.05124 0.49928 0.0
H2347 H 0.36777 0.07947 0.52662 0.0
H2348 H 0.34933 0.02291 0.49854 0.0
H2349 H 0.41116 0.0341 0.52095 0.0
H2350 H 0.43724 0.04064 0.55267 0.0
H2351 H 0.42839 0.99158 0.60005 0.0
H2352 H 0.4021 0.98487 0.56888 0.0
H2353 H 0.37877 0.95336 0.401 0.0
H2354 H 0.37781 0.98132 0.42952 0.0
H2355 H 0.37254 0.95085 0.50961 0.0
H2356 H 0.37321 0.92285 0.4813 0.0
H2357 H 0.39924 0.9794 0.51077 0.0
H2358 H 0.33705 0.96886 0.48608 0.0
H2359 H 0.312 0.9628 0.45201 0.0
H2360 H 0.3233 0.01174 0.4057 0.0
H2361 H 0.34862 0.01795 0.43925 0.0
C2362 C 0.37535 0.05091 0.58393 0.0
C2363 C 0.37252 0.06724 0.56921 0.0
C2364 C 0.37563 0.03473 0.56831 0.0
C2365 C 0.37355 0.03463 0.53759 0.0
C2366 C 0.37053 0.05095 0.52294 0.0
C2367 C 0.36994 0.06708 0.5386 0.0
C2368 C 0.37439 0.01755 0.52066 0.0
C2369 C 0.36039 0.01355 0.50099 0.0
C2370 C 0.38867 0.00512 0.52409 0.0
C2371 C 0.40455 0.00907 0.54275 0.0
C2372 C 0.4147 0.02477 0.53827 0.0
C2373 C 0.42953 0.0285 0.55613 0.0
C2374 C 0.43444 0.01655 0.5784 0.0
C2375 C 0.42456 0.00083 0.58281 0.0
C2376 C 0.4097 0.99705 0.56504 0.0
C2377 C 0.37742 0.95262 0.42469 0.0
C2378 C 0.37602 0.93593 0.43893 0.0
C2379 C 0.37684 0.96858 0.4409 0.0
C2380 C 0.37508 0.96808 0.47161 0.0
C2381 C 0.37393 0.95146 0.48592 0.0
C2382 C 0.37422 0.93551 0.4697 0.0
C2383 C 0.37426 0.98495 0.48879 0.0
C2384 C 0.38825 0.98885 0.50844 0.0
C2385 C 0.36015 0.99742 0.48502 0.0
C2386 C 0.34484 0.99377 0.46499 0.0
C2387 C 0.33429 0.97825 0.46847 0.0
C2388 C 0.32003 0.9748 0.44929 0.0
C2389 C 0.31609 0.98685 0.42666 0.0
C2390 C 0.32638 0.0024 0.42322 0.0
C2391 C 0.34068 0.0059 0.44232 0.0
H2392 H 0.30504 0.98416 0.41183 0.0
H2393 H 0.44594 0.01945 0.59219 0.0
H2394 H 0.79942 0.63657 0.15251 0.0
H2395 H 0.77124 0.63617 0.18004 0.0
H2396 H 0.80032 0.62319 0.25938 0.0
H2397 H 0.82839 0.62291 0.23176 0.0
H2398 H 0.77263 0.60334 0.25724 0.0
H2399 H 0.78196 0.66623 0.24458 0.0
H2400 H 0.78692 0.69523 0.21972 0.0
H2401 H 0.73791 0.68842 0.1712 0.0
H2402 H 0.7328 0.65924 0.1954 0.0
H2403 H 0.70045 0.62666 0.3557 0.0
H2404 H 0.72891 0.6278 0.32865 0.0
H2405 H 0.70018 0.6228 0.24671 0.0
H2406 H 0.67173 0.62124 0.27353 0.0
H2407 H 0.72737 0.65209 0.25131 0.0
H2408 H 0.71929 0.58816 0.26618 0.0
H2409 H 0.71402 0.56126 0.29655 0.0
H2410 H 0.76175 0.57252 0.3463 0.0
H2411 H 0.76715 0.59967 0.31649 0.0
C2412 C 0.7998 0.63371 0.17585 0.0
C2413 C 0.81612 0.62976 0.18997 0.0
C2414 C 0.78368 0.63358 0.19163 0.0
C2415 C 0.78363 0.62989 0.22194 0.0
C2416 C 0.79997 0.62606 0.23604 0.0
C2417 C 0.81603 0.62592 0.22021 0.0
C2418 C 0.76652 0.62934 0.23878 0.0
C2419 C 0.7629 0.61416 0.25618 0.0
C2420 C 0.7536 0.6433 0.23722 0.0
C2421 C 0.75708 0.66045 0.22163 0.0
C2422 C 0.77236 0.67079 0.22833 0.0
C2423 C 0.77517 0.6873 0.21442 0.0
C2424 C 0.76272 0.69367 0.19394 0.0
C2425 C 0.74753 0.68348 0.18709 0.0
C2426 C 0.74468 0.66695 0.20089 0.0
C2427 C 0.70021 0.62577 0.33192 0.0
C2428 C 0.68389 0.62383 0.3167 0.0
C2429 C 0.71645 0.6264 0.31655 0.0
C2430 C 0.71657 0.62537 0.28575 0.0
C2431 C 0.7003 0.62361 0.27049 0.0
C2432 C 0.6841 0.62265 0.28585 0.0
C2433 C 0.73368 0.62619 0.26939 0.0
C2434 C 0.73723 0.64137 0.25219 0.0
C2435 C 0.74667 0.61244 0.27155 0.0
C2436 C 0.74351 0.59605 0.28932 0.0
C2437 C 0.72857 0.585 0.28377 0.0
C2438 C 0.72558 0.56969 0.30085 0.0
C2439 C 0.73751 0.56521 0.32339 0.0
C2440 C 0.7525 0.57602 0.32885 0.0
C2441 C 0.75554 0.59136 0.31186 0.0
H2442 H 0.73518 0.55335 0.33659 0.0
H2443 H 0.76478 0.70655 0.18347 0.0
H2444 H 0.12463 0.94963 0.10732 0.0
H2445 H 0.12423 0.97768 0.07941 0.0
H2446 H 0.12927 0.94771 0.99849 0.0
H2447 H 0.1305 0.91972 0.02639 0.0
H2448 H 0.14913 0.97561 0.99477 0.0
H2449 H 0.08814 0.96612 0.02358 0.0
H2450 H 0.06313 0.96039 0.0578 0.0
H2451 H 0.07491 0.00943 0.10374 0.0
H2452 H 0.10017 0.01534 0.07003 0.0
H2453 H 0.11826 0.04618 0.9003 0.0
H2454 H 0.11951 0.01809 0.92831 0.0
H2455 H 0.12783 0.04813 0.0083 0.0
H2456 H 0.12682 0.07623 0.98052 0.0
H2457 H 0.10093 0.02045 0.01177 0.0
H2458 H 0.16229 0.02918 0.98016 0.0
H2459 H 0.18592 0.03437 0.9432 0.0
H2460 H 0.17122 0.98556 0.89887 0.0
H2461 H 0.14731 0.98022 0.93534 0.0
C2462 C 0.12569 0.94905 0.08358 0.0
C2463 C 0.12751 0.9325 0.06902 0.0
C2464 C 0.12536 0.96508 0.06762 0.0
C2465 C 0.12635 0.96483 0.03675 0.0
C2466 C 0.12845 0.94829 0.02226 0.0
C2467 C 0.12912 0.93229 0.03823 0.0
C2468 C 0.12521 0.98176 0.01952 0.0
C2469 C 0.13843 0.98527 0.99828 0.0
C2470 C 0.11139 0.99454 0.02422 0.0
C2471 C 0.09615 0.99108 0.04445 0.0
C2472 C 0.08548 0.97562 0.04111 0.0
C2473 C 0.07125 0.97235 0.06039 0.0
C2474 C 0.06746 0.98452 0.08298 0.0
C2475 C 0.07788 1e-05 0.08627 0.0
C2476 C 0.09214 0.00333 0.06706 0.0
C2477 C 0.12032 0.0468 0.92386 0.0
C2478 C 0.12247 0.0634 0.93822 0.0
C2479 C 0.12108 0.03076 0.93978 0.0
C2480 C 0.12382 0.03109 0.97031 0.0
C2481 C 0.1257 0.04763 0.98475 0.0
C2482 C 0.1252 0.06365 0.96882 0.0
C2483 C 0.12482 0.01416 0.98725 0.0
C2484 C 0.11157 0.01071 0.00837 0.0
C2485 C 0.1384 0.00129 0.98207 0.0
C2486 C 0.1529 0.0044 0.96031 0.0
C2487 C 0.164 0.01963 0.9624 0.0
C2488 C 0.17746 0.02258 0.94156 0.0
C2489 C 0.18004 0.01032 0.91865 0.0
C2490 C 0.1692 0.99505 0.9166 0.0
C2491 C 0.15569 0.99205 0.93736 0.0
H2492 H 0.19047 0.01263 0.90254 0.0
H2493 H 0.05644 0.98196 0.09789 0.0
H2494 H 0.67312 0.37652 0.72831 0.0
H2495 H 0.70121 0.37678 0.75593 0.0
H2496 H 0.73094 0.36978 0.67528 0.0
H2497 H 0.70275 0.36876 0.64762 0.0
H2498 H 0.74484 0.34948 0.71514 0.0
H2499 H 0.72772 0.41132 0.71233 0.0
H2500 H 0.70766 0.4374 0.71858 0.0
H2501 H 0.7045 0.42711 0.81129 0.0
H2502 H 0.72434 0.40079 0.80554 0.0
H2503 H 0.82939 0.3791 0.7717 0.0
H2504 H 0.80086 0.3783 0.74499 0.0
H2505 H 0.7725 0.36981 0.8264 0.0
H2506 H 0.80106 0.37024 0.85334 0.0
H2507 H 0.75823 0.398 0.78684 0.0
H2508 H 0.77639 0.33575 0.78753 0.0
H2509 H 0.79761 0.31082 0.77937 0.0
H2510 H 0.8002 0.32382 0.68752 0.0
H2511 H 0.7792 0.34903 0.69523 0.0
C2512 C 0.68565 0.37508 0.71644 0.0
C2513 C 0.68575 0.37269 0.68578 0.0
C2514 C 0.70171 0.37532 0.73225 0.0
C2515 C 0.71825 0.37363 0.71767 0.0
C2516 C 0.71836 0.37113 0.68703 0.0
C2517 C 0.70226 0.37059 0.67124 0.0
C2518 C 0.73538 0.37422 0.73442 0.0
C2519 C 0.74783 0.36025 0.73049 0.0
C2520 C 0.73924 0.3881 0.75488 0.0
C2521 C 0.72739 0.40398 0.75845 0.0
C2522 C 0.72265 0.41454 0.73402 0.0
C2523 C 0.71133 0.42938 0.73748 0.0
C2524 C 0.70477 0.43388 0.7653 0.0
C2525 C 0.70957 0.42359 0.78975 0.0
C2526 C 0.72086 0.40872 0.78641 0.0
C2527 C 0.81708 0.37707 0.78394 0.0
C2528 C 0.81744 0.37468 0.81459 0.0
C2529 C 0.80083 0.37659 0.76864 0.0
C2530 C 0.78465 0.37395 0.78377 0.0
C2531 C 0.7849 0.37185 0.81441 0.0
C2532 C 0.80119 0.37202 0.8297 0.0
C2533 C 0.7675 0.37332 0.76743 0.0
C2534 C 0.75512 0.38729 0.77145 0.0
C2535 C 0.76384 0.35963 0.74673 0.0
C2536 C 0.77637 0.34439 0.74202 0.0
C2537 C 0.78161 0.3334 0.76564 0.0
C2538 C 0.79357 0.31919 0.76109 0.0
C2539 C 0.80028 0.31576 0.73296 0.0
C2540 C 0.795 0.3265 0.70931 0.0
C2541 C 0.78306 0.34075 0.71375 0.0
H2542 H 0.80954 0.30476 0.72947 0.0
H2543 H 0.69601 0.44537 0.76793 0.0
loop_
_geom_bond_atom_site_label_1
_geom_bond_atom_site_label_2
_geom_bond_distance
_geom_bond_site_symmetry_2
_ccdc_geom_bond_type
Co0 O2 2.143 . S
Co0 O8 2.074 . S
Co0 O11 2.093 . S
Co0 O24 2.097 . S
Co0 N41 2.151 . S
Co0 N49 2.214 . S
Co1 O2 2.160 . S
Co1 O7 2.058 . S
Co1 O17 2.057 . S
Co1 O32 2.037 . S
Co1 N36 2.145 . S
Co1 N57 2.257 . S
O2 Co0 2.143 . S
O2 Co1 2.160 . S
C3 O4 1.278 . S
C3 O11 1.224 . S
O4 C3 1.278 . S
C5 O6 1.245 . S
C5 O17 1.232 . S
O6 C5 1.245 . S
O7 Co1 2.058 . S
O7 C33 1.269 . S
O8 Co0 2.074 . S
O8 C33 1.257 . S
H9 C34 0.930 . S
H10 C40 0.930 . S
O11 Co0 2.093 . S
O11 C3 1.224 . S
H12 C44 0.929 . S
H13 C46 0.930 . S
H14 C47 0.930 . S
H15 C45 0.929 . S
H16 C48 0.928 . S
O17 Co1 2.057 . S
O17 C5 1.232 . S
H18 C37 0.929 . S
H19 C38 0.929 . S
H20 C50 0.931 . S
H21 C42 0.929 . S
H22 C51 0.930 1_556 S
H23 C43 0.931 . S
O24 Co0 2.097 . S
O24 C52 1.214 . S
H25 C53 0.929 . S
H26 C54 0.929 . S
H27 C55 0.930 . S
H28 C56 0.929 . S
H29 C58 0.930 . S
H30 C35 0.930 . S
H31 C39 0.930 . S
O32 Co1 2.037 . S
O32 C52 1.234 . S
C33 O7 1.269 . S
C33 O8 1.257 . S
C34 H9 0.930 . S
C34 C37 1.388 . S
C34 C39 1.418 . S
C35 H30 0.930 . S
C35 C38 1.404 . S
C35 C39 1.353 . S
N36 Co1 2.145 . S
N36 C37 1.397 . S
N36 C38 1.334 . S
C37 H18 0.929 . S
C37 C34 1.388 . S
C37 N36 1.397 . S
C38 H19 0.929 . S
C38 C35 1.404 . S
C38 N36 1.334 . S
C39 H31 0.930 . S
C39 C34 1.418 . S
C39 C35 1.353 . S
C40 H10 0.930 . S
C40 N41 1.330 . S
C40 C42 1.446 . S
N41 Co0 2.151 . S
N41 C40 1.330 . S
N41 C45 1.418 . S
C42 H21 0.929 . S
C42 C40 1.446 . S
C42 C43 1.332 . S
C43 H23 0.931 . S
C43 C42 1.332 . S
C43 C44 1.267 . S
C44 H12 0.929 . S
C44 C43 1.267 . S
C44 C45 1.251 . S
C45 H15 0.929 . S
C45 N41 1.418 . S
C45 C44 1.251 . S
C46 H13 0.930 . S
C46 C48 1.406 1_556 S
C46 C51 1.261 1_556 S
C47 H14 0.930 . S
C47 N49 1.325 . S
C47 C50 1.357 . S
C48 H16 0.928 . S
C48 C46 1.406 1_554 S
C48 N49 1.261 . S
N49 Co0 2.214 . S
N49 C47 1.325 . S
N49 C48 1.261 . S
C50 H20 0.931 . S
C50 C47 1.357 . S
C50 C51 1.312 . S
C51 H22 0.930 1_554 S
C51 C46 1.261 1_554 S
C51 C50 1.312 . S
C52 O24 1.214 . S
C52 O32 1.234 . S
C53 H25 0.929 . S
C53 C56 1.391 . S
C53 C58 1.391 . S
C54 H26 0.929 . S
C54 C55 1.390 . S
C54 N57 1.391 . S
C55 H27 0.930 . S
C55 C54 1.390 . S
C55 C56 1.392 . S
C56 H28 0.929 . S
C56 C53 1.391 . S
C56 C55 1.392 . S
N57 Co1 2.257 . S
N57 C54 1.391 . S
N57 C58 1.388 . S
C58 H29 0.930 . S
C58 C53 1.391 . S
C58 N57 1.388 . S
Co59 O61 2.143 . S
Co59 O67 2.074 . S
Co59 O70 2.093 . S
Co59 O83 2.097 . S
Co59 N100 2.151 . S
Co59 N108 2.214 . S
Co60 O61 2.160 . S
Co60 O66 2.058 . S
Co60 O76 2.057 . S
Co60 O91 2.037 . S
Co60 N95 2.145 . S
Co60 N116 2.257 . S
O61 Co59 2.143 . S
O61 Co60 2.160 . S
C62 O63 1.278 . S
C62 O70 1.224 . S
O63 C62 1.278 . S
C64 O65 1.245 . S
C64 O76 1.232 . S
O65 C64 1.245 . S
O66 Co60 2.058 . S
O66 C92 1.269 . S
O67 Co59 2.074 . S
O67 C92 1.257 . S
H68 C93 0.930 . S
H69 C99 0.930 . S
O70 Co59 2.093 . S
O70 C62 1.224 . S
H71 C103 0.929 . S
H72 C105 0.930 . S
H73 C106 0.930 . S
H74 C104 0.929 . S
H75 C107 0.928 . S
O76 Co60 2.057 . S
O76 C64 1.232 . S
H77 C96 0.929 . S
H78 C97 0.929 . S
H79 C109 0.931 . S
H80 C101 0.929 . S
H81 C110 0.930 . S
H82 C102 0.931 . S
O83 Co59 2.097 . S
O83 C111 1.214 . S
H84 C112 0.929 . S
H85 C113 0.929 . S
H86 C114 0.930 . S
H87 C115 0.929 . S
H88 C117 0.930 . S
H89 C94 0.930 . S
H90 C98 0.930 . S
O91 Co60 2.037 . S
O91 C111 1.234 . S
C92 O66 1.269 . S
C92 O67 1.257 . S
C93 H68 0.930 . S
C93 C96 1.388 . S
C93 C98 1.418 . S
C94 H89 0.930 . S
C94 C97 1.404 . S
C94 C98 1.353 . S
N95 Co60 2.145 . S
N95 C96 1.397 . S
N95 C97 1.334 . S
C96 H77 0.929 . S
C96 C93 1.388 . S
C96 N95 1.397 . S
C97 H78 0.929 . S
C97 C94 1.404 . S
C97 N95 1.334 . S
C98 H90 0.930 . S
C98 C93 1.418 . S
C98 C94 1.353 . S
C99 H69 0.930 . S
C99 N100 1.330 . S
C99 C101 1.446 . S
N100 Co59 2.151 . S
N100 C99 1.330 . S
N100 C104 1.418 . S
C101 H80 0.929 . S
C101 C99 1.446 . S
C101 C102 1.332 . S
C102 H82 0.931 . S
C102 C101 1.332 . S
C102 C103 1.267 . S
C103 H71 0.929 . S
C103 C102 1.267 . S
C103 C104 1.251 . S
C104 H74 0.929 . S
C104 N100 1.418 . S
C104 C103 1.251 . S
C105 H72 0.930 . S
C105 C107 1.406 . S
C105 C110 1.261 . S
C106 H73 0.930 . S
C106 N108 1.325 . S
C106 C109 1.357 . S
C107 H75 0.928 . S
C107 C105 1.406 . S
C107 N108 1.261 . S
N108 Co59 2.214 . S
N108 C106 1.325 . S
N108 C107 1.261 . S
C109 H79 0.931 . S
C109 C106 1.357 . S
C109 C110 1.312 . S
C110 H81 0.930 . S
C110 C105 1.261 . S
C110 C109 1.312 . S
C111 O83 1.214 . S
C111 O91 1.234 . S
C112 H84 0.929 . S
C112 C115 1.391 . S
C112 C117 1.391 . S
C113 H85 0.929 . S
C113 C114 1.390 . S
C113 N116 1.391 . S
C114 H86 0.930 . S
C114 C113 1.390 . S
C114 C115 1.392 . S
C115 H87 0.929 . S
C115 C112 1.391 . S
C115 C114 1.392 . S
N116 Co60 2.257 . S
N116 C113 1.391 . S
N116 C117 1.388 . S
C117 H88 0.930 . S
C117 C112 1.391 . S
C117 N116 1.388 . S
Co118 O120 2.143 . S
Co118 O126 2.074 . S
Co118 O129 2.093 . S
Co118 O142 2.097 . S
Co118 N159 2.151 . S
Co118 N167 2.214 . S
Co119 O120 2.160 . S
Co119 O125 2.058 . S
Co119 O135 2.057 . S
Co119 O150 2.037 . S
Co119 N154 2.145 . S
Co119 N175 2.257 . S
O120 Co118 2.143 . S
O120 Co119 2.160 . S
C121 O122 1.278 . S
C121 O129 1.224 . S
O122 C121 1.278 . S
C123 O124 1.245 . S
C123 O135 1.232 . S
O124 C123 1.245 . S
O125 Co119 2.058 . S
O125 C151 1.269 . S
O126 Co118 2.074 . S
O126 C151 1.257 . S
H127 C152 0.930 . S
H128 C158 0.930 . S
O129 Co118 2.093 . S
O129 C121 1.224 . S
H130 C162 0.929 . S
H131 C164 0.930 . S
H132 C165 0.930 . S
H133 C163 0.929 . S
H134 C166 0.928 . S
O135 Co119 2.057 . S
O135 C123 1.232 . S
H136 C155 0.929 . S
H137 C156 0.929 . S
H138 C168 0.931 . S
H139 C160 0.929 . S
H140 C169 0.930 . S
H141 C161 0.931 . S
O142 Co118 2.097 . S
O142 C170 1.214 . S
H143 C171 0.929 . S
H144 C172 0.929 . S
H145 C173 0.930 . S
H146 C174 0.929 . S
H147 C176 0.930 . S
H148 C153 0.930 . S
H149 C157 0.930 . S
O150 Co119 2.037 . S
O150 C170 1.234 . S
C151 O125 1.269 . S
C151 O126 1.257 . S
C152 H127 0.930 . S
C152 C155 1.388 . S
C152 C157 1.418 . S
C153 H148 0.930 . S
C153 C156 1.404 . S
C153 C157 1.353 . S
N154 Co119 2.145 . S
N154 C155 1.397 . S
N154 C156 1.334 . S
C155 H136 0.929 . S
C155 C152 1.388 . S
C155 N154 1.397 . S
C156 H137 0.929 . S
C156 C153 1.404 . S
C156 N154 1.334 . S
C157 H149 0.930 . S
C157 C152 1.418 . S
C157 C153 1.353 . S
C158 H128 0.930 . S
C158 N159 1.330 . S
C158 C160 1.446 . S
N159 Co118 2.151 . S
N159 C158 1.330 . S
N159 C163 1.418 . S
C160 H139 0.929 . S
C160 C158 1.446 . S
C160 C161 1.332 . S
C161 H141 0.931 . S
C161 C160 1.332 . S
C161 C162 1.267 . S
C162 H130 0.929 . S
C162 C161 1.267 . S
C162 C163 1.251 . S
C163 H133 0.929 . S
C163 N159 1.418 . S
C163 C162 1.251 . S
C164 H131 0.930 . S
C164 C166 1.406 . S
C164 C169 1.261 . S
C165 H132 0.930 . S
C165 N167 1.325 . S
C165 C168 1.357 . S
C166 H134 0.928 . S
C166 C164 1.406 . S
C166 N167 1.261 . S
N167 Co118 2.214 . S
N167 C165 1.325 . S
N167 C166 1.261 . S
C168 H138 0.931 . S
C168 C165 1.357 . S
C168 C169 1.312 . S
C169 H140 0.930 . S
C169 C164 1.261 . S
C169 C168 1.312 . S
C170 O142 1.214 . S
C170 O150 1.234 . S
C171 H143 0.929 . S
C171 C174 1.391 . S
C171 C176 1.391 . S
C172 H144 0.929 . S
C172 C173 1.390 . S
C172 N175 1.391 . S
C173 H145 0.930 . S
C173 C172 1.390 . S
C173 C174 1.392 . S
C174 H146 0.929 . S
C174 C171 1.391 . S
C174 C173 1.392 . S
N175 Co119 2.257 . S
N175 C172 1.391 . S
N175 C176 1.388 . S
C176 H147 0.930 . S
C176 C171 1.391 . S
C176 N175 1.388 . S
Co177 O179 2.143 . S
Co177 O185 2.074 . S
Co177 O188 2.093 . S
Co177 O201 2.097 . S
Co177 N218 2.151 . S
Co177 N226 2.214 . S
Co178 O179 2.160 . S
Co178 O184 2.058 . S
Co178 O194 2.057 . S
Co178 O209 2.037 . S
Co178 N213 2.145 . S
Co178 N234 2.257 . S
O179 Co177 2.143 . S
O179 Co178 2.160 . S
C180 O181 1.278 . S
C180 O188 1.224 . S
O181 C180 1.278 . S
C182 O183 1.245 . S
C182 O194 1.232 . S
O183 C182 1.245 . S
O184 Co178 2.058 . S
O184 C210 1.269 . S
O185 Co177 2.074 . S
O185 C210 1.257 . S
H186 C211 0.930 . S
H187 C217 0.930 . S
O188 Co177 2.093 . S
O188 C180 1.224 . S
H189 C221 0.929 . S
H190 C223 0.930 . S
H191 C224 0.930 . S
H192 C222 0.929 . S
H193 C225 0.928 . S
O194 Co178 2.057 . S
O194 C182 1.232 . S
H195 C214 0.929 . S
H196 C215 0.929 . S
H197 C227 0.931 . S
H198 C219 0.929 . S
H199 C228 0.930 . S
H200 C220 0.931 . S
O201 Co177 2.097 . S
O201 C229 1.214 . S
H202 C230 0.929 . S
H203 C231 0.929 . S
H204 C232 0.930 . S
H205 C233 0.929 . S
H206 C235 0.930 . S
H207 C212 0.930 . S
H208 C216 0.930 . S
O209 Co178 2.037 . S
O209 C229 1.234 . S
C210 O184 1.269 . S
C210 O185 1.257 . S
C211 H186 0.930 . S
C211 C214 1.388 . S
C211 C216 1.418 1_556 S
C212 H207 0.930 . S
C212 C215 1.404 1_554 S
C212 C216 1.353 . S
N213 Co178 2.145 . S
N213 C214 1.397 . S
N213 C215 1.334 . S
C214 H195 0.929 . S
C214 C211 1.388 . S
C214 N213 1.397 . S
C215 H196 0.929 . S
C215 C212 1.404 1_556 S
C215 N213 1.334 . S
C216 H208 0.930 . S
C216 C211 1.418 1_554 S
C216 C212 1.353 . S
C217 H187 0.930 . S
C217 N218 1.330 . S
C217 C219 1.446 . S
N218 Co177 2.151 . S
N218 C217 1.330 . S
N218 C222 1.418 . S
C219 H198 0.929 . S
C219 C217 1.446 . S
C219 C220 1.332 . S
C220 H200 0.931 . S
C220 C219 1.332 . S
C220 C221 1.267 . S
C221 H189 0.929 . S
C221 C220 1.267 . S
C221 C222 1.251 . S
C222 H192 0.929 . S
C222 N218 1.418 . S
C222 C221 1.251 . S
C223 H190 0.930 . S
C223 C225 1.406 . S
C223 C228 1.261 . S
C224 H191 0.930 . S
C224 N226 1.325 . S
C224 C227 1.357 . S
C225 H193 0.928 . S
C225 C223 1.406 . S
C225 N226 1.261 . S
N226 Co177 2.214 . S
N226 C224 1.325 . S
N226 C225 1.261 . S
C227 H197 0.931 . S
C227 C224 1.357 . S
C227 C228 1.312 . S
C228 H199 0.930 . S
C228 C223 1.261 . S
C228 C227 1.312 . S
C229 O201 1.214 . S
C229 O209 1.234 . S
C230 H202 0.929 . S
C230 C233 1.391 . S
C230 C235 1.391 . S
C231 H203 0.929 . S
C231 C232 1.390 . S
C231 N234 1.391 . S
C232 H204 0.930 . S
C232 C231 1.390 . S
C232 C233 1.392 . S
C233 H205 0.929 . S
C233 C230 1.391 . S
C233 C232 1.392 . S
N234 Co178 2.257 . S
N234 C231 1.391 . S
N234 C235 1.388 . S
C235 H206 0.930 . S
C235 C230 1.391 . S
C235 N234 1.388 . S
Co236 O238 2.143 . S
Co236 O244 2.074 . S
Co236 O247 2.093 . S
Co236 O260 2.097 . S
Co236 N277 2.151 . S
Co236 N285 2.214 . S
Co237 O238 2.160 . S
Co237 O243 2.058 . S
Co237 O253 2.057 . S
Co237 O268 2.037 . S
Co237 N272 2.145 . S
Co237 N293 2.257 . S
O238 Co236 2.143 . S
O238 Co237 2.160 . S
C239 O240 1.278 . S
C239 O247 1.224 . S
O240 C239 1.278 . S
C241 O242 1.245 . S
C241 O253 1.232 . S
O242 C241 1.245 . S
O243 Co237 2.058 . S
O243 C269 1.269 . S
O244 Co236 2.074 . S
O244 C269 1.257 . S
H245 C270 0.930 . S
H246 C276 0.930 . S
O247 Co236 2.093 . S
O247 C239 1.224 . S
H248 C280 0.929 . S
H249 C282 0.930 . S
H250 C283 0.930 . S
H251 C281 0.929 . S
H252 C284 0.928 . S
O253 Co237 2.057 . S
O253 C241 1.232 . S
H254 C273 0.929 . S
H255 C274 0.929 . S
H256 C286 0.931 . S
H257 C278 0.929 . S
H258 C287 0.930 1_554 S
H259 C279 0.931 . S
O260 Co236 2.097 . S
O260 C288 1.214 . S
H261 C289 0.929 . S
H262 C290 0.929 . S
H263 C291 0.930 . S
H264 C292 0.929 . S
H265 C294 0.930 . S
H266 C271 0.930 . S
H267 C275 0.930 . S
O268 Co237 2.037 . S
O268 C288 1.234 . S
C269 O243 1.269 . S
C269 O244 1.257 . S
C270 H245 0.930 . S
C270 C273 1.388 . S
C270 C275 1.418 . S
C271 H266 0.930 . S
C271 C274 1.404 . S
C271 C275 1.353 . S
N272 Co237 2.145 . S
N272 C273 1.397 . S
N272 C274 1.334 . S
C273 H254 0.929 . S
C273 C270 1.388 . S
C273 N272 1.397 . S
C274 H255 0.929 . S
C274 C271 1.404 . S
C274 N272 1.334 . S
C275 H267 0.930 . S
C275 C270 1.418 . S
C275 C271 1.353 . S
C276 H246 0.930 . S
C276 N277 1.330 . S
C276 C278 1.446 . S
N277 Co236 2.151 . S
N277 C276 1.330 . S
N277 C281 1.418 . S
C278 H257 0.929 . S
C278 C276 1.446 . S
C278 C279 1.332 . S
C279 H259 0.931 . S
C279 C278 1.332 . S
C279 C280 1.267 . S
C280 H248 0.929 . S
C280 C279 1.267 . S
C280 C281 1.251 . S
C281 H251 0.929 . S
C281 N277 1.418 . S
C281 C280 1.251 . S
C282 H249 0.930 . S
C282 C284 1.406 1_554 S
C282 C287 1.261 1_554 S
C283 H250 0.930 . S
C283 N285 1.325 . S
C283 C286 1.357 . S
C284 H252 0.928 . S
C284 C282 1.406 1_556 S
C284 N285 1.261 . S
N285 Co236 2.214 . S
N285 C283 1.325 . S
N285 C284 1.261 . S
C286 H256 0.931 . S
C286 C283 1.357 . S
C286 C287 1.312 . S
C287 H258 0.930 1_556 S
C287 C282 1.261 1_556 S
C287 C286 1.312 . S
C288 O260 1.214 . S
C288 O268 1.234 . S
C289 H261 0.929 . S
C289 C292 1.391 . S
C289 C294 1.391 . S
C290 H262 0.929 . S
C290 C291 1.390 . S
C290 N293 1.391 . S
C291 H263 0.930 . S
C291 C290 1.390 . S
C291 C292 1.392 . S
C292 H264 0.929 . S
C292 C289 1.391 . S
C292 C291 1.392 . S
N293 Co237 2.257 . S
N293 C290 1.391 . S
N293 C294 1.388 . S
C294 H265 0.930 . S
C294 C289 1.391 . S
C294 N293 1.388 . S
Co295 O297 2.143 . S
Co295 O303 2.074 . S
Co295 O306 2.093 . S
Co295 O319 2.097 . S
Co295 N336 2.151 . S
Co295 N344 2.214 . S
Co296 O297 2.160 . S
Co296 O302 2.058 . S
Co296 O312 2.057 . S
Co296 O327 2.037 . S
Co296 N331 2.145 . S
Co296 N352 2.257 . S
O297 Co295 2.143 . S
O297 Co296 2.160 . S
C298 O299 1.278 . S
C298 O306 1.224 . S
O299 C298 1.278 . S
C300 O301 1.245 . S
C300 O312 1.232 . S
O301 C300 1.245 . S
O302 Co296 2.058 . S
O302 C328 1.269 . S
O303 Co295 2.074 . S
O303 C328 1.257 . S
H304 C329 0.930 . S
H305 C335 0.930 . S
O306 Co295 2.093 . S
O306 C298 1.224 . S
H307 C339 0.929 . S
H308 C341 0.930 . S
H309 C342 0.930 . S
H310 C340 0.929 . S
H311 C343 0.928 . S
O312 Co296 2.057 . S
O312 C300 1.232 . S
H313 C332 0.929 . S
H314 C333 0.929 . S
H315 C345 0.931 . S
H316 C337 0.929 . S
H317 C346 0.930 1_556 S
H318 C338 0.931 . S
O319 Co295 2.097 . S
O319 C347 1.214 . S
H320 C348 0.929 . S
H321 C349 0.929 . S
H322 C350 0.930 . S
H323 C351 0.929 . S
H324 C353 0.930 . S
H325 C330 0.930 . S
H326 C334 0.930 . S
O327 Co296 2.037 . S
O327 C347 1.234 . S
C328 O302 1.269 . S
C328 O303 1.257 . S
C329 H304 0.930 . S
C329 C332 1.388 . S
C329 C334 1.418 . S
C330 H325 0.930 . S
C330 C333 1.404 . S
C330 C334 1.353 . S
N331 Co296 2.145 . S
N331 C332 1.397 . S
N331 C333 1.334 . S
C332 H313 0.929 . S
C332 C329 1.388 . S
C332 N331 1.397 . S
C333 H314 0.929 . S
C333 C330 1.404 . S
C333 N331 1.334 . S
C334 H326 0.930 . S
C334 C329 1.418 . S
C334 C330 1.353 . S
C335 H305 0.930 . S
C335 N336 1.330 . S
C335 C337 1.446 . S
N336 Co295 2.151 . S
N336 C335 1.330 . S
N336 C340 1.418 . S
C337 H316 0.929 . S
C337 C335 1.446 . S
C337 C338 1.332 . S
C338 H318 0.931 . S
C338 C337 1.332 . S
C338 C339 1.267 . S
C339 H307 0.929 . S
C339 C338 1.267 . S
C339 C340 1.251 . S
C340 H310 0.929 . S
C340 N336 1.418 . S
C340 C339 1.251 . S
C341 H308 0.930 . S
C341 C343 1.406 1_556 S
C341 C346 1.261 1_556 S
C342 H309 0.930 . S
C342 N344 1.325 . S
C342 C345 1.357 . S
C343 H311 0.928 . S
C343 C341 1.406 1_554 S
C343 N344 1.261 . S
N344 Co295 2.214 . S
N344 C342 1.325 . S
N344 C343 1.261 . S
C345 H315 0.931 . S
C345 C342 1.357 . S
C345 C346 1.312 . S
C346 H317 0.930 1_554 S
C346 C341 1.261 1_554 S
C346 C345 1.312 . S
C347 O319 1.214 . S
C347 O327 1.234 . S
C348 H320 0.929 . S
C348 C351 1.391 . S
C348 C353 1.391 . S
C349 H321 0.929 . S
C349 C350 1.390 . S
C349 N352 1.391 . S
C350 H322 0.930 . S
C350 C349 1.390 . S
C350 C351 1.392 . S
C351 H323 0.929 . S
C351 C348 1.391 . S
C351 C350 1.392 . S
N352 Co296 2.257 . S
N352 C349 1.391 . S
N352 C353 1.388 . S
C353 H324 0.930 . S
C353 C348 1.391 . S
C353 N352 1.388 . S
Co354 O356 2.143 . S
Co354 O362 2.074 . S
Co354 O365 2.093 . S
Co354 O378 2.097 . S
Co354 N395 2.151 . S
Co354 N403 2.214 . S
Co355 O356 2.160 . S
Co355 O361 2.058 . S
Co355 O371 2.057 . S
Co355 O386 2.037 . S
Co355 N390 2.145 . S
Co355 N411 2.257 . S
O356 Co354 2.143 . S
O356 Co355 2.160 . S
C357 O358 1.278 . S
C357 O365 1.224 . S
O358 C357 1.278 . S
C359 O360 1.245 . S
C359 O371 1.232 . S
O360 C359 1.245 . S
O361 Co355 2.058 . S
O361 C387 1.269 . S
O362 Co354 2.074 . S
O362 C387 1.257 . S
H363 C388 0.930 . S
H364 C394 0.930 . S
O365 Co354 2.093 . S
O365 C357 1.224 . S
H366 C398 0.929 . S
H367 C400 0.930 . S
H368 C401 0.930 . S
H369 C399 0.929 . S
H370 C402 0.928 . S
O371 Co355 2.057 . S
O371 C359 1.232 . S
H372 C391 0.929 . S
H373 C392 0.929 . S
H374 C404 0.931 . S
H375 C396 0.929 . S
H376 C405 0.930 . S
H377 C397 0.931 . S
O378 Co354 2.097 . S
O378 C406 1.214 . S
H379 C407 0.929 . S
H380 C408 0.929 . S
H381 C409 0.930 . S
H382 C410 0.929 . S
H383 C412 0.930 . S
H384 C389 0.930 . S
H385 C393 0.930 . S
O386 Co355 2.037 . S
O386 C406 1.234 . S
C387 O361 1.269 . S
C387 O362 1.257 . S
C388 H363 0.930 . S
C388 C391 1.388 . S
C388 C393 1.418 . S
C389 H384 0.930 . S
C389 C392 1.404 . S
C389 C393 1.353 . S
N390 Co355 2.145 . S
N390 C391 1.397 . S
N390 C392 1.334 . S
C391 H372 0.929 . S
C391 C388 1.388 . S
C391 N390 1.397 . S
C392 H373 0.929 . S
C392 C389 1.404 . S
C392 N390 1.334 . S
C393 H385 0.930 . S
C393 C388 1.418 . S
C393 C389 1.353 . S
C394 H364 0.930 . S
C394 N395 1.330 . S
C394 C396 1.446 . S
N395 Co354 2.151 . S
N395 C394 1.330 . S
N395 C399 1.418 . S
C396 H375 0.929 . S
C396 C394 1.446 . S
C396 C397 1.332 . S
C397 H377 0.931 . S
C397 C396 1.332 . S
C397 C398 1.267 . S
C398 H366 0.929 . S
C398 C397 1.267 . S
C398 C399 1.251 . S
C399 H369 0.929 . S
C399 N395 1.418 . S
C399 C398 1.251 . S
C400 H367 0.930 . S
C400 C402 1.406 . S
C400 C405 1.261 . S
C401 H368 0.930 . S
C401 N403 1.325 . S
C401 C404 1.357 . S
C402 H370 0.928 . S
C402 C400 1.406 . S
C402 N403 1.261 . S
N403 Co354 2.214 . S
N403 C401 1.325 . S
N403 C402 1.261 . S
C404 H374 0.931 . S
C404 C401 1.357 . S
C404 C405 1.312 . S
C405 H376 0.930 . S
C405 C400 1.261 . S
C405 C404 1.312 . S
C406 O378 1.214 . S
C406 O386 1.234 . S
C407 H379 0.929 . S
C407 C410 1.391 . S
C407 C412 1.391 . S
C408 H380 0.929 . S
C408 C409 1.390 . S
C408 N411 1.391 . S
C409 H381 0.930 . S
C409 C408 1.390 . S
C409 C410 1.392 . S
C410 H382 0.929 . S
C410 C407 1.391 . S
C410 C409 1.392 . S
N411 Co355 2.257 . S
N411 C408 1.391 . S
N411 C412 1.388 . S
C412 H383 0.930 . S
C412 C407 1.391 . S
C412 N411 1.388 . S
Co413 O415 2.143 . S
Co413 O421 2.074 . S
Co413 O424 2.093 . S
Co413 O437 2.097 . S
Co413 N454 2.151 . S
Co413 N462 2.214 . S
Co414 O415 2.160 . S
Co414 O420 2.058 . S
Co414 O430 2.057 . S
Co414 O445 2.037 . S
Co414 N449 2.145 . S
Co414 N470 2.257 . S
O415 Co413 2.143 . S
O415 Co414 2.160 . S
C416 O417 1.278 . S
C416 O424 1.224 . S
O417 C416 1.278 . S
C418 O419 1.245 . S
C418 O430 1.232 . S
O419 C418 1.245 . S
O420 Co414 2.058 . S
O420 C446 1.269 . S
O421 Co413 2.074 . S
O421 C446 1.257 . S
H422 C447 0.930 . S
H423 C453 0.930 . S
O424 Co413 2.093 . S
O424 C416 1.224 . S
H425 C457 0.929 . S
H426 C459 0.930 . S
H427 C460 0.930 . S
H428 C458 0.929 . S
H429 C461 0.928 . S
O430 Co414 2.057 . S
O430 C418 1.232 . S
H431 C450 0.929 . S
H432 C451 0.929 . S
H433 C463 0.931 . S
H434 C455 0.929 . S
H435 C464 0.930 . S
H436 C456 0.931 . S
O437 Co413 2.097 . S
O437 C465 1.214 . S
H438 C466 0.929 . S
H439 C467 0.929 . S
H440 C468 0.930 . S
H441 C469 0.929 . S
H442 C471 0.930 . S
H443 C448 0.930 . S
H444 C452 0.930 . S
O445 Co414 2.037 . S
O445 C465 1.234 . S
C446 O420 1.269 . S
C446 O421 1.257 . S
C447 H422 0.930 . S
C447 C450 1.388 . S
C447 C452 1.418 . S
C448 H443 0.930 . S
C448 C451 1.404 . S
C448 C452 1.353 . S
N449 Co414 2.145 . S
N449 C450 1.397 . S
N449 C451 1.334 . S
C450 H431 0.929 . S
C450 C447 1.388 . S
C450 N449 1.397 . S
C451 H432 0.929 . S
C451 C448 1.404 . S
C451 N449 1.334 . S
C452 H444 0.930 . S
C452 C447 1.418 . S
C452 C448 1.353 . S
C453 H423 0.930 . S
C453 N454 1.330 . S
C453 C455 1.446 . S
N454 Co413 2.151 . S
N454 C453 1.330 . S
N454 C458 1.418 . S
C455 H434 0.929 . S
C455 C453 1.446 . S
C455 C456 1.332 . S
C456 H436 0.931 . S
C456 C455 1.332 . S
C456 C457 1.267 . S
C457 H425 0.929 . S
C457 C456 1.267 . S
C457 C458 1.251 . S
C458 H428 0.929 . S
C458 N454 1.418 . S
C458 C457 1.251 . S
C459 H426 0.930 . S
C459 C461 1.406 . S
C459 C464 1.261 . S
C460 H427 0.930 . S
C460 N462 1.325 . S
C460 C463 1.357 . S
C461 H429 0.928 . S
C461 C459 1.406 . S
C461 N462 1.261 . S
N462 Co413 2.214 . S
N462 C460 1.325 . S
N462 C461 1.261 . S
C463 H433 0.931 . S
C463 C460 1.357 . S
C463 C464 1.312 . S
C464 H435 0.930 . S
C464 C459 1.261 . S
C464 C463 1.312 . S
C465 O437 1.214 . S
C465 O445 1.234 . S
C466 H438 0.929 . S
C466 C469 1.391 . S
C466 C471 1.391 . S
C467 H439 0.929 . S
C467 C468 1.390 . S
C467 N470 1.391 . S
C468 H440 0.930 . S
C468 C467 1.390 . S
C468 C469 1.392 . S
C469 H441 0.929 . S
C469 C466 1.391 . S
C469 C468 1.392 . S
N470 Co414 2.257 . S
N470 C467 1.391 . S
N470 C471 1.388 . S
C471 H442 0.930 . S
C471 C466 1.391 . S
C471 N470 1.388 . S
Co472 O474 2.143 . S
Co472 O480 2.074 . S
Co472 O483 2.093 . S
Co472 O496 2.097 . S
Co472 N513 2.151 . S
Co472 N521 2.214 . S
Co473 O474 2.160 . S
Co473 O479 2.058 . S
Co473 O489 2.057 . S
Co473 O504 2.037 . S
Co473 N508 2.145 . S
Co473 N529 2.257 . S
O474 Co472 2.143 . S
O474 Co473 2.160 . S
C475 O476 1.278 . S
C475 O483 1.224 . S
O476 C475 1.278 . S
C477 O478 1.245 . S
C477 O489 1.232 . S
O478 C477 1.245 . S
O479 Co473 2.058 . S
O479 C505 1.269 . S
O480 Co472 2.074 . S
O480 C505 1.257 . S
H481 C506 0.930 . S
H482 C512 0.930 . S
O483 Co472 2.093 . S
O483 C475 1.224 . S
H484 C516 0.929 . S
H485 C518 0.930 . S
H486 C519 0.930 . S
H487 C517 0.929 . S
H488 C520 0.928 . S
O489 Co473 2.057 . S
O489 C477 1.232 . S
H490 C509 0.929 . S
H491 C510 0.929 . S
H492 C522 0.931 . S
H493 C514 0.929 . S
H494 C523 0.930 1_554 S
H495 C515 0.931 . S
O496 Co472 2.097 . S
O496 C524 1.214 . S
H497 C525 0.929 . S
H498 C526 0.929 . S
H499 C527 0.930 . S
H500 C528 0.929 . S
H501 C530 0.930 . S
H502 C507 0.930 . S
H503 C511 0.930 . S
O504 Co473 2.037 . S
O504 C524 1.234 . S
C505 O479 1.269 . S
C505 O480 1.257 . S
C506 H481 0.930 . S
C506 C509 1.388 . S
C506 C511 1.418 . S
C507 H502 0.930 . S
C507 C510 1.404 . S
C507 C511 1.353 . S
N508 Co473 2.145 . S
N508 C509 1.397 . S
N508 C510 1.334 . S
C509 H490 0.929 . S
C509 C506 1.388 . S
C509 N508 1.397 . S
C510 H491 0.929 . S
C510 C507 1.404 . S
C510 N508 1.334 . S
C511 H503 0.930 . S
C511 C506 1.418 . S
C511 C507 1.353 . S
C512 H482 0.930 . S
C512 N513 1.330 . S
C512 C514 1.446 . S
N513 Co472 2.151 . S
N513 C512 1.330 . S
N513 C517 1.418 . S
C514 H493 0.929 . S
C514 C512 1.446 . S
C514 C515 1.332 . S
C515 H495 0.931 . S
C515 C514 1.332 . S
C515 C516 1.267 . S
C516 H484 0.929 . S
C516 C515 1.267 . S
C516 C517 1.251 . S
C517 H487 0.929 . S
C517 N513 1.418 . S
C517 C516 1.251 . S
C518 H485 0.930 . S
C518 C520 1.406 1_554 S
C518 C523 1.261 1_554 S
C519 H486 0.930 . S
C519 N521 1.325 . S
C519 C522 1.357 . S
C520 H488 0.928 . S
C520 C518 1.406 1_556 S
C520 N521 1.261 . S
N521 Co472 2.214 . S
N521 C519 1.325 . S
N521 C520 1.261 . S
C522 H492 0.931 . S
C522 C519 1.357 . S
C522 C523 1.312 . S
C523 H494 0.930 1_556 S
C523 C518 1.261 1_556 S
C523 C522 1.312 . S
C524 O496 1.214 . S
C524 O504 1.234 . S
C525 H497 0.929 . S
C525 C528 1.391 . S
C525 C530 1.391 . S
C526 H498 0.929 . S
C526 C527 1.390 . S
C526 N529 1.391 . S
C527 H499 0.930 . S
C527 C526 1.390 . S
C527 C528 1.392 . S
C528 H500 0.929 . S
C528 C525 1.391 . S
C528 C527 1.392 . S
N529 Co473 2.257 . S
N529 C526 1.391 . S
N529 C530 1.388 . S
C530 H501 0.930 . S
C530 C525 1.391 . S
C530 N529 1.388 . S
Co531 O533 2.143 . S
Co531 O539 2.074 . S
Co531 O542 2.093 . S
Co531 O555 2.097 . S
Co531 N572 2.151 . S
Co531 N580 2.214 . S
Co532 O533 2.160 . S
Co532 O538 2.058 . S
Co532 O548 2.057 . S
Co532 O563 2.037 . S
Co532 N567 2.145 . S
Co532 N588 2.257 . S
O533 Co531 2.143 . S
O533 Co532 2.160 . S
C534 O535 1.278 . S
C534 O542 1.224 . S
O535 C534 1.278 . S
C536 O537 1.245 . S
C536 O548 1.232 . S
O537 C536 1.245 . S
O538 Co532 2.058 . S
O538 C564 1.269 . S
O539 Co531 2.074 . S
O539 C564 1.257 . S
H540 C565 0.930 . S
H541 C571 0.930 . S
O542 Co531 2.093 . S
O542 C534 1.224 . S
H543 C575 0.929 . S
H544 C577 0.930 . S
H545 C578 0.930 . S
H546 C576 0.929 . S
H547 C579 0.928 . S
O548 Co532 2.057 . S
O548 C536 1.232 . S
H549 C568 0.929 . S
H550 C569 0.929 . S
H551 C581 0.931 . S
H552 C573 0.929 . S
H553 C582 0.930 . S
H554 C574 0.931 . S
O555 Co531 2.097 . S
O555 C583 1.214 . S
H556 C584 0.929 . S
H557 C585 0.929 . S
H558 C586 0.930 . S
H559 C587 0.929 . S
H560 C589 0.930 . S
H561 C566 0.930 . S
H562 C570 0.930 . S
O563 Co532 2.037 . S
O563 C583 1.234 . S
C564 O538 1.269 . S
C564 O539 1.257 . S
C565 H540 0.930 . S
C565 C568 1.388 . S
C565 C570 1.418 . S
C566 H561 0.930 . S
C566 C569 1.404 . S
C566 C570 1.353 . S
N567 Co532 2.145 . S
N567 C568 1.397 . S
N567 C569 1.334 . S
C568 H549 0.929 . S
C568 C565 1.388 . S
C568 N567 1.397 . S
C569 H550 0.929 . S
C569 C566 1.404 . S
C569 N567 1.334 . S
C570 H562 0.930 . S
C570 C565 1.418 . S
C570 C566 1.353 . S
C571 H541 0.930 . S
C571 N572 1.330 . S
C571 C573 1.446 . S
N572 Co531 2.151 . S
N572 C571 1.330 . S
N572 C576 1.418 . S
C573 H552 0.929 . S
C573 C571 1.446 . S
C573 C574 1.332 . S
C574 H554 0.931 . S
C574 C573 1.332 . S
C574 C575 1.267 . S
C575 H543 0.929 . S
C575 C574 1.267 . S
C575 C576 1.251 . S
C576 H546 0.929 . S
C576 N572 1.418 . S
C576 C575 1.251 . S
C577 H544 0.930 . S
C577 C579 1.406 . S
C577 C582 1.261 . S
C578 H545 0.930 . S
C578 N580 1.325 . S
C578 C581 1.357 . S
C579 H547 0.928 . S
C579 C577 1.406 . S
C579 N580 1.261 . S
N580 Co531 2.214 . S
N580 C578 1.325 . S
N580 C579 1.261 . S
C581 H551 0.931 . S
C581 C578 1.357 . S
C581 C582 1.312 . S
C582 H553 0.930 . S
C582 C577 1.261 . S
C582 C581 1.312 . S
C583 O555 1.214 . S
C583 O563 1.234 . S
C584 H556 0.929 . S
C584 C587 1.391 . S
C584 C589 1.391 . S
C585 H557 0.929 . S
C585 C586 1.390 . S
C585 N588 1.391 . S
C586 H558 0.930 . S
C586 C585 1.390 . S
C586 C587 1.392 . S
C587 H559 0.929 . S
C587 C584 1.391 . S
C587 C586 1.392 . S
N588 Co532 2.257 . S
N588 C585 1.391 . S
N588 C589 1.388 . S
C589 H560 0.930 . S
C589 C584 1.391 . S
C589 N588 1.388 . S
Co590 O592 2.143 . S
Co590 O598 2.074 . S
Co590 O601 2.093 . S
Co590 O614 2.097 . S
Co590 N631 2.151 . S
Co590 N639 2.214 . S
Co591 O592 2.160 . S
Co591 O597 2.058 . S
Co591 O607 2.057 . S
Co591 O622 2.037 . S
Co591 N626 2.145 . S
Co591 N647 2.257 . S
O592 Co590 2.143 . S
O592 Co591 2.160 . S
C593 O594 1.278 . S
C593 O601 1.224 . S
O594 C593 1.278 . S
C595 O596 1.245 . S
C595 O607 1.232 . S
O596 C595 1.245 . S
O597 Co591 2.058 . S
O597 C623 1.269 . S
O598 Co590 2.074 . S
O598 C623 1.257 . S
H599 C624 0.930 . S
H600 C630 0.930 . S
O601 Co590 2.093 . S
O601 C593 1.224 . S
H602 C634 0.929 . S
H603 C636 0.930 . S
H604 C637 0.930 . S
H605 C635 0.929 . S
H606 C638 0.928 . S
O607 Co591 2.057 . S
O607 C595 1.232 . S
H608 C627 0.929 . S
H609 C628 0.929 . S
H610 C640 0.931 . S
H611 C632 0.929 . S
H612 C641 0.930 . S
H613 C633 0.931 . S
O614 Co590 2.097 . S
O614 C642 1.214 . S
H615 C643 0.929 . S
H616 C644 0.929 . S
H617 C645 0.930 . S
H618 C646 0.929 . S
H619 C648 0.930 . S
H620 C625 0.930 . S
H621 C629 0.930 . S
O622 Co591 2.037 . S
O622 C642 1.234 . S
C623 O597 1.269 . S
C623 O598 1.257 . S
C624 H599 0.930 . S
C624 C627 1.388 . S
C624 C629 1.418 . S
C625 H620 0.930 . S
C625 C628 1.404 . S
C625 C629 1.353 . S
N626 Co591 2.145 . S
N626 C627 1.397 . S
N626 C628 1.334 . S
C627 H608 0.929 . S
C627 C624 1.388 . S
C627 N626 1.397 . S
C628 H609 0.929 . S
C628 C625 1.404 . S
C628 N626 1.334 . S
C629 H621 0.930 . S
C629 C624 1.418 . S
C629 C625 1.353 . S
C630 H600 0.930 . S
C630 N631 1.330 . S
C630 C632 1.446 . S
N631 Co590 2.151 . S
N631 C630 1.330 . S
N631 C635 1.418 . S
C632 H611 0.929 . S
C632 C630 1.446 . S
C632 C633 1.332 . S
C633 H613 0.931 . S
C633 C632 1.332 . S
C633 C634 1.267 . S
C634 H602 0.929 . S
C634 C633 1.267 . S
C634 C635 1.251 . S
C635 H605 0.929 . S
C635 N631 1.418 . S
C635 C634 1.251 . S
C636 H603 0.930 . S
C636 C638 1.406 . S
C636 C641 1.261 . S
C637 H604 0.930 . S
C637 N639 1.325 . S
C637 C640 1.357 . S
C638 H606 0.928 . S
C638 C636 1.406 . S
C638 N639 1.261 . S
N639 Co590 2.214 . S
N639 C637 1.325 . S
N639 C638 1.261 . S
C640 H610 0.931 . S
C640 C637 1.357 . S
C640 C641 1.312 . S
C641 H612 0.930 . S
C641 C636 1.261 . S
C641 C640 1.312 . S
C642 O614 1.214 . S
C642 O622 1.234 . S
C643 H615 0.929 . S
C643 C646 1.391 . S
C643 C648 1.391 . S
C644 H616 0.929 . S
C644 C645 1.390 . S
C644 N647 1.391 . S
C645 H617 0.930 . S
C645 C644 1.390 . S
C645 C646 1.392 . S
C646 H618 0.929 . S
C646 C643 1.391 . S
C646 C645 1.392 . S
N647 Co591 2.257 . S
N647 C644 1.391 . S
N647 C648 1.388 . S
C648 H619 0.930 . S
C648 C643 1.391 . S
C648 N647 1.388 . S
Co649 O651 2.143 . S
Co649 O657 2.074 . S
Co649 O660 2.093 . S
Co649 O673 2.097 . S
Co649 N690 2.151 . S
Co649 N698 2.214 . S
Co650 O651 2.160 . S
Co650 O656 2.058 . S
Co650 O666 2.057 . S
Co650 O681 2.037 . S
Co650 N685 2.145 . S
Co650 N706 2.257 . S
O651 Co649 2.143 . S
O651 Co650 2.160 . S
C652 O653 1.278 . S
C652 O660 1.224 . S
O653 C652 1.278 . S
C654 O655 1.245 . S
C654 O666 1.232 . S
O655 C654 1.245 . S
O656 Co650 2.058 . S
O656 C682 1.269 . S
O657 Co649 2.074 . S
O657 C682 1.257 . S
H658 C683 0.930 . S
H659 C689 0.930 . S
O660 Co649 2.093 . S
O660 C652 1.224 . S
H661 C693 0.929 . S
H662 C695 0.930 . S
H663 C696 0.930 . S
H664 C694 0.929 . S
H665 C697 0.928 . S
O666 Co650 2.057 . S
O666 C654 1.232 . S
H667 C686 0.929 . S
H668 C687 0.929 . S
H669 C699 0.931 . S
H670 C691 0.929 . S
H671 C700 0.930 . S
H672 C692 0.931 . S
O673 Co649 2.097 . S
O673 C701 1.214 . S
H674 C702 0.929 . S
H675 C703 0.929 . S
H676 C704 0.930 . S
H677 C705 0.929 . S
H678 C707 0.930 . S
H679 C684 0.930 . S
H680 C688 0.930 . S
O681 Co650 2.037 . S
O681 C701 1.234 . S
C682 O656 1.269 . S
C682 O657 1.257 . S
C683 H658 0.930 . S
C683 C686 1.388 . S
C683 C688 1.418 1_554 S
C684 H679 0.930 . S
C684 C687 1.404 1_556 S
C684 C688 1.353 . S
N685 Co650 2.145 . S
N685 C686 1.397 . S
N685 C687 1.334 . S
C686 H667 0.929 . S
C686 C683 1.388 . S
C686 N685 1.397 . S
C687 H668 0.929 . S
C687 C684 1.404 1_554 S
C687 N685 1.334 . S
C688 H680 0.930 . S
C688 C683 1.418 1_556 S
C688 C684 1.353 . S
C689 H659 0.930 . S
C689 N690 1.330 . S
C689 C691 1.446 . S
N690 Co649 2.151 . S
N690 C689 1.330 . S
N690 C694 1.418 . S
C691 H670 0.929 . S
C691 C689 1.446 . S
C691 C692 1.332 . S
C692 H672 0.931 . S
C692 C691 1.332 . S
C692 C693 1.267 . S
C693 H661 0.929 . S
C693 C692 1.267 . S
C693 C694 1.251 . S
C694 H664 0.929 . S
C694 N690 1.418 . S
C694 C693 1.251 . S
C695 H662 0.930 . S
C695 C697 1.406 . S
C695 C700 1.261 . S
C696 H663 0.930 . S
C696 N698 1.325 . S
C696 C699 1.357 . S
C697 H665 0.928 . S
C697 C695 1.406 . S
C697 N698 1.261 . S
N698 Co649 2.214 . S
N698 C696 1.325 . S
N698 C697 1.261 . S
C699 H669 0.931 . S
C699 C696 1.357 . S
C699 C700 1.312 . S
C700 H671 0.930 . S
C700 C695 1.261 . S
C700 C699 1.312 . S
C701 O673 1.214 . S
C701 O681 1.234 . S
C702 H674 0.929 . S
C702 C705 1.391 . S
C702 C707 1.391 . S
C703 H675 0.929 . S
C703 C704 1.390 . S
C703 N706 1.391 . S
C704 H676 0.930 . S
C704 C703 1.390 . S
C704 C705 1.392 . S
C705 H677 0.929 . S
C705 C702 1.391 . S
C705 C704 1.392 . S
N706 Co650 2.257 . S
N706 C703 1.391 . S
N706 C707 1.388 . S
C707 H678 0.930 . S
C707 C702 1.391 . S
C707 N706 1.388 . S
Co708 O710 2.143 . S
Co708 O716 2.074 . S
Co708 O719 2.093 . S
Co708 O732 2.097 . S
Co708 N749 2.151 . S
Co708 N757 2.214 . S
Co709 O710 2.160 . S
Co709 O715 2.058 . S
Co709 O725 2.057 . S
Co709 O740 2.037 . S
Co709 N744 2.145 . S
Co709 N765 2.257 . S
O710 Co708 2.143 . S
O710 Co709 2.160 . S
C711 O712 1.278 . S
C711 O719 1.224 . S
O712 C711 1.278 . S
C713 O714 1.245 . S
C713 O725 1.232 . S
O714 C713 1.245 . S
O715 Co709 2.058 . S
O715 C741 1.269 . S
O716 Co708 2.074 . S
O716 C741 1.257 . S
H717 C742 0.930 . S
H718 C748 0.930 . S
O719 Co708 2.093 . S
O719 C711 1.224 . S
H720 C752 0.929 . S
H721 C754 0.930 . S
H722 C755 0.930 . S
H723 C753 0.929 . S
H724 C756 0.928 . S
O725 Co709 2.057 . S
O725 C713 1.232 . S
H726 C745 0.929 . S
H727 C746 0.929 . S
H728 C758 0.931 . S
H729 C750 0.929 . S
H730 C759 0.930 1_556 S
H731 C751 0.931 . S
O732 Co708 2.097 . S
O732 C760 1.214 . S
H733 C761 0.929 . S
H734 C762 0.929 . S
H735 C763 0.930 . S
H736 C764 0.929 . S
H737 C766 0.930 . S
H738 C743 0.930 . S
H739 C747 0.930 . S
O740 Co709 2.037 . S
O740 C760 1.234 . S
C741 O715 1.269 . S
C741 O716 1.257 . S
C742 H717 0.930 . S
C742 C745 1.388 . S
C742 C747 1.418 . S
C743 H738 0.930 . S
C743 C746 1.404 . S
C743 C747 1.353 . S
N744 Co709 2.145 . S
N744 C745 1.397 . S
N744 C746 1.334 . S
C745 H726 0.929 . S
C745 C742 1.388 . S
C745 N744 1.397 . S
C746 H727 0.929 . S
C746 C743 1.404 . S
C746 N744 1.334 . S
C747 H739 0.930 . S
C747 C742 1.418 . S
C747 C743 1.353 . S
C748 H718 0.930 . S
C748 N749 1.330 . S
C748 C750 1.446 . S
N749 Co708 2.151 . S
N749 C748 1.330 . S
N749 C753 1.418 . S
C750 H729 0.929 . S
C750 C748 1.446 . S
C750 C751 1.332 . S
C751 H731 0.931 . S
C751 C750 1.332 . S
C751 C752 1.267 . S
C752 H720 0.929 . S
C752 C751 1.267 . S
C752 C753 1.251 . S
C753 H723 0.929 . S
C753 N749 1.418 . S
C753 C752 1.251 . S
C754 H721 0.930 . S
C754 C756 1.406 1_556 S
C754 C759 1.261 1_556 S
C755 H722 0.930 . S
C755 N757 1.325 . S
C755 C758 1.357 . S
C756 H724 0.928 . S
C756 C754 1.406 1_554 S
C756 N757 1.261 . S
N757 Co708 2.214 . S
N757 C755 1.325 . S
N757 C756 1.261 . S
C758 H728 0.931 . S
C758 C755 1.357 . S
C758 C759 1.312 . S
C759 H730 0.930 1_554 S
C759 C754 1.261 1_554 S
C759 C758 1.312 . S
C760 O732 1.214 . S
C760 O740 1.234 . S
C761 H733 0.929 . S
C761 C764 1.391 . S
C761 C766 1.391 . S
C762 H734 0.929 . S
C762 C763 1.390 . S
C762 N765 1.391 . S
C763 H735 0.930 . S
C763 C762 1.390 . S
C763 C764 1.392 . S
C764 H736 0.929 . S
C764 C761 1.391 . S
C764 C763 1.392 . S
N765 Co709 2.257 . S
N765 C762 1.391 . S
N765 C766 1.388 . S
C766 H737 0.930 . S
C766 C761 1.391 . S
C766 N765 1.388 . S
Co767 O769 2.143 . S
Co767 O775 2.074 . S
Co767 O778 2.093 . S
Co767 O791 2.097 . S
Co767 N808 2.151 . S
Co767 N816 2.214 . S
Co768 O769 2.160 . S
Co768 O774 2.058 . S
Co768 O784 2.057 . S
Co768 O799 2.037 . S
Co768 N803 2.145 . S
Co768 N824 2.257 . S
O769 Co767 2.143 . S
O769 Co768 2.160 . S
C770 O771 1.278 . S
C770 O778 1.224 . S
O771 C770 1.278 . S
C772 O773 1.245 . S
C772 O784 1.232 . S
O773 C772 1.245 . S
O774 Co768 2.058 . S
O774 C800 1.269 . S
O775 Co767 2.074 . S
O775 C800 1.257 . S
H776 C801 0.930 . S
H777 C807 0.930 . S
O778 Co767 2.093 . S
O778 C770 1.224 . S
H779 C811 0.929 . S
H780 C813 0.930 . S
H781 C814 0.930 . S
H782 C812 0.929 . S
H783 C815 0.928 . S
O784 Co768 2.057 . S
O784 C772 1.232 . S
H785 C804 0.929 . S
H786 C805 0.929 . S
H787 C817 0.931 . S
H788 C809 0.929 . S
H789 C818 0.930 1_554 S
H790 C810 0.931 . S
O791 Co767 2.097 . S
O791 C819 1.214 . S
H792 C820 0.929 . S
H793 C821 0.929 . S
H794 C822 0.930 . S
H795 C823 0.929 . S
H796 C825 0.930 . S
H797 C802 0.930 . S
H798 C806 0.930 . S
O799 Co768 2.037 . S
O799 C819 1.234 . S
C800 O774 1.269 . S
C800 O775 1.257 . S
C801 H776 0.930 . S
C801 C804 1.388 . S
C801 C806 1.418 . S
C802 H797 0.930 . S
C802 C805 1.404 . S
C802 C806 1.353 . S
N803 Co768 2.145 . S
N803 C804 1.397 . S
N803 C805 1.334 . S
C804 H785 0.929 . S
C804 C801 1.388 . S
C804 N803 1.397 . S
C805 H786 0.929 . S
C805 C802 1.404 . S
C805 N803 1.334 . S
C806 H798 0.930 . S
C806 C801 1.418 . S
C806 C802 1.353 . S
C807 H777 0.930 . S
C807 N808 1.330 . S
C807 C809 1.446 . S
N808 Co767 2.151 . S
N808 C807 1.330 . S
N808 C812 1.418 . S
C809 H788 0.929 . S
C809 C807 1.446 . S
C809 C810 1.332 . S
C810 H790 0.931 . S
C810 C809 1.332 . S
C810 C811 1.267 . S
C811 H779 0.929 . S
C811 C810 1.267 . S
C811 C812 1.251 . S
C812 H782 0.929 . S
C812 N808 1.418 . S
C812 C811 1.251 . S
C813 H780 0.930 . S
C813 C815 1.406 1_554 S
C813 C818 1.261 1_554 S
C814 H781 0.930 . S
C814 N816 1.325 . S
C814 C817 1.357 . S
C815 H783 0.928 . S
C815 C813 1.406 1_556 S
C815 N816 1.261 . S
N816 Co767 2.214 . S
N816 C814 1.325 . S
N816 C815 1.261 . S
C817 H787 0.931 . S
C817 C814 1.357 . S
C817 C818 1.312 . S
C818 H789 0.930 1_556 S
C818 C813 1.261 1_556 S
C818 C817 1.312 . S
C819 O791 1.214 . S
C819 O799 1.234 . S
C820 H792 0.929 . S
C820 C823 1.391 . S
C820 C825 1.391 . S
C821 H793 0.929 . S
C821 C822 1.390 . S
C821 N824 1.391 . S
C822 H794 0.930 . S
C822 C821 1.390 . S
C822 C823 1.392 . S
C823 H795 0.929 . S
C823 C820 1.391 . S
C823 C822 1.392 . S
N824 Co768 2.257 . S
N824 C821 1.391 . S
N824 C825 1.388 . S
C825 H796 0.930 . S
C825 C820 1.391 . S
C825 N824 1.388 . S
Co826 O828 2.143 . S
Co826 O834 2.074 . S
Co826 O837 2.093 . S
Co826 O850 2.097 . S
Co826 N867 2.151 . S
Co826 N875 2.214 . S
Co827 O828 2.160 . S
Co827 O833 2.058 . S
Co827 O843 2.057 . S
Co827 O858 2.037 . S
Co827 N862 2.145 . S
Co827 N883 2.257 . S
O828 Co826 2.143 . S
O828 Co827 2.160 . S
C829 O830 1.278 . S
C829 O837 1.224 . S
O830 C829 1.278 . S
C831 O832 1.245 . S
C831 O843 1.232 . S
O832 C831 1.245 . S
O833 Co827 2.058 . S
O833 C859 1.269 . S
O834 Co826 2.074 . S
O834 C859 1.257 . S
H835 C860 0.930 . S
H836 C866 0.930 . S
O837 Co826 2.093 . S
O837 C829 1.224 . S
H838 C870 0.929 . S
H839 C872 0.930 . S
H840 C873 0.930 . S
H841 C871 0.929 . S
H842 C874 0.928 . S
O843 Co827 2.057 . S
O843 C831 1.232 . S
H844 C863 0.929 . S
H845 C864 0.929 . S
H846 C876 0.931 . S
H847 C868 0.929 . S
H848 C877 0.930 . S
H849 C869 0.931 . S
O850 Co826 2.097 . S
O850 C878 1.214 . S
H851 C879 0.929 . S
H852 C880 0.929 . S
H853 C881 0.930 . S
H854 C882 0.929 . S
H855 C884 0.930 . S
H856 C861 0.930 . S
H857 C865 0.930 . S
O858 Co827 2.037 . S
O858 C878 1.234 . S
C859 O833 1.269 . S
C859 O834 1.257 . S
C860 H835 0.930 . S
C860 C863 1.388 . S
C860 C865 1.418 . S
C861 H856 0.930 . S
C861 C864 1.404 . S
C861 C865 1.353 . S
N862 Co827 2.145 . S
N862 C863 1.397 . S
N862 C864 1.334 . S
C863 H844 0.929 . S
C863 C860 1.388 . S
C863 N862 1.397 . S
C864 H845 0.929 . S
C864 C861 1.404 . S
C864 N862 1.334 . S
C865 H857 0.930 . S
C865 C860 1.418 . S
C865 C861 1.353 . S
C866 H836 0.930 . S
C866 N867 1.330 . S
C866 C868 1.446 . S
N867 Co826 2.151 . S
N867 C866 1.330 . S
N867 C871 1.418 . S
C868 H847 0.929 . S
C868 C866 1.446 . S
C868 C869 1.332 . S
C869 H849 0.931 . S
C869 C868 1.332 . S
C869 C870 1.267 . S
C870 H838 0.929 . S
C870 C869 1.267 . S
C870 C871 1.251 . S
C871 H841 0.929 . S
C871 N867 1.418 . S
C871 C870 1.251 . S
C872 H839 0.930 . S
C872 C874 1.406 . S
C872 C877 1.261 . S
C873 H840 0.930 . S
C873 N875 1.325 . S
C873 C876 1.357 . S
C874 H842 0.928 . S
C874 C872 1.406 . S
C874 N875 1.261 . S
N875 Co826 2.214 . S
N875 C873 1.325 . S
N875 C874 1.261 . S
C876 H846 0.931 . S
C876 C873 1.357 . S
C876 C877 1.312 . S
C877 H848 0.930 . S
C877 C872 1.261 . S
C877 C876 1.312 . S
C878 O850 1.214 . S
C878 O858 1.234 . S
C879 H851 0.929 . S
C879 C882 1.391 . S
C879 C884 1.391 . S
C880 H852 0.929 . S
C880 C881 1.390 . S
C880 N883 1.391 . S
C881 H853 0.930 . S
C881 C880 1.390 . S
C881 C882 1.392 . S
C882 H854 0.929 . S
C882 C879 1.391 . S
C882 C881 1.392 . S
N883 Co827 2.257 . S
N883 C880 1.391 . S
N883 C884 1.388 . S
C884 H855 0.930 . S
C884 C879 1.391 . S
C884 N883 1.388 . S
Co885 O887 2.143 . S
Co885 O893 2.074 . S
Co885 O896 2.093 . S
Co885 O909 2.097 . S
Co885 N926 2.151 . S
Co885 N934 2.214 . S
Co886 O887 2.160 . S
Co886 O892 2.058 . S
Co886 O902 2.057 . S
Co886 O917 2.037 . S
Co886 N921 2.145 . S
Co886 N942 2.257 . S
O887 Co885 2.143 . S
O887 Co886 2.160 . S
C888 O889 1.278 . S
C888 O896 1.224 . S
O889 C888 1.278 . S
C890 O891 1.245 . S
C890 O902 1.232 . S
O891 C890 1.245 . S
O892 Co886 2.058 . S
O892 C918 1.269 . S
O893 Co885 2.074 . S
O893 C918 1.257 . S
H894 C919 0.930 . S
H895 C925 0.930 . S
O896 Co885 2.093 . S
O896 C888 1.224 . S
H897 C929 0.929 . S
H898 C931 0.930 . S
H899 C932 0.930 . S
H900 C930 0.929 . S
H901 C933 0.928 . S
O902 Co886 2.057 . S
O902 C890 1.232 . S
H903 C922 0.929 . S
H904 C923 0.929 . S
H905 C935 0.931 . S
H906 C927 0.929 . S
H907 C936 0.930 . S
H908 C928 0.931 . S
O909 Co885 2.097 . S
O909 C937 1.214 . S
H910 C938 0.929 . S
H911 C939 0.929 . S
H912 C940 0.930 . S
H913 C941 0.929 . S
H914 C943 0.930 . S
H915 C920 0.930 . S
H916 C924 0.930 . S
O917 Co886 2.037 . S
O917 C937 1.234 . S
C918 O892 1.269 . S
C918 O893 1.257 . S
C919 H894 0.930 . S
C919 C922 1.388 . S
C919 C924 1.418 . S
C920 H915 0.930 . S
C920 C923 1.404 . S
C920 C924 1.353 . S
N921 Co886 2.145 . S
N921 C922 1.397 . S
N921 C923 1.334 . S
C922 H903 0.929 . S
C922 C919 1.388 . S
C922 N921 1.397 . S
C923 H904 0.929 . S
C923 C920 1.404 . S
C923 N921 1.334 . S
C924 H916 0.930 . S
C924 C919 1.418 . S
C924 C920 1.353 . S
C925 H895 0.930 . S
C925 N926 1.330 . S
C925 C927 1.446 . S
N926 Co885 2.151 . S
N926 C925 1.330 . S
N926 C930 1.418 . S
C927 H906 0.929 . S
C927 C925 1.446 . S
C927 C928 1.332 . S
C928 H908 0.931 . S
C928 C927 1.332 . S
C928 C929 1.267 . S
C929 H897 0.929 . S
C929 C928 1.267 . S
C929 C930 1.251 . S
C930 H900 0.929 . S
C930 N926 1.418 . S
C930 C929 1.251 . S
C931 H898 0.930 . S
C931 C933 1.406 . S
C931 C936 1.261 . S
C932 H899 0.930 . S
C932 N934 1.325 . S
C932 C935 1.357 . S
C933 H901 0.928 . S
C933 C931 1.406 . S
C933 N934 1.261 . S
N934 Co885 2.214 . S
N934 C932 1.325 . S
N934 C933 1.261 . S
C935 H905 0.931 . S
C935 C932 1.357 . S
C935 C936 1.312 . S
C936 H907 0.930 . S
C936 C931 1.261 . S
C936 C935 1.312 . S
C937 O909 1.214 . S
C937 O917 1.234 . S
C938 H910 0.929 . S
C938 C941 1.391 . S
C938 C943 1.391 . S
C939 H911 0.929 . S
C939 C940 1.390 . S
C939 N942 1.391 . S
C940 H912 0.930 . S
C940 C939 1.390 . S
C940 C941 1.392 . S
C941 H913 0.929 . S
C941 C938 1.391 . S
C941 C940 1.392 . S
N942 Co886 2.257 . S
N942 C939 1.391 . S
N942 C943 1.388 . S
C943 H914 0.930 . S
C943 C938 1.391 . S
C943 N942 1.388 . S
H944 C962 0.951 . S
H945 C964 0.951 . S
H946 C966 0.950 . S
H947 C967 0.950 . S
H948 C969 0.950 . S
H949 C972 0.950 . S
H950 C973 0.950 . S
H951 C975 0.950 . S
H952 C976 0.950 . S
H953 C977 0.951 . S
H954 C979 0.951 . S
H955 C981 0.950 . S
H956 C982 0.950 . S
H957 C984 0.950 . S
H958 C987 0.950 . S
H959 C988 0.950 . S
H960 C990 0.950 1_556 S
H961 C991 0.950 . S
C962 H944 0.951 . S
C962 C963 1.366 . S
C962 C964 1.388 . S
C963 C962 1.366 . S
C963 C967 1.385 . S
C964 H945 0.951 . S
C964 C962 1.388 . S
C964 C965 1.366 . S
C965 C964 1.366 . S
C965 C966 1.414 . S
C965 C968 1.499 . S
C966 H946 0.950 . S
C966 C965 1.414 . S
C966 C967 1.374 . S
C967 H947 0.950 . S
C967 C963 1.385 . S
C967 C966 1.374 . S
C968 C965 1.499 . S
C968 C969 1.373 . S
C968 C970 1.389 . S
C969 H948 0.950 . S
C969 C968 1.373 . S
C969 C985 1.377 . S
C970 C968 1.389 . S
C970 C971 1.524 . S
C970 C984 1.377 . S
C971 C970 1.524 . S
C971 C972 1.397 . S
C971 C976 1.363 . S
C972 H949 0.950 . S
C972 C971 1.397 . S
C972 C973 1.334 . S
C973 H950 0.950 . S
C973 C972 1.334 . S
C973 C974 1.287 . S
C974 C973 1.287 . S
C974 C975 1.524 . S
C974 H993 0.913 . S
C975 H951 0.950 . S
C975 C974 1.524 . S
C975 C976 1.415 . S
C976 H952 0.950 . S
C976 C971 1.363 . S
C976 C975 1.415 . S
C977 H953 0.951 . S
C977 C978 1.366 . S
C977 C979 1.388 . S
C978 C977 1.366 . S
C978 C982 1.385 . S
C979 H954 0.951 . S
C979 C977 1.388 . S
C979 C980 1.366 . S
C980 C979 1.366 . S
C980 C981 1.414 . S
C980 C983 1.499 . S
C981 H955 0.950 . S
C981 C980 1.414 . S
C981 C982 1.374 . S
C982 H956 0.950 . S
C982 C978 1.385 . S
C982 C981 1.374 . S
C983 C980 1.499 . S
C983 C984 1.373 . S
C983 C985 1.389 . S
C984 H957 0.950 . S
C984 C970 1.377 . S
C984 C983 1.373 . S
C985 C969 1.377 . S
C985 C983 1.389 . S
C985 C986 1.524 . S
C986 C985 1.524 . S
C986 C987 1.397 . S
C986 C991 1.363 . S
C987 H958 0.950 . S
C987 C986 1.397 . S
C987 C988 1.334 . S
C988 H959 0.950 . S
C988 C987 1.334 . S
C988 C989 1.287 . S
C989 C988 1.287 . S
C989 C990 1.524 . S
C989 H992 0.999 1_554 S
C990 H960 0.950 1_554 S
C990 C989 1.524 . S
C990 C991 1.415 . S
C991 H961 0.950 . S
C991 C986 1.363 . S
C991 C990 1.415 . S
H992 C989 0.999 1_556 S
H993 C974 0.913 . S
H994 C1012 0.951 . S
H995 C1014 0.951 . S
H996 C1016 0.950 . S
H997 C1017 0.950 . S
H998 C1019 0.950 . S
H999 C1022 0.950 . S
H1000 C1023 0.950 . S
H1001 C1025 0.950 . S
H1002 C1026 0.950 . S
H1003 C1027 0.951 . S
H1004 C1029 0.951 . S
H1005 C1031 0.950 . S
H1006 C1032 0.950 . S
H1007 C1034 0.950 . S
H1008 C1037 0.950 . S
H1009 C1038 0.950 . S
H1010 C1040 0.950 . S
H1011 C1041 0.950 . S
C1012 H994 0.951 . S
C1012 C1013 1.366 . S
C1012 C1014 1.388 . S
C1013 C1012 1.366 . S
C1013 C1017 1.385 . S
C1014 H995 0.951 . S
C1014 C1012 1.388 . S
C1014 C1015 1.366 . S
C1015 C1014 1.366 . S
C1015 C1016 1.414 . S
C1015 C1018 1.499 . S
C1016 H996 0.950 . S
C1016 C1015 1.414 . S
C1016 C1017 1.374 . S
C1017 H997 0.950 . S
C1017 C1013 1.385 . S
C1017 C1016 1.374 . S
C1018 C1015 1.499 . S
C1018 C1019 1.373 . S
C1018 C1020 1.389 . S
C1019 H998 0.950 . S
C1019 C1018 1.373 . S
C1019 C1035 1.377 . S
C1020 C1018 1.389 . S
C1020 C1021 1.524 . S
C1020 C1034 1.377 . S
C1021 C1020 1.524 . S
C1021 C1022 1.397 . S
C1021 C1026 1.363 . S
C1022 H999 0.950 . S
C1022 C1021 1.397 . S
C1022 C1023 1.334 . S
C1023 H1000 0.950 . S
C1023 C1022 1.334 . S
C1023 C1024 1.287 . S
C1024 C1023 1.287 . S
C1024 C1025 1.524 . S
C1024 H1043 0.913 . S
C1025 H1001 0.950 . S
C1025 C1024 1.524 . S
C1025 C1026 1.415 . S
C1026 H1002 0.950 . S
C1026 C1021 1.363 . S
C1026 C1025 1.415 . S
C1027 H1003 0.951 . S
C1027 C1028 1.366 . S
C1027 C1029 1.388 . S
C1028 C1027 1.366 . S
C1028 C1032 1.385 . S
C1029 H1004 0.951 . S
C1029 C1027 1.388 . S
C1029 C1030 1.366 . S
C1030 C1029 1.366 . S
C1030 C1031 1.414 . S
C1030 C1033 1.499 . S
C1031 H1005 0.950 . S
C1031 C1030 1.414 . S
C1031 C1032 1.374 . S
C1032 H1006 0.950 . S
C1032 C1028 1.385 . S
C1032 C1031 1.374 . S
C1033 C1030 1.499 . S
C1033 C1034 1.373 . S
C1033 C1035 1.389 . S
C1034 H1007 0.950 . S
C1034 C1020 1.377 . S
C1034 C1033 1.373 . S
C1035 C1019 1.377 . S
C1035 C1033 1.389 . S
C1035 C1036 1.524 . S
C1036 C1035 1.524 . S
C1036 C1037 1.397 . S
C1036 C1041 1.363 . S
C1037 H1008 0.950 . S
C1037 C1036 1.397 . S
C1037 C1038 1.334 . S
C1038 H1009 0.950 . S
C1038 C1037 1.334 . S
C1038 C1039 1.287 . S
C1039 C1038 1.287 . S
C1039 C1040 1.524 . S
C1039 H1042 0.999 . S
C1040 H1010 0.950 . S
C1040 C1039 1.524 . S
C1040 C1041 1.415 . S
C1041 H1011 0.950 . S
C1041 C1036 1.363 . S
C1041 C1040 1.415 . S
H1042 C1039 0.999 . S
H1043 C1024 0.913 . S
H1044 C1062 0.951 . S
H1045 C1064 0.951 . S
H1046 C1066 0.950 . S
H1047 C1067 0.950 . S
H1048 C1069 0.950 . S
H1049 C1072 0.950 . S
H1050 C1073 0.950 . S
H1051 C1075 0.950 . S
H1052 C1076 0.950 . S
H1053 C1077 0.951 . S
H1054 C1079 0.951 . S
H1055 C1081 0.950 . S
H1056 C1082 0.950 . S
H1057 C1084 0.950 . S
H1058 C1087 0.950 . S
H1059 C1088 0.950 . S
H1060 C1090 0.950 . S
H1061 C1091 0.950 . S
C1062 H1044 0.951 . S
C1062 C1063 1.366 . S
C1062 C1064 1.388 . S
C1063 C1062 1.366 . S
C1063 C1067 1.385 . S
C1064 H1045 0.951 . S
C1064 C1062 1.388 . S
C1064 C1065 1.366 . S
C1065 C1064 1.366 . S
C1065 C1066 1.414 . S
C1065 C1068 1.499 . S
C1066 H1046 0.950 . S
C1066 C1065 1.414 . S
C1066 C1067 1.374 . S
C1067 H1047 0.950 . S
C1067 C1063 1.385 . S
C1067 C1066 1.374 . S
C1068 C1065 1.499 . S
C1068 C1069 1.373 . S
C1068 C1070 1.389 . S
C1069 H1048 0.950 . S
C1069 C1068 1.373 . S
C1069 C1085 1.377 . S
C1070 C1068 1.389 . S
C1070 C1071 1.524 . S
C1070 C1084 1.377 . S
C1071 C1070 1.524 . S
C1071 C1072 1.397 . S
C1071 C1076 1.363 . S
C1072 H1049 0.950 . S
C1072 C1071 1.397 . S
C1072 C1073 1.334 . S
C1073 H1050 0.950 . S
C1073 C1072 1.334 . S
C1073 C1074 1.287 . S
C1074 C1073 1.287 . S
C1074 C1075 1.524 . S
C1074 H1093 0.913 . S
C1075 H1051 0.950 . S
C1075 C1074 1.524 . S
C1075 C1076 1.415 . S
C1076 H1052 0.950 . S
C1076 C1071 1.363 . S
C1076 C1075 1.415 . S
C1077 H1053 0.951 . S
C1077 C1078 1.366 . S
C1077 C1079 1.388 . S
C1078 C1077 1.366 . S
C1078 C1082 1.385 . S
C1079 H1054 0.951 . S
C1079 C1077 1.388 . S
C1079 C1080 1.366 . S
C1080 C1079 1.366 . S
C1080 C1081 1.414 . S
C1080 C1083 1.499 . S
C1081 H1055 0.950 . S
C1081 C1080 1.414 . S
C1081 C1082 1.374 . S
C1082 H1056 0.950 . S
C1082 C1078 1.385 . S
C1082 C1081 1.374 . S
C1083 C1080 1.499 . S
C1083 C1084 1.373 . S
C1083 C1085 1.389 . S
C1084 H1057 0.950 . S
C1084 C1070 1.377 . S
C1084 C1083 1.373 . S
C1085 C1069 1.377 . S
C1085 C1083 1.389 . S
C1085 C1086 1.524 . S
C1086 C1085 1.524 . S
C1086 C1087 1.397 . S
C1086 C1091 1.363 . S
C1087 H1058 0.950 . S
C1087 C1086 1.397 . S
C1087 C1088 1.334 . S
C1088 H1059 0.950 . S
C1088 C1087 1.334 . S
C1088 C1089 1.287 . S
C1089 C1088 1.287 . S
C1089 C1090 1.524 . S
C1089 H1092 0.999 . S
C1090 H1060 0.950 . S
C1090 C1089 1.524 . S
C1090 C1091 1.415 . S
C1091 H1061 0.950 . S
C1091 C1086 1.363 . S
C1091 C1090 1.415 . S
H1092 C1089 0.999 . S
H1093 C1074 0.913 . S
H1094 C1112 0.951 . S
H1095 C1114 0.951 . S
H1096 C1116 0.950 . S
H1097 C1117 0.950 . S
H1098 C1119 0.950 . S
H1099 C1122 0.950 . S
H1100 C1123 0.950 . S
H1101 C1125 0.950 . S
H1102 C1126 0.950 . S
H1103 C1127 0.951 . S
H1104 C1129 0.951 . S
H1105 C1131 0.950 . S
H1106 C1132 0.950 . S
H1107 C1134 0.950 . S
H1108 C1137 0.950 . S
H1109 C1138 0.950 . S
H1110 C1140 0.950 . S
H1111 C1141 0.950 . S
C1112 H1094 0.951 . S
C1112 C1113 1.366 . S
C1112 C1114 1.388 . S
C1113 C1112 1.366 . S
C1113 C1117 1.385 . S
C1114 H1095 0.951 . S
C1114 C1112 1.388 . S
C1114 C1115 1.366 . S
C1115 C1114 1.366 . S
C1115 C1116 1.414 . S
C1115 C1118 1.499 . S
C1116 H1096 0.950 . S
C1116 C1115 1.414 . S
C1116 C1117 1.374 . S
C1117 H1097 0.950 . S
C1117 C1113 1.385 . S
C1117 C1116 1.374 . S
C1118 C1115 1.499 . S
C1118 C1119 1.373 . S
C1118 C1120 1.389 . S
C1119 H1098 0.950 . S
C1119 C1118 1.373 . S
C1119 C1135 1.377 1_455 S
C1120 C1118 1.389 . S
C1120 C1121 1.524 . S
C1120 C1134 1.377 1_455 S
C1121 C1120 1.524 . S
C1121 C1122 1.397 . S
C1121 C1126 1.363 . S
C1122 H1099 0.950 . S
C1122 C1121 1.397 . S
C1122 C1123 1.334 . S
C1123 H1100 0.950 . S
C1123 C1122 1.334 . S
C1123 C1124 1.287 . S
C1124 C1123 1.287 . S
C1124 C1125 1.524 . S
C1124 H1143 0.913 . S
C1125 H1101 0.950 . S
C1125 C1124 1.524 . S
C1125 C1126 1.415 . S
C1126 H1102 0.950 . S
C1126 C1121 1.363 . S
C1126 C1125 1.415 . S
C1127 H1103 0.951 . S
C1127 C1128 1.366 . S
C1127 C1129 1.388 . S
C1128 C1127 1.366 . S
C1128 C1132 1.385 . S
C1129 H1104 0.951 . S
C1129 C1127 1.388 . S
C1129 C1130 1.366 . S
C1130 C1129 1.366 . S
C1130 C1131 1.414 . S
C1130 C1133 1.499 . S
C1131 H1105 0.950 . S
C1131 C1130 1.414 . S
C1131 C1132 1.374 . S
C1132 H1106 0.950 . S
C1132 C1128 1.385 . S
C1132 C1131 1.374 . S
C1133 C1130 1.499 . S
C1133 C1134 1.373 . S
C1133 C1135 1.389 . S
C1134 H1107 0.950 . S
C1134 C1120 1.377 1_655 S
C1134 C1133 1.373 . S
C1135 C1119 1.377 1_655 S
C1135 C1133 1.389 . S
C1135 C1136 1.524 . S
C1136 C1135 1.524 . S
C1136 C1137 1.397 . S
C1136 C1141 1.363 . S
C1137 H1108 0.950 . S
C1137 C1136 1.397 . S
C1137 C1138 1.334 . S
C1138 H1109 0.950 . S
C1138 C1137 1.334 . S
C1138 C1139 1.287 . S
C1139 C1138 1.287 . S
C1139 C1140 1.524 . S
C1139 H1142 0.999 . S
C1140 H1110 0.950 . S
C1140 C1139 1.524 . S
C1140 C1141 1.415 . S
C1141 H1111 0.950 . S
C1141 C1136 1.363 . S
C1141 C1140 1.415 . S
H1142 C1139 0.999 . S
H1143 C1124 0.913 . S
H1144 C1162 0.951 . S
H1145 C1164 0.951 . S
H1146 C1166 0.950 . S
H1147 C1167 0.950 . S
H1148 C1169 0.950 . S
H1149 C1172 0.950 . S
H1150 C1173 0.950 . S
H1151 C1175 0.950 . S
H1152 C1176 0.950 . S
H1153 C1177 0.951 . S
H1154 C1179 0.951 . S
H1155 C1181 0.950 . S
H1156 C1182 0.950 . S
H1157 C1184 0.950 . S
H1158 C1187 0.950 . S
H1159 C1188 0.950 . S
H1160 C1190 0.950 . S
H1161 C1191 0.950 . S
C1162 H1144 0.951 . S
C1162 C1163 1.366 . S
C1162 C1164 1.388 . S
C1163 C1162 1.366 . S
C1163 C1167 1.385 . S
C1164 H1145 0.951 . S
C1164 C1162 1.388 . S
C1164 C1165 1.366 . S
C1165 C1164 1.366 . S
C1165 C1166 1.414 . S
C1165 C1168 1.499 . S
C1166 H1146 0.950 . S
C1166 C1165 1.414 . S
C1166 C1167 1.374 . S
C1167 H1147 0.950 . S
C1167 C1163 1.385 . S
C1167 C1166 1.374 . S
C1168 C1165 1.499 . S
C1168 C1169 1.373 . S
C1168 C1170 1.389 . S
C1169 H1148 0.950 . S
C1169 C1168 1.373 . S
C1169 C1185 1.377 . S
C1170 C1168 1.389 . S
C1170 C1171 1.524 . S
C1170 C1184 1.377 . S
C1171 C1170 1.524 . S
C1171 C1172 1.397 . S
C1171 C1176 1.363 . S
C1172 H1149 0.950 . S
C1172 C1171 1.397 . S
C1172 C1173 1.334 . S
C1173 H1150 0.950 . S
C1173 C1172 1.334 . S
C1173 C1174 1.287 . S
C1174 C1173 1.287 . S
C1174 C1175 1.524 . S
C1174 H1193 0.913 . S
C1175 H1151 0.950 . S
C1175 C1174 1.524 . S
C1175 C1176 1.415 . S
C1176 H1152 0.950 . S
C1176 C1171 1.363 . S
C1176 C1175 1.415 . S
C1177 H1153 0.951 . S
C1177 C1178 1.366 . S
C1177 C1179 1.388 . S
C1178 C1177 1.366 . S
C1178 C1182 1.385 . S
C1179 H1154 0.951 . S
C1179 C1177 1.388 . S
C1179 C1180 1.366 . S
C1180 C1179 1.366 . S
C1180 C1181 1.414 . S
C1180 C1183 1.499 . S
C1181 H1155 0.950 . S
C1181 C1180 1.414 . S
C1181 C1182 1.374 . S
C1182 H1156 0.950 . S
C1182 C1178 1.385 . S
C1182 C1181 1.374 . S
C1183 C1180 1.499 . S
C1183 C1184 1.373 . S
C1183 C1185 1.389 . S
C1184 H1157 0.950 . S
C1184 C1170 1.377 . S
C1184 C1183 1.373 . S
C1185 C1169 1.377 . S
C1185 C1183 1.389 . S
C1185 C1186 1.524 . S
C1186 C1185 1.524 . S
C1186 C1187 1.397 . S
C1186 C1191 1.363 . S
C1187 H1158 0.950 . S
C1187 C1186 1.397 . S
C1187 C1188 1.334 . S
C1188 H1159 0.950 . S
C1188 C1187 1.334 . S
C1188 C1189 1.287 . S
C1189 C1188 1.287 . S
C1189 C1190 1.524 . S
C1189 H1192 0.999 . S
C1190 H1160 0.950 . S
C1190 C1189 1.524 . S
C1190 C1191 1.415 . S
C1191 H1161 0.950 . S
C1191 C1186 1.363 . S
C1191 C1190 1.415 . S
H1192 C1189 0.999 . S
H1193 C1174 0.913 . S
H1194 C1212 0.951 . S
H1195 C1214 0.951 . S
H1196 C1216 0.950 . S
H1197 C1217 0.950 . S
H1198 C1219 0.950 . S
H1199 C1222 0.950 . S
H1200 C1223 0.950 . S
H1201 C1225 0.950 . S
H1202 C1226 0.950 . S
H1203 C1227 0.951 . S
H1204 C1229 0.951 . S
H1205 C1231 0.950 . S
H1206 C1232 0.950 . S
H1207 C1234 0.950 . S
H1208 C1237 0.950 . S
H1209 C1238 0.950 . S
H1210 C1240 0.950 . S
H1211 C1241 0.950 . S
C1212 H1194 0.951 . S
C1212 C1213 1.366 . S
C1212 C1214 1.388 . S
C1213 C1212 1.366 . S
C1213 C1217 1.385 . S
C1214 H1195 0.951 . S
C1214 C1212 1.388 . S
C1214 C1215 1.366 . S
C1215 C1214 1.366 . S
C1215 C1216 1.414 . S
C1215 C1218 1.499 . S
C1216 H1196 0.950 . S
C1216 C1215 1.414 . S
C1216 C1217 1.374 . S
C1217 H1197 0.950 . S
C1217 C1213 1.385 . S
C1217 C1216 1.374 . S
C1218 C1215 1.499 . S
C1218 C1219 1.373 . S
C1218 C1220 1.389 . S
C1219 H1198 0.950 . S
C1219 C1218 1.373 . S
C1219 C1235 1.377 1_655 S
C1220 C1218 1.389 . S
C1220 C1221 1.524 . S
C1220 C1234 1.377 1_655 S
C1221 C1220 1.524 . S
C1221 C1222 1.397 . S
C1221 C1226 1.363 . S
C1222 H1199 0.950 . S
C1222 C1221 1.397 . S
C1222 C1223 1.334 . S
C1223 H1200 0.950 . S
C1223 C1222 1.334 . S
C1223 C1224 1.287 . S
C1224 C1223 1.287 . S
C1224 C1225 1.524 . S
C1224 H1243 0.913 . S
C1225 H1201 0.950 . S
C1225 C1224 1.524 . S
C1225 C1226 1.415 . S
C1226 H1202 0.950 . S
C1226 C1221 1.363 . S
C1226 C1225 1.415 . S
C1227 H1203 0.951 . S
C1227 C1228 1.366 . S
C1227 C1229 1.388 . S
C1228 C1227 1.366 . S
C1228 C1232 1.385 . S
C1229 H1204 0.951 . S
C1229 C1227 1.388 . S
C1229 C1230 1.366 . S
C1230 C1229 1.366 . S
C1230 C1231 1.414 . S
C1230 C1233 1.499 . S
C1231 H1205 0.950 . S
C1231 C1230 1.414 . S
C1231 C1232 1.374 . S
C1232 H1206 0.950 . S
C1232 C1228 1.385 . S
C1232 C1231 1.374 . S
C1233 C1230 1.499 . S
C1233 C1234 1.373 . S
C1233 C1235 1.389 . S
C1234 H1207 0.950 . S
C1234 C1220 1.377 1_455 S
C1234 C1233 1.373 . S
C1235 C1219 1.377 1_455 S
C1235 C1233 1.389 . S
C1235 C1236 1.524 . S
C1236 C1235 1.524 . S
C1236 C1237 1.397 . S
C1236 C1241 1.363 . S
C1237 H1208 0.950 . S
C1237 C1236 1.397 . S
C1237 C1238 1.334 . S
C1238 H1209 0.950 . S
C1238 C1237 1.334 . S
C1238 C1239 1.287 . S
C1239 C1238 1.287 . S
C1239 C1240 1.524 . S
C1239 H1242 0.999 . S
C1240 H1210 0.950 . S
C1240 C1239 1.524 . S
C1240 C1241 1.415 . S
C1241 H1211 0.950 . S
C1241 C1236 1.363 . S
C1241 C1240 1.415 . S
H1242 C1239 0.999 . S
H1243 C1224 0.913 . S
H1244 C1262 0.951 . S
H1245 C1264 0.951 . S
H1246 C1266 0.950 . S
H1247 C1267 0.950 . S
H1248 C1269 0.950 . S
H1249 C1272 0.950 . S
H1250 C1273 0.950 . S
H1251 C1275 0.950 . S
H1252 C1276 0.950 . S
H1253 C1277 0.951 . S
H1254 C1279 0.951 . S
H1255 C1281 0.950 . S
H1256 C1282 0.950 . S
H1257 C1284 0.950 . S
H1258 C1287 0.950 . S
H1259 C1288 0.950 . S
H1260 C1290 0.950 . S
H1261 C1291 0.950 . S
C1262 H1244 0.951 . S
C1262 C1263 1.366 . S
C1262 C1264 1.388 . S
C1263 C1262 1.366 . S
C1263 C1267 1.385 . S
C1264 H1245 0.951 . S
C1264 C1262 1.388 . S
C1264 C1265 1.366 . S
C1265 C1264 1.366 . S
C1265 C1266 1.414 . S
C1265 C1268 1.499 . S
C1266 H1246 0.950 . S
C1266 C1265 1.414 . S
C1266 C1267 1.374 . S
C1267 H1247 0.950 . S
C1267 C1263 1.385 . S
C1267 C1266 1.374 . S
C1268 C1265 1.499 . S
C1268 C1269 1.373 . S
C1268 C1270 1.389 . S
C1269 H1248 0.950 . S
C1269 C1268 1.373 . S
C1269 C1285 1.377 . S
C1270 C1268 1.389 . S
C1270 C1271 1.524 . S
C1270 C1284 1.377 . S
C1271 C1270 1.524 . S
C1271 C1272 1.397 . S
C1271 C1276 1.363 . S
C1272 H1249 0.950 . S
C1272 C1271 1.397 . S
C1272 C1273 1.334 . S
C1273 H1250 0.950 . S
C1273 C1272 1.334 . S
C1273 C1274 1.287 . S
C1274 C1273 1.287 . S
C1274 C1275 1.524 . S
C1274 H1293 0.913 . S
C1275 H1251 0.950 . S
C1275 C1274 1.524 . S
C1275 C1276 1.415 . S
C1276 H1252 0.950 . S
C1276 C1271 1.363 . S
C1276 C1275 1.415 . S
C1277 H1253 0.951 . S
C1277 C1278 1.366 . S
C1277 C1279 1.388 . S
C1278 C1277 1.366 . S
C1278 C1282 1.385 . S
C1279 H1254 0.951 . S
C1279 C1277 1.388 . S
C1279 C1280 1.366 . S
C1280 C1279 1.366 . S
C1280 C1281 1.414 . S
C1280 C1283 1.499 . S
C1281 H1255 0.950 . S
C1281 C1280 1.414 . S
C1281 C1282 1.374 . S
C1282 H1256 0.950 . S
C1282 C1278 1.385 . S
C1282 C1281 1.374 . S
C1283 C1280 1.499 . S
C1283 C1284 1.373 . S
C1283 C1285 1.389 . S
C1284 H1257 0.950 . S
C1284 C1270 1.377 . S
C1284 C1283 1.373 . S
C1285 C1269 1.377 . S
C1285 C1283 1.389 . S
C1285 C1286 1.524 . S
C1286 C1285 1.524 . S
C1286 C1287 1.397 . S
C1286 C1291 1.363 . S
C1287 H1258 0.950 . S
C1287 C1286 1.397 . S
C1287 C1288 1.334 . S
C1288 H1259 0.950 . S
C1288 C1287 1.334 . S
C1288 C1289 1.287 . S
C1289 C1288 1.287 . S
C1289 C1290 1.524 . S
C1289 H1292 0.999 . S
C1290 H1260 0.950 . S
C1290 C1289 1.524 . S
C1290 C1291 1.415 . S
C1291 H1261 0.950 . S
C1291 C1286 1.363 . S
C1291 C1290 1.415 . S
H1292 C1289 0.999 . S
H1293 C1274 0.913 . S
H1294 C1312 0.951 . S
H1295 C1314 0.951 . S
H1296 C1316 0.950 . S
H1297 C1317 0.950 . S
H1298 C1319 0.950 . S
H1299 C1322 0.950 . S
H1300 C1323 0.950 . S
H1301 C1325 0.950 . S
H1302 C1326 0.950 . S
H1303 C1327 0.951 . S
H1304 C1329 0.951 . S
H1305 C1331 0.950 . S
H1306 C1332 0.950 . S
H1307 C1334 0.950 . S
H1308 C1337 0.950 . S
H1309 C1338 0.950 . S
H1310 C1340 0.950 . S
H1311 C1341 0.950 . S
C1312 H1294 0.951 . S
C1312 C1313 1.366 . S
C1312 C1314 1.388 . S
C1313 C1312 1.366 . S
C1313 C1317 1.385 . S
C1314 H1295 0.951 . S
C1314 C1312 1.388 . S
C1314 C1315 1.366 . S
C1315 C1314 1.366 . S
C1315 C1316 1.414 . S
C1315 C1318 1.499 . S
C1316 H1296 0.950 . S
C1316 C1315 1.414 . S
C1316 C1317 1.374 . S
C1317 H1297 0.950 . S
C1317 C1313 1.385 . S
C1317 C1316 1.374 . S
C1318 C1315 1.499 . S
C1318 C1319 1.373 . S
C1318 C1320 1.389 . S
C1319 H1298 0.950 . S
C1319 C1318 1.373 . S
C1319 C1335 1.377 . S
C1320 C1318 1.389 . S
C1320 C1321 1.524 . S
C1320 C1334 1.377 . S
C1321 C1320 1.524 . S
C1321 C1322 1.397 . S
C1321 C1326 1.363 . S
C1322 H1299 0.950 . S
C1322 C1321 1.397 . S
C1322 C1323 1.334 . S
C1323 H1300 0.950 . S
C1323 C1322 1.334 . S
C1323 C1324 1.287 . S
C1324 C1323 1.287 . S
C1324 C1325 1.524 . S
C1324 H1343 0.913 . S
C1325 H1301 0.950 . S
C1325 C1324 1.524 . S
C1325 C1326 1.415 . S
C1326 H1302 0.950 . S
C1326 C1321 1.363 . S
C1326 C1325 1.415 . S
C1327 H1303 0.951 . S
C1327 C1328 1.366 . S
C1327 C1329 1.388 . S
C1328 C1327 1.366 . S
C1328 C1332 1.385 . S
C1329 H1304 0.951 . S
C1329 C1327 1.388 . S
C1329 C1330 1.366 . S
C1330 C1329 1.366 . S
C1330 C1331 1.414 . S
C1330 C1333 1.499 . S
C1331 H1305 0.950 . S
C1331 C1330 1.414 . S
C1331 C1332 1.374 . S
C1332 H1306 0.950 . S
C1332 C1328 1.385 . S
C1332 C1331 1.374 . S
C1333 C1330 1.499 . S
C1333 C1334 1.373 . S
C1333 C1335 1.389 . S
C1334 H1307 0.950 . S
C1334 C1320 1.377 . S
C1334 C1333 1.373 . S
C1335 C1319 1.377 . S
C1335 C1333 1.389 . S
C1335 C1336 1.524 . S
C1336 C1335 1.524 . S
C1336 C1337 1.397 . S
C1336 C1341 1.363 . S
C1337 H1308 0.950 . S
C1337 C1336 1.397 . S
C1337 C1338 1.334 . S
C1338 H1309 0.950 . S
C1338 C1337 1.334 . S
C1338 C1339 1.287 . S
C1339 C1338 1.287 . S
C1339 C1340 1.524 . S
C1339 H1342 0.999 . S
C1340 H1310 0.950 . S
C1340 C1339 1.524 . S
C1340 C1341 1.415 . S
C1341 H1311 0.950 . S
C1341 C1336 1.363 . S
C1341 C1340 1.415 . S
H1342 C1339 0.999 . S
H1343 C1324 0.913 . S
H1344 C1362 0.951 . S
H1345 C1364 0.951 . S
H1346 C1366 0.950 . S
H1347 C1367 0.950 . S
H1348 C1369 0.950 . S
H1349 C1372 0.950 . S
H1350 C1373 0.950 . S
H1351 C1375 0.950 . S
H1352 C1376 0.950 . S
H1353 C1377 0.951 . S
H1354 C1379 0.951 . S
H1355 C1381 0.950 . S
H1356 C1382 0.950 . S
H1357 C1384 0.950 . S
H1358 C1387 0.950 . S
H1359 C1388 0.950 . S
H1360 C1390 0.950 . S
H1361 C1391 0.950 . S
C1362 H1344 0.951 . S
C1362 C1363 1.366 . S
C1362 C1364 1.388 . S
C1363 C1362 1.366 . S
C1363 C1367 1.385 . S
C1364 H1345 0.951 . S
C1364 C1362 1.388 . S
C1364 C1365 1.366 . S
C1365 C1364 1.366 . S
C1365 C1366 1.414 . S
C1365 C1368 1.499 . S
C1366 H1346 0.950 . S
C1366 C1365 1.414 . S
C1366 C1367 1.374 . S
C1367 H1347 0.950 . S
C1367 C1363 1.385 . S
C1367 C1366 1.374 . S
C1368 C1365 1.499 . S
C1368 C1369 1.373 . S
C1368 C1370 1.389 . S
C1369 H1348 0.950 . S
C1369 C1368 1.373 . S
C1369 C1385 1.377 . S
C1370 C1368 1.389 . S
C1370 C1371 1.524 . S
C1370 C1384 1.377 . S
C1371 C1370 1.524 . S
C1371 C1372 1.397 . S
C1371 C1376 1.363 . S
C1372 H1349 0.950 . S
C1372 C1371 1.397 . S
C1372 C1373 1.334 . S
C1373 H1350 0.950 . S
C1373 C1372 1.334 . S
C1373 C1374 1.287 . S
C1374 C1373 1.287 . S
C1374 C1375 1.524 . S
C1374 H1393 0.913 . S
C1375 H1351 0.950 . S
C1375 C1374 1.524 . S
C1375 C1376 1.415 . S
C1376 H1352 0.950 . S
C1376 C1371 1.363 . S
C1376 C1375 1.415 . S
C1377 H1353 0.951 . S
C1377 C1378 1.366 . S
C1377 C1379 1.388 . S
C1378 C1377 1.366 . S
C1378 C1382 1.385 . S
C1379 H1354 0.951 . S
C1379 C1377 1.388 . S
C1379 C1380 1.366 . S
C1380 C1379 1.366 . S
C1380 C1381 1.414 . S
C1380 C1383 1.499 . S
C1381 H1355 0.950 . S
C1381 C1380 1.414 . S
C1381 C1382 1.374 . S
C1382 H1356 0.950 . S
C1382 C1378 1.385 . S
C1382 C1381 1.374 . S
C1383 C1380 1.499 . S
C1383 C1384 1.373 . S
C1383 C1385 1.389 . S
C1384 H1357 0.950 . S
C1384 C1370 1.377 . S
C1384 C1383 1.373 . S
C1385 C1369 1.377 . S
C1385 C1383 1.389 . S
C1385 C1386 1.524 . S
C1386 C1385 1.524 . S
C1386 C1387 1.397 . S
C1386 C1391 1.363 . S
C1387 H1358 0.950 . S
C1387 C1386 1.397 . S
C1387 C1388 1.334 . S
C1388 H1359 0.950 . S
C1388 C1387 1.334 . S
C1388 C1389 1.287 . S
C1389 C1388 1.287 . S
C1389 C1390 1.524 . S
C1389 H1392 0.999 . S
C1390 H1360 0.950 . S
C1390 C1389 1.524 . S
C1390 C1391 1.415 . S
C1391 H1361 0.950 . S
C1391 C1386 1.363 . S
C1391 C1390 1.415 . S
H1392 C1389 0.999 . S
H1393 C1374 0.913 . S
H1394 C1412 0.951 . S
H1395 C1414 0.951 . S
H1396 C1416 0.950 . S
H1397 C1417 0.950 . S
H1398 C1419 0.950 . S
H1399 C1422 0.950 . S
H1400 C1423 0.950 . S
H1401 C1425 0.950 . S
H1402 C1426 0.950 . S
H1403 C1427 0.951 . S
H1404 C1429 0.951 . S
H1405 C1431 0.950 . S
H1406 C1432 0.950 . S
H1407 C1434 0.950 . S
H1408 C1437 0.950 . S
H1409 C1438 0.950 . S
H1410 C1440 0.950 . S
H1411 C1441 0.950 . S
C1412 H1394 0.951 . S
C1412 C1413 1.366 . S
C1412 C1414 1.388 . S
C1413 C1412 1.366 . S
C1413 C1417 1.385 . S
C1414 H1395 0.951 . S
C1414 C1412 1.388 . S
C1414 C1415 1.366 . S
C1415 C1414 1.366 . S
C1415 C1416 1.414 . S
C1415 C1418 1.499 . S
C1416 H1396 0.950 . S
C1416 C1415 1.414 . S
C1416 C1417 1.374 . S
C1417 H1397 0.950 . S
C1417 C1413 1.385 . S
C1417 C1416 1.374 . S
C1418 C1415 1.499 . S
C1418 C1419 1.373 . S
C1418 C1420 1.389 . S
C1419 H1398 0.950 . S
C1419 C1418 1.373 . S
C1419 C1435 1.377 . S
C1420 C1418 1.389 . S
C1420 C1421 1.524 . S
C1420 C1434 1.377 . S
C1421 C1420 1.524 . S
C1421 C1422 1.397 . S
C1421 C1426 1.363 . S
C1422 H1399 0.950 . S
C1422 C1421 1.397 . S
C1422 C1423 1.334 . S
C1423 H1400 0.950 . S
C1423 C1422 1.334 . S
C1423 C1424 1.287 . S
C1424 C1423 1.287 . S
C1424 C1425 1.524 . S
C1424 H1443 0.913 . S
C1425 H1401 0.950 . S
C1425 C1424 1.524 . S
C1425 C1426 1.415 . S
C1426 H1402 0.950 . S
C1426 C1421 1.363 . S
C1426 C1425 1.415 . S
C1427 H1403 0.951 . S
C1427 C1428 1.366 . S
C1427 C1429 1.388 . S
C1428 C1427 1.366 . S
C1428 C1432 1.385 . S
C1429 H1404 0.951 . S
C1429 C1427 1.388 . S
C1429 C1430 1.366 . S
C1430 C1429 1.366 . S
C1430 C1431 1.414 . S
C1430 C1433 1.499 . S
C1431 H1405 0.950 . S
C1431 C1430 1.414 . S
C1431 C1432 1.374 . S
C1432 H1406 0.950 . S
C1432 C1428 1.385 . S
C1432 C1431 1.374 . S
C1433 C1430 1.499 . S
C1433 C1434 1.373 . S
C1433 C1435 1.389 . S
C1434 H1407 0.950 . S
C1434 C1420 1.377 . S
C1434 C1433 1.373 . S
C1435 C1419 1.377 . S
C1435 C1433 1.389 . S
C1435 C1436 1.524 . S
C1436 C1435 1.524 . S
C1436 C1437 1.397 . S
C1436 C1441 1.363 . S
C1437 H1408 0.950 . S
C1437 C1436 1.397 . S
C1437 C1438 1.334 . S
C1438 H1409 0.950 . S
C1438 C1437 1.334 . S
C1438 C1439 1.287 . S
C1439 C1438 1.287 . S
C1439 C1440 1.524 . S
C1439 H1442 0.999 . S
C1440 H1410 0.950 . S
C1440 C1439 1.524 . S
C1440 C1441 1.415 . S
C1441 H1411 0.950 . S
C1441 C1436 1.363 . S
C1441 C1440 1.415 . S
H1442 C1439 0.999 . S
H1443 C1424 0.913 . S
H1444 C1462 0.951 . S
H1445 C1464 0.951 . S
H1446 C1466 0.950 . S
H1447 C1467 0.950 . S
H1448 C1469 0.950 . S
H1449 C1472 0.950 . S
H1450 C1473 0.950 . S
H1451 C1475 0.950 . S
H1452 C1476 0.950 . S
H1453 C1477 0.951 . S
H1454 C1479 0.951 . S
H1455 C1481 0.950 . S
H1456 C1482 0.950 . S
H1457 C1484 0.950 . S
H1458 C1487 0.950 . S
H1459 C1488 0.950 . S
H1460 C1490 0.950 . S
H1461 C1491 0.950 . S
C1462 H1444 0.951 . S
C1462 C1463 1.366 . S
C1462 C1464 1.388 . S
C1463 C1462 1.366 . S
C1463 C1467 1.385 . S
C1464 H1445 0.951 . S
C1464 C1462 1.388 . S
C1464 C1465 1.366 . S
C1465 C1464 1.366 . S
C1465 C1466 1.414 . S
C1465 C1468 1.499 . S
C1466 H1446 0.950 . S
C1466 C1465 1.414 . S
C1466 C1467 1.374 . S
C1467 H1447 0.950 . S
C1467 C1463 1.385 . S
C1467 C1466 1.374 . S
C1468 C1465 1.499 . S
C1468 C1469 1.373 . S
C1468 C1470 1.389 . S
C1469 H1448 0.950 . S
C1469 C1468 1.373 . S
C1469 C1485 1.377 . S
C1470 C1468 1.389 . S
C1470 C1471 1.524 . S
C1470 C1484 1.377 . S
C1471 C1470 1.524 . S
C1471 C1472 1.397 . S
C1471 C1476 1.363 . S
C1472 H1449 0.950 . S
C1472 C1471 1.397 . S
C1472 C1473 1.334 . S
C1473 H1450 0.950 . S
C1473 C1472 1.334 . S
C1473 C1474 1.287 . S
C1474 C1473 1.287 . S
C1474 C1475 1.524 . S
C1474 H1493 0.913 . S
C1475 H1451 0.950 . S
C1475 C1474 1.524 . S
C1475 C1476 1.415 . S
C1476 H1452 0.950 . S
C1476 C1471 1.363 . S
C1476 C1475 1.415 . S
C1477 H1453 0.951 . S
C1477 C1478 1.366 . S
C1477 C1479 1.388 . S
C1478 C1477 1.366 . S
C1478 C1482 1.385 . S
C1479 H1454 0.951 . S
C1479 C1477 1.388 . S
C1479 C1480 1.366 . S
C1480 C1479 1.366 . S
C1480 C1481 1.414 . S
C1480 C1483 1.499 . S
C1481 H1455 0.950 . S
C1481 C1480 1.414 . S
C1481 C1482 1.374 . S
C1482 H1456 0.950 . S
C1482 C1478 1.385 . S
C1482 C1481 1.374 . S
C1483 C1480 1.499 . S
C1483 C1484 1.373 . S
C1483 C1485 1.389 . S
C1484 H1457 0.950 . S
C1484 C1470 1.377 . S
C1484 C1483 1.373 . S
C1485 C1469 1.377 . S
C1485 C1483 1.389 . S
C1485 C1486 1.524 . S
C1486 C1485 1.524 . S
C1486 C1487 1.397 . S
C1486 C1491 1.363 . S
C1487 H1458 0.950 . S
C1487 C1486 1.397 . S
C1487 C1488 1.334 . S
C1488 H1459 0.950 . S
C1488 C1487 1.334 . S
C1488 C1489 1.287 . S
C1489 C1488 1.287 . S
C1489 C1490 1.524 . S
C1489 H1492 0.999 . S
C1490 H1460 0.950 . S
C1490 C1489 1.524 . S
C1490 C1491 1.415 . S
C1491 H1461 0.950 . S
C1491 C1486 1.363 . S
C1491 C1490 1.415 . S
H1492 C1489 0.999 . S
H1493 C1474 0.913 . S
H1494 C1512 0.951 . S
H1495 C1514 0.951 . S
H1496 C1516 0.950 . S
H1497 C1517 0.950 . S
H1498 C1519 0.950 . S
H1499 C1522 0.950 . S
H1500 C1523 0.950 . S
H1501 C1525 0.950 . S
H1502 C1526 0.950 . S
H1503 C1527 0.951 . S
H1504 C1529 0.951 . S
H1505 C1531 0.950 . S
H1506 C1532 0.950 . S
H1507 C1534 0.950 . S
H1508 C1537 0.950 . S
H1509 C1538 0.950 . S
H1510 C1540 0.950 . S
H1511 C1541 0.950 . S
C1512 H1494 0.951 . S
C1512 C1513 1.366 . S
C1512 C1514 1.388 . S
C1513 C1512 1.366 . S
C1513 C1517 1.385 . S
C1514 H1495 0.951 . S
C1514 C1512 1.388 . S
C1514 C1515 1.366 . S
C1515 C1514 1.366 . S
C1515 C1516 1.414 . S
C1515 C1518 1.499 . S
C1516 H1496 0.950 . S
C1516 C1515 1.414 . S
C1516 C1517 1.374 . S
C1517 H1497 0.950 . S
C1517 C1513 1.385 . S
C1517 C1516 1.374 . S
C1518 C1515 1.499 . S
C1518 C1519 1.373 . S
C1518 C1520 1.389 . S
C1519 H1498 0.950 . S
C1519 C1518 1.373 . S
C1519 C1535 1.377 . S
C1520 C1518 1.389 . S
C1520 C1521 1.524 . S
C1520 C1534 1.377 . S
C1521 C1520 1.524 . S
C1521 C1522 1.397 . S
C1521 C1526 1.363 . S
C1522 H1499 0.950 . S
C1522 C1521 1.397 . S
C1522 C1523 1.334 . S
C1523 H1500 0.950 . S
C1523 C1522 1.334 . S
C1523 C1524 1.287 . S
C1524 C1523 1.287 . S
C1524 C1525 1.524 . S
C1524 H1543 0.913 . S
C1525 H1501 0.950 . S
C1525 C1524 1.524 . S
C1525 C1526 1.415 . S
C1526 H1502 0.950 . S
C1526 C1521 1.363 . S
C1526 C1525 1.415 . S
C1527 H1503 0.951 . S
C1527 C1528 1.366 . S
C1527 C1529 1.388 . S
C1528 C1527 1.366 . S
C1528 C1532 1.385 . S
C1529 H1504 0.951 . S
C1529 C1527 1.388 . S
C1529 C1530 1.366 . S
C1530 C1529 1.366 . S
C1530 C1531 1.414 . S
C1530 C1533 1.499 . S
C1531 H1505 0.950 . S
C1531 C1530 1.414 . S
C1531 C1532 1.374 . S
C1532 H1506 0.950 . S
C1532 C1528 1.385 . S
C1532 C1531 1.374 . S
C1533 C1530 1.499 . S
C1533 C1534 1.373 . S
C1533 C1535 1.389 . S
C1534 H1507 0.950 . S
C1534 C1520 1.377 . S
C1534 C1533 1.373 . S
C1535 C1519 1.377 . S
C1535 C1533 1.389 . S
C1535 C1536 1.524 . S
C1536 C1535 1.524 . S
C1536 C1537 1.397 . S
C1536 C1541 1.363 . S
C1537 H1508 0.950 . S
C1537 C1536 1.397 . S
C1537 C1538 1.334 . S
C1538 H1509 0.950 . S
C1538 C1537 1.334 . S
C1538 C1539 1.287 . S
C1539 C1538 1.287 . S
C1539 C1540 1.524 . S
C1539 H1542 0.999 . S
C1540 H1510 0.950 . S
C1540 C1539 1.524 . S
C1540 C1541 1.415 . S
C1541 H1511 0.950 . S
C1541 C1536 1.363 . S
C1541 C1540 1.415 . S
H1542 C1539 0.999 . S
H1543 C1524 0.913 . S
H1544 C1562 0.951 . S
H1545 C1564 0.951 . S
H1546 C1566 0.950 . S
H1547 C1567 0.950 . S
H1548 C1569 0.950 . S
H1549 C1572 0.950 . S
H1550 C1573 0.950 . S
H1551 C1575 0.950 . S
H1552 C1576 0.950 . S
H1553 C1577 0.951 . S
H1554 C1579 0.951 . S
H1555 C1581 0.950 . S
H1556 C1582 0.950 . S
H1557 C1584 0.950 . S
H1558 C1587 0.950 . S
H1559 C1588 0.950 . S
H1560 C1590 0.950 . S
H1561 C1591 0.950 . S
C1562 H1544 0.951 . S
C1562 C1563 1.366 . S
C1562 C1564 1.388 . S
C1563 C1562 1.366 . S
C1563 C1567 1.385 . S
C1564 H1545 0.951 . S
C1564 C1562 1.388 . S
C1564 C1565 1.366 . S
C1565 C1564 1.366 . S
C1565 C1566 1.414 . S
C1565 C1568 1.499 . S
C1566 H1546 0.950 . S
C1566 C1565 1.414 . S
C1566 C1567 1.374 . S
C1567 H1547 0.950 . S
C1567 C1563 1.385 . S
C1567 C1566 1.374 . S
C1568 C1565 1.499 . S
C1568 C1569 1.373 . S
C1568 C1570 1.389 . S
C1569 H1548 0.950 . S
C1569 C1568 1.373 . S
C1569 C1585 1.377 1_455 S
C1570 C1568 1.389 . S
C1570 C1571 1.524 . S
C1570 C1584 1.377 1_455 S
C1571 C1570 1.524 . S
C1571 C1572 1.397 . S
C1571 C1576 1.363 . S
C1572 H1549 0.950 . S
C1572 C1571 1.397 . S
C1572 C1573 1.334 . S
C1573 H1550 0.950 . S
C1573 C1572 1.334 . S
C1573 C1574 1.287 . S
C1574 C1573 1.287 . S
C1574 C1575 1.524 . S
C1574 H1593 0.913 . S
C1575 H1551 0.950 . S
C1575 C1574 1.524 . S
C1575 C1576 1.415 . S
C1576 H1552 0.950 . S
C1576 C1571 1.363 . S
C1576 C1575 1.415 . S
C1577 H1553 0.951 . S
C1577 C1578 1.366 . S
C1577 C1579 1.388 . S
C1578 C1577 1.366 . S
C1578 C1582 1.385 . S
C1579 H1554 0.951 . S
C1579 C1577 1.388 . S
C1579 C1580 1.366 . S
C1580 C1579 1.366 . S
C1580 C1581 1.414 . S
C1580 C1583 1.499 . S
C1581 H1555 0.950 . S
C1581 C1580 1.414 . S
C1581 C1582 1.374 . S
C1582 H1556 0.950 . S
C1582 C1578 1.385 . S
C1582 C1581 1.374 . S
C1583 C1580 1.499 . S
C1583 C1584 1.373 . S
C1583 C1585 1.389 . S
C1584 H1557 0.950 . S
C1584 C1570 1.377 1_655 S
C1584 C1583 1.373 . S
C1585 C1569 1.377 1_655 S
C1585 C1583 1.389 . S
C1585 C1586 1.524 . S
C1586 C1585 1.524 . S
C1586 C1587 1.397 . S
C1586 C1591 1.363 . S
C1587 H1558 0.950 . S
C1587 C1586 1.397 . S
C1587 C1588 1.334 . S
C1588 H1559 0.950 . S
C1588 C1587 1.334 . S
C1588 C1589 1.287 . S
C1589 C1588 1.287 . S
C1589 C1590 1.524 . S
C1589 H1592 0.999 . S
C1590 H1560 0.950 . S
C1590 C1589 1.524 . S
C1590 C1591 1.415 . S
C1591 H1561 0.950 . S
C1591 C1586 1.363 . S
C1591 C1590 1.415 . S
H1592 C1589 0.999 . S
H1593 C1574 0.913 . S
H1594 C1612 0.951 . S
H1595 C1614 0.951 . S
H1596 C1616 0.950 . S
H1597 C1617 0.950 . S
H1598 C1619 0.950 . S
H1599 C1622 0.950 . S
H1600 C1623 0.950 . S
H1601 C1625 0.950 . S
H1602 C1626 0.950 . S
H1603 C1627 0.951 . S
H1604 C1629 0.951 . S
H1605 C1631 0.950 . S
H1606 C1632 0.950 . S
H1607 C1634 0.950 . S
H1608 C1637 0.950 . S
H1609 C1638 0.950 . S
H1610 C1640 0.950 . S
H1611 C1641 0.950 . S
C1612 H1594 0.951 . S
C1612 C1613 1.366 . S
C1612 C1614 1.388 . S
C1613 C1612 1.366 . S
C1613 C1617 1.385 . S
C1614 H1595 0.951 . S
C1614 C1612 1.388 . S
C1614 C1615 1.366 . S
C1615 C1614 1.366 . S
C1615 C1616 1.414 . S
C1615 C1618 1.499 . S
C1616 H1596 0.950 . S
C1616 C1615 1.414 . S
C1616 C1617 1.374 . S
C1617 H1597 0.950 . S
C1617 C1613 1.385 . S
C1617 C1616 1.374 . S
C1618 C1615 1.499 . S
C1618 C1619 1.373 . S
C1618 C1620 1.389 . S
C1619 H1598 0.950 . S
C1619 C1618 1.373 . S
C1619 C1635 1.377 . S
C1620 C1618 1.389 . S
C1620 C1621 1.524 . S
C1620 C1634 1.377 . S
C1621 C1620 1.524 . S
C1621 C1622 1.397 . S
C1621 C1626 1.363 . S
C1622 H1599 0.950 . S
C1622 C1621 1.397 . S
C1622 C1623 1.334 . S
C1623 H1600 0.950 . S
C1623 C1622 1.334 . S
C1623 C1624 1.287 . S
C1624 C1623 1.287 . S
C1624 C1625 1.524 . S
C1624 H1643 0.913 . S
C1625 H1601 0.950 . S
C1625 C1624 1.524 . S
C1625 C1626 1.415 . S
C1626 H1602 0.950 . S
C1626 C1621 1.363 . S
C1626 C1625 1.415 . S
C1627 H1603 0.951 . S
C1627 C1628 1.366 . S
C1627 C1629 1.388 . S
C1628 C1627 1.366 . S
C1628 C1632 1.385 . S
C1629 H1604 0.951 . S
C1629 C1627 1.388 . S
C1629 C1630 1.366 . S
C1630 C1629 1.366 . S
C1630 C1631 1.414 . S
C1630 C1633 1.499 . S
C1631 H1605 0.950 . S
C1631 C1630 1.414 . S
C1631 C1632 1.374 . S
C1632 H1606 0.950 . S
C1632 C1628 1.385 . S
C1632 C1631 1.374 . S
C1633 C1630 1.499 . S
C1633 C1634 1.373 . S
C1633 C1635 1.389 . S
C1634 H1607 0.950 . S
C1634 C1620 1.377 . S
C1634 C1633 1.373 . S
C1635 C1619 1.377 . S
C1635 C1633 1.389 . S
C1635 C1636 1.524 . S
C1636 C1635 1.524 . S
C1636 C1637 1.397 . S
C1636 C1641 1.363 . S
C1637 H1608 0.950 . S
C1637 C1636 1.397 . S
C1637 C1638 1.334 . S
C1638 H1609 0.950 . S
C1638 C1637 1.334 . S
C1638 C1639 1.287 . S
C1639 C1638 1.287 . S
C1639 C1640 1.524 . S
C1639 H1642 0.999 . S
C1640 H1610 0.950 . S
C1640 C1639 1.524 . S
C1640 C1641 1.415 . S
C1641 H1611 0.950 . S
C1641 C1636 1.363 . S
C1641 C1640 1.415 . S
H1642 C1639 0.999 . S
H1643 C1624 0.913 . S
H1644 C1662 0.951 . S
H1645 C1664 0.951 . S
H1646 C1666 0.950 . S
H1647 C1667 0.950 . S
H1648 C1669 0.950 . S
H1649 C1672 0.950 . S
H1650 C1673 0.950 . S
H1651 C1675 0.950 . S
H1652 C1676 0.950 . S
H1653 C1677 0.951 . S
H1654 C1679 0.951 . S
H1655 C1681 0.950 . S
H1656 C1682 0.950 . S
H1657 C1684 0.950 . S
H1658 C1687 0.950 . S
H1659 C1688 0.950 . S
H1660 C1690 0.950 . S
H1661 C1691 0.950 . S
C1662 H1644 0.951 . S
C1662 C1663 1.366 . S
C1662 C1664 1.388 . S
C1663 C1662 1.366 . S
C1663 C1667 1.385 . S
C1664 H1645 0.951 . S
C1664 C1662 1.388 . S
C1664 C1665 1.366 . S
C1665 C1664 1.366 . S
C1665 C1666 1.414 . S
C1665 C1668 1.499 . S
C1666 H1646 0.950 . S
C1666 C1665 1.414 . S
C1666 C1667 1.374 . S
C1667 H1647 0.950 . S
C1667 C1663 1.385 . S
C1667 C1666 1.374 . S
C1668 C1665 1.499 . S
C1668 C1669 1.373 . S
C1668 C1670 1.389 . S
C1669 H1648 0.950 . S
C1669 C1668 1.373 . S
C1669 C1685 1.377 . S
C1670 C1668 1.389 . S
C1670 C1671 1.524 . S
C1670 C1684 1.377 . S
C1671 C1670 1.524 . S
C1671 C1672 1.397 . S
C1671 C1676 1.363 . S
C1672 H1649 0.950 . S
C1672 C1671 1.397 . S
C1672 C1673 1.334 . S
C1673 H1650 0.950 . S
C1673 C1672 1.334 . S
C1673 C1674 1.287 . S
C1674 C1673 1.287 . S
C1674 C1675 1.524 . S
C1674 H1693 0.913 . S
C1675 H1651 0.950 . S
C1675 C1674 1.524 . S
C1675 C1676 1.415 . S
C1676 H1652 0.950 . S
C1676 C1671 1.363 . S
C1676 C1675 1.415 . S
C1677 H1653 0.951 . S
C1677 C1678 1.366 . S
C1677 C1679 1.388 . S
C1678 C1677 1.366 . S
C1678 C1682 1.385 . S
C1679 H1654 0.951 . S
C1679 C1677 1.388 . S
C1679 C1680 1.366 . S
C1680 C1679 1.366 . S
C1680 C1681 1.414 . S
C1680 C1683 1.499 . S
C1681 H1655 0.950 . S
C1681 C1680 1.414 . S
C1681 C1682 1.374 . S
C1682 H1656 0.950 . S
C1682 C1678 1.385 . S
C1682 C1681 1.374 . S
C1683 C1680 1.499 . S
C1683 C1684 1.373 . S
C1683 C1685 1.389 . S
C1684 H1657 0.950 . S
C1684 C1670 1.377 . S
C1684 C1683 1.373 . S
C1685 C1669 1.377 . S
C1685 C1683 1.389 . S
C1685 C1686 1.524 . S
C1686 C1685 1.524 . S
C1686 C1687 1.397 . S
C1686 C1691 1.363 . S
C1687 H1658 0.950 . S
C1687 C1686 1.397 . S
C1687 C1688 1.334 . S
C1688 H1659 0.950 . S
C1688 C1687 1.334 . S
C1688 C1689 1.287 . S
C1689 C1688 1.287 . S
C1689 C1690 1.524 . S
C1689 H1692 0.999 . S
C1690 H1660 0.950 . S
C1690 C1689 1.524 . S
C1690 C1691 1.415 . S
C1691 H1661 0.950 . S
C1691 C1686 1.363 . S
C1691 C1690 1.415 . S
H1692 C1689 0.999 . S
H1693 C1674 0.913 . S
H1694 C1712 0.951 . S
H1695 C1714 0.951 . S
H1696 C1716 0.950 . S
H1697 C1717 0.950 . S
H1698 C1719 0.950 . S
H1699 C1722 0.950 . S
H1700 C1723 0.950 . S
H1701 C1725 0.950 . S
H1702 C1726 0.950 . S
H1703 C1727 0.951 . S
H1704 C1729 0.951 . S
H1705 C1731 0.950 . S
H1706 C1732 0.950 . S
H1707 C1734 0.950 . S
H1708 C1737 0.950 . S
H1709 C1738 0.950 . S
H1710 C1740 0.950 . S
H1711 C1741 0.950 . S
C1712 H1694 0.951 . S
C1712 C1713 1.366 . S
C1712 C1714 1.388 . S
C1713 C1712 1.366 . S
C1713 C1717 1.385 . S
C1714 H1695 0.951 . S
C1714 C1712 1.388 . S
C1714 C1715 1.366 . S
C1715 C1714 1.366 . S
C1715 C1716 1.414 . S
C1715 C1718 1.499 . S
C1716 H1696 0.950 . S
C1716 C1715 1.414 . S
C1716 C1717 1.374 . S
C1717 H1697 0.950 . S
C1717 C1713 1.385 . S
C1717 C1716 1.374 . S
C1718 C1715 1.499 . S
C1718 C1719 1.373 . S
C1718 C1720 1.389 . S
C1719 H1698 0.950 . S
C1719 C1718 1.373 . S
C1719 C1735 1.377 1_455 S
C1720 C1718 1.389 . S
C1720 C1721 1.524 . S
C1720 C1734 1.377 1_455 S
C1721 C1720 1.524 . S
C1721 C1722 1.397 . S
C1721 C1726 1.363 . S
C1722 H1699 0.950 . S
C1722 C1721 1.397 . S
C1722 C1723 1.334 . S
C1723 H1700 0.950 . S
C1723 C1722 1.334 . S
C1723 C1724 1.287 . S
C1724 C1723 1.287 . S
C1724 C1725 1.524 . S
C1724 H1743 0.913 . S
C1725 H1701 0.950 . S
C1725 C1724 1.524 . S
C1725 C1726 1.415 . S
C1726 H1702 0.950 . S
C1726 C1721 1.363 . S
C1726 C1725 1.415 . S
C1727 H1703 0.951 . S
C1727 C1728 1.366 . S
C1727 C1729 1.388 . S
C1728 C1727 1.366 . S
C1728 C1732 1.385 . S
C1729 H1704 0.951 . S
C1729 C1727 1.388 . S
C1729 C1730 1.366 . S
C1730 C1729 1.366 . S
C1730 C1731 1.414 . S
C1730 C1733 1.499 . S
C1731 H1705 0.950 . S
C1731 C1730 1.414 . S
C1731 C1732 1.374 . S
C1732 H1706 0.950 . S
C1732 C1728 1.385 . S
C1732 C1731 1.374 . S
C1733 C1730 1.499 . S
C1733 C1734 1.373 . S
C1733 C1735 1.389 . S
C1734 H1707 0.950 . S
C1734 C1720 1.377 1_655 S
C1734 C1733 1.373 . S
C1735 C1719 1.377 1_655 S
C1735 C1733 1.389 . S
C1735 C1736 1.524 . S
C1736 C1735 1.524 . S
C1736 C1737 1.397 . S
C1736 C1741 1.363 . S
C1737 H1708 0.950 . S
C1737 C1736 1.397 . S
C1737 C1738 1.334 . S
C1738 H1709 0.950 . S
C1738 C1737 1.334 . S
C1738 C1739 1.287 . S
C1739 C1738 1.287 . S
C1739 C1740 1.524 . S
C1739 H1742 0.999 . S
C1740 H1710 0.950 . S
C1740 C1739 1.524 . S
C1740 C1741 1.415 . S
C1741 H1711 0.950 . S
C1741 C1736 1.363 . S
C1741 C1740 1.415 . S
H1742 C1739 0.999 . S
H1743 C1724 0.913 . S
H1744 C1762 0.951 . S
H1745 C1764 0.951 . S
H1746 C1766 0.950 . S
H1747 C1767 0.950 . S
H1748 C1769 0.950 . S
H1749 C1772 0.950 . S
H1750 C1773 0.950 . S
H1751 C1775 0.950 . S
H1752 C1776 0.950 . S
H1753 C1777 0.951 . S
H1754 C1779 0.951 . S
H1755 C1781 0.950 . S
H1756 C1782 0.950 . S
H1757 C1784 0.950 . S
H1758 C1787 0.950 . S
H1759 C1788 0.950 . S
H1760 C1790 0.950 . S
H1761 C1791 0.950 . S
C1762 H1744 0.951 . S
C1762 C1763 1.366 . S
C1762 C1764 1.388 . S
C1763 C1762 1.366 . S
C1763 C1767 1.385 . S
C1764 H1745 0.951 . S
C1764 C1762 1.388 . S
C1764 C1765 1.366 . S
C1765 C1764 1.366 . S
C1765 C1766 1.414 . S
C1765 C1768 1.499 . S
C1766 H1746 0.950 . S
C1766 C1765 1.414 . S
C1766 C1767 1.374 . S
C1767 H1747 0.950 . S
C1767 C1763 1.385 . S
C1767 C1766 1.374 . S
C1768 C1765 1.499 . S
C1768 C1769 1.373 1_554 S
C1768 C1770 1.389 . S
C1769 H1748 0.950 . S
C1769 C1768 1.373 1_556 S
C1769 C1785 1.377 . S
C1770 C1768 1.389 . S
C1770 C1771 1.524 . S
C1770 C1784 1.377 . S
C1771 C1770 1.524 . S
C1771 C1772 1.397 . S
C1771 C1776 1.363 . S
C1772 H1749 0.950 . S
C1772 C1771 1.397 . S
C1772 C1773 1.334 . S
C1773 H1750 0.950 . S
C1773 C1772 1.334 . S
C1773 C1774 1.287 . S
C1774 C1773 1.287 . S
C1774 C1775 1.524 . S
C1774 H1793 0.913 . S
C1775 H1751 0.950 . S
C1775 C1774 1.524 . S
C1775 C1776 1.415 . S
C1776 H1752 0.950 . S
C1776 C1771 1.363 . S
C1776 C1775 1.415 . S
C1777 H1753 0.951 . S
C1777 C1778 1.366 . S
C1777 C1779 1.388 . S
C1778 C1777 1.366 . S
C1778 C1782 1.385 . S
C1779 H1754 0.951 . S
C1779 C1777 1.388 . S
C1779 C1780 1.366 . S
C1780 C1779 1.366 . S
C1780 C1781 1.414 . S
C1780 C1783 1.499 . S
C1781 H1755 0.950 . S
C1781 C1780 1.414 . S
C1781 C1782 1.374 . S
C1782 H1756 0.950 . S
C1782 C1778 1.385 . S
C1782 C1781 1.374 . S
C1783 C1780 1.499 . S
C1783 C1784 1.373 1_556 S
C1783 C1785 1.389 . S
C1784 H1757 0.950 . S
C1784 C1770 1.377 . S
C1784 C1783 1.373 1_554 S
C1785 C1769 1.377 . S
C1785 C1783 1.389 . S
C1785 C1786 1.524 . S
C1786 C1785 1.524 . S
C1786 C1787 1.397 . S
C1786 C1791 1.363 . S
C1787 H1758 0.950 . S
C1787 C1786 1.397 . S
C1787 C1788 1.334 . S
C1788 H1759 0.950 . S
C1788 C1787 1.334 . S
C1788 C1789 1.287 . S
C1789 C1788 1.287 . S
C1789 C1790 1.524 . S
C1789 H1792 0.999 . S
C1790 H1760 0.950 . S
C1790 C1789 1.524 . S
C1790 C1791 1.415 . S
C1791 H1761 0.950 . S
C1791 C1786 1.363 . S
C1791 C1790 1.415 . S
H1792 C1789 0.999 . S
H1793 C1774 0.913 . S
H1794 C1812 0.951 . S
H1795 C1814 0.951 . S
H1796 C1816 0.950 . S
H1797 C1817 0.950 . S
H1798 C1819 0.950 . S
H1799 C1822 0.950 . S
H1800 C1823 0.950 . S
H1801 C1825 0.950 . S
H1802 C1826 0.950 . S
H1803 C1827 0.951 . S
H1804 C1829 0.951 . S
H1805 C1831 0.950 . S
H1806 C1832 0.950 . S
H1807 C1834 0.950 . S
H1808 C1837 0.950 . S
H1809 C1838 0.950 . S
H1810 C1840 0.950 . S
H1811 C1841 0.950 . S
C1812 H1794 0.951 . S
C1812 C1813 1.366 . S
C1812 C1814 1.388 . S
C1813 C1812 1.366 . S
C1813 C1817 1.385 . S
C1814 H1795 0.951 . S
C1814 C1812 1.388 . S
C1814 C1815 1.366 . S
C1815 C1814 1.366 . S
C1815 C1816 1.414 . S
C1815 C1818 1.499 . S
C1816 H1796 0.950 . S
C1816 C1815 1.414 . S
C1816 C1817 1.374 . S
C1817 H1797 0.950 . S
C1817 C1813 1.385 . S
C1817 C1816 1.374 . S
C1818 C1815 1.499 . S
C1818 C1819 1.373 . S
C1818 C1820 1.389 . S
C1819 H1798 0.950 . S
C1819 C1818 1.373 . S
C1819 C1835 1.377 . S
C1820 C1818 1.389 . S
C1820 C1821 1.524 . S
C1820 C1834 1.377 . S
C1821 C1820 1.524 . S
C1821 C1822 1.397 . S
C1821 C1826 1.363 . S
C1822 H1799 0.950 . S
C1822 C1821 1.397 . S
C1822 C1823 1.334 . S
C1823 H1800 0.950 . S
C1823 C1822 1.334 . S
C1823 C1824 1.287 . S
C1824 C1823 1.287 . S
C1824 C1825 1.524 . S
C1824 H1843 0.913 . S
C1825 H1801 0.950 . S
C1825 C1824 1.524 . S
C1825 C1826 1.415 . S
C1826 H1802 0.950 . S
C1826 C1821 1.363 . S
C1826 C1825 1.415 . S
C1827 H1803 0.951 . S
C1827 C1828 1.366 . S
C1827 C1829 1.388 . S
C1828 C1827 1.366 . S
C1828 C1832 1.385 . S
C1829 H1804 0.951 . S
C1829 C1827 1.388 . S
C1829 C1830 1.366 . S
C1830 C1829 1.366 . S
C1830 C1831 1.414 . S
C1830 C1833 1.499 . S
C1831 H1805 0.950 . S
C1831 C1830 1.414 . S
C1831 C1832 1.374 . S
C1832 H1806 0.950 . S
C1832 C1828 1.385 . S
C1832 C1831 1.374 . S
C1833 C1830 1.499 . S
C1833 C1834 1.373 . S
C1833 C1835 1.389 . S
C1834 H1807 0.950 . S
C1834 C1820 1.377 . S
C1834 C1833 1.373 . S
C1835 C1819 1.377 . S
C1835 C1833 1.389 . S
C1835 C1836 1.524 . S
C1836 C1835 1.524 . S
C1836 C1837 1.397 . S
C1836 C1841 1.363 . S
C1837 H1808 0.950 . S
C1837 C1836 1.397 . S
C1837 C1838 1.334 . S
C1838 H1809 0.950 . S
C1838 C1837 1.334 . S
C1838 C1839 1.287 . S
C1839 C1838 1.287 . S
C1839 C1840 1.524 . S
C1839 H1842 0.999 . S
C1840 H1810 0.950 . S
C1840 C1839 1.524 . S
C1840 C1841 1.415 . S
C1841 H1811 0.950 . S
C1841 C1836 1.363 . S
C1841 C1840 1.415 . S
H1842 C1839 0.999 . S
H1843 C1824 0.913 . S
H1844 C1862 0.951 . S
H1845 C1864 0.951 . S
H1846 C1866 0.950 . S
H1847 C1867 0.950 . S
H1848 C1869 0.950 . S
H1849 C1872 0.950 . S
H1850 C1873 0.950 . S
H1851 C1875 0.950 . S
H1852 C1876 0.950 . S
H1853 C1877 0.951 . S
H1854 C1879 0.951 . S
H1855 C1881 0.950 . S
H1856 C1882 0.950 . S
H1857 C1884 0.950 . S
H1858 C1887 0.950 . S
H1859 C1888 0.950 . S
H1860 C1890 0.950 . S
H1861 C1891 0.950 . S
C1862 H1844 0.951 . S
C1862 C1863 1.366 . S
C1862 C1864 1.388 . S
C1863 C1862 1.366 . S
C1863 C1867 1.385 . S
C1864 H1845 0.951 . S
C1864 C1862 1.388 . S
C1864 C1865 1.366 . S
C1865 C1864 1.366 . S
C1865 C1866 1.414 . S
C1865 C1868 1.499 . S
C1866 H1846 0.950 . S
C1866 C1865 1.414 . S
C1866 C1867 1.374 . S
C1867 H1847 0.950 . S
C1867 C1863 1.385 . S
C1867 C1866 1.374 . S
C1868 C1865 1.499 . S
C1868 C1869 1.373 . S
C1868 C1870 1.389 . S
C1869 H1848 0.950 . S
C1869 C1868 1.373 . S
C1869 C1885 1.377 . S
C1870 C1868 1.389 . S
C1870 C1871 1.524 . S
C1870 C1884 1.377 . S
C1871 C1870 1.524 . S
C1871 C1872 1.397 . S
C1871 C1876 1.363 . S
C1872 H1849 0.950 . S
C1872 C1871 1.397 . S
C1872 C1873 1.334 . S
C1873 H1850 0.950 . S
C1873 C1872 1.334 . S
C1873 C1874 1.287 . S
C1874 C1873 1.287 . S
C1874 C1875 1.524 . S
C1874 H1893 0.913 . S
C1875 H1851 0.950 . S
C1875 C1874 1.524 . S
C1875 C1876 1.415 . S
C1876 H1852 0.950 . S
C1876 C1871 1.363 . S
C1876 C1875 1.415 . S
C1877 H1853 0.951 . S
C1877 C1878 1.366 . S
C1877 C1879 1.388 . S
C1878 C1877 1.366 . S
C1878 C1882 1.385 . S
C1879 H1854 0.951 . S
C1879 C1877 1.388 . S
C1879 C1880 1.366 . S
C1880 C1879 1.366 . S
C1880 C1881 1.414 . S
C1880 C1883 1.499 . S
C1881 H1855 0.950 . S
C1881 C1880 1.414 . S
C1881 C1882 1.374 . S
C1882 H1856 0.950 . S
C1882 C1878 1.385 . S
C1882 C1881 1.374 . S
C1883 C1880 1.499 . S
C1883 C1884 1.373 . S
C1883 C1885 1.389 . S
C1884 H1857 0.950 . S
C1884 C1870 1.377 . S
C1884 C1883 1.373 . S
C1885 C1869 1.377 . S
C1885 C1883 1.389 . S
C1885 C1886 1.524 . S
C1886 C1885 1.524 . S
C1886 C1887 1.397 . S
C1886 C1891 1.363 . S
C1887 H1858 0.950 . S
C1887 C1886 1.397 . S
C1887 C1888 1.334 . S
C1888 H1859 0.950 . S
C1888 C1887 1.334 . S
C1888 C1889 1.287 . S
C1889 C1888 1.287 . S
C1889 C1890 1.524 . S
C1889 H1892 0.999 . S
C1890 H1860 0.950 . S
C1890 C1889 1.524 . S
C1890 C1891 1.415 . S
C1891 H1861 0.950 . S
C1891 C1886 1.363 . S
C1891 C1890 1.415 . S
H1892 C1889 0.999 . S
H1893 C1874 0.913 . S
H1894 C1912 0.951 . S
H1895 C1914 0.951 . S
H1896 C1916 0.950 . S
H1897 C1917 0.950 . S
H1898 C1919 0.950 . S
H1899 C1922 0.950 . S
H1900 C1923 0.950 . S
H1901 C1925 0.950 . S
H1902 C1926 0.950 . S
H1903 C1927 0.951 . S
H1904 C1929 0.951 . S
H1905 C1931 0.950 . S
H1906 C1932 0.950 . S
H1907 C1934 0.950 . S
H1908 C1937 0.950 . S
H1909 C1938 0.950 . S
H1910 C1940 0.950 . S
H1911 C1941 0.950 . S
C1912 H1894 0.951 . S
C1912 C1913 1.366 . S
C1912 C1914 1.388 . S
C1913 C1912 1.366 . S
C1913 C1917 1.385 . S
C1914 H1895 0.951 . S
C1914 C1912 1.388 . S
C1914 C1915 1.366 . S
C1915 C1914 1.366 . S
C1915 C1916 1.414 . S
C1915 C1918 1.499 . S
C1916 H1896 0.950 . S
C1916 C1915 1.414 . S
C1916 C1917 1.374 . S
C1917 H1897 0.950 . S
C1917 C1913 1.385 . S
C1917 C1916 1.374 . S
C1918 C1915 1.499 . S
C1918 C1919 1.373 . S
C1918 C1920 1.389 . S
C1919 H1898 0.950 . S
C1919 C1918 1.373 . S
C1919 C1935 1.377 . S
C1920 C1918 1.389 . S
C1920 C1921 1.524 . S
C1920 C1934 1.377 . S
C1921 C1920 1.524 . S
C1921 C1922 1.397 . S
C1921 C1926 1.363 . S
C1922 H1899 0.950 . S
C1922 C1921 1.397 . S
C1922 C1923 1.334 . S
C1923 H1900 0.950 . S
C1923 C1922 1.334 . S
C1923 C1924 1.287 . S
C1924 C1923 1.287 . S
C1924 C1925 1.524 . S
C1924 H1943 0.913 . S
C1925 H1901 0.950 . S
C1925 C1924 1.524 . S
C1925 C1926 1.415 . S
C1926 H1902 0.950 . S
C1926 C1921 1.363 . S
C1926 C1925 1.415 . S
C1927 H1903 0.951 . S
C1927 C1928 1.366 . S
C1927 C1929 1.388 . S
C1928 C1927 1.366 . S
C1928 C1932 1.385 . S
C1929 H1904 0.951 . S
C1929 C1927 1.388 . S
C1929 C1930 1.366 . S
C1930 C1929 1.366 . S
C1930 C1931 1.414 . S
C1930 C1933 1.499 . S
C1931 H1905 0.950 . S
C1931 C1930 1.414 . S
C1931 C1932 1.374 . S
C1932 H1906 0.950 . S
C1932 C1928 1.385 . S
C1932 C1931 1.374 . S
C1933 C1930 1.499 . S
C1933 C1934 1.373 . S
C1933 C1935 1.389 . S
C1934 H1907 0.950 . S
C1934 C1920 1.377 . S
C1934 C1933 1.373 . S
C1935 C1919 1.377 . S
C1935 C1933 1.389 . S
C1935 C1936 1.524 . S
C1936 C1935 1.524 . S
C1936 C1937 1.397 . S
C1936 C1941 1.363 . S
C1937 H1908 0.950 . S
C1937 C1936 1.397 . S
C1937 C1938 1.334 . S
C1938 H1909 0.950 . S
C1938 C1937 1.334 . S
C1938 C1939 1.287 . S
C1939 C1938 1.287 . S
C1939 C1940 1.524 . S
C1939 H1942 0.999 . S
C1940 H1910 0.950 . S
C1940 C1939 1.524 . S
C1940 C1941 1.415 . S
C1941 H1911 0.950 . S
C1941 C1936 1.363 . S
C1941 C1940 1.415 . S
H1942 C1939 0.999 . S
H1943 C1924 0.913 . S
H1944 C1962 0.951 . S
H1945 C1964 0.951 . S
H1946 C1966 0.950 . S
H1947 C1967 0.950 . S
H1948 C1969 0.950 . S
H1949 C1972 0.950 . S
H1950 C1973 0.950 . S
H1951 C1975 0.950 . S
H1952 C1976 0.950 . S
H1953 C1977 0.951 . S
H1954 C1979 0.951 . S
H1955 C1981 0.950 . S
H1956 C1982 0.950 . S
H1957 C1984 0.950 . S
H1958 C1987 0.950 . S
H1959 C1988 0.950 . S
H1960 C1990 0.950 . S
H1961 C1991 0.950 . S
C1962 H1944 0.951 . S
C1962 C1963 1.366 . S
C1962 C1964 1.388 . S
C1963 C1962 1.366 . S
C1963 C1967 1.385 . S
C1964 H1945 0.951 . S
C1964 C1962 1.388 . S
C1964 C1965 1.366 . S
C1965 C1964 1.366 . S
C1965 C1966 1.414 . S
C1965 C1968 1.499 . S
C1966 H1946 0.950 . S
C1966 C1965 1.414 . S
C1966 C1967 1.374 . S
C1967 H1947 0.950 . S
C1967 C1963 1.385 . S
C1967 C1966 1.374 . S
C1968 C1965 1.499 . S
C1968 C1969 1.373 1_556 S
C1968 C1970 1.389 . S
C1969 H1948 0.950 . S
C1969 C1968 1.373 1_554 S
C1969 C1985 1.377 . S
C1970 C1968 1.389 . S
C1970 C1971 1.524 . S
C1970 C1984 1.377 . S
C1971 C1970 1.524 . S
C1971 C1972 1.397 . S
C1971 C1976 1.363 . S
C1972 H1949 0.950 . S
C1972 C1971 1.397 . S
C1972 C1973 1.334 . S
C1973 H1950 0.950 . S
C1973 C1972 1.334 . S
C1973 C1974 1.287 . S
C1974 C1973 1.287 . S
C1974 C1975 1.524 . S
C1974 H1993 0.913 . S
C1975 H1951 0.950 . S
C1975 C1974 1.524 . S
C1975 C1976 1.415 . S
C1976 H1952 0.950 . S
C1976 C1971 1.363 . S
C1976 C1975 1.415 . S
C1977 H1953 0.951 . S
C1977 C1978 1.366 . S
C1977 C1979 1.388 . S
C1978 C1977 1.366 . S
C1978 C1982 1.385 . S
C1979 H1954 0.951 . S
C1979 C1977 1.388 . S
C1979 C1980 1.366 . S
C1980 C1979 1.366 . S
C1980 C1981 1.414 . S
C1980 C1983 1.499 . S
C1981 H1955 0.950 . S
C1981 C1980 1.414 . S
C1981 C1982 1.374 . S
C1982 H1956 0.950 . S
C1982 C1978 1.385 . S
C1982 C1981 1.374 . S
C1983 C1980 1.499 . S
C1983 C1984 1.373 1_554 S
C1983 C1985 1.389 . S
C1984 H1957 0.950 . S
C1984 C1970 1.377 . S
C1984 C1983 1.373 1_556 S
C1985 C1969 1.377 . S
C1985 C1983 1.389 . S
C1985 C1986 1.524 . S
C1986 C1985 1.524 . S
C1986 C1987 1.397 . S
C1986 C1991 1.363 . S
C1987 H1958 0.950 . S
C1987 C1986 1.397 . S
C1987 C1988 1.334 . S
C1988 H1959 0.950 . S
C1988 C1987 1.334 . S
C1988 C1989 1.287 . S
C1989 C1988 1.287 . S
C1989 C1990 1.524 . S
C1989 H1992 0.999 . S
C1990 H1960 0.950 . S
C1990 C1989 1.524 . S
C1990 C1991 1.415 . S
C1991 H1961 0.950 . S
C1991 C1986 1.363 . S
C1991 C1990 1.415 . S
H1992 C1989 0.999 . S
H1993 C1974 0.913 . S
H1994 C2012 0.951 . S
H1995 C2014 0.951 . S
H1996 C2016 0.950 . S
H1997 C2017 0.950 . S
H1998 C2019 0.950 . S
H1999 C2022 0.950 . S
H2000 C2023 0.950 . S
H2001 C2025 0.950 . S
H2002 C2026 0.950 . S
H2003 C2027 0.951 . S
H2004 C2029 0.951 . S
H2005 C2031 0.950 . S
H2006 C2032 0.950 . S
H2007 C2034 0.950 . S
H2008 C2037 0.950 . S
H2009 C2038 0.950 . S
H2010 C2040 0.950 . S
H2011 C2041 0.950 . S
C2012 H1994 0.951 . S
C2012 C2013 1.366 . S
C2012 C2014 1.388 . S
C2013 C2012 1.366 . S
C2013 C2017 1.385 . S
C2014 H1995 0.951 . S
C2014 C2012 1.388 . S
C2014 C2015 1.366 . S
C2015 C2014 1.366 . S
C2015 C2016 1.414 . S
C2015 C2018 1.499 . S
C2016 H1996 0.950 . S
C2016 C2015 1.414 . S
C2016 C2017 1.374 . S
C2017 H1997 0.950 . S
C2017 C2013 1.385 . S
C2017 C2016 1.374 . S
C2018 C2015 1.499 . S
C2018 C2019 1.373 . S
C2018 C2020 1.389 . S
C2019 H1998 0.950 . S
C2019 C2018 1.373 . S
C2019 C2035 1.377 . S
C2020 C2018 1.389 . S
C2020 C2021 1.524 . S
C2020 C2034 1.377 . S
C2021 C2020 1.524 . S
C2021 C2022 1.397 . S
C2021 C2026 1.363 . S
C2022 H1999 0.950 . S
C2022 C2021 1.397 . S
C2022 C2023 1.334 . S
C2023 H2000 0.950 . S
C2023 C2022 1.334 . S
C2023 C2024 1.287 . S
C2024 C2023 1.287 . S
C2024 C2025 1.524 . S
C2024 H2043 0.913 . S
C2025 H2001 0.950 . S
C2025 C2024 1.524 . S
C2025 C2026 1.415 . S
C2026 H2002 0.950 . S
C2026 C2021 1.363 . S
C2026 C2025 1.415 . S
C2027 H2003 0.951 . S
C2027 C2028 1.366 . S
C2027 C2029 1.388 . S
C2028 C2027 1.366 . S
C2028 C2032 1.385 . S
C2029 H2004 0.951 . S
C2029 C2027 1.388 . S
C2029 C2030 1.366 . S
C2030 C2029 1.366 . S
C2030 C2031 1.414 . S
C2030 C2033 1.499 . S
C2031 H2005 0.950 . S
C2031 C2030 1.414 . S
C2031 C2032 1.374 . S
C2032 H2006 0.950 . S
C2032 C2028 1.385 . S
C2032 C2031 1.374 . S
C2033 C2030 1.499 . S
C2033 C2034 1.373 . S
C2033 C2035 1.389 . S
C2034 H2007 0.950 . S
C2034 C2020 1.377 . S
C2034 C2033 1.373 . S
C2035 C2019 1.377 . S
C2035 C2033 1.389 . S
C2035 C2036 1.524 . S
C2036 C2035 1.524 . S
C2036 C2037 1.397 . S
C2036 C2041 1.363 . S
C2037 H2008 0.950 . S
C2037 C2036 1.397 . S
C2037 C2038 1.334 . S
C2038 H2009 0.950 . S
C2038 C2037 1.334 . S
C2038 C2039 1.287 . S
C2039 C2038 1.287 . S
C2039 C2040 1.524 . S
C2039 H2042 0.999 . S
C2040 H2010 0.950 . S
C2040 C2039 1.524 . S
C2040 C2041 1.415 . S
C2041 H2011 0.950 . S
C2041 C2036 1.363 . S
C2041 C2040 1.415 . S
H2042 C2039 0.999 . S
H2043 C2024 0.913 . S
H2044 C2062 0.951 . S
H2045 C2064 0.951 . S
H2046 C2066 0.950 . S
H2047 C2067 0.950 . S
H2048 C2069 0.950 . S
H2049 C2072 0.950 . S
H2050 C2073 0.950 . S
H2051 C2075 0.950 . S
H2052 C2076 0.950 . S
H2053 C2077 0.951 . S
H2054 C2079 0.951 . S
H2055 C2081 0.950 . S
H2056 C2082 0.950 . S
H2057 C2084 0.950 . S
H2058 C2087 0.950 . S
H2059 C2088 0.950 . S
H2060 C2090 0.950 . S
H2061 C2091 0.950 . S
C2062 H2044 0.951 . S
C2062 C2063 1.366 . S
C2062 C2064 1.388 . S
C2063 C2062 1.366 . S
C2063 C2067 1.385 . S
C2064 H2045 0.951 . S
C2064 C2062 1.388 . S
C2064 C2065 1.366 . S
C2065 C2064 1.366 . S
C2065 C2066 1.414 . S
C2065 C2068 1.499 . S
C2066 H2046 0.950 . S
C2066 C2065 1.414 . S
C2066 C2067 1.374 . S
C2067 H2047 0.950 . S
C2067 C2063 1.385 . S
C2067 C2066 1.374 . S
C2068 C2065 1.499 . S
C2068 C2069 1.373 . S
C2068 C2070 1.389 . S
C2069 H2048 0.950 . S
C2069 C2068 1.373 . S
C2069 C2085 1.377 . S
C2070 C2068 1.389 . S
C2070 C2071 1.524 . S
C2070 C2084 1.377 . S
C2071 C2070 1.524 . S
C2071 C2072 1.397 . S
C2071 C2076 1.363 . S
C2072 H2049 0.950 . S
C2072 C2071 1.397 . S
C2072 C2073 1.334 . S
C2073 H2050 0.950 . S
C2073 C2072 1.334 . S
C2073 C2074 1.287 . S
C2074 C2073 1.287 . S
C2074 C2075 1.524 . S
C2074 H2093 0.913 . S
C2075 H2051 0.950 . S
C2075 C2074 1.524 . S
C2075 C2076 1.415 . S
C2076 H2052 0.950 . S
C2076 C2071 1.363 . S
C2076 C2075 1.415 . S
C2077 H2053 0.951 . S
C2077 C2078 1.366 . S
C2077 C2079 1.388 . S
C2078 C2077 1.366 . S
C2078 C2082 1.385 . S
C2079 H2054 0.951 . S
C2079 C2077 1.388 . S
C2079 C2080 1.366 . S
C2080 C2079 1.366 . S
C2080 C2081 1.414 . S
C2080 C2083 1.499 . S
C2081 H2055 0.950 . S
C2081 C2080 1.414 . S
C2081 C2082 1.374 . S
C2082 H2056 0.950 . S
C2082 C2078 1.385 . S
C2082 C2081 1.374 . S
C2083 C2080 1.499 . S
C2083 C2084 1.373 . S
C2083 C2085 1.389 . S
C2084 H2057 0.950 . S
C2084 C2070 1.377 . S
C2084 C2083 1.373 . S
C2085 C2069 1.377 . S
C2085 C2083 1.389 . S
C2085 C2086 1.524 . S
C2086 C2085 1.524 . S
C2086 C2087 1.397 . S
C2086 C2091 1.363 . S
C2087 H2058 0.950 . S
C2087 C2086 1.397 . S
C2087 C2088 1.334 . S
C2088 H2059 0.950 . S
C2088 C2087 1.334 . S
C2088 C2089 1.287 . S
C2089 C2088 1.287 . S
C2089 C2090 1.524 . S
C2089 H2092 0.999 . S
C2090 H2060 0.950 . S
C2090 C2089 1.524 . S
C2090 C2091 1.415 . S
C2091 H2061 0.950 . S
C2091 C2086 1.363 . S
C2091 C2090 1.415 . S
H2092 C2089 0.999 . S
H2093 C2074 0.913 . S
H2094 C2112 0.951 . S
H2095 C2114 0.951 . S
H2096 C2116 0.950 . S
H2097 C2117 0.950 . S
H2098 C2119 0.950 . S
H2099 C2122 0.950 . S
H2100 C2123 0.950 . S
H2101 C2125 0.950 . S
H2102 C2126 0.950 . S
H2103 C2127 0.951 . S
H2104 C2129 0.951 . S
H2105 C2131 0.950 . S
H2106 C2132 0.950 . S
H2107 C2134 0.950 . S
H2108 C2137 0.950 . S
H2109 C2138 0.950 . S
H2110 C2140 0.950 . S
H2111 C2141 0.950 . S
C2112 H2094 0.951 . S
C2112 C2113 1.366 . S
C2112 C2114 1.388 . S
C2113 C2112 1.366 . S
C2113 C2117 1.385 . S
C2114 H2095 0.951 . S
C2114 C2112 1.388 . S
C2114 C2115 1.366 . S
C2115 C2114 1.366 . S
C2115 C2116 1.414 . S
C2115 C2118 1.499 . S
C2116 H2096 0.950 . S
C2116 C2115 1.414 . S
C2116 C2117 1.374 . S
C2117 H2097 0.950 . S
C2117 C2113 1.385 . S
C2117 C2116 1.374 . S
C2118 C2115 1.499 . S
C2118 C2119 1.373 . S
C2118 C2120 1.389 . S
C2119 H2098 0.950 . S
C2119 C2118 1.373 . S
C2119 C2135 1.377 . S
C2120 C2118 1.389 . S
C2120 C2121 1.524 . S
C2120 C2134 1.377 . S
C2121 C2120 1.524 . S
C2121 C2122 1.397 . S
C2121 C2126 1.363 . S
C2122 H2099 0.950 . S
C2122 C2121 1.397 . S
C2122 C2123 1.334 . S
C2123 H2100 0.950 . S
C2123 C2122 1.334 . S
C2123 C2124 1.287 . S
C2124 C2123 1.287 . S
C2124 C2125 1.524 . S
C2124 H2143 0.913 . S
C2125 H2101 0.950 . S
C2125 C2124 1.524 . S
C2125 C2126 1.415 . S
C2126 H2102 0.950 . S
C2126 C2121 1.363 . S
C2126 C2125 1.415 . S
C2127 H2103 0.951 . S
C2127 C2128 1.366 . S
C2127 C2129 1.388 . S
C2128 C2127 1.366 . S
C2128 C2132 1.385 . S
C2129 H2104 0.951 . S
C2129 C2127 1.388 . S
C2129 C2130 1.366 . S
C2130 C2129 1.366 . S
C2130 C2131 1.414 . S
C2130 C2133 1.499 . S
C2131 H2105 0.950 . S
C2131 C2130 1.414 . S
C2131 C2132 1.374 . S
C2132 H2106 0.950 . S
C2132 C2128 1.385 . S
C2132 C2131 1.374 . S
C2133 C2130 1.499 . S
C2133 C2134 1.373 . S
C2133 C2135 1.389 . S
C2134 H2107 0.950 . S
C2134 C2120 1.377 . S
C2134 C2133 1.373 . S
C2135 C2119 1.377 . S
C2135 C2133 1.389 . S
C2135 C2136 1.524 . S
C2136 C2135 1.524 . S
C2136 C2137 1.397 . S
C2136 C2141 1.363 . S
C2137 H2108 0.950 . S
C2137 C2136 1.397 . S
C2137 C2138 1.334 . S
C2138 H2109 0.950 . S
C2138 C2137 1.334 . S
C2138 C2139 1.287 . S
C2139 C2138 1.287 . S
C2139 C2140 1.524 . S
C2139 H2142 0.999 . S
C2140 H2110 0.950 . S
C2140 C2139 1.524 . S
C2140 C2141 1.415 . S
C2141 H2111 0.950 . S
C2141 C2136 1.363 . S
C2141 C2140 1.415 . S
H2142 C2139 0.999 . S
H2143 C2124 0.913 . S
H2144 C2162 0.951 . S
H2145 C2164 0.951 . S
H2146 C2166 0.950 . S
H2147 C2167 0.950 . S
H2148 C2169 0.950 . S
H2149 C2172 0.950 . S
H2150 C2173 0.950 . S
H2151 C2175 0.950 . S
H2152 C2176 0.950 . S
H2153 C2177 0.951 . S
H2154 C2179 0.951 . S
H2155 C2181 0.950 . S
H2156 C2182 0.950 . S
H2157 C2184 0.950 . S
H2158 C2187 0.950 . S
H2159 C2188 0.950 . S
H2160 C2190 0.950 . S
H2161 C2191 0.950 . S
C2162 H2144 0.951 . S
C2162 C2163 1.366 . S
C2162 C2164 1.388 . S
C2163 C2162 1.366 . S
C2163 C2167 1.385 . S
C2164 H2145 0.951 . S
C2164 C2162 1.388 . S
C2164 C2165 1.366 . S
C2165 C2164 1.366 . S
C2165 C2166 1.414 . S
C2165 C2168 1.499 . S
C2166 H2146 0.950 . S
C2166 C2165 1.414 . S
C2166 C2167 1.374 . S
C2167 H2147 0.950 . S
C2167 C2163 1.385 . S
C2167 C2166 1.374 . S
C2168 C2165 1.499 . S
C2168 C2169 1.373 . S
C2168 C2170 1.389 . S
C2169 H2148 0.950 . S
C2169 C2168 1.373 . S
C2169 C2185 1.377 1_545 S
C2170 C2168 1.389 . S
C2170 C2171 1.524 . S
C2170 C2184 1.377 1_545 S
C2171 C2170 1.524 . S
C2171 C2172 1.397 . S
C2171 C2176 1.363 . S
C2172 H2149 0.950 . S
C2172 C2171 1.397 . S
C2172 C2173 1.334 . S
C2173 H2150 0.950 . S
C2173 C2172 1.334 . S
C2173 C2174 1.287 . S
C2174 C2173 1.287 . S
C2174 C2175 1.524 . S
C2174 H2193 0.913 . S
C2175 H2151 0.950 . S
C2175 C2174 1.524 . S
C2175 C2176 1.415 . S
C2176 H2152 0.950 . S
C2176 C2171 1.363 . S
C2176 C2175 1.415 . S
C2177 H2153 0.951 . S
C2177 C2178 1.366 . S
C2177 C2179 1.388 . S
C2178 C2177 1.366 . S
C2178 C2182 1.385 . S
C2179 H2154 0.951 . S
C2179 C2177 1.388 . S
C2179 C2180 1.366 . S
C2180 C2179 1.366 . S
C2180 C2181 1.414 . S
C2180 C2183 1.499 . S
C2181 H2155 0.950 . S
C2181 C2180 1.414 . S
C2181 C2182 1.374 . S
C2182 H2156 0.950 . S
C2182 C2178 1.385 . S
C2182 C2181 1.374 . S
C2183 C2180 1.499 . S
C2183 C2184 1.373 . S
C2183 C2185 1.389 . S
C2184 H2157 0.950 . S
C2184 C2170 1.377 1_565 S
C2184 C2183 1.373 . S
C2185 C2169 1.377 1_565 S
C2185 C2183 1.389 . S
C2185 C2186 1.524 . S
C2186 C2185 1.524 . S
C2186 C2187 1.397 . S
C2186 C2191 1.363 . S
C2187 H2158 0.950 . S
C2187 C2186 1.397 . S
C2187 C2188 1.334 . S
C2188 H2159 0.950 . S
C2188 C2187 1.334 . S
C2188 C2189 1.287 . S
C2189 C2188 1.287 . S
C2189 C2190 1.524 . S
C2189 H2192 0.999 . S
C2190 H2160 0.950 . S
C2190 C2189 1.524 . S
C2190 C2191 1.415 . S
C2191 H2161 0.950 . S
C2191 C2186 1.363 . S
C2191 C2190 1.415 . S
H2192 C2189 0.999 . S
H2193 C2174 0.913 . S
H2194 C2212 0.951 . S
H2195 C2214 0.951 . S
H2196 C2216 0.950 . S
H2197 C2217 0.950 . S
H2198 C2219 0.950 . S
H2199 C2222 0.950 . S
H2200 C2223 0.950 . S
H2201 C2225 0.950 . S
H2202 C2226 0.950 . S
H2203 C2227 0.951 . S
H2204 C2229 0.951 . S
H2205 C2231 0.950 . S
H2206 C2232 0.950 . S
H2207 C2234 0.950 . S
H2208 C2237 0.950 . S
H2209 C2238 0.950 . S
H2210 C2240 0.950 . S
H2211 C2241 0.950 . S
C2212 H2194 0.951 . S
C2212 C2213 1.366 . S
C2212 C2214 1.388 . S
C2213 C2212 1.366 . S
C2213 C2217 1.385 . S
C2214 H2195 0.951 . S
C2214 C2212 1.388 . S
C2214 C2215 1.366 . S
C2215 C2214 1.366 . S
C2215 C2216 1.414 . S
C2215 C2218 1.499 . S
C2216 H2196 0.950 . S
C2216 C2215 1.414 . S
C2216 C2217 1.374 . S
C2217 H2197 0.950 . S
C2217 C2213 1.385 . S
C2217 C2216 1.374 . S
C2218 C2215 1.499 . S
C2218 C2219 1.373 . S
C2218 C2220 1.389 . S
C2219 H2198 0.950 . S
C2219 C2218 1.373 . S
C2219 C2235 1.377 . S
C2220 C2218 1.389 . S
C2220 C2221 1.524 . S
C2220 C2234 1.377 . S
C2221 C2220 1.524 . S
C2221 C2222 1.397 . S
C2221 C2226 1.363 . S
C2222 H2199 0.950 . S
C2222 C2221 1.397 . S
C2222 C2223 1.334 . S
C2223 H2200 0.950 . S
C2223 C2222 1.334 . S
C2223 C2224 1.287 . S
C2224 C2223 1.287 . S
C2224 C2225 1.524 . S
C2224 H2243 0.913 . S
C2225 H2201 0.950 . S
C2225 C2224 1.524 . S
C2225 C2226 1.415 . S
C2226 H2202 0.950 . S
C2226 C2221 1.363 . S
C2226 C2225 1.415 . S
C2227 H2203 0.951 . S
C2227 C2228 1.366 . S
C2227 C2229 1.388 . S
C2228 C2227 1.366 . S
C2228 C2232 1.385 . S
C2229 H2204 0.951 . S
C2229 C2227 1.388 . S
C2229 C2230 1.366 . S
C2230 C2229 1.366 . S
C2230 C2231 1.414 . S
C2230 C2233 1.499 . S
C2231 H2205 0.950 . S
C2231 C2230 1.414 . S
C2231 C2232 1.374 . S
C2232 H2206 0.950 . S
C2232 C2228 1.385 . S
C2232 C2231 1.374 . S
C2233 C2230 1.499 . S
C2233 C2234 1.373 . S
C2233 C2235 1.389 . S
C2234 H2207 0.950 . S
C2234 C2220 1.377 . S
C2234 C2233 1.373 . S
C2235 C2219 1.377 . S
C2235 C2233 1.389 . S
C2235 C2236 1.524 . S
C2236 C2235 1.524 . S
C2236 C2237 1.397 . S
C2236 C2241 1.363 . S
C2237 H2208 0.950 . S
C2237 C2236 1.397 . S
C2237 C2238 1.334 . S
C2238 H2209 0.950 . S
C2238 C2237 1.334 . S
C2238 C2239 1.287 . S
C2239 C2238 1.287 . S
C2239 C2240 1.524 . S
C2239 H2242 0.999 . S
C2240 H2210 0.950 . S
C2240 C2239 1.524 . S
C2240 C2241 1.415 . S
C2241 H2211 0.950 . S
C2241 C2236 1.363 . S
C2241 C2240 1.415 . S
H2242 C2239 0.999 . S
H2243 C2224 0.913 . S
H2244 C2262 0.951 . S
H2245 C2264 0.951 1_554 S
H2246 C2266 0.950 . S
H2247 C2267 0.950 . S
H2248 C2269 0.950 . S
H2249 C2272 0.950 1_556 S
H2250 C2273 0.950 1_556 S
H2251 C2275 0.950 . S
H2252 C2276 0.950 . S
H2253 C2277 0.951 . S
H2254 C2279 0.951 1_556 S
H2255 C2281 0.950 . S
H2256 C2282 0.950 . S
H2257 C2284 0.950 . S
H2258 C2287 0.950 1_554 S
H2259 C2288 0.950 1_554 S
H2260 C2290 0.950 . S
H2261 C2291 0.950 . S
C2262 H2244 0.951 . S
C2262 C2263 1.366 . S
C2262 C2264 1.388 . S
C2263 C2262 1.366 . S
C2263 C2267 1.385 . S
C2264 H2245 0.951 1_556 S
C2264 C2262 1.388 . S
C2264 C2265 1.366 . S
C2265 C2264 1.366 . S
C2265 C2266 1.414 . S
C2265 C2268 1.499 . S
C2266 H2246 0.950 . S
C2266 C2265 1.414 . S
C2266 C2267 1.374 . S
C2267 H2247 0.950 . S
C2267 C2263 1.385 . S
C2267 C2266 1.374 . S
C2268 C2265 1.499 . S
C2268 C2269 1.373 . S
C2268 C2270 1.389 1_556 S
C2269 H2248 0.950 . S
C2269 C2268 1.373 . S
C2269 C2285 1.377 1_545 S
C2270 C2268 1.389 1_554 S
C2270 C2271 1.524 . S
C2270 C2284 1.377 1_545 S
C2271 C2270 1.524 . S
C2271 C2272 1.397 . S
C2271 C2276 1.363 . S
C2272 H2249 0.950 1_554 S
C2272 C2271 1.397 . S
C2272 C2273 1.334 . S
C2273 H2250 0.950 1_554 S
C2273 C2272 1.334 . S
C2273 C2274 1.287 . S
C2274 C2273 1.287 . S
C2274 C2275 1.524 . S
C2274 H2293 0.913 . S
C2275 H2251 0.950 . S
C2275 C2274 1.524 . S
C2275 C2276 1.415 . S
C2276 H2252 0.950 . S
C2276 C2271 1.363 . S
C2276 C2275 1.415 . S
C2277 H2253 0.951 . S
C2277 C2278 1.366 . S
C2277 C2279 1.388 . S
C2278 C2277 1.366 . S
C2278 C2282 1.385 . S
C2279 H2254 0.951 1_554 S
C2279 C2277 1.388 . S
C2279 C2280 1.366 . S
C2280 C2279 1.366 . S
C2280 C2281 1.414 . S
C2280 C2283 1.499 . S
C2281 H2255 0.950 . S
C2281 C2280 1.414 . S
C2281 C2282 1.374 . S
C2282 H2256 0.950 . S
C2282 C2278 1.385 . S
C2282 C2281 1.374 . S
C2283 C2280 1.499 . S
C2283 C2284 1.373 . S
C2283 C2285 1.389 1_554 S
C2284 H2257 0.950 . S
C2284 C2270 1.377 1_565 S
C2284 C2283 1.373 . S
C2285 C2269 1.377 1_565 S
C2285 C2283 1.389 1_556 S
C2285 C2286 1.524 . S
C2286 C2285 1.524 . S
C2286 C2287 1.397 . S
C2286 C2291 1.363 . S
C2287 H2258 0.950 1_556 S
C2287 C2286 1.397 . S
C2287 C2288 1.334 . S
C2288 H2259 0.950 1_556 S
C2288 C2287 1.334 . S
C2288 C2289 1.287 . S
C2289 C2288 1.287 . S
C2289 C2290 1.524 . S
C2289 H2292 0.999 . S
C2290 H2260 0.950 . S
C2290 C2289 1.524 . S
C2290 C2291 1.415 . S
C2291 H2261 0.950 . S
C2291 C2286 1.363 . S
C2291 C2290 1.415 . S
H2292 C2289 0.999 . S
H2293 C2274 0.913 . S
H2294 C2312 0.951 . S
H2295 C2314 0.951 . S
H2296 C2316 0.950 . S
H2297 C2317 0.950 . S
H2298 C2319 0.950 . S
H2299 C2322 0.950 . S
H2300 C2323 0.950 . S
H2301 C2325 0.950 . S
H2302 C2326 0.950 . S
H2303 C2327 0.951 . S
H2304 C2329 0.951 . S
H2305 C2331 0.950 . S
H2306 C2332 0.950 . S
H2307 C2334 0.950 . S
H2308 C2337 0.950 . S
H2309 C2338 0.950 . S
H2310 C2340 0.950 . S
H2311 C2341 0.950 . S
C2312 H2294 0.951 . S
C2312 C2313 1.366 . S
C2312 C2314 1.388 . S
C2313 C2312 1.366 . S
C2313 C2317 1.385 . S
C2314 H2295 0.951 . S
C2314 C2312 1.388 . S
C2314 C2315 1.366 . S
C2315 C2314 1.366 . S
C2315 C2316 1.414 . S
C2315 C2318 1.499 . S
C2316 H2296 0.950 . S
C2316 C2315 1.414 . S
C2316 C2317 1.374 . S
C2317 H2297 0.950 . S
C2317 C2313 1.385 . S
C2317 C2316 1.374 . S
C2318 C2315 1.499 . S
C2318 C2319 1.373 . S
C2318 C2320 1.389 . S
C2319 H2298 0.950 . S
C2319 C2318 1.373 . S
C2319 C2335 1.377 . S
C2320 C2318 1.389 . S
C2320 C2321 1.524 . S
C2320 C2334 1.377 . S
C2321 C2320 1.524 . S
C2321 C2322 1.397 . S
C2321 C2326 1.363 . S
C2322 H2299 0.950 . S
C2322 C2321 1.397 . S
C2322 C2323 1.334 . S
C2323 H2300 0.950 . S
C2323 C2322 1.334 . S
C2323 C2324 1.287 . S
C2324 C2323 1.287 . S
C2324 C2325 1.524 . S
C2324 H2343 0.913 . S
C2325 H2301 0.950 . S
C2325 C2324 1.524 . S
C2325 C2326 1.415 . S
C2326 H2302 0.950 . S
C2326 C2321 1.363 . S
C2326 C2325 1.415 . S
C2327 H2303 0.951 . S
C2327 C2328 1.366 . S
C2327 C2329 1.388 . S
C2328 C2327 1.366 . S
C2328 C2332 1.385 . S
C2329 H2304 0.951 . S
C2329 C2327 1.388 . S
C2329 C2330 1.366 . S
C2330 C2329 1.366 . S
C2330 C2331 1.414 . S
C2330 C2333 1.499 . S
C2331 H2305 0.950 . S
C2331 C2330 1.414 . S
C2331 C2332 1.374 . S
C2332 H2306 0.950 . S
C2332 C2328 1.385 . S
C2332 C2331 1.374 . S
C2333 C2330 1.499 . S
C2333 C2334 1.373 . S
C2333 C2335 1.389 . S
C2334 H2307 0.950 . S
C2334 C2320 1.377 . S
C2334 C2333 1.373 . S
C2335 C2319 1.377 . S
C2335 C2333 1.389 . S
C2335 C2336 1.524 . S
C2336 C2335 1.524 . S
C2336 C2337 1.397 . S
C2336 C2341 1.363 . S
C2337 H2308 0.950 . S
C2337 C2336 1.397 . S
C2337 C2338 1.334 . S
C2338 H2309 0.950 . S
C2338 C2337 1.334 . S
C2338 C2339 1.287 . S
C2339 C2338 1.287 . S
C2339 C2340 1.524 . S
C2339 H2342 0.999 . S
C2340 H2310 0.950 . S
C2340 C2339 1.524 . S
C2340 C2341 1.415 . S
C2341 H2311 0.950 . S
C2341 C2336 1.363 . S
C2341 C2340 1.415 . S
H2342 C2339 0.999 . S
H2343 C2324 0.913 . S
H2344 C2362 0.951 . S
H2345 C2364 0.951 . S
H2346 C2366 0.950 . S
H2347 C2367 0.950 . S
H2348 C2369 0.950 . S
H2349 C2372 0.950 . S
H2350 C2373 0.950 . S
H2351 C2375 0.950 1_565 S
H2352 C2376 0.950 . S
H2353 C2377 0.951 . S
H2354 C2379 0.951 . S
H2355 C2381 0.950 . S
H2356 C2382 0.950 . S
H2357 C2384 0.950 . S
H2358 C2387 0.950 . S
H2359 C2388 0.950 . S
H2360 C2390 0.950 1_545 S
H2361 C2391 0.950 . S
C2362 H2344 0.951 . S
C2362 C2363 1.366 . S
C2362 C2364 1.388 . S
C2363 C2362 1.366 . S
C2363 C2367 1.385 . S
C2364 H2345 0.951 . S
C2364 C2362 1.388 . S
C2364 C2365 1.366 . S
C2365 C2364 1.366 . S
C2365 C2366 1.414 . S
C2365 C2368 1.499 . S
C2366 H2346 0.950 . S
C2366 C2365 1.414 . S
C2366 C2367 1.374 . S
C2367 H2347 0.950 . S
C2367 C2363 1.385 . S
C2367 C2366 1.374 . S
C2368 C2365 1.499 . S
C2368 C2369 1.373 . S
C2368 C2370 1.389 . S
C2369 H2348 0.950 . S
C2369 C2368 1.373 . S
C2369 C2385 1.377 1_545 S
C2370 C2368 1.389 . S
C2370 C2371 1.524 . S
C2370 C2384 1.377 1_545 S
C2371 C2370 1.524 . S
C2371 C2372 1.397 . S
C2371 C2376 1.363 1_545 S
C2372 H2349 0.950 . S
C2372 C2371 1.397 . S
C2372 C2373 1.334 . S
C2373 H2350 0.950 . S
C2373 C2372 1.334 . S
C2373 C2374 1.287 . S
C2374 C2373 1.287 . S
C2374 C2375 1.524 . S
C2374 H2393 0.913 . S
C2375 H2351 0.950 1_545 S
C2375 C2374 1.524 . S
C2375 C2376 1.415 1_545 S
C2376 H2352 0.950 . S
C2376 C2371 1.363 1_565 S
C2376 C2375 1.415 1_565 S
C2377 H2353 0.951 . S
C2377 C2378 1.366 . S
C2377 C2379 1.388 . S
C2378 C2377 1.366 . S
C2378 C2382 1.385 . S
C2379 H2354 0.951 . S
C2379 C2377 1.388 . S
C2379 C2380 1.366 . S
C2380 C2379 1.366 . S
C2380 C2381 1.414 . S
C2380 C2383 1.499 . S
C2381 H2355 0.950 . S
C2381 C2380 1.414 . S
C2381 C2382 1.374 . S
C2382 H2356 0.950 . S
C2382 C2378 1.385 . S
C2382 C2381 1.374 . S
C2383 C2380 1.499 . S
C2383 C2384 1.373 . S
C2383 C2385 1.389 . S
C2384 H2357 0.950 . S
C2384 C2370 1.377 1_565 S
C2384 C2383 1.373 . S
C2385 C2369 1.377 1_565 S
C2385 C2383 1.389 . S
C2385 C2386 1.524 . S
C2386 C2385 1.524 . S
C2386 C2387 1.397 . S
C2386 C2391 1.363 1_565 S
C2387 H2358 0.950 . S
C2387 C2386 1.397 . S
C2387 C2388 1.334 . S
C2388 H2359 0.950 . S
C2388 C2387 1.334 . S
C2388 C2389 1.287 . S
C2389 C2388 1.287 . S
C2389 C2390 1.524 . S
C2389 H2392 0.999 . S
C2390 H2360 0.950 1_565 S
C2390 C2389 1.524 . S
C2390 C2391 1.415 1_565 S
C2391 H2361 0.950 . S
C2391 C2386 1.363 1_545 S
C2391 C2390 1.415 1_545 S
H2392 C2389 0.999 . S
H2393 C2374 0.913 . S
H2394 C2412 0.951 . S
H2395 C2414 0.951 . S
H2396 C2416 0.950 . S
H2397 C2417 0.950 . S
H2398 C2419 0.950 . S
H2399 C2422 0.950 . S
H2400 C2423 0.950 . S
H2401 C2425 0.950 . S
H2402 C2426 0.950 . S
H2403 C2427 0.951 . S
H2404 C2429 0.951 . S
H2405 C2431 0.950 . S
H2406 C2432 0.950 . S
H2407 C2434 0.950 . S
H2408 C2437 0.950 . S
H2409 C2438 0.950 . S
H2410 C2440 0.950 . S
H2411 C2441 0.950 . S
C2412 H2394 0.951 . S
C2412 C2413 1.366 . S
C2412 C2414 1.388 . S
C2413 C2412 1.366 . S
C2413 C2417 1.385 . S
C2414 H2395 0.951 . S
C2414 C2412 1.388 . S
C2414 C2415 1.366 . S
C2415 C2414 1.366 . S
C2415 C2416 1.414 . S
C2415 C2418 1.499 . S
C2416 H2396 0.950 . S
C2416 C2415 1.414 . S
C2416 C2417 1.374 . S
C2417 H2397 0.950 . S
C2417 C2413 1.385 . S
C2417 C2416 1.374 . S
C2418 C2415 1.499 . S
C2418 C2419 1.373 . S
C2418 C2420 1.389 . S
C2419 H2398 0.950 . S
C2419 C2418 1.373 . S
C2419 C2435 1.377 . S
C2420 C2418 1.389 . S
C2420 C2421 1.524 . S
C2420 C2434 1.377 . S
C2421 C2420 1.524 . S
C2421 C2422 1.397 . S
C2421 C2426 1.363 . S
C2422 H2399 0.950 . S
C2422 C2421 1.397 . S
C2422 C2423 1.334 . S
C2423 H2400 0.950 . S
C2423 C2422 1.334 . S
C2423 C2424 1.287 . S
C2424 C2423 1.287 . S
C2424 C2425 1.524 . S
C2424 H2443 0.913 . S
C2425 H2401 0.950 . S
C2425 C2424 1.524 . S
C2425 C2426 1.415 . S
C2426 H2402 0.950 . S
C2426 C2421 1.363 . S
C2426 C2425 1.415 . S
C2427 H2403 0.951 . S
C2427 C2428 1.366 . S
C2427 C2429 1.388 . S
C2428 C2427 1.366 . S
C2428 C2432 1.385 . S
C2429 H2404 0.951 . S
C2429 C2427 1.388 . S
C2429 C2430 1.366 . S
C2430 C2429 1.366 . S
C2430 C2431 1.414 . S
C2430 C2433 1.499 . S
C2431 H2405 0.950 . S
C2431 C2430 1.414 . S
C2431 C2432 1.374 . S
C2432 H2406 0.950 . S
C2432 C2428 1.385 . S
C2432 C2431 1.374 . S
C2433 C2430 1.499 . S
C2433 C2434 1.373 . S
C2433 C2435 1.389 . S
C2434 H2407 0.950 . S
C2434 C2420 1.377 . S
C2434 C2433 1.373 . S
C2435 C2419 1.377 . S
C2435 C2433 1.389 . S
C2435 C2436 1.524 . S
C2436 C2435 1.524 . S
C2436 C2437 1.397 . S
C2436 C2441 1.363 . S
C2437 H2408 0.950 . S
C2437 C2436 1.397 . S
C2437 C2438 1.334 . S
C2438 H2409 0.950 . S
C2438 C2437 1.334 . S
C2438 C2439 1.287 . S
C2439 C2438 1.287 . S
C2439 C2440 1.524 . S
C2439 H2442 0.999 . S
C2440 H2410 0.950 . S
C2440 C2439 1.524 . S
C2440 C2441 1.415 . S
C2441 H2411 0.950 . S
C2441 C2436 1.363 . S
C2441 C2440 1.415 . S
H2442 C2439 0.999 . S
H2443 C2424 0.913 . S
H2444 C2462 0.951 . S
H2445 C2464 0.951 . S
H2446 C2466 0.937 1_556 S
H2447 C2467 0.950 . S
H2448 C2469 0.950 . S
H2449 C2472 0.950 . S
H2450 C2473 0.950 . S
H2451 C2475 0.950 . S
H2452 C2476 0.950 . S
H2453 C2477 0.951 . S
H2454 C2479 0.951 . S
H2455 C2481 0.972 . S
H2456 C2482 0.950 . S
H2457 C2484 0.950 . S
H2458 C2487 0.950 . S
H2459 C2488 0.950 . S
H2460 C2490 0.950 . S
H2461 C2491 0.950 . S
C2462 H2444 0.951 . S
C2462 C2463 1.366 . S
C2462 C2464 1.388 . S
C2463 C2462 1.366 . S
C2463 C2467 1.385 . S
C2464 H2445 0.951 . S
C2464 C2462 1.388 . S
C2464 C2465 1.366 . S
C2465 C2464 1.366 . S
C2465 C2466 1.414 . S
C2465 C2468 1.499 . S
C2466 H2446 0.937 1_554 S
C2466 C2465 1.414 . S
C2466 C2467 1.374 . S
C2467 H2447 0.950 . S
C2467 C2463 1.385 . S
C2467 C2466 1.374 . S
C2468 C2465 1.499 . S
C2468 C2469 1.373 1_554 S
C2468 C2470 1.392 . S
C2469 H2448 0.950 . S
C2469 C2468 1.373 1_556 S
C2469 C2485 1.368 1_565 S
C2470 C2468 1.392 . S
C2470 C2471 1.523 1_565 S
C2470 C2484 1.373 1_565 S
C2471 C2470 1.523 1_545 S
C2471 C2472 1.370 1_545 S
C2471 C2476 1.393 . S
C2472 H2449 0.950 . S
C2472 C2471 1.370 1_565 S
C2472 C2473 1.334 . S
C2473 H2450 0.950 . S
C2473 C2472 1.334 . S
C2473 C2474 1.287 1_565 S
C2474 C2473 1.287 1_545 S
C2474 C2475 1.524 . S
C2474 H2493 0.916 . S
C2475 H2451 0.950 . S
C2475 C2474 1.524 . S
C2475 C2476 1.415 . S
C2476 H2452 0.950 . S
C2476 C2471 1.393 . S
C2476 C2475 1.415 . S
C2477 H2453 0.951 . S
C2477 C2478 1.366 . S
C2477 C2479 1.388 . S
C2478 C2477 1.366 . S
C2478 C2482 1.385 . S
C2479 H2454 0.951 . S
C2479 C2477 1.388 . S
C2479 C2480 1.366 . S
C2480 C2479 1.366 . S
C2480 C2481 1.414 . S
C2480 C2483 1.499 . S
C2481 H2455 0.972 . S
C2481 C2480 1.414 . S
C2481 C2482 1.374 . S
C2482 H2456 0.950 . S
C2482 C2478 1.385 . S
C2482 C2481 1.374 . S
C2483 C2480 1.499 . S
C2483 C2484 1.373 1_556 S
C2483 C2485 1.398 . S
C2484 H2457 0.950 . S
C2484 C2470 1.373 1_545 S
C2484 C2483 1.373 1_554 S
C2485 C2469 1.368 1_545 S
C2485 C2483 1.398 . S
C2485 C2486 1.523 1_545 S
C2486 C2485 1.523 1_565 S
C2486 C2487 1.374 1_565 S
C2486 C2491 1.389 . S
C2487 H2458 0.950 . S
C2487 C2486 1.374 1_545 S
C2487 C2488 1.334 . S
C2488 H2459 0.950 . S
C2488 C2487 1.334 . S
C2488 C2489 1.287 1_545 S
C2489 C2488 1.287 1_565 S
C2489 C2490 1.524 . S
C2489 H2492 0.999 . S
C2490 H2460 0.950 . S
C2490 C2489 1.524 . S
C2490 C2491 1.415 . S
C2491 H2461 0.950 . S
C2491 C2486 1.389 . S
C2491 C2490 1.415 . S
H2492 C2489 0.999 . S
H2493 C2474 0.916 . S
H2494 C2512 0.951 . S
H2495 C2514 0.951 . S
H2496 C2516 0.950 . S
H2497 C2517 0.950 . S
H2498 C2519 0.950 . S
H2499 C2522 0.950 . S
H2500 C2523 0.950 . S
H2501 C2525 0.950 . S
H2502 C2526 0.950 . S
H2503 C2527 0.951 . S
H2504 C2529 0.951 . S
H2505 C2531 0.950 . S
H2506 C2532 0.950 . S
H2507 C2534 0.950 . S
H2508 C2537 0.950 . S
H2509 C2538 0.950 . S
H2510 C2540 0.950 . S
H2511 C2541 0.950 . S
C2512 H2494 0.951 . S
C2512 C2513 1.366 . S
C2512 C2514 1.388 . S
C2513 C2512 1.366 . S
C2513 C2517 1.385 . S
C2514 H2495 0.951 . S
C2514 C2512 1.388 . S
C2514 C2515 1.366 . S
C2515 C2514 1.366 . S
C2515 C2516 1.414 . S
C2515 C2518 1.499 . S
C2516 H2496 0.950 . S
C2516 C2515 1.414 . S
C2516 C2517 1.374 . S
C2517 H2497 0.950 . S
C2517 C2513 1.385 . S
C2517 C2516 1.374 . S
C2518 C2515 1.499 . S
C2518 C2519 1.373 . S
C2518 C2520 1.389 . S
C2519 H2498 0.950 . S
C2519 C2518 1.373 . S
C2519 C2535 1.377 . S
C2520 C2518 1.389 . S
C2520 C2521 1.524 . S
C2520 C2534 1.377 . S
C2521 C2520 1.524 . S
C2521 C2522 1.397 . S
C2521 C2526 1.363 . S
C2522 H2499 0.950 . S
C2522 C2521 1.397 . S
C2522 C2523 1.334 . S
C2523 H2500 0.950 . S
C2523 C2522 1.334 . S
C2523 C2524 1.287 . S
C2524 C2523 1.287 . S
C2524 C2525 1.524 . S
C2524 H2543 0.913 . S
C2525 H2501 0.950 . S
C2525 C2524 1.524 . S
C2525 C2526 1.415 . S
C2526 H2502 0.950 . S
C2526 C2521 1.363 . S
C2526 C2525 1.415 . S
C2527 H2503 0.951 . S
C2527 C2528 1.366 . S
C2527 C2529 1.388 . S
C2528 C2527 1.366 . S
C2528 C2532 1.385 . S
C2529 H2504 0.951 . S
C2529 C2527 1.388 . S
C2529 C2530 1.366 . S
C2530 C2529 1.366 . S
C2530 C2531 1.414 . S
C2530 C2533 1.499 . S
C2531 H2505 0.950 . S
C2531 C2530 1.414 . S
C2531 C2532 1.374 . S
C2532 H2506 0.950 . S
C2532 C2528 1.385 . S
C2532 C2531 1.374 . S
C2533 C2530 1.499 . S
C2533 C2534 1.373 . S
C2533 C2535 1.389 . S
C2534 H2507 0.950 . S
C2534 C2520 1.377 . S
C2534 C2533 1.373 . S
C2535 C2519 1.377 . S
C2535 C2533 1.389 . S
C2535 C2536 1.524 . S
C2536 C2535 1.524 . S
C2536 C2537 1.397 . S
C2536 C2541 1.363 . S
C2537 H2508 0.950 . S
C2537 C2536 1.397 . S
C2537 C2538 1.334 . S
C2538 H2509 0.950 . S
C2538 C2537 1.334 . S
C2538 C2539 1.287 . S
C2539 C2538 1.287 . S
C2539 C2540 1.524 . S
C2539 H2542 0.999 . S
C2540 H2510 0.950 . S
C2540 C2539 1.524 . S
C2540 C2541 1.415 . S
C2541 H2511 0.950 . S
C2541 C2536 1.363 . S
C2541 C2540 1.415 . S
H2542 C2539 0.999 . S
H2543 C2524 0.913 . S
C963 C701 1.394 . S
C978 C33 1.394 . S
C1013 C937 1.391 . S
C1028 C111 1.391 . S
C1063 C170 1.393 . S
C1078 C564 1.393 . S
C1113 C819 1.391 . S
C1128 C210 1.392 . S
C1163 C269 1.392 . S
C1178 C800 1.392 . S
C1213 C347 1.390 . S
C1228 C682 1.390 . S
C1263 C406 1.392 . S
C1278 C918 1.392 . S
C1313 C446 1.390 . S
C1328 C583 1.390 . S
C1363 C229 1.392 . S
C1378 C505 1.393 . S
C1413 C642 1.390 . S
C1428 C92 1.390 . S
C1463 C741 1.392 . S
C1478 C328 1.392 . S
C1513 C878 1.392 . S
C1528 C465 1.392 . S
C1563 C288 1.393 . S
C1578 C524 1.393 . S
C1613 C623 1.391 . S
C1628 C387 1.391 . S
C1663 C859 1.390 . S
C1678 C151 1.390 . S
C1713 C52 1.393 . S
C1728 C760 1.393 . S
C1763 C3 1.362 . S
C1778 C239 1.362 . S
C1813 C64 1.364 . S
C1828 C300 1.365 . S
C1863 C123 1.370 . S
C1878 C359 1.370 . S
C1913 C416 1.364 . S
C1928 C180 1.364 . S
C1963 C475 1.361 . S
C1978 C711 1.361 . S
C2013 C772 1.367 . S
C2028 C536 1.366 . S
C2063 C595 1.370 . S
C2078 C831 1.370 . S
C2113 C890 1.371 . S
C2128 C652 1.361 . S
C2163 C418 1.366 . S
C2178 C62 1.355 . S
C2213 C121 1.364 . S
C2228 C241 1.374 . S
C2263 C182 1.372 . S
C2278 C298 1.361 . S
C2313 C5 1.369 . S
C2328 C357 1.359 . S
C2363 C534 1.363 . S
C2378 C888 1.363 . S
C2413 C713 1.375 . S
C2428 C593 1.364 . S
C2463 C654 1.371 . S
C2478 C770 1.360 . S
C2513 C829 1.355 . S
C2528 C477 1.366 . S
