# Generated by pormake.
# Topology smd, (6)-cn, num edge types: 1
# Building blocks:
#     Node 0, Type 0, BuildingBlock: PAMTUU_clean_sbu_0, # of connection points: 6
#     Node 1, Type 0, BuildingBlock: PAMTUU_clean_sbu_0, # of connection points: 6
#     Node 2, Type 0, BuildingBlock: PAMTUU_clean_sbu_0, # of connection points: 6
#     Node 3, Type 0, BuildingBlock: PAMTUU_clean_sbu_0, # of connection points: 6
#     Node 4, Type 0, BuildingBlock: PAMTUU_clean_sbu_0, # of connection points: 6
#     Node 5, Type 0, BuildingBlock: PAMTUU_clean_sbu_0, # of connection points: 6
#     Node 6, Type 0, BuildingBlock: PAMTUU_clean_sbu_0, # of connection points: 6
#     Node 7, Type 0, BuildingBlock: PAMTUU_clean_sbu_0, # of connection points: 6
#     Node 8, Type 0, BuildingBlock: PAMTUU_clean_sbu_0, # of connection points: 6
#     Node 9, Type 0, BuildingBlock: PAMTUU_clean_sbu_0, # of connection points: 6
#     Node 10, Type 0, BuildingBlock: PAMTUU_clean_sbu_0, # of connection points: 6
#     Node 11, Type 0, BuildingBlock: PAMTUU_clean_sbu_0, # of connection points: 6
#     Node 12, Type 0, BuildingBlock: PAMTUU_clean_sbu_0, # of connection points: 6
#     Node 13, Type 0, BuildingBlock: PAMTUU_clean_sbu_0, # of connection points: 6
#     Node 14, Type 0, BuildingBlock: PAMTUU_clean_sbu_0, # of connection points: 6
#     Node 15, Type 0, BuildingBlock: PAMTUU_clean_sbu_0, # of connection points: 6
#     Node 16, Type 0, BuildingBlock: PAMTUU_clean_sbu_0, # of connection points: 6
#     Node 17, Type 0, BuildingBlock: PAMTUU_clean_sbu_0, # of connection points: 6
#     Edge 18, Type (0, 0), BuildingBlock: AJUNOK_clean_linker_0, # of connection points: 2
#     Edge 19, Type (0, 0), BuildingBlock: AJUNOK_clean_linker_0, # of connection points: 2
#     Edge 20, Type (0, 0), BuildingBlock: AJUNOK_clean_linker_0, # of connection points: 2
#     Edge 21, Type (0, 0), BuildingBlock: AJUNOK_clean_linker_0, # of connection points: 2
#     Edge 22, Type (0, 0), BuildingBlock: AJUNOK_clean_linker_0, # of connection points: 2
#     Edge 23, Type (0, 0), BuildingBlock: AJUNOK_clean_linker_0, # of connection points: 2
#     Edge 24, Type (0, 0), BuildingBlock: AJUNOK_clean_linker_0, # of connection points: 2
#     Edge 25, Type (0, 0), BuildingBlock: AJUNOK_clean_linker_0, # of connection points: 2
#     Edge 26, Type (0, 0), BuildingBlock: AJUNOK_clean_linker_0, # of connection points: 2
#     Edge 27, Type (0, 0), BuildingBlock: AJUNOK_clean_linker_0, # of connection points: 2
#     Edge 28, Type (0, 0), BuildingBlock: AJUNOK_clean_linker_0, # of connection points: 2
#     Edge 29, Type (0, 0), BuildingBlock: AJUNOK_clean_linker_0, # of connection points: 2
#     Edge 30, Type (0, 0), BuildingBlock: AJUNOK_clean_linker_0, # of connection points: 2
#     Edge 31, Type (0, 0), BuildingBlock: AJUNOK_clean_linker_0, # of connection points: 2
#     Edge 32, Type (0, 0), BuildingBlock: AJUNOK_clean_linker_0, # of connection points: 2
#     Edge 33, Type (0, 0), BuildingBlock: AJUNOK_clean_linker_0, # of connection points: 2
#     Edge 34, Type (0, 0), BuildingBlock: AJUNOK_clean_linker_0, # of connection points: 2
#     Edge 35, Type (0, 0), BuildingBlock: AJUNOK_clean_linker_0, # of connection points: 2
#     Edge 36, Type (0, 0), BuildingBlock: AJUNOK_clean_linker_0, # of connection points: 2
#     Edge 37, Type (0, 0), BuildingBlock: AJUNOK_clean_linker_0, # of connection points: 2
#     Edge 38, Type (0, 0), BuildingBlock: AJUNOK_clean_linker_0, # of connection points: 2
#     Edge 39, Type (0, 0), BuildingBlock: AJUNOK_clean_linker_0, # of connection points: 2
#     Edge 40, Type (0, 0), BuildingBlock: AJUNOK_clean_linker_0, # of connection points: 2
#     Edge 41, Type (0, 0), BuildingBlock: AJUNOK_clean_linker_0, # of connection points: 2
#     Edge 42, Type (0, 0), BuildingBlock: AJUNOK_clean_linker_0, # of connection points: 2
#     Edge 43, Type (0, 0), BuildingBlock: AJUNOK_clean_linker_0, # of connection points: 2
#     Edge 44, Type (0, 0), BuildingBlock: AJUNOK_clean_linker_0, # of connection points: 2
#     Edge 45, Type (0, 0), BuildingBlock: AJUNOK_clean_linker_0, # of connection points: 2
#     Edge 46, Type (0, 0), BuildingBlock: AJUNOK_clean_linker_0, # of connection points: 2
#     Edge 47, Type (0, 0), BuildingBlock: AJUNOK_clean_linker_0, # of connection points: 2
#     Edge 48, Type (0, 0), BuildingBlock: AJUNOK_clean_linker_0, # of connection points: 2
#     Edge 49, Type (0, 0), BuildingBlock: AJUNOK_clean_linker_0, # of connection points: 2
#     Edge 50, Type (0, 0), BuildingBlock: AJUNOK_clean_linker_0, # of connection points: 2
#     Edge 51, Type (0, 0), BuildingBlock: AJUNOK_clean_linker_0, # of connection points: 2
#     Edge 52, Type (0, 0), BuildingBlock: AJUNOK_clean_linker_0, # of connection points: 2
#     Edge 53, Type (0, 0), BuildingBlock: AJUNOK_clean_linker_0, # of connection points: 2
#     Edge 54, Type (0, 0), BuildingBlock: AJUNOK_clean_linker_0, # of connection points: 2
#     Edge 55, Type (0, 0), BuildingBlock: AJUNOK_clean_linker_0, # of connection points: 2
#     Edge 56, Type (0, 0), BuildingBlock: AJUNOK_clean_linker_0, # of connection points: 2
#     Edge 57, Type (0, 0), BuildingBlock: AJUNOK_clean_linker_0, # of connection points: 2
#     Edge 58, Type (0, 0), BuildingBlock: AJUNOK_clean_linker_0, # of connection points: 2
#     Edge 59, Type (0, 0), BuildingBlock: AJUNOK_clean_linker_0, # of connection points: 2
#     Edge 60, Type (0, 0), BuildingBlock: AJUNOK_clean_linker_0, # of connection points: 2
#     Edge 61, Type (0, 0), BuildingBlock: AJUNOK_clean_linker_0, # of connection points: 2
#     Edge 62, Type (0, 0), BuildingBlock: AJUNOK_clean_linker_0, # of connection points: 2
#     Edge 63, Type (0, 0), BuildingBlock: AJUNOK_clean_linker_0, # of connection points: 2
#     Edge 64, Type (0, 0), BuildingBlock: AJUNOK_clean_linker_0, # of connection points: 2
#     Edge 65, Type (0, 0), BuildingBlock: AJUNOK_clean_linker_0, # of connection points: 2
#     Edge 66, Type (0, 0), BuildingBlock: AJUNOK_clean_linker_0, # of connection points: 2
#     Edge 67, Type (0, 0), BuildingBlock: AJUNOK_clean_linker_0, # of connection points: 2
#     Edge 68, Type (0, 0), BuildingBlock: AJUNOK_clean_linker_0, # of connection points: 2
#     Edge 69, Type (0, 0), BuildingBlock: AJUNOK_clean_linker_0, # of connection points: 2
#     Edge 70, Type (0, 0), BuildingBlock: AJUNOK_clean_linker_0, # of connection points: 2
#     Edge 71, Type (0, 0), BuildingBlock: AJUNOK_clean_linker_0, # of connection points: 2
# Relax obj value: 0.250
# Max RMSD: 0.337
# Mean RMSD: 0.337
data_MOF--net-smd--node1-PAMTUU_clean_sbu_0--edge1-AJUNOK_clean_linker_0
_symmetry_space_group_name_H-M    P1
_symmetry_Int_Tables_number       1
_symmetry_cell_setting            triclinic
loop_
_symmetry_equiv_pos_as_xyz
'x, y, z'
_cell_length_a     46.54755
_cell_length_b     46.530912
_cell_length_c     20.759452
_cell_angle_alpha  90.050156
_cell_angle_beta   90.031395
_cell_angle_gamma 120.2748
loop_
_atom_site_label
_atom_site_type_symbol
_atom_site_fract_x
_atom_site_fract_y
_atom_site_fract_z
_atom_type_partial_charge
Tb0 Tb 0.0741 0.27596 0.60085 0.0
Tb1 Tb 1.02889 0.25227 0.47434 0.0
C2 C 0.09294 0.32094 0.47312 0.0
C3 C 0.09301 0.28924 0.77451 0.0
C4 C 0.07099 0.28063 0.90348 0.0
C5 C 0.10161 0.30835 0.88575 0.0
C6 C 0.11257 0.31257 0.82172 0.0
C7 C 0.06203 0.26204 0.79191 0.0
C8 C 0.05108 0.25785 0.85566 0.0
C9 C 0.10475 0.29336 0.7073 0.0
O10 O 0.04362 0.29854 0.60409 0.0
O11 O 0.99867 0.25747 0.55379 0.0
O12 O 1.01411 0.20651 0.52526 0.0
O13 O 1.02625 0.22929 0.6258 0.0
O14 O 1.00194 0.26237 0.40516 0.0
O15 O 1.005 0.21777 0.39987 0.0
O16 O 0.07644 0.25321 0.44954 0.0
O17 O 0.09079 0.24632 0.55123 0.0
O18 O 0.10489 0.31169 0.52218 0.0
O19 O 0.06106 0.30505 0.46188 0.0
C20 C 1.01142 0.28074 0.59925 0.0
O21 O 0.09756 0.26605 0.67687 0.0
O22 O 0.09922 0.31301 0.67147 0.0
C23 C 1.00927 0.2032 0.58737 0.0
C24 C 1.00847 0.24513 0.30182 0.0
C25 C 1.02951 0.25912 0.17237 0.0
C26 C 1.00295 0.26276 0.19431 0.0
C27 C 0.99237 0.2556 0.25855 0.0
C28 C 1.03584 0.24277 0.28024 0.0
C29 C 0.04612 0.24953 0.21613 0.0
C30 C 0.99712 0.23731 0.36939 0.0
C31 C 0.09443 0.24598 0.48896 0.0
H32 H 0.1174 0.32631 0.92168 0.0
H33 H 0.13643 0.33385 0.80918 0.0
H34 H 0.04623 0.24397 0.75617 0.0
H35 H 1.02703 0.2367 0.86763 0.0
H36 H 0.98989 0.27031 0.16144 0.0
H37 H 0.9715 0.258 0.27433 0.0
H38 H 0.04924 0.23548 0.31278 0.0
H39 H 0.06703 0.24714 0.20058 0.0
Tb40 Tb 0.81203 0.82534 0.60405 0.0
Tb41 Tb 0.83372 0.80051 0.47865 0.0
C42 C 0.76675 0.79969 0.47617 0.0
C43 C 0.80158 0.8323 0.77851 0.0
C44 C 0.80979 0.81664 0.90676 0.0
C45 C 0.79406 0.83519 0.8939 0.0
C46 C 0.78992 0.84283 0.83043 0.0
C47 C 0.81725 0.81381 0.79095 0.0
C48 C 0.8208 0.80558 0.85418 0.0
C49 C 0.79812 0.84116 0.71169 0.0
O50 O 0.78531 0.77187 0.60337 0.0
O51 O 0.82545 0.76477 0.56045 0.0
O52 O 0.87965 0.83198 0.52926 0.0
O53 O 0.8567 0.82126 0.6292 0.0
O54 O 0.82305 0.7626 0.4108 0.0
O55 O 0.86803 0.81008 0.40442 0.0
O56 O 0.83421 0.84745 0.45095 0.0
O57 O 0.8423 0.87062 0.55127 0.0
O58 O 0.77655 0.82107 0.52542 0.0
O59 O 0.78156 0.78273 0.46473 0.0
C60 C 0.80134 0.75573 0.60381 0.0
O61 O 0.82591 0.85917 0.68099 0.0
O62 O 0.77646 0.81708 0.67548 0.0
C63 C 0.88281 0.83036 0.59137 0.0
C64 C 0.84138 0.78499 0.3066 0.0
C65 C 0.82892 0.79153 0.17553 0.0
C66 C 0.83779 0.76799 0.19444 0.0
C67 C 0.84377 0.76462 0.25953 0.0
C68 C 0.83248 0.80845 0.28768 0.0
C69 C 0.82594 0.81143 0.22294 0.0
C70 C 0.84853 0.78212 0.37504 0.0
C71 C 0.84228 0.87351 0.48872 0.0
H72 H 0.78543 0.84431 0.93301 0.0
H73 H 0.77794 0.8573 0.82196 0.0
H74 H 0.82642 0.80536 0.75158 0.0
H75 H 0.83196 0.79031 0.86166 0.0
H76 H 0.84007 0.75222 0.15885 0.0
H77 H 0.85058 0.74634 0.273 0.0
H78 H 0.83102 0.8248 0.32296 0.0
H79 H 0.81939 0.82992 0.20966 0.0
Tb80 Tb 0.26365 1.01151 0.60528 0.0
Tb81 Tb 0.28352 0.0562 0.47876 0.0
C82 C 0.2947 0.99732 0.48119 0.0
C83 C 0.26155 0.99058 0.77735 0.0
C84 C 0.27755 1.0108 0.90734 0.0
C85 C 0.27058 0.97896 0.88763 0.0
C86 C 0.26261 0.96894 0.82313 0.0
C87 C 0.2695 1.0227 0.79658 0.0
C88 C 0.2772 0.03259 0.86087 0.0
C89 C 0.25173 0.97963 0.71002 0.0
O90 O 0.31609 0.04631 0.61671 0.0
O91 O 0.31924 0.08869 0.55611 0.0
O92 O 0.2546 0.07304 0.53049 0.0
O93 O 0.26288 0.05822 0.63092 0.0
O94 O 0.32054 0.08596 0.41182 0.0
O95 O 0.26976 0.07305 0.3968 0.0
O96 O 0.23774 1.00716 0.456 0.0
O97 O 0.21662 0.99452 0.55767 0.0
O98 O 0.2705 0.98279 0.52437 0.0
O99 O 0.31009 0.02957 0.47717 0.0
C100 C 0.33039 0.07801 0.60421 0.0
O101 O 0.23176 0.98823 0.68366 0.0
O102 O 0.27566 0.98455 0.6709 0.0
C103 C 0.25479 0.07614 0.59301 0.0
C104 C 0.30055 0.0758 0.30482 0.0
C105 C 0.29804 0.05467 0.17613 0.0
C106 C 0.30211 0.08615 0.18985 0.0
C107 C 0.30337 0.09659 0.25353 0.0
C108 C 0.29732 0.04466 0.29163 0.0
C109 C 0.29613 0.03419 0.22778 0.0
C110 C 0.29927 0.08616 0.37143 0.0
C111 C 0.21232 0.98995 0.49559 0.0
H112 H 0.27025 0.96144 0.92238 0.0
H113 H 0.25674 0.94411 0.80922 0.0
H114 H 0.26919 0.03997 0.76205 0.0
H115 H 0.28256 0.05727 0.87455 0.0
H116 H 0.30385 0.10255 0.15114 0.0
H117 H 0.30588 0.12068 0.26271 0.0
H118 H 0.29494 1.02815 0.33066 0.0
H119 H 0.2925 1.00963 0.21891 0.0
Tb120 Tb 0.06791 0.81684 0.60782 0.0
Tb121 Tb 1.02187 0.79456 0.4823 0.0
C122 C 0.08757 0.86672 0.49642 0.0
C123 C 0.09116 0.82119 0.77987 0.0
C124 C 0.07104 0.8075 0.91032 0.0
C125 C 0.103 0.83359 0.89392 0.0
C126 C 0.11289 0.84041 0.82938 0.0
C127 C 0.05968 0.79428 0.79598 0.0
C128 C 0.04978 0.78739 0.86066 0.0
C129 C 0.10071 0.83087 0.71198 0.0
O130 O 1.02098 0.81712 0.63397 0.0
O131 O 1.00567 0.82405 0.53307 0.0
O132 O 0.99084 0.75846 0.56066 0.0
O133 O 1.03489 0.76425 0.61964 0.0
O134 O 1.00152 0.80666 0.40365 0.0
O135 O 0.99464 0.7577 0.41242 0.0
O136 O 0.04985 0.76936 0.48414 0.0
O137 O 0.0967 0.81086 0.52533 0.0
O138 O 0.0835 0.86309 0.55863 0.0
O139 O 0.07026 0.8408 0.45773 0.0
C140 C 1.00301 0.82488 0.59545 0.0
O141 O 0.09705 0.80745 0.67257 0.0
O142 O 0.08982 0.84916 0.68659 0.0
C143 C 1.003 0.74851 0.60841 0.0
C144 C 1.00394 0.78079 0.30767 0.0
C145 C 1.02623 0.78709 0.17875 0.0
C146 C 0.99359 0.7627 0.19554 0.0
C147 C 0.98251 0.75968 0.25944 0.0
C148 C 1.03691 0.80431 0.29135 0.0
C149 C 0.04791 0.80742 0.22765 0.0
C150 C 0.99195 0.77847 0.37458 0.0
C151 C 0.08206 0.78655 0.4821 0.0
H152 H 0.12022 0.84908 0.93109 0.0
H153 H 0.13728 0.86121 0.81806 0.0
H154 H 0.04244 0.77914 0.7585 0.0
H155 H 1.02505 0.76711 0.87169 0.0
H156 H 0.97638 0.7466 0.15895 0.0
H157 H 0.95709 0.74113 0.27106 0.0
H158 H 0.05414 0.82047 0.32785 0.0
H159 H 0.0734 0.82593 0.21648 0.0
Tb160 Tb 0.26813 0.27518 0.60431 0.0
Tb161 Tb 0.2889 0.25021 0.47808 0.0
C162 C 0.21767 0.24563 0.49275 0.0
C163 C 0.26588 0.29653 0.77642 0.0
C164 C 0.28163 0.29366 0.90735 0.0
C165 C 0.25326 0.29543 0.89048 0.0
C166 C 0.24551 0.29687 0.82577 0.0
C167 C 0.29465 0.29548 0.79289 0.0
C168 C 0.30249 0.29415 0.85772 0.0
C169 C 0.25576 0.29536 0.70841 0.0
O170 O 0.26601 0.22705 0.6298 0.0
O171 O 0.25989 0.20414 0.52919 0.0
O172 O 0.32378 0.2534 0.55689 0.0
O173 O 0.32055 0.29317 0.6158 0.0
O174 O 0.27658 0.21931 0.39665 0.0
O175 O 0.32639 0.26001 0.40988 0.0
O176 O 0.31571 0.30356 0.48212 0.0
O177 O 0.27499 0.31008 0.52192 0.0
O178 O 0.22133 0.2458 0.55513 0.0
O179 O 0.24321 0.25308 0.45401 0.0
C180 C 0.25844 0.20107 0.5918 0.0
O181 O 0.27893 0.31463 0.66795 0.0
O182 O 0.23695 0.26574 0.68444 0.0
C183 C 0.33475 0.27564 0.60461 0.0
C184 C 0.30482 0.24976 0.3037 0.0
C185 C 0.30193 0.26996 0.1763 0.0
C186 C 0.32597 0.26149 0.19365 0.0
C187 C 0.32732 0.25138 0.25678 0.0
C188 C 0.28163 0.2594 0.28696 0.0
C189 C 0.28006 0.26917 0.2239 0.0
C190 C 0.30543 0.23791 0.36966 0.0
C191 C 0.2994 0.31931 0.47945 0.0
H192 H 0.23678 0.29531 0.92744 0.0
H193 H 0.22319 0.29762 0.81423 0.0
H194 H 0.31065 0.29498 0.75561 0.0
H195 H 0.32425 0.29234 0.86887 0.0
H196 H 0.34299 0.26164 0.15792 0.0
H197 H 0.34562 0.24438 0.26872 0.0
H198 H 0.26437 0.25896 0.32247 0.0
H199 H 0.26149 0.27583 0.21211 0.0
Tb200 Tb 0.81144 1.01441 0.59978 0.0
Tb201 Tb 0.83205 0.05957 0.47382 0.0
C202 C 0.84085 0.99577 0.48638 0.0
C203 C 0.79307 0.98875 0.77097 0.0
C204 C 0.79577 1.00649 0.90215 0.0
C205 C 0.7994 0.97935 0.88403 0.0
C206 C 0.79798 0.97053 0.81911 0.0
C207 C 0.78906 1.01568 0.78883 0.0
C208 C 0.79027 1.02439 0.85385 0.0
C209 C 0.79404 0.98052 0.70251 0.0
O210 O 0.85837 0.06199 0.62507 0.0
O211 O 0.87899 0.07977 0.52338 0.0
O212 O 0.82723 0.09084 0.55155 0.0
O213 O 0.79291 0.04768 0.61785 0.0
O214 O 0.86362 0.08183 0.39441 0.0
O215 O 0.81796 0.08243 0.40282 0.0
O216 O 0.77884 0.03184 0.47918 0.0
O217 O 0.77452 0.98535 0.52026 0.0
O218 O 0.84319 1.00114 0.54827 0.0
O219 O 0.83022 1.01158 0.44887 0.0
C220 C 0.88319 0.08164 0.58581 0.0
O221 O 0.77342 0.98309 0.66372 0.0
O222 O 0.82355 0.99328 0.67722 0.0
C223 C 0.80737 0.07917 0.60288 0.0
C224 C 0.83303 0.0746 0.29854 0.0
C225 C 0.81618 0.05046 0.17078 0.0
C226 C 0.81582 0.07929 0.19001 0.0
C227 C 0.82419 0.09124 0.25334 0.0
C228 C 0.83253 0.04531 0.27982 0.0
C229 C 0.82441 0.03351 0.21656 0.0
C230 C 0.84236 0.08767 0.36497 0.0
C231 C 0.76283 0.99957 0.48101 0.0
H232 H 0.80361 0.96509 0.92016 0.0
H233 H 0.80128 0.94979 0.80639 0.0
H234 H 0.78563 0.03038 0.7525 0.0
H235 H 0.78799 0.04578 0.86616 0.0
H236 H 0.80993 0.09309 0.15567 0.0
H237 H 0.8241 0.1137 0.26685 0.0
H238 H 0.83871 0.03165 0.31393 0.0
H239 H 0.82463 1.0111 0.20332 0.0
Tb240 Tb 0.73846 0.61057 0.93755 0.0
Tb241 Tb 0.69342 0.58453 0.81203 0.0
C242 C 0.75765 0.65435 0.80816 0.0
C243 C 0.75444 0.62534 0.11297 0.0
C244 C 0.73176 0.61514 0.24185 0.0
C245 C 0.76261 0.6429 0.22529 0.0
C246 C 0.77389 0.64788 0.16139 0.0
C247 C 0.72311 0.59828 0.12901 0.0
C248 C 0.71192 0.59319 0.1928 0.0
C249 C 0.7669 0.6301 0.04613 0.0
O250 O 0.71091 0.63585 0.92714 0.0
O251 O 0.66433 0.59196 0.89204 0.0
O252 O 0.67993 0.53956 0.86415 0.0
O253 O 0.69051 0.5638 0.96298 0.0
O254 O 0.66219 0.59067 0.74719 0.0
O255 O 0.67227 0.55067 0.73522 0.0
O256 O 0.74096 0.58501 0.78805 0.0
O257 O 0.75834 0.58311 0.89049 0.0
O258 O 0.76963 0.64645 0.85931 0.0
O259 O 0.72619 0.63664 0.79323 0.0
C260 C 0.67874 0.61855 0.92997 0.0
O261 O 0.76259 0.60355 1.01644 0.0
O262 O 0.75932 0.64781 1.00908 0.0
C263 C 0.67454 0.53691 0.92597 0.0
C264 C 0.66843 0.57638 0.64081 0.0
C265 C 0.68761 0.59028 0.51014 0.0
C266 C 0.65747 0.56176 0.5274 0.0
C267 C 0.64804 0.55486 0.59213 0.0
C268 C 0.69807 0.60543 0.62375 0.0
C269 C 0.70748 0.6124 0.55895 0.0
C270 C 0.65965 0.56726 0.70902 0.0
C271 C 0.76036 0.58007 0.82834 0.0
H272 H 0.77835 0.66029 0.26202 0.0
H273 H 0.79798 0.66911 0.14992 0.0
H274 H 0.7074 0.58086 0.0923 0.0
H275 H 0.68774 0.572 0.20386 0.0
H276 H 0.64131 0.5446 0.4908 0.0
H277 H 0.62508 0.53236 0.60426 0.0
H278 H 0.7143 0.62235 0.66057 0.0
H279 H 0.73082 0.63454 0.54719 0.0
Tb280 Tb 0.47479 0.15328 0.93598 0.0
Tb281 Tb 0.4994 0.13241 0.80978 0.0
C282 C 0.43083 0.12665 0.80756 0.0
C283 C 0.45952 0.15603 0.10996 0.0
C284 C 0.46599 0.13966 0.23851 0.0
C285 C 0.44783 0.15563 0.22428 0.0
C286 C 0.44445 0.16351 0.16058 0.0
C287 C 0.47785 0.14035 0.12385 0.0
C288 C 0.48082 0.132 0.18729 0.0
C289 C 0.45693 0.1654 0.04315 0.0
O290 O 0.45052 0.09999 0.93306 0.0
O291 O 0.49261 0.09623 0.88925 0.0
O292 O 0.54471 0.16238 0.86307 0.0
O293 O 0.52068 0.1512 0.96243 0.0
O294 O 0.49091 0.09532 0.74154 0.0
O295 O 0.53314 0.14471 0.73334 0.0
O296 O 0.49802 0.17889 0.78548 0.0
O297 O 0.5045 0.20005 0.8873 0.0
O298 O 0.43992 0.1487 0.85542 0.0
O299 O 0.44635 0.11009 0.80061 0.0
C300 C 0.46797 0.08533 0.93182 0.0
O301 O 0.48507 0.18529 1.015 0.0
O302 O 0.43716 0.14121 1.00496 0.0
C303 C 0.54716 0.16037 0.92531 0.0
C304 C 0.50675 0.11753 0.63676 0.0
C305 C 0.49056 0.1203 0.50661 0.0
C306 C 0.50302 0.09961 0.52529 0.0
C307 C 0.51077 0.09802 0.59003 0.0
C308 C 0.49467 0.13849 0.61788 0.0
C309 C 0.48628 0.13957 0.55355 0.0
C310 C 0.51524 0.11611 0.70483 0.0
C311 C 0.505 0.20411 0.82503 0.0
H312 H 0.43689 0.16283 0.26247 0.0
H313 H 0.43052 0.17595 0.15098 0.0
H314 H 0.49002 0.13468 0.08556 0.0
H315 H 0.49488 0.11964 0.19627 0.0
H316 H 0.50656 0.08457 0.48985 0.0
H317 H 0.52011 0.08174 0.60354 0.0
H318 H 0.49171 0.15405 0.65297 0.0
H319 H 0.47705 0.15596 0.54019 0.0
Tb320 Tb 0.93147 0.34152 0.93725 0.0
Tb321 Tb 0.95555 0.38777 0.81181 0.0
C322 C 0.95878 0.32333 0.81084 0.0
C323 C 0.92869 0.32311 0.1113 0.0
C324 C 0.94767 0.34484 0.24015 0.0
C325 C 0.94501 0.31491 0.21814 0.0
C326 C 0.93529 0.30402 0.15461 0.0
C327 C 0.93253 0.35359 0.13237 0.0
C328 C 0.94172 0.36422 0.19605 0.0
C329 C 0.91835 0.31142 0.0443 0.0
O330 O 0.98489 0.36992 0.93569 0.0
O331 O 0.99063 0.41672 0.89415 0.0
O332 O 0.92643 0.40484 0.86233 0.0
O333 O 0.9336 0.38955 0.96298 0.0
O334 O 0.99421 0.41743 0.74733 0.0
O335 O 0.94459 0.40826 0.73157 0.0
O336 O 0.90785 0.34058 0.78636 0.0
O337 O 0.88522 0.32414 0.88687 0.0
O338 O 0.93602 0.31107 0.85749 0.0
O339 O 0.97572 0.35531 0.80095 0.0
C340 C 1.00013 0.40216 0.93756 0.0
O341 O 0.89944 0.3209 1.01645 0.0
O342 O 0.94148 0.31403 1.00544 0.0
C343 C 0.92613 0.4078 0.92486 0.0
C344 C 0.97503 0.41046 0.63891 0.0
C345 C 0.97152 0.38992 0.50897 0.0
C346 C 0.9671 0.41685 0.5248 0.0
C347 C 0.96875 0.42693 0.58906 0.0
C348 C 0.98042 0.38414 0.62314 0.0
C349 C 0.97884 0.3741 0.55883 0.0
C350 C 0.97411 0.41989 0.70686 0.0
C351 C 0.88197 0.32186 0.82441 0.0
H352 H 0.95051 0.29988 0.24994 0.0
H353 H 0.93315 0.28077 0.13918 0.0
H354 H 0.92809 0.36911 0.09977 0.0
H355 H 0.94345 0.38733 0.21111 0.0
H356 H 0.96134 0.4295 0.48762 0.0
H357 H 0.96442 0.44721 0.59998 0.0
H358 H 0.98534 0.37099 0.66057 0.0
H359 H 0.98302 0.35372 0.54813 0.0
Tb360 Tb 0.73536 0.15232 0.93449 0.0
Tb361 Tb 0.68818 0.12964 0.81062 0.0
C362 C 0.75469 0.20154 0.82212 0.0
C363 C 0.75622 0.15796 0.10815 0.0
C364 C 0.73531 0.14394 0.23859 0.0
C365 C 0.76926 0.16415 0.22279 0.0
C366 C 0.77958 0.17079 0.15829 0.0
C367 C 0.72235 0.13833 0.12349 0.0
C368 C 0.71205 0.13103 0.18779 0.0
C369 C 0.76703 0.16622 1.0403 0.0
O370 O 0.68775 0.15076 0.96247 0.0
O371 O 0.67312 0.15981 0.86292 0.0
O372 O 0.65868 0.0942 0.8915 0.0
O373 O 0.70494 0.09905 0.93676 0.0
O374 O 0.66645 0.14191 0.73477 0.0
O375 O 0.66035 0.09308 0.74049 0.0
O376 O 0.71734 0.1056 0.80657 0.0
O377 O 0.76418 0.14614 0.85224 0.0
O378 O 0.75129 0.19854 0.88448 0.0
O379 O 0.73655 0.17538 0.78452 0.0
C380 C 0.66975 0.15903 0.92534 0.0
O381 O 0.76198 0.14151 1.00317 0.0
O382 O 0.75831 0.18551 1.01167 0.0
C383 C 0.67264 0.08424 0.93556 0.0
C384 C 0.66835 0.11729 0.63682 0.0
C385 C 0.69024 0.12368 0.50749 0.0
C386 C 0.65693 0.10112 0.52387 0.0
C387 C 0.64613 0.09785 0.58799 0.0
C388 C 0.7016 0.13996 0.6205 0.0
C389 C 0.71243 0.14307 0.55661 0.0
C390 C 0.65693 0.11405 0.70441 0.0
C391 C 0.74969 0.12259 0.80717 0.0
H392 H 0.78789 0.17558 0.26019 0.0
H393 H 0.8058 0.1865 0.14763 0.0
H394 H 0.7038 0.12892 0.08565 0.0
H395 H 0.68575 0.11538 0.19767 0.0
H396 H 0.63929 0.0858 0.48708 0.0
H397 H 0.62041 0.08019 0.59942 0.0
H398 H 0.71927 0.1552 0.65728 0.0
H399 H 0.73811 0.16099 0.54549 0.0
Tb400 Tb 0.93107 0.60227 0.93836 0.0
Tb401 Tb 0.95132 0.57726 0.81246 0.0
C402 C 0.88022 0.57219 0.8285 0.0
C403 C 0.92813 0.62104 0.11082 0.0
C404 C 0.94375 0.61588 0.24066 0.0
C405 C 0.91857 0.62312 0.22555 0.0
C406 C 0.91089 0.6257 0.16129 0.0
C407 C 0.95366 0.61435 0.12551 0.0
C408 C 0.96139 0.6118 0.18978 0.0
C409 C 0.91794 0.62104 0.04337 0.0
O410 O 0.93278 0.5562 0.96536 0.0
O411 O 0.92207 0.53209 0.86591 0.0
O412 O 0.98874 0.58402 0.88953 0.0
O413 O 0.98387 0.62343 0.94592 0.0
O414 O 0.93718 0.54339 0.7356 0.0
O415 O 0.98702 0.5849 0.74161 0.0
O416 O 0.9767 0.63067 0.80876 0.0
O417 O 0.93715 0.63733 0.85643 0.0
O418 O 0.88432 0.57106 0.8904 0.0
O419 O 0.9057 0.58044 0.7891 0.0
C420 C 0.9238 0.52971 0.92815 0.0
O421 O 0.94118 0.64092 1.0037 0.0
O422 O 0.89933 0.59178 1.01785 0.0
C423 C 0.99949 0.60724 0.93551 0.0
C424 C 0.96294 0.56945 0.63773 0.0
C425 C 0.9597 0.58724 0.50858 0.0
C426 C 0.983 0.57796 0.52708 0.0
C427 C 0.98467 0.56928 0.59111 0.0
C428 C 0.9394 0.57836 0.61925 0.0
C429 C 0.9378 0.58715 0.55539 0.0
C430 C 0.96527 0.56087 0.70545 0.0
C431 C 0.96027 0.64639 0.8108 0.0
H432 H 0.90399 0.62567 0.26337 0.0
H433 H 0.8909 0.63055 0.151 0.0
H434 H 0.96719 0.61047 0.08726 0.0
H435 H 0.98096 0.60628 0.19971 0.0
H436 H 1.0002 0.57782 0.49214 0.0
H437 H 1.00306 0.56257 0.60429 0.0
H438 H 0.92243 0.57884 0.65434 0.0
H439 H 0.91921 0.59361 0.54251 0.0
Tb440 Tb 0.47584 0.34863 0.9405 0.0
Tb441 Tb 0.49741 0.3927 0.81192 0.0
C442 C 0.50507 0.32783 0.82792 0.0
C443 C 0.45468 0.32678 0.11279 0.0
C444 C 0.45374 0.34688 0.24118 0.0
C445 C 0.45901 0.3202 0.22793 0.0
C446 C 0.45943 0.31026 0.16446 0.0
C447 C 0.44871 0.35299 0.12562 0.0
C448 C 0.44789 0.36271 0.18921 0.0
C449 C 0.45755 0.31736 0.04611 0.0
O450 O 0.52333 0.39626 0.96342 0.0
O451 O 0.54435 0.41182 0.86137 0.0
O452 O 0.49352 0.42391 0.8905 0.0
O453 O 0.45459 0.38028 0.94891 0.0
O454 O 0.52775 0.41279 0.73037 0.0
O455 O 0.48569 0.41943 0.74522 0.0
O456 O 0.44411 0.36159 0.81061 0.0
O457 O 0.44094 0.3173 0.86097 0.0
O458 O 0.50542 0.33192 0.89031 0.0
O459 O 0.49702 0.34526 0.78868 0.0
C460 C 0.54847 0.4148 0.92383 0.0
O461 O 0.43716 0.31792 1.00376 0.0
O462 O 0.48767 0.33066 1.02342 0.0
C463 C 0.47131 0.41215 0.93786 0.0
C464 C 0.49665 0.41061 0.63794 0.0
C465 C 0.47532 0.38968 0.50988 0.0
C466 C 0.47406 0.41687 0.53641 0.0
C467 C 0.48469 0.42725 0.59978 0.0
C468 C 0.49704 0.38287 0.61205 0.0
C469 C 0.48648 0.37254 0.54882 0.0
C470 C 0.5082 0.42209 0.70458 0.0
C471 C 0.43005 0.32944 0.81536 0.0
H472 H 0.46384 0.3076 0.26664 0.0
H473 H 0.4642 0.29008 0.15566 0.0
H474 H 0.44516 0.36627 0.08651 0.0
H475 H 0.443 0.38282 0.19759 0.0
H476 H 0.46495 0.43018 0.50811 0.0
H477 H 0.48372 0.44842 0.61892 0.0
H478 H 0.50564 0.36918 0.64053 0.0
H479 H 0.48781 0.35155 0.52982 0.0
Tb480 Tb 0.40175 0.94563 0.27032 0.0
Tb481 Tb 0.35711 0.91773 0.14343 0.0
C482 C 0.42284 0.98631 0.13828 0.0
C483 C 0.41634 0.96536 0.44471 0.0
C484 C 0.39284 0.95823 0.57272 0.0
C485 C 0.42447 0.98475 0.5559 0.0
C486 C 0.43611 0.98824 0.49241 0.0
C487 C 0.38431 0.93959 0.46087 0.0
C488 C 0.37277 0.93595 0.52427 0.0
C489 C 0.42936 0.96814 0.37866 0.0
O490 O 0.37393 0.97003 0.25261 0.0
O491 O 0.32769 0.92498 0.2226 0.0
O492 O 0.3411 0.87311 0.19873 0.0
O493 O 0.35444 0.89864 0.29732 0.0
O494 O 0.32534 0.92379 0.08 0.0
O495 O 0.33759 0.88553 0.06371 0.0
O496 O 0.40295 0.91413 0.1239 0.0
O497 O 0.42077 0.91651 0.22799 0.0
O498 O 0.43416 0.97859 0.19049 0.0
O499 O 0.39122 0.96968 0.12405 0.0
C500 C 0.342 0.95217 0.25862 0.0
O501 O 0.42511 0.94074 0.35292 0.0
O502 O 0.42224 0.98483 0.33791 0.0
C503 C 0.33754 0.87146 0.26123 0.0
C504 C 0.33262 0.91259 0.97205 0.0
C505 C 0.35032 0.93092 0.84185 0.0
C506 C 0.32046 0.90175 0.85776 0.0
C507 C 0.31169 0.89273 0.9222 0.0
C508 C 0.36224 0.94202 0.95656 0.0
C509 C 0.37098 0.95114 0.89206 0.0
C510 C 0.32399 0.90169 1.03963 0.0
C511 C 0.42188 0.91007 0.16694 0.0
H512 H 0.44064 1.00211 0.59222 0.0
H513 H 0.4608 1.00846 0.48085 0.0
H514 H 0.36842 0.92191 0.42469 0.0
H515 H 0.3482 0.91546 0.53565 0.0
H516 H 0.30399 0.88573 0.8202 0.0
H517 H 0.28878 0.86992 0.93308 0.0
H518 H 0.37892 0.95764 0.99426 0.0
H519 H 0.39443 0.97342 0.8815 0.0
Tb520 Tb 0.14589 0.49023 0.27222 0.0
Tb521 Tb 0.16915 0.4687 0.14543 0.0
C522 C 0.0992 0.45978 0.14712 0.0
C523 C 0.13344 0.49977 0.44603 0.0
C524 C 0.14088 0.48853 0.57753 0.0
C525 C 0.10905 0.47497 0.54986 0.0
C526 C 0.10538 0.48068 0.48484 0.0
C527 C 0.16525 0.513 0.47364 0.0
C528 C 0.16889 0.50741 0.53847 0.0
C529 C 0.12937 0.50559 0.37717 0.0
O530 O 0.12621 0.43763 0.28489 0.0
O531 O 0.16425 0.4328 0.22378 0.0
O532 O 0.21483 0.50045 0.19627 0.0
O533 O 0.19278 0.48993 0.2972 0.0
O534 O 0.1617 0.43195 0.0775 0.0
O535 O 0.20269 0.48209 0.06818 0.0
O536 O 0.16552 0.51377 0.12062 0.0
O537 O 0.17616 0.53624 0.22123 0.0
O538 O 0.10859 0.48222 0.19418 0.0
O539 O 0.11615 0.445 0.13627 0.0
C540 C 0.14259 0.42238 0.27234 0.0
O541 O 0.15637 0.5253 0.34537 0.0
O542 O 0.10933 0.47956 0.34305 0.0
C543 C 0.21858 0.49904 0.25824 0.0
C544 C 0.1766 0.45458 0.97193 0.0
C545 C 0.16254 0.46323 0.84333 0.0
C546 C 0.19517 0.47288 0.86231 0.0
C547 C 0.20209 0.4685 0.92592 0.0
C548 C 0.14376 0.44419 0.95276 0.0
C549 C 0.13677 0.44824 0.88878 0.0
C550 C 0.18525 0.45334 1.04004 0.0
C551 C 0.17433 0.53963 0.15927 0.0
H552 H 0.08699 0.46029 0.5787 0.0
H553 H 0.08058 0.47016 0.46485 0.0
H554 H 0.18748 0.52749 0.44516 0.0
H555 H 0.19376 0.51739 0.55775 0.0
H556 H 0.2154 0.48418 0.82797 0.0
H557 H 0.22756 0.47674 0.93958 0.0
H558 H 0.12362 0.43365 0.98738 0.0
H559 H 0.11143 0.44068 0.87531 0.0
Tb560 Tb 0.59656 0.67855 0.27105 0.0
Tb561 Tb 0.62206 0.724 0.14534 0.0
C562 C 0.63158 0.66522 0.15256 0.0
C563 C 0.5838 0.65106 0.44178 0.0
C564 C 0.59513 0.66668 0.5749 0.0
C565 C 0.59352 0.63766 0.55024 0.0
C566 C 0.58802 0.63002 0.48431 0.0
C567 C 0.58485 0.67968 0.46636 0.0
C568 C 0.59021 0.68724 0.53205 0.0
C569 C 0.57864 0.64324 0.37209 0.0
O570 O 0.64743 0.71463 0.29537 0.0
O571 O 0.6576 0.75615 0.22306 0.0
O572 O 0.5968 0.74562 0.19537 0.0
O573 O 0.59608 0.72535 0.29685 0.0
O574 O 0.65902 0.74686 0.07424 0.0
O575 O 0.61204 0.74481 0.06448 0.0
O576 O 0.57559 0.67578 0.12089 0.0
O577 O 0.55174 0.66659 0.21948 0.0
O578 O 0.60518 0.65046 0.19071 0.0
O579 O 0.64839 0.69744 0.15485 0.0
C580 C 0.66471 0.7458 0.27757 0.0
O581 O 0.56027 0.65263 0.34167 0.0
O582 O 0.60501 0.64983 0.33883 0.0
C583 C 0.5931 0.74641 0.25775 0.0
C584 C 0.63584 0.73834 0.96946 0.0
C585 C 0.62437 0.7125 0.84256 0.0
C586 C 0.62983 0.74464 0.85479 0.0
C587 C 0.63558 0.75743 0.91753 0.0
C588 C 0.63075 0.70633 0.95755 0.0
C589 C 0.62524 0.69358 0.89459 0.0
C590 C 0.63955 0.7514 1.03579 0.0
C591 C 0.5488 0.6605 0.15788 0.0
H592 H 0.5961 0.62061 0.58186 0.0
H593 H 0.58707 0.60766 0.46653 0.0
H594 H 0.58176 0.69643 0.4347 0.0
H595 H 0.59117 0.70971 0.54907 0.0
H596 H 0.62945 0.75984 0.81568 0.0
H597 H 0.63929 0.78208 0.92563 0.0
H598 H 0.63039 0.69096 0.99703 0.0
H599 H 0.62068 0.66859 0.8869 0.0
Tb600 Tb 0.40524 0.48816 0.27209 0.0
Tb601 Tb 0.35976 0.4639 0.14543 0.0
C602 C 0.42479 0.53672 0.15791 0.0
C603 C 0.4286 0.49397 0.44416 0.0
C604 C 0.40873 0.47997 0.57433 0.0
C605 C 0.44032 0.50669 0.55801 0.0
C606 C 0.45012 0.51364 0.4935 0.0
C607 C 0.39748 0.46653 0.46024 0.0
C608 C 0.38771 0.45948 0.52486 0.0
C609 C 0.43794 0.50356 0.37637 0.0
O610 O 0.35756 0.48694 0.29681 0.0
O611 O 0.34299 0.49345 0.19501 0.0
O612 O 0.32938 0.42774 0.22391 0.0
O613 O 0.37418 0.43526 0.28226 0.0
O614 O 0.33635 0.47328 0.06842 0.0
O615 O 0.33525 0.42668 0.07478 0.0
O616 O 0.38959 0.44064 0.1455 0.0
O617 O 0.43507 0.4826 0.19221 0.0
O618 O 0.42064 0.53371 0.22021 0.0
O619 O 0.40756 0.5105 0.11987 0.0
C620 C 0.3397 0.49432 0.25733 0.0
O621 O 0.43509 0.48024 0.33757 0.0
O622 O 0.42605 0.52089 0.35055 0.0
C623 C 0.3423 0.41835 0.27101 0.0
C624 C 0.3414 0.44995 0.97114 0.0
C625 C 0.36369 0.4583 0.84206 0.0
C626 C 0.33257 0.43116 0.85954 0.0
C627 C 0.32152 0.42706 0.92356 0.0
C628 C 0.37284 0.47653 0.95406 0.0
C629 C 0.38392 0.48055 0.89036 0.0
C630 C 0.32952 0.44599 1.03836 0.0
C631 C 0.42181 0.4584 0.1486 0.0
H632 H 0.45726 0.52254 0.5952 0.0
H633 H 0.47423 0.53486 0.48207 0.0
H634 H 0.38042 0.45108 0.42278 0.0
H635 H 0.36324 0.43875 0.53602 0.0
H636 H 0.31648 0.41355 0.82345 0.0
H637 H 0.29731 0.40621 0.93579 0.0
H638 H 0.3889 0.49422 0.99006 0.0
H639 H 0.40839 0.50116 0.87886 0.0
Tb640 Tb 0.59727 0.94085 0.27053 0.0
Tb641 Tb 0.61762 0.91691 0.145 0.0
C642 C 0.54379 0.90549 0.1656 0.0
C643 C 0.59616 0.95867 0.44513 0.0
C644 C 0.60978 0.95153 0.57492 0.0
C645 C 0.58832 0.96358 0.55946 0.0
C646 C 0.58155 0.96704 0.49518 0.0
C647 C 0.61856 0.94775 0.46014 0.0
C648 C 0.62548 0.94441 0.52457 0.0
C649 C 0.58669 0.96003 0.37789 0.0
O650 O 0.60127 0.89589 0.29695 0.0
O651 O 0.589 0.87139 0.19788 0.0
O652 O 0.65522 0.92627 0.22467 0.0
O653 O 0.65004 0.96848 0.25776 0.0
O654 O 0.60657 0.88374 0.06777 0.0
O655 O 0.65559 0.92636 0.07858 0.0
O656 O 0.63467 0.96869 0.12759 0.0
O657 O 0.59773 0.97424 0.19112 0.0
O658 O 0.55033 0.9077 0.22704 0.0
O659 O 0.56824 0.91356 0.12333 0.0
C660 C 0.59159 0.86913 0.25996 0.0
O661 O 0.61066 0.97897 0.33891 0.0
O662 O 0.56647 0.93154 0.35126 0.0
C663 C 0.66616 0.95273 0.26269 0.0
C664 C 0.63408 0.91201 0.9732 0.0
C665 C 0.62881 0.92743 0.84368 0.0
C666 C 0.64839 0.91333 0.86004 0.0
C667 C 0.65087 0.90554 0.92432 0.0
C668 C 0.61557 0.92727 0.95728 0.0
C669 C 0.61291 0.93485 0.89315 0.0
C670 C 0.63532 0.90241 1.04043 0.0
C671 C 0.61838 0.98398 0.1409 0.0
H672 H 0.57643 0.96994 0.5972 0.0
H673 H 0.56437 0.97569 0.48455 0.0
H674 H 0.63007 0.94111 0.42209 0.0
H675 H 0.64218 0.93517 0.53501 0.0
H676 H 0.66095 0.90744 0.82289 0.0
H677 H 0.66547 0.89401 0.93573 0.0
H678 H 0.60277 0.9329 0.99441 0.0
H679 H 0.59818 0.94629 0.88212 0.0
Tb680 Tb 0.14239 0.68175 0.2712 0.0
Tb681 Tb 0.16747 0.72832 0.14616 0.0
C682 C 0.17349 0.66262 0.16041 0.0
C683 C 0.12343 0.65989 0.44373 0.0
C684 C 0.12926 0.68068 0.57388 0.0
C685 C 0.12301 0.64856 0.55828 0.0
C686 C 0.12009 0.6383 0.49394 0.0
C687 C 0.12904 0.69179 0.45892 0.0
C688 C 0.13185 0.70205 0.52338 0.0
C689 C 0.12323 0.64973 0.37608 0.0
O690 O 0.1888 0.72933 0.29913 0.0
O691 O 0.21278 0.74507 0.19965 0.0
O692 O 0.16151 0.75872 0.22453 0.0
O693 O 0.12153 0.71359 0.27829 0.0
O694 O 0.20074 0.74905 0.0687 0.0
O695 O 0.15858 0.75592 0.07632 0.0
O696 O 0.11402 0.69894 0.14361 0.0
O697 O 0.10807 0.65246 0.18827 0.0
O698 O 0.17312 0.66608 0.22273 0.0
O699 O 0.16576 0.68037 0.12149 0.0
C700 C 0.21514 0.7478 0.26223 0.0
O701 O 0.10358 0.65334 0.33635 0.0
O702 O 0.15238 0.66011 0.35063 0.0
C703 C 0.13823 0.74573 0.2701 0.0
C704 C 0.17336 0.74743 0.97179 0.0
C705 C 0.15604 0.72569 0.84255 0.0
C706 C 0.16483 0.75831 0.86062 0.0
C707 C 0.17338 0.76904 0.92464 0.0
C708 C 0.16435 0.71478 0.95399 0.0
C709 C 0.15587 0.70408 0.89013 0.0
C710 C 0.18247 0.75884 1.03926 0.0
C711 C 0.09894 0.66663 0.14324 0.0
H712 H 0.12074 0.63146 0.59598 0.0
H713 H 0.1159 0.61367 0.48335 0.0
H714 H 0.13202 0.70903 0.4209 0.0
H715 H 0.1372 0.72712 0.53355 0.0
H716 H 0.16573 0.77575 0.82503 0.0
H717 H 0.18019 0.79429 0.93725 0.0
H718 H 0.16374 0.69747 0.98956 0.0
H719 H 0.14898 0.67876 0.87798 0.0
C720 C 0.12052 0.36237 0.30734 0.0
C721 C 0.13866 0.39663 0.32147 0.0
C722 C 0.10833 0.33809 0.35698 0.0
C723 C 0.11406 0.34668 0.42326 0.0
H724 H 0.11354 0.35429 0.25796 0.0
H725 H 0.09263 0.31223 0.34339 0.0
S726 S 0.16123 0.43269 0.48644 0.0
N727 N 0.16217 0.43763 0.4075 0.0
N728 N 0.14049 0.39215 0.49925 0.0
C729 C 0.13368 0.38066 0.43777 0.0
C730 C 0.14552 0.40545 0.38744 0.0
C731 C 0.74947 0.79667 0.35999 0.0
C732 C 0.74132 0.79555 0.42614 0.0
C733 C 0.72503 0.78382 0.31069 0.0
C734 C 0.69096 0.76863 0.3252 0.0
H735 H 0.77505 0.80592 0.34645 0.0
H736 H 0.73277 0.78346 0.26164 0.0
S737 S 0.65617 0.7622 0.48943 0.0
N738 N 0.69667 0.78077 0.50196 0.0
N739 N 0.65064 0.75548 0.41102 0.0
C740 C 0.68261 0.76904 0.39081 0.0
C741 C 0.70766 0.78282 0.44068 0.0
C742 C 0.33778 0.99823 0.40834 0.0
C743 C 0.30491 0.98011 0.43156 0.0
C744 C 0.34827 0.98887 0.35288 0.0
C745 C 0.32694 0.96019 0.31636 0.0
H746 H 0.35577 1.02091 0.4324 0.0
H747 H 0.37389 1.00501 0.3385 0.0
S748 S 0.23844 0.90172 0.3578 0.0
N749 N 0.25094 0.93057 0.41456 0.0
N750 N 0.27091 0.91242 0.31056 0.0
C751 C 0.29407 0.94077 0.33997 0.0
C752 C 0.28313 0.95068 0.39728 0.0
C753 C 0.38944 0.10296 0.64103 0.0
C754 C 0.35828 0.10035 0.64916 0.0
C755 C 0.41281 0.1133 0.69169 0.0
C756 C 0.40674 0.12193 0.75369 0.0
H757 H 0.39497 0.0946 0.59644 0.0
H758 H 0.43536 0.11271 0.6829 0.0
S759 S 0.32916 0.12021 0.80075 0.0
N760 N 0.32248 0.10728 0.72512 0.0
N761 N 0.36717 0.12841 0.8187 0.0
C762 C 0.37636 0.12113 0.76176 0.0
C763 C 0.35203 0.10981 0.71022 0.0
C764 C 0.99257 0.29865 0.76989 0.0
C765 C 0.96474 0.30263 0.76264 0.0
C766 C 1.0058 0.28964 0.71742 0.0
C767 C 0.9919 0.28377 0.65468 0.0
H768 H 1.00571 0.30478 0.81548 0.0
H769 H 1.02829 0.28878 0.72558 0.0
S770 S 0.91837 0.29017 0.60968 0.0
N771 N 0.92429 0.30078 0.68646 0.0
N772 N 0.94729 0.28108 0.58998 0.0
C773 C 0.96304 0.28594 0.6474 0.0
C774 C 0.95015 0.29621 0.70056 0.0
C775 C 0.80594 0.70904 0.66298 0.0
C776 C 0.79421 0.73175 0.65999 0.0
C777 C 0.79699 0.68576 0.71459 0.0
C778 C 0.77717 0.68498 0.76713 0.0
H779 H 0.82084 0.70815 0.62385 0.0
H780 H 0.80419 0.66713 0.71135 0.0
S781 S 0.74132 0.73971 0.78642 0.0
N782 N 0.76146 0.75138 0.71737 0.0
N783 N 0.74737 0.70991 0.81355 0.0
C784 C 0.76684 0.70854 0.76619 0.0
C785 C 0.77468 0.73123 0.71329 0.0
C786 C 0.96636 0.71905 0.70634 0.0
C787 C 0.98299 0.71811 0.64981 0.0
C788 C 0.95741 0.69527 0.75702 0.0
C789 C 0.96611 0.67026 0.75504 0.0
H790 H 0.96216 0.73954 0.71371 0.0
H791 H 0.94532 0.69774 0.79948 0.0
S792 S 1.01131 0.65804 0.61844 0.0
N793 N 1.00752 0.68985 0.59565 0.0
N794 N 0.99284 0.6468 0.6892 0.0
C795 C 0.98246 0.66908 0.69792 0.0
C796 C 0.99042 0.69249 0.64625 0.0
C797 C 0.39335 0.31005 0.64472 0.0
C798 C 0.3619 0.28128 0.65133 0.0
C799 C 0.41557 0.32367 0.69725 0.0
C800 C 0.40777 0.30948 0.75968 0.0
H801 H 0.39995 0.32362 0.59965 0.0
H802 H 0.43864 0.34673 0.68947 0.0
S803 S 0.32908 0.23321 0.80314 0.0
N804 N 0.3244 0.23861 0.72597 0.0
N805 N 0.36657 0.26359 0.82352 0.0
C806 C 0.37724 0.27963 0.76632 0.0
C807 C 0.35427 0.26587 0.71272 0.0
C808 C 0.80142 0.12644 0.75013 0.0
C809 C 0.76719 0.11634 0.7508 0.0
C810 C 0.81586 0.11755 0.69855 0.0
C811 C 0.79709 0.09918 0.64412 0.0
H812 H 0.81681 0.13986 0.79104 0.0
H813 H 0.84145 0.12351 0.70313 0.0
S814 S 0.70712 0.06668 0.6197 0.0
N815 N 0.71543 0.08648 0.68923 0.0
N816 N 0.74288 0.07165 0.59447 0.0
C817 C 0.76353 0.09029 0.6431 0.0
C818 C 0.74862 0.09838 0.69545 0.0
C819 C 0.70664 0.94494 0.33894 0.0
C820 C 0.69041 0.96245 0.31973 0.0
C821 C 0.72819 0.95479 0.39411 0.0
C822 C 0.73417 0.98229 0.43323 0.0
H823 H 0.70315 0.92385 0.3107 0.0
H824 H 0.741 0.94143 0.40483 0.0
S825 S 0.69598 0.03499 0.40927 0.0
N826 N 0.68218 1.00879 0.34829 0.0
N827 N 0.71935 1.02462 0.45133 0.0
C828 C 0.71674 0.99864 0.41629 0.0
C829 C 0.69601 0.98959 0.35999 0.0
C830 C 0.13352 0.79365 0.4181 0.0
C831 C 0.09878 0.78062 0.42394 0.0
C832 C 0.14749 0.78543 0.36461 0.0
C833 C 0.12756 0.76485 0.31328 0.0
H834 H 0.14986 0.809 0.45641 0.0
H835 H 0.17376 0.79368 0.36544 0.0
S836 S 1.03594 0.72529 0.30158 0.0
N837 N 0.04536 0.74591 0.37021 0.0
N838 N 0.07179 0.73306 0.27109 0.0
C839 C 0.09339 0.7534 0.31703 0.0
C840 C 0.07905 0.76056 0.37156 0.0
C841 C 0.30079 0.38534 0.36105 0.0
C842 C 0.32335 0.38782 0.31257 0.0
C843 C 0.29214 0.36286 0.41405 0.0
C844 C 0.30644 0.34249 0.42196 0.0
H845 H 0.29111 0.40206 0.36002 0.0
H846 H 0.27519 0.36244 0.45023 0.0
S847 S 0.36628 0.33908 0.30619 0.0
N848 N 0.3581 0.3666 0.27449 0.0
N849 N 0.34399 0.32639 0.3727 0.0
C850 C 0.3283 0.34435 0.37208 0.0
C851 C 0.33614 0.36634 0.31811 0.0
C852 C 0.04513 0.45395 1.00077 0.0
C853 C 1.0234 0.41914 0.99509 0.0
C854 C 0.06783 0.46821 0.05369 0.0
C855 C 0.06904 0.44845 0.10448 0.0
H856 H 0.04568 0.47017 0.96282 0.0
H857 H 0.08575 0.4946 0.05289 0.0
S858 S 1.01734 0.35682 0.11628 0.0
N859 N 1.00517 0.36589 0.04859 0.0
N860 N 0.04586 0.3928 0.14618 0.0
C861 C 0.04649 0.41419 0.10079 0.0
C862 C 1.02429 0.3996 0.04702 0.0
C863 C 0.6829 0.65881 1.0152 0.0
C864 C 0.66275 0.62792 0.98425 0.0
C865 C 0.67275 0.66885 0.07029 0.0
C866 C 0.6412 0.64912 0.09893 0.0
H867 H 0.70763 0.67603 0.99704 0.0
H868 H 0.69012 0.69298 0.09007 0.0
S869 S 0.5774 0.56566 1.03833 0.0
N870 N 0.60875 0.57717 0.98762 0.0
N871 N 0.58926 0.59635 0.09093 0.0
C872 C 0.62026 0.61797 0.069 0.0
C873 C 0.63093 0.60744 1.01198 0.0
C874 C 0.44612 0.06425 0.04344 0.0
C875 C 0.46235 0.06193 0.98757 0.0
C876 C 0.43728 0.04197 0.09548 0.0
C877 C 0.44367 1.01552 0.09503 0.0
H878 H 0.43885 0.08292 0.04652 0.0
H879 H 0.42319 0.04419 0.13477 0.0
S880 S 0.48459 0.99694 0.96078 0.0
N881 N 0.48483 0.0308 0.9362 0.0
N882 N 0.46692 0.98791 1.03269 0.0
C883 C 0.46048 1.01305 1.04032 0.0
C884 C 0.47015 0.0364 0.98727 0.0
C885 C 0.67434 0.06091 0.04433 0.0
C886 C 0.65493 0.06042 0.99121 0.0
C887 C 0.66097 0.0386 0.0963 0.0
C888 C 0.62722 1.01381 0.09893 0.0
H889 H 0.70087 0.07818 0.04539 0.0
H890 H 0.67792 0.03942 0.13306 0.0
S891 S 0.56463 1.00143 0.97433 0.0
N892 N 0.59925 0.03345 0.94678 0.0
N893 N 0.57416 0.99048 0.04335 0.0
C894 C 0.60698 1.01342 0.04751 0.0
C895 C 0.62071 0.03683 0.99432 0.0
C896 C 0.05297 0.61422 0.08326 0.0
C897 C 0.07581 0.6489 0.08594 0.0
C898 C 1.03013 0.59936 1.03075 0.0
C899 C 1.02989 0.61823 0.97728 0.0
H900 H 0.05154 0.59869 0.12335 0.0
H901 H 1.01125 0.57333 1.03404 0.0
S902 S 0.08454 0.70925 0.9576 0.0
N903 N 0.09606 0.70109 1.02709 0.0
N904 N 0.05514 0.67301 0.93023 0.0
C905 C 0.05361 0.65229 0.97806 0.0
C906 C 0.07592 0.66756 1.03147 0.0
C907 C 0.42481 0.44615 1.03143 0.0
C908 C 0.44037 0.45427 0.09274 0.0
C909 C 0.43711 0.43609 0.97917 0.0
C910 C 0.46579 0.43351 0.98499 0.0
H911 H 0.40171 0.44598 1.02443 0.0
H912 H 0.42271 0.42816 0.93503 0.0
S913 S 0.5164 0.45157 0.13404 0.0
N914 N 0.48698 0.45975 0.15486 0.0
N915 N 0.50935 0.43964 0.05788 0.0
C916 C 0.48226 0.44242 0.04533 0.0
C917 C 0.46992 0.45322 0.0986 0.0
C918 C 0.15155 0.26668 0.43931 0.0
C919 C 0.12228 0.24063 0.46731 0.0
C920 C 0.18215 0.26667 0.44054 0.0
C921 C 0.1847 0.24063 0.46994 0.0
H922 H 0.15159 0.28859 0.42159 0.0
H923 H 0.20446 0.28853 0.42358 0.0
S924 S 0.1148 0.16505 0.54358 0.0
N925 N 0.09766 0.18688 0.51986 0.0
N926 N 0.15431 0.18689 0.52228 0.0
C927 C 0.15506 0.21349 0.49354 0.0
C928 C 0.12418 0.21348 0.49219 0.0
C929 C 0.87244 0.96558 0.49379 0.0
C930 C 0.84655 0.96818 0.46427 0.0
C931 C 0.87292 0.93556 0.4942 0.0
C932 C 0.84756 0.90635 0.46506 0.0
H933 H 0.89124 0.98632 0.52149 0.0
H934 H 0.89199 0.93451 0.52235 0.0
S935 S 0.77602 0.90025 0.3742 0.0
N936 N 0.79658 0.93939 0.39891 0.0
N937 N 0.79731 0.8829 0.40027 0.0
C938 C 0.82308 0.90922 0.43026 0.0
C939 C 0.82263 0.94009 0.42969 0.0
C940 C 0.14377 0.90309 0.44244 0.0
C941 C 0.11557 0.9 0.47454 0.0
C942 C 0.17467 0.93367 0.44222 0.0
C943 C 0.17864 0.96222 0.47447 0.0
H944 H 0.14285 0.88115 0.42232 0.0
H945 H 0.19614 0.93409 0.42148 0.0
S946 S 0.11141 0.96855 0.55731 0.0
N947 N 0.09308 0.92952 0.53253 0.0
N948 N 0.15036 0.98597 0.5326 0.0
C949 C 0.14986 0.95996 0.5017 0.0
C950 C 0.11866 0.9292 0.50164 0.0
C951 C 0.28145 0.166 0.63453 0.0
C952 C 0.25359 0.1685 0.6162 0.0
C953 C 0.2806 0.1351 0.63446 0.0
C954 C 0.25181 0.10513 0.6165 0.0
H955 H 0.30513 0.18842 0.64241 0.0
H956 H 0.30373 0.1354 0.6418 0.0
S957 S 0.17183 0.0977 0.56612 0.0
N958 N 0.19606 0.1378 0.58135 0.0
N959 N 0.19441 0.08024 0.58177 0.0
C960 C 0.22336 0.10715 0.60133 0.0
C961 C 0.22425 0.13854 0.60112 0.0
C962 C 0.92068 0.13817 0.63744 0.0
C963 C 0.91671 0.10881 0.60873 0.0
C964 C 0.95195 0.16834 0.63779 0.0
C965 C 0.98048 0.17037 0.60915 0.0
H966 H 0.89897 0.13868 0.65455 0.0
H967 H 0.95301 0.1908 0.65522 0.0
S968 S 0.9842 0.09997 0.53378 0.0
N969 N 0.94496 0.08349 0.5561 0.0
N970 N 1.00286 0.13932 0.55665 0.0
C971 C 0.97716 0.14057 0.5848 0.0
C972 C 0.94561 0.11013 0.58456 0.0
C973 C 0.97465 0.85815 0.58781 0.0
C974 C 0.97637 0.83188 0.6179 0.0
C975 C 0.94495 0.85925 0.58574 0.0
C976 C 0.91528 0.83424 0.61398 0.0
H977 H 0.99581 0.87666 0.56071 0.0
H978 H 0.94463 0.87865 0.55746 0.0
S979 S 0.90651 0.7615 0.70416 0.0
N980 N 0.94587 0.78152 0.68109 0.0
N981 N 0.89025 0.78372 0.6778 0.0
C982 C 0.91718 0.80934 0.64904 0.0
C983 C 0.94761 0.80813 0.65085 0.0
C984 C 0.81836 0.54524 0.84078 0.0
C985 C 0.84744 0.56867 0.80822 0.0
C986 C 0.78903 0.54709 0.84043 0.0
C987 C 0.78689 0.57242 0.80739 0.0
H988 H 0.81899 0.52655 0.87089 0.0
H989 H 0.7685 0.52981 0.87044 0.0
S990 S 0.85491 0.6387 0.71003 0.0
N991 N 0.87133 0.61691 0.73803 0.0
N992 N 0.81626 0.62024 0.73715 0.0
C993 C 0.81491 0.59458 0.77053 0.0
C994 C 0.84506 0.59272 0.77093 0.0
C995 C 0.53581 0.29654 0.83311 0.0
C996 C 0.50971 0.29957 0.80583 0.0
C997 C 0.53589 0.26626 0.83197 0.0
C998 C 0.50986 0.23719 0.8036 0.0
H999 H 0.55527 0.31721 0.85985 0.0
H1000 H 0.55538 0.26496 0.85806 0.0
S1001 S 0.43599 0.23157 0.7229 0.0
N1002 N 0.45767 0.27082 0.74657 0.0
N1003 N 0.45776 0.214 0.74474 0.0
C1004 C 0.48462 0.2403 0.77232 0.0
C1005 C 0.48457 0.27138 0.77336 0.0
C1006 C 0.78824 0.26403 0.81775 0.0
C1007 C 0.78446 0.23315 0.79895 0.0
C1008 C 0.81964 0.29363 0.81815 0.0
C1009 C 0.84906 0.29391 0.80056 0.0
H1010 H 0.76705 0.2649 0.83694 0.0
H1011 H 0.82124 0.31604 0.83742 0.0
S1012 S 0.85319 0.21945 0.74999 0.0
N1013 N 0.81306 0.20501 0.76095 0.0
N1014 N 0.87184 0.25969 0.76584 0.0
C1015 C 0.84541 0.26336 0.7796 0.0
C1016 C 0.81327 0.23335 0.77765 0.0
C1017 C 0.94671 0.49512 0.97661 0.0
C1018 C 0.91955 0.49713 0.95137 0.0
C1019 C 0.94735 0.46485 0.97538 0.0
C1020 C 0.92087 0.43537 0.94875 0.0
H1021 H 0.96889 0.51766 0.99174 0.0
H1022 H 0.96995 0.46534 0.98989 0.0
S1023 S 0.84266 0.42638 0.88288 0.0
N1024 N 0.86443 0.46589 0.9045 0.0
N1025 N 0.86571 0.40989 0.90191 0.0
C1026 C 0.89274 0.43666 0.92806 0.0
C1027 C 0.89205 0.46718 0.92949 0.0
C1028 C 0.58578 0.47183 0.97438 0.0
C1029 C 0.58196 0.44239 0.94627 0.0
C1030 C 0.61706 0.50193 0.97565 0.0
C1031 C 0.64577 0.50405 0.94791 0.0
H1032 H 0.56405 0.47258 0.99015 0.0
H1033 H 0.61803 0.52432 0.99304 0.0
S1034 S 0.65003 0.43358 0.87416 0.0
N1035 N 0.61064 0.41709 0.89532 0.0
N1036 N 0.66851 0.47295 0.89685 0.0
C1037 C 0.6426 0.47421 0.92399 0.0
C1038 C 0.61105 0.44374 0.92317 0.0
C1039 C 0.63962 0.19085 0.92513 0.0
C1040 C 0.64178 0.16367 0.94922 0.0
C1041 C 0.60944 0.19112 0.92484 0.0
C1042 C 0.5796 0.16423 0.94868 0.0
H1043 H 0.66095 0.21107 0.90135 0.0
H1044 H 0.60894 0.21157 0.90097 0.0
S1045 S 0.57154 0.08755 1.02092 0.0
N1046 N 0.61132 0.10971 1.00123 0.0
N1047 N 0.55475 0.11026 1.00081 0.0
C1048 C 0.58177 0.13788 0.97732 0.0
C1049 C 0.61273 0.13758 0.97755 0.0
C1050 C 0.48496 0.8834 0.20034 0.0
C1051 C 0.50862 0.89758 0.1503 0.0
C1052 C 0.45553 0.88467 0.20093 0.0
C1053 C 0.44731 0.89987 0.1512 0.0
H1054 H 0.49019 0.8731 0.24254 0.0
H1055 H 0.44003 0.87543 0.24349 0.0
S1056 S 0.49224 0.92649 0.99545 0.0
N1057 N 0.51637 0.9179 1.04023 0.0
N1058 N 0.46029 0.91979 1.04094 0.0
C1059 C 0.46774 0.9092 0.09585 0.0
C1060 C 0.49845 0.90816 0.09545 0.0
C1061 C 0.15277 0.60577 0.10925 0.0
C1062 C 0.17878 0.63487 0.13799 0.0
C1063 C 0.15294 0.57526 0.10904 0.0
C1064 C 0.17911 0.57265 0.13762 0.0
H1065 H 0.13079 0.60578 0.09206 0.0
H1066 H 0.1311 0.55302 0.09166 0.0
S1067 S 0.25475 0.64229 0.21222 0.0
N1068 N 0.23267 0.6594 0.19008 0.0
N1069 N 0.23303 0.60293 0.18965 0.0
C1070 C 0.20625 0.60221 0.16177 0.0
C1071 C 0.20607 0.63298 0.16198 0.0
C1072 C 0.51253 0.60331 0.10688 0.0
C1073 C 0.51561 0.63226 0.13584 0.0
C1074 C 0.48176 0.57261 0.10676 0.0
C1075 C 0.45283 0.56974 0.13521 0.0
H1076 H 0.53454 0.60359 0.08937 0.0
H1077 H 0.48142 0.55046 0.08954 0.0
S1078 S 0.44648 0.63904 0.20874 0.0
N1079 N 0.48588 0.65643 0.18701 0.0
N1080 N 0.4289 0.59967 0.18645 0.0
C1081 C 0.45516 0.5992 0.15899 0.0
C1082 C 0.48621 0.63011 0.15934 0.0
C1083 C 0.56117 0.77659 0.25682 0.0
C1084 C 0.58819 0.7743 0.28132 0.0
C1085 C 0.56084 0.80678 0.25759 0.0
C1086 C 0.58755 0.83652 0.28271 0.0
H1087 H 0.54116 0.7554 0.23217 0.0
H1088 H 0.54051 0.80742 0.23349 0.0
S1089 S 0.664 0.84424 0.35519 0.0
N1090 N 0.64203 0.80468 0.33382 0.0
N1091 N 0.64121 0.86104 0.33593 0.0
C1092 C 0.61375 0.83417 0.31138 0.0
C1093 C 0.61415 0.80328 0.31037 0.0
C1094 C 0.28062 0.83594 0.3121 0.0
C1095 C 0.30999 0.83873 0.28624 0.0
C1096 C 0.25007 0.80508 0.31229 0.0
C1097 C 0.24771 0.77574 0.28701 0.0
H1098 H 0.28044 0.8582 0.32651 0.0
H1099 H 0.22765 0.80497 0.32653 0.0
S1100 S 0.31811 0.76877 0.22165 0.0
N1101 N 0.33506 0.80849 0.24103 0.0
N1102 N 0.27847 0.75129 0.24172 0.0
C1103 C 0.27754 0.77786 0.26646 0.0
C1104 C 0.30836 0.80903 0.26606 0.0
C1105 C 0.3101 0.52636 0.24576 0.0
C1106 C 0.31299 0.50148 0.27889 0.0
C1107 C 0.28043 0.52751 0.24592 0.0
C1108 C 0.25175 0.50376 0.27901 0.0
H1109 H 0.33028 0.54376 0.2152 0.0
H1110 H 0.27918 0.54578 0.21555 0.0
S1111 S 0.24682 0.4356 0.37988 0.0
N1112 N 0.28526 0.4545 0.3516 0.0
N1113 N 0.22937 0.45628 0.35104 0.0
C1114 C 0.25504 0.48044 0.31698 0.0
C1115 C 0.2856 0.47939 0.3171 0.0
C1116 C 0.0494 0.29482 0.07323 0.0
C1117 C 1.03938 0.26418 0.10353 0.0
C1118 C 0.05981 0.30015 1.00859 0.0
C1119 C 0.06016 0.27484 0.97194 0.0
H1120 H 0.04974 0.31495 0.10005 0.0
H1121 H 0.06739 0.32413 0.98701 0.0
S1122 S 1.03629 0.19017 1.02933 0.0
N1123 N 1.03034 0.20826 0.09226 0.0
N1124 N 0.05004 0.21821 0.97127 0.0
C1125 C 0.0501 0.24409 1.00185 0.0
C1126 C 1.03972 0.23878 0.06752 0.0
C1127 C 0.79399 0.7939 0.08551 0.0
C1128 C 0.82391 0.79636 0.10636 0.0
C1129 C 0.78945 0.79995 1.02097 0.0
C1130 C 0.81484 0.80919 0.97475 0.0
H1131 H 0.77389 0.78717 0.1194 0.0
H1132 H 0.76578 0.7973 1.00722 0.0
S1133 S 0.89885 0.82127 1.00659 0.0
N1134 N 0.87959 0.80941 0.07662 0.0
N1135 N 0.87175 0.82196 0.95619 0.0
C1136 C 0.84502 0.81194 0.99546 0.0
C1137 C 0.84938 0.80529 0.06094 0.0
C1138 C 0.27063 0.04583 0.06841 0.0
C1139 C 0.29336 0.04263 0.10818 0.0
C1140 C 0.26565 0.03524 1.0041 0.0
C1141 C 0.28317 1.02095 0.97649 0.0
H1142 H 0.25628 0.05639 0.08735 0.0
H1143 H 0.24767 0.03806 0.97579 0.0
S1144 S 0.34668 1.00821 0.05885 0.0
N1145 N 0.33426 1.02484 0.11477 0.0
N1146 N 0.32489 1.00491 0.99356 0.0
C1147 C 0.30597 1.01747 1.01561 0.0
C1148 C 0.31106 1.0283 0.08143 0.0
C1149 C 0.04433 0.77058 1.00715 0.0
C1150 C 0.05946 0.80241 0.9787 0.0
C1151 C 1.03348 0.76565 0.07169 0.0
C1152 C 1.03739 0.79236 0.11017 0.0
H1153 H 0.04122 0.74942 0.97958 0.0
H1154 H 1.02236 0.74085 0.09187 0.0
S1155 S 0.072 0.87975 0.05668 0.0
N1156 N 0.07537 0.86044 0.9929 0.0
N1157 N 0.05523 0.85121 0.11355 0.0
C1158 C 0.05178 0.82408 0.08181 0.0
C1159 C 0.06274 0.82908 1.01635 0.0
C1160 C 0.2664 0.25942 0.07849 0.0
C1161 C 0.29785 0.27725 0.10798 0.0
C1162 C 0.26154 0.26507 1.01407 0.0
C1163 C 0.28788 0.28893 0.97619 0.0
H1164 H 0.24538 0.24048 0.10521 0.0
H1165 H 0.23694 0.25017 0.99344 0.0
S1166 S 0.3746 0.34442 1.03216 0.0
N1167 N 0.3555 0.32099 0.09544 0.0
N1168 N 0.34634 0.33194 0.97444 0.0
C1169 C 0.31944 0.30736 1.00537 0.0
C1170 C 0.32442 0.30146 0.07113 0.0
C1171 C 0.83245 0.03216 0.07049 0.0
C1172 C 0.80983 0.03891 0.10248 0.0
C1173 C 0.82753 1.02155 1.0061 0.0
C1174 C 0.79976 1.0172 0.97088 0.0
H1175 H 0.85447 0.03559 0.09521 0.0
H1176 H 0.84594 1.01719 0.98337 0.0
S1177 S 0.7316 0.02868 1.03372 0.0
N1178 N 0.75759 0.0387 0.09504 0.0
N1179 N 0.74833 1.0187 0.9739 0.0
C1180 C 0.77666 1.02339 1.00245 0.0
C1181 C 0.78168 0.03424 0.06819 0.0
C1182 C 0.72068 0.63362 0.34847 0.0
C1183 C 0.7206 0.60855 0.31026 0.0
C1184 C 0.70997 0.6276 0.41296 0.0
C1185 C 0.69882 0.59631 0.44168 0.0
H1186 H 0.72869 0.65794 0.3281 0.0
H1187 H 0.71007 0.64748 0.44035 0.0
S1188 S 0.69717 0.52352 0.36443 0.0
N1189 N 0.71061 0.55203 0.30727 0.0
N1190 N 0.69069 0.54079 0.42808 0.0
C1191 C 0.69932 0.57131 0.40432 0.0
C1192 C 0.71015 0.57741 0.33881 0.0
C1193 C 0.50868 0.13477 0.39185 0.0
C1194 C 0.48314 0.12287 0.43795 0.0
C1195 C 0.50278 0.13969 0.32754 0.0
C1196 C 0.471 0.13256 0.3066 0.0
H1197 H 0.53363 0.14124 0.40604 0.0
H1198 H 0.52355 0.14998 0.29436 0.0
S1199 S 0.39493 0.097 0.40776 0.0
N1200 N 0.42458 0.10195 0.45808 0.0
N1201 N 0.41304 0.11006 0.33693 0.0
C1202 C 0.44498 0.11942 0.35208 0.0
C1203 C 0.45115 0.11483 0.41773 0.0
C1204 C 0.97725 0.3891 0.3253 0.0
C1205 C 0.95538 0.35544 0.30918 0.0
C1206 C 0.98285 0.39997 0.3898 0.0
C1207 C 0.96702 0.37763 0.441 0.0
H1208 H 0.99003 0.40729 0.28771 0.0
H1209 H 0.99964 0.42612 0.39966 0.0
S1210 S 0.90655 0.28725 0.42526 0.0
N1211 N 0.91722 0.3001 0.35042 0.0
N1212 N 0.92802 0.32048 0.47082 0.0
C1213 C 0.94548 0.34393 0.42559 0.0
C1214 C 0.93963 0.33286 0.36006 0.0
C1215 C 0.69513 0.13836 0.32604 0.0
C1216 C 0.72389 0.13757 0.30747 0.0
C1217 C 0.68416 0.1333 0.39031 0.0
C1218 C 0.70167 0.12763 0.43917 0.0
H1219 H 0.68122 0.14362 0.29084 0.0
H1220 H 0.66219 0.13462 0.40212 0.0
S1221 S 0.77679 0.12041 0.41664 0.0
N1222 N 0.76825 0.12816 0.34368 0.0
N1223 N 0.74821 0.11985 0.46447 0.0
C1224 C 0.73015 0.12632 0.42152 0.0
C1225 C 0.74111 0.131 0.35587 0.0
C1226 C 0.95213 0.58217 0.32545 0.0
C1227 C 0.95009 0.61047 0.30897 0.0
C1228 C 0.9559 0.57523 0.38977 0.0
C1229 C 0.95769 0.59623 0.44038 0.0
H1230 H 0.94986 0.56469 0.28851 0.0
H1231 H 0.95649 0.55272 0.40012 0.0
S1232 S 0.9577 0.67557 0.4227 0.0
N1233 N 0.95304 0.66112 0.34842 0.0
N1234 N 0.95995 0.64797 0.46908 0.0
C1235 C 0.95681 0.62518 0.42445 0.0
C1236 C 0.95305 0.6323 0.35893 0.0
C1237 C 0.44125 0.33581 0.35952 0.0
C1238 C 0.45611 0.35884 0.3089 0.0
C1239 C 0.44644 0.34609 0.42421 0.0
C1240 C 0.46663 0.37985 0.44106 0.0
H1241 H 0.42593 0.3095 0.3491 0.0
H1242 H 0.43505 0.32736 0.46145 0.0
S1243 S 0.51063 0.45028 0.32721 0.0
N1244 N 0.49135 0.41713 0.28052 0.0
N1245 N 0.50082 0.43639 0.40173 0.0
C1246 C 0.48056 0.40328 0.39098 0.0
C1247 C 0.47537 0.3928 0.3251 0.0
C1248 C 0.36966 0.92046 0.66816 0.0
C1249 C 0.38158 0.95222 0.64117 0.0
C1250 C 0.35948 0.91391 0.73268 0.0
C1251 C 0.36073 0.93881 0.77312 0.0
H1252 H 0.36871 0.90055 0.6394 0.0
H1253 H 0.35108 0.88919 0.75137 0.0
S1254 S 0.38739 1.02551 0.72478 0.0
N1255 N 0.39247 1.0085 0.65907 0.0
N1256 N 0.3732 0.99615 0.78042 0.0
C1257 C 0.37214 0.97062 0.7466 0.0
C1258 C 0.38259 0.97732 0.6807 0.0
C1259 C 0.1328 0.44426 0.737 0.0
C1260 C 0.15588 0.47014 0.7768 0.0
C1261 C 0.12759 0.45041 0.67293 0.0
C1262 C 0.14512 0.4827 0.64662 0.0
H1263 H 0.11931 0.41898 0.75502 0.0
H1264 H 0.11034 0.42961 0.64333 0.0
S1265 S 0.20504 0.55955 0.73398 0.0
N1266 N 0.19433 0.52949 0.78722 0.0
N1267 N 0.18416 0.54122 0.66769 0.0
C1268 C 0.16728 0.50891 0.68696 0.0
C1269 C 0.17273 0.5026 0.75178 0.0
C1270 C 0.59141 0.70027 0.74052 0.0
C1271 C 0.6163 0.69858 0.7759 0.0
C1272 C 0.58419 0.68902 0.67663 0.0
C1273 C 0.60181 0.67591 0.64473 0.0
H1274 H 0.57733 0.71044 0.76248 0.0
H1275 H 0.56465 0.6908 0.65191 0.0
S1276 S 0.66962 0.66611 0.71608 0.0
N1277 N 0.65823 0.68213 0.77497 0.0
N1278 N 0.64559 0.66206 0.65414 0.0
C1279 C 0.62651 0.67361 0.67996 0.0
C1280 C 0.63353 0.68468 0.74557 0.0
C1281 C 0.37286 0.43784 0.73577 0.0
C1282 C 0.37482 0.46396 0.77353 0.0
C1283 C 0.38379 0.44306 0.67138 0.0
C1284 C 0.39716 0.47461 0.64247 0.0
H1285 H 0.36324 0.41329 0.75641 0.0
H1286 H 0.38217 0.42238 0.64428 0.0
S1287 S 0.40438 0.55026 0.71811 0.0
N1288 N 0.38885 0.52185 0.77542 0.0
N1289 N 0.40951 0.53164 0.6551 0.0
C1290 C 0.39858 0.50069 0.67927 0.0
C1291 C 0.38739 0.49537 0.74453 0.0
C1292 C 0.65116 0.9514 0.73386 0.0
C1293 C 0.6238 0.93318 0.77505 0.0
C1294 C 0.64657 0.95723 0.66914 0.0
C1295 C 0.61447 0.94499 0.64331 0.0
H1296 H 0.67626 0.96159 0.75205 0.0
H1297 H 0.66829 0.97179 0.63936 0.0
S1298 S 0.53474 0.8927 0.72914 0.0
N1299 N 0.5636 0.90098 0.78401 0.0
N1300 N 0.55498 0.91168 0.66285 0.0
C1301 C 0.58699 0.92606 0.68367 0.0
C1302 C 0.59165 0.92023 0.74934 0.0
C1303 C 0.15711 0.68723 0.68093 0.0
C1304 C 0.13515 0.69231 0.64237 0.0
C1305 C 0.16357 0.69804 0.74523 0.0
C1306 C 0.14836 0.71442 0.77402 0.0
H1307 H 0.16985 0.67518 0.66093 0.0
H1308 H 0.18104 0.69391 0.77241 0.0
S1309 S 0.08681 0.73158 0.69592 0.0
N1310 N 0.09695 0.71353 0.63886 0.0
N1311 N 0.1089 0.73361 0.75985 0.0
C1312 C 0.12601 0.71934 0.73637 0.0
C1313 C 0.11948 0.70837 0.67065 0.0
loop_
_geom_bond_atom_site_label_1
_geom_bond_atom_site_label_2
_geom_bond_distance
_geom_bond_site_symmetry_2
_ccdc_geom_bond_type
Tb0 C9 2.764 . S
Tb0 O10 2.325 1_455 S
Tb0 O13 2.303 1_455 S
Tb0 O17 2.322 . S
Tb0 O18 2.349 . S
Tb0 O21 2.415 . S
Tb0 O22 2.399 . S
Tb1 O11 2.322 . S
Tb1 O12 2.349 . S
Tb1 O14 2.415 1_655 S
Tb1 O15 2.399 . S
Tb1 O16 2.325 1_655 S
Tb1 O19 2.303 1_655 S
Tb1 C30 2.764 . S
C2 O18 1.261 . S
C2 O19 1.257 . S
C3 C6 1.358 . S
C3 C7 1.332 1_455 S
C3 C9 1.504 . S
C4 C5 1.373 . S
C4 C8 1.308 1_455 S
C5 C4 1.373 . S
C5 C6 1.429 . S
C5 H32 0.932 . S
C6 C3 1.358 . S
C6 C5 1.429 . S
C6 H33 0.930 . S
C7 C3 1.332 1_655 S
C7 C8 1.394 . S
C7 H34 0.932 . S
C8 C4 1.308 1_655 S
C8 C7 1.394 . S
C8 H35 0.929 . S
C9 Tb0 2.764 . S
C9 C3 1.504 . S
C9 O21 1.239 . S
C9 O22 1.263 . S
O10 Tb0 2.325 1_655 S
O10 C20 1.236 . S
O11 Tb1 2.322 . S
O11 C20 1.257 . S
O12 Tb1 2.349 . S
O12 C23 1.261 . S
O13 Tb0 2.303 1_655 S
O13 C23 1.257 . S
O14 Tb1 2.415 1_455 S
O14 C30 1.239 1_455 S
O15 Tb1 2.399 . S
O15 C30 1.263 . S
O16 Tb1 2.325 1_455 S
O16 C31 1.236 . S
O17 Tb0 2.322 . S
O17 C31 1.257 . S
O18 Tb0 2.349 . S
O18 C2 1.261 . S
O19 Tb1 2.303 1_455 S
O19 C2 1.257 . S
C20 O10 1.236 . S
C20 O11 1.257 . S
O21 Tb0 2.415 . S
O21 C9 1.239 . S
O22 Tb0 2.399 . S
O22 C9 1.263 . S
C23 O12 1.261 . S
C23 O13 1.257 . S
C24 C27 1.343 1_455 S
C24 C28 1.356 . S
C24 C30 1.498 1_455 S
C25 C26 1.373 1_455 S
C25 C29 1.308 . S
C26 C25 1.373 1_655 S
C26 C27 1.429 . S
C26 H36 0.932 . S
C27 C24 1.343 1_655 S
C27 C26 1.429 . S
C27 H37 0.930 . S
C28 C24 1.356 . S
C28 C29 1.394 . S
C28 H38 0.932 . S
C29 C25 1.308 . S
C29 C28 1.394 . S
C29 H39 0.929 . S
C30 Tb1 2.764 . S
C30 O14 1.239 1_655 S
C30 O15 1.263 . S
C30 C24 1.498 1_655 S
C31 O16 1.236 . S
C31 O17 1.257 . S
H32 C5 0.932 . S
H33 C6 0.930 . S
H34 C7 0.932 . S
H35 C8 0.929 . S
H36 C26 0.932 . S
H37 C27 0.930 . S
H38 C28 0.932 . S
H39 C29 0.929 . S
Tb40 C49 2.764 . S
Tb40 O50 2.325 . S
Tb40 O53 2.303 . S
Tb40 O57 2.322 . S
Tb40 O58 2.349 . S
Tb40 O61 2.415 . S
Tb40 O62 2.399 . S
Tb41 O51 2.322 . S
Tb41 O52 2.349 . S
Tb41 O54 2.415 . S
Tb41 O55 2.399 . S
Tb41 O56 2.325 . S
Tb41 O59 2.303 . S
Tb41 C70 2.764 . S
C42 O58 1.261 . S
C42 O59 1.257 . S
C43 C46 1.358 . S
C43 C47 1.332 . S
C43 C49 1.504 . S
C44 C45 1.373 . S
C44 C48 1.308 . S
C45 C44 1.373 . S
C45 C46 1.429 . S
C45 H72 0.932 . S
C46 C43 1.358 . S
C46 C45 1.429 . S
C46 H73 0.930 . S
C47 C43 1.332 . S
C47 C48 1.394 . S
C47 H74 0.932 . S
C48 C44 1.308 . S
C48 C47 1.394 . S
C48 H75 0.929 . S
C49 Tb40 2.764 . S
C49 C43 1.504 . S
C49 O61 1.239 . S
C49 O62 1.263 . S
O50 Tb40 2.325 . S
O50 C60 1.236 . S
O51 Tb41 2.322 . S
O51 C60 1.257 . S
O52 Tb41 2.349 . S
O52 C63 1.261 . S
O53 Tb40 2.303 . S
O53 C63 1.257 . S
O54 Tb41 2.415 . S
O54 C70 1.239 . S
O55 Tb41 2.399 . S
O55 C70 1.263 . S
O56 Tb41 2.325 . S
O56 C71 1.236 . S
O57 Tb40 2.322 . S
O57 C71 1.257 . S
O58 Tb40 2.349 . S
O58 C42 1.261 . S
O59 Tb41 2.303 . S
O59 C42 1.257 . S
C60 O50 1.236 . S
C60 O51 1.257 . S
O61 Tb40 2.415 . S
O61 C49 1.239 . S
O62 Tb40 2.399 . S
O62 C49 1.263 . S
C63 O52 1.261 . S
C63 O53 1.257 . S
C64 C67 1.358 . S
C64 C68 1.332 . S
C64 C70 1.504 . S
C65 C66 1.373 . S
C65 C69 1.308 . S
C66 C65 1.373 . S
C66 C67 1.429 . S
C66 H76 0.932 . S
C67 C64 1.358 . S
C67 C66 1.429 . S
C67 H77 0.930 . S
C68 C64 1.332 . S
C68 C69 1.394 . S
C68 H78 0.932 . S
C69 C65 1.308 . S
C69 C68 1.394 . S
C69 H79 0.929 . S
C70 Tb41 2.764 . S
C70 O54 1.239 . S
C70 O55 1.263 . S
C70 C64 1.504 . S
C71 O56 1.236 . S
C71 O57 1.257 . S
H72 C45 0.932 . S
H73 C46 0.930 . S
H74 C47 0.932 . S
H75 C48 0.929 . S
H76 C66 0.932 . S
H77 C67 0.930 . S
H78 C68 0.932 . S
H79 C69 0.929 . S
Tb80 C89 2.764 . S
Tb80 O90 2.325 1_565 S
Tb80 O93 2.303 1_565 S
Tb80 O97 2.322 . S
Tb80 O98 2.349 . S
Tb80 O101 2.415 1_565 S
Tb80 O102 2.399 . S
Tb81 O91 2.322 . S
Tb81 O92 2.349 . S
Tb81 O94 2.415 1_545 S
Tb81 O95 2.399 . S
Tb81 O96 2.325 1_545 S
Tb81 O99 2.303 1_545 S
Tb81 C110 2.764 . S
C82 O98 1.261 . S
C82 O99 1.257 . S
C83 C86 1.358 . S
C83 C87 1.332 1_565 S
C83 C89 1.504 . S
C84 C85 1.373 1_545 S
C84 C88 1.308 . S
C85 C84 1.373 1_565 S
C85 C86 1.429 . S
C85 H112 0.932 . S
C86 C83 1.358 . S
C86 C85 1.429 . S
C86 H113 0.930 . S
C87 C83 1.332 1_545 S
C87 C88 1.394 . S
C87 H114 0.932 . S
C88 C84 1.308 . S
C88 C87 1.394 . S
C88 H115 0.929 . S
C89 Tb80 2.764 . S
C89 C83 1.504 . S
C89 O101 1.239 1_565 S
C89 O102 1.263 . S
O90 Tb80 2.325 1_545 S
O90 C100 1.236 . S
O91 Tb81 2.322 . S
O91 C100 1.257 . S
O92 Tb81 2.349 . S
O92 C103 1.261 . S
O93 Tb80 2.303 1_545 S
O93 C103 1.257 . S
O94 Tb81 2.415 1_565 S
O94 C110 1.238 1_565 S
O95 Tb81 2.399 . S
O95 C110 1.263 . S
O96 Tb81 2.325 1_565 S
O96 C111 1.236 . S
O97 Tb80 2.322 . S
O97 C111 1.257 . S
O98 Tb80 2.349 . S
O98 C82 1.261 . S
O99 Tb81 2.303 1_565 S
O99 C82 1.257 . S
C100 O90 1.236 . S
C100 O91 1.257 . S
O101 Tb80 2.415 1_545 S
O101 C89 1.239 1_545 S
O102 Tb80 2.399 . S
O102 C89 1.263 . S
C103 O92 1.261 . S
C103 O93 1.257 . S
C104 C107 1.358 . S
C104 C108 1.332 1_545 S
C104 C110 1.504 . S
C105 C106 1.373 . S
C105 C109 1.308 1_545 S
C106 C105 1.373 . S
C106 C107 1.429 . S
C106 H116 0.932 . S
C107 C104 1.358 . S
C107 C106 1.429 . S
C107 H117 0.930 . S
C108 C104 1.332 1_565 S
C108 C109 1.394 . S
C108 H118 0.932 . S
C109 C105 1.308 1_565 S
C109 C108 1.394 . S
C109 H119 0.929 . S
C110 Tb81 2.764 . S
C110 O94 1.238 1_545 S
C110 O95 1.263 . S
C110 C104 1.504 . S
C111 O96 1.236 . S
C111 O97 1.257 . S
H112 C85 0.932 . S
H113 C86 0.930 . S
H114 C87 0.932 . S
H115 C88 0.929 . S
H116 C106 0.932 . S
H117 C107 0.930 . S
H118 C108 0.932 . S
H119 C109 0.929 . S
Tb120 C129 2.764 . S
Tb120 O130 2.325 1_455 S
Tb120 O133 2.303 1_455 S
Tb120 O137 2.322 . S
Tb120 O138 2.349 . S
Tb120 O141 2.407 1_455 S
Tb120 O142 2.399 . S
Tb121 O131 2.322 . S
Tb121 O132 2.349 . S
Tb121 O134 2.415 1_655 S
Tb121 O135 2.399 . S
Tb121 O136 2.325 1_655 S
Tb121 O139 2.303 1_655 S
Tb121 C150 2.764 . S
C122 O138 1.261 . S
C122 O139 1.257 . S
C123 C126 1.358 . S
C123 C127 1.332 1_455 S
C123 C129 1.504 . S
C124 C125 1.373 . S
C124 C128 1.308 1_455 S
C125 C124 1.373 . S
C125 C126 1.429 . S
C125 H152 0.932 . S
C126 C123 1.358 . S
C126 C125 1.429 . S
C126 H153 0.930 . S
C127 C123 1.332 1_655 S
C127 C128 1.394 . S
C127 H154 0.932 . S
C128 C124 1.308 1_655 S
C128 C127 1.394 . S
C128 H155 0.929 . S
C129 Tb120 2.764 . S
C129 C123 1.504 . S
C129 O141 1.233 1_455 S
C129 O142 1.263 . S
O130 Tb120 2.325 1_655 S
O130 C140 1.236 . S
O131 Tb121 2.322 . S
O131 C140 1.257 . S
O132 Tb121 2.349 . S
O132 C143 1.261 . S
O133 Tb120 2.303 1_655 S
O133 C143 1.257 . S
O134 Tb121 2.415 1_455 S
O134 C150 1.239 1_455 S
O135 Tb121 2.399 . S
O135 C150 1.263 . S
O136 Tb121 2.325 1_455 S
O136 C151 1.236 . S
O137 Tb120 2.322 . S
O137 C151 1.257 . S
O138 Tb120 2.349 . S
O138 C122 1.261 . S
O139 Tb121 2.303 1_455 S
O139 C122 1.257 . S
C140 O130 1.236 . S
C140 O131 1.257 . S
O141 Tb120 2.407 1_655 S
O141 C129 1.233 1_655 S
O142 Tb120 2.399 . S
O142 C129 1.263 . S
C143 O132 1.261 . S
C143 O133 1.257 . S
C144 C147 1.358 . S
C144 C148 1.332 1_655 S
C144 C150 1.504 . S
C145 C146 1.356 1_455 S
C145 C149 1.322 . S
C146 C145 1.356 1_655 S
C146 C147 1.429 . S
C146 H156 0.932 . S
C147 C144 1.358 . S
C147 C146 1.429 . S
C147 H157 0.930 . S
C148 C144 1.332 1_455 S
C148 C149 1.394 . S
C148 H158 0.932 . S
C149 C145 1.322 . S
C149 C148 1.394 . S
C149 H159 0.929 . S
C150 Tb121 2.764 . S
C150 O134 1.239 1_655 S
C150 O135 1.263 . S
C150 C144 1.504 . S
C151 O136 1.236 . S
C151 O137 1.257 . S
H152 C125 0.932 . S
H153 C126 0.930 . S
H154 C127 0.932 . S
H155 C128 0.929 . S
H156 C146 0.932 . S
H157 C147 0.930 . S
H158 C148 0.932 . S
H159 C149 0.929 . S
Tb160 C169 2.764 . S
Tb160 O170 2.325 . S
Tb160 O173 2.303 . S
Tb160 O177 2.322 . S
Tb160 O178 2.349 . S
Tb160 O181 2.415 . S
Tb160 O182 2.399 . S
Tb161 O171 2.322 . S
Tb161 O172 2.349 . S
Tb161 O174 2.415 . S
Tb161 O175 2.399 . S
Tb161 O176 2.325 . S
Tb161 O179 2.303 . S
Tb161 C190 2.764 . S
C162 O178 1.261 . S
C162 O179 1.257 . S
C163 C166 1.358 . S
C163 C167 1.332 . S
C163 C169 1.504 . S
C164 C165 1.373 . S
C164 C168 1.308 . S
C165 C164 1.373 . S
C165 C166 1.429 . S
C165 H192 0.932 . S
C166 C163 1.358 . S
C166 C165 1.429 . S
C166 H193 0.930 . S
C167 C163 1.332 . S
C167 C168 1.394 . S
C167 H194 0.932 . S
C168 C164 1.308 . S
C168 C167 1.394 . S
C168 H195 0.929 . S
C169 Tb160 2.764 . S
C169 C163 1.504 . S
C169 O181 1.239 . S
C169 O182 1.263 . S
O170 Tb160 2.325 . S
O170 C180 1.236 . S
O171 Tb161 2.322 . S
O171 C180 1.257 . S
O172 Tb161 2.349 . S
O172 C183 1.261 . S
O173 Tb160 2.303 . S
O173 C183 1.257 . S
O174 Tb161 2.415 . S
O174 C190 1.239 . S
O175 Tb161 2.399 . S
O175 C190 1.263 . S
O176 Tb161 2.325 . S
O176 C191 1.236 . S
O177 Tb160 2.322 . S
O177 C191 1.257 . S
O178 Tb160 2.349 . S
O178 C162 1.261 . S
O179 Tb161 2.303 . S
O179 C162 1.257 . S
C180 O170 1.236 . S
C180 O171 1.257 . S
O181 Tb160 2.415 . S
O181 C169 1.239 . S
O182 Tb160 2.399 . S
O182 C169 1.263 . S
C183 O172 1.261 . S
C183 O173 1.257 . S
C184 C187 1.358 . S
C184 C188 1.332 . S
C184 C190 1.504 . S
C185 C186 1.373 . S
C185 C189 1.308 . S
C186 C185 1.373 . S
C186 C187 1.429 . S
C186 H196 0.932 . S
C187 C184 1.358 . S
C187 C186 1.429 . S
C187 H197 0.930 . S
C188 C184 1.332 . S
C188 C189 1.394 . S
C188 H198 0.932 . S
C189 C185 1.308 . S
C189 C188 1.394 . S
C189 H199 0.929 . S
C190 Tb161 2.764 . S
C190 O174 1.239 . S
C190 O175 1.263 . S
C190 C184 1.504 . S
C191 O176 1.236 . S
C191 O177 1.257 . S
H192 C165 0.932 . S
H193 C166 0.930 . S
H194 C167 0.932 . S
H195 C168 0.929 . S
H196 C186 0.932 . S
H197 C187 0.930 . S
H198 C188 0.932 . S
H199 C189 0.929 . S
Tb200 C209 2.764 . S
Tb200 O210 2.325 1_565 S
Tb200 O213 2.303 1_565 S
Tb200 O217 2.322 . S
Tb200 O218 2.349 . S
Tb200 O221 2.415 1_565 S
Tb200 O222 2.399 . S
Tb201 O211 2.322 . S
Tb201 O212 2.349 . S
Tb201 O214 2.415 . S
Tb201 O215 2.399 . S
Tb201 O216 2.325 1_545 S
Tb201 O219 2.303 1_545 S
Tb201 C230 2.764 . S
C202 O218 1.261 . S
C202 O219 1.257 . S
C203 C206 1.358 1_545 S
C203 C207 1.332 . S
C203 C209 1.504 1_545 S
C204 C205 1.373 1_545 S
C204 C208 1.308 . S
C205 C204 1.373 1_565 S
C205 C206 1.429 . S
C205 H232 0.932 . S
C206 C203 1.358 1_565 S
C206 C205 1.429 . S
C206 H233 0.930 . S
C207 C203 1.332 . S
C207 C208 1.394 . S
C207 H234 0.932 . S
C208 C204 1.308 . S
C208 C207 1.394 . S
C208 H235 0.929 . S
C209 Tb200 2.764 . S
C209 C203 1.504 1_565 S
C209 O221 1.239 1_565 S
C209 O222 1.263 . S
O210 Tb200 2.325 1_545 S
O210 C220 1.236 . S
O211 Tb201 2.322 . S
O211 C220 1.257 . S
O212 Tb201 2.349 . S
O212 C223 1.261 . S
O213 Tb200 2.303 1_545 S
O213 C223 1.257 . S
O214 Tb201 2.415 . S
O214 C230 1.239 . S
O215 Tb201 2.399 . S
O215 C230 1.263 . S
O216 Tb201 2.325 1_565 S
O216 C231 1.236 . S
O217 Tb200 2.322 . S
O217 C231 1.257 . S
O218 Tb200 2.349 . S
O218 C202 1.261 . S
O219 Tb201 2.303 1_565 S
O219 C202 1.257 . S
C220 O210 1.236 . S
C220 O211 1.257 . S
O221 Tb200 2.415 1_545 S
O221 C209 1.239 1_545 S
O222 Tb200 2.399 . S
O222 C209 1.263 . S
C223 O212 1.261 . S
C223 O213 1.257 . S
C224 C227 1.358 . S
C224 C228 1.332 1_545 S
C224 C230 1.504 . S
C225 C226 1.373 . S
C225 C229 1.308 1_545 S
C226 C225 1.373 . S
C226 C227 1.429 . S
C226 H236 0.932 . S
C227 C224 1.358 . S
C227 C226 1.429 . S
C227 H237 0.930 . S
C228 C224 1.332 1_565 S
C228 C229 1.394 . S
C228 H238 0.932 . S
C229 C225 1.308 1_565 S
C229 C228 1.394 . S
C229 H239 0.929 . S
C230 Tb201 2.764 . S
C230 O214 1.239 . S
C230 O215 1.263 . S
C230 C224 1.504 . S
C231 O216 1.236 . S
C231 O217 1.257 . S
H232 C205 0.932 . S
H233 C206 0.930 . S
H234 C207 0.932 . S
H235 C208 0.929 . S
H236 C226 0.932 . S
H237 C227 0.930 . S
H238 C228 0.932 . S
H239 C229 0.929 . S
Tb240 C249 2.764 1_556 S
Tb240 O250 2.325 . S
Tb240 O253 2.303 . S
Tb240 O257 2.322 . S
Tb240 O258 2.349 . S
Tb240 O261 2.415 1_556 S
Tb240 O262 2.399 1_556 S
Tb241 O251 2.322 . S
Tb241 O252 2.349 . S
Tb241 O254 2.415 . S
Tb241 O255 2.399 . S
Tb241 O256 2.325 . S
Tb241 O259 2.303 . S
Tb241 C270 2.764 . S
C242 O258 1.261 . S
C242 O259 1.257 . S
C243 C246 1.358 . S
C243 C247 1.332 . S
C243 C249 1.504 . S
C244 C245 1.373 . S
C244 C248 1.308 . S
C245 C244 1.373 . S
C245 C246 1.429 . S
C245 H272 0.932 . S
C246 C243 1.358 . S
C246 C245 1.429 . S
C246 H273 0.930 . S
C247 C243 1.332 . S
C247 C248 1.394 . S
C247 H274 0.932 . S
C248 C244 1.308 . S
C248 C247 1.394 . S
C248 H275 0.929 . S
C249 Tb240 2.764 1_554 S
C249 C243 1.504 . S
C249 O261 1.239 . S
C249 O262 1.263 . S
O250 Tb240 2.325 . S
O250 C260 1.236 . S
O251 Tb241 2.322 . S
O251 C260 1.257 . S
O252 Tb241 2.349 . S
O252 C263 1.261 . S
O253 Tb240 2.303 . S
O253 C263 1.257 . S
O254 Tb241 2.415 . S
O254 C270 1.239 . S
O255 Tb241 2.399 . S
O255 C270 1.263 . S
O256 Tb241 2.325 . S
O256 C271 1.236 . S
O257 Tb240 2.322 . S
O257 C271 1.257 . S
O258 Tb240 2.349 . S
O258 C242 1.261 . S
O259 Tb241 2.303 . S
O259 C242 1.257 . S
C260 O250 1.236 . S
C260 O251 1.257 . S
O261 Tb240 2.415 1_554 S
O261 C249 1.239 . S
O262 Tb240 2.399 1_554 S
O262 C249 1.263 . S
C263 O252 1.261 . S
C263 O253 1.257 . S
C264 C267 1.358 . S
C264 C268 1.332 . S
C264 C270 1.504 . S
C265 C266 1.373 . S
C265 C269 1.308 . S
C266 C265 1.373 . S
C266 C267 1.429 . S
C266 H276 0.932 . S
C267 C264 1.358 . S
C267 C266 1.429 . S
C267 H277 0.930 . S
C268 C264 1.332 . S
C268 C269 1.394 . S
C268 H278 0.932 . S
C269 C265 1.308 . S
C269 C268 1.394 . S
C269 H279 0.929 . S
C270 Tb241 2.764 . S
C270 O254 1.239 . S
C270 O255 1.263 . S
C270 C264 1.504 . S
C271 O256 1.236 . S
C271 O257 1.257 . S
H272 C245 0.932 . S
H273 C246 0.930 . S
H274 C247 0.932 . S
H275 C248 0.929 . S
H276 C266 0.932 . S
H277 C267 0.930 . S
H278 C268 0.932 . S
H279 C269 0.929 . S
Tb280 C289 2.764 1_556 S
Tb280 O290 2.325 . S
Tb280 O293 2.303 . S
Tb280 O297 2.322 . S
Tb280 O298 2.349 . S
Tb280 O301 2.415 1_556 S
Tb280 O302 2.399 1_556 S
Tb281 O291 2.322 . S
Tb281 O292 2.349 . S
Tb281 O294 2.415 . S
Tb281 O295 2.399 . S
Tb281 O296 2.325 . S
Tb281 O299 2.303 . S
Tb281 C310 2.764 . S
C282 O298 1.261 . S
C282 O299 1.257 . S
C283 C286 1.358 . S
C283 C287 1.332 . S
C283 C289 1.504 . S
C284 C285 1.373 . S
C284 C288 1.308 . S
C285 C284 1.373 . S
C285 C286 1.429 . S
C285 H312 0.932 . S
C286 C283 1.358 . S
C286 C285 1.429 . S
C286 H313 0.930 . S
C287 C283 1.332 . S
C287 C288 1.394 . S
C287 H314 0.932 . S
C288 C284 1.308 . S
C288 C287 1.394 . S
C288 H315 0.929 . S
C289 Tb280 2.764 1_554 S
C289 C283 1.504 . S
C289 O301 1.239 . S
C289 O302 1.263 . S
O290 Tb280 2.325 . S
O290 C300 1.236 . S
O291 Tb281 2.322 . S
O291 C300 1.257 . S
O292 Tb281 2.349 . S
O292 C303 1.261 . S
O293 Tb280 2.303 . S
O293 C303 1.257 . S
O294 Tb281 2.415 . S
O294 C310 1.239 . S
O295 Tb281 2.399 . S
O295 C310 1.263 . S
O296 Tb281 2.325 . S
O296 C311 1.236 . S
O297 Tb280 2.322 . S
O297 C311 1.257 . S
O298 Tb280 2.349 . S
O298 C282 1.261 . S
O299 Tb281 2.303 . S
O299 C282 1.257 . S
C300 O290 1.236 . S
C300 O291 1.257 . S
O301 Tb280 2.415 1_554 S
O301 C289 1.239 . S
O302 Tb280 2.399 1_554 S
O302 C289 1.263 . S
C303 O292 1.261 . S
C303 O293 1.257 . S
C304 C307 1.358 . S
C304 C308 1.332 . S
C304 C310 1.504 . S
C305 C306 1.373 . S
C305 C309 1.308 . S
C306 C305 1.373 . S
C306 C307 1.429 . S
C306 H316 0.932 . S
C307 C304 1.358 . S
C307 C306 1.429 . S
C307 H317 0.930 . S
C308 C304 1.332 . S
C308 C309 1.394 . S
C308 H318 0.932 . S
C309 C305 1.308 . S
C309 C308 1.394 . S
C309 H319 0.929 . S
C310 Tb281 2.764 . S
C310 O294 1.239 . S
C310 O295 1.263 . S
C310 C304 1.504 . S
C311 O296 1.236 . S
C311 O297 1.257 . S
H312 C285 0.932 . S
H313 C286 0.930 . S
H314 C287 0.932 . S
H315 C288 0.929 . S
H316 C306 0.932 . S
H317 C307 0.930 . S
H318 C308 0.932 . S
H319 C309 0.929 . S
Tb320 C329 2.764 1_556 S
Tb320 O330 2.325 . S
Tb320 O333 2.303 . S
Tb320 O337 2.322 . S
Tb320 O338 2.349 . S
Tb320 O341 2.415 1_556 S
Tb320 O342 2.399 1_556 S
Tb321 O331 2.322 . S
Tb321 O332 2.349 . S
Tb321 O334 2.415 . S
Tb321 O335 2.399 . S
Tb321 O336 2.325 . S
Tb321 O339 2.303 . S
Tb321 C350 2.764 . S
C322 O338 1.261 . S
C322 O339 1.257 . S
C323 C326 1.358 . S
C323 C327 1.332 . S
C323 C329 1.504 . S
C324 C325 1.373 . S
C324 C328 1.308 . S
C325 C324 1.373 . S
C325 C326 1.429 . S
C325 H352 0.932 . S
C326 C323 1.358 . S
C326 C325 1.429 . S
C326 H353 0.930 . S
C327 C323 1.332 . S
C327 C328 1.394 . S
C327 H354 0.932 . S
C328 C324 1.308 . S
C328 C327 1.394 . S
C328 H355 0.929 . S
C329 Tb320 2.764 1_554 S
C329 C323 1.504 . S
C329 O341 1.239 . S
C329 O342 1.263 . S
O330 Tb320 2.325 . S
O330 C340 1.236 . S
O331 Tb321 2.322 . S
O331 C340 1.257 . S
O332 Tb321 2.349 . S
O332 C343 1.261 . S
O333 Tb320 2.303 . S
O333 C343 1.257 . S
O334 Tb321 2.415 . S
O334 C350 1.239 . S
O335 Tb321 2.399 . S
O335 C350 1.263 . S
O336 Tb321 2.325 . S
O336 C351 1.236 . S
O337 Tb320 2.322 . S
O337 C351 1.257 . S
O338 Tb320 2.349 . S
O338 C322 1.261 . S
O339 Tb321 2.303 . S
O339 C322 1.257 . S
C340 O330 1.236 . S
C340 O331 1.257 . S
O341 Tb320 2.415 1_554 S
O341 C329 1.239 . S
O342 Tb320 2.399 1_554 S
O342 C329 1.263 . S
C343 O332 1.261 . S
C343 O333 1.257 . S
C344 C347 1.358 . S
C344 C348 1.332 . S
C344 C350 1.504 . S
C345 C346 1.373 . S
C345 C349 1.308 . S
C346 C345 1.373 . S
C346 C347 1.429 . S
C346 H356 0.932 . S
C347 C344 1.358 . S
C347 C346 1.429 . S
C347 H357 0.930 . S
C348 C344 1.332 . S
C348 C349 1.394 . S
C348 H358 0.932 . S
C349 C345 1.308 . S
C349 C348 1.394 . S
C349 H359 0.929 . S
C350 Tb321 2.764 . S
C350 O334 1.239 . S
C350 O335 1.263 . S
C350 C344 1.504 . S
C351 O336 1.236 . S
C351 O337 1.257 . S
H352 C325 0.932 . S
H353 C326 0.930 . S
H354 C327 0.932 . S
H355 C328 0.929 . S
H356 C346 0.932 . S
H357 C347 0.930 . S
H358 C348 0.932 . S
H359 C349 0.929 . S
Tb360 C369 2.764 . S
Tb360 O370 2.325 . S
Tb360 O373 2.303 . S
Tb360 O377 2.322 . S
Tb360 O378 2.349 . S
Tb360 O381 2.415 . S
Tb360 O382 2.399 . S
Tb361 O371 2.322 . S
Tb361 O372 2.349 . S
Tb361 O374 2.415 . S
Tb361 O375 2.399 . S
Tb361 O376 2.325 . S
Tb361 O379 2.303 . S
Tb361 C390 2.764 . S
C362 O378 1.261 . S
C362 O379 1.257 . S
C363 C366 1.358 . S
C363 C367 1.332 . S
C363 C369 1.504 1_554 S
C364 C365 1.373 . S
C364 C368 1.308 . S
C365 C364 1.373 . S
C365 C366 1.429 . S
C365 H392 0.932 . S
C366 C363 1.358 . S
C366 C365 1.429 . S
C366 H393 0.930 . S
C367 C363 1.332 . S
C367 C368 1.394 . S
C367 H394 0.932 . S
C368 C364 1.308 . S
C368 C367 1.394 . S
C368 H395 0.929 . S
C369 Tb360 2.764 . S
C369 C363 1.504 1_556 S
C369 O381 1.239 . S
C369 O382 1.263 . S
O370 Tb360 2.325 . S
O370 C380 1.236 . S
O371 Tb361 2.322 . S
O371 C380 1.257 . S
O372 Tb361 2.349 . S
O372 C383 1.261 . S
O373 Tb360 2.303 . S
O373 C383 1.257 . S
O374 Tb361 2.415 . S
O374 C390 1.239 . S
O375 Tb361 2.399 . S
O375 C390 1.263 . S
O376 Tb361 2.325 . S
O376 C391 1.236 . S
O377 Tb360 2.322 . S
O377 C391 1.257 . S
O378 Tb360 2.349 . S
O378 C362 1.261 . S
O379 Tb361 2.303 . S
O379 C362 1.257 . S
C380 O370 1.236 . S
C380 O371 1.257 . S
O381 Tb360 2.415 . S
O381 C369 1.239 . S
O382 Tb360 2.399 . S
O382 C369 1.263 . S
C383 O372 1.261 . S
C383 O373 1.257 . S
C384 C387 1.358 . S
C384 C388 1.332 . S
C384 C390 1.504 . S
C385 C386 1.373 . S
C385 C389 1.308 . S
C386 C385 1.373 . S
C386 C387 1.429 . S
C386 H396 0.932 . S
C387 C384 1.358 . S
C387 C386 1.429 . S
C387 H397 0.930 . S
C388 C384 1.332 . S
C388 C389 1.394 . S
C388 H398 0.932 . S
C389 C385 1.308 . S
C389 C388 1.394 . S
C389 H399 0.929 . S
C390 Tb361 2.764 . S
C390 O374 1.239 . S
C390 O375 1.263 . S
C390 C384 1.504 . S
C391 O376 1.236 . S
C391 O377 1.257 . S
H392 C365 0.932 . S
H393 C366 0.930 . S
H394 C367 0.932 . S
H395 C368 0.929 . S
H396 C386 0.932 . S
H397 C387 0.930 . S
H398 C388 0.932 . S
H399 C389 0.929 . S
Tb400 C409 2.764 . S
Tb400 O410 2.325 . S
Tb400 O413 2.303 . S
Tb400 O417 2.322 . S
Tb400 O418 2.349 . S
Tb400 O421 2.415 . S
Tb400 O422 2.399 . S
Tb401 O411 2.322 . S
Tb401 O412 2.349 . S
Tb401 O414 2.415 . S
Tb401 O415 2.399 . S
Tb401 O416 2.325 . S
Tb401 O419 2.303 . S
Tb401 C430 2.764 . S
C402 O418 1.261 . S
C402 O419 1.257 . S
C403 C406 1.358 . S
C403 C407 1.332 . S
C403 C409 1.504 1_554 S
C404 C405 1.373 . S
C404 C408 1.308 . S
C405 C404 1.373 . S
C405 C406 1.429 . S
C405 H432 0.932 . S
C406 C403 1.358 . S
C406 C405 1.429 . S
C406 H433 0.930 . S
C407 C403 1.332 . S
C407 C408 1.394 . S
C407 H434 0.932 . S
C408 C404 1.308 . S
C408 C407 1.394 . S
C408 H435 0.929 . S
C409 Tb400 2.764 . S
C409 C403 1.504 1_556 S
C409 O421 1.239 . S
C409 O422 1.263 . S
O410 Tb400 2.325 . S
O410 C420 1.236 . S
O411 Tb401 2.322 . S
O411 C420 1.257 . S
O412 Tb401 2.349 . S
O412 C423 1.261 . S
O413 Tb400 2.303 . S
O413 C423 1.257 . S
O414 Tb401 2.415 . S
O414 C430 1.239 . S
O415 Tb401 2.399 . S
O415 C430 1.263 . S
O416 Tb401 2.325 . S
O416 C431 1.236 . S
O417 Tb400 2.322 . S
O417 C431 1.257 . S
O418 Tb400 2.349 . S
O418 C402 1.261 . S
O419 Tb401 2.303 . S
O419 C402 1.257 . S
C420 O410 1.236 . S
C420 O411 1.257 . S
O421 Tb400 2.415 . S
O421 C409 1.239 . S
O422 Tb400 2.399 . S
O422 C409 1.263 . S
C423 O412 1.261 . S
C423 O413 1.257 . S
C424 C427 1.358 . S
C424 C428 1.332 . S
C424 C430 1.504 . S
C425 C426 1.373 . S
C425 C429 1.308 . S
C426 C425 1.373 . S
C426 C427 1.429 . S
C426 H436 0.932 . S
C427 C424 1.358 . S
C427 C426 1.429 . S
C427 H437 0.930 . S
C428 C424 1.332 . S
C428 C429 1.394 . S
C428 H438 0.932 . S
C429 C425 1.308 . S
C429 C428 1.394 . S
C429 H439 0.929 . S
C430 Tb401 2.764 . S
C430 O414 1.239 . S
C430 O415 1.263 . S
C430 C424 1.504 . S
C431 O416 1.236 . S
C431 O417 1.257 . S
H432 C405 0.932 . S
H433 C406 0.930 . S
H434 C407 0.932 . S
H435 C408 0.929 . S
H436 C426 0.932 . S
H437 C427 0.930 . S
H438 C428 0.932 . S
H439 C429 0.929 . S
Tb440 C449 2.764 . S
Tb440 O450 2.325 . S
Tb440 O453 2.303 . S
Tb440 O457 2.322 . S
Tb440 O458 2.349 . S
Tb440 O461 2.415 . S
Tb440 O462 2.399 . S
Tb441 O451 2.322 . S
Tb441 O452 2.349 . S
Tb441 O454 2.415 . S
Tb441 O455 2.399 . S
Tb441 O456 2.325 . S
Tb441 O459 2.303 . S
Tb441 C470 2.764 . S
C442 O458 1.261 . S
C442 O459 1.257 . S
C443 C446 1.358 . S
C443 C447 1.332 . S
C443 C449 1.504 1_554 S
C444 C445 1.373 . S
C444 C448 1.308 . S
C445 C444 1.373 . S
C445 C446 1.429 . S
C445 H472 0.932 . S
C446 C443 1.358 . S
C446 C445 1.429 . S
C446 H473 0.930 . S
C447 C443 1.332 . S
C447 C448 1.394 . S
C447 H474 0.932 . S
C448 C444 1.308 . S
C448 C447 1.394 . S
C448 H475 0.929 . S
C449 Tb440 2.764 . S
C449 C443 1.504 1_556 S
C449 O461 1.239 . S
C449 O462 1.263 . S
O450 Tb440 2.325 . S
O450 C460 1.236 . S
O451 Tb441 2.322 . S
O451 C460 1.257 . S
O452 Tb441 2.349 . S
O452 C463 1.261 . S
O453 Tb440 2.303 . S
O453 C463 1.257 . S
O454 Tb441 2.415 . S
O454 C470 1.239 . S
O455 Tb441 2.399 . S
O455 C470 1.263 . S
O456 Tb441 2.325 . S
O456 C471 1.236 . S
O457 Tb440 2.322 . S
O457 C471 1.257 . S
O458 Tb440 2.349 . S
O458 C442 1.261 . S
O459 Tb441 2.303 . S
O459 C442 1.257 . S
C460 O450 1.236 . S
C460 O451 1.257 . S
O461 Tb440 2.415 . S
O461 C449 1.239 . S
O462 Tb440 2.399 . S
O462 C449 1.263 . S
C463 O452 1.261 . S
C463 O453 1.257 . S
C464 C467 1.358 . S
C464 C468 1.332 . S
C464 C470 1.504 . S
C465 C466 1.373 . S
C465 C469 1.308 . S
C466 C465 1.373 . S
C466 C467 1.429 . S
C466 H476 0.932 . S
C467 C464 1.358 . S
C467 C466 1.429 . S
C467 H477 0.930 . S
C468 C464 1.332 . S
C468 C469 1.394 . S
C468 H478 0.932 . S
C469 C465 1.308 . S
C469 C468 1.394 . S
C469 H479 0.929 . S
C470 Tb441 2.764 . S
C470 O454 1.239 . S
C470 O455 1.263 . S
C470 C464 1.504 . S
C471 O456 1.236 . S
C471 O457 1.257 . S
H472 C445 0.932 . S
H473 C446 0.930 . S
H474 C447 0.932 . S
H475 C448 0.929 . S
H476 C466 0.932 . S
H477 C467 0.930 . S
H478 C468 0.932 . S
H479 C469 0.929 . S
Tb480 C489 2.764 . S
Tb480 O490 2.325 . S
Tb480 O493 2.303 . S
Tb480 O497 2.322 . S
Tb480 O498 2.349 . S
Tb480 O501 2.415 . S
Tb480 O502 2.399 . S
Tb481 O491 2.322 . S
Tb481 O492 2.349 . S
Tb481 O494 2.415 . S
Tb481 O495 2.399 . S
Tb481 O496 2.325 . S
Tb481 O499 2.303 . S
Tb481 C510 2.764 . S
C482 O498 1.261 . S
C482 O499 1.257 . S
C483 C486 1.358 . S
C483 C487 1.332 . S
C483 C489 1.504 . S
C484 C485 1.373 . S
C484 C488 1.308 . S
C485 C484 1.373 . S
C485 C486 1.429 . S
C485 H512 0.932 . S
C486 C483 1.358 . S
C486 C485 1.429 . S
C486 H513 0.930 . S
C487 C483 1.332 . S
C487 C488 1.394 . S
C487 H514 0.932 . S
C488 C484 1.308 . S
C488 C487 1.394 . S
C488 H515 0.929 . S
C489 Tb480 2.764 . S
C489 C483 1.504 . S
C489 O501 1.239 . S
C489 O502 1.263 . S
O490 Tb480 2.325 . S
O490 C500 1.236 . S
O491 Tb481 2.322 . S
O491 C500 1.257 . S
O492 Tb481 2.349 . S
O492 C503 1.261 . S
O493 Tb480 2.303 . S
O493 C503 1.257 . S
O494 Tb481 2.415 . S
O494 C510 1.239 . S
O495 Tb481 2.399 . S
O495 C510 1.263 . S
O496 Tb481 2.325 . S
O496 C511 1.236 . S
O497 Tb480 2.322 . S
O497 C511 1.257 . S
O498 Tb480 2.349 . S
O498 C482 1.261 . S
O499 Tb481 2.303 . S
O499 C482 1.257 . S
C500 O490 1.236 . S
C500 O491 1.257 . S
O501 Tb480 2.415 . S
O501 C489 1.239 . S
O502 Tb480 2.399 . S
O502 C489 1.263 . S
C503 O492 1.261 . S
C503 O493 1.257 . S
C504 C507 1.358 . S
C504 C508 1.332 . S
C504 C510 1.504 1_556 S
C505 C506 1.373 . S
C505 C509 1.308 . S
C506 C505 1.373 . S
C506 C507 1.429 . S
C506 H516 0.932 . S
C507 C504 1.358 . S
C507 C506 1.429 . S
C507 H517 0.930 . S
C508 C504 1.332 . S
C508 C509 1.394 . S
C508 H518 0.932 . S
C509 C505 1.308 . S
C509 C508 1.394 . S
C509 H519 0.929 . S
C510 Tb481 2.764 . S
C510 O494 1.239 . S
C510 O495 1.263 . S
C510 C504 1.504 1_554 S
C511 O496 1.236 . S
C511 O497 1.257 . S
H512 C485 0.932 . S
H513 C486 0.930 . S
H514 C487 0.932 . S
H515 C488 0.929 . S
H516 C506 0.932 . S
H517 C507 0.930 . S
H518 C508 0.932 . S
H519 C509 0.929 . S
Tb520 C529 2.764 . S
Tb520 O530 2.325 . S
Tb520 O533 2.303 . S
Tb520 O537 2.322 . S
Tb520 O538 2.349 . S
Tb520 O541 2.415 . S
Tb520 O542 2.399 . S
Tb521 O531 2.322 . S
Tb521 O532 2.349 . S
Tb521 O534 2.415 . S
Tb521 O535 2.399 . S
Tb521 O536 2.325 . S
Tb521 O539 2.303 . S
Tb521 C550 2.764 . S
C522 O538 1.261 . S
C522 O539 1.257 . S
C523 C526 1.358 . S
C523 C527 1.332 . S
C523 C529 1.504 . S
C524 C525 1.373 . S
C524 C528 1.308 . S
C525 C524 1.373 . S
C525 C526 1.429 . S
C525 H552 0.932 . S
C526 C523 1.358 . S
C526 C525 1.429 . S
C526 H553 0.930 . S
C527 C523 1.332 . S
C527 C528 1.394 . S
C527 H554 0.932 . S
C528 C524 1.308 . S
C528 C527 1.394 . S
C528 H555 0.929 . S
C529 Tb520 2.764 . S
C529 C523 1.504 . S
C529 O541 1.239 . S
C529 O542 1.263 . S
O530 Tb520 2.325 . S
O530 C540 1.236 . S
O531 Tb521 2.322 . S
O531 C540 1.257 . S
O532 Tb521 2.349 . S
O532 C543 1.261 . S
O533 Tb520 2.303 . S
O533 C543 1.257 . S
O534 Tb521 2.415 . S
O534 C550 1.239 . S
O535 Tb521 2.399 . S
O535 C550 1.263 . S
O536 Tb521 2.325 . S
O536 C551 1.236 . S
O537 Tb520 2.322 . S
O537 C551 1.257 . S
O538 Tb520 2.349 . S
O538 C522 1.261 . S
O539 Tb521 2.303 . S
O539 C522 1.257 . S
C540 O530 1.236 . S
C540 O531 1.257 . S
O541 Tb520 2.415 . S
O541 C529 1.239 . S
O542 Tb520 2.399 . S
O542 C529 1.263 . S
C543 O532 1.261 . S
C543 O533 1.257 . S
C544 C547 1.358 . S
C544 C548 1.332 . S
C544 C550 1.504 1_556 S
C545 C546 1.373 . S
C545 C549 1.308 . S
C546 C545 1.373 . S
C546 C547 1.429 . S
C546 H556 0.932 . S
C547 C544 1.358 . S
C547 C546 1.429 . S
C547 H557 0.930 . S
C548 C544 1.332 . S
C548 C549 1.394 . S
C548 H558 0.932 . S
C549 C545 1.308 . S
C549 C548 1.394 . S
C549 H559 0.929 . S
C550 Tb521 2.764 . S
C550 O534 1.239 . S
C550 O535 1.263 . S
C550 C544 1.504 1_554 S
C551 O536 1.236 . S
C551 O537 1.257 . S
H552 C525 0.932 . S
H553 C526 0.930 . S
H554 C527 0.932 . S
H555 C528 0.929 . S
H556 C546 0.932 . S
H557 C547 0.930 . S
H558 C548 0.932 . S
H559 C549 0.929 . S
Tb560 C569 2.764 . S
Tb560 O570 2.325 . S
Tb560 O573 2.303 . S
Tb560 O577 2.322 . S
Tb560 O578 2.349 . S
Tb560 O581 2.415 . S
Tb560 O582 2.399 . S
Tb561 O571 2.322 . S
Tb561 O572 2.349 . S
Tb561 O574 2.415 . S
Tb561 O575 2.399 . S
Tb561 O576 2.325 . S
Tb561 O579 2.303 . S
Tb561 C590 2.764 . S
C562 O578 1.261 . S
C562 O579 1.257 . S
C563 C566 1.358 . S
C563 C567 1.332 . S
C563 C569 1.504 . S
C564 C565 1.373 . S
C564 C568 1.308 . S
C565 C564 1.373 . S
C565 C566 1.429 . S
C565 H592 0.932 . S
C566 C563 1.358 . S
C566 C565 1.429 . S
C566 H593 0.930 . S
C567 C563 1.332 . S
C567 C568 1.394 . S
C567 H594 0.932 . S
C568 C564 1.308 . S
C568 C567 1.394 . S
C568 H595 0.929 . S
C569 Tb560 2.764 . S
C569 C563 1.504 . S
C569 O581 1.239 . S
C569 O582 1.263 . S
O570 Tb560 2.325 . S
O570 C580 1.236 . S
O571 Tb561 2.322 . S
O571 C580 1.257 . S
O572 Tb561 2.349 . S
O572 C583 1.261 . S
O573 Tb560 2.303 . S
O573 C583 1.257 . S
O574 Tb561 2.415 . S
O574 C590 1.239 . S
O575 Tb561 2.399 . S
O575 C590 1.263 . S
O576 Tb561 2.325 . S
O576 C591 1.236 . S
O577 Tb560 2.322 . S
O577 C591 1.257 . S
O578 Tb560 2.349 . S
O578 C562 1.261 . S
O579 Tb561 2.303 . S
O579 C562 1.257 . S
C580 O570 1.236 . S
C580 O571 1.257 . S
O581 Tb560 2.415 . S
O581 C569 1.239 . S
O582 Tb560 2.399 . S
O582 C569 1.263 . S
C583 O572 1.261 . S
C583 O573 1.257 . S
C584 C587 1.358 . S
C584 C588 1.332 . S
C584 C590 1.504 1_556 S
C585 C586 1.373 . S
C585 C589 1.308 . S
C586 C585 1.373 . S
C586 C587 1.429 . S
C586 H596 0.932 . S
C587 C584 1.358 . S
C587 C586 1.429 . S
C587 H597 0.930 . S
C588 C584 1.332 . S
C588 C589 1.394 . S
C588 H598 0.932 . S
C589 C585 1.308 . S
C589 C588 1.394 . S
C589 H599 0.929 . S
C590 Tb561 2.764 . S
C590 O574 1.239 . S
C590 O575 1.263 . S
C590 C584 1.504 1_554 S
C591 O576 1.236 . S
C591 O577 1.257 . S
H592 C565 0.932 . S
H593 C566 0.930 . S
H594 C567 0.932 . S
H595 C568 0.929 . S
H596 C586 0.932 . S
H597 C587 0.930 . S
H598 C588 0.932 . S
H599 C589 0.929 . S
Tb600 C609 2.764 . S
Tb600 O610 2.325 . S
Tb600 O613 2.303 . S
Tb600 O617 2.322 . S
Tb600 O618 2.349 . S
Tb600 O621 2.415 . S
Tb600 O622 2.399 . S
Tb601 O611 2.322 . S
Tb601 O612 2.349 . S
Tb601 O614 2.415 1_554 S
Tb601 O615 2.399 1_554 S
Tb601 O616 2.325 . S
Tb601 O619 2.303 . S
Tb601 C630 2.764 1_554 S
C602 O618 1.261 . S
C602 O619 1.257 . S
C603 C606 1.358 . S
C603 C607 1.332 . S
C603 C609 1.504 . S
C604 C605 1.373 . S
C604 C608 1.308 . S
C605 C604 1.373 . S
C605 C606 1.429 . S
C605 H632 0.932 . S
C606 C603 1.358 . S
C606 C605 1.429 . S
C606 H633 0.930 . S
C607 C603 1.332 . S
C607 C608 1.394 . S
C607 H634 0.932 . S
C608 C604 1.308 . S
C608 C607 1.394 . S
C608 H635 0.929 . S
C609 Tb600 2.764 . S
C609 C603 1.504 . S
C609 O621 1.239 . S
C609 O622 1.263 . S
O610 Tb600 2.325 . S
O610 C620 1.236 . S
O611 Tb601 2.322 . S
O611 C620 1.257 . S
O612 Tb601 2.349 . S
O612 C623 1.261 . S
O613 Tb600 2.303 . S
O613 C623 1.257 . S
O614 Tb601 2.415 1_556 S
O614 C630 1.239 . S
O615 Tb601 2.399 1_556 S
O615 C630 1.263 . S
O616 Tb601 2.325 . S
O616 C631 1.236 . S
O617 Tb600 2.322 . S
O617 C631 1.257 . S
O618 Tb600 2.349 . S
O618 C602 1.261 . S
O619 Tb601 2.303 . S
O619 C602 1.257 . S
C620 O610 1.236 . S
C620 O611 1.257 . S
O621 Tb600 2.415 . S
O621 C609 1.239 . S
O622 Tb600 2.399 . S
O622 C609 1.263 . S
C623 O612 1.261 . S
C623 O613 1.257 . S
C624 C627 1.358 . S
C624 C628 1.332 . S
C624 C630 1.504 . S
C625 C626 1.373 . S
C625 C629 1.308 . S
C626 C625 1.373 . S
C626 C627 1.429 . S
C626 H636 0.932 . S
C627 C624 1.358 . S
C627 C626 1.429 . S
C627 H637 0.930 . S
C628 C624 1.332 . S
C628 C629 1.394 . S
C628 H638 0.932 . S
C629 C625 1.308 . S
C629 C628 1.394 . S
C629 H639 0.929 . S
C630 Tb601 2.764 1_556 S
C630 O614 1.239 . S
C630 O615 1.263 . S
C630 C624 1.504 . S
C631 O616 1.236 . S
C631 O617 1.257 . S
H632 C605 0.932 . S
H633 C606 0.930 . S
H634 C607 0.932 . S
H635 C608 0.929 . S
H636 C626 0.932 . S
H637 C627 0.930 . S
H638 C628 0.932 . S
H639 C629 0.929 . S
Tb640 C649 2.764 . S
Tb640 O650 2.325 . S
Tb640 O653 2.303 . S
Tb640 O657 2.322 . S
Tb640 O658 2.349 . S
Tb640 O661 2.415 . S
Tb640 O662 2.399 . S
Tb641 O651 2.322 . S
Tb641 O652 2.349 . S
Tb641 O654 2.415 1_554 S
Tb641 O655 2.399 1_554 S
Tb641 O656 2.325 . S
Tb641 O659 2.303 . S
Tb641 C670 2.764 1_554 S
C642 O658 1.261 . S
C642 O659 1.257 . S
C643 C646 1.358 . S
C643 C647 1.332 . S
C643 C649 1.504 . S
C644 C645 1.373 . S
C644 C648 1.308 . S
C645 C644 1.373 . S
C645 C646 1.429 . S
C645 H672 0.932 . S
C646 C643 1.358 . S
C646 C645 1.429 . S
C646 H673 0.930 . S
C647 C643 1.332 . S
C647 C648 1.394 . S
C647 H674 0.932 . S
C648 C644 1.308 . S
C648 C647 1.394 . S
C648 H675 0.929 . S
C649 Tb640 2.764 . S
C649 C643 1.504 . S
C649 O661 1.239 . S
C649 O662 1.263 . S
O650 Tb640 2.325 . S
O650 C660 1.236 . S
O651 Tb641 2.322 . S
O651 C660 1.257 . S
O652 Tb641 2.349 . S
O652 C663 1.261 . S
O653 Tb640 2.303 . S
O653 C663 1.257 . S
O654 Tb641 2.415 1_556 S
O654 C670 1.239 . S
O655 Tb641 2.399 1_556 S
O655 C670 1.263 . S
O656 Tb641 2.325 . S
O656 C671 1.236 . S
O657 Tb640 2.322 . S
O657 C671 1.257 . S
O658 Tb640 2.349 . S
O658 C642 1.261 . S
O659 Tb641 2.303 . S
O659 C642 1.257 . S
C660 O650 1.236 . S
C660 O651 1.257 . S
O661 Tb640 2.415 . S
O661 C649 1.239 . S
O662 Tb640 2.399 . S
O662 C649 1.263 . S
C663 O652 1.261 . S
C663 O653 1.257 . S
C664 C667 1.358 . S
C664 C668 1.332 . S
C664 C670 1.504 . S
C665 C666 1.373 . S
C665 C669 1.308 . S
C666 C665 1.373 . S
C666 C667 1.429 . S
C666 H676 0.932 . S
C667 C664 1.358 . S
C667 C666 1.429 . S
C667 H677 0.930 . S
C668 C664 1.332 . S
C668 C669 1.394 . S
C668 H678 0.932 . S
C669 C665 1.308 . S
C669 C668 1.394 . S
C669 H679 0.929 . S
C670 Tb641 2.764 1_556 S
C670 O654 1.239 . S
C670 O655 1.263 . S
C670 C664 1.504 . S
C671 O656 1.236 . S
C671 O657 1.257 . S
H672 C645 0.932 . S
H673 C646 0.930 . S
H674 C647 0.932 . S
H675 C648 0.929 . S
H676 C666 0.932 . S
H677 C667 0.930 . S
H678 C668 0.932 . S
H679 C669 0.929 . S
Tb680 C689 2.764 . S
Tb680 O690 2.325 . S
Tb680 O693 2.303 . S
Tb680 O697 2.322 . S
Tb680 O698 2.349 . S
Tb680 O701 2.415 . S
Tb680 O702 2.399 . S
Tb681 O691 2.322 . S
Tb681 O692 2.349 . S
Tb681 O694 2.415 1_554 S
Tb681 O695 2.399 1_554 S
Tb681 O696 2.325 . S
Tb681 O699 2.303 . S
Tb681 C710 2.764 1_554 S
C682 O698 1.261 . S
C682 O699 1.257 . S
C683 C686 1.358 . S
C683 C687 1.332 . S
C683 C689 1.504 . S
C684 C685 1.373 . S
C684 C688 1.308 . S
C685 C684 1.373 . S
C685 C686 1.429 . S
C685 H712 0.932 . S
C686 C683 1.358 . S
C686 C685 1.429 . S
C686 H713 0.930 . S
C687 C683 1.332 . S
C687 C688 1.394 . S
C687 H714 0.932 . S
C688 C684 1.308 . S
C688 C687 1.394 . S
C688 H715 0.929 . S
C689 Tb680 2.764 . S
C689 C683 1.504 . S
C689 O701 1.239 . S
C689 O702 1.263 . S
O690 Tb680 2.325 . S
O690 C700 1.236 . S
O691 Tb681 2.322 . S
O691 C700 1.257 . S
O692 Tb681 2.349 . S
O692 C703 1.261 . S
O693 Tb680 2.303 . S
O693 C703 1.257 . S
O694 Tb681 2.415 1_556 S
O694 C710 1.239 . S
O695 Tb681 2.399 1_556 S
O695 C710 1.263 . S
O696 Tb681 2.325 . S
O696 C711 1.236 . S
O697 Tb680 2.322 . S
O697 C711 1.257 . S
O698 Tb680 2.349 . S
O698 C682 1.261 . S
O699 Tb681 2.303 . S
O699 C682 1.257 . S
C700 O690 1.236 . S
C700 O691 1.257 . S
O701 Tb680 2.415 . S
O701 C689 1.239 . S
O702 Tb680 2.399 . S
O702 C689 1.263 . S
C703 O692 1.261 . S
C703 O693 1.257 . S
C704 C707 1.358 . S
C704 C708 1.332 . S
C704 C710 1.504 . S
C705 C706 1.373 . S
C705 C709 1.308 . S
C706 C705 1.373 . S
C706 C707 1.429 . S
C706 H716 0.932 . S
C707 C704 1.358 . S
C707 C706 1.429 . S
C707 H717 0.930 . S
C708 C704 1.332 . S
C708 C709 1.394 . S
C708 H718 0.932 . S
C709 C705 1.308 . S
C709 C708 1.394 . S
C709 H719 0.929 . S
C710 Tb681 2.764 1_556 S
C710 O694 1.239 . S
C710 O695 1.263 . S
C710 C704 1.504 . S
C711 O696 1.236 . S
C711 O697 1.257 . S
H712 C685 0.932 . S
H713 C686 0.930 . S
H714 C687 0.932 . S
H715 C688 0.929 . S
H716 C706 0.932 . S
H717 C707 0.930 . S
H718 C708 0.932 . S
H719 C709 0.929 . S
C720 C721 1.369 . S
C720 C722 1.419 . S
C720 H724 0.930 . S
C721 C720 1.369 . S
C721 C730 1.429 . S
C722 C720 1.419 . S
C722 C723 1.363 . S
C722 H725 0.929 . S
C723 C722 1.363 . S
C723 C729 1.428 . S
H724 C720 0.930 . S
H725 C722 0.929 . S
S726 N727 1.613 . S
S726 N728 1.610 . S
N727 S726 1.613 . S
N727 C730 1.350 . S
N728 S726 1.610 . S
N728 C729 1.351 . S
C729 C723 1.428 . S
C729 N728 1.351 . S
C729 C730 1.434 . S
C730 C721 1.429 . S
C730 N727 1.350 . S
C730 C729 1.434 . S
C731 C732 1.369 . S
C731 C733 1.419 . S
C731 H735 0.930 . S
C732 C731 1.369 . S
C732 C741 1.429 . S
C733 C731 1.419 . S
C733 C734 1.363 . S
C733 H736 0.929 . S
C734 C733 1.363 . S
C734 C740 1.428 . S
H735 C731 0.930 . S
H736 C733 0.929 . S
S737 N738 1.613 . S
S737 N739 1.610 . S
N738 S737 1.613 . S
N738 C741 1.350 . S
N739 S737 1.610 . S
N739 C740 1.351 . S
C740 C734 1.428 . S
C740 N739 1.351 . S
C740 C741 1.434 . S
C741 C732 1.429 . S
C741 N738 1.350 . S
C741 C740 1.434 . S
C742 C743 1.369 . S
C742 C744 1.419 . S
C742 H746 0.930 . S
C743 C742 1.369 . S
C743 C752 1.429 . S
C744 C742 1.419 . S
C744 C745 1.363 . S
C744 H747 0.929 . S
C745 C744 1.363 . S
C745 C751 1.428 . S
H746 C742 0.930 . S
H747 C744 0.929 . S
S748 N749 1.613 . S
S748 N750 1.610 . S
N749 S748 1.613 . S
N749 C752 1.350 . S
N750 S748 1.610 . S
N750 C751 1.351 . S
C751 C745 1.428 . S
C751 N750 1.351 . S
C751 C752 1.434 . S
C752 C743 1.429 . S
C752 N749 1.350 . S
C752 C751 1.434 . S
C753 C754 1.369 . S
C753 C755 1.419 . S
C753 H757 0.930 . S
C754 C753 1.369 . S
C754 C763 1.429 . S
C755 C753 1.419 . S
C755 C756 1.363 . S
C755 H758 0.929 . S
C756 C755 1.363 . S
C756 C762 1.428 . S
H757 C753 0.930 . S
H758 C755 0.929 . S
S759 N760 1.613 . S
S759 N761 1.610 . S
N760 S759 1.613 . S
N760 C763 1.350 . S
N761 S759 1.610 . S
N761 C762 1.351 . S
C762 C756 1.428 . S
C762 N761 1.351 . S
C762 C763 1.434 . S
C763 C754 1.429 . S
C763 N760 1.350 . S
C763 C762 1.434 . S
C764 C765 1.369 . S
C764 C766 1.419 . S
C764 H768 0.930 . S
C765 C764 1.369 . S
C765 C774 1.429 . S
C766 C764 1.419 . S
C766 C767 1.363 . S
C766 H769 0.929 . S
C767 C766 1.363 . S
C767 C773 1.428 . S
H768 C764 0.930 . S
H769 C766 0.929 . S
S770 N771 1.613 . S
S770 N772 1.610 . S
N771 S770 1.613 . S
N771 C774 1.350 . S
N772 S770 1.610 . S
N772 C773 1.351 . S
C773 C767 1.428 . S
C773 N772 1.351 . S
C773 C774 1.434 . S
C774 C765 1.429 . S
C774 N771 1.350 . S
C774 C773 1.434 . S
C775 C776 1.369 . S
C775 C777 1.419 . S
C775 H779 0.930 . S
C776 C775 1.369 . S
C776 C785 1.429 . S
C777 C775 1.419 . S
C777 C778 1.363 . S
C777 H780 0.929 . S
C778 C777 1.363 . S
C778 C784 1.428 . S
H779 C775 0.930 . S
H780 C777 0.929 . S
S781 N782 1.613 . S
S781 N783 1.610 . S
N782 S781 1.613 . S
N782 C785 1.350 . S
N783 S781 1.610 . S
N783 C784 1.351 . S
C784 C778 1.428 . S
C784 N783 1.351 . S
C784 C785 1.434 . S
C785 C776 1.429 . S
C785 N782 1.350 . S
C785 C784 1.434 . S
C786 C787 1.369 . S
C786 C788 1.419 . S
C786 H790 0.930 . S
C787 C786 1.369 . S
C787 C796 1.429 . S
C788 C786 1.419 . S
C788 C789 1.363 . S
C788 H791 0.929 . S
C789 C788 1.363 . S
C789 C795 1.428 . S
H790 C786 0.930 . S
H791 C788 0.929 . S
S792 N793 1.601 1_455 S
S792 N794 1.600 1_455 S
N793 S792 1.601 1_655 S
N793 C796 1.350 . S
N794 S792 1.600 1_655 S
N794 C795 1.351 . S
C795 C789 1.428 . S
C795 N794 1.351 . S
C795 C796 1.434 . S
C796 C787 1.429 . S
C796 N793 1.350 . S
C796 C795 1.434 . S
C797 C798 1.369 . S
C797 C799 1.419 . S
C797 H801 0.930 . S
C798 C797 1.369 . S
C798 C807 1.429 . S
C799 C797 1.419 . S
C799 C800 1.363 . S
C799 H802 0.929 . S
C800 C799 1.363 . S
C800 C806 1.428 . S
H801 C797 0.930 . S
H802 C799 0.929 . S
S803 N804 1.613 . S
S803 N805 1.610 . S
N804 S803 1.613 . S
N804 C807 1.350 . S
N805 S803 1.610 . S
N805 C806 1.351 . S
C806 C800 1.428 . S
C806 N805 1.351 . S
C806 C807 1.434 . S
C807 C798 1.429 . S
C807 N804 1.350 . S
C807 C806 1.434 . S
C808 C809 1.369 . S
C808 C810 1.419 . S
C808 H812 0.930 . S
C809 C808 1.369 . S
C809 C818 1.429 . S
C810 C808 1.419 . S
C810 C811 1.363 . S
C810 H813 0.929 . S
C811 C810 1.363 . S
C811 C817 1.428 . S
H812 C808 0.930 . S
H813 C810 0.929 . S
S814 N815 1.613 . S
S814 N816 1.610 . S
N815 S814 1.613 . S
N815 C818 1.350 . S
N816 S814 1.610 . S
N816 C817 1.351 . S
C817 C811 1.428 . S
C817 N816 1.351 . S
C817 C818 1.434 . S
C818 C809 1.429 . S
C818 N815 1.350 . S
C818 C817 1.434 . S
C819 C820 1.369 . S
C819 C821 1.419 . S
C819 H823 0.930 . S
C820 C819 1.369 . S
C820 C829 1.429 . S
C821 C819 1.419 . S
C821 C822 1.363 . S
C821 H824 0.929 . S
C822 C821 1.363 . S
C822 C828 1.428 . S
H823 C819 0.930 . S
H824 C821 0.929 . S
S825 N826 1.613 1_545 S
S825 N827 1.610 . S
N826 S825 1.613 1_565 S
N826 C829 1.350 . S
N827 S825 1.610 . S
N827 C828 1.351 1_545 S
C828 C822 1.428 . S
C828 N827 1.351 1_565 S
C828 C829 1.434 . S
C829 C820 1.429 . S
C829 N826 1.350 . S
C829 C828 1.434 . S
C830 C831 1.369 . S
C830 C832 1.419 . S
C830 H834 0.930 . S
C831 C830 1.369 . S
C831 C840 1.429 . S
C832 C830 1.419 . S
C832 C833 1.363 . S
C832 H835 0.929 . S
C833 C832 1.363 . S
C833 C839 1.428 . S
H834 C830 0.930 . S
H835 C832 0.929 . S
S836 N837 1.613 . S
S836 N838 1.610 . S
N837 S836 1.613 . S
N837 C840 1.350 . S
N838 S836 1.610 . S
N838 C839 1.351 . S
C839 C833 1.428 . S
C839 N838 1.351 . S
C839 C840 1.434 . S
C840 C831 1.429 . S
C840 N837 1.350 . S
C840 C839 1.434 . S
C841 C842 1.369 . S
C841 C843 1.419 . S
C841 H845 0.930 . S
C842 C841 1.369 . S
C842 C851 1.429 . S
C843 C841 1.419 . S
C843 C844 1.363 . S
C843 H846 0.929 . S
C844 C843 1.363 . S
C844 C850 1.428 . S
H845 C841 0.930 . S
H846 C843 0.929 . S
S847 N848 1.613 . S
S847 N849 1.610 . S
N848 S847 1.613 . S
N848 C851 1.350 . S
N849 S847 1.610 . S
N849 C850 1.351 . S
C850 C844 1.428 . S
C850 N849 1.351 . S
C850 C851 1.434 . S
C851 C842 1.429 . S
C851 N848 1.350 . S
C851 C850 1.434 . S
C852 C853 1.369 . S
C852 C854 1.419 1_655 S
C852 H856 0.930 . S
C853 C852 1.369 . S
C853 C862 1.429 1_655 S
C854 C852 1.419 1_455 S
C854 C855 1.363 . S
C854 H857 0.929 . S
C855 C854 1.363 . S
C855 C861 1.428 . S
H856 C852 0.930 . S
H857 C854 0.929 . S
S858 N859 1.621 . S
S858 N860 1.610 . S
N859 S858 1.621 . S
N859 C862 1.355 . S
N860 S858 1.610 . S
N860 C861 1.351 . S
C861 C855 1.428 . S
C861 N860 1.351 . S
C861 C862 1.434 . S
C862 C853 1.429 1_455 S
C862 N859 1.355 . S
C862 C861 1.434 . S
C863 C864 1.369 . S
C863 C865 1.419 . S
C863 H867 0.930 1_554 S
C864 C863 1.369 . S
C864 C873 1.429 . S
C865 C863 1.419 . S
C865 C866 1.363 . S
C865 H868 0.929 . S
C866 C865 1.363 . S
C866 C872 1.428 . S
H867 C863 0.930 1_556 S
H868 C865 0.929 . S
S869 N870 1.613 . S
S869 N871 1.610 . S
N870 S869 1.613 . S
N870 C873 1.350 . S
N871 S869 1.610 . S
N871 C872 1.351 . S
C872 C866 1.428 . S
C872 N871 1.351 . S
C872 C873 1.434 . S
C873 C864 1.429 . S
C873 N870 1.350 . S
C873 C872 1.434 . S
C874 C875 1.369 . S
C874 C876 1.419 . S
C874 H878 0.930 . S
C875 C874 1.369 . S
C875 C884 1.429 . S
C876 C874 1.419 . S
C876 C877 1.363 1_545 S
C876 H879 0.929 . S
C877 C876 1.363 1_565 S
C877 C883 1.428 . S
H878 C874 0.930 . S
H879 C876 0.929 . S
S880 N881 1.613 1_564 S
S880 N882 1.610 . S
N881 S880 1.613 1_546 S
N881 C884 1.350 1_556 S
N882 S880 1.610 . S
N882 C883 1.351 . S
C883 C877 1.428 . S
C883 N882 1.351 . S
C883 C884 1.434 1_565 S
C884 C875 1.429 . S
C884 N881 1.350 1_554 S
C884 C883 1.434 1_545 S
C885 C886 1.369 . S
C885 C887 1.419 . S
C885 H889 0.930 . S
C886 C885 1.369 . S
C886 C895 1.429 . S
C887 C885 1.419 . S
C887 C888 1.363 1_545 S
C887 H890 0.943 . S
C888 C887 1.363 1_565 S
C888 C894 1.428 . S
H889 C885 0.930 . S
H890 C887 0.943 . S
S891 N892 1.613 1_565 S
S891 N893 1.610 . S
N892 S891 1.613 1_545 S
N892 C895 1.350 . S
N893 S891 1.610 . S
N893 C894 1.351 . S
C894 C888 1.428 . S
C894 N893 1.351 . S
C894 C895 1.434 1_565 S
C895 C886 1.429 . S
C895 N892 1.350 . S
C895 C894 1.434 1_545 S
C896 C897 1.369 1_655 S
C896 C898 1.419 . S
C896 H900 0.930 1_556 S
C897 C896 1.369 1_455 S
C897 C906 1.429 . S
C898 C896 1.419 . S
C898 C899 1.363 . S
C898 H901 0.929 . S
C899 C898 1.363 . S
C899 C905 1.428 1_655 S
H900 C896 0.930 1_554 S
H901 C898 0.929 . S
S902 N903 1.613 . S
S902 N904 1.610 . S
N903 S902 1.613 . S
N903 C906 1.350 . S
N904 S902 1.610 . S
N904 C905 1.351 . S
C905 C899 1.428 1_455 S
C905 N904 1.351 . S
C905 C906 1.434 . S
C906 C897 1.429 . S
C906 N903 1.350 . S
C906 C905 1.434 . S
C907 C908 1.369 . S
C907 C909 1.419 . S
C907 H911 0.930 . S
C908 C907 1.369 . S
C908 C917 1.429 . S
C909 C907 1.419 . S
C909 C910 1.363 . S
C909 H912 0.929 . S
C910 C909 1.363 . S
C910 C916 1.428 . S
H911 C907 0.930 . S
H912 C909 0.929 . S
S913 N914 1.613 . S
S913 N915 1.610 . S
N914 S913 1.613 . S
N914 C917 1.350 . S
N915 S913 1.610 . S
N915 C916 1.351 . S
C916 C910 1.428 . S
C916 N915 1.351 . S
C916 C917 1.434 . S
C917 C908 1.429 . S
C917 N914 1.350 . S
C917 C916 1.434 . S
C918 C919 1.369 . S
C918 C920 1.419 . S
C918 H922 0.930 . S
C919 C918 1.369 . S
C919 C928 1.429 . S
C920 C918 1.419 . S
C920 C921 1.363 . S
C920 H923 0.929 . S
C921 C920 1.363 . S
C921 C927 1.428 . S
H922 C918 0.930 . S
H923 C920 0.929 . S
S924 N925 1.613 . S
S924 N926 1.610 . S
N925 S924 1.613 . S
N925 C928 1.350 . S
N926 S924 1.610 . S
N926 C927 1.351 . S
C927 C921 1.428 . S
C927 N926 1.351 . S
C927 C928 1.434 . S
C928 C919 1.429 . S
C928 N925 1.350 . S
C928 C927 1.434 . S
C929 C930 1.369 . S
C929 C931 1.419 . S
C929 H933 0.930 . S
C930 C929 1.369 . S
C930 C939 1.429 . S
C931 C929 1.419 . S
C931 C932 1.363 . S
C931 H934 0.929 . S
C932 C931 1.363 . S
C932 C938 1.428 . S
H933 C929 0.930 . S
H934 C931 0.929 . S
S935 N936 1.613 . S
S935 N937 1.610 . S
N936 S935 1.613 . S
N936 C939 1.350 . S
N937 S935 1.610 . S
N937 C938 1.351 . S
C938 C932 1.428 . S
C938 N937 1.351 . S
C938 C939 1.434 . S
C939 C930 1.429 . S
C939 N936 1.350 . S
C939 C938 1.434 . S
C940 C941 1.369 . S
C940 C942 1.419 . S
C940 H944 0.930 . S
C941 C940 1.369 . S
C941 C950 1.429 . S
C942 C940 1.419 . S
C942 C943 1.363 . S
C942 H945 0.929 . S
C943 C942 1.363 . S
C943 C949 1.428 . S
H944 C940 0.930 . S
H945 C942 0.929 . S
S946 N947 1.613 . S
S946 N948 1.610 . S
N947 S946 1.613 . S
N947 C950 1.350 . S
N948 S946 1.610 . S
N948 C949 1.351 . S
C949 C943 1.428 . S
C949 N948 1.351 . S
C949 C950 1.434 . S
C950 C941 1.429 . S
C950 N947 1.350 . S
C950 C949 1.434 . S
C951 C952 1.369 . S
C951 C953 1.419 . S
C951 H955 0.930 . S
C952 C951 1.369 . S
C952 C961 1.429 . S
C953 C951 1.419 . S
C953 C954 1.363 . S
C953 H956 0.929 . S
C954 C953 1.363 . S
C954 C960 1.428 . S
H955 C951 0.930 . S
H956 C953 0.929 . S
S957 N958 1.613 . S
S957 N959 1.610 . S
N958 S957 1.613 . S
N958 C961 1.350 . S
N959 S957 1.610 . S
N959 C960 1.351 . S
C960 C954 1.428 . S
C960 N959 1.351 . S
C960 C961 1.434 . S
C961 C952 1.429 . S
C961 N958 1.350 . S
C961 C960 1.434 . S
C962 C963 1.369 . S
C962 C964 1.419 . S
C962 H966 0.930 . S
C963 C962 1.369 . S
C963 C972 1.429 . S
C964 C962 1.419 . S
C964 C965 1.363 . S
C964 H967 0.929 . S
C965 C964 1.363 . S
C965 C971 1.428 . S
H966 C962 0.930 . S
H967 C964 0.929 . S
S968 N969 1.613 . S
S968 N970 1.610 . S
N969 S968 1.613 . S
N969 C972 1.350 . S
N970 S968 1.610 . S
N970 C971 1.351 . S
C971 C965 1.428 . S
C971 N970 1.351 . S
C971 C972 1.434 . S
C972 C963 1.429 . S
C972 N969 1.350 . S
C972 C971 1.434 . S
C973 C974 1.369 . S
C973 C975 1.419 . S
C973 H977 0.930 . S
C974 C973 1.369 . S
C974 C983 1.429 . S
C975 C973 1.419 . S
C975 C976 1.363 . S
C975 H978 0.929 . S
C976 C975 1.363 . S
C976 C982 1.428 . S
H977 C973 0.930 . S
H978 C975 0.929 . S
S979 N980 1.613 . S
S979 N981 1.610 . S
N980 S979 1.613 . S
N980 C983 1.350 . S
N981 S979 1.610 . S
N981 C982 1.351 . S
C982 C976 1.428 . S
C982 N981 1.351 . S
C982 C983 1.434 . S
C983 C974 1.429 . S
C983 N980 1.350 . S
C983 C982 1.434 . S
C984 C985 1.369 . S
C984 C986 1.419 . S
C984 H988 0.930 . S
C985 C984 1.369 . S
C985 C994 1.429 . S
C986 C984 1.419 . S
C986 C987 1.363 . S
C986 H989 0.929 . S
C987 C986 1.363 . S
C987 C993 1.428 . S
H988 C984 0.930 . S
H989 C986 0.929 . S
S990 N991 1.613 . S
S990 N992 1.610 . S
N991 S990 1.613 . S
N991 C994 1.350 . S
N992 S990 1.610 . S
N992 C993 1.351 . S
C993 C987 1.428 . S
C993 N992 1.351 . S
C993 C994 1.434 . S
C994 C985 1.429 . S
C994 N991 1.350 . S
C994 C993 1.434 . S
C995 C996 1.369 . S
C995 C997 1.419 . S
C995 H999 0.930 . S
C996 C995 1.369 . S
C996 C1005 1.429 . S
C997 C995 1.419 . S
C997 C998 1.363 . S
C997 H1000 0.929 . S
C998 C997 1.363 . S
C998 C1004 1.428 . S
H999 C995 0.930 . S
H1000 C997 0.929 . S
S1001 N1002 1.613 . S
S1001 N1003 1.610 . S
N1002 S1001 1.613 . S
N1002 C1005 1.350 . S
N1003 S1001 1.610 . S
N1003 C1004 1.351 . S
C1004 C998 1.428 . S
C1004 N1003 1.351 . S
C1004 C1005 1.434 . S
C1005 C996 1.429 . S
C1005 N1002 1.350 . S
C1005 C1004 1.434 . S
C1006 C1007 1.369 . S
C1006 C1008 1.419 . S
C1006 H1010 0.930 . S
C1007 C1006 1.369 . S
C1007 C1016 1.429 . S
C1008 C1006 1.419 . S
C1008 C1009 1.363 . S
C1008 H1011 0.929 . S
C1009 C1008 1.363 . S
C1009 C1015 1.428 . S
H1010 C1006 0.930 . S
H1011 C1008 0.929 . S
S1012 N1013 1.613 . S
S1012 N1014 1.610 . S
N1013 S1012 1.613 . S
N1013 C1016 1.350 . S
N1014 S1012 1.610 . S
N1014 C1015 1.351 . S
C1015 C1009 1.428 . S
C1015 N1014 1.351 . S
C1015 C1016 1.434 . S
C1016 C1007 1.429 . S
C1016 N1013 1.350 . S
C1016 C1015 1.434 . S
C1017 C1018 1.369 . S
C1017 C1019 1.419 . S
C1017 H1021 0.930 . S
C1018 C1017 1.369 . S
C1018 C1027 1.429 . S
C1019 C1017 1.419 . S
C1019 C1020 1.363 . S
C1019 H1022 0.929 . S
C1020 C1019 1.363 . S
C1020 C1026 1.428 . S
H1021 C1017 0.930 . S
H1022 C1019 0.929 . S
S1023 N1024 1.613 . S
S1023 N1025 1.610 . S
N1024 S1023 1.613 . S
N1024 C1027 1.350 . S
N1025 S1023 1.610 . S
N1025 C1026 1.351 . S
C1026 C1020 1.428 . S
C1026 N1025 1.351 . S
C1026 C1027 1.434 . S
C1027 C1018 1.429 . S
C1027 N1024 1.350 . S
C1027 C1026 1.434 . S
C1028 C1029 1.369 . S
C1028 C1030 1.419 . S
C1028 H1032 0.930 . S
C1029 C1028 1.369 . S
C1029 C1038 1.429 . S
C1030 C1028 1.419 . S
C1030 C1031 1.363 . S
C1030 H1033 0.929 . S
C1031 C1030 1.363 . S
C1031 C1037 1.428 . S
H1032 C1028 0.930 . S
H1033 C1030 0.929 . S
S1034 N1035 1.613 . S
S1034 N1036 1.610 . S
N1035 S1034 1.613 . S
N1035 C1038 1.350 . S
N1036 S1034 1.610 . S
N1036 C1037 1.351 . S
C1037 C1031 1.428 . S
C1037 N1036 1.351 . S
C1037 C1038 1.434 . S
C1038 C1029 1.429 . S
C1038 N1035 1.350 . S
C1038 C1037 1.434 . S
C1039 C1040 1.369 . S
C1039 C1041 1.419 . S
C1039 H1043 0.930 . S
C1040 C1039 1.369 . S
C1040 C1049 1.429 . S
C1041 C1039 1.419 . S
C1041 C1042 1.363 . S
C1041 H1044 0.929 . S
C1042 C1041 1.363 . S
C1042 C1048 1.428 . S
H1043 C1039 0.930 . S
H1044 C1041 0.929 . S
S1045 N1046 1.613 1_554 S
S1045 N1047 1.610 . S
N1046 S1045 1.613 1_556 S
N1046 C1049 1.350 . S
N1047 S1045 1.610 . S
N1047 C1048 1.351 1_554 S
C1048 C1042 1.428 . S
C1048 N1047 1.351 1_556 S
C1048 C1049 1.434 . S
C1049 C1040 1.429 . S
C1049 N1046 1.350 . S
C1049 C1048 1.434 . S
C1050 C1051 1.369 . S
C1050 C1052 1.419 . S
C1050 H1054 0.930 . S
C1051 C1050 1.369 . S
C1051 C1060 1.429 . S
C1052 C1050 1.419 . S
C1052 C1053 1.363 . S
C1052 H1055 0.929 . S
C1053 C1052 1.363 . S
C1053 C1059 1.428 . S
H1054 C1050 0.930 . S
H1055 C1052 0.929 . S
S1056 N1057 1.613 . S
S1056 N1058 1.610 . S
N1057 S1056 1.613 . S
N1057 C1060 1.350 . S
N1058 S1056 1.610 . S
N1058 C1059 1.351 . S
C1059 C1053 1.428 . S
C1059 N1058 1.351 . S
C1059 C1060 1.434 . S
C1060 C1051 1.429 . S
C1060 N1057 1.350 . S
C1060 C1059 1.434 . S
C1061 C1062 1.369 . S
C1061 C1063 1.419 . S
C1061 H1065 0.930 . S
C1062 C1061 1.369 . S
C1062 C1071 1.429 . S
C1063 C1061 1.419 . S
C1063 C1064 1.363 . S
C1063 H1066 0.929 . S
C1064 C1063 1.363 . S
C1064 C1070 1.428 . S
H1065 C1061 0.930 . S
H1066 C1063 0.929 . S
S1067 N1068 1.613 . S
S1067 N1069 1.610 . S
N1068 S1067 1.613 . S
N1068 C1071 1.350 . S
N1069 S1067 1.610 . S
N1069 C1070 1.351 . S
C1070 C1064 1.428 . S
C1070 N1069 1.351 . S
C1070 C1071 1.434 . S
C1071 C1062 1.429 . S
C1071 N1068 1.350 . S
C1071 C1070 1.434 . S
C1072 C1073 1.369 . S
C1072 C1074 1.419 . S
C1072 H1076 0.930 . S
C1073 C1072 1.369 . S
C1073 C1082 1.429 . S
C1074 C1072 1.419 . S
C1074 C1075 1.363 . S
C1074 H1077 0.929 . S
C1075 C1074 1.363 . S
C1075 C1081 1.428 . S
H1076 C1072 0.930 . S
H1077 C1074 0.929 . S
S1078 N1079 1.613 . S
S1078 N1080 1.610 . S
N1079 S1078 1.613 . S
N1079 C1082 1.350 . S
N1080 S1078 1.610 . S
N1080 C1081 1.351 . S
C1081 C1075 1.428 . S
C1081 N1080 1.351 . S
C1081 C1082 1.434 . S
C1082 C1073 1.429 . S
C1082 N1079 1.350 . S
C1082 C1081 1.434 . S
C1083 C1084 1.369 . S
C1083 C1085 1.419 . S
C1083 H1087 0.930 . S
C1084 C1083 1.369 . S
C1084 C1093 1.429 . S
C1085 C1083 1.419 . S
C1085 C1086 1.363 . S
C1085 H1088 0.929 . S
C1086 C1085 1.363 . S
C1086 C1092 1.428 . S
H1087 C1083 0.930 . S
H1088 C1085 0.929 . S
S1089 N1090 1.613 . S
S1089 N1091 1.610 . S
N1090 S1089 1.613 . S
N1090 C1093 1.350 . S
N1091 S1089 1.610 . S
N1091 C1092 1.351 . S
C1092 C1086 1.428 . S
C1092 N1091 1.351 . S
C1092 C1093 1.434 . S
C1093 C1084 1.429 . S
C1093 N1090 1.350 . S
C1093 C1092 1.434 . S
C1094 C1095 1.369 . S
C1094 C1096 1.419 . S
C1094 H1098 0.930 . S
C1095 C1094 1.369 . S
C1095 C1104 1.429 . S
C1096 C1094 1.419 . S
C1096 C1097 1.363 . S
C1096 H1099 0.929 . S
C1097 C1096 1.363 . S
C1097 C1103 1.428 . S
H1098 C1094 0.930 . S
H1099 C1096 0.929 . S
S1100 N1101 1.613 . S
S1100 N1102 1.610 . S
N1101 S1100 1.613 . S
N1101 C1104 1.350 . S
N1102 S1100 1.610 . S
N1102 C1103 1.351 . S
C1103 C1097 1.428 . S
C1103 N1102 1.351 . S
C1103 C1104 1.434 . S
C1104 C1095 1.429 . S
C1104 N1101 1.350 . S
C1104 C1103 1.434 . S
C1105 C1106 1.369 . S
C1105 C1107 1.419 . S
C1105 H1109 0.930 . S
C1106 C1105 1.369 . S
C1106 C1115 1.429 . S
C1107 C1105 1.419 . S
C1107 C1108 1.363 . S
C1107 H1110 0.929 . S
C1108 C1107 1.363 . S
C1108 C1114 1.428 . S
H1109 C1105 0.930 . S
H1110 C1107 0.929 . S
S1111 N1112 1.613 . S
S1111 N1113 1.610 . S
N1112 S1111 1.613 . S
N1112 C1115 1.350 . S
N1113 S1111 1.610 . S
N1113 C1114 1.351 . S
C1114 C1108 1.428 . S
C1114 N1113 1.351 . S
C1114 C1115 1.434 . S
C1115 C1106 1.429 . S
C1115 N1112 1.350 . S
C1115 C1114 1.434 . S
C1116 C1117 1.369 . S
C1116 C1118 1.419 . S
C1116 H1120 0.930 . S
C1117 C1116 1.369 . S
C1117 C1126 1.429 1_455 S
C1118 C1116 1.419 . S
C1118 C1119 1.363 1_554 S
C1118 H1121 0.929 . S
C1119 C1118 1.363 1_556 S
C1119 C1125 1.428 1_455 S
H1120 C1116 0.930 . S
H1121 C1118 0.929 . S
S1122 N1123 1.613 1_556 S
S1122 N1124 1.610 . S
N1123 S1122 1.613 1_554 S
N1123 C1126 1.350 . S
N1124 S1122 1.610 . S
N1124 C1125 1.351 . S
C1125 C1119 1.428 1_655 S
C1125 N1124 1.351 . S
C1125 C1126 1.434 1_556 S
C1126 C1117 1.429 1_655 S
C1126 N1123 1.350 . S
C1126 C1125 1.434 1_554 S
C1127 C1128 1.369 . S
C1127 C1129 1.419 . S
C1127 H1131 0.930 . S
C1128 C1127 1.369 . S
C1128 C1137 1.429 . S
C1129 C1127 1.419 . S
C1129 C1130 1.363 1_554 S
C1129 H1132 0.929 . S
C1130 C1129 1.363 1_556 S
C1130 C1136 1.428 . S
H1131 C1127 0.930 . S
H1132 C1129 0.929 . S
S1133 N1134 1.613 . S
S1133 N1135 1.610 1_554 S
N1134 S1133 1.613 . S
N1134 C1137 1.350 . S
N1135 S1133 1.610 1_556 S
N1135 C1136 1.351 . S
C1136 C1130 1.428 . S
C1136 N1135 1.351 . S
C1136 C1137 1.434 1_556 S
C1137 C1128 1.429 . S
C1137 N1134 1.350 . S
C1137 C1136 1.434 1_554 S
C1138 C1139 1.369 . S
C1138 C1140 1.413 1_544 S
C1138 H1142 0.928 . S
C1139 C1138 1.369 . S
C1139 C1148 1.429 . S
C1140 C1138 1.413 1_566 S
C1140 C1141 1.374 1_565 S
C1140 H1143 0.924 . S
C1141 C1140 1.374 1_545 S
C1141 C1147 1.428 1_556 S
H1142 C1138 0.928 . S
H1143 C1140 0.924 . S
S1144 N1145 1.613 . S
S1144 N1146 1.610 . S
N1145 S1144 1.613 . S
N1145 C1148 1.350 . S
N1146 S1144 1.610 . S
N1146 C1147 1.351 . S
C1147 C1141 1.428 1_554 S
C1147 N1146 1.351 . S
C1147 C1148 1.434 . S
C1148 C1139 1.429 . S
C1148 N1145 1.350 . S
C1148 C1147 1.434 . S
C1149 C1150 1.369 1_655 S
C1149 C1151 1.419 . S
C1149 H1153 0.930 . S
C1150 C1149 1.369 1_455 S
C1150 C1159 1.429 . S
C1151 C1149 1.419 . S
C1151 C1152 1.365 1_656 S
C1151 H1154 0.929 . S
C1152 C1151 1.365 1_454 S
C1152 C1158 1.424 . S
H1153 C1149 0.930 . S
H1154 C1151 0.929 . S
S1155 N1156 1.613 1_554 S
S1155 N1157 1.610 . S
N1156 S1155 1.613 1_556 S
N1156 C1159 1.350 . S
N1157 S1155 1.610 . S
N1157 C1158 1.351 . S
C1158 C1152 1.424 . S
C1158 N1157 1.351 . S
C1158 C1159 1.434 1_554 S
C1159 C1150 1.429 . S
C1159 N1156 1.350 . S
C1159 C1158 1.434 1_556 S
C1160 C1161 1.369 . S
C1160 C1162 1.419 1_554 S
C1160 H1164 0.930 . S
C1161 C1160 1.369 . S
C1161 C1170 1.429 1_554 S
C1162 C1160 1.419 1_556 S
C1162 C1163 1.363 . S
C1162 H1165 0.929 . S
C1163 C1162 1.363 . S
C1163 C1169 1.428 . S
H1164 C1160 0.930 . S
H1165 C1162 0.929 . S
S1166 N1167 1.613 . S
S1166 N1168 1.610 . S
N1167 S1166 1.613 . S
N1167 C1170 1.350 . S
N1168 S1166 1.610 . S
N1168 C1169 1.351 . S
C1169 C1163 1.428 . S
C1169 N1168 1.351 . S
C1169 C1170 1.434 . S
C1170 C1161 1.429 1_556 S
C1170 N1167 1.350 . S
C1170 C1169 1.434 . S
C1171 C1172 1.369 . S
C1171 C1173 1.419 1_554 S
C1171 H1175 0.930 . S
C1172 C1171 1.369 . S
C1172 C1181 1.429 1_554 S
C1173 C1171 1.419 1_556 S
C1173 C1174 1.363 . S
C1173 H1176 0.929 . S
C1174 C1173 1.363 . S
C1174 C1180 1.427 . S
H1175 C1171 0.930 . S
H1176 C1173 0.929 . S
S1177 N1178 1.613 . S
S1177 N1179 1.610 . S
N1178 S1177 1.613 . S
N1178 C1181 1.350 1_565 S
N1179 S1177 1.610 . S
N1179 C1180 1.351 1_565 S
C1180 C1174 1.427 . S
C1180 N1179 1.351 1_545 S
C1180 C1181 1.436 . S
C1181 C1172 1.429 1_556 S
C1181 N1178 1.350 1_545 S
C1181 C1180 1.436 . S
C1182 C1183 1.369 . S
C1182 C1184 1.419 . S
C1182 H1186 0.930 . S
C1183 C1182 1.369 . S
C1183 C1192 1.429 . S
C1184 C1182 1.419 . S
C1184 C1185 1.363 . S
C1184 H1187 0.929 . S
C1185 C1184 1.363 . S
C1185 C1191 1.428 . S
H1186 C1182 0.930 . S
H1187 C1184 0.929 . S
S1188 N1189 1.613 . S
S1188 N1190 1.610 . S
N1189 S1188 1.613 . S
N1189 C1192 1.350 . S
N1190 S1188 1.610 . S
N1190 C1191 1.351 . S
C1191 C1185 1.428 . S
C1191 N1190 1.351 . S
C1191 C1192 1.434 . S
C1192 C1183 1.429 . S
C1192 N1189 1.350 . S
C1192 C1191 1.434 . S
C1193 C1194 1.369 . S
C1193 C1195 1.419 . S
C1193 H1197 0.930 . S
C1194 C1193 1.369 . S
C1194 C1203 1.429 . S
C1195 C1193 1.419 . S
C1195 C1196 1.363 . S
C1195 H1198 0.929 . S
C1196 C1195 1.363 . S
C1196 C1202 1.428 . S
H1197 C1193 0.930 . S
H1198 C1195 0.929 . S
S1199 N1200 1.613 . S
S1199 N1201 1.610 . S
N1200 S1199 1.613 . S
N1200 C1203 1.350 . S
N1201 S1199 1.610 . S
N1201 C1202 1.351 . S
C1202 C1196 1.428 . S
C1202 N1201 1.351 . S
C1202 C1203 1.434 . S
C1203 C1194 1.429 . S
C1203 N1200 1.350 . S
C1203 C1202 1.434 . S
C1204 C1205 1.369 . S
C1204 C1206 1.419 . S
C1204 H1208 0.930 . S
C1205 C1204 1.369 . S
C1205 C1214 1.429 . S
C1206 C1204 1.419 . S
C1206 C1207 1.363 . S
C1206 H1209 0.929 . S
C1207 C1206 1.363 . S
C1207 C1213 1.428 . S
H1208 C1204 0.930 . S
H1209 C1206 0.929 . S
S1210 N1211 1.613 . S
S1210 N1212 1.610 . S
N1211 S1210 1.613 . S
N1211 C1214 1.350 . S
N1212 S1210 1.610 . S
N1212 C1213 1.351 . S
C1213 C1207 1.428 . S
C1213 N1212 1.351 . S
C1213 C1214 1.434 . S
C1214 C1205 1.429 . S
C1214 N1211 1.350 . S
C1214 C1213 1.434 . S
C1215 C1216 1.369 . S
C1215 C1217 1.419 . S
C1215 H1219 0.930 . S
C1216 C1215 1.369 . S
C1216 C1225 1.429 . S
C1217 C1215 1.419 . S
C1217 C1218 1.363 . S
C1217 H1220 0.929 . S
C1218 C1217 1.363 . S
C1218 C1224 1.428 . S
H1219 C1215 0.930 . S
H1220 C1217 0.929 . S
S1221 N1222 1.613 . S
S1221 N1223 1.610 . S
N1222 S1221 1.613 . S
N1222 C1225 1.350 . S
N1223 S1221 1.610 . S
N1223 C1224 1.351 . S
C1224 C1218 1.428 . S
C1224 N1223 1.351 . S
C1224 C1225 1.434 . S
C1225 C1216 1.429 . S
C1225 N1222 1.350 . S
C1225 C1224 1.434 . S
C1226 C1227 1.369 . S
C1226 C1228 1.419 . S
C1226 H1230 0.930 . S
C1227 C1226 1.369 . S
C1227 C1236 1.429 . S
C1228 C1226 1.419 . S
C1228 C1229 1.363 . S
C1228 H1231 0.929 . S
C1229 C1228 1.363 . S
C1229 C1235 1.428 . S
H1230 C1226 0.930 . S
H1231 C1228 0.929 . S
S1232 N1233 1.613 . S
S1232 N1234 1.610 . S
N1233 S1232 1.613 . S
N1233 C1236 1.350 . S
N1234 S1232 1.610 . S
N1234 C1235 1.351 . S
C1235 C1229 1.428 . S
C1235 N1234 1.351 . S
C1235 C1236 1.434 . S
C1236 C1227 1.429 . S
C1236 N1233 1.350 . S
C1236 C1235 1.434 . S
C1237 C1238 1.369 . S
C1237 C1239 1.419 . S
C1237 H1241 0.930 . S
C1238 C1237 1.369 . S
C1238 C1247 1.429 . S
C1239 C1237 1.419 . S
C1239 C1240 1.363 . S
C1239 H1242 0.929 . S
C1240 C1239 1.363 . S
C1240 C1246 1.428 . S
H1241 C1237 0.930 . S
H1242 C1239 0.929 . S
S1243 N1244 1.613 . S
S1243 N1245 1.610 . S
N1244 S1243 1.613 . S
N1244 C1247 1.350 . S
N1245 S1243 1.610 . S
N1245 C1246 1.351 . S
C1246 C1240 1.428 . S
C1246 N1245 1.351 . S
C1246 C1247 1.434 . S
C1247 C1238 1.429 . S
C1247 N1244 1.350 . S
C1247 C1246 1.434 . S
C1248 C1249 1.369 . S
C1248 C1250 1.419 . S
C1248 H1252 0.930 . S
C1249 C1248 1.369 . S
C1249 C1258 1.429 . S
C1250 C1248 1.419 . S
C1250 C1251 1.363 . S
C1250 H1253 0.929 . S
C1251 C1250 1.363 . S
C1251 C1257 1.428 . S
H1252 C1248 0.930 . S
H1253 C1250 0.929 . S
S1254 N1255 1.613 . S
S1254 N1256 1.610 . S
N1255 S1254 1.613 . S
N1255 C1258 1.350 . S
N1256 S1254 1.610 . S
N1256 C1257 1.351 . S
C1257 C1251 1.428 . S
C1257 N1256 1.351 . S
C1257 C1258 1.434 . S
C1258 C1249 1.429 . S
C1258 N1255 1.350 . S
C1258 C1257 1.434 . S
C1259 C1260 1.369 . S
C1259 C1261 1.419 . S
C1259 H1263 0.930 . S
C1260 C1259 1.369 . S
C1260 C1269 1.429 . S
C1261 C1259 1.419 . S
C1261 C1262 1.363 . S
C1261 H1264 0.929 . S
C1262 C1261 1.363 . S
C1262 C1268 1.428 . S
H1263 C1259 0.930 . S
H1264 C1261 0.929 . S
S1265 N1266 1.613 . S
S1265 N1267 1.610 . S
N1266 S1265 1.613 . S
N1266 C1269 1.350 . S
N1267 S1265 1.610 . S
N1267 C1268 1.351 . S
C1268 C1262 1.428 . S
C1268 N1267 1.351 . S
C1268 C1269 1.434 . S
C1269 C1260 1.429 . S
C1269 N1266 1.350 . S
C1269 C1268 1.434 . S
C1270 C1271 1.369 . S
C1270 C1272 1.419 . S
C1270 H1274 0.930 . S
C1271 C1270 1.369 . S
C1271 C1280 1.429 . S
C1272 C1270 1.419 . S
C1272 C1273 1.363 . S
C1272 H1275 0.929 . S
C1273 C1272 1.363 . S
C1273 C1279 1.428 . S
H1274 C1270 0.930 . S
H1275 C1272 0.929 . S
S1276 N1277 1.613 . S
S1276 N1278 1.610 . S
N1277 S1276 1.613 . S
N1277 C1280 1.350 . S
N1278 S1276 1.610 . S
N1278 C1279 1.351 . S
C1279 C1273 1.428 . S
C1279 N1278 1.351 . S
C1279 C1280 1.434 . S
C1280 C1271 1.429 . S
C1280 N1277 1.350 . S
C1280 C1279 1.434 . S
C1281 C1282 1.369 . S
C1281 C1283 1.419 . S
C1281 H1285 0.930 . S
C1282 C1281 1.369 . S
C1282 C1291 1.429 . S
C1283 C1281 1.419 . S
C1283 C1284 1.363 . S
C1283 H1286 0.929 . S
C1284 C1283 1.363 . S
C1284 C1290 1.428 . S
H1285 C1281 0.930 . S
H1286 C1283 0.929 . S
S1287 N1288 1.613 . S
S1287 N1289 1.610 . S
N1288 S1287 1.613 . S
N1288 C1291 1.350 . S
N1289 S1287 1.610 . S
N1289 C1290 1.351 . S
C1290 C1284 1.428 . S
C1290 N1289 1.351 . S
C1290 C1291 1.434 . S
C1291 C1282 1.429 . S
C1291 N1288 1.350 . S
C1291 C1290 1.434 . S
C1292 C1293 1.369 . S
C1292 C1294 1.419 . S
C1292 H1296 0.930 . S
C1293 C1292 1.369 . S
C1293 C1302 1.429 . S
C1294 C1292 1.419 . S
C1294 C1295 1.363 . S
C1294 H1297 0.929 . S
C1295 C1294 1.363 . S
C1295 C1301 1.428 . S
H1296 C1292 0.930 . S
H1297 C1294 0.929 . S
S1298 N1299 1.613 . S
S1298 N1300 1.610 . S
N1299 S1298 1.613 . S
N1299 C1302 1.350 . S
N1300 S1298 1.610 . S
N1300 C1301 1.351 . S
C1301 C1295 1.428 . S
C1301 N1300 1.351 . S
C1301 C1302 1.434 . S
C1302 C1293 1.429 . S
C1302 N1299 1.350 . S
C1302 C1301 1.434 . S
C1303 C1304 1.369 . S
C1303 C1305 1.419 . S
C1303 H1307 0.930 . S
C1304 C1303 1.369 . S
C1304 C1313 1.429 . S
C1305 C1303 1.419 . S
C1305 C1306 1.363 . S
C1305 H1308 0.929 . S
C1306 C1305 1.363 . S
C1306 C1312 1.428 . S
H1307 C1303 0.930 . S
H1308 C1305 0.929 . S
S1309 N1310 1.613 . S
S1309 N1311 1.610 . S
N1310 S1309 1.613 . S
N1310 C1313 1.350 . S
N1311 S1309 1.610 . S
N1311 C1312 1.351 . S
C1312 C1306 1.428 . S
C1312 N1311 1.351 . S
C1312 C1313 1.434 . S
C1313 C1304 1.429 . S
C1313 N1310 1.350 . S
C1313 C1312 1.434 . S
C721 C540 2.277 . S
C723 C2 2.313 . S
C732 C42 2.313 . S
C734 C580 2.275 . S
C743 C82 2.313 . S
C745 C500 2.276 . S
C754 C100 2.279 . S
C756 C282 2.312 . S
C765 C322 2.311 . S
C767 C20 2.279 . S
C776 C60 2.274 . S
C778 C242 2.312 . S
C787 C143 2.312 . S
C789 C431 2.275 . S
C798 C183 2.310 . S
C800 C471 2.279 . S
C809 C391 2.279 . S
C811 C223 2.310 . S
C820 C663 2.312 . S
C822 C231 2.275 . S
C831 C151 2.277 . S
C833 C703 2.310 . S
C842 C623 2.313 . S
C844 C191 2.275 . S
C853 C340 2.275 1_554 S
C855 C522 2.311 . S
C864 C260 2.277 1_554 S
C866 C562 2.313 . S
C875 C300 2.280 1_554 S
C877 C482 2.311 . S
C886 C383 2.312 . S
C888 C671 2.279 1_556 S
C897 C711 2.274 1_556 S
C899 C423 2.312 . S
C908 C631 2.278 1_556 S
C910 C463 2.313 . S
C919 C31 1.822 . S
C921 C162 1.667 . S
C930 C202 1.662 . S
C932 C71 1.822 . S
C941 C122 1.665 . S
C943 C111 1.823 . S
C952 C180 1.825 . S
C954 C103 1.671 . S
C963 C220 1.821 . S
C965 C23 1.664 . S
C974 C140 1.822 . S
C976 C63 1.665 . S
C985 C402 1.663 . S
C987 C271 1.822 . S
C996 C442 1.673 . S
C998 C311 1.825 . S
C1007 C362 1.662 . S
C1009 C351 1.822 . S
C1018 C420 1.825 . S
C1020 C343 1.671 . S
C1029 C460 1.822 . S
C1031 C263 1.665 . S
C1040 C380 1.825 . S
C1042 C303 1.671 . S
C1051 C642 1.666 . S
C1053 C511 1.823 . S
C1062 C682 1.663 . S
C1064 C551 1.822 . S
C1073 C591 1.823 . S
C1075 C602 1.669 . S
C1084 C583 1.668 . S
C1086 C660 1.824 . S
C1095 C503 1.664 . S
C1097 C700 1.823 . S
C1106 C620 1.821 . S
C1108 C543 1.663 . S
C1117 C25 1.203 . S
C1119 C4 1.195 . S
C1128 C65 1.203 . S
C1130 C44 1.195 . S
C1139 C105 1.196 . S
C1141 C84 1.201 . S
C1150 C124 1.203 . S
C1152 C145 1.195 . S
C1161 C185 1.203 . S
C1163 C164 1.195 . S
C1172 C225 1.201 . S
C1174 C204 1.197 . S
C1183 C244 1.194 . S
C1185 C265 1.202 . S
C1194 C305 1.194 . S
C1196 C284 1.202 . S
C1205 C324 1.195 . S
C1207 C345 1.201 . S
C1216 C364 1.195 . S
C1218 C385 1.201 . S
C1227 C404 1.200 . S
C1229 C425 1.197 . S
C1238 C444 1.203 . S
C1240 C465 1.196 . S
C1249 C484 1.203 . S
C1251 C505 1.195 . S
C1260 C545 1.203 . S
C1262 C524 1.195 . S
C1271 C585 1.195 . S
C1273 C564 1.202 . S
C1282 C625 1.194 . S
C1284 C604 1.202 . S
C1293 C665 1.196 . S
C1295 C644 1.201 . S
C1304 C684 1.196 . S
C1306 C705 1.201 . S
