# Generated by pormake.
# Topology ukr, (4)-cn, num edge types: 1
# Building blocks:
#     Node 0, Type 0, BuildingBlock: AZAVOO_clean_sbu_0, # of connection points: 4
#     Node 1, Type 0, BuildingBlock: AZAVOO_clean_sbu_0, # of connection points: 4
#     Node 2, Type 0, BuildingBlock: AZAVOO_clean_sbu_0, # of connection points: 4
#     Node 3, Type 0, BuildingBlock: AZAVOO_clean_sbu_0, # of connection points: 4
#     Node 4, Type 0, BuildingBlock: AZAVOO_clean_sbu_0, # of connection points: 4
#     Node 5, Type 0, BuildingBlock: AZAVOO_clean_sbu_0, # of connection points: 4
#     Node 6, Type 0, BuildingBlock: AZAVOO_clean_sbu_0, # of connection points: 4
#     Node 7, Type 0, BuildingBlock: AZAVOO_clean_sbu_0, # of connection points: 4
#     Node 8, Type 0, BuildingBlock: AZAVOO_clean_sbu_0, # of connection points: 4
#     Node 9, Type 0, BuildingBlock: AZAVOO_clean_sbu_0, # of connection points: 4
#     Node 10, Type 0, BuildingBlock: AZAVOO_clean_sbu_0, # of connection points: 4
#     Node 11, Type 0, BuildingBlock: AZAVOO_clean_sbu_0, # of connection points: 4
#     Node 12, Type 0, BuildingBlock: AZAVOO_clean_sbu_0, # of connection points: 4
#     Node 13, Type 0, BuildingBlock: AZAVOO_clean_sbu_0, # of connection points: 4
#     Node 14, Type 0, BuildingBlock: AZAVOO_clean_sbu_0, # of connection points: 4
#     Node 15, Type 0, BuildingBlock: AZAVOO_clean_sbu_0, # of connection points: 4
#     Node 16, Type 0, BuildingBlock: AZAVOO_clean_sbu_0, # of connection points: 4
#     Node 17, Type 0, BuildingBlock: AZAVOO_clean_sbu_0, # of connection points: 4
#     Node 18, Type 0, BuildingBlock: AZAVOO_clean_sbu_0, # of connection points: 4
#     Node 19, Type 0, BuildingBlock: AZAVOO_clean_sbu_0, # of connection points: 4
#     Node 20, Type 0, BuildingBlock: AZAVOO_clean_sbu_0, # of connection points: 4
#     Node 21, Type 0, BuildingBlock: AZAVOO_clean_sbu_0, # of connection points: 4
#     Node 22, Type 0, BuildingBlock: AZAVOO_clean_sbu_0, # of connection points: 4
#     Node 23, Type 0, BuildingBlock: AZAVOO_clean_sbu_0, # of connection points: 4
#     Node 24, Type 0, BuildingBlock: AZAVOO_clean_sbu_0, # of connection points: 4
#     Node 25, Type 0, BuildingBlock: AZAVOO_clean_sbu_0, # of connection points: 4
#     Node 26, Type 0, BuildingBlock: AZAVOO_clean_sbu_0, # of connection points: 4
#     Node 27, Type 0, BuildingBlock: AZAVOO_clean_sbu_0, # of connection points: 4
#     Node 28, Type 0, BuildingBlock: AZAVOO_clean_sbu_0, # of connection points: 4
#     Node 29, Type 0, BuildingBlock: AZAVOO_clean_sbu_0, # of connection points: 4
#     Node 30, Type 0, BuildingBlock: AZAVOO_clean_sbu_0, # of connection points: 4
#     Node 31, Type 0, BuildingBlock: AZAVOO_clean_sbu_0, # of connection points: 4
#     Node 32, Type 0, BuildingBlock: AZAVOO_clean_sbu_0, # of connection points: 4
#     Node 33, Type 0, BuildingBlock: AZAVOO_clean_sbu_0, # of connection points: 4
#     Node 34, Type 0, BuildingBlock: AZAVOO_clean_sbu_0, # of connection points: 4
#     Node 35, Type 0, BuildingBlock: AZAVOO_clean_sbu_0, # of connection points: 4
#     Node 36, Type 0, BuildingBlock: AZAVOO_clean_sbu_0, # of connection points: 4
#     Node 37, Type 0, BuildingBlock: AZAVOO_clean_sbu_0, # of connection points: 4
#     Node 38, Type 0, BuildingBlock: AZAVOO_clean_sbu_0, # of connection points: 4
#     Node 39, Type 0, BuildingBlock: AZAVOO_clean_sbu_0, # of connection points: 4
#     Node 40, Type 0, BuildingBlock: AZAVOO_clean_sbu_0, # of connection points: 4
#     Node 41, Type 0, BuildingBlock: AZAVOO_clean_sbu_0, # of connection points: 4
#     Node 42, Type 0, BuildingBlock: AZAVOO_clean_sbu_0, # of connection points: 4
#     Node 43, Type 0, BuildingBlock: AZAVOO_clean_sbu_0, # of connection points: 4
#     Node 44, Type 0, BuildingBlock: AZAVOO_clean_sbu_0, # of connection points: 4
#     Node 45, Type 0, BuildingBlock: AZAVOO_clean_sbu_0, # of connection points: 4
#     Node 46, Type 0, BuildingBlock: AZAVOO_clean_sbu_0, # of connection points: 4
#     Node 47, Type 0, BuildingBlock: AZAVOO_clean_sbu_0, # of connection points: 4
#     Edge 48, Type (0, 0), BuildingBlock: MIFKUJ_clean_linker_0, # of connection points: 2
#     Edge 49, Type (0, 0), BuildingBlock: MIFKUJ_clean_linker_0, # of connection points: 2
#     Edge 50, Type (0, 0), BuildingBlock: MIFKUJ_clean_linker_0, # of connection points: 2
#     Edge 51, Type (0, 0), BuildingBlock: MIFKUJ_clean_linker_0, # of connection points: 2
#     Edge 52, Type (0, 0), BuildingBlock: MIFKUJ_clean_linker_0, # of connection points: 2
#     Edge 53, Type (0, 0), BuildingBlock: MIFKUJ_clean_linker_0, # of connection points: 2
#     Edge 54, Type (0, 0), BuildingBlock: MIFKUJ_clean_linker_0, # of connection points: 2
#     Edge 55, Type (0, 0), BuildingBlock: MIFKUJ_clean_linker_0, # of connection points: 2
#     Edge 56, Type (0, 0), BuildingBlock: MIFKUJ_clean_linker_0, # of connection points: 2
#     Edge 57, Type (0, 0), BuildingBlock: MIFKUJ_clean_linker_0, # of connection points: 2
#     Edge 58, Type (0, 0), BuildingBlock: MIFKUJ_clean_linker_0, # of connection points: 2
#     Edge 59, Type (0, 0), BuildingBlock: MIFKUJ_clean_linker_0, # of connection points: 2
#     Edge 60, Type (0, 0), BuildingBlock: MIFKUJ_clean_linker_0, # of connection points: 2
#     Edge 61, Type (0, 0), BuildingBlock: MIFKUJ_clean_linker_0, # of connection points: 2
#     Edge 62, Type (0, 0), BuildingBlock: MIFKUJ_clean_linker_0, # of connection points: 2
#     Edge 63, Type (0, 0), BuildingBlock: MIFKUJ_clean_linker_0, # of connection points: 2
#     Edge 64, Type (0, 0), BuildingBlock: MIFKUJ_clean_linker_0, # of connection points: 2
#     Edge 65, Type (0, 0), BuildingBlock: MIFKUJ_clean_linker_0, # of connection points: 2
#     Edge 66, Type (0, 0), BuildingBlock: MIFKUJ_clean_linker_0, # of connection points: 2
#     Edge 67, Type (0, 0), BuildingBlock: MIFKUJ_clean_linker_0, # of connection points: 2
#     Edge 68, Type (0, 0), BuildingBlock: MIFKUJ_clean_linker_0, # of connection points: 2
#     Edge 69, Type (0, 0), BuildingBlock: MIFKUJ_clean_linker_0, # of connection points: 2
#     Edge 70, Type (0, 0), BuildingBlock: MIFKUJ_clean_linker_0, # of connection points: 2
#     Edge 71, Type (0, 0), BuildingBlock: MIFKUJ_clean_linker_0, # of connection points: 2
#     Edge 72, Type (0, 0), BuildingBlock: MIFKUJ_clean_linker_0, # of connection points: 2
#     Edge 73, Type (0, 0), BuildingBlock: MIFKUJ_clean_linker_0, # of connection points: 2
#     Edge 74, Type (0, 0), BuildingBlock: MIFKUJ_clean_linker_0, # of connection points: 2
#     Edge 75, Type (0, 0), BuildingBlock: MIFKUJ_clean_linker_0, # of connection points: 2
#     Edge 76, Type (0, 0), BuildingBlock: MIFKUJ_clean_linker_0, # of connection points: 2
#     Edge 77, Type (0, 0), BuildingBlock: MIFKUJ_clean_linker_0, # of connection points: 2
#     Edge 78, Type (0, 0), BuildingBlock: MIFKUJ_clean_linker_0, # of connection points: 2
#     Edge 79, Type (0, 0), BuildingBlock: MIFKUJ_clean_linker_0, # of connection points: 2
#     Edge 80, Type (0, 0), BuildingBlock: MIFKUJ_clean_linker_0, # of connection points: 2
#     Edge 81, Type (0, 0), BuildingBlock: MIFKUJ_clean_linker_0, # of connection points: 2
#     Edge 82, Type (0, 0), BuildingBlock: MIFKUJ_clean_linker_0, # of connection points: 2
#     Edge 83, Type (0, 0), BuildingBlock: MIFKUJ_clean_linker_0, # of connection points: 2
#     Edge 84, Type (0, 0), BuildingBlock: MIFKUJ_clean_linker_0, # of connection points: 2
#     Edge 85, Type (0, 0), BuildingBlock: MIFKUJ_clean_linker_0, # of connection points: 2
#     Edge 86, Type (0, 0), BuildingBlock: MIFKUJ_clean_linker_0, # of connection points: 2
#     Edge 87, Type (0, 0), BuildingBlock: MIFKUJ_clean_linker_0, # of connection points: 2
#     Edge 88, Type (0, 0), BuildingBlock: MIFKUJ_clean_linker_0, # of connection points: 2
#     Edge 89, Type (0, 0), BuildingBlock: MIFKUJ_clean_linker_0, # of connection points: 2
#     Edge 90, Type (0, 0), BuildingBlock: MIFKUJ_clean_linker_0, # of connection points: 2
#     Edge 91, Type (0, 0), BuildingBlock: MIFKUJ_clean_linker_0, # of connection points: 2
#     Edge 92, Type (0, 0), BuildingBlock: MIFKUJ_clean_linker_0, # of connection points: 2
#     Edge 93, Type (0, 0), BuildingBlock: MIFKUJ_clean_linker_0, # of connection points: 2
#     Edge 94, Type (0, 0), BuildingBlock: MIFKUJ_clean_linker_0, # of connection points: 2
#     Edge 95, Type (0, 0), BuildingBlock: MIFKUJ_clean_linker_0, # of connection points: 2
#     Edge 96, Type (0, 0), BuildingBlock: MIFKUJ_clean_linker_0, # of connection points: 2
#     Edge 97, Type (0, 0), BuildingBlock: MIFKUJ_clean_linker_0, # of connection points: 2
#     Edge 98, Type (0, 0), BuildingBlock: MIFKUJ_clean_linker_0, # of connection points: 2
#     Edge 99, Type (0, 0), BuildingBlock: MIFKUJ_clean_linker_0, # of connection points: 2
#     Edge 100, Type (0, 0), BuildingBlock: MIFKUJ_clean_linker_0, # of connection points: 2
#     Edge 101, Type (0, 0), BuildingBlock: MIFKUJ_clean_linker_0, # of connection points: 2
#     Edge 102, Type (0, 0), BuildingBlock: MIFKUJ_clean_linker_0, # of connection points: 2
#     Edge 103, Type (0, 0), BuildingBlock: MIFKUJ_clean_linker_0, # of connection points: 2
#     Edge 104, Type (0, 0), BuildingBlock: MIFKUJ_clean_linker_0, # of connection points: 2
#     Edge 105, Type (0, 0), BuildingBlock: MIFKUJ_clean_linker_0, # of connection points: 2
#     Edge 106, Type (0, 0), BuildingBlock: MIFKUJ_clean_linker_0, # of connection points: 2
#     Edge 107, Type (0, 0), BuildingBlock: MIFKUJ_clean_linker_0, # of connection points: 2
#     Edge 108, Type (0, 0), BuildingBlock: MIFKUJ_clean_linker_0, # of connection points: 2
#     Edge 109, Type (0, 0), BuildingBlock: MIFKUJ_clean_linker_0, # of connection points: 2
#     Edge 110, Type (0, 0), BuildingBlock: MIFKUJ_clean_linker_0, # of connection points: 2
#     Edge 111, Type (0, 0), BuildingBlock: MIFKUJ_clean_linker_0, # of connection points: 2
#     Edge 112, Type (0, 0), BuildingBlock: MIFKUJ_clean_linker_0, # of connection points: 2
#     Edge 113, Type (0, 0), BuildingBlock: MIFKUJ_clean_linker_0, # of connection points: 2
#     Edge 114, Type (0, 0), BuildingBlock: MIFKUJ_clean_linker_0, # of connection points: 2
#     Edge 115, Type (0, 0), BuildingBlock: MIFKUJ_clean_linker_0, # of connection points: 2
#     Edge 116, Type (0, 0), BuildingBlock: MIFKUJ_clean_linker_0, # of connection points: 2
#     Edge 117, Type (0, 0), BuildingBlock: MIFKUJ_clean_linker_0, # of connection points: 2
#     Edge 118, Type (0, 0), BuildingBlock: MIFKUJ_clean_linker_0, # of connection points: 2
#     Edge 119, Type (0, 0), BuildingBlock: MIFKUJ_clean_linker_0, # of connection points: 2
#     Edge 120, Type (0, 0), BuildingBlock: MIFKUJ_clean_linker_0, # of connection points: 2
#     Edge 121, Type (0, 0), BuildingBlock: MIFKUJ_clean_linker_0, # of connection points: 2
#     Edge 122, Type (0, 0), BuildingBlock: MIFKUJ_clean_linker_0, # of connection points: 2
#     Edge 123, Type (0, 0), BuildingBlock: MIFKUJ_clean_linker_0, # of connection points: 2
#     Edge 124, Type (0, 0), BuildingBlock: MIFKUJ_clean_linker_0, # of connection points: 2
#     Edge 125, Type (0, 0), BuildingBlock: MIFKUJ_clean_linker_0, # of connection points: 2
#     Edge 126, Type (0, 0), BuildingBlock: MIFKUJ_clean_linker_0, # of connection points: 2
#     Edge 127, Type (0, 0), BuildingBlock: MIFKUJ_clean_linker_0, # of connection points: 2
#     Edge 128, Type (0, 0), BuildingBlock: MIFKUJ_clean_linker_0, # of connection points: 2
#     Edge 129, Type (0, 0), BuildingBlock: MIFKUJ_clean_linker_0, # of connection points: 2
#     Edge 130, Type (0, 0), BuildingBlock: MIFKUJ_clean_linker_0, # of connection points: 2
#     Edge 131, Type (0, 0), BuildingBlock: MIFKUJ_clean_linker_0, # of connection points: 2
#     Edge 132, Type (0, 0), BuildingBlock: MIFKUJ_clean_linker_0, # of connection points: 2
#     Edge 133, Type (0, 0), BuildingBlock: MIFKUJ_clean_linker_0, # of connection points: 2
#     Edge 134, Type (0, 0), BuildingBlock: MIFKUJ_clean_linker_0, # of connection points: 2
#     Edge 135, Type (0, 0), BuildingBlock: MIFKUJ_clean_linker_0, # of connection points: 2
#     Edge 136, Type (0, 0), BuildingBlock: MIFKUJ_clean_linker_0, # of connection points: 2
#     Edge 137, Type (0, 0), BuildingBlock: MIFKUJ_clean_linker_0, # of connection points: 2
#     Edge 138, Type (0, 0), BuildingBlock: MIFKUJ_clean_linker_0, # of connection points: 2
#     Edge 139, Type (0, 0), BuildingBlock: MIFKUJ_clean_linker_0, # of connection points: 2
#     Edge 140, Type (0, 0), BuildingBlock: MIFKUJ_clean_linker_0, # of connection points: 2
#     Edge 141, Type (0, 0), BuildingBlock: MIFKUJ_clean_linker_0, # of connection points: 2
#     Edge 142, Type (0, 0), BuildingBlock: MIFKUJ_clean_linker_0, # of connection points: 2
#     Edge 143, Type (0, 0), BuildingBlock: MIFKUJ_clean_linker_0, # of connection points: 2
# Relax obj value: 0.374
# Max RMSD: 0.197
# Mean RMSD: 0.197
data_MOF--net-ukr--node1-AZAVOO_clean_sbu_0--edge1-MIFKUJ_clean_linker_0
_symmetry_space_group_name_H-M    P1
_symmetry_Int_Tables_number       1
_symmetry_cell_setting            triclinic
loop_
_symmetry_equiv_pos_as_xyz
'x, y, z'
_cell_length_a     87.889779
_cell_length_b     87.93751
_cell_length_c     87.966978
_cell_angle_alpha  89.990084
_cell_angle_beta   90.009125
_cell_angle_gamma 90.003729
loop_
_atom_site_label
_atom_site_type_symbol
_atom_site_fract_x
_atom_site_fract_y
_atom_site_fract_z
_atom_type_partial_charge
Mg0 Mg 0.11274 0.28186 0.16394 0.0
O1 O 0.11718 0.26091 0.17847 0.0
O2 O 0.14211 0.25615 0.17887 0.0
Mg3 Mg 0.1538 0.2752 0.1655 0.0
C4 C 0.12847 0.25285 0.18264 0.0
C5 C 0.07854 0.28363 0.16169 0.0
O6 O 0.08325 0.28799 0.1482 0.0
O7 O 0.12038 0.29712 0.18366 0.0
O8 O 0.14541 0.29265 0.1829 0.0
O9 O 0.11245 0.26672 0.14352 0.0
O10 O 0.13298 0.27838 0.15218 0.0
C11 C 0.13388 0.29947 0.18853 0.0
C12 C 0.12703 0.26866 0.143 0.0
O13 O 0.08833 0.28102 0.17196 0.0
Mg14 Mg 0.21321 0.61125 0.65929 0.0
O15 O 0.23567 0.6162 0.67164 0.0
O16 O 0.24092 0.64101 0.66989 0.0
Mg17 Mg 0.21972 0.65233 0.66015 0.0
C18 C 0.24448 0.62751 0.67386 0.0
C19 C 0.22708 0.57962 0.66444 0.0
O20 O 0.238 0.58682 0.65721 0.0
O21 O 0.20019 0.61855 0.68066 0.0
O22 O 0.20614 0.64328 0.68048 0.0
O23 O 0.22644 0.61143 0.63757 0.0
O24 O 0.21505 0.63166 0.64719 0.0
C25 C 0.1998 0.63177 0.68669 0.0
C26 C 0.22427 0.62598 0.63738 0.0
O27 O 0.21483 0.58671 0.66743 0.0
Mg28 Mg 0.88476 0.71481 0.16016 0.0
O29 O 0.88029 0.73655 0.17343 0.0
O30 O 0.85543 0.7417 0.17221 0.0
Mg31 Mg 0.84366 0.72144 0.16079 0.0
C32 C 0.86896 0.74511 0.17622 0.0
C33 C 0.91912 0.71446 0.15855 0.0
O34 O 0.91484 0.71091 0.14468 0.0
O35 O 0.87688 0.70081 0.18062 0.0
O36 O 0.85182 0.70527 0.17953 0.0
O37 O 0.88484 0.72918 0.1391 0.0
O38 O 0.86456 0.71729 0.14802 0.0
C39 C 0.86336 0.69884 0.18559 0.0
C40 C 0.87029 0.72695 0.13868 0.0
O41 O 0.90901 0.71614 0.16869 0.0
Mg42 Mg 0.78477 0.3862 0.65638 0.0
O43 O 0.76335 0.38199 0.67065 0.0
O44 O 0.75992 0.35693 0.67346 0.0
Mg45 Mg 0.77934 0.34512 0.66079 0.0
C46 C 0.7559 0.37067 0.67582 0.0
C47 C 0.77367 0.41934 0.65709 0.0
O48 O 0.76531 0.41358 0.64614 0.0
O49 O 0.79983 0.38023 0.67678 0.0
O50 O 0.79556 0.35515 0.67847 0.0
O51 O 0.77005 0.38465 0.63583 0.0
O52 O 0.78217 0.36506 0.64594 0.0
C53 C 0.80196 0.36733 0.6831 0.0
C54 C 0.77228 0.37014 0.63643 0.0
O55 O 0.78343 0.41096 0.66367 0.0
Mg56 Mg 0.11164 0.71433 0.84088 0.0
O57 O 0.11631 0.73588 0.82706 0.0
O58 O 0.1413 0.74062 0.82723 0.0
Mg59 Mg 0.15275 0.72135 0.84029 0.0
C60 C 0.12773 0.74398 0.82327 0.0
C61 C 0.07959 0.72671 0.8349 0.0
O62 O 0.08604 0.73778 0.84258 0.0
O63 O 0.11982 0.7001 0.82056 0.0
O64 O 0.14461 0.70575 0.82115 0.0
O65 O 0.11092 0.72898 0.86165 0.0
O66 O 0.13173 0.7177 0.8532 0.0
C67 C 0.13325 0.69905 0.81507 0.0
C68 C 0.12551 0.72728 0.86232 0.0
O69 O 0.08729 0.71482 0.83197 0.0
Mg70 Mg 0.78437 0.6108 0.34132 0.0
O71 O 0.76351 0.61687 0.32698 0.0
O72 O 0.76081 0.6421 0.32627 0.0
Mg73 Mg 0.78149 0.65223 0.33855 0.0
C74 C 0.75623 0.62873 0.32292 0.0
C75 C 0.76917 0.57992 0.33341 0.0
O76 O 0.7572 0.5876 0.33801 0.0
O77 O 0.7996 0.6165 0.32109 0.0
O78 O 0.79752 0.6419 0.32069 0.0
O79 O 0.76955 0.61253 0.3619 0.0
O80 O 0.78299 0.6316 0.35249 0.0
C81 C 0.80293 0.62947 0.31549 0.0
C82 C 0.77275 0.62691 0.36182 0.0
O83 O 0.78213 0.58632 0.3335 0.0
Mg84 Mg 0.88592 0.28361 0.83886 0.0
O85 O 0.88126 0.26194 0.82546 0.0
O86 O 0.85635 0.25682 0.82587 0.0
Mg87 Mg 0.84479 0.27734 0.83713 0.0
C88 C 0.86999 0.25344 0.82224 0.0
C89 C 0.92008 0.27975 0.84135 0.0
O90 O 0.91566 0.28035 0.8556 0.0
O91 O 0.87893 0.2977 0.81811 0.0
O92 O 0.85385 0.29335 0.81868 0.0
O93 O 0.88523 0.26955 0.86015 0.0
O94 O 0.86538 0.2815 0.85045 0.0
C95 C 0.86553 0.29975 0.81285 0.0
C96 C 0.87074 0.27207 0.86024 0.0
O97 O 0.91031 0.28171 0.83093 0.0
Mg98 Mg 0.21643 0.38649 0.34133 0.0
O99 O 0.23747 0.38199 0.32664 0.0
O100 O 0.24126 0.35697 0.32448 0.0
Mg101 Mg 0.22169 0.34542 0.33704 0.0
C102 C 0.24509 0.37069 0.32168 0.0
C103 C 0.22941 0.41871 0.3381 0.0
O104 O 0.23986 0.41194 0.34635 0.0
O105 O 0.20115 0.38052 0.32124 0.0
O106 O 0.20562 0.35553 0.31906 0.0
O107 O 0.23137 0.38523 0.36168 0.0
O108 O 0.21924 0.36543 0.35193 0.0
C109 C 0.19918 0.36776 0.31462 0.0
C110 C 0.2291 0.37071 0.36138 0.0
O111 O 0.21774 0.41124 0.33397 0.0
Mg112 Mg 0.15919 0.11044 0.28231 0.0
O113 O 0.1725 0.11448 0.26043 0.0
O114 O 0.17194 0.1392 0.25462 0.0
Mg115 Mg 0.1582 0.15095 0.27329 0.0
C116 C 0.17612 0.12558 0.25184 0.0
C117 C 0.15932 0.07638 0.285 0.0
O118 O 0.14539 0.08024 0.28883 0.0
O119 O 0.17921 0.11998 0.29582 0.0
O120 O 0.17745 0.14456 0.28965 0.0
O121 O 0.13825 0.10791 0.26828 0.0
O122 O 0.14606 0.12967 0.27827 0.0
C123 C 0.184 0.13366 0.29669 0.0
C124 C 0.13687 0.1225 0.26941 0.0
O125 O 0.16896 0.08679 0.28247 0.0
Mg126 Mg 0.38587 0.65947 0.78098 0.0
O127 O 0.38092 0.67211 0.7589 0.0
O128 O 0.35583 0.67278 0.75472 0.0
Mg129 Mg 0.34477 0.66035 0.77469 0.0
C130 C 0.36946 0.67597 0.75092 0.0
C131 C 0.42025 0.66102 0.7862 0.0
O132 O 0.41639 0.64971 0.79516 0.0
O133 O 0.37833 0.68036 0.79452 0.0
O134 O 0.35337 0.6797 0.78972 0.0
O135 O 0.38627 0.63817 0.76741 0.0
O136 O 0.36573 0.64731 0.7788 0.0
C137 C 0.36497 0.6859 0.7959 0.0
C138 C 0.3717 0.63773 0.7695 0.0
O139 O 0.40991 0.66816 0.77914 0.0
Mg140 Mg 0.83963 0.88625 0.28298 0.0
O141 O 0.8262 0.88126 0.26138 0.0
O142 O 0.82728 0.85633 0.25646 0.0
Mg143 Mg 0.84041 0.84528 0.27619 0.0
C144 C 0.82311 0.86982 0.25309 0.0
C145 C 0.83998 0.92039 0.28249 0.0
O146 O 0.85423 0.91656 0.28489 0.0
O147 O 0.81978 0.87748 0.29717 0.0
O148 O 0.82178 0.85241 0.2931 0.0
O149 O 0.8603 0.88768 0.26842 0.0
O150 O 0.85262 0.8667 0.28004 0.0
C151 C 0.81543 0.86382 0.29948 0.0
C152 C 0.86148 0.87314 0.27035 0.0
O153 O 0.82999 0.91 0.28202 0.0
Mg154 Mg 0.6122 0.33842 0.78302 0.0
O155 O 0.61767 0.3238 0.76229 0.0
O156 O 0.6429 0.32207 0.75971 0.0
Mg157 Mg 0.65366 0.33466 0.77985 0.0
C158 C 0.62941 0.31912 0.75517 0.0
C159 C 0.58051 0.33397 0.76844 0.0
O160 O 0.58817 0.34016 0.75721 0.0
O161 O 0.61767 0.31811 0.79846 0.0
O162 O 0.6431 0.31775 0.79654 0.0
O163 O 0.61444 0.3591 0.76815 0.0
O164 O 0.63334 0.34901 0.78123 0.0
C165 C 0.63067 0.31272 0.80211 0.0
C166 C 0.62884 0.3586 0.77116 0.0
O167 O 0.58728 0.33144 0.78096 0.0
Mg168 Mg 0.15945 0.88529 0.71425 0.0
O169 O 0.17229 0.88247 0.7366 0.0
O170 O 0.17548 0.8577 0.74134 0.0
Mg171 Mg 0.16499 0.84481 0.72146 0.0
C172 C 0.17711 0.87166 0.74491 0.0
C173 C 0.15838 0.92018 0.70945 0.0
O174 O 0.14703 0.91644 0.70047 0.0
O175 O 0.18113 0.87995 0.70101 0.0
O176 O 0.18369 0.8553 0.70671 0.0
O177 O 0.13794 0.88356 0.72746 0.0
O178 O 0.14962 0.86399 0.71675 0.0
C179 C 0.18841 0.86743 0.70026 0.0
C180 C 0.13918 0.86899 0.72572 0.0
O181 O 0.16594 0.90982 0.71595 0.0
Mg182 Mg 0.61243 0.65688 0.2144 0.0
O183 O 0.61549 0.67052 0.23636 0.0
O184 O 0.64025 0.67193 0.24217 0.0
Mg185 Mg 0.65308 0.66068 0.22264 0.0
C186 C 0.6263 0.67465 0.24508 0.0
C187 C 0.5799 0.66189 0.2266 0.0
O188 O 0.58665 0.65607 0.23859 0.0
O189 O 0.61916 0.67814 0.20074 0.0
O190 O 0.64368 0.67954 0.2074 0.0
O191 O 0.61325 0.63573 0.22854 0.0
O192 O 0.63337 0.64628 0.21773 0.0
C193 C 0.63208 0.68481 0.2004 0.0
C194 C 0.62786 0.63628 0.22684 0.0
O195 O 0.5875 0.66371 0.21444 0.0
Mg196 Mg 0.83861 0.11158 0.71523 0.0
O197 O 0.82486 0.11893 0.73583 0.0
O198 O 0.82542 0.14421 0.73812 0.0
Mg199 Mg 0.83842 0.15313 0.71726 0.0
C200 C 0.82135 0.13109 0.74286 0.0
C201 C 0.83709 0.07692 0.71288 0.0
O202 O 0.8486 0.08014 0.70391 0.0
O203 O 0.81851 0.11809 0.69991 0.0
O204 O 0.8202 0.14349 0.7012 0.0
O205 O 0.85935 0.11235 0.72983 0.0
O206 O 0.8511 0.13169 0.71602 0.0
C207 C 0.81405 0.13137 0.69605 0.0
C208 C 0.86019 0.12662 0.72631 0.0
O209 O 0.82975 0.08771 0.71901 0.0
Mg210 Mg 0.38705 0.33762 0.21538 0.0
O211 O 0.38372 0.32546 0.2381 0.0
O212 O 0.35881 0.32152 0.24138 0.0
Mg213 Mg 0.34632 0.33152 0.22108 0.0
C214 C 0.37258 0.3203 0.24579 0.0
C215 C 0.42178 0.34199 0.21587 0.0
O216 O 0.41746 0.35567 0.21166 0.0
O217 O 0.38244 0.3153 0.20273 0.0
O218 O 0.35748 0.31286 0.20705 0.0
O219 O 0.38406 0.35996 0.22739 0.0
O220 O 0.36546 0.34699 0.21658 0.0
C221 C 0.36994 0.30802 0.20139 0.0
C222 C 0.36964 0.3583 0.22485 0.0
O223 O 0.41183 0.33175 0.21773 0.0
Mg224 Mg 0.28497 0.16313 0.1121 0.0
O225 O 0.26216 0.17555 0.11373 0.0
O226 O 0.25811 0.1816 0.13804 0.0
Mg227 Mg 0.27806 0.173 0.15196 0.0
C228 C 0.25415 0.18174 0.12409 0.0
C229 C 0.27639 0.15676 0.07859 0.0
O230 O 0.2719 0.14393 0.08477 0.0
O231 O 0.29735 0.18603 0.11486 0.0
O232 O 0.2921 0.1904 0.13933 0.0
O233 O 0.27324 0.14087 0.11695 0.0
O234 O 0.2831 0.15571 0.13457 0.0
C235 C 0.29814 0.19432 0.12676 0.0
C236 C 0.27528 0.14381 0.13121 0.0
O237 O 0.28306 0.16664 0.08673 0.0
Mg238 Mg 0.28541 0.83754 0.88642 0.0
O239 O 0.26298 0.8248 0.88227 0.0
O240 O 0.25778 0.82479 0.85739 0.0
Mg241 Mg 0.27892 0.83397 0.84549 0.0
C242 C 0.25423 0.82171 0.87112 0.0
C243 C 0.27227 0.83508 0.91861 0.0
O244 O 0.26216 0.84373 0.91181 0.0
O245 O 0.2985 0.81602 0.88042 0.0
O246 O 0.29261 0.81427 0.85573 0.0
O247 O 0.27228 0.85923 0.88495 0.0
O248 O 0.2836 0.84821 0.86538 0.0
C249 C 0.29897 0.80905 0.86771 0.0
C250 C 0.27444 0.85843 0.87043 0.0
O251 O 0.28377 0.83048 0.91116 0.0
Mg252 Mg 0.65899 0.78354 0.38634 0.0
O253 O 0.67294 0.76254 0.3806 0.0
O254 O 0.67245 0.75892 0.35545 0.0
Mg255 Mg 0.66009 0.77941 0.34498 0.0
C256 C 0.6763 0.75485 0.36882 0.0
C257 C 0.65748 0.78263 0.42066 0.0
O258 O 0.64366 0.78678 0.41672 0.0
O259 O 0.67913 0.79853 0.37957 0.0
O260 O 0.67812 0.79584 0.35426 0.0
O261 O 0.63833 0.76872 0.38565 0.0
O262 O 0.64701 0.78178 0.366 0.0
C263 C 0.68395 0.80163 0.36624 0.0
C264 C 0.6379 0.77162 0.37123 0.0
O265 O 0.66747 0.78103 0.41041 0.0
Mg266 Mg 0.7154 0.15846 0.88676 0.0
O267 O 0.73565 0.17343 0.88107 0.0
O268 O 0.7393 0.17369 0.85596 0.0
Mg269 Mg 0.72069 0.15851 0.84562 0.0
C270 C 0.74299 0.17782 0.86939 0.0
C271 C 0.71302 0.1587 0.92096 0.0
O272 O 0.7078 0.14521 0.91721 0.0
O273 O 0.69949 0.17728 0.87866 0.0
O274 O 0.70251 0.1756 0.85343 0.0
O275 O 0.73151 0.13906 0.88791 0.0
O276 O 0.71899 0.14579 0.8671 0.0
C277 C 0.69621 0.18143 0.86515 0.0
C278 C 0.72947 0.13772 0.87341 0.0
O279 O 0.71643 0.16799 0.9105 0.0
Mg280 Mg 0.33859 0.21087 0.38679 0.0
O281 O 0.3253 0.23297 0.38308 0.0
O282 O 0.32559 0.23929 0.35848 0.0
Mg283 Mg 0.33456 0.21838 0.34609 0.0
C284 C 0.3223 0.24217 0.37231 0.0
C285 C 0.33307 0.22463 0.41854 0.0
O286 O 0.3384 0.23646 0.41114 0.0
O287 O 0.31715 0.19766 0.38075 0.0
O288 O 0.31487 0.20466 0.35639 0.0
O289 O 0.35987 0.22454 0.38557 0.0
O290 O 0.34909 0.21344 0.36571 0.0
C291 C 0.30986 0.19784 0.3682 0.0
C292 C 0.35908 0.22275 0.37099 0.0
O293 O 0.33185 0.21196 0.41167 0.0
Mg294 Mg 0.71252 0.8388 0.11172 0.0
O295 O 0.73477 0.82589 0.11547 0.0
O296 O 0.74096 0.82669 0.14011 0.0
Mg297 Mg 0.72018 0.83586 0.15261 0.0
C298 C 0.74392 0.82322 0.12636 0.0
C299 C 0.72615 0.83478 0.07994 0.0
O300 O 0.73708 0.84169 0.08743 0.0
O301 O 0.69962 0.81711 0.1184 0.0
O302 O 0.70635 0.81609 0.14291 0.0
O303 O 0.72604 0.86047 0.11293 0.0
O304 O 0.71489 0.8497 0.13268 0.0
C305 C 0.69965 0.81044 0.13132 0.0
C306 C 0.72409 0.85979 0.12749 0.0
O307 O 0.71378 0.83177 0.08681 0.0
Mg308 Mg 0.65717 0.21428 0.61149 0.0
O309 O 0.67082 0.23561 0.61724 0.0
O310 O 0.66951 0.23975 0.64228 0.0
Mg311 Mg 0.65612 0.22003 0.65285 0.0
C312 C 0.67398 0.2435 0.62898 0.0
C313 C 0.66008 0.22492 0.57854 0.0
O314 O 0.64819 0.23223 0.58379 0.0
O315 O 0.67711 0.19983 0.62023 0.0
O316 O 0.67472 0.20326 0.64536 0.0
O317 O 0.63626 0.22886 0.61058 0.0
O318 O 0.64396 0.21712 0.63131 0.0
C319 C 0.68126 0.19717 0.63392 0.0
C320 C 0.63507 0.22689 0.62504 0.0
O321 O 0.66695 0.21564 0.58728 0.0
Mg322 Mg 0.33778 0.78305 0.61194 0.0
O323 O 0.32617 0.76004 0.61646 0.0
O324 O 0.32628 0.75559 0.64146 0.0
Mg325 Mg 0.3356 0.77685 0.65304 0.0
C326 C 0.32326 0.75154 0.62786 0.0
C327 C 0.33514 0.77016 0.57958 0.0
O328 O 0.34418 0.76016 0.58603 0.0
O329 O 0.31575 0.7952 0.61851 0.0
O330 O 0.31552 0.79022 0.64343 0.0
O331 O 0.36043 0.77124 0.61305 0.0
O332 O 0.34898 0.78192 0.63267 0.0
C333 C 0.30949 0.79607 0.63158 0.0
C334 C 0.35985 0.77361 0.62756 0.0
O335 O 0.33031 0.78132 0.58736 0.0
Mg336 Mg 0.88607 0.71406 0.83925 0.0
O337 O 0.88072 0.73539 0.82538 0.0
O338 O 0.85568 0.73955 0.8263 0.0
Mg339 Mg 0.84466 0.71952 0.83872 0.0
C340 C 0.86905 0.74337 0.82212 0.0
C341 C 0.91845 0.72678 0.83444 0.0
O342 O 0.91212 0.73744 0.84278 0.0
O343 O 0.87844 0.69936 0.81899 0.0
O344 O 0.8534 0.7036 0.8202 0.0
O345 O 0.88566 0.72889 0.86014 0.0
O346 O 0.86576 0.71636 0.85137 0.0
C347 C 0.86491 0.69724 0.81405 0.0
C348 C 0.87118 0.72629 0.86058 0.0
O349 O 0.91055 0.71527 0.83064 0.0
Mg350 Mg 0.78499 0.3875 0.34078 0.0
O351 O 0.76336 0.38354 0.32675 0.0
O352 O 0.75959 0.35854 0.32398 0.0
Mg353 Mg 0.77938 0.34654 0.33581 0.0
C354 C 0.75564 0.37233 0.3218 0.0
C355 C 0.77114 0.41919 0.33549 0.0
O356 O 0.75938 0.41161 0.34074 0.0
O357 O 0.7996 0.3818 0.31996 0.0
O358 O 0.79511 0.35681 0.31771 0.0
O359 O 0.77062 0.38576 0.36158 0.0
O360 O 0.7825 0.36627 0.35091 0.0
C361 C 0.80143 0.36907 0.31321 0.0
C362 C 0.77296 0.37125 0.36084 0.0
O363 O 0.78388 0.41247 0.33423 0.0
Mg364 Mg 0.11066 0.28743 0.83795 0.0
O365 O 0.11435 0.26612 0.82361 0.0
O366 O 0.13928 0.26237 0.82049 0.0
Mg367 Mg 0.1516 0.28167 0.83273 0.0
C368 C 0.12546 0.25856 0.81821 0.0
C369 C 0.07644 0.28237 0.84173 0.0
O370 O 0.08118 0.28174 0.85588 0.0
O371 O 0.1161 0.30225 0.81715 0.0
O372 O 0.14102 0.29734 0.81505 0.0
O373 O 0.11283 0.27276 0.8587 0.0
O374 O 0.13202 0.28486 0.84789 0.0
C375 C 0.12889 0.30384 0.81045 0.0
C376 C 0.12731 0.27519 0.85781 0.0
O377 O 0.08588 0.28559 0.83132 0.0
Mg378 Mg 0.21461 0.61274 0.33697 0.0
O379 O 0.23697 0.61688 0.32426 0.0
O380 O 0.24198 0.6418 0.32392 0.0
Mg381 Mg 0.2215 0.65383 0.33438 0.0
C382 C 0.24551 0.62808 0.32075 0.0
C383 C 0.22632 0.57995 0.3359 0.0
O384 O 0.23556 0.58647 0.34565 0.0
O385 O 0.20163 0.61943 0.31542 0.0
O386 O 0.20694 0.64429 0.31507 0.0
O387 O 0.22752 0.61376 0.35896 0.0
O388 O 0.21675 0.63364 0.34808 0.0
C389 C 0.20065 0.63256 0.30925 0.0
C390 C 0.2255 0.62831 0.35849 0.0
O391 O 0.21589 0.58786 0.32975 0.0
Mg392 Mg 0.8861 0.2828 0.16034 0.0
O393 O 0.88003 0.26168 0.174 0.0
O394 O 0.85507 0.25727 0.17233 0.0
Mg395 Mg 0.84501 0.27688 0.15839 0.0
C396 C 0.86832 0.25371 0.17712 0.0
C397 C 0.92004 0.28499 0.16067 0.0
O398 O 0.91587 0.29028 0.14733 0.0
O399 O 0.87711 0.29745 0.17982 0.0
O400 O 0.85207 0.29356 0.17722 0.0
O401 O 0.88803 0.26796 0.13998 0.0
O402 O 0.86691 0.27991 0.14679 0.0
C403 C 0.86336 0.29984 0.1839 0.0
C404 C 0.87357 0.27008 0.13823 0.0
O405 O 0.90981 0.28149 0.17021 0.0
Mg406 Mg 0.21417 0.38733 0.65561 0.0
O407 O 0.23553 0.3813 0.66907 0.0
O408 O 0.23972 0.35627 0.66826 0.0
Mg409 Mg 0.21983 0.34607 0.65483 0.0
C410 C 0.24343 0.36965 0.67252 0.0
C411 C 0.22826 0.4182 0.66326 0.0
O412 O 0.23934 0.4111 0.65619 0.0
O413 O 0.19982 0.37898 0.67572 0.0
O414 O 0.20421 0.35401 0.67394 0.0
O415 O 0.22877 0.38809 0.63479 0.0
O416 O 0.21657 0.36759 0.64276 0.0
C417 C 0.19795 0.36536 0.68048 0.0
C418 C 0.22642 0.3736 0.6338 0.0
O419 O 0.21568 0.41133 0.66522 0.0
Mg420 Mg 0.11159 0.71586 0.1604 0.0
O421 O 0.11588 0.73746 0.17419 0.0
O422 O 0.14088 0.7406 0.1774 0.0
Mg423 Mg 0.15252 0.72003 0.16679 0.0
C424 C 0.12717 0.74499 0.17931 0.0
C425 C 0.077 0.71874 0.15564 0.0
O426 O 0.08158 0.71632 0.14162 0.0
O427 O 0.11572 0.70148 0.18167 0.0
O428 O 0.14067 0.70555 0.18479 0.0
O429 O 0.11488 0.72959 0.1392 0.0
O430 O 0.13329 0.71724 0.15104 0.0
C431 C 0.12809 0.6997 0.18906 0.0
C432 C 0.12924 0.72667 0.14061 0.0
O433 O 0.08671 0.71862 0.16629 0.0
Mg434 Mg 0.78281 0.61192 0.65779 0.0
O435 O 0.76245 0.61788 0.67295 0.0
O436 O 0.75878 0.64302 0.67307 0.0
Mg437 Mg 0.7781 0.65328 0.65908 0.0
C438 C 0.75502 0.62961 0.6772 0.0
C439 C 0.77544 0.57821 0.65747 0.0
O440 O 0.7723 0.58274 0.6436 0.0
O441 O 0.79896 0.61899 0.67697 0.0
O442 O 0.79437 0.64403 0.67726 0.0
O443 O 0.76691 0.61193 0.63805 0.0
O444 O 0.77963 0.63222 0.64563 0.0
C445 C 0.801 0.63224 0.68253 0.0
C446 C 0.76927 0.62637 0.63708 0.0
O447 O 0.78117 0.58767 0.66675 0.0
Mg448 Mg 0.84137 0.88612 0.71734 0.0
O449 O 0.82748 0.88062 0.73856 0.0
O450 O 0.82971 0.85596 0.74437 0.0
Mg451 Mg 0.84312 0.84532 0.72471 0.0
C452 C 0.82469 0.86929 0.74713 0.0
C453 C 0.83739 0.9205 0.71174 0.0
O454 O 0.84936 0.91784 0.70319 0.0
O455 O 0.82195 0.87678 0.70297 0.0
O456 O 0.8238 0.85199 0.70828 0.0
O457 O 0.86177 0.88845 0.73208 0.0
O458 O 0.85503 0.867 0.72075 0.0
C459 C 0.81732 0.86309 0.70147 0.0
C460 C 0.86359 0.87395 0.73039 0.0
O461 O 0.83088 0.90948 0.71836 0.0
Mg462 Mg 0.61336 0.33884 0.21429 0.0
O463 O 0.61579 0.32591 0.23653 0.0
O464 O 0.64017 0.32643 0.2437 0.0
Mg465 Mg 0.65373 0.33623 0.22382 0.0
C466 C 0.62628 0.323 0.24605 0.0
C467 C 0.57891 0.34151 0.21346 0.0
O468 O 0.58324 0.35551 0.21054 0.0
O469 O 0.62085 0.31757 0.20148 0.0
O470 O 0.64524 0.31687 0.20859 0.0
O471 O 0.61352 0.36029 0.22806 0.0
O472 O 0.63397 0.35001 0.21765 0.0
C473 C 0.63393 0.31125 0.20139 0.0
C474 C 0.62817 0.35997 0.22662 0.0
O475 O 0.58891 0.33122 0.21467 0.0
Mg476 Mg 0.16206 0.11153 0.71437 0.0
O477 O 0.17786 0.11597 0.73459 0.0
O478 O 0.18288 0.14084 0.73775 0.0
Mg479 Mg 0.17095 0.15313 0.71801 0.0
C480 C 0.18425 0.12691 0.74167 0.0
C481 C 0.15754 0.07645 0.71272 0.0
O482 O 0.14651 0.08048 0.70347 0.0
O483 O 0.18286 0.11198 0.69774 0.0
O484 O 0.18201 0.13545 0.70487 0.0
O485 O 0.14206 0.11646 0.72966 0.0
O486 O 0.15392 0.13463 0.71723 0.0
C487 C 0.18845 0.12526 0.69726 0.0
C488 C 0.1441 0.13079 0.72735 0.0
O489 O 0.16606 0.08658 0.71837 0.0
Mg490 Mg 0.38713 0.6589 0.21433 0.0
O491 O 0.38183 0.67501 0.23389 0.0
O492 O 0.35692 0.67498 0.23879 0.0
Mg493 Mg 0.34603 0.659 0.22127 0.0
C494 C 0.37042 0.67963 0.24153 0.0
C495 C 0.41843 0.66833 0.22638 0.0
O496 O 0.41156 0.66333 0.23866 0.0
O497 O 0.37834 0.67715 0.19795 0.0
O498 O 0.35336 0.67574 0.20267 0.0
O499 O 0.38867 0.6399 0.23111 0.0
O500 O 0.36751 0.64644 0.21914 0.0
C501 C 0.36465 0.68142 0.19548 0.0
C502 C 0.37413 0.63842 0.22944 0.0
O503 O 0.41122 0.66832 0.21384 0.0
Mg504 Mg 0.84161 0.11 0.28421 0.0
O505 O 0.82684 0.1141 0.26319 0.0
O506 O 0.82511 0.13915 0.25901 0.0
Mg507 Mg 0.83878 0.1509 0.27782 0.0
C508 C 0.82198 0.12541 0.25556 0.0
C509 C 0.84341 0.07562 0.28188 0.0
O510 O 0.85783 0.07955 0.28234 0.0
O511 O 0.82183 0.11714 0.29935 0.0
O512 O 0.82107 0.14225 0.29506 0.0
O513 O 0.8618 0.10982 0.26899 0.0
O514 O 0.85306 0.13042 0.28053 0.0
C515 C 0.81613 0.13028 0.30163 0.0
C516 C 0.86217 0.12441 0.27075 0.0
O517 O 0.83333 0.08579 0.2835 0.0
Mg518 Mg 0.38675 0.3397 0.7845 0.0
O519 O 0.38424 0.32525 0.76312 0.0
O520 O 0.35991 0.31854 0.75995 0.0
Mg521 Mg 0.34662 0.32939 0.77943 0.0
C522 C 0.37381 0.3184 0.7558 0.0
C523 C 0.41877 0.33776 0.77014 0.0
O524 O 0.41076 0.34322 0.75877 0.0
O525 O 0.38377 0.3185 0.79943 0.0
O526 O 0.35903 0.31356 0.79578 0.0
O527 O 0.38201 0.36042 0.77035 0.0
O528 O 0.36432 0.34704 0.78213 0.0
C529 C 0.37184 0.3106 0.80189 0.0
C530 C 0.36772 0.35779 0.7728 0.0
O531 O 0.41228 0.33558 0.78288 0.0
Mg532 Mg 0.16101 0.88554 0.28445 0.0
O533 O 0.17381 0.88 0.26249 0.0
O534 O 0.1739 0.85485 0.25883 0.0
Mg535 Mg 0.16237 0.84427 0.27947 0.0
C536 C 0.17737 0.86831 0.25466 0.0
C537 C 0.15873 0.91974 0.28261 0.0
O538 O 0.14478 0.91546 0.28588 0.0
O539 O 0.18213 0.87876 0.29803 0.0
O540 O 0.18207 0.85374 0.29354 0.0
O541 O 0.13953 0.88536 0.27107 0.0
O542 O 0.14909 0.86518 0.28266 0.0
C543 C 0.18809 0.86559 0.29939 0.0
C544 C 0.13936 0.87081 0.27326 0.0
O545 O 0.16912 0.90976 0.28199 0.0
Mg546 Mg 0.61229 0.65936 0.78118 0.0
O547 O 0.61802 0.67292 0.75998 0.0
O548 O 0.64276 0.67063 0.75463 0.0
Mg549 Mg 0.65328 0.65768 0.77478 0.0
C550 C 0.62945 0.67551 0.7515 0.0
C551 C 0.57832 0.66207 0.78646 0.0
O552 O 0.58209 0.65031 0.79488 0.0
O553 O 0.62122 0.67892 0.79567 0.0
O554 O 0.64624 0.67667 0.79144 0.0
O555 O 0.61067 0.63876 0.7665 0.0
O556 O 0.63159 0.64595 0.77857 0.0
C557 C 0.63494 0.68318 0.79788 0.0
C558 C 0.6251 0.63712 0.76888 0.0
O559 O 0.58874 0.6694 0.77973 0.0
Mg560 Mg 0.71351 0.83905 0.88744 0.0
O561 O 0.73507 0.82542 0.88246 0.0
O562 O 0.7396 0.82517 0.85745 0.0
Mg563 Mg 0.71857 0.8358 0.84624 0.0
C564 C 0.74332 0.82192 0.87109 0.0
C565 C 0.7283 0.83404 0.9187 0.0
O566 O 0.73936 0.84054 0.91104 0.0
O567 O 0.69937 0.81812 0.88146 0.0
O568 O 0.70322 0.81712 0.85627 0.0
O569 O 0.7274 0.86034 0.88577 0.0
O570 O 0.71511 0.84994 0.86647 0.0
C571 C 0.6973 0.81196 0.86849 0.0
C572 C 0.72462 0.85993 0.87132 0.0
O573 O 0.71562 0.83173 0.91214 0.0
Mg574 Mg 0.71603 0.16002 0.11232 0.0
O575 O 0.73761 0.17322 0.11819 0.0
O576 O 0.7416 0.17312 0.14328 0.0
Mg577 Mg 0.71999 0.16294 0.15351 0.0
C578 C 0.74566 0.17653 0.12978 0.0
C579 C 0.71492 0.15894 0.07764 0.0
O580 O 0.70785 0.14631 0.08138 0.0
O581 O 0.70188 0.18089 0.11792 0.0
O582 O 0.70626 0.18255 0.14296 0.0
O583 O 0.72958 0.13866 0.11395 0.0
O584 O 0.71679 0.14887 0.13308 0.0
C585 C 0.70043 0.18764 0.13067 0.0
C586 C 0.72635 0.13887 0.12831 0.0
O587 O 0.71937 0.16779 0.08809 0.0
Mg588 Mg 0.33911 0.21535 0.61221 0.0
O589 O 0.32616 0.23775 0.61498 0.0
O590 O 0.32628 0.24503 0.63934 0.0
Mg591 Mg 0.33475 0.22439 0.65258 0.0
C592 C 0.32322 0.24739 0.62536 0.0
C593 C 0.33481 0.22805 0.57991 0.0
O594 O 0.34044 0.23994 0.58698 0.0
O595 O 0.31732 0.20279 0.61836 0.0
O596 O 0.31511 0.21047 0.64251 0.0
O597 O 0.36078 0.22857 0.61355 0.0
O598 O 0.34923 0.21818 0.63335 0.0
C599 C 0.31 0.20341 0.63088 0.0
C600 C 0.3597 0.22693 0.62813 0.0
O601 O 0.3329 0.21573 0.58722 0.0
Mg602 Mg 0.28501 0.84051 0.11108 0.0
O603 O 0.26375 0.82611 0.11532 0.0
O604 O 0.26026 0.82345 0.14036 0.0
Mg605 Mg 0.27933 0.83679 0.15212 0.0
C606 C 0.25635 0.82088 0.12662 0.0
C607 C 0.27219 0.83668 0.07902 0.0
O608 O 0.26156 0.8447 0.08578 0.0
O609 O 0.30003 0.82025 0.11759 0.0
O610 O 0.29609 0.81914 0.14274 0.0
O611 O 0.27015 0.86102 0.11194 0.0
O612 O 0.28205 0.85136 0.13193 0.0
C613 C 0.30246 0.81433 0.13062 0.0
C614 C 0.27231 0.86083 0.12648 0.0
O615 O 0.28401 0.83293 0.08646 0.0
Mg616 Mg 0.66144 0.78636 0.61112 0.0
O617 O 0.67508 0.76513 0.61708 0.0
O618 O 0.67503 0.7617 0.6422 0.0
Mg619 Mg 0.66345 0.78258 0.65244 0.0
C620 C 0.67867 0.75744 0.62882 0.0
C621 C 0.65964 0.78493 0.57674 0.0
O622 O 0.64593 0.7894 0.5807 0.0
O623 O 0.68188 0.80103 0.61731 0.0
O624 O 0.68265 0.79722 0.6425 0.0
O625 O 0.64065 0.77195 0.61215 0.0
O626 O 0.64979 0.78498 0.63167 0.0
C627 C 0.68797 0.80305 0.63032 0.0
C628 C 0.64047 0.77491 0.62657 0.0
O629 O 0.66965 0.78331 0.58698 0.0
Mg630 Mg 0.28277 0.16015 0.88591 0.0
O631 O 0.26074 0.17305 0.88195 0.0
O632 O 0.2566 0.17439 0.8569 0.0
Mg633 Mg 0.27561 0.16103 0.84499 0.0
C634 C 0.25287 0.17734 0.8706 0.0
C635 C 0.28161 0.15813 0.92002 0.0
O636 O 0.28321 0.14397 0.91555 0.0
O637 O 0.29645 0.18083 0.87767 0.0
O638 O 0.29257 0.17922 0.85254 0.0
O639 O 0.26899 0.13879 0.88645 0.0
O640 O 0.28002 0.14811 0.86585 0.0
C641 C 0.29883 0.18544 0.86408 0.0
C642 C 0.27101 0.13832 0.87189 0.0
O643 O 0.28187 0.16862 0.91013 0.0
Mg644 Mg 0.34108 0.78276 0.38664 0.0
O645 O 0.32663 0.76114 0.38454 0.0
O646 O 0.32361 0.75525 0.35996 0.0
Mg647 Mg 0.33617 0.77341 0.34633 0.0
C648 C 0.32129 0.7527 0.37404 0.0
C649 C 0.3379 0.77189 0.41922 0.0
O650 O 0.34553 0.76087 0.41264 0.0
O651 O 0.32034 0.7969 0.3797 0.0
O652 O 0.31834 0.79009 0.35527 0.0
O653 O 0.36213 0.76838 0.38623 0.0
O654 O 0.35123 0.7781 0.36576 0.0
C655 C 0.31362 0.7975 0.36684 0.0
C656 C 0.36135 0.76929 0.37159 0.0
O657 O 0.33425 0.78353 0.41146 0.0
Mg658 Mg 0.65981 0.21344 0.38531 0.0
O659 O 0.67314 0.23547 0.38185 0.0
O660 O 0.67247 0.24161 0.3572 0.0
Mg661 Mg 0.66104 0.22197 0.34442 0.0
C662 C 0.67624 0.24443 0.37091 0.0
C663 C 0.66218 0.22438 0.41813 0.0
O664 O 0.6526 0.23391 0.41179 0.0
O665 O 0.68069 0.20008 0.3771 0.0
O666 O 0.67974 0.20556 0.35223 0.0
O667 O 0.63831 0.22727 0.38536 0.0
O668 O 0.648 0.21662 0.36483 0.0
C669 C 0.68579 0.19873 0.36354 0.0
C670 C 0.63823 0.22569 0.37076 0.0
O671 O 0.6678 0.21375 0.41008 0.0
H672 H 0.9444 0.29427 0.14417 0.0
H673 H 0.9709 0.28707 0.14754 0.0
H674 H 0.9589 0.26029 0.18687 0.0
H675 H 0.93215 0.26772 0.18369 0.0
H676 H 0.98432 0.27655 0.1919 0.0
H677 H 0.96854 0.24179 0.15464 0.0
H678 H 0.95553 0.2324 0.13166 0.0
H679 H 0.98362 0.26097 0.10376 0.0
H680 H 0.99667 0.27071 0.12656 0.0
H681 H 0.06582 0.26645 0.18437 0.0
H682 H 0.03893 0.25959 0.18726 0.0
H683 H 0.0279 0.28654 0.14775 0.0
H684 H 0.05465 0.293 0.14454 0.0
H685 H 0.0137 0.25976 0.14677 0.0
H686 H 0.02284 0.29912 0.18663 0.0
H687 H 0.03559 0.3077 0.21013 0.0
H688 H 0.01986 0.2678 0.2335 0.0
H689 H 0.0071 0.25897 0.21009 0.0
C690 C 0.94736 0.28688 0.15357 0.0
C691 C 0.93619 0.28152 0.16363 0.0
C692 C 0.9625 0.28265 0.15541 0.0
C693 C 0.9668 0.27281 0.16722 0.0
C694 C 0.95578 0.26775 0.17758 0.0
C695 C 0.94054 0.27207 0.17579 0.0
C696 C 0.983 0.26851 0.16879 0.0
C697 C 0.99072 0.2725 0.18216 0.0
C698 C 0.99132 0.26291 0.15621 0.0
C699 C 0.98359 0.25701 0.14236 0.0
C700 C 0.97191 0.24614 0.14361 0.0
C701 C 0.96452 0.24074 0.13061 0.0
C702 C 0.96874 0.24608 0.11626 0.0
C703 C 0.98038 0.25682 0.11488 0.0
C704 C 0.9878 0.26226 0.12785 0.0
C705 C 0.05761 0.27098 0.17638 0.0
C706 C 0.06229 0.28033 0.16427 0.0
C707 C 0.04228 0.26702 0.17803 0.0
C708 C 0.0314 0.27259 0.16774 0.0
C709 C 0.03611 0.28201 0.15575 0.0
C710 C 0.05139 0.28579 0.15398 0.0
C711 C 0.01499 0.26911 0.16936 0.0
C712 C 0.00724 0.26339 0.15663 0.0
C713 C 0.00667 0.2729 0.18259 0.0
C714 C 0.01416 0.27834 0.19663 0.0
C715 C 0.02216 0.29218 0.19678 0.0
C716 C 0.02938 0.29708 0.21007 0.0
C717 C 0.02857 0.28828 0.22329 0.0
C718 C 0.0205 0.27459 0.22325 0.0
C719 C 0.01326 0.26964 0.20999 0.0
H720 H 0.03418 0.29209 0.23356 0.0
H721 H 0.963 0.2419 0.10621 0.0
H722 H 0.25042 0.56086 0.65645 0.0
H723 H 0.25198 0.53338 0.65985 0.0
H724 H 0.20905 0.53368 0.68357 0.0
H725 H 0.20734 0.5613 0.6802 0.0
H726 H 0.23108 0.51356 0.69649 0.0
H727 H 0.20807 0.52485 0.64826 0.0
H728 H 0.20594 0.53705 0.62311 0.0
H729 H 0.24782 0.51614 0.60916 0.0
H730 H 0.25031 0.50398 0.63433 0.0
H731 H 0.20859 0.43608 0.67961 0.0
H732 H 0.21051 0.46357 0.6839 0.0
H733 H 0.25366 0.46428 0.6606 0.0
H734 H 0.25196 0.43692 0.6564 0.0
H735 H 0.23174 0.48393 0.64849 0.0
H736 H 0.25377 0.47111 0.69643 0.0
H737 H 0.25544 0.45865 0.72146 0.0
H738 H 0.21502 0.48189 0.73601 0.0
H739 H 0.21295 0.49431 0.71094 0.0
C740 C 0.24137 0.55515 0.66255 0.0
C741 C 0.22865 0.56324 0.66788 0.0
C742 C 0.2423 0.53944 0.66449 0.0
C743 C 0.23055 0.53152 0.67182 0.0
C744 C 0.21821 0.53962 0.67787 0.0
C745 C 0.21722 0.55537 0.67585 0.0
C746 C 0.23065 0.5147 0.67204 0.0
C747 C 0.23105 0.50703 0.68603 0.0
C748 C 0.23086 0.50627 0.65835 0.0
C749 C 0.22947 0.51366 0.64324 0.0
C750 C 0.21691 0.52298 0.63989 0.0
C751 C 0.21562 0.52986 0.62561 0.0
C752 C 0.22676 0.52741 0.61456 0.0
C753 C 0.23921 0.51805 0.61775 0.0
C754 C 0.24057 0.51116 0.63201 0.0
C755 C 0.2186 0.44206 0.67562 0.0
C756 C 0.23003 0.43437 0.6675 0.0
C757 C 0.21971 0.45773 0.67815 0.0
C758 C 0.23221 0.4659 0.67254 0.0
C759 C 0.24392 0.45814 0.66501 0.0
C760 C 0.24291 0.4425 0.66261 0.0
C761 C 0.2323 0.48271 0.67293 0.0
C762 C 0.23185 0.49041 0.65899 0.0
C763 C 0.23197 0.49107 0.68666 0.0
C764 C 0.23309 0.4835 0.70171 0.0
C765 C 0.24512 0.47343 0.70489 0.0
C766 C 0.24617 0.4664 0.71911 0.0
C767 C 0.23531 0.46943 0.7303 0.0
C768 C 0.22341 0.47953 0.72731 0.0
C769 C 0.22229 0.48657 0.7131 0.0
H770 H 0.23616 0.464 0.74131 0.0
H771 H 0.22573 0.53273 0.60351 0.0
H772 H 0.05282 0.71493 0.13674 0.0
H773 H 0.02623 0.72071 0.14186 0.0
H774 H 0.03808 0.73661 0.18675 0.0
H775 H 0.06483 0.73042 0.18182 0.0
H776 H 0.01376 0.71934 0.18822 0.0
H777 H 0.02673 0.76234 0.15952 0.0
H778 H 0.03857 0.77729 0.13898 0.0
H779 H 0.01054 0.75467 0.10602 0.0
H780 H 0.99868 0.73941 0.12631 0.0
H781 H 0.93129 0.72755 0.18416 0.0
H782 H 0.95795 0.73477 0.18837 0.0
H783 H 0.96977 0.71631 0.14448 0.0
H784 H 0.94334 0.70935 0.14012 0.0
H785 H 0.98203 0.74443 0.1489 0.0
H786 H 0.97579 0.69681 0.17912 0.0
H787 H 0.96445 0.68255 0.20047 0.0
H788 H 0.97995 0.71667 0.23178 0.0
H789 H 0.99127 0.73118 0.21057 0.0
C790 C 0.04981 0.71971 0.14768 0.0
C791 C 0.0609 0.72222 0.15886 0.0
C792 C 0.03461 0.72315 0.15056 0.0
C793 C 0.03021 0.72944 0.16457 0.0
C794 C 0.04125 0.73189 0.17582 0.0
C795 C 0.05649 0.7283 0.17299 0.0
C796 C 0.01389 0.73246 0.1675 0.0
C797 C 0.00685 0.72518 0.17983 0.0
C798 C 0.00487 0.74039 0.15679 0.0
C799 C 0.01181 0.7497 0.14449 0.0
C800 C 0.02312 0.7605 0.14789 0.0
C801 C 0.02984 0.76904 0.13628 0.0
C802 C 0.02531 0.76693 0.12121 0.0
C803 C 0.01402 0.75631 0.11771 0.0
C804 C 0.00727 0.74774 0.12927 0.0
C805 C 0.93963 0.72496 0.17547 0.0
C806 C 0.93524 0.71787 0.1618 0.0
C807 C 0.95481 0.72912 0.17788 0.0
C808 C 0.9658 0.72613 0.1667 0.0
C809 C 0.96143 0.71888 0.15318 0.0
C810 C 0.94633 0.71481 0.15074 0.0
C811 C 0.98201 0.73016 0.16879 0.0
C812 C 0.98901 0.73902 0.15752 0.0
C813 C 0.99096 0.72392 0.1806 0.0
C814 C 0.98421 0.71513 0.19327 0.0
C815 C 0.97669 0.7013 0.19055 0.0
C816 C 0.97029 0.69317 0.20262 0.0
C817 C 0.97144 0.69872 0.21746 0.0
C818 C 0.97904 0.71239 0.22027 0.0
C819 C 0.98545 0.72057 0.20824 0.0
H820 H 0.96647 0.69241 0.22679 0.0
H821 H 0.03054 0.77354 0.11224 0.0
H822 H 0.76071 0.44176 0.64028 0.0
H823 H 0.75908 0.46877 0.64647 0.0
H824 H 0.7805 0.4604 0.68976 0.0
H825 H 0.78247 0.43321 0.68354 0.0
H826 H 0.75142 0.48382 0.68602 0.0
H827 H 0.80389 0.47219 0.67179 0.0
H828 H 0.82319 0.45964 0.65576 0.0
H829 H 0.80515 0.48192 0.61623 0.0
H830 H 0.78557 0.4944 0.63201 0.0
H831 H 0.78085 0.56427 0.68498 0.0
H832 H 0.77751 0.53714 0.69094 0.0
H833 H 0.75954 0.52948 0.64599 0.0
H834 H 0.7627 0.55627 0.63995 0.0
H835 H 0.78858 0.51388 0.65599 0.0
H836 H 0.73623 0.52509 0.66905 0.0
H837 H 0.71562 0.53709 0.68377 0.0
H838 H 0.73208 0.51588 0.72455 0.0
H839 H 0.753 0.50397 0.7101 0.0
C840 C 0.7649 0.4456 0.65121 0.0
C841 C 0.77187 0.43544 0.66137 0.0
C842 C 0.76387 0.46099 0.65475 0.0
C843 C 0.76959 0.46645 0.66858 0.0
C844 C 0.77593 0.45628 0.67909 0.0
C845 C 0.77719 0.44085 0.67544 0.0
C846 C 0.77067 0.48298 0.6709 0.0
C847 C 0.75974 0.49047 0.6798 0.0
C848 C 0.78139 0.4915 0.66254 0.0
C849 C 0.7932 0.4841 0.65305 0.0
C850 C 0.80395 0.47429 0.65966 0.0
C851 C 0.81496 0.46722 0.65063 0.0
C852 C 0.81537 0.46995 0.63498 0.0
C853 C 0.8048 0.4798 0.62834 0.0
C854 C 0.79376 0.48688 0.63733 0.0
C855 C 0.77598 0.55682 0.67647 0.0
C856 C 0.77232 0.56233 0.66189 0.0
C857 C 0.77395 0.54141 0.67995 0.0
C858 C 0.76823 0.53145 0.6689 0.0
C859 C 0.76388 0.53708 0.65467 0.0
C860 C 0.76584 0.55238 0.65121 0.0
C861 C 0.76917 0.51487 0.67091 0.0
C862 C 0.78052 0.50733 0.66267 0.0
C863 C 0.75877 0.50645 0.67981 0.0
C864 C 0.74638 0.51388 0.68854 0.0
C865 C 0.73564 0.5232 0.6812 0.0
C866 C 0.72385 0.52992 0.68948 0.0
C867 C 0.72259 0.52732 0.7051 0.0
C868 C 0.73311 0.51794 0.71246 0.0
C869 C 0.74494 0.51121 0.70423 0.0
H870 H 0.71343 0.53251 0.71149 0.0
H871 H 0.82391 0.46447 0.62801 0.0
H872 H 0.93435 0.70938 0.81403 0.0
H873 H 0.9617 0.71028 0.80874 0.0
H874 H 0.96675 0.74701 0.84087 0.0
H875 H 0.93947 0.74649 0.84584 0.0
H876 H 0.98435 0.75196 0.81703 0.0
H877 H 0.97456 0.70925 0.85063 0.0
H878 H 0.96254 0.68502 0.85813 0.0
H879 H 0.98057 0.66344 0.81822 0.0
H880 H 0.99261 0.68759 0.81044 0.0
H881 H 0.05868 0.7468 0.84565 0.0
H882 H 0.03154 0.74756 0.84026 0.0
H883 H 0.03659 0.71023 0.8088 0.0
H884 H 0.06383 0.70904 0.81463 0.0
H885 H 0.01396 0.705 0.82707 0.0
H886 H 0.02829 0.74766 0.79676 0.0
H887 H 0.04126 0.7719 0.79125 0.0
H888 H 0.01531 0.79403 0.82617 0.0
H889 H 0.00234 0.76988 0.83206 0.0
C890 C 0.94129 0.71772 0.81987 0.0
C891 C 0.93477 0.72778 0.83045 0.0
C892 C 0.95691 0.71821 0.81685 0.0
C893 C 0.96633 0.72857 0.82457 0.0
C894 C 0.95973 0.73894 0.83475 0.0
C895 C 0.94412 0.73857 0.83764 0.0
C896 C 0.98313 0.72818 0.82277 0.0
C897 C 0.99085 0.74171 0.81925 0.0
C898 C 0.9916 0.71472 0.82526 0.0
C899 C 0.98431 0.70024 0.82987 0.0
C900 C 0.97586 0.69936 0.84341 0.0
C901 C 0.96907 0.68564 0.84772 0.0
C902 C 0.97075 0.67271 0.83863 0.0
C903 C 0.97926 0.67347 0.82524 0.0
C904 C 0.98607 0.68716 0.82087 0.0
C905 C 0.05407 0.73885 0.83744 0.0
C906 C 0.06338 0.72781 0.83061 0.0
C907 C 0.03854 0.73938 0.83426 0.0
C908 C 0.03202 0.72912 0.82392 0.0
C909 C 0.04137 0.7183 0.81678 0.0
C910 C 0.05692 0.71762 0.82013 0.0
C911 C 0.01527 0.72887 0.82168 0.0
C912 C 0.00752 0.7152 0.82447 0.0
C913 C 0.00682 0.74225 0.81863 0.0
C914 C 0.01437 0.75691 0.81489 0.0
C915 C 0.02539 0.75768 0.80331 0.0
C916 C 0.03274 0.77141 0.80012 0.0
C917 C 0.02912 0.7845 0.80836 0.0
C918 C 0.0181 0.78389 0.81979 0.0
C919 C 0.01072 0.77018 0.82304 0.0
H920 H 0.03485 0.79511 0.80588 0.0
H921 H 0.96549 0.6621 0.842 0.0
H922 H 0.79196 0.56011 0.32609 0.0
H923 H 0.78975 0.53284 0.32159 0.0
H924 H 0.74098 0.53585 0.32631 0.0
H925 H 0.7431 0.56315 0.33108 0.0
H926 H 0.75254 0.51461 0.34439 0.0
H927 H 0.75744 0.52735 0.29185 0.0
H928 H 0.76877 0.53961 0.26933 0.0
H929 H 0.81044 0.5152 0.27664 0.0
H930 H 0.79945 0.50293 0.29933 0.0
H931 H 0.74494 0.43566 0.33336 0.0
H932 H 0.74241 0.46288 0.32847 0.0
H933 H 0.79115 0.4667 0.32398 0.0
H934 H 0.79376 0.4394 0.32856 0.0
H935 H 0.77671 0.48438 0.30336 0.0
H936 H 0.77402 0.47549 0.35745 0.0
H937 H 0.76406 0.46371 0.38087 0.0
H938 H 0.71959 0.48149 0.37123 0.0
H939 H 0.72927 0.49326 0.34765 0.0
C940 C 0.78073 0.55502 0.32596 0.0
C941 C 0.76771 0.56375 0.32912 0.0
C942 C 0.77948 0.53944 0.32326 0.0
C943 C 0.76519 0.53233 0.3235 0.0
C944 C 0.75211 0.54113 0.32606 0.0
C945 C 0.75335 0.55671 0.32881 0.0
C946 C 0.76412 0.51554 0.32282 0.0
C947 C 0.75749 0.50802 0.33522 0.0
C948 C 0.77099 0.50696 0.31106 0.0
C949 C 0.77763 0.51429 0.29737 0.0
C950 C 0.76906 0.52467 0.28873 0.0
C951 C 0.77542 0.53161 0.27592 0.0
C952 C 0.79032 0.52821 0.27157 0.0
C953 C 0.79889 0.51783 0.28002 0.0
C954 C 0.79259 0.51086 0.29284 0.0
C955 C 0.75512 0.44227 0.33124 0.0
C956 C 0.76957 0.43544 0.33155 0.0
C957 C 0.75364 0.45781 0.32843 0.0
C958 C 0.76661 0.46683 0.32609 0.0
C959 C 0.781 0.45994 0.32577 0.0
C960 C 0.78248 0.44435 0.32847 0.0
C961 C 0.76528 0.48357 0.32499 0.0
C962 C 0.7715 0.49104 0.31234 0.0
C963 C 0.75818 0.49218 0.33657 0.0
C964 C 0.75232 0.4851 0.35072 0.0
C965 C 0.76209 0.47679 0.36027 0.0
C966 C 0.7565 0.47014 0.37358 0.0
C967 C 0.74119 0.47181 0.37751 0.0
C968 C 0.73144 0.48018 0.36815 0.0
C969 C 0.73697 0.48686 0.35482 0.0
H970 H 0.73689 0.46666 0.38783 0.0
H971 H 0.79522 0.5336 0.26165 0.0
H972 H 0.06471 0.27529 0.81377 0.0
H973 H 0.03851 0.26781 0.80783 0.0
H974 H 0.02646 0.27276 0.85514 0.0
H975 H 0.05257 0.27977 0.86118 0.0
H976 H 0.01361 0.24781 0.84333 0.0
H977 H 0.02047 0.30156 0.82722 0.0
H978 H 0.03231 0.32127 0.81111 0.0
H979 H 0.01838 0.29715 0.771 0.0
H980 H 0.00658 0.27724 0.78691 0.0
H981 H 0.94384 0.27723 0.86096 0.0
H982 H 0.97003 0.27058 0.85511 0.0
H983 H 0.95854 0.26617 0.8076 0.0
H984 H 0.93216 0.27317 0.81337 0.0
H985 H 0.98327 0.28264 0.81094 0.0
H986 H 0.96853 0.2343 0.82811 0.0
H987 H 0.95605 0.21508 0.84426 0.0
H988 H 0.98427 0.22803 0.88193 0.0
H989 H 0.99677 0.24748 0.86612 0.0
C990 C 0.05644 0.27479 0.82288 0.0
C991 C 0.06063 0.27826 0.83793 0.0
C992 C 0.04151 0.27046 0.81947 0.0
C993 C 0.03053 0.2698 0.83103 0.0
C994 C 0.03478 0.27308 0.84606 0.0
C995 C 0.04969 0.27721 0.84949 0.0
C996 C 0.01433 0.26664 0.8277 0.0
C997 C 0.00692 0.25535 0.83621 0.0
C998 C 0.00576 0.27589 0.81772 0.0
C999 C 0.01283 0.28785 0.80822 0.0
C1000 C 0.02002 0.30043 0.81496 0.0
C1001 C 0.02671 0.31164 0.80587 0.0
C1002 C 0.02614 0.31043 0.79004 0.0
C1003 C 0.01885 0.29804 0.78326 0.0
C1004 C 0.01216 0.2868 0.7923 0.0
C1005 C 0.94682 0.27478 0.84927 0.0
C1006 C 0.93596 0.27579 0.83762 0.0
C1007 C 0.96178 0.27078 0.84595 0.0
C1008 C 0.96616 0.26752 0.83096 0.0
C1009 C 0.95534 0.26848 0.81927 0.0
C1010 C 0.94033 0.27257 0.82258 0.0
C1011 C 0.98241 0.26467 0.82761 0.0
C1012 C 0.98987 0.27468 0.81768 0.0
C1013 C 0.99102 0.25418 0.83626 0.0
C1014 C 0.98361 0.24239 0.84588 0.0
C1015 C 0.97204 0.23311 0.83986 0.0
C1016 C 0.96495 0.22216 0.84896 0.0
C1017 C 0.96936 0.22033 0.86411 0.0
C1018 C 0.98088 0.22944 0.87018 0.0
C1019 C 0.988 0.2404 0.86114 0.0
H1020 H 0.96386 0.21186 0.87114 0.0
H1021 H 0.03132 0.31912 0.78302 0.0
H1022 H 0.21699 0.43429 0.31422 0.0
H1023 H 0.21803 0.46188 0.30975 0.0
H1024 H 0.24541 0.4674 0.35003 0.0
H1025 H 0.24485 0.43992 0.35432 0.0
H1026 H 0.21495 0.48427 0.34689 0.0
H1027 H 0.26334 0.47348 0.32334 0.0
H1028 H 0.28051 0.46115 0.30496 0.0
H1029 H 0.25564 0.48113 0.26799 0.0
H1030 H 0.23809 0.49334 0.28618 0.0
H1031 H 0.24063 0.55896 0.35341 0.0
H1032 H 0.24158 0.53149 0.34967 0.0
H1033 H 0.21615 0.53605 0.308 0.0
H1034 H 0.21488 0.56374 0.31181 0.0
H1035 H 0.24389 0.5141 0.30868 0.0
H1036 H 0.19585 0.5254 0.33236 0.0
H1037 H 0.17912 0.53804 0.35097 0.0
H1038 H 0.20359 0.51698 0.3876 0.0
H1039 H 0.22064 0.5044 0.36919 0.0
C1040 C 0.22338 0.4414 0.32199 0.0
C1041 C 0.23076 0.43504 0.33467 0.0
C1042 C 0.22404 0.45708 0.31937 0.0
C1043 C 0.23184 0.46655 0.32954 0.0
C1044 C 0.23944 0.46019 0.34202 0.0
C1045 C 0.23909 0.44453 0.34445 0.0
C1046 C 0.23075 0.48322 0.32822 0.0
C1047 C 0.22131 0.49079 0.33857 0.0
C1048 C 0.23878 0.49159 0.31709 0.0
C1049 C 0.24921 0.4841 0.30613 0.0
C1050 C 0.26136 0.47505 0.3113 0.0
C1051 C 0.27121 0.46813 0.30091 0.0
C1052 C 0.26912 0.47029 0.28531 0.0
C1053 C 0.2572 0.47942 0.28008 0.0
C1054 C 0.2473 0.48633 0.29042 0.0
C1055 C 0.23537 0.55418 0.34336 0.0
C1056 C 0.22759 0.56347 0.33295 0.0
C1057 C 0.23595 0.5385 0.34123 0.0
C1058 C 0.22894 0.53183 0.32858 0.0
C1059 C 0.22167 0.54107 0.31781 0.0
C1060 C 0.22085 0.55681 0.32006 0.0
C1061 C 0.22826 0.51509 0.32751 0.0
C1062 C 0.23734 0.50752 0.3168 0.0
C1063 C 0.21988 0.50662 0.33829 0.0
C1064 C 0.20961 0.51409 0.3494 0.0
C1065 C 0.19776 0.52358 0.34439 0.0
C1066 C 0.1882 0.53071 0.35489 0.0
C1067 C 0.19032 0.52835 0.37046 0.0
C1068 C 0.20198 0.51882 0.37554 0.0
C1069 C 0.21158 0.51167 0.36507 0.0
H1070 H 0.1829 0.53388 0.37858 0.0
H1071 H 0.27678 0.46495 0.27729 0.0
H1072 H 0.13999 0.94401 0.28627 0.0
H1073 H 0.14476 0.97029 0.27919 0.0
H1074 H 0.18919 0.95798 0.26228 0.0
H1075 H 0.18459 0.93149 0.26973 0.0
H1076 H 0.19101 0.9827 0.279 0.0
H1077 H 0.1613 0.96885 0.23698 0.0
H1078 H 0.14049 0.95689 0.22248 0.0
H1079 H 0.10791 0.98522 0.24526 0.0
H1080 H 0.12845 0.9972 0.26007 0.0
H1081 H 0.18491 0.06504 0.27121 0.0
H1082 H 0.18959 0.03861 0.26361 0.0
H1083 H 0.14671 0.0254 0.28352 0.0
H1084 H 0.14187 0.05162 0.29092 0.0
H1085 H 0.15066 0.01378 0.25473 0.0
H1086 H 0.18151 0.02005 0.30191 0.0
H1087 H 0.20281 0.03179 0.31594 0.0
H1088 H 0.23393 0.01767 0.28106 0.0
H1089 H 0.21277 0.00595 0.26678 0.0
C1090 C 0.15076 0.94684 0.281 0.0
C1091 C 0.16192 0.9357 0.27858 0.0
C1092 C 0.15342 0.96186 0.27679 0.0
C1093 C 0.16719 0.96603 0.26984 0.0
C1094 C 0.17843 0.95496 0.26748 0.0
C1095 C 0.17581 0.93987 0.27181 0.0
C1096 C 0.16999 0.98224 0.26632 0.0
C1097 C 0.18241 0.98946 0.27329 0.0
C1098 C 0.15897 0.99107 0.25859 0.0
C1099 C 0.14648 0.98394 0.24966 0.0
C1100 C 0.1497 0.97249 0.23897 0.0
C1101 C 0.13794 0.9657 0.23068 0.0
C1102 C 0.12289 0.97029 0.23294 0.0
C1103 C 0.11957 0.98169 0.24349 0.0
C1104 C 0.13128 0.98851 0.25181 0.0
C1105 C 0.17656 0.05645 0.27407 0.0
C1106 C 0.16301 0.06038 0.28167 0.0
C1107 C 0.17923 0.04141 0.26966 0.0
C1108 C 0.16844 0.03012 0.27292 0.0
C1109 C 0.15509 0.034 0.28074 0.0
C1110 C 0.15239 0.04897 0.28507 0.0
C1111 C 0.17081 0.01407 0.26861 0.0
C1112 C 0.1595 0.00692 0.25993 0.0
C1113 C 0.18292 0.00534 0.27458 0.0
C1114 C 0.19557 0.01229 0.28323 0.0
C1115 C 0.19289 0.01953 0.29721 0.0
C1116 C 0.20493 0.02616 0.30521 0.0
C1117 C 0.21971 0.02552 0.29937 0.0
C1118 C 0.22248 0.01819 0.28555 0.0
C1119 C 0.21047 0.01155 0.27751 0.0
H1120 H 0.22902 0.03066 0.30558 0.0
H1121 H 0.1138 0.96502 0.22653 0.0
H1122 H 0.56654 0.68057 0.76427 0.0
H1123 H 0.53968 0.68329 0.75718 0.0
H1124 H 0.52703 0.65359 0.79413 0.0
H1125 H 0.55367 0.6506 0.80107 0.0
H1126 H 0.5142 0.64514 0.76695 0.0
H1127 H 0.52326 0.69383 0.79519 0.0
H1128 H 0.53576 0.71889 0.79722 0.0
H1129 H 0.51916 0.73103 0.75293 0.0
H1130 H 0.50666 0.70599 0.75062 0.0
H1131 H 0.44497 0.649 0.80037 0.0
H1132 H 0.47159 0.65211 0.79339 0.0
H1133 H 0.45885 0.68284 0.75733 0.0
H1134 H 0.43203 0.67997 0.76442 0.0
H1135 H 0.48427 0.69266 0.77237 0.0
H1136 H 0.46919 0.6484 0.74711 0.0
H1137 H 0.45635 0.62381 0.74305 0.0
H1138 H 0.48435 0.60322 0.77734 0.0
H1139 H 0.4972 0.62772 0.78181 0.0
C1140 C 0.55799 0.67478 0.77098 0.0
C1141 C 0.56219 0.66531 0.7832 0.0
C1142 C 0.54268 0.67633 0.76688 0.0
C1143 C 0.53141 0.66856 0.77507 0.0
C1144 C 0.53559 0.65955 0.78756 0.0
C1145 C 0.55081 0.65791 0.79157 0.0
C1146 C 0.51518 0.6693 0.7708 0.0
C1147 C 0.50762 0.65552 0.76808 0.0
C1148 C 0.50676 0.683 0.77115 0.0
C1149 C 0.51417 0.69802 0.77268 0.0
C1150 C 0.52235 0.70183 0.78587 0.0
C1151 C 0.52942 0.71602 0.78707 0.0
C1152 C 0.52829 0.72653 0.77519 0.0
C1153 C 0.52004 0.72288 0.76211 0.0
C1154 C 0.51296 0.7087 0.76086 0.0
C1155 C 0.44779 0.6565 0.79102 0.0
C1156 C 0.4364 0.66412 0.78288 0.0
C1157 C 0.463 0.6582 0.78698 0.0
C1158 C 0.46712 0.66741 0.7746 0.0
C1159 C 0.45586 0.67557 0.76681 0.0
C1160 C 0.44058 0.67392 0.7709 0.0
C1161 C 0.48328 0.66827 0.77009 0.0
C1162 C 0.49081 0.68232 0.77082 0.0
C1163 C 0.49174 0.65484 0.76752 0.0
C1164 C 0.48416 0.63995 0.76481 0.0
C1165 C 0.47257 0.63865 0.75385 0.0
C1166 C 0.46528 0.62472 0.75147 0.0
C1167 C 0.46953 0.61196 0.75993 0.0
C1168 C 0.48109 0.61311 0.77078 0.0
C1169 C 0.4884 0.62701 0.77322 0.0
H1170 H 0.46387 0.60119 0.75808 0.0
H1171 H 0.53378 0.73751 0.77614 0.0
H1172 H 0.86178 0.0508 0.2809 0.0
H1173 H 0.85493 0.02502 0.27362 0.0
H1174 H 0.80849 0.03914 0.26614 0.0
H1175 H 0.81523 0.06507 0.2738 0.0
H1176 H 0.80933 0.01375 0.28201 0.0
H1177 H 0.83038 0.02879 0.23539 0.0
H1178 H 0.84832 0.0412 0.21777 0.0
H1179 H 0.88404 0.01144 0.2327 0.0
H1180 H 0.86642 0.99899 0.25057 0.0
H1181 H 0.81245 0.93171 0.27297 0.0
H1182 H 0.80671 0.95802 0.26563 0.0
H1183 H 0.85284 0.97096 0.27633 0.0
H1184 H 0.85869 0.94491 0.28348 0.0
H1185 H 0.84319 0.98293 0.24908 0.0
H1186 H 0.82301 0.97649 0.30173 0.0
H1187 H 0.80517 0.96489 0.32004 0.0
H1188 H 0.76735 0.97892 0.29249 0.0
H1189 H 0.78501 0.99051 0.27397 0.0
C1190 C 0.85012 0.04846 0.27767 0.0
C1191 C 0.83905 0.05994 0.27795 0.0
C1192 C 0.84624 0.03375 0.27332 0.0
C1193 C 0.83128 0.03026 0.26893 0.0
C1194 C 0.82013 0.04166 0.26931 0.0
C1195 C 0.82399 0.05641 0.27377 0.0
C1196 C 0.82732 0.01432 0.26534 0.0
C1197 C 0.8164 0.00706 0.27443 0.0
C1198 C 0.83633 0.00562 0.25525 0.0
C1199 C 0.84702 0.01292 0.24434 0.0
C1200 C 0.84207 0.02492 0.23497 0.0
C1201 C 0.8522 0.03196 0.22493 0.0
C1202 C 0.86731 0.0271 0.22411 0.0
C1203 C 0.87232 0.01517 0.23332 0.0
C1204 C 0.86225 0.00808 0.24338 0.0
C1205 C 0.82133 0.9402 0.2738 0.0
C1206 C 0.83602 0.93627 0.27885 0.0
C1207 C 0.81804 0.95518 0.26953 0.0
C1208 C 0.82938 0.96637 0.27035 0.0
C1209 C 0.84399 0.96243 0.27544 0.0
C1210 C 0.84728 0.94755 0.27965 0.0
C1211 C 0.82627 0.98247 0.26675 0.0
C1212 C 0.8357 0.98973 0.25613 0.0
C1213 C 0.81584 0.99117 0.27533 0.0
C1214 C 0.8053 0.98417 0.28642 0.0
C1215 C 0.81089 0.977 0.29955 0.0
C1216 C 0.80082 0.97045 0.30997 0.0
C1217 C 0.78514 0.97112 0.3074 0.0
C1218 C 0.7795 0.97838 0.29444 0.0
C1219 C 0.78953 0.98494 0.28399 0.0
H1220 H 0.77736 0.96605 0.31548 0.0
H1221 H 0.87513 0.03259 0.21635 0.0
H1222 H 0.56206 0.34219 0.74488 0.0
H1223 H 0.53445 0.33957 0.74324 0.0
H1224 H 0.53388 0.31665 0.78658 0.0
H1225 H 0.56158 0.31924 0.78836 0.0
H1226 H 0.51368 0.30374 0.76537 0.0
H1227 H 0.52571 0.35246 0.78645 0.0
H1228 H 0.53796 0.37763 0.78808 0.0
H1229 H 0.51737 0.39066 0.74577 0.0
H1230 H 0.50515 0.36546 0.74379 0.0
H1231 H 0.43773 0.32269 0.78974 0.0
H1232 H 0.46503 0.31804 0.78667 0.0
H1233 H 0.46389 0.33988 0.74279 0.0
H1234 H 0.43662 0.34448 0.74568 0.0
H1235 H 0.4849 0.35223 0.76298 0.0
H1236 H 0.47073 0.30341 0.74369 0.0
H1237 H 0.45809 0.27842 0.74348 0.0
H1238 H 0.48192 0.26566 0.78412 0.0
H1239 H 0.49464 0.29066 0.78466 0.0
C1240 C 0.55611 0.33644 0.75401 0.0
C1241 C 0.564 0.33108 0.76685 0.0
C1242 C 0.54033 0.33496 0.75304 0.0
C1243 C 0.53213 0.32806 0.76486 0.0
C1244 C 0.54002 0.32203 0.77735 0.0
C1245 C 0.55582 0.3236 0.77838 0.0
C1246 C 0.51529 0.32817 0.76466 0.0
C1247 C 0.50734 0.31432 0.76499 0.0
C1248 C 0.50708 0.34198 0.76393 0.0
C1249 C 0.5147 0.35701 0.76487 0.0
C1250 C 0.52396 0.36062 0.7774 0.0
C1251 C 0.53085 0.37491 0.77841 0.0
C1252 C 0.52849 0.38572 0.767 0.0
C1253 C 0.51922 0.38226 0.75457 0.0
C1254 C 0.51231 0.36798 0.7535 0.0
C1255 C 0.44326 0.32638 0.77938 0.0
C1256 C 0.43507 0.33415 0.76805 0.0
C1257 C 0.45882 0.32358 0.77758 0.0
C1258 C 0.46642 0.32857 0.76448 0.0
C1259 C 0.45818 0.33591 0.75296 0.0
C1260 C 0.44262 0.33858 0.75467 0.0
C1261 C 0.48321 0.32781 0.76361 0.0
C1262 C 0.49119 0.3416 0.76318 0.0
C1263 C 0.49135 0.31395 0.76444 0.0
C1264 C 0.48351 0.299 0.76431 0.0
C1265 C 0.47315 0.29536 0.75269 0.0
C1266 C 0.46599 0.28116 0.75248 0.0
C1267 C 0.46913 0.27048 0.76381 0.0
C1268 C 0.47947 0.27396 0.77536 0.0
C1269 C 0.48668 0.28813 0.77561 0.0
H1270 H 0.46358 0.25949 0.76361 0.0
H1271 H 0.53381 0.39679 0.76783 0.0
H1272 H 0.17531 0.06525 0.73571 0.0
H1273 H 0.17785 0.03868 0.74372 0.0
H1274 H 0.14703 0.02513 0.708 0.0
H1275 H 0.14417 0.05154 0.70019 0.0
H1276 H 0.14007 0.01182 0.73507 0.0
H1277 H 0.18781 0.02338 0.7058 0.0
H1278 H 0.21262 0.03633 0.70334 0.0
H1279 H 0.22647 0.01861 0.74668 0.0
H1280 H 0.20168 0.00569 0.74944 0.0
H1281 H 0.14549 0.94544 0.69701 0.0
H1282 H 0.14801 0.9716 0.70581 0.0
H1283 H 0.17953 0.95722 0.74057 0.0
H1284 H 0.17731 0.93096 0.73164 0.0
H1285 H 0.18842 0.98383 0.72705 0.0
H1286 H 0.14505 0.96575 0.75209 0.0
H1287 H 0.12104 0.9516 0.75522 0.0
H1288 H 0.09918 0.98096 0.72291 0.0
H1289 H 0.1231 0.99514 0.71938 0.0
C1290 C 0.1691 0.05657 0.72955 0.0
C1291 C 0.15953 0.06044 0.71729 0.0
C1292 C 0.17057 0.04143 0.73417 0.0
C1293 C 0.16263 0.02998 0.72646 0.0
C1294 C 0.15315 0.03385 0.71419 0.0
C1295 C 0.15157 0.04893 0.70968 0.0
C1296 C 0.16409 0.01379 0.73063 0.0
C1297 C 0.15065 0.00567 0.73345 0.0
C1298 C 0.17807 0.00588 0.72962 0.0
C1299 C 0.19285 0.01377 0.72791 0.0
C1300 C 0.19611 0.02236 0.71485 0.0
C1301 C 0.21017 0.02967 0.71339 0.0
C1302 C 0.22109 0.02834 0.72487 0.0
C1303 C 0.21799 0.01967 0.73782 0.0
C1304 C 0.20394 0.01236 0.73934 0.0
C1305 C 0.15304 0.94783 0.70644 0.0
C1306 C 0.16106 0.93615 0.71371 0.0
C1307 C 0.1544 0.96275 0.71153 0.0
C1308 C 0.16365 0.96621 0.72409 0.0
C1309 C 0.17222 0.9547 0.73098 0.0
C1310 C 0.17093 0.93974 0.72583 0.0
C1311 C 0.16412 0.98197 0.72977 0.0
C1312 C 0.17791 0.98994 0.72921 0.0
C1313 C 0.15049 0.98978 0.73315 0.0
C1314 C 0.1359 0.98154 0.73549 0.0
C1315 C 0.13513 0.96918 0.74562 0.0
C1316 C 0.12153 0.96114 0.74746 0.0
C1317 C 0.10859 0.96538 0.73928 0.0
C1318 C 0.10921 0.9777 0.72927 0.0
C1319 C 0.12278 0.98578 0.72737 0.0
H1320 H 0.09808 0.95912 0.74069 0.0
H1321 H 0.23197 0.03399 0.72371 0.0
H1322 H 0.43709 0.6682 0.25118 0.0
H1323 H 0.46465 0.67144 0.25156 0.0
H1324 H 0.4643 0.6809 0.20344 0.0
H1325 H 0.4367 0.67744 0.20289 0.0
H1326 H 0.48353 0.65834 0.2105 0.0
H1327 H 0.47329 0.70852 0.2296 0.0
H1328 H 0.46193 0.72753 0.24679 0.0
H1329 H 0.48487 0.70723 0.28481 0.0
H1330 H 0.49621 0.68795 0.26789 0.0
H1331 H 0.56195 0.67201 0.20332 0.0
H1332 H 0.53456 0.67677 0.20393 0.0
H1333 H 0.53345 0.66528 0.25158 0.0
H1334 H 0.56087 0.66055 0.25113 0.0
H1335 H 0.51518 0.69018 0.24469 0.0
H1336 H 0.52317 0.63924 0.22753 0.0
H1337 H 0.53419 0.61888 0.21173 0.0
H1338 H 0.51486 0.63915 0.17173 0.0
H1339 H 0.50389 0.65977 0.18729 0.0
C1340 C 0.44283 0.6712 0.24071 0.0
C1341 C 0.43474 0.67237 0.22696 0.0
C1342 C 0.45859 0.67316 0.24098 0.0
C1343 C 0.46651 0.67645 0.22754 0.0
C1344 C 0.45838 0.67835 0.21393 0.0
C1345 C 0.44261 0.67637 0.21364 0.0
C1346 C 0.48336 0.67616 0.22733 0.0
C1347 C 0.49045 0.66557 0.21774 0.0
C1348 C 0.49233 0.68511 0.23726 0.0
C1349 C 0.4855 0.6967 0.24747 0.0
C1350 C 0.47581 0.70802 0.24164 0.0
C1351 C 0.4694 0.71887 0.25134 0.0
C1352 C 0.47265 0.71857 0.26689 0.0
C1353 C 0.48235 0.70744 0.27277 0.0
C1354 C 0.48879 0.69656 0.26312 0.0
C1355 C 0.55592 0.6706 0.21397 0.0
C1356 C 0.56354 0.66573 0.22714 0.0
C1357 C 0.54028 0.67333 0.21429 0.0
C1358 C 0.532 0.67123 0.22777 0.0
C1359 C 0.53966 0.66696 0.24108 0.0
C1360 C 0.55531 0.66418 0.24076 0.0
C1361 C 0.51523 0.67256 0.2277 0.0
C1362 C 0.5082 0.68317 0.23731 0.0
C1363 C 0.50622 0.66348 0.21796 0.0
C1364 C 0.51287 0.65115 0.20855 0.0
C1365 C 0.52139 0.63944 0.21534 0.0
C1366 C 0.5276 0.62783 0.20644 0.0
C1367 C 0.52527 0.62775 0.19073 0.0
C1368 C 0.51669 0.63925 0.1839 0.0
C1369 C 0.51046 0.6509 0.19275 0.0
H1370 H 0.53008 0.61874 0.18385 0.0
H1371 H 0.46767 0.72698 0.27437 0.0
H1372 H 0.82129 0.06592 0.73738 0.0
H1373 H 0.81603 0.03912 0.74346 0.0
H1374 H 0.839 0.02537 0.70241 0.0
H1375 H 0.84462 0.05191 0.69645 0.0
H1376 H 0.80622 0.01353 0.70967 0.0
H1377 H 0.85877 0.02118 0.72916 0.0
H1378 H 0.87745 0.03273 0.74662 0.0
H1379 H 0.85142 0.01737 0.78497 0.0
H1380 H 0.83246 0.00591 0.76769 0.0
H1381 H 0.8442 0.946 0.6956 0.0
H1382 H 0.83772 0.97226 0.70202 0.0
H1383 H 0.81407 0.95695 0.74213 0.0
H1384 H 0.82015 0.9305 0.7356 0.0
H1385 H 0.8395 0.98315 0.74366 0.0
H1386 H 0.79114 0.96948 0.72459 0.0
H1387 H 0.77297 0.95673 0.70746 0.0
H1388 H 0.78973 0.98293 0.66982 0.0
H1389 H 0.80819 0.99565 0.68667 0.0
C1390 C 0.82516 0.05716 0.72965 0.0
C1391 C 0.83332 0.06096 0.7164 0.0
C1392 C 0.8222 0.04192 0.73318 0.0
C1393 C 0.82716 0.0304 0.72336 0.0
C1394 C 0.83511 0.03419 0.71009 0.0
C1395 C 0.83832 0.04933 0.70671 0.0
C1396 C 0.82401 0.01426 0.72648 0.0
C1397 C 0.8133 0.00687 0.71727 0.0
C1398 C 0.83287 0.00573 0.73684 0.0
C1399 C 0.84405 0.01297 0.74714 0.0
C1400 C 0.8569 0.02049 0.74131 0.0
C1401 C 0.86757 0.02695 0.75117 0.0
C1402 C 0.86558 0.02586 0.76689 0.0
C1403 C 0.85291 0.01827 0.77278 0.0
C1404 C 0.8422 0.0118 0.76297 0.0
C1405 C 0.83749 0.94819 0.7057 0.0
C1406 C 0.83263 0.93622 0.71505 0.0
C1407 C 0.83382 0.96316 0.70935 0.0
C1408 C 0.82544 0.96642 0.72252 0.0
C1409 C 0.82053 0.95456 0.73192 0.0
C1410 C 0.82395 0.93951 0.72811 0.0
C1411 C 0.82227 0.98243 0.72625 0.0
C1412 C 0.83185 0.98982 0.73664 0.0
C1413 C 0.81223 0.99099 0.71714 0.0
C1414 C 0.80112 0.98346 0.70689 0.0
C1415 C 0.79105 0.97243 0.71263 0.0
C1416 C 0.78068 0.96522 0.70298 0.0
C1417 C 0.78021 0.969 0.68756 0.0
C1418 C 0.7901 0.98002 0.68177 0.0
C1419 C 0.80051 0.98725 0.69138 0.0
H1420 H 0.77217 0.96341 0.6801 0.0
H1421 H 0.87387 0.03084 0.7745 0.0
H1422 H 0.55441 0.35953 0.20806 0.0
H1423 H 0.52815 0.35503 0.21555 0.0
H1424 H 0.54083 0.31183 0.2351 0.0
H1425 H 0.56726 0.31612 0.22726 0.0
H1426 H 0.51503 0.30931 0.21938 0.0
H1427 H 0.53162 0.34076 0.25905 0.0
H1428 H 0.5449 0.36198 0.27168 0.0
H1429 H 0.51645 0.39405 0.24831 0.0
H1430 H 0.50313 0.37307 0.23537 0.0
H1431 H 0.4335 0.31719 0.23058 0.0
H1432 H 0.46015 0.31254 0.23727 0.0
H1433 H 0.47283 0.35475 0.21566 0.0
H1434 H 0.4463 0.35965 0.20931 0.0
H1435 H 0.48621 0.35158 0.24315 0.0
H1436 H 0.4765 0.31786 0.1982 0.0
H1437 H 0.46366 0.29583 0.18643 0.0
H1438 H 0.4793 0.26704 0.22264 0.0
H1439 H 0.49215 0.28894 0.23465 0.0
C1440 C 0.55164 0.34906 0.21392 0.0
C1441 C 0.56288 0.33822 0.21711 0.0
C1442 C 0.53665 0.34655 0.21833 0.0
C1443 C 0.53264 0.33328 0.22626 0.0
C1444 C 0.54375 0.32222 0.22915 0.0
C1445 C 0.55879 0.32467 0.2246 0.0
C1446 C 0.5166 0.33098 0.23076 0.0
C1447 C 0.50876 0.31836 0.22494 0.0
C1448 C 0.50846 0.34256 0.2384 0.0
C1449 C 0.51636 0.3553 0.24623 0.0
C1450 C 0.52823 0.35234 0.25655 0.0
C1451 C 0.53577 0.36434 0.26377 0.0
C1452 C 0.53152 0.37936 0.2608 0.0
C1453 C 0.51971 0.38241 0.25062 0.0
C1454 C 0.51213 0.37046 0.24337 0.0
C1455 C 0.442 0.32545 0.22722 0.0
C1456 C 0.43785 0.33879 0.21939 0.0
C1457 C 0.45719 0.32276 0.23107 0.0
C1458 C 0.46844 0.33329 0.22695 0.0
C1459 C 0.46428 0.34654 0.21907 0.0
C1460 C 0.44914 0.3493 0.21537 0.0
C1461 C 0.48468 0.33074 0.23041 0.0
C1462 C 0.49256 0.34232 0.23803 0.0
C1463 C 0.49281 0.3181 0.22467 0.0
C1464 C 0.48513 0.30503 0.21738 0.0
C1465 C 0.47712 0.30684 0.20367 0.0
C1466 C 0.46986 0.29438 0.19695 0.0
C1467 C 0.47062 0.28006 0.2038 0.0
C1468 C 0.47869 0.27815 0.21736 0.0
C1469 C 0.48597 0.29056 0.22412 0.0
H1470 H 0.46499 0.27043 0.19859 0.0
H1471 H 0.53738 0.38863 0.2664 0.0
H1472 H 0.27349 0.18445 0.06499 0.0
H1473 H 0.26967 0.18961 0.03783 0.0
H1474 H 0.26893 0.14144 0.02879 0.0
H1475 H 0.27231 0.13615 0.05591 0.0
H1476 H 0.29373 0.16861 0.01522 0.0
H1477 H 0.24144 0.1473 0.0212 0.0
H1478 H 0.21581 0.148 0.03257 0.0
H1479 H 0.20987 0.19388 0.01693 0.0
H1480 H 0.23563 0.19353 0.00573 0.0
H1481 H 0.28361 0.13864 0.94385 0.0
H1482 H 0.27889 0.14403 0.97059 0.0
H1483 H 0.26788 0.19053 0.95964 0.0
H1484 H 0.27272 0.18528 0.93261 0.0
H1485 H 0.24731 0.17154 0.98316 0.0
H1486 H 0.29714 0.19177 0.97344 0.0
H1487 H 0.32255 0.19155 0.96154 0.0
H1488 H 0.33308 0.14961 0.98424 0.0
H1489 H 0.30764 0.14949 0.99611 0.0
C1490 C 0.27231 0.17497 0.05721 0.0
C1491 C 0.27333 0.1599 0.06246 0.0
C1492 C 0.26997 0.17795 0.04179 0.0
C1493 C 0.26874 0.16589 0.03148 0.0
C1494 C 0.26949 0.15085 0.03672 0.0
C1495 C 0.27154 0.14786 0.05215 0.0
C1496 C 0.26923 0.16882 0.01505 0.0
C1497 C 0.28359 0.16938 0.00821 0.0
C1498 C 0.25598 0.1703 0.00609 0.0
C1499 C 0.24058 0.17049 0.01291 0.0
C1500 C 0.23479 0.15763 0.02042 0.0
C1501 C 0.2202 0.15793 0.02677 0.0
C1502 C 0.21125 0.17101 0.02555 0.0
C1503 C 0.21684 0.18378 0.01793 0.0
C1504 C 0.23143 0.18354 0.01159 0.0
C1505 C 0.28014 0.15001 0.94705 0.0
C1506 C 0.27869 0.16158 0.93616 0.0
C1507 C 0.27735 0.15303 0.96232 0.0
C1508 C 0.273 0.16763 0.96696 0.0
C1509 C 0.27114 0.17917 0.95615 0.0
C1510 C 0.27406 0.17619 0.9408 0.0
C1511 C 0.27183 0.17075 0.98335 0.0
C1512 C 0.25743 0.17128 0.99021 0.0
C1513 C 0.28505 0.17044 0.99244 0.0
C1514 C 0.30047 0.17059 0.98559 0.0
C1515 C 0.30485 0.18245 0.97582 0.0
C1516 C 0.31926 0.1824 0.96909 0.0
C1517 C 0.32942 0.17056 0.97212 0.0
C1518 C 0.3252 0.15878 0.98192 0.0
C1519 C 0.3108 0.15878 0.98867 0.0
H1520 H 0.34056 0.17053 0.96689 0.0
H1521 H 0.19995 0.17121 0.03045 0.0
H1522 H 0.2539 0.85011 0.05806 0.0
H1523 H 0.25225 0.84452 0.031 0.0
H1524 H 0.28467 0.80803 0.03645 0.0
H1525 H 0.28687 0.81407 0.06355 0.0
H1526 H 0.29241 0.8248 0.01369 0.0
H1527 H 0.24552 0.80161 0.02848 0.0
H1528 H 0.22063 0.80006 0.04134 0.0
H1529 H 0.2042 0.83755 0.01471 0.0
H1530 H 0.22904 0.83947 0.00184 0.0
H1531 H 0.28636 0.81235 0.93445 0.0
H1532 H 0.28439 0.80707 0.9617 0.0
H1533 H 0.25274 0.84428 0.96661 0.0
H1534 H 0.25421 0.84921 0.93936 0.0
H1535 H 0.24439 0.82159 0.98423 0.0
H1536 H 0.29182 0.84828 0.97417 0.0
H1537 H 0.31683 0.8517 0.96188 0.0
H1538 H 0.33191 0.80898 0.98012 0.0
H1539 H 0.30693 0.80527 0.99242 0.0
C1540 C 0.26056 0.84079 0.05353 0.0
C1541 C 0.27056 0.83256 0.06287 0.0
C1542 C 0.2595 0.8375 0.03807 0.0
C1543 C 0.26812 0.82565 0.03172 0.0
C1544 C 0.27787 0.81718 0.04112 0.0
C1545 C 0.27914 0.82066 0.05657 0.0
C1546 C 0.26797 0.82314 0.01505 0.0
C1547 C 0.28191 0.82369 0.0073 0.0
C1548 C 0.25426 0.82202 0.00666 0.0
C1549 C 0.23919 0.82072 0.01422 0.0
C1550 C 0.23663 0.80957 0.02541 0.0
C1551 C 0.22252 0.80862 0.0327 0.0
C1552 C 0.21085 0.81871 0.02885 0.0
C1553 C 0.21325 0.82974 0.01767 0.0
C1554 C 0.22733 0.83074 0.01035 0.0
C1555 C 0.27891 0.81932 0.94135 0.0
C1556 C 0.27057 0.8313 0.93484 0.0
C1557 C 0.2778 0.8163 0.9569 0.0
C1558 C 0.26861 0.82544 0.96623 0.0
C1559 C 0.25988 0.83706 0.95963 0.0
C1560 C 0.2608 0.83992 0.94407 0.0
C1561 C 0.26877 0.82367 0.98299 0.0
C1562 C 0.25486 0.82231 0.99072 0.0
C1563 C 0.28248 0.82419 0.99141 0.0
C1564 C 0.29749 0.82643 0.98406 0.0
C1565 C 0.30045 0.83959 0.97548 0.0
C1566 C 0.31462 0.84158 0.96853 0.0
C1567 C 0.32594 0.83054 0.97018 0.0
C1568 C 0.32313 0.81751 0.97883 0.0
C1569 C 0.30898 0.81546 0.9858 0.0
H1570 H 0.33689 0.8321 0.96479 0.0
H1571 H 0.19995 0.81797 0.03453 0.0
H1572 H 0.68398 0.76877 0.56573 0.0
H1573 H 0.68811 0.76036 0.53944 0.0
H1574 H 0.64673 0.78304 0.52586 0.0
H1575 H 0.64239 0.79112 0.55194 0.0
H1576 H 0.6484 0.75468 0.51412 0.0
H1577 H 0.6841 0.79856 0.52099 0.0
H1578 H 0.70688 0.81012 0.53267 0.0
H1579 H 0.73394 0.77214 0.51815 0.0
H1580 H 0.71128 0.76033 0.50649 0.0
H1581 H 0.64027 0.78878 0.44553 0.0
H1582 H 0.64505 0.78121 0.47168 0.0
H1583 H 0.68685 0.75936 0.45807 0.0
H1584 H 0.68228 0.76726 0.4317 0.0
H1585 H 0.69091 0.77547 0.48342 0.0
H1586 H 0.65687 0.73712 0.46869 0.0
H1587 H 0.63453 0.72563 0.45621 0.0
H1588 H 0.60476 0.7512 0.48524 0.0
H1589 H 0.62687 0.76304 0.49774 0.0
C1590 C 0.67583 0.77201 0.55709 0.0
C1591 C 0.66285 0.78062 0.56086 0.0
C1592 C 0.67819 0.76716 0.54211 0.0
C1593 C 0.6677 0.77103 0.53072 0.0
C1594 C 0.65488 0.77977 0.53451 0.0
C1595 C 0.65245 0.78447 0.54941 0.0
C1596 C 0.66983 0.76652 0.51467 0.0
C1597 C 0.65773 0.7591 0.50737 0.0
C1598 C 0.68249 0.77138 0.50601 0.0
C1599 C 0.69601 0.7785 0.51305 0.0
C1600 C 0.6949 0.79265 0.52038 0.0
C1601 C 0.70778 0.79925 0.52698 0.0
C1602 C 0.72184 0.79185 0.5262 0.0
C1603 C 0.72305 0.77785 0.51878 0.0
C1604 C 0.71019 0.7712 0.51218 0.0
C1605 C 0.65047 0.78235 0.44806 0.0
C1606 C 0.66087 0.77858 0.43657 0.0
C1607 C 0.65313 0.7779 0.463 0.0
C1608 C 0.6661 0.76935 0.46674 0.0
C1609 C 0.67669 0.76579 0.45537 0.0
C1610 C 0.67409 0.77037 0.44036 0.0
C1611 C 0.6687 0.76507 0.4828 0.0
C1612 C 0.6818 0.77052 0.49011 0.0
C1613 C 0.65701 0.75824 0.49149 0.0
C1614 C 0.64359 0.75096 0.48419 0.0
C1615 C 0.64556 0.74034 0.47239 0.0
C1616 C 0.63293 0.73376 0.46531 0.0
C1617 C 0.61824 0.73768 0.46994 0.0
C1618 C 0.61615 0.74815 0.48169 0.0
C1619 C 0.62874 0.75477 0.48881 0.0
H1620 H 0.60848 0.73259 0.46442 0.0
H1621 H 0.7318 0.79698 0.53131 0.0
H1622 H 0.73359 0.18129 0.06638 0.0
H1623 H 0.7409 0.18533 0.03976 0.0
H1624 H 0.71204 0.14796 0.02633 0.0
H1625 H 0.70492 0.14372 0.05272 0.0
H1626 H 0.7404 0.14623 0.0136 0.0
H1627 H 0.70141 0.18672 0.02302 0.0
H1628 H 0.69321 0.21047 0.03555 0.0
H1629 H 0.73347 0.23308 0.01957 0.0
H1630 H 0.74193 0.20942 0.00705 0.0
H1631 H 0.70398 0.1431 0.946 0.0
H1632 H 0.71195 0.14715 0.97218 0.0
H1633 H 0.73894 0.18574 0.95834 0.0
H1634 H 0.73073 0.18191 0.93195 0.0
H1635 H 0.72361 0.19149 0.98441 0.0
H1636 H 0.75751 0.15379 0.9679 0.0
H1637 H 0.76621 0.13065 0.9547 0.0
H1638 H 0.73822 0.10319 0.98379 0.0
H1639 H 0.72916 0.12615 0.99702 0.0
C1640 C 0.72876 0.174 0.05771 0.0
C1641 C 0.71869 0.16215 0.06162 0.0
C1642 C 0.73297 0.17632 0.04254 0.0
C1643 C 0.72706 0.1669 0.03112 0.0
C1644 C 0.71686 0.15526 0.03502 0.0
C1645 C 0.71273 0.15289 0.0501 0.0
C1646 C 0.73114 0.16885 0.01494 0.0
C1647 C 0.73684 0.15615 0.00717 0.0
C1648 C 0.72749 0.18217 0.00671 0.0
C1649 C 0.72237 0.19629 0.01428 0.0
C1650 C 0.70855 0.19674 0.02228 0.0
C1651 C 0.70385 0.21018 0.02935 0.0
C1652 C 0.71284 0.22326 0.0284 0.0
C1653 C 0.72653 0.22293 0.02033 0.0
C1654 C 0.73128 0.20952 0.01324 0.0
C1655 C 0.71155 0.15249 0.9485 0.0
C1656 C 0.71679 0.16212 0.93692 0.0
C1657 C 0.71621 0.15473 0.96344 0.0
C1658 C 0.72638 0.16649 0.9671 0.0
C1659 C 0.73124 0.17649 0.95569 0.0
C1660 C 0.72648 0.17432 0.94067 0.0
C1661 C 0.73136 0.16827 0.98305 0.0
C1662 C 0.72769 0.18174 0.99077 0.0
C1663 C 0.73711 0.1557 0.99128 0.0
C1664 C 0.74265 0.14175 0.98348 0.0
C1665 C 0.75315 0.14283 0.97145 0.0
C1666 C 0.75816 0.12973 0.96396 0.0
C1667 C 0.75278 0.11546 0.96841 0.0
C1668 C 0.74241 0.11425 0.98038 0.0
C1669 C 0.73736 0.12731 0.98791 0.0
H1670 H 0.75665 0.10533 0.96258 0.0
H1671 H 0.70917 0.23365 0.03388 0.0
H1672 H 0.32718 0.20463 0.56103 0.0
H1673 H 0.32379 0.20564 0.53349 0.0
H1674 H 0.33132 0.2541 0.53412 0.0
H1675 H 0.33481 0.25323 0.56172 0.0
H1676 H 0.30733 0.24429 0.51398 0.0
H1677 H 0.35965 0.23478 0.52504 0.0
H1678 H 0.38142 0.22212 0.53737 0.0
H1679 H 0.36861 0.17966 0.51695 0.0
H1680 H 0.34659 0.19203 0.50469 0.0
H1681 H 0.33191 0.25044 0.43576 0.0
H1682 H 0.32835 0.25219 0.46328 0.0
H1683 H 0.32244 0.20355 0.46568 0.0
H1684 H 0.32595 0.20167 0.43819 0.0
H1685 H 0.34532 0.21484 0.4844 0.0
H1686 H 0.29303 0.22563 0.4723 0.0
H1687 H 0.27191 0.23932 0.45994 0.0
H1688 H 0.28562 0.28076 0.4818 0.0
H1689 H 0.30698 0.26737 0.49413 0.0
C1690 C 0.32796 0.21553 0.55535 0.0
C1691 C 0.33146 0.22882 0.5635 0.0
C1692 C 0.32601 0.21609 0.53964 0.0
C1693 C 0.32743 0.22992 0.53184 0.0
C1694 C 0.33018 0.24333 0.53999 0.0
C1695 C 0.33226 0.24278 0.55572 0.0
C1696 C 0.32726 0.23009 0.51508 0.0
C1697 C 0.3157 0.23801 0.50745 0.0
C1698 C 0.33817 0.22181 0.50669 0.0
C1699 C 0.35136 0.2143 0.5141 0.0
C1700 C 0.36137 0.22271 0.52331 0.0
C1701 C 0.37378 0.2156 0.53026 0.0
C1702 C 0.37637 0.20009 0.52798 0.0
C1703 C 0.36657 0.19167 0.51873 0.0
C1704 C 0.35412 0.19873 0.51177 0.0
C1705 C 0.32967 0.24013 0.44212 0.0
C1706 C 0.32941 0.22588 0.43485 0.0
C1707 C 0.32753 0.24118 0.45781 0.0
C1708 C 0.32513 0.228 0.46645 0.0
C1709 C 0.32428 0.21384 0.45915 0.0
C1710 C 0.32631 0.21279 0.44346 0.0
C1711 C 0.32516 0.22872 0.4832 0.0
C1712 C 0.33686 0.22107 0.49087 0.0
C1713 C 0.31448 0.23741 0.49153 0.0
C1714 C 0.30173 0.24552 0.48401 0.0
C1715 C 0.29166 0.2377 0.47434 0.0
C1716 C 0.27961 0.2454 0.46737 0.0
C1717 C 0.27745 0.26091 0.47004 0.0
C1718 C 0.28732 0.26875 0.47972 0.0
C1719 C 0.2994 0.26111 0.48671 0.0
H1720 H 0.26811 0.26684 0.46465 0.0
H1721 H 0.38599 0.1946 0.53335 0.0
H1722 H 0.7507 0.84116 0.06213 0.0
H1723 H 0.75324 0.83738 0.03479 0.0
H1724 H 0.70878 0.81668 0.03333 0.0
H1725 H 0.70611 0.8204 0.06082 0.0
H1726 H 0.73044 0.80214 0.01422 0.0
H1727 H 0.71091 0.85219 0.02451 0.0
H1728 H 0.7105 0.87747 0.03663 0.0
H1729 H 0.75412 0.88777 0.0172 0.0
H1730 H 0.75488 0.86244 0.00513 0.0
H1731 H 0.70852 0.81908 0.93754 0.0
H1732 H 0.71105 0.81525 0.96497 0.0
H1733 H 0.75511 0.83683 0.96404 0.0
H1734 H 0.75273 0.84067 0.93664 0.0
H1735 H 0.73529 0.84983 0.98443 0.0
H1736 H 0.75328 0.80031 0.9717 0.0
H1737 H 0.75288 0.77524 0.95919 0.0
H1738 H 0.71153 0.76391 0.98258 0.0
H1739 H 0.71153 0.78903 0.99505 0.0
C1740 C 0.7415 0.83567 0.05606 0.0
C1741 C 0.7281 0.83128 0.06362 0.0
C1742 C 0.743 0.83349 0.04043 0.0
C1743 C 0.73114 0.8269 0.03205 0.0
C1744 C 0.71805 0.8218 0.03963 0.0
C1745 C 0.71651 0.82402 0.05531 0.0
C1746 C 0.7319 0.82656 0.01526 0.0
C1747 C 0.73136 0.81254 0.00765 0.0
C1748 C 0.73341 0.84014 0.00678 0.0
C1749 C 0.73303 0.85535 0.01408 0.0
C1750 C 0.72048 0.85979 0.02295 0.0
C1751 C 0.72017 0.87413 0.02978 0.0
C1752 C 0.7323 0.8842 0.02773 0.0
C1753 C 0.74475 0.87994 0.01881 0.0
C1754 C 0.74512 0.8656 0.01196 0.0
C1755 C 0.71883 0.82283 0.94314 0.0
C1756 C 0.73034 0.83035 0.93496 0.0
C1757 C 0.7203 0.82053 0.95879 0.0
C1758 C 0.73328 0.82573 0.9665 0.0
C1759 C 0.74502 0.83273 0.95827 0.0
C1760 C 0.74361 0.83493 0.94262 0.0
C1761 C 0.73384 0.8254 0.9833 0.0
C1762 C 0.73454 0.83937 0.99094 0.0
C1763 C 0.7324 0.81177 0.99172 0.0
C1764 C 0.73233 0.79664 0.9842 0.0
C1765 C 0.74401 0.79255 0.97407 0.0
C1766 C 0.74388 0.7783 0.967 0.0
C1767 C 0.73217 0.768 0.97006 0.0
C1768 C 0.72058 0.77191 0.98021 0.0
C1769 C 0.72065 0.78615 0.98729 0.0
H1770 H 0.73209 0.75698 0.96459 0.0
H1771 H 0.73203 0.89531 0.03301 0.0
H1772 H 0.68439 0.2124 0.5631 0.0
H1773 H 0.68992 0.21491 0.53578 0.0
H1774 H 0.65176 0.2453 0.53085 0.0
H1775 H 0.64623 0.24301 0.55779 0.0
H1776 H 0.65069 0.21789 0.51355 0.0
H1777 H 0.68291 0.2599 0.52537 0.0
H1778 H 0.70417 0.27357 0.53746 0.0
H1779 H 0.73614 0.24395 0.51545 0.0
H1780 H 0.71503 0.22989 0.50343 0.0
H1781 H 0.64795 0.24247 0.4387 0.0
H1782 H 0.65254 0.24415 0.46594 0.0
H1783 H 0.68908 0.21169 0.46207 0.0
H1784 H 0.68451 0.20983 0.43455 0.0
H1785 H 0.69366 0.239 0.48366 0.0
H1786 H 0.65958 0.19677 0.47243 0.0
H1787 H 0.6373 0.1851 0.45998 0.0
H1788 H 0.60793 0.21784 0.48122 0.0
H1789 H 0.63008 0.22982 0.49364 0.0
C1790 C 0.67735 0.21978 0.55621 0.0
C1791 C 0.66472 0.22729 0.56256 0.0
C1792 C 0.6806 0.22131 0.54067 0.0
C1793 C 0.67122 0.23029 0.53138 0.0
C1794 C 0.65914 0.23836 0.53788 0.0
C1795 C 0.65595 0.23693 0.55329 0.0
C1796 C 0.67226 0.22947 0.51466 0.0
C1797 C 0.66009 0.22254 0.50704 0.0
C1798 C 0.68463 0.23539 0.50625 0.0
C1799 C 0.69735 0.24364 0.51371 0.0
C1800 C 0.69445 0.25612 0.52329 0.0
C1801 C 0.70648 0.26399 0.53009 0.0
C1802 C 0.72149 0.25959 0.52729 0.0
C1803 C 0.7245 0.24732 0.51766 0.0
C1804 C 0.7125 0.23938 0.51085 0.0
C1805 C 0.65711 0.23581 0.44354 0.0
C1806 C 0.66579 0.2259 0.43448 0.0
C1807 C 0.65975 0.23685 0.45911 0.0
C1808 C 0.67115 0.22806 0.46596 0.0
C1809 C 0.6803 0.21863 0.45692 0.0
C1810 C 0.67758 0.21747 0.44127 0.0
C1811 C 0.67205 0.22748 0.48271 0.0
C1812 C 0.68446 0.23413 0.49028 0.0
C1813 C 0.65982 0.2215 0.49122 0.0
C1814 C 0.64649 0.21425 0.48385 0.0
C1815 C 0.64838 0.20154 0.47435 0.0
C1816 C 0.63578 0.19486 0.46732 0.0
C1817 C 0.62121 0.20074 0.46978 0.0
C1818 C 0.61922 0.2133 0.47931 0.0
C1819 C 0.63179 0.22002 0.48636 0.0
H1820 H 0.61147 0.19556 0.46433 0.0
H1821 H 0.73079 0.26571 0.53254 0.0
H1822 H 0.35029 0.75305 0.4403 0.0
H1823 H 0.34425 0.75152 0.46726 0.0
H1824 H 0.30964 0.7859 0.4616 0.0
H1825 H 0.3161 0.78791 0.43458 0.0
H1826 H 0.32661 0.79241 0.48475 0.0
H1827 H 0.30068 0.74735 0.46914 0.0
H1828 H 0.29758 0.72282 0.45591 0.0
H1829 H 0.33382 0.70363 0.48242 0.0
H1830 H 0.33728 0.72808 0.49568 0.0
H1831 H 0.31313 0.78554 0.56388 0.0
H1832 H 0.30802 0.78446 0.53656 0.0
H1833 H 0.34367 0.75114 0.53122 0.0
H1834 H 0.3485 0.7518 0.55852 0.0
H1835 H 0.32036 0.74426 0.51346 0.0
H1836 H 0.34977 0.78981 0.52443 0.0
H1837 H 0.35479 0.81447 0.53683 0.0
H1838 H 0.31328 0.83245 0.51838 0.0
H1839 H 0.30797 0.80783 0.50597 0.0
C1840 C 0.3413 0.7602 0.44476 0.0
C1841 C 0.33371 0.77065 0.43538 0.0
C1842 C 0.33774 0.7592 0.46016 0.0
C1843 C 0.32627 0.76837 0.46641 0.0
C1844 C 0.31848 0.77865 0.45699 0.0
C1845 C 0.32221 0.77983 0.4416 0.0
C1846 C 0.32349 0.76816 0.48302 0.0
C1847 C 0.32482 0.78191 0.49099 0.0
C1848 C 0.32148 0.75442 0.49119 0.0
C1849 C 0.31927 0.7396 0.48338 0.0
C1850 C 0.30803 0.73792 0.47211 0.0
C1851 C 0.30621 0.72403 0.4646 0.0
C1852 C 0.3155 0.71168 0.46831 0.0
C1853 C 0.32662 0.71319 0.47956 0.0
C1854 C 0.32849 0.72706 0.4871 0.0
C1855 C 0.31979 0.7779 0.55689 0.0
C1856 C 0.33132 0.76887 0.5633 0.0
C1857 C 0.31686 0.77731 0.54129 0.0
C1858 C 0.32562 0.76789 0.53183 0.0
C1859 C 0.33676 0.75848 0.53831 0.0
C1860 C 0.33956 0.75892 0.55391 0.0
C1861 C 0.32393 0.76843 0.51508 0.0
C1862 C 0.32174 0.75476 0.50714 0.0
C1863 C 0.32528 0.78221 0.50689 0.0
C1864 C 0.32839 0.79695 0.51445 0.0
C1865 C 0.34166 0.79899 0.52313 0.0
C1866 C 0.34457 0.81296 0.53013 0.0
C1867 C 0.33433 0.825 0.52844 0.0
C1868 C 0.32118 0.82311 0.51971 0.0
C1869 C 0.31822 0.80915 0.51268 0.0
H1870 H 0.33661 0.83582 0.53385 0.0
H1871 H 0.31409 0.70094 0.46247 0.0
H1872 H 0.16858 0.37207 0.3126 0.0
H1873 H 0.15235 0.36591 0.2906 0.0
H1874 H 0.19232 0.35531 0.2642 0.0
H1875 H 0.20843 0.36091 0.28625 0.0
H1876 H 0.16732 0.37163 0.2478 0.0
H1877 H 0.17946 0.32685 0.27769 0.0
H1878 H 0.18153 0.31278 0.30186 0.0
H1879 H 0.13365 0.31868 0.30961 0.0
H1880 H 0.13136 0.33296 0.28551 0.0
H1881 H 0.16074 0.31275 0.1959 0.0
H1882 H 0.16623 0.32958 0.21707 0.0
H1883 H 0.1192 0.32792 0.23095 0.0
H1884 H 0.11348 0.31087 0.20948 0.0
H1885 H 0.14145 0.32188 0.25459 0.0
H1886 H 0.13072 0.36031 0.21756 0.0
H1887 H 0.13219 0.37174 0.19201 0.0
H1888 H 0.18067 0.3759 0.19638 0.0
H1889 H 0.17952 0.36433 0.22189 0.0
C1890 C 0.17383 0.36879 0.30195 0.0
C1891 C 0.18965 0.36693 0.30097 0.0
C1892 C 0.16461 0.36529 0.28945 0.0
C1893 C 0.17119 0.36022 0.27581 0.0
C1894 C 0.18707 0.35936 0.27458 0.0
C1895 C 0.19623 0.36247 0.28715 0.0
C1896 C 0.16168 0.35377 0.26354 0.0
C1897 C 0.16148 0.36087 0.24928 0.0
C1898 C 0.15406 0.33976 0.26556 0.0
C1899 C 0.15527 0.33111 0.27994 0.0
C1900 C 0.1694 0.32524 0.28462 0.0
C1901 C 0.17061 0.31722 0.29828 0.0
C1902 C 0.15773 0.31488 0.30729 0.0
C1903 C 0.14361 0.32053 0.30263 0.0
C1904 C 0.14235 0.32859 0.28897 0.0
C1905 C 0.15147 0.31599 0.20335 0.0
C1906 C 0.13666 0.31042 0.20101 0.0
C1907 C 0.15464 0.32571 0.2154 0.0
C1908 C 0.1431 0.33012 0.22546 0.0
C1909 C 0.12823 0.32471 0.22321 0.0
C1910 C 0.12499 0.31502 0.21095 0.0
C1911 C 0.14715 0.33966 0.23872 0.0
C1912 C 0.14657 0.33303 0.25321 0.0
C1913 C 0.15431 0.35396 0.23679 0.0
C1914 C 0.15502 0.36144 0.22166 0.0
C1915 C 0.1417 0.36364 0.21307 0.0
C1916 C 0.14248 0.37014 0.19859 0.0
C1917 C 0.15652 0.37455 0.19258 0.0
C1918 C 0.1698 0.37251 0.20107 0.0
C1919 C 0.16908 0.36603 0.21556 0.0
H1920 H 0.1571 0.37953 0.18134 0.0
H1921 H 0.15869 0.30866 0.31787 0.0
H1922 H 0.1567 0.70307 0.79553 0.0
H1923 H 0.16239 0.689 0.77251 0.0
H1924 H 0.12197 0.66189 0.77874 0.0
H1925 H 0.11604 0.67618 0.80211 0.0
H1926 H 0.14896 0.64485 0.77349 0.0
H1927 H 0.12223 0.68569 0.74938 0.0
H1928 H 0.11514 0.71222 0.74366 0.0
H1929 H 0.16105 0.72183 0.73003 0.0
H1930 H 0.16847 0.69543 0.73583 0.0
H1931 H 0.17523 0.61614 0.69844 0.0
H1932 H 0.15964 0.6238 0.72044 0.0
H1933 H 0.1907 0.66069 0.72944 0.0
H1934 H 0.20607 0.65328 0.70769 0.0
H1935 H 0.16093 0.66991 0.72445 0.0
H1936 H 0.18913 0.63272 0.7536 0.0
H1937 H 0.19833 0.60733 0.76117 0.0
H1938 H 0.15226 0.59202 0.76665 0.0
H1939 H 0.14279 0.61729 0.75894 0.0
C1940 C 0.14893 0.69416 0.79205 0.0
C1941 C 0.13598 0.69064 0.80075 0.0
C1942 C 0.15214 0.68623 0.77876 0.0
C1943 C 0.14253 0.67452 0.77382 0.0
C1944 C 0.12947 0.67098 0.78234 0.0
C1945 C 0.1261 0.67913 0.79565 0.0
C1946 C 0.14709 0.66545 0.76038 0.0
C1947 C 0.15116 0.65016 0.76258 0.0
C1948 C 0.15027 0.67254 0.7463 0.0
C1949 C 0.1459 0.68855 0.74309 0.0
C1950 C 0.13084 0.69348 0.74529 0.0
C1951 C 0.12676 0.7085 0.74199 0.0
C1952 C 0.13764 0.7187 0.73649 0.0
C1953 C 0.15263 0.71391 0.73428 0.0
C1954 C 0.15677 0.69892 0.73754 0.0
C1955 C 0.17885 0.62568 0.70534 0.0
C1956 C 0.19167 0.63433 0.70118 0.0
C1957 C 0.16996 0.63002 0.71788 0.0
C1958 C 0.17393 0.64293 0.72641 0.0
C1959 C 0.18734 0.65081 0.72288 0.0
C1960 C 0.19609 0.64658 0.71041 0.0
C1961 C 0.16351 0.64959 0.73784 0.0
C1962 C 0.15827 0.66443 0.73518 0.0
C1963 C 0.15959 0.64219 0.75156 0.0
C1964 C 0.16525 0.6268 0.75539 0.0
C1965 C 0.18096 0.62386 0.75615 0.0
C1966 C 0.18622 0.60952 0.76055 0.0
C1967 C 0.17589 0.59804 0.76431 0.0
C1968 C 0.16026 0.60089 0.76367 0.0
C1969 C 0.15494 0.61522 0.75928 0.0
H1970 H 0.17999 0.58697 0.76778 0.0
H1971 H 0.13445 0.73031 0.73393 0.0
H1972 H 0.83151 0.64057 0.31535 0.0
H1973 H 0.8463 0.64806 0.29297 0.0
H1974 H 0.81143 0.62959 0.26378 0.0
H1975 H 0.79687 0.62162 0.28627 0.0
H1976 H 0.84012 0.627 0.25073 0.0
H1977 H 0.80863 0.66551 0.27249 0.0
H1978 H 0.79808 0.68081 0.29349 0.0
H1979 H 0.84255 0.69858 0.30317 0.0
H1980 H 0.85339 0.68323 0.28229 0.0
H1981 H 0.83816 0.68196 0.19097 0.0
H1982 H 0.83242 0.66655 0.21333 0.0
H1983 H 0.87608 0.67789 0.23257 0.0
H1984 H 0.88215 0.69315 0.20987 0.0
H1985 H 0.8459 0.6832 0.25101 0.0
H1986 H 0.87571 0.6452 0.22455 0.0
H1987 H 0.88267 0.63091 0.20145 0.0
H1988 H 0.83719 0.61334 0.19835 0.0
H1989 H 0.82992 0.62766 0.22136 0.0
C1990 C 0.82733 0.63764 0.30414 0.0
C1991 C 0.81318 0.63051 0.3024 0.0
C1992 C 0.83572 0.64195 0.29139 0.0
C1993 C 0.82984 0.6396 0.27673 0.0
C1994 C 0.81619 0.63146 0.27498 0.0
C1995 C 0.80789 0.62692 0.28779 0.0
C1996 C 0.83672 0.64759 0.26357 0.0
C1997 C 0.84143 0.63926 0.2508 0.0
C1998 C 0.8383 0.66362 0.26361 0.0
C1999 C 0.83184 0.67314 0.27594 0.0
C2000 C 0.81616 0.67264 0.27915 0.0
C2001 C 0.81013 0.68131 0.29101 0.0
C2002 C 0.81964 0.69063 0.29968 0.0
C2003 C 0.8352 0.69134 0.29645 0.0
C2004 C 0.8413 0.68267 0.28459 0.0
C2005 C 0.84662 0.68108 0.19989 0.0
C2006 C 0.8606 0.68876 0.19872 0.0
C2007 C 0.84333 0.67224 0.21261 0.0
C2008 C 0.85384 0.67111 0.22451 0.0
C2009 C 0.86788 0.67864 0.22341 0.0
C2010 C 0.87134 0.68726 0.21047 0.0
C2011 C 0.8496 0.66259 0.23834 0.0
C2012 C 0.84506 0.67089 0.25115 0.0
C2013 C 0.84781 0.64662 0.23813 0.0
C2014 C 0.85227 0.63754 0.22464 0.0
C2015 C 0.86718 0.63832 0.21891 0.0
C2016 C 0.87118 0.63022 0.20584 0.0
C2017 C 0.86037 0.62124 0.19843 0.0
C2018 C 0.84556 0.62029 0.20412 0.0
C2019 C 0.8415 0.62836 0.2172 0.0
H2020 H 0.86348 0.615 0.18828 0.0
H2021 H 0.81496 0.69733 0.30888 0.0
H2022 H 0.84034 0.31631 0.80705 0.0
H2023 H 0.83422 0.33047 0.7841 0.0
H2024 H 0.87848 0.32015 0.76563 0.0
H2025 H 0.88485 0.30592 0.78895 0.0
H2026 H 0.86555 0.35217 0.76023 0.0
H2027 H 0.85377 0.29893 0.75231 0.0
H2028 H 0.84339 0.27404 0.76015 0.0
H2029 H 0.79926 0.29408 0.76621 0.0
H2030 H 0.80939 0.31909 0.7585 0.0
H2031 H 0.83288 0.36855 0.68549 0.0
H2032 H 0.84794 0.35994 0.70745 0.0
H2033 H 0.80659 0.35421 0.73331 0.0
H2034 H 0.79166 0.36238 0.71134 0.0
H2035 H 0.82237 0.3287 0.73245 0.0
H2036 H 0.83329 0.38149 0.74303 0.0
H2037 H 0.84258 0.40728 0.73708 0.0
H2038 H 0.88695 0.38934 0.72731 0.0
H2039 H 0.87788 0.3634 0.73311 0.0
C2040 C 0.84888 0.31717 0.79821 0.0
C2041 C 0.863 0.30984 0.79969 0.0
C2042 C 0.84538 0.32533 0.78514 0.0
C2043 C 0.85583 0.32619 0.77315 0.0
C2044 C 0.8703 0.31961 0.77482 0.0
C2045 C 0.8739 0.31149 0.78809 0.0
C2046 C 0.85073 0.33275 0.75855 0.0
C2047 C 0.85636 0.34693 0.75387 0.0
C2048 C 0.83855 0.32599 0.75053 0.0
C2049 C 0.83235 0.31088 0.75486 0.0
C2050 C 0.84186 0.29803 0.75536 0.0
C2051 C 0.83602 0.2839 0.75977 0.0
C2052 C 0.82068 0.28249 0.76369 0.0
C2053 C 0.81113 0.29519 0.76315 0.0
C2054 C 0.81691 0.30933 0.75872 0.0
C2055 C 0.82715 0.36592 0.69607 0.0
C2056 C 0.81121 0.36617 0.6969 0.0
C2057 C 0.83572 0.36099 0.70857 0.0
C2058 C 0.82838 0.35635 0.722 0.0
C2059 C 0.81248 0.35764 0.72305 0.0
C2060 C 0.80397 0.3624 0.71057 0.0
C2061 C 0.8368 0.34845 0.7343 0.0
C2062 C 0.83178 0.3339 0.73852 0.0
C2063 C 0.84942 0.35497 0.7419 0.0
C2064 C 0.85487 0.3705 0.73833 0.0
C2065 C 0.845 0.38303 0.73948 0.0
C2066 C 0.85023 0.39768 0.73618 0.0
C2067 C 0.86533 0.39994 0.73177 0.0
C2068 C 0.87525 0.38756 0.73071 0.0
C2069 C 0.87008 0.37289 0.73402 0.0
H2070 H 0.86936 0.41129 0.72922 0.0
H2071 H 0.81618 0.27157 0.76714 0.0
H2072 H 0.28534 0.20743 0.35246 0.0
H2073 H 0.26224 0.19318 0.34685 0.0
H2074 H 0.27802 0.15623 0.37502 0.0
H2075 H 0.30126 0.17072 0.38093 0.0
H2076 H 0.27166 0.14854 0.34431 0.0
H2077 H 0.24574 0.17319 0.38563 0.0
H2078 H 0.2375 0.19479 0.40154 0.0
H2079 H 0.21632 0.21564 0.36281 0.0
H2080 H 0.2245 0.19426 0.34665 0.0
H2081 H 0.20032 0.11478 0.31574 0.0
H2082 H 0.2218 0.12194 0.33219 0.0
H2083 H 0.21983 0.16774 0.31478 0.0
H2084 H 0.19868 0.16083 0.29845 0.0
H2085 H 0.21803 0.16584 0.34636 0.0
H2086 H 0.24772 0.14766 0.30445 0.0
H2087 H 0.25839 0.12993 0.28556 0.0
H2088 H 0.27452 0.10098 0.32142 0.0
H2089 H 0.26373 0.11846 0.34055 0.0
C2090 C 0.28374 0.1964 0.35772 0.0
C2091 C 0.2951 0.19006 0.36697 0.0
C2092 C 0.27048 0.18833 0.35463 0.0
C2093 C 0.2684 0.1737 0.36059 0.0
C2094 C 0.27941 0.16757 0.37042 0.0
C2095 C 0.29262 0.17582 0.37378 0.0
C2096 C 0.25589 0.16424 0.35454 0.0
C2097 C 0.25982 0.15194 0.34515 0.0
C2098 C 0.2406 0.16914 0.35523 0.0
C2099 C 0.23578 0.18211 0.36492 0.0
C2100 C 0.23941 0.18243 0.38049 0.0
C2101 C 0.23472 0.19462 0.38955 0.0
C2102 C 0.2264 0.20658 0.38319 0.0
C2103 C 0.22274 0.20636 0.36774 0.0
C2104 C 0.22736 0.19419 0.35863 0.0
C2105 C 0.20456 0.12634 0.31535 0.0
C2106 C 0.19758 0.1373 0.30598 0.0
C2107 C 0.21685 0.13037 0.32469 0.0
C2108 C 0.22225 0.14539 0.32476 0.0
C2109 C 0.2157 0.15612 0.31499 0.0
C2110 C 0.20355 0.15214 0.30568 0.0
C2111 C 0.2339 0.15053 0.33571 0.0
C2112 C 0.22976 0.16201 0.34599 0.0
C2113 C 0.24909 0.14526 0.3354 0.0
C2114 C 0.25457 0.13418 0.32393 0.0
C2115 C 0.25323 0.13734 0.30831 0.0
C2116 C 0.2594 0.12739 0.29756 0.0
C2117 C 0.26704 0.11428 0.30228 0.0
C2118 C 0.26851 0.11109 0.31777 0.0
C2119 C 0.26235 0.12101 0.32857 0.0
H2120 H 0.27189 0.10665 0.29394 0.0
H2121 H 0.22279 0.21601 0.39022 0.0
H2122 H 0.29128 0.78514 0.8501 0.0
H2123 H 0.30648 0.76265 0.8446 0.0
H2124 H 0.34073 0.77778 0.87633 0.0
H2125 H 0.32527 0.80042 0.8821 0.0
H2126 H 0.35115 0.77255 0.84612 0.0
H2127 H 0.3235 0.74497 0.88435 0.0
H2128 H 0.30081 0.736 0.89822 0.0
H2129 H 0.28319 0.71617 0.85724 0.0
H2130 H 0.30566 0.72514 0.84309 0.0
H2131 H 0.38387 0.69926 0.81715 0.0
H2132 H 0.37743 0.72064 0.83408 0.0
H2133 H 0.33403 0.72524 0.81171 0.0
H2134 H 0.34026 0.70427 0.79489 0.0
H2135 H 0.3339 0.7189 0.84449 0.0
H2136 H 0.3547 0.75131 0.80542 0.0
H2137 H 0.37408 0.76246 0.7885 0.0
H2138 H 0.40107 0.775 0.82722 0.0
H2139 H 0.38191 0.76371 0.84437 0.0
C2140 C 0.3019 0.78353 0.85615 0.0
C2141 C 0.30721 0.79454 0.8664 0.0
C2142 C 0.31051 0.77061 0.8531 0.0
C2143 C 0.32467 0.76852 0.86013 0.0
C2144 C 0.32976 0.77917 0.87089 0.0
C2145 C 0.32095 0.79204 0.87417 0.0
C2146 C 0.33476 0.75634 0.85446 0.0
C2147 C 0.34773 0.76069 0.8462 0.0
C2148 C 0.32994 0.74101 0.85419 0.0
C2149 C 0.31629 0.73575 0.86266 0.0
C2150 C 0.31474 0.73879 0.87828 0.0
C2151 C 0.30192 0.73367 0.88619 0.0
C2152 C 0.29057 0.72552 0.87862 0.0
C2153 C 0.29201 0.72246 0.86311 0.0
C2154 C 0.3048 0.72752 0.85514 0.0
C2155 C 0.37308 0.70503 0.8157 0.0
C2156 C 0.36243 0.69986 0.80492 0.0
C2157 C 0.36946 0.71723 0.82533 0.0
C2158 C 0.35522 0.72434 0.82417 0.0
C2159 C 0.34503 0.71978 0.81282 0.0
C2160 C 0.3486 0.70772 0.80328 0.0
C2161 C 0.34983 0.73527 0.83569 0.0
C2162 C 0.33775 0.73062 0.845 0.0
C2163 C 0.35511 0.75041 0.83647 0.0
C2164 C 0.36707 0.75631 0.82616 0.0
C2165 C 0.36492 0.75613 0.81031 0.0
C2166 C 0.37582 0.76258 0.80069 0.0
C2167 C 0.38885 0.76934 0.80677 0.0
C2168 C 0.39101 0.76967 0.82251 0.0
C2169 C 0.38015 0.76324 0.83219 0.0
H2170 H 0.39723 0.7744 0.79931 0.0
H2171 H 0.28067 0.72157 0.88477 0.0
H2172 H 0.68479 0.82599 0.34771 0.0
H2173 H 0.70723 0.8405 0.3401 0.0
H2174 H 0.73471 0.81468 0.37151 0.0
H2175 H 0.71196 0.80053 0.37967 0.0
H2176 H 0.74525 0.84421 0.36856 0.0
H2177 H 0.73282 0.80261 0.33587 0.0
H2178 H 0.71569 0.78661 0.32046 0.0
H2179 H 0.70621 0.82455 0.29121 0.0
H2180 H 0.72319 0.84082 0.30656 0.0
H2181 H 0.81229 0.84065 0.31954 0.0
H2182 H 0.78964 0.83402 0.33436 0.0
H2183 H 0.76614 0.873 0.31614 0.0
H2184 H 0.78905 0.88006 0.30166 0.0
H2185 H 0.75385 0.83801 0.31309 0.0
H2186 H 0.76856 0.87915 0.34708 0.0
H2187 H 0.78742 0.89286 0.36268 0.0
H2188 H 0.79479 0.8527 0.38946 0.0
H2189 H 0.77609 0.8387 0.37388 0.0
C2190 C 0.69555 0.82374 0.35329 0.0
C2191 C 0.69676 0.81215 0.36417 0.0
C2192 C 0.70835 0.83198 0.34893 0.0
C2193 C 0.72268 0.82842 0.35499 0.0
C2194 C 0.72375 0.81758 0.36668 0.0
C2195 C 0.7108 0.80952 0.37132 0.0
C2196 C 0.73656 0.83467 0.34771 0.0
C2197 C 0.74715 0.84281 0.35646 0.0
C2198 C 0.73911 0.83277 0.33192 0.0
C2199 C 0.72918 0.82295 0.32242 0.0
C2200 C 0.72704 0.80755 0.32618 0.0
C2201 C 0.71736 0.79843 0.31746 0.0
C2202 C 0.70984 0.80457 0.30488 0.0
C2203 C 0.71204 0.81981 0.30096 0.0
C2204 C 0.72171 0.82899 0.30965 0.0
C2205 C 0.80238 0.84795 0.31892 0.0
C2206 C 0.80236 0.86086 0.30951 0.0
C2207 C 0.7895 0.84417 0.32739 0.0
C2208 C 0.77633 0.85307 0.32633 0.0
C2209 C 0.77631 0.86611 0.31715 0.0
C2210 C 0.78935 0.87013 0.30895 0.0
C2211 C 0.76226 0.84786 0.33384 0.0
C2212 C 0.75177 0.83964 0.32514 0.0
C2213 C 0.76003 0.84942 0.34967 0.0
C2214 C 0.77103 0.85786 0.35924 0.0
C2215 C 0.77429 0.87322 0.35622 0.0
C2216 C 0.78493 0.88105 0.36508 0.0
C2217 C 0.79233 0.87364 0.37703 0.0
C2218 C 0.78905 0.85841 0.38019 0.0
C2219 C 0.77841 0.85054 0.37137 0.0
H2220 H 0.80058 0.87971 0.38386 0.0
H2221 H 0.70233 0.7975 0.29816 0.0
H2222 H 0.69583 0.20902 0.87918 0.0
H2223 H 0.681 0.23136 0.87156 0.0
H2224 H 0.65738 0.20419 0.83813 0.0
H2225 H 0.67294 0.18223 0.84507 0.0
H2226 H 0.66742 0.22807 0.82541 0.0
H2227 H 0.64101 0.21981 0.87343 0.0
H2228 H 0.63972 0.21682 0.90129 0.0
H2229 H 0.65986 0.26092 0.90721 0.0
H2230 H 0.66147 0.26408 0.87941 0.0
H2231 H 0.61743 0.28486 0.79946 0.0
H2232 H 0.62477 0.2618 0.81349 0.0
H2233 H 0.65439 0.28858 0.84201 0.0
H2234 H 0.64736 0.31147 0.8278 0.0
H2235 H 0.64015 0.26515 0.85797 0.0
H2236 H 0.66886 0.2736 0.81289 0.0
H2237 H 0.67377 0.27794 0.78566 0.0
H2238 H 0.65341 0.23489 0.77487 0.0
H2239 H 0.64801 0.23045 0.80204 0.0
C2240 C 0.68721 0.20782 0.87045 0.0
C2241 C 0.68545 0.19399 0.86269 0.0
C2242 C 0.67869 0.22056 0.86613 0.0
C2243 C 0.66791 0.21948 0.85434 0.0
C2244 C 0.66563 0.20536 0.84722 0.0
C2245 C 0.67445 0.1928 0.85121 0.0
C2246 C 0.66015 0.23324 0.84825 0.0
C2247 C 0.66111 0.23593 0.83253 0.0
C2248 C 0.65263 0.244 0.8576 0.0
C2249 C 0.65144 0.24213 0.87432 0.0
C2250 C 0.64523 0.22883 0.88067 0.0
C2251 C 0.64444 0.22711 0.89646 0.0
C2252 C 0.64973 0.23866 0.90601 0.0
C2253 C 0.65577 0.25198 0.8998 0.0
C2254 C 0.65661 0.25374 0.88404 0.0
C2255 C 0.6251 0.28582 0.80906 0.0
C2256 C 0.63184 0.29983 0.81265 0.0
C2257 C 0.62935 0.27269 0.81699 0.0
C2258 C 0.64023 0.27351 0.82869 0.0
C2259 C 0.64598 0.28772 0.83305 0.0
C2260 C 0.64197 0.30076 0.82494 0.0
C2261 C 0.64698 0.25951 0.83517 0.0
C2262 C 0.64609 0.25697 0.85089 0.0
C2263 C 0.65489 0.24901 0.82591 0.0
C2264 C 0.65775 0.25183 0.8095 0.0
C2265 C 0.66518 0.26517 0.8047 0.0
C2266 C 0.6681 0.26763 0.78928 0.0
C2267 C 0.66384 0.25674 0.77853 0.0
C2268 C 0.65664 0.24336 0.7832 0.0
C2269 C 0.65361 0.24088 0.79861 0.0
H2270 H 0.66617 0.25863 0.7666 0.0
H2271 H 0.64912 0.2373 0.91823 0.0
H2272 H 0.28978 0.79329 0.65505 0.0
H2273 H 0.26754 0.80863 0.6604 0.0
H2274 H 0.27365 0.83282 0.61815 0.0
H2275 H 0.29641 0.81744 0.61273 0.0
H2276 H 0.27055 0.8519 0.64278 0.0
H2277 H 0.24191 0.81001 0.6226 0.0
H2278 H 0.2347 0.78312 0.61904 0.0
H2279 H 0.22544 0.77897 0.66678 0.0
H2280 H 0.2327 0.80575 0.67066 0.0
H2281 H 0.19544 0.88126 0.67317 0.0
H2282 H 0.21647 0.87401 0.6561 0.0
H2283 H 0.23411 0.84406 0.69068 0.0
H2284 H 0.21325 0.85102 0.70753 0.0
H2285 H 0.22173 0.83095 0.66168 0.0
H2286 H 0.25627 0.86849 0.68321 0.0
H2287 H 0.26569 0.89424 0.6891 0.0
H2288 H 0.26535 0.90552 0.6416 0.0
H2289 H 0.25578 0.87985 0.63545 0.0
C2290 C 0.28636 0.80174 0.64675 0.0
C2291 C 0.29496 0.80426 0.63353 0.0
C2292 C 0.2735 0.81041 0.64976 0.0
C2293 C 0.26882 0.82174 0.63958 0.0
C2294 C 0.27705 0.82403 0.62609 0.0
C2295 C 0.28999 0.81524 0.623 0.0
C2296 C 0.25628 0.83199 0.64415 0.0
C2297 C 0.25965 0.84745 0.64648 0.0
C2298 C 0.2422 0.82609 0.64921 0.0
C2299 C 0.23785 0.80992 0.6469 0.0
C2300 C 0.2384 0.80334 0.63235 0.0
C2301 C 0.23429 0.78812 0.63027 0.0
C2302 C 0.22961 0.77935 0.64267 0.0
C2303 C 0.22903 0.78578 0.65718 0.0
C2304 C 0.2331 0.801 0.65931 0.0
C2305 C 0.20413 0.87354 0.67724 0.0
C2306 C 0.20262 0.86641 0.69147 0.0
C2307 C 0.21611 0.86946 0.66753 0.0
C2308 C 0.2267 0.85844 0.67215 0.0
C2309 C 0.226 0.85256 0.68694 0.0
C2310 C 0.21404 0.85647 0.6965 0.0
C2311 C 0.2364 0.85052 0.66102 0.0
C2312 C 0.23238 0.83553 0.65742 0.0
C2313 C 0.24997 0.85675 0.65514 0.0
C2314 C 0.25501 0.87237 0.6589 0.0
C2315 C 0.25794 0.87655 0.67405 0.0
C2316 C 0.2634 0.8911 0.67743 0.0
C2317 C 0.26603 0.90154 0.66574 0.0
C2318 C 0.26324 0.89744 0.65065 0.0
C2319 C 0.2578 0.8829 0.64721 0.0
H2320 H 0.27031 0.91278 0.66838 0.0
H2321 H 0.22644 0.76757 0.64104 0.0
H2322 H 0.70579 0.78912 0.15264 0.0
H2323 H 0.69139 0.76633 0.15855 0.0
H2324 H 0.66125 0.77531 0.12088 0.0
H2325 H 0.67577 0.79849 0.11486 0.0
H2326 H 0.64614 0.77073 0.14813 0.0
H2327 H 0.68422 0.74378 0.11969 0.0
H2328 H 0.71014 0.7365 0.11176 0.0
H2329 H 0.72053 0.72258 0.15737 0.0
H2330 H 0.69477 0.72991 0.16562 0.0
H2331 H 0.61666 0.6949 0.17495 0.0
H2332 H 0.62391 0.7166 0.1587 0.0
H2333 H 0.6594 0.72841 0.19039 0.0
H2334 H 0.65235 0.70707 0.20649 0.0
H2335 H 0.66829 0.72007 0.15908 0.0
H2336 H 0.63517 0.75206 0.189 0.0
H2337 H 0.61117 0.76181 0.19971 0.0
H2338 H 0.59332 0.76813 0.15471 0.0
H2339 H 0.61719 0.75822 0.14373 0.0
C2340 C 0.69622 0.7862 0.14545 0.0
C2341 C 0.6918 0.79571 0.13338 0.0
C2342 C 0.68808 0.77305 0.14876 0.0
C2343 C 0.67533 0.76902 0.14007 0.0
C2344 C 0.67112 0.77818 0.12766 0.0
C2345 C 0.67942 0.79138 0.12423 0.0
C2346 C 0.66567 0.75621 0.14525 0.0
C2347 C 0.65078 0.75947 0.15009 0.0
C2348 C 0.67193 0.74168 0.14819 0.0
C2349 C 0.68753 0.73743 0.14327 0.0
C2350 C 0.69206 0.73926 0.12805 0.0
C2351 C 0.70673 0.7351 0.12349 0.0
C2352 C 0.71698 0.72908 0.13405 0.0
C2353 C 0.71258 0.72722 0.1492 0.0
C2354 C 0.69794 0.73134 0.15381 0.0
C2355 C 0.62575 0.70237 0.17858 0.0
C2356 C 0.63418 0.6991 0.19179 0.0
C2357 C 0.62984 0.71475 0.16933 0.0
C2358 C 0.64226 0.72398 0.17334 0.0
C2359 C 0.64985 0.72136 0.18709 0.0
C2360 C 0.64585 0.70909 0.19622 0.0
C2361 C 0.64908 0.73483 0.16246 0.0
C2362 C 0.66343 0.73113 0.15658 0.0
C2363 C 0.64251 0.74906 0.15897 0.0
C2364 C 0.62782 0.75405 0.16555 0.0
C2365 C 0.62601 0.75521 0.18139 0.0
C2366 C 0.61247 0.76087 0.18751 0.0
C2367 C 0.60069 0.76549 0.1779 0.0
C2368 C 0.60242 0.76446 0.16215 0.0
C2369 C 0.61595 0.75881 0.15597 0.0
H2370 H 0.59024 0.76995 0.18266 0.0
H2371 H 0.72832 0.72586 0.1305 0.0
H2372 H 0.78581 0.11853 0.69799 0.0
H2373 H 0.76305 0.12646 0.68387 0.0
H2374 H 0.79067 0.15638 0.65641 0.0
H2375 H 0.81313 0.14907 0.67103 0.0
H2376 H 0.76891 0.1716 0.66783 0.0
H2377 H 0.77134 0.12331 0.64239 0.0
H2378 H 0.77245 0.09537 0.64025 0.0
H2379 H 0.72983 0.09159 0.66379 0.0
H2380 H 0.72857 0.11949 0.66629 0.0
H2381 H 0.70861 0.19667 0.61917 0.0
H2382 H 0.7316 0.18267 0.62691 0.0
H2383 H 0.70645 0.16142 0.66324 0.0
H2384 H 0.68369 0.17574 0.65591 0.0
H2385 H 0.72674 0.14125 0.64593 0.0
H2386 H 0.72533 0.18871 0.67302 0.0
H2387 H 0.72453 0.21646 0.6768 0.0
H2388 H 0.76573 0.22143 0.65106 0.0
H2389 H 0.7666 0.19371 0.64683 0.0
C2390 C 0.787 0.12647 0.68865 0.0
C2391 C 0.80113 0.13325 0.68557 0.0
C2392 C 0.77402 0.13099 0.68055 0.0
C2393 C 0.7751 0.14206 0.66903 0.0
C2394 C 0.78948 0.14793 0.6653 0.0
C2395 C 0.80232 0.14371 0.67359 0.0
C2396 C 0.76123 0.149 0.66219 0.0
C2397 C 0.75989 0.16492 0.66271 0.0
C2398 C 0.74912 0.14031 0.65604 0.0
C2399 C 0.74994 0.12351 0.65466 0.0
C2400 C 0.76228 0.11652 0.64724 0.0
C2401 C 0.76292 0.10069 0.64594 0.0
C2402 C 0.75124 0.09171 0.65191 0.0
C2403 C 0.73888 0.09855 0.65919 0.0
C2404 C 0.73819 0.11438 0.66054 0.0
C2405 C 0.70797 0.18879 0.62862 0.0
C2406 C 0.69443 0.18722 0.63695 0.0
C2407 C 0.72107 0.18088 0.63306 0.0
C2408 C 0.72068 0.17105 0.64565 0.0
C2409 C 0.70695 0.16891 0.65348 0.0
C2410 C 0.694 0.17711 0.6493 0.0
C2411 C 0.73475 0.16372 0.65133 0.0
C2412 C 0.736 0.14782 0.65076 0.0
C2413 C 0.74681 0.17238 0.65747 0.0
C2414 C 0.74587 0.18914 0.65935 0.0
C2415 C 0.73406 0.19573 0.66789 0.0
C2416 C 0.73363 0.21146 0.67019 0.0
C2417 C 0.74505 0.22071 0.66413 0.0
C2418 C 0.75687 0.21426 0.6557 0.0
C2419 C 0.75731 0.19854 0.65333 0.0
H2420 H 0.7448 0.23285 0.66606 0.0
H2421 H 0.75175 0.07946 0.65088 0.0
H2422 H 0.29109 0.2191 0.14316 0.0
H2423 H 0.30763 0.24018 0.14915 0.0
H2424 H 0.34043 0.22412 0.11632 0.0
H2425 H 0.32388 0.20223 0.11073 0.0
H2426 H 0.35289 0.22685 0.14332 0.0
H2427 H 0.32195 0.26151 0.11363 0.0
H2428 H 0.29782 0.27289 0.10484 0.0
H2429 H 0.28679 0.28563 0.15064 0.0
H2430 H 0.31073 0.27426 0.15972 0.0
H2431 H 0.38658 0.30019 0.17614 0.0
H2432 H 0.37997 0.27998 0.15794 0.0
H2433 H 0.34477 0.26424 0.1882 0.0
H2434 H 0.35125 0.28417 0.20629 0.0
H2435 H 0.33877 0.28003 0.15546 0.0
H2436 H 0.36155 0.23969 0.18587 0.0
H2437 H 0.38246 0.22569 0.19824 0.0
H2438 H 0.40539 0.22155 0.15533 0.0
H2439 H 0.38467 0.23576 0.14276 0.0
C2440 C 0.30165 0.22024 0.13689 0.0
C2441 C 0.30637 0.2089 0.12669 0.0
C2442 C 0.31104 0.23249 0.14017 0.0
C2443 C 0.32526 0.2339 0.13308 0.0
C2444 C 0.32946 0.22328 0.12187 0.0
C2445 C 0.32001 0.21084 0.11862 0.0
C2446 C 0.33647 0.24473 0.13954 0.0
C2447 C 0.35005 0.23866 0.14549 0.0
C2448 C 0.33254 0.26 0.14287 0.0
C2449 C 0.3182 0.26706 0.13733 0.0
C2450 C 0.31437 0.26672 0.12182 0.0
C2451 C 0.30072 0.27317 0.11679 0.0
C2452 C 0.29079 0.27999 0.12717 0.0
C2453 C 0.29451 0.2804 0.1426 0.0
C2454 C 0.30815 0.27401 0.14768 0.0
C2455 C 0.37786 0.29202 0.17913 0.0
C2456 C 0.36921 0.29388 0.19244 0.0
C2457 C 0.37413 0.2805 0.16876 0.0
C2458 C 0.36192 0.27068 0.17181 0.0
C2459 C 0.35431 0.27166 0.18575 0.0
C2460 C 0.35795 0.28312 0.19601 0.0
C2461 C 0.35468 0.26192 0.15952 0.0
C2462 C 0.34191 0.26845 0.15258 0.0
C2463 C 0.35897 0.24694 0.1558 0.0
C2464 C 0.37178 0.23914 0.16346 0.0
C2465 C 0.37121 0.23611 0.17914 0.0
C2466 C 0.38297 0.22803 0.18617 0.0
C2467 C 0.3953 0.22283 0.1776 0.0
C2468 C 0.39588 0.22567 0.16198 0.0
C2469 C 0.38414 0.23375 0.1549 0.0
H2470 H 0.40436 0.21652 0.18305 0.0
H2471 H 0.28022 0.28494 0.12325 0.0
H2472 H 0.83122 0.62574 0.68721 0.0
H2473 H 0.84666 0.63397 0.70914 0.0
H2474 H 0.80614 0.65127 0.73085 0.0
H2475 H 0.79102 0.64361 0.70892 0.0
H2476 H 0.82678 0.67263 0.7287 0.0
H2477 H 0.82594 0.61993 0.74469 0.0
H2478 H 0.83066 0.59236 0.74266 0.0
H2479 H 0.87845 0.60072 0.73686 0.0
H2480 H 0.87398 0.62836 0.73873 0.0
H2481 H 0.83774 0.68598 0.80475 0.0
H2482 H 0.8319 0.67283 0.78123 0.0
H2483 H 0.87931 0.67344 0.76873 0.0
H2484 H 0.88542 0.68688 0.79257 0.0
H2485 H 0.8613 0.64423 0.76311 0.0
H2486 H 0.86076 0.69784 0.75153 0.0
H2487 H 0.85428 0.72474 0.75605 0.0
H2488 H 0.80669 0.71368 0.75535 0.0
H2489 H 0.8129 0.68668 0.75102 0.0
C2490 C 0.82567 0.63099 0.69687 0.0
C2491 C 0.81003 0.63419 0.69645 0.0
C2492 C 0.83446 0.63567 0.70937 0.0
C2493 C 0.82757 0.64338 0.72158 0.0
C2494 C 0.81174 0.64553 0.72149 0.0
C2495 C 0.8031 0.64112 0.709 0.0
C2496 C 0.83668 0.65076 0.73374 0.0
C2497 C 0.83431 0.66636 0.73621 0.0
C2498 C 0.84697 0.64277 0.74321 0.0
C2499 C 0.84959 0.62621 0.74161 0.0
C2500 C 0.83742 0.6159 0.74278 0.0
C2501 C 0.84006 0.60025 0.74173 0.0
C2502 C 0.85484 0.59479 0.73957 0.0
C2503 C 0.86701 0.60496 0.73849 0.0
C2504 C 0.86443 0.62062 0.73955 0.0
C2505 C 0.84703 0.68327 0.79713 0.0
C2506 C 0.86205 0.68766 0.80049 0.0
C2507 C 0.84363 0.67571 0.78368 0.0
C2508 C 0.85514 0.67236 0.7732 0.0
C2509 C 0.87029 0.676 0.77672 0.0
C2510 C 0.87374 0.68365 0.79031 0.0
C2511 C 0.85077 0.6658 0.75835 0.0
C2512 C 0.85407 0.65048 0.75532 0.0
C2513 C 0.84108 0.67394 0.74844 0.0
C2514 C 0.83731 0.69021 0.75101 0.0
C2515 C 0.84892 0.70113 0.75244 0.0
C2516 C 0.84529 0.71641 0.75494 0.0
C2517 C 0.83008 0.72093 0.75599 0.0
C2518 C 0.81847 0.71017 0.75452 0.0
C2519 C 0.82204 0.69488 0.75201 0.0
H2520 H 0.8273 0.73276 0.75793 0.0
H2521 H 0.85686 0.58268 0.73879 0.0
H2522 H 0.8817 0.30628 0.20834 0.0
H2523 H 0.87506 0.32149 0.23084 0.0
H2524 H 0.83106 0.33109 0.21135 0.0
H2525 H 0.83749 0.31586 0.1891 0.0
H2526 H 0.8445 0.35656 0.2235 0.0
H2527 H 0.83337 0.30515 0.23681 0.0
H2528 H 0.83776 0.27789 0.24155 0.0
H2529 H 0.87069 0.28889 0.27588 0.0
H2530 H 0.86671 0.31627 0.27113 0.0
H2531 H 0.79129 0.36496 0.28462 0.0
H2532 H 0.80651 0.35807 0.2623 0.0
H2533 H 0.84755 0.36271 0.28876 0.0
H2534 H 0.83228 0.3701 0.31106 0.0
H2535 H 0.84044 0.33247 0.27431 0.0
H2536 H 0.846 0.38543 0.26249 0.0
H2537 H 0.83754 0.41171 0.25763 0.0
H2538 H 0.81035 0.39633 0.22011 0.0
H2539 H 0.81843 0.36992 0.22489 0.0
C2540 C 0.87069 0.31178 0.20882 0.0
C2541 C 0.8601 0.30988 0.19698 0.0
C2542 C 0.86689 0.32038 0.22169 0.0
C2543 C 0.85255 0.32737 0.22274 0.0
C2544 C 0.84219 0.32582 0.21073 0.0
C2545 C 0.84586 0.31706 0.19805 0.0
C2546 C 0.84802 0.33607 0.23643 0.0
C2547 C 0.84364 0.35132 0.23463 0.0
C2548 C 0.84706 0.32923 0.25096 0.0
C2549 C 0.84999 0.31278 0.25338 0.0
C2550 C 0.84177 0.30178 0.24517 0.0
C2551 C 0.84412 0.28629 0.24791 0.0
C2552 C 0.85456 0.28166 0.25895 0.0
C2553 C 0.86267 0.2925 0.26727 0.0
C2554 C 0.86039 0.308 0.26454 0.0
C2555 C 0.80359 0.36504 0.28547 0.0
C2556 C 0.81071 0.3682 0.29938 0.0
C2557 C 0.81225 0.3611 0.27277 0.0
C2558 C 0.82813 0.35996 0.2739 0.0
C2559 C 0.83532 0.36368 0.28767 0.0
C2560 C 0.82664 0.36794 0.30033 0.0
C2561 C 0.83676 0.35289 0.26133 0.0
C2562 C 0.84178 0.33787 0.2633 0.0
C2563 C 0.83785 0.35979 0.24686 0.0
C2564 C 0.83274 0.37565 0.24414 0.0
C2565 C 0.83808 0.38761 0.25331 0.0
C2566 C 0.83338 0.40255 0.25054 0.0
C2567 C 0.82339 0.40569 0.23859 0.0
C2568 C 0.81808 0.39389 0.22938 0.0
C2569 C 0.82272 0.37893 0.23211 0.0
H2570 H 0.81979 0.41726 0.23645 0.0
H2571 H 0.85632 0.26966 0.2611 0.0
H2572 H 0.12303 0.33408 0.8057 0.0
H2573 H 0.13226 0.34911 0.78389 0.0
H2574 H 0.14728 0.30785 0.762 0.0
H2575 H 0.13838 0.29302 0.78368 0.0
H2576 H 0.17035 0.32819 0.76694 0.0
H2577 H 0.11913 0.32804 0.74607 0.0
H2578 H 0.09155 0.33322 0.74637 0.0
H2579 H 0.10031 0.38067 0.75392 0.0
H2580 H 0.12797 0.37573 0.75374 0.0
H2581 H 0.19037 0.33773 0.69205 0.0
H2582 H 0.1773 0.33212 0.71564 0.0
H2583 H 0.17212 0.38006 0.72456 0.0
H2584 H 0.18539 0.38594 0.70063 0.0
H2585 H 0.14535 0.36247 0.72978 0.0
H2586 H 0.19747 0.36205 0.74533 0.0
H2587 H 0.2248 0.3558 0.74402 0.0
H2588 H 0.21425 0.30816 0.74604 0.0
H2589 H 0.18687 0.31411 0.74722 0.0
C2590 C 0.1278 0.32828 0.79594 0.0
C2591 C 0.13008 0.31248 0.79625 0.0
C2592 C 0.13311 0.33683 0.78356 0.0
C2593 C 0.14062 0.32958 0.77145 0.0
C2594 C 0.14166 0.31366 0.77129 0.0
C2595 C 0.1365 0.30521 0.78361 0.0
C2596 C 0.14918 0.33831 0.75989 0.0
C2597 C 0.16488 0.33567 0.75879 0.0
C2598 C 0.14215 0.34856 0.74971 0.0
C2599 C 0.12557 0.35149 0.75009 0.0
C2600 C 0.11516 0.33955 0.74795 0.0
C2601 C 0.09952 0.34245 0.74804 0.0
C2602 C 0.09418 0.35726 0.75022 0.0
C2603 C 0.10447 0.3692 0.75227 0.0
C2604 C 0.12012 0.36636 0.75215 0.0
C2605 C 0.18648 0.34717 0.69893 0.0
C2606 C 0.18901 0.36232 0.69443 0.0
C2607 C 0.17906 0.34391 0.71249 0.0
C2608 C 0.174 0.35567 0.72195 0.0
C2609 C 0.17606 0.37084 0.71741 0.0
C2610 C 0.1836 0.37416 0.70375 0.0
C2611 C 0.16635 0.35171 0.73639 0.0
C2612 C 0.15089 0.3553 0.73815 0.0
C2613 C 0.17358 0.34219 0.74717 0.0
C2614 C 0.19008 0.33855 0.74631 0.0
C2615 C 0.20097 0.35024 0.74538 0.0
C2616 C 0.21648 0.34675 0.74469 0.0
C2617 C 0.22126 0.33159 0.74493 0.0
C2618 C 0.21054 0.3199 0.74587 0.0
C2619 C 0.19502 0.32333 0.74659 0.0
H2620 H 0.23327 0.32891 0.7444 0.0
H2621 H 0.08207 0.35948 0.75028 0.0
H2622 H 0.18039 0.61277 0.29562 0.0
H2623 H 0.16322 0.61857 0.27425 0.0
H2624 H 0.18337 0.66305 0.27014 0.0
H2625 H 0.20053 0.65745 0.29101 0.0
H2626 H 0.1489 0.65902 0.27729 0.0
H2627 H 0.19148 0.64803 0.24414 0.0
H2628 H 0.21149 0.63244 0.23222 0.0
H2629 H 0.17778 0.60064 0.21678 0.0
H2630 H 0.15757 0.61596 0.22887 0.0
H2631 H 0.14202 0.7073 0.21518 0.0
H2632 H 0.14737 0.69077 0.23673 0.0
H2633 H 0.12088 0.65499 0.21607 0.0
H2634 H 0.11525 0.67181 0.19436 0.0
H2635 H 0.15179 0.64768 0.22216 0.0
H2636 H 0.10924 0.66808 0.25009 0.0
H2637 H 0.09275 0.68841 0.26019 0.0
H2638 H 0.13073 0.7077 0.28407 0.0
H2639 H 0.14748 0.68764 0.274 0.0
C2640 C 0.18135 0.62366 0.28993 0.0
C2641 C 0.19163 0.63475 0.29521 0.0
C2642 C 0.17158 0.62691 0.27774 0.0
C2643 C 0.17208 0.64123 0.27073 0.0
C2644 C 0.18287 0.65194 0.27545 0.0
C2645 C 0.1926 0.64872 0.28746 0.0
C2646 C 0.16028 0.64614 0.2599 0.0
C2647 C 0.14932 0.6564 0.26523 0.0
C2648 C 0.16091 0.64258 0.24427 0.0
C2649 C 0.17307 0.6329 0.23778 0.0
C2650 C 0.18837 0.63753 0.23852 0.0
C2651 C 0.19974 0.6288 0.23164 0.0
C2652 C 0.19592 0.61549 0.22384 0.0
C2653 C 0.18073 0.6109 0.22291 0.0
C2654 C 0.16931 0.61958 0.2298 0.0
C2655 C 0.13695 0.69607 0.21545 0.0
C2656 C 0.12831 0.69074 0.20315 0.0
C2657 C 0.13993 0.68666 0.22781 0.0
C2658 C 0.13445 0.67169 0.22803 0.0
C2659 C 0.12509 0.66657 0.21613 0.0
C2660 C 0.12186 0.67615 0.20381 0.0
C2661 C 0.14069 0.66105 0.23945 0.0
C2662 C 0.15072 0.64974 0.23428 0.0
C2663 C 0.13972 0.66419 0.25519 0.0
C2664 C 0.12962 0.6763 0.26128 0.0
C2665 C 0.11409 0.67669 0.25743 0.0
C2666 C 0.1047 0.68817 0.26317 0.0
C2667 C 0.11069 0.69933 0.27277 0.0
C2668 C 0.12609 0.69903 0.27666 0.0
C2669 C 0.13553 0.68758 0.27098 0.0
H2670 H 0.10339 0.70821 0.27719 0.0
H2671 H 0.20473 0.60879 0.21845 0.0
H2672 H 0.80718 0.83533 0.69214 0.0
H2673 H 0.78502 0.82964 0.67651 0.0
H2674 H 0.77452 0.87742 0.67345 0.0
H2675 H 0.79693 0.88335 0.68908 0.0
H2676 H 0.74879 0.85486 0.6814 0.0
H2677 H 0.787 0.86594 0.64357 0.0
H2678 H 0.81301 0.86406 0.63323 0.0
H2679 H 0.80836 0.81558 0.62972 0.0
H2680 H 0.78236 0.81716 0.6402 0.0
H2681 H 0.69124 0.83375 0.62893 0.0
H2682 H 0.71385 0.84829 0.63677 0.0
H2683 H 0.73861 0.80639 0.64302 0.0
H2684 H 0.71599 0.79192 0.63551 0.0
H2685 H 0.75666 0.83098 0.63083 0.0
H2686 H 0.72313 0.81829 0.67254 0.0
H2687 H 0.69789 0.81711 0.68473 0.0
H2688 H 0.69433 0.86577 0.68257 0.0
H2689 H 0.71953 0.8672 0.67018 0.0
C2690 C 0.80022 0.84468 0.68817 0.0
C2691 C 0.8039 0.85982 0.69181 0.0
C2692 C 0.78755 0.84139 0.67924 0.0
C2693 C 0.77822 0.85312 0.67382 0.0
C2694 C 0.78163 0.86824 0.67756 0.0
C2695 C 0.79447 0.87159 0.6864 0.0
C2696 C 0.76512 0.84928 0.66402 0.0
C2697 C 0.75042 0.8501 0.67014 0.0
C2698 C 0.76737 0.84263 0.64956 0.0
C2699 C 0.78276 0.84167 0.64269 0.0
C2700 C 0.79154 0.85487 0.64062 0.0
C2701 C 0.80628 0.85386 0.63474 0.0
C2702 C 0.81234 0.8397 0.63083 0.0
C2703 C 0.80364 0.82654 0.63273 0.0
C2704 C 0.78889 0.82749 0.6386 0.0
C2705 C 0.70169 0.82775 0.63153 0.0
C2706 C 0.70206 0.81182 0.63159 0.0
C2707 C 0.71453 0.83602 0.63602 0.0
C2708 C 0.72785 0.82838 0.64048 0.0
C2709 C 0.72848 0.81247 0.63949 0.0
C2710 C 0.7156 0.80424 0.63525 0.0
C2711 C 0.74033 0.8366 0.64818 0.0
C2712 C 0.75493 0.83635 0.64179 0.0
C2713 C 0.73803 0.84357 0.6625 0.0
C2714 C 0.72311 0.84285 0.67032 0.0
C2715 C 0.71692 0.82873 0.67461 0.0
C2716 C 0.70264 0.82801 0.68155 0.0
C2717 C 0.69449 0.84136 0.68439 0.0
C2718 C 0.70066 0.85545 0.68035 0.0
C2719 C 0.71494 0.85622 0.67337 0.0
H2720 H 0.68343 0.84078 0.68975 0.0
H2721 H 0.82377 0.83894 0.62633 0.0
H2722 H 0.66005 0.29475 0.19964 0.0
H2723 H 0.66548 0.27326 0.18319 0.0
H2724 H 0.61946 0.27407 0.16631 0.0
H2725 H 0.61378 0.29596 0.18278 0.0
H2726 H 0.63862 0.24219 0.17601 0.0
H2727 H 0.63563 0.28621 0.14216 0.0
H2728 H 0.6403 0.31345 0.13736 0.0
H2729 H 0.68823 0.30664 0.14396 0.0
H2730 H 0.6838 0.2794 0.14902 0.0
H2731 H 0.67131 0.19215 0.12116 0.0
H2732 H 0.65492 0.21384 0.12783 0.0
H2733 H 0.69319 0.23617 0.14892 0.0
H2734 H 0.70935 0.21433 0.14283 0.0
H2735 H 0.67169 0.25629 0.13241 0.0
H2736 H 0.67586 0.21775 0.17178 0.0
H2737 H 0.67498 0.19112 0.18054 0.0
H2738 H 0.62822 0.18791 0.16674 0.0
H2739 H 0.62893 0.21451 0.15766 0.0
C2740 C 0.65096 0.29037 0.19257 0.0
C2741 C 0.63652 0.29727 0.19237 0.0
C2742 C 0.6541 0.27801 0.18323 0.0
C2743 C 0.64289 0.27221 0.17355 0.0
C2744 C 0.62822 0.27846 0.17377 0.0
C2745 C 0.62505 0.29098 0.18312 0.0
C2746 C 0.64735 0.26056 0.16237 0.0
C2747 C 0.64529 0.2452 0.16608 0.0
C2748 C 0.65657 0.2646 0.14983 0.0
C2749 C 0.65938 0.28078 0.14597 0.0
C2750 C 0.64716 0.29054 0.1426 0.0
C2751 C 0.64977 0.30598 0.13985 0.0
C2752 C 0.66456 0.31178 0.14035 0.0
C2753 C 0.67679 0.30213 0.14354 0.0
C2754 C 0.67424 0.28668 0.14631 0.0
C2755 C 0.67624 0.2019 0.12684 0.0
C2756 C 0.69147 0.20167 0.13161 0.0
C2757 C 0.66692 0.21424 0.13061 0.0
C2758 C 0.6729 0.22654 0.13885 0.0
C2759 C 0.68843 0.22681 0.14246 0.0
C2760 C 0.69761 0.21435 0.13908 0.0
C2761 C 0.66277 0.2379 0.1459 0.0
C2762 C 0.66416 0.2532 0.14169 0.0
C2763 C 0.65314 0.23383 0.15813 0.0
C2764 C 0.65249 0.21801 0.16389 0.0
C2765 C 0.66542 0.21132 0.17052 0.0
C2766 C 0.66496 0.19625 0.17555 0.0
C2767 C 0.65156 0.18781 0.17415 0.0
C2768 C 0.63859 0.19446 0.16778 0.0
C2769 C 0.63902 0.20953 0.16269 0.0
H2770 H 0.65122 0.17614 0.17804 0.0
H2771 H 0.66655 0.32374 0.13828 0.0
H2772 H 0.3008 0.17723 0.61658 0.0
H2773 H 0.27931 0.16102 0.62418 0.0
H2774 H 0.26522 0.195 0.65662 0.0
H2775 H 0.28656 0.21105 0.64925 0.0
H2776 H 0.27311 0.1675 0.66947 0.0
H2777 H 0.24233 0.18716 0.62925 0.0
H2778 H 0.23423 0.19335 0.60315 0.0
H2779 H 0.2353 0.146 0.59131 0.0
H2780 H 0.24363 0.13953 0.6173 0.0
H2781 H 0.20399 0.15125 0.7009 0.0
H2782 H 0.22568 0.16025 0.68702 0.0
H2783 H 0.2274 0.11824 0.66171 0.0
H2784 H 0.20477 0.109 0.67564 0.0
H2785 H 0.22861 0.14438 0.64368 0.0
H2786 H 0.2555 0.12617 0.68788 0.0
H2787 H 0.26 0.12285 0.71536 0.0
H2788 H 0.26302 0.17125 0.721 0.0
H2789 H 0.25839 0.17489 0.69361 0.0
C2790 C 0.29284 0.18139 0.625 0.0
C2791 C 0.29551 0.19519 0.63262 0.0
C2792 C 0.28058 0.17216 0.62929 0.0
C2793 C 0.27087 0.17677 0.64109 0.0
C2794 C 0.27271 0.1912 0.6476 0.0
C2795 C 0.28494 0.20031 0.64343 0.0
C2796 C 0.26054 0.16583 0.64851 0.0
C2797 C 0.26337 0.16243 0.66383 0.0
C2798 C 0.24813 0.15894 0.64098 0.0
C2799 C 0.24392 0.16288 0.62514 0.0
C2800 C 0.24113 0.17808 0.62101 0.0
C2801 C 0.23641 0.18164 0.60625 0.0
C2802 C 0.23433 0.17009 0.59555 0.0
C2803 C 0.23698 0.15495 0.59959 0.0
C2804 C 0.24171 0.15133 0.61432 0.0
C2805 C 0.2089 0.14373 0.69247 0.0
C2806 C 0.20254 0.1294 0.68925 0.0
C2807 C 0.22149 0.1489 0.68464 0.0
C2808 C 0.22833 0.13981 0.67356 0.0
C2809 C 0.2223 0.12533 0.67039 0.0
C2810 C 0.20946 0.12007 0.6783 0.0
C2811 C 0.24098 0.14638 0.66471 0.0
C2812 C 0.23865 0.14901 0.64915 0.0
C2813 C 0.25367 0.15296 0.67212 0.0
C2814 C 0.25661 0.15078 0.68864 0.0
C2815 C 0.25707 0.13611 0.69498 0.0
C2816 C 0.25966 0.13417 0.71055 0.0
C2817 C 0.26181 0.14683 0.71992 0.0
C2818 C 0.2614 0.16145 0.71373 0.0
C2819 C 0.25884 0.16345 0.69817 0.0
H2820 H 0.26379 0.1453 0.73196 0.0
H2821 H 0.23061 0.17286 0.58415 0.0
H2822 H 0.33319 0.8121 0.13407 0.0
H2823 H 0.34728 0.78924 0.14201 0.0
H2824 H 0.30595 0.7629 0.13896 0.0
H2825 H 0.29197 0.78569 0.13116 0.0
H2826 H 0.31923 0.76151 0.16697 0.0
H2827 H 0.33512 0.75622 0.11435 0.0
H2828 H 0.34708 0.765 0.09054 0.0
H2829 H 0.38927 0.77222 0.11407 0.0
H2830 H 0.37752 0.76357 0.13805 0.0
H2831 H 0.33835 0.68694 0.18033 0.0
H2832 H 0.33129 0.70992 0.1666 0.0
H2833 H 0.37632 0.72815 0.17353 0.0
H2834 H 0.38362 0.70486 0.18719 0.0
H2835 H 0.36428 0.73563 0.14491 0.0
H2836 H 0.34958 0.7395 0.19687 0.0
H2837 H 0.33819 0.73127 0.22113 0.0
H2838 H 0.29434 0.72819 0.19982 0.0
H2839 H 0.30551 0.73621 0.17538 0.0
C2840 C 0.32732 0.80128 0.13463 0.0
C2841 C 0.31162 0.80047 0.13188 0.0
C2842 C 0.33533 0.78827 0.13918 0.0
C2843 C 0.32765 0.77438 0.14108 0.0
C2844 C 0.31209 0.7735 0.13755 0.0
C2845 C 0.30413 0.78645 0.13302 0.0
C2846 C 0.3352 0.7612 0.14841 0.0
C2847 C 0.32897 0.75575 0.16204 0.0
C2848 C 0.34836 0.75417 0.14238 0.0
C2849 C 0.35541 0.75939 0.128 0.0
C2850 C 0.34692 0.75979 0.11446 0.0
C2851 C 0.35366 0.76471 0.10094 0.0
C2852 C 0.36891 0.76921 0.1008 0.0
C2853 C 0.37746 0.76875 0.11419 0.0
C2854 C 0.37077 0.76382 0.12775 0.0
C2855 C 0.34686 0.69571 0.17874 0.0
C2856 C 0.36149 0.69417 0.18498 0.0
C2857 C 0.34279 0.70886 0.17091 0.0
C2858 C 0.35318 0.72087 0.16935 0.0
C2859 C 0.36812 0.71903 0.17469 0.0
C2860 C 0.37228 0.70572 0.18246 0.0
C2861 C 0.34786 0.7356 0.16309 0.0
C2862 C 0.35458 0.74144 0.14984 0.0
C2863 C 0.33521 0.74318 0.16955 0.0
C2864 C 0.32842 0.73835 0.18425 0.0
C2865 C 0.33753 0.73695 0.19733 0.0
C2866 C 0.33111 0.73235 0.21112 0.0
C2867 C 0.31556 0.72918 0.21201 0.0
C2868 C 0.30639 0.73064 0.19911 0.0
C2869 C 0.31276 0.73524 0.18529 0.0
H2870 H 0.3106 0.72562 0.2227 0.0
H2871 H 0.37412 0.77301 0.09032 0.0
H2872 H 0.71052 0.19306 0.38179 0.0
H2873 H 0.73333 0.17823 0.37507 0.0
H2874 H 0.71345 0.16745 0.33156 0.0
H2875 H 0.69097 0.18239 0.33801 0.0
H2876 H 0.72678 0.14233 0.34589 0.0
H2877 H 0.73763 0.19372 0.33212 0.0
H2878 H 0.74143 0.22131 0.33513 0.0
H2879 H 0.77693 0.21314 0.36765 0.0
H2880 H 0.77313 0.18545 0.36506 0.0
H2881 H 0.7867 0.12851 0.29312 0.0
H2882 H 0.76442 0.13583 0.30822 0.0
H2883 H 0.7934 0.14371 0.34704 0.0
H2884 H 0.81572 0.13645 0.33183 0.0
H2885 H 0.77636 0.16842 0.33934 0.0
H2886 H 0.76715 0.11538 0.34795 0.0
H2887 H 0.76328 0.08844 0.3412 0.0
H2888 H 0.72436 0.10047 0.31427 0.0
H2889 H 0.72812 0.12751 0.32065 0.0
C2890 C 0.71101 0.18737 0.37088 0.0
C2891 C 0.69903 0.18888 0.36041 0.0
C2892 C 0.72402 0.17899 0.36704 0.0
C2893 C 0.72503 0.17178 0.35281 0.0
C2894 C 0.71286 0.17289 0.3426 0.0
C2895 C 0.70006 0.18147 0.34629 0.0
C2896 C 0.73892 0.16346 0.34816 0.0
C2897 C 0.73766 0.14798 0.34446 0.0
C2898 C 0.75308 0.17087 0.34646 0.0
C2899 C 0.75486 0.18751 0.34865 0.0
C2900 C 0.74603 0.1978 0.34015 0.0
C2901 C 0.74824 0.21346 0.34172 0.0
C2902 C 0.75936 0.21897 0.35164 0.0
C2903 C 0.76827 0.20884 0.36003 0.0
C2904 C 0.76607 0.19316 0.35854 0.0
C2905 C 0.78818 0.13136 0.30501 0.0
C2906 C 0.80276 0.13184 0.31145 0.0
C2907 C 0.77549 0.13549 0.31364 0.0
C2908 C 0.77724 0.14019 0.3288 0.0
C2909 C 0.7918 0.14003 0.3354 0.0
C2910 C 0.8045 0.13587 0.32676 0.0
C2911 C 0.76427 0.14724 0.33695 0.0
C2912 C 0.76565 0.16257 0.3412 0.0
C2913 C 0.75013 0.13977 0.33876 0.0
C2914 C 0.74799 0.12351 0.33471 0.0
C2915 C 0.75786 0.11231 0.34047 0.0
C2916 C 0.75566 0.09701 0.33673 0.0
C2917 C 0.7436 0.09275 0.3273 0.0
C2918 C 0.7337 0.10378 0.32158 0.0
C2919 C 0.73585 0.1191 0.32526 0.0
H2920 H 0.74191 0.0809 0.32444 0.0
H2921 H 0.76114 0.23108 0.35277 0.0
H2922 H 0.30378 0.21067 0.88182 0.0
H2923 H 0.31975 0.23281 0.87545 0.0
H2924 H 0.33306 0.2111 0.83354 0.0
H2925 H 0.317 0.18931 0.83962 0.0
H2926 H 0.3575 0.22368 0.84949 0.0
H2927 H 0.30812 0.23614 0.83109 0.0
H2928 H 0.28055 0.24116 0.83139 0.0
H2929 H 0.28731 0.27773 0.86301 0.0
H2930 H 0.31495 0.27272 0.86314 0.0
H2931 H 0.37338 0.28102 0.79404 0.0
H2932 H 0.36585 0.2595 0.81006 0.0
H2933 H 0.3618 0.28959 0.84857 0.0
H2934 H 0.36962 0.31111 0.83254 0.0
H2935 H 0.33447 0.27409 0.83912 0.0
H2936 H 0.38642 0.26267 0.85164 0.0
H2937 H 0.41345 0.25738 0.84634 0.0
H2938 H 0.4009 0.21816 0.82013 0.0
H2939 H 0.37378 0.22333 0.82505 0.0
C2940 C 0.31025 0.21063 0.87134 0.0
C2941 C 0.30918 0.19832 0.8612 0.0
C2942 C 0.31928 0.22325 0.86769 0.0
C2943 C 0.32756 0.22353 0.85403 0.0
C2944 C 0.3268 0.21106 0.84415 0.0
C2945 C 0.31758 0.19866 0.84762 0.0
C2946 C 0.33686 0.23686 0.84966 0.0
C2947 C 0.3525 0.23474 0.84727 0.0
C2948 C 0.33028 0.25126 0.84684 0.0
C2949 C 0.31359 0.25381 0.84741 0.0
C2950 C 0.30371 0.24504 0.83837 0.0
C2951 C 0.28808 0.24794 0.83839 0.0
C2952 C 0.28217 0.25969 0.84729 0.0
C2953 C 0.29189 0.26857 0.85619 0.0
C2954 C 0.30755 0.26569 0.85624 0.0
C2955 C 0.37162 0.28285 0.8061 0.0
C2956 C 0.3723 0.29755 0.81221 0.0
C2957 C 0.36726 0.2706 0.81522 0.0
C2958 C 0.36331 0.27298 0.83049 0.0
C2959 C 0.36493 0.28754 0.83683 0.0
C2960 C 0.36949 0.29976 0.82774 0.0
C2961 C 0.35512 0.26091 0.83887 0.0
C2962 C 0.3396 0.26321 0.84186 0.0
C2963 C 0.36171 0.24654 0.84171 0.0
C2964 C 0.37803 0.24346 0.83865 0.0
C2965 C 0.3894 0.253 0.84463 0.0
C2966 C 0.40475 0.25 0.84171 0.0
C2967 C 0.40889 0.23746 0.83289 0.0
C2968 C 0.39768 0.22787 0.82696 0.0
C2969 C 0.38232 0.23083 0.82983 0.0
H2970 H 0.42077 0.23515 0.83066 0.0
H2971 H 0.27006 0.26197 0.84723 0.0
H2972 H 0.2899 0.79142 0.34835 0.0
H2973 H 0.26904 0.8083 0.34151 0.0
H2974 H 0.28515 0.84162 0.37367 0.0
H2975 H 0.30615 0.82447 0.38086 0.0
H2976 H 0.24958 0.83694 0.36867 0.0
H2977 H 0.29735 0.8484 0.34253 0.0
H2978 H 0.32055 0.8394 0.32957 0.0
H2979 H 0.29328 0.81755 0.29547 0.0
H2980 H 0.26992 0.82618 0.30838 0.0
H2981 H 0.20007 0.88298 0.32254 0.0
H2982 H 0.22332 0.87754 0.33721 0.0
H2983 H 0.23207 0.83857 0.30871 0.0
H2984 H 0.20917 0.84387 0.29421 0.0
H2985 H 0.25802 0.85323 0.31526 0.0
H2986 H 0.21335 0.83412 0.34119 0.0
H2987 H 0.18809 0.83733 0.35296 0.0
H2988 H 0.20705 0.86822 0.38568 0.0
H2989 H 0.23242 0.86536 0.37392 0.0
C2990 C 0.28887 0.80221 0.3542 0.0
C2991 C 0.2998 0.80681 0.3649 0.0
C2992 C 0.27688 0.81179 0.35036 0.0
C2993 C 0.27573 0.82624 0.35695 0.0
C2994 C 0.2859 0.83047 0.3685 0.0
C2995 C 0.29789 0.82073 0.37252 0.0
C2996 C 0.26531 0.83739 0.34991 0.0
C2997 C 0.25159 0.841 0.3572 0.0
C2998 C 0.26783 0.84223 0.33478 0.0
C2999 C 0.28188 0.83797 0.32642 0.0
C3000 C 0.2963 0.8417 0.33225 0.0
C3001 C 0.30948 0.83663 0.32494 0.0
C3002 C 0.30839 0.82792 0.3117 0.0
C3003 C 0.29411 0.82433 0.3057 0.0
C3004 C 0.2809 0.82934 0.31299 0.0
C3005 C 0.20712 0.8734 0.31933 0.0
C3006 C 0.20269 0.86368 0.30744 0.0
C3007 C 0.22035 0.87031 0.32769 0.0
C3008 C 0.22934 0.85758 0.3241 0.0
C3009 C 0.22533 0.84845 0.31167 0.0
C3010 C 0.21213 0.85141 0.30349 0.0
C3011 C 0.24211 0.85261 0.33388 0.0
C3012 C 0.25627 0.84997 0.32703 0.0
C3013 C 0.2398 0.84827 0.34922 0.0
C3014 C 0.22471 0.84968 0.35659 0.0
C3015 C 0.21211 0.84166 0.35085 0.0
C3016 C 0.19778 0.84341 0.35751 0.0
C3017 C 0.19595 0.85302 0.37003 0.0
C3018 C 0.20848 0.86082 0.37596 0.0
C3019 C 0.22283 0.85914 0.3693 0.0
H3020 H 0.18484 0.85438 0.37516 0.0
H3021 H 0.3186 0.82394 0.30609 0.0
H3022 H 0.66 0.68739 0.81542 0.0
H3023 H 0.66623 0.70941 0.8312 0.0
H3024 H 0.62371 0.7305 0.81884 0.0
H3025 H 0.61713 0.70818 0.80329 0.0
H3026 H 0.6535 0.74806 0.81423 0.0
H3027 H 0.62351 0.7223 0.85171 0.0
H3028 H 0.61525 0.70005 0.86663 0.0
H3029 H 0.66013 0.69574 0.88546 0.0
H3030 H 0.6687 0.71788 0.87049 0.0
H3031 H 0.66799 0.81156 0.85951 0.0
H3032 H 0.65333 0.78921 0.85152 0.0
H3033 H 0.69034 0.76005 0.86525 0.0
H3034 H 0.70497 0.78247 0.87337 0.0
H3035 H 0.66013 0.74722 0.87031 0.0
H3036 H 0.69116 0.76909 0.8307 0.0
H3037 H 0.70113 0.79042 0.81545 0.0
H3038 H 0.6559 0.80098 0.80028 0.0
H3039 H 0.64565 0.77976 0.81558 0.0
C3040 C 0.65189 0.69664 0.81618 0.0
C3041 C 0.63809 0.69611 0.80812 0.0
C3042 C 0.65544 0.70916 0.82524 0.0
C3043 C 0.6454 0.7215 0.82619 0.0
C3044 C 0.63154 0.72101 0.81827 0.0
C3045 C 0.6278 0.70828 0.80946 0.0
C3046 C 0.65001 0.7352 0.83476 0.0
C3047 C 0.65457 0.74804 0.82652 0.0
C3048 C 0.65188 0.73489 0.85073 0.0
C3049 C 0.64677 0.72168 0.85989 0.0
C3050 C 0.63165 0.71654 0.85895 0.0
C3051 C 0.6269 0.70397 0.86743 0.0
C3052 C 0.63717 0.69647 0.87696 0.0
C3053 C 0.65219 0.70156 0.87806 0.0
C3054 C 0.65699 0.71415 0.86961 0.0
C3055 C 0.67272 0.80032 0.86128 0.0
C3056 C 0.68745 0.79859 0.86712 0.0
C3057 C 0.6644 0.7876 0.8567 0.0
C3058 C 0.67081 0.77301 0.85773 0.0
C3059 C 0.68516 0.7712 0.86451 0.0
C3060 C 0.69349 0.78396 0.86912 0.0
C3061 C 0.66353 0.76009 0.84976 0.0
C3062 C 0.65869 0.74736 0.85806 0.0
C3063 C 0.66154 0.76038 0.83379 0.0
C3064 C 0.66763 0.77295 0.82436 0.0
C3065 C 0.68334 0.77602 0.82417 0.0
C3066 C 0.68904 0.78807 0.81551 0.0
C3067 C 0.67915 0.79707 0.80693 0.0
C3068 C 0.66354 0.794 0.80694 0.0
C3069 C 0.65778 0.78195 0.81558 0.0
H3070 H 0.68358 0.80641 0.80024 0.0
H3071 H 0.63348 0.68672 0.88351 0.0
H3072 H 0.1018 0.24406 0.19627 0.0
H3073 H 0.09683 0.22033 0.21004 0.0
H3074 H 0.14334 0.2065 0.2031 0.0
H3075 H 0.14849 0.23011 0.18939 0.0
H3076 H 0.11771 0.18447 0.1943 0.0
H3077 H 0.13786 0.21748 0.23399 0.0
H3078 H 0.13798 0.24014 0.25046 0.0
H3079 H 0.09363 0.22845 0.26727 0.0
H3080 H 0.09311 0.20587 0.2506 0.0
H3081 H 0.14564 0.1268 0.24061 0.0
H3082 H 0.13756 0.14738 0.22414 0.0
H3083 H 0.10094 0.15791 0.25525 0.0
H3084 H 0.11048 0.13834 0.2727 0.0
H3085 H 0.11406 0.18168 0.25045 0.0
H3086 H 0.09736 0.14446 0.21486 0.0
H3087 H 0.09888 0.12123 0.19925 0.0
H3088 H 0.1367 0.13987 0.17464 0.0
H3089 H 0.13572 0.16304 0.19032 0.0
C3090 C 0.11099 0.23597 0.19765 0.0
C3091 C 0.12554 0.23891 0.1916 0.0
C3092 C 0.1081 0.22244 0.20551 0.0
C3093 C 0.11967 0.21164 0.20728 0.0
C3094 C 0.13422 0.21464 0.20151 0.0
C3095 C 0.13716 0.22817 0.1938 0.0
C3096 C 0.11684 0.19713 0.21517 0.0
C3097 C 0.11684 0.18371 0.20658 0.0
C3098 C 0.11515 0.19638 0.23109 0.0
C3099 C 0.1153 0.21018 0.24078 0.0
C3100 C 0.12801 0.21989 0.24097 0.0
C3101 C 0.12818 0.23268 0.25039 0.0
C3102 C 0.11578 0.23579 0.25984 0.0
C3103 C 0.10319 0.22608 0.25988 0.0
C3104 C 0.10294 0.2133 0.25043 0.0
C3105 C 0.13564 0.13329 0.2437 0.0
C3106 C 0.12867 0.13114 0.25783 0.0
C3107 C 0.13083 0.14497 0.23416 0.0
C3108 C 0.11842 0.15422 0.23823 0.0
C3109 C 0.11056 0.15103 0.25182 0.0
C3110 C 0.11587 0.13977 0.26172 0.0
C3111 C 0.11544 0.16856 0.22971 0.0
C3112 C 0.11433 0.18212 0.23814 0.0
C3113 C 0.11609 0.16937 0.21359 0.0
C3114 C 0.11646 0.15554 0.20384 0.0
C3115 C 0.10605 0.1436 0.20617 0.0
C3116 C 0.10684 0.13041 0.19732 0.0
C3117 C 0.1179 0.12906 0.18599 0.0
C3118 C 0.12816 0.14092 0.18344 0.0
C3119 C 0.12747 0.15409 0.1923 0.0
H3120 H 0.11852 0.11883 0.17918 0.0
H3121 H 0.11597 0.24567 0.26717 0.0
H3122 H 0.34547 0.62289 0.77581 0.0
H3123 H 0.32549 0.61629 0.75747 0.0
H3124 H 0.35471 0.63024 0.72066 0.0
H3125 H 0.37491 0.63633 0.7389 0.0
H3126 H 0.31985 0.64542 0.73222 0.0
H3127 H 0.35031 0.60297 0.71018 0.0
H3128 H 0.36541 0.57975 0.71476 0.0
H3129 H 0.32758 0.55951 0.73811 0.0
H3130 H 0.31231 0.5827 0.73376 0.0
H3131 H 0.27042 0.64413 0.67089 0.0
H3132 H 0.29401 0.6414 0.6853 0.0
H3133 H 0.27529 0.60258 0.70879 0.0
H3134 H 0.25179 0.60497 0.69398 0.0
H3135 H 0.30517 0.59848 0.70447 0.0
H3136 H 0.27362 0.63752 0.72507 0.0
H3137 H 0.25742 0.66041 0.72422 0.0
H3138 H 0.29532 0.6869 0.70847 0.0
H3139 H 0.31169 0.66409 0.7091 0.0
C3140 C 0.34782 0.6239 0.76376 0.0
C3141 C 0.36171 0.62991 0.75869 0.0
C3142 C 0.33643 0.6202 0.75334 0.0
C3143 C 0.33874 0.62273 0.73779 0.0
C3144 C 0.35289 0.62798 0.73263 0.0
C3145 C 0.36441 0.63135 0.74303 0.0
C3146 C 0.32567 0.62217 0.72734 0.0
C3147 C 0.31675 0.63527 0.72592 0.0
C3148 C 0.32138 0.60871 0.71976 0.0
C3149 C 0.33022 0.59454 0.72169 0.0
C3150 C 0.34524 0.59356 0.71631 0.0
C3151 C 0.35382 0.58042 0.71886 0.0
C3152 C 0.34746 0.56817 0.72674 0.0
C3153 C 0.33248 0.569 0.732 0.0
C3154 C 0.32385 0.58212 0.72946 0.0
C3155 C 0.27137 0.63497 0.67906 0.0
C3156 C 0.25917 0.62498 0.68157 0.0
C3157 C 0.28486 0.63337 0.68725 0.0
C3158 C 0.28628 0.62199 0.69838 0.0
C3159 C 0.27442 0.61147 0.70031 0.0
C3160 C 0.26099 0.61291 0.6919 0.0
C3161 C 0.29953 0.622 0.70882 0.0
C3162 C 0.30834 0.60875 0.71053 0.0
C3163 C 0.30356 0.63528 0.717 0.0
C3164 C 0.29385 0.6491 0.71699 0.0
C3165 C 0.27848 0.64822 0.72137 0.0
C3166 C 0.26927 0.66117 0.72094 0.0
C3167 C 0.27533 0.6751 0.71627 0.0
C3168 C 0.29063 0.67611 0.71208 0.0
C3169 C 0.29989 0.66318 0.71249 0.0
H3170 H 0.26817 0.68511 0.7159 0.0
H3171 H 0.35415 0.55803 0.72876 0.0
H3172 H 0.87813 0.8478 0.27557 0.0
H3173 H 0.8841 0.828 0.25687 0.0
H3174 H 0.8659 0.85625 0.22116 0.0
H3175 H 0.86045 0.87631 0.23975 0.0
H3176 H 0.85154 0.82456 0.22903 0.0
H3177 H 0.89839 0.85044 0.21475 0.0
H3178 H 0.92248 0.86306 0.22169 0.0
H3179 H 0.9379 0.82217 0.24349 0.0
H3180 H 0.91383 0.80935 0.23675 0.0
H3181 H 0.85612 0.77239 0.16994 0.0
H3182 H 0.8593 0.79624 0.18389 0.0
H3183 H 0.89156 0.77447 0.21382 0.0
H3184 H 0.88856 0.75062 0.19961 0.0
H3185 H 0.89986 0.80362 0.2086 0.0
H3186 H 0.85546 0.7775 0.2248 0.0
H3187 H 0.83144 0.76345 0.22136 0.0
H3188 H 0.81106 0.80277 0.2008 0.0
H3189 H 0.83507 0.81702 0.20391 0.0
C3190 C 0.87606 0.85001 0.26363 0.0
C3191 C 0.86902 0.86356 0.259 0.0
C3192 C 0.87938 0.83871 0.25301 0.0
C3193 C 0.87538 0.84073 0.23772 0.0
C3194 C 0.86915 0.8546 0.23293 0.0
C3195 C 0.86619 0.86607 0.2435 0.0
C3196 C 0.87578 0.82761 0.22731 0.0
C3197 C 0.86203 0.82016 0.22424 0.0
C3198 C 0.88958 0.82153 0.22184 0.0
C3199 C 0.90432 0.82896 0.22528 0.0
C3200 C 0.90692 0.84415 0.22103 0.0
C3201 C 0.92056 0.85134 0.22493 0.0
C3202 C 0.93171 0.84343 0.23304 0.0
C3203 C 0.92927 0.82828 0.23718 0.0
C3204 C 0.91565 0.82103 0.23329 0.0
C3205 C 0.8638 0.77272 0.17955 0.0
C3206 C 0.87169 0.75963 0.18406 0.0
C3207 C 0.86574 0.78634 0.18741 0.0
C3208 C 0.87543 0.78704 0.20009 0.0
C3209 C 0.88399 0.77417 0.2041 0.0
C3210 C 0.88219 0.76056 0.19607 0.0
C3211 C 0.87549 0.80076 0.20988 0.0
C3212 C 0.8893 0.80816 0.21309 0.0
C3213 C 0.86175 0.8066 0.21592 0.0
C3214 C 0.84711 0.79828 0.21445 0.0
C3215 C 0.84588 0.78314 0.21948 0.0
C3216 C 0.83226 0.77514 0.2176 0.0
C3217 C 0.81974 0.7822 0.21083 0.0
C3218 C 0.82078 0.79731 0.20602 0.0
C3219 C 0.83439 0.80537 0.20786 0.0
H3220 H 0.80923 0.77597 0.20933 0.0
H3221 H 0.94224 0.84903 0.2361 0.0
H3222 H 0.65885 0.36235 0.77716 0.0
H3223 H 0.67865 0.36976 0.75955 0.0
H3224 H 0.64473 0.38067 0.72574 0.0
H3225 H 0.6247 0.372 0.74317 0.0
H3226 H 0.66579 0.36468 0.71318 0.0
H3227 H 0.66779 0.40889 0.74426 0.0
H3228 H 0.6679 0.4228 0.76859 0.0
H3229 H 0.71023 0.40169 0.78078 0.0
H3230 H 0.71029 0.3875 0.75662 0.0
H3231 H 0.73144 0.38821 0.66856 0.0
H3232 H 0.70817 0.39191 0.68374 0.0
H3233 H 0.72706 0.36398 0.71935 0.0
H3234 H 0.74994 0.35968 0.70394 0.0
H3235 H 0.71157 0.39416 0.72814 0.0
H3236 H 0.70626 0.34681 0.70011 0.0
H3237 H 0.70622 0.33181 0.67654 0.0
H3238 H 0.66939 0.35874 0.65911 0.0
H3239 H 0.66959 0.37432 0.68248 0.0
C3240 C 0.65553 0.3664 0.76602 0.0
C3241 C 0.64022 0.36633 0.76148 0.0
C3242 C 0.66691 0.37089 0.75599 0.0
C3243 C 0.66325 0.37604 0.74133 0.0
C3244 C 0.64786 0.37679 0.737 0.0
C3245 C 0.63641 0.37196 0.74701 0.0
C3246 C 0.67568 0.37924 0.73029 0.0
C3247 C 0.67557 0.37153 0.71629 0.0
C3248 C 0.68862 0.388 0.73436 0.0
C3249 C 0.68904 0.39711 0.74859 0.0
C3250 C 0.67714 0.40722 0.75211 0.0
C3251 C 0.67715 0.41514 0.76589 0.0
C3252 C 0.68906 0.41313 0.77622 0.0
C3253 C 0.70103 0.40326 0.77275 0.0
C3254 C 0.70107 0.39531 0.75899 0.0
C3255 C 0.73057 0.38295 0.67966 0.0
C3256 C 0.74231 0.37358 0.68511 0.0
C3257 C 0.71737 0.38509 0.6883 0.0
C3258 C 0.71598 0.37826 0.70265 0.0
C3259 C 0.72798 0.36939 0.70832 0.0
C3260 C 0.74095 0.36685 0.6995 0.0
C3261 C 0.70166 0.37934 0.7114 0.0
C3262 C 0.7015 0.38781 0.7249 0.0
C3263 C 0.68845 0.37136 0.70687 0.0
C3264 C 0.68816 0.36193 0.69291 0.0
C3265 C 0.69831 0.3497 0.69116 0.0
C3266 C 0.69823 0.34105 0.67785 0.0
C3267 C 0.68784 0.34432 0.66628 0.0
C3268 C 0.67749 0.35626 0.66805 0.0
C3269 C 0.67761 0.36503 0.68132 0.0
H3270 H 0.68778 0.33758 0.65599 0.0
H3271 H 0.68902 0.41921 0.78692 0.0
H3272 H 0.10167 0.76089 0.82053 0.0
H3273 H 0.09818 0.78422 0.80562 0.0
H3274 H 0.1444 0.78055 0.78939 0.0
H3275 H 0.14809 0.75778 0.80464 0.0
H3276 H 0.14002 0.80755 0.79824 0.0
H3277 H 0.11151 0.77231 0.76713 0.0
H3278 H 0.09128 0.75406 0.76041 0.0
H3279 H 0.05724 0.78724 0.77165 0.0
H3280 H 0.07728 0.80561 0.77863 0.0
H3281 H 0.13523 0.83872 0.72157 0.0
H3282 H 0.12764 0.8201 0.74067 0.0
H3283 H 0.11822 0.85625 0.77242 0.0
H3284 H 0.12613 0.87506 0.75336 0.0
H3285 H 0.09991 0.81678 0.75971 0.0
H3286 H 0.13519 0.85032 0.79449 0.0
H3287 H 0.15919 0.86455 0.79814 0.0
H3288 H 0.18375 0.82974 0.7743 0.0
H3289 H 0.15988 0.81546 0.77035 0.0
C3290 C 0.11104 0.76509 0.81372 0.0
C3291 C 0.12522 0.75764 0.81387 0.0
C3292 C 0.10901 0.77836 0.80516 0.0
C3293 C 0.12102 0.78417 0.79639 0.0
C3294 C 0.135 0.77642 0.79621 0.0
C3295 C 0.13712 0.76339 0.80494 0.0
C3296 C 0.1196 0.79869 0.7879 0.0
C3297 C 0.13108 0.80959 0.78997 0.0
C3298 C 0.10792 0.80151 0.77716 0.0
C3299 C 0.09589 0.79023 0.77367 0.0
C3300 C 0.09971 0.77563 0.7684 0.0
C3301 C 0.08828 0.76528 0.76449 0.0
C3302 C 0.07298 0.76945 0.7657 0.0
C3303 C 0.06909 0.78398 0.77081 0.0
C3304 C 0.08048 0.79436 0.77475 0.0
C3305 C 0.13131 0.84274 0.73253 0.0
C3306 C 0.13146 0.85831 0.73606 0.0
C3307 C 0.12694 0.8321 0.7434 0.0
C3308 C 0.12264 0.83683 0.75798 0.0
C3309 C 0.12174 0.85241 0.76126 0.0
C3310 C 0.12611 0.86313 0.75034 0.0
C3311 C 0.12049 0.82523 0.76989 0.0
C3312 C 0.10841 0.81491 0.76846 0.0
C3313 C 0.13186 0.8226 0.78089 0.0
C3314 C 0.14577 0.83199 0.78193 0.0
C3315 C 0.14567 0.84589 0.78978 0.0
C3316 C 0.15925 0.8539 0.79197 0.0
C3317 C 0.17297 0.84799 0.78651 0.0
C3318 C 0.17311 0.83427 0.77853 0.0
C3319 C 0.15957 0.82626 0.77626 0.0
H3320 H 0.18353 0.85393 0.78857 0.0
H3321 H 0.06415 0.76145 0.76261 0.0
H3322 H 0.62785 0.63967 0.25736 0.0
H3323 H 0.64919 0.63403 0.27446 0.0
H3324 H 0.67268 0.61142 0.23785 0.0
H3325 H 0.6517 0.61779 0.22051 0.0
H3326 H 0.66944 0.60192 0.27879 0.0
H3327 H 0.69157 0.63197 0.23481 0.0
H3328 H 0.68974 0.65298 0.2163 0.0
H3329 H 0.67963 0.68422 0.25244 0.0
H3330 H 0.68111 0.66327 0.2711 0.0
H3331 H 0.74602 0.60325 0.30814 0.0
H3332 H 0.72293 0.60059 0.29286 0.0
H3333 H 0.71076 0.647 0.30317 0.0
H3334 H 0.734 0.64989 0.31804 0.0
H3335 H 0.70829 0.64264 0.27443 0.0
H3336 H 0.69212 0.61467 0.31869 0.0
H3337 H 0.69287 0.59469 0.33835 0.0
H3338 H 0.69061 0.56025 0.30383 0.0
H3339 H 0.69005 0.58002 0.28395 0.0
C3340 C 0.63733 0.633 0.25314 0.0
C3341 C 0.63816 0.62899 0.23773 0.0
C3342 C 0.64951 0.62987 0.26287 0.0
C3343 C 0.6625 0.62244 0.25733 0.0
C3344 C 0.66277 0.61727 0.24225 0.0
C3345 C 0.65078 0.62079 0.23242 0.0
C3346 C 0.67644 0.62198 0.26669 0.0
C3347 C 0.67812 0.61063 0.27775 0.0
C3348 C 0.68747 0.63358 0.2655 0.0
C3349 C 0.68614 0.64603 0.25427 0.0
C3350 C 0.68871 0.64327 0.23875 0.0
C3351 C 0.68782 0.65518 0.22826 0.0
C3352 C 0.68455 0.66993 0.23319 0.0
C3353 C 0.68212 0.67278 0.24863 0.0
C3354 C 0.68294 0.66089 0.25916 0.0
C3355 C 0.73838 0.61288 0.30721 0.0
C3356 C 0.74194 0.62685 0.31417 0.0
C3357 C 0.72511 0.61129 0.29855 0.0
C3358 C 0.71502 0.62356 0.29691 0.0
C3359 C 0.71839 0.63738 0.30419 0.0
C3360 C 0.73171 0.63904 0.31268 0.0
C3361 C 0.70153 0.62251 0.28676 0.0
C3362 C 0.69983 0.63371 0.2755 0.0
C3363 C 0.69054 0.61074 0.28787 0.0
C3364 C 0.69124 0.59884 0.29981 0.0
C3365 C 0.69196 0.60284 0.31528 0.0
C3366 C 0.69231 0.59155 0.32646 0.0
C3367 C 0.69184 0.57621 0.32234 0.0
C3368 C 0.69101 0.57213 0.30701 0.0
C3369 C 0.69067 0.58338 0.29578 0.0
H3370 H 0.69208 0.56749 0.33102 0.0
H3371 H 0.68389 0.67913 0.22505 0.0
H3372 H 0.88462 0.25076 0.79534 0.0
H3373 H 0.88797 0.22759 0.78013 0.0
H3374 H 0.86604 0.20129 0.81524 0.0
H3375 H 0.86205 0.22462 0.83019 0.0
H3376 H 0.89567 0.18825 0.79784 0.0
H3377 H 0.84379 0.20742 0.79329 0.0
H3378 H 0.82528 0.22813 0.78946 0.0
H3379 H 0.8446 0.2376 0.74564 0.0
H3380 H 0.86351 0.21716 0.7494 0.0
H3381 H 0.8666 0.12392 0.75656 0.0
H3382 H 0.87354 0.14467 0.77374 0.0
H3383 H 0.87843 0.17486 0.73535 0.0
H3384 H 0.87111 0.15425 0.71822 0.0
H3385 H 0.85898 0.186 0.75499 0.0
H3386 H 0.9089 0.1647 0.75786 0.0
H3387 H 0.9276 0.14413 0.76152 0.0
H3388 H 0.91258 0.13831 0.80759 0.0
H3389 H 0.8936 0.1587 0.80415 0.0
C3390 C 0.88067 0.23999 0.79983 0.0
C3391 C 0.8729 0.23938 0.81375 0.0
C3392 C 0.88269 0.2268 0.79124 0.0
C3393 C 0.87734 0.21278 0.79666 0.0
C3394 C 0.87034 0.21202 0.81097 0.0
C3395 C 0.86791 0.2253 0.81938 0.0
C3396 C 0.87712 0.19946 0.78643 0.0
C3397 C 0.8876 0.1876 0.78853 0.0
C3398 C 0.86677 0.19889 0.77418 0.0
C3399 C 0.85522 0.21094 0.77174 0.0
C3400 C 0.84422 0.21405 0.78292 0.0
C3401 C 0.83364 0.22572 0.78076 0.0
C3402 C 0.83381 0.23422 0.76734 0.0
C3403 C 0.84452 0.23103 0.75604 0.0
C3404 C 0.85518 0.21942 0.7582 0.0
C3405 C 0.86968 0.13484 0.75177 0.0
C3406 C 0.86824 0.13755 0.7361 0.0
C3407 C 0.87362 0.14671 0.76159 0.0
C3408 C 0.87643 0.16135 0.75583 0.0
C3409 C 0.8762 0.16369 0.74005 0.0
C3410 C 0.87209 0.15191 0.73028 0.0
C3411 C 0.87762 0.1746 0.7662 0.0
C3412 C 0.8672 0.18654 0.76418 0.0
C3413 C 0.88806 0.17517 0.77846 0.0
C3414 C 0.89973 0.16316 0.78071 0.0
C3415 C 0.90951 0.15898 0.76876 0.0
C3416 C 0.92017 0.14735 0.77079 0.0
C3417 C 0.92125 0.13989 0.78477 0.0
C3418 C 0.91172 0.1441 0.79677 0.0
C3419 C 0.90102 0.15571 0.79479 0.0
H3420 H 0.92949 0.13088 0.78631 0.0
H3421 H 0.8256 0.24324 0.76567 0.0
H3422 H 0.37366 0.37846 0.24857 0.0
H3423 H 0.35365 0.38874 0.26507 0.0
H3424 H 0.31967 0.36671 0.23717 0.0
H3425 H 0.33922 0.35825 0.21995 0.0
H3426 H 0.30702 0.38843 0.24697 0.0
H3427 H 0.33859 0.35083 0.27262 0.0
H3428 H 0.36237 0.34055 0.28345 0.0
H3429 H 0.36622 0.37953 0.31261 0.0
H3430 H 0.34251 0.39009 0.30184 0.0
H3431 H 0.25915 0.35104 0.30223 0.0
H3432 H 0.28129 0.35603 0.28612 0.0
H3433 H 0.28413 0.40167 0.30371 0.0
H3434 H 0.26173 0.39694 0.3197 0.0
H3435 H 0.31319 0.37541 0.30147 0.0
H3436 H 0.27422 0.40705 0.27503 0.0
H3437 H 0.24871 0.40967 0.26357 0.0
H3438 H 0.25758 0.37145 0.23451 0.0
H3439 H 0.28302 0.36848 0.24596 0.0
C3440 C 0.36186 0.37623 0.24579 0.0
C3441 C 0.35803 0.36703 0.2333 0.0
C3442 C 0.35043 0.38193 0.25534 0.0
C3443 C 0.33509 0.37801 0.25283 0.0
C3444 C 0.33133 0.36986 0.23962 0.0
C3445 C 0.34262 0.36474 0.22984 0.0
C3446 C 0.32291 0.3811 0.26423 0.0
C3447 C 0.30851 0.38564 0.25889 0.0
C3448 C 0.32464 0.37761 0.2799 0.0
C3449 C 0.33893 0.37134 0.28628 0.0
C3450 C 0.34457 0.35724 0.28127 0.0
C3451 C 0.35802 0.35136 0.2874 0.0
C3452 C 0.36583 0.35941 0.29866 0.0
C3453 C 0.36018 0.37333 0.30385 0.0
C3454 C 0.34675 0.37927 0.29774 0.0
C3455 C 0.26449 0.36214 0.30272 0.0
C3456 C 0.25869 0.3736 0.31222 0.0
C3457 C 0.27709 0.36496 0.29349 0.0
C3458 C 0.28421 0.37921 0.29375 0.0
C3459 C 0.27868 0.39063 0.30337 0.0
C3460 C 0.2659 0.3879 0.31244 0.0
C3461 C 0.2975 0.38194 0.2839 0.0
C3462 C 0.312 0.37858 0.2896 0.0
C3463 C 0.29571 0.3855 0.26837 0.0
C3464 C 0.28047 0.38749 0.26143 0.0
C3465 C 0.27067 0.39914 0.2663 0.0
C3466 C 0.25624 0.4007 0.25978 0.0
C3467 C 0.25152 0.39072 0.24834 0.0
C3468 C 0.26124 0.37917 0.24337 0.0
C3469 C 0.27566 0.37756 0.24986 0.0
H3470 H 0.24034 0.39194 0.24332 0.0
H3471 H 0.37624 0.35484 0.30341 0.0
H3472 H 0.27591 0.14923 0.16164 0.0
H3473 H 0.25898 0.13966 0.18059 0.0
H3474 H 0.2413 0.10683 0.14857 0.0
H3475 H 0.25643 0.11882 0.12837 0.0
H3476 H 0.2194 0.11473 0.16344 0.0
H3477 H 0.26707 0.0984 0.18228 0.0
H3478 H 0.29436 0.10069 0.18839 0.0
H3479 H 0.28439 0.13535 0.22126 0.0
H3480 H 0.2571 0.13346 0.21523 0.0
H3481 H 0.18029 0.09867 0.23669 0.0
H3482 H 0.1978 0.09375 0.21545 0.0
H3483 H 0.21208 0.14064 0.2164 0.0
H3484 H 0.19447 0.14575 0.23725 0.0
H3485 H 0.23616 0.11459 0.21729 0.0
H3486 H 0.1893 0.13356 0.19169 0.0
H3487 H 0.16215 0.13023 0.18556 0.0
H3488 H 0.17168 0.08656 0.16591 0.0
H3489 H 0.19889 0.08951 0.17225 0.0
C3490 C 0.26816 0.14034 0.15835 0.0
C3491 C 0.26708 0.13536 0.14326 0.0
C3492 C 0.2588 0.13432 0.16951 0.0
C3493 C 0.24913 0.12201 0.16637 0.0
C3494 C 0.24867 0.11628 0.15142 0.0
C3495 C 0.25741 0.12305 0.13989 0.0
C3496 C 0.23878 0.11627 0.17854 0.0
C3497 C 0.22325 0.11425 0.17514 0.0
C3498 C 0.24361 0.11523 0.19394 0.0
C3499 C 0.25997 0.11571 0.19832 0.0
C3500 C 0.27068 0.10646 0.19086 0.0
C3501 C 0.28617 0.10772 0.19428 0.0
C3502 C 0.2911 0.11814 0.20522 0.0
C3503 C 0.28055 0.12724 0.21284 0.0
C3504 C 0.26505 0.12602 0.20947 0.0
C3505 C 0.18712 0.10793 0.23229 0.0
C3506 C 0.18602 0.12261 0.23861 0.0
C3507 C 0.19708 0.10508 0.22021 0.0
C3508 C 0.20622 0.11682 0.21451 0.0
C3509 C 0.20511 0.13145 0.22075 0.0
C3510 C 0.19499 0.13437 0.23258 0.0
C3511 C 0.2171 0.1142 0.20203 0.0
C3512 C 0.23263 0.11448 0.20547 0.0
C3513 C 0.21235 0.11318 0.18675 0.0
C3514 C 0.19608 0.11166 0.18262 0.0
C3515 C 0.18559 0.12319 0.18619 0.0
C3516 C 0.17019 0.12138 0.18265 0.0
C3517 C 0.16517 0.10818 0.17538 0.0
C3518 C 0.17557 0.09677 0.17157 0.0
C3519 C 0.19098 0.0985 0.17515 0.0
H3520 H 0.15324 0.1068 0.17266 0.0
H3521 H 0.3031 0.11917 0.20777 0.0
H3522 H 0.36403 0.77953 0.6574 0.0
H3523 H 0.37198 0.7617 0.67673 0.0
H3524 H 0.38488 0.72946 0.64201 0.0
H3525 H 0.37552 0.74702 0.62243 0.0
H3526 H 0.36831 0.71581 0.66138 0.0
H3527 H 0.41161 0.74776 0.66787 0.0
H3528 H 0.42488 0.77236 0.67015 0.0
H3529 H 0.40073 0.78184 0.7115 0.0
H3530 H 0.38716 0.75741 0.70938 0.0
H3531 H 0.38917 0.6701 0.72784 0.0
H3532 H 0.39388 0.68596 0.70523 0.0
H3533 H 0.36128 0.71879 0.7215 0.0
H3534 H 0.35603 0.70267 0.74368 0.0
H3535 H 0.39405 0.72922 0.70978 0.0
H3536 H 0.3465 0.70217 0.69832 0.0
H3537 H 0.33163 0.67851 0.69642 0.0
H3538 H 0.364 0.66047 0.66461 0.0
H3539 H 0.3792 0.68403 0.66653 0.0
C3540 C 0.36877 0.76874 0.65382 0.0
C3541 C 0.36885 0.76454 0.63843 0.0
C3542 C 0.37357 0.75858 0.66493 0.0
C3543 C 0.37926 0.74422 0.66091 0.0
C3544 C 0.38054 0.74047 0.64541 0.0
C3545 C 0.37534 0.75056 0.63422 0.0
C3546 C 0.38192 0.73268 0.67298 0.0
C3547 C 0.3744 0.71862 0.67174 0.0
C3548 C 0.38961 0.73633 0.6867 0.0
C3549 C 0.39837 0.7507 0.68846 0.0
C3550 C 0.40914 0.75507 0.67747 0.0
C3551 C 0.4167 0.76901 0.67872 0.0
C3552 C 0.41365 0.77865 0.69096 0.0
C3553 C 0.40311 0.77434 0.70204 0.0
C3554 C 0.39552 0.76042 0.70084 0.0
C3555 C 0.383 0.68069 0.72648 0.0
C3556 C 0.37214 0.68518 0.73729 0.0
C3557 C 0.38576 0.68972 0.71369 0.0
C3558 C 0.378 0.70353 0.71186 0.0
C3559 C 0.36741 0.70818 0.72283 0.0
C3560 C 0.36431 0.69894 0.73536 0.0
C3561 C 0.3802 0.71283 0.69808 0.0
C3562 C 0.38855 0.72635 0.69912 0.0
C3563 C 0.37333 0.70874 0.68418 0.0
C3564 C 0.36408 0.69474 0.68274 0.0
C3565 C 0.35052 0.6931 0.69104 0.0
C3566 C 0.34202 0.67971 0.68994 0.0
C3567 C 0.3469 0.66794 0.68047 0.0
C3568 C 0.36026 0.66958 0.67199 0.0
C3569 C 0.36882 0.68295 0.67307 0.0
H3570 H 0.34031 0.65757 0.67965 0.0
H3571 H 0.41946 0.78947 0.69187 0.0
H3572 H 0.83317 0.87347 0.2241 0.0
H3573 H 0.81748 0.87684 0.2011 0.0
H3574 H 0.7769 0.87507 0.22864 0.0
H3575 H 0.79255 0.87196 0.25155 0.0
H3576 H 0.77883 0.85326 0.20474 0.0
H3577 H 0.78432 0.90691 0.21338 0.0
H3578 H 0.79748 0.93143 0.21677 0.0
H3579 H 0.81824 0.9267 0.17285 0.0
H3580 H 0.80535 0.90204 0.16926 0.0
H3581 H 0.71836 0.86768 0.1566 0.0
H3582 H 0.73713 0.87289 0.17637 0.0
H3583 H 0.77288 0.87262 0.14282 0.0
H3584 H 0.75402 0.86732 0.12283 0.0
H3585 H 0.77538 0.89589 0.16792 0.0
H3586 H 0.77466 0.84007 0.1622 0.0
H3587 H 0.76288 0.8147 0.15959 0.0
H3588 H 0.73351 0.82415 0.19743 0.0
H3589 H 0.74559 0.84932 0.20064 0.0
C3590 C 0.8209 0.87397 0.22515 0.0
C3591 C 0.81393 0.87229 0.2394 0.0
C3592 C 0.81199 0.87603 0.2121 0.0
C3593 C 0.79606 0.8763 0.21322 0.0
C3594 C 0.78918 0.87498 0.22757 0.0
C3595 C 0.79807 0.87311 0.24059 0.0
C3596 C 0.78646 0.87591 0.19941 0.0
C3597 C 0.77801 0.86267 0.19679 0.0
C3598 C 0.7858 0.88798 0.18876 0.0
C3599 C 0.79405 0.90249 0.19116 0.0
C3600 C 0.79189 0.91097 0.20454 0.0
C3601 C 0.79924 0.92494 0.20647 0.0
C3602 C 0.80874 0.93059 0.19506 0.0
C3603 C 0.81091 0.92229 0.1817 0.0
C3604 C 0.80358 0.90831 0.17971 0.0
C3605 C 0.73016 0.86917 0.15335 0.0
C3606 C 0.73475 0.86707 0.13821 0.0
C3607 C 0.74087 0.87205 0.16466 0.0
C3608 C 0.75638 0.87288 0.16106 0.0
C3609 C 0.76094 0.87199 0.14579 0.0
C3610 C 0.75016 0.86909 0.13439 0.0
C3611 C 0.76767 0.87335 0.17352 0.0
C3612 C 0.77641 0.8865 0.17585 0.0
C3613 C 0.76878 0.8612 0.18396 0.0
C3614 C 0.76086 0.84657 0.18152 0.0
C3615 C 0.76561 0.83675 0.16988 0.0
C3616 C 0.759 0.82236 0.16839 0.0
C3617 C 0.74735 0.81788 0.17823 0.0
C3618 C 0.74247 0.82767 0.18976 0.0
C3619 C 0.74929 0.84193 0.19151 0.0
H3620 H 0.74216 0.80679 0.17697 0.0
H3621 H 0.81438 0.94143 0.19655 0.0
H3622 H 0.65044 0.31334 0.73299 0.0
H3623 H 0.64659 0.29941 0.70921 0.0
H3624 H 0.59981 0.29115 0.72137 0.0
H3625 H 0.60343 0.30526 0.7451 0.0
H3626 H 0.61931 0.26451 0.71124 0.0
H3627 H 0.60378 0.31592 0.69614 0.0
H3628 H 0.60874 0.34349 0.69456 0.0
H3629 H 0.64951 0.33498 0.66904 0.0
H3630 H 0.64486 0.30736 0.67058 0.0
H3631 H 0.6106 0.22449 0.644 0.0
H3632 H 0.60335 0.2428 0.66374 0.0
H3633 H 0.639 0.27304 0.64842 0.0
H3634 H 0.64446 0.25584 0.62748 0.0
H3635 H 0.62121 0.2896 0.66074 0.0
H3636 H 0.64311 0.24261 0.67841 0.0
H3637 H 0.64481 0.21473 0.68118 0.0
H3638 H 0.60103 0.21398 0.70282 0.0
H3639 H 0.59907 0.24187 0.70015 0.0
C3640 C 0.63934 0.30854 0.73064 0.0
C3641 C 0.62725 0.31038 0.74096 0.0
C3642 C 0.63715 0.30067 0.71703 0.0
C3643 C 0.6229 0.29438 0.71357 0.0
C3644 C 0.61086 0.296 0.72387 0.0
C3645 C 0.61297 0.30406 0.7374 0.0
C3646 C 0.62075 0.28579 0.6993 0.0
C3647 C 0.6194 0.26996 0.70017 0.0
C3648 C 0.62157 0.29294 0.68495 0.0
C3649 C 0.62398 0.30957 0.68351 0.0
C3650 C 0.61381 0.31993 0.69021 0.0
C3651 C 0.61657 0.33557 0.68932 0.0
C3652 C 0.62944 0.34099 0.68172 0.0
C3653 C 0.63954 0.33078 0.67491 0.0
C3654 C 0.63682 0.31513 0.67575 0.0
C3655 C 0.61638 0.23535 0.64458 0.0
C3656 C 0.62822 0.23876 0.63449 0.0
C3657 C 0.61246 0.24571 0.65599 0.0
C3658 C 0.62114 0.25901 0.65818 0.0
C3659 C 0.63217 0.26285 0.64725 0.0
C3660 C 0.63542 0.25294 0.63532 0.0
C3661 C 0.62004 0.26804 0.6725 0.0
C3662 C 0.62081 0.28402 0.67173 0.0
C3663 C 0.61961 0.26096 0.68702 0.0
C3664 C 0.62089 0.24427 0.68897 0.0
C3665 C 0.63385 0.23648 0.68376 0.0
C3666 C 0.63485 0.22069 0.68529 0.0
C3667 C 0.62301 0.21259 0.69212 0.0
C3668 C 0.61018 0.22027 0.69752 0.0
C3669 C 0.60913 0.23607 0.69603 0.0
H3670 H 0.62378 0.20036 0.69326 0.0
H3671 H 0.6316 0.35309 0.6811 0.0
H3672 H 0.16885 0.88701 0.77068 0.0
H3673 H 0.18437 0.89015 0.79381 0.0
H3674 H 0.22224 0.86872 0.77097 0.0
H3675 H 0.20653 0.86485 0.74847 0.0
H3676 H 0.21625 0.85424 0.79523 0.0
H3677 H 0.22108 0.90781 0.78274 0.0
H3678 H 0.21263 0.93412 0.77793 0.0
H3679 H 0.19121 0.93555 0.82177 0.0
H3680 H 0.19938 0.90918 0.82677 0.0
H3681 H 0.28077 0.86684 0.84155 0.0
H3682 H 0.26239 0.87347 0.82176 0.0
H3683 H 0.22611 0.8721 0.8547 0.0
H3684 H 0.24458 0.8659 0.87476 0.0
H3685 H 0.22812 0.89816 0.82852 0.0
H3686 H 0.21427 0.83763 0.82782 0.0
H3687 H 0.22384 0.81124 0.82926 0.0
H3688 H 0.26572 0.82504 0.80826 0.0
H3689 H 0.25611 0.85132 0.80613 0.0
C3690 C 0.18057 0.8832 0.77068 0.0
C3691 C 0.18652 0.87537 0.75811 0.0
C3692 C 0.18946 0.88514 0.78378 0.0
C3693 C 0.20445 0.87955 0.78418 0.0
C3694 C 0.21064 0.8729 0.77103 0.0
C3695 C 0.20169 0.87061 0.75822 0.0
C3696 C 0.21312 0.87837 0.7986 0.0
C3697 C 0.21886 0.86396 0.80238 0.0
C3698 C 0.21613 0.89084 0.80833 0.0
C3699 C 0.21065 0.90644 0.80503 0.0
C3700 C 0.21437 0.91365 0.79126 0.0
C3701 C 0.20969 0.9286 0.78853 0.0
C3702 C 0.20134 0.93648 0.79951 0.0
C3703 C 0.19764 0.92942 0.81325 0.0
C3704 C 0.20229 0.91448 0.81604 0.0
C3705 C 0.26894 0.86839 0.84465 0.0
C3706 C 0.26406 0.86588 0.85964 0.0
C3707 C 0.25846 0.87201 0.83334 0.0
C3708 C 0.24293 0.87287 0.83678 0.0
C3709 C 0.23809 0.87136 0.85189 0.0
C3710 C 0.24864 0.86796 0.86332 0.0
C3711 C 0.23183 0.87435 0.82432 0.0
C3712 C 0.22535 0.8886 0.82124 0.0
C3713 C 0.22836 0.86187 0.81489 0.0
C3714 C 0.23472 0.84651 0.81736 0.0
C3715 C 0.2256 0.83504 0.82371 0.0
C3716 C 0.23096 0.82008 0.82448 0.0
C3717 C 0.24547 0.81652 0.81908 0.0
C3718 C 0.25457 0.82786 0.81267 0.0
C3719 C 0.24917 0.84278 0.81165 0.0
H3720 H 0.24961 0.80494 0.81973 0.0
H3721 H 0.19778 0.94807 0.7974 0.0
H3722 H 0.61572 0.6654 0.27267 0.0
H3723 H 0.61236 0.68133 0.29546 0.0
H3724 H 0.62507 0.72096 0.26939 0.0
H3725 H 0.6288 0.70501 0.2469 0.0
H3726 H 0.64234 0.7181 0.29337 0.0
H3727 H 0.5888 0.71638 0.28354 0.0
H3728 H 0.5634 0.70526 0.27924 0.0
H3729 H 0.56536 0.6833 0.3228 0.0
H3730 H 0.59086 0.69414 0.32729 0.0
H3731 H 0.62864 0.77835 0.34271 0.0
H3732 H 0.62253 0.76027 0.32256 0.0
H3733 H 0.62479 0.72335 0.35473 0.0
H3734 H 0.63103 0.74147 0.37508 0.0
H3735 H 0.59938 0.72326 0.32957 0.0
H3736 H 0.65663 0.72067 0.33442 0.0
H3737 H 0.6823 0.732 0.33657 0.0
H3738 H 0.6714 0.76406 0.30145 0.0
H3739 H 0.64592 0.75249 0.29864 0.0
C3740 C 0.61756 0.67755 0.27189 0.0
C3741 C 0.62267 0.68409 0.25827 0.0
C3742 C 0.61552 0.68664 0.2848 0.0
C3743 C 0.61846 0.70234 0.28411 0.0
C3744 C 0.62279 0.70888 0.27019 0.0
C3745 C 0.62497 0.69981 0.2574 0.0
C3746 C 0.61913 0.71167 0.29813 0.0
C3747 C 0.63283 0.71928 0.30114 0.0
C3748 C 0.60692 0.71292 0.30857 0.0
C3749 C 0.59185 0.7059 0.30565 0.0
C3750 C 0.58392 0.709 0.29211 0.0
C3751 C 0.56947 0.7028 0.28967 0.0
C3752 C 0.5628 0.69353 0.30071 0.0
C3753 C 0.57056 0.69045 0.31423 0.0
C3754 C 0.58501 0.69662 0.31673 0.0
C3755 C 0.62744 0.76643 0.34559 0.0
C3756 C 0.63038 0.76128 0.36041 0.0
C3757 C 0.62399 0.75613 0.33408 0.0
C3758 C 0.62341 0.74052 0.33719 0.0
C3759 C 0.6252 0.73539 0.35218 0.0
C3760 C 0.62865 0.74574 0.36378 0.0
C3761 C 0.62242 0.72971 0.32442 0.0
C3762 C 0.6088 0.72185 0.32173 0.0
C3763 C 0.63458 0.72827 0.31408 0.0
C3764 C 0.64938 0.73589 0.31648 0.0
C3765 C 0.65969 0.73022 0.32727 0.0
C3766 C 0.67422 0.73659 0.32852 0.0
C3767 C 0.6784 0.74884 0.3193 0.0
C3768 C 0.66812 0.75463 0.30865 0.0
C3769 C 0.65369 0.7481 0.30713 0.0
H3770 H 0.68963 0.75378 0.32036 0.0
H3771 H 0.55159 0.68878 0.29882 0.0
H3772 H 0.80275 0.1078 0.75132 0.0
H3773 H 0.78854 0.10512 0.77507 0.0
H3774 H 0.80605 0.14824 0.79052 0.0
H3775 H 0.82017 0.15116 0.76662 0.0
H3776 H 0.80748 0.12282 0.81244 0.0
H3777 H 0.77248 0.1483 0.7779 0.0
H3778 H 0.75744 0.15091 0.75438 0.0
H3779 H 0.73475 0.10872 0.76387 0.0
H3780 H 0.74986 0.10573 0.78733 0.0
H3781 H 0.7586 0.14687 0.8714 0.0
H3782 H 0.77614 0.14125 0.85071 0.0
H3783 H 0.74464 0.10778 0.83322 0.0
H3784 H 0.72649 0.11458 0.85324 0.0
H3785 H 0.75111 0.12469 0.81206 0.0
H3786 H 0.78248 0.10045 0.84847 0.0
H3787 H 0.79682 0.09713 0.87231 0.0
H3788 H 0.82643 0.13395 0.85998 0.0
H3789 H 0.81221 0.1376 0.83615 0.0
C3790 C 0.80358 0.11673 0.75976 0.0
C3791 C 0.81252 0.12974 0.75709 0.0
C3792 C 0.79547 0.11516 0.77331 0.0
C3793 C 0.7963 0.12647 0.7845 0.0
C3794 C 0.80534 0.13938 0.78198 0.0
C3795 C 0.81327 0.14109 0.76831 0.0
C3796 C 0.7874 0.12501 0.79867 0.0
C3797 C 0.79515 0.12332 0.81251 0.0
C3798 C 0.77134 0.12498 0.79851 0.0
C3799 C 0.76247 0.12668 0.78425 0.0
C3800 C 0.76444 0.13948 0.77487 0.0
C3801 C 0.75586 0.14105 0.76157 0.0
C3802 C 0.74519 0.12996 0.7576 0.0
C3803 C 0.74306 0.11728 0.76693 0.0
C3804 C 0.75162 0.11564 0.78022 0.0
C3805 C 0.75568 0.13799 0.86338 0.0
C3806 C 0.74132 0.13106 0.86383 0.0
C3807 C 0.76576 0.13469 0.85157 0.0
C3808 C 0.76185 0.12397 0.84036 0.0
C3809 C 0.74792 0.11615 0.84164 0.0
C3810 C 0.73761 0.1199 0.85312 0.0
C3811 C 0.77109 0.12265 0.82624 0.0
C3812 C 0.76343 0.12385 0.81226 0.0
C3813 C 0.78722 0.12191 0.82634 0.0
C3814 C 0.79607 0.11947 0.84057 0.0
C3815 C 0.79196 0.10793 0.85087 0.0
C3816 C 0.8001 0.10596 0.86439 0.0
C3817 C 0.81248 0.11537 0.86769 0.0
C3818 C 0.81682 0.12668 0.85743 0.0
C3819 C 0.80873 0.12869 0.8439 0.0
H3820 H 0.81875 0.11385 0.87818 0.0
H3821 H 0.73854 0.13122 0.74732 0.0
H3822 H 0.39211 0.32655 0.26937 0.0
H3823 H 0.3953 0.31145 0.29284 0.0
H3824 H 0.36401 0.27796 0.27522 0.0
H3825 H 0.36039 0.29316 0.25237 0.0
H3826 H 0.35515 0.2892 0.30194 0.0
H3827 H 0.40168 0.2705 0.27879 0.0
H3828 H 0.42784 0.27172 0.26872 0.0
H3829 H 0.4437 0.2897 0.31124 0.0
H3830 H 0.4176 0.28876 0.32151 0.0
H3831 H 0.36847 0.21731 0.3422 0.0
H3832 H 0.37526 0.23628 0.32298 0.0
H3833 H 0.37098 0.27188 0.35639 0.0
H3834 H 0.36474 0.25284 0.37588 0.0
H3835 H 0.39961 0.26349 0.32519 0.0
H3836 H 0.34227 0.29501 0.32991 0.0
H3837 H 0.31474 0.29122 0.33386 0.0
H3838 H 0.31949 0.24382 0.32319 0.0
H3839 H 0.34687 0.24748 0.3185 0.0
C3840 C 0.38607 0.31588 0.27058 0.0
C3841 C 0.37573 0.3111 0.25935 0.0
C3842 C 0.38798 0.30725 0.28387 0.0
C3843 C 0.37982 0.29364 0.28577 0.0
C3844 C 0.37029 0.2885 0.27404 0.0
C3845 C 0.36813 0.29722 0.26106 0.0
C3846 C 0.37931 0.28554 0.30049 0.0
C3847 C 0.36494 0.28376 0.30715 0.0
C3848 C 0.39211 0.27854 0.30728 0.0
C3849 C 0.40763 0.27982 0.30082 0.0
C3850 C 0.41069 0.27496 0.2859 0.0
C3851 C 0.42553 0.27552 0.28018 0.0
C3852 C 0.43741 0.28085 0.2893 0.0
C3853 C 0.43448 0.28563 0.30416 0.0
C3854 C 0.41967 0.28509 0.30993 0.0
C3855 C 0.36947 0.22913 0.34554 0.0
C3856 C 0.36623 0.23364 0.3605 0.0
C3857 C 0.37328 0.23993 0.33458 0.0
C3858 C 0.37344 0.25541 0.33831 0.0
C3859 C 0.37085 0.25994 0.35336 0.0
C3860 C 0.36743 0.24907 0.36447 0.0
C3861 C 0.37535 0.26676 0.32613 0.0
C3862 C 0.38995 0.26932 0.32018 0.0
C3863 C 0.3627 0.27422 0.31963 0.0
C3864 C 0.34676 0.27141 0.32442 0.0
C3865 C 0.33747 0.28373 0.32865 0.0
C3866 C 0.32185 0.28166 0.33077 0.0
C3867 C 0.31539 0.26726 0.3289 0.0
C3868 C 0.32454 0.25493 0.32481 0.0
C3869 C 0.34014 0.25699 0.32245 0.0
H3870 H 0.30329 0.26567 0.33061 0.0
H3871 H 0.4489 0.28121 0.28488 0.0
H3872 H 0.23583 0.17753 0.09904 0.0
H3873 H 0.21143 0.19033 0.09377 0.0
H3874 H 0.21731 0.21776 0.13398 0.0
H3875 H 0.24127 0.20506 0.13941 0.0
H3876 H 0.19068 0.19751 0.1322 0.0
H3877 H 0.22036 0.23545 0.10455 0.0
H3878 H 0.23612 0.24553 0.08367 0.0
H3879 H 0.2022 0.23201 0.05124 0.0
H3880 H 0.18631 0.22168 0.07194 0.0
H3881 H 0.15643 0.2735 0.13526 0.0
H3882 H 0.1743 0.25521 0.12466 0.0
H3883 H 0.13825 0.22221 0.12031 0.0
H3884 H 0.12022 0.24049 0.13136 0.0
H3885 H 0.17517 0.2388 0.09714 0.0
H3886 H 0.14774 0.19708 0.13001 0.0
H3887 H 0.13635 0.18795 0.15402 0.0
H3888 H 0.17033 0.21205 0.17951 0.0
H3889 H 0.18168 0.22155 0.15565 0.0
C3890 C 0.23195 0.18644 0.10662 0.0
C3891 C 0.24022 0.19005 0.11985 0.0
C3892 C 0.21812 0.19378 0.10352 0.0
C3893 C 0.21265 0.20493 0.11352 0.0
C3894 C 0.22139 0.20914 0.12616 0.0
C3895 C 0.23499 0.20176 0.12934 0.0
C3896 C 0.19695 0.21072 0.1126 0.0
C3897 C 0.18709 0.20628 0.12427 0.0
C3898 C 0.19235 0.22207 0.10222 0.0
C3899 C 0.20231 0.22746 0.08976 0.0
C3900 C 0.2164 0.23433 0.09294 0.0
C3901 C 0.22531 0.24019 0.08115 0.0
C3902 C 0.22021 0.23933 0.06612 0.0
C3903 C 0.20618 0.2326 0.06287 0.0
C3904 C 0.19723 0.22673 0.07462 0.0
C3905 C 0.15225 0.2624 0.13194 0.0
C3906 C 0.13699 0.25835 0.1343 0.0
C3907 C 0.16246 0.25198 0.12582 0.0
C3908 C 0.15764 0.23729 0.12193 0.0
C3909 C 0.14223 0.23341 0.12351 0.0
C3910 C 0.13194 0.2439 0.12965 0.0
C3911 C 0.16924 0.22607 0.11723 0.0
C3912 C 0.17835 0.22944 0.10452 0.0
C3913 C 0.17347 0.214 0.12693 0.0
C3914 C 0.16527 0.21032 0.14111 0.0
C3915 C 0.15248 0.20077 0.14076 0.0
C3916 C 0.14611 0.19546 0.15432 0.0
C3917 C 0.15258 0.19945 0.16826 0.0
C3918 C 0.16526 0.20904 0.16871 0.0
C3919 C 0.17159 0.21448 0.15519 0.0
H3920 H 0.14787 0.19495 0.17868 0.0
H3921 H 0.22709 0.24394 0.05702 0.0
H3922 H 0.22797 0.82437 0.85519 0.0
H3923 H 0.20466 0.8095 0.85819 0.0
H3924 H 0.2239 0.78744 0.89759 0.0
H3925 H 0.24756 0.80185 0.89408 0.0
H3926 H 0.2116 0.7672 0.87752 0.0
H3927 H 0.19525 0.81437 0.90113 0.0
H3928 H 0.19208 0.84225 0.90125 0.0
H3929 H 0.16404 0.8395 0.86137 0.0
H3930 H 0.16716 0.81163 0.86093 0.0
H3931 H 0.14582 0.72363 0.8854 0.0
H3932 H 0.16571 0.7417 0.89287 0.0
H3933 H 0.148 0.77422 0.86054 0.0
H3934 H 0.12728 0.75679 0.85444 0.0
H3935 H 0.15985 0.7895 0.88073 0.0
H3936 H 0.1785 0.74624 0.85268 0.0
H3937 H 0.18289 0.71899 0.84761 0.0
H3938 H 0.20731 0.71482 0.88969 0.0
H3939 H 0.20302 0.74205 0.89503 0.0
C3940 C 0.22726 0.81619 0.86433 0.0
C3941 C 0.23966 0.81394 0.87411 0.0
C3942 C 0.21386 0.80791 0.86624 0.0
C3943 C 0.21249 0.79741 0.87819 0.0
C3944 C 0.22471 0.79549 0.8883 0.0
C3945 C 0.23817 0.80376 0.88633 0.0
C3946 C 0.19864 0.78786 0.87956 0.0
C3947 C 0.20028 0.77204 0.87857 0.0
C3948 C 0.18388 0.79423 0.88032 0.0
C3949 C 0.18145 0.81091 0.881 0.0
C3950 C 0.18841 0.81972 0.8924 0.0
C3951 C 0.18663 0.83552 0.89251 0.0
C3952 C 0.17787 0.84264 0.88133 0.0
C3953 C 0.1708 0.83397 0.87005 0.0
C3954 C 0.17253 0.81817 0.86989 0.0
C3955 C 0.14592 0.73488 0.8804 0.0
C3956 C 0.13512 0.73892 0.86941 0.0
C3957 C 0.15741 0.74513 0.88445 0.0
C3958 C 0.1588 0.75916 0.87685 0.0
C3959 C 0.14733 0.76349 0.86656 0.0
C3960 C 0.13548 0.75352 0.86304 0.0
C3961 C 0.17273 0.76873 0.87848 0.0
C3962 C 0.17114 0.78458 0.87999 0.0
C3963 C 0.18758 0.76244 0.87758 0.0
C3964 C 0.1903 0.74612 0.87432 0.0
C3965 C 0.18476 0.73949 0.86087 0.0
C3966 C 0.18723 0.72406 0.85795 0.0
C3967 C 0.19531 0.71517 0.86835 0.0
C3968 C 0.20102 0.72171 0.88166 0.0
C3969 C 0.1986 0.73715 0.88463 0.0
H3970 H 0.19719 0.70322 0.86608 0.0
H3971 H 0.17656 0.85488 0.8814 0.0
H3972 H 0.70522 0.75249 0.37888 0.0
H3973 H 0.72043 0.7292 0.38143 0.0
H3974 H 0.68207 0.70247 0.36651 0.0
H3975 H 0.6669 0.72588 0.36369 0.0
H3976 H 0.7008 0.69037 0.39332 0.0
H3977 H 0.70409 0.70724 0.34117 0.0
H3978 H 0.70798 0.7263 0.32096 0.0
H3979 H 0.75308 0.73506 0.33755 0.0
H3980 H 0.7494 0.71615 0.35797 0.0
H3981 H 0.74241 0.62421 0.36808 0.0
H3982 H 0.72488 0.64518 0.37343 0.0
H3983 H 0.76289 0.67608 0.37674 0.0
H3984 H 0.78036 0.65526 0.37106 0.0
H3985 H 0.74306 0.68558 0.35622 0.0
H3986 H 0.74043 0.66774 0.40772 0.0
H3987 H 0.73678 0.64843 0.42771 0.0
H3988 H 0.69088 0.64114 0.41265 0.0
H3989 H 0.69432 0.6603 0.39243 0.0
C3990 C 0.70008 0.74161 0.37623 0.0
C3991 C 0.68509 0.74084 0.37085 0.0
C3992 C 0.70869 0.72837 0.37776 0.0
C3993 C 0.70233 0.71417 0.37417 0.0
C3994 C 0.68711 0.71333 0.3694 0.0
C3995 C 0.67855 0.72664 0.36766 0.0
C3996 C 0.71208 0.70049 0.37408 0.0
C3997 C 0.70995 0.68917 0.38514 0.0
C3998 C 0.72411 0.69913 0.36353 0.0
C3999 C 0.72641 0.71041 0.35119 0.0
C4000 C 0.71479 0.71333 0.34059 0.0
C4001 C 0.71696 0.72408 0.32909 0.0
C4002 C 0.73074 0.73194 0.32802 0.0
C4003 C 0.7424 0.72899 0.33841 0.0
C4004 C 0.74029 0.71824 0.34994 0.0
C4005 C 0.74703 0.63537 0.37049 0.0
C4006 C 0.76271 0.63817 0.36908 0.0
C4007 C 0.73701 0.64736 0.3735 0.0
C4008 C 0.74257 0.66223 0.37538 0.0
C4009 C 0.75834 0.66473 0.3752 0.0
C4010 C 0.76831 0.65282 0.37204 0.0
C4011 C 0.73206 0.67543 0.37566 0.0
C4012 C 0.73398 0.68669 0.36451 0.0
C4013 C 0.71989 0.67666 0.38613 0.0
C4014 C 0.71768 0.66537 0.39848 0.0
C4015 C 0.72958 0.66196 0.40861 0.0
C4016 C 0.72755 0.65105 0.41999 0.0
C4017 C 0.71362 0.64353 0.42142 0.0
C4018 C 0.70167 0.64697 0.41152 0.0
C4019 C 0.70365 0.65787 0.40011 0.0
H4020 H 0.71207 0.63507 0.43022 0.0
H4021 H 0.73239 0.74027 0.31911 0.0
H4022 H 0.75788 0.19519 0.8483 0.0
H4023 H 0.78098 0.2102 0.85204 0.0
H4024 H 0.78218 0.19694 0.89925 0.0
H4025 H 0.7588 0.18232 0.89574 0.0
H4026 H 0.79022 0.22601 0.89635 0.0
H4027 H 0.80417 0.17908 0.87334 0.0
H4028 H 0.80106 0.15881 0.85433 0.0
H4029 H 0.8133 0.18991 0.81873 0.0
H4030 H 0.81596 0.21057 0.83751 0.0
H4031 H 0.87548 0.24301 0.87057 0.0
H4032 H 0.85566 0.22496 0.87842 0.0
H4033 H 0.822 0.26054 0.87481 0.0
H4034 H 0.84167 0.27853 0.86767 0.0
H4035 H 0.83312 0.21607 0.86102 0.0
H4036 H 0.79237 0.25543 0.89506 0.0
H4037 H 0.79463 0.27639 0.91354 0.0
H4038 H 0.83754 0.25872 0.92876 0.0
H4039 H 0.83548 0.23756 0.91047 0.0
C4040 C 0.76301 0.19553 0.85949 0.0
C4041 C 0.75658 0.18747 0.87168 0.0
C4042 C 0.77622 0.20409 0.86162 0.0
C4043 C 0.78346 0.20444 0.87586 0.0
C4044 C 0.77681 0.19679 0.88816 0.0
C4045 C 0.76347 0.18841 0.8861 0.0
C4046 C 0.79828 0.21231 0.8777 0.0
C4047 C 0.79966 0.22376 0.88874 0.0
C4048 C 0.81077 0.20902 0.86809 0.0
C4049 C 0.8102 0.19641 0.85685 0.0
C4050 C 0.8062 0.18162 0.86146 0.0
C4051 C 0.80448 0.17005 0.85071 0.0
C4052 C 0.80701 0.17304 0.83531 0.0
C4053 C 0.81134 0.18761 0.83066 0.0
C4054 C 0.81295 0.19926 0.84136 0.0
C4055 C 0.86394 0.24705 0.87206 0.0
C4056 C 0.86006 0.26213 0.86846 0.0
C4057 C 0.85261 0.23672 0.87639 0.0
C4058 C 0.83734 0.24139 0.87728 0.0
C4059 C 0.8337 0.25668 0.87454 0.0
C4060 C 0.84496 0.26696 0.87035 0.0
C4061 C 0.82486 0.2302 0.87927 0.0
C4062 C 0.82387 0.21808 0.86893 0.0
C4063 C 0.81286 0.2327 0.88971 0.0
C4064 C 0.81375 0.24489 0.90138 0.0
C4065 C 0.80219 0.2559 0.90248 0.0
C4066 C 0.80348 0.26786 0.91288 0.0
C4067 C 0.81622 0.26889 0.92231 0.0
C4068 C 0.82768 0.25792 0.92143 0.0
C4069 C 0.82647 0.24594 0.91104 0.0
H4070 H 0.81722 0.27819 0.9303 0.0
H4071 H 0.80558 0.16409 0.82698 0.0
H4072 H 0.30059 0.24717 0.3939 0.0
H4073 H 0.28612 0.27067 0.39805 0.0
H4074 H 0.31243 0.29296 0.36311 0.0
H4075 H 0.32727 0.26964 0.35947 0.0
H4076 H 0.30682 0.31216 0.38519 0.0
H4077 H 0.27748 0.27635 0.35578 0.0
H4078 H 0.26439 0.25212 0.35046 0.0
H4079 H 0.23573 0.25871 0.38943 0.0
H4080 H 0.24882 0.28289 0.39513 0.0
H4081 H 0.25835 0.36745 0.35325 0.0
H4082 H 0.27554 0.34698 0.36058 0.0
H4083 H 0.24207 0.33037 0.39253 0.0
H4084 H 0.22434 0.35023 0.38406 0.0
H4085 H 0.25115 0.30838 0.37686 0.0
H4086 H 0.27923 0.34793 0.4026 0.0
H4087 H 0.292 0.37286 0.40444 0.0
H4088 H 0.32302 0.35992 0.36903 0.0
H4089 H 0.31035 0.33502 0.36684 0.0
C4090 C 0.30335 0.25717 0.38725 0.0
C4091 C 0.3146 0.25656 0.37593 0.0
C4092 C 0.29507 0.27054 0.38958 0.0
C4093 C 0.29792 0.28345 0.3806 0.0
C4094 C 0.30986 0.28308 0.37 0.0
C4095 C 0.31814 0.26974 0.36772 0.0
C4096 C 0.28794 0.29702 0.38141 0.0
C4097 C 0.29463 0.31138 0.3834 0.0
C4098 C 0.27202 0.29596 0.3793 0.0
C4099 C 0.26429 0.28131 0.37602 0.0
C4100 C 0.2685 0.27255 0.36331 0.0
C4101 C 0.26106 0.25884 0.36021 0.0
C4102 C 0.24928 0.25385 0.36964 0.0
C4103 C 0.2449 0.26257 0.38217 0.0
C4104 C 0.25233 0.27627 0.38535 0.0
C4105 C 0.25485 0.3596 0.36208 0.0
C4106 C 0.24018 0.36036 0.36822 0.0
C4107 C 0.26473 0.34796 0.3664 0.0
C4108 C 0.2603 0.33723 0.37739 0.0
C4109 C 0.2458 0.33852 0.38407 0.0
C4110 C 0.23572 0.34987 0.37934 0.0
C4111 C 0.26998 0.32369 0.38047 0.0
C4112 C 0.26325 0.30926 0.37914 0.0
C4113 C 0.2859 0.32475 0.38289 0.0
C4114 C 0.2938 0.3396 0.38454 0.0
C4115 C 0.28876 0.35041 0.39519 0.0
C4116 C 0.29598 0.36455 0.39628 0.0
C4117 C 0.3083 0.36797 0.38685 0.0
C4118 C 0.31348 0.35725 0.37635 0.0
C4119 C 0.30631 0.34311 0.3752 0.0
H4120 H 0.31384 0.37893 0.38769 0.0
H4121 H 0.24351 0.24324 0.3672 0.0
H4122 H 0.77288 0.83301 0.1309 0.0
H4123 H 0.79639 0.81815 0.12738 0.0
H4124 H 0.76982 0.77993 0.11192 0.0
H4125 H 0.74644 0.79495 0.11479 0.0
H4126 H 0.79138 0.77945 0.14166 0.0
H4127 H 0.78683 0.78701 0.08758 0.0
H4128 H 0.78475 0.80169 0.06381 0.0
H4129 H 0.82741 0.82353 0.07328 0.0
H4130 H 0.82959 0.80917 0.09729 0.0
H4131 H 0.84231 0.72066 0.12775 0.0
H4132 H 0.82237 0.73902 0.12172 0.0
H4133 H 0.85435 0.77578 0.12729 0.0
H4134 H 0.8745 0.75734 0.13333 0.0
H4135 H 0.83125 0.77849 0.10168 0.0
H4136 H 0.83071 0.77628 0.15896 0.0
H4137 H 0.8318 0.76244 0.18343 0.0
H4138 H 0.79891 0.73034 0.16697 0.0
H4139 H 0.79739 0.74423 0.14257 0.0
C4140 C 0.77219 0.82155 0.12642 0.0
C4141 C 0.75803 0.81501 0.12308 0.0
C4142 C 0.78554 0.81315 0.12433 0.0
C4143 C 0.78477 0.79808 0.11917 0.0
C4144 C 0.77061 0.79166 0.11559 0.0
C4145 C 0.75732 0.80018 0.1173 0.0
C4146 C 0.79835 0.78828 0.11991 0.0
C4147 C 0.80002 0.77917 0.13284 0.0
C4148 C 0.80973 0.78822 0.10856 0.0
C4149 C 0.80821 0.79724 0.0944 0.0
C4150 C 0.79562 0.79516 0.08476 0.0
C4151 C 0.79446 0.80336 0.07119 0.0
C4152 C 0.8059 0.8136 0.06707 0.0
C4153 C 0.81852 0.81564 0.07651 0.0
C4154 C 0.81972 0.80748 0.09011 0.0
C4155 C 0.84521 0.73262 0.12723 0.0
C4156 C 0.85991 0.7376 0.131 0.0
C4157 C 0.8338 0.74309 0.12389 0.0
C4158 C 0.83687 0.75871 0.12432 0.0
C4159 C 0.85181 0.76373 0.12693 0.0
C4160 C 0.86331 0.75321 0.13024 0.0
C4161 C 0.82411 0.76959 0.12335 0.0
C4162 C 0.82262 0.77891 0.11049 0.0
C4163 C 0.81277 0.76989 0.13471 0.0
C4164 C 0.81415 0.76109 0.14895 0.0
C4165 C 0.82386 0.76617 0.16055 0.0
C4166 C 0.82446 0.75841 0.17442 0.0
C4167 C 0.81555 0.74545 0.17669 0.0
C4168 C 0.80587 0.74032 0.16516 0.0
C4169 C 0.80508 0.74818 0.15136 0.0
H4170 H 0.81608 0.73942 0.18741 0.0
H4171 H 0.80501 0.81989 0.05654 0.0
H4172 H 0.77824 0.34289 0.62335 0.0
H4173 H 0.75969 0.32279 0.61774 0.0
H4174 H 0.72317 0.3528 0.63077 0.0
H4175 H 0.74161 0.37312 0.63578 0.0
H4176 H 0.73568 0.31698 0.64617 0.0
H4177 H 0.71054 0.34846 0.60555 0.0
H4178 H 0.71381 0.36409 0.58247 0.0
H4179 H 0.73713 0.32719 0.56056 0.0
H4180 H 0.73415 0.31143 0.58363 0.0
H4181 H 0.6731 0.26876 0.64686 0.0
H4182 H 0.68804 0.29202 0.64407 0.0
H4183 H 0.70951 0.27364 0.60397 0.0
H4184 H 0.69414 0.2505 0.60639 0.0
H4185 H 0.70494 0.30391 0.60063 0.0
H4186 H 0.72789 0.27125 0.63753 0.0
H4187 H 0.72794 0.25438 0.65991 0.0
H4188 H 0.71329 0.29141 0.68816 0.0
H4189 H 0.71291 0.30841 0.66582 0.0
C4190 C 0.76621 0.34533 0.62442 0.0
C4191 C 0.76127 0.35952 0.62977 0.0
C4192 C 0.75567 0.33389 0.62126 0.0
C4193 C 0.74012 0.33644 0.6237 0.0
C4194 C 0.73511 0.35079 0.62848 0.0
C4195 C 0.74562 0.36237 0.63129 0.0
C4196 C 0.7295 0.32349 0.62341 0.0
C4197 C 0.72875 0.31423 0.63633 0.0
C4198 C 0.72103 0.31968 0.61035 0.0
C4199 C 0.7222 0.32884 0.5963 0.0
C4200 C 0.71641 0.34372 0.59582 0.0
C4201 C 0.71821 0.35259 0.58275 0.0
C4202 C 0.72569 0.34664 0.57006 0.0
C4203 C 0.73133 0.33178 0.5704 0.0
C4204 C 0.72957 0.32287 0.58346 0.0
C4205 C 0.68098 0.26969 0.63743 0.0
C4206 C 0.68268 0.25773 0.62701 0.0
C4207 C 0.68945 0.283 0.63581 0.0
C4208 C 0.70008 0.28445 0.62396 0.0
C4209 C 0.70138 0.27276 0.61319 0.0
C4210 C 0.69268 0.25952 0.61466 0.0
C4211 C 0.71066 0.29759 0.62367 0.0
C4212 C 0.71165 0.30674 0.61059 0.0
C4213 C 0.71967 0.30117 0.63653 0.0
C4214 C 0.72031 0.29109 0.65003 0.0
C4215 C 0.72465 0.27577 0.64851 0.0
C4216 C 0.72474 0.26618 0.66118 0.0
C4217 C 0.72065 0.27181 0.67546 0.0
C4218 C 0.71648 0.28706 0.6771 0.0
C4219 C 0.71634 0.29668 0.66445 0.0
H4220 H 0.7207 0.26435 0.68525 0.0
H4221 H 0.72711 0.35354 0.55997 0.0
H4222 H 0.25502 0.62355 0.63651 0.0
H4223 H 0.27294 0.6441 0.63054 0.0
H4224 H 0.2357 0.67232 0.61567 0.0
H4225 H 0.21767 0.65206 0.6223 0.0
H4226 H 0.2753 0.66662 0.60057 0.0
H4227 H 0.23666 0.69035 0.63727 0.0
H4228 H 0.2207 0.68808 0.66026 0.0
H4229 H 0.25906 0.67128 0.68543 0.0
H4230 H 0.27515 0.67326 0.66249 0.0
H4231 H 0.30682 0.74243 0.60296 0.0
H4232 H 0.29139 0.7194 0.60047 0.0
H4233 H 0.30692 0.70425 0.64448 0.0
H4234 H 0.32194 0.72739 0.64724 0.0
H4235 H 0.27771 0.70301 0.6436 0.0
H4236 H 0.31762 0.68692 0.61002 0.0
H4237 H 0.33502 0.68821 0.58807 0.0
H4238 H 0.29688 0.68901 0.55758 0.0
H4239 H 0.27923 0.68795 0.57936 0.0
C4240 C 0.25074 0.63393 0.63142 0.0
C4241 C 0.23502 0.63625 0.62972 0.0
C4242 C 0.26095 0.64567 0.62812 0.0
C4243 C 0.25558 0.65972 0.62282 0.0
C4244 C 0.24001 0.66158 0.61989 0.0
C4245 C 0.22976 0.65 0.62355 0.0
C4246 C 0.26593 0.67294 0.62224 0.0
C4247 C 0.27576 0.67475 0.60983 0.0
C4248 C 0.26672 0.68323 0.63452 0.0
C4249 C 0.25698 0.68164 0.64814 0.0
C4250 C 0.24161 0.68597 0.64766 0.0
C4251 C 0.23257 0.68482 0.66069 0.0
C4252 C 0.23885 0.6795 0.67429 0.0
C4253 C 0.25419 0.67536 0.67489 0.0
C4254 C 0.26326 0.67646 0.66187 0.0
C4255 C 0.30711 0.73408 0.61201 0.0
C4256 C 0.31545 0.73683 0.6254 0.0
C4257 C 0.29833 0.72087 0.61053 0.0
C4258 C 0.29797 0.71006 0.62229 0.0
C4259 C 0.30691 0.71247 0.63531 0.0
C4260 C 0.31549 0.72572 0.63688 0.0
C4261 C 0.28727 0.69697 0.62181 0.0
C4262 C 0.27731 0.69508 0.63416 0.0
C4263 C 0.28649 0.68665 0.60945 0.0
C4264 C 0.29709 0.68754 0.59635 0.0
C4265 C 0.31293 0.68755 0.59865 0.0
C4266 C 0.32284 0.6882 0.58623 0.0
C4267 C 0.31706 0.68875 0.57145 0.0
C4268 C 0.30134 0.68862 0.56904 0.0
C4269 C 0.29138 0.68799 0.58142 0.0
H4270 H 0.32475 0.68922 0.56185 0.0
H4271 H 0.23183 0.6786 0.68436 0.0
H4272 H 0.85389 0.87202 0.75905 0.0
H4273 H 0.85813 0.85074 0.77588 0.0
H4274 H 0.89491 0.83532 0.74703 0.0
H4275 H 0.88818 0.85506 0.72854 0.0
H4276 H 0.88109 0.81307 0.75247 0.0
H4277 H 0.89626 0.85119 0.78949 0.0
H4278 H 0.89301 0.87507 0.80388 0.0
H4279 H 0.85096 0.85848 0.8224 0.0
H4280 H 0.85391 0.83458 0.80808 0.0
H4281 H 0.89395 0.75224 0.80561 0.0
H4282 H 0.89727 0.77591 0.79132 0.0
H4283 H 0.85234 0.79036 0.80473 0.0
H4284 H 0.84892 0.76682 0.81901 0.0
H4285 H 0.8742 0.81282 0.80837 0.0
H4286 H 0.85782 0.7768 0.77009 0.0
H4287 H 0.85928 0.75347 0.75462 0.0
H4288 H 0.90341 0.7667 0.73838 0.0
H4289 H 0.90228 0.79005 0.7539 0.0
C4290 C 0.86299 0.86416 0.75646 0.0
C4291 C 0.87058 0.86497 0.74252 0.0
C4292 C 0.86572 0.85208 0.76632 0.0
C4293 C 0.87715 0.84134 0.76315 0.0
C4294 C 0.8859 0.84324 0.74983 0.0
C4295 C 0.88229 0.85467 0.73935 0.0
C4296 C 0.87855 0.82717 0.77247 0.0
C4297 C 0.88011 0.81321 0.76476 0.0
C4298 C 0.87668 0.82698 0.78852 0.0
C4299 C 0.87534 0.84108 0.79771 0.0
C4300 C 0.88636 0.85262 0.79667 0.0
C4301 C 0.88455 0.86617 0.8048 0.0
C4302 C 0.87179 0.86828 0.81405 0.0
C4303 C 0.86086 0.85682 0.81528 0.0
C4304 C 0.86263 0.84325 0.80721 0.0
C4305 C 0.88477 0.76045 0.80552 0.0
C4306 C 0.87112 0.7576 0.81338 0.0
C4307 C 0.88668 0.77394 0.79732 0.0
C4308 C 0.87503 0.78484 0.79694 0.0
C4309 C 0.86147 0.78209 0.80489 0.0
C4310 C 0.8595 0.76857 0.81297 0.0
C4311 C 0.87684 0.79915 0.78828 0.0
C4312 C 0.87576 0.81298 0.79613 0.0
C4313 C 0.87926 0.79926 0.77242 0.0
C4314 C 0.88007 0.78505 0.76335 0.0
C4315 C 0.86792 0.77464 0.76338 0.0
C4316 C 0.86867 0.76143 0.75456 0.0
C4317 C 0.88147 0.75856 0.74558 0.0
C4318 C 0.89353 0.76891 0.74538 0.0
C4319 C 0.89284 0.78213 0.75418 0.0
H4320 H 0.88201 0.74834 0.73874 0.0
H4321 H 0.87037 0.87881 0.82027 0.0
H4322 H 0.65648 0.37027 0.22098 0.0
H4323 H 0.67596 0.37642 0.2398 0.0
H4324 H 0.64286 0.37199 0.27569 0.0
H4325 H 0.62315 0.36586 0.25677 0.0
H4326 H 0.66963 0.39892 0.2753 0.0
H4327 H 0.66179 0.34187 0.2811 0.0
H4328 H 0.65813 0.31602 0.27066 0.0
H4329 H 0.69306 0.32417 0.23755 0.0
H4330 H 0.69733 0.34982 0.2482 0.0
H4331 H 0.72959 0.38633 0.33104 0.0
H4332 H 0.70578 0.38875 0.31653 0.0
H4333 H 0.72776 0.36837 0.27761 0.0
H4334 H 0.75106 0.36513 0.29241 0.0
H4335 H 0.70338 0.35431 0.28256 0.0
H4336 H 0.71586 0.40788 0.28054 0.0
H4337 H 0.72144 0.43355 0.29039 0.0
H4338 H 0.67871 0.43404 0.31402 0.0
H4339 H 0.67294 0.40831 0.30447 0.0
C4340 C 0.65323 0.37114 0.23283 0.0
C4341 C 0.63834 0.36769 0.23744 0.0
C4342 C 0.66436 0.37459 0.24355 0.0
C4343 C 0.6608 0.37459 0.25907 0.0
C4344 C 0.64573 0.37216 0.26372 0.0
C4345 C 0.63449 0.36878 0.25292 0.0
C4346 C 0.67335 0.37531 0.27019 0.0
C4347 C 0.67693 0.38916 0.27721 0.0
C4348 C 0.68295 0.36266 0.2723 0.0
C4349 C 0.67974 0.34773 0.2653 0.0
C4350 C 0.6686 0.33815 0.27153 0.0
C4351 C 0.66651 0.32351 0.26567 0.0
C4352 C 0.67525 0.31851 0.25337 0.0
C4353 C 0.68625 0.32808 0.24703 0.0
C4354 C 0.68859 0.34261 0.25304 0.0
C4355 C 0.72925 0.38253 0.31932 0.0
C4356 C 0.74194 0.37537 0.31279 0.0
C4357 C 0.71573 0.38403 0.31101 0.0
C4358 C 0.71492 0.37875 0.29594 0.0
C4359 C 0.728 0.37239 0.28925 0.0
C4360 C 0.7413 0.37052 0.29767 0.0
C4361 C 0.70024 0.37815 0.28753 0.0
C4362 C 0.69614 0.36418 0.28099 0.0
C4363 C 0.69036 0.39081 0.28581 0.0
C4364 C 0.69407 0.40607 0.29196 0.0
C4365 C 0.70774 0.41338 0.288 0.0
C4366 C 0.71091 0.42797 0.29348 0.0
C4367 C 0.70046 0.4354 0.30287 0.0
C4368 C 0.68681 0.42826 0.30679 0.0
C4369 C 0.68359 0.41368 0.30134 0.0
H4370 H 0.70292 0.4467 0.30707 0.0
H4371 H 0.67353 0.30722 0.2488 0.0
H4372 H 0.11524 0.13219 0.73914 0.0
H4373 H 0.10525 0.15149 0.75698 0.0
H4374 H 0.14909 0.17352 0.75741 0.0
H4375 H 0.15881 0.15472 0.74021 0.0
H4376 H 0.1363 0.16874 0.78662 0.0
H4377 H 0.1248 0.18999 0.7362 0.0
H4378 H 0.11286 0.1876 0.71091 0.0
H4379 H 0.06931 0.18052 0.73188 0.0
H4380 H 0.08106 0.1828 0.75731 0.0
H4381 H 0.14205 0.24753 0.79465 0.0
H4382 H 0.13835 0.22347 0.7812 0.0
H4383 H 0.09763 0.21494 0.80715 0.0
H4384 H 0.10144 0.23898 0.82095 0.0
H4385 H 0.10172 0.20954 0.76849 0.0
H4386 H 0.11576 0.19259 0.82062 0.0
H4387 H 0.13086 0.19454 0.84423 0.0
H4388 H 0.17216 0.1943 0.81817 0.0
H4389 H 0.15727 0.19222 0.79443 0.0
C4390 C 0.12264 0.14122 0.74307 0.0
C4391 C 0.13774 0.14217 0.73788 0.0
C4392 C 0.11696 0.15216 0.75322 0.0
C4393 C 0.12649 0.16387 0.75846 0.0
C4394 C 0.14156 0.16457 0.75349 0.0
C4395 C 0.14708 0.15388 0.74333 0.0
C4396 C 0.12111 0.17592 0.76878 0.0
C4397 C 0.1284 0.17746 0.78287 0.0
C4398 C 0.11095 0.18731 0.76378 0.0
C4399 C 0.10378 0.18651 0.74859 0.0
C4400 C 0.11268 0.18793 0.73539 0.0
C4401 C 0.10596 0.18659 0.72105 0.0
C4402 C 0.09034 0.18389 0.71979 0.0
C4403 C 0.0814 0.18262 0.73288 0.0
C4404 C 0.08807 0.18396 0.74725 0.0
C4405 C 0.13228 0.24056 0.79745 0.0
C4406 C 0.12223 0.2449 0.80905 0.0
C4407 C 0.13012 0.22692 0.78969 0.0
C4408 C 0.11775 0.21752 0.79326 0.0
C4409 C 0.1072 0.22215 0.80426 0.0
C4410 C 0.10941 0.23581 0.81211 0.0
C4411 C 0.11693 0.2023 0.78631 0.0
C4412 C 0.10881 0.20037 0.77271 0.0
C4413 C 0.12649 0.19057 0.79165 0.0
C4414 C 0.13543 0.1922 0.80581 0.0
C4415 C 0.12806 0.19299 0.81995 0.0
C4416 C 0.13657 0.19404 0.83334 0.0
C4417 C 0.15246 0.19433 0.8327 0.0
C4418 C 0.15986 0.19385 0.81865 0.0
C4419 C 0.1514 0.19269 0.80524 0.0
H4420 H 0.15904 0.19506 0.84308 0.0
H4421 H 0.08516 0.18281 0.70868 0.0
H4422 H 0.36985 0.64783 0.25825 0.0
H4423 H 0.34988 0.63941 0.27559 0.0
H4424 H 0.3376 0.60372 0.24414 0.0
H4425 H 0.35694 0.613 0.22629 0.0
H4426 H 0.31405 0.61746 0.25055 0.0
H4427 H 0.35295 0.59815 0.28164 0.0
H4428 H 0.37662 0.59658 0.29654 0.0
H4429 H 0.36014 0.63102 0.32693 0.0
H4430 H 0.33661 0.63325 0.31195 0.0
H4431 H 0.25312 0.60279 0.30425 0.0
H4432 H 0.27655 0.59845 0.28973 0.0
H4433 H 0.29359 0.64214 0.3041 0.0
H4434 H 0.27022 0.64667 0.31843 0.0
H4435 H 0.31468 0.61716 0.30687 0.0
H4436 H 0.27843 0.63911 0.2706 0.0
H4437 H 0.25483 0.63931 0.25543 0.0
H4438 H 0.26705 0.5965 0.23538 0.0
H4439 H 0.29062 0.59593 0.25063 0.0
C4440 C 0.36316 0.63791 0.2553 0.0
C4441 C 0.36488 0.63094 0.24109 0.0
C4442 C 0.3518 0.63301 0.26526 0.0
C4443 C 0.34226 0.62078 0.26132 0.0
C4444 C 0.34476 0.61319 0.24746 0.0
C4445 C 0.35583 0.61839 0.23731 0.0
C4446 C 0.3284 0.61753 0.2705 0.0
C4447 C 0.31434 0.61698 0.26287 0.0
C4448 C 0.32859 0.61698 0.28663 0.0
C4449 C 0.34297 0.61595 0.29552 0.0
C4450 C 0.35442 0.60556 0.29136 0.0
C4451 C 0.36784 0.60455 0.29985 0.0
C4452 C 0.3699 0.61371 0.31265 0.0
C4453 C 0.35853 0.6239 0.31702 0.0
C4454 C 0.34515 0.62506 0.30851 0.0
C4455 C 0.2619 0.61143 0.30437 0.0
C4456 C 0.25982 0.6251 0.31245 0.0
C4457 C 0.27523 0.60894 0.29605 0.0
C4458 C 0.28673 0.61999 0.29586 0.0
C4459 C 0.28482 0.63347 0.30415 0.0
C4460 C 0.27144 0.63607 0.31227 0.0
C4461 C 0.30075 0.61783 0.28684 0.0
C4462 C 0.3147 0.61729 0.29454 0.0
C4463 C 0.30052 0.61713 0.27081 0.0
C4464 C 0.28616 0.61735 0.26195 0.0
C4465 C 0.27598 0.62963 0.26313 0.0
C4466 C 0.26263 0.62984 0.25447 0.0
C4467 C 0.2594 0.61789 0.2445 0.0
C4468 C 0.26953 0.60572 0.24315 0.0
C4469 C 0.28288 0.60545 0.2518 0.0
H4470 H 0.24909 0.6181 0.23778 0.0
H4471 H 0.38029 0.6129 0.31921 0.0
H4472 H 0.88813 0.14153 0.27187 0.0
H4473 H 0.8955 0.16131 0.25356 0.0
H4474 H 0.85644 0.1498 0.22594 0.0
H4475 H 0.85066 0.1289 0.24302 0.0
H4476 H 0.87438 0.16035 0.20828 0.0
H4477 H 0.85766 0.17915 0.2575 0.0
H4478 H 0.85938 0.18121 0.28543 0.0
H4479 H 0.90443 0.19973 0.28152 0.0
H4480 H 0.903 0.19765 0.25355 0.0
H4481 H 0.84696 0.23212 0.18415 0.0
H4482 H 0.85061 0.20897 0.19912 0.0
H4483 H 0.89768 0.22074 0.2063 0.0
H4484 H 0.89423 0.24392 0.19135 0.0
H4485 H 0.88065 0.21056 0.23326 0.0
H4486 H 0.89144 0.19513 0.18094 0.0
H4487 H 0.88445 0.194 0.15379 0.0
H4488 H 0.84335 0.17015 0.16507 0.0
H4489 H 0.85001 0.17127 0.1923 0.0
C4490 C 0.88155 0.14299 0.26156 0.0
C4491 C 0.86867 0.13402 0.25885 0.0
C4492 C 0.88558 0.15441 0.25122 0.0
C4493 C 0.87613 0.15763 0.23867 0.0
C4494 C 0.86392 0.1478 0.23552 0.0
C4495 C 0.86044 0.13593 0.24539 0.0
C4496 C 0.87774 0.17192 0.22969 0.0
C4497 C 0.87574 0.17128 0.21384 0.0
C4498 C 0.8796 0.18633 0.23675 0.0
C4499 C 0.88027 0.18814 0.25349 0.0
C4500 C 0.86792 0.18368 0.26262 0.0
C4501 C 0.86885 0.18483 0.27844 0.0
C4502 C 0.88202 0.19057 0.28524 0.0
C4503 C 0.89425 0.19527 0.27623 0.0
C4504 C 0.89338 0.19413 0.26039 0.0
C4505 C 0.85809 0.22984 0.18894 0.0
C4506 C 0.87031 0.23986 0.18649 0.0
C4507 C 0.86014 0.2166 0.19746 0.0
C4508 C 0.87444 0.21316 0.20369 0.0
C4509 C 0.88658 0.22324 0.20156 0.0
C4510 C 0.88457 0.23644 0.19296 0.0
C4511 C 0.87671 0.19883 0.21216 0.0
C4512 C 0.87955 0.19954 0.22781 0.0
C4513 C 0.87486 0.18455 0.20506 0.0
C4514 C 0.87123 0.18328 0.18864 0.0
C4515 C 0.88092 0.18964 0.17762 0.0
C4516 C 0.87701 0.18902 0.16223 0.0
C4517 C 0.86348 0.182 0.15772 0.0
C4518 C 0.85384 0.17555 0.16858 0.0
C4519 C 0.8577 0.17613 0.18399 0.0
H4520 H 0.86048 0.18153 0.14582 0.0
H4521 H 0.88275 0.1914 0.2975 0.0
H4522 H 0.25729 0.34869 0.69077 0.0
H4523 H 0.27908 0.35275 0.70768 0.0
H4524 H 0.28229 0.39931 0.69275 0.0
H4525 H 0.26024 0.39553 0.67609 0.0
H4526 H 0.31125 0.3728 0.69422 0.0
H4527 H 0.27279 0.4043 0.72094 0.0
H4528 H 0.24716 0.40769 0.7319 0.0
H4529 H 0.25354 0.36807 0.75971 0.0
H4530 H 0.27913 0.36435 0.74879 0.0
H4531 H 0.37081 0.37752 0.74862 0.0
H4532 H 0.35061 0.38628 0.73151 0.0
H4533 H 0.3175 0.36182 0.75836 0.0
H4534 H 0.33713 0.3547 0.77617 0.0
H4535 H 0.30405 0.38367 0.74906 0.0
H4536 H 0.33723 0.34793 0.72258 0.0
H4537 H 0.36131 0.33876 0.71143 0.0
H4538 H 0.3639 0.37879 0.68357 0.0
H4539 H 0.33987 0.38822 0.69464 0.0
C4540 C 0.26266 0.35978 0.69104 0.0
C4541 C 0.25705 0.3718 0.68212 0.0
C4542 C 0.27504 0.36208 0.70072 0.0
C4543 C 0.28214 0.37634 0.70147 0.0
C4544 C 0.27684 0.38827 0.69236 0.0
C4545 C 0.26427 0.38607 0.68287 0.0
C4546 C 0.29522 0.37855 0.71174 0.0
C4547 C 0.30982 0.37548 0.70618 0.0
C4548 C 0.29314 0.38162 0.72733 0.0
C4549 C 0.2778 0.38396 0.73393 0.0
C4550 C 0.26866 0.39623 0.72928 0.0
C4551 C 0.25416 0.39824 0.73552 0.0
C4552 C 0.24871 0.38808 0.74646 0.0
C4553 C 0.25777 0.37592 0.75123 0.0
C4554 C 0.27227 0.37387 0.74503 0.0
C4555 C 0.35915 0.37431 0.751 0.0
C4556 C 0.35565 0.36494 0.76347 0.0
C4557 C 0.34762 0.37917 0.74109 0.0
C4558 C 0.3325 0.37428 0.74323 0.0
C4559 C 0.329 0.3657 0.75624 0.0
C4560 C 0.34036 0.36135 0.76635 0.0
C4561 C 0.32031 0.37721 0.7318 0.0
C4562 C 0.30575 0.38131 0.73707 0.0
C4563 C 0.32234 0.37439 0.71603 0.0
C4564 C 0.3369 0.36887 0.70959 0.0
C4565 C 0.34301 0.35482 0.71417 0.0
C4566 C 0.35663 0.34957 0.70784 0.0
C4567 C 0.36417 0.35822 0.69685 0.0
C4568 C 0.35808 0.37213 0.69212 0.0
C4569 C 0.34446 0.37743 0.69841 0.0
H4570 H 0.3747 0.35413 0.69196 0.0
H4571 H 0.23748 0.38964 0.75127 0.0
H4572 H 0.13382 0.84068 0.27707 0.0
H4573 H 0.12558 0.82274 0.25768 0.0
H4574 H 0.11702 0.85981 0.22673 0.0
H4575 H 0.1262 0.87788 0.24587 0.0
H4576 H 0.09912 0.81914 0.24072 0.0
H4577 H 0.12745 0.85394 0.20228 0.0
H4578 H 0.1493 0.87001 0.19493 0.0
H4579 H 0.18004 0.83708 0.21379 0.0
H4580 H 0.15838 0.82139 0.22207 0.0
H4581 H 0.10048 0.76111 0.18148 0.0
H4582 H 0.09626 0.78506 0.1951 0.0
H4583 H 0.14292 0.78449 0.21036 0.0
H4584 H 0.1473 0.7609 0.19664 0.0
H4585 H 0.13598 0.81115 0.19885 0.0
H4586 H 0.1124 0.77536 0.23375 0.0
H4587 H 0.09376 0.75632 0.24252 0.0
H4588 H 0.05718 0.78712 0.23257 0.0
H4589 H 0.07561 0.80628 0.22357 0.0
C4590 C 0.13016 0.84505 0.26615 0.0
C4591 C 0.13105 0.86063 0.26284 0.0
C4592 C 0.12537 0.83479 0.2551 0.0
C4593 C 0.12119 0.83991 0.24059 0.0
C4594 C 0.12078 0.85558 0.23765 0.0
C4595 C 0.12577 0.8659 0.24869 0.0
C4596 C 0.11824 0.82849 0.2286 0.0
C4597 C 0.10689 0.81756 0.23126 0.0
C4598 C 0.1285 0.82634 0.21642 0.0
C4599 C 0.1413 0.83679 0.21326 0.0
C4600 C 0.13886 0.85045 0.20536 0.0
C4601 C 0.15121 0.85948 0.20101 0.0
C4602 C 0.16606 0.85473 0.20412 0.0
C4603 C 0.16857 0.84099 0.21171 0.0
C4604 C 0.15625 0.83211 0.21638 0.0
C4605 C 0.10982 0.76609 0.18778 0.0
C4606 C 0.12429 0.75918 0.18785 0.0
C4607 C 0.10735 0.77973 0.1956 0.0
C4608 C 0.11927 0.78657 0.20371 0.0
C4609 C 0.13359 0.77949 0.20405 0.0
C4610 C 0.13609 0.76599 0.19618 0.0
C4611 C 0.11735 0.80141 0.21143 0.0
C4612 C 0.12775 0.81296 0.20788 0.0
C4613 C 0.10643 0.80392 0.22297 0.0
C4614 C 0.09536 0.79213 0.22771 0.0
C4615 C 0.10037 0.77798 0.2332 0.0
C4616 C 0.08984 0.76719 0.23828 0.0
C4617 C 0.07429 0.77047 0.23803 0.0
C4618 C 0.06922 0.78456 0.2327 0.0
C4619 C 0.0797 0.79538 0.22759 0.0
H4620 H 0.06616 0.76213 0.24203 0.0
H4621 H 0.17561 0.86158 0.20046 0.0
H4622 H 0.73788 0.65162 0.69098 0.0
H4623 H 0.71487 0.64818 0.70618 0.0
H4624 H 0.71772 0.59964 0.69988 0.0
H4625 H 0.74079 0.60291 0.68467 0.0
H4626 H 0.68811 0.61176 0.69517 0.0
H4627 H 0.72802 0.61273 0.73281 0.0
H4628 H 0.7506 0.62317 0.7458 0.0
H4629 H 0.72612 0.66422 0.75584 0.0
H4630 H 0.70345 0.65408 0.74276 0.0
H4631 H 0.64742 0.61716 0.77574 0.0
H4632 H 0.66832 0.60967 0.75898 0.0
H4633 H 0.64657 0.63311 0.72169 0.0
H4634 H 0.62529 0.63972 0.73826 0.0
H4635 H 0.6864 0.62976 0.74857 0.0
H4636 H 0.66078 0.62436 0.68878 0.0
H4637 H 0.63778 0.61408 0.6764 0.0
H4638 H 0.63363 0.58041 0.71152 0.0
H4639 H 0.65663 0.59049 0.72409 0.0
C4640 C 0.73366 0.6402 0.69283 0.0
C4641 C 0.74123 0.62754 0.68664 0.0
C4642 C 0.72051 0.63826 0.70153 0.0
C4643 C 0.71466 0.62365 0.70417 0.0
C4644 C 0.72207 0.611 0.69793 0.0
C4645 C 0.7353 0.61291 0.68931 0.0
C4646 C 0.70087 0.62166 0.71359 0.0
C4647 C 0.68772 0.61556 0.7069 0.0
C4648 C 0.70044 0.62654 0.72888 0.0
C4649 C 0.71409 0.63269 0.73669 0.0
C4650 C 0.7275 0.62403 0.73768 0.0
C4651 C 0.7403 0.62988 0.74508 0.0
C4652 C 0.73981 0.64436 0.75161 0.0
C4653 C 0.7265 0.65301 0.75077 0.0
C4654 C 0.71366 0.64721 0.74338 0.0
C4655 C 0.6468 0.62 0.76377 0.0
C4656 C 0.63476 0.6288 0.75817 0.0
C4657 C 0.65878 0.61586 0.75423 0.0
C4658 C 0.65909 0.62083 0.73905 0.0
C4659 C 0.6465 0.62879 0.73322 0.0
C4660 C 0.6343 0.63258 0.74269 0.0
C4661 C 0.67345 0.61986 0.73022 0.0
C4662 C 0.68675 0.62562 0.73696 0.0
C4663 C 0.67398 0.6146 0.71502 0.0
C4664 C 0.66039 0.6082 0.70737 0.0
C4665 C 0.65501 0.6147 0.69379 0.0
C4666 C 0.64195 0.60894 0.68678 0.0
C4667 C 0.63424 0.59661 0.69318 0.0
C4668 C 0.63959 0.58999 0.7066 0.0
C4669 C 0.65262 0.59574 0.71369 0.0
H4670 H 0.62413 0.59217 0.68773 0.0
H4671 H 0.74973 0.64887 0.75734 0.0
H4672 H 0.75425 0.86884 0.87484 0.0
H4673 H 0.77192 0.87539 0.85431 0.0
H4674 H 0.73482 0.87467 0.82218 0.0
H4675 H 0.71723 0.86795 0.84257 0.0
H4676 H 0.757 0.85529 0.81433 0.0
H4677 H 0.7535 0.90738 0.82992 0.0
H4678 H 0.75435 0.92849 0.84834 0.0
H4679 H 0.80145 0.91911 0.8573 0.0
H4680 H 0.80082 0.89778 0.83908 0.0
H4681 H 0.79562 0.87918 0.74791 0.0
H4682 H 0.77934 0.88217 0.77042 0.0
H4683 H 0.81675 0.86891 0.79927 0.0
H4684 H 0.83282 0.86519 0.7767 0.0
H4685 H 0.79534 0.8964 0.80906 0.0
H4686 H 0.79802 0.84319 0.79511 0.0
H4687 H 0.79719 0.82207 0.77672 0.0
H4688 H 0.75109 0.83355 0.76529 0.0
H4689 H 0.75182 0.85503 0.78335 0.0
C4690 C 0.7498 0.87062 0.8635 0.0
C4691 C 0.73442 0.86778 0.86023 0.0
C4692 C 0.75991 0.87432 0.85176 0.0
C4693 C 0.75469 0.8754 0.8367 0.0
C4694 C 0.7391 0.87378 0.8337 0.0
C4695 C 0.72906 0.87 0.84536 0.0
C4696 C 0.76556 0.87623 0.82385 0.0
C4697 C 0.76521 0.86443 0.8131 0.0
C4698 C 0.77658 0.88789 0.82248 0.0
C4699 C 0.77708 0.90088 0.83323 0.0
C4700 C 0.76401 0.90975 0.83589 0.0
C4701 C 0.76446 0.92176 0.84629 0.0
C4702 C 0.77794 0.92511 0.85402 0.0
C4703 C 0.79101 0.91649 0.85131 0.0
C4704 C 0.79063 0.90445 0.84094 0.0
C4705 C 0.80033 0.87701 0.75909 0.0
C4706 C 0.81532 0.8718 0.76069 0.0
C4707 C 0.79112 0.87884 0.77189 0.0
C4708 C 0.79693 0.87586 0.78645 0.0
C4709 C 0.81215 0.87136 0.78811 0.0
C4710 C 0.82124 0.8691 0.77526 0.0
C4711 C 0.78653 0.87559 0.79962 0.0
C4712 C 0.78704 0.88737 0.81037 0.0
C4713 C 0.77562 0.8639 0.8011 0.0
C4714 C 0.77506 0.85087 0.79039 0.0
C4715 C 0.78778 0.84135 0.78852 0.0
C4716 C 0.78732 0.82929 0.77818 0.0
C4717 C 0.77411 0.82651 0.76979 0.0
C4718 C 0.76133 0.83576 0.77176 0.0
C4719 C 0.76177 0.84789 0.78203 0.0
H4720 H 0.77377 0.81716 0.7618 0.0
H4721 H 0.77825 0.93441 0.86208 0.0
H4722 H 0.61198 0.29587 0.24893 0.0
H4723 H 0.60816 0.28134 0.27238 0.0
H4724 H 0.6268 0.31865 0.29835 0.0
H4725 H 0.63142 0.33273 0.27476 0.0
H4726 H 0.64128 0.29416 0.3041 0.0
H4727 H 0.58716 0.3051 0.29997 0.0
H4728 H 0.56223 0.30531 0.28707 0.0
H4729 H 0.56391 0.25674 0.28243 0.0
H4730 H 0.58891 0.25624 0.2951 0.0
H4731 H 0.63644 0.25627 0.37458 0.0
H4732 H 0.62982 0.27494 0.35493 0.0
H4733 H 0.61696 0.23855 0.32466 0.0
H4734 H 0.62401 0.21987 0.34411 0.0
H4735 H 0.59759 0.26368 0.32253 0.0
H4736 H 0.64955 0.25101 0.31994 0.0
H4737 H 0.67677 0.24734 0.32544 0.0
H4738 H 0.68123 0.29468 0.33647 0.0
H4739 H 0.65391 0.2986 0.33127 0.0
C4740 C 0.61501 0.30098 0.25972 0.0
C4741 C 0.6222 0.31521 0.26019 0.0
C4742 C 0.61265 0.29278 0.27312 0.0
C4743 C 0.61703 0.29894 0.2872 0.0
C4744 C 0.62332 0.31365 0.28764 0.0
C4745 C 0.62603 0.32165 0.27422 0.0
C4746 C 0.61747 0.28928 0.30105 0.0
C4747 C 0.63154 0.28793 0.30844 0.0
C4748 C 0.60505 0.28029 0.30604 0.0
C4749 C 0.58997 0.28066 0.29843 0.0
C4750 C 0.58227 0.29448 0.29611 0.0
C4751 C 0.5681 0.29464 0.28885 0.0
C4752 C 0.5615 0.28105 0.28392 0.0
C4753 C 0.56903 0.26726 0.28626 0.0
C4754 C 0.58318 0.26703 0.2935 0.0
C4755 C 0.63169 0.25232 0.36393 0.0
C4756 C 0.63054 0.2367 0.36084 0.0
C4757 C 0.62807 0.26295 0.35268 0.0
C4758 C 0.623 0.25808 0.33834 0.0
C4759 C 0.62081 0.24251 0.33567 0.0
C4760 C 0.62477 0.23188 0.34677 0.0
C4761 C 0.62126 0.26905 0.32571 0.0
C4762 C 0.60709 0.27044 0.31848 0.0
C4763 C 0.63373 0.27768 0.32039 0.0
C4764 C 0.64958 0.27502 0.32555 0.0
C4765 C 0.65621 0.26056 0.32395 0.0
C4766 C 0.6717 0.25847 0.32684 0.0
C4767 C 0.68069 0.27075 0.33135 0.0
C4768 C 0.67422 0.28516 0.33302 0.0
C4769 C 0.65872 0.28731 0.33017 0.0
H4770 H 0.69267 0.26908 0.33355 0.0
H4771 H 0.55054 0.2812 0.27831 0.0
H4772 H 0.17151 0.12163 0.7689 0.0
H4773 H 0.18464 0.11713 0.79312 0.0
H4774 H 0.22796 0.11943 0.77016 0.0
H4775 H 0.21477 0.12417 0.74589 0.0
H4776 H 0.22391 0.09512 0.79524 0.0
H4777 H 0.22122 0.14976 0.78472 0.0
H4778 H 0.20679 0.17231 0.77627 0.0
H4779 H 0.17419 0.16501 0.81191 0.0
H4780 H 0.18848 0.14247 0.82056 0.0
H4781 H 0.27864 0.12523 0.84526 0.0
H4782 H 0.26114 0.11662 0.82552 0.0
H4783 H 0.22319 0.12395 0.85577 0.0
H4784 H 0.24081 0.13246 0.87571 0.0
H4785 H 0.22133 0.14032 0.82901 0.0
H4786 H 0.22897 0.08886 0.84326 0.0
H4787 H 0.24416 0.06665 0.85112 0.0
H4788 H 0.26776 0.06734 0.80839 0.0
H4789 H 0.25283 0.08969 0.80033 0.0
C4790 C 0.18383 0.12098 0.76907 0.0
C4791 C 0.19225 0.12336 0.75577 0.0
C4792 C 0.19127 0.11831 0.78281 0.0
C4793 C 0.20721 0.11785 0.78334 0.0
C4794 C 0.21563 0.11958 0.76988 0.0
C4795 C 0.20816 0.12244 0.75614 0.0
C4796 C 0.21502 0.11775 0.79817 0.0
C4797 C 0.22342 0.10496 0.80266 0.0
C4798 C 0.21402 0.13047 0.8079 0.0
C4799 C 0.20585 0.14445 0.80324 0.0
C4800 C 0.21098 0.15301 0.79076 0.0
C4801 C 0.20285 0.1658 0.78595 0.0
C4802 C 0.18959 0.17013 0.79357 0.0
C4803 C 0.1845 0.16173 0.80606 0.0
C4804 C 0.19264 0.14897 0.81096 0.0
C4805 C 0.26661 0.12445 0.84787 0.0
C4806 C 0.26102 0.12944 0.86193 0.0
C4807 C 0.25663 0.11951 0.83661 0.0
C4808 C 0.24089 0.11963 0.83921 0.0
C4809 C 0.23532 0.12371 0.85361 0.0
C4810 C 0.24537 0.12844 0.865 0.0
C4811 C 0.23045 0.11771 0.82618 0.0
C4812 C 0.22157 0.13025 0.82188 0.0
C4813 C 0.23111 0.10475 0.81667 0.0
C4814 C 0.2398 0.091 0.82121 0.0
C4815 C 0.23743 0.08431 0.83555 0.0
C4816 C 0.24599 0.07169 0.84004 0.0
C4817 C 0.25693 0.0656 0.83027 0.0
C4818 C 0.25927 0.07207 0.81594 0.0
C4819 C 0.25073 0.08469 0.81139 0.0
H4820 H 0.26358 0.05585 0.83378 0.0
H4821 H 0.18327 0.17999 0.78978 0.0
H4822 H 0.38892 0.77088 0.35735 0.0
H4823 H 0.39761 0.7542 0.33669 0.0
H4824 H 0.35732 0.72657 0.34245 0.0
H4825 H 0.34983 0.7421 0.36401 0.0
H4826 H 0.37649 0.70937 0.33211 0.0
H4827 H 0.36077 0.76039 0.31675 0.0
H4828 H 0.36278 0.78839 0.31709 0.0
H4829 H 0.4088 0.78551 0.30092 0.0
H4830 H 0.40707 0.75748 0.3006 0.0
H4831 H 0.34916 0.69504 0.25826 0.0
H4832 H 0.35365 0.71131 0.28035 0.0
H4833 H 0.40202 0.70487 0.27564 0.0
H4834 H 0.39775 0.68869 0.25344 0.0
H4835 H 0.38464 0.73875 0.28456 0.0
H4836 H 0.39722 0.68449 0.3026 0.0
H4837 H 0.38974 0.65777 0.29806 0.0
H4838 H 0.34291 0.6693 0.30592 0.0
H4839 H 0.35021 0.6961 0.31033 0.0
C4840 C 0.38233 0.76087 0.35448 0.0
C4841 C 0.36858 0.75783 0.36194 0.0
C4842 C 0.38714 0.75147 0.34257 0.0
C4843 C 0.37781 0.73946 0.3375 0.0
C4844 C 0.36472 0.73581 0.34591 0.0
C4845 C 0.36028 0.7448 0.35815 0.0
C4846 C 0.38044 0.73175 0.32266 0.0
C4847 C 0.3785 0.71588 0.32183 0.0
C4848 C 0.38292 0.74007 0.30902 0.0
C4849 C 0.38383 0.75689 0.30877 0.0
C4850 C 0.3713 0.76575 0.31327 0.0
C4851 C 0.3724 0.78161 0.31348 0.0
C4852 C 0.38592 0.78872 0.30906 0.0
C4853 C 0.39834 0.77999 0.30435 0.0
C4854 C 0.39731 0.76412 0.30414 0.0
C4855 C 0.36077 0.69723 0.26176 0.0
C4856 C 0.37307 0.69042 0.25416 0.0
C4857 C 0.36331 0.70664 0.27428 0.0
C4858 C 0.37816 0.70934 0.27946 0.0
C4859 C 0.3905 0.70306 0.27163 0.0
C4860 C 0.388 0.69371 0.25903 0.0
C4861 C 0.38046 0.71674 0.29432 0.0
C4862 C 0.38324 0.73238 0.29503 0.0
C4863 C 0.37825 0.70841 0.30781 0.0
C4864 C 0.37425 0.69211 0.30714 0.0
C4865 C 0.38538 0.68121 0.30365 0.0
C4866 C 0.38118 0.66612 0.30098 0.0
C4867 C 0.36588 0.66186 0.30173 0.0
C4868 C 0.35477 0.67261 0.30543 0.0
C4869 C 0.35893 0.68771 0.30812 0.0
H4870 H 0.36265 0.65029 0.29924 0.0
H4871 H 0.38676 0.801 0.30927 0.0
H4872 H 0.75578 0.12913 0.12526 0.0
H4873 H 0.77285 0.12188 0.14611 0.0
H4874 H 0.73516 0.12351 0.17748 0.0
H4875 H 0.71815 0.13082 0.15681 0.0
H4876 H 0.75887 0.14323 0.18454 0.0
H4877 H 0.75207 0.09031 0.17003 0.0
H4878 H 0.75274 0.06954 0.1512 0.0
H4879 H 0.80053 0.07699 0.14434 0.0
H4880 H 0.8001 0.09793 0.16301 0.0
H4881 H 0.79133 0.12608 0.25406 0.0
H4882 H 0.77547 0.12325 0.23129 0.0
H4883 H 0.81573 0.11584 0.20417 0.0
H4884 H 0.83151 0.11805 0.2271 0.0
H4885 H 0.79252 0.09879 0.19348 0.0
H4886 H 0.80069 0.15065 0.20624 0.0
H4887 H 0.80164 0.17319 0.22287 0.0
H4888 H 0.75343 0.17013 0.23018 0.0
H4889 H 0.75223 0.14739 0.21379 0.0
C4890 C 0.75107 0.1274 0.13651 0.0
C4891 C 0.7357 0.13066 0.1395 0.0
C4892 C 0.76083 0.1233 0.1484 0.0
C4893 C 0.75525 0.1223 0.16333 0.0
C4894 C 0.73967 0.12433 0.16604 0.0
C4895 C 0.72998 0.12847 0.15423 0.0
C4896 C 0.76575 0.12118 0.17641 0.0
C4897 C 0.76604 0.13339 0.18664 0.0
C4898 C 0.77565 0.10871 0.17863 0.0
C4899 C 0.77603 0.09575 0.16785 0.0
C4900 C 0.76271 0.08755 0.16447 0.0
C4901 C 0.76305 0.07575 0.15383 0.0
C4902 C 0.77667 0.07197 0.14656 0.0
C4903 C 0.78999 0.07993 0.14998 0.0
C4904 C 0.78972 0.09175 0.16062 0.0
C4905 C 0.7967 0.12364 0.24324 0.0
C4906 C 0.81254 0.12251 0.24215 0.0
C4907 C 0.7877 0.12202 0.23027 0.0
C4908 C 0.79446 0.11962 0.21598 0.0
C4909 C 0.81029 0.11772 0.21505 0.0
C4910 C 0.81928 0.11913 0.2281 0.0
C4911 C 0.78511 0.12059 0.20197 0.0
C4912 C 0.78523 0.10854 0.19146 0.0
C4913 C 0.77578 0.13341 0.1992 0.0
C4914 C 0.7764 0.14723 0.2089 0.0
C4915 C 0.7903 0.15472 0.21147 0.0
C4916 C 0.79089 0.16754 0.22085 0.0
C4917 C 0.77761 0.17307 0.22761 0.0
C4918 C 0.76371 0.16582 0.22496 0.0
C4919 C 0.76307 0.15297 0.21562 0.0
H4920 H 0.77809 0.18299 0.23487 0.0
H4921 H 0.77689 0.06286 0.13829 0.0
H4922 H 0.37009 0.28836 0.75038 0.0
H4923 H 0.37542 0.27475 0.72659 0.0
H4924 H 0.39146 0.31642 0.70628 0.0
H4925 H 0.38676 0.32993 0.73033 0.0
H4926 H 0.36426 0.29919 0.69296 0.0
H4927 H 0.41678 0.29305 0.70776 0.0
H4928 H 0.43767 0.28568 0.72494 0.0
H4929 H 0.42108 0.23975 0.72584 0.0
H4930 H 0.39998 0.24689 0.70881 0.0
H4931 H 0.36714 0.2568 0.62383 0.0
H4932 H 0.37483 0.27491 0.64369 0.0
H4933 H 0.37637 0.2383 0.67635 0.0
H4934 H 0.36867 0.22034 0.65667 0.0
H4935 H 0.39937 0.25676 0.68091 0.0
H4936 H 0.34607 0.26042 0.67542 0.0
H4937 H 0.31982 0.26531 0.66689 0.0
H4938 H 0.33191 0.3111 0.65503 0.0
H4939 H 0.3583 0.30646 0.66342 0.0
C4940 C 0.37503 0.29449 0.74089 0.0
C4941 C 0.37797 0.3101 0.74199 0.0
C4942 C 0.3782 0.28672 0.72743 0.0
C4943 C 0.38401 0.29458 0.71482 0.0
C4944 C 0.38724 0.31016 0.71601 0.0
C4945 C 0.38447 0.31784 0.72964 0.0
C4946 C 0.38422 0.28697 0.6999 0.0
C4947 C 0.37224 0.29025 0.68996 0.0
C4948 C 0.39417 0.27479 0.69665 0.0
C4949 C 0.40674 0.27054 0.70707 0.0
C4950 C 0.4175 0.28141 0.71174 0.0
C4951 C 0.42941 0.27726 0.72142 0.0
C4952 C 0.4307 0.26225 0.7265 0.0
C4953 C 0.42008 0.25137 0.7219 0.0
C4954 C 0.40816 0.25546 0.71221 0.0
C4955 C 0.3696 0.25261 0.63515 0.0
C4956 C 0.36748 0.2372 0.63876 0.0
C4957 C 0.37378 0.26297 0.64651 0.0
C4958 C 0.37605 0.25796 0.66151 0.0
C4959 C 0.37473 0.24241 0.66485 0.0
C4960 C 0.37038 0.23215 0.65361 0.0
C4961 C 0.37916 0.26881 0.67399 0.0
C4962 C 0.39172 0.2661 0.6835 0.0
C4963 C 0.3692 0.281 0.67736 0.0
C4964 C 0.35424 0.28301 0.66981 0.0
C4965 C 0.34325 0.27141 0.67061 0.0
C4966 C 0.32829 0.2742 0.66601 0.0
C4967 C 0.32416 0.28856 0.66062 0.0
C4968 C 0.3351 0.30002 0.65934 0.0
C4969 C 0.35007 0.2973 0.66396 0.0
H4970 H 0.31251 0.29077 0.65731 0.0
H4971 H 0.43992 0.25903 0.73398 0.0
H4972 H 0.19358 0.84682 0.23934 0.0
H4973 H 0.20905 0.85024 0.21662 0.0
H4974 H 0.19759 0.89793 0.21572 0.0
H4975 H 0.18172 0.89453 0.23837 0.0
H4976 H 0.19658 0.88563 0.18744 0.0
H4977 H 0.23252 0.88631 0.22903 0.0
H4978 H 0.24435 0.87633 0.25244 0.0
H4979 H 0.25618 0.83506 0.2292 0.0
H4980 H 0.2443 0.84473 0.20571 0.0
H4981 H 0.27881 0.88002 0.14966 0.0
H4982 H 0.26151 0.88774 0.17009 0.0
H4983 H 0.22477 0.86388 0.14782 0.0
H4984 H 0.24184 0.85716 0.12697 0.0
H4985 H 0.25042 0.86873 0.18845 0.0
H4986 H 0.19226 0.87191 0.15954 0.0
H4987 H 0.18065 0.88182 0.13597 0.0
H4988 H 0.214 0.91748 0.13431 0.0
H4989 H 0.2259 0.90764 0.15776 0.0
C4990 C 0.19426 0.85803 0.23429 0.0
C4991 C 0.1864 0.87039 0.24064 0.0
C4992 C 0.20321 0.85999 0.22136 0.0
C4993 C 0.20464 0.87438 0.21461 0.0
C4994 C 0.19664 0.88673 0.22077 0.0
C4995 C 0.18764 0.88478 0.23374 0.0
C4996 C 0.21465 0.87644 0.20123 0.0
C4997 C 0.20841 0.88211 0.18768 0.0
C4998 C 0.2301 0.87194 0.20157 0.0
C4999 C 0.23747 0.86622 0.21564 0.0
C5000 C 0.2376 0.87508 0.22894 0.0
C5001 C 0.24432 0.86948 0.24222 0.0
C5002 C 0.251 0.85506 0.24231 0.0
C5003 C 0.25102 0.84623 0.22911 0.0
C5004 C 0.24432 0.85178 0.2158 0.0
C5005 C 0.26688 0.87703 0.14891 0.0
C5006 C 0.26152 0.86821 0.13678 0.0
C5007 C 0.25701 0.88135 0.16057 0.0
C5008 C 0.24177 0.87649 0.16052 0.0
C5009 C 0.2363 0.86821 0.14797 0.0
C5010 C 0.24607 0.86429 0.13608 0.0
C5011 C 0.23242 0.87791 0.17451 0.0
C5012 C 0.23873 0.87267 0.18822 0.0
C5013 C 0.21712 0.88294 0.17431 0.0
C5014 C 0.20997 0.88903 0.16034 0.0
C5015 C 0.19707 0.88189 0.15415 0.0
C5016 C 0.19048 0.88745 0.14079 0.0
C5017 C 0.19659 0.90027 0.13364 0.0
C5018 C 0.20932 0.90752 0.13982 0.0
C5019 C 0.21604 0.90191 0.1531 0.0
H5020 H 0.19145 0.90459 0.12333 0.0
H5021 H 0.25617 0.85074 0.25261 0.0
H5022 H 0.6291 0.78217 0.65422 0.0
H5023 H 0.6224 0.76449 0.67458 0.0
H5024 H 0.62963 0.72663 0.64421 0.0
H5025 H 0.63578 0.74438 0.62361 0.0
H5026 H 0.60646 0.72088 0.66442 0.0
H5027 H 0.66017 0.73669 0.66889 0.0
H5028 H 0.68116 0.75535 0.67073 0.0
H5029 H 0.65803 0.77818 0.7071 0.0
H5030 H 0.63722 0.75935 0.70589 0.0
H5031 H 0.63937 0.6697 0.72272 0.0
H5032 H 0.63558 0.68569 0.70004 0.0
H5033 H 0.61081 0.71824 0.72707 0.0
H5034 H 0.614 0.70203 0.74956 0.0
H5035 H 0.64114 0.72639 0.70862 0.0
H5036 H 0.5897 0.70836 0.70701 0.0
H5037 H 0.56894 0.68955 0.70621 0.0
H5038 H 0.58659 0.6715 0.66443 0.0
H5039 H 0.60763 0.69008 0.66512 0.0
C5040 C 0.6288 0.77009 0.65178 0.0
C5041 C 0.63299 0.76461 0.63741 0.0
C5042 C 0.62511 0.76 0.66343 0.0
C5043 C 0.62594 0.74425 0.66101 0.0
C5044 C 0.62899 0.73875 0.64634 0.0
C5045 C 0.63244 0.74889 0.63457 0.0
C5046 C 0.62502 0.73365 0.67407 0.0
C5047 C 0.61413 0.72197 0.67402 0.0
C5048 C 0.63483 0.73524 0.68673 0.0
C5049 C 0.64713 0.74674 0.68721 0.0
C5050 C 0.65956 0.74574 0.67722 0.0
C5051 C 0.67142 0.7563 0.67819 0.0
C5052 C 0.67083 0.76803 0.68887 0.0
C5053 C 0.65846 0.76912 0.69879 0.0
C5054 C 0.64669 0.75844 0.69807 0.0
C5055 C 0.633 0.6802 0.72371 0.0
C5056 C 0.62707 0.68478 0.7378 0.0
C5057 C 0.6307 0.6892 0.71079 0.0
C5058 C 0.62273 0.70298 0.71192 0.0
C5059 C 0.61673 0.70749 0.72597 0.0
C5060 C 0.61865 0.69831 0.73878 0.0
C5061 C 0.62259 0.71366 0.699 0.0
C5062 C 0.63342 0.72531 0.69904 0.0
C5063 C 0.61268 0.712 0.68645 0.0
C5064 C 0.60042 0.70043 0.68628 0.0
C5065 C 0.58933 0.7002 0.6978 0.0
C5066 C 0.57746 0.68963 0.69733 0.0
C5067 C 0.57649 0.67928 0.68532 0.0
C5068 C 0.58739 0.67949 0.67376 0.0
C5069 C 0.5993 0.69004 0.67419 0.0
H5070 H 0.56725 0.67115 0.68494 0.0
H5071 H 0.67999 0.77623 0.68952 0.0
H5072 H 0.84373 0.71913 0.87235 0.0
H5073 H 0.82314 0.73676 0.87837 0.0
H5074 H 0.85329 0.77471 0.87069 0.0
H5075 H 0.87412 0.75698 0.86492 0.0
H5076 H 0.83252 0.78023 0.89416 0.0
H5077 H 0.82924 0.76526 0.84056 0.0
H5078 H 0.82784 0.74758 0.81872 0.0
H5079 H 0.79116 0.72357 0.84016 0.0
H5080 H 0.79195 0.74144 0.8618 0.0
H5081 H 0.77181 0.82929 0.8615 0.0
H5082 H 0.79528 0.81448 0.86531 0.0
H5083 H 0.76988 0.78067 0.89014 0.0
H5084 H 0.74658 0.79578 0.88697 0.0
H5085 H 0.7886 0.77387 0.85926 0.0
H5086 H 0.78943 0.79138 0.91097 0.0
H5087 H 0.78955 0.81016 0.93175 0.0
H5088 H 0.83097 0.82942 0.91444 0.0
H5089 H 0.83092 0.81092 0.89334 0.0
C5090 C 0.84609 0.73123 0.87242 0.0
C5091 C 0.86047 0.73671 0.86816 0.0
C5092 C 0.83429 0.74129 0.87571 0.0
C5093 C 0.83659 0.75703 0.87459 0.0
C5094 C 0.85127 0.76258 0.87154 0.0
C5095 C 0.86318 0.75246 0.86836 0.0
C5096 C 0.82336 0.76748 0.87536 0.0
C5097 C 0.82299 0.77898 0.88643 0.0
C5098 C 0.8108 0.76568 0.86544 0.0
C5099 C 0.81079 0.75453 0.85283 0.0
C5100 C 0.82098 0.75612 0.84064 0.0
C5101 C 0.82024 0.74613 0.82829 0.0
C5102 C 0.80958 0.73435 0.82816 0.0
C5103 C 0.79948 0.73265 0.8403 0.0
C5104 C 0.79997 0.74277 0.85255 0.0
C5105 C 0.77136 0.8188 0.86795 0.0
C5106 C 0.7575 0.81354 0.87387 0.0
C5107 C 0.78472 0.81047 0.87025 0.0
C5108 C 0.78429 0.79664 0.8782 0.0
C5109 C 0.77046 0.79148 0.88425 0.0
C5110 C 0.75719 0.80002 0.88235 0.0
C5111 C 0.79768 0.78652 0.87811 0.0
C5112 C 0.79811 0.77513 0.86703 0.0
C5113 C 0.81019 0.78848 0.88803 0.0
C5114 C 0.81 0.79995 0.90039 0.0
C5115 C 0.7984 0.79981 0.9114 0.0
C5116 C 0.7985 0.81035 0.9233 0.0
C5117 C 0.81022 0.82103 0.92437 0.0
C5118 C 0.82186 0.82118 0.91356 0.0
C5119 C 0.8218 0.81067 0.90162 0.0
H5120 H 0.81031 0.82915 0.93362 0.0
H5121 H 0.80909 0.7266 0.81862 0.0
H5122 H 0.87398 0.23962 0.14191 0.0
H5123 H 0.85368 0.2221 0.1348 0.0
H5124 H 0.8317 0.25795 0.10935 0.0
H5125 H 0.8515 0.27574 0.11752 0.0
H5126 H 0.81282 0.24752 0.12755 0.0
H5127 H 0.84682 0.22329 0.09343 0.0
H5128 H 0.8705 0.2111 0.08469 0.0
H5129 H 0.86389 0.17472 0.11655 0.0
H5130 H 0.84032 0.18682 0.12572 0.0
H5131 H 0.75206 0.19688 0.10739 0.0
H5132 H 0.77548 0.21164 0.10404 0.0
H5133 H 0.79515 0.1895 0.14312 0.0
H5134 H 0.77157 0.17499 0.14683 0.0
H5135 H 0.8146 0.19275 0.11431 0.0
H5136 H 0.78288 0.22027 0.15044 0.0
H5137 H 0.75942 0.23309 0.15893 0.0
H5138 H 0.76223 0.26383 0.1211 0.0
H5139 H 0.78555 0.25098 0.11222 0.0
C5140 C 0.8651 0.24355 0.13432 0.0
C5141 C 0.86424 0.25892 0.13014 0.0
C5142 C 0.85349 0.23353 0.13021 0.0
C5143 C 0.8411 0.23864 0.12146 0.0
C5144 C 0.84105 0.25374 0.11617 0.0
C5145 C 0.8524 0.26387 0.12071 0.0
C5146 C 0.82721 0.22911 0.11994 0.0
C5147 C 0.81326 0.23565 0.12424 0.0
C5148 C 0.8277 0.21348 0.116 0.0
C5149 C 0.84184 0.20608 0.11039 0.0
C5150 C 0.85047 0.21276 0.09869 0.0
C5151 C 0.86388 0.20585 0.09364 0.0
C5152 C 0.86872 0.19217 0.1001 0.0
C5153 C 0.86014 0.18534 0.11158 0.0
C5154 C 0.84674 0.19221 0.1167 0.0
C5155 C 0.76142 0.19509 0.1152 0.0
C5156 C 0.76001 0.18488 0.12742 0.0
C5157 C 0.77475 0.2035 0.11326 0.0
C5158 C 0.78697 0.20158 0.12331 0.0
C5159 C 0.78581 0.19104 0.13523 0.0
C5160 C 0.77234 0.18288 0.13739 0.0
C5161 C 0.80061 0.21127 0.12199 0.0
C5162 C 0.81436 0.20473 0.11725 0.0
C5163 C 0.79999 0.22695 0.12531 0.0
C5164 C 0.7858 0.23448 0.13051 0.0
C5165 C 0.77836 0.2296 0.14379 0.0
C5166 C 0.76512 0.23691 0.14871 0.0
C5167 C 0.75929 0.24922 0.14052 0.0
C5168 C 0.76672 0.25426 0.1274 0.0
C5169 C 0.77994 0.24696 0.12242 0.0
H5170 H 0.74907 0.25489 0.14437 0.0
H5171 H 0.87911 0.18685 0.09618 0.0
H5172 H 0.22003 0.34814 0.61778 0.0
H5173 H 0.23793 0.32792 0.61114 0.0
H5174 H 0.2751 0.35533 0.62782 0.0
H5175 H 0.25725 0.3759 0.63367 0.0
H5176 H 0.2852 0.33858 0.60575 0.0
H5177 H 0.25805 0.3275 0.65173 0.0
H5178 H 0.23606 0.32375 0.66877 0.0
H5179 H 0.21805 0.28989 0.63856 0.0
H5180 H 0.24012 0.29322 0.6215 0.0
H5181 H 0.33161 0.27633 0.63179 0.0
H5182 H 0.31641 0.29947 0.62787 0.0
H5183 H 0.28191 0.27287 0.60523 0.0
H5184 H 0.29708 0.24979 0.60928 0.0
H5185 H 0.2708 0.28927 0.6291 0.0
H5186 H 0.30312 0.29926 0.58553 0.0
H5187 H 0.32801 0.30247 0.57298 0.0
H5188 H 0.33888 0.33917 0.60328 0.0
H5189 H 0.31411 0.33609 0.6161 0.0
C5190 C 0.23209 0.35002 0.61947 0.0
C5191 C 0.23732 0.36353 0.62613 0.0
C5192 C 0.24229 0.33841 0.61589 0.0
C5193 C 0.25781 0.3399 0.61944 0.0
C5194 C 0.26319 0.35387 0.62504 0.0
C5195 C 0.253 0.36566 0.62829 0.0
C5196 C 0.26808 0.32652 0.61852 0.0
C5197 C 0.28208 0.32782 0.61091 0.0
C5198 C 0.26411 0.31246 0.62532 0.0
C5199 C 0.25062 0.31074 0.63527 0.0
C5200 C 0.24935 0.31933 0.64869 0.0
C5201 C 0.23692 0.31722 0.65838 0.0
C5202 C 0.22561 0.30668 0.65469 0.0
C5203 C 0.22679 0.29809 0.64138 0.0
C5204 C 0.2393 0.30002 0.63174 0.0
C5205 C 0.3208 0.27556 0.62593 0.0
C5206 C 0.31524 0.26141 0.62117 0.0
C5207 C 0.31224 0.28873 0.62351 0.0
C5208 C 0.29801 0.28786 0.61631 0.0
C5209 C 0.29285 0.27377 0.61083 0.0
C5210 C 0.30149 0.26064 0.61313 0.0
C5211 C 0.28775 0.30122 0.61607 0.0
C5212 C 0.27379 0.29995 0.62367 0.0
C5213 C 0.29203 0.31536 0.60971 0.0
C5214 C 0.30679 0.31741 0.60181 0.0
C5215 C 0.31084 0.30798 0.58955 0.0
C5216 C 0.32492 0.30978 0.58238 0.0
C5217 C 0.33503 0.32101 0.58734 0.0
C5218 C 0.33104 0.33049 0.59944 0.0
C5219 C 0.31697 0.32875 0.60664 0.0
H5220 H 0.34593 0.32237 0.58179 0.0
H5221 H 0.21596 0.30512 0.66218 0.0
H5222 H 0.23347 0.82614 0.10642 0.0
H5223 H 0.2105 0.81062 0.10242 0.0
H5224 H 0.22663 0.77828 0.13556 0.0
H5225 H 0.2492 0.79408 0.14009 0.0
H5226 H 0.21317 0.76664 0.10453 0.0
H5227 H 0.20482 0.79852 0.14967 0.0
H5228 H 0.20396 0.82345 0.16247 0.0
H5229 H 0.17065 0.83906 0.13034 0.0
H5230 H 0.17156 0.81427 0.11716 0.0
H5231 H 0.1595 0.72081 0.13909 0.0
H5232 H 0.17947 0.73773 0.1305 0.0
H5233 H 0.14578 0.76982 0.11476 0.0
H5234 H 0.12553 0.75313 0.12435 0.0
H5235 H 0.16617 0.78415 0.13047 0.0
H5236 H 0.16969 0.7495 0.08946 0.0
H5237 H 0.17014 0.72417 0.07748 0.0
H5238 H 0.21179 0.71362 0.10071 0.0
H5239 H 0.21149 0.73881 0.11301 0.0
C5240 C 0.23208 0.81568 0.11277 0.0
C5241 C 0.24293 0.81132 0.12368 0.0
C5242 C 0.21905 0.80683 0.11044 0.0
C5243 C 0.21698 0.79331 0.11865 0.0
C5244 C 0.22811 0.78866 0.12908 0.0
C5245 C 0.24088 0.79772 0.13176 0.0
C5246 C 0.20267 0.78458 0.11742 0.0
C5247 C 0.20283 0.77042 0.11011 0.0
C5248 C 0.18913 0.78983 0.12429 0.0
C5249 C 0.18845 0.80465 0.13229 0.0
C5250 C 0.19746 0.80733 0.14522 0.0
C5251 C 0.19693 0.82142 0.15257 0.0
C5252 C 0.18731 0.83285 0.14718 0.0
C5253 C 0.17814 0.8302 0.13447 0.0
C5254 C 0.17867 0.81614 0.12705 0.0
C5255 C 0.15627 0.73141 0.13372 0.0
C5256 C 0.14094 0.73574 0.13264 0.0
C5257 C 0.16775 0.74103 0.12858 0.0
C5258 C 0.16419 0.75501 0.12176 0.0
C5259 C 0.14882 0.75907 0.11995 0.0
C5260 C 0.13726 0.74948 0.12533 0.0
C5261 C 0.17665 0.7658 0.11797 0.0
C5262 C 0.17624 0.78044 0.12437 0.0
C5263 C 0.18991 0.761 0.11012 0.0
C5264 C 0.19056 0.74608 0.10218 0.0
C5265 C 0.17895 0.74179 0.09202 0.0
C5266 C 0.17917 0.72744 0.08519 0.0
C5267 C 0.19098 0.71729 0.08834 0.0
C5268 C 0.20266 0.72151 0.09826 0.0
C5269 C 0.2025 0.73585 0.10513 0.0
H5270 H 0.19109 0.70616 0.08309 0.0
H5271 H 0.1869 0.84374 0.1529 0.0
H5272 H 0.77019 0.64271 0.61067 0.0
H5273 H 0.75188 0.66229 0.60278 0.0
H5274 H 0.72483 0.65264 0.64272 0.0
H5275 H 0.74175 0.63175 0.64901 0.0
H5276 H 0.70696 0.66278 0.62494 0.0
H5277 H 0.75668 0.68166 0.63971 0.0
H5278 H 0.78462 0.68327 0.63745 0.0
H5279 H 0.78018 0.69979 0.59171 0.0
H5280 H 0.7522 0.69815 0.59368 0.0
H5281 H 0.68521 0.73592 0.65034 0.0
H5282 H 0.69917 0.71217 0.64685 0.0
H5283 H 0.70546 0.72258 0.59937 0.0
H5284 H 0.69155 0.74645 0.6027 0.0
H5285 H 0.73245 0.71228 0.61574 0.0
H5286 H 0.67937 0.69764 0.60775 0.0
H5287 H 0.65257 0.69757 0.61611 0.0
H5288 H 0.66522 0.67452 0.65725 0.0
H5289 H 0.69211 0.67461 0.64921 0.0
C5290 C 0.76003 0.64457 0.61738 0.0
C5291 C 0.75748 0.63617 0.63065 0.0
C5292 C 0.74968 0.65586 0.61304 0.0
C5293 C 0.73732 0.65958 0.62255 0.0
C5294 C 0.7343 0.65028 0.6352 0.0
C5295 C 0.74412 0.63847 0.63899 0.0
C5296 C 0.72844 0.67388 0.6205 0.0
C5297 C 0.71262 0.67356 0.62294 0.0
C5298 C 0.73564 0.68809 0.61782 0.0
C5299 C 0.7524 0.68967 0.6168 0.0
C5300 C 0.76168 0.68566 0.62919 0.0
C5301 C 0.77752 0.68655 0.62795 0.0
C5302 C 0.78417 0.6916 0.61443 0.0
C5303 C 0.77501 0.69587 0.60216 0.0
C5304 C 0.75916 0.69498 0.60334 0.0
C5305 C 0.68958 0.73323 0.63916 0.0
C5306 C 0.68724 0.7431 0.6268 0.0
C5307 C 0.69751 0.71962 0.63718 0.0
C5308 C 0.70319 0.71562 0.62283 0.0
C5309 C 0.7011 0.7255 0.61052 0.0
C5310 C 0.69311 0.73909 0.61245 0.0
C5311 C 0.71129 0.70105 0.62076 0.0
C5312 C 0.72688 0.7014 0.61746 0.0
C5313 C 0.70404 0.68698 0.6235 0.0
C5314 C 0.68775 0.68614 0.62787 0.0
C5315 C 0.67642 0.69254 0.61856 0.0
C5316 C 0.66122 0.69252 0.62326 0.0
C5317 C 0.6572 0.68605 0.63721 0.0
C5318 C 0.66835 0.6795 0.64644 0.0
C5319 C 0.68356 0.6795 0.6418 0.0
H5320 H 0.64544 0.68612 0.64086 0.0
H5321 H 0.79644 0.69223 0.61347 0.0
H5322 H 0.15706 0.28121 0.86302 0.0
H5323 H 0.17678 0.26307 0.87017 0.0
H5324 H 0.14277 0.22837 0.87677 0.0
H5325 H 0.1228 0.24654 0.86944 0.0
H5326 H 0.17081 0.22963 0.89894 0.0
H5327 H 0.15613 0.22372 0.84659 0.0
H5328 H 0.15038 0.22994 0.82003 0.0
H5329 H 0.19287 0.25377 0.81607 0.0
H5330 H 0.19921 0.2469 0.84255 0.0
H5331 H 0.22687 0.16982 0.88573 0.0
H5332 H 0.20409 0.18578 0.88895 0.0
H5333 H 0.22709 0.22271 0.86611 0.0
H5334 H 0.24932 0.2065 0.86216 0.0
H5335 H 0.20167 0.21765 0.85329 0.0
H5336 H 0.21728 0.22215 0.90591 0.0
H5337 H 0.22365 0.2134 0.93178 0.0
H5338 H 0.17962 0.19264 0.93588 0.0
H5339 H 0.17305 0.20111 0.90996 0.0
C5340 C 0.15371 0.26982 0.86631 0.0
C5341 C 0.13843 0.26522 0.86546 0.0
C5342 C 0.16498 0.2595 0.87045 0.0
C5343 C 0.1612 0.24441 0.87387 0.0
C5344 C 0.14585 0.24003 0.87423 0.0
C5345 C 0.13449 0.2504 0.87004 0.0
C5346 C 0.17351 0.23304 0.87488 0.0
C5347 C 0.17751 0.22678 0.88899 0.0
C5348 C 0.18228 0.22956 0.86192 0.0
C5349 C 0.17807 0.23487 0.84653 0.0
C5350 C 0.16418 0.23038 0.84009 0.0
C5351 C 0.16086 0.23396 0.825 0.0
C5352 C 0.17116 0.24242 0.81634 0.0
C5353 C 0.18487 0.24724 0.82278 0.0
C5354 C 0.1884 0.24338 0.83779 0.0
C5355 C 0.22695 0.18139 0.8815 0.0
C5356 C 0.23957 0.18696 0.87344 0.0
C5357 C 0.21406 0.19054 0.8835 0.0
C5358 C 0.21387 0.20548 0.87782 0.0
C5359 C 0.22691 0.21119 0.8705 0.0
C5360 C 0.23955 0.20195 0.86816 0.0
C5361 C 0.19968 0.21463 0.87754 0.0
C5362 C 0.19515 0.22042 0.8634 0.0
C5363 C 0.19059 0.21762 0.89053 0.0
C5364 C 0.19475 0.2121 0.90591 0.0
C5365 C 0.20903 0.21555 0.91225 0.0
C5366 C 0.21265 0.21069 0.92695 0.0
C5367 C 0.20207 0.20243 0.93545 0.0
C5368 C 0.18783 0.19901 0.92927 0.0
C5369 C 0.18415 0.20384 0.91458 0.0
H5370 H 0.20488 0.19871 0.94684 0.0
H5371 H 0.16857 0.24518 0.80464 0.0
H5372 H 0.33171 0.72516 0.38298 0.0
H5373 H 0.31654 0.70203 0.38715 0.0
H5374 H 0.27542 0.72748 0.3787 0.0
H5375 H 0.29062 0.75053 0.37436 0.0
H5376 H 0.27236 0.70513 0.40228 0.0
H5377 H 0.28904 0.71053 0.35051 0.0
H5378 H 0.30829 0.71488 0.33061 0.0
H5379 H 0.33213 0.67458 0.34448 0.0
H5380 H 0.31311 0.67014 0.36471 0.0
H5381 H 0.2194 0.65763 0.36566 0.0
H5382 H 0.23732 0.67664 0.37496 0.0
H5383 H 0.27189 0.6421 0.37949 0.0
H5384 H 0.2539 0.62292 0.37007 0.0
H5385 H 0.28091 0.66658 0.36194 0.0
H5386 H 0.25887 0.65925 0.41105 0.0
H5387 H 0.23739 0.65603 0.42878 0.0
H5388 H 0.22132 0.70083 0.41786 0.0
H5389 H 0.24261 0.70425 0.39992 0.0
C5390 C 0.31941 0.72578 0.3823 0.0
C5391 C 0.31222 0.73942 0.37829 0.0
C5392 C 0.31079 0.71265 0.38472 0.0
C5393 C 0.29488 0.71308 0.38321 0.0
C5394 C 0.28766 0.72696 0.38003 0.0
C5395 C 0.29631 0.74004 0.37744 0.0
C5396 C 0.28594 0.69881 0.38291 0.0
C5397 C 0.27423 0.69664 0.39353 0.0
C5398 C 0.28851 0.68773 0.37155 0.0
C5399 C 0.29979 0.69012 0.35924 0.0
C5400 C 0.29845 0.70266 0.3494 0.0
C5401 C 0.30931 0.70514 0.33807 0.0
C5402 C 0.32145 0.69505 0.33634 0.0
C5403 C 0.32273 0.68241 0.34589 0.0
C5404 C 0.31192 0.67991 0.3573 0.0
C5405 C 0.23071 0.65401 0.369 0.0
C5406 C 0.23529 0.63883 0.36712 0.0
C5407 C 0.24092 0.66487 0.37437 0.0
C5408 C 0.25592 0.66077 0.37798 0.0
C5409 C 0.26034 0.64547 0.37682 0.0
C5410 C 0.25004 0.63452 0.37155 0.0
C5411 C 0.26722 0.67282 0.38128 0.0
C5412 C 0.27933 0.67472 0.37107 0.0
C5413 C 0.26481 0.68374 0.39286 0.0
C5414 C 0.25234 0.68199 0.40411 0.0
C5415 C 0.25075 0.66841 0.41241 0.0
C5416 C 0.2386 0.66655 0.4225 0.0
C5417 C 0.22799 0.67822 0.42444 0.0
C5418 C 0.22956 0.69181 0.41636 0.0
C5419 C 0.2417 0.69374 0.40626 0.0
H5420 H 0.21856 0.67673 0.43221 0.0
H5421 H 0.32982 0.69701 0.32758 0.0
H5422 H 0.74226 0.37304 0.36378 0.0
H5423 H 0.72513 0.35228 0.37076 0.0
H5424 H 0.76387 0.32427 0.38218 0.0
H5425 H 0.78094 0.34473 0.37423 0.0
H5426 H 0.74747 0.30983 0.36387 0.0
H5427 H 0.73579 0.33732 0.40921 0.0
H5428 H 0.7284 0.3597 0.42439 0.0
H5429 H 0.68533 0.36143 0.40143 0.0
H5430 H 0.69252 0.33918 0.38595 0.0
H5431 H 0.70318 0.24639 0.38577 0.0
H5432 H 0.71913 0.2691 0.3889 0.0
H5433 H 0.68479 0.29628 0.36675 0.0
H5434 H 0.66886 0.27349 0.36355 0.0
H5435 H 0.69895 0.31073 0.39263 0.0
H5436 H 0.71245 0.28503 0.34586 0.0
H5437 H 0.7207 0.26351 0.3298 0.0
H5438 H 0.76155 0.25919 0.35621 0.0
H5439 H 0.75339 0.28043 0.37258 0.0
C5440 C 0.74705 0.3626 0.36824 0.0
C5441 C 0.76286 0.36041 0.36853 0.0
C5442 C 0.73726 0.35073 0.37228 0.0
C5443 C 0.74316 0.33665 0.37709 0.0
C5444 C 0.75901 0.33496 0.37844 0.0
C5445 C 0.76877 0.34665 0.37399 0.0
C5446 C 0.73309 0.32314 0.37864 0.0
C5447 C 0.73708 0.30998 0.37052 0.0
C5448 C 0.71922 0.32339 0.38686 0.0
C5449 C 0.71475 0.33663 0.39634 0.0
C5450 C 0.72477 0.34252 0.40733 0.0
C5451 C 0.72061 0.35518 0.416 0.0
C5452 C 0.70642 0.362 0.41386 0.0
C5453 C 0.69632 0.35614 0.40308 0.0
C5454 C 0.70042 0.34349 0.39437 0.0
C5455 C 0.69901 0.25727 0.38175 0.0
C5456 C 0.68502 0.25828 0.37414 0.0
C5457 C 0.70809 0.27019 0.38352 0.0
C5458 C 0.70319 0.28432 0.37791 0.0
C5459 C 0.68879 0.28547 0.3711 0.0
C5460 C 0.6798 0.27249 0.36914 0.0
C5461 C 0.71358 0.29758 0.37806 0.0
C5462 C 0.70956 0.31064 0.38632 0.0
C5463 C 0.72753 0.29726 0.37009 0.0
C5464 C 0.73218 0.28413 0.36059 0.0
C5465 C 0.72305 0.2793 0.34839 0.0
C5466 C 0.72773 0.26718 0.33921 0.0
C5467 C 0.74158 0.25992 0.34205 0.0
C5468 C 0.75078 0.26474 0.35408 0.0
C5469 C 0.74612 0.27681 0.36331 0.0
H5470 H 0.74523 0.25062 0.33486 0.0
H5471 H 0.70323 0.37181 0.42057 0.0
loop_
_geom_bond_atom_site_label_1
_geom_bond_atom_site_label_2
_geom_bond_distance
_geom_bond_site_symmetry_2
_ccdc_geom_bond_type
Mg0 O1 2.028 . S
Mg0 O7 1.986 . S
Mg0 O9 2.114 . S
Mg0 O10 2.251 . S
Mg0 O13 2.010 . S
O1 Mg0 2.028 . S
O1 C4 1.250 . S
O2 Mg3 2.028 . S
O2 C4 1.248 . S
Mg3 O2 2.028 . S
Mg3 O8 2.032 . S
Mg3 O10 2.079 . S
C4 O1 1.250 . S
C4 O2 1.248 . S
C5 O6 1.264 . S
C5 O13 1.249 . S
O6 C5 1.264 . S
O7 Mg0 1.986 . S
O7 C11 1.246 . S
O8 Mg3 2.032 . S
O8 C11 1.259 . S
O9 Mg0 2.114 . S
O9 C12 1.252 . S
O10 Mg0 2.251 . S
O10 Mg3 2.079 . S
O10 C12 1.273 . S
C11 O7 1.246 . S
C11 O8 1.259 . S
C12 O9 1.252 . S
C12 O10 1.273 . S
O13 Mg0 2.010 . S
O13 C5 1.249 . S
Mg14 O15 2.028 . S
Mg14 O21 1.986 . S
Mg14 O23 2.114 . S
Mg14 O24 2.251 . S
Mg14 O27 2.010 . S
O15 Mg14 2.028 . S
O15 C18 1.250 . S
O16 Mg17 2.028 . S
O16 C18 1.248 . S
Mg17 O16 2.028 . S
Mg17 O22 2.032 . S
Mg17 O24 2.079 . S
C18 O15 1.250 . S
C18 O16 1.248 . S
C19 O20 1.264 . S
C19 O27 1.249 . S
O20 C19 1.264 . S
O21 Mg14 1.986 . S
O21 C25 1.246 . S
O22 Mg17 2.032 . S
O22 C25 1.259 . S
O23 Mg14 2.114 . S
O23 C26 1.252 . S
O24 Mg14 2.251 . S
O24 Mg17 2.079 . S
O24 C26 1.273 . S
C25 O21 1.246 . S
C25 O22 1.259 . S
C26 O23 1.252 . S
C26 O24 1.273 . S
O27 Mg14 2.010 . S
O27 C19 1.249 . S
Mg28 O29 2.028 . S
Mg28 O35 1.986 . S
Mg28 O37 2.114 . S
Mg28 O38 2.251 . S
Mg28 O41 2.010 . S
O29 Mg28 2.028 . S
O29 C32 1.250 . S
O30 Mg31 2.028 . S
O30 C32 1.248 . S
Mg31 O30 2.028 . S
Mg31 O36 2.032 . S
Mg31 O38 2.079 . S
C32 O29 1.250 . S
C32 O30 1.248 . S
C33 O34 1.264 . S
C33 O41 1.249 . S
O34 C33 1.264 . S
O35 Mg28 1.986 . S
O35 C39 1.246 . S
O36 Mg31 2.032 . S
O36 C39 1.259 . S
O37 Mg28 2.114 . S
O37 C40 1.252 . S
O38 Mg28 2.251 . S
O38 Mg31 2.079 . S
O38 C40 1.273 . S
C39 O35 1.246 . S
C39 O36 1.259 . S
C40 O37 1.252 . S
C40 O38 1.273 . S
O41 Mg28 2.010 . S
O41 C33 1.249 . S
Mg42 O43 2.028 . S
Mg42 O49 1.986 . S
Mg42 O51 2.114 . S
Mg42 O52 2.251 . S
Mg42 O55 2.010 . S
O43 Mg42 2.028 . S
O43 C46 1.250 . S
O44 Mg45 2.028 . S
O44 C46 1.248 . S
Mg45 O44 2.028 . S
Mg45 O50 2.032 . S
Mg45 O52 2.079 . S
C46 O43 1.250 . S
C46 O44 1.248 . S
C47 O48 1.264 . S
C47 O55 1.249 . S
O48 C47 1.264 . S
O49 Mg42 1.986 . S
O49 C53 1.246 . S
O50 Mg45 2.032 . S
O50 C53 1.259 . S
O51 Mg42 2.114 . S
O51 C54 1.252 . S
O52 Mg42 2.251 . S
O52 Mg45 2.079 . S
O52 C54 1.273 . S
C53 O49 1.246 . S
C53 O50 1.259 . S
C54 O51 1.252 . S
C54 O52 1.273 . S
O55 Mg42 2.010 . S
O55 C47 1.249 . S
Mg56 O57 2.028 . S
Mg56 O63 1.986 . S
Mg56 O65 2.114 . S
Mg56 O66 2.251 . S
Mg56 O69 2.010 . S
O57 Mg56 2.028 . S
O57 C60 1.250 . S
O58 Mg59 2.028 . S
O58 C60 1.248 . S
Mg59 O58 2.028 . S
Mg59 O64 2.032 . S
Mg59 O66 2.079 . S
C60 O57 1.250 . S
C60 O58 1.248 . S
C61 O62 1.264 . S
C61 O69 1.249 . S
O62 C61 1.264 . S
O63 Mg56 1.986 . S
O63 C67 1.246 . S
O64 Mg59 2.032 . S
O64 C67 1.259 . S
O65 Mg56 2.114 . S
O65 C68 1.252 . S
O66 Mg56 2.251 . S
O66 Mg59 2.079 . S
O66 C68 1.273 . S
C67 O63 1.246 . S
C67 O64 1.259 . S
C68 O65 1.252 . S
C68 O66 1.273 . S
O69 Mg56 2.010 . S
O69 C61 1.249 . S
Mg70 O71 2.028 . S
Mg70 O77 1.986 . S
Mg70 O79 2.114 . S
Mg70 O80 2.251 . S
Mg70 O83 2.010 . S
O71 Mg70 2.028 . S
O71 C74 1.250 . S
O72 Mg73 2.028 . S
O72 C74 1.248 . S
Mg73 O72 2.028 . S
Mg73 O78 2.032 . S
Mg73 O80 2.079 . S
C74 O71 1.250 . S
C74 O72 1.248 . S
C75 O76 1.264 . S
C75 O83 1.249 . S
O76 C75 1.264 . S
O77 Mg70 1.986 . S
O77 C81 1.246 . S
O78 Mg73 2.032 . S
O78 C81 1.259 . S
O79 Mg70 2.114 . S
O79 C82 1.252 . S
O80 Mg70 2.251 . S
O80 Mg73 2.079 . S
O80 C82 1.273 . S
C81 O77 1.246 . S
C81 O78 1.259 . S
C82 O79 1.252 . S
C82 O80 1.273 . S
O83 Mg70 2.010 . S
O83 C75 1.249 . S
Mg84 O85 2.028 . S
Mg84 O91 1.986 . S
Mg84 O93 2.114 . S
Mg84 O94 2.251 . S
Mg84 O97 2.010 . S
O85 Mg84 2.028 . S
O85 C88 1.250 . S
O86 Mg87 2.028 . S
O86 C88 1.248 . S
Mg87 O86 2.028 . S
Mg87 O92 2.032 . S
Mg87 O94 2.079 . S
C88 O85 1.250 . S
C88 O86 1.248 . S
C89 O90 1.264 . S
C89 O97 1.249 . S
O90 C89 1.264 . S
O91 Mg84 1.986 . S
O91 C95 1.246 . S
O92 Mg87 2.032 . S
O92 C95 1.259 . S
O93 Mg84 2.114 . S
O93 C96 1.252 . S
O94 Mg84 2.251 . S
O94 Mg87 2.079 . S
O94 C96 1.273 . S
C95 O91 1.246 . S
C95 O92 1.259 . S
C96 O93 1.252 . S
C96 O94 1.273 . S
O97 Mg84 2.010 . S
O97 C89 1.249 . S
Mg98 O99 2.028 . S
Mg98 O105 1.986 . S
Mg98 O107 2.114 . S
Mg98 O108 2.251 . S
Mg98 O111 2.010 . S
O99 Mg98 2.028 . S
O99 C102 1.250 . S
O100 Mg101 2.028 . S
O100 C102 1.248 . S
Mg101 O100 2.028 . S
Mg101 O106 2.032 . S
Mg101 O108 2.079 . S
C102 O99 1.250 . S
C102 O100 1.248 . S
C103 O104 1.264 . S
C103 O111 1.249 . S
O104 C103 1.264 . S
O105 Mg98 1.986 . S
O105 C109 1.246 . S
O106 Mg101 2.032 . S
O106 C109 1.259 . S
O107 Mg98 2.114 . S
O107 C110 1.252 . S
O108 Mg98 2.251 . S
O108 Mg101 2.079 . S
O108 C110 1.273 . S
C109 O105 1.246 . S
C109 O106 1.259 . S
C110 O107 1.252 . S
C110 O108 1.273 . S
O111 Mg98 2.010 . S
O111 C103 1.249 . S
Mg112 O113 2.028 . S
Mg112 O119 1.986 . S
Mg112 O121 2.114 . S
Mg112 O122 2.251 . S
Mg112 O125 2.010 . S
O113 Mg112 2.028 . S
O113 C116 1.250 . S
O114 Mg115 2.028 . S
O114 C116 1.248 . S
Mg115 O114 2.028 . S
Mg115 O120 2.032 . S
Mg115 O122 2.079 . S
C116 O113 1.250 . S
C116 O114 1.248 . S
C117 O118 1.264 . S
C117 O125 1.249 . S
O118 C117 1.264 . S
O119 Mg112 1.986 . S
O119 C123 1.246 . S
O120 Mg115 2.032 . S
O120 C123 1.259 . S
O121 Mg112 2.114 . S
O121 C124 1.252 . S
O122 Mg112 2.251 . S
O122 Mg115 2.079 . S
O122 C124 1.273 . S
C123 O119 1.246 . S
C123 O120 1.259 . S
C124 O121 1.252 . S
C124 O122 1.273 . S
O125 Mg112 2.010 . S
O125 C117 1.249 . S
Mg126 O127 2.028 . S
Mg126 O133 1.986 . S
Mg126 O135 2.114 . S
Mg126 O136 2.251 . S
Mg126 O139 2.010 . S
O127 Mg126 2.028 . S
O127 C130 1.250 . S
O128 Mg129 2.028 . S
O128 C130 1.248 . S
Mg129 O128 2.028 . S
Mg129 O134 2.032 . S
Mg129 O136 2.079 . S
C130 O127 1.250 . S
C130 O128 1.248 . S
C131 O132 1.264 . S
C131 O139 1.249 . S
O132 C131 1.264 . S
O133 Mg126 1.986 . S
O133 C137 1.246 . S
O134 Mg129 2.032 . S
O134 C137 1.259 . S
O135 Mg126 2.114 . S
O135 C138 1.252 . S
O136 Mg126 2.251 . S
O136 Mg129 2.079 . S
O136 C138 1.273 . S
C137 O133 1.246 . S
C137 O134 1.259 . S
C138 O135 1.252 . S
C138 O136 1.273 . S
O139 Mg126 2.010 . S
O139 C131 1.249 . S
Mg140 O141 2.028 . S
Mg140 O147 1.986 . S
Mg140 O149 2.114 . S
Mg140 O150 2.251 . S
Mg140 O153 2.010 . S
O141 Mg140 2.028 . S
O141 C144 1.250 . S
O142 Mg143 2.028 . S
O142 C144 1.248 . S
Mg143 O142 2.028 . S
Mg143 O148 2.032 . S
Mg143 O150 2.079 . S
C144 O141 1.250 . S
C144 O142 1.248 . S
C145 O146 1.264 . S
C145 O153 1.249 . S
O146 C145 1.264 . S
O147 Mg140 1.986 . S
O147 C151 1.246 . S
O148 Mg143 2.032 . S
O148 C151 1.259 . S
O149 Mg140 2.114 . S
O149 C152 1.252 . S
O150 Mg140 2.251 . S
O150 Mg143 2.079 . S
O150 C152 1.273 . S
C151 O147 1.246 . S
C151 O148 1.259 . S
C152 O149 1.252 . S
C152 O150 1.273 . S
O153 Mg140 2.010 . S
O153 C145 1.249 . S
Mg154 O155 2.028 . S
Mg154 O161 1.986 . S
Mg154 O163 2.114 . S
Mg154 O164 2.251 . S
Mg154 O167 2.010 . S
O155 Mg154 2.028 . S
O155 C158 1.250 . S
O156 Mg157 2.028 . S
O156 C158 1.248 . S
Mg157 O156 2.028 . S
Mg157 O162 2.032 . S
Mg157 O164 2.079 . S
C158 O155 1.250 . S
C158 O156 1.248 . S
C159 O160 1.264 . S
C159 O167 1.249 . S
O160 C159 1.264 . S
O161 Mg154 1.986 . S
O161 C165 1.246 . S
O162 Mg157 2.032 . S
O162 C165 1.259 . S
O163 Mg154 2.114 . S
O163 C166 1.252 . S
O164 Mg154 2.251 . S
O164 Mg157 2.079 . S
O164 C166 1.273 . S
C165 O161 1.246 . S
C165 O162 1.259 . S
C166 O163 1.252 . S
C166 O164 1.273 . S
O167 Mg154 2.010 . S
O167 C159 1.249 . S
Mg168 O169 2.028 . S
Mg168 O175 1.986 . S
Mg168 O177 2.114 . S
Mg168 O178 2.251 . S
Mg168 O181 2.010 . S
O169 Mg168 2.028 . S
O169 C172 1.250 . S
O170 Mg171 2.028 . S
O170 C172 1.248 . S
Mg171 O170 2.028 . S
Mg171 O176 2.032 . S
Mg171 O178 2.079 . S
C172 O169 1.250 . S
C172 O170 1.248 . S
C173 O174 1.264 . S
C173 O181 1.249 . S
O174 C173 1.264 . S
O175 Mg168 1.986 . S
O175 C179 1.246 . S
O176 Mg171 2.032 . S
O176 C179 1.259 . S
O177 Mg168 2.114 . S
O177 C180 1.252 . S
O178 Mg168 2.251 . S
O178 Mg171 2.079 . S
O178 C180 1.273 . S
C179 O175 1.246 . S
C179 O176 1.259 . S
C180 O177 1.252 . S
C180 O178 1.273 . S
O181 Mg168 2.010 . S
O181 C173 1.249 . S
Mg182 O183 2.028 . S
Mg182 O189 1.986 . S
Mg182 O191 2.114 . S
Mg182 O192 2.251 . S
Mg182 O195 2.010 . S
O183 Mg182 2.028 . S
O183 C186 1.250 . S
O184 Mg185 2.028 . S
O184 C186 1.248 . S
Mg185 O184 2.028 . S
Mg185 O190 2.032 . S
Mg185 O192 2.079 . S
C186 O183 1.250 . S
C186 O184 1.248 . S
C187 O188 1.264 . S
C187 O195 1.249 . S
O188 C187 1.264 . S
O189 Mg182 1.986 . S
O189 C193 1.246 . S
O190 Mg185 2.032 . S
O190 C193 1.259 . S
O191 Mg182 2.114 . S
O191 C194 1.252 . S
O192 Mg182 2.251 . S
O192 Mg185 2.079 . S
O192 C194 1.273 . S
C193 O189 1.246 . S
C193 O190 1.259 . S
C194 O191 1.252 . S
C194 O192 1.273 . S
O195 Mg182 2.010 . S
O195 C187 1.249 . S
Mg196 O197 2.028 . S
Mg196 O203 1.986 . S
Mg196 O205 2.114 . S
Mg196 O206 2.251 . S
Mg196 O209 2.010 . S
O197 Mg196 2.028 . S
O197 C200 1.250 . S
O198 Mg199 2.028 . S
O198 C200 1.248 . S
Mg199 O198 2.028 . S
Mg199 O204 2.032 . S
Mg199 O206 2.079 . S
C200 O197 1.250 . S
C200 O198 1.248 . S
C201 O202 1.264 . S
C201 O209 1.249 . S
O202 C201 1.264 . S
O203 Mg196 1.986 . S
O203 C207 1.246 . S
O204 Mg199 2.032 . S
O204 C207 1.259 . S
O205 Mg196 2.114 . S
O205 C208 1.252 . S
O206 Mg196 2.251 . S
O206 Mg199 2.079 . S
O206 C208 1.273 . S
C207 O203 1.246 . S
C207 O204 1.259 . S
C208 O205 1.252 . S
C208 O206 1.273 . S
O209 Mg196 2.010 . S
O209 C201 1.249 . S
Mg210 O211 2.028 . S
Mg210 O217 1.986 . S
Mg210 O219 2.114 . S
Mg210 O220 2.251 . S
Mg210 O223 2.010 . S
O211 Mg210 2.028 . S
O211 C214 1.250 . S
O212 Mg213 2.028 . S
O212 C214 1.248 . S
Mg213 O212 2.028 . S
Mg213 O218 2.032 . S
Mg213 O220 2.079 . S
C214 O211 1.250 . S
C214 O212 1.248 . S
C215 O216 1.264 . S
C215 O223 1.249 . S
O216 C215 1.264 . S
O217 Mg210 1.986 . S
O217 C221 1.246 . S
O218 Mg213 2.032 . S
O218 C221 1.259 . S
O219 Mg210 2.114 . S
O219 C222 1.252 . S
O220 Mg210 2.251 . S
O220 Mg213 2.079 . S
O220 C222 1.273 . S
C221 O217 1.246 . S
C221 O218 1.259 . S
C222 O219 1.252 . S
C222 O220 1.273 . S
O223 Mg210 2.010 . S
O223 C215 1.249 . S
Mg224 O225 2.028 . S
Mg224 O231 1.986 . S
Mg224 O233 2.114 . S
Mg224 O234 2.251 . S
Mg224 O237 2.010 . S
O225 Mg224 2.028 . S
O225 C228 1.250 . S
O226 Mg227 2.028 . S
O226 C228 1.248 . S
Mg227 O226 2.028 . S
Mg227 O232 2.032 . S
Mg227 O234 2.079 . S
C228 O225 1.250 . S
C228 O226 1.248 . S
C229 O230 1.264 . S
C229 O237 1.249 . S
O230 C229 1.264 . S
O231 Mg224 1.986 . S
O231 C235 1.246 . S
O232 Mg227 2.032 . S
O232 C235 1.259 . S
O233 Mg224 2.114 . S
O233 C236 1.252 . S
O234 Mg224 2.251 . S
O234 Mg227 2.079 . S
O234 C236 1.273 . S
C235 O231 1.246 . S
C235 O232 1.259 . S
C236 O233 1.252 . S
C236 O234 1.273 . S
O237 Mg224 2.010 . S
O237 C229 1.249 . S
Mg238 O239 2.028 . S
Mg238 O245 1.986 . S
Mg238 O247 2.114 . S
Mg238 O248 2.251 . S
Mg238 O251 2.010 . S
O239 Mg238 2.028 . S
O239 C242 1.250 . S
O240 Mg241 2.028 . S
O240 C242 1.248 . S
Mg241 O240 2.028 . S
Mg241 O246 2.032 . S
Mg241 O248 2.079 . S
C242 O239 1.250 . S
C242 O240 1.248 . S
C243 O244 1.264 . S
C243 O251 1.249 . S
O244 C243 1.264 . S
O245 Mg238 1.986 . S
O245 C249 1.246 . S
O246 Mg241 2.032 . S
O246 C249 1.259 . S
O247 Mg238 2.114 . S
O247 C250 1.252 . S
O248 Mg238 2.251 . S
O248 Mg241 2.079 . S
O248 C250 1.273 . S
C249 O245 1.246 . S
C249 O246 1.259 . S
C250 O247 1.252 . S
C250 O248 1.273 . S
O251 Mg238 2.010 . S
O251 C243 1.249 . S
Mg252 O253 2.028 . S
Mg252 O259 1.986 . S
Mg252 O261 2.114 . S
Mg252 O262 2.251 . S
Mg252 O265 2.010 . S
O253 Mg252 2.028 . S
O253 C256 1.250 . S
O254 Mg255 2.028 . S
O254 C256 1.248 . S
Mg255 O254 2.028 . S
Mg255 O260 2.032 . S
Mg255 O262 2.079 . S
C256 O253 1.250 . S
C256 O254 1.248 . S
C257 O258 1.264 . S
C257 O265 1.249 . S
O258 C257 1.264 . S
O259 Mg252 1.986 . S
O259 C263 1.246 . S
O260 Mg255 2.032 . S
O260 C263 1.259 . S
O261 Mg252 2.114 . S
O261 C264 1.252 . S
O262 Mg252 2.251 . S
O262 Mg255 2.079 . S
O262 C264 1.273 . S
C263 O259 1.246 . S
C263 O260 1.259 . S
C264 O261 1.252 . S
C264 O262 1.273 . S
O265 Mg252 2.010 . S
O265 C257 1.249 . S
Mg266 O267 2.028 . S
Mg266 O273 1.986 . S
Mg266 O275 2.114 . S
Mg266 O276 2.251 . S
Mg266 O279 2.010 . S
O267 Mg266 2.028 . S
O267 C270 1.250 . S
O268 Mg269 2.028 . S
O268 C270 1.248 . S
Mg269 O268 2.028 . S
Mg269 O274 2.032 . S
Mg269 O276 2.079 . S
C270 O267 1.250 . S
C270 O268 1.248 . S
C271 O272 1.264 . S
C271 O279 1.249 . S
O272 C271 1.264 . S
O273 Mg266 1.986 . S
O273 C277 1.246 . S
O274 Mg269 2.032 . S
O274 C277 1.259 . S
O275 Mg266 2.114 . S
O275 C278 1.252 . S
O276 Mg266 2.251 . S
O276 Mg269 2.079 . S
O276 C278 1.273 . S
C277 O273 1.246 . S
C277 O274 1.259 . S
C278 O275 1.252 . S
C278 O276 1.273 . S
O279 Mg266 2.010 . S
O279 C271 1.249 . S
Mg280 O281 2.028 . S
Mg280 O287 1.986 . S
Mg280 O289 2.114 . S
Mg280 O290 2.251 . S
Mg280 O293 2.010 . S
O281 Mg280 2.028 . S
O281 C284 1.250 . S
O282 Mg283 2.028 . S
O282 C284 1.248 . S
Mg283 O282 2.028 . S
Mg283 O288 2.032 . S
Mg283 O290 2.079 . S
C284 O281 1.250 . S
C284 O282 1.248 . S
C285 O286 1.264 . S
C285 O293 1.249 . S
O286 C285 1.264 . S
O287 Mg280 1.986 . S
O287 C291 1.246 . S
O288 Mg283 2.032 . S
O288 C291 1.259 . S
O289 Mg280 2.114 . S
O289 C292 1.252 . S
O290 Mg280 2.251 . S
O290 Mg283 2.079 . S
O290 C292 1.273 . S
C291 O287 1.246 . S
C291 O288 1.259 . S
C292 O289 1.252 . S
C292 O290 1.273 . S
O293 Mg280 2.010 . S
O293 C285 1.249 . S
Mg294 O295 2.028 . S
Mg294 O301 1.986 . S
Mg294 O303 2.114 . S
Mg294 O304 2.251 . S
Mg294 O307 2.010 . S
O295 Mg294 2.028 . S
O295 C298 1.250 . S
O296 Mg297 2.028 . S
O296 C298 1.248 . S
Mg297 O296 2.028 . S
Mg297 O302 2.032 . S
Mg297 O304 2.079 . S
C298 O295 1.250 . S
C298 O296 1.248 . S
C299 O300 1.264 . S
C299 O307 1.249 . S
O300 C299 1.264 . S
O301 Mg294 1.986 . S
O301 C305 1.246 . S
O302 Mg297 2.032 . S
O302 C305 1.259 . S
O303 Mg294 2.114 . S
O303 C306 1.252 . S
O304 Mg294 2.251 . S
O304 Mg297 2.079 . S
O304 C306 1.273 . S
C305 O301 1.246 . S
C305 O302 1.259 . S
C306 O303 1.252 . S
C306 O304 1.273 . S
O307 Mg294 2.010 . S
O307 C299 1.249 . S
Mg308 O309 2.028 . S
Mg308 O315 1.986 . S
Mg308 O317 2.114 . S
Mg308 O318 2.251 . S
Mg308 O321 2.010 . S
O309 Mg308 2.028 . S
O309 C312 1.250 . S
O310 Mg311 2.028 . S
O310 C312 1.248 . S
Mg311 O310 2.028 . S
Mg311 O316 2.032 . S
Mg311 O318 2.079 . S
C312 O309 1.250 . S
C312 O310 1.248 . S
C313 O314 1.264 . S
C313 O321 1.249 . S
O314 C313 1.264 . S
O315 Mg308 1.986 . S
O315 C319 1.246 . S
O316 Mg311 2.032 . S
O316 C319 1.259 . S
O317 Mg308 2.114 . S
O317 C320 1.252 . S
O318 Mg308 2.251 . S
O318 Mg311 2.079 . S
O318 C320 1.273 . S
C319 O315 1.246 . S
C319 O316 1.259 . S
C320 O317 1.252 . S
C320 O318 1.273 . S
O321 Mg308 2.010 . S
O321 C313 1.249 . S
Mg322 O323 2.028 . S
Mg322 O329 1.986 . S
Mg322 O331 2.114 . S
Mg322 O332 2.251 . S
Mg322 O335 2.010 . S
O323 Mg322 2.028 . S
O323 C326 1.250 . S
O324 Mg325 2.028 . S
O324 C326 1.248 . S
Mg325 O324 2.028 . S
Mg325 O330 2.032 . S
Mg325 O332 2.079 . S
C326 O323 1.250 . S
C326 O324 1.248 . S
C327 O328 1.264 . S
C327 O335 1.249 . S
O328 C327 1.264 . S
O329 Mg322 1.986 . S
O329 C333 1.246 . S
O330 Mg325 2.032 . S
O330 C333 1.259 . S
O331 Mg322 2.114 . S
O331 C334 1.252 . S
O332 Mg322 2.251 . S
O332 Mg325 2.079 . S
O332 C334 1.273 . S
C333 O329 1.246 . S
C333 O330 1.259 . S
C334 O331 1.252 . S
C334 O332 1.273 . S
O335 Mg322 2.010 . S
O335 C327 1.249 . S
Mg336 O337 2.028 . S
Mg336 O343 1.986 . S
Mg336 O345 2.114 . S
Mg336 O346 2.251 . S
Mg336 O349 2.010 . S
O337 Mg336 2.028 . S
O337 C340 1.250 . S
O338 Mg339 2.028 . S
O338 C340 1.248 . S
Mg339 O338 2.028 . S
Mg339 O344 2.032 . S
Mg339 O346 2.079 . S
C340 O337 1.250 . S
C340 O338 1.248 . S
C341 O342 1.264 . S
C341 O349 1.249 . S
O342 C341 1.264 . S
O343 Mg336 1.986 . S
O343 C347 1.246 . S
O344 Mg339 2.032 . S
O344 C347 1.259 . S
O345 Mg336 2.114 . S
O345 C348 1.252 . S
O346 Mg336 2.251 . S
O346 Mg339 2.079 . S
O346 C348 1.273 . S
C347 O343 1.246 . S
C347 O344 1.259 . S
C348 O345 1.252 . S
C348 O346 1.273 . S
O349 Mg336 2.010 . S
O349 C341 1.249 . S
Mg350 O351 2.028 . S
Mg350 O357 1.986 . S
Mg350 O359 2.114 . S
Mg350 O360 2.251 . S
Mg350 O363 2.010 . S
O351 Mg350 2.028 . S
O351 C354 1.250 . S
O352 Mg353 2.028 . S
O352 C354 1.248 . S
Mg353 O352 2.028 . S
Mg353 O358 2.032 . S
Mg353 O360 2.079 . S
C354 O351 1.250 . S
C354 O352 1.248 . S
C355 O356 1.264 . S
C355 O363 1.249 . S
O356 C355 1.264 . S
O357 Mg350 1.986 . S
O357 C361 1.246 . S
O358 Mg353 2.032 . S
O358 C361 1.259 . S
O359 Mg350 2.114 . S
O359 C362 1.252 . S
O360 Mg350 2.251 . S
O360 Mg353 2.079 . S
O360 C362 1.273 . S
C361 O357 1.246 . S
C361 O358 1.259 . S
C362 O359 1.252 . S
C362 O360 1.273 . S
O363 Mg350 2.010 . S
O363 C355 1.249 . S
Mg364 O365 2.028 . S
Mg364 O371 1.986 . S
Mg364 O373 2.114 . S
Mg364 O374 2.251 . S
Mg364 O377 2.010 . S
O365 Mg364 2.028 . S
O365 C368 1.250 . S
O366 Mg367 2.028 . S
O366 C368 1.248 . S
Mg367 O366 2.028 . S
Mg367 O372 2.032 . S
Mg367 O374 2.079 . S
C368 O365 1.250 . S
C368 O366 1.248 . S
C369 O370 1.264 . S
C369 O377 1.249 . S
O370 C369 1.264 . S
O371 Mg364 1.986 . S
O371 C375 1.246 . S
O372 Mg367 2.032 . S
O372 C375 1.259 . S
O373 Mg364 2.114 . S
O373 C376 1.252 . S
O374 Mg364 2.251 . S
O374 Mg367 2.079 . S
O374 C376 1.273 . S
C375 O371 1.246 . S
C375 O372 1.259 . S
C376 O373 1.252 . S
C376 O374 1.273 . S
O377 Mg364 2.010 . S
O377 C369 1.249 . S
Mg378 O379 2.028 . S
Mg378 O385 1.986 . S
Mg378 O387 2.114 . S
Mg378 O388 2.251 . S
Mg378 O391 2.010 . S
O379 Mg378 2.028 . S
O379 C382 1.250 . S
O380 Mg381 2.028 . S
O380 C382 1.248 . S
Mg381 O380 2.028 . S
Mg381 O386 2.032 . S
Mg381 O388 2.079 . S
C382 O379 1.250 . S
C382 O380 1.248 . S
C383 O384 1.264 . S
C383 O391 1.249 . S
O384 C383 1.264 . S
O385 Mg378 1.986 . S
O385 C389 1.246 . S
O386 Mg381 2.032 . S
O386 C389 1.259 . S
O387 Mg378 2.114 . S
O387 C390 1.252 . S
O388 Mg378 2.251 . S
O388 Mg381 2.079 . S
O388 C390 1.273 . S
C389 O385 1.246 . S
C389 O386 1.259 . S
C390 O387 1.252 . S
C390 O388 1.273 . S
O391 Mg378 2.010 . S
O391 C383 1.249 . S
Mg392 O393 2.028 . S
Mg392 O399 1.986 . S
Mg392 O401 2.114 . S
Mg392 O402 2.251 . S
Mg392 O405 2.010 . S
O393 Mg392 2.028 . S
O393 C396 1.250 . S
O394 Mg395 2.028 . S
O394 C396 1.248 . S
Mg395 O394 2.028 . S
Mg395 O400 2.032 . S
Mg395 O402 2.079 . S
C396 O393 1.250 . S
C396 O394 1.248 . S
C397 O398 1.264 . S
C397 O405 1.249 . S
O398 C397 1.264 . S
O399 Mg392 1.986 . S
O399 C403 1.246 . S
O400 Mg395 2.032 . S
O400 C403 1.259 . S
O401 Mg392 2.114 . S
O401 C404 1.252 . S
O402 Mg392 2.251 . S
O402 Mg395 2.079 . S
O402 C404 1.273 . S
C403 O399 1.246 . S
C403 O400 1.259 . S
C404 O401 1.252 . S
C404 O402 1.273 . S
O405 Mg392 2.010 . S
O405 C397 1.249 . S
Mg406 O407 2.028 . S
Mg406 O413 1.986 . S
Mg406 O415 2.114 . S
Mg406 O416 2.251 . S
Mg406 O419 2.010 . S
O407 Mg406 2.028 . S
O407 C410 1.250 . S
O408 Mg409 2.028 . S
O408 C410 1.248 . S
Mg409 O408 2.028 . S
Mg409 O414 2.032 . S
Mg409 O416 2.079 . S
C410 O407 1.250 . S
C410 O408 1.248 . S
C411 O412 1.264 . S
C411 O419 1.249 . S
O412 C411 1.264 . S
O413 Mg406 1.986 . S
O413 C417 1.246 . S
O414 Mg409 2.032 . S
O414 C417 1.259 . S
O415 Mg406 2.114 . S
O415 C418 1.252 . S
O416 Mg406 2.251 . S
O416 Mg409 2.079 . S
O416 C418 1.273 . S
C417 O413 1.246 . S
C417 O414 1.259 . S
C418 O415 1.252 . S
C418 O416 1.273 . S
O419 Mg406 2.010 . S
O419 C411 1.249 . S
Mg420 O421 2.028 . S
Mg420 O427 1.986 . S
Mg420 O429 2.114 . S
Mg420 O430 2.251 . S
Mg420 O433 2.010 . S
O421 Mg420 2.028 . S
O421 C424 1.250 . S
O422 Mg423 2.028 . S
O422 C424 1.248 . S
Mg423 O422 2.028 . S
Mg423 O428 2.032 . S
Mg423 O430 2.079 . S
C424 O421 1.250 . S
C424 O422 1.248 . S
C425 O426 1.264 . S
C425 O433 1.249 . S
O426 C425 1.264 . S
O427 Mg420 1.986 . S
O427 C431 1.246 . S
O428 Mg423 2.032 . S
O428 C431 1.259 . S
O429 Mg420 2.114 . S
O429 C432 1.252 . S
O430 Mg420 2.251 . S
O430 Mg423 2.079 . S
O430 C432 1.273 . S
C431 O427 1.246 . S
C431 O428 1.259 . S
C432 O429 1.252 . S
C432 O430 1.273 . S
O433 Mg420 2.010 . S
O433 C425 1.249 . S
Mg434 O435 2.028 . S
Mg434 O441 1.986 . S
Mg434 O443 2.114 . S
Mg434 O444 2.251 . S
Mg434 O447 2.010 . S
O435 Mg434 2.028 . S
O435 C438 1.250 . S
O436 Mg437 2.028 . S
O436 C438 1.248 . S
Mg437 O436 2.028 . S
Mg437 O442 2.032 . S
Mg437 O444 2.079 . S
C438 O435 1.250 . S
C438 O436 1.248 . S
C439 O440 1.264 . S
C439 O447 1.249 . S
O440 C439 1.264 . S
O441 Mg434 1.986 . S
O441 C445 1.246 . S
O442 Mg437 2.032 . S
O442 C445 1.259 . S
O443 Mg434 2.114 . S
O443 C446 1.252 . S
O444 Mg434 2.251 . S
O444 Mg437 2.079 . S
O444 C446 1.273 . S
C445 O441 1.246 . S
C445 O442 1.259 . S
C446 O443 1.252 . S
C446 O444 1.273 . S
O447 Mg434 2.010 . S
O447 C439 1.249 . S
Mg448 O449 2.028 . S
Mg448 O455 1.986 . S
Mg448 O457 2.114 . S
Mg448 O458 2.251 . S
Mg448 O461 2.010 . S
O449 Mg448 2.028 . S
O449 C452 1.250 . S
O450 Mg451 2.028 . S
O450 C452 1.248 . S
Mg451 O450 2.028 . S
Mg451 O456 2.032 . S
Mg451 O458 2.079 . S
C452 O449 1.250 . S
C452 O450 1.248 . S
C453 O454 1.264 . S
C453 O461 1.249 . S
O454 C453 1.264 . S
O455 Mg448 1.986 . S
O455 C459 1.246 . S
O456 Mg451 2.032 . S
O456 C459 1.259 . S
O457 Mg448 2.114 . S
O457 C460 1.252 . S
O458 Mg448 2.251 . S
O458 Mg451 2.079 . S
O458 C460 1.273 . S
C459 O455 1.246 . S
C459 O456 1.259 . S
C460 O457 1.252 . S
C460 O458 1.273 . S
O461 Mg448 2.010 . S
O461 C453 1.249 . S
Mg462 O463 2.028 . S
Mg462 O469 1.986 . S
Mg462 O471 2.114 . S
Mg462 O472 2.251 . S
Mg462 O475 2.010 . S
O463 Mg462 2.028 . S
O463 C466 1.250 . S
O464 Mg465 2.028 . S
O464 C466 1.248 . S
Mg465 O464 2.028 . S
Mg465 O470 2.032 . S
Mg465 O472 2.079 . S
C466 O463 1.250 . S
C466 O464 1.248 . S
C467 O468 1.264 . S
C467 O475 1.249 . S
O468 C467 1.264 . S
O469 Mg462 1.986 . S
O469 C473 1.246 . S
O470 Mg465 2.032 . S
O470 C473 1.259 . S
O471 Mg462 2.114 . S
O471 C474 1.252 . S
O472 Mg462 2.251 . S
O472 Mg465 2.079 . S
O472 C474 1.273 . S
C473 O469 1.246 . S
C473 O470 1.259 . S
C474 O471 1.252 . S
C474 O472 1.273 . S
O475 Mg462 2.010 . S
O475 C467 1.249 . S
Mg476 O477 2.028 . S
Mg476 O483 1.986 . S
Mg476 O485 2.114 . S
Mg476 O486 2.251 . S
Mg476 O489 2.010 . S
O477 Mg476 2.028 . S
O477 C480 1.250 . S
O478 Mg479 2.028 . S
O478 C480 1.248 . S
Mg479 O478 2.028 . S
Mg479 O484 2.032 . S
Mg479 O486 2.079 . S
C480 O477 1.250 . S
C480 O478 1.248 . S
C481 O482 1.264 . S
C481 O489 1.249 . S
O482 C481 1.264 . S
O483 Mg476 1.986 . S
O483 C487 1.246 . S
O484 Mg479 2.032 . S
O484 C487 1.259 . S
O485 Mg476 2.114 . S
O485 C488 1.252 . S
O486 Mg476 2.251 . S
O486 Mg479 2.079 . S
O486 C488 1.273 . S
C487 O483 1.246 . S
C487 O484 1.259 . S
C488 O485 1.252 . S
C488 O486 1.273 . S
O489 Mg476 2.010 . S
O489 C481 1.249 . S
Mg490 O491 2.028 . S
Mg490 O497 1.986 . S
Mg490 O499 2.114 . S
Mg490 O500 2.251 . S
Mg490 O503 2.010 . S
O491 Mg490 2.028 . S
O491 C494 1.250 . S
O492 Mg493 2.028 . S
O492 C494 1.248 . S
Mg493 O492 2.028 . S
Mg493 O498 2.032 . S
Mg493 O500 2.079 . S
C494 O491 1.250 . S
C494 O492 1.248 . S
C495 O496 1.264 . S
C495 O503 1.249 . S
O496 C495 1.264 . S
O497 Mg490 1.986 . S
O497 C501 1.246 . S
O498 Mg493 2.032 . S
O498 C501 1.259 . S
O499 Mg490 2.114 . S
O499 C502 1.252 . S
O500 Mg490 2.251 . S
O500 Mg493 2.079 . S
O500 C502 1.273 . S
C501 O497 1.246 . S
C501 O498 1.259 . S
C502 O499 1.252 . S
C502 O500 1.273 . S
O503 Mg490 2.010 . S
O503 C495 1.249 . S
Mg504 O505 2.028 . S
Mg504 O511 1.986 . S
Mg504 O513 2.114 . S
Mg504 O514 2.251 . S
Mg504 O517 2.010 . S
O505 Mg504 2.028 . S
O505 C508 1.250 . S
O506 Mg507 2.028 . S
O506 C508 1.248 . S
Mg507 O506 2.028 . S
Mg507 O512 2.032 . S
Mg507 O514 2.079 . S
C508 O505 1.250 . S
C508 O506 1.248 . S
C509 O510 1.264 . S
C509 O517 1.249 . S
O510 C509 1.264 . S
O511 Mg504 1.986 . S
O511 C515 1.246 . S
O512 Mg507 2.032 . S
O512 C515 1.259 . S
O513 Mg504 2.114 . S
O513 C516 1.252 . S
O514 Mg504 2.251 . S
O514 Mg507 2.079 . S
O514 C516 1.273 . S
C515 O511 1.246 . S
C515 O512 1.259 . S
C516 O513 1.252 . S
C516 O514 1.273 . S
O517 Mg504 2.010 . S
O517 C509 1.249 . S
Mg518 O519 2.028 . S
Mg518 O525 1.986 . S
Mg518 O527 2.114 . S
Mg518 O528 2.251 . S
Mg518 O531 2.010 . S
O519 Mg518 2.028 . S
O519 C522 1.250 . S
O520 Mg521 2.028 . S
O520 C522 1.248 . S
Mg521 O520 2.028 . S
Mg521 O526 2.032 . S
Mg521 O528 2.079 . S
C522 O519 1.250 . S
C522 O520 1.248 . S
C523 O524 1.264 . S
C523 O531 1.249 . S
O524 C523 1.264 . S
O525 Mg518 1.986 . S
O525 C529 1.246 . S
O526 Mg521 2.032 . S
O526 C529 1.259 . S
O527 Mg518 2.114 . S
O527 C530 1.252 . S
O528 Mg518 2.251 . S
O528 Mg521 2.079 . S
O528 C530 1.273 . S
C529 O525 1.246 . S
C529 O526 1.259 . S
C530 O527 1.252 . S
C530 O528 1.273 . S
O531 Mg518 2.010 . S
O531 C523 1.249 . S
Mg532 O533 2.028 . S
Mg532 O539 1.986 . S
Mg532 O541 2.114 . S
Mg532 O542 2.251 . S
Mg532 O545 2.010 . S
O533 Mg532 2.028 . S
O533 C536 1.250 . S
O534 Mg535 2.028 . S
O534 C536 1.248 . S
Mg535 O534 2.028 . S
Mg535 O540 2.032 . S
Mg535 O542 2.079 . S
C536 O533 1.250 . S
C536 O534 1.248 . S
C537 O538 1.264 . S
C537 O545 1.249 . S
O538 C537 1.264 . S
O539 Mg532 1.986 . S
O539 C543 1.246 . S
O540 Mg535 2.032 . S
O540 C543 1.259 . S
O541 Mg532 2.114 . S
O541 C544 1.252 . S
O542 Mg532 2.251 . S
O542 Mg535 2.079 . S
O542 C544 1.273 . S
C543 O539 1.246 . S
C543 O540 1.259 . S
C544 O541 1.252 . S
C544 O542 1.273 . S
O545 Mg532 2.010 . S
O545 C537 1.249 . S
Mg546 O547 2.028 . S
Mg546 O553 1.986 . S
Mg546 O555 2.114 . S
Mg546 O556 2.251 . S
Mg546 O559 2.010 . S
O547 Mg546 2.028 . S
O547 C550 1.250 . S
O548 Mg549 2.028 . S
O548 C550 1.248 . S
Mg549 O548 2.028 . S
Mg549 O554 2.032 . S
Mg549 O556 2.079 . S
C550 O547 1.250 . S
C550 O548 1.248 . S
C551 O552 1.264 . S
C551 O559 1.249 . S
O552 C551 1.264 . S
O553 Mg546 1.986 . S
O553 C557 1.246 . S
O554 Mg549 2.032 . S
O554 C557 1.259 . S
O555 Mg546 2.114 . S
O555 C558 1.252 . S
O556 Mg546 2.251 . S
O556 Mg549 2.079 . S
O556 C558 1.273 . S
C557 O553 1.246 . S
C557 O554 1.259 . S
C558 O555 1.252 . S
C558 O556 1.273 . S
O559 Mg546 2.010 . S
O559 C551 1.249 . S
Mg560 O561 2.028 . S
Mg560 O567 1.986 . S
Mg560 O569 2.114 . S
Mg560 O570 2.251 . S
Mg560 O573 2.010 . S
O561 Mg560 2.028 . S
O561 C564 1.250 . S
O562 Mg563 2.028 . S
O562 C564 1.248 . S
Mg563 O562 2.028 . S
Mg563 O568 2.032 . S
Mg563 O570 2.079 . S
C564 O561 1.250 . S
C564 O562 1.248 . S
C565 O566 1.264 . S
C565 O573 1.249 . S
O566 C565 1.264 . S
O567 Mg560 1.986 . S
O567 C571 1.246 . S
O568 Mg563 2.032 . S
O568 C571 1.259 . S
O569 Mg560 2.114 . S
O569 C572 1.252 . S
O570 Mg560 2.251 . S
O570 Mg563 2.079 . S
O570 C572 1.273 . S
C571 O567 1.246 . S
C571 O568 1.259 . S
C572 O569 1.252 . S
C572 O570 1.273 . S
O573 Mg560 2.010 . S
O573 C565 1.249 . S
Mg574 O575 2.028 . S
Mg574 O581 1.986 . S
Mg574 O583 2.114 . S
Mg574 O584 2.251 . S
Mg574 O587 2.010 . S
O575 Mg574 2.028 . S
O575 C578 1.250 . S
O576 Mg577 2.028 . S
O576 C578 1.248 . S
Mg577 O576 2.028 . S
Mg577 O582 2.032 . S
Mg577 O584 2.079 . S
C578 O575 1.250 . S
C578 O576 1.248 . S
C579 O580 1.264 . S
C579 O587 1.249 . S
O580 C579 1.264 . S
O581 Mg574 1.986 . S
O581 C585 1.246 . S
O582 Mg577 2.032 . S
O582 C585 1.259 . S
O583 Mg574 2.114 . S
O583 C586 1.252 . S
O584 Mg574 2.251 . S
O584 Mg577 2.079 . S
O584 C586 1.273 . S
C585 O581 1.246 . S
C585 O582 1.259 . S
C586 O583 1.252 . S
C586 O584 1.273 . S
O587 Mg574 2.010 . S
O587 C579 1.249 . S
Mg588 O589 2.028 . S
Mg588 O595 1.986 . S
Mg588 O597 2.114 . S
Mg588 O598 2.251 . S
Mg588 O601 2.010 . S
O589 Mg588 2.028 . S
O589 C592 1.250 . S
O590 Mg591 2.028 . S
O590 C592 1.248 . S
Mg591 O590 2.028 . S
Mg591 O596 2.032 . S
Mg591 O598 2.079 . S
C592 O589 1.250 . S
C592 O590 1.248 . S
C593 O594 1.264 . S
C593 O601 1.249 . S
O594 C593 1.264 . S
O595 Mg588 1.986 . S
O595 C599 1.246 . S
O596 Mg591 2.032 . S
O596 C599 1.259 . S
O597 Mg588 2.114 . S
O597 C600 1.252 . S
O598 Mg588 2.251 . S
O598 Mg591 2.079 . S
O598 C600 1.273 . S
C599 O595 1.246 . S
C599 O596 1.259 . S
C600 O597 1.252 . S
C600 O598 1.273 . S
O601 Mg588 2.010 . S
O601 C593 1.249 . S
Mg602 O603 2.028 . S
Mg602 O609 1.986 . S
Mg602 O611 2.114 . S
Mg602 O612 2.251 . S
Mg602 O615 2.010 . S
O603 Mg602 2.028 . S
O603 C606 1.250 . S
O604 Mg605 2.028 . S
O604 C606 1.248 . S
Mg605 O604 2.028 . S
Mg605 O610 2.032 . S
Mg605 O612 2.079 . S
C606 O603 1.250 . S
C606 O604 1.248 . S
C607 O608 1.264 . S
C607 O615 1.249 . S
O608 C607 1.264 . S
O609 Mg602 1.986 . S
O609 C613 1.246 . S
O610 Mg605 2.032 . S
O610 C613 1.259 . S
O611 Mg602 2.114 . S
O611 C614 1.252 . S
O612 Mg602 2.251 . S
O612 Mg605 2.079 . S
O612 C614 1.273 . S
C613 O609 1.246 . S
C613 O610 1.259 . S
C614 O611 1.252 . S
C614 O612 1.273 . S
O615 Mg602 2.010 . S
O615 C607 1.249 . S
Mg616 O617 2.028 . S
Mg616 O623 1.986 . S
Mg616 O625 2.114 . S
Mg616 O626 2.251 . S
Mg616 O629 2.010 . S
O617 Mg616 2.028 . S
O617 C620 1.250 . S
O618 Mg619 2.028 . S
O618 C620 1.248 . S
Mg619 O618 2.028 . S
Mg619 O624 2.032 . S
Mg619 O626 2.079 . S
C620 O617 1.250 . S
C620 O618 1.248 . S
C621 O622 1.264 . S
C621 O629 1.249 . S
O622 C621 1.264 . S
O623 Mg616 1.986 . S
O623 C627 1.246 . S
O624 Mg619 2.032 . S
O624 C627 1.259 . S
O625 Mg616 2.114 . S
O625 C628 1.252 . S
O626 Mg616 2.251 . S
O626 Mg619 2.079 . S
O626 C628 1.273 . S
C627 O623 1.246 . S
C627 O624 1.259 . S
C628 O625 1.252 . S
C628 O626 1.273 . S
O629 Mg616 2.010 . S
O629 C621 1.249 . S
Mg630 O631 2.028 . S
Mg630 O637 1.986 . S
Mg630 O639 2.114 . S
Mg630 O640 2.251 . S
Mg630 O643 2.010 . S
O631 Mg630 2.028 . S
O631 C634 1.250 . S
O632 Mg633 2.028 . S
O632 C634 1.248 . S
Mg633 O632 2.028 . S
Mg633 O638 2.032 . S
Mg633 O640 2.079 . S
C634 O631 1.250 . S
C634 O632 1.248 . S
C635 O636 1.264 . S
C635 O643 1.249 . S
O636 C635 1.264 . S
O637 Mg630 1.986 . S
O637 C641 1.246 . S
O638 Mg633 2.032 . S
O638 C641 1.259 . S
O639 Mg630 2.114 . S
O639 C642 1.252 . S
O640 Mg630 2.251 . S
O640 Mg633 2.079 . S
O640 C642 1.273 . S
C641 O637 1.246 . S
C641 O638 1.259 . S
C642 O639 1.252 . S
C642 O640 1.273 . S
O643 Mg630 2.010 . S
O643 C635 1.249 . S
Mg644 O645 2.028 . S
Mg644 O651 1.986 . S
Mg644 O653 2.114 . S
Mg644 O654 2.251 . S
Mg644 O657 2.010 . S
O645 Mg644 2.028 . S
O645 C648 1.250 . S
O646 Mg647 2.028 . S
O646 C648 1.248 . S
Mg647 O646 2.028 . S
Mg647 O652 2.032 . S
Mg647 O654 2.079 . S
C648 O645 1.250 . S
C648 O646 1.248 . S
C649 O650 1.264 . S
C649 O657 1.249 . S
O650 C649 1.264 . S
O651 Mg644 1.986 . S
O651 C655 1.246 . S
O652 Mg647 2.032 . S
O652 C655 1.259 . S
O653 Mg644 2.114 . S
O653 C656 1.252 . S
O654 Mg644 2.251 . S
O654 Mg647 2.079 . S
O654 C656 1.273 . S
C655 O651 1.246 . S
C655 O652 1.259 . S
C656 O653 1.252 . S
C656 O654 1.273 . S
O657 Mg644 2.010 . S
O657 C649 1.249 . S
Mg658 O659 2.028 . S
Mg658 O665 1.986 . S
Mg658 O667 2.114 . S
Mg658 O668 2.251 . S
Mg658 O671 2.010 . S
O659 Mg658 2.028 . S
O659 C662 1.250 . S
O660 Mg661 2.028 . S
O660 C662 1.248 . S
Mg661 O660 2.028 . S
Mg661 O666 2.032 . S
Mg661 O668 2.079 . S
C662 O659 1.250 . S
C662 O660 1.248 . S
C663 O664 1.264 . S
C663 O671 1.249 . S
O664 C663 1.264 . S
O665 Mg658 1.986 . S
O665 C669 1.246 . S
O666 Mg661 2.032 . S
O666 C669 1.259 . S
O667 Mg658 2.114 . S
O667 C670 1.252 . S
O668 Mg658 2.251 . S
O668 Mg661 2.079 . S
O668 C670 1.273 . S
C669 O665 1.246 . S
C669 O666 1.259 . S
C670 O667 1.252 . S
C670 O668 1.273 . S
O671 Mg658 2.010 . S
O671 C663 1.249 . S
H672 C690 0.951 . S
H673 C692 0.951 . S
H674 C694 0.950 . S
H675 C695 0.950 . S
H676 C697 0.950 . S
H677 C700 0.950 . S
H678 C701 0.950 . S
H679 C703 0.950 . S
H680 C704 0.950 . S
H681 C705 0.951 . S
H682 C707 0.951 . S
H683 C709 0.950 . S
H684 C710 0.950 . S
H685 C712 0.950 . S
H686 C715 0.950 . S
H687 C716 0.950 . S
H688 C718 0.950 . S
H689 C719 0.950 . S
C690 H672 0.951 . S
C690 C691 1.366 . S
C690 C692 1.388 . S
C691 C690 1.366 . S
C691 C695 1.385 . S
C692 H673 0.951 . S
C692 C690 1.388 . S
C692 C693 1.366 . S
C693 C692 1.366 . S
C693 C694 1.414 . S
C693 C696 1.499 . S
C694 H674 0.950 . S
C694 C693 1.414 . S
C694 C695 1.374 . S
C695 H675 0.950 . S
C695 C691 1.385 . S
C695 C694 1.374 . S
C696 C693 1.499 . S
C696 C697 1.373 . S
C696 C698 1.389 . S
C697 H676 0.950 . S
C697 C696 1.373 . S
C697 C713 1.377 1_655 S
C698 C696 1.389 . S
C698 C699 1.524 . S
C698 C712 1.377 1_655 S
C699 C698 1.524 . S
C699 C700 1.397 . S
C699 C704 1.363 . S
C700 H677 0.950 . S
C700 C699 1.397 . S
C700 C701 1.334 . S
C701 H678 0.950 . S
C701 C700 1.334 . S
C701 C702 1.287 . S
C702 C701 1.287 . S
C702 C703 1.524 . S
C702 H721 0.913 . S
C703 H679 0.950 . S
C703 C702 1.524 . S
C703 C704 1.415 . S
C704 H680 0.950 . S
C704 C699 1.363 . S
C704 C703 1.415 . S
C705 H681 0.951 . S
C705 C706 1.366 . S
C705 C707 1.388 . S
C706 C705 1.366 . S
C706 C710 1.385 . S
C707 H682 0.951 . S
C707 C705 1.388 . S
C707 C708 1.366 . S
C708 C707 1.366 . S
C708 C709 1.414 . S
C708 C711 1.499 . S
C709 H683 0.950 . S
C709 C708 1.414 . S
C709 C710 1.374 . S
C710 H684 0.950 . S
C710 C706 1.385 . S
C710 C709 1.374 . S
C711 C708 1.499 . S
C711 C712 1.373 . S
C711 C713 1.389 . S
C712 H685 0.950 . S
C712 C698 1.377 1_455 S
C712 C711 1.373 . S
C713 C697 1.377 1_455 S
C713 C711 1.389 . S
C713 C714 1.524 . S
C714 C713 1.524 . S
C714 C715 1.397 . S
C714 C719 1.363 . S
C715 H686 0.950 . S
C715 C714 1.397 . S
C715 C716 1.334 . S
C716 H687 0.950 . S
C716 C715 1.334 . S
C716 C717 1.287 . S
C717 C716 1.287 . S
C717 C718 1.524 . S
C717 H720 0.999 . S
C718 H688 0.950 . S
C718 C717 1.524 . S
C718 C719 1.415 . S
C719 H689 0.950 . S
C719 C714 1.363 . S
C719 C718 1.415 . S
H720 C717 0.999 . S
H721 C702 0.913 . S
H722 C740 0.951 . S
H723 C742 0.951 . S
H724 C744 0.950 . S
H725 C745 0.950 . S
H726 C747 0.950 . S
H727 C750 0.950 . S
H728 C751 0.950 . S
H729 C753 0.950 . S
H730 C754 0.950 . S
H731 C755 0.951 . S
H732 C757 0.951 . S
H733 C759 0.950 . S
H734 C760 0.950 . S
H735 C762 0.950 . S
H736 C765 0.950 . S
H737 C766 0.950 . S
H738 C768 0.950 . S
H739 C769 0.950 . S
C740 H722 0.951 . S
C740 C741 1.366 . S
C740 C742 1.388 . S
C741 C740 1.366 . S
C741 C745 1.385 . S
C742 H723 0.951 . S
C742 C740 1.388 . S
C742 C743 1.366 . S
C743 C742 1.366 . S
C743 C744 1.414 . S
C743 C746 1.499 . S
C744 H724 0.950 . S
C744 C743 1.414 . S
C744 C745 1.374 . S
C745 H725 0.950 . S
C745 C741 1.385 . S
C745 C744 1.374 . S
C746 C743 1.499 . S
C746 C747 1.373 . S
C746 C748 1.389 . S
C747 H726 0.950 . S
C747 C746 1.373 . S
C747 C763 1.377 . S
C748 C746 1.389 . S
C748 C749 1.524 . S
C748 C762 1.377 . S
C749 C748 1.524 . S
C749 C750 1.397 . S
C749 C754 1.363 . S
C750 H727 0.950 . S
C750 C749 1.397 . S
C750 C751 1.334 . S
C751 H728 0.950 . S
C751 C750 1.334 . S
C751 C752 1.287 . S
C752 C751 1.287 . S
C752 C753 1.524 . S
C752 H771 0.913 . S
C753 H729 0.950 . S
C753 C752 1.524 . S
C753 C754 1.415 . S
C754 H730 0.950 . S
C754 C749 1.363 . S
C754 C753 1.415 . S
C755 H731 0.951 . S
C755 C756 1.366 . S
C755 C757 1.388 . S
C756 C755 1.366 . S
C756 C760 1.385 . S
C757 H732 0.951 . S
C757 C755 1.388 . S
C757 C758 1.366 . S
C758 C757 1.366 . S
C758 C759 1.414 . S
C758 C761 1.499 . S
C759 H733 0.950 . S
C759 C758 1.414 . S
C759 C760 1.374 . S
C760 H734 0.950 . S
C760 C756 1.385 . S
C760 C759 1.374 . S
C761 C758 1.499 . S
C761 C762 1.373 . S
C761 C763 1.389 . S
C762 H735 0.950 . S
C762 C748 1.377 . S
C762 C761 1.373 . S
C763 C747 1.377 . S
C763 C761 1.389 . S
C763 C764 1.524 . S
C764 C763 1.524 . S
C764 C765 1.397 . S
C764 C769 1.363 . S
C765 H736 0.950 . S
C765 C764 1.397 . S
C765 C766 1.334 . S
C766 H737 0.950 . S
C766 C765 1.334 . S
C766 C767 1.287 . S
C767 C766 1.287 . S
C767 C768 1.524 . S
C767 H770 0.999 . S
C768 H738 0.950 . S
C768 C767 1.524 . S
C768 C769 1.415 . S
C769 H739 0.950 . S
C769 C764 1.363 . S
C769 C768 1.415 . S
H770 C767 0.999 . S
H771 C752 0.913 . S
H772 C790 0.951 . S
H773 C792 0.951 . S
H774 C794 0.950 . S
H775 C795 0.950 . S
H776 C797 0.950 . S
H777 C800 0.950 . S
H778 C801 0.950 . S
H779 C803 0.950 . S
H780 C804 0.950 . S
H781 C805 0.951 . S
H782 C807 0.951 . S
H783 C809 0.950 . S
H784 C810 0.950 . S
H785 C812 0.950 . S
H786 C815 0.950 . S
H787 C816 0.950 . S
H788 C818 0.950 . S
H789 C819 0.950 . S
C790 H772 0.951 . S
C790 C791 1.366 . S
C790 C792 1.388 . S
C791 C790 1.366 . S
C791 C795 1.385 . S
C792 H773 0.951 . S
C792 C790 1.388 . S
C792 C793 1.366 . S
C793 C792 1.366 . S
C793 C794 1.414 . S
C793 C796 1.499 . S
C794 H774 0.950 . S
C794 C793 1.414 . S
C794 C795 1.374 . S
C795 H775 0.950 . S
C795 C791 1.385 . S
C795 C794 1.374 . S
C796 C793 1.499 . S
C796 C797 1.373 . S
C796 C798 1.389 . S
C797 H776 0.950 . S
C797 C796 1.373 . S
C797 C813 1.377 1_455 S
C798 C796 1.389 . S
C798 C799 1.524 . S
C798 C812 1.377 1_455 S
C799 C798 1.524 . S
C799 C800 1.397 . S
C799 C804 1.363 . S
C800 H777 0.950 . S
C800 C799 1.397 . S
C800 C801 1.334 . S
C801 H778 0.950 . S
C801 C800 1.334 . S
C801 C802 1.287 . S
C802 C801 1.287 . S
C802 C803 1.524 . S
C802 H821 0.913 . S
C803 H779 0.950 . S
C803 C802 1.524 . S
C803 C804 1.415 . S
C804 H780 0.950 . S
C804 C799 1.363 . S
C804 C803 1.415 . S
C805 H781 0.951 . S
C805 C806 1.366 . S
C805 C807 1.388 . S
C806 C805 1.366 . S
C806 C810 1.385 . S
C807 H782 0.951 . S
C807 C805 1.388 . S
C807 C808 1.366 . S
C808 C807 1.366 . S
C808 C809 1.414 . S
C808 C811 1.499 . S
C809 H783 0.950 . S
C809 C808 1.414 . S
C809 C810 1.374 . S
C810 H784 0.950 . S
C810 C806 1.385 . S
C810 C809 1.374 . S
C811 C808 1.499 . S
C811 C812 1.373 . S
C811 C813 1.389 . S
C812 H785 0.950 . S
C812 C798 1.377 1_655 S
C812 C811 1.373 . S
C813 C797 1.377 1_655 S
C813 C811 1.389 . S
C813 C814 1.524 . S
C814 C813 1.524 . S
C814 C815 1.397 . S
C814 C819 1.363 . S
C815 H786 0.950 . S
C815 C814 1.397 . S
C815 C816 1.334 . S
C816 H787 0.950 . S
C816 C815 1.334 . S
C816 C817 1.287 . S
C817 C816 1.287 . S
C817 C818 1.524 . S
C817 H820 0.999 . S
C818 H788 0.950 . S
C818 C817 1.524 . S
C818 C819 1.415 . S
C819 H789 0.950 . S
C819 C814 1.363 . S
C819 C818 1.415 . S
H820 C817 0.999 . S
H821 C802 0.913 . S
H822 C840 0.951 . S
H823 C842 0.951 . S
H824 C844 0.950 . S
H825 C845 0.950 . S
H826 C847 0.950 . S
H827 C850 0.950 . S
H828 C851 0.950 . S
H829 C853 0.950 . S
H830 C854 0.950 . S
H831 C855 0.951 . S
H832 C857 0.951 . S
H833 C859 0.950 . S
H834 C860 0.950 . S
H835 C862 0.950 . S
H836 C865 0.950 . S
H837 C866 0.950 . S
H838 C868 0.950 . S
H839 C869 0.950 . S
C840 H822 0.951 . S
C840 C841 1.366 . S
C840 C842 1.388 . S
C841 C840 1.366 . S
C841 C845 1.385 . S
C842 H823 0.951 . S
C842 C840 1.388 . S
C842 C843 1.366 . S
C843 C842 1.366 . S
C843 C844 1.414 . S
C843 C846 1.499 . S
C844 H824 0.950 . S
C844 C843 1.414 . S
C844 C845 1.374 . S
C845 H825 0.950 . S
C845 C841 1.385 . S
C845 C844 1.374 . S
C846 C843 1.499 . S
C846 C847 1.373 . S
C846 C848 1.389 . S
C847 H826 0.950 . S
C847 C846 1.373 . S
C847 C863 1.377 . S
C848 C846 1.389 . S
C848 C849 1.524 . S
C848 C862 1.377 . S
C849 C848 1.524 . S
C849 C850 1.397 . S
C849 C854 1.363 . S
C850 H827 0.950 . S
C850 C849 1.397 . S
C850 C851 1.334 . S
C851 H828 0.950 . S
C851 C850 1.334 . S
C851 C852 1.287 . S
C852 C851 1.287 . S
C852 C853 1.524 . S
C852 H871 0.913 . S
C853 H829 0.950 . S
C853 C852 1.524 . S
C853 C854 1.415 . S
C854 H830 0.950 . S
C854 C849 1.363 . S
C854 C853 1.415 . S
C855 H831 0.951 . S
C855 C856 1.366 . S
C855 C857 1.388 . S
C856 C855 1.366 . S
C856 C860 1.385 . S
C857 H832 0.951 . S
C857 C855 1.388 . S
C857 C858 1.366 . S
C858 C857 1.366 . S
C858 C859 1.414 . S
C858 C861 1.499 . S
C859 H833 0.950 . S
C859 C858 1.414 . S
C859 C860 1.374 . S
C860 H834 0.950 . S
C860 C856 1.385 . S
C860 C859 1.374 . S
C861 C858 1.499 . S
C861 C862 1.373 . S
C861 C863 1.389 . S
C862 H835 0.950 . S
C862 C848 1.377 . S
C862 C861 1.373 . S
C863 C847 1.377 . S
C863 C861 1.389 . S
C863 C864 1.524 . S
C864 C863 1.524 . S
C864 C865 1.397 . S
C864 C869 1.363 . S
C865 H836 0.950 . S
C865 C864 1.397 . S
C865 C866 1.334 . S
C866 H837 0.950 . S
C866 C865 1.334 . S
C866 C867 1.287 . S
C867 C866 1.287 . S
C867 C868 1.524 . S
C867 H870 0.999 . S
C868 H838 0.950 . S
C868 C867 1.524 . S
C868 C869 1.415 . S
C869 H839 0.950 . S
C869 C864 1.363 . S
C869 C868 1.415 . S
H870 C867 0.999 . S
H871 C852 0.913 . S
H872 C890 0.951 . S
H873 C892 0.951 . S
H874 C894 0.950 . S
H875 C895 0.950 . S
H876 C897 0.950 . S
H877 C900 0.950 . S
H878 C901 0.950 . S
H879 C903 0.950 . S
H880 C904 0.950 . S
H881 C905 0.951 . S
H882 C907 0.951 . S
H883 C909 0.950 . S
H884 C910 0.950 . S
H885 C912 0.950 . S
H886 C915 0.950 . S
H887 C916 0.950 . S
H888 C918 0.950 . S
H889 C919 0.950 . S
C890 H872 0.951 . S
C890 C891 1.366 . S
C890 C892 1.388 . S
C891 C890 1.366 . S
C891 C895 1.385 . S
C892 H873 0.951 . S
C892 C890 1.388 . S
C892 C893 1.366 . S
C893 C892 1.366 . S
C893 C894 1.414 . S
C893 C896 1.499 . S
C894 H874 0.950 . S
C894 C893 1.414 . S
C894 C895 1.374 . S
C895 H875 0.950 . S
C895 C891 1.385 . S
C895 C894 1.374 . S
C896 C893 1.499 . S
C896 C897 1.373 . S
C896 C898 1.389 . S
C897 H876 0.950 . S
C897 C896 1.373 . S
C897 C913 1.377 1_655 S
C898 C896 1.389 . S
C898 C899 1.524 . S
C898 C912 1.377 1_655 S
C899 C898 1.524 . S
C899 C900 1.397 . S
C899 C904 1.363 . S
C900 H877 0.950 . S
C900 C899 1.397 . S
C900 C901 1.334 . S
C901 H878 0.950 . S
C901 C900 1.334 . S
C901 C902 1.287 . S
C902 C901 1.287 . S
C902 C903 1.524 . S
C902 H921 0.913 . S
C903 H879 0.950 . S
C903 C902 1.524 . S
C903 C904 1.415 . S
C904 H880 0.950 . S
C904 C899 1.363 . S
C904 C903 1.415 . S
C905 H881 0.951 . S
C905 C906 1.366 . S
C905 C907 1.388 . S
C906 C905 1.366 . S
C906 C910 1.385 . S
C907 H882 0.951 . S
C907 C905 1.388 . S
C907 C908 1.366 . S
C908 C907 1.366 . S
C908 C909 1.414 . S
C908 C911 1.499 . S
C909 H883 0.950 . S
C909 C908 1.414 . S
C909 C910 1.374 . S
C910 H884 0.950 . S
C910 C906 1.385 . S
C910 C909 1.374 . S
C911 C908 1.499 . S
C911 C912 1.373 . S
C911 C913 1.389 . S
C912 H885 0.950 . S
C912 C898 1.377 1_455 S
C912 C911 1.373 . S
C913 C897 1.377 1_455 S
C913 C911 1.389 . S
C913 C914 1.524 . S
C914 C913 1.524 . S
C914 C915 1.397 . S
C914 C919 1.363 . S
C915 H886 0.950 . S
C915 C914 1.397 . S
C915 C916 1.334 . S
C916 H887 0.950 . S
C916 C915 1.334 . S
C916 C917 1.287 . S
C917 C916 1.287 . S
C917 C918 1.524 . S
C917 H920 0.999 . S
C918 H888 0.950 . S
C918 C917 1.524 . S
C918 C919 1.415 . S
C919 H889 0.950 . S
C919 C914 1.363 . S
C919 C918 1.415 . S
H920 C917 0.999 . S
H921 C902 0.913 . S
H922 C940 0.951 . S
H923 C942 0.951 . S
H924 C944 0.950 . S
H925 C945 0.950 . S
H926 C947 0.950 . S
H927 C950 0.950 . S
H928 C951 0.950 . S
H929 C953 0.950 . S
H930 C954 0.950 . S
H931 C955 0.951 . S
H932 C957 0.951 . S
H933 C959 0.950 . S
H934 C960 0.950 . S
H935 C962 0.950 . S
H936 C965 0.950 . S
H937 C966 0.950 . S
H938 C968 0.950 . S
H939 C969 0.950 . S
C940 H922 0.951 . S
C940 C941 1.366 . S
C940 C942 1.388 . S
C941 C940 1.366 . S
C941 C945 1.385 . S
C942 H923 0.951 . S
C942 C940 1.388 . S
C942 C943 1.366 . S
C943 C942 1.366 . S
C943 C944 1.414 . S
C943 C946 1.499 . S
C944 H924 0.950 . S
C944 C943 1.414 . S
C944 C945 1.374 . S
C945 H925 0.950 . S
C945 C941 1.385 . S
C945 C944 1.374 . S
C946 C943 1.499 . S
C946 C947 1.373 . S
C946 C948 1.389 . S
C947 H926 0.950 . S
C947 C946 1.373 . S
C947 C963 1.377 . S
C948 C946 1.389 . S
C948 C949 1.524 . S
C948 C962 1.377 . S
C949 C948 1.524 . S
C949 C950 1.397 . S
C949 C954 1.363 . S
C950 H927 0.950 . S
C950 C949 1.397 . S
C950 C951 1.334 . S
C951 H928 0.950 . S
C951 C950 1.334 . S
C951 C952 1.287 . S
C952 C951 1.287 . S
C952 C953 1.524 . S
C952 H971 0.913 . S
C953 H929 0.950 . S
C953 C952 1.524 . S
C953 C954 1.415 . S
C954 H930 0.950 . S
C954 C949 1.363 . S
C954 C953 1.415 . S
C955 H931 0.951 . S
C955 C956 1.366 . S
C955 C957 1.388 . S
C956 C955 1.366 . S
C956 C960 1.385 . S
C957 H932 0.951 . S
C957 C955 1.388 . S
C957 C958 1.366 . S
C958 C957 1.366 . S
C958 C959 1.414 . S
C958 C961 1.499 . S
C959 H933 0.950 . S
C959 C958 1.414 . S
C959 C960 1.374 . S
C960 H934 0.950 . S
C960 C956 1.385 . S
C960 C959 1.374 . S
C961 C958 1.499 . S
C961 C962 1.373 . S
C961 C963 1.389 . S
C962 H935 0.950 . S
C962 C948 1.377 . S
C962 C961 1.373 . S
C963 C947 1.377 . S
C963 C961 1.389 . S
C963 C964 1.524 . S
C964 C963 1.524 . S
C964 C965 1.397 . S
C964 C969 1.363 . S
C965 H936 0.950 . S
C965 C964 1.397 . S
C965 C966 1.334 . S
C966 H937 0.950 . S
C966 C965 1.334 . S
C966 C967 1.287 . S
C967 C966 1.287 . S
C967 C968 1.524 . S
C967 H970 0.999 . S
C968 H938 0.950 . S
C968 C967 1.524 . S
C968 C969 1.415 . S
C969 H939 0.950 . S
C969 C964 1.363 . S
C969 C968 1.415 . S
H970 C967 0.999 . S
H971 C952 0.913 . S
H972 C990 0.951 . S
H973 C992 0.951 . S
H974 C994 0.950 . S
H975 C995 0.950 . S
H976 C997 0.950 . S
H977 C1000 0.950 . S
H978 C1001 0.950 . S
H979 C1003 0.950 . S
H980 C1004 0.950 . S
H981 C1005 0.951 . S
H982 C1007 0.951 . S
H983 C1009 0.950 . S
H984 C1010 0.950 . S
H985 C1012 0.950 . S
H986 C1015 0.950 . S
H987 C1016 0.950 . S
H988 C1018 0.950 . S
H989 C1019 0.950 . S
C990 H972 0.951 . S
C990 C991 1.366 . S
C990 C992 1.388 . S
C991 C990 1.366 . S
C991 C995 1.385 . S
C992 H973 0.951 . S
C992 C990 1.388 . S
C992 C993 1.366 . S
C993 C992 1.366 . S
C993 C994 1.414 . S
C993 C996 1.499 . S
C994 H974 0.950 . S
C994 C993 1.414 . S
C994 C995 1.374 . S
C995 H975 0.950 . S
C995 C991 1.385 . S
C995 C994 1.374 . S
C996 C993 1.499 . S
C996 C997 1.373 . S
C996 C998 1.389 . S
C997 H976 0.950 . S
C997 C996 1.373 . S
C997 C1013 1.377 1_455 S
C998 C996 1.389 . S
C998 C999 1.524 . S
C998 C1012 1.377 1_455 S
C999 C998 1.524 . S
C999 C1000 1.397 . S
C999 C1004 1.363 . S
C1000 H977 0.950 . S
C1000 C999 1.397 . S
C1000 C1001 1.334 . S
C1001 H978 0.950 . S
C1001 C1000 1.334 . S
C1001 C1002 1.287 . S
C1002 C1001 1.287 . S
C1002 C1003 1.524 . S
C1002 H1021 0.913 . S
C1003 H979 0.950 . S
C1003 C1002 1.524 . S
C1003 C1004 1.415 . S
C1004 H980 0.950 . S
C1004 C999 1.363 . S
C1004 C1003 1.415 . S
C1005 H981 0.951 . S
C1005 C1006 1.366 . S
C1005 C1007 1.388 . S
C1006 C1005 1.366 . S
C1006 C1010 1.385 . S
C1007 H982 0.951 . S
C1007 C1005 1.388 . S
C1007 C1008 1.366 . S
C1008 C1007 1.366 . S
C1008 C1009 1.414 . S
C1008 C1011 1.499 . S
C1009 H983 0.950 . S
C1009 C1008 1.414 . S
C1009 C1010 1.374 . S
C1010 H984 0.950 . S
C1010 C1006 1.385 . S
C1010 C1009 1.374 . S
C1011 C1008 1.499 . S
C1011 C1012 1.373 . S
C1011 C1013 1.389 . S
C1012 H985 0.950 . S
C1012 C998 1.377 1_655 S
C1012 C1011 1.373 . S
C1013 C997 1.377 1_655 S
C1013 C1011 1.389 . S
C1013 C1014 1.524 . S
C1014 C1013 1.524 . S
C1014 C1015 1.397 . S
C1014 C1019 1.363 . S
C1015 H986 0.950 . S
C1015 C1014 1.397 . S
C1015 C1016 1.334 . S
C1016 H987 0.950 . S
C1016 C1015 1.334 . S
C1016 C1017 1.287 . S
C1017 C1016 1.287 . S
C1017 C1018 1.524 . S
C1017 H1020 0.999 . S
C1018 H988 0.950 . S
C1018 C1017 1.524 . S
C1018 C1019 1.415 . S
C1019 H989 0.950 . S
C1019 C1014 1.363 . S
C1019 C1018 1.415 . S
H1020 C1017 0.999 . S
H1021 C1002 0.913 . S
H1022 C1040 0.951 . S
H1023 C1042 0.951 . S
H1024 C1044 0.950 . S
H1025 C1045 0.950 . S
H1026 C1047 0.950 . S
H1027 C1050 0.950 . S
H1028 C1051 0.950 . S
H1029 C1053 0.950 . S
H1030 C1054 0.950 . S
H1031 C1055 0.951 . S
H1032 C1057 0.951 . S
H1033 C1059 0.950 . S
H1034 C1060 0.950 . S
H1035 C1062 0.950 . S
H1036 C1065 0.950 . S
H1037 C1066 0.950 . S
H1038 C1068 0.950 . S
H1039 C1069 0.950 . S
C1040 H1022 0.951 . S
C1040 C1041 1.366 . S
C1040 C1042 1.388 . S
C1041 C1040 1.366 . S
C1041 C1045 1.385 . S
C1042 H1023 0.951 . S
C1042 C1040 1.388 . S
C1042 C1043 1.366 . S
C1043 C1042 1.366 . S
C1043 C1044 1.414 . S
C1043 C1046 1.499 . S
C1044 H1024 0.950 . S
C1044 C1043 1.414 . S
C1044 C1045 1.374 . S
C1045 H1025 0.950 . S
C1045 C1041 1.385 . S
C1045 C1044 1.374 . S
C1046 C1043 1.499 . S
C1046 C1047 1.373 . S
C1046 C1048 1.389 . S
C1047 H1026 0.950 . S
C1047 C1046 1.373 . S
C1047 C1063 1.377 . S
C1048 C1046 1.389 . S
C1048 C1049 1.524 . S
C1048 C1062 1.377 . S
C1049 C1048 1.524 . S
C1049 C1050 1.397 . S
C1049 C1054 1.363 . S
C1050 H1027 0.950 . S
C1050 C1049 1.397 . S
C1050 C1051 1.334 . S
C1051 H1028 0.950 . S
C1051 C1050 1.334 . S
C1051 C1052 1.287 . S
C1052 C1051 1.287 . S
C1052 C1053 1.524 . S
C1052 H1071 0.913 . S
C1053 H1029 0.950 . S
C1053 C1052 1.524 . S
C1053 C1054 1.415 . S
C1054 H1030 0.950 . S
C1054 C1049 1.363 . S
C1054 C1053 1.415 . S
C1055 H1031 0.951 . S
C1055 C1056 1.366 . S
C1055 C1057 1.388 . S
C1056 C1055 1.366 . S
C1056 C1060 1.385 . S
C1057 H1032 0.951 . S
C1057 C1055 1.388 . S
C1057 C1058 1.366 . S
C1058 C1057 1.366 . S
C1058 C1059 1.414 . S
C1058 C1061 1.499 . S
C1059 H1033 0.950 . S
C1059 C1058 1.414 . S
C1059 C1060 1.374 . S
C1060 H1034 0.950 . S
C1060 C1056 1.385 . S
C1060 C1059 1.374 . S
C1061 C1058 1.499 . S
C1061 C1062 1.373 . S
C1061 C1063 1.389 . S
C1062 H1035 0.950 . S
C1062 C1048 1.377 . S
C1062 C1061 1.373 . S
C1063 C1047 1.377 . S
C1063 C1061 1.389 . S
C1063 C1064 1.524 . S
C1064 C1063 1.524 . S
C1064 C1065 1.397 . S
C1064 C1069 1.363 . S
C1065 H1036 0.950 . S
C1065 C1064 1.397 . S
C1065 C1066 1.334 . S
C1066 H1037 0.950 . S
C1066 C1065 1.334 . S
C1066 C1067 1.287 . S
C1067 C1066 1.287 . S
C1067 C1068 1.524 . S
C1067 H1070 0.999 . S
C1068 H1038 0.950 . S
C1068 C1067 1.524 . S
C1068 C1069 1.415 . S
C1069 H1039 0.950 . S
C1069 C1064 1.363 . S
C1069 C1068 1.415 . S
H1070 C1067 0.999 . S
H1071 C1052 0.913 . S
H1072 C1090 0.951 . S
H1073 C1092 0.951 . S
H1074 C1094 0.950 . S
H1075 C1095 0.950 . S
H1076 C1097 0.950 . S
H1077 C1100 0.950 . S
H1078 C1101 0.950 . S
H1079 C1103 0.950 . S
H1080 C1104 0.950 . S
H1081 C1105 0.951 . S
H1082 C1107 0.951 . S
H1083 C1109 0.950 . S
H1084 C1110 0.950 . S
H1085 C1112 0.950 . S
H1086 C1115 0.950 . S
H1087 C1116 0.950 . S
H1088 C1118 0.950 . S
H1089 C1119 0.950 . S
C1090 H1072 0.951 . S
C1090 C1091 1.366 . S
C1090 C1092 1.388 . S
C1091 C1090 1.366 . S
C1091 C1095 1.385 . S
C1092 H1073 0.951 . S
C1092 C1090 1.388 . S
C1092 C1093 1.366 . S
C1093 C1092 1.366 . S
C1093 C1094 1.414 . S
C1093 C1096 1.499 . S
C1094 H1074 0.950 . S
C1094 C1093 1.414 . S
C1094 C1095 1.374 . S
C1095 H1075 0.950 . S
C1095 C1091 1.385 . S
C1095 C1094 1.374 . S
C1096 C1093 1.499 . S
C1096 C1097 1.373 . S
C1096 C1098 1.389 . S
C1097 H1076 0.950 . S
C1097 C1096 1.373 . S
C1097 C1113 1.377 1_565 S
C1098 C1096 1.389 . S
C1098 C1099 1.524 . S
C1098 C1112 1.377 1_565 S
C1099 C1098 1.524 . S
C1099 C1100 1.397 . S
C1099 C1104 1.363 . S
C1100 H1077 0.950 . S
C1100 C1099 1.397 . S
C1100 C1101 1.334 . S
C1101 H1078 0.950 . S
C1101 C1100 1.334 . S
C1101 C1102 1.287 . S
C1102 C1101 1.287 . S
C1102 C1103 1.524 . S
C1102 H1121 0.913 . S
C1103 H1079 0.950 . S
C1103 C1102 1.524 . S
C1103 C1104 1.415 . S
C1104 H1080 0.950 . S
C1104 C1099 1.363 . S
C1104 C1103 1.415 . S
C1105 H1081 0.951 . S
C1105 C1106 1.366 . S
C1105 C1107 1.388 . S
C1106 C1105 1.366 . S
C1106 C1110 1.385 . S
C1107 H1082 0.951 . S
C1107 C1105 1.388 . S
C1107 C1108 1.366 . S
C1108 C1107 1.366 . S
C1108 C1109 1.414 . S
C1108 C1111 1.499 . S
C1109 H1083 0.950 . S
C1109 C1108 1.414 . S
C1109 C1110 1.374 . S
C1110 H1084 0.950 . S
C1110 C1106 1.385 . S
C1110 C1109 1.374 . S
C1111 C1108 1.499 . S
C1111 C1112 1.373 . S
C1111 C1113 1.389 . S
C1112 H1085 0.950 . S
C1112 C1098 1.377 1_545 S
C1112 C1111 1.373 . S
C1113 C1097 1.377 1_545 S
C1113 C1111 1.389 . S
C1113 C1114 1.524 . S
C1114 C1113 1.524 . S
C1114 C1115 1.397 . S
C1114 C1119 1.363 . S
C1115 H1086 0.950 . S
C1115 C1114 1.397 . S
C1115 C1116 1.334 . S
C1116 H1087 0.950 . S
C1116 C1115 1.334 . S
C1116 C1117 1.287 . S
C1117 C1116 1.287 . S
C1117 C1118 1.524 . S
C1117 H1120 0.999 . S
C1118 H1088 0.950 . S
C1118 C1117 1.524 . S
C1118 C1119 1.415 . S
C1119 H1089 0.950 . S
C1119 C1114 1.363 . S
C1119 C1118 1.415 . S
H1120 C1117 0.999 . S
H1121 C1102 0.913 . S
H1122 C1140 0.951 . S
H1123 C1142 0.951 . S
H1124 C1144 0.950 . S
H1125 C1145 0.950 . S
H1126 C1147 0.950 . S
H1127 C1150 0.950 . S
H1128 C1151 0.950 . S
H1129 C1153 0.950 . S
H1130 C1154 0.950 . S
H1131 C1155 0.951 . S
H1132 C1157 0.951 . S
H1133 C1159 0.950 . S
H1134 C1160 0.950 . S
H1135 C1162 0.950 . S
H1136 C1165 0.950 . S
H1137 C1166 0.950 . S
H1138 C1168 0.950 . S
H1139 C1169 0.950 . S
C1140 H1122 0.951 . S
C1140 C1141 1.366 . S
C1140 C1142 1.388 . S
C1141 C1140 1.366 . S
C1141 C1145 1.385 . S
C1142 H1123 0.951 . S
C1142 C1140 1.388 . S
C1142 C1143 1.366 . S
C1143 C1142 1.366 . S
C1143 C1144 1.414 . S
C1143 C1146 1.499 . S
C1144 H1124 0.950 . S
C1144 C1143 1.414 . S
C1144 C1145 1.374 . S
C1145 H1125 0.950 . S
C1145 C1141 1.385 . S
C1145 C1144 1.374 . S
C1146 C1143 1.499 . S
C1146 C1147 1.373 . S
C1146 C1148 1.389 . S
C1147 H1126 0.950 . S
C1147 C1146 1.373 . S
C1147 C1163 1.377 . S
C1148 C1146 1.389 . S
C1148 C1149 1.524 . S
C1148 C1162 1.377 . S
C1149 C1148 1.524 . S
C1149 C1150 1.397 . S
C1149 C1154 1.363 . S
C1150 H1127 0.950 . S
C1150 C1149 1.397 . S
C1150 C1151 1.334 . S
C1151 H1128 0.950 . S
C1151 C1150 1.334 . S
C1151 C1152 1.287 . S
C1152 C1151 1.287 . S
C1152 C1153 1.524 . S
C1152 H1171 0.913 . S
C1153 H1129 0.950 . S
C1153 C1152 1.524 . S
C1153 C1154 1.415 . S
C1154 H1130 0.950 . S
C1154 C1149 1.363 . S
C1154 C1153 1.415 . S
C1155 H1131 0.951 . S
C1155 C1156 1.366 . S
C1155 C1157 1.388 . S
C1156 C1155 1.366 . S
C1156 C1160 1.385 . S
C1157 H1132 0.951 . S
C1157 C1155 1.388 . S
C1157 C1158 1.366 . S
C1158 C1157 1.366 . S
C1158 C1159 1.414 . S
C1158 C1161 1.499 . S
C1159 H1133 0.950 . S
C1159 C1158 1.414 . S
C1159 C1160 1.374 . S
C1160 H1134 0.950 . S
C1160 C1156 1.385 . S
C1160 C1159 1.374 . S
C1161 C1158 1.499 . S
C1161 C1162 1.373 . S
C1161 C1163 1.389 . S
C1162 H1135 0.950 . S
C1162 C1148 1.377 . S
C1162 C1161 1.373 . S
C1163 C1147 1.377 . S
C1163 C1161 1.389 . S
C1163 C1164 1.524 . S
C1164 C1163 1.524 . S
C1164 C1165 1.397 . S
C1164 C1169 1.363 . S
C1165 H1136 0.950 . S
C1165 C1164 1.397 . S
C1165 C1166 1.334 . S
C1166 H1137 0.950 . S
C1166 C1165 1.334 . S
C1166 C1167 1.287 . S
C1167 C1166 1.287 . S
C1167 C1168 1.524 . S
C1167 H1170 0.999 . S
C1168 H1138 0.950 . S
C1168 C1167 1.524 . S
C1168 C1169 1.415 . S
C1169 H1139 0.950 . S
C1169 C1164 1.363 . S
C1169 C1168 1.415 . S
H1170 C1167 0.999 . S
H1171 C1152 0.913 . S
H1172 C1190 0.951 . S
H1173 C1192 0.951 . S
H1174 C1194 0.950 . S
H1175 C1195 0.950 . S
H1176 C1197 0.950 . S
H1177 C1200 0.950 . S
H1178 C1201 0.950 . S
H1179 C1203 0.950 . S
H1180 C1204 0.950 . S
H1181 C1205 0.951 . S
H1182 C1207 0.951 . S
H1183 C1209 0.950 . S
H1184 C1210 0.950 . S
H1185 C1212 0.950 . S
H1186 C1215 0.950 . S
H1187 C1216 0.950 . S
H1188 C1218 0.950 . S
H1189 C1219 0.950 . S
C1190 H1172 0.951 . S
C1190 C1191 1.366 . S
C1190 C1192 1.388 . S
C1191 C1190 1.366 . S
C1191 C1195 1.385 . S
C1192 H1173 0.951 . S
C1192 C1190 1.388 . S
C1192 C1193 1.366 . S
C1193 C1192 1.366 . S
C1193 C1194 1.414 . S
C1193 C1196 1.499 . S
C1194 H1174 0.950 . S
C1194 C1193 1.414 . S
C1194 C1195 1.374 . S
C1195 H1175 0.950 . S
C1195 C1191 1.385 . S
C1195 C1194 1.374 . S
C1196 C1193 1.499 . S
C1196 C1197 1.373 . S
C1196 C1198 1.389 . S
C1197 H1176 0.950 . S
C1197 C1196 1.373 . S
C1197 C1213 1.377 1_545 S
C1198 C1196 1.389 . S
C1198 C1199 1.524 . S
C1198 C1212 1.377 1_545 S
C1199 C1198 1.524 . S
C1199 C1200 1.397 . S
C1199 C1204 1.363 . S
C1200 H1177 0.950 . S
C1200 C1199 1.397 . S
C1200 C1201 1.334 . S
C1201 H1178 0.950 . S
C1201 C1200 1.334 . S
C1201 C1202 1.287 . S
C1202 C1201 1.287 . S
C1202 C1203 1.524 . S
C1202 H1221 0.913 . S
C1203 H1179 0.950 . S
C1203 C1202 1.524 . S
C1203 C1204 1.415 . S
C1204 H1180 0.950 . S
C1204 C1199 1.363 . S
C1204 C1203 1.415 . S
C1205 H1181 0.951 . S
C1205 C1206 1.366 . S
C1205 C1207 1.388 . S
C1206 C1205 1.366 . S
C1206 C1210 1.385 . S
C1207 H1182 0.951 . S
C1207 C1205 1.388 . S
C1207 C1208 1.366 . S
C1208 C1207 1.366 . S
C1208 C1209 1.414 . S
C1208 C1211 1.499 . S
C1209 H1183 0.950 . S
C1209 C1208 1.414 . S
C1209 C1210 1.374 . S
C1210 H1184 0.950 . S
C1210 C1206 1.385 . S
C1210 C1209 1.374 . S
C1211 C1208 1.499 . S
C1211 C1212 1.373 . S
C1211 C1213 1.389 . S
C1212 H1185 0.950 . S
C1212 C1198 1.377 1_565 S
C1212 C1211 1.373 . S
C1213 C1197 1.377 1_565 S
C1213 C1211 1.389 . S
C1213 C1214 1.524 . S
C1214 C1213 1.524 . S
C1214 C1215 1.397 . S
C1214 C1219 1.363 . S
C1215 H1186 0.950 . S
C1215 C1214 1.397 . S
C1215 C1216 1.334 . S
C1216 H1187 0.950 . S
C1216 C1215 1.334 . S
C1216 C1217 1.287 . S
C1217 C1216 1.287 . S
C1217 C1218 1.524 . S
C1217 H1220 0.999 . S
C1218 H1188 0.950 . S
C1218 C1217 1.524 . S
C1218 C1219 1.415 . S
C1219 H1189 0.950 . S
C1219 C1214 1.363 . S
C1219 C1218 1.415 . S
H1220 C1217 0.999 . S
H1221 C1202 0.913 . S
H1222 C1240 0.951 . S
H1223 C1242 0.951 . S
H1224 C1244 0.950 . S
H1225 C1245 0.950 . S
H1226 C1247 0.950 . S
H1227 C1250 0.950 . S
H1228 C1251 0.950 . S
H1229 C1253 0.950 . S
H1230 C1254 0.950 . S
H1231 C1255 0.951 . S
H1232 C1257 0.951 . S
H1233 C1259 0.950 . S
H1234 C1260 0.950 . S
H1235 C1262 0.950 . S
H1236 C1265 0.950 . S
H1237 C1266 0.950 . S
H1238 C1268 0.950 . S
H1239 C1269 0.950 . S
C1240 H1222 0.951 . S
C1240 C1241 1.366 . S
C1240 C1242 1.388 . S
C1241 C1240 1.366 . S
C1241 C1245 1.385 . S
C1242 H1223 0.951 . S
C1242 C1240 1.388 . S
C1242 C1243 1.366 . S
C1243 C1242 1.366 . S
C1243 C1244 1.414 . S
C1243 C1246 1.499 . S
C1244 H1224 0.950 . S
C1244 C1243 1.414 . S
C1244 C1245 1.374 . S
C1245 H1225 0.950 . S
C1245 C1241 1.385 . S
C1245 C1244 1.374 . S
C1246 C1243 1.499 . S
C1246 C1247 1.373 . S
C1246 C1248 1.389 . S
C1247 H1226 0.950 . S
C1247 C1246 1.373 . S
C1247 C1263 1.377 . S
C1248 C1246 1.389 . S
C1248 C1249 1.524 . S
C1248 C1262 1.377 . S
C1249 C1248 1.524 . S
C1249 C1250 1.397 . S
C1249 C1254 1.363 . S
C1250 H1227 0.950 . S
C1250 C1249 1.397 . S
C1250 C1251 1.334 . S
C1251 H1228 0.950 . S
C1251 C1250 1.334 . S
C1251 C1252 1.287 . S
C1252 C1251 1.287 . S
C1252 C1253 1.524 . S
C1252 H1271 0.913 . S
C1253 H1229 0.950 . S
C1253 C1252 1.524 . S
C1253 C1254 1.415 . S
C1254 H1230 0.950 . S
C1254 C1249 1.363 . S
C1254 C1253 1.415 . S
C1255 H1231 0.951 . S
C1255 C1256 1.366 . S
C1255 C1257 1.388 . S
C1256 C1255 1.366 . S
C1256 C1260 1.385 . S
C1257 H1232 0.951 . S
C1257 C1255 1.388 . S
C1257 C1258 1.366 . S
C1258 C1257 1.366 . S
C1258 C1259 1.414 . S
C1258 C1261 1.499 . S
C1259 H1233 0.950 . S
C1259 C1258 1.414 . S
C1259 C1260 1.374 . S
C1260 H1234 0.950 . S
C1260 C1256 1.385 . S
C1260 C1259 1.374 . S
C1261 C1258 1.499 . S
C1261 C1262 1.373 . S
C1261 C1263 1.389 . S
C1262 H1235 0.950 . S
C1262 C1248 1.377 . S
C1262 C1261 1.373 . S
C1263 C1247 1.377 . S
C1263 C1261 1.389 . S
C1263 C1264 1.524 . S
C1264 C1263 1.524 . S
C1264 C1265 1.397 . S
C1264 C1269 1.363 . S
C1265 H1236 0.950 . S
C1265 C1264 1.397 . S
C1265 C1266 1.334 . S
C1266 H1237 0.950 . S
C1266 C1265 1.334 . S
C1266 C1267 1.287 . S
C1267 C1266 1.287 . S
C1267 C1268 1.524 . S
C1267 H1270 0.999 . S
C1268 H1238 0.950 . S
C1268 C1267 1.524 . S
C1268 C1269 1.415 . S
C1269 H1239 0.950 . S
C1269 C1264 1.363 . S
C1269 C1268 1.415 . S
H1270 C1267 0.999 . S
H1271 C1252 0.913 . S
H1272 C1290 0.951 . S
H1273 C1292 0.951 . S
H1274 C1294 0.950 . S
H1275 C1295 0.950 . S
H1276 C1297 0.950 . S
H1277 C1300 0.950 . S
H1278 C1301 0.950 . S
H1279 C1303 0.950 . S
H1280 C1304 0.950 . S
H1281 C1305 0.951 . S
H1282 C1307 0.951 . S
H1283 C1309 0.950 . S
H1284 C1310 0.950 . S
H1285 C1312 0.950 . S
H1286 C1315 0.950 . S
H1287 C1316 0.950 . S
H1288 C1318 0.950 . S
H1289 C1319 0.950 . S
C1290 H1272 0.951 . S
C1290 C1291 1.366 . S
C1290 C1292 1.388 . S
C1291 C1290 1.366 . S
C1291 C1295 1.385 . S
C1292 H1273 0.951 . S
C1292 C1290 1.388 . S
C1292 C1293 1.366 . S
C1293 C1292 1.366 . S
C1293 C1294 1.414 . S
C1293 C1296 1.499 . S
C1294 H1274 0.950 . S
C1294 C1293 1.414 . S
C1294 C1295 1.374 . S
C1295 H1275 0.950 . S
C1295 C1291 1.385 . S
C1295 C1294 1.374 . S
C1296 C1293 1.499 . S
C1296 C1297 1.373 . S
C1296 C1298 1.389 . S
C1297 H1276 0.950 . S
C1297 C1296 1.373 . S
C1297 C1313 1.377 1_545 S
C1298 C1296 1.389 . S
C1298 C1299 1.524 . S
C1298 C1312 1.377 1_545 S
C1299 C1298 1.524 . S
C1299 C1300 1.397 . S
C1299 C1304 1.363 . S
C1300 H1277 0.950 . S
C1300 C1299 1.397 . S
C1300 C1301 1.334 . S
C1301 H1278 0.950 . S
C1301 C1300 1.334 . S
C1301 C1302 1.287 . S
C1302 C1301 1.287 . S
C1302 C1303 1.524 . S
C1302 H1321 0.913 . S
C1303 H1279 0.950 . S
C1303 C1302 1.524 . S
C1303 C1304 1.415 . S
C1304 H1280 0.950 . S
C1304 C1299 1.363 . S
C1304 C1303 1.415 . S
C1305 H1281 0.951 . S
C1305 C1306 1.366 . S
C1305 C1307 1.388 . S
C1306 C1305 1.366 . S
C1306 C1310 1.385 . S
C1307 H1282 0.951 . S
C1307 C1305 1.388 . S
C1307 C1308 1.366 . S
C1308 C1307 1.366 . S
C1308 C1309 1.414 . S
C1308 C1311 1.499 . S
C1309 H1283 0.950 . S
C1309 C1308 1.414 . S
C1309 C1310 1.374 . S
C1310 H1284 0.950 . S
C1310 C1306 1.385 . S
C1310 C1309 1.374 . S
C1311 C1308 1.499 . S
C1311 C1312 1.373 . S
C1311 C1313 1.389 . S
C1312 H1285 0.950 . S
C1312 C1298 1.377 1_565 S
C1312 C1311 1.373 . S
C1313 C1297 1.377 1_565 S
C1313 C1311 1.389 . S
C1313 C1314 1.524 . S
C1314 C1313 1.524 . S
C1314 C1315 1.397 . S
C1314 C1319 1.363 . S
C1315 H1286 0.950 . S
C1315 C1314 1.397 . S
C1315 C1316 1.334 . S
C1316 H1287 0.950 . S
C1316 C1315 1.334 . S
C1316 C1317 1.287 . S
C1317 C1316 1.287 . S
C1317 C1318 1.524 . S
C1317 H1320 0.999 . S
C1318 H1288 0.950 . S
C1318 C1317 1.524 . S
C1318 C1319 1.415 . S
C1319 H1289 0.950 . S
C1319 C1314 1.363 . S
C1319 C1318 1.415 . S
H1320 C1317 0.999 . S
H1321 C1302 0.913 . S
H1322 C1340 0.951 . S
H1323 C1342 0.951 . S
H1324 C1344 0.950 . S
H1325 C1345 0.950 . S
H1326 C1347 0.950 . S
H1327 C1350 0.950 . S
H1328 C1351 0.950 . S
H1329 C1353 0.950 . S
H1330 C1354 0.950 . S
H1331 C1355 0.951 . S
H1332 C1357 0.951 . S
H1333 C1359 0.950 . S
H1334 C1360 0.950 . S
H1335 C1362 0.950 . S
H1336 C1365 0.950 . S
H1337 C1366 0.950 . S
H1338 C1368 0.950 . S
H1339 C1369 0.950 . S
C1340 H1322 0.951 . S
C1340 C1341 1.366 . S
C1340 C1342 1.388 . S
C1341 C1340 1.366 . S
C1341 C1345 1.385 . S
C1342 H1323 0.951 . S
C1342 C1340 1.388 . S
C1342 C1343 1.366 . S
C1343 C1342 1.366 . S
C1343 C1344 1.414 . S
C1343 C1346 1.499 . S
C1344 H1324 0.950 . S
C1344 C1343 1.414 . S
C1344 C1345 1.374 . S
C1345 H1325 0.950 . S
C1345 C1341 1.385 . S
C1345 C1344 1.374 . S
C1346 C1343 1.499 . S
C1346 C1347 1.373 . S
C1346 C1348 1.389 . S
C1347 H1326 0.950 . S
C1347 C1346 1.373 . S
C1347 C1363 1.377 . S
C1348 C1346 1.389 . S
C1348 C1349 1.524 . S
C1348 C1362 1.377 . S
C1349 C1348 1.524 . S
C1349 C1350 1.397 . S
C1349 C1354 1.363 . S
C1350 H1327 0.950 . S
C1350 C1349 1.397 . S
C1350 C1351 1.334 . S
C1351 H1328 0.950 . S
C1351 C1350 1.334 . S
C1351 C1352 1.287 . S
C1352 C1351 1.287 . S
C1352 C1353 1.524 . S
C1352 H1371 0.913 . S
C1353 H1329 0.950 . S
C1353 C1352 1.524 . S
C1353 C1354 1.415 . S
C1354 H1330 0.950 . S
C1354 C1349 1.363 . S
C1354 C1353 1.415 . S
C1355 H1331 0.951 . S
C1355 C1356 1.366 . S
C1355 C1357 1.388 . S
C1356 C1355 1.366 . S
C1356 C1360 1.385 . S
C1357 H1332 0.951 . S
C1357 C1355 1.388 . S
C1357 C1358 1.366 . S
C1358 C1357 1.366 . S
C1358 C1359 1.414 . S
C1358 C1361 1.499 . S
C1359 H1333 0.950 . S
C1359 C1358 1.414 . S
C1359 C1360 1.374 . S
C1360 H1334 0.950 . S
C1360 C1356 1.385 . S
C1360 C1359 1.374 . S
C1361 C1358 1.499 . S
C1361 C1362 1.373 . S
C1361 C1363 1.389 . S
C1362 H1335 0.950 . S
C1362 C1348 1.377 . S
C1362 C1361 1.373 . S
C1363 C1347 1.377 . S
C1363 C1361 1.389 . S
C1363 C1364 1.524 . S
C1364 C1363 1.524 . S
C1364 C1365 1.397 . S
C1364 C1369 1.363 . S
C1365 H1336 0.950 . S
C1365 C1364 1.397 . S
C1365 C1366 1.334 . S
C1366 H1337 0.950 . S
C1366 C1365 1.334 . S
C1366 C1367 1.287 . S
C1367 C1366 1.287 . S
C1367 C1368 1.524 . S
C1367 H1370 0.999 . S
C1368 H1338 0.950 . S
C1368 C1367 1.524 . S
C1368 C1369 1.415 . S
C1369 H1339 0.950 . S
C1369 C1364 1.363 . S
C1369 C1368 1.415 . S
H1370 C1367 0.999 . S
H1371 C1352 0.913 . S
H1372 C1390 0.951 . S
H1373 C1392 0.951 . S
H1374 C1394 0.950 . S
H1375 C1395 0.950 . S
H1376 C1397 0.950 . S
H1377 C1400 0.950 . S
H1378 C1401 0.950 . S
H1379 C1403 0.950 . S
H1380 C1404 0.950 . S
H1381 C1405 0.951 . S
H1382 C1407 0.951 . S
H1383 C1409 0.950 . S
H1384 C1410 0.950 . S
H1385 C1412 0.950 . S
H1386 C1415 0.950 . S
H1387 C1416 0.950 . S
H1388 C1418 0.950 . S
H1389 C1419 0.950 . S
C1390 H1372 0.951 . S
C1390 C1391 1.366 . S
C1390 C1392 1.388 . S
C1391 C1390 1.366 . S
C1391 C1395 1.385 . S
C1392 H1373 0.951 . S
C1392 C1390 1.388 . S
C1392 C1393 1.366 . S
C1393 C1392 1.366 . S
C1393 C1394 1.414 . S
C1393 C1396 1.499 . S
C1394 H1374 0.950 . S
C1394 C1393 1.414 . S
C1394 C1395 1.374 . S
C1395 H1375 0.950 . S
C1395 C1391 1.385 . S
C1395 C1394 1.374 . S
C1396 C1393 1.499 . S
C1396 C1397 1.373 . S
C1396 C1398 1.389 . S
C1397 H1376 0.950 . S
C1397 C1396 1.373 . S
C1397 C1413 1.377 1_545 S
C1398 C1396 1.389 . S
C1398 C1399 1.524 . S
C1398 C1412 1.377 1_545 S
C1399 C1398 1.524 . S
C1399 C1400 1.397 . S
C1399 C1404 1.363 . S
C1400 H1377 0.950 . S
C1400 C1399 1.397 . S
C1400 C1401 1.334 . S
C1401 H1378 0.950 . S
C1401 C1400 1.334 . S
C1401 C1402 1.287 . S
C1402 C1401 1.287 . S
C1402 C1403 1.524 . S
C1402 H1421 0.913 . S
C1403 H1379 0.950 . S
C1403 C1402 1.524 . S
C1403 C1404 1.415 . S
C1404 H1380 0.950 . S
C1404 C1399 1.363 . S
C1404 C1403 1.415 . S
C1405 H1381 0.951 . S
C1405 C1406 1.366 . S
C1405 C1407 1.388 . S
C1406 C1405 1.366 . S
C1406 C1410 1.385 . S
C1407 H1382 0.951 . S
C1407 C1405 1.388 . S
C1407 C1408 1.366 . S
C1408 C1407 1.366 . S
C1408 C1409 1.414 . S
C1408 C1411 1.499 . S
C1409 H1383 0.950 . S
C1409 C1408 1.414 . S
C1409 C1410 1.374 . S
C1410 H1384 0.950 . S
C1410 C1406 1.385 . S
C1410 C1409 1.374 . S
C1411 C1408 1.499 . S
C1411 C1412 1.373 . S
C1411 C1413 1.389 . S
C1412 H1385 0.950 . S
C1412 C1398 1.377 1_565 S
C1412 C1411 1.373 . S
C1413 C1397 1.377 1_565 S
C1413 C1411 1.389 . S
C1413 C1414 1.524 . S
C1414 C1413 1.524 . S
C1414 C1415 1.397 . S
C1414 C1419 1.363 . S
C1415 H1386 0.950 . S
C1415 C1414 1.397 . S
C1415 C1416 1.334 . S
C1416 H1387 0.950 . S
C1416 C1415 1.334 . S
C1416 C1417 1.287 . S
C1417 C1416 1.287 . S
C1417 C1418 1.524 . S
C1417 H1420 0.999 . S
C1418 H1388 0.950 . S
C1418 C1417 1.524 . S
C1418 C1419 1.415 . S
C1419 H1389 0.950 . S
C1419 C1414 1.363 . S
C1419 C1418 1.415 . S
H1420 C1417 0.999 . S
H1421 C1402 0.913 . S
H1422 C1440 0.951 . S
H1423 C1442 0.951 . S
H1424 C1444 0.950 . S
H1425 C1445 0.950 . S
H1426 C1447 0.950 . S
H1427 C1450 0.950 . S
H1428 C1451 0.950 . S
H1429 C1453 0.950 . S
H1430 C1454 0.950 . S
H1431 C1455 0.951 . S
H1432 C1457 0.951 . S
H1433 C1459 0.950 . S
H1434 C1460 0.950 . S
H1435 C1462 0.950 . S
H1436 C1465 0.950 . S
H1437 C1466 0.950 . S
H1438 C1468 0.950 . S
H1439 C1469 0.950 . S
C1440 H1422 0.951 . S
C1440 C1441 1.366 . S
C1440 C1442 1.388 . S
C1441 C1440 1.366 . S
C1441 C1445 1.385 . S
C1442 H1423 0.951 . S
C1442 C1440 1.388 . S
C1442 C1443 1.366 . S
C1443 C1442 1.366 . S
C1443 C1444 1.414 . S
C1443 C1446 1.499 . S
C1444 H1424 0.950 . S
C1444 C1443 1.414 . S
C1444 C1445 1.374 . S
C1445 H1425 0.950 . S
C1445 C1441 1.385 . S
C1445 C1444 1.374 . S
C1446 C1443 1.499 . S
C1446 C1447 1.373 . S
C1446 C1448 1.389 . S
C1447 H1426 0.950 . S
C1447 C1446 1.373 . S
C1447 C1463 1.377 . S
C1448 C1446 1.389 . S
C1448 C1449 1.524 . S
C1448 C1462 1.377 . S
C1449 C1448 1.524 . S
C1449 C1450 1.397 . S
C1449 C1454 1.363 . S
C1450 H1427 0.950 . S
C1450 C1449 1.397 . S
C1450 C1451 1.334 . S
C1451 H1428 0.950 . S
C1451 C1450 1.334 . S
C1451 C1452 1.287 . S
C1452 C1451 1.287 . S
C1452 C1453 1.524 . S
C1452 H1471 0.913 . S
C1453 H1429 0.950 . S
C1453 C1452 1.524 . S
C1453 C1454 1.415 . S
C1454 H1430 0.950 . S
C1454 C1449 1.363 . S
C1454 C1453 1.415 . S
C1455 H1431 0.951 . S
C1455 C1456 1.366 . S
C1455 C1457 1.388 . S
C1456 C1455 1.366 . S
C1456 C1460 1.385 . S
C1457 H1432 0.951 . S
C1457 C1455 1.388 . S
C1457 C1458 1.366 . S
C1458 C1457 1.366 . S
C1458 C1459 1.414 . S
C1458 C1461 1.499 . S
C1459 H1433 0.950 . S
C1459 C1458 1.414 . S
C1459 C1460 1.374 . S
C1460 H1434 0.950 . S
C1460 C1456 1.385 . S
C1460 C1459 1.374 . S
C1461 C1458 1.499 . S
C1461 C1462 1.373 . S
C1461 C1463 1.389 . S
C1462 H1435 0.950 . S
C1462 C1448 1.377 . S
C1462 C1461 1.373 . S
C1463 C1447 1.377 . S
C1463 C1461 1.389 . S
C1463 C1464 1.524 . S
C1464 C1463 1.524 . S
C1464 C1465 1.397 . S
C1464 C1469 1.363 . S
C1465 H1436 0.950 . S
C1465 C1464 1.397 . S
C1465 C1466 1.334 . S
C1466 H1437 0.950 . S
C1466 C1465 1.334 . S
C1466 C1467 1.287 . S
C1467 C1466 1.287 . S
C1467 C1468 1.524 . S
C1467 H1470 0.999 . S
C1468 H1438 0.950 . S
C1468 C1467 1.524 . S
C1468 C1469 1.415 . S
C1469 H1439 0.950 . S
C1469 C1464 1.363 . S
C1469 C1468 1.415 . S
H1470 C1467 0.999 . S
H1471 C1452 0.913 . S
H1472 C1490 0.951 . S
H1473 C1492 0.951 . S
H1474 C1494 0.950 . S
H1475 C1495 0.950 . S
H1476 C1497 0.950 . S
H1477 C1500 0.950 . S
H1478 C1501 0.950 . S
H1479 C1503 0.950 . S
H1480 C1504 0.950 . S
H1481 C1505 0.951 . S
H1482 C1507 0.951 . S
H1483 C1509 0.950 . S
H1484 C1510 0.950 . S
H1485 C1512 0.950 . S
H1486 C1515 0.950 . S
H1487 C1516 0.950 . S
H1488 C1518 0.950 . S
H1489 C1519 0.950 . S
C1490 H1472 0.951 . S
C1490 C1491 1.366 . S
C1490 C1492 1.388 . S
C1491 C1490 1.366 . S
C1491 C1495 1.385 . S
C1492 H1473 0.951 . S
C1492 C1490 1.388 . S
C1492 C1493 1.366 . S
C1493 C1492 1.366 . S
C1493 C1494 1.414 . S
C1493 C1496 1.499 . S
C1494 H1474 0.950 . S
C1494 C1493 1.414 . S
C1494 C1495 1.374 . S
C1495 H1475 0.950 . S
C1495 C1491 1.385 . S
C1495 C1494 1.374 . S
C1496 C1493 1.499 . S
C1496 C1497 1.373 . S
C1496 C1498 1.389 . S
C1497 H1476 0.950 . S
C1497 C1496 1.373 . S
C1497 C1513 1.377 1_554 S
C1498 C1496 1.389 . S
C1498 C1499 1.524 . S
C1498 C1512 1.377 1_554 S
C1499 C1498 1.524 . S
C1499 C1500 1.397 . S
C1499 C1504 1.363 . S
C1500 H1477 0.950 . S
C1500 C1499 1.397 . S
C1500 C1501 1.334 . S
C1501 H1478 0.950 . S
C1501 C1500 1.334 . S
C1501 C1502 1.287 . S
C1502 C1501 1.287 . S
C1502 C1503 1.524 . S
C1502 H1521 0.913 . S
C1503 H1479 0.950 . S
C1503 C1502 1.524 . S
C1503 C1504 1.415 . S
C1504 H1480 0.950 . S
C1504 C1499 1.363 . S
C1504 C1503 1.415 . S
C1505 H1481 0.951 . S
C1505 C1506 1.366 . S
C1505 C1507 1.388 . S
C1506 C1505 1.366 . S
C1506 C1510 1.385 . S
C1507 H1482 0.951 . S
C1507 C1505 1.388 . S
C1507 C1508 1.366 . S
C1508 C1507 1.366 . S
C1508 C1509 1.414 . S
C1508 C1511 1.499 . S
C1509 H1483 0.950 . S
C1509 C1508 1.414 . S
C1509 C1510 1.374 . S
C1510 H1484 0.950 . S
C1510 C1506 1.385 . S
C1510 C1509 1.374 . S
C1511 C1508 1.499 . S
C1511 C1512 1.373 . S
C1511 C1513 1.389 . S
C1512 H1485 0.950 . S
C1512 C1498 1.377 1_556 S
C1512 C1511 1.373 . S
C1513 C1497 1.377 1_556 S
C1513 C1511 1.389 . S
C1513 C1514 1.524 . S
C1514 C1513 1.524 . S
C1514 C1515 1.397 . S
C1514 C1519 1.363 . S
C1515 H1486 0.950 . S
C1515 C1514 1.397 . S
C1515 C1516 1.334 . S
C1516 H1487 0.950 . S
C1516 C1515 1.334 . S
C1516 C1517 1.287 . S
C1517 C1516 1.287 . S
C1517 C1518 1.524 . S
C1517 H1520 0.999 . S
C1518 H1488 0.950 . S
C1518 C1517 1.524 . S
C1518 C1519 1.415 . S
C1519 H1489 0.950 . S
C1519 C1514 1.363 . S
C1519 C1518 1.415 . S
H1520 C1517 0.999 . S
H1521 C1502 0.913 . S
H1522 C1540 0.951 . S
H1523 C1542 0.951 . S
H1524 C1544 0.950 . S
H1525 C1545 0.950 . S
H1526 C1547 0.950 . S
H1527 C1550 0.950 . S
H1528 C1551 0.950 . S
H1529 C1553 0.950 . S
H1530 C1554 0.950 . S
H1531 C1555 0.951 . S
H1532 C1557 0.951 . S
H1533 C1559 0.950 . S
H1534 C1560 0.950 . S
H1535 C1562 0.950 . S
H1536 C1565 0.950 . S
H1537 C1566 0.950 . S
H1538 C1568 0.950 . S
H1539 C1569 0.950 . S
C1540 H1522 0.951 . S
C1540 C1541 1.366 . S
C1540 C1542 1.388 . S
C1541 C1540 1.366 . S
C1541 C1545 1.385 . S
C1542 H1523 0.951 . S
C1542 C1540 1.388 . S
C1542 C1543 1.366 . S
C1543 C1542 1.366 . S
C1543 C1544 1.414 . S
C1543 C1546 1.499 . S
C1544 H1524 0.950 . S
C1544 C1543 1.414 . S
C1544 C1545 1.374 . S
C1545 H1525 0.950 . S
C1545 C1541 1.385 . S
C1545 C1544 1.374 . S
C1546 C1543 1.499 . S
C1546 C1547 1.373 . S
C1546 C1548 1.389 . S
C1547 H1526 0.950 . S
C1547 C1546 1.373 . S
C1547 C1563 1.377 1_554 S
C1548 C1546 1.389 . S
C1548 C1549 1.524 . S
C1548 C1562 1.377 1_554 S
C1549 C1548 1.524 . S
C1549 C1550 1.397 . S
C1549 C1554 1.363 . S
C1550 H1527 0.950 . S
C1550 C1549 1.397 . S
C1550 C1551 1.334 . S
C1551 H1528 0.950 . S
C1551 C1550 1.334 . S
C1551 C1552 1.287 . S
C1552 C1551 1.287 . S
C1552 C1553 1.524 . S
C1552 H1571 0.913 . S
C1553 H1529 0.950 . S
C1553 C1552 1.524 . S
C1553 C1554 1.415 . S
C1554 H1530 0.950 . S
C1554 C1549 1.363 . S
C1554 C1553 1.415 . S
C1555 H1531 0.951 . S
C1555 C1556 1.366 . S
C1555 C1557 1.388 . S
C1556 C1555 1.366 . S
C1556 C1560 1.385 . S
C1557 H1532 0.951 . S
C1557 C1555 1.388 . S
C1557 C1558 1.366 . S
C1558 C1557 1.366 . S
C1558 C1559 1.414 . S
C1558 C1561 1.499 . S
C1559 H1533 0.950 . S
C1559 C1558 1.414 . S
C1559 C1560 1.374 . S
C1560 H1534 0.950 . S
C1560 C1556 1.385 . S
C1560 C1559 1.374 . S
C1561 C1558 1.499 . S
C1561 C1562 1.373 . S
C1561 C1563 1.389 . S
C1562 H1535 0.950 . S
C1562 C1548 1.377 1_556 S
C1562 C1561 1.373 . S
C1563 C1547 1.377 1_556 S
C1563 C1561 1.389 . S
C1563 C1564 1.524 . S
C1564 C1563 1.524 . S
C1564 C1565 1.397 . S
C1564 C1569 1.363 . S
C1565 H1536 0.950 . S
C1565 C1564 1.397 . S
C1565 C1566 1.334 . S
C1566 H1537 0.950 . S
C1566 C1565 1.334 . S
C1566 C1567 1.287 . S
C1567 C1566 1.287 . S
C1567 C1568 1.524 . S
C1567 H1570 0.999 . S
C1568 H1538 0.950 . S
C1568 C1567 1.524 . S
C1568 C1569 1.415 . S
C1569 H1539 0.950 . S
C1569 C1564 1.363 . S
C1569 C1568 1.415 . S
H1570 C1567 0.999 . S
H1571 C1552 0.913 . S
H1572 C1590 0.951 . S
H1573 C1592 0.951 . S
H1574 C1594 0.950 . S
H1575 C1595 0.950 . S
H1576 C1597 0.950 . S
H1577 C1600 0.950 . S
H1578 C1601 0.950 . S
H1579 C1603 0.950 . S
H1580 C1604 0.950 . S
H1581 C1605 0.951 . S
H1582 C1607 0.951 . S
H1583 C1609 0.950 . S
H1584 C1610 0.950 . S
H1585 C1612 0.950 . S
H1586 C1615 0.950 . S
H1587 C1616 0.950 . S
H1588 C1618 0.950 . S
H1589 C1619 0.950 . S
C1590 H1572 0.951 . S
C1590 C1591 1.366 . S
C1590 C1592 1.388 . S
C1591 C1590 1.366 . S
C1591 C1595 1.385 . S
C1592 H1573 0.951 . S
C1592 C1590 1.388 . S
C1592 C1593 1.366 . S
C1593 C1592 1.366 . S
C1593 C1594 1.414 . S
C1593 C1596 1.499 . S
C1594 H1574 0.950 . S
C1594 C1593 1.414 . S
C1594 C1595 1.374 . S
C1595 H1575 0.950 . S
C1595 C1591 1.385 . S
C1595 C1594 1.374 . S
C1596 C1593 1.499 . S
C1596 C1597 1.373 . S
C1596 C1598 1.389 . S
C1597 H1576 0.950 . S
C1597 C1596 1.373 . S
C1597 C1613 1.377 . S
C1598 C1596 1.389 . S
C1598 C1599 1.524 . S
C1598 C1612 1.377 . S
C1599 C1598 1.524 . S
C1599 C1600 1.397 . S
C1599 C1604 1.363 . S
C1600 H1577 0.950 . S
C1600 C1599 1.397 . S
C1600 C1601 1.334 . S
C1601 H1578 0.950 . S
C1601 C1600 1.334 . S
C1601 C1602 1.287 . S
C1602 C1601 1.287 . S
C1602 C1603 1.524 . S
C1602 H1621 0.913 . S
C1603 H1579 0.950 . S
C1603 C1602 1.524 . S
C1603 C1604 1.415 . S
C1604 H1580 0.950 . S
C1604 C1599 1.363 . S
C1604 C1603 1.415 . S
C1605 H1581 0.951 . S
C1605 C1606 1.366 . S
C1605 C1607 1.388 . S
C1606 C1605 1.366 . S
C1606 C1610 1.385 . S
C1607 H1582 0.951 . S
C1607 C1605 1.388 . S
C1607 C1608 1.366 . S
C1608 C1607 1.366 . S
C1608 C1609 1.414 . S
C1608 C1611 1.499 . S
C1609 H1583 0.950 . S
C1609 C1608 1.414 . S
C1609 C1610 1.374 . S
C1610 H1584 0.950 . S
C1610 C1606 1.385 . S
C1610 C1609 1.374 . S
C1611 C1608 1.499 . S
C1611 C1612 1.373 . S
C1611 C1613 1.389 . S
C1612 H1585 0.950 . S
C1612 C1598 1.377 . S
C1612 C1611 1.373 . S
C1613 C1597 1.377 . S
C1613 C1611 1.389 . S
C1613 C1614 1.524 . S
C1614 C1613 1.524 . S
C1614 C1615 1.397 . S
C1614 C1619 1.363 . S
C1615 H1586 0.950 . S
C1615 C1614 1.397 . S
C1615 C1616 1.334 . S
C1616 H1587 0.950 . S
C1616 C1615 1.334 . S
C1616 C1617 1.287 . S
C1617 C1616 1.287 . S
C1617 C1618 1.524 . S
C1617 H1620 0.999 . S
C1618 H1588 0.950 . S
C1618 C1617 1.524 . S
C1618 C1619 1.415 . S
C1619 H1589 0.950 . S
C1619 C1614 1.363 . S
C1619 C1618 1.415 . S
H1620 C1617 0.999 . S
H1621 C1602 0.913 . S
H1622 C1640 0.951 . S
H1623 C1642 0.951 . S
H1624 C1644 0.950 . S
H1625 C1645 0.950 . S
H1626 C1647 0.950 . S
H1627 C1650 0.950 . S
H1628 C1651 0.950 . S
H1629 C1653 0.950 . S
H1630 C1654 0.950 . S
H1631 C1655 0.951 . S
H1632 C1657 0.951 . S
H1633 C1659 0.950 . S
H1634 C1660 0.950 . S
H1635 C1662 0.950 . S
H1636 C1665 0.950 . S
H1637 C1666 0.950 . S
H1638 C1668 0.950 . S
H1639 C1669 0.950 . S
C1640 H1622 0.951 . S
C1640 C1641 1.366 . S
C1640 C1642 1.388 . S
C1641 C1640 1.366 . S
C1641 C1645 1.385 . S
C1642 H1623 0.951 . S
C1642 C1640 1.388 . S
C1642 C1643 1.366 . S
C1643 C1642 1.366 . S
C1643 C1644 1.414 . S
C1643 C1646 1.499 . S
C1644 H1624 0.950 . S
C1644 C1643 1.414 . S
C1644 C1645 1.374 . S
C1645 H1625 0.950 . S
C1645 C1641 1.385 . S
C1645 C1644 1.374 . S
C1646 C1643 1.499 . S
C1646 C1647 1.373 . S
C1646 C1648 1.389 . S
C1647 H1626 0.950 . S
C1647 C1646 1.373 . S
C1647 C1663 1.377 1_554 S
C1648 C1646 1.389 . S
C1648 C1649 1.524 . S
C1648 C1662 1.377 1_554 S
C1649 C1648 1.524 . S
C1649 C1650 1.397 . S
C1649 C1654 1.363 . S
C1650 H1627 0.950 . S
C1650 C1649 1.397 . S
C1650 C1651 1.334 . S
C1651 H1628 0.950 . S
C1651 C1650 1.334 . S
C1651 C1652 1.287 . S
C1652 C1651 1.287 . S
C1652 C1653 1.524 . S
C1652 H1671 0.913 . S
C1653 H1629 0.950 . S
C1653 C1652 1.524 . S
C1653 C1654 1.415 . S
C1654 H1630 0.950 . S
C1654 C1649 1.363 . S
C1654 C1653 1.415 . S
C1655 H1631 0.951 . S
C1655 C1656 1.366 . S
C1655 C1657 1.388 . S
C1656 C1655 1.366 . S
C1656 C1660 1.385 . S
C1657 H1632 0.951 . S
C1657 C1655 1.388 . S
C1657 C1658 1.366 . S
C1658 C1657 1.366 . S
C1658 C1659 1.414 . S
C1658 C1661 1.499 . S
C1659 H1633 0.950 . S
C1659 C1658 1.414 . S
C1659 C1660 1.374 . S
C1660 H1634 0.950 . S
C1660 C1656 1.385 . S
C1660 C1659 1.374 . S
C1661 C1658 1.499 . S
C1661 C1662 1.373 . S
C1661 C1663 1.389 . S
C1662 H1635 0.950 . S
C1662 C1648 1.377 1_556 S
C1662 C1661 1.373 . S
C1663 C1647 1.377 1_556 S
C1663 C1661 1.389 . S
C1663 C1664 1.524 . S
C1664 C1663 1.524 . S
C1664 C1665 1.397 . S
C1664 C1669 1.363 . S
C1665 H1636 0.950 . S
C1665 C1664 1.397 . S
C1665 C1666 1.334 . S
C1666 H1637 0.950 . S
C1666 C1665 1.334 . S
C1666 C1667 1.287 . S
C1667 C1666 1.287 . S
C1667 C1668 1.524 . S
C1667 H1670 0.999 . S
C1668 H1638 0.950 . S
C1668 C1667 1.524 . S
C1668 C1669 1.415 . S
C1669 H1639 0.950 . S
C1669 C1664 1.363 . S
C1669 C1668 1.415 . S
H1670 C1667 0.999 . S
H1671 C1652 0.913 . S
H1672 C1690 0.951 . S
H1673 C1692 0.951 . S
H1674 C1694 0.950 . S
H1675 C1695 0.950 . S
H1676 C1697 0.950 . S
H1677 C1700 0.950 . S
H1678 C1701 0.950 . S
H1679 C1703 0.950 . S
H1680 C1704 0.950 . S
H1681 C1705 0.951 . S
H1682 C1707 0.951 . S
H1683 C1709 0.950 . S
H1684 C1710 0.950 . S
H1685 C1712 0.950 . S
H1686 C1715 0.950 . S
H1687 C1716 0.950 . S
H1688 C1718 0.950 . S
H1689 C1719 0.950 . S
C1690 H1672 0.951 . S
C1690 C1691 1.366 . S
C1690 C1692 1.388 . S
C1691 C1690 1.366 . S
C1691 C1695 1.385 . S
C1692 H1673 0.951 . S
C1692 C1690 1.388 . S
C1692 C1693 1.366 . S
C1693 C1692 1.366 . S
C1693 C1694 1.414 . S
C1693 C1696 1.499 . S
C1694 H1674 0.950 . S
C1694 C1693 1.414 . S
C1694 C1695 1.374 . S
C1695 H1675 0.950 . S
C1695 C1691 1.385 . S
C1695 C1694 1.374 . S
C1696 C1693 1.499 . S
C1696 C1697 1.373 . S
C1696 C1698 1.389 . S
C1697 H1676 0.950 . S
C1697 C1696 1.373 . S
C1697 C1713 1.377 . S
C1698 C1696 1.389 . S
C1698 C1699 1.524 . S
C1698 C1712 1.377 . S
C1699 C1698 1.524 . S
C1699 C1700 1.397 . S
C1699 C1704 1.363 . S
C1700 H1677 0.950 . S
C1700 C1699 1.397 . S
C1700 C1701 1.334 . S
C1701 H1678 0.950 . S
C1701 C1700 1.334 . S
C1701 C1702 1.287 . S
C1702 C1701 1.287 . S
C1702 C1703 1.524 . S
C1702 H1721 0.913 . S
C1703 H1679 0.950 . S
C1703 C1702 1.524 . S
C1703 C1704 1.415 . S
C1704 H1680 0.950 . S
C1704 C1699 1.363 . S
C1704 C1703 1.415 . S
C1705 H1681 0.951 . S
C1705 C1706 1.366 . S
C1705 C1707 1.388 . S
C1706 C1705 1.366 . S
C1706 C1710 1.385 . S
C1707 H1682 0.951 . S
C1707 C1705 1.388 . S
C1707 C1708 1.366 . S
C1708 C1707 1.366 . S
C1708 C1709 1.414 . S
C1708 C1711 1.499 . S
C1709 H1683 0.950 . S
C1709 C1708 1.414 . S
C1709 C1710 1.374 . S
C1710 H1684 0.950 . S
C1710 C1706 1.385 . S
C1710 C1709 1.374 . S
C1711 C1708 1.499 . S
C1711 C1712 1.373 . S
C1711 C1713 1.389 . S
C1712 H1685 0.950 . S
C1712 C1698 1.377 . S
C1712 C1711 1.373 . S
C1713 C1697 1.377 . S
C1713 C1711 1.389 . S
C1713 C1714 1.524 . S
C1714 C1713 1.524 . S
C1714 C1715 1.397 . S
C1714 C1719 1.363 . S
C1715 H1686 0.950 . S
C1715 C1714 1.397 . S
C1715 C1716 1.334 . S
C1716 H1687 0.950 . S
C1716 C1715 1.334 . S
C1716 C1717 1.287 . S
C1717 C1716 1.287 . S
C1717 C1718 1.524 . S
C1717 H1720 0.999 . S
C1718 H1688 0.950 . S
C1718 C1717 1.524 . S
C1718 C1719 1.415 . S
C1719 H1689 0.950 . S
C1719 C1714 1.363 . S
C1719 C1718 1.415 . S
H1720 C1717 0.999 . S
H1721 C1702 0.913 . S
H1722 C1740 0.951 . S
H1723 C1742 0.951 . S
H1724 C1744 0.950 . S
H1725 C1745 0.950 . S
H1726 C1747 0.950 . S
H1727 C1750 0.950 . S
H1728 C1751 0.950 . S
H1729 C1753 0.950 . S
H1730 C1754 0.950 . S
H1731 C1755 0.951 . S
H1732 C1757 0.951 . S
H1733 C1759 0.950 . S
H1734 C1760 0.950 . S
H1735 C1762 0.950 . S
H1736 C1765 0.950 . S
H1737 C1766 0.950 . S
H1738 C1768 0.950 . S
H1739 C1769 0.950 . S
C1740 H1722 0.951 . S
C1740 C1741 1.366 . S
C1740 C1742 1.388 . S
C1741 C1740 1.366 . S
C1741 C1745 1.385 . S
C1742 H1723 0.951 . S
C1742 C1740 1.388 . S
C1742 C1743 1.366 . S
C1743 C1742 1.366 . S
C1743 C1744 1.414 . S
C1743 C1746 1.499 . S
C1744 H1724 0.950 . S
C1744 C1743 1.414 . S
C1744 C1745 1.374 . S
C1745 H1725 0.950 . S
C1745 C1741 1.385 . S
C1745 C1744 1.374 . S
C1746 C1743 1.499 . S
C1746 C1747 1.373 . S
C1746 C1748 1.389 . S
C1747 H1726 0.950 . S
C1747 C1746 1.373 . S
C1747 C1763 1.377 1_554 S
C1748 C1746 1.389 . S
C1748 C1749 1.524 . S
C1748 C1762 1.377 1_554 S
C1749 C1748 1.524 . S
C1749 C1750 1.397 . S
C1749 C1754 1.363 . S
C1750 H1727 0.950 . S
C1750 C1749 1.397 . S
C1750 C1751 1.334 . S
C1751 H1728 0.950 . S
C1751 C1750 1.334 . S
C1751 C1752 1.287 . S
C1752 C1751 1.287 . S
C1752 C1753 1.524 . S
C1752 H1771 0.913 . S
C1753 H1729 0.950 . S
C1753 C1752 1.524 . S
C1753 C1754 1.415 . S
C1754 H1730 0.950 . S
C1754 C1749 1.363 . S
C1754 C1753 1.415 . S
C1755 H1731 0.951 . S
C1755 C1756 1.366 . S
C1755 C1757 1.388 . S
C1756 C1755 1.366 . S
C1756 C1760 1.385 . S
C1757 H1732 0.951 . S
C1757 C1755 1.388 . S
C1757 C1758 1.366 . S
C1758 C1757 1.366 . S
C1758 C1759 1.414 . S
C1758 C1761 1.499 . S
C1759 H1733 0.950 . S
C1759 C1758 1.414 . S
C1759 C1760 1.374 . S
C1760 H1734 0.950 . S
C1760 C1756 1.385 . S
C1760 C1759 1.374 . S
C1761 C1758 1.499 . S
C1761 C1762 1.373 . S
C1761 C1763 1.389 . S
C1762 H1735 0.950 . S
C1762 C1748 1.377 1_556 S
C1762 C1761 1.373 . S
C1763 C1747 1.377 1_556 S
C1763 C1761 1.389 . S
C1763 C1764 1.524 . S
C1764 C1763 1.524 . S
C1764 C1765 1.397 . S
C1764 C1769 1.363 . S
C1765 H1736 0.950 . S
C1765 C1764 1.397 . S
C1765 C1766 1.334 . S
C1766 H1737 0.950 . S
C1766 C1765 1.334 . S
C1766 C1767 1.287 . S
C1767 C1766 1.287 . S
C1767 C1768 1.524 . S
C1767 H1770 0.999 . S
C1768 H1738 0.950 . S
C1768 C1767 1.524 . S
C1768 C1769 1.415 . S
C1769 H1739 0.950 . S
C1769 C1764 1.363 . S
C1769 C1768 1.415 . S
H1770 C1767 0.999 . S
H1771 C1752 0.913 . S
H1772 C1790 0.951 . S
H1773 C1792 0.951 . S
H1774 C1794 0.950 . S
H1775 C1795 0.950 . S
H1776 C1797 0.950 . S
H1777 C1800 0.950 . S
H1778 C1801 0.950 . S
H1779 C1803 0.950 . S
H1780 C1804 0.950 . S
H1781 C1805 0.951 . S
H1782 C1807 0.951 . S
H1783 C1809 0.950 . S
H1784 C1810 0.950 . S
H1785 C1812 0.950 . S
H1786 C1815 0.950 . S
H1787 C1816 0.950 . S
H1788 C1818 0.950 . S
H1789 C1819 0.950 . S
C1790 H1772 0.951 . S
C1790 C1791 1.366 . S
C1790 C1792 1.388 . S
C1791 C1790 1.366 . S
C1791 C1795 1.385 . S
C1792 H1773 0.951 . S
C1792 C1790 1.388 . S
C1792 C1793 1.366 . S
C1793 C1792 1.366 . S
C1793 C1794 1.414 . S
C1793 C1796 1.499 . S
C1794 H1774 0.950 . S
C1794 C1793 1.414 . S
C1794 C1795 1.374 . S
C1795 H1775 0.950 . S
C1795 C1791 1.385 . S
C1795 C1794 1.374 . S
C1796 C1793 1.499 . S
C1796 C1797 1.373 . S
C1796 C1798 1.389 . S
C1797 H1776 0.950 . S
C1797 C1796 1.373 . S
C1797 C1813 1.377 . S
C1798 C1796 1.389 . S
C1798 C1799 1.524 . S
C1798 C1812 1.377 . S
C1799 C1798 1.524 . S
C1799 C1800 1.397 . S
C1799 C1804 1.363 . S
C1800 H1777 0.950 . S
C1800 C1799 1.397 . S
C1800 C1801 1.334 . S
C1801 H1778 0.950 . S
C1801 C1800 1.334 . S
C1801 C1802 1.287 . S
C1802 C1801 1.287 . S
C1802 C1803 1.524 . S
C1802 H1821 0.913 . S
C1803 H1779 0.950 . S
C1803 C1802 1.524 . S
C1803 C1804 1.415 . S
C1804 H1780 0.950 . S
C1804 C1799 1.363 . S
C1804 C1803 1.415 . S
C1805 H1781 0.951 . S
C1805 C1806 1.366 . S
C1805 C1807 1.388 . S
C1806 C1805 1.366 . S
C1806 C1810 1.385 . S
C1807 H1782 0.951 . S
C1807 C1805 1.388 . S
C1807 C1808 1.366 . S
C1808 C1807 1.366 . S
C1808 C1809 1.414 . S
C1808 C1811 1.499 . S
C1809 H1783 0.950 . S
C1809 C1808 1.414 . S
C1809 C1810 1.374 . S
C1810 H1784 0.950 . S
C1810 C1806 1.385 . S
C1810 C1809 1.374 . S
C1811 C1808 1.499 . S
C1811 C1812 1.373 . S
C1811 C1813 1.389 . S
C1812 H1785 0.950 . S
C1812 C1798 1.377 . S
C1812 C1811 1.373 . S
C1813 C1797 1.377 . S
C1813 C1811 1.389 . S
C1813 C1814 1.524 . S
C1814 C1813 1.524 . S
C1814 C1815 1.397 . S
C1814 C1819 1.363 . S
C1815 H1786 0.950 . S
C1815 C1814 1.397 . S
C1815 C1816 1.334 . S
C1816 H1787 0.950 . S
C1816 C1815 1.334 . S
C1816 C1817 1.287 . S
C1817 C1816 1.287 . S
C1817 C1818 1.524 . S
C1817 H1820 0.999 . S
C1818 H1788 0.950 . S
C1818 C1817 1.524 . S
C1818 C1819 1.415 . S
C1819 H1789 0.950 . S
C1819 C1814 1.363 . S
C1819 C1818 1.415 . S
H1820 C1817 0.999 . S
H1821 C1802 0.913 . S
H1822 C1840 0.951 . S
H1823 C1842 0.951 . S
H1824 C1844 0.950 . S
H1825 C1845 0.950 . S
H1826 C1847 0.950 . S
H1827 C1850 0.950 . S
H1828 C1851 0.950 . S
H1829 C1853 0.950 . S
H1830 C1854 0.950 . S
H1831 C1855 0.951 . S
H1832 C1857 0.951 . S
H1833 C1859 0.950 . S
H1834 C1860 0.950 . S
H1835 C1862 0.950 . S
H1836 C1865 0.950 . S
H1837 C1866 0.950 . S
H1838 C1868 0.950 . S
H1839 C1869 0.950 . S
C1840 H1822 0.951 . S
C1840 C1841 1.366 . S
C1840 C1842 1.388 . S
C1841 C1840 1.366 . S
C1841 C1845 1.385 . S
C1842 H1823 0.951 . S
C1842 C1840 1.388 . S
C1842 C1843 1.366 . S
C1843 C1842 1.366 . S
C1843 C1844 1.414 . S
C1843 C1846 1.499 . S
C1844 H1824 0.950 . S
C1844 C1843 1.414 . S
C1844 C1845 1.374 . S
C1845 H1825 0.950 . S
C1845 C1841 1.385 . S
C1845 C1844 1.374 . S
C1846 C1843 1.499 . S
C1846 C1847 1.373 . S
C1846 C1848 1.389 . S
C1847 H1826 0.950 . S
C1847 C1846 1.373 . S
C1847 C1863 1.377 . S
C1848 C1846 1.389 . S
C1848 C1849 1.524 . S
C1848 C1862 1.377 . S
C1849 C1848 1.524 . S
C1849 C1850 1.397 . S
C1849 C1854 1.363 . S
C1850 H1827 0.950 . S
C1850 C1849 1.397 . S
C1850 C1851 1.334 . S
C1851 H1828 0.950 . S
C1851 C1850 1.334 . S
C1851 C1852 1.287 . S
C1852 C1851 1.287 . S
C1852 C1853 1.524 . S
C1852 H1871 0.913 . S
C1853 H1829 0.950 . S
C1853 C1852 1.524 . S
C1853 C1854 1.415 . S
C1854 H1830 0.950 . S
C1854 C1849 1.363 . S
C1854 C1853 1.415 . S
C1855 H1831 0.951 . S
C1855 C1856 1.366 . S
C1855 C1857 1.388 . S
C1856 C1855 1.366 . S
C1856 C1860 1.385 . S
C1857 H1832 0.951 . S
C1857 C1855 1.388 . S
C1857 C1858 1.366 . S
C1858 C1857 1.366 . S
C1858 C1859 1.414 . S
C1858 C1861 1.499 . S
C1859 H1833 0.950 . S
C1859 C1858 1.414 . S
C1859 C1860 1.374 . S
C1860 H1834 0.950 . S
C1860 C1856 1.385 . S
C1860 C1859 1.374 . S
C1861 C1858 1.499 . S
C1861 C1862 1.373 . S
C1861 C1863 1.389 . S
C1862 H1835 0.950 . S
C1862 C1848 1.377 . S
C1862 C1861 1.373 . S
C1863 C1847 1.377 . S
C1863 C1861 1.389 . S
C1863 C1864 1.524 . S
C1864 C1863 1.524 . S
C1864 C1865 1.397 . S
C1864 C1869 1.363 . S
C1865 H1836 0.950 . S
C1865 C1864 1.397 . S
C1865 C1866 1.334 . S
C1866 H1837 0.950 . S
C1866 C1865 1.334 . S
C1866 C1867 1.287 . S
C1867 C1866 1.287 . S
C1867 C1868 1.524 . S
C1867 H1870 0.999 . S
C1868 H1838 0.950 . S
C1868 C1867 1.524 . S
C1868 C1869 1.415 . S
C1869 H1839 0.950 . S
C1869 C1864 1.363 . S
C1869 C1868 1.415 . S
H1870 C1867 0.999 . S
H1871 C1852 0.913 . S
H1872 C1890 0.951 . S
H1873 C1892 0.951 . S
H1874 C1894 0.950 . S
H1875 C1895 0.950 . S
H1876 C1897 0.950 . S
H1877 C1900 0.950 . S
H1878 C1901 0.950 . S
H1879 C1903 0.950 . S
H1880 C1904 0.950 . S
H1881 C1905 0.951 . S
H1882 C1907 0.951 . S
H1883 C1909 0.950 . S
H1884 C1910 0.950 . S
H1885 C1912 0.950 . S
H1886 C1915 0.950 . S
H1887 C1916 0.950 . S
H1888 C1918 0.950 . S
H1889 C1919 0.950 . S
C1890 H1872 0.951 . S
C1890 C1891 1.366 . S
C1890 C1892 1.388 . S
C1891 C1890 1.366 . S
C1891 C1895 1.385 . S
C1892 H1873 0.951 . S
C1892 C1890 1.388 . S
C1892 C1893 1.366 . S
C1893 C1892 1.366 . S
C1893 C1894 1.414 . S
C1893 C1896 1.499 . S
C1894 H1874 0.950 . S
C1894 C1893 1.414 . S
C1894 C1895 1.374 . S
C1895 H1875 0.950 . S
C1895 C1891 1.385 . S
C1895 C1894 1.374 . S
C1896 C1893 1.499 . S
C1896 C1897 1.373 . S
C1896 C1898 1.389 . S
C1897 H1876 0.950 . S
C1897 C1896 1.373 . S
C1897 C1913 1.377 . S
C1898 C1896 1.389 . S
C1898 C1899 1.524 . S
C1898 C1912 1.377 . S
C1899 C1898 1.524 . S
C1899 C1900 1.397 . S
C1899 C1904 1.363 . S
C1900 H1877 0.950 . S
C1900 C1899 1.397 . S
C1900 C1901 1.334 . S
C1901 H1878 0.950 . S
C1901 C1900 1.334 . S
C1901 C1902 1.287 . S
C1902 C1901 1.287 . S
C1902 C1903 1.524 . S
C1902 H1921 0.913 . S
C1903 H1879 0.950 . S
C1903 C1902 1.524 . S
C1903 C1904 1.415 . S
C1904 H1880 0.950 . S
C1904 C1899 1.363 . S
C1904 C1903 1.415 . S
C1905 H1881 0.951 . S
C1905 C1906 1.366 . S
C1905 C1907 1.388 . S
C1906 C1905 1.366 . S
C1906 C1910 1.385 . S
C1907 H1882 0.951 . S
C1907 C1905 1.388 . S
C1907 C1908 1.366 . S
C1908 C1907 1.366 . S
C1908 C1909 1.414 . S
C1908 C1911 1.499 . S
C1909 H1883 0.950 . S
C1909 C1908 1.414 . S
C1909 C1910 1.374 . S
C1910 H1884 0.950 . S
C1910 C1906 1.385 . S
C1910 C1909 1.374 . S
C1911 C1908 1.499 . S
C1911 C1912 1.373 . S
C1911 C1913 1.389 . S
C1912 H1885 0.950 . S
C1912 C1898 1.377 . S
C1912 C1911 1.373 . S
C1913 C1897 1.377 . S
C1913 C1911 1.389 . S
C1913 C1914 1.524 . S
C1914 C1913 1.524 . S
C1914 C1915 1.397 . S
C1914 C1919 1.363 . S
C1915 H1886 0.950 . S
C1915 C1914 1.397 . S
C1915 C1916 1.334 . S
C1916 H1887 0.950 . S
C1916 C1915 1.334 . S
C1916 C1917 1.287 . S
C1917 C1916 1.287 . S
C1917 C1918 1.524 . S
C1917 H1920 0.999 . S
C1918 H1888 0.950 . S
C1918 C1917 1.524 . S
C1918 C1919 1.415 . S
C1919 H1889 0.950 . S
C1919 C1914 1.363 . S
C1919 C1918 1.415 . S
H1920 C1917 0.999 . S
H1921 C1902 0.913 . S
H1922 C1940 0.951 . S
H1923 C1942 0.951 . S
H1924 C1944 0.950 . S
H1925 C1945 0.950 . S
H1926 C1947 0.950 . S
H1927 C1950 0.950 . S
H1928 C1951 0.950 . S
H1929 C1953 0.950 . S
H1930 C1954 0.950 . S
H1931 C1955 0.951 . S
H1932 C1957 0.951 . S
H1933 C1959 0.950 . S
H1934 C1960 0.950 . S
H1935 C1962 0.950 . S
H1936 C1965 0.950 . S
H1937 C1966 0.950 . S
H1938 C1968 0.950 . S
H1939 C1969 0.950 . S
C1940 H1922 0.951 . S
C1940 C1941 1.366 . S
C1940 C1942 1.388 . S
C1941 C1940 1.366 . S
C1941 C1945 1.385 . S
C1942 H1923 0.951 . S
C1942 C1940 1.388 . S
C1942 C1943 1.366 . S
C1943 C1942 1.366 . S
C1943 C1944 1.414 . S
C1943 C1946 1.499 . S
C1944 H1924 0.950 . S
C1944 C1943 1.414 . S
C1944 C1945 1.374 . S
C1945 H1925 0.950 . S
C1945 C1941 1.385 . S
C1945 C1944 1.374 . S
C1946 C1943 1.499 . S
C1946 C1947 1.373 . S
C1946 C1948 1.389 . S
C1947 H1926 0.950 . S
C1947 C1946 1.373 . S
C1947 C1963 1.377 . S
C1948 C1946 1.389 . S
C1948 C1949 1.524 . S
C1948 C1962 1.377 . S
C1949 C1948 1.524 . S
C1949 C1950 1.397 . S
C1949 C1954 1.363 . S
C1950 H1927 0.950 . S
C1950 C1949 1.397 . S
C1950 C1951 1.334 . S
C1951 H1928 0.950 . S
C1951 C1950 1.334 . S
C1951 C1952 1.287 . S
C1952 C1951 1.287 . S
C1952 C1953 1.524 . S
C1952 H1971 0.913 . S
C1953 H1929 0.950 . S
C1953 C1952 1.524 . S
C1953 C1954 1.415 . S
C1954 H1930 0.950 . S
C1954 C1949 1.363 . S
C1954 C1953 1.415 . S
C1955 H1931 0.951 . S
C1955 C1956 1.366 . S
C1955 C1957 1.388 . S
C1956 C1955 1.366 . S
C1956 C1960 1.385 . S
C1957 H1932 0.951 . S
C1957 C1955 1.388 . S
C1957 C1958 1.366 . S
C1958 C1957 1.366 . S
C1958 C1959 1.414 . S
C1958 C1961 1.499 . S
C1959 H1933 0.950 . S
C1959 C1958 1.414 . S
C1959 C1960 1.374 . S
C1960 H1934 0.950 . S
C1960 C1956 1.385 . S
C1960 C1959 1.374 . S
C1961 C1958 1.499 . S
C1961 C1962 1.373 . S
C1961 C1963 1.389 . S
C1962 H1935 0.950 . S
C1962 C1948 1.377 . S
C1962 C1961 1.373 . S
C1963 C1947 1.377 . S
C1963 C1961 1.389 . S
C1963 C1964 1.524 . S
C1964 C1963 1.524 . S
C1964 C1965 1.397 . S
C1964 C1969 1.363 . S
C1965 H1936 0.950 . S
C1965 C1964 1.397 . S
C1965 C1966 1.334 . S
C1966 H1937 0.950 . S
C1966 C1965 1.334 . S
C1966 C1967 1.287 . S
C1967 C1966 1.287 . S
C1967 C1968 1.524 . S
C1967 H1970 0.999 . S
C1968 H1938 0.950 . S
C1968 C1967 1.524 . S
C1968 C1969 1.415 . S
C1969 H1939 0.950 . S
C1969 C1964 1.363 . S
C1969 C1968 1.415 . S
H1970 C1967 0.999 . S
H1971 C1952 0.913 . S
H1972 C1990 0.951 . S
H1973 C1992 0.951 . S
H1974 C1994 0.950 . S
H1975 C1995 0.950 . S
H1976 C1997 0.950 . S
H1977 C2000 0.950 . S
H1978 C2001 0.950 . S
H1979 C2003 0.950 . S
H1980 C2004 0.950 . S
H1981 C2005 0.951 . S
H1982 C2007 0.951 . S
H1983 C2009 0.950 . S
H1984 C2010 0.950 . S
H1985 C2012 0.950 . S
H1986 C2015 0.950 . S
H1987 C2016 0.950 . S
H1988 C2018 0.950 . S
H1989 C2019 0.950 . S
C1990 H1972 0.951 . S
C1990 C1991 1.366 . S
C1990 C1992 1.388 . S
C1991 C1990 1.366 . S
C1991 C1995 1.385 . S
C1992 H1973 0.951 . S
C1992 C1990 1.388 . S
C1992 C1993 1.366 . S
C1993 C1992 1.366 . S
C1993 C1994 1.414 . S
C1993 C1996 1.499 . S
C1994 H1974 0.950 . S
C1994 C1993 1.414 . S
C1994 C1995 1.374 . S
C1995 H1975 0.950 . S
C1995 C1991 1.385 . S
C1995 C1994 1.374 . S
C1996 C1993 1.499 . S
C1996 C1997 1.373 . S
C1996 C1998 1.389 . S
C1997 H1976 0.950 . S
C1997 C1996 1.373 . S
C1997 C2013 1.377 . S
C1998 C1996 1.389 . S
C1998 C1999 1.524 . S
C1998 C2012 1.377 . S
C1999 C1998 1.524 . S
C1999 C2000 1.397 . S
C1999 C2004 1.363 . S
C2000 H1977 0.950 . S
C2000 C1999 1.397 . S
C2000 C2001 1.334 . S
C2001 H1978 0.950 . S
C2001 C2000 1.334 . S
C2001 C2002 1.287 . S
C2002 C2001 1.287 . S
C2002 C2003 1.524 . S
C2002 H2021 0.913 . S
C2003 H1979 0.950 . S
C2003 C2002 1.524 . S
C2003 C2004 1.415 . S
C2004 H1980 0.950 . S
C2004 C1999 1.363 . S
C2004 C2003 1.415 . S
C2005 H1981 0.951 . S
C2005 C2006 1.366 . S
C2005 C2007 1.388 . S
C2006 C2005 1.366 . S
C2006 C2010 1.385 . S
C2007 H1982 0.951 . S
C2007 C2005 1.388 . S
C2007 C2008 1.366 . S
C2008 C2007 1.366 . S
C2008 C2009 1.414 . S
C2008 C2011 1.499 . S
C2009 H1983 0.950 . S
C2009 C2008 1.414 . S
C2009 C2010 1.374 . S
C2010 H1984 0.950 . S
C2010 C2006 1.385 . S
C2010 C2009 1.374 . S
C2011 C2008 1.499 . S
C2011 C2012 1.373 . S
C2011 C2013 1.389 . S
C2012 H1985 0.950 . S
C2012 C1998 1.377 . S
C2012 C2011 1.373 . S
C2013 C1997 1.377 . S
C2013 C2011 1.389 . S
C2013 C2014 1.524 . S
C2014 C2013 1.524 . S
C2014 C2015 1.397 . S
C2014 C2019 1.363 . S
C2015 H1986 0.950 . S
C2015 C2014 1.397 . S
C2015 C2016 1.334 . S
C2016 H1987 0.950 . S
C2016 C2015 1.334 . S
C2016 C2017 1.287 . S
C2017 C2016 1.287 . S
C2017 C2018 1.524 . S
C2017 H2020 0.999 . S
C2018 H1988 0.950 . S
C2018 C2017 1.524 . S
C2018 C2019 1.415 . S
C2019 H1989 0.950 . S
C2019 C2014 1.363 . S
C2019 C2018 1.415 . S
H2020 C2017 0.999 . S
H2021 C2002 0.913 . S
H2022 C2040 0.951 . S
H2023 C2042 0.951 . S
H2024 C2044 0.950 . S
H2025 C2045 0.950 . S
H2026 C2047 0.950 . S
H2027 C2050 0.950 . S
H2028 C2051 0.950 . S
H2029 C2053 0.950 . S
H2030 C2054 0.950 . S
H2031 C2055 0.951 . S
H2032 C2057 0.951 . S
H2033 C2059 0.950 . S
H2034 C2060 0.950 . S
H2035 C2062 0.950 . S
H2036 C2065 0.950 . S
H2037 C2066 0.950 . S
H2038 C2068 0.950 . S
H2039 C2069 0.950 . S
C2040 H2022 0.951 . S
C2040 C2041 1.366 . S
C2040 C2042 1.388 . S
C2041 C2040 1.366 . S
C2041 C2045 1.385 . S
C2042 H2023 0.951 . S
C2042 C2040 1.388 . S
C2042 C2043 1.366 . S
C2043 C2042 1.366 . S
C2043 C2044 1.414 . S
C2043 C2046 1.499 . S
C2044 H2024 0.950 . S
C2044 C2043 1.414 . S
C2044 C2045 1.374 . S
C2045 H2025 0.950 . S
C2045 C2041 1.385 . S
C2045 C2044 1.374 . S
C2046 C2043 1.499 . S
C2046 C2047 1.373 . S
C2046 C2048 1.389 . S
C2047 H2026 0.950 . S
C2047 C2046 1.373 . S
C2047 C2063 1.377 . S
C2048 C2046 1.389 . S
C2048 C2049 1.524 . S
C2048 C2062 1.377 . S
C2049 C2048 1.524 . S
C2049 C2050 1.397 . S
C2049 C2054 1.363 . S
C2050 H2027 0.950 . S
C2050 C2049 1.397 . S
C2050 C2051 1.334 . S
C2051 H2028 0.950 . S
C2051 C2050 1.334 . S
C2051 C2052 1.287 . S
C2052 C2051 1.287 . S
C2052 C2053 1.524 . S
C2052 H2071 0.913 . S
C2053 H2029 0.950 . S
C2053 C2052 1.524 . S
C2053 C2054 1.415 . S
C2054 H2030 0.950 . S
C2054 C2049 1.363 . S
C2054 C2053 1.415 . S
C2055 H2031 0.951 . S
C2055 C2056 1.366 . S
C2055 C2057 1.388 . S
C2056 C2055 1.366 . S
C2056 C2060 1.385 . S
C2057 H2032 0.951 . S
C2057 C2055 1.388 . S
C2057 C2058 1.366 . S
C2058 C2057 1.366 . S
C2058 C2059 1.414 . S
C2058 C2061 1.499 . S
C2059 H2033 0.950 . S
C2059 C2058 1.414 . S
C2059 C2060 1.374 . S
C2060 H2034 0.950 . S
C2060 C2056 1.385 . S
C2060 C2059 1.374 . S
C2061 C2058 1.499 . S
C2061 C2062 1.373 . S
C2061 C2063 1.389 . S
C2062 H2035 0.950 . S
C2062 C2048 1.377 . S
C2062 C2061 1.373 . S
C2063 C2047 1.377 . S
C2063 C2061 1.389 . S
C2063 C2064 1.524 . S
C2064 C2063 1.524 . S
C2064 C2065 1.397 . S
C2064 C2069 1.363 . S
C2065 H2036 0.950 . S
C2065 C2064 1.397 . S
C2065 C2066 1.334 . S
C2066 H2037 0.950 . S
C2066 C2065 1.334 . S
C2066 C2067 1.287 . S
C2067 C2066 1.287 . S
C2067 C2068 1.524 . S
C2067 H2070 0.999 . S
C2068 H2038 0.950 . S
C2068 C2067 1.524 . S
C2068 C2069 1.415 . S
C2069 H2039 0.950 . S
C2069 C2064 1.363 . S
C2069 C2068 1.415 . S
H2070 C2067 0.999 . S
H2071 C2052 0.913 . S
H2072 C2090 0.951 . S
H2073 C2092 0.951 . S
H2074 C2094 0.950 . S
H2075 C2095 0.950 . S
H2076 C2097 0.950 . S
H2077 C2100 0.950 . S
H2078 C2101 0.950 . S
H2079 C2103 0.950 . S
H2080 C2104 0.950 . S
H2081 C2105 0.951 . S
H2082 C2107 0.951 . S
H2083 C2109 0.950 . S
H2084 C2110 0.950 . S
H2085 C2112 0.950 . S
H2086 C2115 0.950 . S
H2087 C2116 0.950 . S
H2088 C2118 0.950 . S
H2089 C2119 0.950 . S
C2090 H2072 0.951 . S
C2090 C2091 1.366 . S
C2090 C2092 1.388 . S
C2091 C2090 1.366 . S
C2091 C2095 1.385 . S
C2092 H2073 0.951 . S
C2092 C2090 1.388 . S
C2092 C2093 1.366 . S
C2093 C2092 1.366 . S
C2093 C2094 1.414 . S
C2093 C2096 1.499 . S
C2094 H2074 0.950 . S
C2094 C2093 1.414 . S
C2094 C2095 1.374 . S
C2095 H2075 0.950 . S
C2095 C2091 1.385 . S
C2095 C2094 1.374 . S
C2096 C2093 1.499 . S
C2096 C2097 1.373 . S
C2096 C2098 1.389 . S
C2097 H2076 0.950 . S
C2097 C2096 1.373 . S
C2097 C2113 1.377 . S
C2098 C2096 1.389 . S
C2098 C2099 1.524 . S
C2098 C2112 1.377 . S
C2099 C2098 1.524 . S
C2099 C2100 1.397 . S
C2099 C2104 1.363 . S
C2100 H2077 0.950 . S
C2100 C2099 1.397 . S
C2100 C2101 1.334 . S
C2101 H2078 0.950 . S
C2101 C2100 1.334 . S
C2101 C2102 1.287 . S
C2102 C2101 1.287 . S
C2102 C2103 1.524 . S
C2102 H2121 0.913 . S
C2103 H2079 0.950 . S
C2103 C2102 1.524 . S
C2103 C2104 1.415 . S
C2104 H2080 0.950 . S
C2104 C2099 1.363 . S
C2104 C2103 1.415 . S
C2105 H2081 0.951 . S
C2105 C2106 1.366 . S
C2105 C2107 1.388 . S
C2106 C2105 1.366 . S
C2106 C2110 1.385 . S
C2107 H2082 0.951 . S
C2107 C2105 1.388 . S
C2107 C2108 1.366 . S
C2108 C2107 1.366 . S
C2108 C2109 1.414 . S
C2108 C2111 1.499 . S
C2109 H2083 0.950 . S
C2109 C2108 1.414 . S
C2109 C2110 1.374 . S
C2110 H2084 0.950 . S
C2110 C2106 1.385 . S
C2110 C2109 1.374 . S
C2111 C2108 1.499 . S
C2111 C2112 1.373 . S
C2111 C2113 1.389 . S
C2112 H2085 0.950 . S
C2112 C2098 1.377 . S
C2112 C2111 1.373 . S
C2113 C2097 1.377 . S
C2113 C2111 1.389 . S
C2113 C2114 1.524 . S
C2114 C2113 1.524 . S
C2114 C2115 1.397 . S
C2114 C2119 1.363 . S
C2115 H2086 0.950 . S
C2115 C2114 1.397 . S
C2115 C2116 1.334 . S
C2116 H2087 0.950 . S
C2116 C2115 1.334 . S
C2116 C2117 1.287 . S
C2117 C2116 1.287 . S
C2117 C2118 1.524 . S
C2117 H2120 0.999 . S
C2118 H2088 0.950 . S
C2118 C2117 1.524 . S
C2118 C2119 1.415 . S
C2119 H2089 0.950 . S
C2119 C2114 1.363 . S
C2119 C2118 1.415 . S
H2120 C2117 0.999 . S
H2121 C2102 0.913 . S
H2122 C2140 0.951 . S
H2123 C2142 0.951 . S
H2124 C2144 0.950 . S
H2125 C2145 0.950 . S
H2126 C2147 0.950 . S
H2127 C2150 0.950 . S
H2128 C2151 0.950 . S
H2129 C2153 0.950 . S
H2130 C2154 0.950 . S
H2131 C2155 0.951 . S
H2132 C2157 0.951 . S
H2133 C2159 0.950 . S
H2134 C2160 0.950 . S
H2135 C2162 0.950 . S
H2136 C2165 0.950 . S
H2137 C2166 0.950 . S
H2138 C2168 0.950 . S
H2139 C2169 0.950 . S
C2140 H2122 0.951 . S
C2140 C2141 1.366 . S
C2140 C2142 1.388 . S
C2141 C2140 1.366 . S
C2141 C2145 1.385 . S
C2142 H2123 0.951 . S
C2142 C2140 1.388 . S
C2142 C2143 1.366 . S
C2143 C2142 1.366 . S
C2143 C2144 1.414 . S
C2143 C2146 1.499 . S
C2144 H2124 0.950 . S
C2144 C2143 1.414 . S
C2144 C2145 1.374 . S
C2145 H2125 0.950 . S
C2145 C2141 1.385 . S
C2145 C2144 1.374 . S
C2146 C2143 1.499 . S
C2146 C2147 1.373 . S
C2146 C2148 1.389 . S
C2147 H2126 0.950 . S
C2147 C2146 1.373 . S
C2147 C2163 1.377 . S
C2148 C2146 1.389 . S
C2148 C2149 1.524 . S
C2148 C2162 1.377 . S
C2149 C2148 1.524 . S
C2149 C2150 1.397 . S
C2149 C2154 1.363 . S
C2150 H2127 0.950 . S
C2150 C2149 1.397 . S
C2150 C2151 1.334 . S
C2151 H2128 0.950 . S
C2151 C2150 1.334 . S
C2151 C2152 1.287 . S
C2152 C2151 1.287 . S
C2152 C2153 1.524 . S
C2152 H2171 0.913 . S
C2153 H2129 0.950 . S
C2153 C2152 1.524 . S
C2153 C2154 1.415 . S
C2154 H2130 0.950 . S
C2154 C2149 1.363 . S
C2154 C2153 1.415 . S
C2155 H2131 0.951 . S
C2155 C2156 1.366 . S
C2155 C2157 1.388 . S
C2156 C2155 1.366 . S
C2156 C2160 1.385 . S
C2157 H2132 0.951 . S
C2157 C2155 1.388 . S
C2157 C2158 1.366 . S
C2158 C2157 1.366 . S
C2158 C2159 1.414 . S
C2158 C2161 1.499 . S
C2159 H2133 0.950 . S
C2159 C2158 1.414 . S
C2159 C2160 1.374 . S
C2160 H2134 0.950 . S
C2160 C2156 1.385 . S
C2160 C2159 1.374 . S
C2161 C2158 1.499 . S
C2161 C2162 1.373 . S
C2161 C2163 1.389 . S
C2162 H2135 0.950 . S
C2162 C2148 1.377 . S
C2162 C2161 1.373 . S
C2163 C2147 1.377 . S
C2163 C2161 1.389 . S
C2163 C2164 1.524 . S
C2164 C2163 1.524 . S
C2164 C2165 1.397 . S
C2164 C2169 1.363 . S
C2165 H2136 0.950 . S
C2165 C2164 1.397 . S
C2165 C2166 1.334 . S
C2166 H2137 0.950 . S
C2166 C2165 1.334 . S
C2166 C2167 1.287 . S
C2167 C2166 1.287 . S
C2167 C2168 1.524 . S
C2167 H2170 0.999 . S
C2168 H2138 0.950 . S
C2168 C2167 1.524 . S
C2168 C2169 1.415 . S
C2169 H2139 0.950 . S
C2169 C2164 1.363 . S
C2169 C2168 1.415 . S
H2170 C2167 0.999 . S
H2171 C2152 0.913 . S
H2172 C2190 0.951 . S
H2173 C2192 0.951 . S
H2174 C2194 0.950 . S
H2175 C2195 0.950 . S
H2176 C2197 0.950 . S
H2177 C2200 0.950 . S
H2178 C2201 0.950 . S
H2179 C2203 0.950 . S
H2180 C2204 0.950 . S
H2181 C2205 0.951 . S
H2182 C2207 0.951 . S
H2183 C2209 0.950 . S
H2184 C2210 0.950 . S
H2185 C2212 0.950 . S
H2186 C2215 0.950 . S
H2187 C2216 0.950 . S
H2188 C2218 0.950 . S
H2189 C2219 0.950 . S
C2190 H2172 0.951 . S
C2190 C2191 1.366 . S
C2190 C2192 1.388 . S
C2191 C2190 1.366 . S
C2191 C2195 1.385 . S
C2192 H2173 0.951 . S
C2192 C2190 1.388 . S
C2192 C2193 1.366 . S
C2193 C2192 1.366 . S
C2193 C2194 1.414 . S
C2193 C2196 1.499 . S
C2194 H2174 0.950 . S
C2194 C2193 1.414 . S
C2194 C2195 1.374 . S
C2195 H2175 0.950 . S
C2195 C2191 1.385 . S
C2195 C2194 1.374 . S
C2196 C2193 1.499 . S
C2196 C2197 1.373 . S
C2196 C2198 1.389 . S
C2197 H2176 0.950 . S
C2197 C2196 1.373 . S
C2197 C2213 1.377 . S
C2198 C2196 1.389 . S
C2198 C2199 1.524 . S
C2198 C2212 1.377 . S
C2199 C2198 1.524 . S
C2199 C2200 1.397 . S
C2199 C2204 1.363 . S
C2200 H2177 0.950 . S
C2200 C2199 1.397 . S
C2200 C2201 1.334 . S
C2201 H2178 0.950 . S
C2201 C2200 1.334 . S
C2201 C2202 1.287 . S
C2202 C2201 1.287 . S
C2202 C2203 1.524 . S
C2202 H2221 0.913 . S
C2203 H2179 0.950 . S
C2203 C2202 1.524 . S
C2203 C2204 1.415 . S
C2204 H2180 0.950 . S
C2204 C2199 1.363 . S
C2204 C2203 1.415 . S
C2205 H2181 0.951 . S
C2205 C2206 1.366 . S
C2205 C2207 1.388 . S
C2206 C2205 1.366 . S
C2206 C2210 1.385 . S
C2207 H2182 0.951 . S
C2207 C2205 1.388 . S
C2207 C2208 1.366 . S
C2208 C2207 1.366 . S
C2208 C2209 1.414 . S
C2208 C2211 1.499 . S
C2209 H2183 0.950 . S
C2209 C2208 1.414 . S
C2209 C2210 1.374 . S
C2210 H2184 0.950 . S
C2210 C2206 1.385 . S
C2210 C2209 1.374 . S
C2211 C2208 1.499 . S
C2211 C2212 1.373 . S
C2211 C2213 1.389 . S
C2212 H2185 0.950 . S
C2212 C2198 1.377 . S
C2212 C2211 1.373 . S
C2213 C2197 1.377 . S
C2213 C2211 1.389 . S
C2213 C2214 1.524 . S
C2214 C2213 1.524 . S
C2214 C2215 1.397 . S
C2214 C2219 1.363 . S
C2215 H2186 0.950 . S
C2215 C2214 1.397 . S
C2215 C2216 1.334 . S
C2216 H2187 0.950 . S
C2216 C2215 1.334 . S
C2216 C2217 1.287 . S
C2217 C2216 1.287 . S
C2217 C2218 1.524 . S
C2217 H2220 0.999 . S
C2218 H2188 0.950 . S
C2218 C2217 1.524 . S
C2218 C2219 1.415 . S
C2219 H2189 0.950 . S
C2219 C2214 1.363 . S
C2219 C2218 1.415 . S
H2220 C2217 0.999 . S
H2221 C2202 0.913 . S
H2222 C2240 0.951 . S
H2223 C2242 0.951 . S
H2224 C2244 0.950 . S
H2225 C2245 0.950 . S
H2226 C2247 0.950 . S
H2227 C2250 0.950 . S
H2228 C2251 0.950 . S
H2229 C2253 0.950 . S
H2230 C2254 0.950 . S
H2231 C2255 0.951 . S
H2232 C2257 0.951 . S
H2233 C2259 0.950 . S
H2234 C2260 0.950 . S
H2235 C2262 0.950 . S
H2236 C2265 0.950 . S
H2237 C2266 0.950 . S
H2238 C2268 0.950 . S
H2239 C2269 0.950 . S
C2240 H2222 0.951 . S
C2240 C2241 1.366 . S
C2240 C2242 1.388 . S
C2241 C2240 1.366 . S
C2241 C2245 1.385 . S
C2242 H2223 0.951 . S
C2242 C2240 1.388 . S
C2242 C2243 1.366 . S
C2243 C2242 1.366 . S
C2243 C2244 1.414 . S
C2243 C2246 1.499 . S
C2244 H2224 0.950 . S
C2244 C2243 1.414 . S
C2244 C2245 1.374 . S
C2245 H2225 0.950 . S
C2245 C2241 1.385 . S
C2245 C2244 1.374 . S
C2246 C2243 1.499 . S
C2246 C2247 1.373 . S
C2246 C2248 1.389 . S
C2247 H2226 0.950 . S
C2247 C2246 1.373 . S
C2247 C2263 1.377 . S
C2248 C2246 1.389 . S
C2248 C2249 1.524 . S
C2248 C2262 1.377 . S
C2249 C2248 1.524 . S
C2249 C2250 1.397 . S
C2249 C2254 1.363 . S
C2250 H2227 0.950 . S
C2250 C2249 1.397 . S
C2250 C2251 1.334 . S
C2251 H2228 0.950 . S
C2251 C2250 1.334 . S
C2251 C2252 1.287 . S
C2252 C2251 1.287 . S
C2252 C2253 1.524 . S
C2252 H2271 0.913 . S
C2253 H2229 0.950 . S
C2253 C2252 1.524 . S
C2253 C2254 1.415 . S
C2254 H2230 0.950 . S
C2254 C2249 1.363 . S
C2254 C2253 1.415 . S
C2255 H2231 0.951 . S
C2255 C2256 1.366 . S
C2255 C2257 1.388 . S
C2256 C2255 1.366 . S
C2256 C2260 1.385 . S
C2257 H2232 0.951 . S
C2257 C2255 1.388 . S
C2257 C2258 1.366 . S
C2258 C2257 1.366 . S
C2258 C2259 1.414 . S
C2258 C2261 1.499 . S
C2259 H2233 0.950 . S
C2259 C2258 1.414 . S
C2259 C2260 1.374 . S
C2260 H2234 0.950 . S
C2260 C2256 1.385 . S
C2260 C2259 1.374 . S
C2261 C2258 1.499 . S
C2261 C2262 1.373 . S
C2261 C2263 1.389 . S
C2262 H2235 0.950 . S
C2262 C2248 1.377 . S
C2262 C2261 1.373 . S
C2263 C2247 1.377 . S
C2263 C2261 1.389 . S
C2263 C2264 1.524 . S
C2264 C2263 1.524 . S
C2264 C2265 1.397 . S
C2264 C2269 1.363 . S
C2265 H2236 0.950 . S
C2265 C2264 1.397 . S
C2265 C2266 1.334 . S
C2266 H2237 0.950 . S
C2266 C2265 1.334 . S
C2266 C2267 1.287 . S
C2267 C2266 1.287 . S
C2267 C2268 1.524 . S
C2267 H2270 0.999 . S
C2268 H2238 0.950 . S
C2268 C2267 1.524 . S
C2268 C2269 1.415 . S
C2269 H2239 0.950 . S
C2269 C2264 1.363 . S
C2269 C2268 1.415 . S
H2270 C2267 0.999 . S
H2271 C2252 0.913 . S
H2272 C2290 0.951 . S
H2273 C2292 0.951 . S
H2274 C2294 0.950 . S
H2275 C2295 0.950 . S
H2276 C2297 0.950 . S
H2277 C2300 0.950 . S
H2278 C2301 0.950 . S
H2279 C2303 0.950 . S
H2280 C2304 0.950 . S
H2281 C2305 0.951 . S
H2282 C2307 0.951 . S
H2283 C2309 0.950 . S
H2284 C2310 0.950 . S
H2285 C2312 0.950 . S
H2286 C2315 0.950 . S
H2287 C2316 0.950 . S
H2288 C2318 0.950 . S
H2289 C2319 0.950 . S
C2290 H2272 0.951 . S
C2290 C2291 1.366 . S
C2290 C2292 1.388 . S
C2291 C2290 1.366 . S
C2291 C2295 1.385 . S
C2292 H2273 0.951 . S
C2292 C2290 1.388 . S
C2292 C2293 1.366 . S
C2293 C2292 1.366 . S
C2293 C2294 1.414 . S
C2293 C2296 1.499 . S
C2294 H2274 0.950 . S
C2294 C2293 1.414 . S
C2294 C2295 1.374 . S
C2295 H2275 0.950 . S
C2295 C2291 1.385 . S
C2295 C2294 1.374 . S
C2296 C2293 1.499 . S
C2296 C2297 1.373 . S
C2296 C2298 1.389 . S
C2297 H2276 0.950 . S
C2297 C2296 1.373 . S
C2297 C2313 1.377 . S
C2298 C2296 1.389 . S
C2298 C2299 1.524 . S
C2298 C2312 1.377 . S
C2299 C2298 1.524 . S
C2299 C2300 1.397 . S
C2299 C2304 1.363 . S
C2300 H2277 0.950 . S
C2300 C2299 1.397 . S
C2300 C2301 1.334 . S
C2301 H2278 0.950 . S
C2301 C2300 1.334 . S
C2301 C2302 1.287 . S
C2302 C2301 1.287 . S
C2302 C2303 1.524 . S
C2302 H2321 0.913 . S
C2303 H2279 0.950 . S
C2303 C2302 1.524 . S
C2303 C2304 1.415 . S
C2304 H2280 0.950 . S
C2304 C2299 1.363 . S
C2304 C2303 1.415 . S
C2305 H2281 0.951 . S
C2305 C2306 1.366 . S
C2305 C2307 1.388 . S
C2306 C2305 1.366 . S
C2306 C2310 1.385 . S
C2307 H2282 0.951 . S
C2307 C2305 1.388 . S
C2307 C2308 1.366 . S
C2308 C2307 1.366 . S
C2308 C2309 1.414 . S
C2308 C2311 1.499 . S
C2309 H2283 0.950 . S
C2309 C2308 1.414 . S
C2309 C2310 1.374 . S
C2310 H2284 0.950 . S
C2310 C2306 1.385 . S
C2310 C2309 1.374 . S
C2311 C2308 1.499 . S
C2311 C2312 1.373 . S
C2311 C2313 1.389 . S
C2312 H2285 0.950 . S
C2312 C2298 1.377 . S
C2312 C2311 1.373 . S
C2313 C2297 1.377 . S
C2313 C2311 1.389 . S
C2313 C2314 1.524 . S
C2314 C2313 1.524 . S
C2314 C2315 1.397 . S
C2314 C2319 1.363 . S
C2315 H2286 0.950 . S
C2315 C2314 1.397 . S
C2315 C2316 1.334 . S
C2316 H2287 0.950 . S
C2316 C2315 1.334 . S
C2316 C2317 1.287 . S
C2317 C2316 1.287 . S
C2317 C2318 1.524 . S
C2317 H2320 0.999 . S
C2318 H2288 0.950 . S
C2318 C2317 1.524 . S
C2318 C2319 1.415 . S
C2319 H2289 0.950 . S
C2319 C2314 1.363 . S
C2319 C2318 1.415 . S
H2320 C2317 0.999 . S
H2321 C2302 0.913 . S
H2322 C2340 0.951 . S
H2323 C2342 0.951 . S
H2324 C2344 0.950 . S
H2325 C2345 0.950 . S
H2326 C2347 0.950 . S
H2327 C2350 0.950 . S
H2328 C2351 0.950 . S
H2329 C2353 0.950 . S
H2330 C2354 0.950 . S
H2331 C2355 0.951 . S
H2332 C2357 0.951 . S
H2333 C2359 0.950 . S
H2334 C2360 0.950 . S
H2335 C2362 0.950 . S
H2336 C2365 0.950 . S
H2337 C2366 0.950 . S
H2338 C2368 0.950 . S
H2339 C2369 0.950 . S
C2340 H2322 0.951 . S
C2340 C2341 1.366 . S
C2340 C2342 1.388 . S
C2341 C2340 1.366 . S
C2341 C2345 1.385 . S
C2342 H2323 0.951 . S
C2342 C2340 1.388 . S
C2342 C2343 1.366 . S
C2343 C2342 1.366 . S
C2343 C2344 1.414 . S
C2343 C2346 1.499 . S
C2344 H2324 0.950 . S
C2344 C2343 1.414 . S
C2344 C2345 1.374 . S
C2345 H2325 0.950 . S
C2345 C2341 1.385 . S
C2345 C2344 1.374 . S
C2346 C2343 1.499 . S
C2346 C2347 1.373 . S
C2346 C2348 1.389 . S
C2347 H2326 0.950 . S
C2347 C2346 1.373 . S
C2347 C2363 1.377 . S
C2348 C2346 1.389 . S
C2348 C2349 1.524 . S
C2348 C2362 1.377 . S
C2349 C2348 1.524 . S
C2349 C2350 1.397 . S
C2349 C2354 1.363 . S
C2350 H2327 0.950 . S
C2350 C2349 1.397 . S
C2350 C2351 1.334 . S
C2351 H2328 0.950 . S
C2351 C2350 1.334 . S
C2351 C2352 1.287 . S
C2352 C2351 1.287 . S
C2352 C2353 1.524 . S
C2352 H2371 0.913 . S
C2353 H2329 0.950 . S
C2353 C2352 1.524 . S
C2353 C2354 1.415 . S
C2354 H2330 0.950 . S
C2354 C2349 1.363 . S
C2354 C2353 1.415 . S
C2355 H2331 0.951 . S
C2355 C2356 1.366 . S
C2355 C2357 1.388 . S
C2356 C2355 1.366 . S
C2356 C2360 1.385 . S
C2357 H2332 0.951 . S
C2357 C2355 1.388 . S
C2357 C2358 1.366 . S
C2358 C2357 1.366 . S
C2358 C2359 1.414 . S
C2358 C2361 1.499 . S
C2359 H2333 0.950 . S
C2359 C2358 1.414 . S
C2359 C2360 1.374 . S
C2360 H2334 0.950 . S
C2360 C2356 1.385 . S
C2360 C2359 1.374 . S
C2361 C2358 1.499 . S
C2361 C2362 1.373 . S
C2361 C2363 1.389 . S
C2362 H2335 0.950 . S
C2362 C2348 1.377 . S
C2362 C2361 1.373 . S
C2363 C2347 1.377 . S
C2363 C2361 1.389 . S
C2363 C2364 1.524 . S
C2364 C2363 1.524 . S
C2364 C2365 1.397 . S
C2364 C2369 1.363 . S
C2365 H2336 0.950 . S
C2365 C2364 1.397 . S
C2365 C2366 1.334 . S
C2366 H2337 0.950 . S
C2366 C2365 1.334 . S
C2366 C2367 1.287 . S
C2367 C2366 1.287 . S
C2367 C2368 1.524 . S
C2367 H2370 0.999 . S
C2368 H2338 0.950 . S
C2368 C2367 1.524 . S
C2368 C2369 1.415 . S
C2369 H2339 0.950 . S
C2369 C2364 1.363 . S
C2369 C2368 1.415 . S
H2370 C2367 0.999 . S
H2371 C2352 0.913 . S
H2372 C2390 0.951 . S
H2373 C2392 0.951 . S
H2374 C2394 0.950 . S
H2375 C2395 0.950 . S
H2376 C2397 0.950 . S
H2377 C2400 0.950 . S
H2378 C2401 0.950 . S
H2379 C2403 0.950 . S
H2380 C2404 0.950 . S
H2381 C2405 0.951 . S
H2382 C2407 0.951 . S
H2383 C2409 0.950 . S
H2384 C2410 0.950 . S
H2385 C2412 0.950 . S
H2386 C2415 0.950 . S
H2387 C2416 0.950 . S
H2388 C2418 0.950 . S
H2389 C2419 0.950 . S
C2390 H2372 0.951 . S
C2390 C2391 1.366 . S
C2390 C2392 1.388 . S
C2391 C2390 1.366 . S
C2391 C2395 1.385 . S
C2392 H2373 0.951 . S
C2392 C2390 1.388 . S
C2392 C2393 1.366 . S
C2393 C2392 1.366 . S
C2393 C2394 1.414 . S
C2393 C2396 1.499 . S
C2394 H2374 0.950 . S
C2394 C2393 1.414 . S
C2394 C2395 1.374 . S
C2395 H2375 0.950 . S
C2395 C2391 1.385 . S
C2395 C2394 1.374 . S
C2396 C2393 1.499 . S
C2396 C2397 1.373 . S
C2396 C2398 1.389 . S
C2397 H2376 0.950 . S
C2397 C2396 1.373 . S
C2397 C2413 1.377 . S
C2398 C2396 1.389 . S
C2398 C2399 1.524 . S
C2398 C2412 1.377 . S
C2399 C2398 1.524 . S
C2399 C2400 1.397 . S
C2399 C2404 1.363 . S
C2400 H2377 0.950 . S
C2400 C2399 1.397 . S
C2400 C2401 1.334 . S
C2401 H2378 0.950 . S
C2401 C2400 1.334 . S
C2401 C2402 1.287 . S
C2402 C2401 1.287 . S
C2402 C2403 1.524 . S
C2402 H2421 0.913 . S
C2403 H2379 0.950 . S
C2403 C2402 1.524 . S
C2403 C2404 1.415 . S
C2404 H2380 0.950 . S
C2404 C2399 1.363 . S
C2404 C2403 1.415 . S
C2405 H2381 0.951 . S
C2405 C2406 1.366 . S
C2405 C2407 1.388 . S
C2406 C2405 1.366 . S
C2406 C2410 1.385 . S
C2407 H2382 0.951 . S
C2407 C2405 1.388 . S
C2407 C2408 1.366 . S
C2408 C2407 1.366 . S
C2408 C2409 1.414 . S
C2408 C2411 1.499 . S
C2409 H2383 0.950 . S
C2409 C2408 1.414 . S
C2409 C2410 1.374 . S
C2410 H2384 0.950 . S
C2410 C2406 1.385 . S
C2410 C2409 1.374 . S
C2411 C2408 1.499 . S
C2411 C2412 1.373 . S
C2411 C2413 1.389 . S
C2412 H2385 0.950 . S
C2412 C2398 1.377 . S
C2412 C2411 1.373 . S
C2413 C2397 1.377 . S
C2413 C2411 1.389 . S
C2413 C2414 1.524 . S
C2414 C2413 1.524 . S
C2414 C2415 1.397 . S
C2414 C2419 1.363 . S
C2415 H2386 0.950 . S
C2415 C2414 1.397 . S
C2415 C2416 1.334 . S
C2416 H2387 0.950 . S
C2416 C2415 1.334 . S
C2416 C2417 1.287 . S
C2417 C2416 1.287 . S
C2417 C2418 1.524 . S
C2417 H2420 0.999 . S
C2418 H2388 0.950 . S
C2418 C2417 1.524 . S
C2418 C2419 1.415 . S
C2419 H2389 0.950 . S
C2419 C2414 1.363 . S
C2419 C2418 1.415 . S
H2420 C2417 0.999 . S
H2421 C2402 0.913 . S
H2422 C2440 0.951 . S
H2423 C2442 0.951 . S
H2424 C2444 0.950 . S
H2425 C2445 0.950 . S
H2426 C2447 0.950 . S
H2427 C2450 0.950 . S
H2428 C2451 0.950 . S
H2429 C2453 0.950 . S
H2430 C2454 0.950 . S
H2431 C2455 0.951 . S
H2432 C2457 0.951 . S
H2433 C2459 0.950 . S
H2434 C2460 0.950 . S
H2435 C2462 0.950 . S
H2436 C2465 0.950 . S
H2437 C2466 0.950 . S
H2438 C2468 0.950 . S
H2439 C2469 0.950 . S
C2440 H2422 0.951 . S
C2440 C2441 1.366 . S
C2440 C2442 1.388 . S
C2441 C2440 1.366 . S
C2441 C2445 1.385 . S
C2442 H2423 0.951 . S
C2442 C2440 1.388 . S
C2442 C2443 1.366 . S
C2443 C2442 1.366 . S
C2443 C2444 1.414 . S
C2443 C2446 1.499 . S
C2444 H2424 0.950 . S
C2444 C2443 1.414 . S
C2444 C2445 1.374 . S
C2445 H2425 0.950 . S
C2445 C2441 1.385 . S
C2445 C2444 1.374 . S
C2446 C2443 1.499 . S
C2446 C2447 1.373 . S
C2446 C2448 1.389 . S
C2447 H2426 0.950 . S
C2447 C2446 1.373 . S
C2447 C2463 1.377 . S
C2448 C2446 1.389 . S
C2448 C2449 1.524 . S
C2448 C2462 1.377 . S
C2449 C2448 1.524 . S
C2449 C2450 1.397 . S
C2449 C2454 1.363 . S
C2450 H2427 0.950 . S
C2450 C2449 1.397 . S
C2450 C2451 1.334 . S
C2451 H2428 0.950 . S
C2451 C2450 1.334 . S
C2451 C2452 1.287 . S
C2452 C2451 1.287 . S
C2452 C2453 1.524 . S
C2452 H2471 0.913 . S
C2453 H2429 0.950 . S
C2453 C2452 1.524 . S
C2453 C2454 1.415 . S
C2454 H2430 0.950 . S
C2454 C2449 1.363 . S
C2454 C2453 1.415 . S
C2455 H2431 0.951 . S
C2455 C2456 1.366 . S
C2455 C2457 1.388 . S
C2456 C2455 1.366 . S
C2456 C2460 1.385 . S
C2457 H2432 0.951 . S
C2457 C2455 1.388 . S
C2457 C2458 1.366 . S
C2458 C2457 1.366 . S
C2458 C2459 1.414 . S
C2458 C2461 1.499 . S
C2459 H2433 0.950 . S
C2459 C2458 1.414 . S
C2459 C2460 1.374 . S
C2460 H2434 0.950 . S
C2460 C2456 1.385 . S
C2460 C2459 1.374 . S
C2461 C2458 1.499 . S
C2461 C2462 1.373 . S
C2461 C2463 1.389 . S
C2462 H2435 0.950 . S
C2462 C2448 1.377 . S
C2462 C2461 1.373 . S
C2463 C2447 1.377 . S
C2463 C2461 1.389 . S
C2463 C2464 1.524 . S
C2464 C2463 1.524 . S
C2464 C2465 1.397 . S
C2464 C2469 1.363 . S
C2465 H2436 0.950 . S
C2465 C2464 1.397 . S
C2465 C2466 1.334 . S
C2466 H2437 0.950 . S
C2466 C2465 1.334 . S
C2466 C2467 1.287 . S
C2467 C2466 1.287 . S
C2467 C2468 1.524 . S
C2467 H2470 0.999 . S
C2468 H2438 0.950 . S
C2468 C2467 1.524 . S
C2468 C2469 1.415 . S
C2469 H2439 0.950 . S
C2469 C2464 1.363 . S
C2469 C2468 1.415 . S
H2470 C2467 0.999 . S
H2471 C2452 0.913 . S
H2472 C2490 0.951 . S
H2473 C2492 0.951 . S
H2474 C2494 0.950 . S
H2475 C2495 0.950 . S
H2476 C2497 0.950 . S
H2477 C2500 0.950 . S
H2478 C2501 0.950 . S
H2479 C2503 0.950 . S
H2480 C2504 0.950 . S
H2481 C2505 0.951 . S
H2482 C2507 0.951 . S
H2483 C2509 0.950 . S
H2484 C2510 0.950 . S
H2485 C2512 0.950 . S
H2486 C2515 0.950 . S
H2487 C2516 0.950 . S
H2488 C2518 0.950 . S
H2489 C2519 0.950 . S
C2490 H2472 0.951 . S
C2490 C2491 1.366 . S
C2490 C2492 1.388 . S
C2491 C2490 1.366 . S
C2491 C2495 1.385 . S
C2492 H2473 0.951 . S
C2492 C2490 1.388 . S
C2492 C2493 1.366 . S
C2493 C2492 1.366 . S
C2493 C2494 1.414 . S
C2493 C2496 1.499 . S
C2494 H2474 0.950 . S
C2494 C2493 1.414 . S
C2494 C2495 1.374 . S
C2495 H2475 0.950 . S
C2495 C2491 1.385 . S
C2495 C2494 1.374 . S
C2496 C2493 1.499 . S
C2496 C2497 1.373 . S
C2496 C2498 1.389 . S
C2497 H2476 0.950 . S
C2497 C2496 1.373 . S
C2497 C2513 1.377 . S
C2498 C2496 1.389 . S
C2498 C2499 1.524 . S
C2498 C2512 1.377 . S
C2499 C2498 1.524 . S
C2499 C2500 1.397 . S
C2499 C2504 1.363 . S
C2500 H2477 0.950 . S
C2500 C2499 1.397 . S
C2500 C2501 1.334 . S
C2501 H2478 0.950 . S
C2501 C2500 1.334 . S
C2501 C2502 1.287 . S
C2502 C2501 1.287 . S
C2502 C2503 1.524 . S
C2502 H2521 0.913 . S
C2503 H2479 0.950 . S
C2503 C2502 1.524 . S
C2503 C2504 1.415 . S
C2504 H2480 0.950 . S
C2504 C2499 1.363 . S
C2504 C2503 1.415 . S
C2505 H2481 0.951 . S
C2505 C2506 1.366 . S
C2505 C2507 1.388 . S
C2506 C2505 1.366 . S
C2506 C2510 1.385 . S
C2507 H2482 0.951 . S
C2507 C2505 1.388 . S
C2507 C2508 1.366 . S
C2508 C2507 1.366 . S
C2508 C2509 1.414 . S
C2508 C2511 1.499 . S
C2509 H2483 0.950 . S
C2509 C2508 1.414 . S
C2509 C2510 1.374 . S
C2510 H2484 0.950 . S
C2510 C2506 1.385 . S
C2510 C2509 1.374 . S
C2511 C2508 1.499 . S
C2511 C2512 1.373 . S
C2511 C2513 1.389 . S
C2512 H2485 0.950 . S
C2512 C2498 1.377 . S
C2512 C2511 1.373 . S
C2513 C2497 1.377 . S
C2513 C2511 1.389 . S
C2513 C2514 1.524 . S
C2514 C2513 1.524 . S
C2514 C2515 1.397 . S
C2514 C2519 1.363 . S
C2515 H2486 0.950 . S
C2515 C2514 1.397 . S
C2515 C2516 1.334 . S
C2516 H2487 0.950 . S
C2516 C2515 1.334 . S
C2516 C2517 1.287 . S
C2517 C2516 1.287 . S
C2517 C2518 1.524 . S
C2517 H2520 0.999 . S
C2518 H2488 0.950 . S
C2518 C2517 1.524 . S
C2518 C2519 1.415 . S
C2519 H2489 0.950 . S
C2519 C2514 1.363 . S
C2519 C2518 1.415 . S
H2520 C2517 0.999 . S
H2521 C2502 0.913 . S
H2522 C2540 0.951 . S
H2523 C2542 0.951 . S
H2524 C2544 0.950 . S
H2525 C2545 0.950 . S
H2526 C2547 0.950 . S
H2527 C2550 0.950 . S
H2528 C2551 0.950 . S
H2529 C2553 0.950 . S
H2530 C2554 0.950 . S
H2531 C2555 0.951 . S
H2532 C2557 0.951 . S
H2533 C2559 0.950 . S
H2534 C2560 0.950 . S
H2535 C2562 0.950 . S
H2536 C2565 0.950 . S
H2537 C2566 0.950 . S
H2538 C2568 0.950 . S
H2539 C2569 0.950 . S
C2540 H2522 0.951 . S
C2540 C2541 1.366 . S
C2540 C2542 1.388 . S
C2541 C2540 1.366 . S
C2541 C2545 1.385 . S
C2542 H2523 0.951 . S
C2542 C2540 1.388 . S
C2542 C2543 1.366 . S
C2543 C2542 1.366 . S
C2543 C2544 1.414 . S
C2543 C2546 1.499 . S
C2544 H2524 0.950 . S
C2544 C2543 1.414 . S
C2544 C2545 1.374 . S
C2545 H2525 0.950 . S
C2545 C2541 1.385 . S
C2545 C2544 1.374 . S
C2546 C2543 1.499 . S
C2546 C2547 1.373 . S
C2546 C2548 1.389 . S
C2547 H2526 0.950 . S
C2547 C2546 1.373 . S
C2547 C2563 1.377 . S
C2548 C2546 1.389 . S
C2548 C2549 1.524 . S
C2548 C2562 1.377 . S
C2549 C2548 1.524 . S
C2549 C2550 1.397 . S
C2549 C2554 1.363 . S
C2550 H2527 0.950 . S
C2550 C2549 1.397 . S
C2550 C2551 1.334 . S
C2551 H2528 0.950 . S
C2551 C2550 1.334 . S
C2551 C2552 1.287 . S
C2552 C2551 1.287 . S
C2552 C2553 1.524 . S
C2552 H2571 0.913 . S
C2553 H2529 0.950 . S
C2553 C2552 1.524 . S
C2553 C2554 1.415 . S
C2554 H2530 0.950 . S
C2554 C2549 1.363 . S
C2554 C2553 1.415 . S
C2555 H2531 0.951 . S
C2555 C2556 1.366 . S
C2555 C2557 1.388 . S
C2556 C2555 1.366 . S
C2556 C2560 1.385 . S
C2557 H2532 0.951 . S
C2557 C2555 1.388 . S
C2557 C2558 1.366 . S
C2558 C2557 1.366 . S
C2558 C2559 1.414 . S
C2558 C2561 1.499 . S
C2559 H2533 0.950 . S
C2559 C2558 1.414 . S
C2559 C2560 1.374 . S
C2560 H2534 0.950 . S
C2560 C2556 1.385 . S
C2560 C2559 1.374 . S
C2561 C2558 1.499 . S
C2561 C2562 1.373 . S
C2561 C2563 1.389 . S
C2562 H2535 0.950 . S
C2562 C2548 1.377 . S
C2562 C2561 1.373 . S
C2563 C2547 1.377 . S
C2563 C2561 1.389 . S
C2563 C2564 1.524 . S
C2564 C2563 1.524 . S
C2564 C2565 1.397 . S
C2564 C2569 1.363 . S
C2565 H2536 0.950 . S
C2565 C2564 1.397 . S
C2565 C2566 1.334 . S
C2566 H2537 0.950 . S
C2566 C2565 1.334 . S
C2566 C2567 1.287 . S
C2567 C2566 1.287 . S
C2567 C2568 1.524 . S
C2567 H2570 0.999 . S
C2568 H2538 0.950 . S
C2568 C2567 1.524 . S
C2568 C2569 1.415 . S
C2569 H2539 0.950 . S
C2569 C2564 1.363 . S
C2569 C2568 1.415 . S
H2570 C2567 0.999 . S
H2571 C2552 0.913 . S
H2572 C2590 0.951 . S
H2573 C2592 0.951 . S
H2574 C2594 0.950 . S
H2575 C2595 0.950 . S
H2576 C2597 0.950 . S
H2577 C2600 0.950 . S
H2578 C2601 0.950 . S
H2579 C2603 0.950 . S
H2580 C2604 0.950 . S
H2581 C2605 0.951 . S
H2582 C2607 0.951 . S
H2583 C2609 0.950 . S
H2584 C2610 0.950 . S
H2585 C2612 0.950 . S
H2586 C2615 0.950 . S
H2587 C2616 0.950 . S
H2588 C2618 0.950 . S
H2589 C2619 0.950 . S
C2590 H2572 0.951 . S
C2590 C2591 1.366 . S
C2590 C2592 1.388 . S
C2591 C2590 1.366 . S
C2591 C2595 1.385 . S
C2592 H2573 0.951 . S
C2592 C2590 1.388 . S
C2592 C2593 1.366 . S
C2593 C2592 1.366 . S
C2593 C2594 1.414 . S
C2593 C2596 1.499 . S
C2594 H2574 0.950 . S
C2594 C2593 1.414 . S
C2594 C2595 1.374 . S
C2595 H2575 0.950 . S
C2595 C2591 1.385 . S
C2595 C2594 1.374 . S
C2596 C2593 1.499 . S
C2596 C2597 1.373 . S
C2596 C2598 1.389 . S
C2597 H2576 0.950 . S
C2597 C2596 1.373 . S
C2597 C2613 1.377 . S
C2598 C2596 1.389 . S
C2598 C2599 1.524 . S
C2598 C2612 1.377 . S
C2599 C2598 1.524 . S
C2599 C2600 1.397 . S
C2599 C2604 1.363 . S
C2600 H2577 0.950 . S
C2600 C2599 1.397 . S
C2600 C2601 1.334 . S
C2601 H2578 0.950 . S
C2601 C2600 1.334 . S
C2601 C2602 1.287 . S
C2602 C2601 1.287 . S
C2602 C2603 1.524 . S
C2602 H2621 0.913 . S
C2603 H2579 0.950 . S
C2603 C2602 1.524 . S
C2603 C2604 1.415 . S
C2604 H2580 0.950 . S
C2604 C2599 1.363 . S
C2604 C2603 1.415 . S
C2605 H2581 0.951 . S
C2605 C2606 1.366 . S
C2605 C2607 1.388 . S
C2606 C2605 1.366 . S
C2606 C2610 1.385 . S
C2607 H2582 0.951 . S
C2607 C2605 1.388 . S
C2607 C2608 1.366 . S
C2608 C2607 1.366 . S
C2608 C2609 1.414 . S
C2608 C2611 1.499 . S
C2609 H2583 0.950 . S
C2609 C2608 1.414 . S
C2609 C2610 1.374 . S
C2610 H2584 0.950 . S
C2610 C2606 1.385 . S
C2610 C2609 1.374 . S
C2611 C2608 1.499 . S
C2611 C2612 1.373 . S
C2611 C2613 1.389 . S
C2612 H2585 0.950 . S
C2612 C2598 1.377 . S
C2612 C2611 1.373 . S
C2613 C2597 1.377 . S
C2613 C2611 1.389 . S
C2613 C2614 1.524 . S
C2614 C2613 1.524 . S
C2614 C2615 1.397 . S
C2614 C2619 1.363 . S
C2615 H2586 0.950 . S
C2615 C2614 1.397 . S
C2615 C2616 1.334 . S
C2616 H2587 0.950 . S
C2616 C2615 1.334 . S
C2616 C2617 1.287 . S
C2617 C2616 1.287 . S
C2617 C2618 1.524 . S
C2617 H2620 0.999 . S
C2618 H2588 0.950 . S
C2618 C2617 1.524 . S
C2618 C2619 1.415 . S
C2619 H2589 0.950 . S
C2619 C2614 1.363 . S
C2619 C2618 1.415 . S
H2620 C2617 0.999 . S
H2621 C2602 0.913 . S
H2622 C2640 0.951 . S
H2623 C2642 0.951 . S
H2624 C2644 0.950 . S
H2625 C2645 0.950 . S
H2626 C2647 0.950 . S
H2627 C2650 0.950 . S
H2628 C2651 0.950 . S
H2629 C2653 0.950 . S
H2630 C2654 0.950 . S
H2631 C2655 0.951 . S
H2632 C2657 0.951 . S
H2633 C2659 0.950 . S
H2634 C2660 0.950 . S
H2635 C2662 0.950 . S
H2636 C2665 0.950 . S
H2637 C2666 0.950 . S
H2638 C2668 0.950 . S
H2639 C2669 0.950 . S
C2640 H2622 0.951 . S
C2640 C2641 1.366 . S
C2640 C2642 1.388 . S
C2641 C2640 1.366 . S
C2641 C2645 1.385 . S
C2642 H2623 0.951 . S
C2642 C2640 1.388 . S
C2642 C2643 1.366 . S
C2643 C2642 1.366 . S
C2643 C2644 1.414 . S
C2643 C2646 1.499 . S
C2644 H2624 0.950 . S
C2644 C2643 1.414 . S
C2644 C2645 1.374 . S
C2645 H2625 0.950 . S
C2645 C2641 1.385 . S
C2645 C2644 1.374 . S
C2646 C2643 1.499 . S
C2646 C2647 1.373 . S
C2646 C2648 1.389 . S
C2647 H2626 0.950 . S
C2647 C2646 1.373 . S
C2647 C2663 1.377 . S
C2648 C2646 1.389 . S
C2648 C2649 1.524 . S
C2648 C2662 1.377 . S
C2649 C2648 1.524 . S
C2649 C2650 1.397 . S
C2649 C2654 1.363 . S
C2650 H2627 0.950 . S
C2650 C2649 1.397 . S
C2650 C2651 1.334 . S
C2651 H2628 0.950 . S
C2651 C2650 1.334 . S
C2651 C2652 1.287 . S
C2652 C2651 1.287 . S
C2652 C2653 1.524 . S
C2652 H2671 0.913 . S
C2653 H2629 0.950 . S
C2653 C2652 1.524 . S
C2653 C2654 1.415 . S
C2654 H2630 0.950 . S
C2654 C2649 1.363 . S
C2654 C2653 1.415 . S
C2655 H2631 0.951 . S
C2655 C2656 1.366 . S
C2655 C2657 1.388 . S
C2656 C2655 1.366 . S
C2656 C2660 1.385 . S
C2657 H2632 0.951 . S
C2657 C2655 1.388 . S
C2657 C2658 1.366 . S
C2658 C2657 1.366 . S
C2658 C2659 1.414 . S
C2658 C2661 1.499 . S
C2659 H2633 0.950 . S
C2659 C2658 1.414 . S
C2659 C2660 1.374 . S
C2660 H2634 0.950 . S
C2660 C2656 1.385 . S
C2660 C2659 1.374 . S
C2661 C2658 1.499 . S
C2661 C2662 1.373 . S
C2661 C2663 1.389 . S
C2662 H2635 0.950 . S
C2662 C2648 1.377 . S
C2662 C2661 1.373 . S
C2663 C2647 1.377 . S
C2663 C2661 1.389 . S
C2663 C2664 1.524 . S
C2664 C2663 1.524 . S
C2664 C2665 1.397 . S
C2664 C2669 1.363 . S
C2665 H2636 0.950 . S
C2665 C2664 1.397 . S
C2665 C2666 1.334 . S
C2666 H2637 0.950 . S
C2666 C2665 1.334 . S
C2666 C2667 1.287 . S
C2667 C2666 1.287 . S
C2667 C2668 1.524 . S
C2667 H2670 0.999 . S
C2668 H2638 0.950 . S
C2668 C2667 1.524 . S
C2668 C2669 1.415 . S
C2669 H2639 0.950 . S
C2669 C2664 1.363 . S
C2669 C2668 1.415 . S
H2670 C2667 0.999 . S
H2671 C2652 0.913 . S
H2672 C2690 0.951 . S
H2673 C2692 0.951 . S
H2674 C2694 0.950 . S
H2675 C2695 0.950 . S
H2676 C2697 0.950 . S
H2677 C2700 0.950 . S
H2678 C2701 0.950 . S
H2679 C2703 0.950 . S
H2680 C2704 0.950 . S
H2681 C2705 0.951 . S
H2682 C2707 0.951 . S
H2683 C2709 0.950 . S
H2684 C2710 0.950 . S
H2685 C2712 0.950 . S
H2686 C2715 0.950 . S
H2687 C2716 0.950 . S
H2688 C2718 0.950 . S
H2689 C2719 0.950 . S
C2690 H2672 0.951 . S
C2690 C2691 1.366 . S
C2690 C2692 1.388 . S
C2691 C2690 1.366 . S
C2691 C2695 1.385 . S
C2692 H2673 0.951 . S
C2692 C2690 1.388 . S
C2692 C2693 1.366 . S
C2693 C2692 1.366 . S
C2693 C2694 1.414 . S
C2693 C2696 1.499 . S
C2694 H2674 0.950 . S
C2694 C2693 1.414 . S
C2694 C2695 1.374 . S
C2695 H2675 0.950 . S
C2695 C2691 1.385 . S
C2695 C2694 1.374 . S
C2696 C2693 1.499 . S
C2696 C2697 1.373 . S
C2696 C2698 1.389 . S
C2697 H2676 0.950 . S
C2697 C2696 1.373 . S
C2697 C2713 1.377 . S
C2698 C2696 1.389 . S
C2698 C2699 1.524 . S
C2698 C2712 1.377 . S
C2699 C2698 1.524 . S
C2699 C2700 1.397 . S
C2699 C2704 1.363 . S
C2700 H2677 0.950 . S
C2700 C2699 1.397 . S
C2700 C2701 1.334 . S
C2701 H2678 0.950 . S
C2701 C2700 1.334 . S
C2701 C2702 1.287 . S
C2702 C2701 1.287 . S
C2702 C2703 1.524 . S
C2702 H2721 0.913 . S
C2703 H2679 0.950 . S
C2703 C2702 1.524 . S
C2703 C2704 1.415 . S
C2704 H2680 0.950 . S
C2704 C2699 1.363 . S
C2704 C2703 1.415 . S
C2705 H2681 0.951 . S
C2705 C2706 1.366 . S
C2705 C2707 1.388 . S
C2706 C2705 1.366 . S
C2706 C2710 1.385 . S
C2707 H2682 0.951 . S
C2707 C2705 1.388 . S
C2707 C2708 1.366 . S
C2708 C2707 1.366 . S
C2708 C2709 1.414 . S
C2708 C2711 1.499 . S
C2709 H2683 0.950 . S
C2709 C2708 1.414 . S
C2709 C2710 1.374 . S
C2710 H2684 0.950 . S
C2710 C2706 1.385 . S
C2710 C2709 1.374 . S
C2711 C2708 1.499 . S
C2711 C2712 1.373 . S
C2711 C2713 1.389 . S
C2712 H2685 0.950 . S
C2712 C2698 1.377 . S
C2712 C2711 1.373 . S
C2713 C2697 1.377 . S
C2713 C2711 1.389 . S
C2713 C2714 1.524 . S
C2714 C2713 1.524 . S
C2714 C2715 1.397 . S
C2714 C2719 1.363 . S
C2715 H2686 0.950 . S
C2715 C2714 1.397 . S
C2715 C2716 1.334 . S
C2716 H2687 0.950 . S
C2716 C2715 1.334 . S
C2716 C2717 1.287 . S
C2717 C2716 1.287 . S
C2717 C2718 1.524 . S
C2717 H2720 0.999 . S
C2718 H2688 0.950 . S
C2718 C2717 1.524 . S
C2718 C2719 1.415 . S
C2719 H2689 0.950 . S
C2719 C2714 1.363 . S
C2719 C2718 1.415 . S
H2720 C2717 0.999 . S
H2721 C2702 0.913 . S
H2722 C2740 0.951 . S
H2723 C2742 0.951 . S
H2724 C2744 0.950 . S
H2725 C2745 0.950 . S
H2726 C2747 0.950 . S
H2727 C2750 0.950 . S
H2728 C2751 0.950 . S
H2729 C2753 0.950 . S
H2730 C2754 0.950 . S
H2731 C2755 0.951 . S
H2732 C2757 0.951 . S
H2733 C2759 0.950 . S
H2734 C2760 0.950 . S
H2735 C2762 0.950 . S
H2736 C2765 0.950 . S
H2737 C2766 0.950 . S
H2738 C2768 0.950 . S
H2739 C2769 0.950 . S
C2740 H2722 0.951 . S
C2740 C2741 1.366 . S
C2740 C2742 1.388 . S
C2741 C2740 1.366 . S
C2741 C2745 1.385 . S
C2742 H2723 0.951 . S
C2742 C2740 1.388 . S
C2742 C2743 1.366 . S
C2743 C2742 1.366 . S
C2743 C2744 1.414 . S
C2743 C2746 1.499 . S
C2744 H2724 0.950 . S
C2744 C2743 1.414 . S
C2744 C2745 1.374 . S
C2745 H2725 0.950 . S
C2745 C2741 1.385 . S
C2745 C2744 1.374 . S
C2746 C2743 1.499 . S
C2746 C2747 1.373 . S
C2746 C2748 1.389 . S
C2747 H2726 0.950 . S
C2747 C2746 1.373 . S
C2747 C2763 1.377 . S
C2748 C2746 1.389 . S
C2748 C2749 1.524 . S
C2748 C2762 1.377 . S
C2749 C2748 1.524 . S
C2749 C2750 1.397 . S
C2749 C2754 1.363 . S
C2750 H2727 0.950 . S
C2750 C2749 1.397 . S
C2750 C2751 1.334 . S
C2751 H2728 0.950 . S
C2751 C2750 1.334 . S
C2751 C2752 1.287 . S
C2752 C2751 1.287 . S
C2752 C2753 1.524 . S
C2752 H2771 0.913 . S
C2753 H2729 0.950 . S
C2753 C2752 1.524 . S
C2753 C2754 1.415 . S
C2754 H2730 0.950 . S
C2754 C2749 1.363 . S
C2754 C2753 1.415 . S
C2755 H2731 0.951 . S
C2755 C2756 1.366 . S
C2755 C2757 1.388 . S
C2756 C2755 1.366 . S
C2756 C2760 1.385 . S
C2757 H2732 0.951 . S
C2757 C2755 1.388 . S
C2757 C2758 1.366 . S
C2758 C2757 1.366 . S
C2758 C2759 1.414 . S
C2758 C2761 1.499 . S
C2759 H2733 0.950 . S
C2759 C2758 1.414 . S
C2759 C2760 1.374 . S
C2760 H2734 0.950 . S
C2760 C2756 1.385 . S
C2760 C2759 1.374 . S
C2761 C2758 1.499 . S
C2761 C2762 1.373 . S
C2761 C2763 1.389 . S
C2762 H2735 0.950 . S
C2762 C2748 1.377 . S
C2762 C2761 1.373 . S
C2763 C2747 1.377 . S
C2763 C2761 1.389 . S
C2763 C2764 1.524 . S
C2764 C2763 1.524 . S
C2764 C2765 1.397 . S
C2764 C2769 1.363 . S
C2765 H2736 0.950 . S
C2765 C2764 1.397 . S
C2765 C2766 1.334 . S
C2766 H2737 0.950 . S
C2766 C2765 1.334 . S
C2766 C2767 1.287 . S
C2767 C2766 1.287 . S
C2767 C2768 1.524 . S
C2767 H2770 0.999 . S
C2768 H2738 0.950 . S
C2768 C2767 1.524 . S
C2768 C2769 1.415 . S
C2769 H2739 0.950 . S
C2769 C2764 1.363 . S
C2769 C2768 1.415 . S
H2770 C2767 0.999 . S
H2771 C2752 0.913 . S
H2772 C2790 0.951 . S
H2773 C2792 0.951 . S
H2774 C2794 0.950 . S
H2775 C2795 0.950 . S
H2776 C2797 0.950 . S
H2777 C2800 0.950 . S
H2778 C2801 0.950 . S
H2779 C2803 0.950 . S
H2780 C2804 0.950 . S
H2781 C2805 0.951 . S
H2782 C2807 0.951 . S
H2783 C2809 0.950 . S
H2784 C2810 0.950 . S
H2785 C2812 0.950 . S
H2786 C2815 0.950 . S
H2787 C2816 0.950 . S
H2788 C2818 0.950 . S
H2789 C2819 0.950 . S
C2790 H2772 0.951 . S
C2790 C2791 1.366 . S
C2790 C2792 1.388 . S
C2791 C2790 1.366 . S
C2791 C2795 1.385 . S
C2792 H2773 0.951 . S
C2792 C2790 1.388 . S
C2792 C2793 1.366 . S
C2793 C2792 1.366 . S
C2793 C2794 1.414 . S
C2793 C2796 1.499 . S
C2794 H2774 0.950 . S
C2794 C2793 1.414 . S
C2794 C2795 1.374 . S
C2795 H2775 0.950 . S
C2795 C2791 1.385 . S
C2795 C2794 1.374 . S
C2796 C2793 1.499 . S
C2796 C2797 1.373 . S
C2796 C2798 1.389 . S
C2797 H2776 0.950 . S
C2797 C2796 1.373 . S
C2797 C2813 1.377 . S
C2798 C2796 1.389 . S
C2798 C2799 1.524 . S
C2798 C2812 1.377 . S
C2799 C2798 1.524 . S
C2799 C2800 1.397 . S
C2799 C2804 1.363 . S
C2800 H2777 0.950 . S
C2800 C2799 1.397 . S
C2800 C2801 1.334 . S
C2801 H2778 0.950 . S
C2801 C2800 1.334 . S
C2801 C2802 1.287 . S
C2802 C2801 1.287 . S
C2802 C2803 1.524 . S
C2802 H2821 0.913 . S
C2803 H2779 0.950 . S
C2803 C2802 1.524 . S
C2803 C2804 1.415 . S
C2804 H2780 0.950 . S
C2804 C2799 1.363 . S
C2804 C2803 1.415 . S
C2805 H2781 0.951 . S
C2805 C2806 1.366 . S
C2805 C2807 1.388 . S
C2806 C2805 1.366 . S
C2806 C2810 1.385 . S
C2807 H2782 0.951 . S
C2807 C2805 1.388 . S
C2807 C2808 1.366 . S
C2808 C2807 1.366 . S
C2808 C2809 1.414 . S
C2808 C2811 1.499 . S
C2809 H2783 0.950 . S
C2809 C2808 1.414 . S
C2809 C2810 1.374 . S
C2810 H2784 0.950 . S
C2810 C2806 1.385 . S
C2810 C2809 1.374 . S
C2811 C2808 1.499 . S
C2811 C2812 1.373 . S
C2811 C2813 1.389 . S
C2812 H2785 0.950 . S
C2812 C2798 1.377 . S
C2812 C2811 1.373 . S
C2813 C2797 1.377 . S
C2813 C2811 1.389 . S
C2813 C2814 1.524 . S
C2814 C2813 1.524 . S
C2814 C2815 1.397 . S
C2814 C2819 1.363 . S
C2815 H2786 0.950 . S
C2815 C2814 1.397 . S
C2815 C2816 1.334 . S
C2816 H2787 0.950 . S
C2816 C2815 1.334 . S
C2816 C2817 1.287 . S
C2817 C2816 1.287 . S
C2817 C2818 1.524 . S
C2817 H2820 0.999 . S
C2818 H2788 0.950 . S
C2818 C2817 1.524 . S
C2818 C2819 1.415 . S
C2819 H2789 0.950 . S
C2819 C2814 1.363 . S
C2819 C2818 1.415 . S
H2820 C2817 0.999 . S
H2821 C2802 0.913 . S
H2822 C2840 0.951 . S
H2823 C2842 0.951 . S
H2824 C2844 0.950 . S
H2825 C2845 0.950 . S
H2826 C2847 0.950 . S
H2827 C2850 0.950 . S
H2828 C2851 0.950 . S
H2829 C2853 0.950 . S
H2830 C2854 0.950 . S
H2831 C2855 0.951 . S
H2832 C2857 0.951 . S
H2833 C2859 0.950 . S
H2834 C2860 0.950 . S
H2835 C2862 0.950 . S
H2836 C2865 0.950 . S
H2837 C2866 0.950 . S
H2838 C2868 0.950 . S
H2839 C2869 0.950 . S
C2840 H2822 0.951 . S
C2840 C2841 1.366 . S
C2840 C2842 1.388 . S
C2841 C2840 1.366 . S
C2841 C2845 1.385 . S
C2842 H2823 0.951 . S
C2842 C2840 1.388 . S
C2842 C2843 1.366 . S
C2843 C2842 1.366 . S
C2843 C2844 1.414 . S
C2843 C2846 1.499 . S
C2844 H2824 0.950 . S
C2844 C2843 1.414 . S
C2844 C2845 1.374 . S
C2845 H2825 0.950 . S
C2845 C2841 1.385 . S
C2845 C2844 1.374 . S
C2846 C2843 1.499 . S
C2846 C2847 1.373 . S
C2846 C2848 1.389 . S
C2847 H2826 0.950 . S
C2847 C2846 1.373 . S
C2847 C2863 1.377 . S
C2848 C2846 1.389 . S
C2848 C2849 1.524 . S
C2848 C2862 1.377 . S
C2849 C2848 1.524 . S
C2849 C2850 1.397 . S
C2849 C2854 1.363 . S
C2850 H2827 0.950 . S
C2850 C2849 1.397 . S
C2850 C2851 1.334 . S
C2851 H2828 0.950 . S
C2851 C2850 1.334 . S
C2851 C2852 1.287 . S
C2852 C2851 1.287 . S
C2852 C2853 1.524 . S
C2852 H2871 0.913 . S
C2853 H2829 0.950 . S
C2853 C2852 1.524 . S
C2853 C2854 1.415 . S
C2854 H2830 0.950 . S
C2854 C2849 1.363 . S
C2854 C2853 1.415 . S
C2855 H2831 0.951 . S
C2855 C2856 1.366 . S
C2855 C2857 1.388 . S
C2856 C2855 1.366 . S
C2856 C2860 1.385 . S
C2857 H2832 0.951 . S
C2857 C2855 1.388 . S
C2857 C2858 1.366 . S
C2858 C2857 1.366 . S
C2858 C2859 1.414 . S
C2858 C2861 1.499 . S
C2859 H2833 0.950 . S
C2859 C2858 1.414 . S
C2859 C2860 1.374 . S
C2860 H2834 0.950 . S
C2860 C2856 1.385 . S
C2860 C2859 1.374 . S
C2861 C2858 1.499 . S
C2861 C2862 1.373 . S
C2861 C2863 1.389 . S
C2862 H2835 0.950 . S
C2862 C2848 1.377 . S
C2862 C2861 1.373 . S
C2863 C2847 1.377 . S
C2863 C2861 1.389 . S
C2863 C2864 1.524 . S
C2864 C2863 1.524 . S
C2864 C2865 1.397 . S
C2864 C2869 1.363 . S
C2865 H2836 0.950 . S
C2865 C2864 1.397 . S
C2865 C2866 1.334 . S
C2866 H2837 0.950 . S
C2866 C2865 1.334 . S
C2866 C2867 1.287 . S
C2867 C2866 1.287 . S
C2867 C2868 1.524 . S
C2867 H2870 0.999 . S
C2868 H2838 0.950 . S
C2868 C2867 1.524 . S
C2868 C2869 1.415 . S
C2869 H2839 0.950 . S
C2869 C2864 1.363 . S
C2869 C2868 1.415 . S
H2870 C2867 0.999 . S
H2871 C2852 0.913 . S
H2872 C2890 0.951 . S
H2873 C2892 0.951 . S
H2874 C2894 0.950 . S
H2875 C2895 0.950 . S
H2876 C2897 0.950 . S
H2877 C2900 0.950 . S
H2878 C2901 0.950 . S
H2879 C2903 0.950 . S
H2880 C2904 0.950 . S
H2881 C2905 0.951 . S
H2882 C2907 0.951 . S
H2883 C2909 0.950 . S
H2884 C2910 0.950 . S
H2885 C2912 0.950 . S
H2886 C2915 0.950 . S
H2887 C2916 0.950 . S
H2888 C2918 0.950 . S
H2889 C2919 0.950 . S
C2890 H2872 0.951 . S
C2890 C2891 1.366 . S
C2890 C2892 1.388 . S
C2891 C2890 1.366 . S
C2891 C2895 1.385 . S
C2892 H2873 0.951 . S
C2892 C2890 1.388 . S
C2892 C2893 1.366 . S
C2893 C2892 1.366 . S
C2893 C2894 1.414 . S
C2893 C2896 1.499 . S
C2894 H2874 0.950 . S
C2894 C2893 1.414 . S
C2894 C2895 1.374 . S
C2895 H2875 0.950 . S
C2895 C2891 1.385 . S
C2895 C2894 1.374 . S
C2896 C2893 1.499 . S
C2896 C2897 1.373 . S
C2896 C2898 1.389 . S
C2897 H2876 0.950 . S
C2897 C2896 1.373 . S
C2897 C2913 1.377 . S
C2898 C2896 1.389 . S
C2898 C2899 1.524 . S
C2898 C2912 1.377 . S
C2899 C2898 1.524 . S
C2899 C2900 1.397 . S
C2899 C2904 1.363 . S
C2900 H2877 0.950 . S
C2900 C2899 1.397 . S
C2900 C2901 1.334 . S
C2901 H2878 0.950 . S
C2901 C2900 1.334 . S
C2901 C2902 1.287 . S
C2902 C2901 1.287 . S
C2902 C2903 1.524 . S
C2902 H2921 0.913 . S
C2903 H2879 0.950 . S
C2903 C2902 1.524 . S
C2903 C2904 1.415 . S
C2904 H2880 0.950 . S
C2904 C2899 1.363 . S
C2904 C2903 1.415 . S
C2905 H2881 0.951 . S
C2905 C2906 1.366 . S
C2905 C2907 1.388 . S
C2906 C2905 1.366 . S
C2906 C2910 1.385 . S
C2907 H2882 0.951 . S
C2907 C2905 1.388 . S
C2907 C2908 1.366 . S
C2908 C2907 1.366 . S
C2908 C2909 1.414 . S
C2908 C2911 1.499 . S
C2909 H2883 0.950 . S
C2909 C2908 1.414 . S
C2909 C2910 1.374 . S
C2910 H2884 0.950 . S
C2910 C2906 1.385 . S
C2910 C2909 1.374 . S
C2911 C2908 1.499 . S
C2911 C2912 1.373 . S
C2911 C2913 1.389 . S
C2912 H2885 0.950 . S
C2912 C2898 1.377 . S
C2912 C2911 1.373 . S
C2913 C2897 1.377 . S
C2913 C2911 1.389 . S
C2913 C2914 1.524 . S
C2914 C2913 1.524 . S
C2914 C2915 1.397 . S
C2914 C2919 1.363 . S
C2915 H2886 0.950 . S
C2915 C2914 1.397 . S
C2915 C2916 1.334 . S
C2916 H2887 0.950 . S
C2916 C2915 1.334 . S
C2916 C2917 1.287 . S
C2917 C2916 1.287 . S
C2917 C2918 1.524 . S
C2917 H2920 0.999 . S
C2918 H2888 0.950 . S
C2918 C2917 1.524 . S
C2918 C2919 1.415 . S
C2919 H2889 0.950 . S
C2919 C2914 1.363 . S
C2919 C2918 1.415 . S
H2920 C2917 0.999 . S
H2921 C2902 0.913 . S
H2922 C2940 0.951 . S
H2923 C2942 0.951 . S
H2924 C2944 0.950 . S
H2925 C2945 0.950 . S
H2926 C2947 0.950 . S
H2927 C2950 0.950 . S
H2928 C2951 0.950 . S
H2929 C2953 0.950 . S
H2930 C2954 0.950 . S
H2931 C2955 0.951 . S
H2932 C2957 0.951 . S
H2933 C2959 0.950 . S
H2934 C2960 0.950 . S
H2935 C2962 0.950 . S
H2936 C2965 0.950 . S
H2937 C2966 0.950 . S
H2938 C2968 0.950 . S
H2939 C2969 0.950 . S
C2940 H2922 0.951 . S
C2940 C2941 1.366 . S
C2940 C2942 1.388 . S
C2941 C2940 1.366 . S
C2941 C2945 1.385 . S
C2942 H2923 0.951 . S
C2942 C2940 1.388 . S
C2942 C2943 1.366 . S
C2943 C2942 1.366 . S
C2943 C2944 1.414 . S
C2943 C2946 1.499 . S
C2944 H2924 0.950 . S
C2944 C2943 1.414 . S
C2944 C2945 1.374 . S
C2945 H2925 0.950 . S
C2945 C2941 1.385 . S
C2945 C2944 1.374 . S
C2946 C2943 1.499 . S
C2946 C2947 1.373 . S
C2946 C2948 1.389 . S
C2947 H2926 0.950 . S
C2947 C2946 1.373 . S
C2947 C2963 1.377 . S
C2948 C2946 1.389 . S
C2948 C2949 1.524 . S
C2948 C2962 1.377 . S
C2949 C2948 1.524 . S
C2949 C2950 1.397 . S
C2949 C2954 1.363 . S
C2950 H2927 0.950 . S
C2950 C2949 1.397 . S
C2950 C2951 1.334 . S
C2951 H2928 0.950 . S
C2951 C2950 1.334 . S
C2951 C2952 1.287 . S
C2952 C2951 1.287 . S
C2952 C2953 1.524 . S
C2952 H2971 0.913 . S
C2953 H2929 0.950 . S
C2953 C2952 1.524 . S
C2953 C2954 1.415 . S
C2954 H2930 0.950 . S
C2954 C2949 1.363 . S
C2954 C2953 1.415 . S
C2955 H2931 0.951 . S
C2955 C2956 1.366 . S
C2955 C2957 1.388 . S
C2956 C2955 1.366 . S
C2956 C2960 1.385 . S
C2957 H2932 0.951 . S
C2957 C2955 1.388 . S
C2957 C2958 1.366 . S
C2958 C2957 1.366 . S
C2958 C2959 1.414 . S
C2958 C2961 1.499 . S
C2959 H2933 0.950 . S
C2959 C2958 1.414 . S
C2959 C2960 1.374 . S
C2960 H2934 0.950 . S
C2960 C2956 1.385 . S
C2960 C2959 1.374 . S
C2961 C2958 1.499 . S
C2961 C2962 1.373 . S
C2961 C2963 1.389 . S
C2962 H2935 0.950 . S
C2962 C2948 1.377 . S
C2962 C2961 1.373 . S
C2963 C2947 1.377 . S
C2963 C2961 1.389 . S
C2963 C2964 1.524 . S
C2964 C2963 1.524 . S
C2964 C2965 1.397 . S
C2964 C2969 1.363 . S
C2965 H2936 0.950 . S
C2965 C2964 1.397 . S
C2965 C2966 1.334 . S
C2966 H2937 0.950 . S
C2966 C2965 1.334 . S
C2966 C2967 1.287 . S
C2967 C2966 1.287 . S
C2967 C2968 1.524 . S
C2967 H2970 0.999 . S
C2968 H2938 0.950 . S
C2968 C2967 1.524 . S
C2968 C2969 1.415 . S
C2969 H2939 0.950 . S
C2969 C2964 1.363 . S
C2969 C2968 1.415 . S
H2970 C2967 0.999 . S
H2971 C2952 0.913 . S
H2972 C2990 0.951 . S
H2973 C2992 0.951 . S
H2974 C2994 0.950 . S
H2975 C2995 0.950 . S
H2976 C2997 0.950 . S
H2977 C3000 0.950 . S
H2978 C3001 0.950 . S
H2979 C3003 0.950 . S
H2980 C3004 0.950 . S
H2981 C3005 0.951 . S
H2982 C3007 0.951 . S
H2983 C3009 0.950 . S
H2984 C3010 0.950 . S
H2985 C3012 0.950 . S
H2986 C3015 0.950 . S
H2987 C3016 0.950 . S
H2988 C3018 0.950 . S
H2989 C3019 0.950 . S
C2990 H2972 0.951 . S
C2990 C2991 1.366 . S
C2990 C2992 1.388 . S
C2991 C2990 1.366 . S
C2991 C2995 1.385 . S
C2992 H2973 0.951 . S
C2992 C2990 1.388 . S
C2992 C2993 1.366 . S
C2993 C2992 1.366 . S
C2993 C2994 1.414 . S
C2993 C2996 1.499 . S
C2994 H2974 0.950 . S
C2994 C2993 1.414 . S
C2994 C2995 1.374 . S
C2995 H2975 0.950 . S
C2995 C2991 1.385 . S
C2995 C2994 1.374 . S
C2996 C2993 1.499 . S
C2996 C2997 1.373 . S
C2996 C2998 1.389 . S
C2997 H2976 0.950 . S
C2997 C2996 1.373 . S
C2997 C3013 1.377 . S
C2998 C2996 1.389 . S
C2998 C2999 1.524 . S
C2998 C3012 1.377 . S
C2999 C2998 1.524 . S
C2999 C3000 1.397 . S
C2999 C3004 1.363 . S
C3000 H2977 0.950 . S
C3000 C2999 1.397 . S
C3000 C3001 1.334 . S
C3001 H2978 0.950 . S
C3001 C3000 1.334 . S
C3001 C3002 1.287 . S
C3002 C3001 1.287 . S
C3002 C3003 1.524 . S
C3002 H3021 0.913 . S
C3003 H2979 0.950 . S
C3003 C3002 1.524 . S
C3003 C3004 1.415 . S
C3004 H2980 0.950 . S
C3004 C2999 1.363 . S
C3004 C3003 1.415 . S
C3005 H2981 0.951 . S
C3005 C3006 1.366 . S
C3005 C3007 1.388 . S
C3006 C3005 1.366 . S
C3006 C3010 1.385 . S
C3007 H2982 0.951 . S
C3007 C3005 1.388 . S
C3007 C3008 1.366 . S
C3008 C3007 1.366 . S
C3008 C3009 1.414 . S
C3008 C3011 1.499 . S
C3009 H2983 0.950 . S
C3009 C3008 1.414 . S
C3009 C3010 1.374 . S
C3010 H2984 0.950 . S
C3010 C3006 1.385 . S
C3010 C3009 1.374 . S
C3011 C3008 1.499 . S
C3011 C3012 1.373 . S
C3011 C3013 1.389 . S
C3012 H2985 0.950 . S
C3012 C2998 1.377 . S
C3012 C3011 1.373 . S
C3013 C2997 1.377 . S
C3013 C3011 1.389 . S
C3013 C3014 1.524 . S
C3014 C3013 1.524 . S
C3014 C3015 1.397 . S
C3014 C3019 1.363 . S
C3015 H2986 0.950 . S
C3015 C3014 1.397 . S
C3015 C3016 1.334 . S
C3016 H2987 0.950 . S
C3016 C3015 1.334 . S
C3016 C3017 1.287 . S
C3017 C3016 1.287 . S
C3017 C3018 1.524 . S
C3017 H3020 0.999 . S
C3018 H2988 0.950 . S
C3018 C3017 1.524 . S
C3018 C3019 1.415 . S
C3019 H2989 0.950 . S
C3019 C3014 1.363 . S
C3019 C3018 1.415 . S
H3020 C3017 0.999 . S
H3021 C3002 0.913 . S
H3022 C3040 0.951 . S
H3023 C3042 0.951 . S
H3024 C3044 0.950 . S
H3025 C3045 0.950 . S
H3026 C3047 0.950 . S
H3027 C3050 0.950 . S
H3028 C3051 0.950 . S
H3029 C3053 0.950 . S
H3030 C3054 0.950 . S
H3031 C3055 0.951 . S
H3032 C3057 0.951 . S
H3033 C3059 0.950 . S
H3034 C3060 0.950 . S
H3035 C3062 0.950 . S
H3036 C3065 0.950 . S
H3037 C3066 0.950 . S
H3038 C3068 0.950 . S
H3039 C3069 0.950 . S
C3040 H3022 0.951 . S
C3040 C3041 1.366 . S
C3040 C3042 1.388 . S
C3041 C3040 1.366 . S
C3041 C3045 1.385 . S
C3042 H3023 0.951 . S
C3042 C3040 1.388 . S
C3042 C3043 1.366 . S
C3043 C3042 1.366 . S
C3043 C3044 1.414 . S
C3043 C3046 1.499 . S
C3044 H3024 0.950 . S
C3044 C3043 1.414 . S
C3044 C3045 1.374 . S
C3045 H3025 0.950 . S
C3045 C3041 1.385 . S
C3045 C3044 1.374 . S
C3046 C3043 1.499 . S
C3046 C3047 1.373 . S
C3046 C3048 1.389 . S
C3047 H3026 0.950 . S
C3047 C3046 1.373 . S
C3047 C3063 1.377 . S
C3048 C3046 1.389 . S
C3048 C3049 1.524 . S
C3048 C3062 1.377 . S
C3049 C3048 1.524 . S
C3049 C3050 1.397 . S
C3049 C3054 1.363 . S
C3050 H3027 0.950 . S
C3050 C3049 1.397 . S
C3050 C3051 1.334 . S
C3051 H3028 0.950 . S
C3051 C3050 1.334 . S
C3051 C3052 1.287 . S
C3052 C3051 1.287 . S
C3052 C3053 1.524 . S
C3052 H3071 0.913 . S
C3053 H3029 0.950 . S
C3053 C3052 1.524 . S
C3053 C3054 1.415 . S
C3054 H3030 0.950 . S
C3054 C3049 1.363 . S
C3054 C3053 1.415 . S
C3055 H3031 0.951 . S
C3055 C3056 1.366 . S
C3055 C3057 1.388 . S
C3056 C3055 1.366 . S
C3056 C3060 1.385 . S
C3057 H3032 0.951 . S
C3057 C3055 1.388 . S
C3057 C3058 1.366 . S
C3058 C3057 1.366 . S
C3058 C3059 1.414 . S
C3058 C3061 1.499 . S
C3059 H3033 0.950 . S
C3059 C3058 1.414 . S
C3059 C3060 1.374 . S
C3060 H3034 0.950 . S
C3060 C3056 1.385 . S
C3060 C3059 1.374 . S
C3061 C3058 1.499 . S
C3061 C3062 1.373 . S
C3061 C3063 1.389 . S
C3062 H3035 0.950 . S
C3062 C3048 1.377 . S
C3062 C3061 1.373 . S
C3063 C3047 1.377 . S
C3063 C3061 1.389 . S
C3063 C3064 1.524 . S
C3064 C3063 1.524 . S
C3064 C3065 1.397 . S
C3064 C3069 1.363 . S
C3065 H3036 0.950 . S
C3065 C3064 1.397 . S
C3065 C3066 1.334 . S
C3066 H3037 0.950 . S
C3066 C3065 1.334 . S
C3066 C3067 1.287 . S
C3067 C3066 1.287 . S
C3067 C3068 1.524 . S
C3067 H3070 0.999 . S
C3068 H3038 0.950 . S
C3068 C3067 1.524 . S
C3068 C3069 1.415 . S
C3069 H3039 0.950 . S
C3069 C3064 1.363 . S
C3069 C3068 1.415 . S
H3070 C3067 0.999 . S
H3071 C3052 0.913 . S
H3072 C3090 0.951 . S
H3073 C3092 0.951 . S
H3074 C3094 0.950 . S
H3075 C3095 0.950 . S
H3076 C3097 0.950 . S
H3077 C3100 0.950 . S
H3078 C3101 0.950 . S
H3079 C3103 0.950 . S
H3080 C3104 0.950 . S
H3081 C3105 0.951 . S
H3082 C3107 0.951 . S
H3083 C3109 0.950 . S
H3084 C3110 0.950 . S
H3085 C3112 0.950 . S
H3086 C3115 0.950 . S
H3087 C3116 0.950 . S
H3088 C3118 0.950 . S
H3089 C3119 0.950 . S
C3090 H3072 0.951 . S
C3090 C3091 1.366 . S
C3090 C3092 1.388 . S
C3091 C3090 1.366 . S
C3091 C3095 1.385 . S
C3092 H3073 0.951 . S
C3092 C3090 1.388 . S
C3092 C3093 1.366 . S
C3093 C3092 1.366 . S
C3093 C3094 1.414 . S
C3093 C3096 1.499 . S
C3094 H3074 0.950 . S
C3094 C3093 1.414 . S
C3094 C3095 1.374 . S
C3095 H3075 0.950 . S
C3095 C3091 1.385 . S
C3095 C3094 1.374 . S
C3096 C3093 1.499 . S
C3096 C3097 1.373 . S
C3096 C3098 1.389 . S
C3097 H3076 0.950 . S
C3097 C3096 1.373 . S
C3097 C3113 1.377 . S
C3098 C3096 1.389 . S
C3098 C3099 1.524 . S
C3098 C3112 1.377 . S
C3099 C3098 1.524 . S
C3099 C3100 1.397 . S
C3099 C3104 1.363 . S
C3100 H3077 0.950 . S
C3100 C3099 1.397 . S
C3100 C3101 1.334 . S
C3101 H3078 0.950 . S
C3101 C3100 1.334 . S
C3101 C3102 1.287 . S
C3102 C3101 1.287 . S
C3102 C3103 1.524 . S
C3102 H3121 0.913 . S
C3103 H3079 0.950 . S
C3103 C3102 1.524 . S
C3103 C3104 1.415 . S
C3104 H3080 0.950 . S
C3104 C3099 1.363 . S
C3104 C3103 1.415 . S
C3105 H3081 0.951 . S
C3105 C3106 1.366 . S
C3105 C3107 1.388 . S
C3106 C3105 1.366 . S
C3106 C3110 1.385 . S
C3107 H3082 0.951 . S
C3107 C3105 1.388 . S
C3107 C3108 1.366 . S
C3108 C3107 1.366 . S
C3108 C3109 1.414 . S
C3108 C3111 1.499 . S
C3109 H3083 0.950 . S
C3109 C3108 1.414 . S
C3109 C3110 1.374 . S
C3110 H3084 0.950 . S
C3110 C3106 1.385 . S
C3110 C3109 1.374 . S
C3111 C3108 1.499 . S
C3111 C3112 1.373 . S
C3111 C3113 1.389 . S
C3112 H3085 0.950 . S
C3112 C3098 1.377 . S
C3112 C3111 1.373 . S
C3113 C3097 1.377 . S
C3113 C3111 1.389 . S
C3113 C3114 1.524 . S
C3114 C3113 1.524 . S
C3114 C3115 1.397 . S
C3114 C3119 1.363 . S
C3115 H3086 0.950 . S
C3115 C3114 1.397 . S
C3115 C3116 1.334 . S
C3116 H3087 0.950 . S
C3116 C3115 1.334 . S
C3116 C3117 1.287 . S
C3117 C3116 1.287 . S
C3117 C3118 1.524 . S
C3117 H3120 0.999 . S
C3118 H3088 0.950 . S
C3118 C3117 1.524 . S
C3118 C3119 1.415 . S
C3119 H3089 0.950 . S
C3119 C3114 1.363 . S
C3119 C3118 1.415 . S
H3120 C3117 0.999 . S
H3121 C3102 0.913 . S
H3122 C3140 0.951 . S
H3123 C3142 0.951 . S
H3124 C3144 0.950 . S
H3125 C3145 0.950 . S
H3126 C3147 0.950 . S
H3127 C3150 0.950 . S
H3128 C3151 0.950 . S
H3129 C3153 0.950 . S
H3130 C3154 0.950 . S
H3131 C3155 0.951 . S
H3132 C3157 0.951 . S
H3133 C3159 0.950 . S
H3134 C3160 0.950 . S
H3135 C3162 0.950 . S
H3136 C3165 0.950 . S
H3137 C3166 0.950 . S
H3138 C3168 0.950 . S
H3139 C3169 0.950 . S
C3140 H3122 0.951 . S
C3140 C3141 1.366 . S
C3140 C3142 1.388 . S
C3141 C3140 1.366 . S
C3141 C3145 1.385 . S
C3142 H3123 0.951 . S
C3142 C3140 1.388 . S
C3142 C3143 1.366 . S
C3143 C3142 1.366 . S
C3143 C3144 1.414 . S
C3143 C3146 1.499 . S
C3144 H3124 0.950 . S
C3144 C3143 1.414 . S
C3144 C3145 1.374 . S
C3145 H3125 0.950 . S
C3145 C3141 1.385 . S
C3145 C3144 1.374 . S
C3146 C3143 1.499 . S
C3146 C3147 1.373 . S
C3146 C3148 1.389 . S
C3147 H3126 0.950 . S
C3147 C3146 1.373 . S
C3147 C3163 1.377 . S
C3148 C3146 1.389 . S
C3148 C3149 1.524 . S
C3148 C3162 1.377 . S
C3149 C3148 1.524 . S
C3149 C3150 1.397 . S
C3149 C3154 1.363 . S
C3150 H3127 0.950 . S
C3150 C3149 1.397 . S
C3150 C3151 1.334 . S
C3151 H3128 0.950 . S
C3151 C3150 1.334 . S
C3151 C3152 1.287 . S
C3152 C3151 1.287 . S
C3152 C3153 1.524 . S
C3152 H3171 0.913 . S
C3153 H3129 0.950 . S
C3153 C3152 1.524 . S
C3153 C3154 1.415 . S
C3154 H3130 0.950 . S
C3154 C3149 1.363 . S
C3154 C3153 1.415 . S
C3155 H3131 0.951 . S
C3155 C3156 1.366 . S
C3155 C3157 1.388 . S
C3156 C3155 1.366 . S
C3156 C3160 1.385 . S
C3157 H3132 0.951 . S
C3157 C3155 1.388 . S
C3157 C3158 1.366 . S
C3158 C3157 1.366 . S
C3158 C3159 1.414 . S
C3158 C3161 1.499 . S
C3159 H3133 0.950 . S
C3159 C3158 1.414 . S
C3159 C3160 1.374 . S
C3160 H3134 0.950 . S
C3160 C3156 1.385 . S
C3160 C3159 1.374 . S
C3161 C3158 1.499 . S
C3161 C3162 1.373 . S
C3161 C3163 1.389 . S
C3162 H3135 0.950 . S
C3162 C3148 1.377 . S
C3162 C3161 1.373 . S
C3163 C3147 1.377 . S
C3163 C3161 1.389 . S
C3163 C3164 1.524 . S
C3164 C3163 1.524 . S
C3164 C3165 1.397 . S
C3164 C3169 1.363 . S
C3165 H3136 0.950 . S
C3165 C3164 1.397 . S
C3165 C3166 1.334 . S
C3166 H3137 0.950 . S
C3166 C3165 1.334 . S
C3166 C3167 1.287 . S
C3167 C3166 1.287 . S
C3167 C3168 1.524 . S
C3167 H3170 0.999 . S
C3168 H3138 0.950 . S
C3168 C3167 1.524 . S
C3168 C3169 1.415 . S
C3169 H3139 0.950 . S
C3169 C3164 1.363 . S
C3169 C3168 1.415 . S
H3170 C3167 0.999 . S
H3171 C3152 0.913 . S
H3172 C3190 0.951 . S
H3173 C3192 0.951 . S
H3174 C3194 0.950 . S
H3175 C3195 0.950 . S
H3176 C3197 0.950 . S
H3177 C3200 0.950 . S
H3178 C3201 0.950 . S
H3179 C3203 0.950 . S
H3180 C3204 0.950 . S
H3181 C3205 0.951 . S
H3182 C3207 0.951 . S
H3183 C3209 0.950 . S
H3184 C3210 0.950 . S
H3185 C3212 0.950 . S
H3186 C3215 0.950 . S
H3187 C3216 0.950 . S
H3188 C3218 0.950 . S
H3189 C3219 0.950 . S
C3190 H3172 0.951 . S
C3190 C3191 1.366 . S
C3190 C3192 1.388 . S
C3191 C3190 1.366 . S
C3191 C3195 1.385 . S
C3192 H3173 0.951 . S
C3192 C3190 1.388 . S
C3192 C3193 1.366 . S
C3193 C3192 1.366 . S
C3193 C3194 1.414 . S
C3193 C3196 1.499 . S
C3194 H3174 0.950 . S
C3194 C3193 1.414 . S
C3194 C3195 1.374 . S
C3195 H3175 0.950 . S
C3195 C3191 1.385 . S
C3195 C3194 1.374 . S
C3196 C3193 1.499 . S
C3196 C3197 1.373 . S
C3196 C3198 1.389 . S
C3197 H3176 0.950 . S
C3197 C3196 1.373 . S
C3197 C3213 1.377 . S
C3198 C3196 1.389 . S
C3198 C3199 1.524 . S
C3198 C3212 1.377 . S
C3199 C3198 1.524 . S
C3199 C3200 1.397 . S
C3199 C3204 1.363 . S
C3200 H3177 0.950 . S
C3200 C3199 1.397 . S
C3200 C3201 1.334 . S
C3201 H3178 0.950 . S
C3201 C3200 1.334 . S
C3201 C3202 1.287 . S
C3202 C3201 1.287 . S
C3202 C3203 1.524 . S
C3202 H3221 0.913 . S
C3203 H3179 0.950 . S
C3203 C3202 1.524 . S
C3203 C3204 1.415 . S
C3204 H3180 0.950 . S
C3204 C3199 1.363 . S
C3204 C3203 1.415 . S
C3205 H3181 0.951 . S
C3205 C3206 1.366 . S
C3205 C3207 1.388 . S
C3206 C3205 1.366 . S
C3206 C3210 1.385 . S
C3207 H3182 0.951 . S
C3207 C3205 1.388 . S
C3207 C3208 1.366 . S
C3208 C3207 1.366 . S
C3208 C3209 1.414 . S
C3208 C3211 1.499 . S
C3209 H3183 0.950 . S
C3209 C3208 1.414 . S
C3209 C3210 1.374 . S
C3210 H3184 0.950 . S
C3210 C3206 1.385 . S
C3210 C3209 1.374 . S
C3211 C3208 1.499 . S
C3211 C3212 1.373 . S
C3211 C3213 1.389 . S
C3212 H3185 0.950 . S
C3212 C3198 1.377 . S
C3212 C3211 1.373 . S
C3213 C3197 1.377 . S
C3213 C3211 1.389 . S
C3213 C3214 1.524 . S
C3214 C3213 1.524 . S
C3214 C3215 1.397 . S
C3214 C3219 1.363 . S
C3215 H3186 0.950 . S
C3215 C3214 1.397 . S
C3215 C3216 1.334 . S
C3216 H3187 0.950 . S
C3216 C3215 1.334 . S
C3216 C3217 1.287 . S
C3217 C3216 1.287 . S
C3217 C3218 1.524 . S
C3217 H3220 0.999 . S
C3218 H3188 0.950 . S
C3218 C3217 1.524 . S
C3218 C3219 1.415 . S
C3219 H3189 0.950 . S
C3219 C3214 1.363 . S
C3219 C3218 1.415 . S
H3220 C3217 0.999 . S
H3221 C3202 0.913 . S
H3222 C3240 0.951 . S
H3223 C3242 0.951 . S
H3224 C3244 0.950 . S
H3225 C3245 0.950 . S
H3226 C3247 0.950 . S
H3227 C3250 0.950 . S
H3228 C3251 0.950 . S
H3229 C3253 0.950 . S
H3230 C3254 0.950 . S
H3231 C3255 0.951 . S
H3232 C3257 0.951 . S
H3233 C3259 0.950 . S
H3234 C3260 0.950 . S
H3235 C3262 0.950 . S
H3236 C3265 0.950 . S
H3237 C3266 0.950 . S
H3238 C3268 0.950 . S
H3239 C3269 0.950 . S
C3240 H3222 0.951 . S
C3240 C3241 1.366 . S
C3240 C3242 1.388 . S
C3241 C3240 1.366 . S
C3241 C3245 1.385 . S
C3242 H3223 0.951 . S
C3242 C3240 1.388 . S
C3242 C3243 1.366 . S
C3243 C3242 1.366 . S
C3243 C3244 1.414 . S
C3243 C3246 1.499 . S
C3244 H3224 0.950 . S
C3244 C3243 1.414 . S
C3244 C3245 1.374 . S
C3245 H3225 0.950 . S
C3245 C3241 1.385 . S
C3245 C3244 1.374 . S
C3246 C3243 1.499 . S
C3246 C3247 1.373 . S
C3246 C3248 1.389 . S
C3247 H3226 0.950 . S
C3247 C3246 1.373 . S
C3247 C3263 1.377 . S
C3248 C3246 1.389 . S
C3248 C3249 1.524 . S
C3248 C3262 1.377 . S
C3249 C3248 1.524 . S
C3249 C3250 1.397 . S
C3249 C3254 1.363 . S
C3250 H3227 0.950 . S
C3250 C3249 1.397 . S
C3250 C3251 1.334 . S
C3251 H3228 0.950 . S
C3251 C3250 1.334 . S
C3251 C3252 1.287 . S
C3252 C3251 1.287 . S
C3252 C3253 1.524 . S
C3252 H3271 0.913 . S
C3253 H3229 0.950 . S
C3253 C3252 1.524 . S
C3253 C3254 1.415 . S
C3254 H3230 0.950 . S
C3254 C3249 1.363 . S
C3254 C3253 1.415 . S
C3255 H3231 0.951 . S
C3255 C3256 1.366 . S
C3255 C3257 1.388 . S
C3256 C3255 1.366 . S
C3256 C3260 1.385 . S
C3257 H3232 0.951 . S
C3257 C3255 1.388 . S
C3257 C3258 1.366 . S
C3258 C3257 1.366 . S
C3258 C3259 1.414 . S
C3258 C3261 1.499 . S
C3259 H3233 0.950 . S
C3259 C3258 1.414 . S
C3259 C3260 1.374 . S
C3260 H3234 0.950 . S
C3260 C3256 1.385 . S
C3260 C3259 1.374 . S
C3261 C3258 1.499 . S
C3261 C3262 1.373 . S
C3261 C3263 1.389 . S
C3262 H3235 0.950 . S
C3262 C3248 1.377 . S
C3262 C3261 1.373 . S
C3263 C3247 1.377 . S
C3263 C3261 1.389 . S
C3263 C3264 1.524 . S
C3264 C3263 1.524 . S
C3264 C3265 1.397 . S
C3264 C3269 1.363 . S
C3265 H3236 0.950 . S
C3265 C3264 1.397 . S
C3265 C3266 1.334 . S
C3266 H3237 0.950 . S
C3266 C3265 1.334 . S
C3266 C3267 1.287 . S
C3267 C3266 1.287 . S
C3267 C3268 1.524 . S
C3267 H3270 0.999 . S
C3268 H3238 0.950 . S
C3268 C3267 1.524 . S
C3268 C3269 1.415 . S
C3269 H3239 0.950 . S
C3269 C3264 1.363 . S
C3269 C3268 1.415 . S
H3270 C3267 0.999 . S
H3271 C3252 0.913 . S
H3272 C3290 0.951 . S
H3273 C3292 0.951 . S
H3274 C3294 0.950 . S
H3275 C3295 0.950 . S
H3276 C3297 0.950 . S
H3277 C3300 0.950 . S
H3278 C3301 0.950 . S
H3279 C3303 0.950 . S
H3280 C3304 0.950 . S
H3281 C3305 0.951 . S
H3282 C3307 0.951 . S
H3283 C3309 0.950 . S
H3284 C3310 0.950 . S
H3285 C3312 0.950 . S
H3286 C3315 0.950 . S
H3287 C3316 0.950 . S
H3288 C3318 0.950 . S
H3289 C3319 0.950 . S
C3290 H3272 0.951 . S
C3290 C3291 1.366 . S
C3290 C3292 1.388 . S
C3291 C3290 1.366 . S
C3291 C3295 1.385 . S
C3292 H3273 0.951 . S
C3292 C3290 1.388 . S
C3292 C3293 1.366 . S
C3293 C3292 1.366 . S
C3293 C3294 1.414 . S
C3293 C3296 1.499 . S
C3294 H3274 0.950 . S
C3294 C3293 1.414 . S
C3294 C3295 1.374 . S
C3295 H3275 0.950 . S
C3295 C3291 1.385 . S
C3295 C3294 1.374 . S
C3296 C3293 1.499 . S
C3296 C3297 1.373 . S
C3296 C3298 1.389 . S
C3297 H3276 0.950 . S
C3297 C3296 1.373 . S
C3297 C3313 1.377 . S
C3298 C3296 1.389 . S
C3298 C3299 1.524 . S
C3298 C3312 1.377 . S
C3299 C3298 1.524 . S
C3299 C3300 1.397 . S
C3299 C3304 1.363 . S
C3300 H3277 0.950 . S
C3300 C3299 1.397 . S
C3300 C3301 1.334 . S
C3301 H3278 0.950 . S
C3301 C3300 1.334 . S
C3301 C3302 1.287 . S
C3302 C3301 1.287 . S
C3302 C3303 1.524 . S
C3302 H3321 0.913 . S
C3303 H3279 0.950 . S
C3303 C3302 1.524 . S
C3303 C3304 1.415 . S
C3304 H3280 0.950 . S
C3304 C3299 1.363 . S
C3304 C3303 1.415 . S
C3305 H3281 0.951 . S
C3305 C3306 1.366 . S
C3305 C3307 1.388 . S
C3306 C3305 1.366 . S
C3306 C3310 1.385 . S
C3307 H3282 0.951 . S
C3307 C3305 1.388 . S
C3307 C3308 1.366 . S
C3308 C3307 1.366 . S
C3308 C3309 1.414 . S
C3308 C3311 1.499 . S
C3309 H3283 0.950 . S
C3309 C3308 1.414 . S
C3309 C3310 1.374 . S
C3310 H3284 0.950 . S
C3310 C3306 1.385 . S
C3310 C3309 1.374 . S
C3311 C3308 1.499 . S
C3311 C3312 1.373 . S
C3311 C3313 1.389 . S
C3312 H3285 0.950 . S
C3312 C3298 1.377 . S
C3312 C3311 1.373 . S
C3313 C3297 1.377 . S
C3313 C3311 1.389 . S
C3313 C3314 1.524 . S
C3314 C3313 1.524 . S
C3314 C3315 1.397 . S
C3314 C3319 1.363 . S
C3315 H3286 0.950 . S
C3315 C3314 1.397 . S
C3315 C3316 1.334 . S
C3316 H3287 0.950 . S
C3316 C3315 1.334 . S
C3316 C3317 1.287 . S
C3317 C3316 1.287 . S
C3317 C3318 1.524 . S
C3317 H3320 0.999 . S
C3318 H3288 0.950 . S
C3318 C3317 1.524 . S
C3318 C3319 1.415 . S
C3319 H3289 0.950 . S
C3319 C3314 1.363 . S
C3319 C3318 1.415 . S
H3320 C3317 0.999 . S
H3321 C3302 0.913 . S
H3322 C3340 0.951 . S
H3323 C3342 0.951 . S
H3324 C3344 0.950 . S
H3325 C3345 0.950 . S
H3326 C3347 0.950 . S
H3327 C3350 0.950 . S
H3328 C3351 0.950 . S
H3329 C3353 0.950 . S
H3330 C3354 0.950 . S
H3331 C3355 0.951 . S
H3332 C3357 0.951 . S
H3333 C3359 0.950 . S
H3334 C3360 0.950 . S
H3335 C3362 0.950 . S
H3336 C3365 0.950 . S
H3337 C3366 0.950 . S
H3338 C3368 0.950 . S
H3339 C3369 0.950 . S
C3340 H3322 0.951 . S
C3340 C3341 1.366 . S
C3340 C3342 1.388 . S
C3341 C3340 1.366 . S
C3341 C3345 1.385 . S
C3342 H3323 0.951 . S
C3342 C3340 1.388 . S
C3342 C3343 1.366 . S
C3343 C3342 1.366 . S
C3343 C3344 1.414 . S
C3343 C3346 1.499 . S
C3344 H3324 0.950 . S
C3344 C3343 1.414 . S
C3344 C3345 1.374 . S
C3345 H3325 0.950 . S
C3345 C3341 1.385 . S
C3345 C3344 1.374 . S
C3346 C3343 1.499 . S
C3346 C3347 1.373 . S
C3346 C3348 1.389 . S
C3347 H3326 0.950 . S
C3347 C3346 1.373 . S
C3347 C3363 1.377 . S
C3348 C3346 1.389 . S
C3348 C3349 1.524 . S
C3348 C3362 1.377 . S
C3349 C3348 1.524 . S
C3349 C3350 1.397 . S
C3349 C3354 1.363 . S
C3350 H3327 0.950 . S
C3350 C3349 1.397 . S
C3350 C3351 1.334 . S
C3351 H3328 0.950 . S
C3351 C3350 1.334 . S
C3351 C3352 1.287 . S
C3352 C3351 1.287 . S
C3352 C3353 1.524 . S
C3352 H3371 0.913 . S
C3353 H3329 0.950 . S
C3353 C3352 1.524 . S
C3353 C3354 1.415 . S
C3354 H3330 0.950 . S
C3354 C3349 1.363 . S
C3354 C3353 1.415 . S
C3355 H3331 0.951 . S
C3355 C3356 1.366 . S
C3355 C3357 1.388 . S
C3356 C3355 1.366 . S
C3356 C3360 1.385 . S
C3357 H3332 0.951 . S
C3357 C3355 1.388 . S
C3357 C3358 1.366 . S
C3358 C3357 1.366 . S
C3358 C3359 1.414 . S
C3358 C3361 1.499 . S
C3359 H3333 0.950 . S
C3359 C3358 1.414 . S
C3359 C3360 1.374 . S
C3360 H3334 0.950 . S
C3360 C3356 1.385 . S
C3360 C3359 1.374 . S
C3361 C3358 1.499 . S
C3361 C3362 1.373 . S
C3361 C3363 1.389 . S
C3362 H3335 0.950 . S
C3362 C3348 1.377 . S
C3362 C3361 1.373 . S
C3363 C3347 1.377 . S
C3363 C3361 1.389 . S
C3363 C3364 1.524 . S
C3364 C3363 1.524 . S
C3364 C3365 1.397 . S
C3364 C3369 1.363 . S
C3365 H3336 0.950 . S
C3365 C3364 1.397 . S
C3365 C3366 1.334 . S
C3366 H3337 0.950 . S
C3366 C3365 1.334 . S
C3366 C3367 1.287 . S
C3367 C3366 1.287 . S
C3367 C3368 1.524 . S
C3367 H3370 0.999 . S
C3368 H3338 0.950 . S
C3368 C3367 1.524 . S
C3368 C3369 1.415 . S
C3369 H3339 0.950 . S
C3369 C3364 1.363 . S
C3369 C3368 1.415 . S
H3370 C3367 0.999 . S
H3371 C3352 0.913 . S
H3372 C3390 0.951 . S
H3373 C3392 0.951 . S
H3374 C3394 0.950 . S
H3375 C3395 0.950 . S
H3376 C3397 0.950 . S
H3377 C3400 0.950 . S
H3378 C3401 0.950 . S
H3379 C3403 0.950 . S
H3380 C3404 0.950 . S
H3381 C3405 0.951 . S
H3382 C3407 0.951 . S
H3383 C3409 0.950 . S
H3384 C3410 0.950 . S
H3385 C3412 0.950 . S
H3386 C3415 0.950 . S
H3387 C3416 0.950 . S
H3388 C3418 0.950 . S
H3389 C3419 0.950 . S
C3390 H3372 0.951 . S
C3390 C3391 1.366 . S
C3390 C3392 1.388 . S
C3391 C3390 1.366 . S
C3391 C3395 1.385 . S
C3392 H3373 0.951 . S
C3392 C3390 1.388 . S
C3392 C3393 1.366 . S
C3393 C3392 1.366 . S
C3393 C3394 1.414 . S
C3393 C3396 1.499 . S
C3394 H3374 0.950 . S
C3394 C3393 1.414 . S
C3394 C3395 1.374 . S
C3395 H3375 0.950 . S
C3395 C3391 1.385 . S
C3395 C3394 1.374 . S
C3396 C3393 1.499 . S
C3396 C3397 1.373 . S
C3396 C3398 1.389 . S
C3397 H3376 0.950 . S
C3397 C3396 1.373 . S
C3397 C3413 1.377 . S
C3398 C3396 1.389 . S
C3398 C3399 1.524 . S
C3398 C3412 1.377 . S
C3399 C3398 1.524 . S
C3399 C3400 1.397 . S
C3399 C3404 1.363 . S
C3400 H3377 0.950 . S
C3400 C3399 1.397 . S
C3400 C3401 1.334 . S
C3401 H3378 0.950 . S
C3401 C3400 1.334 . S
C3401 C3402 1.287 . S
C3402 C3401 1.287 . S
C3402 C3403 1.524 . S
C3402 H3421 0.913 . S
C3403 H3379 0.950 . S
C3403 C3402 1.524 . S
C3403 C3404 1.415 . S
C3404 H3380 0.950 . S
C3404 C3399 1.363 . S
C3404 C3403 1.415 . S
C3405 H3381 0.951 . S
C3405 C3406 1.366 . S
C3405 C3407 1.388 . S
C3406 C3405 1.366 . S
C3406 C3410 1.385 . S
C3407 H3382 0.951 . S
C3407 C3405 1.388 . S
C3407 C3408 1.366 . S
C3408 C3407 1.366 . S
C3408 C3409 1.414 . S
C3408 C3411 1.499 . S
C3409 H3383 0.950 . S
C3409 C3408 1.414 . S
C3409 C3410 1.374 . S
C3410 H3384 0.950 . S
C3410 C3406 1.385 . S
C3410 C3409 1.374 . S
C3411 C3408 1.499 . S
C3411 C3412 1.373 . S
C3411 C3413 1.389 . S
C3412 H3385 0.950 . S
C3412 C3398 1.377 . S
C3412 C3411 1.373 . S
C3413 C3397 1.377 . S
C3413 C3411 1.389 . S
C3413 C3414 1.524 . S
C3414 C3413 1.524 . S
C3414 C3415 1.397 . S
C3414 C3419 1.363 . S
C3415 H3386 0.950 . S
C3415 C3414 1.397 . S
C3415 C3416 1.334 . S
C3416 H3387 0.950 . S
C3416 C3415 1.334 . S
C3416 C3417 1.287 . S
C3417 C3416 1.287 . S
C3417 C3418 1.524 . S
C3417 H3420 0.999 . S
C3418 H3388 0.950 . S
C3418 C3417 1.524 . S
C3418 C3419 1.415 . S
C3419 H3389 0.950 . S
C3419 C3414 1.363 . S
C3419 C3418 1.415 . S
H3420 C3417 0.999 . S
H3421 C3402 0.913 . S
H3422 C3440 0.951 . S
H3423 C3442 0.951 . S
H3424 C3444 0.950 . S
H3425 C3445 0.950 . S
H3426 C3447 0.950 . S
H3427 C3450 0.950 . S
H3428 C3451 0.950 . S
H3429 C3453 0.950 . S
H3430 C3454 0.950 . S
H3431 C3455 0.951 . S
H3432 C3457 0.951 . S
H3433 C3459 0.950 . S
H3434 C3460 0.950 . S
H3435 C3462 0.950 . S
H3436 C3465 0.950 . S
H3437 C3466 0.950 . S
H3438 C3468 0.950 . S
H3439 C3469 0.950 . S
C3440 H3422 0.951 . S
C3440 C3441 1.366 . S
C3440 C3442 1.388 . S
C3441 C3440 1.366 . S
C3441 C3445 1.385 . S
C3442 H3423 0.951 . S
C3442 C3440 1.388 . S
C3442 C3443 1.366 . S
C3443 C3442 1.366 . S
C3443 C3444 1.414 . S
C3443 C3446 1.499 . S
C3444 H3424 0.950 . S
C3444 C3443 1.414 . S
C3444 C3445 1.374 . S
C3445 H3425 0.950 . S
C3445 C3441 1.385 . S
C3445 C3444 1.374 . S
C3446 C3443 1.499 . S
C3446 C3447 1.373 . S
C3446 C3448 1.389 . S
C3447 H3426 0.950 . S
C3447 C3446 1.373 . S
C3447 C3463 1.377 . S
C3448 C3446 1.389 . S
C3448 C3449 1.524 . S
C3448 C3462 1.377 . S
C3449 C3448 1.524 . S
C3449 C3450 1.397 . S
C3449 C3454 1.363 . S
C3450 H3427 0.950 . S
C3450 C3449 1.397 . S
C3450 C3451 1.334 . S
C3451 H3428 0.950 . S
C3451 C3450 1.334 . S
C3451 C3452 1.287 . S
C3452 C3451 1.287 . S
C3452 C3453 1.524 . S
C3452 H3471 0.913 . S
C3453 H3429 0.950 . S
C3453 C3452 1.524 . S
C3453 C3454 1.415 . S
C3454 H3430 0.950 . S
C3454 C3449 1.363 . S
C3454 C3453 1.415 . S
C3455 H3431 0.951 . S
C3455 C3456 1.366 . S
C3455 C3457 1.388 . S
C3456 C3455 1.366 . S
C3456 C3460 1.385 . S
C3457 H3432 0.951 . S
C3457 C3455 1.388 . S
C3457 C3458 1.366 . S
C3458 C3457 1.366 . S
C3458 C3459 1.414 . S
C3458 C3461 1.499 . S
C3459 H3433 0.950 . S
C3459 C3458 1.414 . S
C3459 C3460 1.374 . S
C3460 H3434 0.950 . S
C3460 C3456 1.385 . S
C3460 C3459 1.374 . S
C3461 C3458 1.499 . S
C3461 C3462 1.373 . S
C3461 C3463 1.389 . S
C3462 H3435 0.950 . S
C3462 C3448 1.377 . S
C3462 C3461 1.373 . S
C3463 C3447 1.377 . S
C3463 C3461 1.389 . S
C3463 C3464 1.524 . S
C3464 C3463 1.524 . S
C3464 C3465 1.397 . S
C3464 C3469 1.363 . S
C3465 H3436 0.950 . S
C3465 C3464 1.397 . S
C3465 C3466 1.334 . S
C3466 H3437 0.950 . S
C3466 C3465 1.334 . S
C3466 C3467 1.287 . S
C3467 C3466 1.287 . S
C3467 C3468 1.524 . S
C3467 H3470 0.999 . S
C3468 H3438 0.950 . S
C3468 C3467 1.524 . S
C3468 C3469 1.415 . S
C3469 H3439 0.950 . S
C3469 C3464 1.363 . S
C3469 C3468 1.415 . S
H3470 C3467 0.999 . S
H3471 C3452 0.913 . S
H3472 C3490 0.951 . S
H3473 C3492 0.951 . S
H3474 C3494 0.950 . S
H3475 C3495 0.950 . S
H3476 C3497 0.950 . S
H3477 C3500 0.950 . S
H3478 C3501 0.950 . S
H3479 C3503 0.950 . S
H3480 C3504 0.950 . S
H3481 C3505 0.951 . S
H3482 C3507 0.951 . S
H3483 C3509 0.950 . S
H3484 C3510 0.950 . S
H3485 C3512 0.950 . S
H3486 C3515 0.950 . S
H3487 C3516 0.950 . S
H3488 C3518 0.950 . S
H3489 C3519 0.950 . S
C3490 H3472 0.951 . S
C3490 C3491 1.366 . S
C3490 C3492 1.388 . S
C3491 C3490 1.366 . S
C3491 C3495 1.385 . S
C3492 H3473 0.951 . S
C3492 C3490 1.388 . S
C3492 C3493 1.366 . S
C3493 C3492 1.366 . S
C3493 C3494 1.414 . S
C3493 C3496 1.499 . S
C3494 H3474 0.950 . S
C3494 C3493 1.414 . S
C3494 C3495 1.374 . S
C3495 H3475 0.950 . S
C3495 C3491 1.385 . S
C3495 C3494 1.374 . S
C3496 C3493 1.499 . S
C3496 C3497 1.373 . S
C3496 C3498 1.389 . S
C3497 H3476 0.950 . S
C3497 C3496 1.373 . S
C3497 C3513 1.377 . S
C3498 C3496 1.389 . S
C3498 C3499 1.524 . S
C3498 C3512 1.377 . S
C3499 C3498 1.524 . S
C3499 C3500 1.397 . S
C3499 C3504 1.363 . S
C3500 H3477 0.950 . S
C3500 C3499 1.397 . S
C3500 C3501 1.334 . S
C3501 H3478 0.950 . S
C3501 C3500 1.334 . S
C3501 C3502 1.287 . S
C3502 C3501 1.287 . S
C3502 C3503 1.524 . S
C3502 H3521 0.913 . S
C3503 H3479 0.950 . S
C3503 C3502 1.524 . S
C3503 C3504 1.415 . S
C3504 H3480 0.950 . S
C3504 C3499 1.363 . S
C3504 C3503 1.415 . S
C3505 H3481 0.951 . S
C3505 C3506 1.366 . S
C3505 C3507 1.388 . S
C3506 C3505 1.366 . S
C3506 C3510 1.385 . S
C3507 H3482 0.951 . S
C3507 C3505 1.388 . S
C3507 C3508 1.366 . S
C3508 C3507 1.366 . S
C3508 C3509 1.414 . S
C3508 C3511 1.499 . S
C3509 H3483 0.950 . S
C3509 C3508 1.414 . S
C3509 C3510 1.374 . S
C3510 H3484 0.950 . S
C3510 C3506 1.385 . S
C3510 C3509 1.374 . S
C3511 C3508 1.499 . S
C3511 C3512 1.373 . S
C3511 C3513 1.389 . S
C3512 H3485 0.950 . S
C3512 C3498 1.377 . S
C3512 C3511 1.373 . S
C3513 C3497 1.377 . S
C3513 C3511 1.389 . S
C3513 C3514 1.524 . S
C3514 C3513 1.524 . S
C3514 C3515 1.397 . S
C3514 C3519 1.363 . S
C3515 H3486 0.950 . S
C3515 C3514 1.397 . S
C3515 C3516 1.334 . S
C3516 H3487 0.950 . S
C3516 C3515 1.334 . S
C3516 C3517 1.287 . S
C3517 C3516 1.287 . S
C3517 C3518 1.524 . S
C3517 H3520 0.999 . S
C3518 H3488 0.950 . S
C3518 C3517 1.524 . S
C3518 C3519 1.415 . S
C3519 H3489 0.950 . S
C3519 C3514 1.363 . S
C3519 C3518 1.415 . S
H3520 C3517 0.999 . S
H3521 C3502 0.913 . S
H3522 C3540 0.951 . S
H3523 C3542 0.951 . S
H3524 C3544 0.950 . S
H3525 C3545 0.950 . S
H3526 C3547 0.950 . S
H3527 C3550 0.950 . S
H3528 C3551 0.950 . S
H3529 C3553 0.950 . S
H3530 C3554 0.950 . S
H3531 C3555 0.951 . S
H3532 C3557 0.951 . S
H3533 C3559 0.950 . S
H3534 C3560 0.950 . S
H3535 C3562 0.950 . S
H3536 C3565 0.950 . S
H3537 C3566 0.950 . S
H3538 C3568 0.950 . S
H3539 C3569 0.950 . S
C3540 H3522 0.951 . S
C3540 C3541 1.366 . S
C3540 C3542 1.388 . S
C3541 C3540 1.366 . S
C3541 C3545 1.385 . S
C3542 H3523 0.951 . S
C3542 C3540 1.388 . S
C3542 C3543 1.366 . S
C3543 C3542 1.366 . S
C3543 C3544 1.414 . S
C3543 C3546 1.499 . S
C3544 H3524 0.950 . S
C3544 C3543 1.414 . S
C3544 C3545 1.374 . S
C3545 H3525 0.950 . S
C3545 C3541 1.385 . S
C3545 C3544 1.374 . S
C3546 C3543 1.499 . S
C3546 C3547 1.373 . S
C3546 C3548 1.389 . S
C3547 H3526 0.950 . S
C3547 C3546 1.373 . S
C3547 C3563 1.377 . S
C3548 C3546 1.389 . S
C3548 C3549 1.524 . S
C3548 C3562 1.377 . S
C3549 C3548 1.524 . S
C3549 C3550 1.397 . S
C3549 C3554 1.363 . S
C3550 H3527 0.950 . S
C3550 C3549 1.397 . S
C3550 C3551 1.334 . S
C3551 H3528 0.950 . S
C3551 C3550 1.334 . S
C3551 C3552 1.287 . S
C3552 C3551 1.287 . S
C3552 C3553 1.524 . S
C3552 H3571 0.913 . S
C3553 H3529 0.950 . S
C3553 C3552 1.524 . S
C3553 C3554 1.415 . S
C3554 H3530 0.950 . S
C3554 C3549 1.363 . S
C3554 C3553 1.415 . S
C3555 H3531 0.951 . S
C3555 C3556 1.366 . S
C3555 C3557 1.388 . S
C3556 C3555 1.366 . S
C3556 C3560 1.385 . S
C3557 H3532 0.951 . S
C3557 C3555 1.388 . S
C3557 C3558 1.366 . S
C3558 C3557 1.366 . S
C3558 C3559 1.414 . S
C3558 C3561 1.499 . S
C3559 H3533 0.950 . S
C3559 C3558 1.414 . S
C3559 C3560 1.374 . S
C3560 H3534 0.950 . S
C3560 C3556 1.385 . S
C3560 C3559 1.374 . S
C3561 C3558 1.499 . S
C3561 C3562 1.373 . S
C3561 C3563 1.389 . S
C3562 H3535 0.950 . S
C3562 C3548 1.377 . S
C3562 C3561 1.373 . S
C3563 C3547 1.377 . S
C3563 C3561 1.389 . S
C3563 C3564 1.524 . S
C3564 C3563 1.524 . S
C3564 C3565 1.397 . S
C3564 C3569 1.363 . S
C3565 H3536 0.950 . S
C3565 C3564 1.397 . S
C3565 C3566 1.334 . S
C3566 H3537 0.950 . S
C3566 C3565 1.334 . S
C3566 C3567 1.287 . S
C3567 C3566 1.287 . S
C3567 C3568 1.524 . S
C3567 H3570 0.999 . S
C3568 H3538 0.950 . S
C3568 C3567 1.524 . S
C3568 C3569 1.415 . S
C3569 H3539 0.950 . S
C3569 C3564 1.363 . S
C3569 C3568 1.415 . S
H3570 C3567 0.999 . S
H3571 C3552 0.913 . S
H3572 C3590 0.951 . S
H3573 C3592 0.951 . S
H3574 C3594 0.950 . S
H3575 C3595 0.950 . S
H3576 C3597 0.950 . S
H3577 C3600 0.950 . S
H3578 C3601 0.950 . S
H3579 C3603 0.950 . S
H3580 C3604 0.950 . S
H3581 C3605 0.951 . S
H3582 C3607 0.951 . S
H3583 C3609 0.950 . S
H3584 C3610 0.950 . S
H3585 C3612 0.950 . S
H3586 C3615 0.950 . S
H3587 C3616 0.950 . S
H3588 C3618 0.950 . S
H3589 C3619 0.950 . S
C3590 H3572 0.951 . S
C3590 C3591 1.366 . S
C3590 C3592 1.388 . S
C3591 C3590 1.366 . S
C3591 C3595 1.385 . S
C3592 H3573 0.951 . S
C3592 C3590 1.388 . S
C3592 C3593 1.366 . S
C3593 C3592 1.366 . S
C3593 C3594 1.414 . S
C3593 C3596 1.499 . S
C3594 H3574 0.950 . S
C3594 C3593 1.414 . S
C3594 C3595 1.374 . S
C3595 H3575 0.950 . S
C3595 C3591 1.385 . S
C3595 C3594 1.374 . S
C3596 C3593 1.499 . S
C3596 C3597 1.373 . S
C3596 C3598 1.389 . S
C3597 H3576 0.950 . S
C3597 C3596 1.373 . S
C3597 C3613 1.377 . S
C3598 C3596 1.389 . S
C3598 C3599 1.524 . S
C3598 C3612 1.377 . S
C3599 C3598 1.524 . S
C3599 C3600 1.397 . S
C3599 C3604 1.363 . S
C3600 H3577 0.950 . S
C3600 C3599 1.397 . S
C3600 C3601 1.334 . S
C3601 H3578 0.950 . S
C3601 C3600 1.334 . S
C3601 C3602 1.287 . S
C3602 C3601 1.287 . S
C3602 C3603 1.524 . S
C3602 H3621 0.913 . S
C3603 H3579 0.950 . S
C3603 C3602 1.524 . S
C3603 C3604 1.415 . S
C3604 H3580 0.950 . S
C3604 C3599 1.363 . S
C3604 C3603 1.415 . S
C3605 H3581 0.951 . S
C3605 C3606 1.366 . S
C3605 C3607 1.388 . S
C3606 C3605 1.366 . S
C3606 C3610 1.385 . S
C3607 H3582 0.951 . S
C3607 C3605 1.388 . S
C3607 C3608 1.366 . S
C3608 C3607 1.366 . S
C3608 C3609 1.414 . S
C3608 C3611 1.499 . S
C3609 H3583 0.950 . S
C3609 C3608 1.414 . S
C3609 C3610 1.374 . S
C3610 H3584 0.950 . S
C3610 C3606 1.385 . S
C3610 C3609 1.374 . S
C3611 C3608 1.499 . S
C3611 C3612 1.373 . S
C3611 C3613 1.389 . S
C3612 H3585 0.950 . S
C3612 C3598 1.377 . S
C3612 C3611 1.373 . S
C3613 C3597 1.377 . S
C3613 C3611 1.389 . S
C3613 C3614 1.524 . S
C3614 C3613 1.524 . S
C3614 C3615 1.397 . S
C3614 C3619 1.363 . S
C3615 H3586 0.950 . S
C3615 C3614 1.397 . S
C3615 C3616 1.334 . S
C3616 H3587 0.950 . S
C3616 C3615 1.334 . S
C3616 C3617 1.287 . S
C3617 C3616 1.287 . S
C3617 C3618 1.524 . S
C3617 H3620 0.999 . S
C3618 H3588 0.950 . S
C3618 C3617 1.524 . S
C3618 C3619 1.415 . S
C3619 H3589 0.950 . S
C3619 C3614 1.363 . S
C3619 C3618 1.415 . S
H3620 C3617 0.999 . S
H3621 C3602 0.913 . S
H3622 C3640 0.951 . S
H3623 C3642 0.951 . S
H3624 C3644 0.950 . S
H3625 C3645 0.950 . S
H3626 C3647 0.950 . S
H3627 C3650 0.950 . S
H3628 C3651 0.950 . S
H3629 C3653 0.950 . S
H3630 C3654 0.950 . S
H3631 C3655 0.951 . S
H3632 C3657 0.951 . S
H3633 C3659 0.950 . S
H3634 C3660 0.950 . S
H3635 C3662 0.950 . S
H3636 C3665 0.950 . S
H3637 C3666 0.950 . S
H3638 C3668 0.950 . S
H3639 C3669 0.950 . S
C3640 H3622 0.951 . S
C3640 C3641 1.366 . S
C3640 C3642 1.388 . S
C3641 C3640 1.366 . S
C3641 C3645 1.385 . S
C3642 H3623 0.951 . S
C3642 C3640 1.388 . S
C3642 C3643 1.366 . S
C3643 C3642 1.366 . S
C3643 C3644 1.414 . S
C3643 C3646 1.499 . S
C3644 H3624 0.950 . S
C3644 C3643 1.414 . S
C3644 C3645 1.374 . S
C3645 H3625 0.950 . S
C3645 C3641 1.385 . S
C3645 C3644 1.374 . S
C3646 C3643 1.499 . S
C3646 C3647 1.373 . S
C3646 C3648 1.389 . S
C3647 H3626 0.950 . S
C3647 C3646 1.373 . S
C3647 C3663 1.377 . S
C3648 C3646 1.389 . S
C3648 C3649 1.524 . S
C3648 C3662 1.377 . S
C3649 C3648 1.524 . S
C3649 C3650 1.397 . S
C3649 C3654 1.363 . S
C3650 H3627 0.950 . S
C3650 C3649 1.397 . S
C3650 C3651 1.334 . S
C3651 H3628 0.950 . S
C3651 C3650 1.334 . S
C3651 C3652 1.287 . S
C3652 C3651 1.287 . S
C3652 C3653 1.524 . S
C3652 H3671 0.913 . S
C3653 H3629 0.950 . S
C3653 C3652 1.524 . S
C3653 C3654 1.415 . S
C3654 H3630 0.950 . S
C3654 C3649 1.363 . S
C3654 C3653 1.415 . S
C3655 H3631 0.951 . S
C3655 C3656 1.366 . S
C3655 C3657 1.388 . S
C3656 C3655 1.366 . S
C3656 C3660 1.385 . S
C3657 H3632 0.951 . S
C3657 C3655 1.388 . S
C3657 C3658 1.366 . S
C3658 C3657 1.366 . S
C3658 C3659 1.414 . S
C3658 C3661 1.499 . S
C3659 H3633 0.950 . S
C3659 C3658 1.414 . S
C3659 C3660 1.374 . S
C3660 H3634 0.950 . S
C3660 C3656 1.385 . S
C3660 C3659 1.374 . S
C3661 C3658 1.499 . S
C3661 C3662 1.373 . S
C3661 C3663 1.389 . S
C3662 H3635 0.950 . S
C3662 C3648 1.377 . S
C3662 C3661 1.373 . S
C3663 C3647 1.377 . S
C3663 C3661 1.389 . S
C3663 C3664 1.524 . S
C3664 C3663 1.524 . S
C3664 C3665 1.397 . S
C3664 C3669 1.363 . S
C3665 H3636 0.950 . S
C3665 C3664 1.397 . S
C3665 C3666 1.334 . S
C3666 H3637 0.950 . S
C3666 C3665 1.334 . S
C3666 C3667 1.287 . S
C3667 C3666 1.287 . S
C3667 C3668 1.524 . S
C3667 H3670 0.999 . S
C3668 H3638 0.950 . S
C3668 C3667 1.524 . S
C3668 C3669 1.415 . S
C3669 H3639 0.950 . S
C3669 C3664 1.363 . S
C3669 C3668 1.415 . S
H3670 C3667 0.999 . S
H3671 C3652 0.913 . S
H3672 C3690 0.951 . S
H3673 C3692 0.951 . S
H3674 C3694 0.950 . S
H3675 C3695 0.950 . S
H3676 C3697 0.950 . S
H3677 C3700 0.950 . S
H3678 C3701 0.950 . S
H3679 C3703 0.950 . S
H3680 C3704 0.950 . S
H3681 C3705 0.951 . S
H3682 C3707 0.951 . S
H3683 C3709 0.950 . S
H3684 C3710 0.950 . S
H3685 C3712 0.950 . S
H3686 C3715 0.950 . S
H3687 C3716 0.950 . S
H3688 C3718 0.950 . S
H3689 C3719 0.950 . S
C3690 H3672 0.951 . S
C3690 C3691 1.366 . S
C3690 C3692 1.388 . S
C3691 C3690 1.366 . S
C3691 C3695 1.385 . S
C3692 H3673 0.951 . S
C3692 C3690 1.388 . S
C3692 C3693 1.366 . S
C3693 C3692 1.366 . S
C3693 C3694 1.414 . S
C3693 C3696 1.499 . S
C3694 H3674 0.950 . S
C3694 C3693 1.414 . S
C3694 C3695 1.374 . S
C3695 H3675 0.950 . S
C3695 C3691 1.385 . S
C3695 C3694 1.374 . S
C3696 C3693 1.499 . S
C3696 C3697 1.373 . S
C3696 C3698 1.389 . S
C3697 H3676 0.950 . S
C3697 C3696 1.373 . S
C3697 C3713 1.377 . S
C3698 C3696 1.389 . S
C3698 C3699 1.524 . S
C3698 C3712 1.377 . S
C3699 C3698 1.524 . S
C3699 C3700 1.397 . S
C3699 C3704 1.363 . S
C3700 H3677 0.950 . S
C3700 C3699 1.397 . S
C3700 C3701 1.334 . S
C3701 H3678 0.950 . S
C3701 C3700 1.334 . S
C3701 C3702 1.287 . S
C3702 C3701 1.287 . S
C3702 C3703 1.524 . S
C3702 H3721 0.913 . S
C3703 H3679 0.950 . S
C3703 C3702 1.524 . S
C3703 C3704 1.415 . S
C3704 H3680 0.950 . S
C3704 C3699 1.363 . S
C3704 C3703 1.415 . S
C3705 H3681 0.951 . S
C3705 C3706 1.366 . S
C3705 C3707 1.388 . S
C3706 C3705 1.366 . S
C3706 C3710 1.385 . S
C3707 H3682 0.951 . S
C3707 C3705 1.388 . S
C3707 C3708 1.366 . S
C3708 C3707 1.366 . S
C3708 C3709 1.414 . S
C3708 C3711 1.499 . S
C3709 H3683 0.950 . S
C3709 C3708 1.414 . S
C3709 C3710 1.374 . S
C3710 H3684 0.950 . S
C3710 C3706 1.385 . S
C3710 C3709 1.374 . S
C3711 C3708 1.499 . S
C3711 C3712 1.373 . S
C3711 C3713 1.389 . S
C3712 H3685 0.950 . S
C3712 C3698 1.377 . S
C3712 C3711 1.373 . S
C3713 C3697 1.377 . S
C3713 C3711 1.389 . S
C3713 C3714 1.524 . S
C3714 C3713 1.524 . S
C3714 C3715 1.397 . S
C3714 C3719 1.363 . S
C3715 H3686 0.950 . S
C3715 C3714 1.397 . S
C3715 C3716 1.334 . S
C3716 H3687 0.950 . S
C3716 C3715 1.334 . S
C3716 C3717 1.287 . S
C3717 C3716 1.287 . S
C3717 C3718 1.524 . S
C3717 H3720 0.999 . S
C3718 H3688 0.950 . S
C3718 C3717 1.524 . S
C3718 C3719 1.415 . S
C3719 H3689 0.950 . S
C3719 C3714 1.363 . S
C3719 C3718 1.415 . S
H3720 C3717 0.999 . S
H3721 C3702 0.913 . S
H3722 C3740 0.951 . S
H3723 C3742 0.951 . S
H3724 C3744 0.950 . S
H3725 C3745 0.950 . S
H3726 C3747 0.950 . S
H3727 C3750 0.950 . S
H3728 C3751 0.950 . S
H3729 C3753 0.950 . S
H3730 C3754 0.950 . S
H3731 C3755 0.951 . S
H3732 C3757 0.951 . S
H3733 C3759 0.950 . S
H3734 C3760 0.950 . S
H3735 C3762 0.950 . S
H3736 C3765 0.950 . S
H3737 C3766 0.950 . S
H3738 C3768 0.950 . S
H3739 C3769 0.950 . S
C3740 H3722 0.951 . S
C3740 C3741 1.366 . S
C3740 C3742 1.388 . S
C3741 C3740 1.366 . S
C3741 C3745 1.385 . S
C3742 H3723 0.951 . S
C3742 C3740 1.388 . S
C3742 C3743 1.366 . S
C3743 C3742 1.366 . S
C3743 C3744 1.414 . S
C3743 C3746 1.499 . S
C3744 H3724 0.950 . S
C3744 C3743 1.414 . S
C3744 C3745 1.374 . S
C3745 H3725 0.950 . S
C3745 C3741 1.385 . S
C3745 C3744 1.374 . S
C3746 C3743 1.499 . S
C3746 C3747 1.373 . S
C3746 C3748 1.389 . S
C3747 H3726 0.950 . S
C3747 C3746 1.373 . S
C3747 C3763 1.377 . S
C3748 C3746 1.389 . S
C3748 C3749 1.524 . S
C3748 C3762 1.377 . S
C3749 C3748 1.524 . S
C3749 C3750 1.397 . S
C3749 C3754 1.363 . S
C3750 H3727 0.950 . S
C3750 C3749 1.397 . S
C3750 C3751 1.334 . S
C3751 H3728 0.950 . S
C3751 C3750 1.334 . S
C3751 C3752 1.287 . S
C3752 C3751 1.287 . S
C3752 C3753 1.524 . S
C3752 H3771 0.913 . S
C3753 H3729 0.950 . S
C3753 C3752 1.524 . S
C3753 C3754 1.415 . S
C3754 H3730 0.950 . S
C3754 C3749 1.363 . S
C3754 C3753 1.415 . S
C3755 H3731 0.951 . S
C3755 C3756 1.366 . S
C3755 C3757 1.388 . S
C3756 C3755 1.366 . S
C3756 C3760 1.385 . S
C3757 H3732 0.951 . S
C3757 C3755 1.388 . S
C3757 C3758 1.366 . S
C3758 C3757 1.366 . S
C3758 C3759 1.414 . S
C3758 C3761 1.499 . S
C3759 H3733 0.950 . S
C3759 C3758 1.414 . S
C3759 C3760 1.374 . S
C3760 H3734 0.950 . S
C3760 C3756 1.385 . S
C3760 C3759 1.374 . S
C3761 C3758 1.499 . S
C3761 C3762 1.373 . S
C3761 C3763 1.389 . S
C3762 H3735 0.950 . S
C3762 C3748 1.377 . S
C3762 C3761 1.373 . S
C3763 C3747 1.377 . S
C3763 C3761 1.389 . S
C3763 C3764 1.524 . S
C3764 C3763 1.524 . S
C3764 C3765 1.397 . S
C3764 C3769 1.363 . S
C3765 H3736 0.950 . S
C3765 C3764 1.397 . S
C3765 C3766 1.334 . S
C3766 H3737 0.950 . S
C3766 C3765 1.334 . S
C3766 C3767 1.287 . S
C3767 C3766 1.287 . S
C3767 C3768 1.524 . S
C3767 H3770 0.999 . S
C3768 H3738 0.950 . S
C3768 C3767 1.524 . S
C3768 C3769 1.415 . S
C3769 H3739 0.950 . S
C3769 C3764 1.363 . S
C3769 C3768 1.415 . S
H3770 C3767 0.999 . S
H3771 C3752 0.913 . S
H3772 C3790 0.951 . S
H3773 C3792 0.951 . S
H3774 C3794 0.950 . S
H3775 C3795 0.950 . S
H3776 C3797 0.950 . S
H3777 C3800 0.950 . S
H3778 C3801 0.950 . S
H3779 C3803 0.950 . S
H3780 C3804 0.950 . S
H3781 C3805 0.951 . S
H3782 C3807 0.951 . S
H3783 C3809 0.950 . S
H3784 C3810 0.950 . S
H3785 C3812 0.950 . S
H3786 C3815 0.950 . S
H3787 C3816 0.950 . S
H3788 C3818 0.950 . S
H3789 C3819 0.950 . S
C3790 H3772 0.951 . S
C3790 C3791 1.366 . S
C3790 C3792 1.388 . S
C3791 C3790 1.366 . S
C3791 C3795 1.385 . S
C3792 H3773 0.951 . S
C3792 C3790 1.388 . S
C3792 C3793 1.366 . S
C3793 C3792 1.366 . S
C3793 C3794 1.414 . S
C3793 C3796 1.499 . S
C3794 H3774 0.950 . S
C3794 C3793 1.414 . S
C3794 C3795 1.374 . S
C3795 H3775 0.950 . S
C3795 C3791 1.385 . S
C3795 C3794 1.374 . S
C3796 C3793 1.499 . S
C3796 C3797 1.373 . S
C3796 C3798 1.389 . S
C3797 H3776 0.950 . S
C3797 C3796 1.373 . S
C3797 C3813 1.377 . S
C3798 C3796 1.389 . S
C3798 C3799 1.524 . S
C3798 C3812 1.377 . S
C3799 C3798 1.524 . S
C3799 C3800 1.397 . S
C3799 C3804 1.363 . S
C3800 H3777 0.950 . S
C3800 C3799 1.397 . S
C3800 C3801 1.334 . S
C3801 H3778 0.950 . S
C3801 C3800 1.334 . S
C3801 C3802 1.287 . S
C3802 C3801 1.287 . S
C3802 C3803 1.524 . S
C3802 H3821 0.913 . S
C3803 H3779 0.950 . S
C3803 C3802 1.524 . S
C3803 C3804 1.415 . S
C3804 H3780 0.950 . S
C3804 C3799 1.363 . S
C3804 C3803 1.415 . S
C3805 H3781 0.951 . S
C3805 C3806 1.366 . S
C3805 C3807 1.388 . S
C3806 C3805 1.366 . S
C3806 C3810 1.385 . S
C3807 H3782 0.951 . S
C3807 C3805 1.388 . S
C3807 C3808 1.366 . S
C3808 C3807 1.366 . S
C3808 C3809 1.414 . S
C3808 C3811 1.499 . S
C3809 H3783 0.950 . S
C3809 C3808 1.414 . S
C3809 C3810 1.374 . S
C3810 H3784 0.950 . S
C3810 C3806 1.385 . S
C3810 C3809 1.374 . S
C3811 C3808 1.499 . S
C3811 C3812 1.373 . S
C3811 C3813 1.389 . S
C3812 H3785 0.950 . S
C3812 C3798 1.377 . S
C3812 C3811 1.373 . S
C3813 C3797 1.377 . S
C3813 C3811 1.389 . S
C3813 C3814 1.524 . S
C3814 C3813 1.524 . S
C3814 C3815 1.397 . S
C3814 C3819 1.363 . S
C3815 H3786 0.950 . S
C3815 C3814 1.397 . S
C3815 C3816 1.334 . S
C3816 H3787 0.950 . S
C3816 C3815 1.334 . S
C3816 C3817 1.287 . S
C3817 C3816 1.287 . S
C3817 C3818 1.524 . S
C3817 H3820 0.999 . S
C3818 H3788 0.950 . S
C3818 C3817 1.524 . S
C3818 C3819 1.415 . S
C3819 H3789 0.950 . S
C3819 C3814 1.363 . S
C3819 C3818 1.415 . S
H3820 C3817 0.999 . S
H3821 C3802 0.913 . S
H3822 C3840 0.951 . S
H3823 C3842 0.951 . S
H3824 C3844 0.950 . S
H3825 C3845 0.950 . S
H3826 C3847 0.950 . S
H3827 C3850 0.950 . S
H3828 C3851 0.950 . S
H3829 C3853 0.950 . S
H3830 C3854 0.950 . S
H3831 C3855 0.951 . S
H3832 C3857 0.951 . S
H3833 C3859 0.950 . S
H3834 C3860 0.950 . S
H3835 C3862 0.950 . S
H3836 C3865 0.950 . S
H3837 C3866 0.950 . S
H3838 C3868 0.950 . S
H3839 C3869 0.950 . S
C3840 H3822 0.951 . S
C3840 C3841 1.366 . S
C3840 C3842 1.388 . S
C3841 C3840 1.366 . S
C3841 C3845 1.385 . S
C3842 H3823 0.951 . S
C3842 C3840 1.388 . S
C3842 C3843 1.366 . S
C3843 C3842 1.366 . S
C3843 C3844 1.414 . S
C3843 C3846 1.499 . S
C3844 H3824 0.950 . S
C3844 C3843 1.414 . S
C3844 C3845 1.374 . S
C3845 H3825 0.950 . S
C3845 C3841 1.385 . S
C3845 C3844 1.374 . S
C3846 C3843 1.499 . S
C3846 C3847 1.373 . S
C3846 C3848 1.389 . S
C3847 H3826 0.950 . S
C3847 C3846 1.373 . S
C3847 C3863 1.377 . S
C3848 C3846 1.389 . S
C3848 C3849 1.524 . S
C3848 C3862 1.377 . S
C3849 C3848 1.524 . S
C3849 C3850 1.397 . S
C3849 C3854 1.363 . S
C3850 H3827 0.950 . S
C3850 C3849 1.397 . S
C3850 C3851 1.334 . S
C3851 H3828 0.950 . S
C3851 C3850 1.334 . S
C3851 C3852 1.287 . S
C3852 C3851 1.287 . S
C3852 C3853 1.524 . S
C3852 H3871 0.913 . S
C3853 H3829 0.950 . S
C3853 C3852 1.524 . S
C3853 C3854 1.415 . S
C3854 H3830 0.950 . S
C3854 C3849 1.363 . S
C3854 C3853 1.415 . S
C3855 H3831 0.951 . S
C3855 C3856 1.366 . S
C3855 C3857 1.388 . S
C3856 C3855 1.366 . S
C3856 C3860 1.385 . S
C3857 H3832 0.951 . S
C3857 C3855 1.388 . S
C3857 C3858 1.366 . S
C3858 C3857 1.366 . S
C3858 C3859 1.414 . S
C3858 C3861 1.499 . S
C3859 H3833 0.950 . S
C3859 C3858 1.414 . S
C3859 C3860 1.374 . S
C3860 H3834 0.950 . S
C3860 C3856 1.385 . S
C3860 C3859 1.374 . S
C3861 C3858 1.499 . S
C3861 C3862 1.373 . S
C3861 C3863 1.389 . S
C3862 H3835 0.950 . S
C3862 C3848 1.377 . S
C3862 C3861 1.373 . S
C3863 C3847 1.377 . S
C3863 C3861 1.389 . S
C3863 C3864 1.524 . S
C3864 C3863 1.524 . S
C3864 C3865 1.397 . S
C3864 C3869 1.363 . S
C3865 H3836 0.950 . S
C3865 C3864 1.397 . S
C3865 C3866 1.334 . S
C3866 H3837 0.950 . S
C3866 C3865 1.334 . S
C3866 C3867 1.287 . S
C3867 C3866 1.287 . S
C3867 C3868 1.524 . S
C3867 H3870 0.999 . S
C3868 H3838 0.950 . S
C3868 C3867 1.524 . S
C3868 C3869 1.415 . S
C3869 H3839 0.950 . S
C3869 C3864 1.363 . S
C3869 C3868 1.415 . S
H3870 C3867 0.999 . S
H3871 C3852 0.913 . S
H3872 C3890 0.951 . S
H3873 C3892 0.951 . S
H3874 C3894 0.950 . S
H3875 C3895 0.950 . S
H3876 C3897 0.950 . S
H3877 C3900 0.950 . S
H3878 C3901 0.950 . S
H3879 C3903 0.950 . S
H3880 C3904 0.950 . S
H3881 C3905 0.951 . S
H3882 C3907 0.951 . S
H3883 C3909 0.950 . S
H3884 C3910 0.950 . S
H3885 C3912 0.950 . S
H3886 C3915 0.950 . S
H3887 C3916 0.950 . S
H3888 C3918 0.950 . S
H3889 C3919 0.950 . S
C3890 H3872 0.951 . S
C3890 C3891 1.366 . S
C3890 C3892 1.388 . S
C3891 C3890 1.366 . S
C3891 C3895 1.385 . S
C3892 H3873 0.951 . S
C3892 C3890 1.388 . S
C3892 C3893 1.366 . S
C3893 C3892 1.366 . S
C3893 C3894 1.414 . S
C3893 C3896 1.499 . S
C3894 H3874 0.950 . S
C3894 C3893 1.414 . S
C3894 C3895 1.374 . S
C3895 H3875 0.950 . S
C3895 C3891 1.385 . S
C3895 C3894 1.374 . S
C3896 C3893 1.499 . S
C3896 C3897 1.373 . S
C3896 C3898 1.389 . S
C3897 H3876 0.950 . S
C3897 C3896 1.373 . S
C3897 C3913 1.377 . S
C3898 C3896 1.389 . S
C3898 C3899 1.524 . S
C3898 C3912 1.377 . S
C3899 C3898 1.524 . S
C3899 C3900 1.397 . S
C3899 C3904 1.363 . S
C3900 H3877 0.950 . S
C3900 C3899 1.397 . S
C3900 C3901 1.334 . S
C3901 H3878 0.950 . S
C3901 C3900 1.334 . S
C3901 C3902 1.287 . S
C3902 C3901 1.287 . S
C3902 C3903 1.524 . S
C3902 H3921 0.913 . S
C3903 H3879 0.950 . S
C3903 C3902 1.524 . S
C3903 C3904 1.415 . S
C3904 H3880 0.950 . S
C3904 C3899 1.363 . S
C3904 C3903 1.415 . S
C3905 H3881 0.951 . S
C3905 C3906 1.366 . S
C3905 C3907 1.388 . S
C3906 C3905 1.366 . S
C3906 C3910 1.385 . S
C3907 H3882 0.951 . S
C3907 C3905 1.388 . S
C3907 C3908 1.366 . S
C3908 C3907 1.366 . S
C3908 C3909 1.414 . S
C3908 C3911 1.499 . S
C3909 H3883 0.950 . S
C3909 C3908 1.414 . S
C3909 C3910 1.374 . S
C3910 H3884 0.950 . S
C3910 C3906 1.385 . S
C3910 C3909 1.374 . S
C3911 C3908 1.499 . S
C3911 C3912 1.373 . S
C3911 C3913 1.389 . S
C3912 H3885 0.950 . S
C3912 C3898 1.377 . S
C3912 C3911 1.373 . S
C3913 C3897 1.377 . S
C3913 C3911 1.389 . S
C3913 C3914 1.524 . S
C3914 C3913 1.524 . S
C3914 C3915 1.397 . S
C3914 C3919 1.363 . S
C3915 H3886 0.950 . S
C3915 C3914 1.397 . S
C3915 C3916 1.334 . S
C3916 H3887 0.950 . S
C3916 C3915 1.334 . S
C3916 C3917 1.287 . S
C3917 C3916 1.287 . S
C3917 C3918 1.524 . S
C3917 H3920 0.999 . S
C3918 H3888 0.950 . S
C3918 C3917 1.524 . S
C3918 C3919 1.415 . S
C3919 H3889 0.950 . S
C3919 C3914 1.363 . S
C3919 C3918 1.415 . S
H3920 C3917 0.999 . S
H3921 C3902 0.913 . S
H3922 C3940 0.951 . S
H3923 C3942 0.951 . S
H3924 C3944 0.950 . S
H3925 C3945 0.950 . S
H3926 C3947 0.950 . S
H3927 C3950 0.950 . S
H3928 C3951 0.950 . S
H3929 C3953 0.950 . S
H3930 C3954 0.950 . S
H3931 C3955 0.951 . S
H3932 C3957 0.951 . S
H3933 C3959 0.950 . S
H3934 C3960 0.950 . S
H3935 C3962 0.950 . S
H3936 C3965 0.950 . S
H3937 C3966 0.950 . S
H3938 C3968 0.950 . S
H3939 C3969 0.950 . S
C3940 H3922 0.951 . S
C3940 C3941 1.366 . S
C3940 C3942 1.388 . S
C3941 C3940 1.366 . S
C3941 C3945 1.385 . S
C3942 H3923 0.951 . S
C3942 C3940 1.388 . S
C3942 C3943 1.366 . S
C3943 C3942 1.366 . S
C3943 C3944 1.414 . S
C3943 C3946 1.499 . S
C3944 H3924 0.950 . S
C3944 C3943 1.414 . S
C3944 C3945 1.374 . S
C3945 H3925 0.950 . S
C3945 C3941 1.385 . S
C3945 C3944 1.374 . S
C3946 C3943 1.499 . S
C3946 C3947 1.373 . S
C3946 C3948 1.389 . S
C3947 H3926 0.950 . S
C3947 C3946 1.373 . S
C3947 C3963 1.377 . S
C3948 C3946 1.389 . S
C3948 C3949 1.524 . S
C3948 C3962 1.377 . S
C3949 C3948 1.524 . S
C3949 C3950 1.397 . S
C3949 C3954 1.363 . S
C3950 H3927 0.950 . S
C3950 C3949 1.397 . S
C3950 C3951 1.334 . S
C3951 H3928 0.950 . S
C3951 C3950 1.334 . S
C3951 C3952 1.287 . S
C3952 C3951 1.287 . S
C3952 C3953 1.524 . S
C3952 H3971 0.913 . S
C3953 H3929 0.950 . S
C3953 C3952 1.524 . S
C3953 C3954 1.415 . S
C3954 H3930 0.950 . S
C3954 C3949 1.363 . S
C3954 C3953 1.415 . S
C3955 H3931 0.951 . S
C3955 C3956 1.366 . S
C3955 C3957 1.388 . S
C3956 C3955 1.366 . S
C3956 C3960 1.385 . S
C3957 H3932 0.951 . S
C3957 C3955 1.388 . S
C3957 C3958 1.366 . S
C3958 C3957 1.366 . S
C3958 C3959 1.414 . S
C3958 C3961 1.499 . S
C3959 H3933 0.950 . S
C3959 C3958 1.414 . S
C3959 C3960 1.374 . S
C3960 H3934 0.950 . S
C3960 C3956 1.385 . S
C3960 C3959 1.374 . S
C3961 C3958 1.499 . S
C3961 C3962 1.373 . S
C3961 C3963 1.389 . S
C3962 H3935 0.950 . S
C3962 C3948 1.377 . S
C3962 C3961 1.373 . S
C3963 C3947 1.377 . S
C3963 C3961 1.389 . S
C3963 C3964 1.524 . S
C3964 C3963 1.524 . S
C3964 C3965 1.397 . S
C3964 C3969 1.363 . S
C3965 H3936 0.950 . S
C3965 C3964 1.397 . S
C3965 C3966 1.334 . S
C3966 H3937 0.950 . S
C3966 C3965 1.334 . S
C3966 C3967 1.287 . S
C3967 C3966 1.287 . S
C3967 C3968 1.524 . S
C3967 H3970 0.999 . S
C3968 H3938 0.950 . S
C3968 C3967 1.524 . S
C3968 C3969 1.415 . S
C3969 H3939 0.950 . S
C3969 C3964 1.363 . S
C3969 C3968 1.415 . S
H3970 C3967 0.999 . S
H3971 C3952 0.913 . S
H3972 C3990 0.951 . S
H3973 C3992 0.951 . S
H3974 C3994 0.950 . S
H3975 C3995 0.950 . S
H3976 C3997 0.950 . S
H3977 C4000 0.950 . S
H3978 C4001 0.950 . S
H3979 C4003 0.950 . S
H3980 C4004 0.950 . S
H3981 C4005 0.951 . S
H3982 C4007 0.951 . S
H3983 C4009 0.950 . S
H3984 C4010 0.950 . S
H3985 C4012 0.950 . S
H3986 C4015 0.950 . S
H3987 C4016 0.950 . S
H3988 C4018 0.950 . S
H3989 C4019 0.950 . S
C3990 H3972 0.951 . S
C3990 C3991 1.366 . S
C3990 C3992 1.388 . S
C3991 C3990 1.366 . S
C3991 C3995 1.385 . S
C3992 H3973 0.951 . S
C3992 C3990 1.388 . S
C3992 C3993 1.366 . S
C3993 C3992 1.366 . S
C3993 C3994 1.414 . S
C3993 C3996 1.499 . S
C3994 H3974 0.950 . S
C3994 C3993 1.414 . S
C3994 C3995 1.374 . S
C3995 H3975 0.950 . S
C3995 C3991 1.385 . S
C3995 C3994 1.374 . S
C3996 C3993 1.499 . S
C3996 C3997 1.373 . S
C3996 C3998 1.389 . S
C3997 H3976 0.950 . S
C3997 C3996 1.373 . S
C3997 C4013 1.377 . S
C3998 C3996 1.389 . S
C3998 C3999 1.524 . S
C3998 C4012 1.377 . S
C3999 C3998 1.524 . S
C3999 C4000 1.397 . S
C3999 C4004 1.363 . S
C4000 H3977 0.950 . S
C4000 C3999 1.397 . S
C4000 C4001 1.334 . S
C4001 H3978 0.950 . S
C4001 C4000 1.334 . S
C4001 C4002 1.287 . S
C4002 C4001 1.287 . S
C4002 C4003 1.524 . S
C4002 H4021 0.913 . S
C4003 H3979 0.950 . S
C4003 C4002 1.524 . S
C4003 C4004 1.415 . S
C4004 H3980 0.950 . S
C4004 C3999 1.363 . S
C4004 C4003 1.415 . S
C4005 H3981 0.951 . S
C4005 C4006 1.366 . S
C4005 C4007 1.388 . S
C4006 C4005 1.366 . S
C4006 C4010 1.385 . S
C4007 H3982 0.951 . S
C4007 C4005 1.388 . S
C4007 C4008 1.366 . S
C4008 C4007 1.366 . S
C4008 C4009 1.414 . S
C4008 C4011 1.499 . S
C4009 H3983 0.950 . S
C4009 C4008 1.414 . S
C4009 C4010 1.374 . S
C4010 H3984 0.950 . S
C4010 C4006 1.385 . S
C4010 C4009 1.374 . S
C4011 C4008 1.499 . S
C4011 C4012 1.373 . S
C4011 C4013 1.389 . S
C4012 H3985 0.950 . S
C4012 C3998 1.377 . S
C4012 C4011 1.373 . S
C4013 C3997 1.377 . S
C4013 C4011 1.389 . S
C4013 C4014 1.524 . S
C4014 C4013 1.524 . S
C4014 C4015 1.397 . S
C4014 C4019 1.363 . S
C4015 H3986 0.950 . S
C4015 C4014 1.397 . S
C4015 C4016 1.334 . S
C4016 H3987 0.950 . S
C4016 C4015 1.334 . S
C4016 C4017 1.287 . S
C4017 C4016 1.287 . S
C4017 C4018 1.524 . S
C4017 H4020 0.999 . S
C4018 H3988 0.950 . S
C4018 C4017 1.524 . S
C4018 C4019 1.415 . S
C4019 H3989 0.950 . S
C4019 C4014 1.363 . S
C4019 C4018 1.415 . S
H4020 C4017 0.999 . S
H4021 C4002 0.913 . S
H4022 C4040 0.951 . S
H4023 C4042 0.951 . S
H4024 C4044 0.950 . S
H4025 C4045 0.950 . S
H4026 C4047 0.950 . S
H4027 C4050 0.950 . S
H4028 C4051 0.950 . S
H4029 C4053 0.950 . S
H4030 C4054 0.950 . S
H4031 C4055 0.951 . S
H4032 C4057 0.951 . S
H4033 C4059 0.950 . S
H4034 C4060 0.950 . S
H4035 C4062 0.950 . S
H4036 C4065 0.950 . S
H4037 C4066 0.950 . S
H4038 C4068 0.950 . S
H4039 C4069 0.950 . S
C4040 H4022 0.951 . S
C4040 C4041 1.366 . S
C4040 C4042 1.388 . S
C4041 C4040 1.366 . S
C4041 C4045 1.385 . S
C4042 H4023 0.951 . S
C4042 C4040 1.388 . S
C4042 C4043 1.366 . S
C4043 C4042 1.366 . S
C4043 C4044 1.414 . S
C4043 C4046 1.499 . S
C4044 H4024 0.950 . S
C4044 C4043 1.414 . S
C4044 C4045 1.374 . S
C4045 H4025 0.950 . S
C4045 C4041 1.385 . S
C4045 C4044 1.374 . S
C4046 C4043 1.499 . S
C4046 C4047 1.373 . S
C4046 C4048 1.389 . S
C4047 H4026 0.950 . S
C4047 C4046 1.373 . S
C4047 C4063 1.377 . S
C4048 C4046 1.389 . S
C4048 C4049 1.524 . S
C4048 C4062 1.377 . S
C4049 C4048 1.524 . S
C4049 C4050 1.397 . S
C4049 C4054 1.363 . S
C4050 H4027 0.950 . S
C4050 C4049 1.397 . S
C4050 C4051 1.334 . S
C4051 H4028 0.950 . S
C4051 C4050 1.334 . S
C4051 C4052 1.287 . S
C4052 C4051 1.287 . S
C4052 C4053 1.524 . S
C4052 H4071 0.913 . S
C4053 H4029 0.950 . S
C4053 C4052 1.524 . S
C4053 C4054 1.415 . S
C4054 H4030 0.950 . S
C4054 C4049 1.363 . S
C4054 C4053 1.415 . S
C4055 H4031 0.951 . S
C4055 C4056 1.366 . S
C4055 C4057 1.388 . S
C4056 C4055 1.366 . S
C4056 C4060 1.385 . S
C4057 H4032 0.951 . S
C4057 C4055 1.388 . S
C4057 C4058 1.366 . S
C4058 C4057 1.366 . S
C4058 C4059 1.414 . S
C4058 C4061 1.499 . S
C4059 H4033 0.950 . S
C4059 C4058 1.414 . S
C4059 C4060 1.374 . S
C4060 H4034 0.950 . S
C4060 C4056 1.385 . S
C4060 C4059 1.374 . S
C4061 C4058 1.499 . S
C4061 C4062 1.373 . S
C4061 C4063 1.389 . S
C4062 H4035 0.950 . S
C4062 C4048 1.377 . S
C4062 C4061 1.373 . S
C4063 C4047 1.377 . S
C4063 C4061 1.389 . S
C4063 C4064 1.524 . S
C4064 C4063 1.524 . S
C4064 C4065 1.397 . S
C4064 C4069 1.363 . S
C4065 H4036 0.950 . S
C4065 C4064 1.397 . S
C4065 C4066 1.334 . S
C4066 H4037 0.950 . S
C4066 C4065 1.334 . S
C4066 C4067 1.287 . S
C4067 C4066 1.287 . S
C4067 C4068 1.524 . S
C4067 H4070 0.999 . S
C4068 H4038 0.950 . S
C4068 C4067 1.524 . S
C4068 C4069 1.415 . S
C4069 H4039 0.950 . S
C4069 C4064 1.363 . S
C4069 C4068 1.415 . S
H4070 C4067 0.999 . S
H4071 C4052 0.913 . S
H4072 C4090 0.951 . S
H4073 C4092 0.951 . S
H4074 C4094 0.950 . S
H4075 C4095 0.950 . S
H4076 C4097 0.950 . S
H4077 C4100 0.950 . S
H4078 C4101 0.950 . S
H4079 C4103 0.950 . S
H4080 C4104 0.950 . S
H4081 C4105 0.951 . S
H4082 C4107 0.951 . S
H4083 C4109 0.950 . S
H4084 C4110 0.950 . S
H4085 C4112 0.950 . S
H4086 C4115 0.950 . S
H4087 C4116 0.950 . S
H4088 C4118 0.950 . S
H4089 C4119 0.950 . S
C4090 H4072 0.951 . S
C4090 C4091 1.366 . S
C4090 C4092 1.388 . S
C4091 C4090 1.366 . S
C4091 C4095 1.385 . S
C4092 H4073 0.951 . S
C4092 C4090 1.388 . S
C4092 C4093 1.366 . S
C4093 C4092 1.366 . S
C4093 C4094 1.414 . S
C4093 C4096 1.499 . S
C4094 H4074 0.950 . S
C4094 C4093 1.414 . S
C4094 C4095 1.374 . S
C4095 H4075 0.950 . S
C4095 C4091 1.385 . S
C4095 C4094 1.374 . S
C4096 C4093 1.499 . S
C4096 C4097 1.373 . S
C4096 C4098 1.389 . S
C4097 H4076 0.950 . S
C4097 C4096 1.373 . S
C4097 C4113 1.377 . S
C4098 C4096 1.389 . S
C4098 C4099 1.524 . S
C4098 C4112 1.377 . S
C4099 C4098 1.524 . S
C4099 C4100 1.397 . S
C4099 C4104 1.363 . S
C4100 H4077 0.950 . S
C4100 C4099 1.397 . S
C4100 C4101 1.334 . S
C4101 H4078 0.950 . S
C4101 C4100 1.334 . S
C4101 C4102 1.287 . S
C4102 C4101 1.287 . S
C4102 C4103 1.524 . S
C4102 H4121 0.913 . S
C4103 H4079 0.950 . S
C4103 C4102 1.524 . S
C4103 C4104 1.415 . S
C4104 H4080 0.950 . S
C4104 C4099 1.363 . S
C4104 C4103 1.415 . S
C4105 H4081 0.951 . S
C4105 C4106 1.366 . S
C4105 C4107 1.388 . S
C4106 C4105 1.366 . S
C4106 C4110 1.385 . S
C4107 H4082 0.951 . S
C4107 C4105 1.388 . S
C4107 C4108 1.366 . S
C4108 C4107 1.366 . S
C4108 C4109 1.414 . S
C4108 C4111 1.499 . S
C4109 H4083 0.950 . S
C4109 C4108 1.414 . S
C4109 C4110 1.374 . S
C4110 H4084 0.950 . S
C4110 C4106 1.385 . S
C4110 C4109 1.374 . S
C4111 C4108 1.499 . S
C4111 C4112 1.373 . S
C4111 C4113 1.389 . S
C4112 H4085 0.950 . S
C4112 C4098 1.377 . S
C4112 C4111 1.373 . S
C4113 C4097 1.377 . S
C4113 C4111 1.389 . S
C4113 C4114 1.524 . S
C4114 C4113 1.524 . S
C4114 C4115 1.397 . S
C4114 C4119 1.363 . S
C4115 H4086 0.950 . S
C4115 C4114 1.397 . S
C4115 C4116 1.334 . S
C4116 H4087 0.950 . S
C4116 C4115 1.334 . S
C4116 C4117 1.287 . S
C4117 C4116 1.287 . S
C4117 C4118 1.524 . S
C4117 H4120 0.999 . S
C4118 H4088 0.950 . S
C4118 C4117 1.524 . S
C4118 C4119 1.415 . S
C4119 H4089 0.950 . S
C4119 C4114 1.363 . S
C4119 C4118 1.415 . S
H4120 C4117 0.999 . S
H4121 C4102 0.913 . S
H4122 C4140 0.951 . S
H4123 C4142 0.951 . S
H4124 C4144 0.950 . S
H4125 C4145 0.950 . S
H4126 C4147 0.950 . S
H4127 C4150 0.950 . S
H4128 C4151 0.950 . S
H4129 C4153 0.950 . S
H4130 C4154 0.950 . S
H4131 C4155 0.951 . S
H4132 C4157 0.951 . S
H4133 C4159 0.950 . S
H4134 C4160 0.950 . S
H4135 C4162 0.950 . S
H4136 C4165 0.950 . S
H4137 C4166 0.950 . S
H4138 C4168 0.950 . S
H4139 C4169 0.950 . S
C4140 H4122 0.951 . S
C4140 C4141 1.366 . S
C4140 C4142 1.388 . S
C4141 C4140 1.366 . S
C4141 C4145 1.385 . S
C4142 H4123 0.951 . S
C4142 C4140 1.388 . S
C4142 C4143 1.366 . S
C4143 C4142 1.366 . S
C4143 C4144 1.414 . S
C4143 C4146 1.499 . S
C4144 H4124 0.950 . S
C4144 C4143 1.414 . S
C4144 C4145 1.374 . S
C4145 H4125 0.950 . S
C4145 C4141 1.385 . S
C4145 C4144 1.374 . S
C4146 C4143 1.499 . S
C4146 C4147 1.373 . S
C4146 C4148 1.389 . S
C4147 H4126 0.950 . S
C4147 C4146 1.373 . S
C4147 C4163 1.377 . S
C4148 C4146 1.389 . S
C4148 C4149 1.524 . S
C4148 C4162 1.377 . S
C4149 C4148 1.524 . S
C4149 C4150 1.397 . S
C4149 C4154 1.363 . S
C4150 H4127 0.950 . S
C4150 C4149 1.397 . S
C4150 C4151 1.334 . S
C4151 H4128 0.950 . S
C4151 C4150 1.334 . S
C4151 C4152 1.287 . S
C4152 C4151 1.287 . S
C4152 C4153 1.524 . S
C4152 H4171 0.913 . S
C4153 H4129 0.950 . S
C4153 C4152 1.524 . S
C4153 C4154 1.415 . S
C4154 H4130 0.950 . S
C4154 C4149 1.363 . S
C4154 C4153 1.415 . S
C4155 H4131 0.951 . S
C4155 C4156 1.366 . S
C4155 C4157 1.388 . S
C4156 C4155 1.366 . S
C4156 C4160 1.385 . S
C4157 H4132 0.951 . S
C4157 C4155 1.388 . S
C4157 C4158 1.366 . S
C4158 C4157 1.366 . S
C4158 C4159 1.414 . S
C4158 C4161 1.499 . S
C4159 H4133 0.950 . S
C4159 C4158 1.414 . S
C4159 C4160 1.374 . S
C4160 H4134 0.950 . S
C4160 C4156 1.385 . S
C4160 C4159 1.374 . S
C4161 C4158 1.499 . S
C4161 C4162 1.373 . S
C4161 C4163 1.389 . S
C4162 H4135 0.950 . S
C4162 C4148 1.377 . S
C4162 C4161 1.373 . S
C4163 C4147 1.377 . S
C4163 C4161 1.389 . S
C4163 C4164 1.524 . S
C4164 C4163 1.524 . S
C4164 C4165 1.397 . S
C4164 C4169 1.363 . S
C4165 H4136 0.950 . S
C4165 C4164 1.397 . S
C4165 C4166 1.334 . S
C4166 H4137 0.950 . S
C4166 C4165 1.334 . S
C4166 C4167 1.287 . S
C4167 C4166 1.287 . S
C4167 C4168 1.524 . S
C4167 H4170 0.999 . S
C4168 H4138 0.950 . S
C4168 C4167 1.524 . S
C4168 C4169 1.415 . S
C4169 H4139 0.950 . S
C4169 C4164 1.363 . S
C4169 C4168 1.415 . S
H4170 C4167 0.999 . S
H4171 C4152 0.913 . S
H4172 C4190 0.951 . S
H4173 C4192 0.951 . S
H4174 C4194 0.950 . S
H4175 C4195 0.950 . S
H4176 C4197 0.950 . S
H4177 C4200 0.950 . S
H4178 C4201 0.950 . S
H4179 C4203 0.950 . S
H4180 C4204 0.950 . S
H4181 C4205 0.951 . S
H4182 C4207 0.951 . S
H4183 C4209 0.950 . S
H4184 C4210 0.950 . S
H4185 C4212 0.950 . S
H4186 C4215 0.950 . S
H4187 C4216 0.950 . S
H4188 C4218 0.950 . S
H4189 C4219 0.950 . S
C4190 H4172 0.951 . S
C4190 C4191 1.366 . S
C4190 C4192 1.388 . S
C4191 C4190 1.366 . S
C4191 C4195 1.385 . S
C4192 H4173 0.951 . S
C4192 C4190 1.388 . S
C4192 C4193 1.366 . S
C4193 C4192 1.366 . S
C4193 C4194 1.414 . S
C4193 C4196 1.499 . S
C4194 H4174 0.950 . S
C4194 C4193 1.414 . S
C4194 C4195 1.374 . S
C4195 H4175 0.950 . S
C4195 C4191 1.385 . S
C4195 C4194 1.374 . S
C4196 C4193 1.499 . S
C4196 C4197 1.373 . S
C4196 C4198 1.389 . S
C4197 H4176 0.950 . S
C4197 C4196 1.373 . S
C4197 C4213 1.377 . S
C4198 C4196 1.389 . S
C4198 C4199 1.524 . S
C4198 C4212 1.377 . S
C4199 C4198 1.524 . S
C4199 C4200 1.397 . S
C4199 C4204 1.363 . S
C4200 H4177 0.950 . S
C4200 C4199 1.397 . S
C4200 C4201 1.334 . S
C4201 H4178 0.950 . S
C4201 C4200 1.334 . S
C4201 C4202 1.287 . S
C4202 C4201 1.287 . S
C4202 C4203 1.524 . S
C4202 H4221 0.913 . S
C4203 H4179 0.950 . S
C4203 C4202 1.524 . S
C4203 C4204 1.415 . S
C4204 H4180 0.950 . S
C4204 C4199 1.363 . S
C4204 C4203 1.415 . S
C4205 H4181 0.951 . S
C4205 C4206 1.366 . S
C4205 C4207 1.388 . S
C4206 C4205 1.366 . S
C4206 C4210 1.385 . S
C4207 H4182 0.951 . S
C4207 C4205 1.388 . S
C4207 C4208 1.366 . S
C4208 C4207 1.366 . S
C4208 C4209 1.414 . S
C4208 C4211 1.499 . S
C4209 H4183 0.950 . S
C4209 C4208 1.414 . S
C4209 C4210 1.374 . S
C4210 H4184 0.950 . S
C4210 C4206 1.385 . S
C4210 C4209 1.374 . S
C4211 C4208 1.499 . S
C4211 C4212 1.373 . S
C4211 C4213 1.389 . S
C4212 H4185 0.950 . S
C4212 C4198 1.377 . S
C4212 C4211 1.373 . S
C4213 C4197 1.377 . S
C4213 C4211 1.389 . S
C4213 C4214 1.524 . S
C4214 C4213 1.524 . S
C4214 C4215 1.397 . S
C4214 C4219 1.363 . S
C4215 H4186 0.950 . S
C4215 C4214 1.397 . S
C4215 C4216 1.334 . S
C4216 H4187 0.950 . S
C4216 C4215 1.334 . S
C4216 C4217 1.287 . S
C4217 C4216 1.287 . S
C4217 C4218 1.524 . S
C4217 H4220 0.999 . S
C4218 H4188 0.950 . S
C4218 C4217 1.524 . S
C4218 C4219 1.415 . S
C4219 H4189 0.950 . S
C4219 C4214 1.363 . S
C4219 C4218 1.415 . S
H4220 C4217 0.999 . S
H4221 C4202 0.913 . S
H4222 C4240 0.951 . S
H4223 C4242 0.951 . S
H4224 C4244 0.950 . S
H4225 C4245 0.950 . S
H4226 C4247 0.950 . S
H4227 C4250 0.950 . S
H4228 C4251 0.950 . S
H4229 C4253 0.950 . S
H4230 C4254 0.950 . S
H4231 C4255 0.951 . S
H4232 C4257 0.951 . S
H4233 C4259 0.950 . S
H4234 C4260 0.950 . S
H4235 C4262 0.950 . S
H4236 C4265 0.950 . S
H4237 C4266 0.950 . S
H4238 C4268 0.950 . S
H4239 C4269 0.950 . S
C4240 H4222 0.951 . S
C4240 C4241 1.366 . S
C4240 C4242 1.388 . S
C4241 C4240 1.366 . S
C4241 C4245 1.385 . S
C4242 H4223 0.951 . S
C4242 C4240 1.388 . S
C4242 C4243 1.366 . S
C4243 C4242 1.366 . S
C4243 C4244 1.414 . S
C4243 C4246 1.499 . S
C4244 H4224 0.950 . S
C4244 C4243 1.414 . S
C4244 C4245 1.374 . S
C4245 H4225 0.950 . S
C4245 C4241 1.385 . S
C4245 C4244 1.374 . S
C4246 C4243 1.499 . S
C4246 C4247 1.373 . S
C4246 C4248 1.389 . S
C4247 H4226 0.950 . S
C4247 C4246 1.373 . S
C4247 C4263 1.377 . S
C4248 C4246 1.389 . S
C4248 C4249 1.524 . S
C4248 C4262 1.377 . S
C4249 C4248 1.524 . S
C4249 C4250 1.397 . S
C4249 C4254 1.363 . S
C4250 H4227 0.950 . S
C4250 C4249 1.397 . S
C4250 C4251 1.334 . S
C4251 H4228 0.950 . S
C4251 C4250 1.334 . S
C4251 C4252 1.287 . S
C4252 C4251 1.287 . S
C4252 C4253 1.524 . S
C4252 H4271 0.913 . S
C4253 H4229 0.950 . S
C4253 C4252 1.524 . S
C4253 C4254 1.415 . S
C4254 H4230 0.950 . S
C4254 C4249 1.363 . S
C4254 C4253 1.415 . S
C4255 H4231 0.951 . S
C4255 C4256 1.366 . S
C4255 C4257 1.388 . S
C4256 C4255 1.366 . S
C4256 C4260 1.385 . S
C4257 H4232 0.951 . S
C4257 C4255 1.388 . S
C4257 C4258 1.366 . S
C4258 C4257 1.366 . S
C4258 C4259 1.414 . S
C4258 C4261 1.499 . S
C4259 H4233 0.950 . S
C4259 C4258 1.414 . S
C4259 C4260 1.374 . S
C4260 H4234 0.950 . S
C4260 C4256 1.385 . S
C4260 C4259 1.374 . S
C4261 C4258 1.499 . S
C4261 C4262 1.373 . S
C4261 C4263 1.389 . S
C4262 H4235 0.950 . S
C4262 C4248 1.377 . S
C4262 C4261 1.373 . S
C4263 C4247 1.377 . S
C4263 C4261 1.389 . S
C4263 C4264 1.524 . S
C4264 C4263 1.524 . S
C4264 C4265 1.397 . S
C4264 C4269 1.363 . S
C4265 H4236 0.950 . S
C4265 C4264 1.397 . S
C4265 C4266 1.334 . S
C4266 H4237 0.950 . S
C4266 C4265 1.334 . S
C4266 C4267 1.287 . S
C4267 C4266 1.287 . S
C4267 C4268 1.524 . S
C4267 H4270 0.999 . S
C4268 H4238 0.950 . S
C4268 C4267 1.524 . S
C4268 C4269 1.415 . S
C4269 H4239 0.950 . S
C4269 C4264 1.363 . S
C4269 C4268 1.415 . S
H4270 C4267 0.999 . S
H4271 C4252 0.913 . S
H4272 C4290 0.951 . S
H4273 C4292 0.951 . S
H4274 C4294 0.950 . S
H4275 C4295 0.950 . S
H4276 C4297 0.950 . S
H4277 C4300 0.950 . S
H4278 C4301 0.950 . S
H4279 C4303 0.950 . S
H4280 C4304 0.950 . S
H4281 C4305 0.951 . S
H4282 C4307 0.951 . S
H4283 C4309 0.950 . S
H4284 C4310 0.950 . S
H4285 C4312 0.950 . S
H4286 C4315 0.950 . S
H4287 C4316 0.950 . S
H4288 C4318 0.950 . S
H4289 C4319 0.950 . S
C4290 H4272 0.951 . S
C4290 C4291 1.366 . S
C4290 C4292 1.388 . S
C4291 C4290 1.366 . S
C4291 C4295 1.385 . S
C4292 H4273 0.951 . S
C4292 C4290 1.388 . S
C4292 C4293 1.366 . S
C4293 C4292 1.366 . S
C4293 C4294 1.414 . S
C4293 C4296 1.499 . S
C4294 H4274 0.950 . S
C4294 C4293 1.414 . S
C4294 C4295 1.374 . S
C4295 H4275 0.950 . S
C4295 C4291 1.385 . S
C4295 C4294 1.374 . S
C4296 C4293 1.499 . S
C4296 C4297 1.373 . S
C4296 C4298 1.389 . S
C4297 H4276 0.950 . S
C4297 C4296 1.373 . S
C4297 C4313 1.377 . S
C4298 C4296 1.389 . S
C4298 C4299 1.524 . S
C4298 C4312 1.377 . S
C4299 C4298 1.524 . S
C4299 C4300 1.397 . S
C4299 C4304 1.363 . S
C4300 H4277 0.950 . S
C4300 C4299 1.397 . S
C4300 C4301 1.334 . S
C4301 H4278 0.950 . S
C4301 C4300 1.334 . S
C4301 C4302 1.287 . S
C4302 C4301 1.287 . S
C4302 C4303 1.524 . S
C4302 H4321 0.913 . S
C4303 H4279 0.950 . S
C4303 C4302 1.524 . S
C4303 C4304 1.415 . S
C4304 H4280 0.950 . S
C4304 C4299 1.363 . S
C4304 C4303 1.415 . S
C4305 H4281 0.951 . S
C4305 C4306 1.366 . S
C4305 C4307 1.388 . S
C4306 C4305 1.366 . S
C4306 C4310 1.385 . S
C4307 H4282 0.951 . S
C4307 C4305 1.388 . S
C4307 C4308 1.366 . S
C4308 C4307 1.366 . S
C4308 C4309 1.414 . S
C4308 C4311 1.499 . S
C4309 H4283 0.950 . S
C4309 C4308 1.414 . S
C4309 C4310 1.374 . S
C4310 H4284 0.950 . S
C4310 C4306 1.385 . S
C4310 C4309 1.374 . S
C4311 C4308 1.499 . S
C4311 C4312 1.373 . S
C4311 C4313 1.389 . S
C4312 H4285 0.950 . S
C4312 C4298 1.377 . S
C4312 C4311 1.373 . S
C4313 C4297 1.377 . S
C4313 C4311 1.389 . S
C4313 C4314 1.524 . S
C4314 C4313 1.524 . S
C4314 C4315 1.397 . S
C4314 C4319 1.363 . S
C4315 H4286 0.950 . S
C4315 C4314 1.397 . S
C4315 C4316 1.334 . S
C4316 H4287 0.950 . S
C4316 C4315 1.334 . S
C4316 C4317 1.287 . S
C4317 C4316 1.287 . S
C4317 C4318 1.524 . S
C4317 H4320 0.999 . S
C4318 H4288 0.950 . S
C4318 C4317 1.524 . S
C4318 C4319 1.415 . S
C4319 H4289 0.950 . S
C4319 C4314 1.363 . S
C4319 C4318 1.415 . S
H4320 C4317 0.999 . S
H4321 C4302 0.913 . S
H4322 C4340 0.951 . S
H4323 C4342 0.951 . S
H4324 C4344 0.950 . S
H4325 C4345 0.950 . S
H4326 C4347 0.950 . S
H4327 C4350 0.950 . S
H4328 C4351 0.950 . S
H4329 C4353 0.950 . S
H4330 C4354 0.950 . S
H4331 C4355 0.951 . S
H4332 C4357 0.951 . S
H4333 C4359 0.950 . S
H4334 C4360 0.950 . S
H4335 C4362 0.950 . S
H4336 C4365 0.950 . S
H4337 C4366 0.950 . S
H4338 C4368 0.950 . S
H4339 C4369 0.950 . S
C4340 H4322 0.951 . S
C4340 C4341 1.366 . S
C4340 C4342 1.388 . S
C4341 C4340 1.366 . S
C4341 C4345 1.385 . S
C4342 H4323 0.951 . S
C4342 C4340 1.388 . S
C4342 C4343 1.366 . S
C4343 C4342 1.366 . S
C4343 C4344 1.414 . S
C4343 C4346 1.499 . S
C4344 H4324 0.950 . S
C4344 C4343 1.414 . S
C4344 C4345 1.374 . S
C4345 H4325 0.950 . S
C4345 C4341 1.385 . S
C4345 C4344 1.374 . S
C4346 C4343 1.499 . S
C4346 C4347 1.373 . S
C4346 C4348 1.389 . S
C4347 H4326 0.950 . S
C4347 C4346 1.373 . S
C4347 C4363 1.377 . S
C4348 C4346 1.389 . S
C4348 C4349 1.524 . S
C4348 C4362 1.377 . S
C4349 C4348 1.524 . S
C4349 C4350 1.397 . S
C4349 C4354 1.363 . S
C4350 H4327 0.950 . S
C4350 C4349 1.397 . S
C4350 C4351 1.334 . S
C4351 H4328 0.950 . S
C4351 C4350 1.334 . S
C4351 C4352 1.287 . S
C4352 C4351 1.287 . S
C4352 C4353 1.524 . S
C4352 H4371 0.913 . S
C4353 H4329 0.950 . S
C4353 C4352 1.524 . S
C4353 C4354 1.415 . S
C4354 H4330 0.950 . S
C4354 C4349 1.363 . S
C4354 C4353 1.415 . S
C4355 H4331 0.951 . S
C4355 C4356 1.366 . S
C4355 C4357 1.388 . S
C4356 C4355 1.366 . S
C4356 C4360 1.385 . S
C4357 H4332 0.951 . S
C4357 C4355 1.388 . S
C4357 C4358 1.366 . S
C4358 C4357 1.366 . S
C4358 C4359 1.414 . S
C4358 C4361 1.499 . S
C4359 H4333 0.950 . S
C4359 C4358 1.414 . S
C4359 C4360 1.374 . S
C4360 H4334 0.950 . S
C4360 C4356 1.385 . S
C4360 C4359 1.374 . S
C4361 C4358 1.499 . S
C4361 C4362 1.373 . S
C4361 C4363 1.389 . S
C4362 H4335 0.950 . S
C4362 C4348 1.377 . S
C4362 C4361 1.373 . S
C4363 C4347 1.377 . S
C4363 C4361 1.389 . S
C4363 C4364 1.524 . S
C4364 C4363 1.524 . S
C4364 C4365 1.397 . S
C4364 C4369 1.363 . S
C4365 H4336 0.950 . S
C4365 C4364 1.397 . S
C4365 C4366 1.334 . S
C4366 H4337 0.950 . S
C4366 C4365 1.334 . S
C4366 C4367 1.287 . S
C4367 C4366 1.287 . S
C4367 C4368 1.524 . S
C4367 H4370 0.999 . S
C4368 H4338 0.950 . S
C4368 C4367 1.524 . S
C4368 C4369 1.415 . S
C4369 H4339 0.950 . S
C4369 C4364 1.363 . S
C4369 C4368 1.415 . S
H4370 C4367 0.999 . S
H4371 C4352 0.913 . S
H4372 C4390 0.951 . S
H4373 C4392 0.951 . S
H4374 C4394 0.950 . S
H4375 C4395 0.950 . S
H4376 C4397 0.950 . S
H4377 C4400 0.950 . S
H4378 C4401 0.950 . S
H4379 C4403 0.950 . S
H4380 C4404 0.950 . S
H4381 C4405 0.951 . S
H4382 C4407 0.951 . S
H4383 C4409 0.950 . S
H4384 C4410 0.950 . S
H4385 C4412 0.950 . S
H4386 C4415 0.950 . S
H4387 C4416 0.950 . S
H4388 C4418 0.950 . S
H4389 C4419 0.950 . S
C4390 H4372 0.951 . S
C4390 C4391 1.366 . S
C4390 C4392 1.388 . S
C4391 C4390 1.366 . S
C4391 C4395 1.385 . S
C4392 H4373 0.951 . S
C4392 C4390 1.388 . S
C4392 C4393 1.366 . S
C4393 C4392 1.366 . S
C4393 C4394 1.414 . S
C4393 C4396 1.499 . S
C4394 H4374 0.950 . S
C4394 C4393 1.414 . S
C4394 C4395 1.374 . S
C4395 H4375 0.950 . S
C4395 C4391 1.385 . S
C4395 C4394 1.374 . S
C4396 C4393 1.499 . S
C4396 C4397 1.373 . S
C4396 C4398 1.389 . S
C4397 H4376 0.950 . S
C4397 C4396 1.373 . S
C4397 C4413 1.377 . S
C4398 C4396 1.389 . S
C4398 C4399 1.524 . S
C4398 C4412 1.377 . S
C4399 C4398 1.524 . S
C4399 C4400 1.397 . S
C4399 C4404 1.363 . S
C4400 H4377 0.950 . S
C4400 C4399 1.397 . S
C4400 C4401 1.334 . S
C4401 H4378 0.950 . S
C4401 C4400 1.334 . S
C4401 C4402 1.287 . S
C4402 C4401 1.287 . S
C4402 C4403 1.524 . S
C4402 H4421 0.913 . S
C4403 H4379 0.950 . S
C4403 C4402 1.524 . S
C4403 C4404 1.415 . S
C4404 H4380 0.950 . S
C4404 C4399 1.363 . S
C4404 C4403 1.415 . S
C4405 H4381 0.951 . S
C4405 C4406 1.366 . S
C4405 C4407 1.388 . S
C4406 C4405 1.366 . S
C4406 C4410 1.385 . S
C4407 H4382 0.951 . S
C4407 C4405 1.388 . S
C4407 C4408 1.366 . S
C4408 C4407 1.366 . S
C4408 C4409 1.414 . S
C4408 C4411 1.499 . S
C4409 H4383 0.950 . S
C4409 C4408 1.414 . S
C4409 C4410 1.374 . S
C4410 H4384 0.950 . S
C4410 C4406 1.385 . S
C4410 C4409 1.374 . S
C4411 C4408 1.499 . S
C4411 C4412 1.373 . S
C4411 C4413 1.389 . S
C4412 H4385 0.950 . S
C4412 C4398 1.377 . S
C4412 C4411 1.373 . S
C4413 C4397 1.377 . S
C4413 C4411 1.389 . S
C4413 C4414 1.524 . S
C4414 C4413 1.524 . S
C4414 C4415 1.397 . S
C4414 C4419 1.363 . S
C4415 H4386 0.950 . S
C4415 C4414 1.397 . S
C4415 C4416 1.334 . S
C4416 H4387 0.950 . S
C4416 C4415 1.334 . S
C4416 C4417 1.287 . S
C4417 C4416 1.287 . S
C4417 C4418 1.524 . S
C4417 H4420 0.999 . S
C4418 H4388 0.950 . S
C4418 C4417 1.524 . S
C4418 C4419 1.415 . S
C4419 H4389 0.950 . S
C4419 C4414 1.363 . S
C4419 C4418 1.415 . S
H4420 C4417 0.999 . S
H4421 C4402 0.913 . S
H4422 C4440 0.951 . S
H4423 C4442 0.951 . S
H4424 C4444 0.950 . S
H4425 C4445 0.950 . S
H4426 C4447 0.950 . S
H4427 C4450 0.950 . S
H4428 C4451 0.950 . S
H4429 C4453 0.950 . S
H4430 C4454 0.950 . S
H4431 C4455 0.951 . S
H4432 C4457 0.951 . S
H4433 C4459 0.950 . S
H4434 C4460 0.950 . S
H4435 C4462 0.950 . S
H4436 C4465 0.950 . S
H4437 C4466 0.950 . S
H4438 C4468 0.950 . S
H4439 C4469 0.950 . S
C4440 H4422 0.951 . S
C4440 C4441 1.366 . S
C4440 C4442 1.388 . S
C4441 C4440 1.366 . S
C4441 C4445 1.385 . S
C4442 H4423 0.951 . S
C4442 C4440 1.388 . S
C4442 C4443 1.366 . S
C4443 C4442 1.366 . S
C4443 C4444 1.414 . S
C4443 C4446 1.499 . S
C4444 H4424 0.950 . S
C4444 C4443 1.414 . S
C4444 C4445 1.374 . S
C4445 H4425 0.950 . S
C4445 C4441 1.385 . S
C4445 C4444 1.374 . S
C4446 C4443 1.499 . S
C4446 C4447 1.373 . S
C4446 C4448 1.389 . S
C4447 H4426 0.950 . S
C4447 C4446 1.373 . S
C4447 C4463 1.377 . S
C4448 C4446 1.389 . S
C4448 C4449 1.524 . S
C4448 C4462 1.377 . S
C4449 C4448 1.524 . S
C4449 C4450 1.397 . S
C4449 C4454 1.363 . S
C4450 H4427 0.950 . S
C4450 C4449 1.397 . S
C4450 C4451 1.334 . S
C4451 H4428 0.950 . S
C4451 C4450 1.334 . S
C4451 C4452 1.287 . S
C4452 C4451 1.287 . S
C4452 C4453 1.524 . S
C4452 H4471 0.913 . S
C4453 H4429 0.950 . S
C4453 C4452 1.524 . S
C4453 C4454 1.415 . S
C4454 H4430 0.950 . S
C4454 C4449 1.363 . S
C4454 C4453 1.415 . S
C4455 H4431 0.951 . S
C4455 C4456 1.366 . S
C4455 C4457 1.388 . S
C4456 C4455 1.366 . S
C4456 C4460 1.385 . S
C4457 H4432 0.951 . S
C4457 C4455 1.388 . S
C4457 C4458 1.366 . S
C4458 C4457 1.366 . S
C4458 C4459 1.414 . S
C4458 C4461 1.499 . S
C4459 H4433 0.950 . S
C4459 C4458 1.414 . S
C4459 C4460 1.374 . S
C4460 H4434 0.950 . S
C4460 C4456 1.385 . S
C4460 C4459 1.374 . S
C4461 C4458 1.499 . S
C4461 C4462 1.373 . S
C4461 C4463 1.389 . S
C4462 H4435 0.950 . S
C4462 C4448 1.377 . S
C4462 C4461 1.373 . S
C4463 C4447 1.377 . S
C4463 C4461 1.389 . S
C4463 C4464 1.524 . S
C4464 C4463 1.524 . S
C4464 C4465 1.397 . S
C4464 C4469 1.363 . S
C4465 H4436 0.950 . S
C4465 C4464 1.397 . S
C4465 C4466 1.334 . S
C4466 H4437 0.950 . S
C4466 C4465 1.334 . S
C4466 C4467 1.287 . S
C4467 C4466 1.287 . S
C4467 C4468 1.524 . S
C4467 H4470 0.999 . S
C4468 H4438 0.950 . S
C4468 C4467 1.524 . S
C4468 C4469 1.415 . S
C4469 H4439 0.950 . S
C4469 C4464 1.363 . S
C4469 C4468 1.415 . S
H4470 C4467 0.999 . S
H4471 C4452 0.913 . S
H4472 C4490 0.951 . S
H4473 C4492 0.951 . S
H4474 C4494 0.950 . S
H4475 C4495 0.950 . S
H4476 C4497 0.950 . S
H4477 C4500 0.950 . S
H4478 C4501 0.950 . S
H4479 C4503 0.950 . S
H4480 C4504 0.950 . S
H4481 C4505 0.951 . S
H4482 C4507 0.951 . S
H4483 C4509 0.950 . S
H4484 C4510 0.950 . S
H4485 C4512 0.950 . S
H4486 C4515 0.950 . S
H4487 C4516 0.950 . S
H4488 C4518 0.950 . S
H4489 C4519 0.950 . S
C4490 H4472 0.951 . S
C4490 C4491 1.366 . S
C4490 C4492 1.388 . S
C4491 C4490 1.366 . S
C4491 C4495 1.385 . S
C4492 H4473 0.951 . S
C4492 C4490 1.388 . S
C4492 C4493 1.366 . S
C4493 C4492 1.366 . S
C4493 C4494 1.414 . S
C4493 C4496 1.499 . S
C4494 H4474 0.950 . S
C4494 C4493 1.414 . S
C4494 C4495 1.374 . S
C4495 H4475 0.950 . S
C4495 C4491 1.385 . S
C4495 C4494 1.374 . S
C4496 C4493 1.499 . S
C4496 C4497 1.373 . S
C4496 C4498 1.389 . S
C4497 H4476 0.950 . S
C4497 C4496 1.373 . S
C4497 C4513 1.377 . S
C4498 C4496 1.389 . S
C4498 C4499 1.524 . S
C4498 C4512 1.377 . S
C4499 C4498 1.524 . S
C4499 C4500 1.397 . S
C4499 C4504 1.363 . S
C4500 H4477 0.950 . S
C4500 C4499 1.397 . S
C4500 C4501 1.334 . S
C4501 H4478 0.950 . S
C4501 C4500 1.334 . S
C4501 C4502 1.287 . S
C4502 C4501 1.287 . S
C4502 C4503 1.524 . S
C4502 H4521 0.913 . S
C4503 H4479 0.950 . S
C4503 C4502 1.524 . S
C4503 C4504 1.415 . S
C4504 H4480 0.950 . S
C4504 C4499 1.363 . S
C4504 C4503 1.415 . S
C4505 H4481 0.951 . S
C4505 C4506 1.366 . S
C4505 C4507 1.388 . S
C4506 C4505 1.366 . S
C4506 C4510 1.385 . S
C4507 H4482 0.951 . S
C4507 C4505 1.388 . S
C4507 C4508 1.366 . S
C4508 C4507 1.366 . S
C4508 C4509 1.414 . S
C4508 C4511 1.499 . S
C4509 H4483 0.950 . S
C4509 C4508 1.414 . S
C4509 C4510 1.374 . S
C4510 H4484 0.950 . S
C4510 C4506 1.385 . S
C4510 C4509 1.374 . S
C4511 C4508 1.499 . S
C4511 C4512 1.373 . S
C4511 C4513 1.389 . S
C4512 H4485 0.950 . S
C4512 C4498 1.377 . S
C4512 C4511 1.373 . S
C4513 C4497 1.377 . S
C4513 C4511 1.389 . S
C4513 C4514 1.524 . S
C4514 C4513 1.524 . S
C4514 C4515 1.397 . S
C4514 C4519 1.363 . S
C4515 H4486 0.950 . S
C4515 C4514 1.397 . S
C4515 C4516 1.334 . S
C4516 H4487 0.950 . S
C4516 C4515 1.334 . S
C4516 C4517 1.287 . S
C4517 C4516 1.287 . S
C4517 C4518 1.524 . S
C4517 H4520 0.999 . S
C4518 H4488 0.950 . S
C4518 C4517 1.524 . S
C4518 C4519 1.415 . S
C4519 H4489 0.950 . S
C4519 C4514 1.363 . S
C4519 C4518 1.415 . S
H4520 C4517 0.999 . S
H4521 C4502 0.913 . S
H4522 C4540 0.951 . S
H4523 C4542 0.951 . S
H4524 C4544 0.950 . S
H4525 C4545 0.950 . S
H4526 C4547 0.950 . S
H4527 C4550 0.950 . S
H4528 C4551 0.950 . S
H4529 C4553 0.950 . S
H4530 C4554 0.950 . S
H4531 C4555 0.951 . S
H4532 C4557 0.951 . S
H4533 C4559 0.950 . S
H4534 C4560 0.950 . S
H4535 C4562 0.950 . S
H4536 C4565 0.950 . S
H4537 C4566 0.950 . S
H4538 C4568 0.950 . S
H4539 C4569 0.950 . S
C4540 H4522 0.951 . S
C4540 C4541 1.366 . S
C4540 C4542 1.388 . S
C4541 C4540 1.366 . S
C4541 C4545 1.385 . S
C4542 H4523 0.951 . S
C4542 C4540 1.388 . S
C4542 C4543 1.366 . S
C4543 C4542 1.366 . S
C4543 C4544 1.414 . S
C4543 C4546 1.499 . S
C4544 H4524 0.950 . S
C4544 C4543 1.414 . S
C4544 C4545 1.374 . S
C4545 H4525 0.950 . S
C4545 C4541 1.385 . S
C4545 C4544 1.374 . S
C4546 C4543 1.499 . S
C4546 C4547 1.373 . S
C4546 C4548 1.389 . S
C4547 H4526 0.950 . S
C4547 C4546 1.373 . S
C4547 C4563 1.377 . S
C4548 C4546 1.389 . S
C4548 C4549 1.524 . S
C4548 C4562 1.377 . S
C4549 C4548 1.524 . S
C4549 C4550 1.397 . S
C4549 C4554 1.363 . S
C4550 H4527 0.950 . S
C4550 C4549 1.397 . S
C4550 C4551 1.334 . S
C4551 H4528 0.950 . S
C4551 C4550 1.334 . S
C4551 C4552 1.287 . S
C4552 C4551 1.287 . S
C4552 C4553 1.524 . S
C4552 H4571 0.913 . S
C4553 H4529 0.950 . S
C4553 C4552 1.524 . S
C4553 C4554 1.415 . S
C4554 H4530 0.950 . S
C4554 C4549 1.363 . S
C4554 C4553 1.415 . S
C4555 H4531 0.951 . S
C4555 C4556 1.366 . S
C4555 C4557 1.388 . S
C4556 C4555 1.366 . S
C4556 C4560 1.385 . S
C4557 H4532 0.951 . S
C4557 C4555 1.388 . S
C4557 C4558 1.366 . S
C4558 C4557 1.366 . S
C4558 C4559 1.414 . S
C4558 C4561 1.499 . S
C4559 H4533 0.950 . S
C4559 C4558 1.414 . S
C4559 C4560 1.374 . S
C4560 H4534 0.950 . S
C4560 C4556 1.385 . S
C4560 C4559 1.374 . S
C4561 C4558 1.499 . S
C4561 C4562 1.373 . S
C4561 C4563 1.389 . S
C4562 H4535 0.950 . S
C4562 C4548 1.377 . S
C4562 C4561 1.373 . S
C4563 C4547 1.377 . S
C4563 C4561 1.389 . S
C4563 C4564 1.524 . S
C4564 C4563 1.524 . S
C4564 C4565 1.397 . S
C4564 C4569 1.363 . S
C4565 H4536 0.950 . S
C4565 C4564 1.397 . S
C4565 C4566 1.334 . S
C4566 H4537 0.950 . S
C4566 C4565 1.334 . S
C4566 C4567 1.287 . S
C4567 C4566 1.287 . S
C4567 C4568 1.524 . S
C4567 H4570 0.999 . S
C4568 H4538 0.950 . S
C4568 C4567 1.524 . S
C4568 C4569 1.415 . S
C4569 H4539 0.950 . S
C4569 C4564 1.363 . S
C4569 C4568 1.415 . S
H4570 C4567 0.999 . S
H4571 C4552 0.913 . S
H4572 C4590 0.951 . S
H4573 C4592 0.951 . S
H4574 C4594 0.950 . S
H4575 C4595 0.950 . S
H4576 C4597 0.950 . S
H4577 C4600 0.950 . S
H4578 C4601 0.950 . S
H4579 C4603 0.950 . S
H4580 C4604 0.950 . S
H4581 C4605 0.951 . S
H4582 C4607 0.951 . S
H4583 C4609 0.950 . S
H4584 C4610 0.950 . S
H4585 C4612 0.950 . S
H4586 C4615 0.950 . S
H4587 C4616 0.950 . S
H4588 C4618 0.950 . S
H4589 C4619 0.950 . S
C4590 H4572 0.951 . S
C4590 C4591 1.366 . S
C4590 C4592 1.388 . S
C4591 C4590 1.366 . S
C4591 C4595 1.385 . S
C4592 H4573 0.951 . S
C4592 C4590 1.388 . S
C4592 C4593 1.366 . S
C4593 C4592 1.366 . S
C4593 C4594 1.414 . S
C4593 C4596 1.499 . S
C4594 H4574 0.950 . S
C4594 C4593 1.414 . S
C4594 C4595 1.374 . S
C4595 H4575 0.950 . S
C4595 C4591 1.385 . S
C4595 C4594 1.374 . S
C4596 C4593 1.499 . S
C4596 C4597 1.373 . S
C4596 C4598 1.389 . S
C4597 H4576 0.950 . S
C4597 C4596 1.373 . S
C4597 C4613 1.377 . S
C4598 C4596 1.389 . S
C4598 C4599 1.524 . S
C4598 C4612 1.377 . S
C4599 C4598 1.524 . S
C4599 C4600 1.397 . S
C4599 C4604 1.363 . S
C4600 H4577 0.950 . S
C4600 C4599 1.397 . S
C4600 C4601 1.334 . S
C4601 H4578 0.950 . S
C4601 C4600 1.334 . S
C4601 C4602 1.287 . S
C4602 C4601 1.287 . S
C4602 C4603 1.524 . S
C4602 H4621 0.913 . S
C4603 H4579 0.950 . S
C4603 C4602 1.524 . S
C4603 C4604 1.415 . S
C4604 H4580 0.950 . S
C4604 C4599 1.363 . S
C4604 C4603 1.415 . S
C4605 H4581 0.951 . S
C4605 C4606 1.366 . S
C4605 C4607 1.388 . S
C4606 C4605 1.366 . S
C4606 C4610 1.385 . S
C4607 H4582 0.951 . S
C4607 C4605 1.388 . S
C4607 C4608 1.366 . S
C4608 C4607 1.366 . S
C4608 C4609 1.414 . S
C4608 C4611 1.499 . S
C4609 H4583 0.950 . S
C4609 C4608 1.414 . S
C4609 C4610 1.374 . S
C4610 H4584 0.950 . S
C4610 C4606 1.385 . S
C4610 C4609 1.374 . S
C4611 C4608 1.499 . S
C4611 C4612 1.373 . S
C4611 C4613 1.389 . S
C4612 H4585 0.950 . S
C4612 C4598 1.377 . S
C4612 C4611 1.373 . S
C4613 C4597 1.377 . S
C4613 C4611 1.389 . S
C4613 C4614 1.524 . S
C4614 C4613 1.524 . S
C4614 C4615 1.397 . S
C4614 C4619 1.363 . S
C4615 H4586 0.950 . S
C4615 C4614 1.397 . S
C4615 C4616 1.334 . S
C4616 H4587 0.950 . S
C4616 C4615 1.334 . S
C4616 C4617 1.287 . S
C4617 C4616 1.287 . S
C4617 C4618 1.524 . S
C4617 H4620 0.999 . S
C4618 H4588 0.950 . S
C4618 C4617 1.524 . S
C4618 C4619 1.415 . S
C4619 H4589 0.950 . S
C4619 C4614 1.363 . S
C4619 C4618 1.415 . S
H4620 C4617 0.999 . S
H4621 C4602 0.913 . S
H4622 C4640 0.951 . S
H4623 C4642 0.951 . S
H4624 C4644 0.950 . S
H4625 C4645 0.950 . S
H4626 C4647 0.950 . S
H4627 C4650 0.950 . S
H4628 C4651 0.950 . S
H4629 C4653 0.950 . S
H4630 C4654 0.950 . S
H4631 C4655 0.951 . S
H4632 C4657 0.951 . S
H4633 C4659 0.950 . S
H4634 C4660 0.950 . S
H4635 C4662 0.950 . S
H4636 C4665 0.950 . S
H4637 C4666 0.950 . S
H4638 C4668 0.950 . S
H4639 C4669 0.950 . S
C4640 H4622 0.951 . S
C4640 C4641 1.366 . S
C4640 C4642 1.388 . S
C4641 C4640 1.366 . S
C4641 C4645 1.385 . S
C4642 H4623 0.951 . S
C4642 C4640 1.388 . S
C4642 C4643 1.366 . S
C4643 C4642 1.366 . S
C4643 C4644 1.414 . S
C4643 C4646 1.499 . S
C4644 H4624 0.950 . S
C4644 C4643 1.414 . S
C4644 C4645 1.374 . S
C4645 H4625 0.950 . S
C4645 C4641 1.385 . S
C4645 C4644 1.374 . S
C4646 C4643 1.499 . S
C4646 C4647 1.373 . S
C4646 C4648 1.389 . S
C4647 H4626 0.950 . S
C4647 C4646 1.373 . S
C4647 C4663 1.377 . S
C4648 C4646 1.389 . S
C4648 C4649 1.524 . S
C4648 C4662 1.377 . S
C4649 C4648 1.524 . S
C4649 C4650 1.397 . S
C4649 C4654 1.363 . S
C4650 H4627 0.950 . S
C4650 C4649 1.397 . S
C4650 C4651 1.334 . S
C4651 H4628 0.950 . S
C4651 C4650 1.334 . S
C4651 C4652 1.287 . S
C4652 C4651 1.287 . S
C4652 C4653 1.524 . S
C4652 H4671 0.913 . S
C4653 H4629 0.950 . S
C4653 C4652 1.524 . S
C4653 C4654 1.415 . S
C4654 H4630 0.950 . S
C4654 C4649 1.363 . S
C4654 C4653 1.415 . S
C4655 H4631 0.951 . S
C4655 C4656 1.366 . S
C4655 C4657 1.388 . S
C4656 C4655 1.366 . S
C4656 C4660 1.385 . S
C4657 H4632 0.951 . S
C4657 C4655 1.388 . S
C4657 C4658 1.366 . S
C4658 C4657 1.366 . S
C4658 C4659 1.414 . S
C4658 C4661 1.499 . S
C4659 H4633 0.950 . S
C4659 C4658 1.414 . S
C4659 C4660 1.374 . S
C4660 H4634 0.950 . S
C4660 C4656 1.385 . S
C4660 C4659 1.374 . S
C4661 C4658 1.499 . S
C4661 C4662 1.373 . S
C4661 C4663 1.389 . S
C4662 H4635 0.950 . S
C4662 C4648 1.377 . S
C4662 C4661 1.373 . S
C4663 C4647 1.377 . S
C4663 C4661 1.389 . S
C4663 C4664 1.524 . S
C4664 C4663 1.524 . S
C4664 C4665 1.397 . S
C4664 C4669 1.363 . S
C4665 H4636 0.950 . S
C4665 C4664 1.397 . S
C4665 C4666 1.334 . S
C4666 H4637 0.950 . S
C4666 C4665 1.334 . S
C4666 C4667 1.287 . S
C4667 C4666 1.287 . S
C4667 C4668 1.524 . S
C4667 H4670 0.999 . S
C4668 H4638 0.950 . S
C4668 C4667 1.524 . S
C4668 C4669 1.415 . S
C4669 H4639 0.950 . S
C4669 C4664 1.363 . S
C4669 C4668 1.415 . S
H4670 C4667 0.999 . S
H4671 C4652 0.913 . S
H4672 C4690 0.951 . S
H4673 C4692 0.951 . S
H4674 C4694 0.950 . S
H4675 C4695 0.950 . S
H4676 C4697 0.950 . S
H4677 C4700 0.950 . S
H4678 C4701 0.950 . S
H4679 C4703 0.950 . S
H4680 C4704 0.950 . S
H4681 C4705 0.951 . S
H4682 C4707 0.951 . S
H4683 C4709 0.950 . S
H4684 C4710 0.950 . S
H4685 C4712 0.950 . S
H4686 C4715 0.950 . S
H4687 C4716 0.950 . S
H4688 C4718 0.950 . S
H4689 C4719 0.950 . S
C4690 H4672 0.951 . S
C4690 C4691 1.366 . S
C4690 C4692 1.388 . S
C4691 C4690 1.366 . S
C4691 C4695 1.385 . S
C4692 H4673 0.951 . S
C4692 C4690 1.388 . S
C4692 C4693 1.366 . S
C4693 C4692 1.366 . S
C4693 C4694 1.414 . S
C4693 C4696 1.499 . S
C4694 H4674 0.950 . S
C4694 C4693 1.414 . S
C4694 C4695 1.374 . S
C4695 H4675 0.950 . S
C4695 C4691 1.385 . S
C4695 C4694 1.374 . S
C4696 C4693 1.499 . S
C4696 C4697 1.373 . S
C4696 C4698 1.389 . S
C4697 H4676 0.950 . S
C4697 C4696 1.373 . S
C4697 C4713 1.377 . S
C4698 C4696 1.389 . S
C4698 C4699 1.524 . S
C4698 C4712 1.377 . S
C4699 C4698 1.524 . S
C4699 C4700 1.397 . S
C4699 C4704 1.363 . S
C4700 H4677 0.950 . S
C4700 C4699 1.397 . S
C4700 C4701 1.334 . S
C4701 H4678 0.950 . S
C4701 C4700 1.334 . S
C4701 C4702 1.287 . S
C4702 C4701 1.287 . S
C4702 C4703 1.524 . S
C4702 H4721 0.913 . S
C4703 H4679 0.950 . S
C4703 C4702 1.524 . S
C4703 C4704 1.415 . S
C4704 H4680 0.950 . S
C4704 C4699 1.363 . S
C4704 C4703 1.415 . S
C4705 H4681 0.951 . S
C4705 C4706 1.366 . S
C4705 C4707 1.388 . S
C4706 C4705 1.366 . S
C4706 C4710 1.385 . S
C4707 H4682 0.951 . S
C4707 C4705 1.388 . S
C4707 C4708 1.366 . S
C4708 C4707 1.366 . S
C4708 C4709 1.414 . S
C4708 C4711 1.499 . S
C4709 H4683 0.950 . S
C4709 C4708 1.414 . S
C4709 C4710 1.374 . S
C4710 H4684 0.950 . S
C4710 C4706 1.385 . S
C4710 C4709 1.374 . S
C4711 C4708 1.499 . S
C4711 C4712 1.373 . S
C4711 C4713 1.389 . S
C4712 H4685 0.950 . S
C4712 C4698 1.377 . S
C4712 C4711 1.373 . S
C4713 C4697 1.377 . S
C4713 C4711 1.389 . S
C4713 C4714 1.524 . S
C4714 C4713 1.524 . S
C4714 C4715 1.397 . S
C4714 C4719 1.363 . S
C4715 H4686 0.950 . S
C4715 C4714 1.397 . S
C4715 C4716 1.334 . S
C4716 H4687 0.950 . S
C4716 C4715 1.334 . S
C4716 C4717 1.287 . S
C4717 C4716 1.287 . S
C4717 C4718 1.524 . S
C4717 H4720 0.999 . S
C4718 H4688 0.950 . S
C4718 C4717 1.524 . S
C4718 C4719 1.415 . S
C4719 H4689 0.950 . S
C4719 C4714 1.363 . S
C4719 C4718 1.415 . S
H4720 C4717 0.999 . S
H4721 C4702 0.913 . S
H4722 C4740 0.951 . S
H4723 C4742 0.951 . S
H4724 C4744 0.950 . S
H4725 C4745 0.950 . S
H4726 C4747 0.950 . S
H4727 C4750 0.950 . S
H4728 C4751 0.950 . S
H4729 C4753 0.950 . S
H4730 C4754 0.950 . S
H4731 C4755 0.951 . S
H4732 C4757 0.951 . S
H4733 C4759 0.950 . S
H4734 C4760 0.950 . S
H4735 C4762 0.950 . S
H4736 C4765 0.950 . S
H4737 C4766 0.950 . S
H4738 C4768 0.950 . S
H4739 C4769 0.950 . S
C4740 H4722 0.951 . S
C4740 C4741 1.366 . S
C4740 C4742 1.388 . S
C4741 C4740 1.366 . S
C4741 C4745 1.385 . S
C4742 H4723 0.951 . S
C4742 C4740 1.388 . S
C4742 C4743 1.366 . S
C4743 C4742 1.366 . S
C4743 C4744 1.414 . S
C4743 C4746 1.499 . S
C4744 H4724 0.950 . S
C4744 C4743 1.414 . S
C4744 C4745 1.374 . S
C4745 H4725 0.950 . S
C4745 C4741 1.385 . S
C4745 C4744 1.374 . S
C4746 C4743 1.499 . S
C4746 C4747 1.373 . S
C4746 C4748 1.389 . S
C4747 H4726 0.950 . S
C4747 C4746 1.373 . S
C4747 C4763 1.377 . S
C4748 C4746 1.389 . S
C4748 C4749 1.524 . S
C4748 C4762 1.377 . S
C4749 C4748 1.524 . S
C4749 C4750 1.397 . S
C4749 C4754 1.363 . S
C4750 H4727 0.950 . S
C4750 C4749 1.397 . S
C4750 C4751 1.334 . S
C4751 H4728 0.950 . S
C4751 C4750 1.334 . S
C4751 C4752 1.287 . S
C4752 C4751 1.287 . S
C4752 C4753 1.524 . S
C4752 H4771 0.913 . S
C4753 H4729 0.950 . S
C4753 C4752 1.524 . S
C4753 C4754 1.415 . S
C4754 H4730 0.950 . S
C4754 C4749 1.363 . S
C4754 C4753 1.415 . S
C4755 H4731 0.951 . S
C4755 C4756 1.366 . S
C4755 C4757 1.388 . S
C4756 C4755 1.366 . S
C4756 C4760 1.385 . S
C4757 H4732 0.951 . S
C4757 C4755 1.388 . S
C4757 C4758 1.366 . S
C4758 C4757 1.366 . S
C4758 C4759 1.414 . S
C4758 C4761 1.499 . S
C4759 H4733 0.950 . S
C4759 C4758 1.414 . S
C4759 C4760 1.374 . S
C4760 H4734 0.950 . S
C4760 C4756 1.385 . S
C4760 C4759 1.374 . S
C4761 C4758 1.499 . S
C4761 C4762 1.373 . S
C4761 C4763 1.389 . S
C4762 H4735 0.950 . S
C4762 C4748 1.377 . S
C4762 C4761 1.373 . S
C4763 C4747 1.377 . S
C4763 C4761 1.389 . S
C4763 C4764 1.524 . S
C4764 C4763 1.524 . S
C4764 C4765 1.397 . S
C4764 C4769 1.363 . S
C4765 H4736 0.950 . S
C4765 C4764 1.397 . S
C4765 C4766 1.334 . S
C4766 H4737 0.950 . S
C4766 C4765 1.334 . S
C4766 C4767 1.287 . S
C4767 C4766 1.287 . S
C4767 C4768 1.524 . S
C4767 H4770 0.999 . S
C4768 H4738 0.950 . S
C4768 C4767 1.524 . S
C4768 C4769 1.415 . S
C4769 H4739 0.950 . S
C4769 C4764 1.363 . S
C4769 C4768 1.415 . S
H4770 C4767 0.999 . S
H4771 C4752 0.913 . S
H4772 C4790 0.951 . S
H4773 C4792 0.951 . S
H4774 C4794 0.950 . S
H4775 C4795 0.950 . S
H4776 C4797 0.950 . S
H4777 C4800 0.950 . S
H4778 C4801 0.950 . S
H4779 C4803 0.950 . S
H4780 C4804 0.950 . S
H4781 C4805 0.951 . S
H4782 C4807 0.951 . S
H4783 C4809 0.950 . S
H4784 C4810 0.950 . S
H4785 C4812 0.950 . S
H4786 C4815 0.950 . S
H4787 C4816 0.950 . S
H4788 C4818 0.950 . S
H4789 C4819 0.950 . S
C4790 H4772 0.951 . S
C4790 C4791 1.366 . S
C4790 C4792 1.388 . S
C4791 C4790 1.366 . S
C4791 C4795 1.385 . S
C4792 H4773 0.951 . S
C4792 C4790 1.388 . S
C4792 C4793 1.366 . S
C4793 C4792 1.366 . S
C4793 C4794 1.414 . S
C4793 C4796 1.499 . S
C4794 H4774 0.950 . S
C4794 C4793 1.414 . S
C4794 C4795 1.374 . S
C4795 H4775 0.950 . S
C4795 C4791 1.385 . S
C4795 C4794 1.374 . S
C4796 C4793 1.499 . S
C4796 C4797 1.373 . S
C4796 C4798 1.389 . S
C4797 H4776 0.950 . S
C4797 C4796 1.373 . S
C4797 C4813 1.377 . S
C4798 C4796 1.389 . S
C4798 C4799 1.524 . S
C4798 C4812 1.377 . S
C4799 C4798 1.524 . S
C4799 C4800 1.397 . S
C4799 C4804 1.363 . S
C4800 H4777 0.950 . S
C4800 C4799 1.397 . S
C4800 C4801 1.334 . S
C4801 H4778 0.950 . S
C4801 C4800 1.334 . S
C4801 C4802 1.287 . S
C4802 C4801 1.287 . S
C4802 C4803 1.524 . S
C4802 H4821 0.913 . S
C4803 H4779 0.950 . S
C4803 C4802 1.524 . S
C4803 C4804 1.415 . S
C4804 H4780 0.950 . S
C4804 C4799 1.363 . S
C4804 C4803 1.415 . S
C4805 H4781 0.951 . S
C4805 C4806 1.366 . S
C4805 C4807 1.388 . S
C4806 C4805 1.366 . S
C4806 C4810 1.385 . S
C4807 H4782 0.951 . S
C4807 C4805 1.388 . S
C4807 C4808 1.366 . S
C4808 C4807 1.366 . S
C4808 C4809 1.414 . S
C4808 C4811 1.499 . S
C4809 H4783 0.950 . S
C4809 C4808 1.414 . S
C4809 C4810 1.374 . S
C4810 H4784 0.950 . S
C4810 C4806 1.385 . S
C4810 C4809 1.374 . S
C4811 C4808 1.499 . S
C4811 C4812 1.373 . S
C4811 C4813 1.389 . S
C4812 H4785 0.950 . S
C4812 C4798 1.377 . S
C4812 C4811 1.373 . S
C4813 C4797 1.377 . S
C4813 C4811 1.389 . S
C4813 C4814 1.524 . S
C4814 C4813 1.524 . S
C4814 C4815 1.397 . S
C4814 C4819 1.363 . S
C4815 H4786 0.950 . S
C4815 C4814 1.397 . S
C4815 C4816 1.334 . S
C4816 H4787 0.950 . S
C4816 C4815 1.334 . S
C4816 C4817 1.287 . S
C4817 C4816 1.287 . S
C4817 C4818 1.524 . S
C4817 H4820 0.999 . S
C4818 H4788 0.950 . S
C4818 C4817 1.524 . S
C4818 C4819 1.415 . S
C4819 H4789 0.950 . S
C4819 C4814 1.363 . S
C4819 C4818 1.415 . S
H4820 C4817 0.999 . S
H4821 C4802 0.913 . S
H4822 C4840 0.951 . S
H4823 C4842 0.951 . S
H4824 C4844 0.950 . S
H4825 C4845 0.950 . S
H4826 C4847 0.950 . S
H4827 C4850 0.950 . S
H4828 C4851 0.950 . S
H4829 C4853 0.950 . S
H4830 C4854 0.950 . S
H4831 C4855 0.951 . S
H4832 C4857 0.951 . S
H4833 C4859 0.950 . S
H4834 C4860 0.950 . S
H4835 C4862 0.950 . S
H4836 C4865 0.950 . S
H4837 C4866 0.950 . S
H4838 C4868 0.950 . S
H4839 C4869 0.950 . S
C4840 H4822 0.951 . S
C4840 C4841 1.366 . S
C4840 C4842 1.388 . S
C4841 C4840 1.366 . S
C4841 C4845 1.385 . S
C4842 H4823 0.951 . S
C4842 C4840 1.388 . S
C4842 C4843 1.366 . S
C4843 C4842 1.366 . S
C4843 C4844 1.414 . S
C4843 C4846 1.499 . S
C4844 H4824 0.950 . S
C4844 C4843 1.414 . S
C4844 C4845 1.374 . S
C4845 H4825 0.950 . S
C4845 C4841 1.385 . S
C4845 C4844 1.374 . S
C4846 C4843 1.499 . S
C4846 C4847 1.373 . S
C4846 C4848 1.389 . S
C4847 H4826 0.950 . S
C4847 C4846 1.373 . S
C4847 C4863 1.377 . S
C4848 C4846 1.389 . S
C4848 C4849 1.524 . S
C4848 C4862 1.377 . S
C4849 C4848 1.524 . S
C4849 C4850 1.397 . S
C4849 C4854 1.363 . S
C4850 H4827 0.950 . S
C4850 C4849 1.397 . S
C4850 C4851 1.334 . S
C4851 H4828 0.950 . S
C4851 C4850 1.334 . S
C4851 C4852 1.287 . S
C4852 C4851 1.287 . S
C4852 C4853 1.524 . S
C4852 H4871 0.913 . S
C4853 H4829 0.950 . S
C4853 C4852 1.524 . S
C4853 C4854 1.415 . S
C4854 H4830 0.950 . S
C4854 C4849 1.363 . S
C4854 C4853 1.415 . S
C4855 H4831 0.951 . S
C4855 C4856 1.366 . S
C4855 C4857 1.388 . S
C4856 C4855 1.366 . S
C4856 C4860 1.385 . S
C4857 H4832 0.951 . S
C4857 C4855 1.388 . S
C4857 C4858 1.366 . S
C4858 C4857 1.366 . S
C4858 C4859 1.414 . S
C4858 C4861 1.499 . S
C4859 H4833 0.950 . S
C4859 C4858 1.414 . S
C4859 C4860 1.374 . S
C4860 H4834 0.950 . S
C4860 C4856 1.385 . S
C4860 C4859 1.374 . S
C4861 C4858 1.499 . S
C4861 C4862 1.373 . S
C4861 C4863 1.389 . S
C4862 H4835 0.950 . S
C4862 C4848 1.377 . S
C4862 C4861 1.373 . S
C4863 C4847 1.377 . S
C4863 C4861 1.389 . S
C4863 C4864 1.524 . S
C4864 C4863 1.524 . S
C4864 C4865 1.397 . S
C4864 C4869 1.363 . S
C4865 H4836 0.950 . S
C4865 C4864 1.397 . S
C4865 C4866 1.334 . S
C4866 H4837 0.950 . S
C4866 C4865 1.334 . S
C4866 C4867 1.287 . S
C4867 C4866 1.287 . S
C4867 C4868 1.524 . S
C4867 H4870 0.999 . S
C4868 H4838 0.950 . S
C4868 C4867 1.524 . S
C4868 C4869 1.415 . S
C4869 H4839 0.950 . S
C4869 C4864 1.363 . S
C4869 C4868 1.415 . S
H4870 C4867 0.999 . S
H4871 C4852 0.913 . S
H4872 C4890 0.951 . S
H4873 C4892 0.951 . S
H4874 C4894 0.950 . S
H4875 C4895 0.950 . S
H4876 C4897 0.950 . S
H4877 C4900 0.950 . S
H4878 C4901 0.950 . S
H4879 C4903 0.950 . S
H4880 C4904 0.950 . S
H4881 C4905 0.951 . S
H4882 C4907 0.951 . S
H4883 C4909 0.950 . S
H4884 C4910 0.950 . S
H4885 C4912 0.950 . S
H4886 C4915 0.950 . S
H4887 C4916 0.950 . S
H4888 C4918 0.950 . S
H4889 C4919 0.950 . S
C4890 H4872 0.951 . S
C4890 C4891 1.366 . S
C4890 C4892 1.388 . S
C4891 C4890 1.366 . S
C4891 C4895 1.385 . S
C4892 H4873 0.951 . S
C4892 C4890 1.388 . S
C4892 C4893 1.366 . S
C4893 C4892 1.366 . S
C4893 C4894 1.414 . S
C4893 C4896 1.499 . S
C4894 H4874 0.950 . S
C4894 C4893 1.414 . S
C4894 C4895 1.374 . S
C4895 H4875 0.950 . S
C4895 C4891 1.385 . S
C4895 C4894 1.374 . S
C4896 C4893 1.499 . S
C4896 C4897 1.373 . S
C4896 C4898 1.389 . S
C4897 H4876 0.950 . S
C4897 C4896 1.373 . S
C4897 C4913 1.377 . S
C4898 C4896 1.389 . S
C4898 C4899 1.524 . S
C4898 C4912 1.377 . S
C4899 C4898 1.524 . S
C4899 C4900 1.397 . S
C4899 C4904 1.363 . S
C4900 H4877 0.950 . S
C4900 C4899 1.397 . S
C4900 C4901 1.334 . S
C4901 H4878 0.950 . S
C4901 C4900 1.334 . S
C4901 C4902 1.287 . S
C4902 C4901 1.287 . S
C4902 C4903 1.524 . S
C4902 H4921 0.913 . S
C4903 H4879 0.950 . S
C4903 C4902 1.524 . S
C4903 C4904 1.415 . S
C4904 H4880 0.950 . S
C4904 C4899 1.363 . S
C4904 C4903 1.415 . S
C4905 H4881 0.951 . S
C4905 C4906 1.366 . S
C4905 C4907 1.388 . S
C4906 C4905 1.366 . S
C4906 C4910 1.385 . S
C4907 H4882 0.951 . S
C4907 C4905 1.388 . S
C4907 C4908 1.366 . S
C4908 C4907 1.366 . S
C4908 C4909 1.414 . S
C4908 C4911 1.499 . S
C4909 H4883 0.950 . S
C4909 C4908 1.414 . S
C4909 C4910 1.374 . S
C4910 H4884 0.950 . S
C4910 C4906 1.385 . S
C4910 C4909 1.374 . S
C4911 C4908 1.499 . S
C4911 C4912 1.373 . S
C4911 C4913 1.389 . S
C4912 H4885 0.950 . S
C4912 C4898 1.377 . S
C4912 C4911 1.373 . S
C4913 C4897 1.377 . S
C4913 C4911 1.389 . S
C4913 C4914 1.524 . S
C4914 C4913 1.524 . S
C4914 C4915 1.397 . S
C4914 C4919 1.363 . S
C4915 H4886 0.950 . S
C4915 C4914 1.397 . S
C4915 C4916 1.334 . S
C4916 H4887 0.950 . S
C4916 C4915 1.334 . S
C4916 C4917 1.287 . S
C4917 C4916 1.287 . S
C4917 C4918 1.524 . S
C4917 H4920 0.999 . S
C4918 H4888 0.950 . S
C4918 C4917 1.524 . S
C4918 C4919 1.415 . S
C4919 H4889 0.950 . S
C4919 C4914 1.363 . S
C4919 C4918 1.415 . S
H4920 C4917 0.999 . S
H4921 C4902 0.913 . S
H4922 C4940 0.951 . S
H4923 C4942 0.951 . S
H4924 C4944 0.950 . S
H4925 C4945 0.950 . S
H4926 C4947 0.950 . S
H4927 C4950 0.950 . S
H4928 C4951 0.950 . S
H4929 C4953 0.950 . S
H4930 C4954 0.950 . S
H4931 C4955 0.951 . S
H4932 C4957 0.951 . S
H4933 C4959 0.950 . S
H4934 C4960 0.950 . S
H4935 C4962 0.950 . S
H4936 C4965 0.950 . S
H4937 C4966 0.950 . S
H4938 C4968 0.950 . S
H4939 C4969 0.950 . S
C4940 H4922 0.951 . S
C4940 C4941 1.366 . S
C4940 C4942 1.388 . S
C4941 C4940 1.366 . S
C4941 C4945 1.385 . S
C4942 H4923 0.951 . S
C4942 C4940 1.388 . S
C4942 C4943 1.366 . S
C4943 C4942 1.366 . S
C4943 C4944 1.414 . S
C4943 C4946 1.499 . S
C4944 H4924 0.950 . S
C4944 C4943 1.414 . S
C4944 C4945 1.374 . S
C4945 H4925 0.950 . S
C4945 C4941 1.385 . S
C4945 C4944 1.374 . S
C4946 C4943 1.499 . S
C4946 C4947 1.373 . S
C4946 C4948 1.389 . S
C4947 H4926 0.950 . S
C4947 C4946 1.373 . S
C4947 C4963 1.377 . S
C4948 C4946 1.389 . S
C4948 C4949 1.524 . S
C4948 C4962 1.377 . S
C4949 C4948 1.524 . S
C4949 C4950 1.397 . S
C4949 C4954 1.363 . S
C4950 H4927 0.950 . S
C4950 C4949 1.397 . S
C4950 C4951 1.334 . S
C4951 H4928 0.950 . S
C4951 C4950 1.334 . S
C4951 C4952 1.287 . S
C4952 C4951 1.287 . S
C4952 C4953 1.524 . S
C4952 H4971 0.913 . S
C4953 H4929 0.950 . S
C4953 C4952 1.524 . S
C4953 C4954 1.415 . S
C4954 H4930 0.950 . S
C4954 C4949 1.363 . S
C4954 C4953 1.415 . S
C4955 H4931 0.951 . S
C4955 C4956 1.366 . S
C4955 C4957 1.388 . S
C4956 C4955 1.366 . S
C4956 C4960 1.385 . S
C4957 H4932 0.951 . S
C4957 C4955 1.388 . S
C4957 C4958 1.366 . S
C4958 C4957 1.366 . S
C4958 C4959 1.414 . S
C4958 C4961 1.499 . S
C4959 H4933 0.950 . S
C4959 C4958 1.414 . S
C4959 C4960 1.374 . S
C4960 H4934 0.950 . S
C4960 C4956 1.385 . S
C4960 C4959 1.374 . S
C4961 C4958 1.499 . S
C4961 C4962 1.373 . S
C4961 C4963 1.389 . S
C4962 H4935 0.950 . S
C4962 C4948 1.377 . S
C4962 C4961 1.373 . S
C4963 C4947 1.377 . S
C4963 C4961 1.389 . S
C4963 C4964 1.524 . S
C4964 C4963 1.524 . S
C4964 C4965 1.397 . S
C4964 C4969 1.363 . S
C4965 H4936 0.950 . S
C4965 C4964 1.397 . S
C4965 C4966 1.334 . S
C4966 H4937 0.950 . S
C4966 C4965 1.334 . S
C4966 C4967 1.287 . S
C4967 C4966 1.287 . S
C4967 C4968 1.524 . S
C4967 H4970 0.999 . S
C4968 H4938 0.950 . S
C4968 C4967 1.524 . S
C4968 C4969 1.415 . S
C4969 H4939 0.950 . S
C4969 C4964 1.363 . S
C4969 C4968 1.415 . S
H4970 C4967 0.999 . S
H4971 C4952 0.913 . S
H4972 C4990 0.951 . S
H4973 C4992 0.951 . S
H4974 C4994 0.950 . S
H4975 C4995 0.950 . S
H4976 C4997 0.950 . S
H4977 C5000 0.950 . S
H4978 C5001 0.950 . S
H4979 C5003 0.950 . S
H4980 C5004 0.950 . S
H4981 C5005 0.951 . S
H4982 C5007 0.951 . S
H4983 C5009 0.950 . S
H4984 C5010 0.950 . S
H4985 C5012 0.950 . S
H4986 C5015 0.950 . S
H4987 C5016 0.950 . S
H4988 C5018 0.950 . S
H4989 C5019 0.950 . S
C4990 H4972 0.951 . S
C4990 C4991 1.366 . S
C4990 C4992 1.388 . S
C4991 C4990 1.366 . S
C4991 C4995 1.385 . S
C4992 H4973 0.951 . S
C4992 C4990 1.388 . S
C4992 C4993 1.366 . S
C4993 C4992 1.366 . S
C4993 C4994 1.414 . S
C4993 C4996 1.499 . S
C4994 H4974 0.950 . S
C4994 C4993 1.414 . S
C4994 C4995 1.374 . S
C4995 H4975 0.950 . S
C4995 C4991 1.385 . S
C4995 C4994 1.374 . S
C4996 C4993 1.499 . S
C4996 C4997 1.373 . S
C4996 C4998 1.389 . S
C4997 H4976 0.950 . S
C4997 C4996 1.373 . S
C4997 C5013 1.377 . S
C4998 C4996 1.389 . S
C4998 C4999 1.524 . S
C4998 C5012 1.377 . S
C4999 C4998 1.524 . S
C4999 C5000 1.397 . S
C4999 C5004 1.363 . S
C5000 H4977 0.950 . S
C5000 C4999 1.397 . S
C5000 C5001 1.334 . S
C5001 H4978 0.950 . S
C5001 C5000 1.334 . S
C5001 C5002 1.287 . S
C5002 C5001 1.287 . S
C5002 C5003 1.524 . S
C5002 H5021 0.913 . S
C5003 H4979 0.950 . S
C5003 C5002 1.524 . S
C5003 C5004 1.415 . S
C5004 H4980 0.950 . S
C5004 C4999 1.363 . S
C5004 C5003 1.415 . S
C5005 H4981 0.951 . S
C5005 C5006 1.366 . S
C5005 C5007 1.388 . S
C5006 C5005 1.366 . S
C5006 C5010 1.385 . S
C5007 H4982 0.951 . S
C5007 C5005 1.388 . S
C5007 C5008 1.366 . S
C5008 C5007 1.366 . S
C5008 C5009 1.414 . S
C5008 C5011 1.499 . S
C5009 H4983 0.950 . S
C5009 C5008 1.414 . S
C5009 C5010 1.374 . S
C5010 H4984 0.950 . S
C5010 C5006 1.385 . S
C5010 C5009 1.374 . S
C5011 C5008 1.499 . S
C5011 C5012 1.373 . S
C5011 C5013 1.389 . S
C5012 H4985 0.950 . S
C5012 C4998 1.377 . S
C5012 C5011 1.373 . S
C5013 C4997 1.377 . S
C5013 C5011 1.389 . S
C5013 C5014 1.524 . S
C5014 C5013 1.524 . S
C5014 C5015 1.397 . S
C5014 C5019 1.363 . S
C5015 H4986 0.950 . S
C5015 C5014 1.397 . S
C5015 C5016 1.334 . S
C5016 H4987 0.950 . S
C5016 C5015 1.334 . S
C5016 C5017 1.287 . S
C5017 C5016 1.287 . S
C5017 C5018 1.524 . S
C5017 H5020 0.999 . S
C5018 H4988 0.950 . S
C5018 C5017 1.524 . S
C5018 C5019 1.415 . S
C5019 H4989 0.950 . S
C5019 C5014 1.363 . S
C5019 C5018 1.415 . S
H5020 C5017 0.999 . S
H5021 C5002 0.913 . S
H5022 C5040 0.951 . S
H5023 C5042 0.951 . S
H5024 C5044 0.950 . S
H5025 C5045 0.950 . S
H5026 C5047 0.950 . S
H5027 C5050 0.950 . S
H5028 C5051 0.950 . S
H5029 C5053 0.950 . S
H5030 C5054 0.950 . S
H5031 C5055 0.951 . S
H5032 C5057 0.951 . S
H5033 C5059 0.950 . S
H5034 C5060 0.950 . S
H5035 C5062 0.950 . S
H5036 C5065 0.950 . S
H5037 C5066 0.950 . S
H5038 C5068 0.950 . S
H5039 C5069 0.950 . S
C5040 H5022 0.951 . S
C5040 C5041 1.366 . S
C5040 C5042 1.388 . S
C5041 C5040 1.366 . S
C5041 C5045 1.385 . S
C5042 H5023 0.951 . S
C5042 C5040 1.388 . S
C5042 C5043 1.366 . S
C5043 C5042 1.366 . S
C5043 C5044 1.414 . S
C5043 C5046 1.499 . S
C5044 H5024 0.950 . S
C5044 C5043 1.414 . S
C5044 C5045 1.374 . S
C5045 H5025 0.950 . S
C5045 C5041 1.385 . S
C5045 C5044 1.374 . S
C5046 C5043 1.499 . S
C5046 C5047 1.373 . S
C5046 C5048 1.389 . S
C5047 H5026 0.950 . S
C5047 C5046 1.373 . S
C5047 C5063 1.377 . S
C5048 C5046 1.389 . S
C5048 C5049 1.524 . S
C5048 C5062 1.377 . S
C5049 C5048 1.524 . S
C5049 C5050 1.397 . S
C5049 C5054 1.363 . S
C5050 H5027 0.950 . S
C5050 C5049 1.397 . S
C5050 C5051 1.334 . S
C5051 H5028 0.950 . S
C5051 C5050 1.334 . S
C5051 C5052 1.287 . S
C5052 C5051 1.287 . S
C5052 C5053 1.524 . S
C5052 H5071 0.913 . S
C5053 H5029 0.950 . S
C5053 C5052 1.524 . S
C5053 C5054 1.415 . S
C5054 H5030 0.950 . S
C5054 C5049 1.363 . S
C5054 C5053 1.415 . S
C5055 H5031 0.951 . S
C5055 C5056 1.366 . S
C5055 C5057 1.388 . S
C5056 C5055 1.366 . S
C5056 C5060 1.385 . S
C5057 H5032 0.951 . S
C5057 C5055 1.388 . S
C5057 C5058 1.366 . S
C5058 C5057 1.366 . S
C5058 C5059 1.414 . S
C5058 C5061 1.499 . S
C5059 H5033 0.950 . S
C5059 C5058 1.414 . S
C5059 C5060 1.374 . S
C5060 H5034 0.950 . S
C5060 C5056 1.385 . S
C5060 C5059 1.374 . S
C5061 C5058 1.499 . S
C5061 C5062 1.373 . S
C5061 C5063 1.389 . S
C5062 H5035 0.950 . S
C5062 C5048 1.377 . S
C5062 C5061 1.373 . S
C5063 C5047 1.377 . S
C5063 C5061 1.389 . S
C5063 C5064 1.524 . S
C5064 C5063 1.524 . S
C5064 C5065 1.397 . S
C5064 C5069 1.363 . S
C5065 H5036 0.950 . S
C5065 C5064 1.397 . S
C5065 C5066 1.334 . S
C5066 H5037 0.950 . S
C5066 C5065 1.334 . S
C5066 C5067 1.287 . S
C5067 C5066 1.287 . S
C5067 C5068 1.524 . S
C5067 H5070 0.999 . S
C5068 H5038 0.950 . S
C5068 C5067 1.524 . S
C5068 C5069 1.415 . S
C5069 H5039 0.950 . S
C5069 C5064 1.363 . S
C5069 C5068 1.415 . S
H5070 C5067 0.999 . S
H5071 C5052 0.913 . S
H5072 C5090 0.951 . S
H5073 C5092 0.951 . S
H5074 C5094 0.950 . S
H5075 C5095 0.950 . S
H5076 C5097 0.950 . S
H5077 C5100 0.950 . S
H5078 C5101 0.950 . S
H5079 C5103 0.950 . S
H5080 C5104 0.950 . S
H5081 C5105 0.951 . S
H5082 C5107 0.951 . S
H5083 C5109 0.950 . S
H5084 C5110 0.950 . S
H5085 C5112 0.950 . S
H5086 C5115 0.950 . S
H5087 C5116 0.950 . S
H5088 C5118 0.950 . S
H5089 C5119 0.950 . S
C5090 H5072 0.951 . S
C5090 C5091 1.366 . S
C5090 C5092 1.388 . S
C5091 C5090 1.366 . S
C5091 C5095 1.385 . S
C5092 H5073 0.951 . S
C5092 C5090 1.388 . S
C5092 C5093 1.366 . S
C5093 C5092 1.366 . S
C5093 C5094 1.414 . S
C5093 C5096 1.499 . S
C5094 H5074 0.950 . S
C5094 C5093 1.414 . S
C5094 C5095 1.374 . S
C5095 H5075 0.950 . S
C5095 C5091 1.385 . S
C5095 C5094 1.374 . S
C5096 C5093 1.499 . S
C5096 C5097 1.373 . S
C5096 C5098 1.389 . S
C5097 H5076 0.950 . S
C5097 C5096 1.373 . S
C5097 C5113 1.377 . S
C5098 C5096 1.389 . S
C5098 C5099 1.524 . S
C5098 C5112 1.377 . S
C5099 C5098 1.524 . S
C5099 C5100 1.397 . S
C5099 C5104 1.363 . S
C5100 H5077 0.950 . S
C5100 C5099 1.397 . S
C5100 C5101 1.334 . S
C5101 H5078 0.950 . S
C5101 C5100 1.334 . S
C5101 C5102 1.287 . S
C5102 C5101 1.287 . S
C5102 C5103 1.524 . S
C5102 H5121 0.913 . S
C5103 H5079 0.950 . S
C5103 C5102 1.524 . S
C5103 C5104 1.415 . S
C5104 H5080 0.950 . S
C5104 C5099 1.363 . S
C5104 C5103 1.415 . S
C5105 H5081 0.951 . S
C5105 C5106 1.366 . S
C5105 C5107 1.388 . S
C5106 C5105 1.366 . S
C5106 C5110 1.385 . S
C5107 H5082 0.951 . S
C5107 C5105 1.388 . S
C5107 C5108 1.366 . S
C5108 C5107 1.366 . S
C5108 C5109 1.414 . S
C5108 C5111 1.499 . S
C5109 H5083 0.950 . S
C5109 C5108 1.414 . S
C5109 C5110 1.374 . S
C5110 H5084 0.950 . S
C5110 C5106 1.385 . S
C5110 C5109 1.374 . S
C5111 C5108 1.499 . S
C5111 C5112 1.373 . S
C5111 C5113 1.389 . S
C5112 H5085 0.950 . S
C5112 C5098 1.377 . S
C5112 C5111 1.373 . S
C5113 C5097 1.377 . S
C5113 C5111 1.389 . S
C5113 C5114 1.524 . S
C5114 C5113 1.524 . S
C5114 C5115 1.397 . S
C5114 C5119 1.363 . S
C5115 H5086 0.950 . S
C5115 C5114 1.397 . S
C5115 C5116 1.334 . S
C5116 H5087 0.950 . S
C5116 C5115 1.334 . S
C5116 C5117 1.287 . S
C5117 C5116 1.287 . S
C5117 C5118 1.524 . S
C5117 H5120 0.999 . S
C5118 H5088 0.950 . S
C5118 C5117 1.524 . S
C5118 C5119 1.415 . S
C5119 H5089 0.950 . S
C5119 C5114 1.363 . S
C5119 C5118 1.415 . S
H5120 C5117 0.999 . S
H5121 C5102 0.913 . S
H5122 C5140 0.951 . S
H5123 C5142 0.951 . S
H5124 C5144 0.950 . S
H5125 C5145 0.950 . S
H5126 C5147 0.950 . S
H5127 C5150 0.950 . S
H5128 C5151 0.950 . S
H5129 C5153 0.950 . S
H5130 C5154 0.950 . S
H5131 C5155 0.951 . S
H5132 C5157 0.951 . S
H5133 C5159 0.950 . S
H5134 C5160 0.950 . S
H5135 C5162 0.950 . S
H5136 C5165 0.950 . S
H5137 C5166 0.950 . S
H5138 C5168 0.950 . S
H5139 C5169 0.950 . S
C5140 H5122 0.951 . S
C5140 C5141 1.366 . S
C5140 C5142 1.388 . S
C5141 C5140 1.366 . S
C5141 C5145 1.385 . S
C5142 H5123 0.951 . S
C5142 C5140 1.388 . S
C5142 C5143 1.366 . S
C5143 C5142 1.366 . S
C5143 C5144 1.414 . S
C5143 C5146 1.499 . S
C5144 H5124 0.950 . S
C5144 C5143 1.414 . S
C5144 C5145 1.374 . S
C5145 H5125 0.950 . S
C5145 C5141 1.385 . S
C5145 C5144 1.374 . S
C5146 C5143 1.499 . S
C5146 C5147 1.373 . S
C5146 C5148 1.389 . S
C5147 H5126 0.950 . S
C5147 C5146 1.373 . S
C5147 C5163 1.377 . S
C5148 C5146 1.389 . S
C5148 C5149 1.524 . S
C5148 C5162 1.377 . S
C5149 C5148 1.524 . S
C5149 C5150 1.397 . S
C5149 C5154 1.363 . S
C5150 H5127 0.950 . S
C5150 C5149 1.397 . S
C5150 C5151 1.334 . S
C5151 H5128 0.950 . S
C5151 C5150 1.334 . S
C5151 C5152 1.287 . S
C5152 C5151 1.287 . S
C5152 C5153 1.524 . S
C5152 H5171 0.913 . S
C5153 H5129 0.950 . S
C5153 C5152 1.524 . S
C5153 C5154 1.415 . S
C5154 H5130 0.950 . S
C5154 C5149 1.363 . S
C5154 C5153 1.415 . S
C5155 H5131 0.951 . S
C5155 C5156 1.366 . S
C5155 C5157 1.388 . S
C5156 C5155 1.366 . S
C5156 C5160 1.385 . S
C5157 H5132 0.951 . S
C5157 C5155 1.388 . S
C5157 C5158 1.366 . S
C5158 C5157 1.366 . S
C5158 C5159 1.414 . S
C5158 C5161 1.499 . S
C5159 H5133 0.950 . S
C5159 C5158 1.414 . S
C5159 C5160 1.374 . S
C5160 H5134 0.950 . S
C5160 C5156 1.385 . S
C5160 C5159 1.374 . S
C5161 C5158 1.499 . S
C5161 C5162 1.373 . S
C5161 C5163 1.389 . S
C5162 H5135 0.950 . S
C5162 C5148 1.377 . S
C5162 C5161 1.373 . S
C5163 C5147 1.377 . S
C5163 C5161 1.389 . S
C5163 C5164 1.524 . S
C5164 C5163 1.524 . S
C5164 C5165 1.397 . S
C5164 C5169 1.363 . S
C5165 H5136 0.950 . S
C5165 C5164 1.397 . S
C5165 C5166 1.334 . S
C5166 H5137 0.950 . S
C5166 C5165 1.334 . S
C5166 C5167 1.287 . S
C5167 C5166 1.287 . S
C5167 C5168 1.524 . S
C5167 H5170 0.999 . S
C5168 H5138 0.950 . S
C5168 C5167 1.524 . S
C5168 C5169 1.415 . S
C5169 H5139 0.950 . S
C5169 C5164 1.363 . S
C5169 C5168 1.415 . S
H5170 C5167 0.999 . S
H5171 C5152 0.913 . S
H5172 C5190 0.951 . S
H5173 C5192 0.951 . S
H5174 C5194 0.950 . S
H5175 C5195 0.950 . S
H5176 C5197 0.950 . S
H5177 C5200 0.950 . S
H5178 C5201 0.950 . S
H5179 C5203 0.950 . S
H5180 C5204 0.950 . S
H5181 C5205 0.951 . S
H5182 C5207 0.951 . S
H5183 C5209 0.950 . S
H5184 C5210 0.950 . S
H5185 C5212 0.950 . S
H5186 C5215 0.950 . S
H5187 C5216 0.950 . S
H5188 C5218 0.950 . S
H5189 C5219 0.950 . S
C5190 H5172 0.951 . S
C5190 C5191 1.366 . S
C5190 C5192 1.388 . S
C5191 C5190 1.366 . S
C5191 C5195 1.385 . S
C5192 H5173 0.951 . S
C5192 C5190 1.388 . S
C5192 C5193 1.366 . S
C5193 C5192 1.366 . S
C5193 C5194 1.414 . S
C5193 C5196 1.499 . S
C5194 H5174 0.950 . S
C5194 C5193 1.414 . S
C5194 C5195 1.374 . S
C5195 H5175 0.950 . S
C5195 C5191 1.385 . S
C5195 C5194 1.374 . S
C5196 C5193 1.499 . S
C5196 C5197 1.373 . S
C5196 C5198 1.389 . S
C5197 H5176 0.950 . S
C5197 C5196 1.373 . S
C5197 C5213 1.377 . S
C5198 C5196 1.389 . S
C5198 C5199 1.524 . S
C5198 C5212 1.377 . S
C5199 C5198 1.524 . S
C5199 C5200 1.397 . S
C5199 C5204 1.363 . S
C5200 H5177 0.950 . S
C5200 C5199 1.397 . S
C5200 C5201 1.334 . S
C5201 H5178 0.950 . S
C5201 C5200 1.334 . S
C5201 C5202 1.287 . S
C5202 C5201 1.287 . S
C5202 C5203 1.524 . S
C5202 H5221 0.913 . S
C5203 H5179 0.950 . S
C5203 C5202 1.524 . S
C5203 C5204 1.415 . S
C5204 H5180 0.950 . S
C5204 C5199 1.363 . S
C5204 C5203 1.415 . S
C5205 H5181 0.951 . S
C5205 C5206 1.366 . S
C5205 C5207 1.388 . S
C5206 C5205 1.366 . S
C5206 C5210 1.385 . S
C5207 H5182 0.951 . S
C5207 C5205 1.388 . S
C5207 C5208 1.366 . S
C5208 C5207 1.366 . S
C5208 C5209 1.414 . S
C5208 C5211 1.499 . S
C5209 H5183 0.950 . S
C5209 C5208 1.414 . S
C5209 C5210 1.374 . S
C5210 H5184 0.950 . S
C5210 C5206 1.385 . S
C5210 C5209 1.374 . S
C5211 C5208 1.499 . S
C5211 C5212 1.373 . S
C5211 C5213 1.389 . S
C5212 H5185 0.950 . S
C5212 C5198 1.377 . S
C5212 C5211 1.373 . S
C5213 C5197 1.377 . S
C5213 C5211 1.389 . S
C5213 C5214 1.524 . S
C5214 C5213 1.524 . S
C5214 C5215 1.397 . S
C5214 C5219 1.363 . S
C5215 H5186 0.950 . S
C5215 C5214 1.397 . S
C5215 C5216 1.334 . S
C5216 H5187 0.950 . S
C5216 C5215 1.334 . S
C5216 C5217 1.287 . S
C5217 C5216 1.287 . S
C5217 C5218 1.524 . S
C5217 H5220 0.999 . S
C5218 H5188 0.950 . S
C5218 C5217 1.524 . S
C5218 C5219 1.415 . S
C5219 H5189 0.950 . S
C5219 C5214 1.363 . S
C5219 C5218 1.415 . S
H5220 C5217 0.999 . S
H5221 C5202 0.913 . S
H5222 C5240 0.951 . S
H5223 C5242 0.951 . S
H5224 C5244 0.950 . S
H5225 C5245 0.950 . S
H5226 C5247 0.950 . S
H5227 C5250 0.950 . S
H5228 C5251 0.950 . S
H5229 C5253 0.950 . S
H5230 C5254 0.950 . S
H5231 C5255 0.951 . S
H5232 C5257 0.951 . S
H5233 C5259 0.950 . S
H5234 C5260 0.950 . S
H5235 C5262 0.950 . S
H5236 C5265 0.950 . S
H5237 C5266 0.950 . S
H5238 C5268 0.950 . S
H5239 C5269 0.950 . S
C5240 H5222 0.951 . S
C5240 C5241 1.366 . S
C5240 C5242 1.388 . S
C5241 C5240 1.366 . S
C5241 C5245 1.385 . S
C5242 H5223 0.951 . S
C5242 C5240 1.388 . S
C5242 C5243 1.366 . S
C5243 C5242 1.366 . S
C5243 C5244 1.414 . S
C5243 C5246 1.499 . S
C5244 H5224 0.950 . S
C5244 C5243 1.414 . S
C5244 C5245 1.374 . S
C5245 H5225 0.950 . S
C5245 C5241 1.385 . S
C5245 C5244 1.374 . S
C5246 C5243 1.499 . S
C5246 C5247 1.373 . S
C5246 C5248 1.389 . S
C5247 H5226 0.950 . S
C5247 C5246 1.373 . S
C5247 C5263 1.377 . S
C5248 C5246 1.389 . S
C5248 C5249 1.524 . S
C5248 C5262 1.377 . S
C5249 C5248 1.524 . S
C5249 C5250 1.397 . S
C5249 C5254 1.363 . S
C5250 H5227 0.950 . S
C5250 C5249 1.397 . S
C5250 C5251 1.334 . S
C5251 H5228 0.950 . S
C5251 C5250 1.334 . S
C5251 C5252 1.287 . S
C5252 C5251 1.287 . S
C5252 C5253 1.524 . S
C5252 H5271 0.913 . S
C5253 H5229 0.950 . S
C5253 C5252 1.524 . S
C5253 C5254 1.415 . S
C5254 H5230 0.950 . S
C5254 C5249 1.363 . S
C5254 C5253 1.415 . S
C5255 H5231 0.951 . S
C5255 C5256 1.366 . S
C5255 C5257 1.388 . S
C5256 C5255 1.366 . S
C5256 C5260 1.385 . S
C5257 H5232 0.951 . S
C5257 C5255 1.388 . S
C5257 C5258 1.366 . S
C5258 C5257 1.366 . S
C5258 C5259 1.414 . S
C5258 C5261 1.499 . S
C5259 H5233 0.950 . S
C5259 C5258 1.414 . S
C5259 C5260 1.374 . S
C5260 H5234 0.950 . S
C5260 C5256 1.385 . S
C5260 C5259 1.374 . S
C5261 C5258 1.499 . S
C5261 C5262 1.373 . S
C5261 C5263 1.389 . S
C5262 H5235 0.950 . S
C5262 C5248 1.377 . S
C5262 C5261 1.373 . S
C5263 C5247 1.377 . S
C5263 C5261 1.389 . S
C5263 C5264 1.524 . S
C5264 C5263 1.524 . S
C5264 C5265 1.397 . S
C5264 C5269 1.363 . S
C5265 H5236 0.950 . S
C5265 C5264 1.397 . S
C5265 C5266 1.334 . S
C5266 H5237 0.950 . S
C5266 C5265 1.334 . S
C5266 C5267 1.287 . S
C5267 C5266 1.287 . S
C5267 C5268 1.524 . S
C5267 H5270 0.999 . S
C5268 H5238 0.950 . S
C5268 C5267 1.524 . S
C5268 C5269 1.415 . S
C5269 H5239 0.950 . S
C5269 C5264 1.363 . S
C5269 C5268 1.415 . S
H5270 C5267 0.999 . S
H5271 C5252 0.913 . S
H5272 C5290 0.951 . S
H5273 C5292 0.951 . S
H5274 C5294 0.950 . S
H5275 C5295 0.950 . S
H5276 C5297 0.950 . S
H5277 C5300 0.950 . S
H5278 C5301 0.950 . S
H5279 C5303 0.950 . S
H5280 C5304 0.950 . S
H5281 C5305 0.951 . S
H5282 C5307 0.951 . S
H5283 C5309 0.950 . S
H5284 C5310 0.950 . S
H5285 C5312 0.950 . S
H5286 C5315 0.950 . S
H5287 C5316 0.950 . S
H5288 C5318 0.950 . S
H5289 C5319 0.950 . S
C5290 H5272 0.951 . S
C5290 C5291 1.366 . S
C5290 C5292 1.388 . S
C5291 C5290 1.366 . S
C5291 C5295 1.385 . S
C5292 H5273 0.951 . S
C5292 C5290 1.388 . S
C5292 C5293 1.366 . S
C5293 C5292 1.366 . S
C5293 C5294 1.414 . S
C5293 C5296 1.499 . S
C5294 H5274 0.950 . S
C5294 C5293 1.414 . S
C5294 C5295 1.374 . S
C5295 H5275 0.950 . S
C5295 C5291 1.385 . S
C5295 C5294 1.374 . S
C5296 C5293 1.499 . S
C5296 C5297 1.373 . S
C5296 C5298 1.389 . S
C5297 H5276 0.950 . S
C5297 C5296 1.373 . S
C5297 C5313 1.377 . S
C5298 C5296 1.389 . S
C5298 C5299 1.524 . S
C5298 C5312 1.377 . S
C5299 C5298 1.524 . S
C5299 C5300 1.397 . S
C5299 C5304 1.363 . S
C5300 H5277 0.950 . S
C5300 C5299 1.397 . S
C5300 C5301 1.334 . S
C5301 H5278 0.950 . S
C5301 C5300 1.334 . S
C5301 C5302 1.287 . S
C5302 C5301 1.287 . S
C5302 C5303 1.524 . S
C5302 H5321 0.913 . S
C5303 H5279 0.950 . S
C5303 C5302 1.524 . S
C5303 C5304 1.415 . S
C5304 H5280 0.950 . S
C5304 C5299 1.363 . S
C5304 C5303 1.415 . S
C5305 H5281 0.951 . S
C5305 C5306 1.366 . S
C5305 C5307 1.388 . S
C5306 C5305 1.366 . S
C5306 C5310 1.385 . S
C5307 H5282 0.951 . S
C5307 C5305 1.388 . S
C5307 C5308 1.366 . S
C5308 C5307 1.366 . S
C5308 C5309 1.414 . S
C5308 C5311 1.499 . S
C5309 H5283 0.950 . S
C5309 C5308 1.414 . S
C5309 C5310 1.374 . S
C5310 H5284 0.950 . S
C5310 C5306 1.385 . S
C5310 C5309 1.374 . S
C5311 C5308 1.499 . S
C5311 C5312 1.373 . S
C5311 C5313 1.389 . S
C5312 H5285 0.950 . S
C5312 C5298 1.377 . S
C5312 C5311 1.373 . S
C5313 C5297 1.377 . S
C5313 C5311 1.389 . S
C5313 C5314 1.524 . S
C5314 C5313 1.524 . S
C5314 C5315 1.397 . S
C5314 C5319 1.363 . S
C5315 H5286 0.950 . S
C5315 C5314 1.397 . S
C5315 C5316 1.334 . S
C5316 H5287 0.950 . S
C5316 C5315 1.334 . S
C5316 C5317 1.287 . S
C5317 C5316 1.287 . S
C5317 C5318 1.524 . S
C5317 H5320 0.999 . S
C5318 H5288 0.950 . S
C5318 C5317 1.524 . S
C5318 C5319 1.415 . S
C5319 H5289 0.950 . S
C5319 C5314 1.363 . S
C5319 C5318 1.415 . S
H5320 C5317 0.999 . S
H5321 C5302 0.913 . S
H5322 C5340 0.951 . S
H5323 C5342 0.951 . S
H5324 C5344 0.950 . S
H5325 C5345 0.950 . S
H5326 C5347 0.950 . S
H5327 C5350 0.950 . S
H5328 C5351 0.950 . S
H5329 C5353 0.950 . S
H5330 C5354 0.950 . S
H5331 C5355 0.951 . S
H5332 C5357 0.951 . S
H5333 C5359 0.950 . S
H5334 C5360 0.950 . S
H5335 C5362 0.950 . S
H5336 C5365 0.950 . S
H5337 C5366 0.950 . S
H5338 C5368 0.950 . S
H5339 C5369 0.950 . S
C5340 H5322 0.951 . S
C5340 C5341 1.366 . S
C5340 C5342 1.388 . S
C5341 C5340 1.366 . S
C5341 C5345 1.385 . S
C5342 H5323 0.951 . S
C5342 C5340 1.388 . S
C5342 C5343 1.366 . S
C5343 C5342 1.366 . S
C5343 C5344 1.414 . S
C5343 C5346 1.499 . S
C5344 H5324 0.950 . S
C5344 C5343 1.414 . S
C5344 C5345 1.374 . S
C5345 H5325 0.950 . S
C5345 C5341 1.385 . S
C5345 C5344 1.374 . S
C5346 C5343 1.499 . S
C5346 C5347 1.373 . S
C5346 C5348 1.389 . S
C5347 H5326 0.950 . S
C5347 C5346 1.373 . S
C5347 C5363 1.377 . S
C5348 C5346 1.389 . S
C5348 C5349 1.524 . S
C5348 C5362 1.377 . S
C5349 C5348 1.524 . S
C5349 C5350 1.397 . S
C5349 C5354 1.363 . S
C5350 H5327 0.950 . S
C5350 C5349 1.397 . S
C5350 C5351 1.334 . S
C5351 H5328 0.950 . S
C5351 C5350 1.334 . S
C5351 C5352 1.287 . S
C5352 C5351 1.287 . S
C5352 C5353 1.524 . S
C5352 H5371 0.913 . S
C5353 H5329 0.950 . S
C5353 C5352 1.524 . S
C5353 C5354 1.415 . S
C5354 H5330 0.950 . S
C5354 C5349 1.363 . S
C5354 C5353 1.415 . S
C5355 H5331 0.951 . S
C5355 C5356 1.366 . S
C5355 C5357 1.388 . S
C5356 C5355 1.366 . S
C5356 C5360 1.385 . S
C5357 H5332 0.951 . S
C5357 C5355 1.388 . S
C5357 C5358 1.366 . S
C5358 C5357 1.366 . S
C5358 C5359 1.414 . S
C5358 C5361 1.499 . S
C5359 H5333 0.950 . S
C5359 C5358 1.414 . S
C5359 C5360 1.374 . S
C5360 H5334 0.950 . S
C5360 C5356 1.385 . S
C5360 C5359 1.374 . S
C5361 C5358 1.499 . S
C5361 C5362 1.373 . S
C5361 C5363 1.389 . S
C5362 H5335 0.950 . S
C5362 C5348 1.377 . S
C5362 C5361 1.373 . S
C5363 C5347 1.377 . S
C5363 C5361 1.389 . S
C5363 C5364 1.524 . S
C5364 C5363 1.524 . S
C5364 C5365 1.397 . S
C5364 C5369 1.363 . S
C5365 H5336 0.950 . S
C5365 C5364 1.397 . S
C5365 C5366 1.334 . S
C5366 H5337 0.950 . S
C5366 C5365 1.334 . S
C5366 C5367 1.287 . S
C5367 C5366 1.287 . S
C5367 C5368 1.524 . S
C5367 H5370 0.999 . S
C5368 H5338 0.950 . S
C5368 C5367 1.524 . S
C5368 C5369 1.415 . S
C5369 H5339 0.950 . S
C5369 C5364 1.363 . S
C5369 C5368 1.415 . S
H5370 C5367 0.999 . S
H5371 C5352 0.913 . S
H5372 C5390 0.951 . S
H5373 C5392 0.951 . S
H5374 C5394 0.950 . S
H5375 C5395 0.950 . S
H5376 C5397 0.950 . S
H5377 C5400 0.950 . S
H5378 C5401 0.950 . S
H5379 C5403 0.950 . S
H5380 C5404 0.950 . S
H5381 C5405 0.951 . S
H5382 C5407 0.951 . S
H5383 C5409 0.950 . S
H5384 C5410 0.950 . S
H5385 C5412 0.950 . S
H5386 C5415 0.950 . S
H5387 C5416 0.950 . S
H5388 C5418 0.950 . S
H5389 C5419 0.950 . S
C5390 H5372 0.951 . S
C5390 C5391 1.366 . S
C5390 C5392 1.388 . S
C5391 C5390 1.366 . S
C5391 C5395 1.385 . S
C5392 H5373 0.951 . S
C5392 C5390 1.388 . S
C5392 C5393 1.366 . S
C5393 C5392 1.366 . S
C5393 C5394 1.414 . S
C5393 C5396 1.499 . S
C5394 H5374 0.950 . S
C5394 C5393 1.414 . S
C5394 C5395 1.374 . S
C5395 H5375 0.950 . S
C5395 C5391 1.385 . S
C5395 C5394 1.374 . S
C5396 C5393 1.499 . S
C5396 C5397 1.373 . S
C5396 C5398 1.389 . S
C5397 H5376 0.950 . S
C5397 C5396 1.373 . S
C5397 C5413 1.377 . S
C5398 C5396 1.389 . S
C5398 C5399 1.524 . S
C5398 C5412 1.377 . S
C5399 C5398 1.524 . S
C5399 C5400 1.397 . S
C5399 C5404 1.363 . S
C5400 H5377 0.950 . S
C5400 C5399 1.397 . S
C5400 C5401 1.334 . S
C5401 H5378 0.950 . S
C5401 C5400 1.334 . S
C5401 C5402 1.287 . S
C5402 C5401 1.287 . S
C5402 C5403 1.524 . S
C5402 H5421 0.913 . S
C5403 H5379 0.950 . S
C5403 C5402 1.524 . S
C5403 C5404 1.415 . S
C5404 H5380 0.950 . S
C5404 C5399 1.363 . S
C5404 C5403 1.415 . S
C5405 H5381 0.951 . S
C5405 C5406 1.366 . S
C5405 C5407 1.388 . S
C5406 C5405 1.366 . S
C5406 C5410 1.385 . S
C5407 H5382 0.951 . S
C5407 C5405 1.388 . S
C5407 C5408 1.366 . S
C5408 C5407 1.366 . S
C5408 C5409 1.414 . S
C5408 C5411 1.499 . S
C5409 H5383 0.950 . S
C5409 C5408 1.414 . S
C5409 C5410 1.374 . S
C5410 H5384 0.950 . S
C5410 C5406 1.385 . S
C5410 C5409 1.374 . S
C5411 C5408 1.499 . S
C5411 C5412 1.373 . S
C5411 C5413 1.389 . S
C5412 H5385 0.950 . S
C5412 C5398 1.377 . S
C5412 C5411 1.373 . S
C5413 C5397 1.377 . S
C5413 C5411 1.389 . S
C5413 C5414 1.524 . S
C5414 C5413 1.524 . S
C5414 C5415 1.397 . S
C5414 C5419 1.363 . S
C5415 H5386 0.950 . S
C5415 C5414 1.397 . S
C5415 C5416 1.334 . S
C5416 H5387 0.950 . S
C5416 C5415 1.334 . S
C5416 C5417 1.287 . S
C5417 C5416 1.287 . S
C5417 C5418 1.524 . S
C5417 H5420 0.999 . S
C5418 H5388 0.950 . S
C5418 C5417 1.524 . S
C5418 C5419 1.415 . S
C5419 H5389 0.950 . S
C5419 C5414 1.363 . S
C5419 C5418 1.415 . S
H5420 C5417 0.999 . S
H5421 C5402 0.913 . S
H5422 C5440 0.951 . S
H5423 C5442 0.951 . S
H5424 C5444 0.950 . S
H5425 C5445 0.950 . S
H5426 C5447 0.950 . S
H5427 C5450 0.950 . S
H5428 C5451 0.950 . S
H5429 C5453 0.950 . S
H5430 C5454 0.950 . S
H5431 C5455 0.951 . S
H5432 C5457 0.951 . S
H5433 C5459 0.950 . S
H5434 C5460 0.950 . S
H5435 C5462 0.950 . S
H5436 C5465 0.950 . S
H5437 C5466 0.950 . S
H5438 C5468 0.950 . S
H5439 C5469 0.950 . S
C5440 H5422 0.951 . S
C5440 C5441 1.366 . S
C5440 C5442 1.388 . S
C5441 C5440 1.366 . S
C5441 C5445 1.385 . S
C5442 H5423 0.951 . S
C5442 C5440 1.388 . S
C5442 C5443 1.366 . S
C5443 C5442 1.366 . S
C5443 C5444 1.414 . S
C5443 C5446 1.499 . S
C5444 H5424 0.950 . S
C5444 C5443 1.414 . S
C5444 C5445 1.374 . S
C5445 H5425 0.950 . S
C5445 C5441 1.385 . S
C5445 C5444 1.374 . S
C5446 C5443 1.499 . S
C5446 C5447 1.373 . S
C5446 C5448 1.389 . S
C5447 H5426 0.950 . S
C5447 C5446 1.373 . S
C5447 C5463 1.377 . S
C5448 C5446 1.389 . S
C5448 C5449 1.524 . S
C5448 C5462 1.377 . S
C5449 C5448 1.524 . S
C5449 C5450 1.397 . S
C5449 C5454 1.363 . S
C5450 H5427 0.950 . S
C5450 C5449 1.397 . S
C5450 C5451 1.334 . S
C5451 H5428 0.950 . S
C5451 C5450 1.334 . S
C5451 C5452 1.287 . S
C5452 C5451 1.287 . S
C5452 C5453 1.524 . S
C5452 H5471 0.913 . S
C5453 H5429 0.950 . S
C5453 C5452 1.524 . S
C5453 C5454 1.415 . S
C5454 H5430 0.950 . S
C5454 C5449 1.363 . S
C5454 C5453 1.415 . S
C5455 H5431 0.951 . S
C5455 C5456 1.366 . S
C5455 C5457 1.388 . S
C5456 C5455 1.366 . S
C5456 C5460 1.385 . S
C5457 H5432 0.951 . S
C5457 C5455 1.388 . S
C5457 C5458 1.366 . S
C5458 C5457 1.366 . S
C5458 C5459 1.414 . S
C5458 C5461 1.499 . S
C5459 H5433 0.950 . S
C5459 C5458 1.414 . S
C5459 C5460 1.374 . S
C5460 H5434 0.950 . S
C5460 C5456 1.385 . S
C5460 C5459 1.374 . S
C5461 C5458 1.499 . S
C5461 C5462 1.373 . S
C5461 C5463 1.389 . S
C5462 H5435 0.950 . S
C5462 C5448 1.377 . S
C5462 C5461 1.373 . S
C5463 C5447 1.377 . S
C5463 C5461 1.389 . S
C5463 C5464 1.524 . S
C5464 C5463 1.524 . S
C5464 C5465 1.397 . S
C5464 C5469 1.363 . S
C5465 H5436 0.950 . S
C5465 C5464 1.397 . S
C5465 C5466 1.334 . S
C5466 H5437 0.950 . S
C5466 C5465 1.334 . S
C5466 C5467 1.287 . S
C5467 C5466 1.287 . S
C5467 C5468 1.524 . S
C5467 H5470 0.999 . S
C5468 H5438 0.950 . S
C5468 C5467 1.524 . S
C5468 C5469 1.415 . S
C5469 H5439 0.950 . S
C5469 C5464 1.363 . S
C5469 C5468 1.415 . S
H5470 C5467 0.999 . S
H5471 C5452 0.913 . S
C691 C397 0.900 . S
C706 C5 0.901 . S
C741 C19 0.902 . S
C756 C411 0.899 . S
C791 C425 0.900 . S
C806 C33 0.901 . S
C841 C47 0.902 . S
C856 C439 0.899 . S
C891 C341 0.902 . S
C906 C61 0.899 . S
C941 C75 0.900 . S
C956 C355 0.901 . S
C991 C369 0.901 . S
C1006 C89 0.900 . S
C1041 C103 0.899 . S
C1056 C383 0.902 . S
C1091 C537 0.900 . S
C1106 C117 0.901 . S
C1141 C551 0.900 . S
C1156 C131 0.901 . S
C1191 C509 0.900 . S
C1206 C145 0.901 . S
C1241 C159 0.902 . S
C1256 C523 0.899 . S
C1291 C481 0.900 . S
C1306 C173 0.901 . S
C1341 C495 0.899 . S
C1356 C187 0.902 . S
C1391 C201 0.901 . S
C1406 C453 0.900 . S
C1441 C467 0.900 . S
C1456 C215 0.901 . S
C1491 C229 0.900 . S
C1506 C635 0.902 . S
C1541 C607 0.899 . S
C1556 C243 0.902 . S
C1591 C621 0.901 . S
C1606 C257 0.900 . S
C1641 C579 0.901 . S
C1656 C271 0.901 . S
C1691 C593 0.902 . S
C1706 C285 0.900 . S
C1741 C299 0.902 . S
C1756 C565 0.899 . S
C1791 C313 0.899 . S
C1806 C663 0.902 . S
C1841 C649 0.899 . S
C1856 C327 0.902 . S
C1891 C109 1.434 . S
C1906 C11 1.433 . S
C1941 C67 1.434 . S
C1956 C25 1.433 . S
C1991 C81 1.434 . S
C2006 C39 1.433 . S
C2041 C95 1.434 . S
C2056 C53 1.433 . S
C2091 C291 1.433 . S
C2106 C123 1.434 . S
C2141 C249 1.433 . S
C2156 C137 1.434 . S
C2191 C263 1.434 . S
C2206 C151 1.433 . S
C2241 C277 1.433 . S
C2256 C165 1.434 . S
C2291 C333 1.434 . S
C2306 C179 1.433 . S
C2341 C305 1.434 . S
C2356 C193 1.433 . S
C2391 C207 1.433 . S
C2406 C319 1.434 . S
C2441 C235 1.434 . S
C2456 C221 1.433 . S
C2491 C445 1.433 . S
C2506 C347 1.434 . S
C2541 C403 1.434 . S
C2556 C361 1.433 . S
C2591 C375 1.433 . S
C2606 C417 1.434 . S
C2641 C389 1.434 . S
C2656 C431 1.433 . S
C2691 C459 1.433 . S
C2706 C627 1.434 . S
C2741 C473 1.433 . S
C2756 C585 1.434 . S
C2791 C599 1.433 . S
C2806 C487 1.434 . S
C2841 C613 1.433 . S
C2856 C501 1.434 . S
C2891 C669 1.434 . S
C2906 C515 1.433 . S
C2941 C641 1.434 . S
C2956 C529 1.433 . S
C2991 C655 1.434 . S
C3006 C543 1.433 . S
C3041 C557 1.433 . S
C3056 C571 1.434 . S
C3091 C4 0.728 . S
C3106 C124 0.728 . S
C3141 C138 0.727 . S
C3156 C18 0.729 . S
C3191 C152 0.726 . S
C3206 C32 0.729 . S
C3241 C166 0.726 . S
C3256 C46 0.729 . S
C3291 C60 0.727 . S
C3306 C180 0.729 . S
C3341 C194 0.728 . S
C3356 C74 0.727 . S
C3391 C88 0.729 . S
C3406 C208 0.726 . S
C3441 C222 0.728 . S
C3456 C102 0.727 . S
C3491 C236 0.727 . S
C3506 C116 0.728 . S
C3541 C334 0.726 . S
C3556 C130 0.728 . S
C3591 C144 0.726 . S
C3606 C306 0.729 . S
C3641 C158 0.727 . S
C3656 C320 0.727 . S
C3691 C172 0.726 . S
C3706 C250 0.729 . S
C3741 C186 0.726 . S
C3756 C264 0.729 . S
C3791 C200 0.728 . S
C3806 C278 0.727 . S
C3841 C214 0.726 . S
C3856 C292 0.729 . S
C3891 C228 0.727 . S
C3906 C12 0.729 . S
C3941 C242 0.727 . S
C3956 C68 0.727 . S
C3991 C256 0.729 . S
C4006 C82 0.726 . S
C4041 C270 0.728 . S
C4056 C96 0.726 . S
C4091 C284 0.728 . S
C4106 C110 0.727 . S
C4141 C298 0.726 . S
C4156 C40 0.729 . S
C4191 C54 0.727 . S
C4206 C312 0.729 . S
C4241 C26 0.728 . S
C4256 C326 0.727 . S
C4291 C460 0.728 . S
C4306 C340 0.728 . S
C4341 C474 0.729 . S
C4356 C354 0.726 . S
C4391 C488 0.727 . S
C4406 C368 0.728 . S
C4441 C502 0.728 . S
C4456 C382 0.728 . S
C4491 C516 0.727 . S
C4506 C396 0.728 . S
C4541 C410 0.727 . S
C4556 C530 0.728 . S
C4591 C544 0.729 . S
C4606 C424 0.727 . S
C4641 C438 0.728 . S
C4656 C558 0.728 . S
C4691 C572 0.726 . S
C4706 C452 0.729 . S
C4741 C466 0.726 . S
C4756 C670 0.729 . S
C4791 C480 0.729 . S
C4806 C642 0.726 . S
C4841 C656 0.727 . S
C4856 C494 0.728 . S
C4891 C586 0.726 . S
C4906 C508 0.729 . S
C4941 C522 0.726 . S
C4956 C600 0.729 . S
C4991 C536 0.728 . S
C5006 C614 0.727 . S
C5041 C628 0.729 . S
C5056 C550 0.726 . S
C5091 C348 0.729 . S
C5106 C564 0.726 . S
C5141 C404 0.727 . S
C5156 C578 0.728 . S
C5191 C418 0.728 . S
C5206 C592 0.726 . S
C5241 C606 0.728 . S
C5256 C432 0.726 . S
C5291 C446 0.727 . S
C5306 C620 0.728 . S
C5341 C376 0.729 . S
C5356 C634 0.726 . S
C5391 C648 0.729 . S
C5406 C390 0.726 . S
C5441 C362 0.726 . S
C5456 C662 0.729 . S
