# Generated by pormake.
# Topology noz, (5)-cn, num edge types: 1
# Building blocks:
#     Node 0, Type 0, BuildingBlock: BEQFEK_clean_sbu_0, # of connection points: 5
#     Node 1, Type 0, BuildingBlock: BEQFEK_clean_sbu_0, # of connection points: 5
#     Node 2, Type 0, BuildingBlock: BEQFEK_clean_sbu_0, # of connection points: 5
#     Node 3, Type 0, BuildingBlock: BEQFEK_clean_sbu_0, # of connection points: 5
#     Node 4, Type 0, BuildingBlock: BEQFEK_clean_sbu_0, # of connection points: 5
#     Node 5, Type 0, BuildingBlock: BEQFEK_clean_sbu_0, # of connection points: 5
#     Node 6, Type 0, BuildingBlock: BEQFEK_clean_sbu_0, # of connection points: 5
#     Node 7, Type 0, BuildingBlock: BEQFEK_clean_sbu_0, # of connection points: 5
#     Edge 8, Type (0, 0), None
#     Edge 9, Type (0, 0), None
#     Edge 10, Type (0, 0), None
#     Edge 11, Type (0, 0), None
#     Edge 12, Type (0, 0), None
#     Edge 13, Type (0, 0), None
#     Edge 14, Type (0, 0), None
#     Edge 15, Type (0, 0), None
#     Edge 16, Type (0, 0), None
#     Edge 17, Type (0, 0), None
#     Edge 18, Type (0, 0), None
#     Edge 19, Type (0, 0), None
#     Edge 20, Type (0, 0), None
#     Edge 21, Type (0, 0), None
#     Edge 22, Type (0, 0), None
#     Edge 23, Type (0, 0), None
#     Edge 24, Type (0, 0), None
#     Edge 25, Type (0, 0), None
#     Edge 26, Type (0, 0), None
#     Edge 27, Type (0, 0), None
# Relax obj value: 0.121
# Max RMSD: 0.203
# Mean RMSD: 0.123
data_MOF--net-noz--node1-BEQFEK_clean_sbu_0--edge1-none
_symmetry_space_group_name_H-M    P1
_symmetry_Int_Tables_number       1
_symmetry_cell_setting            triclinic
loop_
_symmetry_equiv_pos_as_xyz
'x, y, z'
_cell_length_a     12.755769
_cell_length_b     21.280083
_cell_length_c     21.637974
_cell_angle_alpha  89.38838
_cell_angle_beta   99.938463
_cell_angle_gamma 80.404298
loop_
_atom_site_label
_atom_site_type_symbol
_atom_site_fract_x
_atom_site_fract_y
_atom_site_fract_z
_atom_type_partial_charge
Co0 Co 0.21157 0.39477 0.39609 0.0
Co1 Co 0.06369 0.34829 0.48187 0.0
C2 C 0.28671 0.28162 0.49712 0.0
O3 O 0.30174 0.3211 0.45553 0.0
O4 O 0.1949 0.28483 0.51362 0.0
C5 C 0.35139 0.35954 0.30834 0.0
O6 O 0.34452 0.30372 0.33225 0.0
C7 C 0.90371 0.28954 0.53109 0.0
C8 C 0.78587 0.37594 0.54308 0.0
C9 C 0.80072 0.31029 0.54351 0.0
N10 N 0.94537 0.3413 0.52039 0.0
N11 N 0.87614 0.39266 0.52919 0.0
C12 C 0.96221 0.22278 0.52756 0.0
H13 H 0.02862 0.22248 0.50049 0.0
H14 H 0.90721 0.19094 0.50571 0.0
H15 H 0.9988 0.20371 0.57575 0.0
C16 C 1.01962 0.37891 0.29842 0.0
N17 N 0.07707 0.37115 0.35744 0.0
N18 N 1.02025 0.34647 0.39376 0.0
C19 C 0.92731 0.33564 0.35865 0.0
C20 C 0.92227 0.35709 0.29773 0.0
C21 C 0.05313 0.41206 0.24566 0.0
H22 H 0.09497 0.45159 0.26379 0.0
H23 H 0.11091 0.37767 0.22453 0.0
H24 H 0.9825 0.43092 0.20885 0.0
O25 O 0.17408 0.47587 0.44236 0.0
O26 O 0.07958 0.43451 0.50399 0.0
H27 H 0.80045 0.33398 0.41124 0.0
H28 H 0.78828 0.28772 0.34209 0.0
C29 C 0.84626 0.30213 0.38142 0.0
H30 H 0.88857 0.25822 0.40829 0.0
H31 H 0.88723 0.43944 0.52187 0.0
O32 O 0.29925 0.40943 0.32812 0.0
C33 C 0.11646 0.48143 0.4855 0.0
Co34 Co 0.46848 0.5923 0.88828 0.0
Co35 Co 0.67006 0.63641 0.97494 0.0
C36 C 0.46118 0.71883 0.9472 0.0
O37 O 0.41838 0.67664 0.91654 0.0
O38 O 0.55982 0.71002 0.97141 0.0
C39 C 0.32605 0.62899 0.78215 0.0
O40 O 0.38757 0.67303 0.78937 0.0
C41 C 0.81499 0.72492 0.03503 0.0
C42 C 0.97334 0.6619 0.05499 0.0
C43 C 0.92376 0.72466 0.05814 0.0
N44 N 0.80089 0.66499 1.01886 0.0
N45 N 0.89629 0.62761 0.03215 0.0
C46 C 0.72842 0.7827 1.02285 0.0
H47 H 0.66379 0.77739 0.0499 0.0
H48 H 0.69289 0.78716 0.97213 0.0
H49 H 0.76006 0.82698 0.03648 0.0
C50 C 0.6308 0.5666 0.80341 0.0
N51 N 0.6018 0.58743 0.85779 0.0
N52 N 0.68135 0.61205 0.89042 0.0
C53 C 0.75986 0.61149 0.85559 0.0
C54 C 0.73031 0.58254 0.79922 0.0
C55 C 0.56839 0.52856 0.75742 0.0
H56 H 0.49264 0.52086 0.77216 0.0
H57 H 0.55154 0.55257 0.71018 0.0
H58 H 0.61852 0.48132 0.75364 0.0
O59 O 0.48205 0.53474 0.96078 0.0
O60 O 0.62196 0.56496 1.02331 0.0
H61 H 0.92187 0.59847 0.90568 0.0
H62 H 0.89733 0.65028 0.83675 0.0
C63 C 0.86247 0.63628 0.87701 0.0
H64 H 0.84728 0.67834 0.90594 0.0
H65 H 0.90957 0.57906 1.02339 0.0
O66 O 0.34765 0.58137 0.82081 0.0
C67 C 0.54514 0.5319 1.01349 0.0
Co68 Co 0.11246 0.67321 0.54186 0.0
Co69 Co 0.9599 0.61195 0.61164 0.0
C70 C 0.87709 0.73065 0.52607 0.0
O71 O 0.97007 0.72935 0.51205 0.0
O72 O 0.86104 0.68859 0.56425 0.0
C73 C 0.21557 0.77349 0.54618 0.0
O74 O 0.13815 0.79417 0.5776 0.0
C75 C 0.82444 0.61082 0.70832 0.0
C76 C 0.82656 0.50842 0.72657 0.0
C77 C 0.79139 0.56846 0.74712 0.0
N78 N 0.87974 0.57739 0.66812 0.0
N79 N 0.87975 0.51611 0.67895 0.0
C80 C 0.80291 0.68212 0.70834 0.0
H81 H 0.88029 0.70038 0.71231 0.0
H82 H 0.76024 0.69975 0.74695 0.0
H83 H 0.75234 0.70096 0.66288 0.0
C84 C 0.2449 0.65839 0.66861 0.0
N85 N 0.14984 0.65831 0.63016 0.0
N86 N 0.08499 0.63406 0.66114 0.0
C87 C 0.13731 0.61807 0.72057 0.0
C88 C 0.23934 0.63439 0.72712 0.0
C89 C 0.34687 0.66775 0.64725 0.0
H90 H 0.34705 0.65057 0.5992 0.0
H91 H 0.35381 0.71891 0.64886 0.0
H92 H 0.41907 0.64104 0.67818 0.0
O93 O 0.12832 0.59031 0.50229 0.0
O94 O 1.01939 0.54575 0.55329 0.0
H95 H 0.07465 0.53707 0.7482 0.0
H96 H 0.15338 0.5715 0.81243 0.0
C97 C 0.09499 0.58229 0.76791 0.0
H98 H 1.02078 0.61143 0.77834 0.0
H99 H 0.91839 0.47945 0.65498 0.0
O100 O 0.21754 0.72053 0.52001 0.0
C101 C 0.08635 0.5426 0.51474 0.0
Co102 Co 0.50868 0.39591 0.15707 0.0
Co103 Co 0.67 0.34057 0.07113 0.0
C104 C 0.48129 0.279 0.07522 0.0
O105 O 0.44647 0.32197 0.11113 0.0
O106 O 0.56981 0.27937 0.05632 0.0
C107 C 0.41791 0.36131 0.2587 0.0
O108 O 0.47205 0.30722 0.24387 0.0
C109 C 0.80936 0.26476 1.00032 0.0
C110 C 0.91097 0.33292 0.9758 0.0
C111 C 0.89138 0.27129 0.96826 0.0
N112 N 0.77934 0.32068 1.02475 0.0
N113 N 0.83853 0.36179 1.00927 0.0
C114 C 0.76934 0.20477 1.01471 0.0
H115 H 0.69443 0.20189 0.98089 0.0
H116 H 0.75028 0.20549 0.06285 0.0
H117 H 0.82972 0.16157 1.01123 0.0
C118 C 0.71985 0.38197 0.24752 0.0
N119 N 0.66035 0.37117 0.19211 0.0
N120 N 0.72643 0.34422 0.15588 0.0
C121 C 0.82892 0.3351 0.18723 0.0
C122 C 0.82877 0.35932 0.2462 0.0
C123 C 0.67383 0.41883 0.298 0.0
H124 H 0.60981 0.4587 0.27657 0.0
H125 H 0.63586 0.38714 0.32506 0.0
H126 H 0.7373 0.43787 0.33046 0.0
O127 O 0.49851 0.47407 0.09891 0.0
O128 O 0.61082 0.42596 0.03954 0.0
H129 H 0.95137 0.33745 0.13162 0.0
H130 H 0.99293 0.28398 0.1998 0.0
C131 C 0.92471 0.30273 0.16151 0.0
H132 H 0.90264 0.26284 0.13232 0.0
H133 H 0.83125 0.40898 1.02295 0.0
O134 O 0.42222 0.41225 0.22819 0.0
C135 C 0.55148 0.4752 0.05381 0.0
Co136 Co 0.71159 0.89477 0.39609 0.0
Co137 Co 0.56369 0.8483 0.48185 0.0
C138 C 0.78671 0.78162 0.49712 0.0
O139 O 0.80174 0.8211 0.45554 0.0
O140 O 0.69489 0.78483 0.51362 0.0
C141 C 0.85146 0.85955 0.30837 0.0
O142 O 0.84462 0.80373 0.33229 0.0
C143 C 0.40365 0.78955 0.53101 0.0
C144 C 0.28582 0.87596 0.54301 0.0
C145 C 0.30062 0.81031 0.54336 0.0
N146 N 0.44536 0.84131 0.52036 0.0
N147 N 0.37613 0.89268 0.52917 0.0
C148 C 0.46215 0.72279 0.52751 0.0
H149 H 0.52858 0.72248 0.50045 0.0
H150 H 0.40716 0.69094 0.50566 0.0
H151 H 0.49871 0.70373 0.5757 0.0
C152 C 0.51964 0.87894 0.29841 0.0
N153 N 0.57709 0.87116 0.35742 0.0
N154 N 0.52026 0.84648 0.39374 0.0
C155 C 0.42732 0.83566 0.35862 0.0
C156 C 0.42228 0.85712 0.29771 0.0
C157 C 0.55316 0.9121 0.24566 0.0
H158 H 0.59498 0.95165 0.2638 0.0
H159 H 0.61096 0.87773 0.22453 0.0
H160 H 0.48254 0.93097 0.20884 0.0
O161 O 0.67409 0.97587 0.44236 0.0
O162 O 0.57958 0.93451 0.50398 0.0
H163 H 0.30044 0.83398 0.41118 0.0
H164 H 0.28832 0.78772 0.34203 0.0
C165 C 0.34627 0.80214 0.38137 0.0
H166 H 0.38858 0.75822 0.40824 0.0
H167 H 0.38726 0.93946 0.52189 0.0
O168 O 0.79927 0.90944 0.32813 0.0
C169 C 0.61646 0.98143 0.48549 0.0
Co170 Co 0.96847 0.09229 0.88825 0.0
Co171 Co 0.16998 0.13644 0.97493 0.0
C172 C 0.96111 0.21887 0.94707 0.0
O173 O 0.91835 0.17667 0.91641 0.0
O174 O 0.05972 0.21006 0.97138 0.0
C175 C 0.82613 0.12892 0.7821 0.0
O176 O 0.88771 0.17293 0.78928 0.0
C177 C 0.31496 0.22494 0.03498 0.0
C178 C 0.47328 0.1619 0.05496 0.0
C179 C 0.42374 0.22468 0.05803 0.0
N180 N 0.30081 0.16501 1.01885 0.0
N181 N 0.3962 0.12762 0.03216 0.0
C182 C 0.2284 0.28273 1.02279 0.0
H183 H 0.16377 0.27744 0.04984 0.0
H184 H 0.19285 0.28717 0.97207 0.0
H185 H 0.26006 0.32701 0.0364 0.0
C186 C 0.13085 0.06656 0.80342 0.0
N187 N 0.10181 0.0874 0.85779 0.0
N188 N 0.18133 0.11204 0.89042 0.0
C189 C 0.25985 0.11149 0.8556 0.0
C190 C 0.23035 0.08252 0.79924 0.0
C191 C 0.06848 0.02849 0.75743 0.0
H192 H 0.99269 0.02082 0.77214 0.0
H193 H 0.05172 0.05245 0.71018 0.0
H194 H 0.11861 0.98124 0.75371 0.0
O195 O 0.98198 0.03478 0.96078 0.0
O196 O 0.12188 0.065 1.02331 0.0
H197 H 0.42183 0.09852 0.90573 0.0
H198 H 0.39733 0.15027 0.83676 0.0
C199 C 0.36243 0.1363 0.87702 0.0
H200 H 0.3472 0.17839 0.90592 0.0
H201 H 0.40944 0.07905 1.02343 0.0
O202 O 0.84767 0.08132 0.82078 0.0
C203 C 0.04506 0.03194 1.01349 0.0
Co204 Co 0.61247 0.17321 0.54184 0.0
Co205 Co 0.4599 0.11195 0.61164 0.0
C206 C 0.3771 0.23066 0.52607 0.0
O207 O 0.47007 0.22935 0.51204 0.0
O208 O 0.36104 0.1886 0.56425 0.0
C209 C 0.71562 0.27348 0.54624 0.0
O210 O 0.6382 0.29413 0.57767 0.0
C211 C 0.32446 0.11081 0.70832 0.0
C212 C 0.32663 0.00841 0.72659 0.0
C213 C 0.29144 0.06845 0.74714 0.0
N214 N 0.37975 0.07739 0.66813 0.0
N215 N 0.3798 0.01611 0.67896 0.0
C216 C 0.30289 0.18212 0.70834 0.0
H217 H 0.38025 0.20039 0.7123 0.0
H218 H 0.26022 0.19974 0.74696 0.0
H219 H 0.25231 0.20094 0.66288 0.0
C220 C 0.74495 0.15832 0.66856 0.0
N221 N 0.64985 0.15828 0.63013 0.0
N222 N 0.58499 0.13406 0.66113 0.0
C223 C 0.63734 0.11806 0.72055 0.0
C224 C 0.73939 0.13434 0.72707 0.0
C225 C 0.84693 0.1676 0.64718 0.0
H226 H 0.84702 0.15046 0.59911 0.0
H227 H 0.854 0.21875 0.64883 0.0
H228 H 0.9191 0.14082 0.67807 0.0
O229 O 0.62832 0.09031 0.50226 0.0
O230 O 0.5194 0.04576 0.55328 0.0
H231 H 0.57464 0.0371 0.74823 0.0
H232 H 0.65336 0.07156 0.81243 0.0
C233 C 0.59498 0.08233 0.76791 0.0
H234 H 0.52078 0.11149 0.77832 0.0
H235 H 0.41845 0.97945 0.65499 0.0
O236 O 0.71757 0.22055 0.52001 0.0
C237 C 0.58635 0.04261 0.51472 0.0
Co238 Co 1.00867 0.89595 0.15708 0.0
Co239 Co 0.16992 0.84062 0.07111 0.0
C240 C 0.98127 0.77901 0.07526 0.0
O241 O 0.94648 0.82199 0.11117 0.0
O242 O 0.06977 0.77939 0.05633 0.0
C243 C 0.91797 0.86134 0.25873 0.0
O244 O 0.97214 0.80725 0.2439 0.0
C245 C 0.30944 0.76473 1.00047 0.0
C246 C 0.41088 0.83293 0.97577 0.0
C247 C 0.39154 0.77124 0.96847 0.0
N248 N 0.27924 0.82071 1.02473 0.0
N249 N 0.33832 0.86184 1.00915 0.0
C250 C 0.26951 0.70474 1.01496 0.0
H251 H 0.19465 0.70176 0.98113 0.0
H252 H 0.2504 0.70554 0.06308 0.0
H253 H 0.32998 0.66156 1.01156 0.0
C254 C 0.21986 0.88202 0.24751 0.0
N255 N 0.16034 0.87122 0.19211 0.0
N256 N 0.22641 0.84428 0.15586 0.0
C257 C 0.32891 0.83517 0.1872 0.0
C258 C 0.32878 0.85938 0.24618 0.0
C259 C 0.17385 0.91887 0.298 0.0
H260 H 0.10983 0.95874 0.27659 0.0
H261 H 0.1359 0.88717 0.32506 0.0
H262 H 0.23733 0.93791 0.33046 0.0
O263 O 0.99846 0.97411 0.09892 0.0
O264 O 0.11071 0.926 0.03951 0.0
H265 H 0.45124 0.83752 0.13151 0.0
H266 H 0.49297 0.78412 0.19974 0.0
C267 C 0.42469 0.8028 0.16146 0.0
H268 H 0.40265 0.76288 0.13233 0.0
H269 H 0.33087 0.90908 1.02269 0.0
O270 O 0.92223 0.91228 0.22821 0.0
C271 C 0.05139 0.97524 0.0538 0.0
loop_
_geom_bond_atom_site_label_1
_geom_bond_atom_site_label_2
_geom_bond_distance
_geom_bond_site_symmetry_2
_ccdc_geom_bond_type
Co0 O3 1.970 . S
Co0 N17 1.989 . S
Co0 O25 1.967 . S
Co0 O32 1.920 . S
Co1 O4 1.966 . S
Co1 N10 2.022 1_455 S
Co1 N18 1.993 1_455 S
Co1 O26 1.941 . S
C2 O3 1.258 . S
C2 O4 1.263 . S
O3 Co0 1.970 . S
O3 C2 1.258 . S
O4 Co1 1.966 . S
O4 C2 1.263 . S
C5 O6 1.235 . S
C5 O32 1.289 . S
O6 C5 1.235 . S
C7 C9 1.400 . S
C7 N10 1.351 . S
C7 C12 1.501 . S
C8 C9 1.387 . S
C8 N11 1.341 . S
C9 C7 1.400 . S
C9 C8 1.387 . S
N10 Co1 2.022 1_655 S
N10 C7 1.351 . S
N10 N11 1.365 . S
N11 C8 1.341 . S
N11 N10 1.365 . S
N11 H31 0.862 . S
C12 C7 1.501 . S
C12 H13 0.961 1_655 S
C12 H14 0.961 . S
C12 H15 0.960 1_655 S
H13 C12 0.961 1_455 S
H14 C12 0.961 . S
H15 C12 0.960 1_455 S
C16 N17 1.342 1_655 S
C16 C20 1.401 . S
C16 C21 1.499 1_655 S
N17 Co0 1.989 . S
N17 C16 1.342 1_455 S
N17 N18 1.388 1_455 S
N18 Co1 1.993 1_655 S
N18 N17 1.388 1_655 S
N18 C19 1.346 . S
C19 N18 1.346 . S
C19 C20 1.396 . S
C19 C29 1.510 . S
C20 C16 1.401 . S
C20 C19 1.396 . S
C21 C16 1.499 1_455 S
C21 H22 0.959 . S
C21 H23 0.960 . S
C21 H24 0.961 1_455 S
H22 C21 0.959 . S
H23 C21 0.960 . S
H24 C21 0.961 1_655 S
O25 Co0 1.967 . S
O25 C33 1.258 . S
O26 Co1 1.941 . S
O26 C33 1.266 . S
H27 C29 0.959 . S
H28 C29 0.961 . S
C29 C19 1.510 . S
C29 H27 0.959 . S
C29 H28 0.961 . S
C29 H30 0.960 . S
H30 C29 0.960 . S
H31 N11 0.862 . S
O32 Co0 1.920 . S
O32 C5 1.289 . S
C33 O25 1.258 . S
C33 O26 1.266 . S
Co34 O37 1.970 . S
Co34 N51 1.989 . S
Co34 O59 1.967 . S
Co34 O66 1.920 . S
Co35 O38 1.966 . S
Co35 N44 2.022 1_556 S
Co35 N52 1.993 . S
Co35 O60 1.941 . S
C36 O37 1.258 . S
C36 O38 1.263 . S
O37 Co34 1.970 . S
O37 C36 1.258 . S
O38 Co35 1.966 . S
O38 C36 1.263 . S
C39 O40 1.235 . S
C39 O66 1.289 . S
O40 C39 1.235 . S
C41 C43 1.400 . S
C41 N44 1.351 . S
C41 C46 1.501 . S
C42 C43 1.387 . S
C42 N45 1.341 . S
C43 C41 1.400 . S
C43 C42 1.387 . S
N44 Co35 2.022 1_554 S
N44 C41 1.351 . S
N44 N45 1.365 . S
N45 C42 1.341 . S
N45 N44 1.365 . S
N45 H65 0.862 . S
C46 C41 1.501 . S
C46 H47 0.961 . S
C46 H48 0.961 1_554 S
C46 H49 0.960 . S
H47 C46 0.961 . S
H48 C46 0.961 1_556 S
H49 C46 0.960 . S
C50 N51 1.342 . S
C50 C54 1.401 . S
C50 C55 1.499 . S
N51 Co34 1.989 . S
N51 C50 1.342 . S
N51 N52 1.388 . S
N52 Co35 1.993 . S
N52 N51 1.388 . S
N52 C53 1.346 . S
C53 N52 1.346 . S
C53 C54 1.396 . S
C53 C63 1.510 . S
C54 C50 1.401 . S
C54 C53 1.396 . S
C55 C50 1.499 . S
C55 H56 0.959 . S
C55 H57 0.960 . S
C55 H58 0.961 . S
H56 C55 0.959 . S
H57 C55 0.960 . S
H58 C55 0.961 . S
O59 Co34 1.967 . S
O59 C67 1.258 . S
O60 Co35 1.941 . S
O60 C67 1.266 . S
H61 C63 0.959 . S
H62 C63 0.961 . S
C63 C53 1.510 . S
C63 H61 0.959 . S
C63 H62 0.961 . S
C63 H64 0.960 . S
H64 C63 0.960 . S
H65 N45 0.862 . S
O66 Co34 1.920 . S
O66 C39 1.289 . S
C67 O59 1.258 . S
C67 O60 1.266 . S
Co68 O71 1.970 1_455 S
Co68 N85 1.989 . S
Co68 O93 1.967 . S
Co68 O100 1.920 . S
Co69 O72 1.966 . S
Co69 N78 2.022 . S
Co69 N86 1.993 1_655 S
Co69 O94 1.941 . S
C70 O71 1.258 . S
C70 O72 1.263 . S
O71 Co68 1.970 1_655 S
O71 C70 1.258 . S
O72 Co69 1.966 . S
O72 C70 1.263 . S
C73 O74 1.235 . S
C73 O100 1.289 . S
O74 C73 1.235 . S
C75 C77 1.400 . S
C75 N78 1.351 . S
C75 C80 1.501 . S
C76 C77 1.387 . S
C76 N79 1.341 . S
C77 C75 1.400 . S
C77 C76 1.387 . S
N78 Co69 2.022 . S
N78 C75 1.351 . S
N78 N79 1.365 . S
N79 C76 1.341 . S
N79 N78 1.365 . S
N79 H99 0.862 . S
C80 C75 1.501 . S
C80 H81 0.961 . S
C80 H82 0.961 . S
C80 H83 0.960 . S
H81 C80 0.961 . S
H82 C80 0.961 . S
H83 C80 0.960 . S
C84 N85 1.342 . S
C84 C88 1.401 . S
C84 C89 1.499 . S
N85 Co68 1.989 . S
N85 C84 1.342 . S
N85 N86 1.388 . S
N86 Co69 1.993 1_455 S
N86 N85 1.388 . S
N86 C87 1.346 . S
C87 N86 1.346 . S
C87 C88 1.396 . S
C87 C97 1.510 . S
C88 C84 1.401 . S
C88 C87 1.396 . S
C89 C84 1.499 . S
C89 H90 0.959 . S
C89 H91 0.960 . S
C89 H92 0.961 . S
H90 C89 0.959 . S
H91 C89 0.960 . S
H92 C89 0.961 . S
O93 Co68 1.967 . S
O93 C101 1.258 . S
O94 Co69 1.941 . S
O94 C101 1.266 1_655 S
H95 C97 0.959 . S
H96 C97 0.961 . S
C97 C87 1.510 . S
C97 H95 0.959 . S
C97 H96 0.961 . S
C97 H98 0.960 . S
H98 C97 0.960 . S
H99 N79 0.862 . S
O100 Co68 1.920 . S
O100 C73 1.289 . S
C101 O93 1.258 . S
C101 O94 1.266 1_455 S
Co102 O105 1.970 . S
Co102 N119 1.989 . S
Co102 O127 1.967 . S
Co102 O134 1.920 . S
Co103 O106 1.966 . S
Co103 N112 2.022 1_554 S
Co103 N120 1.993 . S
Co103 O128 1.941 . S
C104 O105 1.258 . S
C104 O106 1.263 . S
O105 Co102 1.970 . S
O105 C104 1.258 . S
O106 Co103 1.966 . S
O106 C104 1.263 . S
C107 O108 1.235 . S
C107 O134 1.289 . S
O108 C107 1.235 . S
C109 C111 1.400 . S
C109 N112 1.351 . S
C109 C114 1.501 . S
C110 C111 1.387 . S
C110 N113 1.341 . S
C111 C109 1.400 . S
C111 C110 1.387 . S
N112 Co103 2.022 1_556 S
N112 C109 1.351 . S
N112 N113 1.365 . S
N113 C110 1.341 . S
N113 N112 1.365 . S
N113 H133 0.862 1_556 S
C114 C109 1.501 . S
C114 H115 0.961 . S
C114 H116 0.970 . S
C114 H117 0.960 . S
H115 C114 0.961 . S
H116 C114 0.970 . S
H117 C114 0.960 . S
C118 N119 1.342 . S
C118 C122 1.401 . S
C118 C123 1.499 . S
N119 Co102 1.989 . S
N119 C118 1.342 . S
N119 N120 1.388 . S
N120 Co103 1.993 . S
N120 N119 1.388 . S
N120 C121 1.346 . S
C121 N120 1.346 . S
C121 C122 1.396 . S
C121 C131 1.510 . S
C122 C118 1.401 . S
C122 C121 1.396 . S
C123 C118 1.499 . S
C123 H124 0.959 . S
C123 H125 0.960 . S
C123 H126 0.961 . S
H124 C123 0.959 . S
H125 C123 0.960 . S
H126 C123 0.961 . S
O127 Co102 1.967 . S
O127 C135 1.258 . S
O128 Co103 1.941 . S
O128 C135 1.266 . S
H129 C131 0.959 . S
H130 C131 0.961 . S
C131 C121 1.510 . S
C131 H129 0.959 . S
C131 H130 0.961 . S
C131 H132 0.960 . S
H132 C131 0.960 . S
H133 N113 0.862 1_554 S
O134 Co102 1.920 . S
O134 C107 1.289 . S
C135 O127 1.258 . S
C135 O128 1.266 . S
Co136 O139 1.970 . S
Co136 N153 1.989 . S
Co136 O161 1.967 . S
Co136 O168 1.920 . S
Co137 O140 1.966 . S
Co137 N146 2.022 . S
Co137 N154 1.993 . S
Co137 O162 1.941 . S
C138 O139 1.258 . S
C138 O140 1.263 . S
O139 Co136 1.970 . S
O139 C138 1.258 . S
O140 Co137 1.966 . S
O140 C138 1.263 . S
C141 O142 1.235 . S
C141 O168 1.289 . S
O142 C141 1.235 . S
C143 C145 1.400 . S
C143 N146 1.351 . S
C143 C148 1.501 . S
C144 C145 1.387 . S
C144 N147 1.341 . S
C145 C143 1.400 . S
C145 C144 1.387 . S
N146 Co137 2.022 . S
N146 C143 1.351 . S
N146 N147 1.365 . S
N147 C144 1.341 . S
N147 N146 1.365 . S
N147 H167 0.862 . S
C148 C143 1.501 . S
C148 H149 0.961 . S
C148 H150 0.961 . S
C148 H151 0.960 . S
H149 C148 0.961 . S
H150 C148 0.961 . S
H151 C148 0.960 . S
C152 N153 1.342 . S
C152 C156 1.401 . S
C152 C157 1.499 . S
N153 Co136 1.989 . S
N153 C152 1.342 . S
N153 N154 1.388 . S
N154 Co137 1.993 . S
N154 N153 1.388 . S
N154 C155 1.346 . S
C155 N154 1.346 . S
C155 C156 1.396 . S
C155 C165 1.510 . S
C156 C152 1.401 . S
C156 C155 1.396 . S
C157 C152 1.499 . S
C157 H158 0.959 . S
C157 H159 0.960 . S
C157 H160 0.961 . S
H158 C157 0.959 . S
H159 C157 0.960 . S
H160 C157 0.961 . S
O161 Co136 1.967 . S
O161 C169 1.258 . S
O162 Co137 1.941 . S
O162 C169 1.266 . S
H163 C165 0.959 . S
H164 C165 0.961 . S
C165 C155 1.510 . S
C165 H163 0.959 . S
C165 H164 0.961 . S
C165 H166 0.960 . S
H166 C165 0.960 . S
H167 N147 0.862 . S
O168 Co136 1.920 . S
O168 C141 1.289 . S
C169 O161 1.258 . S
C169 O162 1.266 . S
Co170 O173 1.970 . S
Co170 N187 1.989 1_655 S
Co170 O195 1.967 . S
Co170 O202 1.920 . S
Co171 O174 1.966 . S
Co171 N180 2.022 1_556 S
Co171 N188 1.993 . S
Co171 O196 1.941 . S
C172 O173 1.258 . S
C172 O174 1.263 1_655 S
O173 Co170 1.970 . S
O173 C172 1.258 . S
O174 Co171 1.966 . S
O174 C172 1.263 1_455 S
C175 O176 1.235 . S
C175 O202 1.289 . S
O176 C175 1.235 . S
C177 C179 1.400 . S
C177 N180 1.351 . S
C177 C182 1.501 . S
C178 C179 1.387 . S
C178 N181 1.341 . S
C179 C177 1.400 . S
C179 C178 1.387 . S
N180 Co171 2.022 1_554 S
N180 C177 1.351 . S
N180 N181 1.365 . S
N181 C178 1.341 . S
N181 N180 1.365 . S
N181 H201 0.862 . S
C182 C177 1.501 . S
C182 H183 0.961 . S
C182 H184 0.961 1_554 S
C182 H185 0.960 . S
H183 C182 0.961 . S
H184 C182 0.961 1_556 S
H185 C182 0.960 . S
C186 N187 1.342 . S
C186 C190 1.401 . S
C186 C191 1.499 . S
N187 Co170 1.989 1_455 S
N187 C186 1.342 . S
N187 N188 1.388 . S
N188 Co171 1.993 . S
N188 N187 1.388 . S
N188 C189 1.346 . S
C189 N188 1.346 . S
C189 C190 1.396 . S
C189 C199 1.510 . S
C190 C186 1.401 . S
C190 C189 1.396 . S
C191 C186 1.499 . S
C191 H192 0.959 1_455 S
C191 H193 0.960 . S
C191 H194 0.961 . S
H192 C191 0.959 1_655 S
H193 C191 0.960 . S
H194 C191 0.961 . S
O195 Co170 1.967 . S
O195 C203 1.258 1_655 S
O196 Co171 1.941 . S
O196 C203 1.266 . S
H197 C199 0.959 . S
H198 C199 0.961 . S
C199 C189 1.510 . S
C199 H197 0.959 . S
C199 H198 0.961 . S
C199 H200 0.960 . S
H200 C199 0.960 . S
H201 N181 0.862 . S
O202 Co170 1.920 . S
O202 C175 1.289 . S
C203 O195 1.258 1_455 S
C203 O196 1.266 . S
Co204 O207 1.970 . S
Co204 N221 1.989 . S
Co204 O229 1.967 . S
Co204 O236 1.920 . S
Co205 O208 1.966 . S
Co205 N214 2.022 . S
Co205 N222 1.993 . S
Co205 O230 1.941 . S
C206 O207 1.258 . S
C206 O208 1.263 . S
O207 Co204 1.970 . S
O207 C206 1.258 . S
O208 Co205 1.966 . S
O208 C206 1.263 . S
C209 O210 1.235 . S
C209 O236 1.289 . S
O210 C209 1.235 . S
C211 C213 1.400 . S
C211 N214 1.351 . S
C211 C216 1.501 . S
C212 C213 1.387 . S
C212 N215 1.341 . S
C213 C211 1.400 . S
C213 C212 1.387 . S
N214 Co205 2.022 . S
N214 C211 1.351 . S
N214 N215 1.365 . S
N215 C212 1.341 . S
N215 N214 1.365 . S
N215 H235 0.862 1_545 S
C216 C211 1.501 . S
C216 H217 0.961 . S
C216 H218 0.961 . S
C216 H219 0.960 . S
H217 C216 0.961 . S
H218 C216 0.961 . S
H219 C216 0.960 . S
C220 N221 1.342 . S
C220 C224 1.401 . S
C220 C225 1.499 . S
N221 Co204 1.989 . S
N221 C220 1.342 . S
N221 N222 1.388 . S
N222 Co205 1.993 . S
N222 N221 1.388 . S
N222 C223 1.346 . S
C223 N222 1.346 . S
C223 C224 1.396 . S
C223 C233 1.510 . S
C224 C220 1.401 . S
C224 C223 1.396 . S
C225 C220 1.499 . S
C225 H226 0.959 . S
C225 H227 0.960 . S
C225 H228 0.961 . S
H226 C225 0.959 . S
H227 C225 0.960 . S
H228 C225 0.961 . S
O229 Co204 1.967 . S
O229 C237 1.258 . S
O230 Co205 1.941 . S
O230 C237 1.266 . S
H231 C233 0.959 . S
H232 C233 0.961 . S
C233 C223 1.510 . S
C233 H231 0.959 . S
C233 H232 0.961 . S
C233 H234 0.960 . S
H234 C233 0.960 . S
H235 N215 0.862 1_565 S
O236 Co204 1.920 . S
O236 C209 1.289 . S
C237 O229 1.258 . S
C237 O230 1.266 . S
Co238 O241 1.970 . S
Co238 N255 1.989 1_655 S
Co238 O263 1.967 . S
Co238 O270 1.920 . S
Co239 O242 1.966 . S
Co239 N248 2.022 1_554 S
Co239 N256 1.993 . S
Co239 O264 1.941 . S
C240 O241 1.258 . S
C240 O242 1.263 1_655 S
O241 Co238 1.970 . S
O241 C240 1.258 . S
O242 Co239 1.966 . S
O242 C240 1.263 1_455 S
C243 O244 1.235 . S
C243 O270 1.289 . S
O244 C243 1.235 . S
C245 C247 1.400 . S
C245 N248 1.351 . S
C245 C250 1.501 . S
C246 C247 1.387 . S
C246 N249 1.341 . S
C247 C245 1.400 . S
C247 C246 1.387 . S
N248 Co239 2.022 1_556 S
N248 C245 1.351 . S
N248 N249 1.365 . S
N249 C246 1.341 . S
N249 N248 1.365 . S
N249 H269 0.862 1_556 S
C250 C245 1.501 . S
C250 H251 0.961 . S
C250 H252 0.970 . S
C250 H253 0.960 . S
H251 C250 0.961 . S
H252 C250 0.970 . S
H253 C250 0.960 . S
C254 N255 1.342 . S
C254 C258 1.401 . S
C254 C259 1.499 . S
N255 Co238 1.989 1_455 S
N255 C254 1.342 . S
N255 N256 1.388 . S
N256 Co239 1.993 . S
N256 N255 1.388 . S
N256 C257 1.346 . S
C257 N256 1.346 . S
C257 C258 1.396 . S
C257 C267 1.510 . S
C258 C254 1.401 . S
C258 C257 1.396 . S
C259 C254 1.499 . S
C259 H260 0.959 . S
C259 H261 0.960 . S
C259 H262 0.961 . S
H260 C259 0.959 . S
H261 C259 0.960 . S
H262 C259 0.961 . S
O263 Co238 1.967 . S
O263 C271 1.258 1_655 S
O264 Co239 1.941 . S
O264 C271 1.266 . S
H265 C267 0.959 . S
H266 C267 0.961 . S
C267 C257 1.510 . S
C267 H265 0.959 . S
C267 H266 0.961 . S
C267 H268 0.960 . S
H268 C267 0.960 . S
H269 N249 0.862 1_554 S
O270 Co238 1.920 . S
O270 C243 1.289 . S
C271 O263 1.258 1_455 S
C271 O264 1.266 . S
C5 C107 1.838 . S
C39 C88 1.541 . S
C77 C54 1.825 . S
C122 C20 1.528 . S
C141 C243 1.838 . S
C224 C175 1.541 . S
C190 C213 1.825 . S
C258 C156 1.528 . S
C101 C33 2.011 . S
C67 C135 1.836 1_556 S
C237 C169 2.011 1_545 S
C271 C203 1.837 1_564 S
C2 C206 2.454 . S
C36 C247 1.233 . S
C73 C145 1.532 . S
C179 C104 2.135 . S
C70 C138 2.454 . S
C111 C172 1.232 . S
C9 C209 1.532 . S
C43 C240 2.135 . S
