# Generated by pormake.
# Topology cag, (4)-cn, num edge types: 1
# Building blocks:
#     Node 0, Type 0, BuildingBlock: QUQFOY_clean_sbu_3, # of connection points: 4
#     Node 1, Type 0, BuildingBlock: QUQFOY_clean_sbu_3, # of connection points: 4
#     Node 2, Type 0, BuildingBlock: QUQFOY_clean_sbu_3, # of connection points: 4
#     Node 3, Type 0, BuildingBlock: QUQFOY_clean_sbu_3, # of connection points: 4
#     Node 4, Type 0, BuildingBlock: QUQFOY_clean_sbu_3, # of connection points: 4
#     Node 5, Type 0, BuildingBlock: QUQFOY_clean_sbu_3, # of connection points: 4
#     Node 6, Type 0, BuildingBlock: QUQFOY_clean_sbu_3, # of connection points: 4
#     Node 7, Type 0, BuildingBlock: QUQFOY_clean_sbu_3, # of connection points: 4
#     Node 8, Type 0, BuildingBlock: QUQFOY_clean_sbu_3, # of connection points: 4
#     Node 9, Type 0, BuildingBlock: QUQFOY_clean_sbu_3, # of connection points: 4
#     Node 10, Type 0, BuildingBlock: QUQFOY_clean_sbu_3, # of connection points: 4
#     Node 11, Type 0, BuildingBlock: QUQFOY_clean_sbu_3, # of connection points: 4
#     Node 12, Type 0, BuildingBlock: QUQFOY_clean_sbu_3, # of connection points: 4
#     Node 13, Type 0, BuildingBlock: QUQFOY_clean_sbu_3, # of connection points: 4
#     Node 14, Type 0, BuildingBlock: QUQFOY_clean_sbu_3, # of connection points: 4
#     Node 15, Type 0, BuildingBlock: QUQFOY_clean_sbu_3, # of connection points: 4
#     Edge 16, Type (0, 0), BuildingBlock: CIFDUS_clean_linker_0, # of connection points: 2
#     Edge 17, Type (0, 0), BuildingBlock: CIFDUS_clean_linker_0, # of connection points: 2
#     Edge 18, Type (0, 0), BuildingBlock: CIFDUS_clean_linker_0, # of connection points: 2
#     Edge 19, Type (0, 0), BuildingBlock: CIFDUS_clean_linker_0, # of connection points: 2
#     Edge 20, Type (0, 0), BuildingBlock: CIFDUS_clean_linker_0, # of connection points: 2
#     Edge 21, Type (0, 0), BuildingBlock: CIFDUS_clean_linker_0, # of connection points: 2
#     Edge 22, Type (0, 0), BuildingBlock: CIFDUS_clean_linker_0, # of connection points: 2
#     Edge 23, Type (0, 0), BuildingBlock: CIFDUS_clean_linker_0, # of connection points: 2
#     Edge 24, Type (0, 0), BuildingBlock: CIFDUS_clean_linker_0, # of connection points: 2
#     Edge 25, Type (0, 0), BuildingBlock: CIFDUS_clean_linker_0, # of connection points: 2
#     Edge 26, Type (0, 0), BuildingBlock: CIFDUS_clean_linker_0, # of connection points: 2
#     Edge 27, Type (0, 0), BuildingBlock: CIFDUS_clean_linker_0, # of connection points: 2
#     Edge 28, Type (0, 0), BuildingBlock: CIFDUS_clean_linker_0, # of connection points: 2
#     Edge 29, Type (0, 0), BuildingBlock: CIFDUS_clean_linker_0, # of connection points: 2
#     Edge 30, Type (0, 0), BuildingBlock: CIFDUS_clean_linker_0, # of connection points: 2
#     Edge 31, Type (0, 0), BuildingBlock: CIFDUS_clean_linker_0, # of connection points: 2
#     Edge 32, Type (0, 0), BuildingBlock: CIFDUS_clean_linker_0, # of connection points: 2
#     Edge 33, Type (0, 0), BuildingBlock: CIFDUS_clean_linker_0, # of connection points: 2
#     Edge 34, Type (0, 0), BuildingBlock: CIFDUS_clean_linker_0, # of connection points: 2
#     Edge 35, Type (0, 0), BuildingBlock: CIFDUS_clean_linker_0, # of connection points: 2
#     Edge 36, Type (0, 0), BuildingBlock: CIFDUS_clean_linker_0, # of connection points: 2
#     Edge 37, Type (0, 0), BuildingBlock: CIFDUS_clean_linker_0, # of connection points: 2
#     Edge 38, Type (0, 0), BuildingBlock: CIFDUS_clean_linker_0, # of connection points: 2
#     Edge 39, Type (0, 0), BuildingBlock: CIFDUS_clean_linker_0, # of connection points: 2
#     Edge 40, Type (0, 0), BuildingBlock: CIFDUS_clean_linker_0, # of connection points: 2
#     Edge 41, Type (0, 0), BuildingBlock: CIFDUS_clean_linker_0, # of connection points: 2
#     Edge 42, Type (0, 0), BuildingBlock: CIFDUS_clean_linker_0, # of connection points: 2
#     Edge 43, Type (0, 0), BuildingBlock: CIFDUS_clean_linker_0, # of connection points: 2
#     Edge 44, Type (0, 0), BuildingBlock: CIFDUS_clean_linker_0, # of connection points: 2
#     Edge 45, Type (0, 0), BuildingBlock: CIFDUS_clean_linker_0, # of connection points: 2
#     Edge 46, Type (0, 0), BuildingBlock: CIFDUS_clean_linker_0, # of connection points: 2
#     Edge 47, Type (0, 0), BuildingBlock: CIFDUS_clean_linker_0, # of connection points: 2
# Relax obj value: 0.111
# Max RMSD: 0.144
# Mean RMSD: 0.144
data_MOF--net-cag--node1-QUQFOY_clean_sbu_3--edge1-CIFDUS_clean_linker_0
_symmetry_space_group_name_H-M    P1
_symmetry_Int_Tables_number       1
_symmetry_cell_setting            triclinic
loop_
_symmetry_equiv_pos_as_xyz
'x, y, z'
_cell_length_a     39.322942
_cell_length_b     44.686041
_cell_length_c     37.530211
_cell_angle_alpha  89.96628
_cell_angle_beta   89.892743
_cell_angle_gamma 90.093354
loop_
_atom_site_label
_atom_site_type_symbol
_atom_site_fract_x
_atom_site_fract_y
_atom_site_fract_z
_atom_type_partial_charge
C0 C 0.35218 0.1453 0.03659 0.0
O1 O 0.35349 0.15013 0.00326 0.0
Cd2 Cd 0.30378 0.14761 0.96626 0.0
O3 O 0.32389 0.1401 0.05188 0.0
Cd4 Cd 0.26295 0.13714 0.03805 0.0
C5 C 0.27662 0.07684 0.9859 0.0
O6 O 0.26243 0.17761 -0.00345 0.0
O7 O 0.21552 0.15246 -0.00097 0.0
O8 O 0.25175 0.16424 0.09277 0.0
C9 C 0.23179 0.1748 0.98685 0.0
O10 O 0.28863 0.09445 0.96232 0.0
C11 C 0.23501 0.14318 0.10725 0.0
O12 O 0.26711 0.08665 0.01607 0.0
O13 O 0.23017 0.11968 0.08891 0.0
C14 C 0.11524 0.83245 0.55706 0.0
O15 O 0.12173 0.8254 0.525 0.0
Cd16 Cd 0.17845 0.82846 0.50216 0.0
O17 O 0.13907 0.83998 0.57818 0.0
Cd18 Cd 0.20129 0.84527 0.58038 0.0
C19 C 0.19616 0.90188 0.52142 0.0
O20 O 0.21194 0.80182 0.54539 0.0
O21 O 0.25623 0.82956 0.55414 0.0
O22 O 0.20077 0.82441 0.64022 0.0
C23 C 0.24377 0.80523 0.54259 0.0
O24 O 0.18978 0.88257 0.49737 0.0
C25 C 0.21432 0.8472 0.65456 0.0
O26 O 0.20032 0.8939 0.55355 0.0
O27 O 0.22271 0.86864 0.63414 0.0
C28 C 0.36915 0.8387 0.92596 0.0
O29 O 0.37204 0.83384 0.95916 0.0
Cd30 Cd 0.32439 0.83165 -0.00133 0.0
O31 O 0.34009 0.84163 0.91159 0.0
Cd32 Cd 0.27997 0.83847 0.9292 0.0
C33 C 0.28766 0.89929 0.98201 0.0
O34 O 0.28772 0.79724 0.96867 0.0
O35 O 0.23752 0.81668 0.97062 0.0
O36 O 0.26877 0.81102 0.87474 0.0
C37 C 0.25753 0.79589 0.98013 0.0
O38 O 0.30293 0.88293 0.00467 0.0
C39 C 0.24938 0.83077 0.86156 0.0
O40 O 0.27819 0.88869 0.95226 0.0
O41 O 0.24314 0.85367 0.88049 0.0
C42 C 0.10863 0.14641 0.41559 0.0
O43 O 0.11685 0.15066 0.4479 0.0
Cd44 Cd 0.17389 0.14244 0.46816 0.0
O45 O 0.13074 0.13785 0.39299 0.0
Cd46 Cd 0.19172 0.1261 0.38948 0.0
C47 C 0.18487 0.06874 0.4469 0.0
O48 O 0.20943 0.16756 0.4252 0.0
O49 O 0.24889 0.13503 0.41511 0.0
O50 O 0.19319 0.14814 0.33025 0.0
C51 C 0.2405 0.16048 0.42716 0.0
O52 O 0.1827 0.08798 0.47183 0.0
C53 C 0.2037 0.12454 0.315 0.0
O54 O 0.18618 0.07698 0.41458 0.0
O55 O 0.20955 0.10203 0.33466 0.0
C56 C 0.55582 0.85446 0.85283 0.0
O57 O 0.55878 0.87644 0.83159 0.0
Cd58 Cd 0.61187 0.90326 0.82677 0.0
O59 O 0.58131 0.84539 0.87052 0.0
Cd60 Cd 0.64128 0.85579 0.87957 0.0
C61 C 0.61945 0.92227 0.9144 0.0
O62 O 0.65791 0.86821 0.81868 0.0
O63 O 0.69417 0.87805 0.86041 0.0
O64 O 0.64834 0.80174 0.88699 0.0
C65 C 0.68752 0.87687 0.82744 0.0
O66 O 0.61517 0.9316 0.88265 0.0
C67 C 0.66577 0.80448 0.91529 0.0
O68 O 0.62706 0.89515 0.92044 0.0
O69 O 0.6718 0.83083 0.92619 0.0
C70 C 0.92281 0.12842 0.33906 0.0
O71 O 0.91535 0.10629 0.31935 0.0
Cd72 Cd 0.86033 0.08331 0.31945 0.0
O73 O 0.9001 0.14101 0.35805 0.0
Cd74 Cd 0.83858 0.13531 0.36867 0.0
C75 C 0.85515 0.06963 0.40842 0.0
O76 O 0.81946 0.12235 0.30868 0.0
O77 O 0.78333 0.11555 0.3513 0.0
O78 O 0.833 0.18984 0.37778 0.0
C79 C 0.78925 0.11635 0.31817 0.0
O80 O 0.85717 0.05785 0.37759 0.0
C81 C 0.81388 0.18622 0.40483 0.0
O82 O 0.85031 0.09751 0.41181 0.0
O83 O 0.80753 0.15966 0.41458 0.0
C84 C 0.54014 0.12578 0.10711 0.0
O85 O 0.54061 0.10429 0.12922 0.0
Cd86 Cd 0.59192 0.07674 0.14071 0.0
O87 O 0.56749 0.13426 0.09208 0.0
Cd88 Cd 0.62744 0.11958 0.09345 0.0
C89 C 0.60793 0.05401 0.05665 0.0
O90 O 0.63805 0.10995 0.15687 0.0
O91 O 0.67452 0.09239 0.11915 0.0
O92 O 0.64307 0.17229 0.08608 0.0
C93 C 0.66737 0.09909 0.15108 0.0
O94 O 0.60126 0.04504 0.0881 0.0
C95 C 0.6646 0.16689 0.06163 0.0
O96 O 0.61561 0.08114 0.0509 0.0
O97 O 0.66793 0.1399 0.05186 0.0
C98 C 0.9363 0.88377 0.63046 0.0
O99 O 0.93224 0.90744 0.64865 0.0
Cd100 Cd 0.87899 0.93326 0.65152 0.0
O101 O 0.91153 0.87239 0.6134 0.0
Cd102 Cd 0.85125 0.88466 0.60486 0.0
C103 C 0.86929 0.94933 0.56435 0.0
O104 O 0.83659 0.8962 0.66656 0.0
O105 O 0.79908 0.90758 0.62696 0.0
O106 O 0.83958 0.83102 0.59639 0.0
C107 C 0.80624 0.90353 0.65946 0.0
O108 O 0.87228 0.96085 0.59519 0.0
C109 C 0.81937 0.83575 0.57059 0.0
O110 O 0.86435 0.92149 0.56089 0.0
O111 O 0.81526 0.86262 0.56077 0.0
C112 C 0.86715 0.63204 0.07325 0.0
O113 O 0.8659 0.63991 0.04078 0.0
Cd114 Cd 0.81211 0.64546 0.01252 0.0
O115 O 0.84016 0.62998 0.09182 0.0
Cd116 Cd 0.7787 0.64001 0.08796 0.0
C117 C 0.7758 0.57823 0.03852 0.0
O118 O 0.78392 0.68212 0.04853 0.0
O119 O 0.73319 0.66384 0.05318 0.0
O120 O 0.79213 0.66156 0.14503 0.0
C121 C 0.75252 0.68457 0.04197 0.0
O122 O 0.78887 0.59434 0.01401 0.0
C123 C 0.76498 0.65316 0.16031 0.0
O124 O 0.76982 0.58914 0.06913 0.0
O125 O 0.74337 0.63898 0.14164 0.0
C126 C 0.63361 0.34128 0.57117 0.0
O127 O 0.6357 0.33921 0.53747 0.0
Cd128 Cd 0.6868 0.34694 0.50417 0.0
O129 O 0.65974 0.34726 0.58992 0.0
Cd130 Cd 0.72152 0.35552 0.58072 0.0
C131 C 0.70697 0.41767 0.53133 0.0
O132 O 0.72584 0.31709 0.53747 0.0
O133 O 0.77258 0.34143 0.54451 0.0
O134 O 0.73063 0.33142 0.63811 0.0
C135 C 0.7569 0.31999 0.52966 0.0
O136 O 0.69772 0.40114 0.50545 0.0
C137 C 0.74709 0.35335 0.65104 0.0
O138 O 0.71519 0.40626 0.56104 0.0
O139 O 0.7527 0.37548 0.63063 0.0
C140 C 0.88326 0.34236 0.94838 0.0
O141 O 0.87925 0.33937 0.98177 0.0
Cd142 Cd 0.82291 0.34004 0.00753 0.0
O143 O 0.8576 0.34486 0.92809 0.0
Cd144 Cd 0.79551 0.34535 0.93158 0.0
C145 C 0.79367 0.40804 0.98097 0.0
O146 O 0.78791 0.30547 0.97431 0.0
O147 O 0.74311 0.33196 0.96301 0.0
O148 O 0.79116 0.31606 0.87687 0.0
C149 C 0.75604 0.30896 0.97742 0.0
O150 O 0.80226 0.39199 0.00751 0.0
C151 C 0.7778 0.33717 0.85916 0.0
O152 O 0.79161 0.39674 0.95004 0.0
O153 O 0.77173 0.36141 0.87554 0.0
C154 C 0.60981 0.65896 0.46142 0.0
O155 O 0.61615 0.66208 0.49435 0.0
Cd156 Cd 0.67371 0.65977 0.51478 0.0
O157 O 0.63393 0.65582 0.4391 0.0
Cd158 Cd 0.69635 0.65485 0.43609 0.0
C159 C 0.69644 0.59095 0.48225 0.0
O160 O 0.70422 0.69506 0.47796 0.0
O161 O 0.74975 0.67045 0.46474 0.0
O162 O 0.68456 0.67757 0.37835 0.0
C163 C 0.73627 0.69292 0.47968 0.0
O164 O 0.69022 0.60677 0.50973 0.0
C165 C 0.70885 0.66439 0.36259 0.0
O166 O 0.69828 0.60293 0.45167 0.0
O167 O 0.72768 0.6475 0.38124 0.0
C168 C 0.05499 0.37925 0.84544 0.0
O169 O 0.0589 0.40149 0.82479 0.0
Cd170 Cd 0.11486 0.42232 0.81662 0.0
O171 O 0.08074 0.36657 0.85916 0.0
Cd172 Cd 0.14267 0.3728 0.8564 0.0
C173 C 0.13442 0.43586 0.9025 0.0
O174 O 0.15387 0.38457 0.79367 0.0
O175 O 0.19342 0.39545 0.83138 0.0
O176 O 0.14853 0.3181 0.86047 0.0
C177 C 0.18497 0.39057 0.79935 0.0
O178 O 0.12855 0.44863 0.87282 0.0
C179 C 0.17208 0.31987 0.88353 0.0
O180 O 0.1384 0.40779 0.90384 0.0
O181 O 0.18091 0.34576 0.89368 0.0
C182 C 0.43184 0.61826 0.37564 0.0
O183 O 0.42768 0.59815 0.35216 0.0
Cd184 Cd 0.3748 0.57182 0.34535 0.0
O185 O 0.40712 0.62657 0.39518 0.0
Cd186 Cd 0.34638 0.61579 0.40285 0.0
C187 C 0.36642 0.54655 0.43064 0.0
O188 O 0.33065 0.60887 0.34057 0.0
O189 O 0.29303 0.59615 0.37978 0.0
O190 O 0.33718 0.66863 0.41747 0.0
C191 C 0.30057 0.60025 0.34734 0.0
O192 O 0.37099 0.53938 0.39813 0.0
C193 C 0.31947 0.66262 0.44495 0.0
O194 O 0.35912 0.57324 0.43913 0.0
O195 O 0.31499 0.63523 0.45247 0.0
C196 C 0.05905 0.60362 0.12921 0.0
O197 O 0.06195 0.5801 0.14789 0.0
Cd198 Cd 0.11747 0.558 0.15459 0.0
O199 O 0.08531 0.61623 0.11643 0.0
Cd200 Cd 0.14668 0.6102 0.11608 0.0
C201 C 0.13716 0.54845 0.06729 0.0
O202 O 0.15762 0.5946 0.17757 0.0
O203 O 0.19837 0.58869 0.13942 0.0
O204 O 0.14881 0.66512 0.11685 0.0
C205 C 0.18888 0.58936 0.17168 0.0
O206 O 0.13039 0.53515 0.09647 0.0
C207 C 0.17104 0.66625 0.09228 0.0
O208 O 0.14224 0.57645 0.06681 0.0
O209 O 0.18156 0.6416 0.07973 0.0
C210 C 0.43784 0.33446 0.6156 0.0
O211 O 0.43115 0.355 0.63794 0.0
Cd212 Cd 0.37677 0.37915 0.64467 0.0
O213 O 0.41472 0.32425 0.59524 0.0
Cd214 Cd 0.35435 0.33395 0.58356 0.0
C215 C 0.37243 0.40553 0.56023 0.0
O216 O 0.33348 0.34114 0.6444 0.0
O217 O 0.29851 0.35154 0.60191 0.0
O218 O 0.34325 0.28223 0.56409 0.0
C219 C 0.30386 0.34911 0.635 0.0
O220 O 0.37343 0.4127 0.59305 0.0
C221 C 0.33035 0.29072 0.53467 0.0
O222 O 0.36827 0.37849 0.5509 0.0
O223 O 0.32971 0.31861 0.52856 0.0
H224 H 0.26075 0.22556 0.96344 0.0
H225 H 0.16772 0.17445 0.95772 0.0
H226 H 0.1416 0.21401 0.92169 0.0
H227 H 0.14443 0.26486 0.89536 0.0
H228 H 0.23695 0.31618 0.90573 0.0
H229 H 0.26428 0.27455 0.93618 0.0
C230 C 0.23481 0.22288 0.95415 0.0
C231 C 0.21611 0.19725 0.96334 0.0
C232 C 0.21992 0.24578 0.93432 0.0
C233 C 0.18256 0.19412 0.95107 0.0
C234 C 0.16765 0.2167 0.93051 0.0
C235 C 0.17069 0.26661 0.90392 0.0
C236 C 0.18873 0.29339 0.89852 0.0
C237 C 0.18596 0.24286 0.92244 0.0
C238 C 0.2226 0.29574 0.90991 0.0
C239 C 0.23821 0.27201 0.9273 0.0
H240 H 0.33791 0.72129 0.45038 0.0
H241 H 0.265 0.65621 0.48822 0.0
H242 H 0.23599 0.69468 0.52257 0.0
H243 H 0.22994 0.74674 0.5401 0.0
H244 H 0.30352 0.8123 0.50564 0.0
H245 H 0.33408 0.77362 0.47193 0.0
C246 C 0.31572 0.71564 0.46624 0.0
C247 C 0.30339 0.6861 0.46659 0.0
C248 C 0.29941 0.73784 0.48648 0.0
C249 C 0.27493 0.67884 0.48756 0.0
C250 C 0.25829 0.70079 0.50715 0.0
C251 C 0.25276 0.75254 0.5253 0.0
C252 C 0.26436 0.7822 0.52488 0.0
C253 C 0.27013 0.73033 0.50653 0.0
C254 C 0.29422 0.78947 0.50622 0.0
C255 C 0.31152 0.76744 0.48687 0.0
H256 H 0.19963 0.79098 0.02008 0.0
H257 H 0.29167 0.7443 0.99082 0.0
H258 H 0.27375 0.7009 0.02502 0.0
H259 H 0.23094 0.67506 0.06012 0.0
H260 H 0.13919 0.72072 0.09156 0.0
H261 H 0.15819 0.76593 0.06007 0.0
C262 C 0.21572 0.77132 0.02139 0.0
C263 C 0.2467 0.7707 0.00268 0.0
C264 C 0.20541 0.74636 0.04147 0.0
C265 C 0.26762 0.74529 0.0049 0.0
C266 C 0.25743 0.72043 0.02442 0.0
C267 C 0.21521 0.695 0.06029 0.0
C268 C 0.18365 0.69464 0.07763 0.0
C269 C 0.22623 0.72058 0.04233 0.0
C270 C 0.16367 0.72064 0.07827 0.0
C271 C 0.17441 0.74635 0.06013 0.0
H272 H 0.33904 0.2301 0.52997 0.0
H273 H 0.28575 0.30462 0.48267 0.0
H274 H 0.25495 0.27075 0.44372 0.0
H275 H 0.24005 0.22009 0.42595 0.0
H276 H 0.294 0.14489 0.46999 0.0
H277 H 0.32807 0.17886 0.5071 0.0
C278 C 0.32086 0.23882 0.51093 0.0
C279 C 0.31439 0.26974 0.50948 0.0
C280 C 0.3034 0.21918 0.48811 0.0
C281 C 0.29114 0.2809 0.48439 0.0
C282 C 0.27342 0.26157 0.46212 0.0
C283 C 0.25955 0.21121 0.44343 0.0
C284 C 0.26443 0.18025 0.44572 0.0
C285 C 0.27892 0.23072 0.4642 0.0
C286 C 0.28999 0.1688 0.46792 0.0
C287 C 0.30923 0.18817 0.48923 0.0
H288 H 0.69831 0.68471 -0.00277 0.0
H289 H 0.77906 0.74021 0.03835 0.0
H290 H 0.7592 0.78229 0.00258 0.0
H291 H 0.71898 0.80328 0.96001 0.0
H292 H 0.64032 0.74753 0.91523 0.0
H293 H 0.65944 0.7053 0.95176 0.0
C294 C 0.71136 0.70609 -0.00164 0.0
C295 C 0.73984 0.7096 0.02047 0.0
C296 C 0.70035 0.72995 0.97698 0.0
C297 C 0.75703 0.73714 0.02144 0.0
C298 C 0.74572 0.76115 0.00105 0.0
C299 C 0.70606 0.78186 0.95823 0.0
C300 C 0.67822 0.77844 0.93529 0.0
C301 C 0.71745 0.75779 0.97876 0.0
C302 C 0.66192 0.75054 0.93275 0.0
C303 C 0.67272 0.72651 0.9537 0.0
H304 H 0.84305 0.2391 0.42469 0.0
H305 H 0.74965 0.18841 0.42822 0.0
H306 H 0.72337 0.22651 0.4655 0.0
H307 H 0.72787 0.27191 0.49993 0.0
H308 H 0.82157 0.32227 0.50124 0.0
H309 H 0.84706 0.28654 0.45927 0.0
C310 C 0.81683 0.23683 0.43331 0.0
C311 C 0.79813 0.21122 0.42387 0.0
C312 C 0.80219 0.25843 0.45584 0.0
C313 C 0.76439 0.20801 0.4354 0.0
C314 C 0.74941 0.2297 0.45671 0.0
C315 C 0.75386 0.27528 0.49098 0.0
C316 C 0.77287 0.29959 0.50373 0.0
C317 C 0.76827 0.25462 0.46761 0.0
C318 C 0.80649 0.30357 0.49187 0.0
C319 C 0.821 0.28321 0.46787 0.0
H320 H 0.77137 0.25103 0.98748 0.0
H321 H 0.69343 0.31666 0.00778 0.0
H322 H 0.65844 0.27853 0.03733 0.0
H323 H 0.64987 0.22611 0.05628 0.0
H324 H 0.72653 0.16035 0.03127 0.0
H325 H 0.76229 0.199 0.00463 0.0
C326 C 0.74681 0.25702 -0.00141 0.0
C327 C 0.735 0.28651 -0.00421 0.0
C328 C 0.72663 0.23495 0.01453 0.0
C329 C 0.70295 0.29398 0.00971 0.0
C330 C 0.68301 0.27224 0.02658 0.0
C331 C 0.67446 0.22038 0.04507 0.0
C332 C 0.68568 0.19057 0.04573 0.0
C333 C 0.69455 0.24261 0.02899 0.0
C334 C 0.71736 0.1832 0.03085 0.0
C335 C 0.73784 0.20525 0.01572 0.0
H336 H 0.83787 0.77744 0.56236 0.0
H337 H 0.75754 0.84047 0.54038 0.0
H338 H 0.72433 0.80139 0.51147 0.0
H339 H 0.71829 0.74982 0.49177 0.0
H340 H 0.79967 0.6869 0.50884 0.0
H341 H 0.8325 0.72541 0.54028 0.0
C342 C 0.81305 0.78244 0.55129 0.0
C343 C 0.80002 0.81162 0.55349 0.0
C344 C 0.79442 0.75999 0.53381 0.0
C345 C 0.76807 0.81811 0.53878 0.0
C346 C 0.74905 0.79582 0.52234 0.0
C347 C 0.74317 0.74451 0.50251 0.0
C348 C 0.75652 0.71567 0.49835 0.0
C349 C 0.76201 0.76677 0.51961 0.0
C350 C 0.78896 0.70909 0.51182 0.0
C351 C 0.80765 0.73103 0.5298 0.0
H352 H 0.27672 0.03258 0.03504 0.0
H353 H 0.27469 0.0484 0.9216 0.0
H354 H 0.27556 -0.00554 0.91065 0.0
H355 H 0.27942 0.94319 0.93329 0.0
H356 H 0.28572 0.92748 0.04657 0.0
H357 H 0.2805 0.98123 0.05771 0.0
C358 C 0.27612 0.02421 0.00792 0.0
C359 C 0.27551 0.04437 0.97914 0.0
C360 C 0.27752 -0.0067 0.00186 0.0
C361 C 0.27525 0.03327 0.94415 0.0
C362 C 0.27572 0.00248 0.9379 0.0
C363 C 0.2793 0.95149 0.96045 0.0
C364 C 0.2828 0.93145 0.98911 0.0
C365 C 0.27721 0.98235 0.96655 0.0
C366 C 0.28312 0.94253 0.02411 0.0
C367 C 0.28013 0.9732 0.03046 0.0
H368 H 0.18723 0.92791 0.45647 0.0
H369 H 0.20658 0.9485 0.56705 0.0
H370 H 0.20443 0.0018 0.55389 0.0
H371 H 0.19595 0.04272 0.51136 0.0
H372 H 0.17737 0.0222 0.40066 0.0
H373 H 0.18023 0.96883 0.41364 0.0
C374 C 0.19116 0.94403 0.47766 0.0
C375 C 0.19695 0.93414 0.51266 0.0
C376 C 0.18984 0.97474 0.47 0.0
C377 C 0.20204 0.95541 0.53981 0.0
C378 C 0.20074 0.98596 0.53238 0.0
C379 C 0.19243 0.02657 0.4901 0.0
C380 C 0.18632 0.03645 0.45518 0.0
C381 C 0.19438 -0.00412 0.49764 0.0
C382 C 0.18213 0.01522 0.42784 0.0
C383 C 0.18376 0.98467 0.4352 0.0
H384 H 0.61335 0.98278 0.91215 0.0
H385 H 0.61701 0.90806 0.98508 0.0
H386 H 0.61208 0.94209 0.03554 0.0
H387 H 0.60852 -0.00681 0.05912 0.0
H388 H 0.60675 0.06786 0.98607 0.0
H389 H 0.60896 0.03367 0.9356 0.0
C390 C 0.61292 0.97392 0.93906 0.0
C391 C 0.61566 0.94297 0.94479 0.0
C392 C 0.61045 -0.00641 0.96801 0.0
C393 C 0.61515 0.93185 0.97988 0.0
C394 C 0.61227 0.95127 0.0088 0.0
C395 C 0.60837 0.00194 0.03216 0.0
C396 C 0.60758 0.03297 0.02639 0.0
C397 C 0.61016 0.98219 0.00319 0.0
C398 C 0.60758 0.04402 0.99128 0.0
C399 C 0.60882 0.02452 0.96236 0.0
H400 H 0.86488 0.00942 0.41266 0.0
H401 H 0.85359 0.0887 0.47739 0.0
H402 H 0.85885 0.0588 0.53128 0.0
H403 H 0.86488 0.00997 0.5603 0.0
H404 H 0.87508 0.9306 0.49561 0.0
H405 H 0.8723 0.96077 0.44165 0.0
C406 C 0.86361 0.02016 0.43853 0.0
C407 C 0.85867 0.0512 0.44088 0.0
C408 C 0.86652 0.00285 0.46955 0.0
C409 C 0.85721 0.06478 0.4747 0.0
C410 C 0.86027 0.04774 0.50563 0.0
C411 C 0.86679 -0.00067 0.53441 0.0
C412 C 0.87003 0.96813 0.53202 0.0
C413 C 0.86473 0.01673 0.50339 0.0
C414 C 0.87235 0.95462 0.49824 0.0
C415 C 0.87074 0.97182 0.4673 0.0
H416 H 0.77834 0.43757 0.04233 0.0
H417 H 0.79389 0.45092 0.92953 0.0
H418 H 0.78654 0.50469 0.93687 0.0
H419 H 0.77982 0.54816 0.9758 0.0
H420 H 0.76339 0.53508 0.08853 0.0
H421 H 0.76628 0.48098 0.08055 0.0
C422 C 0.77998 0.45226 0.01938 0.0
C423 C 0.78709 0.44032 0.98556 0.0
C424 C 0.77546 0.4832 0.0237 0.0
C425 C 0.78858 0.45955 0.95592 0.0
C426 C 0.78441 0.49032 0.96006 0.0
C427 C 0.77644 0.53349 -0.00143 0.0
C428 C 0.77181 0.54569 0.03273 0.0
C429 C 0.77839 0.50243 -0.00611 0.0
C430 C 0.76707 0.52632 0.0619 0.0
C431 C 0.76894 0.49535 0.05743 0.0
H432 H 0.70273 0.45036 0.47027 0.0
H433 H 0.71177 0.45891 0.58448 0.0
H434 H 0.71001 0.5132 0.57938 0.0
H435 H 0.70431 0.5583 0.5428 0.0
H436 H 0.69661 0.54994 0.42847 0.0
H437 H 0.69961 0.49564 0.43341 0.0
C438 C 0.70436 0.46411 0.49401 0.0
C439 C 0.70718 0.45057 0.52765 0.0
C440 C 0.70357 0.49539 0.49094 0.0
C441 C 0.7096 0.46872 0.55818 0.0
C442 C 0.70853 0.49981 0.55535 0.0
C443 C 0.70338 0.54461 0.51896 0.0
C444 C 0.70006 0.55817 0.4854 0.0
C445 C 0.70528 0.51337 0.52191 0.0
C446 C 0.69919 0.5401 0.45471 0.0
C447 C 0.7008 0.50901 0.45746 0.0
H448 H 0.13614 0.48814 0.0583 0.0
H449 H 0.1401 0.57137 -7e-05 0.0
H450 H 0.13962 0.5441 0.94371 0.0
H451 H 0.13718 0.49651 0.91092 0.0
H452 H 0.13446 0.41346 0.96983 0.0
H453 H 0.13536 0.4408 0.02577 0.0
C454 C 0.13695 0.50032 0.03329 0.0
C455 C 0.13805 0.5317 0.03338 0.0
C456 C 0.13684 0.48455 0.00103 0.0
C457 C 0.1393 0.54715 0.00069 0.0
C458 C 0.13895 0.5316 0.96846 0.0
C459 C 0.13681 0.48443 0.936 0.0
C460 C 0.13569 0.45303 0.9361 0.0
C461 C 0.13757 0.50028 0.96829 0.0
C462 C 0.13542 0.43767 0.96887 0.0
C463 C 0.13587 0.45326 0.00098 0.0
H464 H 0.37602 0.48661 0.42304 0.0
H465 H 0.3631 0.55565 0.50241 0.0
H466 H 0.36565 0.51835 0.54962 0.0
H467 H 0.36927 0.46594 0.56841 0.0
H468 H 0.3809 0.39683 0.48893 0.0
H469 H 0.38134 0.4344 0.44191 0.0
C470 C 0.37391 0.49352 0.45065 0.0
C471 C 0.36919 0.52384 0.45908 0.0
C472 C 0.37512 0.47195 0.47775 0.0
C473 C 0.36655 0.53241 0.49507 0.0
C474 C 0.36803 0.51111 0.52217 0.0
C475 C 0.37216 0.45912 0.54084 0.0
C476 C 0.37486 0.42865 0.53224 0.0
C477 C 0.37199 0.48079 0.51381 0.0
C478 C 0.37853 0.42017 0.49633 0.0
C479 C 0.3788 0.44161 0.46936 0.0
H480 H 0.47706 0.11434 0.13388 0.0
H481 H 0.52944 0.16456 0.05207 0.0
H482 H 0.47534 0.1769 0.02427 0.0
H483 H 0.41385 0.1686 0.01926 0.0
H484 H 0.36136 0.11879 0.10124 0.0
H485 H 0.4148 0.11128 0.13289 0.0
C486 C 0.47663 0.1284 0.11031 0.0
C487 C 0.5073 0.13805 0.09479 0.0
C488 C 0.44544 0.13519 0.09417 0.0
C489 C 0.50624 0.15659 0.06449 0.0
C490 C 0.4753 0.16355 0.04839 0.0
C491 C 0.41409 0.15633 0.04421 0.0
C492 C 0.38384 0.14385 0.05755 0.0
C493 C 0.44487 0.15213 0.06233 0.0
C494 C 0.38438 0.12848 0.09026 0.0
C495 C 0.41493 0.12411 0.10836 0.0
H496 H 0.95768 0.8458 0.57889 0.0
H497 H 0.99223 0.89413 0.67164 0.0
H498 H 0.05076 0.87925 0.65905 0.0
H499 H 0.09231 0.85733 0.61833 0.0
H500 H 0.05818 0.81204 0.52322 0.0
H501 H -0.00093 0.82074 0.54036 0.0
C502 C 0.97792 0.85266 0.59671 0.0
C503 C 0.97071 0.87123 0.62598 0.0
C504 C 0.01156 0.84483 0.58871 0.0
C505 C -0.00279 0.88003 0.64875 0.0
C506 C 0.03066 0.87158 0.64155 0.0
C507 C 0.07198 0.84897 0.60154 0.0
C508 C 0.07963 0.83433 0.56936 0.0
C509 C 0.03818 0.85474 0.61104 0.0
C510 C 0.05296 0.82363 0.54797 0.0
C511 C 0.01917 0.8286 0.55774 0.0
H512 H 0.42761 0.80828 0.93407 0.0
H513 H 0.37893 0.87453 0.86812 0.0
H514 H 0.43213 0.88252 0.8354 0.0
H515 H 0.49391 0.87465 0.83068 0.0
H516 H 0.54163 0.80727 0.89628 0.0
H517 H 0.48709 0.79516 0.92329 0.0
C518 C 0.42867 0.82428 0.91234 0.0
C519 C 0.39988 0.84127 0.90389 0.0
C520 C 0.45906 0.82848 0.89353 0.0
C521 C 0.40107 0.86141 0.87518 0.0
C522 C 0.43141 0.86599 0.85654 0.0
C523 C 0.49226 0.85685 0.85027 0.0
C524 C 0.52194 0.84241 0.862 0.0
C525 C 0.46081 0.85019 0.86613 0.0
C526 C 0.51928 0.81913 0.88713 0.0
C527 C 0.48812 0.81224 0.90278 0.0
H528 H 0.08146 0.13206 0.35145 0.0
H529 H 0.05553 0.16906 0.45425 0.0
H530 H -0.0043 0.17086 0.43713 0.0
H531 H 0.95044 0.15712 0.39551 0.0
H532 H 0.9761 0.11682 0.29449 0.0
H533 H 0.03658 0.12171 0.30815 0.0
C534 C 0.06282 0.14083 0.37003 0.0
C535 C 0.07291 0.15008 0.40424 0.0
C536 C 0.02844 0.14122 0.36031 0.0
C537 C 0.0484 0.16149 0.42789 0.0
C538 C 0.01419 0.16257 0.41811 0.0
C539 C 0.96926 0.15 0.37613 0.0
C540 C 0.95886 0.1365 0.34411 0.0
C541 C 0.00386 0.15184 0.38472 0.0
C542 C 0.98352 0.12715 0.31941 0.0
C543 C 0.01807 0.12981 0.32727 0.0
H544 H -0.00298 0.58543 0.1538 0.0
H545 H 0.04519 0.64707 0.08062 0.0
H546 H 0.99001 0.66152 0.05727 0.0
H547 H 0.92842 0.65453 0.05482 0.0
H548 H 0.87941 0.59465 0.12911 0.0
H549 H 0.93457 0.58164 0.1548 0.0
C550 C -0.0046 0.60223 0.13302 0.0
C551 C 0.02522 0.61486 0.11877 0.0
C552 C 0.96349 0.61057 0.11963 0.0
C553 C 0.02267 0.63685 0.09205 0.0
C554 C 0.99112 0.64509 0.0785 0.0
C555 C 0.92987 0.63866 0.07665 0.0
C556 C 0.90013 0.62525 0.08977 0.0
C557 C 0.96146 0.63167 0.09159 0.0
C558 C 0.90212 0.60517 0.11852 0.0
C559 C 0.9336 0.5977 0.13318 0.0
H560 H 0.57994 0.30941 0.54702 0.0
H561 H 0.61252 0.36522 0.63431 0.0
H562 H 0.5549 0.36462 0.65898 0.0
H563 H 0.4942 0.35315 0.65152 0.0
H564 H 0.46211 0.29703 0.56406 0.0
H565 H 0.52082 0.29225 0.54424 0.0
C566 C 0.57446 0.32121 0.57163 0.0
C567 C 0.60015 0.33782 0.58847 0.0
C568 C 0.54142 0.3207 0.58564 0.0
C569 C 0.59302 0.35245 0.62074 0.0
C570 C 0.56009 0.35217 0.6348 0.0
C571 C 0.50008 0.33939 0.62854 0.0
C572 C 0.47365 0.326 0.60893 0.0
C573 C 0.5339 0.33706 0.6169 0.0
C574 C 0.48184 0.30789 0.57949 0.0
C575 C 0.51543 0.30526 0.56795 0.0
H576 H 0.03812 0.35002 0.90605 0.0
H577 H -0.00532 0.38928 0.81144 0.0
H578 H 0.93745 0.37925 0.83422 0.0
H579 H 0.90016 0.36256 0.88264 0.0
H580 H 0.94371 0.32668 0.97913 0.0
H581 H 0.00075 0.33219 0.9539 0.0
C582 C 0.01614 0.35596 0.89014 0.0
C583 C 0.02057 0.37028 0.85704 0.0
C584 C 0.98345 0.35103 0.9039 0.0
C585 C 0.99187 0.37826 0.83699 0.0
C586 C 0.9592 0.3726 0.85004 0.0
C587 C 0.92209 0.35568 0.89808 0.0
C588 C 0.91771 0.34426 0.93276 0.0
C589 C 0.95474 0.35952 0.88374 0.0
C590 C 0.94642 0.33568 0.95247 0.0
C591 C 0.97901 0.33878 0.93804 0.0
H592 H 0.5879 0.6422 0.39595 0.0
H593 H 0.55195 0.67211 0.49874 0.0
H594 H 0.4932 0.66545 0.47929 0.0
H595 H 0.45257 0.6471 0.43517 0.0
H596 H 0.48866 0.61404 0.33386 0.0
H597 H 0.54704 0.62644 0.35058 0.0
C598 C 0.56724 0.64758 0.41403 0.0
C599 C 0.57429 0.65741 0.44885 0.0
C600 C 0.53362 0.64309 0.40297 0.0
C601 C 0.54721 0.66426 0.4719 0.0
C602 C 0.51362 0.66049 0.4608 0.0
C603 C 0.47311 0.64304 0.41646 0.0
C604 C 0.46633 0.62954 0.38338 0.0
C605 C 0.5066 0.64934 0.42667 0.0
C606 C 0.49327 0.62427 0.35956 0.0
C607 C 0.52663 0.63128 0.36914 0.0
H608 H 0.22479 0.09692 0.15211 0.0
H609 H 0.22347 0.19333 0.14664 0.0
H610 H 0.21223 0.19608 0.21071 0.0
H611 H 0.20577 0.171 0.26857 0.0
H612 H 0.21132 0.07465 0.2743 0.0
H613 H 0.21818 0.07191 0.20974 0.0
C614 C 0.22153 0.1185 0.16489 0.0
C615 C 0.22469 0.14488 0.14485 0.0
C616 C 0.2163 0.1199 0.20176 0.0
C617 C 0.22105 0.17274 0.16169 0.0
C618 C 0.21475 0.17431 0.19826 0.0
C619 C 0.2084 0.14942 0.25564 0.0
C620 C 0.20814 0.12308 0.27608 0.0
C621 C 0.21288 0.14804 0.21863 0.0
C622 C 0.2117 0.09526 0.2591 0.0
C623 C 0.21547 0.09365 0.2222 0.0
H624 H 0.23847 0.87653 0.81646 0.0
H625 H 0.23612 0.78024 0.82355 0.0
H626 H 0.22325 0.77682 0.75986 0.0
H627 H 0.21597 0.8013 0.70171 0.0
H628 H 0.22365 0.89745 0.69412 0.0
H629 H 0.23143 0.90092 0.75852 0.0
C630 C 0.23457 0.85484 0.80411 0.0
C631 C 0.23785 0.82868 0.82446 0.0
C632 C 0.22865 0.85306 0.7674 0.0
C633 C 0.23353 0.80065 0.80821 0.0
C634 C 0.22633 0.79871 0.77187 0.0
C635 C 0.21924 0.82299 0.71423 0.0
C636 C 0.21931 0.84906 0.69333 0.0
C637 C 0.22442 0.82476 0.75111 0.0
C638 C 0.22378 0.87704 0.70972 0.0
C639 C 0.22807 0.87906 0.74651 0.0
H640 H 0.67753 0.8883 0.75726 0.0
H641 H 0.75547 0.8835 0.83789 0.0
H642 H 0.79908 0.89371 0.79318 0.0
H643 H 0.81532 0.90073 0.73078 0.0
H644 H 0.73755 0.90617 0.65003 0.0
H645 H 0.69353 0.89945 0.69533 0.0
C646 C 0.70405 0.88961 0.765 0.0
C647 C 0.71336 0.88481 0.80064 0.0
C648 C 0.72897 0.89566 0.73922 0.0
C649 C 0.74772 0.887 0.81052 0.0
C650 C 0.77267 0.89281 0.78501 0.0
C651 C 0.78871 0.90076 0.72316 0.0
C652 C 0.77968 0.90362 0.68716 0.0
C653 C 0.76362 0.89672 0.74923 0.0
C654 C 0.74513 0.90394 0.67764 0.0
C655 C 0.71996 0.89994 0.70347 0.0
H656 H 0.79688 0.10132 0.24883 0.0
H657 H 0.72087 0.11899 0.3291 0.0
H658 H 0.67588 0.11345 0.28474 0.0
H659 H 0.65853 0.10664 0.22235 0.0
H660 H 0.73479 0.08762 0.14264 0.0
H661 H 0.77924 0.09028 0.18767 0.0
C662 C 0.77045 0.10382 0.25659 0.0
C663 C 0.76215 0.11089 0.29196 0.0
C664 C 0.74477 0.10036 0.23109 0.0
C665 C 0.72783 0.11363 0.30191 0.0
C666 C 0.70212 0.11053 0.27658 0.0
C667 C 0.68484 0.1028 0.21495 0.0
C668 C 0.69338 0.09725 0.17922 0.0
C669 C 0.71034 0.10433 0.24098 0.0
C670 C 0.72753 0.09201 0.16999 0.0
C671 C 0.75302 0.09365 0.19568 0.0
H672 H 0.76834 0.66192 0.32714 0.0
H673 H 0.66035 0.67222 0.31194 0.0
H674 H 0.66801 0.67003 0.24722 0.0
H675 H 0.7054 0.66192 0.19523 0.0
H676 H 0.81378 0.65543 0.21083 0.0
H677 H 0.80612 0.6595 0.27522 0.0
C678 C 0.74659 0.66397 0.30955 0.0
C679 C 0.71387 0.6669 0.32396 0.0
C680 C 0.75126 0.6632 0.27259 0.0
C681 C 0.68581 0.66999 0.30119 0.0
C682 C 0.69015 0.66857 0.26429 0.0
C683 C 0.72724 0.66159 0.21284 0.0
C684 C 0.76 0.65804 0.19863 0.0
C685 C 0.72272 0.66464 0.24973 0.0
C686 C 0.7883 0.65813 0.22138 0.0
C687 C 0.78396 0.66036 0.25813 0.0
H688 H 0.74814 0.30715 0.6982 0.0
H689 H 0.76724 0.40202 0.68875 0.0
H690 H 0.77755 0.40529 0.75261 0.0
H691 H 0.77919 0.38172 0.81127 0.0
H692 H 0.76368 0.28655 0.82121 0.0
H693 H 0.75365 0.2828 0.75688 0.0
C694 C 0.75481 0.32846 0.71014 0.0
C695 C 0.75673 0.35432 0.6889 0.0
C696 C 0.76098 0.33016 0.74688 0.0
C697 C 0.76567 0.38177 0.70456 0.0
C698 C 0.77139 0.38372 0.74109 0.0
C699 C 0.77343 0.3602 0.79933 0.0
C700 C 0.7716 0.33452 0.82073 0.0
C701 C 0.76866 0.35816 0.76251 0.0
C702 C 0.76496 0.30662 0.80505 0.0
C703 C 0.7593 0.30449 0.76838 0.0
H704 H 0.31336 0.3661 0.70352 0.0
H705 H 0.23549 0.35138 0.62462 0.0
H706 H 0.19158 0.36479 0.66794 0.0
H707 H 0.1753 0.37881 0.72896 0.0
H708 H 0.2536 0.39497 0.80715 0.0
H709 H 0.29733 0.3834 0.76322 0.0
C710 C 0.28676 0.36577 0.69589 0.0
C711 C 0.27757 0.35743 0.66117 0.0
C712 C 0.26175 0.37399 0.72069 0.0
C713 C 0.24311 0.35762 0.65134 0.0
C714 C 0.21802 0.36531 0.67604 0.0
C715 C 0.20194 0.38013 0.73624 0.0
C716 C 0.21113 0.38753 0.77131 0.0
C717 C 0.22703 0.37334 0.71087 0.0
C718 C 0.24578 0.38929 0.78033 0.0
C719 C 0.27085 0.38251 0.75529 0.0
H720 H 0.31303 0.59458 0.27675 0.0
H721 H 0.23186 0.59472 0.35428 0.0
H722 H 0.18991 0.58956 0.30672 0.0
H723 H 0.17626 0.58783 0.24288 0.0
H724 H 0.25779 0.58682 0.16566 0.0
H725 H 0.29963 0.58916 0.21339 0.0
C726 C 0.28616 0.59338 0.28321 0.0
C727 C 0.27549 0.59535 0.31883 0.0
C728 C 0.26226 0.59023 0.25583 0.0
C729 C 0.24066 0.59334 0.32696 0.0
C730 C 0.21667 0.59044 0.29981 0.0
C731 C 0.20318 0.58784 0.23655 0.0
C732 C 0.21388 0.58743 0.20082 0.0
C733 C 0.22716 0.58925 0.26412 0.0
C734 C 0.24886 0.58722 0.19298 0.0
C735 C 0.27284 0.58866 0.22023 0.0
loop_
_geom_bond_atom_site_label_1
_geom_bond_atom_site_label_2
_geom_bond_distance
_geom_bond_site_symmetry_2
_ccdc_geom_bond_type
C0 O1 1.306 . S
C0 O3 1.160 . S
O1 C0 1.306 . S
O1 Cd2 2.228 . S
Cd2 O1 2.228 . S
Cd2 O6 2.273 . S
Cd2 O10 2.277 . S
O3 C0 1.160 . S
O3 Cd4 2.203 . S
Cd4 O3 2.203 . S
Cd4 O6 2.411 . S
Cd4 O7 2.333 . S
Cd4 O8 2.352 . S
Cd4 O12 2.277 . S
Cd4 O13 2.356 . S
C5 O10 1.209 . S
C5 O12 1.226 . S
O6 Cd2 2.273 . S
O6 Cd4 2.411 . S
O6 C9 1.320 . S
O7 Cd4 2.333 . S
O7 C9 1.214 . S
O8 Cd4 2.352 . S
O8 C11 1.258 . S
C9 O6 1.320 . S
C9 O7 1.214 . S
O10 Cd2 2.277 . S
O10 C5 1.209 . S
C11 O8 1.258 . S
C11 O13 1.282 . S
O12 Cd4 2.277 . S
O12 C5 1.226 . S
O13 Cd4 2.356 . S
O13 C11 1.282 . S
C14 O15 1.306 . S
C14 O17 1.160 . S
O15 C14 1.306 . S
O15 Cd16 2.228 . S
Cd16 O15 2.228 . S
Cd16 O20 2.273 . S
Cd16 O24 2.277 . S
O17 C14 1.160 . S
O17 Cd18 2.203 . S
Cd18 O17 2.203 . S
Cd18 O20 2.411 . S
Cd18 O21 2.333 . S
Cd18 O22 2.352 . S
Cd18 O26 2.277 . S
Cd18 O27 2.356 . S
C19 O24 1.209 . S
C19 O26 1.226 . S
O20 Cd16 2.273 . S
O20 Cd18 2.411 . S
O20 C23 1.320 . S
O21 Cd18 2.333 . S
O21 C23 1.214 . S
O22 Cd18 2.352 . S
O22 C25 1.258 . S
C23 O20 1.320 . S
C23 O21 1.214 . S
O24 Cd16 2.277 . S
O24 C19 1.209 . S
C25 O22 1.258 . S
C25 O27 1.282 . S
O26 Cd18 2.277 . S
O26 C19 1.226 . S
O27 Cd18 2.356 . S
O27 C25 1.282 . S
C28 O29 1.306 . S
C28 O31 1.160 . S
O29 C28 1.306 . S
O29 Cd30 2.228 . S
Cd30 O29 2.228 . S
Cd30 O34 2.273 . S
Cd30 O38 2.277 . S
O31 C28 1.160 . S
O31 Cd32 2.203 . S
Cd32 O31 2.203 . S
Cd32 O34 2.411 . S
Cd32 O35 2.333 . S
Cd32 O36 2.352 . S
Cd32 O40 2.277 . S
Cd32 O41 2.356 . S
C33 O38 1.209 . S
C33 O40 1.226 . S
O34 Cd30 2.273 . S
O34 Cd32 2.411 . S
O34 C37 1.320 . S
O35 Cd32 2.333 . S
O35 C37 1.214 . S
O36 Cd32 2.352 . S
O36 C39 1.258 . S
C37 O34 1.320 . S
C37 O35 1.214 . S
O38 Cd30 2.277 . S
O38 C33 1.209 . S
C39 O36 1.258 . S
C39 O41 1.282 . S
O40 Cd32 2.277 . S
O40 C33 1.226 . S
O41 Cd32 2.356 . S
O41 C39 1.282 . S
C42 O43 1.306 . S
C42 O45 1.160 . S
O43 C42 1.306 . S
O43 Cd44 2.228 . S
Cd44 O43 2.228 . S
Cd44 O48 2.273 . S
Cd44 O52 2.277 . S
O45 C42 1.160 . S
O45 Cd46 2.203 . S
Cd46 O45 2.203 . S
Cd46 O48 2.411 . S
Cd46 O49 2.333 . S
Cd46 O50 2.352 . S
Cd46 O54 2.277 . S
Cd46 O55 2.356 . S
C47 O52 1.209 . S
C47 O54 1.226 . S
O48 Cd44 2.273 . S
O48 Cd46 2.411 . S
O48 C51 1.320 . S
O49 Cd46 2.333 . S
O49 C51 1.214 . S
O50 Cd46 2.352 . S
O50 C53 1.258 . S
C51 O48 1.320 . S
C51 O49 1.214 . S
O52 Cd44 2.277 . S
O52 C47 1.209 . S
C53 O50 1.258 . S
C53 O55 1.282 . S
O54 Cd46 2.277 . S
O54 C47 1.226 . S
O55 Cd46 2.356 . S
O55 C53 1.282 . S
C56 O57 1.306 . S
C56 O59 1.160 . S
O57 C56 1.306 . S
O57 Cd58 2.228 . S
Cd58 O57 2.228 . S
Cd58 O62 2.273 . S
Cd58 O66 2.277 . S
O59 C56 1.160 . S
O59 Cd60 2.203 . S
Cd60 O59 2.203 . S
Cd60 O62 2.411 . S
Cd60 O63 2.333 . S
Cd60 O64 2.352 . S
Cd60 O68 2.277 . S
Cd60 O69 2.356 . S
C61 O66 1.209 . S
C61 O68 1.226 . S
O62 Cd58 2.273 . S
O62 Cd60 2.411 . S
O62 C65 1.320 . S
O63 Cd60 2.333 . S
O63 C65 1.214 . S
O64 Cd60 2.352 . S
O64 C67 1.258 . S
C65 O62 1.320 . S
C65 O63 1.214 . S
O66 Cd58 2.277 . S
O66 C61 1.209 . S
C67 O64 1.258 . S
C67 O69 1.282 . S
O68 Cd60 2.277 . S
O68 C61 1.226 . S
O69 Cd60 2.356 . S
O69 C67 1.282 . S
C70 O71 1.306 . S
C70 O73 1.160 . S
O71 C70 1.306 . S
O71 Cd72 2.228 . S
Cd72 O71 2.228 . S
Cd72 O76 2.273 . S
Cd72 O80 2.277 . S
O73 C70 1.160 . S
O73 Cd74 2.203 . S
Cd74 O73 2.203 . S
Cd74 O76 2.411 . S
Cd74 O77 2.333 . S
Cd74 O78 2.352 . S
Cd74 O82 2.277 . S
Cd74 O83 2.356 . S
C75 O80 1.209 . S
C75 O82 1.226 . S
O76 Cd72 2.273 . S
O76 Cd74 2.411 . S
O76 C79 1.320 . S
O77 Cd74 2.333 . S
O77 C79 1.214 . S
O78 Cd74 2.352 . S
O78 C81 1.258 . S
C79 O76 1.320 . S
C79 O77 1.214 . S
O80 Cd72 2.277 . S
O80 C75 1.209 . S
C81 O78 1.258 . S
C81 O83 1.282 . S
O82 Cd74 2.277 . S
O82 C75 1.226 . S
O83 Cd74 2.356 . S
O83 C81 1.282 . S
C84 O85 1.306 . S
C84 O87 1.160 . S
O85 C84 1.306 . S
O85 Cd86 2.228 . S
Cd86 O85 2.228 . S
Cd86 O90 2.273 . S
Cd86 O94 2.277 . S
O87 C84 1.160 . S
O87 Cd88 2.203 . S
Cd88 O87 2.203 . S
Cd88 O90 2.411 . S
Cd88 O91 2.333 . S
Cd88 O92 2.352 . S
Cd88 O96 2.277 . S
Cd88 O97 2.356 . S
C89 O94 1.209 . S
C89 O96 1.226 . S
O90 Cd86 2.273 . S
O90 Cd88 2.411 . S
O90 C93 1.320 . S
O91 Cd88 2.333 . S
O91 C93 1.214 . S
O92 Cd88 2.352 . S
O92 C95 1.258 . S
C93 O90 1.320 . S
C93 O91 1.214 . S
O94 Cd86 2.277 . S
O94 C89 1.209 . S
C95 O92 1.258 . S
C95 O97 1.282 . S
O96 Cd88 2.277 . S
O96 C89 1.226 . S
O97 Cd88 2.356 . S
O97 C95 1.282 . S
C98 O99 1.306 . S
C98 O101 1.160 . S
O99 C98 1.306 . S
O99 Cd100 2.228 . S
Cd100 O99 2.228 . S
Cd100 O104 2.273 . S
Cd100 O108 2.277 . S
O101 C98 1.160 . S
O101 Cd102 2.203 . S
Cd102 O101 2.203 . S
Cd102 O104 2.411 . S
Cd102 O105 2.333 . S
Cd102 O106 2.352 . S
Cd102 O110 2.277 . S
Cd102 O111 2.356 . S
C103 O108 1.209 . S
C103 O110 1.226 . S
O104 Cd100 2.273 . S
O104 Cd102 2.411 . S
O104 C107 1.320 . S
O105 Cd102 2.333 . S
O105 C107 1.214 . S
O106 Cd102 2.352 . S
O106 C109 1.258 . S
C107 O104 1.320 . S
C107 O105 1.214 . S
O108 Cd100 2.277 . S
O108 C103 1.209 . S
C109 O106 1.258 . S
C109 O111 1.282 . S
O110 Cd102 2.277 . S
O110 C103 1.226 . S
O111 Cd102 2.356 . S
O111 C109 1.282 . S
C112 O113 1.306 . S
C112 O115 1.160 . S
O113 C112 1.306 . S
O113 Cd114 2.228 . S
Cd114 O113 2.228 . S
Cd114 O118 2.273 . S
Cd114 O122 2.277 . S
O115 C112 1.160 . S
O115 Cd116 2.203 . S
Cd116 O115 2.203 . S
Cd116 O118 2.411 . S
Cd116 O119 2.333 . S
Cd116 O120 2.352 . S
Cd116 O124 2.277 . S
Cd116 O125 2.356 . S
C117 O122 1.209 . S
C117 O124 1.226 . S
O118 Cd114 2.273 . S
O118 Cd116 2.411 . S
O118 C121 1.320 . S
O119 Cd116 2.333 . S
O119 C121 1.214 . S
O120 Cd116 2.352 . S
O120 C123 1.258 . S
C121 O118 1.320 . S
C121 O119 1.214 . S
O122 Cd114 2.277 . S
O122 C117 1.209 . S
C123 O120 1.258 . S
C123 O125 1.282 . S
O124 Cd116 2.277 . S
O124 C117 1.226 . S
O125 Cd116 2.356 . S
O125 C123 1.282 . S
C126 O127 1.306 . S
C126 O129 1.160 . S
O127 C126 1.306 . S
O127 Cd128 2.228 . S
Cd128 O127 2.228 . S
Cd128 O132 2.273 . S
Cd128 O136 2.277 . S
O129 C126 1.160 . S
O129 Cd130 2.203 . S
Cd130 O129 2.203 . S
Cd130 O132 2.411 . S
Cd130 O133 2.333 . S
Cd130 O134 2.352 . S
Cd130 O138 2.277 . S
Cd130 O139 2.356 . S
C131 O136 1.209 . S
C131 O138 1.226 . S
O132 Cd128 2.273 . S
O132 Cd130 2.411 . S
O132 C135 1.320 . S
O133 Cd130 2.333 . S
O133 C135 1.214 . S
O134 Cd130 2.352 . S
O134 C137 1.258 . S
C135 O132 1.320 . S
C135 O133 1.214 . S
O136 Cd128 2.277 . S
O136 C131 1.209 . S
C137 O134 1.258 . S
C137 O139 1.282 . S
O138 Cd130 2.277 . S
O138 C131 1.226 . S
O139 Cd130 2.356 . S
O139 C137 1.282 . S
C140 O141 1.306 . S
C140 O143 1.160 . S
O141 C140 1.306 . S
O141 Cd142 2.228 . S
Cd142 O141 2.228 . S
Cd142 O146 2.273 . S
Cd142 O150 2.277 . S
O143 C140 1.160 . S
O143 Cd144 2.203 . S
Cd144 O143 2.203 . S
Cd144 O146 2.411 . S
Cd144 O147 2.333 . S
Cd144 O148 2.352 . S
Cd144 O152 2.277 . S
Cd144 O153 2.356 . S
C145 O150 1.209 . S
C145 O152 1.226 . S
O146 Cd142 2.273 . S
O146 Cd144 2.411 . S
O146 C149 1.320 . S
O147 Cd144 2.333 . S
O147 C149 1.214 . S
O148 Cd144 2.352 . S
O148 C151 1.258 . S
C149 O146 1.320 . S
C149 O147 1.214 . S
O150 Cd142 2.277 . S
O150 C145 1.209 . S
C151 O148 1.258 . S
C151 O153 1.282 . S
O152 Cd144 2.277 . S
O152 C145 1.226 . S
O153 Cd144 2.356 . S
O153 C151 1.282 . S
C154 O155 1.306 . S
C154 O157 1.160 . S
O155 C154 1.306 . S
O155 Cd156 2.228 . S
Cd156 O155 2.228 . S
Cd156 O160 2.273 . S
Cd156 O164 2.277 . S
O157 C154 1.160 . S
O157 Cd158 2.203 . S
Cd158 O157 2.203 . S
Cd158 O160 2.411 . S
Cd158 O161 2.333 . S
Cd158 O162 2.352 . S
Cd158 O166 2.277 . S
Cd158 O167 2.356 . S
C159 O164 1.209 . S
C159 O166 1.226 . S
O160 Cd156 2.273 . S
O160 Cd158 2.411 . S
O160 C163 1.320 . S
O161 Cd158 2.333 . S
O161 C163 1.214 . S
O162 Cd158 2.352 . S
O162 C165 1.258 . S
C163 O160 1.320 . S
C163 O161 1.214 . S
O164 Cd156 2.277 . S
O164 C159 1.209 . S
C165 O162 1.258 . S
C165 O167 1.282 . S
O166 Cd158 2.277 . S
O166 C159 1.226 . S
O167 Cd158 2.356 . S
O167 C165 1.282 . S
C168 O169 1.306 . S
C168 O171 1.160 . S
O169 C168 1.306 . S
O169 Cd170 2.228 . S
Cd170 O169 2.228 . S
Cd170 O174 2.273 . S
Cd170 O178 2.277 . S
O171 C168 1.160 . S
O171 Cd172 2.203 . S
Cd172 O171 2.203 . S
Cd172 O174 2.411 . S
Cd172 O175 2.333 . S
Cd172 O176 2.352 . S
Cd172 O180 2.277 . S
Cd172 O181 2.356 . S
C173 O178 1.209 . S
C173 O180 1.226 . S
O174 Cd170 2.273 . S
O174 Cd172 2.411 . S
O174 C177 1.320 . S
O175 Cd172 2.333 . S
O175 C177 1.214 . S
O176 Cd172 2.352 . S
O176 C179 1.258 . S
C177 O174 1.320 . S
C177 O175 1.214 . S
O178 Cd170 2.277 . S
O178 C173 1.209 . S
C179 O176 1.258 . S
C179 O181 1.282 . S
O180 Cd172 2.277 . S
O180 C173 1.226 . S
O181 Cd172 2.356 . S
O181 C179 1.282 . S
C182 O183 1.306 . S
C182 O185 1.160 . S
O183 C182 1.306 . S
O183 Cd184 2.228 . S
Cd184 O183 2.228 . S
Cd184 O188 2.273 . S
Cd184 O192 2.277 . S
O185 C182 1.160 . S
O185 Cd186 2.203 . S
Cd186 O185 2.203 . S
Cd186 O188 2.411 . S
Cd186 O189 2.333 . S
Cd186 O190 2.352 . S
Cd186 O194 2.277 . S
Cd186 O195 2.356 . S
C187 O192 1.209 . S
C187 O194 1.226 . S
O188 Cd184 2.273 . S
O188 Cd186 2.411 . S
O188 C191 1.320 . S
O189 Cd186 2.333 . S
O189 C191 1.214 . S
O190 Cd186 2.352 . S
O190 C193 1.258 . S
C191 O188 1.320 . S
C191 O189 1.214 . S
O192 Cd184 2.277 . S
O192 C187 1.209 . S
C193 O190 1.258 . S
C193 O195 1.282 . S
O194 Cd186 2.277 . S
O194 C187 1.226 . S
O195 Cd186 2.356 . S
O195 C193 1.282 . S
C196 O197 1.306 . S
C196 O199 1.160 . S
O197 C196 1.306 . S
O197 Cd198 2.228 . S
Cd198 O197 2.228 . S
Cd198 O202 2.273 . S
Cd198 O206 2.277 . S
O199 C196 1.160 . S
O199 Cd200 2.203 . S
Cd200 O199 2.203 . S
Cd200 O202 2.411 . S
Cd200 O203 2.333 . S
Cd200 O204 2.352 . S
Cd200 O208 2.277 . S
Cd200 O209 2.356 . S
C201 O206 1.209 . S
C201 O208 1.226 . S
O202 Cd198 2.273 . S
O202 Cd200 2.411 . S
O202 C205 1.320 . S
O203 Cd200 2.333 . S
O203 C205 1.214 . S
O204 Cd200 2.352 . S
O204 C207 1.258 . S
C205 O202 1.320 . S
C205 O203 1.214 . S
O206 Cd198 2.277 . S
O206 C201 1.209 . S
C207 O204 1.258 . S
C207 O209 1.282 . S
O208 Cd200 2.277 . S
O208 C201 1.226 . S
O209 Cd200 2.356 . S
O209 C207 1.282 . S
C210 O211 1.306 . S
C210 O213 1.160 . S
O211 C210 1.306 . S
O211 Cd212 2.228 . S
Cd212 O211 2.228 . S
Cd212 O216 2.273 . S
Cd212 O220 2.277 . S
O213 C210 1.160 . S
O213 Cd214 2.203 . S
Cd214 O213 2.203 . S
Cd214 O216 2.411 . S
Cd214 O217 2.333 . S
Cd214 O218 2.352 . S
Cd214 O222 2.277 . S
Cd214 O223 2.356 . S
C215 O220 1.209 . S
C215 O222 1.226 . S
O216 Cd212 2.273 . S
O216 Cd214 2.411 . S
O216 C219 1.320 . S
O217 Cd214 2.333 . S
O217 C219 1.214 . S
O218 Cd214 2.352 . S
O218 C221 1.258 . S
C219 O216 1.320 . S
C219 O217 1.214 . S
O220 Cd212 2.277 . S
O220 C215 1.209 . S
C221 O218 1.258 . S
C221 O223 1.282 . S
O222 Cd214 2.277 . S
O222 C215 1.226 . S
O223 Cd214 2.356 . S
O223 C221 1.282 . S
H224 C230 0.930 . S
H225 C233 0.930 . S
H226 C234 0.930 . S
H227 C235 0.930 . S
H228 C238 0.930 . S
H229 C239 0.930 . S
C230 H224 0.930 . S
C230 C231 1.355 . S
C230 C232 1.415 1_554 S
C231 C230 1.355 . S
C231 C233 1.419 . S
C232 C230 1.415 1_556 S
C232 C237 1.425 . S
C232 C239 1.409 . S
C233 H225 0.930 . S
C233 C231 1.419 . S
C233 C234 1.362 1_554 S
C234 H226 0.930 . S
C234 C233 1.362 1_556 S
C234 C237 1.409 . S
C235 H227 0.930 . S
C235 C236 1.355 . S
C235 C237 1.415 . S
C236 C235 1.355 . S
C236 C238 1.419 . S
C237 C232 1.425 . S
C237 C234 1.409 . S
C237 C235 1.415 . S
C238 H228 0.930 . S
C238 C236 1.419 . S
C238 C239 1.362 . S
C239 H229 0.930 . S
C239 C232 1.409 . S
C239 C238 1.362 . S
H240 C246 0.930 . S
H241 C249 0.930 . S
H242 C250 0.930 . S
H243 C251 0.930 . S
H244 C254 0.930 . S
H245 C255 0.930 . S
C246 H240 0.930 . S
C246 C247 1.355 . S
C246 C248 1.415 . S
C247 C246 1.355 . S
C247 C249 1.419 . S
C248 C246 1.415 . S
C248 C253 1.425 . S
C248 C255 1.409 . S
C249 H241 0.930 . S
C249 C247 1.419 . S
C249 C250 1.362 . S
C250 H242 0.930 . S
C250 C249 1.362 . S
C250 C253 1.409 . S
C251 H243 0.930 . S
C251 C252 1.355 . S
C251 C253 1.415 . S
C252 C251 1.355 . S
C252 C254 1.419 . S
C253 C248 1.425 . S
C253 C250 1.409 . S
C253 C251 1.415 . S
C254 H244 0.930 . S
C254 C252 1.419 . S
C254 C255 1.362 . S
C255 H245 0.930 . S
C255 C248 1.409 . S
C255 C254 1.362 . S
H256 C262 0.930 . S
H257 C265 0.930 . S
H258 C266 0.930 . S
H259 C267 0.930 1_556 S
H260 C270 0.930 . S
H261 C271 0.930 . S
C262 H256 0.930 . S
C262 C263 1.355 1_554 S
C262 C264 1.415 . S
C263 C262 1.355 1_556 S
C263 C265 1.419 . S
C264 C262 1.415 . S
C264 C269 1.425 1_554 S
C264 C271 1.409 . S
C265 H257 0.930 . S
C265 C263 1.419 . S
C265 C266 1.362 . S
C266 H258 0.930 . S
C266 C265 1.362 . S
C266 C269 1.409 . S
C267 H259 0.930 1_554 S
C267 C268 1.355 . S
C267 C269 1.415 1_554 S
C268 C267 1.355 . S
C268 C270 1.419 . S
C269 C264 1.425 1_556 S
C269 C266 1.409 . S
C269 C267 1.415 1_556 S
C270 H260 0.930 . S
C270 C268 1.419 . S
C270 C271 1.362 . S
C271 H261 0.930 . S
C271 C264 1.409 . S
C271 C270 1.362 . S
H272 C278 0.930 . S
H273 C281 0.930 . S
H274 C282 0.930 . S
H275 C283 0.930 . S
H276 C286 0.930 . S
H277 C287 0.930 . S
C278 H272 0.930 . S
C278 C279 1.355 . S
C278 C280 1.415 . S
C279 C278 1.355 . S
C279 C281 1.419 . S
C280 C278 1.415 . S
C280 C285 1.425 . S
C280 C287 1.409 . S
C281 H273 0.930 . S
C281 C279 1.419 . S
C281 C282 1.362 . S
C282 H274 0.930 . S
C282 C281 1.362 . S
C282 C285 1.409 . S
C283 H275 0.930 . S
C283 C284 1.355 . S
C283 C285 1.415 . S
C284 C283 1.355 . S
C284 C286 1.419 . S
C285 C280 1.425 . S
C285 C282 1.409 . S
C285 C283 1.415 . S
C286 H276 0.930 . S
C286 C284 1.419 . S
C286 C287 1.362 . S
C287 H277 0.930 . S
C287 C280 1.409 . S
C287 C286 1.362 . S
H288 C294 0.930 . S
H289 C297 0.930 . S
H290 C298 0.930 . S
H291 C299 0.930 . S
H292 C302 0.930 . S
H293 C303 0.930 . S
C294 H288 0.930 . S
C294 C295 1.355 . S
C294 C296 1.415 . S
C295 C294 1.355 . S
C295 C297 1.419 . S
C296 C294 1.415 . S
C296 C301 1.425 1_554 S
C296 C303 1.409 . S
C297 H289 0.930 . S
C297 C295 1.419 . S
C297 C298 1.362 1_554 S
C298 H290 0.930 . S
C298 C297 1.362 1_556 S
C298 C301 1.409 . S
C299 H291 0.930 . S
C299 C300 1.355 . S
C299 C301 1.415 . S
C300 C299 1.355 . S
C300 C302 1.419 . S
C301 C296 1.425 1_556 S
C301 C298 1.409 . S
C301 C299 1.415 . S
C302 H292 0.930 . S
C302 C300 1.419 . S
C302 C303 1.362 1_556 S
C303 H293 0.930 . S
C303 C296 1.409 . S
C303 C302 1.362 1_554 S
H304 C310 0.930 . S
H305 C313 0.930 . S
H306 C314 0.930 . S
H307 C315 0.930 . S
H308 C318 0.930 . S
H309 C319 0.930 . S
C310 H304 0.930 . S
C310 C311 1.355 . S
C310 C312 1.415 . S
C311 C310 1.355 . S
C311 C313 1.419 . S
C312 C310 1.415 . S
C312 C317 1.425 . S
C312 C319 1.409 . S
C313 H305 0.930 . S
C313 C311 1.419 . S
C313 C314 1.362 . S
C314 H306 0.930 . S
C314 C313 1.362 . S
C314 C317 1.409 . S
C315 H307 0.930 . S
C315 C316 1.355 . S
C315 C317 1.415 . S
C316 C315 1.355 . S
C316 C318 1.419 . S
C317 C312 1.425 . S
C317 C314 1.409 . S
C317 C315 1.415 . S
C318 H308 0.930 . S
C318 C316 1.419 . S
C318 C319 1.362 . S
C319 H309 0.930 . S
C319 C312 1.409 . S
C319 C318 1.362 . S
H320 C326 0.930 . S
H321 C329 0.930 . S
H322 C330 0.930 . S
H323 C331 0.930 . S
H324 C334 0.930 1_556 S
H325 C335 0.930 . S
C326 H320 0.930 . S
C326 C327 1.355 . S
C326 C328 1.415 . S
C327 C326 1.355 . S
C327 C329 1.419 1_556 S
C328 C326 1.415 . S
C328 C333 1.425 1_556 S
C328 C335 1.409 . S
C329 H321 0.930 . S
C329 C327 1.419 1_554 S
C329 C330 1.362 . S
C330 H322 0.930 . S
C330 C329 1.362 . S
C330 C333 1.409 . S
C331 H323 0.930 . S
C331 C332 1.355 . S
C331 C333 1.415 . S
C332 C331 1.355 . S
C332 C334 1.419 . S
C333 C328 1.425 1_554 S
C333 C330 1.409 . S
C333 C331 1.415 . S
C334 H324 0.930 1_554 S
C334 C332 1.419 . S
C334 C335 1.362 1_554 S
C335 H325 0.930 . S
C335 C328 1.409 . S
C335 C334 1.362 1_556 S
H336 C342 0.930 . S
H337 C345 0.930 . S
H338 C346 0.930 . S
H339 C347 0.930 . S
H340 C350 0.930 . S
H341 C351 0.930 . S
C342 H336 0.930 . S
C342 C343 1.355 . S
C342 C344 1.415 . S
C343 C342 1.355 . S
C343 C345 1.419 . S
C344 C342 1.415 . S
C344 C349 1.425 . S
C344 C351 1.409 . S
C345 H337 0.930 . S
C345 C343 1.419 . S
C345 C346 1.362 . S
C346 H338 0.930 . S
C346 C345 1.362 . S
C346 C349 1.409 . S
C347 H339 0.930 . S
C347 C348 1.355 . S
C347 C349 1.415 . S
C348 C347 1.355 . S
C348 C350 1.419 . S
C349 C344 1.425 . S
C349 C346 1.409 . S
C349 C347 1.415 . S
C350 H340 0.930 . S
C350 C348 1.419 . S
C350 C351 1.362 . S
C351 H341 0.930 . S
C351 C344 1.409 . S
C351 C350 1.362 . S
H352 C358 0.930 . S
H353 C361 0.930 . S
H354 C362 0.930 . S
H355 C363 0.930 . S
H356 C366 0.930 . S
H357 C367 0.930 . S
C358 H352 0.930 . S
C358 C359 1.355 . S
C358 C360 1.415 . S
C359 C358 1.355 . S
C359 C361 1.419 1_554 S
C360 C358 1.415 . S
C360 C365 1.425 1_544 S
C360 C367 1.409 1_545 S
C361 H353 0.930 . S
C361 C359 1.419 1_556 S
C361 C362 1.362 . S
C362 H354 0.930 . S
C362 C361 1.362 . S
C362 C365 1.409 1_545 S
C363 H355 0.930 . S
C363 C364 1.355 . S
C363 C365 1.415 . S
C364 C363 1.355 . S
C364 C366 1.419 1_556 S
C365 C360 1.425 1_566 S
C365 C362 1.409 1_565 S
C365 C363 1.415 . S
C366 H356 0.930 . S
C366 C364 1.419 1_554 S
C366 C367 1.362 . S
C367 H357 0.930 . S
C367 C360 1.409 1_565 S
C367 C366 1.362 . S
H368 C374 0.930 . S
H369 C377 0.930 . S
H370 C378 0.930 1_545 S
H371 C379 0.930 . S
H372 C382 0.930 . S
H373 C383 0.930 1_565 S
C374 H368 0.930 . S
C374 C375 1.355 . S
C374 C376 1.415 . S
C375 C374 1.355 . S
C375 C377 1.419 . S
C376 C374 1.415 . S
C376 C381 1.425 1_565 S
C376 C383 1.409 1_565 S
C377 H369 0.930 . S
C377 C375 1.419 . S
C377 C378 1.362 . S
C378 H370 0.930 1_565 S
C378 C377 1.362 . S
C378 C381 1.409 1_565 S
C379 H371 0.930 . S
C379 C380 1.355 . S
C379 C381 1.415 . S
C380 C379 1.355 . S
C380 C382 1.419 . S
C381 C376 1.425 1_545 S
C381 C378 1.409 1_545 S
C381 C379 1.415 . S
C382 H372 0.930 . S
C382 C380 1.419 . S
C382 C383 1.362 . S
C383 H373 0.930 1_545 S
C383 C376 1.409 1_545 S
C383 C382 1.362 . S
H384 C390 0.930 . S
H385 C393 0.930 . S
H386 C394 0.930 . S
H387 C395 0.930 . S
H388 C398 0.930 . S
H389 C399 0.930 . S
C390 H384 0.930 . S
C390 C391 1.355 . S
C390 C392 1.415 1_565 S
C391 C390 1.355 . S
C391 C393 1.419 . S
C392 C390 1.415 1_545 S
C392 C397 1.425 1_546 S
C392 C399 1.409 . S
C393 H385 0.930 . S
C393 C391 1.419 . S
C393 C394 1.362 1_556 S
C394 H386 0.930 . S
C394 C393 1.362 1_554 S
C394 C397 1.409 . S
C395 H387 0.930 . S
C395 C396 1.355 . S
C395 C397 1.415 1_545 S
C396 C395 1.355 . S
C396 C398 1.419 . S
C397 C392 1.425 1_564 S
C397 C394 1.409 . S
C397 C395 1.415 1_565 S
C398 H388 0.930 . S
C398 C396 1.419 . S
C398 C399 1.362 1_554 S
C399 H389 0.930 . S
C399 C392 1.409 . S
C399 C398 1.362 1_556 S
H400 C406 0.930 . S
H401 C409 0.930 . S
H402 C410 0.930 . S
H403 C411 0.930 . S
H404 C414 0.930 . S
H405 C415 0.930 . S
C406 H400 0.930 . S
C406 C407 1.355 . S
C406 C408 1.429 . S
C407 C406 1.355 . S
C407 C409 1.419 . S
C408 C406 1.429 . S
C408 C413 1.424 1_545 S
C408 C415 1.396 1_545 S
C409 H401 0.930 . S
C409 C407 1.419 . S
C409 C410 1.362 . S
C410 H402 0.930 . S
C410 C409 1.362 . S
C410 C413 1.396 1_545 S
C411 H403 0.930 . S
C411 C412 1.355 . S
C411 C413 1.429 . S
C412 C411 1.355 . S
C412 C414 1.419 . S
C413 C408 1.424 1_565 S
C413 C410 1.396 1_565 S
C413 C411 1.429 . S
C414 H404 0.930 . S
C414 C412 1.419 . S
C414 C415 1.362 . S
C415 H405 0.930 . S
C415 C408 1.396 1_565 S
C415 C414 1.362 . S
H416 C422 0.930 . S
H417 C425 0.930 . S
H418 C426 0.930 . S
H419 C427 0.930 . S
H420 C430 0.930 . S
H421 C431 0.930 . S
C422 H416 0.930 . S
C422 C423 1.355 1_554 S
C422 C424 1.415 . S
C423 C422 1.355 1_556 S
C423 C425 1.419 . S
C424 C422 1.415 . S
C424 C429 1.425 1_554 S
C424 C431 1.409 . S
C425 H417 0.930 . S
C425 C423 1.419 . S
C425 C426 1.362 . S
C426 H418 0.930 . S
C426 C425 1.362 . S
C426 C429 1.409 . S
C427 H419 0.930 . S
C427 C428 1.355 1_556 S
C427 C429 1.415 . S
C428 C427 1.355 1_554 S
C428 C430 1.419 . S
C429 C424 1.425 1_556 S
C429 C426 1.409 . S
C429 C427 1.415 . S
C430 H420 0.930 . S
C430 C428 1.419 . S
C430 C431 1.362 . S
C431 H421 0.930 . S
C431 C424 1.409 . S
C431 C430 1.362 . S
H432 C438 0.930 . S
H433 C441 0.930 . S
H434 C442 0.930 . S
H435 C443 0.930 . S
H436 C446 0.930 . S
H437 C447 0.930 . S
C438 H432 0.930 . S
C438 C439 1.355 . S
C438 C440 1.415 . S
C439 C438 1.355 . S
C439 C441 1.419 . S
C440 C438 1.415 . S
C440 C445 1.425 . S
C440 C447 1.409 . S
C441 H433 0.930 . S
C441 C439 1.419 . S
C441 C442 1.362 . S
C442 H434 0.930 . S
C442 C441 1.362 . S
C442 C445 1.409 . S
C443 H435 0.930 . S
C443 C444 1.355 . S
C443 C445 1.415 . S
C444 C443 1.355 . S
C444 C446 1.419 . S
C445 C440 1.425 . S
C445 C442 1.409 . S
C445 C443 1.415 . S
C446 H436 0.930 . S
C446 C444 1.419 . S
C446 C447 1.362 . S
C447 H437 0.930 . S
C447 C440 1.409 . S
C447 C446 1.362 . S
H448 C454 0.930 . S
H449 C457 0.930 . S
H450 C458 0.930 . S
H451 C459 0.930 . S
H452 C462 0.930 . S
H453 C463 0.930 . S
C454 H448 0.930 . S
C454 C455 1.355 . S
C454 C456 1.415 . S
C455 C454 1.355 . S
C455 C457 1.419 . S
C456 C454 1.415 . S
C456 C461 1.425 1_554 S
C456 C463 1.409 . S
C457 H449 0.930 . S
C457 C455 1.419 . S
C457 C458 1.362 1_554 S
C458 H450 0.930 . S
C458 C457 1.362 1_556 S
C458 C461 1.409 . S
C459 H451 0.930 . S
C459 C460 1.355 . S
C459 C461 1.415 . S
C460 C459 1.355 . S
C460 C462 1.419 . S
C461 C456 1.425 1_556 S
C461 C458 1.409 . S
C461 C459 1.415 . S
C462 H452 0.930 . S
C462 C460 1.419 . S
C462 C463 1.362 1_556 S
C463 H453 0.930 . S
C463 C456 1.409 . S
C463 C462 1.362 1_554 S
H464 C470 0.930 . S
H465 C473 0.930 . S
H466 C474 0.930 . S
H467 C475 0.930 . S
H468 C478 0.930 . S
H469 C479 0.930 . S
C470 H464 0.930 . S
C470 C471 1.355 . S
C470 C472 1.415 . S
C471 C470 1.355 . S
C471 C473 1.419 . S
C472 C470 1.415 . S
C472 C477 1.425 . S
C472 C479 1.409 . S
C473 H465 0.930 . S
C473 C471 1.419 . S
C473 C474 1.362 . S
C474 H466 0.930 . S
C474 C473 1.362 . S
C474 C477 1.409 . S
C475 H467 0.930 . S
C475 C476 1.355 . S
C475 C477 1.415 . S
C476 C475 1.355 . S
C476 C478 1.419 . S
C477 C472 1.425 . S
C477 C474 1.409 . S
C477 C475 1.415 . S
C478 H468 0.930 . S
C478 C476 1.419 . S
C478 C479 1.362 . S
C479 H469 0.930 . S
C479 C472 1.409 . S
C479 C478 1.362 . S
H480 C486 0.930 . S
H481 C489 0.930 . S
H482 C490 0.930 . S
H483 C491 0.930 . S
H484 C494 0.930 . S
H485 C495 0.930 . S
C486 H480 0.930 . S
C486 C487 1.355 . S
C486 C488 1.415 . S
C487 C486 1.355 . S
C487 C489 1.419 . S
C488 C486 1.415 . S
C488 C493 1.425 . S
C488 C495 1.409 . S
C489 H481 0.930 . S
C489 C487 1.419 . S
C489 C490 1.362 . S
C490 H482 0.930 . S
C490 C489 1.362 . S
C490 C493 1.409 . S
C491 H483 0.930 . S
C491 C492 1.355 . S
C491 C493 1.415 . S
C492 C491 1.355 . S
C492 C494 1.419 . S
C493 C488 1.425 . S
C493 C490 1.409 . S
C493 C491 1.415 . S
C494 H484 0.930 . S
C494 C492 1.419 . S
C494 C495 1.362 . S
C495 H485 0.930 . S
C495 C488 1.409 . S
C495 C494 1.362 . S
H496 C502 0.930 . S
H497 C505 0.930 . S
H498 C506 0.930 . S
H499 C507 0.930 . S
H500 C510 0.930 . S
H501 C511 0.930 . S
C502 H496 0.930 . S
C502 C503 1.355 . S
C502 C504 1.415 1_655 S
C503 C502 1.355 . S
C503 C505 1.419 . S
C504 C502 1.415 1_455 S
C504 C509 1.425 . S
C504 C511 1.409 . S
C505 H497 0.930 . S
C505 C503 1.419 . S
C505 C506 1.362 . S
C506 H498 0.930 . S
C506 C505 1.362 . S
C506 C509 1.409 1_655 S
C507 H499 0.930 . S
C507 C508 1.355 . S
C507 C509 1.415 . S
C508 C507 1.355 . S
C508 C510 1.419 . S
C509 C504 1.425 . S
C509 C506 1.409 1_455 S
C509 C507 1.415 . S
C510 H500 0.930 . S
C510 C508 1.419 . S
C510 C511 1.362 . S
C511 H501 0.930 . S
C511 C504 1.409 . S
C511 C510 1.362 . S
H512 C518 0.930 . S
H513 C521 0.930 . S
H514 C522 0.930 . S
H515 C523 0.930 . S
H516 C526 0.930 . S
H517 C527 0.930 . S
C518 H512 0.930 . S
C518 C519 1.355 . S
C518 C520 1.415 . S
C519 C518 1.355 . S
C519 C521 1.419 . S
C520 C518 1.415 . S
C520 C525 1.425 . S
C520 C527 1.409 . S
C521 H513 0.930 . S
C521 C519 1.419 . S
C521 C522 1.362 . S
C522 H514 0.930 . S
C522 C521 1.362 . S
C522 C525 1.409 . S
C523 H515 0.930 . S
C523 C524 1.355 . S
C523 C525 1.415 . S
C524 C523 1.355 . S
C524 C526 1.419 . S
C525 C520 1.425 . S
C525 C522 1.409 . S
C525 C523 1.415 . S
C526 H516 0.930 . S
C526 C524 1.419 . S
C526 C527 1.362 . S
C527 H517 0.930 . S
C527 C520 1.409 . S
C527 C526 1.362 . S
H528 C534 0.930 . S
H529 C537 0.930 . S
H530 C538 0.930 . S
H531 C539 0.930 . S
H532 C542 0.930 . S
H533 C543 0.930 . S
C534 H528 0.930 . S
C534 C535 1.355 . S
C534 C536 1.415 . S
C535 C534 1.355 . S
C535 C537 1.419 . S
C536 C534 1.415 . S
C536 C541 1.425 . S
C536 C543 1.409 1_455 S
C537 H529 0.930 . S
C537 C535 1.419 . S
C537 C538 1.362 . S
C538 H530 0.930 . S
C538 C537 1.362 . S
C538 C541 1.409 . S
C539 H531 0.930 . S
C539 C540 1.355 . S
C539 C541 1.415 1_655 S
C540 C539 1.355 . S
C540 C542 1.419 . S
C541 C536 1.425 . S
C541 C538 1.409 . S
C541 C539 1.415 1_455 S
C542 H532 0.930 . S
C542 C540 1.419 . S
C542 C543 1.362 . S
C543 H533 0.930 . S
C543 C536 1.409 1_655 S
C543 C542 1.362 . S
H544 C550 0.930 . S
H545 C553 0.930 . S
H546 C554 0.930 1_655 S
H547 C555 0.930 . S
H548 C558 0.930 . S
H549 C559 0.930 . S
C550 H544 0.930 . S
C550 C551 1.355 . S
C550 C552 1.415 1_455 S
C551 C550 1.355 . S
C551 C553 1.419 . S
C552 C550 1.415 1_655 S
C552 C557 1.425 . S
C552 C559 1.409 . S
C553 H545 0.930 . S
C553 C551 1.419 . S
C553 C554 1.362 . S
C554 H546 0.930 1_455 S
C554 C553 1.362 . S
C554 C557 1.409 1_455 S
C555 H547 0.930 . S
C555 C556 1.355 . S
C555 C557 1.415 . S
C556 C555 1.355 . S
C556 C558 1.419 . S
C557 C552 1.425 . S
C557 C554 1.409 1_655 S
C557 C555 1.415 . S
C558 H548 0.930 . S
C558 C556 1.419 . S
C558 C559 1.362 . S
C559 H549 0.930 . S
C559 C552 1.409 . S
C559 C558 1.362 . S
H560 C566 0.930 . S
H561 C569 0.930 . S
H562 C570 0.930 . S
H563 C571 0.930 . S
H564 C574 0.930 . S
H565 C575 0.930 . S
C566 H560 0.930 . S
C566 C567 1.355 . S
C566 C568 1.415 . S
C567 C566 1.355 . S
C567 C569 1.419 . S
C568 C566 1.415 . S
C568 C573 1.425 . S
C568 C575 1.409 . S
C569 H561 0.930 . S
C569 C567 1.419 . S
C569 C570 1.362 . S
C570 H562 0.930 . S
C570 C569 1.362 . S
C570 C573 1.409 . S
C571 H563 0.930 . S
C571 C572 1.355 . S
C571 C573 1.415 . S
C572 C571 1.355 . S
C572 C574 1.419 . S
C573 C568 1.425 . S
C573 C570 1.409 . S
C573 C571 1.415 . S
C574 H564 0.930 . S
C574 C572 1.419 . S
C574 C575 1.362 . S
C575 H565 0.930 . S
C575 C568 1.409 . S
C575 C574 1.362 . S
H576 C582 0.930 . S
H577 C585 0.930 . S
H578 C586 0.930 . S
H579 C587 0.930 . S
H580 C590 0.930 . S
H581 C591 0.930 . S
C582 H576 0.930 . S
C582 C583 1.355 . S
C582 C584 1.415 1_455 S
C583 C582 1.355 . S
C583 C585 1.419 . S
C584 C582 1.415 1_655 S
C584 C589 1.425 . S
C584 C591 1.409 . S
C585 H577 0.930 . S
C585 C583 1.419 . S
C585 C586 1.362 . S
C586 H578 0.930 . S
C586 C585 1.362 . S
C586 C589 1.409 1_455 S
C587 H579 0.930 . S
C587 C588 1.355 . S
C587 C589 1.415 . S
C588 C587 1.355 . S
C588 C590 1.419 . S
C589 C584 1.425 . S
C589 C586 1.409 1_655 S
C589 C587 1.415 . S
C590 H580 0.930 . S
C590 C588 1.419 . S
C590 C591 1.362 . S
C591 H581 0.930 . S
C591 C584 1.409 . S
C591 C590 1.362 . S
H592 C598 0.930 . S
H593 C601 0.930 . S
H594 C602 0.930 . S
H595 C603 0.930 . S
H596 C606 0.930 . S
H597 C607 0.930 . S
C598 H592 0.930 . S
C598 C599 1.355 . S
C598 C600 1.415 . S
C599 C598 1.355 . S
C599 C601 1.419 . S
C600 C598 1.415 . S
C600 C605 1.425 . S
C600 C607 1.409 . S
C601 H593 0.930 . S
C601 C599 1.419 . S
C601 C602 1.362 . S
C602 H594 0.930 . S
C602 C601 1.362 . S
C602 C605 1.409 . S
C603 H595 0.930 . S
C603 C604 1.355 . S
C603 C605 1.415 . S
C604 C603 1.355 . S
C604 C606 1.419 . S
C605 C600 1.425 . S
C605 C602 1.409 . S
C605 C603 1.415 . S
C606 H596 0.930 . S
C606 C604 1.419 . S
C606 C607 1.362 . S
C607 H597 0.930 . S
C607 C600 1.409 . S
C607 C606 1.362 . S
H608 C614 0.930 . S
H609 C617 0.930 . S
H610 C618 0.930 . S
H611 C619 0.930 . S
H612 C622 0.930 . S
H613 C623 0.930 . S
C614 H608 0.930 . S
C614 C615 1.355 . S
C614 C616 1.415 . S
C615 C614 1.355 . S
C615 C617 1.419 . S
C616 C614 1.415 . S
C616 C621 1.425 . S
C616 C623 1.409 . S
C617 H609 0.930 . S
C617 C615 1.419 . S
C617 C618 1.362 . S
C618 H610 0.930 . S
C618 C617 1.362 . S
C618 C621 1.409 . S
C619 H611 0.930 . S
C619 C620 1.355 . S
C619 C621 1.415 . S
C620 C619 1.355 . S
C620 C622 1.419 . S
C621 C616 1.425 . S
C621 C618 1.409 . S
C621 C619 1.415 . S
C622 H612 0.930 . S
C622 C620 1.419 . S
C622 C623 1.362 . S
C623 H613 0.930 . S
C623 C616 1.409 . S
C623 C622 1.362 . S
H624 C630 0.930 . S
H625 C633 0.930 . S
H626 C634 0.930 . S
H627 C635 0.930 . S
H628 C638 0.930 . S
H629 C639 0.930 . S
C630 H624 0.930 . S
C630 C631 1.355 . S
C630 C632 1.415 . S
C631 C630 1.355 . S
C631 C633 1.419 . S
C632 C630 1.415 . S
C632 C637 1.425 . S
C632 C639 1.409 . S
C633 H625 0.930 . S
C633 C631 1.419 . S
C633 C634 1.362 . S
C634 H626 0.930 . S
C634 C633 1.362 . S
C634 C637 1.409 . S
C635 H627 0.930 . S
C635 C636 1.355 . S
C635 C637 1.415 . S
C636 C635 1.355 . S
C636 C638 1.419 . S
C637 C632 1.425 . S
C637 C634 1.409 . S
C637 C635 1.415 . S
C638 H628 0.930 . S
C638 C636 1.419 . S
C638 C639 1.362 . S
C639 H629 0.930 . S
C639 C632 1.409 . S
C639 C638 1.362 . S
H640 C646 0.930 . S
H641 C649 0.930 . S
H642 C650 0.930 . S
H643 C651 0.930 . S
H644 C654 0.930 . S
H645 C655 0.930 . S
C646 H640 0.930 . S
C646 C647 1.355 . S
C646 C648 1.415 . S
C647 C646 1.355 . S
C647 C649 1.419 . S
C648 C646 1.415 . S
C648 C653 1.425 . S
C648 C655 1.409 . S
C649 H641 0.930 . S
C649 C647 1.419 . S
C649 C650 1.362 . S
C650 H642 0.930 . S
C650 C649 1.362 . S
C650 C653 1.409 . S
C651 H643 0.930 . S
C651 C652 1.355 . S
C651 C653 1.415 . S
C652 C651 1.355 . S
C652 C654 1.419 . S
C653 C648 1.425 . S
C653 C650 1.409 . S
C653 C651 1.415 . S
C654 H644 0.930 . S
C654 C652 1.419 . S
C654 C655 1.362 . S
C655 H645 0.930 . S
C655 C648 1.409 . S
C655 C654 1.362 . S
H656 C662 0.930 . S
H657 C665 0.930 . S
H658 C666 0.930 . S
H659 C667 0.930 . S
H660 C670 0.930 . S
H661 C671 0.930 . S
C662 H656 0.930 . S
C662 C663 1.355 . S
C662 C664 1.415 . S
C663 C662 1.355 . S
C663 C665 1.419 . S
C664 C662 1.415 . S
C664 C669 1.425 . S
C664 C671 1.409 . S
C665 H657 0.930 . S
C665 C663 1.419 . S
C665 C666 1.362 . S
C666 H658 0.930 . S
C666 C665 1.362 . S
C666 C669 1.409 . S
C667 H659 0.930 . S
C667 C668 1.355 . S
C667 C669 1.415 . S
C668 C667 1.355 . S
C668 C670 1.419 . S
C669 C664 1.425 . S
C669 C666 1.409 . S
C669 C667 1.415 . S
C670 H660 0.930 . S
C670 C668 1.419 . S
C670 C671 1.362 . S
C671 H661 0.930 . S
C671 C664 1.409 . S
C671 C670 1.362 . S
H672 C678 0.930 . S
H673 C681 0.930 . S
H674 C682 0.930 . S
H675 C683 0.930 . S
H676 C686 0.930 . S
H677 C687 0.930 . S
C678 H672 0.930 . S
C678 C679 1.355 . S
C678 C680 1.415 . S
C679 C678 1.355 . S
C679 C681 1.419 . S
C680 C678 1.415 . S
C680 C685 1.425 . S
C680 C687 1.409 . S
C681 H673 0.930 . S
C681 C679 1.419 . S
C681 C682 1.362 . S
C682 H674 0.930 . S
C682 C681 1.362 . S
C682 C685 1.409 . S
C683 H675 0.930 . S
C683 C684 1.355 . S
C683 C685 1.415 . S
C684 C683 1.355 . S
C684 C686 1.419 . S
C685 C680 1.425 . S
C685 C682 1.409 . S
C685 C683 1.415 . S
C686 H676 0.930 . S
C686 C684 1.419 . S
C686 C687 1.362 . S
C687 H677 0.930 . S
C687 C680 1.409 . S
C687 C686 1.362 . S
H688 C694 0.930 . S
H689 C697 0.930 . S
H690 C698 0.930 . S
H691 C699 0.930 . S
H692 C702 0.930 . S
H693 C703 0.930 . S
C694 H688 0.930 . S
C694 C695 1.355 . S
C694 C696 1.415 . S
C695 C694 1.355 . S
C695 C697 1.419 . S
C696 C694 1.415 . S
C696 C701 1.425 . S
C696 C703 1.409 . S
C697 H689 0.930 . S
C697 C695 1.419 . S
C697 C698 1.362 . S
C698 H690 0.930 . S
C698 C697 1.362 . S
C698 C701 1.409 . S
C699 H691 0.930 . S
C699 C700 1.355 . S
C699 C701 1.415 . S
C700 C699 1.355 . S
C700 C702 1.419 . S
C701 C696 1.425 . S
C701 C698 1.409 . S
C701 C699 1.415 . S
C702 H692 0.930 . S
C702 C700 1.419 . S
C702 C703 1.362 . S
C703 H693 0.930 . S
C703 C696 1.409 . S
C703 C702 1.362 . S
H704 C710 0.930 . S
H705 C713 0.930 . S
H706 C714 0.930 . S
H707 C715 0.930 . S
H708 C718 0.930 . S
H709 C719 0.930 . S
C710 H704 0.930 . S
C710 C711 1.355 . S
C710 C712 1.415 . S
C711 C710 1.355 . S
C711 C713 1.419 . S
C712 C710 1.415 . S
C712 C717 1.425 . S
C712 C719 1.409 . S
C713 H705 0.930 . S
C713 C711 1.419 . S
C713 C714 1.362 . S
C714 H706 0.930 . S
C714 C713 1.362 . S
C714 C717 1.409 . S
C715 H707 0.930 . S
C715 C716 1.355 . S
C715 C717 1.415 . S
C716 C715 1.355 . S
C716 C718 1.419 . S
C717 C712 1.425 . S
C717 C714 1.409 . S
C717 C715 1.415 . S
C718 H708 0.930 . S
C718 C716 1.419 . S
C718 C719 1.362 . S
C719 H709 0.930 . S
C719 C712 1.409 . S
C719 C718 1.362 . S
H720 C726 0.930 . S
H721 C729 0.930 . S
H722 C730 0.930 . S
H723 C731 0.930 . S
H724 C734 0.930 . S
H725 C735 0.930 . S
C726 H720 0.930 . S
C726 C727 1.355 . S
C726 C728 1.415 . S
C727 C726 1.355 . S
C727 C729 1.419 . S
C728 C726 1.415 . S
C728 C733 1.425 . S
C728 C735 1.409 . S
C729 H721 0.930 . S
C729 C727 1.419 . S
C729 C730 1.362 . S
C730 H722 0.930 . S
C730 C729 1.362 . S
C730 C733 1.409 . S
C731 H723 0.930 . S
C731 C732 1.355 . S
C731 C733 1.415 . S
C732 C731 1.355 . S
C732 C734 1.419 . S
C733 C728 1.425 . S
C733 C730 1.409 . S
C733 C731 1.415 . S
C734 H724 0.930 . S
C734 C732 1.419 . S
C734 C735 1.362 . S
C735 H725 0.930 . S
C735 C728 1.409 . S
C735 C734 1.362 . S
C231 C9 1.506 . S
C236 C179 1.478 . S
C247 C193 1.480 . S
C252 C23 1.505 . S
C263 C37 1.498 . S
C268 C207 1.510 . S
C279 C221 1.471 . S
C284 C51 1.512 . S
C295 C121 1.509 . S
C300 C67 1.493 . S
C311 C81 1.471 . S
C316 C135 1.512 . S
C327 C149 1.512 . S
C332 C95 1.472 . S
C343 C109 1.474 . S
C348 C163 1.508 . S
C359 C5 1.509 . S
C364 C33 1.513 . S
C375 C19 1.465 . S
C380 C47 1.463 . S
C391 C61 1.655 . S
C396 C89 1.654 . S
C407 C75 1.678 . S
C412 C103 1.670 . S
C423 C145 1.464 . S
C428 C117 1.470 . S
C439 C131 1.472 . S
C444 C159 1.465 . S
C455 C201 1.665 . S
C460 C173 1.659 . S
C471 C187 1.682 . S
C476 C215 1.674 . S
C487 C84 1.503 . S
C492 C0 1.504 . S
C503 C98 1.452 . S
C508 C14 1.467 . S
C519 C28 1.478 . S
C524 C56 1.493 . S
C535 C42 1.471 . S
C540 C70 1.452 . S
C551 C196 1.501 . S
C556 C112 1.506 . S
C567 C126 1.485 . S
C572 C210 1.498 . S
C583 C168 1.457 . S
C588 C140 1.460 . S
C599 C154 1.460 . S
C604 C182 1.459 . S
C615 C11 1.230 . S
C620 C53 1.210 . S
C631 C39 1.230 . S
C636 C25 1.210 . S
C647 C65 1.730 . S
C652 C107 1.745 . S
C663 C79 1.740 . S
C668 C93 1.735 . S
C679 C165 1.250 . S
C684 C123 1.236 . S
C695 C137 1.213 . S
C700 C151 1.247 . S
C711 C219 1.730 . S
C716 C177 1.745 . S
C727 C191 1.731 . S
C732 C205 1.744 . S
