# Generated by pormake.
# Topology umd, (4)-cn, num edge types: 1
# Building blocks:
#     Node 0, Type 0, BuildingBlock: NAWXER_clean_sbu_0, # of connection points: 4
#     Node 1, Type 0, BuildingBlock: NAWXER_clean_sbu_0, # of connection points: 4
#     Node 2, Type 0, BuildingBlock: NAWXER_clean_sbu_0, # of connection points: 4
#     Node 3, Type 0, BuildingBlock: NAWXER_clean_sbu_0, # of connection points: 4
#     Node 4, Type 0, BuildingBlock: NAWXER_clean_sbu_0, # of connection points: 4
#     Node 5, Type 0, BuildingBlock: NAWXER_clean_sbu_0, # of connection points: 4
#     Node 6, Type 0, BuildingBlock: NAWXER_clean_sbu_0, # of connection points: 4
#     Node 7, Type 0, BuildingBlock: NAWXER_clean_sbu_0, # of connection points: 4
#     Node 8, Type 0, BuildingBlock: NAWXER_clean_sbu_0, # of connection points: 4
#     Node 9, Type 0, BuildingBlock: NAWXER_clean_sbu_0, # of connection points: 4
#     Node 10, Type 0, BuildingBlock: NAWXER_clean_sbu_0, # of connection points: 4
#     Node 11, Type 0, BuildingBlock: NAWXER_clean_sbu_0, # of connection points: 4
#     Node 12, Type 0, BuildingBlock: NAWXER_clean_sbu_0, # of connection points: 4
#     Node 13, Type 0, BuildingBlock: NAWXER_clean_sbu_0, # of connection points: 4
#     Node 14, Type 0, BuildingBlock: NAWXER_clean_sbu_0, # of connection points: 4
#     Node 15, Type 0, BuildingBlock: NAWXER_clean_sbu_0, # of connection points: 4
#     Edge 16, Type (0, 0), BuildingBlock: OJICUG_clean_linker_0, # of connection points: 2
#     Edge 17, Type (0, 0), BuildingBlock: OJICUG_clean_linker_0, # of connection points: 2
#     Edge 18, Type (0, 0), BuildingBlock: OJICUG_clean_linker_0, # of connection points: 2
#     Edge 19, Type (0, 0), BuildingBlock: OJICUG_clean_linker_0, # of connection points: 2
#     Edge 20, Type (0, 0), BuildingBlock: OJICUG_clean_linker_0, # of connection points: 2
#     Edge 21, Type (0, 0), BuildingBlock: OJICUG_clean_linker_0, # of connection points: 2
#     Edge 22, Type (0, 0), BuildingBlock: OJICUG_clean_linker_0, # of connection points: 2
#     Edge 23, Type (0, 0), BuildingBlock: OJICUG_clean_linker_0, # of connection points: 2
#     Edge 24, Type (0, 0), BuildingBlock: OJICUG_clean_linker_0, # of connection points: 2
#     Edge 25, Type (0, 0), BuildingBlock: OJICUG_clean_linker_0, # of connection points: 2
#     Edge 26, Type (0, 0), BuildingBlock: OJICUG_clean_linker_0, # of connection points: 2
#     Edge 27, Type (0, 0), BuildingBlock: OJICUG_clean_linker_0, # of connection points: 2
#     Edge 28, Type (0, 0), BuildingBlock: OJICUG_clean_linker_0, # of connection points: 2
#     Edge 29, Type (0, 0), BuildingBlock: OJICUG_clean_linker_0, # of connection points: 2
#     Edge 30, Type (0, 0), BuildingBlock: OJICUG_clean_linker_0, # of connection points: 2
#     Edge 31, Type (0, 0), BuildingBlock: OJICUG_clean_linker_0, # of connection points: 2
#     Edge 32, Type (0, 0), BuildingBlock: OJICUG_clean_linker_0, # of connection points: 2
#     Edge 33, Type (0, 0), BuildingBlock: OJICUG_clean_linker_0, # of connection points: 2
#     Edge 34, Type (0, 0), BuildingBlock: OJICUG_clean_linker_0, # of connection points: 2
#     Edge 35, Type (0, 0), BuildingBlock: OJICUG_clean_linker_0, # of connection points: 2
#     Edge 36, Type (0, 0), BuildingBlock: OJICUG_clean_linker_0, # of connection points: 2
#     Edge 37, Type (0, 0), BuildingBlock: OJICUG_clean_linker_0, # of connection points: 2
#     Edge 38, Type (0, 0), BuildingBlock: OJICUG_clean_linker_0, # of connection points: 2
#     Edge 39, Type (0, 0), BuildingBlock: OJICUG_clean_linker_0, # of connection points: 2
#     Edge 40, Type (0, 0), BuildingBlock: OJICUG_clean_linker_0, # of connection points: 2
#     Edge 41, Type (0, 0), BuildingBlock: OJICUG_clean_linker_0, # of connection points: 2
#     Edge 42, Type (0, 0), BuildingBlock: OJICUG_clean_linker_0, # of connection points: 2
#     Edge 43, Type (0, 0), BuildingBlock: OJICUG_clean_linker_0, # of connection points: 2
#     Edge 44, Type (0, 0), BuildingBlock: OJICUG_clean_linker_0, # of connection points: 2
#     Edge 45, Type (0, 0), BuildingBlock: OJICUG_clean_linker_0, # of connection points: 2
#     Edge 46, Type (0, 0), BuildingBlock: OJICUG_clean_linker_0, # of connection points: 2
#     Edge 47, Type (0, 0), BuildingBlock: OJICUG_clean_linker_0, # of connection points: 2
# Relax obj value: 0.021
# Max RMSD: 0.190
# Mean RMSD: 0.190
data_MOF--net-umd--node1-NAWXER_clean_sbu_0--edge1-OJICUG_clean_linker_0
_symmetry_space_group_name_H-M    P1
_symmetry_Int_Tables_number       1
_symmetry_cell_setting            triclinic
loop_
_symmetry_equiv_pos_as_xyz
'x, y, z'
_cell_length_a     29.574125
_cell_length_b     29.57354
_cell_length_c     41.971972
_cell_angle_alpha  90.037979
_cell_angle_beta   89.987253
_cell_angle_gamma 89.996999
loop_
_atom_site_label
_atom_site_type_symbol
_atom_site_fract_x
_atom_site_fract_y
_atom_site_fract_z
_atom_type_partial_charge
C0 C 0.08468 0.45294 0.14025 0.0
C1 C 0.21637 0.35525 0.14645 0.0
O2 O 0.08622 0.41023 0.14319 0.0
Zn3 Zn 0.15054 0.4047 0.1435 0.0
O4 O 0.12168 0.47559 0.13824 0.0
Zn5 Zn 0.19376 0.4608 0.13814 0.0
O6 O 0.21235 0.48124 0.09641 0.0
O7 O 0.16747 0.42174 0.09507 0.0
O8 O 0.2276 0.39676 0.14247 0.0
O9 O 0.17486 0.34491 0.14869 0.0
O10 O 0.16783 0.43893 0.18715 0.0
O11 O 0.21598 0.49332 0.17485 0.0
C12 C 0.19111 0.45158 0.08041 0.0
C13 C 0.19338 0.47183 0.19562 0.0
C14 C 0.54643 0.19124 0.58047 0.0
C15 C 0.52658 0.19362 0.69571 0.0
O16 O 0.51685 0.21251 0.59652 0.0
Zn17 Zn 0.53744 0.19397 0.63821 0.0
O18 O 0.57634 0.16761 0.59507 0.0
Zn19 Zn 0.59356 0.15075 0.64349 0.0
O20 O 0.58805 0.08643 0.64317 0.0
O21 O 0.52267 0.12188 0.63831 0.0
O22 O 0.55947 0.16807 0.68719 0.0
O23 O 0.50503 0.21621 0.67497 0.0
O24 O 0.60148 0.22782 0.64247 0.0
O25 O 0.65337 0.1751 0.6486 0.0
C26 C 0.54533 0.08488 0.64028 0.0
C27 C 0.643 0.2166 0.6464 0.0
C28 C 0.80347 0.52627 0.19573 0.0
C29 C 0.80601 0.54641 0.08052 0.0
O30 O 0.7809 0.50478 0.17493 0.0
Zn31 Zn 0.80316 0.53729 0.13825 0.0
O32 O 0.82902 0.55918 0.18729 0.0
Zn33 Zn 0.84635 0.59341 0.14368 0.0
O34 O 0.82197 0.6532 0.14888 0.0
O35 O 0.76927 0.60132 0.14258 0.0
O36 O 0.8296 0.57629 0.09521 0.0
O37 O 0.78469 0.5168 0.09649 0.0
O38 O 0.87525 0.52255 0.13836 0.0
O39 O 0.91068 0.58793 0.14341 0.0
C40 C 0.78047 0.64283 0.1466 0.0
C41 C 0.91224 0.54522 0.14041 0.0
C42 C 0.45154 0.80616 0.58047 0.0
C43 C 0.47207 0.80372 0.69565 0.0
O44 O 0.48122 0.78487 0.59639 0.0
Zn45 Zn 0.46088 0.80338 0.63819 0.0
O46 O 0.42173 0.82978 0.59521 0.0
Zn47 Zn 0.40479 0.84661 0.6437 0.0
O48 O 0.41031 0.91093 0.64343 0.0
O49 O 0.47566 0.87546 0.6383 0.0
O50 O 0.43915 0.82928 0.68726 0.0
O51 O 0.49349 0.78112 0.67482 0.0
O52 O 0.39684 0.76953 0.64258 0.0
O53 O 0.34501 0.82227 0.64897 0.0
C54 C 0.45302 0.91247 0.64039 0.0
C55 C 0.35535 0.78077 0.64665 0.0
C56 C 0.19336 0.52617 0.32724 0.0
C57 C 0.19108 0.54621 0.44247 0.0
O58 O 0.21596 0.50465 0.34799 0.0
Zn59 Zn 0.19374 0.5371 0.38473 0.0
O60 O 0.1678 0.55905 0.33575 0.0
Zn61 Zn 0.15051 0.59321 0.37943 0.0
O62 O 0.17482 0.65302 0.37429 0.0
O63 O 0.22757 0.60115 0.38045 0.0
O64 O 0.16743 0.57608 0.42785 0.0
O65 O 0.21232 0.51659 0.42644 0.0
O66 O 0.12166 0.52231 0.38464 0.0
O67 O 0.08619 0.58768 0.37976 0.0
C68 C 0.21633 0.64267 0.3765 0.0
C69 C 0.08465 0.54496 0.38266 0.0
C70 C 0.45168 0.19134 0.94248 0.0
C71 C 0.47218 0.19368 0.82729 0.0
O72 O 0.48136 0.21261 0.92653 0.0
Zn73 Zn 0.46101 0.19405 0.88476 0.0
O74 O 0.42187 0.16771 0.92776 0.0
Zn75 Zn 0.40493 0.15083 0.87929 0.0
O76 O 0.41045 0.08651 0.87958 0.0
O77 O 0.4758 0.12196 0.88465 0.0
O78 O 0.43926 0.16812 0.8357 0.0
O79 O 0.49361 0.21628 0.84811 0.0
O80 O 0.39698 0.2279 0.88037 0.0
O81 O 0.34515 0.17516 0.87404 0.0
C82 C 0.45315 0.08496 0.88259 0.0
C83 C 0.35548 0.21666 0.87632 0.0
C84 C 0.806 0.45134 0.44243 0.0
C85 C 0.80346 0.47167 0.32724 0.0
O86 O 0.78468 0.48098 0.4265 0.0
Zn87 Zn 0.80315 0.46056 0.38471 0.0
O88 O 0.82959 0.42149 0.42771 0.0
Zn89 Zn 0.84636 0.40445 0.37923 0.0
O90 O 0.91068 0.40995 0.37949 0.0
O91 O 0.87524 0.47531 0.38459 0.0
O92 O 0.82902 0.43875 0.33565 0.0
O93 O 0.78088 0.49313 0.34807 0.0
O94 O 0.76927 0.39654 0.38034 0.0
O95 O 0.82199 0.34467 0.37399 0.0
C96 C 0.91223 0.45266 0.38251 0.0
C97 C 0.78049 0.35503 0.37629 0.0
C98 C 0.5266 0.80377 0.82719 0.0
C99 C 0.5465 0.80623 0.94243 0.0
O100 O 0.50506 0.78119 0.84796 0.0
Zn101 Zn 0.5375 0.80343 0.88469 0.0
O102 O 0.5595 0.82931 0.83569 0.0
Zn103 Zn 0.59363 0.84663 0.87937 0.0
O104 O 0.65342 0.82225 0.87423 0.0
O105 O 0.60153 0.76955 0.88042 0.0
O106 O 0.5764 0.82983 0.9278 0.0
O107 O 0.51691 0.78494 0.92641 0.0
O108 O 0.52275 0.87553 0.88459 0.0
O109 O 0.58814 0.91095 0.87967 0.0
C110 C 0.64304 0.78075 0.87646 0.0
C111 C 0.54542 0.91252 0.8826 0.0
C112 C 0.8065 0.5461 0.9425 0.0
C113 C 0.80421 0.52582 0.82729 0.0
O114 O 0.83015 0.57594 0.92785 0.0
Zn115 Zn 0.84707 0.59297 0.8794 0.0
O116 O 0.78526 0.51644 0.92651 0.0
Zn117 Zn 0.80384 0.53687 0.88477 0.0
O118 O 0.87592 0.52208 0.88467 0.0
O119 O 0.91138 0.58744 0.87971 0.0
O120 O 0.78161 0.50435 0.84807 0.0
O121 O 0.82977 0.55872 0.83576 0.0
O122 O 0.82276 0.65276 0.87421 0.0
O123 O 0.77 0.60092 0.88045 0.0
C124 C 0.91292 0.54472 0.88266 0.0
C125 C 0.78125 0.64243 0.87645 0.0
C126 C 0.471 0.80395 0.32721 0.0
C127 C 0.45114 0.80628 0.44245 0.0
O128 O 0.43812 0.8295 0.33573 0.0
Zn129 Zn 0.40401 0.84679 0.37944 0.0
O130 O 0.49255 0.78135 0.34795 0.0
Zn131 Zn 0.46014 0.80357 0.38471 0.0
O132 O 0.39609 0.76971 0.38045 0.0
O133 O 0.34421 0.82245 0.37432 0.0
O134 O 0.48073 0.78501 0.4264 0.0
O135 O 0.42124 0.82991 0.42785 0.0
O136 O 0.40952 0.91111 0.37977 0.0
O137 O 0.47491 0.87566 0.38462 0.0
C138 C 0.35457 0.78094 0.37652 0.0
C139 C 0.45225 0.91266 0.38266 0.0
C140 C 0.1916 0.45128 0.9424 0.0
C141 C 0.19414 0.47141 0.8272 0.0
O142 O 0.16802 0.4214 0.92771 0.0
Zn143 Zn 0.15127 0.40427 0.87924 0.0
O144 O 0.21292 0.4809 0.92643 0.0
Zn145 Zn 0.19446 0.4604 0.88467 0.0
O146 O 0.12236 0.47513 0.88456 0.0
O147 O 0.08694 0.40975 0.87952 0.0
O148 O 0.21671 0.49292 0.848 0.0
O149 O 0.16859 0.4385 0.83563 0.0
O150 O 0.17566 0.34449 0.87405 0.0
O151 O 0.22835 0.39638 0.88034 0.0
C152 C 0.08537 0.45246 0.88251 0.0
C153 C 0.21716 0.35487 0.87632 0.0
C154 C 0.54602 0.19136 0.44245 0.0
C155 C 0.5255 0.19386 0.32728 0.0
O156 O 0.57583 0.16775 0.42771 0.0
Zn157 Zn 0.59277 0.15094 0.37922 0.0
O158 O 0.51634 0.21266 0.42654 0.0
Zn159 Zn 0.53669 0.19416 0.38474 0.0
O160 O 0.52191 0.12208 0.38461 0.0
O161 O 0.58725 0.08662 0.37947 0.0
O162 O 0.50407 0.21644 0.34812 0.0
O163 O 0.55842 0.16829 0.33566 0.0
O164 O 0.65255 0.17529 0.37395 0.0
O165 O 0.60071 0.22802 0.38035 0.0
C166 C 0.54455 0.08508 0.38252 0.0
C167 C 0.64221 0.21679 0.37627 0.0
C168 C 0.80417 0.47143 0.69569 0.0
C169 C 0.80643 0.45136 0.58045 0.0
O170 O 0.82973 0.43854 0.68718 0.0
Zn171 Zn 0.84702 0.40438 0.6435 0.0
O172 O 0.78156 0.49294 0.67493 0.0
Zn173 Zn 0.80378 0.46048 0.63819 0.0
O174 O 0.76996 0.39642 0.64248 0.0
O175 O 0.82272 0.34457 0.64864 0.0
O176 O 0.78518 0.48098 0.59648 0.0
O177 O 0.83009 0.42149 0.59507 0.0
O178 O 0.91133 0.40991 0.64316 0.0
O179 O 0.87586 0.47528 0.63827 0.0
C180 C 0.78121 0.35491 0.64643 0.0
C181 C 0.91286 0.45264 0.64025 0.0
C182 C 0.64217 0.78106 0.14661 0.0
C183 C 0.54451 0.91276 0.14035 0.0
O184 O 0.60068 0.76983 0.14255 0.0
Zn185 Zn 0.53665 0.80368 0.13817 0.0
O186 O 0.65251 0.82256 0.14891 0.0
Zn187 Zn 0.59273 0.8469 0.14365 0.0
O188 O 0.55838 0.82958 0.18723 0.0
O189 O 0.50403 0.78143 0.17481 0.0
O190 O 0.58721 0.91121 0.14338 0.0
O191 O 0.52186 0.87576 0.13828 0.0
O192 O 0.51631 0.78514 0.09638 0.0
O193 O 0.5758 0.83004 0.09517 0.0
C194 C 0.52546 0.80402 0.19563 0.0
C195 C 0.54599 0.80641 0.08045 0.0
C196 C 0.19151 0.54624 0.58048 0.0
C197 C 0.19405 0.52596 0.69568 0.0
O198 O 0.16792 0.57609 0.5952 0.0
Zn199 Zn 0.15116 0.59315 0.64368 0.0
O200 O 0.21283 0.5166 0.59642 0.0
Zn201 Zn 0.19436 0.53704 0.6382 0.0
O202 O 0.12227 0.52229 0.63833 0.0
O203 O 0.08683 0.58766 0.64342 0.0
O204 O 0.21662 0.50448 0.67486 0.0
O205 O 0.1685 0.55888 0.68726 0.0
O206 O 0.17554 0.65293 0.64891 0.0
O207 O 0.22824 0.60105 0.64257 0.0
C208 C 0.08528 0.54495 0.6404 0.0
C209 C 0.21704 0.64256 0.64661 0.0
C210 C 0.45224 0.08521 0.14031 0.0
C211 C 0.3546 0.21695 0.14644 0.0
O212 O 0.4749 0.1222 0.13832 0.0
Zn213 Zn 0.46015 0.19429 0.13823 0.0
O214 O 0.40951 0.08676 0.14322 0.0
Zn215 Zn 0.40402 0.15109 0.14353 0.0
O216 O 0.42126 0.16791 0.09511 0.0
O217 O 0.48075 0.21281 0.09652 0.0
O218 O 0.34422 0.17545 0.14866 0.0
O219 O 0.39612 0.22817 0.1425 0.0
O220 O 0.49257 0.21651 0.17498 0.0
O221 O 0.43813 0.16839 0.18722 0.0
C222 C 0.45117 0.19152 0.08049 0.0
C223 C 0.47102 0.19392 0.19573 0.0
C224 C 0.03862 0.52403 0.13954 0.0
C225 C 0.04058 0.47654 0.13963 0.0
H226 H 0.99665 0.58295 0.13977 0.0
C227 C -4e-05 0.45185 0.13954 0.0
H228 H 0.06927 0.54407 0.13964 0.0
C229 C 0.95831 0.47414 0.13951 0.0
C230 C 0.95635 0.52163 0.13972 0.0
H231 H 0.00027 0.41522 0.13956 0.0
H232 H 0.92766 0.45409 0.13958 0.0
C233 C 0.99696 0.54632 0.13966 0.0
C234 C 0.5241 0.95851 0.63947 0.0
C235 C 0.47662 0.95657 0.63971 0.0
H236 H 0.58303 0.00046 0.63952 0.0
C237 C 0.45193 0.99719 0.63969 0.0
H238 H 0.54415 0.92785 0.63951 0.0
C239 C 0.47424 0.03884 0.63959 0.0
C240 C 0.52172 0.04078 0.63965 0.0
H241 H 0.41531 0.99689 0.63983 0.0
H242 H 0.4542 0.06949 0.63972 0.0
C243 C 0.54641 0.00016 0.63952 0.0
C244 C 0.03861 0.47387 0.38335 0.0
C245 C 0.04055 0.52135 0.38328 0.0
H246 H 0.99666 0.41494 0.3831 0.0
C247 C -7e-05 0.54604 0.38341 0.0
H248 H 0.06926 0.45382 0.38322 0.0
C249 C 0.95828 0.52374 0.38344 0.0
C250 C 0.95634 0.47626 0.3832 0.0
H251 H 0.00023 0.58266 0.38341 0.0
H252 H 0.92763 0.54378 0.38339 0.0
C253 C 0.99696 0.45156 0.38323 0.0
C254 C 0.54653 0.99724 0.88336 0.0
C255 C 0.52183 0.95663 0.88324 0.0
H256 H 0.54428 0.06955 0.88337 0.0
C257 C 0.47435 0.95859 0.88336 0.0
H258 H 0.58315 0.99693 0.88332 0.0
C259 C 0.45205 0.00024 0.88329 0.0
C260 C 0.47675 0.04086 0.88325 0.0
H261 H 0.4543 0.92794 0.88325 0.0
H262 H 0.41543 0.00055 0.8832 0.0
C263 C 0.52423 0.0389 0.88343 0.0
C264 C 0.95899 0.47364 0.88338 0.0
C265 C 0.95703 0.52112 0.88328 0.0
H266 H 0.00096 0.41472 0.88316 0.0
C267 C 0.99764 0.54582 0.88337 0.0
H268 H 0.92834 0.45359 0.88329 0.0
C269 C 0.0393 0.52353 0.8834 0.0
C270 C 0.04126 0.47605 0.8832 0.0
H271 H 0.99734 0.58245 0.88334 0.0
H272 H 0.06995 0.54358 0.88332 0.0
C273 C 0.00065 0.45135 0.88327 0.0
C274 C 0.54564 0.00035 0.38322 0.0
C275 C 0.52095 0.04097 0.3832 0.0
H276 H 0.54338 0.92805 0.38319 0.0
C277 C 0.47347 0.03903 0.38346 0.0
H278 H 0.58226 0.00065 0.38307 0.0
C279 C 0.45116 0.99738 0.38342 0.0
C280 C 0.47585 0.95676 0.38328 0.0
H281 H 0.45342 0.06969 0.38342 0.0
H282 H 0.41454 0.99708 0.38343 0.0
C283 C 0.52334 0.9587 0.38333 0.0
C284 C 0.9589 0.52373 0.63957 0.0
C285 C 0.95696 0.47625 0.63963 0.0
H286 H 0.00085 0.58266 0.63982 0.0
C287 C 0.99758 0.45156 0.63951 0.0
H288 H 0.92825 0.54377 0.6397 0.0
C289 C 0.03923 0.47387 0.63947 0.0
C290 C 0.04117 0.52135 0.63972 0.0
H291 H 0.99729 0.41494 0.63951 0.0
H292 H 0.06989 0.45382 0.63952 0.0
C293 C 0.00055 0.54604 0.63969 0.0
C294 C 0.52331 0.03914 0.13957 0.0
C295 C 0.47583 0.0411 0.13967 0.0
H296 H 0.58223 0.99718 0.13977 0.0
C297 C 0.45113 0.00048 0.13954 0.0
H298 H 0.54336 0.06979 0.1397 0.0
C299 C 0.47343 0.95883 0.13947 0.0
C300 C 0.52091 0.95687 0.13969 0.0
H301 H 0.41451 0.00079 0.13956 0.0
H302 H 0.45338 0.92817 0.13952 0.0
C303 C 0.54561 0.99748 0.13966 0.0
C304 C 0.15322 0.50607 0.2773 0.0
C305 C 0.19414 0.5121 0.29364 0.0
H306 H 0.12121 0.48725 0.23343 0.0
C307 C 0.23519 0.50497 0.27759 0.0
H308 H 0.1212 0.5113 0.28932 0.0
C309 C 0.2352 0.4928 0.24531 0.0
C310 C 0.19416 0.48595 0.2292 0.0
H311 H 0.2671 0.50964 0.28982 0.0
H312 H 0.26712 0.48791 0.23312 0.0
C313 C 0.15322 0.49227 0.24549 0.0
C314 C 0.50516 0.23546 0.74532 0.0
C315 C 0.51256 0.19442 0.72931 0.0
H316 H 0.48786 0.26741 0.78974 0.0
C317 C 0.50679 0.1535 0.7457 0.0
H318 H 0.50963 0.26737 0.73305 0.0
C319 C 0.49297 0.15351 0.7775 0.0
C320 C 0.48637 0.19445 0.79374 0.0
H321 H 0.51222 0.12148 0.73372 0.0
H322 H 0.48814 0.12151 0.78959 0.0
C323 C 0.49298 0.23549 0.77759 0.0
C324 C 0.84361 0.50607 0.24563 0.0
C325 C 0.80268 0.51214 0.2293 0.0
H326 H 0.87562 0.48715 0.28946 0.0
C327 C 0.76164 0.50498 0.24534 0.0
H328 H 0.87562 0.51131 0.23362 0.0
C329 C 0.76163 0.49275 0.2776 0.0
C330 C 0.80267 0.48585 0.29369 0.0
H331 H 0.72972 0.50968 0.23312 0.0
H332 H 0.72971 0.48783 0.28978 0.0
C333 C 0.8436 0.4922 0.27741 0.0
C334 C 0.5068 0.84388 0.77721 0.0
C335 C 0.51255 0.80297 0.7936 0.0
H336 H 0.48812 0.87589 0.73333 0.0
C337 C 0.5051 0.76192 0.77761 0.0
H338 H 0.51226 0.8759 0.78918 0.0
C339 C 0.49289 0.7619 0.74534 0.0
C340 C 0.48629 0.80294 0.7292 0.0
H341 H 0.50955 0.73001 0.78987 0.0
H342 H 0.48773 0.72998 0.7332 0.0
C343 C 0.49294 0.84388 0.74542 0.0
C344 C 0.84435 0.50542 0.7774 0.0
C345 C 0.80342 0.5117 0.79371 0.0
H346 H 0.87635 0.4864 0.73356 0.0
C347 C 0.76237 0.50478 0.77763 0.0
H348 H 0.87637 0.51048 0.78944 0.0
C349 C 0.76237 0.4926 0.74535 0.0
C350 C 0.8034 0.48551 0.72928 0.0
H351 H 0.73046 0.50965 0.78983 0.0
H352 H 0.73044 0.48789 0.73314 0.0
C353 C 0.84434 0.4916 0.7456 0.0
C354 C 0.49074 0.84411 0.27722 0.0
C355 C 0.48504 0.80319 0.29361 0.0
H356 H 0.50936 0.87616 0.23334 0.0
C357 C 0.49251 0.76216 0.27759 0.0
H358 H 0.48525 0.87612 0.2892 0.0
C359 C 0.50471 0.76216 0.24533 0.0
C360 C 0.51125 0.80321 0.22919 0.0
H361 H 0.4881 0.73024 0.28986 0.0
H362 H 0.50989 0.73025 0.23317 0.0
C363 C 0.50458 0.84414 0.24543 0.0
C364 C 0.15397 0.49208 0.77742 0.0
C365 C 0.19491 0.48556 0.79364 0.0
H366 H 0.12192 0.51132 0.73368 0.0
C367 C 0.23594 0.49226 0.77748 0.0
H368 H 0.12196 0.48719 0.78952 0.0
C369 C 0.23591 0.50447 0.74523 0.0
C370 C 0.19486 0.51182 0.72924 0.0
H371 H 0.26787 0.4872 0.78962 0.0
H372 H 0.26782 0.50902 0.73296 0.0
C373 C 0.15395 0.50594 0.74564 0.0
C374 C 0.50446 0.15375 0.27753 0.0
C375 C 0.51128 0.19467 0.29374 0.0
H376 H 0.48503 0.12176 0.23378 0.0
C377 C 0.50487 0.23572 0.27757 0.0
H378 H 0.50914 0.12173 0.28964 0.0
C379 C 0.49267 0.23572 0.24531 0.0
C380 C 0.48505 0.1947 0.22933 0.0
H381 H 0.51016 0.26763 0.2897 0.0
H382 H 0.48836 0.26764 0.23303 0.0
C383 C 0.49062 0.15377 0.24574 0.0
C384 C 0.21693 0.48445 0.99473 0.0
C385 C 0.19295 0.45122 0.9777 0.0
H386 H 0.23529 0.51074 0.04059 0.0
C387 C 0.1693 0.41789 0.99477 0.0
H388 H 0.23551 0.5106 0.98229 0.0
C389 C 0.16917 0.41797 0.02801 0.0
C390 C 0.19268 0.45138 0.04511 0.0
H391 H 0.15051 0.39171 0.98249 0.0
H392 H 0.15029 0.39185 0.04026 0.0
C393 C 0.2168 0.48453 0.02812 0.0
C394 C 0.57967 0.16916 0.49477 0.0
C395 C 0.54626 0.19278 0.47776 0.0
H396 H 0.60595 0.15028 0.54021 0.0
C397 C 0.51313 0.21683 0.49484 0.0
H398 H 0.60578 0.15033 0.48244 0.0
C399 C 0.51323 0.2168 0.52823 0.0
C400 C 0.54646 0.19272 0.54517 0.0
H401 H 0.48692 0.23539 0.48245 0.0
H402 H 0.4871 0.23534 0.54074 0.0
C403 C 0.57977 0.16913 0.528 0.0
C404 C 0.78067 0.51325 0.02819 0.0
C405 C 0.80467 0.54648 0.04522 0.0
H406 H 0.76231 0.48696 0.98234 0.0
C407 C 0.82833 0.5798 0.02814 0.0
H408 H 0.76209 0.48711 0.04063 0.0
C409 C 0.82846 0.57972 0.99491 0.0
C410 C 0.80493 0.54631 0.97781 0.0
H411 H 0.84712 0.60597 0.04043 0.0
H412 H 0.84734 0.60583 0.98266 0.0
C413 C 0.7808 0.51317 0.9948 0.0
C414 C 0.41789 0.82834 0.52815 0.0
C415 C 0.4513 0.80473 0.54517 0.0
H416 H 0.39161 0.84722 0.48271 0.0
C417 C 0.48444 0.78069 0.52808 0.0
H418 H 0.39178 0.84717 0.54048 0.0
C419 C 0.48434 0.78072 0.49469 0.0
C420 C 0.45111 0.80479 0.47775 0.0
H421 H 0.51065 0.76214 0.54047 0.0
H422 H 0.51048 0.76219 0.48218 0.0
C423 C 0.41779 0.82837 0.49492 0.0
C424 C 0.1691 0.57972 0.49491 0.0
C425 C 0.19263 0.54634 0.47777 0.0
H426 H 0.15042 0.60588 0.54045 0.0
C427 C 0.21675 0.51316 0.49472 0.0
H428 H 0.15023 0.60586 0.48269 0.0
C429 C 0.21686 0.51317 0.52812 0.0
C430 C 0.19287 0.54637 0.54518 0.0
H431 H 0.23525 0.48698 0.48223 0.0
H432 H 0.23544 0.487 0.54052 0.0
C433 C 0.16922 0.57973 0.52814 0.0
C434 C 0.48455 0.21692 0.99484 0.0
C435 C 0.45142 0.19284 0.97778 0.0
H436 H 0.51056 0.23551 0.04072 0.0
C437 C 0.41798 0.16929 0.99482 0.0
H438 H 0.51078 0.23543 0.98243 0.0
C439 C 0.41785 0.16934 0.02805 0.0
C440 C 0.45116 0.19294 0.04519 0.0
H441 H 0.39187 0.15045 0.98251 0.0
H442 H 0.39165 0.15053 0.04027 0.0
C443 C 0.48442 0.21697 0.02823 0.0
C444 C 0.78064 0.48439 0.4948 0.0
C445 C 0.80464 0.4512 0.47774 0.0
H446 H 0.76225 0.51058 0.54069 0.0
C447 C 0.82829 0.41784 0.49477 0.0
H448 H 0.76205 0.51056 0.4824 0.0
C449 C 0.82841 0.41785 0.52801 0.0
C450 C 0.80487 0.45122 0.54515 0.0
H451 H 0.84709 0.3917 0.48246 0.0
H452 H 0.84729 0.39171 0.54023 0.0
C453 C 0.78075 0.4844 0.5282 0.0
C454 C 0.51314 0.78083 0.02809 0.0
C455 C 0.54625 0.80492 0.04515 0.0
H456 H 0.48714 0.76222 0.9822 0.0
C457 C 0.57968 0.82849 0.02811 0.0
H458 H 0.48692 0.7623 0.04049 0.0
C459 C 0.57981 0.82844 0.99488 0.0
C460 C 0.54651 0.80482 0.97773 0.0
H461 H 0.60578 0.84734 0.04042 0.0
H462 H 0.60599 0.84726 0.98265 0.0
C463 C 0.51326 0.78078 0.99469 0.0
C464 C 0.29752 0.3315 0.14474 0.0
C465 C 0.25164 0.31981 0.14763 0.0
H466 H 0.36587 0.30833 0.14217 0.0
C467 C 0.23991 0.27399 0.15095 0.0
H468 H 0.30775 0.36647 0.14218 0.0
C469 C 0.27334 0.24054 0.15095 0.0
C470 C 0.31917 0.25224 0.14762 0.0
H471 H 0.20487 0.26385 0.15326 0.0
H472 H 0.26318 0.20551 0.15325 0.0
C473 C 0.33088 0.29811 0.14473 0.0
C474 C 0.70006 0.33115 0.64473 0.0
C475 C 0.74594 0.31946 0.64759 0.0
H476 H 0.63172 0.30798 0.64218 0.0
C477 C 0.75768 0.27363 0.65089 0.0
H478 H 0.68982 0.36613 0.6422 0.0
C479 C 0.72426 0.24019 0.65088 0.0
C480 C 0.67843 0.25189 0.64757 0.0
H481 H 0.79272 0.2635 0.65317 0.0
H482 H 0.73442 0.20515 0.65316 0.0
C483 C 0.6667 0.29776 0.64472 0.0
C484 C 0.75687 0.72408 0.1512 0.0
C485 C 0.74518 0.67825 0.14779 0.0
H486 H 0.73356 0.79254 0.15357 0.0
C487 C 0.69931 0.66654 0.14484 0.0
H488 H 0.7919 0.73423 0.15356 0.0
C489 C 0.66593 0.69991 0.14484 0.0
C490 C 0.67761 0.74578 0.1478 0.0
H491 H 0.6891 0.63156 0.14222 0.0
H492 H 0.63096 0.68967 0.14223 0.0
C493 C 0.72342 0.7575 0.15121 0.0
C494 C 0.24064 0.7238 0.65124 0.0
C495 C 0.25233 0.67798 0.64781 0.0
H496 H 0.26396 0.79226 0.65364 0.0
C497 C 0.2982 0.66626 0.64484 0.0
H498 H 0.20562 0.73396 0.65362 0.0
C499 C 0.33158 0.69962 0.64486 0.0
C500 C 0.31991 0.7455 0.64784 0.0
H501 H 0.30841 0.63128 0.64221 0.0
H502 H 0.36655 0.68938 0.64223 0.0
C503 C 0.27409 0.75722 0.65126 0.0
C504 C 0.33085 0.69979 0.3782 0.0
C505 C 0.31914 0.74566 0.37535 0.0
H506 H 0.30772 0.63143 0.38073 0.0
C507 C 0.27331 0.75737 0.37204 0.0
H508 H 0.36583 0.68956 0.38074 0.0
C509 C 0.23988 0.72394 0.37204 0.0
C510 C 0.2516 0.67811 0.37533 0.0
H511 H 0.26315 0.79241 0.36976 0.0
H512 H 0.20484 0.73408 0.36976 0.0
C513 C 0.29748 0.66641 0.3782 0.0
C514 C 0.27422 0.2402 0.87173 0.0
C515 C 0.32004 0.25193 0.87513 0.0
H516 H 0.20575 0.26346 0.86938 0.0
C517 C 0.33171 0.29781 0.87808 0.0
H518 H 0.2641 0.20516 0.86937 0.0
C519 C 0.29832 0.33117 0.87809 0.0
C520 C 0.25246 0.31945 0.87514 0.0
H521 H 0.36668 0.30805 0.88069 0.0
H522 H 0.30853 0.36615 0.8807 0.0
C523 C 0.24077 0.27362 0.87173 0.0
C524 C 0.66595 0.29794 0.37807 0.0
C525 C 0.67764 0.25207 0.37508 0.0
H526 H 0.68911 0.36628 0.38071 0.0
C527 C 0.72346 0.24035 0.37165 0.0
H528 H 0.63098 0.30817 0.3807 0.0
C529 C 0.7569 0.27378 0.37166 0.0
C530 C 0.7452 0.31961 0.37509 0.0
H531 H 0.7336 0.20532 0.36927 0.0
H532 H 0.79193 0.26363 0.36928 0.0
C533 C 0.69933 0.33131 0.37807 0.0
C534 C 0.75772 0.7237 0.87194 0.0
C535 C 0.74598 0.67788 0.87528 0.0
H536 H 0.73446 0.79218 0.86963 0.0
C537 C 0.7001 0.6662 0.87818 0.0
H538 H 0.79276 0.73382 0.86963 0.0
C539 C 0.66674 0.69959 0.87818 0.0
C540 C 0.67847 0.74546 0.87529 0.0
H541 H 0.68986 0.63122 0.88074 0.0
H542 H 0.63176 0.68938 0.88075 0.0
C543 C 0.7243 0.75715 0.87195 0.0
loop_
_geom_bond_atom_site_label_1
_geom_bond_atom_site_label_2
_geom_bond_distance
_geom_bond_site_symmetry_2
_ccdc_geom_bond_type
C0 O2 1.247 . S
C0 O4 1.258 . S
C1 O8 1.247 . S
C1 O9 1.258 . S
O2 C0 1.247 . S
O2 Zn3 2.028 . S
Zn3 O2 2.028 . S
Zn3 O7 2.035 . S
Zn3 O9 2.035 . S
Zn3 O10 2.028 . S
O4 C0 1.258 . S
O4 Zn5 2.035 . S
Zn5 O4 2.035 . S
Zn5 O6 2.028 . S
Zn5 O8 2.028 . S
Zn5 O11 2.035 . S
O6 Zn5 2.028 . S
O6 C12 1.247 . S
O7 Zn3 2.035 . S
O7 C12 1.258 . S
O8 C1 1.247 . S
O8 Zn5 2.028 . S
O9 C1 1.258 . S
O9 Zn3 2.035 . S
O10 Zn3 2.028 . S
O10 C13 1.247 . S
O11 Zn5 2.035 . S
O11 C13 1.258 . S
C12 O6 1.247 . S
C12 O7 1.258 . S
C13 O10 1.247 . S
C13 O11 1.258 . S
C14 O16 1.247 . S
C14 O18 1.258 . S
C15 O22 1.247 . S
C15 O23 1.258 . S
O16 C14 1.247 . S
O16 Zn17 2.028 . S
Zn17 O16 2.028 . S
Zn17 O21 2.035 . S
Zn17 O23 2.035 . S
Zn17 O24 2.028 . S
O18 C14 1.258 . S
O18 Zn19 2.035 . S
Zn19 O18 2.035 . S
Zn19 O20 2.028 . S
Zn19 O22 2.028 . S
Zn19 O25 2.035 . S
O20 Zn19 2.028 . S
O20 C26 1.247 . S
O21 Zn17 2.035 . S
O21 C26 1.258 . S
O22 C15 1.247 . S
O22 Zn19 2.028 . S
O23 C15 1.258 . S
O23 Zn17 2.035 . S
O24 Zn17 2.028 . S
O24 C27 1.247 . S
O25 Zn19 2.035 . S
O25 C27 1.258 . S
C26 O20 1.247 . S
C26 O21 1.258 . S
C27 O24 1.247 . S
C27 O25 1.258 . S
C28 O30 1.247 . S
C28 O32 1.258 . S
C29 O36 1.247 . S
C29 O37 1.258 . S
O30 C28 1.247 . S
O30 Zn31 2.028 . S
Zn31 O30 2.028 . S
Zn31 O35 2.035 . S
Zn31 O37 2.035 . S
Zn31 O38 2.028 . S
O32 C28 1.258 . S
O32 Zn33 2.035 . S
Zn33 O32 2.035 . S
Zn33 O34 2.028 . S
Zn33 O36 2.028 . S
Zn33 O39 2.035 . S
O34 Zn33 2.028 . S
O34 C40 1.247 . S
O35 Zn31 2.035 . S
O35 C40 1.258 . S
O36 C29 1.247 . S
O36 Zn33 2.028 . S
O37 C29 1.258 . S
O37 Zn31 2.035 . S
O38 Zn31 2.028 . S
O38 C41 1.247 . S
O39 Zn33 2.035 . S
O39 C41 1.258 . S
C40 O34 1.247 . S
C40 O35 1.258 . S
C41 O38 1.247 . S
C41 O39 1.258 . S
C42 O44 1.247 . S
C42 O46 1.258 . S
C43 O50 1.247 . S
C43 O51 1.258 . S
O44 C42 1.247 . S
O44 Zn45 2.028 . S
Zn45 O44 2.028 . S
Zn45 O49 2.035 . S
Zn45 O51 2.035 . S
Zn45 O52 2.028 . S
O46 C42 1.258 . S
O46 Zn47 2.035 . S
Zn47 O46 2.035 . S
Zn47 O48 2.028 . S
Zn47 O50 2.028 . S
Zn47 O53 2.035 . S
O48 Zn47 2.028 . S
O48 C54 1.247 . S
O49 Zn45 2.035 . S
O49 C54 1.258 . S
O50 C43 1.247 . S
O50 Zn47 2.028 . S
O51 C43 1.258 . S
O51 Zn45 2.035 . S
O52 Zn45 2.028 . S
O52 C55 1.247 . S
O53 Zn47 2.035 . S
O53 C55 1.258 . S
C54 O48 1.247 . S
C54 O49 1.258 . S
C55 O52 1.247 . S
C55 O53 1.258 . S
C56 O58 1.247 . S
C56 O60 1.258 . S
C57 O64 1.247 . S
C57 O65 1.258 . S
O58 C56 1.247 . S
O58 Zn59 2.028 . S
Zn59 O58 2.028 . S
Zn59 O63 2.035 . S
Zn59 O65 2.035 . S
Zn59 O66 2.028 . S
O60 C56 1.258 . S
O60 Zn61 2.035 . S
Zn61 O60 2.035 . S
Zn61 O62 2.028 . S
Zn61 O64 2.028 . S
Zn61 O67 2.035 . S
O62 Zn61 2.028 . S
O62 C68 1.247 . S
O63 Zn59 2.035 . S
O63 C68 1.258 . S
O64 C57 1.247 . S
O64 Zn61 2.028 . S
O65 C57 1.258 . S
O65 Zn59 2.035 . S
O66 Zn59 2.028 . S
O66 C69 1.247 . S
O67 Zn61 2.035 . S
O67 C69 1.258 . S
C68 O62 1.247 . S
C68 O63 1.258 . S
C69 O66 1.247 . S
C69 O67 1.258 . S
C70 O72 1.247 . S
C70 O74 1.258 . S
C71 O78 1.247 . S
C71 O79 1.258 . S
O72 C70 1.247 . S
O72 Zn73 2.028 . S
Zn73 O72 2.028 . S
Zn73 O77 2.035 . S
Zn73 O79 2.035 . S
Zn73 O80 2.028 . S
O74 C70 1.258 . S
O74 Zn75 2.035 . S
Zn75 O74 2.035 . S
Zn75 O76 2.028 . S
Zn75 O78 2.028 . S
Zn75 O81 2.035 . S
O76 Zn75 2.028 . S
O76 C82 1.247 . S
O77 Zn73 2.035 . S
O77 C82 1.258 . S
O78 C71 1.247 . S
O78 Zn75 2.028 . S
O79 C71 1.258 . S
O79 Zn73 2.035 . S
O80 Zn73 2.028 . S
O80 C83 1.247 . S
O81 Zn75 2.035 . S
O81 C83 1.258 . S
C82 O76 1.247 . S
C82 O77 1.258 . S
C83 O80 1.247 . S
C83 O81 1.258 . S
C84 O86 1.247 . S
C84 O88 1.258 . S
C85 O92 1.247 . S
C85 O93 1.258 . S
O86 C84 1.247 . S
O86 Zn87 2.028 . S
Zn87 O86 2.028 . S
Zn87 O91 2.035 . S
Zn87 O93 2.035 . S
Zn87 O94 2.028 . S
O88 C84 1.258 . S
O88 Zn89 2.035 . S
Zn89 O88 2.035 . S
Zn89 O90 2.028 . S
Zn89 O92 2.028 . S
Zn89 O95 2.035 . S
O90 Zn89 2.028 . S
O90 C96 1.247 . S
O91 Zn87 2.035 . S
O91 C96 1.258 . S
O92 C85 1.247 . S
O92 Zn89 2.028 . S
O93 C85 1.258 . S
O93 Zn87 2.035 . S
O94 Zn87 2.028 . S
O94 C97 1.247 . S
O95 Zn89 2.035 . S
O95 C97 1.258 . S
C96 O90 1.247 . S
C96 O91 1.258 . S
C97 O94 1.247 . S
C97 O95 1.258 . S
C98 O100 1.247 . S
C98 O102 1.258 . S
C99 O106 1.247 . S
C99 O107 1.258 . S
O100 C98 1.247 . S
O100 Zn101 2.028 . S
Zn101 O100 2.028 . S
Zn101 O105 2.035 . S
Zn101 O107 2.035 . S
Zn101 O108 2.028 . S
O102 C98 1.258 . S
O102 Zn103 2.035 . S
Zn103 O102 2.035 . S
Zn103 O104 2.028 . S
Zn103 O106 2.028 . S
Zn103 O109 2.035 . S
O104 Zn103 2.028 . S
O104 C110 1.247 . S
O105 Zn101 2.035 . S
O105 C110 1.258 . S
O106 C99 1.247 . S
O106 Zn103 2.028 . S
O107 C99 1.258 . S
O107 Zn101 2.035 . S
O108 Zn101 2.028 . S
O108 C111 1.247 . S
O109 Zn103 2.035 . S
O109 C111 1.258 . S
C110 O104 1.247 . S
C110 O105 1.258 . S
C111 O108 1.247 . S
C111 O109 1.258 . S
C112 O114 1.247 . S
C112 O116 1.258 . S
C113 O120 1.247 . S
C113 O121 1.258 . S
O114 C112 1.247 . S
O114 Zn115 2.028 . S
Zn115 O114 2.028 . S
Zn115 O119 2.035 . S
Zn115 O121 2.035 . S
Zn115 O122 2.028 . S
O116 C112 1.258 . S
O116 Zn117 2.035 . S
Zn117 O116 2.035 . S
Zn117 O118 2.028 . S
Zn117 O120 2.028 . S
Zn117 O123 2.035 . S
O118 Zn117 2.028 . S
O118 C124 1.247 . S
O119 Zn115 2.035 . S
O119 C124 1.258 . S
O120 C113 1.247 . S
O120 Zn117 2.028 . S
O121 C113 1.258 . S
O121 Zn115 2.035 . S
O122 Zn115 2.028 . S
O122 C125 1.247 . S
O123 Zn117 2.035 . S
O123 C125 1.258 . S
C124 O118 1.247 . S
C124 O119 1.258 . S
C125 O122 1.247 . S
C125 O123 1.258 . S
C126 O128 1.247 . S
C126 O130 1.258 . S
C127 O134 1.247 . S
C127 O135 1.258 . S
O128 C126 1.247 . S
O128 Zn129 2.028 . S
Zn129 O128 2.028 . S
Zn129 O133 2.035 . S
Zn129 O135 2.035 . S
Zn129 O136 2.028 . S
O130 C126 1.258 . S
O130 Zn131 2.035 . S
Zn131 O130 2.035 . S
Zn131 O132 2.028 . S
Zn131 O134 2.028 . S
Zn131 O137 2.035 . S
O132 Zn131 2.028 . S
O132 C138 1.247 . S
O133 Zn129 2.035 . S
O133 C138 1.258 . S
O134 C127 1.247 . S
O134 Zn131 2.028 . S
O135 C127 1.258 . S
O135 Zn129 2.035 . S
O136 Zn129 2.028 . S
O136 C139 1.247 . S
O137 Zn131 2.035 . S
O137 C139 1.258 . S
C138 O132 1.247 . S
C138 O133 1.258 . S
C139 O136 1.247 . S
C139 O137 1.258 . S
C140 O142 1.247 . S
C140 O144 1.258 . S
C141 O148 1.247 . S
C141 O149 1.258 . S
O142 C140 1.247 . S
O142 Zn143 2.028 . S
Zn143 O142 2.028 . S
Zn143 O147 2.035 . S
Zn143 O149 2.035 . S
Zn143 O150 2.028 . S
O144 C140 1.258 . S
O144 Zn145 2.035 . S
Zn145 O144 2.035 . S
Zn145 O146 2.028 . S
Zn145 O148 2.028 . S
Zn145 O151 2.035 . S
O146 Zn145 2.028 . S
O146 C152 1.247 . S
O147 Zn143 2.035 . S
O147 C152 1.258 . S
O148 C141 1.247 . S
O148 Zn145 2.028 . S
O149 C141 1.258 . S
O149 Zn143 2.035 . S
O150 Zn143 2.028 . S
O150 C153 1.247 . S
O151 Zn145 2.035 . S
O151 C153 1.258 . S
C152 O146 1.247 . S
C152 O147 1.258 . S
C153 O150 1.247 . S
C153 O151 1.258 . S
C154 O156 1.247 . S
C154 O158 1.258 . S
C155 O162 1.247 . S
C155 O163 1.258 . S
O156 C154 1.247 . S
O156 Zn157 2.028 . S
Zn157 O156 2.028 . S
Zn157 O161 2.035 . S
Zn157 O163 2.035 . S
Zn157 O164 2.028 . S
O158 C154 1.258 . S
O158 Zn159 2.035 . S
Zn159 O158 2.035 . S
Zn159 O160 2.028 . S
Zn159 O162 2.028 . S
Zn159 O165 2.035 . S
O160 Zn159 2.028 . S
O160 C166 1.247 . S
O161 Zn157 2.035 . S
O161 C166 1.258 . S
O162 C155 1.247 . S
O162 Zn159 2.028 . S
O163 C155 1.258 . S
O163 Zn157 2.035 . S
O164 Zn157 2.028 . S
O164 C167 1.247 . S
O165 Zn159 2.035 . S
O165 C167 1.258 . S
C166 O160 1.247 . S
C166 O161 1.258 . S
C167 O164 1.247 . S
C167 O165 1.258 . S
C168 O170 1.247 . S
C168 O172 1.258 . S
C169 O176 1.247 . S
C169 O177 1.258 . S
O170 C168 1.247 . S
O170 Zn171 2.028 . S
Zn171 O170 2.028 . S
Zn171 O175 2.035 . S
Zn171 O177 2.035 . S
Zn171 O178 2.028 . S
O172 C168 1.258 . S
O172 Zn173 2.035 . S
Zn173 O172 2.035 . S
Zn173 O174 2.028 . S
Zn173 O176 2.028 . S
Zn173 O179 2.035 . S
O174 Zn173 2.028 . S
O174 C180 1.247 . S
O175 Zn171 2.035 . S
O175 C180 1.258 . S
O176 C169 1.247 . S
O176 Zn173 2.028 . S
O177 C169 1.258 . S
O177 Zn171 2.035 . S
O178 Zn171 2.028 . S
O178 C181 1.247 . S
O179 Zn173 2.035 . S
O179 C181 1.258 . S
C180 O174 1.247 . S
C180 O175 1.258 . S
C181 O178 1.247 . S
C181 O179 1.258 . S
C182 O184 1.247 . S
C182 O186 1.258 . S
C183 O190 1.247 . S
C183 O191 1.258 . S
O184 C182 1.247 . S
O184 Zn185 2.028 . S
Zn185 O184 2.028 . S
Zn185 O189 2.035 . S
Zn185 O191 2.035 . S
Zn185 O192 2.028 . S
O186 C182 1.258 . S
O186 Zn187 2.035 . S
Zn187 O186 2.035 . S
Zn187 O188 2.028 . S
Zn187 O190 2.028 . S
Zn187 O193 2.035 . S
O188 Zn187 2.028 . S
O188 C194 1.247 . S
O189 Zn185 2.035 . S
O189 C194 1.258 . S
O190 C183 1.247 . S
O190 Zn187 2.028 . S
O191 C183 1.258 . S
O191 Zn185 2.035 . S
O192 Zn185 2.028 . S
O192 C195 1.247 . S
O193 Zn187 2.035 . S
O193 C195 1.258 . S
C194 O188 1.247 . S
C194 O189 1.258 . S
C195 O192 1.247 . S
C195 O193 1.258 . S
C196 O198 1.247 . S
C196 O200 1.258 . S
C197 O204 1.247 . S
C197 O205 1.258 . S
O198 C196 1.247 . S
O198 Zn199 2.028 . S
Zn199 O198 2.028 . S
Zn199 O203 2.035 . S
Zn199 O205 2.035 . S
Zn199 O206 2.028 . S
O200 C196 1.258 . S
O200 Zn201 2.035 . S
Zn201 O200 2.035 . S
Zn201 O202 2.028 . S
Zn201 O204 2.028 . S
Zn201 O207 2.035 . S
O202 Zn201 2.028 . S
O202 C208 1.247 . S
O203 Zn199 2.035 . S
O203 C208 1.258 . S
O204 C197 1.247 . S
O204 Zn201 2.028 . S
O205 C197 1.258 . S
O205 Zn199 2.035 . S
O206 Zn199 2.028 . S
O206 C209 1.247 . S
O207 Zn201 2.035 . S
O207 C209 1.258 . S
C208 O202 1.247 . S
C208 O203 1.258 . S
C209 O206 1.247 . S
C209 O207 1.258 . S
C210 O212 1.247 . S
C210 O214 1.258 . S
C211 O218 1.247 . S
C211 O219 1.258 . S
O212 C210 1.247 . S
O212 Zn213 2.028 . S
Zn213 O212 2.028 . S
Zn213 O217 2.035 . S
Zn213 O219 2.035 . S
Zn213 O220 2.028 . S
O214 C210 1.258 . S
O214 Zn215 2.035 . S
Zn215 O214 2.035 . S
Zn215 O216 2.028 . S
Zn215 O218 2.028 . S
Zn215 O221 2.035 . S
O216 Zn215 2.028 . S
O216 C222 1.247 . S
O217 Zn213 2.035 . S
O217 C222 1.258 . S
O218 C211 1.247 . S
O218 Zn215 2.028 . S
O219 C211 1.258 . S
O219 Zn213 2.035 . S
O220 Zn213 2.028 . S
O220 C223 1.247 . S
O221 Zn215 2.035 . S
O221 C223 1.258 . S
C222 O216 1.247 . S
C222 O217 1.258 . S
C223 O220 1.247 . S
C223 O221 1.258 . S
C224 C225 1.387 . S
C224 H228 0.950 . S
C224 C233 1.390 1_455 S
C225 C224 1.387 . S
C225 C227 1.387 . S
H226 C233 0.950 . S
C227 C225 1.387 . S
C227 C229 1.390 1_455 S
C227 H231 0.950 . S
H228 C224 0.950 . S
C229 C227 1.390 1_655 S
C229 C230 1.387 . S
C229 H232 0.950 . S
C230 C229 1.387 . S
C230 C233 1.387 . S
H231 C227 0.950 . S
H232 C229 0.950 . S
C233 C224 1.390 1_655 S
C233 H226 0.950 . S
C233 C230 1.387 . S
C234 C235 1.387 . S
C234 H238 0.950 . S
C234 C243 1.390 1_565 S
C235 C234 1.387 . S
C235 C237 1.387 . S
H236 C243 0.950 . S
C237 C235 1.387 . S
C237 C239 1.390 1_565 S
C237 H241 0.950 . S
H238 C234 0.950 . S
C239 C237 1.390 1_545 S
C239 C240 1.387 . S
C239 H242 0.950 . S
C240 C239 1.387 . S
C240 C243 1.387 . S
H241 C237 0.950 . S
H242 C239 0.950 . S
C243 C234 1.390 1_545 S
C243 H236 0.950 . S
C243 C240 1.387 . S
C244 C245 1.387 . S
C244 H248 0.950 . S
C244 C253 1.390 1_455 S
C245 C244 1.387 . S
C245 C247 1.387 . S
H246 C253 0.950 . S
C247 C245 1.387 . S
C247 C249 1.390 1_455 S
C247 H251 0.950 . S
H248 C244 0.950 . S
C249 C247 1.390 1_655 S
C249 C250 1.387 . S
C249 H252 0.950 . S
C250 C249 1.387 . S
C250 C253 1.387 . S
H251 C247 0.950 . S
H252 C249 0.950 . S
C253 C244 1.390 1_655 S
C253 H246 0.950 . S
C253 C250 1.387 . S
C254 C255 1.387 . S
C254 H258 0.950 . S
C254 C263 1.390 1_565 S
C255 C254 1.387 . S
C255 C257 1.387 . S
H256 C263 0.950 . S
C257 C255 1.387 . S
C257 C259 1.390 1_565 S
C257 H261 0.950 . S
H258 C254 0.950 . S
C259 C257 1.390 1_545 S
C259 C260 1.387 . S
C259 H262 0.950 . S
C260 C259 1.387 . S
C260 C263 1.387 . S
H261 C257 0.950 . S
H262 C259 0.950 . S
C263 C254 1.390 1_545 S
C263 H256 0.950 . S
C263 C260 1.387 . S
C264 C265 1.387 . S
C264 H268 0.950 . S
C264 C273 1.390 1_655 S
C265 C264 1.387 . S
C265 C267 1.387 . S
H266 C273 0.950 . S
C267 C265 1.387 . S
C267 C269 1.390 1_655 S
C267 H271 0.950 . S
H268 C264 0.950 . S
C269 C267 1.390 1_455 S
C269 C270 1.387 . S
C269 H272 0.950 . S
C270 C269 1.387 . S
C270 C273 1.387 . S
H271 C267 0.950 . S
H272 C269 0.950 . S
C273 C264 1.390 1_455 S
C273 H266 0.950 . S
C273 C270 1.387 . S
C274 C275 1.387 . S
C274 H278 0.950 . S
C274 C283 1.390 1_545 S
C275 C274 1.387 . S
C275 C277 1.387 . S
H276 C283 0.950 . S
C277 C275 1.387 . S
C277 C279 1.390 1_545 S
C277 H281 0.950 . S
H278 C274 0.950 . S
C279 C277 1.390 1_565 S
C279 C280 1.387 . S
C279 H282 0.950 . S
C280 C279 1.387 . S
C280 C283 1.387 . S
H281 C277 0.950 . S
H282 C279 0.950 . S
C283 C274 1.390 1_565 S
C283 H276 0.950 . S
C283 C280 1.387 . S
C284 C285 1.387 . S
C284 H288 0.950 . S
C284 C293 1.390 1_655 S
C285 C284 1.387 . S
C285 C287 1.387 . S
H286 C293 0.950 . S
C287 C285 1.387 . S
C287 C289 1.390 1_655 S
C287 H291 0.950 . S
H288 C284 0.950 . S
C289 C287 1.390 1_455 S
C289 C290 1.387 . S
C289 H292 0.950 . S
C290 C289 1.387 . S
C290 C293 1.387 . S
H291 C287 0.950 . S
H292 C289 0.950 . S
C293 C284 1.390 1_455 S
C293 H286 0.950 . S
C293 C290 1.387 . S
C294 C295 1.387 . S
C294 H298 0.950 . S
C294 C303 1.390 1_545 S
C295 C294 1.387 . S
C295 C297 1.387 . S
H296 C303 0.950 . S
C297 C295 1.387 . S
C297 C299 1.390 1_545 S
C297 H301 0.950 . S
H298 C294 0.950 . S
C299 C297 1.390 1_565 S
C299 C300 1.387 . S
C299 H302 0.950 . S
C300 C299 1.387 . S
C300 C303 1.387 . S
H301 C297 0.950 . S
H302 C299 0.950 . S
C303 C294 1.390 1_565 S
C303 H296 0.950 . S
C303 C300 1.387 . S
C304 C305 1.387 . S
C304 H308 0.950 . S
C304 C313 1.390 . S
C305 C304 1.387 . S
C305 C307 1.387 . S
H306 C313 0.950 . S
C307 C305 1.387 . S
C307 C309 1.390 . S
C307 H311 0.950 . S
H308 C304 0.950 . S
C309 C307 1.390 . S
C309 C310 1.387 . S
C309 H312 0.950 . S
C310 C309 1.387 . S
C310 C313 1.387 . S
H311 C307 0.950 . S
H312 C309 0.950 . S
C313 C304 1.390 . S
C313 H306 0.950 . S
C313 C310 1.387 . S
C314 C315 1.387 . S
C314 H318 0.950 . S
C314 C323 1.390 . S
C315 C314 1.387 . S
C315 C317 1.387 . S
H316 C323 0.950 . S
C317 C315 1.387 . S
C317 C319 1.390 . S
C317 H321 0.950 . S
H318 C314 0.950 . S
C319 C317 1.390 . S
C319 C320 1.387 . S
C319 H322 0.950 . S
C320 C319 1.387 . S
C320 C323 1.387 . S
H321 C317 0.950 . S
H322 C319 0.950 . S
C323 C314 1.390 . S
C323 H316 0.950 . S
C323 C320 1.387 . S
C324 C325 1.387 . S
C324 H328 0.950 . S
C324 C333 1.390 . S
C325 C324 1.387 . S
C325 C327 1.387 . S
H326 C333 0.950 . S
C327 C325 1.387 . S
C327 C329 1.390 . S
C327 H331 0.950 . S
H328 C324 0.950 . S
C329 C327 1.390 . S
C329 C330 1.387 . S
C329 H332 0.950 . S
C330 C329 1.387 . S
C330 C333 1.387 . S
H331 C327 0.950 . S
H332 C329 0.950 . S
C333 C324 1.390 . S
C333 H326 0.950 . S
C333 C330 1.387 . S
C334 C335 1.387 . S
C334 H338 0.950 . S
C334 C343 1.390 . S
C335 C334 1.387 . S
C335 C337 1.387 . S
H336 C343 0.950 . S
C337 C335 1.387 . S
C337 C339 1.390 . S
C337 H341 0.950 . S
H338 C334 0.950 . S
C339 C337 1.390 . S
C339 C340 1.387 . S
C339 H342 0.950 . S
C340 C339 1.387 . S
C340 C343 1.387 . S
H341 C337 0.950 . S
H342 C339 0.950 . S
C343 C334 1.390 . S
C343 H336 0.950 . S
C343 C340 1.387 . S
C344 C345 1.387 . S
C344 H348 0.950 . S
C344 C353 1.390 . S
C345 C344 1.387 . S
C345 C347 1.387 . S
H346 C353 0.950 . S
C347 C345 1.387 . S
C347 C349 1.390 . S
C347 H351 0.950 . S
H348 C344 0.950 . S
C349 C347 1.390 . S
C349 C350 1.387 . S
C349 H352 0.950 . S
C350 C349 1.387 . S
C350 C353 1.387 . S
H351 C347 0.950 . S
H352 C349 0.950 . S
C353 C344 1.390 . S
C353 H346 0.950 . S
C353 C350 1.387 . S
C354 C355 1.387 . S
C354 H358 0.950 . S
C354 C363 1.390 . S
C355 C354 1.387 . S
C355 C357 1.387 . S
H356 C363 0.950 . S
C357 C355 1.387 . S
C357 C359 1.390 . S
C357 H361 0.950 . S
H358 C354 0.950 . S
C359 C357 1.390 . S
C359 C360 1.387 . S
C359 H362 0.950 . S
C360 C359 1.387 . S
C360 C363 1.387 . S
H361 C357 0.950 . S
H362 C359 0.950 . S
C363 C354 1.390 . S
C363 H356 0.950 . S
C363 C360 1.387 . S
C364 C365 1.387 . S
C364 H368 0.950 . S
C364 C373 1.390 . S
C365 C364 1.387 . S
C365 C367 1.387 . S
H366 C373 0.950 . S
C367 C365 1.387 . S
C367 C369 1.390 . S
C367 H371 0.950 . S
H368 C364 0.950 . S
C369 C367 1.390 . S
C369 C370 1.387 . S
C369 H372 0.950 . S
C370 C369 1.387 . S
C370 C373 1.387 . S
H371 C367 0.950 . S
H372 C369 0.950 . S
C373 C364 1.390 . S
C373 H366 0.950 . S
C373 C370 1.387 . S
C374 C375 1.387 . S
C374 H378 0.950 . S
C374 C383 1.390 . S
C375 C374 1.387 . S
C375 C377 1.387 . S
H376 C383 0.950 . S
C377 C375 1.387 . S
C377 C379 1.390 . S
C377 H381 0.950 . S
H378 C374 0.950 . S
C379 C377 1.390 . S
C379 C380 1.387 . S
C379 H382 0.950 . S
C380 C379 1.387 . S
C380 C383 1.387 . S
H381 C377 0.950 . S
H382 C379 0.950 . S
C383 C374 1.390 . S
C383 H376 0.950 . S
C383 C380 1.387 . S
C384 C385 1.387 . S
C384 H388 0.950 . S
C384 C393 1.390 1_556 S
C385 C384 1.387 . S
C385 C387 1.387 . S
H386 C393 0.950 . S
C387 C385 1.387 . S
C387 C389 1.390 1_556 S
C387 H391 0.950 . S
H388 C384 0.950 . S
C389 C387 1.390 1_554 S
C389 C390 1.387 . S
C389 H392 0.950 . S
C390 C389 1.387 . S
C390 C393 1.387 . S
H391 C387 0.950 . S
H392 C389 0.950 . S
C393 C384 1.390 1_554 S
C393 H386 0.950 . S
C393 C390 1.387 . S
C394 C395 1.387 . S
C394 H398 0.950 . S
C394 C403 1.390 . S
C395 C394 1.387 . S
C395 C397 1.387 . S
H396 C403 0.950 . S
C397 C395 1.387 . S
C397 C399 1.390 . S
C397 H401 0.950 . S
H398 C394 0.950 . S
C399 C397 1.390 . S
C399 C400 1.387 . S
C399 H402 0.950 . S
C400 C399 1.387 . S
C400 C403 1.387 . S
H401 C397 0.950 . S
H402 C399 0.950 . S
C403 C394 1.390 . S
C403 H396 0.950 . S
C403 C400 1.387 . S
C404 C405 1.387 . S
C404 H408 0.950 . S
C404 C413 1.390 1_554 S
C405 C404 1.387 . S
C405 C407 1.387 . S
H406 C413 0.950 . S
C407 C405 1.387 . S
C407 C409 1.390 1_554 S
C407 H411 0.950 . S
H408 C404 0.950 . S
C409 C407 1.390 1_556 S
C409 C410 1.387 . S
C409 H412 0.950 . S
C410 C409 1.387 . S
C410 C413 1.387 . S
H411 C407 0.950 . S
H412 C409 0.950 . S
C413 C404 1.390 1_556 S
C413 H406 0.950 . S
C413 C410 1.387 . S
C414 C415 1.387 . S
C414 H418 0.950 . S
C414 C423 1.390 . S
C415 C414 1.387 . S
C415 C417 1.387 . S
H416 C423 0.950 . S
C417 C415 1.387 . S
C417 C419 1.390 . S
C417 H421 0.950 . S
H418 C414 0.950 . S
C419 C417 1.390 . S
C419 C420 1.387 . S
C419 H422 0.950 . S
C420 C419 1.387 . S
C420 C423 1.387 . S
H421 C417 0.950 . S
H422 C419 0.950 . S
C423 C414 1.390 . S
C423 H416 0.950 . S
C423 C420 1.387 . S
C424 C425 1.387 . S
C424 H428 0.950 . S
C424 C433 1.390 . S
C425 C424 1.387 . S
C425 C427 1.387 . S
H426 C433 0.950 . S
C427 C425 1.387 . S
C427 C429 1.390 . S
C427 H431 0.950 . S
H428 C424 0.950 . S
C429 C427 1.390 . S
C429 C430 1.387 . S
C429 H432 0.950 . S
C430 C429 1.387 . S
C430 C433 1.387 . S
H431 C427 0.950 . S
H432 C429 0.950 . S
C433 C424 1.390 . S
C433 H426 0.950 . S
C433 C430 1.387 . S
C434 C435 1.387 . S
C434 H438 0.950 . S
C434 C443 1.390 1_556 S
C435 C434 1.387 . S
C435 C437 1.387 . S
H436 C443 0.950 . S
C437 C435 1.387 . S
C437 C439 1.390 1_556 S
C437 H441 0.950 . S
H438 C434 0.950 . S
C439 C437 1.390 1_554 S
C439 C440 1.387 . S
C439 H442 0.950 . S
C440 C439 1.387 . S
C440 C443 1.387 . S
H441 C437 0.950 . S
H442 C439 0.950 . S
C443 C434 1.390 1_554 S
C443 H436 0.950 . S
C443 C440 1.387 . S
C444 C445 1.387 . S
C444 H448 0.950 . S
C444 C453 1.390 . S
C445 C444 1.387 . S
C445 C447 1.387 . S
H446 C453 0.950 . S
C447 C445 1.387 . S
C447 C449 1.390 . S
C447 H451 0.950 . S
H448 C444 0.950 . S
C449 C447 1.390 . S
C449 C450 1.387 . S
C449 H452 0.950 . S
C450 C449 1.387 . S
C450 C453 1.387 . S
H451 C447 0.950 . S
H452 C449 0.950 . S
C453 C444 1.390 . S
C453 H446 0.950 . S
C453 C450 1.387 . S
C454 C455 1.387 . S
C454 H458 0.950 . S
C454 C463 1.390 1_554 S
C455 C454 1.387 . S
C455 C457 1.387 . S
H456 C463 0.950 . S
C457 C455 1.387 . S
C457 C459 1.390 1_554 S
C457 H461 0.950 . S
H458 C454 0.950 . S
C459 C457 1.390 1_556 S
C459 C460 1.387 . S
C459 H462 0.950 . S
C460 C459 1.387 . S
C460 C463 1.387 . S
H461 C457 0.950 . S
H462 C459 0.950 . S
C463 C454 1.390 1_556 S
C463 H456 0.950 . S
C463 C460 1.387 . S
C464 C465 1.387 . S
C464 H468 0.950 . S
C464 C473 1.390 . S
C465 C464 1.387 . S
C465 C467 1.387 . S
H466 C473 0.950 . S
C467 C465 1.387 . S
C467 C469 1.390 . S
C467 H471 0.950 . S
H468 C464 0.950 . S
C469 C467 1.390 . S
C469 C470 1.387 . S
C469 H472 0.950 . S
C470 C469 1.387 . S
C470 C473 1.387 . S
H471 C467 0.950 . S
H472 C469 0.950 . S
C473 C464 1.390 . S
C473 H466 0.950 . S
C473 C470 1.387 . S
C474 C475 1.387 . S
C474 H478 0.950 . S
C474 C483 1.390 . S
C475 C474 1.387 . S
C475 C477 1.387 . S
H476 C483 0.950 . S
C477 C475 1.387 . S
C477 C479 1.390 . S
C477 H481 0.950 . S
H478 C474 0.950 . S
C479 C477 1.390 . S
C479 C480 1.387 . S
C479 H482 0.950 . S
C480 C479 1.387 . S
C480 C483 1.387 . S
H481 C477 0.950 . S
H482 C479 0.950 . S
C483 C474 1.390 . S
C483 H476 0.950 . S
C483 C480 1.387 . S
C484 C485 1.387 . S
C484 H488 0.950 . S
C484 C493 1.390 . S
C485 C484 1.387 . S
C485 C487 1.387 . S
H486 C493 0.950 . S
C487 C485 1.387 . S
C487 C489 1.390 . S
C487 H491 0.950 . S
H488 C484 0.950 . S
C489 C487 1.390 . S
C489 C490 1.387 . S
C489 H492 0.950 . S
C490 C489 1.387 . S
C490 C493 1.387 . S
H491 C487 0.950 . S
H492 C489 0.950 . S
C493 C484 1.390 . S
C493 H486 0.950 . S
C493 C490 1.387 . S
C494 C495 1.387 . S
C494 H498 0.950 . S
C494 C503 1.390 . S
C495 C494 1.387 . S
C495 C497 1.387 . S
H496 C503 0.950 . S
C497 C495 1.387 . S
C497 C499 1.390 . S
C497 H501 0.950 . S
H498 C494 0.950 . S
C499 C497 1.390 . S
C499 C500 1.387 . S
C499 H502 0.950 . S
C500 C499 1.387 . S
C500 C503 1.387 . S
H501 C497 0.950 . S
H502 C499 0.950 . S
C503 C494 1.390 . S
C503 H496 0.950 . S
C503 C500 1.387 . S
C504 C505 1.387 . S
C504 H508 0.950 . S
C504 C513 1.390 . S
C505 C504 1.387 . S
C505 C507 1.387 . S
H506 C513 0.950 . S
C507 C505 1.387 . S
C507 C509 1.390 . S
C507 H511 0.950 . S
H508 C504 0.950 . S
C509 C507 1.390 . S
C509 C510 1.387 . S
C509 H512 0.950 . S
C510 C509 1.387 . S
C510 C513 1.387 . S
H511 C507 0.950 . S
H512 C509 0.950 . S
C513 C504 1.390 . S
C513 H506 0.950 . S
C513 C510 1.387 . S
C514 C515 1.387 . S
C514 H518 0.950 . S
C514 C523 1.390 . S
C515 C514 1.387 . S
C515 C517 1.387 . S
H516 C523 0.950 . S
C517 C515 1.387 . S
C517 C519 1.390 . S
C517 H521 0.950 . S
H518 C514 0.950 . S
C519 C517 1.390 . S
C519 C520 1.387 . S
C519 H522 0.950 . S
C520 C519 1.387 . S
C520 C523 1.387 . S
H521 C517 0.950 . S
H522 C519 0.950 . S
C523 C514 1.390 . S
C523 H516 0.950 . S
C523 C520 1.387 . S
C524 C525 1.387 . S
C524 H528 0.950 . S
C524 C533 1.390 . S
C525 C524 1.387 . S
C525 C527 1.387 . S
H526 C533 0.950 . S
C527 C525 1.387 . S
C527 C529 1.390 . S
C527 H531 0.950 . S
H528 C524 0.950 . S
C529 C527 1.390 . S
C529 C530 1.387 . S
C529 H532 0.950 . S
C530 C529 1.387 . S
C530 C533 1.387 . S
H531 C527 0.950 . S
H532 C529 0.950 . S
C533 C524 1.390 . S
C533 H526 0.950 . S
C533 C530 1.387 . S
C534 C535 1.387 . S
C534 H538 0.950 . S
C534 C543 1.390 . S
C535 C534 1.387 . S
C535 C537 1.387 . S
H536 C543 0.950 . S
C537 C535 1.387 . S
C537 C539 1.390 . S
C537 H541 0.950 . S
H538 C534 0.950 . S
C539 C537 1.390 . S
C539 C540 1.387 . S
C539 H542 0.950 . S
C540 C539 1.387 . S
C540 C543 1.387 . S
H541 C537 0.950 . S
H542 C539 0.950 . S
C543 C534 1.390 . S
C543 H536 0.950 . S
C543 C540 1.387 . S
C225 C0 1.733 . S
C230 C41 1.736 . S
C235 C54 1.736 . S
C240 C26 1.736 . S
C245 C69 1.736 . S
C250 C96 1.733 . S
C255 C111 1.736 . S
C260 C82 1.733 . S
C265 C124 1.739 . S
C270 C152 1.739 . S
C275 C166 1.739 . S
C280 C139 1.736 . S
C285 C181 1.736 . S
C290 C208 1.739 . S
C295 C210 1.739 . S
C300 C183 1.736 . S
C305 C56 1.603 . S
C310 C13 1.605 . S
C315 C15 1.606 . S
C320 C71 1.606 . S
C325 C28 1.603 . S
C330 C85 1.605 . S
C335 C98 1.603 . S
C340 C43 1.605 . S
C345 C113 1.605 . S
C350 C168 1.606 . S
C355 C126 1.606 . S
C360 C194 1.606 . S
C365 C141 1.605 . S
C370 C197 1.605 . S
C375 C155 1.605 . S
C380 C223 1.605 . S
C385 C140 1.575 . S
C390 C12 1.574 . S
C395 C154 1.574 . S
C400 C14 1.575 . S
C405 C29 1.574 . S
C410 C112 1.575 . S
C415 C42 1.575 . S
C420 C127 1.573 . S
C425 C57 1.575 . S
C430 C196 1.574 . S
C435 C70 1.573 . S
C440 C222 1.575 . S
C445 C84 1.574 . S
C450 C169 1.574 . S
C455 C195 1.574 . S
C460 C99 1.574 . S
C465 C1 1.668 . S
C470 C211 1.668 . S
C475 C180 1.670 . S
C480 C27 1.668 . S
C485 C40 1.668 . S
C490 C182 1.668 . S
C495 C209 1.667 . S
C500 C55 1.670 . S
C505 C138 1.670 . S
C510 C68 1.667 . S
C515 C83 1.670 . S
C520 C153 1.667 . S
C525 C167 1.668 . S
C530 C97 1.668 . S
C535 C125 1.667 . S
C540 C110 1.668 . S
