# Generated by pormake.
# Topology unv, (4)-cn, num edge types: 1
# Building blocks:
#     Node 0, Type 0, BuildingBlock: KUFVIS_clean_sbu_0, # of connection points: 4
#     Node 1, Type 0, BuildingBlock: KUFVIS_clean_sbu_0, # of connection points: 4
#     Node 2, Type 0, BuildingBlock: KUFVIS_clean_sbu_0, # of connection points: 4
#     Node 3, Type 0, BuildingBlock: KUFVIS_clean_sbu_0, # of connection points: 4
#     Node 4, Type 0, BuildingBlock: KUFVIS_clean_sbu_0, # of connection points: 4
#     Node 5, Type 0, BuildingBlock: KUFVIS_clean_sbu_0, # of connection points: 4
#     Node 6, Type 0, BuildingBlock: KUFVIS_clean_sbu_0, # of connection points: 4
#     Node 7, Type 0, BuildingBlock: KUFVIS_clean_sbu_0, # of connection points: 4
#     Node 8, Type 0, BuildingBlock: KUFVIS_clean_sbu_0, # of connection points: 4
#     Node 9, Type 0, BuildingBlock: KUFVIS_clean_sbu_0, # of connection points: 4
#     Node 10, Type 0, BuildingBlock: KUFVIS_clean_sbu_0, # of connection points: 4
#     Node 11, Type 0, BuildingBlock: KUFVIS_clean_sbu_0, # of connection points: 4
#     Node 12, Type 0, BuildingBlock: KUFVIS_clean_sbu_0, # of connection points: 4
#     Node 13, Type 0, BuildingBlock: KUFVIS_clean_sbu_0, # of connection points: 4
#     Node 14, Type 0, BuildingBlock: KUFVIS_clean_sbu_0, # of connection points: 4
#     Node 15, Type 0, BuildingBlock: KUFVIS_clean_sbu_0, # of connection points: 4
#     Node 16, Type 0, BuildingBlock: KUFVIS_clean_sbu_0, # of connection points: 4
#     Node 17, Type 0, BuildingBlock: KUFVIS_clean_sbu_0, # of connection points: 4
#     Node 18, Type 0, BuildingBlock: KUFVIS_clean_sbu_0, # of connection points: 4
#     Node 19, Type 0, BuildingBlock: KUFVIS_clean_sbu_0, # of connection points: 4
#     Node 20, Type 0, BuildingBlock: KUFVIS_clean_sbu_0, # of connection points: 4
#     Node 21, Type 0, BuildingBlock: KUFVIS_clean_sbu_0, # of connection points: 4
#     Node 22, Type 0, BuildingBlock: KUFVIS_clean_sbu_0, # of connection points: 4
#     Node 23, Type 0, BuildingBlock: KUFVIS_clean_sbu_0, # of connection points: 4
#     Edge 24, Type (0, 0), BuildingBlock: OJICUG_clean_linker_0, # of connection points: 2
#     Edge 25, Type (0, 0), BuildingBlock: OJICUG_clean_linker_0, # of connection points: 2
#     Edge 26, Type (0, 0), BuildingBlock: OJICUG_clean_linker_0, # of connection points: 2
#     Edge 27, Type (0, 0), BuildingBlock: OJICUG_clean_linker_0, # of connection points: 2
#     Edge 28, Type (0, 0), BuildingBlock: OJICUG_clean_linker_0, # of connection points: 2
#     Edge 29, Type (0, 0), BuildingBlock: OJICUG_clean_linker_0, # of connection points: 2
#     Edge 30, Type (0, 0), BuildingBlock: OJICUG_clean_linker_0, # of connection points: 2
#     Edge 31, Type (0, 0), BuildingBlock: OJICUG_clean_linker_0, # of connection points: 2
#     Edge 32, Type (0, 0), BuildingBlock: OJICUG_clean_linker_0, # of connection points: 2
#     Edge 33, Type (0, 0), BuildingBlock: OJICUG_clean_linker_0, # of connection points: 2
#     Edge 34, Type (0, 0), BuildingBlock: OJICUG_clean_linker_0, # of connection points: 2
#     Edge 35, Type (0, 0), BuildingBlock: OJICUG_clean_linker_0, # of connection points: 2
#     Edge 36, Type (0, 0), BuildingBlock: OJICUG_clean_linker_0, # of connection points: 2
#     Edge 37, Type (0, 0), BuildingBlock: OJICUG_clean_linker_0, # of connection points: 2
#     Edge 38, Type (0, 0), BuildingBlock: OJICUG_clean_linker_0, # of connection points: 2
#     Edge 39, Type (0, 0), BuildingBlock: OJICUG_clean_linker_0, # of connection points: 2
#     Edge 40, Type (0, 0), BuildingBlock: OJICUG_clean_linker_0, # of connection points: 2
#     Edge 41, Type (0, 0), BuildingBlock: OJICUG_clean_linker_0, # of connection points: 2
#     Edge 42, Type (0, 0), BuildingBlock: OJICUG_clean_linker_0, # of connection points: 2
#     Edge 43, Type (0, 0), BuildingBlock: OJICUG_clean_linker_0, # of connection points: 2
#     Edge 44, Type (0, 0), BuildingBlock: OJICUG_clean_linker_0, # of connection points: 2
#     Edge 45, Type (0, 0), BuildingBlock: OJICUG_clean_linker_0, # of connection points: 2
#     Edge 46, Type (0, 0), BuildingBlock: OJICUG_clean_linker_0, # of connection points: 2
#     Edge 47, Type (0, 0), BuildingBlock: OJICUG_clean_linker_0, # of connection points: 2
#     Edge 48, Type (0, 0), BuildingBlock: OJICUG_clean_linker_0, # of connection points: 2
#     Edge 49, Type (0, 0), BuildingBlock: OJICUG_clean_linker_0, # of connection points: 2
#     Edge 50, Type (0, 0), BuildingBlock: OJICUG_clean_linker_0, # of connection points: 2
#     Edge 51, Type (0, 0), BuildingBlock: OJICUG_clean_linker_0, # of connection points: 2
#     Edge 52, Type (0, 0), BuildingBlock: OJICUG_clean_linker_0, # of connection points: 2
#     Edge 53, Type (0, 0), BuildingBlock: OJICUG_clean_linker_0, # of connection points: 2
#     Edge 54, Type (0, 0), BuildingBlock: OJICUG_clean_linker_0, # of connection points: 2
#     Edge 55, Type (0, 0), BuildingBlock: OJICUG_clean_linker_0, # of connection points: 2
#     Edge 56, Type (0, 0), BuildingBlock: OJICUG_clean_linker_0, # of connection points: 2
#     Edge 57, Type (0, 0), BuildingBlock: OJICUG_clean_linker_0, # of connection points: 2
#     Edge 58, Type (0, 0), BuildingBlock: OJICUG_clean_linker_0, # of connection points: 2
#     Edge 59, Type (0, 0), BuildingBlock: OJICUG_clean_linker_0, # of connection points: 2
#     Edge 60, Type (0, 0), BuildingBlock: OJICUG_clean_linker_0, # of connection points: 2
#     Edge 61, Type (0, 0), BuildingBlock: OJICUG_clean_linker_0, # of connection points: 2
#     Edge 62, Type (0, 0), BuildingBlock: OJICUG_clean_linker_0, # of connection points: 2
#     Edge 63, Type (0, 0), BuildingBlock: OJICUG_clean_linker_0, # of connection points: 2
#     Edge 64, Type (0, 0), BuildingBlock: OJICUG_clean_linker_0, # of connection points: 2
#     Edge 65, Type (0, 0), BuildingBlock: OJICUG_clean_linker_0, # of connection points: 2
#     Edge 66, Type (0, 0), BuildingBlock: OJICUG_clean_linker_0, # of connection points: 2
#     Edge 67, Type (0, 0), BuildingBlock: OJICUG_clean_linker_0, # of connection points: 2
#     Edge 68, Type (0, 0), BuildingBlock: OJICUG_clean_linker_0, # of connection points: 2
#     Edge 69, Type (0, 0), BuildingBlock: OJICUG_clean_linker_0, # of connection points: 2
#     Edge 70, Type (0, 0), BuildingBlock: OJICUG_clean_linker_0, # of connection points: 2
#     Edge 71, Type (0, 0), BuildingBlock: OJICUG_clean_linker_0, # of connection points: 2
# Relax obj value: 0.323
# Max RMSD: 0.270
# Mean RMSD: 0.241
data_MOF--net-unv--node1-KUFVIS_clean_sbu_0--edge1-OJICUG_clean_linker_0
_symmetry_space_group_name_H-M    P1
_symmetry_Int_Tables_number       1
_symmetry_cell_setting            triclinic
loop_
_symmetry_equiv_pos_as_xyz
'x, y, z'
_cell_length_a     35.233723
_cell_length_b     35.219523
_cell_length_c     35.209253
_cell_angle_alpha  89.985991
_cell_angle_beta   89.976965
_cell_angle_gamma 89.982703
loop_
_atom_site_label
_atom_site_type_symbol
_atom_site_fract_x
_atom_site_fract_y
_atom_site_fract_z
_atom_type_partial_charge
Mn0 Mn 0.00217 0.09298 0.37058 0.0
Mn1 Mn 0.08956 0.11872 0.34343 0.0
C2 C 0.04743 0.10764 0.41639 0.0
C3 C 0.96218 0.04249 0.38468 0.0
C4 C 0.01967 0.16962 0.33643 0.0
O5 O 0.00536 0.07519 0.31561 0.0
O6 O 0.06807 0.08231 0.3055 0.0
C7 C 0.13028 0.04503 0.34872 0.0
N8 N 0.12649 0.082 0.35953 0.0
C9 C 0.17874 0.07605 0.40327 0.0
C10 C 0.18354 0.0382 0.392 0.0
C11 C 0.15913 0.02262 0.36466 0.0
C12 C 0.14979 0.09722 0.38599 0.0
H13 H 0.11089 0.03238 0.32883 0.0
C14 C 0.0357 0.06761 0.29726 0.0
O15 O 0.94809 0.0752 0.37482 0.0
O16 O 0.99872 0.03975 0.38647 0.0
N17 N 0.11301 0.15183 0.37987 0.0
C18 C 0.10415 0.18843 0.38873 0.0
C19 C 0.12491 0.20755 0.41685 0.0
C20 C 0.1549 0.18902 0.43539 0.0
C21 C 0.16408 0.15163 0.42536 0.0
C22 C 0.14249 0.13407 0.39693 0.0
H23 H 0.08166 0.20315 0.3743 0.0
O24 O 0.01154 0.10871 0.42467 0.0
O25 O 0.0548 0.0991 0.3814 0.0
O26 O 0.99697 0.14832 0.35489 0.0
O27 O 0.05344 0.15964 0.32708 0.0
C28 C 0.1936 0.13101 0.44278 0.0
C29 C 0.20091 0.09325 0.43175 0.0
H30 H 0.20545 0.02066 0.40462 0.0
H31 H 0.16221 0.99322 0.35626 0.0
H32 H 0.11785 0.23655 0.42415 0.0
H33 H 0.17074 0.2038 0.45721 0.0
H34 H 0.21067 0.14384 0.46491 0.0
H35 H 0.22338 0.07754 0.44567 0.0
Mn36 Mn 1.00032 0.40607 0.37315 0.0
Mn37 Mn 0.9135 0.37934 0.34564 0.0
C38 C 0.9551 0.39096 0.41891 0.0
C39 C 0.03973 0.45703 0.38705 0.0
C40 C 0.98404 0.32962 0.33833 0.0
O41 O 0.99698 0.42367 0.3181 0.0
O42 O 0.9342 0.41687 0.30826 0.0
C43 C 0.87069 0.45175 0.35184 0.0
N44 N 0.87562 0.41481 0.3623 0.0
C45 C 0.82319 0.41869 0.4061 0.0
C46 C 0.81728 0.45651 0.39526 0.0
C47 C 0.8412 0.47312 0.36805 0.0
C48 C 0.85275 0.39857 0.38855 0.0
H49 H 0.88967 0.46517 0.33206 0.0
C50 C 0.96658 0.4316 0.30002 0.0
O51 O 0.05417 0.42445 0.37732 0.0
O52 O 0.00315 0.45938 0.3889 0.0
N53 N 0.89105 0.3451 0.38172 0.0
C54 C 0.90129 0.30882 0.39051 0.0
C55 C 0.88112 0.28881 0.41846 0.0
C56 C 0.85044 0.30615 0.43705 0.0
C57 C 0.84006 0.34331 0.42731 0.0
C58 C 0.86107 0.36179 0.399 0.0
H59 H 0.92454 0.29506 0.3763 0.0
O60 O 0.99098 0.39034 0.42727 0.0
O61 O 0.94778 0.3993 0.38385 0.0
O62 O 0.00615 0.35081 0.35758 0.0
O63 O 0.95045 0.33955 0.32838 0.0
C64 C 0.80996 0.36285 0.44498 0.0
C65 C 0.80153 0.40052 0.43439 0.0
H66 H 0.79487 0.47325 0.40809 0.0
H67 H 0.83723 0.5025 0.35996 0.0
H68 H 0.88923 0.26006 0.42568 0.0
H69 H 0.83509 0.29069 0.45876 0.0
H70 H 0.7933 0.34928 0.467 0.0
H71 H 0.77862 0.41541 0.44851 0.0
Mn72 Mn 0.00154 0.90615 0.1305 0.0
Mn73 Mn 0.08899 0.88024 0.15704 0.0
C74 C 0.04645 0.89142 0.08427 0.0
C75 C 0.9616 0.95687 0.11694 0.0
C76 C 0.01902 0.82975 0.16508 0.0
O77 O 0.00527 0.92384 0.18548 0.0
O78 O 0.06817 0.91731 0.19474 0.0
C79 C 0.13055 0.95333 0.15059 0.0
N80 N 0.12614 0.91635 0.14011 0.0
C81 C 0.17798 0.92121 0.09571 0.0
C82 C 0.18338 0.9591 0.10658 0.0
C83 C 0.15949 0.97523 0.1341 0.0
C84 C 0.14896 0.90057 0.11354 0.0
H85 H 0.11157 0.96639 0.17063 0.0
C86 C 0.03579 0.93186 0.20331 0.0
O87 O 0.94748 0.92418 0.1268 0.0
O88 O 0.99813 0.95944 0.11473 0.0
N89 N 0.11166 0.84646 0.12067 0.0
C90 C 0.10212 0.80996 0.11212 0.0
C91 C 0.12233 0.79033 0.08393 0.0
C92 C 0.15239 0.80827 0.06492 0.0
C93 C 0.16217 0.84561 0.07452 0.0
C94 C 0.14114 0.8637 0.10307 0.0
H95 H 0.07948 0.79571 0.12679 0.0
O96 O 0.0105 0.89048 0.07627 0.0
O97 O 0.05403 0.89982 0.11925 0.0
O98 O 0.99639 0.85079 0.14622 0.0
O99 O 0.05272 0.8399 0.17442 0.0
C100 C 0.19172 0.8657 0.05655 0.0
C101 C 0.19961 0.90347 0.06713 0.0
H102 H 0.20535 0.97623 0.09354 0.0
H103 H 0.16305 0.00465 0.14222 0.0
H104 H 0.11476 0.7614 0.07689 0.0
H105 H 0.16779 0.7931 0.04303 0.0
H106 H 0.20837 0.85245 0.03433 0.0
H107 H 0.2221 0.91877 0.05278 0.0
Mn108 Mn 0.00104 0.59274 0.13286 0.0
Mn109 Mn 0.914 0.61936 0.16034 0.0
C110 C 0.95589 0.60814 0.08719 0.0
C111 C 0.04068 0.54195 0.11867 0.0
C112 C 0.98431 0.66954 0.16714 0.0
O113 O 0.99778 0.57489 0.18782 0.0
O114 O 0.93517 0.58256 0.19811 0.0
C115 C 0.8723 0.54627 0.15511 0.0
N116 N 0.8765 0.58322 0.14438 0.0
C117 C 0.82362 0.57828 0.10128 0.0
C118 C 0.81839 0.54046 0.11248 0.0
C119 C 0.84291 0.52438 0.13946 0.0
C120 C 0.85309 0.59893 0.1183 0.0
H121 H 0.89173 0.53325 0.17472 0.0
C122 C 0.96743 0.56752 0.20622 0.0
O123 O 0.05498 0.57455 0.12855 0.0
O124 O 0.00411 0.53947 0.11689 0.0
N125 N 0.89085 0.6529 0.12406 0.0
C126 C 0.90049 0.68922 0.11484 0.0
C127 C 0.87977 0.7087 0.08692 0.0
C128 C 0.84913 0.6908 0.06887 0.0
C129 C 0.8393 0.65364 0.07911 0.0
C130 C 0.86085 0.63569 0.10735 0.0
H131 H 0.92363 0.70341 0.12874 0.0
O132 O 0.99177 0.60872 0.07885 0.0
O133 O 0.94841 0.59941 0.12214 0.0
O134 O 0.00673 0.64804 0.14856 0.0
O135 O 0.95057 0.65979 0.17676 0.0
C136 C 0.80924 0.63357 0.06203 0.0
C137 C 0.80141 0.59592 0.0731 0.0
H138 H 0.79607 0.52332 0.10007 0.0
H139 H 0.83949 0.495 0.1478 0.0
H140 H 0.88742 0.73748 0.07935 0.0
H141 H 0.83334 0.70586 0.04718 0.0
H142 H 0.79217 0.64671 0.04007 0.0
H143 H 0.77854 0.58061 0.0594 0.0
Mn144 Mn 0.36939 0.99964 0.09533 0.0
Mn145 Mn 0.34667 0.0887 0.11952 0.0
C146 C 0.4171 0.04287 0.11029 0.0
C147 C 0.38296 0.9595 0.04456 0.0
C148 C 0.3338 0.01978 0.1711 0.0
O149 O 0.31537 0.00555 0.07608 0.0
O150 O 0.30774 0.06873 0.08303 0.0
C151 C 0.35437 0.12835 0.04547 0.0
N152 N 0.36474 0.12443 0.08255 0.0
C153 C 0.41005 0.17533 0.07676 0.0
C154 C 0.39927 0.18028 0.03877 0.0
C155 C 0.37137 0.1566 0.02305 0.0
C156 C 0.39162 0.1471 0.09797 0.0
H157 H 0.33397 0.10953 0.03277 0.0
C158 C 0.29828 0.03658 0.06842 0.0
O159 O 0.3717 0.9454 0.07684 0.0
O160 O 0.38665 0.9959 0.04257 0.0
N161 N 0.3844 0.11029 0.15245 0.0
C162 C 0.39518 0.09891 0.18784 0.0
C163 C 0.42434 0.11831 0.20679 0.0
C164 C 0.44267 0.14887 0.18898 0.0
C165 C 0.43185 0.15954 0.1522 0.0
C166 C 0.40218 0.13948 0.13489 0.0
H167 H 0.3822 0.07479 0.20133 0.0
O168 O 0.42362 0.00665 0.11238 0.0
O169 O 0.38263 0.05157 0.10126 0.0
O170 O 0.35081 0.99535 0.15028 0.0
O171 O 0.32817 0.05426 0.16069 0.0
C172 C 0.45018 0.18857 0.13167 0.0
C173 C 0.43926 0.19647 0.09399 0.0
H174 H 0.41275 0.20165 0.02122 0.0
H175 H 0.36333 0.15979 0.99356 0.0
H176 H 0.43299 0.10942 0.23492 0.0
H177 H 0.46549 0.16346 0.20351 0.0
H178 H 0.47319 0.20453 0.14436 0.0
H179 H 0.45406 0.21837 0.07827 0.0
Mn180 Mn 0.62945 0.50162 0.09407 0.0
Mn181 Mn 0.65652 0.41408 0.11964 0.0
C182 C 0.58364 0.45633 0.10872 0.0
C183 C 0.61542 0.54169 0.04351 0.0
C184 C 0.66377 0.48386 0.17063 0.0
O185 O 0.68439 0.49837 0.07625 0.0
O186 O 0.69443 0.43561 0.08326 0.0
C187 C 0.65124 0.37341 0.04594 0.0
N188 N 0.6404 0.37719 0.08291 0.0
C189 C 0.59668 0.32493 0.07698 0.0
C190 C 0.60796 0.32015 0.03911 0.0
C191 C 0.63531 0.34456 0.02352 0.0
C192 C 0.61397 0.35386 0.09816 0.0
H193 H 0.67117 0.39278 0.0333 0.0
C194 C 0.70272 0.46803 0.06864 0.0
O195 O 0.62523 0.55576 0.07624 0.0
O196 O 0.61358 0.50514 0.04079 0.0
N197 N 0.62008 0.39063 0.15278 0.0
C198 C 0.61109 0.3996 0.18933 0.0
C199 C 0.58293 0.37887 0.20844 0.0
C200 C 0.56444 0.34884 0.18993 0.0
C201 C 0.57454 0.3396 0.15257 0.0
C202 C 0.60303 0.36114 0.13502 0.0
H203 H 0.62541 0.42219 0.20399 0.0
O204 O 0.57537 0.49223 0.10982 0.0
O205 O 0.61861 0.44898 0.10017 0.0
O206 O 0.64521 0.50665 0.14949 0.0
O207 O 0.673 0.45009 0.16054 0.0
C208 C 0.55712 0.3101 0.13194 0.0
C209 C 0.56817 0.30278 0.09417 0.0
H210 H 0.59533 0.29826 0.02156 0.0
H211 H 0.64373 0.34148 0.99412 0.0
H212 H 0.57552 0.38602 0.2374 0.0
H213 H 0.54257 0.33304 0.2047 0.0
H214 H 0.53495 0.29307 0.14475 0.0
H215 H 0.55423 0.28034 0.07844 0.0
Mn216 Mn 0.36902 0.99919 0.40485 0.0
Mn217 Mn 0.34519 0.91011 0.38146 0.0
C218 C 0.41615 0.95529 0.38986 0.0
C219 C 0.38346 0.04017 0.45464 0.0
C220 C 0.333 0.97868 0.32932 0.0
O221 O 0.31517 0.99399 0.42489 0.0
O222 O 0.30651 0.93096 0.41776 0.0
C223 C 0.35201 0.87088 0.45582 0.0
N224 N 0.36259 0.8744 0.41874 0.0
C225 C 0.40673 0.8225 0.42486 0.0
C226 C 0.39577 0.818 0.46286 0.0
C227 C 0.36835 0.84237 0.47841 0.0
C228 C 0.38897 0.85102 0.40348 0.0
H229 H 0.33193 0.89016 0.46837 0.0
C230 C 0.29766 0.96319 0.43259 0.0
O231 O 0.3719 0.05368 0.42224 0.0
O232 O 0.38691 0.00376 0.45737 0.0
N233 N 0.38263 0.88764 0.34876 0.0
C234 C 0.39377 0.89864 0.31336 0.0
C235 C 0.42256 0.8785 0.29456 0.0
C236 C 0.44015 0.84761 0.31254 0.0
C237 C 0.42902 0.83737 0.34935 0.0
C238 C 0.39976 0.85818 0.36652 0.0
H239 H 0.38139 0.92301 0.29977 0.0
O240 O 0.42294 0.99142 0.38725 0.0
O241 O 0.38171 0.94694 0.39946 0.0
O242 O 0.35003 0.00311 0.35005 0.0
O243 O 0.32721 0.9443 0.33989 0.0
C244 C 0.44664 0.80803 0.37006 0.0
C245 C 0.43547 0.80058 0.40776 0.0
H246 H 0.40872 0.7964 0.48054 0.0
H247 H 0.36015 0.8395 0.5079 0.0
H248 H 0.43149 0.88707 0.26642 0.0
H249 H 0.46268 0.83243 0.29812 0.0
H250 H 0.4693 0.79147 0.35748 0.0
H251 H 0.44972 0.77841 0.42359 0.0
Mn252 Mn 0.63035 0.50091 0.40776 0.0
Mn253 Mn 0.65706 0.58813 0.38116 0.0
C254 C 0.58428 0.54579 0.39274 0.0
C255 C 0.61683 0.46127 0.45874 0.0
C256 C 0.66447 0.51786 0.33102 0.0
O257 O 0.68537 0.50457 0.4252 0.0
O258 O 0.69479 0.56743 0.41829 0.0
C259 C 0.65095 0.63024 0.45399 0.0
N260 N 0.64042 0.62564 0.41703 0.0
C261 C 0.59644 0.67786 0.42157 0.0
C262 C 0.6074 0.68348 0.45941 0.0
C263 C 0.63473 0.65949 0.47569 0.0
C264 C 0.61402 0.64856 0.40111 0.0
H265 H 0.67082 0.61119 0.46717 0.0
C266 C 0.70328 0.5351 0.43302 0.0
O267 O 0.62656 0.44695 0.42609 0.0
O268 O 0.61478 0.49784 0.46115 0.0
N269 N 0.62069 0.61067 0.34731 0.0
C270 C 0.61178 0.60072 0.31099 0.0
C271 C 0.58364 0.62092 0.2913 0.0
C272 C 0.56501 0.65136 0.309 0.0
C273 C 0.5749 0.6615 0.34618 0.0
C274 C 0.6034 0.64047 0.36433 0.0
H275 H 0.62608 0.57771 0.29694 0.0
O276 O 0.57617 0.50985 0.3922 0.0
O277 O 0.61924 0.55341 0.40112 0.0
O278 O 0.64575 0.49539 0.35237 0.0
O279 O 0.67417 0.55152 0.34099 0.0
C280 C 0.55722 0.69137 0.36606 0.0
C281 C 0.56797 0.69954 0.40373 0.0
H282 H 0.59456 0.70568 0.4764 0.0
H283 H 0.6429 0.66321 0.50509 0.0
H284 H 0.57633 0.61302 0.26252 0.0
H285 H 0.54315 0.66674 0.29379 0.0
H286 H 0.53505 0.70803 0.35276 0.0
H287 H 0.55382 0.72226 0.41889 0.0
Mn288 Mn 0.09406 0.37015 1.00105 0.0
Mn289 Mn 0.12078 0.34239 0.08797 0.0
C290 C 0.10936 0.41567 0.04641 0.0
C291 C 0.04319 0.38458 0.96162 0.0
C292 C 0.17068 0.33541 0.01742 0.0
O293 O 0.07616 0.31521 0.00424 0.0
O294 O 0.08372 0.30487 0.06691 0.0
C295 C 0.04799 0.34793 0.1302 0.0
N296 N 0.08491 0.35858 0.12568 0.0
C297 C 0.08034 0.40196 0.1784 0.0
C298 C 0.04254 0.39089 0.18392 0.0
C299 C 0.02629 0.3638 0.15964 0.0
C300 C 0.1008 0.38473 0.14888 0.0
H301 H 0.03484 0.32823 0.11095 0.0
C302 C 0.06868 0.29685 0.03462 0.0
O303 O 0.07571 0.37469 0.94715 0.0
O304 O 0.04082 0.38621 0.99823 0.0
N305 N 0.15457 0.37853 0.11089 0.0
C306 C 0.19085 0.38759 0.10099 0.0
C307 C 0.21052 0.41551 0.1215 0.0
C308 C 0.19282 0.43378 0.15217 0.0
C309 C 0.15567 0.42374 0.16223 0.0
C310 C 0.13755 0.39547 0.14089 0.0
H311 H 0.20488 0.37357 0.07778 0.0
O312 O 0.11003 0.42413 0.01054 0.0
O313 O 0.10082 0.38066 0.05369 0.0
O314 O 0.14932 0.35435 0.99517 0.0
O315 O 0.16091 0.32569 0.05116 0.0
C316 C 0.13579 0.44107 0.19232 0.0
C317 C 0.09815 0.43019 0.2004 0.0
H318 H 0.02554 0.40346 0.20628 0.0
H319 H 0.99693 0.35555 0.1633 0.0
H320 H 0.23927 0.42295 0.11365 0.0
H321 H 0.20801 0.45548 0.16779 0.0
H322 H 0.14907 0.46306 0.20923 0.0
H323 H 0.08299 0.44406 0.22329 0.0
Mn324 Mn 0.09377 0.63075 0.5019 0.0
Mn325 Mn 0.11941 0.65682 0.41412 0.0
C326 C 0.10861 0.58437 0.45726 0.0
C327 C 0.04302 0.61734 0.54185 0.0
C328 C 0.17016 0.66501 0.48397 0.0
O329 O 0.07607 0.68566 0.498 0.0
O330 O 0.08273 0.69481 0.43506 0.0
C331 C 0.0459 0.65053 0.37333 0.0
N332 N 0.08291 0.63998 0.37734 0.0
C333 C 0.07736 0.59544 0.3257 0.0
C334 C 0.03946 0.60641 0.32067 0.0
C335 C 0.02366 0.63403 0.34466 0.0
C336 C 0.09835 0.61329 0.35443 0.0
H337 H 0.03309 0.67063 0.39241 0.0
C338 C 0.06822 0.70351 0.46742 0.0
O339 O 0.07566 0.62724 0.55602 0.0
O340 O 0.04054 0.61499 0.5053 0.0
N341 N 0.15281 0.62026 0.39124 0.0
C342 C 0.18939 0.61166 0.40038 0.0
C343 C 0.2087 0.58332 0.38009 0.0
C344 C 0.19038 0.56424 0.35031 0.0
C345 C 0.15299 0.57397 0.34086 0.0
C346 C 0.13524 0.60267 0.36196 0.0
H347 H 0.20393 0.62645 0.42274 0.0
O348 O 0.10953 0.57654 0.49327 0.0
O349 O 0.10005 0.61925 0.44943 0.0
O350 O 0.14907 0.64656 0.5069 0.0
O351 O 0.16007 0.67397 0.45011 0.0
C352 C 0.13255 0.55598 0.31157 0.0
C353 C 0.09476 0.5667 0.30401 0.0
H354 H 0.02206 0.59336 0.29892 0.0
H355 H 0.99423 0.64222 0.34141 0.0
H356 H 0.23769 0.57622 0.38737 0.0
H357 H 0.20531 0.54224 0.33484 0.0
H358 H 0.14553 0.53364 0.29488 0.0
H359 H 0.07919 0.55233 0.28173 0.0
Mn360 Mn 0.90722 0.8703 0.50149 0.0
Mn361 Mn 0.88116 0.84362 0.41404 0.0
C362 C 0.89263 0.9164 0.45647 0.0
C363 C 0.95796 0.88361 0.54145 0.0
C364 C 0.83065 0.8362 0.48408 0.0
O365 O 0.92457 0.81524 0.4979 0.0
O366 O 0.91793 0.80577 0.43501 0.0
C367 C 0.95427 0.84926 0.37239 0.0
N368 N 0.91738 0.86008 0.37679 0.0
C369 C 0.92256 0.90411 0.32464 0.0
C370 C 0.96035 0.89291 0.31928 0.0
C371 C 0.97627 0.8654 0.34331 0.0
C372 C 0.90179 0.8866 0.35378 0.0
H373 H 0.96716 0.82918 0.39144 0.0
C374 C 0.93248 0.79728 0.46741 0.0
O375 O 0.92521 0.87401 0.55558 0.0
O376 O 0.96059 0.88573 0.50489 0.0
N377 N 0.84767 0.88015 0.39124 0.0
C378 C 0.81131 0.88918 0.40089 0.0
C379 C 0.79193 0.91746 0.38057 0.0
C380 C 0.80998 0.93609 0.35032 0.0
C381 C 0.84718 0.92604 0.34046 0.0
C382 C 0.86502 0.89741 0.3616 0.0
H383 H 0.79702 0.87487 0.42374 0.0
O384 O 0.89183 0.92455 0.49241 0.0
O385 O 0.90094 0.88139 0.44893 0.0
O386 O 0.85181 0.85493 0.50668 0.0
O387 O 0.84073 0.82668 0.45039 0.0
C388 C 0.86738 0.94368 0.31078 0.0
C389 C 0.90505 0.93272 0.30288 0.0
H390 H 0.97757 0.90569 0.29721 0.0
H391 H 0.00561 0.85702 0.33976 0.0
H392 H 0.76312 0.92488 0.38823 0.0
H393 H 0.795 0.95805 0.33485 0.0
H394 H 0.85433 0.96595 0.29405 0.0
H395 H 0.92045 0.94683 0.28029 0.0
Mn396 Mn 0.40683 0.63098 0.50123 0.0
Mn397 Mn 0.38052 0.65844 0.58835 0.0
C398 C 0.39175 0.58527 0.54647 0.0
C399 C 0.45754 0.61701 0.46148 0.0
C400 C 0.33034 0.66555 0.5181 0.0
O401 O 0.42451 0.68594 0.50448 0.0
O402 O 0.41765 0.69593 0.56728 0.0
C403 C 0.45333 0.65267 0.63045 0.0
N404 N 0.41641 0.64203 0.62592 0.0
C405 C 0.42099 0.59842 0.67846 0.0
C406 C 0.45881 0.60943 0.68396 0.0
C407 C 0.47504 0.63663 0.65979 0.0
C408 C 0.40052 0.6158 0.64905 0.0
H409 H 0.46645 0.67251 0.61131 0.0
C410 C 0.43239 0.70409 0.53486 0.0
O411 O 0.42491 0.62679 0.44722 0.0
O412 O 0.46008 0.61514 0.49807 0.0
N413 N 0.34668 0.62228 0.61124 0.0
C414 C 0.31035 0.61335 0.60143 0.0
C415 C 0.29068 0.58536 0.62187 0.0
C416 C 0.30841 0.5669 0.6524 0.0
C417 C 0.34559 0.57682 0.66239 0.0
C418 C 0.36373 0.60516 0.64112 0.0
H419 H 0.29628 0.62752 0.57835 0.0
O420 O 0.39103 0.57693 0.51057 0.0
O421 O 0.4003 0.62025 0.55386 0.0
O422 O 0.35156 0.64661 0.49573 0.0
O423 O 0.34034 0.67537 0.55172 0.0
C424 C 0.3655 0.55932 0.69235 0.0
C425 C 0.40317 0.57011 0.70038 0.0
H426 H 0.47581 0.59673 0.70624 0.0
H427 H 0.50441 0.64487 0.66345 0.0
H428 H 0.26188 0.57803 0.61409 0.0
H429 H 0.29321 0.54516 0.66797 0.0
H430 H 0.35221 0.53728 0.7092 0.0
H431 H 0.41833 0.55612 0.72319 0.0
Mn432 Mn 0.49869 0.5946 0.87082 0.0
Mn433 Mn 0.58535 0.62243 0.84388 0.0
C434 C 0.54345 0.60992 0.9169 0.0
C435 C 0.45955 0.5432 0.88403 0.0
C436 C 0.51448 0.67161 0.83677 0.0
O437 O 0.50253 0.57751 0.81566 0.0
O438 O 0.56533 0.58478 0.80625 0.0
C439 C 0.62902 0.55054 0.84993 0.0
N440 N 0.6236 0.58737 0.8605 0.0
C441 C 0.67606 0.58404 0.90426 0.0
C442 C 0.68248 0.54633 0.89329 0.0
C443 C 0.6588 0.52951 0.86605 0.0
C444 C 0.64626 0.60383 0.88678 0.0
H445 H 0.61023 0.53695 0.8301 0.0
C446 C 0.53313 0.56977 0.7978 0.0
O447 O 0.44496 0.57578 0.8745 0.0
O448 O 0.49613 0.54109 0.88612 0.0
N449 N 0.60714 0.65676 0.88025 0.0
C450 C 0.59609 0.69269 0.88954 0.0
C451 C 0.61589 0.71279 0.91766 0.0
C452 C 0.64694 0.69587 0.93599 0.0
C453 C 0.65802 0.65902 0.9259 0.0
C454 C 0.63738 0.64043 0.89741 0.0
H455 H 0.5724 0.70609 0.87569 0.0
O456 O 0.50753 0.60999 0.92511 0.0
O457 O 0.55111 0.60179 0.88185 0.0
O458 O 0.49248 0.64997 0.85568 0.0
O459 O 0.54808 0.66192 0.82659 0.0
C460 C 0.6884 0.63983 0.94346 0.0
C461 C 0.69742 0.60236 0.93265 0.0
H462 H 0.7051 0.52985 0.90607 0.0
H463 H 0.66316 0.50021 0.85786 0.0
H464 H 0.60717 0.74126 0.92525 0.0
H465 H 0.66198 0.71139 0.95787 0.0
H466 H 0.70479 0.65348 0.96561 0.0
H467 H 0.72051 0.58771 0.94673 0.0
Mn468 Mn 0.49794 0.90818 0.86961 0.0
Mn469 Mn 0.40968 0.88456 0.84265 0.0
C470 C 0.4526 0.89335 0.9155 0.0
C471 C 0.53896 0.95775 0.88419 0.0
C472 C 0.47842 0.83175 0.83543 0.0
O473 O 0.49509 0.92717 0.81503 0.0
O474 O 0.43264 0.91951 0.80418 0.0
C475 C 0.37248 0.96015 0.84693 0.0
N476 N 0.37423 0.92306 0.85789 0.0
C477 C 0.32148 0.93169 0.90061 0.0
C478 C 0.31865 0.96966 0.88904 0.0
C479 C 0.34437 0.98397 0.86217 0.0
C480 C 0.34979 0.90912 0.88403 0.0
H481 H 0.3929 0.97183 0.82746 0.0
C482 C 0.46502 0.93424 0.79611 0.0
O483 O 0.5524 0.92493 0.87382 0.0
O484 O 0.50249 0.96104 0.88648 0.0
N485 N 0.38429 0.85294 0.87911 0.0
C486 C 0.39083 0.81584 0.88781 0.0
C487 C 0.36868 0.79783 0.91563 0.0
C488 C 0.33947 0.81794 0.93379 0.0
C489 C 0.33233 0.85571 0.92353 0.0
C490 C 0.35531 0.87212 0.89548 0.0
H491 H 0.41233 0.79987 0.87323 0.0
O492 O 0.48852 0.8915 0.92343 0.0
O493 O 0.44505 0.90296 0.88078 0.0
O494 O 0.50212 0.85294 0.85273 0.0
O495 O 0.44436 0.842 0.82747 0.0
C496 C 0.30341 0.87774 0.94021 0.0
C497 C 0.29801 0.9157 0.92876 0.0
H498 H 0.29732 0.98825 0.90112 0.0
H499 H 0.34286 0.01344 0.8536 0.0
H500 H 0.37397 0.76844 0.92287 0.0
H501 H 0.32248 0.80399 0.95532 0.0
H502 H 0.2853 0.86583 0.96204 0.0
H503 H 0.27598 0.93248 0.94209 0.0
Mn504 Mn 0.50033 0.40794 0.63155 0.0
Mn505 Mn 0.58753 0.38179 0.65884 0.0
C506 C 0.54557 0.39305 0.58574 0.0
C507 C 0.4605 0.45863 0.61775 0.0
C508 C 0.51744 0.33116 0.66554 0.0
O509 O 0.50348 0.42548 0.68659 0.0
O510 O 0.56618 0.4185 0.69665 0.0
C511 C 0.62877 0.45516 0.6535 0.0
N512 N 0.62477 0.41819 0.64277 0.0
C513 C 0.67731 0.42362 0.59926 0.0
C514 C 0.68233 0.46146 0.61046 0.0
C515 C 0.65788 0.47731 0.63765 0.0
C516 C 0.64811 0.40272 0.61647 0.0
H517 H 0.60936 0.46801 0.67325 0.0
C518 C 0.5338 0.43325 0.70484 0.0
O519 O 0.44632 0.42592 0.62742 0.0
O520 O 0.49706 0.46126 0.61588 0.0
N521 N 0.61087 0.34843 0.62251 0.0
C522 C 0.6017 0.31192 0.61358 0.0
C523 C 0.62244 0.29261 0.58556 0.0
C524 C 0.6527 0.31084 0.56715 0.0
C525 C 0.66216 0.34814 0.57722 0.0
C526 C 0.64059 0.36591 0.60556 0.0
H527 H 0.57897 0.29744 0.62785 0.0
O528 O 0.50969 0.39232 0.57743 0.0
O529 O 0.55297 0.40158 0.62074 0.0
O530 O 0.49493 0.35256 0.64697 0.0
O531 O 0.55113 0.3411 0.67522 0.0
C532 C 0.69192 0.36848 0.5599 0.0
C533 C 0.69948 0.4062 0.5709 0.0
H534 H 0.70443 0.4788 0.5979 0.0
H535 H 0.66112 0.5067 0.64599 0.0
H536 H 0.61514 0.26368 0.5782 0.0
H537 H 0.66852 0.2959 0.54541 0.0
H538 H 0.70899 0.35549 0.53784 0.0
H539 H 0.72214 0.42171 0.55704 0.0
Mn540 Mn 0.49914 0.09481 0.62734 0.0
Mn541 Mn 0.4119 0.12095 0.65427 0.0
C542 C 0.45421 0.10992 0.58124 0.0
C543 C 0.53906 0.04419 0.61362 0.0
C544 C 0.4821 0.17107 0.66237 0.0
O545 O 0.49543 0.0768 0.68229 0.0
O546 O 0.43257 0.08351 0.69176 0.0
C547 C 0.36974 0.04823 0.64764 0.0
N548 N 0.37441 0.08524 0.63732 0.0
C549 C 0.32226 0.0811 0.59326 0.0
C550 C 0.31659 0.0432 0.60397 0.0
C551 C 0.3405 0.02669 0.63123 0.0
C552 C 0.35155 0.10138 0.61101 0.0
H553 H 0.38872 0.0349 0.66747 0.0
C554 C 0.46493 0.06882 0.7002 0.0
O555 O 0.55317 0.07684 0.6236 0.0
O556 O 0.50252 0.04161 0.61133 0.0
N557 N 0.38943 0.1551 0.61813 0.0
C558 C 0.39944 0.19146 0.60947 0.0
C559 C 0.3793 0.21139 0.58145 0.0
C560 C 0.34888 0.19387 0.56266 0.0
C561 C 0.3387 0.15663 0.57227 0.0
C562 C 0.35967 0.13824 0.60066 0.0
H563 H 0.42248 0.20535 0.62387 0.0
O564 O 0.49016 0.11078 0.57319 0.0
O565 O 0.44663 0.10133 0.61621 0.0
O566 O 0.50452 0.15004 0.64327 0.0
O567 O 0.44841 0.16098 0.67185 0.0
C568 C 0.30885 0.13692 0.55441 0.0
C569 C 0.30064 0.09918 0.56489 0.0
H570 H 0.2944 0.02633 0.59098 0.0
H571 H 0.33673 0.99726 0.63922 0.0
H572 H 0.38724 0.24021 0.57434 0.0
H573 H 0.33354 0.20927 0.54089 0.0
H574 H 0.29223 0.15042 0.53232 0.0
H575 H 0.27793 0.08415 0.55061 0.0
Mn576 Mn 0.86977 0.50179 0.59506 0.0
Mn577 Mn 0.84265 0.58943 0.62028 0.0
C578 C 0.91559 0.54698 0.60996 0.0
C579 C 0.88388 0.46141 0.54482 0.0
C580 C 0.8353 0.51979 0.6715 0.0
O581 O 0.81495 0.50505 0.57695 0.0
O582 O 0.80492 0.56782 0.58376 0.0
C583 C 0.84825 0.62991 0.54646 0.0
N584 N 0.85886 0.62627 0.58351 0.0
C585 C 0.90224 0.67884 0.57772 0.0
C586 C 0.89117 0.68349 0.53978 0.0
C587 C 0.86412 0.65885 0.52408 0.0
C588 C 0.88504 0.6498 0.59885 0.0
H589 H 0.82858 0.61036 0.53374 0.0
C590 C 0.79672 0.53539 0.56912 0.0
O591 O 0.87386 0.44757 0.57759 0.0
O592 O 0.88593 0.49795 0.54188 0.0
N593 N 0.87886 0.61306 0.65351 0.0
C594 C 0.8876 0.60429 0.69017 0.0
C595 C 0.91549 0.62525 0.70939 0.0
C596 C 0.93392 0.65534 0.6909 0.0
C597 C 0.92402 0.66442 0.65345 0.0
C598 C 0.89582 0.64263 0.63578 0.0
H599 H 0.87326 0.58172 0.70484 0.0
O600 O 0.92373 0.51105 0.6111 0.0
O601 O 0.88072 0.55449 0.60104 0.0
O602 O 0.85378 0.49693 0.65039 0.0
O603 O 0.82606 0.55353 0.66129 0.0
C604 C 0.94133 0.69404 0.63288 0.0
C605 C 0.93046 0.70123 0.59504 0.0
H606 H 0.90374 0.70546 0.52227 0.0
H607 H 0.85587 0.66182 0.49462 0.0
H608 H 0.9227 0.61825 0.73844 0.0
H609 H 0.95556 0.67135 0.70577 0.0
H610 H 0.96327 0.71127 0.64579 0.0
H611 H 0.9443 0.72378 0.57937 0.0
Mn612 Mn 0.13151 0.99833 0.59406 0.0
Mn613 Mn 0.15821 0.91138 0.62153 0.0
C614 C 0.08539 0.95371 0.60956 0.0
C615 C 0.11803 0.03785 0.54302 0.0
C616 C 0.1658 0.98217 0.67087 0.0
O617 O 0.18647 0.99428 0.57651 0.0
O618 O 0.1959 0.93148 0.58399 0.0
C619 C 0.15221 0.86809 0.5494 0.0
N620 N 0.14152 0.87338 0.58624 0.0
C621 C 0.09752 0.82115 0.58253 0.0
C622 C 0.10855 0.8149 0.5448 0.0
C623 C 0.13598 0.83852 0.52817 0.0
C624 C 0.1151 0.85076 0.60252 0.0
H625 H 0.17228 0.88677 0.53598 0.0
C626 C 0.2043 0.96365 0.56886 0.0
O627 O 0.12793 0.05219 0.57559 0.0
O628 O 0.11581 0.00126 0.54068 0.0
N629 N 0.12182 0.88942 0.65575 0.0
C630 C 0.11279 0.90005 0.69187 0.0
C631 C 0.08461 0.88021 0.71186 0.0
C632 C 0.06601 0.84948 0.69466 0.0
C633 C 0.07595 0.83872 0.65766 0.0
C634 C 0.10449 0.85941 0.63919 0.0
H635 H 0.12697 0.92338 0.70551 0.0
O636 O 0.07738 0.98969 0.60987 0.0
O637 O 0.12032 0.94587 0.60112 0.0
O638 O 0.147 0.00433 0.64932 0.0
O639 O 0.17553 0.94841 0.66124 0.0
C640 C 0.05825 0.80857 0.63825 0.0
C641 C 0.06903 0.79979 0.60071 0.0
H642 H 0.09571 0.79243 0.52816 0.0
H643 H 0.14426 0.83425 0.49887 0.0
H644 H 0.07721 0.88863 0.74049 0.0
H645 H 0.04412 0.83438 0.71011 0.0
H646 H 0.03606 0.79216 0.65182 0.0
H647 H 0.05488 0.77685 0.58592 0.0
Mn648 Mn 0.87079 0.50213 0.90855 0.0
Mn649 Mn 0.84381 0.4151 0.88175 0.0
C650 C 0.91673 0.45712 0.89348 0.0
C651 C 0.88437 0.54152 0.95969 0.0
C652 C 0.83649 0.48556 0.83184 0.0
O653 O 0.81573 0.49861 0.92593 0.0
O654 O 0.80609 0.4358 0.91886 0.0
C655 C 0.84971 0.37277 0.95447 0.0
N656 N 0.86031 0.37744 0.91753 0.0
C657 C 0.90417 0.32512 0.92197 0.0
C658 C 0.89315 0.31943 0.95979 0.0
C659 C 0.86585 0.34343 0.97612 0.0
C660 C 0.88667 0.35451 0.90157 0.0
H661 H 0.82984 0.39182 0.96768 0.0
C662 C 0.79764 0.46814 0.93358 0.0
O663 O 0.87476 0.55602 0.92708 0.0
O664 O 0.88629 0.50493 0.96195 0.0
N665 N 0.88017 0.39259 0.84787 0.0
C666 C 0.88925 0.40274 0.81163 0.0
C667 C 0.91741 0.38257 0.79192 0.0
C668 C 0.9359 0.35199 0.80953 0.0
C669 C 0.92588 0.34169 0.84664 0.0
C670 C 0.89736 0.36269 0.86481 0.0
H671 H 0.87512 0.42592 0.79768 0.0
O672 O 0.92498 0.49303 0.893 0.0
O673 O 0.88173 0.44962 0.9018 0.0
O674 O 0.8554 0.50788 0.85315 0.0
O675 O 0.82679 0.45186 0.84171 0.0
C676 C 0.94347 0.31173 0.86646 0.0
C677 C 0.93263 0.30345 0.9041 0.0
H678 H 0.90593 0.29716 0.97674 0.0
H679 H 0.85763 0.33965 0.00549 0.0
H680 H 0.92486 0.39061 0.7632 0.0
H681 H 0.95779 0.33664 0.79431 0.0
H682 H 0.96566 0.2951 0.85315 0.0
H683 H 0.94673 0.28067 0.91922 0.0
Mn684 Mn 0.13116 0.00183 0.9072 0.0
Mn685 Mn 0.15794 0.08939 0.88124 0.0
C686 C 0.0852 0.04676 0.89198 0.0
C687 C 0.117 0.96182 0.95775 0.0
C688 C 0.16578 0.01926 0.83066 0.0
O689 O 0.18583 0.00555 0.92549 0.0
O690 O 0.19584 0.06823 0.91784 0.0
C691 C 0.15264 0.1305 0.95471 0.0
N692 N 0.14163 0.12636 0.91783 0.0
C693 C 0.09754 0.17835 0.92362 0.0
C694 C 0.10886 0.18341 0.96143 0.0
C695 C 0.13651 0.15934 0.97703 0.0
C696 C 0.115 0.14942 0.90254 0.0
H697 H 0.17295 0.1115 0.96734 0.0
C698 C 0.20398 0.03602 0.93297 0.0
O699 O 0.12724 0.94775 0.92515 0.0
O700 O 0.1148 0.99837 0.96035 0.0
N701 N 0.12147 0.1126 0.84799 0.0
C702 C 0.11282 0.10369 0.81135 0.0
C703 C 0.08458 0.12423 0.79216 0.0
C704 C 0.06573 0.15406 0.81064 0.0
C705 C 0.07559 0.16335 0.84805 0.0
C706 C 0.10415 0.14197 0.86569 0.0
H707 H 0.12753 0.08135 0.79668 0.0
O708 O 0.07722 0.01079 0.89092 0.0
O709 O 0.12005 0.05442 0.90079 0.0
O710 O 0.14744 0.99649 0.85199 0.0
O711 O 0.17457 0.05324 0.84044 0.0
C712 C 0.05793 0.19278 0.8686 0.0
C713 C 0.06889 0.20026 0.90636 0.0
H714 H 0.09613 0.20532 0.97889 0.0
H715 H 0.14505 0.1627 0.00636 0.0
H716 H 0.07743 0.11712 0.76313 0.0
H717 H 0.04383 0.16974 0.7958 0.0
H718 H 0.0357 0.20967 0.85572 0.0
H719 H 0.05482 0.22269 0.922 0.0
Mn720 Mn 0.59412 0.87089 0.49982 0.0
Mn721 Mn 0.61956 0.84434 0.58754 0.0
C722 C 0.6093 0.91695 0.54465 0.0
C723 C 0.54373 0.88542 0.45982 0.0
C724 C 0.67034 0.83602 0.51773 0.0
O725 O 0.5756 0.81619 0.50361 0.0
O726 O 0.58281 0.80653 0.56644 0.0
C727 C 0.54599 0.85077 0.62829 0.0
N728 N 0.58304 0.86119 0.62434 0.0
C729 C 0.57754 0.90557 0.67614 0.0
C730 C 0.5396 0.89471 0.68111 0.0
C731 C 0.52376 0.86724 0.657 0.0
C732 C 0.59853 0.88774 0.64736 0.0
H733 H 0.53315 0.83081 0.60911 0.0
C734 C 0.56801 0.79812 0.53414 0.0
O735 O 0.57621 0.87496 0.44566 0.0
O736 O 0.54116 0.88749 0.49637 0.0
N737 N 0.65302 0.88071 0.61057 0.0
C738 C 0.68961 0.88928 0.60142 0.0
C739 C 0.70897 0.91749 0.62182 0.0
C740 C 0.69068 0.93648 0.6517 0.0
C741 C 0.65326 0.92682 0.66112 0.0
C742 C 0.63546 0.89825 0.6399 0.0
H743 H 0.70411 0.87461 0.57893 0.0
O744 O 0.61056 0.92484 0.50866 0.0
O745 O 0.6004 0.88213 0.55234 0.0
O746 O 0.64925 0.85443 0.49477 0.0
O747 O 0.66025 0.82715 0.55161 0.0
C748 C 0.63284 0.94476 0.69047 0.0
C749 C 0.595 0.93415 0.69797 0.0
H750 H 0.52221 0.90774 0.70289 0.0
H751 H 0.4943 0.85915 0.6602 0.0
H752 H 0.73797 0.92456 0.61454 0.0
H753 H 0.70565 0.95838 0.66725 0.0
H754 H 0.64586 0.967 0.70725 0.0
H755 H 0.57943 0.94849 0.72029 0.0
Mn756 Mn 0.59468 0.12878 1.00002 0.0
Mn757 Mn 0.62115 0.15705 0.91316 0.0
C758 C 0.61035 0.08352 0.95447 0.0
C759 C 0.54417 0.11335 0.03952 0.0
C760 C 0.67096 0.16426 0.98369 0.0
O761 O 0.57593 0.1835 0.99697 0.0
O762 O 0.58387 0.19431 0.9344 0.0
C763 C 0.54842 0.15127 0.87092 0.0
N764 N 0.58539 0.14078 0.87542 0.0
C765 C 0.5811 0.09755 0.82255 0.0
C766 C 0.54325 0.10846 0.81706 0.0
C767 C 0.52683 0.13539 0.84142 0.0
C768 C 0.60143 0.11477 0.85214 0.0
H769 H 0.53514 0.17083 0.89024 0.0
C770 C 0.56861 0.20208 0.96668 0.0
O771 O 0.57651 0.12377 0.05396 0.0
O772 O 0.54175 0.11191 0.0029 0.0
N773 N 0.65518 0.12119 0.89008 0.0
C774 C 0.69155 0.11238 0.89986 0.0
C775 C 0.71141 0.08468 0.87922 0.0
C776 C 0.69383 0.06639 0.84851 0.0
C777 C 0.65659 0.07618 0.83857 0.0
C778 C 0.63825 0.10422 0.86006 0.0
H779 H 0.7055 0.12643 0.92309 0.0
O780 O 0.61139 0.07505 0.99034 0.0
O781 O 0.60149 0.11849 0.94733 0.0
O782 O 0.64967 0.14525 0.00593 0.0
O783 O 0.6612 0.17387 0.94993 0.0
C784 C 0.63683 0.05886 0.80842 0.0
C785 C 0.59911 0.06952 0.80042 0.0
H786 H 0.52635 0.09588 0.79465 0.0
H787 H 0.49743 0.14352 0.83778 0.0
H788 H 0.74025 0.07745 0.88697 0.0
H789 H 0.70919 0.04488 0.83278 0.0
H790 H 0.65028 0.03705 0.7914 0.0
H791 H 0.58405 0.05567 0.77747 0.0
Mn792 Mn 0.40717 0.36972 0.99941 0.0
Mn793 Mn 0.38139 0.34218 0.91216 0.0
C794 C 0.39187 0.41535 0.95413 0.0
C795 C 0.45766 0.38425 0.03921 0.0
C796 C 0.3308 0.3349 0.98224 0.0
O797 O 0.42539 0.31488 0.99627 0.0
O798 O 0.41836 0.30465 0.93354 0.0
C799 C 0.4547 0.34816 0.87089 0.0
N800 N 0.41765 0.35857 0.8749 0.0
C801 C 0.42265 0.40203 0.82226 0.0
C802 C 0.46058 0.39116 0.81722 0.0
C803 C 0.47668 0.36416 0.84171 0.0
C804 C 0.40193 0.38469 0.85153 0.0
H805 H 0.46773 0.32856 0.89033 0.0
C806 C 0.43313 0.29656 0.96596 0.0
O807 O 0.4251 0.37415 0.05345 0.0
O808 O 0.46025 0.38603 0.00263 0.0
N809 N 0.34773 0.37823 0.88885 0.0
C810 C 0.31121 0.38697 0.89817 0.0
C811 C 0.29165 0.4148 0.87741 0.0
C812 C 0.30966 0.43324 0.84703 0.0
C813 C 0.34701 0.42344 0.83748 0.0
C814 C 0.36503 0.39528 0.85907 0.0
H815 H 0.29692 0.37272 0.92106 0.0
O816 O 0.39091 0.42362 0.99004 0.0
O817 O 0.40079 0.38045 0.94673 0.0
O818 O 0.35197 0.35365 0.0048 0.0
O819 O 0.34086 0.32538 0.94853 0.0
C820 C 0.36716 0.44087 0.80764 0.0
C821 C 0.40496 0.43018 0.80004 0.0
H822 H 0.47778 0.40383 0.79507 0.0
H823 H 0.50614 0.35608 0.83845 0.0
H824 H 0.26271 0.42199 0.88482 0.0
H825 H 0.29453 0.45485 0.8312 0.0
H826 H 0.35396 0.46278 0.79055 0.0
H827 H 0.42031 0.44412 0.77732 0.0
Mn828 Mn 0.90739 0.13 0.00152 0.0
Mn829 Mn 0.88152 0.15683 0.08897 0.0
C830 C 0.89256 0.08394 0.04654 0.0
C831 C 0.95801 0.1164 0.96151 0.0
C832 C 0.83094 0.16438 0.01896 0.0
O833 O 0.92502 0.18498 0.00499 0.0
O834 O 0.91839 0.19457 0.06787 0.0
C835 C 0.95476 0.15077 0.1303 0.0
N836 N 0.91776 0.14026 0.12615 0.0
C837 C 0.92285 0.09639 0.17844 0.0
C838 C 0.96072 0.10735 0.18361 0.0
C839 C 0.97675 0.13461 0.15936 0.0
C840 C 0.9021 0.1139 0.1493 0.0
H841 H 0.96775 0.17058 0.11104 0.0
C842 C 0.93292 0.20301 0.03543 0.0
O843 O 0.9253 0.12619 0.94741 0.0
O844 O 0.96065 0.11425 0.99807 0.0
N845 N 0.84794 0.12051 0.11199 0.0
C846 C 0.81145 0.11178 0.10261 0.0
C847 C 0.79195 0.08373 0.12313 0.0
C848 C 0.80999 0.06507 0.15336 0.0
C849 C 0.8473 0.07488 0.16299 0.0
C850 C 0.86526 0.10326 0.14163 0.0
H851 H 0.79712 0.12621 0.07986 0.0
O852 O 0.8917 0.07585 0.01059 0.0
O853 O 0.9011 0.11889 0.05411 0.0
O854 O 0.85208 0.14565 0.99633 0.0
O855 O 0.84101 0.17381 0.05268 0.0
C856 C 0.86748 0.05726 0.19269 0.0
C857 C 0.90523 0.06799 0.2004 0.0
H858 H 0.97793 0.09455 0.20567 0.0
H859 H 0.00617 0.14276 0.16273 0.0
H860 H 0.76303 0.07655 0.11568 0.0
H861 H 0.79491 0.0433 0.169 0.0
H862 H 0.85433 0.03517 0.20959 0.0
H863 H 0.9206 0.0539 0.22301 0.0
C864 C 0.10867 0.04351 0.47394 0.0
C865 C 0.10788 0.06098 0.50969 0.0
H866 H 0.089 0.04439 0.417 0.0
C867 C 0.09238 0.09761 0.51318 0.0
H868 H 0.12054 0.01535 0.47031 0.0
C869 C 0.07502 0.11498 0.48172 0.0
C870 C 0.07374 0.09606 0.44661 0.0
H871 H 0.09123 0.11151 0.54059 0.0
H872 H 0.06078 0.142 0.48531 0.0
C873 C 0.09126 0.06054 0.44303 0.0
C874 C 0.92768 0.38397 0.48442 0.0
C875 C 0.92858 0.40243 0.44903 0.0
H876 H 0.91167 0.38801 0.54334 0.0
C877 C 0.91052 0.43763 0.44507 0.0
H878 H 0.94236 0.35723 0.48832 0.0
C879 C 0.89293 0.45479 0.47581 0.0
C880 C 0.89413 0.43785 0.51181 0.0
H881 H 0.91255 0.45354 0.41886 0.0
H882 H 0.88065 0.48273 0.47183 0.0
C883 C 0.91018 0.40151 0.51574 0.0
C884 C 0.09009 0.93865 0.05761 0.0
C885 C 0.07258 0.90315 0.05392 0.0
H886 H 0.11942 0.9839 0.03055 0.0
C887 C 0.07377 0.88443 0.01869 0.0
H888 H 0.08786 0.95469 0.08372 0.0
C889 C 0.09113 0.90193 0.98727 0.0
C890 C 0.10671 0.9385 0.99093 0.0
H891 H 0.05951 0.85744 0.01501 0.0
H892 H 0.08995 0.88816 0.9598 0.0
C893 C 0.10751 0.95579 0.02677 0.0
C894 C 0.92887 0.617 0.02181 0.0
C895 C 0.92923 0.59781 0.05682 0.0
H896 H 0.9132 0.61441 0.96274 0.0
C897 C 0.91044 0.56294 0.06003 0.0
H898 H 0.9441 0.64351 0.0185 0.0
C899 C 0.89268 0.54676 0.02888 0.0
C900 C 0.89447 0.56435 0.99321 0.0
H901 H 0.91201 0.54649 0.08593 0.0
H902 H 0.87985 0.51899 0.03224 0.0
C903 C 0.91122 0.60044 0.99008 0.0
C904 C 0.44478 0.08429 0.06172 0.0
C905 C 0.44822 0.06762 0.09767 0.0
H906 H 0.47179 0.11341 0.01636 0.0
C907 C 0.48321 0.06938 0.11672 0.0
H908 H 0.41883 0.08168 0.04551 0.0
C909 C 0.51457 0.08692 0.09926 0.0
C910 C 0.51106 0.10207 0.06245 0.0
H911 H 0.48666 0.05585 0.14413 0.0
H912 H 0.54185 0.08649 0.11341 0.0
C913 C 0.4755 0.10187 0.04466 0.0
C914 C 0.55719 0.41238 0.06172 0.0
C915 C 0.55348 0.42996 0.09718 0.0
H916 H 0.53031 0.38249 0.01676 0.0
C917 C 0.51839 0.42848 0.11612 0.0
H918 H 0.58317 0.41483 0.04551 0.0
C919 C 0.48711 0.4107 0.09887 0.0
C920 C 0.49078 0.39497 0.06234 0.0
H921 H 0.51469 0.44279 0.1431 0.0
H922 H 0.45971 0.41164 0.11278 0.0
C923 C 0.52652 0.3945 0.04485 0.0
C924 C 0.51396 0.9118 0.40014 0.0
C925 C 0.51055 0.89603 0.4367 0.0
H926 H 0.4858 0.94332 0.35578 0.0
C927 C 0.47489 0.89535 0.45432 0.0
H928 H 0.54131 0.91294 0.38614 0.0
C929 C 0.44401 0.91288 0.43752 0.0
C930 C 0.44734 0.93029 0.40191 0.0
H931 H 0.47127 0.88332 0.48243 0.0
H932 H 0.41807 0.91504 0.45382 0.0
C933 C 0.48241 0.92921 0.3829 0.0
C934 C 0.48733 0.59053 0.40203 0.0
C935 C 0.49081 0.60673 0.43835 0.0
H936 H 0.51529 0.5582 0.35819 0.0
C937 C 0.52657 0.60803 0.45572 0.0
H938 H 0.45991 0.58896 0.38823 0.0
C939 C 0.5575 0.59039 0.439 0.0
C940 C 0.55397 0.57221 0.40381 0.0
H941 H 0.5302 0.62044 0.48365 0.0
H942 H 0.58351 0.58847 0.45519 0.0
C943 C 0.51884 0.57298 0.38493 0.0
C944 C 0.11715 0.48093 0.0741 0.0
C945 C 0.09828 0.44579 0.07309 0.0
H946 H 0.11387 0.53975 0.09051 0.0
C947 C 0.06313 0.44211 0.09131 0.0
H948 H 0.14386 0.4846 0.05932 0.0
C949 C 0.04642 0.47293 0.10918 0.0
C950 C 0.06377 0.50872 0.10813 0.0
H951 H 0.04696 0.4161 0.08924 0.0
H952 H 0.01851 0.46921 0.12159 0.0
C953 C 0.10007 0.51232 0.0919 0.0
C954 C 0.04499 0.52609 0.39629 0.0
C955 C 0.06266 0.49044 0.39726 0.0
H956 H 0.04545 0.58309 0.41576 0.0
C957 C 0.09921 0.48719 0.41294 0.0
H958 H 0.01688 0.52956 0.38428 0.0
C959 C 0.11633 0.51882 0.43022 0.0
C960 C 0.09724 0.55384 0.43124 0.0
H961 H 0.11326 0.45987 0.41425 0.0
H962 H 0.14333 0.51546 0.44455 0.0
C963 C 0.06175 0.55714 0.41365 0.0
C964 C 0.88528 0.98181 0.42893 0.0
C965 C 0.90406 0.94662 0.43009 0.0
H966 H 0.88879 0.0406 0.41244 0.0
C967 C 0.93935 0.94284 0.41218 0.0
H968 H 0.85845 0.98554 0.44349 0.0
C969 C 0.95622 0.97356 0.39434 0.0
C970 C 0.93893 0.00939 0.39519 0.0
H971 H 0.95545 0.91677 0.41439 0.0
H972 H 0.98419 0.96972 0.38211 0.0
C973 C 0.90255 0.01313 0.4112 0.0
C974 C 0.38393 0.51987 0.57379 0.0
C975 C 0.40276 0.55504 0.57302 0.0
H976 H 0.38729 0.46092 0.58972 0.0
C977 C 0.43788 0.55862 0.59128 0.0
H978 H 0.35724 0.51628 0.55897 0.0
C979 C 0.4546 0.5277 0.60894 0.0
C980 C 0.43731 0.4919 0.60758 0.0
H981 H 0.45405 0.58466 0.58936 0.0
H982 H 0.4825 0.53137 0.62137 0.0
C983 C 0.40104 0.48837 0.59134 0.0
C984 C 0.58815 0.60092 0.01397 0.0
C985 C 0.60507 0.56495 0.01031 0.0
H986 H 0.55505 0.64428 0.98618 0.0
C987 C 0.60688 0.54788 0.9744 0.0
H988 H 0.58616 0.61449 0.0415 0.0
C989 C 0.58903 0.56445 0.94349 0.0
C990 C 0.5701 0.59922 0.94719 0.0
H991 H 0.61983 0.52021 0.97064 0.0
H992 H 0.58751 0.54838 0.91736 0.0
C993 C 0.57039 0.61788 0.98248 0.0
C994 C 0.40884 0.90038 0.01335 0.0
C995 C 0.39238 0.93665 0.01079 0.0
H996 H 0.44108 0.85733 0.98407 0.0
C997 C 0.39057 0.95469 0.97533 0.0
H998 H 0.41091 0.8861 0.04052 0.0
C999 C 0.40806 0.93881 0.94387 0.0
C1000 C 0.42644 0.90367 0.94642 0.0
H1001 H 0.37799 0.98264 0.97241 0.0
H1002 H 0.40968 0.95565 0.91822 0.0
C1003 C 0.42611 0.88404 0.98122 0.0
C1004 C 0.59032 0.43913 0.55888 0.0
C1005 C 0.57212 0.40396 0.55546 0.0
H1006 H 0.62037 0.48366 0.5314 0.0
C1007 C 0.57294 0.38494 0.52038 0.0
H1008 H 0.58838 0.45542 0.58484 0.0
C1009 C 0.5905 0.4019 0.48879 0.0
C1010 C 0.60669 0.43823 0.49214 0.0
H1011 H 0.55815 0.3582 0.51691 0.0
H1012 H 0.58893 0.388 0.4614 0.0
C1013 C 0.60799 0.45571 0.52787 0.0
C1014 C 0.40973 0.06351 0.55449 0.0
C1015 C 0.42792 0.09866 0.5508 0.0
H1016 H 0.3797 0.01875 0.52743 0.0
C1017 C 0.42722 0.11731 0.51548 0.0
H1018 H 0.41163 0.04742 0.58058 0.0
C1019 C 0.40971 0.10003 0.484 0.0
C1020 C 0.39345 0.06377 0.48771 0.0
H1021 H 0.44202 0.144 0.51177 0.0
H1022 H 0.41139 0.11362 0.45646 0.0
C1023 C 0.3921 0.04666 0.52363 0.0
C1024 C 0.97393 0.6091 0.54744 0.0
C1025 C 0.0096 0.60753 0.56497 0.0
H1026 H 0.91694 0.58977 0.54755 0.0
C1027 C 0.01281 0.59126 0.6013 0.0
H1028 H 0.97052 0.62156 0.5195 0.0
C1029 C 0.98109 0.5739 0.61821 0.0
C1030 C 0.94606 0.57332 0.59912 0.0
H1031 H 0.04015 0.58946 0.61522 0.0
H1032 H 0.98442 0.55905 0.64495 0.0
C1033 C 0.94283 0.59158 0.56394 0.0
C1034 C 0.98792 0.91016 0.60074 0.0
C1035 C 0.9913 0.89334 0.56469 0.0
H1036 H 0.01618 0.94275 0.64413 0.0
C1037 C 0.02714 0.89104 0.54756 0.0
H1038 H 0.96045 0.9125 0.61435 0.0
C1039 C 0.05831 0.90839 0.56414 0.0
C1040 C 0.05489 0.92731 0.59896 0.0
H1041 H 0.03067 0.87814 0.51983 0.0
H1042 H 0.08441 0.9096 0.54802 0.0
C1043 C 0.01965 0.92742 0.61769 0.0
C1044 C 0.9742 0.39439 0.95626 0.0
C1045 C 0.00991 0.39532 0.93871 0.0
H1046 H 0.91741 0.41444 0.95598 0.0
C1047 C 0.01339 0.41159 0.90239 0.0
H1048 H 0.97056 0.38196 0.98419 0.0
C1049 C 0.98199 0.42948 0.88547 0.0
C1050 C 0.94693 0.43054 0.9045 0.0
H1051 H 0.04076 0.41289 0.88844 0.0
H1052 H 0.98557 0.44424 0.85872 0.0
C1053 C 0.94337 0.41235 0.93969 0.0
C1054 C 0.01951 0.07344 0.8845 0.0
C1055 C 0.05469 0.07286 0.9033 0.0
H1056 H 0.96044 0.08884 0.88805 0.0
C1057 C 0.05814 0.09084 0.9386 0.0
H1058 H 0.01603 0.05881 0.85768 0.0
C1059 C 0.02709 0.10807 0.95551 0.0
C1060 C 0.9913 0.10656 0.93822 0.0
H1061 H 0.08421 0.08909 0.95472 0.0
H1062 H 0.03067 0.12034 0.98351 0.0
C1063 C 0.98787 0.09057 0.9018 0.0
C1064 C 0.54499 0.97512 0.60504 0.0
C1065 C 0.56234 0.01089 0.60383 0.0
H1066 H 0.54598 0.91802 0.586 0.0
C1067 C 0.59897 0.0143 0.58834 0.0
H1068 H 0.51683 0.97154 0.61692 0.0
C1069 C 0.61646 0.98267 0.57141 0.0
C1070 C 0.59765 0.9475 0.57055 0.0
H1071 H 0.61279 0.04173 0.58686 0.0
H1072 H 0.64349 0.98613 0.55716 0.0
C1073 C 0.5621 0.94407 0.58802 0.0
C1074 C 0.56363 0.05744 0.90993 0.0
C1075 C 0.59878 0.05335 0.92803 0.0
H1076 H 0.51835 0.03083 0.8803 0.0
C1077 C 0.61694 0.0178 0.92744 0.0
H1078 H 0.54788 0.08372 0.91179 0.0
C1079 C 0.59914 0.98648 0.91024 0.0
C1080 C 0.56284 0.99058 0.89417 0.0
H1081 H 0.64362 0.01379 0.94217 0.0
H1082 H 0.61238 0.95878 0.91199 0.0
C1083 C 0.54624 0.02671 0.89261 0.0
C1084 C 0.45441 0.47395 0.89226 0.0
C1085 C 0.43673 0.50957 0.89383 0.0
H1086 H 0.45431 0.41679 0.9113 0.0
C1087 C 0.4003 0.51257 0.90987 0.0
H1088 H 0.48243 0.47069 0.87995 0.0
C1089 C 0.38344 0.48075 0.92707 0.0
C1090 C 0.40264 0.44578 0.92768 0.0
H1091 H 0.38624 0.53986 0.91162 0.0
H1092 H 0.35664 0.48397 0.94181 0.0
C1093 C 0.43789 0.44268 0.90953 0.0
C1094 C 0.88485 0.01839 0.0736 0.0
C1095 C 0.90372 0.05354 0.07286 0.0
H1096 H 0.88821 0.95936 0.0893 0.0
C1097 C 0.93896 0.05699 0.0909 0.0
H1098 H 0.85806 0.01489 0.05892 0.0
C1099 C 0.95574 0.02597 0.10835 0.0
C1100 C 0.93839 0.99019 0.10698 0.0
H1101 H 0.95515 0.083 0.08899 0.0
H1102 H 0.98371 0.02955 0.12063 0.0
C1103 C 0.90201 0.98678 0.09093 0.0
C1104 C 0.00827 0.2304 0.3691 0.0
C1105 C 0.01008 0.2104 0.33473 0.0
H1106 H 1.0003 0.28391 0.39654 0.0
C1107 C 0.00379 0.22996 0.30046 0.0
H1108 H 0.01303 0.21594 0.39586 0.0
C1109 C 0.99504 0.26904 0.30095 0.0
C1110 C 0.99429 0.28901 0.33556 0.0
H1111 H 0.00505 0.21499 0.27362 0.0
H1112 H 0.98936 0.28366 0.27449 0.0
C1113 C 0.00131 0.26931 0.36945 0.0
C1114 C 0.99852 0.72972 0.13434 0.0
C1115 C 0.99418 0.71028 0.16883 0.0
H1116 H 0.00796 0.78289 0.10664 0.0
C1117 C 0.99744 0.73054 0.20311 0.0
H1118 H 0.99575 0.71481 0.10754 0.0
C1119 C 0.00591 0.76968 0.20259 0.0
C1120 C 0.00933 0.78902 0.16778 0.0
H1121 H 0.99398 0.71608 0.23004 0.0
H1122 H 0.00921 0.78485 0.22914 0.0
C1123 C 0.00514 0.76868 0.13382 0.0
C1124 C 0.32213 0.03732 0.23946 0.0
C1125 C 0.32467 0.00919 0.21111 0.0
H1126 H 0.3235 0.0499 0.29904 0.0
C1127 C 0.32314 0.9709 0.22229 0.0
H1128 H 0.32232 0.06715 0.23204 0.0
C1129 C 0.3221 0.96103 0.26085 0.0
C1130 C 0.32418 0.98917 0.28923 0.0
H1131 H 0.32429 0.94846 0.20128 0.0
H1132 H 0.32227 0.9312 0.26829 0.0
C1133 C 0.32268 0.02746 0.27802 0.0
C1134 C 0.70066 0.49874 0.2306 0.0
C1135 C 0.66606 0.49336 0.21142 0.0
H1136 H 0.72756 0.512 0.28414 0.0
C1137 C 0.63201 0.49549 0.23192 0.0
H1138 H 0.72727 0.49713 0.21527 0.0
C1139 C 0.6323 0.50188 0.27093 0.0
C1140 C 0.66654 0.50805 0.29026 0.0
H1141 H 0.60501 0.49131 0.21777 0.0
H1142 H 0.60545 0.50313 0.28594 0.0
C1143 C 0.70084 0.50698 0.2698 0.0
C1144 C 0.2701 0.36711 0.99551 0.0
C1145 C 0.29003 0.33283 0.99191 0.0
H1146 H 0.2166 0.39424 0.00463 0.0
C1147 C 0.2703 0.29835 0.99604 0.0
H1148 H 0.28462 0.39405 0.99217 0.0
C1149 C 0.23119 0.29849 0.00462 0.0
C1150 C 0.21134 0.33307 0.0073 0.0
H1151 H 0.28515 0.27157 0.99322 0.0
H1152 H 0.21644 0.27182 0.00866 0.0
C1153 C 0.23116 0.36722 0.00226 0.0
C1154 C 0.23121 0.6332 0.49621 0.0
C1155 C 0.2109 0.66732 0.49346 0.0
H1156 H 0.28505 0.60651 0.50437 0.0
C1157 C 0.23022 0.70194 0.4983 0.0
H1158 H 0.21696 0.60619 0.49243 0.0
C1159 C 0.26937 0.70207 0.50661 0.0
C1160 C 0.28963 0.66768 0.50831 0.0
H1161 H 0.21502 0.72859 0.49621 0.0
H1162 H 0.28382 0.72881 0.51119 0.0
C1163 C 0.27017 0.63341 0.50267 0.0
C1164 C 0.73079 0.79934 0.50427 0.0
C1165 C 0.71112 0.83386 0.50829 0.0
H1166 H 0.78472 0.7727 0.49215 0.0
C1167 C 0.73112 0.86811 0.50496 0.0
H1168 H 0.71586 0.77259 0.50689 0.0
C1169 C 0.77012 0.86813 0.49864 0.0
C1170 C 0.78991 0.83393 0.49374 0.0
H1171 H 0.71661 0.89507 0.5082 0.0
H1172 H 0.78476 0.89511 0.4965 0.0
C1173 C 0.76998 0.7994 0.4961 0.0
C1174 C 0.48308 0.76926 0.86669 0.0
C1175 C 0.48744 0.79082 0.83352 0.0
H1176 H 0.48656 0.71469 0.89287 0.0
C1177 C 0.50059 0.77294 0.80032 0.0
H1178 H 0.47403 0.78259 0.89292 0.0
C1179 C 0.50937 0.73385 0.80067 0.0
C1180 C 0.50362 0.71217 0.8338 0.0
H1181 H 0.50465 0.7892 0.77453 0.0
H1182 H 0.52035 0.72058 0.77519 0.0
C1183 C 0.49019 0.73036 0.86662 0.0
C1184 C 0.50269 0.27024 0.7011 0.0
C1185 C 0.50781 0.29035 0.66695 0.0
H1186 H 0.48922 0.2161 0.7267 0.0
C1187 C 0.50496 0.27084 0.63235 0.0
H1188 H 0.50482 0.28478 0.72811 0.0
C1189 C 0.49806 0.23193 0.63163 0.0
C1190 C 0.49212 0.21171 0.66543 0.0
H1191 H 0.50896 0.28568 0.60567 0.0
H1192 H 0.49632 0.2177 0.60439 0.0
C1193 C 0.49397 0.23115 0.7003 0.0
C1194 C 0.7994 0.49652 0.77111 0.0
C1195 C 0.83393 0.49563 0.79118 0.0
H1196 H 0.77231 0.50624 0.7169 0.0
C1197 C 0.86792 0.5021 0.77147 0.0
H1198 H 0.77287 0.49125 0.78574 0.0
C1199 C 0.86772 0.50857 0.73247 0.0
C1200 C 0.83344 0.5105 0.71236 0.0
H1201 H 0.89493 0.50097 0.78616 0.0
H1202 H 0.89455 0.51292 0.71801 0.0
C1203 C 0.79909 0.50484 0.73193 0.0
C1204 C 0.13414 1.00095 0.73048 0.0
C1205 C 0.16815 0.9927 0.71146 0.0
H1206 H 0.10711 0.01396 0.78324 0.0
C1207 C 0.20236 0.99258 0.73211 0.0
H1208 H 0.10733 1.00057 0.7154 0.0
C1209 C 0.20237 0.00174 0.77112 0.0
C1210 C 0.16798 0.00938 0.78994 0.0
H1211 H 0.22888 0.98591 0.71806 0.0
H1212 H 0.22892 0.00228 0.7866 0.0
C1213 C 0.13398 0.00834 0.76931 0.0
C1214 C 0.77025 0.13234 0.00558 0.0
C1215 C 0.7902 0.16657 0.0093 0.0
H1216 H 0.71675 0.10536 0.99631 0.0
C1217 C 0.77055 0.20111 0.0052 0.0
H1218 H 0.78472 0.10537 0.00886 0.0
C1219 C 0.73147 0.20108 0.99656 0.0
C1220 C 0.71159 0.16655 0.99378 0.0
H1221 H 0.78545 0.22785 0.00809 0.0
H1222 H 0.71676 0.22779 0.99256 0.0
C1223 C 0.73134 0.13234 0.99876 0.0
C1224 C 0.06921 0.98268 0.24033 0.0
C1225 C 0.03506 0.9649 0.22983 0.0
H1226 H 0.09621 0.03043 0.2657 0.0
C1227 C 1.00065 0.98249 0.24023 0.0
H1228 H 0.09635 0.97018 0.23328 0.0
C1229 C 1.00059 0.01666 0.26081 0.0
C1230 C 0.03492 0.03476 0.27051 0.0
H1231 H 0.97371 0.96999 0.23233 0.0
H1232 H 0.97362 0.02871 0.26935 0.0
C1233 C 0.06913 0.01754 0.2592 0.0
C1234 C 0.00197 0.48202 0.26307 0.0
C1235 C 0.96746 0.46467 0.27353 0.0
H1236 H 0.02925 0.52804 0.23388 0.0
C1237 C 0.93341 0.48271 0.26309 0.0
H1238 H 0.02884 0.46929 0.27088 0.0
C1239 C 0.93369 0.5176 0.24424 0.0
C1240 C 0.968 0.53459 0.2329 0.0
H1241 H 0.90621 0.47039 0.27013 0.0
H1242 H 0.90669 0.53069 0.23778 0.0
C1243 C 0.00222 0.5162 0.2425 0.0
C1244 C 0.24294 0.06988 0.98222 0.0
C1245 C 0.23048 0.03555 0.96602 0.0
H1246 H 0.27041 0.09747 0.02859 0.0
C1247 C 0.23882 0.00148 0.98525 0.0
H1248 H 0.23719 0.09679 0.96855 0.0
C1249 C 0.25944 0.00179 0.01932 0.0
C1250 C 0.27137 0.03627 0.03573 0.0
H1251 H 0.2291 0.97449 0.97422 0.0
H1252 H 0.26623 0.97493 0.03266 0.0
C1253 C 0.26211 0.0703 0.01698 0.0
C1254 C 0.73946 0.50324 0.01794 0.0
C1255 C 0.72962 0.46886 0.03592 0.0
H1256 H 0.76825 0.53021 0.97147 0.0
C1257 C 0.74102 0.43467 0.01874 0.0
H1258 H 0.73084 0.5302 0.02997 0.0
C1259 C 0.76019 0.43464 0.98403 0.0
C1260 C 0.77084 0.46883 0.96639 0.0
H1261 H 0.73438 0.40755 0.03153 0.0
H1262 H 0.76734 0.40751 0.97157 0.0
C1263 C 0.76029 0.50324 0.98391 0.0
C1264 C 0.26073 0.99813 0.48317 0.0
C1265 C 0.27105 0.96369 0.46558 0.0
H1266 H 0.23218 0.02534 0.52956 0.0
C1267 C 0.26059 0.92954 0.48346 0.0
H1268 H 0.26864 0.02508 0.47065 0.0
C1269 C 0.24168 0.92972 0.51839 0.0
C1270 C 0.23068 0.96402 0.53568 0.0
H1271 H 0.26777 0.90239 0.47103 0.0
H1272 H 0.23507 0.90269 0.53137 0.0
C1273 C 0.24043 0.9983 0.51747 0.0
C1274 C 0.75897 0.5687 0.51873 0.0
C1275 C 0.77016 0.53453 0.53611 0.0
H1276 H 0.73328 0.5958 0.47117 0.0
C1277 C 0.76055 0.50014 0.51806 0.0
H1278 H 0.76544 0.59583 0.53156 0.0
C1279 C 0.74012 0.5001 0.4838 0.0
C1280 C 0.72978 0.53447 0.46608 0.0
H1281 H 0.76904 0.47319 0.53022 0.0
H1282 H 0.73229 0.4731 0.47133 0.0
C1283 C 0.74024 0.56869 0.48378 0.0
C1284 C 0.01865 0.25901 0.06834 0.0
C1285 C 0.03569 0.27029 0.03402 0.0
H1286 H 0.97145 0.23311 0.09584 0.0
C1287 C 0.01736 0.26069 0.99977 0.0
H1288 H 0.0317 0.26546 0.09537 0.0
C1289 C 0.98321 0.24011 1.00001 0.0
C1290 C 0.96584 0.22965 0.03454 0.0
H1291 H 0.02923 0.26928 0.97273 0.0
H1292 H 0.97054 0.23225 0.97311 0.0
C1293 C 0.98379 0.24016 0.06862 0.0
C1294 C 0.01763 0.74072 0.43388 0.0
C1295 C 0.03533 0.73017 0.46809 0.0
H1296 H 0.96992 0.76613 0.40682 0.0
C1297 C 0.01772 0.74055 0.5025 0.0
H1298 H 0.03017 0.73369 0.40674 0.0
C1299 C 0.98354 0.76107 0.50252 0.0
C1300 C 0.96546 0.77073 0.46815 0.0
H1301 H 0.0302 0.73265 0.52948 0.0
H1302 H 0.97147 0.76959 0.52949 0.0
C1303 C 0.98277 0.75958 0.43392 0.0
C1304 C 0.51744 0.76092 0.49932 0.0
C1305 C 0.53516 0.77139 0.53363 0.0
H1306 H 0.47124 0.73159 0.4726 0.0
C1307 C 0.51765 0.76075 0.56792 0.0
H1308 H 0.52977 0.76886 0.47227 0.0
C1309 C 0.48284 0.7418 0.56807 0.0
C1310 C 0.46541 0.73059 0.53395 0.0
H1311 H 0.53029 0.76779 0.595 0.0
H1312 H 0.47012 0.73524 0.59525 0.0
C1313 C 0.48337 0.74023 0.49949 0.0
C1314 C 0.56694 0.51883 0.76112 0.0
C1315 C 0.53269 0.53655 0.77147 0.0
H1316 H 0.59419 0.47096 0.73611 0.0
C1317 C 0.49839 0.51871 0.76119 0.0
H1318 H 0.594 0.53152 0.76806 0.0
C1319 C 0.49852 0.48439 0.74088 0.0
C1320 C 0.53294 0.46633 0.73134 0.0
H1321 H 0.47137 0.53115 0.76898 0.0
H1322 H 0.47162 0.47218 0.73242 0.0
C1323 C 0.56705 0.4838 0.7425 0.0
C1324 C 0.43172 0.98332 0.75665 0.0
C1325 C 0.46593 0.96661 0.7687 0.0
H1326 H 0.40441 0.03004 0.72972 0.0
C1327 C 0.50022 0.98488 0.7591 0.0
H1328 H 0.40466 0.97032 0.76311 0.0
C1329 C 0.50011 0.01874 0.73797 0.0
C1330 C 0.46568 0.03589 0.72692 0.0
H1331 H 0.52717 0.97322 0.7682 0.0
H1332 H 0.52703 0.03144 0.73027 0.0
C1333 C 0.43157 0.0179 0.73723 0.0
C1334 C 0.48376 0.25898 0.93278 0.0
C1335 C 0.46605 0.26987 0.96688 0.0
H1336 H 0.53142 0.23324 0.90594 0.0
C1337 C 0.48361 0.25966 1.00138 0.0
H1338 H 0.47132 0.26589 0.90558 0.0
C1339 C 0.51762 0.23882 0.00158 0.0
C1340 C 0.53569 0.22878 0.9673 0.0
H1341 H 0.47119 0.26794 0.02827 0.0
H1342 H 0.52964 0.23044 0.02862 0.0
C1343 C 0.51853 0.23993 0.933 0.0
loop_
_geom_bond_atom_site_label_1
_geom_bond_atom_site_label_2
_geom_bond_distance
_geom_bond_site_symmetry_2
_ccdc_geom_bond_type
Mn0 O5 2.095 . S
Mn0 O15 2.162 . S
Mn0 O16 2.297 . S
Mn0 O24 2.385 1_655 S
Mn0 O25 2.209 1_655 S
Mn0 O26 2.094 . S
Mn1 O6 2.121 . S
Mn1 N8 2.257 . S
Mn1 N17 2.282 . S
Mn1 O25 2.215 . S
Mn1 O27 2.117 . S
C2 O24 1.234 . S
C2 O25 1.283 . S
C3 O15 1.281 . S
C3 O16 1.236 . S
C4 O26 1.240 . S
C4 O27 1.264 1_655 S
O5 Mn0 2.095 . S
O5 C14 1.250 1_655 S
O6 Mn1 2.121 . S
O6 C14 1.258 . S
C7 N8 1.326 . S
C7 C11 1.460 . S
C7 H13 0.929 . S
N8 Mn1 2.257 . S
N8 C7 1.326 . S
N8 C12 1.362 . S
C9 C10 1.258 . S
C9 C12 1.431 . S
C9 C29 1.449 . S
C10 C9 1.258 . S
C10 C11 1.477 . S
C10 H30 0.931 . S
C11 C7 1.460 . S
C11 C10 1.477 . S
C11 H31 0.930 . S
C12 N8 1.362 . S
C12 C9 1.431 . S
C12 C22 1.476 . S
H13 C7 0.929 . S
C14 O5 1.250 1_455 S
C14 O6 1.258 . S
O15 Mn0 2.162 . S
O15 C3 1.281 . S
O16 Mn0 2.297 . S
O16 C3 1.236 . S
N17 Mn1 2.282 . S
N17 C18 1.328 . S
N17 C22 1.318 . S
C18 N17 1.328 . S
C18 C19 1.457 . S
C18 H23 0.929 . S
C19 C18 1.457 . S
C19 C20 1.291 . S
C19 H32 0.931 . S
C20 C19 1.291 . S
C20 C21 1.373 . S
C20 H33 0.929 . S
C21 C20 1.373 . S
C21 C22 1.396 . S
C21 C28 1.403 . S
C22 C12 1.476 . S
C22 N17 1.318 . S
C22 C21 1.396 . S
H23 C18 0.929 . S
O24 Mn0 2.385 1_455 S
O24 C2 1.234 . S
O25 Mn0 2.209 1_455 S
O25 Mn1 2.215 . S
O25 C2 1.283 . S
O26 Mn0 2.094 . S
O26 C4 1.240 . S
O27 Mn1 2.117 . S
O27 C4 1.264 1_455 S
C28 C21 1.403 . S
C28 C29 1.399 . S
C28 H34 0.929 . S
C29 C9 1.449 . S
C29 C28 1.399 . S
C29 H35 0.930 . S
H30 C10 0.931 . S
H31 C11 0.930 . S
H32 C19 0.931 . S
H33 C20 0.929 . S
H34 C28 0.929 . S
H35 C29 0.930 . S
Mn36 O41 2.095 . S
Mn36 O51 2.162 . S
Mn36 O52 2.297 . S
Mn36 O60 2.385 1_455 S
Mn36 O61 2.209 1_455 S
Mn36 O62 2.094 . S
Mn37 O42 2.121 . S
Mn37 N44 2.257 . S
Mn37 N53 2.282 . S
Mn37 O61 2.215 . S
Mn37 O63 2.117 . S
C38 O60 1.234 . S
C38 O61 1.283 . S
C39 O51 1.281 . S
C39 O52 1.236 . S
C40 O62 1.240 . S
C40 O63 1.264 1_455 S
O41 Mn36 2.095 . S
O41 C50 1.250 1_455 S
O42 Mn37 2.121 . S
O42 C50 1.258 . S
C43 N44 1.326 . S
C43 C47 1.460 . S
C43 H49 0.929 . S
N44 Mn37 2.257 . S
N44 C43 1.326 . S
N44 C48 1.362 . S
C45 C46 1.258 . S
C45 C48 1.431 . S
C45 C65 1.449 . S
C46 C45 1.258 . S
C46 C47 1.477 . S
C46 H66 0.931 . S
C47 C43 1.460 . S
C47 C46 1.477 . S
C47 H67 0.930 . S
C48 N44 1.362 . S
C48 C45 1.431 . S
C48 C58 1.476 . S
H49 C43 0.929 . S
C50 O41 1.250 1_655 S
C50 O42 1.258 . S
O51 Mn36 2.162 . S
O51 C39 1.281 . S
O52 Mn36 2.297 . S
O52 C39 1.236 . S
N53 Mn37 2.282 . S
N53 C54 1.328 . S
N53 C58 1.318 . S
C54 N53 1.328 . S
C54 C55 1.457 . S
C54 H59 0.929 . S
C55 C54 1.457 . S
C55 C56 1.291 . S
C55 H68 0.931 . S
C56 C55 1.291 . S
C56 C57 1.373 . S
C56 H69 0.929 . S
C57 C56 1.373 . S
C57 C58 1.396 . S
C57 C64 1.403 . S
C58 C48 1.476 . S
C58 N53 1.318 . S
C58 C57 1.396 . S
H59 C54 0.929 . S
O60 Mn36 2.385 1_655 S
O60 C38 1.234 . S
O61 Mn36 2.209 1_655 S
O61 Mn37 2.215 . S
O61 C38 1.283 . S
O62 Mn36 2.094 . S
O62 C40 1.240 . S
O63 Mn37 2.117 . S
O63 C40 1.264 1_655 S
C64 C57 1.403 . S
C64 C65 1.399 . S
C64 H70 0.929 . S
C65 C45 1.449 . S
C65 C64 1.399 . S
C65 H71 0.930 . S
H66 C46 0.931 . S
H67 C47 0.930 . S
H68 C55 0.931 . S
H69 C56 0.929 . S
H70 C64 0.929 . S
H71 C65 0.930 . S
Mn72 O77 2.095 . S
Mn72 O87 2.162 . S
Mn72 O88 2.297 . S
Mn72 O96 2.385 1_655 S
Mn72 O97 2.209 1_655 S
Mn72 O98 2.094 . S
Mn73 O78 2.121 . S
Mn73 N80 2.257 . S
Mn73 N89 2.282 . S
Mn73 O97 2.215 . S
Mn73 O99 2.117 . S
C74 O96 1.234 . S
C74 O97 1.283 . S
C75 O87 1.281 . S
C75 O88 1.236 . S
C76 O98 1.240 . S
C76 O99 1.264 1_655 S
O77 Mn72 2.095 . S
O77 C86 1.250 1_655 S
O78 Mn73 2.121 . S
O78 C86 1.258 . S
C79 N80 1.326 . S
C79 C83 1.460 . S
C79 H85 0.929 . S
N80 Mn73 2.257 . S
N80 C79 1.326 . S
N80 C84 1.362 . S
C81 C82 1.258 . S
C81 C84 1.431 . S
C81 C101 1.449 . S
C82 C81 1.258 . S
C82 C83 1.477 . S
C82 H102 0.931 . S
C83 C79 1.460 . S
C83 C82 1.477 . S
C83 H103 0.930 . S
C84 N80 1.362 . S
C84 C81 1.431 . S
C84 C94 1.476 . S
H85 C79 0.929 . S
C86 O77 1.250 1_455 S
C86 O78 1.258 . S
O87 Mn72 2.162 . S
O87 C75 1.281 . S
O88 Mn72 2.297 . S
O88 C75 1.236 . S
N89 Mn73 2.282 . S
N89 C90 1.328 . S
N89 C94 1.318 . S
C90 N89 1.328 . S
C90 C91 1.457 . S
C90 H95 0.929 . S
C91 C90 1.457 . S
C91 C92 1.291 . S
C91 H104 0.931 . S
C92 C91 1.291 . S
C92 C93 1.373 . S
C92 H105 0.929 . S
C93 C92 1.373 . S
C93 C94 1.396 . S
C93 C100 1.403 . S
C94 C84 1.476 . S
C94 N89 1.318 . S
C94 C93 1.396 . S
H95 C90 0.929 . S
O96 Mn72 2.385 1_455 S
O96 C74 1.234 . S
O97 Mn72 2.209 1_455 S
O97 Mn73 2.215 . S
O97 C74 1.283 . S
O98 Mn72 2.094 . S
O98 C76 1.240 . S
O99 Mn73 2.117 . S
O99 C76 1.264 1_455 S
C100 C93 1.403 . S
C100 C101 1.399 . S
C100 H106 0.929 . S
C101 C81 1.449 . S
C101 C100 1.399 . S
C101 H107 0.930 . S
H102 C82 0.931 . S
H103 C83 0.930 . S
H104 C91 0.931 . S
H105 C92 0.929 . S
H106 C100 0.929 . S
H107 C101 0.930 . S
Mn108 O113 2.095 . S
Mn108 O123 2.162 . S
Mn108 O124 2.297 . S
Mn108 O132 2.385 1_455 S
Mn108 O133 2.209 1_455 S
Mn108 O134 2.094 . S
Mn109 O114 2.121 . S
Mn109 N116 2.257 . S
Mn109 N125 2.282 . S
Mn109 O133 2.215 . S
Mn109 O135 2.117 . S
C110 O132 1.234 . S
C110 O133 1.283 . S
C111 O123 1.281 . S
C111 O124 1.236 . S
C112 O134 1.240 . S
C112 O135 1.264 1_455 S
O113 Mn108 2.095 . S
O113 C122 1.250 1_455 S
O114 Mn109 2.121 . S
O114 C122 1.258 . S
C115 N116 1.326 . S
C115 C119 1.460 . S
C115 H121 0.929 . S
N116 Mn109 2.257 . S
N116 C115 1.326 . S
N116 C120 1.362 . S
C117 C118 1.258 . S
C117 C120 1.431 . S
C117 C137 1.449 . S
C118 C117 1.258 . S
C118 C119 1.477 . S
C118 H138 0.931 . S
C119 C115 1.460 . S
C119 C118 1.477 . S
C119 H139 0.930 . S
C120 N116 1.362 . S
C120 C117 1.431 . S
C120 C130 1.476 . S
H121 C115 0.929 . S
C122 O113 1.250 1_655 S
C122 O114 1.258 . S
O123 Mn108 2.162 . S
O123 C111 1.281 . S
O124 Mn108 2.297 . S
O124 C111 1.236 . S
N125 Mn109 2.282 . S
N125 C126 1.328 . S
N125 C130 1.318 . S
C126 N125 1.328 . S
C126 C127 1.457 . S
C126 H131 0.929 . S
C127 C126 1.457 . S
C127 C128 1.291 . S
C127 H140 0.931 . S
C128 C127 1.291 . S
C128 C129 1.373 . S
C128 H141 0.929 . S
C129 C128 1.373 . S
C129 C130 1.396 . S
C129 C136 1.403 . S
C130 C120 1.476 . S
C130 N125 1.318 . S
C130 C129 1.396 . S
H131 C126 0.929 . S
O132 Mn108 2.385 1_655 S
O132 C110 1.234 . S
O133 Mn108 2.209 1_655 S
O133 Mn109 2.215 . S
O133 C110 1.283 . S
O134 Mn108 2.094 . S
O134 C112 1.240 . S
O135 Mn109 2.117 . S
O135 C112 1.264 1_655 S
C136 C129 1.403 . S
C136 C137 1.399 . S
C136 H142 0.929 . S
C137 C117 1.449 . S
C137 C136 1.399 . S
C137 H143 0.930 . S
H138 C118 0.931 . S
H139 C119 0.930 . S
H140 C127 0.931 . S
H141 C128 0.929 . S
H142 C136 0.929 . S
H143 C137 0.930 . S
Mn144 O149 2.095 . S
Mn144 O159 2.162 . S
Mn144 O160 2.297 . S
Mn144 O168 2.385 1_565 S
Mn144 O169 2.209 1_565 S
Mn144 O170 2.094 . S
Mn145 O150 2.121 . S
Mn145 N152 2.257 . S
Mn145 N161 2.282 . S
Mn145 O169 2.215 . S
Mn145 O171 2.117 . S
C146 O168 1.234 . S
C146 O169 1.283 . S
C147 O159 1.281 . S
C147 O160 1.236 . S
C148 O170 1.240 . S
C148 O171 1.264 1_565 S
O149 Mn144 2.095 . S
O149 C158 1.250 1_565 S
O150 Mn145 2.121 . S
O150 C158 1.258 . S
C151 N152 1.326 . S
C151 C155 1.460 . S
C151 H157 0.929 . S
N152 Mn145 2.257 . S
N152 C151 1.326 . S
N152 C156 1.362 . S
C153 C154 1.258 . S
C153 C156 1.431 . S
C153 C173 1.449 . S
C154 C153 1.258 . S
C154 C155 1.477 . S
C154 H174 0.931 . S
C155 C151 1.460 . S
C155 C154 1.477 . S
C155 H175 0.930 . S
C156 N152 1.362 . S
C156 C153 1.431 . S
C156 C166 1.476 . S
H157 C151 0.929 . S
C158 O149 1.250 1_545 S
C158 O150 1.258 . S
O159 Mn144 2.162 . S
O159 C147 1.281 . S
O160 Mn144 2.297 . S
O160 C147 1.236 . S
N161 Mn145 2.282 . S
N161 C162 1.328 . S
N161 C166 1.318 . S
C162 N161 1.328 . S
C162 C163 1.457 . S
C162 H167 0.929 . S
C163 C162 1.457 . S
C163 C164 1.291 . S
C163 H176 0.931 . S
C164 C163 1.291 . S
C164 C165 1.373 . S
C164 H177 0.929 . S
C165 C164 1.373 . S
C165 C166 1.396 . S
C165 C172 1.403 . S
C166 C156 1.476 . S
C166 N161 1.318 . S
C166 C165 1.396 . S
H167 C162 0.929 . S
O168 Mn144 2.385 1_545 S
O168 C146 1.234 . S
O169 Mn144 2.209 1_545 S
O169 Mn145 2.215 . S
O169 C146 1.283 . S
O170 Mn144 2.094 . S
O170 C148 1.240 . S
O171 Mn145 2.117 . S
O171 C148 1.264 1_545 S
C172 C165 1.403 . S
C172 C173 1.399 . S
C172 H178 0.929 . S
C173 C153 1.449 . S
C173 C172 1.399 . S
C173 H179 0.930 . S
H174 C154 0.931 . S
H175 C155 0.930 . S
H176 C163 0.931 . S
H177 C164 0.929 . S
H178 C172 0.929 . S
H179 C173 0.930 . S
Mn180 O185 2.095 . S
Mn180 O195 2.162 . S
Mn180 O196 2.297 . S
Mn180 O204 2.385 . S
Mn180 O205 2.209 . S
Mn180 O206 2.094 . S
Mn181 O186 2.121 . S
Mn181 N188 2.257 . S
Mn181 N197 2.282 . S
Mn181 O205 2.215 . S
Mn181 O207 2.117 . S
C182 O204 1.234 . S
C182 O205 1.283 . S
C183 O195 1.281 . S
C183 O196 1.236 . S
C184 O206 1.240 . S
C184 O207 1.264 . S
O185 Mn180 2.095 . S
O185 C194 1.250 . S
O186 Mn181 2.121 . S
O186 C194 1.258 . S
C187 N188 1.326 . S
C187 C191 1.460 . S
C187 H193 0.929 . S
N188 Mn181 2.257 . S
N188 C187 1.326 . S
N188 C192 1.362 . S
C189 C190 1.258 . S
C189 C192 1.431 . S
C189 C209 1.449 . S
C190 C189 1.258 . S
C190 C191 1.477 . S
C190 H210 0.931 . S
C191 C187 1.460 . S
C191 C190 1.477 . S
C191 H211 0.930 . S
C192 N188 1.362 . S
C192 C189 1.431 . S
C192 C202 1.476 . S
H193 C187 0.929 . S
C194 O185 1.250 . S
C194 O186 1.258 . S
O195 Mn180 2.162 . S
O195 C183 1.281 . S
O196 Mn180 2.297 . S
O196 C183 1.236 . S
N197 Mn181 2.282 . S
N197 C198 1.328 . S
N197 C202 1.318 . S
C198 N197 1.328 . S
C198 C199 1.457 . S
C198 H203 0.929 . S
C199 C198 1.457 . S
C199 C200 1.291 . S
C199 H212 0.931 . S
C200 C199 1.291 . S
C200 C201 1.373 . S
C200 H213 0.929 . S
C201 C200 1.373 . S
C201 C202 1.396 . S
C201 C208 1.403 . S
C202 C192 1.476 . S
C202 N197 1.318 . S
C202 C201 1.396 . S
H203 C198 0.929 . S
O204 Mn180 2.385 . S
O204 C182 1.234 . S
O205 Mn180 2.209 . S
O205 Mn181 2.215 . S
O205 C182 1.283 . S
O206 Mn180 2.094 . S
O206 C184 1.240 . S
O207 Mn181 2.117 . S
O207 C184 1.264 . S
C208 C201 1.403 . S
C208 C209 1.399 . S
C208 H214 0.929 . S
C209 C189 1.449 . S
C209 C208 1.399 . S
C209 H215 0.930 . S
H210 C190 0.931 . S
H211 C191 0.930 . S
H212 C199 0.931 . S
H213 C200 0.929 . S
H214 C208 0.929 . S
H215 C209 0.930 . S
Mn216 O221 2.095 . S
Mn216 O231 2.162 . S
Mn216 O232 2.297 . S
Mn216 O240 2.385 1_545 S
Mn216 O241 2.209 1_545 S
Mn216 O242 2.094 . S
Mn217 O222 2.121 . S
Mn217 N224 2.257 . S
Mn217 N233 2.282 . S
Mn217 O241 2.215 . S
Mn217 O243 2.117 . S
C218 O240 1.234 . S
C218 O241 1.283 . S
C219 O231 1.281 . S
C219 O232 1.236 . S
C220 O242 1.240 . S
C220 O243 1.264 1_545 S
O221 Mn216 2.095 . S
O221 C230 1.250 1_545 S
O222 Mn217 2.121 . S
O222 C230 1.258 . S
C223 N224 1.326 . S
C223 C227 1.460 . S
C223 H229 0.929 . S
N224 Mn217 2.257 . S
N224 C223 1.326 . S
N224 C228 1.362 . S
C225 C226 1.258 . S
C225 C228 1.431 . S
C225 C245 1.449 . S
C226 C225 1.258 . S
C226 C227 1.477 . S
C226 H246 0.931 . S
C227 C223 1.460 . S
C227 C226 1.477 . S
C227 H247 0.930 . S
C228 N224 1.362 . S
C228 C225 1.431 . S
C228 C238 1.476 . S
H229 C223 0.929 . S
C230 O221 1.250 1_565 S
C230 O222 1.258 . S
O231 Mn216 2.162 . S
O231 C219 1.281 . S
O232 Mn216 2.297 . S
O232 C219 1.236 . S
N233 Mn217 2.282 . S
N233 C234 1.328 . S
N233 C238 1.318 . S
C234 N233 1.328 . S
C234 C235 1.457 . S
C234 H239 0.929 . S
C235 C234 1.457 . S
C235 C236 1.291 . S
C235 H248 0.931 . S
C236 C235 1.291 . S
C236 C237 1.373 . S
C236 H249 0.929 . S
C237 C236 1.373 . S
C237 C238 1.396 . S
C237 C244 1.403 . S
C238 C228 1.476 . S
C238 N233 1.318 . S
C238 C237 1.396 . S
H239 C234 0.929 . S
O240 Mn216 2.385 1_565 S
O240 C218 1.234 . S
O241 Mn216 2.209 1_565 S
O241 Mn217 2.215 . S
O241 C218 1.283 . S
O242 Mn216 2.094 . S
O242 C220 1.240 . S
O243 Mn217 2.117 . S
O243 C220 1.264 1_565 S
C244 C237 1.403 . S
C244 C245 1.399 . S
C244 H250 0.929 . S
C245 C225 1.449 . S
C245 C244 1.399 . S
C245 H251 0.930 . S
H246 C226 0.931 . S
H247 C227 0.930 . S
H248 C235 0.931 . S
H249 C236 0.929 . S
H250 C244 0.929 . S
H251 C245 0.930 . S
Mn252 O257 2.095 . S
Mn252 O267 2.162 . S
Mn252 O268 2.297 . S
Mn252 O276 2.385 . S
Mn252 O277 2.209 . S
Mn252 O278 2.094 . S
Mn253 O258 2.121 . S
Mn253 N260 2.257 . S
Mn253 N269 2.282 . S
Mn253 O277 2.215 . S
Mn253 O279 2.117 . S
C254 O276 1.234 . S
C254 O277 1.283 . S
C255 O267 1.281 . S
C255 O268 1.236 . S
C256 O278 1.240 . S
C256 O279 1.264 . S
O257 Mn252 2.095 . S
O257 C266 1.250 . S
O258 Mn253 2.121 . S
O258 C266 1.258 . S
C259 N260 1.326 . S
C259 C263 1.460 . S
C259 H265 0.929 . S
N260 Mn253 2.257 . S
N260 C259 1.326 . S
N260 C264 1.362 . S
C261 C262 1.258 . S
C261 C264 1.431 . S
C261 C281 1.449 . S
C262 C261 1.258 . S
C262 C263 1.477 . S
C262 H282 0.931 . S
C263 C259 1.460 . S
C263 C262 1.477 . S
C263 H283 0.930 . S
C264 N260 1.362 . S
C264 C261 1.431 . S
C264 C274 1.476 . S
H265 C259 0.929 . S
C266 O257 1.250 . S
C266 O258 1.258 . S
O267 Mn252 2.162 . S
O267 C255 1.281 . S
O268 Mn252 2.297 . S
O268 C255 1.236 . S
N269 Mn253 2.282 . S
N269 C270 1.328 . S
N269 C274 1.318 . S
C270 N269 1.328 . S
C270 C271 1.457 . S
C270 H275 0.929 . S
C271 C270 1.457 . S
C271 C272 1.291 . S
C271 H284 0.931 . S
C272 C271 1.291 . S
C272 C273 1.373 . S
C272 H285 0.929 . S
C273 C272 1.373 . S
C273 C274 1.396 . S
C273 C280 1.403 . S
C274 C264 1.476 . S
C274 N269 1.318 . S
C274 C273 1.396 . S
H275 C270 0.929 . S
O276 Mn252 2.385 . S
O276 C254 1.234 . S
O277 Mn252 2.209 . S
O277 Mn253 2.215 . S
O277 C254 1.283 . S
O278 Mn252 2.094 . S
O278 C256 1.240 . S
O279 Mn253 2.117 . S
O279 C256 1.264 . S
C280 C273 1.403 . S
C280 C281 1.399 . S
C280 H286 0.929 . S
C281 C261 1.449 . S
C281 C280 1.399 . S
C281 H287 0.930 . S
H282 C262 0.931 . S
H283 C263 0.930 . S
H284 C271 0.931 . S
H285 C272 0.929 . S
H286 C280 0.929 . S
H287 C281 0.930 . S
Mn288 O293 2.095 . S
Mn288 O303 2.162 . S
Mn288 O304 2.297 . S
Mn288 O312 2.385 1_556 S
Mn288 O313 2.209 1_556 S
Mn288 O314 2.094 . S
Mn289 O294 2.121 . S
Mn289 N296 2.257 . S
Mn289 N305 2.282 . S
Mn289 O313 2.215 . S
Mn289 O315 2.117 . S
C290 O312 1.234 . S
C290 O313 1.283 . S
C291 O303 1.281 . S
C291 O304 1.236 . S
C292 O314 1.240 . S
C292 O315 1.264 1_556 S
O293 Mn288 2.095 . S
O293 C302 1.250 1_556 S
O294 Mn289 2.121 . S
O294 C302 1.258 . S
C295 N296 1.326 . S
C295 C299 1.460 . S
C295 H301 0.929 . S
N296 Mn289 2.257 . S
N296 C295 1.326 . S
N296 C300 1.362 . S
C297 C298 1.258 . S
C297 C300 1.431 . S
C297 C317 1.449 . S
C298 C297 1.258 . S
C298 C299 1.477 . S
C298 H318 0.931 . S
C299 C295 1.460 . S
C299 C298 1.477 . S
C299 H319 0.930 . S
C300 N296 1.362 . S
C300 C297 1.431 . S
C300 C310 1.476 . S
H301 C295 0.929 . S
C302 O293 1.250 1_554 S
C302 O294 1.258 . S
O303 Mn288 2.162 . S
O303 C291 1.281 . S
O304 Mn288 2.297 . S
O304 C291 1.236 . S
N305 Mn289 2.282 . S
N305 C306 1.328 . S
N305 C310 1.318 . S
C306 N305 1.328 . S
C306 C307 1.457 . S
C306 H311 0.929 . S
C307 C306 1.457 . S
C307 C308 1.291 . S
C307 H320 0.931 . S
C308 C307 1.291 . S
C308 C309 1.373 . S
C308 H321 0.929 . S
C309 C308 1.373 . S
C309 C310 1.396 . S
C309 C316 1.403 . S
C310 C300 1.476 . S
C310 N305 1.318 . S
C310 C309 1.396 . S
H311 C306 0.929 . S
O312 Mn288 2.385 1_554 S
O312 C290 1.234 . S
O313 Mn288 2.209 1_554 S
O313 Mn289 2.215 . S
O313 C290 1.283 . S
O314 Mn288 2.094 . S
O314 C292 1.240 . S
O315 Mn289 2.117 . S
O315 C292 1.264 1_554 S
C316 C309 1.403 . S
C316 C317 1.399 . S
C316 H322 0.929 . S
C317 C297 1.449 . S
C317 C316 1.399 . S
C317 H323 0.930 . S
H318 C298 0.931 . S
H319 C299 0.930 . S
H320 C307 0.931 . S
H321 C308 0.929 . S
H322 C316 0.929 . S
H323 C317 0.930 . S
Mn324 O329 2.095 . S
Mn324 O339 2.162 . S
Mn324 O340 2.297 . S
Mn324 O348 2.385 . S
Mn324 O349 2.209 . S
Mn324 O350 2.094 . S
Mn325 O330 2.121 . S
Mn325 N332 2.257 . S
Mn325 N341 2.282 . S
Mn325 O349 2.215 . S
Mn325 O351 2.117 . S
C326 O348 1.234 . S
C326 O349 1.283 . S
C327 O339 1.281 . S
C327 O340 1.236 . S
C328 O350 1.240 . S
C328 O351 1.264 . S
O329 Mn324 2.095 . S
O329 C338 1.250 . S
O330 Mn325 2.121 . S
O330 C338 1.258 . S
C331 N332 1.326 . S
C331 C335 1.460 . S
C331 H337 0.929 . S
N332 Mn325 2.257 . S
N332 C331 1.326 . S
N332 C336 1.362 . S
C333 C334 1.258 . S
C333 C336 1.431 . S
C333 C353 1.449 . S
C334 C333 1.258 . S
C334 C335 1.477 . S
C334 H354 0.931 . S
C335 C331 1.460 . S
C335 C334 1.477 . S
C335 H355 0.930 . S
C336 N332 1.362 . S
C336 C333 1.431 . S
C336 C346 1.476 . S
H337 C331 0.929 . S
C338 O329 1.250 . S
C338 O330 1.258 . S
O339 Mn324 2.162 . S
O339 C327 1.281 . S
O340 Mn324 2.297 . S
O340 C327 1.236 . S
N341 Mn325 2.282 . S
N341 C342 1.328 . S
N341 C346 1.318 . S
C342 N341 1.328 . S
C342 C343 1.457 . S
C342 H347 0.929 . S
C343 C342 1.457 . S
C343 C344 1.291 . S
C343 H356 0.931 . S
C344 C343 1.291 . S
C344 C345 1.373 . S
C344 H357 0.929 . S
C345 C344 1.373 . S
C345 C346 1.396 . S
C345 C352 1.403 . S
C346 C336 1.476 . S
C346 N341 1.318 . S
C346 C345 1.396 . S
H347 C342 0.929 . S
O348 Mn324 2.385 . S
O348 C326 1.234 . S
O349 Mn324 2.209 . S
O349 Mn325 2.215 . S
O349 C326 1.283 . S
O350 Mn324 2.094 . S
O350 C328 1.240 . S
O351 Mn325 2.117 . S
O351 C328 1.264 . S
C352 C345 1.403 . S
C352 C353 1.399 . S
C352 H358 0.929 . S
C353 C333 1.449 . S
C353 C352 1.399 . S
C353 H359 0.930 . S
H354 C334 0.931 . S
H355 C335 0.930 . S
H356 C343 0.931 . S
H357 C344 0.929 . S
H358 C352 0.929 . S
H359 C353 0.930 . S
Mn360 O365 2.095 . S
Mn360 O375 2.162 . S
Mn360 O376 2.297 . S
Mn360 O384 2.385 . S
Mn360 O385 2.209 . S
Mn360 O386 2.094 . S
Mn361 O366 2.121 . S
Mn361 N368 2.257 . S
Mn361 N377 2.282 . S
Mn361 O385 2.215 . S
Mn361 O387 2.117 . S
C362 O384 1.234 . S
C362 O385 1.283 . S
C363 O375 1.281 . S
C363 O376 1.236 . S
C364 O386 1.240 . S
C364 O387 1.264 . S
O365 Mn360 2.095 . S
O365 C374 1.250 . S
O366 Mn361 2.121 . S
O366 C374 1.258 . S
C367 N368 1.326 . S
C367 C371 1.460 . S
C367 H373 0.929 . S
N368 Mn361 2.257 . S
N368 C367 1.326 . S
N368 C372 1.362 . S
C369 C370 1.258 . S
C369 C372 1.431 . S
C369 C389 1.449 . S
C370 C369 1.258 . S
C370 C371 1.477 . S
C370 H390 0.931 . S
C371 C367 1.460 . S
C371 C370 1.477 . S
C371 H391 0.930 . S
C372 N368 1.362 . S
C372 C369 1.431 . S
C372 C382 1.476 . S
H373 C367 0.929 . S
C374 O365 1.250 . S
C374 O366 1.258 . S
O375 Mn360 2.162 . S
O375 C363 1.281 . S
O376 Mn360 2.297 . S
O376 C363 1.236 . S
N377 Mn361 2.282 . S
N377 C378 1.328 . S
N377 C382 1.318 . S
C378 N377 1.328 . S
C378 C379 1.457 . S
C378 H383 0.929 . S
C379 C378 1.457 . S
C379 C380 1.291 . S
C379 H392 0.931 . S
C380 C379 1.291 . S
C380 C381 1.373 . S
C380 H393 0.929 . S
C381 C380 1.373 . S
C381 C382 1.396 . S
C381 C388 1.403 . S
C382 C372 1.476 . S
C382 N377 1.318 . S
C382 C381 1.396 . S
H383 C378 0.929 . S
O384 Mn360 2.385 . S
O384 C362 1.234 . S
O385 Mn360 2.209 . S
O385 Mn361 2.215 . S
O385 C362 1.283 . S
O386 Mn360 2.094 . S
O386 C364 1.240 . S
O387 Mn361 2.117 . S
O387 C364 1.264 . S
C388 C381 1.403 . S
C388 C389 1.399 . S
C388 H394 0.929 . S
C389 C369 1.449 . S
C389 C388 1.399 . S
C389 H395 0.930 . S
H390 C370 0.931 . S
H391 C371 0.930 . S
H392 C379 0.931 . S
H393 C380 0.929 . S
H394 C388 0.929 . S
H395 C389 0.930 . S
Mn396 O401 2.095 . S
Mn396 O411 2.162 . S
Mn396 O412 2.297 . S
Mn396 O420 2.385 . S
Mn396 O421 2.209 . S
Mn396 O422 2.094 . S
Mn397 O402 2.121 . S
Mn397 N404 2.257 . S
Mn397 N413 2.282 . S
Mn397 O421 2.215 . S
Mn397 O423 2.117 . S
C398 O420 1.234 . S
C398 O421 1.283 . S
C399 O411 1.281 . S
C399 O412 1.236 . S
C400 O422 1.240 . S
C400 O423 1.264 . S
O401 Mn396 2.095 . S
O401 C410 1.250 . S
O402 Mn397 2.121 . S
O402 C410 1.258 . S
C403 N404 1.326 . S
C403 C407 1.460 . S
C403 H409 0.929 . S
N404 Mn397 2.257 . S
N404 C403 1.326 . S
N404 C408 1.362 . S
C405 C406 1.258 . S
C405 C408 1.431 . S
C405 C425 1.449 . S
C406 C405 1.258 . S
C406 C407 1.477 . S
C406 H426 0.931 . S
C407 C403 1.460 . S
C407 C406 1.477 . S
C407 H427 0.930 . S
C408 N404 1.362 . S
C408 C405 1.431 . S
C408 C418 1.476 . S
H409 C403 0.929 . S
C410 O401 1.250 . S
C410 O402 1.258 . S
O411 Mn396 2.162 . S
O411 C399 1.281 . S
O412 Mn396 2.297 . S
O412 C399 1.236 . S
N413 Mn397 2.282 . S
N413 C414 1.328 . S
N413 C418 1.318 . S
C414 N413 1.328 . S
C414 C415 1.457 . S
C414 H419 0.929 . S
C415 C414 1.457 . S
C415 C416 1.291 . S
C415 H428 0.931 . S
C416 C415 1.291 . S
C416 C417 1.373 . S
C416 H429 0.929 . S
C417 C416 1.373 . S
C417 C418 1.396 . S
C417 C424 1.403 . S
C418 C408 1.476 . S
C418 N413 1.318 . S
C418 C417 1.396 . S
H419 C414 0.929 . S
O420 Mn396 2.385 . S
O420 C398 1.234 . S
O421 Mn396 2.209 . S
O421 Mn397 2.215 . S
O421 C398 1.283 . S
O422 Mn396 2.094 . S
O422 C400 1.240 . S
O423 Mn397 2.117 . S
O423 C400 1.264 . S
C424 C417 1.403 . S
C424 C425 1.399 . S
C424 H430 0.929 . S
C425 C405 1.449 . S
C425 C424 1.399 . S
C425 H431 0.930 . S
H426 C406 0.931 . S
H427 C407 0.930 . S
H428 C415 0.931 . S
H429 C416 0.929 . S
H430 C424 0.929 . S
H431 C425 0.930 . S
Mn432 O437 2.095 . S
Mn432 O447 2.162 . S
Mn432 O448 2.297 . S
Mn432 O456 2.385 . S
Mn432 O457 2.209 . S
Mn432 O458 2.094 . S
Mn433 O438 2.121 . S
Mn433 N440 2.257 . S
Mn433 N449 2.282 . S
Mn433 O457 2.215 . S
Mn433 O459 2.117 . S
C434 O456 1.234 . S
C434 O457 1.283 . S
C435 O447 1.281 . S
C435 O448 1.236 . S
C436 O458 1.240 . S
C436 O459 1.264 . S
O437 Mn432 2.095 . S
O437 C446 1.250 . S
O438 Mn433 2.121 . S
O438 C446 1.258 . S
C439 N440 1.326 . S
C439 C443 1.460 . S
C439 H445 0.929 . S
N440 Mn433 2.257 . S
N440 C439 1.326 . S
N440 C444 1.362 . S
C441 C442 1.258 . S
C441 C444 1.431 . S
C441 C461 1.449 . S
C442 C441 1.258 . S
C442 C443 1.477 . S
C442 H462 0.931 . S
C443 C439 1.460 . S
C443 C442 1.477 . S
C443 H463 0.930 . S
C444 N440 1.362 . S
C444 C441 1.431 . S
C444 C454 1.476 . S
H445 C439 0.929 . S
C446 O437 1.250 . S
C446 O438 1.258 . S
O447 Mn432 2.162 . S
O447 C435 1.281 . S
O448 Mn432 2.297 . S
O448 C435 1.236 . S
N449 Mn433 2.282 . S
N449 C450 1.328 . S
N449 C454 1.318 . S
C450 N449 1.328 . S
C450 C451 1.457 . S
C450 H455 0.929 . S
C451 C450 1.457 . S
C451 C452 1.291 . S
C451 H464 0.931 . S
C452 C451 1.291 . S
C452 C453 1.373 . S
C452 H465 0.929 . S
C453 C452 1.373 . S
C453 C454 1.396 . S
C453 C460 1.403 . S
C454 C444 1.476 . S
C454 N449 1.318 . S
C454 C453 1.396 . S
H455 C450 0.929 . S
O456 Mn432 2.385 . S
O456 C434 1.234 . S
O457 Mn432 2.209 . S
O457 Mn433 2.215 . S
O457 C434 1.283 . S
O458 Mn432 2.094 . S
O458 C436 1.240 . S
O459 Mn433 2.117 . S
O459 C436 1.264 . S
C460 C453 1.403 . S
C460 C461 1.399 . S
C460 H466 0.929 . S
C461 C441 1.449 . S
C461 C460 1.399 . S
C461 H467 0.930 . S
H462 C442 0.931 . S
H463 C443 0.930 . S
H464 C451 0.931 . S
H465 C452 0.929 . S
H466 C460 0.929 . S
H467 C461 0.930 . S
Mn468 O473 2.095 . S
Mn468 O483 2.162 . S
Mn468 O484 2.297 . S
Mn468 O492 2.385 . S
Mn468 O493 2.209 . S
Mn468 O494 2.094 . S
Mn469 O474 2.121 . S
Mn469 N476 2.257 . S
Mn469 N485 2.282 . S
Mn469 O493 2.215 . S
Mn469 O495 2.117 . S
C470 O492 1.234 . S
C470 O493 1.283 . S
C471 O483 1.281 . S
C471 O484 1.236 . S
C472 O494 1.240 . S
C472 O495 1.264 . S
O473 Mn468 2.095 . S
O473 C482 1.250 . S
O474 Mn469 2.121 . S
O474 C482 1.258 . S
C475 N476 1.326 . S
C475 C479 1.460 . S
C475 H481 0.929 . S
N476 Mn469 2.257 . S
N476 C475 1.326 . S
N476 C480 1.362 . S
C477 C478 1.258 . S
C477 C480 1.431 . S
C477 C497 1.449 . S
C478 C477 1.258 . S
C478 C479 1.477 . S
C478 H498 0.931 . S
C479 C475 1.460 . S
C479 C478 1.477 . S
C479 H499 0.930 . S
C480 N476 1.362 . S
C480 C477 1.431 . S
C480 C490 1.476 . S
H481 C475 0.929 . S
C482 O473 1.250 . S
C482 O474 1.258 . S
O483 Mn468 2.162 . S
O483 C471 1.281 . S
O484 Mn468 2.297 . S
O484 C471 1.236 . S
N485 Mn469 2.282 . S
N485 C486 1.328 . S
N485 C490 1.318 . S
C486 N485 1.328 . S
C486 C487 1.457 . S
C486 H491 0.929 . S
C487 C486 1.457 . S
C487 C488 1.291 . S
C487 H500 0.931 . S
C488 C487 1.291 . S
C488 C489 1.373 . S
C488 H501 0.929 . S
C489 C488 1.373 . S
C489 C490 1.396 . S
C489 C496 1.403 . S
C490 C480 1.476 . S
C490 N485 1.318 . S
C490 C489 1.396 . S
H491 C486 0.929 . S
O492 Mn468 2.385 . S
O492 C470 1.234 . S
O493 Mn468 2.209 . S
O493 Mn469 2.215 . S
O493 C470 1.283 . S
O494 Mn468 2.094 . S
O494 C472 1.240 . S
O495 Mn469 2.117 . S
O495 C472 1.264 . S
C496 C489 1.403 . S
C496 C497 1.399 . S
C496 H502 0.929 . S
C497 C477 1.449 . S
C497 C496 1.399 . S
C497 H503 0.930 . S
H498 C478 0.931 . S
H499 C479 0.930 . S
H500 C487 0.931 . S
H501 C488 0.929 . S
H502 C496 0.929 . S
H503 C497 0.930 . S
Mn504 O509 2.095 . S
Mn504 O519 2.162 . S
Mn504 O520 2.297 . S
Mn504 O528 2.385 . S
Mn504 O529 2.209 . S
Mn504 O530 2.094 . S
Mn505 O510 2.121 . S
Mn505 N512 2.257 . S
Mn505 N521 2.282 . S
Mn505 O529 2.215 . S
Mn505 O531 2.117 . S
C506 O528 1.234 . S
C506 O529 1.283 . S
C507 O519 1.281 . S
C507 O520 1.236 . S
C508 O530 1.240 . S
C508 O531 1.264 . S
O509 Mn504 2.095 . S
O509 C518 1.250 . S
O510 Mn505 2.121 . S
O510 C518 1.258 . S
C511 N512 1.326 . S
C511 C515 1.460 . S
C511 H517 0.929 . S
N512 Mn505 2.257 . S
N512 C511 1.326 . S
N512 C516 1.362 . S
C513 C514 1.258 . S
C513 C516 1.431 . S
C513 C533 1.449 . S
C514 C513 1.258 . S
C514 C515 1.477 . S
C514 H534 0.931 . S
C515 C511 1.460 . S
C515 C514 1.477 . S
C515 H535 0.930 . S
C516 N512 1.362 . S
C516 C513 1.431 . S
C516 C526 1.476 . S
H517 C511 0.929 . S
C518 O509 1.250 . S
C518 O510 1.258 . S
O519 Mn504 2.162 . S
O519 C507 1.281 . S
O520 Mn504 2.297 . S
O520 C507 1.236 . S
N521 Mn505 2.282 . S
N521 C522 1.328 . S
N521 C526 1.318 . S
C522 N521 1.328 . S
C522 C523 1.457 . S
C522 H527 0.929 . S
C523 C522 1.457 . S
C523 C524 1.291 . S
C523 H536 0.931 . S
C524 C523 1.291 . S
C524 C525 1.373 . S
C524 H537 0.929 . S
C525 C524 1.373 . S
C525 C526 1.396 . S
C525 C532 1.403 . S
C526 C516 1.476 . S
C526 N521 1.318 . S
C526 C525 1.396 . S
H527 C522 0.929 . S
O528 Mn504 2.385 . S
O528 C506 1.234 . S
O529 Mn504 2.209 . S
O529 Mn505 2.215 . S
O529 C506 1.283 . S
O530 Mn504 2.094 . S
O530 C508 1.240 . S
O531 Mn505 2.117 . S
O531 C508 1.264 . S
C532 C525 1.403 . S
C532 C533 1.399 . S
C532 H538 0.929 . S
C533 C513 1.449 . S
C533 C532 1.399 . S
C533 H539 0.930 . S
H534 C514 0.931 . S
H535 C515 0.930 . S
H536 C523 0.931 . S
H537 C524 0.929 . S
H538 C532 0.929 . S
H539 C533 0.930 . S
Mn540 O545 2.095 . S
Mn540 O555 2.162 . S
Mn540 O556 2.297 . S
Mn540 O564 2.385 . S
Mn540 O565 2.209 . S
Mn540 O566 2.094 . S
Mn541 O546 2.121 . S
Mn541 N548 2.257 . S
Mn541 N557 2.282 . S
Mn541 O565 2.215 . S
Mn541 O567 2.117 . S
C542 O564 1.234 . S
C542 O565 1.283 . S
C543 O555 1.281 . S
C543 O556 1.236 . S
C544 O566 1.240 . S
C544 O567 1.264 . S
O545 Mn540 2.095 . S
O545 C554 1.250 . S
O546 Mn541 2.121 . S
O546 C554 1.258 . S
C547 N548 1.326 . S
C547 C551 1.460 . S
C547 H553 0.929 . S
N548 Mn541 2.257 . S
N548 C547 1.326 . S
N548 C552 1.362 . S
C549 C550 1.258 . S
C549 C552 1.431 . S
C549 C569 1.449 . S
C550 C549 1.258 . S
C550 C551 1.477 . S
C550 H570 0.931 . S
C551 C547 1.460 . S
C551 C550 1.477 . S
C551 H571 0.930 . S
C552 N548 1.362 . S
C552 C549 1.431 . S
C552 C562 1.476 . S
H553 C547 0.929 . S
C554 O545 1.250 . S
C554 O546 1.258 . S
O555 Mn540 2.162 . S
O555 C543 1.281 . S
O556 Mn540 2.297 . S
O556 C543 1.236 . S
N557 Mn541 2.282 . S
N557 C558 1.328 . S
N557 C562 1.318 . S
C558 N557 1.328 . S
C558 C559 1.457 . S
C558 H563 0.929 . S
C559 C558 1.457 . S
C559 C560 1.291 . S
C559 H572 0.931 . S
C560 C559 1.291 . S
C560 C561 1.373 . S
C560 H573 0.929 . S
C561 C560 1.373 . S
C561 C562 1.396 . S
C561 C568 1.403 . S
C562 C552 1.476 . S
C562 N557 1.318 . S
C562 C561 1.396 . S
H563 C558 0.929 . S
O564 Mn540 2.385 . S
O564 C542 1.234 . S
O565 Mn540 2.209 . S
O565 Mn541 2.215 . S
O565 C542 1.283 . S
O566 Mn540 2.094 . S
O566 C544 1.240 . S
O567 Mn541 2.117 . S
O567 C544 1.264 . S
C568 C561 1.403 . S
C568 C569 1.399 . S
C568 H574 0.929 . S
C569 C549 1.449 . S
C569 C568 1.399 . S
C569 H575 0.930 . S
H570 C550 0.931 . S
H571 C551 0.930 . S
H572 C559 0.931 . S
H573 C560 0.929 . S
H574 C568 0.929 . S
H575 C569 0.930 . S
Mn576 O581 2.095 . S
Mn576 O591 2.162 . S
Mn576 O592 2.297 . S
Mn576 O600 2.385 . S
Mn576 O601 2.209 . S
Mn576 O602 2.094 . S
Mn577 O582 2.121 . S
Mn577 N584 2.257 . S
Mn577 N593 2.282 . S
Mn577 O601 2.215 . S
Mn577 O603 2.117 . S
C578 O600 1.234 . S
C578 O601 1.283 . S
C579 O591 1.281 . S
C579 O592 1.236 . S
C580 O602 1.240 . S
C580 O603 1.264 . S
O581 Mn576 2.095 . S
O581 C590 1.250 . S
O582 Mn577 2.121 . S
O582 C590 1.258 . S
C583 N584 1.326 . S
C583 C587 1.460 . S
C583 H589 0.929 . S
N584 Mn577 2.257 . S
N584 C583 1.326 . S
N584 C588 1.362 . S
C585 C586 1.258 . S
C585 C588 1.431 . S
C585 C605 1.449 . S
C586 C585 1.258 . S
C586 C587 1.477 . S
C586 H606 0.931 . S
C587 C583 1.460 . S
C587 C586 1.477 . S
C587 H607 0.930 . S
C588 N584 1.362 . S
C588 C585 1.431 . S
C588 C598 1.476 . S
H589 C583 0.929 . S
C590 O581 1.250 . S
C590 O582 1.258 . S
O591 Mn576 2.162 . S
O591 C579 1.281 . S
O592 Mn576 2.297 . S
O592 C579 1.236 . S
N593 Mn577 2.282 . S
N593 C594 1.328 . S
N593 C598 1.318 . S
C594 N593 1.328 . S
C594 C595 1.457 . S
C594 H599 0.929 . S
C595 C594 1.457 . S
C595 C596 1.291 . S
C595 H608 0.931 . S
C596 C595 1.291 . S
C596 C597 1.373 . S
C596 H609 0.929 . S
C597 C596 1.373 . S
C597 C598 1.396 . S
C597 C604 1.403 . S
C598 C588 1.476 . S
C598 N593 1.318 . S
C598 C597 1.396 . S
H599 C594 0.929 . S
O600 Mn576 2.385 . S
O600 C578 1.234 . S
O601 Mn576 2.209 . S
O601 Mn577 2.215 . S
O601 C578 1.283 . S
O602 Mn576 2.094 . S
O602 C580 1.240 . S
O603 Mn577 2.117 . S
O603 C580 1.264 . S
C604 C597 1.403 . S
C604 C605 1.399 . S
C604 H610 0.929 . S
C605 C585 1.449 . S
C605 C604 1.399 . S
C605 H611 0.930 . S
H606 C586 0.931 . S
H607 C587 0.930 . S
H608 C595 0.931 . S
H609 C596 0.929 . S
H610 C604 0.929 . S
H611 C605 0.930 . S
Mn612 O617 2.095 . S
Mn612 O627 2.162 . S
Mn612 O628 2.297 . S
Mn612 O636 2.385 1_545 S
Mn612 O637 2.209 1_545 S
Mn612 O638 2.094 . S
Mn613 O618 2.121 . S
Mn613 N620 2.257 . S
Mn613 N629 2.282 . S
Mn613 O637 2.215 . S
Mn613 O639 2.117 . S
C614 O636 1.234 . S
C614 O637 1.283 . S
C615 O627 1.281 . S
C615 O628 1.236 . S
C616 O638 1.240 . S
C616 O639 1.264 1_545 S
O617 Mn612 2.095 . S
O617 C626 1.250 1_545 S
O618 Mn613 2.121 . S
O618 C626 1.258 . S
C619 N620 1.326 . S
C619 C623 1.460 . S
C619 H625 0.929 . S
N620 Mn613 2.257 . S
N620 C619 1.326 . S
N620 C624 1.362 . S
C621 C622 1.258 . S
C621 C624 1.431 . S
C621 C641 1.449 . S
C622 C621 1.258 . S
C622 C623 1.477 . S
C622 H642 0.931 . S
C623 C619 1.460 . S
C623 C622 1.477 . S
C623 H643 0.930 . S
C624 N620 1.362 . S
C624 C621 1.431 . S
C624 C634 1.476 . S
H625 C619 0.929 . S
C626 O617 1.250 1_565 S
C626 O618 1.258 . S
O627 Mn612 2.162 . S
O627 C615 1.281 . S
O628 Mn612 2.297 . S
O628 C615 1.236 . S
N629 Mn613 2.282 . S
N629 C630 1.328 . S
N629 C634 1.318 . S
C630 N629 1.328 . S
C630 C631 1.457 . S
C630 H635 0.929 . S
C631 C630 1.457 . S
C631 C632 1.291 . S
C631 H644 0.931 . S
C632 C631 1.291 . S
C632 C633 1.373 . S
C632 H645 0.929 . S
C633 C632 1.373 . S
C633 C634 1.396 . S
C633 C640 1.403 . S
C634 C624 1.476 . S
C634 N629 1.318 . S
C634 C633 1.396 . S
H635 C630 0.929 . S
O636 Mn612 2.385 1_565 S
O636 C614 1.234 . S
O637 Mn612 2.209 1_565 S
O637 Mn613 2.215 . S
O637 C614 1.283 . S
O638 Mn612 2.094 . S
O638 C616 1.240 . S
O639 Mn613 2.117 . S
O639 C616 1.264 1_565 S
C640 C633 1.403 . S
C640 C641 1.399 . S
C640 H646 0.929 . S
C641 C621 1.449 . S
C641 C640 1.399 . S
C641 H647 0.930 . S
H642 C622 0.931 . S
H643 C623 0.930 . S
H644 C631 0.931 . S
H645 C632 0.929 . S
H646 C640 0.929 . S
H647 C641 0.930 . S
Mn648 O653 2.095 . S
Mn648 O663 2.162 . S
Mn648 O664 2.297 . S
Mn648 O672 2.385 . S
Mn648 O673 2.209 . S
Mn648 O674 2.094 . S
Mn649 O654 2.121 . S
Mn649 N656 2.257 . S
Mn649 N665 2.282 . S
Mn649 O673 2.215 . S
Mn649 O675 2.117 . S
C650 O672 1.234 . S
C650 O673 1.283 . S
C651 O663 1.281 . S
C651 O664 1.236 . S
C652 O674 1.240 . S
C652 O675 1.264 . S
O653 Mn648 2.095 . S
O653 C662 1.250 . S
O654 Mn649 2.121 . S
O654 C662 1.258 . S
C655 N656 1.326 . S
C655 C659 1.460 . S
C655 H661 0.929 . S
N656 Mn649 2.257 . S
N656 C655 1.326 . S
N656 C660 1.362 . S
C657 C658 1.258 . S
C657 C660 1.431 . S
C657 C677 1.449 . S
C658 C657 1.258 . S
C658 C659 1.477 . S
C658 H678 0.931 . S
C659 C655 1.460 . S
C659 C658 1.477 . S
C659 H679 0.930 . S
C660 N656 1.362 . S
C660 C657 1.431 . S
C660 C670 1.476 . S
H661 C655 0.929 . S
C662 O653 1.250 . S
C662 O654 1.258 . S
O663 Mn648 2.162 . S
O663 C651 1.281 . S
O664 Mn648 2.297 . S
O664 C651 1.236 . S
N665 Mn649 2.282 . S
N665 C666 1.328 . S
N665 C670 1.318 . S
C666 N665 1.328 . S
C666 C667 1.457 . S
C666 H671 0.929 . S
C667 C666 1.457 . S
C667 C668 1.291 . S
C667 H680 0.931 . S
C668 C667 1.291 . S
C668 C669 1.373 . S
C668 H681 0.929 . S
C669 C668 1.373 . S
C669 C670 1.396 . S
C669 C676 1.403 . S
C670 C660 1.476 . S
C670 N665 1.318 . S
C670 C669 1.396 . S
H671 C666 0.929 . S
O672 Mn648 2.385 . S
O672 C650 1.234 . S
O673 Mn648 2.209 . S
O673 Mn649 2.215 . S
O673 C650 1.283 . S
O674 Mn648 2.094 . S
O674 C652 1.240 . S
O675 Mn649 2.117 . S
O675 C652 1.264 . S
C676 C669 1.403 . S
C676 C677 1.399 . S
C676 H682 0.929 . S
C677 C657 1.449 . S
C677 C676 1.399 . S
C677 H683 0.930 . S
H678 C658 0.931 . S
H679 C659 0.930 . S
H680 C667 0.931 . S
H681 C668 0.929 . S
H682 C676 0.929 . S
H683 C677 0.930 . S
Mn684 O689 2.095 . S
Mn684 O699 2.162 . S
Mn684 O700 2.297 . S
Mn684 O708 2.385 1_565 S
Mn684 O709 2.209 1_565 S
Mn684 O710 2.094 . S
Mn685 O690 2.121 . S
Mn685 N692 2.257 . S
Mn685 N701 2.282 . S
Mn685 O709 2.215 . S
Mn685 O711 2.117 . S
C686 O708 1.234 . S
C686 O709 1.283 . S
C687 O699 1.281 . S
C687 O700 1.236 . S
C688 O710 1.240 . S
C688 O711 1.264 1_565 S
O689 Mn684 2.095 . S
O689 C698 1.250 1_565 S
O690 Mn685 2.121 . S
O690 C698 1.258 . S
C691 N692 1.326 . S
C691 C695 1.460 . S
C691 H697 0.929 . S
N692 Mn685 2.257 . S
N692 C691 1.326 . S
N692 C696 1.362 . S
C693 C694 1.258 . S
C693 C696 1.431 . S
C693 C713 1.449 . S
C694 C693 1.258 . S
C694 C695 1.477 . S
C694 H714 0.931 . S
C695 C691 1.460 . S
C695 C694 1.477 . S
C695 H715 0.930 . S
C696 N692 1.362 . S
C696 C693 1.431 . S
C696 C706 1.476 . S
H697 C691 0.929 . S
C698 O689 1.250 1_545 S
C698 O690 1.258 . S
O699 Mn684 2.162 . S
O699 C687 1.281 . S
O700 Mn684 2.297 . S
O700 C687 1.236 . S
N701 Mn685 2.282 . S
N701 C702 1.328 . S
N701 C706 1.318 . S
C702 N701 1.328 . S
C702 C703 1.457 . S
C702 H707 0.929 . S
C703 C702 1.457 . S
C703 C704 1.291 . S
C703 H716 0.931 . S
C704 C703 1.291 . S
C704 C705 1.373 . S
C704 H717 0.929 . S
C705 C704 1.373 . S
C705 C706 1.396 . S
C705 C712 1.403 . S
C706 C696 1.476 . S
C706 N701 1.318 . S
C706 C705 1.396 . S
H707 C702 0.929 . S
O708 Mn684 2.385 1_545 S
O708 C686 1.234 . S
O709 Mn684 2.209 1_545 S
O709 Mn685 2.215 . S
O709 C686 1.283 . S
O710 Mn684 2.094 . S
O710 C688 1.240 . S
O711 Mn685 2.117 . S
O711 C688 1.264 1_545 S
C712 C705 1.403 . S
C712 C713 1.399 . S
C712 H718 0.929 . S
C713 C693 1.449 . S
C713 C712 1.399 . S
C713 H719 0.930 . S
H714 C694 0.931 . S
H715 C695 0.930 . S
H716 C703 0.931 . S
H717 C704 0.929 . S
H718 C712 0.929 . S
H719 C713 0.930 . S
Mn720 O725 2.095 . S
Mn720 O735 2.162 . S
Mn720 O736 2.297 . S
Mn720 O744 2.385 . S
Mn720 O745 2.209 . S
Mn720 O746 2.094 . S
Mn721 O726 2.121 . S
Mn721 N728 2.257 . S
Mn721 N737 2.282 . S
Mn721 O745 2.215 . S
Mn721 O747 2.117 . S
C722 O744 1.234 . S
C722 O745 1.283 . S
C723 O735 1.281 . S
C723 O736 1.236 . S
C724 O746 1.240 . S
C724 O747 1.264 . S
O725 Mn720 2.095 . S
O725 C734 1.250 . S
O726 Mn721 2.121 . S
O726 C734 1.258 . S
C727 N728 1.326 . S
C727 C731 1.460 . S
C727 H733 0.929 . S
N728 Mn721 2.257 . S
N728 C727 1.326 . S
N728 C732 1.362 . S
C729 C730 1.258 . S
C729 C732 1.431 . S
C729 C749 1.449 . S
C730 C729 1.258 . S
C730 C731 1.477 . S
C730 H750 0.931 . S
C731 C727 1.460 . S
C731 C730 1.477 . S
C731 H751 0.930 . S
C732 N728 1.362 . S
C732 C729 1.431 . S
C732 C742 1.476 . S
H733 C727 0.929 . S
C734 O725 1.250 . S
C734 O726 1.258 . S
O735 Mn720 2.162 . S
O735 C723 1.281 . S
O736 Mn720 2.297 . S
O736 C723 1.236 . S
N737 Mn721 2.282 . S
N737 C738 1.328 . S
N737 C742 1.318 . S
C738 N737 1.328 . S
C738 C739 1.457 . S
C738 H743 0.929 . S
C739 C738 1.457 . S
C739 C740 1.291 . S
C739 H752 0.931 . S
C740 C739 1.291 . S
C740 C741 1.373 . S
C740 H753 0.929 . S
C741 C740 1.373 . S
C741 C742 1.396 . S
C741 C748 1.403 . S
C742 C732 1.476 . S
C742 N737 1.318 . S
C742 C741 1.396 . S
H743 C738 0.929 . S
O744 Mn720 2.385 . S
O744 C722 1.234 . S
O745 Mn720 2.209 . S
O745 Mn721 2.215 . S
O745 C722 1.283 . S
O746 Mn720 2.094 . S
O746 C724 1.240 . S
O747 Mn721 2.117 . S
O747 C724 1.264 . S
C748 C741 1.403 . S
C748 C749 1.399 . S
C748 H754 0.929 . S
C749 C729 1.449 . S
C749 C748 1.399 . S
C749 H755 0.930 . S
H750 C730 0.931 . S
H751 C731 0.930 . S
H752 C739 0.931 . S
H753 C740 0.929 . S
H754 C748 0.929 . S
H755 C749 0.930 . S
Mn756 O761 2.095 . S
Mn756 O771 2.162 . S
Mn756 O772 2.297 . S
Mn756 O780 2.385 1_554 S
Mn756 O781 2.209 1_554 S
Mn756 O782 2.094 . S
Mn757 O762 2.121 . S
Mn757 N764 2.257 . S
Mn757 N773 2.282 . S
Mn757 O781 2.215 . S
Mn757 O783 2.117 . S
C758 O780 1.234 . S
C758 O781 1.283 . S
C759 O771 1.281 . S
C759 O772 1.236 . S
C760 O782 1.240 . S
C760 O783 1.264 1_554 S
O761 Mn756 2.095 . S
O761 C770 1.250 1_554 S
O762 Mn757 2.121 . S
O762 C770 1.258 . S
C763 N764 1.326 . S
C763 C767 1.460 . S
C763 H769 0.929 . S
N764 Mn757 2.257 . S
N764 C763 1.326 . S
N764 C768 1.362 . S
C765 C766 1.258 . S
C765 C768 1.431 . S
C765 C785 1.449 . S
C766 C765 1.258 . S
C766 C767 1.477 . S
C766 H786 0.931 . S
C767 C763 1.460 . S
C767 C766 1.477 . S
C767 H787 0.930 . S
C768 N764 1.362 . S
C768 C765 1.431 . S
C768 C778 1.476 . S
H769 C763 0.929 . S
C770 O761 1.250 1_556 S
C770 O762 1.258 . S
O771 Mn756 2.162 . S
O771 C759 1.281 . S
O772 Mn756 2.297 . S
O772 C759 1.236 . S
N773 Mn757 2.282 . S
N773 C774 1.328 . S
N773 C778 1.318 . S
C774 N773 1.328 . S
C774 C775 1.457 . S
C774 H779 0.929 . S
C775 C774 1.457 . S
C775 C776 1.291 . S
C775 H788 0.931 . S
C776 C775 1.291 . S
C776 C777 1.373 . S
C776 H789 0.929 . S
C777 C776 1.373 . S
C777 C778 1.396 . S
C777 C784 1.403 . S
C778 C768 1.476 . S
C778 N773 1.318 . S
C778 C777 1.396 . S
H779 C774 0.929 . S
O780 Mn756 2.385 1_556 S
O780 C758 1.234 . S
O781 Mn756 2.209 1_556 S
O781 Mn757 2.215 . S
O781 C758 1.283 . S
O782 Mn756 2.094 . S
O782 C760 1.240 . S
O783 Mn757 2.117 . S
O783 C760 1.264 1_556 S
C784 C777 1.403 . S
C784 C785 1.399 . S
C784 H790 0.929 . S
C785 C765 1.449 . S
C785 C784 1.399 . S
C785 H791 0.930 . S
H786 C766 0.931 . S
H787 C767 0.930 . S
H788 C775 0.931 . S
H789 C776 0.929 . S
H790 C784 0.929 . S
H791 C785 0.930 . S
Mn792 O797 2.095 . S
Mn792 O807 2.162 . S
Mn792 O808 2.297 . S
Mn792 O816 2.385 1_554 S
Mn792 O817 2.209 1_554 S
Mn792 O818 2.094 . S
Mn793 O798 2.121 . S
Mn793 N800 2.257 . S
Mn793 N809 2.282 . S
Mn793 O817 2.215 . S
Mn793 O819 2.117 . S
C794 O816 1.234 . S
C794 O817 1.283 . S
C795 O807 1.281 . S
C795 O808 1.236 . S
C796 O818 1.240 . S
C796 O819 1.264 1_554 S
O797 Mn792 2.095 . S
O797 C806 1.250 1_554 S
O798 Mn793 2.121 . S
O798 C806 1.258 . S
C799 N800 1.326 . S
C799 C803 1.460 . S
C799 H805 0.929 . S
N800 Mn793 2.257 . S
N800 C799 1.326 . S
N800 C804 1.362 . S
C801 C802 1.258 . S
C801 C804 1.431 . S
C801 C821 1.449 . S
C802 C801 1.258 . S
C802 C803 1.477 . S
C802 H822 0.931 . S
C803 C799 1.460 . S
C803 C802 1.477 . S
C803 H823 0.930 . S
C804 N800 1.362 . S
C804 C801 1.431 . S
C804 C814 1.476 . S
H805 C799 0.929 . S
C806 O797 1.250 1_556 S
C806 O798 1.258 . S
O807 Mn792 2.162 . S
O807 C795 1.281 . S
O808 Mn792 2.297 . S
O808 C795 1.236 . S
N809 Mn793 2.282 . S
N809 C810 1.328 . S
N809 C814 1.318 . S
C810 N809 1.328 . S
C810 C811 1.457 . S
C810 H815 0.929 . S
C811 C810 1.457 . S
C811 C812 1.291 . S
C811 H824 0.931 . S
C812 C811 1.291 . S
C812 C813 1.373 . S
C812 H825 0.929 . S
C813 C812 1.373 . S
C813 C814 1.396 . S
C813 C820 1.403 . S
C814 C804 1.476 . S
C814 N809 1.318 . S
C814 C813 1.396 . S
H815 C810 0.929 . S
O816 Mn792 2.385 1_556 S
O816 C794 1.234 . S
O817 Mn792 2.209 1_556 S
O817 Mn793 2.215 . S
O817 C794 1.283 . S
O818 Mn792 2.094 . S
O818 C796 1.240 . S
O819 Mn793 2.117 . S
O819 C796 1.264 1_556 S
C820 C813 1.403 . S
C820 C821 1.399 . S
C820 H826 0.929 . S
C821 C801 1.449 . S
C821 C820 1.399 . S
C821 H827 0.930 . S
H822 C802 0.931 . S
H823 C803 0.930 . S
H824 C811 0.931 . S
H825 C812 0.929 . S
H826 C820 0.929 . S
H827 C821 0.930 . S
Mn828 O833 2.095 . S
Mn828 O843 2.162 . S
Mn828 O844 2.297 . S
Mn828 O852 2.385 1_556 S
Mn828 O853 2.209 1_556 S
Mn828 O854 2.094 . S
Mn829 O834 2.121 . S
Mn829 N836 2.257 . S
Mn829 N845 2.282 . S
Mn829 O853 2.215 . S
Mn829 O855 2.117 . S
C830 O852 1.234 . S
C830 O853 1.283 . S
C831 O843 1.281 . S
C831 O844 1.236 . S
C832 O854 1.240 . S
C832 O855 1.264 1_556 S
O833 Mn828 2.095 . S
O833 C842 1.250 1_556 S
O834 Mn829 2.121 . S
O834 C842 1.258 . S
C835 N836 1.326 . S
C835 C839 1.460 . S
C835 H841 0.929 . S
N836 Mn829 2.257 . S
N836 C835 1.326 . S
N836 C840 1.362 . S
C837 C838 1.258 . S
C837 C840 1.431 . S
C837 C857 1.449 . S
C838 C837 1.258 . S
C838 C839 1.477 . S
C838 H858 0.931 . S
C839 C835 1.460 . S
C839 C838 1.477 . S
C839 H859 0.930 . S
C840 N836 1.362 . S
C840 C837 1.431 . S
C840 C850 1.476 . S
H841 C835 0.929 . S
C842 O833 1.250 1_554 S
C842 O834 1.258 . S
O843 Mn828 2.162 . S
O843 C831 1.281 . S
O844 Mn828 2.297 . S
O844 C831 1.236 . S
N845 Mn829 2.282 . S
N845 C846 1.328 . S
N845 C850 1.318 . S
C846 N845 1.328 . S
C846 C847 1.457 . S
C846 H851 0.929 . S
C847 C846 1.457 . S
C847 C848 1.291 . S
C847 H860 0.931 . S
C848 C847 1.291 . S
C848 C849 1.373 . S
C848 H861 0.929 . S
C849 C848 1.373 . S
C849 C850 1.396 . S
C849 C856 1.403 . S
C850 C840 1.476 . S
C850 N845 1.318 . S
C850 C849 1.396 . S
H851 C846 0.929 . S
O852 Mn828 2.385 1_554 S
O852 C830 1.234 . S
O853 Mn828 2.209 1_554 S
O853 Mn829 2.215 . S
O853 C830 1.283 . S
O854 Mn828 2.094 . S
O854 C832 1.240 . S
O855 Mn829 2.117 . S
O855 C832 1.264 1_554 S
C856 C849 1.403 . S
C856 C857 1.399 . S
C856 H862 0.929 . S
C857 C837 1.449 . S
C857 C856 1.399 . S
C857 H863 0.930 . S
H858 C838 0.931 . S
H859 C839 0.930 . S
H860 C847 0.931 . S
H861 C848 0.929 . S
H862 C856 0.929 . S
H863 C857 0.930 . S
C864 C865 1.387 . S
C864 H868 0.950 . S
C864 C873 1.390 . S
C865 C864 1.387 . S
C865 C867 1.387 . S
H866 C873 0.950 . S
C867 C865 1.387 . S
C867 C869 1.390 . S
C867 H871 0.950 . S
H868 C864 0.950 . S
C869 C867 1.390 . S
C869 C870 1.387 . S
C869 H872 0.950 . S
C870 C869 1.387 . S
C870 C873 1.387 . S
H871 C867 0.950 . S
H872 C869 0.950 . S
C873 C864 1.390 . S
C873 H866 0.950 . S
C873 C870 1.387 . S
C874 C875 1.387 . S
C874 H878 0.950 . S
C874 C883 1.390 . S
C875 C874 1.387 . S
C875 C877 1.387 . S
H876 C883 0.950 . S
C877 C875 1.387 . S
C877 C879 1.390 . S
C877 H881 0.950 . S
H878 C874 0.950 . S
C879 C877 1.390 . S
C879 C880 1.387 . S
C879 H882 0.950 . S
C880 C879 1.387 . S
C880 C883 1.387 . S
H881 C877 0.950 . S
H882 C879 0.950 . S
C883 C874 1.390 . S
C883 H876 0.950 . S
C883 C880 1.387 . S
C884 C885 1.387 . S
C884 H888 0.950 . S
C884 C893 1.390 . S
C885 C884 1.387 . S
C885 C887 1.387 . S
H886 C893 0.964 . S
C887 C885 1.387 . S
C887 C889 1.390 . S
C887 H891 0.950 . S
H888 C884 0.950 . S
C889 C887 1.390 . S
C889 C890 1.387 1_554 S
C889 H892 0.950 . S
C890 C889 1.387 1_556 S
C890 C893 1.387 1_556 S
H891 C887 0.950 . S
H892 C889 0.950 . S
C893 C884 1.390 . S
C893 H886 0.964 . S
C893 C890 1.387 1_554 S
C894 C895 1.387 . S
C894 H898 0.950 . S
C894 C903 1.390 . S
C895 C894 1.387 . S
C895 C897 1.387 . S
H896 C903 0.950 . S
C897 C895 1.387 . S
C897 C899 1.390 . S
C897 H901 0.950 . S
H898 C894 0.950 . S
C899 C897 1.390 . S
C899 C900 1.387 1_554 S
C899 H902 0.950 1_554 S
C900 C899 1.387 1_556 S
C900 C903 1.387 1_556 S
H901 C897 0.950 . S
H902 C899 0.950 1_556 S
C903 C894 1.390 . S
C903 H896 0.950 . S
C903 C900 1.387 1_554 S
C904 C905 1.387 . S
C904 H908 0.950 . S
C904 C913 1.390 . S
C905 C904 1.387 . S
C905 C907 1.387 . S
H906 C913 0.950 . S
C907 C905 1.387 . S
C907 C909 1.390 . S
C907 H911 0.950 . S
H908 C904 0.950 . S
C909 C907 1.390 . S
C909 C910 1.387 . S
C909 H912 0.950 . S
C910 C909 1.387 . S
C910 C913 1.387 . S
H911 C907 0.950 . S
H912 C909 0.950 . S
C913 C904 1.390 . S
C913 H906 0.950 . S
C913 C910 1.387 . S
C914 C915 1.387 . S
C914 H918 0.950 . S
C914 C923 1.390 . S
C915 C914 1.387 . S
C915 C917 1.387 . S
H916 C923 0.950 . S
C917 C915 1.387 . S
C917 C919 1.390 . S
C917 H921 0.950 . S
H918 C914 0.950 . S
C919 C917 1.390 . S
C919 C920 1.387 . S
C919 H922 0.950 . S
C920 C919 1.387 . S
C920 C923 1.387 . S
H921 C917 0.950 . S
H922 C919 0.950 . S
C923 C914 1.390 . S
C923 H916 0.950 . S
C923 C920 1.387 . S
C924 C925 1.387 . S
C924 H928 0.950 . S
C924 C933 1.390 . S
C925 C924 1.387 . S
C925 C927 1.387 . S
H926 C933 0.950 . S
C927 C925 1.387 . S
C927 C929 1.390 . S
C927 H931 0.950 . S
H928 C924 0.950 . S
C929 C927 1.390 . S
C929 C930 1.387 . S
C929 H932 0.950 . S
C930 C929 1.387 . S
C930 C933 1.387 . S
H931 C927 0.950 . S
H932 C929 0.950 . S
C933 C924 1.390 . S
C933 H926 0.950 . S
C933 C930 1.387 . S
C934 C935 1.387 . S
C934 H938 0.950 . S
C934 C943 1.390 . S
C935 C934 1.387 . S
C935 C937 1.387 . S
H936 C943 0.950 . S
C937 C935 1.387 . S
C937 C939 1.390 . S
C937 H941 0.950 . S
H938 C934 0.950 . S
C939 C937 1.390 . S
C939 C940 1.387 . S
C939 H942 0.950 . S
C940 C939 1.387 . S
C940 C943 1.387 . S
H941 C937 0.950 . S
H942 C939 0.950 . S
C943 C934 1.390 . S
C943 H936 0.950 . S
C943 C940 1.387 . S
C944 C945 1.387 . S
C944 H948 0.950 . S
C944 C953 1.390 . S
C945 C944 1.387 . S
C945 C947 1.387 . S
H946 C953 0.950 . S
C947 C945 1.387 . S
C947 C949 1.390 . S
C947 H951 0.950 . S
H948 C944 0.950 . S
C949 C947 1.390 . S
C949 C950 1.387 . S
C949 H952 0.950 . S
C950 C949 1.387 . S
C950 C953 1.387 . S
H951 C947 0.950 . S
H952 C949 0.950 . S
C953 C944 1.390 . S
C953 H946 0.950 . S
C953 C950 1.387 . S
C954 C955 1.387 . S
C954 H958 0.950 . S
C954 C963 1.390 . S
C955 C954 1.387 . S
C955 C957 1.387 . S
H956 C963 0.950 . S
C957 C955 1.387 . S
C957 C959 1.390 . S
C957 H961 0.950 . S
H958 C954 0.950 . S
C959 C957 1.390 . S
C959 C960 1.387 . S
C959 H962 0.950 . S
C960 C959 1.387 . S
C960 C963 1.387 . S
H961 C957 0.950 . S
H962 C959 0.950 . S
C963 C954 1.390 . S
C963 H956 0.950 . S
C963 C960 1.387 . S
C964 C965 1.387 . S
C964 H968 0.950 . S
C964 C973 1.390 . S
C965 C964 1.387 . S
C965 C967 1.387 . S
H966 C973 0.950 . S
C967 C965 1.387 . S
C967 C969 1.390 . S
C967 H971 0.950 . S
H968 C964 0.950 . S
C969 C967 1.390 . S
C969 C970 1.388 1_565 S
C969 H972 0.950 1_565 S
C970 C969 1.388 1_545 S
C970 C973 1.388 1_545 S
H971 C967 0.950 . S
H972 C969 0.950 1_545 S
C973 C964 1.390 . S
C973 H966 0.950 . S
C973 C970 1.388 1_565 S
C974 C975 1.387 . S
C974 H978 0.950 . S
C974 C983 1.390 . S
C975 C974 1.387 . S
C975 C977 1.387 . S
H976 C983 0.950 . S
C977 C975 1.387 . S
C977 C979 1.390 . S
C977 H981 0.950 . S
H978 C974 0.950 . S
C979 C977 1.390 . S
C979 C980 1.387 . S
C979 H982 0.950 . S
C980 C979 1.387 . S
C980 C983 1.387 . S
H981 C977 0.950 . S
H982 C979 0.950 . S
C983 C974 1.390 . S
C983 H976 0.950 . S
C983 C980 1.387 . S
C984 C985 1.387 1_556 S
C984 H988 0.950 . S
C984 C993 1.390 . S
C985 C984 1.387 1_554 S
C985 C987 1.387 1_554 S
H986 C993 0.950 . S
C987 C985 1.387 1_556 S
C987 C989 1.390 . S
C987 H991 0.950 1_556 S
H988 C984 0.950 . S
C989 C987 1.390 . S
C989 C990 1.387 . S
C989 H992 0.950 . S
C990 C989 1.387 . S
C990 C993 1.387 . S
H991 C987 0.950 1_554 S
H992 C989 0.950 . S
C993 C984 1.390 . S
C993 H986 0.950 . S
C993 C990 1.387 . S
C994 C995 1.388 1_556 S
C994 H998 0.957 . S
C994 C1003 1.390 . S
C995 C994 1.388 1_554 S
C995 C997 1.388 1_554 S
H996 C1003 0.950 . S
C997 C995 1.388 1_556 S
C997 C999 1.390 . S
C997 H1001 0.950 . S
H998 C994 0.957 . S
C999 C997 1.390 . S
C999 C1000 1.387 . S
C999 H1002 0.950 . S
C1000 C999 1.387 . S
C1000 C1003 1.387 . S
H1001 C997 0.950 . S
H1002 C999 0.950 . S
C1003 C994 1.390 . S
C1003 H996 0.950 . S
C1003 C1000 1.387 . S
C1004 C1005 1.387 . S
C1004 H1008 0.950 . S
C1004 C1013 1.390 . S
C1005 C1004 1.387 . S
C1005 C1007 1.387 . S
H1006 C1013 0.950 . S
C1007 C1005 1.387 . S
C1007 C1009 1.390 . S
C1007 H1011 0.950 . S
H1008 C1004 0.950 . S
C1009 C1007 1.390 . S
C1009 C1010 1.387 . S
C1009 H1012 0.950 . S
C1010 C1009 1.387 . S
C1010 C1013 1.387 . S
H1011 C1007 0.950 . S
H1012 C1009 0.950 . S
C1013 C1004 1.390 . S
C1013 H1006 0.950 . S
C1013 C1010 1.387 . S
C1014 C1015 1.387 . S
C1014 H1018 0.950 . S
C1014 C1023 1.390 . S
C1015 C1014 1.387 . S
C1015 C1017 1.387 . S
H1016 C1023 0.950 . S
C1017 C1015 1.387 . S
C1017 C1019 1.390 . S
C1017 H1021 0.950 . S
H1018 C1014 0.950 . S
C1019 C1017 1.390 . S
C1019 C1020 1.387 . S
C1019 H1022 0.950 . S
C1020 C1019 1.387 . S
C1020 C1023 1.387 . S
H1021 C1017 0.950 . S
H1022 C1019 0.950 . S
C1023 C1014 1.390 . S
C1023 H1016 0.950 . S
C1023 C1020 1.387 . S
C1024 C1025 1.387 1_655 S
C1024 H1028 0.950 . S
C1024 C1033 1.390 . S
C1025 C1024 1.387 1_455 S
C1025 C1027 1.387 1_455 S
H1026 C1033 0.950 . S
C1027 C1025 1.387 1_655 S
C1027 C1029 1.390 . S
C1027 H1031 0.950 1_655 S
H1028 C1024 0.950 . S
C1029 C1027 1.390 . S
C1029 C1030 1.387 . S
C1029 H1032 0.950 . S
C1030 C1029 1.387 . S
C1030 C1033 1.387 . S
H1031 C1027 0.950 1_455 S
H1032 C1029 0.950 . S
C1033 C1024 1.390 . S
C1033 H1026 0.950 . S
C1033 C1030 1.387 . S
C1034 C1035 1.387 1_455 S
C1034 H1038 0.950 1_455 S
C1034 C1043 1.390 . S
C1035 C1034 1.387 1_655 S
C1035 C1037 1.387 1_655 S
H1036 C1043 0.950 . S
C1037 C1035 1.387 1_455 S
C1037 C1039 1.390 . S
C1037 H1041 0.940 1_455 S
H1038 C1034 0.950 1_655 S
C1039 C1037 1.390 . S
C1039 C1040 1.387 . S
C1039 H1042 0.950 . S
C1040 C1039 1.387 . S
C1040 C1043 1.387 . S
H1041 C1037 0.940 1_655 S
H1042 C1039 0.950 . S
C1043 C1034 1.390 . S
C1043 H1036 0.950 . S
C1043 C1040 1.387 . S
C1044 C1045 1.387 . S
C1044 H1048 0.950 . S
C1044 C1053 1.390 . S
C1045 C1044 1.387 . S
C1045 C1047 1.387 . S
H1046 C1053 0.950 . S
C1047 C1045 1.387 . S
C1047 C1049 1.390 . S
C1047 H1051 0.950 . S
H1048 C1044 0.950 . S
C1049 C1047 1.390 . S
C1049 C1050 1.387 . S
C1049 H1052 0.950 . S
C1050 C1049 1.387 . S
C1050 C1053 1.387 . S
H1051 C1047 0.950 . S
H1052 C1049 0.950 . S
C1053 C1044 1.390 . S
C1053 H1046 0.950 . S
C1053 C1050 1.387 . S
C1054 C1055 1.387 . S
C1054 H1058 0.950 . S
C1054 C1063 1.390 . S
C1055 C1054 1.387 . S
C1055 C1057 1.387 . S
H1056 C1063 0.962 . S
C1057 C1055 1.387 . S
C1057 C1059 1.390 . S
C1057 H1061 0.950 . S
H1058 C1054 0.950 . S
C1059 C1057 1.390 . S
C1059 C1060 1.387 1_455 S
C1059 H1062 0.950 . S
C1060 C1059 1.387 1_655 S
C1060 C1063 1.387 1_655 S
H1061 C1057 0.950 . S
H1062 C1059 0.950 . S
C1063 C1054 1.390 . S
C1063 H1056 0.962 . S
C1063 C1060 1.387 1_455 S
C1064 C1065 1.387 1_565 S
C1064 H1068 0.950 . S
C1064 C1073 1.390 . S
C1065 C1064 1.387 1_545 S
C1065 C1067 1.387 1_545 S
H1066 C1073 0.950 . S
C1067 C1065 1.387 1_565 S
C1067 C1069 1.390 . S
C1067 H1071 0.937 1_565 S
H1068 C1064 0.950 . S
C1069 C1067 1.390 . S
C1069 C1070 1.387 . S
C1069 H1072 0.950 . S
C1070 C1069 1.387 . S
C1070 C1073 1.387 . S
H1071 C1067 0.937 1_545 S
H1072 C1069 0.950 . S
C1073 C1064 1.390 . S
C1073 H1066 0.950 . S
C1073 C1070 1.387 . S
C1074 C1075 1.387 . S
C1074 H1078 0.950 . S
C1074 C1083 1.390 . S
C1075 C1074 1.387 . S
C1075 C1077 1.387 . S
H1076 C1083 0.950 . S
C1077 C1075 1.387 . S
C1077 C1079 1.390 . S
C1077 H1081 0.950 . S
H1078 C1074 0.950 . S
C1079 C1077 1.390 . S
C1079 C1080 1.387 1_545 S
C1079 H1082 0.950 1_545 S
C1080 C1079 1.387 1_565 S
C1080 C1083 1.387 1_565 S
H1081 C1077 0.950 . S
H1082 C1079 0.950 1_565 S
C1083 C1074 1.390 . S
C1083 H1076 0.950 . S
C1083 C1080 1.387 1_545 S
C1084 C1085 1.387 . S
C1084 H1088 0.950 . S
C1084 C1093 1.390 . S
C1085 C1084 1.387 . S
C1085 C1087 1.387 . S
H1086 C1093 0.950 . S
C1087 C1085 1.387 . S
C1087 C1089 1.390 . S
C1087 H1091 0.950 . S
H1088 C1084 0.950 . S
C1089 C1087 1.390 . S
C1089 C1090 1.387 . S
C1089 H1092 0.950 . S
C1090 C1089 1.387 . S
C1090 C1093 1.387 . S
H1091 C1087 0.950 . S
H1092 C1089 0.950 . S
C1093 C1084 1.390 . S
C1093 H1086 0.950 . S
C1093 C1090 1.387 . S
C1094 C1095 1.387 . S
C1094 H1098 0.950 . S
C1094 C1103 1.390 . S
C1095 C1094 1.387 . S
C1095 C1097 1.387 . S
H1096 C1103 0.950 1_565 S
C1097 C1095 1.387 . S
C1097 C1099 1.390 . S
C1097 H1101 0.950 . S
H1098 C1094 0.950 . S
C1099 C1097 1.390 . S
C1099 C1100 1.387 1_545 S
C1099 H1102 0.950 . S
C1100 C1099 1.387 1_565 S
C1100 C1103 1.387 1_565 S
H1101 C1097 0.950 . S
H1102 C1099 0.950 . S
C1103 C1094 1.390 . S
C1103 H1096 0.950 1_545 S
C1103 C1100 1.387 1_545 S
C1104 C1105 1.387 . S
C1104 H1108 0.950 . S
C1104 C1113 1.390 . S
C1105 C1104 1.387 . S
C1105 C1107 1.387 1_655 S
H1106 C1113 0.950 . S
C1107 C1105 1.387 1_455 S
C1107 C1109 1.390 . S
C1107 H1111 0.950 . S
H1108 C1104 0.950 . S
C1109 C1107 1.390 . S
C1109 C1110 1.387 . S
C1109 H1112 0.950 . S
C1110 C1109 1.387 . S
C1110 C1113 1.387 1_455 S
H1111 C1107 0.950 . S
H1112 C1109 0.950 . S
C1113 C1104 1.390 . S
C1113 H1106 0.950 . S
C1113 C1110 1.387 1_655 S
C1114 C1115 1.387 1_655 S
C1114 H1118 0.950 . S
C1114 C1123 1.390 . S
C1115 C1114 1.387 1_455 S
C1115 C1117 1.387 . S
H1116 C1123 0.950 . S
C1117 C1115 1.387 . S
C1117 C1119 1.390 . S
C1117 H1121 0.950 . S
H1118 C1114 0.950 . S
C1119 C1117 1.390 . S
C1119 C1120 1.387 1_455 S
C1119 H1122 0.950 . S
C1120 C1119 1.387 1_655 S
C1120 C1123 1.387 . S
H1121 C1117 0.950 . S
H1122 C1119 0.950 . S
C1123 C1114 1.390 . S
C1123 H1116 0.950 . S
C1123 C1120 1.387 . S
C1124 C1125 1.387 1_545 S
C1124 H1128 0.950 . S
C1124 C1133 1.390 . S
C1125 C1124 1.387 1_565 S
C1125 C1127 1.387 . S
H1126 C1133 0.950 . S
C1127 C1125 1.387 . S
C1127 C1129 1.390 . S
C1127 H1131 0.950 . S
H1128 C1124 0.950 . S
C1129 C1127 1.390 . S
C1129 C1130 1.387 1_565 S
C1129 H1132 0.950 . S
C1130 C1129 1.387 1_545 S
C1130 C1133 1.387 . S
H1131 C1127 0.950 . S
H1132 C1129 0.950 . S
C1133 C1124 1.390 . S
C1133 H1126 0.950 . S
C1133 C1130 1.387 . S
C1134 C1135 1.387 . S
C1134 H1138 0.950 . S
C1134 C1143 1.390 . S
C1135 C1134 1.387 . S
C1135 C1137 1.387 . S
H1136 C1143 0.950 . S
C1137 C1135 1.387 . S
C1137 C1139 1.390 . S
C1137 H1141 0.950 . S
H1138 C1134 0.950 . S
C1139 C1137 1.390 . S
C1139 C1140 1.387 . S
C1139 H1142 0.950 . S
C1140 C1139 1.387 . S
C1140 C1143 1.387 . S
H1141 C1137 0.950 . S
H1142 C1139 0.950 . S
C1143 C1134 1.390 . S
C1143 H1136 0.950 . S
C1143 C1140 1.387 . S
C1144 C1145 1.387 . S
C1144 H1148 0.950 . S
C1144 C1153 1.390 . S
C1145 C1144 1.387 . S
C1145 C1147 1.387 1_554 S
H1146 C1153 0.950 . S
C1147 C1145 1.387 1_556 S
C1147 C1149 1.390 . S
C1147 H1151 0.950 . S
H1148 C1144 0.950 . S
C1149 C1147 1.390 . S
C1149 C1150 1.387 . S
C1149 H1152 0.950 . S
C1150 C1149 1.387 . S
C1150 C1153 1.387 1_556 S
H1151 C1147 0.950 . S
H1152 C1149 0.950 . S
C1153 C1144 1.390 . S
C1153 H1146 0.950 . S
C1153 C1150 1.387 1_554 S
C1154 C1155 1.387 . S
C1154 H1158 0.950 . S
C1154 C1163 1.390 . S
C1155 C1154 1.387 . S
C1155 C1157 1.387 . S
H1156 C1163 0.950 . S
C1157 C1155 1.387 . S
C1157 C1159 1.390 . S
C1157 H1161 0.950 . S
H1158 C1154 0.950 . S
C1159 C1157 1.390 . S
C1159 C1160 1.387 . S
C1159 H1162 0.950 . S
C1160 C1159 1.387 . S
C1160 C1163 1.387 . S
H1161 C1157 0.950 . S
H1162 C1159 0.950 . S
C1163 C1154 1.390 . S
C1163 H1156 0.950 . S
C1163 C1160 1.387 . S
C1164 C1165 1.387 . S
C1164 H1168 0.950 . S
C1164 C1173 1.390 . S
C1165 C1164 1.387 . S
C1165 C1167 1.387 . S
H1166 C1173 0.950 . S
C1167 C1165 1.387 . S
C1167 C1169 1.390 . S
C1167 H1171 0.950 . S
H1168 C1164 0.950 . S
C1169 C1167 1.390 . S
C1169 C1170 1.387 . S
C1169 H1172 0.950 . S
C1170 C1169 1.387 . S
C1170 C1173 1.387 . S
H1171 C1167 0.950 . S
H1172 C1169 0.950 . S
C1173 C1164 1.390 . S
C1173 H1166 0.950 . S
C1173 C1170 1.387 . S
C1174 C1175 1.387 . S
C1174 H1178 0.950 . S
C1174 C1183 1.390 . S
C1175 C1174 1.387 . S
C1175 C1177 1.387 . S
H1176 C1183 0.950 . S
C1177 C1175 1.387 . S
C1177 C1179 1.390 . S
C1177 H1181 0.950 . S
H1178 C1174 0.950 . S
C1179 C1177 1.390 . S
C1179 C1180 1.387 . S
C1179 H1182 0.950 . S
C1180 C1179 1.387 . S
C1180 C1183 1.387 . S
H1181 C1177 0.950 . S
H1182 C1179 0.950 . S
C1183 C1174 1.390 . S
C1183 H1176 0.950 . S
C1183 C1180 1.387 . S
C1184 C1185 1.387 . S
C1184 H1188 0.950 . S
C1184 C1193 1.390 . S
C1185 C1184 1.387 . S
C1185 C1187 1.387 . S
H1186 C1193 0.950 . S
C1187 C1185 1.387 . S
C1187 C1189 1.390 . S
C1187 H1191 0.950 . S
H1188 C1184 0.950 . S
C1189 C1187 1.390 . S
C1189 C1190 1.387 . S
C1189 H1192 0.950 . S
C1190 C1189 1.387 . S
C1190 C1193 1.387 . S
H1191 C1187 0.950 . S
H1192 C1189 0.950 . S
C1193 C1184 1.390 . S
C1193 H1186 0.950 . S
C1193 C1190 1.387 . S
C1194 C1195 1.387 . S
C1194 H1198 0.950 . S
C1194 C1203 1.390 . S
C1195 C1194 1.387 . S
C1195 C1197 1.387 . S
H1196 C1203 0.950 . S
C1197 C1195 1.387 . S
C1197 C1199 1.390 . S
C1197 H1201 0.950 . S
H1198 C1194 0.950 . S
C1199 C1197 1.390 . S
C1199 C1200 1.387 . S
C1199 H1202 0.950 . S
C1200 C1199 1.387 . S
C1200 C1203 1.387 . S
H1201 C1197 0.950 . S
H1202 C1199 0.950 . S
C1203 C1194 1.390 . S
C1203 H1196 0.950 . S
C1203 C1200 1.387 . S
C1204 C1205 1.387 . S
C1204 H1208 0.950 . S
C1204 C1213 1.390 . S
C1205 C1204 1.387 . S
C1205 C1207 1.387 1_545 S
H1206 C1213 0.950 . S
C1207 C1205 1.387 1_565 S
C1207 C1209 1.390 . S
C1207 H1211 0.950 . S
H1208 C1204 0.950 . S
C1209 C1207 1.390 . S
C1209 C1210 1.387 . S
C1209 H1212 0.950 . S
C1210 C1209 1.387 . S
C1210 C1213 1.387 1_565 S
H1211 C1207 0.950 . S
H1212 C1209 0.950 . S
C1213 C1204 1.390 . S
C1213 H1206 0.950 . S
C1213 C1210 1.387 1_545 S
C1214 C1215 1.387 1_554 S
C1214 H1218 0.950 . S
C1214 C1223 1.390 . S
C1215 C1214 1.387 1_556 S
C1215 C1217 1.387 . S
H1216 C1223 0.950 . S
C1217 C1215 1.387 . S
C1217 C1219 1.387 1_556 S
C1217 H1221 0.950 . S
H1218 C1214 0.950 . S
C1219 C1217 1.387 1_554 S
C1219 C1220 1.391 . S
C1219 H1222 0.950 . S
C1220 C1219 1.391 . S
C1220 C1223 1.387 . S
H1221 C1217 0.950 . S
H1222 C1219 0.950 . S
C1223 C1214 1.390 . S
C1223 H1216 0.950 . S
C1223 C1220 1.387 . S
C1224 C1225 1.387 . S
C1224 H1228 0.950 . S
C1224 C1233 1.390 1_565 S
C1225 C1224 1.387 . S
C1225 C1227 1.387 1_455 S
H1226 C1233 0.950 . S
C1227 C1225 1.387 1_655 S
C1227 C1229 1.390 1_565 S
C1227 H1231 0.950 . S
H1228 C1224 0.950 . S
C1229 C1227 1.390 1_545 S
C1229 C1230 1.387 1_655 S
C1229 H1232 0.950 . S
C1230 C1229 1.387 1_455 S
C1230 C1233 1.387 . S
H1231 C1227 0.950 . S
H1232 C1229 0.950 . S
C1233 C1224 1.390 1_545 S
C1233 H1226 0.950 . S
C1233 C1230 1.387 . S
C1234 C1235 1.387 1_455 S
C1234 H1238 0.950 . S
C1234 C1243 1.390 . S
C1235 C1234 1.387 1_655 S
C1235 C1237 1.387 . S
H1236 C1243 0.950 . S
C1237 C1235 1.387 . S
C1237 C1239 1.390 . S
C1237 H1241 0.950 . S
H1238 C1234 0.950 . S
C1239 C1237 1.390 . S
C1239 C1240 1.387 . S
C1239 H1242 0.950 . S
C1240 C1239 1.387 . S
C1240 C1243 1.387 1_655 S
H1241 C1237 0.950 . S
H1242 C1239 0.950 . S
C1243 C1234 1.390 . S
C1243 H1236 0.950 . S
C1243 C1240 1.387 1_455 S
C1244 C1245 1.387 . S
C1244 H1248 0.950 . S
C1244 C1253 1.390 1_556 S
C1245 C1244 1.387 . S
C1245 C1247 1.387 1_545 S
H1246 C1253 0.950 . S
C1247 C1245 1.387 1_565 S
C1247 C1249 1.390 1_556 S
C1247 H1251 0.950 . S
H1248 C1244 0.950 . S
C1249 C1247 1.390 1_554 S
C1249 C1250 1.387 1_565 S
C1249 H1252 0.950 . S
C1250 C1249 1.387 1_545 S
C1250 C1253 1.387 . S
H1251 C1247 0.950 . S
H1252 C1249 0.950 . S
C1253 C1244 1.390 1_554 S
C1253 H1246 0.950 . S
C1253 C1250 1.387 . S
C1254 C1255 1.387 . S
C1254 H1258 0.950 . S
C1254 C1263 1.390 1_554 S
C1255 C1254 1.387 . S
C1255 C1257 1.387 . S
H1256 C1263 0.950 . S
C1257 C1255 1.387 . S
C1257 C1259 1.390 1_554 S
C1257 H1261 0.950 . S
H1258 C1254 0.950 . S
C1259 C1257 1.390 1_556 S
C1259 C1260 1.387 . S
C1259 H1262 0.950 . S
C1260 C1259 1.387 . S
C1260 C1263 1.387 . S
H1261 C1257 0.950 . S
H1262 C1259 0.950 . S
C1263 C1254 1.390 1_556 S
C1263 H1256 0.950 . S
C1263 C1260 1.387 . S
C1264 C1265 1.387 1_545 S
C1264 H1268 0.950 . S
C1264 C1273 1.390 . S
C1265 C1264 1.387 1_565 S
C1265 C1267 1.387 . S
H1266 C1273 0.950 . S
C1267 C1265 1.387 . S
C1267 C1269 1.390 . S
C1267 H1271 0.950 . S
H1268 C1264 0.950 . S
C1269 C1267 1.390 . S
C1269 C1270 1.387 . S
C1269 H1272 0.950 . S
C1270 C1269 1.387 . S
C1270 C1273 1.387 1_565 S
H1271 C1267 0.950 . S
H1272 C1269 0.950 . S
C1273 C1264 1.390 . S
C1273 H1266 0.950 . S
C1273 C1270 1.387 1_545 S
C1274 C1275 1.387 . S
C1274 H1278 0.950 . S
C1274 C1283 1.390 . S
C1275 C1274 1.387 . S
C1275 C1277 1.387 . S
H1276 C1283 0.950 . S
C1277 C1275 1.387 . S
C1277 C1279 1.390 . S
C1277 H1281 0.950 . S
H1278 C1274 0.950 . S
C1279 C1277 1.390 . S
C1279 C1280 1.387 . S
C1279 H1282 0.950 . S
C1280 C1279 1.387 . S
C1280 C1283 1.387 . S
H1281 C1277 0.950 . S
H1282 C1279 0.950 . S
C1283 C1274 1.390 . S
C1283 H1276 0.950 . S
C1283 C1280 1.387 . S
C1284 C1285 1.387 . S
C1284 H1288 0.950 . S
C1284 C1293 1.390 1_455 S
C1285 C1284 1.387 . S
C1285 C1287 1.387 1_554 S
H1286 C1293 0.950 . S
C1287 C1285 1.387 1_556 S
C1287 C1289 1.390 1_455 S
C1287 H1291 0.950 . S
H1288 C1284 0.950 . S
C1289 C1287 1.390 1_655 S
C1289 C1290 1.387 1_556 S
C1289 H1292 0.950 . S
C1290 C1289 1.387 1_554 S
C1290 C1293 1.387 . S
H1291 C1287 0.950 . S
H1292 C1289 0.950 . S
C1293 C1284 1.390 1_655 S
C1293 H1286 0.950 . S
C1293 C1290 1.387 . S
C1294 C1295 1.387 . S
C1294 H1298 0.950 . S
C1294 C1303 1.390 1_455 S
C1295 C1294 1.387 . S
C1295 C1297 1.387 . S
H1296 C1303 0.950 . S
C1297 C1295 1.387 . S
C1297 C1299 1.390 1_455 S
C1297 H1301 0.950 . S
H1298 C1294 0.950 . S
C1299 C1297 1.390 1_655 S
C1299 C1300 1.387 . S
C1299 H1302 0.950 . S
C1300 C1299 1.387 . S
C1300 C1303 1.387 . S
H1301 C1297 0.950 . S
H1302 C1299 0.950 . S
C1303 C1294 1.390 1_655 S
C1303 H1296 0.950 . S
C1303 C1300 1.387 . S
C1304 C1305 1.387 . S
C1304 H1308 0.950 . S
C1304 C1313 1.390 . S
C1305 C1304 1.387 . S
C1305 C1307 1.387 . S
H1306 C1313 0.950 . S
C1307 C1305 1.387 . S
C1307 C1309 1.390 . S
C1307 H1311 0.950 . S
H1308 C1304 0.950 . S
C1309 C1307 1.390 . S
C1309 C1310 1.387 . S
C1309 H1312 0.950 . S
C1310 C1309 1.387 . S
C1310 C1313 1.387 . S
H1311 C1307 0.950 . S
H1312 C1309 0.950 . S
C1313 C1304 1.390 . S
C1313 H1306 0.950 . S
C1313 C1310 1.387 . S
C1314 C1315 1.387 . S
C1314 H1318 0.950 . S
C1314 C1323 1.390 . S
C1315 C1314 1.387 . S
C1315 C1317 1.387 . S
H1316 C1323 0.950 . S
C1317 C1315 1.387 . S
C1317 C1319 1.390 . S
C1317 H1321 0.950 . S
H1318 C1314 0.950 . S
C1319 C1317 1.390 . S
C1319 C1320 1.387 . S
C1319 H1322 0.950 . S
C1320 C1319 1.387 . S
C1320 C1323 1.387 . S
H1321 C1317 0.950 . S
H1322 C1319 0.950 . S
C1323 C1314 1.390 . S
C1323 H1316 0.950 . S
C1323 C1320 1.387 . S
C1324 C1325 1.387 . S
C1324 H1328 0.950 . S
C1324 C1333 1.390 1_565 S
C1325 C1324 1.387 . S
C1325 C1327 1.387 . S
H1326 C1333 0.950 . S
C1327 C1325 1.387 . S
C1327 C1329 1.390 1_565 S
C1327 H1331 0.950 . S
H1328 C1324 0.950 . S
C1329 C1327 1.390 1_545 S
C1329 C1330 1.387 . S
C1329 H1332 0.950 . S
C1330 C1329 1.387 . S
C1330 C1333 1.387 . S
H1331 C1327 0.950 . S
H1332 C1329 0.950 . S
C1333 C1324 1.390 1_545 S
C1333 H1326 0.950 . S
C1333 C1330 1.387 . S
C1334 C1335 1.387 . S
C1334 H1338 0.950 . S
C1334 C1343 1.390 . S
C1335 C1334 1.387 . S
C1335 C1337 1.387 1_556 S
H1336 C1343 0.950 . S
C1337 C1335 1.387 1_554 S
C1337 C1339 1.390 . S
C1337 H1341 0.950 . S
H1338 C1334 0.950 . S
C1339 C1337 1.390 . S
C1339 C1340 1.387 1_554 S
C1339 H1342 0.950 . S
C1340 C1339 1.387 1_556 S
C1340 C1343 1.387 . S
H1341 C1337 0.950 . S
H1342 C1339 0.950 . S
C1343 C1334 1.390 . S
C1343 H1336 0.950 . S
C1343 C1340 1.387 . S
C865 C615 0.892 . S
C870 C2 0.873 . S
C875 C38 1.022 . S
C880 C579 1.001 . S
C885 C74 0.996 . S
C890 C687 1.019 . S
C895 C110 1.143 . S
C900 C651 1.116 . S
C905 C146 0.875 . S
C910 C759 0.892 . S
C915 C182 0.967 . S
C920 C795 0.978 . S
C925 C723 1.004 . S
C930 C218 1.023 . S
C935 C399 1.070 . S
C940 C254 1.103 . S
C945 C290 0.881 . S
C950 C111 0.896 . S
C955 C39 0.979 . S
C960 C326 0.971 . S
C965 C362 1.101 . S
C970 C3 1.109 . S
C975 C398 1.100 . S
C980 C507 1.068 . S
C985 C183 1.190 . S
C990 C434 1.228 . S
C995 C147 1.107 . S
C1000 C470 1.101 . S
C1005 C506 1.100 . S
C1010 C255 1.070 . S
C1015 C542 0.967 . S
C1020 C219 0.978 . S
C1025 C327 1.189 . S
C1030 C578 1.225 . S
C1035 C363 1.116 . S
C1040 C614 1.140 . S
C1045 C291 1.107 1_655 S
C1050 C650 1.097 . S
C1055 C686 1.002 . S
C1060 C831 1.021 . S
C1065 C543 1.189 . S
C1070 C722 1.224 . S
C1075 C758 1.141 . S
C1080 C471 1.118 . S
C1085 C435 1.009 . S
C1090 C794 1.024 . S
C1095 C830 1.001 . S
C1100 C75 1.020 . S
C1105 C4 1.676 . S
C1110 C40 1.663 . S
C1115 C112 1.596 . S
C1120 C76 1.609 . S
C1125 C148 1.675 . S
C1130 C220 1.662 . S
C1135 C184 1.854 . S
C1140 C256 1.834 . S
C1145 C796 1.663 . S
C1150 C292 1.676 . S
C1155 C328 1.857 . S
C1160 C400 1.837 . S
C1165 C724 1.788 . S
C1170 C364 1.807 . S
C1175 C472 1.810 . S
C1180 C436 1.792 . S
C1185 C508 1.834 . S
C1190 C544 1.854 . S
C1195 C652 1.807 . S
C1200 C580 1.788 . S
C1205 C616 1.596 . S
C1210 C688 1.608 . S
C1215 C832 1.609 . S
C1220 C760 1.597 . S
C1225 C86 1.408 . S
C1230 C14 1.402 . S
C1235 C50 1.587 . S
C1240 C122 1.592 . S
C1245 C698 1.408 . S
C1250 C158 1.401 . S
C1255 C194 1.508 . S
C1260 C662 1.517 . S
C1265 C230 1.587 . S
C1270 C626 1.592 . S
C1275 C590 1.703 . S
C1280 C266 1.696 . S
C1285 C302 1.402 . S
C1290 C842 1.408 . S
C1295 C338 1.510 . S
C1300 C374 1.519 . S
C1305 C734 1.701 . S
C1310 C410 1.694 . S
C1315 C446 1.703 . S
C1320 C518 1.695 . S
C1325 C482 1.519 . S
C1330 C554 1.510 . S
C1335 C806 1.589 . S
C1340 C770 1.594 . S
