# Generated by pormake.
# Topology ukk, (4)-cn, num edge types: 1
# Building blocks:
#     Node 0, Type 0, BuildingBlock: MUDLON_clean_sbu_0, # of connection points: 4
#     Node 1, Type 0, BuildingBlock: MUDLON_clean_sbu_0, # of connection points: 4
#     Node 2, Type 0, BuildingBlock: MUDLON_clean_sbu_0, # of connection points: 4
#     Node 3, Type 0, BuildingBlock: MUDLON_clean_sbu_0, # of connection points: 4
#     Node 4, Type 0, BuildingBlock: MUDLON_clean_sbu_0, # of connection points: 4
#     Node 5, Type 0, BuildingBlock: MUDLON_clean_sbu_0, # of connection points: 4
#     Node 6, Type 0, BuildingBlock: MUDLON_clean_sbu_0, # of connection points: 4
#     Node 7, Type 0, BuildingBlock: MUDLON_clean_sbu_0, # of connection points: 4
#     Node 8, Type 0, BuildingBlock: MUDLON_clean_sbu_0, # of connection points: 4
#     Node 9, Type 0, BuildingBlock: MUDLON_clean_sbu_0, # of connection points: 4
#     Node 10, Type 0, BuildingBlock: MUDLON_clean_sbu_0, # of connection points: 4
#     Node 11, Type 0, BuildingBlock: MUDLON_clean_sbu_0, # of connection points: 4
#     Node 12, Type 0, BuildingBlock: MUDLON_clean_sbu_0, # of connection points: 4
#     Node 13, Type 0, BuildingBlock: MUDLON_clean_sbu_0, # of connection points: 4
#     Node 14, Type 0, BuildingBlock: MUDLON_clean_sbu_0, # of connection points: 4
#     Node 15, Type 0, BuildingBlock: MUDLON_clean_sbu_0, # of connection points: 4
#     Edge 16, Type (0, 0), BuildingBlock: XIVTED_clean_linker_0, # of connection points: 2
#     Edge 17, Type (0, 0), BuildingBlock: XIVTED_clean_linker_0, # of connection points: 2
#     Edge 18, Type (0, 0), BuildingBlock: XIVTED_clean_linker_0, # of connection points: 2
#     Edge 19, Type (0, 0), BuildingBlock: XIVTED_clean_linker_0, # of connection points: 2
#     Edge 20, Type (0, 0), BuildingBlock: XIVTED_clean_linker_0, # of connection points: 2
#     Edge 21, Type (0, 0), BuildingBlock: XIVTED_clean_linker_0, # of connection points: 2
#     Edge 22, Type (0, 0), BuildingBlock: XIVTED_clean_linker_0, # of connection points: 2
#     Edge 23, Type (0, 0), BuildingBlock: XIVTED_clean_linker_0, # of connection points: 2
#     Edge 24, Type (0, 0), BuildingBlock: XIVTED_clean_linker_0, # of connection points: 2
#     Edge 25, Type (0, 0), BuildingBlock: XIVTED_clean_linker_0, # of connection points: 2
#     Edge 26, Type (0, 0), BuildingBlock: XIVTED_clean_linker_0, # of connection points: 2
#     Edge 27, Type (0, 0), BuildingBlock: XIVTED_clean_linker_0, # of connection points: 2
#     Edge 28, Type (0, 0), BuildingBlock: XIVTED_clean_linker_0, # of connection points: 2
#     Edge 29, Type (0, 0), BuildingBlock: XIVTED_clean_linker_0, # of connection points: 2
#     Edge 30, Type (0, 0), BuildingBlock: XIVTED_clean_linker_0, # of connection points: 2
#     Edge 31, Type (0, 0), BuildingBlock: XIVTED_clean_linker_0, # of connection points: 2
#     Edge 32, Type (0, 0), BuildingBlock: XIVTED_clean_linker_0, # of connection points: 2
#     Edge 33, Type (0, 0), BuildingBlock: XIVTED_clean_linker_0, # of connection points: 2
#     Edge 34, Type (0, 0), BuildingBlock: XIVTED_clean_linker_0, # of connection points: 2
#     Edge 35, Type (0, 0), BuildingBlock: XIVTED_clean_linker_0, # of connection points: 2
#     Edge 36, Type (0, 0), BuildingBlock: XIVTED_clean_linker_0, # of connection points: 2
#     Edge 37, Type (0, 0), BuildingBlock: XIVTED_clean_linker_0, # of connection points: 2
#     Edge 38, Type (0, 0), BuildingBlock: XIVTED_clean_linker_0, # of connection points: 2
#     Edge 39, Type (0, 0), BuildingBlock: XIVTED_clean_linker_0, # of connection points: 2
#     Edge 40, Type (0, 0), BuildingBlock: XIVTED_clean_linker_0, # of connection points: 2
#     Edge 41, Type (0, 0), BuildingBlock: XIVTED_clean_linker_0, # of connection points: 2
#     Edge 42, Type (0, 0), BuildingBlock: XIVTED_clean_linker_0, # of connection points: 2
#     Edge 43, Type (0, 0), BuildingBlock: XIVTED_clean_linker_0, # of connection points: 2
#     Edge 44, Type (0, 0), BuildingBlock: XIVTED_clean_linker_0, # of connection points: 2
#     Edge 45, Type (0, 0), BuildingBlock: XIVTED_clean_linker_0, # of connection points: 2
#     Edge 46, Type (0, 0), BuildingBlock: XIVTED_clean_linker_0, # of connection points: 2
#     Edge 47, Type (0, 0), BuildingBlock: XIVTED_clean_linker_0, # of connection points: 2
# Relax obj value: 0.000
# Max RMSD: 0.072
# Mean RMSD: 0.072
data_MOF--net-ukk--node1-MUDLON_clean_sbu_0--edge1-XIVTED_clean_linker_0
_symmetry_space_group_name_H-M    P1
_symmetry_Int_Tables_number       1
_symmetry_cell_setting            triclinic
loop_
_symmetry_equiv_pos_as_xyz
'x, y, z'
_cell_length_a     59.875711
_cell_length_b     60.141278
_cell_length_c     9.3111205
_cell_angle_alpha  90.026593
_cell_angle_beta   89.942521
_cell_angle_gamma 89.992928
loop_
_atom_site_label
_atom_site_type_symbol
_atom_site_fract_x
_atom_site_fract_y
_atom_site_fract_z
_atom_type_partial_charge
Mg0 Mg 0.39215 0.1373 0.12463 0.0
C1 C 0.39218 0.18504 0.08508 0.0
O2 O 0.39395 0.17617 0.95653 0.0
C3 C 0.37787 0.10043 0.33591 0.0
O4 O 0.35775 0.10753 0.30399 0.0
C5 C 0.3437 0.14039 0.06903 0.0
O6 O 0.34647 0.15047 0.193 0.0
O7 O 0.36088 0.13264 0.005 0.0
O8 O 0.39104 0.17205 0.19299 0.0
O9 O 0.42401 0.13542 0.00929 0.0
C10 C 0.43553 0.11762 0.01042 0.0
O11 O 0.42635 0.09931 0.05975 0.0
O12 O 0.39471 0.11092 0.28706 0.0
Mg13 Mg 0.13552 0.64147 0.86302 0.0
C14 C 0.18333 0.65166 0.90084 0.0
O15 O 0.17414 0.6564 0.02536 0.0
C16 C 0.10115 0.6232 0.65348 0.0
O17 O 0.11066 0.60447 0.69251 0.0
C18 C 0.12495 0.68873 0.91457 0.0
O19 O 0.12419 0.68664 0.77418 0.0
O20 O 0.12872 0.67143 0.98996 0.0
O21 O 0.1707 0.64497 0.79928 0.0
O22 O 0.13199 0.60875 0.96669 0.0
C23 C 0.14898 0.59701 -0.00129 0.0
O24 O 0.1689 0.606 0.98993 0.0
O25 O 0.10961 0.64146 0.69635 0.0
Mg26 Mg 0.64064 0.8973 0.10412 0.0
C27 C 0.65025 0.84929 0.06918 0.0
O28 O 0.657 0.8581 0.94755 0.0
C29 C 0.62472 0.9338 0.30751 0.0
O30 O 0.60531 0.92804 0.25349 0.0
C31 C 0.6886 0.9033 0.06072 0.0
O32 O 0.68598 0.90011 0.19934 0.0
O33 O 0.67124 0.90352 0.98143 0.0
O34 O 0.64262 0.86218 0.16641 0.0
O35 O 0.60812 0.90199 -0.00096 0.0
C36 C 0.59664 0.8855 0.9553 0.0
O37 O 0.60594 0.86574 0.95252 0.0
O38 O 0.64192 0.92237 0.27498 0.0
Mg39 Mg 0.89931 0.39305 0.86713 0.0
C40 C 0.85281 0.37483 0.79788 0.0
O41 O 0.86307 0.35577 0.81719 0.0
C42 C 0.93392 0.41122 0.65868 0.0
O43 O 0.92487 0.43002 0.70095 0.0
C44 C 0.91082 0.34561 0.92207 0.0
O45 O 0.91469 0.34788 0.78394 0.0
O46 O 0.90464 0.36267 0.99335 0.0
O47 O 0.86419 0.39271 0.79998 0.0
O48 O 0.9037 0.42507 0.97613 0.0
C49 C 0.88673 0.43621 0.01652 0.0
O50 O 0.86705 0.42657 0.01499 0.0
O51 O 0.9252 0.393 0.70019 0.0
Mg52 Mg 0.39407 0.39959 0.13759 0.0
C53 C 0.38581 0.35174 0.17801 0.0
O54 O 0.38112 0.36068 0.30326 0.0
C55 C 0.40983 0.43592 0.93266 0.0
O56 O 0.4293 0.43017 0.98588 0.0
C57 C 0.34623 0.40845 0.18646 0.0
O58 O 0.34855 0.40916 0.04621 0.0
O59 O 0.36359 0.40536 0.26319 0.0
O60 O 0.39177 0.36453 0.0757 0.0
O61 O 0.42671 0.40453 0.24148 0.0
C62 C 0.44017 0.38827 0.25646 0.0
O63 O 0.43302 0.36809 0.22877 0.0
O64 O 0.39265 0.42458 0.96646 0.0
Mg65 Mg 0.39903 0.6426 0.86664 0.0
C66 C 0.35115 0.64992 0.81794 0.0
O67 O 0.36049 0.65169 0.69069 0.0
C68 C 0.43286 0.62418 0.07874 0.0
O69 O 0.42322 0.60554 0.03924 0.0
C70 C 0.40941 0.68993 0.81515 0.0
O71 O 0.40992 0.68801 0.95568 0.0
O72 O 0.40588 0.67252 0.74024 0.0
O73 O 0.36371 0.64617 0.92588 0.0
O74 O 0.40306 0.61015 0.76026 0.0
C75 C 0.38697 0.59626 0.76194 0.0
O76 O 0.36747 0.60274 0.81082 0.0
O77 O 0.42463 0.64252 0.03527 0.0
Mg78 Mg 0.64077 0.63484 0.11794 0.0
C79 C 0.63994 0.68268 0.15626 0.0
O80 O 0.63709 0.67389 0.28418 0.0
C81 C 0.65552 0.59692 0.91573 0.0
O82 O 0.67549 0.60289 0.95914 0.0
C83 C 0.68906 0.63795 0.17405 0.0
O84 O 0.68629 0.64739 0.04806 0.0
O85 O 0.6719 0.63052 0.2396 0.0
O86 O 0.64207 0.66961 0.0492 0.0
O87 O 0.60873 0.63329 0.23194 0.0
C88 C 0.59645 0.61603 0.22514 0.0
O89 O 0.60481 0.59776 0.16951 0.0
O90 O 0.63868 0.60835 0.95512 0.0
Mg91 Mg 0.63749 0.39166 0.86454 0.0
C92 C 0.68498 0.37673 0.8378 0.0
O93 O 0.67508 0.36573 0.73403 0.0
C94 C 0.60153 0.40856 0.06926 0.0
O95 O 0.60731 0.42758 0.01079 0.0
C96 C 0.62798 0.34421 0.82014 0.0
O97 O 0.63057 0.34642 0.95955 0.0
O98 O 0.62932 0.36157 0.74192 0.0
O99 O 0.67312 0.38892 0.92015 0.0
O100 O 0.63339 0.42413 0.76042 0.0
C101 C 0.65038 0.43522 0.7199 0.0
O102 O 0.66999 0.42544 0.71923 0.0
O103 O 0.61288 0.39123 0.03935 0.0
Mg104 Mg 0.89338 0.63561 0.62677 0.0
C105 C 0.89411 0.68357 0.59042 0.0
O106 O 0.89688 0.67498 0.46181 0.0
C107 C 0.87903 0.59824 0.83521 0.0
O108 O 0.85889 0.60493 0.80047 0.0
C109 C 0.84497 0.63855 0.57209 0.0
O110 O 0.84776 0.64827 0.69721 0.0
O111 O 0.86214 0.63107 0.50671 0.0
O112 O 0.89208 0.67033 0.69664 0.0
O113 O 0.92524 0.63407 0.5108 0.0
C114 C 0.93733 0.61667 0.51477 0.0
O115 O 0.92884 0.59833 0.56864 0.0
O116 O 0.89583 0.60905 0.78861 0.0
Mg117 Mg 0.63394 0.14095 0.37657 0.0
C118 C 0.68186 0.14861 0.42024 0.0
O119 O 0.67281 0.15047 0.54836 0.0
C120 C 0.59903 0.12319 0.16934 0.0
O121 O 0.60774 0.10429 0.21239 0.0
C122 C 0.62744 0.18852 0.4244 0.0
O123 O 0.63073 0.18624 0.28559 0.0
O124 O 0.62726 0.17105 0.50203 0.0
O125 O 0.66906 0.14466 0.31376 0.0
O126 O 0.63028 0.10834 0.4817 0.0
C127 C 0.64643 0.09454 0.47638 0.0
O128 O 0.66569 0.10121 0.42473 0.0
O129 O 0.60815 0.1413 0.2092 0.0
Mg130 Mg 0.14018 0.3984 0.60874 0.0
C131 C 0.14167 0.35042 0.56667 0.0
O132 O 0.14202 0.35923 0.43752 0.0
C133 C 0.1541 0.43467 0.82495 0.0
O134 O 0.17424 0.42735 0.79521 0.0
C135 C 0.18869 0.39542 0.55276 0.0
O136 O 0.18574 0.38393 0.67131 0.0
O137 O 0.17161 0.40392 0.49219 0.0
O138 O 0.14102 0.36347 0.6746 0.0
O139 O 0.10862 0.40045 0.49108 0.0
C140 C 0.09704 0.4182 0.49286 0.0
O141 O 0.10607 0.43646 0.54413 0.0
O142 O 0.1373 0.42447 0.77316 0.0
Mg143 Mg 0.39825 0.89282 0.35577 0.0
C144 C 0.35073 0.88379 0.40321 0.0
O145 O 0.36025 0.8817 0.52962 0.0
C146 C 0.43379 0.87936 0.12929 0.0
O147 O 0.42634 0.85918 0.15341 0.0
C148 C 0.39845 0.84483 0.41832 0.0
O149 O 0.38684 0.84685 0.29933 0.0
O150 O 0.40607 0.86243 0.47718 0.0
O151 O 0.36307 0.88843 0.29546 0.0
O152 O 0.40048 0.92536 0.46496 0.0
C153 C 0.38339 0.93803 0.46622 0.0
O154 O 0.36439 0.93035 0.41695 0.0
O155 O 0.4239 0.89578 0.18786 0.0
Mg156 Mg 0.89392 0.89847 0.63626 0.0
C157 C 0.88419 0.85036 0.66567 0.0
O158 O 0.87703 0.85889 0.78721 0.0
C159 C 0.90983 0.93574 0.43895 0.0
O160 O 0.9291 0.93028 0.49616 0.0
C161 C 0.84595 0.90436 0.67999 0.0
O162 O 0.84859 0.90158 0.541 0.0
O163 O 0.8633 0.90438 0.75938 0.0
O164 O 0.89204 0.86348 0.57055 0.0
O165 O 0.92641 0.90268 0.74233 0.0
C166 C 0.93713 0.88618 0.7934 0.0
O167 O 0.927 0.86689 0.80346 0.0
O168 O 0.89273 0.92393 0.4676 0.0
Mg169 Mg 0.89753 0.14228 0.36685 0.0
C170 C 0.84944 0.14999 0.32255 0.0
O171 O 0.85851 0.15315 0.1956 0.0
C172 C 0.93091 0.12431 0.58293 0.0
O173 O 0.92138 0.10558 0.54385 0.0
C174 C 0.90164 0.19014 0.31945 0.0
O175 O 0.89574 0.18784 0.45464 0.0
O176 O 0.9043 0.17262 0.24411 0.0
O177 O 0.86223 0.14515 0.4275 0.0
O178 O 0.90226 0.10987 0.26104 0.0
C179 C 0.88616 0.09603 0.25538 0.0
O180 O 0.86615 0.10264 0.29419 0.0
O181 O 0.92278 0.14255 0.53728 0.0
Mg182 Mg 0.13821 0.13579 0.63524 0.0
C183 C 0.13948 0.18365 0.67128 0.0
O184 O 0.13915 0.17499 0.80085 0.0
C185 C 0.15279 0.09675 0.44262 0.0
O186 O 0.17253 0.10198 0.49351 0.0
C187 C 0.1866 0.13887 0.69045 0.0
O188 O 0.18393 0.14763 0.56232 0.0
O189 O 0.16937 0.13186 0.75724 0.0
O190 O 0.13924 0.17046 0.56398 0.0
O191 O 0.10624 0.13437 0.74974 0.0
C192 C 0.09408 0.11702 0.74443 0.0
O193 O 0.1026 0.09867 0.69084 0.0
O194 O 0.13611 0.10896 0.47437 0.0
Mg195 Mg 0.13511 0.89135 0.38015 0.0
C196 C 0.18299 0.88222 0.334 0.0
O197 O 0.17351 0.87739 0.21064 0.0
C198 C 0.09898 0.87741 0.60051 0.0
O199 O 0.10453 0.85722 0.56061 0.0
C200 C 0.13577 0.84319 0.32212 0.0
O201 O 0.14708 0.8457 0.4419 0.0
O202 O 0.12791 0.86052 0.26121 0.0
O203 O 0.1706 0.88872 0.43741 0.0
O204 O 0.13101 0.9239 0.27466 0.0
C205 C 0.14772 0.93544 0.23426 0.0
O206 O 0.16756 0.92618 0.23289 0.0
O207 O 0.11021 0.89384 0.55313 0.0
H208 H 0.42084 0.96483 0.46421 0.0
H209 H 0.34598 0.07504 0.46724 0.0
H210 H 0.34967 0.96633 0.53591 0.0
H211 H 0.41595 0.07487 0.35565 0.0
H212 H 0.34903 0.03617 0.53863 0.0
H213 H 0.42128 1.0057 0.46953 0.0
C214 C 0.40541 0.97371 0.48443 0.0
C215 C 0.38514 0.96214 0.49815 0.0
C216 C 0.36382 0.04465 0.5002 0.0
C217 C 0.38548 1.00881 0.50296 0.0
C218 C 0.36209 0.06693 0.45965 0.0
C219 C 0.38066 0.07822 0.40346 0.0
C220 C 0.38423 0.03338 0.48357 0.0
C221 C 0.40115 0.06681 0.39754 0.0
C222 C 0.40564 0.99704 0.48645 0.0
C223 C 0.36564 0.97453 0.52319 0.0
N224 N 0.40232 0.04494 0.43502 0.0
N225 N 0.36627 0.9971 0.52341 0.0
H226 H 0.07767 0.58692 0.56014 0.0
H227 H 0.96301 0.65406 0.47181 0.0
H228 H 0.07281 0.65829 0.59756 0.0
H229 H 0.9676 0.58259 0.50045 0.0
H230 H 1.00387 0.65619 0.4706 0.0
H231 H 0.03841 0.58553 0.49056 0.0
C232 C 0.06847 0.60237 0.55167 0.0
C233 C 0.07858 0.62273 0.58667 0.0
C234 C 0.99593 0.64003 0.47519 0.0
C235 C 0.03333 0.62121 0.50792 0.0
C236 C 0.97256 0.63878 0.47509 0.0
C237 C 0.96178 0.61811 0.48777 0.0
C238 C 1.00864 0.62047 0.48739 0.0
C239 C 0.97512 0.5989 0.49188 0.0
C240 C 0.04597 0.60154 0.51232 0.0
C241 C 0.06573 0.64218 0.5726 0.0
N242 N 0.99779 0.60057 0.49297 0.0
N243 N 0.04373 0.64092 0.53595 0.0
H244 H 0.59173 0.96329 0.38193 0.0
H245 H 0.67813 0.06231 0.5074 0.0
H246 H 0.66326 0.95468 0.39498 0.0
H247 H 0.6067 0.07158 0.49758 0.0
H248 H 0.67257 0.02215 0.50356 0.0
H249 H 0.59644 1.00177 0.46065 0.0
C250 C 0.60843 0.96935 0.40351 0.0
C251 C 0.62715 0.95572 0.37985 0.0
C252 C 0.65806 0.0329 0.50422 0.0
C253 C 0.63266 1.0 0.46897 0.0
C254 C 0.66123 0.0559 0.5067 0.0
C255 C 0.64286 0.0704 0.50131 0.0
C256 C 0.63635 0.0242 0.49483 0.0
C257 C 0.62136 0.06106 0.50153 0.0
C258 C 0.61109 0.99139 0.44823 0.0
C259 C 0.64833 0.96455 0.4106 0.0
N260 N 0.6187 0.03857 0.49612 0.0
N261 N 0.65051 0.98616 0.45172 0.0
H262 H 0.06765 0.45298 0.47553 0.0
H263 H 0.96086 0.37566 0.58879 0.0
H264 H 0.07034 0.38132 0.4589 0.0
H265 H 0.95826 0.44733 0.57151 0.0
H266 H 0.99994 0.37709 0.51152 0.0
H267 H 0.02693 0.45105 0.47997 0.0
C268 C 0.05969 0.43683 0.47048 0.0
C269 C 0.07252 0.41729 0.46835 0.0
C270 C 0.99072 0.39249 0.52271 0.0
C271 C 0.02569 0.41492 0.47579 0.0
C272 C 0.96835 0.39168 0.5665 0.0
C273 C 0.95625 0.41142 0.58851 0.0
C274 C 1.00115 0.41318 0.50139 0.0
C275 C 0.96692 0.43167 0.55749 0.0
C276 C 0.03638 0.43573 0.47337 0.0
C277 C 0.06118 0.39684 0.46119 0.0
N278 N 0.98876 0.43203 0.51736 0.0
N279 N 0.03845 0.39618 0.4673 0.0
H280 H 0.44272 0.46557 0.85917 0.0
H281 H 0.35569 0.56378 0.72481 0.0
H282 H 0.37127 0.45644 0.84252 0.0
H283 H 0.42697 0.57371 0.74558 0.0
H284 H 0.36164 0.52366 0.72837 0.0
H285 H 0.43783 0.50395 0.77923 0.0
C286 C 0.42601 0.47149 0.83652 0.0
C287 C 0.40735 0.45776 0.8596 0.0
C288 C 0.37603 0.53456 0.73019 0.0
C289 C 0.40163 0.50191 0.76901 0.0
C290 C 0.37265 0.55752 0.72784 0.0
C291 C 0.39085 0.57219 0.7365 0.0
C292 C 0.39779 0.52606 0.74268 0.0
C293 C 0.41244 0.56306 0.73913 0.0
C294 C 0.42323 0.49348 0.79112 0.0
C295 C 0.38614 0.46641 0.82746 0.0
N296 N 0.41529 0.54059 0.74435 0.0
N297 N 0.38386 0.48797 0.78563 0.0
H298 H 0.45586 0.58767 0.17301 0.0
H299 H 0.57107 0.65362 0.26922 0.0
H300 H 0.46148 0.65898 0.13633 0.0
H301 H 0.56584 0.58224 0.23557 0.0
H302 H 0.53023 0.65613 0.26847 0.0
H303 H 0.49502 0.58587 0.24434 0.0
C304 C 0.46521 0.60302 0.18201 0.0
C305 C 0.45534 0.62349 0.14669 0.0
C306 C 0.53803 0.63991 0.26321 0.0
C307 C 0.50048 0.6215 0.2275 0.0
C308 C 0.56138 0.63843 0.26445 0.0
C309 C 0.57198 0.61768 0.25096 0.0
C310 C 0.52514 0.62049 0.24912 0.0
C311 C 0.55846 0.59861 0.24484 0.0
C312 C 0.48765 0.60196 0.22236 0.0
C313 C 0.46837 0.64281 0.16151 0.0
N314 N 0.53582 0.6005 0.24276 0.0
N315 N 0.49032 0.64131 0.19916 0.0
H316 H 0.68345 0.46372 0.63498 0.0
H317 H 0.61681 0.57283 0.87877 0.0
H318 H 0.61447 0.46288 0.76981 0.0
H319 H 0.68762 0.57073 0.79297 0.0
H320 H 0.61378 0.53418 0.79711 0.0
H321 H 0.68319 0.50422 0.64878 0.0
C322 C 0.66812 0.47204 0.66544 0.0
C323 C 0.64903 0.45977 0.70295 0.0
C324 C 0.62992 0.54229 0.79438 0.0
C325 C 0.64871 0.50638 0.72065 0.0
C326 C 0.63165 0.56442 0.8403 0.0
C327 C 0.65256 0.57502 0.84424 0.0
C328 C 0.6492 0.53071 0.75146 0.0
C329 C 0.67119 0.56321 0.79333 0.0
C330 C 0.66801 0.49523 0.67379 0.0
C331 C 0.62963 0.4716 0.74069 0.0
N332 N 0.6691 0.5417 0.75035 0.0
N333 N 0.63004 0.49421 0.75029 0.0
H334 H 0.47269 0.35722 0.30408 0.0
H335 H 0.57209 0.4419 0.13646 0.0
H336 H 0.46331 0.42788 0.25108 0.0
H337 H 0.58053 0.37079 0.16759 0.0
H338 H 0.53352 0.43784 0.21794 0.0
H339 H 0.51304 0.36271 0.29454 0.0
C340 C 0.4791 0.37396 0.2926 0.0
C341 C 0.46449 0.39209 0.27674 0.0
C342 C 0.54388 0.42314 0.2088 0.0
C343 C 0.5109 0.39847 0.2641 0.0
C344 C 0.56598 0.42544 0.1626 0.0
C345 C 0.57959 0.40663 0.14325 0.0
C346 C 0.53519 0.40185 0.2357 0.0
C347 C 0.57068 0.38577 0.1798 0.0
C348 C 0.5022 0.37707 0.2868 0.0
C349 C 0.47387 0.4134 0.26316 0.0
N350 N 0.549 0.38393 0.22253 0.0
N351 N 0.49645 0.41596 0.25532 0.0
H352 H 0.92303 0.46357 0.97281 0.0
H353 H 0.84733 0.57287 0.96893 0.0
H354 H 0.85361 0.46497 0.09769 0.0
H355 H 0.91732 0.57308 0.85779 0.0
H356 H 0.85086 0.53434 0.0476 0.0
H357 H 0.92286 0.50426 0.96158 0.0
C358 C 0.90786 0.4724 0.00051 0.0
C359 C 0.88822 0.46074 0.03474 0.0
C360 C 0.86554 0.54285 0.0077 0.0
C361 C 0.88786 0.50739 0.0204 0.0
C362 C 0.86354 0.56492 0.96284 0.0
C363 C 0.88199 0.57623 0.90514 0.0
C364 C 0.88611 0.53179 0.99361 0.0
C365 C 0.9026 0.56503 0.90101 0.0
C366 C 0.90776 0.49567 0.99346 0.0
C367 C 0.86909 0.47317 0.06944 0.0
N368 N 0.90404 0.54336 0.94265 0.0
N369 N 0.86934 0.49573 0.05978 0.0
H370 H 0.57232 0.15907 0.1026 0.0
H371 H 0.46471 0.08271 0.99083 0.0
H372 H 0.57418 0.08739 0.08304 0.0
H373 H 0.4625 0.1544 0.97983 0.0
H374 H 0.50543 0.08435 0.99456 0.0
H375 H 0.53309 0.15805 0.02841 0.0
C376 C 0.56463 0.14313 0.0804 0.0
C377 C 0.57658 0.12327 0.10081 0.0
C378 C 0.49609 0.09975 0.98941 0.0
C379 C 0.53152 0.12198 0.01726 0.0
C380 C 0.47278 0.09881 0.98693 0.0
C381 C 0.46007 0.11844 0.98639 0.0
C382 C 0.50693 0.12048 0.99295 0.0
C383 C 0.47155 0.13882 0.98075 0.0
C384 C 0.54218 0.14256 0.03844 0.0
C385 C 0.56566 0.10314 0.07015 0.0
N386 N 0.49429 0.13932 0.98631 0.0
N387 N 0.54375 0.10301 0.03171 0.0
H388 H 0.11213 0.5703 0.9564 0.0
H389 H 0.18577 0.45946 0.96343 0.0
H390 H 0.18153 0.56775 0.07997 0.0
H391 H 0.11629 0.46064 0.84102 0.0
H392 H 0.18276 0.49815 0.04006 0.0
H393 H 0.11154 0.52957 0.94707 0.0
C394 C 0.12713 0.5612 0.98425 0.0
C395 C 0.14699 0.57254 0.01753 0.0
C396 C 0.16806 0.48991 -0.00192 0.0
C397 C 0.14648 0.52587 0.00553 0.0
C398 C 0.16977 0.46775 0.95446 0.0
C399 C 0.15133 0.45679 0.89411 0.0
C400 C 0.14781 0.5014 0.98022 0.0
C401 C 0.13099 0.46842 0.8863 0.0
C402 C 0.12681 0.53792 0.97823 0.0
C403 C 0.16589 0.5598 0.05231 0.0
N404 N 0.12985 0.49016 0.9269 0.0
N405 N 0.16523 0.53724 0.04392 0.0
H406 H 0.45858 0.84848 0.98291 0.0
H407 H 0.5697 0.92181 0.00662 0.0
H408 H 0.45974 0.9171 0.11852 0.0
H409 H 0.56737 0.85355 0.86406 0.0
H410 H 0.52882 0.92228 0.01506 0.0
H411 H 0.49739 0.85188 0.90566 0.0
C412 C 0.46688 0.86438 0.99461 0.0
C413 C 0.45589 0.88244 0.05908 0.0
C414 C 0.53725 0.9073 0.97997 0.0
C415 C 0.50063 0.8864 0.97222 0.0
C416 C 0.56063 0.90705 0.97454 0.0
C417 C 0.57207 0.88752 0.93619 0.0
C418 C 0.52519 0.88788 0.94716 0.0
C419 C 0.55934 0.86892 0.89575 0.0
C420 C 0.48911 0.86631 0.95063 0.0
C421 C 0.46753 0.90267 0.07022 0.0
N422 N 0.53667 0.86949 0.90389 0.0
N423 N 0.48934 0.90401 0.02921 0.0
H424 H 0.94261 0.96582 0.37175 0.0
H425 H 0.85532 0.06315 0.21477 0.0
H426 H 0.87136 0.95595 0.3436 0.0
H427 H 0.92636 0.07371 0.25133 0.0
H428 H 0.86157 0.02308 0.22373 0.0
H429 H 0.93765 1.00414 0.29076 0.0
C430 C 0.92593 0.97157 0.34647 0.0
C431 C 0.90734 0.95763 0.36637 0.0
C432 C 0.87585 0.03411 0.22792 0.0
C433 C 0.90153 1.00173 0.27448 0.0
C434 C 0.8723 0.05705 0.22245 0.0
C435 C 0.89032 0.0719 0.23383 0.0
C436 C 0.89759 0.02582 0.24608 0.0
C437 C 0.91195 0.06294 0.24261 0.0
C438 C 0.92311 0.99352 0.30047 0.0
C439 C 0.88617 0.96607 0.33092 0.0
N440 N 0.91495 0.04051 0.2505 0.0
N441 N 0.88383 0.98761 0.28845 0.0
H442 H 0.95381 0.08797 0.68106 0.0
H443 H 0.06847 0.15454 0.78468 0.0
H444 H 0.95922 0.15927 0.64227 0.0
H445 H 0.06363 0.08309 0.75533 0.0
H446 H 0.02762 0.15687 0.78062 0.0
H447 H 0.99279 0.08641 0.75667 0.0
C448 C 0.96306 0.10337 0.69049 0.0
C449 C 0.9532 0.12377 0.65329 0.0
C450 C 0.03551 0.14067 0.77706 0.0
C451 C 0.99813 0.12204 0.73902 0.0
C452 C 0.05885 0.13931 0.7802 0.0
C453 C 0.06958 0.11858 0.76882 0.0
C454 C 0.02274 0.12118 0.7631 0.0
C455 C 0.05616 0.09944 0.763 0.0
C456 C 0.9854 0.10244 0.7333 0.0
C457 C 0.96611 0.14315 0.66878 0.0
N458 N 0.03351 0.10122 0.75894 0.0
N459 N 0.98796 0.14179 0.70883 0.0
H460 H 0.1799 0.96436 0.14264 0.0
H461 H 0.11387 0.07309 0.40201 0.0
H462 H 0.11178 0.96271 0.29427 0.0
H463 H 0.18481 0.07036 0.32191 0.0
H464 H 0.1106 0.03453 0.3178 0.0
H465 H 0.17947 1.0048 0.16041 0.0
C466 C 0.1647 0.9725 0.17761 0.0
C467 C 0.14594 0.96 0.21872 0.0
C468 C 0.12682 0.0425 0.3169 0.0
C469 C 0.14543 1.00656 0.24095 0.0
C470 C 0.12869 0.06456 0.36416 0.0
C471 C 0.14969 0.07494 0.37024 0.0
C472 C 0.14606 0.0308 0.27438 0.0
C473 C 0.16831 0.063 0.32044 0.0
C474 C 0.1645 0.99565 0.18827 0.0
C475 C 0.12668 0.97161 0.26211 0.0
N476 N 0.16607 0.04159 0.2757 0.0
N477 N 0.12701 0.99421 0.27382 0.0
H478 H 0.9651 0.85371 0.89334 0.0
H479 H 0.07578 0.91658 0.63443 0.0
H480 H 0.96549 0.92108 0.73384 0.0
H481 H 0.0724 0.84654 0.7327 0.0
H482 H 0.03717 0.92074 0.71731 0.0
H483 H 1.00581 0.85329 0.88273 0.0
C484 C 0.97373 0.86857 0.85818 0.0
C485 C 0.96175 0.88736 0.81257 0.0
C486 C 0.04499 0.90453 0.72261 0.0
C487 C 1.00858 0.88689 0.79883 0.0
C488 C 0.06711 0.90215 0.67601 0.0
C489 C 0.07732 0.8811 0.67482 0.0
C490 C 0.03301 0.88576 0.76901 0.0
C491 C 0.06518 0.86304 0.73 0.0
C492 C 0.99703 0.86828 0.8517 0.0
C493 C 0.97397 0.90616 0.76911 0.0
N494 N 0.04365 0.86574 0.77343 0.0
N495 N 0.99668 0.90535 0.76162 0.0
H496 H 0.3763 0.32087 0.3842 0.0
H497 H 0.39729 0.21594 0.87335 0.0
H498 H 0.39558 0.32645 0.93883 0.0
H499 H 0.38502 0.21029 0.32879 0.0
H500 H 0.39533 0.25625 0.89395 0.0
H501 H 0.37779 0.28048 0.36359 0.0
C502 C 0.38077 0.31362 0.28161 0.0
C503 C 0.38584 0.32716 0.16289 0.0
C504 C 0.39309 0.24625 0.98958 0.0
C505 C 0.38762 0.28068 0.13897 0.0
C506 C 0.39419 0.22316 0.97808 0.0
C507 C 0.39132 0.20961 0.09972 0.0
C508 C 0.38898 0.25607 0.1237 0.0
C509 C 0.38738 0.22004 0.23225 0.0
C510 C 0.38168 0.2905 0.27024 0.0
C511 C 0.39154 0.31672 0.03311 0.0
N512 N 0.38628 0.24264 0.24064 0.0
N513 N 0.39227 0.29411 0.02467 0.0
H514 H 0.21388 0.65948 0.1122 0.0
H515 H 0.32072 0.65128 0.59999 0.0
H516 H 0.20932 0.64503 0.65904 0.0
H517 H 0.32502 0.65036 0.06265 0.0
H518 H 0.28009 0.65204 0.61784 0.0
H519 H 0.25447 0.65932 0.09341 0.0
C520 C 0.22138 0.65635 0.00825 0.0
C521 C 0.20806 0.65226 0.88679 0.0
C522 C 0.28989 0.65166 0.71553 0.0
C523 C 0.25483 0.65208 0.86495 0.0
C524 C 0.31315 0.65131 0.70569 0.0
C525 C 0.32641 0.65077 0.83024 0.0
C526 C 0.27963 0.65169 0.85099 0.0
C527 C 0.31552 0.65075 0.96384 0.0
C528 C 0.24464 0.65619 -0.00203 0.0
C529 C 0.21887 0.64826 0.75545 0.0
N530 N 0.29278 0.65127 0.97066 0.0
N531 N 0.24162 0.64832 0.74797 0.0
H532 H 0.66277 0.8182 0.87085 0.0
H533 H 0.63186 0.71369 0.36351 0.0
H534 H 0.63617 0.82419 0.30018 0.0
H535 H 0.65071 0.70779 0.91756 0.0
H536 H 0.63471 0.75397 0.34458 0.0
H537 H 0.66014 0.77785 0.88962 0.0
C538 C 0.65645 0.81106 0.96962 0.0
C539 C 0.64966 0.82471 0.08427 0.0
C540 C 0.63819 0.74393 0.25062 0.0
C541 C 0.64656 0.77826 0.10599 0.0
C542 C 0.63658 0.72085 0.26117 0.0
C543 C 0.64106 0.70724 0.14177 0.0
C544 C 0.64446 0.75366 0.1198 0.0
C545 C 0.64705 0.71759 0.01225 0.0
C546 C 0.65489 0.78795 0.97987 0.0
C547 C 0.64161 0.81438 0.20916 0.0
N548 N 0.64864 0.74018 0.00485 0.0
N549 N 0.64028 0.79179 0.21663 0.0
H550 H 0.71339 0.40749 0.96021 0.0
H551 H 0.82411 0.34049 0.7453 0.0
H552 H 0.71291 0.34512 0.7312 0.0
H553 H 0.82501 0.41047 0.84782 0.0
H554 H 0.7834 0.34083 0.76268 0.0
H555 H 0.75447 0.40759 0.94785 0.0
C556 C 0.72191 0.3937 0.90915 0.0
C557 C 0.70971 0.37627 0.84664 0.0
C558 C 0.79247 0.35616 0.78061 0.0
C559 C 0.75653 0.37633 0.83149 0.0
C560 C 0.81574 0.35599 0.77039 0.0
C561 C 0.82803 0.3755 0.79443 0.0
C562 C 0.78129 0.37591 0.81729 0.0
C563 C 0.81621 0.39507 0.8272 0.0
C564 C 0.74531 0.39387 0.90093 0.0
C565 C 0.72161 0.35894 0.78041 0.0
N566 N 0.79352 0.39475 0.83873 0.0
N567 N 0.74428 0.3594 0.77484 0.0
H568 H 0.88364 0.70821 0.83159 0.0
H569 H 0.89854 0.82582 0.43281 0.0
H570 H 0.90186 0.71496 0.3851 0.0
H571 H 0.87199 0.81883 0.86163 0.0
H572 H 0.90117 0.78522 0.41579 0.0
H573 H 0.88092 0.74885 0.84881 0.0
C574 C 0.88714 0.7182 0.73748 0.0
C575 C 0.89295 0.70811 0.60678 0.0
C576 C 0.89471 0.79259 0.51346 0.0
C577 C 0.88986 0.75461 0.62538 0.0
C578 C 0.89317 0.81578 0.52303 0.0
C579 C 0.88501 0.82581 0.64866 0.0
C580 C 0.88817 0.77931 0.63066 0.0
C581 C 0.87836 0.8119 0.76241 0.0
C582 C 0.88552 0.7414 0.74711 0.0
C583 C 0.89726 0.72194 0.48813 0.0
N584 N 0.88016 0.78944 0.75087 0.0
N585 N 0.89564 0.7444 0.50031 0.0
H586 H 0.81851 0.15542 0.1101 0.0
H587 H 0.71279 0.15119 0.63473 0.0
H588 H 0.82391 0.14581 0.56812 0.0
H589 H 0.70736 0.14805 0.17294 0.0
H590 H 0.75334 0.15192 0.6127 0.0
H591 H 0.77793 0.15548 0.13214 0.0
C592 C 0.81119 0.15339 0.2157 0.0
C593 C 0.82474 0.15059 0.33763 0.0
C594 C 0.74333 0.15108 0.51607 0.0
C595 C 0.77801 0.15067 0.36327 0.0
C596 C 0.72009 0.15073 0.52833 0.0
C597 C 0.70655 0.14956 0.4053 0.0
C598 C 0.75326 0.15043 0.37965 0.0
C599 C 0.7171 0.14894 0.27066 0.0
C600 C 0.78795 0.15336 0.22791 0.0
C601 C 0.81418 0.148 0.47124 0.0
N602 N 0.73982 0.14943 0.26145 0.0
N603 N 0.79146 0.14814 0.48049 0.0
H604 H 0.1428 0.31934 0.35295 0.0
H605 H 0.1396 0.21482 0.88416 0.0
H606 H 0.14064 0.32529 0.81476 0.0
H607 H 0.14059 0.20866 0.42229 0.0
H608 H 0.14037 0.25512 0.86021 0.0
H609 H 0.14244 0.27899 0.37629 0.0
C610 C 0.14227 0.31219 0.45963 0.0
C611 C 0.14173 0.32583 0.58228 0.0
C612 C 0.14043 0.24502 0.76392 0.0
C613 C 0.14131 0.27934 0.60946 0.0
C614 C 0.13999 0.22192 0.7773 0.0
C615 C 0.14002 0.20822 0.65485 0.0
C616 C 0.14092 0.2547 0.62695 0.0
C617 C 0.14054 0.21851 0.51961 0.0
C618 C 0.14206 0.28907 0.47266 0.0
C619 C 0.14107 0.31548 0.71729 0.0
N620 N 0.14096 0.24112 0.50933 0.0
N621 N 0.14086 0.29287 0.7272 0.0
H622 H 0.21307 0.87491 0.11883 0.0
H623 H 0.32069 0.88138 0.62303 0.0
H624 H 0.2094 0.88837 0.57367 0.0
H625 H 0.32432 0.88398 0.16031 0.0
H626 H 0.28007 0.88065 0.60811 0.0
H627 H 0.2537 0.87489 0.13406 0.0
C628 C 0.22078 0.87779 0.22234 0.0
C629 C 0.20771 0.88166 0.34539 0.0
C630 C 0.28971 0.88137 0.50976 0.0
C631 C 0.25448 0.88161 0.36313 0.0
C632 C 0.31297 0.88171 0.51791 0.0
C633 C 0.32602 0.88274 0.39248 0.0
C634 C 0.27926 0.88187 0.37511 0.0
C635 C 0.31496 0.88321 0.2597 0.0
C636 C 0.24405 0.87785 0.23059 0.0
C637 C 0.21877 0.88534 0.47611 0.0
N638 N 0.29222 0.8827 0.2545 0.0
N639 N 0.24151 0.88517 0.48159 0.0
H640 H 0.19947 0.13201 0.97148 0.0
H641 H 0.33072 0.13009 0.79252 0.0
H642 H 0.22598 0.14072 0.54409 0.0
H643 H 0.30435 0.14467 0.21364 0.0
H644 H 0.29229 0.12769 0.70095 0.0
H645 H 0.23788 0.13038 0.0642 0.0
C646 C 0.21333 0.13342 0.89718 0.0
C647 C 0.20949 0.13668 0.75006 0.0
C648 C 0.29498 0.13134 0.81351 0.0
C649 C 0.25339 0.13462 0.85478 0.0
C650 C 0.31689 0.13264 0.86577 0.0
C651 C 0.32078 0.13776 0.01062 0.0
C652 C 0.27685 0.13484 0.90728 0.0
C653 C 0.30218 0.1409 0.10081 0.0
C654 C 0.23523 0.13257 0.95004 0.0
C655 C 0.22812 0.13841 0.65856 0.0
N656 N 0.28109 0.13936 0.04786 0.0
N657 N 0.24919 0.13733 0.71223 0.0
H658 H 0.14539 0.8039 0.45358 0.0
H659 H 0.11325 0.72759 0.78241 0.0
H660 H 0.11782 0.83036 0.06107 0.0
H661 H 0.13353 0.70144 0.19366 0.0
H662 H 0.11398 0.76509 0.88269 0.0
H663 H 0.14057 0.76642 0.36031 0.0
C664 C 0.13829 0.80187 0.34745 0.0
C665 C 0.13212 0.82042 0.26475 0.0
C666 C 0.11811 0.75117 0.95143 0.0
C667 C 0.12655 0.77718 0.15672 0.0
C668 C 0.11771 0.72969 0.8943 0.0
C669 C 0.12344 0.71126 0.97956 0.0
C670 C 0.12445 0.75439 0.09497 0.0
C671 C 0.12898 0.7151 0.12386 0.0
C672 C 0.13548 0.78036 0.29442 0.0
C673 C 0.12286 0.81658 0.12849 0.0
N674 N 0.12951 0.73623 0.1766 0.0
N675 N 0.12048 0.7954 0.07839 0.0
H676 H 0.7017 0.90652 0.77713 0.0
H677 H 0.83283 0.90663 0.9639 0.0
H678 H 0.72788 0.90506 0.20878 0.0
H679 H 0.80666 0.90641 0.53211 0.0
H680 H 0.79447 0.90799 0.05622 0.0
H681 H 0.74005 0.90841 0.685 0.0
C682 C 0.71546 0.90671 0.8525 0.0
C683 C 0.71151 0.90554 0.00088 0.0
C684 C 0.79715 0.90773 0.94122 0.0
C685 C 0.75548 0.90765 0.89641 0.0
C686 C 0.81907 0.90698 0.88855 0.0
C687 C 0.82303 0.90632 0.74005 0.0
C688 C 0.77905 0.90781 0.84474 0.0
C689 C 0.80448 0.9068 0.64749 0.0
C690 C 0.73738 0.90776 0.79995 0.0
C691 C 0.73006 0.90584 0.09348 0.0
N692 N 0.78338 0.90746 0.70122 0.0
N693 N 0.75116 0.9068 0.03985 0.0
H694 H 0.91324 0.20238 0.04332 0.0
H695 H 0.90123 0.3333 0.20072 0.0
H696 H 0.89649 0.22981 0.45814 0.0
H697 H 0.92159 0.30633 0.79135 0.0
H698 H 0.90015 0.29548 0.29835 0.0
H699 H 0.91693 0.24031 0.94911 0.0
C700 C 0.91039 0.21633 0.11463 0.0
C701 C 0.9045 0.21283 0.25881 0.0
C702 C 0.90495 0.29785 0.18727 0.0
C703 C 0.90865 0.25632 0.15186 0.0
C704 C 0.90561 0.31948 0.13162 0.0
C705 C 0.91146 0.32307 0.98748 0.0
C706 C 0.91009 0.27963 0.09814 0.0
C707 C 0.91694 0.30444 0.90304 0.0
C708 C 0.91251 0.238 0.0609 0.0
C709 C 0.90102 0.23161 0.34618 0.0
N710 N 0.91603 0.28359 0.9593 0.0
N711 N 0.90309 0.25245 0.29139 0.0
H712 H 0.20218 0.41518 0.29926 0.0
H713 H 0.33302 0.39882 0.46335 0.0
H714 H 0.22788 0.38403 0.68255 0.0
H715 H 0.30732 0.41971 0.05209 0.0
H716 H 0.29465 0.39717 0.55514 0.0
H717 H 0.24069 0.42044 0.21478 0.0
C718 C 0.21587 0.40948 0.36566 0.0
C719 C 0.21173 0.39903 0.49781 0.0
C720 C 0.29743 0.40223 0.44496 0.0
C721 C 0.25584 0.40514 0.40255 0.0
C722 C 0.31936 0.40327 0.39281 0.0
C723 C 0.32344 0.40929 0.24959 0.0
C724 C 0.27943 0.40734 0.35353 0.0
C725 C 0.30501 0.41483 0.16301 0.0
C726 C 0.23786 0.41248 0.31749 0.0
C727 C 0.23019 0.39204 0.57951 0.0
N728 N 0.28388 0.41366 0.21606 0.0
N729 N 0.25135 0.39522 0.53072 0.0
H730 H 0.41668 0.83294 0.68023 0.0
H731 H 0.40217 0.70192 0.5336 0.0
H732 H 0.38967 0.80512 0.28984 0.0
H733 H 0.41989 0.72921 0.94688 0.0
H734 H 0.40165 0.73965 0.43464 0.0
H735 H 0.4218 0.79502 0.77329 0.0
C736 C 0.41192 0.81891 0.61397 0.0
C737 C 0.40258 0.82227 0.47747 0.0
C738 C 0.40577 0.73737 0.54688 0.0
C739 C 0.40849 0.7789 0.58256 0.0
C740 C 0.40615 0.7158 0.60322 0.0
C741 C 0.41094 0.71235 0.74898 0.0
C742 C 0.41027 0.75566 0.63669 0.0
C743 C 0.41596 0.73104 0.83406 0.0
C744 C 0.41482 0.79728 0.66707 0.0
C745 C 0.39676 0.80343 0.39617 0.0
N746 N 0.41541 0.75184 0.77693 0.0
N747 N 0.39978 0.78266 0.44986 0.0
H748 H 0.7283 0.64072 0.027 0.0
H749 H 0.80574 0.64161 0.71914 0.0
H750 H 0.70223 0.62975 0.45328 0.0
H751 H 0.83179 0.62968 0.29379 0.0
H752 H 0.76783 0.63918 0.62421 0.0
H753 H 0.76619 0.63859 0.12228 0.0
C754 C 0.73053 0.63783 0.14091 0.0
C755 C 0.712 0.63554 0.23252 0.0
C756 C 0.78181 0.63695 0.55166 0.0
C757 C 0.75555 0.63323 0.34252 0.0
C758 C 0.8035 0.63844 0.60552 0.0
C759 C 0.82203 0.63598 0.51404 0.0
C760 C 0.77847 0.63333 0.40445 0.0
C761 C 0.81802 0.6317 0.36814 0.0
C762 C 0.75222 0.63651 0.19499 0.0
C763 C 0.71599 0.63162 0.37882 0.0
N764 N 0.79668 0.63074 0.31756 0.0
N765 N 0.73734 0.63082 0.42958 0.0
H766 H 0.6237 0.2009 0.70909 0.0
H767 H 0.62633 0.33184 0.53488 0.0
H768 H 0.62612 0.228 0.28016 0.0
H769 H 0.62381 0.30487 0.96413 0.0
H770 H 0.62436 0.29391 0.4389 0.0
H771 H 0.6219 0.23888 0.8048 0.0
C772 C 0.62373 0.21479 0.63505 0.0
C773 C 0.62516 0.21119 0.48638 0.0
C774 C 0.62413 0.29632 0.55414 0.0
C775 C 0.62316 0.25474 0.59499 0.0
C776 C 0.62521 0.31799 0.6089 0.0
C777 C 0.62533 0.32161 0.75781 0.0
C778 C 0.62318 0.27809 0.64888 0.0
C779 C 0.62387 0.30296 0.84853 0.0
C780 C 0.62273 0.23649 0.68966 0.0
C781 C 0.62514 0.22989 0.3956 0.0
N782 N 0.62295 0.28208 0.79279 0.0
N783 N 0.62424 0.25077 0.45122 0.0
loop_
_geom_bond_atom_site_label_1
_geom_bond_atom_site_label_2
_geom_bond_distance
_geom_bond_site_symmetry_2
_ccdc_geom_bond_type
Mg0 O7 2.141 . S
Mg0 O8 2.048 . S
Mg0 O9 2.048 . S
Mg0 O12 2.141 . S
C1 O2 1.313 1_554 S
C1 O8 1.195 . S
O2 C1 1.313 1_556 S
C3 O4 1.245 . S
C3 O12 1.289 . S
O4 C3 1.245 . S
C5 O6 1.245 1_554 S
C5 O7 1.289 . S
O6 C5 1.245 1_556 S
O7 Mg0 2.141 . S
O7 C5 1.289 . S
O8 Mg0 2.048 . S
O8 C1 1.195 . S
O9 Mg0 2.048 . S
O9 C10 1.195 . S
C10 O9 1.195 . S
C10 O11 1.313 . S
O11 C10 1.313 . S
O12 Mg0 2.141 . S
O12 C3 1.289 . S
Mg13 O20 2.141 . S
Mg13 O21 2.048 . S
Mg13 O22 2.048 . S
Mg13 O25 2.141 . S
C14 O15 1.313 . S
C14 O21 1.195 . S
O15 C14 1.313 . S
C16 O17 1.245 . S
C16 O25 1.289 . S
O17 C16 1.245 . S
C18 O19 1.245 . S
C18 O20 1.289 . S
O19 C18 1.245 . S
O20 Mg13 2.141 . S
O20 C18 1.289 . S
O21 Mg13 2.048 . S
O21 C14 1.195 . S
O22 Mg13 2.048 . S
O22 C23 1.195 . S
C23 O22 1.195 . S
C23 O24 1.313 . S
O24 C23 1.313 . S
O25 Mg13 2.141 . S
O25 C16 1.289 . S
Mg26 O33 2.141 . S
Mg26 O34 2.048 . S
Mg26 O35 2.048 . S
Mg26 O38 2.141 . S
C27 O28 1.313 1_554 S
C27 O34 1.195 . S
O28 C27 1.313 1_556 S
C29 O30 1.245 . S
C29 O38 1.289 . S
O30 C29 1.245 . S
C31 O32 1.245 1_554 S
C31 O33 1.289 . S
O32 C31 1.245 1_556 S
O33 Mg26 2.141 . S
O33 C31 1.289 . S
O34 Mg26 2.048 . S
O34 C27 1.195 . S
O35 Mg26 2.048 . S
O35 C36 1.195 . S
C36 O35 1.195 . S
C36 O37 1.313 . S
O37 C36 1.313 . S
O38 Mg26 2.141 . S
O38 C29 1.289 . S
Mg39 O46 2.141 . S
Mg39 O47 2.048 . S
Mg39 O48 2.048 . S
Mg39 O51 2.141 . S
C40 O41 1.313 . S
C40 O47 1.195 . S
O41 C40 1.313 . S
C42 O43 1.245 . S
C42 O51 1.289 . S
O43 C42 1.245 . S
C44 O45 1.245 . S
C44 O46 1.289 . S
O45 C44 1.245 . S
O46 Mg39 2.141 . S
O46 C44 1.289 . S
O47 Mg39 2.048 . S
O47 C40 1.195 . S
O48 Mg39 2.048 . S
O48 C49 1.195 . S
C49 O48 1.195 . S
C49 O50 1.313 . S
O50 C49 1.313 . S
O51 Mg39 2.141 . S
O51 C42 1.289 . S
Mg52 O59 2.141 . S
Mg52 O60 2.048 . S
Mg52 O61 2.048 1_554 S
Mg52 O64 2.141 . S
C53 O54 1.313 . S
C53 O60 1.195 . S
O54 C53 1.313 . S
C55 O56 1.245 . S
C55 O64 1.289 . S
O56 C55 1.245 . S
C57 O58 1.245 . S
C57 O59 1.289 . S
O58 C57 1.245 . S
O59 Mg52 2.141 . S
O59 C57 1.289 . S
O60 Mg52 2.048 . S
O60 C53 1.195 . S
O61 Mg52 2.048 1_556 S
O61 C62 1.195 1_556 S
C62 O61 1.195 1_554 S
C62 O63 1.313 . S
O63 C62 1.313 . S
O64 Mg52 2.141 . S
O64 C55 1.289 . S
Mg65 O72 2.141 . S
Mg65 O73 2.048 . S
Mg65 O74 2.048 . S
Mg65 O77 2.141 . S
C66 O67 1.313 1_556 S
C66 O73 1.195 . S
O67 C66 1.313 1_554 S
C68 O69 1.245 1_556 S
C68 O77 1.289 . S
O69 C68 1.245 1_554 S
C70 O71 1.245 . S
C70 O72 1.289 . S
O71 C70 1.245 . S
O72 Mg65 2.141 . S
O72 C70 1.289 . S
O73 Mg65 2.048 . S
O73 C66 1.195 . S
O74 Mg65 2.048 . S
O74 C75 1.195 . S
C75 O74 1.195 . S
C75 O76 1.313 1_556 S
O76 C75 1.313 1_554 S
O77 Mg65 2.141 . S
O77 C68 1.289 . S
Mg78 O85 2.141 . S
Mg78 O86 2.048 . S
Mg78 O87 2.048 1_554 S
Mg78 O90 2.141 . S
C79 O80 1.313 . S
C79 O86 1.195 . S
O80 C79 1.313 . S
C81 O82 1.245 . S
C81 O90 1.289 . S
O82 C81 1.245 . S
C83 O84 1.245 . S
C83 O85 1.289 . S
O84 C83 1.245 . S
O85 Mg78 2.141 . S
O85 C83 1.289 . S
O86 Mg78 2.048 . S
O86 C79 1.195 . S
O87 Mg78 2.048 1_556 S
O87 C88 1.195 1_556 S
C88 O87 1.195 1_554 S
C88 O89 1.313 . S
O89 C88 1.313 . S
O90 Mg78 2.141 . S
O90 C81 1.289 . S
Mg91 O98 2.141 . S
Mg91 O99 2.048 . S
Mg91 O100 2.048 . S
Mg91 O103 2.141 . S
C92 O93 1.313 1_556 S
C92 O99 1.195 . S
O93 C92 1.313 1_554 S
C94 O95 1.245 1_556 S
C94 O103 1.289 . S
O95 C94 1.245 1_554 S
C96 O97 1.245 . S
C96 O98 1.289 . S
O97 C96 1.245 . S
O98 Mg91 2.141 . S
O98 C96 1.289 . S
O99 Mg91 2.048 . S
O99 C92 1.195 . S
O100 Mg91 2.048 . S
O100 C101 1.195 . S
C101 O100 1.195 . S
C101 O102 1.313 1_556 S
O102 C101 1.313 1_554 S
O103 Mg91 2.141 . S
O103 C94 1.289 . S
Mg104 O111 2.141 . S
Mg104 O112 2.048 . S
Mg104 O113 2.048 . S
Mg104 O116 2.141 . S
C105 O106 1.313 . S
C105 O112 1.195 . S
O106 C105 1.313 . S
C107 O108 1.245 . S
C107 O116 1.289 . S
O108 C107 1.245 . S
C109 O110 1.245 . S
C109 O111 1.289 . S
O110 C109 1.245 . S
O111 Mg104 2.141 . S
O111 C109 1.289 . S
O112 Mg104 2.048 . S
O112 C105 1.195 . S
O113 Mg104 2.048 . S
O113 C114 1.195 . S
C114 O113 1.195 . S
C114 O115 1.313 . S
O115 C114 1.313 . S
O116 Mg104 2.141 . S
O116 C107 1.289 . S
Mg117 O124 2.141 . S
Mg117 O125 2.048 . S
Mg117 O126 2.048 . S
Mg117 O129 2.141 . S
C118 O119 1.313 . S
C118 O125 1.195 . S
O119 C118 1.313 . S
C120 O121 1.245 . S
C120 O129 1.289 . S
O121 C120 1.245 . S
C122 O123 1.245 . S
C122 O124 1.289 . S
O123 C122 1.245 . S
O124 Mg117 2.141 . S
O124 C122 1.289 . S
O125 Mg117 2.048 . S
O125 C118 1.195 . S
O126 Mg117 2.048 . S
O126 C127 1.195 . S
C127 O126 1.195 . S
C127 O128 1.313 . S
O128 C127 1.313 . S
O129 Mg117 2.141 . S
O129 C120 1.289 . S
Mg130 O137 2.141 . S
Mg130 O138 2.048 . S
Mg130 O139 2.048 . S
Mg130 O142 2.141 . S
C131 O132 1.313 . S
C131 O138 1.195 . S
O132 C131 1.313 . S
C133 O134 1.245 . S
C133 O142 1.289 . S
O134 C133 1.245 . S
C135 O136 1.245 . S
C135 O137 1.289 . S
O136 C135 1.245 . S
O137 Mg130 2.141 . S
O137 C135 1.289 . S
O138 Mg130 2.048 . S
O138 C131 1.195 . S
O139 Mg130 2.048 . S
O139 C140 1.195 . S
C140 O139 1.195 . S
C140 O141 1.313 . S
O141 C140 1.313 . S
O142 Mg130 2.141 . S
O142 C133 1.289 . S
Mg143 O150 2.141 . S
Mg143 O151 2.048 . S
Mg143 O152 2.048 . S
Mg143 O155 2.141 . S
C144 O145 1.313 . S
C144 O151 1.195 . S
O145 C144 1.313 . S
C146 O147 1.245 . S
C146 O155 1.289 . S
O147 C146 1.245 . S
C148 O149 1.245 . S
C148 O150 1.289 . S
O149 C148 1.245 . S
O150 Mg143 2.141 . S
O150 C148 1.289 . S
O151 Mg143 2.048 . S
O151 C144 1.195 . S
O152 Mg143 2.048 . S
O152 C153 1.195 . S
C153 O152 1.195 . S
C153 O154 1.313 . S
O154 C153 1.313 . S
O155 Mg143 2.141 . S
O155 C146 1.289 . S
Mg156 O163 2.141 . S
Mg156 O164 2.048 . S
Mg156 O165 2.048 . S
Mg156 O168 2.141 . S
C157 O158 1.313 . S
C157 O164 1.195 . S
O158 C157 1.313 . S
C159 O160 1.245 . S
C159 O168 1.289 . S
O160 C159 1.245 . S
C161 O162 1.245 . S
C161 O163 1.289 . S
O162 C161 1.245 . S
O163 Mg156 2.141 . S
O163 C161 1.289 . S
O164 Mg156 2.048 . S
O164 C157 1.195 . S
O165 Mg156 2.048 . S
O165 C166 1.195 . S
C166 O165 1.195 . S
C166 O167 1.313 . S
O167 C166 1.313 . S
O168 Mg156 2.141 . S
O168 C159 1.289 . S
Mg169 O176 2.141 . S
Mg169 O177 2.048 . S
Mg169 O178 2.048 . S
Mg169 O181 2.141 . S
C170 O171 1.313 . S
C170 O177 1.195 . S
O171 C170 1.313 . S
C172 O173 1.245 . S
C172 O181 1.289 . S
O173 C172 1.245 . S
C174 O175 1.245 . S
C174 O176 1.289 . S
O175 C174 1.245 . S
O176 Mg169 2.141 . S
O176 C174 1.289 . S
O177 Mg169 2.048 . S
O177 C170 1.195 . S
O178 Mg169 2.048 . S
O178 C179 1.195 . S
C179 O178 1.195 . S
C179 O180 1.313 . S
O180 C179 1.313 . S
O181 Mg169 2.141 . S
O181 C172 1.289 . S
Mg182 O189 2.141 . S
Mg182 O190 2.048 . S
Mg182 O191 2.048 . S
Mg182 O194 2.141 . S
C183 O184 1.313 . S
C183 O190 1.195 . S
O184 C183 1.313 . S
C185 O186 1.245 . S
C185 O194 1.289 . S
O186 C185 1.245 . S
C187 O188 1.245 . S
C187 O189 1.289 . S
O188 C187 1.245 . S
O189 Mg182 2.141 . S
O189 C187 1.289 . S
O190 Mg182 2.048 . S
O190 C183 1.195 . S
O191 Mg182 2.048 . S
O191 C192 1.195 . S
C192 O191 1.195 . S
C192 O193 1.313 . S
O193 C192 1.313 . S
O194 Mg182 2.141 . S
O194 C185 1.289 . S
Mg195 O202 2.141 . S
Mg195 O203 2.048 . S
Mg195 O204 2.048 . S
Mg195 O207 2.141 . S
C196 O197 1.313 . S
C196 O203 1.195 . S
O197 C196 1.313 . S
C198 O199 1.245 . S
C198 O207 1.289 . S
O199 C198 1.245 . S
C200 O201 1.245 . S
C200 O202 1.289 . S
O201 C200 1.245 . S
O202 Mg195 2.141 . S
O202 C200 1.289 . S
O203 Mg195 2.048 . S
O203 C196 1.195 . S
O204 Mg195 2.048 . S
O204 C205 1.195 . S
C205 O204 1.195 . S
C205 O206 1.313 . S
O206 C205 1.313 . S
O207 Mg195 2.141 . S
O207 C198 1.289 . S
H208 C214 0.930 . S
H209 C218 0.930 1_556 S
H210 C223 0.929 . S
H211 C221 0.929 . S
H212 C216 0.929 . S
H213 C222 0.929 . S
C214 H208 0.930 . S
C214 C215 1.367 . S
C214 C222 1.378 . S
C215 C214 1.367 . S
C215 C223 1.433 . S
C216 H212 0.929 . S
C216 C218 1.378 . S
C216 C220 1.350 . S
C217 C220 1.463 1_565 S
C217 C222 1.350 . S
C217 N225 1.427 . S
C218 H209 0.930 1_554 S
C218 C216 1.378 . S
C218 C219 1.367 . S
C219 C218 1.367 . S
C219 C221 1.433 . S
C220 C216 1.350 . S
C220 C217 1.463 1_545 S
C220 N224 1.427 . S
C221 H211 0.929 . S
C221 C219 1.433 . S
C221 N224 1.384 . S
C222 H213 0.929 . S
C222 C214 1.378 . S
C222 C217 1.350 . S
C223 H210 0.929 . S
C223 C215 1.433 . S
C223 N225 1.384 . S
N224 C220 1.427 . S
N224 C221 1.384 . S
N225 C217 1.427 . S
N225 C223 1.384 . S
H226 C232 0.930 . S
H227 C236 0.930 . S
H228 C241 0.929 . S
H229 C239 0.929 . S
H230 C234 0.929 . S
H231 C240 0.929 . S
C232 H226 0.930 . S
C232 C233 1.367 . S
C232 C240 1.378 . S
C233 C232 1.367 . S
C233 C241 1.433 . S
C234 H230 0.929 . S
C234 C236 1.378 . S
C234 C238 1.350 . S
C235 C238 1.463 1_455 S
C235 C240 1.350 . S
C235 N243 1.427 . S
C236 H227 0.930 . S
C236 C234 1.378 . S
C236 C237 1.367 . S
C237 C236 1.367 . S
C237 C239 1.433 . S
C238 C234 1.350 . S
C238 C235 1.463 1_655 S
C238 N242 1.427 . S
C239 H229 0.929 . S
C239 C237 1.433 . S
C239 N242 1.384 . S
C240 H231 0.929 . S
C240 C232 1.378 . S
C240 C235 1.350 . S
C241 H228 0.929 . S
C241 C233 1.433 . S
C241 N243 1.384 . S
N242 C238 1.427 . S
N242 C239 1.384 . S
N243 C235 1.427 . S
N243 C241 1.384 . S
H244 C250 0.930 . S
H245 C254 0.930 . S
H246 C259 0.929 . S
H247 C257 0.929 . S
H248 C252 0.929 . S
H249 C258 0.929 . S
C250 H244 0.930 . S
C250 C251 1.367 . S
C250 C258 1.378 . S
C251 C250 1.367 . S
C251 C259 1.433 . S
C252 H248 0.929 . S
C252 C254 1.378 . S
C252 C256 1.350 . S
C253 C256 1.463 1_565 S
C253 C258 1.350 . S
C253 N261 1.427 . S
C254 H245 0.930 . S
C254 C252 1.378 . S
C254 C255 1.367 . S
C255 C254 1.367 . S
C255 C257 1.433 . S
C256 C252 1.350 . S
C256 C253 1.463 1_545 S
C256 N260 1.427 . S
C257 H247 0.929 . S
C257 C255 1.433 . S
C257 N260 1.384 . S
C258 H249 0.929 . S
C258 C250 1.378 . S
C258 C253 1.350 . S
C259 H246 0.929 . S
C259 C251 1.433 . S
C259 N261 1.384 . S
N260 C256 1.427 . S
N260 C257 1.384 . S
N261 C253 1.427 . S
N261 C259 1.384 . S
H262 C268 0.930 . S
H263 C272 0.930 1_554 S
H264 C277 0.929 . S
H265 C275 0.929 . S
H266 C270 0.929 . S
H267 C276 0.929 . S
C268 H262 0.930 . S
C268 C269 1.367 . S
C268 C276 1.378 . S
C269 C268 1.367 . S
C269 C277 1.433 . S
C270 H266 0.929 . S
C270 C272 1.378 . S
C270 C274 1.350 . S
C271 C274 1.463 1_455 S
C271 C276 1.350 . S
C271 N279 1.427 . S
C272 H263 0.930 1_556 S
C272 C270 1.378 . S
C272 C273 1.367 . S
C273 C272 1.367 . S
C273 C275 1.433 . S
C274 C270 1.350 . S
C274 C271 1.463 1_655 S
C274 N278 1.427 . S
C275 H265 0.929 . S
C275 C273 1.433 . S
C275 N278 1.384 . S
C276 H267 0.929 . S
C276 C268 1.378 . S
C276 C271 1.350 . S
C277 H264 0.929 . S
C277 C269 1.433 . S
C277 N279 1.384 . S
N278 C274 1.427 . S
N278 C275 1.384 . S
N279 C271 1.427 . S
N279 C277 1.384 . S
H280 C286 0.930 . S
H281 C290 0.930 . S
H282 C295 0.929 . S
H283 C293 0.929 . S
H284 C288 0.929 . S
H285 C294 0.929 . S
C286 H280 0.930 . S
C286 C287 1.367 . S
C286 C294 1.378 . S
C287 C286 1.367 . S
C287 C295 1.433 1_554 S
C288 H284 0.929 . S
C288 C290 1.378 . S
C288 C292 1.350 1_556 S
C289 C292 1.463 . S
C289 C294 1.350 . S
C289 N297 1.427 1_554 S
C290 H281 0.930 . S
C290 C288 1.378 . S
C290 C291 1.367 . S
C291 C290 1.367 . S
C291 C293 1.433 1_556 S
C292 C288 1.350 1_554 S
C292 C289 1.463 . S
C292 N296 1.427 . S
C293 H283 0.929 . S
C293 C291 1.433 1_554 S
C293 N296 1.384 . S
C294 H285 0.929 . S
C294 C286 1.378 . S
C294 C289 1.350 . S
C295 H282 0.929 . S
C295 C287 1.433 1_556 S
C295 N297 1.384 . S
N296 C292 1.427 . S
N296 C293 1.384 . S
N297 C289 1.427 1_556 S
N297 C295 1.384 . S
H298 C304 0.930 . S
H299 C308 0.930 . S
H300 C313 0.929 . S
H301 C311 0.929 . S
H302 C306 0.929 . S
H303 C312 0.929 . S
C304 H298 0.930 . S
C304 C305 1.367 1_554 S
C304 C312 1.378 . S
C305 C304 1.367 1_556 S
C305 C313 1.433 . S
C306 H302 0.929 . S
C306 C308 1.378 . S
C306 C310 1.350 . S
C307 C310 1.463 . S
C307 C312 1.350 1_556 S
C307 N315 1.427 . S
C308 H299 0.930 . S
C308 C306 1.378 . S
C308 C309 1.367 1_556 S
C309 C308 1.367 1_554 S
C309 C311 1.433 . S
C310 C306 1.350 . S
C310 C307 1.463 . S
C310 N314 1.427 1_556 S
C311 H301 0.929 . S
C311 C309 1.433 . S
C311 N314 1.384 . S
C312 H303 0.929 . S
C312 C304 1.378 . S
C312 C307 1.350 1_554 S
C313 H300 0.929 . S
C313 C305 1.433 . S
C313 N315 1.384 . S
N314 C310 1.427 1_554 S
N314 C311 1.384 . S
N315 C307 1.427 . S
N315 C313 1.384 . S
H316 C322 0.930 . S
H317 C326 0.930 . S
H318 C331 0.929 . S
H319 C329 0.929 . S
H320 C324 0.929 . S
H321 C330 0.929 . S
C322 H316 0.930 . S
C322 C323 1.367 1_554 S
C322 C330 1.378 . S
C323 C322 1.367 1_556 S
C323 C331 1.433 . S
C324 H320 0.929 . S
C324 C326 1.378 . S
C324 C328 1.350 1_556 S
C325 C328 1.463 . S
C325 C330 1.350 . S
C325 N333 1.427 1_554 S
C326 H317 0.930 . S
C326 C324 1.378 . S
C326 C327 1.367 1_556 S
C327 C326 1.367 1_554 S
C327 C329 1.433 . S
C328 C324 1.350 1_554 S
C328 C325 1.463 . S
C328 N332 1.427 . S
C329 H319 0.929 . S
C329 C327 1.433 . S
C329 N332 1.384 . S
C330 H321 0.929 . S
C330 C322 1.378 . S
C330 C325 1.350 . S
C331 H318 0.929 . S
C331 C323 1.433 . S
C331 N333 1.384 . S
N332 C328 1.427 . S
N332 C329 1.384 . S
N333 C325 1.427 1_556 S
N333 C331 1.384 . S
H334 C340 0.930 . S
H335 C344 0.930 . S
H336 C349 0.929 . S
H337 C347 0.929 . S
H338 C342 0.929 . S
H339 C348 0.929 . S
C340 H334 0.930 . S
C340 C341 1.367 1_556 S
C340 C348 1.378 . S
C341 C340 1.367 1_554 S
C341 C349 1.433 . S
C342 H338 0.929 . S
C342 C344 1.378 . S
C342 C346 1.350 1_554 S
C343 C346 1.463 . S
C343 C348 1.350 . S
C343 N351 1.427 1_556 S
C344 H335 0.930 . S
C344 C342 1.378 . S
C344 C345 1.367 1_554 S
C345 C344 1.367 1_556 S
C345 C347 1.433 . S
C346 C342 1.350 1_556 S
C346 C343 1.463 . S
C346 N350 1.427 . S
C347 H337 0.929 . S
C347 C345 1.433 . S
C347 N350 1.384 . S
C348 H339 0.929 . S
C348 C340 1.378 . S
C348 C343 1.350 . S
C349 H336 0.929 . S
C349 C341 1.433 . S
C349 N351 1.384 . S
N350 C346 1.427 . S
N350 C347 1.384 . S
N351 C343 1.427 1_554 S
N351 C349 1.384 . S
H352 C358 0.930 . S
H353 C362 0.930 . S
H354 C367 0.929 . S
H355 C365 0.929 . S
H356 C360 0.929 . S
H357 C366 0.929 . S
C358 H352 0.930 . S
C358 C359 1.367 . S
C358 C366 1.378 . S
C359 C358 1.367 . S
C359 C367 1.433 . S
C360 H356 0.929 . S
C360 C362 1.378 . S
C360 C364 1.350 . S
C361 C364 1.463 . S
C361 C366 1.350 . S
C361 N369 1.427 . S
C362 H353 0.930 . S
C362 C360 1.378 . S
C362 C363 1.367 . S
C363 C362 1.367 . S
C363 C365 1.433 . S
C364 C360 1.350 . S
C364 C361 1.463 . S
C364 N368 1.427 . S
C365 H355 0.929 . S
C365 C363 1.433 . S
C365 N368 1.384 . S
C366 H357 0.929 . S
C366 C358 1.378 . S
C366 C361 1.350 . S
C367 H354 0.929 . S
C367 C359 1.433 . S
C367 N369 1.384 . S
N368 C364 1.427 . S
N368 C365 1.384 . S
N369 C361 1.427 . S
N369 C367 1.384 . S
H370 C376 0.930 . S
H371 C380 0.930 . S
H372 C385 0.929 . S
H373 C383 0.929 . S
H374 C378 0.929 . S
H375 C384 0.929 . S
C376 H370 0.930 . S
C376 C377 1.367 . S
C376 C384 1.378 . S
C377 C376 1.367 . S
C377 C385 1.433 . S
C378 H374 0.929 . S
C378 C380 1.378 . S
C378 C382 1.350 . S
C379 C382 1.463 . S
C379 C384 1.350 . S
C379 N387 1.427 . S
C380 H371 0.930 . S
C380 C378 1.378 . S
C380 C381 1.367 . S
C381 C380 1.367 . S
C381 C383 1.433 . S
C382 C378 1.350 . S
C382 C379 1.463 . S
C382 N386 1.427 . S
C383 H373 0.929 . S
C383 C381 1.433 . S
C383 N386 1.384 . S
C384 H375 0.929 . S
C384 C376 1.378 . S
C384 C379 1.350 . S
C385 H372 0.929 . S
C385 C377 1.433 . S
C385 N387 1.384 . S
N386 C382 1.427 . S
N386 C383 1.384 . S
N387 C379 1.427 . S
N387 C385 1.384 . S
H388 C394 0.930 . S
H389 C398 0.930 . S
H390 C403 0.929 . S
H391 C401 0.929 . S
H392 C396 0.929 . S
H393 C402 0.929 . S
C394 H388 0.930 . S
C394 C395 1.367 . S
C394 C402 1.378 . S
C395 C394 1.367 . S
C395 C403 1.433 . S
C396 H392 0.929 . S
C396 C398 1.378 . S
C396 C400 1.350 . S
C397 C400 1.463 . S
C397 C402 1.350 . S
C397 N405 1.427 . S
C398 H389 0.930 . S
C398 C396 1.378 . S
C398 C399 1.367 . S
C399 C398 1.367 . S
C399 C401 1.433 . S
C400 C396 1.350 . S
C400 C397 1.463 . S
C400 N404 1.427 . S
C401 H391 0.929 . S
C401 C399 1.433 . S
C401 N404 1.384 . S
C402 H393 0.929 . S
C402 C394 1.378 . S
C402 C397 1.350 . S
C403 H390 0.929 . S
C403 C395 1.433 . S
C403 N405 1.384 . S
N404 C400 1.427 . S
N404 C401 1.384 . S
N405 C397 1.427 . S
N405 C403 1.384 . S
H406 C412 0.930 . S
H407 C416 0.930 . S
H408 C421 0.929 . S
H409 C419 0.929 . S
H410 C414 0.929 . S
H411 C420 0.929 . S
C412 H406 0.930 . S
C412 C413 1.367 . S
C412 C420 1.378 . S
C413 C412 1.367 . S
C413 C421 1.433 . S
C414 H410 0.929 . S
C414 C416 1.378 . S
C414 C418 1.350 . S
C415 C418 1.463 . S
C415 C420 1.350 . S
C415 N423 1.427 . S
C416 H407 0.930 . S
C416 C414 1.378 . S
C416 C417 1.367 . S
C417 C416 1.367 . S
C417 C419 1.433 . S
C418 C414 1.350 . S
C418 C415 1.463 . S
C418 N422 1.427 . S
C419 H409 0.929 . S
C419 C417 1.433 . S
C419 N422 1.384 . S
C420 H411 0.929 . S
C420 C412 1.378 . S
C420 C415 1.350 . S
C421 H408 0.929 . S
C421 C413 1.433 . S
C421 N423 1.384 . S
N422 C418 1.427 . S
N422 C419 1.384 . S
N423 C415 1.427 . S
N423 C421 1.384 . S
H424 C430 0.930 . S
H425 C434 0.930 . S
H426 C439 0.929 . S
H427 C437 0.929 . S
H428 C432 0.929 . S
H429 C438 0.929 . S
C430 H424 0.930 . S
C430 C431 1.367 . S
C430 C438 1.378 . S
C431 C430 1.367 . S
C431 C439 1.433 . S
C432 H428 0.929 . S
C432 C434 1.378 . S
C432 C436 1.350 . S
C433 C436 1.463 1_565 S
C433 C438 1.350 . S
C433 N441 1.427 . S
C434 H425 0.930 . S
C434 C432 1.378 . S
C434 C435 1.367 . S
C435 C434 1.367 . S
C435 C437 1.433 . S
C436 C432 1.350 . S
C436 C433 1.463 1_545 S
C436 N440 1.427 . S
C437 H427 0.929 . S
C437 C435 1.433 . S
C437 N440 1.384 . S
C438 H429 0.929 . S
C438 C430 1.378 . S
C438 C433 1.350 . S
C439 H426 0.929 . S
C439 C431 1.433 . S
C439 N441 1.384 . S
N440 C436 1.427 . S
N440 C437 1.384 . S
N441 C433 1.427 . S
N441 C439 1.384 . S
H442 C448 0.930 . S
H443 C452 0.930 . S
H444 C457 0.929 . S
H445 C455 0.929 . S
H446 C450 0.929 . S
H447 C456 0.929 . S
C448 H442 0.930 . S
C448 C449 1.367 . S
C448 C456 1.378 . S
C449 C448 1.367 . S
C449 C457 1.433 . S
C450 H446 0.929 . S
C450 C452 1.378 . S
C450 C454 1.350 . S
C451 C454 1.463 1_655 S
C451 C456 1.350 . S
C451 N459 1.427 . S
C452 H443 0.930 . S
C452 C450 1.378 . S
C452 C453 1.367 . S
C453 C452 1.367 . S
C453 C455 1.433 . S
C454 C450 1.350 . S
C454 C451 1.463 1_455 S
C454 N458 1.427 . S
C455 H445 0.929 . S
C455 C453 1.433 . S
C455 N458 1.384 . S
C456 H447 0.929 . S
C456 C448 1.378 . S
C456 C451 1.350 . S
C457 H444 0.929 . S
C457 C449 1.433 . S
C457 N459 1.384 . S
N458 C454 1.427 . S
N458 C455 1.384 . S
N459 C451 1.427 . S
N459 C457 1.384 . S
H460 C466 0.930 . S
H461 C470 0.930 . S
H462 C475 0.929 . S
H463 C473 0.929 . S
H464 C468 0.929 . S
H465 C474 0.929 . S
C466 H460 0.930 . S
C466 C467 1.367 . S
C466 C474 1.378 . S
C467 C466 1.367 . S
C467 C475 1.433 . S
C468 H464 0.929 . S
C468 C470 1.378 . S
C468 C472 1.350 . S
C469 C472 1.463 1_565 S
C469 C474 1.350 . S
C469 N477 1.427 . S
C470 H461 0.930 . S
C470 C468 1.378 . S
C470 C471 1.367 . S
C471 C470 1.367 . S
C471 C473 1.433 . S
C472 C468 1.350 . S
C472 C469 1.463 1_545 S
C472 N476 1.427 . S
C473 H463 0.929 . S
C473 C471 1.433 . S
C473 N476 1.384 . S
C474 H465 0.929 . S
C474 C466 1.378 . S
C474 C469 1.350 . S
C475 H462 0.929 . S
C475 C467 1.433 . S
C475 N477 1.384 . S
N476 C472 1.427 . S
N476 C473 1.384 . S
N477 C469 1.427 . S
N477 C475 1.384 . S
H478 C484 0.930 . S
H479 C488 0.930 . S
H480 C493 0.929 . S
H481 C491 0.929 . S
H482 C486 0.929 . S
H483 C492 0.929 . S
C484 H478 0.930 . S
C484 C485 1.367 . S
C484 C492 1.378 . S
C485 C484 1.367 . S
C485 C493 1.433 . S
C486 H482 0.929 . S
C486 C488 1.378 . S
C486 C490 1.350 . S
C487 C490 1.463 1_655 S
C487 C492 1.350 . S
C487 N495 1.427 . S
C488 H479 0.930 . S
C488 C486 1.378 . S
C488 C489 1.367 . S
C489 C488 1.367 . S
C489 C491 1.433 . S
C490 C486 1.350 . S
C490 C487 1.463 1_455 S
C490 N494 1.427 . S
C491 H481 0.929 . S
C491 C489 1.433 . S
C491 N494 1.384 . S
C492 H483 0.929 . S
C492 C484 1.378 . S
C492 C487 1.350 . S
C493 H480 0.929 . S
C493 C485 1.433 . S
C493 N495 1.384 . S
N494 C490 1.427 . S
N494 C491 1.384 . S
N495 C487 1.427 . S
N495 C493 1.384 . S
H496 C502 0.930 . S
H497 C506 0.930 1_556 S
H498 C511 0.929 1_556 S
H499 C509 0.929 . S
H500 C504 0.929 1_556 S
H501 C510 0.929 . S
C502 H496 0.930 . S
C502 C503 1.367 . S
C502 C510 1.378 . S
C503 C502 1.367 . S
C503 C511 1.433 . S
C504 H500 0.929 1_554 S
C504 C506 1.378 . S
C504 C508 1.350 . S
C505 C508 1.463 . S
C505 C510 1.350 . S
C505 N513 1.427 . S
C506 H497 0.930 1_554 S
C506 C504 1.378 . S
C506 C507 1.367 . S
C507 C506 1.367 . S
C507 C509 1.433 . S
C508 C504 1.350 . S
C508 C505 1.463 . S
C508 N512 1.427 . S
C509 H499 0.929 . S
C509 C507 1.433 . S
C509 N512 1.384 . S
C510 H501 0.929 . S
C510 C502 1.378 . S
C510 C505 1.350 . S
C511 H498 0.929 1_554 S
C511 C503 1.433 . S
C511 N513 1.384 . S
N512 C508 1.427 . S
N512 C509 1.384 . S
N513 C505 1.427 . S
N513 C511 1.384 . S
H514 C520 0.930 . S
H515 C524 0.930 . S
H516 C529 0.929 . S
H517 C527 0.929 . S
H518 C522 0.929 . S
H519 C528 0.929 . S
C520 H514 0.930 . S
C520 C521 1.367 . S
C520 C528 1.378 . S
C521 C520 1.367 . S
C521 C529 1.433 . S
C522 H518 0.929 . S
C522 C524 1.378 . S
C522 C526 1.350 . S
C523 C526 1.463 . S
C523 C528 1.350 . S
C523 N531 1.427 . S
C524 H515 0.930 . S
C524 C522 1.378 . S
C524 C525 1.367 . S
C525 C524 1.367 . S
C525 C527 1.433 . S
C526 C522 1.350 . S
C526 C523 1.463 . S
C526 N530 1.427 . S
C527 H517 0.929 . S
C527 C525 1.433 . S
C527 N530 1.384 . S
C528 H519 0.929 . S
C528 C520 1.378 . S
C528 C523 1.350 . S
C529 H516 0.929 . S
C529 C521 1.433 . S
C529 N531 1.384 . S
N530 C526 1.427 . S
N530 C527 1.384 . S
N531 C523 1.427 . S
N531 C529 1.384 . S
H532 C538 0.930 1_556 S
H533 C542 0.930 . S
H534 C547 0.929 . S
H535 C545 0.929 1_556 S
H536 C540 0.929 . S
H537 C546 0.929 1_556 S
C538 H532 0.930 1_554 S
C538 C539 1.367 . S
C538 C546 1.378 . S
C539 C538 1.367 . S
C539 C547 1.433 . S
C540 H536 0.929 . S
C540 C542 1.378 . S
C540 C544 1.350 . S
C541 C544 1.463 . S
C541 C546 1.350 . S
C541 N549 1.427 . S
C542 H533 0.930 . S
C542 C540 1.378 . S
C542 C543 1.367 . S
C543 C542 1.367 . S
C543 C545 1.433 . S
C544 C540 1.350 . S
C544 C541 1.463 . S
C544 N548 1.427 . S
C545 H535 0.929 1_554 S
C545 C543 1.433 . S
C545 N548 1.384 . S
C546 H537 0.929 1_554 S
C546 C538 1.378 . S
C546 C541 1.350 . S
C547 H534 0.929 . S
C547 C539 1.433 . S
C547 N549 1.384 . S
N548 C544 1.427 . S
N548 C545 1.384 . S
N549 C541 1.427 . S
N549 C547 1.384 . S
H550 C556 0.930 . S
H551 C560 0.930 . S
H552 C565 0.929 . S
H553 C563 0.929 . S
H554 C558 0.929 . S
H555 C564 0.929 . S
C556 H550 0.930 . S
C556 C557 1.367 . S
C556 C564 1.378 . S
C557 C556 1.367 . S
C557 C565 1.433 . S
C558 H554 0.929 . S
C558 C560 1.378 . S
C558 C562 1.350 . S
C559 C562 1.463 . S
C559 C564 1.350 . S
C559 N567 1.427 . S
C560 H551 0.930 . S
C560 C558 1.378 . S
C560 C561 1.367 . S
C561 C560 1.367 . S
C561 C563 1.433 . S
C562 C558 1.350 . S
C562 C559 1.463 . S
C562 N566 1.427 . S
C563 H553 0.929 . S
C563 C561 1.433 . S
C563 N566 1.384 . S
C564 H555 0.929 . S
C564 C556 1.378 . S
C564 C559 1.350 . S
C565 H552 0.929 . S
C565 C557 1.433 . S
C565 N567 1.384 . S
N566 C562 1.427 . S
N566 C563 1.384 . S
N567 C559 1.427 . S
N567 C565 1.384 . S
H568 C574 0.930 . S
H569 C578 0.930 . S
H570 C583 0.929 . S
H571 C581 0.929 . S
H572 C576 0.929 . S
H573 C582 0.929 . S
C574 H568 0.930 . S
C574 C575 1.367 . S
C574 C582 1.378 . S
C575 C574 1.367 . S
C575 C583 1.433 . S
C576 H572 0.929 . S
C576 C578 1.378 . S
C576 C580 1.350 . S
C577 C580 1.463 . S
C577 C582 1.350 . S
C577 N585 1.427 . S
C578 H569 0.930 . S
C578 C576 1.378 . S
C578 C579 1.367 . S
C579 C578 1.367 . S
C579 C581 1.433 . S
C580 C576 1.350 . S
C580 C577 1.463 . S
C580 N584 1.427 . S
C581 H571 0.929 . S
C581 C579 1.433 . S
C581 N584 1.384 . S
C582 H573 0.929 . S
C582 C574 1.378 . S
C582 C577 1.350 . S
C583 H570 0.929 . S
C583 C575 1.433 . S
C583 N585 1.384 . S
N584 C580 1.427 . S
N584 C581 1.384 . S
N585 C577 1.427 . S
N585 C583 1.384 . S
H586 C592 0.930 . S
H587 C596 0.930 . S
H588 C601 0.929 . S
H589 C599 0.929 . S
H590 C594 0.929 . S
H591 C600 0.929 . S
C592 H586 0.930 . S
C592 C593 1.367 . S
C592 C600 1.378 . S
C593 C592 1.367 . S
C593 C601 1.433 . S
C594 H590 0.929 . S
C594 C596 1.378 . S
C594 C598 1.350 . S
C595 C598 1.463 . S
C595 C600 1.350 . S
C595 N603 1.427 . S
C596 H587 0.930 . S
C596 C594 1.378 . S
C596 C597 1.367 . S
C597 C596 1.367 . S
C597 C599 1.433 . S
C598 C594 1.350 . S
C598 C595 1.463 . S
C598 N602 1.427 . S
C599 H589 0.929 . S
C599 C597 1.433 . S
C599 N602 1.384 . S
C600 H591 0.929 . S
C600 C592 1.378 . S
C600 C595 1.350 . S
C601 H588 0.929 . S
C601 C593 1.433 . S
C601 N603 1.384 . S
N602 C598 1.427 . S
N602 C599 1.384 . S
N603 C595 1.427 . S
N603 C601 1.384 . S
H604 C610 0.930 . S
H605 C614 0.930 . S
H606 C619 0.929 . S
H607 C617 0.929 . S
H608 C612 0.929 . S
H609 C618 0.929 . S
C610 H604 0.930 . S
C610 C611 1.367 . S
C610 C618 1.378 . S
C611 C610 1.367 . S
C611 C619 1.433 . S
C612 H608 0.929 . S
C612 C614 1.378 . S
C612 C616 1.350 . S
C613 C616 1.463 . S
C613 C618 1.350 . S
C613 N621 1.427 . S
C614 H605 0.930 . S
C614 C612 1.378 . S
C614 C615 1.367 . S
C615 C614 1.367 . S
C615 C617 1.433 . S
C616 C612 1.350 . S
C616 C613 1.463 . S
C616 N620 1.427 . S
C617 H607 0.929 . S
C617 C615 1.433 . S
C617 N620 1.384 . S
C618 H609 0.929 . S
C618 C610 1.378 . S
C618 C613 1.350 . S
C619 H606 0.929 . S
C619 C611 1.433 . S
C619 N621 1.384 . S
N620 C616 1.427 . S
N620 C617 1.384 . S
N621 C613 1.427 . S
N621 C619 1.384 . S
H622 C628 0.930 . S
H623 C632 0.930 . S
H624 C637 0.929 . S
H625 C635 0.929 . S
H626 C630 0.929 . S
H627 C636 0.929 . S
C628 H622 0.930 . S
C628 C629 1.367 . S
C628 C636 1.378 . S
C629 C628 1.367 . S
C629 C637 1.433 . S
C630 H626 0.929 . S
C630 C632 1.378 . S
C630 C634 1.350 . S
C631 C634 1.463 . S
C631 C636 1.350 . S
C631 N639 1.427 . S
C632 H623 0.930 . S
C632 C630 1.378 . S
C632 C633 1.367 . S
C633 C632 1.367 . S
C633 C635 1.433 . S
C634 C630 1.350 . S
C634 C631 1.463 . S
C634 N638 1.427 . S
C635 H625 0.929 . S
C635 C633 1.433 . S
C635 N638 1.384 . S
C636 H627 0.929 . S
C636 C628 1.378 . S
C636 C631 1.350 . S
C637 H624 0.929 . S
C637 C629 1.433 . S
C637 N639 1.384 . S
N638 C634 1.427 . S
N638 C635 1.384 . S
N639 C631 1.427 . S
N639 C637 1.384 . S
H640 C646 0.930 . S
H641 C650 0.930 . S
H642 C655 0.929 . S
H643 C653 0.929 . S
H644 C648 0.929 . S
H645 C654 0.929 . S
C646 H640 0.930 . S
C646 C647 1.367 . S
C646 C654 1.378 . S
C647 C646 1.367 . S
C647 C655 1.433 . S
C648 H644 0.929 . S
C648 C650 1.378 . S
C648 C652 1.350 1_554 S
C649 C652 1.463 . S
C649 C654 1.350 . S
C649 N657 1.427 . S
C650 H641 0.930 . S
C650 C648 1.378 . S
C650 C651 1.367 . S
C651 C650 1.367 . S
C651 C653 1.433 1_554 S
C652 C648 1.350 1_556 S
C652 C649 1.463 . S
C652 N656 1.427 . S
C653 H643 0.929 . S
C653 C651 1.433 1_556 S
C653 N656 1.384 . S
C654 H645 0.929 . S
C654 C646 1.378 . S
C654 C649 1.350 . S
C655 H642 0.929 . S
C655 C647 1.433 . S
C655 N657 1.384 . S
N656 C652 1.427 . S
N656 C653 1.384 . S
N657 C649 1.427 . S
N657 C655 1.384 . S
H658 C664 0.930 . S
H659 C668 0.930 . S
H660 C673 0.929 . S
H661 C671 0.929 . S
H662 C666 0.929 . S
H663 C672 0.929 . S
C664 H658 0.930 . S
C664 C665 1.367 . S
C664 C672 1.378 . S
C665 C664 1.367 . S
C665 C673 1.433 . S
C666 H662 0.929 . S
C666 C668 1.378 . S
C666 C670 1.350 1_556 S
C667 C670 1.463 . S
C667 C672 1.350 . S
C667 N675 1.427 . S
C668 H659 0.930 . S
C668 C666 1.378 . S
C668 C669 1.367 . S
C669 C668 1.367 . S
C669 C671 1.433 1_556 S
C670 C666 1.350 1_554 S
C670 C667 1.463 . S
C670 N674 1.427 . S
C671 H661 0.929 . S
C671 C669 1.433 1_554 S
C671 N674 1.384 . S
C672 H663 0.929 . S
C672 C664 1.378 . S
C672 C667 1.350 . S
C673 H660 0.929 . S
C673 C665 1.433 . S
C673 N675 1.384 . S
N674 C670 1.427 . S
N674 C671 1.384 . S
N675 C667 1.427 . S
N675 C673 1.384 . S
H676 C682 0.930 . S
H677 C686 0.930 . S
H678 C691 0.929 . S
H679 C689 0.929 . S
H680 C684 0.929 . S
H681 C690 0.929 . S
C682 H676 0.930 . S
C682 C683 1.367 . S
C682 C690 1.378 1_554 S
C683 C682 1.367 . S
C683 C691 1.433 1_554 S
C684 H680 0.929 . S
C684 C686 1.378 . S
C684 C688 1.350 . S
C685 C688 1.463 . S
C685 C690 1.350 . S
C685 N693 1.427 . S
C686 H677 0.930 . S
C686 C684 1.378 . S
C686 C687 1.367 . S
C687 C686 1.367 . S
C687 C689 1.433 . S
C688 C684 1.350 . S
C688 C685 1.463 . S
C688 N692 1.427 . S
C689 H679 0.929 . S
C689 C687 1.433 . S
C689 N692 1.384 . S
C690 H681 0.929 . S
C690 C682 1.378 1_556 S
C690 C685 1.350 . S
C691 H678 0.929 . S
C691 C683 1.433 1_556 S
C691 N693 1.384 . S
N692 C688 1.427 . S
N692 C689 1.384 . S
N693 C685 1.427 . S
N693 C691 1.384 . S
H694 C700 0.930 . S
H695 C704 0.930 . S
H696 C709 0.929 . S
H697 C707 0.929 . S
H698 C702 0.929 . S
H699 C708 0.929 1_556 S
C700 H694 0.930 . S
C700 C701 1.367 . S
C700 C708 1.378 . S
C701 C700 1.367 . S
C701 C709 1.433 . S
C702 H698 0.929 . S
C702 C704 1.378 . S
C702 C706 1.350 . S
C703 C706 1.463 . S
C703 C708 1.350 . S
C703 N711 1.427 . S
C704 H695 0.930 . S
C704 C702 1.378 . S
C704 C705 1.367 1_554 S
C705 C704 1.367 1_556 S
C705 C707 1.433 . S
C706 C702 1.350 . S
C706 C703 1.463 . S
C706 N710 1.427 1_554 S
C707 H697 0.929 . S
C707 C705 1.433 . S
C707 N710 1.384 . S
C708 H699 0.929 1_554 S
C708 C700 1.378 . S
C708 C703 1.350 . S
C709 H696 0.929 . S
C709 C701 1.433 . S
C709 N711 1.384 . S
N710 C706 1.427 1_556 S
N710 C707 1.384 . S
N711 C703 1.427 . S
N711 C709 1.384 . S
H712 C718 0.930 . S
H713 C722 0.930 . S
H714 C727 0.929 . S
H715 C725 0.929 . S
H716 C720 0.929 . S
H717 C726 0.929 . S
C718 H712 0.930 . S
C718 C719 1.367 . S
C718 C726 1.378 . S
C719 C718 1.367 . S
C719 C727 1.433 . S
C720 H716 0.929 . S
C720 C722 1.378 . S
C720 C724 1.350 . S
C721 C724 1.463 . S
C721 C726 1.350 . S
C721 N729 1.427 . S
C722 H713 0.930 . S
C722 C720 1.378 . S
C722 C723 1.367 . S
C723 C722 1.367 . S
C723 C725 1.433 . S
C724 C720 1.350 . S
C724 C721 1.463 . S
C724 N728 1.427 . S
C725 H715 0.929 . S
C725 C723 1.433 . S
C725 N728 1.384 . S
C726 H717 0.929 . S
C726 C718 1.378 . S
C726 C721 1.350 . S
C727 H714 0.929 . S
C727 C719 1.433 . S
C727 N729 1.384 . S
N728 C724 1.427 . S
N728 C725 1.384 . S
N729 C721 1.427 . S
N729 C727 1.384 . S
H730 C736 0.930 . S
H731 C740 0.930 . S
H732 C745 0.929 . S
H733 C743 0.929 . S
H734 C738 0.929 . S
H735 C744 0.929 . S
C736 H730 0.930 . S
C736 C737 1.367 . S
C736 C744 1.378 . S
C737 C736 1.367 . S
C737 C745 1.433 . S
C738 H734 0.929 . S
C738 C740 1.378 . S
C738 C742 1.350 . S
C739 C742 1.463 . S
C739 C744 1.350 . S
C739 N747 1.427 . S
C740 H731 0.930 . S
C740 C738 1.378 . S
C740 C741 1.367 . S
C741 C740 1.367 . S
C741 C743 1.433 . S
C742 C738 1.350 . S
C742 C739 1.463 . S
C742 N746 1.427 . S
C743 H733 0.929 . S
C743 C741 1.433 . S
C743 N746 1.384 . S
C744 H735 0.929 . S
C744 C736 1.378 . S
C744 C739 1.350 . S
C745 H732 0.929 . S
C745 C737 1.433 . S
C745 N747 1.384 . S
N746 C742 1.427 . S
N746 C743 1.384 . S
N747 C739 1.427 . S
N747 C745 1.384 . S
H748 C754 0.930 . S
H749 C758 0.930 . S
H750 C763 0.929 . S
H751 C761 0.929 . S
H752 C756 0.929 . S
H753 C762 0.929 . S
C754 H748 0.930 . S
C754 C755 1.367 . S
C754 C762 1.378 . S
C755 C754 1.367 . S
C755 C763 1.433 . S
C756 H752 0.929 . S
C756 C758 1.378 . S
C756 C760 1.350 . S
C757 C760 1.463 . S
C757 C762 1.350 . S
C757 N765 1.427 . S
C758 H749 0.930 . S
C758 C756 1.378 . S
C758 C759 1.367 . S
C759 C758 1.367 . S
C759 C761 1.433 . S
C760 C756 1.350 . S
C760 C757 1.463 . S
C760 N764 1.427 . S
C761 H751 0.929 . S
C761 C759 1.433 . S
C761 N764 1.384 . S
C762 H753 0.929 . S
C762 C754 1.378 . S
C762 C757 1.350 . S
C763 H750 0.929 . S
C763 C755 1.433 . S
C763 N765 1.384 . S
N764 C760 1.427 . S
N764 C761 1.384 . S
N765 C757 1.427 . S
N765 C763 1.384 . S
H766 C772 0.930 . S
H767 C776 0.930 . S
H768 C781 0.929 . S
H769 C779 0.929 . S
H770 C774 0.929 . S
H771 C780 0.929 . S
C772 H766 0.930 . S
C772 C773 1.367 . S
C772 C780 1.378 . S
C773 C772 1.367 . S
C773 C781 1.433 . S
C774 H770 0.929 . S
C774 C776 1.378 . S
C774 C778 1.350 . S
C775 C778 1.463 . S
C775 C780 1.350 . S
C775 N783 1.427 . S
C776 H767 0.930 . S
C776 C774 1.378 . S
C776 C777 1.367 . S
C777 C776 1.367 . S
C777 C779 1.433 . S
C778 C774 1.350 . S
C778 C775 1.463 . S
C778 N782 1.427 . S
C779 H769 0.929 . S
C779 C777 1.433 . S
C779 N782 1.384 . S
C780 H771 0.929 . S
C780 C772 1.378 . S
C780 C775 1.350 . S
C781 H768 0.929 . S
C781 C773 1.433 . S
C781 N783 1.384 . S
N782 C778 1.427 . S
N782 C779 1.384 . S
N783 C775 1.427 . S
N783 C781 1.384 . S
C215 C153 1.524 . S
C219 C3 1.514 . S
C233 C16 1.511 . S
C237 C114 1.509 . S
C251 C29 1.515 . S
C255 C127 1.523 . S
C269 C140 1.505 . S
C273 C42 1.513 . S
C287 C55 1.515 . S
C291 C75 1.523 . S
C305 C68 1.508 . S
C309 C88 1.512 . S
C323 C101 1.522 . S
C327 C81 1.518 . S
C341 C62 1.511 . S
C345 C94 1.508 . S
C359 C49 1.524 . S
C363 C107 1.515 . S
C377 C120 1.510 . S
C381 C10 1.508 . S
C395 C23 1.524 . S
C399 C133 1.515 . S
C413 C146 1.506 . S
C417 C36 1.512 . S
C431 C159 1.515 . S
C435 C179 1.523 . S
C449 C172 1.508 . S
C453 C192 1.511 . S
C467 C205 1.522 . S
C471 C185 1.520 . S
C485 C166 1.506 . S
C489 C198 1.513 . S
C503 C53 1.514 . S
C507 C1 1.512 . S
C521 C14 1.500 . S
C525 C66 1.500 . S
C539 C27 1.515 . S
C543 C79 1.512 . S
C557 C92 1.500 . S
C561 C40 1.501 . S
C575 C105 1.512 . S
C579 C157 1.515 . S
C593 C170 1.498 . S
C597 C118 1.498 . S
C611 C131 1.515 . S
C615 C183 1.512 . S
C629 C196 1.497 . S
C633 C144 1.497 . S
C647 C187 1.522 . S
C651 C5 1.523 . S
C665 C200 1.549 . S
C669 C18 1.549 . S
C683 C31 1.521 . S
C687 C161 1.519 . S
C701 C174 1.551 . S
C705 C44 1.551 . S
C719 C135 1.521 . S
C723 C57 1.519 . S
C737 C148 1.550 . S
C741 C70 1.550 . S
C755 C83 1.516 . S
C759 C109 1.514 . S
C773 C122 1.549 . S
C777 C96 1.550 . S
