# Generated by pormake.
# Topology cbo, (4)-cn, num edge types: 1
# Building blocks:
#     Node 0, Type 0, BuildingBlock: NAHDIM_clean_sbu_0, # of connection points: 4
#     Node 1, Type 0, BuildingBlock: NAHDIM_clean_sbu_0, # of connection points: 4
#     Node 2, Type 0, BuildingBlock: NAHDIM_clean_sbu_0, # of connection points: 4
#     Node 3, Type 0, BuildingBlock: NAHDIM_clean_sbu_0, # of connection points: 4
#     Node 4, Type 0, BuildingBlock: NAHDIM_clean_sbu_0, # of connection points: 4
#     Node 5, Type 0, BuildingBlock: NAHDIM_clean_sbu_0, # of connection points: 4
#     Node 6, Type 0, BuildingBlock: NAHDIM_clean_sbu_0, # of connection points: 4
#     Node 7, Type 0, BuildingBlock: NAHDIM_clean_sbu_0, # of connection points: 4
#     Node 8, Type 0, BuildingBlock: NAHDIM_clean_sbu_0, # of connection points: 4
#     Node 9, Type 0, BuildingBlock: NAHDIM_clean_sbu_0, # of connection points: 4
#     Node 10, Type 0, BuildingBlock: NAHDIM_clean_sbu_0, # of connection points: 4
#     Node 11, Type 0, BuildingBlock: NAHDIM_clean_sbu_0, # of connection points: 4
#     Node 12, Type 0, BuildingBlock: NAHDIM_clean_sbu_0, # of connection points: 4
#     Node 13, Type 0, BuildingBlock: NAHDIM_clean_sbu_0, # of connection points: 4
#     Node 14, Type 0, BuildingBlock: NAHDIM_clean_sbu_0, # of connection points: 4
#     Node 15, Type 0, BuildingBlock: NAHDIM_clean_sbu_0, # of connection points: 4
#     Node 16, Type 0, BuildingBlock: NAHDIM_clean_sbu_0, # of connection points: 4
#     Node 17, Type 0, BuildingBlock: NAHDIM_clean_sbu_0, # of connection points: 4
#     Node 18, Type 0, BuildingBlock: NAHDIM_clean_sbu_0, # of connection points: 4
#     Node 19, Type 0, BuildingBlock: NAHDIM_clean_sbu_0, # of connection points: 4
#     Node 20, Type 0, BuildingBlock: NAHDIM_clean_sbu_0, # of connection points: 4
#     Node 21, Type 0, BuildingBlock: NAHDIM_clean_sbu_0, # of connection points: 4
#     Node 22, Type 0, BuildingBlock: NAHDIM_clean_sbu_0, # of connection points: 4
#     Node 23, Type 0, BuildingBlock: NAHDIM_clean_sbu_0, # of connection points: 4
#     Edge 24, Type (0, 0), BuildingBlock: XIVTED_clean_linker_0, # of connection points: 2
#     Edge 25, Type (0, 0), BuildingBlock: XIVTED_clean_linker_0, # of connection points: 2
#     Edge 26, Type (0, 0), BuildingBlock: XIVTED_clean_linker_0, # of connection points: 2
#     Edge 27, Type (0, 0), BuildingBlock: XIVTED_clean_linker_0, # of connection points: 2
#     Edge 28, Type (0, 0), BuildingBlock: XIVTED_clean_linker_0, # of connection points: 2
#     Edge 29, Type (0, 0), BuildingBlock: XIVTED_clean_linker_0, # of connection points: 2
#     Edge 30, Type (0, 0), BuildingBlock: XIVTED_clean_linker_0, # of connection points: 2
#     Edge 31, Type (0, 0), BuildingBlock: XIVTED_clean_linker_0, # of connection points: 2
#     Edge 32, Type (0, 0), BuildingBlock: XIVTED_clean_linker_0, # of connection points: 2
#     Edge 33, Type (0, 0), BuildingBlock: XIVTED_clean_linker_0, # of connection points: 2
#     Edge 34, Type (0, 0), BuildingBlock: XIVTED_clean_linker_0, # of connection points: 2
#     Edge 35, Type (0, 0), BuildingBlock: XIVTED_clean_linker_0, # of connection points: 2
#     Edge 36, Type (0, 0), BuildingBlock: XIVTED_clean_linker_0, # of connection points: 2
#     Edge 37, Type (0, 0), BuildingBlock: XIVTED_clean_linker_0, # of connection points: 2
#     Edge 38, Type (0, 0), BuildingBlock: XIVTED_clean_linker_0, # of connection points: 2
#     Edge 39, Type (0, 0), BuildingBlock: XIVTED_clean_linker_0, # of connection points: 2
#     Edge 40, Type (0, 0), BuildingBlock: XIVTED_clean_linker_0, # of connection points: 2
#     Edge 41, Type (0, 0), BuildingBlock: XIVTED_clean_linker_0, # of connection points: 2
#     Edge 42, Type (0, 0), BuildingBlock: XIVTED_clean_linker_0, # of connection points: 2
#     Edge 43, Type (0, 0), BuildingBlock: XIVTED_clean_linker_0, # of connection points: 2
#     Edge 44, Type (0, 0), BuildingBlock: XIVTED_clean_linker_0, # of connection points: 2
#     Edge 45, Type (0, 0), BuildingBlock: XIVTED_clean_linker_0, # of connection points: 2
#     Edge 46, Type (0, 0), BuildingBlock: XIVTED_clean_linker_0, # of connection points: 2
#     Edge 47, Type (0, 0), BuildingBlock: XIVTED_clean_linker_0, # of connection points: 2
#     Edge 48, Type (0, 0), BuildingBlock: XIVTED_clean_linker_0, # of connection points: 2
#     Edge 49, Type (0, 0), BuildingBlock: XIVTED_clean_linker_0, # of connection points: 2
#     Edge 50, Type (0, 0), BuildingBlock: XIVTED_clean_linker_0, # of connection points: 2
#     Edge 51, Type (0, 0), BuildingBlock: XIVTED_clean_linker_0, # of connection points: 2
#     Edge 52, Type (0, 0), BuildingBlock: XIVTED_clean_linker_0, # of connection points: 2
#     Edge 53, Type (0, 0), BuildingBlock: XIVTED_clean_linker_0, # of connection points: 2
#     Edge 54, Type (0, 0), BuildingBlock: XIVTED_clean_linker_0, # of connection points: 2
#     Edge 55, Type (0, 0), BuildingBlock: XIVTED_clean_linker_0, # of connection points: 2
#     Edge 56, Type (0, 0), BuildingBlock: XIVTED_clean_linker_0, # of connection points: 2
#     Edge 57, Type (0, 0), BuildingBlock: XIVTED_clean_linker_0, # of connection points: 2
#     Edge 58, Type (0, 0), BuildingBlock: XIVTED_clean_linker_0, # of connection points: 2
#     Edge 59, Type (0, 0), BuildingBlock: XIVTED_clean_linker_0, # of connection points: 2
#     Edge 60, Type (0, 0), BuildingBlock: XIVTED_clean_linker_0, # of connection points: 2
#     Edge 61, Type (0, 0), BuildingBlock: XIVTED_clean_linker_0, # of connection points: 2
#     Edge 62, Type (0, 0), BuildingBlock: XIVTED_clean_linker_0, # of connection points: 2
#     Edge 63, Type (0, 0), BuildingBlock: XIVTED_clean_linker_0, # of connection points: 2
#     Edge 64, Type (0, 0), BuildingBlock: XIVTED_clean_linker_0, # of connection points: 2
#     Edge 65, Type (0, 0), BuildingBlock: XIVTED_clean_linker_0, # of connection points: 2
#     Edge 66, Type (0, 0), BuildingBlock: XIVTED_clean_linker_0, # of connection points: 2
#     Edge 67, Type (0, 0), BuildingBlock: XIVTED_clean_linker_0, # of connection points: 2
#     Edge 68, Type (0, 0), BuildingBlock: XIVTED_clean_linker_0, # of connection points: 2
#     Edge 69, Type (0, 0), BuildingBlock: XIVTED_clean_linker_0, # of connection points: 2
#     Edge 70, Type (0, 0), BuildingBlock: XIVTED_clean_linker_0, # of connection points: 2
#     Edge 71, Type (0, 0), BuildingBlock: XIVTED_clean_linker_0, # of connection points: 2
# Relax obj value: 0.274
# Max RMSD: 0.281
# Mean RMSD: 0.265
data_MOF--net-cbo--node1-NAHDIM_clean_sbu_0--edge1-XIVTED_clean_linker_0
_symmetry_space_group_name_H-M    P1
_symmetry_Int_Tables_number       1
_symmetry_cell_setting            triclinic
loop_
_symmetry_equiv_pos_as_xyz
'x, y, z'
_cell_length_a     51.721915
_cell_length_b     49.551563
_cell_length_c     50.632698
_cell_angle_alpha  90.020507
_cell_angle_beta   90.061158
_cell_angle_gamma 90.003819
loop_
_atom_site_label
_atom_site_type_symbol
_atom_site_fract_x
_atom_site_fract_y
_atom_site_fract_z
_atom_type_partial_charge
C0 C 0.99071 0.0946 0.26068 0.0
O1 O 0.99699 0.09595 0.23559 0.0
O2 O 0.03734 0.13848 0.23169 0.0
Zn3 Zn 0.03976 0.12173 0.26786 0.0
O4 O 0.04991 0.14899 0.29545 0.0
C5 C 0.0709 0.07828 0.2472 0.0
O6 O 0.05258 0.07728 0.22923 0.0
O7 O 0.00613 0.1041 0.2779 0.0
C8 C 0.07268 0.15862 0.29476 0.0
O9 O 0.08802 0.1518 0.27519 0.0
C10 C 0.0367 0.16359 0.22669 0.0
O11 O 0.03651 0.18098 0.24627 0.0
O12 O 0.06869 0.09472 0.26631 0.0
C13 C 0.51017 0.88043 0.77332 0.0
O14 O 0.50758 0.85527 0.76556 0.0
O15 O 0.45597 0.86266 0.72994 0.0
Zn16 Zn 0.45594 0.87745 0.767 0.0
O17 O 0.4488 0.84829 0.79365 0.0
C18 C 0.42227 0.92053 0.75053 0.0
O19 O 0.43978 0.92327 0.73194 0.0
O20 O 0.49008 0.89507 0.77535 0.0
C21 C 0.42688 0.8367 0.79341 0.0
O22 O 0.41016 0.84307 0.77487 0.0
C23 C 0.45797 0.83791 0.7237 0.0
O24 O 0.4616 0.81984 0.74232 0.0
O25 O 0.42605 0.90338 0.76878 0.0
C26 C 0.4922 0.36879 0.72408 0.0
O27 O 0.49451 0.34323 0.73057 0.0
O28 O 0.54655 0.34568 0.76399 0.0
Zn29 Zn 0.54671 0.36491 0.72894 0.0
O30 O 0.55422 0.33946 0.69897 0.0
C31 C 0.57872 0.40752 0.74984 0.0
O32 O 0.56031 0.4088 0.76766 0.0
O33 O 0.51248 0.38318 0.72239 0.0
C34 C 0.57658 0.32899 0.6971 0.0
O35 O 0.5937 0.33384 0.71569 0.0
C36 C 0.54502 0.32032 0.76742 0.0
O37 O 0.5421 0.30441 0.74687 0.0
O38 O 0.57623 0.39134 0.73055 0.0
C39 C 0.01706 0.63151 0.22888 0.0
O40 O 0.01469 0.65735 0.2342 0.0
O41 O 0.96403 0.65341 0.27315 0.0
Zn42 Zn 0.96243 0.63202 0.23932 0.0
O43 O 0.9495 0.65474 0.20904 0.0
C44 C 0.9194 0.59387 0.23111 0.0
O45 O 0.91791 0.60387 0.20714 0.0
O46 O 0.99721 0.61645 0.23013 0.0
C47 C 0.92745 0.66607 0.20967 0.0
O48 O 0.91312 0.66365 0.23096 0.0
C49 C 0.96409 0.67896 0.27547 0.0
O50 O 0.96481 0.69406 0.25416 0.0
O51 O 0.93702 0.60212 0.24667 0.0
C52 C 0.32996 0.02937 0.14715 0.0
O53 O 0.32919 0.02572 0.12145 0.0
O54 O 0.27094 0.04033 0.1123 0.0
Zn55 Zn 0.27818 0.01263 0.1405 0.0
O56 O 0.28409 0.97552 0.12551 0.0
C57 C 0.24457 0.02449 0.18521 0.0
O58 O 0.26426 0.03877 0.19381 0.0
O59 O 0.30978 0.02457 0.16064 0.0
C60 C 0.29001 0.97067 0.10163 0.0
O61 O 0.29252 0.99083 0.08498 0.0
C62 C 0.24974 0.03993 0.09961 0.0
O63 O 0.23341 0.02007 0.10378 0.0
O64 O 0.24673 0.01139 0.16376 0.0
C65 C 0.15638 0.97258 0.65696 0.0
O66 O 0.15788 0.98235 0.63288 0.0
O67 O 0.21582 0.95024 0.62397 0.0
Zn68 Zn 0.20958 0.9799 0.65059 0.0
O69 O 0.20424 0.01638 0.63385 0.0
C70 C 0.24449 0.96634 0.6939 0.0
O71 O 0.22615 0.94939 0.70077 0.0
O72 O 0.17709 0.96982 0.67025 0.0
C73 C 0.22215 0.0303 0.62342 0.0
O74 O 0.24578 0.02062 0.62248 0.0
C75 C 0.22387 0.95245 0.60036 0.0
O76 O 0.2284 0.97647 0.59048 0.0
O77 O 0.241 0.9816 0.67406 0.0
C78 C 0.84207 0.47222 0.8451 0.0
O79 O 0.84031 0.48227 0.86905 0.0
O80 O 0.78396 0.44784 0.87926 0.0
Zn81 Zn 0.78864 0.47699 0.85179 0.0
O82 O 0.79252 0.51414 0.86751 0.0
C83 C 0.75471 0.4616 0.80816 0.0
O84 O 0.77451 0.44703 0.80038 0.0
O85 O 0.82141 0.46812 0.83206 0.0
C86 C 0.77449 0.52741 0.87852 0.0
O87 O 0.75141 0.51661 0.88083 0.0
C88 C 0.77732 0.45046 0.90328 0.0
O89 O 0.77341 0.47466 0.91305 0.0
O90 O 0.75695 0.47627 0.82862 0.0
C91 C 0.66318 0.5375 0.34015 0.0
O92 O 0.66405 0.53111 0.36532 0.0
O93 O 0.72445 0.55428 0.37229 0.0
Zn94 Zn 0.71654 0.52534 0.34525 0.0
O95 O 0.71124 0.48786 0.36027 0.0
C96 C 0.76872 0.52091 0.32782 0.0
O97 O 0.77188 0.51536 0.35297 0.0
O98 O 0.68384 0.53634 0.32663 0.0
C99 C 0.72301 0.47673 0.37946 0.0
O100 O 0.74101 0.49011 0.39226 0.0
C101 C 0.72117 0.55488 0.39717 0.0
O102 O 0.71118 0.53399 0.4094 0.0
O103 O 0.74603 0.52534 0.3192 0.0
C104 C 0.13787 0.25478 0.9645 0.0
O105 O 0.16246 0.24913 0.96799 0.0
O106 O 0.15881 0.21331 0.02111 0.0
Zn107 Zn 0.13722 0.24727 0.0206 0.0
O108 O 0.15736 0.27973 0.03289 0.0
C109 C 0.09782 0.21879 0.04938 0.0
O110 O 0.10385 0.19942 0.03276 0.0
O111 O 0.12285 0.25465 0.98435 0.0
C112 C 0.16273 0.28213 0.05729 0.0
O113 O 0.15644 0.26252 0.07352 0.0
C114 C 0.18298 0.21223 0.0255 0.0
O115 O 0.19608 0.23475 0.02841 0.0
O116 O 0.10863 0.24168 0.04696 0.0
C117 C 0.65128 0.24444 0.03334 0.0
O118 O 0.67638 0.24773 0.03094 0.0
O119 O 0.67869 0.28418 0.97915 0.0
Zn120 Zn 0.65281 0.25372 0.97739 0.0
O121 O 0.66902 0.21932 0.96402 0.0
C122 C 0.61181 0.24904 0.93794 0.0
O123 O 0.61418 0.22298 0.94201 0.0
O124 O 0.63703 0.24663 0.01299 0.0
C125 C 0.67577 0.21687 0.94 0.0
O126 O 0.67317 0.23758 0.92402 0.0
C127 C 0.70263 0.28183 0.97397 0.0
O128 O 0.71218 0.25785 0.96881 0.0
O129 O 0.62545 0.26538 0.95142 0.0
C130 C 0.85207 0.75106 0.53919 0.0
O131 O 0.82702 0.74835 0.53573 0.0
O132 O 0.82524 0.71518 0.48167 0.0
Zn133 Zn 0.85186 0.74521 0.48279 0.0
O134 O 0.83654 0.78102 0.47187 0.0
C135 C 0.89304 0.75143 0.44342 0.0
O136 O 0.89004 0.77744 0.44741 0.0
O137 O 0.86692 0.7496 0.51925 0.0
C138 C 0.82945 0.78596 0.44831 0.0
O139 O 0.8313 0.76688 0.43038 0.0
C140 C 0.80172 0.71862 0.47515 0.0
O141 O 0.79315 0.74317 0.47084 0.0
O142 O 0.87969 0.73477 0.45678 0.0
C143 C 0.3461 0.74498 0.46589 0.0
O144 O 0.32107 0.74761 0.4695 0.0
O145 O 0.32165 0.78451 0.5225 0.0
Zn146 Zn 0.34701 0.7535 0.522 0.0
O147 O 0.33102 0.71898 0.53525 0.0
C148 C 0.3841 0.78669 0.54974 0.0
O149 O 0.37512 0.8056 0.53403 0.0
O150 O 0.36119 0.7473 0.48558 0.0
C151 C 0.32754 0.71602 0.55994 0.0
O152 O 0.3331 0.73614 0.57588 0.0
C153 C 0.2983 0.78254 0.53005 0.0
O154 O 0.28903 0.75875 0.53643 0.0
O155 O 0.37571 0.76273 0.54727 0.0
C156 C 0.98734 0.89376 0.71539 0.0
O157 O 0.96656 0.89863 0.70122 0.0
O158 O 0.95365 0.83751 0.77534 0.0
Zn159 Zn 0.95157 0.8595 0.74196 0.0
O160 O 0.94091 0.83666 0.71074 0.0
C161 C 0.90705 0.89586 0.73325 0.0
O162 O 0.90658 0.88637 0.70903 0.0
O163 O 0.98581 0.87728 0.73455 0.0
C164 C 0.91935 0.82434 0.71027 0.0
O165 O 0.90402 0.82592 0.73089 0.0
C166 C 0.95467 0.81196 0.77728 0.0
O167 O 0.95582 0.79718 0.75577 0.0
O168 O 0.92446 0.88786 0.74918 0.0
C169 C 0.48821 0.1099 0.23083 0.0
O170 O 0.4904 0.11338 0.25646 0.0
O171 O 0.53338 0.15772 0.26074 0.0
Zn172 Zn 0.53932 0.13487 0.22839 0.0
O173 O 0.554 0.15702 0.19858 0.0
C174 C 0.5837 0.0975 0.22615 0.0
O175 O 0.58737 0.10661 0.20209 0.0
O176 O 0.50642 0.11754 0.21575 0.0
C177 C 0.5758 0.16882 0.19968 0.0
O178 O 0.58966 0.16709 0.22137 0.0
C179 C 0.53325 0.18336 0.26157 0.0
O180 O 0.53536 0.19713 0.23951 0.0
O181 O 0.56465 0.10612 0.23958 0.0
C182 C 0.49751 0.60938 0.26451 0.0
O183 O 0.49618 0.61666 0.2396 0.0
O184 O 0.45031 0.65186 0.23381 0.0
Zn185 Zn 0.44515 0.63102 0.26755 0.0
O186 O 0.43242 0.6552 0.29676 0.0
C187 C 0.40053 0.59468 0.2745 0.0
O188 O 0.39934 0.60417 0.2987 0.0
O189 O 0.4782 0.61339 0.27951 0.0
C190 C 0.41068 0.66713 0.2961 0.0
O191 O 0.39579 0.66428 0.27524 0.0
C192 C 0.45207 0.67734 0.23159 0.0
O193 O 0.45184 0.69244 0.25292 0.0
O194 O 0.4184 0.6027 0.25917 0.0
C195 C 0.014 0.40206 0.78517 0.0
O196 O 0.03446 0.40689 0.79983 0.0
O197 O 0.04804 0.34576 0.72558 0.0
Zn198 Zn 0.05021 0.36794 0.75881 0.0
O199 O 0.06004 0.34506 0.79022 0.0
C200 C 0.09564 0.40295 0.7676 0.0
O201 O 0.09599 0.3931 0.79168 0.0
O202 O 0.01601 0.38592 0.76578 0.0
C203 C 0.08098 0.33165 0.79095 0.0
O204 O 0.09647 0.33213 0.7704 0.0
C205 C 0.04586 0.32028 0.72373 0.0
O206 O 0.04362 0.3057 0.74527 0.0
O207 O 0.07784 0.39579 0.75173 0.0
C208 C 0.71601 0.03436 0.86527 0.0
O209 O 0.71887 0.03078 0.83973 0.0
O210 O 0.75003 0.97491 0.84069 0.0
Zn211 Zn 0.71953 0.97652 0.86542 0.0
O212 O 0.68647 0.96569 0.84711 0.0
C213 C 0.71217 0.93354 0.90504 0.0
O214 O 0.68784 0.93345 0.89759 0.0
O215 O 0.7158 0.01389 0.88039 0.0
C216 C 0.68423 0.94279 0.83602 0.0
O217 O 0.70407 0.92622 0.83607 0.0
C218 C 0.74951 0.97397 0.8156 0.0
O219 O 0.72722 0.97531 0.80321 0.0
O220 O 0.7278 0.95027 0.89468 0.0
C221 C 0.78532 0.97414 0.39152 0.0
O222 O 0.79192 0.99436 0.40691 0.0
O223 O 0.74866 0.02008 0.32584 0.0
Zn224 Zn 0.77497 0.01726 0.35501 0.0
O225 O 0.81006 0.02838 0.34184 0.0
C226 C 0.77673 0.06293 0.39124 0.0
O227 O 0.80013 0.0661 0.38169 0.0
O228 O 0.77697 0.97908 0.36842 0.0
C229 C 0.81749 0.02497 0.31816 0.0
O230 O 0.80178 0.01353 0.3011 0.0
C231 C 0.72527 0.01507 0.33172 0.0
O232 O 0.71985 0.00679 0.35574 0.0
O233 O 0.76317 0.04298 0.38358 0.0
C234 C 0.2117 0.46158 0.13348 0.0
O235 O 0.21463 0.46482 0.15906 0.0
O236 O 0.24755 0.51895 0.1596 0.0
Zn237 Zn 0.2181 0.51931 0.13349 0.0
O238 O 0.18537 0.53289 0.15059 0.0
C239 C 0.21554 0.56241 0.09325 0.0
O240 O 0.19099 0.56459 0.09951 0.0
O241 O 0.21247 0.48214 0.11851 0.0
C242 C 0.18446 0.55625 0.16094 0.0
O243 O 0.20527 0.57146 0.16063 0.0
C244 C 0.24573 0.51998 0.18462 0.0
O245 O 0.22277 0.51994 0.19568 0.0
O246 O 0.22939 0.54458 0.10449 0.0
C247 C 0.29079 0.53238 0.63382 0.0
O248 O 0.28884 0.52911 0.65949 0.0
O249 O 0.25549 0.4741 0.65927 0.0
Zn250 Zn 0.28584 0.47466 0.63429 0.0
O251 O 0.31885 0.46316 0.65237 0.0
C252 C 0.2918 0.43146 0.59455 0.0
O253 O 0.31625 0.43079 0.60157 0.0
O254 O 0.29006 0.51177 0.6189 0.0
C255 C 0.32073 0.44011 0.6632 0.0
O256 O 0.30059 0.42393 0.66307 0.0
C257 C 0.2561 0.4731 0.68435 0.0
O258 O 0.27847 0.47348 0.69664 0.0
O259 O 0.27669 0.44848 0.60527 0.0
C260 C 0.84958 0.73622 0.04198 0.0
O261 O 0.82476 0.74157 0.0403 0.0
O262 O 0.8236 0.77611 0.98671 0.0
Zn263 Zn 0.84766 0.74412 0.98548 0.0
O264 O 0.82909 0.71105 0.97199 0.0
C265 C 0.8887 0.73723 0.94603 0.0
O266 O 0.88502 0.71125 0.94957 0.0
O267 O 0.86322 0.73645 0.02112 0.0
C268 C 0.82359 0.7093 0.94757 0.0
O269 O 0.82921 0.72956 0.93186 0.0
C270 C 0.79918 0.77482 0.98417 0.0
O271 O 0.78797 0.75109 0.98238 0.0
O272 O 0.87578 0.75404 0.95966 0.0
C273 C 0.36521 0.74851 0.95825 0.0
O274 O 0.34011 0.74574 0.96119 0.0
O275 O 0.33727 0.7126 0.01443 0.0
Zn276 Zn 0.36315 0.74305 0.01421 0.0
O277 O 0.34628 0.77842 0.02355 0.0
C278 C 0.40051 0.75071 0.05721 0.0
O279 O 0.39598 0.77657 0.05392 0.0
O280 O 0.37967 0.74717 0.97851 0.0
C281 C 0.33581 0.78255 0.04588 0.0
O282 O 0.33513 0.76287 0.06325 0.0
C283 C 0.31281 0.71514 0.01436 0.0
O284 O 0.30257 0.73932 0.01248 0.0
O285 O 0.38965 0.7337 0.04199 0.0
C286 C 0.14723 0.23794 0.45944 0.0
O287 O 0.17233 0.24159 0.46113 0.0
O288 O 0.17472 0.27839 0.51377 0.0
Zn289 Zn 0.14967 0.24731 0.51556 0.0
O290 O 0.16736 0.21377 0.52916 0.0
C291 C 0.10852 0.24217 0.55509 0.0
O292 O 0.11116 0.21606 0.55151 0.0
O293 O 0.13356 0.23977 0.48019 0.0
C294 C 0.17262 0.21183 0.55361 0.0
O295 O 0.1673 0.23215 0.56937 0.0
C296 C 0.19912 0.27616 0.51596 0.0
O297 O 0.20949 0.25204 0.51774 0.0
O298 O 0.12208 0.25842 0.54147 0.0
C299 C 0.63873 0.25859 0.52362 0.0
O300 O 0.6634 0.2535 0.51997 0.0
O301 O 0.66201 0.22224 0.46596 0.0
Zn302 Zn 0.63819 0.25444 0.46716 0.0
O303 O 0.65692 0.28834 0.45611 0.0
C304 C 0.59747 0.2637 0.42746 0.0
O305 O 0.60252 0.28948 0.43061 0.0
O306 O 0.6238 0.25961 0.5037 0.0
C307 C 0.66371 0.29202 0.43226 0.0
O308 O 0.65904 0.27305 0.41475 0.0
C309 C 0.68654 0.22341 0.46486 0.0
O310 O 0.69803 0.24703 0.46581 0.0
O311 O 0.60951 0.24638 0.44133 0.0
H312 H 0.08475 0.25306 0.08976 0.0
H313 H 0.03531 0.13305 0.18171 0.0
H314 H 0.07539 0.1708 0.06328 0.0
H315 H 0.04395 0.21526 0.20859 0.0
H316 H 0.04453 0.1478 0.13677 0.0
H317 H 0.06439 0.24098 0.13163 0.0
C318 C 0.07809 0.23254 0.09258 0.0
C319 C 0.08209 0.21283 0.07307 0.0
C320 C 0.04417 0.16269 0.15243 0.0
C321 C 0.05895 0.19882 0.12109 0.0
C322 C 0.0389 0.15427 0.17814 0.0
C323 C 0.03917 0.1729 0.19904 0.0
C324 C 0.04993 0.18993 0.14752 0.0
C325 C 0.04372 0.20017 0.19313 0.0
C326 C 0.06651 0.22565 0.11654 0.0
C327 C 0.07294 0.18661 0.07782 0.0
N328 N 0.04921 0.20781 0.16796 0.0
N329 N 0.06206 0.18032 0.10145 0.0
H330 H 0.45482 0.78648 0.70382 0.0
H331 H 0.40284 0.83652 0.56335 0.0
H332 H 0.44986 0.87018 0.68064 0.0
H333 H 0.40348 0.75308 0.5879 0.0
H334 H 0.42589 0.84858 0.60378 0.0
H335 H 0.44183 0.77333 0.65919 0.0
C336 C 0.45129 0.80209 0.68929 0.0
C337 C 0.45315 0.82948 0.69609 0.0
C338 C 0.42122 0.82759 0.60021 0.0
C339 C 0.43816 0.81457 0.64501 0.0
C340 C 0.40809 0.82068 0.57707 0.0
C341 C 0.40094 0.79379 0.57234 0.0
C342 C 0.42719 0.80749 0.61881 0.0
C343 C 0.4084 0.77411 0.59081 0.0
C344 C 0.44383 0.79456 0.66381 0.0
C345 C 0.44845 0.84881 0.67638 0.0
N346 N 0.42089 0.78139 0.61333 0.0
N347 N 0.44096 0.84099 0.65183 0.0
H348 H 0.54696 0.26698 0.7821 0.0
H349 H 0.59964 0.30143 0.92645 0.0
H350 H 0.55295 0.34773 0.8136 0.0
H351 H 0.58896 0.22002 0.89809 0.0
H352 H 0.57874 0.31838 0.8866 0.0
H353 H 0.55853 0.249 0.82556 0.0
C354 C 0.55044 0.28092 0.79819 0.0
C355 C 0.54924 0.30892 0.7941 0.0
C356 C 0.58071 0.29679 0.88916 0.0
C357 C 0.56261 0.28849 0.84383 0.0
C358 C 0.59266 0.28708 0.91196 0.0
C359 C 0.59629 0.25926 0.91551 0.0
C360 C 0.57251 0.27859 0.86959 0.0
C361 C 0.58667 0.24163 0.89612 0.0
C362 C 0.55705 0.27064 0.823 0.0
C363 C 0.55384 0.32601 0.81573 0.0
N364 N 0.57548 0.25161 0.87385 0.0
N365 N 0.56053 0.31553 0.83955 0.0
H366 H 0.95814 0.73259 0.28803 0.0
H367 H 0.90793 0.69954 0.43324 0.0
H368 H 0.95991 0.65314 0.32299 0.0
H369 H 0.91466 0.7807 0.40308 0.0
H370 H 0.93017 0.68281 0.39409 0.0
H371 H 0.94557 0.75132 0.33089 0.0
C372 C 0.95621 0.71912 0.30476 0.0
C373 C 0.9598 0.6912 0.3018 0.0
C374 C 0.92705 0.70432 0.39611 0.0
C375 C 0.94524 0.71247 0.35083 0.0
C376 C 0.91431 0.71389 0.41849 0.0
C377 C 0.90921 0.74154 0.42135 0.0
C378 C 0.93452 0.72247 0.37621 0.0
C379 C 0.91811 0.7592 0.40166 0.0
C380 C 0.94901 0.72983 0.32922 0.0
C381 C 0.95711 0.67476 0.32422 0.0
N382 N 0.93006 0.74934 0.37976 0.0
N383 N 0.94975 0.68559 0.34766 0.0
H384 H 0.19897 0.00115 0.16993 0.0
H385 H 0.1154 0.08199 0.2764 0.0
H386 H 0.23206 0.05192 0.2305 0.0
H387 H 0.08298 0.04229 0.20803 0.0
H388 H 0.15779 0.06371 0.265 0.0
H389 H 0.15621 0.00878 0.18881 0.0
C390 C 0.19731 0.01366 0.18739 0.0
C391 C 0.21913 0.02623 0.19844 0.0
C392 C 0.14134 0.05875 0.25267 0.0
C393 C 0.17013 0.03509 0.22009 0.0
C394 C 0.11709 0.06909 0.2592 0.0
C395 C 0.09564 0.06396 0.24292 0.0
C396 C 0.14419 0.04312 0.22972 0.0
C397 C 0.09901 0.04701 0.22099 0.0
C398 C 0.17285 0.01804 0.19813 0.0
C399 C 0.21576 0.04206 0.22117 0.0
N400 N 0.12288 0.03742 0.21489 0.0
N401 N 0.19169 0.04624 0.2311 0.0
H402 H 0.37858 0.91162 0.7799 0.0
H403 H 0.28812 0.99469 0.6809 0.0
H404 H 0.40721 0.95834 0.71417 0.0
H405 H 0.25953 0.93557 0.73627 0.0
H406 H 0.33155 0.98862 0.69885 0.0
H407 H 0.33487 0.92748 0.77013 0.0
C408 C 0.37577 0.92556 0.76367 0.0
C409 C 0.39659 0.93339 0.7476 0.0
C410 C 0.31573 0.97717 0.70725 0.0
C411 C 0.34653 0.95148 0.73627 0.0
C412 C 0.29088 0.98065 0.69705 0.0
C413 C 0.27016 0.96534 0.70686 0.0
C414 C 0.31994 0.95828 0.72746 0.0
C415 C 0.27495 0.9476 0.72791 0.0
C416 C 0.35076 0.93451 0.75805 0.0
C417 C 0.39173 0.95155 0.72691 0.0
N418 N 0.29938 0.94439 0.73736 0.0
N419 N 0.36718 0.95978 0.7217 0.0
H420 H 0.74243 0.43198 0.7641 0.0
H421 H 0.59071 0.4445 0.78819 0.0
H422 H 0.70859 0.48406 0.82306 0.0
H423 H 0.62393 0.40155 0.72224 0.0
H424 H 0.63354 0.46203 0.79914 0.0
H425 H 0.69924 0.42326 0.74637 0.0
C426 C 0.72597 0.4418 0.77316 0.0
C427 C 0.72915 0.45855 0.79529 0.0
C428 C 0.63143 0.44903 0.78208 0.0
C429 C 0.6796 0.44849 0.77521 0.0
C430 C 0.60695 0.43902 0.77581 0.0
C431 C 0.60374 0.42131 0.75442 0.0
C432 C 0.65294 0.44107 0.76703 0.0
C433 C 0.62549 0.41503 0.739 0.0
C434 C 0.70129 0.43683 0.76301 0.0
C435 C 0.70709 0.47085 0.8061 0.0
N436 N 0.6492 0.42463 0.7458 0.0
N437 N 0.68326 0.46534 0.79614 0.0
H438 H 0.87231 0.58247 0.20866 0.0
H439 H 0.81949 0.51265 0.34028 0.0
H440 H 0.91894 0.56575 0.2775 0.0
H441 H 0.77006 0.53856 0.27637 0.0
H442 H 0.85719 0.52456 0.31391 0.0
H443 H 0.83599 0.55907 0.22955 0.0
C444 C 0.87505 0.57351 0.22797 0.0
C445 C 0.8986 0.57637 0.24151 0.0
C446 C 0.83812 0.52744 0.30553 0.0
C447 C 0.85714 0.54973 0.26552 0.0
C448 C 0.81654 0.52061 0.32059 0.0
C449 C 0.79155 0.52497 0.31068 0.0
C450 C 0.83474 0.53882 0.28037 0.0
C451 C 0.78897 0.53509 0.2849 0.0
C452 C 0.85428 0.56026 0.23992 0.0
C453 C 0.90105 0.56433 0.26647 0.0
N454 N 0.81031 0.54194 0.27073 0.0
N455 N 0.88053 0.55175 0.27774 0.0
H456 H 0.20513 0.0466 0.07117 0.0
H457 H 0.23311 0.20213 0.04039 0.0
H458 H 0.27688 0.08657 0.09047 0.0
H459 H 0.16103 0.16203 0.02266 0.0
H460 H 0.25147 0.15876 0.05382 0.0
H461 H 0.19075 0.08731 0.04835 0.0
C462 C 0.21799 0.06383 0.07038 0.0
C463 C 0.24214 0.06323 0.08302 0.0
C464 C 0.23171 0.15942 0.04674 0.0
C465 C 0.22569 0.11007 0.05704 0.0
C466 C 0.22122 0.18418 0.03902 0.0
C467 C 0.19539 0.1858 0.03064 0.0
C468 C 0.21625 0.1361 0.04613 0.0
C469 C 0.18097 0.16182 0.02919 0.0
C470 C 0.20974 0.08711 0.05736 0.0
C471 C 0.25803 0.08616 0.08118 0.0
N472 N 0.19152 0.13805 0.03708 0.0
N473 N 0.24942 0.10872 0.06868 0.0
H474 H 0.74945 0.44716 0.94921 0.0
H475 H 0.74996 0.28566 0.95009 0.0
H476 H 0.79124 0.39831 0.89302 0.0
H477 H 0.69114 0.33388 0.98789 0.0
H478 H 0.77249 0.32706 0.93737 0.0
H479 H 0.73518 0.40592 0.97156 0.0
C480 C 0.75594 0.42781 0.94181 0.0
C481 C 0.77128 0.42614 0.91902 0.0
C482 C 0.75481 0.32853 0.94872 0.0
C483 C 0.75512 0.37902 0.94451 0.0
C484 C 0.74199 0.30492 0.9561 0.0
C485 C 0.71844 0.30633 0.96976 0.0
C486 C 0.74411 0.35371 0.95524 0.0
C487 C 0.70908 0.33186 0.97707 0.0
C488 C 0.74772 0.4043 0.95451 0.0
C489 C 0.77915 0.40051 0.91033 0.0
N490 N 0.72184 0.35456 0.96955 0.0
N491 N 0.77086 0.37796 0.92299 0.0
H492 H 0.75827 0.71774 0.44447 0.0
H493 H 0.73816 0.55807 0.44842 0.0
H494 H 0.80846 0.66577 0.48981 0.0
H495 H 0.72265 0.6067 0.37955 0.0
H496 H 0.75473 0.59849 0.47112 0.0
H497 H 0.73525 0.67791 0.42826 0.0
C498 C 0.76418 0.698 0.4514 0.0
C499 C 0.78548 0.69504 0.46833 0.0
C500 C 0.74746 0.60022 0.45112 0.0
C501 C 0.75912 0.6495 0.44994 0.0
C502 C 0.73793 0.57729 0.43824 0.0
C503 C 0.72924 0.57909 0.41204 0.0
C504 C 0.74762 0.62511 0.43787 0.0
C505 C 0.72943 0.60442 0.39967 0.0
C506 C 0.75111 0.67531 0.44201 0.0
C507 C 0.79229 0.66891 0.47658 0.0
N508 N 0.73842 0.62645 0.41271 0.0
N509 N 0.77917 0.64709 0.46724 0.0
H510 H 0.25276 0.94846 0.55512 0.0
H511 H 0.25203 0.78691 0.55596 0.0
H512 H 0.21026 0.90034 0.61134 0.0
H513 H 0.30989 0.83454 0.51595 0.0
H514 H 0.23012 0.8285 0.56912 0.0
H515 H 0.26742 0.90695 0.53355 0.0
C516 C 0.24624 0.9292 0.56273 0.0
C517 C 0.23051 0.92785 0.58526 0.0
C518 C 0.24747 0.82981 0.55724 0.0
C519 C 0.24715 0.88038 0.56066 0.0
C520 C 0.25995 0.80608 0.54961 0.0
C521 C 0.28301 0.80725 0.53509 0.0
C522 C 0.25803 0.85489 0.55014 0.0
C523 C 0.2923 0.83269 0.52739 0.0
C524 C 0.25469 0.90554 0.55046 0.0
C525 C 0.22263 0.90233 0.59421 0.0
N526 N 0.27988 0.85552 0.53516 0.0
N527 N 0.23113 0.87961 0.58198 0.0
H528 H 0.90528 0.78872 0.93695 0.0
H529 H 0.94933 0.75807 0.78909 0.0
H530 H 0.90817 0.7083 0.9043 0.0
H531 H 0.95209 0.8369 0.82534 0.0
H532 H 0.93843 0.73852 0.83208 0.0
H533 H 0.9266 0.80581 0.89746 0.0
C534 C 0.91066 0.77459 0.92157 0.0
C535 C 0.9047 0.74708 0.92383 0.0
C536 C 0.94172 0.76005 0.83065 0.0
C537 C 0.92891 0.76659 0.87828 0.0
C538 C 0.94797 0.77123 0.80611 0.0
C539 C 0.95132 0.79922 0.80351 0.0
C540 C 0.93871 0.77702 0.85269 0.0
C541 C 0.94941 0.81526 0.8263 0.0
C542 C 0.92285 0.78437 0.89899 0.0
C543 C 0.91232 0.72969 0.90335 0.0
N544 N 0.94299 0.80397 0.84981 0.0
N545 N 0.92374 0.73979 0.88127 0.0
H546 H 0.52888 0.16087 0.31065 0.0
H547 H 0.57943 0.29294 0.38523 0.0
H548 H 0.54168 0.23716 0.27162 0.0
H549 H 0.57804 0.21312 0.41933 0.0
H550 H 0.55743 0.27523 0.34602 0.0
H551 H 0.53833 0.18227 0.35292 0.0
C552 C 0.53337 0.18222 0.31098 0.0
C553 C 0.53489 0.19714 0.28747 0.0
C554 C 0.56166 0.2617 0.36224 0.0
C555 C 0.54594 0.22175 0.33592 0.0
C556 C 0.57413 0.2718 0.38468 0.0
C557 C 0.58087 0.2544 0.40545 0.0
C558 C 0.5558 0.23406 0.36068 0.0
C559 C 0.57351 0.22721 0.40366 0.0
C560 C 0.53881 0.19442 0.33516 0.0
C561 C 0.54051 0.22482 0.28921 0.0
N562 N 0.56157 0.21785 0.38159 0.0
N563 N 0.54616 0.23617 0.313 0.0
H564 H 0.44878 0.73112 0.21872 0.0
H565 H 0.41698 0.69939 0.06768 0.0
H566 H 0.45296 0.65176 0.18377 0.0
H567 H 0.41635 0.77985 0.10039 0.0
H568 H 0.43511 0.68255 0.10895 0.0
H569 H 0.44177 0.75028 0.17473 0.0
C570 C 0.44855 0.71776 0.2018 0.0
C571 C 0.45113 0.68974 0.205 0.0
C572 C 0.43129 0.70395 0.10706 0.0
C573 C 0.44298 0.71151 0.15465 0.0
C574 C 0.42093 0.71359 0.08345 0.0
C575 C 0.41486 0.74104 0.08066 0.0
C576 C 0.4354 0.7218 0.12822 0.0
C577 C 0.42061 0.75851 0.10171 0.0
C578 C 0.44452 0.72871 0.17668 0.0
C579 C 0.45078 0.67343 0.18232 0.0
N580 N 0.43025 0.74854 0.12474 0.0
N581 N 0.44651 0.68452 0.1582 0.0
H582 H 0.09375 0.29426 0.56398 0.0
H583 H 0.04919 0.26614 0.71217 0.0
H584 H 0.08829 0.21419 0.59704 0.0
H585 H 0.04955 0.34485 0.67561 0.0
H586 H 0.05925 0.24593 0.66924 0.0
H587 H 0.07326 0.31237 0.6035 0.0
C588 C 0.08798 0.28043 0.57946 0.0
C589 C 0.09297 0.2527 0.57731 0.0
C590 C 0.05683 0.2676 0.67059 0.0
C591 C 0.06973 0.27336 0.62289 0.0
C592 C 0.05106 0.27915 0.69509 0.0
C593 C 0.04883 0.30727 0.69758 0.0
C594 C 0.06046 0.28432 0.64848 0.0
C595 C 0.05137 0.32311 0.67474 0.0
C596 C 0.07626 0.29079 0.60206 0.0
C597 C 0.08488 0.23572 0.59791 0.0
N598 N 0.05728 0.31144 0.65126 0.0
N599 N 0.07395 0.24637 0.62001 0.0
H600 H 0.75535 0.96205 0.76291 0.0
H601 H 0.90398 0.92177 0.78079 0.0
H602 H 0.7988 0.9728 0.83501 0.0
H603 H 0.86157 0.90912 0.70835 0.0
H604 H 0.86687 0.94568 0.79893 0.0
H605 H 0.7951 0.94775 0.74068 0.0
C606 C 0.77327 0.96172 0.77399 0.0
C607 C 0.77367 0.96834 0.80095 0.0
C608 C 0.8657 0.9379 0.77897 0.0
C609 C 0.81915 0.9519 0.77568 0.0
C610 C 0.88693 0.92423 0.76858 0.0
C611 C 0.8858 0.91315 0.7431 0.0
C612 C 0.84301 0.94039 0.7639 0.0
C613 C 0.86325 0.9172 0.72814 0.0
C614 C 0.79595 0.9535 0.76129 0.0
C615 C 0.79748 0.96761 0.81428 0.0
N616 N 0.84262 0.93025 0.73887 0.0
N617 N 0.81917 0.95933 0.80157 0.0
H618 H 0.57917 0.07003 0.27269 0.0
H619 H 0.72918 0.03447 0.28107 0.0
H620 H 0.63251 0.08495 0.20883 0.0
H621 H 0.67319 0.01087 0.33988 0.0
H622 H 0.69385 0.05001 0.25274 0.0
H623 H 0.61293 0.04528 0.29599 0.0
C624 C 0.59794 0.06789 0.26344 0.0
C625 C 0.60309 0.07981 0.23887 0.0
C626 C 0.68929 0.04115 0.27172 0.0
C627 C 0.64201 0.05165 0.26562 0.0
C628 C 0.70946 0.03227 0.28791 0.0
C629 C 0.70417 0.02161 0.31302 0.0
C630 C 0.66367 0.03952 0.28078 0.0
C631 C 0.67823 0.01914 0.32078 0.0
C632 C 0.61723 0.05371 0.27676 0.0
C633 C 0.62771 0.07617 0.22777 0.0
N634 N 0.659 0.02829 0.30485 0.0
N635 N 0.64636 0.06269 0.24137 0.0
H636 H 0.39936 0.56799 0.22731 0.0
H637 H 0.24919 0.53204 0.2375 0.0
H638 H 0.35382 0.5824 0.29731 0.0
H639 H 0.296 0.51867 0.16817 0.0
H640 H 0.28816 0.54513 0.26185 0.0
H641 H 0.36278 0.54445 0.2076 0.0
C642 C 0.38172 0.56599 0.23866 0.0
C643 C 0.37957 0.57748 0.26389 0.0
C644 C 0.28991 0.53904 0.24139 0.0
C645 C 0.33738 0.55067 0.24128 0.0
C646 C 0.26768 0.53151 0.22749 0.0
C647 C 0.26927 0.52457 0.20065 0.0
C648 C 0.31387 0.53963 0.22835 0.0
C649 C 0.29377 0.52417 0.18874 0.0
C650 C 0.3608 0.55252 0.22738 0.0
C651 C 0.3563 0.57398 0.27775 0.0
N652 N 0.31502 0.53183 0.20259 0.0
N653 N 0.33598 0.56116 0.26613 0.0
H654 H 0.24998 0.46156 0.73709 0.0
H655 H 0.09949 0.42901 0.7202 0.0
H656 H 0.20671 0.47421 0.66519 0.0
H657 H 0.14179 0.41399 0.79226 0.0
H658 H 0.13755 0.45103 0.70184 0.0
H659 H 0.20973 0.44937 0.75958 0.0
C660 C 0.23201 0.46209 0.72611 0.0
C661 C 0.23178 0.46863 0.69913 0.0
C662 C 0.1385 0.44315 0.72176 0.0
C663 C 0.18571 0.45462 0.7247 0.0
C664 C 0.11672 0.43057 0.73229 0.0
C665 C 0.11751 0.41935 0.75771 0.0
C666 C 0.1614 0.4444 0.73666 0.0
C667 C 0.14034 0.42222 0.77251 0.0
C668 C 0.20904 0.45507 0.73895 0.0
C669 C 0.2079 0.46903 0.68593 0.0
N670 N 0.16148 0.4342 0.76166 0.0
N671 N 0.18591 0.46192 0.69878 0.0
H672 H 0.81655 0.82694 0.98586 0.0
H673 H 0.68746 0.88786 0.92251 0.0
H674 H 0.74779 0.77977 0.97134 0.0
H675 H 0.75996 0.93068 0.92794 0.0
H676 H 0.70661 0.85047 0.94736 0.0
H677 H 0.79335 0.86734 0.97198 0.0
C678 C 0.79647 0.82509 0.98004 0.0
C679 C 0.78421 0.79982 0.97942 0.0
C680 C 0.71821 0.86819 0.94334 0.0
C681 C 0.75754 0.84611 0.96328 0.0
C682 C 0.70727 0.88958 0.92923 0.0
C683 C 0.72223 0.91231 0.92285 0.0
C684 C 0.74423 0.86961 0.95122 0.0
C685 C 0.74779 0.91343 0.93213 0.0
C686 C 0.78323 0.84821 0.97206 0.0
C687 C 0.75808 0.79878 0.97192 0.0
N688 N 0.75802 0.89232 0.94565 0.0
N689 N 0.74569 0.82156 0.96386 0.0
H690 H 0.26426 0.56084 0.07252 0.0
H691 H 0.26029 0.71348 0.02235 0.0
H692 H 0.19528 0.60985 0.07429 0.0
H693 H 0.32787 0.66245 0.01891 0.0
H694 H 0.23473 0.67457 0.03664 0.0
H695 H 0.28633 0.59642 0.04818 0.0
C696 C 0.25366 0.579 0.06757 0.0
C697 C 0.22795 0.58248 0.07573 0.0
C698 C 0.25509 0.67185 0.03248 0.0
C699 C 0.25326 0.62354 0.04799 0.0
C700 C 0.2697 0.69405 0.02427 0.0
C701 C 0.29635 0.69132 0.01973 0.0
C702 C 0.26725 0.64677 0.03621 0.0
C703 C 0.30746 0.66562 0.02245 0.0
C704 C 0.2663 0.59935 0.05365 0.0
C705 C 0.21515 0.60636 0.06852 0.0
N706 N 0.29292 0.64445 0.03073 0.0
N707 N 0.22803 0.62613 0.05533 0.0
H708 H 0.315 0.38505 0.57674 0.0
H709 H 0.18364 0.32891 0.51402 0.0
H710 H 0.24386 0.43034 0.5719 0.0
H711 H 0.25075 0.27918 0.52834 0.0
H712 H 0.20833 0.36845 0.52761 0.0
H713 H 0.29455 0.34843 0.55181 0.0
C714 C 0.29522 0.38747 0.57014 0.0
C715 C 0.28101 0.41066 0.57671 0.0
C716 C 0.21776 0.34894 0.52755 0.0
C717 C 0.25753 0.36887 0.54826 0.0
C718 C 0.20368 0.32632 0.51973 0.0
C719 C 0.21502 0.30059 0.52041 0.0
C720 C 0.2434 0.34588 0.53622 0.0
C721 C 0.24114 0.29858 0.52775 0.0
C722 C 0.28354 0.36652 0.55598 0.0
C723 C 0.25546 0.4127 0.56757 0.0
N724 N 0.25438 0.32089 0.53566 0.0
N725 N 0.2445 0.39201 0.55401 0.0
H726 H 0.73877 0.21856 0.45659 0.0
H727 H 0.72822 0.06388 0.41296 0.0
H728 H 0.66863 0.17156 0.46118 0.0
H729 H 0.7984 0.1107 0.40725 0.0
H730 H 0.70754 0.10158 0.43568 0.0
H731 H 0.76229 0.17791 0.44347 0.0
C732 C 0.72835 0.19966 0.45511 0.0
C733 C 0.70162 0.19856 0.45972 0.0
C734 C 0.72754 0.10354 0.42969 0.0
C735 C 0.7284 0.15196 0.44458 0.0
C736 C 0.73939 0.08197 0.41673 0.0
C737 C 0.76501 0.08422 0.40791 0.0
C738 C 0.74135 0.12761 0.43376 0.0
C739 C 0.77855 0.10812 0.41351 0.0
C740 C 0.74179 0.17645 0.44758 0.0
C741 C 0.68918 0.17345 0.4576 0.0
N742 N 0.76647 0.12898 0.42584 0.0
N743 N 0.70262 0.15124 0.44998 0.0
H744 H 0.0961 0.2277 0.44944 0.0
H745 H 0.12114 0.18 0.30069 0.0
H746 H 0.17079 0.23042 0.41153 0.0
H747 H 0.04722 0.17401 0.3398 0.0
H748 H 0.13865 0.20275 0.33957 0.0
H749 H 0.07699 0.21212 0.40806 0.0
C750 C 0.10848 0.22517 0.43238 0.0
C751 C 0.13515 0.23018 0.43404 0.0
C752 C 0.11855 0.19664 0.33958 0.0
C753 C 0.11335 0.21227 0.38655 0.0
C754 C 0.10851 0.18368 0.31735 0.0
C755 C 0.08272 0.17486 0.31705 0.0
C756 C 0.10272 0.20079 0.36174 0.0
C757 C 0.06726 0.1803 0.3392 0.0
C758 C 0.09753 0.21626 0.40874 0.0
C759 C 0.15018 0.22667 0.41123 0.0
N760 N 0.07755 0.19273 0.3607 0.0
N761 N 0.13909 0.21778 0.38847 0.0
H762 H 0.41561 0.76024 0.94597 0.0
H763 H 0.38072 0.81061 0.80019 0.0
H764 H 0.33953 0.75419 0.9113 0.0
H765 H 0.45561 0.82141 0.83643 0.0
H766 H 0.36693 0.78457 0.83858 0.0
H767 H 0.43212 0.7773 0.90397 0.0
C768 C 0.40242 0.76223 0.92946 0.0
C769 C 0.37608 0.75604 0.93226 0.0
C770 C 0.38645 0.79244 0.83806 0.0
C771 C 0.39484 0.77568 0.88414 0.0
C772 C 0.39437 0.8073 0.8161 0.0
C773 C 0.41928 0.81848 0.8152 0.0
C774 C 0.40355 0.78876 0.85933 0.0
C775 C 0.43616 0.81336 0.83636 0.0
C776 C 0.41186 0.77202 0.90548 0.0
C777 C 0.35993 0.75892 0.91013 0.0
N778 N 0.42791 0.79907 0.85765 0.0
N779 N 0.36953 0.76872 0.88709 0.0
H780 H 0.6656 0.25929 0.57024 0.0
H781 H 0.54676 0.31749 0.65373 0.0
H782 H 0.58929 0.27209 0.53793 0.0
H783 H 0.62359 0.30659 0.68541 0.0
H784 H 0.56089 0.29677 0.61242 0.0
H785 H 0.64952 0.27257 0.61367 0.0
C786 C 0.64542 0.26474 0.57229 0.0
C787 C 0.62882 0.26478 0.55034 0.0
C788 C 0.57461 0.29873 0.62847 0.0
C789 C 0.61029 0.28009 0.60006 0.0
C790 C 0.56654 0.31053 0.6521 0.0
C791 C 0.58408 0.31402 0.673 0.0
C792 C 0.60043 0.2904 0.62566 0.0
C793 C 0.60944 0.30448 0.66978 0.0
C794 C 0.63624 0.27233 0.59712 0.0
C795 C 0.60282 0.2719 0.55425 0.0
N796 N 0.61689 0.2933 0.64649 0.0
N797 N 0.59441 0.27943 0.57858 0.0
H798 H 0.95215 0.67505 0.16269 0.0
H799 H 0.82616 0.73312 0.09045 0.0
H800 H 0.87926 0.68784 0.20224 0.0
H801 H 0.89989 0.72228 0.05196 0.0
H802 H 0.84569 0.71871 0.13212 0.0
H803 H 0.93385 0.69455 0.12256 0.0
C804 C 0.93233 0.68211 0.163 0.0
C805 C 0.91717 0.67966 0.18585 0.0
C806 C 0.85762 0.71961 0.11458 0.0
C807 C 0.89602 0.70192 0.13984 0.0
C808 C 0.84648 0.72783 0.09077 0.0
C809 C 0.86137 0.72878 0.06762 0.0
C810 C 0.88384 0.71222 0.11527 0.0
C811 C 0.88762 0.72176 0.06926 0.0
C812 C 0.92188 0.69324 0.14005 0.0
C813 C 0.89164 0.68925 0.18508 0.0
N814 N 0.89797 0.71367 0.09263 0.0
N815 N 0.88182 0.69981 0.1624 0.0
H816 H 0.37575 0.04219 0.12349 0.0
H817 H 0.4444 0.09275 0.25651 0.0
H818 H 0.33828 0.04068 0.19964 0.0
H819 H 0.47874 0.09806 0.17899 0.0
H820 H 0.40596 0.0721 0.23671 0.0
H821 H 0.41432 0.06092 0.14418 0.0
C822 C 0.37564 0.04572 0.1446 0.0
C823 C 0.35369 0.0399 0.15983 0.0
C824 C 0.42194 0.07778 0.22407 0.0
C825 C 0.39793 0.06148 0.18372 0.0
C826 C 0.44389 0.08956 0.23536 0.0
C827 C 0.46483 0.09721 0.21939 0.0
C828 C 0.42096 0.07357 0.19664 0.0
C829 C 0.46308 0.09257 0.1921 0.0
C830 C 0.3977 0.05648 0.15642 0.0
C831 C 0.35475 0.0449 0.18713 0.0
N832 N 0.44156 0.08108 0.18162 0.0
N833 N 0.37649 0.05545 0.1982 0.0
H834 H 0.03421 0.88854 0.74048 0.0
H835 H 0.1088 0.97989 0.63489 0.0
H836 H 0.99719 0.92882 0.67498 0.0
H837 H 0.1464 0.94431 0.7026 0.0
H838 H 0.06757 0.96232 0.6504 0.0
H839 H 0.07526 0.90952 0.72796 0.0
C840 C 0.03468 0.90185 0.72352 0.0
C841 C 0.01222 0.90683 0.70869 0.0
C842 C 0.08478 0.95843 0.66198 0.0
C843 C 0.05913 0.93087 0.69426 0.0
C844 C 0.10838 0.96847 0.65312 0.0
C845 C 0.13115 0.96346 0.6674 0.0
C846 C 0.08382 0.94307 0.68526 0.0
C847 C 0.12934 0.94863 0.69096 0.0
C848 C 0.05812 0.91383 0.71641 0.0
C849 C 0.01399 0.9243 0.68696 0.0
N850 N 0.10609 0.9388 0.69908 0.0
N851 N 0.03702 0.93558 0.68037 0.0
H852 H 0.96748 0.3958 0.75969 0.0
H853 H 0.88941 0.48196 0.86685 0.0
H854 H 0.00294 0.43627 0.82601 0.0
H855 H 0.85308 0.44475 0.79922 0.0
H856 H 0.93135 0.46683 0.85085 0.0
H857 H 0.92569 0.41483 0.77254 0.0
C858 C 0.96652 0.40877 0.77688 0.0
C859 C 0.98876 0.41434 0.79187 0.0
C860 C 0.91426 0.46204 0.8394 0.0
C861 C 0.94097 0.43613 0.8067 0.0
C862 C 0.89025 0.47069 0.84854 0.0
C863 C 0.86764 0.46449 0.83443 0.0
C864 C 0.91579 0.44693 0.81599 0.0
C865 C 0.87 0.44994 0.81076 0.0
C866 C 0.94264 0.41963 0.78419 0.0
C867 C 0.98633 0.43133 0.8139 0.0
N868 N 0.89364 0.4415 0.80235 0.0
N869 N 0.96288 0.44151 0.82069 0.0
H870 H 0.50624 0.59138 0.31481 0.0
H871 H 0.65442 0.55286 0.28883 0.0
H872 H 0.54341 0.59995 0.23896 0.0
H873 H 0.61605 0.54317 0.36392 0.0
H874 H 0.61385 0.5692 0.2698 0.0
H875 H 0.54619 0.57273 0.33273 0.0
C876 C 0.52279 0.58929 0.30188 0.0
C877 C 0.52146 0.59732 0.27533 0.0
C878 C 0.61431 0.56343 0.29042 0.0
C879 C 0.5674 0.57597 0.2958 0.0
C880 C 0.63747 0.55409 0.3013 0.0
C881 C 0.63867 0.54669 0.32804 0.0
C882 C 0.59219 0.56542 0.30639 0.0
C883 C 0.61607 0.54868 0.34323 0.0
C884 C 0.54563 0.57862 0.31214 0.0
C885 C 0.54355 0.59406 0.25954 0.0
N886 N 0.59381 0.55791 0.33221 0.0
N887 N 0.56563 0.5837 0.27004 0.0
H888 H 0.17515 0.328 0.02979 0.0
H889 H 0.20779 0.41351 0.15989 0.0
H890 H 0.17474 0.2946 0.10853 0.0
H891 H 0.20496 0.4477 0.08152 0.0
H892 H 0.1987 0.3691 0.14109 0.0
H893 H 0.18941 0.37118 0.048 0.0
C894 C 0.17825 0.32966 0.05088 0.0
C895 C 0.17357 0.30767 0.06767 0.0
C896 C 0.20016 0.38629 0.12799 0.0
C897 C 0.18976 0.35714 0.08868 0.0
C898 C 0.20534 0.41168 0.13872 0.0
C899 C 0.20701 0.43441 0.12228 0.0
C900 C 0.19661 0.38356 0.10061 0.0
C901 C 0.20374 0.43077 0.09497 0.0
C902 C 0.18634 0.35437 0.06128 0.0
C903 C 0.17798 0.31103 0.09484 0.0
N904 N 0.19861 0.40586 0.08501 0.0
N905 N 0.18568 0.33532 0.1045 0.0
H906 H 0.71495 0.08244 0.83859 0.0
H907 H 0.68271 0.16981 0.96748 0.0
H908 H 0.70872 0.04879 0.91697 0.0
H909 H 0.68868 0.20366 0.88916 0.0
H910 H 0.69451 0.12573 0.94963 0.0
H911 H 0.70747 0.12735 0.857 0.0
C912 C 0.71209 0.08448 0.85968 0.0
C913 C 0.71235 0.06177 0.87624 0.0
C914 C 0.69336 0.14282 0.93636 0.0
C915 C 0.70375 0.11316 0.89746 0.0
C916 C 0.68665 0.16803 0.94654 0.0
C917 C 0.68458 0.19047 0.92977 0.0
C918 C 0.69799 0.13996 0.90917 0.0
C919 C 0.68997 0.18692 0.90282 0.0
C920 C 0.70782 0.11015 0.87019 0.0
C921 C 0.7086 0.06569 0.90343 0.0
N922 N 0.69631 0.16212 0.89334 0.0
N923 N 0.70437 0.09086 0.91316 0.0
H924 H 0.77771 0.92763 0.36321 0.0
H925 H 0.8265 0.83087 0.47972 0.0
H926 H 0.80146 0.95634 0.44002 0.0
H927 H 0.81185 0.80338 0.40017 0.0
H928 H 0.81353 0.87632 0.46664 0.0
H929 H 0.78624 0.8814 0.37758 0.0
C930 C 0.78458 0.92423 0.38315 0.0
C931 C 0.78901 0.94594 0.4004 0.0
C932 C 0.81307 0.86034 0.45206 0.0
C933 C 0.79884 0.89302 0.41695 0.0
C934 C 0.82043 0.83434 0.45952 0.0
C935 C 0.82039 0.81328 0.44097 0.0
C936 C 0.80553 0.86536 0.42586 0.0
C937 C 0.81229 0.81901 0.4151 0.0
C938 C 0.7895 0.89781 0.39132 0.0
C939 C 0.79789 0.94026 0.42601 0.0
N940 N 0.80525 0.84452 0.4083 0.0
N941 N 0.80257 0.91438 0.43347 0.0
H942 H 0.2949 0.54631 0.58162 0.0
H943 H 0.3185 0.703 0.61162 0.0
H944 H 0.29439 0.58062 0.66002 0.0
H945 H 0.31768 0.66906 0.53307 0.0
H946 H 0.30767 0.65869 0.62953 0.0
H947 H 0.30152 0.59138 0.56333 0.0
C948 C 0.29613 0.56332 0.595 0.0
C949 C 0.29419 0.55964 0.62242 0.0
C950 C 0.30973 0.66094 0.60836 0.0
C951 C 0.30178 0.61135 0.60158 0.0
C952 C 0.31589 0.68627 0.5981 0.0
C953 C 0.31915 0.68974 0.5708 0.0
C954 C 0.30686 0.63885 0.59122 0.0
C955 C 0.31544 0.66732 0.55426 0.0
C956 C 0.29988 0.58907 0.58453 0.0
C957 C 0.29585 0.58246 0.63877 0.0
N958 N 0.30964 0.64281 0.56474 0.0
N959 N 0.29963 0.60731 0.6281 0.0
H960 H 0.82599 0.75475 0.58611 0.0
H961 H 0.94671 0.81597 0.66467 0.0
H962 H 0.90212 0.76352 0.55232 0.0
H963 H 0.87246 0.80058 0.70051 0.0
H964 H 0.93122 0.79514 0.62388 0.0
H965 H 0.84309 0.76969 0.62866 0.0
C966 C 0.84634 0.75964 0.58766 0.0
C967 C 0.8626 0.75803 0.56554 0.0
C968 C 0.91836 0.79616 0.64071 0.0
C969 C 0.8823 0.77533 0.61423 0.0
C970 C 0.92719 0.80807 0.66403 0.0
C971 C 0.91081 0.81017 0.68603 0.0
C972 C 0.8929 0.78639 0.63928 0.0
C973 C 0.88574 0.79948 0.68404 0.0
C974 C 0.8561 0.76818 0.61199 0.0
C975 C 0.88884 0.76454 0.56879 0.0
N976 N 0.8775 0.78822 0.66103 0.0
N977 N 0.89782 0.77308 0.59262 0.0
H978 H 0.67596 0.23809 0.08089 0.0
H979 H 0.55077 0.17902 0.15314 0.0
H980 H 0.60072 0.2325 0.04428 0.0
H981 H 0.62405 0.19061 0.19244 0.0
H982 H 0.56854 0.19997 0.11356 0.0
H983 H 0.65717 0.22221 0.12236 0.0
C984 C 0.65547 0.23368 0.08159 0.0
C985 C 0.63993 0.2365 0.05901 0.0
C986 C 0.58073 0.19808 0.13086 0.0
C987 C 0.61832 0.2182 0.1064 0.0
C988 C 0.57059 0.18608 0.1535 0.0
C989 C 0.58599 0.18291 0.17612 0.0
C990 C 0.60654 0.20688 0.13072 0.0
C991 C 0.61149 0.19258 0.17544 0.0
C992 C 0.64475 0.22461 0.10529 0.0
C993 C 0.61347 0.23055 0.06114 0.0
N994 N 0.62103 0.20397 0.15304 0.0
N995 N 0.60356 0.22154 0.08435 0.0
H996 H 0.36284 0.68943 0.30456 0.0
H997 H 0.39649 0.73534 0.45233 0.0
H998 H 0.43773 0.67935 0.34097 0.0
H999 H 0.31934 0.73714 0.41972 0.0
H1000 H 0.4128 0.71959 0.40985 0.0
H1001 H 0.34749 0.71163 0.34478 0.0
C1002 C 0.37612 0.69206 0.32091 0.0
C1003 C 0.40156 0.68233 0.31945 0.0
C1004 C 0.39232 0.72355 0.41193 0.0
C1005 C 0.38411 0.70768 0.36552 0.0
C1006 C 0.38298 0.7326 0.43619 0.0
C1007 C 0.35645 0.73737 0.43968 0.0
C1008 C 0.37505 0.71923 0.39092 0.0
C1009 C 0.33991 0.73356 0.41799 0.0
C1010 C 0.36732 0.70468 0.34389 0.0
C1011 C 0.41791 0.68634 0.34126 0.0
N1012 N 0.34946 0.72458 0.39457 0.0
N1013 N 0.40887 0.6986 0.3634 0.0
H1014 H 0.089 0.27122 0.95105 0.0
H1015 H 0.12624 0.30477 0.80106 0.0
H1016 H 0.16471 0.25721 0.91793 0.0
H1017 H 0.05313 0.32583 0.83658 0.0
H1018 H 0.13934 0.28344 0.84249 0.0
H1019 H 0.07423 0.28741 0.90805 0.0
C1020 C 0.10249 0.27139 0.93471 0.0
C1021 C 0.12819 0.26299 0.93817 0.0
C1022 C 0.12039 0.29263 0.84118 0.0
C1023 C 0.11139 0.28159 0.88884 0.0
C1024 C 0.11287 0.30477 0.8175 0.0
C1025 C 0.08859 0.31725 0.81536 0.0
C1026 C 0.1035 0.2929 0.8629 0.0
C1027 C 0.07207 0.31658 0.83735 0.0
C1028 C 0.09405 0.28069 0.91015 0.0
C1029 C 0.14476 0.26361 0.91623 0.0
N1030 N 0.07987 0.30471 0.8602 0.0
N1031 N 0.13611 0.27285 0.89254 0.0
H1032 H 0.67249 0.89494 0.81176 0.0
H1033 H 0.52262 0.93078 0.79215 0.0
H1034 H 0.63883 0.97132 0.83414 0.0
H1035 H 0.55659 0.85416 0.77111 0.0
H1036 H 0.56534 0.94691 0.80566 0.0
H1037 H 0.63051 0.88056 0.79475 0.0
C1038 C 0.6563 0.90875 0.81301 0.0
C1039 C 0.65919 0.93434 0.82451 0.0
C1040 C 0.56345 0.9266 0.798 0.0
C1041 C 0.61097 0.91796 0.8051 0.0
C1042 C 0.53906 0.91738 0.79027 0.0
C1043 C 0.53598 0.89103 0.78058 0.0
C1044 C 0.58493 0.90934 0.79605 0.0
C1045 C 0.55799 0.87459 0.77854 0.0
C1046 C 0.63231 0.90051 0.8033 0.0
C1047 C 0.63751 0.95138 0.82551 0.0
N1048 N 0.58148 0.88398 0.78628 0.0
N1049 N 0.6143 0.94284 0.81603 0.0
H1050 H 0.85514 0.04762 0.349 0.0
H1051 H 0.95341 0.07182 0.22928 0.0
H1052 H 0.83905 0.02349 0.26869 0.0
H1053 H 0.97077 0.09088 0.31061 0.0
H1054 H 0.91153 0.05387 0.24315 0.0
H1055 H 0.89762 0.06349 0.33511 0.0
C1056 C 0.86054 0.04561 0.32842 0.0
C1057 C 0.84346 0.03422 0.30996 0.0
C1058 C 0.92454 0.06192 0.25796 0.0
C1059 C 0.89218 0.05246 0.2939 0.0
C1060 C 0.94846 0.07218 0.25006 0.0
C1061 C 0.96562 0.08294 0.26881 0.0
C1062 C 0.91769 0.06249 0.28479 0.0
C1063 C 0.95816 0.08283 0.29546 0.0
C1064 C 0.88485 0.05467 0.32051 0.0
C1065 C 0.85158 0.03214 0.28359 0.0
N1066 N 0.93474 0.07284 0.30262 0.0
N1067 N 0.87534 0.04123 0.27633 0.0
H1068 H 0.13828 0.52966 0.16609 0.0
H1069 H 0.06354 0.65775 0.225 0.0
H1070 H 0.17496 0.60627 0.18185 0.0
H1071 H 0.02811 0.57969 0.21368 0.0
H1072 H 0.10464 0.63914 0.20976 0.0
H1073 H 0.09788 0.5475 0.18392 0.0
C1074 C 0.13787 0.55022 0.17335 0.0
C1075 C 0.16005 0.56651 0.1724 0.0
C1076 C 0.0879 0.62605 0.21069 0.0
C1077 C 0.11378 0.5871 0.19281 0.0
C1078 C 0.0644 0.63667 0.21939 0.0
C1079 C 0.0423 0.62028 0.22056 0.0
C1080 C 0.08934 0.59885 0.203 0.0
C1081 C 0.04462 0.5931 0.21307 0.0
C1082 C 0.11478 0.56039 0.18355 0.0
C1083 C 0.15835 0.59298 0.18216 0.0
N1084 N 0.06768 0.58327 0.20453 0.0
N1085 N 0.13561 0.60247 0.19187 0.0
H1086 H 0.36651 0.46794 0.66577 0.0
H1087 H 0.44532 0.34342 0.72644 0.0
H1088 H 0.33189 0.39146 0.68618 0.0
H1089 H 0.4804 0.41987 0.70678 0.0
H1090 H 0.40329 0.36152 0.71364 0.0
H1091 H 0.40798 0.45156 0.68252 0.0
C1092 C 0.36758 0.44774 0.67388 0.0
C1093 C 0.34568 0.43101 0.67446 0.0
C1094 C 0.42014 0.3744 0.71221 0.0
C1095 C 0.39316 0.41211 0.69361 0.0
C1096 C 0.44419 0.36407 0.71952 0.0
C1097 C 0.46647 0.3801 0.71757 0.0
C1098 C 0.41828 0.40098 0.70277 0.0
C1099 C 0.46376 0.40675 0.70855 0.0
C1100 C 0.39129 0.4384 0.68343 0.0
C1101 C 0.34825 0.40505 0.68525 0.0
N1102 N 0.44012 0.41631 0.70137 0.0
N1103 N 0.37156 0.39638 0.69429 0.0
H1104 H 0.82669 0.69178 0.89664 0.0
H1105 H 0.74906 0.55486 0.91767 0.0
H1106 H 0.79798 0.66873 0.97339 0.0
H1107 H 0.81163 0.56242 0.86185 0.0
H1108 H 0.75903 0.60033 0.9343 0.0
H1109 H 0.81298 0.64797 0.87923 0.0
C1110 C 0.81723 0.67762 0.90975 0.0
C1111 C 0.81356 0.68379 0.93652 0.0
C1112 C 0.77047 0.59195 0.91838 0.0
C1113 C 0.79772 0.63387 0.91668 0.0
C1114 C 0.76476 0.56614 0.90883 0.0
C1115 C 0.77964 0.55489 0.88846 0.0
C1116 C 0.79075 0.60671 0.90698 0.0
C1117 C 0.79982 0.57029 0.87773 0.0
C1118 C 0.80957 0.65262 0.89984 0.0
C1119 C 0.80131 0.66464 0.95267 0.0
N1120 N 0.80469 0.59549 0.887 0.0
N1121 N 0.79373 0.6405 0.94247 0.0
H1122 H 0.33482 0.82772 0.01474 0.0
H1123 H 0.2859 0.92448 0.13096 0.0
H1124 H 0.31561 0.79965 0.09302 0.0
H1125 H 0.30466 0.95271 0.05262 0.0
H1126 H 0.29486 0.87838 0.1168 0.0
H1127 H 0.32186 0.87324 0.02757 0.0
C1128 C 0.32774 0.83108 0.03459 0.0
C1129 C 0.32642 0.80983 0.05288 0.0
C1130 C 0.29694 0.89462 0.10266 0.0
C1131 C 0.31164 0.862 0.06773 0.0
C1132 C 0.29184 0.921 0.11074 0.0
C1133 C 0.29463 0.94256 0.09298 0.0
C1134 C 0.30497 0.88968 0.07662 0.0
C1135 C 0.30232 0.93675 0.06701 0.0
C1136 C 0.32036 0.85712 0.04191 0.0
C1137 C 0.31702 0.81541 0.07829 0.0
N1138 N 0.3073 0.91088 0.05964 0.0
N1139 N 0.31011 0.84097 0.08499 0.0
H1140 H 0.24814 0.05837 0.58513 0.0
H1141 H 0.16803 0.19372 0.60419 0.0
H1142 H 0.18311 0.06396 0.63818 0.0
H1143 H 0.19872 0.17145 0.52801 0.0
H1144 H 0.18135 0.14974 0.62153 0.0
H1145 H 0.23761 0.10353 0.56811 0.0
C1146 C 0.23175 0.06915 0.59325 0.0
C1147 C 0.21639 0.05745 0.613 0.0
C1148 C 0.18525 0.15459 0.60106 0.0
C1149 C 0.20466 0.10894 0.59408 0.0
C1150 C 0.17782 0.17969 0.59119 0.0
C1151 C 0.18221 0.18613 0.5646 0.0
C1152 C 0.19762 0.13606 0.58437 0.0
C1153 C 0.19484 0.16714 0.54859 0.0
C1154 C 0.22574 0.09477 0.58349 0.0
C1155 C 0.19533 0.07219 0.62281 0.0
N1156 N 0.20224 0.14293 0.55875 0.0
N1157 N 0.1902 0.09727 0.61339 0.0
H1158 H 0.66927 0.31143 0.38205 0.0
H1159 H 0.73496 0.45055 0.42559 0.0
H1160 H 0.68343 0.33218 0.4636 0.0
H1161 H 0.69554 0.43949 0.35118 0.0
H1162 H 0.72238 0.40467 0.43838 0.0
H1163 H 0.68535 0.35584 0.36889 0.0
C1164 C 0.67595 0.32524 0.39718 0.0
C1165 C 0.67488 0.31814 0.42398 0.0
C1166 C 0.71655 0.41234 0.41925 0.0
C1167 C 0.69336 0.36893 0.40903 0.0
C1168 C 0.72377 0.43845 0.4119 0.0
C1169 C 0.71619 0.44889 0.38733 0.0
C1170 C 0.70197 0.39645 0.40173 0.0
C1171 C 0.70167 0.43233 0.37039 0.0
C1172 C 0.685 0.35062 0.38965 0.0
C1173 C 0.68375 0.33689 0.44273 0.0
N1174 N 0.6951 0.40692 0.37787 0.0
N1175 N 0.69265 0.36143 0.4349 0.0
loop_
_geom_bond_atom_site_label_1
_geom_bond_atom_site_label_2
_geom_bond_distance
_geom_bond_site_symmetry_2
_ccdc_geom_bond_type
C0 O1 1.160 . S
C0 O7 1.185 . S
O1 C0 1.160 . S
O2 Zn3 1.899 . S
O2 C10 1.284 . S
Zn3 O2 1.899 . S
Zn3 O4 2.032 . S
Zn3 O7 2.086 . S
Zn3 O12 1.977 . S
O4 Zn3 2.032 . S
O4 C8 1.278 . S
C5 O6 1.203 . S
C5 O12 1.267 . S
O6 C5 1.203 . S
O7 C0 1.185 . S
O7 Zn3 2.086 . S
C8 O4 1.278 . S
C8 O9 1.211 . S
O9 C8 1.211 . S
C10 O2 1.284 . S
C10 O11 1.273 . S
O11 C10 1.273 . S
O12 Zn3 1.977 . S
O12 C5 1.267 . S
C13 O14 1.160 . S
C13 O20 1.185 . S
O14 C13 1.160 . S
O15 Zn16 1.899 . S
O15 C23 1.284 . S
Zn16 O15 1.899 . S
Zn16 O17 2.032 . S
Zn16 O20 2.086 . S
Zn16 O25 1.977 . S
O17 Zn16 2.032 . S
O17 C21 1.278 . S
C18 O19 1.203 . S
C18 O25 1.267 . S
O19 C18 1.203 . S
O20 C13 1.185 . S
O20 Zn16 2.086 . S
C21 O17 1.278 . S
C21 O22 1.211 . S
O22 C21 1.211 . S
C23 O15 1.284 . S
C23 O24 1.273 . S
O24 C23 1.273 . S
O25 Zn16 1.977 . S
O25 C18 1.267 . S
C26 O27 1.160 . S
C26 O33 1.185 . S
O27 C26 1.160 . S
O28 Zn29 1.899 . S
O28 C36 1.284 . S
Zn29 O28 1.899 . S
Zn29 O30 2.032 . S
Zn29 O33 2.086 . S
Zn29 O38 1.977 . S
O30 Zn29 2.032 . S
O30 C34 1.278 . S
C31 O32 1.203 . S
C31 O38 1.267 . S
O32 C31 1.203 . S
O33 C26 1.185 . S
O33 Zn29 2.086 . S
C34 O30 1.278 . S
C34 O35 1.211 . S
O35 C34 1.211 . S
C36 O28 1.284 . S
C36 O37 1.273 . S
O37 C36 1.273 . S
O38 Zn29 1.977 . S
O38 C31 1.267 . S
C39 O40 1.160 . S
C39 O46 1.185 . S
O40 C39 1.160 . S
O41 Zn42 1.899 . S
O41 C49 1.284 . S
Zn42 O41 1.899 . S
Zn42 O43 2.032 . S
Zn42 O46 2.086 . S
Zn42 O51 1.977 . S
O43 Zn42 2.032 . S
O43 C47 1.278 . S
C44 O45 1.203 . S
C44 O51 1.267 . S
O45 C44 1.203 . S
O46 C39 1.185 . S
O46 Zn42 2.086 . S
C47 O43 1.278 . S
C47 O48 1.211 . S
O48 C47 1.211 . S
C49 O41 1.284 . S
C49 O50 1.273 . S
O50 C49 1.273 . S
O51 Zn42 1.977 . S
O51 C44 1.267 . S
C52 O53 1.160 . S
C52 O59 1.185 . S
O53 C52 1.160 . S
O54 Zn55 1.899 . S
O54 C62 1.284 . S
Zn55 O54 1.899 . S
Zn55 O56 2.032 . S
Zn55 O59 2.086 . S
Zn55 O64 1.977 . S
O56 Zn55 2.032 . S
O56 C60 1.278 . S
C57 O58 1.203 . S
C57 O64 1.267 . S
O58 C57 1.203 . S
O59 C52 1.185 . S
O59 Zn55 2.086 . S
C60 O56 1.278 . S
C60 O61 1.211 . S
O61 C60 1.211 . S
C62 O54 1.284 . S
C62 O63 1.273 . S
O63 C62 1.273 . S
O64 Zn55 1.977 . S
O64 C57 1.267 . S
C65 O66 1.160 . S
C65 O72 1.185 . S
O66 C65 1.160 . S
O67 Zn68 1.899 . S
O67 C75 1.284 . S
Zn68 O67 1.899 . S
Zn68 O69 2.032 . S
Zn68 O72 2.086 . S
Zn68 O77 1.977 . S
O69 Zn68 2.032 . S
O69 C73 1.278 . S
C70 O71 1.203 . S
C70 O77 1.267 . S
O71 C70 1.203 . S
O72 C65 1.185 . S
O72 Zn68 2.086 . S
C73 O69 1.278 . S
C73 O74 1.211 . S
O74 C73 1.211 . S
C75 O67 1.284 . S
C75 O76 1.273 . S
O76 C75 1.273 . S
O77 Zn68 1.977 . S
O77 C70 1.267 . S
C78 O79 1.160 . S
C78 O85 1.185 . S
O79 C78 1.160 . S
O80 Zn81 1.899 . S
O80 C88 1.284 . S
Zn81 O80 1.899 . S
Zn81 O82 2.032 . S
Zn81 O85 2.086 . S
Zn81 O90 1.977 . S
O82 Zn81 2.032 . S
O82 C86 1.278 . S
C83 O84 1.203 . S
C83 O90 1.267 . S
O84 C83 1.203 . S
O85 C78 1.185 . S
O85 Zn81 2.086 . S
C86 O82 1.278 . S
C86 O87 1.211 . S
O87 C86 1.211 . S
C88 O80 1.284 . S
C88 O89 1.273 . S
O89 C88 1.273 . S
O90 Zn81 1.977 . S
O90 C83 1.267 . S
C91 O92 1.160 . S
C91 O98 1.185 . S
O92 C91 1.160 . S
O93 Zn94 1.899 . S
O93 C101 1.284 . S
Zn94 O93 1.899 . S
Zn94 O95 2.032 . S
Zn94 O98 2.086 . S
Zn94 O103 1.977 . S
O95 Zn94 2.032 . S
O95 C99 1.278 . S
C96 O97 1.203 . S
C96 O103 1.267 . S
O97 C96 1.203 . S
O98 C91 1.185 . S
O98 Zn94 2.086 . S
C99 O95 1.278 . S
C99 O100 1.211 . S
O100 C99 1.211 . S
C101 O93 1.284 . S
C101 O102 1.273 . S
O102 C101 1.273 . S
O103 Zn94 1.977 . S
O103 C96 1.267 . S
C104 O105 1.160 . S
C104 O111 1.185 . S
O105 C104 1.160 . S
O106 Zn107 1.899 . S
O106 C114 1.284 . S
Zn107 O106 1.899 . S
Zn107 O108 2.032 . S
Zn107 O111 2.086 . S
Zn107 O116 1.977 . S
O108 Zn107 2.032 . S
O108 C112 1.278 . S
C109 O110 1.203 . S
C109 O116 1.267 . S
O110 C109 1.203 . S
O111 C104 1.185 . S
O111 Zn107 2.086 . S
C112 O108 1.278 . S
C112 O113 1.211 . S
O113 C112 1.211 . S
C114 O106 1.284 . S
C114 O115 1.273 . S
O115 C114 1.273 . S
O116 Zn107 1.977 . S
O116 C109 1.267 . S
C117 O118 1.160 . S
C117 O124 1.185 . S
O118 C117 1.160 . S
O119 Zn120 1.899 . S
O119 C127 1.284 . S
Zn120 O119 1.899 . S
Zn120 O121 2.032 . S
Zn120 O124 2.086 . S
Zn120 O129 1.977 . S
O121 Zn120 2.032 . S
O121 C125 1.278 . S
C122 O123 1.203 . S
C122 O129 1.267 . S
O123 C122 1.203 . S
O124 C117 1.185 . S
O124 Zn120 2.086 . S
C125 O121 1.278 . S
C125 O126 1.211 . S
O126 C125 1.211 . S
C127 O119 1.284 . S
C127 O128 1.273 . S
O128 C127 1.273 . S
O129 Zn120 1.977 . S
O129 C122 1.267 . S
C130 O131 1.160 . S
C130 O137 1.185 . S
O131 C130 1.160 . S
O132 Zn133 1.899 . S
O132 C140 1.284 . S
Zn133 O132 1.899 . S
Zn133 O134 2.032 . S
Zn133 O137 2.086 . S
Zn133 O142 1.977 . S
O134 Zn133 2.032 . S
O134 C138 1.278 . S
C135 O136 1.203 . S
C135 O142 1.267 . S
O136 C135 1.203 . S
O137 C130 1.185 . S
O137 Zn133 2.086 . S
C138 O134 1.278 . S
C138 O139 1.211 . S
O139 C138 1.211 . S
C140 O132 1.284 . S
C140 O141 1.273 . S
O141 C140 1.273 . S
O142 Zn133 1.977 . S
O142 C135 1.267 . S
C143 O144 1.160 . S
C143 O150 1.185 . S
O144 C143 1.160 . S
O145 Zn146 1.899 . S
O145 C153 1.284 . S
Zn146 O145 1.899 . S
Zn146 O147 2.032 . S
Zn146 O150 2.086 . S
Zn146 O155 1.977 . S
O147 Zn146 2.032 . S
O147 C151 1.278 . S
C148 O149 1.203 . S
C148 O155 1.267 . S
O149 C148 1.203 . S
O150 C143 1.185 . S
O150 Zn146 2.086 . S
C151 O147 1.278 . S
C151 O152 1.211 . S
O152 C151 1.211 . S
C153 O145 1.284 . S
C153 O154 1.273 . S
O154 C153 1.273 . S
O155 Zn146 1.977 . S
O155 C148 1.267 . S
C156 O157 1.160 . S
C156 O163 1.185 . S
O157 C156 1.160 . S
O158 Zn159 1.899 . S
O158 C166 1.284 . S
Zn159 O158 1.899 . S
Zn159 O160 2.032 . S
Zn159 O163 2.086 . S
Zn159 O168 1.977 . S
O160 Zn159 2.032 . S
O160 C164 1.278 . S
C161 O162 1.203 . S
C161 O168 1.267 . S
O162 C161 1.203 . S
O163 C156 1.185 . S
O163 Zn159 2.086 . S
C164 O160 1.278 . S
C164 O165 1.211 . S
O165 C164 1.211 . S
C166 O158 1.284 . S
C166 O167 1.273 . S
O167 C166 1.273 . S
O168 Zn159 1.977 . S
O168 C161 1.267 . S
C169 O170 1.160 . S
C169 O176 1.185 . S
O170 C169 1.160 . S
O171 Zn172 1.899 . S
O171 C179 1.284 . S
Zn172 O171 1.899 . S
Zn172 O173 2.032 . S
Zn172 O176 2.086 . S
Zn172 O181 1.977 . S
O173 Zn172 2.032 . S
O173 C177 1.278 . S
C174 O175 1.203 . S
C174 O181 1.267 . S
O175 C174 1.203 . S
O176 C169 1.185 . S
O176 Zn172 2.086 . S
C177 O173 1.278 . S
C177 O178 1.211 . S
O178 C177 1.211 . S
C179 O171 1.284 . S
C179 O180 1.273 . S
O180 C179 1.273 . S
O181 Zn172 1.977 . S
O181 C174 1.267 . S
C182 O183 1.160 . S
C182 O189 1.185 . S
O183 C182 1.160 . S
O184 Zn185 1.899 . S
O184 C192 1.284 . S
Zn185 O184 1.899 . S
Zn185 O186 2.032 . S
Zn185 O189 2.086 . S
Zn185 O194 1.977 . S
O186 Zn185 2.032 . S
O186 C190 1.278 . S
C187 O188 1.203 . S
C187 O194 1.267 . S
O188 C187 1.203 . S
O189 C182 1.185 . S
O189 Zn185 2.086 . S
C190 O186 1.278 . S
C190 O191 1.211 . S
O191 C190 1.211 . S
C192 O184 1.284 . S
C192 O193 1.273 . S
O193 C192 1.273 . S
O194 Zn185 1.977 . S
O194 C187 1.267 . S
C195 O196 1.160 . S
C195 O202 1.185 . S
O196 C195 1.160 . S
O197 Zn198 1.899 . S
O197 C205 1.284 . S
Zn198 O197 1.899 . S
Zn198 O199 2.032 . S
Zn198 O202 2.086 . S
Zn198 O207 1.977 . S
O199 Zn198 2.032 . S
O199 C203 1.278 . S
C200 O201 1.203 . S
C200 O207 1.267 . S
O201 C200 1.203 . S
O202 C195 1.185 . S
O202 Zn198 2.086 . S
C203 O199 1.278 . S
C203 O204 1.211 . S
O204 C203 1.211 . S
C205 O197 1.284 . S
C205 O206 1.273 . S
O206 C205 1.273 . S
O207 Zn198 1.977 . S
O207 C200 1.267 . S
C208 O209 1.160 . S
C208 O215 1.185 . S
O209 C208 1.160 . S
O210 Zn211 1.899 . S
O210 C218 1.284 . S
Zn211 O210 1.899 . S
Zn211 O212 2.032 . S
Zn211 O215 2.086 . S
Zn211 O220 1.977 . S
O212 Zn211 2.032 . S
O212 C216 1.278 . S
C213 O214 1.203 . S
C213 O220 1.267 . S
O214 C213 1.203 . S
O215 C208 1.185 . S
O215 Zn211 2.086 . S
C216 O212 1.278 . S
C216 O217 1.211 . S
O217 C216 1.211 . S
C218 O210 1.284 . S
C218 O219 1.273 . S
O219 C218 1.273 . S
O220 Zn211 1.977 . S
O220 C213 1.267 . S
C221 O222 1.160 . S
C221 O228 1.185 . S
O222 C221 1.160 . S
O223 Zn224 1.899 . S
O223 C231 1.284 . S
Zn224 O223 1.899 . S
Zn224 O225 2.032 . S
Zn224 O228 2.086 . S
Zn224 O233 1.977 . S
O225 Zn224 2.032 . S
O225 C229 1.278 . S
C226 O227 1.203 . S
C226 O233 1.267 . S
O227 C226 1.203 . S
O228 C221 1.185 . S
O228 Zn224 2.086 . S
C229 O225 1.278 . S
C229 O230 1.211 . S
O230 C229 1.211 . S
C231 O223 1.284 . S
C231 O232 1.273 . S
O232 C231 1.273 . S
O233 Zn224 1.977 . S
O233 C226 1.267 . S
C234 O235 1.160 . S
C234 O241 1.185 . S
O235 C234 1.160 . S
O236 Zn237 1.899 . S
O236 C244 1.284 . S
Zn237 O236 1.899 . S
Zn237 O238 2.032 . S
Zn237 O241 2.086 . S
Zn237 O246 1.977 . S
O238 Zn237 2.032 . S
O238 C242 1.278 . S
C239 O240 1.203 . S
C239 O246 1.267 . S
O240 C239 1.203 . S
O241 C234 1.185 . S
O241 Zn237 2.086 . S
C242 O238 1.278 . S
C242 O243 1.211 . S
O243 C242 1.211 . S
C244 O236 1.284 . S
C244 O245 1.273 . S
O245 C244 1.273 . S
O246 Zn237 1.977 . S
O246 C239 1.267 . S
C247 O248 1.160 . S
C247 O254 1.185 . S
O248 C247 1.160 . S
O249 Zn250 1.899 . S
O249 C257 1.284 . S
Zn250 O249 1.899 . S
Zn250 O251 2.032 . S
Zn250 O254 2.086 . S
Zn250 O259 1.977 . S
O251 Zn250 2.032 . S
O251 C255 1.278 . S
C252 O253 1.203 . S
C252 O259 1.267 . S
O253 C252 1.203 . S
O254 C247 1.185 . S
O254 Zn250 2.086 . S
C255 O251 1.278 . S
C255 O256 1.211 . S
O256 C255 1.211 . S
C257 O249 1.284 . S
C257 O258 1.273 . S
O258 C257 1.273 . S
O259 Zn250 1.977 . S
O259 C252 1.267 . S
C260 O261 1.160 . S
C260 O267 1.185 . S
O261 C260 1.160 . S
O262 Zn263 1.899 . S
O262 C270 1.284 . S
Zn263 O262 1.899 . S
Zn263 O264 2.032 . S
Zn263 O267 2.086 . S
Zn263 O272 1.977 . S
O264 Zn263 2.032 . S
O264 C268 1.278 . S
C265 O266 1.203 . S
C265 O272 1.267 . S
O266 C265 1.203 . S
O267 C260 1.185 . S
O267 Zn263 2.086 . S
C268 O264 1.278 . S
C268 O269 1.211 . S
O269 C268 1.211 . S
C270 O262 1.284 . S
C270 O271 1.273 . S
O271 C270 1.273 . S
O272 Zn263 1.977 . S
O272 C265 1.267 . S
C273 O274 1.160 . S
C273 O280 1.185 . S
O274 C273 1.160 . S
O275 Zn276 1.899 . S
O275 C283 1.284 . S
Zn276 O275 1.899 . S
Zn276 O277 2.032 . S
Zn276 O280 2.086 . S
Zn276 O285 1.977 . S
O277 Zn276 2.032 . S
O277 C281 1.278 . S
C278 O279 1.203 . S
C278 O285 1.267 . S
O279 C278 1.203 . S
O280 C273 1.185 . S
O280 Zn276 2.086 . S
C281 O277 1.278 . S
C281 O282 1.211 . S
O282 C281 1.211 . S
C283 O275 1.284 . S
C283 O284 1.273 . S
O284 C283 1.273 . S
O285 Zn276 1.977 . S
O285 C278 1.267 . S
C286 O287 1.160 . S
C286 O293 1.185 . S
O287 C286 1.160 . S
O288 Zn289 1.899 . S
O288 C296 1.284 . S
Zn289 O288 1.899 . S
Zn289 O290 2.032 . S
Zn289 O293 2.086 . S
Zn289 O298 1.977 . S
O290 Zn289 2.032 . S
O290 C294 1.278 . S
C291 O292 1.203 . S
C291 O298 1.267 . S
O292 C291 1.203 . S
O293 C286 1.185 . S
O293 Zn289 2.086 . S
C294 O290 1.278 . S
C294 O295 1.211 . S
O295 C294 1.211 . S
C296 O288 1.284 . S
C296 O297 1.273 . S
O297 C296 1.273 . S
O298 Zn289 1.977 . S
O298 C291 1.267 . S
C299 O300 1.160 . S
C299 O306 1.185 . S
O300 C299 1.160 . S
O301 Zn302 1.899 . S
O301 C309 1.284 . S
Zn302 O301 1.899 . S
Zn302 O303 2.032 . S
Zn302 O306 2.086 . S
Zn302 O311 1.977 . S
O303 Zn302 2.032 . S
O303 C307 1.278 . S
C304 O305 1.203 . S
C304 O311 1.267 . S
O305 C304 1.203 . S
O306 C299 1.185 . S
O306 Zn302 2.086 . S
C307 O303 1.278 . S
C307 O308 1.211 . S
O308 C307 1.211 . S
C309 O301 1.284 . S
C309 O310 1.273 . S
O310 C309 1.273 . S
O311 Zn302 1.977 . S
O311 C304 1.267 . S
H312 C318 0.930 . S
H313 C322 0.930 . S
H314 C327 0.929 . S
H315 C325 0.929 . S
H316 C320 0.929 . S
H317 C326 0.929 . S
C318 H312 0.930 . S
C318 C319 1.367 . S
C318 C326 1.378 . S
C319 C318 1.367 . S
C319 C327 1.433 . S
C320 H316 0.929 . S
C320 C322 1.378 . S
C320 C324 1.350 . S
C321 C324 1.463 . S
C321 C326 1.350 . S
C321 N329 1.427 . S
C322 H313 0.930 . S
C322 C320 1.378 . S
C322 C323 1.367 . S
C323 C322 1.367 . S
C323 C325 1.433 . S
C324 C320 1.350 . S
C324 C321 1.463 . S
C324 N328 1.427 . S
C325 H315 0.929 . S
C325 C323 1.433 . S
C325 N328 1.384 . S
C326 H317 0.929 . S
C326 C318 1.378 . S
C326 C321 1.350 . S
C327 H314 0.929 . S
C327 C319 1.433 . S
C327 N329 1.384 . S
N328 C324 1.427 . S
N328 C325 1.384 . S
N329 C321 1.427 . S
N329 C327 1.384 . S
H330 C336 0.930 . S
H331 C340 0.930 . S
H332 C345 0.929 . S
H333 C343 0.929 . S
H334 C338 0.929 . S
H335 C344 0.929 . S
C336 H330 0.930 . S
C336 C337 1.367 . S
C336 C344 1.378 . S
C337 C336 1.367 . S
C337 C345 1.433 . S
C338 H334 0.929 . S
C338 C340 1.378 . S
C338 C342 1.350 . S
C339 C342 1.463 . S
C339 C344 1.350 . S
C339 N347 1.427 . S
C340 H331 0.930 . S
C340 C338 1.378 . S
C340 C341 1.367 . S
C341 C340 1.367 . S
C341 C343 1.433 . S
C342 C338 1.350 . S
C342 C339 1.463 . S
C342 N346 1.427 . S
C343 H333 0.929 . S
C343 C341 1.433 . S
C343 N346 1.384 . S
C344 H335 0.929 . S
C344 C336 1.378 . S
C344 C339 1.350 . S
C345 H332 0.929 . S
C345 C337 1.433 . S
C345 N347 1.384 . S
N346 C342 1.427 . S
N346 C343 1.384 . S
N347 C339 1.427 . S
N347 C345 1.384 . S
H348 C354 0.930 . S
H349 C358 0.930 . S
H350 C363 0.929 . S
H351 C361 0.929 . S
H352 C356 0.929 . S
H353 C362 0.929 . S
C354 H348 0.930 . S
C354 C355 1.367 . S
C354 C362 1.378 . S
C355 C354 1.367 . S
C355 C363 1.433 . S
C356 H352 0.929 . S
C356 C358 1.378 . S
C356 C360 1.350 . S
C357 C360 1.463 . S
C357 C362 1.350 . S
C357 N365 1.427 . S
C358 H349 0.930 . S
C358 C356 1.378 . S
C358 C359 1.367 . S
C359 C358 1.367 . S
C359 C361 1.433 . S
C360 C356 1.350 . S
C360 C357 1.463 . S
C360 N364 1.427 . S
C361 H351 0.929 . S
C361 C359 1.433 . S
C361 N364 1.384 . S
C362 H353 0.929 . S
C362 C354 1.378 . S
C362 C357 1.350 . S
C363 H350 0.929 . S
C363 C355 1.433 . S
C363 N365 1.384 . S
N364 C360 1.427 . S
N364 C361 1.384 . S
N365 C357 1.427 . S
N365 C363 1.384 . S
H366 C372 0.930 . S
H367 C376 0.930 . S
H368 C381 0.929 . S
H369 C379 0.929 . S
H370 C374 0.929 . S
H371 C380 0.929 . S
C372 H366 0.930 . S
C372 C373 1.367 . S
C372 C380 1.378 . S
C373 C372 1.367 . S
C373 C381 1.433 . S
C374 H370 0.929 . S
C374 C376 1.378 . S
C374 C378 1.350 . S
C375 C378 1.463 . S
C375 C380 1.350 . S
C375 N383 1.427 . S
C376 H367 0.930 . S
C376 C374 1.378 . S
C376 C377 1.367 . S
C377 C376 1.367 . S
C377 C379 1.433 . S
C378 C374 1.350 . S
C378 C375 1.463 . S
C378 N382 1.427 . S
C379 H369 0.929 . S
C379 C377 1.433 . S
C379 N382 1.384 . S
C380 H371 0.929 . S
C380 C372 1.378 . S
C380 C375 1.350 . S
C381 H368 0.929 . S
C381 C373 1.433 . S
C381 N383 1.384 . S
N382 C378 1.427 . S
N382 C379 1.384 . S
N383 C375 1.427 . S
N383 C381 1.384 . S
H384 C390 0.930 . S
H385 C394 0.930 . S
H386 C399 0.929 . S
H387 C397 0.929 . S
H388 C392 0.929 . S
H389 C398 0.929 . S
C390 H384 0.930 . S
C390 C391 1.367 . S
C390 C398 1.378 . S
C391 C390 1.367 . S
C391 C399 1.433 . S
C392 H388 0.929 . S
C392 C394 1.378 . S
C392 C396 1.350 . S
C393 C396 1.463 . S
C393 C398 1.350 . S
C393 N401 1.427 . S
C394 H385 0.930 . S
C394 C392 1.378 . S
C394 C395 1.367 . S
C395 C394 1.367 . S
C395 C397 1.433 . S
C396 C392 1.350 . S
C396 C393 1.463 . S
C396 N400 1.427 . S
C397 H387 0.929 . S
C397 C395 1.433 . S
C397 N400 1.384 . S
C398 H389 0.929 . S
C398 C390 1.378 . S
C398 C393 1.350 . S
C399 H386 0.929 . S
C399 C391 1.433 . S
C399 N401 1.384 . S
N400 C396 1.427 . S
N400 C397 1.384 . S
N401 C393 1.427 . S
N401 C399 1.384 . S
H402 C408 0.930 . S
H403 C412 0.930 . S
H404 C417 0.929 . S
H405 C415 0.929 . S
H406 C410 0.929 . S
H407 C416 0.929 . S
C408 H402 0.930 . S
C408 C409 1.367 . S
C408 C416 1.378 . S
C409 C408 1.367 . S
C409 C417 1.433 . S
C410 H406 0.929 . S
C410 C412 1.378 . S
C410 C414 1.350 . S
C411 C414 1.463 . S
C411 C416 1.350 . S
C411 N419 1.427 . S
C412 H403 0.930 . S
C412 C410 1.378 . S
C412 C413 1.367 . S
C413 C412 1.367 . S
C413 C415 1.433 . S
C414 C410 1.350 . S
C414 C411 1.463 . S
C414 N418 1.427 . S
C415 H405 0.929 . S
C415 C413 1.433 . S
C415 N418 1.384 . S
C416 H407 0.929 . S
C416 C408 1.378 . S
C416 C411 1.350 . S
C417 H404 0.929 . S
C417 C409 1.433 . S
C417 N419 1.384 . S
N418 C414 1.427 . S
N418 C415 1.384 . S
N419 C411 1.427 . S
N419 C417 1.384 . S
H420 C426 0.930 . S
H421 C430 0.930 . S
H422 C435 0.929 . S
H423 C433 0.929 . S
H424 C428 0.929 . S
H425 C434 0.929 . S
C426 H420 0.930 . S
C426 C427 1.367 . S
C426 C434 1.378 . S
C427 C426 1.367 . S
C427 C435 1.433 . S
C428 H424 0.929 . S
C428 C430 1.378 . S
C428 C432 1.350 . S
C429 C432 1.463 . S
C429 C434 1.350 . S
C429 N437 1.427 . S
C430 H421 0.930 . S
C430 C428 1.378 . S
C430 C431 1.367 . S
C431 C430 1.367 . S
C431 C433 1.433 . S
C432 C428 1.350 . S
C432 C429 1.463 . S
C432 N436 1.427 . S
C433 H423 0.929 . S
C433 C431 1.433 . S
C433 N436 1.384 . S
C434 H425 0.929 . S
C434 C426 1.378 . S
C434 C429 1.350 . S
C435 H422 0.929 . S
C435 C427 1.433 . S
C435 N437 1.384 . S
N436 C432 1.427 . S
N436 C433 1.384 . S
N437 C429 1.427 . S
N437 C435 1.384 . S
H438 C444 0.930 . S
H439 C448 0.930 . S
H440 C453 0.929 . S
H441 C451 0.929 . S
H442 C446 0.929 . S
H443 C452 0.929 . S
C444 H438 0.930 . S
C444 C445 1.367 . S
C444 C452 1.378 . S
C445 C444 1.367 . S
C445 C453 1.433 . S
C446 H442 0.929 . S
C446 C448 1.378 . S
C446 C450 1.350 . S
C447 C450 1.463 . S
C447 C452 1.350 . S
C447 N455 1.427 . S
C448 H439 0.930 . S
C448 C446 1.378 . S
C448 C449 1.367 . S
C449 C448 1.367 . S
C449 C451 1.433 . S
C450 C446 1.350 . S
C450 C447 1.463 . S
C450 N454 1.427 . S
C451 H441 0.929 . S
C451 C449 1.433 . S
C451 N454 1.384 . S
C452 H443 0.929 . S
C452 C444 1.378 . S
C452 C447 1.350 . S
C453 H440 0.929 . S
C453 C445 1.433 . S
C453 N455 1.384 . S
N454 C450 1.427 . S
N454 C451 1.384 . S
N455 C447 1.427 . S
N455 C453 1.384 . S
H456 C462 0.930 . S
H457 C466 0.930 . S
H458 C471 0.929 . S
H459 C469 0.929 . S
H460 C464 0.929 . S
H461 C470 0.929 . S
C462 H456 0.930 . S
C462 C463 1.367 . S
C462 C470 1.378 . S
C463 C462 1.367 . S
C463 C471 1.433 . S
C464 H460 0.929 . S
C464 C466 1.378 . S
C464 C468 1.350 . S
C465 C468 1.463 . S
C465 C470 1.350 . S
C465 N473 1.427 . S
C466 H457 0.930 . S
C466 C464 1.378 . S
C466 C467 1.367 . S
C467 C466 1.367 . S
C467 C469 1.433 . S
C468 C464 1.350 . S
C468 C465 1.463 . S
C468 N472 1.427 . S
C469 H459 0.929 . S
C469 C467 1.433 . S
C469 N472 1.384 . S
C470 H461 0.929 . S
C470 C462 1.378 . S
C470 C465 1.350 . S
C471 H458 0.929 . S
C471 C463 1.433 . S
C471 N473 1.384 . S
N472 C468 1.427 . S
N472 C469 1.384 . S
N473 C465 1.427 . S
N473 C471 1.384 . S
H474 C480 0.930 . S
H475 C484 0.930 . S
H476 C489 0.929 . S
H477 C487 0.929 . S
H478 C482 0.929 . S
H479 C488 0.929 . S
C480 H474 0.930 . S
C480 C481 1.367 . S
C480 C488 1.378 . S
C481 C480 1.367 . S
C481 C489 1.433 . S
C482 H478 0.929 . S
C482 C484 1.378 . S
C482 C486 1.350 . S
C483 C486 1.463 . S
C483 C488 1.350 . S
C483 N491 1.427 . S
C484 H475 0.930 . S
C484 C482 1.378 . S
C484 C485 1.367 . S
C485 C484 1.367 . S
C485 C487 1.433 . S
C486 C482 1.350 . S
C486 C483 1.463 . S
C486 N490 1.427 . S
C487 H477 0.929 . S
C487 C485 1.433 . S
C487 N490 1.384 . S
C488 H479 0.929 . S
C488 C480 1.378 . S
C488 C483 1.350 . S
C489 H476 0.929 . S
C489 C481 1.433 . S
C489 N491 1.384 . S
N490 C486 1.427 . S
N490 C487 1.384 . S
N491 C483 1.427 . S
N491 C489 1.384 . S
H492 C498 0.930 . S
H493 C502 0.930 . S
H494 C507 0.929 . S
H495 C505 0.929 . S
H496 C500 0.929 . S
H497 C506 0.929 . S
C498 H492 0.930 . S
C498 C499 1.367 . S
C498 C506 1.378 . S
C499 C498 1.367 . S
C499 C507 1.433 . S
C500 H496 0.929 . S
C500 C502 1.378 . S
C500 C504 1.350 . S
C501 C504 1.463 . S
C501 C506 1.350 . S
C501 N509 1.427 . S
C502 H493 0.930 . S
C502 C500 1.378 . S
C502 C503 1.367 . S
C503 C502 1.367 . S
C503 C505 1.433 . S
C504 C500 1.350 . S
C504 C501 1.463 . S
C504 N508 1.427 . S
C505 H495 0.929 . S
C505 C503 1.433 . S
C505 N508 1.384 . S
C506 H497 0.929 . S
C506 C498 1.378 . S
C506 C501 1.350 . S
C507 H494 0.929 . S
C507 C499 1.433 . S
C507 N509 1.384 . S
N508 C504 1.427 . S
N508 C505 1.384 . S
N509 C501 1.427 . S
N509 C507 1.384 . S
H510 C516 0.930 . S
H511 C520 0.930 . S
H512 C525 0.929 . S
H513 C523 0.929 . S
H514 C518 0.929 . S
H515 C524 0.929 . S
C516 H510 0.930 . S
C516 C517 1.367 . S
C516 C524 1.378 . S
C517 C516 1.367 . S
C517 C525 1.433 . S
C518 H514 0.929 . S
C518 C520 1.378 . S
C518 C522 1.350 . S
C519 C522 1.463 . S
C519 C524 1.350 . S
C519 N527 1.427 . S
C520 H511 0.930 . S
C520 C518 1.378 . S
C520 C521 1.367 . S
C521 C520 1.367 . S
C521 C523 1.433 . S
C522 C518 1.350 . S
C522 C519 1.463 . S
C522 N526 1.427 . S
C523 H513 0.929 . S
C523 C521 1.433 . S
C523 N526 1.384 . S
C524 H515 0.929 . S
C524 C516 1.378 . S
C524 C519 1.350 . S
C525 H512 0.929 . S
C525 C517 1.433 . S
C525 N527 1.384 . S
N526 C522 1.427 . S
N526 C523 1.384 . S
N527 C519 1.427 . S
N527 C525 1.384 . S
H528 C534 0.930 . S
H529 C538 0.930 . S
H530 C543 0.929 . S
H531 C541 0.929 . S
H532 C536 0.929 . S
H533 C542 0.929 . S
C534 H528 0.930 . S
C534 C535 1.367 . S
C534 C542 1.378 . S
C535 C534 1.367 . S
C535 C543 1.433 . S
C536 H532 0.929 . S
C536 C538 1.378 . S
C536 C540 1.350 . S
C537 C540 1.463 . S
C537 C542 1.350 . S
C537 N545 1.427 . S
C538 H529 0.930 . S
C538 C536 1.378 . S
C538 C539 1.367 . S
C539 C538 1.367 . S
C539 C541 1.433 . S
C540 C536 1.350 . S
C540 C537 1.463 . S
C540 N544 1.427 . S
C541 H531 0.929 . S
C541 C539 1.433 . S
C541 N544 1.384 . S
C542 H533 0.929 . S
C542 C534 1.378 . S
C542 C537 1.350 . S
C543 H530 0.929 . S
C543 C535 1.433 . S
C543 N545 1.384 . S
N544 C540 1.427 . S
N544 C541 1.384 . S
N545 C537 1.427 . S
N545 C543 1.384 . S
H546 C552 0.930 . S
H547 C556 0.930 . S
H548 C561 0.929 . S
H549 C559 0.929 . S
H550 C554 0.929 . S
H551 C560 0.929 . S
C552 H546 0.930 . S
C552 C553 1.367 . S
C552 C560 1.378 . S
C553 C552 1.367 . S
C553 C561 1.433 . S
C554 H550 0.929 . S
C554 C556 1.378 . S
C554 C558 1.350 . S
C555 C558 1.463 . S
C555 C560 1.350 . S
C555 N563 1.427 . S
C556 H547 0.930 . S
C556 C554 1.378 . S
C556 C557 1.367 . S
C557 C556 1.367 . S
C557 C559 1.433 . S
C558 C554 1.350 . S
C558 C555 1.463 . S
C558 N562 1.427 . S
C559 H549 0.929 . S
C559 C557 1.433 . S
C559 N562 1.384 . S
C560 H551 0.929 . S
C560 C552 1.378 . S
C560 C555 1.350 . S
C561 H548 0.929 . S
C561 C553 1.433 . S
C561 N563 1.384 . S
N562 C558 1.427 . S
N562 C559 1.384 . S
N563 C555 1.427 . S
N563 C561 1.384 . S
H564 C570 0.930 . S
H565 C574 0.930 . S
H566 C579 0.929 . S
H567 C577 0.929 . S
H568 C572 0.929 . S
H569 C578 0.929 . S
C570 H564 0.930 . S
C570 C571 1.367 . S
C570 C578 1.378 . S
C571 C570 1.367 . S
C571 C579 1.433 . S
C572 H568 0.929 . S
C572 C574 1.378 . S
C572 C576 1.350 . S
C573 C576 1.463 . S
C573 C578 1.350 . S
C573 N581 1.427 . S
C574 H565 0.930 . S
C574 C572 1.378 . S
C574 C575 1.367 . S
C575 C574 1.367 . S
C575 C577 1.433 . S
C576 C572 1.350 . S
C576 C573 1.463 . S
C576 N580 1.427 . S
C577 H567 0.929 . S
C577 C575 1.433 . S
C577 N580 1.384 . S
C578 H569 0.929 . S
C578 C570 1.378 . S
C578 C573 1.350 . S
C579 H566 0.929 . S
C579 C571 1.433 . S
C579 N581 1.384 . S
N580 C576 1.427 . S
N580 C577 1.384 . S
N581 C573 1.427 . S
N581 C579 1.384 . S
H582 C588 0.930 . S
H583 C592 0.930 . S
H584 C597 0.929 . S
H585 C595 0.929 . S
H586 C590 0.929 . S
H587 C596 0.929 . S
C588 H582 0.930 . S
C588 C589 1.367 . S
C588 C596 1.378 . S
C589 C588 1.367 . S
C589 C597 1.433 . S
C590 H586 0.929 . S
C590 C592 1.378 . S
C590 C594 1.350 . S
C591 C594 1.463 . S
C591 C596 1.350 . S
C591 N599 1.427 . S
C592 H583 0.930 . S
C592 C590 1.378 . S
C592 C593 1.367 . S
C593 C592 1.367 . S
C593 C595 1.433 . S
C594 C590 1.350 . S
C594 C591 1.463 . S
C594 N598 1.427 . S
C595 H585 0.929 . S
C595 C593 1.433 . S
C595 N598 1.384 . S
C596 H587 0.929 . S
C596 C588 1.378 . S
C596 C591 1.350 . S
C597 H584 0.929 . S
C597 C589 1.433 . S
C597 N599 1.384 . S
N598 C594 1.427 . S
N598 C595 1.384 . S
N599 C591 1.427 . S
N599 C597 1.384 . S
H600 C606 0.930 . S
H601 C610 0.930 . S
H602 C615 0.929 . S
H603 C613 0.929 . S
H604 C608 0.929 . S
H605 C614 0.929 . S
C606 H600 0.930 . S
C606 C607 1.367 . S
C606 C614 1.378 . S
C607 C606 1.367 . S
C607 C615 1.433 . S
C608 H604 0.929 . S
C608 C610 1.378 . S
C608 C612 1.350 . S
C609 C612 1.463 . S
C609 C614 1.350 . S
C609 N617 1.427 . S
C610 H601 0.930 . S
C610 C608 1.378 . S
C610 C611 1.367 . S
C611 C610 1.367 . S
C611 C613 1.433 . S
C612 C608 1.350 . S
C612 C609 1.463 . S
C612 N616 1.427 . S
C613 H603 0.929 . S
C613 C611 1.433 . S
C613 N616 1.384 . S
C614 H605 0.929 . S
C614 C606 1.378 . S
C614 C609 1.350 . S
C615 H602 0.929 . S
C615 C607 1.433 . S
C615 N617 1.384 . S
N616 C612 1.427 . S
N616 C613 1.384 . S
N617 C609 1.427 . S
N617 C615 1.384 . S
H618 C624 0.930 . S
H619 C628 0.930 . S
H620 C633 0.929 . S
H621 C631 0.929 . S
H622 C626 0.929 . S
H623 C632 0.929 . S
C624 H618 0.930 . S
C624 C625 1.367 . S
C624 C632 1.378 . S
C625 C624 1.367 . S
C625 C633 1.433 . S
C626 H622 0.929 . S
C626 C628 1.378 . S
C626 C630 1.350 . S
C627 C630 1.463 . S
C627 C632 1.350 . S
C627 N635 1.427 . S
C628 H619 0.930 . S
C628 C626 1.378 . S
C628 C629 1.367 . S
C629 C628 1.367 . S
C629 C631 1.433 . S
C630 C626 1.350 . S
C630 C627 1.463 . S
C630 N634 1.427 . S
C631 H621 0.929 . S
C631 C629 1.433 . S
C631 N634 1.384 . S
C632 H623 0.929 . S
C632 C624 1.378 . S
C632 C627 1.350 . S
C633 H620 0.929 . S
C633 C625 1.433 . S
C633 N635 1.384 . S
N634 C630 1.427 . S
N634 C631 1.384 . S
N635 C627 1.427 . S
N635 C633 1.384 . S
H636 C642 0.930 . S
H637 C646 0.930 . S
H638 C651 0.929 . S
H639 C649 0.929 . S
H640 C644 0.929 . S
H641 C650 0.929 . S
C642 H636 0.930 . S
C642 C643 1.367 . S
C642 C650 1.378 . S
C643 C642 1.367 . S
C643 C651 1.433 . S
C644 H640 0.929 . S
C644 C646 1.378 . S
C644 C648 1.350 . S
C645 C648 1.463 . S
C645 C650 1.350 . S
C645 N653 1.427 . S
C646 H637 0.930 . S
C646 C644 1.378 . S
C646 C647 1.367 . S
C647 C646 1.367 . S
C647 C649 1.433 . S
C648 C644 1.350 . S
C648 C645 1.463 . S
C648 N652 1.427 . S
C649 H639 0.929 . S
C649 C647 1.433 . S
C649 N652 1.384 . S
C650 H641 0.929 . S
C650 C642 1.378 . S
C650 C645 1.350 . S
C651 H638 0.929 . S
C651 C643 1.433 . S
C651 N653 1.384 . S
N652 C648 1.427 . S
N652 C649 1.384 . S
N653 C645 1.427 . S
N653 C651 1.384 . S
H654 C660 0.930 . S
H655 C664 0.930 . S
H656 C669 0.929 . S
H657 C667 0.929 . S
H658 C662 0.929 . S
H659 C668 0.929 . S
C660 H654 0.930 . S
C660 C661 1.367 . S
C660 C668 1.378 . S
C661 C660 1.367 . S
C661 C669 1.433 . S
C662 H658 0.929 . S
C662 C664 1.378 . S
C662 C666 1.350 . S
C663 C666 1.463 . S
C663 C668 1.350 . S
C663 N671 1.427 . S
C664 H655 0.930 . S
C664 C662 1.378 . S
C664 C665 1.367 . S
C665 C664 1.367 . S
C665 C667 1.433 . S
C666 C662 1.350 . S
C666 C663 1.463 . S
C666 N670 1.427 . S
C667 H657 0.929 . S
C667 C665 1.433 . S
C667 N670 1.384 . S
C668 H659 0.929 . S
C668 C660 1.378 . S
C668 C663 1.350 . S
C669 H656 0.929 . S
C669 C661 1.433 . S
C669 N671 1.384 . S
N670 C666 1.427 . S
N670 C667 1.384 . S
N671 C663 1.427 . S
N671 C669 1.384 . S
H672 C678 0.930 . S
H673 C682 0.930 . S
H674 C687 0.929 . S
H675 C685 0.929 . S
H676 C680 0.929 . S
H677 C686 0.929 . S
C678 H672 0.930 . S
C678 C679 1.367 . S
C678 C686 1.378 . S
C679 C678 1.367 . S
C679 C687 1.433 . S
C680 H676 0.929 . S
C680 C682 1.378 . S
C680 C684 1.350 . S
C681 C684 1.463 . S
C681 C686 1.350 . S
C681 N689 1.427 . S
C682 H673 0.930 . S
C682 C680 1.378 . S
C682 C683 1.367 . S
C683 C682 1.367 . S
C683 C685 1.433 . S
C684 C680 1.350 . S
C684 C681 1.463 . S
C684 N688 1.427 . S
C685 H675 0.929 . S
C685 C683 1.433 . S
C685 N688 1.384 . S
C686 H677 0.929 . S
C686 C678 1.378 . S
C686 C681 1.350 . S
C687 H674 0.929 . S
C687 C679 1.433 . S
C687 N689 1.384 . S
N688 C684 1.427 . S
N688 C685 1.384 . S
N689 C681 1.427 . S
N689 C687 1.384 . S
H690 C696 0.930 . S
H691 C700 0.930 . S
H692 C705 0.929 . S
H693 C703 0.929 . S
H694 C698 0.929 . S
H695 C704 0.929 . S
C696 H690 0.930 . S
C696 C697 1.367 . S
C696 C704 1.378 . S
C697 C696 1.367 . S
C697 C705 1.433 . S
C698 H694 0.929 . S
C698 C700 1.378 . S
C698 C702 1.350 . S
C699 C702 1.463 . S
C699 C704 1.350 . S
C699 N707 1.427 . S
C700 H691 0.930 . S
C700 C698 1.378 . S
C700 C701 1.367 . S
C701 C700 1.367 . S
C701 C703 1.433 . S
C702 C698 1.350 . S
C702 C699 1.463 . S
C702 N706 1.427 . S
C703 H693 0.929 . S
C703 C701 1.433 . S
C703 N706 1.384 . S
C704 H695 0.929 . S
C704 C696 1.378 . S
C704 C699 1.350 . S
C705 H692 0.929 . S
C705 C697 1.433 . S
C705 N707 1.384 . S
N706 C702 1.427 . S
N706 C703 1.384 . S
N707 C699 1.427 . S
N707 C705 1.384 . S
H708 C714 0.930 . S
H709 C718 0.930 . S
H710 C723 0.929 . S
H711 C721 0.929 . S
H712 C716 0.929 . S
H713 C722 0.929 . S
C714 H708 0.930 . S
C714 C715 1.367 . S
C714 C722 1.378 . S
C715 C714 1.367 . S
C715 C723 1.433 . S
C716 H712 0.929 . S
C716 C718 1.378 . S
C716 C720 1.350 . S
C717 C720 1.463 . S
C717 C722 1.350 . S
C717 N725 1.427 . S
C718 H709 0.930 . S
C718 C716 1.378 . S
C718 C719 1.367 . S
C719 C718 1.367 . S
C719 C721 1.433 . S
C720 C716 1.350 . S
C720 C717 1.463 . S
C720 N724 1.427 . S
C721 H711 0.929 . S
C721 C719 1.433 . S
C721 N724 1.384 . S
C722 H713 0.929 . S
C722 C714 1.378 . S
C722 C717 1.350 . S
C723 H710 0.929 . S
C723 C715 1.433 . S
C723 N725 1.384 . S
N724 C720 1.427 . S
N724 C721 1.384 . S
N725 C717 1.427 . S
N725 C723 1.384 . S
H726 C732 0.930 . S
H727 C736 0.930 . S
H728 C741 0.929 . S
H729 C739 0.929 . S
H730 C734 0.929 . S
H731 C740 0.929 . S
C732 H726 0.930 . S
C732 C733 1.367 . S
C732 C740 1.378 . S
C733 C732 1.367 . S
C733 C741 1.433 . S
C734 H730 0.929 . S
C734 C736 1.378 . S
C734 C738 1.350 . S
C735 C738 1.463 . S
C735 C740 1.350 . S
C735 N743 1.427 . S
C736 H727 0.930 . S
C736 C734 1.378 . S
C736 C737 1.367 . S
C737 C736 1.367 . S
C737 C739 1.433 . S
C738 C734 1.350 . S
C738 C735 1.463 . S
C738 N742 1.427 . S
C739 H729 0.929 . S
C739 C737 1.433 . S
C739 N742 1.384 . S
C740 H731 0.929 . S
C740 C732 1.378 . S
C740 C735 1.350 . S
C741 H728 0.929 . S
C741 C733 1.433 . S
C741 N743 1.384 . S
N742 C738 1.427 . S
N742 C739 1.384 . S
N743 C735 1.427 . S
N743 C741 1.384 . S
H744 C750 0.930 . S
H745 C754 0.930 . S
H746 C759 0.929 . S
H747 C757 0.929 . S
H748 C752 0.929 . S
H749 C758 0.929 . S
C750 H744 0.930 . S
C750 C751 1.367 . S
C750 C758 1.378 . S
C751 C750 1.367 . S
C751 C759 1.433 . S
C752 H748 0.929 . S
C752 C754 1.378 . S
C752 C756 1.350 . S
C753 C756 1.463 . S
C753 C758 1.350 . S
C753 N761 1.427 . S
C754 H745 0.930 . S
C754 C752 1.378 . S
C754 C755 1.367 . S
C755 C754 1.367 . S
C755 C757 1.433 . S
C756 C752 1.350 . S
C756 C753 1.463 . S
C756 N760 1.427 . S
C757 H747 0.929 . S
C757 C755 1.433 . S
C757 N760 1.384 . S
C758 H749 0.929 . S
C758 C750 1.378 . S
C758 C753 1.350 . S
C759 H746 0.929 . S
C759 C751 1.433 . S
C759 N761 1.384 . S
N760 C756 1.427 . S
N760 C757 1.384 . S
N761 C753 1.427 . S
N761 C759 1.384 . S
H762 C768 0.930 . S
H763 C772 0.930 . S
H764 C777 0.929 . S
H765 C775 0.929 . S
H766 C770 0.929 . S
H767 C776 0.929 . S
C768 H762 0.930 . S
C768 C769 1.367 . S
C768 C776 1.378 1_554 S
C769 C768 1.367 . S
C769 C777 1.433 1_554 S
C770 H766 0.929 . S
C770 C772 1.378 . S
C770 C774 1.350 . S
C771 C774 1.463 . S
C771 C776 1.350 . S
C771 N779 1.427 . S
C772 H763 0.930 . S
C772 C770 1.378 . S
C772 C773 1.367 . S
C773 C772 1.367 . S
C773 C775 1.433 . S
C774 C770 1.350 . S
C774 C771 1.463 . S
C774 N778 1.427 . S
C775 H765 0.929 . S
C775 C773 1.433 . S
C775 N778 1.384 . S
C776 H767 0.929 . S
C776 C768 1.378 1_556 S
C776 C771 1.350 . S
C777 H764 0.929 . S
C777 C769 1.433 1_556 S
C777 N779 1.384 . S
N778 C774 1.427 . S
N778 C775 1.384 . S
N779 C771 1.427 . S
N779 C777 1.384 . S
H780 C786 0.930 . S
H781 C790 0.930 . S
H782 C795 0.929 . S
H783 C793 0.929 . S
H784 C788 0.929 . S
H785 C794 0.929 . S
C786 H780 0.930 . S
C786 C787 1.367 . S
C786 C794 1.378 . S
C787 C786 1.367 . S
C787 C795 1.433 . S
C788 H784 0.929 . S
C788 C790 1.378 . S
C788 C792 1.350 . S
C789 C792 1.463 . S
C789 C794 1.350 . S
C789 N797 1.427 . S
C790 H781 0.930 . S
C790 C788 1.378 . S
C790 C791 1.367 . S
C791 C790 1.367 . S
C791 C793 1.433 . S
C792 C788 1.350 . S
C792 C789 1.463 . S
C792 N796 1.427 . S
C793 H783 0.929 . S
C793 C791 1.433 . S
C793 N796 1.384 . S
C794 H785 0.929 . S
C794 C786 1.378 . S
C794 C789 1.350 . S
C795 H782 0.929 . S
C795 C787 1.433 . S
C795 N797 1.384 . S
N796 C792 1.427 . S
N796 C793 1.384 . S
N797 C789 1.427 . S
N797 C795 1.384 . S
H798 C804 0.930 . S
H799 C808 0.930 . S
H800 C813 0.929 . S
H801 C811 0.929 . S
H802 C806 0.929 . S
H803 C812 0.929 . S
C804 H798 0.930 . S
C804 C805 1.367 . S
C804 C812 1.378 . S
C805 C804 1.367 . S
C805 C813 1.433 . S
C806 H802 0.929 . S
C806 C808 1.378 . S
C806 C810 1.350 . S
C807 C810 1.463 . S
C807 C812 1.350 . S
C807 N815 1.427 . S
C808 H799 0.930 . S
C808 C806 1.378 . S
C808 C809 1.367 1_554 S
C809 C808 1.367 1_556 S
C809 C811 1.433 . S
C810 C806 1.350 . S
C810 C807 1.463 . S
C810 N814 1.427 . S
C811 H801 0.929 . S
C811 C809 1.433 . S
C811 N814 1.384 1_556 S
C812 H803 0.929 . S
C812 C804 1.378 . S
C812 C807 1.350 . S
C813 H800 0.929 . S
C813 C805 1.433 . S
C813 N815 1.384 . S
N814 C810 1.427 . S
N814 C811 1.384 1_554 S
N815 C807 1.427 . S
N815 C813 1.384 . S
H816 C822 0.930 . S
H817 C826 0.930 . S
H818 C831 0.929 . S
H819 C829 0.929 . S
H820 C824 0.929 . S
H821 C830 0.929 . S
C822 H816 0.930 . S
C822 C823 1.367 . S
C822 C830 1.378 . S
C823 C822 1.367 . S
C823 C831 1.433 . S
C824 H820 0.929 . S
C824 C826 1.378 . S
C824 C828 1.350 . S
C825 C828 1.463 . S
C825 C830 1.350 . S
C825 N833 1.427 . S
C826 H817 0.930 . S
C826 C824 1.378 . S
C826 C827 1.367 . S
C827 C826 1.367 . S
C827 C829 1.433 . S
C828 C824 1.350 . S
C828 C825 1.463 . S
C828 N832 1.427 . S
C829 H819 0.929 . S
C829 C827 1.433 . S
C829 N832 1.384 . S
C830 H821 0.929 . S
C830 C822 1.378 . S
C830 C825 1.350 . S
C831 H818 0.929 . S
C831 C823 1.433 . S
C831 N833 1.384 . S
N832 C828 1.427 . S
N832 C829 1.384 . S
N833 C825 1.427 . S
N833 C831 1.384 . S
H834 C840 0.930 . S
H835 C844 0.930 . S
H836 C849 0.929 . S
H837 C847 0.929 . S
H838 C842 0.929 . S
H839 C848 0.929 . S
C840 H834 0.930 . S
C840 C841 1.367 . S
C840 C848 1.378 1_655 S
C841 C840 1.367 . S
C841 C849 1.433 . S
C842 H838 0.929 . S
C842 C844 1.378 . S
C842 C846 1.350 . S
C843 C846 1.463 . S
C843 C848 1.350 . S
C843 N851 1.427 . S
C844 H835 0.930 . S
C844 C842 1.378 . S
C844 C845 1.367 . S
C845 C844 1.367 . S
C845 C847 1.433 . S
C846 C842 1.350 . S
C846 C843 1.463 . S
C846 N850 1.427 . S
C847 H837 0.929 . S
C847 C845 1.433 . S
C847 N850 1.384 . S
C848 H839 0.929 . S
C848 C840 1.378 1_455 S
C848 C843 1.350 . S
C849 H836 0.929 . S
C849 C841 1.433 . S
C849 N851 1.384 1_655 S
N850 C846 1.427 . S
N850 C847 1.384 . S
N851 C843 1.427 . S
N851 C849 1.384 1_455 S
H852 C858 0.930 . S
H853 C862 0.930 . S
H854 C867 0.929 . S
H855 C865 0.929 . S
H856 C860 0.929 . S
H857 C866 0.929 . S
C858 H852 0.930 . S
C858 C859 1.367 . S
C858 C866 1.378 1_455 S
C859 C858 1.367 . S
C859 C867 1.433 . S
C860 H856 0.929 . S
C860 C862 1.378 . S
C860 C864 1.350 . S
C861 C864 1.463 . S
C861 C866 1.350 . S
C861 N869 1.427 . S
C862 H853 0.930 . S
C862 C860 1.378 . S
C862 C863 1.367 . S
C863 C862 1.367 . S
C863 C865 1.433 . S
C864 C860 1.350 . S
C864 C861 1.463 . S
C864 N868 1.427 . S
C865 H855 0.929 . S
C865 C863 1.433 . S
C865 N868 1.384 . S
C866 H857 0.929 . S
C866 C858 1.378 1_655 S
C866 C861 1.350 . S
C867 H854 0.929 . S
C867 C859 1.433 . S
C867 N869 1.384 1_455 S
N868 C864 1.427 . S
N868 C865 1.384 . S
N869 C861 1.427 . S
N869 C867 1.384 1_655 S
H870 C876 0.930 . S
H871 C880 0.930 . S
H872 C885 0.929 . S
H873 C883 0.929 . S
H874 C878 0.929 . S
H875 C884 0.929 . S
C876 H870 0.930 . S
C876 C877 1.367 . S
C876 C884 1.378 . S
C877 C876 1.367 . S
C877 C885 1.433 . S
C878 H874 0.929 . S
C878 C880 1.378 . S
C878 C882 1.350 . S
C879 C882 1.463 . S
C879 C884 1.350 . S
C879 N887 1.427 . S
C880 H871 0.930 . S
C880 C878 1.378 . S
C880 C881 1.367 . S
C881 C880 1.367 . S
C881 C883 1.433 . S
C882 C878 1.350 . S
C882 C879 1.463 . S
C882 N886 1.427 . S
C883 H873 0.929 . S
C883 C881 1.433 . S
C883 N886 1.384 . S
C884 H875 0.929 . S
C884 C876 1.378 . S
C884 C879 1.350 . S
C885 H872 0.929 . S
C885 C877 1.433 . S
C885 N887 1.384 . S
N886 C882 1.427 . S
N886 C883 1.384 . S
N887 C879 1.427 . S
N887 C885 1.384 . S
H888 C894 0.930 . S
H889 C898 0.930 . S
H890 C903 0.929 . S
H891 C901 0.929 . S
H892 C896 0.929 . S
H893 C902 0.929 . S
C894 H888 0.930 . S
C894 C895 1.367 . S
C894 C902 1.378 . S
C895 C894 1.367 . S
C895 C903 1.433 . S
C896 H892 0.929 . S
C896 C898 1.378 . S
C896 C900 1.350 . S
C897 C900 1.463 . S
C897 C902 1.350 . S
C897 N905 1.427 . S
C898 H889 0.930 . S
C898 C896 1.378 . S
C898 C899 1.367 . S
C899 C898 1.367 . S
C899 C901 1.433 . S
C900 C896 1.350 . S
C900 C897 1.463 . S
C900 N904 1.427 . S
C901 H891 0.929 . S
C901 C899 1.433 . S
C901 N904 1.384 . S
C902 H893 0.929 . S
C902 C894 1.378 . S
C902 C897 1.350 . S
C903 H890 0.929 . S
C903 C895 1.433 . S
C903 N905 1.384 . S
N904 C900 1.427 . S
N904 C901 1.384 . S
N905 C897 1.427 . S
N905 C903 1.384 . S
H906 C912 0.930 . S
H907 C916 0.930 . S
H908 C921 0.951 . S
H909 C919 0.929 . S
H910 C914 0.929 . S
H911 C920 0.929 . S
C912 H906 0.930 . S
C912 C913 1.367 1_545 S
C912 C920 1.378 . S
C913 C912 1.367 1_565 S
C913 C921 1.442 . S
C914 H910 0.929 . S
C914 C916 1.378 . S
C914 C918 1.350 . S
C915 C918 1.463 . S
C915 C920 1.350 . S
C915 N923 1.427 . S
C916 H907 0.930 . S
C916 C914 1.378 . S
C916 C917 1.367 . S
C917 C916 1.367 . S
C917 C919 1.433 . S
C918 C914 1.350 . S
C918 C915 1.463 . S
C918 N922 1.427 . S
C919 H909 0.929 . S
C919 C917 1.433 . S
C919 N922 1.384 . S
C920 H911 0.929 . S
C920 C912 1.378 . S
C920 C915 1.350 . S
C921 H908 0.951 . S
C921 C913 1.442 . S
C921 N923 1.352 1_565 S
N922 C918 1.427 . S
N922 C919 1.384 . S
N923 C915 1.427 . S
N923 C921 1.352 1_545 S
H924 C930 0.930 1_545 S
H925 C934 0.930 . S
H926 C939 0.931 1_545 S
H927 C937 0.929 . S
H928 C932 0.929 . S
H929 C938 0.929 . S
C930 H924 0.930 1_565 S
C930 C931 1.367 1_565 S
C930 C938 1.378 . S
C931 C930 1.367 1_545 S
C931 C939 1.433 1_545 S
C932 H928 0.929 . S
C932 C934 1.378 . S
C932 C936 1.350 . S
C933 C936 1.463 . S
C933 C938 1.350 . S
C933 N941 1.427 . S
C934 H925 0.930 . S
C934 C932 1.378 . S
C934 C935 1.367 . S
C935 C934 1.367 . S
C935 C937 1.433 . S
C936 C932 1.350 . S
C936 C933 1.463 . S
C936 N940 1.427 . S
C937 H927 0.929 . S
C937 C935 1.433 . S
C937 N940 1.384 . S
C938 H929 0.929 . S
C938 C930 1.378 . S
C938 C933 1.350 . S
C939 H926 0.931 1_565 S
C939 C931 1.433 1_565 S
C939 N941 1.384 . S
N940 C936 1.427 . S
N940 C937 1.384 . S
N941 C933 1.427 . S
N941 C939 1.384 . S
H942 C948 0.930 . S
H943 C952 0.930 . S
H944 C957 0.929 . S
H945 C955 0.929 . S
H946 C950 0.929 . S
H947 C956 0.929 . S
C948 H942 0.930 . S
C948 C949 1.367 . S
C948 C956 1.378 . S
C949 C948 1.367 . S
C949 C957 1.433 . S
C950 H946 0.929 . S
C950 C952 1.378 . S
C950 C954 1.350 . S
C951 C954 1.463 . S
C951 C956 1.350 . S
C951 N959 1.427 . S
C952 H943 0.930 . S
C952 C950 1.378 . S
C952 C953 1.367 . S
C953 C952 1.367 . S
C953 C955 1.433 . S
C954 C950 1.350 . S
C954 C951 1.463 . S
C954 N958 1.427 . S
C955 H945 0.929 . S
C955 C953 1.433 . S
C955 N958 1.384 . S
C956 H947 0.929 . S
C956 C948 1.378 . S
C956 C951 1.350 . S
C957 H944 0.929 . S
C957 C949 1.433 . S
C957 N959 1.384 . S
N958 C954 1.427 . S
N958 C955 1.384 . S
N959 C951 1.427 . S
N959 C957 1.384 . S
H960 C966 0.930 . S
H961 C970 0.930 . S
H962 C975 0.929 . S
H963 C973 0.929 . S
H964 C968 0.929 . S
H965 C974 0.929 . S
C966 H960 0.930 . S
C966 C967 1.367 . S
C966 C974 1.378 . S
C967 C966 1.367 . S
C967 C975 1.433 . S
C968 H964 0.929 . S
C968 C970 1.378 . S
C968 C972 1.350 . S
C969 C972 1.463 . S
C969 C974 1.350 . S
C969 N977 1.427 . S
C970 H961 0.930 . S
C970 C968 1.378 . S
C970 C971 1.367 . S
C971 C970 1.367 . S
C971 C973 1.433 . S
C972 C968 1.350 . S
C972 C969 1.463 . S
C972 N976 1.427 . S
C973 H963 0.929 . S
C973 C971 1.433 . S
C973 N976 1.384 . S
C974 H965 0.929 . S
C974 C966 1.378 . S
C974 C969 1.350 . S
C975 H962 0.929 . S
C975 C967 1.433 . S
C975 N977 1.384 . S
N976 C972 1.427 . S
N976 C973 1.384 . S
N977 C969 1.427 . S
N977 C975 1.384 . S
H978 C984 0.930 1_556 S
H979 C988 0.930 . S
H980 C993 0.930 . S
H981 C991 0.929 . S
H982 C986 0.929 . S
H983 C992 0.929 . S
C984 H978 0.930 1_554 S
C984 C985 1.367 1_554 S
C984 C992 1.378 . S
C985 C984 1.367 1_556 S
C985 C993 1.434 . S
C986 H982 0.929 . S
C986 C988 1.378 . S
C986 C990 1.350 . S
C987 C990 1.463 . S
C987 C992 1.350 . S
C987 N995 1.427 . S
C988 H979 0.930 . S
C988 C986 1.378 . S
C988 C989 1.367 . S
C989 C988 1.367 . S
C989 C991 1.433 . S
C990 C986 1.350 . S
C990 C987 1.463 . S
C990 N994 1.427 . S
C991 H981 0.929 . S
C991 C989 1.433 . S
C991 N994 1.384 . S
C992 H983 0.929 . S
C992 C984 1.378 . S
C992 C987 1.350 . S
C993 H980 0.930 . S
C993 C985 1.434 . S
C993 N995 1.383 1_556 S
N994 C990 1.427 . S
N994 C991 1.384 . S
N995 C987 1.427 . S
N995 C993 1.383 1_554 S
H996 C1002 0.930 . S
H997 C1006 0.930 . S
H998 C1011 0.929 . S
H999 C1009 0.929 . S
H1000 C1004 0.929 . S
H1001 C1010 0.929 . S
C1002 H996 0.930 . S
C1002 C1003 1.367 . S
C1002 C1010 1.378 . S
C1003 C1002 1.367 . S
C1003 C1011 1.433 . S
C1004 H1000 0.929 . S
C1004 C1006 1.378 . S
C1004 C1008 1.350 . S
C1005 C1008 1.463 . S
C1005 C1010 1.350 . S
C1005 N1013 1.427 . S
C1006 H997 0.930 . S
C1006 C1004 1.378 . S
C1006 C1007 1.367 . S
C1007 C1006 1.367 . S
C1007 C1009 1.433 . S
C1008 C1004 1.350 . S
C1008 C1005 1.463 . S
C1008 N1012 1.427 . S
C1009 H999 0.929 . S
C1009 C1007 1.433 . S
C1009 N1012 1.384 . S
C1010 H1001 0.929 . S
C1010 C1002 1.378 . S
C1010 C1005 1.350 . S
C1011 H998 0.929 . S
C1011 C1003 1.433 . S
C1011 N1013 1.384 . S
N1012 C1008 1.427 . S
N1012 C1009 1.384 . S
N1013 C1005 1.427 . S
N1013 C1011 1.384 . S
H1014 C1020 0.934 . S
H1015 C1024 0.930 . S
H1016 C1029 0.929 1_554 S
H1017 C1027 0.929 . S
H1018 C1022 0.929 . S
H1019 C1028 0.929 . S
C1020 H1014 0.934 . S
C1020 C1021 1.369 . S
C1020 C1028 1.371 1_554 S
C1021 C1020 1.369 . S
C1021 C1029 1.433 1_554 S
C1022 H1018 0.929 . S
C1022 C1024 1.378 . S
C1022 C1026 1.350 . S
C1023 C1026 1.463 . S
C1023 C1028 1.350 . S
C1023 N1031 1.427 . S
C1024 H1015 0.930 . S
C1024 C1022 1.378 . S
C1024 C1025 1.367 . S
C1025 C1024 1.367 . S
C1025 C1027 1.433 . S
C1026 C1022 1.350 . S
C1026 C1023 1.463 . S
C1026 N1030 1.427 . S
C1027 H1017 0.929 . S
C1027 C1025 1.433 . S
C1027 N1030 1.384 . S
C1028 H1019 0.929 . S
C1028 C1020 1.371 1_556 S
C1028 C1023 1.350 . S
C1029 H1016 0.929 1_556 S
C1029 C1021 1.433 1_556 S
C1029 N1031 1.384 . S
N1030 C1026 1.427 . S
N1030 C1027 1.384 . S
N1031 C1023 1.427 . S
N1031 C1029 1.384 . S
H1032 C1038 0.930 . S
H1033 C1042 0.930 . S
H1034 C1047 0.929 . S
H1035 C1045 0.929 . S
H1036 C1040 0.929 . S
H1037 C1046 0.929 . S
C1038 H1032 0.930 . S
C1038 C1039 1.367 . S
C1038 C1046 1.378 . S
C1039 C1038 1.367 . S
C1039 C1047 1.433 . S
C1040 H1036 0.929 . S
C1040 C1042 1.378 . S
C1040 C1044 1.350 . S
C1041 C1044 1.463 . S
C1041 C1046 1.350 . S
C1041 N1049 1.427 . S
C1042 H1033 0.930 . S
C1042 C1040 1.378 . S
C1042 C1043 1.367 . S
C1043 C1042 1.367 . S
C1043 C1045 1.433 . S
C1044 C1040 1.350 . S
C1044 C1041 1.463 . S
C1044 N1048 1.427 . S
C1045 H1035 0.929 . S
C1045 C1043 1.433 . S
C1045 N1048 1.384 . S
C1046 H1037 0.929 . S
C1046 C1038 1.378 . S
C1046 C1041 1.350 . S
C1047 H1034 0.929 . S
C1047 C1039 1.433 . S
C1047 N1049 1.384 . S
N1048 C1044 1.427 . S
N1048 C1045 1.384 . S
N1049 C1041 1.427 . S
N1049 C1047 1.384 . S
H1050 C1056 0.930 . S
H1051 C1060 0.930 1_455 S
H1052 C1065 0.929 . S
H1053 C1063 0.929 . S
H1054 C1058 0.929 . S
H1055 C1064 0.929 . S
C1056 H1050 0.930 . S
C1056 C1057 1.367 . S
C1056 C1064 1.378 . S
C1057 C1056 1.367 . S
C1057 C1065 1.433 . S
C1058 H1054 0.929 . S
C1058 C1060 1.378 . S
C1058 C1062 1.350 . S
C1059 C1062 1.463 . S
C1059 C1064 1.350 . S
C1059 N1067 1.427 . S
C1060 H1051 0.930 1_655 S
C1060 C1058 1.378 . S
C1060 C1061 1.367 1_655 S
C1061 C1060 1.367 1_455 S
C1061 C1063 1.433 . S
C1062 C1058 1.350 . S
C1062 C1059 1.463 . S
C1062 N1066 1.427 . S
C1063 H1053 0.929 . S
C1063 C1061 1.433 . S
C1063 N1066 1.384 1_455 S
C1064 H1055 0.929 . S
C1064 C1056 1.378 . S
C1064 C1059 1.350 . S
C1065 H1052 0.929 . S
C1065 C1057 1.433 . S
C1065 N1067 1.384 . S
N1066 C1062 1.427 . S
N1066 C1063 1.384 1_655 S
N1067 C1059 1.427 . S
N1067 C1065 1.384 . S
H1068 C1074 0.930 . S
H1069 C1078 0.930 . S
H1070 C1083 0.929 . S
H1071 C1081 0.929 . S
H1072 C1076 0.929 . S
H1073 C1082 0.929 . S
C1074 H1068 0.930 . S
C1074 C1075 1.367 . S
C1074 C1082 1.378 . S
C1075 C1074 1.367 . S
C1075 C1083 1.433 . S
C1076 H1072 0.929 . S
C1076 C1078 1.378 . S
C1076 C1080 1.350 . S
C1077 C1080 1.463 . S
C1077 C1082 1.350 . S
C1077 N1085 1.427 . S
C1078 H1069 0.930 . S
C1078 C1076 1.378 . S
C1078 C1079 1.367 1_455 S
C1079 C1078 1.367 1_655 S
C1079 C1081 1.433 . S
C1080 C1076 1.350 . S
C1080 C1077 1.463 . S
C1080 N1084 1.427 . S
C1081 H1071 0.929 . S
C1081 C1079 1.433 . S
C1081 N1084 1.384 1_655 S
C1082 H1073 0.929 . S
C1082 C1074 1.378 . S
C1082 C1077 1.350 . S
C1083 H1070 0.929 . S
C1083 C1075 1.433 . S
C1083 N1085 1.384 . S
N1084 C1080 1.427 . S
N1084 C1081 1.384 1_455 S
N1085 C1077 1.427 . S
N1085 C1083 1.384 . S
H1086 C1092 0.930 . S
H1087 C1096 0.930 . S
H1088 C1101 0.929 . S
H1089 C1099 0.929 . S
H1090 C1094 0.929 . S
H1091 C1100 0.929 . S
C1092 H1086 0.930 . S
C1092 C1093 1.367 . S
C1092 C1100 1.378 . S
C1093 C1092 1.367 . S
C1093 C1101 1.433 . S
C1094 H1090 0.929 . S
C1094 C1096 1.378 . S
C1094 C1098 1.350 . S
C1095 C1098 1.463 . S
C1095 C1100 1.350 . S
C1095 N1103 1.427 . S
C1096 H1087 0.930 . S
C1096 C1094 1.378 . S
C1096 C1097 1.367 . S
C1097 C1096 1.367 . S
C1097 C1099 1.433 . S
C1098 C1094 1.350 . S
C1098 C1095 1.463 . S
C1098 N1102 1.427 . S
C1099 H1089 0.929 . S
C1099 C1097 1.433 . S
C1099 N1102 1.384 . S
C1100 H1091 0.929 . S
C1100 C1092 1.378 . S
C1100 C1095 1.350 . S
C1101 H1088 0.929 . S
C1101 C1093 1.433 . S
C1101 N1103 1.384 . S
N1102 C1098 1.427 . S
N1102 C1099 1.384 . S
N1103 C1095 1.427 . S
N1103 C1101 1.384 . S
H1104 C1110 0.930 . S
H1105 C1114 0.930 . S
H1106 C1119 0.929 . S
H1107 C1117 0.929 . S
H1108 C1112 0.929 . S
H1109 C1118 0.929 . S
C1110 H1104 0.930 . S
C1110 C1111 1.367 . S
C1110 C1118 1.378 . S
C1111 C1110 1.367 . S
C1111 C1119 1.433 . S
C1112 H1108 0.929 . S
C1112 C1114 1.378 . S
C1112 C1116 1.350 . S
C1113 C1116 1.463 . S
C1113 C1118 1.350 . S
C1113 N1121 1.427 . S
C1114 H1105 0.930 . S
C1114 C1112 1.378 . S
C1114 C1115 1.367 . S
C1115 C1114 1.367 . S
C1115 C1117 1.433 . S
C1116 C1112 1.350 . S
C1116 C1113 1.463 . S
C1116 N1120 1.427 . S
C1117 H1107 0.929 . S
C1117 C1115 1.433 . S
C1117 N1120 1.384 . S
C1118 H1109 0.929 . S
C1118 C1110 1.378 . S
C1118 C1113 1.350 . S
C1119 H1106 0.929 . S
C1119 C1111 1.433 . S
C1119 N1121 1.384 . S
N1120 C1116 1.427 . S
N1120 C1117 1.384 . S
N1121 C1113 1.427 . S
N1121 C1119 1.384 . S
H1122 C1128 0.930 . S
H1123 C1132 0.930 . S
H1124 C1137 0.929 . S
H1125 C1135 0.929 . S
H1126 C1130 0.929 . S
H1127 C1136 0.929 . S
C1128 H1122 0.930 . S
C1128 C1129 1.367 . S
C1128 C1136 1.378 . S
C1129 C1128 1.367 . S
C1129 C1137 1.433 . S
C1130 H1126 0.929 . S
C1130 C1132 1.378 1_565 S
C1130 C1134 1.350 . S
C1131 C1134 1.463 . S
C1131 C1136 1.350 . S
C1131 N1139 1.427 . S
C1132 H1123 0.930 . S
C1132 C1130 1.378 1_545 S
C1132 C1133 1.367 . S
C1133 C1132 1.367 . S
C1133 C1135 1.433 . S
C1134 C1130 1.350 . S
C1134 C1131 1.463 . S
C1134 N1138 1.427 . S
C1135 H1125 0.929 . S
C1135 C1133 1.433 . S
C1135 N1138 1.384 1_545 S
C1136 H1127 0.929 . S
C1136 C1128 1.378 . S
C1136 C1131 1.350 . S
C1137 H1124 0.929 . S
C1137 C1129 1.433 . S
C1137 N1139 1.384 . S
N1138 C1134 1.427 . S
N1138 C1135 1.384 1_565 S
N1139 C1131 1.427 . S
N1139 C1137 1.384 . S
H1140 C1146 0.930 . S
H1141 C1150 0.930 . S
H1142 C1155 0.940 . S
H1143 C1153 0.929 . S
H1144 C1148 0.929 . S
H1145 C1154 0.929 . S
C1146 H1140 0.930 . S
C1146 C1147 1.367 . S
C1146 C1154 1.378 1_565 S
C1147 C1146 1.367 . S
C1147 C1155 1.461 . S
C1148 H1144 0.929 . S
C1148 C1150 1.378 . S
C1148 C1152 1.350 . S
C1149 C1152 1.463 . S
C1149 C1154 1.350 . S
C1149 N1157 1.427 . S
C1150 H1141 0.930 . S
C1150 C1148 1.378 . S
C1150 C1151 1.367 . S
C1151 C1150 1.367 . S
C1151 C1153 1.433 . S
C1152 C1148 1.350 . S
C1152 C1149 1.463 . S
C1152 N1156 1.427 . S
C1153 H1143 0.929 . S
C1153 C1151 1.433 . S
C1153 N1156 1.384 . S
C1154 H1145 0.929 . S
C1154 C1146 1.378 1_545 S
C1154 C1149 1.350 . S
C1155 H1142 0.940 . S
C1155 C1147 1.461 . S
C1155 N1157 1.345 1_565 S
N1156 C1152 1.427 . S
N1156 C1153 1.384 . S
N1157 C1149 1.427 . S
N1157 C1155 1.345 1_545 S
H1158 C1164 0.930 . S
H1159 C1168 0.930 . S
H1160 C1173 0.929 . S
H1161 C1171 0.929 . S
H1162 C1166 0.929 . S
H1163 C1172 0.929 . S
C1164 H1158 0.930 . S
C1164 C1165 1.367 . S
C1164 C1172 1.378 . S
C1165 C1164 1.367 . S
C1165 C1173 1.433 . S
C1166 H1162 0.929 . S
C1166 C1168 1.378 . S
C1166 C1170 1.350 . S
C1167 C1170 1.463 . S
C1167 C1172 1.350 . S
C1167 N1175 1.427 . S
C1168 H1159 0.930 . S
C1168 C1166 1.378 . S
C1168 C1169 1.367 . S
C1169 C1168 1.367 . S
C1169 C1171 1.433 . S
C1170 C1166 1.350 . S
C1170 C1167 1.463 . S
C1170 N1174 1.427 . S
C1171 H1161 0.929 . S
C1171 C1169 1.433 . S
C1171 N1174 1.384 . S
C1172 H1163 0.929 . S
C1172 C1164 1.378 . S
C1172 C1167 1.350 . S
C1173 H1160 0.929 . S
C1173 C1165 1.433 . S
C1173 N1175 1.384 . S
N1174 C1170 1.427 . S
N1174 C1171 1.384 . S
N1175 C1167 1.427 . S
N1175 C1173 1.384 . S
C319 C109 0.939 . S
C323 C10 0.954 . S
C337 C23 0.966 . S
C341 C148 0.939 . S
C355 C36 0.960 . S
C359 C122 0.945 . S
C373 C49 0.960 . S
C377 C135 0.944 . S
C391 C57 0.869 . S
C395 C5 0.894 . S
C409 C18 0.897 . S
C413 C70 0.868 . S
C427 C83 0.904 . S
C431 C31 0.900 . S
C445 C44 0.883 . S
C449 C96 0.889 . S
C463 C62 0.937 . S
C467 C114 0.920 . S
C481 C88 0.936 . S
C485 C127 0.923 . S
C499 C140 0.927 . S
C503 C101 0.934 . S
C517 C75 0.938 . S
C521 C153 0.918 . S
C535 C265 0.913 . S
C539 C166 0.932 . S
C553 C179 0.938 . S
C557 C304 0.884 . S
C571 C192 0.924 . S
C575 C278 0.914 . S
C589 C291 0.914 . S
C593 C205 0.931 . S
C607 C218 0.920 . S
C611 C161 0.911 . S
C625 C174 0.910 . S
C629 C231 0.919 . S
C643 C187 0.906 . S
C647 C244 0.918 . S
C661 C257 0.929 . S
C665 C200 0.903 . S
C679 C270 1.005 . S
C683 C213 0.944 . S
C697 C239 0.974 . S
C701 C283 0.991 . S
C715 C252 0.945 . S
C719 C296 1.005 . S
C733 C309 0.996 . S
C737 C226 0.973 . S
C751 C286 1.349 . S
C755 C8 1.307 . S
C769 C273 1.349 . S
C773 C21 1.307 . S
C787 C299 1.336 . S
C791 C34 1.308 . S
C805 C47 1.314 . S
C809 C260 1.338 . S
C823 C52 1.281 . S
C827 C169 1.303 . S
C841 C156 1.304 . S
C845 C65 1.280 . S
C859 C195 1.313 . S
C863 C78 1.276 . S
C877 C182 1.317 . S
C881 C91 1.286 . S
C895 C112 1.275 . S
C899 C234 1.283 . S
C913 C208 1.279 . S
C917 C125 1.268 . S
C931 C221 1.283 . S
C935 C138 1.259 . S
C949 C247 1.288 . S
C953 C151 1.259 . S
C967 C130 1.250 . S
C971 C164 1.241 . S
C985 C117 1.252 . S
C989 C177 1.241 . S
C1003 C190 1.233 . S
C1007 C143 1.257 . S
C1021 C104 1.250 . S
C1025 C203 1.223 . S
C1039 C216 1.272 . S
C1043 C13 1.291 . S
C1057 C229 1.268 . S
C1061 C0 1.276 . S
C1075 C242 1.273 . S
C1079 C39 1.276 . S
C1093 C255 1.267 . S
C1097 C26 1.277 . S
C1111 C268 1.258 . S
C1115 C86 1.295 . S
C1129 C281 1.276 . S
C1133 C60 1.300 . S
C1147 C73 1.295 . S
C1151 C294 1.258 . S
C1165 C307 1.258 . S
C1169 C99 1.294 . S
