# Generated by pormake.
# Topology kag, (6)-cn, num edge types: 1
# Building blocks:
#     Node 0, Type 0, BuildingBlock: INOVEN_clean_sbu_0, # of connection points: 6
#     Node 1, Type 0, BuildingBlock: INOVEN_clean_sbu_0, # of connection points: 6
#     Node 2, Type 0, BuildingBlock: INOVEN_clean_sbu_0, # of connection points: 6
#     Edge 3, Type (0, 0), BuildingBlock: FUNLAD_clean_linker_0, # of connection points: 2
#     Edge 4, Type (0, 0), BuildingBlock: FUNLAD_clean_linker_0, # of connection points: 2
#     Edge 5, Type (0, 0), BuildingBlock: FUNLAD_clean_linker_0, # of connection points: 2
#     Edge 6, Type (0, 0), BuildingBlock: FUNLAD_clean_linker_0, # of connection points: 2
#     Edge 7, Type (0, 0), BuildingBlock: FUNLAD_clean_linker_0, # of connection points: 2
#     Edge 8, Type (0, 0), BuildingBlock: FUNLAD_clean_linker_0, # of connection points: 2
#     Edge 9, Type (0, 0), BuildingBlock: FUNLAD_clean_linker_0, # of connection points: 2
#     Edge 10, Type (0, 0), BuildingBlock: FUNLAD_clean_linker_0, # of connection points: 2
#     Edge 11, Type (0, 0), BuildingBlock: FUNLAD_clean_linker_0, # of connection points: 2
# Relax obj value: 0.059
# Max RMSD: 0.183
# Mean RMSD: 0.097
data_MOF--net-kag--node1-INOVEN_clean_sbu_0--edge1-FUNLAD_clean_linker_0
_symmetry_space_group_name_H-M    P1
_symmetry_Int_Tables_number       1
_symmetry_cell_setting            triclinic
loop_
_symmetry_equiv_pos_as_xyz
'x, y, z'
_cell_length_a     36.418118
_cell_length_b     47.021851
_cell_length_c     17.008792
_cell_angle_alpha  96.597673
_cell_angle_beta   92.535024
_cell_angle_gamma 99.198531
loop_
_atom_site_label
_atom_site_type_symbol
_atom_site_fract_x
_atom_site_fract_y
_atom_site_fract_z
_atom_type_partial_charge
Gd0 Gd 1.04597 0.47794 0.01686 0.0
Gd1 Gd 0.0581 0.54034 0.9981 0.0
C2 C 0.97379 0.50994 0.99097 0.0
C3 C 1.02479 0.42687 0.05831 0.0
C4 C 0.99309 0.40259 0.04256 0.0
C5 C 0.98576 0.38606 0.96758 0.0
C6 C 0.97097 0.39479 0.10468 0.0
C7 C 0.93573 0.35363 0.01827 0.0
C8 C 0.94252 0.37067 0.09265 0.0
C9 C 0.95742 0.36185 0.95562 0.0
C10 C 0.05404 0.48877 0.86464 0.0
C11 C 0.13024 0.50862 0.02484 0.0
C12 C 0.07852 0.59128 0.95523 0.0
C13 C 0.11102 0.61471 0.96399 0.0
C14 C 0.13232 0.62295 0.03629 0.0
C15 C 0.12001 0.6298 0.89923 0.0
C16 C 0.17013 0.66214 0.97955 0.0
C17 C 0.1493 0.65325 0.9068 0.0
C18 C 0.16155 0.64656 0.04407 0.0
C19 C 0.04944 0.52925 0.15005 0.0
O20 O 0.98693 0.48822 0.01925 0.0
O21 O 0.99658 0.53135 0.96623 0.0
O22 O 1.04655 0.43176 1.00053 0.0
O23 O 1.01846 0.45076 0.09904 0.0
O24 O 0.06688 0.46814 0.89546 0.0
O25 O 1.03564 0.5017 0.91415 0.0
O26 O 0.11706 0.53008 0.99532 0.0
O27 O 0.10743 0.48741 0.05053 0.0
O28 O 0.06058 0.58684 0.01878 0.0
O29 O 0.08201 0.56722 0.91149 0.0
O30 O 1.03629 0.54971 0.1189 0.0
O31 O 0.06828 0.51658 0.10093 0.0
H32 H 1.00236 0.39141 0.9184 0.0
H33 H 0.97607 0.40713 0.16308 0.0
H34 H 0.926 0.36526 0.1419 0.0
H35 H 0.95332 0.34905 0.89784 0.0
H36 H 0.12606 0.61143 0.08697 0.0
H37 H 0.10386 0.62378 0.84301 0.0
H38 H 0.15488 0.66499 0.85626 0.0
H39 H 0.17736 0.65268 0.10059 0.0
Gd40 Gd 0.58683 0.01455 0.99833 0.0
Gd41 Gd 0.50646 1.00538 0.02483 0.0
C42 C 0.54413 0.07086 0.03557 0.0
C43 C 0.65175 0.03388 0.95199 0.0
C44 C 0.67598 0.06267 0.9621 0.0
C45 C 0.69104 0.07602 0.0374 0.0
C46 C 0.68338 0.07747 0.89592 0.0
C47 C 0.72002 0.11862 0.9801 0.0
C48 C 0.70505 0.10516 0.90478 0.0
C49 C 0.71286 0.10362 0.04622 0.0
C50 C 0.57202 1.00804 0.15024 0.0
C51 C 0.54904 0.94934 0.99236 0.0
C52 C 0.44045 0.98685 0.06734 0.0
C53 C 0.41841 0.95795 0.07168 0.0
C54 C 0.38211 0.95117 0.03615 0.0
C55 C 0.43365 0.93656 0.10733 0.0
C56 C 0.37675 0.90181 0.07007 0.0
C57 C 0.413 0.90876 0.10659 0.0
C58 C 0.36147 0.92338 0.03526 0.0
C59 C 0.52227 0.01254 0.87362 0.0
O60 O 0.57302 0.06037 1.00635 0.0
O61 O 0.5153 0.05349 0.0575 0.0
O62 O 0.64698 0.02063 0.01522 0.0
O63 O 0.62093 0.03158 0.90747 0.0
O64 O 0.59845 0.99771 0.11382 0.0
O65 O 0.5557 0.02264 0.10609 0.0
O66 O 0.52157 0.96049 0.02578 0.0
O67 O 0.57672 0.96618 0.96438 0.0
O68 O 0.44703 0.99315 0.99594 0.0
O69 O 0.46946 0.99518 0.11767 0.0
O70 O 0.49676 0.02387 0.91083 0.0
O71 O 0.53769 0.99725 0.91722 0.0
H72 H 0.68592 0.06525 0.08978 0.0
H73 H 0.67204 0.06773 0.83725 0.0
H74 H 0.7096 0.11619 0.85268 0.0
H75 H 0.72444 0.11307 0.10491 0.0
H76 H 0.36983 0.96732 0.00828 0.0
H77 H 0.46173 0.94114 0.13473 0.0
H78 H 0.42571 0.89255 0.13312 0.0
H79 H 0.33344 0.91884 0.00764 0.0
Gd80 Gd 0.56289 0.5419 0.9993 0.0
Gd81 Gd 0.54157 0.47843 0.01561 0.0
C82 C 0.47573 0.51558 0.01815 0.0
C83 C 0.57313 0.59369 0.95595 0.0
C84 C 0.56355 0.62339 0.96172 0.0
C85 C 0.56982 0.64245 0.0329 0.0
C86 C 0.55309 0.63423 0.89203 0.0
C87 C 0.55837 0.68309 0.96281 0.0
C88 C 0.55045 0.66364 0.89253 0.0
C89 C 0.56714 0.67193 0.03345 0.0
C90 C 0.56658 0.52935 0.1514 0.0
C91 C 0.62871 0.50468 0.99746 0.0
C92 C 0.53193 0.42645 0.05769 0.0
C93 C 0.54306 0.39727 0.04927 0.0
C94 C 0.54113 0.38011 0.97531 0.0
C95 C 0.55143 0.38501 0.11797 0.0
C96 C 0.55322 0.33835 0.03986 0.0
C97 C 0.55653 0.35598 0.11338 0.0
C98 C 0.54623 0.35101 0.97066 0.0
C99 C 0.5379 0.49119 0.8636 0.0
O100 O 0.49942 0.536 0.99071 0.0
O101 O 0.48744 0.49307 0.0449 0.0
O102 O 0.59122 0.58641 0.0166 0.0
O103 O 0.54974 0.57196 0.91754 0.0
O104 O 0.58909 0.54961 0.12439 0.0
O105 O 0.54152 0.51803 0.09846 0.0
O106 O 0.60496 0.48432 0.02484 0.0
O107 O 0.61708 0.52718 0.97052 0.0
O108 O 0.51358 0.43382 0.99754 0.0
O109 O 0.55481 0.44829 0.09693 0.0
O110 O 0.51523 0.47101 0.89053 0.0
O111 O 0.56302 0.50227 0.91659 0.0
H112 H 0.57826 0.63489 0.08762 0.0
H113 H 0.5484 0.62015 0.8362 0.0
H114 H 0.54293 0.67127 0.83727 0.0
H115 H 0.57367 0.68621 0.08863 0.0
H116 H 0.53446 0.38885 0.92118 0.0
H117 H 0.55286 0.39766 0.17575 0.0
H118 H 0.56261 0.34725 0.16786 0.0
H119 H 0.54321 0.33815 0.91305 0.0
C120 C 1.03774 0.5136 0.74702 0.0
C121 C 0.05604 0.49311 0.77967 0.0
C122 C 1.03957 0.51706 0.66618 0.0
C123 C 0.05977 0.50001 0.61612 0.0
C124 C 0.07842 0.4799 0.64966 0.0
C125 C 0.07648 0.47641 0.73007 0.0
C126 C 0.06322 0.50281 0.52966 0.0
C127 C 1.04011 0.51525 0.48507 0.0
C128 C 1.04355 0.51802 0.39857 0.0
C129 C 1.02471 0.53799 0.36485 0.0
C130 C 1.02667 0.54147 0.28442 0.0
C131 C 1.04734 0.5249 0.235 0.0
H132 H 0.07807 0.48483 0.37096 0.0
C133 C 0.0658 0.50454 0.26782 0.0
C134 C 0.06394 0.50109 0.34865 0.0
H135 H 0.08168 0.49126 0.23102 0.0
H136 H 1.02203 0.52697 0.78395 0.0
H137 H 1.02559 0.53341 0.64397 0.0
H138 H 0.09446 0.4666 0.6133 0.0
H139 H 0.09108 0.46054 0.75341 0.0
H140 H 0.08575 0.49376 0.50194 0.0
H141 H 1.01758 0.52429 0.51281 0.0
H142 H 1.00852 0.5512 0.40108 0.0
H143 H 1.01193 0.55724 0.26094 0.0
C144 C 0.54108 0.02156 0.27589 0.0
C145 C 0.56623 1.00634 0.23555 0.0
C146 C 0.53675 0.02011 0.35713 0.0
C147 C 0.55757 1.00334 0.39975 0.0
C148 C 0.58211 0.98778 0.3585 0.0
C149 C 0.58652 0.98935 0.27774 0.0
C150 C 0.55408 1.00067 0.48616 0.0
C151 C 0.54045 0.01983 0.53769 0.0
C152 C 0.53696 0.01722 0.62415 0.0
C153 C 0.51299 0.03327 0.66567 0.0
C154 C 0.50854 0.03176 0.74644 0.0
C155 C 0.52819 0.01429 0.78837 0.0
H156 H 0.57681 0.98789 0.63799 0.0
C157 C 0.55279 0.99857 0.74778 0.0
C158 C 0.55719 1.0 0.66655 0.0
H159 H 0.56856 0.98511 0.77873 0.0
H160 H 0.52483 0.03465 0.24475 0.0
H161 H 0.51668 0.0318 0.38557 0.0
H162 H 0.59829 0.97447 0.38906 0.0
H163 H 0.60597 0.97719 0.24832 0.0
H164 H 0.56381 0.98219 0.50777 0.0
H165 H 0.53079 0.03833 0.51598 0.0
H166 H 0.49727 0.04693 0.63531 0.0
H167 H 0.48952 0.04429 0.77604 0.0
C168 C 0.56723 0.51462 0.75014 0.0
C169 C 0.53828 0.49577 0.77859 0.0
C170 C 0.56761 0.51797 0.66906 0.0
C171 C 0.53896 0.50248 0.61455 0.0
C172 C 0.50977 0.48412 0.64389 0.0
C173 C 0.50949 0.48072 0.72456 0.0
C174 C 0.53755 0.50515 0.52743 0.0
C175 C 0.56713 0.51555 0.48768 0.0
C176 C 0.56569 0.5182 0.40055 0.0
C177 C 0.59474 0.53667 0.37118 0.0
C178 C 0.59497 0.54004 0.29048 0.0
C179 C 0.56627 0.52483 0.23646 0.0
H180 H 0.51473 0.4874 0.36512 0.0
C181 C 0.53747 0.50586 0.26496 0.0
C182 C 0.53713 0.50254 0.34606 0.0
H183 H 0.51513 0.49363 0.22462 0.0
H184 H 0.58965 0.52672 0.7905 0.0
H185 H 0.59014 0.53301 0.65004 0.0
H186 H 0.48711 0.47208 0.60402 0.0
H187 H 0.48665 0.46614 0.74458 0.0
H188 H 0.51077 0.49776 0.49499 0.0
H189 H 0.59391 0.52296 0.52009 0.0
H190 H 0.61732 0.54883 0.41105 0.0
H191 H 0.6177 0.55471 0.27042 0.0
C192 C 0.19628 0.53074 1.00277 0.0
C193 C 0.17119 0.50837 0.02929 0.0
C194 C 0.23468 0.52987 1.00425 0.0
C195 C 0.24907 0.50656 0.03261 0.0
C196 C 0.22387 0.48435 0.05937 0.0
C197 C 0.18558 0.48525 0.05797 0.0
C198 C 0.28957 0.50371 0.03314 0.0
C199 C 0.31781 0.52521 0.02272 0.0
C200 C 0.3582 0.52198 0.02272 0.0
C201 C 0.38367 0.54349 0.99369 0.0
C202 C 0.4217 0.54158 0.99249 0.0
C203 C 0.43546 0.51811 0.02075 0.0
H204 H 0.35417 0.4819 0.07702 0.0
C205 C 0.41015 0.49674 0.0507 0.0
C206 C 0.37214 0.49865 0.05197 0.0
H207 H 0.41967 0.47841 0.07347 0.0
H208 H 0.18625 0.54884 0.97987 0.0
H209 H 0.25258 0.54725 0.9815 0.0
H210 H 0.23381 0.46603 0.08131 0.0
H211 H 0.16723 0.46756 0.0787 0.0
H212 H 0.29596 0.48259 0.0426 0.0
H213 H 0.31147 0.54631 0.01282 0.0
H214 H 0.37408 0.56185 0.97123 0.0
H215 H 0.44027 0.55849 0.96905 0.0
C216 C 0.76897 0.15602 0.93367 0.0
C217 C 0.74322 0.14806 0.98976 0.0
C218 C 0.79145 0.18339 0.94381 0.0
C219 C 0.78862 0.20351 0.01033 0.0
C220 C 0.76294 0.19557 0.06632 0.0
C221 C 0.74033 0.16827 0.05598 0.0
C222 C 0.81337 0.23222 0.02554 0.0
C223 C 0.82928 0.24629 0.96775 0.0
C224 C 0.85536 0.27437 0.98364 0.0
C225 C 0.85956 0.29275 0.92403 0.0
C226 C 0.88504 0.31872 0.93564 0.0
C227 C 0.90726 0.32674 0.00695 0.0
H228 H 0.87607 0.26841 0.10149 0.0
C229 C 0.90305 0.30829 0.06659 0.0
C230 C 0.87749 0.28241 0.05511 0.0
H231 H 0.92033 0.31339 0.12147 0.0
H232 H 0.77251 0.14081 0.88284 0.0
H233 H 0.81172 0.18829 0.90061 0.0
H234 H 0.7603 0.21056 0.1183 0.0
H235 H 0.72046 0.16307 0.09984 0.0
H236 H 0.8176 0.24243 0.08657 0.0
H237 H 0.82217 0.23749 0.90611 0.0
H238 H 0.84306 0.28701 0.86822 0.0
H239 H 0.88727 0.33251 0.8887 0.0
C240 C 0.57833 0.90429 0.96101 0.0
C241 C 0.54847 0.91742 0.98886 0.0
C242 C 0.57779 0.87432 0.96147 0.0
C243 C 0.5472 0.85677 0.98957 0.0
C244 C 0.51745 0.87002 0.01687 0.0
C245 C 0.51798 0.89977 0.01629 0.0
C246 C 0.54529 0.82494 0.9944 0.0
C247 C 0.56647 0.80782 0.95439 0.0
C248 C 0.56329 0.77584 0.95834 0.0
C249 C 0.57686 0.75862 0.89682 0.0
C250 C 0.57488 0.72868 0.89803 0.0
C251 C 0.55948 0.71501 0.96128 0.0
H252 H 0.53828 0.77465 0.07207 0.0
C253 C 0.54626 0.73225 0.0235 0.0
C254 C 0.54815 0.76225 0.02219 0.0
H255 H 0.53424 0.72254 0.07322 0.0
H256 H 0.6024 0.91721 0.93997 0.0
H257 H 0.60173 0.86529 0.94143 0.0
H258 H 0.49353 0.85728 0.03909 0.0
H259 H 0.49439 0.90893 0.03806 0.0
H260 H 0.52403 0.81507 0.0302 0.0
H261 H 0.58577 0.81708 0.91371 0.0
H262 H 0.58907 0.76836 0.84729 0.0
H263 H 0.58612 0.71634 0.84986 0.0
C264 C 0.90764 0.48794 0.01282 0.0
C265 C 0.93288 0.51035 0.98692 0.0
C266 C 0.86929 0.48902 0.0116 0.0
C267 C 0.85514 0.51259 0.98415 0.0
C268 C 0.8805 0.53484 0.95806 0.0
C269 C 0.91872 0.53373 0.95918 0.0
C270 C 0.81474 0.51567 0.98388 0.0
C271 C 0.78631 0.49419 0.9932 0.0
C272 C 0.74603 0.49768 0.99325 0.0
C273 C 0.72036 0.47626 0.02206 0.0
C274 C 0.6824 0.47839 0.0232 0.0
C275 C 0.66892 0.502 0.99506 0.0
H276 H 0.75053 0.53783 0.9392 0.0
C277 C 0.69443 0.52328 0.96533 0.0
C278 C 0.73238 0.52115 0.96414 0.0
H279 H 0.68511 0.54171 0.94266 0.0
H280 H 0.91752 0.46965 0.03503 0.0
H281 H 0.85124 0.4716 0.03384 0.0
H282 H 0.87074 0.55335 0.93684 0.0
H283 H 0.93719 0.55146 0.93894 0.0
H284 H 0.80857 0.53696 0.97553 0.0
H285 H 0.79241 0.47293 1.0021 0.0
H286 H 0.72974 0.45779 0.04438 0.0
H287 H 0.66367 0.46153 0.04644 0.0
C288 C 0.20207 0.70914 0.05567 0.0
C289 C 0.19953 0.68833 0.98853 0.0
C290 C 0.22768 0.73496 0.06124 0.0
C291 C 0.25163 0.74041 0.99992 0.0
C292 C 0.24952 0.71931 0.93362 0.0
C293 C 0.22386 0.69356 0.928 0.0
C294 C 0.27725 0.76847 1.00005 0.0
C295 C 0.28871 0.78727 0.06574 0.0
C296 C 0.31228 0.81611 0.06411 0.0
C297 C 0.33337 0.82969 0.13326 0.0
C298 C 0.35466 0.85731 0.13502 0.0
C299 C 0.35496 0.87213 0.06779 0.0
H300 H 0.29595 0.82173 0.94294 0.0
C301 C 0.33382 0.85858 0.99857 0.0
C302 C 0.31263 0.83095 0.99672 0.0
H303 H 0.33364 0.86935 0.94561 0.0
H304 H 0.18324 0.70599 0.10264 0.0
H305 H 0.22748 0.75089 0.11233 0.0
H306 H 0.26748 0.72292 0.88536 0.0
H307 H 0.22284 0.67783 0.87583 0.0
H308 H 0.28747 0.77347 0.94338 0.0
H309 H 0.28148 0.78124 0.12348 0.0
H310 H 0.33328 0.81894 0.18631 0.0
H311 H 0.37026 0.86731 0.18959 0.0
C312 C 0.53983 0.2901 0.09346 0.0
C313 C 0.55563 0.30672 0.03585 0.0
C314 C 0.54159 0.26041 0.08966 0.0
C315 C 0.55898 0.24635 0.02756 0.0
C316 C 0.57507 0.26303 0.97049 0.0
C317 C 0.57332 0.29274 0.97432 0.0
C318 C 0.56189 0.21472 0.02115 0.0
C319 C 0.54013 0.19504 0.05842 0.0
C320 C 0.54241 0.16332 0.05156 0.0
C321 C 0.51239 0.14416 0.07539 0.0
C322 C 0.51308 0.11433 0.07078 0.0
C323 C 0.54395 0.10272 0.04256 0.0
H324 H 0.59788 0.16563 0.00738 0.0
C325 C 0.57431 0.12186 0.01967 0.0
C326 C 0.57362 0.15177 0.0243 0.0
H327 H 0.59868 0.11379 0.99815 0.0
H328 H 0.52565 0.29995 0.14136 0.0
H329 H 0.52965 0.24885 0.13631 0.0
H330 H 0.58902 0.25303 0.92237 0.0
H331 H 0.58626 0.30482 0.92943 0.0
H332 H 0.58186 0.2074 0.98129 0.0
H333 H 0.51825 0.20201 0.09339 0.0
H334 H 0.48807 0.15228 0.09728 0.0
H335 H 0.48916 0.10033 0.0891 0.0
loop_
_geom_bond_atom_site_label_1
_geom_bond_atom_site_label_2
_geom_bond_distance
_geom_bond_site_symmetry_2
_ccdc_geom_bond_type
Gd0 C3 2.818 . S
Gd0 O20 2.377 . S
Gd0 O22 2.448 . S
Gd0 O23 2.506 1_556 S
Gd0 O24 2.435 . S
Gd0 O25 2.717 1_655 S
Gd0 O27 2.395 1_655 S
Gd0 O31 2.327 1_556 S
Gd1 C12 2.818 . S
Gd1 O21 2.395 1_455 S
Gd1 O25 2.327 1_554 S
Gd1 O26 2.377 . S
Gd1 O28 2.448 . S
Gd1 O29 2.506 1_554 S
Gd1 O30 2.435 . S
Gd1 O31 2.717 1_455 S
C2 O20 1.241 . S
C2 O21 1.240 1_556 S
C3 Gd0 2.818 . S
C3 C4 1.510 . S
C3 O22 1.249 . S
C3 O23 1.252 1_556 S
C4 C3 1.510 . S
C4 C5 1.404 . S
C4 C6 1.352 1_556 S
C5 C4 1.404 . S
C5 C9 1.389 . S
C5 H32 0.930 . S
C6 C4 1.352 1_554 S
C6 C8 1.374 . S
C6 H33 0.931 . S
C7 C8 1.356 1_556 S
C7 C9 1.367 . S
C8 C6 1.374 . S
C8 C7 1.356 1_554 S
C8 H34 0.931 . S
C9 C5 1.389 . S
C9 C7 1.367 . S
C9 H35 0.931 . S
C10 O24 1.252 1_455 S
C10 O25 1.260 . S
C11 O26 1.245 . S
C11 O27 1.238 1_554 S
C12 Gd1 2.818 . S
C12 C13 1.510 . S
C12 O28 1.249 . S
C12 O29 1.252 1_554 S
C13 C12 1.510 . S
C13 C14 1.404 . S
C13 C15 1.352 1_554 S
C14 C13 1.404 . S
C14 C18 1.389 . S
C14 H36 0.930 . S
C15 C13 1.352 1_556 S
C15 C17 1.374 . S
C15 H37 0.931 . S
C16 C17 1.350 1_554 S
C16 C18 1.375 . S
C17 C15 1.374 . S
C17 C16 1.350 1_556 S
C17 H38 0.931 . S
C18 C14 1.389 . S
C18 C16 1.375 . S
C18 H39 0.931 . S
C19 O30 1.256 . S
C19 O31 1.257 1_455 S
O20 Gd0 2.377 . S
O20 C2 1.241 . S
O21 Gd1 2.395 1_655 S
O21 C2 1.240 1_554 S
O22 Gd0 2.448 . S
O22 C3 1.249 . S
O23 Gd0 2.506 1_554 S
O23 C3 1.252 1_554 S
O24 Gd0 2.435 . S
O24 C10 1.252 1_655 S
O25 Gd0 2.717 1_455 S
O25 Gd1 2.327 1_556 S
O25 C10 1.260 . S
O26 Gd1 2.377 . S
O26 C11 1.245 . S
O27 Gd0 2.395 1_455 S
O27 C11 1.238 1_556 S
O28 Gd1 2.448 . S
O28 C12 1.249 . S
O29 Gd1 2.506 1_556 S
O29 C12 1.252 1_556 S
O30 Gd1 2.435 . S
O30 C19 1.256 . S
O31 Gd0 2.327 1_554 S
O31 Gd1 2.717 1_655 S
O31 C19 1.257 1_655 S
H32 C5 0.930 . S
H33 C6 0.931 . S
H34 C8 0.931 . S
H35 C9 0.931 . S
H36 C14 0.930 . S
H37 C15 0.931 . S
H38 C17 0.931 . S
H39 C18 0.931 . S
Gd40 C43 2.818 . S
Gd40 O60 2.377 . S
Gd40 O62 2.448 . S
Gd40 O63 2.506 1_554 S
Gd40 O64 2.435 . S
Gd40 O65 2.717 1_545 S
Gd40 O67 2.395 1_545 S
Gd40 O71 2.327 1_554 S
Gd41 C52 2.818 . S
Gd41 O61 2.395 1_565 S
Gd41 O65 2.327 1_556 S
Gd41 O66 2.377 . S
Gd41 O68 2.448 . S
Gd41 O69 2.506 1_556 S
Gd41 O70 2.435 . S
Gd41 O71 2.717 1_565 S
C42 O60 1.240 . S
C42 O61 1.240 1_554 S
C43 Gd40 2.818 . S
C43 C44 1.508 1_554 S
C43 O62 1.249 . S
C43 O63 1.252 1_554 S
C44 C43 1.508 1_556 S
C44 C45 1.394 1_556 S
C44 C46 1.364 . S
C45 C44 1.394 1_554 S
C45 C49 1.389 . S
C45 H72 0.930 . S
C46 C44 1.364 . S
C46 C48 1.374 . S
C46 H73 0.931 . S
C47 C48 1.359 . S
C47 C49 1.364 1_556 S
C48 C46 1.374 . S
C48 C47 1.359 . S
C48 H74 0.931 . S
C49 C45 1.389 . S
C49 C47 1.364 1_554 S
C49 H75 0.931 . S
C50 O64 1.256 . S
C50 O65 1.257 1_545 S
C51 O66 1.240 . S
C51 O67 1.240 1_556 S
C52 Gd41 2.818 . S
C52 C53 1.510 1_556 S
C52 O68 1.249 . S
C52 O69 1.252 1_556 S
C53 C52 1.510 1_554 S
C53 C54 1.404 1_554 S
C53 C55 1.352 . S
C54 C53 1.404 1_556 S
C54 C58 1.389 . S
C54 H76 0.930 . S
C55 C53 1.352 . S
C55 C57 1.374 . S
C55 H77 0.931 . S
C56 C57 1.359 . S
C56 C58 1.364 1_554 S
C57 C55 1.374 . S
C57 C56 1.359 . S
C57 H78 0.931 . S
C58 C54 1.389 . S
C58 C56 1.364 1_556 S
C58 H79 0.931 . S
C59 O70 1.256 . S
C59 O71 1.257 1_565 S
O60 Gd40 2.377 . S
O60 C42 1.240 . S
O61 Gd41 2.395 1_545 S
O61 C42 1.240 1_556 S
O62 Gd40 2.448 . S
O62 C43 1.249 . S
O63 Gd40 2.506 1_556 S
O63 C43 1.252 1_556 S
O64 Gd40 2.435 . S
O64 C50 1.256 . S
O65 Gd40 2.717 1_565 S
O65 Gd41 2.327 1_554 S
O65 C50 1.257 1_565 S
O66 Gd41 2.377 . S
O66 C51 1.240 . S
O67 Gd40 2.395 1_565 S
O67 C51 1.240 1_554 S
O68 Gd41 2.448 . S
O68 C52 1.249 . S
O69 Gd41 2.506 1_554 S
O69 C52 1.252 1_554 S
O70 Gd41 2.435 . S
O70 C59 1.256 . S
O71 Gd40 2.327 1_556 S
O71 Gd41 2.717 1_545 S
O71 C59 1.257 1_545 S
H72 C45 0.930 . S
H73 C46 0.931 . S
H74 C48 0.931 . S
H75 C49 0.931 . S
H76 C54 0.930 . S
H77 C55 0.931 . S
H78 C57 0.931 . S
H79 C58 0.931 . S
Gd80 C83 2.818 . S
Gd80 O100 2.377 . S
Gd80 O102 2.448 . S
Gd80 O103 2.506 1_554 S
Gd80 O104 2.435 . S
Gd80 O105 2.717 . S
Gd80 O107 2.395 . S
Gd80 O111 2.327 1_554 S
Gd81 C92 2.818 . S
Gd81 O101 2.395 . S
Gd81 O105 2.327 1_556 S
Gd81 O106 2.377 . S
Gd81 O108 2.448 . S
Gd81 O109 2.506 1_556 S
Gd81 O110 2.435 . S
Gd81 O111 2.717 . S
C82 O100 1.239 1_556 S
C82 O101 1.241 . S
C83 Gd80 2.818 . S
C83 C84 1.510 . S
C83 O102 1.249 . S
C83 O103 1.252 1_554 S
C84 C83 1.510 . S
C84 C85 1.404 . S
C84 C86 1.352 1_554 S
C85 C84 1.404 . S
C85 C89 1.389 . S
C85 H112 0.930 . S
C86 C84 1.352 1_556 S
C86 C88 1.374 . S
C86 H113 0.931 . S
C87 C88 1.359 . S
C87 C89 1.364 1_556 S
C88 C86 1.374 . S
C88 C87 1.359 . S
C88 H114 0.931 . S
C89 C85 1.389 . S
C89 C87 1.364 1_554 S
C89 H115 0.931 . S
C90 O104 1.256 . S
C90 O105 1.257 . S
C91 O106 1.236 1_554 S
C91 O107 1.242 . S
C92 Gd81 2.818 . S
C92 C93 1.510 . S
C92 O108 1.249 . S
C92 O109 1.252 1_556 S
C93 C92 1.510 . S
C93 C94 1.404 . S
C93 C95 1.352 1_556 S
C94 C93 1.404 . S
C94 C98 1.389 . S
C94 H116 0.930 . S
C95 C93 1.352 1_554 S
C95 C97 1.374 . S
C95 H117 0.931 . S
C96 C97 1.359 . S
C96 C98 1.364 1_554 S
C97 C95 1.374 . S
C97 C96 1.359 . S
C97 H118 0.931 . S
C98 C94 1.389 . S
C98 C96 1.364 1_556 S
C98 H119 0.931 . S
C99 O110 1.256 . S
C99 O111 1.257 . S
O100 Gd80 2.377 . S
O100 C82 1.239 1_554 S
O101 Gd81 2.395 . S
O101 C82 1.241 . S
O102 Gd80 2.448 . S
O102 C83 1.249 . S
O103 Gd80 2.506 1_556 S
O103 C83 1.252 1_556 S
O104 Gd80 2.435 . S
O104 C90 1.256 . S
O105 Gd80 2.717 . S
O105 Gd81 2.327 1_554 S
O105 C90 1.257 . S
O106 Gd81 2.377 . S
O106 C91 1.236 1_556 S
O107 Gd80 2.395 . S
O107 C91 1.242 . S
O108 Gd81 2.448 . S
O108 C92 1.249 . S
O109 Gd81 2.506 1_554 S
O109 C92 1.252 1_554 S
O110 Gd81 2.435 . S
O110 C99 1.256 . S
O111 Gd80 2.327 1_556 S
O111 Gd81 2.717 . S
O111 C99 1.257 . S
H112 C85 0.930 . S
H113 C86 0.931 . S
H114 C88 0.931 . S
H115 C89 0.931 . S
H116 C94 0.930 . S
H117 C95 0.931 . S
H118 C97 0.931 . S
H119 C98 0.931 . S
C120 C121 1.377 1_655 S
C120 C122 1.379 1_655 S
C120 H136 0.963 . S
C121 C120 1.377 1_455 S
C121 C125 1.383 . S
C122 C120 1.379 1_455 S
C122 C123 1.402 . S
C122 H137 0.951 1_455 S
C123 C122 1.402 . S
C123 C124 1.375 . S
C123 C126 1.481 . S
C124 C123 1.375 . S
C124 C125 1.367 . S
C124 H138 0.951 . S
C125 C121 1.383 . S
C125 C124 1.367 . S
C125 H139 0.950 . S
C126 C123 1.481 . S
C126 C127 1.297 . S
C126 H140 0.950 . S
C127 C126 1.297 . S
C127 C128 1.479 . S
C127 H141 0.950 . S
C128 C127 1.479 . S
C128 C129 1.375 . S
C128 C134 1.404 . S
C129 C128 1.375 . S
C129 C130 1.369 1_455 S
C129 H142 0.950 1_455 S
C130 C129 1.369 1_655 S
C130 C131 1.392 1_655 S
C130 H143 0.951 . S
C131 C130 1.392 1_455 S
C131 C133 1.384 . S
H132 C134 0.949 . S
C133 C131 1.384 . S
C133 C134 1.385 . S
C133 H135 0.950 . S
C134 C128 1.404 . S
C134 H132 0.949 . S
C134 C133 1.385 . S
H135 C133 0.950 . S
H136 C120 0.963 . S
H137 C122 0.951 1_655 S
H138 C124 0.951 . S
H139 C125 0.950 . S
H140 C126 0.950 . S
H141 C127 0.950 . S
H142 C129 0.950 1_655 S
H143 C130 0.951 . S
C144 C145 1.375 1_565 S
C144 C146 1.383 . S
C144 H160 0.951 . S
C145 C144 1.375 1_545 S
C145 C149 1.390 . S
C146 C144 1.383 . S
C146 C147 1.402 1_565 S
C146 H161 0.951 . S
C147 C146 1.402 1_545 S
C147 C148 1.375 . S
C147 C150 1.486 . S
C148 C147 1.375 . S
C148 C149 1.367 . S
C148 H162 0.951 . S
C149 C145 1.390 . S
C149 C148 1.367 . S
C149 H163 0.950 . S
C150 C147 1.486 . S
C150 C151 1.277 1_545 S
C150 H164 0.968 . S
C151 C150 1.277 1_565 S
C151 C152 1.479 . S
C151 H165 0.950 . S
C152 C151 1.479 . S
C152 C153 1.375 . S
C152 C158 1.404 1_565 S
C153 C152 1.375 . S
C153 C154 1.369 . S
C153 H166 0.950 . S
C154 C153 1.369 . S
C154 C155 1.392 . S
C154 H167 0.951 . S
C155 C154 1.392 . S
C155 C157 1.384 1_565 S
H156 C158 0.949 . S
C157 C155 1.384 1_545 S
C157 C158 1.385 . S
C157 H159 0.950 . S
C158 C152 1.404 1_545 S
C158 H156 0.949 . S
C158 C157 1.385 . S
H159 C157 0.950 . S
H160 C144 0.951 . S
H161 C146 0.951 . S
H162 C148 0.951 . S
H163 C149 0.950 . S
H164 C150 0.968 . S
H165 C151 0.950 . S
H166 C153 0.950 . S
H167 C154 0.951 . S
C168 C169 1.386 . S
C168 C170 1.383 . S
C168 H184 0.951 . S
C169 C168 1.386 . S
C169 C173 1.383 . S
C170 C168 1.383 . S
C170 C171 1.402 . S
C170 H185 0.951 . S
C171 C170 1.402 . S
C171 C172 1.375 . S
C171 C174 1.481 . S
C172 C171 1.375 . S
C172 C173 1.367 . S
C172 H186 0.951 . S
C173 C169 1.383 . S
C173 C172 1.367 . S
C173 H187 0.950 . S
C174 C171 1.481 . S
C174 C175 1.297 . S
C174 H188 0.950 . S
C175 C174 1.297 . S
C175 C176 1.479 . S
C175 H189 0.950 . S
C176 C175 1.479 . S
C176 C177 1.375 . S
C176 C182 1.404 . S
C177 C176 1.375 . S
C177 C178 1.369 . S
C177 H190 0.950 . S
C178 C177 1.369 . S
C178 C179 1.392 . S
C178 H191 0.951 . S
C179 C178 1.392 . S
C179 C181 1.384 . S
H180 C182 0.949 . S
C181 C179 1.384 . S
C181 C182 1.385 . S
C181 H183 0.950 . S
C182 C176 1.404 . S
C182 H180 0.949 . S
C182 C181 1.385 . S
H183 C181 0.950 . S
H184 C168 0.951 . S
H185 C170 0.951 . S
H186 C172 0.951 . S
H187 C173 0.950 . S
H188 C174 0.950 . S
H189 C175 0.950 . S
H190 C177 0.950 . S
H191 C178 0.951 . S
C192 C193 1.386 1_554 S
C192 C194 1.383 . S
C192 H208 0.951 . S
C193 C192 1.386 1_556 S
C193 C197 1.383 . S
C194 C192 1.383 . S
C194 C195 1.402 1_554 S
C194 H209 0.951 . S
C195 C194 1.402 1_556 S
C195 C196 1.375 . S
C195 C198 1.481 . S
C196 C195 1.375 . S
C196 C197 1.367 . S
C196 H210 0.951 . S
C197 C193 1.383 . S
C197 C196 1.367 . S
C197 H211 0.950 . S
C198 C195 1.481 . S
C198 C199 1.297 1_556 S
C198 H212 0.950 . S
C199 C198 1.297 1_554 S
C199 C200 1.479 . S
C199 H213 0.950 . S
C200 C199 1.479 . S
C200 C201 1.375 . S
C200 C206 1.404 1_554 S
C201 C200 1.375 . S
C201 C202 1.369 . S
C201 H214 0.950 . S
C202 C201 1.369 . S
C202 C203 1.392 . S
C202 H215 0.951 . S
C203 C202 1.392 . S
C203 C205 1.384 1_554 S
H204 C206 0.949 . S
C205 C203 1.384 1_556 S
C205 C206 1.385 . S
C205 H207 0.950 . S
C206 C200 1.404 1_556 S
C206 H204 0.949 . S
C206 C205 1.385 . S
H207 C205 0.950 . S
H208 C192 0.951 . S
H209 C194 0.951 . S
H210 C196 0.951 . S
H211 C197 0.950 . S
H212 C198 0.950 . S
H213 C199 0.950 . S
H214 C201 0.950 . S
H215 C202 0.951 . S
C216 C217 1.386 . S
C216 C218 1.383 . S
C216 H232 0.951 . S
C217 C216 1.386 . S
C217 C221 1.383 1_556 S
C218 C216 1.383 . S
C218 C219 1.402 1_556 S
C218 H233 0.951 . S
C219 C218 1.402 1_554 S
C219 C220 1.375 . S
C219 C222 1.481 . S
C220 C219 1.375 . S
C220 C221 1.367 . S
C220 H234 0.951 . S
C221 C217 1.383 1_554 S
C221 C220 1.367 . S
C221 H235 0.950 . S
C222 C219 1.481 . S
C222 C223 1.297 1_554 S
C222 H236 0.950 . S
C223 C222 1.297 1_556 S
C223 C224 1.479 . S
C223 H237 0.950 . S
C224 C223 1.479 . S
C224 C225 1.375 . S
C224 C230 1.404 1_556 S
C225 C224 1.375 . S
C225 C226 1.369 . S
C225 H238 0.950 . S
C226 C225 1.369 . S
C226 C227 1.392 . S
C226 H239 0.951 . S
C227 C226 1.392 . S
C227 C229 1.384 1_556 S
H228 C230 0.949 . S
C229 C227 1.384 1_554 S
C229 C230 1.385 . S
C229 H231 0.950 . S
C230 C224 1.404 1_554 S
C230 H228 0.949 . S
C230 C229 1.385 . S
H231 C229 0.950 . S
H232 C216 0.951 . S
H233 C218 0.951 . S
H234 C220 0.951 . S
H235 C221 0.950 . S
H236 C222 0.950 . S
H237 C223 0.950 . S
H238 C225 0.950 . S
H239 C226 0.951 . S
C240 C241 1.386 1_556 S
C240 C242 1.383 . S
C240 H256 0.951 . S
C241 C240 1.386 1_554 S
C241 C245 1.383 . S
C242 C240 1.383 . S
C242 C243 1.402 1_556 S
C242 H257 0.951 . S
C243 C242 1.402 1_554 S
C243 C244 1.375 . S
C243 C246 1.481 . S
C244 C243 1.375 . S
C244 C245 1.367 . S
C244 H258 0.951 . S
C245 C241 1.383 . S
C245 C244 1.367 . S
C245 H259 0.950 . S
C246 C243 1.481 . S
C246 C247 1.297 . S
C246 H260 0.950 . S
C247 C246 1.297 . S
C247 C248 1.479 . S
C247 H261 0.950 1_554 S
C248 C247 1.479 . S
C248 C249 1.375 1_554 S
C248 C254 1.404 . S
C249 C248 1.375 1_556 S
C249 C250 1.369 . S
C249 H262 0.950 . S
C250 C249 1.369 . S
C250 C251 1.392 1_556 S
C250 H263 0.951 . S
C251 C250 1.392 1_554 S
C251 C253 1.384 . S
H252 C254 0.949 . S
C253 C251 1.384 . S
C253 C254 1.385 . S
C253 H255 0.950 . S
C254 C248 1.404 . S
C254 H252 0.949 . S
C254 C253 1.385 . S
H255 C253 0.950 . S
H256 C240 0.951 . S
H257 C242 0.951 . S
H258 C244 0.951 . S
H259 C245 0.950 . S
H260 C246 0.950 . S
H261 C247 0.950 1_556 S
H262 C249 0.950 . S
H263 C250 0.951 . S
C264 C265 1.386 1_556 S
C264 C266 1.383 . S
C264 H280 0.951 . S
C265 C264 1.386 1_554 S
C265 C269 1.383 . S
C266 C264 1.383 . S
C266 C267 1.402 1_556 S
C266 H281 0.951 . S
C267 C266 1.402 1_554 S
C267 C268 1.375 . S
C267 C270 1.481 . S
C268 C267 1.375 . S
C268 C269 1.367 . S
C268 H282 0.951 . S
C269 C265 1.383 . S
C269 C268 1.367 . S
C269 H283 0.950 . S
C270 C267 1.481 . S
C270 C271 1.297 . S
C270 H284 0.950 . S
C271 C270 1.297 . S
C271 C272 1.479 . S
C271 H285 0.950 1_554 S
C272 C271 1.479 . S
C272 C273 1.375 1_554 S
C272 C278 1.404 . S
C273 C272 1.375 1_556 S
C273 C274 1.369 . S
C273 H286 0.950 . S
C274 C273 1.369 . S
C274 C275 1.392 1_556 S
C274 H287 0.951 . S
C275 C274 1.392 1_554 S
C275 C277 1.384 . S
H276 C278 0.949 . S
C277 C275 1.384 . S
C277 C278 1.385 . S
C277 H279 0.950 . S
C278 C272 1.404 . S
C278 H276 0.949 . S
C278 C277 1.385 . S
H279 C277 0.950 . S
H280 C264 0.951 . S
H281 C266 0.951 . S
H282 C268 0.951 . S
H283 C269 0.950 . S
H284 C270 0.950 . S
H285 C271 0.950 1_556 S
H286 C273 0.950 . S
H287 C274 0.951 . S
C288 C289 1.386 . S
C288 C290 1.383 . S
C288 H304 0.951 . S
C289 C288 1.386 . S
C289 C293 1.383 1_554 S
C290 C288 1.383 . S
C290 C291 1.401 . S
C290 H305 0.951 . S
C291 C290 1.401 . S
C291 C292 1.376 1_554 S
C291 C294 1.481 1_554 S
C292 C291 1.376 1_556 S
C292 C293 1.367 . S
C292 H306 0.951 . S
C293 C289 1.383 1_556 S
C293 C292 1.367 . S
C293 H307 0.950 . S
C294 C291 1.481 1_556 S
C294 C295 1.297 1_556 S
C294 H308 0.950 . S
C295 C294 1.297 1_554 S
C295 C296 1.479 . S
C295 H309 0.950 . S
C296 C295 1.479 . S
C296 C297 1.375 . S
C296 C302 1.404 1_554 S
C297 C296 1.375 . S
C297 C298 1.369 . S
C297 H310 0.950 . S
C298 C297 1.369 . S
C298 C299 1.392 . S
C298 H311 0.951 . S
C299 C298 1.392 . S
C299 C301 1.384 1_554 S
H300 C302 0.949 . S
C301 C299 1.384 1_556 S
C301 C302 1.385 . S
C301 H303 0.950 . S
C302 C296 1.404 1_556 S
C302 H300 0.949 . S
C302 C301 1.385 . S
H303 C301 0.950 . S
H304 C288 0.951 . S
H305 C290 0.951 . S
H306 C292 0.951 . S
H307 C293 0.950 . S
H308 C294 0.950 . S
H309 C295 0.950 . S
H310 C297 0.950 . S
H311 C298 0.951 . S
C312 C313 1.386 1_554 S
C312 C314 1.383 . S
C312 H328 0.951 . S
C313 C312 1.386 1_556 S
C313 C317 1.383 . S
C314 C312 1.383 . S
C314 C315 1.402 1_554 S
C314 H329 0.951 . S
C315 C314 1.402 1_556 S
C315 C316 1.375 . S
C315 C318 1.481 . S
C316 C315 1.375 . S
C316 C317 1.367 . S
C316 H330 0.951 . S
C317 C313 1.383 . S
C317 C316 1.367 . S
C317 H331 0.950 . S
C318 C315 1.481 . S
C318 C319 1.297 . S
C318 H332 0.950 . S
C319 C318 1.297 . S
C319 C320 1.479 . S
C319 H333 0.950 . S
C320 C319 1.479 . S
C320 C321 1.375 1_556 S
C320 C326 1.404 . S
C321 C320 1.375 1_554 S
C321 C322 1.369 . S
C321 H334 0.950 . S
C322 C321 1.369 . S
C322 C323 1.392 1_554 S
C322 H335 0.951 . S
C323 C322 1.392 1_556 S
C323 C325 1.384 . S
H324 C326 0.949 . S
C325 C323 1.384 . S
C325 C326 1.385 . S
C325 H327 0.950 . S
C326 C320 1.404 . S
C326 H324 0.949 . S
C326 C325 1.385 . S
H327 C325 0.950 . S
H328 C312 0.951 . S
H329 C314 0.951 . S
H330 C316 0.951 . S
H331 C317 0.950 . S
H332 C318 0.950 . S
H333 C319 0.950 . S
H334 C321 0.950 . S
H335 C322 0.951 . S
C121 C10 1.455 . S
C131 C19 1.419 . S
C145 C50 1.434 . S
C155 C59 1.454 . S
C169 C99 1.439 . S
C179 C90 1.448 . S
C193 C11 2.605 1_556 S
C203 C82 2.545 1_554 S
C217 C47 0.877 . S
C227 C7 0.914 . S
C241 C51 1.971 1_554 S
C251 C87 1.893 1_554 S
C265 C2 2.613 1_554 S
C275 C91 2.585 . S
C289 C16 0.902 . S
C299 C56 0.868 . S
C313 C96 1.938 1_556 S
C323 C42 1.972 1_556 S
