# Generated by pormake.
# Topology whz, (6)-cn, num edge types: 1
# Building blocks:
#     Node 0, Type 0, BuildingBlock: FUNLAD_clean_sbu_0, # of connection points: 6
#     Node 1, Type 0, BuildingBlock: FUNLAD_clean_sbu_0, # of connection points: 6
#     Node 2, Type 0, BuildingBlock: FUNLAD_clean_sbu_0, # of connection points: 6
#     Node 3, Type 0, BuildingBlock: FUNLAD_clean_sbu_0, # of connection points: 6
#     Node 4, Type 0, BuildingBlock: FUNLAD_clean_sbu_0, # of connection points: 6
#     Node 5, Type 0, BuildingBlock: FUNLAD_clean_sbu_0, # of connection points: 6
#     Node 6, Type 0, BuildingBlock: FUNLAD_clean_sbu_0, # of connection points: 6
#     Node 7, Type 0, BuildingBlock: FUNLAD_clean_sbu_0, # of connection points: 6
#     Node 8, Type 0, BuildingBlock: FUNLAD_clean_sbu_0, # of connection points: 6
#     Node 9, Type 0, BuildingBlock: FUNLAD_clean_sbu_0, # of connection points: 6
#     Node 10, Type 0, BuildingBlock: FUNLAD_clean_sbu_0, # of connection points: 6
#     Node 11, Type 0, BuildingBlock: FUNLAD_clean_sbu_0, # of connection points: 6
#     Node 12, Type 0, BuildingBlock: FUNLAD_clean_sbu_0, # of connection points: 6
#     Node 13, Type 0, BuildingBlock: FUNLAD_clean_sbu_0, # of connection points: 6
#     Node 14, Type 0, BuildingBlock: FUNLAD_clean_sbu_0, # of connection points: 6
#     Node 15, Type 0, BuildingBlock: FUNLAD_clean_sbu_0, # of connection points: 6
#     Edge 16, Type (0, 0), BuildingBlock: ZUJKAS_clean_linker_0, # of connection points: 2
#     Edge 17, Type (0, 0), BuildingBlock: ZUJKAS_clean_linker_0, # of connection points: 2
#     Edge 18, Type (0, 0), BuildingBlock: ZUJKAS_clean_linker_0, # of connection points: 2
#     Edge 19, Type (0, 0), BuildingBlock: ZUJKAS_clean_linker_0, # of connection points: 2
#     Edge 20, Type (0, 0), BuildingBlock: ZUJKAS_clean_linker_0, # of connection points: 2
#     Edge 21, Type (0, 0), BuildingBlock: ZUJKAS_clean_linker_0, # of connection points: 2
#     Edge 22, Type (0, 0), BuildingBlock: ZUJKAS_clean_linker_0, # of connection points: 2
#     Edge 23, Type (0, 0), BuildingBlock: ZUJKAS_clean_linker_0, # of connection points: 2
#     Edge 24, Type (0, 0), BuildingBlock: ZUJKAS_clean_linker_0, # of connection points: 2
#     Edge 25, Type (0, 0), BuildingBlock: ZUJKAS_clean_linker_0, # of connection points: 2
#     Edge 26, Type (0, 0), BuildingBlock: ZUJKAS_clean_linker_0, # of connection points: 2
#     Edge 27, Type (0, 0), BuildingBlock: ZUJKAS_clean_linker_0, # of connection points: 2
#     Edge 28, Type (0, 0), BuildingBlock: ZUJKAS_clean_linker_0, # of connection points: 2
#     Edge 29, Type (0, 0), BuildingBlock: ZUJKAS_clean_linker_0, # of connection points: 2
#     Edge 30, Type (0, 0), BuildingBlock: ZUJKAS_clean_linker_0, # of connection points: 2
#     Edge 31, Type (0, 0), BuildingBlock: ZUJKAS_clean_linker_0, # of connection points: 2
#     Edge 32, Type (0, 0), BuildingBlock: ZUJKAS_clean_linker_0, # of connection points: 2
#     Edge 33, Type (0, 0), BuildingBlock: ZUJKAS_clean_linker_0, # of connection points: 2
#     Edge 34, Type (0, 0), BuildingBlock: ZUJKAS_clean_linker_0, # of connection points: 2
#     Edge 35, Type (0, 0), BuildingBlock: ZUJKAS_clean_linker_0, # of connection points: 2
#     Edge 36, Type (0, 0), BuildingBlock: ZUJKAS_clean_linker_0, # of connection points: 2
#     Edge 37, Type (0, 0), BuildingBlock: ZUJKAS_clean_linker_0, # of connection points: 2
#     Edge 38, Type (0, 0), BuildingBlock: ZUJKAS_clean_linker_0, # of connection points: 2
#     Edge 39, Type (0, 0), BuildingBlock: ZUJKAS_clean_linker_0, # of connection points: 2
#     Edge 40, Type (0, 0), BuildingBlock: ZUJKAS_clean_linker_0, # of connection points: 2
#     Edge 41, Type (0, 0), BuildingBlock: ZUJKAS_clean_linker_0, # of connection points: 2
#     Edge 42, Type (0, 0), BuildingBlock: ZUJKAS_clean_linker_0, # of connection points: 2
#     Edge 43, Type (0, 0), BuildingBlock: ZUJKAS_clean_linker_0, # of connection points: 2
#     Edge 44, Type (0, 0), BuildingBlock: ZUJKAS_clean_linker_0, # of connection points: 2
#     Edge 45, Type (0, 0), BuildingBlock: ZUJKAS_clean_linker_0, # of connection points: 2
#     Edge 46, Type (0, 0), BuildingBlock: ZUJKAS_clean_linker_0, # of connection points: 2
#     Edge 47, Type (0, 0), BuildingBlock: ZUJKAS_clean_linker_0, # of connection points: 2
#     Edge 48, Type (0, 0), BuildingBlock: ZUJKAS_clean_linker_0, # of connection points: 2
#     Edge 49, Type (0, 0), BuildingBlock: ZUJKAS_clean_linker_0, # of connection points: 2
#     Edge 50, Type (0, 0), BuildingBlock: ZUJKAS_clean_linker_0, # of connection points: 2
#     Edge 51, Type (0, 0), BuildingBlock: ZUJKAS_clean_linker_0, # of connection points: 2
#     Edge 52, Type (0, 0), BuildingBlock: ZUJKAS_clean_linker_0, # of connection points: 2
#     Edge 53, Type (0, 0), BuildingBlock: ZUJKAS_clean_linker_0, # of connection points: 2
#     Edge 54, Type (0, 0), BuildingBlock: ZUJKAS_clean_linker_0, # of connection points: 2
#     Edge 55, Type (0, 0), BuildingBlock: ZUJKAS_clean_linker_0, # of connection points: 2
#     Edge 56, Type (0, 0), BuildingBlock: ZUJKAS_clean_linker_0, # of connection points: 2
#     Edge 57, Type (0, 0), BuildingBlock: ZUJKAS_clean_linker_0, # of connection points: 2
#     Edge 58, Type (0, 0), BuildingBlock: ZUJKAS_clean_linker_0, # of connection points: 2
#     Edge 59, Type (0, 0), BuildingBlock: ZUJKAS_clean_linker_0, # of connection points: 2
#     Edge 60, Type (0, 0), BuildingBlock: ZUJKAS_clean_linker_0, # of connection points: 2
#     Edge 61, Type (0, 0), BuildingBlock: ZUJKAS_clean_linker_0, # of connection points: 2
#     Edge 62, Type (0, 0), BuildingBlock: ZUJKAS_clean_linker_0, # of connection points: 2
#     Edge 63, Type (0, 0), BuildingBlock: ZUJKAS_clean_linker_0, # of connection points: 2
# Relax obj value: 0.634
# Max RMSD: 0.286
# Mean RMSD: 0.286
data_MOF--net-whz--node1-FUNLAD_clean_sbu_0--edge1-ZUJKAS_clean_linker_0
_symmetry_space_group_name_H-M    P1
_symmetry_Int_Tables_number       1
_symmetry_cell_setting            triclinic
loop_
_symmetry_equiv_pos_as_xyz
'x, y, z'
_cell_length_a     47.774932
_cell_length_b     47.747349
_cell_length_c     71.094064
_cell_angle_alpha  90.024055
_cell_angle_beta   90.005108
_cell_angle_gamma 89.947021
loop_
_atom_site_label
_atom_site_type_symbol
_atom_site_fract_x
_atom_site_fract_y
_atom_site_fract_z
_atom_type_partial_charge
C0 C 0.32439 0.12714 0.10306 0.0
N1 N 0.28995 0.20507 0.1178 0.0
C2 C 0.30264 0.21923 0.10352 0.0
C3 C 0.29173 0.24493 0.09739 0.0
C4 C 0.26792 0.25596 0.1063 0.0
C5 C 0.25472 0.24033 0.12037 0.0
C6 C 0.26607 0.21488 0.1259 0.0
Zn7 Zn 0.30661 0.17033 0.13026 0.0
C8 C 0.26323 0.12812 0.13911 0.0
N9 N 0.33869 0.09866 0.15974 0.0
C10 C 0.36313 0.08456 0.15678 0.0
C11 C 0.32073 0.09063 0.17361 0.0
C12 C 0.32644 0.06745 0.18474 0.0
C13 C 0.35125 0.05252 0.18206 0.0
C14 C 0.37004 0.06133 0.16805 0.0
Zn15 Zn 0.32507 0.13327 0.14488 0.0
O16 O 0.31314 0.15112 0.10454 0.0
C17 C 0.36865 0.17529 0.13634 0.0
O18 O 0.33204 0.11374 0.11775 0.0
H19 H 0.30177 0.10231 0.17626 0.0
H20 H 0.32167 0.21109 0.09734 0.0
H21 H 0.37727 0.09137 0.14582 0.0
O22 O 0.34748 0.18756 0.12919 0.0
O23 O 0.36557 0.15149 0.14417 0.0
H24 H 0.25627 0.20351 0.13726 0.0
O25 O 0.31696 0.15385 0.17146 0.0
O26 O 0.30052 0.18971 0.15589 0.0
O27 O 0.28491 0.11586 0.14515 0.0
O28 O 0.26562 0.15222 0.13176 0.0
C29 C 0.30635 0.17826 0.17141 0.0
H30 H 0.3024 0.25658 0.08647 0.0
H31 H 0.23614 0.24811 0.1274 0.0
H32 H 0.31177 0.06155 0.19567 0.0
H33 H 0.38958 0.05033 0.16581 0.0
C34 C 0.61662 0.57208 0.35135 0.0
N35 N 0.53924 0.53424 0.36174 0.0
C36 C 0.52543 0.54673 0.34722 0.0
C37 C 0.50243 0.53339 0.33885 0.0
C38 C 0.49409 0.50689 0.34539 0.0
C39 C 0.50913 0.49445 0.36009 0.0
C40 C 0.53148 0.50856 0.36815 0.0
Zn41 Zn 0.57108 0.55274 0.37636 0.0
C42 C 0.61434 0.51104 0.38775 0.0
N43 N 0.63801 0.58729 0.40933 0.0
C44 C 0.65484 0.60951 0.40526 0.0
C45 C 0.642 0.57204 0.42531 0.0
C46 C 0.66277 0.57915 0.43807 0.0
C47 C 0.68022 0.60199 0.43444 0.0
C48 C 0.67646 0.61718 0.41769 0.0
Zn49 Zn 0.60596 0.57221 0.39267 0.0
O50 O 0.59249 0.56107 0.3519 0.0
C51 C 0.56349 0.61441 0.38173 0.0
O52 O 0.62899 0.57892 0.36662 0.0
H53 H 0.6292 0.55393 0.42822 0.0
H54 H 0.53184 0.56724 0.34241 0.0
H55 H 0.6516 0.62119 0.3924 0.0
O56 O 0.55186 0.59287 0.37458 0.0
O57 O 0.58684 0.61195 0.39023 0.0
H58 H 0.54209 0.49919 0.37999 0.0
O59 O 0.58163 0.56443 0.41781 0.0
O60 O 0.54902 0.54465 0.40086 0.0
O61 O 0.6245 0.53292 0.39504 0.0
O62 O 0.59175 0.51283 0.37843 0.0
C63 C 0.55821 0.55192 0.41679 0.0
H64 H 0.49113 0.54373 0.32762 0.0
H65 H 0.50293 0.47444 0.36593 0.0
H66 H 0.66536 0.56663 0.45067 0.0
H67 H 0.68972 0.6349 0.41443 0.0
C68 C 0.17113 0.87008 0.60223 0.0
N69 N 0.21066 0.79454 0.61636 0.0
C70 C 0.19749 0.77905 0.60293 0.0
C71 C 0.21024 0.75484 0.59576 0.0
C72 C 0.23681 0.74687 0.6024 0.0
C73 C 0.24999 0.76365 0.61593 0.0
C74 C 0.2365 0.78731 0.62278 0.0
Zn75 Zn 0.19266 0.82824 0.62933 0.0
C76 C 0.23373 0.87281 0.63734 0.0
N77 N 0.15797 0.89842 0.65897 0.0
C78 C 0.13427 0.91337 0.65531 0.0
C79 C 0.17539 0.90596 0.67327 0.0
C80 C 0.16995 0.92947 0.68412 0.0
C81 C 0.14605 0.94555 0.6806 0.0
C82 C 0.12768 0.93711 0.66621 0.0
Zn83 Zn 0.17248 0.86433 0.64397 0.0
O84 O 0.18269 0.84625 0.60373 0.0
C85 C 0.13102 0.82024 0.63635 0.0
O86 O 0.16456 0.88394 0.61696 0.0
H87 H 0.19397 0.89388 0.67629 0.0
H88 H 0.17689 0.7851 0.59809 0.0
H89 H 0.12064 0.90707 0.64392 0.0
O90 O 0.15286 0.80834 0.62982 0.0
O91 O 0.13284 0.84481 0.64325 0.0
H92 H 0.24646 0.79943 0.63372 0.0
O93 O 0.18143 0.84363 0.67033 0.0
O94 O 0.20241 0.81 0.65495 0.0
O95 O 0.21181 0.88319 0.64443 0.0
O96 O 0.23229 0.84926 0.62913 0.0
C97 C 0.19508 0.82077 0.67043 0.0
H98 H 0.19937 0.74235 0.58536 0.0
H99 H 0.27011 0.75793 0.62182 0.0
H100 H 0.18427 0.93488 0.69537 0.0
H101 H 0.10884 0.94894 0.66326 0.0
C102 C 0.87796 0.42006 0.85056 0.0
N103 N 0.95298 0.45735 0.86815 0.0
C104 C 0.96963 0.44371 0.85557 0.0
C105 C 0.99594 0.45468 0.8509 0.0
C106 C 0.00488 0.47963 0.85946 0.0
C107 C 0.98662 0.49388 0.87151 0.0
C108 C 0.96077 0.48233 0.87572 0.0
Zn109 Zn 0.91749 0.44047 0.8793 0.0
C110 C 0.87342 0.48316 0.88511 0.0
N111 N 0.84396 0.40811 0.90615 0.0
C112 C 0.83026 0.38353 0.90298 0.0
C113 C 0.83466 0.42647 0.91942 0.0
C114 C 0.81072 0.42096 0.92978 0.0
C115 C 0.79607 0.39599 0.92691 0.0
C116 C 0.80618 0.37685 0.91346 0.0
Zn117 Zn 0.87963 0.42176 0.89262 0.0
O118 O 0.9015 0.43179 0.85303 0.0
C119 C 0.92354 0.37893 0.88701 0.0
O120 O 0.86303 0.41312 0.86474 0.0
H121 H 0.84594 0.44561 0.92223 0.0
H122 H 0.96306 0.42381 0.84979 0.0
H123 H 0.83807 0.36908 0.89249 0.0
O124 O 0.93588 0.40013 0.88001 0.0
O125 O 0.89895 0.38159 0.89374 0.0
H126 H 0.94752 0.4928 0.88583 0.0
O127 O 0.89731 0.43156 0.91992 0.0
O128 O 0.93385 0.4488 0.9056 0.0
O129 O 0.86114 0.46156 0.89123 0.0
O130 O 0.89815 0.48092 0.87882 0.0
C131 C 0.92115 0.44327 0.92073 0.0
H132 H 0.00962 0.44317 0.84153 0.0
H133 H 0.99271 0.51336 0.87818 0.0
H134 H 0.80415 0.4359 0.94038 0.0
H135 H 0.79555 0.35715 0.91105 0.0
C136 C 0.69432 0.81808 0.83159 0.0
N137 N 0.65999 0.89755 0.84183 0.0
C138 C 0.67668 0.904 0.82692 0.0
C139 C 0.67153 0.92757 0.81606 0.0
C140 C 0.64872 0.94483 0.82026 0.0
C141 C 0.63101 0.93745 0.83526 0.0
C142 C 0.63726 0.91361 0.84611 0.0
Zn143 Zn 0.67432 0.86382 0.85716 0.0
C144 C 0.63195 0.82159 0.86693 0.0
N145 N 0.71173 0.7948 0.88604 0.0
C146 C 0.73689 0.78647 0.87905 0.0
C147 C 0.69902 0.78042 0.9002 0.0
C148 C 0.71147 0.75614 0.90748 0.0
C149 C 0.73727 0.74697 0.9002 0.0
C150 C 0.75007 0.76272 0.88598 0.0
Zn151 Zn 0.69393 0.82819 0.87264 0.0
O152 O 0.68189 0.84162 0.83117 0.0
C153 C 0.73589 0.87104 0.86239 0.0
O154 O 0.70146 0.80791 0.84729 0.0
H155 H 0.67894 0.78734 0.90549 0.0
H156 H 0.69458 0.89114 0.82353 0.0
H157 H 0.74646 0.79769 0.86754 0.0
O158 O 0.71393 0.88175 0.85558 0.0
O159 O 0.73418 0.84796 0.87116 0.0
H160 H 0.62427 0.9082 0.85802 0.0
O161 O 0.68619 0.84805 0.89788 0.0
O162 O 0.66775 0.88496 0.8839 0.0
O163 O 0.65347 0.80968 0.8739 0.0
O164 O 0.6344 0.84526 0.85883 0.0
C165 C 0.67495 0.87207 0.89888 0.0
H166 H 0.6853 0.93218 0.80436 0.0
H167 H 0.61302 0.95025 0.83876 0.0
H168 H 0.7009 0.74445 0.91843 0.0
H169 H 0.76955 0.75606 0.87957 0.0
C170 C 0.42041 0.44163 0.57903 0.0
N171 N 0.3436 0.40654 0.59417 0.0
C172 C 0.33247 0.42467 0.5814 0.0
C173 C 0.3094 0.4172 0.57066 0.0
C174 C 0.29793 0.39048 0.57253 0.0
C175 C 0.30968 0.37177 0.58557 0.0
C176 C 0.3326 0.38043 0.59653 0.0
Zn177 Zn 0.37899 0.42127 0.6075 0.0
C178 C 0.4232 0.37842 0.61359 0.0
N179 N 0.45252 0.45708 0.63152 0.0
C180 C 0.46097 0.48132 0.62324 0.0
C181 C 0.46825 0.44444 0.64506 0.0
C182 C 0.49424 0.45573 0.65014 0.0
C183 C 0.50388 0.4799 0.64097 0.0
C184 C 0.48662 0.49309 0.62776 0.0
Zn185 Zn 0.41717 0.4398 0.6205 0.0
O186 O 0.39617 0.43079 0.58009 0.0
C187 C 0.37315 0.4827 0.61432 0.0
O188 O 0.43362 0.44688 0.59401 0.0
H189 H 0.46113 0.42514 0.65141 0.0
H190 H 0.34193 0.44488 0.57902 0.0
H191 H 0.44832 0.49107 0.61247 0.0
O192 O 0.36022 0.46113 0.60874 0.0
O193 O 0.39808 0.48021 0.62021 0.0
H194 H 0.34196 0.36615 0.60652 0.0
O195 O 0.40099 0.43225 0.64693 0.0
O196 O 0.36267 0.4129 0.63546 0.0
O197 O 0.43552 0.3996 0.62061 0.0
O198 O 0.39878 0.38118 0.60662 0.0
C199 C 0.37756 0.42038 0.64952 0.0
H200 H 0.30122 0.43187 0.56039 0.0
H201 H 0.30146 0.35076 0.58708 0.0
H202 H 0.50716 0.44506 0.66041 0.0
H203 H 0.4933 0.51196 0.62058 0.0
C204 C 0.79648 0.17703 0.33303 0.0
N205 N 0.83614 0.10052 0.344 0.0
C206 C 0.81736 0.09085 0.33111 0.0
C207 C 0.82375 0.06819 0.31966 0.0
C208 C 0.85005 0.05555 0.32093 0.0
C209 C 0.86957 0.06607 0.33393 0.0
C210 C 0.86199 0.08863 0.34561 0.0
Zn211 Zn 0.82176 0.13437 0.35929 0.0
C212 C 0.86312 0.17978 0.3647 0.0
N213 N 0.78512 0.20471 0.38714 0.0
C214 C 0.75856 0.21146 0.38191 0.0
C215 C 0.79956 0.22079 0.39963 0.0
C216 C 0.78747 0.24521 0.40693 0.0
C217 C 0.76019 0.25268 0.40148 0.0
C218 C 0.74562 0.23524 0.38904 0.0
Zn219 Zn 0.80246 0.17102 0.37384 0.0
O220 O 0.80989 0.154 0.33302 0.0
C221 C 0.7612 0.12556 0.3682 0.0
O222 O 0.79069 0.18856 0.34855 0.0
H223 H 0.8207 0.2151 0.40353 0.0
H224 H 0.79728 0.10092 0.32943 0.0
H225 H 0.74758 0.19893 0.37163 0.0
O226 O 0.78263 0.11441 0.36091 0.0
O227 O 0.76324 0.1498 0.37536 0.0
H228 H 0.87676 0.09679 0.35575 0.0
O229 O 0.81447 0.15369 0.39919 0.0
O230 O 0.83261 0.11587 0.38618 0.0
O231 O 0.8417 0.19143 0.37194 0.0
O232 O 0.8611 0.15504 0.35811 0.0
C233 C 0.82674 0.13023 0.40083 0.0
H234 H 0.80844 0.06103 0.30949 0.0
H235 H 0.89025 0.05691 0.33506 0.0
H236 H 0.79938 0.25832 0.41644 0.0
H237 H 0.72483 0.24062 0.38412 0.0
C238 C 0.06146 0.55567 0.08109 0.0
N239 N 0.14212 0.58971 0.08839 0.0
C240 C 0.14484 0.57714 0.07127 0.0
C241 C 0.16634 0.58454 0.05913 0.0
C242 C 0.18595 0.60462 0.06466 0.0
C243 C 0.18326 0.61716 0.08246 0.0
C244 C 0.16081 0.6095 0.09416 0.0
Zn245 Zn 0.11033 0.57362 0.10479 0.0
C246 C 0.06902 0.61527 0.11815 0.0
N247 N 0.04475 0.5338 0.13571 0.0
C248 C 0.03683 0.50838 0.12891 0.0
C249 C 0.0308 0.54605 0.15027 0.0
C250 C 0.00735 0.53288 0.15814 0.0
C251 C -0.00127 0.50676 0.15111 0.0
C252 C 0.01407 0.49439 0.13652 0.0
Zn253 Zn 0.07636 0.553 0.12126 0.0
O254 O 0.08466 0.56856 0.07995 0.0
C255 C 0.11847 0.51199 0.10727 0.0
O256 O 0.05337 0.54679 0.09691 0.0
H257 H 0.03731 0.56637 0.15537 0.0
H258 H 0.13076 0.56062 0.06708 0.0
H259 H 0.04747 0.49926 0.11698 0.0
O260 O 0.12806 0.5343 0.1002 0.0
O261 O 0.09677 0.51323 0.11754 0.0
H262 H 0.15864 0.61892 0.10792 0.0
O263 O 0.09883 0.55917 0.14569 0.0
O264 O 0.1346 0.57763 0.1305 0.0
O265 O 0.05736 0.5932 0.12451 0.0
O266 O 0.09221 0.6133 0.1094 0.0
C267 C 0.12316 0.56972 0.14583 0.0
H268 H 0.16809 0.57402 0.04567 0.0
H269 H 0.19823 0.63266 0.08719 0.0
H270 H 0.99583 0.54314 0.16931 0.0
H271 H 0.00765 0.47467 0.13033 0.0
C272 C 0.82445 0.62664 0.6011 0.0
N273 N 0.78681 0.70317 0.61444 0.0
C274 C 0.80011 0.71809 0.60078 0.0
C275 C 0.78758 0.74217 0.59328 0.0
C276 C 0.76105 0.75048 0.59977 0.0
C277 C 0.74769 0.73426 0.6135 0.0
C278 C 0.76103 0.7108 0.62074 0.0
Zn279 Zn 0.80451 0.66974 0.6278 0.0
C280 C 0.76279 0.62618 0.63704 0.0
N281 N 0.83859 0.59998 0.65807 0.0
C282 C 0.86176 0.58437 0.6541 0.0
C283 C 0.82162 0.5932 0.67277 0.0
C284 C 0.82695 0.56978 0.68373 0.0
C285 C 0.85026 0.55302 0.67988 0.0
C286 C 0.86822 0.56071 0.66508 0.0
Zn287 Zn 0.82424 0.6338 0.6428 0.0
O288 O 0.8135 0.65076 0.60242 0.0
C289 C 0.86637 0.67686 0.63417 0.0
O290 O 0.83107 0.61307 0.61593 0.0
H291 H 0.80344 0.60577 0.67598 0.0
H292 H 0.82066 0.71172 0.59604 0.0
H293 H 0.87501 0.59006 0.64237 0.0
O294 O 0.8447 0.689 0.6276 0.0
O295 O 0.86415 0.65254 0.64138 0.0
H296 H 0.75099 0.69919 0.63189 0.0
O297 O 0.81627 0.65564 0.66895 0.0
O298 O 0.79568 0.68913 0.65319 0.0
O299 O 0.78471 0.6157 0.64406 0.0
O300 O 0.76445 0.64933 0.62836 0.0
C301 C 0.80312 0.67881 0.66878 0.0
H302 H 0.79858 0.75433 0.58277 0.0
H303 H 0.72758 0.74035 0.61926 0.0
H304 H 0.81297 0.56494 0.69528 0.0
H305 H 0.8866 0.54832 0.66186 0.0
C306 C 0.12145 0.07737 0.85182 0.0
N307 N 0.0468 0.0395 0.86924 0.0
C308 C 0.03071 0.05255 0.85607 0.0
C309 C 0.00483 0.04111 0.85087 0.0
C310 C 0.99571 0.0163 0.85951 0.0
C311 C 0.01339 0.0027 0.87228 0.0
C312 C 0.03885 0.0147 0.87698 0.0
Zn313 Zn 0.08194 0.05679 0.88055 0.0
C314 C 0.12631 0.0141 0.88632 0.0
N315 N 0.15515 0.08986 0.90753 0.0
C316 C 0.16615 0.11604 0.90557 0.0
C317 C 0.16623 0.07136 0.92008 0.0
C318 C 0.18935 0.07844 0.9309 0.0
C319 C 0.20091 0.10519 0.92938 0.0
C320 C 0.18909 0.12433 0.91665 0.0
Zn321 Zn 0.11993 0.07529 0.89385 0.0
O322 O 0.09809 0.0653 0.85432 0.0
C323 C 0.07538 0.11796 0.88816 0.0
O324 O 0.13632 0.08454 0.86598 0.0
H325 H 0.15677 0.05108 0.92219 0.0
H326 H 0.03743 0.07229 0.85013 0.0
H327 H 0.15682 0.13063 0.89576 0.0
O328 O 0.06323 0.09683 0.88095 0.0
O329 O 0.09981 0.11525 0.89514 0.0
H330 H 0.05172 0.00466 0.8875 0.0
O331 O 0.10262 0.0648 0.9211 0.0
O332 O 0.06548 0.04866 0.90684 0.0
O333 O 0.13903 0.03563 0.89218 0.0
O334 O 0.10142 0.01656 0.88035 0.0
C335 C 0.07855 0.05354 0.92194 0.0
H336 H 0.99159 0.05212 0.84096 0.0
H337 H 0.00716 0.98335 0.87903 0.0
H338 H 0.19752 0.06342 0.94093 0.0
H339 H 0.19738 0.14535 0.91538 0.0
C340 C 0.67231 0.36729 0.09959 0.0
N341 N 0.71229 0.29163 0.11234 0.0
C342 C 0.69784 0.27638 0.09938 0.0
C343 C 0.70984 0.2523 0.0915 0.0
C344 C 0.73702 0.24437 0.09684 0.0
C345 C 0.75154 0.2609 0.10986 0.0
C346 C 0.7387 0.28432 0.11755 0.0
Zn347 Zn 0.69547 0.32514 0.12614 0.0
C348 C 0.73741 0.36955 0.13281 0.0
N349 N 0.66305 0.39546 0.15674 0.0
C350 C 0.63883 0.41012 0.15429 0.0
C351 C 0.68157 0.40276 0.17046 0.0
C352 C 0.67662 0.42563 0.18201 0.0
C353 C 0.65213 0.44136 0.17981 0.0
C354 C 0.63278 0.43323 0.16591 0.0
Zn355 Zn 0.67643 0.36161 0.14102 0.0
O356 O 0.68403 0.34353 0.10102 0.0
C357 C 0.6343 0.31743 0.13473 0.0
O358 O 0.66658 0.38141 0.11437 0.0
H359 H 0.70053 0.39084 0.17256 0.0
H360 H 0.67681 0.28251 0.0955 0.0
H361 H 0.6243 0.40398 0.14338 0.0
O362 O 0.65568 0.30549 0.12762 0.0
O363 O 0.63661 0.34204 0.14152 0.0
H364 H 0.74967 0.29617 0.12819 0.0
O365 O 0.68717 0.34049 0.16702 0.0
O366 O 0.70668 0.30645 0.15117 0.0
O367 O 0.71598 0.38058 0.14018 0.0
O368 O 0.73521 0.34571 0.1251 0.0
C369 C 0.70046 0.3174 0.1668 0.0
H370 H 0.69795 0.23987 0.08157 0.0
H371 H 0.77224 0.25508 0.11473 0.0
H372 H 0.69174 0.43068 0.19285 0.0
H373 H 0.61347 0.44476 0.16394 0.0
C374 C 0.37348 0.92879 0.35467 0.0
N375 N 0.45205 0.96456 0.36454 0.0
C376 C 0.46577 0.95224 0.34992 0.0
C377 C 0.48944 0.96509 0.3421 0.0
C378 C 0.49859 0.99093 0.34929 0.0
C379 C 0.48346 0.00341 0.36395 0.0
C380 C 0.4604 0.98977 0.37147 0.0
Zn381 Zn 0.42033 0.94567 0.37905 0.0
C382 C 0.37847 0.98696 0.39299 0.0
N383 N 0.35472 0.90948 0.41232 0.0
C384 C 0.33671 0.88884 0.40696 0.0
C385 C 0.35161 0.92269 0.42919 0.0
C386 C 0.33043 0.91505 0.44151 0.0
C387 C 0.3116 0.89398 0.43644 0.0
C388 C 0.31462 0.88085 0.41886 0.0
Zn389 Zn 0.38646 0.92538 0.39583 0.0
O390 O 0.39767 0.93968 0.35469 0.0
C391 C 0.42761 0.88349 0.38273 0.0
O392 O 0.36235 0.92067 0.37007 0.0
H393 H 0.36525 0.93975 0.43308 0.0
H394 H 0.45891 0.93209 0.34472 0.0
H395 H 0.33923 0.87887 0.3934 0.0
O396 O 0.43895 0.90526 0.3757 0.0
O397 O 0.4048 0.88575 0.39187 0.0
H398 H 0.44992 -0.00106 0.38343 0.0
O399 O 0.41183 0.9311 0.42066 0.0
O400 O 0.44354 0.95172 0.40341 0.0
O401 O 0.36862 0.96468 0.39993 0.0
O402 O 0.4003 0.98564 0.38284 0.0
C403 C 0.43525 0.94353 0.41936 0.0
H404 H 0.50075 0.95475 0.33087 0.0
H405 H 0.49023 0.02289 0.37029 0.0
H406 H 0.32842 0.926 0.4548 0.0
H407 H 0.30026 0.86455 0.4145 0.0
C408 C 0.1901 0.32117 0.32972 0.0
N409 N 0.15808 0.40055 0.34227 0.0
C410 C 0.17619 0.40934 0.3287 0.0
C411 C 0.16994 0.43231 0.31751 0.0
C412 C 0.14445 0.44619 0.31981 0.0
C413 C 0.12564 0.43673 0.33359 0.0
C414 C 0.13308 0.41377 0.34494 0.0
Zn415 Zn 0.17176 0.36571 0.35679 0.0
C416 C 0.12783 0.32351 0.36482 0.0
N417 N 0.2062 0.29302 0.38307 0.0
C418 C 0.22981 0.28301 0.37473 0.0
C419 C 0.19386 0.27911 0.39759 0.0
C420 C 0.20487 0.25348 0.40376 0.0
C421 C 0.22842 0.24227 0.39465 0.0
C422 C 0.24123 0.25762 0.38028 0.0
Zn423 Zn 0.18964 0.32798 0.37088 0.0
O424 O 0.18013 0.34585 0.32999 0.0
C425 C 0.2335 0.37008 0.36253 0.0
O426 O 0.19533 0.30901 0.34509 0.0
H427 H 0.17507 0.28744 0.40399 0.0
H428 H 0.19554 0.39825 0.3262 0.0
H429 H 0.23938 0.29424 0.36321 0.0
O430 O 0.21205 0.38315 0.3569 0.0
O431 O 0.23067 0.34566 0.36929 0.0
H432 H 0.1188 0.40631 0.35563 0.0
O433 O 0.18348 0.34686 0.39676 0.0
O434 O 0.16458 0.3846 0.38404 0.0
O435 O 0.14883 0.31101 0.37199 0.0
O436 O 0.13115 0.34741 0.35715 0.0
C437 C 0.17228 0.37082 0.39855 0.0
H438 H 0.18464 0.43873 0.30672 0.0
H439 H 0.10555 0.44688 0.33549 0.0
H440 H 0.19451 0.24204 0.41492 0.0
H441 H 0.25961 0.2497 0.37309 0.0
C442 C 0.93857 0.94246 0.08321 0.0
N443 N 0.85778 0.90937 0.0907 0.0
C444 C 0.85476 0.92301 0.074 0.0
C445 C 0.83379 0.91558 0.06147 0.0
C446 C 0.81508 0.89421 0.06612 0.0
C447 C 0.81793 0.88065 0.08357 0.0
C448 C 0.83981 0.8885 0.09572 0.0
Zn449 Zn 0.8897 0.92499 0.10719 0.0
C450 C 0.93084 0.88272 0.12013 0.0
N451 N 0.9561 0.96384 0.13789 0.0
C452 C 0.96478 0.98872 0.13064 0.0
C453 C 0.96905 0.95225 0.15308 0.0
C454 C 0.99214 0.96566 0.16128 0.0
C455 C 0.00154 0.99126 0.15383 0.0
C456 C 0.98731 0.00284 0.13845 0.0
Zn457 Zn 0.92431 0.94492 0.12347 0.0
O458 O 0.91504 0.93015 0.08222 0.0
C459 C 0.88257 0.98666 0.10994 0.0
O460 O 0.94725 0.95083 0.09903 0.0
H461 H 0.96191 0.93237 0.15855 0.0
H462 H 0.86839 0.94019 0.07036 0.0
H463 H 0.95478 0.99737 0.11831 0.0
O464 O 0.87226 0.96456 0.10304 0.0
O465 O 0.90461 0.98496 0.11985 0.0
H466 H 0.84226 0.87816 0.10916 0.0
O467 O 0.90178 0.93897 0.14798 0.0
O468 O 0.86567 0.9209 0.13292 0.0
O469 O 0.94278 0.90455 0.12663 0.0
O470 O 0.90763 0.88507 0.11144 0.0
C471 C 0.87733 0.92867 0.14821 0.0
H472 H 0.8319 0.92688 0.0483 0.0
H473 H 0.80366 0.86411 0.08762 0.0
H474 H 0.00273 0.95599 0.17308 0.0
H475 H 0.9943 0.02209 0.13191 0.0
C476 C 0.30157 0.68303 0.83476 0.0
N477 N 0.34042 0.60501 0.84221 0.0
C478 C 0.32458 0.6 0.82663 0.0
C479 C 0.33212 0.57942 0.81383 0.0
C480 C 0.35605 0.56324 0.81701 0.0
C481 C 0.37185 0.56801 0.83339 0.0
C482 C 0.36369 0.58939 0.84587 0.0
Zn483 Zn 0.32491 0.63682 0.85886 0.0
C484 C 0.36576 0.68078 0.86852 0.0
N485 N 0.28592 0.70288 0.88995 0.0
C486 C 0.25972 0.7099 0.88411 0.0
C487 C 0.2993 0.71804 0.90345 0.0
C488 C 0.28657 0.74193 0.9111 0.0
C489 C 0.25978 0.7499 0.90488 0.0
C490 C 0.24621 0.7332 0.89147 0.0
Zn491 Zn 0.3046 0.67103 0.87537 0.0
O492 O 0.31531 0.6603 0.83371 0.0
C493 C 0.26426 0.62632 0.86512 0.0
O494 O 0.29439 0.69211 0.85076 0.0
H495 H 0.3202 0.7122 0.90781 0.0
H496 H 0.30576 0.61192 0.82403 0.0
H497 H 0.24961 0.69819 0.87303 0.0
O498 O 0.28621 0.61701 0.8574 0.0
O499 O 0.26547 0.64901 0.87439 0.0
H500 H 0.37586 0.59348 0.85841 0.0
O501 O 0.31486 0.6504 0.89993 0.0
O502 O 0.33354 0.61452 0.88487 0.0
O503 O 0.3441 0.69169 0.876 0.0
O504 O 0.36392 0.65715 0.86032 0.0
C505 C 0.32683 0.62668 0.90024 0.0
H506 H 0.31914 0.57601 0.80153 0.0
H507 H 0.39044 0.55576 0.83629 0.0
H508 H 0.29774 0.75436 0.92138 0.0
H509 H 0.22591 0.73893 0.88588 0.0
C510 C 0.57794 0.0534 0.58005 0.0
N511 N 0.65516 0.08881 0.59423 0.0
C512 C 0.66442 0.07044 0.58095 0.0
C513 C 0.68832 0.07595 0.57055 0.0
C514 C 0.70298 0.10093 0.5734 0.0
C515 C 0.69292 0.12007 0.58686 0.0
C516 C 0.66888 0.11339 0.59738 0.0
Zn517 Zn 0.61962 0.07518 0.6079 0.0
C518 C 0.57571 0.118 0.61363 0.0
N519 N 0.5465 0.0397 0.6328 0.0
C520 C 0.53882 0.01458 0.62538 0.0
C521 C 0.52979 0.05341 0.64532 0.0
C522 C 0.50354 0.04237 0.65005 0.0
C523 C 0.49471 0.01727 0.64164 0.0
C524 C 0.51305 0.00294 0.62968 0.0
Zn525 Zn 0.58188 0.0566 0.62148 0.0
O526 O 0.60172 0.06526 0.58072 0.0
C527 C 0.62583 0.01385 0.61554 0.0
O528 O 0.56538 0.04795 0.59524 0.0
H529 H 0.53627 0.07341 0.65097 0.0
H530 H 0.65313 0.0513 0.57817 0.0
H531 H 0.55207 0.00406 0.61529 0.0
O532 O 0.63811 0.03533 0.60925 0.0
O533 O 0.60125 0.01629 0.62206 0.0
H534 H 0.66112 0.12783 0.60789 0.0
O535 O 0.59803 0.06558 0.64767 0.0
O536 O 0.63645 0.08398 0.63568 0.0
O537 O 0.56344 0.09682 0.62068 0.0
O538 O 0.60025 0.11536 0.60682 0.0
C539 C 0.62162 0.0773 0.64996 0.0
H540 H 0.69486 0.06101 0.55994 0.0
H541 H 0.70357 0.13976 0.58925 0.0
H542 H 0.4898 0.05395 0.65936 0.0
H543 H 0.50705 0.98336 0.62312 0.0
H544 H 0.29785 0.15635 0.2067 0.0
H545 H 0.27791 0.18114 0.23395 0.0
H546 H 0.27799 0.2583 0.20244 0.0
H547 H 0.29744 0.23392 0.17534 0.0
H548 H 0.29607 0.23039 0.25437 0.0
H549 H 0.19515 0.24706 0.2172 0.0
H550 H 0.22105 0.2222 0.20921 0.0
H551 H 0.2254 0.25892 0.20451 0.0
C552 C 0.29402 0.17867 0.20575 0.0
C553 C 0.29884 0.19314 0.18886 0.0
C554 C 0.28255 0.19274 0.22124 0.0
C555 C 0.27587 0.22134 0.21995 0.0
C556 C 0.28236 0.23608 0.20352 0.0
H557 H 0.19933 0.34417 0.29481 0.0
H558 H 0.21954 0.32013 0.26734 0.0
C559 C 0.2936 0.22211 0.18809 0.0
C560 C 0.26133 0.23587 0.23547 0.0
H561 H 0.20101 0.27082 0.24628 0.0
C562 C 0.27525 0.2391 0.25268 0.0
C563 C 0.23421 0.24731 0.23309 0.0
C564 C 0.21792 0.24354 0.21507 0.0
C565 C 0.26288 0.25391 0.26755 0.0
C566 C 0.23575 0.26531 0.26517 0.0
C567 C 0.22185 0.26214 0.24796 0.0
C568 C 0.22107 0.27947 0.28077 0.0
C569 C 0.27908 0.25758 0.28561 0.0
C570 C 0.21422 0.26425 0.29694 0.0
C571 C 0.20278 0.27778 0.31247 0.0
C572 C 0.19775 0.30681 0.31209 0.0
C573 C 0.20298 0.3218 0.29546 0.0
C574 C 0.21461 0.30815 0.27985 0.0
H575 H 0.30186 0.25399 0.28353 0.0
H576 H 0.27598 0.27892 0.29147 0.0
H577 H 0.27149 0.24221 0.29613 0.0
H578 H 0.21846 0.24198 0.29772 0.0
H579 H 0.19865 0.26558 0.32501 0.0
H580 H 0.39587 0.44419 0.54399 0.0
H581 H 0.41755 0.46144 0.5148 0.0
H582 H 0.49522 0.47472 0.5444 0.0
H583 H 0.47417 0.45743 0.57321 0.0
H584 H 0.44132 0.51526 0.50972 0.0
H585 H 0.52021 0.43212 0.49757 0.0
H586 H 0.49061 0.42741 0.51304 0.0
H587 H 0.52123 0.44579 0.52107 0.0
C588 C 0.41769 0.45035 0.54413 0.0
C589 C 0.4333 0.44941 0.56088 0.0
C590 C 0.42999 0.46027 0.52752 0.0
C591 C 0.45808 0.46898 0.52743 0.0
C592 C 0.4737 0.46757 0.54406 0.0
H593 H 0.57624 0.5507 0.45344 0.0
H594 H 0.55055 0.53223 0.48068 0.0
C595 C 0.46152 0.45782 0.56057 0.0
C596 C 0.47097 0.48128 0.51043 0.0
H597 H 0.52769 0.47554 0.4815 0.0
C598 C 0.45998 0.50642 0.50336 0.0
C599 C 0.49542 0.46975 0.5023 0.0
C600 C 0.50742 0.44214 0.50876 0.0
C601 C 0.47337 0.52084 0.4887 0.0
C602 C 0.49817 0.50963 0.48089 0.0
C603 C 0.50887 0.48425 0.48774 0.0
C604 C 0.51276 0.52322 0.46502 0.0
C605 C 0.46134 0.5483 0.48199 0.0
C606 C 0.49986 0.52441 0.44736 0.0
C607 C 0.51441 0.53478 0.43188 0.0
C608 C 0.54219 0.54416 0.43376 0.0
C609 C 0.55483 0.54379 0.45161 0.0
C610 C 0.54024 0.53317 0.46712 0.0
H611 H 0.44611 0.55716 0.49219 0.0
H612 H 0.47822 0.56386 0.47956 0.0
H613 H 0.4503 0.54491 0.46844 0.0
H614 H 0.47882 0.51645 0.44542 0.0
H615 H 0.50408 0.53479 0.41832 0.0
H616 H 0.18983 0.84037 0.70668 0.0
H617 H 0.20824 0.81838 0.73541 0.0
H618 H 0.23835 0.74852 0.70268 0.0
H619 H 0.22036 0.77011 0.67414 0.0
H620 H 0.19701 0.76311 0.75077 0.0
H621 H 0.30849 0.77717 0.73091 0.0
H622 H 0.28041 0.7964 0.71981 0.0
H623 H 0.28741 0.76077 0.71313 0.0
C624 C 0.20021 0.82025 0.70566 0.0
C625 C 0.20383 0.8071 0.68813 0.0
C626 C 0.21075 0.80778 0.72204 0.0
C627 C 0.22512 0.78215 0.72103 0.0
C628 C 0.22786 0.7686 0.70366 0.0
H629 H 0.30661 0.66706 0.79778 0.0
H630 H 0.28805 0.69169 0.77014 0.0
C631 C 0.21741 0.78096 0.68738 0.0
C632 C 0.23738 0.76926 0.73802 0.0
H633 H 0.2993 0.74706 0.75683 0.0
C634 C 0.21937 0.75982 0.75222 0.0
C635 C 0.26656 0.76489 0.73974 0.0
C636 C 0.28691 0.77554 0.72517 0.0
C637 C 0.22975 0.7454 0.76794 0.0
C638 C 0.25893 0.74081 0.76957 0.0
C639 C 0.27695 0.7505 0.75545 0.0
C640 C 0.27116 0.72646 0.78606 0.0
C641 C 0.20936 0.73457 0.78242 0.0
C642 C 0.26843 0.7383 0.80398 0.0
C643 C 0.27894 0.72439 0.81969 0.0
C644 C 0.2926 0.69841 0.81777 0.0
C645 C 0.29618 0.68701 0.7997 0.0
C646 C 0.28556 0.701 0.78394 0.0
H647 H 0.1877 0.73348 0.77678 0.0
H648 H 0.21557 0.71342 0.78741 0.0
H649 H 0.20924 0.7489 0.79471 0.0
H650 H 0.25794 0.75824 0.80584 0.0
H651 H 0.27602 0.7339 0.83339 0.0
H652 H 0.97429 0.46142 0.92586 0.0
H653 H 0.99536 0.47974 0.95437 0.0
H654 H 0.91914 0.46342 0.98495 0.0
H655 H 0.8974 0.44513 0.95605 0.0
H656 H 0.94119 0.5182 0.98989 0.0
H657 H 0.02317 0.43771 0.0007 0.0
H658 H 0.023 0.45142 0.9772 0.0
H659 H 0.99325 0.43205 0.98565 0.0
C660 C 0.96196 0.46136 0.93865 0.0
C661 C 0.93413 0.45176 0.9387 0.0
C662 C 0.97417 0.47172 0.95498 0.0
C663 C 0.95897 0.47255 0.9718 0.0
C664 C 0.93125 0.46271 0.97208 0.0
H665 H 0.00719 0.53897 0.08031 0.0
H666 H 0.98101 0.52104 0.05347 0.0
C667 C 0.91892 0.45219 0.95563 0.0
C668 C 0.97193 0.48523 0.98865 0.0
H669 H 0.02988 0.48141 0.0166 0.0
C670 C 0.96037 0.51 0.99593 0.0
C671 C 0.99704 0.47453 0.99637 0.0
C672 C 0.0097 0.44731 0.9897 0.0
C673 C 0.97382 0.52488 0.01037 0.0
C674 C -0.0007 0.51453 0.01772 0.0
C675 C 0.01055 0.48949 0.01069 0.0
C676 C 0.01408 0.52856 0.03334 0.0
C677 C 0.96112 0.5519 0.01732 0.0
C678 C 0.04134 0.53892 0.03085 0.0
C679 C 0.05646 0.54929 0.04621 0.0
C680 C 0.0446 0.54898 0.06429 0.0
C681 C 0.01693 0.53945 0.06655 0.0
C682 C 0.00184 0.52933 0.05122 0.0
H683 H 0.94531 0.5603 0.00734 0.0
H684 H 0.9506 0.54809 0.03099 0.0
H685 H 0.97755 0.568 0.01958 0.0
H686 H 0.05114 0.5383 0.01712 0.0
H687 H 0.07777 0.55632 0.04409 0.0
H688 H 0.69224 0.83692 0.79507 0.0
H689 H 0.70979 0.81254 0.76698 0.0
H690 H 0.7323 0.74133 0.80108 0.0
H691 H 0.71472 0.76512 0.82895 0.0
H692 H 0.76563 0.79354 0.76228 0.0
H693 H 0.69024 0.70555 0.75706 0.0
H694 H 0.68323 0.73666 0.77075 0.0
H695 H 0.7055 0.70958 0.77998 0.0
C696 C 0.70047 0.81588 0.79648 0.0
C697 C 0.70207 0.80295 0.81421 0.0
C698 C 0.71056 0.80205 0.78048 0.0
C699 C 0.72203 0.77503 0.78197 0.0
C700 C 0.72305 0.76193 0.79957 0.0
H701 H 0.80549 0.65929 0.70515 0.0
H702 H 0.78785 0.68303 0.73348 0.0
C703 C 0.71312 0.77568 0.81551 0.0
C704 C 0.73474 0.76108 0.76546 0.0
H705 H 0.73168 0.70186 0.73863 0.0
C706 C 0.7581 0.77361 0.75699 0.0
C707 C 0.72503 0.73492 0.7588 0.0
C708 C 0.69947 0.72097 0.76699 0.0
C709 C 0.77228 0.76047 0.74213 0.0
C710 C 0.76255 0.73434 0.73544 0.0
C711 C 0.73923 0.72178 0.74394 0.0
C712 C 0.77506 0.72063 0.71879 0.0
C713 C 0.79782 0.77444 0.73392 0.0
C714 C 0.7737 0.73396 0.70128 0.0
C715 C 0.78367 0.72057 0.68521 0.0
C716 C 0.79511 0.69344 0.68629 0.0
C717 C 0.79696 0.68024 0.70391 0.0
C718 C 0.78682 0.69371 0.72005 0.0
H719 H 0.80713 0.78977 0.74388 0.0
H720 H 0.81402 0.75876 0.73008 0.0
H721 H 0.79174 0.78593 0.72098 0.0
H722 H 0.76423 0.75449 0.69994 0.0
H723 H 0.78187 0.73134 0.67186 0.0
H724 H 0.69183 0.33392 0.20346 0.0
H725 H 0.70844 0.31006 0.23202 0.0
H726 H 0.7457 0.24527 0.19794 0.0
H727 H 0.72952 0.26868 0.16959 0.0
H728 H 0.69717 0.25256 0.24348 0.0
H729 H 0.81039 0.27277 0.23205 0.0
H730 H 0.78327 0.29248 0.22028 0.0
H731 H 0.79246 0.25802 0.21217 0.0
C732 C 0.70356 0.3146 0.2021 0.0
C733 C 0.70944 0.30328 0.18428 0.0
C734 C 0.71302 0.30104 0.21837 0.0
C735 C 0.72865 0.2762 0.21698 0.0
C736 C 0.73413 0.2647 0.19926 0.0
H737 H 0.805 0.15983 0.29649 0.0
H738 H 0.78793 0.18295 0.26777 0.0
C739 C 0.72469 0.2781 0.18308 0.0
C740 C 0.73894 0.26173 0.23397 0.0
H741 H 0.79866 0.24011 0.25598 0.0
C742 C 0.71933 0.24998 0.24632 0.0
C743 C 0.76788 0.25823 0.23745 0.0
C744 C 0.78977 0.27122 0.22489 0.0
C745 C 0.72796 0.2344 0.262 0.0
C746 C 0.7569 0.23094 0.26549 0.0
C747 C 0.7765 0.24265 0.25313 0.0
C748 C 0.7672 0.21672 0.28258 0.0
C749 C 0.70606 0.22143 0.27456 0.0
C750 C 0.76155 0.22839 0.30022 0.0
C751 C 0.77124 0.21542 0.31649 0.0
C752 C 0.78695 0.19051 0.31546 0.0
C753 C 0.79292 0.17895 0.29772 0.0
C754 C 0.7832 0.19209 0.28136 0.0
H755 H 0.68552 0.21963 0.26732 0.0
H756 H 0.71266 0.2003 0.27935 0.0
H757 H 0.70314 0.23482 0.28717 0.0
H758 H 0.74972 0.24768 0.30141 0.0
H759 H 0.76631 0.22501 0.3299 0.0
H760 H 0.99278 0.95942 0.08189 0.0
H761 H 0.01831 0.97735 0.05475 0.0
H762 H 0.94757 0.9593 0.01909 0.0
H763 H 0.92159 0.94133 0.04633 0.0
H764 H 0.03191 0.95282 0.01867 0.0
H765 H 0.96151 0.04541 0.014 0.0
H766 H 0.96285 0.02311 0.03449 0.0
H767 H 0.94445 0.01186 0.01381 0.0
C768 C 0.98271 0.95891 0.06824 0.0
C769 C 0.95505 0.94922 0.06625 0.0
C770 C 0.99738 0.96913 0.05276 0.0
C771 C 0.98463 0.97004 0.03505 0.0
C772 C 0.95756 0.95909 0.03276 0.0
H773 H 0.02548 0.03516 0.92718 0.0
H774 H 0.00482 0.01612 0.95562 0.0
C775 C 0.94285 0.94867 0.04828 0.0
C776 C -0.00076 0.98387 0.01927 0.0
H777 H 0.99607 0.04083 0.99042 0.0
C778 C 0.02419 0.9721 0.01248 0.0
C779 C 0.9892 0.00919 0.01149 0.0
C780 C 0.96317 0.02336 0.01887 0.0
C781 C 0.0389 0.98452 0.99757 0.0
C782 C 0.02862 0.00964 0.98959 0.0
C783 C 0.00394 0.02164 0.99665 0.0
C784 C 0.04162 0.02247 0.9728 0.0
C785 C 0.06475 0.9702 0.99005 0.0
C786 C 0.0691 0.03296 0.97314 0.0
C787 C 0.08116 0.04397 0.95675 0.0
C788 C 0.0658 0.04461 0.93989 0.0
C789 C 0.03801 0.03487 0.93989 0.0
C790 C 0.02608 0.02397 0.95615 0.0
H791 H 0.06677 0.9484 0.99533 0.0
H792 H 0.06446 0.96974 0.97443 0.0
H793 H 0.08356 0.98207 0.99454 0.0
H794 H 0.08125 0.03242 0.98599 0.0
H795 H 0.10258 0.05134 0.95718 0.0
H796 H 0.41943 0.94187 0.45646 0.0
H797 H 0.44598 0.95989 0.48345 0.0
H798 H 0.51524 0.97961 0.4469 0.0
H799 H 0.48915 0.96161 0.42002 0.0
H800 H 0.53051 0.9547 0.48239 0.0
H801 H 0.45881 0.04593 0.48931 0.0
H802 H 0.44222 0.01215 0.48945 0.0
H803 H 0.45969 0.0241 0.46858 0.0
C804 C 0.44048 0.94962 0.45426 0.0
C805 C 0.4521 0.95057 0.43612 0.0
C806 C 0.45552 0.96006 0.46963 0.0
C807 C 0.48234 0.97146 0.46703 0.0
C808 C 0.49451 0.97103 0.44913 0.0
H809 H 0.60101 0.05286 0.5445 0.0
H810 H 0.5793 0.03438 0.51566 0.0
C811 C 0.47951 0.96077 0.4338 0.0
C812 C 0.49729 0.98516 0.48272 0.0
H813 H 0.49402 0.04114 0.51246 0.0
C814 C 0.52266 0.97365 0.48897 0.0
C815 C 0.48707 0.01006 0.491 0.0
C816 C 0.46058 0.02401 0.48419 0.0
C817 C 0.53763 0.98587 0.50385 0.0
C818 C 0.52713 0.01051 0.51237 0.0
C819 C 0.50204 0.0223 0.50583 0.0
C820 C 0.54035 0.02296 0.52921 0.0
C821 C 0.56398 0.97182 0.51079 0.0
C822 C 0.52531 0.02342 0.54609 0.0
C823 C 0.53744 0.03405 0.56237 0.0
C824 C 0.56495 0.04456 0.56215 0.0
C825 C 0.57982 0.04489 0.54509 0.0
C826 C 0.56755 0.03414 0.52869 0.0
H827 H 0.56634 0.9503 0.50505 0.0
H828 H 0.58241 0.98429 0.50632 0.0
H829 H 0.56411 0.97069 0.52639 0.0
H830 H 0.50427 0.01501 0.54676 0.0
H831 H 0.5253 0.03357 0.57524 0.0
H832 H 0.1987 0.14221 0.95825 0.0
H833 H 0.23126 0.14492 0.98474 0.0
H834 H 0.28665 0.08683 0.95674 0.0
H835 H 0.25329 0.08318 0.93066 0.0
H836 H 0.27744 0.06929 0.9903 0.0
H837 H 0.30361 0.18123 0.99645 0.0
H838 H 0.26637 0.17704 0.99629 0.0
H839 H 0.28655 0.16716 0.97587 0.0
C840 C 0.21834 0.13091 0.95749 0.0
C841 C 0.22377 0.11282 0.94238 0.0
C842 C 0.23701 0.13244 0.97262 0.0
C843 C 0.2617 0.11634 0.97271 0.0
C844 C 0.26784 0.09951 0.95702 0.0
H845 H 0.35947 0.14182 0.07495 0.0
H846 H 0.35085 0.13444 0.04134 0.0
C847 C 0.24895 0.09762 0.94205 0.0
C848 C 0.27915 0.11445 0.99003 0.0
H849 H 0.30741 0.15398 0.02517 0.0
C850 C 0.2845 0.08784 0.99772 0.0
C851 C 0.28896 0.13847 0.99964 0.0
C852 C 0.28633 0.16752 0.99149 0.0
C853 C 0.2979 0.08469 0.01519 0.0
C854 C 0.30535 0.10882 0.02559 0.0
C855 C 0.30145 0.13536 0.0174 0.0
C856 C 0.31497 0.10745 0.04551 0.0
C857 C 0.30373 0.05548 0.02228 0.0
C858 C 0.29864 0.09361 0.05911 0.0
C859 C 0.30419 0.09712 0.07828 0.0
C860 C 0.32581 0.1149 0.08417 0.0
C861 C 0.34318 0.12739 0.07067 0.0
C862 C 0.33799 0.12346 0.05149 0.0
H863 H 0.30746 0.04083 0.01039 0.0
H864 H 0.3222 0.05494 0.03175 0.0
H865 H 0.2852 0.04774 0.03011 0.0
H866 H 0.28025 0.08187 0.05502 0.0
H867 H 0.28992 0.08814 0.08848 0.0
H868 H 0.59359 0.59386 0.32013 0.0
H869 H 0.60564 0.58075 0.28796 0.0
H870 H 0.68031 0.53972 0.3081 0.0
H871 H 0.66804 0.55273 0.34055 0.0
H872 H 0.65072 0.58237 0.26178 0.0
H873 H 0.62879 0.47569 0.28964 0.0
H874 H 0.62168 0.50697 0.30302 0.0
H875 H 0.65692 0.4942 0.30088 0.0
C876 C 0.61327 0.5832 0.31759 0.0
C877 C 0.62989 0.57423 0.33274 0.0
C878 C 0.62008 0.57561 0.29921 0.0
C879 C 0.6435 0.55872 0.2957 0.0
C880 C 0.66192 0.55248 0.31058 0.0
H881 H 0.6882 0.48337 0.1888 0.0
H882 H 0.68496 0.51519 0.21561 0.0
C883 C 0.65513 0.56021 0.32907 0.0
C884 C 0.64557 0.54406 0.27735 0.0
H885 H 0.63803 0.47947 0.25736 0.0
C886 C 0.64823 0.55985 0.26077 0.0
C887 C 0.64145 0.51476 0.27607 0.0
C888 C 0.6368 0.49684 0.29329 0.0
C889 C 0.6471 0.54703 0.24295 0.0
C890 C 0.64341 0.51768 0.24174 0.0
C891 C 0.64074 0.50198 0.25832 0.0
C892 C 0.64319 0.50236 0.22356 0.0
C893 C 0.64915 0.56508 0.22561 0.0
C894 C 0.62055 0.48488 0.21884 0.0
C895 C 0.62242 0.46649 0.20352 0.0
C896 C 0.6471 0.46512 0.19285 0.0
C897 C 0.66896 0.48394 0.19686 0.0
C898 C 0.66707 0.5023 0.2121 0.0
H899 H 0.64382 0.58727 0.22869 0.0
H900 H 0.67095 0.56446 0.22024 0.0
H901 H 0.63506 0.55732 0.21433 0.0
H902 H 0.60195 0.48453 0.22755 0.0
H903 H 0.60539 0.45206 0.20086 0.0
H904 H 0.19708 0.91573 0.58782 0.0
H905 H 0.20801 0.92214 0.55449 0.0
H906 H 0.15148 0.85495 0.54024 0.0
H907 H 0.14155 0.84787 0.57363 0.0
H908 H 0.20201 0.84312 0.52911 0.0
H909 H 0.17883 0.9506 0.50522 0.0
H910 H 0.19816 0.95114 0.52682 0.0
H911 H 0.16359 0.93608 0.52632 0.0
C912 C 0.18584 0.90345 0.57746 0.0
C913 C 0.16826 0.88155 0.58317 0.0
C914 C 0.19213 0.90705 0.55837 0.0
C915 C 0.18054 0.88905 0.54475 0.0
C916 C 0.16067 0.86911 0.55042 0.0
H917 H 0.255 0.89647 0.43069 0.0
H918 H 0.21823 0.89266 0.4549 0.0
C919 C 0.15478 0.86523 0.56948 0.0
C920 C 0.1932 0.88718 0.52567 0.0
H921 H 0.21666 0.92649 0.48877 0.0
C922 C 0.20455 0.86128 0.52011 0.0
C923 C 0.19648 0.91068 0.51375 0.0
C924 C 0.18333 0.9386 0.51826 0.0
C925 C 0.22051 0.85866 0.50365 0.0
C926 C 0.22569 0.88264 0.49258 0.0
C927 C 0.21287 0.90815 0.4974 0.0
C928 C 0.24695 0.88233 0.4774 0.0
C929 C 0.23248 0.8304 0.49859 0.0
C930 C 0.27507 0.8774 0.48201 0.0
C931 C 0.29587 0.87958 0.46834 0.0
C932 C 0.28897 0.88665 0.44975 0.0
C933 C 0.26072 0.89055 0.44489 0.0
C934 C 0.23982 0.88864 0.4587 0.0
H935 H 0.21991 0.81313 0.50477 0.0
H936 H 0.23344 0.82754 0.4831 0.0
H937 H 0.25406 0.82875 0.50427 0.0
H938 H 0.28108 0.87291 0.4964 0.0
H939 H 0.31753 0.87674 0.47243 0.0
H940 H 0.8975 0.54056 0.69986 0.0
H941 H 0.90113 0.5068 0.72581 0.0
H942 H 0.81756 0.4776 0.71399 0.0
H943 H 0.81399 0.511 0.68805 0.0
H944 H 0.86327 0.51198 0.75579 0.0
H945 H 0.85981 0.40452 0.72604 0.0
H946 H 0.86981 0.43474 0.7123 0.0
H947 H 0.83354 0.42798 0.71712 0.0
C948 C 0.88039 0.52615 0.70236 0.0
C949 C 0.85546 0.52837 0.69203 0.0
C950 C 0.88239 0.50702 0.71723 0.0
C951 C 0.85963 0.48962 0.72178 0.0
C952 C 0.83552 0.49045 0.71057 0.0
H953 H 0.82682 0.43498 0.83657 0.0
H954 H 0.81771 0.44743 0.80357 0.0
C955 C 0.83346 0.50963 0.69581 0.0
C956 C 0.85935 0.47392 0.73978 0.0
H957 H 0.85281 0.40871 0.75914 0.0
C958 C 0.86106 0.48939 0.75651 0.0
C959 C 0.85626 0.44449 0.74066 0.0
C960 C 0.85497 0.42686 0.72308 0.0
C961 C 0.85982 0.47628 0.77412 0.0
C962 C 0.85639 0.44689 0.77506 0.0
C963 C 0.85484 0.4313 0.75834 0.0
C964 C 0.85761 0.43217 0.79338 0.0
C965 C 0.86289 0.49394 0.79164 0.0
C966 C 0.88215 0.41784 0.79823 0.0
C967 C 0.88732 0.4108 0.81695 0.0
C968 C 0.8679 0.41769 0.83106 0.0
C969 C 0.84193 0.42912 0.82591 0.0
C970 C 0.83685 0.43645 0.80711 0.0
H971 H 0.86972 0.51564 0.78839 0.0
H972 H 0.84245 0.49508 0.79901 0.0
H973 H 0.87829 0.48438 0.80142 0.0
H974 H 0.89841 0.41438 0.78786 0.0
H975 H 0.90756 0.40211 0.82063 0.0
H976 H 0.8222 0.87824 0.02998 0.0
H977 H 0.78657 0.8756 0.0054 0.0
H978 H 0.72226 0.8925 0.04646 0.0
H979 H 0.75822 0.89533 0.07126 0.0
H980 H 0.73803 0.84236 0.00137 0.0
H981 H 0.71388 0.95624 0.00678 0.0
H982 H 0.74469 0.941 0.01736 0.0
H983 H 0.71098 0.93553 0.02784 0.0
C984 C 0.80039 0.88082 0.03381 0.0
C985 C 0.79288 0.88698 0.05245 0.0
C986 C 0.78008 0.8794 0.01978 0.0
C987 C 0.75184 0.88434 0.02405 0.0
C988 C 0.744 0.88905 0.04285 0.0
H989 H 0.6425 0.85491 0.92769 0.0
H990 H 0.65385 0.86152 0.96099 0.0
C991 C 0.76444 0.8903 0.057 0.0
C992 C 0.73129 0.8856 0.00843 0.0
H993 H 0.69352 0.93159 0.98165 0.0
C994 C 0.7278 0.8617 0.99723 0.0
C995 C 0.71837 0.91103 0.00297 0.0
C996 C 0.72218 0.93754 0.01423 0.0
C997 C 0.71274 0.86272 0.98031 0.0
C998 C 0.70021 0.88829 0.97462 0.0
C999 C 0.70285 0.912 0.98616 0.0
C1000 C 0.68716 0.89118 0.95577 0.0
C1001 C 0.71189 0.8368 0.96812 0.0
C1002 C 0.70028 0.9077 0.94199 0.0
C1003 C 0.69322 0.90453 0.92299 0.0
C1004 C 0.67305 0.88477 0.91763 0.0
C1005 C 0.65782 0.87061 0.93157 0.0
C1006 C 0.66457 0.87408 0.95056 0.0
H1007 H 0.72722 0.82072 0.97278 0.0
H1008 H 0.6907 0.82737 0.96883 0.0
H1009 H 0.71635 0.8421 0.95321 0.0
H1010 H 0.71774 0.92107 0.94572 0.0
H1011 H 0.70566 0.91517 0.91244 0.0
H1012 H 0.36473 0.5718 0.77992 0.0
H1013 H 0.36878 0.53648 0.75522 0.0
H1014 H 0.36793 0.47112 0.79709 0.0
H1015 H 0.36362 0.50676 0.82204 0.0
H1016 H 0.40849 0.49375 0.74911 0.0
H1017 H 0.30122 0.45201 0.76147 0.0
H1018 H 0.31271 0.48507 0.77108 0.0
H1019 H 0.32484 0.45286 0.78119 0.0
C1020 C 0.36588 0.54991 0.78387 0.0
C1021 C 0.36382 0.54193 0.80283 0.0
C1022 C 0.36812 0.52976 0.76977 0.0
C1023 C 0.36815 0.50118 0.7743 0.0
C1024 C 0.36749 0.49308 0.7933 0.0
H1025 H 0.40294 0.39341 0.67815 0.0
H1026 H 0.39827 0.40582 0.71141 0.0
C1027 C 0.36539 0.51338 0.80752 0.0
C1028 C 0.36805 0.48038 0.7588 0.0
H1029 H 0.32551 0.43487 0.73508 0.0
C1030 C 0.3906 0.48046 0.7462 0.0
C1031 C 0.34442 0.46344 0.75494 0.0
C1032 C 0.31927 0.4633 0.76776 0.0
C1033 C 0.38982 0.46489 0.72948 0.0
C1034 C 0.36604 0.44819 0.72545 0.0
C1035 C 0.34379 0.44742 0.73832 0.0
C1036 C 0.36318 0.43374 0.70706 0.0
C1037 C 0.41384 0.46777 0.71579 0.0
C1038 C 0.34334 0.44327 0.69393 0.0
C1039 C 0.34551 0.43554 0.67497 0.0
C1040 C 0.36764 0.41836 0.66902 0.0
C1041 C 0.38551 0.40644 0.6825 0.0
C1042 C 0.38307 0.41378 0.70145 0.0
H1043 H 0.42759 0.4858 0.71927 0.0
H1044 H 0.42681 0.44849 0.7162 0.0
H1045 H 0.40598 0.47052 0.70121 0.0
H1046 H 0.32778 0.45864 0.69799 0.0
H1047 H 0.33186 0.44541 0.66476 0.0
H1048 H 0.81405 0.07837 0.41467 0.0
H1049 H 0.80406 0.06839 0.44792 0.0
H1050 H 0.83667 0.14937 0.46337 0.0
H1051 H 0.84668 0.15929 0.43039 0.0
H1052 H 0.84433 0.10597 0.49179 0.0
H1053 H 0.73544 0.11675 0.4647 0.0
H1054 H 0.75634 0.0896 0.4542 0.0
H1055 H 0.76561 0.12567 0.4507 0.0
C1056 C 0.8204 0.09335 0.42529 0.0
C1057 C 0.83096 0.11963 0.42005 0.0
C1058 C 0.81444 0.08778 0.44424 0.0
C1059 C 0.81912 0.10842 0.45801 0.0
C1060 C 0.83283 0.13322 0.45298 0.0
H1061 H 0.71227 0.14747 0.55201 0.0
H1062 H 0.74511 0.1512 0.52561 0.0
C1063 C 0.83858 0.13884 0.43413 0.0
C1064 C 0.80531 0.10688 0.47665 0.0
H1065 H 0.74093 0.11147 0.49723 0.0
C1066 C 0.82172 0.10688 0.49304 0.0
C1067 C 0.77584 0.10889 0.47819 0.0
C1068 C 0.75718 0.11046 0.46106 0.0
C1069 C 0.80933 0.10861 0.51098 0.0
C1070 C 0.77985 0.11034 0.51245 0.0
C1071 C 0.76355 0.11032 0.49605 0.0
C1072 C 0.765 0.11117 0.53077 0.0
C1073 C 0.82784 0.10921 0.52815 0.0
C1074 C 0.76608 0.08799 0.54284 0.0
C1075 C 0.74747 0.08592 0.55792 0.0
C1076 C 0.72733 0.10691 0.56113 0.0
C1077 C 0.72775 0.13115 0.54997 0.0
C1078 C 0.74636 0.13318 0.53482 0.0
H1079 H 0.84969 0.11514 0.52456 0.0
H1080 H 0.81965 0.12415 0.53879 0.0
H1081 H 0.82829 0.08806 0.53459 0.0
H1082 H 0.77993 0.07058 0.53985 0.0
H1083 H 0.74757 0.06702 0.56635 0.0
H1084 H 0.10821 0.44445 0.29056 0.0
H1085 H 0.10761 0.47636 0.26357 0.0
H1086 H 0.1659 0.53084 0.29204 0.0
H1087 H 0.16739 0.49818 0.31867 0.0
H1088 H 0.09616 0.52991 0.25612 0.0
H1089 H 0.20989 0.51104 0.24586 0.0
H1090 H 0.18945 0.4918 0.26277 0.0
H1091 H 0.20113 0.52675 0.26801 0.0
C1092 C 0.12016 0.4637 0.29124 0.0
C1093 C 0.1377 0.46906 0.30663 0.0
C1094 C 0.12 0.48183 0.27579 0.0
C1095 C 0.13733 0.50563 0.27554 0.0
C1096 C 0.153 0.51222 0.29167 0.0
H1097 H 0.11842 0.60816 0.17368 0.0
H1098 H 0.12655 0.59845 0.20713 0.0
C1099 C 0.1535 0.49384 0.30698 0.0
C1100 C 0.1404 0.52206 0.25789 0.0
H1101 H 0.18769 0.54041 0.22394 0.0
C1102 C 0.1162 0.53249 0.24917 0.0
C1103 C 0.16658 0.52507 0.24869 0.0
C1104 C 0.19322 0.51287 0.25669 0.0
C1105 C 0.11723 0.54497 0.23129 0.0
C1106 C 0.14341 0.54805 0.22212 0.0
C1107 C 0.16774 0.53843 0.2311 0.0
C1108 C 0.1454 0.55782 0.2023 0.0
C1109 C 0.08999 0.55315 0.22198 0.0
C1110 C 0.15581 0.53953 0.18847 0.0
C1111 C 0.15206 0.54555 0.1694 0.0
C1112 C 0.1379 0.56994 0.1639 0.0
C1113 C 0.12995 0.58951 0.17763 0.0
C1114 C 0.13408 0.58369 0.19672 0.0
H1115 H 0.07162 0.54366 0.22912 0.0
H1116 H 0.08754 0.57624 0.22256 0.0
H1117 H 0.08973 0.54659 0.207 0.0
H1118 H 0.16474 0.5195 0.1924 0.0
H1119 H 0.15768 0.52984 0.15905 0.0
H1120 H 0.85348 0.64697 0.5716 0.0
H1121 H 0.84048 0.64034 0.5386 0.0
H1122 H 0.78283 0.57526 0.55483 0.0
H1123 H 0.79653 0.58131 0.58783 0.0
H1124 H 0.80636 0.56836 0.51754 0.0
H1125 H 0.76222 0.67463 0.53026 0.0
H1126 H 0.79939 0.67146 0.53334 0.0
H1127 H 0.7761 0.65327 0.54897 0.0
C1128 C 0.83924 0.63016 0.56796 0.0
C1129 C 0.82613 0.61448 0.58215 0.0
C1130 C 0.83157 0.62662 0.54915 0.0
C1131 C 0.81016 0.60784 0.54435 0.0
C1132 C 0.79935 0.58993 0.55825 0.0
H1133 H 0.67205 0.61307 0.47132 0.0
H1134 H 0.70745 0.61632 0.49602 0.0
C1135 C 0.80736 0.5932 0.57709 0.0
C1136 C 0.79569 0.61031 0.52594 0.0
H1137 H 0.75265 0.65395 0.50111 0.0
C1138 C 0.79494 0.58718 0.51376 0.0
C1139 C 0.78046 0.63482 0.52122 0.0
C1140 C 0.77929 0.65991 0.53415 0.0
C1141 C 0.77889 0.58772 0.49716 0.0
C1142 C 0.76342 0.61211 0.49261 0.0
C1143 C 0.76481 0.63545 0.50454 0.0
C1144 C 0.7427 0.61256 0.47707 0.0
C1145 C 0.77741 0.56178 0.48509 0.0
C1146 C 0.7508 0.61039 0.45812 0.0
C1147 C 0.73048 0.60879 0.44389 0.0
C1148 C 0.70188 0.6092 0.44852 0.0
C1149 C 0.69397 0.6127 0.4674 0.0
C1150 C 0.71416 0.61448 0.48151 0.0
H1151 H 0.78764 0.54349 0.49188 0.0
H1152 H 0.75527 0.55638 0.48201 0.0
H1153 H 0.78805 0.56583 0.47148 0.0
H1154 H 0.77276 0.6093 0.45439 0.0
H1155 H 0.73704 0.60586 0.42944 0.0
H1156 H 0.09152 0.09591 0.82224 0.0
H1157 H 0.09999 0.08383 0.78936 0.0
H1158 H 0.18079 0.05023 0.80427 0.0
H1159 H 0.17233 0.06244 0.8374 0.0
H1160 H 0.14402 0.08948 0.76024 0.0
H1161 H 0.12926 0.98217 0.7893 0.0
H1162 H 0.12116 0.01326 0.80266 0.0
H1163 H 0.15693 0.00268 0.7995 0.0
C1164 C 0.11164 0.08715 0.81836 0.0
C1165 C 0.13127 0.08002 0.83229 0.0
C1166 C 0.11642 0.0802 0.79958 0.0
C1167 C 0.14078 0.06573 0.79446 0.0
C1168 C 0.16177 0.06128 0.80801 0.0
H1169 H 0.18148 0.98863 0.68796 0.0
H1170 H 0.17826 0.02185 0.71403 0.0
C1171 C 0.15707 0.06848 0.82688 0.0
C1172 C 0.14155 0.05114 0.77607 0.0
H1173 H 0.13482 0.98611 0.75665 0.0
C1174 C 0.14227 0.06687 0.75939 0.0
C1175 C 0.13845 0.0217 0.77506 0.0
C1176 C 0.13617 0.00386 0.79253 0.0
C1177 C 0.14034 0.0538 0.74168 0.0
C1178 C 0.13762 0.02432 0.74072 0.0
C1179 C 0.13675 0.00872 0.75742 0.0
C1180 C 0.13688 0.00875 0.72267 0.0
C1181 C 0.14067 0.0716 0.72417 0.0
C1182 C 0.11436 0.99081 0.71853 0.0
C1183 C 0.11617 0.97176 0.70358 0.0
C1184 C 0.14067 0.97018 0.69275 0.0
C1185 C 0.16233 0.9895 0.69611 0.0
C1186 C 0.16047 0.00858 0.71095 0.0
H1187 H 0.13539 0.09379 0.72731 0.0
H1188 H 0.16195 0.07107 0.71793 0.0
H1189 H 0.12571 0.06347 0.71354 0.0
H1190 H 0.09602 0.99052 0.72748 0.0
H1191 H 0.09935 0.9569 0.70142 0.0
H1192 H 0.65119 0.33935 0.06995 0.0
H1193 H 0.66148 0.34922 0.03701 0.0
H1194 H 0.69694 0.42887 0.05279 0.0
H1195 H 0.68673 0.41887 0.08601 0.0
H1196 H 0.65517 0.39235 0.00881 0.0
H1197 H 0.76393 0.37922 0.03559 0.0
H1198 H 0.73365 0.37119 0.04972 0.0
H1199 H 0.74389 0.40698 0.04611 0.0
C1200 C 0.66 0.35954 0.0663 0.0
C1201 C 0.66834 0.37831 0.08045 0.0
C1202 C 0.66591 0.36513 0.04747 0.0
C1203 C 0.68049 0.38947 0.04253 0.0
C1204 C 0.68591 0.4098 0.05639 0.0
H1205 H 0.7515 0.42991 0.93393 0.0
H1206 H 0.71928 0.42649 0.96051 0.0
C1207 C 0.67982 0.40425 0.07533 0.0
C1208 C 0.69425 0.39073 0.02385 0.0
H1209 H 0.75841 0.38499 0.0031 0.0
C1210 C 0.67775 0.39102 0.0075 0.0
C1211 C 0.72367 0.38814 0.02223 0.0
C1212 C 0.74241 0.38612 0.0393 0.0
C1213 C 0.68999 0.38905 0.98953 0.0
C1214 C 0.71943 0.38683 0.98797 0.0
C1215 C 0.73582 0.38652 0.00433 0.0
C1216 C 0.73417 0.38589 0.96961 0.0
C1217 C 0.67133 0.38871 0.97243 0.0
C1218 C 0.75274 0.36383 0.96553 0.0
C1219 C 0.77129 0.3658 0.95035 0.0
C1220 C 0.77171 0.39001 0.93916 0.0
C1221 C 0.7516 0.41102 0.94238 0.0
C1222 C 0.73306 0.40903 0.9575 0.0
H1223 H 0.64951 0.38279 0.97607 0.0
H1224 H 0.67085 0.40996 0.96612 0.0
H1225 H 0.67937 0.3739 0.96166 0.0
H1226 H 0.75399 0.34582 0.97476 0.0
H1227 H 0.78674 0.34945 0.9483 0.0
H1228 H 0.39059 0.04994 0.20955 0.0
H1229 H 0.39145 0.01698 0.2359 0.0
H1230 H 0.32487 0.96948 0.21011 0.0
H1231 H 0.3233 0.00324 0.18416 0.0
H1232 H 0.31132 0.98108 0.24437 0.0
H1233 H 0.41911 0.9401 0.2463 0.0
H1234 H 0.41972 0.9776 0.24609 0.0
H1235 H 0.40562 0.95884 0.22621 0.0
C1236 C 0.37694 0.03184 0.20921 0.0
C1237 C 0.35717 0.0288 0.19479 0.0
C1238 C 0.37741 0.01295 0.22426 0.0
C1239 C 0.35843 0.99044 0.22496 0.0
C1240 C 0.33978 0.98656 0.20991 0.0
H1241 H 0.37915 0.8905 0.32688 0.0
H1242 H 0.36969 0.89928 0.29351 0.0
C1243 C 0.33904 0.00567 0.19502 0.0
C1244 C 0.35572 0.97327 0.24236 0.0
H1245 H 0.39399 0.93968 0.27599 0.0
C1246 C 0.32934 0.97152 0.25107 0.0
C1247 C 0.37896 0.96022 0.25104 0.0
C1248 C 0.40734 0.95902 0.24178 0.0
C1249 C 0.32594 0.95864 0.26869 0.0
C1250 C 0.34969 0.94793 0.27816 0.0
C1251 C 0.37573 0.94814 0.26892 0.0
C1252 C 0.3488 0.93894 0.29822 0.0
C1253 C 0.29693 0.95694 0.27698 0.0
C1254 C 0.33896 0.95752 0.31209 0.0
C1255 C 0.34368 0.95206 0.33115 0.0
C1256 C 0.35859 0.92814 0.33665 0.0
C1257 C 0.36681 0.90863 0.32296 0.0
C1258 C 0.36176 0.91387 0.30389 0.0
H1259 H 0.28087 0.95524 0.26573 0.0
H1260 H 0.29473 0.93876 0.2866 0.0
H1261 H 0.29252 0.97641 0.28498 0.0
H1262 H 0.3297 0.97738 0.30819 0.0
H1263 H 0.33812 0.96789 0.34143 0.0
H1264 H 0.30279 0.35678 0.54216 0.0
H1265 H 0.27054 0.35473 0.51542 0.0
H1266 H 0.21073 0.40467 0.54623 0.0
H1267 H 0.24372 0.40783 0.57262 0.0
H1268 H 0.21915 0.33804 0.50775 0.0
H1269 H 0.22364 0.45391 0.50162 0.0
H1270 H 0.24545 0.43467 0.51776 0.0
H1271 H 0.20941 0.44167 0.52346 0.0
C1272 C 0.28238 0.36654 0.54338 0.0
C1273 C 0.27554 0.38229 0.55937 0.0
C1274 C 0.26403 0.36557 0.52808 0.0
C1275 C 0.2385 0.38024 0.52859 0.0
C1276 C 0.23064 0.39392 0.54527 0.0
H1277 H 0.13694 0.35682 0.42678 0.0
H1278 H 0.14678 0.36279 0.4604 0.0
C1279 C 0.24923 0.39532 0.56045 0.0
C1280 C 0.22142 0.38272 0.51116 0.0
H1281 H 0.19657 0.43008 0.47916 0.0
C1282 C 0.21396 0.35816 0.50157 0.0
C1283 C 0.21502 0.40905 0.50297 0.0
C1284 C 0.22399 0.43633 0.51186 0.0
C1285 C 0.2012 0.35907 0.48379 0.0
C1286 C 0.19462 0.38539 0.47565 0.0
C1287 C 0.20124 0.40996 0.48551 0.0
C1288 C 0.18401 0.38779 0.45604 0.0
C1289 C 0.19654 0.3318 0.47347 0.0
C1290 C 0.19996 0.4022 0.44253 0.0
C1291 C 0.19366 0.39971 0.4234 0.0
C1292 C 0.17139 0.38273 0.41753 0.0
C1293 C 0.15392 0.37043 0.43106 0.0
C1294 C 0.15987 0.37339 0.45023 0.0
H1295 H 0.20882 0.31435 0.47971 0.0
H1296 H 0.17407 0.32607 0.47428 0.0
H1297 H 0.20242 0.33372 0.45842 0.0
H1298 H 0.2186 0.41357 0.44665 0.0
H1299 H 0.20779 0.40878 0.41316 0.0
H1300 H 0.88527 0.89259 0.17698 0.0
H1301 H 0.87549 0.90274 0.21012 0.0
H1302 H 0.83141 0.97777 0.19363 0.0
H1303 H 0.8401 0.96679 0.16061 0.0
H1304 H 0.89773 0.94518 0.22653 0.0
H1305 H 0.78392 0.95546 0.23672 0.0
H1306 H 0.79857 0.93874 0.21618 0.0
H1307 H 0.79462 0.9763 0.21706 0.0
C1308 C 0.87204 0.91028 0.18048 0.0
C1309 C 0.86272 0.92851 0.16633 0.0
C1310 C 0.86678 0.91632 0.19941 0.0
C1311 C 0.85256 0.94098 0.20449 0.0
C1312 C 0.84169 0.95821 0.1902 0.0
H1313 H 0.88891 0.05557 0.29302 0.0
H1314 H 0.89114 0.0231 0.26639 0.0
C1315 C 0.84656 0.95191 0.17127 0.0
C1316 C 0.85305 0.95102 0.22433 0.0
H1317 H 0.81309 0.98304 0.25781 0.0
C1318 C 0.87907 0.95289 0.23351 0.0
C1319 C 0.8288 0.96081 0.23368 0.0
C1320 C 0.79991 0.95742 0.22544 0.0
C1321 C 0.8817 0.96554 0.25126 0.0
C1322 C 0.85781 0.97751 0.25986 0.0
C1323 C 0.83156 0.97429 0.25116 0.0
C1324 C 0.8596 0.99478 0.27726 0.0
C1325 C 0.91012 0.96601 0.26051 0.0
C1326 C 0.84129 0.98975 0.29234 0.0
C1327 C 0.83974 0.00855 0.30738 0.0
C1328 C 0.85669 0.03257 0.30773 0.0
C1329 C 0.87614 0.03683 0.29325 0.0
C1330 C 0.8774 0.01823 0.27804 0.0
H1331 H 0.92297 0.94779 0.25602 0.0
H1332 H 0.9214 0.98527 0.25619 0.0
H1333 H 0.90842 0.96579 0.27609 0.0
H1334 H 0.82731 0.9719 0.29209 0.0
H1335 H 0.82432 0.00509 0.31831 0.0
H1336 H 0.24217 0.59854 0.07072 0.0
H1337 H 0.27946 0.60093 0.04681 0.0
H1338 H 0.21864 0.62633 0.00533 0.0
H1339 H 0.18163 0.62387 0.02902 0.0
H1340 H 0.27905 0.56821 0.01238 0.0
H1341 H 0.28397 0.68206 0.99822 0.0
H1342 H 0.26929 0.66788 0.01961 0.0
H1343 H 0.24881 0.66883 0.99837 0.0
C1344 C 0.23705 0.60541 0.05661 0.0
C1345 C 0.20918 0.61129 0.05168 0.0
C1346 C 0.25824 0.60652 0.04297 0.0
C1347 C 0.25181 0.61398 0.02435 0.0
C1348 C 0.22413 0.62092 0.01967 0.0
H1349 H 0.29851 0.5819 0.91365 0.0
H1350 H 0.2879 0.57456 0.94692 0.0
C1351 C 0.20302 0.61954 0.03318 0.0
C1352 C 0.2732 0.61272 0.00926 0.0
H1353 H 0.30005 0.65174 0.97348 0.0
C1354 C 0.28423 0.58654 0.00408 0.0
C1355 C 0.28021 0.63665 0.99861 0.0
C1356 C 0.27018 0.6655 0.00408 0.0
C1357 C 0.30056 0.58343 0.98774 0.0
C1358 C 0.30564 0.60705 0.97622 0.0
C1359 C 0.29614 0.6335 0.98219 0.0
C1360 C 0.31804 0.60491 0.95707 0.0
C1361 C 0.31166 0.5548 0.98278 0.0
C1362 C 0.33935 0.62347 0.95164 0.0
C1363 C 0.34516 0.62782 0.93261 0.0
C1364 C 0.33008 0.6134 0.91872 0.0
C1365 C 0.31099 0.59262 0.92414 0.0
C1366 C 0.30486 0.58852 0.94321 0.0
H1367 H 0.31521 0.54204 0.99562 0.0
H1368 H 0.296 0.5437 0.974 0.0
H1369 H 0.33158 0.55617 0.97478 0.0
H1370 H 0.34975 0.6364 0.96204 0.0
H1371 H 0.35952 0.6444 0.92871 0.0
H1372 H 0.67256 0.06186 0.66395 0.0
H1373 H 0.68157 0.04985 0.69702 0.0
H1374 H 0.6016 0.08473 0.71262 0.0
H1375 H 0.5925 0.0965 0.67975 0.0
H1376 H 0.64862 0.08951 0.74131 0.0
H1377 H 0.62656 0.98328 0.71242 0.0
H1378 H 0.65419 0.00289 0.70139 0.0
H1379 H 0.61867 0.01485 0.69951 0.0
C1380 C 0.65762 0.06823 0.67459 0.0
C1381 C 0.63183 0.08 0.66939 0.0
C1382 C 0.66266 0.06119 0.69343 0.0
C1383 C 0.64205 0.06611 0.70717 0.0
C1384 C 0.61775 0.0808 0.70224 0.0
H1385 H 0.60114 0.95895 0.80116 0.0
H1386 H 0.59757 0.9931 0.77543 0.0
C1387 C 0.61261 0.08755 0.68347 0.0
C1388 C 0.64297 0.05148 0.72551 0.0
H1389 H 0.6339 0.98678 0.74493 0.0
C1390 C 0.64564 0.06704 0.74217 0.0
C1391 C 0.6383 0.02227 0.72652 0.0
C1392 C 0.63405 0.00473 0.70907 0.0
C1393 C 0.64418 0.05395 0.75988 0.0
C1394 C 0.6399 0.02466 0.76084 0.0
C1395 C 0.63701 0.00926 0.74416 0.0
C1396 C 0.63971 0.00897 0.77884 0.0
C1397 C 0.64675 0.07154 0.77741 0.0
C1398 C 0.66419 0.00729 0.78965 0.0
C1399 C 0.6662 0.98789 0.80427 0.0
C1400 C 0.64381 0.96976 0.80831 0.0
C1401 C 0.61857 0.97286 0.79843 0.0
C1402 C 0.61661 0.99223 0.7837 0.0
H1403 H 0.6425 0.09401 0.77452 0.0
H1404 H 0.63213 0.06415 0.78849 0.0
H1405 H 0.66839 0.06976 0.78297 0.0
H1406 H 0.68242 0.01961 0.78598 0.0
H1407 H 0.6859 0.98587 0.81171 0.0
H1408 H 0.41807 0.15645 0.15138 0.0
H1409 H 0.46349 0.1802 0.15122 0.0
H1410 H 0.42744 0.24905 0.12033 0.0
H1411 H 0.38211 0.22544 0.12022 0.0
H1412 H 0.47878 0.23083 0.10591 0.0
H1413 H 0.48447 0.24914 0.18298 0.0
H1414 H 0.47868 0.21333 0.17626 0.0
H1415 H 0.45245 0.23926 0.17124 0.0
C1416 C 0.4198 0.17663 0.14454 0.0
C1417 C 0.39641 0.18909 0.13589 0.0
C1418 C 0.44573 0.19025 0.14456 0.0
C1419 C 0.4487 0.21657 0.13601 0.0
C1420 C 0.42555 0.22881 0.12709 0.0
H1421 H 0.58416 0.33649 0.14849 0.0
H1422 H 0.53914 0.31199 0.14852 0.0
C1423 C 0.39964 0.21527 0.12707 0.0
C1424 C 0.47599 0.23134 0.13613 0.0
H1425 H 0.5248 0.26069 0.16518 0.0
C1426 C 0.48886 0.23738 0.11886 0.0
C1427 C 0.48887 0.24018 0.15304 0.0
C1428 C 0.47535 0.23541 0.17195 0.0
C1429 C 0.51446 0.25174 0.11804 0.0
C1430 C 0.52771 0.25992 0.13497 0.0
C1431 C 0.51468 0.2542 0.15223 0.0
C1432 C 0.55505 0.27459 0.13503 0.0
C1433 C 0.52684 0.25847 0.09904 0.0
C1434 C 0.57896 0.26154 0.12766 0.0
C1435 C 0.60467 0.27546 0.12758 0.0
C1436 C 0.60702 0.3027 0.135 0.0
C1437 C 0.58307 0.31558 0.14262 0.0
C1438 C 0.55734 0.30161 0.14267 0.0
H1439 H 0.5109 0.25728 0.08768 0.0
H1440 H 0.53624 0.27973 0.09897 0.0
H1441 H 0.54358 0.2431 0.09578 0.0
H1442 H 0.57777 0.24049 0.12203 0.0
H1443 H 0.62271 0.26484 0.12171 0.0
H1444 H 0.57191 0.65986 0.40423 0.0
H1445 H 0.54822 0.70518 0.40275 0.0
H1446 H 0.50175 0.67745 0.35414 0.0
H1447 H 0.52437 0.63155 0.35616 0.0
H1448 H 0.54739 0.74478 0.37779 0.0
H1449 H 0.43904 0.70528 0.38565 0.0
H1450 H 0.46919 0.6831 0.38889 0.0
H1451 H 0.45641 0.6906 0.36559 0.0
C1452 C 0.55654 0.66339 0.39327 0.0
C1453 C 0.54977 0.64209 0.38042 0.0
C1454 C 0.54304 0.68932 0.39242 0.0
C1455 C 0.52274 0.69462 0.37856 0.0
C1456 C 0.51662 0.67362 0.36534 0.0
H1457 H 0.46643 0.86684 0.35669 0.0
H1458 H 0.48925 0.82102 0.35428 0.0
C1459 C 0.52971 0.64746 0.36642 0.0
C1460 C 0.50835 0.72223 0.37795 0.0
H1461 H 0.44396 0.75331 0.3778 0.0
C1462 C 0.52476 0.74664 0.37785 0.0
C1463 C 0.47881 0.72472 0.37827 0.0
C1464 C 0.45985 0.69954 0.37981 0.0
C1465 C 0.51253 0.77339 0.37822 0.0
C1466 C 0.48298 0.77587 0.3779 0.0
C1467 C 0.46659 0.75146 0.37784 0.0
C1468 C 0.46854 0.80345 0.37868 0.0
C1469 C 0.53147 0.79859 0.37968 0.0
C1470 C 0.44837 0.8085 0.39265 0.0
C1471 C 0.43476 0.83433 0.39371 0.0
C1472 C 0.44128 0.85584 0.38096 0.0
C1473 C 0.46123 0.85075 0.36684 0.0
C1474 C 0.47445 0.82464 0.36555 0.0
H1475 H 0.55237 0.79288 0.38538 0.0
H1476 H 0.53468 0.80758 0.36546 0.0
H1477 H 0.52222 0.81499 0.38885 0.0
H1478 H 0.44336 0.79251 0.40292 0.0
H1479 H 0.41953 0.83763 0.40478 0.0
H1480 H 0.87877 0.728 0.61893 0.0
H1481 H 0.924 0.75193 0.6188 0.0
H1482 H 0.96139 0.6822 0.64805 0.0
H1483 H 0.9162 0.65815 0.64841 0.0
H1484 H 0.97418 0.73498 0.66368 0.0
H1485 H 0.99317 0.73253 0.58662 0.0
H1486 H 0.95985 0.74678 0.59343 0.0
H1487 H 0.96748 0.71055 0.59795 0.0
C1488 C 0.89662 0.71766 0.62527 0.0
C1489 C 0.89388 0.69112 0.63365 0.0
C1490 C 0.92249 0.73132 0.62508 0.0
C1491 C 0.94608 0.71867 0.63321 0.0
C1492 C 0.94342 0.69225 0.64163 0.0
H1493 H 0.11989 0.76814 0.62224 0.0
H1494 H 0.07499 0.74362 0.62183 0.0
C1495 C 0.91759 0.67853 0.64179 0.0
C1496 C 0.97338 0.73334 0.63342 0.0
H1497 H 0.02433 0.76001 0.60494 0.0
C1498 C 0.98521 0.74042 0.65086 0.0
C1499 C 0.98779 0.74011 0.61666 0.0
C1500 C 0.97662 0.73192 0.59759 0.0
C1501 C 0.01094 0.75447 0.65197 0.0
C1502 C 0.02499 0.76193 0.6352 0.0
C1503 C 0.01336 0.75449 0.61777 0.0
C1504 C 0.05205 0.77704 0.63545 0.0
C1505 C 0.0231 0.76082 0.6711 0.0
C1506 C 0.05394 0.8041 0.64304 0.0
C1507 C 0.07957 0.8182 0.64333 0.0
C1508 C 0.10377 0.8055 0.63593 0.0
C1509 C 0.1017 0.7785 0.62812 0.0
C1510 C 0.07605 0.76445 0.62784 0.0
H1511 H 0.01334 0.74786 0.68229 0.0
H1512 H 0.04606 0.75717 0.67124 0.0
H1513 H 0.01929 0.78317 0.67454 0.0
H1514 H 0.03553 0.81438 0.64867 0.0
H1515 H 0.0804 0.83902 0.64934 0.0
H1516 H 0.96552 0.36141 0.86399 0.0
H1517 H 0.99039 0.31674 0.86472 0.0
H1518 H 0.94077 0.29082 0.91236 0.0
H1519 H 0.91474 0.33499 0.91099 0.0
H1520 H 0.02288 0.29481 0.88951 0.0
H1521 H 0.93281 0.22316 0.88064 0.0
H1522 H 0.92957 0.26051 0.87773 0.0
H1523 H 0.92898 0.24519 0.90089 0.0
C1524 C 0.95971 0.34605 0.8745 0.0
C1525 C 0.93804 0.35158 0.88735 0.0
C1526 C 0.974 0.32053 0.87494 0.0
C1527 C 0.96723 0.3001 0.88841 0.0
C1528 C 0.94584 0.30579 0.90146 0.0
H1529 H 0.0834 0.16186 0.91237 0.0
H1530 H 0.05741 0.2061 0.91335 0.0
C1531 C 0.93109 0.33112 0.90075 0.0
C1532 C 0.98323 0.27333 0.889 0.0
H1533 H 0.97613 0.20219 0.88911 0.0
C1534 C 0.01263 0.27455 0.88932 0.0
C1535 C 0.96996 0.24683 0.88852 0.0
C1536 C 0.93862 0.24379 0.88673 0.0
C1537 C 0.02908 0.25015 0.88906 0.0
C1538 C 0.01579 0.22365 0.88931 0.0
C1539 C 0.98639 0.22244 0.8891 0.0
C1540 C 0.03179 0.19687 0.88897 0.0
C1541 C 0.06048 0.25319 0.88783 0.0
C1542 C 0.02548 0.17646 0.87538 0.0
C1543 C 0.03972 0.15092 0.87516 0.0
C1544 C 0.0609 0.14534 0.88835 0.0
C1545 C 0.06743 0.16577 0.90188 0.0
C1546 C 0.0527 0.19114 0.90236 0.0
H1547 H 0.06654 0.27382 0.88187 0.0
H1548 H 0.06956 0.25177 0.90216 0.0
H1549 H 0.06987 0.23647 0.87899 0.0
H1550 H 0.00948 0.18029 0.86489 0.0
H1551 H 0.03426 0.13559 0.86453 0.0
H1552 H 0.61493 0.78185 0.892 0.0
H1553 H 0.56932 0.75876 0.89354 0.0
H1554 H 0.54156 0.80625 0.84537 0.0
H1555 H 0.58662 0.83042 0.84439 0.0
H1556 H 0.50167 0.80416 0.87009 0.0
H1557 H 0.54288 0.69659 0.86103 0.0
H1558 H 0.55728 0.71347 0.88136 0.0
H1559 H 0.56462 0.72713 0.85826 0.0
C1560 C 0.59908 0.78732 0.88174 0.0
C1561 C 0.60436 0.80779 0.86799 0.0
C1562 C 0.57309 0.77396 0.88254 0.0
C1563 C 0.5522 0.78021 0.86927 0.0
C1564 C 0.55737 0.80095 0.8557 0.0
H1565 H 0.41015 0.67384 0.84496 0.0
H1566 H 0.45463 0.69901 0.84534 0.0
C1567 C 0.58313 0.81474 0.85514 0.0
C1568 C 0.52484 0.76543 0.86959 0.0
H1569 H 0.49491 0.70055 0.86951 0.0
C1570 C 0.50019 0.78149 0.86987 0.0
C1571 C 0.52286 0.73585 0.86901 0.0
C1572 C 0.54832 0.71728 0.8672 0.0
C1573 C 0.47367 0.76886 0.86959 0.0
C1574 C 0.47171 0.73926 0.86982 0.0
C1575 C 0.49637 0.72322 0.86954 0.0
C1576 C 0.4444 0.72439 0.86965 0.0
C1577 C 0.44815 0.78744 0.86843 0.0
C1578 C 0.42385 0.73005 0.88328 0.0
C1579 C 0.39813 0.71609 0.88283 0.0
C1580 C 0.39284 0.69563 0.86907 0.0
C1581 C 0.41367 0.68947 0.85575 0.0
C1582 C 0.43911 0.70384 0.85597 0.0
H1583 H 0.45335 0.80832 0.86249 0.0
H1584 H 0.43156 0.77783 0.85962 0.0
H1585 H 0.43967 0.7908 0.88279 0.0
H1586 H 0.42772 0.74513 0.89435 0.0
H1587 H 0.38257 0.721 0.89342 0.0
H1588 H 0.4148 0.33442 0.58958 0.0
H1589 H 0.44087 0.29025 0.58845 0.0
H1590 H 0.4894 0.3162 0.63661 0.0
H1591 H 0.4645 0.36086 0.63711 0.0
H1592 H 0.52247 0.29458 0.612 0.0
H1593 H 0.43259 0.22246 0.62002 0.0
H1594 H 0.42905 0.24453 0.59978 0.0
H1595 H 0.42913 0.25979 0.62297 0.0
C1596 C 0.4309 0.33055 0.59999 0.0
C1597 C 0.43757 0.35101 0.61346 0.0
C1598 C 0.44568 0.30522 0.59942 0.0
C1599 C 0.4668 0.29957 0.61267 0.0
C1600 C 0.47323 0.31998 0.62623 0.0
H1601 H 0.53427 0.1355 0.63705 0.0
H1602 H 0.50929 0.1801 0.63652 0.0
C1603 C 0.45892 0.34549 0.62654 0.0
C1604 C 0.48293 0.27289 0.61218 0.0
H1605 H 0.4762 0.20172 0.61196 0.0
C1606 C 0.51232 0.27426 0.61209 0.0
C1607 C 0.46978 0.24633 0.61251 0.0
C1608 C 0.43842 0.24314 0.61403 0.0
C1609 C 0.52889 0.24996 0.61247 0.0
C1610 C 0.51574 0.2234 0.61211 0.0
C1611 C 0.48634 0.22203 0.61207 0.0
C1612 C 0.53187 0.19672 0.61258 0.0
C1613 C 0.56025 0.25315 0.61395 0.0
C1614 C 0.55299 0.19107 0.59933 0.0
C1615 C 0.56783 0.16578 0.59991 0.0
C1616 C 0.56119 0.14534 0.6134 0.0
C1617 C 0.53981 0.15084 0.62646 0.0
C1618 C 0.52546 0.17632 0.62614 0.0
H1619 H 0.56611 0.27383 0.61995 0.0
H1620 H 0.56957 0.2365 0.62288 0.0
H1621 H 0.56958 0.25175 0.59969 0.0
H1622 H 0.55778 0.20603 0.58836 0.0
H1623 H 0.58395 0.16191 0.58952 0.0
H1624 H 0.11432 0.27263 0.37978 0.0
H1625 H 0.06903 0.24905 0.37913 0.0
H1626 H 0.03293 0.31949 0.34992 0.0
H1627 H 0.07838 0.34322 0.35027 0.0
H1628 H 0.01809 0.26609 0.39405 0.0
H1629 H 0.01144 0.25267 0.31656 0.0
H1630 H 0.04355 0.26207 0.32837 0.0
H1631 H 0.01703 0.28807 0.32425 0.0
C1632 C 0.09679 0.28317 0.37319 0.0
C1633 C 0.10003 0.30979 0.36498 0.0
C1634 C 0.0709 0.26963 0.37285 0.0
C1635 C 0.04774 0.28232 0.36423 0.0
C1636 C 0.0507 0.30909 0.35631 0.0
H1637 H 0.87427 0.23219 0.37817 0.0
H1638 H 0.91892 0.25704 0.37789 0.0
C1639 C 0.07664 0.32269 0.35663 0.0
C1640 C 0.02046 0.26754 0.36383 0.0
H1641 H 0.97144 0.23969 0.33427 0.0
C1642 C 0.00788 0.26032 0.38099 0.0
C1643 C 0.00739 0.25971 0.34676 0.0
C1644 C 0.0206 0.26576 0.32792 0.0
C1645 C 0.98241 0.24572 0.38155 0.0
C1646 C 0.96898 0.23851 0.36449 0.0
C1647 C 0.9817 0.24544 0.34732 0.0
C1648 C 0.94178 0.22363 0.36421 0.0
C1649 C 0.97033 0.23768 0.4004 0.0
C1650 C 0.93967 0.19686 0.35617 0.0
C1651 C 0.91411 0.18258 0.35623 0.0
C1652 C 0.89016 0.19493 0.36423 0.0
C1653 C 0.8923 0.22198 0.37198 0.0
C1654 C 0.91784 0.23619 0.37192 0.0
H1655 H 0.98634 0.23849 0.41173 0.0
H1656 H 0.95333 0.25252 0.40413 0.0
H1657 H 0.96131 0.21626 0.39995 0.0
H1658 H 0.95791 0.18688 0.35006 0.0
H1659 H 0.91316 0.16183 0.3501 0.0
H1660 H 0.08847 0.66614 0.1064 0.0
H1661 H 0.06525 0.71158 0.10895 0.0
H1662 H 0.99544 0.67272 0.13712 0.0
H1663 H 0.01867 0.62712 0.13486 0.0
H1664 H 0.01402 0.72606 0.09368 0.0
H1665 H 0.01334 0.7396 0.17124 0.0
H1666 H 0.03521 0.71411 0.15955 0.0
H1667 H -0.00134 0.7071 0.1632 0.0
C1668 C 0.06829 0.66723 0.1133 0.0
C1669 C 0.05544 0.64297 0.12044 0.0
C1670 C 0.05505 0.69324 0.11473 0.0
C1671 C 0.02878 0.69558 0.12341 0.0
C1672 C 0.01595 0.67147 0.13069 0.0
H1673 H 0.91119 0.83225 0.10765 0.0
H1674 H 0.93462 0.78679 0.10912 0.0
C1675 C 0.0292 0.6454 0.12928 0.0
C1676 C 0.01426 0.72303 0.12389 0.0
H1677 H 0.98681 0.77238 0.15343 0.0
C1678 C 0.00812 0.73622 0.10674 0.0
C1679 C 0.00686 0.73636 0.14096 0.0
C1680 C 0.01405 0.72374 0.15981 0.0
C1681 C 0.99447 0.76223 0.10617 0.0
C1682 C 0.98635 0.77519 0.12322 0.0
C1683 C 0.99283 0.76223 0.14039 0.0
C1684 C 0.97142 0.8024 0.12341 0.0
C1685 C 0.98926 0.77583 0.08733 0.0
C1686 C 0.98396 0.82607 0.13152 0.0
C1687 C 0.97057 0.85212 0.13078 0.0
C1688 C 0.94433 0.8549 0.12198 0.0
C1689 C 0.93147 0.83092 0.1144 0.0
C1690 C 0.94487 0.80492 0.11515 0.0
H1691 H 0.0027 0.76669 0.07614 0.0
H1692 H 0.96709 0.77256 0.08324 0.0
H1693 H 0.99315 0.79873 0.08801 0.0
H1694 H 0.0044 0.82451 0.13803 0.0
H1695 H 0.98101 0.87013 0.13682 0.0
H1696 H 0.25185 0.27759 0.07226 0.0
H1697 H 0.2287 0.32305 0.06681 0.0
H1698 H 0.23675 0.34271 0.1258 0.0
H1699 H 0.25975 0.29778 0.13122 0.0
H1700 H 0.1778 0.33989 0.08539 0.0
H1701 H 0.26446 0.41409 0.09908 0.0
H1702 H 0.27034 0.37768 0.09336 0.0
H1703 H 0.26119 0.38775 0.11696 0.0
C1704 C 0.24914 0.29198 0.0839 0.0
C1705 C 0.25743 0.28435 0.10214 0.0
C1706 C 0.23586 0.31775 0.08082 0.0
C1707 C 0.23129 0.33624 0.09589 0.0
C1708 C 0.24048 0.32892 0.11395 0.0
H1709 H 0.10945 0.46075 0.12372 0.0
H1710 H 0.13596 0.41749 0.11829 0.0
C1711 C 0.25345 0.30324 0.11704 0.0
C1712 C 0.21505 0.3623 0.0934 0.0
H1713 H 0.21784 0.43239 0.10222 0.0
C1714 C 0.1866 0.36023 0.08872 0.0
C1715 C 0.22668 0.38874 0.09763 0.0
C1716 C 0.25742 0.3923 0.10186 0.0
C1717 C 0.16909 0.38386 0.08909 0.0
C1718 C 0.18037 0.40999 0.09455 0.0
C1719 C 0.20914 0.41224 0.09828 0.0
C1720 C 0.16279 0.43529 0.09685 0.0
C1721 C 0.1387 0.38057 0.0838 0.0
C1722 C 0.16933 0.45963 0.08679 0.0
C1723 C 0.15453 0.48433 0.09002 0.0
C1724 C 0.13289 0.48521 0.10343 0.0
C1725 C 0.12594 0.46067 0.11326 0.0
C1726 C 0.14093 0.43592 0.11007 0.0
H1727 H 0.13534 0.3618 0.07484 0.0
H1728 H 0.12607 0.37794 0.09678 0.0
H1729 H 0.13086 0.39931 0.0762 0.0
H1730 H 0.18617 0.45962 0.07658 0.0
H1731 H 0.16032 0.50283 0.08211 0.0
H1732 H 0.28465 0.34414 0.36317 0.0
H1733 H 0.33019 0.36524 0.35608 0.0
H1734 H 0.29057 0.44583 0.34917 0.0
H1735 H 0.24508 0.42482 0.35564 0.0
H1736 H 0.32661 0.43494 0.32084 0.0
H1737 H 0.37754 0.41398 0.38966 0.0
H1738 H 0.3645 0.38315 0.3782 0.0
H1739 H 0.34043 0.40969 0.38605 0.0
C1740 C 0.28575 0.36641 0.36037 0.0
C1741 C 0.26136 0.38286 0.36006 0.0
C1742 C 0.31175 0.37845 0.35634 0.0
C1743 C 0.31378 0.40718 0.35229 0.0
C1744 C 0.28947 0.42363 0.35222 0.0
H1745 H 0.44235 0.53007 0.34055 0.0
H1746 H 0.39806 0.50454 0.33803 0.0
C1747 C 0.26351 0.4116 0.35602 0.0
C1748 C 0.34108 0.42025 0.34783 0.0
H1749 H 0.40597 0.4333 0.36578 0.0
C1750 C 0.344 0.43455 0.33065 0.0
C1751 C 0.36368 0.41977 0.36067 0.0
C1752 C 0.36139 0.40606 0.37975 0.0
C1753 C 0.36892 0.44848 0.32602 0.0
C1754 C 0.39137 0.44802 0.33889 0.0
C1755 C 0.38867 0.43335 0.35589 0.0
C1756 C 0.41752 0.46375 0.33568 0.0
C1757 C 0.37117 0.4636 0.30747 0.0
C1758 C 0.44298 0.44929 0.33446 0.0
C1759 C 0.46822 0.4638 0.33578 0.0
C1760 C 0.46835 0.49296 0.33859 0.0
C1761 C 0.44287 0.50765 0.33821 0.0
C1762 C 0.41757 0.49309 0.33682 0.0
H1763 H 0.35434 0.45727 0.29755 0.0
H1764 H 0.36943 0.48649 0.30993 0.0
H1765 H 0.39181 0.4595 0.30083 0.0
H1766 H 0.44329 0.42664 0.33358 0.0
H1767 H 0.48761 0.45201 0.33584 0.0
H1768 H 0.29167 0.73781 0.5936 0.0
H1769 H 0.31552 0.69255 0.59184 0.0
H1770 H 0.23628 0.65015 0.59708 0.0
H1771 H 0.21225 0.69538 0.59923 0.0
H1772 H 0.30752 0.65397 0.62425 0.0
H1773 H 0.2818 0.60672 0.55478 0.0
H1774 H 0.28158 0.64414 0.55874 0.0
H1775 H 0.25359 0.62292 0.56762 0.0
C1776 C 0.27926 0.71884 0.59399 0.0
C1777 C 0.25013 0.72011 0.59678 0.0
C1778 C 0.2929 0.69306 0.59292 0.0
C1779 C 0.27762 0.66814 0.59435 0.0
C1780 C 0.24835 0.66924 0.59575 0.0
H1781 H 0.31795 0.49356 0.60823 0.0
H1782 H 0.2957 0.5391 0.60377 0.0
C1783 C 0.23466 0.69508 0.59691 0.0
C1784 C 0.29253 0.64135 0.59698 0.0
H1785 H 0.3051 0.5778 0.57683 0.0
C1786 C 0.30721 0.63732 0.61385 0.0
C1787 C 0.29173 0.61977 0.58345 0.0
C1788 C 0.2765 0.62347 0.56504 0.0
C1789 C 0.32071 0.61192 0.61777 0.0
C1790 C 0.32013 0.59028 0.60417 0.0
C1791 C 0.30558 0.59445 0.58721 0.0
C1792 C 0.33383 0.56289 0.60747 0.0
C1793 C 0.33462 0.60821 0.63667 0.0
C1794 C 0.36269 0.56116 0.61111 0.0
C1795 C 0.37543 0.53513 0.61396 0.0
C1796 C 0.35959 0.5104 0.61287 0.0
C1797 C 0.33072 0.51224 0.6092 0.0
C1798 C 0.31798 0.53823 0.60657 0.0
H1799 H 0.32649 0.62337 0.64721 0.0
H1800 H 0.33145 0.58668 0.64216 0.0
H1801 H 0.35744 0.61187 0.63518 0.0
H1802 H 0.37544 0.57988 0.61145 0.0
H1803 H 0.39777 0.53433 0.61651 0.0
H1804 H 0.04065 0.49289 0.88743 0.0
H1805 H 0.08623 0.51547 0.88477 0.0
H1806 H 0.08018 0.51245 0.82425 0.0
H1807 H 0.03393 0.48994 0.82688 0.0
H1808 H 0.1358 0.498 0.86631 0.0
H1809 H 0.09141 0.59696 0.83735 0.0
H1810 H 0.06985 0.57061 0.84837 0.0
H1811 H 0.0832 0.56503 0.82507 0.0
C1812 C 0.0491 0.49692 0.87355 0.0
C1813 C 0.03374 0.4901 0.85734 0.0
C1814 C 0.07513 0.5097 0.87206 0.0
C1815 C 0.08628 0.51596 0.85434 0.0
C1816 C 0.07162 0.50809 0.83805 0.0
H1817 H 0.25565 0.58016 0.84352 0.0
H1818 H 0.21259 0.55358 0.83966 0.0
C1819 C 0.04544 0.4951 0.83954 0.0
C1820 C 0.11282 0.53164 0.85336 0.0
H1821 H 0.13974 0.59626 0.84375 0.0
C1822 C 0.13682 0.51937 0.86118 0.0
C1823 C 0.11376 0.55965 0.84695 0.0
C1824 C 0.0882 0.57405 0.83906 0.0
C1825 C 0.16173 0.53455 0.86307 0.0
C1826 C 0.16268 0.56258 0.85668 0.0
C1827 C 0.13882 0.57475 0.8486 0.0
C1828 C 0.18829 0.57961 0.85846 0.0
C1829 C 0.18652 0.52079 0.87247 0.0
C1830 C 0.1886 0.60356 0.86993 0.0
C1831 C 0.21325 0.61902 0.87214 0.0
C1832 C 0.23784 0.61069 0.86285 0.0
C1833 C 0.23716 0.58699 0.85107 0.0
C1834 C 0.2126 0.5717 0.84884 0.0
H1835 H 0.18032 0.50185 0.88052 0.0
H1836 H 0.20182 0.51428 0.86157 0.0
H1837 H 0.19715 0.53559 0.88217 0.0
H1838 H 0.1699 0.61001 0.87739 0.0
H1839 H 0.21311 0.63726 0.8812 0.0
H1840 H 0.79234 0.73581 0.90722 0.0
H1841 H 0.81446 0.68969 0.90774 0.0
H1842 H 0.73315 0.65054 0.90646 0.0
H1843 H 0.71087 0.69669 0.9051 0.0
H1844 H 0.81264 0.64164 0.92907 0.0
H1845 H 0.76882 0.62365 0.85765 0.0
H1846 H 0.76723 0.65727 0.86917 0.0
H1847 H 0.74297 0.63006 0.87546 0.0
C1848 C 0.77915 0.71736 0.90733 0.0
C1849 C 0.74991 0.71982 0.90568 0.0
C1850 C 0.79181 0.69105 0.90771 0.0
C1851 C 0.77545 0.66677 0.90655 0.0
C1852 C 0.74615 0.6691 0.90686 0.0
H1853 H 0.8183 0.49266 0.89208 0.0
H1854 H 0.79523 0.53759 0.89739 0.0
C1855 C 0.73343 0.69547 0.90634 0.0
C1856 C 0.78918 0.63942 0.90324 0.0
H1857 H 0.79506 0.58673 0.87097 0.0
C1858 C 0.80879 0.6296 0.91639 0.0
C1859 C 0.7844 0.624 0.88652 0.0
C1860 C 0.76493 0.63434 0.87129 0.0
C1861 C 0.82343 0.6045 0.91338 0.0
C1862 C 0.81839 0.58906 0.89678 0.0
C1863 C 0.79879 0.59877 0.88367 0.0
C1864 C 0.83261 0.56221 0.89301 0.0
C1865 C 0.84394 0.59439 0.92802 0.0
C1866 C 0.86114 0.5614 0.88835 0.0
C1867 C 0.87442 0.53571 0.88509 0.0
C1868 C 0.8593 0.51057 0.88659 0.0
C1869 C 0.83056 0.51166 0.89086 0.0
C1870 C 0.81733 0.53727 0.89394 0.0
H1871 H 0.84253 0.60666 0.94126 0.0
H1872 H 0.84022 0.57194 0.93125 0.0
H1873 H 0.86555 0.59631 0.92242 0.0
H1874 H 0.87312 0.58059 0.88736 0.0
H1875 H 0.89659 0.53549 0.8819 0.0
H1876 H 0.71177 0.63776 0.62086 0.0
H1877 H 0.66793 0.6118 0.62536 0.0
H1878 H 0.70951 0.55622 0.66421 0.0
H1879 H 0.75315 0.58137 0.65955 0.0
H1880 H 0.68042 0.52803 0.63782 0.0
H1881 H 0.61415 0.61063 0.66996 0.0
H1882 H 0.62968 0.62087 0.64802 0.0
H1883 H 0.6517 0.61381 0.66798 0.0
C1884 C 0.71145 0.62009 0.63041 0.0
C1885 C 0.73592 0.61153 0.63974 0.0
C1886 C 0.6864 0.60544 0.63309 0.0
C1887 C 0.68546 0.58233 0.64532 0.0
C1888 C 0.70979 0.57403 0.65477 0.0
H1889 H 0.52932 0.49441 0.67412 0.0
H1890 H 0.5753 0.51721 0.67773 0.0
C1891 C 0.73474 0.58844 0.65201 0.0
C1892 C 0.6597 0.56552 0.64744 0.0
H1893 H 0.59065 0.56924 0.65944 0.0
C1894 C 0.66086 0.53699 0.64273 0.0
C1895 C 0.63438 0.57713 0.6542 0.0
C1896 C 0.63238 0.60723 0.66052 0.0
C1897 C 0.63707 0.51999 0.64386 0.0
C1898 C 0.61141 0.53198 0.64955 0.0
C1899 C 0.61042 0.5602 0.65502 0.0
C1900 C 0.5849 0.51637 0.64798 0.0
C1901 C 0.63948 0.48943 0.6387 0.0
C1902 C 0.57543 0.50835 0.63014 0.0
C1903 C 0.54947 0.49557 0.62808 0.0
C1904 C 0.53247 0.49064 0.64384 0.0
C1905 C 0.54223 0.49789 0.66182 0.0
C1906 C 0.56828 0.51096 0.66386 0.0
H1907 H 0.66135 0.48177 0.64015 0.0
H1908 H 0.62563 0.47633 0.64763 0.0
H1909 H 0.63309 0.4866 0.62381 0.0
H1910 H 0.5878 0.51271 0.61771 0.0
H1911 H 0.54239 0.49001 0.61409 0.0
H1912 H 0.78431 0.30429 0.4 0.0
H1913 H 0.76017 0.3495 0.40183 0.0
H1914 H 0.68315 0.30727 0.4158 0.0
H1915 H 0.70724 0.26212 0.41429 0.0
H1916 H 0.71508 0.35988 0.37701 0.0
H1917 H 0.6837 0.37543 0.45151 0.0
H1918 H 0.7115 0.35187 0.44462 0.0
H1919 H 0.67556 0.34151 0.44202 0.0
C1920 C 0.7625 0.30476 0.40416 0.0
C1921 C 0.74757 0.27977 0.40693 0.0
C1922 C 0.7487 0.33053 0.40506 0.0
C1923 C 0.71993 0.33165 0.40897 0.0
C1924 C 0.70544 0.30686 0.41301 0.0
H1925 H 0.60128 0.45963 0.37269 0.0
H1926 H 0.62614 0.41524 0.3779 0.0
C1927 C 0.71917 0.28111 0.41204 0.0
C1928 C 0.70434 0.35809 0.40641 0.0
H1929 H 0.66227 0.40524 0.42882 0.0
C1930 C 0.70365 0.36992 0.38835 0.0
C1931 C 0.68945 0.37097 0.42124 0.0
C1932 C 0.6902 0.35948 0.44099 0.0
C1933 C 0.68823 0.39428 0.38466 0.0
C1934 C 0.6729 0.40687 0.3994 0.0
C1935 C 0.67381 0.39523 0.41752 0.0
C1936 C 0.65721 0.43315 0.39651 0.0
C1937 C 0.6888 0.40665 0.36513 0.0
C1938 C 0.6663 0.4576 0.40545 0.0
C1939 C 0.65231 0.4828 0.4025 0.0
C1940 C 0.62878 0.48402 0.39061 0.0
C1941 C 0.61942 0.45936 0.38184 0.0
C1942 C 0.63358 0.43406 0.38477 0.0
H1943 H 0.70567 0.39739 0.35634 0.0
H1944 H 0.66847 0.40259 0.3581 0.0
H1945 H 0.69185 0.42969 0.36578 0.0
H1946 H 0.68449 0.45724 0.41456 0.0
H1947 H 0.66001 0.50136 0.40958 0.0
H1948 H 0.78971 0.34778 0.12647 0.0
H1949 H 0.83474 0.37026 0.1333 0.0
H1950 H 0.79164 0.44557 0.15024 0.0
H1951 H 0.74677 0.42325 0.14386 0.0
H1952 H 0.85861 0.41801 0.11905 0.0
H1953 H 0.84069 0.42997 0.19568 0.0
H1954 H 0.819 0.40803 0.18102 0.0
H1955 H 0.81346 0.4453 0.18167 0.0
C1956 C 0.78988 0.36919 0.13152 0.0
C1957 C 0.76472 0.38368 0.13476 0.0
C1958 C 0.81557 0.38194 0.1355 0.0
C1959 C 0.81643 0.40929 0.14276 0.0
C1960 C 0.79139 0.42415 0.14521 0.0
H1961 H 0.94735 0.53116 0.15451 0.0
H1962 H 0.90228 0.50666 0.15562 0.0
C1963 C 0.76578 0.41143 0.14137 0.0
C1964 C 0.84349 0.42265 0.14741 0.0
H1965 H 0.87951 0.45513 0.18279 0.0
C1966 C 0.86328 0.42589 0.13302 0.0
C1967 C 0.84951 0.43285 0.16569 0.0
C1968 C 0.82966 0.42864 0.18195 0.0
C1969 C 0.88866 0.43972 0.13629 0.0
C1970 C 0.89436 0.45045 0.15442 0.0
C1971 C 0.87484 0.44696 0.1689 0.0
C1972 C 0.92067 0.46546 0.15824 0.0
C1973 C 0.90916 0.44323 0.12031 0.0
C1974 C 0.94561 0.45035 0.16032 0.0
C1975 C 0.97127 0.46423 0.15979 0.0
C1976 C 0.97228 0.4934 0.15711 0.0
C1977 C 0.94716 0.50872 0.15674 0.0
C1978 C 0.92145 0.49477 0.15727 0.0
H1979 H 0.90043 0.43603 0.10666 0.0
H1980 H 0.91535 0.46555 0.11898 0.0
H1981 H 0.92839 0.43097 0.12334 0.0
H1982 H 0.94527 0.42769 0.16113 0.0
H1983 H 0.99036 0.45199 0.16025 0.0
H1984 H 0.78571 0.8019 0.59772 0.0
H1985 H 0.76152 0.84716 0.59622 0.0
H1986 H 0.68279 0.80475 0.5883 0.0
H1987 H 0.7068 0.75946 0.58954 0.0
H1988 H 0.71367 0.87102 0.56789 0.0
H1989 H 0.68584 0.84879 0.64259 0.0
H1990 H 0.71588 0.83295 0.63139 0.0
H1991 H 0.68132 0.82137 0.62543 0.0
C1992 C 0.76342 0.80226 0.59493 0.0
C1993 C 0.74804 0.77723 0.59396 0.0
C1994 C 0.74965 0.82808 0.59417 0.0
C1995 C 0.72044 0.82907 0.59238 0.0
C1996 C 0.70536 0.80424 0.58978 0.0
H1997 H 0.60227 0.96193 0.61989 0.0
H1998 H 0.62437 0.91654 0.61348 0.0
C1999 C 0.71907 0.77848 0.59053 0.0
C2000 C 0.70539 0.85553 0.59572 0.0
H2001 H 0.66968 0.89111 0.62973 0.0
C2002 C 0.70399 0.87551 0.58135 0.0
C2003 C 0.6927 0.861 0.6133 0.0
C2004 C 0.69398 0.84005 0.62917 0.0
C2005 C 0.69006 0.90107 0.58414 0.0
C2006 C 0.67792 0.90687 0.60191 0.0
C2007 C 0.67904 0.88661 0.61616 0.0
C2008 C 0.6647 0.93414 0.60621 0.0
C2009 C 0.68813 0.92144 0.56796 0.0
C2010 C 0.68033 0.95887 0.60485 0.0
C2011 C 0.66782 0.98469 0.60846 0.0
C2012 C 0.6395 0.98625 0.61375 0.0
C2013 C 0.62414 0.96137 0.61587 0.0
C2014 C 0.63668 0.93548 0.61213 0.0
H2015 H 0.69073 0.9107 0.5542 0.0
H2016 H 0.66774 0.93262 0.56798 0.0
H2017 H 0.70508 0.93719 0.56928 0.0
H2018 H 0.70221 0.95822 0.60088 0.0
H2019 H 0.6803 0.00348 0.60685 0.0
H2020 H 0.78668 0.85961 0.87886 0.0
H2021 H 0.83046 0.88588 0.87475 0.0
H2022 H 0.78956 0.94061 0.83507 0.0
H2023 H 0.74596 0.91508 0.83926 0.0
H2024 H 0.86234 0.89815 0.84162 0.0
H2025 H 0.81971 0.99414 0.87546 0.0
H2026 H 0.80273 0.96051 0.87729 0.0
H2027 H 0.79931 0.98094 0.85619 0.0
C2028 C 0.7871 0.87722 0.86926 0.0
C2029 C 0.76281 0.88554 0.85962 0.0
C2030 C 0.81206 0.89211 0.86688 0.0
C2031 C 0.81298 0.91541 0.85484 0.0
C2032 C 0.78907 0.92305 0.8447 0.0
H2033 H 0.96905 0.00468 0.82621 0.0
H2034 H 0.92322 0.98163 0.82244 0.0
C2035 C 0.76418 0.90838 0.84714 0.0
C2036 C 0.83867 0.93238 0.85327 0.0
H2037 H 0.86499 0.99736 0.86239 0.0
C2038 C 0.86298 0.91987 0.84607 0.0
C2039 C 0.83925 0.96069 0.85912 0.0
C2040 C 0.81395 0.97487 0.8676 0.0
C2041 C 0.88813 0.93491 0.84483 0.0
C2042 C 0.8887 0.96317 0.85076 0.0
C2043 C 0.86425 0.97578 0.85763 0.0
C2044 C 0.91518 0.97883 0.85235 0.0
C2045 C 0.91415 0.92022 0.83792 0.0
C2046 C 0.92511 0.98559 0.87032 0.0
C2047 C 0.95088 0.99866 0.87245 0.0
C2048 C 0.96721 0.0053 0.85665 0.0
C2049 C 0.95677 -0.00031 0.83857 0.0
C2050 C 0.93084 0.98639 0.83643 0.0
H2051 H 0.91096 0.8973 0.83631 0.0
H2052 H 0.92022 0.92892 0.82404 0.0
H2053 H 0.9318 0.9238 0.84779 0.0
H2054 H 0.9132 0.98006 0.88275 0.0
H2055 H 0.95835 0.00315 0.88653 0.0
H2056 H 0.83804 0.99624 0.08698 0.0
H2057 H 0.81444 0.04055 0.08089 0.0
H2058 H 0.87216 0.08294 0.11781 0.0
H2059 H 0.89604 0.03839 0.12416 0.0
H2060 H 0.8148 0.09402 0.12481 0.0
H2061 H 0.8413 0.10787 0.04935 0.0
H2062 H 0.82708 0.07413 0.05511 0.0
H2063 H 0.86036 0.08441 0.06464 0.0
C2064 C 0.84589 0.01497 0.09377 0.0
C2065 C 0.86891 0.01381 0.10611 0.0
C2066 C 0.83248 0.04031 0.09012 0.0
C2067 C 0.84186 0.065 0.09866 0.0
C2068 C 0.86483 0.06405 0.11097 0.0
H2069 H 0.78993 0.2359 0.0837 0.0
H2070 H 0.81442 0.19096 0.08163 0.0
C2071 C 0.87839 0.03864 0.1146 0.0
C2072 C 0.82643 0.09142 0.09562 0.0
H2073 H 0.80585 0.13781 0.06176 0.0
C2074 C 0.81293 0.10369 0.11106 0.0
C2075 C 0.82417 0.10392 0.07764 0.0
C2076 C 0.83919 0.09209 0.06074 0.0
C2077 C 0.79683 0.12801 0.10897 0.0
C2078 C 0.79388 0.14007 0.09091 0.0
C2079 C 0.80778 0.12812 0.0755 0.0
C2080 C 0.77784 0.16618 0.08821 0.0
C2081 C 0.78343 0.14087 0.12616 0.0
C2082 C 0.7489 0.16685 0.09157 0.0
C2083 C 0.73486 0.19247 0.09276 0.0
C2084 C 0.74968 0.21766 0.09063 0.0
C2085 C 0.77813 0.21674 0.08559 0.0
C2086 C 0.7921 0.19114 0.08436 0.0
H2087 H 0.79219 0.13219 0.13941 0.0
H2088 H 0.78631 0.16395 0.12623 0.0
H2089 H 0.76061 0.13653 0.12596 0.0
H2090 H 0.73755 0.14766 0.09436 0.0
H2091 H 0.71298 0.19262 0.09674 0.0
H2092 H 0.50851 0.04592 0.34147 0.0
H2093 H 0.55425 0.06888 0.34081 0.0
H2094 H 0.59495 0.98839 0.34375 0.0
H2095 H 0.54922 0.96523 0.34477 0.0
H2096 H 0.5915 0.05452 0.37447 0.0
H2097 H 0.64057 0.03946 0.3041 0.0
H2098 H 0.60303 0.0409 0.30721 0.0
H2099 H 0.62209 0.01046 0.31454 0.0
C2100 C 0.52722 0.03308 0.34144 0.0
C2101 C 0.52536 0.00383 0.3434 0.0
C2102 C 0.55326 0.04621 0.34104 0.0
C2103 C 0.57781 0.03027 0.3423 0.0
C2104 C 0.57614 0.00095 0.34259 0.0
H2105 H 0.75199 0.07088 0.3594 0.0
H2106 H 0.70709 0.04793 0.35395 0.0
C2107 C 0.55002 0.98776 0.34309 0.0
C2108 C 0.6046 0.04435 0.34632 0.0
H2109 H 0.66824 0.06058 0.32769 0.0
C2110 C 0.6083 0.05601 0.36426 0.0
C2111 C 0.62637 0.04582 0.33299 0.0
C2112 C 0.623 0.03364 0.31356 0.0
C2113 C 0.63351 0.06893 0.36935 0.0
C2114 C 0.65526 0.07087 0.35592 0.0
C2115 C 0.6515 0.05915 0.33795 0.0
C2116 C 0.68224 0.08465 0.36029 0.0
C2117 C 0.63684 0.07962 0.38921 0.0
C2118 C 0.68314 0.11286 0.36588 0.0
C2119 C 0.70881 0.12596 0.36929 0.0
C2120 C 0.73397 0.11115 0.36684 0.0
C2121 C 0.73295 0.08283 0.36145 0.0
C2122 C 0.70733 0.06971 0.35824 0.0
H2123 H 0.62187 0.06938 0.39899 0.0
H2124 H 0.65842 0.07603 0.39449 0.0
H2125 H 0.6326 0.10246 0.38948 0.0
H2126 H 0.66405 0.12495 0.36716 0.0
H2127 H 0.70896 0.1479 0.37318 0.0
H2128 H 0.23572 0.19988 0.37006 0.0
H2129 H 0.25915 0.1552 0.37557 0.0
H2130 H 0.26936 0.17633 0.43418 0.0
H2131 H 0.24578 0.22154 0.42864 0.0
H2132 H 0.31961 0.15929 0.41494 0.0
H2133 H 0.23286 0.08437 0.4035 0.0
H2134 H 0.23526 0.11028 0.38528 0.0
H2135 H 0.227 0.12089 0.40893 0.0
C2136 C 0.24257 0.19478 0.38419 0.0
C2137 C 0.23907 0.214 0.39895 0.0
C2138 C 0.25579 0.16925 0.38733 0.0
C2139 C 0.26572 0.16243 0.4053 0.0
C2140 C 0.26163 0.18124 0.42025 0.0
H2141 H 0.33762 0.99635 0.41879 0.0
H2142 H 0.31205 0.0396 0.42464 0.0
C2143 C 0.2481 0.20687 0.41712 0.0
C2144 C 0.28218 0.13652 0.40778 0.0
H2145 H 0.27945 0.06629 0.39954 0.0
C2146 C 0.3108 0.13883 0.41194 0.0
C2147 C 0.27054 0.10994 0.40398 0.0
C2148 C 0.23966 0.10612 0.40035 0.0
C2149 C 0.32843 0.11531 0.41144 0.0
C2150 C 0.31709 0.08902 0.40636 0.0
C2151 C 0.28819 0.08655 0.40317 0.0
C2152 C 0.33469 0.06378 0.40391 0.0
C2153 C 0.35899 0.11885 0.41617 0.0
C2154 C 0.35609 0.06306 0.39035 0.0
C2155 C 0.37094 0.03828 0.38699 0.0
C2156 C 0.36428 0.01379 0.39697 0.0
C2157 C 0.34314 0.01479 0.41074 0.0
C2158 C 0.32852 0.03951 0.41416 0.0
H2159 H 0.36256 0.13773 0.42499 0.0
H2160 H 0.36725 0.10024 0.42372 0.0
H2161 H 0.37109 0.12143 0.40296 0.0
H2162 H 0.36076 0.08143 0.38199 0.0
H2163 H 0.38705 0.0381 0.37627 0.0
H2164 H 0.05187 0.96657 0.16135 0.0
H2165 H 0.09707 0.99027 0.16416 0.0
H2166 H 0.05538 0.07041 0.16239 0.0
H2167 H 0.0102 0.04689 0.16035 0.0
H2168 H 0.11482 0.0224 0.13538 0.0
H2169 H 0.11562 0.08578 0.20062 0.0
H2170 H 0.09098 0.05768 0.19682 0.0
H2171 H 0.08488 0.0917 0.18669 0.0
C2172 C 0.05227 0.9892 0.1624 0.0
C2173 C 0.02757 0.00491 0.16044 0.0
C2174 C 0.07811 0.00273 0.16386 0.0
C2175 C 0.0796 0.03211 0.16349 0.0
C2176 C 0.05477 0.04776 0.16302 0.0
H2177 H 0.21091 0.15093 0.13409 0.0
H2178 H 0.16566 0.12803 0.14001 0.0
C2179 C 0.02897 0.03428 0.16167 0.0
C2180 C 0.10684 0.04622 0.16059 0.0
H2181 H 0.14916 0.09847 0.17693 0.0
C2182 C 0.12247 0.03879 0.14461 0.0
C2183 C 0.11658 0.06789 0.17248 0.0
C2184 C 0.10126 0.07606 0.19021 0.0
C2185 C 0.14738 0.05265 0.14007 0.0
C2186 C 0.15697 0.0744 0.15187 0.0
C2187 C 0.14148 0.08191 0.16785 0.0
C2188 C 0.18393 0.08843 0.14828 0.0
C2189 C 0.16315 0.04422 0.12256 0.0
C2190 C 0.20889 0.07363 0.151 0.0
C2191 C 0.23454 0.08652 0.14766 0.0
C2192 C 0.23573 0.1145 0.14151 0.0
C2193 C 0.21062 0.1293 0.13868 0.0
C2194 C 0.18485 0.11635 0.14215 0.0
H2195 H 0.15023 0.03105 0.11305 0.0
H2196 H 0.17027 0.06303 0.11472 0.0
H2197 H 0.18199 0.03203 0.12663 0.0
H2198 H 0.20851 0.05211 0.15583 0.0
H2199 H 0.25347 0.07452 0.15003 0.0
H2200 H 0.18151 0.00327 0.89241 0.0
H2201 H 0.2035 0.95784 0.89789 0.0
H2202 H 0.12365 0.91711 0.8906 0.0
H2203 H 0.10161 0.96251 0.88451 0.0
H2204 H 0.19328 0.9211 0.92582 0.0
H2205 H 0.17295 0.87081 0.85679 0.0
H2206 H 0.16811 0.90784 0.86063 0.0
H2207 H 0.1418 0.88331 0.8681 0.0
C2208 C 0.16869 0.9846 0.89168 0.0
C2209 C 0.13986 0.98641 0.8879 0.0
C2210 C 0.18127 0.95868 0.89491 0.0
C2211 C 0.16528 0.93408 0.89449 0.0
C2212 C 0.13651 0.93577 0.89058 0.0
H2213 H 0.20519 0.75988 0.91414 0.0
H2214 H 0.18186 0.80549 0.9148 0.0
C2215 C 0.12393 0.96172 0.88714 0.0
C2216 C 0.17869 0.90683 0.89876 0.0
H2217 H 0.19087 0.84159 0.88095 0.0
C2218 C 0.19282 0.90373 0.91599 0.0
C2219 C 0.17811 0.88424 0.88589 0.0
C2220 C 0.16467 0.88673 0.86675 0.0
C2221 C 0.20625 0.87854 0.92072 0.0
C2222 C 0.20542 0.856 0.90792 0.0
C2223 C 0.19118 0.85897 0.89078 0.0
C2224 C 0.22001 0.82929 0.91154 0.0
C2225 C 0.22108 0.876 0.93937 0.0
C2226 C 0.24926 0.82779 0.91017 0.0
C2227 C 0.26266 0.80176 0.90964 0.0
C2228 C 0.24689 0.77693 0.91038 0.0
C2229 C 0.21782 0.77867 0.9133 0.0
C2230 C 0.20446 0.80466 0.91372 0.0
H2231 H 0.21592 0.89363 0.94897 0.0
H2232 H 0.21547 0.85596 0.94633 0.0
H2233 H 0.24403 0.8759 0.93697 0.0
H2234 H 0.26153 0.84665 0.90826 0.0
H2235 H 0.28502 0.8011 0.90719 0.0
H2236 H 0.24288 0.92006 0.65769 0.0
H2237 H 0.28635 0.94601 0.66119 0.0
H2238 H 0.32855 0.88673 0.62522 0.0
H2239 H 0.28489 0.86004 0.62183 0.0
H2240 H 0.35868 0.90173 0.65837 0.0
H2241 H 0.3199 0.99508 0.61961 0.0
H2242 H 0.29806 0.98417 0.63881 0.0
H2243 H 0.30235 0.96165 0.61875 0.0
C2244 C 0.26134 0.91247 0.65044 0.0
C2245 C 0.26039 0.88813 0.63928 0.0
C2246 C 0.28615 0.92741 0.65246 0.0
C2247 C 0.31044 0.91853 0.64322 0.0
C2248 C 0.30986 0.89394 0.63237 0.0
H2249 H 0.4592 0.00326 0.61369 0.0
H2250 H 0.41358 0.98081 0.6164 0.0
C2251 C 0.28496 0.87881 0.6304 0.0
C2252 C 0.33632 0.93522 0.64476 0.0
H2253 H 0.36413 -0.00091 0.63425 0.0
C2254 C 0.35994 0.92304 0.65316 0.0
C2255 C 0.33772 0.96298 0.6379 0.0
C2256 C 0.31326 0.97672 0.62811 0.0
C2257 C 0.38517 0.93788 0.6547 0.0
C2258 C 0.38653 0.96565 0.64787 0.0
C2259 C 0.36279 0.97792 0.63971 0.0
C2260 C 0.41325 0.98103 0.64683 0.0
C2261 C 0.41045 0.92345 0.66296 0.0
C2262 C 0.42779 0.98924 0.6631 0.0
C2263 C 0.45402 0.00214 0.66158 0.0
C2264 C 0.46587 0.00674 0.64378 0.0
C2265 C 0.45065 -0.00047 0.62758 0.0
C2266 C 0.42459 0.98683 0.6291 0.0
H2267 H 0.40698 0.90063 0.66493 0.0
H2268 H 0.42899 0.92645 0.65376 0.0
H2269 H 0.41531 0.9328 0.67687 0.0
H2270 H 0.41908 0.98526 0.67691 0.0
H2271 H 0.46541 0.0076 0.67423 0.0
loop_
_geom_bond_atom_site_label_1
_geom_bond_atom_site_label_2
_geom_bond_distance
_geom_bond_site_symmetry_2
_ccdc_geom_bond_type
C0 O16 1.251 . S
C0 O18 1.254 . S
N1 C2 1.333 . S
N1 C6 1.307 . S
N1 Zn7 2.020 . S
C2 N1 1.333 . S
C2 C3 1.379 . S
C2 H20 0.952 . S
C3 C2 1.379 . S
C3 C4 1.390 . S
C3 H30 0.949 . S
C4 C3 1.390 . S
C4 C5 1.357 . S
C5 C4 1.357 . S
C5 C6 1.370 . S
C5 H31 0.950 . S
C6 N1 1.307 . S
C6 C5 1.370 . S
C6 H24 0.948 . S
Zn7 N1 2.020 . S
Zn7 O16 2.039 . S
Zn7 O22 2.034 . S
Zn7 O26 2.025 . S
Zn7 O28 2.024 . S
C8 O27 1.246 . S
C8 O28 1.249 . S
N9 C10 1.307 . S
N9 C11 1.333 . S
N9 Zn15 2.020 . S
C10 N9 1.307 . S
C10 C14 1.370 . S
C10 H21 0.948 . S
C11 N9 1.333 . S
C11 C12 1.379 . S
C11 H19 0.952 . S
C12 C11 1.379 . S
C12 C13 1.390 . S
C12 H32 0.949 . S
C13 C12 1.390 . S
C13 C14 1.357 . S
C14 C10 1.370 . S
C14 C13 1.357 . S
C14 H33 0.950 . S
Zn15 N9 2.020 . S
Zn15 O18 2.025 . S
Zn15 O23 2.024 . S
Zn15 O25 2.039 . S
Zn15 O27 2.034 . S
O16 C0 1.251 . S
O16 Zn7 2.039 . S
C17 O22 1.246 . S
C17 O23 1.249 . S
O18 C0 1.254 . S
O18 Zn15 2.025 . S
H19 C11 0.952 . S
H20 C2 0.952 . S
H21 C10 0.948 . S
O22 Zn7 2.034 . S
O22 C17 1.246 . S
O23 Zn15 2.024 . S
O23 C17 1.249 . S
H24 C6 0.948 . S
O25 Zn15 2.039 . S
O25 C29 1.251 . S
O26 Zn7 2.025 . S
O26 C29 1.254 . S
O27 C8 1.246 . S
O27 Zn15 2.034 . S
O28 Zn7 2.024 . S
O28 C8 1.249 . S
C29 O25 1.251 . S
C29 O26 1.254 . S
H30 C3 0.949 . S
H31 C5 0.950 . S
H32 C12 0.949 . S
H33 C14 0.950 . S
C34 O50 1.251 . S
C34 O52 1.254 . S
N35 C36 1.333 . S
N35 C40 1.307 . S
N35 Zn41 2.020 . S
C36 N35 1.333 . S
C36 C37 1.379 . S
C36 H54 0.952 . S
C37 C36 1.379 . S
C37 C38 1.390 . S
C37 H64 0.949 . S
C38 C37 1.390 . S
C38 C39 1.357 . S
C39 C38 1.357 . S
C39 C40 1.370 . S
C39 H65 0.950 . S
C40 N35 1.307 . S
C40 C39 1.370 . S
C40 H58 0.948 . S
Zn41 N35 2.020 . S
Zn41 O50 2.039 . S
Zn41 O56 2.034 . S
Zn41 O60 2.025 . S
Zn41 O62 2.024 . S
C42 O61 1.246 . S
C42 O62 1.249 . S
N43 C44 1.307 . S
N43 C45 1.333 . S
N43 Zn49 2.020 . S
C44 N43 1.307 . S
C44 C48 1.370 . S
C44 H55 0.948 . S
C45 N43 1.333 . S
C45 C46 1.379 . S
C45 H53 0.952 . S
C46 C45 1.379 . S
C46 C47 1.390 . S
C46 H66 0.949 . S
C47 C46 1.390 . S
C47 C48 1.357 . S
C48 C44 1.370 . S
C48 C47 1.357 . S
C48 H67 0.950 . S
Zn49 N43 2.020 . S
Zn49 O52 2.025 . S
Zn49 O57 2.024 . S
Zn49 O59 2.039 . S
Zn49 O61 2.034 . S
O50 C34 1.251 . S
O50 Zn41 2.039 . S
C51 O56 1.246 . S
C51 O57 1.249 . S
O52 C34 1.254 . S
O52 Zn49 2.025 . S
H53 C45 0.952 . S
H54 C36 0.952 . S
H55 C44 0.948 . S
O56 Zn41 2.034 . S
O56 C51 1.246 . S
O57 Zn49 2.024 . S
O57 C51 1.249 . S
H58 C40 0.948 . S
O59 Zn49 2.039 . S
O59 C63 1.251 . S
O60 Zn41 2.025 . S
O60 C63 1.254 . S
O61 C42 1.246 . S
O61 Zn49 2.034 . S
O62 Zn41 2.024 . S
O62 C42 1.249 . S
C63 O59 1.251 . S
C63 O60 1.254 . S
H64 C37 0.949 . S
H65 C39 0.950 . S
H66 C46 0.949 . S
H67 C48 0.950 . S
C68 O84 1.251 . S
C68 O86 1.254 . S
N69 C70 1.333 . S
N69 C74 1.307 . S
N69 Zn75 2.020 . S
C70 N69 1.333 . S
C70 C71 1.379 . S
C70 H88 0.952 . S
C71 C70 1.379 . S
C71 C72 1.390 . S
C71 H98 0.949 . S
C72 C71 1.390 . S
C72 C73 1.357 . S
C73 C72 1.357 . S
C73 C74 1.370 . S
C73 H99 0.950 . S
C74 N69 1.307 . S
C74 C73 1.370 . S
C74 H92 0.948 . S
Zn75 N69 2.020 . S
Zn75 O84 2.039 . S
Zn75 O90 2.034 . S
Zn75 O94 2.025 . S
Zn75 O96 2.024 . S
C76 O95 1.246 . S
C76 O96 1.249 . S
N77 C78 1.307 . S
N77 C79 1.333 . S
N77 Zn83 2.020 . S
C78 N77 1.307 . S
C78 C82 1.370 . S
C78 H89 0.948 . S
C79 N77 1.333 . S
C79 C80 1.379 . S
C79 H87 0.952 . S
C80 C79 1.379 . S
C80 C81 1.390 . S
C80 H100 0.949 . S
C81 C80 1.390 . S
C81 C82 1.357 . S
C82 C78 1.370 . S
C82 C81 1.357 . S
C82 H101 0.950 . S
Zn83 N77 2.020 . S
Zn83 O86 2.025 . S
Zn83 O91 2.024 . S
Zn83 O93 2.039 . S
Zn83 O95 2.034 . S
O84 C68 1.251 . S
O84 Zn75 2.039 . S
C85 O90 1.246 . S
C85 O91 1.249 . S
O86 C68 1.254 . S
O86 Zn83 2.025 . S
H87 C79 0.952 . S
H88 C70 0.952 . S
H89 C78 0.948 . S
O90 Zn75 2.034 . S
O90 C85 1.246 . S
O91 Zn83 2.024 . S
O91 C85 1.249 . S
H92 C74 0.948 . S
O93 Zn83 2.039 . S
O93 C97 1.251 . S
O94 Zn75 2.025 . S
O94 C97 1.254 . S
O95 C76 1.246 . S
O95 Zn83 2.034 . S
O96 Zn75 2.024 . S
O96 C76 1.249 . S
C97 O93 1.251 . S
C97 O94 1.254 . S
H98 C71 0.949 . S
H99 C73 0.950 . S
H100 C80 0.949 . S
H101 C82 0.950 . S
C102 O118 1.251 . S
C102 O120 1.254 . S
N103 C104 1.333 . S
N103 C108 1.307 . S
N103 Zn109 2.020 . S
C104 N103 1.333 . S
C104 C105 1.380 . S
C104 H122 0.952 . S
C105 C104 1.380 . S
C105 C106 1.390 1_655 S
C105 H132 0.949 1_655 S
C106 C105 1.390 1_455 S
C106 C107 1.357 . S
C107 C106 1.357 . S
C107 C108 1.370 1_455 S
C107 H133 0.950 . S
C108 N103 1.307 . S
C108 C107 1.370 1_655 S
C108 H126 0.948 . S
Zn109 N103 2.020 . S
Zn109 O118 2.039 . S
Zn109 O124 2.034 . S
Zn109 O128 2.025 . S
Zn109 O130 2.024 . S
C110 O129 1.246 . S
C110 O130 1.249 . S
N111 C112 1.307 . S
N111 C113 1.333 . S
N111 Zn117 2.020 . S
C112 N111 1.307 . S
C112 C116 1.370 . S
C112 H123 0.948 . S
C113 N111 1.333 . S
C113 C114 1.379 . S
C113 H121 0.952 . S
C114 C113 1.379 . S
C114 C115 1.390 . S
C114 H134 0.949 . S
C115 C114 1.390 . S
C115 C116 1.357 . S
C116 C112 1.370 . S
C116 C115 1.357 . S
C116 H135 0.950 . S
Zn117 N111 2.020 . S
Zn117 O120 2.025 . S
Zn117 O125 2.024 . S
Zn117 O127 2.039 . S
Zn117 O129 2.034 . S
O118 C102 1.251 . S
O118 Zn109 2.039 . S
C119 O124 1.246 . S
C119 O125 1.249 . S
O120 C102 1.254 . S
O120 Zn117 2.025 . S
H121 C113 0.952 . S
H122 C104 0.952 . S
H123 C112 0.948 . S
O124 Zn109 2.034 . S
O124 C119 1.246 . S
O125 Zn117 2.024 . S
O125 C119 1.249 . S
H126 C108 0.948 . S
O127 Zn117 2.039 . S
O127 C131 1.251 . S
O128 Zn109 2.025 . S
O128 C131 1.254 . S
O129 C110 1.246 . S
O129 Zn117 2.034 . S
O130 Zn109 2.024 . S
O130 C110 1.249 . S
C131 O127 1.251 . S
C131 O128 1.254 . S
H132 C105 0.949 1_455 S
H133 C107 0.950 . S
H134 C114 0.949 . S
H135 C116 0.950 . S
C136 O152 1.251 . S
C136 O154 1.254 . S
N137 C138 1.333 . S
N137 C142 1.307 . S
N137 Zn143 2.020 . S
C138 N137 1.333 . S
C138 C139 1.379 . S
C138 H156 0.952 . S
C139 C138 1.379 . S
C139 C140 1.390 . S
C139 H166 0.949 . S
C140 C139 1.390 . S
C140 C141 1.357 . S
C141 C140 1.357 . S
C141 C142 1.370 . S
C141 H167 0.950 . S
C142 N137 1.307 . S
C142 C141 1.370 . S
C142 H160 0.948 . S
Zn143 N137 2.020 . S
Zn143 O152 2.039 . S
Zn143 O158 2.034 . S
Zn143 O162 2.025 . S
Zn143 O164 2.024 . S
C144 O163 1.246 . S
C144 O164 1.249 . S
N145 C146 1.307 . S
N145 C147 1.333 . S
N145 Zn151 2.020 . S
C146 N145 1.307 . S
C146 C150 1.370 . S
C146 H157 0.948 . S
C147 N145 1.333 . S
C147 C148 1.379 . S
C147 H155 0.952 . S
C148 C147 1.379 . S
C148 C149 1.390 . S
C148 H168 0.949 . S
C149 C148 1.390 . S
C149 C150 1.357 . S
C150 C146 1.370 . S
C150 C149 1.357 . S
C150 H169 0.950 . S
Zn151 N145 2.020 . S
Zn151 O154 2.025 . S
Zn151 O159 2.024 . S
Zn151 O161 2.039 . S
Zn151 O163 2.034 . S
O152 C136 1.251 . S
O152 Zn143 2.039 . S
C153 O158 1.246 . S
C153 O159 1.249 . S
O154 C136 1.254 . S
O154 Zn151 2.025 . S
H155 C147 0.952 . S
H156 C138 0.952 . S
H157 C146 0.948 . S
O158 Zn143 2.034 . S
O158 C153 1.246 . S
O159 Zn151 2.024 . S
O159 C153 1.249 . S
H160 C142 0.948 . S
O161 Zn151 2.039 . S
O161 C165 1.251 . S
O162 Zn143 2.025 . S
O162 C165 1.254 . S
O163 C144 1.246 . S
O163 Zn151 2.034 . S
O164 Zn143 2.024 . S
O164 C144 1.249 . S
C165 O161 1.251 . S
C165 O162 1.254 . S
H166 C139 0.949 . S
H167 C141 0.950 . S
H168 C148 0.949 . S
H169 C150 0.950 . S
C170 O186 1.251 . S
C170 O188 1.254 . S
N171 C172 1.333 . S
N171 C176 1.307 . S
N171 Zn177 2.020 . S
C172 N171 1.333 . S
C172 C173 1.379 . S
C172 H190 0.952 . S
C173 C172 1.379 . S
C173 C174 1.390 . S
C173 H200 0.949 . S
C174 C173 1.390 . S
C174 C175 1.357 . S
C175 C174 1.357 . S
C175 C176 1.370 . S
C175 H201 0.950 . S
C176 N171 1.307 . S
C176 C175 1.370 . S
C176 H194 0.948 . S
Zn177 N171 2.020 . S
Zn177 O186 2.039 . S
Zn177 O192 2.034 . S
Zn177 O196 2.025 . S
Zn177 O198 2.024 . S
C178 O197 1.246 . S
C178 O198 1.249 . S
N179 C180 1.307 . S
N179 C181 1.333 . S
N179 Zn185 2.020 . S
C180 N179 1.307 . S
C180 C184 1.370 . S
C180 H191 0.948 . S
C181 N179 1.333 . S
C181 C182 1.379 . S
C181 H189 0.952 . S
C182 C181 1.379 . S
C182 C183 1.390 . S
C182 H202 0.949 . S
C183 C182 1.390 . S
C183 C184 1.357 . S
C184 C180 1.370 . S
C184 C183 1.357 . S
C184 H203 0.950 . S
Zn185 N179 2.020 . S
Zn185 O188 2.025 . S
Zn185 O193 2.024 . S
Zn185 O195 2.039 . S
Zn185 O197 2.034 . S
O186 C170 1.251 . S
O186 Zn177 2.039 . S
C187 O192 1.246 . S
C187 O193 1.249 . S
O188 C170 1.254 . S
O188 Zn185 2.025 . S
H189 C181 0.952 . S
H190 C172 0.952 . S
H191 C180 0.948 . S
O192 Zn177 2.034 . S
O192 C187 1.246 . S
O193 Zn185 2.024 . S
O193 C187 1.249 . S
H194 C176 0.948 . S
O195 Zn185 2.039 . S
O195 C199 1.251 . S
O196 Zn177 2.025 . S
O196 C199 1.254 . S
O197 C178 1.246 . S
O197 Zn185 2.034 . S
O198 Zn177 2.024 . S
O198 C178 1.249 . S
C199 O195 1.251 . S
C199 O196 1.254 . S
H200 C173 0.949 . S
H201 C175 0.950 . S
H202 C182 0.949 . S
H203 C184 0.950 . S
C204 O220 1.251 . S
C204 O222 1.254 . S
N205 C206 1.333 . S
N205 C210 1.307 . S
N205 Zn211 2.020 . S
C206 N205 1.333 . S
C206 C207 1.379 . S
C206 H224 0.952 . S
C207 C206 1.379 . S
C207 C208 1.390 . S
C207 H234 0.949 . S
C208 C207 1.390 . S
C208 C209 1.357 . S
C209 C208 1.357 . S
C209 C210 1.370 . S
C209 H235 0.950 . S
C210 N205 1.307 . S
C210 C209 1.370 . S
C210 H228 0.948 . S
Zn211 N205 2.020 . S
Zn211 O220 2.039 . S
Zn211 O226 2.034 . S
Zn211 O230 2.025 . S
Zn211 O232 2.024 . S
C212 O231 1.246 . S
C212 O232 1.249 . S
N213 C214 1.307 . S
N213 C215 1.333 . S
N213 Zn219 2.020 . S
C214 N213 1.307 . S
C214 C218 1.370 . S
C214 H225 0.948 . S
C215 N213 1.333 . S
C215 C216 1.379 . S
C215 H223 0.952 . S
C216 C215 1.379 . S
C216 C217 1.390 . S
C216 H236 0.949 . S
C217 C216 1.390 . S
C217 C218 1.357 . S
C218 C214 1.370 . S
C218 C217 1.357 . S
C218 H237 0.950 . S
Zn219 N213 2.020 . S
Zn219 O222 2.025 . S
Zn219 O227 2.024 . S
Zn219 O229 2.039 . S
Zn219 O231 2.034 . S
O220 C204 1.251 . S
O220 Zn211 2.039 . S
C221 O226 1.246 . S
C221 O227 1.249 . S
O222 C204 1.254 . S
O222 Zn219 2.025 . S
H223 C215 0.952 . S
H224 C206 0.952 . S
H225 C214 0.948 . S
O226 Zn211 2.034 . S
O226 C221 1.246 . S
O227 Zn219 2.024 . S
O227 C221 1.249 . S
H228 C210 0.948 . S
O229 Zn219 2.039 . S
O229 C233 1.251 . S
O230 Zn211 2.025 . S
O230 C233 1.254 . S
O231 C212 1.246 . S
O231 Zn219 2.034 . S
O232 Zn211 2.024 . S
O232 C212 1.249 . S
C233 O229 1.251 . S
C233 O230 1.254 . S
H234 C207 0.949 . S
H235 C209 0.950 . S
H236 C216 0.949 . S
H237 C218 0.950 . S
C238 O254 1.251 . S
C238 O256 1.254 . S
N239 C240 1.333 . S
N239 C244 1.307 . S
N239 Zn245 2.020 . S
C240 N239 1.333 . S
C240 C241 1.379 . S
C240 H258 0.952 . S
C241 C240 1.379 . S
C241 C242 1.390 . S
C241 H268 0.949 . S
C242 C241 1.390 . S
C242 C243 1.357 . S
C243 C242 1.357 . S
C243 C244 1.370 . S
C243 H269 0.950 . S
C244 N239 1.307 . S
C244 C243 1.370 . S
C244 H262 0.948 . S
Zn245 N239 2.020 . S
Zn245 O254 2.039 . S
Zn245 O260 2.034 . S
Zn245 O264 2.025 . S
Zn245 O266 2.024 . S
C246 O265 1.246 . S
C246 O266 1.249 . S
N247 C248 1.307 . S
N247 C249 1.333 . S
N247 Zn253 2.020 . S
C248 N247 1.307 . S
C248 C252 1.370 1_455 S
C248 H259 0.948 . S
C249 N247 1.333 . S
C249 C250 1.380 . S
C249 H257 0.952 . S
C250 C249 1.380 . S
C250 C251 1.390 1_455 S
C250 H270 0.949 1_455 S
C251 C250 1.390 1_655 S
C251 C252 1.357 . S
C252 C248 1.370 1_655 S
C252 C251 1.357 . S
C252 H271 0.950 . S
Zn253 N247 2.020 . S
Zn253 O256 2.025 . S
Zn253 O261 2.024 . S
Zn253 O263 2.039 . S
Zn253 O265 2.034 . S
O254 C238 1.251 . S
O254 Zn245 2.039 . S
C255 O260 1.246 . S
C255 O261 1.249 . S
O256 C238 1.254 . S
O256 Zn253 2.025 . S
H257 C249 0.952 . S
H258 C240 0.952 . S
H259 C248 0.948 . S
O260 Zn245 2.034 . S
O260 C255 1.246 . S
O261 Zn253 2.024 . S
O261 C255 1.249 . S
H262 C244 0.948 . S
O263 Zn253 2.039 . S
O263 C267 1.251 . S
O264 Zn245 2.025 . S
O264 C267 1.254 . S
O265 C246 1.246 . S
O265 Zn253 2.034 . S
O266 Zn245 2.024 . S
O266 C246 1.249 . S
C267 O263 1.251 . S
C267 O264 1.254 . S
H268 C241 0.949 . S
H269 C243 0.950 . S
H270 C250 0.949 1_655 S
H271 C252 0.950 . S
C272 O288 1.251 . S
C272 O290 1.254 . S
N273 C274 1.333 . S
N273 C278 1.307 . S
N273 Zn279 2.020 . S
C274 N273 1.333 . S
C274 C275 1.379 . S
C274 H292 0.952 . S
C275 C274 1.379 . S
C275 C276 1.390 . S
C275 H302 0.949 . S
C276 C275 1.390 . S
C276 C277 1.357 . S
C277 C276 1.357 . S
C277 C278 1.370 . S
C277 H303 0.950 . S
C278 N273 1.307 . S
C278 C277 1.370 . S
C278 H296 0.948 . S
Zn279 N273 2.020 . S
Zn279 O288 2.039 . S
Zn279 O294 2.034 . S
Zn279 O298 2.025 . S
Zn279 O300 2.024 . S
C280 O299 1.246 . S
C280 O300 1.249 . S
N281 C282 1.307 . S
N281 C283 1.333 . S
N281 Zn287 2.020 . S
C282 N281 1.307 . S
C282 C286 1.370 . S
C282 H293 0.948 . S
C283 N281 1.333 . S
C283 C284 1.379 . S
C283 H291 0.952 . S
C284 C283 1.379 . S
C284 C285 1.390 . S
C284 H304 0.949 . S
C285 C284 1.390 . S
C285 C286 1.357 . S
C286 C282 1.370 . S
C286 C285 1.357 . S
C286 H305 0.950 . S
Zn287 N281 2.020 . S
Zn287 O290 2.025 . S
Zn287 O295 2.024 . S
Zn287 O297 2.039 . S
Zn287 O299 2.034 . S
O288 C272 1.251 . S
O288 Zn279 2.039 . S
C289 O294 1.246 . S
C289 O295 1.249 . S
O290 C272 1.254 . S
O290 Zn287 2.025 . S
H291 C283 0.952 . S
H292 C274 0.952 . S
H293 C282 0.948 . S
O294 Zn279 2.034 . S
O294 C289 1.246 . S
O295 Zn287 2.024 . S
O295 C289 1.249 . S
H296 C278 0.948 . S
O297 Zn287 2.039 . S
O297 C301 1.251 . S
O298 Zn279 2.025 . S
O298 C301 1.254 . S
O299 C280 1.246 . S
O299 Zn287 2.034 . S
O300 Zn279 2.024 . S
O300 C280 1.249 . S
C301 O297 1.251 . S
C301 O298 1.254 . S
H302 C275 0.949 . S
H303 C277 0.950 . S
H304 C284 0.949 . S
H305 C286 0.950 . S
C306 O322 1.251 . S
C306 O324 1.254 . S
N307 C308 1.333 . S
N307 C312 1.307 . S
N307 Zn313 2.020 . S
C308 N307 1.333 . S
C308 C309 1.379 . S
C308 H326 0.952 . S
C309 C308 1.379 . S
C309 C310 1.390 1_455 S
C309 H336 0.949 1_455 S
C310 C309 1.390 1_655 S
C310 C311 1.353 1_545 S
C311 C310 1.353 1_565 S
C311 C312 1.365 1_665 S
C311 H337 0.959 . S
C312 N307 1.307 . S
C312 C311 1.365 1_445 S
C312 H330 0.948 . S
Zn313 N307 2.020 . S
Zn313 O322 2.039 . S
Zn313 O328 2.034 . S
Zn313 O332 2.025 . S
Zn313 O334 2.024 . S
C314 O333 1.246 . S
C314 O334 1.249 . S
N315 C316 1.307 . S
N315 C317 1.333 . S
N315 Zn321 2.020 . S
C316 N315 1.307 . S
C316 C320 1.370 . S
C316 H327 0.948 . S
C317 N315 1.333 . S
C317 C318 1.379 . S
C317 H325 0.952 . S
C318 C317 1.379 . S
C318 C319 1.390 . S
C318 H338 0.949 . S
C319 C318 1.390 . S
C319 C320 1.357 . S
C320 C316 1.370 . S
C320 C319 1.357 . S
C320 H339 0.950 . S
Zn321 N315 2.020 . S
Zn321 O324 2.025 . S
Zn321 O329 2.024 . S
Zn321 O331 2.039 . S
Zn321 O333 2.034 . S
O322 C306 1.251 . S
O322 Zn313 2.039 . S
C323 O328 1.246 . S
C323 O329 1.249 . S
O324 C306 1.254 . S
O324 Zn321 2.025 . S
H325 C317 0.952 . S
H326 C308 0.952 . S
H327 C316 0.948 . S
O328 Zn313 2.034 . S
O328 C323 1.246 . S
O329 Zn321 2.024 . S
O329 C323 1.249 . S
H330 C312 0.948 . S
O331 Zn321 2.039 . S
O331 C335 1.251 . S
O332 Zn313 2.025 . S
O332 C335 1.254 . S
O333 C314 1.246 . S
O333 Zn321 2.034 . S
O334 Zn313 2.024 . S
O334 C314 1.249 . S
C335 O331 1.251 . S
C335 O332 1.254 . S
H336 C309 0.949 1_655 S
H337 C311 0.959 . S
H338 C318 0.949 . S
H339 C320 0.950 . S
C340 O356 1.251 . S
C340 O358 1.254 . S
N341 C342 1.333 . S
N341 C346 1.307 . S
N341 Zn347 2.020 . S
C342 N341 1.333 . S
C342 C343 1.379 . S
C342 H360 0.952 . S
C343 C342 1.379 . S
C343 C344 1.390 . S
C343 H370 0.949 . S
C344 C343 1.390 . S
C344 C345 1.357 . S
C345 C344 1.357 . S
C345 C346 1.370 . S
C345 H371 0.950 . S
C346 N341 1.307 . S
C346 C345 1.370 . S
C346 H364 0.948 . S
Zn347 N341 2.020 . S
Zn347 O356 2.039 . S
Zn347 O362 2.034 . S
Zn347 O366 2.025 . S
Zn347 O368 2.024 . S
C348 O367 1.246 . S
C348 O368 1.249 . S
N349 C350 1.307 . S
N349 C351 1.333 . S
N349 Zn355 2.020 . S
C350 N349 1.307 . S
C350 C354 1.370 . S
C350 H361 0.948 . S
C351 N349 1.333 . S
C351 C352 1.379 . S
C351 H359 0.952 . S
C352 C351 1.379 . S
C352 C353 1.390 . S
C352 H372 0.949 . S
C353 C352 1.390 . S
C353 C354 1.357 . S
C354 C350 1.370 . S
C354 C353 1.357 . S
C354 H373 0.950 . S
Zn355 N349 2.020 . S
Zn355 O358 2.025 . S
Zn355 O363 2.024 . S
Zn355 O365 2.039 . S
Zn355 O367 2.034 . S
O356 C340 1.251 . S
O356 Zn347 2.039 . S
C357 O362 1.246 . S
C357 O363 1.249 . S
O358 C340 1.254 . S
O358 Zn355 2.025 . S
H359 C351 0.952 . S
H360 C342 0.952 . S
H361 C350 0.948 . S
O362 Zn347 2.034 . S
O362 C357 1.246 . S
O363 Zn355 2.024 . S
O363 C357 1.249 . S
H364 C346 0.948 . S
O365 Zn355 2.039 . S
O365 C369 1.251 . S
O366 Zn347 2.025 . S
O366 C369 1.254 . S
O367 C348 1.246 . S
O367 Zn355 2.034 . S
O368 Zn347 2.024 . S
O368 C348 1.249 . S
C369 O365 1.251 . S
C369 O366 1.254 . S
H370 C343 0.949 . S
H371 C345 0.950 . S
H372 C352 0.949 . S
H373 C354 0.950 . S
C374 O390 1.251 . S
C374 O392 1.254 . S
N375 C376 1.333 . S
N375 C380 1.307 . S
N375 Zn381 2.020 . S
C376 N375 1.333 . S
C376 C377 1.379 . S
C376 H394 0.952 . S
C377 C376 1.379 . S
C377 C378 1.390 . S
C377 H404 0.949 . S
C378 C377 1.390 . S
C378 C379 1.353 1_565 S
C379 C378 1.353 1_545 S
C379 C380 1.365 1_545 S
C379 H405 0.959 . S
C380 N375 1.307 . S
C380 C379 1.365 1_565 S
C380 H398 0.948 . S
Zn381 N375 2.020 . S
Zn381 O390 2.039 . S
Zn381 O396 2.034 . S
Zn381 O400 2.025 . S
Zn381 O402 2.024 . S
C382 O401 1.246 . S
C382 O402 1.249 . S
N383 C384 1.307 . S
N383 C385 1.333 . S
N383 Zn389 2.020 . S
C384 N383 1.307 . S
C384 C388 1.370 . S
C384 H395 0.948 . S
C385 N383 1.333 . S
C385 C386 1.379 . S
C385 H393 0.952 . S
C386 C385 1.379 . S
C386 C387 1.390 . S
C386 H406 0.949 . S
C387 C386 1.390 . S
C387 C388 1.357 . S
C388 C384 1.370 . S
C388 C387 1.357 . S
C388 H407 0.950 . S
Zn389 N383 2.020 . S
Zn389 O392 2.025 . S
Zn389 O397 2.024 . S
Zn389 O399 2.039 . S
Zn389 O401 2.034 . S
O390 C374 1.251 . S
O390 Zn381 2.039 . S
C391 O396 1.246 . S
C391 O397 1.249 . S
O392 C374 1.254 . S
O392 Zn389 2.025 . S
H393 C385 0.952 . S
H394 C376 0.952 . S
H395 C384 0.948 . S
O396 Zn381 2.034 . S
O396 C391 1.246 . S
O397 Zn389 2.024 . S
O397 C391 1.249 . S
H398 C380 0.948 . S
O399 Zn389 2.039 . S
O399 C403 1.251 . S
O400 Zn381 2.025 . S
O400 C403 1.254 . S
O401 C382 1.246 . S
O401 Zn389 2.034 . S
O402 Zn381 2.024 . S
O402 C382 1.249 . S
C403 O399 1.251 . S
C403 O400 1.254 . S
H404 C377 0.949 . S
H405 C379 0.959 . S
H406 C386 0.949 . S
H407 C388 0.950 . S
C408 O424 1.251 . S
C408 O426 1.254 . S
N409 C410 1.333 . S
N409 C414 1.307 . S
N409 Zn415 2.020 . S
C410 N409 1.333 . S
C410 C411 1.379 . S
C410 H428 0.952 . S
C411 C410 1.379 . S
C411 C412 1.390 . S
C411 H438 0.949 . S
C412 C411 1.390 . S
C412 C413 1.357 . S
C413 C412 1.357 . S
C413 C414 1.370 . S
C413 H439 0.950 . S
C414 N409 1.307 . S
C414 C413 1.370 . S
C414 H432 0.948 . S
Zn415 N409 2.020 . S
Zn415 O424 2.039 . S
Zn415 O430 2.034 . S
Zn415 O434 2.025 . S
Zn415 O436 2.024 . S
C416 O435 1.246 . S
C416 O436 1.249 . S
N417 C418 1.307 . S
N417 C419 1.333 . S
N417 Zn423 2.020 . S
C418 N417 1.307 . S
C418 C422 1.370 . S
C418 H429 0.948 . S
C419 N417 1.333 . S
C419 C420 1.379 . S
C419 H427 0.952 . S
C420 C419 1.379 . S
C420 C421 1.390 . S
C420 H440 0.949 . S
C421 C420 1.390 . S
C421 C422 1.357 . S
C422 C418 1.370 . S
C422 C421 1.357 . S
C422 H441 0.950 . S
Zn423 N417 2.020 . S
Zn423 O426 2.025 . S
Zn423 O431 2.024 . S
Zn423 O433 2.039 . S
Zn423 O435 2.034 . S
O424 C408 1.251 . S
O424 Zn415 2.039 . S
C425 O430 1.246 . S
C425 O431 1.249 . S
O426 C408 1.254 . S
O426 Zn423 2.025 . S
H427 C419 0.952 . S
H428 C410 0.952 . S
H429 C418 0.948 . S
O430 Zn415 2.034 . S
O430 C425 1.246 . S
O431 Zn423 2.024 . S
O431 C425 1.249 . S
H432 C414 0.948 . S
O433 Zn423 2.039 . S
O433 C437 1.251 . S
O434 Zn415 2.025 . S
O434 C437 1.254 . S
O435 C416 1.246 . S
O435 Zn423 2.034 . S
O436 Zn415 2.024 . S
O436 C416 1.249 . S
C437 O433 1.251 . S
C437 O434 1.254 . S
H438 C411 0.949 . S
H439 C413 0.950 . S
H440 C420 0.949 . S
H441 C422 0.950 . S
C442 O458 1.251 . S
C442 O460 1.254 . S
N443 C444 1.333 . S
N443 C448 1.307 . S
N443 Zn449 2.020 . S
C444 N443 1.333 . S
C444 C445 1.379 . S
C444 H462 0.952 . S
C445 C444 1.379 . S
C445 C446 1.390 . S
C445 H472 0.949 . S
C446 C445 1.390 . S
C446 C447 1.357 . S
C447 C446 1.357 . S
C447 C448 1.370 . S
C447 H473 0.950 . S
C448 N443 1.307 . S
C448 C447 1.370 . S
C448 H466 0.948 . S
Zn449 N443 2.020 . S
Zn449 O458 2.039 . S
Zn449 O464 2.034 . S
Zn449 O468 2.025 . S
Zn449 O470 2.024 . S
C450 O469 1.246 . S
C450 O470 1.249 . S
N451 C452 1.307 . S
N451 C453 1.333 . S
N451 Zn457 2.020 . S
C452 N451 1.307 . S
C452 C456 1.365 1_665 S
C452 H463 0.948 . S
C453 N451 1.333 . S
C453 C454 1.379 . S
C453 H461 0.952 . S
C454 C453 1.379 . S
C454 C455 1.390 1_655 S
C454 H474 0.949 1_655 S
C455 C454 1.390 1_455 S
C455 C456 1.353 1_565 S
C456 C452 1.365 1_445 S
C456 C455 1.353 1_545 S
C456 H475 0.959 . S
Zn457 N451 2.020 . S
Zn457 O460 2.025 . S
Zn457 O465 2.024 . S
Zn457 O467 2.039 . S
Zn457 O469 2.034 . S
O458 C442 1.251 . S
O458 Zn449 2.039 . S
C459 O464 1.246 . S
C459 O465 1.249 . S
O460 C442 1.254 . S
O460 Zn457 2.025 . S
H461 C453 0.952 . S
H462 C444 0.952 . S
H463 C452 0.948 . S
O464 Zn449 2.034 . S
O464 C459 1.246 . S
O465 Zn457 2.024 . S
O465 C459 1.249 . S
H466 C448 0.948 . S
O467 Zn457 2.039 . S
O467 C471 1.251 . S
O468 Zn449 2.025 . S
O468 C471 1.254 . S
O469 C450 1.246 . S
O469 Zn457 2.034 . S
O470 Zn449 2.024 . S
O470 C450 1.249 . S
C471 O467 1.251 . S
C471 O468 1.254 . S
H472 C445 0.949 . S
H473 C447 0.950 . S
H474 C454 0.949 1_455 S
H475 C456 0.959 . S
C476 O492 1.251 . S
C476 O494 1.254 . S
N477 C478 1.333 . S
N477 C482 1.307 . S
N477 Zn483 2.020 . S
C478 N477 1.333 . S
C478 C479 1.379 . S
C478 H496 0.952 . S
C479 C478 1.379 . S
C479 C480 1.390 . S
C479 H506 0.949 . S
C480 C479 1.390 . S
C480 C481 1.357 . S
C481 C480 1.357 . S
C481 C482 1.370 . S
C481 H507 0.950 . S
C482 N477 1.307 . S
C482 C481 1.370 . S
C482 H500 0.948 . S
Zn483 N477 2.020 . S
Zn483 O492 2.039 . S
Zn483 O498 2.034 . S
Zn483 O502 2.025 . S
Zn483 O504 2.024 . S
C484 O503 1.246 . S
C484 O504 1.249 . S
N485 C486 1.307 . S
N485 C487 1.333 . S
N485 Zn491 2.020 . S
C486 N485 1.307 . S
C486 C490 1.370 . S
C486 H497 0.948 . S
C487 N485 1.333 . S
C487 C488 1.379 . S
C487 H495 0.952 . S
C488 C487 1.379 . S
C488 C489 1.390 . S
C488 H508 0.949 . S
C489 C488 1.390 . S
C489 C490 1.357 . S
C490 C486 1.370 . S
C490 C489 1.357 . S
C490 H509 0.950 . S
Zn491 N485 2.020 . S
Zn491 O494 2.025 . S
Zn491 O499 2.024 . S
Zn491 O501 2.039 . S
Zn491 O503 2.034 . S
O492 C476 1.251 . S
O492 Zn483 2.039 . S
C493 O498 1.246 . S
C493 O499 1.249 . S
O494 C476 1.254 . S
O494 Zn491 2.025 . S
H495 C487 0.952 . S
H496 C478 0.952 . S
H497 C486 0.948 . S
O498 Zn483 2.034 . S
O498 C493 1.246 . S
O499 Zn491 2.024 . S
O499 C493 1.249 . S
H500 C482 0.948 . S
O501 Zn491 2.039 . S
O501 C505 1.251 . S
O502 Zn483 2.025 . S
O502 C505 1.254 . S
O503 C484 1.246 . S
O503 Zn491 2.034 . S
O504 Zn483 2.024 . S
O504 C484 1.249 . S
C505 O501 1.251 . S
C505 O502 1.254 . S
H506 C479 0.949 . S
H507 C481 0.950 . S
H508 C488 0.949 . S
H509 C490 0.950 . S
C510 O526 1.251 . S
C510 O528 1.254 . S
N511 C512 1.333 . S
N511 C516 1.307 . S
N511 Zn517 2.020 . S
C512 N511 1.333 . S
C512 C513 1.379 . S
C512 H530 0.952 . S
C513 C512 1.379 . S
C513 C514 1.390 . S
C513 H540 0.949 . S
C514 C513 1.390 . S
C514 C515 1.357 . S
C515 C514 1.357 . S
C515 C516 1.370 . S
C515 H541 0.950 . S
C516 N511 1.307 . S
C516 C515 1.370 . S
C516 H534 0.948 . S
Zn517 N511 2.020 . S
Zn517 O526 2.039 . S
Zn517 O532 2.034 . S
Zn517 O536 2.025 . S
Zn517 O538 2.024 . S
C518 O537 1.246 . S
C518 O538 1.249 . S
N519 C520 1.307 . S
N519 C521 1.333 . S
N519 Zn525 2.020 . S
C520 N519 1.307 . S
C520 C524 1.365 1_545 S
C520 H531 0.948 . S
C521 N519 1.333 . S
C521 C522 1.379 . S
C521 H529 0.952 . S
C522 C521 1.379 . S
C522 C523 1.390 . S
C522 H542 0.949 . S
C523 C522 1.390 . S
C523 C524 1.353 1_545 S
C524 C520 1.365 1_565 S
C524 C523 1.353 1_565 S
C524 H543 0.959 . S
Zn525 N519 2.020 . S
Zn525 O528 2.025 . S
Zn525 O533 2.024 . S
Zn525 O535 2.039 . S
Zn525 O537 2.034 . S
O526 C510 1.251 . S
O526 Zn517 2.039 . S
C527 O532 1.246 . S
C527 O533 1.249 . S
O528 C510 1.254 . S
O528 Zn525 2.025 . S
H529 C521 0.952 . S
H530 C512 0.952 . S
H531 C520 0.948 . S
O532 Zn517 2.034 . S
O532 C527 1.246 . S
O533 Zn525 2.024 . S
O533 C527 1.249 . S
H534 C516 0.948 . S
O535 Zn525 2.039 . S
O535 C539 1.251 . S
O536 Zn517 2.025 . S
O536 C539 1.254 . S
O537 C518 1.246 . S
O537 Zn525 2.034 . S
O538 Zn517 2.024 . S
O538 C518 1.249 . S
C539 O535 1.251 . S
C539 O536 1.254 . S
H540 C513 0.949 . S
H541 C515 0.950 . S
H542 C522 0.949 . S
H543 C524 0.959 . S
H544 C552 0.929 . S
H545 C554 0.930 . S
H546 C556 0.930 . S
H547 C559 0.929 . S
H548 C562 0.930 . S
H549 C564 0.960 . S
H550 C564 0.960 . S
H551 C564 0.960 . S
C552 H544 0.929 . S
C552 C553 1.377 . S
C552 C554 1.384 . S
C553 C552 1.377 . S
C553 C559 1.390 . S
C554 H545 0.930 . S
C554 C552 1.384 . S
C554 C555 1.372 . S
C555 C554 1.372 . S
C555 C556 1.400 . S
C555 C560 1.490 . S
C556 H546 0.930 . S
C556 C555 1.400 . S
C556 C559 1.386 . S
H557 C573 0.930 . S
H558 C574 0.931 . S
C559 H547 0.929 . S
C559 C553 1.390 . S
C559 C556 1.386 . S
C560 C555 1.490 . S
C560 C562 1.395 . S
C560 C563 1.403 . S
H561 C567 0.930 . S
C562 H548 0.930 . S
C562 C560 1.395 . S
C562 C565 1.403 . S
C563 C560 1.403 . S
C563 C564 1.524 . S
C563 C567 1.400 . S
C564 H549 0.960 . S
C564 H550 0.960 . S
C564 H551 0.960 . S
C564 C563 1.524 . S
C565 C562 1.403 . S
C565 C566 1.392 . S
C565 C569 1.495 . S
C566 C565 1.392 . S
C566 C567 1.385 . S
C566 C568 1.478 . S
C567 H561 0.930 . S
C567 C563 1.400 . S
C567 C566 1.385 . S
C568 C566 1.478 . S
C568 C570 1.381 . S
C568 C574 1.383 . S
C569 C565 1.495 . S
C569 H575 0.959 . S
C569 H576 0.961 . S
C569 H577 0.960 . S
C570 C568 1.381 . S
C570 C571 1.394 . S
C570 H578 0.930 . S
C571 C570 1.394 . S
C571 C572 1.383 . S
C571 H579 0.929 . S
C572 C571 1.383 . S
C572 C573 1.377 . S
C573 H557 0.930 . S
C573 C572 1.377 . S
C573 C574 1.379 . S
C574 H558 0.931 . S
C574 C568 1.383 . S
C574 C573 1.379 . S
H575 C569 0.959 . S
H576 C569 0.961 . S
H577 C569 0.960 . S
H578 C570 0.930 . S
H579 C571 0.929 . S
H580 C588 0.929 . S
H581 C590 0.930 . S
H582 C592 0.930 . S
H583 C595 0.929 . S
H584 C598 0.930 . S
H585 C600 0.960 . S
H586 C600 0.960 . S
H587 C600 0.960 . S
C588 H580 0.929 . S
C588 C589 1.377 . S
C588 C590 1.384 . S
C589 C588 1.377 . S
C589 C595 1.390 . S
C590 H581 0.930 . S
C590 C588 1.384 . S
C590 C591 1.372 . S
C591 C590 1.372 . S
C591 C592 1.400 . S
C591 C596 1.490 . S
C592 H582 0.930 . S
C592 C591 1.400 . S
C592 C595 1.386 . S
H593 C609 0.930 . S
H594 C610 0.931 . S
C595 H583 0.929 . S
C595 C589 1.390 . S
C595 C592 1.386 . S
C596 C591 1.490 . S
C596 C598 1.395 . S
C596 C599 1.403 . S
H597 C603 0.930 . S
C598 H584 0.930 . S
C598 C596 1.395 . S
C598 C601 1.403 . S
C599 C596 1.403 . S
C599 C600 1.524 . S
C599 C603 1.400 . S
C600 H585 0.960 . S
C600 H586 0.960 . S
C600 H587 0.960 . S
C600 C599 1.524 . S
C601 C598 1.403 . S
C601 C602 1.392 . S
C601 C605 1.495 . S
C602 C601 1.392 . S
C602 C603 1.385 . S
C602 C604 1.478 . S
C603 H597 0.930 . S
C603 C599 1.400 . S
C603 C602 1.385 . S
C604 C602 1.478 . S
C604 C606 1.381 . S
C604 C610 1.383 . S
C605 C601 1.495 . S
C605 H611 0.959 . S
C605 H612 0.961 . S
C605 H613 0.960 . S
C606 C604 1.381 . S
C606 C607 1.394 . S
C606 H614 0.930 . S
C607 C606 1.394 . S
C607 C608 1.383 . S
C607 H615 0.929 . S
C608 C607 1.383 . S
C608 C609 1.377 . S
C609 H593 0.930 . S
C609 C608 1.377 . S
C609 C610 1.379 . S
C610 H594 0.931 . S
C610 C604 1.383 . S
C610 C609 1.379 . S
H611 C605 0.959 . S
H612 C605 0.961 . S
H613 C605 0.960 . S
H614 C606 0.930 . S
H615 C607 0.929 . S
H616 C624 0.929 . S
H617 C626 0.930 . S
H618 C628 0.930 . S
H619 C631 0.929 . S
H620 C634 0.930 . S
H621 C636 0.960 . S
H622 C636 0.960 . S
H623 C636 0.960 . S
C624 H616 0.929 . S
C624 C625 1.377 . S
C624 C626 1.384 . S
C625 C624 1.377 . S
C625 C631 1.390 . S
C626 H617 0.930 . S
C626 C624 1.384 . S
C626 C627 1.372 . S
C627 C626 1.372 . S
C627 C628 1.400 . S
C627 C632 1.490 . S
C628 H618 0.930 . S
C628 C627 1.400 . S
C628 C631 1.386 . S
H629 C645 0.930 . S
H630 C646 0.931 . S
C631 H619 0.929 . S
C631 C625 1.390 . S
C631 C628 1.386 . S
C632 C627 1.490 . S
C632 C634 1.395 . S
C632 C635 1.403 . S
H633 C639 0.930 . S
C634 H620 0.930 . S
C634 C632 1.395 . S
C634 C637 1.403 . S
C635 C632 1.403 . S
C635 C636 1.524 . S
C635 C639 1.400 . S
C636 H621 0.960 . S
C636 H622 0.960 . S
C636 H623 0.960 . S
C636 C635 1.524 . S
C637 C634 1.403 . S
C637 C638 1.392 . S
C637 C641 1.495 . S
C638 C637 1.392 . S
C638 C639 1.385 . S
C638 C640 1.478 . S
C639 H633 0.930 . S
C639 C635 1.400 . S
C639 C638 1.385 . S
C640 C638 1.478 . S
C640 C642 1.381 . S
C640 C646 1.383 . S
C641 C637 1.495 . S
C641 H647 0.959 . S
C641 H648 0.961 . S
C641 H649 0.960 . S
C642 C640 1.381 . S
C642 C643 1.394 . S
C642 H650 0.930 . S
C643 C642 1.394 . S
C643 C644 1.383 . S
C643 H651 0.929 . S
C644 C643 1.383 . S
C644 C645 1.377 . S
C645 H629 0.930 . S
C645 C644 1.377 . S
C645 C646 1.379 . S
C646 H630 0.931 . S
C646 C640 1.383 . S
C646 C645 1.379 . S
H647 C641 0.959 . S
H648 C641 0.961 . S
H649 C641 0.960 . S
H650 C642 0.930 . S
H651 C643 0.929 . S
H652 C660 0.929 . S
H653 C662 0.930 . S
H654 C664 0.930 . S
H655 C667 0.929 . S
H656 C670 0.930 . S
H657 C672 0.960 . S
H658 C672 0.960 . S
H659 C672 0.960 . S
C660 H652 0.929 . S
C660 C661 1.377 . S
C660 C662 1.384 . S
C661 C660 1.377 . S
C661 C667 1.390 . S
C662 H653 0.930 . S
C662 C660 1.384 . S
C662 C663 1.372 . S
C663 C662 1.372 . S
C663 C664 1.400 . S
C663 C668 1.490 . S
C664 H654 0.930 . S
C664 C663 1.400 . S
C664 C667 1.386 . S
H665 C681 0.930 . S
H666 C682 0.931 . S
C667 H655 0.929 . S
C667 C661 1.390 . S
C667 C664 1.386 . S
C668 C663 1.490 . S
C668 C670 1.395 . S
C668 C671 1.403 1_655 S
H669 C675 0.930 . S
C670 H656 0.930 . S
C670 C668 1.395 . S
C670 C673 1.403 1_556 S
C671 C668 1.403 1_455 S
C671 C672 1.524 . S
C671 C675 1.400 1_556 S
C672 H657 0.960 . S
C672 H658 0.960 . S
C672 H659 0.960 . S
C672 C671 1.524 . S
C673 C670 1.403 1_554 S
C673 C674 1.392 1_655 S
C673 C677 1.495 . S
C674 C673 1.392 1_455 S
C674 C675 1.385 . S
C674 C676 1.478 . S
C675 H669 0.930 . S
C675 C671 1.400 1_554 S
C675 C674 1.385 . S
C676 C674 1.478 . S
C676 C678 1.381 . S
C676 C682 1.383 . S
C677 C673 1.495 . S
C677 H683 0.959 . S
C677 H684 0.961 . S
C677 H685 0.960 . S
C678 C676 1.381 . S
C678 C679 1.394 . S
C678 H686 0.930 . S
C679 C678 1.394 . S
C679 C680 1.383 . S
C679 H687 0.929 . S
C680 C679 1.383 . S
C680 C681 1.377 . S
C681 H665 0.930 . S
C681 C680 1.377 . S
C681 C682 1.379 . S
C682 H666 0.931 . S
C682 C676 1.383 . S
C682 C681 1.379 . S
H683 C677 0.959 . S
H684 C677 0.961 . S
H685 C677 0.960 . S
H686 C678 0.930 . S
H687 C679 0.929 . S
H688 C696 0.929 . S
H689 C698 0.930 . S
H690 C700 0.930 . S
H691 C703 0.929 . S
H692 C706 0.930 . S
H693 C708 0.960 . S
H694 C708 0.960 . S
H695 C708 0.960 . S
C696 H688 0.929 . S
C696 C697 1.377 . S
C696 C698 1.384 . S
C697 C696 1.377 . S
C697 C703 1.390 . S
C698 H689 0.930 . S
C698 C696 1.384 . S
C698 C699 1.372 . S
C699 C698 1.372 . S
C699 C700 1.400 . S
C699 C704 1.490 . S
C700 H690 0.930 . S
C700 C699 1.400 . S
C700 C703 1.386 . S
H701 C717 0.930 . S
H702 C718 0.931 . S
C703 H691 0.929 . S
C703 C697 1.390 . S
C703 C700 1.386 . S
C704 C699 1.490 . S
C704 C706 1.395 . S
C704 C707 1.403 . S
H705 C711 0.930 . S
C706 H692 0.930 . S
C706 C704 1.395 . S
C706 C709 1.403 . S
C707 C704 1.403 . S
C707 C708 1.524 . S
C707 C711 1.400 . S
C708 H693 0.960 . S
C708 H694 0.960 . S
C708 H695 0.960 . S
C708 C707 1.524 . S
C709 C706 1.403 . S
C709 C710 1.392 . S
C709 C713 1.495 . S
C710 C709 1.392 . S
C710 C711 1.385 . S
C710 C712 1.478 . S
C711 H705 0.930 . S
C711 C707 1.400 . S
C711 C710 1.385 . S
C712 C710 1.478 . S
C712 C714 1.381 . S
C712 C718 1.383 . S
C713 C709 1.495 . S
C713 H719 0.959 . S
C713 H720 0.961 . S
C713 H721 0.960 . S
C714 C712 1.381 . S
C714 C715 1.394 . S
C714 H722 0.930 . S
C715 C714 1.394 . S
C715 C716 1.383 . S
C715 H723 0.929 . S
C716 C715 1.383 . S
C716 C717 1.377 . S
C717 H701 0.930 . S
C717 C716 1.377 . S
C717 C718 1.379 . S
C718 H702 0.931 . S
C718 C712 1.383 . S
C718 C717 1.379 . S
H719 C713 0.959 . S
H720 C713 0.961 . S
H721 C713 0.960 . S
H722 C714 0.930 . S
H723 C715 0.929 . S
H724 C732 0.929 . S
H725 C734 0.930 . S
H726 C736 0.930 . S
H727 C739 0.929 . S
H728 C742 0.930 . S
H729 C744 0.960 . S
H730 C744 0.960 . S
H731 C744 0.960 . S
C732 H724 0.929 . S
C732 C733 1.377 . S
C732 C734 1.384 . S
C733 C732 1.377 . S
C733 C739 1.390 . S
C734 H725 0.930 . S
C734 C732 1.384 . S
C734 C735 1.372 . S
C735 C734 1.372 . S
C735 C736 1.400 . S
C735 C740 1.490 . S
C736 H726 0.930 . S
C736 C735 1.400 . S
C736 C739 1.386 . S
H737 C753 0.930 . S
H738 C754 0.931 . S
C739 H727 0.929 . S
C739 C733 1.390 . S
C739 C736 1.386 . S
C740 C735 1.490 . S
C740 C742 1.395 . S
C740 C743 1.403 . S
H741 C747 0.930 . S
C742 H728 0.930 . S
C742 C740 1.395 . S
C742 C745 1.403 . S
C743 C740 1.403 . S
C743 C744 1.524 . S
C743 C747 1.400 . S
C744 H729 0.960 . S
C744 H730 0.960 . S
C744 H731 0.960 . S
C744 C743 1.524 . S
C745 C742 1.403 . S
C745 C746 1.392 . S
C745 C749 1.495 . S
C746 C745 1.392 . S
C746 C747 1.385 . S
C746 C748 1.478 . S
C747 H741 0.930 . S
C747 C743 1.400 . S
C747 C746 1.385 . S
C748 C746 1.478 . S
C748 C750 1.381 . S
C748 C754 1.383 . S
C749 C745 1.495 . S
C749 H755 0.959 . S
C749 H756 0.961 . S
C749 H757 0.960 . S
C750 C748 1.381 . S
C750 C751 1.394 . S
C750 H758 0.930 . S
C751 C750 1.394 . S
C751 C752 1.383 . S
C751 H759 0.929 . S
C752 C751 1.383 . S
C752 C753 1.377 . S
C753 H737 0.930 . S
C753 C752 1.377 . S
C753 C754 1.379 . S
C754 H738 0.931 . S
C754 C748 1.383 . S
C754 C753 1.379 . S
H755 C749 0.959 . S
H756 C749 0.961 . S
H757 C749 0.960 . S
H758 C750 0.930 . S
H759 C751 0.929 . S
H760 C768 0.929 . S
H761 C770 0.930 . S
H762 C772 0.930 . S
H763 C775 0.929 . S
H764 C778 0.930 . S
H765 C780 0.960 1_556 S
H766 C780 0.960 . S
H767 C780 0.960 1_565 S
C768 H760 0.929 . S
C768 C769 1.377 . S
C768 C770 1.384 . S
C769 C768 1.377 . S
C769 C775 1.390 . S
C770 H761 0.930 . S
C770 C768 1.384 . S
C770 C771 1.372 . S
C771 C770 1.372 . S
C771 C772 1.400 . S
C771 C776 1.490 . S
C772 H762 0.930 . S
C772 C771 1.400 . S
C772 C775 1.386 . S
H773 C789 0.930 . S
H774 C790 0.931 . S
C775 H763 0.929 . S
C775 C769 1.390 . S
C775 C772 1.386 . S
C776 C771 1.490 . S
C776 C778 1.395 1_655 S
C776 C779 1.403 1_565 S
H777 C783 0.930 . S
C778 H764 0.930 . S
C778 C776 1.395 1_455 S
C778 C781 1.403 1_554 S
C779 C776 1.403 1_545 S
C779 C780 1.524 . S
C779 C783 1.400 1_554 S
C780 H765 0.960 1_554 S
C780 H766 0.960 . S
C780 H767 0.960 1_545 S
C780 C779 1.524 . S
C781 C778 1.403 1_556 S
C781 C782 1.392 1_565 S
C781 C785 1.495 . S
C782 C781 1.392 1_545 S
C782 C783 1.385 1_455 S
C782 C784 1.478 . S
C783 H777 0.930 . S
C783 C779 1.400 1_556 S
C783 C782 1.385 1_655 S
C784 C782 1.478 . S
C784 C786 1.381 . S
C784 C790 1.383 . S
C785 C781 1.495 . S
C785 H791 0.959 1_556 S
C785 H792 0.961 . S
C785 H793 0.928 1_565 S
C786 C784 1.381 . S
C786 C787 1.394 . S
C786 H794 0.930 . S
C787 C786 1.394 . S
C787 C788 1.383 . S
C787 H795 0.929 . S
C788 C787 1.383 . S
C788 C789 1.377 . S
C789 H773 0.930 . S
C789 C788 1.377 . S
C789 C790 1.379 . S
C790 H774 0.931 . S
C790 C784 1.383 . S
C790 C789 1.379 . S
H791 C785 0.959 1_554 S
H792 C785 0.961 . S
H793 C785 0.928 1_545 S
H794 C786 0.930 . S
H795 C787 0.929 . S
H796 C804 0.929 . S
H797 C806 0.930 . S
H798 C808 0.930 . S
H799 C811 0.929 . S
H800 C814 0.930 . S
H801 C816 0.960 . S
H802 C816 0.960 . S
H803 C816 0.960 . S
C804 H796 0.929 . S
C804 C805 1.377 . S
C804 C806 1.384 . S
C805 C804 1.377 . S
C805 C811 1.390 . S
C806 H797 0.930 . S
C806 C804 1.384 . S
C806 C807 1.372 . S
C807 C806 1.372 . S
C807 C808 1.400 . S
C807 C812 1.490 . S
C808 H798 0.930 . S
C808 C807 1.400 . S
C808 C811 1.386 . S
H809 C825 0.930 . S
H810 C826 0.931 . S
C811 H799 0.929 . S
C811 C805 1.390 . S
C811 C808 1.386 . S
C812 C807 1.490 . S
C812 C814 1.395 . S
C812 C815 1.403 1_565 S
H813 C819 0.930 . S
C814 H800 0.930 . S
C814 C812 1.395 . S
C814 C817 1.403 . S
C815 C812 1.403 1_545 S
C815 C816 1.524 . S
C815 C819 1.400 . S
C816 H801 0.960 . S
C816 H802 0.960 . S
C816 H803 0.960 . S
C816 C815 1.524 . S
C817 C814 1.403 . S
C817 C818 1.392 1_565 S
C817 C821 1.495 . S
C818 C817 1.392 1_545 S
C818 C819 1.385 . S
C818 C820 1.478 . S
C819 H813 0.930 . S
C819 C815 1.400 . S
C819 C818 1.385 . S
C820 C818 1.478 . S
C820 C822 1.381 . S
C820 C826 1.383 . S
C821 C817 1.495 . S
C821 H827 0.959 . S
C821 H828 0.961 . S
C821 H829 0.960 . S
C822 C820 1.381 . S
C822 C823 1.394 . S
C822 H830 0.930 . S
C823 C822 1.394 . S
C823 C824 1.383 . S
C823 H831 0.929 . S
C824 C823 1.383 . S
C824 C825 1.377 . S
C825 H809 0.930 . S
C825 C824 1.377 . S
C825 C826 1.379 . S
C826 H810 0.931 . S
C826 C820 1.383 . S
C826 C825 1.379 . S
H827 C821 0.959 . S
H828 C821 0.961 . S
H829 C821 0.960 . S
H830 C822 0.930 . S
H831 C823 0.929 . S
H832 C840 0.929 . S
H833 C842 0.930 . S
H834 C844 0.930 . S
H835 C847 0.929 . S
H836 C850 0.930 . S
H837 C852 0.960 1_554 S
H838 C852 0.960 . S
H839 C852 0.960 . S
C840 H832 0.929 . S
C840 C841 1.377 . S
C840 C842 1.384 . S
C841 C840 1.377 . S
C841 C847 1.390 . S
C842 H833 0.930 . S
C842 C840 1.384 . S
C842 C843 1.372 . S
C843 C842 1.372 . S
C843 C844 1.400 . S
C843 C848 1.506 . S
C844 H834 0.930 . S
C844 C843 1.400 . S
C844 C847 1.386 . S
H845 C861 0.930 . S
H846 C862 0.931 . S
C847 H835 0.929 . S
C847 C841 1.390 . S
C847 C844 1.386 . S
C848 C843 1.506 . S
C848 C850 1.386 1_556 S
C848 C851 1.396 1_556 S
H849 C855 0.930 . S
C850 H836 0.930 . S
C850 C848 1.386 1_554 S
C850 C853 1.403 . S
C851 C848 1.396 1_554 S
C851 C852 1.524 1_554 S
C851 C855 1.400 . S
C852 H837 0.960 1_556 S
C852 H838 0.960 . S
C852 H839 0.960 . S
C852 C851 1.524 1_556 S
C853 C850 1.403 . S
C853 C854 1.392 . S
C853 C857 1.495 . S
C854 C853 1.392 . S
C854 C855 1.385 . S
C854 C856 1.478 . S
C855 H849 0.930 . S
C855 C851 1.400 . S
C855 C854 1.385 . S
C856 C854 1.478 . S
C856 C858 1.381 . S
C856 C862 1.383 . S
C857 C853 1.495 . S
C857 H863 0.959 . S
C857 H864 0.961 . S
C857 H865 0.960 . S
C858 C856 1.381 . S
C858 C859 1.394 . S
C858 H866 0.930 . S
C859 C858 1.394 . S
C859 C860 1.383 . S
C859 H867 0.929 . S
C860 C859 1.383 . S
C860 C861 1.377 . S
C861 H845 0.930 . S
C861 C860 1.377 . S
C861 C862 1.379 . S
C862 H846 0.931 . S
C862 C856 1.383 . S
C862 C861 1.379 . S
H863 C857 0.959 . S
H864 C857 0.961 . S
H865 C857 0.960 . S
H866 C858 0.930 . S
H867 C859 0.929 . S
H868 C876 0.929 . S
H869 C878 0.930 . S
H870 C880 0.930 . S
H871 C883 0.929 . S
H872 C886 0.930 . S
H873 C888 0.960 . S
H874 C888 0.960 . S
H875 C888 0.960 . S
C876 H868 0.929 . S
C876 C877 1.377 . S
C876 C878 1.384 . S
C877 C876 1.377 . S
C877 C883 1.390 . S
C878 H869 0.930 . S
C878 C876 1.384 . S
C878 C879 1.372 . S
C879 C878 1.372 . S
C879 C880 1.400 . S
C879 C884 1.490 . S
C880 H870 0.930 . S
C880 C879 1.400 . S
C880 C883 1.386 . S
H881 C897 0.930 . S
H882 C898 0.931 . S
C883 H871 0.929 . S
C883 C877 1.390 . S
C883 C880 1.386 . S
C884 C879 1.490 . S
C884 C886 1.395 . S
C884 C887 1.403 . S
H885 C891 0.930 . S
C886 H872 0.930 . S
C886 C884 1.395 . S
C886 C889 1.403 . S
C887 C884 1.403 . S
C887 C888 1.524 . S
C887 C891 1.400 . S
C888 H873 0.960 . S
C888 H874 0.960 . S
C888 H875 0.960 . S
C888 C887 1.524 . S
C889 C886 1.403 . S
C889 C890 1.392 . S
C889 C893 1.495 . S
C890 C889 1.392 . S
C890 C891 1.385 . S
C890 C892 1.478 . S
C891 H885 0.930 . S
C891 C887 1.400 . S
C891 C890 1.385 . S
C892 C890 1.478 . S
C892 C894 1.381 . S
C892 C898 1.383 . S
C893 C889 1.495 . S
C893 H899 0.959 . S
C893 H900 0.961 . S
C893 H901 0.960 . S
C894 C892 1.381 . S
C894 C895 1.394 . S
C894 H902 0.930 . S
C895 C894 1.394 . S
C895 C896 1.383 . S
C895 H903 0.929 . S
C896 C895 1.383 . S
C896 C897 1.377 . S
C897 H881 0.930 . S
C897 C896 1.377 . S
C897 C898 1.379 . S
C898 H882 0.931 . S
C898 C892 1.383 . S
C898 C897 1.379 . S
H899 C893 0.959 . S
H900 C893 0.961 . S
H901 C893 0.960 . S
H902 C894 0.930 . S
H903 C895 0.929 . S
H904 C912 0.929 . S
H905 C914 0.930 . S
H906 C916 0.930 . S
H907 C919 0.929 . S
H908 C922 0.930 . S
H909 C924 0.960 . S
H910 C924 0.960 . S
H911 C924 0.960 . S
C912 H904 0.929 . S
C912 C913 1.377 . S
C912 C914 1.384 . S
C913 C912 1.377 . S
C913 C919 1.390 . S
C914 H905 0.930 . S
C914 C912 1.384 . S
C914 C915 1.372 . S
C915 C914 1.372 . S
C915 C916 1.400 . S
C915 C920 1.490 . S
C916 H906 0.930 . S
C916 C915 1.400 . S
C916 C919 1.386 . S
H917 C933 0.930 . S
H918 C934 0.931 . S
C919 H907 0.929 . S
C919 C913 1.390 . S
C919 C916 1.386 . S
C920 C915 1.490 . S
C920 C922 1.395 . S
C920 C923 1.403 . S
H921 C927 0.930 . S
C922 H908 0.930 . S
C922 C920 1.395 . S
C922 C925 1.403 . S
C923 C920 1.403 . S
C923 C924 1.524 . S
C923 C927 1.400 . S
C924 H909 0.960 . S
C924 H910 0.960 . S
C924 H911 0.960 . S
C924 C923 1.524 . S
C925 C922 1.403 . S
C925 C926 1.392 . S
C925 C929 1.495 . S
C926 C925 1.392 . S
C926 C927 1.385 . S
C926 C928 1.478 . S
C927 H921 0.930 . S
C927 C923 1.400 . S
C927 C926 1.385 . S
C928 C926 1.478 . S
C928 C930 1.381 . S
C928 C934 1.383 . S
C929 C925 1.495 . S
C929 H935 0.959 . S
C929 H936 0.961 . S
C929 H937 0.960 . S
C930 C928 1.381 . S
C930 C931 1.394 . S
C930 H938 0.930 . S
C931 C930 1.394 . S
C931 C932 1.383 . S
C931 H939 0.929 . S
C932 C931 1.383 . S
C932 C933 1.377 . S
C933 H917 0.930 . S
C933 C932 1.377 . S
C933 C934 1.379 . S
C934 H918 0.931 . S
C934 C928 1.383 . S
C934 C933 1.379 . S
H935 C929 0.959 . S
H936 C929 0.961 . S
H937 C929 0.960 . S
H938 C930 0.930 . S
H939 C931 0.929 . S
H940 C948 0.929 . S
H941 C950 0.930 . S
H942 C952 0.930 . S
H943 C955 0.929 . S
H944 C958 0.930 . S
H945 C960 0.960 . S
H946 C960 0.960 . S
H947 C960 0.960 . S
C948 H940 0.929 . S
C948 C949 1.377 . S
C948 C950 1.384 . S
C949 C948 1.377 . S
C949 C955 1.390 . S
C950 H941 0.930 . S
C950 C948 1.384 . S
C950 C951 1.372 . S
C951 C950 1.372 . S
C951 C952 1.400 . S
C951 C956 1.490 . S
C952 H942 0.930 . S
C952 C951 1.400 . S
C952 C955 1.386 . S
H953 C969 0.930 . S
H954 C970 0.931 . S
C955 H943 0.929 . S
C955 C949 1.390 . S
C955 C952 1.386 . S
C956 C951 1.490 . S
C956 C958 1.395 . S
C956 C959 1.403 . S
H957 C963 0.930 . S
C958 H944 0.930 . S
C958 C956 1.395 . S
C958 C961 1.403 . S
C959 C956 1.403 . S
C959 C960 1.524 . S
C959 C963 1.400 . S
C960 H945 0.960 . S
C960 H946 0.960 . S
C960 H947 0.960 . S
C960 C959 1.524 . S
C961 C958 1.403 . S
C961 C962 1.392 . S
C961 C965 1.495 . S
C962 C961 1.392 . S
C962 C963 1.385 . S
C962 C964 1.478 . S
C963 H957 0.930 . S
C963 C959 1.400 . S
C963 C962 1.385 . S
C964 C962 1.478 . S
C964 C966 1.381 . S
C964 C970 1.383 . S
C965 C961 1.495 . S
C965 H971 0.959 . S
C965 H972 0.961 . S
C965 H973 0.960 . S
C966 C964 1.381 . S
C966 C967 1.394 . S
C966 H974 0.930 . S
C967 C966 1.394 . S
C967 C968 1.383 . S
C967 H975 0.929 . S
C968 C967 1.383 . S
C968 C969 1.377 . S
C969 H953 0.930 . S
C969 C968 1.377 . S
C969 C970 1.379 . S
C970 H954 0.931 . S
C970 C964 1.383 . S
C970 C969 1.379 . S
H971 C965 0.959 . S
H972 C965 0.961 . S
H973 C965 0.960 . S
H974 C966 0.930 . S
H975 C967 0.929 . S
H976 C984 0.929 . S
H977 C986 0.930 . S
H978 C988 0.930 . S
H979 C991 0.929 . S
H980 C994 0.930 . S
H981 C996 0.960 . S
H982 C996 0.953 1_554 S
H983 C996 0.960 1_554 S
C984 H976 0.929 . S
C984 C985 1.377 . S
C984 C986 1.384 . S
C985 C984 1.377 . S
C985 C991 1.390 . S
C986 H977 0.930 . S
C986 C984 1.384 . S
C986 C987 1.372 . S
C987 C986 1.372 . S
C987 C988 1.400 . S
C987 C992 1.510 . S
C988 H978 0.930 . S
C988 C987 1.400 . S
C988 C991 1.386 . S
H989 C1005 0.930 . S
H990 C1006 0.931 . S
C991 H979 0.929 . S
C991 C985 1.390 . S
C991 C988 1.386 . S
C992 C987 1.510 . S
C992 C994 1.385 1_554 S
C992 C995 1.392 1_554 S
H993 C999 0.930 . S
C994 H980 0.930 . S
C994 C992 1.385 1_556 S
C994 C997 1.403 . S
C995 C992 1.392 1_556 S
C995 C996 1.524 . S
C995 C999 1.400 . S
C996 H981 0.960 . S
C996 H982 0.953 1_556 S
C996 H983 0.960 1_556 S
C996 C995 1.524 . S
C997 C994 1.403 . S
C997 C998 1.392 . S
C997 C1001 1.495 . S
C998 C997 1.392 . S
C998 C999 1.385 . S
C998 C1000 1.478 . S
C999 H993 0.930 . S
C999 C995 1.400 . S
C999 C998 1.385 . S
C1000 C998 1.478 . S
C1000 C1002 1.381 . S
C1000 C1006 1.383 . S
C1001 C997 1.495 . S
C1001 H1007 0.959 . S
C1001 H1008 0.961 . S
C1001 H1009 0.960 . S
C1002 C1000 1.381 . S
C1002 C1003 1.394 . S
C1002 H1010 0.930 . S
C1003 C1002 1.394 . S
C1003 C1004 1.383 . S
C1003 H1011 0.929 . S
C1004 C1003 1.383 . S
C1004 C1005 1.377 . S
C1005 H989 0.930 . S
C1005 C1004 1.377 . S
C1005 C1006 1.379 . S
C1006 H990 0.931 . S
C1006 C1000 1.383 . S
C1006 C1005 1.379 . S
H1007 C1001 0.959 . S
H1008 C1001 0.961 . S
H1009 C1001 0.960 . S
H1010 C1002 0.930 . S
H1011 C1003 0.929 . S
H1012 C1020 0.929 . S
H1013 C1022 0.930 . S
H1014 C1024 0.930 . S
H1015 C1027 0.929 . S
H1016 C1030 0.930 . S
H1017 C1032 0.960 . S
H1018 C1032 0.960 . S
H1019 C1032 0.960 . S
C1020 H1012 0.929 . S
C1020 C1021 1.377 . S
C1020 C1022 1.384 . S
C1021 C1020 1.377 . S
C1021 C1027 1.390 . S
C1022 H1013 0.930 . S
C1022 C1020 1.384 . S
C1022 C1023 1.372 . S
C1023 C1022 1.372 . S
C1023 C1024 1.400 . S
C1023 C1028 1.490 . S
C1024 H1014 0.930 . S
C1024 C1023 1.400 . S
C1024 C1027 1.386 . S
H1025 C1041 0.930 . S
H1026 C1042 0.931 . S
C1027 H1015 0.929 . S
C1027 C1021 1.390 . S
C1027 C1024 1.386 . S
C1028 C1023 1.490 . S
C1028 C1030 1.395 . S
C1028 C1031 1.403 . S
H1029 C1035 0.930 . S
C1030 H1016 0.930 . S
C1030 C1028 1.395 . S
C1030 C1033 1.403 . S
C1031 C1028 1.403 . S
C1031 C1032 1.524 . S
C1031 C1035 1.400 . S
C1032 H1017 0.960 . S
C1032 H1018 0.960 . S
C1032 H1019 0.960 . S
C1032 C1031 1.524 . S
C1033 C1030 1.403 . S
C1033 C1034 1.392 . S
C1033 C1037 1.495 . S
C1034 C1033 1.392 . S
C1034 C1035 1.385 . S
C1034 C1036 1.478 . S
C1035 H1029 0.930 . S
C1035 C1031 1.400 . S
C1035 C1034 1.385 . S
C1036 C1034 1.478 . S
C1036 C1038 1.381 . S
C1036 C1042 1.383 . S
C1037 C1033 1.495 . S
C1037 H1043 0.959 . S
C1037 H1044 0.961 . S
C1037 H1045 0.960 . S
C1038 C1036 1.381 . S
C1038 C1039 1.394 . S
C1038 H1046 0.930 . S
C1039 C1038 1.394 . S
C1039 C1040 1.383 . S
C1039 H1047 0.929 . S
C1040 C1039 1.383 . S
C1040 C1041 1.377 . S
C1041 H1025 0.930 . S
C1041 C1040 1.377 . S
C1041 C1042 1.379 . S
C1042 H1026 0.931 . S
C1042 C1036 1.383 . S
C1042 C1041 1.379 . S
H1043 C1037 0.959 . S
H1044 C1037 0.961 . S
H1045 C1037 0.960 . S
H1046 C1038 0.930 . S
H1047 C1039 0.929 . S
H1048 C1056 0.929 . S
H1049 C1058 0.930 . S
H1050 C1060 0.930 . S
H1051 C1063 0.929 . S
H1052 C1066 0.930 . S
H1053 C1068 0.960 . S
H1054 C1068 0.960 . S
H1055 C1068 0.960 . S
C1056 H1048 0.929 . S
C1056 C1057 1.377 . S
C1056 C1058 1.384 . S
C1057 C1056 1.377 . S
C1057 C1063 1.390 . S
C1058 H1049 0.930 . S
C1058 C1056 1.384 . S
C1058 C1059 1.372 . S
C1059 C1058 1.372 . S
C1059 C1060 1.400 . S
C1059 C1064 1.490 . S
C1060 H1050 0.930 . S
C1060 C1059 1.400 . S
C1060 C1063 1.386 . S
H1061 C1077 0.930 . S
H1062 C1078 0.931 . S
C1063 H1051 0.929 . S
C1063 C1057 1.390 . S
C1063 C1060 1.386 . S
C1064 C1059 1.490 . S
C1064 C1066 1.395 . S
C1064 C1067 1.403 . S
H1065 C1071 0.930 . S
C1066 H1052 0.930 . S
C1066 C1064 1.395 . S
C1066 C1069 1.403 . S
C1067 C1064 1.403 . S
C1067 C1068 1.524 . S
C1067 C1071 1.400 . S
C1068 H1053 0.960 . S
C1068 H1054 0.960 . S
C1068 H1055 0.960 . S
C1068 C1067 1.524 . S
C1069 C1066 1.403 . S
C1069 C1070 1.392 . S
C1069 C1073 1.495 . S
C1070 C1069 1.392 . S
C1070 C1071 1.385 . S
C1070 C1072 1.478 . S
C1071 H1065 0.930 . S
C1071 C1067 1.400 . S
C1071 C1070 1.385 . S
C1072 C1070 1.478 . S
C1072 C1074 1.381 . S
C1072 C1078 1.383 . S
C1073 C1069 1.495 . S
C1073 H1079 0.959 . S
C1073 H1080 0.961 . S
C1073 H1081 0.960 . S
C1074 C1072 1.381 . S
C1074 C1075 1.394 . S
C1074 H1082 0.930 . S
C1075 C1074 1.394 . S
C1075 C1076 1.383 . S
C1075 H1083 0.929 . S
C1076 C1075 1.383 . S
C1076 C1077 1.377 . S
C1077 H1061 0.930 . S
C1077 C1076 1.377 . S
C1077 C1078 1.379 . S
C1078 H1062 0.931 . S
C1078 C1072 1.383 . S
C1078 C1077 1.379 . S
H1079 C1073 0.959 . S
H1080 C1073 0.961 . S
H1081 C1073 0.960 . S
H1082 C1074 0.930 . S
H1083 C1075 0.929 . S
H1084 C1092 0.929 . S
H1085 C1094 0.930 . S
H1086 C1096 0.930 . S
H1087 C1099 0.929 . S
H1088 C1102 0.930 . S
H1089 C1104 0.960 . S
H1090 C1104 0.960 . S
H1091 C1104 0.960 . S
C1092 H1084 0.929 . S
C1092 C1093 1.377 . S
C1092 C1094 1.384 . S
C1093 C1092 1.377 . S
C1093 C1099 1.390 . S
C1094 H1085 0.930 . S
C1094 C1092 1.384 . S
C1094 C1095 1.372 . S
C1095 C1094 1.372 . S
C1095 C1096 1.400 . S
C1095 C1100 1.490 . S
C1096 H1086 0.930 . S
C1096 C1095 1.400 . S
C1096 C1099 1.386 . S
H1097 C1113 0.930 . S
H1098 C1114 0.931 . S
C1099 H1087 0.929 . S
C1099 C1093 1.390 . S
C1099 C1096 1.386 . S
C1100 C1095 1.490 . S
C1100 C1102 1.395 . S
C1100 C1103 1.403 . S
H1101 C1107 0.930 . S
C1102 H1088 0.930 . S
C1102 C1100 1.395 . S
C1102 C1105 1.403 . S
C1103 C1100 1.403 . S
C1103 C1104 1.524 . S
C1103 C1107 1.400 . S
C1104 H1089 0.960 . S
C1104 H1090 0.960 . S
C1104 H1091 0.960 . S
C1104 C1103 1.524 . S
C1105 C1102 1.403 . S
C1105 C1106 1.392 . S
C1105 C1109 1.495 . S
C1106 C1105 1.392 . S
C1106 C1107 1.385 . S
C1106 C1108 1.478 . S
C1107 H1101 0.930 . S
C1107 C1103 1.400 . S
C1107 C1106 1.385 . S
C1108 C1106 1.478 . S
C1108 C1110 1.381 . S
C1108 C1114 1.383 . S
C1109 C1105 1.495 . S
C1109 H1115 0.959 . S
C1109 H1116 0.961 . S
C1109 H1117 0.960 . S
C1110 C1108 1.381 . S
C1110 C1111 1.394 . S
C1110 H1118 0.930 . S
C1111 C1110 1.394 . S
C1111 C1112 1.383 . S
C1111 H1119 0.929 . S
C1112 C1111 1.383 . S
C1112 C1113 1.377 . S
C1113 H1097 0.930 . S
C1113 C1112 1.377 . S
C1113 C1114 1.379 . S
C1114 H1098 0.931 . S
C1114 C1108 1.383 . S
C1114 C1113 1.379 . S
H1115 C1109 0.959 . S
H1116 C1109 0.961 . S
H1117 C1109 0.960 . S
H1118 C1110 0.930 . S
H1119 C1111 0.929 . S
H1120 C1128 0.929 . S
H1121 C1130 0.930 . S
H1122 C1132 0.930 . S
H1123 C1135 0.929 . S
H1124 C1138 0.930 . S
H1125 C1140 0.960 . S
H1126 C1140 0.960 . S
H1127 C1140 0.960 . S
C1128 H1120 0.929 . S
C1128 C1129 1.377 . S
C1128 C1130 1.384 . S
C1129 C1128 1.377 . S
C1129 C1135 1.390 . S
C1130 H1121 0.930 . S
C1130 C1128 1.384 . S
C1130 C1131 1.372 . S
C1131 C1130 1.372 . S
C1131 C1132 1.400 . S
C1131 C1136 1.490 . S
C1132 H1122 0.930 . S
C1132 C1131 1.400 . S
C1132 C1135 1.386 . S
H1133 C1149 0.930 . S
H1134 C1150 0.931 . S
C1135 H1123 0.929 . S
C1135 C1129 1.390 . S
C1135 C1132 1.386 . S
C1136 C1131 1.490 . S
C1136 C1138 1.395 . S
C1136 C1139 1.403 . S
H1137 C1143 0.930 . S
C1138 H1124 0.930 . S
C1138 C1136 1.395 . S
C1138 C1141 1.403 . S
C1139 C1136 1.403 . S
C1139 C1140 1.524 . S
C1139 C1143 1.400 . S
C1140 H1125 0.960 . S
C1140 H1126 0.960 . S
C1140 H1127 0.960 . S
C1140 C1139 1.524 . S
C1141 C1138 1.403 . S
C1141 C1142 1.392 . S
C1141 C1145 1.495 . S
C1142 C1141 1.392 . S
C1142 C1143 1.385 . S
C1142 C1144 1.478 . S
C1143 H1137 0.930 . S
C1143 C1139 1.400 . S
C1143 C1142 1.385 . S
C1144 C1142 1.478 . S
C1144 C1146 1.381 . S
C1144 C1150 1.383 . S
C1145 C1141 1.495 . S
C1145 H1151 0.959 . S
C1145 H1152 0.961 . S
C1145 H1153 0.960 . S
C1146 C1144 1.381 . S
C1146 C1147 1.394 . S
C1146 H1154 0.930 . S
C1147 C1146 1.394 . S
C1147 C1148 1.383 . S
C1147 H1155 0.929 . S
C1148 C1147 1.383 . S
C1148 C1149 1.377 . S
C1149 H1133 0.930 . S
C1149 C1148 1.377 . S
C1149 C1150 1.379 . S
C1150 H1134 0.931 . S
C1150 C1144 1.383 . S
C1150 C1149 1.379 . S
H1151 C1145 0.959 . S
H1152 C1145 0.961 . S
H1153 C1145 0.960 . S
H1154 C1146 0.930 . S
H1155 C1147 0.929 . S
H1156 C1164 0.929 . S
H1157 C1166 0.930 . S
H1158 C1168 0.930 . S
H1159 C1171 0.929 . S
H1160 C1174 0.930 . S
H1161 C1176 0.960 . S
H1162 C1176 0.960 . S
H1163 C1176 0.960 . S
C1164 H1156 0.929 . S
C1164 C1165 1.377 . S
C1164 C1166 1.384 . S
C1165 C1164 1.377 . S
C1165 C1171 1.390 . S
C1166 H1157 0.930 . S
C1166 C1164 1.384 . S
C1166 C1167 1.372 . S
C1167 C1166 1.372 . S
C1167 C1168 1.400 . S
C1167 C1172 1.490 . S
C1168 H1158 0.930 . S
C1168 C1167 1.400 . S
C1168 C1171 1.386 . S
H1169 C1185 0.930 . S
H1170 C1186 0.931 . S
C1171 H1159 0.929 . S
C1171 C1165 1.390 . S
C1171 C1168 1.386 . S
C1172 C1167 1.490 . S
C1172 C1174 1.395 . S
C1172 C1175 1.403 1_545 S
H1173 C1179 0.930 . S
C1174 H1160 0.930 . S
C1174 C1172 1.395 . S
C1174 C1177 1.403 . S
C1175 C1172 1.403 1_565 S
C1175 C1176 1.524 . S
C1175 C1179 1.400 . S
C1176 H1161 0.960 . S
C1176 H1162 0.960 . S
C1176 H1163 0.960 . S
C1176 C1175 1.524 . S
C1177 C1174 1.403 . S
C1177 C1178 1.392 . S
C1177 C1181 1.495 . S
C1178 C1177 1.392 . S
C1178 C1179 1.385 1_545 S
C1178 C1180 1.478 1_545 S
C1179 H1173 0.930 . S
C1179 C1175 1.400 . S
C1179 C1178 1.385 1_565 S
C1180 C1178 1.478 1_565 S
C1180 C1182 1.381 . S
C1180 C1186 1.383 . S
C1181 C1177 1.495 . S
C1181 H1187 0.959 . S
C1181 H1188 0.961 . S
C1181 H1189 0.960 . S
C1182 C1180 1.381 . S
C1182 C1183 1.394 . S
C1182 H1190 0.930 1_565 S
C1183 C1182 1.394 . S
C1183 C1184 1.383 . S
C1183 H1191 0.929 . S
C1184 C1183 1.383 . S
C1184 C1185 1.377 . S
C1185 H1169 0.930 . S
C1185 C1184 1.377 . S
C1185 C1186 1.379 . S
C1186 H1170 0.931 . S
C1186 C1180 1.383 . S
C1186 C1185 1.379 . S
H1187 C1181 0.959 . S
H1188 C1181 0.961 . S
H1189 C1181 0.960 . S
H1190 C1182 0.930 1_545 S
H1191 C1183 0.929 . S
H1192 C1200 0.929 . S
H1193 C1202 0.930 . S
H1194 C1204 0.930 . S
H1195 C1207 0.929 . S
H1196 C1210 0.930 . S
H1197 C1212 0.960 . S
H1198 C1212 0.960 . S
H1199 C1212 0.960 . S
C1200 H1192 0.929 . S
C1200 C1201 1.377 . S
C1200 C1202 1.384 . S
C1201 C1200 1.377 . S
C1201 C1207 1.390 . S
C1202 H1193 0.930 . S
C1202 C1200 1.384 . S
C1202 C1203 1.372 . S
C1203 C1202 1.372 . S
C1203 C1204 1.400 . S
C1203 C1208 1.490 . S
C1204 H1194 0.930 . S
C1204 C1203 1.400 . S
C1204 C1207 1.386 . S
H1205 C1221 0.930 . S
H1206 C1222 0.931 . S
C1207 H1195 0.929 . S
C1207 C1201 1.390 . S
C1207 C1204 1.386 . S
C1208 C1203 1.490 . S
C1208 C1210 1.395 . S
C1208 C1211 1.403 . S
H1209 C1215 0.930 . S
C1210 H1196 0.930 . S
C1210 C1208 1.395 . S
C1210 C1213 1.447 . S
C1211 C1208 1.403 . S
C1211 C1212 1.524 . S
C1211 C1215 1.400 . S
C1212 H1197 0.960 . S
C1212 H1198 0.960 . S
C1212 H1199 0.960 . S
C1212 C1211 1.524 . S
C1213 C1210 1.447 . S
C1213 C1214 1.385 1_554 S
C1213 C1217 1.462 1_554 S
C1214 C1213 1.385 1_556 S
C1214 C1215 1.385 1_556 S
C1214 C1216 1.478 . S
C1215 H1209 0.930 . S
C1215 C1211 1.400 . S
C1215 C1214 1.385 1_554 S
C1216 C1214 1.478 . S
C1216 C1218 1.381 . S
C1216 C1222 1.383 . S
C1217 C1213 1.462 1_556 S
C1217 H1223 0.959 . S
C1217 H1224 0.961 . S
C1217 H1225 0.960 . S
C1218 C1216 1.381 . S
C1218 C1219 1.394 . S
C1218 H1226 0.930 . S
C1219 C1218 1.394 . S
C1219 C1220 1.383 . S
C1219 H1227 0.929 . S
C1220 C1219 1.383 . S
C1220 C1221 1.377 . S
C1221 H1205 0.930 . S
C1221 C1220 1.377 . S
C1221 C1222 1.379 . S
C1222 H1206 0.931 . S
C1222 C1216 1.383 . S
C1222 C1221 1.379 . S
H1223 C1217 0.959 . S
H1224 C1217 0.961 . S
H1225 C1217 0.960 . S
H1226 C1218 0.930 . S
H1227 C1219 0.929 . S
H1228 C1236 0.929 . S
H1229 C1238 0.930 . S
H1230 C1240 0.930 1_565 S
H1231 C1243 0.929 . S
H1232 C1246 0.930 . S
H1233 C1248 0.960 . S
H1234 C1248 0.960 . S
H1235 C1248 0.960 . S
C1236 H1228 0.929 . S
C1236 C1237 1.377 . S
C1236 C1238 1.384 . S
C1237 C1236 1.377 . S
C1237 C1243 1.390 . S
C1238 H1229 0.930 . S
C1238 C1236 1.384 . S
C1238 C1239 1.372 . S
C1239 C1238 1.372 . S
C1239 C1240 1.400 . S
C1239 C1244 1.490 . S
C1240 H1230 0.930 1_545 S
C1240 C1239 1.400 . S
C1240 C1243 1.386 . S
H1241 C1257 0.930 . S
H1242 C1258 0.931 . S
C1243 H1231 0.929 . S
C1243 C1237 1.390 . S
C1243 C1240 1.386 . S
C1244 C1239 1.490 . S
C1244 C1246 1.395 . S
C1244 C1247 1.403 1_545 S
H1245 C1251 0.930 . S
C1246 H1232 0.930 . S
C1246 C1244 1.395 . S
C1246 C1249 1.403 . S
C1247 C1244 1.403 1_565 S
C1247 C1248 1.524 . S
C1247 C1251 1.400 . S
C1248 H1233 0.960 . S
C1248 H1234 0.960 . S
C1248 H1235 0.960 . S
C1248 C1247 1.524 . S
C1249 C1246 1.403 . S
C1249 C1250 1.392 1_545 S
C1249 C1253 1.495 . S
C1250 C1249 1.392 1_565 S
C1250 C1251 1.385 . S
C1250 C1252 1.478 . S
C1251 H1245 0.930 . S
C1251 C1247 1.400 . S
C1251 C1250 1.385 . S
C1252 C1250 1.478 . S
C1252 C1254 1.381 . S
C1252 C1258 1.383 . S
C1253 C1249 1.495 . S
C1253 H1259 0.959 . S
C1253 H1260 0.961 . S
C1253 H1261 0.960 . S
C1254 C1252 1.381 . S
C1254 C1255 1.394 . S
C1254 H1262 0.930 . S
C1255 C1254 1.394 . S
C1255 C1256 1.383 . S
C1255 H1263 0.929 . S
C1256 C1255 1.383 . S
C1256 C1257 1.377 . S
C1257 H1241 0.930 . S
C1257 C1256 1.377 . S
C1257 C1258 1.379 . S
C1258 H1242 0.931 . S
C1258 C1252 1.383 . S
C1258 C1257 1.379 . S
H1259 C1253 0.959 . S
H1260 C1253 0.961 . S
H1261 C1253 0.960 . S
H1262 C1254 0.930 . S
H1263 C1255 0.929 . S
H1264 C1272 0.929 . S
H1265 C1274 0.930 . S
H1266 C1276 0.930 . S
H1267 C1279 0.929 . S
H1268 C1282 0.930 . S
H1269 C1284 0.960 . S
H1270 C1284 0.960 . S
H1271 C1284 0.960 . S
C1272 H1264 0.929 . S
C1272 C1273 1.377 . S
C1272 C1274 1.384 . S
C1273 C1272 1.377 . S
C1273 C1279 1.390 . S
C1274 H1265 0.930 . S
C1274 C1272 1.384 . S
C1274 C1275 1.372 . S
C1275 C1274 1.372 . S
C1275 C1276 1.400 . S
C1275 C1280 1.490 . S
C1276 H1266 0.930 . S
C1276 C1275 1.400 . S
C1276 C1279 1.386 . S
H1277 C1293 0.930 . S
H1278 C1294 0.931 . S
C1279 H1267 0.929 . S
C1279 C1273 1.390 . S
C1279 C1276 1.386 . S
C1280 C1275 1.490 . S
C1280 C1282 1.395 . S
C1280 C1283 1.403 . S
H1281 C1287 0.930 . S
C1282 H1268 0.930 . S
C1282 C1280 1.395 . S
C1282 C1285 1.403 . S
C1283 C1280 1.403 . S
C1283 C1284 1.524 . S
C1283 C1287 1.400 . S
C1284 H1269 0.960 . S
C1284 H1270 0.960 . S
C1284 H1271 0.960 . S
C1284 C1283 1.524 . S
C1285 C1282 1.403 . S
C1285 C1286 1.392 . S
C1285 C1289 1.495 . S
C1286 C1285 1.392 . S
C1286 C1287 1.385 . S
C1286 C1288 1.478 . S
C1287 H1281 0.930 . S
C1287 C1283 1.400 . S
C1287 C1286 1.385 . S
C1288 C1286 1.478 . S
C1288 C1290 1.381 . S
C1288 C1294 1.383 . S
C1289 C1285 1.495 . S
C1289 H1295 0.959 . S
C1289 H1296 0.961 . S
C1289 H1297 0.960 . S
C1290 C1288 1.381 . S
C1290 C1291 1.394 . S
C1290 H1298 0.930 . S
C1291 C1290 1.394 . S
C1291 C1292 1.383 . S
C1291 H1299 0.929 . S
C1292 C1291 1.383 . S
C1292 C1293 1.377 . S
C1293 H1277 0.930 . S
C1293 C1292 1.377 . S
C1293 C1294 1.379 . S
C1294 H1278 0.931 . S
C1294 C1288 1.383 . S
C1294 C1293 1.379 . S
H1295 C1289 0.959 . S
H1296 C1289 0.961 . S
H1297 C1289 0.960 . S
H1298 C1290 0.930 . S
H1299 C1291 0.929 . S
H1300 C1308 0.929 . S
H1301 C1310 0.930 . S
H1302 C1312 0.930 . S
H1303 C1315 0.929 . S
H1304 C1318 0.930 . S
H1305 C1320 0.960 . S
H1306 C1320 0.960 . S
H1307 C1320 0.960 . S
C1308 H1300 0.929 . S
C1308 C1309 1.377 . S
C1308 C1310 1.384 . S
C1309 C1308 1.377 . S
C1309 C1315 1.390 . S
C1310 H1301 0.930 . S
C1310 C1308 1.384 . S
C1310 C1311 1.372 . S
C1311 C1310 1.372 . S
C1311 C1312 1.400 . S
C1311 C1316 1.490 . S
C1312 H1302 0.930 . S
C1312 C1311 1.400 . S
C1312 C1315 1.386 . S
H1313 C1329 0.930 . S
H1314 C1330 0.931 . S
C1315 H1303 0.929 . S
C1315 C1309 1.390 . S
C1315 C1312 1.386 . S
C1316 C1311 1.490 . S
C1316 C1318 1.395 . S
C1316 C1319 1.403 1_565 S
H1317 C1323 0.930 . S
C1318 H1304 0.930 . S
C1318 C1316 1.395 . S
C1318 C1321 1.403 . S
C1319 C1316 1.403 1_545 S
C1319 C1320 1.524 . S
C1319 C1323 1.400 . S
C1320 H1305 0.960 . S
C1320 H1306 0.960 . S
C1320 H1307 0.960 . S
C1320 C1319 1.524 . S
C1321 C1318 1.403 . S
C1321 C1322 1.392 . S
C1321 C1325 1.495 . S
C1322 C1321 1.392 . S
C1322 C1323 1.385 1_565 S
C1322 C1324 1.478 1_565 S
C1323 H1317 0.930 . S
C1323 C1319 1.400 . S
C1323 C1322 1.385 1_545 S
C1324 C1322 1.478 1_545 S
C1324 C1326 1.381 1_545 S
C1324 C1330 1.383 . S
C1325 C1321 1.495 . S
C1325 H1331 0.959 . S
C1325 H1332 0.961 . S
C1325 H1333 0.960 . S
C1326 C1324 1.381 1_565 S
C1326 C1327 1.394 1_565 S
C1326 H1334 0.930 . S
C1327 C1326 1.394 1_545 S
C1327 C1328 1.383 . S
C1327 H1335 0.929 . S
C1328 C1327 1.383 . S
C1328 C1329 1.377 . S
C1329 H1313 0.930 . S
C1329 C1328 1.377 . S
C1329 C1330 1.379 . S
C1330 H1314 0.931 . S
C1330 C1324 1.383 . S
C1330 C1329 1.379 . S
H1331 C1325 0.959 . S
H1332 C1325 0.961 . S
H1333 C1325 0.960 . S
H1334 C1326 0.930 . S
H1335 C1327 0.929 . S
H1336 C1344 0.929 . S
H1337 C1346 0.930 . S
H1338 C1348 0.930 . S
H1339 C1351 0.929 . S
H1340 C1354 0.930 1_554 S
H1341 C1356 0.960 . S
H1342 C1356 0.960 1_554 S
H1343 C1356 0.960 . S
C1344 H1336 0.929 . S
C1344 C1345 1.377 . S
C1344 C1346 1.384 . S
C1345 C1344 1.377 . S
C1345 C1351 1.390 . S
C1346 H1337 0.930 . S
C1346 C1344 1.384 . S
C1346 C1347 1.372 . S
C1347 C1346 1.372 . S
C1347 C1348 1.400 . S
C1347 C1352 1.490 . S
C1348 H1338 0.930 . S
C1348 C1347 1.400 . S
C1348 C1351 1.386 . S
H1349 C1365 0.930 . S
H1350 C1366 0.931 . S
C1351 H1339 0.929 . S
C1351 C1345 1.390 . S
C1351 C1348 1.386 . S
C1352 C1347 1.490 . S
C1352 C1354 1.395 1_554 S
C1352 C1355 1.403 1_554 S
H1353 C1359 0.930 . S
C1354 H1340 0.930 1_556 S
C1354 C1352 1.395 1_556 S
C1354 C1357 1.403 . S
C1355 C1352 1.403 1_556 S
C1355 C1356 1.524 . S
C1355 C1359 1.400 . S
C1356 H1341 0.960 . S
C1356 H1342 0.960 1_556 S
C1356 H1343 0.960 . S
C1356 C1355 1.524 . S
C1357 C1354 1.403 . S
C1357 C1358 1.392 . S
C1357 C1361 1.495 . S
C1358 C1357 1.392 . S
C1358 C1359 1.385 . S
C1358 C1360 1.478 . S
C1359 H1353 0.930 . S
C1359 C1355 1.400 . S
C1359 C1358 1.385 . S
C1360 C1358 1.478 . S
C1360 C1362 1.381 . S
C1360 C1366 1.383 . S
C1361 C1357 1.495 . S
C1361 H1367 0.959 . S
C1361 H1368 0.961 . S
C1361 H1369 0.960 . S
C1362 C1360 1.381 . S
C1362 C1363 1.394 . S
C1362 H1370 0.930 . S
C1363 C1362 1.394 . S
C1363 C1364 1.383 . S
C1363 H1371 0.929 . S
C1364 C1363 1.383 . S
C1364 C1365 1.377 . S
C1365 H1349 0.930 . S
C1365 C1364 1.377 . S
C1365 C1366 1.379 . S
C1366 H1350 0.931 . S
C1366 C1360 1.383 . S
C1366 C1365 1.379 . S
H1367 C1361 0.959 . S
H1368 C1361 0.961 . S
H1369 C1361 0.960 . S
H1370 C1362 0.930 . S
H1371 C1363 0.929 . S
H1372 C1380 0.929 . S
H1373 C1382 0.930 . S
H1374 C1384 0.930 . S
H1375 C1387 0.929 . S
H1376 C1390 0.930 . S
H1377 C1392 0.960 . S
H1378 C1392 0.960 . S
H1379 C1392 0.960 1_545 S
C1380 H1372 0.929 . S
C1380 C1381 1.377 . S
C1380 C1382 1.384 . S
C1381 C1380 1.377 . S
C1381 C1387 1.390 . S
C1382 H1373 0.930 . S
C1382 C1380 1.384 . S
C1382 C1383 1.372 . S
C1383 C1382 1.372 . S
C1383 C1384 1.400 . S
C1383 C1388 1.490 . S
C1384 H1374 0.930 . S
C1384 C1383 1.400 . S
C1384 C1387 1.386 . S
H1385 C1401 0.930 . S
H1386 C1402 0.931 1_545 S
C1387 H1375 0.929 . S
C1387 C1381 1.390 . S
C1387 C1384 1.386 . S
C1388 C1383 1.490 . S
C1388 C1390 1.395 . S
C1388 C1391 1.403 . S
H1389 C1395 0.930 . S
C1390 H1376 0.930 . S
C1390 C1388 1.395 . S
C1390 C1393 1.403 . S
C1391 C1388 1.403 . S
C1391 C1392 1.524 1_545 S
C1391 C1395 1.400 1_545 S
C1392 H1377 0.960 . S
C1392 H1378 0.960 . S
C1392 H1379 0.960 1_565 S
C1392 C1391 1.524 1_565 S
C1393 C1390 1.403 . S
C1393 C1394 1.376 1_545 S
C1393 C1397 1.495 . S
C1394 C1393 1.376 1_565 S
C1394 C1395 1.390 . S
C1394 C1396 1.490 . S
C1395 H1389 0.930 . S
C1395 C1391 1.400 1_565 S
C1395 C1394 1.390 . S
C1396 C1394 1.490 . S
C1396 C1398 1.381 . S
C1396 C1402 1.383 . S
C1397 C1393 1.495 . S
C1397 H1403 0.959 . S
C1397 H1404 0.961 . S
C1397 H1405 0.960 . S
C1398 C1396 1.381 . S
C1398 C1399 1.394 . S
C1398 H1406 0.930 . S
C1399 C1398 1.394 . S
C1399 C1400 1.383 . S
C1399 H1407 0.929 . S
C1400 C1399 1.383 . S
C1400 C1401 1.377 . S
C1401 H1385 0.930 . S
C1401 C1400 1.377 . S
C1401 C1402 1.379 . S
C1402 H1386 0.931 1_565 S
C1402 C1396 1.383 . S
C1402 C1401 1.379 . S
H1403 C1397 0.959 . S
H1404 C1397 0.961 . S
H1405 C1397 0.960 . S
H1406 C1398 0.930 . S
H1407 C1399 0.929 . S
H1408 C1416 0.929 . S
H1409 C1418 0.930 . S
H1410 C1420 0.930 . S
H1411 C1423 0.929 . S
H1412 C1426 0.930 . S
H1413 C1428 0.960 . S
H1414 C1428 0.960 . S
H1415 C1428 0.960 . S
C1416 H1408 0.929 . S
C1416 C1417 1.377 . S
C1416 C1418 1.384 . S
C1417 C1416 1.377 . S
C1417 C1423 1.390 . S
C1418 H1409 0.930 . S
C1418 C1416 1.384 . S
C1418 C1419 1.372 . S
C1419 C1418 1.372 . S
C1419 C1420 1.400 . S
C1419 C1424 1.490 . S
C1420 H1410 0.930 . S
C1420 C1419 1.400 . S
C1420 C1423 1.386 . S
H1421 C1437 0.930 . S
H1422 C1438 0.931 . S
C1423 H1411 0.929 . S
C1423 C1417 1.390 . S
C1423 C1420 1.386 . S
C1424 C1419 1.490 . S
C1424 C1426 1.395 . S
C1424 C1427 1.403 . S
H1425 C1431 0.930 . S
C1426 H1412 0.930 . S
C1426 C1424 1.395 . S
C1426 C1429 1.403 . S
C1427 C1424 1.403 . S
C1427 C1428 1.524 . S
C1427 C1431 1.400 . S
C1428 H1413 0.960 . S
C1428 H1414 0.960 . S
C1428 H1415 0.960 . S
C1428 C1427 1.524 . S
C1429 C1426 1.403 . S
C1429 C1430 1.392 . S
C1429 C1433 1.495 . S
C1430 C1429 1.392 . S
C1430 C1431 1.385 . S
C1430 C1432 1.478 . S
C1431 H1425 0.930 . S
C1431 C1427 1.400 . S
C1431 C1430 1.385 . S
C1432 C1430 1.478 . S
C1432 C1434 1.381 . S
C1432 C1438 1.383 . S
C1433 C1429 1.495 . S
C1433 H1439 0.959 . S
C1433 H1440 0.961 . S
C1433 H1441 0.960 . S
C1434 C1432 1.381 . S
C1434 C1435 1.394 . S
C1434 H1442 0.930 . S
C1435 C1434 1.394 . S
C1435 C1436 1.383 . S
C1435 H1443 0.929 . S
C1436 C1435 1.383 . S
C1436 C1437 1.377 . S
C1437 H1421 0.930 . S
C1437 C1436 1.377 . S
C1437 C1438 1.379 . S
C1438 H1422 0.931 . S
C1438 C1432 1.383 . S
C1438 C1437 1.379 . S
H1439 C1433 0.959 . S
H1440 C1433 0.961 . S
H1441 C1433 0.960 . S
H1442 C1434 0.930 . S
H1443 C1435 0.929 . S
H1444 C1452 0.929 . S
H1445 C1454 0.930 . S
H1446 C1456 0.930 . S
H1447 C1459 0.929 . S
H1448 C1462 0.930 . S
H1449 C1464 0.960 . S
H1450 C1464 0.960 . S
H1451 C1464 0.960 . S
C1452 H1444 0.929 . S
C1452 C1453 1.377 . S
C1452 C1454 1.384 . S
C1453 C1452 1.377 . S
C1453 C1459 1.390 . S
C1454 H1445 0.930 . S
C1454 C1452 1.384 . S
C1454 C1455 1.372 . S
C1455 C1454 1.372 . S
C1455 C1456 1.400 . S
C1455 C1460 1.490 . S
C1456 H1446 0.930 . S
C1456 C1455 1.400 . S
C1456 C1459 1.386 . S
H1457 C1473 0.930 . S
H1458 C1474 0.931 . S
C1459 H1447 0.929 . S
C1459 C1453 1.390 . S
C1459 C1456 1.386 . S
C1460 C1455 1.490 . S
C1460 C1462 1.395 . S
C1460 C1463 1.403 . S
H1461 C1467 0.930 . S
C1462 H1448 0.930 . S
C1462 C1460 1.395 . S
C1462 C1465 1.403 . S
C1463 C1460 1.403 . S
C1463 C1464 1.524 . S
C1463 C1467 1.400 . S
C1464 H1449 0.960 . S
C1464 H1450 0.960 . S
C1464 H1451 0.960 . S
C1464 C1463 1.524 . S
C1465 C1462 1.403 . S
C1465 C1466 1.392 . S
C1465 C1469 1.495 . S
C1466 C1465 1.392 . S
C1466 C1467 1.385 . S
C1466 C1468 1.478 . S
C1467 H1461 0.930 . S
C1467 C1463 1.400 . S
C1467 C1466 1.385 . S
C1468 C1466 1.478 . S
C1468 C1470 1.381 . S
C1468 C1474 1.383 . S
C1469 C1465 1.495 . S
C1469 H1475 0.959 . S
C1469 H1476 0.961 . S
C1469 H1477 0.960 . S
C1470 C1468 1.381 . S
C1470 C1471 1.394 . S
C1470 H1478 0.930 . S
C1471 C1470 1.394 . S
C1471 C1472 1.383 . S
C1471 H1479 0.929 . S
C1472 C1471 1.383 . S
C1472 C1473 1.377 . S
C1473 H1457 0.930 . S
C1473 C1472 1.377 . S
C1473 C1474 1.379 . S
C1474 H1458 0.931 . S
C1474 C1468 1.383 . S
C1474 C1473 1.379 . S
H1475 C1469 0.959 . S
H1476 C1469 0.961 . S
H1477 C1469 0.960 . S
H1478 C1470 0.930 . S
H1479 C1471 0.929 . S
H1480 C1488 0.929 . S
H1481 C1490 0.930 . S
H1482 C1492 0.930 . S
H1483 C1495 0.929 . S
H1484 C1498 0.930 . S
H1485 C1500 0.960 1_455 S
H1486 C1500 0.960 . S
H1487 C1500 0.960 . S
C1488 H1480 0.929 . S
C1488 C1489 1.377 . S
C1488 C1490 1.384 . S
C1489 C1488 1.377 . S
C1489 C1495 1.390 . S
C1490 H1481 0.930 . S
C1490 C1488 1.384 . S
C1490 C1491 1.372 . S
C1491 C1490 1.372 . S
C1491 C1492 1.400 . S
C1491 C1496 1.490 . S
C1492 H1482 0.930 . S
C1492 C1491 1.400 . S
C1492 C1495 1.386 . S
H1493 C1509 0.930 . S
H1494 C1510 0.931 . S
C1495 H1483 0.929 . S
C1495 C1489 1.390 . S
C1495 C1492 1.386 . S
C1496 C1491 1.490 . S
C1496 C1498 1.395 . S
C1496 C1499 1.403 . S
H1497 C1503 0.930 . S
C1498 H1484 0.930 . S
C1498 C1496 1.395 . S
C1498 C1501 1.382 1_655 S
C1499 C1496 1.403 . S
C1499 C1500 1.524 . S
C1499 C1503 1.400 1_655 S
C1500 H1485 0.960 1_655 S
C1500 H1486 0.960 . S
C1500 H1487 0.960 . S
C1500 C1499 1.524 . S
C1501 C1498 1.382 1_455 S
C1501 C1502 1.412 . S
C1501 C1505 1.496 . S
C1502 C1501 1.412 . S
C1502 C1503 1.385 . S
C1502 C1504 1.478 . S
C1503 H1497 0.930 . S
C1503 C1499 1.400 1_455 S
C1503 C1502 1.385 . S
C1504 C1502 1.478 . S
C1504 C1506 1.381 . S
C1504 C1510 1.383 . S
C1505 C1501 1.496 . S
C1505 H1511 0.959 1_455 S
C1505 H1512 0.961 . S
C1505 H1513 0.960 . S
C1506 C1504 1.381 . S
C1506 C1507 1.394 . S
C1506 H1514 0.930 . S
C1507 C1506 1.394 . S
C1507 C1508 1.383 . S
C1507 H1515 0.929 . S
C1508 C1507 1.383 . S
C1508 C1509 1.377 . S
C1509 H1493 0.930 . S
C1509 C1508 1.377 . S
C1509 C1510 1.379 . S
C1510 H1494 0.931 . S
C1510 C1504 1.383 . S
C1510 C1509 1.379 . S
H1511 C1505 0.959 1_655 S
H1512 C1505 0.961 . S
H1513 C1505 0.960 . S
H1514 C1506 0.930 . S
H1515 C1507 0.929 . S
H1516 C1524 0.929 . S
H1517 C1526 0.930 . S
H1518 C1528 0.930 . S
H1519 C1531 0.929 . S
H1520 C1534 0.930 . S
H1521 C1536 0.960 . S
H1522 C1536 0.960 . S
H1523 C1536 0.960 . S
C1524 H1516 0.929 . S
C1524 C1525 1.377 . S
C1524 C1526 1.384 . S
C1525 C1524 1.377 . S
C1525 C1531 1.390 . S
C1526 H1517 0.930 . S
C1526 C1524 1.384 . S
C1526 C1527 1.372 . S
C1527 C1526 1.372 . S
C1527 C1528 1.400 . S
C1527 C1532 1.490 . S
C1528 H1518 0.930 . S
C1528 C1527 1.400 . S
C1528 C1531 1.386 . S
H1529 C1545 0.930 . S
H1530 C1546 0.931 . S
C1531 H1519 0.929 . S
C1531 C1525 1.390 . S
C1531 C1528 1.386 . S
C1532 C1527 1.490 . S
C1532 C1534 1.395 1_655 S
C1532 C1535 1.403 . S
H1533 C1539 0.930 . S
C1534 H1520 0.930 . S
C1534 C1532 1.395 1_455 S
C1534 C1537 1.403 . S
C1535 C1532 1.403 . S
C1535 C1536 1.524 . S
C1535 C1539 1.400 . S
C1536 H1521 0.960 . S
C1536 H1522 0.960 . S
C1536 H1523 0.960 . S
C1536 C1535 1.524 . S
C1537 C1534 1.403 . S
C1537 C1538 1.392 . S
C1537 C1541 1.495 . S
C1538 C1537 1.392 . S
C1538 C1539 1.385 1_455 S
C1538 C1540 1.478 . S
C1539 H1533 0.930 . S
C1539 C1535 1.400 . S
C1539 C1538 1.385 1_655 S
C1540 C1538 1.478 . S
C1540 C1542 1.381 . S
C1540 C1546 1.383 . S
C1541 C1537 1.495 . S
C1541 H1547 0.959 . S
C1541 H1548 0.961 . S
C1541 H1549 0.960 . S
C1542 C1540 1.381 . S
C1542 C1543 1.394 . S
C1542 H1550 0.930 . S
C1543 C1542 1.394 . S
C1543 C1544 1.383 . S
C1543 H1551 0.929 . S
C1544 C1543 1.383 . S
C1544 C1545 1.377 . S
C1545 H1529 0.930 . S
C1545 C1544 1.377 . S
C1545 C1546 1.379 . S
C1546 H1530 0.931 . S
C1546 C1540 1.383 . S
C1546 C1545 1.379 . S
H1547 C1541 0.959 . S
H1548 C1541 0.961 . S
H1549 C1541 0.960 . S
H1550 C1542 0.930 . S
H1551 C1543 0.929 . S
H1552 C1560 0.929 . S
H1553 C1562 0.930 . S
H1554 C1564 0.930 . S
H1555 C1567 0.929 . S
H1556 C1570 0.930 . S
H1557 C1572 0.960 . S
H1558 C1572 0.960 . S
H1559 C1572 0.960 . S
C1560 H1552 0.929 . S
C1560 C1561 1.377 . S
C1560 C1562 1.384 . S
C1561 C1560 1.377 . S
C1561 C1567 1.390 . S
C1562 H1553 0.930 . S
C1562 C1560 1.384 . S
C1562 C1563 1.372 . S
C1563 C1562 1.372 . S
C1563 C1564 1.400 . S
C1563 C1568 1.490 . S
C1564 H1554 0.930 . S
C1564 C1563 1.400 . S
C1564 C1567 1.386 . S
H1565 C1581 0.930 . S
H1566 C1582 0.931 . S
C1567 H1555 0.929 . S
C1567 C1561 1.390 . S
C1567 C1564 1.386 . S
C1568 C1563 1.490 . S
C1568 C1570 1.395 . S
C1568 C1571 1.403 . S
H1569 C1575 0.930 . S
C1570 H1556 0.930 . S
C1570 C1568 1.395 . S
C1570 C1573 1.403 . S
C1571 C1568 1.403 . S
C1571 C1572 1.524 . S
C1571 C1575 1.400 . S
C1572 H1557 0.960 . S
C1572 H1558 0.960 . S
C1572 H1559 0.960 . S
C1572 C1571 1.524 . S
C1573 C1570 1.403 . S
C1573 C1574 1.392 . S
C1573 C1577 1.495 . S
C1574 C1573 1.392 . S
C1574 C1575 1.385 . S
C1574 C1576 1.478 . S
C1575 H1569 0.930 . S
C1575 C1571 1.400 . S
C1575 C1574 1.385 . S
C1576 C1574 1.478 . S
C1576 C1578 1.381 . S
C1576 C1582 1.383 . S
C1577 C1573 1.495 . S
C1577 H1583 0.959 . S
C1577 H1584 0.961 . S
C1577 H1585 0.960 . S
C1578 C1576 1.381 . S
C1578 C1579 1.394 . S
C1578 H1586 0.930 . S
C1579 C1578 1.394 . S
C1579 C1580 1.383 . S
C1579 H1587 0.929 . S
C1580 C1579 1.383 . S
C1580 C1581 1.377 . S
C1581 H1565 0.930 . S
C1581 C1580 1.377 . S
C1581 C1582 1.379 . S
C1582 H1566 0.931 . S
C1582 C1576 1.383 . S
C1582 C1581 1.379 . S
H1583 C1577 0.959 . S
H1584 C1577 0.961 . S
H1585 C1577 0.960 . S
H1586 C1578 0.930 . S
H1587 C1579 0.929 . S
H1588 C1596 0.929 . S
H1589 C1598 0.930 . S
H1590 C1600 0.930 . S
H1591 C1603 0.929 . S
H1592 C1606 0.930 . S
H1593 C1608 0.960 . S
H1594 C1608 0.960 . S
H1595 C1608 0.960 . S
C1596 H1588 0.929 . S
C1596 C1597 1.377 . S
C1596 C1598 1.384 . S
C1597 C1596 1.377 . S
C1597 C1603 1.390 . S
C1598 H1589 0.930 . S
C1598 C1596 1.384 . S
C1598 C1599 1.372 . S
C1599 C1598 1.372 . S
C1599 C1600 1.400 . S
C1599 C1604 1.490 . S
C1600 H1590 0.930 . S
C1600 C1599 1.400 . S
C1600 C1603 1.386 . S
H1601 C1617 0.930 . S
H1602 C1618 0.931 . S
C1603 H1591 0.929 . S
C1603 C1597 1.390 . S
C1603 C1600 1.386 . S
C1604 C1599 1.490 . S
C1604 C1606 1.395 . S
C1604 C1607 1.403 . S
H1605 C1611 0.930 . S
C1606 H1592 0.930 . S
C1606 C1604 1.395 . S
C1606 C1609 1.403 . S
C1607 C1604 1.403 . S
C1607 C1608 1.524 . S
C1607 C1611 1.400 . S
C1608 H1593 0.960 . S
C1608 H1594 0.960 . S
C1608 H1595 0.960 . S
C1608 C1607 1.524 . S
C1609 C1606 1.403 . S
C1609 C1610 1.392 . S
C1609 C1613 1.495 . S
C1610 C1609 1.392 . S
C1610 C1611 1.385 . S
C1610 C1612 1.478 . S
C1611 H1605 0.930 . S
C1611 C1607 1.400 . S
C1611 C1610 1.385 . S
C1612 C1610 1.478 . S
C1612 C1614 1.381 . S
C1612 C1618 1.383 . S
C1613 C1609 1.495 . S
C1613 H1619 0.959 . S
C1613 H1620 0.961 . S
C1613 H1621 0.960 . S
C1614 C1612 1.381 . S
C1614 C1615 1.394 . S
C1614 H1622 0.930 . S
C1615 C1614 1.394 . S
C1615 C1616 1.383 . S
C1615 H1623 0.929 . S
C1616 C1615 1.383 . S
C1616 C1617 1.377 . S
C1617 H1601 0.930 . S
C1617 C1616 1.377 . S
C1617 C1618 1.379 . S
C1618 H1602 0.931 . S
C1618 C1612 1.383 . S
C1618 C1617 1.379 . S
H1619 C1613 0.959 . S
H1620 C1613 0.961 . S
H1621 C1613 0.960 . S
H1622 C1614 0.930 . S
H1623 C1615 0.929 . S
H1624 C1632 0.929 . S
H1625 C1634 0.930 . S
H1626 C1636 0.930 . S
H1627 C1639 0.929 . S
H1628 C1642 0.930 . S
H1629 C1644 0.960 1_655 S
H1630 C1644 0.960 . S
H1631 C1644 0.960 . S
C1632 H1624 0.929 . S
C1632 C1633 1.377 . S
C1632 C1634 1.384 . S
C1633 C1632 1.377 . S
C1633 C1639 1.390 . S
C1634 H1625 0.930 . S
C1634 C1632 1.384 . S
C1634 C1635 1.372 . S
C1635 C1634 1.372 . S
C1635 C1636 1.400 . S
C1635 C1640 1.490 . S
C1636 H1626 0.930 . S
C1636 C1635 1.400 . S
C1636 C1639 1.386 . S
H1637 C1653 0.930 . S
H1638 C1654 0.931 . S
C1639 H1627 0.929 . S
C1639 C1633 1.390 . S
C1639 C1636 1.386 . S
C1640 C1635 1.490 . S
C1640 C1642 1.395 . S
C1640 C1643 1.403 . S
H1641 C1647 0.930 . S
C1642 H1628 0.930 . S
C1642 C1640 1.395 . S
C1642 C1645 1.384 1_455 S
C1643 C1640 1.403 . S
C1643 C1644 1.524 . S
C1643 C1647 1.400 1_455 S
C1644 H1629 0.960 1_455 S
C1644 H1630 0.960 . S
C1644 H1631 0.960 . S
C1644 C1643 1.524 . S
C1645 C1642 1.384 1_655 S
C1645 C1646 1.411 . S
C1645 C1649 1.496 . S
C1646 C1645 1.411 . S
C1646 C1647 1.385 . S
C1646 C1648 1.478 . S
C1647 H1641 0.930 . S
C1647 C1643 1.400 1_655 S
C1647 C1646 1.385 . S
C1648 C1646 1.478 . S
C1648 C1650 1.381 . S
C1648 C1654 1.383 . S
C1649 C1645 1.496 . S
C1649 H1655 0.959 1_655 S
C1649 H1656 0.961 . S
C1649 H1657 0.960 . S
C1650 C1648 1.381 . S
C1650 C1651 1.394 . S
C1650 H1658 0.930 . S
C1651 C1650 1.394 . S
C1651 C1652 1.383 . S
C1651 H1659 0.929 . S
C1652 C1651 1.383 . S
C1652 C1653 1.377 . S
C1653 H1637 0.930 . S
C1653 C1652 1.377 . S
C1653 C1654 1.379 . S
C1654 H1638 0.931 . S
C1654 C1648 1.383 . S
C1654 C1653 1.379 . S
H1655 C1649 0.959 1_455 S
H1656 C1649 0.961 . S
H1657 C1649 0.960 . S
H1658 C1650 0.930 . S
H1659 C1651 0.929 . S
H1660 C1668 0.929 . S
H1661 C1670 0.930 . S
H1662 C1672 0.930 1_655 S
H1663 C1675 0.929 . S
H1664 C1678 0.930 . S
H1665 C1680 0.965 . S
H1666 C1680 0.951 1_455 S
H1667 C1680 0.965 . S
C1668 H1660 0.929 . S
C1668 C1669 1.377 . S
C1668 C1670 1.384 . S
C1669 C1668 1.377 . S
C1669 C1675 1.390 . S
C1670 H1661 0.930 . S
C1670 C1668 1.384 . S
C1670 C1671 1.372 . S
C1671 C1670 1.372 . S
C1671 C1672 1.400 . S
C1671 C1676 1.490 . S
C1672 H1662 0.930 1_455 S
C1672 C1671 1.400 . S
C1672 C1675 1.386 . S
H1673 C1689 0.930 . S
H1674 C1690 0.931 . S
C1675 H1663 0.929 . S
C1675 C1669 1.390 . S
C1675 C1672 1.386 . S
C1676 C1671 1.490 . S
C1676 C1678 1.395 . S
C1676 C1679 1.416 . S
H1677 C1683 0.930 . S
C1678 H1664 0.930 . S
C1678 C1676 1.395 . S
C1678 C1681 1.403 . S
C1679 C1676 1.416 . S
C1679 C1680 1.523 1_455 S
C1679 C1683 1.388 1_455 S
C1680 H1665 0.965 . S
C1680 H1666 0.951 1_655 S
C1680 H1667 0.965 . S
C1680 C1679 1.523 1_655 S
C1681 C1678 1.403 . S
C1681 C1682 1.392 1_455 S
C1681 C1685 1.495 . S
C1682 C1681 1.392 1_655 S
C1682 C1683 1.385 . S
C1682 C1684 1.478 . S
C1683 H1677 0.930 . S
C1683 C1679 1.388 1_655 S
C1683 C1682 1.385 . S
C1684 C1682 1.478 . S
C1684 C1686 1.381 . S
C1684 C1690 1.383 . S
C1685 C1681 1.495 . S
C1685 H1691 0.959 . S
C1685 H1692 0.961 1_455 S
C1685 H1693 0.960 . S
C1686 C1684 1.381 . S
C1686 C1687 1.394 . S
C1686 H1694 0.930 1_655 S
C1687 C1686 1.394 . S
C1687 C1688 1.383 . S
C1687 H1695 0.929 . S
C1688 C1687 1.383 . S
C1688 C1689 1.377 . S
C1689 H1673 0.930 . S
C1689 C1688 1.377 . S
C1689 C1690 1.379 . S
C1690 H1674 0.931 . S
C1690 C1684 1.383 . S
C1690 C1689 1.379 . S
H1691 C1685 0.959 . S
H1692 C1685 0.961 1_655 S
H1693 C1685 0.960 . S
H1694 C1686 0.930 1_455 S
H1695 C1687 0.929 . S
H1696 C1704 0.929 . S
H1697 C1706 0.930 . S
H1698 C1708 0.930 . S
H1699 C1711 0.929 . S
H1700 C1714 0.930 . S
H1701 C1716 0.960 . S
H1702 C1716 0.960 . S
H1703 C1716 0.960 . S
C1704 H1696 0.929 . S
C1704 C1705 1.377 . S
C1704 C1706 1.384 . S
C1705 C1704 1.377 . S
C1705 C1711 1.390 . S
C1706 H1697 0.930 . S
C1706 C1704 1.384 . S
C1706 C1707 1.372 . S
C1707 C1706 1.372 . S
C1707 C1708 1.400 . S
C1707 C1712 1.490 . S
C1708 H1698 0.930 . S
C1708 C1707 1.400 . S
C1708 C1711 1.386 . S
H1709 C1725 0.930 . S
H1710 C1726 0.931 . S
C1711 H1699 0.929 . S
C1711 C1705 1.390 . S
C1711 C1708 1.386 . S
C1712 C1707 1.490 . S
C1712 C1714 1.395 . S
C1712 C1715 1.403 . S
H1713 C1719 0.930 . S
C1714 H1700 0.930 . S
C1714 C1712 1.395 . S
C1714 C1717 1.403 . S
C1715 C1712 1.403 . S
C1715 C1716 1.524 . S
C1715 C1719 1.400 . S
C1716 H1701 0.960 . S
C1716 H1702 0.960 . S
C1716 H1703 0.960 . S
C1716 C1715 1.524 . S
C1717 C1714 1.403 . S
C1717 C1718 1.392 . S
C1717 C1721 1.495 . S
C1718 C1717 1.392 . S
C1718 C1719 1.385 . S
C1718 C1720 1.478 . S
C1719 H1713 0.930 . S
C1719 C1715 1.400 . S
C1719 C1718 1.385 . S
C1720 C1718 1.478 . S
C1720 C1722 1.381 . S
C1720 C1726 1.383 . S
C1721 C1717 1.495 . S
C1721 H1727 0.959 . S
C1721 H1728 0.961 . S
C1721 H1729 0.960 . S
C1722 C1720 1.381 . S
C1722 C1723 1.394 . S
C1722 H1730 0.930 . S
C1723 C1722 1.394 . S
C1723 C1724 1.383 . S
C1723 H1731 0.929 . S
C1724 C1723 1.383 . S
C1724 C1725 1.377 . S
C1725 H1709 0.930 . S
C1725 C1724 1.377 . S
C1725 C1726 1.379 . S
C1726 H1710 0.931 . S
C1726 C1720 1.383 . S
C1726 C1725 1.379 . S
H1727 C1721 0.959 . S
H1728 C1721 0.961 . S
H1729 C1721 0.960 . S
H1730 C1722 0.930 . S
H1731 C1723 0.929 . S
H1732 C1740 0.929 . S
H1733 C1742 0.930 . S
H1734 C1744 0.930 . S
H1735 C1747 0.929 . S
H1736 C1750 0.930 . S
H1737 C1752 0.960 . S
H1738 C1752 0.960 . S
H1739 C1752 0.960 . S
C1740 H1732 0.929 . S
C1740 C1741 1.377 . S
C1740 C1742 1.384 . S
C1741 C1740 1.377 . S
C1741 C1747 1.390 . S
C1742 H1733 0.930 . S
C1742 C1740 1.384 . S
C1742 C1743 1.372 . S
C1743 C1742 1.372 . S
C1743 C1744 1.400 . S
C1743 C1748 1.490 . S
C1744 H1734 0.930 . S
C1744 C1743 1.400 . S
C1744 C1747 1.386 . S
H1745 C1761 0.930 . S
H1746 C1762 0.931 . S
C1747 H1735 0.929 . S
C1747 C1741 1.390 . S
C1747 C1744 1.386 . S
C1748 C1743 1.490 . S
C1748 C1750 1.395 . S
C1748 C1751 1.403 . S
H1749 C1755 0.930 . S
C1750 H1736 0.930 . S
C1750 C1748 1.395 . S
C1750 C1753 1.403 . S
C1751 C1748 1.403 . S
C1751 C1752 1.524 . S
C1751 C1755 1.400 . S
C1752 H1737 0.960 . S
C1752 H1738 0.960 . S
C1752 H1739 0.960 . S
C1752 C1751 1.524 . S
C1753 C1750 1.403 . S
C1753 C1754 1.392 . S
C1753 C1757 1.495 . S
C1754 C1753 1.392 . S
C1754 C1755 1.385 . S
C1754 C1756 1.478 . S
C1755 H1749 0.930 . S
C1755 C1751 1.400 . S
C1755 C1754 1.385 . S
C1756 C1754 1.478 . S
C1756 C1758 1.381 . S
C1756 C1762 1.383 . S
C1757 C1753 1.495 . S
C1757 H1763 0.959 . S
C1757 H1764 0.961 . S
C1757 H1765 0.960 . S
C1758 C1756 1.381 . S
C1758 C1759 1.394 . S
C1758 H1766 0.930 . S
C1759 C1758 1.394 . S
C1759 C1760 1.383 . S
C1759 H1767 0.929 . S
C1760 C1759 1.383 . S
C1760 C1761 1.377 . S
C1761 H1745 0.930 . S
C1761 C1760 1.377 . S
C1761 C1762 1.379 . S
C1762 H1746 0.931 . S
C1762 C1756 1.383 . S
C1762 C1761 1.379 . S
H1763 C1757 0.959 . S
H1764 C1757 0.961 . S
H1765 C1757 0.960 . S
H1766 C1758 0.930 . S
H1767 C1759 0.929 . S
H1768 C1776 0.929 . S
H1769 C1778 0.930 . S
H1770 C1780 0.930 . S
H1771 C1783 0.929 . S
H1772 C1786 0.930 . S
H1773 C1788 0.960 . S
H1774 C1788 0.960 . S
H1775 C1788 0.960 . S
C1776 H1768 0.929 . S
C1776 C1777 1.377 . S
C1776 C1778 1.384 . S
C1777 C1776 1.377 . S
C1777 C1783 1.390 . S
C1778 H1769 0.930 . S
C1778 C1776 1.384 . S
C1778 C1779 1.372 . S
C1779 C1778 1.372 . S
C1779 C1780 1.400 . S
C1779 C1784 1.490 . S
C1780 H1770 0.930 . S
C1780 C1779 1.400 . S
C1780 C1783 1.386 . S
H1781 C1797 0.930 . S
H1782 C1798 0.931 . S
C1783 H1771 0.929 . S
C1783 C1777 1.390 . S
C1783 C1780 1.386 . S
C1784 C1779 1.490 . S
C1784 C1786 1.395 . S
C1784 C1787 1.403 . S
H1785 C1791 0.930 . S
C1786 H1772 0.930 . S
C1786 C1784 1.395 . S
C1786 C1789 1.403 . S
C1787 C1784 1.403 . S
C1787 C1788 1.524 . S
C1787 C1791 1.400 . S
C1788 H1773 0.960 . S
C1788 H1774 0.960 . S
C1788 H1775 0.960 . S
C1788 C1787 1.524 . S
C1789 C1786 1.403 . S
C1789 C1790 1.392 . S
C1789 C1793 1.495 . S
C1790 C1789 1.392 . S
C1790 C1791 1.385 . S
C1790 C1792 1.478 . S
C1791 H1785 0.930 . S
C1791 C1787 1.400 . S
C1791 C1790 1.385 . S
C1792 C1790 1.478 . S
C1792 C1794 1.381 . S
C1792 C1798 1.383 . S
C1793 C1789 1.495 . S
C1793 H1799 0.959 . S
C1793 H1800 0.961 . S
C1793 H1801 0.960 . S
C1794 C1792 1.381 . S
C1794 C1795 1.394 . S
C1794 H1802 0.930 . S
C1795 C1794 1.394 . S
C1795 C1796 1.383 . S
C1795 H1803 0.929 . S
C1796 C1795 1.383 . S
C1796 C1797 1.377 . S
C1797 H1781 0.930 . S
C1797 C1796 1.377 . S
C1797 C1798 1.379 . S
C1798 H1782 0.931 . S
C1798 C1792 1.383 . S
C1798 C1797 1.379 . S
H1799 C1793 0.959 . S
H1800 C1793 0.961 . S
H1801 C1793 0.960 . S
H1802 C1794 0.930 . S
H1803 C1795 0.929 . S
H1804 C1812 0.929 . S
H1805 C1814 0.930 . S
H1806 C1816 0.930 . S
H1807 C1819 0.929 . S
H1808 C1822 0.930 . S
H1809 C1824 0.960 . S
H1810 C1824 0.960 . S
H1811 C1824 0.960 . S
C1812 H1804 0.929 . S
C1812 C1813 1.377 . S
C1812 C1814 1.384 . S
C1813 C1812 1.377 . S
C1813 C1819 1.390 . S
C1814 H1805 0.930 . S
C1814 C1812 1.384 . S
C1814 C1815 1.372 . S
C1815 C1814 1.372 . S
C1815 C1816 1.400 . S
C1815 C1820 1.490 . S
C1816 H1806 0.930 . S
C1816 C1815 1.400 . S
C1816 C1819 1.386 . S
H1817 C1833 0.930 . S
H1818 C1834 0.931 . S
C1819 H1807 0.929 . S
C1819 C1813 1.390 . S
C1819 C1816 1.386 . S
C1820 C1815 1.490 . S
C1820 C1822 1.395 . S
C1820 C1823 1.403 . S
H1821 C1827 0.930 . S
C1822 H1808 0.930 . S
C1822 C1820 1.395 . S
C1822 C1825 1.403 . S
C1823 C1820 1.403 . S
C1823 C1824 1.524 . S
C1823 C1827 1.400 . S
C1824 H1809 0.960 . S
C1824 H1810 0.960 . S
C1824 H1811 0.960 . S
C1824 C1823 1.524 . S
C1825 C1822 1.403 . S
C1825 C1826 1.392 . S
C1825 C1829 1.495 . S
C1826 C1825 1.392 . S
C1826 C1827 1.385 . S
C1826 C1828 1.478 . S
C1827 H1821 0.930 . S
C1827 C1823 1.400 . S
C1827 C1826 1.385 . S
C1828 C1826 1.478 . S
C1828 C1830 1.381 . S
C1828 C1834 1.383 . S
C1829 C1825 1.495 . S
C1829 H1835 0.959 . S
C1829 H1836 0.961 . S
C1829 H1837 0.960 . S
C1830 C1828 1.381 . S
C1830 C1831 1.394 . S
C1830 H1838 0.930 . S
C1831 C1830 1.394 . S
C1831 C1832 1.383 . S
C1831 H1839 0.929 . S
C1832 C1831 1.383 . S
C1832 C1833 1.377 . S
C1833 H1817 0.930 . S
C1833 C1832 1.377 . S
C1833 C1834 1.379 . S
C1834 H1818 0.931 . S
C1834 C1828 1.383 . S
C1834 C1833 1.379 . S
H1835 C1829 0.959 . S
H1836 C1829 0.961 . S
H1837 C1829 0.960 . S
H1838 C1830 0.930 . S
H1839 C1831 0.929 . S
H1840 C1848 0.929 . S
H1841 C1850 0.930 . S
H1842 C1852 0.930 . S
H1843 C1855 0.929 . S
H1844 C1858 0.930 . S
H1845 C1860 0.960 . S
H1846 C1860 0.960 . S
H1847 C1860 0.960 . S
C1848 H1840 0.929 . S
C1848 C1849 1.377 . S
C1848 C1850 1.384 . S
C1849 C1848 1.377 . S
C1849 C1855 1.390 . S
C1850 H1841 0.930 . S
C1850 C1848 1.384 . S
C1850 C1851 1.372 . S
C1851 C1850 1.372 . S
C1851 C1852 1.400 . S
C1851 C1856 1.490 . S
C1852 H1842 0.930 . S
C1852 C1851 1.400 . S
C1852 C1855 1.386 . S
H1853 C1869 0.930 . S
H1854 C1870 0.931 . S
C1855 H1843 0.929 . S
C1855 C1849 1.390 . S
C1855 C1852 1.386 . S
C1856 C1851 1.490 . S
C1856 C1858 1.395 . S
C1856 C1859 1.403 . S
H1857 C1863 0.930 . S
C1858 H1844 0.930 . S
C1858 C1856 1.395 . S
C1858 C1861 1.403 . S
C1859 C1856 1.403 . S
C1859 C1860 1.524 . S
C1859 C1863 1.400 . S
C1860 H1845 0.960 . S
C1860 H1846 0.960 . S
C1860 H1847 0.960 . S
C1860 C1859 1.524 . S
C1861 C1858 1.403 . S
C1861 C1862 1.392 . S
C1861 C1865 1.495 . S
C1862 C1861 1.392 . S
C1862 C1863 1.385 . S
C1862 C1864 1.478 . S
C1863 H1857 0.930 . S
C1863 C1859 1.400 . S
C1863 C1862 1.385 . S
C1864 C1862 1.478 . S
C1864 C1866 1.381 . S
C1864 C1870 1.383 . S
C1865 C1861 1.495 . S
C1865 H1871 0.959 . S
C1865 H1872 0.961 . S
C1865 H1873 0.960 . S
C1866 C1864 1.381 . S
C1866 C1867 1.394 . S
C1866 H1874 0.930 . S
C1867 C1866 1.394 . S
C1867 C1868 1.383 . S
C1867 H1875 0.929 . S
C1868 C1867 1.383 . S
C1868 C1869 1.377 . S
C1869 H1853 0.930 . S
C1869 C1868 1.377 . S
C1869 C1870 1.379 . S
C1870 H1854 0.931 . S
C1870 C1864 1.383 . S
C1870 C1869 1.379 . S
H1871 C1865 0.959 . S
H1872 C1865 0.961 . S
H1873 C1865 0.960 . S
H1874 C1866 0.930 . S
H1875 C1867 0.929 . S
H1876 C1884 0.929 . S
H1877 C1886 0.930 . S
H1878 C1888 0.930 . S
H1879 C1891 0.929 . S
H1880 C1894 0.930 . S
H1881 C1896 0.960 . S
H1882 C1896 0.960 . S
H1883 C1896 0.960 . S
C1884 H1876 0.929 . S
C1884 C1885 1.377 . S
C1884 C1886 1.384 . S
C1885 C1884 1.377 . S
C1885 C1891 1.390 . S
C1886 H1877 0.930 . S
C1886 C1884 1.384 . S
C1886 C1887 1.372 . S
C1887 C1886 1.372 . S
C1887 C1888 1.400 . S
C1887 C1892 1.490 . S
C1888 H1878 0.930 . S
C1888 C1887 1.400 . S
C1888 C1891 1.386 . S
H1889 C1905 0.930 . S
H1890 C1906 0.931 . S
C1891 H1879 0.929 . S
C1891 C1885 1.390 . S
C1891 C1888 1.386 . S
C1892 C1887 1.490 . S
C1892 C1894 1.395 . S
C1892 C1895 1.403 . S
H1893 C1899 0.930 . S
C1894 H1880 0.930 . S
C1894 C1892 1.395 . S
C1894 C1897 1.403 . S
C1895 C1892 1.403 . S
C1895 C1896 1.524 . S
C1895 C1899 1.400 . S
C1896 H1881 0.960 . S
C1896 H1882 0.960 . S
C1896 H1883 0.960 . S
C1896 C1895 1.524 . S
C1897 C1894 1.403 . S
C1897 C1898 1.392 . S
C1897 C1901 1.495 . S
C1898 C1897 1.392 . S
C1898 C1899 1.385 . S
C1898 C1900 1.478 . S
C1899 H1893 0.930 . S
C1899 C1895 1.400 . S
C1899 C1898 1.385 . S
C1900 C1898 1.478 . S
C1900 C1902 1.381 . S
C1900 C1906 1.383 . S
C1901 C1897 1.495 . S
C1901 H1907 0.959 . S
C1901 H1908 0.961 . S
C1901 H1909 0.960 . S
C1902 C1900 1.381 . S
C1902 C1903 1.394 . S
C1902 H1910 0.930 . S
C1903 C1902 1.394 . S
C1903 C1904 1.383 . S
C1903 H1911 0.929 . S
C1904 C1903 1.383 . S
C1904 C1905 1.377 . S
C1905 H1889 0.930 . S
C1905 C1904 1.377 . S
C1905 C1906 1.379 . S
C1906 H1890 0.931 . S
C1906 C1900 1.383 . S
C1906 C1905 1.379 . S
H1907 C1901 0.959 . S
H1908 C1901 0.961 . S
H1909 C1901 0.960 . S
H1910 C1902 0.930 . S
H1911 C1903 0.929 . S
H1912 C1920 0.929 . S
H1913 C1922 0.930 . S
H1914 C1924 0.930 . S
H1915 C1927 0.929 . S
H1916 C1930 0.930 . S
H1917 C1932 0.960 . S
H1918 C1932 0.960 . S
H1919 C1932 0.960 . S
C1920 H1912 0.929 . S
C1920 C1921 1.377 . S
C1920 C1922 1.384 . S
C1921 C1920 1.377 . S
C1921 C1927 1.390 . S
C1922 H1913 0.930 . S
C1922 C1920 1.384 . S
C1922 C1923 1.372 . S
C1923 C1922 1.372 . S
C1923 C1924 1.400 . S
C1923 C1928 1.490 . S
C1924 H1914 0.930 . S
C1924 C1923 1.400 . S
C1924 C1927 1.386 . S
H1925 C1941 0.930 . S
H1926 C1942 0.931 . S
C1927 H1915 0.929 . S
C1927 C1921 1.390 . S
C1927 C1924 1.386 . S
C1928 C1923 1.490 . S
C1928 C1930 1.395 . S
C1928 C1931 1.403 . S
H1929 C1935 0.930 . S
C1930 H1916 0.930 . S
C1930 C1928 1.395 . S
C1930 C1933 1.403 . S
C1931 C1928 1.403 . S
C1931 C1932 1.524 . S
C1931 C1935 1.400 . S
C1932 H1917 0.960 . S
C1932 H1918 0.960 . S
C1932 H1919 0.960 . S
C1932 C1931 1.524 . S
C1933 C1930 1.403 . S
C1933 C1934 1.392 . S
C1933 C1937 1.495 . S
C1934 C1933 1.392 . S
C1934 C1935 1.385 . S
C1934 C1936 1.478 . S
C1935 H1929 0.930 . S
C1935 C1931 1.400 . S
C1935 C1934 1.385 . S
C1936 C1934 1.478 . S
C1936 C1938 1.381 . S
C1936 C1942 1.383 . S
C1937 C1933 1.495 . S
C1937 H1943 0.959 . S
C1937 H1944 0.961 . S
C1937 H1945 0.960 . S
C1938 C1936 1.381 . S
C1938 C1939 1.394 . S
C1938 H1946 0.930 . S
C1939 C1938 1.394 . S
C1939 C1940 1.383 . S
C1939 H1947 0.929 . S
C1940 C1939 1.383 . S
C1940 C1941 1.377 . S
C1941 H1925 0.930 . S
C1941 C1940 1.377 . S
C1941 C1942 1.379 . S
C1942 H1926 0.931 . S
C1942 C1936 1.383 . S
C1942 C1941 1.379 . S
H1943 C1937 0.959 . S
H1944 C1937 0.961 . S
H1945 C1937 0.960 . S
H1946 C1938 0.930 . S
H1947 C1939 0.929 . S
H1948 C1956 0.929 . S
H1949 C1958 0.930 . S
H1950 C1960 0.930 . S
H1951 C1963 0.929 . S
H1952 C1966 0.930 . S
H1953 C1968 0.960 . S
H1954 C1968 0.960 . S
H1955 C1968 0.960 . S
C1956 H1948 0.929 . S
C1956 C1957 1.377 . S
C1956 C1958 1.384 . S
C1957 C1956 1.377 . S
C1957 C1963 1.390 . S
C1958 H1949 0.930 . S
C1958 C1956 1.384 . S
C1958 C1959 1.372 . S
C1959 C1958 1.372 . S
C1959 C1960 1.400 . S
C1959 C1964 1.490 . S
C1960 H1950 0.930 . S
C1960 C1959 1.400 . S
C1960 C1963 1.386 . S
H1961 C1977 0.930 . S
H1962 C1978 0.931 . S
C1963 H1951 0.929 . S
C1963 C1957 1.390 . S
C1963 C1960 1.386 . S
C1964 C1959 1.490 . S
C1964 C1966 1.395 . S
C1964 C1967 1.403 . S
H1965 C1971 0.930 . S
C1966 H1952 0.930 . S
C1966 C1964 1.395 . S
C1966 C1969 1.403 . S
C1967 C1964 1.403 . S
C1967 C1968 1.524 . S
C1967 C1971 1.400 . S
C1968 H1953 0.960 . S
C1968 H1954 0.960 . S
C1968 H1955 0.960 . S
C1968 C1967 1.524 . S
C1969 C1966 1.403 . S
C1969 C1970 1.392 . S
C1969 C1973 1.495 . S
C1970 C1969 1.392 . S
C1970 C1971 1.385 . S
C1970 C1972 1.478 . S
C1971 H1965 0.930 . S
C1971 C1967 1.400 . S
C1971 C1970 1.385 . S
C1972 C1970 1.478 . S
C1972 C1974 1.381 . S
C1972 C1978 1.383 . S
C1973 C1969 1.495 . S
C1973 H1979 0.959 . S
C1973 H1980 0.961 . S
C1973 H1981 0.960 . S
C1974 C1972 1.381 . S
C1974 C1975 1.394 . S
C1974 H1982 0.930 . S
C1975 C1974 1.394 . S
C1975 C1976 1.383 . S
C1975 H1983 0.929 . S
C1976 C1975 1.383 . S
C1976 C1977 1.377 . S
C1977 H1961 0.930 . S
C1977 C1976 1.377 . S
C1977 C1978 1.379 . S
C1978 H1962 0.931 . S
C1978 C1972 1.383 . S
C1978 C1977 1.379 . S
H1979 C1973 0.959 . S
H1980 C1973 0.961 . S
H1981 C1973 0.960 . S
H1982 C1974 0.930 . S
H1983 C1975 0.929 . S
H1984 C1992 0.929 . S
H1985 C1994 0.930 . S
H1986 C1996 0.930 . S
H1987 C1999 0.929 . S
H1988 C2002 0.930 . S
H1989 C2004 0.960 . S
H1990 C2004 0.960 . S
H1991 C2004 0.960 . S
C1992 H1984 0.929 . S
C1992 C1993 1.377 . S
C1992 C1994 1.384 . S
C1993 C1992 1.377 . S
C1993 C1999 1.390 . S
C1994 H1985 0.930 . S
C1994 C1992 1.384 . S
C1994 C1995 1.372 . S
C1995 C1994 1.372 . S
C1995 C1996 1.400 . S
C1995 C2000 1.490 . S
C1996 H1986 0.930 . S
C1996 C1995 1.400 . S
C1996 C1999 1.386 . S
H1997 C2013 0.930 . S
H1998 C2014 0.931 . S
C1999 H1987 0.929 . S
C1999 C1993 1.390 . S
C1999 C1996 1.386 . S
C2000 C1995 1.490 . S
C2000 C2002 1.395 . S
C2000 C2003 1.403 . S
H2001 C2007 0.930 . S
C2002 H1988 0.930 . S
C2002 C2000 1.395 . S
C2002 C2005 1.403 . S
C2003 C2000 1.403 . S
C2003 C2004 1.524 . S
C2003 C2007 1.400 . S
C2004 H1989 0.960 . S
C2004 H1990 0.960 . S
C2004 H1991 0.960 . S
C2004 C2003 1.524 . S
C2005 C2002 1.403 . S
C2005 C2006 1.392 . S
C2005 C2009 1.495 . S
C2006 C2005 1.392 . S
C2006 C2007 1.385 . S
C2006 C2008 1.478 . S
C2007 H2001 0.930 . S
C2007 C2003 1.400 . S
C2007 C2006 1.385 . S
C2008 C2006 1.478 . S
C2008 C2010 1.381 . S
C2008 C2014 1.383 . S
C2009 C2005 1.495 . S
C2009 H2015 0.959 . S
C2009 H2016 0.961 . S
C2009 H2017 0.960 . S
C2010 C2008 1.381 . S
C2010 C2011 1.394 . S
C2010 H2018 0.930 . S
C2011 C2010 1.394 . S
C2011 C2012 1.383 . S
C2011 H2019 0.929 1_565 S
C2012 C2011 1.383 . S
C2012 C2013 1.377 . S
C2013 H1997 0.930 . S
C2013 C2012 1.377 . S
C2013 C2014 1.379 . S
C2014 H1998 0.931 . S
C2014 C2008 1.383 . S
C2014 C2013 1.379 . S
H2015 C2009 0.959 . S
H2016 C2009 0.961 . S
H2017 C2009 0.960 . S
H2018 C2010 0.930 . S
H2019 C2011 0.929 1_545 S
H2020 C2028 0.929 . S
H2021 C2030 0.930 . S
H2022 C2032 0.930 . S
H2023 C2035 0.929 . S
H2024 C2038 0.930 . S
H2025 C2040 0.960 . S
H2026 C2040 0.960 . S
H2027 C2040 0.960 . S
C2028 H2020 0.929 . S
C2028 C2029 1.377 . S
C2028 C2030 1.384 . S
C2029 C2028 1.377 . S
C2029 C2035 1.390 . S
C2030 H2021 0.930 . S
C2030 C2028 1.384 . S
C2030 C2031 1.372 . S
C2031 C2030 1.372 . S
C2031 C2032 1.400 . S
C2031 C2036 1.490 . S
C2032 H2022 0.930 . S
C2032 C2031 1.400 . S
C2032 C2035 1.386 . S
H2033 C2049 0.930 . S
H2034 C2050 0.931 . S
C2035 H2023 0.929 . S
C2035 C2029 1.390 . S
C2035 C2032 1.386 . S
C2036 C2031 1.490 . S
C2036 C2038 1.395 . S
C2036 C2039 1.403 . S
H2037 C2043 0.930 . S
C2038 H2024 0.930 . S
C2038 C2036 1.395 . S
C2038 C2041 1.403 . S
C2039 C2036 1.403 . S
C2039 C2040 1.524 . S
C2039 C2043 1.400 . S
C2040 H2025 0.960 . S
C2040 H2026 0.960 . S
C2040 H2027 0.960 . S
C2040 C2039 1.524 . S
C2041 C2038 1.403 . S
C2041 C2042 1.392 . S
C2041 C2045 1.495 . S
C2042 C2041 1.392 . S
C2042 C2043 1.385 . S
C2042 C2044 1.478 . S
C2043 H2037 0.930 . S
C2043 C2039 1.400 . S
C2043 C2042 1.385 . S
C2044 C2042 1.478 . S
C2044 C2046 1.381 . S
C2044 C2050 1.383 . S
C2045 C2041 1.495 . S
C2045 H2051 0.959 . S
C2045 H2052 0.961 . S
C2045 H2053 0.960 . S
C2046 C2044 1.381 . S
C2046 C2047 1.394 . S
C2046 H2054 0.930 . S
C2047 C2046 1.394 . S
C2047 C2048 1.383 . S
C2047 H2055 0.929 . S
C2048 C2047 1.383 . S
C2048 C2049 1.377 . S
C2049 H2033 0.930 . S
C2049 C2048 1.377 . S
C2049 C2050 1.379 . S
C2050 H2034 0.931 . S
C2050 C2044 1.383 . S
C2050 C2049 1.379 . S
H2051 C2045 0.959 . S
H2052 C2045 0.961 . S
H2053 C2045 0.960 . S
H2054 C2046 0.930 . S
H2055 C2047 0.929 . S
H2056 C2064 0.929 1_565 S
H2057 C2066 0.930 . S
H2058 C2068 0.930 . S
H2059 C2071 0.929 . S
H2060 C2074 0.930 . S
H2061 C2076 0.960 . S
H2062 C2076 0.960 . S
H2063 C2076 0.960 . S
C2064 H2056 0.929 1_545 S
C2064 C2065 1.377 . S
C2064 C2066 1.384 . S
C2065 C2064 1.377 . S
C2065 C2071 1.390 . S
C2066 H2057 0.930 . S
C2066 C2064 1.384 . S
C2066 C2067 1.372 . S
C2067 C2066 1.372 . S
C2067 C2068 1.400 . S
C2067 C2072 1.490 . S
C2068 H2058 0.930 . S
C2068 C2067 1.400 . S
C2068 C2071 1.386 . S
H2069 C2085 0.930 . S
H2070 C2086 0.931 . S
C2071 H2059 0.929 . S
C2071 C2065 1.390 . S
C2071 C2068 1.386 . S
C2072 C2067 1.490 . S
C2072 C2074 1.395 . S
C2072 C2075 1.403 . S
H2073 C2079 0.930 . S
C2074 H2060 0.930 . S
C2074 C2072 1.395 . S
C2074 C2077 1.403 . S
C2075 C2072 1.403 . S
C2075 C2076 1.524 . S
C2075 C2079 1.400 . S
C2076 H2061 0.960 . S
C2076 H2062 0.960 . S
C2076 H2063 0.960 . S
C2076 C2075 1.524 . S
C2077 C2074 1.403 . S
C2077 C2078 1.392 . S
C2077 C2081 1.495 . S
C2078 C2077 1.392 . S
C2078 C2079 1.385 . S
C2078 C2080 1.478 . S
C2079 H2073 0.930 . S
C2079 C2075 1.400 . S
C2079 C2078 1.385 . S
C2080 C2078 1.478 . S
C2080 C2082 1.381 . S
C2080 C2086 1.383 . S
C2081 C2077 1.495 . S
C2081 H2087 0.959 . S
C2081 H2088 0.961 . S
C2081 H2089 0.960 . S
C2082 C2080 1.381 . S
C2082 C2083 1.394 . S
C2082 H2090 0.930 . S
C2083 C2082 1.394 . S
C2083 C2084 1.383 . S
C2083 H2091 0.929 . S
C2084 C2083 1.383 . S
C2084 C2085 1.377 . S
C2085 H2069 0.930 . S
C2085 C2084 1.377 . S
C2085 C2086 1.379 . S
C2086 H2070 0.931 . S
C2086 C2080 1.383 . S
C2086 C2085 1.379 . S
H2087 C2081 0.959 . S
H2088 C2081 0.961 . S
H2089 C2081 0.960 . S
H2090 C2082 0.930 . S
H2091 C2083 0.929 . S
H2092 C2100 0.929 . S
H2093 C2102 0.930 . S
H2094 C2104 0.930 1_565 S
H2095 C2107 0.929 . S
H2096 C2110 0.930 . S
H2097 C2112 0.960 . S
H2098 C2112 0.960 . S
H2099 C2112 0.960 . S
C2100 H2092 0.929 . S
C2100 C2101 1.377 . S
C2100 C2102 1.384 . S
C2101 C2100 1.377 . S
C2101 C2107 1.390 1_545 S
C2102 H2093 0.930 . S
C2102 C2100 1.384 . S
C2102 C2103 1.372 . S
C2103 C2102 1.372 . S
C2103 C2104 1.400 . S
C2103 C2108 1.490 . S
C2104 H2094 0.930 1_545 S
C2104 C2103 1.400 . S
C2104 C2107 1.386 1_545 S
H2105 C2121 0.930 . S
H2106 C2122 0.931 . S
C2107 H2095 0.929 . S
C2107 C2101 1.390 1_565 S
C2107 C2104 1.386 1_565 S
C2108 C2103 1.490 . S
C2108 C2110 1.395 . S
C2108 C2111 1.403 . S
H2109 C2115 0.930 . S
C2110 H2096 0.930 . S
C2110 C2108 1.395 . S
C2110 C2113 1.403 . S
C2111 C2108 1.403 . S
C2111 C2112 1.524 . S
C2111 C2115 1.400 . S
C2112 H2097 0.960 . S
C2112 H2098 0.960 . S
C2112 H2099 0.960 . S
C2112 C2111 1.524 . S
C2113 C2110 1.403 . S
C2113 C2114 1.392 . S
C2113 C2117 1.495 . S
C2114 C2113 1.392 . S
C2114 C2115 1.385 . S
C2114 C2116 1.478 . S
C2115 H2109 0.930 . S
C2115 C2111 1.400 . S
C2115 C2114 1.385 . S
C2116 C2114 1.478 . S
C2116 C2118 1.381 . S
C2116 C2122 1.383 . S
C2117 C2113 1.495 . S
C2117 H2123 0.959 . S
C2117 H2124 0.961 . S
C2117 H2125 0.960 . S
C2118 C2116 1.381 . S
C2118 C2119 1.394 . S
C2118 H2126 0.930 . S
C2119 C2118 1.394 . S
C2119 C2120 1.383 . S
C2119 H2127 0.929 . S
C2120 C2119 1.383 . S
C2120 C2121 1.377 . S
C2121 H2105 0.930 . S
C2121 C2120 1.377 . S
C2121 C2122 1.379 . S
C2122 H2106 0.931 . S
C2122 C2116 1.383 . S
C2122 C2121 1.379 . S
H2123 C2117 0.959 . S
H2124 C2117 0.961 . S
H2125 C2117 0.960 . S
H2126 C2118 0.930 . S
H2127 C2119 0.929 . S
H2128 C2136 0.929 . S
H2129 C2138 0.930 . S
H2130 C2140 0.930 . S
H2131 C2143 0.929 . S
H2132 C2146 0.930 . S
H2133 C2148 0.960 . S
H2134 C2148 0.960 . S
H2135 C2148 0.960 . S
C2136 H2128 0.929 . S
C2136 C2137 1.377 . S
C2136 C2138 1.384 . S
C2137 C2136 1.377 . S
C2137 C2143 1.390 . S
C2138 H2129 0.930 . S
C2138 C2136 1.384 . S
C2138 C2139 1.372 . S
C2139 C2138 1.372 . S
C2139 C2140 1.400 . S
C2139 C2144 1.490 . S
C2140 H2130 0.930 . S
C2140 C2139 1.400 . S
C2140 C2143 1.386 . S
H2141 C2157 0.930 . S
H2142 C2158 0.931 . S
C2143 H2131 0.929 . S
C2143 C2137 1.390 . S
C2143 C2140 1.386 . S
C2144 C2139 1.490 . S
C2144 C2146 1.395 . S
C2144 C2147 1.403 . S
H2145 C2151 0.930 . S
C2146 H2132 0.930 . S
C2146 C2144 1.395 . S
C2146 C2149 1.403 . S
C2147 C2144 1.403 . S
C2147 C2148 1.524 . S
C2147 C2151 1.400 . S
C2148 H2133 0.960 . S
C2148 H2134 0.960 . S
C2148 H2135 0.960 . S
C2148 C2147 1.524 . S
C2149 C2146 1.403 . S
C2149 C2150 1.392 . S
C2149 C2153 1.495 . S
C2150 C2149 1.392 . S
C2150 C2151 1.385 . S
C2150 C2152 1.478 . S
C2151 H2145 0.930 . S
C2151 C2147 1.400 . S
C2151 C2150 1.385 . S
C2152 C2150 1.478 . S
C2152 C2154 1.381 . S
C2152 C2158 1.383 . S
C2153 C2149 1.495 . S
C2153 H2159 0.959 . S
C2153 H2160 0.961 . S
C2153 H2161 0.960 . S
C2154 C2152 1.381 . S
C2154 C2155 1.394 . S
C2154 H2162 0.930 . S
C2155 C2154 1.394 . S
C2155 C2156 1.383 . S
C2155 H2163 0.929 . S
C2156 C2155 1.383 . S
C2156 C2157 1.377 . S
C2157 H2141 0.930 . S
C2157 C2156 1.377 . S
C2157 C2158 1.379 . S
C2158 H2142 0.931 . S
C2158 C2152 1.383 . S
C2158 C2157 1.379 . S
H2159 C2153 0.959 . S
H2160 C2153 0.961 . S
H2161 C2153 0.960 . S
H2162 C2154 0.930 . S
H2163 C2155 0.929 . S
H2164 C2172 0.929 . S
H2165 C2174 0.930 . S
H2166 C2176 0.930 . S
H2167 C2179 0.929 . S
H2168 C2182 0.930 . S
H2169 C2184 0.960 . S
H2170 C2184 0.960 . S
H2171 C2184 0.960 . S
C2172 H2164 0.929 . S
C2172 C2173 1.377 1_565 S
C2172 C2174 1.384 1_565 S
C2173 C2172 1.377 1_545 S
C2173 C2179 1.390 . S
C2174 H2165 0.930 . S
C2174 C2172 1.384 1_545 S
C2174 C2175 1.372 . S
C2175 C2174 1.372 . S
C2175 C2176 1.400 . S
C2175 C2180 1.490 . S
C2176 H2166 0.930 . S
C2176 C2175 1.400 . S
C2176 C2179 1.386 . S
H2177 C2193 0.930 . S
H2178 C2194 0.931 . S
C2179 H2167 0.929 . S
C2179 C2173 1.390 . S
C2179 C2176 1.386 . S
C2180 C2175 1.490 . S
C2180 C2182 1.395 . S
C2180 C2183 1.403 . S
H2181 C2187 0.930 . S
C2182 H2168 0.930 . S
C2182 C2180 1.395 . S
C2182 C2185 1.403 . S
C2183 C2180 1.403 . S
C2183 C2184 1.524 . S
C2183 C2187 1.400 . S
C2184 H2169 0.960 . S
C2184 H2170 0.960 . S
C2184 H2171 0.960 . S
C2184 C2183 1.524 . S
C2185 C2182 1.403 . S
C2185 C2186 1.392 . S
C2185 C2189 1.495 . S
C2186 C2185 1.392 . S
C2186 C2187 1.385 . S
C2186 C2188 1.478 . S
C2187 H2181 0.930 . S
C2187 C2183 1.400 . S
C2187 C2186 1.385 . S
C2188 C2186 1.478 . S
C2188 C2190 1.381 . S
C2188 C2194 1.383 . S
C2189 C2185 1.495 . S
C2189 H2195 0.959 . S
C2189 H2196 0.961 . S
C2189 H2197 0.960 . S
C2190 C2188 1.381 . S
C2190 C2191 1.394 . S
C2190 H2198 0.930 . S
C2191 C2190 1.394 . S
C2191 C2192 1.383 . S
C2191 H2199 0.929 . S
C2192 C2191 1.383 . S
C2192 C2193 1.377 . S
C2193 H2177 0.930 . S
C2193 C2192 1.377 . S
C2193 C2194 1.379 . S
C2194 H2178 0.931 . S
C2194 C2188 1.383 . S
C2194 C2193 1.379 . S
H2195 C2189 0.959 . S
H2196 C2189 0.961 . S
H2197 C2189 0.960 . S
H2198 C2190 0.930 . S
H2199 C2191 0.929 . S
H2200 C2208 0.929 1_545 S
H2201 C2210 0.930 . S
H2202 C2212 0.930 . S
H2203 C2215 0.929 . S
H2204 C2218 0.930 . S
H2205 C2220 0.960 . S
H2206 C2220 0.960 . S
H2207 C2220 0.960 . S
C2208 H2200 0.929 1_565 S
C2208 C2209 1.377 . S
C2208 C2210 1.384 . S
C2209 C2208 1.377 . S
C2209 C2215 1.390 . S
C2210 H2201 0.930 . S
C2210 C2208 1.384 . S
C2210 C2211 1.372 . S
C2211 C2210 1.372 . S
C2211 C2212 1.400 . S
C2211 C2216 1.490 . S
C2212 H2202 0.930 . S
C2212 C2211 1.400 . S
C2212 C2215 1.386 . S
H2213 C2229 0.930 . S
H2214 C2230 0.931 . S
C2215 H2203 0.929 . S
C2215 C2209 1.390 . S
C2215 C2212 1.386 . S
C2216 C2211 1.490 . S
C2216 C2218 1.395 . S
C2216 C2219 1.403 . S
H2217 C2223 0.930 . S
C2218 H2204 0.930 . S
C2218 C2216 1.395 . S
C2218 C2221 1.403 . S
C2219 C2216 1.403 . S
C2219 C2220 1.524 . S
C2219 C2223 1.400 . S
C2220 H2205 0.960 . S
C2220 H2206 0.960 . S
C2220 H2207 0.960 . S
C2220 C2219 1.524 . S
C2221 C2218 1.403 . S
C2221 C2222 1.392 . S
C2221 C2225 1.495 . S
C2222 C2221 1.392 . S
C2222 C2223 1.385 . S
C2222 C2224 1.478 . S
C2223 H2217 0.930 . S
C2223 C2219 1.400 . S
C2223 C2222 1.385 . S
C2224 C2222 1.478 . S
C2224 C2226 1.381 . S
C2224 C2230 1.383 . S
C2225 C2221 1.495 . S
C2225 H2231 0.959 . S
C2225 H2232 0.961 . S
C2225 H2233 0.960 . S
C2226 C2224 1.381 . S
C2226 C2227 1.394 . S
C2226 H2234 0.930 . S
C2227 C2226 1.394 . S
C2227 C2228 1.383 . S
C2227 H2235 0.929 . S
C2228 C2227 1.383 . S
C2228 C2229 1.377 . S
C2229 H2213 0.930 . S
C2229 C2228 1.377 . S
C2229 C2230 1.379 . S
C2230 H2214 0.931 . S
C2230 C2224 1.383 . S
C2230 C2229 1.379 . S
H2231 C2225 0.959 . S
H2232 C2225 0.961 . S
H2233 C2225 0.960 . S
H2234 C2226 0.930 . S
H2235 C2227 0.929 . S
H2236 C2244 0.929 . S
H2237 C2246 0.930 . S
H2238 C2248 0.930 . S
H2239 C2251 0.929 . S
H2240 C2254 0.930 . S
H2241 C2256 0.960 . S
H2242 C2256 0.960 . S
H2243 C2256 0.960 . S
C2244 H2236 0.929 . S
C2244 C2245 1.377 . S
C2244 C2246 1.384 . S
C2245 C2244 1.377 . S
C2245 C2251 1.390 . S
C2246 H2237 0.930 . S
C2246 C2244 1.384 . S
C2246 C2247 1.372 . S
C2247 C2246 1.372 . S
C2247 C2248 1.400 . S
C2247 C2252 1.490 . S
C2248 H2238 0.930 . S
C2248 C2247 1.400 . S
C2248 C2251 1.386 . S
H2249 C2265 0.930 . S
H2250 C2266 0.931 . S
C2251 H2239 0.929 . S
C2251 C2245 1.390 . S
C2251 C2248 1.386 . S
C2252 C2247 1.490 . S
C2252 C2254 1.395 . S
C2252 C2255 1.403 . S
H2253 C2259 0.930 . S
C2254 H2240 0.930 . S
C2254 C2252 1.395 . S
C2254 C2257 1.403 . S
C2255 C2252 1.403 . S
C2255 C2256 1.524 . S
C2255 C2259 1.400 . S
C2256 H2241 0.960 . S
C2256 H2242 0.960 . S
C2256 H2243 0.960 . S
C2256 C2255 1.524 . S
C2257 C2254 1.403 . S
C2257 C2258 1.392 . S
C2257 C2261 1.495 . S
C2258 C2257 1.392 . S
C2258 C2259 1.385 . S
C2258 C2260 1.478 . S
C2259 H2253 0.930 . S
C2259 C2255 1.400 . S
C2259 C2258 1.385 . S
C2260 C2258 1.478 . S
C2260 C2262 1.381 . S
C2260 C2266 1.383 . S
C2261 C2257 1.495 . S
C2261 H2267 0.959 . S
C2261 H2268 0.961 . S
C2261 H2269 0.960 . S
C2262 C2260 1.381 . S
C2262 C2263 1.394 . S
C2262 H2270 0.930 . S
C2263 C2262 1.394 . S
C2263 C2264 1.383 . S
C2263 H2271 0.940 . S
C2264 C2263 1.383 . S
C2264 C2265 1.377 . S
C2265 H2249 0.930 . S
C2265 C2264 1.377 . S
C2265 C2266 1.379 . S
C2266 H2250 0.931 . S
C2266 C2260 1.383 . S
C2266 C2265 1.379 . S
H2267 C2261 0.959 . S
H2268 C2261 0.961 . S
H2269 C2261 0.960 . S
H2270 C2262 0.930 . S
H2271 C2263 0.940 . S
C553 C29 1.134 . S
C572 C408 1.132 . S
C589 C170 1.145 . S
C608 C63 1.165 . S
C625 C97 1.139 . S
C644 C476 1.111 . S
C661 C131 1.137 . S
C680 C238 1.156 . S
C697 C136 1.145 . S
C716 C301 1.131 . S
C733 C369 1.144 . S
C752 C204 1.129 . S
C769 C442 1.134 . S
C788 C335 1.129 . S
C805 C403 1.140 . S
C824 C510 1.113 . S
C841 C319 1.360 . S
C860 C0 1.400 . S
C877 C34 1.380 . S
C896 C353 1.388 . S
C913 C68 1.386 . S
C932 C387 1.366 . S
C949 C285 1.368 . S
C968 C102 1.356 . S
C985 C446 1.356 . S
C1004 C165 1.362 . S
C1021 C480 1.357 . S
C1040 C199 1.355 . S
C1057 C233 1.385 . S
C1076 C514 1.379 . S
C1093 C412 1.355 . S
C1112 C267 1.362 . S
C1129 C272 1.382 . S
C1148 C47 1.367 . S
C1165 C306 1.381 . S
C1184 C81 1.378 . S
C1201 C340 1.379 . S
C1220 C115 1.390 . S
C1237 C13 1.367 . S
C1256 C374 1.369 . S
C1273 C174 1.355 . S
C1292 C437 1.363 . S
C1309 C471 1.389 . S
C1328 C208 1.392 . S
C1345 C242 1.368 . S
C1364 C505 1.409 . S
C1381 C539 1.381 . S
C1400 C140 1.355 . S
C1417 C17 1.812 . S
C1436 C357 1.811 . S
C1453 C51 1.813 . S
C1472 C391 1.813 . S
C1489 C289 1.811 . S
C1508 C85 1.804 . S
C1525 C119 1.811 . S
C1544 C323 1.803 . S
C1561 C144 1.812 . S
C1580 C484 1.812 . S
C1597 C178 1.811 . S
C1616 C518 1.806 . S
C1633 C416 1.812 . S
C1652 C212 1.803 . S
C1669 C246 1.811 . S
C1688 C450 1.810 . S
C1705 C4 1.086 . S
C1724 C255 1.120 . S
C1741 C425 1.122 . S
C1760 C38 1.110 . S
C1777 C72 1.087 . S
C1796 C187 1.124 . S
C1813 C106 1.073 . S
C1832 C493 1.121 . S
C1849 C149 1.072 . S
C1868 C110 1.116 . S
C1885 C280 1.123 . S
C1904 C183 1.083 . S
C1921 C217 1.087 . S
C1940 C42 1.124 . S
C1957 C348 1.121 . S
C1976 C251 1.061 . S
C1993 C276 1.071 . S
C2012 C527 1.116 1_565 S
C2029 C153 1.123 . S
C2048 C310 1.069 1_565 S
C2065 C459 1.121 1_545 S
C2084 C344 1.056 . S
C2101 C378 1.083 1_545 S
C2120 C221 1.126 . S
C2137 C421 1.074 . S
C2156 C382 1.123 1_545 S
C2173 C455 1.087 1_545 S
C2192 C8 1.121 . S
C2209 C314 1.123 1_565 S
C2228 C489 1.102 . S
C2245 C76 1.122 . S
C2264 C523 1.092 1_565 S
