# Generated by pormake.
# Topology crs, (6)-cn, num edge types: 1
# Building blocks:
#     Node 0, Type 0, BuildingBlock: INOVEN_clean_sbu_0, # of connection points: 6
#     Node 1, Type 0, BuildingBlock: INOVEN_clean_sbu_0, # of connection points: 6
#     Node 2, Type 0, BuildingBlock: INOVEN_clean_sbu_0, # of connection points: 6
#     Node 3, Type 0, BuildingBlock: INOVEN_clean_sbu_0, # of connection points: 6
#     Node 4, Type 0, BuildingBlock: INOVEN_clean_sbu_0, # of connection points: 6
#     Node 5, Type 0, BuildingBlock: INOVEN_clean_sbu_0, # of connection points: 6
#     Node 6, Type 0, BuildingBlock: INOVEN_clean_sbu_0, # of connection points: 6
#     Node 7, Type 0, BuildingBlock: INOVEN_clean_sbu_0, # of connection points: 6
#     Node 8, Type 0, BuildingBlock: INOVEN_clean_sbu_0, # of connection points: 6
#     Node 9, Type 0, BuildingBlock: INOVEN_clean_sbu_0, # of connection points: 6
#     Node 10, Type 0, BuildingBlock: INOVEN_clean_sbu_0, # of connection points: 6
#     Node 11, Type 0, BuildingBlock: INOVEN_clean_sbu_0, # of connection points: 6
#     Node 12, Type 0, BuildingBlock: INOVEN_clean_sbu_0, # of connection points: 6
#     Node 13, Type 0, BuildingBlock: INOVEN_clean_sbu_0, # of connection points: 6
#     Node 14, Type 0, BuildingBlock: INOVEN_clean_sbu_0, # of connection points: 6
#     Node 15, Type 0, BuildingBlock: INOVEN_clean_sbu_0, # of connection points: 6
#     Edge 16, Type (0, 0), BuildingBlock: UVAHIK_clean_linker_0, # of connection points: 2
#     Edge 17, Type (0, 0), BuildingBlock: UVAHIK_clean_linker_0, # of connection points: 2
#     Edge 18, Type (0, 0), BuildingBlock: UVAHIK_clean_linker_0, # of connection points: 2
#     Edge 19, Type (0, 0), BuildingBlock: UVAHIK_clean_linker_0, # of connection points: 2
#     Edge 20, Type (0, 0), BuildingBlock: UVAHIK_clean_linker_0, # of connection points: 2
#     Edge 21, Type (0, 0), BuildingBlock: UVAHIK_clean_linker_0, # of connection points: 2
#     Edge 22, Type (0, 0), BuildingBlock: UVAHIK_clean_linker_0, # of connection points: 2
#     Edge 23, Type (0, 0), BuildingBlock: UVAHIK_clean_linker_0, # of connection points: 2
#     Edge 24, Type (0, 0), BuildingBlock: UVAHIK_clean_linker_0, # of connection points: 2
#     Edge 25, Type (0, 0), BuildingBlock: UVAHIK_clean_linker_0, # of connection points: 2
#     Edge 26, Type (0, 0), BuildingBlock: UVAHIK_clean_linker_0, # of connection points: 2
#     Edge 27, Type (0, 0), BuildingBlock: UVAHIK_clean_linker_0, # of connection points: 2
#     Edge 28, Type (0, 0), BuildingBlock: UVAHIK_clean_linker_0, # of connection points: 2
#     Edge 29, Type (0, 0), BuildingBlock: UVAHIK_clean_linker_0, # of connection points: 2
#     Edge 30, Type (0, 0), BuildingBlock: UVAHIK_clean_linker_0, # of connection points: 2
#     Edge 31, Type (0, 0), BuildingBlock: UVAHIK_clean_linker_0, # of connection points: 2
#     Edge 32, Type (0, 0), BuildingBlock: UVAHIK_clean_linker_0, # of connection points: 2
#     Edge 33, Type (0, 0), BuildingBlock: UVAHIK_clean_linker_0, # of connection points: 2
#     Edge 34, Type (0, 0), BuildingBlock: UVAHIK_clean_linker_0, # of connection points: 2
#     Edge 35, Type (0, 0), BuildingBlock: UVAHIK_clean_linker_0, # of connection points: 2
#     Edge 36, Type (0, 0), BuildingBlock: UVAHIK_clean_linker_0, # of connection points: 2
#     Edge 37, Type (0, 0), BuildingBlock: UVAHIK_clean_linker_0, # of connection points: 2
#     Edge 38, Type (0, 0), BuildingBlock: UVAHIK_clean_linker_0, # of connection points: 2
#     Edge 39, Type (0, 0), BuildingBlock: UVAHIK_clean_linker_0, # of connection points: 2
#     Edge 40, Type (0, 0), BuildingBlock: UVAHIK_clean_linker_0, # of connection points: 2
#     Edge 41, Type (0, 0), BuildingBlock: UVAHIK_clean_linker_0, # of connection points: 2
#     Edge 42, Type (0, 0), BuildingBlock: UVAHIK_clean_linker_0, # of connection points: 2
#     Edge 43, Type (0, 0), BuildingBlock: UVAHIK_clean_linker_0, # of connection points: 2
#     Edge 44, Type (0, 0), BuildingBlock: UVAHIK_clean_linker_0, # of connection points: 2
#     Edge 45, Type (0, 0), BuildingBlock: UVAHIK_clean_linker_0, # of connection points: 2
#     Edge 46, Type (0, 0), BuildingBlock: UVAHIK_clean_linker_0, # of connection points: 2
#     Edge 47, Type (0, 0), BuildingBlock: UVAHIK_clean_linker_0, # of connection points: 2
#     Edge 48, Type (0, 0), BuildingBlock: UVAHIK_clean_linker_0, # of connection points: 2
#     Edge 49, Type (0, 0), BuildingBlock: UVAHIK_clean_linker_0, # of connection points: 2
#     Edge 50, Type (0, 0), BuildingBlock: UVAHIK_clean_linker_0, # of connection points: 2
#     Edge 51, Type (0, 0), BuildingBlock: UVAHIK_clean_linker_0, # of connection points: 2
#     Edge 52, Type (0, 0), BuildingBlock: UVAHIK_clean_linker_0, # of connection points: 2
#     Edge 53, Type (0, 0), BuildingBlock: UVAHIK_clean_linker_0, # of connection points: 2
#     Edge 54, Type (0, 0), BuildingBlock: UVAHIK_clean_linker_0, # of connection points: 2
#     Edge 55, Type (0, 0), BuildingBlock: UVAHIK_clean_linker_0, # of connection points: 2
#     Edge 56, Type (0, 0), BuildingBlock: UVAHIK_clean_linker_0, # of connection points: 2
#     Edge 57, Type (0, 0), BuildingBlock: UVAHIK_clean_linker_0, # of connection points: 2
#     Edge 58, Type (0, 0), BuildingBlock: UVAHIK_clean_linker_0, # of connection points: 2
#     Edge 59, Type (0, 0), BuildingBlock: UVAHIK_clean_linker_0, # of connection points: 2
#     Edge 60, Type (0, 0), BuildingBlock: UVAHIK_clean_linker_0, # of connection points: 2
#     Edge 61, Type (0, 0), BuildingBlock: UVAHIK_clean_linker_0, # of connection points: 2
#     Edge 62, Type (0, 0), BuildingBlock: UVAHIK_clean_linker_0, # of connection points: 2
#     Edge 63, Type (0, 0), BuildingBlock: UVAHIK_clean_linker_0, # of connection points: 2
# Relax obj value: 0.361
# Max RMSD: 0.328
# Mean RMSD: 0.274
data_MOF--net-crs--node1-INOVEN_clean_sbu_0--edge1-UVAHIK_clean_linker_0
_symmetry_space_group_name_H-M    P1
_symmetry_Int_Tables_number       1
_symmetry_cell_setting            triclinic
loop_
_symmetry_equiv_pos_as_xyz
'x, y, z'
_cell_length_a     65.748465
_cell_length_b     66.466996
_cell_length_c     57.766327
_cell_angle_alpha  77.533844
_cell_angle_beta   79.254467
_cell_angle_gamma 69.064581
loop_
_atom_site_label
_atom_site_type_symbol
_atom_site_fract_x
_atom_site_fract_y
_atom_site_fract_z
_atom_type_partial_charge
Gd0 Gd 0.96783 0.99248 0.04111 0.0
Gd1 Gd 0.01098 0.99351 1.00935 0.0
C2 C 0.00143 0.94937 0.01825 0.0
C3 C 0.93185 0.9846 0.05672 0.0
C4 C 0.92431 0.96855 0.04968 0.0
C5 C 0.9328 0.94618 0.05895 0.0
C6 C 0.91156 0.97495 0.0307 0.0
C7 C 0.91953 0.93698 0.02748 0.0
C8 C 0.90929 0.95929 0.01967 0.0
C9 C 0.93039 0.93053 0.04795 0.0
C10 C 0.00062 0.98931 0.06474 0.0
C11 C 0.97721 0.03694 0.03153 0.0
C12 C 0.04686 1.00102 0.99155 0.0
C13 C 0.05429 0.01873 0.99401 0.0
C14 C 0.06269 0.03043 0.97369 0.0
C15 C 0.05011 0.02605 0.01601 0.0
C16 C 0.06175 0.05714 0.99721 0.0
C17 C 0.05411 0.04485 0.0177 0.0
C18 C 0.06628 0.04955 0.97522 0.0
C19 C 0.97813 0.99648 0.98591 0.0
O20 O 0.98132 0.96062 0.02664 0.0
O21 O 0.01752 0.9577 0.0132 0.0
O22 O 0.94894 0.97644 0.06862 0.0
O23 O 0.93299 1.00117 0.04001 0.0
O24 O 0.98003 0.99849 0.07192 0.0
O25 O 0.00258 0.98059 0.04673 0.0
O26 O -0.0028 0.02605 0.02243 0.0
O27 O 0.96143 0.0282 0.03786 0.0
O28 O 0.02987 0.00743 0.97974 0.0
O29 O 0.04548 0.98671 0.01086 0.0
O30 O -0.00133 0.98688 0.97899 0.0
O31 O 0.97621 0.00541 1.00374 0.0
H32 H 0.94251 0.94065 0.07374 0.0
H33 H 0.90438 0.99204 0.02346 0.0
H34 H 0.90001 0.96461 1.0046 0.0
H35 H 0.93825 0.91341 0.05455 0.0
H36 H 0.06556 0.0253 0.95645 0.0
H37 H 0.04295 0.01773 0.03175 0.0
H38 H 0.05079 0.04991 0.03501 0.0
H39 H 0.07182 0.05877 0.95898 0.0
Gd40 Gd 0.00019 0.27003 0.26968 0.0
Gd41 Gd 0.98879 0.23687 0.25162 0.0
C42 C 0.97046 0.24312 0.30501 0.0
C43 C 0.00045 0.30297 0.2866 0.0
C44 C 0.00174 0.30947 0.30886 0.0
C45 C -0.00544 0.29953 0.33135 0.0
C46 C 0.01066 0.32599 0.30736 0.0
C47 C 0.00529 0.32279 0.35064 0.0
C48 C 0.01242 0.33261 0.328 0.0
C49 C -0.00377 0.30622 0.35213 0.0
C50 C 0.03095 0.22979 0.27407 0.0
C51 C 0.01859 0.26346 0.21627 0.0
C52 C 0.98767 0.20504 0.23326 0.0
C53 C 0.98749 0.19929 0.20994 0.0
C54 C 0.96757 0.20059 0.2031 0.0
C55 C 0.0071 0.19074 0.1953 0.0
C56 C 0.98689 0.18401 0.1681 0.0
C57 C 0.00679 0.1832 0.17458 0.0
C58 C 0.96726 0.19314 0.18239 0.0
C59 C 0.95837 0.27742 0.24754 0.0
O60 O 0.97591 0.26106 0.29992 0.0
O61 O 0.97736 0.22867 0.29036 0.0
O62 O 0.01817 0.28875 0.27788 0.0
O63 O 0.98244 0.29962 0.28467 0.0
O64 O 0.03521 0.24788 0.26981 0.0
O65 O 0.01049 0.23362 0.27792 0.0
O66 O 0.01329 0.24546 0.22153 0.0
O67 O 0.01156 0.27802 0.2308 0.0
O68 O 0.97015 0.21995 0.24129 0.0
O69 O 0.00584 0.20655 0.23772 0.0
O70 O 0.95373 0.25951 0.25261 0.0
O71 O 0.97884 0.27313 0.24327 0.0
H72 H 0.98772 0.28663 0.33283 0.0
H73 H 0.01625 0.33386 0.29013 0.0
H74 H 0.01907 0.34568 0.32619 0.0
H75 H 0.9907 0.2983 0.36932 0.0
H76 H 0.9522 0.20679 0.21416 0.0
H77 H 0.02275 0.18937 0.20011 0.0
H78 H 0.02218 0.17641 0.16383 0.0
H79 H 0.95169 0.19368 0.17814 0.0
Gd80 Gd 0.7365 0.24237 0.49585 0.0
Gd81 Gd 0.75047 0.27234 0.52477 0.0
C82 C 0.70197 0.26858 0.53751 0.0
C83 C 0.72691 0.21065 0.48728 0.0
C84 C 0.71402 0.19726 0.50153 0.0
C85 C 0.71357 0.17908 0.49344 0.0
C86 C 0.70113 0.20333 0.52277 0.0
C87 C 0.68645 0.17387 0.52713 0.0
C88 C 0.68758 0.19169 0.53555 0.0
C89 C 0.69985 0.16745 0.50613 0.0
C90 C 0.73242 0.28336 0.4708 0.0
C91 C 0.78506 0.24612 0.48321 0.0
C92 C 0.76036 0.30383 0.5335 0.0
C93 C 0.77385 0.31665 0.51939 0.0
C94 C 0.77622 0.33352 0.52836 0.0
C95 C 0.78585 0.3109 0.49765 0.0
C96 C 0.8036 0.3378 0.49462 0.0
C97 C 0.80053 0.32141 0.48531 0.0
C98 C 0.79099 0.34407 0.51605 0.0
C99 C 0.75455 0.23129 0.54967 0.0
O100 O 0.70776 0.25318 0.52392 0.0
O101 O 0.71476 0.27974 0.53896 0.0
O102 O 0.71548 0.23125 0.481 0.0
O103 O 0.74558 0.20784 0.49477 0.0
O104 O 0.72794 0.26867 0.46297 0.0
O105 O 0.73841 0.27501 0.49118 0.0
O106 O 0.77928 0.26147 0.49685 0.0
O107 O 0.77224 0.23502 0.48168 0.0
O108 O 0.77135 0.28318 0.5402 0.0
O109 O 0.74184 0.30689 0.52555 0.0
O110 O 0.75907 0.2459 0.55761 0.0
O111 O 0.74853 0.23977 0.52935 0.0
H112 H 0.72333 0.17425 0.477 0.0
H113 H 0.70126 0.21729 0.52933 0.0
H114 H 0.67768 0.19689 0.55178 0.0
H115 H 0.69911 0.154 0.49895 0.0
H116 H 0.76721 0.33803 0.54523 0.0
H117 H 0.78429 0.29792 0.49044 0.0
H118 H 0.80982 0.31639 0.46875 0.0
H119 H 0.79323 0.35645 0.52384 0.0
Gd120 Gd 0.72728 1.0035 0.75099 0.0
Gd121 Gd 0.76138 0.01297 0.7694 0.0
C122 C 0.75228 0.03589 0.71666 0.0
C123 C 0.69367 1.00442 0.73303 0.0
C124 C 0.68591 0.00735 0.70981 0.0
C125 C 0.6792 0.99099 0.7052 0.0
C126 C 0.68416 0.02631 0.69272 0.0
C127 C 0.66803 0.01276 0.66725 0.0
C128 C 0.6752 0.02902 0.67162 0.0
C129 C 0.67041 0.99361 0.68416 0.0
C130 C 0.76743 0.97281 0.74635 0.0
C131 C 0.73708 0.98045 0.80366 0.0
C132 C 0.79429 0.01285 0.78796 0.0
C133 C 0.80304 0.00622 0.81106 0.0
C134 C 0.80958 0.02105 0.81921 0.0
C135 C 0.80513 0.98558 0.82496 0.0
C136 C 0.82093 0.99462 0.8546 0.0
C137 C 0.81412 0.97978 0.84656 0.0
C138 C 0.81841 0.01535 0.84075 0.0
C139 C 0.72104 0.04353 0.77344 0.0
O140 O 0.73493 0.02935 0.72103 0.0
O141 O 0.76726 0.02865 0.73155 0.0
O142 O 0.70987 0.98656 0.73851 0.0
O143 O 0.69516 0.02146 0.73957 0.0
O144 O 0.74914 0.96874 0.75128 0.0
O145 O 0.76375 0.99319 0.74244 0.0
O146 O 0.75481 0.98633 0.79843 0.0
O147 O 0.72149 0.98836 0.78942 0.0
O148 O 0.77597 0.02924 0.78684 0.0
O149 O 0.79514 0.99743 0.77668 0.0
O150 O 0.73921 0.04782 0.76755 0.0
O151 O 0.72495 0.02312 0.77798 0.0
H152 H 0.68028 0.9763 0.71819 0.0
H153 H 0.68932 0.03917 0.69581 0.0
H154 H 0.67365 0.0439 0.65887 0.0
H155 H 0.66465 0.98096 0.68163 0.0
H156 H 0.80813 0.03702 0.80871 0.0
H157 H 0.80003 0.97391 0.81905 0.0
H158 H 0.81584 0.96372 0.8569 0.0
H159 H 0.82391 0.02698 0.84619 0.0
Gd160 Gd 0.4963 0.77294 0.26808 0.0
Gd161 Gd 0.48729 0.73908 0.24883 0.0
C162 C 0.46607 0.7458 0.30129 0.0
C163 C 0.4947 0.80527 0.28749 0.0
C164 C 0.49202 0.81148 0.3113 0.0
C165 C 0.51012 0.80536 0.32407 0.0
C166 C 0.4717 0.8252 0.32054 0.0
C167 C 0.48789 0.82743 0.35417 0.0
C168 C 0.46964 0.83303 0.34177 0.0
C169 C 0.50807 0.8132 0.34527 0.0
C170 C 0.5274 0.73286 0.2736 0.0
C171 C 0.51773 0.76639 0.21557 0.0
C172 C 0.48861 0.70662 0.22992 0.0
C173 C 0.48764 0.70161 0.20655 0.0
C174 C 0.47167 0.69281 0.20465 0.0
C175 C 0.50245 0.70496 0.18634 0.0
C176 C 0.4854 0.69038 0.16286 0.0
C177 C 0.50138 0.6993 0.1647 0.0
C178 C 0.47051 0.68732 0.18307 0.0
C179 C 0.45622 0.77913 0.24278 0.0
O180 O 0.47038 0.76432 0.29604 0.0
O181 O 0.47491 0.73074 0.28739 0.0
O182 O 0.51294 0.79019 0.28126 0.0
O183 O 0.47757 0.80367 0.28055 0.0
O184 O 0.53149 0.75107 0.26901 0.0
O185 O 0.50698 0.7366 0.27665 0.0
O186 O 0.51275 0.7482 0.22025 0.0
O187 O 0.50963 0.78105 0.23 0.0
O188 O 0.47053 0.71971 0.23959 0.0
O189 O 0.5062 0.71017 0.23298 0.0
O190 O 0.45225 0.76091 0.24686 0.0
O191 O 0.47663 0.77546 0.24006 0.0
H192 H 0.5261 0.79503 0.31736 0.0
H193 H 0.45748 0.83035 0.31103 0.0
H194 H 0.45381 0.84377 0.34827 0.0
H195 H 0.52255 0.80881 0.35414 0.0
H196 H 0.46018 0.68996 0.22002 0.0
H197 H 0.5149 0.7118 0.18728 0.0
H198 H 0.513 0.70196 0.1494 0.0
H199 H 0.45826 0.68014 0.18238 0.0
Gd200 Gd 0.23411 0.73874 0.49415 0.0
Gd201 Gd 0.2496 0.76817 0.5225 0.0
C202 C 0.20044 0.76536 0.53591 0.0
C203 C 0.222 0.70801 0.48781 0.0
C204 C 0.20361 0.70089 0.50088 0.0
C205 C 0.18253 0.71628 0.50434 0.0
C206 C 0.20713 0.67896 0.51113 0.0
C207 C 0.16849 0.68778 0.52693 0.0
C208 C 0.18969 0.67244 0.5241 0.0
C209 C 0.16518 0.70979 0.5172 0.0
C210 C 0.23004 0.77987 0.46963 0.0
C211 C 0.28308 0.74113 0.48082 0.0
C212 C 0.25964 0.7999 0.53026 0.0
C213 C 0.273 0.81277 0.51594 0.0
C214 C 0.2722 0.83204 0.5227 0.0
C215 C 0.28733 0.80539 0.49595 0.0
C216 C 0.30088 0.83582 0.4903 0.0
C217 C 0.30104 0.81687 0.48314 0.0
C218 C 0.28607 0.84347 0.51002 0.0
C219 C 0.25306 0.72741 0.54743 0.0
O220 O 0.2052 0.75078 0.52147 0.0
O221 O 0.21404 0.77551 0.53786 0.0
O222 O 0.21647 0.72747 0.4747 0.0
O223 O 0.2384 0.70416 0.49992 0.0
O224 O 0.22461 0.76569 0.46193 0.0
O225 O 0.23668 0.77101 0.48961 0.0
O226 O 0.27814 0.75633 0.49453 0.0
O227 O 0.26966 0.73064 0.47931 0.0
O228 O 0.27063 0.77931 0.53732 0.0
O229 O 0.24111 0.80283 0.52239 0.0
O230 O 0.25853 0.74159 0.55508 0.0
O231 O 0.24671 0.73608 0.5273 0.0
H232 H 0.17935 0.73343 0.49714 0.0
H233 H 0.2233 0.6669 0.50898 0.0
H234 H 0.19263 0.65531 0.53123 0.0
H235 H 0.14908 0.72198 0.51935 0.0
H236 H 0.26129 0.8379 0.53814 0.0
H237 H 0.28821 0.79054 0.49043 0.0
H238 H 0.31205 0.81068 0.46792 0.0
H239 H 0.28579 0.85781 0.51628 0.0
Gd240 Gd 0.22395 0.50197 0.7526 0.0
Gd241 Gd 0.25958 0.50896 0.77093 0.0
C242 C 0.24894 0.5344 0.71917 0.0
C243 C 0.18962 0.50521 0.73448 0.0
C244 C 0.18271 0.50897 0.71065 0.0
C245 C 0.1762 0.4931 0.70451 0.0
C246 C 0.1821 0.52808 0.69416 0.0
C247 C 0.1677 0.51562 0.66611 0.0
C248 C 0.17455 0.53142 0.67207 0.0
C249 C 0.16884 0.49634 0.68247 0.0
C250 C 0.26382 0.47151 0.74451 0.0
C251 C 0.23449 0.47643 0.80424 0.0
C252 C 0.29413 0.50604 0.78848 0.0
C253 C 0.3019 0.50309 0.81171 0.0
C254 C 0.3082 0.51962 0.81662 0.0
C255 C 0.3042 0.48384 0.82847 0.0
C256 C 0.32019 0.49738 0.85405 0.0
C257 C 0.31334 0.48099 0.84946 0.0
C258 C 0.31718 0.51685 0.83758 0.0
C259 C 0.21974 0.53958 0.77871 0.0
O260 O 0.2309 0.52902 0.72423 0.0
O261 O 0.26483 0.52533 0.73299 0.0
O262 O 0.20487 0.48663 0.74031 0.0
O263 O 0.1921 0.52158 0.74145 0.0
O264 O 0.24551 0.4675 0.74955 0.0
O265 O 0.26023 0.49176 0.74229 0.0
O266 O 0.25254 0.48183 0.79927 0.0
O267 O 0.21862 0.48553 0.7904 0.0
O268 O 0.27892 0.52455 0.78233 0.0
O269 O 0.29126 0.48937 0.78263 0.0
O270 O 0.2381 0.54348 0.77379 0.0
O271 O 0.22332 0.51931 0.78112 0.0
H272 H 0.17645 0.4783 0.71699 0.0
H273 H 0.18714 0.54057 0.6984 0.0
H274 H 0.17385 0.54641 0.65978 0.0
H275 H 0.16323 0.48407 0.67863 0.0
H276 H 0.30673 0.53452 0.8039 0.0
H277 H 0.29939 0.47083 0.82517 0.0
H278 H 0.31541 0.46585 0.86189 0.0
H279 H 0.32267 0.5296 0.84032 0.0
Gd280 Gd 0.97492 0.50538 0.52523 0.0
Gd281 Gd 0.01694 0.5069 0.49135 0.0
C282 C 0.00714 0.46282 0.50041 0.0
C283 C 0.93964 0.49697 0.54356 0.0
C284 C 0.93203 0.48014 0.53849 0.0
C285 C 0.94177 0.45794 0.54775 0.0
C286 C 0.91754 0.48575 0.52132 0.0
C287 C 0.92577 0.44742 0.51966 0.0
C288 C 0.91451 0.46952 0.51199 0.0
C289 C 0.93859 0.4417 0.53844 0.0
C290 C 0.00926 0.50137 0.54678 0.0
C291 C 0.98455 0.54948 0.51621 0.0
C292 C 0.05251 0.51506 0.47372 0.0
C293 C 0.06025 0.53157 0.4794 0.0
C294 C 0.05031 0.55392 0.47105 0.0
C295 C 0.07496 0.52544 0.49645 0.0
C296 C 0.06609 0.56348 0.50021 0.0
C297 C 0.07786 0.54124 0.5067 0.0
C298 C 0.05322 0.56972 0.48135 0.0
C299 C 0.98265 0.51063 0.46974 0.0
O300 O 0.9875 0.47381 0.51023 0.0
O301 O 0.02317 0.47123 0.49415 0.0
O302 O 0.95725 0.48971 0.55456 0.0
O303 O 0.93997 0.51305 0.52587 0.0
O304 O 0.989 0.51074 0.555 0.0
O305 O 0.01015 0.4931 0.52877 0.0
O306 O 0.00422 0.53848 0.50644 0.0
O307 O 0.96853 0.54106 0.52237 0.0
O308 O 0.035 0.52266 0.46251 0.0
O309 O 0.05191 0.49883 0.49112 0.0
O310 O 0.00297 0.50155 0.46144 0.0
O311 O 0.98175 0.51898 0.48772 0.0
H312 H 0.95286 0.45301 0.56119 0.0
H313 H 0.90945 0.50268 0.51417 0.0
H314 H 0.90369 0.47419 0.49839 0.0
H315 H 0.9472 0.42474 0.54494 0.0
H316 H 0.03906 0.55928 0.45772 0.0
H317 H 0.08324 0.50837 0.5029 0.0
H318 H 0.08879 0.536 0.52029 0.0
H319 H 0.04407 0.58671 0.47569 0.0
Gd320 Gd 0.23577 0.23921 0.99275 0.0
Gd321 Gd 0.24937 0.26758 0.02424 0.0
C322 C 0.20055 0.26341 0.03451 0.0
C323 C 0.22568 0.20937 0.98057 0.0
C324 C 0.20568 0.2034 0.98717 0.0
C325 C 0.19598 0.20009 0.96932 0.0
C326 C 0.19471 0.20366 0.0105 0.0
C327 C 0.16444 0.1977 0.99793 0.0
C328 C 0.17432 0.20063 0.01589 0.0
C329 C 0.17547 0.19733 0.97464 0.0
C330 C 0.22851 0.28196 0.97208 0.0
C331 C 0.28473 0.24319 0.98237 0.0
C332 C 0.25785 0.29789 0.03752 0.0
C333 C 0.2787 0.30121 0.03763 0.0
C334 C 0.2825 0.30744 0.05764 0.0
C335 C 0.29543 0.29687 0.01849 0.0
C336 C 0.31937 0.30558 0.03911 0.0
C337 C 0.31559 0.29905 0.01921 0.0
C338 C 0.30268 0.30963 0.05839 0.0
C339 C 0.25768 0.22472 0.0447 0.0
O340 O 0.20638 0.24859 0.02019 0.0
O341 O 0.21328 0.2744 0.03674 0.0
O342 O 0.22287 0.22866 0.96752 0.0
O343 O 0.23811 0.20526 0.9975 0.0
O344 O 0.22449 0.26794 0.96262 0.0
O345 O 0.2351 0.27218 0.99185 0.0
O346 O 0.27935 0.25733 0.9975 0.0
O347 O 0.2716 0.23293 0.97927 0.0
O348 O 0.25484 0.28108 0.05252 0.0
O349 O 0.25193 0.2999 0.01646 0.0
O350 O 0.26289 0.23858 0.05316 0.0
O351 O 0.24955 0.23464 0.02567 0.0
H352 H 0.20405 0.20016 0.95116 0.0
H353 H 0.20157 0.20675 0.02444 0.0
H354 H 0.16608 0.20102 0.03396 0.0
H355 H 0.16829 0.19473 0.96058 0.0
H356 H 0.26984 0.31065 0.07266 0.0
H357 H 0.29291 0.29181 1.00296 0.0
H358 H 0.32818 0.29575 1.00416 0.0
H359 H 0.30499 0.31509 0.07377 0.0
Gd360 Gd 0.22516 1.00097 0.2503 0.0
Gd361 Gd 0.26148 0.00671 0.26947 0.0
C362 C 0.25083 0.03354 0.21801 0.0
C363 C 0.19026 0.00552 0.23241 0.0
C364 C 0.18257 0.00912 0.20896 0.0
C365 C 0.17799 0.99222 0.20239 0.0
C366 C 0.1784 0.0294 0.19374 0.0
C367 C 0.16396 0.01603 0.16651 0.0
C368 C 0.16912 0.03283 0.17269 0.0
C369 C 0.16888 0.99559 0.18138 0.0
C370 C 0.2648 0.97053 0.24142 0.0
C371 C 0.23566 0.97433 0.30175 0.0
C372 C 0.29658 1.00146 0.28738 0.0
C373 C 0.30476 0.9953 0.31077 0.0
C374 C 0.29137 1.00288 0.3312 0.0
C375 C 0.32678 0.98262 0.31232 0.0
C376 C 0.3227 0.98701 0.35384 0.0
C377 C 0.33568 0.97846 0.33367 0.0
C378 C 0.30032 0.99884 0.35257 0.0
C379 C 0.22183 0.03737 0.27775 0.0
O380 O 0.23284 0.02805 0.22244 0.0
O381 O 0.26651 0.02444 0.23213 0.0
O382 O 0.20492 0.9866 0.23858 0.0
O383 O 0.19377 0.0217 0.23862 0.0
O384 O 0.24638 0.96672 0.24567 0.0
O385 O 0.26136 0.99064 0.24013 0.0
O386 O 0.25375 0.97964 0.29725 0.0
O387 O 0.21992 0.98366 0.28776 0.0
O388 O 0.28099 0.02026 0.2836 0.0
O389 O 0.29374 0.98604 0.27894 0.0
O390 O 0.24029 0.04117 0.27328 0.0
O391 O 0.22529 0.0172 0.27945 0.0
H392 H 0.18084 0.97651 0.2139 0.0
H393 H 0.18177 0.04277 0.19833 0.0
H394 H 0.16554 0.04874 0.16154 0.0
H395 H 0.16469 0.98244 0.17743 0.0
H396 H 0.27422 0.01249 0.33046 0.0
H397 H 0.33732 0.9766 0.29675 0.0
H398 H 0.35304 0.96954 0.33396 0.0
H399 H 0.2899 0.00547 0.36789 0.0
Gd400 Gd 0.49731 0.27416 0.7691 0.0
Gd401 Gd 0.48783 0.2408 0.74949 0.0
C402 C 0.46767 0.24624 0.80275 0.0
C403 C 0.49642 0.30676 0.78753 0.0
C404 C 0.49732 0.31285 0.81024 0.0
C405 C 0.50904 0.32686 0.80987 0.0
C406 C 0.48668 0.3053 0.83202 0.0
C407 C 0.49927 0.32621 0.85271 0.0
C408 C 0.48759 0.31201 0.8531 0.0
C409 C 0.51003 0.33347 0.83084 0.0
C410 C 0.52867 0.23421 0.77364 0.0
C411 C 0.51725 0.26868 0.71584 0.0
C412 C 0.48933 0.20872 0.72976 0.0
C413 C 0.49195 0.20286 0.70578 0.0
C414 C 0.47355 0.20796 0.69377 0.0
C415 C 0.51258 0.19053 0.69556 0.0
C416 C 0.49618 0.18766 0.66242 0.0
C417 C 0.51468 0.18306 0.67409 0.0
C418 C 0.47566 0.20051 0.67232 0.0
C419 C 0.45635 0.28067 0.74533 0.0
O420 O 0.4728 0.26433 0.79843 0.0
O421 O 0.4751 0.23212 0.78769 0.0
O422 O 0.51443 0.29314 0.77847 0.0
O423 O 0.47873 0.30313 0.78495 0.0
O424 O 0.53257 0.25246 0.7697 0.0
O425 O 0.50826 0.23779 0.77689 0.0
O426 O 0.51252 0.2504 0.72045 0.0
O427 O 0.50939 0.28303 0.73062 0.0
O428 O 0.4711 0.22375 0.73615 0.0
O429 O 0.50648 0.21018 0.73681 0.0
O430 O 0.45254 0.26233 0.74959 0.0
O431 O 0.47676 0.27724 0.74171 0.0
H432 H 0.5173 0.3329 0.79323 0.0
H433 H 0.47762 0.29436 0.83271 0.0
H434 H 0.47924 0.30603 0.8697 0.0
H435 H 0.51883 0.34471 0.8298 0.0
H436 H 0.45736 0.21719 0.70127 0.0
H437 H 0.52705 0.18616 0.70444 0.0
H438 H 0.53075 0.17336 0.66682 0.0
H439 H 0.46101 0.20407 0.66404 0.0
Gd440 Gd -0.00186 0.77262 0.77064 0.0
Gd441 Gd 0.98793 0.73889 0.7523 0.0
C442 C 0.96892 0.74515 0.80566 0.0
C443 C -0.00255 0.80556 0.78826 0.0
C444 C -0.00237 0.8114 0.81129 0.0
C445 C 0.99087 0.8 0.83303 0.0
C446 C 0.00536 0.82845 0.81139 0.0
C447 C -0.0001 0.82266 0.85482 0.0
C448 C 0.00649 0.83404 0.83291 0.0
C449 C 0.99189 0.80567 0.85468 0.0
C450 C 0.02926 0.73255 0.77556 0.0
C451 C 0.01762 0.76601 0.71748 0.0
C452 C 0.98832 0.70589 0.73499 0.0
C453 C 0.98794 0.69929 0.71244 0.0
C454 C -0.00486 0.70966 0.69022 0.0
C455 C 0.97985 0.68227 0.71338 0.0
C456 C 0.98588 0.68598 0.67004 0.0
C457 C 0.97883 0.67567 0.69243 0.0
C458 C -0.00579 0.70297 0.66913 0.0
C459 C 0.95691 0.77911 0.7475 0.0
O460 O 0.97371 0.76344 0.80052 0.0
O461 O 0.97646 0.73062 0.79107 0.0
O462 O 0.01548 0.7913 0.78015 0.0
O463 O 0.97972 0.80244 0.78495 0.0
O464 O 0.03333 0.75075 0.77117 0.0
O465 O 0.00883 0.73626 0.77909 0.0
O466 O 0.01249 0.74791 0.72251 0.0
O467 O 0.0102 0.78059 0.732 0.0
O468 O 0.97037 0.7203 0.74301 0.0
O469 O 0.00614 0.7091 0.73785 0.0
O470 O 0.95271 0.76097 0.75213 0.0
O471 O 0.97735 0.77522 0.74378 0.0
H472 H 0.98499 0.78666 0.83325 0.0
H473 H 0.01064 0.83741 0.79475 0.0
H474 H 0.01237 0.84744 0.8324 0.0
H475 H 0.9868 0.79655 0.87128 0.0
H476 H 0.00136 0.72292 0.68919 0.0
H477 H 0.97429 0.67406 0.73039 0.0
H478 H 0.97272 0.66227 0.6938 0.0
H479 H -0.00033 0.71127 0.65214 0.0
Gd480 Gd 0.72993 0.50022 0.24928 0.0
Gd481 Gd 0.75942 0.51268 0.27158 0.0
C482 C 0.75328 0.53479 0.21784 0.0
C483 C 0.70064 0.49566 0.22847 0.0
C484 C 0.69005 0.50183 0.20661 0.0
C485 C 0.68569 0.48555 0.19858 0.0
C486 C 0.68343 0.52334 0.19428 0.0
C487 C 0.6671 0.51221 0.16674 0.0
C488 C 0.67197 0.52851 0.17446 0.0
C489 C 0.67433 0.49065 0.1789 0.0
C490 C 0.77062 0.47045 0.25088 0.0
C491 C 0.73576 0.47842 0.30315 0.0
C492 C 0.78885 0.51638 0.29293 0.0
C493 C 0.79838 0.50958 0.31554 0.0
C494 C 0.80377 0.52498 0.32404 0.0
C495 C 0.80258 0.48831 0.32846 0.0
C496 C 0.81841 0.49788 0.35773 0.0
C497 C 0.81264 0.48247 0.34941 0.0
C498 C 0.81367 0.51923 0.34487 0.0
C499 C 0.71863 0.54235 0.27023 0.0
O500 O 0.73659 0.52741 0.22075 0.0
O501 O 0.76706 0.52831 0.23402 0.0
O502 O 0.72114 0.48313 0.22694 0.0
O503 O 0.69617 0.51036 0.2422 0.0
O504 O 0.7527 0.46574 0.2551 0.0
O505 O 0.76646 0.49088 0.24531 0.0
O506 O 0.75243 0.4858 0.30029 0.0
O507 O 0.72213 0.48475 0.28685 0.0
O508 O 0.76867 0.52971 0.2936 0.0
O509 O 0.79307 0.50167 0.27926 0.0
O510 O 0.73651 0.54715 0.26612 0.0
O511 O 0.72291 0.5219 0.2757 0.0
H512 H 0.6906 0.46888 0.20795 0.0
H513 H 0.68678 0.53613 0.20018 0.0
H514 H 0.66671 0.54524 0.16537 0.0
H515 H 0.67048 0.47777 0.17383 0.0
H516 H 0.80067 0.54145 0.31426 0.0
H517 H 0.79836 0.47622 0.32223 0.0
H518 H 0.81605 0.46592 0.35899 0.0
H519 H 0.81832 0.53138 0.35043 0.0
Gd520 Gd 0.73893 0.74598 0.99581 0.0
Gd521 Gd 0.75157 0.77216 0.02639 0.0
C522 C 0.70383 0.76872 0.03963 0.0
C523 C 0.72152 0.72364 0.97965 0.0
C524 C 0.70239 0.71656 0.98863 0.0
C525 C 0.68875 0.71692 0.97251 0.0
C526 C 0.69644 0.71148 0.01326 0.0
C527 C 0.66358 0.70668 1.00551 0.0
C528 C 0.67725 0.70639 0.02164 0.0
C529 C 0.66944 0.71206 0.98087 0.0
C530 C 0.74209 0.78507 0.97322 0.0
C531 C 0.78809 0.7444 0.98798 0.0
C532 C 0.76361 0.80219 0.03506 0.0
C533 C 0.78005 0.81179 0.02089 0.0
C534 C 0.80123 0.80459 0.02771 0.0
C535 C 0.7757 0.82619 0.99924 0.0
C536 C 0.81367 0.825 0.99108 0.0
C537 C 0.79236 0.8328 0.9845 0.0
C538 C 0.81789 0.811 0.0129 0.0
C539 C 0.75682 0.73073 0.05052 0.0
O540 O 0.7095 0.75518 0.02388 0.0
O541 O 0.7168 0.77892 0.04285 0.0
O542 O 0.71675 0.74479 0.97335 0.0
O543 O 0.73852 0.71452 0.99171 0.0
O544 O 0.74803 0.76792 0.96311 0.0
O545 O 0.73393 0.78096 0.99462 0.0
O546 O 0.78097 0.76163 0.99897 0.0
O547 O 0.7755 0.73275 0.98771 0.0
O548 O 0.77161 0.78167 0.04468 0.0
O549 O 0.74543 0.80655 0.02582 0.0
O550 O 0.76029 0.7457 0.05886 0.0
O551 O 0.75072 0.73895 0.03016 0.0
H552 H 0.69293 0.72115 0.95346 0.0
H553 H 0.70641 0.71173 0.02604 0.0
H554 H 0.67302 0.70237 0.04071 0.0
H555 H 0.65932 0.71206 0.96806 0.0
H556 H 0.80507 0.79357 0.0443 0.0
H557 H 0.75955 0.83208 0.99345 0.0
H558 H 0.78867 0.84382 0.96787 0.0
H559 H 0.83405 0.80524 0.01869 0.0
Gd560 Gd 0.47023 0.00823 0.52555 0.0
Gd561 Gd 0.51443 1.00497 0.49402 0.0
C562 C 0.50039 0.96314 0.50418 0.0
C563 C 0.43265 1.00408 0.54174 0.0
C564 C 0.42345 0.98842 0.53663 0.0
C565 C 0.43105 0.96622 0.54687 0.0
C566 C 0.40958 0.99488 0.51868 0.0
C567 C 0.41407 0.957 0.51861 0.0
C568 C 0.40498 0.9793 0.50976 0.0
C569 C 0.42638 0.95066 0.53793 0.0
C570 C 0.50394 1.00249 0.54914 0.0
C571 C 0.48409 0.05013 0.51521 0.0
C572 C 0.55207 0.00903 0.47811 0.0
C573 C 0.56117 0.02466 0.48343 0.0
C574 C 0.55311 0.04699 0.47385 0.0
C575 C 0.57533 0.01798 0.50111 0.0
C576 C 0.57023 0.05581 0.50229 0.0
C577 C 0.57979 0.03343 0.51044 0.0
C578 C 0.55761 0.06242 0.48321 0.0
C579 C 0.48075 0.01068 0.47037 0.0
O580 O 0.48098 0.97576 0.51271 0.0
O581 O 0.51761 0.96983 0.49833 0.0
O582 O 0.4494 0.99568 0.55414 0.0
O583 O 0.43533 0.01903 0.5236 0.0
O584 O 0.48373 0.01351 0.55587 0.0
O585 O 0.50492 0.9936 0.53157 0.0
O586 O 0.50355 0.03752 0.50677 0.0
O587 O 0.46692 0.04338 0.5211 0.0
O588 O 0.5354 0.01745 0.46557 0.0
O589 O 0.5493 0.99405 0.49617 0.0
O590 O 0.501 0.99983 0.46358 0.0
O591 O 0.47977 0.01953 0.48798 0.0
H592 H 0.44165 0.96065 0.56087 0.0
H593 H 0.40318 0.01187 0.51068 0.0
H594 H 0.39465 0.9846 0.49559 0.0
H595 H 0.43342 0.93357 0.54526 0.0
H596 H 0.54226 0.05275 0.46008 0.0
H597 H 0.58206 1.00089 0.50862 0.0
H598 H 0.59039 0.02793 0.52438 0.0
H599 H 0.5502 0.07957 0.4764 0.0
Gd600 Gd 0.46894 0.51431 0.01868 0.0
Gd601 Gd 0.51621 0.50633 0.99332 0.0
C602 C 0.49925 0.46631 1.00389 0.0
C603 C 0.42919 0.51484 0.0321 0.0
C604 C 0.41877 0.499 0.03092 0.0
C605 C 0.40518 0.49282 0.05082 0.0
C606 C 0.42544 0.48722 0.01183 0.0
C607 C 0.40752 0.46153 0.03389 0.0
C608 C 0.41968 0.46875 0.0132 0.0
C609 C 0.39956 0.47417 0.0523 0.0
C610 C 0.49938 0.50848 0.047 0.0
C611 C 0.48616 0.55416 1.00812 0.0
C612 C 0.55549 0.50711 0.9806 0.0
C613 C 0.5648 0.52347 0.98361 0.0
C614 C 0.56381 0.54181 0.96581 0.0
C615 C 0.57155 0.5227 1.00558 0.0
C616 C 0.57268 0.55962 0.9932 0.0
C617 C 0.57526 0.5407 0.0104 0.0
C618 C 0.56762 0.55974 0.97059 0.0
C619 C 0.48561 0.51223 0.96507 0.0
O620 O 0.4795 0.48044 1.00899 0.0
O621 O 0.51722 0.47169 1.00047 0.0
O622 O 0.4443 0.50747 0.04659 0.0
O623 O 0.43509 0.5256 0.01166 0.0
O624 O 0.47925 0.52132 0.05018 0.0
O625 O 0.50192 0.49824 0.03007 0.0
O626 O 0.50589 0.53985 1.00366 0.0
O627 O 0.46815 0.54894 0.0109 0.0
O628 O 0.54061 0.51418 0.96582 0.0
O629 O 0.55009 0.49496 1.00022 0.0
O630 O 0.50582 0.49962 0.96165 0.0
O631 O 0.48326 0.52236 0.98203 0.0
H632 H 0.40012 0.50158 0.06583 0.0
H633 H 0.43628 0.4914 0.99653 0.0
H634 H 0.4257 0.45948 0.99858 0.0
H635 H 0.39017 0.46891 0.06847 0.0
H636 H 0.55888 0.54283 0.9486 0.0
H637 H 0.57303 0.5086 0.01942 0.0
H638 H 0.57967 0.54004 0.02774 0.0
H639 H 0.56552 0.57411 0.95695 0.0
C640 C 0.95849 0.06572 0.05726 0.0
C641 C 0.97372 0.05843 0.03779 0.0
C642 C 0.95828 0.08372 0.06626 0.0
C643 C 0.95694 0.12613 0.07921 0.0
H644 H 0.01524 0.12572 0.08358 0.0
C645 C 0.97008 0.18379 0.13244 0.0
C646 C 0.9866 0.17388 0.14764 0.0
C647 C 0.96851 0.17307 0.11484 0.0
C648 C -0.00117 0.12608 0.08253 0.0
H649 H -0.0006 0.06532 0.01119 0.0
H650 H -0.00195 0.09753 0.02602 0.0
H651 H 0.01089 0.10125 0.06057 0.0
H652 H 0.01467 0.14512 0.1559 0.0
H653 H 0.01189 0.12642 0.12542 0.0
H654 H 0.945 0.15 0.10246 0.0
C655 C 0.98706 0.0887 0.03507 0.0
C656 C -0.00371 0.11226 0.069 0.0
C657 C 0.98761 0.07044 0.02639 0.0
C658 C 0.00196 0.15337 0.14427 0.0
C659 C 0.00036 0.14263 0.12674 0.0
C660 C 0.95948 0.13988 0.09287 0.0
C661 C 0.97306 0.09501 0.05572 0.0
C662 C 0.97535 0.11176 0.06757 0.0
C663 C 0.98339 0.15217 0.11207 0.0
C664 C 0.98051 0.13965 0.09515 0.0
H665 H 0.94772 0.05669 0.06656 0.0
H666 H 0.94738 0.08797 0.0823 0.0
H667 H 0.94055 0.12638 0.07825 0.0
H668 H 0.95818 0.19972 0.13438 0.0
H669 H 0.95547 0.18104 0.10359 0.0
C670 C 0.81293 0.22821 0.45093 0.0
C671 C 0.80646 0.24248 0.46776 0.0
C672 C 0.83224 0.2264 0.4351 0.0
C673 C 0.86898 0.25785 0.40668 0.0
H674 H 0.90956 0.2026 0.39055 0.0
C675 C 0.94875 0.25411 0.34359 0.0
C676 C 0.95495 0.24004 0.32662 0.0
C677 C 0.93219 0.25288 0.36242 0.0
C678 C 0.8983 0.2182 0.39464 0.0
H679 H 0.81595 0.26531 0.48167 0.0
H680 H 0.84926 0.26222 0.45412 0.0
H681 H 0.87749 0.20318 0.41997 0.0
H682 H 0.94894 0.21321 0.3166 0.0
H683 H 0.91984 0.21137 0.34903 0.0
H684 H 0.88925 0.27302 0.38107 0.0
C685 C 0.83929 0.25265 0.45293 0.0
C686 C 0.87992 0.21851 0.41155 0.0
C687 C 0.82014 0.25434 0.46881 0.0
C688 C 0.9447 0.22423 0.32942 0.0
C689 C 0.928 0.22312 0.34813 0.0
C690 C 0.8872 0.25757 0.38968 0.0
C691 C 0.84542 0.23891 0.43565 0.0
C692 C 0.86507 0.23835 0.41779 0.0
C693 C 0.92122 0.23769 0.36466 0.0
C694 C 0.90216 0.23776 0.3834 0.0
H695 H 0.80285 0.21882 0.44957 0.0
H696 H 0.83647 0.21574 0.42191 0.0
H697 H 0.85766 0.27345 0.41077 0.0
H698 H 0.95637 0.26641 0.34208 0.0
H699 H 0.92781 0.26406 0.37508 0.0
C700 C 0.73979 0.06026 0.67817 0.0
C701 C 0.75412 0.05317 0.6958 0.0
C702 C 0.74052 0.07784 0.65979 0.0
C703 C 0.77529 0.1133 0.63145 0.0
H704 H 0.72105 0.15355 0.60862 0.0
C705 C 0.76584 0.2016 0.58428 0.0
C706 C 0.75544 0.20936 0.56339 0.0
C707 C 0.76619 0.18142 0.59813 0.0
C708 C 0.73636 0.14234 0.61463 0.0
H709 H 0.78044 0.05925 0.70778 0.0
H710 H 0.78125 0.08994 0.67665 0.0
H711 H 0.72069 0.12056 0.63704 0.0
H712 H 0.73737 0.202 0.54076 0.0
H713 H 0.73726 0.16682 0.56532 0.0
H714 H 0.7907 0.13567 0.60982 0.0
C715 C 0.76986 0.08165 0.6763 0.0
C716 C 0.73623 0.12329 0.63091 0.0
C717 C 0.76932 0.06397 0.69439 0.0
C718 C 0.74541 0.19642 0.55669 0.0
C719 C 0.74534 0.17634 0.57083 0.0
C720 C 0.77533 0.13246 0.61553 0.0
C721 C 0.75542 0.08901 0.65869 0.0
C722 C 0.75566 0.10858 0.63989 0.0
C723 C 0.75581 0.16858 0.59173 0.0
C724 C 0.75585 0.14737 0.60714 0.0
H725 H 0.72784 0.05237 0.67866 0.0
H726 H 0.72932 0.08265 0.64648 0.0
H727 H 0.79074 0.10224 0.63721 0.0
H728 H 0.7737 0.21118 0.59001 0.0
H729 H 0.77422 0.17606 0.61421 0.0
C730 C 0.93866 0.00687 0.98038 0.0
C731 C 0.96024 0.99249 0.9778 0.0
C732 C 0.92207 1.00328 0.97149 0.0
C733 C 0.91518 0.97313 0.92791 0.0
H734 H 0.85439 0.99209 0.9557 0.0
C735 C 0.84922 0.9683 0.8801 0.0
C736 C 0.83216 0.98831 0.87633 0.0
C737 C 0.86287 0.96436 0.8976 0.0
C738 C 0.87132 0.98663 0.94779 0.0
H739 H 0.98136 0.96242 0.96544 0.0
H740 H 0.95252 0.95563 0.95088 0.0
H741 H 0.8825 0.99485 0.97577 0.0
H742 H 0.81451 0.01882 0.88954 0.0
H743 H 0.83857 0.01224 0.91958 0.0
H744 H 0.90394 0.96577 0.89946 0.0
C745 C 0.94831 0.9702 0.95874 0.0
C746 C 0.88747 0.98828 0.95925 0.0
C747 C 0.96488 0.97402 0.96718 0.0
C748 C 0.82781 1.00342 0.89178 0.0
C749 C 0.84147 0.99952 0.90919 0.0
C750 C 0.89908 0.97152 0.91649 0.0
C751 C 0.92675 0.98499 0.96031 0.0
C752 C 0.90959 0.98186 0.94925 0.0
C753 C 0.85972 0.98037 0.91158 0.0
C754 C 0.8769 0.97868 0.926 0.0
H755 H 0.93475 0.02119 0.98862 0.0
H756 H 0.90576 0.01518 0.97281 0.0
H757 H 0.93191 0.96843 0.91931 0.0
H758 H 0.85295 0.95632 0.8685 0.0
H759 H 0.87658 0.94926 0.89935 0.0
C760 C 0.04013 0.98166 0.06804 0.0
C761 C 0.01816 0.995 0.07138 0.0
C762 C 0.05668 0.98773 0.07369 0.0
C763 C 0.06489 0.02251 0.11038 0.0
H764 H 0.12244 0.01008 0.07358 0.0
C765 C 0.13254 0.03887 0.14347 0.0
C766 C 0.1512 0.02018 0.14633 0.0
C767 C 0.1175 0.04036 0.12848 0.0
C768 C 0.1064 0.01374 0.08393 0.0
H769 H -0.00388 0.02528 0.08261 0.0
H770 H 0.02492 0.03623 0.09171 0.0
H771 H 0.09306 1.00312 0.05948 0.0
H772 H 0.17007 0.98963 0.13368 0.0
H773 H 0.14363 0.99201 0.10788 0.0
H774 H 0.07816 0.03261 0.13508 0.0
C775 C 0.02945 0.0208 0.08543 0.0
C776 C 0.08964 0.00963 0.07597 0.0
C777 C 0.01295 0.01454 0.08021 0.0
C778 C 0.15561 1.00405 0.13213 0.0
C779 C 0.14056 0.00552 0.11717 0.0
C780 C 0.08153 0.02671 0.11822 0.0
C781 C 0.05151 0.00741 0.08242 0.0
C782 C 0.06884 0.01353 0.08942 0.0
C783 C 0.12084 0.02319 0.11611 0.0
C784 C 0.1026 0.02196 0.10539 0.0
H785 H 0.04446 0.96652 0.06122 0.0
H786 H 0.07348 0.9769 0.07148 0.0
H787 H 0.04918 0.02541 0.12137 0.0
H788 H 0.12866 0.05159 0.15416 0.0
H789 H 0.10261 0.05436 0.12768 0.0
C790 C 0.0281 0.43179 0.47779 0.0
C791 C 0.00971 0.44192 0.49309 0.0
C792 C 0.02847 0.41436 0.4676 0.0
C793 C 0.9899 0.39353 0.44998 0.0
H794 H 0.04232 0.34548 0.4351 0.0
C795 C 0.98938 0.33434 0.3907 0.0
C796 C 0.00698 0.33038 0.37237 0.0
C797 C 0.99011 0.34394 0.4097 0.0
C798 C 0.02754 0.35883 0.43908 0.0
H799 H 0.97796 0.44076 0.51078 0.0
H800 H 0.97868 0.41034 0.49337 0.0
H801 H 0.04324 0.36973 0.4609 0.0
H802 H 0.03973 0.332 0.36045 0.0
H803 H 0.04082 0.34914 0.39313 0.0
H804 H 0.97438 0.38321 0.42757 0.0
C805 C -0.00734 0.41605 0.48889 0.0
C806 C 0.02809 0.37271 0.45385 0.0
C807 C 0.99232 0.43341 0.49903 0.0
C808 C 0.02575 0.33517 0.3741 0.0
C809 C 0.02649 0.34475 0.39303 0.0
C810 C 0.98938 0.3797 0.43518 0.0
C811 C 0.01046 0.40672 0.47251 0.0
C812 C 0.0094 0.39048 0.45907 0.0
C813 C 0.00849 0.34972 0.41079 0.0
C814 C 0.00832 0.36248 0.4291 0.0
H815 H 0.04174 0.43798 0.47273 0.0
H816 H 0.04237 0.40765 0.45488 0.0
H817 H 0.97527 0.40723 0.45337 0.0
H818 H 0.97467 0.33087 0.38985 0.0
H819 H 0.97608 0.34729 0.42326 0.0
C820 C 0.67444 0.28612 0.57023 0.0
C821 C 0.68064 0.27218 0.55308 0.0
C822 C 0.65527 0.28778 0.58625 0.0
C823 C 0.61872 0.25611 0.61442 0.0
H824 H 0.57828 0.31089 0.63198 0.0
C825 C 0.53913 0.25874 0.67705 0.0
C826 C 0.53284 0.27231 0.69453 0.0
C827 C 0.5557 0.26038 0.6584 0.0
C828 C 0.58951 0.29542 0.62748 0.0
H829 H 0.67075 0.24989 0.53874 0.0
H830 H 0.63767 0.2527 0.56662 0.0
H831 H 0.61013 0.31082 0.60233 0.0
H832 H 0.53868 0.2987 0.7057 0.0
H833 H 0.56788 0.30127 0.67351 0.0
H834 H 0.59865 0.24056 0.63981 0.0
C835 C 0.64777 0.26211 0.56792 0.0
C836 C 0.60776 0.2954 0.61045 0.0
C837 C 0.66678 0.26056 0.55186 0.0
C838 C 0.54302 0.28807 0.69245 0.0
C839 C 0.55976 0.28959 0.67391 0.0
C840 C 0.60064 0.2561 0.63153 0.0
C841 C 0.64195 0.27546 0.58556 0.0
C842 C 0.62252 0.27574 0.60366 0.0
C843 C 0.56663 0.27547 0.65687 0.0
C844 C 0.58571 0.27575 0.63827 0.0
H845 H 0.68466 0.29533 0.57172 0.0
H846 H 0.65127 0.29815 0.5997 0.0
H847 H 0.63 0.24064 0.60994 0.0
H848 H 0.53154 0.24651 0.67798 0.0
H849 H 0.56012 0.24959 0.64533 0.0
C850 C 0.75209 0.9553 0.84041 0.0
C851 C 0.73568 0.96345 0.82499 0.0
C852 C 0.75225 0.93778 0.85901 0.0
C853 C 0.75767 0.89171 0.88549 0.0
H854 H 0.70449 0.88315 0.92121 0.0
C855 C 0.75596 0.80784 0.93806 0.0
C856 C 0.74246 0.80676 0.95991 0.0
C857 C 0.75542 0.82796 0.92398 0.0
C858 C 0.71954 0.88538 0.91161 0.0
H859 H 0.70616 0.95972 0.8177 0.0
H860 H 0.70651 0.92909 0.85 0.0
H861 H 0.70228 0.91667 0.89263 0.0
H862 H 0.71807 0.82604 0.98439 0.0
H863 H 0.71701 0.86145 0.95967 0.0
H864 H 0.77493 0.86049 0.90441 0.0
C865 C 0.71918 0.93642 0.84787 0.0
C866 C 0.71825 0.90453 0.89497 0.0
C867 C 0.71901 0.954 0.82923 0.0
C868 C 0.72868 0.82637 0.96765 0.0
C869 C 0.72798 0.84662 0.95338 0.0
C870 C 0.75894 0.87259 0.90204 0.0
C871 C 0.73603 0.92779 0.86279 0.0
C872 C 0.73729 0.9079 0.88147 0.0
C873 C 0.74123 0.84767 0.93122 0.0
C874 C 0.73989 0.86898 0.91514 0.0
H875 H 0.76516 0.96217 0.83787 0.0
H876 H 0.76526 0.93195 0.87034 0.0
H877 H 0.77271 0.89349 0.87535 0.0
H878 H 0.76677 0.79303 0.93159 0.0
H879 H 0.76568 0.82799 0.90698 0.0
C880 C 0.166 0.25422 0.04929 0.0
C881 C 0.17916 0.26674 0.0499 0.0
C882 C 0.14697 0.25563 0.06531 0.0
C883 C 0.10601 0.28961 0.10679 0.0
H884 H 0.09864 0.23455 0.13859 0.0
C885 C 0.04369 0.28277 0.19105 0.0
C886 C 0.03375 0.26665 0.19438 0.0
C887 C 0.0599 0.28415 0.17185 0.0
C888 C 0.10015 0.25013 0.12962 0.0
H889 H 0.18196 0.29125 0.06743 0.0
H890 H 0.14865 0.29376 0.09533 0.0
H891 H 0.12946 0.2347 0.10794 0.0
H892 H 0.03236 0.23998 0.17943 0.0
H893 H 0.06009 0.24276 0.14564 0.0
H894 H 0.07665 0.30506 0.12848 0.0
C895 C 0.15313 0.28285 0.08237 0.0
C896 C 0.11792 0.25019 0.11206 0.0
C897 C 0.17229 0.28135 0.0664 0.0
C898 C 0.03977 0.2525 0.17752 0.0
C899 C 0.05584 0.25399 0.15821 0.0
C900 C 0.08811 0.28957 0.12428 0.0
C901 C 0.14047 0.2697 0.08229 0.0
C902 C 0.12113 0.26991 0.10049 0.0
C903 C 0.06647 0.26953 0.15538 0.0
C904 C 0.08499 0.26981 0.13603 0.0
H905 H 0.1706 0.24289 0.03676 0.0
H906 H 0.1374 0.24553 0.06452 0.0
H907 H 0.10791 0.30509 0.09803 0.0
H908 H 0.03956 0.29386 0.20378 0.0
H909 H 0.06784 0.29617 0.17046 0.0
C910 C 0.74669 0.4547 0.34244 0.0
C911 C 0.73354 0.46105 0.32375 0.0
C912 C 0.74574 0.43709 0.36068 0.0
C913 C 0.71195 0.40033 0.38671 0.0
H914 H 0.76534 0.3619 0.41285 0.0
C915 C 0.72178 0.31243 0.43552 0.0
C916 C 0.73152 0.30523 0.45684 0.0
C917 C 0.7214 0.33251 0.42143 0.0
C918 C 0.75024 0.37261 0.40592 0.0
H919 H 0.7091 0.45363 0.30975 0.0
H920 H 0.7079 0.42289 0.34077 0.0
H921 H 0.76585 0.39476 0.38428 0.0
H922 H 0.74831 0.3136 0.48003 0.0
H923 H 0.74835 0.34862 0.45509 0.0
H924 H 0.69662 0.37763 0.40765 0.0
C925 C 0.71852 0.43177 0.34197 0.0
C926 C 0.75046 0.39157 0.38954 0.0
C927 C 0.71929 0.44947 0.32396 0.0
C928 C 0.74083 0.31868 0.46374 0.0
C929 C 0.74085 0.33869 0.44939 0.0
C930 C 0.71182 0.38126 0.40276 0.0
C931 C 0.7318 0.42516 0.36062 0.0
C932 C 0.73137 0.40563 0.37939 0.0
C933 C 0.73106 0.34587 0.42804 0.0
C934 C 0.731 0.367 0.41238 0.0
H935 H 0.75789 0.46319 0.34289 0.0
H936 H 0.756 0.43286 0.37482 0.0
H937 H 0.69672 0.41088 0.37998 0.0
H938 H 0.71446 0.30246 0.42961 0.0
H939 H 0.71392 0.33739 0.40501 0.0
C940 C 0.51974 0.02516 0.56438 0.0
C941 C 0.52274 0.00579 0.55621 0.0
C942 C 0.53725 0.02856 0.5714 0.0
C943 C 0.59818 0.00661 0.57138 0.0
H944 H 0.58371 0.03666 0.62582 0.0
C945 C 0.65973 0.99874 0.63441 0.0
C946 C 0.65633 0.0162 0.64636 0.0
C947 C 0.64557 1.00042 0.61831 0.0
C948 C 0.58805 0.02871 0.61023 0.0
H949 H 0.54632 0.97498 0.54832 0.0
H950 H 0.57683 0.98018 0.56206 0.0
H951 H 0.55466 0.03285 0.60876 0.0
H952 H 0.63665 0.04982 0.64911 0.0
H953 H 0.61224 0.05296 0.6205 0.0
H954 H 0.63178 1.0019 0.57362 0.0
C955 C 0.56113 0.99311 0.5624 0.0
C956 C 0.57132 0.02644 0.60042 0.0
C957 C 0.54365 0.98999 0.55473 0.0
C958 C 0.63969 0.03606 0.64023 0.0
C959 C 0.62556 0.03777 0.62405 0.0
C960 C 0.61496 0.00889 0.58124 0.0
C961 C 0.55807 0.01235 0.57115 0.0
C962 C 0.57611 0.01524 0.58095 0.0
C963 C 0.62775 0.01965 0.61375 0.0
C964 C 0.61009 0.01971 0.601 0.0
H965 H 0.50384 0.03783 0.56519 0.0
H966 H 0.53434 0.04391 0.57716 0.0
H967 H 0.60257 0.99805 0.55628 0.0
H968 H 0.67268 0.98336 0.63843 0.0
H969 H 0.64774 0.98614 0.61074 0.0
C970 C 0.02281 0.91942 0.9944 0.0
C971 C 0.00452 0.92859 0.01038 0.0
C972 C 0.02326 0.90268 0.98302 0.0
C973 C 0.98454 0.88382 0.96307 0.0
H974 H 0.03696 0.83761 0.94386 0.0
C975 C 0.98398 0.83103 0.89614 0.0
C976 C 0.0014 0.82875 0.87754 0.0
C977 C 0.98469 0.83887 0.91651 0.0
C978 C 0.02217 0.85045 0.94907 0.0
H979 H 0.97335 0.92609 0.02843 0.0
H980 H 0.97411 0.89693 1.00873 0.0
H981 H 0.03813 0.85904 0.97271 0.0
H982 H 0.03375 0.83161 0.86636 0.0
H983 H 0.03483 0.84562 0.90148 0.0
H984 H 0.96874 0.87587 0.93886 0.0
C985 C 0.98791 0.90291 1.00464 0.0
C986 C 0.02286 0.8627 0.96559 0.0
C987 C 0.98751 0.91957 0.01602 0.0
C988 C 0.01993 0.83351 0.88022 0.0
C989 C 0.02066 0.84127 0.90053 0.0
C990 C 0.98385 0.8716 0.94654 0.0
C991 C 0.00544 0.89479 0.9874 0.0
C992 C 0.00418 0.87985 0.97236 0.0
C993 C 0.00289 0.84445 0.91873 0.0
C994 C 0.00282 0.85515 0.93887 0.0
H995 H 0.03616 0.92603 0.98957 0.0
H996 H 0.03695 0.89687 0.9697 0.0
H997 H 0.96996 0.89714 0.96761 0.0
H998 H 0.96946 0.82755 0.89456 0.0
H999 H 0.97082 0.84093 0.93032 0.0
C1000 C 0.04952 0.09199 0.01414 0.0
C1001 C 0.06426 0.07815 0.99863 0.0
C1002 C 0.05182 0.11179 0.01539 0.0
C1003 C 0.07293 0.14277 0.02578 0.0
H1004 H 0.0945 0.17523 0.96833 0.0
C1005 C 0.14019 0.17758 0.02236 0.0
C1006 C 0.14315 0.19394 1.00354 0.0
C1007 C 0.12188 0.17102 0.02491 0.0
C1008 C 0.08791 0.16692 0.98461 0.0
H1009 H 0.09329 0.0742 0.97262 0.0
H1010 H 0.09722 0.10867 0.97467 0.0
H1011 H 0.07838 0.14857 0.96505 0.0
H1012 H 0.12834 0.21811 0.9744 0.0
H1013 H 0.09597 0.20699 0.97913 0.0
H1014 H 0.08322 0.1606 0.04537 0.0
C1015 C 0.08354 0.10443 0.98548 0.0
C1016 C 0.07893 0.15139 0.98267 0.0
C1017 C 0.08132 0.08462 0.98435 0.0
C1018 C 0.12655 0.20511 0.98874 0.0
C1019 C 0.10806 0.19876 0.99149 0.0
C1020 C 0.08182 0.15845 0.02774 0.0
C1021 C 0.06884 0.1182 1.00101 0.0
C1022 C 0.07259 0.1383 1.0032 0.0
C1023 C 0.10612 0.18086 1.00878 0.0
C1024 C 0.09061 0.16974 1.00716 0.0
H1025 H 0.03611 0.08759 0.02525 0.0
H1026 H 0.0403 0.12208 0.02755 0.0
H1027 H 0.06798 0.13301 0.04192 0.0
H1028 H 0.1528 0.16875 0.034 0.0
H1029 H 0.12112 0.15704 0.03828 0.0
C1030 C 0.69517 0.58102 0.26061 0.0
C1031 C 0.69659 0.5592 0.26933 0.0
C1032 C 0.67487 0.59756 0.2599 0.0
C1033 C 0.61735 0.61255 0.28702 0.0
H1034 H 0.61044 0.66021 0.23357 0.0
C1035 C 0.53959 0.69167 0.27956 0.0
C1036 C 0.54459 0.71117 0.27306 0.0
C1037 C 0.55628 0.67138 0.2785 0.0
C1038 C 0.61209 0.64705 0.24866 0.0
H1039 H 0.67772 0.53754 0.28402 0.0
H1040 H 0.64181 0.56676 0.2829 0.0
H1041 H 0.64266 0.62758 0.23231 0.0
H1042 H 0.57091 0.72471 0.26035 0.0
H1043 H 0.59974 0.68967 0.25831 0.0
H1044 H 0.58675 0.63243 0.30345 0.0
C1045 C 0.6566 0.57096 0.27666 0.0
C1046 C 0.63059 0.62833 0.24795 0.0
C1047 C 0.67711 0.55423 0.27723 0.0
C1048 C 0.5665 0.71001 0.26548 0.0
C1049 C 0.58303 0.68989 0.26416 0.0
C1050 C 0.59868 0.63135 0.28768 0.0
C1051 C 0.65528 0.59286 0.26791 0.0
C1052 C 0.63386 0.61111 0.26742 0.0
C1053 C 0.57818 0.67031 0.27054 0.0
C1054 C 0.59621 0.64909 0.26879 0.0
H1055 H 0.70985 0.58543 0.25437 0.0
H1056 H 0.6746 0.61421 0.25347 0.0
H1057 H 0.61936 0.59963 0.30236 0.0
H1058 H 0.52281 0.6921 0.28544 0.0
H1059 H 0.55202 0.65659 0.28348 0.0
C1060 C 0.33935 0.83376 0.47307 0.0
C1061 C 0.31738 0.84648 0.47876 0.0
C1062 C 0.35565 0.84348 0.4663 0.0
C1063 C 0.36522 0.89723 0.45328 0.0
H1064 H 0.40947 0.86723 0.49634 0.0
C1065 C 0.40541 0.92281 0.52135 0.0
C1066 C 0.41103 0.9405 0.5073 0.0
C1067 C 0.40084 0.90828 0.51062 0.0
C1068 C 0.39743 0.8757 0.48396 0.0
H1069 H 0.29498 0.87953 0.47933 0.0
H1070 H 0.32339 0.8964 0.46849 0.0
H1071 H 0.38711 0.84807 0.48797 0.0
H1072 H 0.41817 0.95579 0.47109 0.0
H1073 H 0.4096 0.93071 0.45222 0.0
H1074 H 0.37432 0.92548 0.45106 0.0
C1075 C 0.32812 0.87896 0.46896 0.0
C1076 C 0.38474 0.86466 0.47891 0.0
C1077 C 0.31183 0.86926 0.47558 0.0
C1078 C 0.41316 0.9427 0.48229 0.0
C1079 C 0.40848 0.92824 0.47152 0.0
C1080 C 0.37788 0.90832 0.45842 0.0
C1081 C 0.35033 0.86607 0.46526 0.0
C1082 C 0.36766 0.87568 0.46459 0.0
C1083 C 0.40181 0.91116 0.48562 0.0
C1084 C 0.39322 0.89797 0.47491 0.0
H1085 H 0.34422 0.81614 0.47534 0.0
H1086 H 0.37257 0.83315 0.46322 0.0
H1087 H 0.35249 0.90601 0.44177 0.0
H1088 H 0.40362 0.92073 0.54066 0.0
H1089 H 0.39538 0.89549 0.52201 0.0
C1090 C 0.06861 0.70961 0.77028 0.0
C1091 C 0.04655 0.7108 0.77615 0.0
C1092 C 0.08532 0.68948 0.77009 0.0
C1093 C 0.09981 0.6306 0.79343 0.0
H1094 H 0.14791 0.62726 0.74242 0.0
C1095 C 0.17815 0.55263 0.78453 0.0
C1096 C 0.19803 0.55709 0.77912 0.0
C1097 C 0.15797 0.56981 0.78386 0.0
C1098 C 0.13466 0.62789 0.75686 0.0
H1099 H 0.02469 0.69171 0.78666 0.0
H1100 H 0.05415 0.65618 0.78646 0.0
H1101 H 0.11574 0.66 0.74171 0.0
H1102 H 0.2123 0.583 0.76912 0.0
H1103 H 0.17755 0.61259 0.768 0.0
H1104 H 0.11917 0.59845 0.80874 0.0
C1105 C 0.05842 0.67097 0.78204 0.0
C1106 C 0.11619 0.64671 0.75646 0.0
C1107 C 0.04156 0.69128 0.78208 0.0
C1108 C 0.19732 0.57895 0.77331 0.0
C1109 C 0.17734 0.59597 0.77249 0.0
C1110 C 0.1184 0.61165 0.79383 0.0
C1111 C 0.08052 0.66987 0.77579 0.0
C1112 C 0.09878 0.64861 0.77505 0.0
C1113 C 0.15738 0.59171 0.77751 0.0
C1114 C 0.13632 0.61035 0.77587 0.0
H1115 H 0.07304 0.72433 0.76567 0.0
H1116 H 0.10213 0.6893 0.76563 0.0
H1117 H 0.0867 0.63152 0.80805 0.0
H1118 H 0.17821 0.53592 0.78909 0.0
H1119 H 0.14288 0.56598 0.78781 0.0
C1120 C 0.81765 0.36935 0.48177 0.0
C1121 C 0.82113 0.34705 0.48319 0.0
C1122 C 0.83509 0.37742 0.47442 0.0
C1123 C 0.89323 0.35837 0.47885 0.0
H1124 H 0.88556 0.41905 0.45254 0.0
C1125 C 0.92554 0.43371 0.48273 0.0
C1126 C 0.92414 0.43059 0.50776 0.0
C1127 C 0.92093 0.41948 0.47155 0.0
C1128 C 0.88843 0.40188 0.45937 0.0
H1129 H 0.84529 0.31596 0.4765 0.0
H1130 H 0.87574 0.33016 0.46344 0.0
H1131 H 0.86056 0.4024 0.44486 0.0
H1132 H 0.91873 0.40924 0.5406 0.0
H1133 H 0.91034 0.38456 0.52127 0.0
H1134 H 0.92045 0.35816 0.49432 0.0
C1135 C 0.85955 0.34134 0.46818 0.0
C1136 C 0.87392 0.39242 0.45516 0.0
C1137 C 0.84208 0.33326 0.47552 0.0
C1138 C 0.91985 0.41204 0.52129 0.0
C1139 C 0.91522 0.39781 0.51014 0.0
C1140 C 0.9078 0.3678 0.48296 0.0
C1141 C 0.85639 0.36335 0.46835 0.0
C1142 C 0.87534 0.37102 0.46614 0.0
C1143 C 0.91488 0.40186 0.48524 0.0
C1144 C 0.90464 0.39003 0.47457 0.0
H1145 H 0.80161 0.3804 0.48723 0.0
H1146 H 0.8321 0.39442 0.47504 0.0
H1147 H 0.89485 0.3418 0.48751 0.0
H1148 H 0.92948 0.44758 0.47188 0.0
H1149 H 0.92113 0.42283 0.45231 0.0
C1150 C 0.30627 0.95782 0.23475 0.0
C1151 C 0.28648 0.95327 0.23868 0.0
C1152 C 0.32652 0.94088 0.23291 0.0
C1153 C 0.35068 0.88431 0.2197 0.0
H1154 H 0.3976 0.8783 0.25531 0.0
C1155 C 0.41692 0.80194 0.24212 0.0
C1156 C 0.43889 0.80084 0.24017 0.0
C1157 C 0.40011 0.82204 0.23985 0.0
C1158 C 0.38479 0.87992 0.24496 0.0
H1159 H 0.27241 0.92746 0.24379 0.0
H1160 H 0.30733 0.89823 0.24048 0.0
H1161 H 0.36484 0.91106 0.25489 0.0
H1162 H 0.46047 0.82003 0.23463 0.0
H1163 H 0.43081 0.85552 0.23078 0.0
H1164 H 0.37019 0.85315 0.21015 0.0
C1165 C 0.30741 0.91478 0.23858 0.0
C1166 C 0.36603 0.89869 0.24472 0.0
C1167 C 0.28733 0.93157 0.24059 0.0
C1168 C 0.44368 0.8204 0.23614 0.0
C1169 C 0.42671 0.84068 0.23404 0.0
C1170 C 0.36932 0.86567 0.21995 0.0
C1171 C 0.32729 0.91914 0.23465 0.0
C1172 C 0.34848 0.90079 0.23261 0.0
C1173 C 0.40472 0.8417 0.23565 0.0
C1174 C 0.38635 0.86292 0.23311 0.0
H1175 H 0.3061 0.97442 0.23316 0.0
H1176 H 0.34154 0.9448 0.22981 0.0
H1177 H 0.33774 0.88562 0.20971 0.0
H1178 H 0.41264 0.78719 0.24543 0.0
H1179 H 0.38337 0.82216 0.24169 0.0
C1180 C 0.28648 0.43255 0.74371 0.0
C1181 C 0.28555 0.45429 0.74173 0.0
C1182 C 0.30658 0.41579 0.74169 0.0
C1183 C 0.36533 0.39994 0.74754 0.0
H1184 H 0.36946 0.35399 0.71362 0.0
C1185 C 0.44337 0.32198 0.73883 0.0
C1186 C 0.43881 0.30228 0.74294 0.0
C1187 C 0.42623 0.34214 0.73682 0.0
C1188 C 0.36859 0.36661 0.72325 0.0
H1189 H 0.30511 0.4755 0.73624 0.0
H1190 H 0.3406 0.44594 0.73278 0.0
H1191 H 0.33689 0.38634 0.71318 0.0
H1192 H 0.41277 0.28831 0.74847 0.0
H1193 H 0.38322 0.32309 0.74491 0.0
H1194 H 0.39704 0.37979 0.75793 0.0
C1195 C 0.32561 0.44197 0.73591 0.0
C1196 C 0.34988 0.3852 0.723 0.0
C1197 C 0.30532 0.45889 0.73778 0.0
C1198 C 0.41689 0.30317 0.7451 0.0
C1199 C 0.39991 0.32316 0.74293 0.0
C1200 C 0.38416 0.38124 0.74777 0.0
C1201 C 0.32645 0.4202 0.7377 0.0
C1202 C 0.34769 0.40186 0.73567 0.0
C1203 C 0.40428 0.34295 0.73862 0.0
C1204 C 0.38574 0.36408 0.73615 0.0
H1205 H 0.27158 0.4284 0.74694 0.0
H1206 H 0.30654 0.39923 0.74363 0.0
H1207 H 0.36416 0.41242 0.75753 0.0
H1208 H 0.46011 0.32178 0.7372 0.0
H1209 H 0.43017 0.35708 0.73348 0.0
C1210 C 0.16577 0.75676 0.55178 0.0
C1211 C 0.17934 0.769 0.55193 0.0
C1212 C 0.14703 0.7583 0.56823 0.0
C1213 C 0.10702 0.79216 0.61022 0.0
H1214 H 0.09916 0.73717 0.64146 0.0
C1215 C 0.04306 0.78537 0.69313 0.0
C1216 C 0.03316 0.76927 0.69595 0.0
C1217 C 0.05966 0.78675 0.67437 0.0
C1218 C 0.10081 0.75273 0.63267 0.0
H1219 H 0.18318 0.7931 0.56926 0.0
H1220 H 0.15023 0.79587 0.59802 0.0
H1221 H 0.13021 0.73726 0.61115 0.0
H1222 H 0.03228 0.74265 0.68051 0.0
H1223 H 0.06066 0.74546 0.64747 0.0
H1224 H 0.07748 0.80766 0.63167 0.0
C1225 C 0.15424 0.78507 0.58501 0.0
C1226 C 0.11872 0.75276 0.61531 0.0
C1227 C 0.17316 0.78344 0.56856 0.0
C1228 C 0.03963 0.75516 0.67899 0.0
C1229 C 0.05609 0.75666 0.66013 0.0
C1230 C 0.08895 0.79216 0.62751 0.0
C1231 C 0.14119 0.77219 0.58531 0.0
C1232 C 0.12205 0.77245 0.60384 0.0
C1233 C 0.06669 0.77215 0.65784 0.0
C1234 C 0.08559 0.77242 0.63898 0.0
H1235 H 0.16986 0.7455 0.5393 0.0
H1236 H 0.13717 0.74841 0.56769 0.0
H1237 H 0.10902 0.80762 0.60156 0.0
H1238 H 0.03859 0.79643 0.70594 0.0
H1239 H 0.06753 0.79875 0.67341 0.0
C1240 C 0.21737 0.94709 0.32404 0.0
C1241 C 0.23355 0.9568 0.3222 0.0
C1242 C 0.21648 0.92937 0.34203 0.0
C1243 C 0.2505 0.88574 0.38575 0.0
H1244 H 0.19491 0.8766 0.41029 0.0
C1245 C 0.24182 0.81331 0.46084 0.0
C1246 C 0.22932 0.80178 0.45599 0.0
C1247 C 0.24212 0.83323 0.44645 0.0
C1248 C 0.2106 0.87886 0.40359 0.0
H1249 H 0.26118 0.95564 0.33849 0.0
H1250 H 0.2592 0.92535 0.37029 0.0
H1251 H 0.19563 0.90948 0.3822 0.0
H1252 H 0.20708 0.80221 0.43242 0.0
H1253 H 0.20716 0.83694 0.40773 0.0
H1254 H 0.26532 0.85508 0.40754 0.0
C1255 C 0.24749 0.93099 0.35744 0.0
C1256 C 0.21106 0.89774 0.38729 0.0
C1257 C 0.24852 0.94858 0.33926 0.0
C1258 C 0.21681 0.81075 0.43673 0.0
C1259 C 0.21679 0.83074 0.42261 0.0
C1260 C 0.25 0.86696 0.40231 0.0
C1261 C 0.2316 0.92089 0.35899 0.0
C1262 C 0.23105 0.90135 0.37773 0.0
C1263 C 0.22958 0.8422 0.4271 0.0
C1264 C 0.23006 0.86309 0.41114 0.0
H1265 H 0.2057 0.95276 0.31111 0.0
H1266 H 0.20424 0.92196 0.34213 0.0
H1267 H 0.26629 0.8876 0.37871 0.0
H1268 H 0.25179 0.80663 0.47533 0.0
H1269 H 0.25213 0.84163 0.45048 0.0
C1270 C 0.96604 0.67367 0.64581 0.0
C1271 C 0.98457 0.67868 0.64795 0.0
C1272 C 0.96552 0.66461 0.62637 0.0
C1273 C 0.00279 0.63154 0.58261 0.0
H1274 H 0.94861 0.64171 0.55742 0.0
C1275 C -0.00084 0.57904 0.5176 0.0
C1276 C 0.98194 0.5703 0.52374 0.0
C1277 C -0.00105 0.5962 0.528 0.0
C1278 C 0.96386 0.63868 0.5643 0.0
H1279 H 0.01672 0.67903 0.63076 0.0
H1280 H 0.0157 0.66346 0.59645 0.0
H1281 H 0.9496 0.66524 0.584 0.0
H1282 H 0.95026 0.57371 0.54473 0.0
H1283 H 0.94979 0.60374 0.56298 0.0
H1284 H 0.01692 0.60465 0.56342 0.0
C1285 C 0.00168 0.66627 0.61007 0.0
C1286 C 0.96444 0.65214 0.57953 0.0
C1287 C 0.00219 0.67538 0.62959 0.0
C1288 C 0.96377 0.58008 0.5395 0.0
C1289 C 0.9635 0.59734 0.54993 0.0
C1290 C 0.00223 0.61812 0.56732 0.0
C1291 C 0.98349 0.66039 0.60848 0.0
C1292 C 0.98374 0.64834 0.58943 0.0
C1293 C 0.9814 0.60515 0.54482 0.0
C1294 C 0.9826 0.62118 0.55849 0.0
H1295 H 0.95205 0.67634 0.65947 0.0
H1296 H 0.95134 0.66009 0.62594 0.0
H1297 H 0.01789 0.62796 0.59005 0.0
H1298 H 0.01329 0.57198 0.50545 0.0
H1299 H 0.01284 0.60205 0.52337 0.0
C1300 C 0.32174 0.74136 0.47124 0.0
C1301 C 0.30423 0.73697 0.46511 0.0
C1302 C 0.341 0.73952 0.45547 0.0
C1303 C 0.37066 0.71953 0.39821 0.0
H1304 H 0.39946 0.76138 0.39747 0.0
C1305 C 0.44791 0.72207 0.33158 0.0
C1306 C 0.45002 0.74269 0.32231 0.0
C1307 C 0.43171 0.71971 0.35052 0.0
C1308 C 0.39154 0.74971 0.39715 0.0
H1309 H 0.29327 0.727 0.43768 0.0
H1310 H 0.32634 0.72472 0.4097 0.0
H1311 H 0.36808 0.7605 0.42659 0.0
H1312 H 0.43663 0.77701 0.32559 0.0
H1313 H 0.40809 0.77313 0.35764 0.0
H1314 H 0.39327 0.70981 0.36765 0.0
C1315 C 0.32567 0.72887 0.42701 0.0
C1316 C 0.37366 0.74889 0.4143 0.0
C1317 C 0.30658 0.73025 0.44304 0.0
C1318 C 0.43569 0.76082 0.33248 0.0
C1319 C 0.41931 0.75854 0.35107 0.0
C1320 C 0.38832 0.72062 0.38075 0.0
C1321 C 0.34308 0.73377 0.43283 0.0
C1322 C 0.36283 0.73387 0.41506 0.0
C1323 C 0.41699 0.73797 0.36039 0.0
C1324 C 0.39893 0.73587 0.37982 0.0
H1325 H 0.32051 0.74641 0.48822 0.0
H1326 H 0.35416 0.74285 0.46102 0.0
H1327 H 0.36311 0.70745 0.39836 0.0
H1328 H 0.45875 0.70776 0.32417 0.0
H1329 H 0.43078 0.70353 0.3574 0.0
C1330 C 0.23694 0.06036 0.18146 0.0
C1331 C 0.25296 0.05094 0.19736 0.0
C1332 C 0.2381 0.07784 0.16317 0.0
C1333 C 0.26172 0.12273 0.14744 0.0
H1334 H 0.24748 0.1279 0.08377 0.0
C1335 C 0.27496 0.19188 0.07358 0.0
C1336 C 0.25932 0.20234 0.05748 0.0
C1337 C 0.27483 0.17244 0.08883 0.0
C1338 C 0.25129 0.12688 0.10151 0.0
H1339 H 0.28306 0.05248 0.20595 0.0
H1340 H 0.28508 0.08278 0.17419 0.0
H1341 H 0.24593 0.09604 0.1137 0.0
H1342 H 0.23124 0.20058 0.04484 0.0
H1343 H 0.23075 0.16655 0.07152 0.0
H1344 H 0.26667 0.15358 0.13569 0.0
C1345 C 0.27147 0.07679 0.17597 0.0
C1346 C 0.25043 0.10854 0.11872 0.0
C1347 C 0.27039 0.05924 0.19412 0.0
C1348 C 0.24385 0.19255 0.05652 0.0
C1349 C 0.24354 0.17309 0.07201 0.0
C1350 C 0.26245 0.14105 0.13037 0.0
C1351 C 0.25521 0.08654 0.16038 0.0
C1352 C 0.25582 0.10612 0.14189 0.0
C1353 C 0.25875 0.163 0.08882 0.0
C1354 C 0.25747 0.14338 0.10703 0.0
H1355 H 0.22323 0.05449 0.18337 0.0
H1356 H 0.2252 0.08498 0.15167 0.0
H1357 H 0.26548 0.12178 0.1652 0.0
H1358 H 0.28708 0.19905 0.0748 0.0
H1359 H 0.2872 0.16501 0.10095 0.0
C1360 C 0.81759 0.72333 0.95913 0.0
C1361 C 0.80975 0.74011 0.97304 0.0
C1362 C 0.83684 0.72104 0.94314 0.0
C1363 C 0.88625 0.73896 0.92673 0.0
H1364 H 0.88527 0.7269 0.86429 0.0
C1365 C 0.94594 0.7564 0.84365 0.0
C1366 C 0.9539 0.7414 0.82754 0.0
C1367 C 0.93015 0.754 0.863 0.0
C1368 C 0.88598 0.72998 0.88174 0.0
H1369 H 0.81653 0.76727 0.98144 0.0
H1370 H 0.8496 0.76349 0.95351 0.0
H1371 H 0.85464 0.72644 0.89521 0.0
H1372 H 0.95187 0.71175 0.81963 0.0
H1373 H 0.92442 0.70759 0.85338 0.0
H1374 H 0.91738 0.74307 0.91292 0.0
C1375 C 0.84117 0.75184 0.95511 0.0
C1376 C 0.86839 0.72967 0.89954 0.0
C1377 C 0.82203 0.75407 0.97112 0.0
C1378 C 0.94613 0.72363 0.83165 0.0
C1379 C 0.93025 0.72131 0.85091 0.0
C1380 C 0.90378 0.73939 0.90887 0.0
C1381 C 0.84869 0.73551 0.94062 0.0
C1382 C 0.86817 0.73435 0.92222 0.0
C1383 C 0.92183 0.73663 0.86663 0.0
C1384 C 0.90378 0.73507 0.88609 0.0
H1385 H 0.80861 0.71226 0.96017 0.0
H1386 H 0.84232 0.70804 0.93257 0.0
H1387 H 0.88686 0.7423 0.94407 0.0
H1388 H 0.95151 0.77031 0.84103 0.0
H1389 H 0.9239 0.76621 0.87463 0.0
C1390 C 0.23464 0.56081 0.68259 0.0
C1391 C 0.25068 0.55186 0.69849 0.0
C1392 C 0.23516 0.57864 0.66454 0.0
C1393 C 0.25574 0.62539 0.6505 0.0
H1394 H 0.24365 0.63043 0.58593 0.0
C1395 C 0.26832 0.69578 0.57848 0.0
C1396 C 0.25365 0.70564 0.56131 0.0
C1397 C 0.26805 0.67638 0.59364 0.0
C1398 C 0.2468 0.62946 0.60394 0.0
H1399 H 0.28019 0.55452 0.70727 0.0
H1400 H 0.28106 0.58548 0.67596 0.0
H1401 H 0.24315 0.59777 0.61507 0.0
H1402 H 0.22695 0.7029 0.54665 0.0
H1403 H 0.22619 0.66892 0.57338 0.0
H1404 H 0.25891 0.65706 0.63989 0.0
C1405 C 0.26796 0.57882 0.67754 0.0
C1406 C 0.24657 0.61065 0.62066 0.0
C1407 C 0.26755 0.5609 0.69542 0.0
C1408 C 0.23882 0.6954 0.55933 0.0
C1409 C 0.23835 0.67596 0.57478 0.0
C1410 C 0.25578 0.64418 0.63395 0.0
C1411 C 0.25161 0.58816 0.66204 0.0
C1412 C 0.25132 0.60826 0.64411 0.0
C1413 C 0.25275 0.66635 0.59249 0.0
C1414 C 0.25164 0.64644 0.61027 0.0
H1415 H 0.22138 0.55434 0.68437 0.0
H1416 H 0.22224 0.58543 0.65305 0.0
H1417 H 0.25892 0.62442 0.66851 0.0
H1418 H 0.28 0.70324 0.58039 0.0
H1419 H 0.27984 0.66932 0.60644 0.0
C1420 C 0.34975 0.96655 0.38321 0.0
C1421 C 0.33326 0.98574 0.3749 0.0
C1422 C 0.36297 0.9668 0.39939 0.0
C1423 C 0.37137 1.00028 0.43844 0.0
H1424 H 0.43222 0.97622 0.41275 0.0
C1425 C 0.4411 0.0223 0.46461 0.0
C1426 C 0.46216 0.00673 0.46365 0.0
C1427 C 0.42394 0.0185 0.45701 0.0
C1428 C 0.41541 0.98269 0.42063 0.0
H1429 H 0.31654 0.01976 0.37849 0.0
H1430 H 0.33966 0.02022 0.40656 0.0
H1431 H 0.40413 0.97008 0.39642 0.0
H1432 H 0.48165 0.97448 0.45567 0.0
H1433 H 0.45174 0.96711 0.44432 0.0
H1434 H 0.38267 0.01329 0.46237 0.0
C1435 C 0.34229 1.00494 0.40078 0.0
C1436 C 0.39923 0.9791 0.41121 0.0
C1437 C 0.32903 1.00467 0.38466 0.0
C1438 C 0.46562 0.98694 0.45616 0.0
C1439 C 0.44844 0.98283 0.4494 0.0
C1440 C 0.38763 1.00379 0.44802 0.0
C1441 C 0.36001 0.98627 0.40746 0.0
C1442 C 0.37702 0.988 0.41982 0.0
C1443 C 0.42749 0.9988 0.44896 0.0
C1444 C 0.40991 0.99507 0.4392 0.0
H1445 H 0.3531 0.95162 0.37631 0.0
H1446 H 0.37622 0.95203 0.40466 0.0
H1447 H 0.35436 0.00733 0.44544 0.0
H1448 H 0.43808 0.03763 0.47049 0.0
H1449 H 0.40812 0.03126 0.45687 0.0
C1450 C 0.85252 0.81811 0.97232 0.0
C1451 C 0.83121 0.83278 0.97655 0.0
C1452 C 0.87015 0.82586 0.96402 0.0
C1453 C 0.88409 0.87781 0.94855 0.0
H1454 H 0.92437 0.84701 0.99567 0.0
C1455 C 0.91526 0.90147 0.02553 0.0
C1456 C 0.91941 0.92063 0.01376 0.0
C1457 C 0.91345 0.88698 0.01244 0.0
C1458 C 0.91342 0.85575 0.98222 0.0
H1459 H 0.81116 0.86688 0.97302 0.0
H1460 H 0.84164 0.88046 0.95942 0.0
H1461 H 0.90279 0.82863 0.98443 0.0
H1462 H 0.92679 0.9387 0.97918 0.0
H1463 H 0.92357 0.91345 0.95623 0.0
H1464 H 0.89287 0.90575 0.94858 0.0
C1465 C 0.84505 0.863 0.96195 0.0
C1466 C 0.90121 0.8451 0.97544 0.0
C1467 C 0.82745 0.85524 0.96994 0.0
C1468 C 0.923 0.92435 0.98867 0.0
C1469 C 0.92128 0.90982 0.97555 0.0
C1470 C 0.89603 0.88859 0.95567 0.0
C1471 C 0.86676 0.8484 0.96024 0.0
C1472 C 0.88516 0.85655 0.9599 0.0
C1473 C 0.9159 0.89124 0.98728 0.0
C1474 C 0.90958 0.87811 0.97391 0.0
H1475 H 0.85571 0.80065 0.97683 0.0
H1476 H 0.88656 0.81416 0.96226 0.0
H1477 H 0.87247 0.88686 0.93586 0.0
H1478 H 0.91237 0.89819 0.04483 0.0
H1479 H 0.90883 0.87309 0.02216 0.0
C1480 C 0.67517 0.14057 0.5408 0.0
C1481 C 0.67005 0.1632 0.53897 0.0
C1482 C 0.65876 0.13107 0.54822 0.0
C1483 C 0.60097 0.14654 0.5431 0.0
H1484 H 0.61205 0.08521 0.56887 0.0
C1485 C 0.57193 0.06907 0.53905 0.0
C1486 C 0.57316 0.07211 0.51404 0.0
C1487 C 0.57673 0.08328 0.5501 0.0
C1488 C 0.60829 0.10251 0.56217 0.0
H1489 H 0.64402 0.19338 0.54529 0.0
H1490 H 0.61547 0.17668 0.55864 0.0
H1491 H 0.63522 0.10381 0.57696 0.0
H1492 H 0.57895 0.09318 0.48106 0.0
H1493 H 0.58739 0.11795 0.50018 0.0
H1494 H 0.57471 0.14496 0.52737 0.0
C1495 C 0.63212 0.16635 0.55404 0.0
C1496 C 0.62172 0.1131 0.56661 0.0
C1497 C 0.64853 0.17587 0.54653 0.0
C1498 C 0.57785 0.09044 0.50036 0.0
C1499 C 0.58254 0.1047 0.51137 0.0
C1500 C 0.58751 0.13598 0.53874 0.0
C1501 C 0.63689 0.144 0.55402 0.0
C1502 C 0.61903 0.13484 0.55589 0.0
C1503 C 0.58264 0.10093 0.53629 0.0
C1504 C 0.59193 0.11354 0.54697 0.0
H1505 H 0.69169 0.13034 0.53552 0.0
H1506 H 0.66302 0.11383 0.54778 0.0
H1507 H 0.59837 0.16331 0.53458 0.0
H1508 H 0.56765 0.05548 0.55003 0.0
H1509 H 0.57645 0.08011 0.56934 0.0
C1510 C 0.79381 0.43189 0.26182 0.0
C1511 C 0.79258 0.45351 0.25208 0.0
C1512 C 0.81399 0.41519 0.26263 0.0
C1513 C 0.87087 0.39886 0.23395 0.0
H1514 H 0.8784 0.35249 0.28875 0.0
C1515 C 0.94732 0.31856 0.24069 0.0
C1516 C 0.94178 0.2994 0.24835 0.0
C1517 C 0.93118 0.33915 0.24185 0.0
C1518 C 0.87658 0.36528 0.2733 0.0
H1519 H 0.81167 0.47466 0.23577 0.0
H1520 H 0.84739 0.44512 0.23702 0.0
H1521 H 0.84676 0.38565 0.29001 0.0
H1522 H 0.91513 0.28676 0.26328 0.0
H1523 H 0.88724 0.32235 0.26546 0.0
H1524 H 0.90065 0.37805 0.21714 0.0
C1525 C 0.83254 0.44122 0.24399 0.0
C1526 C 0.85842 0.38431 0.274 0.0
C1527 C 0.81215 0.45812 0.24336 0.0
C1528 C 0.91993 0.3012 0.25724 0.0
C1529 C 0.90395 0.32162 0.25864 0.0
C1530 C 0.88919 0.37974 0.23329 0.0
C1531 C 0.83366 0.41953 0.25368 0.0
C1532 C 0.8549 0.40105 0.25407 0.0
C1533 C 0.90932 0.34087 0.25104 0.0
C1534 C 0.89185 0.36245 0.2527 0.0
H1535 H 0.77906 0.42776 0.26874 0.0
H1536 H 0.81411 0.3987 0.26984 0.0
H1537 H 0.86864 0.41138 0.21827 0.0
H1538 H 0.96406 0.31763 0.2338 0.0
H1539 H 0.93583 0.35368 0.2359 0.0
C1540 C 0.06645 0.60077 0.50224 0.0
C1541 C 0.06653 0.57987 0.51382 0.0
C1542 C 0.06841 0.61546 0.51497 0.0
C1543 C 0.09838 0.61322 0.56053 0.0
H1544 H 0.07166 0.67617 0.54883 0.0
C1545 C 0.15054 0.66525 0.55894 0.0
C1546 C 0.14951 0.68062 0.53789 0.0
C1547 C 0.13364 0.65638 0.56714 0.0
C1548 C 0.07927 0.65861 0.55243 0.0
H1549 H 0.06656 0.55895 0.54825 0.0
H1550 H 0.07133 0.58411 0.57019 0.0
H1551 H 0.05252 0.65315 0.54142 0.0
H1552 H 0.12956 0.6997 0.5097 0.0
H1553 H 0.10076 0.68387 0.52324 0.0
H1554 H 0.12614 0.61834 0.56887 0.0
C1555 C 0.06962 0.58908 0.55132 0.0
C1556 C 0.06821 0.64549 0.54835 0.0
C1557 C 0.06729 0.57455 0.53865 0.0
C1558 C 0.13073 0.68799 0.52608 0.0
C1559 C 0.11405 0.67897 0.53405 0.0
C1560 C 0.10963 0.62631 0.56413 0.0
C1561 C 0.07073 0.60946 0.53944 0.0
C1562 C 0.07831 0.62277 0.55103 0.0
C1563 C 0.11564 0.66245 0.55417 0.0
C1564 C 0.10083 0.64919 0.55856 0.0
H1565 H 0.06592 0.60545 0.48315 0.0
H1566 H 0.06961 0.63098 0.50531 0.0
H1567 H 0.10651 0.5957 0.56274 0.0
H1568 H 0.1647 0.65961 0.5686 0.0
H1569 H 0.13521 0.64403 0.58298 0.0
C1570 C 0.67951 0.05589 0.7807 0.0
C1571 C 0.69913 0.06071 0.77338 0.0
C1572 C 0.65909 0.07275 0.78012 0.0
C1573 C 0.63385 0.13019 0.75142 0.0
H1574 H 0.5882 0.13406 0.80518 0.0
C1575 C 0.56798 0.21165 0.76651 0.0
C1576 C 0.54608 0.21258 0.77353 0.0
C1577 C 0.58479 0.19164 0.76574 0.0
C1578 C 0.60065 0.13305 0.78987 0.0
H1579 H 0.71269 0.0869 0.75981 0.0
H1580 H 0.67756 0.11593 0.75889 0.0
H1581 H 0.62106 0.10142 0.80514 0.0
H1582 H 0.5246 0.19316 0.78547 0.0
H1583 H 0.55426 0.15783 0.78441 0.0
H1584 H 0.61391 0.1619 0.73639 0.0
C1585 C 0.6777 0.09927 0.76482 0.0
C1586 C 0.61947 0.11434 0.78984 0.0
C1587 C 0.69792 0.08259 0.76553 0.0
C1588 C 0.54135 0.19293 0.78 0.0
C1589 C 0.55832 0.17274 0.77946 0.0
C1590 C 0.61517 0.1488 0.75148 0.0
C1591 C 0.65797 0.09466 0.77196 0.0
C1592 C 0.6366 0.11297 0.77089 0.0
C1593 C 0.58024 0.1719 0.7721 0.0
C1594 C 0.5986 0.15077 0.77098 0.0
H1595 H 0.67995 0.03916 0.78683 0.0
H1596 H 0.64421 0.06862 0.7857 0.0
H1597 H 0.64642 0.12949 0.73625 0.0
H1598 H 0.5722 0.22648 0.76142 0.0
H1599 H 0.60148 0.19163 0.76038 0.0
C1600 C 0.74158 0.5594 0.17915 0.0
C1601 C 0.7552 0.55251 0.1975 0.0
C1602 C 0.74199 0.57757 0.16148 0.0
C1603 C 0.75423 0.62874 0.15271 0.0
H1604 H 0.7568 0.63004 0.08484 0.0
C1605 C 0.76771 0.70174 0.08564 0.0
C1606 C 0.75762 0.70892 0.06458 0.0
C1607 C 0.76745 0.68213 0.10039 0.0
C1608 C 0.75574 0.63014 0.10373 0.0
H1609 H 0.78026 0.55932 0.21115 0.0
H1610 H 0.78073 0.5909 0.18071 0.0
H1611 H 0.75611 0.59686 0.11299 0.0
H1612 H 0.73986 0.70074 0.04212 0.0
H1613 H 0.73853 0.66671 0.06836 0.0
H1614 H 0.75317 0.66195 0.14398 0.0
C1615 C 0.76973 0.58227 0.17995 0.0
C1616 C 0.75543 0.61103 0.11988 0.0
C1617 C 0.76955 0.564 0.19735 0.0
C1618 C 0.74766 0.69568 0.0583 0.0
C1619 C 0.74705 0.67608 0.07334 0.0
C1620 C 0.75422 0.64785 0.13671 0.0
C1621 C 0.75576 0.58952 0.16196 0.0
C1622 C 0.75505 0.60999 0.14456 0.0
C1623 C 0.75669 0.66914 0.09487 0.0
C1624 C 0.75541 0.64883 0.11187 0.0
H1625 H 0.73027 0.55104 0.17869 0.0
H1626 H 0.73096 0.58274 0.14794 0.0
H1627 H 0.75342 0.62872 0.17161 0.0
H1628 H 0.77578 0.7114 0.09088 0.0
H1629 H 0.77575 0.67722 0.11623 0.0
C1630 C 0.94272 0.51913 0.46758 0.0
C1631 C 0.96448 0.50543 0.46379 0.0
C1632 C 0.92577 0.51423 0.46104 0.0
C1633 C 0.91724 0.48124 0.42164 0.0
H1634 H 0.85787 0.49853 0.45376 0.0
C1635 C 0.84911 0.47252 0.38081 0.0
C1636 C 0.83092 0.49175 0.37852 0.0
C1637 C 0.86386 0.46931 0.39692 0.0
C1638 C 0.87438 0.49357 0.44458 0.0
H1639 H 0.98563 0.47521 0.45176 0.0
H1640 H 0.95619 0.46603 0.44162 0.0
H1641 H 0.88681 0.50395 0.46989 0.0
H1642 H 0.81247 0.52132 0.3933 0.0
H1643 H 0.83847 0.51624 0.42055 0.0
H1644 H 0.90466 0.47211 0.39556 0.0
C1645 C 0.95208 0.48111 0.44847 0.0
C1646 C 0.89102 0.49668 0.45384 0.0
C1647 C 0.96899 0.48631 0.45439 0.0
C1648 C 0.82664 0.50659 0.39427 0.0
C1649 C 0.84146 0.5035 0.41016 0.0
C1650 C 0.90059 0.47835 0.41227 0.0
C1651 C 0.93028 0.49526 0.45111 0.0
C1652 C 0.91265 0.49077 0.44234 0.0
C1653 C 0.8608 0.48534 0.41087 0.0
C1654 C 0.87885 0.4849 0.42332 0.0
H1655 H 0.9389 0.53391 0.47495 0.0
H1656 H 0.90926 0.52565 0.46318 0.0
H1657 H 0.93352 0.47692 0.41189 0.0
H1658 H 0.85281 0.46071 0.36901 0.0
H1659 H 0.8783 0.45484 0.39748 0.0
C1660 C 0.1617 0.50282 0.63106 0.0
C1661 C 0.15738 0.51978 0.64407 0.0
C1662 C 0.14833 0.50494 0.61393 0.0
C1663 C 0.09103 0.53139 0.60669 0.0
H1664 H 0.10617 0.5042 0.55003 0.0
C1665 C 0.02352 0.52508 0.56221 0.0
C1666 C 0.02762 0.50594 0.55306 0.0
C1667 C 0.04059 0.52958 0.56872 0.0
C1668 C 0.10165 0.51172 0.56593 0.0
H1669 H 0.13716 0.55309 0.64765 0.0
H1670 H 0.11399 0.55692 0.61744 0.0
H1671 H 0.13493 0.50874 0.56766 0.0
H1672 H 0.05264 0.47676 0.54274 0.0
H1673 H 0.08254 0.48382 0.55557 0.0
H1674 H 0.05813 0.53344 0.60601 0.0
C1675 C 0.12748 0.54184 0.6208 0.0
C1676 C 0.11813 0.51448 0.57588 0.0
C1677 C 0.14086 0.53971 0.63794 0.0
C1678 C 0.04915 0.49155 0.54996 0.0
C1679 C 0.06625 0.49575 0.55711 0.0
C1680 C 0.07466 0.5285 0.59692 0.0
C1681 C 0.13041 0.52408 0.60953 0.0
C1682 C 0.11299 0.52408 0.59656 0.0
C1683 C 0.0621 0.51468 0.56695 0.0
C1684 C 0.07972 0.51844 0.57653 0.0
H1685 H 0.1746 0.48741 0.63514 0.0
H1686 H 0.15101 0.49096 0.60557 0.0
H1687 H 0.08658 0.53834 0.62298 0.0
H1688 H 0.00708 0.53671 0.56424 0.0
H1689 H 0.03679 0.5447 0.57537 0.0
C1690 C 0.54251 0.7867 0.19178 0.0
C1691 C 0.5338 0.76971 0.1946 0.0
C1692 C 0.55939 0.78846 0.17355 0.0
C1693 C 0.58736 0.77126 0.11579 0.0
H1694 H 0.63706 0.78 0.13405 0.0
C1695 C 0.67012 0.75811 0.05504 0.0
C1696 C 0.68262 0.77138 0.05523 0.0
C1697 C 0.65097 0.75941 0.07088 0.0
C1698 C 0.6232 0.77794 0.12845 0.0
H1699 H 0.53556 0.74168 0.17983 0.0
H1700 H 0.56487 0.74488 0.14791 0.0
H1701 H 0.60524 0.77988 0.16331 0.0
H1702 H 0.68424 0.797 0.07184 0.0
H1703 H 0.65059 0.79969 0.09902 0.0
H1704 H 0.60524 0.7694 0.08089 0.0
C1705 C 0.55861 0.75686 0.15983 0.0
C1706 C 0.60494 0.77782 0.14531 0.0
C1707 C 0.54185 0.75498 0.1782 0.0
C1708 C 0.67514 0.78642 0.07126 0.0
C1709 C 0.65588 0.78784 0.08701 0.0
C1710 C 0.60556 0.77155 0.09885 0.0
C1711 C 0.56786 0.77338 0.15755 0.0
C1712 C 0.58686 0.77434 0.13924 0.0
C1713 C 0.64367 0.77415 0.08726 0.0
C1714 C 0.62382 0.77475 0.10498 0.0
H1715 H 0.53675 0.79834 0.20408 0.0
H1716 H 0.56596 0.80154 0.17209 0.0
H1717 H 0.57358 0.76878 0.11048 0.0
H1718 H 0.67536 0.74628 0.04302 0.0
H1719 H 0.64226 0.74838 0.0707 0.0
C1720 C 0.63393 0.53595 0.1466 0.0
C1721 C 0.65302 0.51755 0.14745 0.0
C1722 C 0.61844 0.53857 0.13162 0.0
C1723 C 0.60791 0.51526 0.08326 0.0
H1724 H 0.54851 0.53216 0.11546 0.0
C1725 C 0.53797 0.49451 0.05679 0.0
C1726 C 0.51735 0.51083 0.0568 0.0
C1727 C 0.55498 0.4972 0.06584 0.0
C1728 C 0.56496 0.52765 0.10607 0.0
H1729 H 0.67188 0.48868 0.1315 0.0
H1730 H 0.6446 0.49268 0.10627 0.0
H1731 H 0.57777 0.53506 0.13327 0.0
H1732 H 0.49829 0.54292 0.06566 0.0
H1733 H 0.52807 0.54788 0.08078 0.0
H1734 H 0.59507 0.50672 0.05672 0.0
C1735 C 0.64152 0.50525 0.11691 0.0
C1736 C 0.58177 0.52946 0.1162 0.0
C1737 C 0.65709 0.50279 0.13164 0.0
C1738 C 0.514 0.52994 0.06574 0.0
C1739 C 0.53103 0.53278 0.07442 0.0
C1740 C 0.59111 0.51313 0.07332 0.0
C1741 C 0.62162 0.52274 0.11737 0.0
C1742 C 0.60351 0.52309 0.10506 0.0
C1743 C 0.55168 0.51641 0.07467 0.0
C1744 C 0.56948 0.51921 0.08469 0.0
H1745 H 0.63029 0.54764 0.15853 0.0
H1746 H 0.60355 0.55254 0.13197 0.0
H1747 H 0.62438 0.51049 0.07399 0.0
H1748 H 0.54087 0.47962 0.05001 0.0
H1749 H 0.57065 0.4842 0.06606 0.0
C1750 C 0.42308 0.42177 0.03151 0.0
C1751 C 0.40494 0.4399 0.0371 0.0
C1752 C 0.42091 0.40123 0.03452 0.0
C1753 C 0.40573 0.36535 0.02607 0.0
H1754 H 0.36704 0.34751 0.0794 0.0
C1755 C 0.34756 0.32255 0.01865 0.0
C1756 C 0.33977 0.31022 0.03894 0.0
C1757 C 0.36384 0.33099 0.01986 0.0
C1758 C 0.3784 0.35179 0.06468 0.0
H1759 H 0.37045 0.45078 0.05069 0.0
H1760 H 0.36654 0.41486 0.05591 0.0
H1761 H 0.37883 0.37802 0.08023 0.0
H1762 H 0.34464 0.29478 0.0755 0.0
H1763 H 0.3732 0.3096 0.07766 0.0
H1764 H 0.40457 0.33962 1.01009 0.0
C1765 C 0.38252 0.41649 0.04941 0.0
C1766 C 0.38487 0.3695 0.06502 0.0
C1767 C 0.38468 0.43705 0.0463 0.0
C1768 C 0.35004 0.30469 0.05977 0.0
C1769 C 0.3664 0.31308 0.06097 0.0
C1770 C 0.39927 0.34758 0.02572 0.0
C1771 C 0.40059 0.39842 0.04344 0.0
C1772 C 0.3977 0.37708 0.04524 0.0
C1773 C 0.37264 0.32723 0.0414 0.0
C1774 C 0.38466 0.34133 0.04451 0.0
H1775 H 0.43902 0.42345 0.02512 0.0
H1776 H 0.43513 0.38754 0.03 0.0
H1777 H 0.41572 0.37081 0.0106 0.0
H1778 H 0.3399 0.32717 1.00237 0.0
H1779 H 0.36807 0.342 1.00452 0.0
C1780 C 0.07026 0.20686 0.26888 0.0
C1781 C 0.0482 0.20802 0.27467 0.0
C1782 C 0.08699 0.18676 0.26871 0.0
C1783 C 0.10163 0.12791 0.29195 0.0
H1784 H 0.14994 0.1249 0.24123 0.0
C1785 C 0.18032 0.05034 0.28317 0.0
C1786 C 0.20015 0.05489 0.27805 0.0
C1787 C 0.1601 0.06746 0.28244 0.0
C1788 C 0.13663 0.12545 0.25558 0.0
H1789 H 0.02636 0.18889 0.28504 0.0
H1790 H 0.0559 0.15338 0.28483 0.0
H1791 H 0.11756 0.15745 0.24034 0.0
H1792 H 0.21432 0.08086 0.26847 0.0
H1793 H 0.17947 0.11038 0.2672 0.0
H1794 H 0.12113 0.09586 0.30733 0.0
C1795 C 0.06013 0.16819 0.28048 0.0
C1796 C 0.11804 0.14415 0.25508 0.0
C1797 C 0.04323 0.18848 0.28053 0.0
C1798 C 0.19937 0.07677 0.27245 0.0
C1799 C 0.17934 0.09373 0.27154 0.0
C1800 C 0.12034 0.10907 0.29244 0.0
C1801 C 0.08223 0.16714 0.27431 0.0
C1802 C 0.10056 0.14593 0.27359 0.0
C1803 C 0.15943 0.08937 0.2763 0.0
C1804 C 0.13832 0.10791 0.27458 0.0
H1805 H 0.07467 0.22158 0.26435 0.0
H1806 H 0.10379 0.18662 0.26434 0.0
H1807 H 0.08847 0.12876 0.30651 0.0
H1808 H 0.18044 0.03361 0.28756 0.0
H1809 H 0.14505 0.06355 0.28617 0.0
C1810 C 0.24418 0.31289 0.95993 0.0
C1811 C 0.22771 0.30417 0.95951 0.0
C1812 C 0.24464 0.33255 0.94499 0.0
C1813 C 0.2237 0.3675 0.88868 0.0
H1814 H 0.24271 0.41031 0.90655 0.0
C1815 C 0.21486 0.45097 0.82849 0.0
C1816 C 0.23265 0.45882 0.82473 0.0
C1817 C 0.21413 0.43299 0.84613 0.0
C1818 C 0.23751 0.39844 0.90121 0.0
H1819 H 0.19867 0.3093 0.94348 0.0
H1820 H 0.1989 0.34367 0.91824 0.0
H1821 H 0.24164 0.37757 0.93525 0.0
H1822 H 0.26338 0.45406 0.83737 0.0
H1823 H 0.26204 0.42276 0.8682 0.0
H1824 H 0.21951 0.38824 0.85476 0.0
C1825 C 0.21181 0.33533 0.9296 0.0
C1826 C 0.23692 0.3796 0.91769 0.0
C1827 C 0.2115 0.3157 0.9443 0.0
C1828 C 0.24938 0.44855 0.83971 0.0
C1829 C 0.24858 0.4306 0.85749 0.0
C1830 C 0.22417 0.3863 0.87234 0.0
C1831 C 0.22865 0.34387 0.92923 0.0
C1832 C 0.22982 0.3639 0.91174 0.0
C1833 C 0.23113 0.4223 0.86067 0.0
C1834 C 0.23093 0.40215 0.87835 0.0
H1835 H 0.2574 0.30393 0.97072 0.0
H1836 H 0.25805 0.33836 0.94506 0.0
H1837 H 0.21873 0.35561 0.88304 0.0
H1838 H 0.20165 0.4584 0.8174 0.0
H1839 H 0.20024 0.42735 0.84828 0.0
C1840 C 0.31927 0.25242 0.9671 0.0
C1841 C 0.30616 0.23972 0.96699 0.0
C1842 C 0.33836 0.25075 0.95107 0.0
C1843 C 0.36444 0.23284 0.89289 0.0
H1844 H 0.41513 0.24102 0.90952 0.0
C1845 C 0.4434 0.22548 0.82685 0.0
C1846 C 0.45222 0.24238 0.82415 0.0
C1847 C 0.42707 0.22325 0.84559 0.0
C1848 C 0.40105 0.23881 0.90458 0.0
H1849 H 0.30359 0.21452 0.9504 0.0
H1850 H 0.33713 0.21118 0.9229 0.0
H1851 H 0.38414 0.24003 0.93998 0.0
H1852 H 0.45123 0.26974 0.83964 0.0
H1853 H 0.42287 0.26571 0.87243 0.0
H1854 H 0.38139 0.2316 0.85751 0.0
C1855 C 0.33233 0.22291 0.93501 0.0
C1856 C 0.38324 0.23829 0.92203 0.0
C1857 C 0.31313 0.22469 0.95095 0.0
C1858 C 0.44485 0.25652 0.84116 0.0
C1859 C 0.42863 0.25417 0.86003 0.0
C1860 C 0.38231 0.23319 0.87552 0.0
C1861 C 0.34502 0.23617 0.93456 0.0
C1862 C 0.36458 0.2355 0.91638 0.0
C1863 C 0.41926 0.23775 0.86221 0.0
C1864 C 0.40076 0.23636 0.88109 0.0
H1865 H 0.31451 0.2642 0.97912 0.0
H1866 H 0.34748 0.26144 0.95114 0.0
H1867 H 0.35025 0.23109 0.88767 0.0
H1868 H 0.44865 0.21428 0.8141 0.0
H1869 H 0.42039 0.21026 0.84695 0.0
C1870 C 0.44656 0.52424 0.95726 0.0
C1871 C 0.46754 0.50852 0.95694 0.0
C1872 C 0.4293 0.51997 0.95059 0.0
C1873 C 0.41905 0.4852 0.91558 0.0
H1874 H 0.35962 0.50555 0.94709 0.0
C1875 C 0.34977 0.474 0.87939 0.0
C1876 C 0.33249 0.49363 0.87451 0.0
C1877 C 0.36448 0.47219 0.89493 0.0
C1878 C 0.37616 0.49971 0.93819 0.0
H1879 H 0.48706 0.47597 0.94975 0.0
H1880 H 0.45698 0.46831 0.9387 0.0
H1881 H 0.38954 0.50999 0.9629 0.0
H1882 H 0.31567 0.52587 0.88396 0.0
H1883 H 0.34157 0.52289 0.91071 0.0
H1884 H 0.4058 0.47542 0.89057 0.0
C1885 C 0.45383 0.4841 0.94355 0.0
C1886 C 0.39324 0.50236 0.94714 0.0
C1887 C 0.47106 0.4885 0.94988 0.0
C1888 C 0.32907 0.51068 0.8871 0.0
C1889 C 0.34379 0.50888 0.90261 0.0
C1890 C 0.40205 0.48249 0.90672 0.0
C1891 C 0.43277 0.49982 0.94369 0.0
C1892 C 0.4148 0.49552 0.93562 0.0
C1893 C 0.3622 0.48998 0.90585 0.0
C1894 C 0.38035 0.49008 0.91763 0.0
H1895 H 0.44354 0.53981 0.96258 0.0
H1896 H 0.41334 0.53253 0.95054 0.0
H1897 H 0.4354 0.48002 0.90607 0.0
H1898 H 0.35286 0.46058 0.86996 0.0
H1899 H 0.37832 0.45728 0.89741 0.0
C1900 C 0.62416 0.71153 1.00488 0.0
C1901 C 0.64417 0.69971 0.01404 0.0
C1902 C 0.60717 0.70272 1.00951 0.0
C1903 C 0.58726 0.67137 1.00064 0.0
H1904 H 0.58444 0.62381 0.0521 0.0
C1905 C 0.58503 0.59224 0.98232 0.0
C1906 C 0.57432 0.57953 0.99908 0.0
C1907 C 0.58604 0.61133 0.98751 0.0
C1908 C 0.58451 0.63731 0.03776 0.0
H1909 H 0.66165 0.67036 0.03663 0.0
H1910 H 0.63261 0.65459 0.04398 0.0
H1911 H 0.59785 0.65169 0.05833 0.0
H1912 H 0.55614 0.57684 0.03439 0.0
H1913 H 0.5576 0.61054 0.04334 0.0
H1914 H 0.57414 0.65692 0.98002 0.0
C1915 C 0.62953 0.67086 0.03376 0.0
C1916 C 0.59244 0.65319 0.04125 0.0
C1917 C 0.64633 0.67982 0.02942 0.0
C1918 C 0.56462 0.58629 0.02118 0.0
C1919 C 0.56541 0.60559 0.02628 0.0
C1920 C 0.57901 0.65574 0.9973 0.0
C1921 C 0.61011 0.68175 0.02298 0.0
C1922 C 0.59528 0.66955 0.02221 0.0
C1923 C 0.57619 0.6183 1.00949 0.0
C1924 C 0.57894 0.63777 0.01528 0.0
H1925 H 0.62202 0.72713 0.99331 0.0
H1926 H 0.59224 0.7118 1.00142 0.0
H1927 H 0.58907 0.68371 0.98552 0.0
H1928 H 0.59299 0.58722 0.96533 0.0
H1929 H 0.5951 0.62032 0.97445 0.0
C1930 C 0.91777 0.80236 0.75437 0.0
C1931 C 0.9398 0.80095 0.74733 0.0
C1932 C 0.90127 0.82261 0.75491 0.0
C1933 C 0.88667 0.88121 0.73045 0.0
H1934 H 0.84058 0.88577 0.7838 0.0
C1935 C 0.80905 0.95971 0.73949 0.0
C1936 C 0.78917 0.95533 0.74647 0.0
C1937 C 0.82924 0.94251 0.74015 0.0
C1938 C 0.85326 0.8848 0.7687 0.0
H1939 H 0.96181 0.81977 0.73511 0.0
H1940 H 0.93273 0.85549 0.73583 0.0
H1941 H 0.87249 0.8528 0.78382 0.0
H1942 H 0.77495 0.92956 0.75952 0.0
H1943 H 0.80966 0.89999 0.76059 0.0
H1944 H 0.86696 0.91318 0.71512 0.0
C1945 C 0.92832 0.84078 0.74094 0.0
C1946 C 0.87158 0.86586 0.76872 0.0
C1947 C 0.94496 0.82037 0.74059 0.0
C1948 C 0.78992 0.93356 0.75405 0.0
C1949 C 0.8099 0.91655 0.75485 0.0
C1950 C 0.8682 0.90027 0.73041 0.0
C1951 C 0.90627 0.84211 0.74833 0.0
C1952 C 0.88825 0.86352 0.74932 0.0
C1953 C 0.82987 0.9207 0.74806 0.0
C1954 C 0.85096 0.90201 0.74925 0.0
H1955 H 0.91322 0.78773 0.75963 0.0
H1956 H 0.88448 0.82297 0.76031 0.0
H1957 H 0.89921 0.87994 0.71521 0.0
H1958 H 0.80898 0.97634 0.73354 0.0
H1959 H 0.84433 0.94628 0.73482 0.0
C1960 C 0.5106 0.15581 0.64032 0.0
C1961 C 0.49785 0.17777 0.64107 0.0
C1962 C 0.51031 0.14568 0.62161 0.0
C1963 C 0.51307 0.12934 0.57566 0.0
H1964 H 0.45514 0.14024 0.55903 0.0
C1965 C 0.50015 0.07932 0.51351 0.0
C1966 C 0.48291 0.07083 0.52189 0.0
C1967 C 0.50175 0.09599 0.52345 0.0
C1968 C 0.47143 0.13702 0.56345 0.0
H1969 H 0.47579 0.20668 0.62198 0.0
H1970 H 0.4753 0.189 0.58926 0.0
H1971 H 0.45985 0.16205 0.58521 0.0
H1972 H 0.45297 0.07416 0.54629 0.0
H1973 H 0.45566 0.10323 0.56369 0.0
H1974 H 0.52445 0.10351 0.55498 0.0
C1975 C 0.48523 0.1795 0.60339 0.0
C1976 C 0.4742 0.14972 0.57823 0.0
C1977 C 0.48551 0.18964 0.62213 0.0
C1978 C 0.4664 0.08042 0.5393 0.0
C1979 C 0.46797 0.09712 0.54929 0.0
C1980 C 0.5103 0.11661 0.56093 0.0
C1981 C 0.49727 0.15728 0.60318 0.0
C1982 C 0.49496 0.14569 0.58498 0.0
C1983 C 0.48603 0.10463 0.542 0.0
C1984 C 0.48935 0.11997 0.55509 0.0
H1985 H 0.52004 0.14609 0.65477 0.0
H1986 H 0.51953 0.12847 0.62224 0.0
H1987 H 0.52934 0.12601 0.58023 0.0
H1988 H 0.51291 0.07248 0.49986 0.0
H1989 H 0.51564 0.10167 0.51706 0.0
C1990 C 0.51907 0.33645 0.87909 0.0
C1991 C 0.49972 0.33425 0.87467 0.0
C1992 C 0.51897 0.34644 0.89807 0.0
C1993 C 0.48114 0.38679 0.93424 0.0
H1994 H 0.5308 0.37089 0.96963 0.0
C1995 C 0.48157 0.4396 1.00039 0.0
C1996 C 0.5006 0.44534 0.99762 0.0
C1997 C 0.48146 0.42263 0.98981 0.0
C1998 C 0.51683 0.37555 0.95985 0.0
H1999 H 0.46529 0.33989 0.88745 0.0
H2000 H 0.46518 0.357 0.92089 0.0
H2001 H 0.53033 0.34705 0.94305 0.0
H2002 H 0.53494 0.43654 0.98307 0.0
H2003 H 0.53479 0.40681 0.96483 0.0
H2004 H 0.46789 0.41555 0.95042 0.0
C2005 C 0.48038 0.35129 0.90942 0.0
C2006 C 0.51655 0.3619 0.94463 0.0
C2007 C 0.48049 0.34127 0.89041 0.0
C2008 C 0.51999 0.43258 0.98561 0.0
C2009 C 0.51991 0.41549 0.97513 0.0
C2010 C 0.48141 0.4004 0.94944 0.0
C2011 C 0.49951 0.35446 0.91313 0.0
C2012 C 0.49886 0.36755 0.93133 0.0
C2013 C 0.50043 0.41083 0.97642 0.0
C2014 C 0.4994 0.39514 0.96215 0.0
H2015 H 0.53424 0.33091 0.86751 0.0
H2016 H 0.53397 0.34873 0.90026 0.0
H2017 H 0.46743 0.39188 0.92398 0.0
H2018 H 0.46645 0.44885 1.00982 0.0
H2019 H 0.46631 0.41921 0.99143 0.0
C2020 C 0.47472 0.85991 0.37526 0.0
C2021 C 0.48641 0.83759 0.37528 0.0
C2022 C 0.47505 0.87007 0.39391 0.0
C2023 C 0.50975 0.86473 0.43935 0.0
H2024 H 0.46006 0.9125 0.46055 0.0
C2025 C 0.48353 0.93484 0.50448 0.0
C2026 C 0.50139 0.9426 0.49722 0.0
C2027 C 0.48186 0.91852 0.494 0.0
C2028 C 0.47403 0.89896 0.45519 0.0
H2029 H 0.50669 0.80821 0.39562 0.0
H2030 H 0.50729 0.826 0.42821 0.0
H2031 H 0.45525 0.89058 0.43457 0.0
H2032 H 0.53229 0.93822 0.47434 0.0
H2033 H 0.52943 0.90975 0.45602 0.0
H2034 H 0.52855 0.87319 0.45989 0.0
C2035 C 0.49814 0.83569 0.41353 0.0
C2036 C 0.47132 0.88657 0.44003 0.0
C2037 C 0.4978 0.82551 0.39486 0.0
C2038 C 0.51837 0.93255 0.48046 0.0
C2039 C 0.51671 0.9162 0.46994 0.0
C2040 C 0.51246 0.8771 0.45456 0.0
C2041 C 0.48708 0.85819 0.41306 0.0
C2042 C 0.48926 0.86962 0.43148 0.0
C2043 C 0.49808 0.90951 0.47603 0.0
C2044 C 0.49474 0.89466 0.46225 0.0
H2045 H 0.46605 0.8698 0.36031 0.0
H2046 H 0.46662 0.88749 0.39276 0.0
H2047 H 0.52396 0.8519 0.43299 0.0
H2048 H 0.47032 0.94206 0.51753 0.0
H2049 H 0.4675 0.91346 0.49947 0.0
C2050 C 0.46422 0.5904 0.02076 0.0
C2051 C 0.48469 0.57516 0.01437 0.0
C2052 C 0.46295 0.60802 0.0312 0.0
C2053 C 0.4965 0.63754 0.04642 0.0
H2054 H 0.45331 0.64452 0.10241 0.0
C2055 C 0.50397 0.67123 0.12771 0.0
C2056 C 0.48464 0.68335 0.14039 0.0
C2057 C 0.50297 0.66227 0.10831 0.0
C2058 C 0.46521 0.64317 0.0866 0.0
H2059 H 0.51995 0.5674 0.01245 0.0
H2060 H 0.51758 0.59771 0.03101 0.0
H2061 H 0.453 0.62176 0.07497 0.0
H2062 H 0.44925 0.69693 0.14158 0.0
H2063 H 0.4475 0.6814 0.10771 0.0
H2064 H 0.50922 0.65834 0.05881 0.0
C2065 C 0.50255 0.59628 0.02772 0.0
C2066 C 0.465 0.63011 0.07076 0.0
C2067 C 0.50385 0.57879 0.01713 0.0
C2068 C 0.4644 0.6873 0.13246 0.0
C2069 C 0.4634 0.6784 0.11307 0.0
C2070 C 0.49676 0.65058 0.06237 0.0
C2071 C 0.48209 0.61069 0.03564 0.0
C2072 C 0.48084 0.62682 0.05065 0.0
C2073 C 0.48262 0.66528 0.10117 0.0
C2074 C 0.48129 0.65327 0.08284 0.0
H2075 H 0.44914 0.58822 0.0187 0.0
H2076 H 0.44691 0.6191 0.03659 0.0
H2077 H 0.5088 0.6356 0.03097 0.0
H2078 H 0.5198 0.66777 0.13349 0.0
H2079 H 0.51807 0.65208 0.0997 0.0
loop_
_geom_bond_atom_site_label_1
_geom_bond_atom_site_label_2
_geom_bond_distance
_geom_bond_site_symmetry_2
_ccdc_geom_bond_type
Gd0 C3 2.818 . S
Gd0 O20 2.377 1_654 S
Gd0 O22 2.448 . S
Gd0 O23 2.506 . S
Gd0 O24 2.435 1_655 S
Gd0 O25 2.717 1_655 S
Gd0 O27 2.395 1_565 S
Gd0 O31 2.327 1_564 S
Gd1 C12 2.818 . S
Gd1 O21 2.395 1_545 S
Gd1 O25 2.327 1_546 S
Gd1 O26 2.377 1_456 S
Gd1 O28 2.448 . S
Gd1 O29 2.506 . S
Gd1 O30 2.435 1_455 S
Gd1 O31 2.717 1_455 S
C2 O20 1.240 . S
C2 O21 1.240 . S
C3 Gd0 2.818 . S
C3 C4 1.510 . S
C3 O22 1.249 . S
C3 O23 1.252 . S
C4 C3 1.510 . S
C4 C5 1.404 . S
C4 C6 1.352 . S
C5 C4 1.404 . S
C5 C9 1.389 . S
C5 H32 0.930 . S
C6 C4 1.352 . S
C6 C8 1.374 . S
C6 H33 0.931 1_554 S
C7 C8 1.359 . S
C7 C9 1.364 . S
C8 C6 1.374 . S
C8 C7 1.359 . S
C8 H34 0.931 1_554 S
C9 C5 1.389 . S
C9 C7 1.364 . S
C9 H35 0.931 . S
C10 O24 1.256 . S
C10 O25 1.257 . S
C11 O26 1.240 . S
C11 O27 1.240 . S
C12 Gd1 2.818 . S
C12 C13 1.510 . S
C12 O28 1.249 . S
C12 O29 1.252 . S
C13 C12 1.510 . S
C13 C14 1.404 . S
C13 C15 1.352 . S
C14 C13 1.404 . S
C14 C18 1.389 . S
C14 H36 0.930 . S
C15 C13 1.352 . S
C15 C17 1.374 . S
C15 H37 0.931 1_556 S
C16 C17 1.359 . S
C16 C18 1.364 . S
C17 C15 1.374 . S
C17 C16 1.359 . S
C17 H38 0.931 1_556 S
C18 C14 1.389 . S
C18 C16 1.364 . S
C18 H39 0.931 . S
C19 O30 1.256 . S
C19 O31 1.257 . S
O20 Gd0 2.377 1_456 S
O20 C2 1.240 . S
O21 Gd1 2.395 1_565 S
O21 C2 1.240 . S
O22 Gd0 2.448 . S
O22 C3 1.249 . S
O23 Gd0 2.506 . S
O23 C3 1.252 . S
O24 Gd0 2.435 1_455 S
O24 C10 1.256 . S
O25 Gd0 2.717 1_455 S
O25 Gd1 2.327 1_564 S
O25 C10 1.257 . S
O26 Gd1 2.377 1_654 S
O26 C11 1.240 . S
O27 Gd0 2.395 1_545 S
O27 C11 1.240 . S
O28 Gd1 2.448 . S
O28 C12 1.249 . S
O29 Gd1 2.506 . S
O29 C12 1.252 . S
O30 Gd1 2.435 1_655 S
O30 C19 1.256 . S
O31 Gd0 2.327 1_546 S
O31 Gd1 2.717 1_655 S
O31 C19 1.257 . S
H32 C5 0.930 . S
H33 C6 0.931 1_556 S
H34 C8 0.931 1_556 S
H35 C9 0.931 . S
H36 C14 0.930 . S
H37 C15 0.931 1_554 S
H38 C17 0.931 1_554 S
H39 C18 0.931 . S
Gd40 C43 2.818 . S
Gd40 O60 2.377 1_455 S
Gd40 O62 2.448 . S
Gd40 O63 2.506 1_455 S
Gd40 O64 2.435 . S
Gd40 O65 2.717 . S
Gd40 O67 2.395 . S
Gd40 O71 2.327 1_455 S
Gd41 C52 2.818 . S
Gd41 O61 2.395 . S
Gd41 O65 2.327 1_655 S
Gd41 O66 2.377 1_655 S
Gd41 O68 2.448 . S
Gd41 O69 2.506 1_655 S
Gd41 O70 2.435 . S
Gd41 O71 2.717 . S
C42 O60 1.240 . S
C42 O61 1.240 . S
C43 Gd40 2.818 . S
C43 C44 1.510 . S
C43 O62 1.249 . S
C43 O63 1.252 1_455 S
C44 C43 1.510 . S
C44 C45 1.404 . S
C44 C46 1.352 1_455 S
C45 C44 1.404 . S
C45 C49 1.389 . S
C45 H72 0.930 . S
C46 C44 1.352 1_655 S
C46 C48 1.374 . S
C46 H73 0.931 . S
C47 C48 1.359 . S
C47 C49 1.364 1_655 S
C48 C46 1.374 . S
C48 C47 1.359 . S
C48 H74 0.931 . S
C49 C45 1.389 . S
C49 C47 1.364 1_455 S
C49 H75 0.931 . S
C50 O64 1.256 . S
C50 O65 1.257 . S
C51 O66 1.240 . S
C51 O67 1.240 . S
C52 Gd41 2.818 . S
C52 C53 1.507 . S
C52 O68 1.249 . S
C52 O69 1.252 1_655 S
C53 C52 1.507 . S
C53 C54 1.448 . S
C53 C55 1.317 1_655 S
C54 C53 1.448 . S
C54 C58 1.389 . S
C54 H76 0.930 . S
C55 C53 1.317 1_455 S
C55 C57 1.374 . S
C55 H77 0.931 . S
C56 C57 1.359 . S
C56 C58 1.364 1_455 S
C57 C55 1.374 . S
C57 C56 1.359 . S
C57 H78 0.931 . S
C58 C54 1.389 . S
C58 C56 1.364 1_655 S
C58 H79 0.931 . S
C59 O70 1.256 . S
C59 O71 1.257 . S
O60 Gd40 2.377 1_655 S
O60 C42 1.240 . S
O61 Gd41 2.395 . S
O61 C42 1.240 . S
O62 Gd40 2.448 . S
O62 C43 1.249 . S
O63 Gd40 2.506 1_655 S
O63 C43 1.252 1_655 S
O64 Gd40 2.435 . S
O64 C50 1.256 . S
O65 Gd40 2.717 . S
O65 Gd41 2.327 1_455 S
O65 C50 1.257 . S
O66 Gd41 2.377 1_455 S
O66 C51 1.240 . S
O67 Gd40 2.395 . S
O67 C51 1.240 . S
O68 Gd41 2.448 . S
O68 C52 1.249 . S
O69 Gd41 2.506 1_455 S
O69 C52 1.252 1_455 S
O70 Gd41 2.435 . S
O70 C59 1.256 . S
O71 Gd40 2.327 1_655 S
O71 Gd41 2.717 . S
O71 C59 1.257 . S
H72 C45 0.930 . S
H73 C46 0.931 . S
H74 C48 0.931 . S
H75 C49 0.931 . S
H76 C54 0.930 . S
H77 C55 0.931 . S
H78 C57 0.931 . S
H79 C58 0.931 . S
Gd80 C83 2.818 . S
Gd80 O100 2.377 . S
Gd80 O102 2.448 . S
Gd80 O103 2.506 . S
Gd80 O104 2.435 . S
Gd80 O105 2.717 . S
Gd80 O107 2.395 . S
Gd80 O111 2.327 . S
Gd81 C92 2.818 . S
Gd81 O101 2.395 . S
Gd81 O105 2.327 . S
Gd81 O106 2.377 . S
Gd81 O108 2.448 . S
Gd81 O109 2.506 . S
Gd81 O110 2.435 . S
Gd81 O111 2.717 . S
C82 O100 1.240 . S
C82 O101 1.240 . S
C83 Gd80 2.818 . S
C83 C84 1.510 . S
C83 O102 1.249 . S
C83 O103 1.252 . S
C84 C83 1.510 . S
C84 C85 1.404 . S
C84 C86 1.352 . S
C85 C84 1.404 . S
C85 C89 1.389 . S
C85 H112 0.930 . S
C86 C84 1.352 . S
C86 C88 1.374 . S
C86 H113 0.931 . S
C87 C88 1.359 . S
C87 C89 1.364 . S
C88 C86 1.374 . S
C88 C87 1.359 . S
C88 H114 0.931 . S
C89 C85 1.389 . S
C89 C87 1.364 . S
C89 H115 0.931 . S
C90 O104 1.256 . S
C90 O105 1.257 . S
C91 O106 1.240 . S
C91 O107 1.240 . S
C92 Gd81 2.818 . S
C92 C93 1.510 . S
C92 O108 1.249 . S
C92 O109 1.252 . S
C93 C92 1.510 . S
C93 C94 1.404 . S
C93 C95 1.352 . S
C94 C93 1.404 . S
C94 C98 1.389 . S
C94 H116 0.930 . S
C95 C93 1.352 . S
C95 C97 1.374 . S
C95 H117 0.931 . S
C96 C97 1.359 . S
C96 C98 1.364 . S
C97 C95 1.374 . S
C97 C96 1.359 . S
C97 H118 0.931 . S
C98 C94 1.389 . S
C98 C96 1.364 . S
C98 H119 0.931 . S
C99 O110 1.256 . S
C99 O111 1.257 . S
O100 Gd80 2.377 . S
O100 C82 1.240 . S
O101 Gd81 2.395 . S
O101 C82 1.240 . S
O102 Gd80 2.448 . S
O102 C83 1.249 . S
O103 Gd80 2.506 . S
O103 C83 1.252 . S
O104 Gd80 2.435 . S
O104 C90 1.256 . S
O105 Gd80 2.717 . S
O105 Gd81 2.327 . S
O105 C90 1.257 . S
O106 Gd81 2.377 . S
O106 C91 1.240 . S
O107 Gd80 2.395 . S
O107 C91 1.240 . S
O108 Gd81 2.448 . S
O108 C92 1.249 . S
O109 Gd81 2.506 . S
O109 C92 1.252 . S
O110 Gd81 2.435 . S
O110 C99 1.256 . S
O111 Gd80 2.327 . S
O111 Gd81 2.717 . S
O111 C99 1.257 . S
H112 C85 0.930 . S
H113 C86 0.931 . S
H114 C88 0.931 . S
H115 C89 0.931 . S
H116 C94 0.930 . S
H117 C95 0.931 . S
H118 C97 0.931 . S
H119 C98 0.931 . S
Gd120 C123 2.818 . S
Gd120 O140 2.377 1_565 S
Gd120 O142 2.448 . S
Gd120 O143 2.506 1_565 S
Gd120 O144 2.435 . S
Gd120 O145 2.717 . S
Gd120 O147 2.395 . S
Gd120 O151 2.327 1_565 S
Gd121 C132 2.818 . S
Gd121 O141 2.395 . S
Gd121 O145 2.327 1_545 S
Gd121 O146 2.377 1_545 S
Gd121 O148 2.448 . S
Gd121 O149 2.506 1_545 S
Gd121 O150 2.435 . S
Gd121 O151 2.717 . S
C122 O140 1.240 . S
C122 O141 1.240 . S
C123 Gd120 2.818 . S
C123 C124 1.515 1_565 S
C123 O142 1.249 . S
C123 O143 1.252 1_565 S
C124 C123 1.515 1_545 S
C124 C125 1.363 1_545 S
C124 C126 1.388 . S
C125 C124 1.363 1_565 S
C125 C129 1.389 . S
C125 H152 0.930 . S
C126 C124 1.388 . S
C126 C128 1.374 . S
C126 H153 0.931 . S
C127 C128 1.359 . S
C127 C129 1.364 1_545 S
C128 C126 1.374 . S
C128 C127 1.359 . S
C128 H154 0.931 . S
C129 C125 1.389 . S
C129 C127 1.364 1_565 S
C129 H155 0.931 . S
C130 O144 1.256 . S
C130 O145 1.257 . S
C131 O146 1.240 . S
C131 O147 1.240 . S
C132 Gd121 2.818 . S
C132 C133 1.513 1_545 S
C132 O148 1.249 . S
C132 O149 1.252 1_545 S
C133 C132 1.513 1_565 S
C133 C134 1.380 1_565 S
C133 C135 1.372 . S
C134 C133 1.380 1_545 S
C134 C138 1.389 . S
C134 H156 0.930 . S
C135 C133 1.372 . S
C135 C137 1.374 . S
C135 H157 0.931 . S
C136 C137 1.359 . S
C136 C138 1.364 1_565 S
C137 C135 1.374 . S
C137 C136 1.359 . S
C137 H158 0.931 . S
C138 C134 1.389 . S
C138 C136 1.364 1_545 S
C138 H159 0.931 . S
C139 O150 1.256 . S
C139 O151 1.257 . S
O140 Gd120 2.377 1_545 S
O140 C122 1.240 . S
O141 Gd121 2.395 . S
O141 C122 1.240 . S
O142 Gd120 2.448 . S
O142 C123 1.249 . S
O143 Gd120 2.506 1_545 S
O143 C123 1.252 1_545 S
O144 Gd120 2.435 . S
O144 C130 1.256 . S
O145 Gd120 2.717 . S
O145 Gd121 2.327 1_565 S
O145 C130 1.257 . S
O146 Gd121 2.377 1_565 S
O146 C131 1.240 . S
O147 Gd120 2.395 . S
O147 C131 1.240 . S
O148 Gd121 2.448 . S
O148 C132 1.249 . S
O149 Gd121 2.506 1_565 S
O149 C132 1.252 1_565 S
O150 Gd121 2.435 . S
O150 C139 1.256 . S
O151 Gd120 2.327 1_545 S
O151 Gd121 2.717 . S
O151 C139 1.257 . S
H152 C125 0.930 . S
H153 C126 0.931 . S
H154 C128 0.931 . S
H155 C129 0.931 . S
H156 C134 0.930 . S
H157 C135 0.931 . S
H158 C137 0.931 . S
H159 C138 0.931 . S
Gd160 C163 2.818 . S
Gd160 O180 2.377 . S
Gd160 O182 2.448 . S
Gd160 O183 2.506 . S
Gd160 O184 2.435 . S
Gd160 O185 2.717 . S
Gd160 O187 2.395 . S
Gd160 O191 2.327 . S
Gd161 C172 2.818 . S
Gd161 O181 2.395 . S
Gd161 O185 2.327 . S
Gd161 O186 2.377 . S
Gd161 O188 2.448 . S
Gd161 O189 2.506 . S
Gd161 O190 2.435 . S
Gd161 O191 2.717 . S
C162 O180 1.240 . S
C162 O181 1.240 . S
C163 Gd160 2.818 . S
C163 C164 1.510 . S
C163 O182 1.249 . S
C163 O183 1.252 . S
C164 C163 1.510 . S
C164 C165 1.404 . S
C164 C166 1.352 . S
C165 C164 1.404 . S
C165 C169 1.389 . S
C165 H192 0.930 . S
C166 C164 1.352 . S
C166 C168 1.374 . S
C166 H193 0.931 . S
C167 C168 1.359 . S
C167 C169 1.364 . S
C168 C166 1.374 . S
C168 C167 1.359 . S
C168 H194 0.931 . S
C169 C165 1.389 . S
C169 C167 1.364 . S
C169 H195 0.931 . S
C170 O184 1.256 . S
C170 O185 1.257 . S
C171 O186 1.240 . S
C171 O187 1.240 . S
C172 Gd161 2.818 . S
C172 C173 1.510 . S
C172 O188 1.249 . S
C172 O189 1.252 . S
C173 C172 1.510 . S
C173 C174 1.404 . S
C173 C175 1.352 . S
C174 C173 1.404 . S
C174 C178 1.389 . S
C174 H196 0.930 . S
C175 C173 1.352 . S
C175 C177 1.374 . S
C175 H197 0.931 . S
C176 C177 1.359 . S
C176 C178 1.364 . S
C177 C175 1.374 . S
C177 C176 1.359 . S
C177 H198 0.931 . S
C178 C174 1.389 . S
C178 C176 1.364 . S
C178 H199 0.931 . S
C179 O190 1.256 . S
C179 O191 1.257 . S
O180 Gd160 2.377 . S
O180 C162 1.240 . S
O181 Gd161 2.395 . S
O181 C162 1.240 . S
O182 Gd160 2.448 . S
O182 C163 1.249 . S
O183 Gd160 2.506 . S
O183 C163 1.252 . S
O184 Gd160 2.435 . S
O184 C170 1.256 . S
O185 Gd160 2.717 . S
O185 Gd161 2.327 . S
O185 C170 1.257 . S
O186 Gd161 2.377 . S
O186 C171 1.240 . S
O187 Gd160 2.395 . S
O187 C171 1.240 . S
O188 Gd161 2.448 . S
O188 C172 1.249 . S
O189 Gd161 2.506 . S
O189 C172 1.252 . S
O190 Gd161 2.435 . S
O190 C179 1.256 . S
O191 Gd160 2.327 . S
O191 Gd161 2.717 . S
O191 C179 1.257 . S
H192 C165 0.930 . S
H193 C166 0.931 . S
H194 C168 0.931 . S
H195 C169 0.931 . S
H196 C174 0.930 . S
H197 C175 0.931 . S
H198 C177 0.931 . S
H199 C178 0.931 . S
Gd200 C203 2.818 . S
Gd200 O220 2.377 . S
Gd200 O222 2.448 . S
Gd200 O223 2.506 . S
Gd200 O224 2.435 . S
Gd200 O225 2.717 . S
Gd200 O227 2.395 . S
Gd200 O231 2.327 . S
Gd201 C212 2.818 . S
Gd201 O221 2.395 . S
Gd201 O225 2.327 . S
Gd201 O226 2.377 . S
Gd201 O228 2.448 . S
Gd201 O229 2.506 . S
Gd201 O230 2.435 . S
Gd201 O231 2.717 . S
C202 O220 1.240 . S
C202 O221 1.240 . S
C203 Gd200 2.818 . S
C203 C204 1.510 . S
C203 O222 1.249 . S
C203 O223 1.252 . S
C204 C203 1.510 . S
C204 C205 1.404 . S
C204 C206 1.352 . S
C205 C204 1.404 . S
C205 C209 1.389 . S
C205 H232 0.930 . S
C206 C204 1.352 . S
C206 C208 1.374 . S
C206 H233 0.931 . S
C207 C208 1.359 . S
C207 C209 1.364 . S
C208 C206 1.374 . S
C208 C207 1.359 . S
C208 H234 0.931 . S
C209 C205 1.389 . S
C209 C207 1.364 . S
C209 H235 0.931 . S
C210 O224 1.256 . S
C210 O225 1.257 . S
C211 O226 1.240 . S
C211 O227 1.240 . S
C212 Gd201 2.818 . S
C212 C213 1.510 . S
C212 O228 1.249 . S
C212 O229 1.252 . S
C213 C212 1.510 . S
C213 C214 1.404 . S
C213 C215 1.352 . S
C214 C213 1.404 . S
C214 C218 1.389 . S
C214 H236 0.930 . S
C215 C213 1.352 . S
C215 C217 1.374 . S
C215 H237 0.931 . S
C216 C217 1.359 . S
C216 C218 1.364 . S
C217 C215 1.374 . S
C217 C216 1.359 . S
C217 H238 0.931 . S
C218 C214 1.389 . S
C218 C216 1.364 . S
C218 H239 0.931 . S
C219 O230 1.256 . S
C219 O231 1.257 . S
O220 Gd200 2.377 . S
O220 C202 1.240 . S
O221 Gd201 2.395 . S
O221 C202 1.240 . S
O222 Gd200 2.448 . S
O222 C203 1.249 . S
O223 Gd200 2.506 . S
O223 C203 1.252 . S
O224 Gd200 2.435 . S
O224 C210 1.256 . S
O225 Gd200 2.717 . S
O225 Gd201 2.327 . S
O225 C210 1.257 . S
O226 Gd201 2.377 . S
O226 C211 1.240 . S
O227 Gd200 2.395 . S
O227 C211 1.240 . S
O228 Gd201 2.448 . S
O228 C212 1.249 . S
O229 Gd201 2.506 . S
O229 C212 1.252 . S
O230 Gd201 2.435 . S
O230 C219 1.256 . S
O231 Gd200 2.327 . S
O231 Gd201 2.717 . S
O231 C219 1.257 . S
H232 C205 0.930 . S
H233 C206 0.931 . S
H234 C208 0.931 . S
H235 C209 0.931 . S
H236 C214 0.930 . S
H237 C215 0.931 . S
H238 C217 0.931 . S
H239 C218 0.931 . S
Gd240 C243 2.818 . S
Gd240 O260 2.377 . S
Gd240 O262 2.448 . S
Gd240 O263 2.506 . S
Gd240 O264 2.435 . S
Gd240 O265 2.717 . S
Gd240 O267 2.395 . S
Gd240 O271 2.327 . S
Gd241 C252 2.818 . S
Gd241 O261 2.395 . S
Gd241 O265 2.327 . S
Gd241 O266 2.377 . S
Gd241 O268 2.448 . S
Gd241 O269 2.506 . S
Gd241 O270 2.435 . S
Gd241 O271 2.717 . S
C242 O260 1.240 . S
C242 O261 1.240 . S
C243 Gd240 2.818 . S
C243 C244 1.510 . S
C243 O262 1.249 . S
C243 O263 1.252 . S
C244 C243 1.510 . S
C244 C245 1.404 . S
C244 C246 1.352 . S
C245 C244 1.404 . S
C245 C249 1.389 . S
C245 H272 0.930 . S
C246 C244 1.352 . S
C246 C248 1.374 . S
C246 H273 0.931 . S
C247 C248 1.359 . S
C247 C249 1.364 . S
C248 C246 1.374 . S
C248 C247 1.359 . S
C248 H274 0.931 . S
C249 C245 1.389 . S
C249 C247 1.364 . S
C249 H275 0.931 . S
C250 O264 1.256 . S
C250 O265 1.257 . S
C251 O266 1.240 . S
C251 O267 1.240 . S
C252 Gd241 2.818 . S
C252 C253 1.510 . S
C252 O268 1.249 . S
C252 O269 1.252 . S
C253 C252 1.510 . S
C253 C254 1.404 . S
C253 C255 1.352 . S
C254 C253 1.404 . S
C254 C258 1.389 . S
C254 H276 0.930 . S
C255 C253 1.352 . S
C255 C257 1.374 . S
C255 H277 0.931 . S
C256 C257 1.359 . S
C256 C258 1.364 . S
C257 C255 1.374 . S
C257 C256 1.359 . S
C257 H278 0.931 . S
C258 C254 1.389 . S
C258 C256 1.364 . S
C258 H279 0.931 . S
C259 O270 1.256 . S
C259 O271 1.257 . S
O260 Gd240 2.377 . S
O260 C242 1.240 . S
O261 Gd241 2.395 . S
O261 C242 1.240 . S
O262 Gd240 2.448 . S
O262 C243 1.249 . S
O263 Gd240 2.506 . S
O263 C243 1.252 . S
O264 Gd240 2.435 . S
O264 C250 1.256 . S
O265 Gd240 2.717 . S
O265 Gd241 2.327 . S
O265 C250 1.257 . S
O266 Gd241 2.377 . S
O266 C251 1.240 . S
O267 Gd240 2.395 . S
O267 C251 1.240 . S
O268 Gd241 2.448 . S
O268 C252 1.249 . S
O269 Gd241 2.506 . S
O269 C252 1.252 . S
O270 Gd241 2.435 . S
O270 C259 1.256 . S
O271 Gd240 2.327 . S
O271 Gd241 2.717 . S
O271 C259 1.257 . S
H272 C245 0.930 . S
H273 C246 0.931 . S
H274 C248 0.931 . S
H275 C249 0.931 . S
H276 C254 0.930 . S
H277 C255 0.931 . S
H278 C257 0.931 . S
H279 C258 0.931 . S
Gd280 C283 2.818 . S
Gd280 O300 2.377 1_655 S
Gd280 O302 2.448 . S
Gd280 O303 2.506 . S
Gd280 O304 2.435 1_655 S
Gd280 O305 2.717 1_655 S
Gd280 O307 2.395 . S
Gd280 O311 2.327 . S
Gd281 C292 2.818 . S
Gd281 O301 2.395 . S
Gd281 O305 2.327 . S
Gd281 O306 2.377 1_455 S
Gd281 O308 2.448 . S
Gd281 O309 2.506 . S
Gd281 O310 2.435 1_455 S
Gd281 O311 2.717 1_455 S
C282 O300 1.240 . S
C282 O301 1.240 . S
C283 Gd280 2.818 . S
C283 C284 1.510 . S
C283 O302 1.249 . S
C283 O303 1.252 . S
C284 C283 1.510 . S
C284 C285 1.404 . S
C284 C286 1.352 . S
C285 C284 1.404 . S
C285 C289 1.389 . S
C285 H312 0.930 . S
C286 C284 1.352 . S
C286 C288 1.374 . S
C286 H313 0.931 . S
C287 C288 1.359 . S
C287 C289 1.364 . S
C288 C286 1.374 . S
C288 C287 1.359 . S
C288 H314 0.931 . S
C289 C285 1.389 . S
C289 C287 1.364 . S
C289 H315 0.931 . S
C290 O304 1.256 . S
C290 O305 1.257 . S
C291 O306 1.240 . S
C291 O307 1.240 . S
C292 Gd281 2.818 . S
C292 C293 1.510 . S
C292 O308 1.249 . S
C292 O309 1.252 . S
C293 C292 1.510 . S
C293 C294 1.404 . S
C293 C295 1.352 . S
C294 C293 1.404 . S
C294 C298 1.389 . S
C294 H316 0.930 . S
C295 C293 1.352 . S
C295 C297 1.374 . S
C295 H317 0.931 . S
C296 C297 1.359 . S
C296 C298 1.364 . S
C297 C295 1.374 . S
C297 C296 1.359 . S
C297 H318 0.931 . S
C298 C294 1.389 . S
C298 C296 1.364 . S
C298 H319 0.931 . S
C299 O310 1.256 . S
C299 O311 1.257 . S
O300 Gd280 2.377 1_455 S
O300 C282 1.240 . S
O301 Gd281 2.395 . S
O301 C282 1.240 . S
O302 Gd280 2.448 . S
O302 C283 1.249 . S
O303 Gd280 2.506 . S
O303 C283 1.252 . S
O304 Gd280 2.435 1_455 S
O304 C290 1.256 . S
O305 Gd280 2.717 1_455 S
O305 Gd281 2.327 . S
O305 C290 1.257 . S
O306 Gd281 2.377 1_655 S
O306 C291 1.240 . S
O307 Gd280 2.395 . S
O307 C291 1.240 . S
O308 Gd281 2.448 . S
O308 C292 1.249 . S
O309 Gd281 2.506 . S
O309 C292 1.252 . S
O310 Gd281 2.435 1_655 S
O310 C299 1.256 . S
O311 Gd280 2.327 . S
O311 Gd281 2.717 1_655 S
O311 C299 1.257 . S
H312 C285 0.930 . S
H313 C286 0.931 . S
H314 C288 0.931 . S
H315 C289 0.931 . S
H316 C294 0.930 . S
H317 C295 0.931 . S
H318 C297 0.931 . S
H319 C298 0.931 . S
Gd320 C323 2.818 . S
Gd320 O340 2.377 1_556 S
Gd320 O342 2.448 . S
Gd320 O343 2.513 . S
Gd320 O344 2.435 . S
Gd320 O345 2.717 . S
Gd320 O347 2.395 . S
Gd320 O351 2.327 1_556 S
Gd321 C332 2.818 . S
Gd321 O341 2.395 . S
Gd321 O345 2.327 1_554 S
Gd321 O346 2.377 1_554 S
Gd321 O348 2.448 . S
Gd321 O349 2.519 . S
Gd321 O350 2.435 . S
Gd321 O351 2.717 . S
C322 O340 1.240 . S
C322 O341 1.240 . S
C323 Gd320 2.818 . S
C323 C324 1.510 . S
C323 O342 1.249 . S
C323 O343 1.273 . S
C324 C323 1.510 . S
C324 C325 1.404 . S
C324 C326 1.352 1_556 S
C325 C324 1.404 . S
C325 C329 1.389 . S
C325 H352 0.930 . S
C326 C324 1.352 1_554 S
C326 C328 1.374 . S
C326 H353 0.931 . S
C327 C328 1.359 1_556 S
C327 C329 1.364 . S
C328 C326 1.374 . S
C328 C327 1.359 1_554 S
C328 H354 0.931 . S
C329 C325 1.389 . S
C329 C327 1.364 . S
C329 H355 0.931 . S
C330 O344 1.256 . S
C330 O345 1.257 . S
C331 O346 1.240 . S
C331 O347 1.240 . S
C332 Gd321 2.818 . S
C332 C333 1.510 . S
C332 O348 1.249 . S
C332 O349 1.290 . S
C333 C332 1.510 . S
C333 C334 1.404 . S
C333 C335 1.352 1_554 S
C334 C333 1.404 . S
C334 C338 1.389 . S
C334 H356 0.930 . S
C335 C333 1.352 1_556 S
C335 C337 1.374 . S
C335 H357 0.931 . S
C336 C337 1.359 1_554 S
C336 C338 1.364 . S
C337 C335 1.374 . S
C337 C336 1.359 1_556 S
C337 H358 0.931 . S
C338 C334 1.389 . S
C338 C336 1.364 . S
C338 H359 0.931 . S
C339 O350 1.256 . S
C339 O351 1.257 . S
O340 Gd320 2.377 1_554 S
O340 C322 1.240 . S
O341 Gd321 2.395 . S
O341 C322 1.240 . S
O342 Gd320 2.448 . S
O342 C323 1.249 . S
O343 Gd320 2.513 . S
O343 C323 1.273 . S
O344 Gd320 2.435 . S
O344 C330 1.256 . S
O345 Gd320 2.717 . S
O345 Gd321 2.327 1_556 S
O345 C330 1.257 . S
O346 Gd321 2.377 1_556 S
O346 C331 1.240 . S
O347 Gd320 2.395 . S
O347 C331 1.240 . S
O348 Gd321 2.448 . S
O348 C332 1.249 . S
O349 Gd321 2.519 . S
O349 C332 1.290 . S
O350 Gd321 2.435 . S
O350 C339 1.256 . S
O351 Gd320 2.327 1_554 S
O351 Gd321 2.717 . S
O351 C339 1.257 . S
H352 C325 0.930 . S
H353 C326 0.931 . S
H354 C328 0.931 . S
H355 C329 0.931 . S
H356 C334 0.930 . S
H357 C335 0.931 . S
H358 C337 0.931 . S
H359 C338 0.931 . S
Gd360 C363 2.818 . S
Gd360 O380 2.377 1_565 S
Gd360 O382 2.448 . S
Gd360 O383 2.506 1_565 S
Gd360 O384 2.435 . S
Gd360 O385 2.717 . S
Gd360 O387 2.395 . S
Gd360 O391 2.327 1_565 S
Gd361 C372 2.818 . S
Gd361 O381 2.395 . S
Gd361 O385 2.327 1_545 S
Gd361 O386 2.377 1_545 S
Gd361 O388 2.448 . S
Gd361 O389 2.506 1_545 S
Gd361 O390 2.435 . S
Gd361 O391 2.717 . S
C362 O380 1.240 . S
C362 O381 1.240 . S
C363 Gd360 2.818 . S
C363 C364 1.515 1_565 S
C363 O382 1.249 . S
C363 O383 1.252 1_565 S
C364 C363 1.515 1_545 S
C364 C365 1.363 1_545 S
C364 C366 1.388 . S
C365 C364 1.363 1_565 S
C365 C369 1.389 . S
C365 H392 0.930 . S
C366 C364 1.388 . S
C366 C368 1.374 . S
C366 H393 0.931 . S
C367 C368 1.359 . S
C367 C369 1.364 1_545 S
C368 C366 1.374 . S
C368 C367 1.359 . S
C368 H394 0.931 . S
C369 C365 1.389 . S
C369 C367 1.364 1_565 S
C369 H395 0.931 . S
C370 O384 1.256 . S
C370 O385 1.257 . S
C371 O386 1.240 . S
C371 O387 1.240 . S
C372 Gd361 2.818 . S
C372 C373 1.513 1_545 S
C372 O388 1.249 . S
C372 O389 1.252 1_545 S
C373 C372 1.513 1_565 S
C373 C374 1.380 1_565 S
C373 C375 1.372 . S
C374 C373 1.380 1_545 S
C374 C378 1.389 . S
C374 H396 0.930 . S
C375 C373 1.372 . S
C375 C377 1.374 . S
C375 H397 0.931 . S
C376 C377 1.359 . S
C376 C378 1.364 1_565 S
C377 C375 1.374 . S
C377 C376 1.359 . S
C377 H398 0.931 . S
C378 C374 1.389 . S
C378 C376 1.364 1_545 S
C378 H399 0.931 . S
C379 O390 1.256 . S
C379 O391 1.257 . S
O380 Gd360 2.377 1_545 S
O380 C362 1.240 . S
O381 Gd361 2.395 . S
O381 C362 1.240 . S
O382 Gd360 2.448 . S
O382 C363 1.249 . S
O383 Gd360 2.506 1_545 S
O383 C363 1.252 1_545 S
O384 Gd360 2.435 . S
O384 C370 1.256 . S
O385 Gd360 2.717 . S
O385 Gd361 2.327 1_565 S
O385 C370 1.257 . S
O386 Gd361 2.377 1_565 S
O386 C371 1.240 . S
O387 Gd360 2.395 . S
O387 C371 1.240 . S
O388 Gd361 2.448 . S
O388 C372 1.249 . S
O389 Gd361 2.506 1_565 S
O389 C372 1.252 1_565 S
O390 Gd361 2.435 . S
O390 C379 1.256 . S
O391 Gd360 2.327 1_545 S
O391 Gd361 2.717 . S
O391 C379 1.257 . S
H392 C365 0.930 . S
H393 C366 0.931 . S
H394 C368 0.931 . S
H395 C369 0.931 . S
H396 C374 0.930 . S
H397 C375 0.931 . S
H398 C377 0.931 . S
H399 C378 0.931 . S
Gd400 C403 2.818 . S
Gd400 O420 2.377 . S
Gd400 O422 2.448 . S
Gd400 O423 2.506 . S
Gd400 O424 2.435 . S
Gd400 O425 2.717 . S
Gd400 O427 2.395 . S
Gd400 O431 2.327 . S
Gd401 C412 2.818 . S
Gd401 O421 2.395 . S
Gd401 O425 2.327 . S
Gd401 O426 2.377 . S
Gd401 O428 2.448 . S
Gd401 O429 2.506 . S
Gd401 O430 2.435 . S
Gd401 O431 2.717 . S
C402 O420 1.240 . S
C402 O421 1.240 . S
C403 Gd400 2.818 . S
C403 C404 1.510 . S
C403 O422 1.249 . S
C403 O423 1.252 . S
C404 C403 1.510 . S
C404 C405 1.404 . S
C404 C406 1.352 . S
C405 C404 1.404 . S
C405 C409 1.389 . S
C405 H432 0.930 . S
C406 C404 1.352 . S
C406 C408 1.374 . S
C406 H433 0.931 . S
C407 C408 1.359 . S
C407 C409 1.364 . S
C408 C406 1.374 . S
C408 C407 1.359 . S
C408 H434 0.931 . S
C409 C405 1.389 . S
C409 C407 1.364 . S
C409 H435 0.931 . S
C410 O424 1.256 . S
C410 O425 1.257 . S
C411 O426 1.240 . S
C411 O427 1.240 . S
C412 Gd401 2.818 . S
C412 C413 1.510 . S
C412 O428 1.249 . S
C412 O429 1.252 . S
C413 C412 1.510 . S
C413 C414 1.404 . S
C413 C415 1.352 . S
C414 C413 1.404 . S
C414 C418 1.389 . S
C414 H436 0.930 . S
C415 C413 1.352 . S
C415 C417 1.374 . S
C415 H437 0.931 . S
C416 C417 1.359 . S
C416 C418 1.364 . S
C417 C415 1.374 . S
C417 C416 1.359 . S
C417 H438 0.931 . S
C418 C414 1.389 . S
C418 C416 1.364 . S
C418 H439 0.931 . S
C419 O430 1.256 . S
C419 O431 1.257 . S
O420 Gd400 2.377 . S
O420 C402 1.240 . S
O421 Gd401 2.395 . S
O421 C402 1.240 . S
O422 Gd400 2.448 . S
O422 C403 1.249 . S
O423 Gd400 2.506 . S
O423 C403 1.252 . S
O424 Gd400 2.435 . S
O424 C410 1.256 . S
O425 Gd400 2.717 . S
O425 Gd401 2.327 . S
O425 C410 1.257 . S
O426 Gd401 2.377 . S
O426 C411 1.240 . S
O427 Gd400 2.395 . S
O427 C411 1.240 . S
O428 Gd401 2.448 . S
O428 C412 1.249 . S
O429 Gd401 2.506 . S
O429 C412 1.252 . S
O430 Gd401 2.435 . S
O430 C419 1.256 . S
O431 Gd400 2.327 . S
O431 Gd401 2.717 . S
O431 C419 1.257 . S
H432 C405 0.930 . S
H433 C406 0.931 . S
H434 C408 0.931 . S
H435 C409 0.931 . S
H436 C414 0.930 . S
H437 C415 0.931 . S
H438 C417 0.931 . S
H439 C418 0.931 . S
Gd440 C443 2.818 . S
Gd440 O460 2.377 1_455 S
Gd440 O462 2.448 . S
Gd440 O463 2.506 1_455 S
Gd440 O464 2.435 . S
Gd440 O465 2.717 . S
Gd440 O467 2.395 . S
Gd440 O471 2.327 1_455 S
Gd441 C452 2.818 . S
Gd441 O461 2.395 . S
Gd441 O465 2.327 1_655 S
Gd441 O466 2.377 1_655 S
Gd441 O468 2.448 . S
Gd441 O469 2.506 1_655 S
Gd441 O470 2.435 . S
Gd441 O471 2.717 . S
C442 O460 1.240 . S
C442 O461 1.240 . S
C443 Gd440 2.818 . S
C443 C444 1.510 . S
C443 O462 1.249 . S
C443 O463 1.252 1_455 S
C444 C443 1.510 . S
C444 C445 1.404 . S
C444 C446 1.352 1_455 S
C445 C444 1.404 . S
C445 C449 1.389 . S
C445 H472 0.930 . S
C446 C444 1.352 1_655 S
C446 C448 1.374 . S
C446 H473 0.931 . S
C447 C448 1.359 . S
C447 C449 1.364 1_655 S
C448 C446 1.374 . S
C448 C447 1.359 . S
C448 H474 0.931 . S
C449 C445 1.389 . S
C449 C447 1.364 1_455 S
C449 H475 0.931 . S
C450 O464 1.256 . S
C450 O465 1.257 . S
C451 O466 1.240 . S
C451 O467 1.240 . S
C452 Gd441 2.818 . S
C452 C453 1.507 . S
C452 O468 1.249 . S
C452 O469 1.252 1_655 S
C453 C452 1.507 . S
C453 C454 1.447 . S
C453 C455 1.317 1_655 S
C454 C453 1.447 . S
C454 C458 1.389 . S
C454 H476 0.930 . S
C455 C453 1.317 1_455 S
C455 C457 1.374 . S
C455 H477 0.931 . S
C456 C457 1.359 . S
C456 C458 1.364 1_455 S
C457 C455 1.374 . S
C457 C456 1.359 . S
C457 H478 0.931 . S
C458 C454 1.389 . S
C458 C456 1.364 1_655 S
C458 H479 0.931 . S
C459 O470 1.256 . S
C459 O471 1.257 . S
O460 Gd440 2.377 1_655 S
O460 C442 1.240 . S
O461 Gd441 2.395 . S
O461 C442 1.240 . S
O462 Gd440 2.448 . S
O462 C443 1.249 . S
O463 Gd440 2.506 1_655 S
O463 C443 1.252 1_655 S
O464 Gd440 2.435 . S
O464 C450 1.256 . S
O465 Gd440 2.717 . S
O465 Gd441 2.327 1_455 S
O465 C450 1.257 . S
O466 Gd441 2.377 1_455 S
O466 C451 1.240 . S
O467 Gd440 2.395 . S
O467 C451 1.240 . S
O468 Gd441 2.448 . S
O468 C452 1.249 . S
O469 Gd441 2.506 1_455 S
O469 C452 1.252 1_455 S
O470 Gd441 2.435 . S
O470 C459 1.256 . S
O471 Gd440 2.327 1_655 S
O471 Gd441 2.717 . S
O471 C459 1.257 . S
H472 C445 0.930 . S
H473 C446 0.931 . S
H474 C448 0.931 . S
H475 C449 0.931 . S
H476 C454 0.930 . S
H477 C455 0.931 . S
H478 C457 0.931 . S
H479 C458 0.931 . S
Gd480 C483 2.818 . S
Gd480 O500 2.377 . S
Gd480 O502 2.448 . S
Gd480 O503 2.506 . S
Gd480 O504 2.435 . S
Gd480 O505 2.717 . S
Gd480 O507 2.395 . S
Gd480 O511 2.327 . S
Gd481 C492 2.818 . S
Gd481 O501 2.395 . S
Gd481 O505 2.327 . S
Gd481 O506 2.377 . S
Gd481 O508 2.448 . S
Gd481 O509 2.506 . S
Gd481 O510 2.435 . S
Gd481 O511 2.717 . S
C482 O500 1.240 . S
C482 O501 1.240 . S
C483 Gd480 2.818 . S
C483 C484 1.510 . S
C483 O502 1.249 . S
C483 O503 1.252 . S
C484 C483 1.510 . S
C484 C485 1.404 . S
C484 C486 1.352 . S
C485 C484 1.404 . S
C485 C489 1.389 . S
C485 H512 0.930 . S
C486 C484 1.352 . S
C486 C488 1.374 . S
C486 H513 0.931 . S
C487 C488 1.359 . S
C487 C489 1.364 . S
C488 C486 1.374 . S
C488 C487 1.359 . S
C488 H514 0.931 . S
C489 C485 1.389 . S
C489 C487 1.364 . S
C489 H515 0.931 . S
C490 O504 1.256 . S
C490 O505 1.257 . S
C491 O506 1.240 . S
C491 O507 1.240 . S
C492 Gd481 2.818 . S
C492 C493 1.510 . S
C492 O508 1.249 . S
C492 O509 1.252 . S
C493 C492 1.510 . S
C493 C494 1.404 . S
C493 C495 1.352 . S
C494 C493 1.404 . S
C494 C498 1.389 . S
C494 H516 0.930 . S
C495 C493 1.352 . S
C495 C497 1.374 . S
C495 H517 0.931 . S
C496 C497 1.359 . S
C496 C498 1.364 . S
C497 C495 1.374 . S
C497 C496 1.359 . S
C497 H518 0.931 . S
C498 C494 1.389 . S
C498 C496 1.364 . S
C498 H519 0.931 . S
C499 O510 1.256 . S
C499 O511 1.257 . S
O500 Gd480 2.377 . S
O500 C482 1.240 . S
O501 Gd481 2.395 . S
O501 C482 1.240 . S
O502 Gd480 2.448 . S
O502 C483 1.249 . S
O503 Gd480 2.506 . S
O503 C483 1.252 . S
O504 Gd480 2.435 . S
O504 C490 1.256 . S
O505 Gd480 2.717 . S
O505 Gd481 2.327 . S
O505 C490 1.257 . S
O506 Gd481 2.377 . S
O506 C491 1.240 . S
O507 Gd480 2.395 . S
O507 C491 1.240 . S
O508 Gd481 2.448 . S
O508 C492 1.249 . S
O509 Gd481 2.506 . S
O509 C492 1.252 . S
O510 Gd481 2.435 . S
O510 C499 1.256 . S
O511 Gd480 2.327 . S
O511 Gd481 2.717 . S
O511 C499 1.257 . S
H512 C485 0.930 . S
H513 C486 0.931 . S
H514 C488 0.931 . S
H515 C489 0.931 . S
H516 C494 0.930 . S
H517 C495 0.931 . S
H518 C497 0.931 . S
H519 C498 0.931 . S
Gd520 C523 2.818 . S
Gd520 O540 2.377 1_556 S
Gd520 O542 2.448 . S
Gd520 O543 2.513 . S
Gd520 O544 2.435 . S
Gd520 O545 2.717 . S
Gd520 O547 2.395 . S
Gd520 O551 2.327 1_556 S
Gd521 C532 2.818 . S
Gd521 O541 2.395 . S
Gd521 O545 2.327 1_554 S
Gd521 O546 2.377 1_554 S
Gd521 O548 2.448 . S
Gd521 O549 2.519 . S
Gd521 O550 2.435 . S
Gd521 O551 2.717 . S
C522 O540 1.240 . S
C522 O541 1.240 . S
C523 Gd520 2.818 . S
C523 C524 1.510 . S
C523 O542 1.249 . S
C523 O543 1.273 . S
C524 C523 1.510 . S
C524 C525 1.404 . S
C524 C526 1.352 1_556 S
C525 C524 1.404 . S
C525 C529 1.389 . S
C525 H552 0.930 . S
C526 C524 1.352 1_554 S
C526 C528 1.374 . S
C526 H553 0.931 . S
C527 C528 1.359 1_556 S
C527 C529 1.364 . S
C528 C526 1.374 . S
C528 C527 1.359 1_554 S
C528 H554 0.931 . S
C529 C525 1.389 . S
C529 C527 1.364 . S
C529 H555 0.931 . S
C530 O544 1.256 . S
C530 O545 1.257 . S
C531 O546 1.240 . S
C531 O547 1.240 . S
C532 Gd521 2.818 . S
C532 C533 1.510 . S
C532 O548 1.249 . S
C532 O549 1.290 . S
C533 C532 1.510 . S
C533 C534 1.404 . S
C533 C535 1.352 1_554 S
C534 C533 1.404 . S
C534 C538 1.389 . S
C534 H556 0.930 . S
C535 C533 1.352 1_556 S
C535 C537 1.374 . S
C535 H557 0.931 . S
C536 C537 1.359 1_554 S
C536 C538 1.364 . S
C537 C535 1.374 . S
C537 C536 1.359 1_556 S
C537 H558 0.931 . S
C538 C534 1.389 . S
C538 C536 1.364 . S
C538 H559 0.931 . S
C539 O550 1.256 . S
C539 O551 1.257 . S
O540 Gd520 2.377 1_554 S
O540 C522 1.240 . S
O541 Gd521 2.395 . S
O541 C522 1.240 . S
O542 Gd520 2.448 . S
O542 C523 1.249 . S
O543 Gd520 2.513 . S
O543 C523 1.273 . S
O544 Gd520 2.435 . S
O544 C530 1.256 . S
O545 Gd520 2.717 . S
O545 Gd521 2.327 1_556 S
O545 C530 1.257 . S
O546 Gd521 2.377 1_556 S
O546 C531 1.240 . S
O547 Gd520 2.395 . S
O547 C531 1.240 . S
O548 Gd521 2.448 . S
O548 C532 1.249 . S
O549 Gd521 2.519 . S
O549 C532 1.290 . S
O550 Gd521 2.435 . S
O550 C539 1.256 . S
O551 Gd520 2.327 1_554 S
O551 Gd521 2.717 . S
O551 C539 1.257 . S
H552 C525 0.930 . S
H553 C526 0.931 . S
H554 C528 0.931 . S
H555 C529 0.931 . S
H556 C534 0.930 . S
H557 C535 0.931 . S
H558 C537 0.931 . S
H559 C538 0.931 . S
Gd560 C563 2.818 . S
Gd560 O580 2.377 . S
Gd560 O582 2.448 . S
Gd560 O583 2.506 . S
Gd560 O584 2.435 . S
Gd560 O585 2.717 . S
Gd560 O587 2.395 1_565 S
Gd560 O591 2.327 1_565 S
Gd561 C572 2.818 . S
Gd561 O581 2.395 1_545 S
Gd561 O585 2.327 1_545 S
Gd561 O586 2.377 . S
Gd561 O588 2.448 . S
Gd561 O589 2.506 . S
Gd561 O590 2.435 . S
Gd561 O591 2.717 . S
C562 O580 1.240 . S
C562 O581 1.240 . S
C563 Gd560 2.818 . S
C563 C564 1.510 . S
C563 O582 1.249 . S
C563 O583 1.252 . S
C564 C563 1.510 . S
C564 C565 1.404 . S
C564 C566 1.352 . S
C565 C564 1.404 . S
C565 C569 1.389 . S
C565 H592 0.930 . S
C566 C564 1.352 . S
C566 C568 1.374 . S
C566 H593 0.931 . S
C567 C568 1.359 . S
C567 C569 1.364 . S
C568 C566 1.374 . S
C568 C567 1.359 . S
C568 H594 0.931 . S
C569 C565 1.389 . S
C569 C567 1.364 . S
C569 H595 0.931 . S
C570 O584 1.256 . S
C570 O585 1.257 . S
C571 O586 1.240 . S
C571 O587 1.240 . S
C572 Gd561 2.818 . S
C572 C573 1.510 . S
C572 O588 1.249 . S
C572 O589 1.252 . S
C573 C572 1.510 . S
C573 C574 1.404 . S
C573 C575 1.352 . S
C574 C573 1.404 . S
C574 C578 1.389 . S
C574 H596 0.930 . S
C575 C573 1.352 . S
C575 C577 1.374 . S
C575 H597 0.931 . S
C576 C577 1.359 . S
C576 C578 1.364 . S
C577 C575 1.374 . S
C577 C576 1.359 . S
C577 H598 0.931 . S
C578 C574 1.389 . S
C578 C576 1.364 . S
C578 H599 0.931 . S
C579 O590 1.256 . S
C579 O591 1.257 . S
O580 Gd560 2.377 . S
O580 C562 1.240 . S
O581 Gd561 2.395 1_565 S
O581 C562 1.240 . S
O582 Gd560 2.448 . S
O582 C563 1.249 . S
O583 Gd560 2.506 . S
O583 C563 1.252 . S
O584 Gd560 2.435 . S
O584 C570 1.256 . S
O585 Gd560 2.717 . S
O585 Gd561 2.327 1_565 S
O585 C570 1.257 . S
O586 Gd561 2.377 . S
O586 C571 1.240 . S
O587 Gd560 2.395 1_545 S
O587 C571 1.240 . S
O588 Gd561 2.448 . S
O588 C572 1.249 . S
O589 Gd561 2.506 . S
O589 C572 1.252 . S
O590 Gd561 2.435 . S
O590 C579 1.256 . S
O591 Gd560 2.327 1_545 S
O591 Gd561 2.717 . S
O591 C579 1.257 . S
H592 C565 0.930 . S
H593 C566 0.931 . S
H594 C568 0.931 . S
H595 C569 0.931 . S
H596 C574 0.930 . S
H597 C575 0.931 . S
H598 C577 0.931 . S
H599 C578 0.931 . S
Gd600 C603 2.818 . S
Gd600 O620 2.377 1_554 S
Gd600 O622 2.448 . S
Gd600 O623 2.506 . S
Gd600 O624 2.435 . S
Gd600 O625 2.717 . S
Gd600 O627 2.395 . S
Gd600 O631 2.327 1_554 S
Gd601 C612 2.818 . S
Gd601 O621 2.395 . S
Gd601 O625 2.327 1_556 S
Gd601 O626 2.377 1_556 S
Gd601 O628 2.448 . S
Gd601 O629 2.506 . S
Gd601 O630 2.435 . S
Gd601 O631 2.717 . S
C602 O620 1.240 . S
C602 O621 1.240 . S
C603 Gd600 2.818 . S
C603 C604 1.510 . S
C603 O622 1.249 . S
C603 O623 1.252 . S
C604 C603 1.510 . S
C604 C605 1.404 . S
C604 C606 1.352 . S
C605 C604 1.404 . S
C605 C609 1.389 . S
C605 H632 0.930 . S
C606 C604 1.352 . S
C606 C608 1.374 . S
C606 H633 0.931 1_554 S
C607 C608 1.359 . S
C607 C609 1.364 . S
C608 C606 1.374 . S
C608 C607 1.359 . S
C608 H634 0.931 1_554 S
C609 C605 1.389 . S
C609 C607 1.364 . S
C609 H635 0.931 . S
C610 O624 1.256 . S
C610 O625 1.257 . S
C611 O626 1.240 . S
C611 O627 1.240 . S
C612 Gd601 2.818 . S
C612 C613 1.510 . S
C612 O628 1.249 . S
C612 O629 1.252 . S
C613 C612 1.510 . S
C613 C614 1.404 . S
C613 C615 1.352 . S
C614 C613 1.404 . S
C614 C618 1.389 . S
C614 H636 0.930 . S
C615 C613 1.352 . S
C615 C617 1.374 . S
C615 H637 0.931 1_556 S
C616 C617 1.359 . S
C616 C618 1.364 . S
C617 C615 1.374 . S
C617 C616 1.359 . S
C617 H638 0.931 1_556 S
C618 C614 1.389 . S
C618 C616 1.364 . S
C618 H639 0.931 . S
C619 O630 1.256 . S
C619 O631 1.257 . S
O620 Gd600 2.377 1_556 S
O620 C602 1.240 . S
O621 Gd601 2.395 . S
O621 C602 1.240 . S
O622 Gd600 2.448 . S
O622 C603 1.249 . S
O623 Gd600 2.506 . S
O623 C603 1.252 . S
O624 Gd600 2.435 . S
O624 C610 1.256 . S
O625 Gd600 2.717 . S
O625 Gd601 2.327 1_554 S
O625 C610 1.257 . S
O626 Gd601 2.377 1_554 S
O626 C611 1.240 . S
O627 Gd600 2.395 . S
O627 C611 1.240 . S
O628 Gd601 2.448 . S
O628 C612 1.249 . S
O629 Gd601 2.506 . S
O629 C612 1.252 . S
O630 Gd601 2.435 . S
O630 C619 1.256 . S
O631 Gd600 2.327 1_556 S
O631 Gd601 2.717 . S
O631 C619 1.257 . S
H632 C605 0.930 . S
H633 C606 0.931 1_556 S
H634 C608 0.931 1_556 S
H635 C609 0.931 . S
H636 C614 0.930 . S
H637 C615 0.931 1_554 S
H638 C617 0.931 1_554 S
H639 C618 0.931 . S
C640 C641 1.331 1_455 S
C640 C642 1.340 . S
C640 H665 0.955 . S
C641 C640 1.331 1_655 S
C641 C657 1.349 . S
C642 C640 1.340 . S
C642 C661 1.429 1_455 S
C642 H666 0.950 . S
C643 C660 1.574 . S
C643 C662 1.368 . S
C643 H667 0.949 . S
H644 C648 0.949 . S
C645 C646 1.349 1_655 S
C645 C647 1.327 . S
C645 H668 0.950 . S
C646 C645 1.349 1_455 S
C646 C658 1.349 . S
C647 C645 1.327 . S
C647 C663 1.429 1_655 S
C647 H669 0.950 . S
C648 H644 0.949 . S
C648 C656 1.574 . S
C648 C664 1.370 1_455 S
H649 C657 0.950 . S
H650 C655 0.950 . S
H651 C656 0.949 . S
H652 C658 0.950 . S
H653 C659 0.950 . S
H654 C660 0.949 . S
C655 H650 0.950 . S
C655 C657 1.327 . S
C655 C661 1.429 . S
C656 C648 1.574 . S
C656 H651 0.949 . S
C656 C662 1.368 1_455 S
C657 C641 1.349 . S
C657 H649 0.950 . S
C657 C655 1.327 . S
C658 C646 1.349 . S
C658 H652 0.950 . S
C658 C659 1.327 . S
C659 H653 0.950 . S
C659 C658 1.327 . S
C659 C663 1.429 . S
C660 C643 1.574 . S
C660 H654 0.949 . S
C660 C664 1.365 . S
C661 C642 1.429 1_655 S
C661 C655 1.429 . S
C661 C662 1.523 . S
C662 C643 1.368 . S
C662 C656 1.368 1_655 S
C662 C661 1.523 . S
C663 C647 1.429 1_455 S
C663 C659 1.429 . S
C663 C664 1.526 1_455 S
C664 C648 1.370 1_655 S
C664 C660 1.365 . S
C664 C663 1.526 1_655 S
H665 C640 0.955 . S
H666 C642 0.950 . S
H667 C643 0.949 . S
H668 C645 0.950 . S
H669 C647 0.950 . S
C670 C671 1.349 . S
C670 C672 1.327 . S
C670 H695 0.950 . S
C671 C670 1.349 . S
C671 C687 1.349 . S
C672 C670 1.327 . S
C672 C691 1.429 . S
C672 H696 0.950 . S
C673 C690 1.574 . S
C673 C692 1.368 . S
C673 H697 0.949 . S
H674 C678 0.949 . S
C675 C676 1.349 . S
C675 C677 1.327 . S
C675 H698 0.950 . S
C676 C675 1.349 . S
C676 C688 1.349 . S
C677 C675 1.327 . S
C677 C693 1.429 . S
C677 H699 0.950 . S
C678 H674 0.949 . S
C678 C686 1.574 . S
C678 C694 1.368 . S
H679 C687 0.950 . S
H680 C685 0.950 . S
H681 C686 0.949 . S
H682 C688 0.950 . S
H683 C689 0.950 . S
H684 C690 0.949 . S
C685 H680 0.950 . S
C685 C687 1.327 . S
C685 C691 1.429 . S
C686 C678 1.574 . S
C686 H681 0.949 . S
C686 C692 1.368 . S
C687 C671 1.349 . S
C687 H679 0.950 . S
C687 C685 1.327 . S
C688 C676 1.349 . S
C688 H682 0.950 . S
C688 C689 1.327 . S
C689 H683 0.950 . S
C689 C688 1.327 . S
C689 C693 1.429 . S
C690 C673 1.574 . S
C690 H684 0.949 . S
C690 C694 1.368 . S
C691 C672 1.429 . S
C691 C685 1.429 . S
C691 C692 1.523 . S
C692 C673 1.368 . S
C692 C686 1.368 . S
C692 C691 1.523 . S
C693 C677 1.429 . S
C693 C689 1.429 . S
C693 C694 1.523 . S
C694 C678 1.368 . S
C694 C690 1.368 . S
C694 C693 1.523 . S
H695 C670 0.950 . S
H696 C672 0.950 . S
H697 C673 0.949 . S
H698 C675 0.950 . S
H699 C677 0.950 . S
C700 C701 1.349 . S
C700 C702 1.327 . S
C700 H725 0.950 . S
C701 C700 1.349 . S
C701 C717 1.349 . S
C702 C700 1.327 . S
C702 C721 1.429 . S
C702 H726 0.950 . S
C703 C720 1.574 . S
C703 C722 1.368 . S
C703 H727 0.949 . S
H704 C708 0.949 . S
C705 C706 1.349 . S
C705 C707 1.327 . S
C705 H728 0.950 . S
C706 C705 1.349 . S
C706 C718 1.349 . S
C707 C705 1.327 . S
C707 C723 1.429 . S
C707 H729 0.950 . S
C708 H704 0.949 . S
C708 C716 1.574 . S
C708 C724 1.368 . S
H709 C717 0.950 . S
H710 C715 0.950 . S
H711 C716 0.949 . S
H712 C718 0.950 . S
H713 C719 0.950 . S
H714 C720 0.949 . S
C715 H710 0.950 . S
C715 C717 1.327 . S
C715 C721 1.429 . S
C716 C708 1.574 . S
C716 H711 0.949 . S
C716 C722 1.368 . S
C717 C701 1.349 . S
C717 H709 0.950 . S
C717 C715 1.327 . S
C718 C706 1.349 . S
C718 H712 0.950 . S
C718 C719 1.327 . S
C719 H713 0.950 . S
C719 C718 1.327 . S
C719 C723 1.429 . S
C720 C703 1.574 . S
C720 H714 0.949 . S
C720 C724 1.368 . S
C721 C702 1.429 . S
C721 C715 1.429 . S
C721 C722 1.523 . S
C722 C703 1.368 . S
C722 C716 1.368 . S
C722 C721 1.523 . S
C723 C707 1.429 . S
C723 C719 1.429 . S
C723 C724 1.523 . S
C724 C708 1.368 . S
C724 C720 1.368 . S
C724 C723 1.523 . S
H725 C700 0.950 . S
H726 C702 0.950 . S
H727 C703 0.949 . S
H728 C705 0.950 . S
H729 C707 0.950 . S
C730 C731 1.349 . S
C730 C732 1.327 . S
C730 H755 0.950 . S
C731 C730 1.349 . S
C731 C747 1.349 . S
C732 C730 1.327 . S
C732 C751 1.429 . S
C732 H756 0.968 . S
C733 C750 1.574 . S
C733 C752 1.368 . S
C733 H757 0.949 . S
H734 C738 0.949 . S
C735 C736 1.315 1_545 S
C735 C737 1.357 . S
C735 H758 0.957 . S
C736 C735 1.315 1_565 S
C736 C748 1.349 . S
C737 C735 1.357 . S
C737 C753 1.429 1_545 S
C737 H759 0.950 . S
C738 H734 0.949 . S
C738 C746 1.587 . S
C738 C754 1.368 1_565 S
H739 C747 0.950 . S
H740 C745 0.950 . S
H741 C746 0.952 . S
H742 C748 0.950 . S
H743 C749 0.950 . S
H744 C750 0.949 . S
C745 H740 0.950 . S
C745 C747 1.327 . S
C745 C751 1.429 . S
C746 C738 1.587 . S
C746 H741 0.952 . S
C746 C752 1.353 1_565 S
C747 C731 1.349 . S
C747 H739 0.950 . S
C747 C745 1.327 . S
C748 C736 1.349 . S
C748 H742 0.950 . S
C748 C749 1.327 . S
C749 H743 0.950 . S
C749 C748 1.327 . S
C749 C753 1.429 . S
C750 C733 1.574 . S
C750 H744 0.949 . S
C750 C754 1.368 . S
C751 C732 1.429 . S
C751 C745 1.429 . S
C751 C752 1.523 . S
C752 C733 1.368 . S
C752 C746 1.353 1_545 S
C752 C751 1.523 . S
C753 C737 1.429 1_565 S
C753 C749 1.429 . S
C753 C754 1.523 1_565 S
C754 C738 1.368 1_545 S
C754 C750 1.368 . S
C754 C753 1.523 1_545 S
H755 C730 0.950 . S
H756 C732 0.968 . S
H757 C733 0.949 . S
H758 C735 0.957 . S
H759 C737 0.950 . S
C760 C761 1.349 . S
C760 C762 1.327 . S
C760 H785 0.950 . S
C761 C760 1.349 . S
C761 C777 1.349 . S
C762 C760 1.327 . S
C762 C781 1.429 . S
C762 H786 0.950 . S
C763 C780 1.574 . S
C763 C782 1.368 . S
C763 H787 0.949 . S
H764 C768 0.949 . S
C765 C766 1.349 . S
C765 C767 1.327 . S
C765 H788 0.950 . S
C766 C765 1.349 . S
C766 C778 1.349 . S
C767 C765 1.327 . S
C767 C783 1.429 . S
C767 H789 0.950 . S
C768 H764 0.949 . S
C768 C776 1.574 . S
C768 C784 1.368 . S
H769 C777 0.950 . S
H770 C775 0.950 . S
H771 C776 0.949 . S
H772 C778 0.950 . S
H773 C779 0.950 . S
H774 C780 0.957 . S
C775 H770 0.950 . S
C775 C777 1.327 . S
C775 C781 1.429 . S
C776 C768 1.574 . S
C776 H771 0.949 . S
C776 C782 1.368 . S
C777 C761 1.349 . S
C777 H769 0.950 . S
C777 C775 1.327 . S
C778 C766 1.349 . S
C778 H772 0.950 . S
C778 C779 1.327 . S
C779 H773 0.950 . S
C779 C778 1.327 . S
C779 C783 1.429 . S
C780 C763 1.574 . S
C780 H774 0.957 . S
C780 C784 1.368 . S
C781 C762 1.429 . S
C781 C775 1.429 . S
C781 C782 1.523 . S
C782 C763 1.368 . S
C782 C776 1.368 . S
C782 C781 1.523 . S
C783 C767 1.429 . S
C783 C779 1.429 . S
C783 C784 1.523 1_545 S
C784 C768 1.368 . S
C784 C780 1.368 . S
C784 C783 1.523 1_565 S
H785 C760 0.950 . S
H786 C762 0.950 . S
H787 C763 0.949 . S
H788 C765 0.950 . S
H789 C767 0.950 . S
C790 C791 1.349 . S
C790 C792 1.327 . S
C790 H815 0.950 . S
C791 C790 1.349 . S
C791 C807 1.314 1_455 S
C792 C790 1.327 . S
C792 C811 1.429 . S
C792 H816 0.950 . S
C793 C810 1.574 . S
C793 C812 1.368 1_655 S
C793 H817 0.949 . S
H794 C798 0.949 . S
C795 C796 1.349 . S
C795 C797 1.327 . S
C795 H818 0.950 . S
C796 C795 1.349 . S
C796 C808 1.349 1_655 S
C797 C795 1.327 . S
C797 C813 1.429 . S
C797 H819 0.950 . S
C798 H794 0.949 . S
C798 C806 1.574 . S
C798 C814 1.380 . S
H799 C807 0.965 . S
H800 C805 0.950 . S
H801 C806 0.949 . S
H802 C808 0.950 . S
H803 C809 0.950 . S
H804 C810 0.949 . S
C805 H800 0.950 . S
C805 C807 1.349 . S
C805 C811 1.429 1_655 S
C806 C798 1.574 . S
C806 H801 0.949 . S
C806 C812 1.368 . S
C807 C791 1.314 1_655 S
C807 H799 0.965 . S
C807 C805 1.349 . S
C808 C796 1.349 1_455 S
C808 H802 0.950 . S
C808 C809 1.327 . S
C809 H803 0.950 . S
C809 C808 1.327 . S
C809 C813 1.429 1_455 S
C810 C793 1.574 . S
C810 H804 0.949 . S
C810 C814 1.362 1_655 S
C811 C792 1.429 . S
C811 C805 1.429 1_455 S
C811 C812 1.523 . S
C812 C793 1.368 1_455 S
C812 C806 1.368 . S
C812 C811 1.523 . S
C813 C797 1.429 . S
C813 C809 1.429 1_655 S
C813 C814 1.516 1_655 S
C814 C798 1.380 . S
C814 C810 1.362 1_455 S
C814 C813 1.516 1_455 S
H815 C790 0.950 . S
H816 C792 0.950 . S
H817 C793 0.949 . S
H818 C795 0.950 . S
H819 C797 0.950 . S
C820 C821 1.349 . S
C820 C822 1.327 . S
C820 H845 0.950 . S
C821 C820 1.349 . S
C821 C837 1.349 . S
C822 C820 1.327 . S
C822 C841 1.429 . S
C822 H846 0.950 . S
C823 C840 1.574 . S
C823 C842 1.368 . S
C823 H847 0.949 . S
H824 C828 0.949 . S
C825 C826 1.349 . S
C825 C827 1.327 . S
C825 H848 0.950 . S
C826 C825 1.349 . S
C826 C838 1.349 . S
C827 C825 1.327 . S
C827 C843 1.429 . S
C827 H849 0.950 . S
C828 H824 0.949 . S
C828 C836 1.574 . S
C828 C844 1.368 . S
H829 C837 0.950 . S
H830 C835 0.950 . S
H831 C836 0.949 . S
H832 C838 0.950 . S
H833 C839 0.950 . S
H834 C840 0.949 . S
C835 H830 0.950 . S
C835 C837 1.327 . S
C835 C841 1.429 . S
C836 C828 1.574 . S
C836 H831 0.949 . S
C836 C842 1.368 . S
C837 C821 1.349 . S
C837 H829 0.950 . S
C837 C835 1.327 . S
C838 C826 1.349 . S
C838 H832 0.950 . S
C838 C839 1.327 . S
C839 H833 0.950 . S
C839 C838 1.327 . S
C839 C843 1.429 . S
C840 C823 1.574 . S
C840 H834 0.949 . S
C840 C844 1.368 . S
C841 C822 1.429 . S
C841 C835 1.429 . S
C841 C842 1.523 . S
C842 C823 1.368 . S
C842 C836 1.368 . S
C842 C841 1.523 . S
C843 C827 1.429 . S
C843 C839 1.429 . S
C843 C844 1.523 . S
C844 C828 1.368 . S
C844 C840 1.368 . S
C844 C843 1.523 . S
H845 C820 0.950 . S
H846 C822 0.950 . S
H847 C823 0.949 . S
H848 C825 0.950 . S
H849 C827 0.950 . S
C850 C851 1.349 . S
C850 C852 1.327 . S
C850 H875 0.950 . S
C851 C850 1.349 . S
C851 C867 1.349 . S
C852 C850 1.327 . S
C852 C871 1.429 . S
C852 H876 0.950 . S
C853 C870 1.574 . S
C853 C872 1.368 . S
C853 H877 0.949 . S
H854 C858 0.949 . S
C855 C856 1.349 . S
C855 C857 1.327 . S
C855 H878 0.950 . S
C856 C855 1.349 . S
C856 C868 1.349 . S
C857 C855 1.327 . S
C857 C873 1.429 . S
C857 H879 0.950 . S
C858 H854 0.949 . S
C858 C866 1.574 . S
C858 C874 1.368 . S
H859 C867 0.950 . S
H860 C865 0.950 . S
H861 C866 0.949 . S
H862 C868 0.950 . S
H863 C869 0.950 . S
H864 C870 0.949 . S
C865 H860 0.950 . S
C865 C867 1.327 . S
C865 C871 1.429 . S
C866 C858 1.574 . S
C866 H861 0.949 . S
C866 C872 1.368 . S
C867 C851 1.349 . S
C867 H859 0.950 . S
C867 C865 1.327 . S
C868 C856 1.349 . S
C868 H862 0.950 . S
C868 C869 1.327 . S
C869 H863 0.950 . S
C869 C868 1.327 . S
C869 C873 1.429 . S
C870 C853 1.574 . S
C870 H864 0.949 . S
C870 C874 1.368 . S
C871 C852 1.429 . S
C871 C865 1.429 . S
C871 C872 1.523 . S
C872 C853 1.368 . S
C872 C866 1.368 . S
C872 C871 1.523 . S
C873 C857 1.429 . S
C873 C869 1.429 . S
C873 C874 1.523 . S
C874 C858 1.368 . S
C874 C870 1.368 . S
C874 C873 1.523 . S
H875 C850 0.950 . S
H876 C852 0.950 . S
H877 C853 0.949 . S
H878 C855 0.950 . S
H879 C857 0.950 . S
C880 C881 1.349 . S
C880 C882 1.327 . S
C880 H905 0.950 . S
C881 C880 1.349 . S
C881 C897 1.349 . S
C882 C880 1.327 . S
C882 C901 1.429 . S
C882 H906 0.950 . S
C883 C900 1.574 . S
C883 C902 1.368 . S
C883 H907 0.949 . S
H884 C888 0.949 . S
C885 C886 1.349 . S
C885 C887 1.327 . S
C885 H908 0.950 . S
C886 C885 1.349 . S
C886 C898 1.349 . S
C887 C885 1.327 . S
C887 C903 1.429 . S
C887 H909 0.950 . S
C888 H884 0.949 . S
C888 C896 1.574 . S
C888 C904 1.368 . S
H889 C897 0.950 . S
H890 C895 0.950 . S
H891 C896 0.949 . S
H892 C898 0.950 . S
H893 C899 0.950 . S
H894 C900 0.949 . S
C895 H890 0.950 . S
C895 C897 1.327 . S
C895 C901 1.429 . S
C896 C888 1.574 . S
C896 H891 0.949 . S
C896 C902 1.368 . S
C897 C881 1.349 . S
C897 H889 0.950 . S
C897 C895 1.327 . S
C898 C886 1.349 . S
C898 H892 0.950 . S
C898 C899 1.327 . S
C899 H893 0.950 . S
C899 C898 1.327 . S
C899 C903 1.429 . S
C900 C883 1.574 . S
C900 H894 0.949 . S
C900 C904 1.368 . S
C901 C882 1.429 . S
C901 C895 1.429 . S
C901 C902 1.523 . S
C902 C883 1.368 . S
C902 C896 1.368 . S
C902 C901 1.523 . S
C903 C887 1.429 . S
C903 C899 1.429 . S
C903 C904 1.523 . S
C904 C888 1.368 . S
C904 C900 1.368 . S
C904 C903 1.523 . S
H905 C880 0.950 . S
H906 C882 0.950 . S
H907 C883 0.949 . S
H908 C885 0.950 . S
H909 C887 0.950 . S
C910 C911 1.349 . S
C910 C912 1.327 . S
C910 H935 0.950 . S
C911 C910 1.349 . S
C911 C927 1.349 . S
C912 C910 1.327 . S
C912 C931 1.429 . S
C912 H936 0.950 . S
C913 C930 1.574 . S
C913 C932 1.368 . S
C913 H937 0.949 . S
H914 C918 0.949 . S
C915 C916 1.349 . S
C915 C917 1.327 . S
C915 H938 0.950 . S
C916 C915 1.349 . S
C916 C928 1.349 . S
C917 C915 1.327 . S
C917 C933 1.429 . S
C917 H939 0.950 . S
C918 H914 0.949 . S
C918 C926 1.574 . S
C918 C934 1.368 . S
H919 C927 0.950 . S
H920 C925 0.950 . S
H921 C926 0.949 . S
H922 C928 0.950 . S
H923 C929 0.950 . S
H924 C930 0.949 . S
C925 H920 0.950 . S
C925 C927 1.327 . S
C925 C931 1.429 . S
C926 C918 1.574 . S
C926 H921 0.949 . S
C926 C932 1.368 . S
C927 C911 1.349 . S
C927 H919 0.950 . S
C927 C925 1.327 . S
C928 C916 1.349 . S
C928 H922 0.950 . S
C928 C929 1.327 . S
C929 H923 0.950 . S
C929 C928 1.327 . S
C929 C933 1.429 . S
C930 C913 1.574 . S
C930 H924 0.949 . S
C930 C934 1.368 . S
C931 C912 1.429 . S
C931 C925 1.429 . S
C931 C932 1.523 . S
C932 C913 1.368 . S
C932 C926 1.368 . S
C932 C931 1.523 . S
C933 C917 1.429 . S
C933 C929 1.429 . S
C933 C934 1.523 . S
C934 C918 1.368 . S
C934 C930 1.368 . S
C934 C933 1.523 . S
H935 C910 0.950 . S
H936 C912 0.950 . S
H937 C913 0.949 . S
H938 C915 0.950 . S
H939 C917 0.950 . S
C940 C941 1.349 . S
C940 C942 1.327 . S
C940 H965 0.950 . S
C941 C940 1.349 . S
C941 C957 1.349 . S
C942 C940 1.327 . S
C942 C961 1.429 . S
C942 H966 0.950 . S
C943 C960 1.574 . S
C943 C962 1.368 . S
C943 H967 0.949 . S
H944 C948 0.955 . S
C945 C946 1.349 . S
C945 C947 1.327 . S
C945 H968 0.950 . S
C946 C945 1.349 . S
C946 C958 1.349 . S
C947 C945 1.327 . S
C947 C963 1.429 . S
C947 H969 0.964 . S
C948 H944 0.955 . S
C948 C956 1.574 . S
C948 C964 1.368 . S
H949 C957 0.950 . S
H950 C955 0.950 . S
H951 C956 0.949 . S
H952 C958 0.950 . S
H953 C959 0.950 . S
H954 C960 0.949 . S
C955 H950 0.950 . S
C955 C957 1.327 . S
C955 C961 1.429 . S
C956 C948 1.574 . S
C956 H951 0.949 . S
C956 C962 1.368 . S
C957 C941 1.349 . S
C957 H949 0.950 . S
C957 C955 1.327 . S
C958 C946 1.349 . S
C958 H952 0.950 . S
C958 C959 1.327 . S
C959 H953 0.950 . S
C959 C958 1.327 . S
C959 C963 1.429 . S
C960 C943 1.574 . S
C960 H954 0.949 . S
C960 C964 1.368 . S
C961 C942 1.429 . S
C961 C955 1.429 . S
C961 C962 1.523 . S
C962 C943 1.368 . S
C962 C956 1.368 . S
C962 C961 1.523 . S
C963 C947 1.429 . S
C963 C959 1.429 . S
C963 C964 1.523 1_545 S
C964 C948 1.368 . S
C964 C960 1.368 . S
C964 C963 1.523 1_565 S
H965 C940 0.950 . S
H966 C942 0.950 . S
H967 C943 0.949 . S
H968 C945 0.950 . S
H969 C947 0.964 . S
C970 C971 1.349 . S
C970 C972 1.327 . S
C970 H995 0.950 . S
C971 C970 1.349 . S
C971 C987 1.345 1_455 S
C972 C970 1.327 . S
C972 C991 1.429 . S
C972 H996 0.950 . S
C973 C990 1.574 . S
C973 C992 1.368 1_655 S
C973 H997 0.949 . S
H974 C978 0.949 . S
C975 C976 1.349 . S
C975 C977 1.327 . S
C975 H998 0.950 . S
C976 C975 1.349 . S
C976 C988 1.349 1_655 S
C977 C975 1.327 . S
C977 C993 1.429 . S
C977 H999 0.950 . S
C978 H974 0.949 . S
C978 C986 1.574 . S
C978 C994 1.379 . S
H979 C987 0.951 . S
H980 C985 0.950 . S
H981 C986 0.949 . S
H982 C988 0.950 . S
H983 C989 0.950 . S
H984 C990 0.949 . S
C985 H980 0.950 . S
C985 C987 1.329 . S
C985 C991 1.429 1_655 S
C986 C978 1.574 . S
C986 H981 0.949 . S
C986 C992 1.368 . S
C987 C971 1.345 1_655 S
C987 H979 0.951 . S
C987 C985 1.329 . S
C988 C976 1.349 1_455 S
C988 H982 0.950 . S
C988 C989 1.327 . S
C989 H983 0.950 . S
C989 C988 1.327 . S
C989 C993 1.429 1_455 S
C990 C973 1.574 . S
C990 H984 0.949 . S
C990 C994 1.363 1_655 S
C991 C972 1.429 . S
C991 C985 1.429 1_455 S
C991 C992 1.523 . S
C992 C973 1.368 1_455 S
C992 C986 1.368 . S
C992 C991 1.523 . S
C993 C977 1.429 . S
C993 C989 1.429 1_655 S
C993 C994 1.516 1_655 S
C994 C978 1.379 . S
C994 C990 1.363 1_455 S
C994 C993 1.516 1_455 S
H995 C970 0.950 . S
H996 C972 0.950 . S
H997 C973 0.949 . S
H998 C975 0.950 . S
H999 C977 0.950 . S
C1000 C1001 1.349 . S
C1000 C1002 1.327 . S
C1000 H1025 0.950 . S
C1001 C1000 1.349 . S
C1001 C1017 1.349 . S
C1002 C1000 1.327 . S
C1002 C1021 1.429 . S
C1002 H1026 0.950 . S
C1003 C1020 1.574 . S
C1003 C1022 1.368 . S
C1003 H1027 0.949 1_556 S
H1004 C1008 0.949 . S
C1005 C1006 1.349 1_554 S
C1005 C1007 1.327 . S
C1005 H1028 0.950 . S
C1006 C1005 1.349 1_556 S
C1006 C1018 1.349 . S
C1007 C1005 1.327 . S
C1007 C1023 1.429 1_554 S
C1007 H1029 0.950 . S
C1008 H1004 0.949 . S
C1008 C1016 1.574 . S
C1008 C1024 1.368 . S
H1009 C1017 0.950 . S
H1010 C1015 0.948 . S
H1011 C1016 0.949 . S
H1012 C1018 0.950 . S
H1013 C1019 0.950 . S
H1014 C1020 0.949 1_554 S
C1015 H1010 0.948 . S
C1015 C1017 1.327 . S
C1015 C1021 1.429 . S
C1016 C1008 1.574 . S
C1016 H1011 0.949 . S
C1016 C1022 1.368 . S
C1017 C1001 1.349 . S
C1017 H1009 0.950 . S
C1017 C1015 1.327 . S
C1018 C1006 1.349 . S
C1018 H1012 0.950 . S
C1018 C1019 1.327 . S
C1019 H1013 0.950 . S
C1019 C1018 1.327 . S
C1019 C1023 1.429 . S
C1020 C1003 1.574 . S
C1020 H1014 0.949 1_556 S
C1020 C1024 1.368 . S
C1021 C1002 1.429 . S
C1021 C1015 1.429 . S
C1021 C1022 1.523 . S
C1022 C1003 1.368 . S
C1022 C1016 1.368 . S
C1022 C1021 1.523 . S
C1023 C1007 1.429 1_556 S
C1023 C1019 1.429 . S
C1023 C1024 1.523 . S
C1024 C1008 1.368 . S
C1024 C1020 1.368 . S
C1024 C1023 1.523 . S
H1025 C1000 0.950 . S
H1026 C1002 0.950 . S
H1027 C1003 0.949 1_554 S
H1028 C1005 0.950 . S
H1029 C1007 0.950 . S
C1030 C1031 1.349 . S
C1030 C1032 1.327 . S
C1030 H1055 0.950 . S
C1031 C1030 1.349 . S
C1031 C1047 1.349 . S
C1032 C1030 1.327 . S
C1032 C1051 1.429 . S
C1032 H1056 0.950 . S
C1033 C1050 1.574 . S
C1033 C1052 1.368 . S
C1033 H1057 0.949 . S
H1034 C1038 0.949 . S
C1035 C1036 1.349 . S
C1035 C1037 1.327 . S
C1035 H1058 0.950 . S
C1036 C1035 1.349 . S
C1036 C1048 1.349 . S
C1037 C1035 1.327 . S
C1037 C1053 1.429 . S
C1037 H1059 0.950 . S
C1038 H1034 0.949 . S
C1038 C1046 1.574 . S
C1038 C1054 1.368 . S
H1039 C1047 0.950 . S
H1040 C1045 0.950 . S
H1041 C1046 0.949 . S
H1042 C1048 0.950 . S
H1043 C1049 0.950 . S
H1044 C1050 0.949 . S
C1045 H1040 0.950 . S
C1045 C1047 1.327 . S
C1045 C1051 1.429 . S
C1046 C1038 1.574 . S
C1046 H1041 0.949 . S
C1046 C1052 1.368 . S
C1047 C1031 1.349 . S
C1047 H1039 0.950 . S
C1047 C1045 1.327 . S
C1048 C1036 1.349 . S
C1048 H1042 0.950 . S
C1048 C1049 1.327 . S
C1049 H1043 0.950 . S
C1049 C1048 1.327 . S
C1049 C1053 1.429 . S
C1050 C1033 1.574 . S
C1050 H1044 0.949 . S
C1050 C1054 1.368 . S
C1051 C1032 1.429 . S
C1051 C1045 1.429 . S
C1051 C1052 1.523 . S
C1052 C1033 1.368 . S
C1052 C1046 1.368 . S
C1052 C1051 1.523 . S
C1053 C1037 1.429 . S
C1053 C1049 1.429 . S
C1053 C1054 1.523 . S
C1054 C1038 1.368 . S
C1054 C1050 1.368 . S
C1054 C1053 1.523 . S
H1055 C1030 0.950 . S
H1056 C1032 0.950 . S
H1057 C1033 0.949 . S
H1058 C1035 0.950 . S
H1059 C1037 0.950 . S
C1060 C1061 1.349 . S
C1060 C1062 1.327 . S
C1060 H1085 0.950 . S
C1061 C1060 1.349 . S
C1061 C1077 1.349 . S
C1062 C1060 1.327 . S
C1062 C1081 1.429 . S
C1062 H1086 0.950 . S
C1063 C1080 1.574 . S
C1063 C1082 1.368 . S
C1063 H1087 0.949 . S
H1064 C1068 0.949 . S
C1065 C1066 1.349 . S
C1065 C1067 1.327 . S
C1065 H1088 0.950 . S
C1066 C1065 1.349 . S
C1066 C1078 1.349 . S
C1067 C1065 1.327 . S
C1067 C1083 1.429 . S
C1067 H1089 0.950 . S
C1068 H1064 0.949 . S
C1068 C1076 1.574 . S
C1068 C1084 1.368 . S
H1069 C1077 0.950 . S
H1070 C1075 0.950 . S
H1071 C1076 0.949 . S
H1072 C1078 0.950 . S
H1073 C1079 0.950 . S
H1074 C1080 0.949 . S
C1075 H1070 0.950 . S
C1075 C1077 1.327 . S
C1075 C1081 1.429 . S
C1076 C1068 1.574 . S
C1076 H1071 0.949 . S
C1076 C1082 1.368 . S
C1077 C1061 1.349 . S
C1077 H1069 0.950 . S
C1077 C1075 1.327 . S
C1078 C1066 1.349 . S
C1078 H1072 0.950 . S
C1078 C1079 1.327 . S
C1079 H1073 0.950 . S
C1079 C1078 1.327 . S
C1079 C1083 1.429 . S
C1080 C1063 1.574 . S
C1080 H1074 0.949 . S
C1080 C1084 1.368 . S
C1081 C1062 1.429 . S
C1081 C1075 1.429 . S
C1081 C1082 1.523 . S
C1082 C1063 1.368 . S
C1082 C1076 1.368 . S
C1082 C1081 1.523 . S
C1083 C1067 1.429 . S
C1083 C1079 1.429 . S
C1083 C1084 1.523 . S
C1084 C1068 1.368 . S
C1084 C1080 1.368 . S
C1084 C1083 1.523 . S
H1085 C1060 0.950 . S
H1086 C1062 0.950 . S
H1087 C1063 0.949 . S
H1088 C1065 0.950 . S
H1089 C1067 0.950 . S
C1090 C1091 1.349 . S
C1090 C1092 1.327 . S
C1090 H1115 0.950 . S
C1091 C1090 1.349 . S
C1091 C1107 1.349 . S
C1092 C1090 1.327 . S
C1092 C1111 1.429 . S
C1092 H1116 0.950 . S
C1093 C1110 1.574 . S
C1093 C1112 1.368 . S
C1093 H1117 0.949 . S
H1094 C1098 0.949 . S
C1095 C1096 1.349 . S
C1095 C1097 1.327 . S
C1095 H1118 0.950 . S
C1096 C1095 1.349 . S
C1096 C1108 1.349 . S
C1097 C1095 1.327 . S
C1097 C1113 1.429 . S
C1097 H1119 0.950 . S
C1098 H1094 0.949 . S
C1098 C1106 1.574 . S
C1098 C1114 1.368 . S
H1099 C1107 0.950 . S
H1100 C1105 0.950 . S
H1101 C1106 0.949 . S
H1102 C1108 0.950 . S
H1103 C1109 0.950 . S
H1104 C1110 0.949 . S
C1105 H1100 0.950 . S
C1105 C1107 1.327 . S
C1105 C1111 1.429 . S
C1106 C1098 1.574 . S
C1106 H1101 0.949 . S
C1106 C1112 1.368 . S
C1107 C1091 1.349 . S
C1107 H1099 0.950 . S
C1107 C1105 1.327 . S
C1108 C1096 1.349 . S
C1108 H1102 0.950 . S
C1108 C1109 1.327 . S
C1109 H1103 0.950 . S
C1109 C1108 1.327 . S
C1109 C1113 1.429 . S
C1110 C1093 1.574 . S
C1110 H1104 0.949 . S
C1110 C1114 1.368 . S
C1111 C1092 1.429 . S
C1111 C1105 1.429 . S
C1111 C1112 1.523 . S
C1112 C1093 1.368 . S
C1112 C1106 1.368 . S
C1112 C1111 1.523 . S
C1113 C1097 1.429 . S
C1113 C1109 1.429 . S
C1113 C1114 1.523 . S
C1114 C1098 1.368 . S
C1114 C1110 1.368 . S
C1114 C1113 1.523 . S
H1115 C1090 0.950 . S
H1116 C1092 0.950 . S
H1117 C1093 0.949 . S
H1118 C1095 0.950 . S
H1119 C1097 0.950 . S
C1120 C1121 1.349 . S
C1120 C1122 1.327 . S
C1120 H1145 0.950 . S
C1121 C1120 1.349 . S
C1121 C1137 1.349 . S
C1122 C1120 1.327 . S
C1122 C1141 1.429 . S
C1122 H1146 0.950 . S
C1123 C1140 1.574 . S
C1123 C1142 1.368 . S
C1123 H1147 0.949 . S
H1124 C1128 0.949 . S
C1125 C1126 1.349 . S
C1125 C1127 1.327 . S
C1125 H1148 0.950 . S
C1126 C1125 1.349 . S
C1126 C1138 1.349 . S
C1127 C1125 1.327 . S
C1127 C1143 1.429 . S
C1127 H1149 0.950 . S
C1128 H1124 0.949 . S
C1128 C1136 1.574 . S
C1128 C1144 1.368 . S
H1129 C1137 0.950 . S
H1130 C1135 0.950 . S
H1131 C1136 0.949 . S
H1132 C1138 0.950 . S
H1133 C1139 0.950 . S
H1134 C1140 0.949 . S
C1135 H1130 0.950 . S
C1135 C1137 1.327 . S
C1135 C1141 1.429 . S
C1136 C1128 1.574 . S
C1136 H1131 0.949 . S
C1136 C1142 1.368 . S
C1137 C1121 1.349 . S
C1137 H1129 0.950 . S
C1137 C1135 1.327 . S
C1138 C1126 1.349 . S
C1138 H1132 0.950 . S
C1138 C1139 1.327 . S
C1139 H1133 0.950 . S
C1139 C1138 1.327 . S
C1139 C1143 1.429 . S
C1140 C1123 1.574 . S
C1140 H1134 0.949 . S
C1140 C1144 1.368 . S
C1141 C1122 1.429 . S
C1141 C1135 1.429 . S
C1141 C1142 1.523 . S
C1142 C1123 1.368 . S
C1142 C1136 1.368 . S
C1142 C1141 1.523 . S
C1143 C1127 1.429 . S
C1143 C1139 1.429 . S
C1143 C1144 1.523 . S
C1144 C1128 1.368 . S
C1144 C1140 1.368 . S
C1144 C1143 1.523 . S
H1145 C1120 0.950 . S
H1146 C1122 0.950 . S
H1147 C1123 0.949 . S
H1148 C1125 0.950 . S
H1149 C1127 0.950 . S
C1150 C1151 1.349 . S
C1150 C1152 1.327 . S
C1150 H1175 0.950 . S
C1151 C1150 1.349 . S
C1151 C1167 1.349 . S
C1152 C1150 1.327 . S
C1152 C1171 1.429 . S
C1152 H1176 0.950 . S
C1153 C1170 1.574 . S
C1153 C1172 1.368 . S
C1153 H1177 0.949 . S
H1154 C1158 0.949 . S
C1155 C1156 1.349 . S
C1155 C1157 1.327 . S
C1155 H1178 0.950 . S
C1156 C1155 1.349 . S
C1156 C1168 1.349 . S
C1157 C1155 1.327 . S
C1157 C1173 1.429 . S
C1157 H1179 0.950 . S
C1158 H1154 0.949 . S
C1158 C1166 1.574 . S
C1158 C1174 1.368 . S
H1159 C1167 0.950 . S
H1160 C1165 0.950 . S
H1161 C1166 0.949 . S
H1162 C1168 0.950 . S
H1163 C1169 0.950 . S
H1164 C1170 0.949 . S
C1165 H1160 0.950 . S
C1165 C1167 1.327 . S
C1165 C1171 1.429 . S
C1166 C1158 1.574 . S
C1166 H1161 0.949 . S
C1166 C1172 1.368 . S
C1167 C1151 1.349 . S
C1167 H1159 0.950 . S
C1167 C1165 1.327 . S
C1168 C1156 1.349 . S
C1168 H1162 0.950 . S
C1168 C1169 1.327 . S
C1169 H1163 0.950 . S
C1169 C1168 1.327 . S
C1169 C1173 1.429 . S
C1170 C1153 1.574 . S
C1170 H1164 0.949 . S
C1170 C1174 1.368 . S
C1171 C1152 1.429 . S
C1171 C1165 1.429 . S
C1171 C1172 1.523 . S
C1172 C1153 1.368 . S
C1172 C1166 1.368 . S
C1172 C1171 1.523 . S
C1173 C1157 1.429 . S
C1173 C1169 1.429 . S
C1173 C1174 1.523 . S
C1174 C1158 1.368 . S
C1174 C1170 1.368 . S
C1174 C1173 1.523 . S
H1175 C1150 0.950 . S
H1176 C1152 0.950 . S
H1177 C1153 0.949 . S
H1178 C1155 0.950 . S
H1179 C1157 0.950 . S
C1180 C1181 1.349 . S
C1180 C1182 1.327 . S
C1180 H1205 0.950 . S
C1181 C1180 1.349 . S
C1181 C1197 1.349 . S
C1182 C1180 1.327 . S
C1182 C1201 1.429 . S
C1182 H1206 0.950 . S
C1183 C1200 1.574 . S
C1183 C1202 1.368 . S
C1183 H1207 0.949 . S
H1184 C1188 0.949 . S
C1185 C1186 1.349 . S
C1185 C1187 1.327 . S
C1185 H1208 0.950 . S
C1186 C1185 1.349 . S
C1186 C1198 1.349 . S
C1187 C1185 1.327 . S
C1187 C1203 1.429 . S
C1187 H1209 0.950 . S
C1188 H1184 0.949 . S
C1188 C1196 1.574 . S
C1188 C1204 1.368 . S
H1189 C1197 0.950 . S
H1190 C1195 0.950 . S
H1191 C1196 0.949 . S
H1192 C1198 0.950 . S
H1193 C1199 0.950 . S
H1194 C1200 0.949 . S
C1195 H1190 0.950 . S
C1195 C1197 1.327 . S
C1195 C1201 1.429 . S
C1196 C1188 1.574 . S
C1196 H1191 0.949 . S
C1196 C1202 1.368 . S
C1197 C1181 1.349 . S
C1197 H1189 0.950 . S
C1197 C1195 1.327 . S
C1198 C1186 1.349 . S
C1198 H1192 0.950 . S
C1198 C1199 1.327 . S
C1199 H1193 0.950 . S
C1199 C1198 1.327 . S
C1199 C1203 1.429 . S
C1200 C1183 1.574 . S
C1200 H1194 0.949 . S
C1200 C1204 1.368 . S
C1201 C1182 1.429 . S
C1201 C1195 1.429 . S
C1201 C1202 1.523 . S
C1202 C1183 1.368 . S
C1202 C1196 1.368 . S
C1202 C1201 1.523 . S
C1203 C1187 1.429 . S
C1203 C1199 1.429 . S
C1203 C1204 1.523 . S
C1204 C1188 1.368 . S
C1204 C1200 1.368 . S
C1204 C1203 1.523 . S
H1205 C1180 0.950 . S
H1206 C1182 0.950 . S
H1207 C1183 0.949 . S
H1208 C1185 0.950 . S
H1209 C1187 0.950 . S
C1210 C1211 1.349 . S
C1210 C1212 1.327 . S
C1210 H1235 0.950 . S
C1211 C1210 1.349 . S
C1211 C1227 1.349 . S
C1212 C1210 1.327 . S
C1212 C1231 1.429 . S
C1212 H1236 0.950 . S
C1213 C1230 1.574 . S
C1213 C1232 1.368 . S
C1213 H1237 0.949 . S
H1214 C1218 0.949 . S
C1215 C1216 1.349 . S
C1215 C1217 1.327 . S
C1215 H1238 0.950 . S
C1216 C1215 1.349 . S
C1216 C1228 1.349 . S
C1217 C1215 1.327 . S
C1217 C1233 1.429 . S
C1217 H1239 0.950 . S
C1218 H1214 0.949 . S
C1218 C1226 1.574 . S
C1218 C1234 1.368 . S
H1219 C1227 0.950 . S
H1220 C1225 0.950 . S
H1221 C1226 0.949 . S
H1222 C1228 0.950 . S
H1223 C1229 0.950 . S
H1224 C1230 0.949 . S
C1225 H1220 0.950 . S
C1225 C1227 1.327 . S
C1225 C1231 1.429 . S
C1226 C1218 1.574 . S
C1226 H1221 0.949 . S
C1226 C1232 1.368 . S
C1227 C1211 1.349 . S
C1227 H1219 0.950 . S
C1227 C1225 1.327 . S
C1228 C1216 1.349 . S
C1228 H1222 0.950 . S
C1228 C1229 1.327 . S
C1229 H1223 0.950 . S
C1229 C1228 1.327 . S
C1229 C1233 1.429 . S
C1230 C1213 1.574 . S
C1230 H1224 0.949 . S
C1230 C1234 1.368 . S
C1231 C1212 1.429 . S
C1231 C1225 1.429 . S
C1231 C1232 1.523 . S
C1232 C1213 1.368 . S
C1232 C1226 1.368 . S
C1232 C1231 1.523 . S
C1233 C1217 1.429 . S
C1233 C1229 1.429 . S
C1233 C1234 1.523 . S
C1234 C1218 1.368 . S
C1234 C1230 1.368 . S
C1234 C1233 1.523 . S
H1235 C1210 0.950 . S
H1236 C1212 0.950 . S
H1237 C1213 0.949 . S
H1238 C1215 0.950 . S
H1239 C1217 0.950 . S
C1240 C1241 1.349 . S
C1240 C1242 1.327 . S
C1240 H1265 0.950 . S
C1241 C1240 1.349 . S
C1241 C1257 1.349 . S
C1242 C1240 1.327 . S
C1242 C1261 1.429 . S
C1242 H1266 0.950 . S
C1243 C1260 1.574 . S
C1243 C1262 1.368 . S
C1243 H1267 0.949 . S
H1244 C1248 0.949 . S
C1245 C1246 1.349 . S
C1245 C1247 1.327 . S
C1245 H1268 0.950 . S
C1246 C1245 1.349 . S
C1246 C1258 1.349 . S
C1247 C1245 1.327 . S
C1247 C1263 1.429 . S
C1247 H1269 0.950 . S
C1248 H1244 0.949 . S
C1248 C1256 1.574 . S
C1248 C1264 1.368 . S
H1249 C1257 0.950 . S
H1250 C1255 0.950 . S
H1251 C1256 0.949 . S
H1252 C1258 0.950 . S
H1253 C1259 0.950 . S
H1254 C1260 0.949 . S
C1255 H1250 0.950 . S
C1255 C1257 1.327 . S
C1255 C1261 1.429 . S
C1256 C1248 1.574 . S
C1256 H1251 0.949 . S
C1256 C1262 1.368 . S
C1257 C1241 1.349 . S
C1257 H1249 0.950 . S
C1257 C1255 1.327 . S
C1258 C1246 1.349 . S
C1258 H1252 0.950 . S
C1258 C1259 1.327 . S
C1259 H1253 0.950 . S
C1259 C1258 1.327 . S
C1259 C1263 1.429 . S
C1260 C1243 1.574 . S
C1260 H1254 0.949 . S
C1260 C1264 1.368 . S
C1261 C1242 1.429 . S
C1261 C1255 1.429 . S
C1261 C1262 1.523 . S
C1262 C1243 1.368 . S
C1262 C1256 1.368 . S
C1262 C1261 1.523 . S
C1263 C1247 1.429 . S
C1263 C1259 1.429 . S
C1263 C1264 1.523 . S
C1264 C1248 1.368 . S
C1264 C1260 1.368 . S
C1264 C1263 1.523 . S
H1265 C1240 0.950 . S
H1266 C1242 0.950 . S
H1267 C1243 0.949 . S
H1268 C1245 0.950 . S
H1269 C1247 0.950 . S
C1270 C1271 1.349 1_655 S
C1270 C1272 1.327 . S
C1270 H1295 0.950 . S
C1271 C1270 1.349 1_455 S
C1271 C1287 1.349 . S
C1272 C1270 1.327 . S
C1272 C1291 1.429 1_655 S
C1272 H1296 0.950 . S
C1273 C1290 1.574 . S
C1273 C1292 1.366 . S
C1273 H1297 0.949 . S
H1274 C1278 0.949 . S
C1275 C1276 1.349 1_455 S
C1275 C1277 1.327 . S
C1275 H1298 0.950 . S
C1276 C1275 1.349 1_655 S
C1276 C1288 1.349 . S
C1277 C1275 1.327 . S
C1277 C1293 1.429 1_455 S
C1277 H1299 0.950 . S
C1278 H1274 0.949 . S
C1278 C1286 1.574 . S
C1278 C1294 1.368 . S
H1279 C1287 0.950 . S
H1280 C1285 0.950 . S
H1281 C1286 0.949 . S
H1282 C1288 0.950 . S
H1283 C1289 0.950 . S
H1284 C1290 0.949 . S
C1285 H1280 0.950 . S
C1285 C1287 1.327 . S
C1285 C1291 1.429 . S
C1286 C1278 1.574 . S
C1286 H1281 0.949 . S
C1286 C1292 1.373 1_655 S
C1287 C1271 1.349 . S
C1287 H1279 0.950 . S
C1287 C1285 1.327 . S
C1288 C1276 1.349 . S
C1288 H1282 0.950 . S
C1288 C1289 1.327 . S
C1289 H1283 0.950 . S
C1289 C1288 1.327 . S
C1289 C1293 1.429 . S
C1290 C1273 1.574 . S
C1290 H1284 0.949 . S
C1290 C1294 1.368 1_455 S
C1291 C1272 1.429 1_455 S
C1291 C1285 1.429 . S
C1291 C1292 1.520 . S
C1292 C1273 1.366 . S
C1292 C1286 1.373 1_455 S
C1292 C1291 1.520 . S
C1293 C1277 1.429 1_655 S
C1293 C1289 1.429 . S
C1293 C1294 1.523 . S
C1294 C1278 1.368 . S
C1294 C1290 1.368 1_655 S
C1294 C1293 1.523 . S
H1295 C1270 0.950 . S
H1296 C1272 0.950 . S
H1297 C1273 0.949 . S
H1298 C1275 0.950 . S
H1299 C1277 0.950 . S
C1300 C1301 1.349 . S
C1300 C1302 1.327 . S
C1300 H1325 0.950 . S
C1301 C1300 1.349 . S
C1301 C1317 1.349 . S
C1302 C1300 1.327 . S
C1302 C1321 1.429 . S
C1302 H1326 0.950 . S
C1303 C1320 1.574 . S
C1303 C1322 1.368 . S
C1303 H1327 0.949 . S
H1304 C1308 0.949 . S
C1305 C1306 1.349 . S
C1305 C1307 1.327 . S
C1305 H1328 0.950 . S
C1306 C1305 1.349 . S
C1306 C1318 1.349 . S
C1307 C1305 1.327 . S
C1307 C1323 1.429 . S
C1307 H1329 0.950 . S
C1308 H1304 0.949 . S
C1308 C1316 1.574 . S
C1308 C1324 1.368 . S
H1309 C1317 0.950 . S
H1310 C1315 0.950 . S
H1311 C1316 0.949 . S
H1312 C1318 0.950 . S
H1313 C1319 0.950 . S
H1314 C1320 0.949 . S
C1315 H1310 0.950 . S
C1315 C1317 1.327 . S
C1315 C1321 1.429 . S
C1316 C1308 1.574 . S
C1316 H1311 0.949 . S
C1316 C1322 1.368 . S
C1317 C1301 1.349 . S
C1317 H1309 0.950 . S
C1317 C1315 1.327 . S
C1318 C1306 1.349 . S
C1318 H1312 0.950 . S
C1318 C1319 1.327 . S
C1319 H1313 0.950 . S
C1319 C1318 1.327 . S
C1319 C1323 1.429 . S
C1320 C1303 1.574 . S
C1320 H1314 0.949 . S
C1320 C1324 1.368 . S
C1321 C1302 1.429 . S
C1321 C1315 1.429 . S
C1321 C1322 1.523 . S
C1322 C1303 1.368 . S
C1322 C1316 1.368 . S
C1322 C1321 1.523 . S
C1323 C1307 1.429 . S
C1323 C1319 1.429 . S
C1323 C1324 1.523 . S
C1324 C1308 1.368 . S
C1324 C1320 1.368 . S
C1324 C1323 1.523 . S
H1325 C1300 0.950 . S
H1326 C1302 0.950 . S
H1327 C1303 0.949 . S
H1328 C1305 0.950 . S
H1329 C1307 0.950 . S
C1330 C1331 1.349 . S
C1330 C1332 1.327 . S
C1330 H1355 0.950 . S
C1331 C1330 1.349 . S
C1331 C1347 1.349 . S
C1332 C1330 1.327 . S
C1332 C1351 1.429 . S
C1332 H1356 0.950 . S
C1333 C1350 1.574 . S
C1333 C1352 1.368 . S
C1333 H1357 0.949 . S
H1334 C1338 0.949 . S
C1335 C1336 1.349 . S
C1335 C1337 1.327 . S
C1335 H1358 0.950 . S
C1336 C1335 1.349 . S
C1336 C1348 1.349 . S
C1337 C1335 1.327 . S
C1337 C1353 1.429 . S
C1337 H1359 0.950 . S
C1338 H1334 0.949 . S
C1338 C1346 1.574 . S
C1338 C1354 1.368 . S
H1339 C1347 0.950 . S
H1340 C1345 0.950 . S
H1341 C1346 0.949 . S
H1342 C1348 0.950 . S
H1343 C1349 0.950 . S
H1344 C1350 0.949 . S
C1345 H1340 0.950 . S
C1345 C1347 1.327 . S
C1345 C1351 1.429 . S
C1346 C1338 1.574 . S
C1346 H1341 0.949 . S
C1346 C1352 1.368 . S
C1347 C1331 1.349 . S
C1347 H1339 0.950 . S
C1347 C1345 1.327 . S
C1348 C1336 1.349 . S
C1348 H1342 0.950 . S
C1348 C1349 1.327 . S
C1349 H1343 0.950 . S
C1349 C1348 1.327 . S
C1349 C1353 1.429 . S
C1350 C1333 1.574 . S
C1350 H1344 0.949 . S
C1350 C1354 1.368 . S
C1351 C1332 1.429 . S
C1351 C1345 1.429 . S
C1351 C1352 1.523 . S
C1352 C1333 1.368 . S
C1352 C1346 1.368 . S
C1352 C1351 1.523 . S
C1353 C1337 1.429 . S
C1353 C1349 1.429 . S
C1353 C1354 1.523 . S
C1354 C1338 1.368 . S
C1354 C1350 1.368 . S
C1354 C1353 1.523 . S
H1355 C1330 0.950 . S
H1356 C1332 0.950 . S
H1357 C1333 0.949 . S
H1358 C1335 0.950 . S
H1359 C1337 0.950 . S
C1360 C1361 1.349 . S
C1360 C1362 1.327 . S
C1360 H1385 0.950 . S
C1361 C1360 1.349 . S
C1361 C1377 1.349 . S
C1362 C1360 1.327 . S
C1362 C1381 1.429 . S
C1362 H1386 0.950 . S
C1363 C1380 1.574 . S
C1363 C1382 1.368 . S
C1363 H1387 0.949 . S
H1364 C1368 0.949 . S
C1365 C1366 1.349 . S
C1365 C1367 1.327 . S
C1365 H1388 0.950 . S
C1366 C1365 1.349 . S
C1366 C1378 1.349 . S
C1367 C1365 1.327 . S
C1367 C1383 1.429 . S
C1367 H1389 0.950 . S
C1368 H1364 0.949 . S
C1368 C1376 1.574 . S
C1368 C1384 1.368 . S
H1369 C1377 0.950 . S
H1370 C1375 0.950 . S
H1371 C1376 0.949 . S
H1372 C1378 0.950 . S
H1373 C1379 0.950 . S
H1374 C1380 0.949 . S
C1375 H1370 0.950 . S
C1375 C1377 1.327 . S
C1375 C1381 1.429 . S
C1376 C1368 1.574 . S
C1376 H1371 0.949 . S
C1376 C1382 1.368 . S
C1377 C1361 1.349 . S
C1377 H1369 0.950 . S
C1377 C1375 1.327 . S
C1378 C1366 1.349 . S
C1378 H1372 0.950 . S
C1378 C1379 1.327 . S
C1379 H1373 0.950 . S
C1379 C1378 1.327 . S
C1379 C1383 1.429 . S
C1380 C1363 1.574 . S
C1380 H1374 0.949 . S
C1380 C1384 1.368 . S
C1381 C1362 1.429 . S
C1381 C1375 1.429 . S
C1381 C1382 1.523 . S
C1382 C1363 1.368 . S
C1382 C1376 1.368 . S
C1382 C1381 1.523 . S
C1383 C1367 1.429 . S
C1383 C1379 1.429 . S
C1383 C1384 1.523 . S
C1384 C1368 1.368 . S
C1384 C1380 1.368 . S
C1384 C1383 1.523 . S
H1385 C1360 0.950 . S
H1386 C1362 0.950 . S
H1387 C1363 0.949 . S
H1388 C1365 0.950 . S
H1389 C1367 0.950 . S
C1390 C1391 1.349 . S
C1390 C1392 1.327 . S
C1390 H1415 0.950 . S
C1391 C1390 1.349 . S
C1391 C1407 1.349 . S
C1392 C1390 1.327 . S
C1392 C1411 1.429 . S
C1392 H1416 0.950 . S
C1393 C1410 1.574 . S
C1393 C1412 1.368 . S
C1393 H1417 0.949 . S
H1394 C1398 0.949 . S
C1395 C1396 1.349 . S
C1395 C1397 1.327 . S
C1395 H1418 0.950 . S
C1396 C1395 1.349 . S
C1396 C1408 1.349 . S
C1397 C1395 1.327 . S
C1397 C1413 1.429 . S
C1397 H1419 0.950 . S
C1398 H1394 0.949 . S
C1398 C1406 1.574 . S
C1398 C1414 1.368 . S
H1399 C1407 0.950 . S
H1400 C1405 0.950 . S
H1401 C1406 0.949 . S
H1402 C1408 0.950 . S
H1403 C1409 0.950 . S
H1404 C1410 0.949 . S
C1405 H1400 0.950 . S
C1405 C1407 1.327 . S
C1405 C1411 1.429 . S
C1406 C1398 1.574 . S
C1406 H1401 0.949 . S
C1406 C1412 1.368 . S
C1407 C1391 1.349 . S
C1407 H1399 0.950 . S
C1407 C1405 1.327 . S
C1408 C1396 1.349 . S
C1408 H1402 0.950 . S
C1408 C1409 1.327 . S
C1409 H1403 0.950 . S
C1409 C1408 1.327 . S
C1409 C1413 1.429 . S
C1410 C1393 1.574 . S
C1410 H1404 0.949 . S
C1410 C1414 1.368 . S
C1411 C1392 1.429 . S
C1411 C1405 1.429 . S
C1411 C1412 1.523 . S
C1412 C1393 1.368 . S
C1412 C1406 1.368 . S
C1412 C1411 1.523 . S
C1413 C1397 1.429 . S
C1413 C1409 1.429 . S
C1413 C1414 1.523 . S
C1414 C1398 1.368 . S
C1414 C1410 1.368 . S
C1414 C1413 1.523 . S
H1415 C1390 0.950 . S
H1416 C1392 0.950 . S
H1417 C1393 0.949 . S
H1418 C1395 0.950 . S
H1419 C1397 0.950 . S
C1420 C1421 1.349 . S
C1420 C1422 1.327 . S
C1420 H1445 0.950 . S
C1421 C1420 1.349 . S
C1421 C1437 1.349 1_565 S
C1422 C1420 1.327 . S
C1422 C1441 1.429 . S
C1422 H1446 0.950 . S
C1423 C1440 1.574 . S
C1423 C1442 1.368 . S
C1423 H1447 0.949 . S
H1424 C1428 0.949 . S
C1425 C1426 1.349 . S
C1425 C1427 1.327 . S
C1425 H1448 0.950 . S
C1426 C1425 1.349 . S
C1426 C1438 1.349 . S
C1427 C1425 1.327 . S
C1427 C1443 1.429 . S
C1427 H1449 0.950 . S
C1428 H1424 0.949 . S
C1428 C1436 1.574 . S
C1428 C1444 1.368 1_565 S
H1429 C1437 0.950 . S
H1430 C1435 0.950 . S
H1431 C1436 0.949 . S
H1432 C1438 0.950 1_565 S
H1433 C1439 0.950 . S
H1434 C1440 0.949 . S
C1435 H1430 0.950 . S
C1435 C1437 1.327 . S
C1435 C1441 1.429 1_545 S
C1436 C1428 1.574 . S
C1436 H1431 0.949 . S
C1436 C1442 1.368 1_565 S
C1437 C1421 1.349 1_545 S
C1437 H1429 0.950 . S
C1437 C1435 1.327 . S
C1438 C1426 1.349 . S
C1438 H1432 0.950 1_545 S
C1438 C1439 1.327 1_545 S
C1439 H1433 0.950 . S
C1439 C1438 1.327 1_565 S
C1439 C1443 1.429 1_565 S
C1440 C1423 1.574 . S
C1440 H1434 0.949 . S
C1440 C1444 1.368 . S
C1441 C1422 1.429 . S
C1441 C1435 1.429 1_565 S
C1441 C1442 1.523 1_565 S
C1442 C1423 1.368 . S
C1442 C1436 1.368 1_545 S
C1442 C1441 1.523 1_545 S
C1443 C1427 1.429 . S
C1443 C1439 1.429 1_545 S
C1443 C1444 1.523 . S
C1444 C1428 1.368 1_545 S
C1444 C1440 1.368 . S
C1444 C1443 1.523 . S
H1445 C1420 0.950 . S
H1446 C1422 0.950 . S
H1447 C1423 0.949 . S
H1448 C1425 0.950 . S
H1449 C1427 0.950 . S
C1450 C1451 1.349 . S
C1450 C1452 1.327 . S
C1450 H1475 0.950 . S
C1451 C1450 1.349 . S
C1451 C1467 1.349 1_554 S
C1452 C1450 1.327 . S
C1452 C1471 1.429 . S
C1452 H1476 0.950 . S
C1453 C1470 1.574 . S
C1453 C1472 1.368 . S
C1453 H1477 0.949 1_554 S
H1454 C1458 0.949 . S
C1455 C1456 1.349 . S
C1455 C1457 1.327 . S
C1455 H1478 0.950 . S
C1456 C1455 1.349 . S
C1456 C1468 1.349 . S
C1457 C1455 1.327 . S
C1457 C1473 1.429 . S
C1457 H1479 0.950 . S
C1458 H1454 0.949 . S
C1458 C1466 1.574 . S
C1458 C1474 1.368 . S
H1459 C1467 0.950 . S
H1460 C1465 0.950 . S
H1461 C1466 0.949 . S
H1462 C1468 0.950 . S
H1463 C1469 0.950 . S
H1464 C1470 0.949 1_556 S
C1465 H1460 0.950 . S
C1465 C1467 1.327 . S
C1465 C1471 1.429 1_556 S
C1466 C1458 1.574 . S
C1466 H1461 0.949 . S
C1466 C1472 1.368 . S
C1467 C1451 1.349 1_556 S
C1467 H1459 0.950 . S
C1467 C1465 1.327 . S
C1468 C1456 1.349 . S
C1468 H1462 0.950 . S
C1468 C1469 1.327 . S
C1469 H1463 0.950 . S
C1469 C1468 1.327 . S
C1469 C1473 1.429 . S
C1470 C1453 1.574 . S
C1470 H1464 0.949 1_554 S
C1470 C1474 1.368 . S
C1471 C1452 1.429 . S
C1471 C1465 1.429 1_554 S
C1471 C1472 1.523 . S
C1472 C1453 1.368 . S
C1472 C1466 1.368 . S
C1472 C1471 1.523 . S
C1473 C1457 1.429 . S
C1473 C1469 1.429 . S
C1473 C1474 1.523 . S
C1474 C1458 1.368 . S
C1474 C1470 1.368 . S
C1474 C1473 1.523 . S
H1475 C1450 0.950 . S
H1476 C1452 0.950 . S
H1477 C1453 0.949 1_556 S
H1478 C1455 0.950 . S
H1479 C1457 0.950 . S
C1480 C1481 1.349 . S
C1480 C1482 1.327 . S
C1480 H1505 0.950 . S
C1481 C1480 1.349 . S
C1481 C1497 1.349 . S
C1482 C1480 1.327 . S
C1482 C1501 1.429 . S
C1482 H1506 0.950 . S
C1483 C1500 1.574 . S
C1483 C1502 1.368 . S
C1483 H1507 0.949 . S
H1484 C1488 0.949 . S
C1485 C1486 1.349 . S
C1485 C1487 1.327 . S
C1485 H1508 0.950 . S
C1486 C1485 1.349 . S
C1486 C1498 1.349 . S
C1487 C1485 1.327 . S
C1487 C1503 1.429 . S
C1487 H1509 0.950 . S
C1488 H1484 0.949 . S
C1488 C1496 1.574 . S
C1488 C1504 1.368 . S
H1489 C1497 0.950 . S
H1490 C1495 0.950 . S
H1491 C1496 0.949 . S
H1492 C1498 0.950 . S
H1493 C1499 0.950 . S
H1494 C1500 0.949 . S
C1495 H1490 0.950 . S
C1495 C1497 1.327 . S
C1495 C1501 1.429 . S
C1496 C1488 1.574 . S
C1496 H1491 0.949 . S
C1496 C1502 1.368 . S
C1497 C1481 1.349 . S
C1497 H1489 0.950 . S
C1497 C1495 1.327 . S
C1498 C1486 1.349 . S
C1498 H1492 0.950 . S
C1498 C1499 1.327 . S
C1499 H1493 0.950 . S
C1499 C1498 1.327 . S
C1499 C1503 1.429 . S
C1500 C1483 1.574 . S
C1500 H1494 0.949 . S
C1500 C1504 1.368 . S
C1501 C1482 1.429 . S
C1501 C1495 1.429 . S
C1501 C1502 1.523 . S
C1502 C1483 1.368 . S
C1502 C1496 1.368 . S
C1502 C1501 1.523 . S
C1503 C1487 1.429 . S
C1503 C1499 1.429 . S
C1503 C1504 1.523 . S
C1504 C1488 1.368 . S
C1504 C1500 1.368 . S
C1504 C1503 1.523 . S
H1505 C1480 0.950 . S
H1506 C1482 0.950 . S
H1507 C1483 0.949 . S
H1508 C1485 0.950 . S
H1509 C1487 0.950 . S
C1510 C1511 1.349 . S
C1510 C1512 1.327 . S
C1510 H1535 0.950 . S
C1511 C1510 1.349 . S
C1511 C1527 1.349 . S
C1512 C1510 1.327 . S
C1512 C1531 1.429 . S
C1512 H1536 0.950 . S
C1513 C1530 1.574 . S
C1513 C1532 1.368 . S
C1513 H1537 0.949 . S
H1514 C1518 0.949 . S
C1515 C1516 1.349 . S
C1515 C1517 1.327 . S
C1515 H1538 0.950 . S
C1516 C1515 1.349 . S
C1516 C1528 1.349 . S
C1517 C1515 1.327 . S
C1517 C1533 1.429 . S
C1517 H1539 0.950 . S
C1518 H1514 0.949 . S
C1518 C1526 1.574 . S
C1518 C1534 1.368 . S
H1519 C1527 0.950 . S
H1520 C1525 0.950 . S
H1521 C1526 0.949 . S
H1522 C1528 0.950 . S
H1523 C1529 0.950 . S
H1524 C1530 0.949 . S
C1525 H1520 0.950 . S
C1525 C1527 1.327 . S
C1525 C1531 1.429 . S
C1526 C1518 1.574 . S
C1526 H1521 0.949 . S
C1526 C1532 1.368 . S
C1527 C1511 1.349 . S
C1527 H1519 0.950 . S
C1527 C1525 1.327 . S
C1528 C1516 1.349 . S
C1528 H1522 0.950 . S
C1528 C1529 1.327 . S
C1529 H1523 0.950 . S
C1529 C1528 1.327 . S
C1529 C1533 1.429 . S
C1530 C1513 1.574 . S
C1530 H1524 0.949 . S
C1530 C1534 1.368 . S
C1531 C1512 1.429 . S
C1531 C1525 1.429 . S
C1531 C1532 1.523 . S
C1532 C1513 1.368 . S
C1532 C1526 1.368 . S
C1532 C1531 1.523 . S
C1533 C1517 1.429 . S
C1533 C1529 1.429 . S
C1533 C1534 1.523 . S
C1534 C1518 1.368 . S
C1534 C1530 1.368 . S
C1534 C1533 1.523 . S
H1535 C1510 0.950 . S
H1536 C1512 0.950 . S
H1537 C1513 0.949 . S
H1538 C1515 0.950 . S
H1539 C1517 0.950 . S
C1540 C1541 1.349 . S
C1540 C1542 1.327 . S
C1540 H1565 0.950 . S
C1541 C1540 1.349 . S
C1541 C1557 1.349 . S
C1542 C1540 1.327 . S
C1542 C1561 1.429 . S
C1542 H1566 0.950 . S
C1543 C1560 1.574 . S
C1543 C1562 1.368 . S
C1543 H1567 0.949 . S
H1544 C1548 0.949 . S
C1545 C1546 1.349 . S
C1545 C1547 1.327 . S
C1545 H1568 0.950 . S
C1546 C1545 1.349 . S
C1546 C1558 1.349 . S
C1547 C1545 1.327 . S
C1547 C1563 1.429 . S
C1547 H1569 0.950 . S
C1548 H1544 0.949 . S
C1548 C1556 1.574 . S
C1548 C1564 1.368 . S
H1549 C1557 0.950 . S
H1550 C1555 0.950 . S
H1551 C1556 0.949 . S
H1552 C1558 0.950 . S
H1553 C1559 0.950 . S
H1554 C1560 0.949 . S
C1555 H1550 0.950 . S
C1555 C1557 1.327 . S
C1555 C1561 1.429 . S
C1556 C1548 1.574 . S
C1556 H1551 0.949 . S
C1556 C1562 1.368 . S
C1557 C1541 1.349 . S
C1557 H1549 0.950 . S
C1557 C1555 1.327 . S
C1558 C1546 1.349 . S
C1558 H1552 0.950 . S
C1558 C1559 1.327 . S
C1559 H1553 0.950 . S
C1559 C1558 1.327 . S
C1559 C1563 1.429 . S
C1560 C1543 1.574 . S
C1560 H1554 0.949 . S
C1560 C1564 1.368 . S
C1561 C1542 1.429 . S
C1561 C1555 1.429 . S
C1561 C1562 1.523 . S
C1562 C1543 1.368 . S
C1562 C1556 1.368 . S
C1562 C1561 1.523 . S
C1563 C1547 1.429 . S
C1563 C1559 1.429 . S
C1563 C1564 1.523 . S
C1564 C1548 1.368 . S
C1564 C1560 1.368 . S
C1564 C1563 1.523 . S
H1565 C1540 0.950 . S
H1566 C1542 0.950 . S
H1567 C1543 0.949 . S
H1568 C1545 0.950 . S
H1569 C1547 0.950 . S
C1570 C1571 1.349 . S
C1570 C1572 1.327 . S
C1570 H1595 0.950 . S
C1571 C1570 1.349 . S
C1571 C1587 1.349 . S
C1572 C1570 1.327 . S
C1572 C1591 1.429 . S
C1572 H1596 0.950 . S
C1573 C1590 1.574 . S
C1573 C1592 1.368 . S
C1573 H1597 0.949 . S
H1574 C1578 0.949 . S
C1575 C1576 1.349 . S
C1575 C1577 1.327 . S
C1575 H1598 0.950 . S
C1576 C1575 1.349 . S
C1576 C1588 1.349 . S
C1577 C1575 1.327 . S
C1577 C1593 1.429 . S
C1577 H1599 0.950 . S
C1578 H1574 0.949 . S
C1578 C1586 1.574 . S
C1578 C1594 1.368 . S
H1579 C1587 0.950 . S
H1580 C1585 0.950 . S
H1581 C1586 0.949 . S
H1582 C1588 0.950 . S
H1583 C1589 0.950 . S
H1584 C1590 0.949 . S
C1585 H1580 0.950 . S
C1585 C1587 1.327 . S
C1585 C1591 1.429 . S
C1586 C1578 1.574 . S
C1586 H1581 0.949 . S
C1586 C1592 1.368 . S
C1587 C1571 1.349 . S
C1587 H1579 0.950 . S
C1587 C1585 1.327 . S
C1588 C1576 1.349 . S
C1588 H1582 0.950 . S
C1588 C1589 1.327 . S
C1589 H1583 0.950 . S
C1589 C1588 1.327 . S
C1589 C1593 1.429 . S
C1590 C1573 1.574 . S
C1590 H1584 0.949 . S
C1590 C1594 1.368 . S
C1591 C1572 1.429 . S
C1591 C1585 1.429 . S
C1591 C1592 1.523 . S
C1592 C1573 1.368 . S
C1592 C1586 1.368 . S
C1592 C1591 1.523 . S
C1593 C1577 1.429 . S
C1593 C1589 1.429 . S
C1593 C1594 1.523 . S
C1594 C1578 1.368 . S
C1594 C1590 1.368 . S
C1594 C1593 1.523 . S
H1595 C1570 0.950 . S
H1596 C1572 0.950 . S
H1597 C1573 0.949 . S
H1598 C1575 0.950 . S
H1599 C1577 0.950 . S
C1600 C1601 1.349 . S
C1600 C1602 1.327 . S
C1600 H1625 0.950 . S
C1601 C1600 1.349 . S
C1601 C1617 1.349 . S
C1602 C1600 1.327 . S
C1602 C1621 1.429 . S
C1602 H1626 0.950 . S
C1603 C1620 1.574 . S
C1603 C1622 1.368 . S
C1603 H1627 0.949 . S
H1604 C1608 0.949 . S
C1605 C1606 1.349 . S
C1605 C1607 1.327 . S
C1605 H1628 0.950 . S
C1606 C1605 1.349 . S
C1606 C1618 1.349 . S
C1607 C1605 1.327 . S
C1607 C1623 1.429 . S
C1607 H1629 0.950 . S
C1608 H1604 0.949 . S
C1608 C1616 1.574 . S
C1608 C1624 1.368 . S
H1609 C1617 0.950 . S
H1610 C1615 0.950 . S
H1611 C1616 0.949 . S
H1612 C1618 0.950 . S
H1613 C1619 0.950 . S
H1614 C1620 0.949 . S
C1615 H1610 0.950 . S
C1615 C1617 1.327 . S
C1615 C1621 1.429 . S
C1616 C1608 1.574 . S
C1616 H1611 0.949 . S
C1616 C1622 1.368 . S
C1617 C1601 1.349 . S
C1617 H1609 0.950 . S
C1617 C1615 1.327 . S
C1618 C1606 1.349 . S
C1618 H1612 0.950 . S
C1618 C1619 1.327 . S
C1619 H1613 0.950 . S
C1619 C1618 1.327 . S
C1619 C1623 1.429 . S
C1620 C1603 1.574 . S
C1620 H1614 0.949 . S
C1620 C1624 1.368 . S
C1621 C1602 1.429 . S
C1621 C1615 1.429 . S
C1621 C1622 1.523 . S
C1622 C1603 1.368 . S
C1622 C1616 1.368 . S
C1622 C1621 1.523 . S
C1623 C1607 1.429 . S
C1623 C1619 1.429 . S
C1623 C1624 1.523 . S
C1624 C1608 1.368 . S
C1624 C1620 1.368 . S
C1624 C1623 1.523 . S
H1625 C1600 0.950 . S
H1626 C1602 0.950 . S
H1627 C1603 0.949 . S
H1628 C1605 0.950 . S
H1629 C1607 0.950 . S
C1630 C1631 1.349 . S
C1630 C1632 1.327 . S
C1630 H1655 0.950 . S
C1631 C1630 1.349 . S
C1631 C1647 1.349 . S
C1632 C1630 1.327 . S
C1632 C1651 1.429 . S
C1632 H1656 0.950 . S
C1633 C1650 1.574 . S
C1633 C1652 1.368 . S
C1633 H1657 0.949 . S
H1634 C1638 0.949 . S
C1635 C1636 1.349 . S
C1635 C1637 1.327 . S
C1635 H1658 0.950 . S
C1636 C1635 1.349 . S
C1636 C1648 1.349 . S
C1637 C1635 1.327 . S
C1637 C1653 1.429 . S
C1637 H1659 0.950 . S
C1638 H1634 0.949 . S
C1638 C1646 1.574 . S
C1638 C1654 1.368 . S
H1639 C1647 0.950 . S
H1640 C1645 0.950 . S
H1641 C1646 0.949 . S
H1642 C1648 0.950 . S
H1643 C1649 0.950 . S
H1644 C1650 0.949 . S
C1645 H1640 0.950 . S
C1645 C1647 1.327 . S
C1645 C1651 1.429 . S
C1646 C1638 1.574 . S
C1646 H1641 0.949 . S
C1646 C1652 1.368 . S
C1647 C1631 1.349 . S
C1647 H1639 0.950 . S
C1647 C1645 1.327 . S
C1648 C1636 1.349 . S
C1648 H1642 0.950 . S
C1648 C1649 1.327 . S
C1649 H1643 0.950 . S
C1649 C1648 1.327 . S
C1649 C1653 1.429 . S
C1650 C1633 1.574 . S
C1650 H1644 0.949 . S
C1650 C1654 1.368 . S
C1651 C1632 1.429 . S
C1651 C1645 1.429 . S
C1651 C1652 1.523 . S
C1652 C1633 1.368 . S
C1652 C1646 1.368 . S
C1652 C1651 1.523 . S
C1653 C1637 1.429 . S
C1653 C1649 1.429 . S
C1653 C1654 1.523 . S
C1654 C1638 1.368 . S
C1654 C1650 1.368 . S
C1654 C1653 1.523 . S
H1655 C1630 0.950 . S
H1656 C1632 0.950 . S
H1657 C1633 0.949 . S
H1658 C1635 0.950 . S
H1659 C1637 0.950 . S
C1660 C1661 1.349 . S
C1660 C1662 1.327 . S
C1660 H1685 0.950 . S
C1661 C1660 1.349 . S
C1661 C1677 1.349 . S
C1662 C1660 1.327 . S
C1662 C1681 1.429 . S
C1662 H1686 0.950 . S
C1663 C1680 1.574 . S
C1663 C1682 1.368 . S
C1663 H1687 0.949 . S
H1664 C1668 0.949 . S
C1665 C1666 1.349 . S
C1665 C1667 1.327 . S
C1665 H1688 0.950 . S
C1666 C1665 1.349 . S
C1666 C1678 1.349 . S
C1667 C1665 1.327 . S
C1667 C1683 1.429 . S
C1667 H1689 0.950 . S
C1668 H1664 0.949 . S
C1668 C1676 1.574 . S
C1668 C1684 1.368 . S
H1669 C1677 0.950 . S
H1670 C1675 0.950 . S
H1671 C1676 0.949 . S
H1672 C1678 0.950 . S
H1673 C1679 0.950 . S
H1674 C1680 0.949 . S
C1675 H1670 0.950 . S
C1675 C1677 1.327 . S
C1675 C1681 1.429 . S
C1676 C1668 1.574 . S
C1676 H1671 0.949 . S
C1676 C1682 1.368 . S
C1677 C1661 1.349 . S
C1677 H1669 0.950 . S
C1677 C1675 1.327 . S
C1678 C1666 1.349 . S
C1678 H1672 0.950 . S
C1678 C1679 1.327 . S
C1679 H1673 0.950 . S
C1679 C1678 1.327 . S
C1679 C1683 1.429 . S
C1680 C1663 1.574 . S
C1680 H1674 0.949 . S
C1680 C1684 1.368 . S
C1681 C1662 1.429 . S
C1681 C1675 1.429 . S
C1681 C1682 1.523 . S
C1682 C1663 1.368 . S
C1682 C1676 1.368 . S
C1682 C1681 1.523 . S
C1683 C1667 1.429 . S
C1683 C1679 1.429 . S
C1683 C1684 1.523 . S
C1684 C1668 1.368 . S
C1684 C1680 1.368 . S
C1684 C1683 1.523 . S
H1685 C1660 0.950 . S
H1686 C1662 0.950 . S
H1687 C1663 0.949 . S
H1688 C1665 0.950 . S
H1689 C1667 0.950 . S
C1690 C1691 1.349 . S
C1690 C1692 1.327 . S
C1690 H1715 0.950 . S
C1691 C1690 1.349 . S
C1691 C1707 1.349 . S
C1692 C1690 1.327 . S
C1692 C1711 1.429 . S
C1692 H1716 0.950 . S
C1693 C1710 1.574 . S
C1693 C1712 1.368 . S
C1693 H1717 0.949 . S
H1694 C1698 0.949 . S
C1695 C1696 1.349 . S
C1695 C1697 1.327 . S
C1695 H1718 0.950 . S
C1696 C1695 1.349 . S
C1696 C1708 1.349 . S
C1697 C1695 1.327 . S
C1697 C1713 1.429 . S
C1697 H1719 0.950 . S
C1698 H1694 0.949 . S
C1698 C1706 1.574 . S
C1698 C1714 1.368 . S
H1699 C1707 0.950 . S
H1700 C1705 0.950 . S
H1701 C1706 0.949 . S
H1702 C1708 0.950 . S
H1703 C1709 0.950 . S
H1704 C1710 0.949 . S
C1705 H1700 0.950 . S
C1705 C1707 1.327 . S
C1705 C1711 1.429 . S
C1706 C1698 1.574 . S
C1706 H1701 0.949 . S
C1706 C1712 1.368 . S
C1707 C1691 1.349 . S
C1707 H1699 0.950 . S
C1707 C1705 1.327 . S
C1708 C1696 1.349 . S
C1708 H1702 0.950 . S
C1708 C1709 1.327 . S
C1709 H1703 0.950 . S
C1709 C1708 1.327 . S
C1709 C1713 1.429 . S
C1710 C1693 1.574 . S
C1710 H1704 0.949 . S
C1710 C1714 1.368 . S
C1711 C1692 1.429 . S
C1711 C1705 1.429 . S
C1711 C1712 1.523 . S
C1712 C1693 1.368 . S
C1712 C1706 1.368 . S
C1712 C1711 1.523 . S
C1713 C1697 1.429 . S
C1713 C1709 1.429 . S
C1713 C1714 1.523 . S
C1714 C1698 1.368 . S
C1714 C1710 1.368 . S
C1714 C1713 1.523 . S
H1715 C1690 0.950 . S
H1716 C1692 0.950 . S
H1717 C1693 0.949 . S
H1718 C1695 0.950 . S
H1719 C1697 0.950 . S
C1720 C1721 1.349 . S
C1720 C1722 1.327 . S
C1720 H1745 0.950 . S
C1721 C1720 1.349 . S
C1721 C1737 1.349 . S
C1722 C1720 1.327 . S
C1722 C1741 1.429 . S
C1722 H1746 0.950 . S
C1723 C1740 1.574 . S
C1723 C1742 1.368 . S
C1723 H1747 0.949 . S
H1724 C1728 0.949 . S
C1725 C1726 1.349 . S
C1725 C1727 1.327 . S
C1725 H1748 0.950 . S
C1726 C1725 1.349 . S
C1726 C1738 1.349 . S
C1727 C1725 1.327 . S
C1727 C1743 1.429 . S
C1727 H1749 0.950 . S
C1728 H1724 0.949 . S
C1728 C1736 1.574 . S
C1728 C1744 1.368 . S
H1729 C1737 0.950 . S
H1730 C1735 0.950 . S
H1731 C1736 0.949 . S
H1732 C1738 0.950 . S
H1733 C1739 0.950 . S
H1734 C1740 0.949 . S
C1735 H1730 0.950 . S
C1735 C1737 1.327 . S
C1735 C1741 1.429 . S
C1736 C1728 1.574 . S
C1736 H1731 0.949 . S
C1736 C1742 1.368 . S
C1737 C1721 1.349 . S
C1737 H1729 0.950 . S
C1737 C1735 1.327 . S
C1738 C1726 1.349 . S
C1738 H1732 0.950 . S
C1738 C1739 1.327 . S
C1739 H1733 0.950 . S
C1739 C1738 1.327 . S
C1739 C1743 1.429 . S
C1740 C1723 1.574 . S
C1740 H1734 0.949 . S
C1740 C1744 1.368 . S
C1741 C1722 1.429 . S
C1741 C1735 1.429 . S
C1741 C1742 1.523 . S
C1742 C1723 1.368 . S
C1742 C1736 1.368 . S
C1742 C1741 1.523 . S
C1743 C1727 1.429 . S
C1743 C1739 1.429 . S
C1743 C1744 1.523 . S
C1744 C1728 1.368 . S
C1744 C1740 1.368 . S
C1744 C1743 1.523 . S
H1745 C1720 0.950 . S
H1746 C1722 0.950 . S
H1747 C1723 0.949 . S
H1748 C1725 0.950 . S
H1749 C1727 0.950 . S
C1750 C1751 1.349 . S
C1750 C1752 1.327 . S
C1750 H1775 0.950 . S
C1751 C1750 1.349 . S
C1751 C1767 1.349 . S
C1752 C1750 1.327 . S
C1752 C1771 1.429 . S
C1752 H1776 0.950 . S
C1753 C1770 1.574 . S
C1753 C1772 1.368 . S
C1753 H1777 0.949 . S
H1754 C1758 0.949 1_556 S
C1755 C1756 1.349 . S
C1755 C1757 1.327 . S
C1755 H1778 0.950 . S
C1756 C1755 1.349 . S
C1756 C1768 1.349 1_554 S
C1757 C1755 1.327 . S
C1757 C1773 1.429 . S
C1757 H1779 0.950 . S
C1758 H1754 0.949 1_554 S
C1758 C1766 1.574 . S
C1758 C1774 1.368 . S
H1759 C1767 0.950 . S
H1760 C1765 0.950 . S
H1761 C1766 0.949 . S
H1762 C1768 0.950 . S
H1763 C1769 0.955 . S
H1764 C1770 0.949 . S
C1765 H1760 0.950 . S
C1765 C1767 1.327 . S
C1765 C1771 1.429 . S
C1766 C1758 1.574 . S
C1766 H1761 0.949 . S
C1766 C1772 1.368 . S
C1767 C1751 1.349 . S
C1767 H1759 0.950 . S
C1767 C1765 1.327 . S
C1768 C1756 1.349 1_556 S
C1768 H1762 0.950 . S
C1768 C1769 1.332 . S
C1769 H1763 0.955 . S
C1769 C1768 1.332 . S
C1769 C1773 1.419 1_556 S
C1770 C1753 1.574 . S
C1770 H1764 0.949 . S
C1770 C1774 1.368 . S
C1771 C1752 1.429 . S
C1771 C1765 1.429 . S
C1771 C1772 1.523 . S
C1772 C1753 1.368 . S
C1772 C1766 1.368 . S
C1772 C1771 1.523 . S
C1773 C1757 1.429 . S
C1773 C1769 1.419 1_554 S
C1773 C1774 1.523 . S
C1774 C1758 1.368 . S
C1774 C1770 1.368 . S
C1774 C1773 1.523 . S
H1775 C1750 0.950 . S
H1776 C1752 0.950 . S
H1777 C1753 0.949 . S
H1778 C1755 0.950 . S
H1779 C1757 0.950 . S
C1780 C1781 1.349 . S
C1780 C1782 1.327 . S
C1780 H1805 0.950 . S
C1781 C1780 1.349 . S
C1781 C1797 1.349 . S
C1782 C1780 1.327 . S
C1782 C1801 1.429 . S
C1782 H1806 0.950 . S
C1783 C1800 1.574 . S
C1783 C1802 1.368 . S
C1783 H1807 0.949 . S
H1784 C1788 0.949 . S
C1785 C1786 1.349 . S
C1785 C1787 1.327 . S
C1785 H1808 0.950 . S
C1786 C1785 1.349 . S
C1786 C1798 1.349 . S
C1787 C1785 1.327 . S
C1787 C1803 1.429 . S
C1787 H1809 0.950 . S
C1788 H1784 0.949 . S
C1788 C1796 1.574 . S
C1788 C1804 1.368 . S
H1789 C1797 0.950 . S
H1790 C1795 0.950 . S
H1791 C1796 0.949 . S
H1792 C1798 0.950 . S
H1793 C1799 0.950 . S
H1794 C1800 0.949 . S
C1795 H1790 0.950 . S
C1795 C1797 1.327 . S
C1795 C1801 1.429 . S
C1796 C1788 1.574 . S
C1796 H1791 0.949 . S
C1796 C1802 1.368 . S
C1797 C1781 1.349 . S
C1797 H1789 0.950 . S
C1797 C1795 1.327 . S
C1798 C1786 1.349 . S
C1798 H1792 0.950 . S
C1798 C1799 1.327 . S
C1799 H1793 0.950 . S
C1799 C1798 1.327 . S
C1799 C1803 1.429 . S
C1800 C1783 1.574 . S
C1800 H1794 0.949 . S
C1800 C1804 1.368 . S
C1801 C1782 1.429 . S
C1801 C1795 1.429 . S
C1801 C1802 1.523 . S
C1802 C1783 1.368 . S
C1802 C1796 1.368 . S
C1802 C1801 1.523 . S
C1803 C1787 1.429 . S
C1803 C1799 1.429 . S
C1803 C1804 1.523 . S
C1804 C1788 1.368 . S
C1804 C1800 1.368 . S
C1804 C1803 1.523 . S
H1805 C1780 0.950 . S
H1806 C1782 0.950 . S
H1807 C1783 0.949 . S
H1808 C1785 0.950 . S
H1809 C1787 0.950 . S
C1810 C1811 1.349 . S
C1810 C1812 1.327 . S
C1810 H1835 0.950 . S
C1811 C1810 1.349 . S
C1811 C1827 1.349 . S
C1812 C1810 1.327 . S
C1812 C1831 1.429 . S
C1812 H1836 0.950 . S
C1813 C1830 1.574 . S
C1813 C1832 1.368 . S
C1813 H1837 0.949 . S
H1814 C1818 0.949 . S
C1815 C1816 1.349 . S
C1815 C1817 1.327 . S
C1815 H1838 0.950 . S
C1816 C1815 1.349 . S
C1816 C1828 1.349 . S
C1817 C1815 1.327 . S
C1817 C1833 1.429 . S
C1817 H1839 0.950 . S
C1818 H1814 0.949 . S
C1818 C1826 1.574 . S
C1818 C1834 1.368 . S
H1819 C1827 0.950 . S
H1820 C1825 0.950 . S
H1821 C1826 0.949 . S
H1822 C1828 0.950 . S
H1823 C1829 0.950 . S
H1824 C1830 0.949 . S
C1825 H1820 0.950 . S
C1825 C1827 1.327 . S
C1825 C1831 1.429 . S
C1826 C1818 1.574 . S
C1826 H1821 0.949 . S
C1826 C1832 1.368 . S
C1827 C1811 1.349 . S
C1827 H1819 0.950 . S
C1827 C1825 1.327 . S
C1828 C1816 1.349 . S
C1828 H1822 0.950 . S
C1828 C1829 1.327 . S
C1829 H1823 0.950 . S
C1829 C1828 1.327 . S
C1829 C1833 1.429 . S
C1830 C1813 1.574 . S
C1830 H1824 0.949 . S
C1830 C1834 1.368 . S
C1831 C1812 1.429 . S
C1831 C1825 1.429 . S
C1831 C1832 1.523 . S
C1832 C1813 1.368 . S
C1832 C1826 1.368 . S
C1832 C1831 1.523 . S
C1833 C1817 1.429 . S
C1833 C1829 1.429 . S
C1833 C1834 1.523 . S
C1834 C1818 1.368 . S
C1834 C1830 1.368 . S
C1834 C1833 1.523 . S
H1835 C1810 0.950 . S
H1836 C1812 0.950 . S
H1837 C1813 0.949 . S
H1838 C1815 0.950 . S
H1839 C1817 0.950 . S
C1840 C1841 1.349 . S
C1840 C1842 1.327 . S
C1840 H1865 0.950 . S
C1841 C1840 1.349 . S
C1841 C1857 1.349 . S
C1842 C1840 1.327 . S
C1842 C1861 1.429 . S
C1842 H1866 0.950 . S
C1843 C1860 1.574 . S
C1843 C1862 1.368 . S
C1843 H1867 0.949 . S
H1844 C1848 0.949 . S
C1845 C1846 1.349 . S
C1845 C1847 1.327 . S
C1845 H1868 0.950 . S
C1846 C1845 1.349 . S
C1846 C1858 1.349 . S
C1847 C1845 1.327 . S
C1847 C1863 1.429 . S
C1847 H1869 0.950 . S
C1848 H1844 0.949 . S
C1848 C1856 1.574 . S
C1848 C1864 1.368 . S
H1849 C1857 0.950 . S
H1850 C1855 0.950 . S
H1851 C1856 0.949 . S
H1852 C1858 0.950 . S
H1853 C1859 0.950 . S
H1854 C1860 0.949 . S
C1855 H1850 0.950 . S
C1855 C1857 1.327 . S
C1855 C1861 1.429 . S
C1856 C1848 1.574 . S
C1856 H1851 0.949 . S
C1856 C1862 1.368 . S
C1857 C1841 1.349 . S
C1857 H1849 0.950 . S
C1857 C1855 1.327 . S
C1858 C1846 1.349 . S
C1858 H1852 0.950 . S
C1858 C1859 1.327 . S
C1859 H1853 0.950 . S
C1859 C1858 1.327 . S
C1859 C1863 1.429 . S
C1860 C1843 1.574 . S
C1860 H1854 0.949 . S
C1860 C1864 1.368 . S
C1861 C1842 1.429 . S
C1861 C1855 1.429 . S
C1861 C1862 1.523 . S
C1862 C1843 1.368 . S
C1862 C1856 1.368 . S
C1862 C1861 1.523 . S
C1863 C1847 1.429 . S
C1863 C1859 1.429 . S
C1863 C1864 1.523 . S
C1864 C1848 1.368 . S
C1864 C1860 1.368 . S
C1864 C1863 1.523 . S
H1865 C1840 0.950 . S
H1866 C1842 0.950 . S
H1867 C1843 0.949 . S
H1868 C1845 0.950 . S
H1869 C1847 0.950 . S
C1870 C1871 1.349 . S
C1870 C1872 1.327 . S
C1870 H1895 0.950 . S
C1871 C1870 1.349 . S
C1871 C1887 1.349 . S
C1872 C1870 1.327 . S
C1872 C1891 1.429 . S
C1872 H1896 0.950 . S
C1873 C1890 1.574 . S
C1873 C1892 1.368 . S
C1873 H1897 0.949 . S
H1874 C1878 0.949 . S
C1875 C1876 1.349 . S
C1875 C1877 1.327 . S
C1875 H1898 0.950 . S
C1876 C1875 1.349 . S
C1876 C1888 1.349 . S
C1877 C1875 1.327 . S
C1877 C1893 1.429 . S
C1877 H1899 0.950 . S
C1878 H1874 0.949 . S
C1878 C1886 1.574 . S
C1878 C1894 1.368 . S
H1879 C1887 0.950 . S
H1880 C1885 0.950 . S
H1881 C1886 0.949 . S
H1882 C1888 0.950 . S
H1883 C1889 0.950 . S
H1884 C1890 0.949 . S
C1885 H1880 0.950 . S
C1885 C1887 1.327 . S
C1885 C1891 1.429 . S
C1886 C1878 1.574 . S
C1886 H1881 0.949 . S
C1886 C1892 1.368 . S
C1887 C1871 1.349 . S
C1887 H1879 0.950 . S
C1887 C1885 1.327 . S
C1888 C1876 1.349 . S
C1888 H1882 0.950 . S
C1888 C1889 1.327 . S
C1889 H1883 0.950 . S
C1889 C1888 1.327 . S
C1889 C1893 1.429 . S
C1890 C1873 1.574 . S
C1890 H1884 0.949 . S
C1890 C1894 1.368 . S
C1891 C1872 1.429 . S
C1891 C1885 1.429 . S
C1891 C1892 1.523 . S
C1892 C1873 1.368 . S
C1892 C1886 1.368 . S
C1892 C1891 1.523 . S
C1893 C1877 1.429 . S
C1893 C1889 1.429 . S
C1893 C1894 1.523 . S
C1894 C1878 1.368 . S
C1894 C1890 1.368 . S
C1894 C1893 1.523 . S
H1895 C1870 0.950 . S
H1896 C1872 0.950 . S
H1897 C1873 0.949 . S
H1898 C1875 0.950 . S
H1899 C1877 0.950 . S
C1900 C1901 1.349 1_554 S
C1900 C1902 1.327 . S
C1900 H1925 0.950 . S
C1901 C1900 1.349 1_556 S
C1901 C1917 1.349 . S
C1902 C1900 1.327 . S
C1902 C1921 1.429 1_554 S
C1902 H1926 0.950 . S
C1903 C1920 1.574 . S
C1903 C1922 1.368 . S
C1903 H1927 0.949 . S
H1904 C1908 0.949 1_554 S
C1905 C1906 1.349 . S
C1905 C1907 1.327 . S
C1905 H1928 0.950 . S
C1906 C1905 1.349 . S
C1906 C1918 1.349 . S
C1907 C1905 1.327 . S
C1907 C1923 1.429 . S
C1907 H1929 0.950 . S
C1908 H1904 0.949 1_556 S
C1908 C1916 1.574 1_556 S
C1908 C1924 1.368 . S
H1909 C1917 0.950 . S
H1910 C1915 0.950 . S
H1911 C1916 0.947 . S
H1912 C1918 0.950 . S
H1913 C1919 0.950 1_554 S
H1914 C1920 0.949 . S
C1915 H1910 0.950 . S
C1915 C1917 1.327 . S
C1915 C1921 1.429 . S
C1916 C1908 1.574 1_554 S
C1916 H1911 0.947 . S
C1916 C1922 1.370 1_554 S
C1917 C1901 1.349 . S
C1917 H1909 0.950 . S
C1917 C1915 1.327 . S
C1918 C1906 1.349 . S
C1918 H1912 0.950 . S
C1918 C1919 1.327 . S
C1919 H1913 0.950 1_556 S
C1919 C1918 1.327 . S
C1919 C1923 1.429 . S
C1920 C1903 1.574 . S
C1920 H1914 0.949 . S
C1920 C1924 1.368 . S
C1921 C1902 1.429 1_556 S
C1921 C1915 1.429 . S
C1921 C1922 1.523 . S
C1922 C1903 1.368 . S
C1922 C1916 1.370 1_556 S
C1922 C1921 1.523 . S
C1923 C1907 1.429 . S
C1923 C1919 1.429 . S
C1923 C1924 1.523 . S
C1924 C1908 1.368 . S
C1924 C1920 1.368 . S
C1924 C1923 1.523 . S
H1925 C1900 0.950 . S
H1926 C1902 0.950 . S
H1927 C1903 0.949 . S
H1928 C1905 0.950 . S
H1929 C1907 0.950 . S
C1930 C1931 1.349 . S
C1930 C1932 1.327 . S
C1930 H1955 0.950 . S
C1931 C1930 1.349 . S
C1931 C1947 1.349 . S
C1932 C1930 1.327 . S
C1932 C1951 1.429 . S
C1932 H1956 0.950 . S
C1933 C1950 1.574 . S
C1933 C1952 1.368 . S
C1933 H1957 0.949 . S
H1934 C1938 0.949 . S
C1935 C1936 1.349 . S
C1935 C1937 1.327 . S
C1935 H1958 0.950 . S
C1936 C1935 1.349 . S
C1936 C1948 1.349 . S
C1937 C1935 1.327 . S
C1937 C1953 1.429 . S
C1937 H1959 0.950 . S
C1938 H1934 0.949 . S
C1938 C1946 1.574 . S
C1938 C1954 1.368 . S
H1939 C1947 0.950 . S
H1940 C1945 0.950 . S
H1941 C1946 0.949 . S
H1942 C1948 0.950 . S
H1943 C1949 0.950 . S
H1944 C1950 0.949 . S
C1945 H1940 0.950 . S
C1945 C1947 1.327 . S
C1945 C1951 1.429 . S
C1946 C1938 1.574 . S
C1946 H1941 0.949 . S
C1946 C1952 1.368 . S
C1947 C1931 1.349 . S
C1947 H1939 0.950 . S
C1947 C1945 1.327 . S
C1948 C1936 1.349 . S
C1948 H1942 0.950 . S
C1948 C1949 1.327 . S
C1949 H1943 0.950 . S
C1949 C1948 1.327 . S
C1949 C1953 1.429 . S
C1950 C1933 1.574 . S
C1950 H1944 0.949 . S
C1950 C1954 1.368 . S
C1951 C1932 1.429 . S
C1951 C1945 1.429 . S
C1951 C1952 1.523 . S
C1952 C1933 1.368 . S
C1952 C1946 1.368 . S
C1952 C1951 1.523 . S
C1953 C1937 1.429 . S
C1953 C1949 1.429 . S
C1953 C1954 1.523 . S
C1954 C1938 1.368 . S
C1954 C1950 1.368 . S
C1954 C1953 1.523 . S
H1955 C1930 0.950 . S
H1956 C1932 0.950 . S
H1957 C1933 0.949 . S
H1958 C1935 0.950 . S
H1959 C1937 0.950 . S
C1960 C1961 1.349 . S
C1960 C1962 1.327 . S
C1960 H1985 0.950 . S
C1961 C1960 1.349 . S
C1961 C1977 1.349 . S
C1962 C1960 1.327 . S
C1962 C1981 1.429 . S
C1962 H1986 0.950 . S
C1963 C1980 1.574 . S
C1963 C1982 1.368 . S
C1963 H1987 0.949 . S
H1964 C1968 0.949 . S
C1965 C1966 1.349 . S
C1965 C1967 1.327 . S
C1965 H1988 0.950 . S
C1966 C1965 1.349 . S
C1966 C1978 1.349 . S
C1967 C1965 1.327 . S
C1967 C1983 1.429 . S
C1967 H1989 0.950 . S
C1968 H1964 0.949 . S
C1968 C1976 1.574 . S
C1968 C1984 1.368 . S
H1969 C1977 0.950 . S
H1970 C1975 0.950 . S
H1971 C1976 0.949 . S
H1972 C1978 0.950 . S
H1973 C1979 0.950 . S
H1974 C1980 0.949 . S
C1975 H1970 0.950 . S
C1975 C1977 1.327 . S
C1975 C1981 1.429 . S
C1976 C1968 1.574 . S
C1976 H1971 0.949 . S
C1976 C1982 1.368 . S
C1977 C1961 1.349 . S
C1977 H1969 0.950 . S
C1977 C1975 1.327 . S
C1978 C1966 1.349 . S
C1978 H1972 0.950 . S
C1978 C1979 1.327 . S
C1979 H1973 0.950 . S
C1979 C1978 1.327 . S
C1979 C1983 1.429 . S
C1980 C1963 1.574 . S
C1980 H1974 0.949 . S
C1980 C1984 1.368 . S
C1981 C1962 1.429 . S
C1981 C1975 1.429 . S
C1981 C1982 1.523 . S
C1982 C1963 1.368 . S
C1982 C1976 1.368 . S
C1982 C1981 1.523 . S
C1983 C1967 1.429 . S
C1983 C1979 1.429 . S
C1983 C1984 1.523 . S
C1984 C1968 1.368 . S
C1984 C1980 1.368 . S
C1984 C1983 1.523 . S
H1985 C1960 0.950 . S
H1986 C1962 0.950 . S
H1987 C1963 0.949 . S
H1988 C1965 0.950 . S
H1989 C1967 0.950 . S
C1990 C1991 1.349 . S
C1990 C1992 1.327 . S
C1990 H2015 0.950 . S
C1991 C1990 1.349 . S
C1991 C2007 1.349 . S
C1992 C1990 1.327 . S
C1992 C2011 1.429 . S
C1992 H2016 0.950 . S
C1993 C2010 1.574 . S
C1993 C2012 1.368 . S
C1993 H2017 0.949 . S
H1994 C1998 0.949 . S
C1995 C1996 1.349 . S
C1995 C1997 1.327 . S
C1995 H2018 0.950 . S
C1996 C1995 1.349 . S
C1996 C2008 1.349 . S
C1997 C1995 1.327 . S
C1997 C2013 1.429 . S
C1997 H2019 0.950 . S
C1998 H1994 0.949 . S
C1998 C2006 1.574 . S
C1998 C2014 1.368 . S
H1999 C2007 0.950 . S
H2000 C2005 0.950 . S
H2001 C2006 0.949 . S
H2002 C2008 0.950 . S
H2003 C2009 0.950 . S
H2004 C2010 0.949 . S
C2005 H2000 0.950 . S
C2005 C2007 1.327 . S
C2005 C2011 1.429 . S
C2006 C1998 1.574 . S
C2006 H2001 0.949 . S
C2006 C2012 1.368 . S
C2007 C1991 1.349 . S
C2007 H1999 0.950 . S
C2007 C2005 1.327 . S
C2008 C1996 1.349 . S
C2008 H2002 0.950 . S
C2008 C2009 1.327 . S
C2009 H2003 0.950 . S
C2009 C2008 1.327 . S
C2009 C2013 1.429 . S
C2010 C1993 1.574 . S
C2010 H2004 0.949 . S
C2010 C2014 1.368 . S
C2011 C1992 1.429 . S
C2011 C2005 1.429 . S
C2011 C2012 1.523 . S
C2012 C1993 1.368 . S
C2012 C2006 1.368 . S
C2012 C2011 1.523 . S
C2013 C1997 1.429 . S
C2013 C2009 1.429 . S
C2013 C2014 1.523 . S
C2014 C1998 1.368 . S
C2014 C2010 1.368 . S
C2014 C2013 1.523 . S
H2015 C1990 0.950 . S
H2016 C1992 0.950 . S
H2017 C1993 0.949 . S
H2018 C1995 0.950 . S
H2019 C1997 0.950 . S
C2020 C2021 1.349 . S
C2020 C2022 1.327 . S
C2020 H2045 0.950 . S
C2021 C2020 1.349 . S
C2021 C2037 1.349 . S
C2022 C2020 1.327 . S
C2022 C2041 1.429 . S
C2022 H2046 0.950 . S
C2023 C2040 1.574 . S
C2023 C2042 1.368 . S
C2023 H2047 0.949 . S
H2024 C2028 0.949 . S
C2025 C2026 1.349 . S
C2025 C2027 1.327 . S
C2025 H2048 0.950 . S
C2026 C2025 1.349 . S
C2026 C2038 1.349 . S
C2027 C2025 1.327 . S
C2027 C2043 1.429 . S
C2027 H2049 0.950 . S
C2028 H2024 0.949 . S
C2028 C2036 1.574 . S
C2028 C2044 1.368 . S
H2029 C2037 0.950 . S
H2030 C2035 0.950 . S
H2031 C2036 0.949 . S
H2032 C2038 0.950 . S
H2033 C2039 0.950 . S
H2034 C2040 0.949 . S
C2035 H2030 0.950 . S
C2035 C2037 1.327 . S
C2035 C2041 1.429 . S
C2036 C2028 1.574 . S
C2036 H2031 0.949 . S
C2036 C2042 1.368 . S
C2037 C2021 1.349 . S
C2037 H2029 0.950 . S
C2037 C2035 1.327 . S
C2038 C2026 1.349 . S
C2038 H2032 0.950 . S
C2038 C2039 1.327 . S
C2039 H2033 0.950 . S
C2039 C2038 1.327 . S
C2039 C2043 1.429 . S
C2040 C2023 1.574 . S
C2040 H2034 0.949 . S
C2040 C2044 1.368 . S
C2041 C2022 1.429 . S
C2041 C2035 1.429 . S
C2041 C2042 1.523 . S
C2042 C2023 1.368 . S
C2042 C2036 1.368 . S
C2042 C2041 1.523 . S
C2043 C2027 1.429 . S
C2043 C2039 1.429 . S
C2043 C2044 1.523 . S
C2044 C2028 1.368 . S
C2044 C2040 1.368 . S
C2044 C2043 1.523 . S
H2045 C2020 0.950 . S
H2046 C2022 0.950 . S
H2047 C2023 0.949 . S
H2048 C2025 0.950 . S
H2049 C2027 0.950 . S
C2050 C2051 1.349 . S
C2050 C2052 1.327 . S
C2050 H2075 0.950 . S
C2051 C2050 1.349 . S
C2051 C2067 1.349 . S
C2052 C2050 1.327 . S
C2052 C2071 1.429 . S
C2052 H2076 0.950 . S
C2053 C2070 1.574 . S
C2053 C2072 1.368 . S
C2053 H2077 0.949 . S
H2054 C2058 0.949 . S
C2055 C2056 1.349 . S
C2055 C2057 1.327 . S
C2055 H2078 0.950 . S
C2056 C2055 1.349 . S
C2056 C2068 1.349 . S
C2057 C2055 1.327 . S
C2057 C2073 1.429 . S
C2057 H2079 0.950 . S
C2058 H2054 0.949 . S
C2058 C2066 1.574 . S
C2058 C2074 1.368 . S
H2059 C2067 0.950 . S
H2060 C2065 0.950 . S
H2061 C2066 0.949 . S
H2062 C2068 0.950 . S
H2063 C2069 0.950 . S
H2064 C2070 0.949 . S
C2065 H2060 0.950 . S
C2065 C2067 1.327 . S
C2065 C2071 1.429 . S
C2066 C2058 1.574 . S
C2066 H2061 0.949 . S
C2066 C2072 1.368 . S
C2067 C2051 1.349 . S
C2067 H2059 0.950 . S
C2067 C2065 1.327 . S
C2068 C2056 1.349 . S
C2068 H2062 0.950 . S
C2068 C2069 1.327 . S
C2069 H2063 0.950 . S
C2069 C2068 1.327 . S
C2069 C2073 1.429 . S
C2070 C2053 1.574 . S
C2070 H2064 0.949 . S
C2070 C2074 1.368 . S
C2071 C2052 1.429 . S
C2071 C2065 1.429 . S
C2071 C2072 1.523 . S
C2072 C2053 1.368 . S
C2072 C2066 1.368 . S
C2072 C2071 1.523 . S
C2073 C2057 1.429 . S
C2073 C2069 1.429 . S
C2073 C2074 1.523 . S
C2074 C2058 1.368 . S
C2074 C2070 1.368 . S
C2074 C2073 1.523 . S
H2075 C2050 0.950 . S
H2076 C2052 0.950 . S
H2077 C2053 0.949 . S
H2078 C2055 0.950 . S
H2079 C2057 0.950 . S
C641 C11 0.981 . S
C646 C56 0.964 . S
C671 C91 1.807 . S
C676 C42 1.790 . S
C701 C122 2.066 . S
C706 C99 2.067 . S
C731 C19 1.067 . S
C736 C136 1.054 . S
C761 C10 1.067 . S
C766 C367 1.054 . S
C791 C282 0.981 . S
C796 C47 0.964 . S
C821 C82 1.807 . S
C826 C411 1.790 . S
C851 C131 2.066 . S
C856 C530 2.067 . S
C881 C322 1.807 . S
C886 C51 1.790 . S
C911 C491 2.066 . S
C916 C90 2.067 . S
C941 C570 1.067 . S
C946 C127 1.054 . S
C971 C2 0.982 . S
C976 C447 0.965 . S
C1001 C16 0.587 . S
C1006 C327 0.543 . S
C1031 C499 1.520 . S
C1036 C170 1.523 . S
C1061 C216 0.542 . S
C1066 C567 0.587 . S
C1091 C450 1.523 . S
C1096 C259 1.520 . S
C1121 C96 0.542 . S
C1126 C287 0.587 . S
C1151 C370 1.520 . S
C1156 C179 1.523 . S
C1181 C250 1.520 . S
C1186 C419 1.523 . S
C1211 C202 1.807 . S
C1216 C451 1.790 . S
C1241 C371 2.066 . S
C1246 C210 2.067 . S
C1271 C456 0.965 . S
C1276 C291 0.982 . S
C1301 C211 1.807 . S
C1306 C162 1.790 . S
C1331 C362 2.066 . S
C1336 C339 2.067 . S
C1361 C531 1.807 . S
C1366 C442 1.790 . S
C1391 C242 2.066 . S
C1396 C219 2.067 . S
C1421 C376 1.054 . S
C1426 C579 1.067 . S
C1451 C536 0.542 . S
C1456 C7 0.587 . S
C1481 C87 0.542 . S
C1486 C576 0.587 . S
C1511 C490 1.520 . S
C1516 C59 1.523 . S
C1541 C296 0.587 . S
C1546 C207 0.542 . S
C1571 C139 1.520 . S
C1576 C410 1.523 . S
C1601 C482 2.066 . S
C1606 C539 2.067 . S
C1631 C299 1.067 . S
C1636 C496 1.054 . S
C1661 C247 1.054 . S
C1666 C290 1.067 . S
C1691 C171 1.790 . S
C1696 C522 1.807 . S
C1721 C487 1.054 . S
C1726 C610 1.067 . S
C1751 C607 0.587 . S
C1756 C336 0.542 . S
C1781 C50 1.523 . S
C1786 C379 1.520 . S
C1811 C330 2.067 . S
C1816 C251 2.066 . S
C1841 C331 1.807 . S
C1846 C402 1.790 . S
C1871 C619 1.067 . S
C1876 C256 1.054 . S
C1901 C527 0.542 . S
C1906 C616 0.587 . S
C1931 C459 1.523 . S
C1936 C130 1.520 . S
C1961 C416 0.964 . S
C1966 C571 0.981 . S
C1991 C407 0.964 . S
C1996 C602 0.981 . S
C2021 C167 0.965 . S
C2026 C562 0.982 . S
C2051 C611 0.982 . S
C2056 C176 0.965 . S
