# Generated by pormake.
# Topology smm, (6)-cn, num edge types: 1
# Building blocks:
#     Node 0, Type 0, BuildingBlock: FUNLAD_clean_sbu_0, # of connection points: 6
#     Node 1, Type 0, BuildingBlock: FUNLAD_clean_sbu_0, # of connection points: 6
#     Node 2, Type 0, BuildingBlock: FUNLAD_clean_sbu_0, # of connection points: 6
#     Node 3, Type 0, BuildingBlock: FUNLAD_clean_sbu_0, # of connection points: 6
#     Node 4, Type 0, BuildingBlock: FUNLAD_clean_sbu_0, # of connection points: 6
#     Node 5, Type 0, BuildingBlock: FUNLAD_clean_sbu_0, # of connection points: 6
#     Node 6, Type 0, BuildingBlock: FUNLAD_clean_sbu_0, # of connection points: 6
#     Node 7, Type 0, BuildingBlock: FUNLAD_clean_sbu_0, # of connection points: 6
#     Node 8, Type 0, BuildingBlock: FUNLAD_clean_sbu_0, # of connection points: 6
#     Edge 9, Type (0, 0), BuildingBlock: MIFKUJ_clean_linker_0, # of connection points: 2
#     Edge 10, Type (0, 0), BuildingBlock: MIFKUJ_clean_linker_0, # of connection points: 2
#     Edge 11, Type (0, 0), BuildingBlock: MIFKUJ_clean_linker_0, # of connection points: 2
#     Edge 12, Type (0, 0), BuildingBlock: MIFKUJ_clean_linker_0, # of connection points: 2
#     Edge 13, Type (0, 0), BuildingBlock: MIFKUJ_clean_linker_0, # of connection points: 2
#     Edge 14, Type (0, 0), BuildingBlock: MIFKUJ_clean_linker_0, # of connection points: 2
#     Edge 15, Type (0, 0), BuildingBlock: MIFKUJ_clean_linker_0, # of connection points: 2
#     Edge 16, Type (0, 0), BuildingBlock: MIFKUJ_clean_linker_0, # of connection points: 2
#     Edge 17, Type (0, 0), BuildingBlock: MIFKUJ_clean_linker_0, # of connection points: 2
#     Edge 18, Type (0, 0), BuildingBlock: MIFKUJ_clean_linker_0, # of connection points: 2
#     Edge 19, Type (0, 0), BuildingBlock: MIFKUJ_clean_linker_0, # of connection points: 2
#     Edge 20, Type (0, 0), BuildingBlock: MIFKUJ_clean_linker_0, # of connection points: 2
#     Edge 21, Type (0, 0), BuildingBlock: MIFKUJ_clean_linker_0, # of connection points: 2
#     Edge 22, Type (0, 0), BuildingBlock: MIFKUJ_clean_linker_0, # of connection points: 2
#     Edge 23, Type (0, 0), BuildingBlock: MIFKUJ_clean_linker_0, # of connection points: 2
#     Edge 24, Type (0, 0), BuildingBlock: MIFKUJ_clean_linker_0, # of connection points: 2
#     Edge 25, Type (0, 0), BuildingBlock: MIFKUJ_clean_linker_0, # of connection points: 2
#     Edge 26, Type (0, 0), BuildingBlock: MIFKUJ_clean_linker_0, # of connection points: 2
#     Edge 27, Type (0, 0), BuildingBlock: MIFKUJ_clean_linker_0, # of connection points: 2
#     Edge 28, Type (0, 0), BuildingBlock: MIFKUJ_clean_linker_0, # of connection points: 2
#     Edge 29, Type (0, 0), BuildingBlock: MIFKUJ_clean_linker_0, # of connection points: 2
#     Edge 30, Type (0, 0), BuildingBlock: MIFKUJ_clean_linker_0, # of connection points: 2
#     Edge 31, Type (0, 0), BuildingBlock: MIFKUJ_clean_linker_0, # of connection points: 2
#     Edge 32, Type (0, 0), BuildingBlock: MIFKUJ_clean_linker_0, # of connection points: 2
#     Edge 33, Type (0, 0), BuildingBlock: MIFKUJ_clean_linker_0, # of connection points: 2
#     Edge 34, Type (0, 0), BuildingBlock: MIFKUJ_clean_linker_0, # of connection points: 2
#     Edge 35, Type (0, 0), BuildingBlock: MIFKUJ_clean_linker_0, # of connection points: 2
# Relax obj value: 0.384
# Max RMSD: 0.269
# Mean RMSD: 0.266
data_MOF--net-smm--node1-FUNLAD_clean_sbu_0--edge1-MIFKUJ_clean_linker_0
_symmetry_space_group_name_H-M    P1
_symmetry_Int_Tables_number       1
_symmetry_cell_setting            triclinic
loop_
_symmetry_equiv_pos_as_xyz
'x, y, z'
_cell_length_a     62.178622
_cell_length_b     62.051197
_cell_length_c     25.44592
_cell_angle_alpha  90.510897
_cell_angle_beta   90.503453
_cell_angle_gamma 120.07959
loop_
_atom_site_label
_atom_site_type_symbol
_atom_site_fract_x
_atom_site_fract_y
_atom_site_fract_z
_atom_type_partial_charge
C0 C 0.96274 0.14263 0.04151 0.0
N1 N 0.01656 0.20366 0.13066 0.0
C2 C 0.99657 0.19895 0.1602 0.0
C3 C -0.00109 0.20222 0.21441 0.0
C4 C 0.02195 0.21 0.23899 0.0
C5 C 0.04246 0.21506 0.20786 0.0
C6 C 0.03937 0.21194 0.1532 0.0
Zn7 Zn 0.00925 0.19455 0.05272 0.0
C8 C 0.03202 0.16704 0.01401 0.0
N9 N 0.98717 0.17139 0.89447 0.0
C10 C 0.96462 0.16386 0.8714 0.0
C11 C 0.00687 0.17456 0.86573 0.0
C12 C 0.00462 0.17083 0.81163 0.0
C13 C 0.98192 0.16395 0.78637 0.0
C14 C 0.96159 0.16014 0.81686 0.0
Zn15 Zn 0.99447 0.18092 0.97212 0.0
O16 O 0.97881 0.158 0.07443 0.0
C17 C 0.97202 0.2087 0.01512 0.0
O18 O 0.96449 0.14801 0.99332 0.0
H19 H 0.02476 0.18096 0.88447 0.0
H20 H 0.97844 0.19175 0.14197 0.0
H21 H 0.94922 0.16147 0.89504 0.0
O22 O 0.98599 0.20952 0.0524 0.0
O23 O 0.97119 0.19761 0.9722 0.0
H24 H 0.05497 0.21538 0.12903 0.0
O25 O 0.02489 0.21453 0.94997 0.0
O26 O 0.03943 0.22996 0.02859 0.0
O27 O 0.01742 0.16358 0.97537 0.0
O28 O 0.03276 0.18026 0.05289 0.0
C29 C 0.04097 0.23208 0.9788 0.0
H30 H 0.9825 0.19752 0.23713 0.0
H31 H 0.0605 0.22097 0.22564 0.0
H32 H 0.0209 0.17453 0.78952 0.0
H33 H 0.94378 0.15484 0.79863 0.0
C34 C 0.83737 0.88308 0.00638 0.0
N35 N 0.83386 0.82401 0.91621 0.0
C36 C 0.81904 0.82892 0.88489 0.0
C37 C 0.81768 0.82444 0.83113 0.0
C38 C 0.83197 0.81524 0.80869 0.0
C39 C 0.84746 0.81057 0.84137 0.0
C40 C 0.84794 0.8149 0.89569 0.0
Zn41 Zn 0.83383 0.83209 0.99424 0.0
C42 C 0.8826 0.85998 0.04071 0.0
N43 N 0.82924 0.8514 0.15265 0.0
C44 C 0.81269 0.857 0.17453 0.0
C45 C 0.84584 0.84869 0.18298 0.0
C46 C 0.84606 0.85119 0.23726 0.0
C47 C 0.82879 0.85618 0.26118 0.0
C48 C 0.81202 0.85931 0.22928 0.0
Zn49 Zn 0.82929 0.84355 0.07444 0.0
O50 O 0.83976 0.86873 0.97375 0.0
C51 C 0.78084 0.81623 0.02292 0.0
O52 O 0.8321 0.87659 0.0537 0.0
H53 H 0.85842 0.84357 0.16535 0.0
H54 H 0.8084 0.83669 0.90144 0.0
H55 H 0.79955 0.85893 0.14975 0.0
O56 O 0.79567 0.81663 0.98873 0.0
O57 O 0.78928 0.82624 0.06789 0.0
H58 H 0.85972 0.81128 0.92128 0.0
O59 O 0.82634 0.80996 0.09604 0.0
O60 O 0.82832 0.79632 0.01745 0.0
O61 O 0.86958 0.86166 0.07717 0.0
O62 O 0.87186 0.84731 -0.00039 0.0
C63 C 0.82622 0.79324 0.06696 0.0
H64 H 0.80613 0.82889 0.80689 0.0
H65 H 0.85898 0.80371 0.82512 0.0
H66 H 0.85889 0.84804 0.26046 0.0
H67 H 0.79835 0.86309 0.2465 0.0
C68 C 0.18966 0.06452 0.04689 0.0
N69 N 0.20305 0.01474 0.13225 0.0
C70 C 0.21771 0.03507 0.163 0.0
C71 C 0.21956 0.03268 0.21685 0.0
C72 C 0.20584 0.00923 0.23967 0.0
C73 C 0.19105 0.98842 0.20723 0.0
C74 C 0.19008 0.9916 0.15305 0.0
Zn75 Zn 0.19972 0.02127 0.05508 0.0
C76 C 0.14859 0.99556 0.01769 0.0
N77 N 0.19499 0.04074 0.89783 0.0
C78 C 0.20961 0.06334 0.87578 0.0
C79 C 0.17895 0.02059 0.8681 0.0
C80 C 0.17787 0.02238 0.81385 0.0
C81 C 0.19362 0.04507 0.78964 0.0
C82 C 0.2093 0.06591 0.82126 0.0
Zn83 Zn 0.19856 0.03435 0.9749 0.0
O84 O 0.19098 0.04948 0.0787 0.0
C85 C 0.24952 0.06039 0.01587 0.0
O86 O 0.19365 0.06332 -0.0015 0.0
H87 H 0.16779 0.00269 0.88611 0.0
H88 H 0.22743 0.05338 0.14606 0.0
H89 H 0.22223 0.0791 0.90019 0.0
O90 O 0.23767 0.04696 0.05421 0.0
O91 O 0.23805 0.05928 0.97344 0.0
H92 H 0.17846 0.97572 0.12788 0.0
O93 O 0.20336 0.00482 0.95081 0.0
O94 O 0.20758 0.99305 0.02944 0.0
O95 O 0.15895 0.00986 0.97911 0.0
O96 O 0.16191 0.99558 0.05568 0.0
C97 C 0.20708 0.99045 0.9797 0.0
H98 H 0.23071 0.04925 0.24076 0.0
H99 H 0.18011 0.97006 0.22369 0.0
H100 H 0.16586 0.00574 0.79089 0.0
H101 H 0.22168 0.08375 0.80391 0.0
C102 C 0.70639 0.5087 0.2804 0.0
N103 N 0.6534 0.51689 0.19281 0.0
C104 C 0.67338 0.53288 0.16422 0.0
C105 C 0.67115 0.53448 0.11022 0.0
C106 C 0.64822 0.5192 0.08493 0.0
C107 C 0.62769 0.50314 0.11525 0.0
C108 C 0.63068 0.5024 0.16967 0.0
Zn109 Zn 0.66024 0.51385 0.27009 0.0
C110 C 0.63764 0.46229 0.30284 0.0
N111 N 0.6801 0.50995 0.42832 0.0
C112 C 0.70247 0.52591 0.45132 0.0
C113 C 0.6608 0.49286 0.45698 0.0
C114 C 0.66325 0.49193 0.51112 0.0
C115 C 0.68567 0.50895 0.53635 0.0
C116 C 0.70565 0.52582 0.50575 0.0
Zn117 Zn 0.67295 0.5129 0.35133 0.0
O118 O 0.69106 0.5089 0.24715 0.0
C119 C 0.69614 0.56445 0.31476 0.0
O120 O 0.70362 0.511 0.32896 0.0
H121 H 0.64305 0.48063 0.4382 0.0
H122 H 0.69141 0.54384 0.18298 0.0
H123 H 0.71756 0.53933 0.42774 0.0
O124 O 0.68318 0.55247 0.27491 0.0
O125 O 0.69564 0.55276 0.35593 0.0
H126 H 0.61508 0.48972 0.19313 0.0
O127 O 0.64181 0.51462 0.37459 0.0
O128 O 0.62961 0.51811 0.2954 0.0
O129 O 0.6508 0.47304 0.34371 0.0
O130 O 0.63737 0.47538 0.26519 0.0
C131 C 0.6266 0.51685 0.34497 0.0
H132 H 0.68756 0.5467 0.08814 0.0
H133 H 0.60972 0.49103 0.09697 0.0
H134 H 0.64721 0.47897 0.5333 0.0
H135 H 0.72325 0.5392 0.52387 0.0
C136 C 0.51605 0.19835 0.32021 0.0
N137 N 0.49199 0.13288 0.2273 0.0
C138 C 0.48048 0.14242 0.1977 0.0
C139 C 0.47627 0.13695 0.14424 0.0
C140 C 0.48426 0.12178 0.12048 0.0
C141 C 0.49634 0.11231 0.15154 0.0
C142 C 0.49986 0.11798 0.20546 0.0
Zn143 Zn 0.49631 0.14219 0.30541 0.0
C144 C 0.54516 0.15797 0.34728 0.0
N145 N 0.50075 0.16431 0.46531 0.0
C146 C 0.48978 0.17629 0.48779 0.0
C147 C 0.512 0.1546 0.49513 0.0
C148 C 0.51185 0.15597 0.54964 0.0
C149 C 0.49983 0.16729 0.57413 0.0
C150 C 0.48901 0.17792 0.5426 0.0
Zn151 Zn 0.49778 0.1561 0.38682 0.0
O152 O 0.51057 0.1813 0.28552 0.0
C153 C 0.44936 0.14087 0.34015 0.0
O154 O 0.51218 0.19256 0.36818 0.0
H155 H 0.52012 0.14464 0.47674 0.0
H156 H 0.47464 0.1545 0.2155 0.0
H157 H 0.48083 0.18376 0.46333 0.0
O158 O 0.46004 0.13534 0.30487 0.0
O159 O 0.46087 0.15105 0.38289 0.0
H160 H 0.50898 0.11062 0.22974 0.0
O161 O 0.48289 0.11898 0.40651 0.0
O162 O 0.48292 0.1041 0.32801 0.0
O163 O 0.53538 0.16218 0.38703 0.0
O164 O 0.53228 0.14875 0.30567 0.0
C165 C 0.47842 0.10067 0.37689 0.0
H166 H 0.46742 0.1451 0.12141 0.0
H167 H 0.50289 0.10066 0.13436 0.0
H168 H 0.51992 0.14702 0.57234 0.0
H169 H 0.4796 0.18685 0.56009 0.0
C170 C 0.80494 0.30173 0.30268 0.0
N171 N 0.8671 0.34982 0.21499 0.0
C172 C 0.86057 0.32862 0.18698 0.0
C173 C 0.86326 0.32945 0.13293 0.0
C174 C 0.8721 0.35221 0.10741 0.0
C175 C 0.8803 0.37409 0.13745 0.0
C176 C 0.87768 0.37246 0.19183 0.0
Zn177 Zn 0.85745 0.34594 0.29084 0.0
C178 C 0.83228 0.37277 0.31779 0.0
N179 N 0.83447 0.33304 0.44707 0.0
C180 C 0.82852 0.31235 0.47535 0.0
C181 C 0.83689 0.35402 0.47014 0.0
C182 C 0.83439 0.35519 0.52389 0.0
C183 C 0.83022 0.33491 0.55463 0.0
C184 C 0.82639 0.31291 0.52985 0.0
Zn185 Zn 0.84415 0.33608 0.37101 0.0
O186 O 0.81997 0.31646 0.26878 0.0
C187 C 0.86898 0.30897 0.33906 0.0
O188 O 0.81095 0.30515 0.35092 0.0
H189 H 0.84219 0.37051 0.44745 0.0
H190 H 0.85208 0.3108 0.20614 0.0
H191 H 0.82673 0.29591 0.45609 0.0
O192 O 0.86907 0.32025 0.29796 0.0
O193 O 0.8602 0.31236 0.38127 0.0
H194 H 0.88284 0.38904 0.21516 0.0
O195 O 0.87799 0.36739 0.39294 0.0
O196 O 0.89404 0.37469 0.31439 0.0
O197 O 0.82748 0.35901 0.35772 0.0
O198 O 0.84618 0.37208 0.28265 0.0
C199 C 0.89621 0.37995 0.36326 0.0
H200 H 0.85719 0.31225 0.11103 0.0
H201 H 0.88712 0.39198 0.11898 0.0
H202 H 0.83707 0.37234 0.54152 0.0
H203 H 0.82332 0.29693 0.55245 0.0
C204 C 0.29389 0.79704 0.65174 0.0
N205 N 0.33911 0.83382 0.78401 0.0
C206 C 0.31802 0.82367 0.81274 0.0
C207 C 0.31943 0.82286 0.86721 0.0
C208 C 0.34276 0.83262 0.89213 0.0
C209 C 0.36407 0.84156 0.8613 0.0
C210 C 0.3618 0.84198 0.80686 0.0
Zn211 Zn 0.33688 0.84023 0.70711 0.0
C212 C 0.36333 0.82218 0.64225 0.0
N213 N 0.33167 0.8543 0.54687 0.0
C214 C 0.30986 0.84983 0.5244 0.0
C215 C 0.35297 0.86384 0.51892 0.0
C216 C 0.3528 0.86884 0.46584 0.0
C217 C 0.33045 0.86383 0.44123 0.0
C218 C 0.30881 0.85444 0.47117 0.0
Zn219 Zn 0.33332 0.84702 0.62351 0.0
O220 O 0.30501 0.80374 0.69624 0.0
C221 C 0.30585 0.86352 0.69242 0.0
O222 O 0.30144 0.81234 0.61429 0.0
H223 H 0.37009 0.86722 0.53763 0.0
H224 H 0.30021 0.81737 0.79363 0.0
H225 H 0.29322 0.84235 0.54762 0.0
O226 O 0.31413 0.85442 0.72582 0.0
O227 O 0.31135 0.86392 0.64424 0.0
H228 H 0.37827 0.84986 0.78306 0.0
O229 O 0.36524 0.88123 0.63158 0.0
O230 O 0.36926 0.87708 0.71599 0.0
O231 O 0.35519 0.82975 0.60483 0.0
O232 O 0.35902 0.82547 0.68927 0.0
C233 C 0.37698 0.88981 0.67448 0.0
H234 H 0.30258 0.81607 0.88966 0.0
H235 H 0.38235 0.84899 0.87919 0.0
H236 H 0.36976 0.87557 0.44384 0.0
H237 H 0.29124 0.85035 0.45343 0.0
C238 C 0.17101 0.53711 0.62365 0.0
N239 N 0.16464 0.47715 0.53276 0.0
C240 C 0.14858 0.48099 0.5032 0.0
C241 C 0.14711 0.47723 0.44913 0.0
C242 C 0.1624 0.46959 0.42499 0.0
C243 C 0.1784 0.46511 0.45639 0.0
C244 C 0.17915 0.46894 0.51075 0.0
Zn245 Zn 0.1676 0.48666 0.60995 0.0
C246 C 0.21905 0.51611 0.64566 0.0
N247 N 0.17119 0.50848 0.76927 0.0
C248 C 0.15581 0.51554 0.79148 0.0
C249 C 0.18798 0.50569 0.79867 0.0
C250 C 0.18921 0.50918 0.85284 0.0
C251 C 0.17292 0.51547 0.87721 0.0
C252 C 0.15631 0.51908 0.84588 0.0
Zn253 Zn 0.16843 0.49909 0.69197 0.0
O254 O 0.17012 0.52179 0.58882 0.0
C255 C 0.11692 0.46973 0.65154 0.0
O256 O 0.1704 0.53187 0.67175 0.0
H257 H 0.19981 0.49976 0.78039 0.0
H258 H 0.13746 0.48784 0.52134 0.0
H259 H 0.14265 0.51768 0.76722 0.0
O260 O 0.12934 0.46921 0.61297 0.0
O261 O 0.12826 0.48151 0.69337 0.0
H262 H 0.19181 0.46608 0.53513 0.0
O263 O 0.16646 0.46606 0.71334 0.0
O264 O 0.16537 0.45212 0.63333 0.0
O265 O 0.20851 0.5169 0.68773 0.0
O266 O 0.20589 0.50407 0.60608 0.0
C267 C 0.16549 0.44935 0.68287 0.0
H268 H 0.13502 0.48147 0.42615 0.0
H269 H 0.1905 0.45923 0.43901 0.0
H270 H 0.20195 0.50572 0.87561 0.0
H271 H 0.1435 0.52401 0.86336 0.0
C272 C 0.50658 0.70217 0.66575 0.0
N273 N 0.51437 0.65998 0.78462 0.0
C274 C 0.51886 0.67974 0.81579 0.0
C275 C 0.51523 0.67681 0.86955 0.0
C276 C 0.50708 0.65339 0.89133 0.0
C277 C 0.50175 0.63304 0.85854 0.0
C278 C 0.50561 0.6368 0.8046 0.0
Zn279 Zn 0.5221 0.66666 0.70759 0.0
C280 C 0.48155 0.63283 0.64057 0.0
N281 N 0.53972 0.68417 0.54828 0.0
C282 C 0.54704 0.70676 0.52656 0.0
C283 C 0.53203 0.66335 0.51801 0.0
C284 C 0.52962 0.66433 0.46404 0.0
C285 C 0.53531 0.6869 0.44098 0.0
C286 C 0.54509 0.70859 0.47217 0.0
Zn287 Zn 0.53334 0.67817 0.62603 0.0
O288 O 0.5049 0.68953 0.70622 0.0
C289 C 0.57286 0.71257 0.69661 0.0
O290 O 0.51863 0.70139 0.62672 0.0
H291 H 0.52609 0.64556 0.53598 0.0
H292 H 0.52572 0.69795 0.79906 0.0
H293 H 0.5529 0.723 0.55157 0.0
O294 O 0.55647 0.69792 0.72813 0.0
O295 O 0.56921 0.70879 0.64727 0.0
H296 H 0.50208 0.62137 0.77886 0.0
O297 O 0.54821 0.65492 0.62464 0.0
O298 O 0.53838 0.64299 0.70603 0.0
O299 O 0.49644 0.64734 0.60633 0.0
O300 O 0.48828 0.6363 0.68839 0.0
C301 C 0.54803 0.64194 0.66288 0.0
H302 H 0.51914 0.69275 0.89409 0.0
H303 H 0.49546 0.61476 0.87461 0.0
H304 H 0.52219 0.6474 0.44063 0.0
H305 H 0.54966 0.7263 0.45519 0.0
H306 H 0.07641 0.27717 0.02291 0.0
H307 H 0.10616 0.31456 0.97538 0.0
H308 H 0.07881 0.2745 0.82795 0.0
H309 H 0.05003 0.23745 0.87443 0.0
H310 H 0.12642 0.30342 0.82153 0.0
H311 H 0.05755 0.31237 0.87907 0.0
H312 H 0.0293 0.31428 0.94399 0.0
H313 H 0.09114 0.37654 0.02153 0.0
H314 H 0.11981 0.37476 0.95742 0.0
H315 H 0.14086 0.4011 0.64435 0.0
H316 H 0.12793 0.36347 0.69672 0.0
H317 H 0.17036 0.40926 0.82945 0.0
H318 H 0.18337 0.44652 0.77779 0.0
H319 H 0.1198 0.3791 0.84862 0.0
H320 H 0.1875 0.37245 0.77752 0.0
H321 H 0.21312 0.3698 0.70718 0.0
H322 H 0.15024 0.30232 0.64826 0.0
H323 H 0.12413 0.30477 0.71779 0.0
C324 C 0.07704 0.27634 0.98046 0.0
C325 C 0.0606 0.25444 0.95256 0.0
C326 C 0.09396 0.29769 0.95331 0.0
C327 C 0.09448 0.29743 0.89795 0.0
C328 C 0.07884 0.27523 0.87052 0.0
C329 C 0.06217 0.25405 0.89739 0.0
C330 C 0.10979 0.32043 0.86763 0.0
C331 C 0.12495 0.31997 0.8274 0.0
C332 C 0.10803 0.3421 0.87539 0.0
C333 C 0.09085 0.34322 0.91392 0.0
C334 C 0.06514 0.32634 0.91022 0.0
C335 C 0.04905 0.32741 0.94682 0.0
C336 C 0.05843 0.34546 0.98697 0.0
C337 C 0.08392 0.36252 0.9905 0.0
C338 C 0.10009 0.36149 0.95406 0.0
C339 C 0.14811 0.40299 0.68403 0.0
C340 C 0.16284 0.42667 0.70723 0.0
C341 C 0.14066 0.38156 0.71397 0.0
C342 C 0.14801 0.38368 0.76714 0.0
C343 C 0.16436 0.40724 0.78869 0.0
C344 C 0.17178 0.42849 0.75902 0.0
C345 C 0.13624 0.362 0.80235 0.0
C346 C 0.12163 0.36271 0.84332 0.0
C347 C 0.13813 0.34046 0.79449 0.0
C348 C 0.15379 0.33894 0.7526 0.0
C349 C 0.17906 0.35718 0.74927 0.0
C350 C 0.19369 0.35568 0.7096 0.0
C351 C 0.1833 0.33594 0.67319 0.0
C352 C 0.15826 0.31762 0.67645 0.0
C353 C 0.14354 0.31904 0.71602 0.0
H354 H 0.19466 0.33481 0.64252 0.0
H355 H 0.04595 0.34627 0.01525 0.0
H356 H 0.75474 0.77693 0.95836 0.0
H357 H 0.71825 0.76829 0.90607 0.0
H358 H 0.71181 0.82466 0.99312 0.0
H359 H 0.74918 0.83393 0.04552 0.0
H360 H 0.66401 0.77495 0.96238 0.0
H361 H 0.73341 0.84508 0.89384 0.0
H362 H 0.7761 0.87264 0.86382 0.0
H363 H 0.76619 0.81927 0.7437 0.0
H364 H 0.72362 0.79099 0.77398 0.0
H365 H 0.57668 0.74967 0.75914 0.0
H366 H 0.61209 0.77718 0.81613 0.0
H367 H 0.65492 0.74718 0.74706 0.0
H368 H 0.61988 0.72071 0.68799 0.0
H369 H 0.68456 0.79467 0.77439 0.0
H370 H 0.61517 0.72219 0.85983 0.0
H371 H 0.57168 0.69865 0.88846 0.0
H372 H 0.58187 0.76225 0.97784 0.0
H373 H 0.62523 0.78627 0.94878 0.0
C374 C 0.74515 0.787 0.96758 0.0
C375 C 0.75479 0.80614 0.00587 0.0
C376 C 0.72444 0.78218 0.93735 0.0
C377 C 0.71278 0.79623 0.94501 0.0
C378 C 0.7208 0.81379 0.98651 0.0
C379 C 0.74189 0.81885 0.01678 0.0
C380 C 0.69336 0.79313 0.90672 0.0
C381 C 0.66845 0.77979 0.92146 0.0
C382 C 0.69926 0.7995 0.85342 0.0
C383 C 0.72531 0.81579 0.83654 0.0
C384 C 0.74044 0.83898 0.86162 0.0
C385 C 0.7646 0.8548 0.8444 0.0
C386 C 0.77379 0.84776 0.80173 0.0
C387 C 0.75897 0.82474 0.77661 0.0
C388 C 0.73484 0.80877 0.79389 0.0
C389 C 0.59406 0.74977 0.75483 0.0
C390 C 0.59579 0.73331 0.71921 0.0
C391 C 0.61416 0.76525 0.78777 0.0
C392 C 0.63592 0.76369 0.78711 0.0
C393 C 0.63828 0.74862 0.74856 0.0
C394 C 0.61834 0.73357 0.71464 0.0
C395 C 0.65513 0.77548 0.82954 0.0
C396 C 0.68007 0.79033 0.81544 0.0
C397 C 0.64922 0.77088 0.88357 0.0
C398 C 0.62333 0.75605 0.90186 0.0
C399 C 0.60808 0.73112 0.88554 0.0
C400 C 0.58343 0.7177 0.9019 0.0
C401 C 0.57401 0.72888 0.93539 0.0
C402 C 0.58918 0.75354 0.95226 0.0
C403 C 0.61376 0.76708 0.93575 0.0
H404 H 0.555 0.71852 0.9484 0.0
H405 H 0.79243 0.86014 0.7882 0.0
H406 H 0.23554 0.97095 0.01529 0.0
H407 H 0.24886 0.94623 0.96309 0.0
H408 H 0.20303 0.94449 0.83294 0.0
H409 H 0.18975 0.96889 0.88443 0.0
H410 H 0.2015 0.90014 0.84334 0.0
H411 H 0.26263 0.98776 0.83707 0.0
H412 H 0.29205 0.02875 0.87658 0.0
H413 H 0.33367 0.99804 0.94673 0.0
H414 H 0.30425 0.95675 0.90832 0.0
H415 H 0.30337 0.90385 0.65639 0.0
H416 H 0.28244 0.92386 0.69989 0.0
H417 H 0.25338 0.86602 0.81571 0.0
H418 H 0.27418 0.8463 0.77315 0.0
H419 H 0.29168 0.94143 0.80597 0.0
H420 H 0.19603 0.85521 0.84998 0.0
H421 H 0.16629 0.81479 0.80868 0.0
H422 H 0.19338 0.84445 0.65609 0.0
H423 H 0.22303 0.88513 0.69638 0.0
C424 C 0.2279 0.96473 0.97604 0.0
C425 C 0.21181 0.97196 0.95369 0.0
C426 C 0.23562 0.9508 0.94618 0.0
C427 C 0.22716 0.94387 0.89393 0.0
C428 C 0.20982 0.9497 0.87306 0.0
C429 C 0.20232 0.96371 0.90252 0.0
C430 C 0.23753 0.93217 0.85929 0.0
C431 C 0.22122 0.90909 0.83533 0.0
C432 C 0.26317 0.94422 0.84783 0.0
C433 C 0.28111 0.96912 0.87022 0.0
C434 C 0.27797 0.98972 0.8612 0.0
C435 C 0.29465 0.01301 0.88337 0.0
C436 C 0.31468 0.01599 0.91425 0.0
C437 C 0.31812 0.9957 0.92287 0.0
C438 C 0.30146 0.97235 0.90088 0.0
C439 C 0.29202 0.89521 0.69039 0.0
C440 C 0.29035 0.87361 0.71153 0.0
C441 C 0.28029 0.90669 0.71539 0.0
C442 C 0.26638 0.89635 0.76093 0.0
C443 C 0.26385 0.87418 0.78043 0.0
C444 C 0.27578 0.86297 0.7561 0.0
C445 C 0.25568 0.90923 0.79066 0.0
C446 C 0.27194 0.93251 0.81385 0.0
C447 C 0.22996 0.89747 0.80102 0.0
C448 C 0.2119 0.87317 0.7763 0.0
C449 C 0.19556 0.85315 0.8076 0.0
C450 C 0.17873 0.83018 0.78436 0.0
C451 C 0.178 0.82703 0.72981 0.0
C452 C 0.19403 0.84688 0.69835 0.0
C453 C 0.21088 0.86989 0.72139 0.0
H454 H 0.16497 0.80923 0.7119 0.0
H455 H 0.32757 0.03403 0.93141 0.0
H456 H 0.43639 0.17637 0.32776 0.0
H457 H 0.40337 0.1718 0.26677 0.0
H458 H 0.37598 0.09287 0.25491 0.0
H459 H 0.40867 0.09737 0.31554 0.0
H460 H 0.39634 0.12354 0.15856 0.0
H461 H 0.3395 0.10715 0.30464 0.0
H462 H 0.32677 0.11881 0.38666 0.0
H463 H 0.33091 0.18244 0.31146 0.0
H464 H 0.34399 0.17131 0.22916 0.0
H465 H 0.28413 0.04732 0.03092 0.0
H466 H 0.32336 0.07218 0.07822 0.0
H467 H 0.31336 0.13614 0.07188 0.0
H468 H 0.27365 0.11084 0.02457 0.0
H469 H 0.31829 0.12646 0.16948 0.0
H470 H 0.36515 0.13753 0.01813 0.0
H471 H 0.37818 0.12717 0.93503 0.0
H472 H 0.39535 0.07715 0.016 0.0
H473 H 0.38185 0.08666 0.09944 0.0
C474 C 0.42234 0.15789 0.31461 0.0
C475 C 0.42476 0.13714 0.32667 0.0
C476 C 0.40375 0.15535 0.27923 0.0
C477 C 0.38756 0.13206 0.25591 0.0
C478 C 0.3884 0.111 0.27239 0.0
C479 C 0.40684 0.11352 0.30758 0.0
C480 C 0.37233 0.12979 0.20897 0.0
C481 C 0.3792 0.12409 0.16066 0.0
C482 C 0.35086 0.13197 0.2115 0.0
C483 C 0.34312 0.13864 0.26105 0.0
C484 C 0.338 0.1238 0.30579 0.0
C485 C 0.33063 0.13026 0.35228 0.0
C486 C 0.32818 0.15144 0.35435 0.0
C487 C 0.33292 0.1661 0.30986 0.0
C488 C 0.3403 0.15972 0.26329 0.0
C489 C 0.29101 0.06703 0.03715 0.0
C490 C 0.27623 0.07735 0.02357 0.0
C491 C 0.31342 0.08128 0.06436 0.0
C492 C 0.32142 0.10612 0.07868 0.0
C493 C 0.30762 0.11706 0.06112 0.0
C494 C 0.28514 0.10274 0.03352 0.0
C495 C 0.34145 0.11867 0.11913 0.0
C496 C 0.3357 0.12648 0.16643 0.0
C497 C 0.36416 0.11868 0.11547 0.0
C498 C 0.37233 0.11277 0.06523 0.0
C499 C 0.37147 0.12414 0.01825 0.0
C500 C 0.37895 0.1184 0.97102 0.0
C501 C 0.38758 0.10152 0.97024 0.0
C502 C 0.38868 0.09025 0.01667 0.0
C503 C 0.38112 0.09582 0.06399 0.0
H504 H 0.39347 0.0972 0.93367 0.0
H505 H 0.32253 0.15646 0.39037 0.0
H506 H 0.84158 0.25936 0.32137 0.0
H507 H 0.85579 0.237 0.26465 0.0
H508 H 0.93097 0.29834 0.27954 0.0
H509 H 0.91675 0.32058 0.33612 0.0
H510 H 0.91052 0.28969 0.17721 0.0
H511 H 0.91779 0.24308 0.32038 0.0
H512 H 0.90233 0.21483 0.39566 0.0
H513 H 0.8475 0.15671 0.29588 0.0
H514 H 0.86226 0.18483 0.22015 0.0
H515 H 0.98711 0.25608 0.04215 0.0
H516 H 0.96361 0.26964 0.09532 0.0
H517 H 0.89763 0.19777 0.07231 0.0
H518 H 0.92155 0.18407 0.01919 0.0
H519 H 0.90686 0.20804 0.17343 0.0
H520 H 0.90001 0.25202 0.02958 0.0
H521 H 0.91302 0.27956 0.95297 0.0
H522 H 0.96389 0.34135 0.05077 0.0
H523 H 0.95147 0.31412 0.12789 0.0
C524 C 0.86135 0.26724 0.31552 0.0
C525 C 0.87817 0.29149 0.33371 0.0
C526 C 0.86942 0.25463 0.2824 0.0
C527 C 0.89438 0.26621 0.26726 0.0
C528 C 0.91161 0.28914 0.29059 0.0
C529 C 0.90356 0.30165 0.32373 0.0
C530 C 0.90177 0.25682 0.22101 0.0
C531 C 0.91004 0.27196 0.17654 0.0
C532 C 0.89974 0.2331 0.21919 0.0
C533 C 0.89091 0.21619 0.26471 0.0
C534 C 0.90223 0.22438 0.31458 0.0
C535 C 0.89362 0.20837 0.35733 0.0
C536 C 0.87387 0.18402 0.3506 0.0
C537 C 0.86275 0.1756 0.30106 0.0
C538 C 0.87121 0.19158 0.25822 0.0
C539 C 0.96728 0.24366 0.04608 0.0
C540 C 0.95599 0.21923 0.02589 0.0
C541 C 0.95383 0.25135 0.07681 0.0
C542 C 0.92879 0.23474 0.08799 0.0
C543 C 0.91692 0.21092 0.06418 0.0
C544 C 0.93044 0.20323 0.03309 0.0
C545 C 0.91649 0.24132 0.13002 0.0
C546 C 0.90713 0.22565 0.17368 0.0
C547 C 0.91718 0.26446 0.13092 0.0
C548 C 0.92489 0.28095 0.08453 0.0
C549 C 0.91412 0.27143 0.03471 0.0
C550 C 0.92137 0.28701 0.99119 0.0
C551 C 0.93929 0.31218 -0.00302 0.0
C552 C 0.95 0.32184 0.04634 0.0
C553 C 0.94284 0.30635 0.09 0.0
H554 H 0.94486 0.3242 0.96324 0.0
H555 H 0.86726 0.17163 0.38374 0.0
H556 H 0.84092 0.78997 0.16501 0.0
H557 H 0.82648 0.75255 0.21685 0.0
H558 H 0.78741 0.70723 0.08087 0.0
H559 H 0.80202 0.74502 0.02824 0.0
H560 H 0.77813 0.72292 0.23587 0.0
H561 H 0.78051 0.64858 0.09993 0.0
H562 H 0.80696 0.6462 0.03108 0.0
H563 H 0.87028 0.71183 0.0951 0.0
H564 H 0.84431 0.7144 0.16476 0.0
H565 H 0.68547 0.5973 0.27026 0.0
H566 H 0.71519 0.6392 0.24108 0.0
H567 H 0.77513 0.63348 0.31329 0.0
H568 H 0.74512 0.59145 0.34378 0.0
H569 H 0.78072 0.64538 0.2026 0.0
H570 H 0.7649 0.67446 0.364 0.0
H571 H 0.73869 0.67654 0.43373 0.0
H572 H 0.70476 0.70254 0.32265 0.0
H573 H 0.7305 0.70027 0.25205 0.0
C574 C 0.82975 0.77201 0.14568 0.0
C575 C 0.82236 0.77036 0.09269 0.0
C576 C 0.82149 0.75065 0.17547 0.0
C577 C 0.8057 0.72714 0.15295 0.0
C578 C 0.79973 0.72524 0.09895 0.0
C579 C 0.80811 0.74677 0.06885 0.0
C580 C 0.7933 0.70519 0.18745 0.0
C581 C 0.77887 0.70604 0.22877 0.0
C582 C 0.79455 0.68332 0.17875 0.0
C583 C 0.81039 0.68179 0.1373 0.0
C584 C 0.8001 0.66244 0.09945 0.0
C585 C 0.815 0.66107 0.06025 0.0
C586 C 0.84026 0.67889 0.05862 0.0
C587 C 0.85069 0.69809 0.09628 0.0
C588 C 0.83587 0.69954 0.13558 0.0
C589 C 0.70489 0.60534 0.28145 0.0
C590 C 0.71306 0.59137 0.30962 0.0
C591 C 0.72184 0.62919 0.26459 0.0
C592 C 0.74732 0.63934 0.27487 0.0
C593 C 0.75549 0.6259 0.30508 0.0
C594 C 0.73838 0.60211 0.32295 0.0
C595 C 0.7652 0.66304 0.24993 0.0
C596 C 0.78043 0.66246 0.21016 0.0
C597 C 0.76481 0.68525 0.26013 0.0
C598 C 0.7495 0.68697 0.30262 0.0
C599 C 0.75171 0.68042 0.35433 0.0
C600 C 0.73694 0.68165 0.39402 0.0
C601 C 0.71995 0.6895 0.38254 0.0
C602 C 0.71785 0.69636 0.33143 0.0
C603 C 0.73256 0.69515 0.29158 0.0
H604 H 0.70854 0.69044 0.41333 0.0
H605 H 0.85177 0.6778 0.02824 0.0
H606 H 0.08722 0.4287 0.59376 0.0
H607 H 0.04706 0.41798 0.55498 0.0
H608 H 0.04544 0.47528 0.6489 0.0
H609 H 0.08631 0.48656 0.68765 0.0
H610 H 0.99519 0.41707 0.61747 0.0
H611 H 0.06125 0.49899 0.55788 0.0
H612 H 0.1043 0.52663 0.52946 0.0
H613 H 0.09338 0.47616 0.40195 0.0
H614 H 0.05056 0.44784 0.43075 0.0
H615 H 0.90271 0.40918 0.44821 0.0
H616 H 0.9398 0.43032 0.50438 0.0
H617 H 0.98011 0.41132 0.39376 0.0
H618 H 0.94305 0.3907 0.33648 0.0
H619 H 0.0107 0.45517 0.44089 0.0
H620 H 0.95008 0.37336 0.49505 0.0
H621 H 0.90837 0.34002 0.51996 0.0
H622 H 0.90962 0.38399 0.65242 0.0
H623 H 0.95114 0.41773 0.62784 0.0
C624 C 0.07795 0.43849 0.60759 0.0
C625 C 0.08991 0.4586 0.64335 0.0
C626 C 0.05504 0.43235 0.58532 0.0
C627 C 0.0436 0.4461 0.59856 0.0
C628 C 0.05415 0.46453 0.63826 0.0
C629 C 0.07734 0.47083 0.66061 0.0
C630 C 0.02272 0.44315 0.56518 0.0
C631 C 0.9984 0.42598 0.57957 0.0
C632 C 0.02721 0.45389 0.51475 0.0
C633 C 0.0528 0.47118 0.49685 0.0
C634 C 0.06814 0.49365 0.5242 0.0
C635 C 0.09251 0.50945 0.50801 0.0
C636 C 0.10162 0.50313 0.46405 0.0
C637 C 0.08636 0.48101 0.43614 0.0
C638 C 0.06205 0.46506 0.45242 0.0
C639 C 0.91974 0.41025 0.43504 0.0
C640 C 0.92004 0.3982 0.38823 0.0
C641 C 0.94086 0.42218 0.46734 0.0
C642 C 0.9625 0.42179 0.454 0.0
C643 C 0.96354 0.41171 0.40497 0.0
C644 C 0.94242 0.40003 0.37213 0.0
C645 C 0.98289 0.42939 0.4934 0.0
C646 C 0.00722 0.44699 0.4796 0.0
C647 C 0.97845 0.4186 0.54397 0.0
C648 C 0.95357 0.39821 0.55922 0.0
C649 C 0.94136 0.37599 0.52925 0.0
C650 C 0.91774 0.35701 0.54331 0.0
C651 C 0.90627 0.35992 0.58757 0.0
C652 C 0.91842 0.3818 0.61793 0.0
C653 C 0.94202 0.40085 0.60403 0.0
H654 H 0.88806 0.34513 0.59854 0.0
H655 H 0.12048 0.51539 0.45155 0.0
H656 H 0.58708 0.64963 0.6048 0.0
H657 H 0.59248 0.6175 0.56156 0.0
H658 H 0.53235 0.56104 0.65091 0.0
H659 H 0.52664 0.59344 0.69444 0.0
H660 H 0.58466 0.56 0.61853 0.0
H661 H 0.50816 0.55434 0.55876 0.0
H662 H 0.48164 0.57203 0.53546 0.0
H663 H 0.5329 0.61582 0.41596 0.0
H664 H 0.55984 0.5986 0.43889 0.0
H665 H 0.59446 0.48676 0.41753 0.0
H666 H 0.57172 0.49789 0.47983 0.0
H667 H 0.59501 0.56636 0.39697 0.0
H668 H 0.61666 0.55452 0.33308 0.0
H669 H 0.55109 0.55105 0.43685 0.0
H670 H 0.6289 0.55747 0.5047 0.0
H671 H 0.65523 0.54018 0.53308 0.0
H672 H 0.59975 0.49325 0.64288 0.0
H673 H 0.57293 0.50988 0.61453 0.0
C674 C 0.57564 0.63048 0.61683 0.0
C675 C 0.5564 0.62395 0.65275 0.0
C676 C 0.57868 0.61216 0.59196 0.0
C677 C 0.56257 0.587 0.60258 0.0
C678 C 0.54492 0.58045 0.64232 0.0
C679 C 0.54183 0.59894 0.66743 0.0
C680 C 0.56245 0.5682 0.56641 0.0
C681 C 0.57674 0.55731 0.57921 0.0
C682 C 0.55226 0.56502 0.51518 0.0
C683 C 0.53607 0.5753 0.50077 0.0
C684 C 0.51385 0.56789 0.52775 0.0
C685 C 0.4987 0.57776 0.51449 0.0
C686 C 0.50551 0.59495 0.47405 0.0
C687 C 0.52754 0.60237 0.44697 0.0
C688 C 0.54275 0.59255 0.46007 0.0
C689 C 0.59376 0.50367 0.41147 0.0
C690 C 0.60712 0.51978 0.37054 0.0
C691 C 0.58108 0.51018 0.44748 0.0
C692 C 0.58236 0.53335 0.44422 0.0
C693 C 0.59391 0.54845 0.40059 0.0
C694 C 0.60613 0.54164 0.3638 0.0
C695 C 0.57393 0.54313 0.48823 0.0
C696 C 0.5583 0.55275 0.47659 0.0
C697 C 0.5826 0.54473 0.54083 0.0
C698 C 0.59878 0.53467 0.557 0.0
C699 C 0.62224 0.5433 0.53454 0.0
C700 C 0.63725 0.53363 0.55065 0.0
C701 C 0.62908 0.51558 0.58962 0.0
C702 C 0.60597 0.50716 0.61258 0.0
C703 C 0.59086 0.51666 0.59646 0.0
H704 H 0.64061 0.50811 0.60226 0.0
H705 H 0.49371 0.60252 0.46375 0.0
H706 H 0.49047 0.06414 0.35889 0.0
H707 H 0.48024 0.02862 0.41646 0.0
H708 H 0.43424 0.04764 0.5095 0.0
H709 H 0.44464 0.08292 0.4532 0.0
H710 H 0.46537 0.04262 0.57143 0.0
H711 H 0.40959 0.99619 0.42844 0.0
H712 H 0.39644 0.97987 0.33805 0.0
H713 H 0.44365 0.94782 0.34235 0.0
H714 H 0.45735 0.96425 0.4326 0.0
H715 H 0.3796 0.93315 0.70182 0.0
H716 H 0.40692 0.97251 0.65906 0.0
H717 H 0.44968 0.94128 0.59545 0.0
H718 H 0.4219 0.90173 0.6375 0.0
H719 H 0.42844 0.95369 0.51988 0.0
H720 H 0.48129 0.99873 0.66919 0.0
H721 H 0.48949 0.01234 0.76227 0.0
H722 H 0.44196 0.04375 0.74794 0.0
H723 H 0.43376 0.03062 0.65458 0.0
C724 C 0.47763 0.06019 0.39075 0.0
C725 C 0.46834 0.07619 0.40175 0.0
C726 C 0.47194 0.04006 0.42384 0.0
C727 C 0.45672 0.03568 0.46777 0.0
C728 C 0.44631 0.05085 0.47645 0.0
C729 C 0.4521 0.07087 0.44394 0.0
C730 C 0.45228 0.01618 0.50657 0.0
C731 C 0.45729 0.02315 0.56006 0.0
C732 C 0.44229 0.99087 0.49192 0.0
C733 C 0.43482 0.98182 0.43695 0.0
C734 C 0.41745 0.98598 0.40984 0.0
C735 C 0.40982 0.97662 0.35871 0.0
C736 C 0.41927 0.9629 0.3344 0.0
C737 C 0.4364 0.95852 0.36117 0.0
C738 C 0.44412 0.96787 0.41229 0.0
C739 C 0.39582 0.93528 0.68164 0.0
C740 C 0.39897 0.91468 0.67348 0.0
C741 C 0.41139 0.95775 0.65681 0.0
C742 C 0.43035 0.95985 0.62376 0.0
C743 C 0.43521 0.9401 0.62075 0.0
C744 C 0.41956 0.91762 0.64534 0.0
C745 C 0.44116 0.98007 0.58465 0.0
C746 C 0.43725 0.97324 0.53108 0.0
C747 C 0.45175 0.00541 0.59922 0.0
C748 C 0.45693 0.0137 0.65501 0.0
C749 C 0.47261 0.00855 0.68594 0.0
C750 C 0.4773 0.01624 0.73868 0.0
C751 C 0.46625 0.02891 0.761 0.0
C752 C 0.4505 0.03393 0.7306 0.0
C753 C 0.44598 0.02655 0.67768 0.0
H754 H 0.46991 0.03486 0.80181 0.0
H755 H 0.41325 0.95558 0.29489 0.0
H756 H 0.1548 0.05376 0.12173 0.0
H757 H 0.12624 0.0701 0.12462 0.0
H758 H 0.16998 0.12472 0.00906 0.0
H759 H 0.19816 0.10809 0.00504 0.0
H760 H 0.12361 0.11121 0.13923 0.0
H761 H 0.13245 0.12329 0.91106 0.0
H762 H 0.14409 0.10578 0.83644 0.0
H763 H 0.12417 0.03969 0.92395 0.0
H764 H 0.11204 0.05656 -0.00135 0.0
H765 H 0.07689 0.18598 0.06175 0.0
H766 H 0.1019 0.16619 0.07286 0.0
H767 H 0.04756 0.10213 0.98334 0.0
H768 H 0.02282 0.12261 0.97006 0.0
H769 H 0.09137 0.11067 0.95962 0.0
H770 H 0.05059 0.10087 0.11962 0.0
H771 H 0.03487 0.11287 0.19654 0.0
H772 H 0.10969 0.16315 0.24916 0.0
H773 H 0.12589 0.15177 0.1721 0.0
C774 C 0.15886 0.06989 0.09853 0.0
C775 C 0.17844 0.0795 0.06261 0.0
C776 C 0.14241 0.07906 0.09991 0.0
C777 C 0.14553 0.09797 0.0656 0.0
C778 C 0.16689 0.10963 0.03474 0.0
C779 C 0.18309 0.10028 0.0328 0.0
C780 C 0.1253 0.10361 0.05719 0.0
C781 C 0.11654 0.11113 0.10006 0.0
C782 C 0.11505 0.10205 0.00636 0.0
C783 C 0.12143 0.09131 0.96066 0.0
C784 C 0.13033 0.10493 0.91422 0.0
C785 C 0.13707 0.09512 0.87192 0.0
C786 C 0.13492 0.07166 0.87549 0.0
C787 C 0.12586 0.05787 0.92124 0.0
C788 C 0.11902 0.06755 0.96357 0.0
C789 C 0.07036 0.16776 0.04402 0.0
C790 C 0.04788 0.1557 0.01538 0.0
C791 C 0.08456 0.15636 0.05078 0.0
C792 C 0.07623 0.13233 0.0304 0.0
C793 C 0.05422 0.12059 -0.00011 0.0
C794 C 0.04016 0.13228 0.99217 0.0
C795 C 0.09083 0.11987 0.04126 0.0
C796 C 0.0983 0.11068 -0.00111 0.0
C797 C 0.09905 0.11886 0.09289 0.0
C798 C 0.08946 0.12554 0.13986 0.0
C799 C 0.0637 0.11459 0.14744 0.0
C800 C 0.0547 0.12128 0.19108 0.0
C801 C 0.07127 0.13879 0.22767 0.0
C802 C 0.09688 0.14959 0.22077 0.0
C803 C 0.10598 0.14299 0.17715 0.0
H804 H 0.06426 0.14397 0.2614 0.0
H805 H 0.14027 0.06416 0.84281 0.0
H806 H 0.87613 0.91624 0.94772 0.0
H807 H 0.89425 0.96162 0.95174 0.0
H808 H 0.83131 0.95251 0.03987 0.0
H809 H 0.8137 0.90738 0.03751 0.0
H810 H 0.88452 0.99879 0.93126 0.0
H811 H 0.85207 0.98933 0.14741 0.0
H812 H 0.83922 0.95844 0.21804 0.0
H813 H 0.88334 0.92979 0.1519 0.0
H814 H 0.89685 0.96081 0.08158 0.0
H815 H 0.91487 0.1169 0.00863 0.0
H816 H 0.88873 0.07158 0.00671 0.0
H817 H 0.94357 0.06545 0.10032 0.0
H818 H 0.96942 0.111 0.10382 0.0
H819 H 0.89702 0.02688 0.11825 0.0
H820 H 0.9483 0.0665 0.97139 0.0
H821 H 0.96545 0.0977 0.90142 0.0
H822 H 0.89308 0.06606 0.82892 0.0
H823 H 0.87539 0.03498 0.89917 0.0
C824 C 0.86576 0.92395 0.96607 0.0
C825 C 0.84373 0.90852 0.9928 0.0
C826 C 0.87614 0.94984 0.96856 0.0
C827 C 0.86442 0.96037 -0.00259 0.0
C828 C 0.8409 0.94474 0.01845 0.0
C829 C 0.83079 0.919 0.0168 0.0
C830 C 0.87807 0.9872 0.01185 0.0
C831 C 0.88713 0.00493 0.97205 0.0
C832 C 0.88233 0.99519 0.06526 0.0
C833 C 0.87526 0.97726 0.10894 0.0
C834 C 0.85919 0.97658 0.14822 0.0
C835 C 0.85177 0.95903 0.18816 0.0
C836 C 0.86039 0.94211 0.18935 0.0
C837 C 0.87663 0.94286 0.15088 0.0
C838 C 0.88418 0.96044 0.111 0.0
C839 C 0.92077 0.10588 0.03077 0.0
C840 C 0.94411 0.11725 0.05613 0.0
C841 C 0.90596 0.08003 0.02933 0.0
C842 C 0.91461 0.06521 0.05199 0.0
C843 C 0.93666 0.0766 0.08228 0.0
C844 C 0.95135 0.10258 0.08452 0.0
C845 C 0.90258 0.03843 0.03762 0.0
C846 C 0.89414 0.02072 0.07745 0.0
C847 C 0.89976 0.03049 0.98428 0.0
C848 C 0.91047 0.04853 0.94081 0.0
C849 C 0.93602 0.06625 0.94065 0.0
C850 C 0.94584 0.08393 0.90097 0.0
C851 C 0.93035 0.0839 0.8608 0.0
C852 C 0.90504 0.06609 0.86011 0.0
C853 C 0.89511 0.04843 0.89985 0.0
H854 H 0.93798 0.09764 0.83018 0.0
H855 H 0.85451 0.92844 0.22013 0.0
H856 H 0.91447 0.85709 0.97232 0.0
H857 H 0.95969 0.88037 0.97523 0.0
H858 H 0.95843 0.91664 0.11962 0.0
H859 H 0.9128 0.89345 0.11681 0.0
H860 H 0.99193 0.94961 0.04974 0.0
H861 H 0.97295 0.87206 0.12491 0.0
H862 H 0.95232 0.82634 0.13072 0.0
H863 H 0.98652 0.82314 0.98724 0.0
H864 H 0.00708 0.86884 0.98015 0.0
H865 H 0.12158 0.96139 0.09169 0.0
H866 H 0.07659 0.939 0.10172 0.0
H867 H 0.06857 0.97321 0.96169 0.0
H868 H 0.11376 0.99589 0.95143 0.0
H869 H 0.03999 0.90558 0.04058 0.0
H870 H 0.01992 0.98391 0.97966 0.0
H871 H 0.04027 0.02979 0.98361 0.0
H872 H 0.08488 0.03187 0.11541 0.0
H873 H 0.06473 0.98609 0.1125 0.0
C874 C 0.92372 0.86992 0.00492 0.0
C875 C 0.91003 0.87335 0.0445 0.0
C876 C 0.94961 0.88318 0.00653 0.0
C877 C 0.96238 0.90005 0.04784 0.0
C878 C 0.94885 0.90365 0.08744 0.0
C879 C 0.92284 0.8903 0.08594 0.0
C880 C 0.9899 0.91392 0.04899 0.0
C881 C 0.00248 0.94003 0.04789 0.0
C882 C 0.00362 0.90137 0.04755 0.0
C883 C 0.99142 0.87387 0.05181 0.0
C884 C 0.97594 0.8616 0.0944 0.0
C885 C 0.96428 0.83569 0.09795 0.0
C886 C 0.96807 0.82184 0.05932 0.0
C887 C 0.98359 0.83389 0.01712 0.0
C888 C 0.99528 0.8598 0.01335 0.0
C889 C 0.11028 0.96408 0.06277 0.0
C890 C 0.12124 0.98046 0.02078 0.0
C891 C 0.08456 0.95126 0.06862 0.0
C892 C 0.06929 0.95469 0.03286 0.0
C893 C 0.08009 0.97061 0.99019 0.0
C894 C 0.10587 0.9834 0.98416 0.0
C895 C 0.04205 0.94129 0.04005 0.0
C896 C 0.02949 0.91521 0.04258 0.0
C897 C 0.02846 0.95394 0.04395 0.0
C898 C 0.04093 0.98155 0.04554 0.0
C899 C 0.03406 0.99417 0.00951 0.0
C900 C 0.04557 0.02016 0.01155 0.0
C901 C 0.06386 0.03374 0.04974 0.0
C902 C 0.07078 0.02136 0.08575 0.0
C903 C 0.05936 0.99539 0.08382 0.0
H904 H 0.07265 0.05384 0.05144 0.0
H905 H 0.95902 0.80178 0.06213 0.0
H906 H 0.75332 0.52879 0.31862 0.0
H907 H 0.77977 0.51015 0.31357 0.0
H908 H 0.72649 0.45314 0.20787 0.0
H909 H 0.70062 0.47257 0.21101 0.0
H910 H 0.76638 0.46762 0.35234 0.0
H911 H 0.75272 0.42424 0.14266 0.0
H912 H 0.74914 0.43475 0.05095 0.0
H913 H 0.78954 0.51267 0.09143 0.0
H914 H 0.79367 0.50265 0.18318 0.0
H915 H 0.7903 0.368 0.36223 0.0
H916 H 0.77155 0.39396 0.34692 0.0
H917 H 0.83172 0.4405 0.24418 0.0
H918 H 0.84977 0.41389 0.25728 0.0
H919 H 0.79134 0.43386 0.20237 0.0
H920 H 0.8276 0.4579 0.37544 0.0
H921 H 0.83533 0.45122 0.46749 0.0
H922 H 0.75779 0.42004 0.50045 0.0
H923 H 0.74955 0.42623 0.40839 0.0
C924 C 0.74785 0.5129 0.29258 0.0
C925 C 0.72509 0.50212 0.26501 0.0
C926 C 0.76282 0.50213 0.29006 0.0
C927 C 0.75505 0.4801 0.26075 0.0
C928 C 0.7331 0.47032 0.23017 0.0
C929 C 0.71834 0.48145 0.23182 0.0
C930 C 0.7681 0.46579 0.26788 0.0
C931 C 0.772 0.46042 0.31943 0.0
C932 C 0.77553 0.45643 0.22514 0.0
C933 C 0.77328 0.46266 0.16994 0.0
C934 C 0.76092 0.44362 0.13195 0.0
C935 C 0.75878 0.44949 0.07996 0.0
C936 C 0.76903 0.47436 0.06541 0.0
C937 C 0.78152 0.49341 0.10279 0.0
C938 C 0.78372 0.48764 0.15482 0.0
C939 C 0.79954 0.38385 0.33661 0.0
C940 C 0.82153 0.38903 0.31116 0.0
C941 C 0.78887 0.39871 0.32793 0.0
C942 C 0.80041 0.41944 0.29493 0.0
C943 C 0.82242 0.4246 0.26966 0.0
C944 C 0.83279 0.40946 0.27742 0.0
C945 C 0.78966 0.43582 0.28678 0.0
C946 C 0.78594 0.44132 0.23516 0.0
C947 C 0.78302 0.44595 0.32948 0.0
C948 C 0.78794 0.44235 0.38494 0.0
C949 C 0.81218 0.44948 0.40226 0.0
C950 C 0.81665 0.4458 0.45443 0.0
C951 C 0.79705 0.43517 0.48976 0.0
C952 C 0.77295 0.42825 0.47303 0.0
C953 C 0.76837 0.43186 0.42088 0.0
H954 H 0.80055 0.43232 0.53014 0.0
H955 H 0.76735 0.47886 0.02514 0.0
H956 H 0.63002 0.42804 0.37804 0.0
H957 H 0.61027 0.38291 0.36628 0.0
H958 H 0.59613 0.38958 0.20259 0.0
H959 H 0.61515 0.4346 0.21438 0.0
H960 H 0.55747 0.35084 0.24128 0.0
H961 H 0.64377 0.38004 0.23952 0.0
H962 H 0.68755 0.40391 0.26932 0.0
H963 H 0.6689 0.36258 0.41238 0.0
H964 H 0.62492 0.33874 0.38389 0.0
H965 H 0.52422 0.21961 0.22205 0.0
H966 H 0.54628 0.2645 0.20287 0.0
H967 H 0.55797 0.28156 0.36892 0.0
H968 H 0.5361 0.23754 0.38835 0.0
H969 H 0.60142 0.30802 0.3072 0.0
H970 H 0.51313 0.28469 0.30925 0.0
H971 H 0.47008 0.26101 0.27479 0.0
H972 H 0.495 0.29146 0.12173 0.0
H973 H 0.53826 0.31508 0.15523 0.0
C974 C 0.62256 0.41988 0.33965 0.0
C975 C 0.62424 0.43489 0.29713 0.0
C976 C 0.61144 0.39412 0.33284 0.0
C977 C 0.60221 0.38294 0.28322 0.0
C978 C 0.60323 0.39781 0.2411 0.0
C979 C 0.61412 0.42354 0.24799 0.0
C980 C 0.59152 0.35572 0.27563 0.0
C981 C 0.5673 0.34154 0.25471 0.0
C982 C 0.60444 0.34356 0.29243 0.0
C983 C 0.63097 0.35767 0.30964 0.0
C984 C 0.64896 0.37613 0.27749 0.0
C985 C 0.67382 0.38966 0.29413 0.0
C986 C 0.68099 0.38478 0.34273 0.0
C987 C 0.66331 0.36634 0.37474 0.0
C988 C 0.63841 0.35278 0.35832 0.0
C989 C 0.53145 0.233 0.2543 0.0
C990 C 0.52836 0.225 0.30666 0.0
C991 C 0.54404 0.25854 0.24332 0.0
C992 C 0.55385 0.27622 0.28458 0.0
C993 C 0.55072 0.26819 0.33658 0.0
C994 C 0.53802 0.24294 0.34753 0.0
C995 C 0.56714 0.3033 0.27514 0.0
C996 C 0.59191 0.31747 0.29266 0.0
C997 C 0.55493 0.31542 0.25436 0.0
C998 C 0.52892 0.30138 0.23455 0.0
C999 C 0.50944 0.28616 0.26816 0.0
C1000 C 0.48501 0.27279 0.24883 0.0
C1001 C 0.47982 0.27466 0.19606 0.0
C1002 C 0.49905 0.28998 0.16256 0.0
C1003 C 0.52352 0.30337 0.1817 0.0
H1004 H 0.46089 0.26429 0.18117 0.0
H1005 H 0.70025 0.39528 0.35556 0.0
H1006 H 0.56872 0.14198 0.28153 0.0
H1007 H 0.61346 0.16068 0.26951 0.0
H1008 H 0.6269 0.21311 0.3957 0.0
H1009 H 0.58216 0.19386 0.4091 0.0
H1010 H 0.64442 0.20464 0.23796 0.0
H1011 H 0.68286 0.23419 0.45141 0.0
H1012 H 0.67129 0.21868 0.5416 0.0
H1013 H 0.62799 0.14379 0.48158 0.0
H1014 H 0.63957 0.15879 0.39111 0.0
H1015 H 0.76917 0.30573 0.249 0.0
H1016 H 0.72458 0.27534 0.24924 0.0
H1017 H 0.7398 0.22249 0.32604 0.0
H1018 H 0.78413 0.25341 0.32833 0.0
H1019 H 0.70781 0.22616 0.37888 0.0
H1020 H 0.71431 0.21379 0.19586 0.0
H1021 H 0.72597 0.22581 0.10386 0.0
H1022 H 0.67984 0.25907 0.099 0.0
H1023 H 0.66815 0.24755 0.19121 0.0
C1024 C 0.58125 0.15713 0.30753 0.0
C1025 C 0.57197 0.16643 0.34637 0.0
C1026 C 0.60681 0.16791 0.30036 0.0
C1027 C 0.62361 0.18832 0.33162 0.0
C1028 C 0.61437 0.19711 0.37164 0.0
C1029 C 0.58878 0.18608 0.37934 0.0
C1030 C 0.65061 0.20131 0.32026 0.0
C1031 C 0.6583 0.2092 0.26871 0.0
C1032 C 0.66875 0.20692 0.36007 0.0
C1033 C 0.66193 0.19767 0.41444 0.0
C1034 C 0.67097 0.2144 0.45748 0.0
C1035 C 0.66439 0.2057 0.50865 0.0
C1036 C 0.64886 0.18027 0.5173 0.0
C1037 C 0.63995 0.16348 0.47481 0.0
C1038 C 0.64649 0.17208 0.42357 0.0
C1039 C 0.76295 0.28728 0.26408 0.0
C1040 C 0.77987 0.28169 0.28828 0.0
C1041 C 0.73748 0.2699 0.26436 0.0
C1042 C 0.72872 0.24653 0.28774 0.0
C1043 C 0.74601 0.24041 0.30817 0.0
C1044 C 0.77132 0.25794 0.309 0.0
C1045 C 0.70172 0.22971 0.29656 0.0
C1046 C 0.69399 0.2213 0.34784 0.0
C1047 C 0.6836 0.22307 0.25618 0.0
C1048 C 0.69049 0.22995 0.20061 0.0
C1049 C 0.70678 0.22381 0.17529 0.0
C1050 C 0.71337 0.23052 0.12308 0.0
C1051 C 0.70369 0.24324 0.09564 0.0
C1052 C 0.68733 0.24923 0.12032 0.0
C1053 C 0.68069 0.24258 0.17254 0.0
H1054 H 0.70882 0.24842 0.05523 0.0
H1055 H 0.64377 0.17358 0.55695 0.0
H1056 H 0.50719 0.72999 0.58336 0.0
H1057 H 0.48168 0.74901 0.56975 0.0
H1058 H 0.44928 0.72449 0.72227 0.0
H1059 H 0.47462 0.70479 0.73609 0.0
H1060 H 0.41423 0.71427 0.64395 0.0
H1061 H 0.49175 0.78457 0.70371 0.0
H1062 H 0.53706 0.81322 0.70259 0.0
H1063 H 0.53132 0.8337 0.54453 0.0
H1064 H 0.48598 0.80489 0.54447 0.0
H1065 H 0.36683 0.79074 0.7095 0.0
H1066 H 0.38896 0.76815 0.69846 0.0
H1067 H 0.41108 0.79834 0.54339 0.0
H1068 H 0.38843 0.82126 0.55411 0.0
H1069 H 0.45031 0.80425 0.60783 0.0
H1070 H 0.37204 0.73848 0.55162 0.0
H1071 H 0.32675 0.7097 0.5516 0.0
H1072 H 0.33326 0.68007 0.69883 0.0
H1073 H 0.37853 0.70894 0.70031 0.0
C1074 C 0.49486 0.7288 0.61444 0.0
C1075 C 0.49297 0.71591 0.66099 0.0
C1076 C 0.48029 0.73973 0.60648 0.0
C1077 C 0.46373 0.73826 0.64507 0.0
C1078 C 0.46202 0.72579 0.69203 0.0
C1079 C 0.47661 0.71473 0.70004 0.0
C1080 C 0.44795 0.74945 0.63573 0.0
C1081 C 0.42205 0.73396 0.6364 0.0
C1082 C 0.45828 0.77495 0.62379 0.0
C1083 C 0.48551 0.79238 0.62389 0.0
C1084 C 0.50017 0.79503 0.66857 0.0
C1085 C 0.52586 0.81133 0.66817 0.0
C1086 C 0.53707 0.82522 0.62346 0.0
C1087 C 0.52261 0.8229 0.57911 0.0
C1088 C 0.49692 0.80661 0.57928 0.0
C1089 C 0.37626 0.79256 0.67278 0.0
C1090 C 0.37614 0.80798 0.63278 0.0
C1091 C 0.38868 0.77938 0.66637 0.0
C1092 C 0.40137 0.78133 0.61992 0.0
C1093 C 0.40115 0.79648 0.57938 0.0
C1094 C 0.38831 0.80954 0.58552 0.0
C1095 C 0.41654 0.76916 0.61697 0.0
C1096 C 0.4424 0.78444 0.61416 0.0
C1097 C 0.40613 0.74341 0.62658 0.0
C1098 C 0.37877 0.72609 0.62625 0.0
C1099 C 0.36382 0.72602 0.5843 0.0
C1100 C 0.33813 0.70964 0.58397 0.0
C1101 C 0.32713 0.69312 0.62525 0.0
C1102 C 0.34181 0.6929 0.66689 0.0
C1103 C 0.3675 0.70926 0.66746 0.0
H1104 H 0.30725 0.68048 0.62497 0.0
H1105 H 0.55696 0.83782 0.62324 0.0
H1106 H 0.19053 0.56349 0.53328 0.0
H1107 H 0.20547 0.60804 0.52157 0.0
H1108 H 0.17663 0.6112 0.67337 0.0
H1109 H 0.16131 0.56706 0.68455 0.0
H1110 H 0.17194 0.64147 0.61111 0.0
H1111 H 0.23664 0.62349 0.65688 0.0
H1112 H 0.26365 0.60526 0.64614 0.0
H1113 H 0.29087 0.64431 0.50153 0.0
H1114 H 0.26364 0.66242 0.51091 0.0
H1115 H 0.2677 0.76021 0.72269 0.0
H1116 H 0.24019 0.71567 0.70294 0.0
H1117 H 0.25054 0.7302 0.53708 0.0
H1118 H 0.27729 0.77459 0.55604 0.0
H1119 H 0.26337 0.69236 0.59169 0.0
H1120 H 0.20003 0.71442 0.55822 0.0
H1121 H 0.17529 0.73405 0.58141 0.0
H1122 H 0.14807 0.68817 0.71766 0.0
H1123 H 0.17298 0.66854 0.69569 0.0
C1124 C 0.18677 0.57359 0.5633 0.0
C1125 C 0.17514 0.56196 0.61017 0.0
C1126 C 0.19546 0.59904 0.5568 0.0
C1127 C 0.19263 0.61305 0.59714 0.0
C1128 C 0.17915 0.60086 0.64181 0.0
C1129 C 0.1705 0.5756 0.64827 0.0
C1130 C 0.20562 0.64064 0.59618 0.0
C1131 C 0.19191 0.65257 0.60659 0.0
C1132 C 0.23173 0.65519 0.59031 0.0
C1133 C 0.24775 0.64394 0.58409 0.0
C1134 C 0.24814 0.62794 0.62244 0.0
C1135 C 0.26354 0.61767 0.61667 0.0
C1136 C 0.27887 0.62352 0.57304 0.0
C1137 C 0.27888 0.63969 0.53515 0.0
C1138 C 0.26344 0.64993 0.54063 0.0
C1139 C 0.26367 0.75396 0.68205 0.0
C1140 C 0.27465 0.77088 0.64099 0.0
C1141 C 0.24801 0.7286 0.67086 0.0
C1142 C 0.24348 0.71986 0.6186 0.0
C1143 C 0.25382 0.73673 0.57759 0.0
C1144 C 0.26902 0.76208 0.58863 0.0
C1145 C 0.22966 0.69289 0.60702 0.0
C1146 C 0.24331 0.68119 0.59471 0.0
C1147 C 0.20367 0.67854 0.61249 0.0
C1148 C 0.18856 0.6902 0.62558 0.0
C1149 C 0.18897 0.7087 0.59341 0.0
C1150 C 0.17486 0.71978 0.60627 0.0
C1151 C 0.16016 0.71241 0.65106 0.0
C1152 C 0.15948 0.69388 0.68301 0.0
C1153 C 0.17357 0.68275 0.67034 0.0
H1154 H 0.14926 0.72101 0.66095 0.0
H1155 H 0.29083 0.61561 0.56873 0.0
H1156 H 0.45569 0.62823 0.54903 0.0
H1157 H 0.41035 0.60488 0.53761 0.0
H1158 H 0.40322 0.57409 0.69217 0.0
H1159 H 0.44812 0.59646 0.70297 0.0
H1160 H 0.36802 0.54129 0.63201 0.0
H1161 H 0.40251 0.62914 0.66978 0.0
H1162 H 0.4294 0.67387 0.65263 0.0
H1163 H 0.39148 0.66516 0.50533 0.0
H1164 H 0.36459 0.6202 0.52121 0.0
H1165 H 0.2535 0.5264 0.72395 0.0
H1166 H 0.2986 0.54461 0.71357 0.0
H1167 H 0.29082 0.55362 0.54789 0.0
H1168 H 0.2459 0.53499 0.55765 0.0
H1169 H 0.33237 0.59622 0.60348 0.0
H1170 H 0.2952 0.50753 0.5736 0.0
H1171 H 0.26842 0.46345 0.59675 0.0
H1172 H 0.31167 0.47523 0.73768 0.0
H1173 H 0.33848 0.51951 0.71576 0.0
C1174 C 0.44445 0.61585 0.57979 0.0
C1175 C 0.45541 0.61455 0.6273 0.0
C1176 C 0.41855 0.6027 0.57344 0.0
C1177 C 0.40338 0.58832 0.6147 0.0
C1178 C 0.41449 0.58522 0.65997 0.0
C1179 C 0.44023 0.59814 0.66616 0.0
C1180 C 0.37616 0.57848 0.61381 0.0
C1181 C 0.36028 0.55334 0.62584 0.0
C1182 C 0.36597 0.59416 0.60546 0.0
C1183 C 0.38179 0.62125 0.59633 0.0
C1184 C 0.40001 0.63673 0.63357 0.0
C1185 C 0.41526 0.66213 0.62408 0.0
C1186 C 0.41227 0.67234 0.57778 0.0
C1187 C 0.39386 0.6572 0.54107 0.0
C1188 C 0.37861 0.63175 0.55028 0.0
C1189 C 0.26151 0.53251 0.68553 0.0
C1190 C 0.2463 0.52911 0.64154 0.0
C1191 C 0.28715 0.54282 0.67961 0.0
C1192 C 0.29785 0.55023 0.62988 0.0
C1193 C 0.28283 0.54793 0.58648 0.0
C1194 C 0.25722 0.5372 0.59213 0.0
C1195 C 0.32455 0.55928 0.62252 0.0
C1196 C 0.3402 0.58419 0.60896 0.0
C1197 C 0.33461 0.54355 0.63035 0.0
C1198 C 0.31869 0.51688 0.64329 0.0
C1199 C 0.29887 0.50077 0.60975 0.0
C1200 C 0.28371 0.47574 0.62261 0.0
C1201 C 0.2883 0.46656 0.66873 0.0
C1202 C 0.30811 0.48238 0.702 0.0
C1203 C 0.32331 0.50743 0.68936 0.0
H1204 H 0.27654 0.44718 0.67862 0.0
H1205 H 0.42418 0.69198 0.57036 0.0
H1206 H -0.0002 0.14245 0.71891 0.0
H1207 H 0.00624 0.14968 0.62455 0.0
H1208 H 0.96861 0.19215 0.62844 0.0
H1209 H 0.96218 0.18505 0.72291 0.0
H1210 H 0.95794 0.16373 0.53819 0.0
H1211 H 0.02999 0.22195 0.63843 0.0
H1212 H 0.0637 0.23454 0.70423 0.0
H1213 H 0.0924 0.19513 0.61702 0.0
H1214 H 0.05861 0.18198 0.55108 0.0
H1215 H 0.00418 0.23112 0.30744 0.0
H1216 H 0.99825 0.22374 0.40184 0.0
H1217 H 0.03604 0.18145 0.39557 0.0
H1218 H 0.04218 0.18894 0.30106 0.0
H1219 H 0.04662 0.20932 0.48694 0.0
H1220 H 0.97443 0.15297 0.38346 0.0
H1221 H 0.94066 0.14182 0.31852 0.0
H1222 H 0.9117 0.17865 0.41367 0.0
H1223 H 0.94573 0.19077 0.47818 0.0
C1224 C 0.99251 0.15294 0.6994 0.0
C1225 C 0.98075 0.16344 0.72825 0.0
C1226 C 0.99624 0.1571 0.64563 0.0
C1227 C 0.9884 0.17192 0.61994 0.0
C1228 C 0.97492 0.18078 0.64773 0.0
C1229 C 0.97114 0.17659 0.70159 0.0
C1230 C 0.99585 0.17972 0.56521 0.0
C1231 C 0.97731 0.17391 0.527 0.0
C1232 C 0.02116 0.19273 0.55074 0.0
C1233 C 0.04162 0.20077 0.59011 0.0
C1234 C 0.04337 0.21581 0.6335 0.0
C1235 C 0.06251 0.22307 0.67079 0.0
C1236 C 0.08015 0.21559 0.66487 0.0
C1237 C 0.07871 0.20088 0.62158 0.0
C1238 C 0.05958 0.19353 0.58422 0.0
C1239 C 0.01168 0.2207 0.32649 0.0
C1240 C 0.0234 0.21037 0.29702 0.0
C1241 C 0.00821 0.21644 0.38026 0.0
C1242 C 0.01617 0.20154 0.40528 0.0
C1243 C 0.02963 0.19286 0.37682 0.0
C1244 C 0.03323 0.19724 0.32296 0.0
C1245 C 0.0087 0.19338 0.45984 0.0
C1246 C 0.02724 0.19909 0.49804 0.0
C1247 C 0.98337 0.18042 0.47436 0.0
C1248 C 0.96283 0.17304 0.43541 0.0
C1249 C 0.96103 0.15896 0.39022 0.0
C1250 C 0.94184 0.15249 0.35341 0.0
C1251 C 0.92411 0.15967 0.36173 0.0
C1252 C 0.92552 0.17328 0.40694 0.0
C1253 C 0.94478 0.17998 0.44363 0.0
H1254 H 0.90923 0.1546 0.33328 0.0
H1255 H 0.09496 0.22124 0.69377 0.0
H1256 H 0.87157 0.83508 0.74331 0.0
H1257 H 0.87012 0.83981 0.64797 0.0
H1258 H 0.7901 0.79544 0.64903 0.0
H1259 H 0.79149 0.79063 0.74417 0.0
H1260 H 0.81155 0.78777 0.55778 0.0
H1261 H 0.81338 0.85418 0.66039 0.0
H1262 H 0.83012 0.88715 0.72889 0.0
H1263 H 0.89939 0.92553 0.64784 0.0
H1264 H 0.8832 0.89253 0.57924 0.0
H1265 H 0.78744 0.83085 0.32093 0.0
H1266 H 0.78645 0.82301 0.41538 0.0
H1267 H 0.86597 0.87142 0.42588 0.0
H1268 H 0.86697 0.87972 0.33196 0.0
H1269 H 0.84333 0.8762 0.51184 0.0
H1270 H 0.84108 0.80912 0.4089 0.0
H1271 H 0.82385 0.77583 0.34096 0.0
H1272 H 0.75468 0.73866 0.42264 0.0
H1273 H 0.77139 0.77183 0.49067 0.0
C1274 C 0.85378 0.82561 0.72283 0.0
C1275 C 0.83164 0.81263 0.75088 0.0
C1276 C 0.85294 0.82846 0.66856 0.0
C1277 C 0.82997 0.81828 0.64179 0.0
C1278 C 0.80798 0.80346 0.66904 0.0
C1279 C 0.8088 0.80077 0.72328 0.0
C1280 C 0.82866 0.82552 0.58715 0.0
C1281 C 0.81829 0.80705 0.5477 0.0
C1282 C 0.83752 0.8507 0.57422 0.0
C1283 C 0.84717 0.87076 0.61496 0.0
C1284 C 0.83225 0.86955 0.65737 0.0
C1285 C 0.84163 0.88825 0.6962 0.0
C1286 C 0.86582 0.90839 0.6928 0.0
C1287 C 0.88067 0.9099 0.65046 0.0
C1288 C 0.8714 0.89121 0.61158 0.0
C1289 C 0.80457 0.8404 0.34377 0.0
C1290 C 0.82731 0.85572 0.31919 0.0
C1291 C 0.80403 0.8357 0.39752 0.0
C1292 C 0.82622 0.8462 0.42728 0.0
C1293 C 0.84867 0.86297 0.40354 0.0
C1294 C 0.84922 0.86766 0.34993 0.0
C1295 C 0.82648 0.8385 0.4821 0.0
C1296 C 0.83659 0.8569 0.52176 0.0
C1297 C 0.81732 0.81324 0.49515 0.0
C1298 C 0.8074 0.79307 0.45461 0.0
C1299 C 0.82215 0.7939 0.41219 0.0
C1300 C 0.81248 0.77503 0.37369 0.0
C1301 C 0.78817 0.75513 0.3774 0.0
C1302 C 0.7735 0.75403 0.41974 0.0
C1303 C 0.78307 0.77286 0.45832 0.0
H1304 H 0.78071 0.74057 0.34752 0.0
H1305 H 0.87305 0.92285 0.7229 0.0
H1306 H 0.15555 0.02509 0.71739 0.0
H1307 H 0.15866 0.01899 0.62325 0.0
H1308 H 0.23867 0.05983 0.63711 0.0
H1309 H 0.2357 0.06597 0.73127 0.0
H1310 H 0.2225 0.07003 0.54601 0.0
H1311 H 0.20874 0.99799 0.64051 0.0
H1312 H 0.18728 0.96353 0.7025 0.0
H1313 H 0.12073 0.93316 0.60752 0.0
H1314 H 0.1417 0.9677 0.54537 0.0
H1315 H 0.24543 0.02828 0.3077 0.0
H1316 H 0.24443 0.03293 0.40313 0.0
H1317 H 0.16424 0.992 0.397 0.0
H1318 H 0.16519 0.98686 0.30172 0.0
H1319 H 0.18188 0.98181 0.48523 0.0
H1320 H 0.19725 0.05551 0.39042 0.0
H1321 H 0.22039 0.09002 0.32931 0.0
H1322 H 0.28587 0.11746 0.42689 0.0
H1323 H 0.26333 0.0828 0.48778 0.0
C1324 C 0.1738 0.0331 0.70015 0.0
C1325 C 0.19538 0.0458 0.73166 0.0
C1326 C 0.17554 0.02955 0.6465 0.0
C1327 C 0.19889 0.03849 0.62361 0.0
C1328 C 0.22049 0.05269 0.65418 0.0
C1329 C 0.21875 0.0563 0.70788 0.0
C1330 C 0.20076 0.0317 0.56866 0.0
C1331 C 0.21387 0.05076 0.5328 0.0
C1332 C 0.18932 0.00652 0.55154 0.0
C1333 C 0.17672 0.98557 0.58855 0.0
C1334 C 0.18947 0.98407 0.63304 0.0
C1335 C 0.17741 0.96451 0.66819 0.0
C1336 C 0.15264 0.9462 0.65902 0.0
C1337 C 0.13991 0.94738 0.61461 0.0
C1338 C 0.15188 0.96694 0.57939 0.0
C1339 C 0.22763 0.0198 0.32701 0.0
C1340 C 0.20538 0.00742 0.29752 0.0
C1341 C 0.22707 0.02254 0.38136 0.0
C1342 C 0.20425 0.01337 0.40683 0.0
C1343 C 0.18203 0.99935 0.37799 0.0
C1344 C 0.18258 0.99635 0.32366 0.0
C1345 C 0.20346 0.02015 0.4624 0.0
C1346 C 0.19054 0.00108 0.49843 0.0
C1347 C 0.21525 0.04534 0.47977 0.0
C1348 C 0.22866 0.06641 0.44339 0.0
C1349 C 0.21664 0.0688 0.3986 0.0
C1350 C 0.22967 0.08839 0.36395 0.0
C1351 C 0.25464 0.10588 0.37402 0.0
C1352 C 0.26659 0.10386 0.41888 0.0
C1353 C 0.2537 0.08424 0.45348 0.0
H1354 H 0.26471 0.12103 0.34717 0.0
H1355 H 0.14333 0.93107 0.68628 0.0
H1356 H 0.7042 0.55098 0.59735 0.0
H1357 H 0.69818 0.55336 0.69152 0.0
H1358 H 0.66247 0.47333 0.70032 0.0
H1359 H 0.66858 0.47083 0.6061 0.0
H1360 H 0.63416 0.49131 0.74157 0.0
H1361 H 0.7189 0.50964 0.75632 0.0
H1362 H 0.76364 0.53216 0.7367 0.0
H1363 H 0.76971 0.60052 0.79264 0.0
H1364 H 0.72492 0.57846 0.81193 0.0
H1365 H 0.62761 0.47838 0.01997 0.0
H1366 H 0.63275 0.47763 0.92497 0.0
H1367 H 0.67156 0.55798 0.92399 0.0
H1368 H 0.66664 0.5588 0.01913 0.0
H1369 H 0.69809 0.54097 0.87774 0.0
H1370 H 0.61404 0.5231 0.86521 0.0
H1371 H 0.56924 0.50123 0.88415 0.0
H1372 H 0.56157 0.4329 0.82345 0.0
H1373 H 0.60641 0.45428 0.8048 0.0
C1374 C 0.69586 0.53396 0.61968 0.0
C1375 C 0.68684 0.51071 0.59443 0.0
C1376 C 0.69225 0.53534 0.6734 0.0
C1377 C 0.67979 0.5135 0.70275 0.0
C1378 C 0.67198 0.49037 0.6782 0.0
C1379 C 0.67556 0.48898 0.62453 0.0
C1380 C 0.67334 0.51464 0.7581 0.0
C1381 C 0.64814 0.50185 0.77163 0.0
C1382 C 0.69155 0.52915 0.79662 0.0
C1383 C 0.7185 0.54244 0.78508 0.0
C1384 C 0.72973 0.52951 0.76401 0.0
C1385 C 0.75511 0.54219 0.75304 0.0
C1386 C 0.7695 0.56776 0.76328 0.0
C1387 C 0.75854 0.58071 0.78466 0.0
C1388 C 0.73316 0.56813 0.79567 0.0
C1389 C 0.63656 0.49584 -0.00078 0.0
C1390 C 0.64683 0.51865 0.02683 0.0
C1391 C 0.63955 0.49541 0.94496 0.0
C1392 C 0.65259 0.51777 0.91742 0.0
C1393 C 0.66159 0.54053 0.94455 0.0
C1394 C 0.65872 0.54097 -0.00122 0.0
C1395 C 0.65887 0.51745 0.86151 0.0
C1396 C 0.68406 0.53044 0.84778 0.0
C1397 C 0.64063 0.5032 0.82277 0.0
C1398 C 0.61365 0.49026 0.83408 0.0
C1399 C 0.60285 0.50336 0.85633 0.0
C1400 C 0.57744 0.49106 0.86692 0.0
C1401 C 0.56258 0.46568 0.85514 0.0
C1402 C 0.57311 0.45255 0.83261 0.0
C1403 C 0.59852 0.46476 0.82197 0.0
H1404 H 0.54291 0.45619 0.86335 0.0
H1405 H 0.78914 0.57754 0.75477 0.0
H1406 H 0.53484 0.17517 0.64897 0.0
H1407 H 0.52767 0.16394 0.74153 0.0
H1408 H 0.4509 0.14417 0.72269 0.0
H1409 H 0.45783 0.15503 0.62962 0.0
H1410 H 0.47246 0.16821 0.81919 0.0
H1411 H 0.46453 0.10163 0.71214 0.0
H1412 H 0.47744 0.08183 0.6449 0.0
H1413 H 0.53842 0.09259 0.74379 0.0
H1414 H 0.52675 0.11377 0.81054 0.0
H1415 H 0.44253 0.10755 0.06075 0.0
H1416 H 0.44021 0.10966 0.96498 0.0
H1417 H 0.51725 0.12981 0.95485 0.0
H1418 H 0.51957 0.12735 0.05051 0.0
H1419 H 0.48956 0.10107 0.87 0.0
H1420 H 0.5013 0.17394 0.96773 0.0
H1421 H 0.48932 0.19495 0.03433 0.0
H1422 H 0.4202 0.17087 0.95213 0.0
H1423 H 0.43144 0.14905 0.88582 0.0
C1424 C 0.51651 0.16876 0.6647 0.0
C1425 C 0.49681 0.16564 0.63191 0.0
C1426 C 0.51246 0.16237 0.71752 0.0
C1427 C 0.48864 0.15274 0.73846 0.0
C1428 C 0.46938 0.15145 0.70702 0.0
C1429 C 0.4734 0.15778 0.65398 0.0
C1430 C 0.48363 0.14239 0.79197 0.0
C1431 C 0.47579 0.15325 0.83014 0.0
C1432 C 0.48808 0.12288 0.80599 0.0
C1433 C 0.49493 0.10967 0.76624 0.0
C1434 C 0.48096 0.10021 0.7193 0.0
C1435 C 0.48812 0.08881 0.68111 0.0
C1436 C 0.50877 0.086 0.69 0.0
C1437 C 0.52244 0.09481 0.73692 0.0
C1438 C 0.51564 0.10666 0.77484 0.0
C1439 C 0.45878 0.11183 0.03788 0.0
C1440 C 0.48134 0.11763 0.0629 0.0
C1441 C 0.45742 0.11302 0.98331 0.0
C1442 C 0.47869 0.12043 0.95307 0.0
C1443 C 0.50064 0.12414 0.97756 0.0
C1444 C 0.50196 0.12272 0.03216 0.0
C1445 C 0.47908 0.12737 0.89742 0.0
C1446 C 0.48596 0.11581 0.8588 0.0
C1447 C 0.4737 0.14619 0.88283 0.0
C1448 C 0.46711 0.15967 0.92211 0.0
C1449 C 0.48346 0.17297 0.96407 0.0
C1450 C 0.47678 0.18497 0.00182 0.0
C1451 C 0.45395 0.18412 -0.0024 0.0
C1452 C 0.4378 0.17136 0.95549 0.0
C1453 C 0.4443 0.15915 0.91784 0.0
H1454 H 0.44881 0.19344 0.02684 0.0
H1455 H 0.51408 0.07688 0.66065 0.0
H1456 H 0.86545 0.37523 0.60869 0.0
H1457 H 0.87266 0.37997 0.70327 0.0
H1458 H 0.8096 0.30667 0.72554 0.0
H1459 H 0.80197 0.30169 0.63007 0.0
H1460 H 0.81504 0.34879 0.79451 0.0
H1461 H 0.85928 0.30851 0.73071 0.0
H1462 H 0.88875 0.30358 0.67486 0.0
H1463 H 0.94846 0.37371 0.73202 0.0
H1464 H 0.91921 0.37934 0.78739 0.0
H1465 H 0.8325 0.31981 0.04794 0.0
H1466 H 0.82679 0.32031 0.95358 0.0
H1467 H 0.89908 0.38626 0.94252 0.0
H1468 H 0.9054 0.38537 0.03775 0.0
H1469 H 0.89084 0.35155 0.86684 0.0
H1470 H 0.84889 0.392 0.93291 0.0
H1471 H 0.82068 0.39848 0.9898 0.0
H1472 H 0.75839 0.33109 0.92889 0.0
H1473 H 0.78628 0.32398 0.87216 0.0
C1474 C 0.85279 0.36024 0.63362 0.0
C1475 C 0.8331 0.33805 0.61213 0.0
C1476 C 0.85713 0.36294 0.68747 0.0
C1477 C 0.84183 0.34356 0.72063 0.0
C1478 C 0.82161 0.3217 0.69991 0.0
C1479 C 0.81737 0.31885 0.64571 0.0
C1480 C 0.84745 0.34618 0.777 0.0
C1481 C 0.83139 0.34907 0.81066 0.0
C1482 C 0.86945 0.34764 0.7969 0.0
C1483 C 0.88696 0.34449 0.76274 0.0
C1484 C 0.87862 0.32305 0.73086 0.0
C1485 C 0.89531 0.32007 0.69947 0.0
C1486 C 0.92047 0.33829 0.69997 0.0
C1487 C 0.92898 0.35956 0.73181 0.0
C1488 C 0.91234 0.36268 0.76312 0.0
C1489 C 0.84741 0.3342 0.02543 0.0
C1490 C 0.86953 0.35243 0.04994 0.0
C1491 C 0.84394 0.33466 0.97168 0.0
C1492 C 0.86234 0.35356 0.94159 0.0
C1493 C 0.88463 0.37166 0.96554 0.0
C1494 C 0.88818 0.37118 0.01965 0.0
C1495 C 0.85817 0.35371 0.88478 0.0
C1496 C 0.87456 0.35146 0.85084 0.0
C1497 C 0.83665 0.35318 0.86451 0.0
C1498 C 0.81974 0.35737 0.89853 0.0
C1499 C 0.82921 0.37845 0.93193 0.0
C1500 C 0.81327 0.38225 0.96411 0.0
C1501 C 0.78777 0.36518 0.96303 0.0
C1502 C 0.77815 0.34429 0.9297 0.0
C1503 C 0.79402 0.34038 0.89746 0.0
H1504 H 0.77545 0.36817 0.98796 0.0
H1505 H 0.93335 0.33598 0.67554 0.0
H1506 H 0.29585 0.82988 0.37348 0.0
H1507 H 0.29891 0.82857 0.27815 0.0
H1508 H 0.36634 0.90004 0.2834 0.0
H1509 H 0.36323 0.90171 0.37918 0.0
H1510 H 0.33312 0.8906 0.19215 0.0
H1511 H 0.37516 0.85528 0.28692 0.0
H1512 H 0.37824 0.82857 0.35421 0.0
H1513 H 0.31819 0.76379 0.27915 0.0
H1514 H 0.31445 0.7902 0.21191 0.0
H1515 H 0.37621 0.87377 0.94771 0.0
H1516 H 0.37604 0.88177 0.04181 0.0
H1517 H 0.31328 0.80784 0.06031 0.0
H1518 H 0.31375 0.79944 0.96632 0.0
H1519 H 0.34718 0.82128 0.14048 0.0
H1520 H 0.30421 0.85619 0.04724 0.0
H1521 H 0.29981 0.88258 0.98108 0.0
H1522 H 0.36071 0.94779 0.0529 0.0
H1523 H 0.36571 0.92172 0.11907 0.0
C1524 C 0.31084 0.84573 0.35425 0.0
C1525 C 0.32946 0.86577 0.38364 0.0
C1526 C 0.31262 0.84488 0.2999 0.0
C1527 C 0.33304 0.86402 0.2743 0.0
C1528 C 0.35052 0.88509 0.30281 0.0
C1529 C 0.3488 0.88592 0.35735 0.0
C1530 C 0.33766 0.86036 0.21928 0.0
C1531 C 0.33657 0.87573 0.18071 0.0
C1532 C 0.34187 0.84072 0.20488 0.0
C1533 C 0.34438 0.82474 0.24467 0.0
C1534 C 0.36248 0.83536 0.28499 0.0
C1535 C 0.36437 0.82028 0.3231 0.0
C1536 C 0.34839 0.7945 0.32102 0.0
C1537 C 0.33054 0.78376 0.28074 0.0
C1538 C 0.32854 0.79877 0.2426 0.0
C1539 C 0.36279 0.85899 0.97205 0.0
C1540 C 0.3449 0.836 0.94979 0.0
C1541 C 0.36256 0.8637 0.02561 0.0
C1542 C 0.34437 0.84555 0.05754 0.0
C1543 C 0.32735 0.82212 0.03603 0.0
C1544 C 0.32757 0.81739 0.98246 0.0
C1545 C 0.34229 0.85129 0.11291 0.0
C1546 C 0.34393 0.83631 0.15173 0.0
C1547 C 0.33856 0.87126 0.12739 0.0
C1548 C 0.33551 0.88697 0.08775 0.0
C1549 C 0.3168 0.87614 0.04866 0.0
C1550 C 0.31417 0.89104 0.01121 0.0
C1551 C 0.33001 0.91684 0.0127 0.0
C1552 C 0.34848 0.92779 0.05174 0.0
C1553 C 0.35121 0.91297 0.08925 0.0
H1554 H 0.32793 0.92835 0.98369 0.0
H1555 H 0.34987 0.78285 0.35057 0.0
H1556 H 0.13153 0.49419 0.93756 0.0
H1557 H 0.12984 0.48735 0.03217 0.0
H1558 H 0.20995 0.52909 0.04214 0.0
H1559 H 0.21178 0.53617 0.94746 0.0
H1560 H 0.19074 0.4831 0.08425 0.0
H1561 H 0.17659 0.55211 0.09675 0.0
H1562 H 0.15615 0.57636 0.07596 0.0
H1563 H 0.08667 0.51676 0.13036 0.0
H1564 H 0.10663 0.492 0.15081 0.0
H1565 H 0.20337 0.48928 0.36353 0.0
H1566 H 0.20463 0.49561 0.26875 0.0
H1567 H 0.12445 0.45558 0.26115 0.0
H1568 H 0.12308 0.44925 0.35607 0.0
H1569 H 0.14346 0.50046 0.21755 0.0
H1570 H 0.15736 0.43141 0.20526 0.0
H1571 H 0.17756 0.40691 0.22583 0.0
H1572 H 0.24712 0.46612 0.17078 0.0
H1573 H 0.22741 0.49113 0.15054 0.0
C1574 C 0.14875 0.50258 0.96016 0.0
C1575 C 0.1718 0.51559 0.93519 0.0
C1576 C 0.14776 0.49856 0.01415 0.0
C1577 C 0.16978 0.50764 0.04395 0.0
C1578 C 0.19277 0.5218 0.01962 0.0
C1579 C 0.19378 0.52583 0.96568 0.0
C1580 C 0.16887 0.50053 0.09944 0.0
C1581 C 0.18074 0.48723 0.11369 0.0
C1582 C 0.15513 0.50525 0.13712 0.0
C1583 C 0.14307 0.5201 0.12483 0.0
C1584 C 0.15691 0.54408 0.10384 0.0
C1585 C 0.14541 0.55794 0.09221 0.0
C1586 C 0.12011 0.54808 0.1017 0.0
C1587 C 0.10626 0.52436 0.12297 0.0
C1588 C 0.11766 0.51042 0.13463 0.0
C1589 C 0.18603 0.48115 0.34139 0.0
C1590 C 0.16313 0.46888 0.36704 0.0
C1591 C 0.18677 0.48485 0.28729 0.0
C1592 C 0.16462 0.47611 0.25806 0.0
C1593 C 0.14173 0.4626 0.28316 0.0
C1594 C 0.14098 0.45896 0.33722 0.0
C1595 C 0.16536 0.48303 0.20245 0.0
C1596 C 0.15345 0.4963 0.18814 0.0
C1597 C 0.17903 0.47824 0.16468 0.0
C1598 C 0.19095 0.46324 0.17685 0.0
C1599 C 0.17701 0.4393 0.19796 0.0
C1600 C 0.18836 0.4253 0.20948 0.0
C1601 C 0.21362 0.43498 0.19974 0.0
C1602 C 0.22756 0.45865 0.17836 0.0
C1603 C 0.21631 0.47274 0.1668 0.0
H1604 H 0.22237 0.4241 0.20867 0.0
H1605 H 0.11125 0.55884 0.09269 0.0
H1606 H 0.49002 0.6592 0.39592 0.0
H1607 H 0.47989 0.65304 0.302 0.0
H1608 H 0.55591 0.70724 0.26697 0.0
H1609 H 0.566 0.71376 0.36153 0.0
H1610 H 0.52273 0.70999 0.19982 0.0
H1611 H 0.5396 0.64644 0.26196 0.0
H1612 H 0.53484 0.61313 0.32111 0.0
H1613 H 0.45666 0.57147 0.28487 0.0
H1614 H 0.4611 0.60446 0.2247 0.0
H1615 H 0.546 0.67323 0.95855 0.0
H1616 H 0.54487 0.67748 0.05385 0.0
H1617 H 0.46485 0.63265 0.0485 0.0
H1618 H 0.46599 0.62902 0.95205 0.0
H1619 H 0.4935 0.6237 0.1355 0.0
H1620 H 0.48246 0.68701 0.05416 0.0
H1621 H 0.49235 0.72079 0.99186 0.0
H1622 H 0.56416 0.76499 0.06526 0.0
H1623 H 0.55513 0.73107 0.12659 0.0
C1624 C 0.50441 0.6701 0.36804 0.0
C1625 C 0.52882 0.68672 0.38533 0.0
C1626 C 0.49864 0.66653 0.31464 0.0
C1627 C 0.51728 0.6793 0.27781 0.0
C1628 C 0.54133 0.69716 0.29504 0.0
C1629 C 0.54708 0.7009 0.34874 0.0
C1630 C 0.51213 0.67256 0.22161 0.0
C1631 C 0.51639 0.69118 0.18563 0.0
C1632 C 0.50343 0.64787 0.20354 0.0
C1633 C 0.50063 0.62797 0.23938 0.0
C1634 C 0.52138 0.63022 0.26684 0.0
C1635 C 0.51874 0.61139 0.30047 0.0
C1636 C 0.49541 0.59029 0.30721 0.0
C1637 C 0.47471 0.58786 0.27978 0.0
C1638 C 0.47729 0.60655 0.24569 0.0
C1639 C 0.52824 0.66415 0.97786 0.0
C1640 C 0.50608 0.6512 0.94859 0.0
C1641 C 0.5276 0.6665 0.03203 0.0
C1642 C 0.50476 0.65572 0.05758 0.0
C1643 C 0.48259 0.64117 0.02897 0.0
C1644 C 0.48324 0.63903 0.97433 0.0
C1645 C 0.50444 0.66122 0.11371 0.0
C1646 C 0.49924 0.64239 0.14972 0.0
C1647 C 0.51271 0.68583 0.13165 0.0
C1648 C 0.51818 0.70633 0.09472 0.0
C1649 C 0.50051 0.70377 0.05655 0.0
C1650 C 0.50597 0.72296 0.02136 0.0
C1651 C 0.52892 0.74498 0.02441 0.0
C1652 C 0.54643 0.74787 0.06273 0.0
C1653 C 0.54118 0.72864 0.09764 0.0
H1654 H 0.5331 0.75984 -0.0028 0.0
H1655 H 0.4934 0.57579 0.33349 0.0
loop_
_geom_bond_atom_site_label_1
_geom_bond_atom_site_label_2
_geom_bond_distance
_geom_bond_site_symmetry_2
_ccdc_geom_bond_type
C0 O16 1.251 . S
C0 O18 1.254 1_554 S
N1 C2 1.333 . S
N1 C6 1.307 . S
N1 Zn7 2.020 . S
C2 N1 1.333 . S
C2 C3 1.379 . S
C2 H20 0.952 1_455 S
C3 C2 1.379 . S
C3 C4 1.390 . S
C3 H30 0.949 1_455 S
C4 C3 1.390 . S
C4 C5 1.357 . S
C5 C4 1.357 . S
C5 C6 1.370 . S
C5 H31 0.950 . S
C6 N1 1.307 . S
C6 C5 1.370 . S
C6 H24 0.948 . S
Zn7 N1 2.020 . S
Zn7 O16 2.039 1_455 S
Zn7 O22 2.034 1_455 S
Zn7 O26 2.025 . S
Zn7 O28 2.024 . S
C8 O27 1.246 . S
C8 O28 1.249 1_556 S
N9 C10 1.307 . S
N9 C11 1.333 1_655 S
N9 Zn15 2.020 1_655 S
C10 N9 1.307 . S
C10 C14 1.370 . S
C10 H21 0.948 . S
C11 N9 1.333 1_455 S
C11 C12 1.379 . S
C11 H19 0.952 . S
C12 C11 1.379 . S
C12 C13 1.390 1_455 S
C12 H32 0.949 . S
C13 C12 1.390 1_655 S
C13 C14 1.357 . S
C14 C10 1.370 . S
C14 C13 1.357 . S
C14 H33 0.950 . S
Zn15 N9 2.020 1_455 S
Zn15 O18 2.025 1_455 S
Zn15 O23 2.024 1_455 S
Zn15 O25 2.039 . S
Zn15 O27 2.034 . S
O16 C0 1.251 . S
O16 Zn7 2.039 1_655 S
C17 O22 1.246 . S
C17 O23 1.249 1_554 S
O18 C0 1.254 1_556 S
O18 Zn15 2.025 1_655 S
H19 C11 0.952 . S
H20 C2 0.952 1_655 S
H21 C10 0.948 . S
O22 Zn7 2.034 1_655 S
O22 C17 1.246 . S
O23 Zn15 2.024 1_655 S
O23 C17 1.249 1_556 S
H24 C6 0.948 . S
O25 Zn15 2.039 . S
O25 C29 1.251 . S
O26 Zn7 2.025 . S
O26 C29 1.254 1_554 S
O27 C8 1.246 . S
O27 Zn15 2.034 . S
O28 Zn7 2.024 . S
O28 C8 1.249 1_554 S
C29 O25 1.251 . S
C29 O26 1.254 1_556 S
H30 C3 0.949 1_655 S
H31 C5 0.950 . S
H32 C12 0.949 . S
H33 C14 0.950 . S
C34 O50 1.251 . S
C34 O52 1.254 1_556 S
N35 C36 1.333 . S
N35 C40 1.307 . S
N35 Zn41 2.020 . S
C36 N35 1.333 . S
C36 C37 1.379 . S
C36 H54 0.952 . S
C37 C36 1.379 . S
C37 C38 1.390 . S
C37 H64 0.949 . S
C38 C37 1.390 . S
C38 C39 1.357 . S
C39 C38 1.357 . S
C39 C40 1.370 . S
C39 H65 0.950 . S
C40 N35 1.307 . S
C40 C39 1.370 . S
C40 H58 0.948 . S
Zn41 N35 2.020 . S
Zn41 O50 2.039 . S
Zn41 O56 2.034 . S
Zn41 O60 2.025 . S
Zn41 O62 2.024 . S
C42 O61 1.246 . S
C42 O62 1.249 1_554 S
N43 C44 1.307 . S
N43 C45 1.333 . S
N43 Zn49 2.020 . S
C44 N43 1.307 . S
C44 C48 1.370 . S
C44 H55 0.948 . S
C45 N43 1.333 . S
C45 C46 1.379 . S
C45 H53 0.952 . S
C46 C45 1.379 . S
C46 C47 1.390 . S
C46 H66 0.949 . S
C47 C46 1.390 . S
C47 C48 1.357 . S
C48 C44 1.370 . S
C48 C47 1.357 . S
C48 H67 0.950 . S
Zn49 N43 2.020 . S
Zn49 O52 2.025 . S
Zn49 O57 2.024 . S
Zn49 O59 2.039 . S
Zn49 O61 2.034 . S
O50 C34 1.251 . S
O50 Zn41 2.039 . S
C51 O56 1.246 . S
C51 O57 1.249 1_556 S
O52 C34 1.254 1_554 S
O52 Zn49 2.025 . S
H53 C45 0.952 . S
H54 C36 0.952 . S
H55 C44 0.948 . S
O56 Zn41 2.034 . S
O56 C51 1.246 . S
O57 Zn49 2.024 . S
O57 C51 1.249 1_554 S
H58 C40 0.948 . S
O59 Zn49 2.039 . S
O59 C63 1.251 . S
O60 Zn41 2.025 . S
O60 C63 1.254 1_556 S
O61 C42 1.246 . S
O61 Zn49 2.034 . S
O62 Zn41 2.024 . S
O62 C42 1.249 1_556 S
C63 O59 1.251 . S
C63 O60 1.254 1_554 S
H64 C37 0.949 . S
H65 C39 0.950 . S
H66 C46 0.949 . S
H67 C48 0.950 . S
C68 O84 1.251 . S
C68 O86 1.254 1_554 S
N69 C70 1.333 1_565 S
N69 C74 1.307 . S
N69 Zn75 2.020 1_565 S
C70 N69 1.333 1_545 S
C70 C71 1.379 . S
C70 H88 0.952 . S
C71 C70 1.379 . S
C71 C72 1.390 1_545 S
C71 H98 0.949 . S
C72 C71 1.390 1_565 S
C72 C73 1.357 . S
C73 C72 1.357 . S
C73 C74 1.370 . S
C73 H99 0.950 . S
C74 N69 1.307 . S
C74 C73 1.370 . S
C74 H92 0.948 . S
Zn75 N69 2.020 1_545 S
Zn75 O84 2.039 . S
Zn75 O90 2.034 . S
Zn75 O94 2.025 1_545 S
Zn75 O96 2.024 1_545 S
C76 O95 1.246 . S
C76 O96 1.249 1_556 S
N77 C78 1.307 . S
N77 C79 1.377 . S
N77 Zn83 2.020 . S
C78 N77 1.307 . S
C78 C82 1.370 . S
C78 H89 0.948 . S
C79 N77 1.377 . S
C79 C80 1.384 . S
C79 H87 0.903 1_545 S
C80 C79 1.384 . S
C80 C81 1.390 . S
C80 H100 0.949 1_545 S
C81 C80 1.390 . S
C81 C82 1.357 . S
C82 C78 1.370 . S
C82 C81 1.357 . S
C82 H101 0.950 . S
Zn83 N77 2.020 . S
Zn83 O86 2.025 . S
Zn83 O91 2.024 . S
Zn83 O93 2.039 1_545 S
Zn83 O95 2.034 1_545 S
O84 C68 1.251 . S
O84 Zn75 2.039 . S
C85 O90 1.246 . S
C85 O91 1.249 1_554 S
O86 C68 1.254 1_556 S
O86 Zn83 2.025 . S
H87 C79 0.903 1_565 S
H88 C70 0.952 . S
H89 C78 0.948 . S
O90 Zn75 2.034 . S
O90 C85 1.246 . S
O91 Zn83 2.024 . S
O91 C85 1.249 1_556 S
H92 C74 0.948 . S
O93 Zn83 2.039 1_565 S
O93 C97 1.251 . S
O94 Zn75 2.025 1_565 S
O94 C97 1.254 1_554 S
O95 C76 1.246 . S
O95 Zn83 2.034 1_565 S
O96 Zn75 2.024 1_565 S
O96 C76 1.249 1_554 S
C97 O93 1.251 . S
C97 O94 1.254 1_556 S
H98 C71 0.949 . S
H99 C73 0.950 . S
H100 C80 0.949 1_565 S
H101 C82 0.950 . S
C102 O118 1.251 . S
C102 O120 1.254 . S
N103 C104 1.333 . S
N103 C108 1.307 . S
N103 Zn109 2.020 . S
C104 N103 1.333 . S
C104 C105 1.379 . S
C104 H122 0.952 . S
C105 C104 1.379 . S
C105 C106 1.390 . S
C105 H132 0.949 . S
C106 C105 1.390 . S
C106 C107 1.357 . S
C107 C106 1.357 . S
C107 C108 1.370 . S
C107 H133 0.950 . S
C108 N103 1.307 . S
C108 C107 1.370 . S
C108 H126 0.948 . S
Zn109 N103 2.020 . S
Zn109 O118 2.039 . S
Zn109 O124 2.034 . S
Zn109 O128 2.025 . S
Zn109 O130 2.024 . S
C110 O129 1.246 . S
C110 O130 1.249 . S
N111 C112 1.307 . S
N111 C113 1.333 . S
N111 Zn117 2.020 . S
C112 N111 1.307 . S
C112 C116 1.370 . S
C112 H123 0.948 . S
C113 N111 1.333 . S
C113 C114 1.379 . S
C113 H121 0.952 . S
C114 C113 1.379 . S
C114 C115 1.390 . S
C114 H134 0.949 . S
C115 C114 1.390 . S
C115 C116 1.357 . S
C116 C112 1.370 . S
C116 C115 1.357 . S
C116 H135 0.950 . S
Zn117 N111 2.020 . S
Zn117 O120 2.025 . S
Zn117 O125 2.024 . S
Zn117 O127 2.039 . S
Zn117 O129 2.034 . S
O118 C102 1.251 . S
O118 Zn109 2.039 . S
C119 O124 1.246 . S
C119 O125 1.249 . S
O120 C102 1.254 . S
O120 Zn117 2.025 . S
H121 C113 0.952 . S
H122 C104 0.952 . S
H123 C112 0.948 . S
O124 Zn109 2.034 . S
O124 C119 1.246 . S
O125 Zn117 2.024 . S
O125 C119 1.249 . S
H126 C108 0.948 . S
O127 Zn117 2.039 . S
O127 C131 1.251 . S
O128 Zn109 2.025 . S
O128 C131 1.254 . S
O129 C110 1.246 . S
O129 Zn117 2.034 . S
O130 Zn109 2.024 . S
O130 C110 1.249 . S
C131 O127 1.251 . S
C131 O128 1.254 . S
H132 C105 0.949 . S
H133 C107 0.950 . S
H134 C114 0.949 . S
H135 C116 0.950 . S
C136 O152 1.251 . S
C136 O154 1.254 . S
N137 C138 1.333 . S
N137 C142 1.307 . S
N137 Zn143 2.020 . S
C138 N137 1.333 . S
C138 C139 1.379 . S
C138 H156 0.952 . S
C139 C138 1.379 . S
C139 C140 1.390 . S
C139 H166 0.949 . S
C140 C139 1.390 . S
C140 C141 1.357 . S
C141 C140 1.357 . S
C141 C142 1.370 . S
C141 H167 0.950 . S
C142 N137 1.307 . S
C142 C141 1.370 . S
C142 H160 0.948 . S
Zn143 N137 2.020 . S
Zn143 O152 2.039 . S
Zn143 O158 2.034 . S
Zn143 O162 2.025 . S
Zn143 O164 2.024 . S
C144 O163 1.246 . S
C144 O164 1.249 . S
N145 C146 1.307 . S
N145 C147 1.333 . S
N145 Zn151 2.020 . S
C146 N145 1.307 . S
C146 C150 1.370 . S
C146 H157 0.948 . S
C147 N145 1.333 . S
C147 C148 1.379 . S
C147 H155 0.952 . S
C148 C147 1.379 . S
C148 C149 1.390 . S
C148 H168 0.949 . S
C149 C148 1.390 . S
C149 C150 1.357 . S
C150 C146 1.370 . S
C150 C149 1.357 . S
C150 H169 0.950 . S
Zn151 N145 2.020 . S
Zn151 O154 2.025 . S
Zn151 O159 2.024 . S
Zn151 O161 2.039 . S
Zn151 O163 2.034 . S
O152 C136 1.251 . S
O152 Zn143 2.039 . S
C153 O158 1.246 . S
C153 O159 1.249 . S
O154 C136 1.254 . S
O154 Zn151 2.025 . S
H155 C147 0.952 . S
H156 C138 0.952 . S
H157 C146 0.948 . S
O158 Zn143 2.034 . S
O158 C153 1.246 . S
O159 Zn151 2.024 . S
O159 C153 1.249 . S
H160 C142 0.948 . S
O161 Zn151 2.039 . S
O161 C165 1.251 . S
O162 Zn143 2.025 . S
O162 C165 1.254 . S
O163 C144 1.246 . S
O163 Zn151 2.034 . S
O164 Zn143 2.024 . S
O164 C144 1.249 . S
C165 O161 1.251 . S
C165 O162 1.254 . S
H166 C139 0.949 . S
H167 C141 0.950 . S
H168 C148 0.949 . S
H169 C150 0.950 . S
C170 O186 1.251 . S
C170 O188 1.254 . S
N171 C172 1.333 . S
N171 C176 1.307 . S
N171 Zn177 2.020 . S
C172 N171 1.333 . S
C172 C173 1.379 . S
C172 H190 0.952 . S
C173 C172 1.379 . S
C173 C174 1.390 . S
C173 H200 0.949 . S
C174 C173 1.390 . S
C174 C175 1.357 . S
C175 C174 1.357 . S
C175 C176 1.370 . S
C175 H201 0.950 . S
C176 N171 1.307 . S
C176 C175 1.370 . S
C176 H194 0.948 . S
Zn177 N171 2.020 . S
Zn177 O186 2.039 . S
Zn177 O192 2.034 . S
Zn177 O196 2.025 . S
Zn177 O198 2.024 . S
C178 O197 1.246 . S
C178 O198 1.249 . S
N179 C180 1.307 . S
N179 C181 1.333 . S
N179 Zn185 2.020 . S
C180 N179 1.307 . S
C180 C184 1.370 . S
C180 H191 0.948 . S
C181 N179 1.333 . S
C181 C182 1.379 . S
C181 H189 0.952 . S
C182 C181 1.379 . S
C182 C183 1.390 . S
C182 H202 0.949 . S
C183 C182 1.390 . S
C183 C184 1.357 . S
C184 C180 1.370 . S
C184 C183 1.357 . S
C184 H203 0.950 . S
Zn185 N179 2.020 . S
Zn185 O188 2.025 . S
Zn185 O193 2.024 . S
Zn185 O195 2.039 . S
Zn185 O197 2.034 . S
O186 C170 1.251 . S
O186 Zn177 2.039 . S
C187 O192 1.246 . S
C187 O193 1.249 . S
O188 C170 1.254 . S
O188 Zn185 2.025 . S
H189 C181 0.952 . S
H190 C172 0.952 . S
H191 C180 0.948 . S
O192 Zn177 2.034 . S
O192 C187 1.246 . S
O193 Zn185 2.024 . S
O193 C187 1.249 . S
H194 C176 0.948 . S
O195 Zn185 2.039 . S
O195 C199 1.251 . S
O196 Zn177 2.025 . S
O196 C199 1.254 . S
O197 C178 1.246 . S
O197 Zn185 2.034 . S
O198 Zn177 2.024 . S
O198 C178 1.249 . S
C199 O195 1.251 . S
C199 O196 1.254 . S
H200 C173 0.949 . S
H201 C175 0.950 . S
H202 C182 0.949 . S
H203 C184 0.950 . S
C204 O220 1.251 . S
C204 O222 1.254 . S
N205 C206 1.333 . S
N205 C210 1.307 . S
N205 Zn211 2.020 . S
C206 N205 1.333 . S
C206 C207 1.379 . S
C206 H224 0.952 . S
C207 C206 1.379 . S
C207 C208 1.390 . S
C207 H234 0.949 . S
C208 C207 1.390 . S
C208 C209 1.357 . S
C209 C208 1.357 . S
C209 C210 1.370 . S
C209 H235 0.950 . S
C210 N205 1.307 . S
C210 C209 1.370 . S
C210 H228 0.948 . S
Zn211 N205 2.020 . S
Zn211 O220 2.039 . S
Zn211 O226 2.034 . S
Zn211 O230 2.025 . S
Zn211 O232 2.024 . S
C212 O231 1.246 . S
C212 O232 1.249 . S
N213 C214 1.307 . S
N213 C215 1.333 . S
N213 Zn219 2.020 . S
C214 N213 1.307 . S
C214 C218 1.370 . S
C214 H225 0.948 . S
C215 N213 1.333 . S
C215 C216 1.379 . S
C215 H223 0.952 . S
C216 C215 1.379 . S
C216 C217 1.390 . S
C216 H236 0.949 . S
C217 C216 1.390 . S
C217 C218 1.357 . S
C218 C214 1.370 . S
C218 C217 1.357 . S
C218 H237 0.950 . S
Zn219 N213 2.020 . S
Zn219 O222 2.025 . S
Zn219 O227 2.024 . S
Zn219 O229 2.039 . S
Zn219 O231 2.034 . S
O220 C204 1.251 . S
O220 Zn211 2.039 . S
C221 O226 1.246 . S
C221 O227 1.249 . S
O222 C204 1.254 . S
O222 Zn219 2.025 . S
H223 C215 0.952 . S
H224 C206 0.952 . S
H225 C214 0.948 . S
O226 Zn211 2.034 . S
O226 C221 1.246 . S
O227 Zn219 2.024 . S
O227 C221 1.249 . S
H228 C210 0.948 . S
O229 Zn219 2.039 . S
O229 C233 1.251 . S
O230 Zn211 2.025 . S
O230 C233 1.254 . S
O231 C212 1.246 . S
O231 Zn219 2.034 . S
O232 Zn211 2.024 . S
O232 C212 1.249 . S
C233 O229 1.251 . S
C233 O230 1.254 . S
H234 C207 0.949 . S
H235 C209 0.950 . S
H236 C216 0.949 . S
H237 C218 0.950 . S
C238 O254 1.251 . S
C238 O256 1.254 . S
N239 C240 1.333 . S
N239 C244 1.307 . S
N239 Zn245 2.020 . S
C240 N239 1.333 . S
C240 C241 1.379 . S
C240 H258 0.952 . S
C241 C240 1.379 . S
C241 C242 1.390 . S
C241 H268 0.949 . S
C242 C241 1.390 . S
C242 C243 1.357 . S
C243 C242 1.357 . S
C243 C244 1.370 . S
C243 H269 0.950 . S
C244 N239 1.307 . S
C244 C243 1.370 . S
C244 H262 0.948 . S
Zn245 N239 2.020 . S
Zn245 O254 2.039 . S
Zn245 O260 2.034 . S
Zn245 O264 2.025 . S
Zn245 O266 2.024 . S
C246 O265 1.246 . S
C246 O266 1.249 . S
N247 C248 1.307 . S
N247 C249 1.333 . S
N247 Zn253 2.020 . S
C248 N247 1.307 . S
C248 C252 1.370 . S
C248 H259 0.948 . S
C249 N247 1.333 . S
C249 C250 1.379 . S
C249 H257 0.952 . S
C250 C249 1.379 . S
C250 C251 1.390 . S
C250 H270 0.949 . S
C251 C250 1.390 . S
C251 C252 1.357 . S
C252 C248 1.370 . S
C252 C251 1.357 . S
C252 H271 0.950 . S
Zn253 N247 2.020 . S
Zn253 O256 2.025 . S
Zn253 O261 2.024 . S
Zn253 O263 2.039 . S
Zn253 O265 2.034 . S
O254 C238 1.251 . S
O254 Zn245 2.039 . S
C255 O260 1.246 . S
C255 O261 1.249 . S
O256 C238 1.254 . S
O256 Zn253 2.025 . S
H257 C249 0.952 . S
H258 C240 0.952 . S
H259 C248 0.948 . S
O260 Zn245 2.034 . S
O260 C255 1.246 . S
O261 Zn253 2.024 . S
O261 C255 1.249 . S
H262 C244 0.948 . S
O263 Zn253 2.039 . S
O263 C267 1.251 . S
O264 Zn245 2.025 . S
O264 C267 1.254 . S
O265 C246 1.246 . S
O265 Zn253 2.034 . S
O266 Zn245 2.024 . S
O266 C246 1.249 . S
C267 O263 1.251 . S
C267 O264 1.254 . S
H268 C241 0.949 . S
H269 C243 0.950 . S
H270 C250 0.949 . S
H271 C252 0.950 . S
C272 O288 1.251 . S
C272 O290 1.254 . S
N273 C274 1.333 . S
N273 C278 1.307 . S
N273 Zn279 2.020 . S
C274 N273 1.333 . S
C274 C275 1.379 . S
C274 H292 0.952 . S
C275 C274 1.379 . S
C275 C276 1.390 . S
C275 H302 0.949 . S
C276 C275 1.390 . S
C276 C277 1.357 . S
C277 C276 1.357 . S
C277 C278 1.370 . S
C277 H303 0.950 . S
C278 N273 1.307 . S
C278 C277 1.370 . S
C278 H296 0.948 . S
Zn279 N273 2.020 . S
Zn279 O288 2.039 . S
Zn279 O294 2.034 . S
Zn279 O298 2.025 . S
Zn279 O300 2.024 . S
C280 O299 1.246 . S
C280 O300 1.249 . S
N281 C282 1.307 . S
N281 C283 1.333 . S
N281 Zn287 2.020 . S
C282 N281 1.307 . S
C282 C286 1.370 . S
C282 H293 0.948 . S
C283 N281 1.333 . S
C283 C284 1.379 . S
C283 H291 0.952 . S
C284 C283 1.379 . S
C284 C285 1.390 . S
C284 H304 0.949 . S
C285 C284 1.390 . S
C285 C286 1.357 . S
C286 C282 1.370 . S
C286 C285 1.357 . S
C286 H305 0.950 . S
Zn287 N281 2.020 . S
Zn287 O290 2.025 . S
Zn287 O295 2.024 . S
Zn287 O297 2.039 . S
Zn287 O299 2.034 . S
O288 C272 1.251 . S
O288 Zn279 2.039 . S
C289 O294 1.246 . S
C289 O295 1.249 . S
O290 C272 1.254 . S
O290 Zn287 2.025 . S
H291 C283 0.952 . S
H292 C274 0.952 . S
H293 C282 0.948 . S
O294 Zn279 2.034 . S
O294 C289 1.246 . S
O295 Zn287 2.024 . S
O295 C289 1.249 . S
H296 C278 0.948 . S
O297 Zn287 2.039 . S
O297 C301 1.251 . S
O298 Zn279 2.025 . S
O298 C301 1.254 . S
O299 C280 1.246 . S
O299 Zn287 2.034 . S
O300 Zn279 2.024 . S
O300 C280 1.249 . S
C301 O297 1.251 . S
C301 O298 1.254 . S
H302 C275 0.949 . S
H303 C277 0.950 . S
H304 C284 0.949 . S
H305 C286 0.950 . S
H306 C324 0.951 1_554 S
H307 C326 0.951 . S
H308 C328 0.950 . S
H309 C329 0.950 . S
H310 C331 0.950 . S
H311 C334 0.950 . S
H312 C335 0.950 1_655 S
H313 C337 0.950 . S
H314 C338 0.950 . S
H315 C339 0.951 . S
H316 C341 0.951 . S
H317 C343 0.950 . S
H318 C344 0.950 . S
H319 C346 0.950 . S
H320 C349 0.950 . S
H321 C350 0.950 . S
H322 C352 0.950 . S
H323 C353 0.950 . S
C324 H306 0.951 1_556 S
C324 C325 1.366 . S
C324 C326 1.388 . S
C325 C324 1.366 . S
C325 C329 1.385 . S
C326 H307 0.951 . S
C326 C324 1.388 . S
C326 C327 1.366 . S
C327 C326 1.366 . S
C327 C328 1.414 . S
C327 C330 1.499 . S
C328 H308 0.950 . S
C328 C327 1.414 . S
C328 C329 1.374 . S
C329 H309 0.950 . S
C329 C325 1.385 . S
C329 C328 1.374 . S
C330 C327 1.499 . S
C330 C331 1.373 . S
C330 C332 1.389 . S
C331 H310 0.950 . S
C331 C330 1.373 . S
C331 C347 1.377 . S
C332 C330 1.389 . S
C332 C333 1.524 . S
C332 C346 1.377 . S
C333 C332 1.524 . S
C333 C334 1.397 . S
C333 C338 1.363 . S
C334 H311 0.950 . S
C334 C333 1.397 . S
C334 C335 1.334 . S
C335 H312 0.950 1_455 S
C335 C334 1.334 . S
C335 C336 1.287 . S
C336 C335 1.287 . S
C336 C337 1.524 . S
C336 H355 0.913 1_455 S
C337 H313 0.950 . S
C337 C336 1.524 . S
C337 C338 1.415 . S
C338 H314 0.950 . S
C338 C333 1.363 . S
C338 C337 1.415 . S
C339 H315 0.951 . S
C339 C340 1.366 . S
C339 C341 1.388 . S
C340 C339 1.366 . S
C340 C344 1.385 . S
C341 H316 0.951 . S
C341 C339 1.388 . S
C341 C342 1.366 . S
C342 C341 1.366 . S
C342 C343 1.414 . S
C342 C345 1.499 . S
C343 H317 0.950 . S
C343 C342 1.414 . S
C343 C344 1.374 . S
C344 H318 0.950 . S
C344 C340 1.385 . S
C344 C343 1.374 . S
C345 C342 1.499 . S
C345 C346 1.373 . S
C345 C347 1.389 . S
C346 H319 0.950 . S
C346 C332 1.377 . S
C346 C345 1.373 . S
C347 C331 1.377 . S
C347 C345 1.389 . S
C347 C348 1.524 . S
C348 C347 1.524 . S
C348 C349 1.397 . S
C348 C353 1.363 . S
C349 H320 0.950 . S
C349 C348 1.397 . S
C349 C350 1.334 . S
C350 H321 0.950 . S
C350 C349 1.334 . S
C350 C351 1.287 . S
C351 C350 1.287 . S
C351 C352 1.524 . S
C351 H354 0.999 . S
C352 H322 0.950 . S
C352 C351 1.524 . S
C352 C353 1.415 . S
C353 H323 0.950 . S
C353 C348 1.363 . S
C353 C352 1.415 . S
H354 C351 0.999 . S
H355 C336 0.913 1_655 S
H356 C374 0.951 . S
H357 C376 0.951 . S
H358 C378 0.950 . S
H359 C379 0.950 . S
H360 C381 0.950 . S
H361 C384 0.950 . S
H362 C385 0.950 . S
H363 C387 0.950 . S
H364 C388 0.950 . S
H365 C389 0.951 . S
H366 C391 0.951 . S
H367 C393 0.950 . S
H368 C394 0.950 . S
H369 C396 0.950 . S
H370 C399 0.950 . S
H371 C400 0.950 . S
H372 C402 0.950 . S
H373 C403 0.950 . S
C374 H356 0.951 . S
C374 C375 1.366 . S
C374 C376 1.388 . S
C375 C374 1.366 . S
C375 C379 1.385 . S
C376 H357 0.951 . S
C376 C374 1.388 . S
C376 C377 1.366 . S
C377 C376 1.366 . S
C377 C378 1.414 . S
C377 C380 1.499 . S
C378 H358 0.950 . S
C378 C377 1.414 . S
C378 C379 1.374 . S
C379 H359 0.950 . S
C379 C375 1.385 . S
C379 C378 1.374 . S
C380 C377 1.499 . S
C380 C381 1.373 . S
C380 C382 1.389 . S
C381 H360 0.950 . S
C381 C380 1.373 . S
C381 C397 1.377 . S
C382 C380 1.389 . S
C382 C383 1.524 . S
C382 C396 1.377 . S
C383 C382 1.524 . S
C383 C384 1.397 . S
C383 C388 1.363 . S
C384 H361 0.950 . S
C384 C383 1.397 . S
C384 C385 1.334 . S
C385 H362 0.950 . S
C385 C384 1.334 . S
C385 C386 1.287 . S
C386 C385 1.287 . S
C386 C387 1.524 . S
C386 H405 0.913 . S
C387 H363 0.950 . S
C387 C386 1.524 . S
C387 C388 1.415 . S
C388 H364 0.950 . S
C388 C383 1.363 . S
C388 C387 1.415 . S
C389 H365 0.951 . S
C389 C390 1.366 . S
C389 C391 1.388 . S
C390 C389 1.366 . S
C390 C394 1.385 . S
C391 H366 0.951 . S
C391 C389 1.388 . S
C391 C392 1.366 . S
C392 C391 1.366 . S
C392 C393 1.414 . S
C392 C395 1.499 . S
C393 H367 0.950 . S
C393 C392 1.414 . S
C393 C394 1.374 . S
C394 H368 0.950 . S
C394 C390 1.385 . S
C394 C393 1.374 . S
C395 C392 1.499 . S
C395 C396 1.373 . S
C395 C397 1.389 . S
C396 H369 0.950 . S
C396 C382 1.377 . S
C396 C395 1.373 . S
C397 C381 1.377 . S
C397 C395 1.389 . S
C397 C398 1.524 . S
C398 C397 1.524 . S
C398 C399 1.397 . S
C398 C403 1.363 . S
C399 H370 0.950 . S
C399 C398 1.397 . S
C399 C400 1.334 . S
C400 H371 0.950 . S
C400 C399 1.334 . S
C400 C401 1.287 . S
C401 C400 1.287 . S
C401 C402 1.524 . S
C401 H404 0.999 . S
C402 H372 0.950 . S
C402 C401 1.524 . S
C402 C403 1.415 . S
C403 H373 0.950 . S
C403 C398 1.363 . S
C403 C402 1.415 . S
H404 C401 0.999 . S
H405 C386 0.913 . S
H406 C424 0.951 1_554 S
H407 C426 0.951 . S
H408 C428 0.950 . S
H409 C429 0.950 . S
H410 C431 0.950 . S
H411 C434 0.950 . S
H412 C435 0.950 . S
H413 C437 0.950 . S
H414 C438 0.950 . S
H415 C439 0.951 . S
H416 C441 0.951 . S
H417 C443 0.950 . S
H418 C444 0.950 . S
H419 C446 0.950 . S
H420 C449 0.950 . S
H421 C450 0.950 . S
H422 C452 0.950 . S
H423 C453 0.950 . S
C424 H406 0.951 1_556 S
C424 C425 1.366 . S
C424 C426 1.388 . S
C425 C424 1.366 . S
C425 C429 1.385 . S
C426 H407 0.951 . S
C426 C424 1.388 . S
C426 C427 1.366 . S
C427 C426 1.366 . S
C427 C428 1.414 . S
C427 C430 1.499 . S
C428 H408 0.950 . S
C428 C427 1.414 . S
C428 C429 1.374 . S
C429 H409 0.950 . S
C429 C425 1.385 . S
C429 C428 1.374 . S
C430 C427 1.499 . S
C430 C431 1.373 . S
C430 C432 1.389 . S
C431 H410 0.950 . S
C431 C430 1.373 . S
C431 C447 1.377 . S
C432 C430 1.389 . S
C432 C433 1.524 . S
C432 C446 1.377 . S
C433 C432 1.524 . S
C433 C434 1.397 . S
C433 C438 1.363 . S
C434 H411 0.950 . S
C434 C433 1.397 . S
C434 C435 1.334 1_565 S
C435 H412 0.950 . S
C435 C434 1.334 1_545 S
C435 C436 1.287 . S
C436 C435 1.287 . S
C436 C437 1.524 1_545 S
C436 H455 0.913 . S
C437 H413 0.950 . S
C437 C436 1.524 1_565 S
C437 C438 1.415 . S
C438 H414 0.950 . S
C438 C433 1.363 . S
C438 C437 1.415 . S
C439 H415 0.951 . S
C439 C440 1.366 . S
C439 C441 1.388 . S
C440 C439 1.366 . S
C440 C444 1.385 . S
C441 H416 0.951 . S
C441 C439 1.388 . S
C441 C442 1.366 . S
C442 C441 1.366 . S
C442 C443 1.414 . S
C442 C445 1.499 . S
C443 H417 0.950 . S
C443 C442 1.414 . S
C443 C444 1.374 . S
C444 H418 0.950 . S
C444 C440 1.385 . S
C444 C443 1.374 . S
C445 C442 1.499 . S
C445 C446 1.373 . S
C445 C447 1.389 . S
C446 H419 0.950 . S
C446 C432 1.377 . S
C446 C445 1.373 . S
C447 C431 1.377 . S
C447 C445 1.389 . S
C447 C448 1.524 . S
C448 C447 1.524 . S
C448 C449 1.397 . S
C448 C453 1.363 . S
C449 H420 0.950 . S
C449 C448 1.397 . S
C449 C450 1.334 . S
C450 H421 0.950 . S
C450 C449 1.334 . S
C450 C451 1.287 . S
C451 C450 1.287 . S
C451 C452 1.524 . S
C451 H454 0.999 . S
C452 H422 0.950 . S
C452 C451 1.524 . S
C452 C453 1.415 . S
C453 H423 0.950 . S
C453 C448 1.363 . S
C453 C452 1.415 . S
H454 C451 0.999 . S
H455 C436 0.913 . S
H456 C474 0.951 . S
H457 C476 0.951 . S
H458 C478 0.950 . S
H459 C479 0.950 . S
H460 C481 0.950 . S
H461 C484 0.950 . S
H462 C485 0.950 . S
H463 C487 0.950 . S
H464 C488 0.950 . S
H465 C489 0.951 . S
H466 C491 0.951 . S
H467 C493 0.950 . S
H468 C494 0.950 . S
H469 C496 0.950 . S
H470 C499 0.950 . S
H471 C500 0.950 . S
H472 C502 0.950 . S
H473 C503 0.950 . S
C474 H456 0.951 . S
C474 C475 1.366 . S
C474 C476 1.388 . S
C475 C474 1.366 . S
C475 C479 1.385 . S
C476 H457 0.951 . S
C476 C474 1.388 . S
C476 C477 1.366 . S
C477 C476 1.366 . S
C477 C478 1.414 . S
C477 C480 1.499 . S
C478 H458 0.950 . S
C478 C477 1.414 . S
C478 C479 1.374 . S
C479 H459 0.950 . S
C479 C475 1.385 . S
C479 C478 1.374 . S
C480 C477 1.499 . S
C480 C481 1.373 . S
C480 C482 1.389 . S
C481 H460 0.950 . S
C481 C480 1.373 . S
C481 C497 1.377 . S
C482 C480 1.389 . S
C482 C483 1.524 . S
C482 C496 1.377 . S
C483 C482 1.524 . S
C483 C484 1.397 . S
C483 C488 1.363 . S
C484 H461 0.950 . S
C484 C483 1.397 . S
C484 C485 1.334 . S
C485 H462 0.950 . S
C485 C484 1.334 . S
C485 C486 1.287 . S
C486 C485 1.287 . S
C486 C487 1.524 . S
C486 H505 0.913 . S
C487 H463 0.950 . S
C487 C486 1.524 . S
C487 C488 1.415 . S
C488 H464 0.950 . S
C488 C483 1.363 . S
C488 C487 1.415 . S
C489 H465 0.951 . S
C489 C490 1.366 . S
C489 C491 1.388 . S
C490 C489 1.366 . S
C490 C494 1.385 . S
C491 H466 0.951 . S
C491 C489 1.388 . S
C491 C492 1.366 . S
C492 C491 1.366 . S
C492 C493 1.414 . S
C492 C495 1.499 . S
C493 H467 0.950 . S
C493 C492 1.414 . S
C493 C494 1.374 . S
C494 H468 0.950 . S
C494 C490 1.385 . S
C494 C493 1.374 . S
C495 C492 1.499 . S
C495 C496 1.373 . S
C495 C497 1.389 . S
C496 H469 0.950 . S
C496 C482 1.377 . S
C496 C495 1.373 . S
C497 C481 1.377 . S
C497 C495 1.389 . S
C497 C498 1.524 . S
C498 C497 1.524 . S
C498 C499 1.397 . S
C498 C503 1.363 . S
C499 H470 0.950 . S
C499 C498 1.397 . S
C499 C500 1.334 1_554 S
C500 H471 0.950 . S
C500 C499 1.334 1_556 S
C500 C501 1.287 . S
C501 C500 1.287 . S
C501 C502 1.524 1_556 S
C501 H504 0.999 . S
C502 H472 0.950 . S
C502 C501 1.524 1_554 S
C502 C503 1.415 . S
C503 H473 0.950 . S
C503 C498 1.363 . S
C503 C502 1.415 . S
H504 C501 0.999 . S
H505 C486 0.913 . S
H506 C524 0.951 . S
H507 C526 0.951 . S
H508 C528 0.950 . S
H509 C529 0.950 . S
H510 C531 0.950 . S
H511 C534 0.950 . S
H512 C535 0.950 . S
H513 C537 0.950 . S
H514 C538 0.950 . S
H515 C539 0.951 . S
H516 C541 0.951 . S
H517 C543 0.950 . S
H518 C544 0.958 . S
H519 C546 0.950 . S
H520 C549 0.950 . S
H521 C550 0.950 . S
H522 C552 0.950 . S
H523 C553 0.950 . S
C524 H506 0.951 . S
C524 C525 1.366 . S
C524 C526 1.388 . S
C525 C524 1.366 . S
C525 C529 1.385 . S
C526 H507 0.951 . S
C526 C524 1.388 . S
C526 C527 1.366 . S
C527 C526 1.366 . S
C527 C528 1.414 . S
C527 C530 1.499 . S
C528 H508 0.950 . S
C528 C527 1.414 . S
C528 C529 1.374 . S
C529 H509 0.950 . S
C529 C525 1.385 . S
C529 C528 1.374 . S
C530 C527 1.499 . S
C530 C531 1.373 . S
C530 C532 1.389 . S
C531 H510 0.950 . S
C531 C530 1.373 . S
C531 C547 1.377 . S
C532 C530 1.389 . S
C532 C533 1.524 . S
C532 C546 1.377 . S
C533 C532 1.524 . S
C533 C534 1.397 . S
C533 C538 1.363 . S
C534 H511 0.950 . S
C534 C533 1.397 . S
C534 C535 1.334 . S
C535 H512 0.950 . S
C535 C534 1.334 . S
C535 C536 1.287 . S
C536 C535 1.287 . S
C536 C537 1.524 . S
C536 H555 0.913 . S
C537 H513 0.950 . S
C537 C536 1.524 . S
C537 C538 1.415 . S
C538 H514 0.950 . S
C538 C533 1.363 . S
C538 C537 1.415 . S
C539 H515 0.951 . S
C539 C540 1.366 . S
C539 C541 1.388 . S
C540 C539 1.366 . S
C540 C544 1.385 . S
C541 H516 0.951 . S
C541 C539 1.388 . S
C541 C542 1.366 . S
C542 C541 1.366 . S
C542 C543 1.414 . S
C542 C545 1.499 . S
C543 H517 0.950 . S
C543 C542 1.414 . S
C543 C544 1.374 . S
C544 H518 0.958 . S
C544 C540 1.385 . S
C544 C543 1.374 . S
C545 C542 1.499 . S
C545 C546 1.373 . S
C545 C547 1.389 . S
C546 H519 0.950 . S
C546 C532 1.377 . S
C546 C545 1.373 . S
C547 C531 1.377 . S
C547 C545 1.389 . S
C547 C548 1.524 . S
C548 C547 1.524 . S
C548 C549 1.397 . S
C548 C553 1.363 . S
C549 H520 0.950 . S
C549 C548 1.397 . S
C549 C550 1.334 . S
C550 H521 0.950 . S
C550 C549 1.334 . S
C550 C551 1.287 1_655 S
C551 C550 1.287 1_455 S
C551 C552 1.524 . S
C551 H554 0.999 . S
C552 H522 0.950 . S
C552 C551 1.524 . S
C552 C553 1.415 1_455 S
C553 H523 0.950 . S
C553 C548 1.363 . S
C553 C552 1.415 1_655 S
H554 C551 0.999 . S
H555 C536 0.913 . S
H556 C574 0.951 . S
H557 C576 0.951 . S
H558 C578 0.950 . S
H559 C579 0.950 . S
H560 C581 0.950 . S
H561 C584 0.950 . S
H562 C585 0.950 1_556 S
H563 C587 0.950 . S
H564 C588 0.950 . S
H565 C589 0.951 . S
H566 C591 0.951 . S
H567 C593 0.950 . S
H568 C594 0.950 . S
H569 C596 0.950 . S
H570 C599 0.950 . S
H571 C600 0.950 . S
H572 C602 0.950 . S
H573 C603 0.950 . S
C574 H556 0.951 . S
C574 C575 1.366 . S
C574 C576 1.388 . S
C575 C574 1.366 . S
C575 C579 1.385 . S
C576 H557 0.951 . S
C576 C574 1.388 . S
C576 C577 1.366 . S
C577 C576 1.366 . S
C577 C578 1.414 . S
C577 C580 1.499 . S
C578 H558 0.950 . S
C578 C577 1.414 . S
C578 C579 1.374 . S
C579 H559 0.950 . S
C579 C575 1.385 . S
C579 C578 1.374 . S
C580 C577 1.499 . S
C580 C581 1.373 . S
C580 C582 1.389 . S
C581 H560 0.950 . S
C581 C580 1.373 . S
C581 C597 1.377 . S
C582 C580 1.389 . S
C582 C583 1.524 . S
C582 C596 1.377 . S
C583 C582 1.524 . S
C583 C584 1.397 . S
C583 C588 1.363 . S
C584 H561 0.950 . S
C584 C583 1.397 . S
C584 C585 1.334 . S
C585 H562 0.950 1_554 S
C585 C584 1.334 . S
C585 C586 1.287 . S
C586 C585 1.287 . S
C586 C587 1.524 . S
C586 H605 0.913 . S
C587 H563 0.950 . S
C587 C586 1.524 . S
C587 C588 1.415 . S
C588 H564 0.950 . S
C588 C583 1.363 . S
C588 C587 1.415 . S
C589 H565 0.951 . S
C589 C590 1.366 . S
C589 C591 1.388 . S
C590 C589 1.366 . S
C590 C594 1.385 . S
C591 H566 0.951 . S
C591 C589 1.388 . S
C591 C592 1.366 . S
C592 C591 1.366 . S
C592 C593 1.414 . S
C592 C595 1.499 . S
C593 H567 0.950 . S
C593 C592 1.414 . S
C593 C594 1.374 . S
C594 H568 0.950 . S
C594 C590 1.385 . S
C594 C593 1.374 . S
C595 C592 1.499 . S
C595 C596 1.373 . S
C595 C597 1.389 . S
C596 H569 0.950 . S
C596 C582 1.377 . S
C596 C595 1.373 . S
C597 C581 1.377 . S
C597 C595 1.389 . S
C597 C598 1.524 . S
C598 C597 1.524 . S
C598 C599 1.397 . S
C598 C603 1.363 . S
C599 H570 0.950 . S
C599 C598 1.397 . S
C599 C600 1.334 . S
C600 H571 0.950 . S
C600 C599 1.334 . S
C600 C601 1.287 . S
C601 C600 1.287 . S
C601 C602 1.524 . S
C601 H604 0.999 . S
C602 H572 0.950 . S
C602 C601 1.524 . S
C602 C603 1.415 . S
C603 H573 0.950 . S
C603 C598 1.363 . S
C603 C602 1.415 . S
H604 C601 0.999 . S
H605 C586 0.913 . S
H606 C624 0.951 . S
H607 C626 0.951 . S
H608 C628 0.950 . S
H609 C629 0.950 . S
H610 C631 0.950 . S
H611 C634 0.950 . S
H612 C635 0.950 . S
H613 C637 0.950 . S
H614 C638 0.950 . S
H615 C639 0.951 . S
H616 C641 0.951 . S
H617 C643 0.950 . S
H618 C644 0.950 . S
H619 C646 0.950 . S
H620 C649 0.950 . S
H621 C650 0.950 . S
H622 C652 0.950 . S
H623 C653 0.950 . S
C624 H606 0.951 . S
C624 C625 1.366 . S
C624 C626 1.388 . S
C625 C624 1.366 . S
C625 C629 1.385 . S
C626 H607 0.951 . S
C626 C624 1.388 . S
C626 C627 1.366 . S
C627 C626 1.366 . S
C627 C628 1.414 . S
C627 C630 1.499 . S
C628 H608 0.950 . S
C628 C627 1.414 . S
C628 C629 1.374 . S
C629 H609 0.950 . S
C629 C625 1.385 . S
C629 C628 1.374 . S
C630 C627 1.499 . S
C630 C631 1.373 . S
C630 C632 1.389 . S
C631 H610 0.950 . S
C631 C630 1.373 . S
C631 C647 1.377 1_455 S
C632 C630 1.389 . S
C632 C633 1.524 . S
C632 C646 1.377 . S
C633 C632 1.524 . S
C633 C634 1.397 . S
C633 C638 1.363 . S
C634 H611 0.950 . S
C634 C633 1.397 . S
C634 C635 1.334 . S
C635 H612 0.950 . S
C635 C634 1.334 . S
C635 C636 1.287 . S
C636 C635 1.287 . S
C636 C637 1.524 . S
C636 H655 0.913 . S
C637 H613 0.950 . S
C637 C636 1.524 . S
C637 C638 1.415 . S
C638 H614 0.950 . S
C638 C633 1.363 . S
C638 C637 1.415 . S
C639 H615 0.951 . S
C639 C640 1.366 . S
C639 C641 1.388 . S
C640 C639 1.366 . S
C640 C644 1.385 . S
C641 H616 0.951 . S
C641 C639 1.388 . S
C641 C642 1.366 . S
C642 C641 1.366 . S
C642 C643 1.414 . S
C642 C645 1.499 . S
C643 H617 0.950 . S
C643 C642 1.414 . S
C643 C644 1.374 . S
C644 H618 0.950 . S
C644 C640 1.385 . S
C644 C643 1.374 . S
C645 C642 1.499 . S
C645 C646 1.373 1_655 S
C645 C647 1.389 . S
C646 H619 0.950 . S
C646 C632 1.377 . S
C646 C645 1.373 1_455 S
C647 C631 1.377 1_655 S
C647 C645 1.389 . S
C647 C648 1.524 . S
C648 C647 1.524 . S
C648 C649 1.397 . S
C648 C653 1.363 . S
C649 H620 0.950 . S
C649 C648 1.397 . S
C649 C650 1.334 . S
C650 H621 0.950 . S
C650 C649 1.334 . S
C650 C651 1.287 . S
C651 C650 1.287 . S
C651 C652 1.524 . S
C651 H654 0.999 . S
C652 H622 0.950 . S
C652 C651 1.524 . S
C652 C653 1.415 . S
C653 H623 0.950 . S
C653 C648 1.363 . S
C653 C652 1.415 . S
H654 C651 0.999 . S
H655 C636 0.913 . S
H656 C674 0.951 . S
H657 C676 0.951 . S
H658 C678 0.950 . S
H659 C679 0.950 . S
H660 C681 0.950 . S
H661 C684 0.950 . S
H662 C685 0.950 . S
H663 C687 0.950 . S
H664 C688 0.950 . S
H665 C689 0.951 . S
H666 C691 0.951 . S
H667 C693 0.950 . S
H668 C694 0.950 . S
H669 C696 0.950 . S
H670 C699 0.950 . S
H671 C700 0.950 . S
H672 C702 0.950 . S
H673 C703 0.950 . S
C674 H656 0.951 . S
C674 C675 1.366 . S
C674 C676 1.388 . S
C675 C674 1.366 . S
C675 C679 1.385 . S
C676 H657 0.951 . S
C676 C674 1.388 . S
C676 C677 1.366 . S
C677 C676 1.366 . S
C677 C678 1.414 . S
C677 C680 1.499 . S
C678 H658 0.950 . S
C678 C677 1.414 . S
C678 C679 1.374 . S
C679 H659 0.950 . S
C679 C675 1.385 . S
C679 C678 1.374 . S
C680 C677 1.499 . S
C680 C681 1.373 . S
C680 C682 1.389 . S
C681 H660 0.950 . S
C681 C680 1.373 . S
C681 C697 1.377 . S
C682 C680 1.389 . S
C682 C683 1.524 . S
C682 C696 1.377 . S
C683 C682 1.524 . S
C683 C684 1.397 . S
C683 C688 1.363 . S
C684 H661 0.950 . S
C684 C683 1.397 . S
C684 C685 1.334 . S
C685 H662 0.950 . S
C685 C684 1.334 . S
C685 C686 1.287 . S
C686 C685 1.287 . S
C686 C687 1.524 . S
C686 H705 0.913 . S
C687 H663 0.950 . S
C687 C686 1.524 . S
C687 C688 1.415 . S
C688 H664 0.950 . S
C688 C683 1.363 . S
C688 C687 1.415 . S
C689 H665 0.951 . S
C689 C690 1.366 . S
C689 C691 1.388 . S
C690 C689 1.366 . S
C690 C694 1.385 . S
C691 H666 0.951 . S
C691 C689 1.388 . S
C691 C692 1.366 . S
C692 C691 1.366 . S
C692 C693 1.414 . S
C692 C695 1.499 . S
C693 H667 0.950 . S
C693 C692 1.414 . S
C693 C694 1.374 . S
C694 H668 0.950 . S
C694 C690 1.385 . S
C694 C693 1.374 . S
C695 C692 1.499 . S
C695 C696 1.373 . S
C695 C697 1.389 . S
C696 H669 0.950 . S
C696 C682 1.377 . S
C696 C695 1.373 . S
C697 C681 1.377 . S
C697 C695 1.389 . S
C697 C698 1.524 . S
C698 C697 1.524 . S
C698 C699 1.397 . S
C698 C703 1.363 . S
C699 H670 0.950 . S
C699 C698 1.397 . S
C699 C700 1.334 . S
C700 H671 0.950 . S
C700 C699 1.334 . S
C700 C701 1.287 . S
C701 C700 1.287 . S
C701 C702 1.524 . S
C701 H704 0.999 . S
C702 H672 0.950 . S
C702 C701 1.524 . S
C702 C703 1.415 . S
C703 H673 0.950 . S
C703 C698 1.363 . S
C703 C702 1.415 . S
H704 C701 0.999 . S
H705 C686 0.913 . S
H706 C724 0.951 . S
H707 C726 0.951 . S
H708 C728 0.950 . S
H709 C729 0.950 . S
H710 C731 0.950 . S
H711 C734 0.950 . S
H712 C735 0.950 . S
H713 C737 0.950 . S
H714 C738 0.950 . S
H715 C739 0.951 . S
H716 C741 0.951 . S
H717 C743 0.950 . S
H718 C744 0.950 . S
H719 C746 0.950 . S
H720 C749 0.950 1_565 S
H721 C750 0.933 1_565 S
H722 C752 0.950 . S
H723 C753 0.950 . S
C724 H706 0.951 . S
C724 C725 1.366 . S
C724 C726 1.388 . S
C725 C724 1.366 . S
C725 C729 1.385 . S
C726 H707 0.951 . S
C726 C724 1.388 . S
C726 C727 1.366 . S
C727 C726 1.366 . S
C727 C728 1.414 . S
C727 C730 1.499 . S
C728 H708 0.950 . S
C728 C727 1.414 . S
C728 C729 1.374 . S
C729 H709 0.950 . S
C729 C725 1.385 . S
C729 C728 1.374 . S
C730 C727 1.499 . S
C730 C731 1.373 . S
C730 C732 1.389 . S
C731 H710 0.950 . S
C731 C730 1.373 . S
C731 C747 1.377 . S
C732 C730 1.389 . S
C732 C733 1.524 1_545 S
C732 C746 1.377 1_545 S
C733 C732 1.524 1_565 S
C733 C734 1.397 1_565 S
C733 C738 1.363 . S
C734 H711 0.950 . S
C734 C733 1.397 1_545 S
C734 C735 1.334 . S
C735 H712 0.950 . S
C735 C734 1.334 . S
C735 C736 1.287 1_545 S
C736 C735 1.287 1_565 S
C736 C737 1.524 . S
C736 H755 0.913 . S
C737 H713 0.950 . S
C737 C736 1.524 . S
C737 C738 1.415 . S
C738 H714 0.950 . S
C738 C733 1.363 . S
C738 C737 1.415 . S
C739 H715 0.951 . S
C739 C740 1.366 . S
C739 C741 1.388 . S
C740 C739 1.366 . S
C740 C744 1.385 . S
C741 H716 0.951 . S
C741 C739 1.388 . S
C741 C742 1.366 . S
C742 C741 1.366 . S
C742 C743 1.414 . S
C742 C745 1.499 . S
C743 H717 0.950 . S
C743 C742 1.414 . S
C743 C744 1.374 . S
C744 H718 0.950 . S
C744 C740 1.385 . S
C744 C743 1.374 . S
C745 C742 1.499 . S
C745 C746 1.373 . S
C745 C747 1.389 1_565 S
C746 H719 0.950 . S
C746 C732 1.377 1_565 S
C746 C745 1.373 . S
C747 C731 1.377 . S
C747 C745 1.389 1_545 S
C747 C748 1.524 . S
C748 C747 1.524 . S
C748 C749 1.397 . S
C748 C753 1.363 . S
C749 H720 0.950 1_545 S
C749 C748 1.397 . S
C749 C750 1.334 . S
C750 H721 0.933 1_545 S
C750 C749 1.334 . S
C750 C751 1.287 . S
C751 C750 1.287 . S
C751 C752 1.524 . S
C751 H754 0.999 . S
C752 H722 0.950 . S
C752 C751 1.524 . S
C752 C753 1.415 . S
C753 H723 0.950 . S
C753 C748 1.363 . S
C753 C752 1.415 . S
H754 C751 0.999 . S
H755 C736 0.913 . S
H756 C774 0.951 1_556 S
H757 C776 0.952 . S
H758 C778 0.950 . S
H759 C779 0.950 . S
H760 C781 0.950 . S
H761 C784 0.950 . S
H762 C785 0.950 . S
H763 C787 0.950 . S
H764 C788 0.950 . S
H765 C789 0.951 . S
H766 C791 0.951 . S
H767 C793 0.950 . S
H768 C794 0.950 . S
H769 C796 0.950 . S
H770 C799 0.950 . S
H771 C800 0.950 . S
H772 C802 0.950 . S
H773 C803 0.950 . S
C774 H756 0.951 1_554 S
C774 C775 1.366 . S
C774 C776 1.388 1_554 S
C775 C774 1.366 . S
C775 C779 1.385 . S
C776 H757 0.952 . S
C776 C774 1.388 1_556 S
C776 C777 1.365 1_556 S
C777 C776 1.365 1_554 S
C777 C778 1.414 . S
C777 C780 1.499 . S
C778 H758 0.950 . S
C778 C777 1.414 . S
C778 C779 1.374 . S
C779 H759 0.950 . S
C779 C775 1.385 . S
C779 C778 1.374 . S
C780 C777 1.499 . S
C780 C781 1.373 . S
C780 C782 1.389 1_554 S
C781 H760 0.950 . S
C781 C780 1.373 . S
C781 C797 1.377 . S
C782 C780 1.389 1_556 S
C782 C783 1.524 . S
C782 C796 1.377 . S
C783 C782 1.524 . S
C783 C784 1.397 . S
C783 C788 1.363 . S
C784 H761 0.950 . S
C784 C783 1.397 . S
C784 C785 1.334 . S
C785 H762 0.950 . S
C785 C784 1.334 . S
C785 C786 1.287 . S
C786 C785 1.287 . S
C786 C787 1.524 . S
C786 H805 0.913 . S
C787 H763 0.950 . S
C787 C786 1.524 . S
C787 C788 1.415 . S
C788 H764 0.950 . S
C788 C783 1.363 . S
C788 C787 1.415 . S
C789 H765 0.951 . S
C789 C790 1.366 1_554 S
C789 C791 1.388 . S
C790 C789 1.366 1_556 S
C790 C794 1.385 . S
C791 H766 0.951 . S
C791 C789 1.388 . S
C791 C792 1.366 . S
C792 C791 1.366 . S
C792 C793 1.414 1_554 S
C792 C795 1.499 . S
C793 H767 0.950 . S
C793 C792 1.414 1_556 S
C793 C794 1.374 . S
C794 H768 0.950 . S
C794 C790 1.385 . S
C794 C793 1.374 . S
C795 C792 1.499 . S
C795 C796 1.373 1_554 S
C795 C797 1.389 . S
C796 H769 0.950 . S
C796 C782 1.377 . S
C796 C795 1.373 1_556 S
C797 C781 1.377 . S
C797 C795 1.389 . S
C797 C798 1.524 . S
C798 C797 1.524 . S
C798 C799 1.397 . S
C798 C803 1.363 . S
C799 H770 0.950 . S
C799 C798 1.397 . S
C799 C800 1.334 . S
C800 H771 0.950 . S
C800 C799 1.334 . S
C800 C801 1.287 . S
C801 C800 1.287 . S
C801 C802 1.524 . S
C801 H804 0.999 . S
C802 H772 0.950 . S
C802 C801 1.524 . S
C802 C803 1.415 . S
C803 H773 0.950 . S
C803 C798 1.363 . S
C803 C802 1.415 . S
H804 C801 0.999 . S
H805 C786 0.913 . S
H806 C824 0.951 . S
H807 C826 0.951 . S
H808 C828 0.950 . S
H809 C829 0.950 . S
H810 C831 0.950 . S
H811 C834 0.950 . S
H812 C835 0.950 . S
H813 C837 0.950 . S
H814 C838 0.935 1_545 S
H815 C839 0.951 . S
H816 C841 0.951 . S
H817 C843 0.951 1_556 S
H818 C844 0.950 . S
H819 C846 0.950 . S
H820 C849 0.950 . S
H821 C850 0.950 . S
H822 C852 0.950 . S
H823 C853 0.950 . S
C824 H806 0.951 . S
C824 C825 1.366 . S
C824 C826 1.388 . S
C825 C824 1.366 . S
C825 C829 1.385 1_556 S
C826 H807 0.951 . S
C826 C824 1.388 . S
C826 C827 1.366 1_556 S
C827 C826 1.366 1_554 S
C827 C828 1.414 . S
C827 C830 1.499 . S
C828 H808 0.950 . S
C828 C827 1.414 . S
C828 C829 1.374 . S
C829 H809 0.950 . S
C829 C825 1.385 1_554 S
C829 C828 1.374 . S
C830 C827 1.499 . S
C830 C831 1.373 1_554 S
C830 C832 1.389 . S
C831 H810 0.950 . S
C831 C830 1.373 1_556 S
C831 C847 1.377 1_565 S
C832 C830 1.389 . S
C832 C833 1.524 . S
C832 C846 1.377 1_565 S
C833 C832 1.524 . S
C833 C834 1.397 . S
C833 C838 1.363 . S
C834 H811 0.950 . S
C834 C833 1.397 . S
C834 C835 1.334 . S
C835 H812 0.950 . S
C835 C834 1.334 . S
C835 C836 1.287 . S
C836 C835 1.287 . S
C836 C837 1.524 . S
C836 H855 0.913 . S
C837 H813 0.950 . S
C837 C836 1.524 . S
C837 C838 1.415 . S
C838 H814 0.935 1_565 S
C838 C833 1.363 . S
C838 C837 1.415 . S
C839 H815 0.951 . S
C839 C840 1.366 . S
C839 C841 1.388 . S
C840 C839 1.366 . S
C840 C844 1.385 . S
C841 H816 0.951 . S
C841 C839 1.388 . S
C841 C842 1.366 . S
C842 C841 1.366 . S
C842 C843 1.414 . S
C842 C845 1.499 . S
C843 H817 0.951 1_554 S
C843 C842 1.414 . S
C843 C844 1.374 . S
C844 H818 0.950 . S
C844 C840 1.385 . S
C844 C843 1.374 . S
C845 C842 1.499 . S
C845 C846 1.373 . S
C845 C847 1.389 1_554 S
C846 H819 0.950 . S
C846 C832 1.377 1_545 S
C846 C845 1.373 . S
C847 C831 1.377 1_545 S
C847 C845 1.389 1_556 S
C847 C848 1.524 . S
C848 C847 1.524 . S
C848 C849 1.397 . S
C848 C853 1.363 . S
C849 H820 0.950 . S
C849 C848 1.397 . S
C849 C850 1.334 . S
C850 H821 0.950 . S
C850 C849 1.334 . S
C850 C851 1.287 . S
C851 C850 1.287 . S
C851 C852 1.524 . S
C851 H854 0.999 . S
C852 H822 0.950 . S
C852 C851 1.524 . S
C852 C853 1.415 . S
C853 H823 0.950 . S
C853 C848 1.363 . S
C853 C852 1.415 . S
H854 C851 0.999 . S
H855 C836 0.913 . S
H856 C874 0.951 . S
H857 C876 0.951 1_556 S
H858 C878 0.950 . S
H859 C879 0.950 . S
H860 C881 0.950 . S
H861 C884 0.950 . S
H862 C885 0.950 . S
H863 C887 0.950 . S
H864 C888 0.950 1_455 S
H865 C889 0.951 . S
H866 C891 0.951 . S
H867 C893 0.950 . S
H868 C894 0.950 . S
H869 C896 0.950 . S
H870 C899 0.950 . S
H871 C900 0.950 . S
H872 C902 0.950 1_545 S
H873 C903 0.950 . S
C874 H856 0.951 . S
C874 C875 1.366 . S
C874 C876 1.388 . S
C875 C874 1.366 . S
C875 C879 1.385 . S
C876 H857 0.951 1_554 S
C876 C874 1.388 . S
C876 C877 1.366 . S
C877 C876 1.366 . S
C877 C878 1.414 . S
C877 C880 1.499 . S
C878 H858 0.950 . S
C878 C877 1.414 . S
C878 C879 1.374 . S
C879 H859 0.950 . S
C879 C875 1.385 . S
C879 C878 1.374 . S
C880 C877 1.499 . S
C880 C881 1.373 1_554 S
C880 C882 1.389 . S
C881 H860 0.950 . S
C881 C880 1.373 1_556 S
C881 C897 1.377 1_655 S
C882 C880 1.389 . S
C882 C883 1.524 . S
C882 C896 1.377 1_655 S
C883 C882 1.524 . S
C883 C884 1.397 . S
C883 C888 1.363 . S
C884 H861 0.950 . S
C884 C883 1.397 . S
C884 C885 1.334 . S
C885 H862 0.950 . S
C885 C884 1.334 . S
C885 C886 1.287 . S
C886 C885 1.287 . S
C886 C887 1.524 . S
C886 H905 0.913 . S
C887 H863 0.950 . S
C887 C886 1.524 . S
C887 C888 1.415 . S
C888 H864 0.950 1_655 S
C888 C883 1.363 . S
C888 C887 1.415 . S
C889 H865 0.951 . S
C889 C890 1.366 1_554 S
C889 C891 1.388 . S
C890 C889 1.366 1_556 S
C890 C894 1.385 . S
C891 H866 0.951 . S
C891 C889 1.388 . S
C891 C892 1.366 1_554 S
C892 C891 1.366 1_556 S
C892 C893 1.414 . S
C892 C895 1.499 1_556 S
C893 H867 0.950 . S
C893 C892 1.414 . S
C893 C894 1.374 . S
C894 H868 0.950 . S
C894 C890 1.385 . S
C894 C893 1.374 . S
C895 C892 1.499 1_554 S
C895 C896 1.373 . S
C895 C897 1.389 1_554 S
C896 H869 0.950 . S
C896 C882 1.377 1_455 S
C896 C895 1.373 . S
C897 C881 1.377 1_455 S
C897 C895 1.389 1_556 S
C897 C898 1.524 . S
C898 C897 1.524 . S
C898 C899 1.397 . S
C898 C903 1.363 . S
C899 H870 0.950 . S
C899 C898 1.397 . S
C899 C900 1.334 . S
C900 H871 0.950 . S
C900 C899 1.334 . S
C900 C901 1.287 . S
C901 C900 1.287 . S
C901 C902 1.524 . S
C901 H904 0.999 1_565 S
C902 H872 0.950 1_565 S
C902 C901 1.524 . S
C902 C903 1.415 . S
C903 H873 0.950 . S
C903 C898 1.363 . S
C903 C902 1.415 . S
H904 C901 0.999 1_545 S
H905 C886 0.913 . S
H906 C924 0.951 . S
H907 C926 0.951 . S
H908 C928 0.950 . S
H909 C929 0.950 . S
H910 C931 0.950 . S
H911 C934 0.950 . S
H912 C935 0.950 . S
H913 C937 0.950 . S
H914 C938 0.950 . S
H915 C939 0.951 . S
H916 C941 0.951 . S
H917 C943 0.950 . S
H918 C944 0.950 . S
H919 C946 0.950 . S
H920 C949 0.950 . S
H921 C950 0.950 . S
H922 C952 0.950 . S
H923 C953 0.950 . S
C924 H906 0.951 . S
C924 C925 1.366 . S
C924 C926 1.388 . S
C925 C924 1.366 . S
C925 C929 1.385 . S
C926 H907 0.951 . S
C926 C924 1.388 . S
C926 C927 1.366 . S
C927 C926 1.366 . S
C927 C928 1.414 . S
C927 C930 1.499 . S
C928 H908 0.950 . S
C928 C927 1.414 . S
C928 C929 1.374 . S
C929 H909 0.950 . S
C929 C925 1.385 . S
C929 C928 1.374 . S
C930 C927 1.499 . S
C930 C931 1.373 . S
C930 C932 1.389 . S
C931 H910 0.950 . S
C931 C930 1.373 . S
C931 C947 1.377 . S
C932 C930 1.389 . S
C932 C933 1.524 . S
C932 C946 1.377 . S
C933 C932 1.524 . S
C933 C934 1.397 . S
C933 C938 1.363 . S
C934 H911 0.950 . S
C934 C933 1.397 . S
C934 C935 1.334 . S
C935 H912 0.950 . S
C935 C934 1.334 . S
C935 C936 1.287 . S
C936 C935 1.287 . S
C936 C937 1.524 . S
C936 H955 0.913 . S
C937 H913 0.950 . S
C937 C936 1.524 . S
C937 C938 1.415 . S
C938 H914 0.950 . S
C938 C933 1.363 . S
C938 C937 1.415 . S
C939 H915 0.951 . S
C939 C940 1.366 . S
C939 C941 1.388 . S
C940 C939 1.366 . S
C940 C944 1.385 . S
C941 H916 0.951 . S
C941 C939 1.388 . S
C941 C942 1.366 . S
C942 C941 1.366 . S
C942 C943 1.414 . S
C942 C945 1.499 . S
C943 H917 0.950 . S
C943 C942 1.414 . S
C943 C944 1.374 . S
C944 H918 0.950 . S
C944 C940 1.385 . S
C944 C943 1.374 . S
C945 C942 1.499 . S
C945 C946 1.373 . S
C945 C947 1.389 . S
C946 H919 0.950 . S
C946 C932 1.377 . S
C946 C945 1.373 . S
C947 C931 1.377 . S
C947 C945 1.389 . S
C947 C948 1.524 . S
C948 C947 1.524 . S
C948 C949 1.397 . S
C948 C953 1.363 . S
C949 H920 0.950 . S
C949 C948 1.397 . S
C949 C950 1.334 . S
C950 H921 0.950 . S
C950 C949 1.334 . S
C950 C951 1.287 . S
C951 C950 1.287 . S
C951 C952 1.524 . S
C951 H954 0.999 . S
C952 H922 0.950 . S
C952 C951 1.524 . S
C952 C953 1.415 . S
C953 H923 0.950 . S
C953 C948 1.363 . S
C953 C952 1.415 . S
H954 C951 0.999 . S
H955 C936 0.913 . S
H956 C974 0.951 . S
H957 C976 0.951 . S
H958 C978 0.950 . S
H959 C979 0.950 . S
H960 C981 0.950 . S
H961 C984 0.950 . S
H962 C985 0.950 . S
H963 C987 0.950 . S
H964 C988 0.950 . S
H965 C989 0.951 . S
H966 C991 0.951 . S
H967 C993 0.950 . S
H968 C994 0.950 . S
H969 C996 0.950 . S
H970 C999 0.950 . S
H971 C1000 0.950 . S
H972 C1002 0.950 . S
H973 C1003 0.950 . S
C974 H956 0.951 . S
C974 C975 1.366 . S
C974 C976 1.388 . S
C975 C974 1.366 . S
C975 C979 1.385 . S
C976 H957 0.951 . S
C976 C974 1.388 . S
C976 C977 1.366 . S
C977 C976 1.366 . S
C977 C978 1.414 . S
C977 C980 1.499 . S
C978 H958 0.950 . S
C978 C977 1.414 . S
C978 C979 1.374 . S
C979 H959 0.950 . S
C979 C975 1.385 . S
C979 C978 1.374 . S
C980 C977 1.499 . S
C980 C981 1.373 . S
C980 C982 1.389 . S
C981 H960 0.950 . S
C981 C980 1.373 . S
C981 C997 1.377 . S
C982 C980 1.389 . S
C982 C983 1.524 . S
C982 C996 1.377 . S
C983 C982 1.524 . S
C983 C984 1.397 . S
C983 C988 1.363 . S
C984 H961 0.950 . S
C984 C983 1.397 . S
C984 C985 1.334 . S
C985 H962 0.950 . S
C985 C984 1.334 . S
C985 C986 1.287 . S
C986 C985 1.287 . S
C986 C987 1.524 . S
C986 H1005 0.913 . S
C987 H963 0.950 . S
C987 C986 1.524 . S
C987 C988 1.415 . S
C988 H964 0.950 . S
C988 C983 1.363 . S
C988 C987 1.415 . S
C989 H965 0.951 . S
C989 C990 1.366 . S
C989 C991 1.388 . S
C990 C989 1.366 . S
C990 C994 1.385 . S
C991 H966 0.951 . S
C991 C989 1.388 . S
C991 C992 1.366 . S
C992 C991 1.366 . S
C992 C993 1.414 . S
C992 C995 1.499 . S
C993 H967 0.950 . S
C993 C992 1.414 . S
C993 C994 1.374 . S
C994 H968 0.950 . S
C994 C990 1.385 . S
C994 C993 1.374 . S
C995 C992 1.499 . S
C995 C996 1.373 . S
C995 C997 1.389 . S
C996 H969 0.950 . S
C996 C982 1.377 . S
C996 C995 1.373 . S
C997 C981 1.377 . S
C997 C995 1.389 . S
C997 C998 1.524 . S
C998 C997 1.524 . S
C998 C999 1.397 . S
C998 C1003 1.363 . S
C999 H970 0.950 . S
C999 C998 1.397 . S
C999 C1000 1.334 . S
C1000 H971 0.950 . S
C1000 C999 1.334 . S
C1000 C1001 1.287 . S
C1001 C1000 1.287 . S
C1001 C1002 1.524 . S
C1001 H1004 0.999 . S
C1002 H972 0.950 . S
C1002 C1001 1.524 . S
C1002 C1003 1.415 . S
C1003 H973 0.950 . S
C1003 C998 1.363 . S
C1003 C1002 1.415 . S
H1004 C1001 0.999 . S
H1005 C986 0.913 . S
H1006 C1024 0.951 . S
H1007 C1026 0.951 . S
H1008 C1028 0.950 . S
H1009 C1029 0.950 . S
H1010 C1031 0.950 . S
H1011 C1034 0.950 . S
H1012 C1035 0.950 . S
H1013 C1037 0.950 . S
H1014 C1038 0.950 . S
H1015 C1039 0.951 . S
H1016 C1041 0.951 . S
H1017 C1043 0.950 . S
H1018 C1044 0.950 . S
H1019 C1046 0.950 . S
H1020 C1049 0.950 . S
H1021 C1050 0.950 . S
H1022 C1052 0.950 . S
H1023 C1053 0.950 . S
C1024 H1006 0.951 . S
C1024 C1025 1.366 . S
C1024 C1026 1.388 . S
C1025 C1024 1.366 . S
C1025 C1029 1.385 . S
C1026 H1007 0.951 . S
C1026 C1024 1.388 . S
C1026 C1027 1.366 . S
C1027 C1026 1.366 . S
C1027 C1028 1.414 . S
C1027 C1030 1.499 . S
C1028 H1008 0.950 . S
C1028 C1027 1.414 . S
C1028 C1029 1.374 . S
C1029 H1009 0.950 . S
C1029 C1025 1.385 . S
C1029 C1028 1.374 . S
C1030 C1027 1.499 . S
C1030 C1031 1.373 . S
C1030 C1032 1.389 . S
C1031 H1010 0.950 . S
C1031 C1030 1.373 . S
C1031 C1047 1.377 . S
C1032 C1030 1.389 . S
C1032 C1033 1.524 . S
C1032 C1046 1.377 . S
C1033 C1032 1.524 . S
C1033 C1034 1.397 . S
C1033 C1038 1.363 . S
C1034 H1011 0.950 . S
C1034 C1033 1.397 . S
C1034 C1035 1.334 . S
C1035 H1012 0.950 . S
C1035 C1034 1.334 . S
C1035 C1036 1.287 . S
C1036 C1035 1.287 . S
C1036 C1037 1.524 . S
C1036 H1055 0.913 . S
C1037 H1013 0.950 . S
C1037 C1036 1.524 . S
C1037 C1038 1.415 . S
C1038 H1014 0.950 . S
C1038 C1033 1.363 . S
C1038 C1037 1.415 . S
C1039 H1015 0.951 . S
C1039 C1040 1.366 . S
C1039 C1041 1.388 . S
C1040 C1039 1.366 . S
C1040 C1044 1.385 . S
C1041 H1016 0.951 . S
C1041 C1039 1.388 . S
C1041 C1042 1.366 . S
C1042 C1041 1.366 . S
C1042 C1043 1.414 . S
C1042 C1045 1.499 . S
C1043 H1017 0.950 . S
C1043 C1042 1.414 . S
C1043 C1044 1.374 . S
C1044 H1018 0.950 . S
C1044 C1040 1.385 . S
C1044 C1043 1.374 . S
C1045 C1042 1.499 . S
C1045 C1046 1.373 . S
C1045 C1047 1.389 . S
C1046 H1019 0.950 . S
C1046 C1032 1.377 . S
C1046 C1045 1.373 . S
C1047 C1031 1.377 . S
C1047 C1045 1.389 . S
C1047 C1048 1.524 . S
C1048 C1047 1.524 . S
C1048 C1049 1.397 . S
C1048 C1053 1.363 . S
C1049 H1020 0.950 . S
C1049 C1048 1.397 . S
C1049 C1050 1.334 . S
C1050 H1021 0.950 . S
C1050 C1049 1.334 . S
C1050 C1051 1.287 . S
C1051 C1050 1.287 . S
C1051 C1052 1.524 . S
C1051 H1054 0.999 . S
C1052 H1022 0.950 . S
C1052 C1051 1.524 . S
C1052 C1053 1.415 . S
C1053 H1023 0.950 . S
C1053 C1048 1.363 . S
C1053 C1052 1.415 . S
H1054 C1051 0.999 . S
H1055 C1036 0.913 . S
H1056 C1074 0.951 . S
H1057 C1076 0.951 . S
H1058 C1078 0.950 . S
H1059 C1079 0.950 . S
H1060 C1081 0.950 . S
H1061 C1084 0.950 . S
H1062 C1085 0.950 . S
H1063 C1087 0.950 . S
H1064 C1088 0.950 . S
H1065 C1089 0.951 . S
H1066 C1091 0.951 . S
H1067 C1093 0.950 . S
H1068 C1094 0.950 . S
H1069 C1096 0.950 . S
H1070 C1099 0.950 . S
H1071 C1100 0.950 . S
H1072 C1102 0.950 . S
H1073 C1103 0.950 . S
C1074 H1056 0.951 . S
C1074 C1075 1.366 . S
C1074 C1076 1.388 . S
C1075 C1074 1.366 . S
C1075 C1079 1.385 . S
C1076 H1057 0.951 . S
C1076 C1074 1.388 . S
C1076 C1077 1.366 . S
C1077 C1076 1.366 . S
C1077 C1078 1.414 . S
C1077 C1080 1.499 . S
C1078 H1058 0.950 . S
C1078 C1077 1.414 . S
C1078 C1079 1.374 . S
C1079 H1059 0.950 . S
C1079 C1075 1.385 . S
C1079 C1078 1.374 . S
C1080 C1077 1.499 . S
C1080 C1081 1.373 . S
C1080 C1082 1.389 . S
C1081 H1060 0.950 . S
C1081 C1080 1.373 . S
C1081 C1097 1.377 . S
C1082 C1080 1.389 . S
C1082 C1083 1.524 . S
C1082 C1096 1.377 . S
C1083 C1082 1.524 . S
C1083 C1084 1.397 . S
C1083 C1088 1.363 . S
C1084 H1061 0.950 . S
C1084 C1083 1.397 . S
C1084 C1085 1.334 . S
C1085 H1062 0.950 . S
C1085 C1084 1.334 . S
C1085 C1086 1.287 . S
C1086 C1085 1.287 . S
C1086 C1087 1.524 . S
C1086 H1105 0.913 . S
C1087 H1063 0.950 . S
C1087 C1086 1.524 . S
C1087 C1088 1.415 . S
C1088 H1064 0.950 . S
C1088 C1083 1.363 . S
C1088 C1087 1.415 . S
C1089 H1065 0.951 . S
C1089 C1090 1.366 . S
C1089 C1091 1.388 . S
C1090 C1089 1.366 . S
C1090 C1094 1.385 . S
C1091 H1066 0.951 . S
C1091 C1089 1.388 . S
C1091 C1092 1.366 . S
C1092 C1091 1.366 . S
C1092 C1093 1.414 . S
C1092 C1095 1.499 . S
C1093 H1067 0.950 . S
C1093 C1092 1.414 . S
C1093 C1094 1.374 . S
C1094 H1068 0.950 . S
C1094 C1090 1.385 . S
C1094 C1093 1.374 . S
C1095 C1092 1.499 . S
C1095 C1096 1.373 . S
C1095 C1097 1.389 . S
C1096 H1069 0.950 . S
C1096 C1082 1.377 . S
C1096 C1095 1.373 . S
C1097 C1081 1.377 . S
C1097 C1095 1.389 . S
C1097 C1098 1.524 . S
C1098 C1097 1.524 . S
C1098 C1099 1.397 . S
C1098 C1103 1.363 . S
C1099 H1070 0.950 . S
C1099 C1098 1.397 . S
C1099 C1100 1.334 . S
C1100 H1071 0.950 . S
C1100 C1099 1.334 . S
C1100 C1101 1.287 . S
C1101 C1100 1.287 . S
C1101 C1102 1.524 . S
C1101 H1104 0.999 . S
C1102 H1072 0.950 . S
C1102 C1101 1.524 . S
C1102 C1103 1.415 . S
C1103 H1073 0.950 . S
C1103 C1098 1.363 . S
C1103 C1102 1.415 . S
H1104 C1101 0.999 . S
H1105 C1086 0.913 . S
H1106 C1124 0.951 . S
H1107 C1126 0.951 . S
H1108 C1128 0.950 . S
H1109 C1129 0.950 . S
H1110 C1131 0.950 . S
H1111 C1134 0.950 . S
H1112 C1135 0.950 . S
H1113 C1137 0.950 . S
H1114 C1138 0.950 . S
H1115 C1139 0.951 . S
H1116 C1141 0.951 . S
H1117 C1143 0.950 . S
H1118 C1144 0.950 . S
H1119 C1146 0.950 . S
H1120 C1149 0.950 . S
H1121 C1150 0.950 . S
H1122 C1152 0.950 . S
H1123 C1153 0.950 . S
C1124 H1106 0.951 . S
C1124 C1125 1.366 . S
C1124 C1126 1.388 . S
C1125 C1124 1.366 . S
C1125 C1129 1.385 . S
C1126 H1107 0.951 . S
C1126 C1124 1.388 . S
C1126 C1127 1.366 . S
C1127 C1126 1.366 . S
C1127 C1128 1.414 . S
C1127 C1130 1.499 . S
C1128 H1108 0.950 . S
C1128 C1127 1.414 . S
C1128 C1129 1.374 . S
C1129 H1109 0.950 . S
C1129 C1125 1.385 . S
C1129 C1128 1.374 . S
C1130 C1127 1.499 . S
C1130 C1131 1.373 . S
C1130 C1132 1.389 . S
C1131 H1110 0.950 . S
C1131 C1130 1.373 . S
C1131 C1147 1.377 . S
C1132 C1130 1.389 . S
C1132 C1133 1.524 . S
C1132 C1146 1.377 . S
C1133 C1132 1.524 . S
C1133 C1134 1.397 . S
C1133 C1138 1.363 . S
C1134 H1111 0.950 . S
C1134 C1133 1.397 . S
C1134 C1135 1.334 . S
C1135 H1112 0.950 . S
C1135 C1134 1.334 . S
C1135 C1136 1.287 . S
C1136 C1135 1.287 . S
C1136 C1137 1.524 . S
C1136 H1155 0.913 . S
C1137 H1113 0.950 . S
C1137 C1136 1.524 . S
C1137 C1138 1.415 . S
C1138 H1114 0.950 . S
C1138 C1133 1.363 . S
C1138 C1137 1.415 . S
C1139 H1115 0.951 . S
C1139 C1140 1.366 . S
C1139 C1141 1.388 . S
C1140 C1139 1.366 . S
C1140 C1144 1.385 . S
C1141 H1116 0.951 . S
C1141 C1139 1.388 . S
C1141 C1142 1.366 . S
C1142 C1141 1.366 . S
C1142 C1143 1.414 . S
C1142 C1145 1.499 . S
C1143 H1117 0.950 . S
C1143 C1142 1.414 . S
C1143 C1144 1.374 . S
C1144 H1118 0.950 . S
C1144 C1140 1.385 . S
C1144 C1143 1.374 . S
C1145 C1142 1.499 . S
C1145 C1146 1.373 . S
C1145 C1147 1.389 . S
C1146 H1119 0.950 . S
C1146 C1132 1.377 . S
C1146 C1145 1.373 . S
C1147 C1131 1.377 . S
C1147 C1145 1.389 . S
C1147 C1148 1.524 . S
C1148 C1147 1.524 . S
C1148 C1149 1.397 . S
C1148 C1153 1.363 . S
C1149 H1120 0.950 . S
C1149 C1148 1.397 . S
C1149 C1150 1.334 . S
C1150 H1121 0.950 . S
C1150 C1149 1.334 . S
C1150 C1151 1.287 . S
C1151 C1150 1.287 . S
C1151 C1152 1.524 . S
C1151 H1154 0.999 . S
C1152 H1122 0.950 . S
C1152 C1151 1.524 . S
C1152 C1153 1.415 . S
C1153 H1123 0.950 . S
C1153 C1148 1.363 . S
C1153 C1152 1.415 . S
H1154 C1151 0.999 . S
H1155 C1136 0.913 . S
H1156 C1174 0.951 . S
H1157 C1176 0.951 . S
H1158 C1178 0.950 . S
H1159 C1179 0.950 . S
H1160 C1181 0.950 . S
H1161 C1184 0.950 . S
H1162 C1185 0.950 . S
H1163 C1187 0.950 . S
H1164 C1188 0.950 . S
H1165 C1189 0.951 . S
H1166 C1191 0.951 . S
H1167 C1193 0.950 . S
H1168 C1194 0.950 . S
H1169 C1196 0.950 . S
H1170 C1199 0.950 . S
H1171 C1200 0.950 . S
H1172 C1202 0.950 . S
H1173 C1203 0.950 . S
C1174 H1156 0.951 . S
C1174 C1175 1.366 . S
C1174 C1176 1.388 . S
C1175 C1174 1.366 . S
C1175 C1179 1.385 . S
C1176 H1157 0.951 . S
C1176 C1174 1.388 . S
C1176 C1177 1.366 . S
C1177 C1176 1.366 . S
C1177 C1178 1.414 . S
C1177 C1180 1.499 . S
C1178 H1158 0.950 . S
C1178 C1177 1.414 . S
C1178 C1179 1.374 . S
C1179 H1159 0.950 . S
C1179 C1175 1.385 . S
C1179 C1178 1.374 . S
C1180 C1177 1.499 . S
C1180 C1181 1.373 . S
C1180 C1182 1.389 . S
C1181 H1160 0.950 . S
C1181 C1180 1.373 . S
C1181 C1197 1.377 . S
C1182 C1180 1.389 . S
C1182 C1183 1.524 . S
C1182 C1196 1.377 . S
C1183 C1182 1.524 . S
C1183 C1184 1.397 . S
C1183 C1188 1.363 . S
C1184 H1161 0.950 . S
C1184 C1183 1.397 . S
C1184 C1185 1.334 . S
C1185 H1162 0.950 . S
C1185 C1184 1.334 . S
C1185 C1186 1.287 . S
C1186 C1185 1.287 . S
C1186 C1187 1.524 . S
C1186 H1205 0.913 . S
C1187 H1163 0.950 . S
C1187 C1186 1.524 . S
C1187 C1188 1.415 . S
C1188 H1164 0.950 . S
C1188 C1183 1.363 . S
C1188 C1187 1.415 . S
C1189 H1165 0.951 . S
C1189 C1190 1.366 . S
C1189 C1191 1.388 . S
C1190 C1189 1.366 . S
C1190 C1194 1.385 . S
C1191 H1166 0.951 . S
C1191 C1189 1.388 . S
C1191 C1192 1.366 . S
C1192 C1191 1.366 . S
C1192 C1193 1.414 . S
C1192 C1195 1.499 . S
C1193 H1167 0.950 . S
C1193 C1192 1.414 . S
C1193 C1194 1.374 . S
C1194 H1168 0.950 . S
C1194 C1190 1.385 . S
C1194 C1193 1.374 . S
C1195 C1192 1.499 . S
C1195 C1196 1.373 . S
C1195 C1197 1.389 . S
C1196 H1169 0.950 . S
C1196 C1182 1.377 . S
C1196 C1195 1.373 . S
C1197 C1181 1.377 . S
C1197 C1195 1.389 . S
C1197 C1198 1.524 . S
C1198 C1197 1.524 . S
C1198 C1199 1.397 . S
C1198 C1203 1.363 . S
C1199 H1170 0.950 . S
C1199 C1198 1.397 . S
C1199 C1200 1.334 . S
C1200 H1171 0.950 . S
C1200 C1199 1.334 . S
C1200 C1201 1.287 . S
C1201 C1200 1.287 . S
C1201 C1202 1.524 . S
C1201 H1204 0.999 . S
C1202 H1172 0.950 . S
C1202 C1201 1.524 . S
C1202 C1203 1.415 . S
C1203 H1173 0.950 . S
C1203 C1198 1.363 . S
C1203 C1202 1.415 . S
H1204 C1201 0.999 . S
H1205 C1186 0.913 . S
H1206 C1224 0.972 . S
H1207 C1226 0.951 . S
H1208 C1228 0.950 . S
H1209 C1229 0.950 . S
H1210 C1231 0.950 . S
H1211 C1234 0.950 . S
H1212 C1235 0.950 . S
H1213 C1237 0.950 . S
H1214 C1238 0.950 . S
H1215 C1239 0.951 . S
H1216 C1241 0.951 . S
H1217 C1243 0.950 . S
H1218 C1244 0.950 . S
H1219 C1246 0.950 . S
H1220 C1249 0.950 . S
H1221 C1250 0.950 . S
H1222 C1252 0.950 . S
H1223 C1253 0.950 . S
C1224 H1206 0.972 . S
C1224 C1225 1.339 1_455 S
C1224 C1226 1.395 . S
C1225 C1224 1.339 1_655 S
C1225 C1229 1.385 . S
C1226 H1207 0.951 . S
C1226 C1224 1.395 . S
C1226 C1227 1.366 . S
C1227 C1226 1.366 . S
C1227 C1228 1.414 1_455 S
C1227 C1230 1.499 . S
C1228 H1208 0.950 . S
C1228 C1227 1.414 1_655 S
C1228 C1229 1.374 . S
C1229 H1209 0.950 . S
C1229 C1225 1.385 . S
C1229 C1228 1.374 . S
C1230 C1227 1.499 . S
C1230 C1231 1.373 1_455 S
C1230 C1232 1.389 . S
C1231 H1210 0.950 . S
C1231 C1230 1.373 1_655 S
C1231 C1247 1.377 . S
C1232 C1230 1.389 . S
C1232 C1233 1.524 . S
C1232 C1246 1.377 . S
C1233 C1232 1.524 . S
C1233 C1234 1.397 . S
C1233 C1238 1.363 . S
C1234 H1211 0.950 . S
C1234 C1233 1.397 . S
C1234 C1235 1.334 . S
C1235 H1212 0.950 . S
C1235 C1234 1.334 . S
C1235 C1236 1.287 . S
C1236 C1235 1.287 . S
C1236 C1237 1.524 . S
C1236 H1255 0.913 . S
C1237 H1213 0.950 . S
C1237 C1236 1.524 . S
C1237 C1238 1.415 . S
C1238 H1214 0.950 . S
C1238 C1233 1.363 . S
C1238 C1237 1.415 . S
C1239 H1215 0.951 . S
C1239 C1240 1.366 . S
C1239 C1241 1.388 . S
C1240 C1239 1.366 . S
C1240 C1244 1.385 . S
C1241 H1216 0.951 . S
C1241 C1239 1.388 . S
C1241 C1242 1.366 . S
C1242 C1241 1.366 . S
C1242 C1243 1.414 . S
C1242 C1245 1.499 . S
C1243 H1217 0.950 . S
C1243 C1242 1.414 . S
C1243 C1244 1.374 . S
C1244 H1218 0.950 . S
C1244 C1240 1.385 . S
C1244 C1243 1.374 . S
C1245 C1242 1.499 . S
C1245 C1246 1.373 . S
C1245 C1247 1.389 1_455 S
C1246 H1219 0.950 . S
C1246 C1232 1.377 . S
C1246 C1245 1.373 . S
C1247 C1231 1.377 . S
C1247 C1245 1.389 1_655 S
C1247 C1248 1.524 . S
C1248 C1247 1.524 . S
C1248 C1249 1.397 . S
C1248 C1253 1.363 . S
C1249 H1220 0.950 . S
C1249 C1248 1.397 . S
C1249 C1250 1.334 . S
C1250 H1221 0.950 . S
C1250 C1249 1.334 . S
C1250 C1251 1.287 . S
C1251 C1250 1.287 . S
C1251 C1252 1.524 . S
C1251 H1254 0.999 . S
C1252 H1222 0.950 . S
C1252 C1251 1.524 . S
C1252 C1253 1.415 . S
C1253 H1223 0.950 . S
C1253 C1248 1.363 . S
C1253 C1252 1.415 . S
H1254 C1251 0.999 . S
H1255 C1236 0.913 . S
H1256 C1274 0.951 . S
H1257 C1276 0.951 . S
H1258 C1278 0.950 . S
H1259 C1279 0.950 . S
H1260 C1281 0.950 . S
H1261 C1284 0.950 . S
H1262 C1285 0.950 . S
H1263 C1287 0.950 . S
H1264 C1288 0.950 . S
H1265 C1289 0.951 . S
H1266 C1291 0.951 . S
H1267 C1293 0.950 . S
H1268 C1294 0.950 . S
H1269 C1296 0.950 . S
H1270 C1299 0.950 . S
H1271 C1300 0.950 . S
H1272 C1302 0.950 . S
H1273 C1303 0.950 . S
C1274 H1256 0.951 . S
C1274 C1275 1.366 . S
C1274 C1276 1.388 . S
C1275 C1274 1.366 . S
C1275 C1279 1.385 . S
C1276 H1257 0.951 . S
C1276 C1274 1.388 . S
C1276 C1277 1.366 . S
C1277 C1276 1.366 . S
C1277 C1278 1.414 . S
C1277 C1280 1.499 . S
C1278 H1258 0.950 . S
C1278 C1277 1.414 . S
C1278 C1279 1.374 . S
C1279 H1259 0.950 . S
C1279 C1275 1.385 . S
C1279 C1278 1.374 . S
C1280 C1277 1.499 . S
C1280 C1281 1.373 . S
C1280 C1282 1.389 . S
C1281 H1260 0.950 . S
C1281 C1280 1.373 . S
C1281 C1297 1.377 . S
C1282 C1280 1.389 . S
C1282 C1283 1.524 . S
C1282 C1296 1.377 . S
C1283 C1282 1.524 . S
C1283 C1284 1.397 . S
C1283 C1288 1.363 . S
C1284 H1261 0.950 . S
C1284 C1283 1.397 . S
C1284 C1285 1.334 . S
C1285 H1262 0.950 . S
C1285 C1284 1.334 . S
C1285 C1286 1.287 . S
C1286 C1285 1.287 . S
C1286 C1287 1.524 . S
C1286 H1305 0.913 . S
C1287 H1263 0.950 . S
C1287 C1286 1.524 . S
C1287 C1288 1.415 . S
C1288 H1264 0.950 . S
C1288 C1283 1.363 . S
C1288 C1287 1.415 . S
C1289 H1265 0.951 . S
C1289 C1290 1.366 . S
C1289 C1291 1.388 . S
C1290 C1289 1.366 . S
C1290 C1294 1.385 . S
C1291 H1266 0.951 . S
C1291 C1289 1.388 . S
C1291 C1292 1.366 . S
C1292 C1291 1.366 . S
C1292 C1293 1.414 . S
C1292 C1295 1.499 . S
C1293 H1267 0.950 . S
C1293 C1292 1.414 . S
C1293 C1294 1.374 . S
C1294 H1268 0.950 . S
C1294 C1290 1.385 . S
C1294 C1293 1.374 . S
C1295 C1292 1.499 . S
C1295 C1296 1.373 . S
C1295 C1297 1.389 . S
C1296 H1269 0.950 . S
C1296 C1282 1.377 . S
C1296 C1295 1.373 . S
C1297 C1281 1.377 . S
C1297 C1295 1.389 . S
C1297 C1298 1.524 . S
C1298 C1297 1.524 . S
C1298 C1299 1.397 . S
C1298 C1303 1.363 . S
C1299 H1270 0.950 . S
C1299 C1298 1.397 . S
C1299 C1300 1.334 . S
C1300 H1271 0.950 . S
C1300 C1299 1.334 . S
C1300 C1301 1.287 . S
C1301 C1300 1.287 . S
C1301 C1302 1.524 . S
C1301 H1304 0.999 . S
C1302 H1272 0.950 . S
C1302 C1301 1.524 . S
C1302 C1303 1.415 . S
C1303 H1273 0.950 . S
C1303 C1298 1.363 . S
C1303 C1302 1.415 . S
H1304 C1301 0.999 . S
H1305 C1286 0.913 . S
H1306 C1324 0.951 1_565 S
H1307 C1326 0.951 . S
H1308 C1328 0.950 . S
H1309 C1329 0.950 . S
H1310 C1331 0.950 . S
H1311 C1334 0.950 . S
H1312 C1335 0.950 . S
H1313 C1337 0.950 . S
H1314 C1338 0.950 . S
H1315 C1339 0.951 . S
H1316 C1341 0.951 . S
H1317 C1343 0.950 . S
H1318 C1344 0.950 . S
H1319 C1346 0.950 . S
H1320 C1349 0.950 . S
H1321 C1350 0.950 . S
H1322 C1352 0.950 . S
H1323 C1353 0.950 . S
C1324 H1306 0.951 1_545 S
C1324 C1325 1.366 . S
C1324 C1326 1.388 1_545 S
C1325 C1324 1.366 . S
C1325 C1329 1.385 . S
C1326 H1307 0.951 . S
C1326 C1324 1.388 1_565 S
C1326 C1327 1.366 1_565 S
C1327 C1326 1.366 1_545 S
C1327 C1328 1.414 . S
C1327 C1330 1.499 . S
C1328 H1308 0.950 . S
C1328 C1327 1.414 . S
C1328 C1329 1.374 . S
C1329 H1309 0.950 . S
C1329 C1325 1.385 . S
C1329 C1328 1.374 . S
C1330 C1327 1.499 . S
C1330 C1331 1.373 . S
C1330 C1332 1.389 1_545 S
C1331 H1310 0.950 . S
C1331 C1330 1.373 . S
C1331 C1347 1.377 . S
C1332 C1330 1.389 1_565 S
C1332 C1333 1.524 . S
C1332 C1346 1.377 . S
C1333 C1332 1.524 . S
C1333 C1334 1.397 . S
C1333 C1338 1.363 . S
C1334 H1311 0.950 . S
C1334 C1333 1.397 . S
C1334 C1335 1.334 . S
C1335 H1312 0.950 . S
C1335 C1334 1.334 . S
C1335 C1336 1.287 . S
C1336 C1335 1.287 . S
C1336 C1337 1.524 . S
C1336 H1355 0.913 . S
C1337 H1313 0.950 . S
C1337 C1336 1.524 . S
C1337 C1338 1.415 . S
C1338 H1314 0.950 . S
C1338 C1333 1.363 . S
C1338 C1337 1.415 . S
C1339 H1315 0.951 . S
C1339 C1340 1.366 1_545 S
C1339 C1341 1.388 . S
C1340 C1339 1.366 1_565 S
C1340 C1344 1.385 . S
C1341 H1316 0.951 . S
C1341 C1339 1.388 . S
C1341 C1342 1.366 1_545 S
C1342 C1341 1.366 1_565 S
C1342 C1343 1.414 . S
C1342 C1345 1.499 1_565 S
C1343 H1317 0.950 . S
C1343 C1342 1.414 . S
C1343 C1344 1.374 . S
C1344 H1318 0.950 . S
C1344 C1340 1.385 . S
C1344 C1343 1.374 . S
C1345 C1342 1.499 1_545 S
C1345 C1346 1.373 1_545 S
C1345 C1347 1.389 . S
C1346 H1319 0.950 . S
C1346 C1332 1.377 . S
C1346 C1345 1.373 1_565 S
C1347 C1331 1.377 . S
C1347 C1345 1.389 . S
C1347 C1348 1.524 . S
C1348 C1347 1.524 . S
C1348 C1349 1.397 . S
C1348 C1353 1.363 . S
C1349 H1320 0.950 . S
C1349 C1348 1.397 . S
C1349 C1350 1.334 . S
C1350 H1321 0.950 . S
C1350 C1349 1.334 . S
C1350 C1351 1.287 . S
C1351 C1350 1.287 . S
C1351 C1352 1.524 . S
C1351 H1354 0.999 . S
C1352 H1322 0.950 . S
C1352 C1351 1.524 . S
C1352 C1353 1.415 . S
C1353 H1323 0.950 . S
C1353 C1348 1.363 . S
C1353 C1352 1.415 . S
H1354 C1351 0.999 . S
H1355 C1336 0.913 . S
H1356 C1374 0.951 . S
H1357 C1376 0.951 . S
H1358 C1378 0.950 . S
H1359 C1379 0.950 . S
H1360 C1381 0.950 . S
H1361 C1384 0.950 . S
H1362 C1385 0.950 . S
H1363 C1387 0.950 . S
H1364 C1388 0.950 . S
H1365 C1389 0.951 . S
H1366 C1391 0.951 . S
H1367 C1393 0.950 . S
H1368 C1394 0.950 . S
H1369 C1396 0.950 . S
H1370 C1399 0.950 . S
H1371 C1400 0.950 . S
H1372 C1402 0.950 . S
H1373 C1403 0.950 . S
C1374 H1356 0.951 . S
C1374 C1375 1.366 . S
C1374 C1376 1.388 . S
C1375 C1374 1.366 . S
C1375 C1379 1.385 . S
C1376 H1357 0.951 . S
C1376 C1374 1.388 . S
C1376 C1377 1.366 . S
C1377 C1376 1.366 . S
C1377 C1378 1.414 . S
C1377 C1380 1.499 . S
C1378 H1358 0.950 . S
C1378 C1377 1.414 . S
C1378 C1379 1.374 . S
C1379 H1359 0.950 . S
C1379 C1375 1.385 . S
C1379 C1378 1.374 . S
C1380 C1377 1.499 . S
C1380 C1381 1.373 . S
C1380 C1382 1.389 . S
C1381 H1360 0.950 . S
C1381 C1380 1.373 . S
C1381 C1397 1.377 . S
C1382 C1380 1.389 . S
C1382 C1383 1.524 . S
C1382 C1396 1.377 . S
C1383 C1382 1.524 . S
C1383 C1384 1.397 . S
C1383 C1388 1.363 . S
C1384 H1361 0.950 . S
C1384 C1383 1.397 . S
C1384 C1385 1.334 . S
C1385 H1362 0.950 . S
C1385 C1384 1.334 . S
C1385 C1386 1.287 . S
C1386 C1385 1.287 . S
C1386 C1387 1.524 . S
C1386 H1405 0.913 . S
C1387 H1363 0.950 . S
C1387 C1386 1.524 . S
C1387 C1388 1.415 . S
C1388 H1364 0.950 . S
C1388 C1383 1.363 . S
C1388 C1387 1.415 . S
C1389 H1365 0.951 . S
C1389 C1390 1.366 . S
C1389 C1391 1.388 1_554 S
C1390 C1389 1.366 . S
C1390 C1394 1.385 . S
C1391 H1366 0.951 . S
C1391 C1389 1.388 1_556 S
C1391 C1392 1.366 . S
C1392 C1391 1.366 . S
C1392 C1393 1.414 . S
C1392 C1395 1.499 . S
C1393 H1367 0.950 . S
C1393 C1392 1.414 . S
C1393 C1394 1.374 1_556 S
C1394 H1368 0.950 . S
C1394 C1390 1.385 . S
C1394 C1393 1.374 1_554 S
C1395 C1392 1.499 . S
C1395 C1396 1.373 . S
C1395 C1397 1.389 . S
C1396 H1369 0.950 . S
C1396 C1382 1.377 . S
C1396 C1395 1.373 . S
C1397 C1381 1.377 . S
C1397 C1395 1.389 . S
C1397 C1398 1.524 . S
C1398 C1397 1.524 . S
C1398 C1399 1.397 . S
C1398 C1403 1.363 . S
C1399 H1370 0.950 . S
C1399 C1398 1.397 . S
C1399 C1400 1.334 . S
C1400 H1371 0.950 . S
C1400 C1399 1.334 . S
C1400 C1401 1.287 . S
C1401 C1400 1.287 . S
C1401 C1402 1.524 . S
C1401 H1404 0.999 . S
C1402 H1372 0.950 . S
C1402 C1401 1.524 . S
C1402 C1403 1.415 . S
C1403 H1373 0.950 . S
C1403 C1398 1.363 . S
C1403 C1402 1.415 . S
H1404 C1401 0.999 . S
H1405 C1386 0.913 . S
H1406 C1424 0.951 . S
H1407 C1426 0.951 . S
H1408 C1428 0.950 . S
H1409 C1429 0.950 . S
H1410 C1431 0.950 . S
H1411 C1434 0.950 . S
H1412 C1435 0.950 . S
H1413 C1437 0.950 . S
H1414 C1438 0.950 . S
H1415 C1439 0.951 . S
H1416 C1441 0.951 . S
H1417 C1443 0.950 . S
H1418 C1444 0.950 . S
H1419 C1446 0.950 . S
H1420 C1449 0.950 . S
H1421 C1450 0.950 . S
H1422 C1452 0.950 . S
H1423 C1453 0.950 . S
C1424 H1406 0.951 . S
C1424 C1425 1.366 . S
C1424 C1426 1.388 . S
C1425 C1424 1.366 . S
C1425 C1429 1.385 . S
C1426 H1407 0.951 . S
C1426 C1424 1.388 . S
C1426 C1427 1.366 . S
C1427 C1426 1.366 . S
C1427 C1428 1.414 . S
C1427 C1430 1.499 . S
C1428 H1408 0.950 . S
C1428 C1427 1.414 . S
C1428 C1429 1.374 . S
C1429 H1409 0.950 . S
C1429 C1425 1.385 . S
C1429 C1428 1.374 . S
C1430 C1427 1.499 . S
C1430 C1431 1.373 . S
C1430 C1432 1.389 . S
C1431 H1410 0.950 . S
C1431 C1430 1.373 . S
C1431 C1447 1.377 . S
C1432 C1430 1.389 . S
C1432 C1433 1.524 . S
C1432 C1446 1.377 . S
C1433 C1432 1.524 . S
C1433 C1434 1.397 . S
C1433 C1438 1.363 . S
C1434 H1411 0.950 . S
C1434 C1433 1.397 . S
C1434 C1435 1.334 . S
C1435 H1412 0.950 . S
C1435 C1434 1.334 . S
C1435 C1436 1.287 . S
C1436 C1435 1.287 . S
C1436 C1437 1.524 . S
C1436 H1455 0.913 . S
C1437 H1413 0.950 . S
C1437 C1436 1.524 . S
C1437 C1438 1.415 . S
C1438 H1414 0.950 . S
C1438 C1433 1.363 . S
C1438 C1437 1.415 . S
C1439 H1415 0.951 . S
C1439 C1440 1.366 . S
C1439 C1441 1.388 1_554 S
C1440 C1439 1.366 . S
C1440 C1444 1.385 . S
C1441 H1416 0.951 . S
C1441 C1439 1.388 1_556 S
C1441 C1442 1.366 . S
C1442 C1441 1.366 . S
C1442 C1443 1.414 . S
C1442 C1445 1.499 . S
C1443 H1417 0.950 . S
C1443 C1442 1.414 . S
C1443 C1444 1.374 1_556 S
C1444 H1418 0.950 . S
C1444 C1440 1.385 . S
C1444 C1443 1.374 1_554 S
C1445 C1442 1.499 . S
C1445 C1446 1.373 . S
C1445 C1447 1.389 . S
C1446 H1419 0.950 . S
C1446 C1432 1.377 . S
C1446 C1445 1.373 . S
C1447 C1431 1.377 . S
C1447 C1445 1.389 . S
C1447 C1448 1.524 . S
C1448 C1447 1.524 . S
C1448 C1449 1.397 . S
C1448 C1453 1.363 . S
C1449 H1420 0.950 . S
C1449 C1448 1.397 . S
C1449 C1450 1.334 . S
C1450 H1421 0.950 . S
C1450 C1449 1.334 . S
C1450 C1451 1.287 . S
C1451 C1450 1.287 . S
C1451 C1452 1.524 . S
C1451 H1454 0.999 . S
C1452 H1422 0.950 . S
C1452 C1451 1.524 . S
C1452 C1453 1.415 . S
C1453 H1423 0.950 . S
C1453 C1448 1.363 . S
C1453 C1452 1.415 . S
H1454 C1451 0.999 . S
H1455 C1436 0.913 . S
H1456 C1474 0.951 . S
H1457 C1476 0.951 . S
H1458 C1478 0.950 . S
H1459 C1479 0.950 . S
H1460 C1481 0.950 . S
H1461 C1484 0.950 . S
H1462 C1485 0.950 . S
H1463 C1487 0.950 . S
H1464 C1488 0.950 . S
H1465 C1489 0.951 . S
H1466 C1491 0.951 . S
H1467 C1493 0.950 . S
H1468 C1494 0.950 . S
H1469 C1496 0.950 . S
H1470 C1499 0.950 . S
H1471 C1500 0.950 . S
H1472 C1502 0.950 . S
H1473 C1503 0.950 . S
C1474 H1456 0.951 . S
C1474 C1475 1.366 . S
C1474 C1476 1.388 . S
C1475 C1474 1.366 . S
C1475 C1479 1.385 . S
C1476 H1457 0.951 . S
C1476 C1474 1.388 . S
C1476 C1477 1.366 . S
C1477 C1476 1.366 . S
C1477 C1478 1.414 . S
C1477 C1480 1.499 . S
C1478 H1458 0.950 . S
C1478 C1477 1.414 . S
C1478 C1479 1.374 . S
C1479 H1459 0.950 . S
C1479 C1475 1.385 . S
C1479 C1478 1.374 . S
C1480 C1477 1.499 . S
C1480 C1481 1.373 . S
C1480 C1482 1.389 . S
C1481 H1460 0.950 . S
C1481 C1480 1.373 . S
C1481 C1497 1.377 . S
C1482 C1480 1.389 . S
C1482 C1483 1.524 . S
C1482 C1496 1.377 . S
C1483 C1482 1.524 . S
C1483 C1484 1.397 . S
C1483 C1488 1.363 . S
C1484 H1461 0.950 . S
C1484 C1483 1.397 . S
C1484 C1485 1.334 . S
C1485 H1462 0.950 . S
C1485 C1484 1.334 . S
C1485 C1486 1.287 . S
C1486 C1485 1.287 . S
C1486 C1487 1.524 . S
C1486 H1505 0.913 . S
C1487 H1463 0.950 . S
C1487 C1486 1.524 . S
C1487 C1488 1.415 . S
C1488 H1464 0.950 . S
C1488 C1483 1.363 . S
C1488 C1487 1.415 . S
C1489 H1465 0.951 . S
C1489 C1490 1.366 . S
C1489 C1491 1.388 1_554 S
C1490 C1489 1.366 . S
C1490 C1494 1.385 . S
C1491 H1466 0.951 . S
C1491 C1489 1.388 1_556 S
C1491 C1492 1.366 . S
C1492 C1491 1.366 . S
C1492 C1493 1.414 . S
C1492 C1495 1.499 . S
C1493 H1467 0.950 . S
C1493 C1492 1.414 . S
C1493 C1494 1.374 1_556 S
C1494 H1468 0.950 . S
C1494 C1490 1.385 . S
C1494 C1493 1.374 1_554 S
C1495 C1492 1.499 . S
C1495 C1496 1.373 . S
C1495 C1497 1.389 . S
C1496 H1469 0.950 . S
C1496 C1482 1.377 . S
C1496 C1495 1.373 . S
C1497 C1481 1.377 . S
C1497 C1495 1.389 . S
C1497 C1498 1.524 . S
C1498 C1497 1.524 . S
C1498 C1499 1.397 . S
C1498 C1503 1.363 . S
C1499 H1470 0.950 . S
C1499 C1498 1.397 . S
C1499 C1500 1.334 . S
C1500 H1471 0.950 . S
C1500 C1499 1.334 . S
C1500 C1501 1.287 . S
C1501 C1500 1.287 . S
C1501 C1502 1.524 . S
C1501 H1504 0.999 . S
C1502 H1472 0.950 . S
C1502 C1501 1.524 . S
C1502 C1503 1.415 . S
C1503 H1473 0.950 . S
C1503 C1498 1.363 . S
C1503 C1502 1.415 . S
H1504 C1501 0.999 . S
H1505 C1486 0.913 . S
H1506 C1524 0.951 . S
H1507 C1526 0.951 . S
H1508 C1528 0.950 . S
H1509 C1529 0.950 . S
H1510 C1531 0.950 . S
H1511 C1534 0.950 . S
H1512 C1535 0.950 . S
H1513 C1537 0.950 . S
H1514 C1538 0.950 . S
H1515 C1539 0.951 . S
H1516 C1541 0.951 . S
H1517 C1543 0.950 . S
H1518 C1544 0.950 . S
H1519 C1546 0.950 . S
H1520 C1549 0.950 . S
H1521 C1550 0.950 . S
H1522 C1552 0.950 . S
H1523 C1553 0.950 . S
C1524 H1506 0.951 . S
C1524 C1525 1.366 . S
C1524 C1526 1.388 . S
C1525 C1524 1.366 . S
C1525 C1529 1.385 . S
C1526 H1507 0.951 . S
C1526 C1524 1.388 . S
C1526 C1527 1.366 . S
C1527 C1526 1.366 . S
C1527 C1528 1.414 . S
C1527 C1530 1.499 . S
C1528 H1508 0.950 . S
C1528 C1527 1.414 . S
C1528 C1529 1.374 . S
C1529 H1509 0.950 . S
C1529 C1525 1.385 . S
C1529 C1528 1.374 . S
C1530 C1527 1.499 . S
C1530 C1531 1.373 . S
C1530 C1532 1.389 . S
C1531 H1510 0.950 . S
C1531 C1530 1.373 . S
C1531 C1547 1.377 . S
C1532 C1530 1.389 . S
C1532 C1533 1.524 . S
C1532 C1546 1.377 . S
C1533 C1532 1.524 . S
C1533 C1534 1.397 . S
C1533 C1538 1.363 . S
C1534 H1511 0.950 . S
C1534 C1533 1.397 . S
C1534 C1535 1.334 . S
C1535 H1512 0.950 . S
C1535 C1534 1.334 . S
C1535 C1536 1.287 . S
C1536 C1535 1.287 . S
C1536 C1537 1.524 . S
C1536 H1555 0.913 . S
C1537 H1513 0.950 . S
C1537 C1536 1.524 . S
C1537 C1538 1.415 . S
C1538 H1514 0.950 . S
C1538 C1533 1.363 . S
C1538 C1537 1.415 . S
C1539 H1515 0.951 . S
C1539 C1540 1.366 . S
C1539 C1541 1.388 1_556 S
C1540 C1539 1.366 . S
C1540 C1544 1.385 . S
C1541 H1516 0.951 . S
C1541 C1539 1.388 1_554 S
C1541 C1542 1.366 . S
C1542 C1541 1.366 . S
C1542 C1543 1.414 . S
C1542 C1545 1.499 . S
C1543 H1517 0.950 . S
C1543 C1542 1.414 . S
C1543 C1544 1.374 1_554 S
C1544 H1518 0.950 . S
C1544 C1540 1.385 . S
C1544 C1543 1.374 1_556 S
C1545 C1542 1.499 . S
C1545 C1546 1.373 . S
C1545 C1547 1.389 . S
C1546 H1519 0.950 . S
C1546 C1532 1.377 . S
C1546 C1545 1.373 . S
C1547 C1531 1.377 . S
C1547 C1545 1.389 . S
C1547 C1548 1.524 . S
C1548 C1547 1.524 . S
C1548 C1549 1.397 . S
C1548 C1553 1.363 . S
C1549 H1520 0.950 . S
C1549 C1548 1.397 . S
C1549 C1550 1.334 . S
C1550 H1521 0.950 . S
C1550 C1549 1.334 . S
C1550 C1551 1.287 . S
C1551 C1550 1.287 . S
C1551 C1552 1.524 . S
C1551 H1554 0.999 . S
C1552 H1522 0.950 . S
C1552 C1551 1.524 . S
C1552 C1553 1.415 . S
C1553 H1523 0.950 . S
C1553 C1548 1.363 . S
C1553 C1552 1.415 . S
H1554 C1551 0.999 . S
H1555 C1536 0.913 . S
H1556 C1574 0.951 . S
H1557 C1576 0.951 . S
H1558 C1578 0.950 . S
H1559 C1579 0.950 . S
H1560 C1581 0.950 . S
H1561 C1584 0.950 . S
H1562 C1585 0.950 . S
H1563 C1587 0.950 . S
H1564 C1588 0.950 . S
H1565 C1589 0.951 . S
H1566 C1591 0.951 . S
H1567 C1593 0.950 . S
H1568 C1594 0.950 . S
H1569 C1596 0.950 . S
H1570 C1599 0.950 . S
H1571 C1600 0.950 . S
H1572 C1602 0.950 . S
H1573 C1603 0.950 . S
C1574 H1556 0.951 . S
C1574 C1575 1.366 . S
C1574 C1576 1.388 1_556 S
C1575 C1574 1.366 . S
C1575 C1579 1.385 . S
C1576 H1557 0.951 . S
C1576 C1574 1.388 1_554 S
C1576 C1577 1.366 . S
C1577 C1576 1.366 . S
C1577 C1578 1.414 . S
C1577 C1580 1.499 . S
C1578 H1558 0.950 . S
C1578 C1577 1.414 . S
C1578 C1579 1.374 1_554 S
C1579 H1559 0.950 . S
C1579 C1575 1.385 . S
C1579 C1578 1.374 1_556 S
C1580 C1577 1.499 . S
C1580 C1581 1.373 . S
C1580 C1582 1.389 . S
C1581 H1560 0.950 . S
C1581 C1580 1.373 . S
C1581 C1597 1.377 . S
C1582 C1580 1.389 . S
C1582 C1583 1.524 . S
C1582 C1596 1.377 . S
C1583 C1582 1.524 . S
C1583 C1584 1.397 . S
C1583 C1588 1.363 . S
C1584 H1561 0.950 . S
C1584 C1583 1.397 . S
C1584 C1585 1.334 . S
C1585 H1562 0.950 . S
C1585 C1584 1.334 . S
C1585 C1586 1.287 . S
C1586 C1585 1.287 . S
C1586 C1587 1.524 . S
C1586 H1605 0.913 . S
C1587 H1563 0.950 . S
C1587 C1586 1.524 . S
C1587 C1588 1.415 . S
C1588 H1564 0.950 . S
C1588 C1583 1.363 . S
C1588 C1587 1.415 . S
C1589 H1565 0.951 . S
C1589 C1590 1.366 . S
C1589 C1591 1.388 . S
C1590 C1589 1.366 . S
C1590 C1594 1.385 . S
C1591 H1566 0.951 . S
C1591 C1589 1.388 . S
C1591 C1592 1.366 . S
C1592 C1591 1.366 . S
C1592 C1593 1.414 . S
C1592 C1595 1.499 . S
C1593 H1567 0.950 . S
C1593 C1592 1.414 . S
C1593 C1594 1.374 . S
C1594 H1568 0.950 . S
C1594 C1590 1.385 . S
C1594 C1593 1.374 . S
C1595 C1592 1.499 . S
C1595 C1596 1.373 . S
C1595 C1597 1.389 . S
C1596 H1569 0.950 . S
C1596 C1582 1.377 . S
C1596 C1595 1.373 . S
C1597 C1581 1.377 . S
C1597 C1595 1.389 . S
C1597 C1598 1.524 . S
C1598 C1597 1.524 . S
C1598 C1599 1.397 . S
C1598 C1603 1.363 . S
C1599 H1570 0.950 . S
C1599 C1598 1.397 . S
C1599 C1600 1.334 . S
C1600 H1571 0.950 . S
C1600 C1599 1.334 . S
C1600 C1601 1.287 . S
C1601 C1600 1.287 . S
C1601 C1602 1.524 . S
C1601 H1604 0.999 . S
C1602 H1572 0.950 . S
C1602 C1601 1.524 . S
C1602 C1603 1.415 . S
C1603 H1573 0.950 . S
C1603 C1598 1.363 . S
C1603 C1602 1.415 . S
H1604 C1601 0.999 . S
H1605 C1586 0.913 . S
H1606 C1624 0.951 . S
H1607 C1626 0.951 . S
H1608 C1628 0.950 . S
H1609 C1629 0.950 . S
H1610 C1631 0.950 . S
H1611 C1634 0.950 . S
H1612 C1635 0.950 . S
H1613 C1637 0.950 . S
H1614 C1638 0.950 . S
H1615 C1639 0.951 . S
H1616 C1641 0.951 . S
H1617 C1643 0.950 . S
H1618 C1644 0.950 . S
H1619 C1646 0.950 . S
H1620 C1649 0.950 . S
H1621 C1650 0.950 . S
H1622 C1652 0.950 . S
H1623 C1653 0.950 . S
C1624 H1606 0.951 . S
C1624 C1625 1.366 . S
C1624 C1626 1.388 . S
C1625 C1624 1.366 . S
C1625 C1629 1.385 . S
C1626 H1607 0.951 . S
C1626 C1624 1.388 . S
C1626 C1627 1.366 . S
C1627 C1626 1.366 . S
C1627 C1628 1.414 . S
C1627 C1630 1.499 . S
C1628 H1608 0.950 . S
C1628 C1627 1.414 . S
C1628 C1629 1.374 . S
C1629 H1609 0.950 . S
C1629 C1625 1.385 . S
C1629 C1628 1.374 . S
C1630 C1627 1.499 . S
C1630 C1631 1.373 . S
C1630 C1632 1.389 . S
C1631 H1610 0.950 . S
C1631 C1630 1.373 . S
C1631 C1647 1.377 . S
C1632 C1630 1.389 . S
C1632 C1633 1.524 . S
C1632 C1646 1.377 . S
C1633 C1632 1.524 . S
C1633 C1634 1.397 . S
C1633 C1638 1.363 . S
C1634 H1611 0.950 . S
C1634 C1633 1.397 . S
C1634 C1635 1.334 . S
C1635 H1612 0.950 . S
C1635 C1634 1.334 . S
C1635 C1636 1.287 . S
C1636 C1635 1.287 . S
C1636 C1637 1.524 . S
C1636 H1655 0.913 . S
C1637 H1613 0.950 . S
C1637 C1636 1.524 . S
C1637 C1638 1.415 . S
C1638 H1614 0.950 . S
C1638 C1633 1.363 . S
C1638 C1637 1.415 . S
C1639 H1615 0.951 . S
C1639 C1640 1.366 . S
C1639 C1641 1.388 1_556 S
C1640 C1639 1.366 . S
C1640 C1644 1.385 . S
C1641 H1616 0.951 . S
C1641 C1639 1.388 1_554 S
C1641 C1642 1.366 . S
C1642 C1641 1.366 . S
C1642 C1643 1.414 . S
C1642 C1645 1.499 . S
C1643 H1617 0.950 . S
C1643 C1642 1.414 . S
C1643 C1644 1.374 1_554 S
C1644 H1618 0.950 . S
C1644 C1640 1.385 . S
C1644 C1643 1.374 1_556 S
C1645 C1642 1.499 . S
C1645 C1646 1.373 . S
C1645 C1647 1.389 . S
C1646 H1619 0.950 . S
C1646 C1632 1.377 . S
C1646 C1645 1.373 . S
C1647 C1631 1.377 . S
C1647 C1645 1.389 . S
C1647 C1648 1.524 . S
C1648 C1647 1.524 . S
C1648 C1649 1.397 . S
C1648 C1653 1.363 . S
C1649 H1620 0.950 . S
C1649 C1648 1.397 . S
C1649 C1650 1.334 . S
C1650 H1621 0.950 . S
C1650 C1649 1.334 . S
C1650 C1651 1.287 . S
C1651 C1650 1.287 . S
C1651 C1652 1.524 . S
C1651 H1654 0.999 . S
C1652 H1622 0.950 . S
C1652 C1651 1.524 . S
C1652 C1653 1.415 . S
C1653 H1623 0.950 . S
C1653 C1648 1.363 . S
C1653 C1652 1.415 . S
H1654 C1651 0.999 . S
H1655 C1636 0.913 . S
C325 C29 1.615 . S
C340 C267 1.615 . S
C375 C51 1.582 . S
C390 C289 1.583 . S
C425 C97 1.597 . S
C440 C221 1.600 . S
C475 C153 1.530 . S
C490 C85 1.529 . S
C525 C187 1.563 . S
C540 C17 1.563 . S
C575 C63 1.590 . S
C590 C119 1.594 . S
C625 C255 1.606 . S
C640 C199 1.603 . S
C675 C301 1.634 . S
C690 C131 1.635 . S
C725 C165 1.666 . S
C740 C233 1.667 . S
C775 C68 1.128 . S
C790 C8 1.132 . S
C825 C34 1.140 . S
C840 C0 1.139 . S
C875 C42 1.147 . S
C890 C76 1.147 . S
C925 C102 1.144 . S
C940 C178 1.148 . S
C975 C110 1.155 . S
C990 C136 1.151 . S
C1025 C144 1.141 . S
C1040 C170 1.138 . S
C1075 C272 1.161 . S
C1090 C212 1.165 . S
C1125 C238 1.144 . S
C1140 C204 1.143 . S
C1175 C280 1.152 . S
C1190 C246 1.152 . S
C1225 C13 0.891 . S
C1240 C4 0.891 . S
C1275 C38 0.872 . S
C1290 C47 0.872 . S
C1325 C81 0.865 . S
C1340 C72 0.865 . S
C1375 C115 0.889 . S
C1390 C106 0.889 . S
C1425 C149 0.880 . S
C1440 C140 0.880 . S
C1475 C183 0.873 . S
C1490 C174 0.873 . S
C1525 C217 0.896 . S
C1540 C208 0.896 . S
C1575 C251 0.888 . S
C1590 C242 0.888 . S
C1625 C285 0.871 . S
C1640 C276 0.871 . S
