# Generated by pormake.
# Topology qtz-e, (6)-cn, num edge types: 1
# Building blocks:
#     Node 0, Type 0, BuildingBlock: KUMJIN_clean_sbu_0, # of connection points: 6
#     Node 1, Type 0, BuildingBlock: KUMJIN_clean_sbu_0, # of connection points: 6
#     Node 2, Type 0, BuildingBlock: KUMJIN_clean_sbu_0, # of connection points: 6
#     Node 3, Type 0, BuildingBlock: KUMJIN_clean_sbu_0, # of connection points: 6
#     Node 4, Type 0, BuildingBlock: KUMJIN_clean_sbu_0, # of connection points: 6
#     Node 5, Type 0, BuildingBlock: KUMJIN_clean_sbu_0, # of connection points: 6
#     Edge 6, Type (0, 0), BuildingBlock: KIFKEQ_clean_linker_1, # of connection points: 2
#     Edge 7, Type (0, 0), BuildingBlock: KIFKEQ_clean_linker_1, # of connection points: 2
#     Edge 8, Type (0, 0), BuildingBlock: KIFKEQ_clean_linker_1, # of connection points: 2
#     Edge 9, Type (0, 0), BuildingBlock: KIFKEQ_clean_linker_1, # of connection points: 2
#     Edge 10, Type (0, 0), BuildingBlock: KIFKEQ_clean_linker_1, # of connection points: 2
#     Edge 11, Type (0, 0), BuildingBlock: KIFKEQ_clean_linker_1, # of connection points: 2
#     Edge 12, Type (0, 0), BuildingBlock: KIFKEQ_clean_linker_1, # of connection points: 2
#     Edge 13, Type (0, 0), BuildingBlock: KIFKEQ_clean_linker_1, # of connection points: 2
#     Edge 14, Type (0, 0), BuildingBlock: KIFKEQ_clean_linker_1, # of connection points: 2
#     Edge 15, Type (0, 0), BuildingBlock: KIFKEQ_clean_linker_1, # of connection points: 2
#     Edge 16, Type (0, 0), BuildingBlock: KIFKEQ_clean_linker_1, # of connection points: 2
#     Edge 17, Type (0, 0), BuildingBlock: KIFKEQ_clean_linker_1, # of connection points: 2
#     Edge 18, Type (0, 0), BuildingBlock: KIFKEQ_clean_linker_1, # of connection points: 2
#     Edge 19, Type (0, 0), BuildingBlock: KIFKEQ_clean_linker_1, # of connection points: 2
#     Edge 20, Type (0, 0), BuildingBlock: KIFKEQ_clean_linker_1, # of connection points: 2
#     Edge 21, Type (0, 0), BuildingBlock: KIFKEQ_clean_linker_1, # of connection points: 2
#     Edge 22, Type (0, 0), BuildingBlock: KIFKEQ_clean_linker_1, # of connection points: 2
#     Edge 23, Type (0, 0), BuildingBlock: KIFKEQ_clean_linker_1, # of connection points: 2
# Relax obj value: 0.058
# Max RMSD: 0.144
# Mean RMSD: 0.144
data_MOF--net-qtz-e--node1-KUMJIN_clean_sbu_0--edge1-KIFKEQ_clean_linker_1
_symmetry_space_group_name_H-M    P1
_symmetry_Int_Tables_number       1
_symmetry_cell_setting            triclinic
loop_
_symmetry_equiv_pos_as_xyz
'x, y, z'
_cell_length_a     30.086285
_cell_length_b     30.212875
_cell_length_c     46.557368
_cell_angle_alpha  90.120341
_cell_angle_beta   90.307381
_cell_angle_gamma 120.18194
loop_
_atom_site_label
_atom_site_type_symbol
_atom_site_fract_x
_atom_site_fract_y
_atom_site_fract_z
_atom_type_partial_charge
Eu0 Eu 0.2667 0.49695 0.06192 0.0
C1 C 0.09967 0.27518 0.04278 0.0
C2 C 0.13053 0.23724 0.07753 0.0
C3 C 0.03884 0.19818 0.06823 0.0
C4 C 0.13998 0.27578 0.05736 0.0
C5 C 0.04866 0.23572 0.04755 0.0
C6 C 0.07972 0.19898 0.08323 0.0
C7 C 0.02123 0.27131 1.00967 0.0
N8 N 0.11046 0.31203 0.02304 0.0
C9 C 0.07242 0.30956 1.00575 0.0
C10 C 0.00918 0.23457 0.03094 0.0
Eu11 Eu 0.1975 0.37764 1.01845 0.0
N12 N 0.18855 0.3135 0.05144 0.0
C13 C 0.22965 0.31348 0.06411 0.0
C14 C 0.17244 0.23797 0.09111 0.0
C15 C 0.22223 0.276 0.08416 0.0
H16 H 0.08154 0.33775 0.98911 0.0
H17 H 0.25497 0.27675 0.09442 0.0
H18 H 0.0717 0.16937 0.09883 0.0
H19 H 0.99117 0.27016 0.99626 0.0
H20 H 0.26839 0.34287 0.05953 0.0
H21 H 0.27787 0.64583 0.99062 0.0
H22 H 0.16681 0.20912 0.10676 0.0
H23 H 0.35971 0.51088 0.10787 0.0
H24 H 0.2352 0.56975 0.02158 0.0
H25 H 0.45465 0.56164 0.11216 0.0
H26 H 0.99988 0.16786 0.07241 0.0
H27 H 0.37222 0.69089 0.98453 0.0
H28 H 0.4573 0.70144 0.99967 0.0
H29 H 0.96951 0.20488 0.03392 0.0
H30 H 0.50591 0.67817 0.03299 0.0
N31 N 0.30445 0.57039 0.03218 0.0
C32 C 0.27642 0.58907 1.01922 0.0
C33 C 0.3537 0.6574 0.99813 0.0
C34 C 0.38265 0.64073 1.01346 0.0
C35 C 0.30047 0.63224 1.00163 0.0
C36 C 0.35662 0.5969 0.03086 0.0
H37 H 0.50522 0.62699 0.07566 0.0
N38 N 0.35734 0.5457 0.06867 0.0
C39 C 0.43531 0.56807 0.09438 0.0
C40 C 0.38401 0.58421 0.04979 0.0
C41 C 0.38171 0.53964 0.09199 0.0
C42 C 0.46372 0.60473 0.07364 0.0
C43 C 0.43805 0.61438 0.05153 0.0
O44 O 0.26963 0.51301 0.10792 0.0
O45 O 0.20497 0.41423 0.06168 0.0
O46 O 0.14008 0.40622 0.02504 0.0
O47 O 0.19033 0.48682 0.04698 0.0
O48 O 0.2547 0.43909 0.09638 0.0
O49 O 0.24679 0.5527 0.07805 0.0
O50 O 0.17342 0.35026 0.97432 0.0
O51 O 0.25248 0.46154 1.01798 0.0
O52 O 0.32572 0.47578 0.05099 0.0
O53 O 0.28369 0.40255 0.02209 0.0
O54 O 0.19499 0.43136 0.98631 0.0
O55 O 0.23539 0.34418 0.99353 0.0
C56 C 0.21357 0.40078 0.08582 0.0
C57 C 0.30032 0.59994 0.11718 0.0
C58 C 0.341 0.65189 0.15996 0.0
C59 C 0.30097 0.60734 0.14691 0.0
C60 C 0.38137 0.68781 0.14273 0.0
C61 C 0.33919 0.63804 0.10032 0.0
C62 C 0.37998 0.68114 0.11307 0.0
C63 C 0.14687 0.45049 0.03533 0.0
C64 C 0.26135 0.55099 0.10425 0.0
C65 C 0.46434 0.65506 0.03231 0.0
C66 C 0.43665 0.66829 1.01332 0.0
C67 C 0.23515 0.47211 0.99577 0.0
C68 C 0.19156 0.28868 0.95381 0.0
C69 C 0.22036 0.289 0.92968 0.0
C70 C 0.20439 0.24413 0.91283 0.0
C71 C 0.15869 0.19946 0.92078 0.0
C72 C 0.14693 0.24327 0.96121 0.0
C73 C 0.13065 0.19908 0.94473 0.0
C74 C 0.32519 0.43935 0.03535 0.0
C75 C 0.20749 0.33627 0.97051 0.0
H76 H 0.26957 0.57881 0.1596 0.0
H77 H 0.41364 0.72166 0.15204 0.0
H78 H 0.33836 0.63455 0.07733 0.0
H79 H 0.41044 0.70962 0.0999 0.0
H80 H 0.25522 0.32407 0.92425 0.0
H81 H 0.14381 0.16459 0.90825 0.0
H82 H 0.12438 0.24217 0.97955 0.0
H83 H 0.09574 0.16429 0.9504 0.0
Eu84 Eu 0.7492 0.25326 0.38448 0.0
C85 C 0.80637 0.08287 0.36667 0.0
C86 C 0.87118 0.10627 0.40368 0.0
C87 C 0.8181 0.01708 0.38953 0.0
C88 C 0.84483 0.11988 0.38359 0.0
C89 C 0.79321 0.03112 0.36896 0.0
C90 C 0.85698 0.05461 0.40691 0.0
C91 C 0.73436 0.01161 0.32912 0.0
N92 N 0.78318 0.09774 0.34711 0.0
C93 C 0.74886 0.06338 0.32772 0.0
C94 C 0.7562 0.99526 0.35008 0.0
Eu95 Eu 0.80616 0.18513 0.34656 0.0
N96 N 0.85737 0.16935 0.37988 0.0
C97 C 0.89844 0.20751 0.39451 0.0
C98 C 0.91153 0.14504 0.4196 0.0
C99 C 0.9256 0.19592 0.41472 0.0
H100 H 0.73183 0.07593 0.31149 0.0
H101 H 0.95727 0.22633 0.42663 0.0
H102 H 0.87647 0.04342 0.4224 0.0
H103 H 0.70637 0.98441 0.31407 0.0
H104 H 0.91008 0.24713 0.39152 0.0
H105 H 0.6042 0.2558 0.31448 0.0
H106 H 0.9326 0.1362 0.43531 0.0
H107 H 0.84597 0.34993 0.42104 0.0
H108 H 0.64343 0.21623 0.34371 0.0
H109 H 0.89 0.44452 0.42328 0.0
H110 H 0.80821 0.97748 0.39181 0.0
H111 H 0.64665 0.3501 0.31109 0.0
H112 H 0.71846 0.43645 0.32671 0.0
H113 H 0.74504 0.95517 0.35112 0.0
H114 H 0.79576 0.4877 0.35643 0.0
N115 N 0.70844 0.28737 0.35598 0.0
C116 C 0.66243 0.25743 0.34237 0.0
C117 C 0.66416 0.33297 0.32392 0.0
C118 C 0.70984 0.36349 0.33922 0.0
C119 C 0.64001 0.27972 0.32581 0.0
C120 C 0.73111 0.33928 0.35553 0.0
H121 H 0.85983 0.49107 0.39258 0.0
N122 N 0.79255 0.34354 0.38891 0.0
C123 C 0.85747 0.4235 0.40897 0.0
C124 C 0.77411 0.3682 0.37268 0.0
C125 C 0.83245 0.37004 0.40772 0.0
C126 C 0.84036 0.44964 0.39156 0.0
C127 C 0.7978 0.422 0.3734 0.0
O128 O 0.73868 0.26383 0.42985 0.0
O129 O 0.77654 0.19676 0.38824 0.0
O130 O 0.72051 0.1256 0.35535 0.0
O131 O 0.68511 0.17565 0.37039 0.0
O132 O 0.80105 0.25178 0.41983 0.0
O133 O 0.67239 0.22697 0.40131 0.0
O134 O 0.8214 0.16615 0.30347 0.0
O135 O 0.76906 0.23205 0.3427 0.0
O136 O 0.81765 0.30968 0.35989 0.0
O137 O 0.86576 0.26918 0.35917 0.0
O138 O 0.75082 0.1774 0.31098 0.0
O139 O 0.87793 0.23566 0.32396 0.0
C140 C 0.80034 0.21053 0.41187 0.0
C141 C 0.67227 0.28179 0.43789 0.0
C142 C 0.65627 0.3228 0.47867 0.0
C143 C 0.66976 0.28763 0.46769 0.0
C144 C 0.64757 0.35348 0.45932 0.0
C145 C 0.66038 0.31077 0.41915 0.0
C146 C 0.64911 0.34704 0.4298 0.0
C147 C 0.68073 0.13143 0.36259 0.0
C148 C 0.68966 0.24738 0.42666 0.0
C149 C 0.77794 0.44636 0.3563 0.0
C150 C 0.73399 0.41717 0.33931 0.0
C151 C 0.7436 0.21377 0.31982 0.0
C152 C 0.90848 0.19966 0.28943 0.0
C153 C 0.93441 0.22469 0.26385 0.0
C154 C 0.9761 0.21986 0.25363 0.0
C155 C 0.99045 0.18902 0.26911 0.0
C156 C 0.92378 0.16909 0.30418 0.0
C157 C 0.96434 0.16371 0.29398 0.0
C158 C 0.86169 0.31096 0.35753 0.0
C159 C 0.86673 0.20671 0.30124 0.0
H160 H 0.67709 0.26392 0.48215 0.0
H161 H 0.63863 0.38197 0.46698 0.0
H162 H 0.6597 0.3056 0.39626 0.0
H163 H 0.64108 0.36992 0.41512 0.0
H164 H 0.92313 0.24877 0.25245 0.0
H165 H 0.02205 0.18439 0.26186 0.0
H166 H 0.90454 0.14969 0.32374 0.0
H167 H 0.97594 0.1401 0.30557 0.0
Eu168 Eu 0.50719 0.75868 0.71457 0.0
C169 C 0.73191 0.8117 0.68914 0.0
C170 C 0.7775 0.87155 0.72777 0.0
C171 C 0.81033 0.81869 0.70865 0.0
C172 C 0.73589 0.84845 0.70822 0.0
C173 C 0.76972 0.79721 0.68859 0.0
C174 C 0.81414 0.85573 0.72827 0.0
C175 C 0.72655 0.74451 0.64706 0.0
N176 N 0.69229 0.79189 0.67013 0.0
C177 C 0.69012 0.76025 0.6485 0.0
C178 C 0.7662 0.76257 0.66743 0.0
Eu179 Eu 0.6303 0.81776 0.67437 0.0
N180 N 0.69982 0.86274 0.70708 0.0
C181 C 0.70497 0.90247 0.72362 0.0
C182 C 0.78147 0.91045 0.74584 0.0
C183 C 0.74537 0.92641 0.74349 0.0
H184 H 0.6594 0.74624 0.63275 0.0
H185 H 0.74854 0.95704 0.75703 0.0
H186 H 0.84611 0.87265 0.74331 0.0
H187 H 0.72402 0.71851 0.63026 0.0
H188 H 0.6772 0.91498 0.7222 0.0
H189 H 0.34751 0.61771 0.64867 0.0
H190 H 0.81273 0.92905 0.76124 0.0
H191 H 0.51509 0.85533 0.75458 0.0
H192 H 0.43116 0.65546 0.67382 0.0
H193 H 0.4656 0.89919 0.76243 0.0
H194 H 0.8395 0.80768 0.70878 0.0
H195 H 0.29579 0.6604 0.65104 0.0
H196 H 0.28462 0.73148 0.67097 0.0
H197 H 0.7945 0.75048 0.66625 0.0
H198 H 0.31627 0.80742 0.70218 0.0
N199 N 0.42778 0.71989 0.68949 0.0
C200 C 0.40909 0.67462 0.67492 0.0
C201 C 0.33254 0.67723 0.66209 0.0
C202 C 0.35061 0.72212 0.67837 0.0
C203 C 0.36158 0.65297 0.66074 0.0
C204 C 0.39875 0.74249 0.69231 0.0
H205 H 0.38344 0.86994 0.73648 0.0
N206 N 0.46178 0.80222 0.72421 0.0
C207 C 0.45122 0.867 0.74775 0.0
C208 C 0.416 0.7846 0.71037 0.0
C209 C 0.47908 0.84196 0.74333 0.0
C210 C 0.40487 0.8504 0.73303 0.0
C211 C 0.38644 0.80843 0.71428 0.0
O212 O 0.49176 0.74278 0.76018 0.0
O213 O 0.59165 0.78648 0.71651 0.0
O214 O 0.60581 0.7329 0.68203 0.0
O215 O 0.51925 0.69682 0.69582 0.0
O216 O 0.56274 0.80854 0.74979 0.0
O217 O 0.45929 0.68014 0.7292 0.0
O218 O 0.64894 0.83362 0.62882 0.0
O219 O 0.54609 0.78118 0.67243 0.0
O220 O 0.51586 0.82635 0.69083 0.0
O221 O 0.60476 0.87551 0.68905 0.0
O222 O 0.58035 0.76775 0.63752 0.0
O223 O 0.66902 0.89648 0.65793 0.0
C224 C 0.60305 0.80836 0.74073 0.0
C225 C 0.41002 0.67347 0.77018 0.0
C226 C 0.36177 0.65125 0.81466 0.0
C227 C 0.408 0.66746 0.80002 0.0
C228 C 0.31746 0.64141 0.79918 0.0
C229 C 0.36515 0.6623 0.75488 0.0
C230 C 0.31922 0.6467 0.76939 0.0
C231 C 0.55956 0.69304 0.68821 0.0
C232 C 0.45982 0.69407 0.75584 0.0
C233 C 0.33942 0.78947 0.69957 0.0
C234 C 0.32147 0.74633 0.68172 0.0
C235 C 0.53736 0.75916 0.64832 0.0
C236 C 0.71932 0.91384 0.61565 0.0
C237 C 0.72211 0.9457 0.59261 0.0
C238 C 0.76803 0.97363 0.57665 0.0
C239 C 0.81047 0.96815 0.58421 0.0
C240 C 0.76258 0.91009 0.62275 0.0
C241 C 0.80775 0.93701 0.60706 0.0
C242 C 0.55824 0.87077 0.68813 0.0
C243 C 0.67074 0.88313 0.63147 0.0
H244 H 0.44252 0.67585 0.81189 0.0
H245 H 0.28121 0.62829 0.81002 0.0
H246 H 0.36534 0.66554 0.73184 0.0
H247 H 0.28483 0.63838 0.75749 0.0
H248 H 0.68872 0.94891 0.58737 0.0
H249 H 0.84591 0.98743 0.57221 0.0
H250 H 0.76124 0.88591 0.64024 0.0
H251 H 0.84082 0.93341 0.6125 0.0
Eu252 Eu 0.75717 0.50129 0.04137 0.0
C253 C 0.93269 0.72604 1.01677 0.0
C254 C 0.91991 0.77217 0.05535 0.0
C255 C 1.00535 0.80418 0.03571 0.0
C256 C 0.9005 0.73044 0.03604 0.0
C257 C 0.98532 0.76341 1.01589 0.0
C258 C 0.97269 0.80849 0.05546 0.0
C259 C 0.9935 0.71924 0.9747 0.0
N260 N 0.91202 0.68631 0.99798 0.0
C261 C 0.94104 0.68323 0.97645 0.0
C262 C 0.01591 0.75924 0.99472 0.0
Eu263 Eu 0.82374 0.6252 1.00284 0.0
N264 N 0.8498 0.69475 0.03525 0.0
C265 C 0.81568 0.70038 0.05186 0.0
C266 C 0.88549 0.77662 0.07356 0.0
C267 C 0.83303 0.74089 0.07153 0.0
H268 H 0.92382 0.65223 0.96101 0.0
H269 H 0.80595 0.74445 0.08515 0.0
H270 H 0.98843 0.84058 0.07031 0.0
H271 H 0.01659 0.71613 0.95795 0.0
H272 H 0.77508 0.67292 0.05058 0.0
H273 H 0.7494 0.34647 0.97678 0.0
H274 H 0.89885 0.80799 0.08879 0.0
H275 H 0.66242 0.5052 0.07717 0.0
H276 H 0.79124 0.42894 1.003 0.0
H277 H 0.56762 0.45504 0.08032 0.0
H278 H 0.04578 0.83305 0.03557 0.0
H279 H 0.65452 0.29436 0.97442 0.0
H280 H 0.56894 0.28185 0.9895 0.0
H281 H 0.05652 0.78718 0.99329 0.0
H282 H 0.51958 0.31106 1.01782 0.0
N283 N 0.72074 0.42413 1.01471 0.0
C284 C 0.74978 0.40658 1.00202 0.0
C285 C 0.67264 0.3305 0.98597 0.0
C286 C 0.64311 0.34748 1.00027 0.0
C287 C 0.72622 0.35978 0.98727 0.0
C288 C 0.66861 0.39473 1.01506 0.0
H289 H 0.51874 0.37537 0.05185 0.0
N290 N 0.66675 0.455 0.0467 0.0
C291 C 0.58775 0.44208 0.06657 0.0
C292 C 0.64081 0.41047 0.03161 0.0
C293 C 0.64139 0.47031 0.0648 0.0
C294 C 0.56029 0.39717 0.05041 0.0
C295 C 0.58679 0.38045 0.03295 0.0
O296 O 0.74844 0.48047 0.08665 0.0
O297 O 0.81312 0.58548 0.04513 0.0
O298 O 0.88534 0.60375 1.01382 0.0
O299 O 0.83563 0.51684 0.02705 0.0
O300 O 0.7594 0.55453 0.07685 0.0
O301 O 0.78648 0.45324 0.05788 0.0
O302 O 0.82065 0.6386 0.95685 0.0
O303 O 0.77693 0.54113 0.99951 0.0
O304 O 0.70036 0.51152 1.01521 0.0
O305 O 0.74032 0.59975 1.01731 0.0
O306 O 0.82947 0.5773 0.96685 0.0
O307 O 0.78753 0.6681 0.98667 0.0
C308 C 0.8006 0.59549 0.06908 0.0
C309 C 0.73495 0.39796 0.09515 0.0
C310 C 0.69911 0.34322 0.13699 0.0
C311 C 0.73072 0.39179 0.125 0.0
C312 C 0.67068 0.30095 0.11871 0.0
C313 C 0.7074 0.35498 0.07725 0.0
C314 C 0.67499 0.30692 0.08899 0.0
C315 C 0.87988 0.55829 1.02055 0.0
C316 C 0.76674 0.44969 0.08331 0.0
C317 C 0.5611 0.33454 1.01718 0.0
C318 C 0.5892 0.31799 1.00098 0.0
C319 C 0.79424 0.53371 0.97649 0.0
C320 C 0.81574 0.71072 0.94159 0.0
C321 C 0.78493 0.7123 0.91888 0.0
C322 C 0.80446 0.75475 0.90006 0.0
C323 C 0.85478 0.79557 0.90474 0.0
C324 C 0.86552 0.75233 0.94573 0.0
C325 C 0.88476 0.79445 0.92745 0.0
C326 C 0.6985 0.55397 1.01374 0.0
C327 C 0.79709 0.66451 0.95974 0.0
H328 H 0.75221 0.42481 0.13891 0.0
H329 H 0.6466 0.26297 0.12738 0.0
H330 H 0.71089 0.35812 0.05427 0.0
H331 H 0.65376 0.27408 0.07502 0.0
H332 H 0.7465 0.68012 0.91544 0.0
H333 H 0.87082 0.82884 0.89094 0.0
H334 H 0.88973 0.75197 0.96292 0.0
H335 H 0.92332 0.82632 0.93078 0.0
Eu336 Eu 0.22986 0.74272 0.39369 0.0
C337 C 0.19128 0.91247 0.36105 0.0
C338 C 0.13032 0.89856 0.39866 0.0
C339 C 0.18659 0.98457 0.38081 0.0
C340 C 0.15289 0.87962 0.37939 0.0
C341 C 0.20775 0.96517 0.36105 0.0
C342 C 0.148 0.95133 0.39961 0.0
C343 C 0.2618 0.97481 0.32055 0.0
N344 N 0.211 0.89255 0.34234 0.0
C345 C 0.24411 0.92226 0.32138 0.0
C346 C 0.24408 0.99652 0.34073 0.0
Eu347 Eu 0.1803 0.80379 0.34556 0.0
N348 N 0.13698 0.82895 0.37807 0.0
C349 C 0.09689 0.79464 0.39435 0.0
C350 C 0.09026 0.86377 0.41614 0.0
C351 C 0.07312 0.8115 0.41374 0.0
H352 H 0.25769 0.90539 0.30571 0.0
H353 H 0.04179 0.78423 0.42692 0.0
H354 H 0.13147 0.96668 0.41445 0.0
H355 H 0.289 0.99848 0.30433 0.0
H356 H 0.08358 0.75429 0.39267 0.0
H357 H 0.43076 0.82309 0.42614 0.0
H358 H 0.07195 0.87677 0.43126 0.0
H359 H 0.15338 0.63154 0.3599 0.0
H360 H 0.34444 0.8142 0.42573 0.0
H361 H 0.15935 0.56334 0.33441 0.0
H362 H 0.19911 0.02503 0.38135 0.0
H363 H 0.44764 0.76539 0.39623 0.0
H364 H 0.41332 0.68935 0.363 0.0
H365 H 0.25772 0.03721 0.34001 0.0
H366 H 0.33926 0.61827 0.33822 0.0
N367 N 0.31355 0.75345 0.3951 0.0
C368 C 0.35156 0.7889 0.41259 0.0
C369 C 0.40983 0.76151 0.3959 0.0
C370 C 0.36978 0.7231 0.37953 0.0
C371 C 0.40042 0.79405 0.41286 0.0
C372 C 0.32129 0.71972 0.37984 0.0
H373 H 0.24421 0.57014 0.32814 0.0
N374 N 0.23338 0.67699 0.36771 0.0
C375 C 0.19367 0.59613 0.34295 0.0
C376 C 0.27978 0.67996 0.3659 0.0
C377 C 0.19031 0.63503 0.35734 0.0
C378 C 0.24159 0.60012 0.33945 0.0
C379 C 0.28538 0.64211 0.35128 0.0
O380 O 0.18354 0.67331 0.41818 0.0
O381 O 0.19385 0.79272 0.39219 0.0
O382 O 0.26768 0.86008 0.35203 0.0
O383 O 0.29875 0.80986 0.37293 0.0
O384 O 0.25821 0.81541 0.41872 0.0
O385 O 0.24538 0.7394 0.43945 0.0
O386 O 0.16957 0.80749 0.29918 0.0
O387 O 0.20491 0.74547 0.34892 0.0
O388 O 0.14296 0.69925 0.39441 0.0
O389 O 0.12079 0.7193 0.35098 0.0
O390 O 0.23441 0.7982 0.31479 0.0
O391 O 0.1034 0.77585 0.32643 0.0
C392 C 0.22521 0.82743 0.40958 0.0
C393 C 0.23124 0.658 0.45318 0.0
C394 C 0.27695 0.6416 0.49133 0.0
C395 C 0.25658 0.67077 0.47986 0.0
C396 C 0.27069 0.5987 0.47593 0.0
C397 C 0.22557 0.61504 0.43807 0.0
C398 C 0.24504 0.58554 0.44951 0.0
C399 C 0.30588 0.85258 0.3607 0.0
C400 C 0.21228 0.69058 0.4411 0.0
C401 C 0.33408 0.6466 0.34967 0.0
C402 C 0.37625 0.68708 0.36375 0.0
C403 C 0.23313 0.75908 0.3268 0.0
C404 C 0.09492 0.80495 0.27981 0.0
C405 C 0.06394 0.77397 0.25654 0.0
C406 C 0.04365 0.79367 0.23582 0.0
C407 C 0.05428 0.84437 0.23928 0.0
C408 C 0.1043 0.8551 0.28253 0.0
C409 C 0.08395 0.8745 0.26244 0.0
C410 C 0.11078 0.68787 0.37276 0.0
C411 C 0.11974 0.78579 0.30006 0.0
H412 H 0.26068 0.70368 0.49158 0.0
H413 H 0.28669 0.57599 0.48395 0.0
H414 H 0.20643 0.60428 0.41735 0.0
H415 H 0.24079 0.55273 0.43769 0.0
H416 H 0.05684 0.73525 0.25417 0.0
H417 H 0.0391 0.8607 0.22414 0.0
H418 H 0.12784 0.87944 0.30003 0.0
H419 H 0.09152 0.91336 0.26472 0.0
Eu420 Eu 0.51162 0.2634 0.72559 0.0
C421 C 0.29275 0.20643 0.6931 0.0
C422 C 0.24759 0.15288 0.73368 0.0
C423 C 0.21476 0.20265 0.71029 0.0
C424 C 0.28884 0.1727 0.71421 0.0
C425 C 0.25495 0.22069 0.69033 0.0
C426 C 0.21115 0.16887 0.73198 0.0
C427 C 0.29646 0.26505 0.64667 0.0
N428 N 0.33186 0.22283 0.67415 0.0
C429 C 0.33281 0.24956 0.65028 0.0
C430 C 0.25778 0.25121 0.66704 0.0
Eu431 Eu 0.39249 0.19586 0.68183 0.0
N432 N 0.32462 0.15804 0.71517 0.0
C433 C 0.32035 0.12189 0.73424 0.0
C434 C 0.24381 0.11699 0.75393 0.0
C435 C 0.28003 0.10097 0.75397 0.0
H436 H 0.36263 0.26002 0.63447 0.0
H437 H 0.27721 0.07289 0.76937 0.0
H438 H 0.17944 0.15449 0.74692 0.0
H439 H 0.29817 0.28744 0.62816 0.0
H440 H 0.34859 0.10986 0.73465 0.0
H441 H 0.59303 0.46829 0.74845 0.0
H442 H 0.21278 0.10094 0.76932 0.0
H443 H 0.58879 0.21169 0.71577 0.0
H444 H 0.53327 0.37585 0.75468 0.0
H445 H 0.66788 0.23271 0.68977 0.0
H446 H 0.18563 0.2136 0.70874 0.0
H447 H 0.6673 0.49815 0.71587 0.0
H448 H 0.72151 0.47614 0.68452 0.0
H449 H 0.22945 0.26297 0.66412 0.0
H450 H 0.74133 0.41078 0.6675 0.0
N451 N 0.57228 0.3532 0.72524 0.0
C452 C 0.56577 0.38825 0.74063 0.0
C453 C 0.64117 0.45748 0.71854 0.0
C454 C 0.65013 0.42143 0.70488 0.0
C455 C 0.59947 0.44077 0.73707 0.0
C456 C 0.61485 0.36896 0.70907 0.0
H457 H 0.72211 0.31959 0.66992 0.0
N458 N 0.59375 0.2833 0.70736 0.0
C459 C 0.656 0.26096 0.69175 0.0
C460 C 0.62581 0.33246 0.69954 0.0
C461 C 0.61042 0.2488 0.70596 0.0
C462 C 0.68647 0.30998 0.68059 0.0
C463 C 0.67265 0.34714 0.68553 0.0
O464 O 0.50074 0.20404 0.75642 0.0
O465 O 0.42445 0.21842 0.72682 0.0
O466 O 0.41504 0.28132 0.68472 0.0
O467 O 0.50047 0.32201 0.70167 0.0
O468 O 0.46229 0.28708 0.7496 0.0
O469 O 0.5446 0.28332 0.76873 0.0
O470 O 0.38116 0.17367 0.63625 0.0
O471 O 0.47737 0.23262 0.68311 0.0
O472 O 0.50562 0.1945 0.70246 0.0
O473 O 0.41806 0.13959 0.69814 0.0
O474 O 0.44596 0.24405 0.64603 0.0
O475 O 0.34221 0.11592 0.66795 0.0
C476 C 0.41806 0.24881 0.7431 0.0
C477 C 0.56778 0.22811 0.79104 0.0
C478 C 0.63067 0.25306 0.82983 0.0
C479 C 0.59149 0.25701 0.81583 0.0
C480 C 0.64573 0.21918 0.81915 0.0
C481 C 0.58222 0.19334 0.78087 0.0
C482 C 0.62106 0.18899 0.79494 0.0
C483 C 0.46072 0.32293 0.69 0.0
C484 C 0.52935 0.23649 0.77615 0.0
C485 C 0.70567 0.39887 0.67877 0.0
C486 C 0.69444 0.43608 0.6885 0.0
C487 C 0.48801 0.25345 0.65879 0.0
C488 C 0.30203 0.10198 0.62183 0.0
C489 C 0.29833 0.07203 0.59737 0.0
C490 C 0.25414 0.05086 0.57916 0.0
C491 C 0.21481 0.06154 0.58585 0.0
C492 C 0.26141 0.11052 0.62792 0.0
C493 C 0.21837 0.09068 0.60997 0.0
C494 C 0.46565 0.14772 0.70009 0.0
C495 C 0.34862 0.12557 0.64056 0.0
H496 H 0.58053 0.28394 0.82379 0.0
H497 H 0.67627 0.216 0.82957 0.0
H498 H 0.56396 0.16996 0.76203 0.0
H499 H 0.63241 0.16251 0.7869 0.0
H500 H 0.32945 0.0649 0.59282 0.0
H501 H 0.18113 0.04787 0.57221 0.0
H502 H 0.26307 0.13286 0.64649 0.0
H503 H 0.18755 0.09815 0.61472 0.0
H504 H 0.18267 0.66901 0.29872 0.0
H505 H 0.33413 0.79225 0.32061 0.0
H506 H 0.21999 0.63543 0.26459 0.0
H507 H 0.37191 0.75884 0.28672 0.0
H508 H 0.3724 0.74514 0.18471 0.0
H509 H 0.35643 0.76289 0.23289 0.0
H510 H 0.28389 0.60231 0.25357 0.0
H511 H 0.30255 0.58417 0.20528 0.0
C512 C 0.22414 0.6873 0.29722 0.0
C513 C 0.25589 0.73199 0.31288 0.0
C514 C 0.24551 0.66814 0.2778 0.0
C515 C 0.29883 0.69448 0.27321 0.0
C516 C 0.33074 0.73766 0.29011 0.0
C517 C 0.30928 0.75667 0.30953 0.0
C518 C 0.35509 0.7136 0.19966 0.0
C519 C 0.33835 0.66304 0.19081 0.0
C520 C 0.34587 0.72391 0.2274 0.0
C521 C 0.31893 0.68392 0.24687 0.0
C522 C 0.30464 0.6337 0.23881 0.0
C523 C 0.31481 0.6234 0.21108 0.0
H524 H 0.55477 0.22048 0.64719 0.0
H525 H 0.52939 0.34743 0.63639 0.0
H526 H 0.61476 0.25114 0.60708 0.0
H527 H 0.59216 0.38075 0.59817 0.0
H528 H 0.58068 0.33386 0.50309 0.0
H529 H 0.5614 0.33332 0.5532 0.0
H530 H 0.68945 0.31323 0.57616 0.0
H531 H 0.71005 0.31505 0.52502 0.0
C532 C 0.56506 0.25701 0.63771 0.0
C533 C 0.5384 0.28227 0.64521 0.0
C534 C 0.5993 0.27457 0.61464 0.0
C535 C 0.60705 0.31765 0.59901 0.0
C536 C 0.58617 0.34691 0.60949 0.0
C537 C 0.55095 0.32849 0.63183 0.0
C538 C 0.60599 0.33098 0.51864 0.0
C539 C 0.64732 0.32511 0.50988 0.0
C540 C 0.59494 0.33078 0.54757 0.0
C541 C 0.62458 0.32432 0.56878 0.0
C542 C 0.66623 0.31869 0.56028 0.0
C543 C 0.6777 0.31936 0.53104 0.0
H544 H 0.33809 0.51905 0.9842 0.0
H545 H 0.19714 0.51517 0.961 0.0
H546 H 0.38242 0.57873 0.94474 0.0
H547 H 0.24018 0.57302 0.92147 0.0
H548 H 0.32112 0.68481 0.85561 0.0
H549 H 0.3033 0.65672 0.90551 0.0
H550 H 0.37632 0.56618 0.89302 0.0
H551 H 0.39549 0.59569 0.84361 0.0
C552 C 0.31713 0.53209 0.97106 0.0
C553 C 0.26469 0.51366 0.97569 0.0
C554 C 0.34221 0.56579 0.94843 0.0
C555 C 0.31489 0.58084 0.93007 0.0
C556 C 0.26276 0.56332 0.93554 0.0
C557 C 0.23788 0.52978 0.95797 0.0
C558 C 0.33422 0.65977 0.86385 0.0
C559 C 0.35878 0.6416 0.84581 0.0
C560 C 0.32413 0.64375 0.89233 0.0
C561 C 0.33759 0.60853 0.90303 0.0
C562 C 0.36581 0.59364 0.88555 0.0
C563 C 0.37649 0.61023 0.85718 0.0
H564 H 0.78665 0.31614 0.3105 0.0
H565 H 0.6637 0.16857 0.28296 0.0
H566 H 0.76731 0.35699 0.2713 0.0
H567 H 0.64584 0.20847 0.24256 0.0
H568 H 0.61663 0.28706 0.17191 0.0
H569 H 0.61909 0.26368 0.2219 0.0
H570 H 0.78492 0.35758 0.22183 0.0
H571 H 0.78213 0.38151 0.17254 0.0
C572 C 0.75462 0.2927 0.2965 0.0
C573 C 0.72613 0.23949 0.29994 0.0
C574 C 0.74382 0.31591 0.2738 0.0
C575 C 0.7054 0.286 0.25354 0.0
C576 C 0.67518 0.23288 0.25793 0.0
C577 C 0.68564 0.20986 0.28089 0.0
C578 C 0.6534 0.30331 0.18289 0.0
C579 C 0.69923 0.33563 0.16833 0.0
C580 C 0.65485 0.28996 0.21145 0.0
C581 C 0.7022 0.30831 0.2258 0.0
C582 C 0.74767 0.34328 0.2117 0.0
C583 C 0.74615 0.3569 0.18331 0.0
H584 H 0.4963 0.67214 0.61738 0.0
H585 H 0.47527 0.79916 0.6392 0.0
H586 H 0.42539 0.64132 0.58279 0.0
H587 H 0.40377 0.76824 0.60487 0.0
H588 H 0.2749 0.58041 0.53527 0.0
H589 H 0.33062 0.60621 0.57776 0.0
H590 H 0.40224 0.76415 0.55125 0.0
H591 H 0.34735 0.73855 0.50874 0.0
C592 C 0.47547 0.69261 0.6152 0.0
C593 C 0.48996 0.73706 0.63134 0.0
C594 C 0.43486 0.67496 0.59558 0.0
C595 C 0.40894 0.70227 0.59127 0.0
C596 C 0.42315 0.74651 0.60777 0.0
C597 C 0.46354 0.76388 0.62762 0.0
C598 C 0.30244 0.62064 0.53859 0.0
C599 C 0.30697 0.65739 0.51854 0.0
C600 C 0.33412 0.63537 0.56293 0.0
C601 C 0.37075 0.68712 0.56773 0.0
C602 C 0.37381 0.72406 0.54833 0.0
C603 C 0.34236 0.70935 0.52395 0.0
H604 H 0.84285 0.4923 0.94838 0.0
H605 H 0.69327 0.47438 0.96245 0.0
H606 H 0.80504 0.41891 0.91563 0.0
H607 H 0.65527 0.40293 0.92867 0.0
H608 H 0.59032 0.25432 0.88166 0.0
H609 H 0.63117 0.31786 0.91998 0.0
H610 H 0.77042 0.39473 0.86983 0.0
H611 H 0.7301 0.32914 0.83265 0.0
C612 C 0.80174 0.47229 0.94443 0.0
C613 C 0.77054 0.48755 0.95849 0.0
C614 C 0.78005 0.43062 0.92549 0.0
C615 C 0.7269 0.40457 0.91945 0.0
C616 C 0.69602 0.42092 0.93327 0.0
C617 C 0.71766 0.46193 0.95263 0.0
C618 C 0.63005 0.2843 0.87934 0.0
C619 C 0.65737 0.287 0.85448 0.0
C620 C 0.65333 0.32108 0.90105 0.0
C621 C 0.70402 0.36207 0.89796 0.0
C622 C 0.7317 0.3635 0.87331 0.0
C623 C 0.70868 0.32607 0.8519 0.0
H624 H 0.36896 0.43929 0.98406 0.0
H625 H 0.39815 0.45761 0.07527 0.0
H626 H 0.46096 0.47337 0.97554 0.0
H627 H 0.48973 0.49206 0.06699 0.0
H628 H 0.65536 0.60168 0.04353 0.0
H629 H 0.56287 0.5711 0.04725 0.0
H630 H 0.53104 0.45515 0.98313 0.0
H631 H 0.62251 0.48593 0.97931 0.0
C632 C 0.39483 0.44907 1.00229 0.0
C633 C 0.3765 0.44562 0.03032 0.0
C634 C 0.44761 0.46931 0.99745 0.0
C635 C 0.48299 0.48669 1.02058 0.0
C636 C 0.46393 0.48053 0.04865 0.0
C637 C 0.41138 0.46013 0.05343 0.0
C638 C 0.62862 0.57101 0.02952 0.0
C639 C 0.64616 0.54658 1.01093 0.0
C640 C 0.57563 0.5528 0.03198 0.0
C641 C 0.53942 0.51017 1.0157 0.0
C642 C 0.55759 0.48815 0.99582 0.0
C643 C 0.61017 0.50598 0.99357 0.0
H644 H 0.06915 0.61563 0.41505 0.0
H645 H 0.05997 0.63696 0.32396 0.0
H646 H 0.01428 0.52337 0.40873 0.0
H647 H 1.00703 0.54494 0.31744 0.0
H648 H 0.86803 0.38339 0.3218 0.0
H649 H 0.92586 0.47453 0.32558 0.0
H650 H 0.01431 0.44919 0.39022 0.0
H651 H 0.95366 0.35654 0.38716 0.0
C652 C 0.05478 0.60071 0.39372 0.0
C653 C 0.06863 0.63385 0.37005 0.0
C654 C 0.02411 0.54766 0.39001 0.0
C655 C 1.00682 0.52633 0.3625 0.0
C656 C 0.01916 0.55974 0.33901 0.0
C657 C 0.04929 0.61278 0.34277 0.0
C658 C 0.90066 0.39701 0.33623 0.0
C659 C 0.90656 0.36275 0.354 0.0
C660 C 0.93401 0.4496 0.33844 0.0
C661 C 0.97473 0.46968 0.35838 0.0
C662 C 0.98277 0.43514 0.37496 0.0
C663 C 0.94886 0.38202 0.3728 0.0
H664 H 0.40575 0.04507 0.71302 0.0
H665 H 0.55152 0.15544 0.67658 0.0
H666 H 0.43096 0.97935 0.70924 0.0
H667 H 0.57705 0.09132 0.67382 0.0
H668 H 0.62221 0.97148 0.70507 0.0
H669 H 0.59862 0.03854 0.70771 0.0
H670 H 0.45089 0.93494 0.6694 0.0
H671 H 0.4744 0.86941 0.66615 0.0
C672 C 0.44292 0.05529 0.70419 0.0
C673 C 0.47703 0.10579 0.69574 0.0
C674 C 0.45753 0.01792 0.70215 0.0
C675 C 0.5065 0.0306 0.69174 0.0
C676 C 0.53977 0.08071 0.68266 0.0
C677 C 0.525 0.11754 0.68435 0.0
C678 C 0.58532 0.96368 0.69665 0.0
C679 C 0.55022 0.91512 0.68558 0.0
C680 C 0.57154 1.00171 0.69839 0.0
C681 C 0.52239 0.99147 0.68928 0.0
C682 C 0.48843 0.94362 0.6772 0.0
C683 C 0.50231 0.90622 0.67514 0.0
H684 H 0.6005 0.65137 0.651 0.0
H685 H 0.49326 0.6135 0.72063 0.0
H686 H 0.572 0.55998 0.6451 0.0
H687 H 0.46511 0.52365 0.71483 0.0
H688 H 0.39338 0.36008 0.68749 0.0
H689 H 0.4171 0.45041 0.68274 0.0
H690 H 0.57594 0.49251 0.67116 0.0
H691 H 0.55248 0.40392 0.67533 0.0
C692 C 0.5715 0.62379 0.66522 0.0
C693 C 0.54909 0.63971 0.68617 0.0
C694 C 0.55472 0.57144 0.66171 0.0
C695 C 0.51529 0.53428 0.67909 0.0
C696 C 0.49417 0.55077 0.70043 0.0
C697 C 0.51087 0.60257 0.70395 0.0
C698 C 0.433 0.38861 0.6832 0.0
C699 C 0.47101 0.37479 0.68214 0.0
C700 C 0.44678 0.44034 0.68072 0.0
C701 C 0.49866 0.47886 0.67687 0.0
C702 C 0.53572 0.46419 0.67385 0.0
C703 C 0.52209 0.41305 0.6765 0.0
H704 H 0.12876 0.50856 0.0723 0.0
H705 H 0.07221 0.42286 0.99316 0.0
H706 H 0.06821 0.53899 0.06742 0.0
H707 H 0.01063 0.45368 0.98826 0.0
H708 H 0.948 0.56905 0.97818 0.0
H709 H 0.01175 0.54048 0.98065 0.0
H710 H 0.97311 0.49981 0.0696 0.0
H711 H 0.91004 0.52776 0.06694 0.0
C712 C 0.10298 0.49582 0.0539 0.0
C713 C 0.10512 0.46299 0.03319 0.0
C714 C 0.06824 0.51336 0.05112 0.0
C715 C 0.03474 0.49904 0.02739 0.0
C716 C 0.03636 0.46581 1.00665 0.0
C717 C 0.071 0.44757 1.00964 0.0
C718 C 0.95437 0.5552 0.99834 0.0
C719 C 0.92508 0.55155 0.02255 0.0
C720 C 0.99006 0.53805 0.99966 0.0
C721 C 0.99735 0.51769 0.02531 0.0
C722 C 0.96883 0.51561 0.0496 0.0
C723 C 0.93295 0.53192 0.04815 0.0
H724 H 0.34594 0.95613 0.3521 0.0
H725 H 0.39015 0.84093 0.35922 0.0
H726 H 0.43684 0.02229 0.34943 0.0
H727 H 0.48004 0.90644 0.3576 0.0
H728 H 0.64156 0.03787 0.33422 0.0
H729 H 0.55084 0.9709 0.32962 0.0
H730 H 0.50762 0.05999 0.38305 0.0
H731 H 0.59663 0.12595 0.38746 0.0
C732 C 0.37482 0.94479 0.35283 0.0
C733 C 0.36044 0.89314 0.35627 0.0
C734 C 0.42702 0.98271 0.35156 0.0
C735 C 0.46605 0.96985 0.35361 0.0
C736 C 0.45138 0.91797 0.35577 0.0
C737 C 0.39948 0.8803 0.35708 0.0
C738 C 0.61271 0.04288 0.34511 0.0
C739 C 0.62682 0.08767 0.36103 0.0
C740 C 0.56061 0.0046 0.34241 0.0
C741 C 0.52158 0.01037 0.35557 0.0
C742 C 0.53612 0.05468 0.37191 0.0
C743 C 0.58767 0.09252 0.37461 0.0
H744 H 0.35631 0.2905 0.74458 0.0
H745 H 0.38847 0.1847 0.78876 0.0
H746 H 0.30192 0.28742 0.78432 0.0
H747 H 0.33635 0.1829 0.82914 0.0
H748 H 0.2162 0.16441 0.89306 0.0
H749 H 0.25834 0.15953 0.85002 0.0
H750 H 0.3065 0.31724 0.83123 0.0
H751 H 0.26073 0.32091 0.87339 0.0
C752 C 0.35043 0.26537 0.76252 0.0
C753 C 0.37486 0.23612 0.76299 0.0
C754 C 0.32007 0.26435 0.78568 0.0
C755 C 0.31457 0.23526 0.8105 0.0
C756 C 0.33837 0.20513 0.81049 0.0
C757 C 0.36819 0.20578 0.78718 0.0
C758 C 0.23492 0.19802 0.87962 0.0
C759 C 0.23413 0.24298 0.88699 0.0
C760 C 0.26004 0.1954 0.85489 0.0
C761 C 0.28624 0.23787 0.83664 0.0
C762 C 0.28617 0.28317 0.84418 0.0
C763 C 0.2605 0.28564 0.86885 0.0
H764 H 0.94312 0.21554 0.19756 0.0
H765 H 0.07899 0.28614 0.25097 0.0
H766 H 0.9965 0.25253 0.15476 0.0
H767 H 0.132 0.32507 0.20903 0.0
H768 H 0.22743 0.35435 0.1318 0.0
H769 H 0.16753 0.30824 0.17021 0.0
H770 H 0.0494 0.32322 0.12561 0.0
H771 H 0.10937 0.36699 0.08625 0.0
C772 C 0.98431 0.23984 0.20019 0.0
C773 C 1.00678 0.24774 0.2277 0.0
C774 C 0.01513 0.26112 0.17561 0.0
C775 C 0.06926 0.29131 0.17793 0.0
C776 C 0.091 0.30074 0.20579 0.0
C777 C 0.06044 0.27896 0.2301 0.0
C778 C 0.18828 0.34672 0.1299 0.0
C779 C 0.17328 0.36422 0.1059 0.0
C780 C 0.15387 0.32093 0.15226 0.0
C781 C 0.10347 0.31304 0.15189 0.0
C782 C 0.08762 0.32832 0.12702 0.0
C783 C 0.12204 0.35346 0.10429 0.0
H784 H 0.69444 0.96161 0.53633 0.0
H785 H 0.85234 0.06505 0.561 0.0
H786 H 0.70378 0.01737 0.49612 0.0
H787 H 0.86265 0.11844 0.52 0.0
H788 H 0.85149 0.23486 0.46292 0.0
H789 H 0.84302 0.17809 0.50214 0.0
H790 H 0.73948 0.04728 0.45013 0.0
H791 H 0.74615 0.1049 0.41144 0.0
C792 C 0.73115 0.99613 0.5333 0.0
C793 C 0.77258 0.00827 0.55217 0.0
C794 C 0.73683 0.02788 0.50983 0.0
C795 C 0.78414 0.07278 0.50441 0.0
C796 C 0.82536 0.08483 0.52338 0.0
C797 C 0.81959 0.05347 0.54687 0.0
C798 C 0.82733 0.19392 0.45977 0.0
C799 C 0.80013 0.17453 0.43386 0.0
C800 C 0.82258 0.16109 0.48229 0.0
C801 C 0.79044 0.10757 0.47965 0.0
C802 C 0.76396 0.08811 0.45338 0.0
C803 C 0.76841 0.12115 0.43091 0.0
H804 H 0.65509 0.75493 0.73603 0.0
H805 H 0.62765 0.84928 0.79458 0.0
H806 H 0.70405 0.74072 0.77352 0.0
H807 H 0.6747 0.83339 0.83235 0.0
H808 H 0.70682 0.74088 0.90081 0.0
H809 H 0.6607 0.75519 0.86154 0.0
H810 H 0.78649 0.79029 0.80441 0.0
H811 H 0.83278 0.77674 0.84373 0.0
C812 C 0.6603 0.77346 0.7567 0.0
C813 C 0.6382 0.80415 0.76203 0.0
C814 C 0.68801 0.76492 0.77831 0.0
C815 C 0.69292 0.78543 0.80613 0.0
C816 C 0.67119 0.81644 0.81134 0.0
C817 C 0.64454 0.82588 0.78959 0.0
C818 C 0.7243 0.75102 0.87978 0.0
C819 C 0.77352 0.75764 0.87548 0.0
C820 C 0.69813 0.75972 0.85732 0.0
C821 C 0.71999 0.77425 0.82978 0.0
C822 C 0.7684 0.77903 0.82525 0.0
C823 C 0.79497 0.77136 0.84782 0.0
H824 H 0.05471 0.82181 0.17912 0.0
H825 H 0.95894 0.69612 0.23488 0.0
H826 H 0.99796 0.77624 0.13842 0.0
H827 H 0.90167 0.65052 0.19412 0.0
H828 H 0.77947 0.61536 0.12287 0.0
H829 H 0.83919 0.66108 0.1624 0.0
H830 H 0.9672 0.69768 0.10677 0.0
H831 H 0.90721 0.65026 0.06746 0.0
C832 C 0.02169 0.7842 0.18268 0.0
C833 C 0.01157 0.76277 0.21045 0.0
C834 C 0.98916 0.75795 0.15924 0.0
C835 C 0.94478 0.7097 0.16283 0.0
C836 C 0.9351 0.68781 0.1905 0.0
C837 C 0.96825 0.71372 0.21388 0.0
C838 C 0.82038 0.63352 0.11894 0.0
C839 C 0.83827 0.62964 0.09168 0.0
C840 C 0.85471 0.65943 0.14175 0.0
C841 C 0.90827 0.68294 0.13805 0.0
C842 C 0.92633 0.68034 0.11053 0.0
C843 C 0.89184 0.65345 0.08782 0.0
H844 H 0.16542 0.96808 0.55801 0.0
H845 H 0.32805 0.05795 0.54089 0.0
H846 H 0.15261 0.9194 0.51434 0.0
H847 H 0.31574 0.00637 0.49792 0.0
H848 H 0.28016 0.93135 0.41057 0.0
H849 H 0.28557 0.98684 0.45041 0.0
H850 H 0.16199 0.85593 0.49281 0.0
H851 H 0.15586 0.80175 0.45241 0.0
C852 C 0.19873 0.97769 0.54498 0.0
C853 C 0.24786 0.01794 0.55319 0.0
C854 C 0.19136 0.94893 0.51987 0.0
C855 C 0.23291 0.9585 0.50205 0.0
C856 C 0.28232 0.9981 0.51051 0.0
C857 C 0.28965 0.02734 0.53561 0.0
C858 C 0.25267 0.91513 0.42787 0.0
C859 C 0.21624 0.86253 0.42779 0.0
C860 C 0.2565 0.9467 0.45115 0.0
C861 C 0.22484 0.92628 0.47546 0.0
C862 C 0.18679 0.87385 0.47461 0.0
C863 C 0.18274 0.84253 0.4512 0.0
loop_
_geom_bond_atom_site_label_1
_geom_bond_atom_site_label_2
_geom_bond_distance
_geom_bond_site_symmetry_2
_ccdc_geom_bond_type
Eu0 N31 2.657 . S
Eu0 N38 2.609 . S
Eu0 O44 2.558 . S
Eu0 O45 2.612 . S
Eu0 O47 2.339 . S
Eu0 O48 2.563 . S
Eu0 O49 2.419 . S
Eu0 O51 2.380 1_554 S
Eu0 O52 2.432 . S
Eu0 C64 2.848 . S
C1 C4 1.429 . S
C1 C5 1.411 . S
C1 N8 1.377 1_554 S
C2 C4 1.420 . S
C2 C6 1.423 . S
C2 C14 1.392 . S
C3 C5 1.420 . S
C3 C6 1.351 . S
C3 H26 0.931 1_455 S
C4 C1 1.429 . S
C4 C2 1.420 . S
C4 N12 1.362 . S
C5 C1 1.411 . S
C5 C3 1.420 . S
C5 C10 1.395 1_454 S
C6 C2 1.423 . S
C6 C3 1.351 . S
C6 H18 0.930 . S
C7 C9 1.416 . S
C7 C10 1.392 1_455 S
C7 H19 0.908 1_455 S
N8 C1 1.377 1_556 S
N8 C9 1.321 . S
N8 Eu11 2.609 . S
C9 C7 1.416 . S
C9 N8 1.321 . S
C9 H16 0.930 . S
C10 C5 1.395 1_656 S
C10 C7 1.392 1_655 S
C10 H29 0.930 . S
Eu11 N8 2.609 . S
Eu11 N12 2.657 1_556 S
Eu11 O45 2.380 1_556 S
Eu11 O46 2.432 . S
Eu11 O50 2.558 . S
Eu11 O51 2.612 . S
Eu11 O53 2.339 1_556 S
Eu11 O54 2.563 . S
Eu11 O55 2.419 . S
Eu11 C75 2.848 . S
N12 C4 1.362 . S
N12 Eu11 2.657 1_554 S
N12 C13 1.334 . S
C13 N12 1.334 . S
C13 C15 1.413 . S
C13 H20 0.929 . S
C14 C2 1.392 . S
C14 C15 1.367 . S
C14 H22 0.930 . S
C15 C13 1.413 . S
C15 C14 1.367 . S
C15 H17 0.930 . S
H16 C9 0.930 . S
H17 C15 0.930 . S
H18 C6 0.930 . S
H19 C7 0.908 1_655 S
H20 C13 0.929 . S
H21 C35 0.930 . S
H22 C14 0.930 . S
H23 C41 0.930 . S
H24 C32 0.929 . S
H25 C39 0.930 . S
H26 C3 0.931 1_655 S
H27 C33 0.930 . S
H28 C66 0.930 . S
H29 C10 0.930 . S
H30 C65 0.931 . S
N31 Eu0 2.657 . S
N31 C32 1.334 1_554 S
N31 C36 1.362 . S
C32 H24 0.929 . S
C32 N31 1.334 1_556 S
C32 C35 1.413 . S
C33 H27 0.930 . S
C33 C34 1.392 . S
C33 C35 1.367 . S
C34 C33 1.392 . S
C34 C36 1.420 1_556 S
C34 C66 1.423 . S
C35 H21 0.930 . S
C35 C32 1.413 . S
C35 C33 1.367 . S
C36 N31 1.362 . S
C36 C34 1.420 1_554 S
C36 C40 1.429 . S
H37 C42 0.930 . S
N38 Eu0 2.609 . S
N38 C40 1.377 . S
N38 C41 1.321 . S
C39 H25 0.930 . S
C39 C41 1.400 . S
C39 C42 1.386 . S
C40 C36 1.429 . S
C40 N38 1.377 . S
C40 C43 1.411 . S
C41 H23 0.930 . S
C41 N38 1.321 . S
C41 C39 1.400 . S
C42 H37 0.930 . S
C42 C39 1.386 . S
C42 C43 1.395 . S
C43 C40 1.411 . S
C43 C42 1.395 . S
C43 C65 1.420 . S
O44 Eu0 2.558 . S
O44 C64 1.257 . S
O45 Eu0 2.612 . S
O45 Eu11 2.380 1_554 S
O45 C56 1.276 . S
O46 Eu11 2.432 . S
O46 C63 1.264 1_556 S
O47 Eu0 2.339 . S
O47 C63 1.254 . S
O48 Eu0 2.563 . S
O48 C56 1.235 . S
O49 Eu0 2.419 . S
O49 C64 1.249 . S
O50 Eu11 2.558 . S
O50 C75 1.257 . S
O51 Eu0 2.380 1_556 S
O51 Eu11 2.612 . S
O51 C67 1.276 . S
O52 Eu0 2.432 . S
O52 C74 1.264 . S
O53 Eu11 2.339 1_554 S
O53 C74 1.254 . S
O54 Eu11 2.563 . S
O54 C67 1.235 . S
O55 Eu11 2.419 . S
O55 C75 1.249 . S
C56 O45 1.276 . S
C56 O48 1.235 . S
C57 C59 1.393 . S
C57 C61 1.395 . S
C57 C64 1.492 . S
C58 C59 1.392 . S
C58 C60 1.386 . S
C59 C57 1.393 . S
C59 C58 1.392 . S
C59 H76 0.930 . S
C60 C58 1.386 . S
C60 C62 1.395 . S
C60 H77 0.930 . S
C61 C57 1.395 . S
C61 C62 1.379 . S
C61 H78 0.930 . S
C62 C60 1.395 . S
C62 C61 1.379 . S
C62 H79 0.930 . S
C63 O46 1.264 1_554 S
C63 O47 1.254 . S
C64 Eu0 2.848 . S
C64 O44 1.257 . S
C64 O49 1.249 . S
C64 C57 1.492 . S
C65 H30 0.931 . S
C65 C43 1.420 . S
C65 C66 1.351 1_554 S
C66 H28 0.930 . S
C66 C34 1.423 . S
C66 C65 1.351 1_556 S
C67 O51 1.276 . S
C67 O54 1.235 . S
C68 C69 1.393 . S
C68 C72 1.395 . S
C68 C75 1.492 . S
C69 C68 1.393 . S
C69 C70 1.392 . S
C69 H80 0.930 . S
C70 C69 1.392 . S
C70 C71 1.386 . S
C71 C70 1.386 . S
C71 C73 1.395 . S
C71 H81 0.930 . S
C72 C68 1.395 . S
C72 C73 1.379 . S
C72 H82 0.930 . S
C73 C71 1.395 . S
C73 C72 1.379 . S
C73 H83 0.930 . S
C74 O52 1.264 . S
C74 O53 1.254 . S
C75 Eu11 2.848 . S
C75 O50 1.257 . S
C75 O55 1.249 . S
C75 C68 1.492 . S
H76 C59 0.930 . S
H77 C60 0.930 . S
H78 C61 0.930 . S
H79 C62 0.930 . S
H80 C69 0.930 . S
H81 C71 0.930 . S
H82 C72 0.930 . S
H83 C73 0.930 . S
Eu84 N115 2.657 . S
Eu84 N122 2.609 . S
Eu84 O128 2.558 . S
Eu84 O129 2.612 . S
Eu84 O131 2.339 . S
Eu84 O132 2.563 . S
Eu84 O133 2.419 . S
Eu84 O135 2.380 . S
Eu84 O136 2.432 . S
Eu84 C148 2.848 . S
C85 C88 1.429 . S
C85 C89 1.411 . S
C85 N92 1.377 . S
C86 C88 1.420 . S
C86 C90 1.423 . S
C86 C98 1.392 . S
C87 C89 1.420 . S
C87 C90 1.351 . S
C87 H110 0.931 1_545 S
C88 C85 1.429 . S
C88 C86 1.420 . S
C88 N96 1.362 . S
C89 C85 1.411 . S
C89 C87 1.420 . S
C89 C94 1.395 1_545 S
C90 C86 1.423 . S
C90 C87 1.351 . S
C90 H102 0.930 . S
C91 C93 1.425 . S
C91 C94 1.370 1_545 S
C91 H103 0.921 1_545 S
N92 C85 1.377 . S
N92 C93 1.321 . S
N92 Eu95 2.609 . S
C93 C91 1.425 . S
C93 N92 1.321 . S
C93 H100 0.930 . S
C94 C89 1.395 1_565 S
C94 C91 1.370 1_565 S
C94 H113 0.930 . S
Eu95 N92 2.609 . S
Eu95 N96 2.657 . S
Eu95 O129 2.380 . S
Eu95 O130 2.432 . S
Eu95 O134 2.558 . S
Eu95 O135 2.612 . S
Eu95 O137 2.339 . S
Eu95 O138 2.563 . S
Eu95 O139 2.419 . S
Eu95 C159 2.848 . S
N96 C88 1.362 . S
N96 Eu95 2.657 . S
N96 C97 1.334 . S
C97 N96 1.334 . S
C97 C99 1.413 . S
C97 H104 0.929 . S
C98 C86 1.392 . S
C98 C99 1.367 . S
C98 H106 0.930 . S
C99 C97 1.413 . S
C99 C98 1.367 . S
C99 H101 0.930 . S
H100 C93 0.930 . S
H101 C99 0.930 . S
H102 C90 0.930 . S
H103 C91 0.921 1_565 S
H104 C97 0.929 . S
H105 C119 0.930 . S
H106 C98 0.930 . S
H107 C125 0.930 . S
H108 C116 0.929 . S
H109 C123 0.930 . S
H110 C87 0.931 1_565 S
H111 C117 0.930 . S
H112 C150 0.930 . S
H113 C94 0.930 . S
H114 C149 0.931 . S
N115 Eu84 2.657 . S
N115 C116 1.334 . S
N115 C120 1.362 . S
C116 H108 0.929 . S
C116 N115 1.334 . S
C116 C119 1.413 . S
C117 H111 0.930 . S
C117 C118 1.392 . S
C117 C119 1.367 . S
C118 C117 1.392 . S
C118 C120 1.420 . S
C118 C150 1.423 . S
C119 H105 0.930 . S
C119 C116 1.413 . S
C119 C117 1.367 . S
C120 N115 1.362 . S
C120 C118 1.420 . S
C120 C124 1.429 . S
H121 C126 0.930 . S
N122 Eu84 2.609 . S
N122 C124 1.377 . S
N122 C125 1.321 . S
C123 H109 0.930 . S
C123 C125 1.400 . S
C123 C126 1.386 . S
C124 C120 1.429 . S
C124 N122 1.377 . S
C124 C127 1.411 . S
C125 H107 0.930 . S
C125 N122 1.321 . S
C125 C123 1.400 . S
C126 H121 0.930 . S
C126 C123 1.386 . S
C126 C127 1.395 . S
C127 C124 1.411 . S
C127 C126 1.395 . S
C127 C149 1.420 . S
O128 Eu84 2.558 . S
O128 C148 1.257 . S
O129 Eu84 2.612 . S
O129 Eu95 2.380 . S
O129 C140 1.276 . S
O130 Eu95 2.432 . S
O130 C147 1.264 . S
O131 Eu84 2.339 . S
O131 C147 1.254 . S
O132 Eu84 2.563 . S
O132 C140 1.235 . S
O133 Eu84 2.419 . S
O133 C148 1.249 . S
O134 Eu95 2.558 . S
O134 C159 1.257 . S
O135 Eu84 2.380 . S
O135 Eu95 2.612 . S
O135 C151 1.276 . S
O136 Eu84 2.432 . S
O136 C158 1.264 . S
O137 Eu95 2.339 . S
O137 C158 1.254 . S
O138 Eu95 2.563 . S
O138 C151 1.235 . S
O139 Eu95 2.419 . S
O139 C159 1.249 . S
C140 O129 1.276 . S
C140 O132 1.235 . S
C141 C143 1.393 . S
C141 C145 1.395 . S
C141 C148 1.492 . S
C142 C143 1.392 . S
C142 C144 1.386 . S
C143 C141 1.393 . S
C143 C142 1.392 . S
C143 H160 0.930 . S
C144 C142 1.386 . S
C144 C146 1.395 . S
C144 H161 0.930 . S
C145 C141 1.395 . S
C145 C146 1.379 . S
C145 H162 0.930 . S
C146 C144 1.395 . S
C146 C145 1.379 . S
C146 H163 0.930 . S
C147 O130 1.264 . S
C147 O131 1.254 . S
C148 Eu84 2.848 . S
C148 O128 1.257 . S
C148 O133 1.249 . S
C148 C141 1.492 . S
C149 H114 0.931 . S
C149 C127 1.420 . S
C149 C150 1.351 . S
C150 H112 0.930 . S
C150 C118 1.423 . S
C150 C149 1.351 . S
C151 O135 1.276 . S
C151 O138 1.235 . S
C152 C153 1.393 . S
C152 C156 1.395 . S
C152 C159 1.492 . S
C153 C152 1.393 . S
C153 C154 1.392 . S
C153 H164 0.930 . S
C154 C153 1.392 . S
C154 C155 1.386 . S
C155 C154 1.386 . S
C155 C157 1.395 . S
C155 H165 0.930 . S
C156 C152 1.395 . S
C156 C157 1.379 . S
C156 H166 0.930 . S
C157 C155 1.395 . S
C157 C156 1.379 . S
C157 H167 0.930 . S
C158 O136 1.264 . S
C158 O137 1.254 . S
C159 Eu95 2.848 . S
C159 O134 1.257 . S
C159 O139 1.249 . S
C159 C152 1.492 . S
H160 C143 0.930 . S
H161 C144 0.930 . S
H162 C145 0.930 . S
H163 C146 0.930 . S
H164 C153 0.930 . S
H165 C155 0.930 . S
H166 C156 0.930 . S
H167 C157 0.930 . S
Eu168 N199 2.657 . S
Eu168 N206 2.609 . S
Eu168 O212 2.558 . S
Eu168 O213 2.612 . S
Eu168 O215 2.339 . S
Eu168 O216 2.563 . S
Eu168 O217 2.419 . S
Eu168 O219 2.380 . S
Eu168 O220 2.432 . S
Eu168 C232 2.848 . S
C169 C172 1.429 . S
C169 C173 1.411 . S
C169 N176 1.377 . S
C170 C172 1.420 . S
C170 C174 1.423 . S
C170 C182 1.392 . S
C171 C173 1.420 . S
C171 C174 1.351 . S
C171 H194 0.931 . S
C172 C169 1.429 . S
C172 C170 1.420 . S
C172 N180 1.362 . S
C173 C169 1.411 . S
C173 C171 1.420 . S
C173 C178 1.395 . S
C174 C170 1.423 . S
C174 C171 1.351 . S
C174 H186 0.930 . S
C175 C177 1.400 . S
C175 C178 1.386 . S
C175 H187 0.930 . S
N176 C169 1.377 . S
N176 C177 1.321 . S
N176 Eu179 2.609 . S
C177 C175 1.400 . S
C177 N176 1.321 . S
C177 H184 0.930 . S
C178 C173 1.395 . S
C178 C175 1.386 . S
C178 H197 0.930 . S
Eu179 N176 2.609 . S
Eu179 N180 2.657 . S
Eu179 O213 2.380 . S
Eu179 O214 2.432 . S
Eu179 O218 2.558 . S
Eu179 O219 2.612 . S
Eu179 O221 2.339 . S
Eu179 O222 2.563 . S
Eu179 O223 2.419 . S
Eu179 C243 2.848 . S
N180 C172 1.362 . S
N180 Eu179 2.657 . S
N180 C181 1.334 . S
C181 N180 1.334 . S
C181 C183 1.413 . S
C181 H188 0.929 . S
C182 C170 1.392 . S
C182 C183 1.367 . S
C182 H190 0.930 . S
C183 C181 1.413 . S
C183 C182 1.367 . S
C183 H185 0.930 . S
H184 C177 0.930 . S
H185 C183 0.930 . S
H186 C174 0.930 . S
H187 C175 0.930 . S
H188 C181 0.929 . S
H189 C203 0.930 . S
H190 C182 0.930 . S
H191 C209 0.930 . S
H192 C200 0.929 . S
H193 C207 0.930 . S
H194 C171 0.931 . S
H195 C201 0.930 . S
H196 C234 0.930 . S
H197 C178 0.930 . S
H198 C233 0.931 . S
N199 Eu168 2.657 . S
N199 C200 1.334 . S
N199 C204 1.362 . S
C200 H192 0.929 . S
C200 N199 1.334 . S
C200 C203 1.413 . S
C201 H195 0.930 . S
C201 C202 1.392 . S
C201 C203 1.367 . S
C202 C201 1.392 . S
C202 C204 1.420 . S
C202 C234 1.423 . S
C203 H189 0.930 . S
C203 C200 1.413 . S
C203 C201 1.367 . S
C204 N199 1.362 . S
C204 C202 1.420 . S
C204 C208 1.429 . S
H205 C210 0.930 . S
N206 Eu168 2.609 . S
N206 C208 1.377 . S
N206 C209 1.321 . S
C207 H193 0.930 . S
C207 C209 1.400 . S
C207 C210 1.386 . S
C208 C204 1.429 . S
C208 N206 1.377 . S
C208 C211 1.411 . S
C209 H191 0.930 . S
C209 N206 1.321 . S
C209 C207 1.400 . S
C210 H205 0.930 . S
C210 C207 1.386 . S
C210 C211 1.395 . S
C211 C208 1.411 . S
C211 C210 1.395 . S
C211 C233 1.420 . S
O212 Eu168 2.558 . S
O212 C232 1.257 . S
O213 Eu168 2.612 . S
O213 Eu179 2.380 . S
O213 C224 1.276 . S
O214 Eu179 2.432 . S
O214 C231 1.264 . S
O215 Eu168 2.339 . S
O215 C231 1.254 . S
O216 Eu168 2.563 . S
O216 C224 1.235 . S
O217 Eu168 2.419 . S
O217 C232 1.249 . S
O218 Eu179 2.558 . S
O218 C243 1.257 . S
O219 Eu168 2.380 . S
O219 Eu179 2.612 . S
O219 C235 1.276 . S
O220 Eu168 2.432 . S
O220 C242 1.264 . S
O221 Eu179 2.339 . S
O221 C242 1.254 . S
O222 Eu179 2.563 . S
O222 C235 1.235 . S
O223 Eu179 2.419 . S
O223 C243 1.249 . S
C224 O213 1.276 . S
C224 O216 1.235 . S
C225 C227 1.393 . S
C225 C229 1.395 . S
C225 C232 1.492 . S
C226 C227 1.392 . S
C226 C228 1.386 . S
C227 C225 1.393 . S
C227 C226 1.392 . S
C227 H244 0.930 . S
C228 C226 1.386 . S
C228 C230 1.395 . S
C228 H245 0.930 . S
C229 C225 1.395 . S
C229 C230 1.379 . S
C229 H246 0.930 . S
C230 C228 1.395 . S
C230 C229 1.379 . S
C230 H247 0.930 . S
C231 O214 1.264 . S
C231 O215 1.254 . S
C232 Eu168 2.848 . S
C232 O212 1.257 . S
C232 O217 1.249 . S
C232 C225 1.492 . S
C233 H198 0.931 . S
C233 C211 1.420 . S
C233 C234 1.351 . S
C234 H196 0.930 . S
C234 C202 1.423 . S
C234 C233 1.351 . S
C235 O219 1.276 . S
C235 O222 1.235 . S
C236 C237 1.393 . S
C236 C240 1.395 . S
C236 C243 1.492 . S
C237 C236 1.393 . S
C237 C238 1.392 . S
C237 H248 0.930 . S
C238 C237 1.392 . S
C238 C239 1.386 . S
C239 C238 1.386 . S
C239 C241 1.395 . S
C239 H249 0.930 . S
C240 C236 1.395 . S
C240 C241 1.379 . S
C240 H250 0.930 . S
C241 C239 1.395 . S
C241 C240 1.379 . S
C241 H251 0.930 . S
C242 O220 1.264 . S
C242 O221 1.254 . S
C243 Eu179 2.848 . S
C243 O218 1.257 . S
C243 O223 1.249 . S
C243 C236 1.492 . S
H244 C227 0.930 . S
H245 C228 0.930 . S
H246 C229 0.930 . S
H247 C230 0.930 . S
H248 C237 0.930 . S
H249 C239 0.930 . S
H250 C240 0.930 . S
H251 C241 0.930 . S
Eu252 N283 2.657 . S
Eu252 N290 2.609 . S
Eu252 O296 2.558 . S
Eu252 O297 2.612 . S
Eu252 O299 2.339 . S
Eu252 O300 2.563 . S
Eu252 O301 2.419 . S
Eu252 O303 2.380 1_554 S
Eu252 O304 2.432 . S
Eu252 C316 2.848 . S
C253 C256 1.429 . S
C253 C257 1.411 . S
C253 N260 1.377 1_554 S
C254 C256 1.420 . S
C254 C258 1.423 . S
C254 C266 1.392 . S
C255 C257 1.420 . S
C255 C258 1.351 . S
C255 H278 0.931 1_655 S
C256 C253 1.429 . S
C256 C254 1.420 . S
C256 N264 1.362 . S
C257 C253 1.411 . S
C257 C255 1.420 . S
C257 C262 1.395 1_654 S
C258 C254 1.423 . S
C258 C255 1.351 . S
C258 H270 0.930 . S
C259 C261 1.416 . S
C259 C262 1.392 1_655 S
C259 H271 0.908 1_655 S
N260 C253 1.377 1_556 S
N260 C261 1.321 . S
N260 Eu263 2.609 . S
C261 C259 1.416 . S
C261 N260 1.321 . S
C261 H268 0.930 . S
C262 C257 1.395 1_456 S
C262 C259 1.392 1_455 S
C262 H281 0.930 . S
Eu263 N260 2.609 . S
Eu263 N264 2.657 1_556 S
Eu263 O297 2.380 1_556 S
Eu263 O298 2.432 . S
Eu263 O302 2.558 . S
Eu263 O303 2.612 . S
Eu263 O305 2.339 1_556 S
Eu263 O306 2.563 . S
Eu263 O307 2.419 . S
Eu263 C327 2.848 . S
N264 C256 1.362 . S
N264 Eu263 2.657 1_554 S
N264 C265 1.334 . S
C265 N264 1.334 . S
C265 C267 1.413 . S
C265 H272 0.929 . S
C266 C254 1.392 . S
C266 C267 1.367 . S
C266 H274 0.930 . S
C267 C265 1.413 . S
C267 C266 1.367 . S
C267 H269 0.930 . S
H268 C261 0.930 . S
H269 C267 0.930 . S
H270 C258 0.930 . S
H271 C259 0.908 1_455 S
H272 C265 0.929 . S
H273 C287 0.930 . S
H274 C266 0.930 . S
H275 C293 0.930 . S
H276 C284 0.929 . S
H277 C291 0.930 . S
H278 C255 0.931 1_455 S
H279 C285 0.930 . S
H280 C318 0.930 . S
H281 C262 0.930 . S
H282 C317 0.931 . S
N283 Eu252 2.657 . S
N283 C284 1.334 1_554 S
N283 C288 1.362 . S
C284 H276 0.929 . S
C284 N283 1.334 1_556 S
C284 C287 1.413 . S
C285 H279 0.930 . S
C285 C286 1.392 . S
C285 C287 1.367 . S
C286 C285 1.392 . S
C286 C288 1.420 1_556 S
C286 C318 1.423 . S
C287 H273 0.930 . S
C287 C284 1.413 . S
C287 C285 1.367 . S
C288 N283 1.362 . S
C288 C286 1.420 1_554 S
C288 C292 1.429 . S
H289 C294 0.930 . S
N290 Eu252 2.609 . S
N290 C292 1.377 . S
N290 C293 1.321 . S
C291 H277 0.930 . S
C291 C293 1.400 . S
C291 C294 1.386 . S
C292 C288 1.429 . S
C292 N290 1.377 . S
C292 C295 1.411 . S
C293 H275 0.930 . S
C293 N290 1.321 . S
C293 C291 1.400 . S
C294 H289 0.930 . S
C294 C291 1.386 . S
C294 C295 1.395 . S
C295 C292 1.411 . S
C295 C294 1.395 . S
C295 C317 1.420 . S
O296 Eu252 2.558 . S
O296 C316 1.257 . S
O297 Eu252 2.612 . S
O297 Eu263 2.380 1_554 S
O297 C308 1.276 . S
O298 Eu263 2.432 . S
O298 C315 1.264 1_556 S
O299 Eu252 2.339 . S
O299 C315 1.254 . S
O300 Eu252 2.563 . S
O300 C308 1.235 . S
O301 Eu252 2.419 . S
O301 C316 1.249 . S
O302 Eu263 2.558 . S
O302 C327 1.257 . S
O303 Eu252 2.380 1_556 S
O303 Eu263 2.612 . S
O303 C319 1.276 . S
O304 Eu252 2.432 . S
O304 C326 1.264 . S
O305 Eu263 2.339 1_554 S
O305 C326 1.254 . S
O306 Eu263 2.563 . S
O306 C319 1.235 . S
O307 Eu263 2.419 . S
O307 C327 1.249 . S
C308 O297 1.276 . S
C308 O300 1.235 . S
C309 C311 1.393 . S
C309 C313 1.395 . S
C309 C316 1.492 . S
C310 C311 1.392 . S
C310 C312 1.386 . S
C311 C309 1.393 . S
C311 C310 1.392 . S
C311 H328 0.930 . S
C312 C310 1.386 . S
C312 C314 1.395 . S
C312 H329 0.930 . S
C313 C309 1.395 . S
C313 C314 1.379 . S
C313 H330 0.930 . S
C314 C312 1.395 . S
C314 C313 1.379 . S
C314 H331 0.930 . S
C315 O298 1.264 1_554 S
C315 O299 1.254 . S
C316 Eu252 2.848 . S
C316 O296 1.257 . S
C316 O301 1.249 . S
C316 C309 1.492 . S
C317 H282 0.931 . S
C317 C295 1.420 . S
C317 C318 1.351 1_554 S
C318 H280 0.930 . S
C318 C286 1.423 . S
C318 C317 1.351 1_556 S
C319 O303 1.276 . S
C319 O306 1.235 . S
C320 C321 1.393 . S
C320 C324 1.395 . S
C320 C327 1.492 . S
C321 C320 1.393 . S
C321 C322 1.392 . S
C321 H332 0.930 . S
C322 C321 1.392 . S
C322 C323 1.386 . S
C323 C322 1.386 . S
C323 C325 1.395 . S
C323 H333 0.930 . S
C324 C320 1.395 . S
C324 C325 1.379 . S
C324 H334 0.930 . S
C325 C323 1.395 . S
C325 C324 1.379 . S
C325 H335 0.930 . S
C326 O304 1.264 . S
C326 O305 1.254 . S
C327 Eu263 2.848 . S
C327 O302 1.257 . S
C327 O307 1.249 . S
C327 C320 1.492 . S
H328 C311 0.930 . S
H329 C312 0.930 . S
H330 C313 0.930 . S
H331 C314 0.930 . S
H332 C321 0.930 . S
H333 C323 0.930 . S
H334 C324 0.930 . S
H335 C325 0.930 . S
Eu336 N367 2.657 . S
Eu336 N374 2.609 . S
Eu336 O380 2.558 . S
Eu336 O381 2.612 . S
Eu336 O383 2.339 . S
Eu336 O384 2.563 . S
Eu336 O385 2.419 . S
Eu336 O387 2.380 . S
Eu336 O388 2.432 . S
Eu336 C400 2.848 . S
C337 C340 1.429 . S
C337 C341 1.411 . S
C337 N344 1.377 . S
C338 C340 1.420 . S
C338 C342 1.423 . S
C338 C350 1.392 . S
C339 C341 1.420 . S
C339 C342 1.351 . S
C339 H362 0.931 1_565 S
C340 C337 1.429 . S
C340 C338 1.420 . S
C340 N348 1.362 . S
C341 C337 1.411 . S
C341 C339 1.420 . S
C341 C346 1.395 1_565 S
C342 C338 1.423 . S
C342 C339 1.351 . S
C342 H354 0.930 . S
C343 C345 1.425 . S
C343 C346 1.370 1_565 S
C343 H355 0.921 1_565 S
N344 C337 1.377 . S
N344 C345 1.321 . S
N344 Eu347 2.609 . S
C345 C343 1.425 . S
C345 N344 1.321 . S
C345 H352 0.930 . S
C346 C341 1.395 1_545 S
C346 C343 1.370 1_545 S
C346 H365 0.930 . S
Eu347 N344 2.609 . S
Eu347 N348 2.657 . S
Eu347 O381 2.380 . S
Eu347 O382 2.432 . S
Eu347 O386 2.558 . S
Eu347 O387 2.612 . S
Eu347 O389 2.339 . S
Eu347 O390 2.563 . S
Eu347 O391 2.419 . S
Eu347 C411 2.848 . S
N348 C340 1.362 . S
N348 Eu347 2.657 . S
N348 C349 1.334 . S
C349 N348 1.334 . S
C349 C351 1.413 . S
C349 H356 0.929 . S
C350 C338 1.392 . S
C350 C351 1.367 . S
C350 H358 0.930 . S
C351 C349 1.413 . S
C351 C350 1.367 . S
C351 H353 0.930 . S
H352 C345 0.930 . S
H353 C351 0.930 . S
H354 C342 0.930 . S
H355 C343 0.921 1_545 S
H356 C349 0.929 . S
H357 C371 0.930 . S
H358 C350 0.930 . S
H359 C377 0.930 . S
H360 C368 0.929 . S
H361 C375 0.930 . S
H362 C339 0.931 1_545 S
H363 C369 0.930 . S
H364 C402 0.930 . S
H365 C346 0.930 . S
H366 C401 0.931 . S
N367 Eu336 2.657 . S
N367 C368 1.334 . S
N367 C372 1.362 . S
C368 H360 0.929 . S
C368 N367 1.334 . S
C368 C371 1.413 . S
C369 H363 0.930 . S
C369 C370 1.392 . S
C369 C371 1.367 . S
C370 C369 1.392 . S
C370 C372 1.420 . S
C370 C402 1.423 . S
C371 H357 0.930 . S
C371 C368 1.413 . S
C371 C369 1.367 . S
C372 N367 1.362 . S
C372 C370 1.420 . S
C372 C376 1.429 . S
H373 C378 0.930 . S
N374 Eu336 2.609 . S
N374 C376 1.377 . S
N374 C377 1.321 . S
C375 H361 0.930 . S
C375 C377 1.400 . S
C375 C378 1.386 . S
C376 C372 1.429 . S
C376 N374 1.377 . S
C376 C379 1.411 . S
C377 H359 0.930 . S
C377 N374 1.321 . S
C377 C375 1.400 . S
C378 H373 0.930 . S
C378 C375 1.386 . S
C378 C379 1.395 . S
C379 C376 1.411 . S
C379 C378 1.395 . S
C379 C401 1.420 . S
O380 Eu336 2.558 . S
O380 C400 1.257 . S
O381 Eu336 2.612 . S
O381 Eu347 2.380 . S
O381 C392 1.276 . S
O382 Eu347 2.432 . S
O382 C399 1.264 . S
O383 Eu336 2.339 . S
O383 C399 1.254 . S
O384 Eu336 2.563 . S
O384 C392 1.235 . S
O385 Eu336 2.419 . S
O385 C400 1.249 . S
O386 Eu347 2.558 . S
O386 C411 1.257 . S
O387 Eu336 2.380 . S
O387 Eu347 2.612 . S
O387 C403 1.276 . S
O388 Eu336 2.432 . S
O388 C410 1.264 . S
O389 Eu347 2.339 . S
O389 C410 1.254 . S
O390 Eu347 2.563 . S
O390 C403 1.235 . S
O391 Eu347 2.419 . S
O391 C411 1.249 . S
C392 O381 1.276 . S
C392 O384 1.235 . S
C393 C395 1.393 . S
C393 C397 1.395 . S
C393 C400 1.492 . S
C394 C395 1.392 . S
C394 C396 1.386 . S
C395 C393 1.393 . S
C395 C394 1.392 . S
C395 H412 0.930 . S
C396 C394 1.386 . S
C396 C398 1.395 . S
C396 H413 0.930 . S
C397 C393 1.395 . S
C397 C398 1.379 . S
C397 H414 0.930 . S
C398 C396 1.395 . S
C398 C397 1.379 . S
C398 H415 0.930 . S
C399 O382 1.264 . S
C399 O383 1.254 . S
C400 Eu336 2.848 . S
C400 O380 1.257 . S
C400 O385 1.249 . S
C400 C393 1.492 . S
C401 H366 0.931 . S
C401 C379 1.420 . S
C401 C402 1.351 . S
C402 H364 0.930 . S
C402 C370 1.423 . S
C402 C401 1.351 . S
C403 O387 1.276 . S
C403 O390 1.235 . S
C404 C405 1.393 . S
C404 C408 1.395 . S
C404 C411 1.492 . S
C405 C404 1.393 . S
C405 C406 1.392 . S
C405 H416 0.930 . S
C406 C405 1.392 . S
C406 C407 1.386 . S
C407 C406 1.386 . S
C407 C409 1.395 . S
C407 H417 0.930 . S
C408 C404 1.395 . S
C408 C409 1.379 . S
C408 H418 0.930 . S
C409 C407 1.395 . S
C409 C408 1.379 . S
C409 H419 0.930 . S
C410 O388 1.264 . S
C410 O389 1.254 . S
C411 Eu347 2.848 . S
C411 O386 1.257 . S
C411 O391 1.249 . S
C411 C404 1.492 . S
H412 C395 0.930 . S
H413 C396 0.930 . S
H414 C397 0.930 . S
H415 C398 0.930 . S
H416 C405 0.930 . S
H417 C407 0.930 . S
H418 C408 0.930 . S
H419 C409 0.930 . S
Eu420 N451 2.657 . S
Eu420 N458 2.609 . S
Eu420 O464 2.558 . S
Eu420 O465 2.612 . S
Eu420 O467 2.339 . S
Eu420 O468 2.563 . S
Eu420 O469 2.419 . S
Eu420 O471 2.380 . S
Eu420 O472 2.432 . S
Eu420 C484 2.848 . S
C421 C424 1.429 . S
C421 C425 1.411 . S
C421 N428 1.377 . S
C422 C424 1.420 . S
C422 C426 1.423 . S
C422 C434 1.392 . S
C423 C425 1.420 . S
C423 C426 1.351 . S
C423 H446 0.931 . S
C424 C421 1.429 . S
C424 C422 1.420 . S
C424 N432 1.362 . S
C425 C421 1.411 . S
C425 C423 1.420 . S
C425 C430 1.395 . S
C426 C422 1.423 . S
C426 C423 1.351 . S
C426 H438 0.930 . S
C427 C429 1.400 . S
C427 C430 1.386 . S
C427 H439 0.930 . S
N428 C421 1.377 . S
N428 C429 1.321 . S
N428 Eu431 2.609 . S
C429 C427 1.400 . S
C429 N428 1.321 . S
C429 H436 0.930 . S
C430 C425 1.395 . S
C430 C427 1.386 . S
C430 H449 0.930 . S
Eu431 N428 2.609 . S
Eu431 N432 2.657 . S
Eu431 O465 2.380 . S
Eu431 O466 2.432 . S
Eu431 O470 2.558 . S
Eu431 O471 2.612 . S
Eu431 O473 2.339 . S
Eu431 O474 2.563 . S
Eu431 O475 2.419 . S
Eu431 C495 2.848 . S
N432 C424 1.362 . S
N432 Eu431 2.657 . S
N432 C433 1.334 . S
C433 N432 1.334 . S
C433 C435 1.413 . S
C433 H440 0.929 . S
C434 C422 1.392 . S
C434 C435 1.367 . S
C434 H442 0.930 . S
C435 C433 1.413 . S
C435 C434 1.367 . S
C435 H437 0.930 . S
H436 C429 0.930 . S
H437 C435 0.930 . S
H438 C426 0.930 . S
H439 C427 0.930 . S
H440 C433 0.929 . S
H441 C455 0.930 . S
H442 C434 0.930 . S
H443 C461 0.930 . S
H444 C452 0.929 . S
H445 C459 0.930 . S
H446 C423 0.931 . S
H447 C453 0.930 . S
H448 C486 0.930 . S
H449 C430 0.930 . S
H450 C485 0.931 . S
N451 Eu420 2.657 . S
N451 C452 1.334 . S
N451 C456 1.362 . S
C452 H444 0.929 . S
C452 N451 1.334 . S
C452 C455 1.413 . S
C453 H447 0.930 . S
C453 C454 1.392 . S
C453 C455 1.367 . S
C454 C453 1.392 . S
C454 C456 1.420 . S
C454 C486 1.423 . S
C455 H441 0.930 . S
C455 C452 1.413 . S
C455 C453 1.367 . S
C456 N451 1.362 . S
C456 C454 1.420 . S
C456 C460 1.429 . S
H457 C462 0.930 . S
N458 Eu420 2.609 . S
N458 C460 1.377 . S
N458 C461 1.321 . S
C459 H445 0.930 . S
C459 C461 1.400 . S
C459 C462 1.386 . S
C460 C456 1.429 . S
C460 N458 1.377 . S
C460 C463 1.411 . S
C461 H443 0.930 . S
C461 N458 1.321 . S
C461 C459 1.400 . S
C462 H457 0.930 . S
C462 C459 1.386 . S
C462 C463 1.395 . S
C463 C460 1.411 . S
C463 C462 1.395 . S
C463 C485 1.420 . S
O464 Eu420 2.558 . S
O464 C484 1.257 . S
O465 Eu420 2.612 . S
O465 Eu431 2.380 . S
O465 C476 1.276 . S
O466 Eu431 2.432 . S
O466 C483 1.264 . S
O467 Eu420 2.339 . S
O467 C483 1.254 . S
O468 Eu420 2.563 . S
O468 C476 1.235 . S
O469 Eu420 2.419 . S
O469 C484 1.249 . S
O470 Eu431 2.558 . S
O470 C495 1.257 . S
O471 Eu420 2.380 . S
O471 Eu431 2.612 . S
O471 C487 1.276 . S
O472 Eu420 2.432 . S
O472 C494 1.264 . S
O473 Eu431 2.339 . S
O473 C494 1.254 . S
O474 Eu431 2.563 . S
O474 C487 1.235 . S
O475 Eu431 2.419 . S
O475 C495 1.249 . S
C476 O465 1.276 . S
C476 O468 1.235 . S
C477 C479 1.393 . S
C477 C481 1.395 . S
C477 C484 1.492 . S
C478 C479 1.392 . S
C478 C480 1.386 . S
C479 C477 1.393 . S
C479 C478 1.392 . S
C479 H496 0.930 . S
C480 C478 1.386 . S
C480 C482 1.395 . S
C480 H497 0.930 . S
C481 C477 1.395 . S
C481 C482 1.379 . S
C481 H498 0.930 . S
C482 C480 1.395 . S
C482 C481 1.379 . S
C482 H499 0.930 . S
C483 O466 1.264 . S
C483 O467 1.254 . S
C484 Eu420 2.848 . S
C484 O464 1.257 . S
C484 O469 1.249 . S
C484 C477 1.492 . S
C485 H450 0.931 . S
C485 C463 1.420 . S
C485 C486 1.351 . S
C486 H448 0.930 . S
C486 C454 1.423 . S
C486 C485 1.351 . S
C487 O471 1.276 . S
C487 O474 1.235 . S
C488 C489 1.393 . S
C488 C492 1.395 . S
C488 C495 1.492 . S
C489 C488 1.393 . S
C489 C490 1.392 . S
C489 H500 0.930 . S
C490 C489 1.392 . S
C490 C491 1.386 . S
C491 C490 1.386 . S
C491 C493 1.395 . S
C491 H501 0.930 . S
C492 C488 1.395 . S
C492 C493 1.379 . S
C492 H502 0.930 . S
C493 C491 1.395 . S
C493 C492 1.379 . S
C493 H503 0.930 . S
C494 O472 1.264 . S
C494 O473 1.254 . S
C495 Eu431 2.848 . S
C495 O470 1.257 . S
C495 O475 1.249 . S
C495 C488 1.492 . S
H496 C479 0.930 . S
H497 C480 0.930 . S
H498 C481 0.930 . S
H499 C482 0.930 . S
H500 C489 0.930 . S
H501 C491 0.930 . S
H502 C492 0.930 . S
H503 C493 0.930 . S
H504 C512 0.950 . S
H505 C517 0.950 . S
H506 C514 0.950 . S
H507 C516 0.950 . S
H508 C518 0.950 . S
H509 C520 0.950 . S
H510 C522 0.950 . S
H511 C523 0.950 . S
C512 H504 0.950 . S
C512 C513 1.386 . S
C512 C514 1.391 . S
C513 C512 1.386 . S
C513 C517 1.393 . S
C514 H506 0.950 . S
C514 C512 1.391 . S
C514 C515 1.400 . S
C515 C514 1.400 . S
C515 C516 1.398 . S
C515 C521 1.491 . S
C516 H507 0.950 . S
C516 C515 1.398 . S
C516 C517 1.391 . S
C517 H505 0.950 . S
C517 C513 1.393 . S
C517 C516 1.391 . S
C518 H508 0.950 . S
C518 C519 1.386 . S
C518 C520 1.391 . S
C519 C518 1.386 . S
C519 C523 1.393 . S
C520 H509 0.950 . S
C520 C518 1.391 . S
C520 C521 1.400 . S
C521 C515 1.491 . S
C521 C520 1.400 . S
C521 C522 1.398 . S
C522 H510 0.950 . S
C522 C521 1.398 . S
C522 C523 1.391 . S
C523 H511 0.950 . S
C523 C519 1.393 . S
C523 C522 1.391 . S
H524 C532 0.950 . S
H525 C537 0.950 . S
H526 C534 0.950 . S
H527 C536 0.950 . S
H528 C538 0.950 . S
H529 C540 0.950 . S
H530 C542 0.950 . S
H531 C543 0.950 . S
C532 H524 0.950 . S
C532 C533 1.386 . S
C532 C534 1.391 . S
C533 C532 1.386 . S
C533 C537 1.393 . S
C534 H526 0.950 . S
C534 C532 1.391 . S
C534 C535 1.400 . S
C535 C534 1.400 . S
C535 C536 1.398 . S
C535 C541 1.491 . S
C536 H527 0.950 . S
C536 C535 1.398 . S
C536 C537 1.391 . S
C537 H525 0.950 . S
C537 C533 1.393 . S
C537 C536 1.391 . S
C538 H528 0.950 . S
C538 C539 1.386 . S
C538 C540 1.391 . S
C539 C538 1.386 . S
C539 C543 1.393 . S
C540 H529 0.950 . S
C540 C538 1.391 . S
C540 C541 1.400 . S
C541 C535 1.491 . S
C541 C540 1.400 . S
C541 C542 1.398 . S
C542 H530 0.950 . S
C542 C541 1.398 . S
C542 C543 1.391 . S
C543 H531 0.950 . S
C543 C539 1.393 . S
C543 C542 1.391 . S
H544 C552 0.950 . S
H545 C557 0.950 . S
H546 C554 0.950 . S
H547 C556 0.950 . S
H548 C558 0.950 . S
H549 C560 0.950 . S
H550 C562 0.950 . S
H551 C563 0.950 . S
C552 H544 0.950 . S
C552 C553 1.386 . S
C552 C554 1.391 . S
C553 C552 1.386 . S
C553 C557 1.393 . S
C554 H546 0.950 . S
C554 C552 1.391 . S
C554 C555 1.400 . S
C555 C554 1.400 . S
C555 C556 1.398 . S
C555 C561 1.491 . S
C556 H547 0.950 . S
C556 C555 1.398 . S
C556 C557 1.391 . S
C557 H545 0.950 . S
C557 C553 1.393 . S
C557 C556 1.391 . S
C558 H548 0.950 . S
C558 C559 1.386 . S
C558 C560 1.391 . S
C559 C558 1.386 . S
C559 C563 1.393 . S
C560 H549 0.950 . S
C560 C558 1.391 . S
C560 C561 1.400 . S
C561 C555 1.491 . S
C561 C560 1.400 . S
C561 C562 1.398 . S
C562 H550 0.950 . S
C562 C561 1.398 . S
C562 C563 1.391 . S
C563 H551 0.950 . S
C563 C559 1.393 . S
C563 C562 1.391 . S
H564 C572 0.950 . S
H565 C577 0.950 . S
H566 C574 0.950 . S
H567 C576 0.950 . S
H568 C578 0.950 . S
H569 C580 0.950 . S
H570 C582 0.950 . S
H571 C583 0.950 . S
C572 H564 0.950 . S
C572 C573 1.386 . S
C572 C574 1.391 . S
C573 C572 1.386 . S
C573 C577 1.393 . S
C574 H566 0.950 . S
C574 C572 1.391 . S
C574 C575 1.400 . S
C575 C574 1.400 . S
C575 C576 1.398 . S
C575 C581 1.491 . S
C576 H567 0.950 . S
C576 C575 1.398 . S
C576 C577 1.391 . S
C577 H565 0.950 . S
C577 C573 1.393 . S
C577 C576 1.391 . S
C578 H568 0.950 . S
C578 C579 1.386 . S
C578 C580 1.391 . S
C579 C578 1.386 . S
C579 C583 1.393 . S
C580 H569 0.950 . S
C580 C578 1.391 . S
C580 C581 1.400 . S
C581 C575 1.491 . S
C581 C580 1.400 . S
C581 C582 1.398 . S
C582 H570 0.950 . S
C582 C581 1.398 . S
C582 C583 1.391 . S
C583 H571 0.950 . S
C583 C579 1.393 . S
C583 C582 1.391 . S
H584 C592 0.950 . S
H585 C597 0.950 . S
H586 C594 0.950 . S
H587 C596 0.950 . S
H588 C598 0.950 . S
H589 C600 0.950 . S
H590 C602 0.950 . S
H591 C603 0.950 . S
C592 H584 0.950 . S
C592 C593 1.386 . S
C592 C594 1.391 . S
C593 C592 1.386 . S
C593 C597 1.393 . S
C594 H586 0.950 . S
C594 C592 1.391 . S
C594 C595 1.400 . S
C595 C594 1.400 . S
C595 C596 1.398 . S
C595 C601 1.491 . S
C596 H587 0.950 . S
C596 C595 1.398 . S
C596 C597 1.391 . S
C597 H585 0.950 . S
C597 C593 1.393 . S
C597 C596 1.391 . S
C598 H588 0.950 . S
C598 C599 1.386 . S
C598 C600 1.391 . S
C599 C598 1.386 . S
C599 C603 1.393 . S
C600 H589 0.950 . S
C600 C598 1.391 . S
C600 C601 1.400 . S
C601 C595 1.491 . S
C601 C600 1.400 . S
C601 C602 1.398 . S
C602 H590 0.950 . S
C602 C601 1.398 . S
C602 C603 1.391 . S
C603 H591 0.950 . S
C603 C599 1.393 . S
C603 C602 1.391 . S
H604 C612 0.950 . S
H605 C617 0.950 . S
H606 C614 0.950 . S
H607 C616 0.950 . S
H608 C618 0.950 . S
H609 C620 0.950 . S
H610 C622 0.950 . S
H611 C623 0.950 . S
C612 H604 0.950 . S
C612 C613 1.386 . S
C612 C614 1.391 . S
C613 C612 1.386 . S
C613 C617 1.393 . S
C614 H606 0.950 . S
C614 C612 1.391 . S
C614 C615 1.400 . S
C615 C614 1.400 . S
C615 C616 1.398 . S
C615 C621 1.491 . S
C616 H607 0.950 . S
C616 C615 1.398 . S
C616 C617 1.391 . S
C617 H605 0.950 . S
C617 C613 1.393 . S
C617 C616 1.391 . S
C618 H608 0.950 . S
C618 C619 1.386 . S
C618 C620 1.391 . S
C619 C618 1.386 . S
C619 C623 1.393 . S
C620 H609 0.950 . S
C620 C618 1.391 . S
C620 C621 1.400 . S
C621 C615 1.491 . S
C621 C620 1.400 . S
C621 C622 1.398 . S
C622 H610 0.950 . S
C622 C621 1.398 . S
C622 C623 1.391 . S
C623 H611 0.950 . S
C623 C619 1.393 . S
C623 C622 1.391 . S
H624 C632 0.950 . S
H625 C637 0.950 . S
H626 C634 0.950 . S
H627 C636 0.950 . S
H628 C638 0.950 . S
H629 C640 0.950 . S
H630 C642 0.950 . S
H631 C643 0.950 . S
C632 H624 0.950 . S
C632 C633 1.386 1_556 S
C632 C634 1.391 . S
C633 C632 1.386 1_554 S
C633 C637 1.393 . S
C634 H626 0.950 . S
C634 C632 1.391 . S
C634 C635 1.400 1_556 S
C635 C634 1.400 1_554 S
C635 C636 1.398 . S
C635 C641 1.491 . S
C636 H627 0.950 . S
C636 C635 1.398 . S
C636 C637 1.391 . S
C637 H625 0.950 . S
C637 C633 1.393 . S
C637 C636 1.391 . S
C638 H628 0.950 . S
C638 C639 1.386 . S
C638 C640 1.391 . S
C639 C638 1.386 . S
C639 C643 1.393 1_554 S
C640 H629 0.950 . S
C640 C638 1.391 . S
C640 C641 1.400 . S
C641 C635 1.491 . S
C641 C640 1.400 . S
C641 C642 1.398 1_554 S
C642 H630 0.950 . S
C642 C641 1.398 1_556 S
C642 C643 1.391 . S
C643 H631 0.950 . S
C643 C639 1.393 1_556 S
C643 C642 1.391 . S
H644 C652 0.950 . S
H645 C657 0.950 . S
H646 C654 0.950 . S
H647 C656 0.950 . S
H648 C658 0.950 . S
H649 C660 0.950 . S
H650 C662 0.950 . S
H651 C663 0.950 . S
C652 H644 0.950 . S
C652 C653 1.386 . S
C652 C654 1.391 . S
C653 C652 1.386 . S
C653 C657 1.393 . S
C654 H646 0.950 . S
C654 C652 1.391 . S
C654 C655 1.400 . S
C655 C654 1.400 . S
C655 C656 1.398 1_455 S
C655 C661 1.491 1_455 S
C656 H647 0.950 . S
C656 C655 1.398 1_655 S
C656 C657 1.391 1_655 S
C657 H645 0.950 . S
C657 C653 1.393 . S
C657 C656 1.391 1_455 S
C658 H648 0.950 . S
C658 C659 1.386 . S
C658 C660 1.391 . S
C659 C658 1.386 . S
C659 C663 1.393 . S
C660 H649 0.950 . S
C660 C658 1.391 . S
C660 C661 1.400 . S
C661 C655 1.491 1_655 S
C661 C660 1.400 . S
C661 C662 1.398 1_655 S
C662 H650 0.950 . S
C662 C661 1.398 1_455 S
C662 C663 1.391 1_455 S
C663 H651 0.950 . S
C663 C659 1.393 . S
C663 C662 1.391 1_655 S
H664 C672 0.950 . S
H665 C677 0.950 . S
H666 C674 0.950 . S
H667 C676 0.950 . S
H668 C678 0.950 . S
H669 C680 0.950 . S
H670 C682 0.950 . S
H671 C683 0.950 . S
C672 H664 0.950 . S
C672 C673 1.386 . S
C672 C674 1.391 1_545 S
C673 C672 1.386 . S
C673 C677 1.393 . S
C674 H666 0.950 . S
C674 C672 1.391 1_565 S
C674 C675 1.400 1_565 S
C675 C674 1.400 1_545 S
C675 C676 1.398 . S
C675 C681 1.491 1_545 S
C676 H667 0.950 . S
C676 C675 1.398 . S
C676 C677 1.391 . S
C677 H665 0.950 . S
C677 C673 1.393 . S
C677 C676 1.391 . S
C678 H668 0.950 . S
C678 C679 1.386 . S
C678 C680 1.391 1_565 S
C679 C678 1.386 . S
C679 C683 1.393 . S
C680 H669 0.950 . S
C680 C678 1.391 1_545 S
C680 C681 1.400 1_545 S
C681 C675 1.491 1_565 S
C681 C680 1.400 1_565 S
C681 C682 1.398 . S
C682 H670 0.950 . S
C682 C681 1.398 . S
C682 C683 1.391 . S
C683 H671 0.950 . S
C683 C679 1.393 . S
C683 C682 1.391 . S
H684 C692 0.950 . S
H685 C697 0.950 . S
H686 C694 0.950 . S
H687 C696 0.950 . S
H688 C698 0.950 . S
H689 C700 0.950 . S
H690 C702 0.950 . S
H691 C703 0.950 . S
C692 H684 0.950 . S
C692 C693 1.386 . S
C692 C694 1.391 . S
C693 C692 1.386 . S
C693 C697 1.393 . S
C694 H686 0.950 . S
C694 C692 1.391 . S
C694 C695 1.400 . S
C695 C694 1.400 . S
C695 C696 1.398 . S
C695 C701 1.491 . S
C696 H687 0.950 . S
C696 C695 1.398 . S
C696 C697 1.391 . S
C697 H685 0.950 . S
C697 C693 1.393 . S
C697 C696 1.391 . S
C698 H688 0.950 . S
C698 C699 1.386 . S
C698 C700 1.391 . S
C699 C698 1.386 . S
C699 C703 1.393 . S
C700 H689 0.950 . S
C700 C698 1.391 . S
C700 C701 1.400 . S
C701 C695 1.491 . S
C701 C700 1.400 . S
C701 C702 1.398 . S
C702 H690 0.950 . S
C702 C701 1.398 . S
C702 C703 1.391 . S
C703 H691 0.950 . S
C703 C699 1.393 . S
C703 C702 1.391 . S
H704 C712 0.950 . S
H705 C717 0.950 . S
H706 C714 0.950 . S
H707 C716 0.950 1_655 S
H708 C718 0.950 . S
H709 C720 0.950 . S
H710 C722 0.950 1_455 S
H711 C723 0.950 . S
C712 H704 0.950 . S
C712 C713 1.386 . S
C712 C714 1.391 . S
C713 C712 1.386 . S
C713 C717 1.393 1_554 S
C714 H706 0.950 . S
C714 C712 1.391 . S
C714 C715 1.400 . S
C715 C714 1.400 . S
C715 C716 1.398 1_554 S
C715 C721 1.491 1_455 S
C716 H707 0.950 1_455 S
C716 C715 1.398 1_556 S
C716 C717 1.391 . S
C717 H705 0.950 . S
C717 C713 1.393 1_556 S
C717 C716 1.391 . S
C718 H708 0.950 . S
C718 C719 1.386 1_556 S
C718 C720 1.391 . S
C719 C718 1.386 1_554 S
C719 C723 1.393 . S
C720 H709 0.950 . S
C720 C718 1.391 . S
C720 C721 1.400 1_556 S
C721 C715 1.491 1_655 S
C721 C720 1.400 1_554 S
C721 C722 1.398 . S
C722 H710 0.950 1_655 S
C722 C721 1.398 . S
C722 C723 1.391 . S
C723 H711 0.950 . S
C723 C719 1.393 . S
C723 C722 1.391 . S
H724 C732 0.950 . S
H725 C737 0.950 . S
H726 C734 0.950 . S
H727 C736 0.950 1_545 S
H728 C738 0.950 . S
H729 C740 0.950 . S
H730 C742 0.950 1_565 S
H731 C743 0.950 . S
C732 H724 0.950 . S
C732 C733 1.386 . S
C732 C734 1.391 . S
C733 C732 1.386 . S
C733 C737 1.393 . S
C734 H726 0.950 . S
C734 C732 1.391 . S
C734 C735 1.400 . S
C735 C734 1.400 . S
C735 C736 1.398 . S
C735 C741 1.491 1_565 S
C736 H727 0.950 1_565 S
C736 C735 1.398 . S
C736 C737 1.391 . S
C737 H725 0.950 . S
C737 C733 1.393 . S
C737 C736 1.391 . S
C738 H728 0.950 . S
C738 C739 1.386 . S
C738 C740 1.391 . S
C739 C738 1.386 . S
C739 C743 1.393 . S
C740 H729 0.950 . S
C740 C738 1.391 . S
C740 C741 1.400 . S
C741 C735 1.491 1_545 S
C741 C740 1.400 . S
C741 C742 1.398 . S
C742 H730 0.950 1_545 S
C742 C741 1.398 . S
C742 C743 1.391 . S
C743 H731 0.950 . S
C743 C739 1.393 . S
C743 C742 1.391 . S
H744 C752 0.950 . S
H745 C757 0.950 . S
H746 C754 0.950 . S
H747 C756 0.950 . S
H748 C758 0.950 . S
H749 C760 0.950 . S
H750 C762 0.950 . S
H751 C763 0.950 . S
C752 H744 0.950 . S
C752 C753 1.386 . S
C752 C754 1.391 . S
C753 C752 1.386 . S
C753 C757 1.393 . S
C754 H746 0.950 . S
C754 C752 1.391 . S
C754 C755 1.400 . S
C755 C754 1.400 . S
C755 C756 1.398 . S
C755 C761 1.491 . S
C756 H747 0.950 . S
C756 C755 1.398 . S
C756 C757 1.391 . S
C757 H745 0.950 . S
C757 C753 1.393 . S
C757 C756 1.391 . S
C758 H748 0.950 . S
C758 C759 1.386 . S
C758 C760 1.391 . S
C759 C758 1.386 . S
C759 C763 1.393 . S
C760 H749 0.950 . S
C760 C758 1.391 . S
C760 C761 1.400 . S
C761 C755 1.491 . S
C761 C760 1.400 . S
C761 C762 1.398 . S
C762 H750 0.950 . S
C762 C761 1.398 . S
C762 C763 1.391 . S
C763 H751 0.950 . S
C763 C759 1.393 . S
C763 C762 1.391 . S
H764 C772 0.950 1_655 S
H765 C777 0.950 . S
H766 C774 0.950 . S
H767 C776 0.950 . S
H768 C778 0.950 . S
H769 C780 0.950 . S
H770 C782 0.950 . S
H771 C783 0.950 . S
C772 H764 0.950 1_455 S
C772 C773 1.377 . S
C772 C774 1.391 . S
C773 C772 1.377 . S
C773 C777 1.408 . S
C774 H766 0.950 . S
C774 C772 1.391 . S
C774 C775 1.400 . S
C775 C774 1.400 . S
C775 C776 1.398 . S
C775 C781 1.491 . S
C776 H767 0.950 . S
C776 C775 1.398 . S
C776 C777 1.391 . S
C777 H765 0.950 . S
C777 C773 1.408 . S
C777 C776 1.391 . S
C778 H768 0.950 . S
C778 C779 1.386 . S
C778 C780 1.391 . S
C779 C778 1.386 . S
C779 C783 1.393 . S
C780 H769 0.950 . S
C780 C778 1.391 . S
C780 C781 1.400 . S
C781 C775 1.491 . S
C781 C780 1.400 . S
C781 C782 1.398 . S
C782 H770 0.950 . S
C782 C781 1.398 . S
C782 C783 1.391 . S
C783 H771 0.950 . S
C783 C779 1.393 . S
C783 C782 1.391 . S
H784 C792 0.950 . S
H785 C797 0.950 . S
H786 C794 0.950 . S
H787 C796 0.950 . S
H788 C798 0.950 . S
H789 C800 0.950 . S
H790 C802 0.950 . S
H791 C803 0.950 . S
C792 H784 0.950 . S
C792 C793 1.387 1_565 S
C792 C794 1.391 1_565 S
C793 C792 1.387 1_545 S
C793 C797 1.397 . S
C794 H786 0.950 . S
C794 C792 1.391 1_545 S
C794 C795 1.400 . S
C795 C794 1.400 . S
C795 C796 1.398 . S
C795 C801 1.491 . S
C796 H787 0.950 . S
C796 C795 1.398 . S
C796 C797 1.391 . S
C797 H785 0.950 . S
C797 C793 1.397 . S
C797 C796 1.391 . S
C798 H788 0.950 . S
C798 C799 1.386 . S
C798 C800 1.391 . S
C799 C798 1.386 . S
C799 C803 1.393 . S
C800 H789 0.950 . S
C800 C798 1.391 . S
C800 C801 1.400 . S
C801 C795 1.491 . S
C801 C800 1.400 . S
C801 C802 1.398 . S
C802 H790 0.950 . S
C802 C801 1.398 . S
C802 C803 1.391 . S
C803 H791 0.950 . S
C803 C799 1.393 . S
C803 C802 1.391 . S
H804 C812 0.950 . S
H805 C817 0.950 . S
H806 C814 0.950 . S
H807 C816 0.950 . S
H808 C818 0.950 . S
H809 C820 0.950 . S
H810 C822 0.950 . S
H811 C823 0.950 . S
C812 H804 0.950 . S
C812 C813 1.386 . S
C812 C814 1.391 . S
C813 C812 1.386 . S
C813 C817 1.393 . S
C814 H806 0.950 . S
C814 C812 1.391 . S
C814 C815 1.400 . S
C815 C814 1.400 . S
C815 C816 1.398 . S
C815 C821 1.491 . S
C816 H807 0.950 . S
C816 C815 1.398 . S
C816 C817 1.391 . S
C817 H805 0.950 . S
C817 C813 1.393 . S
C817 C816 1.391 . S
C818 H808 0.950 . S
C818 C819 1.386 . S
C818 C820 1.391 . S
C819 C818 1.386 . S
C819 C823 1.393 . S
C820 H809 0.950 . S
C820 C818 1.391 . S
C820 C821 1.400 . S
C821 C815 1.491 . S
C821 C820 1.400 . S
C821 C822 1.398 . S
C822 H810 0.950 . S
C822 C821 1.398 . S
C822 C823 1.391 . S
C823 H811 0.950 . S
C823 C819 1.393 . S
C823 C822 1.391 . S
H824 C832 0.950 . S
H825 C837 0.950 . S
H826 C834 0.950 . S
H827 C836 0.950 . S
H828 C838 0.950 . S
H829 C840 0.950 . S
H830 C842 0.950 . S
H831 C843 0.950 . S
C832 H824 0.950 . S
C832 C833 1.386 . S
C832 C834 1.391 1_455 S
C833 C832 1.386 . S
C833 C837 1.393 1_455 S
C834 H826 0.950 . S
C834 C832 1.391 1_655 S
C834 C835 1.400 . S
C835 C834 1.400 . S
C835 C836 1.398 . S
C835 C841 1.491 . S
C836 H827 0.950 . S
C836 C835 1.398 . S
C836 C837 1.391 . S
C837 H825 0.950 . S
C837 C833 1.393 1_655 S
C837 C836 1.391 . S
C838 H828 0.950 . S
C838 C839 1.386 . S
C838 C840 1.391 . S
C839 C838 1.386 . S
C839 C843 1.393 . S
C840 H829 0.950 . S
C840 C838 1.391 . S
C840 C841 1.400 . S
C841 C835 1.491 . S
C841 C840 1.400 . S
C841 C842 1.398 . S
C842 H830 0.950 . S
C842 C841 1.398 . S
C842 C843 1.391 . S
C843 H831 0.950 . S
C843 C839 1.393 . S
C843 C842 1.391 . S
H844 C852 0.950 . S
H845 C857 0.950 . S
H846 C854 0.950 . S
H847 C856 0.950 1_545 S
H848 C858 0.950 . S
H849 C860 0.950 . S
H850 C862 0.950 . S
H851 C863 0.950 . S
C852 H844 0.950 . S
C852 C853 1.378 1_565 S
C852 C854 1.391 . S
C853 C852 1.378 1_545 S
C853 C857 1.397 . S
C854 H846 0.950 . S
C854 C852 1.391 . S
C854 C855 1.400 . S
C855 C854 1.400 . S
C855 C856 1.398 . S
C855 C861 1.491 . S
C856 H847 0.950 1_565 S
C856 C855 1.398 . S
C856 C857 1.391 1_565 S
C857 H845 0.950 . S
C857 C853 1.397 . S
C857 C856 1.391 1_545 S
C858 H848 0.950 . S
C858 C859 1.386 . S
C858 C860 1.391 . S
C859 C858 1.386 . S
C859 C863 1.393 . S
C860 H849 0.950 . S
C860 C858 1.391 . S
C860 C861 1.400 . S
C861 C855 1.491 . S
C861 C860 1.400 . S
C861 C862 1.398 . S
C862 H850 0.950 . S
C862 C861 1.398 . S
C862 C863 1.391 . S
C863 H851 0.950 . S
C863 C859 1.393 . S
C863 C862 1.391 . S
C513 C403 1.131 . S
C519 C58 0.985 . S
C533 C487 1.134 . S
C539 C142 0.984 . S
C553 C67 1.127 . S
C559 C226 1.023 . S
C573 C151 1.144 . S
C579 C310 0.986 . S
C593 C235 1.159 . S
C599 C394 1.049 . S
C613 C319 1.166 . S
C619 C478 1.031 . S
C633 C74 1.803 . S
C639 C326 1.794 . S
C653 C410 1.803 . S
C659 C158 1.813 . S
C673 C494 1.811 . S
C679 C242 1.797 . S
C693 C231 1.806 . S
C699 C483 1.809 . S
C713 C63 1.787 . S
C719 C315 1.797 . S
C733 C399 1.786 . S
C739 C147 1.794 . S
C753 C476 1.233 . S
C759 C70 1.222 . S
C773 C154 1.219 1_455 S
C779 C56 1.239 . S
C793 C238 1.222 1_545 S
C799 C140 1.242 . S
C813 C224 1.220 . S
C819 C322 1.208 . S
C833 C406 1.214 . S
C839 C308 1.225 . S
C853 C490 1.204 . S
C859 C392 1.212 . S
