# Generated by pormake.
# Topology pcb, (4)-cn, num edge types: 1
# Building blocks:
#     Node 0, Type 0, BuildingBlock: QUQFOY_clean_sbu_3, # of connection points: 4
#     Node 1, Type 0, BuildingBlock: QUQFOY_clean_sbu_3, # of connection points: 4
#     Node 2, Type 0, BuildingBlock: QUQFOY_clean_sbu_3, # of connection points: 4
#     Node 3, Type 0, BuildingBlock: QUQFOY_clean_sbu_3, # of connection points: 4
#     Node 4, Type 0, BuildingBlock: QUQFOY_clean_sbu_3, # of connection points: 4
#     Node 5, Type 0, BuildingBlock: QUQFOY_clean_sbu_3, # of connection points: 4
#     Node 6, Type 0, BuildingBlock: QUQFOY_clean_sbu_3, # of connection points: 4
#     Node 7, Type 0, BuildingBlock: QUQFOY_clean_sbu_3, # of connection points: 4
#     Node 8, Type 0, BuildingBlock: QUQFOY_clean_sbu_3, # of connection points: 4
#     Node 9, Type 0, BuildingBlock: QUQFOY_clean_sbu_3, # of connection points: 4
#     Node 10, Type 0, BuildingBlock: QUQFOY_clean_sbu_3, # of connection points: 4
#     Node 11, Type 0, BuildingBlock: QUQFOY_clean_sbu_3, # of connection points: 4
#     Node 12, Type 0, BuildingBlock: QUQFOY_clean_sbu_3, # of connection points: 4
#     Node 13, Type 0, BuildingBlock: QUQFOY_clean_sbu_3, # of connection points: 4
#     Node 14, Type 0, BuildingBlock: QUQFOY_clean_sbu_3, # of connection points: 4
#     Node 15, Type 0, BuildingBlock: QUQFOY_clean_sbu_3, # of connection points: 4
#     Edge 16, Type (0, 0), BuildingBlock: MIFKUJ_clean_linker_0, # of connection points: 2
#     Edge 17, Type (0, 0), BuildingBlock: MIFKUJ_clean_linker_0, # of connection points: 2
#     Edge 18, Type (0, 0), BuildingBlock: MIFKUJ_clean_linker_0, # of connection points: 2
#     Edge 19, Type (0, 0), BuildingBlock: MIFKUJ_clean_linker_0, # of connection points: 2
#     Edge 20, Type (0, 0), BuildingBlock: MIFKUJ_clean_linker_0, # of connection points: 2
#     Edge 21, Type (0, 0), BuildingBlock: MIFKUJ_clean_linker_0, # of connection points: 2
#     Edge 22, Type (0, 0), BuildingBlock: MIFKUJ_clean_linker_0, # of connection points: 2
#     Edge 23, Type (0, 0), BuildingBlock: MIFKUJ_clean_linker_0, # of connection points: 2
#     Edge 24, Type (0, 0), BuildingBlock: MIFKUJ_clean_linker_0, # of connection points: 2
#     Edge 25, Type (0, 0), BuildingBlock: MIFKUJ_clean_linker_0, # of connection points: 2
#     Edge 26, Type (0, 0), BuildingBlock: MIFKUJ_clean_linker_0, # of connection points: 2
#     Edge 27, Type (0, 0), BuildingBlock: MIFKUJ_clean_linker_0, # of connection points: 2
#     Edge 28, Type (0, 0), BuildingBlock: MIFKUJ_clean_linker_0, # of connection points: 2
#     Edge 29, Type (0, 0), BuildingBlock: MIFKUJ_clean_linker_0, # of connection points: 2
#     Edge 30, Type (0, 0), BuildingBlock: MIFKUJ_clean_linker_0, # of connection points: 2
#     Edge 31, Type (0, 0), BuildingBlock: MIFKUJ_clean_linker_0, # of connection points: 2
#     Edge 32, Type (0, 0), BuildingBlock: MIFKUJ_clean_linker_0, # of connection points: 2
#     Edge 33, Type (0, 0), BuildingBlock: MIFKUJ_clean_linker_0, # of connection points: 2
#     Edge 34, Type (0, 0), BuildingBlock: MIFKUJ_clean_linker_0, # of connection points: 2
#     Edge 35, Type (0, 0), BuildingBlock: MIFKUJ_clean_linker_0, # of connection points: 2
#     Edge 36, Type (0, 0), BuildingBlock: MIFKUJ_clean_linker_0, # of connection points: 2
#     Edge 37, Type (0, 0), BuildingBlock: MIFKUJ_clean_linker_0, # of connection points: 2
#     Edge 38, Type (0, 0), BuildingBlock: MIFKUJ_clean_linker_0, # of connection points: 2
#     Edge 39, Type (0, 0), BuildingBlock: MIFKUJ_clean_linker_0, # of connection points: 2
#     Edge 40, Type (0, 0), BuildingBlock: MIFKUJ_clean_linker_0, # of connection points: 2
#     Edge 41, Type (0, 0), BuildingBlock: MIFKUJ_clean_linker_0, # of connection points: 2
#     Edge 42, Type (0, 0), BuildingBlock: MIFKUJ_clean_linker_0, # of connection points: 2
#     Edge 43, Type (0, 0), BuildingBlock: MIFKUJ_clean_linker_0, # of connection points: 2
#     Edge 44, Type (0, 0), BuildingBlock: MIFKUJ_clean_linker_0, # of connection points: 2
#     Edge 45, Type (0, 0), BuildingBlock: MIFKUJ_clean_linker_0, # of connection points: 2
#     Edge 46, Type (0, 0), BuildingBlock: MIFKUJ_clean_linker_0, # of connection points: 2
#     Edge 47, Type (0, 0), BuildingBlock: MIFKUJ_clean_linker_0, # of connection points: 2
# Relax obj value: 0.314
# Max RMSD: 0.169
# Mean RMSD: 0.169
data_MOF--net-pcb--node1-QUQFOY_clean_sbu_3--edge1-MIFKUJ_clean_linker_0
_symmetry_space_group_name_H-M    P1
_symmetry_Int_Tables_number       1
_symmetry_cell_setting            triclinic
loop_
_symmetry_equiv_pos_as_xyz
'x, y, z'
_cell_length_a     53.625995
_cell_length_b     65.540258
_cell_length_c     65.641256
_cell_angle_alpha  89.614571
_cell_angle_beta   89.857808
_cell_angle_gamma 89.857735
loop_
_atom_site_label
_atom_site_type_symbol
_atom_site_fract_x
_atom_site_fract_y
_atom_site_fract_z
_atom_type_partial_charge
C0 C 0.11712 0.11018 0.13713 0.0
O1 O 0.11939 0.09293 0.1286 0.0
Cd2 Cd 0.15544 0.07157 0.12907 0.0
O3 O 0.1354 0.1182 0.14655 0.0
Cd4 Cd 0.18019 0.10924 0.15277 0.0
C5 C 0.19314 0.10414 0.10237 0.0
O6 O 0.17108 0.07466 0.16276 0.0
O7 O 0.20995 0.08035 0.15819 0.0
O8 O 0.17613 0.12984 0.18355 0.0
C9 C 0.19309 0.06782 0.16335 0.0
O10 O 0.18331 0.0865 0.10358 0.0
C11 C 0.19739 0.13819 0.18186 0.0
O12 O 0.19245 0.11634 0.1174 0.0
O13 O 0.21061 0.1331 0.16664 0.0
C14 C 0.86565 0.15057 0.09926 0.0
O15 O 0.86158 0.14306 0.0818 0.0
Cd16 Cd 0.82208 0.1377 0.06644 0.0
O17 O 0.84755 0.15627 0.11057 0.0
Cd18 Cd 0.80083 0.15716 0.10762 0.0
C19 C 0.79636 0.10573 0.10245 0.0
O20 O 0.79977 0.1684 0.07277 0.0
O21 O 0.76465 0.15717 0.08362 0.0
O22 O 0.79727 0.19042 0.12383 0.0
C23 C 0.77692 0.16549 0.06927 0.0
O24 O 0.80407 0.10829 0.08424 0.0
C25 C 0.78375 0.18434 0.13855 0.0
O26 O 0.79494 0.12074 0.11464 0.0
O27 O 0.77834 0.16549 0.13904 0.0
C28 C 0.86515 0.85984 0.14994 0.0
O29 O 0.86526 0.8786 0.14499 0.0
Cd30 Cd 0.82879 0.89789 0.13714 0.0
O31 O 0.84478 0.85023 0.15291 0.0
Cd32 Cd 0.79895 0.85799 0.15485 0.0
C33 C 0.8 0.86454 0.10364 0.0
O34 O 0.80365 0.8924 0.16648 0.0
O35 O 0.76658 0.88529 0.15684 0.0
O36 O 0.79884 0.83688 0.18556 0.0
C37 C 0.78145 0.8984 0.16402 0.0
O38 O 0.81143 0.88129 0.10671 0.0
C39 C 0.77929 0.82701 0.18102 0.0
O40 O 0.79407 0.85287 0.11846 0.0
O41 O 0.76874 0.83162 0.1643 0.0
C42 C 0.11124 0.81122 0.10035 0.0
O43 O 0.11227 0.81806 0.08223 0.0
Cd44 Cd 0.14975 0.82838 0.06534 0.0
O45 O 0.13111 0.80803 0.11055 0.0
Cd46 Cd 0.17712 0.80972 0.10469 0.0
C47 C 0.17425 0.86116 0.10107 0.0
O48 O 0.17809 0.80067 0.06906 0.0
O49 O 0.2115 0.81494 0.07984 0.0
O50 O 0.18575 0.77618 0.11953 0.0
C51 C 0.20004 0.8066 0.06521 0.0
O52 O 0.16511 0.85865 0.08335 0.0
C53 C 0.19865 0.78282 0.13425 0.0
O54 O 0.17891 0.84592 0.11259 0.0
O55 O 0.20167 0.802 0.13519 0.0
C56 C 0.12025 0.86897 0.81154 0.0
O57 O 0.1249 0.88629 0.81922 0.0
Cd58 Cd 0.16514 0.90069 0.82506 0.0
O59 O 0.13797 0.85715 0.80613 0.0
Cd60 Cd 0.18452 0.85814 0.80638 0.0
C61 C 0.18889 0.86433 0.85752 0.0
O62 O 0.18905 0.8931 0.79566 0.0
O63 O 0.22237 0.87989 0.80805 0.0
O64 O 0.1889 0.84217 0.77317 0.0
C65 C 0.21184 0.89527 0.79995 0.0
O66 O 0.18301 0.88296 0.85453 0.0
C67 C 0.20015 0.82636 0.77966 0.0
O68 O 0.18862 0.85152 0.84301 0.0
O69 O 0.20411 0.82523 0.7987 0.0
C70 C 0.11646 0.13551 0.86716 0.0
O71 O 0.12188 0.1273 0.88417 0.0
Cd72 Cd 0.16218 0.12587 0.89967 0.0
O73 O 0.13337 0.14377 0.85619 0.0
Cd74 Cd 0.17962 0.1477 0.85877 0.0
C75 C 0.19168 0.09699 0.86391 0.0
O76 O 0.1814 0.15814 0.89401 0.0
O77 O 0.21653 0.14869 0.88149 0.0
O78 O 0.18088 0.18149 0.8428 0.0
C79 C 0.20464 0.15602 0.89649 0.0
O80 O 0.18521 0.09871 0.8825 0.0
C81 C 0.19354 0.17596 0.82742 0.0
O82 O 0.18931 0.11189 0.85149 0.0
O83 O 0.1996 0.15725 0.82654 0.0
C84 C 0.86028 0.09792 0.8304 0.0
O85 O 0.85523 0.08071 0.83839 0.0
Cd86 Cd 0.81573 0.06434 0.83971 0.0
O87 O 0.84323 0.10861 0.82189 0.0
Cd88 Cd 0.79706 0.10495 0.8161 0.0
C89 C 0.78465 0.10096 0.86691 0.0
O90 O 0.79952 0.06971 0.80639 0.0
O91 O 0.76212 0.08037 0.81065 0.0
O92 O 0.80166 0.12391 0.78402 0.0
C93 C 0.77649 0.06587 0.80561 0.0
O94 O 0.79292 0.08275 0.8661 0.0
C95 C 0.78374 0.13613 0.7875 0.0
O96 O 0.78542 0.11257 0.85129 0.0
O97 O 0.77228 0.1339 0.80431 0.0
C98 C 0.86915 0.83108 0.85132 0.0
O99 O 0.86739 0.83958 0.8686 0.0
Cd100 Cd 0.83261 0.83967 0.89119 0.0
O101 O 0.85081 0.82132 0.84376 0.0
Cd102 Cd 0.8065 0.81401 0.85397 0.0
C103 C 0.79245 0.86469 0.85886 0.0
O104 O 0.8166 0.80606 0.88869 0.0
O105 O 0.77735 0.8078 0.88304 0.0
O106 O 0.80828 0.78136 0.83598 0.0
C107 C 0.79474 0.80466 0.89573 0.0
O108 O 0.80474 0.86457 0.87544 0.0
C109 C 0.78869 0.78461 0.82559 0.0
O110 O 0.79136 0.84883 0.84776 0.0
O111 O 0.77755 0.80147 0.82844 0.0
C112 C 0.61469 0.61152 0.63866 0.0
O113 O 0.61594 0.59415 0.63024 0.0
Cd114 Cd 0.65087 0.57179 0.62875 0.0
O115 O 0.63359 0.61922 0.64755 0.0
Cd116 Cd 0.67837 0.60932 0.65319 0.0
C117 C 0.68852 0.60483 0.6019 0.0
O118 O 0.66869 0.57467 0.66165 0.0
O119 O 0.70786 0.58023 0.65874 0.0
O120 O 0.67705 0.62741 0.68563 0.0
C121 C 0.69057 0.5676 0.66254 0.0
O122 O 0.67638 0.58816 0.60261 0.0
C123 C 0.69658 0.63786 0.68227 0.0
O124 O 0.69096 0.61581 0.61772 0.0
O125 O 0.70761 0.63498 0.66538 0.0
C126 C 0.36561 0.64571 0.5972 0.0
O127 O 0.36257 0.63684 0.58024 0.0
Cd128 Cd 0.32353 0.6292 0.56468 0.0
O129 O 0.34683 0.65146 0.60768 0.0
Cd130 Cd 0.30047 0.65038 0.60396 0.0
C131 C 0.29774 0.59876 0.60174 0.0
O132 O 0.29904 0.65932 0.56827 0.0
O133 O 0.26483 0.64703 0.57996 0.0
O134 O 0.29483 0.68426 0.61851 0.0
C135 C 0.2765 0.65487 0.56502 0.0
O136 O 0.30521 0.60038 0.58336 0.0
C137 C 0.28194 0.67828 0.63365 0.0
O138 O 0.2964 0.61435 0.61317 0.0
O139 O 0.27748 0.6593 0.63492 0.0
C140 C 0.36621 0.36424 0.65192 0.0
O141 O 0.36237 0.3822 0.64524 0.0
Cd142 Cd 0.3225 0.39659 0.63777 0.0
O143 O 0.34801 0.3524 0.65607 0.0
Cd144 Cd 0.30147 0.35513 0.65603 0.0
C145 C 0.2998 0.36043 0.60491 0.0
O146 O 0.29776 0.38995 0.66713 0.0
O147 O 0.26513 0.37866 0.65223 0.0
O148 O 0.296 0.33887 0.68928 0.0
C149 C 0.27544 0.39308 0.66185 0.0
O150 O 0.30599 0.37898 0.60766 0.0
C151 C 0.28321 0.32399 0.6828 0.0
O152 O 0.29878 0.34788 0.61978 0.0
O153 O 0.27904 0.32348 0.66377 0.0
C154 C 0.61529 0.31485 0.6016 0.0
O155 O 0.61755 0.32057 0.58317 0.0
Cd156 Cd 0.6563 0.32756 0.56703 0.0
O157 O 0.63451 0.31082 0.61234 0.0
Cd158 Cd 0.68081 0.30862 0.60677 0.0
C159 C 0.68201 0.35985 0.60273 0.0
O160 O 0.68081 0.29752 0.57171 0.0
O161 O 0.7153 0.31062 0.58156 0.0
O162 O 0.68142 0.27595 0.62476 0.0
C163 C 0.70325 0.30175 0.5676 0.0
O164 O 0.67274 0.35743 0.58504 0.0
C165 C 0.69883 0.28069 0.63691 0.0
O166 O 0.68587 0.3446 0.61442 0.0
O167 O 0.70791 0.29848 0.63504 0.0
C168 C 0.61357 0.37038 0.32089 0.0
O169 O 0.61867 0.38698 0.32984 0.0
Cd170 Cd 0.65869 0.4018 0.33475 0.0
O171 O 0.63091 0.35932 0.31338 0.0
Cd172 Cd 0.67759 0.36113 0.31139 0.0
C173 C 0.68524 0.36325 0.36284 0.0
O174 O 0.67937 0.39673 0.30317 0.0
O175 O 0.71475 0.38418 0.31171 0.0
O176 O 0.68112 0.34632 0.27735 0.0
C177 C 0.70243 0.3996 0.30564 0.0
O178 O 0.6784 0.38186 0.36198 0.0
C179 C 0.69303 0.33057 0.28318 0.0
O180 O 0.68484 0.35208 0.34704 0.0
O181 O 0.69765 0.32903 0.30209 0.0
C182 C 0.61708 0.64018 0.36745 0.0
O183 O 0.62051 0.63521 0.38598 0.0
Cd184 Cd 0.6595 0.63385 0.40321 0.0
O185 O 0.63525 0.64588 0.35617 0.0
Cd186 Cd 0.68111 0.65266 0.36024 0.0
C187 C 0.69193 0.60246 0.37017 0.0
O188 O 0.67686 0.66583 0.39407 0.0
O189 O 0.71476 0.66102 0.38513 0.0
O190 O 0.67427 0.68124 0.33674 0.0
C191 C 0.69963 0.66688 0.39875 0.0
O192 O 0.68241 0.60533 0.38774 0.0
C193 C 0.69442 0.67862 0.32688 0.0
O194 O 0.69244 0.61676 0.35693 0.0
O195 O 0.70824 0.66384 0.33242 0.0
C196 C 0.36589 0.59299 0.31511 0.0
O197 O 0.3608 0.57502 0.3211 0.0
Cd198 Cd 0.31975 0.5618 0.32608 0.0
O199 O 0.3485 0.60542 0.3103 0.0
Cd200 Cd 0.30197 0.60441 0.30794 0.0
C201 C 0.29598 0.59796 0.35874 0.0
O202 O 0.29671 0.56978 0.29618 0.0
O203 O 0.26405 0.5829 0.3098 0.0
O204 O 0.30027 0.62111 0.27466 0.0
C205 C 0.27386 0.56794 0.30059 0.0
O206 O 0.30198 0.57939 0.35569 0.0
C207 C 0.288 0.63656 0.28061 0.0
O208 O 0.29638 0.61096 0.34423 0.0
O209 O 0.2823 0.63718 0.29939 0.0
C210 C 0.35973 0.33123 0.35894 0.0
O211 O 0.35602 0.33958 0.37609 0.0
Cd212 Cd 0.31828 0.33874 0.3953 0.0
O213 O 0.34232 0.32145 0.35012 0.0
Cd214 Cd 0.29734 0.31405 0.3576 0.0
C215 C 0.28262 0.36439 0.3606 0.0
O216 O 0.30358 0.30446 0.39287 0.0
O217 O 0.26542 0.30966 0.38481 0.0
O218 O 0.30226 0.28243 0.33818 0.0
C219 C 0.28096 0.30407 0.39825 0.0
O220 O 0.29149 0.364 0.37859 0.0
C221 C 0.28192 0.28445 0.32849 0.0
O222 O 0.28422 0.3488 0.34919 0.0
O223 O 0.26892 0.30017 0.33235 0.0
H224 H 0.30997 0.25512 0.30979 0.0
H225 H 0.29599 0.23019 0.28457 0.0
H226 H 0.22122 0.25421 0.28847 0.0
H227 H 0.2351 0.27943 0.31332 0.0
H228 H 0.22646 0.20959 0.2915 0.0
H229 H 0.25095 0.26728 0.24959 0.0
H230 H 0.28024 0.29368 0.23748 0.0
H231 H 0.33219 0.24725 0.21927 0.0
H232 H 0.30334 0.22057 0.23156 0.0
H233 H 0.16957 0.1605 0.20851 0.0
H234 H 0.1844 0.18533 0.23325 0.0
H235 H 0.26035 0.17365 0.21457 0.0
H236 H 0.24541 0.1496 0.18905 0.0
H237 H 0.25562 0.21181 0.21972 0.0
H238 H 0.23349 0.154 0.26055 0.0
H239 H 0.20662 0.12636 0.27363 0.0
H240 H 0.15375 0.17052 0.29534 0.0
H241 H 0.18016 0.19843 0.28215 0.0
C242 C 0.29056 0.25508 0.30526 0.0
C243 C 0.27362 0.26923 0.31348 0.0
C244 C 0.28264 0.24089 0.29086 0.0
C245 C 0.25761 0.24045 0.2847 0.0
C246 C 0.2406 0.25435 0.29308 0.0
C247 C 0.24858 0.26877 0.30719 0.0
C248 C 0.24911 0.22548 0.26948 0.0
C249 C 0.23256 0.21014 0.27573 0.0
C250 C 0.2578 0.22592 0.24915 0.0
C251 C 0.27511 0.24195 0.2417 0.0
C252 C 0.26872 0.26271 0.24318 0.0
C253 C 0.28522 0.27772 0.23625 0.0
C254 C 0.30809 0.27215 0.22766 0.0
C255 C 0.31448 0.25155 0.22595 0.0
C256 C 0.29806 0.23648 0.23288 0.0
C257 C 0.18943 0.16324 0.20971 0.0
C258 C 0.20636 0.15307 0.19693 0.0
C259 C 0.19792 0.17734 0.22395 0.0
C260 C 0.22358 0.1811 0.22613 0.0
C261 C 0.24048 0.17102 0.21324 0.0
C262 C 0.23194 0.15724 0.19869 0.0
C263 C 0.23276 0.19573 0.24162 0.0
C264 C 0.24949 0.21107 0.23547 0.0
C265 C 0.2246 0.19504 0.26218 0.0
C266 C 0.2087 0.1783 0.27019 0.0
C267 C 0.21605 0.15781 0.26799 0.0
C268 C 0.20092 0.1421 0.27544 0.0
C269 C 0.17846 0.14668 0.28527 0.0
C270 C 0.17113 0.16699 0.2877 0.0
C271 C 0.18619 0.18276 0.28026 0.0
H272 H 0.16677 0.13449 0.29102 0.0
H273 H 0.32084 0.28379 0.2223 0.0
H274 H 0.70564 0.29108 0.29151 0.0
H275 H 0.71994 0.26517 0.26753 0.0
H276 H 0.71485 0.30904 0.21832 0.0
H277 H 0.69925 0.33464 0.24212 0.0
H278 H 0.69871 0.27516 0.20538 0.0
H279 H 0.7722 0.29403 0.24209 0.0
H280 H 0.79831 0.29995 0.27235 0.0
H281 H 0.79154 0.23686 0.28949 0.0
H282 H 0.76512 0.23061 0.25946 0.0
H283 H 0.7816 0.22581 0.13601 0.0
H284 H 0.76502 0.2495 0.16137 0.0
H285 H 0.74862 0.19904 0.20165 0.0
H286 H 0.76469 0.17512 0.17615 0.0
H287 H 0.77518 0.23471 0.21941 0.0
H288 H 0.70232 0.2169 0.18032 0.0
H289 H 0.67857 0.2124 0.14856 0.0
H290 H 0.68748 0.27599 0.13423 0.0
H291 H 0.71162 0.2808 0.16579 0.0
C292 C 0.70754 0.29515 0.27556 0.0
C293 C 0.70145 0.31488 0.26867 0.0
C294 C 0.71587 0.28038 0.26188 0.0
C295 C 0.719 0.28522 0.24114 0.0
C296 C 0.71264 0.30489 0.23423 0.0
C297 C 0.70378 0.31954 0.24784 0.0
C298 C 0.72873 0.2698 0.22659 0.0
C299 C 0.71561 0.26653 0.2084 0.0
C300 C 0.75057 0.2582 0.23059 0.0
C301 C 0.76647 0.26191 0.24864 0.0
C302 C 0.77613 0.28145 0.2524 0.0
C303 C 0.79101 0.28486 0.26949 0.0
C304 C 0.79652 0.26881 0.28286 0.0
C305 C 0.78722 0.24929 0.27914 0.0
C306 C 0.77231 0.2458 0.26207 0.0
C307 C 0.77451 0.21975 0.15028 0.0
C308 C 0.77438 0.19862 0.15411 0.0
C309 C 0.76501 0.23329 0.1647 0.0
C310 C 0.75556 0.22595 0.18328 0.0
C311 C 0.75584 0.20492 0.18735 0.0
C312 C 0.76494 0.19132 0.17277 0.0
C313 C 0.74524 0.24034 0.19836 0.0
C314 C 0.75826 0.24337 0.21656 0.0
C315 C 0.72363 0.252 0.19423 0.0
C316 C 0.70899 0.24916 0.17531 0.0
C317 C 0.69941 0.22988 0.17031 0.0
C318 C 0.68584 0.22729 0.15236 0.0
C319 C 0.68157 0.24389 0.13936 0.0
C320 C 0.69082 0.26314 0.14431 0.0
C321 C 0.70443 0.26581 0.16223 0.0
H322 H 0.67105 0.24185 0.12547 0.0
H323 H 0.80805 0.27148 0.29609 0.0
H324 H 0.80383 0.8069 0.21144 0.0
H325 H 0.78745 0.78018 0.234 0.0
H326 H 0.71603 0.78428 0.2042 0.0
H327 H 0.73244 0.81073 0.18122 0.0
H328 H 0.71657 0.78583 0.24965 0.0
H329 H 0.74596 0.7458 0.19297 0.0
H330 H 0.7772 0.7348 0.16766 0.0
H331 H 0.82634 0.71584 0.21577 0.0
H332 H 0.79554 0.72701 0.24138 0.0
H333 H 0.66417 0.70227 0.30308 0.0
H334 H 0.67669 0.72596 0.27601 0.0
H335 H 0.75398 0.7108 0.28682 0.0
H336 H 0.74136 0.6862 0.31298 0.0
H337 H 0.74847 0.71471 0.24886 0.0
H338 H 0.72356 0.75616 0.30546 0.0
H339 H 0.69543 0.76872 0.33241 0.0
H340 H 0.64188 0.78692 0.28724 0.0
H341 H 0.66958 0.77424 0.26002 0.0
C342 C 0.78465 0.80209 0.20966 0.0
C343 C 0.76939 0.81088 0.19459 0.0
C344 C 0.77537 0.78681 0.2225 0.0
C345 C 0.7506 0.78028 0.22066 0.0
C346 C 0.73522 0.78914 0.20578 0.0
C347 C 0.74463 0.80417 0.19266 0.0
C348 C 0.74075 0.76444 0.23461 0.0
C349 C 0.72317 0.77017 0.24933 0.0
C350 C 0.75005 0.74427 0.23447 0.0
C351 C 0.76853 0.73742 0.21909 0.0
C352 C 0.76352 0.73945 0.19816 0.0
C353 C 0.78113 0.73315 0.18376 0.0
C354 C 0.80377 0.72468 0.19011 0.0
C355 C 0.80881 0.72243 0.21088 0.0
C356 C 0.79127 0.72872 0.22534 0.0
C357 C 0.68381 0.70395 0.29957 0.0
C358 C 0.70182 0.69251 0.31017 0.0
C359 C 0.69098 0.71759 0.28419 0.0
C360 C 0.71635 0.72057 0.27963 0.0
C361 C 0.7343 0.70883 0.29002 0.0
C362 C 0.72709 0.69481 0.30502 0.0
C363 C 0.72433 0.73604 0.26426 0.0
C364 C 0.74163 0.7303 0.24923 0.0
C365 C 0.71518 0.75637 0.26441 0.0
C366 C 0.69852 0.76405 0.28073 0.0
C367 C 0.70571 0.76272 0.30129 0.0
C368 C 0.68985 0.76987 0.31661 0.0
C369 C 0.66685 0.77856 0.31154 0.0
C370 C 0.65968 0.78016 0.29114 0.0
C371 C 0.67546 0.77301 0.27576 0.0
H372 H 0.6546 0.78409 0.32343 0.0
H373 H 0.81738 0.71981 0.17893 0.0
H374 H 0.28707 0.63482 0.23919 0.0
H375 H 0.27356 0.6613 0.21535 0.0
H376 H 0.25912 0.70189 0.26558 0.0
H377 H 0.27158 0.67501 0.28958 0.0
H378 H 0.22325 0.7053 0.24033 0.0
H379 H 0.31127 0.70724 0.23276 0.0
H380 H 0.35381 0.69393 0.22742 0.0
H381 H 0.33327 0.67291 0.16798 0.0
H382 H 0.29048 0.68584 0.17307 0.0
H383 H 0.2148 0.79223 0.17247 0.0
H384 H 0.23149 0.76873 0.19833 0.0
H385 H 0.22399 0.71865 0.15656 0.0
H386 H 0.20673 0.74191 0.1308 0.0
H387 H 0.27266 0.72276 0.17864 0.0
H388 H 0.18279 0.72044 0.18915 0.0
H389 H 0.14171 0.73615 0.1956 0.0
H390 H 0.16888 0.76139 0.25149 0.0
H391 H 0.21026 0.74606 0.24521 0.0
C392 C 0.28111 0.64941 0.24515 0.0
C393 C 0.28045 0.65288 0.26624 0.0
C394 C 0.27354 0.66461 0.23149 0.0
C395 C 0.26576 0.68379 0.2386 0.0
C396 C 0.26509 0.68726 0.2597 0.0
C397 C 0.27226 0.67191 0.2734 0.0
C398 C 0.25759 0.6999 0.224 0.0
C399 C 0.23432 0.70933 0.22706 0.0
C400 C 0.27186 0.70517 0.20654 0.0
C401 C 0.29759 0.69737 0.20338 0.0
C402 C 0.31576 0.69964 0.21861 0.0
C403 C 0.33993 0.69219 0.21562 0.0
C404 C 0.34622 0.68254 0.19739 0.0
C405 C 0.32836 0.68037 0.1821 0.0
C406 C 0.30415 0.68778 0.18502 0.0
C407 C 0.21678 0.77622 0.16879 0.0
C408 C 0.20942 0.76887 0.14965 0.0
C409 C 0.22626 0.76285 0.18356 0.0
C410 C 0.2289 0.74202 0.17928 0.0
C411 C 0.22208 0.73471 0.16007 0.0
C412 C 0.21216 0.74798 0.14544 0.0
C413 C 0.23838 0.72772 0.19496 0.0
C414 C 0.26184 0.71873 0.19207 0.0
C415 C 0.22458 0.7232 0.21277 0.0
C416 C 0.19969 0.73232 0.21658 0.0
C417 C 0.18008 0.72951 0.20271 0.0
C418 C 0.15672 0.7383 0.20636 0.0
C419 C 0.15271 0.74981 0.22391 0.0
C420 C 0.17203 0.7525 0.23788 0.0
C421 C 0.19542 0.74376 0.23429 0.0
H422 H 0.13462 0.7566 0.22672 0.0
H423 H 0.36494 0.67677 0.1951 0.0
H424 H 0.26423 0.66945 0.67174 0.0
H425 H 0.25054 0.69352 0.69779 0.0
H426 H 0.26474 0.7437 0.65644 0.0
H427 H 0.27945 0.71973 0.6307 0.0
H428 H 0.28136 0.75315 0.69167 0.0
H429 H 0.20411 0.72521 0.66802 0.0
H430 H 0.17402 0.69813 0.65974 0.0
H431 H 0.17376 0.67821 0.72219 0.0
H432 H 0.20411 0.70503 0.7308 0.0
H433 H 0.20597 0.82926 0.73853 0.0
H434 H 0.22042 0.80273 0.71521 0.0
H435 H 0.22703 0.7604 0.76548 0.0
H436 H 0.2131 0.78705 0.78907 0.0
H437 H 0.20046 0.74608 0.72787 0.0
H438 H 0.27726 0.77622 0.75077 0.0
H439 H 0.30562 0.80485 0.75785 0.0
H440 H 0.30438 0.82227 0.69468 0.0
H441 H 0.27569 0.79391 0.68728 0.0
C442 C 0.26434 0.68561 0.6682 0.0
C443 C 0.27286 0.69273 0.64918 0.0
C444 C 0.2564 0.69936 0.68307 0.0
C445 C 0.25625 0.72045 0.67901 0.0
C446 C 0.26469 0.72752 0.65997 0.0
C447 C 0.27303 0.71381 0.64524 0.0
C448 C 0.24785 0.73522 0.69469 0.0
C449 C 0.26352 0.75167 0.69938 0.0
C450 C 0.22482 0.73313 0.70514 0.0
C451 C 0.20658 0.71699 0.70001 0.0
C452 C 0.19779 0.71495 0.67996 0.0
C453 C 0.18066 0.69967 0.67521 0.0
C454 C 0.17204 0.68642 0.69042 0.0
C455 C 0.18049 0.68846 0.71042 0.0
C456 C 0.19763 0.70371 0.71525 0.0
C457 C 0.21047 0.8143 0.74463 0.0
C458 C 0.20847 0.81021 0.76562 0.0
C459 C 0.21875 0.79921 0.73131 0.0
C460 C 0.2248 0.7797 0.7387 0.0
C461 C 0.22241 0.77541 0.75957 0.0
C462 C 0.21457 0.79063 0.77298 0.0
C463 C 0.23384 0.76392 0.7245 0.0
C464 C 0.21831 0.74736 0.72015 0.0
C465 C 0.25679 0.76605 0.71412 0.0
C466 C 0.27412 0.78307 0.71851 0.0
C467 C 0.28284 0.78628 0.73842 0.0
C468 C 0.29902 0.80243 0.74249 0.0
C469 C 0.30674 0.81541 0.72673 0.0
C470 C 0.29836 0.81222 0.70687 0.0
C471 C 0.28215 0.7961 0.70273 0.0
H472 H 0.31928 0.8279 0.72991 0.0
H473 H 0.15878 0.67459 0.68671 0.0
H474 H 0.19601 0.21734 0.8304 0.0
H475 H 0.21007 0.24163 0.80452 0.0
H476 H 0.2215 0.19222 0.76228 0.0
H477 H 0.20867 0.16776 0.78858 0.0
H478 H 0.25816 0.21626 0.75885 0.0
H479 H 0.17049 0.22718 0.75907 0.0
H480 H 0.12876 0.23379 0.77348 0.0
H481 H 0.15352 0.29179 0.79564 0.0
H482 H 0.19551 0.28541 0.7816 0.0
H483 H 0.26636 0.28593 0.67323 0.0
H484 H 0.25012 0.25985 0.69672 0.0
H485 H 0.26105 0.30055 0.74723 0.0
H486 H 0.27782 0.3265 0.72398 0.0
H487 H 0.21158 0.28014 0.74407 0.0
H488 H 0.30078 0.26644 0.74363 0.0
H489 H 0.34083 0.25886 0.72671 0.0
H490 H 0.30974 0.20434 0.70135 0.0
H491 H 0.26938 0.21177 0.7179 0.0
C492 C 0.20142 0.21167 0.81557 0.0
C493 C 0.20118 0.19068 0.81147 0.0
C494 C 0.20931 0.22559 0.80071 0.0
C495 C 0.21641 0.21885 0.78124 0.0
C496 C 0.21609 0.19784 0.77714 0.0
C497 C 0.2087 0.18387 0.79216 0.0
C498 C 0.22493 0.23368 0.76545 0.0
C499 C 0.24768 0.23003 0.75542 0.0
C500 C 0.21147 0.2518 0.76097 0.0
C501 C 0.18622 0.25573 0.76943 0.0
C502 C 0.16709 0.24128 0.76715 0.0
C503 C 0.14338 0.245 0.77523 0.0
C504 C 0.13851 0.26318 0.78551 0.0
C505 C 0.15733 0.2777 0.78769 0.0
C506 C 0.18108 0.27405 0.77965 0.0
C507 C 0.26532 0.28929 0.68935 0.0
C508 C 0.2734 0.30821 0.69681 0.0
C509 C 0.25608 0.2744 0.70271 0.0
C510 C 0.25443 0.27835 0.72364 0.0
C511 C 0.26218 0.29729 0.73109 0.0
C512 C 0.27184 0.31203 0.71782 0.0
C513 C 0.24472 0.2627 0.73787 0.0
C514 C 0.22179 0.26623 0.74751 0.0
C515 C 0.2577 0.24429 0.74165 0.0
C516 C 0.28199 0.23978 0.7318 0.0
C517 C 0.30242 0.25294 0.73428 0.0
C518 C 0.32519 0.24865 0.7248 0.0
C519 C 0.3278 0.23117 0.71291 0.0
C520 C 0.30767 0.2179 0.71054 0.0
C521 C 0.28486 0.22213 0.71998 0.0
H522 H 0.34545 0.22787 0.70558 0.0
H523 H 0.12014 0.26603 0.79176 0.0
H524 H 0.74356 0.16164 0.78961 0.0
H525 H 0.72976 0.18654 0.76416 0.0
H526 H 0.79308 0.17157 0.72638 0.0
H527 H 0.80669 0.14625 0.75158 0.0
H528 H 0.74896 0.22012 0.7488 0.0
H529 H 0.77658 0.17501 0.67661 0.0
H530 H 0.78186 0.13929 0.66572 0.0
H531 H 0.72981 0.11964 0.71159 0.0
H532 H 0.72398 0.15526 0.72256 0.0
H533 H 0.7389 0.28506 0.66218 0.0
H534 H 0.75397 0.26088 0.68791 0.0
H535 H 0.69429 0.2196 0.67294 0.0
H536 H 0.67953 0.24344 0.64685 0.0
H537 H 0.73572 0.19907 0.67718 0.0
H538 H 0.69245 0.24964 0.71611 0.0
H539 H 0.68236 0.28435 0.72788 0.0
H540 H 0.75705 0.29132 0.75016 0.0
H541 H 0.76768 0.25673 0.73827 0.0
C542 C 0.75459 0.16368 0.7759 0.0
C543 C 0.77612 0.15188 0.77253 0.0
C544 C 0.74672 0.17797 0.7614 0.0
C545 C 0.76021 0.18076 0.74326 0.0
C546 C 0.78213 0.16942 0.74011 0.0
C547 C 0.78993 0.15501 0.75455 0.0
C548 C 0.75104 0.19528 0.72752 0.0
C549 C 0.74614 0.21553 0.73313 0.0
C550 C 0.7469 0.18922 0.70715 0.0
C551 C 0.75007 0.16777 0.70054 0.0
C552 C 0.76621 0.16307 0.68432 0.0
C553 C 0.76931 0.14284 0.67814 0.0
C554 C 0.75625 0.1272 0.68801 0.0
C555 C 0.73999 0.13176 0.70402 0.0
C556 C 0.73681 0.15196 0.71024 0.0
C557 C 0.72899 0.27083 0.66438 0.0
C558 C 0.70799 0.26617 0.65253 0.0
C559 C 0.73757 0.25706 0.67915 0.0
C560 C 0.7251 0.23852 0.68253 0.0
C561 C 0.70423 0.23379 0.67059 0.0
C562 C 0.69577 0.24747 0.65573 0.0
C563 C 0.7338 0.22396 0.69842 0.0
C564 C 0.73867 0.2037 0.69283 0.0
C565 C 0.73726 0.22988 0.71892 0.0
C566 C 0.73092 0.25067 0.72612 0.0
C567 C 0.70677 0.25863 0.72338 0.0
C568 C 0.70095 0.27828 0.7301 0.0
C569 C 0.71907 0.29006 0.73972 0.0
C570 C 0.74304 0.28219 0.74268 0.0
C571 C 0.74897 0.26256 0.73597 0.0
H572 H 0.71453 0.30526 0.74491 0.0
H573 H 0.75868 0.11155 0.68321 0.0
H574 H 0.74667 0.78737 0.80236 0.0
H575 H 0.73055 0.76227 0.77844 0.0
H576 H 0.79317 0.72283 0.79129 0.0
H577 H 0.80922 0.74774 0.81554 0.0
H578 H 0.7489 0.74718 0.74415 0.0
H579 H 0.77427 0.6733 0.78835 0.0
H580 H 0.77983 0.66162 0.82387 0.0
H581 H 0.73017 0.70864 0.8446 0.0
H582 H 0.72406 0.72042 0.8092 0.0
H583 H 0.73824 0.66163 0.6793 0.0
H584 H 0.75345 0.68646 0.70393 0.0
H585 H 0.69127 0.67281 0.74352 0.0
H586 H 0.67614 0.64771 0.71911 0.0
H587 H 0.73335 0.67537 0.76489 0.0
H588 H 0.69156 0.71597 0.71447 0.0
H589 H 0.68216 0.72844 0.6798 0.0
H590 H 0.75749 0.74953 0.67309 0.0
H591 H 0.76745 0.73693 0.70764 0.0
C592 C 0.75701 0.77334 0.80013 0.0
C593 C 0.77917 0.7695 0.81091 0.0
C594 C 0.74781 0.75904 0.78639 0.0
C595 C 0.76053 0.7406 0.7832 0.0
C596 C 0.78285 0.73682 0.79374 0.0
C597 C 0.79204 0.75111 0.80754 0.0
C598 C 0.75039 0.72536 0.76882 0.0
C599 C 0.74555 0.73147 0.74868 0.0
C600 C 0.74561 0.70495 0.77481 0.0
C601 C 0.74893 0.69786 0.79614 0.0
C602 C 0.76448 0.68109 0.80049 0.0
C603 C 0.76773 0.67447 0.8206 0.0
C604 C 0.75543 0.68443 0.83649 0.0
C605 C 0.73977 0.70099 0.83229 0.0
C606 C 0.73643 0.70766 0.81221 0.0
C607 C 0.72781 0.66389 0.69326 0.0
C608 C 0.70593 0.65276 0.69723 0.0
C609 C 0.73649 0.67814 0.70729 0.0
C610 C 0.72335 0.68165 0.72547 0.0
C611 C 0.70169 0.67035 0.72959 0.0
C612 C 0.69303 0.65607 0.71559 0.0
C613 C 0.73215 0.69713 0.74016 0.0
C614 C 0.73679 0.69106 0.76035 0.0
C615 C 0.73625 0.71768 0.73433 0.0
C616 C 0.73031 0.72533 0.71357 0.0
C617 C 0.70618 0.72313 0.70554 0.0
C618 C 0.70074 0.73025 0.68592 0.0
C619 C 0.71923 0.73973 0.67423 0.0
C620 C 0.74319 0.74216 0.68215 0.0
C621 C 0.74874 0.73505 0.70176 0.0
H622 H 0.71498 0.74523 0.65904 0.0
H623 H 0.75799 0.67928 0.85205 0.0
H624 H 0.19043 0.17885 0.92887 0.0
H625 H 0.20015 0.17219 0.96477 0.0
H626 H 0.24981 0.12356 0.94716 0.0
H627 H 0.24084 0.13058 0.91118 0.0
H628 H 0.2027 0.11496 0.97311 0.0
H629 H 0.27774 0.1547 0.96917 0.0
H630 H 0.30248 0.1854 0.96122 0.0
H631 H 0.25839 0.22024 0.00323 0.0
H632 H 0.23311 0.18981 0.01121 0.0
H633 H 0.2148 0.08055 0.07325 0.0
H634 H 0.22754 0.091 0.03898 0.0
H635 H 0.20675 0.15317 0.05237 0.0
H636 H 0.19531 0.14292 0.08708 0.0
H637 H 0.24452 0.15396 0.02775 0.0
H638 H 0.16622 0.11893 0.02833 0.0
H639 H 0.13705 0.09078 0.03573 0.0
H640 H 0.18135 0.05027 -0.0007 0.0
H641 H 0.21098 0.07813 -0.0081 0.0
C642 C 0.20411 0.16724 0.93265 0.0
C643 C 0.21486 0.15522 0.91731 0.0
C644 C 0.20967 0.16348 0.95311 0.0
C645 C 0.2257 0.14742 0.95851 0.0
C646 C 0.23757 0.13615 0.9432 0.0
C647 C 0.23247 0.14021 0.92269 0.0
C648 C 0.22653 0.14035 0.9799 0.0
C649 C 0.21234 0.12316 -0.01496 0.0
C650 C 0.23823 0.15166 -0.0046 0.0
C651 C 0.25337 0.17 -0.00937 0.0
C652 C 0.27314 0.16895 0.97655 0.0
C653 C 0.2873 0.1863 0.97208 0.0
C654 C 0.28197 0.20477 0.98167 0.0
C655 C 0.26248 0.20593 -0.0042 0.0
C656 C 0.24825 0.18862 0.00032 0.0
C657 C 0.21337 0.0965 0.06898 0.0
C658 C 0.20378 0.11089 0.0827 0.0
C659 C 0.22056 0.10246 0.04937 0.0
C660 C 0.21744 0.12278 0.04287 0.0
C661 C 0.20923 0.13739 0.05697 0.0
C662 C 0.20263 0.13152 0.07678 0.0
C663 C 0.22067 0.12843 0.02105 0.0
C664 C 0.2353 0.14546 0.01582 0.0
C665 C 0.20876 0.11732 0.00539 0.0
C666 C 0.19097 0.10054 0.00977 0.0
C667 C 0.16983 0.10397 0.02202 0.0
C668 C 0.15321 0.08808 0.0262 0.0
C669 C 0.15739 0.06873 0.01804 0.0
C670 C 0.17817 0.06525 0.00564 0.0
C671 C 0.19488 0.08109 0.00145 0.0
H672 H 0.1445 0.05645 0.02129 0.0
H673 H 0.29296 0.21818 0.97819 0.0
H674 H 0.76509 0.13886 0.87478 0.0
H675 H 0.75565 0.15343 0.9082 0.0
H676 H 0.77463 0.09618 0.937 0.0
H677 H 0.78405 0.08145 0.90383 0.0
H678 H 0.72417 0.14183 0.94335 0.0
H679 H 0.81599 0.10861 0.97417 0.0
H680 H 0.85703 0.09728 0.96136 0.0
H681 H 0.85124 0.13921 0.91104 0.0
H682 H 0.81038 0.151 0.92372 0.0
H683 H 0.73901 0.14305 0.05268 0.0
H684 H 0.73234 0.13706 0.01629 0.0
H685 H 0.78843 0.18193 0.00161 0.0
H686 H 0.79547 0.18767 0.03782 0.0
H687 H 0.79999 0.14594 -0.0137 0.0
H688 H 0.72792 0.18891 -0.01258 0.0
H689 H 0.68717 0.20134 -0.00032 0.0
H690 H 0.65398 0.14358 -0.01434 0.0
H691 H 0.69462 0.13069 0.97357 0.0
C692 C 0.76685 0.12925 0.88819 0.0
C693 C 0.7757 0.10907 0.88664 0.0
C694 C 0.76127 0.13757 0.90724 0.0
C695 C 0.76464 0.1259 0.925 0.0
C696 C 0.77202 0.10543 0.92342 0.0
C697 C 0.77748 0.09708 0.90443 0.0
C698 C 0.76354 0.13562 0.94524 0.0
C699 C 0.74067 0.1428 0.95281 0.0
C700 C 0.78521 0.13718 0.95731 0.0
C701 C 0.81003 0.13052 0.94979 0.0
C702 C 0.82355 0.11547 0.96042 0.0
C703 C 0.84676 0.10896 0.95318 0.0
C704 C 0.8567 0.11747 0.93536 0.0
C705 C 0.84349 0.13258 0.92479 0.0
C706 C 0.82029 0.13916 0.93199 0.0
C707 C 0.7493 0.15211 0.04166 0.0
C708 C 0.76801 0.16562 0.04802 0.0
C709 C 0.74546 0.14869 0.02087 0.0
C710 C 0.76005 0.15893 0.00624 0.0
C711 C 0.7771 0.17375 0.01264 0.0
C712 C 0.78109 0.17703 0.03333 0.0
C713 C 0.7605 0.15207 -0.01523 0.0
C714 C 0.78338 0.14521 0.97693 0.0
C715 C 0.73886 0.15108 0.9725 0.0
C716 C 0.71439 0.15878 0.97975 0.0
C717 C 0.71198 0.17879 -0.01289 0.0
C718 C 0.68889 0.18594 -0.006 0.0
C719 C 0.66801 0.17324 -0.00651 0.0
C720 C 0.67017 0.15339 -0.01394 0.0
C721 C 0.69323 0.14616 0.97916 0.0
H722 H 0.65015 0.1788 -0.00117 0.0
H723 H 0.87466 0.1124 0.92976 0.0
H724 H 0.75099 0.81284 0.91596 0.0
H725 H 0.74621 0.82015 0.95234 0.0
H726 H 0.82412 0.8066 0.96179 0.0
H727 H 0.82892 0.79901 0.92571 0.0
H728 H 0.79732 0.79335 -0.00674 0.0
H729 H 0.80448 0.85505 0.95328 0.0
H730 H 0.79221 0.87928 0.92616 0.0
H731 H 0.72053 0.88706 0.95441 0.0
H732 H 0.73225 0.86259 0.98152 0.0
H733 H 0.81594 0.88226 0.06807 0.0
H734 H 0.80961 0.87 0.03343 0.0
H735 H 0.76473 0.82044 0.05662 0.0
H736 H 0.77148 0.83229 0.09137 0.0
H737 H 0.77122 0.8642 0.00916 0.0
H738 H 0.77566 0.77812 0.02825 0.0
H739 H 0.79338 0.75506 0.05438 0.0
H740 H 0.85108 0.79856 0.06668 0.0
H741 H 0.8339 0.82173 0.04046 0.0
C742 C 0.76694 0.81099 0.92589 0.0
C743 C 0.79041 0.80559 0.91795 0.0
C744 C 0.76421 0.81527 0.94664 0.0
C745 C 0.78491 0.81425 0.95969 0.0
C746 C 0.80791 0.80754 0.952 0.0
C747 C 0.81064 0.80327 0.93134 0.0
C748 C 0.78343 0.8217 0.98094 0.0
C749 C 0.79131 0.80875 -0.00322 0.0
C750 C 0.77612 0.84196 -0.01453 0.0
C751 C 0.76913 0.85681 0.96928 0.0
C752 C 0.78603 0.86181 0.95362 0.0
C753 C 0.77919 0.8756 0.93826 0.0
C754 C 0.75558 0.88466 0.93853 0.0
C755 C 0.73879 0.87999 0.95419 0.0
C756 C 0.74552 0.86616 0.96956 0.0
C757 C 0.80458 0.86883 0.06582 0.0
C758 C 0.79446 0.85813 0.08253 0.0
C759 C 0.80089 0.86188 0.04598 0.0
C760 C 0.78697 0.84415 0.04243 0.0
C761 C 0.77591 0.83395 0.05901 0.0
C762 C 0.77976 0.84078 0.07887 0.0
C763 C 0.78516 0.83584 0.0215 0.0
C764 C 0.7767 0.84865 0.00572 0.0
C765 C 0.79265 0.81564 0.01693 0.0
C766 C 0.8033 0.80174 0.03258 0.0
C767 C 0.79216 0.78272 0.0365 0.0
C768 C 0.80211 0.76964 0.05133 0.0
C769 C 0.82328 0.77538 0.06224 0.0
C770 C 0.83462 0.79417 0.05828 0.0
C771 C 0.82477 0.80729 0.04346 0.0
H772 H 0.83094 0.76524 0.07372 0.0
H773 H 0.75031 0.89534 0.92664 0.0
H774 H 0.1847 0.78534 0.03215 0.0
H775 H 0.19172 0.79408 -0.0037 0.0
H776 H 0.2393 0.84378 0.01411 0.0
H777 H 0.23275 0.83487 0.05006 0.0
H778 H 0.19765 0.85471 -0.01103 0.0
H779 H 0.2657 0.80742 -0.01006 0.0
H780 H 0.28645 0.77448 -0.00324 0.0
H781 H 0.23587 0.74454 0.95618 0.0
H782 H 0.21457 0.77726 0.94933 0.0
H783 H 0.21134 0.88675 0.887 0.0
H784 H 0.22163 0.87603 0.9217 0.0
H785 H 0.19145 0.81628 0.90975 0.0
H786 H 0.18256 0.82663 0.87462 0.0
H787 H 0.22961 0.81175 0.93266 0.0
H788 H 0.15785 0.85608 0.93531 0.0
H789 H 0.13438 0.88785 0.92869 0.0
H790 H 0.18803 0.92178 0.96305 0.0
H791 H 0.21199 0.89022 0.96966 0.0
C792 C 0.19718 0.7978 0.02841 0.0
C793 C 0.20812 0.80946 0.04387 0.0
C794 C 0.20121 0.80274 0.00794 0.0
C795 C 0.216 0.81958 0.0026 0.0
C796 C 0.22788 0.8307 0.01797 0.0
C797 C 0.22421 0.82553 0.03847 0.0
C798 C 0.21661 0.82683 0.9812 0.0
C799 C 0.20513 0.84555 0.97666 0.0
C800 C 0.22561 0.81451 0.96519 0.0
C801 C 0.23841 0.7948 0.96924 0.0
C802 C 0.25886 0.79379 -0.0174 0.0
C803 C 0.27075 0.77516 -0.01356 0.0
C804 C 0.26245 0.75743 0.97694 0.0
C805 C 0.24227 0.75829 0.96354 0.0
C806 C 0.2303 0.77689 0.95965 0.0
C807 C 0.20703 0.8713 0.89178 0.0
C808 C 0.19589 0.85757 0.87823 0.0
C809 C 0.21284 0.86519 0.91163 0.0
C810 C 0.20676 0.84548 0.91857 0.0
C811 C 0.19629 0.83158 0.90482 0.0
C812 C 0.1911 0.83752 0.88478 0.0
C813 C 0.21031 0.83958 0.94031 0.0
C814 C 0.22244 0.82109 0.94494 0.0
C815 C 0.20143 0.85191 0.95646 0.0
C816 C 0.18683 0.87084 0.95279 0.0
C817 C 0.16469 0.87034 0.94136 0.0
C818 C 0.15131 0.8883 0.93762 0.0
C819 C 0.15976 0.90683 0.94539 0.0
C820 C 0.18154 0.90742 0.957 0.0
C821 C 0.19502 0.8895 0.96077 0.0
H822 H 0.14939 0.92073 0.94245 0.0
H823 H 0.27169 0.74302 0.97994 0.0
H824 H 0.08198 0.10602 0.10786 0.0
H825 H 0.04079 0.12178 0.10639 0.0
H826 H 0.05545 0.15359 0.16237 0.0
H827 H 0.09732 0.13808 0.16376 0.0
H828 H 0.0077 0.12963 0.15945 0.0
H829 H 0.05249 0.18285 0.12606 0.0
H830 H 0.08318 0.19753 0.10213 0.0
H831 H 0.04319 0.17226 0.05168 0.0
H832 H 0.01246 0.15714 0.07532 0.0
H833 H 0.8831 0.16475 0.13605 0.0
H834 H 0.92671 0.16633 0.1473 0.0
H835 H 0.95054 0.1416 0.08968 0.0
H836 H 0.9076 0.1403 0.07829 0.0
H837 H 0.98035 0.17176 0.1005 0.0
H838 H 0.94371 0.11173 0.13316 0.0
H839 H 0.91387 0.09411 0.15585 0.0
H840 H 0.939 0.12988 0.20635 0.0
H841 H 0.96881 0.14787 0.18386 0.0
C842 C 0.07657 0.11648 0.11981 0.0
C843 C 0.09283 0.1208 0.13595 0.0
C844 C 0.05307 0.12552 0.1189 0.0
C845 C 0.04519 0.13887 0.13423 0.0
C846 C 0.06133 0.14336 0.15038 0.0
C847 C 0.08518 0.13457 0.1511 0.0
C848 C 0.01956 0.14719 0.13336 0.0
C849 C 0.00172 0.13938 0.14695 0.0
C850 C 0.01187 0.15961 0.11685 0.0
C851 C 0.0302 0.1688 0.10251 0.0
C852 C 0.05032 0.1803 0.10988 0.0
C853 C 0.06772 0.18872 0.09636 0.0
C854 C 0.06515 0.18581 0.0754 0.0
C855 C 0.04515 0.17451 0.06792 0.0
C856 C 0.02771 0.16604 0.08138 0.0
C857 C 0.89769 0.15978 0.12576 0.0
C858 C 0.89181 0.15232 0.1063 0.0
C859 C 0.92257 0.16067 0.13222 0.0
C860 C 0.94189 0.15401 0.11935 0.0
C861 C 0.936 0.14694 0.09984 0.0
C862 C 0.91133 0.1461 0.09339 0.0
C863 C 0.9683 0.15343 0.12604 0.0
C864 C 0.98632 0.16267 0.11348 0.0
C865 C 0.97612 0.14209 0.14333 0.0
C866 C 0.9582 0.13133 0.1568 0.0
C867 C 0.94271 0.11595 0.14906 0.0
C868 C 0.92584 0.10588 0.16189 0.0
C869 C 0.92447 0.11093 0.18251 0.0
C870 C 0.94002 0.12603 0.19036 0.0
C871 C 0.95691 0.13616 0.17759 0.0
H872 H 0.9114 0.10311 0.19242 0.0
H873 H 0.07864 0.19234 0.06496 0.0
H874 H 0.74118 0.91756 0.14655 0.0
H875 H 0.73761 0.95406 0.13862 0.0
H876 H 0.80548 0.96546 0.17169 0.0
H877 H 0.80934 0.92914 0.17948 0.0
H878 H 0.73803 -0.00744 0.15904 0.0
H879 H 0.84307 -0.00811 0.13981 0.0
H880 H 0.87559 0.96687 0.13054 0.0
H881 H 0.82018 0.92841 0.10358 0.0
H882 H 0.78744 0.95335 0.11236 0.0
H883 H 0.78419 0.09334 0.14122 0.0
H884 H 0.77575 0.05858 0.15309 0.0
H885 H 0.78458 0.03642 0.09175 0.0
H886 H 0.79349 0.07097 0.07983 0.0
H887 H 0.81046 0.01384 0.11677 0.0
H888 H 0.7269 0.03893 0.11495 0.0
H889 H 0.6922 0.06251 0.12238 0.0
H890 H 0.70056 0.0508 0.18644 0.0
H891 H 0.73556 0.02736 0.17942 0.0
C892 C 0.75495 0.92793 0.15262 0.0
C893 C 0.7758 0.92047 0.16331 0.0
C894 C 0.75284 0.94878 0.14812 0.0
C895 C 0.77152 0.96234 0.15428 0.0
C896 C 0.79104 0.95516 0.1666 0.0
C897 C 0.79322 0.9344 0.17101 0.0
C898 C 0.77277 -0.01682 0.14552 0.0
C899 C 0.75384 -0.00269 0.14984 0.0
C900 C 0.79308 -0.0109 0.13303 0.0
C901 C 0.8128 0.9744 0.12693 0.0
C902 C 0.83787 0.97816 0.13178 0.0
C903 C 0.85633 0.96398 0.12662 0.0
C904 C 0.84995 0.94603 0.11654 0.0
C905 C 0.8251 0.94229 0.11145 0.0
C906 C 0.80659 0.95644 0.11651 0.0
C907 C 0.78414 0.0811 0.13022 0.0
C908 C 0.78966 0.08494 0.10958 0.0
C909 C 0.77917 0.06124 0.13702 0.0
C910 C 0.77938 0.0449 0.12329 0.0
C911 C 0.78437 0.04878 0.10263 0.0
C912 C 0.78945 0.06857 0.09584 0.0
C913 C 0.77594 0.02359 0.13058 0.0
C914 C 0.79457 0.00926 0.12596 0.0
C915 C 0.75505 0.01745 0.14237 0.0
C916 C 0.73401 0.03153 0.14666 0.0
C917 C 0.72148 0.04152 0.13063 0.0
C918 C 0.70173 0.05483 0.13477 0.0
C919 C 0.69422 0.05819 0.15487 0.0
C920 C 0.70642 0.0482 0.17088 0.0
C921 C 0.7262 0.03488 0.16683 0.0
H922 H 0.67892 0.0685 0.15804 0.0
H923 H 0.86425 0.93504 0.11264 0.0
H924 H 0.87939 0.8255 0.13011 0.0
H925 H 0.92169 0.81167 0.12764 0.0
H926 H 0.94694 0.85598 0.17144 0.0
H927 H 0.90505 0.87077 0.17248 0.0
H928 H 0.97655 0.85739 0.14322 0.0
H929 H 0.94467 0.80057 0.17994 0.0
H930 H 0.91593 0.77255 0.18877 0.0
H931 H 0.93124 0.74392 0.13142 0.0
H932 H 0.95981 0.77192 0.12211 0.0
H933 H 0.09925 0.81588 0.14049 0.0
H934 H 0.05716 0.81799 0.1551 0.0
H935 H 0.02564 0.80285 0.09679 0.0
H936 H 0.06753 0.80135 0.08193 0.0
H937 H 0.00154 0.78474 0.13719 0.0
H938 H 0.02764 0.84748 0.10042 0.0
H939 H 0.05799 0.87509 0.09428 0.0
H940 H 0.05459 0.89152 0.15745 0.0
H941 H 0.02448 0.86376 0.16399 0.0
C942 C 0.89396 0.83193 0.13948 0.0
C943 C 0.88917 0.84913 0.15147 0.0
C944 C 0.91813 0.82395 0.13821 0.0
C945 C 0.93769 0.8326 0.14951 0.0
C946 C 0.93235 0.84907 0.16245 0.0
C947 C 0.90842 0.85746 0.16315 0.0
C948 C 0.96405 0.82615 0.14607 0.0
C949 C 0.9819 0.84144 0.14246 0.0
C950 C 0.9714 0.80537 0.14474 0.0
C951 C 0.95426 0.78845 0.15027 0.0
C952 C 0.94178 0.78838 0.16914 0.0
C953 C 0.92554 0.77248 0.17425 0.0
C954 C 0.92173 0.75649 0.16065 0.0
C955 C 0.9342 0.75633 0.14194 0.0
C956 C 0.95045 0.77219 0.13675 0.0
C957 C 0.08337 0.81248 0.13093 0.0
C958 C 0.08658 0.80863 0.11005 0.0
C959 C 0.0594 0.81365 0.1393 0.0
C960 C 0.03842 0.81052 0.12699 0.0
C961 C 0.04167 0.80514 0.10653 0.0
C962 C 0.06556 0.80444 0.09805 0.0
C963 C 0.01327 0.81597 0.13441 0.0
C964 C -0.00414 0.80057 0.13854 0.0
C965 C 0.00634 0.8366 0.13674 0.0
C966 C 0.02409 0.85344 0.13273 0.0
C967 C 0.03354 0.85688 0.11302 0.0
C968 C 0.05066 0.87256 0.10946 0.0
C969 C 0.05828 0.88501 0.12548 0.0
C970 C 0.04872 0.88184 0.14507 0.0
C971 C 0.03163 0.86614 0.14871 0.0
H972 H 0.07154 0.89714 0.1227 0.0
H973 H 0.90914 0.7442 0.16463 0.0
H974 H 0.23369 0.04711 0.14846 0.0
H975 H 0.23538 0.0107 0.14024 0.0
H976 H 0.16367 0.00196 0.16884 0.0
H977 H 0.16167 0.03825 0.1768 0.0
H978 H 0.2312 0.97249 0.15921 0.0
H979 H 0.12729 0.97702 0.13577 0.0
H980 H 0.09692 0.00317 0.12469 0.0
H981 H 0.15639 0.03981 0.10041 0.0
H982 H 0.18703 0.01377 0.11107 0.0
H983 H 0.18458 0.87317 0.13999 0.0
H984 H 0.19237 0.90775 0.15203 0.0
H985 H 0.18451 0.93084 0.09065 0.0
H986 H 0.17589 0.89641 0.07862 0.0
H987 H 0.16016 0.95409 0.11464 0.0
H988 H 0.24249 0.92669 0.11512 0.0
H989 H 0.27593 0.9021 0.12329 0.0
H990 H 0.26522 0.91292 0.18716 0.0
H991 H 0.23147 0.93738 0.17939 0.0
C992 C 0.21864 0.03731 0.15352 0.0
C993 C 0.19734 0.04555 0.16296 0.0
C994 C 0.21964 0.01652 0.14882 0.0
C995 C 0.19941 0.00378 0.15356 0.0
C996 C 0.17929 0.01164 0.16476 0.0
C997 C 0.17819 0.03236 0.16932 0.0
C998 C 0.19766 -0.01686 0.14465 0.0
C999 C 0.21568 0.96838 0.14951 0.0
C1000 C 0.17786 0.97806 0.13142 0.0
C1001 C 0.15945 -0.00648 0.1244 0.0
C1002 C 0.13385 -0.0094 0.12796 0.0
C1003 C 0.1166 0.00542 0.12178 0.0
C1004 C 0.12473 0.02318 0.11193 0.0
C1005 C 0.15012 0.0261 0.10812 0.0
C1006 C 0.16743 0.01132 0.11424 0.0
C1007 C 0.1846 0.8856 0.12904 0.0
C1008 C 0.17956 0.88204 0.10834 0.0
C1009 C 0.18922 0.90536 0.13593 0.0
C1010 C 0.18936 0.92191 0.12222 0.0
C1011 C 0.1845 0.91834 0.10153 0.0
C1012 C 0.17957 0.89864 0.09467 0.0
C1013 C 0.19341 0.94305 0.12954 0.0
C1014 C 0.17575 0.95803 0.12434 0.0
C1015 C 0.21399 0.94842 0.14192 0.0
C1016 C 0.23429 0.93373 0.14667 0.0
C1017 C 0.24713 0.92371 0.13092 0.0
C1018 C 0.26617 0.90981 0.13547 0.0
C1019 C 0.27266 0.90591 0.15573 0.0
C1020 C 0.26016 0.91594 0.17148 0.0
C1021 C 0.24109 0.92984 0.167 0.0
H1022 H 0.2874 0.89515 0.15923 0.0
H1023 H 0.11135 0.03465 0.10721 0.0
H1024 H 0.88949 0.80455 0.82351 0.0
H1025 H 0.9311 0.80684 0.80766 0.0
H1026 H 0.94351 0.86411 0.83793 0.0
H1027 H 0.90258 0.86178 0.85394 0.0
H1028 H 0.95884 0.86356 0.79614 0.0
H1029 H 0.96502 0.82287 0.85926 0.0
H1030 H 0.95453 0.79294 0.88057 0.0
H1031 H 0.98097 0.75298 0.83361 0.0
H1032 H -0.00868 0.78272 0.81192 0.0
H1033 H 0.07864 0.89051 0.82185 0.0
H1034 H 0.0354 0.87997 0.81946 0.0
H1035 H 0.05828 0.82255 0.79355 0.0
H1036 H 0.1021 0.83291 0.79625 0.0
H1037 H 0.02416 0.81674 0.82268 0.0
H1038 H 0.02851 0.85789 0.76364 0.0
H1039 H 0.03944 0.88764 0.74229 0.0
H1040 H -0.00672 0.92609 0.7794 0.0
H1041 H 0.98235 0.89664 0.80118 0.0
C1042 C 0.90104 0.81771 0.82653 0.0
C1043 C 0.89293 0.83291 0.84007 0.0
C1044 C 0.92474 0.81898 0.81752 0.0
C1045 C 0.94031 0.83564 0.82167 0.0
C1046 C 0.93173 0.85118 0.83448 0.0
C1047 C 0.9084 0.84976 0.84371 0.0
C1048 C 0.96628 0.83665 0.81406 0.0
C1049 C 0.97317 0.85328 0.80177 0.0
C1050 C 0.98476 0.82277 0.82083 0.0
C1051 C 0.9786 0.80497 0.83388 0.0
C1052 C 0.96838 0.8077 0.85342 0.0
C1053 C 0.96251 0.79078 0.86558 0.0
C1054 C 0.967 0.77107 0.85842 0.0
C1055 C 0.97744 0.76825 0.83911 0.0
C1056 C 0.98331 0.78512 0.82688 0.0
C1057 C 0.07461 0.87568 0.81549 0.0
C1058 C 0.09391 0.86257 0.80922 0.0
C1059 C 0.04977 0.86973 0.81398 0.0
C1060 C 0.04352 0.85062 0.80595 0.0
C1061 C 0.06267 0.83744 0.79963 0.0
C1062 C 0.08768 0.84339 0.80118 0.0
C1063 C 0.01696 0.8443 0.80552 0.0
C1064 C 0.0099 0.82667 0.81633 0.0
C1065 C -0.00171 0.8572 0.79722 0.0
C1066 C 0.00465 0.87501 0.78409 0.0
C1067 C 0.02079 0.8727 0.76733 0.0
C1068 C 0.02697 0.88952 0.75514 0.0
C1069 C 0.01707 0.90874 0.75949 0.0
C1070 C 0.00092 0.91118 0.77603 0.0
C1071 C -0.00532 0.89442 0.78829 0.0
H1072 H 0.02189 0.92174 0.75003 0.0
H1073 H 0.96245 0.75799 0.86786 0.0
H1074 H 0.247 0.90806 0.82715 0.0
H1075 H 0.25477 0.94345 0.8371 0.0
H1076 H 0.20648 0.96465 0.78894 0.0
H1077 H 0.1984 0.92938 0.77908 0.0
H1078 H 0.24941 -0.00937 0.79687 0.0
H1079 H 0.17992 0.95615 0.83237 0.0
H1080 H 0.16273 0.9282 0.85348 0.0
H1081 H 0.21637 0.94068 0.90018 0.0
H1082 H 0.23385 0.96874 0.87933 0.0
H1083 H 0.19015 0.08187 0.82531 0.0
H1084 H 0.20365 0.04823 0.81393 0.0
H1085 H 0.23014 0.03429 0.87454 0.0
H1086 H 0.21532 0.06753 0.8862 0.0
H1087 H 0.20653 0.00394 0.86254 0.0
H1088 H 0.27049 0.04291 0.83133 0.0
H1089 H 0.2895 0.07063 0.81107 0.0
H1090 H 0.25157 0.04973 0.75763 0.0
H1091 H 0.23204 0.02205 0.77761 0.0
C1092 C 0.23875 0.92029 0.81823 0.0
C1093 C 0.2219 0.91602 0.80245 0.0
C1094 C 0.24314 0.94047 0.82398 0.0
C1095 C 0.23096 0.95658 0.81387 0.0
C1096 C 0.21605 0.95241 0.7969 0.0
C1097 C 0.2114 0.93227 0.79132 0.0
C1098 C 0.23054 0.97731 0.82262 0.0
C1099 C 0.24011 -0.00633 0.81123 0.0
C1100 C 0.21904 0.98106 0.84163 0.0
C1101 C 0.20833 0.96438 0.85424 0.0
C1102 C 0.18812 0.95285 0.84709 0.0
C1103 C 0.17831 0.93701 0.85901 0.0
C1104 C 0.18854 0.93259 0.8781 0.0
C1105 C 0.2085 0.94409 0.88537 0.0
C1106 C 0.21832 0.96 0.87354 0.0
C1107 C 0.19907 0.07169 0.83614 0.0
C1108 C 0.2016 0.07727 0.85665 0.0
C1109 C 0.20701 0.05249 0.82959 0.0
C1110 C 0.21836 0.03873 0.84327 0.0
C1111 C 0.22145 0.04456 0.86366 0.0
C1112 C 0.21298 0.06357 0.87032 0.0
C1113 C 0.22509 0.01772 0.83667 0.0
C1114 C 0.2165 0.00116 0.84843 0.0
C1115 C 0.23794 0.01385 0.81817 0.0
C1116 C 0.24967 0.03046 0.80603 0.0
C1117 C 0.26606 0.0443 0.81529 0.0
C1118 C 0.27695 0.06 0.80385 0.0
C1119 C 0.27171 0.06196 0.78308 0.0
C1120 C 0.25561 0.0482 0.77371 0.0
C1121 C 0.24465 0.03247 0.78509 0.0
H1122 H 0.28016 0.07413 0.77425 0.0
H1123 H 0.18095 0.9203 0.88729 0.0
H1124 H 0.09439 0.15795 0.83647 0.0
H1125 H 0.05097 0.15564 0.82466 0.0
H1126 H 0.03663 0.10864 0.86941 0.0
H1127 H 0.07944 0.111 0.88144 0.0
H1128 H 0.02127 0.09942 0.82837 0.0
H1129 H 0.01686 0.15368 0.87916 0.0
H1130 H 0.02823 0.1874 0.89271 0.0
H1131 H 0.00213 0.21618 0.83777 0.0
H1132 H -0.00908 0.18256 0.82379 0.0
H1133 H 0.89863 0.08139 0.85195 0.0
H1134 H 0.94201 0.09178 0.8522 0.0
H1135 H 0.92538 0.14108 0.81051 0.0
H1136 H 0.88126 0.13088 0.81039 0.0
H1137 H 0.95752 0.15298 0.84075 0.0
H1138 H 0.95469 0.09991 0.79239 0.0
H1139 H 0.94316 0.06655 0.77813 0.0
H1140 H 0.98343 0.03598 0.8259 0.0
H1141 H -0.0051 0.06915 0.84065 0.0
C1142 C 0.08192 0.14717 0.84379 0.0
C1143 C 0.09035 0.13467 0.85991 0.0
C1144 C 0.05718 0.14591 0.83706 0.0
C1145 C 0.0407 0.13195 0.84617 0.0
C1146 C 0.04912 0.11947 0.86216 0.0
C1147 C 0.07359 0.12092 0.86907 0.0
C1148 C 0.01462 0.12986 0.83919 0.0
C1149 C 0.0073 0.11112 0.83102 0.0
C1150 C -0.00333 0.14546 0.84189 0.0
C1151 C 0.00338 0.16561 0.85033 0.0
C1152 C 0.01379 0.16718 0.86989 0.0
C1153 C 0.02015 0.18628 0.87767 0.0
C1154 C 0.016 0.20392 0.86607 0.0
C1155 C 0.0054 0.2025 0.84671 0.0
C1156 C -0.00097 0.18343 0.83886 0.0
C1157 C 0.90403 0.09446 0.84278 0.0
C1158 C 0.88644 0.10517 0.83096 0.0
C1159 C 0.92895 0.10034 0.8429 0.0
C1160 C 0.93706 0.11691 0.83102 0.0
C1161 C 0.91952 0.12812 0.81965 0.0
C1162 C 0.89436 0.12227 0.81959 0.0
C1163 C 0.96397 0.12214 0.83078 0.0
C1164 C 0.9715 0.14144 0.83754 0.0
C1165 C 0.98226 0.10712 0.82654 0.0
C1166 C 0.97558 0.08706 0.81767 0.0
C1167 C 0.96097 0.08608 0.79993 0.0
C1168 C 0.95446 0.06719 0.79176 0.0
C1169 C 0.96254 0.04916 0.80111 0.0
C1170 C 0.97719 0.04997 0.81866 0.0
C1171 C 0.98375 0.06882 0.82692 0.0
H1172 H 0.95747 0.03455 0.79476 0.0
H1173 H 0.02092 0.21869 0.87212 0.0
H1174 H 0.79836 0.90265 0.87479 0.0
H1175 H 0.78197 0.93474 0.86182 0.0
H1176 H 0.74253 0.90269 0.8146 0.0
H1177 H 0.75981 0.87033 0.82711 0.0
H1178 H 0.76423 0.93324 0.79845 0.0
H1179 H 0.71072 0.92721 0.85465 0.0
H1180 H 0.698 0.91988 0.89006 0.0
H1181 H 0.74277 0.96964 0.91113 0.0
H1182 H 0.75612 0.97709 0.87591 0.0
H1183 H 0.72972 0.05069 0.81375 0.0
H1184 H 0.71815 0.01462 0.81719 0.0
H1185 H 0.79262 -0.00292 0.79924 0.0
H1186 H 0.80397 0.03271 0.79534 0.0
H1187 H 0.73572 -0.01093 0.84359 0.0
H1188 H 0.79661 0.95237 0.77875 0.0
H1189 H 0.80586 0.95891 0.7425 0.0
H1190 H 0.73805 -0.00661 0.73665 0.0
H1191 H 0.72816 -0.01319 0.77278 0.0
C1192 C 0.78596 0.90232 0.86179 0.0
C1193 C 0.78047 0.8839 0.85195 0.0
C1194 C 0.77638 0.92073 0.85448 0.0
C1195 C 0.7606 0.92118 0.83743 0.0
C1196 C 0.75457 0.90275 0.82783 0.0
C1197 C 0.76445 0.88427 0.835 0.0
C1198 C 0.75245 0.94113 0.82881 0.0
C1199 C 0.75764 0.94538 0.80824 0.0
C1200 C 0.74275 0.95681 0.84131 0.0
C1201 C 0.73445 0.95269 0.86257 0.0
C1202 C 0.71794 0.93656 0.86683 0.0
C1203 C 0.71062 0.93237 0.88688 0.0
C1204 C 0.71958 0.94428 0.90283 0.0
C1205 C 0.73582 0.96044 0.89876 0.0
C1206 C 0.74323 0.96468 0.87873 0.0
C1207 C 0.74337 0.03909 0.81002 0.0
C1208 C 0.76781 0.04452 0.80442 0.0
C1209 C 0.73676 0.0185 0.81205 0.0
C1210 C 0.75443 0.00308 0.80833 0.0
C1211 C 0.77844 0.00859 0.80177 0.0
C1212 C 0.785 0.02904 0.79972 0.0
C1213 C 0.74929 0.98143 0.81366 0.0
C1214 C 0.74154 0.97682 0.83361 0.0
C1215 C 0.75592 0.96533 0.80042 0.0
C1216 C 0.76166 0.96911 0.77855 0.0
C1217 C 0.78354 0.9612 0.76972 0.0
C1218 C 0.78893 0.96496 0.74918 0.0
C1219 C 0.77256 0.97657 0.73729 0.0
C1220 C 0.75074 -0.01557 0.74589 0.0
C1221 C 0.74525 0.98071 0.76641 0.0
H1222 H 0.77678 0.97947 0.7214 0.0
H1223 H 0.71393 0.94099 0.91835 0.0
H1224 H 0.74534 0.65856 0.41576 0.0
H1225 H 0.75395 0.65306 0.45204 0.0
H1226 H 0.67872 0.67142 0.4667 0.0
H1227 H 0.67025 0.67739 0.43076 0.0
H1228 H 0.70858 0.68223 0.49638 0.0
H1229 H 0.69298 0.62147 0.45711 0.0
H1230 H 0.70101 0.5972 0.42927 0.0
H1231 H 0.77468 0.58608 0.45238 0.0
H1232 H 0.76715 0.61051 0.48024 0.0
H1233 H 0.67746 0.59006 0.56432 0.0
H1234 H 0.68909 0.60427 0.53138 0.0
H1235 H 0.73368 0.65 0.56106 0.0
H1236 H 0.72113 0.6363 0.59435 0.0
H1237 H 0.72825 0.60943 0.51016 0.0
H1238 H 0.73207 0.69394 0.53307 0.0
H1239 H 0.71555 0.71695 0.55953 0.0
H1240 H 0.65195 0.67801 0.56764 0.0
H1241 H 0.66799 0.65491 0.5411 0.0
C1242 C 0.7309 0.662 0.42679 0.0
C1243 C 0.70696 0.66803 0.4204 0.0
C1244 C 0.73581 0.65878 0.4475 0.0
C1245 C 0.7168 0.66141 0.46203 0.0
C1246 C 0.69366 0.66922 0.45578 0.0
C1247 C 0.68879 0.67252 0.43518 0.0
C1248 C 0.7195 0.65356 0.48318 0.0
C1249 C 0.71332 0.6664 0.49946 0.0
C1250 C 0.72512 0.6328 0.48716 0.0
C1251 C 0.72963 0.61799 0.47057 0.0
C1252 C 0.71094 0.61394 0.45616 0.0
C1253 C 0.71539 0.60016 0.44039 0.0
C1254 C 0.73837 0.59017 0.43901 0.0
C1255 C 0.75691 0.59388 0.45344 0.0
C1256 C 0.75257 0.60769 0.46922 0.0
C1257 C 0.68992 0.60304 0.56392 0.0
C1258 C 0.69813 0.61219 0.582 0.0
C1259 C 0.69667 0.61112 0.545 0.0
C1260 C 0.71202 0.6284 0.54367 0.0
C1261 C 0.72141 0.63692 0.56168 0.0
C1262 C 0.7143 0.62903 0.5807 0.0
C1263 C 0.71667 0.63796 0.5234 0.0
C1264 C 0.72431 0.62543 0.50725 0.0
C1265 C 0.71128 0.65879 0.51943 0.0
C1266 C 0.70141 0.67259 0.53533 0.0
C1267 C 0.71456 0.69032 0.5405 0.0
C1268 C 0.70528 0.70337 0.55551 0.0
C1269 C 0.68278 0.69889 0.56533 0.0
C1270 C 0.66944 0.68141 0.5601 0.0
C1271 C 0.67863 0.66833 0.54509 0.0
H1272 H 0.67563 0.70901 0.57694 0.0
H1273 H 0.74178 0.5795 0.42678 0.0
H1274 H 0.2889 0.67811 0.53222 0.0
H1275 H 0.28296 0.66943 0.49632 0.0
H1276 H 0.24088 0.61624 0.51414 0.0
H1277 H 0.24611 0.62517 0.55011 0.0
H1278 H 0.28769 0.61044 0.49006 0.0
H1279 H 0.21016 0.64717 0.48954 0.0
H1280 H 0.18287 0.67688 0.49543 0.0
H1281 H 0.22718 0.71287 0.45422 0.0
H1282 H 0.25498 0.68345 0.44832 0.0
H1283 H 0.27886 0.57402 0.38989 0.0
H1284 H 0.26778 0.58449 0.42437 0.0
H1285 H 0.28608 0.64685 0.40912 0.0
H1286 H 0.29613 0.63657 0.37429 0.0
H1287 H 0.24716 0.64694 0.43251 0.0
H1288 H 0.32703 0.61447 0.43569 0.0
H1289 H 0.3581 0.5872 0.43041 0.0
H1290 H 0.31453 0.54626 0.46731 0.0
H1291 H 0.28302 0.57323 0.47258 0.0
C1292 C 0.27764 0.66496 0.52844 0.0
C1293 C 0.26795 0.65231 0.54388 0.0
C1294 C 0.27427 0.66003 0.50797 0.0
C1295 C 0.26153 0.6422 0.50267 0.0
C1296 C 0.25064 0.63013 0.518 0.0
C1297 C 0.25354 0.6353 0.5385 0.0
C1298 C 0.2628 0.63479 0.48147 0.0
C1299 C 0.27838 0.61809 0.47748 0.0
C1300 C 0.25149 0.64541 0.46513 0.0
C1301 C 0.23479 0.66313 0.46863 0.0
C1302 C 0.21424 0.66147 0.48188 0.0
C1303 C 0.19864 0.67825 0.48519 0.0
C1304 C 0.20332 0.69676 0.47524 0.0
C1305 C 0.22358 0.69852 0.46193 0.0
C1306 C 0.23925 0.68179 0.45858 0.0
C1307 C 0.28045 0.58998 0.39386 0.0
C1308 C 0.28863 0.60444 0.37944 0.0
C1309 C 0.27415 0.59594 0.4136 0.0
C1310 C 0.27656 0.61641 0.41951 0.0
C1311 C 0.28409 0.63097 0.40496 0.0
C1312 C 0.28994 0.62507 0.38508 0.0
C1313 C 0.27212 0.62249 0.441 0.0
C1314 C 0.25617 0.63903 0.44507 0.0
C1315 C 0.28363 0.61206 0.45748 0.0
C1316 C 0.30253 0.59579 0.45433 0.0
C1317 C 0.32398 0.5996 0.44254 0.0
C1318 C 0.34168 0.58421 0.43957 0.0
C1319 C 0.33825 0.56499 0.44847 0.0
C1320 C 0.31714 0.56114 0.4604 0.0
C1321 C 0.29935 0.57648 0.46339 0.0
H1322 H 0.35199 0.55309 0.44616 0.0
H1323 H 0.19121 0.70974 0.47782 0.0
H1324 H 0.24316 0.32482 0.41687 0.0
H1325 H 0.23939 0.33157 0.45342 0.0
H1326 H 0.30073 0.29065 0.46545 0.0
H1327 H 0.30515 0.28431 0.42887 0.0
H1328 H 0.25326 0.29303 0.49596 0.0
H1329 H 0.32205 0.33096 0.46166 0.0
H1330 H 0.33627 0.35231 0.4328 0.0
H1331 H 0.27938 0.3965 0.44617 0.0
H1332 H 0.26464 0.37522 0.47496 0.0
H1333 H 0.30591 0.32226 0.58949 0.0
H1334 H 0.2968 0.31075 0.55502 0.0
H1335 H 0.26931 0.37088 0.53953 0.0
H1336 H 0.27997 0.38272 0.57366 0.0
H1337 H 0.29448 0.35918 0.51007 0.0
H1338 H 0.2301 0.32653 0.5478 0.0
H1339 H 0.21096 0.30576 0.57508 0.0
H1340 H 0.25184 0.25319 0.55493 0.0
H1341 H 0.2715 0.27371 0.52769 0.0
C1342 C 0.2553 0.31674 0.42736 0.0
C1343 C 0.27456 0.30413 0.4201 0.0
C1344 C 0.25311 0.32062 0.4482 0.0
C1345 C 0.2698 0.3116 0.46201 0.0
C1346 C 0.28759 0.29761 0.45497 0.0
C1347 C 0.29015 0.29407 0.43412 0.0
C1348 C 0.27152 0.31925 0.48305 0.0
C1349 C 0.26235 0.30741 0.49921 0.0
C1350 C 0.28264 0.3383 0.48702 0.0
C1351 C 0.29215 0.35146 0.47031 0.0
C1352 C 0.31253 0.34519 0.45837 0.0
C1353 C 0.32068 0.35727 0.44204 0.0
C1354 C 0.30868 0.37572 0.43761 0.0
C1355 C 0.28862 0.38219 0.4496 0.0
C1356 C 0.28039 0.37015 0.46594 0.0
C1357 C 0.29786 0.33298 0.57872 0.0
C1358 C 0.29365 0.35337 0.58422 0.0
C1359 C 0.29242 0.32635 0.55904 0.0
C1360 C 0.28182 0.33979 0.54467 0.0
C1361 C 0.27745 0.36016 0.55026 0.0
C1362 C 0.28353 0.36694 0.56978 0.0
C1363 C 0.27647 0.33287 0.52355 0.0
C1364 C 0.28506 0.34487 0.50716 0.0
C1365 C 0.26423 0.31415 0.51944 0.0
C1366 C 0.25243 0.30172 0.53579 0.0
C1367 C 0.23515 0.31058 0.54927 0.0
C1368 C 0.22418 0.29884 0.56472 0.0
C1369 C 0.23022 0.27818 0.56677 0.0
C1370 C 0.2472 0.2692 0.55334 0.0
C1371 C 0.25823 0.28087 0.53787 0.0
H1372 H 0.22171 0.26912 0.57874 0.0
H1373 H 0.31496 0.38502 0.42492 0.0
H1374 H 0.68942 0.32287 0.37308 0.0
H1375 H 0.69978 0.30834 0.40647 0.0
H1376 H 0.70968 0.36885 0.43046 0.0
H1377 H 0.69903 0.38357 0.39722 0.0
H1378 H 0.74732 0.33818 0.44291 0.0
H1379 H 0.65724 0.34892 0.43871 0.0
H1380 H 0.61623 0.3443 0.42247 0.0
H1381 H 0.62372 0.27927 0.42829 0.0
H1382 H 0.66497 0.28353 0.44431 0.0
H1383 H 0.72952 0.33219 0.54928 0.0
H1384 H 0.73369 0.33821 0.51276 0.0
H1385 H 0.69944 0.27988 0.50096 0.0
H1386 H 0.69361 0.27463 0.53761 0.0
H1387 H 0.67722 0.30532 0.47993 0.0
H1388 H 0.76387 0.29315 0.48826 0.0
H1389 H 0.80575 0.29602 0.50337 0.0
H1390 H 0.80723 0.35995 0.48871 0.0
H1391 H 0.76522 0.35754 0.47376 0.0
C1392 C 0.69405 0.33309 0.38539 0.0
C1393 C 0.69319 0.35438 0.38257 0.0
C1394 C 0.7 0.32475 0.40442 0.0
C1395 C 0.70546 0.33755 0.42085 0.0
C1396 C 0.70563 0.35875 0.41789 0.0
C1397 C 0.69935 0.36712 0.39895 0.0
C1398 C 0.70891 0.32898 0.44154 0.0
C1399 C 0.73208 0.33103 0.45115 0.0
C1400 C 0.6892 0.31906 0.45186 0.0
C1401 C 0.66428 0.31654 0.44248 0.0
C1402 C 0.65022 0.33364 0.43637 0.0
C1403 C 0.62692 0.33109 0.42724 0.0
C1404 C 0.61741 0.3115 0.42429 0.0
C1405 C 0.63113 0.29443 0.43054 0.0
C1406 C 0.65446 0.29691 0.43966 0.0
C1407 C 0.72356 0.32041 0.53888 0.0
C1408 C 0.71127 0.30294 0.54617 0.0
C1409 C 0.72605 0.3238 0.51794 0.0
C1410 C 0.71707 0.30944 0.50392 0.0
C1411 C 0.70641 0.29127 0.51137 0.0
C1412 C 0.70322 0.28818 0.53229 0.0
C1413 C 0.71582 0.31454 0.4818 0.0
C1414 C 0.69288 0.31199 0.4718 0.0
C1415 C 0.73596 0.32364 0.47105 0.0
C1416 C 0.76129 0.32517 0.47999 0.0
C1417 C 0.77304 0.30785 0.48838 0.0
C1418 C 0.79683 0.3094 0.4969 0.0
C1419 C 0.80913 0.32816 0.49703 0.0
C1420 C 0.79769 0.34542 0.4886 0.0
C1421 C 0.7739 0.34397 0.48007 0.0
H1422 H 0.82754 0.32933 0.50363 0.0
H1423 H 0.59937 0.30955 0.4172 0.0
H1424 H 0.581 0.6102 0.60819 0.0
H1425 H 0.5401 0.62639 0.60678 0.0
H1426 H 0.55288 0.65397 0.66528 0.0
H1427 H 0.59459 0.63803 0.66659 0.0
H1428 H 0.50591 0.63013 0.66001 0.0
H1429 H 0.54931 0.68601 0.63092 0.0
H1430 H 0.58016 0.70315 0.60885 0.0
H1431 H 0.54305 0.68051 0.55575 0.0
H1432 H 0.51219 0.66294 0.57749 0.0
H1433 H 0.38043 0.66063 0.63438 0.0
H1434 H 0.42331 0.6645 0.64677 0.0
H1435 H 0.45141 0.64215 0.58945 0.0
H1436 H 0.40907 0.63846 0.57695 0.0
H1437 H 0.47849 0.67406 0.60239 0.0
H1438 H 0.44473 0.61081 0.63116 0.0
H1439 H 0.41504 0.59098 0.65208 0.0
H1440 H 0.43493 0.62581 0.70476 0.0
H1441 H 0.46454 0.64602 0.68405 0.0
C1442 C 0.57527 0.61988 0.62068 0.0
C1443 C 0.59089 0.62281 0.63754 0.0
C1444 C 0.55195 0.6292 0.6198 0.0
C1445 C 0.54358 0.64142 0.63588 0.0
C1446 C 0.55916 0.64465 0.6527 0.0
C1447 C 0.5829 0.63562 0.65339 0.0
C1448 C 0.51778 0.64941 0.63516 0.0
C1449 C 0.49988 0.64031 0.64787 0.0
C1450 C 0.51005 0.66243 0.61912 0.0
C1451 C 0.52843 0.6731 0.60588 0.0
C1452 C 0.5478 0.68457 0.61454 0.0
C1453 C 0.56529 0.69438 0.60208 0.0
C1454 C 0.56358 0.69291 0.58091 0.0
C1455 C 0.54434 0.68165 0.57215 0.0
C1456 C 0.52681 0.67179 0.58454 0.0
C1457 C 0.39578 0.6567 0.62438 0.0
C1458 C 0.3913 0.64909 0.60472 0.0
C1459 C 0.42024 0.65892 0.63149 0.0
C1460 C 0.44055 0.65355 0.61905 0.0
C1461 C 0.43606 0.6465 0.59928 0.0
C1462 C 0.41176 0.64426 0.5922 0.0
C1463 C 0.46658 0.65398 0.62661 0.0
C1464 C 0.4845 0.6646 0.6151 0.0
C1465 C 0.47433 0.6422 0.64362 0.0
C1466 C 0.45654 0.6301 0.65602 0.0
C1467 C 0.4426 0.61435 0.64717 0.0
C1468 C 0.42582 0.60302 0.65899 0.0
C1469 C 0.42303 0.60719 0.67972 0.0
C1470 C 0.43706 0.62265 0.68869 0.0
C1471 C 0.45383 0.63404 0.67692 0.0
H1472 H 0.41004 0.59839 0.68885 0.0
H1473 H 0.57714 0.70051 0.57129 0.0
H1474 H 0.28372 0.56518 0.58024 0.0
H1475 H 0.2727 0.53144 0.59371 0.0
H1476 H 0.28499 0.55263 0.65489 0.0
H1477 H 0.29553 0.58659 0.64161 0.0
H1478 H 0.31114 0.51497 0.64238 0.0
H1479 H 0.22926 0.54557 0.64393 0.0
H1480 H 0.19346 0.56398 0.62905 0.0
H1481 H 0.1844 0.51667 0.58476 0.0
H1482 H 0.2204 0.49811 0.5992 0.0
H1483 H 0.28186 0.42348 0.68903 0.0
H1484 H 0.27757 0.46006 0.68228 0.0
H1485 H 0.24711 0.4471 0.62297 0.0
H1486 H 0.25019 0.41049 0.63015 0.0
H1487 H 0.22834 0.48187 0.63623 0.0
H1488 H 0.31003 0.45315 0.62987 0.0
H1489 H 0.34713 0.43385 0.6411 0.0
H1490 H 0.35876 0.47658 0.68944 0.0
H1491 H 0.32149 0.49598 0.67867 0.0
C1492 C 0.28396 0.56269 0.59657 0.0
C1493 C 0.29057 0.57851 0.60988 0.0
C1494 C 0.27752 0.54347 0.60422 0.0
C1495 C 0.27792 0.53965 0.62526 0.0
C1496 C 0.28447 0.55537 0.6386 0.0
C1497 C 0.29046 0.57472 0.63099 0.0
C1498 C 0.27294 0.5189 0.6332 0.0
C1499 C 0.29293 0.50784 0.64145 0.0
C1500 C 0.2494 0.50945 0.63117 0.0
C1501 C 0.22768 0.52054 0.62254 0.0
C1502 C 0.21978 0.53918 0.63091 0.0
C1503 C 0.19942 0.54962 0.62257 0.0
C1504 C 0.1867 0.54153 0.60594 0.0
C1505 C 0.19428 0.52293 0.59764 0.0
C1506 C 0.21465 0.51243 0.6059 0.0
C1507 C 0.27338 0.42849 0.67489 0.0
C1508 C 0.2665 0.41426 0.66006 0.0
C1509 C 0.2711 0.44936 0.67096 0.0
C1510 C 0.26279 0.45631 0.65185 0.0
C1511 C 0.25374 0.4421 0.63777 0.0
C1512 C 0.25546 0.42118 0.64189 0.0
C1513 C 0.26653 0.47792 0.64565 0.0
C1514 C 0.24646 0.48907 0.63751 0.0
C1515 C 0.29021 0.48736 0.64724 0.0
C1516 C 0.31282 0.47589 0.65361 0.0
C1517 C 0.32042 0.45836 0.64297 0.0
C1518 C 0.34147 0.4474 0.64925 0.0
C1519 C 0.35524 0.45395 0.66601 0.0
C1520 C 0.34804 0.47151 0.67648 0.0
C1521 C 0.32696 0.48249 0.6703 0.0
H1522 H 0.37154 0.44545 0.67085 0.0
H1523 H 0.17094 0.54964 0.59951 0.0
H1524 H 0.57103 0.31247 0.58167 0.0
H1525 H 0.52941 0.31741 0.5958 0.0
H1526 H 0.56047 0.32182 0.65615 0.0
H1527 H 0.60244 0.31645 0.64209 0.0
H1528 H 0.51382 0.30256 0.65606 0.0
H1529 H 0.5506 0.36437 0.63145 0.0
H1530 H 0.57249 0.38638 0.60662 0.0
H1531 H 0.51264 0.3789 0.56401 0.0
H1532 H 0.49056 0.35658 0.58848 0.0
H1533 H 0.40754 0.38701 0.65879 0.0
H1534 H 0.45097 0.37598 0.65717 0.0
H1535 H 0.42711 0.31418 0.64609 0.0
H1536 H 0.38351 0.32507 0.64866 0.0
H1537 H 0.47281 0.36347 0.62567 0.0
H1538 H 0.4733 0.28018 0.65706 0.0
H1539 H 0.45309 0.26003 0.68432 0.0
H1540 H 0.44066 0.31457 0.71879 0.0
H1541 H 0.46108 0.33501 0.6919 0.0
C1542 C 0.56903 0.31412 0.598 0.0
C1543 C 0.59005 0.31441 0.61074 0.0
C1544 C 0.54521 0.31692 0.60605 0.0
C1545 C 0.54194 0.32038 0.62695 0.0
C1546 C 0.56264 0.31923 0.63996 0.0
C1547 C 0.58659 0.31622 0.6319 0.0
C1548 C 0.51735 0.32736 0.63459 0.0
C1549 C 0.50478 0.31589 0.64952 0.0
C1550 C 0.50594 0.34509 0.62644 0.0
C1551 C 0.51903 0.35868 0.61174 0.0
C1552 C 0.54219 0.36731 0.61673 0.0
C1553 C 0.55462 0.37985 0.60273 0.0
C1554 C 0.54399 0.384 0.58373 0.0
C1555 C 0.52086 0.37566 0.57872 0.0
C1556 C 0.50837 0.36308 0.59266 0.0
C1557 C 0.41157 0.37099 0.65643 0.0
C1558 C 0.39218 0.35691 0.65371 0.0
C1559 C 0.4364 0.3647 0.65548 0.0
C1560 C 0.44242 0.34425 0.65146 0.0
C1561 C 0.42304 0.32997 0.64956 0.0
C1562 C 0.39811 0.33622 0.65092 0.0
C1563 C 0.46871 0.3385 0.64699 0.0
C1564 C 0.48171 0.35022 0.63249 0.0
C1565 C 0.48062 0.32134 0.65598 0.0
C1566 C 0.46854 0.30915 0.67236 0.0
C1567 C 0.46636 0.28786 0.6705 0.0
C1568 C 0.45484 0.27639 0.68588 0.0
C1569 C 0.44553 0.28602 0.70325 0.0
C1570 C 0.44779 0.30714 0.7053 0.0
C1571 C 0.4593 0.31868 0.68997 0.0
H1572 H 0.4366 0.27711 0.71513 0.0
H1573 H 0.55364 0.39371 0.57291 0.0
H1574 H 0.73428 0.54696 0.65505 0.0
H1575 H 0.73888 0.51031 0.6487 0.0
H1576 H 0.66078 0.50155 0.66201 0.0
H1577 H 0.65619 0.53784 0.66875 0.0
H1578 H 0.68651 0.46995 0.67551 0.0
H1579 H 0.68124 0.50933 0.61333 0.0
H1580 H 0.69442 0.53611 0.58904 0.0
H1581 H 0.76601 0.50727 0.5829 0.0
H1582 H 0.75336 0.48048 0.60742 0.0
H1583 H 0.66798 0.39613 0.58544 0.0
H1584 H 0.67494 0.43038 0.59851 0.0
H1585 H 0.71632 0.40519 0.64909 0.0
H1586 H 0.70875 0.37076 0.63644 0.0
H1587 H 0.71357 0.45319 0.60522 0.0
H1588 H 0.70653 0.43431 0.6911 0.0
H1589 H 0.68719 0.40873 0.71391 0.0
H1590 H 0.6299 0.39802 0.66969 0.0
H1591 H 0.64872 0.4237 0.64676 0.0
C1592 C 0.71825 0.53712 0.65706 0.0
C1593 C 0.69479 0.54531 0.66212 0.0
C1594 C 0.72087 0.51622 0.65334 0.0
C1595 C 0.70006 0.50326 0.65453 0.0
C1596 C 0.67708 0.51123 0.66095 0.0
C1597 C 0.67447 0.53203 0.66471 0.0
C1598 C 0.70133 0.48187 0.64734 0.0
C1599 C 0.69274 0.46623 0.66023 0.0
C1600 C 0.70891 0.47708 0.62725 0.0
C1601 C 0.71648 0.49306 0.61238 0.0
C1602 C 0.69986 0.50879 0.6069 0.0
C1603 C 0.70722 0.52396 0.59309 0.0
C1604 C 0.73106 0.52342 0.58448 0.0
C1605 C 0.74757 0.50768 0.58962 0.0
C1606 C 0.74032 0.49251 0.60348 0.0
C1607 C 0.67865 0.39784 0.5993 0.0
C1608 C 0.6876 0.38068 0.60999 0.0
C1609 C 0.68271 0.41747 0.60672 0.0
C1610 C 0.69591 0.42038 0.62491 0.0
C1611 C 0.70568 0.40331 0.63523 0.0
C1612 C 0.70138 0.38364 0.62794 0.0
C1613 C 0.69854 0.44124 0.63334 0.0
C1614 C 0.70787 0.45679 0.62066 0.0
C1615 C 0.69083 0.44606 0.6534 0.0
C1616 C 0.67923 0.43072 0.66713 0.0
C1617 C 0.68978 0.42651 0.68628 0.0
C1618 C 0.67891 0.41201 0.69923 0.0
C1619 C 0.65739 0.4017 0.69322 0.0
C1620 C 0.64663 0.40595 0.67429 0.0
C1621 C 0.6574 0.42046 0.66131 0.0
H1622 H 0.64902 0.39046 0.70326 0.0
H1623 H 0.73673 0.53518 0.57378 0.0
H1624 H 0.39481 0.35985 0.36693 0.0
H1625 H 0.43638 0.36301 0.35226 0.0
H1626 H 0.42307 0.31045 0.31469 0.0
H1627 H 0.38087 0.30728 0.32923 0.0
H1628 H 0.46977 0.31023 0.33755 0.0
H1629 H 0.42519 0.3525 0.29075 0.0
H1630 H 0.39572 0.37928 0.27969 0.0
H1631 H 0.43817 0.42432 0.31163 0.0
H1632 H 0.46765 0.39779 0.32319 0.0
H1633 H 0.59398 0.33609 0.30281 0.0
H1634 H 0.54995 0.32595 0.30158 0.0
H1635 H 0.52972 0.37995 0.33511 0.0
H1636 H 0.5731 0.39028 0.3361 0.0
H1637 H 0.49839 0.37441 0.30464 0.0
H1638 H 0.53548 0.33236 0.35805 0.0
H1639 H 0.56495 0.30665 0.37145 0.0
H1640 H 0.53659 0.26246 0.32947 0.0
H1641 H 0.50713 0.28802 0.31567 0.0
C1642 C 0.40059 0.34897 0.35549 0.0
C1643 C 0.38457 0.33327 0.34927 0.0
C1644 C 0.42433 0.35088 0.34704 0.0
C1645 C 0.43269 0.33706 0.33231 0.0
C1646 C 0.41684 0.32131 0.32599 0.0
C1647 C 0.39279 0.31957 0.33425 0.0
C1648 C 0.45845 0.33897 0.32438 0.0
C1649 C 0.476 0.324 0.32982 0.0
C1650 C 0.46652 0.35708 0.31462 0.0
C1651 C 0.44863 0.3731 0.30788 0.0
C1652 C 0.42813 0.36808 0.29557 0.0
C1653 C 0.41144 0.38323 0.28918 0.0
C1654 C 0.41511 0.40349 0.29492 0.0
C1655 C 0.43539 0.40863 0.30715 0.0
C1656 C 0.45211 0.39354 0.31361 0.0
C1657 C 0.5801 0.34582 0.30984 0.0
C1658 C 0.58711 0.36398 0.31959 0.0
C1659 C 0.55497 0.33998 0.30916 0.0
C1660 C 0.53654 0.35217 0.31831 0.0
C1661 C 0.54355 0.37036 0.32782 0.0
C1662 C 0.56848 0.3762 0.32845 0.0
C1663 C 0.50987 0.34613 0.31867 0.0
C1664 C 0.49212 0.36035 0.31178 0.0
C1665 C 0.50168 0.32749 0.32738 0.0
C1666 C 0.51937 0.31216 0.33565 0.0
C1667 C 0.53568 0.31721 0.35157 0.0
C1668 C 0.55235 0.30266 0.35925 0.0
C1669 C 0.55271 0.28295 0.35126 0.0
C1670 C 0.53634 0.27774 0.33561 0.0
C1671 C 0.51965 0.29225 0.32785 0.0
H1672 H 0.56562 0.2717 0.35723 0.0
H1673 H 0.40228 0.41523 0.28985 0.0
H1674 H 0.74381 0.41245 0.32662 0.0
H1675 H 0.75194 0.44747 0.33788 0.0
H1676 H 0.68958 0.469 0.30236 0.0
H1677 H 0.68136 0.4343 0.29107 0.0
H1678 H 0.75647 0.48966 0.31818 0.0
H1679 H 0.65188 0.49069 0.3373 0.0
H1680 H 0.61843 0.46613 0.34547 0.0
H1681 H 0.67218 0.42509 0.37174 0.0
H1682 H 0.70586 0.4495 0.36393 0.0
H1683 H 0.70769 0.58915 0.33283 0.0
H1684 H 0.71919 0.55446 0.32328 0.0
H1685 H 0.70945 0.53458 0.38557 0.0
H1686 H 0.69749 0.56919 0.39523 0.0
H1687 H 0.68478 0.51078 0.36125 0.0
H1688 H 0.76769 0.53578 0.36303 0.0
H1689 H 0.8025 0.55924 0.35575 0.0
H1690 H 0.79562 0.54737 0.29176 0.0
H1691 H 0.76051 0.52406 0.29862 0.0
C1692 C 0.7324 0.42476 0.32066 0.0
C1693 C 0.7117 0.42063 0.30822 0.0
C1694 C 0.73709 0.44473 0.32709 0.0
C1695 C 0.72113 0.46067 0.32113 0.0
C1696 C 0.70198 0.45683 0.3072 0.0
C1697 C 0.69729 0.43699 0.30081 0.0
C1698 C 0.72162 0.48054 0.33166 0.0
C1699 C 0.74096 0.49435 0.32771 0.0
C1700 C 0.70166 0.48631 0.3445 0.0
C1701 C 0.68138 0.47186 0.34989 0.0
C1702 C 0.65651 0.47648 0.34493 0.0
C1703 C 0.63753 0.46257 0.34947 0.0
C1704 C 0.64319 0.44403 0.35906 0.0
C1705 C 0.66783 0.43942 0.36424 0.0
C1706 C 0.68687 0.45327 0.35974 0.0
C1707 C 0.70831 0.57747 0.34458 0.0
C1708 C 0.7014 0.58192 0.36476 0.0
C1709 C 0.71508 0.55765 0.3391 0.0
C1710 C 0.71535 0.54191 0.35372 0.0
C1711 C 0.70935 0.54647 0.37403 0.0
C1712 C 0.70248 0.56627 0.37951 0.0
C1713 C 0.71937 0.52043 0.34742 0.0
C1714 C 0.70066 0.5062 0.35207 0.0
C1715 C 0.74019 0.51428 0.33557 0.0
C1716 C 0.76133 0.52826 0.33134 0.0
C1717 C 0.77346 0.53829 0.34739 0.0
C1718 C 0.79328 0.55154 0.34334 0.0
C1719 C 0.80124 0.55482 0.32331 0.0
C1720 C 0.78943 0.54482 0.30728 0.0
C1721 C 0.76959 0.53156 0.31124 0.0
H1722 H 0.81658 0.56508 0.3202 0.0
H1723 H 0.62848 0.43325 0.36249 0.0
H1724 H 0.60253 0.63247 0.32821 0.0
H1725 H 0.55981 0.62732 0.316 0.0
H1726 H 0.53146 0.64148 0.37591 0.0
H1727 H 0.57392 0.64559 0.38827 0.0
H1728 H 0.51058 0.60945 0.3644 0.0
H1729 H 0.52506 0.6742 0.33248 0.0
H1730 H 0.54716 0.69934 0.31098 0.0
H1731 H 0.53687 0.66133 0.25866 0.0
H1732 H 0.51498 0.63583 0.27991 0.0
H1733 H 0.38396 0.63213 0.31419 0.0
H1734 H 0.42724 0.64282 0.31942 0.0
H1735 H 0.45051 0.57978 0.32083 0.0
H1736 H 0.40744 0.569 0.31611 0.0
H1737 H 0.47281 0.63812 0.30147 0.0
H1738 H 0.49017 0.5725 0.35942 0.0
H1739 H 0.46613 0.55082 0.38323 0.0
H1740 H 0.40988 0.59732 0.38789 0.0
H1741 H 0.43375 0.61936 0.36435 0.0
C1742 C 0.5871 0.63468 0.33865 0.0
C1743 C 0.5915 0.63923 0.35921 0.0
C1744 C 0.56269 0.63184 0.33166 0.0
C1745 C 0.5423 0.63405 0.34501 0.0
C1746 C 0.5468 0.63948 0.36533 0.0
C1747 C 0.5711 0.64186 0.37239 0.0
C1748 C 0.51642 0.6293 0.33848 0.0
C1749 C 0.50242 0.6158 0.35063 0.0
C1750 C 0.50548 0.6377 0.32065 0.0
C1751 C 0.51859 0.65302 0.30783 0.0
C1752 C 0.52768 0.67113 0.31642 0.0
C1753 C 0.54014 0.68546 0.30428 0.0
C1754 C 0.54348 0.68191 0.28348 0.0
C1755 C 0.5343 0.66405 0.27478 0.0
C1756 C 0.52184 0.64966 0.28686 0.0
C1757 C 0.39837 0.62057 0.31529 0.0
C1758 C 0.39222 0.59972 0.31509 0.0
C1759 C 0.42309 0.62671 0.31821 0.0
C1760 C 0.442 0.61208 0.32089 0.0
C1761 C 0.43613 0.59131 0.31919 0.0
C1762 C 0.41148 0.58518 0.3165 0.0
C1763 C 0.46735 0.61828 0.32736 0.0
C1764 C 0.48116 0.63188 0.3152 0.0
C1765 C 0.47796 0.61053 0.34556 0.0
C1766 C 0.46363 0.59747 0.35996 0.0
C1767 C 0.47272 0.57811 0.36559 0.0
C1768 C 0.45912 0.56577 0.37903 0.0
C1769 C 0.43645 0.57266 0.38701 0.0
C1770 C 0.42739 0.59196 0.38164 0.0
C1771 C 0.44093 0.60438 0.36823 0.0
H1772 H 0.42594 0.56307 0.3974 0.0
H1773 H 0.55313 0.69302 0.2741 0.0
H1774 H 0.27122 0.37359 0.32098 0.0
H1775 H 0.25939 0.4069 0.307 0.0
H1776 H 0.25829 0.43206 0.36751 0.0
H1777 H 0.27028 0.39887 0.38168 0.0
H1778 H 0.21886 0.44706 0.33979 0.0
H1779 H 0.30933 0.43665 0.34353 0.0
H1780 H 0.34706 0.41642 0.33601 0.0
H1781 H 0.33202 0.42119 0.27193 0.0
H1782 H 0.29397 0.44122 0.27912 0.0
H1783 H 0.24831 0.55162 0.33248 0.0
H1784 H 0.24017 0.51554 0.33855 0.0
H1785 H 0.26674 0.50167 0.27799 0.0
H1786 H 0.27669 0.53774 0.2726 0.0
H1787 H 0.28885 0.47859 0.30146 0.0
H1788 H 0.20259 0.49395 0.29612 0.0
H1789 H 0.16314 0.51233 0.30222 0.0
H1790 H 0.16704 0.49729 0.3659 0.0
H1791 H 0.2067 0.47905 0.36025 0.0
C1792 C 0.268 0.38609 0.33138 0.0
C1793 C 0.27203 0.38365 0.35243 0.0
C1794 C 0.26118 0.40509 0.32335 0.0
C1795 C 0.25811 0.4219 0.33624 0.0
C1796 C 0.26049 0.41922 0.35735 0.0
C1797 C 0.26754 0.40028 0.36539 0.0
C1798 C 0.25573 0.44273 0.32764 0.0
C1799 C 0.23406 0.4541 0.33141 0.0
C1800 C 0.27533 0.45153 0.3162 0.0
C1801 C 0.29871 0.44022 0.31187 0.0
C1802 C 0.31403 0.43331 0.32785 0.0
C1803 C 0.33546 0.42189 0.32365 0.0
C1804 C 0.34186 0.41745 0.30351 0.0
C1805 C 0.32699 0.4246 0.28752 0.0
C1806 C 0.30551 0.436 0.29165 0.0
C1807 C 0.25166 0.54093 0.32025 0.0
C1808 C 0.26303 0.54738 0.30205 0.0
C1809 C 0.24689 0.52024 0.32368 0.0
C1810 C 0.25261 0.5057 0.30868 0.0
C1811 C 0.26226 0.51248 0.28987 0.0
C1812 C 0.26777 0.53308 0.28671 0.0
C1813 C 0.25182 0.48348 0.31362 0.0
C1814 C 0.27314 0.47171 0.30934 0.0
C1815 C 0.23165 0.4743 0.32427 0.0
C1816 C 0.20773 0.48522 0.32776 0.0
C1817 C 0.19514 0.49467 0.31145 0.0
C1818 C 0.17271 0.50505 0.31483 0.0
C1819 C 0.16261 0.50601 0.33444 0.0
C1820 C 0.17489 0.49654 0.35071 0.0
C1821 C 0.19732 0.48614 0.34742 0.0
H1822 H 0.14526 0.51406 0.33702 0.0
H1823 H 0.35831 0.40844 0.3003 0.0
loop_
_geom_bond_atom_site_label_1
_geom_bond_atom_site_label_2
_geom_bond_distance
_geom_bond_site_symmetry_2
_ccdc_geom_bond_type
C0 O1 1.306 . S
C0 O3 1.160 . S
O1 C0 1.306 . S
O1 Cd2 2.228 . S
Cd2 O1 2.228 . S
Cd2 O6 2.273 . S
Cd2 O10 2.277 . S
O3 C0 1.160 . S
O3 Cd4 2.203 . S
Cd4 O3 2.203 . S
Cd4 O6 2.411 . S
Cd4 O7 2.333 . S
Cd4 O8 2.352 . S
Cd4 O12 2.277 . S
Cd4 O13 2.356 . S
C5 O10 1.209 . S
C5 O12 1.226 . S
O6 Cd2 2.273 . S
O6 Cd4 2.411 . S
O6 C9 1.320 . S
O7 Cd4 2.333 . S
O7 C9 1.214 . S
O8 Cd4 2.352 . S
O8 C11 1.258 . S
C9 O6 1.320 . S
C9 O7 1.214 . S
O10 Cd2 2.277 . S
O10 C5 1.209 . S
C11 O8 1.258 . S
C11 O13 1.282 . S
O12 Cd4 2.277 . S
O12 C5 1.226 . S
O13 Cd4 2.356 . S
O13 C11 1.282 . S
C14 O15 1.306 . S
C14 O17 1.160 . S
O15 C14 1.306 . S
O15 Cd16 2.228 . S
Cd16 O15 2.228 . S
Cd16 O20 2.273 . S
Cd16 O24 2.277 . S
O17 C14 1.160 . S
O17 Cd18 2.203 . S
Cd18 O17 2.203 . S
Cd18 O20 2.411 . S
Cd18 O21 2.333 . S
Cd18 O22 2.352 . S
Cd18 O26 2.277 . S
Cd18 O27 2.356 . S
C19 O24 1.209 . S
C19 O26 1.226 . S
O20 Cd16 2.273 . S
O20 Cd18 2.411 . S
O20 C23 1.320 . S
O21 Cd18 2.333 . S
O21 C23 1.214 . S
O22 Cd18 2.352 . S
O22 C25 1.258 . S
C23 O20 1.320 . S
C23 O21 1.214 . S
O24 Cd16 2.277 . S
O24 C19 1.209 . S
C25 O22 1.258 . S
C25 O27 1.282 . S
O26 Cd18 2.277 . S
O26 C19 1.226 . S
O27 Cd18 2.356 . S
O27 C25 1.282 . S
C28 O29 1.306 . S
C28 O31 1.160 . S
O29 C28 1.306 . S
O29 Cd30 2.228 . S
Cd30 O29 2.228 . S
Cd30 O34 2.273 . S
Cd30 O38 2.277 . S
O31 C28 1.160 . S
O31 Cd32 2.203 . S
Cd32 O31 2.203 . S
Cd32 O34 2.411 . S
Cd32 O35 2.333 . S
Cd32 O36 2.352 . S
Cd32 O40 2.277 . S
Cd32 O41 2.356 . S
C33 O38 1.209 . S
C33 O40 1.226 . S
O34 Cd30 2.273 . S
O34 Cd32 2.411 . S
O34 C37 1.320 . S
O35 Cd32 2.333 . S
O35 C37 1.214 . S
O36 Cd32 2.352 . S
O36 C39 1.258 . S
C37 O34 1.320 . S
C37 O35 1.214 . S
O38 Cd30 2.277 . S
O38 C33 1.209 . S
C39 O36 1.258 . S
C39 O41 1.282 . S
O40 Cd32 2.277 . S
O40 C33 1.226 . S
O41 Cd32 2.356 . S
O41 C39 1.282 . S
C42 O43 1.306 . S
C42 O45 1.160 . S
O43 C42 1.306 . S
O43 Cd44 2.228 . S
Cd44 O43 2.228 . S
Cd44 O48 2.273 . S
Cd44 O52 2.277 . S
O45 C42 1.160 . S
O45 Cd46 2.203 . S
Cd46 O45 2.203 . S
Cd46 O48 2.411 . S
Cd46 O49 2.333 . S
Cd46 O50 2.352 . S
Cd46 O54 2.277 . S
Cd46 O55 2.356 . S
C47 O52 1.209 . S
C47 O54 1.226 . S
O48 Cd44 2.273 . S
O48 Cd46 2.411 . S
O48 C51 1.320 . S
O49 Cd46 2.333 . S
O49 C51 1.214 . S
O50 Cd46 2.352 . S
O50 C53 1.258 . S
C51 O48 1.320 . S
C51 O49 1.214 . S
O52 Cd44 2.277 . S
O52 C47 1.209 . S
C53 O50 1.258 . S
C53 O55 1.282 . S
O54 Cd46 2.277 . S
O54 C47 1.226 . S
O55 Cd46 2.356 . S
O55 C53 1.282 . S
C56 O57 1.306 . S
C56 O59 1.160 . S
O57 C56 1.306 . S
O57 Cd58 2.228 . S
Cd58 O57 2.228 . S
Cd58 O62 2.273 . S
Cd58 O66 2.277 . S
O59 C56 1.160 . S
O59 Cd60 2.203 . S
Cd60 O59 2.203 . S
Cd60 O62 2.411 . S
Cd60 O63 2.333 . S
Cd60 O64 2.352 . S
Cd60 O68 2.277 . S
Cd60 O69 2.356 . S
C61 O66 1.209 . S
C61 O68 1.226 . S
O62 Cd58 2.273 . S
O62 Cd60 2.411 . S
O62 C65 1.320 . S
O63 Cd60 2.333 . S
O63 C65 1.214 . S
O64 Cd60 2.352 . S
O64 C67 1.258 . S
C65 O62 1.320 . S
C65 O63 1.214 . S
O66 Cd58 2.277 . S
O66 C61 1.209 . S
C67 O64 1.258 . S
C67 O69 1.282 . S
O68 Cd60 2.277 . S
O68 C61 1.226 . S
O69 Cd60 2.356 . S
O69 C67 1.282 . S
C70 O71 1.306 . S
C70 O73 1.160 . S
O71 C70 1.306 . S
O71 Cd72 2.228 . S
Cd72 O71 2.228 . S
Cd72 O76 2.273 . S
Cd72 O80 2.277 . S
O73 C70 1.160 . S
O73 Cd74 2.203 . S
Cd74 O73 2.203 . S
Cd74 O76 2.411 . S
Cd74 O77 2.333 . S
Cd74 O78 2.352 . S
Cd74 O82 2.277 . S
Cd74 O83 2.356 . S
C75 O80 1.209 . S
C75 O82 1.226 . S
O76 Cd72 2.273 . S
O76 Cd74 2.411 . S
O76 C79 1.320 . S
O77 Cd74 2.333 . S
O77 C79 1.214 . S
O78 Cd74 2.352 . S
O78 C81 1.258 . S
C79 O76 1.320 . S
C79 O77 1.214 . S
O80 Cd72 2.277 . S
O80 C75 1.209 . S
C81 O78 1.258 . S
C81 O83 1.282 . S
O82 Cd74 2.277 . S
O82 C75 1.226 . S
O83 Cd74 2.356 . S
O83 C81 1.282 . S
C84 O85 1.306 . S
C84 O87 1.160 . S
O85 C84 1.306 . S
O85 Cd86 2.228 . S
Cd86 O85 2.228 . S
Cd86 O90 2.273 . S
Cd86 O94 2.277 . S
O87 C84 1.160 . S
O87 Cd88 2.203 . S
Cd88 O87 2.203 . S
Cd88 O90 2.411 . S
Cd88 O91 2.333 . S
Cd88 O92 2.352 . S
Cd88 O96 2.277 . S
Cd88 O97 2.356 . S
C89 O94 1.209 . S
C89 O96 1.226 . S
O90 Cd86 2.273 . S
O90 Cd88 2.411 . S
O90 C93 1.320 . S
O91 Cd88 2.333 . S
O91 C93 1.214 . S
O92 Cd88 2.352 . S
O92 C95 1.258 . S
C93 O90 1.320 . S
C93 O91 1.214 . S
O94 Cd86 2.277 . S
O94 C89 1.209 . S
C95 O92 1.258 . S
C95 O97 1.282 . S
O96 Cd88 2.277 . S
O96 C89 1.226 . S
O97 Cd88 2.356 . S
O97 C95 1.282 . S
C98 O99 1.306 . S
C98 O101 1.160 . S
O99 C98 1.306 . S
O99 Cd100 2.228 . S
Cd100 O99 2.228 . S
Cd100 O104 2.273 . S
Cd100 O108 2.277 . S
O101 C98 1.160 . S
O101 Cd102 2.203 . S
Cd102 O101 2.203 . S
Cd102 O104 2.411 . S
Cd102 O105 2.333 . S
Cd102 O106 2.352 . S
Cd102 O110 2.277 . S
Cd102 O111 2.356 . S
C103 O108 1.209 . S
C103 O110 1.226 . S
O104 Cd100 2.273 . S
O104 Cd102 2.411 . S
O104 C107 1.320 . S
O105 Cd102 2.333 . S
O105 C107 1.214 . S
O106 Cd102 2.352 . S
O106 C109 1.258 . S
C107 O104 1.320 . S
C107 O105 1.214 . S
O108 Cd100 2.277 . S
O108 C103 1.209 . S
C109 O106 1.258 . S
C109 O111 1.282 . S
O110 Cd102 2.277 . S
O110 C103 1.226 . S
O111 Cd102 2.356 . S
O111 C109 1.282 . S
C112 O113 1.306 . S
C112 O115 1.160 . S
O113 C112 1.306 . S
O113 Cd114 2.228 . S
Cd114 O113 2.228 . S
Cd114 O118 2.273 . S
Cd114 O122 2.277 . S
O115 C112 1.160 . S
O115 Cd116 2.203 . S
Cd116 O115 2.203 . S
Cd116 O118 2.411 . S
Cd116 O119 2.333 . S
Cd116 O120 2.352 . S
Cd116 O124 2.277 . S
Cd116 O125 2.356 . S
C117 O122 1.209 . S
C117 O124 1.226 . S
O118 Cd114 2.273 . S
O118 Cd116 2.411 . S
O118 C121 1.320 . S
O119 Cd116 2.333 . S
O119 C121 1.214 . S
O120 Cd116 2.352 . S
O120 C123 1.258 . S
C121 O118 1.320 . S
C121 O119 1.214 . S
O122 Cd114 2.277 . S
O122 C117 1.209 . S
C123 O120 1.258 . S
C123 O125 1.282 . S
O124 Cd116 2.277 . S
O124 C117 1.226 . S
O125 Cd116 2.356 . S
O125 C123 1.282 . S
C126 O127 1.306 . S
C126 O129 1.160 . S
O127 C126 1.306 . S
O127 Cd128 2.228 . S
Cd128 O127 2.228 . S
Cd128 O132 2.273 . S
Cd128 O136 2.277 . S
O129 C126 1.160 . S
O129 Cd130 2.203 . S
Cd130 O129 2.203 . S
Cd130 O132 2.411 . S
Cd130 O133 2.333 . S
Cd130 O134 2.352 . S
Cd130 O138 2.277 . S
Cd130 O139 2.356 . S
C131 O136 1.209 . S
C131 O138 1.226 . S
O132 Cd128 2.273 . S
O132 Cd130 2.411 . S
O132 C135 1.320 . S
O133 Cd130 2.333 . S
O133 C135 1.214 . S
O134 Cd130 2.352 . S
O134 C137 1.258 . S
C135 O132 1.320 . S
C135 O133 1.214 . S
O136 Cd128 2.277 . S
O136 C131 1.209 . S
C137 O134 1.258 . S
C137 O139 1.282 . S
O138 Cd130 2.277 . S
O138 C131 1.226 . S
O139 Cd130 2.356 . S
O139 C137 1.282 . S
C140 O141 1.306 . S
C140 O143 1.160 . S
O141 C140 1.306 . S
O141 Cd142 2.228 . S
Cd142 O141 2.228 . S
Cd142 O146 2.273 . S
Cd142 O150 2.277 . S
O143 C140 1.160 . S
O143 Cd144 2.203 . S
Cd144 O143 2.203 . S
Cd144 O146 2.411 . S
Cd144 O147 2.333 . S
Cd144 O148 2.352 . S
Cd144 O152 2.277 . S
Cd144 O153 2.356 . S
C145 O150 1.209 . S
C145 O152 1.226 . S
O146 Cd142 2.273 . S
O146 Cd144 2.411 . S
O146 C149 1.320 . S
O147 Cd144 2.333 . S
O147 C149 1.214 . S
O148 Cd144 2.352 . S
O148 C151 1.258 . S
C149 O146 1.320 . S
C149 O147 1.214 . S
O150 Cd142 2.277 . S
O150 C145 1.209 . S
C151 O148 1.258 . S
C151 O153 1.282 . S
O152 Cd144 2.277 . S
O152 C145 1.226 . S
O153 Cd144 2.356 . S
O153 C151 1.282 . S
C154 O155 1.306 . S
C154 O157 1.160 . S
O155 C154 1.306 . S
O155 Cd156 2.228 . S
Cd156 O155 2.228 . S
Cd156 O160 2.273 . S
Cd156 O164 2.277 . S
O157 C154 1.160 . S
O157 Cd158 2.203 . S
Cd158 O157 2.203 . S
Cd158 O160 2.411 . S
Cd158 O161 2.333 . S
Cd158 O162 2.352 . S
Cd158 O166 2.277 . S
Cd158 O167 2.356 . S
C159 O164 1.209 . S
C159 O166 1.226 . S
O160 Cd156 2.273 . S
O160 Cd158 2.411 . S
O160 C163 1.320 . S
O161 Cd158 2.333 . S
O161 C163 1.214 . S
O162 Cd158 2.352 . S
O162 C165 1.258 . S
C163 O160 1.320 . S
C163 O161 1.214 . S
O164 Cd156 2.277 . S
O164 C159 1.209 . S
C165 O162 1.258 . S
C165 O167 1.282 . S
O166 Cd158 2.277 . S
O166 C159 1.226 . S
O167 Cd158 2.356 . S
O167 C165 1.282 . S
C168 O169 1.306 . S
C168 O171 1.160 . S
O169 C168 1.306 . S
O169 Cd170 2.228 . S
Cd170 O169 2.228 . S
Cd170 O174 2.273 . S
Cd170 O178 2.277 . S
O171 C168 1.160 . S
O171 Cd172 2.203 . S
Cd172 O171 2.203 . S
Cd172 O174 2.411 . S
Cd172 O175 2.333 . S
Cd172 O176 2.352 . S
Cd172 O180 2.277 . S
Cd172 O181 2.356 . S
C173 O178 1.209 . S
C173 O180 1.226 . S
O174 Cd170 2.273 . S
O174 Cd172 2.411 . S
O174 C177 1.320 . S
O175 Cd172 2.333 . S
O175 C177 1.214 . S
O176 Cd172 2.352 . S
O176 C179 1.258 . S
C177 O174 1.320 . S
C177 O175 1.214 . S
O178 Cd170 2.277 . S
O178 C173 1.209 . S
C179 O176 1.258 . S
C179 O181 1.282 . S
O180 Cd172 2.277 . S
O180 C173 1.226 . S
O181 Cd172 2.356 . S
O181 C179 1.282 . S
C182 O183 1.306 . S
C182 O185 1.160 . S
O183 C182 1.306 . S
O183 Cd184 2.228 . S
Cd184 O183 2.228 . S
Cd184 O188 2.273 . S
Cd184 O192 2.277 . S
O185 C182 1.160 . S
O185 Cd186 2.203 . S
Cd186 O185 2.203 . S
Cd186 O188 2.411 . S
Cd186 O189 2.333 . S
Cd186 O190 2.352 . S
Cd186 O194 2.277 . S
Cd186 O195 2.356 . S
C187 O192 1.209 . S
C187 O194 1.226 . S
O188 Cd184 2.273 . S
O188 Cd186 2.411 . S
O188 C191 1.320 . S
O189 Cd186 2.333 . S
O189 C191 1.214 . S
O190 Cd186 2.352 . S
O190 C193 1.258 . S
C191 O188 1.320 . S
C191 O189 1.214 . S
O192 Cd184 2.277 . S
O192 C187 1.209 . S
C193 O190 1.258 . S
C193 O195 1.282 . S
O194 Cd186 2.277 . S
O194 C187 1.226 . S
O195 Cd186 2.356 . S
O195 C193 1.282 . S
C196 O197 1.306 . S
C196 O199 1.160 . S
O197 C196 1.306 . S
O197 Cd198 2.228 . S
Cd198 O197 2.228 . S
Cd198 O202 2.273 . S
Cd198 O206 2.277 . S
O199 C196 1.160 . S
O199 Cd200 2.203 . S
Cd200 O199 2.203 . S
Cd200 O202 2.411 . S
Cd200 O203 2.333 . S
Cd200 O204 2.352 . S
Cd200 O208 2.277 . S
Cd200 O209 2.356 . S
C201 O206 1.209 . S
C201 O208 1.226 . S
O202 Cd198 2.273 . S
O202 Cd200 2.411 . S
O202 C205 1.320 . S
O203 Cd200 2.333 . S
O203 C205 1.214 . S
O204 Cd200 2.352 . S
O204 C207 1.258 . S
C205 O202 1.320 . S
C205 O203 1.214 . S
O206 Cd198 2.277 . S
O206 C201 1.209 . S
C207 O204 1.258 . S
C207 O209 1.282 . S
O208 Cd200 2.277 . S
O208 C201 1.226 . S
O209 Cd200 2.356 . S
O209 C207 1.282 . S
C210 O211 1.306 . S
C210 O213 1.160 . S
O211 C210 1.306 . S
O211 Cd212 2.228 . S
Cd212 O211 2.228 . S
Cd212 O216 2.273 . S
Cd212 O220 2.277 . S
O213 C210 1.160 . S
O213 Cd214 2.203 . S
Cd214 O213 2.203 . S
Cd214 O216 2.411 . S
Cd214 O217 2.333 . S
Cd214 O218 2.352 . S
Cd214 O222 2.277 . S
Cd214 O223 2.356 . S
C215 O220 1.209 . S
C215 O222 1.226 . S
O216 Cd212 2.273 . S
O216 Cd214 2.411 . S
O216 C219 1.320 . S
O217 Cd214 2.333 . S
O217 C219 1.214 . S
O218 Cd214 2.352 . S
O218 C221 1.258 . S
C219 O216 1.320 . S
C219 O217 1.214 . S
O220 Cd212 2.277 . S
O220 C215 1.209 . S
C221 O218 1.258 . S
C221 O223 1.282 . S
O222 Cd214 2.277 . S
O222 C215 1.226 . S
O223 Cd214 2.356 . S
O223 C221 1.282 . S
H224 C242 0.951 . S
H225 C244 0.951 . S
H226 C246 0.950 . S
H227 C247 0.950 . S
H228 C249 0.950 . S
H229 C252 0.950 . S
H230 C253 0.950 . S
H231 C255 0.950 . S
H232 C256 0.950 . S
H233 C257 0.951 . S
H234 C259 0.951 . S
H235 C261 0.950 . S
H236 C262 0.950 . S
H237 C264 0.950 . S
H238 C267 0.950 . S
H239 C268 0.950 . S
H240 C270 0.950 . S
H241 C271 0.950 . S
C242 H224 0.951 . S
C242 C243 1.366 . S
C242 C244 1.388 . S
C243 C242 1.366 . S
C243 C247 1.385 . S
C244 H225 0.951 . S
C244 C242 1.388 . S
C244 C245 1.366 . S
C245 C244 1.366 . S
C245 C246 1.414 . S
C245 C248 1.499 . S
C246 H226 0.950 . S
C246 C245 1.414 . S
C246 C247 1.374 . S
C247 H227 0.950 . S
C247 C243 1.385 . S
C247 C246 1.374 . S
C248 C245 1.499 . S
C248 C249 1.373 . S
C248 C250 1.389 . S
C249 H228 0.950 . S
C249 C248 1.373 . S
C249 C265 1.377 . S
C250 C248 1.389 . S
C250 C251 1.524 . S
C250 C264 1.377 . S
C251 C250 1.524 . S
C251 C252 1.397 . S
C251 C256 1.363 . S
C252 H229 0.950 . S
C252 C251 1.397 . S
C252 C253 1.334 . S
C253 H230 0.950 . S
C253 C252 1.334 . S
C253 C254 1.287 . S
C254 C253 1.287 . S
C254 C255 1.524 . S
C254 H273 0.913 . S
C255 H231 0.950 . S
C255 C254 1.524 . S
C255 C256 1.415 . S
C256 H232 0.950 . S
C256 C251 1.363 . S
C256 C255 1.415 . S
C257 H233 0.951 . S
C257 C258 1.366 . S
C257 C259 1.388 . S
C258 C257 1.366 . S
C258 C262 1.385 . S
C259 H234 0.951 . S
C259 C257 1.388 . S
C259 C260 1.366 . S
C260 C259 1.366 . S
C260 C261 1.414 . S
C260 C263 1.499 . S
C261 H235 0.950 . S
C261 C260 1.414 . S
C261 C262 1.374 . S
C262 H236 0.950 . S
C262 C258 1.385 . S
C262 C261 1.374 . S
C263 C260 1.499 . S
C263 C264 1.373 . S
C263 C265 1.389 . S
C264 H237 0.950 . S
C264 C250 1.377 . S
C264 C263 1.373 . S
C265 C249 1.377 . S
C265 C263 1.389 . S
C265 C266 1.524 . S
C266 C265 1.524 . S
C266 C267 1.397 . S
C266 C271 1.363 . S
C267 H238 0.950 . S
C267 C266 1.397 . S
C267 C268 1.334 . S
C268 H239 0.950 . S
C268 C267 1.334 . S
C268 C269 1.287 . S
C269 C268 1.287 . S
C269 C270 1.524 . S
C269 H272 0.999 . S
C270 H240 0.950 . S
C270 C269 1.524 . S
C270 C271 1.415 . S
C271 H241 0.950 . S
C271 C266 1.363 . S
C271 C270 1.415 . S
H272 C269 0.999 . S
H273 C254 0.913 . S
H274 C292 0.951 . S
H275 C294 0.951 . S
H276 C296 0.950 . S
H277 C297 0.950 . S
H278 C299 0.950 . S
H279 C302 0.950 . S
H280 C303 0.950 . S
H281 C305 0.950 . S
H282 C306 0.950 . S
H283 C307 0.951 . S
H284 C309 0.951 . S
H285 C311 0.950 . S
H286 C312 0.950 . S
H287 C314 0.950 . S
H288 C317 0.950 . S
H289 C318 0.950 . S
H290 C320 0.950 . S
H291 C321 0.950 . S
C292 H274 0.951 . S
C292 C293 1.366 . S
C292 C294 1.388 . S
C293 C292 1.366 . S
C293 C297 1.385 . S
C294 H275 0.951 . S
C294 C292 1.388 . S
C294 C295 1.366 . S
C295 C294 1.366 . S
C295 C296 1.414 . S
C295 C298 1.499 . S
C296 H276 0.950 . S
C296 C295 1.414 . S
C296 C297 1.374 . S
C297 H277 0.950 . S
C297 C293 1.385 . S
C297 C296 1.374 . S
C298 C295 1.499 . S
C298 C299 1.373 . S
C298 C300 1.389 . S
C299 H278 0.950 . S
C299 C298 1.373 . S
C299 C315 1.377 . S
C300 C298 1.389 . S
C300 C301 1.524 . S
C300 C314 1.377 . S
C301 C300 1.524 . S
C301 C302 1.397 . S
C301 C306 1.363 . S
C302 H279 0.950 . S
C302 C301 1.397 . S
C302 C303 1.334 . S
C303 H280 0.950 . S
C303 C302 1.334 . S
C303 C304 1.287 . S
C304 C303 1.287 . S
C304 C305 1.524 . S
C304 H323 0.913 . S
C305 H281 0.950 . S
C305 C304 1.524 . S
C305 C306 1.415 . S
C306 H282 0.950 . S
C306 C301 1.363 . S
C306 C305 1.415 . S
C307 H283 0.951 . S
C307 C308 1.366 . S
C307 C309 1.388 . S
C308 C307 1.366 . S
C308 C312 1.385 . S
C309 H284 0.951 . S
C309 C307 1.388 . S
C309 C310 1.366 . S
C310 C309 1.366 . S
C310 C311 1.414 . S
C310 C313 1.499 . S
C311 H285 0.950 . S
C311 C310 1.414 . S
C311 C312 1.374 . S
C312 H286 0.950 . S
C312 C308 1.385 . S
C312 C311 1.374 . S
C313 C310 1.499 . S
C313 C314 1.373 . S
C313 C315 1.389 . S
C314 H287 0.950 . S
C314 C300 1.377 . S
C314 C313 1.373 . S
C315 C299 1.377 . S
C315 C313 1.389 . S
C315 C316 1.524 . S
C316 C315 1.524 . S
C316 C317 1.397 . S
C316 C321 1.363 . S
C317 H288 0.950 . S
C317 C316 1.397 . S
C317 C318 1.334 . S
C318 H289 0.950 . S
C318 C317 1.334 . S
C318 C319 1.287 . S
C319 C318 1.287 . S
C319 C320 1.524 . S
C319 H322 0.999 . S
C320 H290 0.950 . S
C320 C319 1.524 . S
C320 C321 1.415 . S
C321 H291 0.950 . S
C321 C316 1.363 . S
C321 C320 1.415 . S
H322 C319 0.999 . S
H323 C304 0.913 . S
H324 C342 0.951 . S
H325 C344 0.951 . S
H326 C346 0.950 . S
H327 C347 0.950 . S
H328 C349 0.950 . S
H329 C352 0.950 . S
H330 C353 0.950 . S
H331 C355 0.950 . S
H332 C356 0.950 . S
H333 C357 0.951 . S
H334 C359 0.951 . S
H335 C361 0.950 . S
H336 C362 0.950 . S
H337 C364 0.950 . S
H338 C367 0.950 . S
H339 C368 0.950 . S
H340 C370 0.950 . S
H341 C371 0.950 . S
C342 H324 0.951 . S
C342 C343 1.366 . S
C342 C344 1.388 . S
C343 C342 1.366 . S
C343 C347 1.385 . S
C344 H325 0.951 . S
C344 C342 1.388 . S
C344 C345 1.366 . S
C345 C344 1.366 . S
C345 C346 1.414 . S
C345 C348 1.499 . S
C346 H326 0.950 . S
C346 C345 1.414 . S
C346 C347 1.374 . S
C347 H327 0.950 . S
C347 C343 1.385 . S
C347 C346 1.374 . S
C348 C345 1.499 . S
C348 C349 1.373 . S
C348 C350 1.389 . S
C349 H328 0.950 . S
C349 C348 1.373 . S
C349 C365 1.377 . S
C350 C348 1.389 . S
C350 C351 1.524 . S
C350 C364 1.377 . S
C351 C350 1.524 . S
C351 C352 1.397 . S
C351 C356 1.363 . S
C352 H329 0.950 . S
C352 C351 1.397 . S
C352 C353 1.334 . S
C353 H330 0.950 . S
C353 C352 1.334 . S
C353 C354 1.287 . S
C354 C353 1.287 . S
C354 C355 1.524 . S
C354 H373 0.913 . S
C355 H331 0.950 . S
C355 C354 1.524 . S
C355 C356 1.415 . S
C356 H332 0.950 . S
C356 C351 1.363 . S
C356 C355 1.415 . S
C357 H333 0.951 . S
C357 C358 1.366 . S
C357 C359 1.388 . S
C358 C357 1.366 . S
C358 C362 1.385 . S
C359 H334 0.951 . S
C359 C357 1.388 . S
C359 C360 1.366 . S
C360 C359 1.366 . S
C360 C361 1.414 . S
C360 C363 1.499 . S
C361 H335 0.950 . S
C361 C360 1.414 . S
C361 C362 1.374 . S
C362 H336 0.950 . S
C362 C358 1.385 . S
C362 C361 1.374 . S
C363 C360 1.499 . S
C363 C364 1.373 . S
C363 C365 1.389 . S
C364 H337 0.950 . S
C364 C350 1.377 . S
C364 C363 1.373 . S
C365 C349 1.377 . S
C365 C363 1.389 . S
C365 C366 1.524 . S
C366 C365 1.524 . S
C366 C367 1.397 . S
C366 C371 1.363 . S
C367 H338 0.950 . S
C367 C366 1.397 . S
C367 C368 1.334 . S
C368 H339 0.950 . S
C368 C367 1.334 . S
C368 C369 1.287 . S
C369 C368 1.287 . S
C369 C370 1.524 . S
C369 H372 0.999 . S
C370 H340 0.950 . S
C370 C369 1.524 . S
C370 C371 1.415 . S
C371 H341 0.950 . S
C371 C366 1.363 . S
C371 C370 1.415 . S
H372 C369 0.999 . S
H373 C354 0.913 . S
H374 C392 0.951 . S
H375 C394 0.951 . S
H376 C396 0.950 . S
H377 C397 0.950 . S
H378 C399 0.950 . S
H379 C402 0.950 . S
H380 C403 0.950 . S
H381 C405 0.950 . S
H382 C406 0.950 . S
H383 C407 0.951 . S
H384 C409 0.951 . S
H385 C411 0.950 . S
H386 C412 0.950 . S
H387 C414 0.950 . S
H388 C417 0.950 . S
H389 C418 0.950 . S
H390 C420 0.950 . S
H391 C421 0.950 . S
C392 H374 0.951 . S
C392 C393 1.366 . S
C392 C394 1.388 . S
C393 C392 1.366 . S
C393 C397 1.385 . S
C394 H375 0.951 . S
C394 C392 1.388 . S
C394 C395 1.366 . S
C395 C394 1.366 . S
C395 C396 1.414 . S
C395 C398 1.499 . S
C396 H376 0.950 . S
C396 C395 1.414 . S
C396 C397 1.374 . S
C397 H377 0.950 . S
C397 C393 1.385 . S
C397 C396 1.374 . S
C398 C395 1.499 . S
C398 C399 1.373 . S
C398 C400 1.389 . S
C399 H378 0.950 . S
C399 C398 1.373 . S
C399 C415 1.377 . S
C400 C398 1.389 . S
C400 C401 1.524 . S
C400 C414 1.377 . S
C401 C400 1.524 . S
C401 C402 1.397 . S
C401 C406 1.363 . S
C402 H379 0.950 . S
C402 C401 1.397 . S
C402 C403 1.334 . S
C403 H380 0.950 . S
C403 C402 1.334 . S
C403 C404 1.287 . S
C404 C403 1.287 . S
C404 C405 1.524 . S
C404 H423 0.913 . S
C405 H381 0.950 . S
C405 C404 1.524 . S
C405 C406 1.415 . S
C406 H382 0.950 . S
C406 C401 1.363 . S
C406 C405 1.415 . S
C407 H383 0.951 . S
C407 C408 1.366 . S
C407 C409 1.388 . S
C408 C407 1.366 . S
C408 C412 1.385 . S
C409 H384 0.951 . S
C409 C407 1.388 . S
C409 C410 1.366 . S
C410 C409 1.366 . S
C410 C411 1.414 . S
C410 C413 1.499 . S
C411 H385 0.950 . S
C411 C410 1.414 . S
C411 C412 1.374 . S
C412 H386 0.950 . S
C412 C408 1.385 . S
C412 C411 1.374 . S
C413 C410 1.499 . S
C413 C414 1.373 . S
C413 C415 1.389 . S
C414 H387 0.950 . S
C414 C400 1.377 . S
C414 C413 1.373 . S
C415 C399 1.377 . S
C415 C413 1.389 . S
C415 C416 1.524 . S
C416 C415 1.524 . S
C416 C417 1.397 . S
C416 C421 1.363 . S
C417 H388 0.950 . S
C417 C416 1.397 . S
C417 C418 1.334 . S
C418 H389 0.950 . S
C418 C417 1.334 . S
C418 C419 1.287 . S
C419 C418 1.287 . S
C419 C420 1.524 . S
C419 H422 0.999 . S
C420 H390 0.950 . S
C420 C419 1.524 . S
C420 C421 1.415 . S
C421 H391 0.950 . S
C421 C416 1.363 . S
C421 C420 1.415 . S
H422 C419 0.999 . S
H423 C404 0.913 . S
H424 C442 0.951 . S
H425 C444 0.951 . S
H426 C446 0.950 . S
H427 C447 0.950 . S
H428 C449 0.950 . S
H429 C452 0.950 . S
H430 C453 0.950 . S
H431 C455 0.950 . S
H432 C456 0.950 . S
H433 C457 0.951 . S
H434 C459 0.951 . S
H435 C461 0.950 . S
H436 C462 0.950 . S
H437 C464 0.950 . S
H438 C467 0.950 . S
H439 C468 0.950 . S
H440 C470 0.950 . S
H441 C471 0.950 . S
C442 H424 0.951 . S
C442 C443 1.366 . S
C442 C444 1.388 . S
C443 C442 1.366 . S
C443 C447 1.385 . S
C444 H425 0.951 . S
C444 C442 1.388 . S
C444 C445 1.366 . S
C445 C444 1.366 . S
C445 C446 1.414 . S
C445 C448 1.499 . S
C446 H426 0.950 . S
C446 C445 1.414 . S
C446 C447 1.374 . S
C447 H427 0.950 . S
C447 C443 1.385 . S
C447 C446 1.374 . S
C448 C445 1.499 . S
C448 C449 1.373 . S
C448 C450 1.389 . S
C449 H428 0.950 . S
C449 C448 1.373 . S
C449 C465 1.377 . S
C450 C448 1.389 . S
C450 C451 1.524 . S
C450 C464 1.377 . S
C451 C450 1.524 . S
C451 C452 1.397 . S
C451 C456 1.363 . S
C452 H429 0.950 . S
C452 C451 1.397 . S
C452 C453 1.334 . S
C453 H430 0.950 . S
C453 C452 1.334 . S
C453 C454 1.287 . S
C454 C453 1.287 . S
C454 C455 1.524 . S
C454 H473 0.913 . S
C455 H431 0.950 . S
C455 C454 1.524 . S
C455 C456 1.415 . S
C456 H432 0.950 . S
C456 C451 1.363 . S
C456 C455 1.415 . S
C457 H433 0.951 . S
C457 C458 1.366 . S
C457 C459 1.388 . S
C458 C457 1.366 . S
C458 C462 1.385 . S
C459 H434 0.951 . S
C459 C457 1.388 . S
C459 C460 1.366 . S
C460 C459 1.366 . S
C460 C461 1.414 . S
C460 C463 1.499 . S
C461 H435 0.950 . S
C461 C460 1.414 . S
C461 C462 1.374 . S
C462 H436 0.950 . S
C462 C458 1.385 . S
C462 C461 1.374 . S
C463 C460 1.499 . S
C463 C464 1.373 . S
C463 C465 1.389 . S
C464 H437 0.950 . S
C464 C450 1.377 . S
C464 C463 1.373 . S
C465 C449 1.377 . S
C465 C463 1.389 . S
C465 C466 1.524 . S
C466 C465 1.524 . S
C466 C467 1.397 . S
C466 C471 1.363 . S
C467 H438 0.950 . S
C467 C466 1.397 . S
C467 C468 1.334 . S
C468 H439 0.950 . S
C468 C467 1.334 . S
C468 C469 1.287 . S
C469 C468 1.287 . S
C469 C470 1.524 . S
C469 H472 0.999 . S
C470 H440 0.950 . S
C470 C469 1.524 . S
C470 C471 1.415 . S
C471 H441 0.950 . S
C471 C466 1.363 . S
C471 C470 1.415 . S
H472 C469 0.999 . S
H473 C454 0.913 . S
H474 C492 0.951 . S
H475 C494 0.951 . S
H476 C496 0.950 . S
H477 C497 0.950 . S
H478 C499 0.950 . S
H479 C502 0.950 . S
H480 C503 0.950 . S
H481 C505 0.950 . S
H482 C506 0.950 . S
H483 C507 0.951 . S
H484 C509 0.951 . S
H485 C511 0.950 . S
H486 C512 0.950 . S
H487 C514 0.950 . S
H488 C517 0.950 . S
H489 C518 0.950 . S
H490 C520 0.950 . S
H491 C521 0.950 . S
C492 H474 0.951 . S
C492 C493 1.366 . S
C492 C494 1.388 . S
C493 C492 1.366 . S
C493 C497 1.385 . S
C494 H475 0.951 . S
C494 C492 1.388 . S
C494 C495 1.366 . S
C495 C494 1.366 . S
C495 C496 1.414 . S
C495 C498 1.499 . S
C496 H476 0.950 . S
C496 C495 1.414 . S
C496 C497 1.374 . S
C497 H477 0.950 . S
C497 C493 1.385 . S
C497 C496 1.374 . S
C498 C495 1.499 . S
C498 C499 1.373 . S
C498 C500 1.389 . S
C499 H478 0.950 . S
C499 C498 1.373 . S
C499 C515 1.377 . S
C500 C498 1.389 . S
C500 C501 1.524 . S
C500 C514 1.377 . S
C501 C500 1.524 . S
C501 C502 1.397 . S
C501 C506 1.363 . S
C502 H479 0.950 . S
C502 C501 1.397 . S
C502 C503 1.334 . S
C503 H480 0.950 . S
C503 C502 1.334 . S
C503 C504 1.287 . S
C504 C503 1.287 . S
C504 C505 1.524 . S
C504 H523 0.913 . S
C505 H481 0.950 . S
C505 C504 1.524 . S
C505 C506 1.415 . S
C506 H482 0.950 . S
C506 C501 1.363 . S
C506 C505 1.415 . S
C507 H483 0.951 . S
C507 C508 1.366 . S
C507 C509 1.388 . S
C508 C507 1.366 . S
C508 C512 1.385 . S
C509 H484 0.951 . S
C509 C507 1.388 . S
C509 C510 1.366 . S
C510 C509 1.366 . S
C510 C511 1.414 . S
C510 C513 1.499 . S
C511 H485 0.950 . S
C511 C510 1.414 . S
C511 C512 1.374 . S
C512 H486 0.950 . S
C512 C508 1.385 . S
C512 C511 1.374 . S
C513 C510 1.499 . S
C513 C514 1.373 . S
C513 C515 1.389 . S
C514 H487 0.950 . S
C514 C500 1.377 . S
C514 C513 1.373 . S
C515 C499 1.377 . S
C515 C513 1.389 . S
C515 C516 1.524 . S
C516 C515 1.524 . S
C516 C517 1.397 . S
C516 C521 1.363 . S
C517 H488 0.950 . S
C517 C516 1.397 . S
C517 C518 1.334 . S
C518 H489 0.950 . S
C518 C517 1.334 . S
C518 C519 1.287 . S
C519 C518 1.287 . S
C519 C520 1.524 . S
C519 H522 0.999 . S
C520 H490 0.950 . S
C520 C519 1.524 . S
C520 C521 1.415 . S
C521 H491 0.950 . S
C521 C516 1.363 . S
C521 C520 1.415 . S
H522 C519 0.999 . S
H523 C504 0.913 . S
H524 C542 0.951 . S
H525 C544 0.951 . S
H526 C546 0.950 . S
H527 C547 0.950 . S
H528 C549 0.950 . S
H529 C552 0.950 . S
H530 C553 0.950 . S
H531 C555 0.950 . S
H532 C556 0.950 . S
H533 C557 0.951 . S
H534 C559 0.951 . S
H535 C561 0.950 . S
H536 C562 0.950 . S
H537 C564 0.950 . S
H538 C567 0.950 . S
H539 C568 0.950 . S
H540 C570 0.950 . S
H541 C571 0.950 . S
C542 H524 0.951 . S
C542 C543 1.366 . S
C542 C544 1.388 . S
C543 C542 1.366 . S
C543 C547 1.385 . S
C544 H525 0.951 . S
C544 C542 1.388 . S
C544 C545 1.366 . S
C545 C544 1.366 . S
C545 C546 1.414 . S
C545 C548 1.499 . S
C546 H526 0.950 . S
C546 C545 1.414 . S
C546 C547 1.374 . S
C547 H527 0.950 . S
C547 C543 1.385 . S
C547 C546 1.374 . S
C548 C545 1.499 . S
C548 C549 1.373 . S
C548 C550 1.389 . S
C549 H528 0.950 . S
C549 C548 1.373 . S
C549 C565 1.377 . S
C550 C548 1.389 . S
C550 C551 1.524 . S
C550 C564 1.377 . S
C551 C550 1.524 . S
C551 C552 1.397 . S
C551 C556 1.363 . S
C552 H529 0.950 . S
C552 C551 1.397 . S
C552 C553 1.334 . S
C553 H530 0.950 . S
C553 C552 1.334 . S
C553 C554 1.287 . S
C554 C553 1.287 . S
C554 C555 1.524 . S
C554 H573 0.913 . S
C555 H531 0.950 . S
C555 C554 1.524 . S
C555 C556 1.415 . S
C556 H532 0.950 . S
C556 C551 1.363 . S
C556 C555 1.415 . S
C557 H533 0.951 . S
C557 C558 1.366 . S
C557 C559 1.388 . S
C558 C557 1.366 . S
C558 C562 1.385 . S
C559 H534 0.951 . S
C559 C557 1.388 . S
C559 C560 1.366 . S
C560 C559 1.366 . S
C560 C561 1.414 . S
C560 C563 1.499 . S
C561 H535 0.950 . S
C561 C560 1.414 . S
C561 C562 1.374 . S
C562 H536 0.950 . S
C562 C558 1.385 . S
C562 C561 1.374 . S
C563 C560 1.499 . S
C563 C564 1.373 . S
C563 C565 1.389 . S
C564 H537 0.950 . S
C564 C550 1.377 . S
C564 C563 1.373 . S
C565 C549 1.377 . S
C565 C563 1.389 . S
C565 C566 1.524 . S
C566 C565 1.524 . S
C566 C567 1.397 . S
C566 C571 1.363 . S
C567 H538 0.950 . S
C567 C566 1.397 . S
C567 C568 1.334 . S
C568 H539 0.950 . S
C568 C567 1.334 . S
C568 C569 1.287 . S
C569 C568 1.287 . S
C569 C570 1.524 . S
C569 H572 0.999 . S
C570 H540 0.950 . S
C570 C569 1.524 . S
C570 C571 1.415 . S
C571 H541 0.950 . S
C571 C566 1.363 . S
C571 C570 1.415 . S
H572 C569 0.999 . S
H573 C554 0.913 . S
H574 C592 0.951 . S
H575 C594 0.951 . S
H576 C596 0.950 . S
H577 C597 0.950 . S
H578 C599 0.950 . S
H579 C602 0.950 . S
H580 C603 0.950 . S
H581 C605 0.950 . S
H582 C606 0.950 . S
H583 C607 0.951 . S
H584 C609 0.951 . S
H585 C611 0.950 . S
H586 C612 0.950 . S
H587 C614 0.950 . S
H588 C617 0.950 . S
H589 C618 0.950 . S
H590 C620 0.950 . S
H591 C621 0.950 . S
C592 H574 0.951 . S
C592 C593 1.366 . S
C592 C594 1.388 . S
C593 C592 1.366 . S
C593 C597 1.385 . S
C594 H575 0.951 . S
C594 C592 1.388 . S
C594 C595 1.366 . S
C595 C594 1.366 . S
C595 C596 1.414 . S
C595 C598 1.499 . S
C596 H576 0.950 . S
C596 C595 1.414 . S
C596 C597 1.374 . S
C597 H577 0.950 . S
C597 C593 1.385 . S
C597 C596 1.374 . S
C598 C595 1.499 . S
C598 C599 1.373 . S
C598 C600 1.389 . S
C599 H578 0.950 . S
C599 C598 1.373 . S
C599 C615 1.377 . S
C600 C598 1.389 . S
C600 C601 1.524 . S
C600 C614 1.377 . S
C601 C600 1.524 . S
C601 C602 1.397 . S
C601 C606 1.363 . S
C602 H579 0.950 . S
C602 C601 1.397 . S
C602 C603 1.334 . S
C603 H580 0.950 . S
C603 C602 1.334 . S
C603 C604 1.287 . S
C604 C603 1.287 . S
C604 C605 1.524 . S
C604 H623 0.913 . S
C605 H581 0.950 . S
C605 C604 1.524 . S
C605 C606 1.415 . S
C606 H582 0.950 . S
C606 C601 1.363 . S
C606 C605 1.415 . S
C607 H583 0.951 . S
C607 C608 1.366 . S
C607 C609 1.388 . S
C608 C607 1.366 . S
C608 C612 1.385 . S
C609 H584 0.951 . S
C609 C607 1.388 . S
C609 C610 1.366 . S
C610 C609 1.366 . S
C610 C611 1.414 . S
C610 C613 1.499 . S
C611 H585 0.950 . S
C611 C610 1.414 . S
C611 C612 1.374 . S
C612 H586 0.950 . S
C612 C608 1.385 . S
C612 C611 1.374 . S
C613 C610 1.499 . S
C613 C614 1.373 . S
C613 C615 1.389 . S
C614 H587 0.950 . S
C614 C600 1.377 . S
C614 C613 1.373 . S
C615 C599 1.377 . S
C615 C613 1.389 . S
C615 C616 1.524 . S
C616 C615 1.524 . S
C616 C617 1.397 . S
C616 C621 1.363 . S
C617 H588 0.950 . S
C617 C616 1.397 . S
C617 C618 1.334 . S
C618 H589 0.950 . S
C618 C617 1.334 . S
C618 C619 1.287 . S
C619 C618 1.287 . S
C619 C620 1.524 . S
C619 H622 0.999 . S
C620 H590 0.950 . S
C620 C619 1.524 . S
C620 C621 1.415 . S
C621 H591 0.950 . S
C621 C616 1.363 . S
C621 C620 1.415 . S
H622 C619 0.999 . S
H623 C604 0.913 . S
H624 C642 0.951 . S
H625 C644 0.951 . S
H626 C646 0.950 . S
H627 C647 0.950 . S
H628 C649 0.950 . S
H629 C652 0.950 . S
H630 C653 0.950 . S
H631 C655 0.950 . S
H632 C656 0.950 1_554 S
H633 C657 0.951 . S
H634 C659 0.951 . S
H635 C661 0.950 . S
H636 C662 0.950 . S
H637 C664 0.950 . S
H638 C667 0.950 . S
H639 C668 0.950 . S
H640 C670 0.950 . S
H641 C671 0.950 . S
C642 H624 0.951 . S
C642 C643 1.366 . S
C642 C644 1.388 . S
C643 C642 1.366 . S
C643 C647 1.385 . S
C644 H625 0.951 . S
C644 C642 1.388 . S
C644 C645 1.366 . S
C645 C644 1.366 . S
C645 C646 1.414 . S
C645 C648 1.499 . S
C646 H626 0.950 . S
C646 C645 1.414 . S
C646 C647 1.374 . S
C647 H627 0.950 . S
C647 C643 1.385 . S
C647 C646 1.374 . S
C648 C645 1.499 . S
C648 C649 1.373 . S
C648 C650 1.389 . S
C649 H628 0.950 . S
C649 C648 1.373 . S
C649 C665 1.377 1_556 S
C650 C648 1.389 . S
C650 C651 1.524 . S
C650 C664 1.377 1_556 S
C651 C650 1.524 . S
C651 C652 1.397 . S
C651 C656 1.363 . S
C652 H629 0.950 . S
C652 C651 1.397 . S
C652 C653 1.334 . S
C653 H630 0.950 . S
C653 C652 1.334 . S
C653 C654 1.287 . S
C654 C653 1.287 . S
C654 C655 1.524 . S
C654 H673 0.913 . S
C655 H631 0.950 . S
C655 C654 1.524 . S
C655 C656 1.415 . S
C656 H632 0.950 1_556 S
C656 C651 1.363 . S
C656 C655 1.415 . S
C657 H633 0.951 . S
C657 C658 1.366 . S
C657 C659 1.388 . S
C658 C657 1.366 . S
C658 C662 1.385 . S
C659 H634 0.951 . S
C659 C657 1.388 . S
C659 C660 1.366 . S
C660 C659 1.366 . S
C660 C661 1.414 . S
C660 C663 1.499 . S
C661 H635 0.950 . S
C661 C660 1.414 . S
C661 C662 1.374 . S
C662 H636 0.950 . S
C662 C658 1.385 . S
C662 C661 1.374 . S
C663 C660 1.499 . S
C663 C664 1.373 . S
C663 C665 1.389 . S
C664 H637 0.950 . S
C664 C650 1.377 1_554 S
C664 C663 1.373 . S
C665 C649 1.377 1_554 S
C665 C663 1.389 . S
C665 C666 1.524 . S
C666 C665 1.524 . S
C666 C667 1.397 . S
C666 C671 1.363 . S
C667 H638 0.950 . S
C667 C666 1.397 . S
C667 C668 1.334 . S
C668 H639 0.950 . S
C668 C667 1.334 . S
C668 C669 1.287 . S
C669 C668 1.287 . S
C669 C670 1.524 . S
C669 H672 0.999 . S
C670 H640 0.950 . S
C670 C669 1.524 . S
C670 C671 1.415 . S
C671 H641 0.950 . S
C671 C666 1.363 . S
C671 C670 1.415 . S
H672 C669 0.999 . S
H673 C654 0.913 . S
H674 C692 0.951 . S
H675 C694 0.951 . S
H676 C696 0.950 . S
H677 C697 0.950 . S
H678 C699 0.950 . S
H679 C702 0.950 . S
H680 C703 0.950 . S
H681 C705 0.950 . S
H682 C706 0.950 . S
H683 C707 0.951 . S
H684 C709 0.951 . S
H685 C711 0.950 . S
H686 C712 0.950 . S
H687 C714 0.950 . S
H688 C717 0.950 . S
H689 C718 0.950 . S
H690 C720 0.950 . S
H691 C721 0.950 1_556 S
C692 H674 0.951 . S
C692 C693 1.366 . S
C692 C694 1.388 . S
C693 C692 1.366 . S
C693 C697 1.385 . S
C694 H675 0.951 . S
C694 C692 1.388 . S
C694 C695 1.366 . S
C695 C694 1.366 . S
C695 C696 1.414 . S
C695 C698 1.499 . S
C696 H676 0.950 . S
C696 C695 1.414 . S
C696 C697 1.374 . S
C697 H677 0.950 . S
C697 C693 1.385 . S
C697 C696 1.374 . S
C698 C695 1.499 . S
C698 C699 1.373 . S
C698 C700 1.389 . S
C699 H678 0.950 . S
C699 C698 1.373 . S
C699 C715 1.377 1_556 S
C700 C698 1.389 . S
C700 C701 1.524 . S
C700 C714 1.377 1_556 S
C701 C700 1.524 . S
C701 C702 1.397 . S
C701 C706 1.363 . S
C702 H679 0.950 . S
C702 C701 1.397 . S
C702 C703 1.334 . S
C703 H680 0.950 . S
C703 C702 1.334 . S
C703 C704 1.287 . S
C704 C703 1.287 . S
C704 C705 1.524 . S
C704 H723 0.913 . S
C705 H681 0.950 . S
C705 C704 1.524 . S
C705 C706 1.415 . S
C706 H682 0.950 . S
C706 C701 1.363 . S
C706 C705 1.415 . S
C707 H683 0.951 . S
C707 C708 1.366 . S
C707 C709 1.388 . S
C708 C707 1.366 . S
C708 C712 1.385 . S
C709 H684 0.951 . S
C709 C707 1.388 . S
C709 C710 1.366 . S
C710 C709 1.366 . S
C710 C711 1.414 . S
C710 C713 1.499 . S
C711 H685 0.950 . S
C711 C710 1.414 . S
C711 C712 1.374 . S
C712 H686 0.950 . S
C712 C708 1.385 . S
C712 C711 1.374 . S
C713 C710 1.499 . S
C713 C714 1.373 . S
C713 C715 1.389 . S
C714 H687 0.950 . S
C714 C700 1.377 1_554 S
C714 C713 1.373 . S
C715 C699 1.377 1_554 S
C715 C713 1.389 . S
C715 C716 1.524 . S
C716 C715 1.524 . S
C716 C717 1.397 . S
C716 C721 1.363 . S
C717 H688 0.950 . S
C717 C716 1.397 . S
C717 C718 1.334 . S
C718 H689 0.950 . S
C718 C717 1.334 . S
C718 C719 1.287 . S
C719 C718 1.287 . S
C719 C720 1.524 . S
C719 H722 0.999 . S
C720 H690 0.950 . S
C720 C719 1.524 . S
C720 C721 1.415 . S
C721 H691 0.950 1_554 S
C721 C716 1.363 . S
C721 C720 1.415 . S
H722 C719 0.999 . S
H723 C704 0.913 . S
H724 C742 0.951 . S
H725 C744 0.951 . S
H726 C746 0.950 . S
H727 C747 0.950 . S
H728 C749 0.950 . S
H729 C752 0.950 . S
H730 C753 0.950 . S
H731 C755 0.950 . S
H732 C756 0.917 1_554 S
H733 C757 0.951 . S
H734 C759 0.951 . S
H735 C761 0.950 . S
H736 C762 0.950 . S
H737 C764 0.950 . S
H738 C767 0.950 . S
H739 C768 0.950 . S
H740 C770 0.950 . S
H741 C771 0.950 . S
C742 H724 0.951 . S
C742 C743 1.366 . S
C742 C744 1.388 . S
C743 C742 1.366 . S
C743 C747 1.385 . S
C744 H725 0.951 . S
C744 C742 1.388 . S
C744 C745 1.366 . S
C745 C744 1.366 . S
C745 C746 1.414 . S
C745 C748 1.499 . S
C746 H726 0.950 . S
C746 C745 1.414 . S
C746 C747 1.374 . S
C747 H727 0.950 . S
C747 C743 1.385 . S
C747 C746 1.374 . S
C748 C745 1.499 . S
C748 C749 1.373 . S
C748 C750 1.389 . S
C749 H728 0.950 . S
C749 C748 1.373 . S
C749 C765 1.377 1_556 S
C750 C748 1.389 . S
C750 C751 1.524 . S
C750 C764 1.377 1_556 S
C751 C750 1.524 . S
C751 C752 1.397 . S
C751 C756 1.363 . S
C752 H729 0.950 . S
C752 C751 1.397 . S
C752 C753 1.334 . S
C753 H730 0.950 . S
C753 C752 1.334 . S
C753 C754 1.287 . S
C754 C753 1.287 . S
C754 C755 1.524 . S
C754 H773 0.913 . S
C755 H731 0.950 . S
C755 C754 1.524 . S
C755 C756 1.415 . S
C756 H732 0.917 1_556 S
C756 C751 1.363 . S
C756 C755 1.415 . S
C757 H733 0.951 . S
C757 C758 1.366 . S
C757 C759 1.388 . S
C758 C757 1.366 . S
C758 C762 1.385 . S
C759 H734 0.951 . S
C759 C757 1.388 . S
C759 C760 1.366 . S
C760 C759 1.366 . S
C760 C761 1.414 . S
C760 C763 1.499 . S
C761 H735 0.950 . S
C761 C760 1.414 . S
C761 C762 1.374 . S
C762 H736 0.950 . S
C762 C758 1.385 . S
C762 C761 1.374 . S
C763 C760 1.499 . S
C763 C764 1.373 . S
C763 C765 1.389 . S
C764 H737 0.950 . S
C764 C750 1.377 1_554 S
C764 C763 1.373 . S
C765 C749 1.377 1_554 S
C765 C763 1.389 . S
C765 C766 1.524 . S
C766 C765 1.524 . S
C766 C767 1.397 . S
C766 C771 1.363 . S
C767 H738 0.950 . S
C767 C766 1.397 . S
C767 C768 1.334 . S
C768 H739 0.950 . S
C768 C767 1.334 . S
C768 C769 1.287 . S
C769 C768 1.287 . S
C769 C770 1.524 . S
C769 H772 0.999 . S
C770 H740 0.950 . S
C770 C769 1.524 . S
C770 C771 1.415 . S
C771 H741 0.950 . S
C771 C766 1.363 . S
C771 C770 1.415 . S
H772 C769 0.999 . S
H773 C754 0.913 . S
H774 C792 0.951 . S
H775 C794 0.951 . S
H776 C796 0.950 . S
H777 C797 0.950 . S
H778 C799 0.950 . S
H779 C802 0.950 . S
H780 C803 0.950 . S
H781 C805 0.950 . S
H782 C806 0.950 1_556 S
H783 C807 0.951 . S
H784 C809 0.951 . S
H785 C811 0.950 . S
H786 C812 0.950 . S
H787 C814 0.950 . S
H788 C817 0.950 . S
H789 C818 0.950 . S
H790 C820 0.950 . S
H791 C821 0.950 . S
C792 H774 0.951 . S
C792 C793 1.366 . S
C792 C794 1.388 . S
C793 C792 1.366 . S
C793 C797 1.385 . S
C794 H775 0.951 . S
C794 C792 1.388 . S
C794 C795 1.366 . S
C795 C794 1.366 . S
C795 C796 1.414 . S
C795 C798 1.499 . S
C796 H776 0.950 . S
C796 C795 1.414 . S
C796 C797 1.374 . S
C797 H777 0.950 . S
C797 C793 1.385 . S
C797 C796 1.374 . S
C798 C795 1.499 . S
C798 C799 1.373 . S
C798 C800 1.389 . S
C799 H778 0.950 . S
C799 C798 1.373 . S
C799 C815 1.377 1_554 S
C800 C798 1.389 . S
C800 C801 1.524 . S
C800 C814 1.377 1_554 S
C801 C800 1.524 . S
C801 C802 1.397 . S
C801 C806 1.363 . S
C802 H779 0.950 . S
C802 C801 1.397 . S
C802 C803 1.334 . S
C803 H780 0.950 . S
C803 C802 1.334 . S
C803 C804 1.287 . S
C804 C803 1.287 . S
C804 C805 1.524 . S
C804 H823 0.913 . S
C805 H781 0.950 . S
C805 C804 1.524 . S
C805 C806 1.415 . S
C806 H782 0.950 1_554 S
C806 C801 1.363 . S
C806 C805 1.415 . S
C807 H783 0.951 . S
C807 C808 1.366 . S
C807 C809 1.388 . S
C808 C807 1.366 . S
C808 C812 1.385 . S
C809 H784 0.951 . S
C809 C807 1.388 . S
C809 C810 1.366 . S
C810 C809 1.366 . S
C810 C811 1.414 . S
C810 C813 1.499 . S
C811 H785 0.950 . S
C811 C810 1.414 . S
C811 C812 1.374 . S
C812 H786 0.950 . S
C812 C808 1.385 . S
C812 C811 1.374 . S
C813 C810 1.499 . S
C813 C814 1.373 . S
C813 C815 1.389 . S
C814 H787 0.950 . S
C814 C800 1.377 1_556 S
C814 C813 1.373 . S
C815 C799 1.377 1_556 S
C815 C813 1.389 . S
C815 C816 1.524 . S
C816 C815 1.524 . S
C816 C817 1.397 . S
C816 C821 1.363 . S
C817 H788 0.950 . S
C817 C816 1.397 . S
C817 C818 1.334 . S
C818 H789 0.950 . S
C818 C817 1.334 . S
C818 C819 1.287 . S
C819 C818 1.287 . S
C819 C820 1.524 . S
C819 H822 0.999 . S
C820 H790 0.950 . S
C820 C819 1.524 . S
C820 C821 1.415 . S
C821 H791 0.950 . S
C821 C816 1.363 . S
C821 C820 1.415 . S
H822 C819 0.999 . S
H823 C804 0.913 . S
H824 C842 0.951 . S
H825 C844 0.951 . S
H826 C846 0.950 . S
H827 C847 0.950 . S
H828 C849 0.950 . S
H829 C852 0.950 . S
H830 C853 0.950 . S
H831 C855 0.950 . S
H832 C856 0.950 . S
H833 C857 0.951 . S
H834 C859 0.951 . S
H835 C861 0.950 . S
H836 C862 0.950 . S
H837 C864 0.950 . S
H838 C867 0.950 . S
H839 C868 0.950 . S
H840 C870 0.950 . S
H841 C871 0.950 . S
C842 H824 0.951 . S
C842 C843 1.366 . S
C842 C844 1.388 . S
C843 C842 1.366 . S
C843 C847 1.385 . S
C844 H825 0.951 . S
C844 C842 1.388 . S
C844 C845 1.366 . S
C845 C844 1.366 . S
C845 C846 1.414 . S
C845 C848 1.499 . S
C846 H826 0.950 . S
C846 C845 1.414 . S
C846 C847 1.374 . S
C847 H827 0.950 . S
C847 C843 1.385 . S
C847 C846 1.374 . S
C848 C845 1.499 . S
C848 C849 1.373 . S
C848 C850 1.389 . S
C849 H828 0.950 . S
C849 C848 1.373 . S
C849 C865 1.377 1_455 S
C850 C848 1.389 . S
C850 C851 1.524 . S
C850 C864 1.377 1_455 S
C851 C850 1.524 . S
C851 C852 1.397 . S
C851 C856 1.363 . S
C852 H829 0.950 . S
C852 C851 1.397 . S
C852 C853 1.334 . S
C853 H830 0.950 . S
C853 C852 1.334 . S
C853 C854 1.287 . S
C854 C853 1.287 . S
C854 C855 1.524 . S
C854 H873 0.913 . S
C855 H831 0.950 . S
C855 C854 1.524 . S
C855 C856 1.415 . S
C856 H832 0.950 . S
C856 C851 1.363 . S
C856 C855 1.415 . S
C857 H833 0.951 . S
C857 C858 1.366 . S
C857 C859 1.388 . S
C858 C857 1.366 . S
C858 C862 1.385 . S
C859 H834 0.951 . S
C859 C857 1.388 . S
C859 C860 1.366 . S
C860 C859 1.366 . S
C860 C861 1.414 . S
C860 C863 1.499 . S
C861 H835 0.950 . S
C861 C860 1.414 . S
C861 C862 1.374 . S
C862 H836 0.950 . S
C862 C858 1.385 . S
C862 C861 1.374 . S
C863 C860 1.499 . S
C863 C864 1.373 . S
C863 C865 1.389 . S
C864 H837 0.950 . S
C864 C850 1.377 1_655 S
C864 C863 1.373 . S
C865 C849 1.377 1_655 S
C865 C863 1.389 . S
C865 C866 1.524 . S
C866 C865 1.524 . S
C866 C867 1.397 . S
C866 C871 1.363 . S
C867 H838 0.950 . S
C867 C866 1.397 . S
C867 C868 1.334 . S
C868 H839 0.950 . S
C868 C867 1.334 . S
C868 C869 1.287 . S
C869 C868 1.287 . S
C869 C870 1.524 . S
C869 H872 0.999 . S
C870 H840 0.950 . S
C870 C869 1.524 . S
C870 C871 1.415 . S
C871 H841 0.950 . S
C871 C866 1.363 . S
C871 C870 1.415 . S
H872 C869 0.999 . S
H873 C854 0.913 . S
H874 C892 0.951 . S
H875 C894 0.951 . S
H876 C896 0.950 . S
H877 C897 0.950 . S
H878 C899 0.950 . S
H879 C902 0.950 . S
H880 C903 0.950 . S
H881 C905 0.950 . S
H882 C906 0.950 . S
H883 C907 0.951 . S
H884 C909 0.951 . S
H885 C911 0.950 . S
H886 C912 0.950 . S
H887 C914 0.950 . S
H888 C917 0.950 . S
H889 C918 0.950 . S
H890 C920 0.950 . S
H891 C921 0.950 . S
C892 H874 0.951 . S
C892 C893 1.366 . S
C892 C894 1.388 . S
C893 C892 1.366 . S
C893 C897 1.385 . S
C894 H875 0.951 . S
C894 C892 1.388 . S
C894 C895 1.366 . S
C895 C894 1.366 . S
C895 C896 1.414 . S
C895 C898 1.499 . S
C896 H876 0.950 . S
C896 C895 1.414 . S
C896 C897 1.374 . S
C897 H877 0.950 . S
C897 C893 1.385 . S
C897 C896 1.374 . S
C898 C895 1.499 . S
C898 C899 1.373 . S
C898 C900 1.389 . S
C899 H878 0.950 . S
C899 C898 1.373 . S
C899 C915 1.377 1_565 S
C900 C898 1.389 . S
C900 C901 1.524 . S
C900 C914 1.377 1_565 S
C901 C900 1.524 . S
C901 C902 1.397 . S
C901 C906 1.363 . S
C902 H879 0.950 . S
C902 C901 1.397 . S
C902 C903 1.334 . S
C903 H880 0.950 . S
C903 C902 1.334 . S
C903 C904 1.287 . S
C904 C903 1.287 . S
C904 C905 1.524 . S
C904 H923 0.913 . S
C905 H881 0.950 . S
C905 C904 1.524 . S
C905 C906 1.415 . S
C906 H882 0.950 . S
C906 C901 1.363 . S
C906 C905 1.415 . S
C907 H883 0.951 . S
C907 C908 1.366 . S
C907 C909 1.388 . S
C908 C907 1.366 . S
C908 C912 1.385 . S
C909 H884 0.951 . S
C909 C907 1.388 . S
C909 C910 1.366 . S
C910 C909 1.366 . S
C910 C911 1.414 . S
C910 C913 1.499 . S
C911 H885 0.950 . S
C911 C910 1.414 . S
C911 C912 1.374 . S
C912 H886 0.950 . S
C912 C908 1.385 . S
C912 C911 1.374 . S
C913 C910 1.499 . S
C913 C914 1.373 . S
C913 C915 1.389 . S
C914 H887 0.950 . S
C914 C900 1.377 1_545 S
C914 C913 1.373 . S
C915 C899 1.377 1_545 S
C915 C913 1.389 . S
C915 C916 1.524 . S
C916 C915 1.524 . S
C916 C917 1.397 . S
C916 C921 1.363 . S
C917 H888 0.950 . S
C917 C916 1.397 . S
C917 C918 1.334 . S
C918 H889 0.950 . S
C918 C917 1.334 . S
C918 C919 1.287 . S
C919 C918 1.287 . S
C919 C920 1.524 . S
C919 H922 0.999 . S
C920 H890 0.950 . S
C920 C919 1.524 . S
C920 C921 1.415 . S
C921 H891 0.950 . S
C921 C916 1.363 . S
C921 C920 1.415 . S
H922 C919 0.999 . S
H923 C904 0.913 . S
H924 C942 0.951 . S
H925 C944 0.951 . S
H926 C946 0.950 . S
H927 C947 0.950 . S
H928 C949 0.950 . S
H929 C952 0.950 . S
H930 C953 0.950 . S
H931 C955 0.950 . S
H932 C956 0.950 . S
H933 C957 0.951 . S
H934 C959 0.951 . S
H935 C961 0.950 . S
H936 C962 0.950 . S
H937 C964 0.950 . S
H938 C967 0.950 . S
H939 C968 0.950 . S
H940 C970 0.950 . S
H941 C971 0.950 . S
C942 H924 0.951 . S
C942 C943 1.366 . S
C942 C944 1.388 . S
C943 C942 1.366 . S
C943 C947 1.385 . S
C944 H925 0.951 . S
C944 C942 1.388 . S
C944 C945 1.366 . S
C945 C944 1.366 . S
C945 C946 1.414 . S
C945 C948 1.499 . S
C946 H926 0.950 . S
C946 C945 1.414 . S
C946 C947 1.374 . S
C947 H927 0.950 . S
C947 C943 1.385 . S
C947 C946 1.374 . S
C948 C945 1.499 . S
C948 C949 1.373 . S
C948 C950 1.389 . S
C949 H928 0.950 . S
C949 C948 1.373 . S
C949 C965 1.377 1_655 S
C950 C948 1.389 . S
C950 C951 1.524 . S
C950 C964 1.377 1_655 S
C951 C950 1.524 . S
C951 C952 1.397 . S
C951 C956 1.363 . S
C952 H929 0.950 . S
C952 C951 1.397 . S
C952 C953 1.334 . S
C953 H930 0.950 . S
C953 C952 1.334 . S
C953 C954 1.287 . S
C954 C953 1.287 . S
C954 C955 1.524 . S
C954 H973 0.913 . S
C955 H931 0.950 . S
C955 C954 1.524 . S
C955 C956 1.415 . S
C956 H932 0.950 . S
C956 C951 1.363 . S
C956 C955 1.415 . S
C957 H933 0.951 . S
C957 C958 1.366 . S
C957 C959 1.388 . S
C958 C957 1.366 . S
C958 C962 1.385 . S
C959 H934 0.951 . S
C959 C957 1.388 . S
C959 C960 1.366 . S
C960 C959 1.366 . S
C960 C961 1.414 . S
C960 C963 1.499 . S
C961 H935 0.950 . S
C961 C960 1.414 . S
C961 C962 1.374 . S
C962 H936 0.950 . S
C962 C958 1.385 . S
C962 C961 1.374 . S
C963 C960 1.499 . S
C963 C964 1.373 . S
C963 C965 1.389 . S
C964 H937 0.950 . S
C964 C950 1.377 1_455 S
C964 C963 1.373 . S
C965 C949 1.377 1_455 S
C965 C963 1.389 . S
C965 C966 1.524 . S
C966 C965 1.524 . S
C966 C967 1.397 . S
C966 C971 1.363 . S
C967 H938 0.950 . S
C967 C966 1.397 . S
C967 C968 1.334 . S
C968 H939 0.950 . S
C968 C967 1.334 . S
C968 C969 1.287 . S
C969 C968 1.287 . S
C969 C970 1.524 . S
C969 H972 0.999 . S
C970 H940 0.950 . S
C970 C969 1.524 . S
C970 C971 1.415 . S
C971 H941 0.950 . S
C971 C966 1.363 . S
C971 C970 1.415 . S
H972 C969 0.999 . S
H973 C954 0.913 . S
H974 C992 0.951 . S
H975 C994 0.951 . S
H976 C996 0.950 . S
H977 C997 0.950 . S
H978 C999 0.950 . S
H979 C1002 0.950 . S
H980 C1003 0.950 . S
H981 C1005 0.950 . S
H982 C1006 0.950 . S
H983 C1007 0.951 . S
H984 C1009 0.951 . S
H985 C1011 0.950 . S
H986 C1012 0.950 . S
H987 C1014 0.950 . S
H988 C1017 0.950 . S
H989 C1018 0.950 . S
H990 C1020 0.950 . S
H991 C1021 0.950 . S
C992 H974 0.951 . S
C992 C993 1.366 . S
C992 C994 1.388 . S
C993 C992 1.366 . S
C993 C997 1.385 . S
C994 H975 0.951 . S
C994 C992 1.388 . S
C994 C995 1.366 . S
C995 C994 1.366 . S
C995 C996 1.414 . S
C995 C998 1.499 . S
C996 H976 0.950 . S
C996 C995 1.414 . S
C996 C997 1.374 . S
C997 H977 0.950 . S
C997 C993 1.385 . S
C997 C996 1.374 . S
C998 C995 1.499 . S
C998 C999 1.373 . S
C998 C1000 1.389 . S
C999 H978 0.950 . S
C999 C998 1.373 . S
C999 C1015 1.377 1_545 S
C1000 C998 1.389 . S
C1000 C1001 1.524 . S
C1000 C1014 1.377 1_545 S
C1001 C1000 1.524 . S
C1001 C1002 1.397 . S
C1001 C1006 1.363 . S
C1002 H979 0.950 . S
C1002 C1001 1.397 . S
C1002 C1003 1.334 . S
C1003 H980 0.950 . S
C1003 C1002 1.334 . S
C1003 C1004 1.287 . S
C1004 C1003 1.287 . S
C1004 C1005 1.524 . S
C1004 H1023 0.913 . S
C1005 H981 0.950 . S
C1005 C1004 1.524 . S
C1005 C1006 1.415 . S
C1006 H982 0.950 . S
C1006 C1001 1.363 . S
C1006 C1005 1.415 . S
C1007 H983 0.951 . S
C1007 C1008 1.366 . S
C1007 C1009 1.388 . S
C1008 C1007 1.366 . S
C1008 C1012 1.385 . S
C1009 H984 0.951 . S
C1009 C1007 1.388 . S
C1009 C1010 1.366 . S
C1010 C1009 1.366 . S
C1010 C1011 1.414 . S
C1010 C1013 1.499 . S
C1011 H985 0.950 . S
C1011 C1010 1.414 . S
C1011 C1012 1.374 . S
C1012 H986 0.950 . S
C1012 C1008 1.385 . S
C1012 C1011 1.374 . S
C1013 C1010 1.499 . S
C1013 C1014 1.373 . S
C1013 C1015 1.389 . S
C1014 H987 0.950 . S
C1014 C1000 1.377 1_565 S
C1014 C1013 1.373 . S
C1015 C999 1.377 1_565 S
C1015 C1013 1.389 . S
C1015 C1016 1.524 . S
C1016 C1015 1.524 . S
C1016 C1017 1.397 . S
C1016 C1021 1.363 . S
C1017 H988 0.950 . S
C1017 C1016 1.397 . S
C1017 C1018 1.334 . S
C1018 H989 0.950 . S
C1018 C1017 1.334 . S
C1018 C1019 1.287 . S
C1019 C1018 1.287 . S
C1019 C1020 1.524 . S
C1019 H1022 0.999 . S
C1020 H990 0.950 . S
C1020 C1019 1.524 . S
C1020 C1021 1.415 . S
C1021 H991 0.950 . S
C1021 C1016 1.363 . S
C1021 C1020 1.415 . S
H1022 C1019 0.999 . S
H1023 C1004 0.913 . S
H1024 C1042 0.951 . S
H1025 C1044 0.951 . S
H1026 C1046 0.950 . S
H1027 C1047 0.950 . S
H1028 C1049 0.950 . S
H1029 C1052 0.950 . S
H1030 C1053 0.950 . S
H1031 C1055 0.950 . S
H1032 C1056 0.950 . S
H1033 C1057 0.951 . S
H1034 C1059 0.951 . S
H1035 C1061 0.950 . S
H1036 C1062 0.950 . S
H1037 C1064 0.950 . S
H1038 C1067 0.950 . S
H1039 C1068 0.950 . S
H1040 C1070 0.950 . S
H1041 C1071 0.950 . S
C1042 H1024 0.951 . S
C1042 C1043 1.366 . S
C1042 C1044 1.388 . S
C1043 C1042 1.366 . S
C1043 C1047 1.385 . S
C1044 H1025 0.951 . S
C1044 C1042 1.388 . S
C1044 C1045 1.366 . S
C1045 C1044 1.366 . S
C1045 C1046 1.414 . S
C1045 C1048 1.499 . S
C1046 H1026 0.950 . S
C1046 C1045 1.414 . S
C1046 C1047 1.374 . S
C1047 H1027 0.950 . S
C1047 C1043 1.385 . S
C1047 C1046 1.374 . S
C1048 C1045 1.499 . S
C1048 C1049 1.373 . S
C1048 C1050 1.389 . S
C1049 H1028 0.950 . S
C1049 C1048 1.373 . S
C1049 C1065 1.377 1_655 S
C1050 C1048 1.389 . S
C1050 C1051 1.524 . S
C1050 C1064 1.377 1_655 S
C1051 C1050 1.524 . S
C1051 C1052 1.397 . S
C1051 C1056 1.363 . S
C1052 H1029 0.950 . S
C1052 C1051 1.397 . S
C1052 C1053 1.334 . S
C1053 H1030 0.950 . S
C1053 C1052 1.334 . S
C1053 C1054 1.287 . S
C1054 C1053 1.287 . S
C1054 C1055 1.524 . S
C1054 H1073 0.913 . S
C1055 H1031 0.950 . S
C1055 C1054 1.524 . S
C1055 C1056 1.415 . S
C1056 H1032 0.950 . S
C1056 C1051 1.363 . S
C1056 C1055 1.415 . S
C1057 H1033 0.951 . S
C1057 C1058 1.366 . S
C1057 C1059 1.388 . S
C1058 C1057 1.366 . S
C1058 C1062 1.385 . S
C1059 H1034 0.951 . S
C1059 C1057 1.388 . S
C1059 C1060 1.366 . S
C1060 C1059 1.366 . S
C1060 C1061 1.414 . S
C1060 C1063 1.499 . S
C1061 H1035 0.950 . S
C1061 C1060 1.414 . S
C1061 C1062 1.374 . S
C1062 H1036 0.950 . S
C1062 C1058 1.385 . S
C1062 C1061 1.374 . S
C1063 C1060 1.499 . S
C1063 C1064 1.373 . S
C1063 C1065 1.389 . S
C1064 H1037 0.950 . S
C1064 C1050 1.377 1_455 S
C1064 C1063 1.373 . S
C1065 C1049 1.377 1_455 S
C1065 C1063 1.389 . S
C1065 C1066 1.524 . S
C1066 C1065 1.524 . S
C1066 C1067 1.397 . S
C1066 C1071 1.363 . S
C1067 H1038 0.950 . S
C1067 C1066 1.397 . S
C1067 C1068 1.334 . S
C1068 H1039 0.950 . S
C1068 C1067 1.334 . S
C1068 C1069 1.287 . S
C1069 C1068 1.287 . S
C1069 C1070 1.524 . S
C1069 H1072 0.999 . S
C1070 H1040 0.950 . S
C1070 C1069 1.524 . S
C1070 C1071 1.415 . S
C1071 H1041 0.950 . S
C1071 C1066 1.363 . S
C1071 C1070 1.415 . S
H1072 C1069 0.999 . S
H1073 C1054 0.913 . S
H1074 C1092 0.951 . S
H1075 C1094 0.951 . S
H1076 C1096 0.950 . S
H1077 C1097 0.950 . S
H1078 C1099 0.950 . S
H1079 C1102 0.950 . S
H1080 C1103 0.950 . S
H1081 C1105 0.950 . S
H1082 C1106 0.950 . S
H1083 C1107 0.951 . S
H1084 C1109 0.951 . S
H1085 C1111 0.950 . S
H1086 C1112 0.950 . S
H1087 C1114 0.950 . S
H1088 C1117 0.950 . S
H1089 C1118 0.950 . S
H1090 C1120 0.950 . S
H1091 C1121 0.950 . S
C1092 H1074 0.951 . S
C1092 C1093 1.366 . S
C1092 C1094 1.388 . S
C1093 C1092 1.366 . S
C1093 C1097 1.385 . S
C1094 H1075 0.951 . S
C1094 C1092 1.388 . S
C1094 C1095 1.366 . S
C1095 C1094 1.366 . S
C1095 C1096 1.414 . S
C1095 C1098 1.499 . S
C1096 H1076 0.950 . S
C1096 C1095 1.414 . S
C1096 C1097 1.374 . S
C1097 H1077 0.950 . S
C1097 C1093 1.385 . S
C1097 C1096 1.374 . S
C1098 C1095 1.499 . S
C1098 C1099 1.373 . S
C1098 C1100 1.389 . S
C1099 H1078 0.950 . S
C1099 C1098 1.373 . S
C1099 C1115 1.377 1_565 S
C1100 C1098 1.389 . S
C1100 C1101 1.524 . S
C1100 C1114 1.377 1_565 S
C1101 C1100 1.524 . S
C1101 C1102 1.397 . S
C1101 C1106 1.363 . S
C1102 H1079 0.950 . S
C1102 C1101 1.397 . S
C1102 C1103 1.334 . S
C1103 H1080 0.950 . S
C1103 C1102 1.334 . S
C1103 C1104 1.287 . S
C1104 C1103 1.287 . S
C1104 C1105 1.524 . S
C1104 H1123 0.913 . S
C1105 H1081 0.950 . S
C1105 C1104 1.524 . S
C1105 C1106 1.415 . S
C1106 H1082 0.950 . S
C1106 C1101 1.363 . S
C1106 C1105 1.415 . S
C1107 H1083 0.951 . S
C1107 C1108 1.366 . S
C1107 C1109 1.388 . S
C1108 C1107 1.366 . S
C1108 C1112 1.385 . S
C1109 H1084 0.951 . S
C1109 C1107 1.388 . S
C1109 C1110 1.366 . S
C1110 C1109 1.366 . S
C1110 C1111 1.414 . S
C1110 C1113 1.499 . S
C1111 H1085 0.950 . S
C1111 C1110 1.414 . S
C1111 C1112 1.374 . S
C1112 H1086 0.950 . S
C1112 C1108 1.385 . S
C1112 C1111 1.374 . S
C1113 C1110 1.499 . S
C1113 C1114 1.373 . S
C1113 C1115 1.389 . S
C1114 H1087 0.950 . S
C1114 C1100 1.377 1_545 S
C1114 C1113 1.373 . S
C1115 C1099 1.377 1_545 S
C1115 C1113 1.389 . S
C1115 C1116 1.524 . S
C1116 C1115 1.524 . S
C1116 C1117 1.397 . S
C1116 C1121 1.363 . S
C1117 H1088 0.950 . S
C1117 C1116 1.397 . S
C1117 C1118 1.334 . S
C1118 H1089 0.950 . S
C1118 C1117 1.334 . S
C1118 C1119 1.287 . S
C1119 C1118 1.287 . S
C1119 C1120 1.524 . S
C1119 H1122 0.999 . S
C1120 H1090 0.950 . S
C1120 C1119 1.524 . S
C1120 C1121 1.415 . S
C1121 H1091 0.950 . S
C1121 C1116 1.363 . S
C1121 C1120 1.415 . S
H1122 C1119 0.999 . S
H1123 C1104 0.913 . S
H1124 C1142 0.951 . S
H1125 C1144 0.951 . S
H1126 C1146 0.950 . S
H1127 C1147 0.950 . S
H1128 C1149 0.950 . S
H1129 C1152 0.950 . S
H1130 C1153 0.950 . S
H1131 C1155 0.950 . S
H1132 C1156 0.950 . S
H1133 C1157 0.951 . S
H1134 C1159 0.951 . S
H1135 C1161 0.950 . S
H1136 C1162 0.950 . S
H1137 C1164 0.950 . S
H1138 C1167 0.950 . S
H1139 C1168 0.950 . S
H1140 C1170 0.950 . S
H1141 C1171 0.950 . S
C1142 H1124 0.951 . S
C1142 C1143 1.366 . S
C1142 C1144 1.388 . S
C1143 C1142 1.366 . S
C1143 C1147 1.385 . S
C1144 H1125 0.951 . S
C1144 C1142 1.388 . S
C1144 C1145 1.366 . S
C1145 C1144 1.366 . S
C1145 C1146 1.414 . S
C1145 C1148 1.499 . S
C1146 H1126 0.950 . S
C1146 C1145 1.414 . S
C1146 C1147 1.374 . S
C1147 H1127 0.950 . S
C1147 C1143 1.385 . S
C1147 C1146 1.374 . S
C1148 C1145 1.499 . S
C1148 C1149 1.373 . S
C1148 C1150 1.389 . S
C1149 H1128 0.950 . S
C1149 C1148 1.373 . S
C1149 C1165 1.377 1_455 S
C1150 C1148 1.389 . S
C1150 C1151 1.524 . S
C1150 C1164 1.377 1_455 S
C1151 C1150 1.524 . S
C1151 C1152 1.397 . S
C1151 C1156 1.363 . S
C1152 H1129 0.950 . S
C1152 C1151 1.397 . S
C1152 C1153 1.334 . S
C1153 H1130 0.950 . S
C1153 C1152 1.334 . S
C1153 C1154 1.287 . S
C1154 C1153 1.287 . S
C1154 C1155 1.524 . S
C1154 H1173 0.913 . S
C1155 H1131 0.950 . S
C1155 C1154 1.524 . S
C1155 C1156 1.415 . S
C1156 H1132 0.950 . S
C1156 C1151 1.363 . S
C1156 C1155 1.415 . S
C1157 H1133 0.951 . S
C1157 C1158 1.366 . S
C1157 C1159 1.388 . S
C1158 C1157 1.366 . S
C1158 C1162 1.385 . S
C1159 H1134 0.951 . S
C1159 C1157 1.388 . S
C1159 C1160 1.366 . S
C1160 C1159 1.366 . S
C1160 C1161 1.414 . S
C1160 C1163 1.499 . S
C1161 H1135 0.950 . S
C1161 C1160 1.414 . S
C1161 C1162 1.374 . S
C1162 H1136 0.950 . S
C1162 C1158 1.385 . S
C1162 C1161 1.374 . S
C1163 C1160 1.499 . S
C1163 C1164 1.373 . S
C1163 C1165 1.389 . S
C1164 H1137 0.950 . S
C1164 C1150 1.377 1_655 S
C1164 C1163 1.373 . S
C1165 C1149 1.377 1_655 S
C1165 C1163 1.389 . S
C1165 C1166 1.524 . S
C1166 C1165 1.524 . S
C1166 C1167 1.397 . S
C1166 C1171 1.363 . S
C1167 H1138 0.950 . S
C1167 C1166 1.397 . S
C1167 C1168 1.334 . S
C1168 H1139 0.950 . S
C1168 C1167 1.334 . S
C1168 C1169 1.287 . S
C1169 C1168 1.287 . S
C1169 C1170 1.524 . S
C1169 H1172 0.999 . S
C1170 H1140 0.950 . S
C1170 C1169 1.524 . S
C1170 C1171 1.415 . S
C1171 H1141 0.950 . S
C1171 C1166 1.363 . S
C1171 C1170 1.415 . S
H1172 C1169 0.999 . S
H1173 C1154 0.913 . S
H1174 C1192 0.951 . S
H1175 C1194 0.951 . S
H1176 C1196 0.950 . S
H1177 C1197 0.950 . S
H1178 C1199 0.950 . S
H1179 C1202 0.950 . S
H1180 C1203 0.950 . S
H1181 C1205 0.950 . S
H1182 C1206 0.950 . S
H1183 C1207 0.951 . S
H1184 C1209 0.951 . S
H1185 C1211 0.950 . S
H1186 C1212 0.950 . S
H1187 C1214 0.950 . S
H1188 C1217 0.950 . S
H1189 C1218 0.950 . S
H1190 C1220 0.950 . S
H1191 C1221 0.950 1_565 S
C1192 H1174 0.951 . S
C1192 C1193 1.366 . S
C1192 C1194 1.388 . S
C1193 C1192 1.366 . S
C1193 C1197 1.385 . S
C1194 H1175 0.951 . S
C1194 C1192 1.388 . S
C1194 C1195 1.366 . S
C1195 C1194 1.366 . S
C1195 C1196 1.414 . S
C1195 C1198 1.499 . S
C1196 H1176 0.950 . S
C1196 C1195 1.414 . S
C1196 C1197 1.374 . S
C1197 H1177 0.950 . S
C1197 C1193 1.385 . S
C1197 C1196 1.374 . S
C1198 C1195 1.499 . S
C1198 C1199 1.373 . S
C1198 C1200 1.389 . S
C1199 H1178 0.950 . S
C1199 C1198 1.373 . S
C1199 C1215 1.377 1_565 S
C1200 C1198 1.389 . S
C1200 C1201 1.524 . S
C1200 C1214 1.377 1_565 S
C1201 C1200 1.524 . S
C1201 C1202 1.397 . S
C1201 C1206 1.363 . S
C1202 H1179 0.950 . S
C1202 C1201 1.397 . S
C1202 C1203 1.334 . S
C1203 H1180 0.950 . S
C1203 C1202 1.334 . S
C1203 C1204 1.287 . S
C1204 C1203 1.287 . S
C1204 C1205 1.524 . S
C1204 H1223 0.913 . S
C1205 H1181 0.950 . S
C1205 C1204 1.524 . S
C1205 C1206 1.415 . S
C1206 H1182 0.950 . S
C1206 C1201 1.363 . S
C1206 C1205 1.415 . S
C1207 H1183 0.951 . S
C1207 C1208 1.366 . S
C1207 C1209 1.388 . S
C1208 C1207 1.366 . S
C1208 C1212 1.385 . S
C1209 H1184 0.951 . S
C1209 C1207 1.388 . S
C1209 C1210 1.366 . S
C1210 C1209 1.366 . S
C1210 C1211 1.414 . S
C1210 C1213 1.499 . S
C1211 H1185 0.950 . S
C1211 C1210 1.414 . S
C1211 C1212 1.374 . S
C1212 H1186 0.950 . S
C1212 C1208 1.385 . S
C1212 C1211 1.374 . S
C1213 C1210 1.499 . S
C1213 C1214 1.373 . S
C1213 C1215 1.389 . S
C1214 H1187 0.950 . S
C1214 C1200 1.377 1_545 S
C1214 C1213 1.373 . S
C1215 C1199 1.377 1_545 S
C1215 C1213 1.389 . S
C1215 C1216 1.524 . S
C1216 C1215 1.524 . S
C1216 C1217 1.397 . S
C1216 C1221 1.363 . S
C1217 H1188 0.950 . S
C1217 C1216 1.397 . S
C1217 C1218 1.334 . S
C1218 H1189 0.950 . S
C1218 C1217 1.334 . S
C1218 C1219 1.287 . S
C1219 C1218 1.287 . S
C1219 C1220 1.524 . S
C1219 H1222 0.999 . S
C1220 H1190 0.950 . S
C1220 C1219 1.524 . S
C1220 C1221 1.415 . S
C1221 H1191 0.950 1_545 S
C1221 C1216 1.363 . S
C1221 C1220 1.415 . S
H1222 C1219 0.999 . S
H1223 C1204 0.913 . S
H1224 C1242 0.951 . S
H1225 C1244 0.951 . S
H1226 C1246 0.950 . S
H1227 C1247 0.950 . S
H1228 C1249 0.950 . S
H1229 C1252 0.950 . S
H1230 C1253 0.950 . S
H1231 C1255 0.950 . S
H1232 C1256 0.950 . S
H1233 C1257 0.951 . S
H1234 C1259 0.951 . S
H1235 C1261 0.950 . S
H1236 C1262 0.950 . S
H1237 C1264 0.950 . S
H1238 C1267 0.950 . S
H1239 C1268 0.950 . S
H1240 C1270 0.950 . S
H1241 C1271 0.950 . S
C1242 H1224 0.951 . S
C1242 C1243 1.366 . S
C1242 C1244 1.388 . S
C1243 C1242 1.366 . S
C1243 C1247 1.385 . S
C1244 H1225 0.951 . S
C1244 C1242 1.388 . S
C1244 C1245 1.366 . S
C1245 C1244 1.366 . S
C1245 C1246 1.414 . S
C1245 C1248 1.499 . S
C1246 H1226 0.950 . S
C1246 C1245 1.414 . S
C1246 C1247 1.374 . S
C1247 H1227 0.950 . S
C1247 C1243 1.385 . S
C1247 C1246 1.374 . S
C1248 C1245 1.499 . S
C1248 C1249 1.373 . S
C1248 C1250 1.389 . S
C1249 H1228 0.950 . S
C1249 C1248 1.373 . S
C1249 C1265 1.377 . S
C1250 C1248 1.389 . S
C1250 C1251 1.524 . S
C1250 C1264 1.377 . S
C1251 C1250 1.524 . S
C1251 C1252 1.397 . S
C1251 C1256 1.363 . S
C1252 H1229 0.950 . S
C1252 C1251 1.397 . S
C1252 C1253 1.334 . S
C1253 H1230 0.950 . S
C1253 C1252 1.334 . S
C1253 C1254 1.287 . S
C1254 C1253 1.287 . S
C1254 C1255 1.524 . S
C1254 H1273 0.913 . S
C1255 H1231 0.950 . S
C1255 C1254 1.524 . S
C1255 C1256 1.415 . S
C1256 H1232 0.950 . S
C1256 C1251 1.363 . S
C1256 C1255 1.415 . S
C1257 H1233 0.951 . S
C1257 C1258 1.366 . S
C1257 C1259 1.388 . S
C1258 C1257 1.366 . S
C1258 C1262 1.385 . S
C1259 H1234 0.951 . S
C1259 C1257 1.388 . S
C1259 C1260 1.366 . S
C1260 C1259 1.366 . S
C1260 C1261 1.414 . S
C1260 C1263 1.499 . S
C1261 H1235 0.950 . S
C1261 C1260 1.414 . S
C1261 C1262 1.374 . S
C1262 H1236 0.950 . S
C1262 C1258 1.385 . S
C1262 C1261 1.374 . S
C1263 C1260 1.499 . S
C1263 C1264 1.373 . S
C1263 C1265 1.389 . S
C1264 H1237 0.950 . S
C1264 C1250 1.377 . S
C1264 C1263 1.373 . S
C1265 C1249 1.377 . S
C1265 C1263 1.389 . S
C1265 C1266 1.524 . S
C1266 C1265 1.524 . S
C1266 C1267 1.397 . S
C1266 C1271 1.363 . S
C1267 H1238 0.950 . S
C1267 C1266 1.397 . S
C1267 C1268 1.334 . S
C1268 H1239 0.950 . S
C1268 C1267 1.334 . S
C1268 C1269 1.287 . S
C1269 C1268 1.287 . S
C1269 C1270 1.524 . S
C1269 H1272 0.999 . S
C1270 H1240 0.950 . S
C1270 C1269 1.524 . S
C1270 C1271 1.415 . S
C1271 H1241 0.950 . S
C1271 C1266 1.363 . S
C1271 C1270 1.415 . S
H1272 C1269 0.999 . S
H1273 C1254 0.913 . S
H1274 C1292 0.951 . S
H1275 C1294 0.951 . S
H1276 C1296 0.950 . S
H1277 C1297 0.950 . S
H1278 C1299 0.950 . S
H1279 C1302 0.950 . S
H1280 C1303 0.950 . S
H1281 C1305 0.950 . S
H1282 C1306 0.950 . S
H1283 C1307 0.951 . S
H1284 C1309 0.951 . S
H1285 C1311 0.950 . S
H1286 C1312 0.950 . S
H1287 C1314 0.950 . S
H1288 C1317 0.950 . S
H1289 C1318 0.950 . S
H1290 C1320 0.950 . S
H1291 C1321 0.950 . S
C1292 H1274 0.951 . S
C1292 C1293 1.366 . S
C1292 C1294 1.388 . S
C1293 C1292 1.366 . S
C1293 C1297 1.385 . S
C1294 H1275 0.951 . S
C1294 C1292 1.388 . S
C1294 C1295 1.366 . S
C1295 C1294 1.366 . S
C1295 C1296 1.414 . S
C1295 C1298 1.499 . S
C1296 H1276 0.950 . S
C1296 C1295 1.414 . S
C1296 C1297 1.374 . S
C1297 H1277 0.950 . S
C1297 C1293 1.385 . S
C1297 C1296 1.374 . S
C1298 C1295 1.499 . S
C1298 C1299 1.373 . S
C1298 C1300 1.389 . S
C1299 H1278 0.950 . S
C1299 C1298 1.373 . S
C1299 C1315 1.377 . S
C1300 C1298 1.389 . S
C1300 C1301 1.524 . S
C1300 C1314 1.377 . S
C1301 C1300 1.524 . S
C1301 C1302 1.397 . S
C1301 C1306 1.363 . S
C1302 H1279 0.950 . S
C1302 C1301 1.397 . S
C1302 C1303 1.334 . S
C1303 H1280 0.950 . S
C1303 C1302 1.334 . S
C1303 C1304 1.287 . S
C1304 C1303 1.287 . S
C1304 C1305 1.524 . S
C1304 H1323 0.913 . S
C1305 H1281 0.950 . S
C1305 C1304 1.524 . S
C1305 C1306 1.415 . S
C1306 H1282 0.950 . S
C1306 C1301 1.363 . S
C1306 C1305 1.415 . S
C1307 H1283 0.951 . S
C1307 C1308 1.366 . S
C1307 C1309 1.388 . S
C1308 C1307 1.366 . S
C1308 C1312 1.385 . S
C1309 H1284 0.951 . S
C1309 C1307 1.388 . S
C1309 C1310 1.366 . S
C1310 C1309 1.366 . S
C1310 C1311 1.414 . S
C1310 C1313 1.499 . S
C1311 H1285 0.950 . S
C1311 C1310 1.414 . S
C1311 C1312 1.374 . S
C1312 H1286 0.950 . S
C1312 C1308 1.385 . S
C1312 C1311 1.374 . S
C1313 C1310 1.499 . S
C1313 C1314 1.373 . S
C1313 C1315 1.389 . S
C1314 H1287 0.950 . S
C1314 C1300 1.377 . S
C1314 C1313 1.373 . S
C1315 C1299 1.377 . S
C1315 C1313 1.389 . S
C1315 C1316 1.524 . S
C1316 C1315 1.524 . S
C1316 C1317 1.397 . S
C1316 C1321 1.363 . S
C1317 H1288 0.950 . S
C1317 C1316 1.397 . S
C1317 C1318 1.334 . S
C1318 H1289 0.950 . S
C1318 C1317 1.334 . S
C1318 C1319 1.287 . S
C1319 C1318 1.287 . S
C1319 C1320 1.524 . S
C1319 H1322 0.999 . S
C1320 H1290 0.950 . S
C1320 C1319 1.524 . S
C1320 C1321 1.415 . S
C1321 H1291 0.950 . S
C1321 C1316 1.363 . S
C1321 C1320 1.415 . S
H1322 C1319 0.999 . S
H1323 C1304 0.913 . S
H1324 C1342 0.951 . S
H1325 C1344 0.951 . S
H1326 C1346 0.950 . S
H1327 C1347 0.950 . S
H1328 C1349 0.950 . S
H1329 C1352 0.950 . S
H1330 C1353 0.950 . S
H1331 C1355 0.950 . S
H1332 C1356 0.950 . S
H1333 C1357 0.951 . S
H1334 C1359 0.951 . S
H1335 C1361 0.950 . S
H1336 C1362 0.950 . S
H1337 C1364 0.950 . S
H1338 C1367 0.950 . S
H1339 C1368 0.950 . S
H1340 C1370 0.950 . S
H1341 C1371 0.950 . S
C1342 H1324 0.951 . S
C1342 C1343 1.366 . S
C1342 C1344 1.388 . S
C1343 C1342 1.366 . S
C1343 C1347 1.385 . S
C1344 H1325 0.951 . S
C1344 C1342 1.388 . S
C1344 C1345 1.366 . S
C1345 C1344 1.366 . S
C1345 C1346 1.414 . S
C1345 C1348 1.499 . S
C1346 H1326 0.950 . S
C1346 C1345 1.414 . S
C1346 C1347 1.374 . S
C1347 H1327 0.950 . S
C1347 C1343 1.385 . S
C1347 C1346 1.374 . S
C1348 C1345 1.499 . S
C1348 C1349 1.373 . S
C1348 C1350 1.389 . S
C1349 H1328 0.950 . S
C1349 C1348 1.373 . S
C1349 C1365 1.377 . S
C1350 C1348 1.389 . S
C1350 C1351 1.524 . S
C1350 C1364 1.377 . S
C1351 C1350 1.524 . S
C1351 C1352 1.397 . S
C1351 C1356 1.363 . S
C1352 H1329 0.950 . S
C1352 C1351 1.397 . S
C1352 C1353 1.334 . S
C1353 H1330 0.950 . S
C1353 C1352 1.334 . S
C1353 C1354 1.287 . S
C1354 C1353 1.287 . S
C1354 C1355 1.524 . S
C1354 H1373 0.913 . S
C1355 H1331 0.950 . S
C1355 C1354 1.524 . S
C1355 C1356 1.415 . S
C1356 H1332 0.950 . S
C1356 C1351 1.363 . S
C1356 C1355 1.415 . S
C1357 H1333 0.951 . S
C1357 C1358 1.366 . S
C1357 C1359 1.388 . S
C1358 C1357 1.366 . S
C1358 C1362 1.385 . S
C1359 H1334 0.951 . S
C1359 C1357 1.388 . S
C1359 C1360 1.366 . S
C1360 C1359 1.366 . S
C1360 C1361 1.414 . S
C1360 C1363 1.499 . S
C1361 H1335 0.950 . S
C1361 C1360 1.414 . S
C1361 C1362 1.374 . S
C1362 H1336 0.950 . S
C1362 C1358 1.385 . S
C1362 C1361 1.374 . S
C1363 C1360 1.499 . S
C1363 C1364 1.373 . S
C1363 C1365 1.389 . S
C1364 H1337 0.950 . S
C1364 C1350 1.377 . S
C1364 C1363 1.373 . S
C1365 C1349 1.377 . S
C1365 C1363 1.389 . S
C1365 C1366 1.524 . S
C1366 C1365 1.524 . S
C1366 C1367 1.397 . S
C1366 C1371 1.363 . S
C1367 H1338 0.950 . S
C1367 C1366 1.397 . S
C1367 C1368 1.334 . S
C1368 H1339 0.950 . S
C1368 C1367 1.334 . S
C1368 C1369 1.287 . S
C1369 C1368 1.287 . S
C1369 C1370 1.524 . S
C1369 H1372 0.999 . S
C1370 H1340 0.950 . S
C1370 C1369 1.524 . S
C1370 C1371 1.415 . S
C1371 H1341 0.950 . S
C1371 C1366 1.363 . S
C1371 C1370 1.415 . S
H1372 C1369 0.999 . S
H1373 C1354 0.913 . S
H1374 C1392 0.951 . S
H1375 C1394 0.951 . S
H1376 C1396 0.950 . S
H1377 C1397 0.950 . S
H1378 C1399 0.950 . S
H1379 C1402 0.950 . S
H1380 C1403 0.950 . S
H1381 C1405 0.950 . S
H1382 C1406 0.950 . S
H1383 C1407 0.951 . S
H1384 C1409 0.951 . S
H1385 C1411 0.950 . S
H1386 C1412 0.950 . S
H1387 C1414 0.950 . S
H1388 C1417 0.950 . S
H1389 C1418 0.950 . S
H1390 C1420 0.950 . S
H1391 C1421 0.950 . S
C1392 H1374 0.951 . S
C1392 C1393 1.366 . S
C1392 C1394 1.388 . S
C1393 C1392 1.366 . S
C1393 C1397 1.385 . S
C1394 H1375 0.951 . S
C1394 C1392 1.388 . S
C1394 C1395 1.366 . S
C1395 C1394 1.366 . S
C1395 C1396 1.414 . S
C1395 C1398 1.499 . S
C1396 H1376 0.950 . S
C1396 C1395 1.414 . S
C1396 C1397 1.374 . S
C1397 H1377 0.950 . S
C1397 C1393 1.385 . S
C1397 C1396 1.374 . S
C1398 C1395 1.499 . S
C1398 C1399 1.373 . S
C1398 C1400 1.389 . S
C1399 H1378 0.950 . S
C1399 C1398 1.373 . S
C1399 C1415 1.377 . S
C1400 C1398 1.389 . S
C1400 C1401 1.524 . S
C1400 C1414 1.377 . S
C1401 C1400 1.524 . S
C1401 C1402 1.397 . S
C1401 C1406 1.363 . S
C1402 H1379 0.950 . S
C1402 C1401 1.397 . S
C1402 C1403 1.334 . S
C1403 H1380 0.950 . S
C1403 C1402 1.334 . S
C1403 C1404 1.287 . S
C1404 C1403 1.287 . S
C1404 C1405 1.524 . S
C1404 H1423 0.913 . S
C1405 H1381 0.950 . S
C1405 C1404 1.524 . S
C1405 C1406 1.415 . S
C1406 H1382 0.950 . S
C1406 C1401 1.363 . S
C1406 C1405 1.415 . S
C1407 H1383 0.951 . S
C1407 C1408 1.366 . S
C1407 C1409 1.388 . S
C1408 C1407 1.366 . S
C1408 C1412 1.385 . S
C1409 H1384 0.951 . S
C1409 C1407 1.388 . S
C1409 C1410 1.366 . S
C1410 C1409 1.366 . S
C1410 C1411 1.414 . S
C1410 C1413 1.499 . S
C1411 H1385 0.950 . S
C1411 C1410 1.414 . S
C1411 C1412 1.374 . S
C1412 H1386 0.950 . S
C1412 C1408 1.385 . S
C1412 C1411 1.374 . S
C1413 C1410 1.499 . S
C1413 C1414 1.373 . S
C1413 C1415 1.389 . S
C1414 H1387 0.950 . S
C1414 C1400 1.377 . S
C1414 C1413 1.373 . S
C1415 C1399 1.377 . S
C1415 C1413 1.389 . S
C1415 C1416 1.524 . S
C1416 C1415 1.524 . S
C1416 C1417 1.397 . S
C1416 C1421 1.363 . S
C1417 H1388 0.950 . S
C1417 C1416 1.397 . S
C1417 C1418 1.334 . S
C1418 H1389 0.950 . S
C1418 C1417 1.334 . S
C1418 C1419 1.287 . S
C1419 C1418 1.287 . S
C1419 C1420 1.524 . S
C1419 H1422 0.999 . S
C1420 H1390 0.950 . S
C1420 C1419 1.524 . S
C1420 C1421 1.415 . S
C1421 H1391 0.950 . S
C1421 C1416 1.363 . S
C1421 C1420 1.415 . S
H1422 C1419 0.999 . S
H1423 C1404 0.913 . S
H1424 C1442 0.951 . S
H1425 C1444 0.951 . S
H1426 C1446 0.950 . S
H1427 C1447 0.950 . S
H1428 C1449 0.950 . S
H1429 C1452 0.950 . S
H1430 C1453 0.950 . S
H1431 C1455 0.950 . S
H1432 C1456 0.950 . S
H1433 C1457 0.951 . S
H1434 C1459 0.951 . S
H1435 C1461 0.950 . S
H1436 C1462 0.950 . S
H1437 C1464 0.950 . S
H1438 C1467 0.950 . S
H1439 C1468 0.950 . S
H1440 C1470 0.950 . S
H1441 C1471 0.950 . S
C1442 H1424 0.951 . S
C1442 C1443 1.366 . S
C1442 C1444 1.388 . S
C1443 C1442 1.366 . S
C1443 C1447 1.385 . S
C1444 H1425 0.951 . S
C1444 C1442 1.388 . S
C1444 C1445 1.366 . S
C1445 C1444 1.366 . S
C1445 C1446 1.414 . S
C1445 C1448 1.499 . S
C1446 H1426 0.950 . S
C1446 C1445 1.414 . S
C1446 C1447 1.374 . S
C1447 H1427 0.950 . S
C1447 C1443 1.385 . S
C1447 C1446 1.374 . S
C1448 C1445 1.499 . S
C1448 C1449 1.373 . S
C1448 C1450 1.389 . S
C1449 H1428 0.950 . S
C1449 C1448 1.373 . S
C1449 C1465 1.377 . S
C1450 C1448 1.389 . S
C1450 C1451 1.524 . S
C1450 C1464 1.377 . S
C1451 C1450 1.524 . S
C1451 C1452 1.397 . S
C1451 C1456 1.363 . S
C1452 H1429 0.950 . S
C1452 C1451 1.397 . S
C1452 C1453 1.334 . S
C1453 H1430 0.950 . S
C1453 C1452 1.334 . S
C1453 C1454 1.287 . S
C1454 C1453 1.287 . S
C1454 C1455 1.524 . S
C1454 H1473 0.913 . S
C1455 H1431 0.950 . S
C1455 C1454 1.524 . S
C1455 C1456 1.415 . S
C1456 H1432 0.950 . S
C1456 C1451 1.363 . S
C1456 C1455 1.415 . S
C1457 H1433 0.951 . S
C1457 C1458 1.366 . S
C1457 C1459 1.388 . S
C1458 C1457 1.366 . S
C1458 C1462 1.385 . S
C1459 H1434 0.951 . S
C1459 C1457 1.388 . S
C1459 C1460 1.366 . S
C1460 C1459 1.366 . S
C1460 C1461 1.414 . S
C1460 C1463 1.499 . S
C1461 H1435 0.950 . S
C1461 C1460 1.414 . S
C1461 C1462 1.374 . S
C1462 H1436 0.950 . S
C1462 C1458 1.385 . S
C1462 C1461 1.374 . S
C1463 C1460 1.499 . S
C1463 C1464 1.373 . S
C1463 C1465 1.389 . S
C1464 H1437 0.950 . S
C1464 C1450 1.377 . S
C1464 C1463 1.373 . S
C1465 C1449 1.377 . S
C1465 C1463 1.389 . S
C1465 C1466 1.524 . S
C1466 C1465 1.524 . S
C1466 C1467 1.397 . S
C1466 C1471 1.363 . S
C1467 H1438 0.950 . S
C1467 C1466 1.397 . S
C1467 C1468 1.334 . S
C1468 H1439 0.950 . S
C1468 C1467 1.334 . S
C1468 C1469 1.287 . S
C1469 C1468 1.287 . S
C1469 C1470 1.524 . S
C1469 H1472 0.999 . S
C1470 H1440 0.950 . S
C1470 C1469 1.524 . S
C1470 C1471 1.415 . S
C1471 H1441 0.950 . S
C1471 C1466 1.363 . S
C1471 C1470 1.415 . S
H1472 C1469 0.999 . S
H1473 C1454 0.913 . S
H1474 C1492 0.951 . S
H1475 C1494 0.951 . S
H1476 C1496 0.950 . S
H1477 C1497 0.950 . S
H1478 C1499 0.950 . S
H1479 C1502 0.950 . S
H1480 C1503 0.950 . S
H1481 C1505 0.950 . S
H1482 C1506 0.950 . S
H1483 C1507 0.951 . S
H1484 C1509 0.951 . S
H1485 C1511 0.950 . S
H1486 C1512 0.950 . S
H1487 C1514 0.950 . S
H1488 C1517 0.950 . S
H1489 C1518 0.950 . S
H1490 C1520 0.950 . S
H1491 C1521 0.950 . S
C1492 H1474 0.951 . S
C1492 C1493 1.366 . S
C1492 C1494 1.388 . S
C1493 C1492 1.366 . S
C1493 C1497 1.385 . S
C1494 H1475 0.951 . S
C1494 C1492 1.388 . S
C1494 C1495 1.366 . S
C1495 C1494 1.366 . S
C1495 C1496 1.414 . S
C1495 C1498 1.499 . S
C1496 H1476 0.950 . S
C1496 C1495 1.414 . S
C1496 C1497 1.374 . S
C1497 H1477 0.950 . S
C1497 C1493 1.385 . S
C1497 C1496 1.374 . S
C1498 C1495 1.499 . S
C1498 C1499 1.373 . S
C1498 C1500 1.389 . S
C1499 H1478 0.950 . S
C1499 C1498 1.373 . S
C1499 C1515 1.377 . S
C1500 C1498 1.389 . S
C1500 C1501 1.524 . S
C1500 C1514 1.377 . S
C1501 C1500 1.524 . S
C1501 C1502 1.397 . S
C1501 C1506 1.363 . S
C1502 H1479 0.950 . S
C1502 C1501 1.397 . S
C1502 C1503 1.334 . S
C1503 H1480 0.950 . S
C1503 C1502 1.334 . S
C1503 C1504 1.287 . S
C1504 C1503 1.287 . S
C1504 C1505 1.524 . S
C1504 H1523 0.913 . S
C1505 H1481 0.950 . S
C1505 C1504 1.524 . S
C1505 C1506 1.415 . S
C1506 H1482 0.950 . S
C1506 C1501 1.363 . S
C1506 C1505 1.415 . S
C1507 H1483 0.951 . S
C1507 C1508 1.366 . S
C1507 C1509 1.388 . S
C1508 C1507 1.366 . S
C1508 C1512 1.385 . S
C1509 H1484 0.951 . S
C1509 C1507 1.388 . S
C1509 C1510 1.366 . S
C1510 C1509 1.366 . S
C1510 C1511 1.414 . S
C1510 C1513 1.499 . S
C1511 H1485 0.950 . S
C1511 C1510 1.414 . S
C1511 C1512 1.374 . S
C1512 H1486 0.950 . S
C1512 C1508 1.385 . S
C1512 C1511 1.374 . S
C1513 C1510 1.499 . S
C1513 C1514 1.373 . S
C1513 C1515 1.389 . S
C1514 H1487 0.950 . S
C1514 C1500 1.377 . S
C1514 C1513 1.373 . S
C1515 C1499 1.377 . S
C1515 C1513 1.389 . S
C1515 C1516 1.524 . S
C1516 C1515 1.524 . S
C1516 C1517 1.397 . S
C1516 C1521 1.363 . S
C1517 H1488 0.950 . S
C1517 C1516 1.397 . S
C1517 C1518 1.334 . S
C1518 H1489 0.950 . S
C1518 C1517 1.334 . S
C1518 C1519 1.287 . S
C1519 C1518 1.287 . S
C1519 C1520 1.524 . S
C1519 H1522 0.999 . S
C1520 H1490 0.950 . S
C1520 C1519 1.524 . S
C1520 C1521 1.415 . S
C1521 H1491 0.950 . S
C1521 C1516 1.363 . S
C1521 C1520 1.415 . S
H1522 C1519 0.999 . S
H1523 C1504 0.913 . S
H1524 C1542 0.951 . S
H1525 C1544 0.951 . S
H1526 C1546 0.950 . S
H1527 C1547 0.950 . S
H1528 C1549 0.950 . S
H1529 C1552 0.950 . S
H1530 C1553 0.950 . S
H1531 C1555 0.950 . S
H1532 C1556 0.950 . S
H1533 C1557 0.951 . S
H1534 C1559 0.951 . S
H1535 C1561 0.950 . S
H1536 C1562 0.950 . S
H1537 C1564 0.950 . S
H1538 C1567 0.950 . S
H1539 C1568 0.950 . S
H1540 C1570 0.950 . S
H1541 C1571 0.950 . S
C1542 H1524 0.951 . S
C1542 C1543 1.366 . S
C1542 C1544 1.388 . S
C1543 C1542 1.366 . S
C1543 C1547 1.385 . S
C1544 H1525 0.951 . S
C1544 C1542 1.388 . S
C1544 C1545 1.366 . S
C1545 C1544 1.366 . S
C1545 C1546 1.414 . S
C1545 C1548 1.499 . S
C1546 H1526 0.950 . S
C1546 C1545 1.414 . S
C1546 C1547 1.374 . S
C1547 H1527 0.950 . S
C1547 C1543 1.385 . S
C1547 C1546 1.374 . S
C1548 C1545 1.499 . S
C1548 C1549 1.373 . S
C1548 C1550 1.389 . S
C1549 H1528 0.950 . S
C1549 C1548 1.373 . S
C1549 C1565 1.377 . S
C1550 C1548 1.389 . S
C1550 C1551 1.524 . S
C1550 C1564 1.377 . S
C1551 C1550 1.524 . S
C1551 C1552 1.397 . S
C1551 C1556 1.363 . S
C1552 H1529 0.950 . S
C1552 C1551 1.397 . S
C1552 C1553 1.334 . S
C1553 H1530 0.950 . S
C1553 C1552 1.334 . S
C1553 C1554 1.287 . S
C1554 C1553 1.287 . S
C1554 C1555 1.524 . S
C1554 H1573 0.913 . S
C1555 H1531 0.950 . S
C1555 C1554 1.524 . S
C1555 C1556 1.415 . S
C1556 H1532 0.950 . S
C1556 C1551 1.363 . S
C1556 C1555 1.415 . S
C1557 H1533 0.951 . S
C1557 C1558 1.366 . S
C1557 C1559 1.388 . S
C1558 C1557 1.366 . S
C1558 C1562 1.385 . S
C1559 H1534 0.951 . S
C1559 C1557 1.388 . S
C1559 C1560 1.366 . S
C1560 C1559 1.366 . S
C1560 C1561 1.414 . S
C1560 C1563 1.499 . S
C1561 H1535 0.950 . S
C1561 C1560 1.414 . S
C1561 C1562 1.374 . S
C1562 H1536 0.950 . S
C1562 C1558 1.385 . S
C1562 C1561 1.374 . S
C1563 C1560 1.499 . S
C1563 C1564 1.373 . S
C1563 C1565 1.389 . S
C1564 H1537 0.950 . S
C1564 C1550 1.377 . S
C1564 C1563 1.373 . S
C1565 C1549 1.377 . S
C1565 C1563 1.389 . S
C1565 C1566 1.524 . S
C1566 C1565 1.524 . S
C1566 C1567 1.397 . S
C1566 C1571 1.363 . S
C1567 H1538 0.950 . S
C1567 C1566 1.397 . S
C1567 C1568 1.334 . S
C1568 H1539 0.950 . S
C1568 C1567 1.334 . S
C1568 C1569 1.287 . S
C1569 C1568 1.287 . S
C1569 C1570 1.524 . S
C1569 H1572 0.999 . S
C1570 H1540 0.950 . S
C1570 C1569 1.524 . S
C1570 C1571 1.415 . S
C1571 H1541 0.950 . S
C1571 C1566 1.363 . S
C1571 C1570 1.415 . S
H1572 C1569 0.999 . S
H1573 C1554 0.913 . S
H1574 C1592 0.951 . S
H1575 C1594 0.951 . S
H1576 C1596 0.950 . S
H1577 C1597 0.950 . S
H1578 C1599 0.950 . S
H1579 C1602 0.950 . S
H1580 C1603 0.950 . S
H1581 C1605 0.950 . S
H1582 C1606 0.950 . S
H1583 C1607 0.951 . S
H1584 C1609 0.951 . S
H1585 C1611 0.950 . S
H1586 C1612 0.950 . S
H1587 C1614 0.950 . S
H1588 C1617 0.950 . S
H1589 C1618 0.950 . S
H1590 C1620 0.950 . S
H1591 C1621 0.950 . S
C1592 H1574 0.951 . S
C1592 C1593 1.366 . S
C1592 C1594 1.388 . S
C1593 C1592 1.366 . S
C1593 C1597 1.385 . S
C1594 H1575 0.951 . S
C1594 C1592 1.388 . S
C1594 C1595 1.366 . S
C1595 C1594 1.366 . S
C1595 C1596 1.414 . S
C1595 C1598 1.499 . S
C1596 H1576 0.950 . S
C1596 C1595 1.414 . S
C1596 C1597 1.374 . S
C1597 H1577 0.950 . S
C1597 C1593 1.385 . S
C1597 C1596 1.374 . S
C1598 C1595 1.499 . S
C1598 C1599 1.373 . S
C1598 C1600 1.389 . S
C1599 H1578 0.950 . S
C1599 C1598 1.373 . S
C1599 C1615 1.377 . S
C1600 C1598 1.389 . S
C1600 C1601 1.524 . S
C1600 C1614 1.377 . S
C1601 C1600 1.524 . S
C1601 C1602 1.397 . S
C1601 C1606 1.363 . S
C1602 H1579 0.950 . S
C1602 C1601 1.397 . S
C1602 C1603 1.334 . S
C1603 H1580 0.950 . S
C1603 C1602 1.334 . S
C1603 C1604 1.287 . S
C1604 C1603 1.287 . S
C1604 C1605 1.524 . S
C1604 H1623 0.913 . S
C1605 H1581 0.950 . S
C1605 C1604 1.524 . S
C1605 C1606 1.415 . S
C1606 H1582 0.950 . S
C1606 C1601 1.363 . S
C1606 C1605 1.415 . S
C1607 H1583 0.951 . S
C1607 C1608 1.366 . S
C1607 C1609 1.388 . S
C1608 C1607 1.366 . S
C1608 C1612 1.385 . S
C1609 H1584 0.951 . S
C1609 C1607 1.388 . S
C1609 C1610 1.366 . S
C1610 C1609 1.366 . S
C1610 C1611 1.414 . S
C1610 C1613 1.499 . S
C1611 H1585 0.950 . S
C1611 C1610 1.414 . S
C1611 C1612 1.374 . S
C1612 H1586 0.950 . S
C1612 C1608 1.385 . S
C1612 C1611 1.374 . S
C1613 C1610 1.499 . S
C1613 C1614 1.373 . S
C1613 C1615 1.389 . S
C1614 H1587 0.950 . S
C1614 C1600 1.377 . S
C1614 C1613 1.373 . S
C1615 C1599 1.377 . S
C1615 C1613 1.389 . S
C1615 C1616 1.524 . S
C1616 C1615 1.524 . S
C1616 C1617 1.397 . S
C1616 C1621 1.363 . S
C1617 H1588 0.950 . S
C1617 C1616 1.397 . S
C1617 C1618 1.334 . S
C1618 H1589 0.950 . S
C1618 C1617 1.334 . S
C1618 C1619 1.287 . S
C1619 C1618 1.287 . S
C1619 C1620 1.524 . S
C1619 H1622 0.999 . S
C1620 H1590 0.950 . S
C1620 C1619 1.524 . S
C1620 C1621 1.415 . S
C1621 H1591 0.950 . S
C1621 C1616 1.363 . S
C1621 C1620 1.415 . S
H1622 C1619 0.999 . S
H1623 C1604 0.913 . S
H1624 C1642 0.951 . S
H1625 C1644 0.951 . S
H1626 C1646 0.950 . S
H1627 C1647 0.950 . S
H1628 C1649 0.950 . S
H1629 C1652 0.950 . S
H1630 C1653 0.950 . S
H1631 C1655 0.950 . S
H1632 C1656 0.950 . S
H1633 C1657 0.951 . S
H1634 C1659 0.951 . S
H1635 C1661 0.950 . S
H1636 C1662 0.950 . S
H1637 C1664 0.950 . S
H1638 C1667 0.950 . S
H1639 C1668 0.950 . S
H1640 C1670 0.950 . S
H1641 C1671 0.950 . S
C1642 H1624 0.951 . S
C1642 C1643 1.366 . S
C1642 C1644 1.388 . S
C1643 C1642 1.366 . S
C1643 C1647 1.385 . S
C1644 H1625 0.951 . S
C1644 C1642 1.388 . S
C1644 C1645 1.366 . S
C1645 C1644 1.366 . S
C1645 C1646 1.414 . S
C1645 C1648 1.499 . S
C1646 H1626 0.950 . S
C1646 C1645 1.414 . S
C1646 C1647 1.374 . S
C1647 H1627 0.950 . S
C1647 C1643 1.385 . S
C1647 C1646 1.374 . S
C1648 C1645 1.499 . S
C1648 C1649 1.373 . S
C1648 C1650 1.389 . S
C1649 H1628 0.950 . S
C1649 C1648 1.373 . S
C1649 C1665 1.377 . S
C1650 C1648 1.389 . S
C1650 C1651 1.524 . S
C1650 C1664 1.377 . S
C1651 C1650 1.524 . S
C1651 C1652 1.397 . S
C1651 C1656 1.363 . S
C1652 H1629 0.950 . S
C1652 C1651 1.397 . S
C1652 C1653 1.334 . S
C1653 H1630 0.950 . S
C1653 C1652 1.334 . S
C1653 C1654 1.287 . S
C1654 C1653 1.287 . S
C1654 C1655 1.524 . S
C1654 H1673 0.913 . S
C1655 H1631 0.950 . S
C1655 C1654 1.524 . S
C1655 C1656 1.415 . S
C1656 H1632 0.950 . S
C1656 C1651 1.363 . S
C1656 C1655 1.415 . S
C1657 H1633 0.951 . S
C1657 C1658 1.366 . S
C1657 C1659 1.388 . S
C1658 C1657 1.366 . S
C1658 C1662 1.385 . S
C1659 H1634 0.951 . S
C1659 C1657 1.388 . S
C1659 C1660 1.366 . S
C1660 C1659 1.366 . S
C1660 C1661 1.414 . S
C1660 C1663 1.499 . S
C1661 H1635 0.950 . S
C1661 C1660 1.414 . S
C1661 C1662 1.374 . S
C1662 H1636 0.950 . S
C1662 C1658 1.385 . S
C1662 C1661 1.374 . S
C1663 C1660 1.499 . S
C1663 C1664 1.373 . S
C1663 C1665 1.389 . S
C1664 H1637 0.950 . S
C1664 C1650 1.377 . S
C1664 C1663 1.373 . S
C1665 C1649 1.377 . S
C1665 C1663 1.389 . S
C1665 C1666 1.524 . S
C1666 C1665 1.524 . S
C1666 C1667 1.397 . S
C1666 C1671 1.363 . S
C1667 H1638 0.950 . S
C1667 C1666 1.397 . S
C1667 C1668 1.334 . S
C1668 H1639 0.950 . S
C1668 C1667 1.334 . S
C1668 C1669 1.287 . S
C1669 C1668 1.287 . S
C1669 C1670 1.524 . S
C1669 H1672 0.999 . S
C1670 H1640 0.950 . S
C1670 C1669 1.524 . S
C1670 C1671 1.415 . S
C1671 H1641 0.950 . S
C1671 C1666 1.363 . S
C1671 C1670 1.415 . S
H1672 C1669 0.999 . S
H1673 C1654 0.913 . S
H1674 C1692 0.951 . S
H1675 C1694 0.951 . S
H1676 C1696 0.950 . S
H1677 C1697 0.950 . S
H1678 C1699 0.950 . S
H1679 C1702 0.950 . S
H1680 C1703 0.950 . S
H1681 C1705 0.950 . S
H1682 C1706 0.950 . S
H1683 C1707 0.951 . S
H1684 C1709 0.951 . S
H1685 C1711 0.950 . S
H1686 C1712 0.950 . S
H1687 C1714 0.950 . S
H1688 C1717 0.950 . S
H1689 C1718 0.950 . S
H1690 C1720 0.950 . S
H1691 C1721 0.950 . S
C1692 H1674 0.951 . S
C1692 C1693 1.366 . S
C1692 C1694 1.388 . S
C1693 C1692 1.366 . S
C1693 C1697 1.385 . S
C1694 H1675 0.951 . S
C1694 C1692 1.388 . S
C1694 C1695 1.366 . S
C1695 C1694 1.366 . S
C1695 C1696 1.414 . S
C1695 C1698 1.499 . S
C1696 H1676 0.950 . S
C1696 C1695 1.414 . S
C1696 C1697 1.374 . S
C1697 H1677 0.950 . S
C1697 C1693 1.385 . S
C1697 C1696 1.374 . S
C1698 C1695 1.499 . S
C1698 C1699 1.373 . S
C1698 C1700 1.389 . S
C1699 H1678 0.950 . S
C1699 C1698 1.373 . S
C1699 C1715 1.377 . S
C1700 C1698 1.389 . S
C1700 C1701 1.524 . S
C1700 C1714 1.377 . S
C1701 C1700 1.524 . S
C1701 C1702 1.397 . S
C1701 C1706 1.363 . S
C1702 H1679 0.950 . S
C1702 C1701 1.397 . S
C1702 C1703 1.334 . S
C1703 H1680 0.950 . S
C1703 C1702 1.334 . S
C1703 C1704 1.287 . S
C1704 C1703 1.287 . S
C1704 C1705 1.524 . S
C1704 H1723 0.913 . S
C1705 H1681 0.950 . S
C1705 C1704 1.524 . S
C1705 C1706 1.415 . S
C1706 H1682 0.950 . S
C1706 C1701 1.363 . S
C1706 C1705 1.415 . S
C1707 H1683 0.951 . S
C1707 C1708 1.366 . S
C1707 C1709 1.388 . S
C1708 C1707 1.366 . S
C1708 C1712 1.385 . S
C1709 H1684 0.951 . S
C1709 C1707 1.388 . S
C1709 C1710 1.366 . S
C1710 C1709 1.366 . S
C1710 C1711 1.414 . S
C1710 C1713 1.499 . S
C1711 H1685 0.950 . S
C1711 C1710 1.414 . S
C1711 C1712 1.374 . S
C1712 H1686 0.950 . S
C1712 C1708 1.385 . S
C1712 C1711 1.374 . S
C1713 C1710 1.499 . S
C1713 C1714 1.373 . S
C1713 C1715 1.389 . S
C1714 H1687 0.950 . S
C1714 C1700 1.377 . S
C1714 C1713 1.373 . S
C1715 C1699 1.377 . S
C1715 C1713 1.389 . S
C1715 C1716 1.524 . S
C1716 C1715 1.524 . S
C1716 C1717 1.397 . S
C1716 C1721 1.363 . S
C1717 H1688 0.950 . S
C1717 C1716 1.397 . S
C1717 C1718 1.334 . S
C1718 H1689 0.950 . S
C1718 C1717 1.334 . S
C1718 C1719 1.287 . S
C1719 C1718 1.287 . S
C1719 C1720 1.524 . S
C1719 H1722 0.999 . S
C1720 H1690 0.950 . S
C1720 C1719 1.524 . S
C1720 C1721 1.415 . S
C1721 H1691 0.950 . S
C1721 C1716 1.363 . S
C1721 C1720 1.415 . S
H1722 C1719 0.999 . S
H1723 C1704 0.913 . S
H1724 C1742 0.951 . S
H1725 C1744 0.951 . S
H1726 C1746 0.950 . S
H1727 C1747 0.950 . S
H1728 C1749 0.950 . S
H1729 C1752 0.950 . S
H1730 C1753 0.950 . S
H1731 C1755 0.950 . S
H1732 C1756 0.950 . S
H1733 C1757 0.951 . S
H1734 C1759 0.951 . S
H1735 C1761 0.950 . S
H1736 C1762 0.950 . S
H1737 C1764 0.950 . S
H1738 C1767 0.950 . S
H1739 C1768 0.950 . S
H1740 C1770 0.950 . S
H1741 C1771 0.950 . S
C1742 H1724 0.951 . S
C1742 C1743 1.366 . S
C1742 C1744 1.388 . S
C1743 C1742 1.366 . S
C1743 C1747 1.385 . S
C1744 H1725 0.951 . S
C1744 C1742 1.388 . S
C1744 C1745 1.366 . S
C1745 C1744 1.366 . S
C1745 C1746 1.414 . S
C1745 C1748 1.499 . S
C1746 H1726 0.950 . S
C1746 C1745 1.414 . S
C1746 C1747 1.374 . S
C1747 H1727 0.950 . S
C1747 C1743 1.385 . S
C1747 C1746 1.374 . S
C1748 C1745 1.499 . S
C1748 C1749 1.373 . S
C1748 C1750 1.389 . S
C1749 H1728 0.950 . S
C1749 C1748 1.373 . S
C1749 C1765 1.377 . S
C1750 C1748 1.389 . S
C1750 C1751 1.524 . S
C1750 C1764 1.377 . S
C1751 C1750 1.524 . S
C1751 C1752 1.397 . S
C1751 C1756 1.363 . S
C1752 H1729 0.950 . S
C1752 C1751 1.397 . S
C1752 C1753 1.334 . S
C1753 H1730 0.950 . S
C1753 C1752 1.334 . S
C1753 C1754 1.287 . S
C1754 C1753 1.287 . S
C1754 C1755 1.524 . S
C1754 H1773 0.913 . S
C1755 H1731 0.950 . S
C1755 C1754 1.524 . S
C1755 C1756 1.415 . S
C1756 H1732 0.950 . S
C1756 C1751 1.363 . S
C1756 C1755 1.415 . S
C1757 H1733 0.951 . S
C1757 C1758 1.366 . S
C1757 C1759 1.388 . S
C1758 C1757 1.366 . S
C1758 C1762 1.385 . S
C1759 H1734 0.951 . S
C1759 C1757 1.388 . S
C1759 C1760 1.366 . S
C1760 C1759 1.366 . S
C1760 C1761 1.414 . S
C1760 C1763 1.499 . S
C1761 H1735 0.950 . S
C1761 C1760 1.414 . S
C1761 C1762 1.374 . S
C1762 H1736 0.950 . S
C1762 C1758 1.385 . S
C1762 C1761 1.374 . S
C1763 C1760 1.499 . S
C1763 C1764 1.373 . S
C1763 C1765 1.389 . S
C1764 H1737 0.950 . S
C1764 C1750 1.377 . S
C1764 C1763 1.373 . S
C1765 C1749 1.377 . S
C1765 C1763 1.389 . S
C1765 C1766 1.524 . S
C1766 C1765 1.524 . S
C1766 C1767 1.397 . S
C1766 C1771 1.363 . S
C1767 H1738 0.950 . S
C1767 C1766 1.397 . S
C1767 C1768 1.334 . S
C1768 H1739 0.950 . S
C1768 C1767 1.334 . S
C1768 C1769 1.287 . S
C1769 C1768 1.287 . S
C1769 C1770 1.524 . S
C1769 H1772 0.999 . S
C1770 H1740 0.950 . S
C1770 C1769 1.524 . S
C1770 C1771 1.415 . S
C1771 H1741 0.950 . S
C1771 C1766 1.363 . S
C1771 C1770 1.415 . S
H1772 C1769 0.999 . S
H1773 C1754 0.913 . S
H1774 C1792 0.951 . S
H1775 C1794 0.951 . S
H1776 C1796 0.950 . S
H1777 C1797 0.950 . S
H1778 C1799 0.950 . S
H1779 C1802 0.950 . S
H1780 C1803 0.950 . S
H1781 C1805 0.950 . S
H1782 C1806 0.950 . S
H1783 C1807 0.951 . S
H1784 C1809 0.951 . S
H1785 C1811 0.950 . S
H1786 C1812 0.950 . S
H1787 C1814 0.950 . S
H1788 C1817 0.950 . S
H1789 C1818 0.950 . S
H1790 C1820 0.950 . S
H1791 C1821 0.950 . S
C1792 H1774 0.951 . S
C1792 C1793 1.366 . S
C1792 C1794 1.388 . S
C1793 C1792 1.366 . S
C1793 C1797 1.385 . S
C1794 H1775 0.951 . S
C1794 C1792 1.388 . S
C1794 C1795 1.366 . S
C1795 C1794 1.366 . S
C1795 C1796 1.414 . S
C1795 C1798 1.499 . S
C1796 H1776 0.950 . S
C1796 C1795 1.414 . S
C1796 C1797 1.374 . S
C1797 H1777 0.950 . S
C1797 C1793 1.385 . S
C1797 C1796 1.374 . S
C1798 C1795 1.499 . S
C1798 C1799 1.373 . S
C1798 C1800 1.389 . S
C1799 H1778 0.950 . S
C1799 C1798 1.373 . S
C1799 C1815 1.377 . S
C1800 C1798 1.389 . S
C1800 C1801 1.524 . S
C1800 C1814 1.377 . S
C1801 C1800 1.524 . S
C1801 C1802 1.397 . S
C1801 C1806 1.363 . S
C1802 H1779 0.950 . S
C1802 C1801 1.397 . S
C1802 C1803 1.334 . S
C1803 H1780 0.950 . S
C1803 C1802 1.334 . S
C1803 C1804 1.287 . S
C1804 C1803 1.287 . S
C1804 C1805 1.524 . S
C1804 H1823 0.913 . S
C1805 H1781 0.950 . S
C1805 C1804 1.524 . S
C1805 C1806 1.415 . S
C1806 H1782 0.950 . S
C1806 C1801 1.363 . S
C1806 C1805 1.415 . S
C1807 H1783 0.951 . S
C1807 C1808 1.366 . S
C1807 C1809 1.388 . S
C1808 C1807 1.366 . S
C1808 C1812 1.385 . S
C1809 H1784 0.951 . S
C1809 C1807 1.388 . S
C1809 C1810 1.366 . S
C1810 C1809 1.366 . S
C1810 C1811 1.414 . S
C1810 C1813 1.499 . S
C1811 H1785 0.950 . S
C1811 C1810 1.414 . S
C1811 C1812 1.374 . S
C1812 H1786 0.950 . S
C1812 C1808 1.385 . S
C1812 C1811 1.374 . S
C1813 C1810 1.499 . S
C1813 C1814 1.373 . S
C1813 C1815 1.389 . S
C1814 H1787 0.950 . S
C1814 C1800 1.377 . S
C1814 C1813 1.373 . S
C1815 C1799 1.377 . S
C1815 C1813 1.389 . S
C1815 C1816 1.524 . S
C1816 C1815 1.524 . S
C1816 C1817 1.397 . S
C1816 C1821 1.363 . S
C1817 H1788 0.950 . S
C1817 C1816 1.397 . S
C1817 C1818 1.334 . S
C1818 H1789 0.950 . S
C1818 C1817 1.334 . S
C1818 C1819 1.287 . S
C1819 C1818 1.287 . S
C1819 C1820 1.524 . S
C1819 H1822 0.999 . S
C1820 H1790 0.950 . S
C1820 C1819 1.524 . S
C1820 C1821 1.415 . S
C1821 H1791 0.950 . S
C1821 C1816 1.363 . S
C1821 C1820 1.415 . S
H1822 C1819 0.999 . S
H1823 C1804 0.913 . S
C243 C221 0.876 . S
C258 C11 0.875 . S
C293 C179 0.875 . S
C308 C25 0.875 . S
C343 C39 0.875 . S
C358 C193 0.875 . S
C393 C207 0.875 . S
C408 C53 0.875 . S
C443 C137 0.875 . S
C458 C67 0.875 . S
C493 C81 0.875 . S
C508 C151 0.875 . S
C543 C95 0.875 . S
C558 C165 0.876 . S
C593 C109 0.875 . S
C608 C123 0.876 . S
C643 C79 1.395 . S
C658 C5 1.417 . S
C693 C89 1.417 . S
C708 C23 1.395 . S
C743 C107 1.395 . S
C758 C33 1.417 . S
C793 C51 1.395 . S
C808 C61 1.417 . S
C843 C0 1.507 . S
C858 C14 1.508 . S
C893 C37 1.395 . S
C908 C19 1.417 . S
C943 C28 1.507 . S
C958 C42 1.508 . S
C993 C9 1.395 . S
C1008 C47 1.417 . S
C1043 C98 1.508 . S
C1058 C56 1.508 . S
C1093 C65 1.395 . S
C1108 C75 1.417 . S
C1143 C70 1.508 . S
C1158 C84 1.508 . S
C1193 C103 1.417 . S
C1208 C93 1.395 . S
C1243 C191 1.395 . S
C1258 C117 1.417 . S
C1293 C135 1.395 . S
C1308 C201 1.417 . S
C1343 C219 1.395 . S
C1358 C145 1.417 . S
C1393 C173 1.417 . S
C1408 C163 1.395 . S
C1443 C112 1.507 . S
C1458 C126 1.508 . S
C1493 C131 1.417 . S
C1508 C149 1.395 . S
C1543 C154 1.508 . S
C1558 C140 1.507 . S
C1593 C121 1.395 . S
C1608 C159 1.417 . S
C1643 C210 1.508 . S
C1658 C168 1.508 . S
C1693 C177 1.395 . S
C1708 C187 1.417 . S
C1743 C182 1.507 . S
C1758 C196 1.508 . S
C1793 C215 1.417 . S
C1808 C205 1.395 . S
