# Generated by pormake.
# Topology wnd, (6)-cn, num edge types: 1
# Building blocks:
#     Node 0, Type 0, BuildingBlock: KUMBUR_clean_sbu_0, # of connection points: 6
#     Node 1, Type 0, BuildingBlock: KUMBUR_clean_sbu_0, # of connection points: 6
#     Node 2, Type 0, BuildingBlock: KUMBUR_clean_sbu_0, # of connection points: 6
#     Node 3, Type 0, BuildingBlock: KUMBUR_clean_sbu_0, # of connection points: 6
#     Node 4, Type 0, BuildingBlock: KUMBUR_clean_sbu_0, # of connection points: 6
#     Node 5, Type 0, BuildingBlock: KUMBUR_clean_sbu_0, # of connection points: 6
#     Node 6, Type 0, BuildingBlock: KUMBUR_clean_sbu_0, # of connection points: 6
#     Node 7, Type 0, BuildingBlock: KUMBUR_clean_sbu_0, # of connection points: 6
#     Node 8, Type 0, BuildingBlock: KUMBUR_clean_sbu_0, # of connection points: 6
#     Node 9, Type 0, BuildingBlock: KUMBUR_clean_sbu_0, # of connection points: 6
#     Node 10, Type 0, BuildingBlock: KUMBUR_clean_sbu_0, # of connection points: 6
#     Node 11, Type 0, BuildingBlock: KUMBUR_clean_sbu_0, # of connection points: 6
#     Node 12, Type 0, BuildingBlock: KUMBUR_clean_sbu_0, # of connection points: 6
#     Node 13, Type 0, BuildingBlock: KUMBUR_clean_sbu_0, # of connection points: 6
#     Node 14, Type 0, BuildingBlock: KUMBUR_clean_sbu_0, # of connection points: 6
#     Node 15, Type 0, BuildingBlock: KUMBUR_clean_sbu_0, # of connection points: 6
#     Node 16, Type 0, BuildingBlock: KUMBUR_clean_sbu_0, # of connection points: 6
#     Node 17, Type 0, BuildingBlock: KUMBUR_clean_sbu_0, # of connection points: 6
#     Node 18, Type 0, BuildingBlock: KUMBUR_clean_sbu_0, # of connection points: 6
#     Node 19, Type 0, BuildingBlock: KUMBUR_clean_sbu_0, # of connection points: 6
#     Node 20, Type 0, BuildingBlock: KUMBUR_clean_sbu_0, # of connection points: 6
#     Node 21, Type 0, BuildingBlock: KUMBUR_clean_sbu_0, # of connection points: 6
#     Node 22, Type 0, BuildingBlock: KUMBUR_clean_sbu_0, # of connection points: 6
#     Node 23, Type 0, BuildingBlock: KUMBUR_clean_sbu_0, # of connection points: 6
#     Node 24, Type 0, BuildingBlock: KUMBUR_clean_sbu_0, # of connection points: 6
#     Node 25, Type 0, BuildingBlock: KUMBUR_clean_sbu_0, # of connection points: 6
#     Node 26, Type 0, BuildingBlock: KUMBUR_clean_sbu_0, # of connection points: 6
#     Node 27, Type 0, BuildingBlock: KUMBUR_clean_sbu_0, # of connection points: 6
#     Node 28, Type 0, BuildingBlock: KUMBUR_clean_sbu_0, # of connection points: 6
#     Node 29, Type 0, BuildingBlock: KUMBUR_clean_sbu_0, # of connection points: 6
#     Node 30, Type 0, BuildingBlock: KUMBUR_clean_sbu_0, # of connection points: 6
#     Node 31, Type 0, BuildingBlock: KUMBUR_clean_sbu_0, # of connection points: 6
#     Node 32, Type 0, BuildingBlock: KUMBUR_clean_sbu_0, # of connection points: 6
#     Node 33, Type 0, BuildingBlock: KUMBUR_clean_sbu_0, # of connection points: 6
#     Node 34, Type 0, BuildingBlock: KUMBUR_clean_sbu_0, # of connection points: 6
#     Node 35, Type 0, BuildingBlock: KUMBUR_clean_sbu_0, # of connection points: 6
#     Edge 36, Type (0, 0), BuildingBlock: CIFDUS_clean_linker_0, # of connection points: 2
#     Edge 37, Type (0, 0), BuildingBlock: CIFDUS_clean_linker_0, # of connection points: 2
#     Edge 38, Type (0, 0), BuildingBlock: CIFDUS_clean_linker_0, # of connection points: 2
#     Edge 39, Type (0, 0), BuildingBlock: CIFDUS_clean_linker_0, # of connection points: 2
#     Edge 40, Type (0, 0), BuildingBlock: CIFDUS_clean_linker_0, # of connection points: 2
#     Edge 41, Type (0, 0), BuildingBlock: CIFDUS_clean_linker_0, # of connection points: 2
#     Edge 42, Type (0, 0), BuildingBlock: CIFDUS_clean_linker_0, # of connection points: 2
#     Edge 43, Type (0, 0), BuildingBlock: CIFDUS_clean_linker_0, # of connection points: 2
#     Edge 44, Type (0, 0), BuildingBlock: CIFDUS_clean_linker_0, # of connection points: 2
#     Edge 45, Type (0, 0), BuildingBlock: CIFDUS_clean_linker_0, # of connection points: 2
#     Edge 46, Type (0, 0), BuildingBlock: CIFDUS_clean_linker_0, # of connection points: 2
#     Edge 47, Type (0, 0), BuildingBlock: CIFDUS_clean_linker_0, # of connection points: 2
#     Edge 48, Type (0, 0), BuildingBlock: CIFDUS_clean_linker_0, # of connection points: 2
#     Edge 49, Type (0, 0), BuildingBlock: CIFDUS_clean_linker_0, # of connection points: 2
#     Edge 50, Type (0, 0), BuildingBlock: CIFDUS_clean_linker_0, # of connection points: 2
#     Edge 51, Type (0, 0), BuildingBlock: CIFDUS_clean_linker_0, # of connection points: 2
#     Edge 52, Type (0, 0), BuildingBlock: CIFDUS_clean_linker_0, # of connection points: 2
#     Edge 53, Type (0, 0), BuildingBlock: CIFDUS_clean_linker_0, # of connection points: 2
#     Edge 54, Type (0, 0), BuildingBlock: CIFDUS_clean_linker_0, # of connection points: 2
#     Edge 55, Type (0, 0), BuildingBlock: CIFDUS_clean_linker_0, # of connection points: 2
#     Edge 56, Type (0, 0), BuildingBlock: CIFDUS_clean_linker_0, # of connection points: 2
#     Edge 57, Type (0, 0), BuildingBlock: CIFDUS_clean_linker_0, # of connection points: 2
#     Edge 58, Type (0, 0), BuildingBlock: CIFDUS_clean_linker_0, # of connection points: 2
#     Edge 59, Type (0, 0), BuildingBlock: CIFDUS_clean_linker_0, # of connection points: 2
#     Edge 60, Type (0, 0), BuildingBlock: CIFDUS_clean_linker_0, # of connection points: 2
#     Edge 61, Type (0, 0), BuildingBlock: CIFDUS_clean_linker_0, # of connection points: 2
#     Edge 62, Type (0, 0), BuildingBlock: CIFDUS_clean_linker_0, # of connection points: 2
#     Edge 63, Type (0, 0), BuildingBlock: CIFDUS_clean_linker_0, # of connection points: 2
#     Edge 64, Type (0, 0), BuildingBlock: CIFDUS_clean_linker_0, # of connection points: 2
#     Edge 65, Type (0, 0), BuildingBlock: CIFDUS_clean_linker_0, # of connection points: 2
#     Edge 66, Type (0, 0), BuildingBlock: CIFDUS_clean_linker_0, # of connection points: 2
#     Edge 67, Type (0, 0), BuildingBlock: CIFDUS_clean_linker_0, # of connection points: 2
#     Edge 68, Type (0, 0), BuildingBlock: CIFDUS_clean_linker_0, # of connection points: 2
#     Edge 69, Type (0, 0), BuildingBlock: CIFDUS_clean_linker_0, # of connection points: 2
#     Edge 70, Type (0, 0), BuildingBlock: CIFDUS_clean_linker_0, # of connection points: 2
#     Edge 71, Type (0, 0), BuildingBlock: CIFDUS_clean_linker_0, # of connection points: 2
#     Edge 72, Type (0, 0), BuildingBlock: CIFDUS_clean_linker_0, # of connection points: 2
#     Edge 73, Type (0, 0), BuildingBlock: CIFDUS_clean_linker_0, # of connection points: 2
#     Edge 74, Type (0, 0), BuildingBlock: CIFDUS_clean_linker_0, # of connection points: 2
#     Edge 75, Type (0, 0), BuildingBlock: CIFDUS_clean_linker_0, # of connection points: 2
#     Edge 76, Type (0, 0), BuildingBlock: CIFDUS_clean_linker_0, # of connection points: 2
#     Edge 77, Type (0, 0), BuildingBlock: CIFDUS_clean_linker_0, # of connection points: 2
#     Edge 78, Type (0, 0), BuildingBlock: CIFDUS_clean_linker_0, # of connection points: 2
#     Edge 79, Type (0, 0), BuildingBlock: CIFDUS_clean_linker_0, # of connection points: 2
#     Edge 80, Type (0, 0), BuildingBlock: CIFDUS_clean_linker_0, # of connection points: 2
#     Edge 81, Type (0, 0), BuildingBlock: CIFDUS_clean_linker_0, # of connection points: 2
#     Edge 82, Type (0, 0), BuildingBlock: CIFDUS_clean_linker_0, # of connection points: 2
#     Edge 83, Type (0, 0), BuildingBlock: CIFDUS_clean_linker_0, # of connection points: 2
#     Edge 84, Type (0, 0), BuildingBlock: CIFDUS_clean_linker_0, # of connection points: 2
#     Edge 85, Type (0, 0), BuildingBlock: CIFDUS_clean_linker_0, # of connection points: 2
#     Edge 86, Type (0, 0), BuildingBlock: CIFDUS_clean_linker_0, # of connection points: 2
#     Edge 87, Type (0, 0), BuildingBlock: CIFDUS_clean_linker_0, # of connection points: 2
#     Edge 88, Type (0, 0), BuildingBlock: CIFDUS_clean_linker_0, # of connection points: 2
#     Edge 89, Type (0, 0), BuildingBlock: CIFDUS_clean_linker_0, # of connection points: 2
#     Edge 90, Type (0, 0), BuildingBlock: CIFDUS_clean_linker_0, # of connection points: 2
#     Edge 91, Type (0, 0), BuildingBlock: CIFDUS_clean_linker_0, # of connection points: 2
#     Edge 92, Type (0, 0), BuildingBlock: CIFDUS_clean_linker_0, # of connection points: 2
#     Edge 93, Type (0, 0), BuildingBlock: CIFDUS_clean_linker_0, # of connection points: 2
#     Edge 94, Type (0, 0), BuildingBlock: CIFDUS_clean_linker_0, # of connection points: 2
#     Edge 95, Type (0, 0), BuildingBlock: CIFDUS_clean_linker_0, # of connection points: 2
#     Edge 96, Type (0, 0), BuildingBlock: CIFDUS_clean_linker_0, # of connection points: 2
#     Edge 97, Type (0, 0), BuildingBlock: CIFDUS_clean_linker_0, # of connection points: 2
#     Edge 98, Type (0, 0), BuildingBlock: CIFDUS_clean_linker_0, # of connection points: 2
#     Edge 99, Type (0, 0), BuildingBlock: CIFDUS_clean_linker_0, # of connection points: 2
#     Edge 100, Type (0, 0), BuildingBlock: CIFDUS_clean_linker_0, # of connection points: 2
#     Edge 101, Type (0, 0), BuildingBlock: CIFDUS_clean_linker_0, # of connection points: 2
#     Edge 102, Type (0, 0), BuildingBlock: CIFDUS_clean_linker_0, # of connection points: 2
#     Edge 103, Type (0, 0), BuildingBlock: CIFDUS_clean_linker_0, # of connection points: 2
#     Edge 104, Type (0, 0), BuildingBlock: CIFDUS_clean_linker_0, # of connection points: 2
#     Edge 105, Type (0, 0), BuildingBlock: CIFDUS_clean_linker_0, # of connection points: 2
#     Edge 106, Type (0, 0), BuildingBlock: CIFDUS_clean_linker_0, # of connection points: 2
#     Edge 107, Type (0, 0), BuildingBlock: CIFDUS_clean_linker_0, # of connection points: 2
#     Edge 108, Type (0, 0), BuildingBlock: CIFDUS_clean_linker_0, # of connection points: 2
#     Edge 109, Type (0, 0), BuildingBlock: CIFDUS_clean_linker_0, # of connection points: 2
#     Edge 110, Type (0, 0), BuildingBlock: CIFDUS_clean_linker_0, # of connection points: 2
#     Edge 111, Type (0, 0), BuildingBlock: CIFDUS_clean_linker_0, # of connection points: 2
#     Edge 112, Type (0, 0), BuildingBlock: CIFDUS_clean_linker_0, # of connection points: 2
#     Edge 113, Type (0, 0), BuildingBlock: CIFDUS_clean_linker_0, # of connection points: 2
#     Edge 114, Type (0, 0), BuildingBlock: CIFDUS_clean_linker_0, # of connection points: 2
#     Edge 115, Type (0, 0), BuildingBlock: CIFDUS_clean_linker_0, # of connection points: 2
#     Edge 116, Type (0, 0), BuildingBlock: CIFDUS_clean_linker_0, # of connection points: 2
#     Edge 117, Type (0, 0), BuildingBlock: CIFDUS_clean_linker_0, # of connection points: 2
#     Edge 118, Type (0, 0), BuildingBlock: CIFDUS_clean_linker_0, # of connection points: 2
#     Edge 119, Type (0, 0), BuildingBlock: CIFDUS_clean_linker_0, # of connection points: 2
#     Edge 120, Type (0, 0), BuildingBlock: CIFDUS_clean_linker_0, # of connection points: 2
#     Edge 121, Type (0, 0), BuildingBlock: CIFDUS_clean_linker_0, # of connection points: 2
#     Edge 122, Type (0, 0), BuildingBlock: CIFDUS_clean_linker_0, # of connection points: 2
#     Edge 123, Type (0, 0), BuildingBlock: CIFDUS_clean_linker_0, # of connection points: 2
#     Edge 124, Type (0, 0), BuildingBlock: CIFDUS_clean_linker_0, # of connection points: 2
#     Edge 125, Type (0, 0), BuildingBlock: CIFDUS_clean_linker_0, # of connection points: 2
#     Edge 126, Type (0, 0), BuildingBlock: CIFDUS_clean_linker_0, # of connection points: 2
#     Edge 127, Type (0, 0), BuildingBlock: CIFDUS_clean_linker_0, # of connection points: 2
#     Edge 128, Type (0, 0), BuildingBlock: CIFDUS_clean_linker_0, # of connection points: 2
#     Edge 129, Type (0, 0), BuildingBlock: CIFDUS_clean_linker_0, # of connection points: 2
#     Edge 130, Type (0, 0), BuildingBlock: CIFDUS_clean_linker_0, # of connection points: 2
#     Edge 131, Type (0, 0), BuildingBlock: CIFDUS_clean_linker_0, # of connection points: 2
#     Edge 132, Type (0, 0), BuildingBlock: CIFDUS_clean_linker_0, # of connection points: 2
#     Edge 133, Type (0, 0), BuildingBlock: CIFDUS_clean_linker_0, # of connection points: 2
#     Edge 134, Type (0, 0), BuildingBlock: CIFDUS_clean_linker_0, # of connection points: 2
#     Edge 135, Type (0, 0), BuildingBlock: CIFDUS_clean_linker_0, # of connection points: 2
#     Edge 136, Type (0, 0), BuildingBlock: CIFDUS_clean_linker_0, # of connection points: 2
#     Edge 137, Type (0, 0), BuildingBlock: CIFDUS_clean_linker_0, # of connection points: 2
#     Edge 138, Type (0, 0), BuildingBlock: CIFDUS_clean_linker_0, # of connection points: 2
#     Edge 139, Type (0, 0), BuildingBlock: CIFDUS_clean_linker_0, # of connection points: 2
#     Edge 140, Type (0, 0), BuildingBlock: CIFDUS_clean_linker_0, # of connection points: 2
#     Edge 141, Type (0, 0), BuildingBlock: CIFDUS_clean_linker_0, # of connection points: 2
#     Edge 142, Type (0, 0), BuildingBlock: CIFDUS_clean_linker_0, # of connection points: 2
#     Edge 143, Type (0, 0), BuildingBlock: CIFDUS_clean_linker_0, # of connection points: 2
# Relax obj value: 0.079
# Max RMSD: 0.197
# Mean RMSD: 0.197
data_MOF--net-wnd--node1-KUMBUR_clean_sbu_0--edge1-CIFDUS_clean_linker_0
_symmetry_space_group_name_H-M    P1
_symmetry_Int_Tables_number       1
_symmetry_cell_setting            triclinic
loop_
_symmetry_equiv_pos_as_xyz
'x, y, z'
_cell_length_a     34.957432
_cell_length_b     34.944477
_cell_length_c     143.84172
_cell_angle_alpha  90.092548
_cell_angle_beta   89.941383
_cell_angle_gamma 119.96143
loop_
_atom_site_label
_atom_site_type_symbol
_atom_site_fract_x
_atom_site_fract_y
_atom_site_fract_z
_atom_type_partial_charge
Tb0 Tb 0.49141 0.08366 0.04276 0.0
C1 C 0.62519 0.06728 0.06691 0.0
C2 C 0.69626 0.10573 0.05925 0.0
C3 C 0.69259 0.10038 0.0761 0.0
C4 C 0.64968 0.08268 0.05886 0.0
C5 C 0.64634 0.0751 0.07562 0.0
C6 C 0.71753 0.11555 0.06793 0.0
C7 C 0.57501 0.02798 0.08259 0.0
N8 N 0.58066 0.0423 0.06615 0.0
C9 C 0.55564 0.02066 0.07378 0.0
C10 C 0.62049 0.05587 0.08353 0.0
Tb11 Tb 0.55224 0.03197 0.05138 0.0
N12 N 0.62793 0.07274 0.05061 0.0
C13 C 0.65118 0.08188 0.04245 0.0
C14 C 0.72005 0.11686 0.05092 0.0
C15 C 0.69736 0.10421 0.04249 0.0
H16 H 0.52044 0.999 0.07313 0.0
H17 H 0.71542 0.112 0.036 0.0
H18 H 0.75325 0.13377 0.06837 0.0
H19 H 0.55486 1.01197 0.08863 0.0
H20 H 0.6343 0.07248 0.03585 0.0
H21 H 0.32795 0.97571 0.05692 0.0
H22 H 0.75583 0.13443 0.05092 0.0
H23 H 0.51889 0.14096 0.02322 0.0
H24 H 0.40767 0.02493 0.05765 0.0
H25 H 0.48536 0.13828 0.00802 0.0
H26 H 0.70943 0.10714 0.08273 0.0
H27 H 0.28861 0.96121 0.04192 0.0
H28 H 0.29157 0.97814 0.02485 0.0
H29 H 0.63548 0.06117 0.09035 0.0
H30 H 0.33469 0.02233 0.01142 0.0
N31 N 0.41561 0.03825 0.04304 0.0
C32 C 0.39189 0.01951 0.05098 0.0
C33 C 0.32405 0.98304 0.04216 0.0
C34 C 0.34783 1.00437 0.03416 0.0
C35 C 0.34613 0.99125 0.05063 0.0
C36 C 0.39396 0.03236 0.03488 0.0
H37 H 0.40709 0.08271 0.00508 0.0
N38 N 0.46136 0.08535 0.02869 0.0
C39 C 0.46601 0.1148 0.01337 0.0
C40 C 0.41786 0.0568 0.0274 0.0
C41 C 0.48499 0.11601 0.02201 0.0
C42 C 0.42189 0.08336 0.01174 0.0
C43 C 0.39687 0.05455 0.01888 0.0
O44 O 0.52026 0.15344 0.04199 0.0
O45 O 0.55437 0.09197 0.04731 0.0
O46 O 0.54961 0.07665 0.06233 0.0
O47 O 0.48376 0.07003 0.05762 0.0
O48 O 0.5557 0.13122 0.03668 0.0
O49 O 0.46576 0.11561 0.05098 0.0
O50 O 0.57993 0.99856 0.04434 0.0
O51 O 0.48887 0.02026 0.04586 0.0
O52 O 0.50051 0.05323 0.03044 0.0
O53 O 0.55381 0.03571 0.03576 0.0
O54 O 0.48875 0.9846 0.05716 0.0
O55 O 0.5351 0.96706 0.0556 0.0
C56 C 0.58017 0.12255 0.04189 0.0
C57 C 0.47623 0.18566 0.04593 0.0
C58 C 0.48922 0.26144 0.04407 0.0
C59 C 0.50559 0.232 0.04534 0.0
C60 C 0.44343 0.24402 0.04341 0.0
C61 C 0.43063 0.16949 0.04516 0.0
C62 C 0.41449 0.19851 0.04394 0.0
C63 C 0.51492 0.082 0.06391 0.0
C64 C 0.49326 0.155 0.04793 0.0
C65 C 0.3514 0.02496 0.01793 0.0
C66 C 0.32687 0.99985 0.02557 0.0
C67 C 0.46342 0.98871 0.05129 0.0
C68 C 0.54479 0.92008 0.04477 0.0
C69 C 0.56296 0.89275 0.04701 0.0
C70 C 0.54974 0.85236 0.04218 0.0
C71 C 0.51792 0.84039 0.0351 0.0
C72 C 0.51314 0.90667 0.03771 0.0
C73 C 0.49992 0.86719 0.03292 0.0
C74 C 0.53087 0.04172 0.029 0.0
C75 C 0.56073 0.96342 0.04951 0.0
H76 H 0.54089 0.24503 0.04586 0.0
H77 H 0.43005 0.26575 0.04234 0.0
H78 H 0.40732 0.13439 0.04559 0.0
H79 H 0.37927 0.18564 0.04338 0.0
H80 H 0.58776 0.90331 0.05241 0.0
H81 H 0.50595 0.80961 0.03136 0.0
H82 H 0.49887 0.92694 0.03586 0.0
H83 H 0.47535 0.85713 0.02749 0.0
Tb84 Tb 1.0159 0.44917 0.04321 0.0
C85 C 0.02528 0.60187 0.05649 0.0
C86 C 0.02733 0.65126 0.04446 0.0
C87 C 0.98186 0.63864 0.05811 0.0
C88 C 0.03978 0.62114 0.0479 0.0
C89 C 0.99681 0.61128 0.06179 0.0
C90 C 0.99721 0.65873 0.04947 0.0
C91 C 1.00385 0.57033 0.07441 0.0
N92 N 0.04091 0.57594 0.05986 0.0
C93 C 0.03282 0.56297 0.069 0.0
C94 C 0.9849 0.59371 0.07071 0.0
Tb95 Tb 0.08592 0.56312 0.04986 0.0
N96 N 0.06904 0.61334 0.04327 0.0
C97 C 0.09222 0.64035 0.03596 0.0
C98 C 0.04694 0.67443 0.03631 0.0
C99 C 0.08043 0.66981 0.03218 0.0
H100 H 0.04962 0.54862 0.07253 0.0
H101 H 0.09779 0.68953 0.02618 0.0
H102 H 0.98653 0.68092 0.04683 0.0
H103 H 0.99709 0.55891 0.08153 0.0
H104 H 0.11993 0.63919 0.03293 0.0
H105 H 0.09764 0.37773 0.06274 0.0
H106 H 0.03818 0.69768 0.03344 0.0
H107 H 0.97632 0.41887 0.02135 0.0
H108 H 0.0468 0.40593 0.06061 0.0
H109 H 0.99926 0.39776 0.00694 0.0
H110 H 0.95918 0.64526 0.06198 0.0
H111 H 0.13655 0.36938 0.04921 0.0
H112 H 0.14602 0.37144 0.03188 0.0
H113 H 0.96276 0.59969 0.07494 0.0
H114 H 0.11955 0.37793 0.01644 0.0
N115 N 0.05827 0.41693 0.04604 0.0
C116 C 0.06405 0.40388 0.05464 0.0
C117 C 0.11446 0.38239 0.04823 0.0
C118 C 0.10554 0.39214 0.03935 0.0
C119 C 0.09254 0.38701 0.05588 0.0
C120 C 0.07638 0.40889 0.03847 0.0
H121 H 0.0638 0.38661 0.00705 0.0
N122 N 0.03017 0.4244 0.02941 0.0
C123 C 1.01778 0.40269 0.01329 0.0
C124 C 0.06206 0.41316 0.02981 0.0
C125 C 1.00498 0.41478 0.02149 0.0
C126 C 0.0543 0.39663 0.01337 0.0
C127 C 0.07574 0.39993 0.02179 0.0
O128 O 0.95131 0.41225 0.03788 0.0
O129 O 1.02279 0.5144 0.04449 0.0
O130 O 0.07513 0.51765 0.06217 0.0
O131 O 1.01323 0.45101 0.05808 0.0
O132 O 0.96345 0.46245 0.04765 0.0
O133 O 0.97429 0.3852 0.04849 0.0
O134 O 0.12544 0.60648 0.06065 0.0
O135 O 0.08202 0.49871 0.04849 0.0
O136 O 0.03369 0.48754 0.03037 0.0
O137 O 0.08096 0.56122 0.03448 0.0
O138 O 0.13404 0.55296 0.04245 0.0
O139 O 0.15121 0.61394 0.047 0.0
C140 C 0.98453 0.50455 0.04709 0.0
C141 C 0.91475 0.33422 0.03896 0.0
C142 C 0.84222 0.27039 0.03525 0.0
C143 C 0.8681 0.312 0.03952 0.0
C144 C 0.86387 0.25119 0.03057 0.0
C145 C 0.93535 0.31418 0.03428 0.0
C146 C 0.90995 0.27282 0.03014 0.0
C147 C 0.04098 0.47749 0.06436 0.0
C148 C 0.94117 0.37838 0.04319 0.0
C149 C 0.10793 0.38727 0.02255 0.0
C150 C 0.12288 0.38343 0.03134 0.0
C151 C 0.11849 0.51176 0.04416 0.0
C152 C 0.174 0.68073 0.05522 0.0
C153 C 0.21911 0.71324 0.05366 0.0
C154 C 0.23223 0.75892 0.05287 0.0
C155 C 0.19963 0.77104 0.05351 0.0
C156 C 0.14343 0.6952 0.05644 0.0
C157 C 0.15585 0.73957 0.05538 0.0
C158 C 0.06 0.52947 0.02823 0.0
C159 C 0.15796 0.63194 0.05514 0.0
H160 H 0.85201 0.32754 0.04307 0.0
H161 H 0.84501 0.21923 0.02725 0.0
H162 H 0.971 0.33052 0.03381 0.0
H163 H 0.92605 0.25754 0.02652 0.0
H164 H 0.24373 0.70317 0.05308 0.0
H165 H 0.20848 0.80544 0.05304 0.0
H166 H 0.10966 0.67218 0.05822 0.0
H167 H 0.13143 0.74975 0.05619 0.0
Tb168 Tb 0.65526 0.61387 0.04103 0.0
C169 C 0.50857 0.49363 0.06757 0.0
C170 C 0.47302 0.42023 0.0609 0.0
C171 C 0.47016 0.4294 0.07758 0.0
C172 C 0.49832 0.46656 0.0599 0.0
C173 C 0.49349 0.47541 0.07647 0.0
C174 C 0.46017 0.40179 0.06981 0.0
C175 C 0.51683 0.54879 0.08217 0.0
N176 N 0.52746 0.53767 0.06608 0.0
C177 C 0.52966 0.56505 0.07315 0.0
C178 C 0.49922 0.50381 0.08387 0.0
Tb179 Tb 0.54547 0.56171 0.05103 0.0
N180 N 0.50909 0.48579 0.05138 0.0
C181 C 0.4935 0.46017 0.04356 0.0
C182 C 0.45924 0.39397 0.05291 0.0
C183 C 0.46915 0.41409 0.0442 0.0
H184 H 0.54257 0.59982 0.07187 0.0
H185 H 0.45791 0.39414 0.03796 0.0
H186 H 0.44072 0.36632 0.07072 0.0
H187 H 0.51997 0.57089 0.08777 0.0
H188 H 0.50023 0.47478 0.03673 0.0
H189 H 0.71391 0.78448 0.05054 0.0
H190 H 0.43995 0.35829 0.05338 0.0
H191 H 0.68035 0.57505 0.02242 0.0
H192 H 0.68687 0.70596 0.05352 0.0
H193 H 0.70511 0.59883 0.00633 0.0
H194 H 0.45766 0.41497 0.08433 0.0
H195 H 0.72885 0.81309 0.03444 0.0
H196 H 0.73523 0.79902 0.01748 0.0
H197 H 0.48824 0.49108 0.09082 0.0
H198 H 0.73312 0.74817 0.00534 0.0
N199 N 0.6838 0.68873 0.03918 0.0
C200 C 0.69288 0.71745 0.04643 0.0
C201 C 0.71658 0.77831 0.03569 0.0
C202 C 0.71106 0.74959 0.02838 0.0
C203 C 0.70837 0.76231 0.04479 0.0
C204 C 0.69484 0.70461 0.03041 0.0
H205 H 0.72273 0.67341 0.00114 0.0
N206 N 0.68123 0.63445 0.02618 0.0
C207 C 0.70166 0.62089 0.0111 0.0
C208 C 0.69374 0.67638 0.02364 0.0
C209 C 0.6875 0.60748 0.02023 0.0
C210 C 0.71145 0.66295 0.00819 0.0
C211 C 0.70866 0.69175 0.01456 0.0
O212 O 0.69435 0.58329 0.04146 0.0
O213 O 0.60124 0.55479 0.04725 0.0
O214 O 0.59444 0.57129 0.06224 0.0
O215 O 0.65843 0.62881 0.05584 0.0
O216 O 0.63475 0.54596 0.0366 0.0
O217 O 0.71875 0.64819 0.04702 0.0
O218 O 0.50012 0.58266 0.05485 0.0
O219 O 0.59749 0.62077 0.04438 0.0
O220 O 0.61357 0.59999 0.02898 0.0
O221 O 0.54361 0.55273 0.03546 0.0
O222 O 0.56696 0.62872 0.0557 0.0
O223 O 0.48592 0.53863 0.04346 0.0
C224 C 0.60326 0.52532 0.04247 0.0
C225 C 0.77167 0.63005 0.04121 0.0
C226 C 0.83507 0.61782 0.04001 0.0
C227 C 0.79245 0.60546 0.04344 0.0
C228 C 0.85613 0.65541 0.03426 0.0
C229 C 0.79324 0.66675 0.03534 0.0
C230 C 0.83521 0.67927 0.0319 0.0
C231 C 0.63685 0.60309 0.06291 0.0
C232 C 0.72784 0.6171 0.04521 0.0
C233 C 0.72206 0.73578 0.0123 0.0
C234 C 0.72323 0.76471 0.01921 0.0
C235 C 0.59521 0.65 0.04928 0.0
C236 C 0.42384 0.53027 0.0521 0.0
C237 C 0.388 0.53481 0.04867 0.0
C238 C 0.34407 0.50706 0.05206 0.0
C239 C 0.33714 0.4743 0.05861 0.0
C240 C 0.4148 0.49806 0.05884 0.0
C241 C 0.37212 0.47019 0.06199 0.0
C242 C 0.571 0.57114 0.02822 0.0
C243 C 0.47049 0.55815 0.04872 0.0
H244 H 0.77506 0.57657 0.04782 0.0
H245 H 0.8892 0.66706 0.03167 0.0
H246 H 0.77784 0.68595 0.03347 0.0
H247 H 0.85189 0.70796 0.02746 0.0
H248 H 0.39439 0.55999 0.04355 0.0
H249 H 0.30434 0.45123 0.06112 0.0
H250 H 0.44072 0.49416 0.0617 0.0
H251 H 0.3661 0.44508 0.0671 0.0
Tb252 Tb 0.08307 0.46883 0.46322 0.0
C253 C 0.07234 0.59155 0.43472 0.0
C254 C 0.11305 0.66574 0.44078 0.0
C255 C 0.11254 0.65312 0.42417 0.0
C256 C 0.08748 0.61975 0.44218 0.0
C257 C 0.08322 0.60789 0.42558 0.0
C258 C 0.12732 0.68212 0.43178 0.0
C259 C 0.03119 0.5348 0.42003 0.0
N260 N 0.04379 0.54838 0.43645 0.0
C261 C 1.02151 0.52026 0.42925 0.0
C262 C 0.06291 0.57864 0.41818 0.0
Tb263 Tb 0.03274 0.52653 0.45178 0.0
N264 N 0.0732 0.60232 0.45074 0.0
C265 C 0.07936 0.62974 0.45808 0.0
C266 C 0.12175 0.69379 0.4484 0.0
C267 C 0.10392 0.67567 0.45705 0.0
H268 H 0.99749 0.48612 0.43057 0.0
H269 H 0.10945 0.69702 0.46297 0.0
H270 H 0.14847 0.71721 0.43063 0.0
H271 H 1.01444 0.51209 0.41437 0.0
H272 H 0.066 0.61663 0.46481 0.0
H273 H 0.99587 0.29765 0.45242 0.0
H274 H 0.14105 0.72934 0.44763 0.0
H275 H 0.12643 0.51056 0.48385 0.0
H276 H 0.0432 0.3776 0.45033 0.0
H277 H 0.11894 0.48509 0.50004 0.0
H278 H 0.12257 0.66612 0.41722 0.0
H279 H 0.9697 0.26679 0.46812 0.0
H280 H 0.97445 0.27973 0.48541 0.0
H281 H 0.07033 0.58987 0.41104 0.0
H282 H 1.00954 0.33105 0.49852 0.0
N283 N 0.04099 0.39329 0.46457 0.0
C284 C 0.03118 0.36521 0.4572 0.0
C285 C 0.98984 0.30221 0.46722 0.0
C286 C 1.00386 0.3307 0.47487 0.0
C287 C 1.00464 0.31949 0.45836 0.0
C288 C 0.03008 0.37651 0.47328 0.0
H289 H 0.06522 0.40748 0.504 0.0
N290 N 0.07742 0.44799 0.47855 0.0
C291 C 0.09903 0.46218 0.49464 0.0
C292 C 0.04958 0.40497 0.48058 0.0
C293 C 0.10325 0.47645 0.48541 0.0
C294 C 0.06852 0.41844 0.49686 0.0
C295 C 0.04372 0.38902 0.48977 0.0
O296 O 0.11997 0.44656 0.45558 0.0
O297 O 0.09156 0.52983 0.45732 0.0
O298 O 0.07654 0.51674 0.4418 0.0
O299 O 0.07527 0.45513 0.44827 0.0
O300 O 0.13319 0.53588 0.46775 0.0
O301 O 0.14763 0.48723 0.46757 0.0
O302 O 0.96838 0.50938 0.44732 0.0
O303 O 1.0223 0.46458 0.4578 0.0
O304 O 0.04195 0.47793 0.47342 0.0
O305 O 0.04153 0.53915 0.46708 0.0
O306 O 0.98385 0.4612 0.44678 0.0
O307 O 0.99529 0.54776 0.45959 0.0
C308 C 0.12427 0.55812 0.46198 0.0
C309 C 0.19717 0.49794 0.45544 0.0
C310 C 0.27667 0.52599 0.45269 0.0
C311 C 0.23595 0.4955 0.45698 0.0
C312 C 0.27695 0.55855 0.44684 0.0
C313 C 0.19903 0.53044 0.44946 0.0
C314 C 0.23854 0.56033 0.44519 0.0
C315 C 0.08381 0.48262 0.44125 0.0
C316 C 0.15557 0.46898 0.46053 0.0
C317 C 1.01502 0.34392 0.49149 0.0
C318 C 0.99498 0.31474 0.48404 0.0
C319 C 0.99112 0.43752 0.45248 0.0
C320 C 0.94484 0.56105 0.45097 0.0
C321 C 0.90325 0.55469 0.45406 0.0
C322 C 0.88767 0.58354 0.45111 0.0
C323 C 0.91529 0.61905 0.44525 0.0
C324 C 0.97032 0.59631 0.44498 0.0
C325 C 0.95585 0.62512 0.44221 0.0
C326 C 0.03855 0.51386 0.47431 0.0
C327 C 0.962 0.5313 0.45388 0.0
H328 H 0.23418 0.47011 0.46156 0.0
H329 H 0.30712 0.58381 0.44367 0.0
H330 H 0.17008 0.53336 0.44825 0.0
H331 H 0.23963 0.58573 0.44071 0.0
H332 H 0.88301 0.52714 0.45859 0.0
H333 H 0.90588 0.64282 0.44306 0.0
H334 H 1.00161 0.60168 0.44241 0.0
H335 H 0.97631 0.6525 0.43767 0.0
Tb336 Tb 0.61416 0.63702 0.45989 0.0
C337 C 0.47167 0.48274 0.44508 0.0
C338 C 0.42861 0.42596 0.45636 0.0
C339 C 0.3917 0.43871 0.44346 0.0
C340 C 0.4695 0.46088 0.45321 0.0
C341 C 0.43278 0.47111 0.43999 0.0
C342 C 0.38962 0.41612 0.45164 0.0
C343 C 0.47794 0.52237 0.42812 0.0
N344 N 0.51201 0.514 0.44194 0.0
C345 C 0.51548 0.53307 0.43343 0.0
C346 C 0.43635 0.49164 0.43146 0.0
Tb347 Tb 0.57166 0.5275 0.45109 0.0
N348 N 0.50785 0.47101 0.45754 0.0
C349 C 0.5079 0.44242 0.4641 0.0
C350 C 0.42835 0.40025 0.46382 0.0
C351 C 0.46831 0.40778 0.46754 0.0
H352 H 0.54674 0.55664 0.43054 0.0
H353 H 0.46871 0.38677 0.47302 0.0
H354 H 0.35789 0.38993 0.45404 0.0
H355 H 0.48117 0.53803 0.42145 0.0
H356 H 0.53871 0.44764 0.46699 0.0
H357 H 0.78649 0.70768 0.45105 0.0
H358 H 0.39768 0.37311 0.46643 0.0
H359 H 0.56733 0.64931 0.47887 0.0
H360 H 0.70687 0.67381 0.44788 0.0
H361 H 0.58894 0.67562 0.49496 0.0
H362 H 0.36151 0.42989 0.43972 0.0
H363 H 0.81415 0.72616 0.4672 0.0
H364 H 0.79781 0.73154 0.48408 0.0
H365 H 0.40733 0.48363 0.42735 0.0
H366 H 0.74386 0.72344 0.49607 0.0
N367 N 0.68893 0.67025 0.46212 0.0
C368 C 0.71826 0.68099 0.45497 0.0
C369 C 0.77904 0.71073 0.46586 0.0
C370 C 0.74914 0.70283 0.47307 0.0
C371 C 0.76357 0.70047 0.45673 0.0
C372 C 0.70382 0.68251 0.47092 0.0
H373 H 0.66588 0.70353 0.50015 0.0
N374 N 0.63096 0.6603 0.47503 0.0
C375 C 0.61309 0.67614 0.49017 0.0
C376 C 0.67376 0.67785 0.47763 0.0
C377 C 0.60093 0.66108 0.48104 0.0
C378 C 0.65654 0.69181 0.49308 0.0
C379 C 0.68771 0.69348 0.48674 0.0
O380 O 0.57978 0.67266 0.45988 0.0
O381 O 0.5586 0.58127 0.45288 0.0
O382 O 0.60881 0.57507 0.43924 0.0
O383 O 0.62714 0.64449 0.44516 0.0
O384 O 0.54519 0.60896 0.46411 0.0
O385 O 0.64553 0.70211 0.45464 0.0
O386 O 0.571 0.49144 0.43919 0.0
O387 O 0.63191 0.58908 0.45427 0.0
O388 O 0.60661 0.59519 0.47174 0.0
O389 O 0.55344 0.52672 0.46602 0.0
O390 O 0.62556 0.53239 0.45961 0.0
O391 O 0.58716 0.47614 0.45241 0.0
C392 C 0.52736 0.57931 0.45778 0.0
C393 C 0.62274 0.75059 0.46098 0.0
C394 C 0.60979 0.81364 0.46245 0.0
C395 C 0.59975 0.77268 0.45834 0.0
C396 C 0.64342 0.83173 0.46921 0.0
C397 C 0.65569 0.76955 0.46779 0.0
C398 C 0.66584 0.80977 0.47187 0.0
C399 C 0.62497 0.61895 0.43824 0.0
C400 C 0.61258 0.70827 0.45648 0.0
C401 C 0.73248 0.71166 0.48908 0.0
C402 C 0.76318 0.71624 0.48226 0.0
C403 C 0.65326 0.5737 0.45856 0.0
C404 C 0.5423 0.41398 0.44261 0.0
C405 C 0.54729 0.37879 0.44643 0.0
C406 C 0.51451 0.33333 0.44494 0.0
C407 C 0.47674 0.32458 0.43981 0.0
C408 C 0.50391 0.40264 0.43747 0.0
C409 C 0.47163 0.35866 0.43615 0.0
C410 C 0.57486 0.55405 0.47302 0.0
C411 C 0.57599 0.46239 0.44394 0.0
H412 H 0.57397 0.75777 0.45314 0.0
H413 H 0.65319 0.86344 0.47237 0.0
H414 H 0.67395 0.75354 0.46991 0.0
H415 H 0.69162 0.8243 0.47707 0.0
H416 H 0.57661 0.38676 0.45042 0.0
H417 H 0.45028 0.29101 0.43872 0.0
H418 H 0.49844 0.42786 0.43445 0.0
H419 H 0.44214 0.35087 0.43225 0.0
Tb420 Tb 0.4476 0.99886 0.46014 0.0
C421 C 0.59954 0.02201 0.44326 0.0
C422 C 0.6366 1.0007 0.45459 0.0
C423 C 0.63439 0.97963 0.43845 0.0
C424 C 0.61172 0.02125 0.45234 0.0
C425 C 0.61216 1.00246 0.43616 0.0
C426 C 0.64677 0.97892 0.44765 0.0
C427 C 0.58767 0.03629 0.4249 0.0
N428 N 0.57879 0.0451 0.44128 0.0
C429 C 0.57678 0.05574 0.43216 0.0
C430 C 0.60427 1.00843 0.42691 0.0
Tb431 Tb 0.55904 0.07299 0.45397 0.0
N432 N 0.60045 0.04179 0.45892 0.0
C433 C 0.61765 0.0469 0.46771 0.0
C434 C 0.65119 1.00322 0.46372 0.0
C435 C 0.64234 0.02714 0.47026 0.0
H436 H 0.56732 0.07983 0.43032 0.0
H437 H 0.65496 0.03083 0.47727 0.0
H438 H 0.66503 0.96227 0.4493 0.0
H439 H 0.58425 0.04375 0.41775 0.0
H440 H 0.61408 0.06722 0.47285 0.0
H441 H 0.36142 0.05321 0.43697 0.0
H442 H 0.67028 0.98787 0.46572 0.0
H443 H 0.42708 0.98269 0.48332 0.0
H444 H 0.39233 1.00718 0.44171 0.0
H445 H 0.41347 0.0205 0.49617 0.0
H446 H 0.64364 0.96388 0.43311 0.0
H447 H 0.3569 0.10431 0.44825 0.0
H448 H 0.3661 0.13164 0.46472 0.0
H449 H 0.61342 0.99398 0.42127 0.0
H450 H 0.38171 0.12353 0.48106 0.0
N451 N 0.41075 0.03488 0.45531 0.0
C452 C 0.39312 0.03068 0.44661 0.0
C453 C 0.37161 0.08473 0.45032 0.0
C454 C 0.38561 0.08573 0.45946 0.0
C455 C 0.37425 0.05608 0.44394 0.0
C456 C 0.40442 0.05943 0.46178 0.0
H457 H 0.39872 0.08144 0.49293 0.0
N458 N 0.42699 0.02583 0.4728 0.0
C459 C 0.41439 0.03145 0.4891 0.0
C460 C 0.41358 0.05525 0.47088 0.0
C461 C 0.42299 1.01061 0.48174 0.0
C462 C 0.4061 0.06578 0.48724 0.0
C463 C 0.40364 0.07673 0.47801 0.0
O464 O 0.41264 0.94045 0.46814 0.0
O465 O 0.51401 1.00768 0.45911 0.0
O466 O 0.51288 0.05598 0.44146 0.0
O467 O 0.44907 0.99129 0.44541 0.0
O468 O 0.46373 0.95161 0.45371 0.0
O469 O 0.38518 0.94874 0.45555 0.0
O470 O 0.59281 0.13138 0.44594 0.0
O471 O 0.49351 0.06658 0.45478 0.0
O472 O 0.48802 1.01016 0.47263 0.0
O473 O 0.5541 0.07425 0.46938 0.0
O474 O 0.54485 0.11802 0.46159 0.0
O475 O 0.62317 0.12304 0.45801 0.0
C476 C 0.50536 0.97156 0.45529 0.0
C477 C 0.33456 0.89498 0.4661 0.0
C478 C 0.26846 0.82218 0.46887 0.0
C479 C 0.31189 0.84813 0.46533 0.0
C480 C 0.24818 0.84421 0.47296 0.0
C481 C 0.31329 0.91558 0.47024 0.0
C482 C 0.27032 0.89028 0.47362 0.0
C483 C 0.47497 0.01932 0.43914 0.0
C484 C 0.37983 0.92196 0.46232 0.0
C485 C 0.38866 0.10605 0.47569 0.0
C486 C 0.37963 0.11055 0.4664 0.0
C487 C 0.50482 0.10328 0.45894 0.0
C488 C 0.67274 0.17066 0.44628 0.0
C489 C 0.71215 0.20281 0.45088 0.0
C490 C 0.75347 0.22575 0.44605 0.0
C491 C 0.75346 0.2157 0.43654 0.0
C492 C 0.67546 0.1618 0.43687 0.0
C493 C 0.71529 0.18397 0.43209 0.0
C494 C 0.52556 0.04471 0.47535 0.0
C495 C 0.62848 0.14861 0.45103 0.0
H496 H 0.32827 0.83199 0.46217 0.0
H497 H 0.2149 0.82564 0.47568 0.0
H498 H 0.32987 0.95124 0.47083 0.0
H499 H 0.25406 0.90646 0.47679 0.0
H500 H 0.71041 0.20992 0.45815 0.0
H501 H 0.78284 0.23318 0.43233 0.0
H502 H 0.64651 0.13843 0.43307 0.0
H503 H 0.71644 0.17715 0.42479 0.0
Tb504 Tb 0.57107 0.06554 0.9518 0.0
C505 C 0.69393 0.04288 0.9769 0.0
C506 C 0.76382 0.09058 0.96943 0.0
C507 C 0.76032 0.08312 0.98624 0.0
C508 C 0.71767 0.06209 0.96891 0.0
C509 C 0.71525 0.05164 0.98561 0.0
C510 C 0.78461 0.10258 0.97815 0.0
C511 C 0.64809 0.99199 0.99206 0.0
N512 N 0.65087 1.01177 0.97598 0.0
C513 C 0.62869 0.98422 0.98325 0.0
C514 C 0.69126 0.02663 0.9933 0.0
Tb515 Tb 0.62022 1.00624 0.96163 0.0
N516 N 0.69645 0.04861 0.96059 0.0
C517 C 0.72102 0.05807 0.95259 0.0
C518 C 0.78815 0.10367 0.96119 0.0
C519 C 0.76685 0.08606 0.95278 0.0
H520 H 0.5954 0.95724 0.98231 0.0
H521 H 0.78569 0.09435 0.94639 0.0
H522 H 0.81986 0.12503 0.97868 0.0
H523 H 0.62979 0.97122 0.99787 0.0
H524 H 0.70644 0.04529 0.94592 0.0
H525 H 0.40656 0.98071 0.96666 0.0
H526 H 0.82364 0.12532 0.96129 0.0
H527 H 0.60144 0.10729 0.93069 0.0
H528 H 0.48758 0.02608 0.96704 0.0
H529 H 0.56787 0.09527 0.91508 0.0
H530 H 0.77716 0.09089 0.99289 0.0
H531 H 0.36778 0.95321 0.95166 0.0
H532 H 0.37173 0.95471 0.93423 0.0
H533 H 0.70642 0.03234 1.0001 0.0
H534 H 0.41616 0.98676 0.92008 0.0
N535 N 0.49538 0.0231 0.95239 0.0
C536 C 0.47132 1.01438 0.96043 0.0
C537 C 0.40347 0.97303 0.95178 0.0
C538 C 0.42791 0.98527 0.94353 0.0
C539 C 0.42522 0.98867 0.96025 0.0
C540 C 0.47432 1.01108 0.94407 0.0
H541 H 0.4891 0.03949 0.91285 0.0
N542 N 0.54303 0.05674 0.93709 0.0
C543 C 0.54823 0.07592 0.92092 0.0
C544 C 0.49907 0.02865 0.93613 0.0
C545 C 0.56713 0.0826 0.92977 0.0
C546 C 0.50382 0.04429 0.91968 0.0
C547 C 0.47833 0.02115 0.92739 0.0
O548 O 0.53746 0.09871 0.95606 0.0
O549 O 0.63143 0.07238 0.95798 0.0
O550 O 0.60661 0.03573 0.97358 0.0
O551 O 0.56823 0.06878 0.96734 0.0
O552 O 0.63642 0.10587 0.94593 0.0
O553 O 0.59849 0.13389 0.94881 0.0
O554 O 0.58936 0.94499 0.95445 0.0
O555 O 0.56026 1.00179 0.95624 0.0
O556 O 0.57897 0.02636 0.94039 0.0
O557 O 0.63215 1.01203 0.94669 0.0
O558 O 0.55616 0.97145 0.96858 0.0
O559 O 0.63646 0.95672 0.96491 0.0
C560 C 0.65923 0.09997 0.95218 0.0
C561 C 0.57604 0.17646 0.9581 0.0
C562 C 0.56564 0.2408 0.96089 0.0
C563 C 0.55716 0.2028 0.95562 0.0
C564 C 0.59338 0.25124 0.96871 0.0
C565 C 0.60308 0.18793 0.96596 0.0
C566 C 0.61163 0.22502 0.97121 0.0
C567 C 0.58411 0.05666 0.97449 0.0
C568 C 0.56601 0.13648 0.95257 0.0
C569 C 0.43252 0.99294 0.92673 0.0
C570 C 0.4073 0.97486 0.93479 0.0
C571 C 0.53305 0.97651 0.96229 0.0
C572 C 0.57768 0.8821 0.96314 0.0
C573 C 0.58175 0.84503 0.96049 0.0
C574 C 0.55237 0.80249 0.96417 0.0
C575 C 0.51845 0.79738 0.97017 0.0
C576 C 0.544 0.87527 0.96942 0.0
C577 C 0.5144 0.83343 0.97276 0.0
C578 C 0.60827 1.01249 0.93963 0.0
C579 C 0.60769 0.92736 0.95932 0.0
H580 H 0.53555 0.19326 0.94963 0.0
H581 H 0.60199 0.28035 0.97284 0.0
H582 H 0.61744 0.16809 0.96805 0.0
H583 H 0.63284 0.23374 0.97725 0.0
H584 H 0.60786 0.84933 0.9558 0.0
H585 H 0.4953 0.76524 0.973 0.0
H586 H 0.54002 0.90181 0.97191 0.0
H587 H 0.48846 0.82904 0.97751 0.0
Tb588 Tb 1.01644 0.5255 0.95173 0.0
C589 C 0.02918 0.67177 0.96613 0.0
C590 C 1.01688 0.70962 0.95345 0.0
C591 C 0.97786 0.69925 0.96802 0.0
C592 C 0.03697 0.68644 0.95711 0.0
C593 C 1.00068 0.67938 0.97182 0.0
C594 C 0.98601 0.71443 0.95883 0.0
C595 C 0.02462 0.65366 0.98485 0.0
N596 N 0.05171 0.65246 0.96948 0.0
C597 C 0.05269 0.6473 0.97892 0.0
C598 C 0.99739 0.66849 0.98123 0.0
Tb599 Tb 0.09124 0.63615 0.95867 0.0
N600 N 0.06664 0.68066 0.95213 0.0
C601 C 0.083 0.70407 0.94406 0.0
C602 C 0.02956 0.72852 0.94463 0.0
C603 C 0.0638 0.72685 0.94004 0.0
H604 H 0.07561 0.63923 0.98207 0.0
H605 H 0.07608 0.74385 0.93349 0.0
H606 H 0.96953 0.73125 0.95608 0.0
H607 H 0.02469 0.64794 0.99224 0.0
H608 H 0.11172 0.7065 0.94075 0.0
H609 H 0.06996 0.42682 0.97104 0.0
H610 H 1.01493 0.7465 0.94156 0.0
H611 H 0.99504 0.51839 0.92864 0.0
H612 H 0.03177 0.46828 0.96894 0.0
H613 H 1.02258 0.50159 0.91442 0.0
H614 H 0.95522 0.70459 0.97223 0.0
H615 H 0.10776 0.41472 0.95781 0.0
H616 H 0.12561 0.42344 0.94083 0.0
H617 H 0.97595 0.67381 0.98584 0.0
H618 H 0.11467 0.44613 0.92536 0.0
N619 N 0.04995 0.48402 0.95462 0.0
C620 C 0.04911 0.46535 0.96306 0.0
C621 C 0.0913 0.43372 0.95682 0.0
C622 C 0.08956 0.45004 0.94807 0.0
C623 C 0.07016 0.44063 0.9643 0.0
C624 C 0.06779 0.47477 0.94715 0.0
H625 H 0.07583 0.47477 0.91541 0.0
N626 N 0.0368 0.50727 0.93779 0.0
C627 C 0.03473 0.49839 0.92113 0.0
C628 C 0.06184 0.4877 0.93847 0.0
C629 C 1.01967 0.50845 0.92926 0.0
C630 C 0.06475 0.48331 0.92171 0.0
C631 C 0.07719 0.47595 0.93046 0.0
O632 O 0.95355 0.49677 0.94549 0.0
O633 O 1.02361 0.59089 0.95361 0.0
O634 O 0.07863 0.59354 0.9708 0.0
O635 O 1.01771 0.52524 0.96711 0.0
O636 O 0.97282 0.53796 0.96028 0.0
O637 O 0.96939 0.45838 0.95459 0.0
O638 O 0.14694 0.69976 0.95675 0.0
O639 O 0.08181 0.5699 0.95697 0.0
O640 O 0.03472 0.57422 0.93979 0.0
O641 O 0.10124 0.63587 0.9439 0.0
O642 O 0.13804 0.62051 0.95176 0.0
O643 O 0.13884 0.66454 0.96934 0.0
C644 C 0.98808 0.57878 0.95821 0.0
C645 C 0.91204 0.41782 0.94335 0.0
C646 C 0.85922 0.33749 0.94157 0.0
C647 C 0.88766 0.37439 0.94724 0.0
C648 C 0.85505 0.34542 0.93212 0.0
C649 C 0.90678 0.42333 0.93385 0.0
C650 C 0.87863 0.38756 0.92834 0.0
C651 C 0.04597 0.55407 0.97321 0.0
C652 C 0.93938 0.45797 0.94922 0.0
C653 C 0.10192 0.45457 0.93142 0.0
C654 C 0.10794 0.44146 0.94021 0.0
C655 C 0.11784 0.57853 0.95315 0.0
C656 C 0.21247 0.70985 0.96391 0.0
C657 C 0.24783 0.75413 0.96375 0.0
C658 C 0.29202 0.76338 0.96275 0.0
C659 C 0.30017 0.7281 0.96182 0.0
C660 C 0.22232 0.67553 0.96343 0.0
C661 C 0.26562 0.68457 0.96225 0.0
C662 C 0.07204 0.6115 0.93759 0.0
C663 C 0.16554 0.69915 0.9645 0.0
H664 H 0.89095 0.36942 0.95457 0.0
H665 H 0.8331 0.31865 0.92757 0.0
H666 H 0.92359 0.45562 0.93066 0.0
H667 H 0.87471 0.39261 0.92105 0.0
H668 H 0.24109 0.7811 0.96442 0.0
H669 H 0.33366 0.73427 0.96112 0.0
H670 H 0.19655 0.64154 0.96403 0.0
H671 H 0.27247 0.65764 0.96179 0.0
Tb672 Tb 0.56021 0.52343 0.95136 0.0
C673 C 0.41576 0.42512 0.97892 0.0
C674 C 0.40144 0.35038 0.97683 0.0
C675 C 0.39132 0.37451 0.99203 0.0
C676 C 0.41541 0.39296 0.97328 0.0
C677 C 0.40174 0.41564 0.98825 0.0
C678 C 0.39127 0.34192 0.98633 0.0
C679 C 0.40173 0.4847 0.98888 0.0
N680 N 0.42536 0.46414 0.97498 0.0
C681 C 0.41548 0.49252 0.9796 0.0
C682 C 0.39604 0.44667 0.99331 0.0
Tb683 Tb 0.44862 0.47368 0.95979 0.0
N684 N 0.42396 0.40198 0.96409 0.0
C685 C 0.41401 0.36842 0.95793 0.0
C686 C 0.39556 0.31696 0.97064 0.0
C687 C 0.40079 0.32578 0.96112 0.0
H688 H 0.42072 0.52248 0.97627 0.0
H689 H 0.39463 0.29976 0.95623 0.0
H690 H 0.38115 0.30962 0.98921 0.0
H691 H 0.39586 0.50816 0.99263 0.0
H692 H 0.41748 0.37443 0.95055 0.0
H693 H 0.64209 0.68083 0.96919 0.0
H694 H 0.38494 0.28383 0.97309 0.0
H695 H 0.57336 0.50443 0.92927 0.0
H696 H 0.60517 0.60014 0.96792 0.0
H697 H 0.59027 0.54417 0.91426 0.0
H698 H 0.38122 0.36684 0.99923 0.0
H699 H 0.65216 0.72623 0.95523 0.0
H700 H 0.64328 0.72955 0.9379 0.0
H701 H 0.38526 0.44062 1.00049 0.0
H702 H 0.62555 0.69107 0.9228 0.0
N703 N 0.59394 0.59872 0.95331 0.0
C704 C 0.60927 0.61903 0.96172 0.0
C705 C 0.63618 0.69062 0.9546 0.0
C706 C 0.62201 0.66987 0.94597 0.0
C707 C 0.63059 0.6651 0.96249 0.0
C708 C 0.60165 0.62343 0.94554 0.0
H709 H 0.60812 0.62221 0.91385 0.0
N710 N 0.57848 0.55847 0.93714 0.0
C711 C 0.59045 0.56082 0.92063 0.0
C712 C 0.59242 0.60221 0.93711 0.0
C713 C 0.58103 0.53849 0.92913 0.0
C714 C 0.60026 0.60476 0.92041 0.0
C715 C 0.60305 0.62651 0.92877 0.0
O716 O 0.60746 0.50762 0.94614 0.0
O717 O 0.50613 0.46405 0.95749 0.0
O718 O 0.4892 0.50615 0.97191 0.0
O719 O 0.55921 0.52113 0.96698 0.0
O720 O 0.53903 0.45721 0.94637 0.0
O721 O 0.619 0.54205 0.9589 0.0
O722 O 0.40654 0.50045 0.95933 0.0
O723 O 0.5099 0.53541 0.95675 0.0
O724 O 0.51139 0.50754 0.93961 0.0
O725 O 0.44724 0.45016 0.94585 0.0
O726 O 0.45275 0.53103 0.95262 0.0
O727 O 0.38325 0.4331 0.95505 0.0
C728 C 0.50998 0.43542 0.95264 0.0
C729 C 0.68258 0.55917 0.94987 0.0
C730 C 0.76283 0.58473 0.95009 0.0
C731 C 0.71857 0.55386 0.95279 0.0
C732 C 0.76975 0.62094 0.94458 0.0
C733 C 0.69146 0.59539 0.94426 0.0
C734 C 0.73449 0.62596 0.94168 0.0
C735 C 0.53088 0.51823 0.97359 0.0
C736 C 0.63597 0.52782 0.95272 0.0
C737 C 0.61892 0.67216 0.92913 0.0
C738 C 0.62887 0.69398 0.93772 0.0
C739 C 0.49443 0.55677 0.9527 0.0
C740 C 0.32981 0.45228 0.96037 0.0
C741 C 0.30806 0.47508 0.95745 0.0
C742 C 0.26693 0.46536 0.96129 0.0
C743 C 0.24802 0.432 0.96809 0.0
C744 C 0.31036 0.4196 0.96721 0.0
C745 C 0.26963 0.40954 0.97102 0.0
C746 C 0.46952 0.47479 0.93876 0.0
C747 C 0.3731 0.46411 0.95627 0.0
H748 H 0.712 0.52571 0.95705 0.0
H749 H 0.8027 0.64617 0.9426 0.0
H750 H 0.66513 0.60033 0.94189 0.0
H751 H 0.7406 0.65401 0.93743 0.0
H752 H 0.32366 0.50091 0.95228 0.0
H753 H 0.21616 0.42276 0.9711 0.0
H754 H 0.3266 0.40194 0.96961 0.0
H755 H 0.25462 0.38408 0.97627 0.0
Tb756 Tb 0.07141 0.55644 0.5514 0.0
C757 C 0.04198 0.67688 0.52397 0.0
C758 C 0.09292 0.75095 0.52922 0.0
C759 C 0.07214 0.7375 0.51291 0.0
C760 C 0.0659 0.70544 0.53101 0.0
C761 C 0.04398 0.69251 0.51486 0.0
C762 C 0.09663 0.7667 0.52009 0.0
C763 C 0.9879 0.61876 0.51048 0.0
N764 N 1.01531 0.63383 0.52617 0.0
C765 C 0.98714 0.60493 0.51964 0.0
C766 C 1.01688 0.66264 0.50805 0.0
Tb767 Tb 1.01709 0.61361 0.54125 0.0
N768 N 0.06096 0.68881 0.53972 0.0
C769 C 0.07983 0.71681 0.5471 0.0
C770 C 0.1144 0.7793 0.53669 0.0
C771 C 0.10732 0.7622 0.54568 0.0
H772 H 0.96495 0.57081 0.52139 0.0
H773 H 0.12309 0.78393 0.55154 0.0
H774 H 0.11751 0.80149 0.51855 0.0
H775 H 0.96635 0.59548 0.5053 0.0
H776 H 0.07502 0.70448 0.55411 0.0
H777 H 0.99526 0.3875 0.53892 0.0
H778 H 0.1356 0.81447 0.53561 0.0
H779 H 0.11199 0.58736 0.57278 0.0
H780 H 0.04313 0.46801 0.5379 0.0
H781 H 0.09022 0.55852 0.58879 0.0
H782 H 0.07449 0.75016 0.50594 0.0
H783 H 0.9554 0.35339 0.55356 0.0
H784 H 0.94118 0.36367 0.57043 0.0
H785 H 1.01746 0.67326 0.50095 0.0
H786 H 0.96549 0.41241 0.58423 0.0
N787 N 0.03039 0.48038 0.55174 0.0
C788 C 0.0263 0.45399 0.54433 0.0
C789 C 0.97679 0.38887 0.55316 0.0
C790 C 0.9838 0.41576 0.56091 0.0
C791 C 0.99925 0.40802 0.5449 0.0
C792 C 1.0123 0.46161 0.55999 0.0
H793 H 0.02523 0.48419 0.59133 0.0
N794 N 0.05965 0.53011 0.56641 0.0
C795 C 0.07185 0.53839 0.58291 0.0
C796 C 0.02726 0.48791 0.56769 0.0
C797 C 0.08438 0.55446 0.57383 0.0
C798 C 0.03498 0.49657 0.58432 0.0
C799 C 1.01307 0.47015 0.57662 0.0
O800 O 0.13641 0.57468 0.55566 0.0
O801 O 0.07921 0.61686 0.54526 0.0
O802 O 0.05281 0.6035 0.52997 0.0
O803 O 0.05929 0.5447 0.53605 0.0
O804 O 0.11905 0.62299 0.55616 0.0
O805 O 0.11001 0.53752 0.5433 0.0
O806 O 0.94816 0.58651 0.53986 0.0
O807 O 1.01162 0.55307 0.54664 0.0
O808 O 0.03375 0.56926 0.56244 0.0
O809 O 0.02759 0.62732 0.55608 0.0
O810 O 0.96513 0.54708 0.53736 0.0
O811 O 0.98597 0.643 0.54859 0.0
C812 C 0.11121 0.64525 0.55012 0.0
C813 C 0.16089 0.52401 0.55173 0.0
C814 C 0.21872 0.50217 0.55152 0.0
C815 C 0.2028 0.53095 0.54866 0.0
C816 C 0.19115 0.46631 0.5573 0.0
C817 C 0.13534 0.48812 0.55758 0.0
C818 C 0.15024 0.45956 0.56029 0.0
C819 C 0.05846 0.56895 0.52892 0.0
C820 C 0.1433 0.55372 0.54899 0.0
C821 C 0.97923 0.426 0.57749 0.0
C822 C 0.96505 0.39845 0.56963 0.0
C823 C 0.97633 0.52481 0.54263 0.0
C824 C 0.91725 0.63226 0.54262 0.0
C825 C 0.87126 0.60702 0.5444 0.0
C826 C 0.84236 0.62277 0.54186 0.0
C827 C 0.86092 0.66463 0.53762 0.0
C828 C 0.93427 0.67336 0.53824 0.0
C829 C 0.90623 0.6894 0.5358 0.0
C830 C 1.02393 0.60156 0.5631 0.0
C831 C 0.94673 0.61512 0.5454 0.0
H832 H 0.22299 0.55882 0.5442 0.0
H833 H 0.2008 0.44265 0.55944 0.0
H834 H 0.10363 0.48207 0.56007 0.0
H835 H 0.1298 0.43177 0.56474 0.0
H836 H 0.85809 0.57491 0.54764 0.0
H837 H 0.84051 0.67869 0.53577 0.0
H838 H 0.96924 0.69312 0.53675 0.0
H839 H 0.91972 0.7214 0.53251 0.0
Tb840 Tb 0.53595 0.55648 0.54965 0.0
C841 C 0.42739 0.40247 0.5239 0.0
C842 C 0.3525 0.37939 0.52849 0.0
C843 C 0.36825 0.36893 0.51252 0.0
C844 C 0.39783 0.39896 0.53059 0.0
C845 C 0.413 0.38655 0.51482 0.0
C846 C 0.33801 0.36542 0.51935 0.0
C847 C 0.48721 0.403 0.51129 0.0
N848 N 0.47018 0.41968 0.52645 0.0
C849 C 0.49979 0.41835 0.5204 0.0
C850 C 0.44375 0.38761 0.50844 0.0
Tb851 Tb 0.48797 0.44384 0.54158 0.0
N852 N 0.4132 0.41189 0.53934 0.0
C853 C 0.38422 0.40271 0.5465 0.0
C854 C 0.32306 0.37295 0.53571 0.0
C855 C 0.33895 0.38401 0.54479 0.0
H856 H 0.53346 0.42998 0.52246 0.0
H857 H 0.31638 0.37805 0.55048 0.0
H858 H 0.30337 0.35065 0.51757 0.0
H859 H 0.51108 0.40313 0.50648 0.0
H860 H 0.39587 0.41058 0.55354 0.0
H861 H 0.61447 0.6957 0.52628 0.0
H862 H 0.28797 0.35815 0.5344 0.0
H863 H 0.57722 0.52564 0.56732 0.0
H864 H 0.55177 0.63039 0.53351 0.0
H865 H 0.64885 0.55182 0.57478 0.0
H866 H 0.35654 0.3569 0.50556 0.0
H867 H 0.69091 0.71893 0.53111 0.0
H868 H 0.74152 0.70977 0.54209 0.0
H869 H 0.43409 0.37572 0.5014 0.0
H870 H 0.75055 0.67226 0.55567 0.0
N871 N 0.59243 0.61452 0.5418 0.0
C872 C 0.58511 0.63986 0.53556 0.0
C873 C 0.66355 0.68989 0.5342 0.0
C874 C 0.67059 0.6667 0.54128 0.0
C875 C 0.62049 0.67694 0.53147 0.0
C876 C 0.6338 0.62911 0.54508 0.0
H877 H 0.71599 0.61486 0.56815 0.0
N878 N 0.60205 0.57393 0.55652 0.0
C879 C 0.64648 0.56821 0.56861 0.0
C880 C 0.63874 0.60849 0.55279 0.0
C881 C 0.60553 0.55355 0.56433 0.0
C882 C 0.68431 0.60373 0.56484 0.0
C883 C 0.68082 0.62425 0.55681 0.0
O884 O 0.54451 0.59437 0.5618 0.0
O885 O 0.47411 0.49458 0.5473 0.0
O886 O 0.49567 0.48539 0.52952 0.0
O887 O 0.55092 0.55461 0.53469 0.0
O888 O 0.48013 0.55104 0.54179 0.0
O889 O 0.51399 0.60334 0.54989 0.0
O890 O 0.51983 0.40566 0.54157 0.0
O891 O 0.54612 0.50136 0.54735 0.0
O892 O 0.50791 0.51173 0.56225 0.0
O893 O 0.47449 0.4396 0.55634 0.0
O894 O 0.55596 0.46506 0.53744 0.0
O895 O 0.45645 0.38058 0.54777 0.0
C896 C 0.45228 0.51003 0.5432 0.0
C897 C 0.56377 0.66943 0.55808 0.0
C898 C 0.5828 0.74777 0.55589 0.0
C899 C 0.55068 0.70164 0.55632 0.0
C900 C 0.62744 0.76051 0.55702 0.0
C901 C 0.60865 0.68489 0.55988 0.0
C902 C 0.64008 0.72951 0.5591 0.0
C903 C 0.52753 0.52642 0.52793 0.0
C904 C 0.53211 0.62002 0.55784 0.0
C905 C 0.71792 0.66013 0.55275 0.0
C906 C 0.71281 0.6813 0.54499 0.0
C907 C 0.57602 0.4982 0.54289 0.0
C908 C 0.47322 0.32784 0.54112 0.0
C909 C 0.49956 0.30734 0.54184 0.0
C910 C 0.48601 0.26592 0.53751 0.0
C911 C 0.4455 0.2453 0.53272 0.0
C912 C 0.43334 0.30621 0.53617 0.0
C913 C 0.41956 0.26521 0.53207 0.0
C914 C 0.4857 0.4675 0.56333 0.0
C915 C 0.4872 0.37167 0.54547 0.0
H916 H 0.51607 0.69105 0.55538 0.0
H917 H 0.65261 0.79511 0.55679 0.0
H918 H 0.61985 0.66245 0.56191 0.0
H919 H 0.67457 0.74027 0.5603 0.0
H920 H 0.53075 0.32394 0.54552 0.0
H921 H 0.43394 0.21358 0.52938 0.0
H922 H 0.41265 0.32097 0.53545 0.0
H923 H 0.38866 0.24885 0.5283 0.0
Tb924 Tb 0.53727 0.01919 0.55252 0.0
C925 C 0.6839 0.03449 0.52808 0.0
C926 C 0.70707 0.98921 0.53635 0.0
C927 C 0.71341 0.99471 0.51954 0.0
C928 C 0.68882 0.01737 0.53639 0.0
C929 C 0.69741 0.02437 0.51961 0.0
C930 C 0.7182 0.97715 0.5279 0.0
C931 C 0.68323 0.07749 0.512 0.0
N932 N 0.66872 0.06341 0.52837 0.0
C933 C 0.67073 0.08681 0.52055 0.0
C934 C 0.69593 0.04556 0.51149 0.0
Tb935 Tb 0.64582 0.07383 0.54265 0.0
N936 N 0.67755 0.02963 0.54448 0.0
C937 C 0.68754 0.01727 0.5528 0.0
C938 C 0.71457 0.97468 0.54482 0.0
C939 C 0.70537 0.98931 0.55307 0.0
H940 H 0.66081 0.11134 0.52083 0.0
H941 H 0.71183 0.97888 0.55968 0.0
H942 H 0.73169 0.95516 0.52777 0.0
H943 H 0.68308 0.09499 0.50581 0.0
H944 H 0.68083 0.0269 0.55942 0.0
H945 H 0.45016 0.09587 0.53673 0.0
H946 H 0.72835 0.95297 0.54508 0.0
H947 H 0.52935 0.98288 0.57431 0.0
H948 H 0.4896 0.05544 0.53653 0.0
H949 H 0.50926 0.99856 0.58967 0.0
H950 H 0.7234 0.98615 0.5131 0.0
H951 H 0.43599 0.12242 0.55152 0.0
H952 H 0.44042 0.12503 0.56886 0.0
H953 H 0.70591 0.03858 0.50486 0.0
H954 H 0.45739 0.09924 0.58333 0.0
N955 N 0.50046 0.05859 0.5513 0.0
C956 C 0.48433 0.06588 0.54319 0.0
C957 C 0.45361 0.10423 0.55156 0.0
C958 C 0.46733 0.09437 0.55988 0.0
C959 C 0.46146 0.08921 0.54321 0.0
C960 C 0.49025 0.07058 0.55955 0.0
H961 H 0.48244 0.0517 0.59115 0.0
N962 N 0.51724 0.02922 0.56713 0.0
C963 C 0.50679 1.01531 0.58357 0.0
C964 C 0.49957 0.05598 0.56772 0.0
C965 C 0.51827 1.00662 0.57483 0.0
C966 C 0.49183 0.04542 0.58438 0.0
C967 C 0.48672 0.06511 0.57638 0.0
O968 O 0.47208 0.973 0.55683 0.0
O969 O 0.59038 1.0093 0.54722 0.0
O970 O 0.60091 0.04179 0.53105 0.0
O971 O 0.53196 0.0235 0.53719 0.0
O972 O 0.56031 0.97937 0.55945 0.0
O973 O 0.50097 0.95812 0.54543 0.0
O974 O 0.68059 0.13638 0.54927 0.0
O975 O 0.59159 0.08169 0.54789 0.0
O976 O 0.58646 0.05646 0.56391 0.0
O977 O 0.65437 0.07308 0.55749 0.0
O978 O 0.62208 0.11474 0.53599 0.0
O979 O 0.71217 0.11862 0.53893 0.0
C980 C 0.58825 0.98163 0.55334 0.0
C981 C 0.42262 0.92697 0.54504 0.0
C982 C 0.34344 0.87113 0.54284 0.0
C983 C 0.38384 0.88779 0.54789 0.0
C984 C 0.3431 0.89515 0.53501 0.0
C985 C 0.42051 0.94897 0.53709 0.0
C986 C 0.38118 0.93331 0.53217 0.0
C987 C 0.55852 0.02835 0.53011 0.0
C988 C 0.46515 0.9448 0.55028 0.0
C989 C 0.46703 0.09157 0.57674 0.0
C990 C 0.45727 0.10612 0.5685 0.0
C991 C 0.59257 0.10924 0.54202 0.0
C992 C 0.7341 0.19489 0.53999 0.0
C993 C 0.77165 0.23264 0.54372 0.0
C994 C 0.78877 0.27443 0.53933 0.0
C995 C 0.76698 0.27788 0.53144 0.0
C996 C 0.71408 0.20004 0.532 0.0
C997 C 0.7301 0.24108 0.52783 0.0
C998 C 0.63004 0.07207 0.56456 0.0
C999 C 0.71592 0.15026 0.54427 0.0
H1000 H 0.38545 0.87023 0.55393 0.0
H1001 H 0.3131 0.88497 0.5311 0.0
H1002 H 0.44931 0.97837 0.53463 0.0
H1003 H 0.38014 0.95106 0.5261 0.0
H1004 H 0.78783 0.22936 0.54984 0.0
H1005 H 0.77852 0.3094 0.52802 0.0
H1006 H 0.68601 0.17253 0.52888 0.0
H1007 H 0.71392 0.24433 0.52171 0.0
Tb1008 Tb 0.1491 0.40752 0.3773 0.0
C1009 C 0.27552 0.38074 0.39921 0.0
C1010 C 0.34581 0.42676 0.39166 0.0
C1011 C 0.3427 0.41809 0.40844 0.0
C1012 C 0.29942 0.4 0.39122 0.0
C1013 C 0.29714 0.38821 0.40786 0.0
C1014 C 0.36704 0.43732 0.40034 0.0
C1015 C 0.22901 0.33036 0.41436 0.0
N1016 N 0.2318 0.35105 0.39833 0.0
C1017 C 0.20922 0.32363 0.40561 0.0
C1018 C 0.27287 0.36354 0.41555 0.0
Tb1019 Tb 0.20228 0.34597 0.38379 0.0
N1020 N 0.27781 0.38855 0.38294 0.0
C1021 C 0.30143 0.39805 0.37484 0.0
C1022 C 0.36967 0.44001 0.38335 0.0
C1023 C 0.34746 0.42458 0.37492 0.0
H1024 H 0.1754 0.29762 0.40481 0.0
H1025 H 0.36577 0.43315 0.36846 0.0
H1026 H 0.40251 0.45858 0.40082 0.0
H1027 H 0.21046 0.30981 0.42018 0.0
H1028 H 0.28546 0.38605 0.36823 0.0
H1029 H 0.98277 0.30259 0.39061 0.0
H1030 H 0.40531 0.46053 0.38337 0.0
H1031 H 0.17965 0.46818 0.35779 0.0
H1032 H 0.06217 0.35033 0.39196 0.0
H1033 H 0.14675 0.46752 0.34263 0.0
H1034 H 0.35977 0.42477 0.41504 0.0
H1035 H 0.94635 0.28846 0.3753 0.0
H1036 H 0.9522 0.30528 0.3583 0.0
H1037 H 0.28826 0.36833 0.42231 0.0
H1038 H 0.99706 0.34992 0.34513 0.0
N1039 N 0.07336 0.36315 0.37732 0.0
C1040 C 0.04799 0.3451 0.38512 0.0
C1041 C 0.98183 0.30964 0.37579 0.0
C1042 C 1.00718 0.33055 0.36793 0.0
C1043 C 1.00225 0.31765 0.38444 0.0
C1044 C 0.05336 0.35778 0.36893 0.0
H1045 H 0.06935 0.41114 0.33927 0.0
N1046 N 0.12224 0.41086 0.36289 0.0
C1047 C 0.1273 0.44306 0.34782 0.0
C1048 C 0.07862 0.38243 0.36147 0.0
C1049 C 0.14571 0.44339 0.35646 0.0
C1050 C 0.0837 0.41109 0.34594 0.0
C1051 C 0.05836 0.38116 0.3529 0.0
O1052 O 0.17976 0.47615 0.37472 0.0
O1053 O 0.21146 0.40688 0.37838 0.0
O1054 O 0.19341 0.37981 0.3964 0.0
O1055 O 0.13733 0.39323 0.39186 0.0
O1056 O 0.21135 0.46045 0.38318 0.0
O1057 O 0.1219 0.44356 0.3834 0.0
O1058 O 0.17666 0.28689 0.376 0.0
O1059 O 0.13904 0.34007 0.37992 0.0
O1060 O 0.167 0.38939 0.36402 0.0
O1061 O 0.20981 0.3581 0.36848 0.0
O1062 O 0.141 0.30273 0.39075 0.0
O1063 O 0.23121 0.30496 0.38499 0.0
C1064 C 0.23638 0.44408 0.38196 0.0
C1065 C 0.13616 0.51092 0.37589 0.0
C1066 C 0.14915 0.58596 0.37262 0.0
C1067 C 0.16379 0.55772 0.37626 0.0
C1068 C 0.10646 0.56654 0.3688 0.0
C1069 C 0.09394 0.49304 0.37197 0.0
C1070 C 0.07924 0.5207 0.36851 0.0
C1071 C 0.1641 0.39292 0.39819 0.0
C1072 C 0.15134 0.48109 0.37968 0.0
C1073 C 1.01302 0.35185 0.35171 0.0
C1074 C 0.98748 0.32651 0.35921 0.0
C1075 C 0.11455 0.30938 0.38569 0.0
C1076 C 0.18811 0.22775 0.381 0.0
C1077 C 0.21676 0.20968 0.38036 0.0
C1078 C 0.19977 0.16322 0.38087 0.0
C1079 C 0.15414 0.13566 0.38216 0.0
C1080 C 0.14287 0.1988 0.38248 0.0
C1081 C 0.12619 0.1533 0.38305 0.0
C1082 C 0.19188 0.37175 0.36202 0.0
C1083 C 0.2045 0.27568 0.37913 0.0
H1084 H 0.19671 0.57196 0.37915 0.0
H1085 H 0.09424 0.58705 0.36593 0.0
H1086 H 0.07224 0.4576 0.37158 0.0
H1087 H 0.04658 0.50649 0.36549 0.0
H1088 H 0.25179 0.23147 0.37925 0.0
H1089 H 0.14011 0.10021 0.38269 0.0
H1090 H 0.1201 0.21124 0.383 0.0
H1091 H 0.09117 0.13144 0.38413 0.0
Tb1092 Tb 0.68562 0.77537 0.37373 0.0
C1093 C 0.6891 0.92647 0.38692 0.0
C1094 C 0.70936 0.98671 0.37613 0.0
C1095 C 0.65285 0.97052 0.38773 0.0
C1096 C 0.71356 0.95087 0.37939 0.0
C1097 C 0.65906 0.93665 0.3913 0.0
C1098 C 0.67787 0.99544 0.38013 0.0
C1099 C 0.64374 0.87953 0.40249 0.0
N1100 N 0.69577 0.89371 0.39015 0.0
C1101 C 0.67362 0.87045 0.3979 0.0
C1102 C 0.63631 0.91269 0.39917 0.0
Tb1103 Tb 0.74874 0.88447 0.38258 0.0
N1104 N 0.74434 0.94212 0.37584 0.0
C1105 C 0.77636 0.97246 0.37002 0.0
C1106 C 0.73864 1.01431 0.36931 0.0
C1107 C 0.77299 1.00775 0.36641 0.0
H1108 H 0.67832 0.84469 0.4007 0.0
H1109 H 0.79731 0.03027 0.36151 0.0
H1110 H 0.67372 0.02236 0.37762 0.0
H1111 H 0.62633 0.86079 0.40859 0.0
H1112 H 0.8039 0.96847 0.36793 0.0
H1113 H 0.78795 0.71131 0.38772 0.0
H1114 H 0.73648 0.04212 0.36663 0.0
H1115 H 0.63525 0.75217 0.35308 0.0
H1116 H 0.73627 0.73811 0.38877 0.0
H1117 H 0.64672 0.73105 0.33745 0.0
H1118 H 0.62938 0.97825 0.3909 0.0
H1119 H 0.81357 0.70101 0.37242 0.0
H1120 H 0.80691 0.70002 0.35509 0.0
H1121 H 0.61302 0.91952 0.40272 0.0
H1122 H 0.76822 0.70525 0.3413 0.0
N1123 N 0.73119 0.74472 0.37408 0.0
C1124 C 0.74577 0.73386 0.38195 0.0
C1125 C 0.79031 0.7129 0.37279 0.0
C1126 C 0.773 0.72066 0.36474 0.0
C1127 C 0.77573 0.71844 0.38142 0.0
C1128 C 0.7428 0.7362 0.36562 0.0
H1129 H 0.70765 0.71575 0.33468 0.0
N1130 N 0.69011 0.75091 0.35912 0.0
C1131 C 0.66824 0.73355 0.34311 0.0
C1132 C 0.72137 0.73928 0.35787 0.0
C1133 C 0.66168 0.74535 0.35201 0.0
C1134 C 0.70276 0.72515 0.34157 0.0
C1135 C 0.72908 0.72675 0.34904 0.0
O1136 O 0.62489 0.7444 0.38101 0.0
O1137 O 0.68266 0.83205 0.37934 0.0
O1138 O 0.73593 0.8368 0.3946 0.0
O1139 O 0.68949 0.76661 0.38838 0.0
O1140 O 0.64851 0.80359 0.36731 0.0
O1141 O 0.63837 0.70824 0.37101 0.0
O1142 O 0.77634 0.92185 0.39488 0.0
O1143 O 0.75007 0.82366 0.37973 0.0
O1144 O 0.7146 0.81778 0.36163 0.0
O1145 O 0.74181 0.88932 0.36734 0.0
O1146 O 0.79955 0.88119 0.37441 0.0
O1147 O 0.81668 0.93339 0.38301 0.0
C1148 C 0.65652 0.8336 0.37338 0.0
C1149 C 0.56325 0.69029 0.37264 0.0
C1150 C 0.48344 0.63657 0.3726 0.0
C1151 C 0.52638 0.65182 0.37628 0.0
C1152 C 0.47817 0.66083 0.36542 0.0
C1153 C 0.55612 0.7132 0.36546 0.0
C1154 C 0.51416 0.69864 0.3619 0.0
C1155 C 0.70979 0.79259 0.39549 0.0
C1156 C 0.60856 0.70753 0.37649 0.0
C1157 C 0.76133 0.71432 0.34804 0.0
C1158 C 0.78333 0.71134 0.35589 0.0
C1159 C 0.78727 0.8402 0.37554 0.0
C1160 C 0.82956 0.99783 0.3913 0.0
C1161 C 0.87414 0.03115 0.38939 0.0
C1162 C 0.88623 0.07668 0.3888 0.0
C1163 C 0.85314 0.08783 0.38996 0.0
C1164 C 0.79869 1.01155 0.39307 0.0
C1165 C 0.81006 0.0557 0.39218 0.0
C1166 C 0.73165 0.86065 0.36042 0.0
C1167 C 0.81407 0.949 0.391 0.0
H1168 H 0.53108 0.63384 0.38187 0.0
H1169 H 0.44582 0.651 0.3626 0.0
H1170 H 0.58257 0.74278 0.36258 0.0
H1171 H 0.50945 0.71705 0.35641 0.0
H1172 H 0.89912 0.02181 0.38841 0.0
H1173 H 0.86117 0.12203 0.38964 0.0
H1174 H 0.76527 0.98803 0.39506 0.0
H1175 H 0.78534 0.06519 0.39337 0.0
Tb1176 Tb 0.32599 0.9404 0.37315 0.0
C1177 C 0.18111 0.82376 0.40019 0.0
C1178 C 0.14156 0.7505 0.39351 0.0
C1179 C 0.14391 0.75964 0.41026 0.0
C1180 C 0.16806 0.7967 0.39249 0.0
C1181 C 0.16834 0.80567 0.40918 0.0
C1182 C 0.13056 0.73207 0.40244 0.0
C1183 C 0.19761 0.8797 0.41514 0.0
N1184 N 0.20172 0.86796 0.39878 0.0
C1185 C 0.20814 0.89591 0.40607 0.0
C1186 C 0.17805 0.83437 0.41673 0.0
Tb1187 Tb 0.21755 0.89181 0.38365 0.0
N1188 N 0.17786 0.81595 0.38398 0.0
C1189 C 0.15977 0.79063 0.3762 0.0
C1190 C 0.1251 0.72442 0.38553 0.0
C1191 C 0.13386 0.74466 0.37684 0.0
H1192 H 0.22279 0.93099 0.4049 0.0
H1193 H 0.12063 0.7249 0.37062 0.0
H1194 H 0.11016 0.69669 0.40333 0.0
H1195 H 0.20407 0.90212 0.4209 0.0
H1196 H 0.1657 0.80532 0.36941 0.0
H1197 H 0.39569 0.11268 0.38277 0.0
H1198 H 0.10475 0.68883 0.38601 0.0
H1199 H 0.33339 0.8947 0.35342 0.0
H1200 H 0.36033 0.0334 0.38562 0.0
H1201 H 0.36056 0.91813 0.33753 0.0
H1202 H 0.13332 0.74522 0.41708 0.0
H1203 H 0.41828 0.1421 0.36686 0.0
H1204 H 0.42593 0.12759 0.35004 0.0
H1205 H 0.16897 0.82175 0.42374 0.0
H1206 H 0.41699 0.07468 0.33774 0.0
N1207 N 0.36029 1.01599 0.37136 0.0
C1208 C 0.36934 0.04482 0.37859 0.0
C1209 C 0.40227 0.1068 0.36804 0.0
C1210 C 0.39529 0.07761 0.36074 0.0
C1211 C 0.38967 0.09033 0.37702 0.0
C1212 C 0.37413 0.03194 0.36267 0.0
H1213 H 0.39338 0.9966 0.33305 0.0
N1214 N 0.3498 0.9592 0.35807 0.0
C1215 C 0.36309 0.94225 0.34259 0.0
C1216 C 0.36912 1.0025 0.35578 0.0
C1217 C 0.34765 0.92912 0.35166 0.0
C1218 C 0.38152 0.98653 0.34008 0.0
C1219 C 0.38507 0.01739 0.34673 0.0
O1220 O 0.36641 0.91169 0.37109 0.0
O1221 O 0.27105 0.88182 0.37947 0.0
O1222 O 0.26806 0.89977 0.39431 0.0
O1223 O 0.3313 0.95767 0.38784 0.0
O1224 O 0.30197 0.87194 0.36855 0.0
O1225 O 0.38511 0.9645 0.38079 0.0
O1226 O 0.17367 0.91374 0.38804 0.0
O1227 O 0.27023 0.95001 0.37697 0.0
O1228 O 0.28259 0.93618 0.36199 0.0
O1229 O 0.2149 0.88235 0.36813 0.0
O1230 O 0.2422 0.95945 0.38843 0.0
O1231 O 0.15861 0.8728 0.37609 0.0
C1232 C 0.27118 0.85184 0.37453 0.0
C1233 C 0.44362 0.9588 0.37351 0.0
C1234 C 0.51134 0.95488 0.37035 0.0
C1235 C 0.46648 0.9345 0.37329 0.0
C1236 C 0.53263 1.00002 0.36796 0.0
C1237 C 0.46608 1.00328 0.37079 0.0
C1238 C 0.51021 0.02366 0.36812 0.0
C1239 C 0.30978 0.93294 0.39502 0.0
C1240 C 0.39693 0.93851 0.37677 0.0
C1241 C 0.40481 0.06259 0.34467 0.0
C1242 C 0.40986 0.09268 0.35167 0.0
C1243 C 0.27005 0.98024 0.38191 0.0
C1244 C 0.09683 0.86431 0.38492 0.0
C1245 C 0.06128 0.86895 0.38126 0.0
C1246 C 1.0169 0.84159 0.38452 0.0
C1247 C 1.00945 0.80901 0.39117 0.0
C1248 C 0.08713 0.83249 0.3918 0.0
C1249 C 0.04408 0.80489 0.3948 0.0
C1250 C 0.24073 0.90539 0.36098 0.0
C1251 C 0.14396 0.89177 0.38172 0.0
H1252 H 0.44929 0.89997 0.37525 0.0
H1253 H 0.56708 0.01743 0.36594 0.0
H1254 H 0.44965 0.0226 0.37083 0.0
H1255 H 0.52727 0.05818 0.36617 0.0
H1256 H 0.06825 0.89395 0.37605 0.0
H1257 H 0.97645 0.78603 0.39359 0.0
H1258 H 0.11291 0.82877 0.3949 0.0
H1259 H 0.03749 0.77998 0.4 0.0
Tb1260 Tb 0.76305 0.81867 0.79307 0.0
C1261 C 0.68561 0.87619 0.7638 0.0
C1262 C 0.72615 0.95581 0.76219 0.0
C1263 C 0.6899 0.9093 0.74873 0.0
C1264 C 0.71137 0.91766 0.76769 0.0
C1265 C 0.67462 0.87142 0.7543 0.0
C1266 C 0.71558 0.9514 0.75267 0.0
C1267 C 0.63437 0.79217 0.75657 0.0
N1268 N 0.67249 0.84026 0.76936 0.0
C1269 C 0.64619 0.79861 0.76598 0.0
C1270 C 0.6488 0.82871 0.7507 0.0
Tb1271 Tb 0.69107 0.85455 0.78466 0.0
N1272 N 0.72084 0.92052 0.77693 0.0
C1273 C 0.74136 0.96072 0.78123 0.0
C1274 C 0.75024 0.99719 0.76646 0.0
C1275 C 0.75732 0.99963 0.77605 0.0
H1276 H 0.63439 0.77063 0.77057 0.0
H1277 H 0.77432 0.03141 0.7795 0.0
H1278 H 0.72668 0.98032 0.74832 0.0
H1279 H 0.61393 0.7591 0.75388 0.0
H1280 H 0.74403 0.96268 0.78871 0.0
H1281 H 0.67435 0.64149 0.79614 0.0
H1282 H 0.76224 0.02734 0.76248 0.0
H1283 H 0.82547 0.89761 0.80766 0.0
H1284 H 0.70508 0.71322 0.78799 0.0
H1285 H 0.85006 0.90442 0.82405 0.0
H1286 H 0.6819 0.90642 0.7414 0.0
H1287 H 0.69061 0.63986 0.81286 0.0
H1288 H 0.73071 0.68225 0.8273 0.0
H1289 H 0.63962 0.8236 0.74342 0.0
H1290 H 0.77962 0.7539 0.83485 0.0
N1291 N 0.73341 0.75126 0.80012 0.0
C1292 C 0.70988 0.71263 0.79537 0.0
C1293 C 0.70296 0.67127 0.80935 0.0
C1294 C 0.72953 0.71107 0.81404 0.0
C1295 C 0.69351 0.67207 0.79993 0.0
C1296 C 0.74467 0.75086 0.80912 0.0
H1297 H 0.82446 0.83725 0.83368 0.0
N1298 N 0.78552 0.82784 0.80822 0.0
C1299 C 0.82807 0.8722 0.82112 0.0
C1300 C 0.77248 0.79069 0.8133 0.0
C1301 C 0.81397 0.86836 0.81188 0.0
C1302 C 0.81368 0.83419 0.82653 0.0
C1303 C 0.78564 0.79266 0.82261 0.0
O1304 O 0.83265 0.84846 0.79237 0.0
O1305 O 0.75378 0.87556 0.79096 0.0
O1306 O 0.73202 0.84863 0.77306 0.0
O1307 O 0.74102 0.79308 0.77913 0.0
O1308 O 0.81396 0.88532 0.78853 0.0
O1309 O 0.79067 0.78284 0.78711 0.0
O1310 O 0.62198 0.8254 0.78515 0.0
O1311 O 0.69727 0.79538 0.78685 0.0
O1312 O 0.72554 0.82305 0.80499 0.0
O1313 O 0.71089 0.87664 0.79934 0.0
O1314 O 0.64285 0.79484 0.79164 0.0
O1315 O 0.66259 0.89449 0.78809 0.0
C1316 C 0.79139 0.90482 0.78829 0.0
C1317 C 0.86177 0.79965 0.79289 0.0
C1318 C 0.93697 0.81335 0.79617 0.0
C1319 C 0.90848 0.82726 0.79234 0.0
C1320 C 0.91799 0.77141 0.80033 0.0
C1321 C 0.84437 0.75816 0.79718 0.0
C1322 C 0.87229 0.74421 0.80081 0.0
C1323 C 0.74515 0.81889 0.77209 0.0
C1324 C 0.83133 0.81354 0.78882 0.0
C1325 C 0.7701 0.75323 0.82766 0.0
C1326 C 0.74211 0.71246 0.82337 0.0
C1327 C 0.66023 0.77048 0.79075 0.0
C1328 C 0.59029 0.86999 0.78137 0.0
C1329 C 0.56592 0.88922 0.78522 0.0
C1330 C 0.53347 0.89248 0.77977 0.0
C1331 C 0.52579 0.8758 0.77065 0.0
C1332 C 0.58096 0.85409 0.7722 0.0
C1333 C 0.54929 0.85704 0.76692 0.0
C1334 C 0.71349 0.85307 0.80641 0.0
C1335 C 0.62214 0.86213 0.78695 0.0
H1336 H 0.92247 0.85956 0.78915 0.0
H1337 H 0.93878 0.75978 0.80333 0.0
H1338 H 0.80906 0.73623 0.79771 0.0
H1339 H 0.85839 0.71213 0.80409 0.0
H1340 H 0.57219 0.90153 0.79229 0.0
H1341 H 0.50129 0.87743 0.76631 0.0
H1342 H 0.59718 0.83799 0.7691 0.0
H1343 H 0.54263 0.8443 0.75988 0.0
Tb1344 Tb 0.29012 0.98371 0.79467 0.0
C1345 C 0.16217 0.83667 0.76967 0.0
C1346 C 0.09293 0.79835 0.77803 0.0
C1347 C 0.09287 0.79851 0.76118 0.0
C1348 C 0.13948 0.82429 0.77798 0.0
C1349 C 0.13921 0.82272 0.76116 0.0
C1350 C 0.06974 0.78657 0.76959 0.0
C1351 C 0.20932 0.85014 0.75339 0.0
N1352 N 0.20688 0.85751 0.76998 0.0
C1353 C 0.23046 0.86207 0.76203 0.0
C1354 C 0.16349 0.83095 0.75294 0.0
Tb1355 Tb 0.23891 0.8744 0.78444 0.0
N1356 N 0.16315 0.83547 0.78598 0.0
C1357 C 0.14178 0.8195 0.7943 0.0
C1358 C 0.07112 0.7839 0.78654 0.0
C1359 C 0.09573 0.79417 0.7947 0.0
H1360 H 0.26591 0.87629 0.76236 0.0
H1361 H 0.07925 0.78257 0.80133 0.0
H1362 H 0.03402 0.76687 0.7695 0.0
H1363 H 0.22834 0.85523 0.74711 0.0
H1364 H 0.15946 0.82624 0.80075 0.0
H1365 H 0.46432 0.04648 0.78897 0.0
H1366 H 0.03545 0.76415 0.78688 0.0
H1367 H 0.24348 1.00927 0.81218 0.0
H1368 H 0.38707 0.01946 0.78436 0.0
H1369 H 0.25949 0.03123 0.82854 0.0
H1370 H 0.07466 0.78703 0.75475 0.0
H1371 H 0.48521 0.05798 0.8056 0.0
H1372 H 0.46316 0.06131 0.82215 0.0
H1373 H 0.14706 0.82086 0.74626 0.0
H1374 H 0.40689 0.05768 0.83302 0.0
N1375 N 0.36349 1.01227 0.79824 0.0
C1376 C 0.39543 0.02335 0.79165 0.0
C1377 C 0.45111 0.04552 0.80361 0.0
C1378 C 0.41907 0.03849 0.81027 0.0
C1379 C 0.43945 0.03915 0.79423 0.0
C1380 C 0.37525 0.02234 0.80728 0.0
H1381 H 0.33082 0.04732 0.83543 0.0
N1382 N 0.30381 1.00918 0.80979 0.0
C1383 C 0.28349 0.02799 0.82436 0.0
C1384 C 0.3442 0.02103 0.8133 0.0
C1385 C 0.2744 1.01505 0.81504 0.0
C1386 C 0.32374 0.03698 0.82823 0.0
C1387 C 0.35523 0.03475 0.82261 0.0
O1388 O 0.25906 0.02162 0.79234 0.0
O1389 O 0.23086 0.92896 0.78856 0.0
O1390 O 0.24808 0.92596 0.77387 0.0
O1391 O 0.30901 0.98642 0.78019 0.0
O1392 O 0.22231 0.96266 0.79915 0.0
O1393 O 0.32734 0.04802 0.7892 0.0
O1394 O 0.25853 0.83074 0.77881 0.0
O1395 O 0.29862 0.92666 0.79095 0.0
O1396 O 0.27651 0.94238 0.80665 0.0
O1397 O 0.23499 0.8716 0.80005 0.0
O1398 O 0.30537 0.89699 0.77928 0.0
O1399 O 0.22133 0.81428 0.79139 0.0
C1400 C 0.20149 0.93049 0.79347 0.0
C1401 C 0.30456 0.09881 0.79396 0.0
C1402 C 0.29032 0.161 0.79496 0.0
C1403 C 0.28113 0.12 0.79106 0.0
C1404 C 0.32372 0.18025 0.80176 0.0
C1405 C 0.33701 0.11863 0.80086 0.0
C1406 C 0.34651 0.15909 0.8047 0.0
C1407 C 0.28217 0.96726 0.77316 0.0
C1408 C 0.29505 0.05632 0.7897 0.0
C1409 C 0.39785 0.04754 0.82586 0.0
C1410 C 0.42983 0.04949 0.81968 0.0
C1411 C 0.32739 0.92511 0.78569 0.0
C1412 C 0.20921 0.75365 0.78163 0.0
C1413 C 0.21159 0.71687 0.78527 0.0
C1414 C 0.18331 0.67305 0.78183 0.0
C1415 C 0.152 0.66735 0.775 0.0
C1416 C 0.17883 0.74577 0.77452 0.0
C1417 C 0.15022 0.70325 0.77135 0.0
C1418 C 0.25125 0.89922 0.8073 0.0
C1419 C 0.23803 0.80017 0.78507 0.0
H1420 H 0.25554 0.10423 0.78585 0.0
H1421 H 0.33288 0.21213 0.80475 0.0
H1422 H 0.35531 0.10303 0.80325 0.0
H1423 H 0.37195 0.17435 0.80995 0.0
H1424 H 0.23571 0.72254 0.7906 0.0
H1425 H 0.12832 0.63485 0.77244 0.0
H1426 H 0.17715 0.77251 0.77133 0.0
H1427 H 0.12642 0.69807 0.76598 0.0
Tb1428 Tb 0.12294 0.34124 0.79176 0.0
C1429 C 0.2729 0.36021 0.77445 0.0
C1430 C 0.31217 0.34105 0.78566 0.0
C1431 C 0.30752 0.3176 0.76964 0.0
C1432 C 0.28668 0.36101 0.78346 0.0
C1433 C 0.28454 0.33971 0.76737 0.0
C1434 C 0.32148 0.31843 0.77877 0.0
C1435 C 0.25773 0.37134 0.75611 0.0
N1436 N 0.25157 0.38276 0.7725 0.0
C1437 C 0.2479 0.39181 0.76334 0.0
C1438 C 0.27501 0.3441 0.75815 0.0
Tb1439 Tb 0.23438 0.41327 0.78512 0.0
N1440 N 0.27652 0.38265 0.78999 0.0
C1441 C 0.29542 0.38937 0.79865 0.0
C1442 C 0.32831 0.34507 0.79469 0.0
C1443 C 0.32054 0.37003 0.80116 0.0
H1444 H 0.23822 0.41562 0.76141 0.0
H1445 H 0.33444 0.37497 0.80808 0.0
H1446 H 0.34027 0.30229 0.78039 0.0
H1447 H 0.25309 0.37764 0.74895 0.0
H1448 H 0.29299 0.41075 0.8037 0.0
H1449 H 0.04089 0.40316 0.76939 0.0
H1450 H 0.34785 0.33016 0.79666 0.0
H1451 H 0.10396 0.32265 0.81497 0.0
H1452 H 0.07056 0.35536 0.77354 0.0
H1453 H 0.09056 0.35867 0.82819 0.0
H1454 H 0.31608 0.30118 0.76432 0.0
H1455 H 0.03566 0.45159 0.78126 0.0
H1456 H 0.04379 0.47514 0.79799 0.0
H1457 H 0.28344 0.32895 0.75253 0.0
H1458 H 0.05877 0.46385 0.81416 0.0
N1459 N 0.08775 0.37951 0.78741 0.0
C1460 C 0.07118 0.37777 0.7787 0.0
C1461 C 0.04983 0.43122 0.78308 0.0
C1462 C 0.06287 0.42981 0.79219 0.0
C1463 C 0.05294 0.40413 0.77636 0.0
C1464 C 0.08108 0.40262 0.79418 0.0
H1465 H 0.07564 0.41991 0.82555 0.0
N1466 N 0.10326 0.3669 0.8048 0.0
C1467 C 0.09122 0.37048 0.82121 0.0
C1468 C 0.08993 0.39668 0.8032 0.0
C1469 C 0.09964 0.35064 0.81364 0.0
C1470 C 0.08282 0.40498 0.81969 0.0
C1471 C 0.08022 0.41722 0.81058 0.0
O1472 O 0.08542 0.28293 0.79957 0.0
O1473 O 0.18858 0.34881 0.79038 0.0
O1474 O 0.18704 0.39805 0.77296 0.0
O1475 O 0.12375 0.33333 0.77703 0.0
O1476 O 0.13729 0.29161 0.78587 0.0
O1477 O 0.0607 0.29343 0.7867 0.0
O1478 O 0.2677 0.46927 0.77642 0.0
O1479 O 0.16965 0.40827 0.78652 0.0
O1480 O 0.16414 0.35207 0.80405 0.0
O1481 O 0.23126 0.41467 0.80056 0.0
O1482 O 0.22287 0.4596 0.79295 0.0
O1483 O 0.29813 0.4644 0.78889 0.0
C1484 C 0.17929 0.31195 0.7869 0.0
C1485 C 1.00789 0.2388 0.79673 0.0
C1486 C 0.93947 0.16681 0.79656 0.0
C1487 C 0.9839 0.19428 0.79388 0.0
C1488 C 0.91968 0.18508 0.80221 0.0
C1489 C 0.98748 0.2562 0.80232 0.0
C1490 C 0.94355 0.22931 0.80506 0.0
C1491 C 0.14906 0.36143 0.77071 0.0
C1492 C 0.05368 0.26611 0.79347 0.0
C1493 C 0.06555 0.44712 0.80861 0.0
C1494 C 0.05686 0.45341 0.79941 0.0
C1495 C 0.18203 0.44447 0.79093 0.0
C1496 C 0.34751 0.50742 0.77676 0.0
C1497 C 0.38692 0.53707 0.78159 0.0
C1498 C 0.42866 0.56005 0.77696 0.0
C1499 C 0.42919 0.55137 0.76738 0.0
C1500 C 0.35038 0.49966 0.76729 0.0
C1501 C 0.39082 0.52123 0.7627 0.0
C1502 C 0.20256 0.38585 0.80661 0.0
C1503 C 0.30344 0.48753 0.78147 0.0
H1504 H 1.00015 0.18102 0.78961 0.0
H1505 H 0.8855 0.16543 0.80432 0.0
H1506 H 1.00537 0.29044 0.80451 0.0
H1507 H 0.92777 0.24288 0.80936 0.0
H1508 H 0.3844 0.54222 0.78892 0.0
H1509 H 0.45889 0.5686 0.76327 0.0
H1510 H 0.32123 0.47766 0.76335 0.0
H1511 H 0.3923 0.51537 0.75535 0.0
Tb1512 Tb 0.23853 0.40633 0.28478 0.0
C1513 C 0.36298 0.387 0.30955 0.0
C1514 C 0.43325 0.4297 0.30186 0.0
C1515 C 0.42944 0.42999 0.31872 0.0
C1516 C 0.38689 0.40268 0.30145 0.0
C1517 C 0.38433 0.39836 0.31826 0.0
C1518 C 0.45397 0.44564 0.3105 0.0
C1519 C 0.31838 0.33833 0.32502 0.0
N1520 N 0.32023 0.35493 0.30876 0.0
C1521 C 0.29922 0.32775 0.31617 0.0
C1522 C 0.36066 0.3748 0.32612 0.0
Tb1523 Tb 0.28955 0.34579 0.29424 0.0
N1524 N 0.36569 0.38497 0.2933 0.0
C1525 C 0.39004 0.38654 0.28569 0.0
C1526 C 0.45769 0.43605 0.29375 0.0
C1527 C 0.43615 0.41264 0.28575 0.0
H1528 H 0.2667 0.29927 0.31527 0.0
H1529 H 0.45497 0.41497 0.27958 0.0
H1530 H 0.4894 0.46733 0.31093 0.0
H1531 H 0.30067 0.31823 0.33095 0.0
H1532 H 0.37481 0.36855 0.27941 0.0
H1533 H 0.07202 0.32029 0.29849 0.0
H1534 H 0.49337 0.45618 0.29377 0.0
H1535 H 0.27207 0.44747 0.26367 0.0
H1536 H 0.15278 0.36475 0.29938 0.0
H1537 H 0.24131 0.43462 0.24778 0.0
H1538 H 0.44628 0.43996 0.32535 0.0
H1539 H 0.03512 0.29493 0.28324 0.0
H1540 H 0.04159 0.29614 0.26583 0.0
H1541 H 0.37581 0.38249 0.33294 0.0
H1542 H 0.08809 0.32678 0.25187 0.0
N1543 N 0.16267 0.36455 0.28473 0.0
C1544 C 0.13759 0.35443 0.29264 0.0
C1545 C 0.07079 0.3147 0.28357 0.0
C1546 C 0.09633 0.3273 0.27548 0.0
C1547 C 0.0915 0.32908 0.29218 0.0
C1548 C 0.14265 0.35294 0.27631 0.0
H1549 H 0.16274 0.37933 0.24507 0.0
N1550 N 0.21229 0.3979 0.26982 0.0
C1551 C 0.22052 0.41582 0.25354 0.0
C1552 C 0.16857 0.36976 0.26854 0.0
C1553 C 0.23782 0.42304 0.26255 0.0
C1554 C 0.17622 0.38445 0.25204 0.0
C1555 C 0.14929 0.36191 0.25963 0.0
O1556 O 0.25945 0.4726 0.28107 0.0
O1557 O 0.29909 0.41144 0.2906 0.0
O1558 O 0.27184 0.37171 0.30628 0.0
O1559 O 0.23186 0.40344 0.30026 0.0
O1560 O 0.30449 0.45319 0.27995 0.0
O1561 O 0.21332 0.44188 0.29207 0.0
O1562 O 0.30457 0.29591 0.29782 0.0
O1563 O 0.23054 0.34334 0.28896 0.0
O1564 O 0.24856 0.36822 0.2734 0.0
O1565 O 0.30455 0.35761 0.27948 0.0
O1566 O 0.22266 0.30283 0.29986 0.0
O1567 O 0.26033 0.28556 0.28672 0.0
C1568 C 0.32689 0.44279 0.28539 0.0
C1569 C 0.20643 0.49611 0.28325 0.0
C1570 C 0.18244 0.55238 0.28321 0.0
C1571 C 0.20801 0.53461 0.2871 0.0
C1572 C 0.15624 0.53077 0.27536 0.0
C1573 C 0.17889 0.47581 0.2756 0.0
C1574 C 0.15423 0.49292 0.27171 0.0
C1575 C 0.24742 0.39052 0.30731 0.0
C1576 C 0.2336 0.47711 0.28694 0.0
C1577 C 0.10351 0.3338 0.25867 0.0
C1578 C 0.07703 0.31649 0.2666 0.0
C1579 C 0.20135 0.31328 0.29403 0.0
C1580 C 0.29218 0.23916 0.2869 0.0
C1581 C 0.26775 0.19276 0.28817 0.0
C1582 C 0.27951 0.16447 0.28345 0.0
C1583 C 0.3163 0.18368 0.27748 0.0
C1584 C 0.32895 0.25711 0.281 0.0
C1585 C 0.34086 0.22951 0.27633 0.0
C1586 C 0.27965 0.35679 0.27251 0.0
C1587 C 0.27821 0.26784 0.2917 0.0
H1588 H 0.2289 0.55034 0.29307 0.0
H1589 H 0.13776 0.54356 0.2718 0.0
H1590 H 0.17676 0.44689 0.27249 0.0
H1591 H 0.13377 0.47699 0.26569 0.0
H1592 H 0.23933 0.17871 0.29275 0.0
H1593 H 0.32672 0.1633 0.27383 0.0
H1594 H 0.34819 0.29237 0.27993 0.0
H1595 H 0.36922 0.24372 0.27175 0.0
Tb1596 Tb 0.70156 0.8752 0.28378 0.0
C1597 C 0.71431 0.01882 0.31009 0.0
C1598 C 0.66487 0.03886 0.30271 0.0
C1599 C 0.67241 0.04282 0.31953 0.0
C1600 C 0.69527 0.0235 0.30217 0.0
C1601 C 0.70434 0.02976 0.31886 0.0
C1602 C 0.65262 0.04732 0.31145 0.0
C1603 C 0.76215 0.01957 0.32541 0.0
N1604 N 0.74509 1.00647 0.30911 0.0
C1605 C 0.77101 1.00953 0.31653 0.0
C1606 C 0.72799 0.02887 0.32662 0.0
Tb1607 Tb 0.75459 0.98548 0.29451 0.0
N1608 N 0.70826 1.01504 0.2939 0.0
C1609 C 0.69429 0.02494 0.28581 0.0
C1610 C 0.64855 0.04624 0.29446 0.0
C1611 C 0.66393 0.03996 0.28598 0.0
H1612 H 0.79803 1.00324 0.31562 0.0
H1613 H 0.65226 0.04648 0.27954 0.0
H1614 H 0.6289 0.05856 0.31201 0.0
H1615 H 0.78181 0.02036 0.33129 0.0
H1616 H 0.705 0.02038 0.27911 0.0
H1617 H 0.786 0.78616 0.29283 0.0
H1618 H 0.62502 0.05784 0.29456 0.0
H1619 H 0.65804 0.87843 0.26333 0.0
H1620 H 0.74115 0.82126 0.29576 0.0
H1621 H 0.66614 0.86463 0.2469 0.0
H1622 H 0.6638 0.05082 0.32621 0.0
H1623 H 0.81101 0.78351 0.27688 0.0
H1624 H 0.8065 0.79562 0.25977 0.0
H1625 H 0.72133 0.03697 0.33348 0.0
H1626 H 0.77261 0.81604 0.24715 0.0
N1627 N 0.74284 0.84116 0.28171 0.0
C1628 C 0.75236 0.82111 0.28877 0.0
C1629 C 0.79166 0.79941 0.27814 0.0
C1630 C 0.77818 0.81608 0.27079 0.0
C1631 C 0.77753 0.80076 0.28714 0.0
C1632 C 0.75295 0.8364 0.27284 0.0
H1633 H 0.71885 0.84029 0.2423 0.0
N1634 N 0.70674 0.86332 0.26817 0.0
C1635 C 0.68566 0.86001 0.25213 0.0
C1636 C 0.73385 0.84752 0.26578 0.0
C1637 C 0.68119 0.86781 0.26151 0.0
C1638 C 0.71556 0.84642 0.24956 0.0
C1639 C 0.73953 0.83921 0.25643 0.0
O1640 O 0.63334 0.83191 0.28139 0.0
O1641 O 0.69281 0.92662 0.29044 0.0
O1642 O 0.72144 0.93864 0.30567 0.0
O1643 O 0.71033 0.87194 0.29914 0.0
O1644 O 0.65399 0.89478 0.27934 0.0
O1645 O 0.66893 0.81151 0.29004 0.0
O1646 O 0.79268 0.04367 0.28675 0.0
O1647 O 0.76072 0.93004 0.2895 0.0
O1648 O 0.74451 0.92555 0.27318 0.0
O1649 O 0.74885 0.98895 0.27947 0.0
O1650 O 0.80703 0.97146 0.2986 0.0
O1651 O 0.8183 0.03226 0.29925 0.0
C1652 C 0.66086 0.92355 0.28563 0.0
C1653 C 0.60811 0.75461 0.2815 0.0
C1654 C 0.54938 0.67504 0.28076 0.0
C1655 C 0.57238 0.71619 0.28571 0.0
C1656 C 0.56289 0.67469 0.27151 0.0
C1657 C 0.62085 0.75103 0.27246 0.0
C1658 C 0.59837 0.71172 0.26753 0.0
C1659 C 0.7127 0.89729 0.30637 0.0
C1660 C 0.63106 0.79915 0.28613 0.0
C1661 C 0.76732 0.82212 0.2543 0.0
C1662 C 0.78669 0.81058 0.26148 0.0
C1663 C 0.79638 0.93759 0.29347 0.0
C1664 C 0.87004 0.06964 0.28734 0.0
C1665 C 0.90995 0.10761 0.29007 0.0
C1666 C 0.95078 0.11793 0.28585 0.0
C1667 C 0.95042 0.08936 0.27888 0.0
C1668 C 0.87138 0.04192 0.28045 0.0
C1669 C 0.91117 0.05192 0.27622 0.0
C1670 C 0.75444 0.9677 0.27251 0.0
C1671 C 0.82747 0.05742 0.29201 0.0
H1672 H 0.56277 0.71859 0.29274 0.0
H1673 H 0.54559 0.64598 0.2671 0.0
H1674 H 0.64768 0.77909 0.26907 0.0
H1675 H 0.60807 0.71013 0.26045 0.0
H1676 H 0.90912 0.12885 0.29546 0.0
H1677 H 0.98079 0.09516 0.27562 0.0
H1678 H 0.84171 1.01207 0.27842 0.0
H1679 H 0.91171 0.03007 0.27094 0.0
Tb1680 Tb 0.23026 0.86247 0.28421 0.0
C1681 C 0.0561 0.71928 0.29507 0.0
C1682 C 0.99351 0.69604 0.28477 0.0
C1683 C 0.99659 0.6428 0.29514 0.0
C1684 C 0.03496 0.72882 0.28812 0.0
C1685 C 0.03717 0.67609 0.29867 0.0
C1686 C 0.9747 0.6528 0.28823 0.0
C1687 C 0.09949 0.70211 0.30905 0.0
N1688 N 0.09511 0.75243 0.29832 0.0
C1689 C 0.11675 0.7445 0.30532 0.0
C1690 C 0.05955 0.66772 0.30571 0.0
Tb1691 Tb 0.1192 0.82064 0.29187 0.0
N1692 N 0.05441 0.7708 0.28489 0.0
C1693 C 0.03191 0.78337 0.27899 0.0
C1694 C 0.9717 0.70804 0.27825 0.0
C1695 C 0.99071 0.75207 0.27545 0.0
H1696 H 0.148 0.77028 0.30791 0.0
H1697 H 0.97365 0.76194 0.27059 0.0
H1698 H 0.94301 0.62702 0.2857 0.0
H1699 H 0.11712 0.69596 0.31449 0.0
H1700 H 0.04633 0.81747 0.27687 0.0
H1701 H 0.31175 0.03167 0.29699 0.0
H1702 H 0.93976 0.68385 0.27551 0.0
H1703 H 0.2361 0.82302 0.26346 0.0
H1704 H 0.26757 0.95215 0.29841 0.0
H1705 H 0.26157 0.85189 0.24767 0.0
H1706 H 0.9816 0.60937 0.29779 0.0
H1707 H 0.33725 0.06618 0.28159 0.0
H1708 H 0.342 0.05719 0.26451 0.0
H1709 H 0.04627 0.63493 0.30863 0.0
H1710 H 0.32641 1.00837 0.25099 0.0
N1711 N 0.26747 0.93868 0.28389 0.0
C1712 C 0.27865 0.96521 0.2916 0.0
C1713 C 0.31801 0.03052 0.28215 0.0
C1714 C 0.30751 1.00365 0.27429 0.0
C1715 C 0.30382 1.01117 0.29084 0.0
C1716 C 0.28214 0.95732 0.27538 0.0
H1717 H 0.29598 0.93197 0.24463 0.0
N1718 N 0.2519 0.88562 0.26918 0.0
C1719 C 0.26466 0.87418 0.25323 0.0
C1720 C 0.27333 0.92992 0.26776 0.0
C1721 C 0.25008 0.85796 0.26218 0.0
C1722 C 0.28398 0.91935 0.25154 0.0
C1723 C 0.28978 0.94798 0.25889 0.0
O1724 O 0.29464 0.87674 0.28027 0.0
O1725 O 0.17324 0.80553 0.29032 0.0
O1726 O 0.15884 0.84196 0.30445 0.0
O1727 O 0.23212 0.87734 0.2993 0.0
O1728 O 0.20661 0.79545 0.27958 0.0
O1729 O 0.267 0.84341 0.29289 0.0
O1730 O 0.08241 0.81534 0.30397 0.0
O1731 O 0.18249 0.88034 0.28868 0.0
O1732 O 0.18173 0.84259 0.27214 0.0
O1733 O 0.11264 0.79253 0.27823 0.0
O1734 O 0.12668 0.8734 0.28245 0.0
O1735 O 0.0868 0.85805 0.29293 0.0
C1736 C 0.17462 0.77557 0.28537 0.0
C1737 C 0.34604 0.88809 0.29227 0.0
C1738 C 0.42576 0.91199 0.29398 0.0
C1739 C 0.38414 0.88603 0.28946 0.0
C1740 C 0.42793 0.93991 0.30128 0.0
C1741 C 0.3503 0.91674 0.29952 0.0
C1742 C 0.39074 0.9422 0.30399 0.0
C1743 C 0.20176 0.8646 0.30599 0.0
C1744 C 0.30203 0.86064 0.28768 0.0
C1745 C 0.31347 0.99398 0.25774 0.0
C1746 C 0.32245 0.02175 0.26543 0.0
C1747 C 0.16837 0.89948 0.28339 0.0
C1748 C 1.01769 0.82085 0.30067 0.0
C1749 C 0.99828 0.84683 0.29812 0.0
C1750 C 0.95166 0.8287 0.29836 0.0
C1751 C 0.92519 0.7842 0.30095 0.0
C1752 C 0.98969 0.77658 0.30323 0.0
C1753 C 0.94401 0.75852 0.3033 0.0
C1754 C 0.13898 0.8117 0.27113 0.0
C1755 C 0.06674 0.83939 0.30058 0.0
H1756 H 0.38121 0.86406 0.28384 0.0
H1757 H 0.45884 0.96106 0.3048 0.0
H1758 H 0.32225 0.91949 0.30173 0.0
H1759 H 0.39337 0.96421 0.30957 0.0
H1760 H 1.01929 0.88104 0.29614 0.0
H1761 H 0.88955 0.769 0.30108 0.0
H1762 H 1.00299 0.75561 0.30517 0.0
H1763 H 0.92296 0.72428 0.30524 0.0
Tb1764 Tb 0.74168 0.89012 0.8839 0.0
C1765 C 0.69504 0.99807 0.85643 0.0
C1766 C 0.73993 0.07364 0.86152 0.0
C1767 C 0.71754 0.05791 0.84533 0.0
C1768 C 0.71762 0.02791 0.86337 0.0
C1769 C 0.6939 1.01253 0.84735 0.0
C1770 C 0.74056 0.08846 0.85242 0.0
C1771 C 0.6436 0.93661 0.84317 0.0
N1772 N 0.67257 0.95472 0.85871 0.0
C1773 C 0.64581 0.92398 0.85229 0.0
C1774 C 0.66814 0.98105 0.84065 0.0
Tb1775 Tb 0.67803 0.93671 0.8738 0.0
N1776 N 0.71546 1.0121 0.87207 0.0
C1777 C 0.73252 0.04076 0.87939 0.0
C1778 C 0.75962 0.103 0.86893 0.0
C1779 C 0.7553 0.08646 0.87792 0.0
H1780 H 0.62704 0.88946 0.8541 0.0
H1781 H 0.76949 0.10886 0.88375 0.0
H1782 H 0.7578 0.12344 0.85083 0.0
H1783 H 0.62317 0.91201 0.83808 0.0
H1784 H 0.7293 0.02884 0.88641 0.0
H1785 H 0.67275 0.71841 0.87434 0.0
H1786 H 0.77709 0.13839 0.86782 0.0
H1787 H 0.78022 0.93964 0.90447 0.0
H1788 H 0.70718 0.79827 0.87154 0.0
H1789 H 0.77685 0.91797 0.92079 0.0
H1790 H 0.71741 0.06975 0.83838 0.0
H1791 H 0.65611 0.68943 0.8904 0.0
H1792 H 0.66363 0.70525 0.90751 0.0
H1793 H 0.66639 0.99076 0.83359 0.0
H1794 H 0.69299 0.76 0.9202 0.0
N1795 N 0.70779 0.81487 0.88582 0.0
C1796 C 0.69957 0.78626 0.87859 0.0
C1797 C 0.67081 0.7246 0.8892 0.0
C1798 C 0.68252 0.75422 0.89663 0.0
C1799 C 0.68029 0.74083 0.88014 0.0
C1800 C 0.70151 0.79971 0.89468 0.0
H1801 H 0.73537 0.83915 0.92521 0.0
N1802 N 0.73916 0.87369 0.89949 0.0
C1803 C 0.7599 0.89294 0.91552 0.0
C1804 C 0.71794 0.83023 0.90178 0.0
C1805 C 0.76167 0.90506 0.9062 0.0
C1806 C 0.73633 0.84845 0.91799 0.0
C1807 C 0.71573 0.8164 0.91107 0.0
O1808 O 0.81077 0.92083 0.88597 0.0
O1809 O 0.74427 0.94804 0.87741 0.0
O1810 O 0.71642 0.9315 0.86247 0.0
O1811 O 0.7308 0.87762 0.86851 0.0
O1812 O 0.78349 0.95813 0.88854 0.0
O1813 O 0.7785 0.86393 0.87741 0.0
O1814 O 0.60859 0.90581 0.87219 0.0
O1815 O 0.67938 0.87892 0.87879 0.0
O1816 O 0.69649 0.89263 0.89464 0.0
O1817 O 0.69056 0.95096 0.88862 0.0
O1818 O 0.62951 0.86824 0.87013 0.0
O1819 O 0.64262 0.95939 0.88177 0.0
C1820 C 0.77421 0.97869 0.88237 0.0
C1821 C 0.84065 0.87248 0.88617 0.0
C1822 C 0.89743 0.84916 0.88662 0.0
C1823 C 0.87301 0.86538 0.8816 0.0
C1824 C 0.88897 0.84152 0.89623 0.0
C1825 C 0.83324 0.86294 0.89567 0.0
C1826 C 0.85708 0.84779 0.90063 0.0
C1827 C 0.727 0.90026 0.86138 0.0
C1828 C 0.81558 0.89141 0.88137 0.0
C1829 C 0.69484 0.77113 0.91311 0.0
C1830 C 0.67817 0.74003 0.90589 0.0
C1831 C 0.64447 0.84828 0.8751 0.0
C1832 C 0.57348 0.94759 0.87571 0.0
C1833 C 0.52691 0.9184 0.87558 0.0
C1834 C 0.49767 0.93424 0.87339 0.0
C1835 C 0.51571 0.97943 0.87148 0.0
C1836 C 0.59003 0.99242 0.87369 0.0
C1837 C 0.56131 1.00813 0.87165 0.0
C1838 C 0.68573 0.92418 0.89554 0.0
C1839 C 0.6044 0.93137 0.87817 0.0
H1840 H 0.879 0.87244 0.87424 0.0
H1841 H 0.90776 0.83153 0.90055 0.0
H1842 H 0.80965 0.86824 0.89941 0.0
H1843 H 0.85131 0.84154 0.90801 0.0
H1844 H 0.51363 0.88359 0.87701 0.0
H1845 H 0.49431 0.99252 0.86973 0.0
H1846 H 0.62526 1.01544 0.87371 0.0
H1847 H 0.57451 0.0428 0.87012 0.0
Tb1848 Tb 0.19976 0.87375 0.88352 0.0
C1849 C 0.07977 0.7376 0.85494 0.0
C1850 C 1.00594 0.71167 0.86055 0.0
C1851 C 1.02005 0.71737 0.84392 0.0
C1852 C 0.0514 0.72892 0.86221 0.0
C1853 C 0.06444 0.73043 0.84569 0.0
C1854 C 0.99071 0.70789 0.85137 0.0
C1855 C 0.13559 0.74189 0.84092 0.0
N1856 N 0.12172 0.74863 0.85706 0.0
C1857 C 0.1488 0.74794 0.85025 0.0
C1858 C 0.09352 0.73414 0.8386 0.0
Tb1859 Tb 0.14327 0.76449 0.87239 0.0
N1860 N 0.0676 0.73175 0.87088 0.0
C1861 C 0.03886 0.71194 0.87809 0.0
C1862 C 0.97696 0.69575 0.8681 0.0
C1863 C 0.99337 0.69448 0.87686 0.0
H1864 H 0.18124 0.75354 0.85198 0.0
H1865 H 0.97107 0.6802 0.88269 0.0
H1866 H 0.95603 0.69544 0.84994 0.0
H1867 H 0.15782 0.74305 0.83554 0.0
H1868 H 0.05053 0.71007 0.88489 0.0
H1869 H 0.37013 0.96535 0.87225 0.0
H1870 H 0.94176 0.68203 0.86715 0.0
H1871 H 0.15768 0.86644 0.90458 0.0
H1872 H 0.28984 0.92625 0.87022 0.0
H1873 H 0.18321 0.87663 0.92086 0.0
H1874 H 1.00764 0.7123 0.83686 0.0
H1875 H 0.40242 0.97175 0.88785 0.0
H1876 H 0.39042 0.95685 0.90499 0.0
H1877 H 0.08315 0.72897 0.8314 0.0
H1878 H 0.33895 0.93144 0.91833 0.0
N1879 N 0.27545 0.90921 0.88456 0.0
C1880 C 0.30285 0.92846 0.87711 0.0
C1881 C 0.36686 0.95452 0.88702 0.0
C1882 C 0.33881 0.9366 0.89468 0.0
C1883 C 0.34875 0.95102 0.87821 0.0
C1884 C 0.29279 0.91462 0.89321 0.0
H1885 H 0.26182 0.90281 0.92432 0.0
N1886 N 0.22086 0.88495 0.89886 0.0
C1887 C 0.20638 0.88355 0.91524 0.0
C1888 C 0.26431 0.90143 0.90064 0.0
C1889 C 0.19209 0.87805 0.906 0.0
C1890 C 0.2507 0.89812 0.91717 0.0
C1891 C 0.28051 0.90834 0.90982 0.0
O1892 O 0.18245 0.92096 0.88798 0.0
O1893 O 0.13884 0.82195 0.87721 0.0
O1894 O 0.15615 0.81307 0.86162 0.0
O1895 O 0.21269 0.8781 0.86828 0.0
O1896 O 0.13382 0.85782 0.88795 0.0
O1897 O 0.2221 0.93296 0.87586 0.0
O1898 O 0.12079 0.70566 0.88014 0.0
O1899 O 0.20337 0.81742 0.87854 0.0
O1900 O 0.1894 0.82051 0.89358 0.0
O1901 O 0.12709 0.7607 0.88721 0.0
O1902 O 0.2111 0.78175 0.86833 0.0
O1903 O 0.16303 0.71863 0.86845 0.0
C1904 C 0.11116 0.82677 0.88217 0.0
C1905 C 0.23469 0.99647 0.8846 0.0
C1906 C 0.25845 0.07658 0.88441 0.0
C1907 C 0.22959 0.03226 0.88133 0.0
C1908 C 0.29271 0.08369 0.89057 0.0
C1909 C 0.26859 1.00564 0.89093 0.0
C1910 C 0.29742 0.0487 0.89382 0.0
C1911 C 0.18975 0.85382 0.86101 0.0
C1912 C 0.20515 0.94961 0.88153 0.0
C1913 C 0.32603 0.92679 0.91133 0.0
C1914 C 0.35522 0.94117 0.90376 0.0
C1915 C 0.23243 0.8133 0.87411 0.0
C1916 C 0.17113 0.67835 0.88073 0.0
C1917 C 0.17204 0.63939 0.87835 0.0
C1918 C 0.19904 0.62667 0.88334 0.0
C1919 C 0.22455 0.6537 0.89076 0.0
C1920 C 0.19782 0.70473 0.88803 0.0
C1921 C 0.22388 0.69222 0.89305 0.0
C1922 C 0.15408 0.78007 0.89428 0.0
C1923 C 0.14371 0.69235 0.8754 0.0
H1924 H 0.20303 0.02546 0.87655 0.0
H1925 H 0.31663 0.11664 0.89286 0.0
H1926 H 0.2729 0.97942 0.89368 0.0
H1927 H 0.32381 0.05506 0.89861 0.0
H1928 H 0.1519 0.61923 0.87263 0.0
H1929 H 0.24636 0.64598 0.89463 0.0
H1930 H 0.19895 0.73535 0.88979 0.0
H1931 H 0.24431 0.71294 0.89868 0.0
Tb1932 Tb 0.20792 0.33916 0.88286 0.0
C1933 C 0.35517 0.38818 0.85531 0.0
C1934 C 0.37568 0.33294 0.85828 0.0
C1935 C 0.38212 0.36194 0.84265 0.0
C1936 C 0.35881 0.35995 0.86133 0.0
C1937 C 0.36813 0.39083 0.84595 0.0
C1938 C 0.38587 0.33292 0.84882 0.0
C1939 C 0.3586 0.45427 0.8443 0.0
N1940 N 0.34208 0.41568 0.85888 0.0
C1941 C 0.34633 0.45033 0.85367 0.0
C1942 C 0.36857 0.42374 0.84035 0.0
Tb1943 Tb 0.31945 0.40559 0.87417 0.0
N1944 N 0.34994 0.36238 0.8704 0.0
C1945 C 0.3617 0.34182 0.87695 0.0
C1946 C 0.38388 0.30863 0.86489 0.0
C1947 C 0.37776 0.31387 0.8743 0.0
H1948 H 0.33927 0.47449 0.85663 0.0
H1949 H 0.38556 0.29656 0.87952 0.0
H1950 H 0.39836 0.31201 0.84629 0.0
H1951 H 0.36046 0.48092 0.84013 0.0
H1952 H 0.35795 0.34602 0.88425 0.0
H1953 H 0.11738 0.42357 0.87492 0.0
H1954 H 0.39676 0.28736 0.86285 0.0
H1955 H 0.21345 0.28952 0.90229 0.0
H1956 H 0.15885 0.38618 0.87103 0.0
H1957 H 0.19146 0.28627 0.91877 0.0
H1958 H 0.39173 0.36298 0.83545 0.0
H1959 H 0.10177 0.43188 0.89133 0.0
H1960 H 0.10547 0.41524 0.90812 0.0
H1961 H 0.37832 0.427 0.83311 0.0
H1962 H 0.12541 0.37788 0.92002 0.0
N1963 N 0.16922 0.37503 0.88518 0.0
C1964 C 0.15293 0.38971 0.87825 0.0
C1965 C 0.12036 0.41554 0.88969 0.0
C1966 C 0.13443 0.39777 0.89672 0.0
C1967 C 0.12905 0.41086 0.88042 0.0
C1968 C 0.15876 0.37701 0.89423 0.0
H1969 H 0.15652 0.32905 0.92402 0.0
N1970 N 0.19204 0.33462 0.89838 0.0
C1971 C 0.18565 0.30627 0.91386 0.0
C1972 C 0.17027 0.35606 0.901 0.0
C1973 C 0.19791 0.30806 0.90455 0.0
C1974 C 0.16601 0.33055 0.9168 0.0
C1975 C 0.15741 0.35523 0.91033 0.0
O1976 O 0.17434 0.27131 0.88589 0.0
O1977 O 0.27067 0.34095 0.88004 0.0
O1978 O 0.27588 0.37686 0.86217 0.0
O1979 O 0.20554 0.35679 0.86814 0.0
O1980 O 0.21556 0.29146 0.87439 0.0
O1981 O 0.13959 0.30084 0.87935 0.0
O1982 O 0.35666 0.47511 0.87627 0.0
O1983 O 0.26169 0.40445 0.88014 0.0
O1984 O 0.25536 0.37353 0.89481 0.0
O1985 O 0.32135 0.38631 0.88842 0.0
O1986 O 0.2974 0.45322 0.87093 0.0
O1987 O 0.38392 0.43472 0.87967 0.0
C1988 C 0.25632 0.30455 0.87571 0.0
C1989 C 0.09508 0.2318 0.88784 0.0
C1990 C 1.01458 0.177 0.88859 0.0
C1991 C 0.05183 0.21107 0.88374 0.0
C1992 C 1.0216 0.16436 0.8974 0.0
C1993 C 0.09965 0.21708 0.89664 0.0
C1994 C 0.06344 0.18413 0.90135 0.0
C1995 C 0.23381 0.36543 0.86114 0.0
C1996 C 0.13627 0.26439 0.88267 0.0
C1997 C 0.13509 0.37774 0.91287 0.0
C1998 C 0.12372 0.39901 0.90608 0.0
C1999 C 0.26334 0.4376 0.87621 0.0
C2000 C 0.43428 0.50738 0.87442 0.0
C2001 C 0.45722 0.55275 0.877 0.0
C2002 C 0.49831 0.58295 0.8728 0.0
C2003 C 0.5159 0.56619 0.86616 0.0
C2004 C 0.45265 0.4927 0.86758 0.0
C2005 C 0.49315 0.52183 0.86355 0.0
C2006 C 0.29845 0.38702 0.8956 0.0
C2007 C 0.3919 0.47504 0.87894 0.0
H2008 H 0.04729 0.22118 0.87691 0.0
H2009 H 0.99424 0.13874 0.9013 0.0
H2010 H 0.13158 0.22997 0.89986 0.0
H2011 H 0.06796 0.17343 0.90812 0.0
H2012 H 0.44286 0.5644 0.88217 0.0
H2013 H 0.54776 0.5873 0.863 0.0
H2014 H 0.43597 0.45842 0.86542 0.0
H2015 H 0.50723 0.50986 0.85839 0.0
Tb2016 Tb 0.81658 0.75097 0.70596 0.0
C2017 C 0.95836 0.74405 0.72796 0.0
C2018 C 1.02367 0.77835 0.71837 0.0
C2019 C 0.03059 0.78717 0.73511 0.0
C2020 C 0.97726 0.75432 0.71931 0.0
C2021 C 0.9849 0.7585 0.73601 0.0
C2022 C 0.0501 0.79663 0.72629 0.0
C2023 C 0.92113 0.70748 0.74491 0.0
N2024 N 0.91464 0.71454 0.72842 0.0
C2025 C 0.89659 0.69355 0.73667 0.0
C2026 C 0.96526 0.74107 0.74461 0.0
Tb2027 Tb 0.8753 0.6966 0.7147 0.0
N2028 N 0.95041 0.7355 0.71188 0.0
C2029 C 0.96864 0.73585 0.70342 0.0
C2030 C 0.04209 0.78149 0.70959 0.0
C2031 C 1.01443 0.7593 0.70212 0.0
H2032 H 0.8624 0.6676 0.73693 0.0
H2033 H 0.02833 0.76017 0.69534 0.0
H2034 H 0.08568 0.8165 0.7257 0.0
H2035 H 0.90603 0.69219 0.75146 0.0
H2036 H 0.94847 0.71816 0.69755 0.0
H2037 H 0.65327 0.65839 0.72112 0.0
H2038 H 0.07754 0.79963 0.70858 0.0
H2039 H 0.84795 0.79159 0.68457 0.0
H2040 H 0.73384 0.7021 0.72136 0.0
H2041 H 0.81363 0.78434 0.66932 0.0
H2042 H 0.05143 0.80015 0.74117 0.0
H2043 H 0.61287 0.64204 0.70622 0.0
H2044 H 0.61531 0.65272 0.68891 0.0
H2045 H 0.98445 0.75131 0.75097 0.0
H2046 H 0.65893 0.68729 0.67481 0.0
N2047 N 0.74071 0.71037 0.70662 0.0
C2048 C 0.71743 0.69562 0.71474 0.0
C2049 C 0.6486 0.66137 0.70625 0.0
C2050 C 0.67229 0.67829 0.69801 0.0
C2051 C 0.67128 0.67063 0.71467 0.0
C2052 C 0.71879 0.70323 0.69845 0.0
H2053 H 0.73289 0.73675 0.66745 0.0
N2054 N 0.78747 0.7477 0.69145 0.0
C2055 C 0.79333 0.76677 0.67525 0.0
C2056 C 0.74304 0.72278 0.69058 0.0
C2057 C 0.81268 0.77082 0.68397 0.0
C2058 C 0.74779 0.7398 0.67421 0.0
C2059 C 0.72194 0.71782 0.68195 0.0
O2060 O 0.84516 0.81929 0.70307 0.0
O2061 O 0.8797 0.75819 0.71054 0.0
O2062 O 0.86659 0.73436 0.72642 0.0
O2063 O 0.8105 0.74629 0.72099 0.0
O2064 O 0.87987 0.79436 0.69933 0.0
O2065 O 0.79594 0.78896 0.71365 0.0
O2066 O 0.86196 0.63467 0.72017 0.0
O2067 O 0.8124 0.6885 0.71011 0.0
O2068 O 0.81271 0.70582 0.69514 0.0
O2069 O 0.87513 0.70149 0.69906 0.0
O2070 O 0.81135 0.65225 0.72114 0.0
O2071 O 0.88565 0.65216 0.70641 0.0
C2072 C 0.90479 0.7873 0.70471 0.0
C2073 C 0.8048 0.85544 0.70679 0.0
C2074 C 0.81544 0.9304 0.70473 0.0
C2075 C 0.83204 0.90224 0.70732 0.0
C2076 C 0.77124 0.91088 0.7018 0.0
C2077 C 0.76101 0.83742 0.70378 0.0
C2078 C 0.74438 0.865 0.70137 0.0
C2079 C 0.83622 0.74655 0.72769 0.0
C2080 C 0.82226 0.82576 0.70934 0.0
C2081 C 0.67578 0.69175 0.68138 0.0
C2082 C 0.65097 0.67203 0.68941 0.0
C2083 C 0.78604 0.65894 0.71573 0.0
C2084 C 0.90963 0.60857 0.71473 0.0
C2085 C 0.90198 0.56513 0.71268 0.0
C2086 C 0.9351 0.55332 0.71459 0.0
C2087 C 0.97577 0.5864 0.71819 0.0
C2088 C 0.95022 0.63905 0.71866 0.0
C2089 C 0.98297 0.62838 0.72026 0.0
C2090 C 0.84571 0.69953 0.69284 0.0
C2091 C 0.87636 0.62323 0.71295 0.0
H2092 H 0.86612 0.91658 0.70951 0.0
H2093 H 0.75748 0.93135 0.69975 0.0
H2094 H 0.73963 0.80196 0.70328 0.0
H2095 H 0.71051 0.85071 0.69906 0.0
H2096 H 0.87048 0.54075 0.70981 0.0
H2097 H 1.00266 0.58006 0.71941 0.0
H2098 H 0.95684 0.67147 0.72054 0.0
H2099 H 1.01434 0.65296 0.72316 0.0
Tb2100 Tb 0.34984 0.1189 0.70868 0.0
C2101 C 0.39678 0.2758 0.73278 0.0
C2102 C 0.36083 0.31246 0.72566 0.0
C2103 C 0.37097 0.31591 0.74239 0.0
C2104 C 0.38083 0.286 0.72489 0.0
C2105 C 0.39354 0.29227 0.74156 0.0
C2106 C 0.35464 0.32597 0.73446 0.0
C2107 C 0.4414 0.26749 0.74782 0.0
N2108 N 0.41893 0.25331 0.73177 0.0
C2109 C 0.44412 0.25228 0.739 0.0
C2110 C 0.41511 0.28662 0.74916 0.0
Tb2111 Tb 0.42071 0.23005 0.71686 0.0
N2112 N 0.38716 0.27238 0.71644 0.0
C2113 C 0.37798 0.288 0.70849 0.0
C2114 C 0.34858 0.3256 0.71756 0.0
C2115 C 0.3579 0.31394 0.70894 0.0
H2116 H 0.46441 0.23724 0.73805 0.0
H2117 H 0.34969 0.325 0.70262 0.0
H2118 H 0.33861 0.34554 0.73517 0.0
H2119 H 0.45973 0.26457 0.75357 0.0
H2120 H 0.38546 0.28073 0.7017 0.0
H2121 H 0.44145 0.0405 0.71987 0.0
H2122 H 0.33299 0.34569 0.71787 0.0
H2123 H 0.29866 0.11091 0.68868 0.0
H2124 H 0.3991 0.07893 0.72193 0.0
H2125 H 0.29799 0.08473 0.67274 0.0
H2126 H 0.36757 0.32813 0.74909 0.0
H2127 H 0.45252 0.01913 0.70411 0.0
H2128 H 0.43569 1.01406 0.68696 0.0
H2129 H 0.41337 0.29878 0.75599 0.0
H2130 H 0.39613 0.02575 0.67409 0.0
N2131 N 0.38788 0.08138 0.70746 0.0
C2132 C 0.40388 0.07018 0.71501 0.0
C2133 C 0.43416 0.03632 0.70497 0.0
C2134 C 0.41518 0.04529 0.69733 0.0
C2135 C 0.42786 0.04822 0.71387 0.0
C2136 C 0.39177 0.06788 0.69885 0.0
H2137 H 0.34413 0.05167 0.66873 0.0
N2138 N 0.34612 0.09451 0.69366 0.0
C2139 C 0.31851 0.08179 0.67799 0.0
C2140 C 0.36967 0.07428 0.69168 0.0
C2141 C 0.31903 0.09665 0.68706 0.0
C2142 C 0.34465 0.06322 0.67575 0.0
C2143 C 0.37011 0.05856 0.68268 0.0
O2144 O 0.28007 0.08486 0.70766 0.0
O2145 O 0.35327 0.17861 0.71441 0.0
O2146 O 0.39375 0.18445 0.7294 0.0
O2147 O 0.35299 0.11296 0.72346 0.0
O2148 O 0.31018 0.14745 0.70375 0.0
O2149 O 0.31279 0.05613 0.71488 0.0
O2150 O 0.48736 0.25925 0.72076 0.0
O2151 O 0.41488 0.16506 0.71478 0.0
O2152 O 0.38923 0.15792 0.69707 0.0
O2153 O 0.40716 0.22909 0.70161 0.0
O2154 O 0.46724 0.21842 0.709 0.0
O2155 O 0.46455 0.29761 0.71335 0.0
C2156 C 0.3238 0.17977 0.70948 0.0
C2157 C 0.24415 1.00675 0.70776 0.0
C2158 C 0.16882 0.94408 0.70551 0.0
C2159 C 0.19822 0.98537 0.70964 0.0
C2160 C 0.1865 0.92455 0.69962 0.0
C2161 C 0.26037 0.9863 0.70181 0.0
C2162 C 0.23172 0.94549 0.6978 0.0
C2163 C 0.36829 0.14056 0.73048 0.0
C2164 C 0.27493 0.05015 0.71201 0.0
C2165 C 0.39499 0.03776 0.68098 0.0
C2166 C 0.41754 0.03115 0.6883 0.0
C2167 C 0.45146 0.17728 0.71063 0.0
C2168 C 0.53146 0.33828 0.72268 0.0
C2169 C 0.5525 0.38222 0.71893 0.0
C2170 C 0.58688 0.41843 0.72396 0.0
C2171 C 0.59974 0.4096 0.73259 0.0
C2172 C 0.54636 0.33193 0.73132 0.0
C2173 C 0.57974 0.36709 0.7362 0.0
C2174 C 0.40108 0.19916 0.69512 0.0
C2175 C 0.49842 0.29809 0.71732 0.0
H2176 H 0.18544 1.00113 0.71419 0.0
H2177 H 0.16531 0.89261 0.69646 0.0
H2178 H 0.29528 1.00171 0.70031 0.0
H2179 H 0.24466 0.92991 0.69326 0.0
H2180 H 0.54234 0.38808 0.71223 0.0
H2181 H 0.62581 0.43603 0.7366 0.0
H2182 H 0.53321 0.29937 0.73428 0.0
H2183 H 0.59062 0.36123 0.74282 0.0
Tb2184 Tb 0.99057 0.2852 0.70757 0.0
C2185 C 0.85294 0.17372 0.73634 0.0
C2186 C 0.81872 0.09678 0.732 0.0
C2187 C 0.82761 0.11737 0.74834 0.0
C2188 C 0.84051 0.14188 0.72956 0.0
C2189 C 0.84586 0.16196 0.74581 0.0
C2190 C 0.81382 0.08476 0.74143 0.0
C2191 C 0.86963 0.23819 0.74943 0.0
N2192 N 0.86876 0.21605 0.73358 0.0
C2193 C 0.87513 0.24797 0.73992 0.0
C2194 C 0.8555 0.19509 0.7524 0.0
Tb2195 Tb 0.87861 0.2295 0.71791 0.0
N2196 N 0.84511 0.15497 0.72056 0.0
C2197 C 0.82513 0.12429 0.71366 0.0
C2198 C 0.8003 0.06524 0.72491 0.0
C2199 C 0.80276 0.07911 0.71572 0.0
H2200 H 0.88622 0.28137 0.73765 0.0
H2201 H 0.78784 0.05502 0.7102 0.0
H2202 H 0.79794 0.05033 0.74344 0.0
H2203 H 0.87608 0.26383 0.75445 0.0
H2204 H 0.82708 0.13449 0.70651 0.0
H2205 H 0.07062 0.46041 0.71454 0.0
H2206 H 0.78306 0.03025 0.72648 0.0
H2207 H 0.99079 0.23172 0.68839 0.0
H2208 H 0.03596 0.3818 0.71852 0.0
H2209 H 1.01206 0.24864 0.67201 0.0
H2210 H 0.82231 0.10761 0.75558 0.0
H2211 H 0.08451 0.48387 0.69808 0.0
H2212 H 0.08352 0.46279 0.68128 0.0
H2213 H 0.85069 0.18747 0.75975 0.0
H2214 H 0.0687 0.40499 0.66968 0.0
N2215 N 0.02623 0.35967 0.70447 0.0
C2216 C 0.04033 0.39102 0.7113 0.0
C2217 C 0.06839 0.44906 0.69979 0.0
C2218 C 0.05715 0.41712 0.69285 0.0
C2219 C 0.06064 0.43594 0.70907 0.0
C2220 C 0.03614 0.37228 0.69548 0.0
H2221 H 0.04321 0.32508 0.66621 0.0
N2222 N 1.00967 0.29807 0.69209 0.0
C2223 C 1.01676 0.2748 0.67673 0.0
C2224 C 0.02802 0.34023 0.68904 0.0
C2225 C 1.00488 0.26542 0.6861 0.0
C2226 C 0.03417 0.31793 0.67347 0.0
C2227 C 0.04034 0.35141 0.67967 0.0
O2228 O 0.03446 0.25978 0.70678 0.0
O2229 O 0.93396 0.22499 0.71277 0.0
O2230 O 0.93133 0.24203 0.72839 0.0
O2231 O 0.98874 0.30503 0.72189 0.0
O2232 O 0.97608 0.21713 0.70446 0.0
O2233 O 0.04636 0.31185 0.71629 0.0
O2234 O 0.82971 0.24625 0.72115 0.0
O2235 O 0.93396 0.28997 0.71256 0.0
O2236 O 0.94357 0.27716 0.69676 0.0
O2237 O 0.8792 0.21655 0.70265 0.0
O2238 O 0.88728 0.2956 0.71986 0.0
O2239 O 0.8191 0.20077 0.71015 0.0
C2240 C 0.94098 0.19571 0.70931 0.0
C2241 C 0.10909 0.30473 0.71214 0.0
C2242 C 0.17322 0.29333 0.71147 0.0
C2243 C 0.12699 0.27631 0.71115 0.0
C2244 C 0.20116 0.33891 0.71268 0.0
C2245 C 0.13819 0.3503 0.71322 0.0
C2246 C 0.18378 0.36711 0.71348 0.0
C2247 C 0.97156 0.2778 0.72897 0.0
C2248 C 0.06053 0.28614 0.71318 0.0
C2249 C 0.05938 0.39571 0.67687 0.0
C2250 C 0.06773 0.42858 0.68346 0.0
C2251 C 0.92246 0.31784 0.71507 0.0
C2252 C 0.75492 0.19046 0.71836 0.0
C2253 C 0.71898 0.19539 0.71515 0.0
C2254 C 0.67511 0.16754 0.71856 0.0
C2255 C 0.66847 0.13441 0.72499 0.0
C2256 C 0.7463 0.15778 0.72497 0.0
C2257 C 0.70362 0.12988 0.72818 0.0
C2258 C 0.90384 0.24211 0.6956 0.0
C2259 C 0.80142 0.21943 0.71505 0.0
H2260 H 0.10508 0.24106 0.71035 0.0
H2261 H 0.23666 0.35282 0.71287 0.0
H2262 H 0.12577 0.37296 0.71405 0.0
H2263 H 0.2058 0.40223 0.71437 0.0
H2264 H 0.72534 0.22111 0.71017 0.0
H2265 H 0.63577 0.11132 0.72754 0.0
H2266 H 0.77261 0.15375 0.72772 0.0
H2267 H 0.69771 0.10443 0.73319 0.0
Tb2268 Tb 0.43766 0.15753 0.12845 0.0
C2269 C 0.42659 0.28364 0.10205 0.0
C2270 C 0.46686 0.35645 0.10872 0.0
C2271 C 0.4702 0.34662 0.09208 0.0
C2272 C 0.44119 0.31024 0.10974 0.0
C2273 C 0.43908 0.3016 0.09307 0.0
C2274 C 0.48348 0.37435 0.0999 0.0
C2275 C 0.38301 0.23154 0.08691 0.0
N2276 N 0.39585 0.24079 0.10339 0.0
C2277 C 0.3716 0.21552 0.09601 0.0
C2278 C 0.41789 0.27441 0.08542 0.0
Tb2279 Tb 0.38434 0.21513 0.11845 0.0
N2280 N 0.42476 0.2912 0.11809 0.0
C2281 C 0.4283 0.31722 0.12553 0.0
C2282 C 0.47278 0.3831 0.11645 0.0
C2283 C 0.4524 0.36335 0.12484 0.0
H2284 H 0.34503 0.18212 0.09711 0.0
H2285 H 0.45577 0.38361 0.13083 0.0
H2286 H 0.50484 0.40962 0.099 0.0
H2287 H 0.36505 0.21075 0.08107 0.0
H2288 H 0.41318 0.30278 0.13208 0.0
H2289 H 0.32794 0.98856 0.11777 0.0
H2290 H 0.49184 0.41878 0.11596 0.0
H2291 H 0.49248 0.19767 0.14822 0.0
H2292 H 0.37762 0.06789 0.11539 0.0
H2293 H 0.49181 0.17133 0.16409 0.0
H2294 H 0.48211 0.36061 0.08526 0.0
H2295 H 0.31549 0.95685 0.13358 0.0
H2296 H 0.33488 0.96822 0.1506 0.0
H2297 H 0.42649 0.2869 0.07839 0.0
H2298 H 0.38001 0.01799 0.16323 0.0
N2299 N 0.39237 0.08243 0.1298 0.0
C2300 C 0.3727 0.05507 0.12236 0.0
C2301 C 0.33728 0.99199 0.1326 0.0
C2302 C 0.35972 0.01959 0.14011 0.0
C2303 C 0.34434 1.00975 0.12366 0.0
C2304 C 0.38752 0.0651 0.13843 0.0
H2305 H 0.43931 0.09372 0.16829 0.0
N2306 N 0.4401 0.13583 0.14338 0.0
C2307 C 0.46921 0.14888 0.15893 0.0
C2308 C 0.41259 0.09281 0.14548 0.0
C2309 C 0.46945 0.16368 0.14988 0.0
C2310 C 0.43946 0.10509 0.16128 0.0
C2311 C 0.41102 0.07625 0.15449 0.0
O2312 O 0.50695 0.1859 0.12916 0.0
O2313 O 0.44417 0.2189 0.12323 0.0
O2314 O 0.42458 0.20506 0.1076 0.0
O2315 O 0.42753 0.14486 0.1136 0.0
O2316 O 0.48817 0.22378 0.13305 0.0
O2317 O 0.46798 0.12633 0.12144 0.0
O2318 O 0.32026 0.19884 0.11392 0.0
O2319 O 0.3749 0.15373 0.12449 0.0
O2320 O 0.40244 0.16691 0.13987 0.0
O2321 O 0.39437 0.22508 0.13393 0.0
O2322 O 0.33718 0.14915 0.11335 0.0
O2323 O 0.34584 0.234 0.12657 0.0
C2324 C 0.47798 0.24674 0.12774 0.0
C2325 C 0.53786 0.13978 0.12729 0.0
C2326 C 0.61291 0.14959 0.12796 0.0
C2327 C 0.58329 0.16366 0.12491 0.0
C2328 C 0.5956 0.1108 0.13334 0.0
C2329 C 0.52212 0.10176 0.13277 0.0
C2330 C 0.55084 0.08737 0.13573 0.0
C2331 C 0.43351 0.17224 0.10677 0.0
C2332 C 0.50771 0.15551 0.12412 0.0
C2333 C 0.38204 0.03133 0.15634 0.0
C2334 C 0.35634 1.00301 0.14915 0.0
C2335 C 0.34322 0.12583 0.11942 0.0
C2336 C 0.29838 0.25138 0.11796 0.0
C2337 C 0.25749 0.24657 0.12107 0.0
C2338 C 0.24446 0.27803 0.11858 0.0
C2339 C 0.274 0.31446 0.11313 0.0
C2340 C 0.32545 0.28733 0.11226 0.0
C2341 C 0.31361 0.31868 0.10996 0.0
C2342 C 0.3956 0.20069 0.14101 0.0
C2343 C 0.31354 0.21971 0.12064 0.0
H2344 H 0.59552 0.1935 0.12081 0.0
H2345 H 0.61653 0.09801 0.13564 0.0
H2346 H 0.48763 0.08317 0.13474 0.0
H2347 H 0.53831 0.05773 0.13989 0.0
H2348 H 0.23595 0.21826 0.12529 0.0
H2349 H 0.267 0.34041 0.11136 0.0
H2350 H 0.35602 0.2914 0.10959 0.0
H2351 H 0.33547 0.34669 0.10569 0.0
Tb2352 Tb 0.96393 0.32273 0.12817 0.0
C2353 C 0.905 0.192 0.09828 0.0
C2354 C 0.82537 0.1543 0.09683 0.0
C2355 C 0.87109 0.16685 0.08312 0.0
C2356 C 0.86381 0.17616 0.10231 0.0
C2357 C 0.90923 0.18756 0.08867 0.0
C2358 C 0.82924 0.15021 0.0872 0.0
C2359 C 0.98843 0.22344 0.09086 0.0
N2360 N 0.94119 0.21271 0.10386 0.0
C2361 C 0.98254 0.22707 0.10038 0.0
C2362 C 0.95167 0.2039 0.08497 0.0
Tb2363 Tb 0.92768 0.21525 0.1193 0.0
N2364 N 0.86145 0.18073 0.11165 0.0
C2365 C 0.82149 0.16021 0.11604 0.0
C2366 C 0.78425 0.13623 0.10124 0.0
C2367 C 0.78233 0.13861 0.11091 0.0
H2368 H 1.01069 0.24145 0.10497 0.0
H2369 H 0.75073 0.12324 0.11443 0.0
H2370 H 0.80009 0.13368 0.08286 0.0
H2371 H 1.02125 0.23547 0.08807 0.0
H2372 H 0.81995 0.15964 0.12353 0.0
H2373 H 0.13971 0.40746 0.1337 0.0
H2374 H 0.75388 0.11911 0.09729 0.0
H2375 H 0.88127 0.30586 0.14165 0.0
H2376 H 0.07058 0.36823 0.1246 0.0
H2377 H 0.86988 0.32215 0.15786 0.0
H2378 H 0.87355 0.16314 0.0757 0.0
H2379 H 0.13668 0.42446 0.15033 0.0
H2380 H 0.09042 0.42199 0.16411 0.0
H2381 H 0.95636 0.20112 0.0776 0.0
H2382 H 1.01691 0.39977 0.17063 0.0
N2383 N 0.02912 0.35897 0.13612 0.0
C2384 C 0.069 0.37343 0.13194 0.0
C2385 C 0.10634 0.40628 0.14641 0.0
C2386 C 0.06538 0.39355 0.15051 0.0
C2387 C 0.10816 0.39655 0.13704 0.0
C2388 C 0.02708 0.37003 0.14507 0.0
H2389 H 0.93414 0.3623 0.16835 0.0
N2390 N 0.95071 0.33529 0.14311 0.0
C2391 C 0.90284 0.33245 0.15537 0.0
C2392 C 0.98628 0.35838 0.14867 0.0
C2393 C 0.90928 0.32306 0.14622 0.0
C2394 C 0.93921 0.35526 0.16126 0.0
C2395 C 0.98171 0.3687 0.15792 0.0
O2396 O 0.93583 0.36355 0.1264 0.0
O2397 O 0.90652 0.25716 0.12556 0.0
O2398 O 0.9375 0.26507 0.10805 0.0
O2399 O 0.99399 0.3267 0.11474 0.0
O2400 O 0.89818 0.30858 0.12327 0.0
O2401 O 1.00311 0.38617 0.12242 0.0
O2402 O 0.9563 0.17472 0.11925 0.0
O2403 O 0.98652 0.27928 0.12228 0.0
O2404 O 0.95719 0.27986 0.13998 0.0
O2405 O 0.90427 0.21204 0.13392 0.0
O2406 O 0.98679 0.22448 0.12637 0.0
O2407 O 0.88755 0.14667 0.12245 0.0
C2408 C 0.87804 0.26653 0.12276 0.0
C2409 C 0.98496 0.44103 0.12705 0.0
C2410 C 0.97383 0.50544 0.12793 0.0
C2411 C 0.9612 0.46258 0.12452 0.0
C2412 C 1.01103 0.52618 0.13379 0.0
C2413 C 1.02137 0.46269 0.13301 0.0
C2414 C 0.03425 0.50492 0.13633 0.0
C2415 C 0.9694 0.30732 0.10742 0.0
C2416 C 0.97224 0.39664 0.12325 0.0
C2417 C 1.01959 0.39157 0.16348 0.0
C2418 C 0.06141 0.40405 0.15978 0.0
C2419 C 1.01076 0.26645 0.12619 0.0
C2420 C 0.91063 0.09902 0.11508 0.0
C2421 C 0.89138 0.05495 0.11865 0.0
C2422 C 0.88692 0.0197 0.11284 0.0
C2423 C 0.90267 0.0297 0.10365 0.0
C2424 C 0.92537 0.1065 0.10582 0.0
C2425 C 0.92141 0.07238 0.1002 0.0
C2426 C 0.9268 0.23778 0.14115 0.0
C2427 C 0.91948 0.13821 0.12099 0.0
H2428 H 0.9328 0.44577 0.11998 0.0
H2429 H 1.02277 0.55934 0.13636 0.0
H2430 H 0.0403 0.44727 0.13504 0.0
H2431 H 0.06269 0.52147 0.14085 0.0
H2432 H 0.87995 0.04821 0.12578 0.0
H2433 H 0.9004 1.00405 0.09905 0.0
H2434 H 0.94134 0.13913 0.10291 0.0
H2435 H 0.93336 0.0792 0.09311 0.0
Tb2436 Tb 0.80434 0.68978 0.12588 0.0
C2437 C 0.93973 0.71804 0.09609 0.0
C2438 C 0.97587 0.67693 0.10031 0.0
C2439 C 0.96666 0.68861 0.08402 0.0
C2440 C 0.95337 0.69955 0.10283 0.0
C2441 C 0.94695 0.71358 0.0866 0.0
C2442 C 0.98118 0.67036 0.09087 0.0
C2443 C 0.91935 0.76284 0.08299 0.0
N2444 N 0.92169 0.7427 0.09888 0.0
C2445 C 0.91318 0.76658 0.09249 0.0
C2446 C 0.93576 0.73576 0.08002 0.0
Tb2447 Tb 0.91318 0.74711 0.11465 0.0
N2448 N 0.94833 0.70735 0.11187 0.0
C2449 C 0.96981 0.69784 0.11865 0.0
C2450 C 0.99467 0.66397 0.10732 0.0
C2451 C 0.9927 0.67562 0.11651 0.0
H2452 H 0.90027 0.7875 0.09463 0.0
H2453 H 1.00853 0.66725 0.12197 0.0
H2454 H 0.99806 0.65279 0.08881 0.0
H2455 H 0.91144 0.78088 0.07797 0.0
H2456 H 0.96888 0.70685 0.1258 0.0
H2457 H 0.72661 0.78618 0.11809 0.0
H2458 H 1.01235 0.64669 0.10568 0.0
H2459 H 0.80594 0.63935 0.14543 0.0
H2460 H 0.76291 0.74314 0.11445 0.0
H2461 H 0.78482 0.63713 0.16178 0.0
H2462 H 0.97237 0.68469 0.07677 0.0
H2463 H 0.7106 0.79551 0.13443 0.0
H2464 H 0.7107 0.77647 0.15131 0.0
H2465 H 0.94076 0.73315 0.07266 0.0
H2466 H 0.7258 0.73508 0.1632 0.0
N2467 N 0.76986 0.72989 0.1286 0.0
C2468 C 0.75686 0.74736 0.12162 0.0
C2469 C 0.72702 0.7769 0.13288 0.0
C2470 C 0.7379 0.75663 0.13995 0.0
C2471 C 0.73592 0.77163 0.12365 0.0
C2472 C 0.75927 0.73284 0.13753 0.0
H2473 H 0.75259 0.68223 0.16714 0.0
N2474 N 0.78635 0.68581 0.14137 0.0
C2475 C 0.77974 0.65769 0.1569 0.0
C2476 C 0.76746 0.7096 0.14416 0.0
C2477 C 0.79158 0.65901 0.14756 0.0
C2478 C 0.76167 0.68328 0.1599 0.0
C2479 C 0.75496 0.70941 0.15349 0.0
O2480 O 0.76555 0.62018 0.12641 0.0
O2481 O 0.86102 0.68704 0.12048 0.0
O2482 O 0.86089 0.70225 0.10449 0.0
O2483 O 0.80082 0.70274 0.11116 0.0
O2484 O 0.82081 0.63862 0.12935 0.0
O2485 O 0.74161 0.65818 0.11946 0.0
O2486 O 0.97692 0.77801 0.12059 0.0
O2487 O 0.86041 0.75295 0.12136 0.0
O2488 O 0.85152 0.72968 0.13654 0.0
O2489 O 0.91722 0.73863 0.13005 0.0
O2490 O 0.89379 0.79592 0.11103 0.0
O2491 O 0.95867 0.8148 0.11169 0.0
C2492 C 0.85518 0.65167 0.12427 0.0
C2493 C 0.68811 0.5882 0.1258 0.0
C2494 C 0.62526 0.51252 0.12785 0.0
C2495 C 0.66725 0.54214 0.124 0.0
C2496 C 0.60455 0.53031 0.13336 0.0
C2497 C 0.66664 0.60444 0.13142 0.0
C2498 C 0.62508 0.57565 0.13513 0.0
C2499 C 0.81899 0.69351 0.10411 0.0
C2500 C 0.73261 0.61866 0.12195 0.0
C2501 C 0.73534 0.73449 0.15606 0.0
C2502 C 0.72682 0.7581 0.14929 0.0
C2503 C 0.86249 0.78536 0.11691 0.0
C2504 C 1.02002 0.8562 0.12214 0.0
C2505 C 0.06522 0.8846 0.11966 0.0
C2506 C 0.09407 0.92174 0.12529 0.0
C2507 C 0.07594 0.92945 0.13335 0.0
C2508 C 1.00404 0.8652 0.13028 0.0
C2509 C 0.0317 0.90156 0.13579 0.0
C2510 C 0.89287 0.73824 0.13732 0.0
C2511 C 0.99062 0.8158 0.11655 0.0
H2512 H 0.6841 0.52943 0.11977 0.0
H2513 H 0.57205 0.50918 0.13626 0.0
H2514 H 0.68198 0.63939 0.13296 0.0
H2515 H 0.60862 0.58856 0.13941 0.0
H2516 H 0.0779 0.8772 0.11346 0.0
H2517 H 0.09569 0.95772 0.13775 0.0
H2518 H 0.97017 0.84377 0.13242 0.0
H2519 H 1.01873 0.90825 0.14204 0.0
Tb2520 Tb 0.90583 0.74683 0.61751 0.0
C2521 C 0.02627 0.7168 0.64433 0.0
C2522 C 0.10027 0.76161 0.63835 0.0
C2523 C 0.08888 0.74603 0.6549 0.0
C2524 C 0.05418 0.73728 0.63697 0.0
C2525 C 0.04318 0.72036 0.65338 0.0
C2526 C 0.11741 0.76659 0.64738 0.0
C2527 C 0.96895 0.67062 0.65863 0.0
N2528 N 0.98245 0.69218 0.64254 0.0
C2529 C 0.95383 0.66792 0.64952 0.0
C2530 C 1.01377 0.69732 0.6606 0.0
Tb2531 Tb 0.96054 0.69184 0.62743 0.0
N2532 N 0.03624 0.73131 0.62836 0.0
C2533 C 0.06314 0.7463 0.62074 0.0
C2534 C 0.12773 0.77903 0.6306 0.0
C2535 C 0.10908 0.77068 0.62174 0.0
H2536 H 0.91902 0.64728 0.64822 0.0
H2537 H 0.13004 0.7831 0.61566 0.0
H2538 H 0.15269 0.78546 0.6486 0.0
H2539 H 0.94595 0.65219 0.66413 0.0
H2540 H 0.04967 0.74005 0.61382 0.0
H2541 H 0.73665 0.66318 0.62971 0.0
H2542 H 0.16331 0.79788 0.63135 0.0
H2543 H 0.94685 0.78415 0.59637 0.0
H2544 H 0.81748 0.70309 0.63138 0.0
H2545 H 0.91915 0.77494 0.58034 0.0
H2546 H 0.10253 0.74943 0.66181 0.0
H2547 H 0.70277 0.64428 0.61408 0.0
H2548 H 0.7128 0.6494 0.59674 0.0
H2549 H 0.0254 0.6993 0.66766 0.0
H2550 H 0.76257 0.67945 0.58327 0.0
N2551 N 0.83003 0.70637 0.6168 0.0
C2552 C 0.80339 0.69524 0.62449 0.0
C2553 C 0.7384 0.662 0.61476 0.0
C2554 C 0.76565 0.67531 0.60691 0.0
C2555 C 0.7574 0.67267 0.62359 0.0
C2556 C 0.81187 0.69839 0.60818 0.0
H2557 H 0.83952 0.7269 0.5771 0.0
N2558 N 0.88374 0.7403 0.60226 0.0
C2559 C 0.89645 0.75788 0.58598 0.0
C2560 C 0.83969 0.71572 0.60064 0.0
C2561 C 0.912 0.76307 0.59511 0.0
C2562 C 0.8515 0.73065 0.58417 0.0
C2563 C 0.82236 0.70985 0.59156 0.0
O2564 O 0.87459 0.77793 0.62405 0.0
O2565 O 0.96748 0.75588 0.62336 0.0
O2566 O 0.95993 0.7353 0.63808 0.0
O2567 O 0.89896 0.74018 0.63314 0.0
O2568 O 0.97172 0.79376 0.61234 0.0
O2569 O 0.92594 0.81369 0.61419 0.0
O2570 O 0.92982 0.62262 0.6292 0.0
O2571 O 0.89956 0.68507 0.62185 0.0
O2572 O 0.91018 0.70248 0.60677 0.0
O2573 O 0.97208 0.70252 0.61249 0.0
O2574 O 0.89423 0.64706 0.633 0.0
O2575 O 0.98622 0.65629 0.62039 0.0
C2576 C 0.99548 0.78642 0.61805 0.0
C2577 C 0.90805 0.8561 0.62482 0.0
C2578 C 0.89876 0.92135 0.62748 0.0
C2579 C 0.89053 0.88351 0.62214 0.0
C2580 C 0.92534 0.93089 0.63546 0.0
C2581 C 0.93357 0.86657 0.6329 0.0
C2582 C 0.94234 0.90381 0.63813 0.0
C2583 C 0.92625 0.74137 0.63981 0.0
C2584 C 0.89647 0.81487 0.61956 0.0
C2585 C 0.77651 0.6847 0.5902 0.0
C2586 C 0.74818 0.66757 0.59786 0.0
C2587 C 0.87167 0.65546 0.62719 0.0
C2588 C 0.97213 0.58749 0.62702 0.0
C2589 C 0.94817 0.54176 0.62472 0.0
C2590 C 0.96155 0.51208 0.62813 0.0
C2591 C 0.99977 0.52952 0.63369 0.0
C2592 C 1.00971 0.60327 0.63264 0.0
C2593 C 1.02347 0.57448 0.63589 0.0
C2594 C 0.94338 0.69417 0.60576 0.0
C2595 C 0.95694 0.61811 0.62377 0.0
H2596 H 0.86977 0.87468 0.61603 0.0
H2597 H 0.9338 0.95985 0.63963 0.0
H2598 H 0.94618 0.84556 0.63525 0.0
H2599 H 0.96244 0.91173 0.64433 0.0
H2600 H 0.91874 0.52926 0.62047 0.0
H2601 H 1.0117 0.50834 0.63631 0.0
H2602 H 0.0284 0.63788 0.63453 0.0
H2603 H 0.05269 0.58709 0.6402 0.0
Tb2604 Tb 0.35985 0.2105 0.62021 0.0
C2605 C 0.40638 0.37479 0.6411 0.0
C2606 C 0.36027 0.39727 0.63299 0.0
C2607 C 0.37698 0.41521 0.64936 0.0
C2608 C 0.38506 0.3755 0.6331 0.0
C2609 C 0.40362 0.39562 0.64927 0.0
C2610 C 0.3553 0.41602 0.64122 0.0
C2611 C 0.45748 0.38046 0.65626 0.0
N2612 N 0.43203 0.35583 0.6407 0.0
C2613 C 0.4594 0.36051 0.64797 0.0
C2614 C 0.42893 0.39746 0.65697 0.0
Tb2615 Tb 0.43156 0.32271 0.62689 0.0
N2616 N 0.39143 0.3578 0.62525 0.0
C2617 C 0.37706 0.3642 0.61689 0.0
C2618 C 0.34286 0.40117 0.62452 0.0
C2619 C 0.35209 0.38535 0.61641 0.0
H2620 H 0.48154 0.34743 0.64748 0.0
H2621 H 0.33988 0.38929 0.60977 0.0
H2622 H 0.33599 0.43248 0.6413 0.0
H2623 H 0.47808 0.38278 0.66209 0.0
H2624 H 0.384 0.35235 0.6106 0.0
H2625 H 0.3793 0.09717 0.64308 0.0
H2626 H 0.32362 0.41764 0.62413 0.0
H2627 H 0.36581 0.21151 0.59657 0.0
H2628 H 0.34865 0.14316 0.63826 0.0
H2629 H 0.40783 0.19865 0.58474 0.0
H2630 H 0.37402 0.431 0.65559 0.0
H2631 H 0.42793 0.08505 0.6325 0.0
H2632 H 0.46289 0.09633 0.61682 0.0
H2633 H 0.42771 0.41314 0.66338 0.0
H2634 H 0.47253 0.12599 0.60098 0.0
N2635 N 0.38422 0.1634 0.62536 0.0
C2636 C 0.37202 0.14109 0.63368 0.0
C2637 C 0.41547 0.10656 0.63039 0.0
C2638 C 0.42455 0.12581 0.62158 0.0
C2639 C 0.38832 0.11355 0.6364 0.0
C2640 C 0.40773 0.15387 0.6192 0.0
H2641 H 0.45263 0.16473 0.58896 0.0
N2642 N 0.39281 0.19373 0.60808 0.0
C2643 C 0.41072 0.19165 0.59195 0.0
C2644 C 0.41308 0.17047 0.61032 0.0
C2645 C 0.38804 0.20051 0.59885 0.0
C2646 C 0.43571 0.17226 0.59435 0.0
C2647 C 0.43548 0.15954 0.60355 0.0
O2648 O 0.30517 0.18086 0.61114 0.0
O2649 O 0.36425 0.27483 0.62184 0.0
O2650 O 0.39576 0.29002 0.63942 0.0
O2651 O 0.36803 0.21569 0.63573 0.0
O2652 O 0.31348 0.22128 0.6283 0.0
O2653 O 0.30594 0.14629 0.62322 0.0
O2654 O 0.50082 0.36024 0.62885 0.0
O2655 O 0.42821 0.26069 0.62271 0.0
O2656 O 0.37173 0.25799 0.60832 0.0
O2657 O 0.44043 0.3143 0.61228 0.0
O2658 O 0.46736 0.29529 0.63397 0.0
O2659 O 0.4682 0.38271 0.61966 0.0
C2660 C 0.32794 0.26208 0.62625 0.0
C2661 C 0.2628 0.10112 0.6103 0.0
C2662 C 0.20987 0.02008 0.60867 0.0
C2663 C 0.23254 0.05889 0.61435 0.0
C2664 C 0.21701 0.02557 0.59898 0.0
C2665 C 0.2696 0.10329 0.60065 0.0
C2666 C 0.24672 0.06614 0.59509 0.0
C2667 C 0.37864 0.24834 0.64182 0.0
C2668 C 0.28433 0.14383 0.61573 0.0
C2669 C 0.45471 0.1341 0.60605 0.0
C2670 C 0.44904 0.11705 0.61505 0.0
C2671 C 0.4551 0.26117 0.62877 0.0
C2672 C 0.53453 0.43787 0.62684 0.0
C2673 C 0.5813 0.45799 0.62654 0.0
C2674 C 0.60844 0.50158 0.62989 0.0
C2675 C 0.58812 0.52466 0.63338 0.0
C2676 C 0.51556 0.46202 0.63039 0.0
C2677 C 0.54222 0.5051 0.63359 0.0
C2678 C 0.40909 0.29514 0.60611 0.0
C2679 C 0.50576 0.392 0.62342 0.0
H2680 H 0.22695 0.05634 0.62179 0.0
H2681 H 0.19942 0.99803 0.59426 0.0
H2682 H 0.29186 0.13422 0.59726 0.0
H2683 H 0.25174 0.06888 0.58764 0.0
H2684 H 0.59638 0.43955 0.62391 0.0
H2685 H 0.60797 0.55798 0.63603 0.0
H2686 H 0.48006 0.44764 0.63068 0.0
H2687 H 0.52719 0.52338 0.63632 0.0
Tb2688 Tb 0.89919 0.20945 0.61804 0.0
C2689 C 0.7502 0.0961 0.64609 0.0
C2690 C 0.72662 0.02101 0.64148 0.0
C2691 C 0.71902 0.03738 0.65759 0.0
C2692 C 0.74547 0.06622 0.63932 0.0
C2693 C 0.73639 0.0821 0.65528 0.0
C2694 C 0.71416 1.00686 0.65069 0.0
C2695 C 0.75561 0.15695 0.65905 0.0
N2696 N 0.76729 0.13891 0.64356 0.0
C2697 C 0.76884 0.16918 0.64983 0.0
C2698 C 0.73974 0.1133 0.66182 0.0
Tb2699 Tb 0.78913 0.15611 0.62835 0.0
N2700 N 0.75751 0.08127 0.63052 0.0
C2701 C 0.7486 0.052 0.62339 0.0
C2702 C 0.71986 0.99133 0.63429 0.0
C2703 C 0.7304 1.00686 0.62518 0.0
H2704 H 0.78134 0.20312 0.64786 0.0
H2705 H 0.72449 0.98409 0.61953 0.0
H2706 H 0.69992 0.97232 0.65251 0.0
H2707 H 0.75788 0.18126 0.66403 0.0
H2708 H 0.75626 0.06314 0.6163 0.0
H2709 H 0.99892 0.37887 0.6292 0.0
H2710 H 0.70559 0.95634 0.63565 0.0
H2711 H 0.8927 0.16549 0.59725 0.0
H2712 H 0.95447 0.29866 0.6312 0.0
H2713 H 0.91125 0.19054 0.58105 0.0
H2714 H 0.70852 0.02597 0.66463 0.0
H2715 H 1.01101 0.41155 0.61351 0.0
H2716 H 1.00477 0.39953 0.59633 0.0
H2717 H 0.7296 0.10394 0.66897 0.0
H2718 H 0.98145 0.34772 0.58313 0.0
N2719 N 0.93772 0.28512 0.61686 0.0
C2720 C 0.95821 0.31207 0.62431 0.0
C2721 C 0.99044 0.37615 0.61436 0.0
C2722 C 0.97255 0.34828 0.60667 0.0
C2723 C 0.98391 0.35783 0.62321 0.0
C2724 C 0.94584 0.30239 0.60816 0.0
H2725 H 0.94561 0.26999 0.57732 0.0
N2726 N 0.91303 0.22973 0.60267 0.0
C2727 C 0.91737 0.21423 0.58652 0.0
C2728 C 0.93289 0.2735 0.60076 0.0
C2729 C 0.90689 0.20019 0.59574 0.0
C2730 C 0.93644 0.25904 0.58443 0.0
C2731 C 0.94571 0.28941 0.59163 0.0
O2732 O 0.94406 0.18782 0.61432 0.0
O2733 O 0.84676 0.14988 0.62452 0.0
O2734 O 0.83366 0.16412 0.6396 0.0
O2735 O 0.89986 0.22126 0.63349 0.0
O2736 O 0.87845 0.14228 0.61348 0.0
O2737 O 0.95826 0.23133 0.62577 0.0
O2738 O 0.74839 0.18489 0.6287 0.0
O2739 O 0.84504 0.21613 0.62296 0.0
O2740 O 0.84842 0.20187 0.60741 0.0
O2741 O 0.78775 0.14065 0.61364 0.0
O2742 O 0.80549 0.22374 0.63213 0.0
O2743 O 0.72738 0.12381 0.62157 0.0
C2744 C 0.84941 0.12063 0.61972 0.0
C2745 C 1.02032 0.23952 0.61712 0.0
C2746 C 0.10027 0.26303 0.61729 0.0
C2747 C 0.05638 0.23595 0.62078 0.0
C2748 C 0.10684 0.29427 0.61038 0.0
C2749 C 0.02898 0.27006 0.61 0.0
C2750 C 0.07164 0.29741 0.60676 0.0
C2751 C 0.87444 0.19735 0.64064 0.0
C2752 C 0.97362 0.21186 0.62049 0.0
C2753 C 0.97034 0.33506 0.59006 0.0
C2754 C 0.98369 0.36449 0.59757 0.0
C2755 C 0.83938 0.24547 0.62691 0.0
C2756 C 0.67125 0.13716 0.62756 0.0
C2757 C 0.64865 0.16043 0.62551 0.0
C2758 C 0.60553 0.1458 0.629 0.0
C2759 C 0.5855 0.10702 0.6344 0.0
C2760 C 0.65037 0.09911 0.63308 0.0
C2761 C 0.60774 0.08411 0.63642 0.0
C2762 C 0.8069 0.16818 0.6067 0.0
C2763 C 0.71667 0.15317 0.62402 0.0
H2764 H 0.05016 0.21189 0.62617 0.0
H2765 H 0.13955 0.31686 0.60776 0.0
H2766 H 1.00267 0.27284 0.60689 0.0
H2767 H 0.07747 0.32128 0.60136 0.0
H2768 H 0.66495 0.19022 0.62136 0.0
H2769 H 0.55227 0.09402 0.63704 0.0
H2770 H 0.66698 0.08089 0.6348 0.0
H2771 H 0.59177 0.05449 0.64062 0.0
Tb2772 Tb 0.41786 0.22983 0.21856 0.0
C2773 C 0.40122 0.36018 0.19211 0.0
C2774 C 0.45498 0.43224 0.19805 0.0
C2775 C 0.43539 0.42326 0.18167 0.0
C2776 C 0.42594 0.38668 0.19944 0.0
C2777 C 0.4048 0.37845 0.1832 0.0
C2778 C 0.46046 0.45011 0.18908 0.0
C2779 C 0.3445 0.30812 0.1782 0.0
N2780 N 0.37174 0.31705 0.19387 0.0
C2781 C 0.34211 0.29144 0.18714 0.0
C2782 C 0.37645 0.35158 0.17617 0.0
Tb2783 Tb 0.37116 0.29394 0.20883 0.0
N2784 N 0.41945 0.36839 0.20803 0.0
C2785 C 0.4381 0.3948 0.21565 0.0
C2786 C 0.47644 0.45878 0.20575 0.0
C2787 C 0.46736 0.44008 0.21461 0.0
H2788 H 0.31698 0.25785 0.18851 0.0
H2789 H 0.48292 0.46052 0.22065 0.0
H2790 H 0.48299 0.48492 0.18786 0.0
H2791 H 0.32171 0.28738 0.17286 0.0
H2792 H 0.43145 0.3813 0.22258 0.0
H2793 H 0.34269 0.06287 0.20527 0.0
H2794 H 0.49904 0.49389 0.20498 0.0
H2795 H 0.44914 0.26352 0.24035 0.0
H2796 H 0.38617 0.14376 0.20442 0.0
H2797 H 0.42745 0.23304 0.25617 0.0
H2798 H 0.43896 0.43777 0.17485 0.0
H2799 H 0.30741 0.02633 0.22009 0.0
H2800 H 0.29597 0.03361 0.23716 0.0
H2801 H 0.37815 0.36439 0.16923 0.0
H2802 H 0.31821 0.08084 0.25113 0.0
N2803 N 0.37584 0.154 0.21858 0.0
C2804 C 0.37137 0.12869 0.21094 0.0
C2805 C 0.32683 0.06204 0.21976 0.0
C2806 C 0.33354 0.08791 0.22768 0.0
C2807 C 0.34675 0.08254 0.21141 0.0
C2808 C 0.35954 0.13422 0.22688 0.0
H2809 H 0.36957 0.15494 0.25837 0.0
N2810 N 0.40312 0.2036 0.23359 0.0
C2811 C 0.41183 0.21219 0.25019 0.0
C2812 C 0.37348 0.16015 0.2347 0.0
C2813 C 0.42421 0.22927 0.24119 0.0
C2814 C 0.37897 0.16817 0.2514 0.0
C2815 C 0.36018 0.14123 0.2436 0.0
O2816 O 0.48018 0.24218 0.2235 0.0
O2817 O 0.43201 0.29407 0.21309 0.0
O2818 O 0.4036 0.28191 0.19715 0.0
O2819 O 0.4116 0.22338 0.203 0.0
O2820 O 0.46696 0.29329 0.22432 0.0
O2821 O 0.45547 0.20947 0.21055 0.0
O2822 O 0.30336 0.26476 0.21253 0.0
O2823 O 0.36112 0.23022 0.21308 0.0
O2824 O 0.37245 0.23685 0.22865 0.0
O2825 O 0.38385 0.30427 0.22365 0.0
O2826 O 0.3193 0.23036 0.20322 0.0
O2827 O 0.34373 0.33448 0.21195 0.0
C2828 C 0.46385 0.31917 0.21846 0.0
C2829 C 0.50221 0.19006 0.21896 0.0
C2830 C 0.55699 0.16423 0.2182 0.0
C2831 C 0.54378 0.19591 0.21597 0.0
C2832 C 0.52695 0.12664 0.22329 0.0
C2833 C 0.47453 0.15269 0.22425 0.0
C2834 C 0.48662 0.12125 0.22631 0.0
C2835 C 0.4111 0.24852 0.196 0.0
C2836 C 0.48719 0.22228 0.2166 0.0
C2837 C 0.33012 0.09579 0.24439 0.0
C2838 C 0.3172 0.06899 0.23643 0.0
C2839 C 0.32784 0.2048 0.20814 0.0
C2840 C 0.26798 0.30403 0.20759 0.0
C2841 C 0.22374 0.28311 0.21091 0.0
C2842 C 0.18968 0.28419 0.20566 0.0
C2843 C 0.20126 0.30594 0.197 0.0
C2844 C 0.27788 0.32658 0.19909 0.0
C2845 C 0.24477 0.32715 0.19383 0.0
C2846 C 0.36884 0.27281 0.22992 0.0
C2847 C 0.3036 0.30181 0.21288 0.0
H2848 H 0.5657 0.22518 0.21204 0.0
H2849 H 0.53409 0.1006 0.22487 0.0
H2850 H 0.4433 0.14761 0.22678 0.0
H2851 H 0.46436 0.09222 0.23028 0.0
H2852 H 0.21623 0.2665 0.21756 0.0
H2853 H 0.17661 0.30623 0.1925 0.0
H2854 H 0.31128 0.34373 0.19645 0.0
H2855 H 0.25286 0.34398 0.18719 0.0
Tb2856 Tb 0.87546 0.23108 0.21769 0.0
C2857 C 0.81737 0.08762 0.18815 0.0
C2858 C 0.73786 0.04943 0.18676 0.0
C2859 C 0.78296 0.05268 0.17354 0.0
C2860 C 0.77656 0.07446 0.192 0.0
C2861 C 0.82134 0.07735 0.17887 0.0
C2862 C 0.74126 0.03868 0.17748 0.0
C2863 C 0.90068 0.11792 0.18085 0.0
N2864 N 0.85345 0.11265 0.19348 0.0
C2865 C 0.8949 0.12732 0.19004 0.0
C2866 C 0.86374 0.09284 0.17523 0.0
Tb2867 Tb 0.8408 0.12328 0.2086 0.0
N2868 N 0.775 0.08604 0.20094 0.0
C2869 C 0.73543 0.07061 0.20531 0.0
C2870 C 0.69709 0.03566 0.19106 0.0
C2871 C 0.69588 0.04596 0.20042 0.0
H2872 H 0.92346 0.14666 0.19437 0.0
H2873 H 0.66454 0.0342 0.20391 0.0
H2874 H 0.71191 0.01953 0.17332 0.0
H2875 H 0.93358 0.13008 0.1781 0.0
H2876 H 0.73452 0.07592 0.21267 0.0
H2877 H 0.02831 0.28827 0.23667 0.0
H2878 H 0.66645 0.01629 0.1873 0.0
H2879 H 0.78033 0.22693 0.2241 0.0
H2880 H 0.9808 0.26621 0.2229 0.0
H2881 H 0.74617 0.2329 0.23836 0.0
H2882 H 0.78518 0.04443 0.16637 0.0
H2883 H 0.99869 0.29458 0.25185 0.0
H2884 H 0.93538 0.28974 0.26102 0.0
H2885 H 0.86832 0.08589 0.1681 0.0
H2886 H 0.85874 0.27468 0.26146 0.0
N2887 N 0.92309 0.25352 0.23014 0.0
C2888 C 0.96648 0.26512 0.22949 0.0
C2889 C 0.97729 0.28327 0.24582 0.0
C2890 C 0.93358 0.27405 0.24639 0.0
C2891 C 0.99398 0.27935 0.23729 0.0
C2892 C 0.90723 0.25985 0.23831 0.0
H2893 H 0.78791 0.25294 0.25311 0.0
N2894 N 0.83986 0.2378 0.23057 0.0
C2895 C 0.77917 0.23751 0.23855 0.0
C2896 C 0.86411 0.25138 0.23853 0.0
C2897 C 0.7985 0.23286 0.23043 0.0
C2898 C 0.8029 0.2491 0.24684 0.0
C2899 C 0.84619 0.25695 0.24688 0.0
O2900 O 0.86772 0.28688 0.21566 0.0
O2901 O 0.81729 0.1663 0.21456 0.0
O2902 O 0.84247 0.16452 0.19698 0.0
O2903 O 0.89574 0.23194 0.20291 0.0
O2904 O 0.8162 0.22135 0.2106 0.0
O2905 O 0.93131 0.29209 0.21402 0.0
O2906 O 0.86701 0.08012 0.20891 0.0
O2907 O 0.89704 0.18898 0.21153 0.0
O2908 O 0.87081 0.18402 0.22898 0.0
O2909 O 0.81569 0.11952 0.22259 0.0
O2910 O 0.9083 0.13863 0.21241 0.0
O2911 O 0.80329 0.06076 0.21477 0.0
C2912 C 0.79279 0.17912 0.21069 0.0
C2913 C 0.9306 0.35883 0.21825 0.0
C2914 C 0.94633 0.43692 0.21853 0.0
C2915 C 0.92451 0.39347 0.21455 0.0
C2916 C 0.97453 0.44428 0.22616 0.0
C2917 C 0.9584 0.3683 0.22596 0.0
C2918 C 0.98006 0.41045 0.22983 0.0
C2919 C 0.87254 0.20643 0.19575 0.0
C2920 C 0.90945 0.31356 0.21393 0.0
C2921 C 0.87206 0.27043 0.25499 0.0
C2922 C 0.91568 0.27901 0.25474 0.0
C2923 C 0.92718 0.18043 0.21346 0.0
C2924 C 0.8136 1.00296 0.20843 0.0
C2925 C 0.83884 0.98111 0.20812 0.0
C2926 C 0.82053 0.93777 0.20435 0.0
C2927 C 0.77651 0.91675 0.2012 0.0
C2928 C 0.77012 0.98066 0.20503 0.0
C2929 C 0.75184 0.93802 0.2015 0.0
C2930 C 0.8408 0.14117 0.22974 0.0
C2931 C 0.8315 0.04793 0.21262 0.0
H2932 H 0.90285 0.38643 0.20864 0.0
H2933 H 0.99343 0.47669 0.22926 0.0
H2934 H 0.96413 0.34331 0.22894 0.0
H2935 H 1.00192 0.41716 0.2357 0.0
H2936 H 0.87249 0.99789 0.21067 0.0
H2937 H 0.76082 0.88338 0.19848 0.0
H2938 H 0.74972 0.99585 0.2052 0.0
H2939 H 0.71814 0.92121 0.19899 0.0
Tb2940 Tb 0.88589 0.69505 0.21364 0.0
C2941 C 0.0433 0.7356 0.19075 0.0
C2942 C 0.06533 0.68662 0.19769 0.0
C2943 C 0.07948 0.70532 0.18129 0.0
C2944 C 0.04524 0.71285 0.19836 0.0
C2945 C 0.06161 0.73334 0.18218 0.0
C2946 C 0.08126 0.6819 0.18903 0.0
C2947 C 0.04809 0.79051 0.17645 0.0
N2948 N 0.02616 0.76251 0.19195 0.0
C2949 C 0.0304 0.79162 0.18512 0.0
C2950 C 0.06302 0.76064 0.17492 0.0
Tb2951 Tb 0.99758 0.76176 0.20634 0.0
N2952 N 0.0306 0.71937 0.2066 0.0
C2953 C 0.0384 0.70354 0.21462 0.0
C2954 C 0.07049 0.6676 0.2058 0.0
C2955 C 0.05773 0.67682 0.21433 0.0
H2956 H 1.01883 0.8147 0.18626 0.0
H2957 H 0.06269 0.66333 0.22069 0.0
H2958 H 0.09642 0.66153 0.18834 0.0
H2959 H 0.05008 0.81259 0.17097 0.0
H2960 H 0.02885 0.71058 0.22125 0.0
H2961 H 0.75216 0.64615 0.18898 0.0
H2962 H 0.08567 0.64712 0.20559 0.0
H2963 H 0.90737 0.75447 0.23324 0.0
H2964 H 0.81179 0.64096 0.19702 0.0
H2965 H 0.88319 0.80167 0.24069 0.0
H2966 H 0.09329 0.70266 0.17473 0.0
H2967 H 0.73462 0.70395 0.19353 0.0
H2968 H 0.7455 0.76338 0.20482 0.0
H2969 H 0.07682 0.75994 0.16822 0.0
H2970 H 0.77941 0.80389 0.21927 0.0
N2971 N 0.83066 0.69788 0.20547 0.0
C2972 C 0.80476 0.66672 0.19898 0.0
C2973 C 0.76127 0.70224 0.19698 0.0
C2974 C 0.78403 0.73037 0.20441 0.0
C2975 C 0.77095 0.66949 0.19442 0.0
C2976 C 0.81855 0.72686 0.20865 0.0
H2977 H 0.82883 0.81639 0.23293 0.0
N2978 N 0.86822 0.74252 0.22103 0.0
C2979 C 0.87022 0.78738 0.23394 0.0
C2980 C 0.83741 0.74938 0.2168 0.0
C2981 C 0.8842 0.76063 0.22959 0.0
C2982 C 0.83952 0.7956 0.22955 0.0
C2983 C 0.82255 0.77641 0.22089 0.0
O2984 O 0.84583 0.66399 0.22542 0.0
O2985 O 0.94851 0.69638 0.21186 0.0
O2986 O 0.9594 0.72727 0.194 0.0
O2987 O 0.88935 0.71174 0.19864 0.0
O2988 O 0.89389 0.64585 0.20583 0.0
O2989 O 0.83796 0.6268 0.21315 0.0
O2990 O 0.03474 0.83139 0.20522 0.0
O2991 O 0.93968 0.76231 0.21195 0.0
O2992 O 0.92924 0.7069 0.22625 0.0
O2993 O 0.99806 0.76283 0.22127 0.0
O2994 O 0.97208 0.80275 0.20076 0.0
O2995 O 0.06016 0.79637 0.21276 0.0
C2996 C 0.93463 0.65936 0.2077 0.0
C2997 C 0.77152 0.6095 0.22114 0.0
C2998 C 0.69377 0.54965 0.21915 0.0
C2999 C 0.73973 0.56388 0.21985 0.0
C3000 C 0.68062 0.58152 0.21955 0.0
C3001 C 0.75595 0.63933 0.22219 0.0
C3002 C 0.71134 0.62576 0.22116 0.0
C3003 C 0.91876 0.71801 0.19208 0.0
C3004 C 0.82062 0.62683 0.22112 0.0
C3005 C 0.79053 0.78255 0.21633 0.0
C3006 C 0.7714 0.75967 0.20808 0.0
C3007 C 0.94026 0.79158 0.20655 0.0
C3008 C 0.11251 0.86539 0.20613 0.0
C3009 C 0.13416 0.9109 0.2084 0.0
C3010 C 0.17674 0.94047 0.20485 0.0
C3011 C 0.19715 0.92324 0.19909 0.0
C3012 C 0.13373 0.84956 0.20031 0.0
C3013 C 0.17578 0.87835 0.19684 0.0
C3014 C 0.97138 0.73799 0.22788 0.0
C3015 C 0.068 0.83491 0.2099 0.0
H3016 H 0.75052 0.53977 0.21947 0.0
H3017 H 0.64597 0.57178 0.21911 0.0
H3018 H 0.77824 0.67345 0.22386 0.0
H3019 H 0.70038 0.64966 0.22181 0.0
H3020 H 0.11759 0.92324 0.21283 0.0
H3021 H 0.23007 0.9444 0.19638 0.0
H3022 H 0.11795 0.8149 0.1985 0.0
H3023 H 0.19203 0.86576 0.1924 0.0
H3024 H 0.50588 0.16379 0.10321 0.0
H3025 H 0.38964 0.15256 0.09026 0.0
H3026 H 0.40526 0.12438 0.07612 0.0
H3027 H 0.44794 0.09778 0.06791 0.0
H3028 H 0.56665 0.11028 0.07999 0.0
H3029 H 0.55317 0.14149 0.09416 0.0
C3030 C 0.48453 0.156 0.0972 0.0
C3031 C 0.44729 0.16198 0.09771 0.0
C3032 C 0.49352 0.13887 0.08906 0.0
C3033 C 0.41952 0.15073 0.08995 0.0
C3034 C 0.42802 0.13359 0.08191 0.0
C3035 C 0.47171 0.10783 0.0735 0.0
C3036 C 0.50853 0.10136 0.07275 0.0
C3037 C 0.46449 0.12697 0.08144 0.0
C3038 C 0.53791 0.1143 0.08031 0.0
C3039 C 0.53026 0.13244 0.08841 0.0
H3040 H 0.04065 0.38902 0.1033 0.0
H3041 H 0.91706 0.28665 0.092 0.0
H3042 H 0.92709 0.33283 0.07845 0.0
H3043 H 0.96939 0.40118 0.06996 0.0
H3044 H 0.09677 0.50233 0.07993 0.0
H3045 H 0.0858 0.45827 0.09411 0.0
C3046 C 1.01595 0.37663 0.09784 0.0
C3047 C 0.97786 0.33403 0.09873 0.0
C3048 C 1.02223 0.40347 0.08995 0.0
C3049 C 0.94658 0.31882 0.09154 0.0
C3050 C 0.95222 0.34546 0.08381 0.0
C3051 C 0.99528 0.4142 0.07516 0.0
C3052 C 0.03424 0.45563 0.07374 0.0
C3053 C 0.98968 0.3878 0.08298 0.0
C3054 C 0.06644 0.47114 0.08077 0.0
C3055 C 0.06027 0.44555 0.08884 0.0
H3056 H 0.72239 0.62248 0.06494 0.0
H3057 H 0.6114 0.60742 0.0809 0.0
H3058 H 0.65776 0.63371 0.09479 0.0
H3059 H 0.73076 0.66567 0.10216 0.0
H3060 H 0.8415 0.67653 0.08665 0.0
H3061 H 0.79468 0.64834 0.07278 0.0
C3062 C 0.70811 0.62451 0.07147 0.0
C3063 C 0.66287 0.6126 0.07178 0.0
C3064 C 0.73534 0.63982 0.07948 0.0
C3065 C 0.64533 0.61529 0.08038 0.0
C3066 C 0.67224 0.63097 0.08834 0.0
C3067 C 0.74506 0.66168 0.09582 0.0
C3068 C 0.79054 0.67437 0.09555 0.0
C3069 C 0.71743 0.644 0.08794 0.0
C3070 C 0.80735 0.66825 0.08713 0.0
C3071 C 0.7803 0.65174 0.07918 0.0
H3072 H 0.10476 0.41728 0.43829 0.0
H3073 H 0.10825 0.52915 0.42475 0.0
H3074 H 0.13651 0.51291 0.41061 0.0
H3075 H 0.15698 0.46489 0.40183 0.0
H3076 H 0.15656 0.35505 0.41549 0.0
H3077 H 0.13212 0.37367 0.42998 0.0
C3078 C 0.1118 0.43851 0.4323 0.0
C3079 C 0.10286 0.47398 0.43262 0.0
C3080 C 0.12939 0.42964 0.42424 0.0
C3081 C 0.11317 0.50098 0.42472 0.0
C3082 C 0.12988 0.4919 0.41663 0.0
C3083 C 0.1523 0.4454 0.40803 0.0
C3084 C 0.15897 0.40863 0.40755 0.0
C3085 C 0.13764 0.45605 0.41628 0.0
C3086 C 0.15268 0.38388 0.41566 0.0
C3087 C 0.13802 0.39425 0.42392 0.0
H3088 H 0.6783 0.7083 0.43603 0.0
H3089 H 0.61346 0.58738 0.42006 0.0
H3090 H 0.63571 0.63113 0.40569 0.0
H3091 H 0.66846 0.70278 0.39782 0.0
H3092 H 0.73347 0.82415 0.41366 0.0
H3093 H 0.71549 0.78041 0.42805 0.0
C3094 C 0.66899 0.69098 0.42943 0.0
C3095 C 0.64338 0.64386 0.42925 0.0
C3096 C 0.68159 0.71651 0.4212 0.0
C3097 C 0.63279 0.62303 0.42053 0.0
C3098 C 0.64539 0.64826 0.4123 0.0
C3099 C 0.67944 0.72037 0.40436 0.0
C3100 C 0.70266 0.76757 0.40451 0.0
C3101 C 0.66902 0.69495 0.41257 0.0
C3102 C 0.71592 0.78845 0.4132 0.0
C3103 C 0.70547 0.76324 0.42144 0.0
H3104 H 0.38612 1.00907 0.39976 0.0
H3105 H 0.29302 0.87968 0.41032 0.0
H3106 H 0.33932 0.894 0.42411 0.0
H3107 H 0.40543 0.94223 0.43306 0.0
H3108 H 0.49551 0.0748 0.42366 0.0
H3109 H 0.45207 0.05936 0.40925 0.0
C3110 C 0.37567 0.98391 0.40508 0.0
C3111 C 0.33568 0.94301 0.40391 0.0
C3112 C 0.40244 0.99266 0.41309 0.0
C3113 C 0.32305 0.91131 0.41098 0.0
C3114 C 0.34984 0.91945 0.41885 0.0
C3115 C 0.41611 0.96817 0.4279 0.0
C3116 C 0.45431 1.01001 0.42958 0.0
C3117 C 0.38961 0.95983 0.41994 0.0
C3118 C 0.46698 0.04236 0.42263 0.0
C3119 C 0.44164 0.03358 0.41444 0.0
H3120 H 0.62751 0.94671 0.93642 0.0
H3121 H 0.61138 0.04623 0.92222 0.0
H3122 H 0.63326 0.02726 0.9076 0.0
H3123 H 0.66073 0.98556 0.899 0.0
H3124 H 0.67288 0.88216 0.91261 0.0
H3125 H 0.6498 0.90012 0.92733 0.0
C3126 C 0.62831 0.96397 0.9301 0.0
C3127 C 0.61707 0.99776 0.93047 0.0
C3128 C 0.64106 0.95267 0.92164 0.0
C3129 C 0.61846 0.01956 0.92219 0.0
C3130 C 0.63165 1.009 0.91381 0.0
C3131 C 0.65816 0.96639 0.90511 0.0
C3132 C 0.66972 0.93286 0.90461 0.0
C3133 C 0.64347 0.97598 0.91347 0.0
C3134 C 0.66553 0.90876 0.91274 0.0
C3135 C 0.6519 0.91887 0.92117 0.0
H3136 H 0.07619 0.70801 0.89986 0.0
H3137 H 0.21226 0.7896 0.90812 0.0
H3138 H 0.1997 0.74054 0.92133 0.0
H3139 H 0.15045 0.67521 0.93056 0.0
H3140 H 1.01249 0.59742 0.9234 0.0
H3141 H 0.02597 0.64286 0.90942 0.0
C3142 C 0.1032 0.71524 0.90454 0.0
C3143 C 0.14534 0.75282 0.90292 0.0
C3144 C 0.09555 0.68691 0.9122 0.0
C3145 C 0.17955 0.7615 0.90918 0.0
C3146 C 0.17241 0.73309 0.91669 0.0
C3147 C 0.12311 0.66775 0.92593 0.0
C3148 C 0.08024 0.63261 0.92814 0.0
C3149 C 0.13064 0.69568 0.91825 0.0
C3150 C 0.04574 0.62367 0.92193 0.0
C3151 C 0.05343 0.6502 0.914 0.0
H3152 H 0.38145 0.44318 0.93625 0.0
H3153 H 0.50099 0.48122 0.92084 0.0
H3154 H 0.4584 0.45741 0.90639 0.0
H3155 H 0.38723 0.42304 0.89825 0.0
H3156 H 0.26753 0.38843 0.91337 0.0
H3157 H 0.31012 0.41293 0.92786 0.0
C3158 C 0.39837 0.44644 0.92973 0.0
C3159 C 0.44484 0.46415 0.92971 0.0
C3160 C 0.37342 0.43262 0.92142 0.0
C3161 C 0.46582 0.46849 0.92114 0.0
C3162 C 0.44121 0.45438 0.91286 0.0
C3163 C 0.36998 0.4206 0.90468 0.0
C3164 C 0.32343 0.4025 0.90464 0.0
C3165 C 0.39497 0.43595 0.91294 0.0
C3166 C 0.3027 0.40085 0.91312 0.0
C3167 C 0.32728 0.41527 0.92142 0.0
H3168 H 1.00569 0.67042 0.60257 0.0
H3169 H 0.89699 0.67343 0.58908 0.0
H3170 H 0.91108 0.6431 0.57489 0.0
H3171 H 0.95583 0.61719 0.56623 0.0
H3172 H 0.06346 0.61445 0.58015 0.0
H3173 H 0.04704 0.64147 0.59439 0.0
C3174 C 0.9846 0.66438 0.5966 0.0
C3175 C 0.95043 0.67504 0.59697 0.0
C3176 C 0.99232 0.64607 0.58857 0.0
C3177 C 0.92385 0.66644 0.58904 0.0
C3178 C 0.9318 0.64877 0.58093 0.0
C3179 C 0.97537 0.622 0.57242 0.0
C3180 C 1.0103 0.61243 0.57214 0.0
C3181 C 0.96613 0.63864 0.58059 0.0
C3182 C 0.03534 0.61932 0.58022 0.0
C3183 C 0.02641 0.63575 0.58834 0.0
H3184 H 0.4143 0.38669 0.56733 0.0
H3185 H 0.52731 0.49596 0.58037 0.0
H3186 H 0.51426 0.451 0.59435 0.0
H3187 H 0.47482 0.37944 0.60227 0.0
H3188 H 0.35749 0.27186 0.59003 0.0
H3189 H 0.36923 0.31727 0.57612 0.0
C3190 C 0.43576 0.40127 0.57328 0.0
C3191 C 0.47219 0.44515 0.57267 0.0
C3192 C 0.42792 0.37506 0.58132 0.0
C3193 C 0.49913 0.46285 0.58054 0.0
C3194 C 0.49186 0.43679 0.58853 0.0
C3195 C 0.45118 0.36549 0.59666 0.0
C3196 C 0.41532 0.32133 0.5973 0.0
C3197 C 0.45704 0.39256 0.58889 0.0
C3198 C 0.38566 0.30497 0.5898 0.0
C3199 C 0.39224 0.33125 0.58186 0.0
H3200 H 0.71942 0.1068 0.60433 0.0
H3201 H 0.83122 0.2072 0.5892 0.0
H3202 H 0.78592 0.18712 0.57505 0.0
H3203 H 0.71494 0.13916 0.56689 0.0
H3204 H 0.60272 0.04255 0.58248 0.0
H3205 H 0.64758 0.06422 0.59664 0.0
C3206 C 0.73431 0.12496 0.59802 0.0
C3207 C 0.77961 0.15836 0.59794 0.0
C3208 C 0.70758 0.11408 0.58998 0.0
C3209 C 0.79718 0.18097 0.58955 0.0
C3210 C 0.77101 0.16957 0.58144 0.0
C3211 C 0.69998 0.12308 0.57341 0.0
C3212 C 0.65493 0.08906 0.57355 0.0
C3213 C 0.72624 0.1359 0.58156 0.0
C3214 C 0.63658 0.06905 0.5821 0.0
C3215 C 0.66258 0.08122 0.59021 0.0
H3216 H 0.81005 0.80658 0.73138 0.0
H3217 H 0.83999 0.71527 0.74517 0.0
H3218 H 0.81497 0.73001 0.75994 0.0
H3219 H 0.78017 0.76531 0.76877 0.0
H3220 H 0.7508 0.85726 0.75499 0.0
H3221 H 0.77876 0.84478 0.74035 0.0
C3222 C 0.81145 0.78996 0.73761 0.0
C3223 C 0.82743 0.75982 0.73706 0.0
C3224 C 0.79615 0.79812 0.74607 0.0
C3225 C 0.82911 0.73922 0.7453 0.0
C3226 C 0.81406 0.74725 0.75376 0.0
C3227 C 0.77984 0.78285 0.76259 0.0
C3228 C 0.76253 0.81192 0.76305 0.0
C3229 C 0.79684 0.77608 0.75421 0.0
C3230 C 0.76309 0.83435 0.75491 0.0
C3231 C 0.77939 0.82734 0.74652 0.0
H3232 H 0.35017 0.0517 0.77005 0.0
H3233 H 0.2349 0.94612 0.75673 0.0
H3234 H 0.25023 0.9921 0.74286 0.0
H3235 H 0.29654 0.06124 0.73444 0.0
H3236 H 0.41251 0.16684 0.74749 0.0
H3237 H 0.39556 0.12233 0.76171 0.0
C3238 C 0.32816 0.03842 0.76414 0.0
C3239 C 0.29141 0.99468 0.76449 0.0
C3240 C 0.33698 0.06543 0.75619 0.0
C3241 C 0.26359 0.97891 0.7567 0.0
C3242 C 0.27226 1.00548 0.74877 0.0
C3243 C 0.31833 0.07495 0.74039 0.0
C3244 C 0.35611 0.11786 0.73979 0.0
C3245 C 0.30889 0.04866 0.74843 0.0
C3246 C 0.38311 0.13462 0.74768 0.0
C3247 C 0.37359 0.10876 0.7558 0.0
H3248 H 0.04729 0.35515 0.73354 0.0
H3249 H 0.96243 0.22194 0.74328 0.0
H3250 H 1.01381 0.23512 0.75605 0.0
H3251 H 0.08178 0.28365 0.76444 0.0
H3252 H 0.16401 0.41934 0.75596 0.0
H3253 H 0.11585 0.40516 0.74235 0.0
C3254 C 0.0398 0.32889 0.73846 0.0
C3255 C 1.00058 0.28729 0.73736 0.0
C3256 C 0.06962 0.33689 0.74587 0.0
C3257 C 0.99178 0.25414 0.74391 0.0
C3258 C 1.02149 0.26163 0.75118 0.0
C3259 C 0.08975 0.31045 0.75962 0.0
C3260 C 0.12703 0.35283 0.76132 0.0
C3261 C 0.0605 0.30271 0.75219 0.0
C3262 C 0.1363 0.38644 0.75485 0.0
C3263 C 0.1082 0.37839 0.74715 0.0
H3264 H 0.28255 0.28214 0.26843 0.0
H3265 H 0.30147 0.40252 0.25608 0.0
H3266 H 0.32974 0.38648 0.2419 0.0
H3267 H 0.35393 0.34114 0.23345 0.0
H3268 H 0.33393 0.21939 0.24547 0.0
H3269 H 0.30134 0.23299 0.2593 0.0
C3270 C 0.29245 0.3046 0.26259 0.0
C3271 C 0.28932 0.34338 0.26332 0.0
C3272 C 0.30933 0.29528 0.25447 0.0
C3273 C 0.30217 0.37199 0.25566 0.0
C3274 C 0.31906 0.36307 0.24759 0.0
C3275 C 0.34275 0.31742 0.23909 0.0
C3276 C 0.3478 0.27965 0.23843 0.0
C3277 C 0.32358 0.32528 0.24699 0.0
C3278 C 0.33188 0.24923 0.24581 0.0
C3279 C 0.31304 0.25702 0.25374 0.0
H3280 H 0.78584 0.05638 0.26987 0.0
H3281 H 0.76582 0.94032 0.25506 0.0
H3282 H 0.79086 0.98363 0.24069 0.0
H3283 H 0.81664 0.05441 0.23228 0.0
H3284 H 0.84371 0.17137 0.24759 0.0
H3285 H 0.81914 0.12797 0.26194 0.0
C3286 C 0.7871 0.04007 0.26358 0.0
C3287 C 0.77239 0.99407 0.26365 0.0
C3288 C 0.80332 0.06575 0.25543 0.0
C3289 C 0.7753 0.97482 0.25529 0.0
C3290 C 0.7901 0.99989 0.24705 0.0
C3291 C 0.81737 0.0706 0.23874 0.0
C3292 C 0.83153 0.1164 0.23875 0.0
C3293 C 0.80376 0.04532 0.24702 0.0
C3294 C 0.83307 0.13658 0.24729 0.0
C3295 C 0.81871 0.11153 0.25551 0.0
H3296 H 0.04889 0.80913 0.23307 0.0
H3297 H 0.94743 0.68271 0.24338 0.0
H3298 H 0.99296 0.69282 0.25725 0.0
H3299 H 0.0625 0.73715 0.26614 0.0
H3300 H 0.16299 0.863 0.25541 0.0
H3301 H 0.11778 0.85183 0.24157 0.0
C3302 C 0.03624 0.78337 0.2383 0.0
C3303 C 0.99424 0.74492 0.23709 0.0
C3304 C 0.06315 0.78882 0.24602 0.0
C3305 C 0.979 0.71273 0.24411 0.0
C3306 C 1.00543 0.71834 0.25197 0.0
C3307 C 0.07472 0.76217 0.26075 0.0
C3308 C 0.11631 0.80122 0.26189 0.0
C3309 C 0.04776 0.75607 0.25294 0.0
C3310 C 0.13165 0.83264 0.25474 0.0
C3311 C 0.10539 0.82649 0.24688 0.0
H3312 H 0.54779 0.10106 0.01521 0.0
H3313 H 0.53978 0.97618 0.02072 0.0
H3314 H 0.55269 0.96914 0.00418 0.0
H3315 H 0.56286 0.9971 0.98824 0.0
H3316 H 0.57489 0.12359 0.9826 0.0
H3317 H 0.55998 0.13012 0.99909 0.0
C3318 C 0.54786 0.07189 0.01276 0.0
C3319 C 0.5416 0.03856 0.01914 0.0
C3320 C 0.55529 0.06824 0.00325 0.0
C3321 C 0.54426 1.00206 0.01595 0.0
C3322 C 0.55136 0.99798 0.0065 0.0
C3323 C 0.56385 0.02686 0.99063 0.0
C3324 C 0.57178 0.0606 0.98422 0.0
C3325 C 0.55668 0.03077 1.0001 0.0
C3326 C 0.56942 0.09739 0.98737 0.0
C3327 C 0.56121 0.10118 0.99681 0.0
H3328 H 0.1083 0.59442 0.9867 0.0
H3329 H 0.97608 0.48595 0.98222 0.0
H3330 H 0.96862 0.46974 0.99888 0.0
H3331 H 0.99838 0.48858 0.01474 0.0
H3332 H 0.13026 0.59704 0.01925 0.0
H3333 H 0.13823 0.61276 0.00255 0.0
C3334 C 0.07767 0.56731 0.98934 0.0
C3335 C 0.04255 0.54174 0.98319 0.0
C3336 C 0.07328 0.55882 0.99894 0.0
C3337 C 1.0036 0.5062 0.98676 0.0
C3338 C 0.99921 0.49712 0.99631 0.0
C3339 C 0.02918 0.51516 0.01206 0.0
C3340 C 0.06398 0.54114 0.01823 0.0
C3341 C 0.03366 0.5235 0.00246 0.0
C3342 C 0.10295 0.57666 0.01467 0.0
C3343 C 0.10762 0.58538 0.00511 0.0
H3344 H 0.60699 0.5453 0.01465 0.0
H3345 H 0.49785 0.56645 0.02009 0.0
H3346 H 0.47734 0.55397 0.00355 0.0
H3347 H 0.49394 0.54222 0.98751 0.0
H3348 H 0.60177 0.51876 0.98209 0.0
H3349 H 0.62187 0.53067 0.99861 0.0
C3350 C 0.57915 0.54785 0.01219 0.0
C3351 C 0.55454 0.55775 0.01856 0.0
C3352 C 0.56812 0.54124 0.00268 0.0
C3353 C 0.51723 0.55882 0.01535 0.0
C3354 C 0.50586 0.55214 0.00588 0.0
C3355 C 0.52099 0.53831 0.98993 0.0
C3356 C 0.54549 0.52837 0.98351 0.0
C3357 C 0.53145 0.54392 0.99947 0.0
C3358 C 0.58219 0.52621 0.9868 0.0
C3359 C 0.59345 0.53267 0.99628 0.0
H3360 H 0.07271 0.61526 0.5127 0.0
H3361 H 0.04054 0.48679 0.52303 0.0
H3362 H 0.02485 0.45726 0.50732 0.0
H3363 H 1.01957 0.46732 0.49054 0.0
H3364 H 0.05857 0.59715 0.47999 0.0
H3365 H 0.07003 0.62598 0.49581 0.0
C3366 C 0.06246 0.5808 0.51153 0.0
C3367 C 0.05686 0.55316 0.51918 0.0
C3368 C 0.05407 0.56403 0.50238 0.0
C3369 C 0.04488 0.50899 0.5174 0.0
C3370 C 0.0356 0.49189 0.50837 0.0
C3371 C 0.03106 0.50207 0.49167 0.0
C3372 C 0.03899 0.53001 0.48397 0.0
C3373 C 0.03982 0.519 0.5008 0.0
C3374 C 0.05222 0.57461 0.48567 0.0
C3375 C 0.05934 0.59135 0.49476 0.0
H3376 H 0.61975 0.5931 0.48887 0.0
H3377 H 0.49533 0.48586 0.47925 0.0
H3378 H 0.46922 0.46843 0.4953 0.0
H3379 H 0.48105 0.48562 0.51211 0.0
H3380 H 0.60312 0.59805 0.52125 0.0
H3381 H 0.62951 0.61315 0.50534 0.0
C3382 C 0.58672 0.56611 0.49023 0.0
C3383 C 0.55981 0.54063 0.48279 0.0
C3384 C 0.57108 0.55783 0.49943 0.0
C3385 C 0.51736 0.50534 0.48479 0.0
C3386 C 0.5021 0.49583 0.49399 0.0
C3387 C 0.51357 0.51323 0.51065 0.0
C3388 C 0.54057 0.53952 0.51803 0.0
C3389 C 0.52859 0.52209 0.50137 0.0
C3390 C 0.58169 0.57651 0.51586 0.0
C3391 C 0.59705 0.58517 0.5067 0.0
H3392 H 0.59009 0.09279 0.51716 0.0
H3393 H 0.4913 0.95663 0.52132 0.0
H3394 H 0.47291 0.94939 0.50467 0.0
H3395 H 0.48879 0.98076 0.48881 0.0
H3396 H 0.58796 0.11743 0.48477 0.0
H3397 H 0.60443 0.12482 0.50142 0.0
C3398 C 0.56491 0.06141 0.5144 0.0
C3399 C 0.54263 0.02504 0.52042 0.0
C3400 C 0.55531 0.05745 0.50482 0.0
C3401 C 0.50878 0.98506 0.51683 0.0
C3402 C 0.49865 0.98089 0.5073 0.0
C3403 C 0.51346 1.01247 0.49156 0.0
C3404 C 0.53664 0.04872 0.48548 0.0
C3405 C 0.52221 0.0167 0.5012 0.0
C3406 C 0.56956 0.08899 0.48922 0.0
C3407 C 0.5788 0.09331 0.49877 0.0
H3408 H 0.22623 0.33011 0.321 0.0
H3409 H 0.23636 0.45588 0.31555 0.0
H3410 H 0.2202 0.46134 0.33201 0.0
H3411 H 0.20777 0.43186 0.34812 0.0
H3412 H 0.20131 0.30745 0.35342 0.0
H3413 H 0.21511 0.30142 0.33693 0.0
C3414 C 0.22645 0.35946 0.32344 0.0
C3415 C 0.23422 0.39329 0.31707 0.0
C3416 C 0.21845 0.36277 0.33292 0.0
C3417 C 0.23095 0.42954 0.32028 0.0
C3418 C 0.22203 0.43275 0.32971 0.0
C3419 C 0.20825 0.40293 0.34565 0.0
C3420 C 0.2023 0.36957 0.35202 0.0
C3421 C 0.21622 0.39975 0.33612 0.0
C3422 C 0.20555 0.33348 0.34871 0.0
C3423 C 0.21319 0.32992 0.33927 0.0
H3424 H 0.66872 0.82335 0.34723 0.0
H3425 H 0.80002 0.93205 0.35189 0.0
H3426 H 0.80635 0.95105 0.33531 0.0
H3427 H 0.77567 0.93371 0.31948 0.0
H3428 H 0.64474 0.82478 0.31473 0.0
H3429 H 0.63828 0.80559 0.33133 0.0
C3430 C 0.69916 0.85036 0.34457 0.0
C3431 C 0.73438 0.87547 0.3507 0.0
C3432 C 0.70282 0.86007 0.33504 0.0
C3433 C 0.77258 0.91227 0.3473 0.0
C3434 C 0.77631 0.92274 0.33782 0.0
C3435 C 0.7454 0.90642 0.32212 0.0
C3436 C 0.71038 0.88125 0.31596 0.0
C3437 C 0.74182 0.89652 0.33163 0.0
C3438 C 0.67216 0.84441 0.31934 0.0
C3439 C 0.66837 0.83387 0.32883 0.0
H3440 H 0.15441 0.826 0.32174 0.0
H3441 H 0.28038 0.93278 0.31257 0.0
H3442 H 0.30055 0.95695 0.32856 0.0
H3443 H 0.28271 0.94835 0.34512 0.0
H3444 H 0.16069 0.83746 0.35472 0.0
H3445 H 0.13797 0.81544 0.33858 0.0
C3446 C 0.1864 0.85453 0.32322 0.0
C3447 C 0.21567 0.87765 0.31584 0.0
C3448 C 0.19831 0.86779 0.33253 0.0
C3449 C 0.25707 0.91419 0.31798 0.0
C3450 C 0.26864 0.9282 0.32718 0.0
C3451 C 0.25146 0.91882 0.34376 0.0
C3452 C 0.22407 0.89406 0.35123 0.0
C3453 C 0.23955 0.90527 0.3345 0.0
C3454 C 0.18278 0.85705 0.34919 0.0
C3455 C 0.16986 0.84428 0.33993 0.0
H3456 H 0.71069 0.80898 0.82233 0.0
H3457 H 0.71614 0.92859 0.81276 0.0
H3458 H 0.72495 0.9551 0.82878 0.0
H3459 H 0.73278 0.94523 0.84544 0.0
H3460 H 0.72569 0.82502 0.85511 0.0
H3461 H 0.71873 0.79916 0.83905 0.0
C3462 C 0.71412 0.84102 0.82371 0.0
C3463 C 0.71349 0.86699 0.81625 0.0
C3464 C 0.71976 0.85635 0.83296 0.0
C3465 C 0.71662 0.90782 0.81828 0.0
C3466 C 0.722 0.92319 0.82746 0.0
C3467 C 0.72931 0.91314 0.84409 0.0
C3468 C 0.72892 0.88683 0.85158 0.0
C3469 C 0.72396 0.8979 0.83484 0.0
C3470 C 0.72598 0.84605 0.84957 0.0
C3471 C 0.72153 0.83101 0.84036 0.0
H3472 H 0.22757 0.82623 0.84828 0.0
H3473 H 0.18405 0.92041 0.85252 0.0
H3474 H 0.19758 0.94128 0.83603 0.0
H3475 H 0.21777 0.92936 0.82031 0.0
H3476 H 0.25702 0.83199 0.81579 0.0
H3477 H 0.24564 0.81262 0.8324 0.0
C3478 C 0.22018 0.85059 0.84553 0.0
C3479 C 0.20398 0.87115 0.85152 0.0
C3480 C 0.22613 0.86077 0.83599 0.0
C3481 C 0.19665 0.90434 0.84802 0.0
C3482 C 0.20387 0.91579 0.83859 0.0
C3483 C 0.22411 0.90412 0.82299 0.0
C3484 C 0.23867 0.88241 0.81689 0.0
C3485 C 0.2179 0.89369 0.8325 0.0
C3486 C 0.24549 0.84882 0.82035 0.0
C3487 C 0.2395 0.83822 0.82985 0.0
H3488 H 0.16712 0.32102 0.81975 0.0
H3489 H 0.26467 0.4585 0.81615 0.0
H3490 H 0.28048 0.46498 0.83285 0.0
H3491 H 0.26525 0.43172 0.84854 0.0
H3492 H 0.16823 0.29453 0.85208 0.0
H3493 H 0.15096 0.28841 0.8354 0.0
C3494 C 0.19135 0.35268 0.82261 0.0
C3495 C 0.21418 0.38946 0.81667 0.0
C3496 C 0.19961 0.35632 0.83223 0.0
C3497 C 0.24659 0.42969 0.82051 0.0
C3498 C 0.25539 0.43348 0.83008 0.0
C3499 C 0.24086 0.4004 0.84561 0.0
C3500 C 0.21862 0.3634 0.85146 0.0
C3501 C 0.23198 0.39706 0.83601 0.0
C3502 C 0.18556 0.32344 0.8477 0.0
C3503 C 0.17611 0.31989 0.83816 0.0
H3504 H 0.92447 0.73692 0.68362 0.0
H3505 H 0.78402 0.66226 0.67913 0.0
H3506 H 0.79541 0.67164 0.6623 0.0
H3507 H 0.84586 0.70223 0.64871 0.0
H3508 H 0.98599 0.78098 0.65355 0.0
H3509 H 0.97418 0.77047 0.67028 0.0
C3510 C 0.89641 0.72237 0.67897 0.0
C3511 C 0.85352 0.69859 0.68267 0.0
C3512 C 0.90312 0.72977 0.66931 0.0
C3513 C 0.81749 0.68025 0.67648 0.0
C3514 C 0.82395 0.68609 0.66684 0.0
C3515 C 0.87361 0.71811 0.65345 0.0
C3516 C 0.91673 0.74288 0.64985 0.0
C3517 C 0.86663 0.71139 0.66316 0.0
C3518 C 0.95242 0.76223 0.65612 0.0
C3519 C 0.94576 0.75578 0.6657 0.0
H3520 H 0.39577 0.19146 0.65142 0.0
H3521 H 0.35464 0.28793 0.65505 0.0
H3522 H 0.36057 0.28431 0.67194 0.0
H3523 H 0.37902 0.2543 0.6858 0.0
H3524 H 0.42854 0.1645 0.68169 0.0
H3525 H 0.41941 0.16614 0.66497 0.0
C3526 C 0.38795 0.21151 0.65589 0.0
C3527 C 0.37466 0.23973 0.65197 0.0
C3528 C 0.39396 0.21124 0.66557 0.0
C3529 C 0.36464 0.26559 0.65791 0.0
C3530 C 0.36848 0.26392 0.66757 0.0
C3531 C 0.38892 0.23612 0.68123 0.0
C3532 C 0.40439 0.2093 0.68503 0.0
C3533 C 0.38386 0.23738 0.6715 0.0
C3534 C 0.41638 0.18534 0.67897 0.0
C3535 C 0.41087 0.18593 0.66938 0.0
H3536 H 0.84078 0.14858 0.65641 0.0
H3537 H 0.9401 0.27785 0.64704 0.0
H3538 H 0.95429 0.30396 0.66311 0.0
H3539 H 0.93713 0.29077 0.67979 0.0
H3540 H 0.84026 0.16063 0.68925 0.0
H3541 H 0.82499 0.13482 0.67313 0.0
C3542 C 0.86569 0.1825 0.65785 0.0
C3543 C 0.88881 0.21138 0.65043 0.0
C3544 C 0.87348 0.19736 0.66714 0.0
C3545 C 0.92168 0.25483 0.65253 0.0
C3546 C 0.92955 0.26991 0.66174 0.0
C3547 C 0.91273 0.25665 0.67836 0.0
C3548 C 0.89017 0.22766 0.6858 0.0
C3549 C 0.90529 0.24162 0.66909 0.0
C3550 C 0.85804 0.18384 0.68373 0.0
C3551 C 0.84965 0.16891 0.6745 0.0
H3552 H 0.42012 0.29496 0.18002 0.0
H3553 H 0.40522 0.17136 0.18962 0.0
H3554 H 0.39543 0.14469 0.17365 0.0
H3555 H 0.38787 0.15502 0.15699 0.0
H3556 H 0.40302 0.27866 0.14733 0.0
H3557 H 0.41299 0.30549 0.16331 0.0
C3558 C 0.4142 0.26195 0.17867 0.0
C3559 C 0.41216 0.23487 0.18617 0.0
C3560 C 0.40771 0.24643 0.16943 0.0
C3561 C 0.40653 0.19298 0.18412 0.0
C3562 C 0.40057 0.17749 0.17494 0.0
C3563 C 0.39375 0.18804 0.15832 0.0
C3564 C 0.39553 0.21498 0.15082 0.0
C3565 C 0.40045 0.20367 0.16755 0.0
C3566 C 0.40161 0.25706 0.15285 0.0
C3567 C 0.40772 0.27264 0.16202 0.0
H3568 H 0.96914 0.27825 0.1572 0.0
H3569 H 0.85013 0.165 0.14712 0.0
H3570 H 0.82167 0.14758 0.16303 0.0
H3571 H 0.82948 0.16614 0.1797 0.0
H3572 H 0.94869 0.27938 0.18972 0.0
H3573 H 0.97687 0.29688 0.17382 0.0
C3574 C 0.93678 0.24993 0.15843 0.0
C3575 C 0.91155 0.22349 0.15088 0.0
C3576 C 0.92024 0.2407 0.16757 0.0
C3577 C 0.87031 0.18609 0.15274 0.0
C3578 C 0.85382 0.17635 0.16184 0.0
C3579 C 0.86182 0.19447 0.17845 0.0
C3580 C 0.88726 0.22079 0.186 0.0
C3581 C 0.87828 0.20373 0.16929 0.0
C3582 C 0.92844 0.25823 0.18413 0.0
C3583 C 0.94475 0.26808 0.17502 0.0
H3584 H 0.85989 0.75358 0.15309 0.0
H3585 H 0.96253 0.72888 0.14348 0.0
H3586 H 0.97854 0.71867 0.15958 0.0
H3587 H 0.95912 0.71101 0.17634 0.0
H3588 H 0.85601 0.73582 0.1856 0.0
H3589 H 0.843 0.74948 0.16965 0.0
C3590 C 0.88582 0.74593 0.15447 0.0
C3591 C 0.90914 0.74086 0.14701 0.0
C3592 C 0.89386 0.73881 0.16369 0.0
C3593 C 0.94371 0.7326 0.14903 0.0
C3594 C 0.95253 0.72624 0.15825 0.0
C3595 C 0.9339 0.71955 0.17487 0.0
C3596 C 0.90841 0.72205 0.18222 0.0
C3597 C 0.92702 0.72815 0.16562 0.0
C3598 C 0.87552 0.73265 0.18013 0.0
C3599 C 0.8684 0.74104 0.17099 0.0
H3600 H 0.56825 0.79969 0.03061 0.0
H3601 H 0.56923 0.83381 0.05952 0.0
H3602 H 0.58853 0.77826 0.06397 0.0
H3603 H 0.59811 0.71499 0.05993 0.0
H3604 H 0.5948 0.67806 0.03123 0.0
H3605 H 0.58387 0.7395 0.02646 0.0
C3606 C 0.57273 0.79518 0.0379 0.0
C3607 C 0.56672 0.82133 0.04471 0.0
C3608 C 0.58342 0.76236 0.04047 0.0
C3609 C 0.57381 0.81504 0.05408 0.0
C3610 C 0.58459 0.78282 0.05665 0.0
C3611 C 0.59582 0.72087 0.0526 0.0
C3612 C 0.59758 0.69188 0.04595 0.0
C3613 C 0.58859 0.75569 0.04994 0.0
C3614 C 0.5942 0.69993 0.0365 0.0
C3615 C 0.58749 0.73493 0.03379 0.0
H3616 H 0.27665 0.82323 0.03945 0.0
H3617 H 0.29314 0.77907 0.06634 0.0
H3618 H 0.36361 0.84735 0.06831 0.0
H3619 H 0.41796 0.92114 0.06299 0.0
H3620 H 0.41094 0.96232 0.03514 0.0
H3621 H 0.33893 0.89456 0.033 0.0
C3622 C 0.29634 0.82813 0.04562 0.0
C3623 C 0.27957 0.79552 0.05273 0.0
C3624 C 0.33777 0.8676 0.04664 0.0
C3625 C 0.30536 0.80284 0.06071 0.0
C3626 C 0.34547 0.84227 0.06189 0.0
C3627 C 0.40089 0.9156 0.0564 0.0
C3628 C 0.41909 0.94846 0.04941 0.0
C3629 C 0.36151 0.87518 0.055 0.0
C3630 C 0.39685 0.93926 0.04084 0.0
C3631 C 0.35596 0.89994 0.03957 0.0
H3632 H 0.18329 0.51591 0.03304 0.0
H3633 H 0.13462 0.48787 0.06116 0.0
H3634 H 0.20021 0.48527 0.066 0.0
H3635 H 0.27365 0.4961 0.06256 0.0
H3636 H 0.32437 0.52532 0.03453 0.0
H3637 H 0.25692 0.52435 0.02945 0.0
C3638 C 0.18657 0.50797 0.04017 0.0
C3639 C 0.15284 0.50002 0.04663 0.0
C3640 C 0.22553 0.50824 0.04299 0.0
C3641 C 0.15869 0.49195 0.05594 0.0
C3642 C 0.19676 0.49131 0.05875 0.0
C3643 C 0.27001 0.50168 0.05528 0.0
C3644 C 0.30455 0.51045 0.04895 0.0
C3645 C 0.23071 0.50012 0.05237 0.0
C3646 C 0.29905 0.51895 0.03963 0.0
C3647 C 0.26008 0.51786 0.03669 0.0
H3648 H 0.83042 0.59899 0.44078 0.0
H3649 H 0.84454 0.55634 0.46806 0.0
H3650 H 0.7758 0.55313 0.47297 0.0
H3651 H 0.7108 0.56234 0.4695 0.0
H3652 H 0.69741 0.60334 0.44205 0.0
H3653 H 0.76721 0.6091 0.43741 0.0
C3654 C 0.81905 0.58949 0.44786 0.0
C3655 C 0.84356 0.57826 0.45403 0.0
C3656 C 0.77972 0.58835 0.45069 0.0
C3657 C 0.82675 0.56478 0.46308 0.0
C3658 C 0.78747 0.56339 0.46593 0.0
C3659 C 0.72379 0.57358 0.46257 0.0
C3660 C 0.69952 0.58448 0.45628 0.0
C3661 C 0.7637 0.57535 0.45982 0.0
C3662 C 0.71597 0.59684 0.44719 0.0
C3663 C 0.75576 0.59944 0.44448 0.0
H3664 H 0.52419 0.18029 0.46761 0.0
H3665 H 0.47193 0.11007 0.44189 0.0
H3666 H 0.47083 0.17428 0.43541 0.0
H3667 H 0.4888 0.25231 0.43666 0.0
H3668 H 0.54537 0.32445 0.46206 0.0
H3669 H 0.54262 0.25876 0.46883 0.0
C3670 C 0.51162 0.17866 0.46064 0.0
C3671 C 0.49625 0.13908 0.45543 0.0
C3672 C 0.51327 0.21689 0.45677 0.0
C3673 C 0.48183 0.13867 0.44628 0.0
C3674 C 0.4821 0.17599 0.4425 0.0
C3675 C 0.50037 0.2539 0.44372 0.0
C3676 C 0.51722 0.29413 0.44881 0.0
C3677 C 0.49832 0.21556 0.44762 0.0
C3678 C 0.53278 0.29483 0.45787 0.0
C3679 C 0.53069 0.25685 0.4618 0.0
H3680 H 0.91686 0.40002 0.46346 0.0
H3681 H 0.98318 0.37142 0.44168 0.0
H3682 H 0.91787 0.29971 0.43913 0.0
H3683 H 0.83947 0.24903 0.44156 0.0
H3684 H 0.76643 0.28443 0.46055 0.0
H3685 H 0.83581 0.34784 0.46586 0.0
C3686 C 0.9176 0.37698 0.45851 0.0
C3687 C 0.95704 0.38971 0.45343 0.0
C3688 C 0.87771 0.33713 0.45637 0.0
C3689 C 0.95536 0.36116 0.44633 0.0
C3690 C 0.91729 0.32043 0.44468 0.0
C3691 C 0.83797 0.2706 0.44678 0.0
C3692 C 0.79645 0.26151 0.45041 0.0
C3693 C 0.87784 0.30866 0.44942 0.0
C3694 C 0.79704 0.28965 0.45753 0.0
C3695 C 0.83704 0.32649 0.46054 0.0
H3696 H 0.51154 0.37218 0.94224 0.0
H3697 H 0.51004 0.40859 0.9708 0.0
H3698 H 0.52327 0.34904 0.9759 0.0
H3699 H 0.54182 0.29071 0.9721 0.0
H3700 H 0.54939 0.25997 0.94326 0.0
H3701 H 0.52672 0.31241 0.9385 0.0
C3702 C 0.51328 0.36657 0.94961 0.0
C3703 C 0.50916 0.3946 0.95613 0.0
C3704 C 0.52253 0.33337 0.95244 0.0
C3705 C 0.51218 0.38718 0.96563 0.0
C3706 C 0.52028 0.35334 0.96853 0.0
C3707 C 0.53878 0.29541 0.96475 0.0
C3708 C 0.54783 0.27082 0.95809 0.0
C3709 C 0.52669 0.32692 0.96198 0.0
C3710 C 0.54232 0.2773 0.94863 0.0
C3711 C 0.52964 0.30782 0.94586 0.0
H3712 H 0.80378 0.29974 0.9571 0.0
H3713 H 0.85695 0.26695 0.93325 0.0
H3714 H 0.80271 0.18927 0.9351 0.0
H3715 H 0.73219 0.13264 0.94161 0.0
H3716 H 0.68227 0.15962 0.96659 0.0
H3717 H 0.74248 0.23699 0.96618 0.0
C3718 C 0.80443 0.27549 0.9525 0.0
C3719 C 0.83395 0.28996 0.94483 0.0
C3720 C 0.7731 0.22966 0.95371 0.0
C3721 C 0.83414 0.25743 0.93904 0.0
C3722 C 0.80296 0.21272 0.94008 0.0
C3723 C 0.73586 0.15465 0.9473 0.0
C3724 C 0.70314 0.13964 0.95426 0.0
C3725 C 0.77116 0.19866 0.94713 0.0
C3726 C 0.70747 0.16964 0.96129 0.0
C3727 C 0.74176 0.21421 0.96098 0.0
H3728 H 0.8391 0.60739 0.94022 0.0
H3729 H 0.77686 0.55396 0.96668 0.0
H3730 H 0.84243 0.55162 0.97173 0.0
H3731 H 0.91736 0.56366 0.96861 0.0
H3732 H 0.979 0.61639 0.94215 0.0
H3733 H 0.91484 0.62219 0.93734 0.0
C3734 C 0.83979 0.59575 0.94716 0.0
C3735 C 0.80236 0.58094 0.95304 0.0
C3736 C 0.87811 0.5952 0.9501 0.0
C3737 C 0.8043 0.56496 0.9619 0.0
C3738 C 0.84219 0.56409 0.96485 0.0
C3739 C 0.91706 0.57725 0.96185 0.0
C3740 C 0.9536 0.5906 0.95584 0.0
C3741 C 0.87931 0.57915 0.95902 0.0
C3742 C 0.95211 0.60701 0.94702 0.0
C3743 C 0.91505 0.60976 0.94422 0.0
H3744 H 0.39427 0.52213 0.53259 0.0
H3745 H 0.40956 0.48147 0.55993 0.0
H3746 H 0.34021 0.47639 0.56484 0.0
H3747 H 0.2766 0.48657 0.56169 0.0
H3748 H 0.26143 0.52963 0.53454 0.0
H3749 H 0.32961 0.53226 0.5294 0.0
C3750 C 0.38182 0.51113 0.53956 0.0
C3751 C 0.40637 0.49997 0.54572 0.0
C3752 C 0.34229 0.50987 0.54247 0.0
C3753 C 0.39065 0.48803 0.55487 0.0
C3754 C 0.35116 0.48585 0.55774 0.0
C3755 C 0.28768 0.49614 0.55459 0.0
C3756 C 0.26291 0.50758 0.54852 0.0
C3757 C 0.32683 0.49704 0.55163 0.0
C3758 C 0.27936 0.52104 0.53945 0.0
C3759 C 0.31834 0.52209 0.53646 0.0
H3760 H 0.59761 0.80836 0.54187 0.0
H3761 H 0.54827 0.77278 0.56984 0.0
H3762 H 0.5496 0.84303 0.57166 0.0
H3763 H 0.56921 0.91652 0.56579 0.0
H3764 H 0.60525 0.94843 0.53703 0.0
H3765 H 0.60625 0.87895 0.53509 0.0
C3766 C 0.58575 0.8154 0.54825 0.0
C3767 C 0.57197 0.78448 0.55568 0.0
C3768 C 0.58594 0.85613 0.54921 0.0
C3769 C 0.55783 0.79498 0.56395 0.0
C3770 C 0.55928 0.83563 0.56504 0.0
C3771 C 0.57745 0.90859 0.55905 0.0
C3772 C 0.59001 0.93966 0.55171 0.0
C3773 C 0.57415 0.86684 0.5578 0.0
C3774 C 0.59858 0.92719 0.54299 0.0
C3775 C 0.59805 0.8867 0.54183 0.0
H3776 H 0.27634 0.80947 0.53161 0.0
H3777 H 0.31393 0.83883 0.56048 0.0
H3778 H 0.24468 0.77404 0.56511 0.0
H3779 H 0.17344 0.70836 0.56107 0.0
H3780 H 0.13547 0.67877 0.53232 0.0
H3781 H 0.20364 0.74544 0.52759 0.0
C3782 C 0.26943 0.80238 0.53895 0.0
C3783 C 0.30122 0.82984 0.54566 0.0
C3784 C 0.22882 0.76523 0.5416 0.0
C3785 C 0.29119 0.81854 0.5551 0.0
C3786 C 0.25111 0.78156 0.55777 0.0
C3787 C 0.17977 0.71688 0.55376 0.0
C3788 C 0.1487 0.68891 0.54707 0.0
C3789 C 0.21968 0.75468 0.5511 0.0
C3790 C 0.15796 0.70007 0.53763 0.0
C3791 C 0.19735 0.738 0.53493 0.0
H3792 H 0.29692 0.05745 0.39109 0.0
H3793 H 0.23806 0.99149 0.36533 0.0
H3794 H 0.214 0.04525 0.36223 0.0
H3795 H 0.19981 0.10438 0.3681 0.0
H3796 H 0.26165 0.17211 0.39354 0.0
H3797 H 0.29473 0.1251 0.39546 0.0
C3798 C 0.28044 0.05595 0.3846 0.0
C3799 C 0.26994 0.02057 0.37839 0.0
C3800 C 0.26645 0.08704 0.3829 0.0
C3801 C 0.24762 0.01869 0.37013 0.0
C3802 C 0.2332 0.04919 0.36843 0.0
C3803 C 0.22165 0.10974 0.37391 0.0
C3804 C 0.22827 0.14209 0.38067 0.0
C3805 C 0.24096 0.08255 0.37493 0.0
C3806 C 0.25635 0.14809 0.38819 0.0
C3807 C 0.275 0.12084 0.38933 0.0
H3808 H 0.07056 0.24361 0.39787 0.0
H3809 H 0.05894 0.28127 0.36998 0.0
H3810 H 0.98749 0.21245 0.36832 0.0
H3811 H 0.92749 0.14051 0.3751 0.0
H3812 H 0.9493 0.09964 0.4019 0.0
H3813 H 1.01856 0.16954 0.4035 0.0
C3814 C 0.05252 0.23714 0.39139 0.0
C3815 C 0.06939 0.26938 0.38425 0.0
C3816 C 1.01372 0.19591 0.39022 0.0
C3817 C 0.0459 0.25889 0.37582 0.0
C3818 C 1.00538 0.21886 0.37481 0.0
C3819 C 0.9481 0.14647 0.38117 0.0
C3820 C 0.93318 0.11423 0.38835 0.0
C3821 C 0.98887 0.18693 0.38198 0.0
C3822 C 0.96013 0.12303 0.39621 0.0
C3823 C 0.99952 0.16342 0.39718 0.0
H3824 H 0.85644 0.85011 0.36474 0.0
H3825 H 0.80399 0.81704 0.39253 0.0
H3826 H 0.87023 0.81656 0.39768 0.0
H3827 H 0.94456 0.82917 0.39463 0.0
H3828 H 0.99889 0.86182 0.36693 0.0
H3829 H 0.93171 0.86072 0.36155 0.0
C3830 C 0.85911 0.84166 0.37187 0.0
C3831 C 0.82394 0.8316 0.37813 0.0
C3832 C 0.89837 0.84265 0.37487 0.0
C3833 C 0.82916 0.8229 0.38744 0.0
C3834 C 0.86756 0.82333 0.39043 0.0
C3835 C 0.94185 0.83541 0.38735 0.0
C3836 C 0.97741 0.84508 0.38121 0.0
C3837 C 0.90258 0.83361 0.38425 0.0
C3838 C 0.97287 0.85462 0.3719 0.0
C3839 C 0.934 0.85348 0.36878 0.0
H3840 H 0.40586 0.96813 0.77685 0.0
H3841 H 0.34193 0.88201 0.80004 0.0
H3842 H 0.40321 0.86663 0.80121 0.0
H3843 H 0.47054 0.86989 0.79388 0.0
H3844 H 0.5367 0.96369 0.77184 0.0
H3845 H 0.48051 0.98539 0.77227 0.0
C3846 C 0.40634 0.94781 0.78249 0.0
C3847 C 0.36976 0.92749 0.78854 0.0
C3848 C 0.44231 0.94024 0.78328 0.0
C3849 C 0.37022 0.89948 0.79551 0.0
C3850 C 0.40517 0.89024 0.79609 0.0
C3851 C 0.47368 0.89639 0.78946 0.0
C3852 C 0.50802 0.91481 0.78276 0.0
C3853 C 0.44095 0.90942 0.78981 0.0
C3854 C 0.5109 0.94884 0.77704 0.0
C3855 C 0.4784 0.96103 0.77722 0.0
H3856 H 0.16715 0.59896 0.77179 0.0
H3857 H 0.20291 0.65463 0.79938 0.0
H3858 H 0.20114 0.5873 0.80476 0.0
H3859 H 0.19058 0.51253 0.80159 0.0
H3860 H 0.15442 0.45789 0.77401 0.0
H3861 H 0.15264 0.52364 0.76884 0.0
C3862 C 0.17377 0.59648 0.77905 0.0
C3863 C 0.18485 0.6326 0.78515 0.0
C3864 C 0.1716 0.55708 0.78217 0.0
C3865 C 0.1948 0.62827 0.79444 0.0
C3866 C 0.19327 0.58933 0.79756 0.0
C3867 C 0.18119 0.51461 0.7945 0.0
C3868 C 0.17116 0.47938 0.78828 0.0
C3869 C 0.18162 0.55344 0.7915 0.0
C3870 C 0.16058 0.48338 0.77905 0.0
C3871 C 0.16035 0.52149 0.77605 0.0
H3872 H 0.58345 0.71984 0.79948 0.0
H3873 H 0.66023 0.71675 0.77635 0.0
H3874 H 0.59671 0.64775 0.77092 0.0
H3875 H 0.51731 0.59306 0.77181 0.0
H3876 H 0.43798 0.60731 0.79323 0.0
H3877 H 0.50427 0.66593 0.80025 0.0
C3878 C 0.58675 0.70343 0.79338 0.0
C3879 C 0.62751 0.72312 0.78855 0.0
C3880 C 0.54896 0.66582 0.78985 0.0
C3881 C 0.6304 0.70182 0.78049 0.0
C3882 C 0.59352 0.6627 0.77726 0.0
C3883 C 0.51359 0.60902 0.77791 0.0
C3884 C 0.47091 0.59464 0.78176 0.0
C3885 C 0.55214 0.64521 0.78171 0.0
C3886 C 0.46911 0.61585 0.78998 0.0
C3887 C 0.50745 0.65021 0.79403 0.0
H3888 H 0.11643 0.57452 0.28268 0.0
H3889 H 0.25126 0.62609 0.29171 0.0
H3890 H 0.2565 0.69708 0.29512 0.0
H3891 H 0.22682 0.74813 0.29338 0.0
H3892 H 0.09826 0.69967 0.28129 0.0
H3893 H 0.08642 0.62455 0.28128 0.0
C3894 C 0.14738 0.60113 0.2853 0.0
C3895 C 0.18379 0.59422 0.28669 0.0
C3896 C 0.15103 0.64289 0.28679 0.0
C3897 C 0.2225 0.62942 0.29053 0.0
C3898 C 0.22568 0.6705 0.29242 0.0
C3899 C 0.19548 0.72074 0.2911 0.0
C3900 C 0.1621 0.72936 0.28796 0.0
C3901 C 0.19063 0.67806 0.29033 0.0
C3902 C 0.12301 0.69384 0.28443 0.0
C3903 C 0.11684 0.65091 0.28418 0.0
H3904 H 0.36692 0.51593 0.29675 0.0
H3905 H 0.3917 0.44924 0.27446 0.0
H3906 H 0.46587 0.51164 0.27254 0.0
H3907 H 0.52064 0.58787 0.27584 0.0
H3908 H 0.48899 0.66393 0.29483 0.0
H3909 H 0.42235 0.59606 0.29959 0.0
C3910 C 0.38955 0.51435 0.29181 0.0
C3911 C 0.37514 0.47517 0.28649 0.0
C3912 C 0.43091 0.55316 0.28997 0.0
C3913 C 0.40327 0.47624 0.27939 0.0
C3914 C 0.44542 0.51284 0.27807 0.0
C3915 C 0.49918 0.59068 0.28087 0.0
C3916 C 0.51052 0.63263 0.28469 0.0
C3917 C 0.45916 0.55197 0.28312 0.0
C3918 C 0.48224 0.6331 0.29165 0.0
C3919 C 0.44351 0.59395 0.29435 0.0
H3920 H 0.49388 0.91815 0.30497 0.0
H3921 H 0.45334 0.90717 0.27629 0.0
H3922 H 0.52305 0.91315 0.27136 0.0
H3923 H 0.59602 0.9218 0.27506 0.0
H3924 H 0.63546 0.92893 0.30365 0.0
H3925 H 0.56694 0.92606 0.30869 0.0
C3926 C 0.50018 0.91729 0.29762 0.0
C3927 C 0.46759 0.91218 0.29104 0.0
C3928 C 0.54085 0.92101 0.29479 0.0
C3929 C 0.47683 0.91037 0.28157 0.0
C3930 C 0.51714 0.91429 0.27872 0.0
C3931 C 0.58993 0.92333 0.28241 0.0
C3932 C 0.62197 0.92725 0.28894 0.0
C3933 C 0.54949 0.91982 0.28525 0.0
C3934 C 0.61259 0.92773 0.29844 0.0
C3935 C 0.57292 0.92539 0.30132 0.0
H3936 H 0.07382 0.861 0.87049 0.0
H3937 H 0.0446 0.76884 0.89283 0.0
H3938 H 0.97186 0.76101 0.89471 0.0
H3939 H 0.9204 0.78705 0.89154 0.0
H3940 H 0.95605 0.89346 0.87207 0.0
H3941 H 1.02068 0.88811 0.86731 0.0
C3942 C 0.05049 0.83752 0.87543 0.0
C3943 C 0.06338 0.81207 0.8809 0.0
C3944 C 1.00994 0.83678 0.87715 0.0
C3945 C 0.03438 0.78559 0.88795 0.0
C3946 C 0.99301 0.78201 0.88919 0.0
C3947 C 0.94228 0.80973 0.88631 0.0
C3948 C 0.93311 0.84156 0.8824 0.0
C3949 C 0.98101 0.80852 0.88406 0.0
C3950 C 0.96152 0.86863 0.87529 0.0
C3951 C 0.999 0.86584 0.87262 0.0
H3952 H 0.24281 0.23383 0.8652 0.0
H3953 H 0.28615 0.29138 0.89237 0.0
H3954 H 0.28926 0.22615 0.89741 0.0
H3955 H 0.27599 0.15117 0.89444 0.0
H3956 H 0.2325 0.09242 0.8673 0.0
H3957 H 0.23146 0.15858 0.86207 0.0
C3958 C 0.25395 0.23247 0.87216 0.0
C3959 C 0.26593 0.26855 0.87827 0.0
C3960 C 0.25447 0.19396 0.87511 0.0
C3961 C 0.2785 0.26525 0.88739 0.0
C3962 C 0.27963 0.2275 0.89032 0.0
C3963 C 0.26687 0.1527 0.88731 0.0
C3964 C 0.25466 0.11611 0.88129 0.0
C3965 C 0.26722 0.19142 0.88428 0.0
C3966 C 0.24162 0.11919 0.87219 0.0
C3967 C 0.2415 0.15747 0.86915 0.0
H3968 H 0.80954 0.05919 0.89056 0.0
H3969 H 0.83015 0.99138 0.86785 0.0
H3970 H 0.90759 0.05048 0.86678 0.0
H3971 H 0.97283 0.11562 0.87429 0.0
H3972 H 0.94846 0.18487 0.89623 0.0
H3973 H 0.86947 0.13253 0.89535 0.0
C3974 C 0.83005 0.05856 0.88498 0.0
C3975 C 0.81302 0.02118 0.87909 0.0
C3976 C 0.87461 0.09301 0.88436 0.0
C3977 C 0.84142 0.02023 0.87225 0.0
C3978 C 0.88618 0.05386 0.87175 0.0
C3979 C 0.95006 0.12045 0.87858 0.0
C3980 C 0.96714 0.1547 0.88533 0.0
C3981 C 0.90375 0.08975 0.87802 0.0
C3982 C 0.93666 0.15942 0.89093 0.0
C3983 C 0.89128 0.12904 0.89051 0.0
H3984 H 0.90446 0.36332 0.70205 0.0
H3985 H 0.97533 0.37924 0.72751 0.0
H3986 H 0.98462 0.45271 0.72964 0.0
H3987 H 0.96611 0.50922 0.72525 0.0
H3988 H 0.89156 0.4935 0.70026 0.0
H3989 H 0.88833 0.42272 0.69722 0.0
C3990 C 0.92392 0.38389 0.7078 0.0
C3991 C 0.94229 0.36671 0.71423 0.0
C3992 C 0.92657 0.42547 0.70931 0.0
C3993 C 0.96382 0.39253 0.72209 0.0
C3994 C 0.96806 0.43424 0.72344 0.0
C3995 C 0.94968 0.49098 0.71902 0.0
C3996 C 0.92944 0.50772 0.71296 0.0
C3997 C 0.94862 0.4506 0.71723 0.0
C3998 C 0.90713 0.48194 0.70513 0.0
C3999 C 0.90577 0.44151 0.70332 0.0
H4000 H 0.64151 0.46042 0.70865 0.0
H4001 H 0.58662 0.48545 0.73321 0.0
H4002 H 0.64064 0.56391 0.73228 0.0
H4003 H 0.71173 0.62302 0.72626 0.0
H4004 H 0.76424 0.60239 0.70091 0.0
H4005 H 0.70356 0.52542 0.70035 0.0
C4006 C 0.64017 0.48327 0.71356 0.0
C4007 C 0.60975 0.46642 0.72105 0.0
C4008 C 0.6717 0.52935 0.71295 0.0
C4009 C 0.60932 0.49703 0.72739 0.0
C4010 C 0.64063 0.5421 0.72692 0.0
C4011 C 0.70867 0.6025 0.72032 0.0
C4012 C 0.74214 0.61931 0.71349 0.0
C4013 C 0.67314 0.55841 0.71997 0.0
C4014 C 0.73839 0.59115 0.7061 0.0
C4015 C 0.70385 0.54672 0.70586 0.0
H4016 H 0.51735 0.18289 0.6997 0.0
H4017 H 0.46497 0.14916 0.72747 0.0
H4018 H 0.52939 0.14398 0.73231 0.0
H4019 H 0.60295 0.15404 0.72897 0.0
H4020 H 0.65691 0.1894 0.70126 0.0
H4021 H 0.59071 0.19075 0.69622 0.0
C4022 C 0.51951 0.17315 0.70674 0.0
C4023 C 0.48512 0.16441 0.71309 0.0
C4024 C 0.55775 0.17194 0.70957 0.0
C4025 C 0.48959 0.15394 0.72231 0.0
C4026 C 0.52697 0.1518 0.72512 0.0
C4027 C 0.60029 0.16144 0.72177 0.0
C4028 C 0.63557 0.17134 0.71552 0.0
C4029 C 0.5616 0.16141 0.71885 0.0
C4030 C 0.63116 0.18214 0.70631 0.0
C4031 C 0.59286 0.18241 0.70337 0.0
H4032 H 0.1935 0.30646 0.10937 0.0
H4033 H 0.19631 0.24141 0.13468 0.0
H4034 H 0.12752 0.23728 0.13966 0.0
H4035 H 0.06481 0.24978 0.13664 0.0
H4036 H 0.06323 0.3159 0.11151 0.0
H4037 H 0.13444 0.32423 0.10696 0.0
C4038 C 0.18 0.29217 0.11609 0.0
C4039 C 0.20112 0.27437 0.12161 0.0
C4040 C 0.14078 0.29092 0.11906 0.0
C4041 C 0.18121 0.25478 0.13014 0.0
C4042 C 0.14189 0.25289 0.13307 0.0
C4043 C 0.08077 0.2673 0.1303 0.0
C4044 C 0.05885 0.28318 0.12456 0.0
C4045 C 0.12132 0.27077 0.12759 0.0
C4046 C 0.0795 0.30449 0.11622 0.0
C4047 C 0.12006 0.30859 0.11354 0.0
H4048 H 0.9081 0.97808 0.12693 0.0
H4049 H 0.81704 0.95214 0.10439 0.0
H4050 H 0.79675 0.87464 0.10433 0.0
H4051 H 0.81591 0.81807 0.1085 0.0
H4052 H 0.89825 0.83797 0.13226 0.0
H4053 H 0.91116 0.91351 0.13402 0.0
C4054 C 0.88246 0.95512 0.12228 0.0
C4055 C 0.86476 0.97157 0.11554 0.0
C4056 C 0.8701 0.90952 0.12236 0.0
C4057 C 0.83161 0.94086 0.10958 0.0
C4058 C 0.82016 0.89638 0.10948 0.0
C4059 C 0.83457 0.83788 0.11441 0.0
C4060 C 0.85518 0.82161 0.12036 0.0
C4061 C 0.84067 0.88077 0.11554 0.0
C4062 C 0.88099 0.84893 0.12771 0.0
C4063 C 0.88879 0.8925 0.12865 0.0
H4064 H 0.27958 0.06575 0.10817 0.0
H4065 H 0.31509 0.09036 0.13711 0.0
H4066 H 0.24289 0.02734 0.1414 0.0
H4067 H 0.16688 0.96903 0.13693 0.0
H4068 H 0.13106 0.94832 0.10786 0.0
H4069 H 0.20579 1.00514 0.10368 0.0
C4070 C 0.2719 0.05689 0.11543 0.0
C4071 C 0.30338 0.08285 0.12229 0.0
C4072 C 0.2297 0.02132 0.11783 0.0
C4073 C 0.29229 0.0709 0.13166 0.0
C4074 C 0.2506 0.03498 0.1341 0.0
C4075 C 0.17508 0.9768 0.12965 0.0
C4076 C 0.14209 0.95384 0.12275 0.0
C4077 C 0.21851 1.01058 0.12726 0.0
C4078 C 0.15485 0.96439 0.11339 0.0
C4079 C 0.19784 0.99742 0.11097 0.0
H4080 H 0.87285 0.96957 0.6387 0.0
H4081 H 0.88616 0.94367 0.60984 0.0
H4082 H 0.86572 0.998 0.60514 0.0
H4083 H 0.85136 0.05826 0.60906 0.0
H4084 H 0.84306 0.08892 0.63774 0.0
H4085 H 0.85377 0.02752 0.64263 0.0
C4086 C 0.87147 0.9757 0.63136 0.0
C4087 C 0.8817 0.95207 0.62467 0.0
C4088 C 0.86046 1.00812 0.62866 0.0
C4089 C 0.87829 0.96036 0.61521 0.0
C4090 C 0.86686 0.99193 0.61249 0.0
C4091 C 0.851 0.05099 0.6164 0.0
C4092 C 0.84595 0.0782 0.62301 0.0
C4093 C 0.85875 0.01661 0.61914 0.0
C4094 C 0.84607 0.0684 0.63248 0.0
C4095 C 0.85277 0.03347 0.63527 0.0
H4096 H 0.14311 0.9865 0.62263 0.0
H4097 H 0.2077 0.94519 0.60266 0.0
H4098 H 0.14934 0.86916 0.60421 0.0
H4099 H 0.07378 0.8157 0.60915 0.0
H4100 H 1.01402 0.84982 0.63134 0.0
H4101 H 0.07557 0.92644 0.63096 0.0
C4102 C 0.14519 0.96086 0.6188 0.0
C4103 C 0.1794 0.97296 0.61212 0.0
C4104 C 0.11175 0.91547 0.62004 0.0
C4105 C 0.18119 0.93815 0.60749 0.0
C4106 C 0.1477 0.89412 0.6084 0.0
C4107 C 0.07542 0.83883 0.61438 0.0
C4108 C 0.03949 0.82576 0.62052 0.0
C4109 C 0.11193 0.88249 0.61437 0.0
C4110 C 0.04153 0.85798 0.62674 0.0
C4111 C 0.07672 0.90224 0.62643 0.0
H4112 H 0.26222 0.25848 0.63712 0.0
H4113 H 0.31026 0.28178 0.60893 0.0
H4114 H 0.24437 0.28287 0.6038 0.0
H4115 H 0.17093 0.27251 0.60703 0.0
H4116 H 0.12044 0.24777 0.63508 0.0
H4117 H 0.18811 0.24989 0.64045 0.0
C4118 C 0.25878 0.26511 0.6299 0.0
C4119 C 0.29267 0.27237 0.62352 0.0
C4120 C 0.21949 0.26393 0.62691 0.0
C4121 C 0.28633 0.27849 0.61411 0.0
C4122 C 0.24802 0.27824 0.61113 0.0
C4123 C 0.17464 0.26819 0.61436 0.0
C4124 C 0.14006 0.26039 0.62062 0.0
C4125 C 0.21409 0.27038 0.61743 0.0
C4126 C 0.14575 0.25343 0.63004 0.0
C4127 C 0.18487 0.25517 0.63314 0.0
H4128 H 0.60769 0.13443 0.22716 0.0
H4129 H 0.60678 0.20404 0.20243 0.0
H4130 H 0.67597 0.20908 0.19743 0.0
H4131 H 0.73864 0.19619 0.20027 0.0
H4132 H 0.73936 0.1271 0.22498 0.0
H4133 H 0.66732 0.11711 0.22945 0.0
C4134 C 0.62175 0.15001 0.22056 0.0
C4135 C 0.60089 0.16871 0.21522 0.0
C4136 C 0.66138 0.15194 0.21758 0.0
C4137 C 0.62155 0.18987 0.20684 0.0
C4138 C 0.66113 0.1923 0.2039 0.0
C4139 C 0.72227 0.17752 0.20647 0.0
C4140 C 0.74408 0.16093 0.21207 0.0
C4141 C 0.68142 0.17351 0.2092 0.0
C4142 C 0.7229 0.13843 0.22029 0.0
C4143 C 0.68198 0.13364 0.22295 0.0
H4144 H 0.93282 0.5921 0.19735 0.0
H4145 H 0.95288 0.64335 0.22527 0.0
H4146 H 0.95638 0.57945 0.23097 0.0
H4147 H 0.95016 0.50725 0.22831 0.0
H4148 H 0.93197 0.45503 0.20043 0.0
H4149 H 0.92955 0.51961 0.19458 0.0
C4150 C 0.939 0.58972 0.20465 0.0
C4151 C 0.94432 0.62386 0.21079 0.0
C4152 C 0.94017 0.55189 0.20796 0.0
C4153 C 0.9504 0.61896 0.2203 0.0
C4154 C 0.95181 0.58188 0.22359 0.0
C4155 C 0.9465 0.50988 0.2209 0.0
C4156 C 0.94173 0.47545 0.21487 0.0
C4157 C 0.94633 0.5479 0.21752 0.0
C4158 C 0.9353 0.47998 0.20535 0.0
C4159 C 0.93441 0.51745 0.20195 0.0
H4160 H 0.52962 0.36737 0.23041 0.0
H4161 H 0.49344 0.36645 0.20178 0.0
H4162 H 0.56196 0.4372 0.19926 0.0
H4163 H 0.63226 0.50103 0.20557 0.0
H4164 H 0.67189 0.49295 0.23353 0.0
H4165 H 0.60303 0.42329 0.23585 0.0
C4166 C 0.53647 0.38259 0.22359 0.0
C4167 C 0.50469 0.36272 0.21645 0.0
C4168 C 0.57739 0.42129 0.22205 0.0
C4169 C 0.51558 0.38217 0.20757 0.0
C4170 C 0.55534 0.42228 0.2061 0.0
C4171 C 0.62634 0.48325 0.21207 0.0
C4172 C 0.65779 0.50211 0.21935 0.0
C4173 C 0.58653 0.44239 0.21331 0.0
C4174 C 0.64905 0.47892 0.22776 0.0
C4175 C 0.60927 0.43933 0.22913 0.0
H4176 H 0.5811 0.45913 0.03019 0.0
H4177 H 0.59072 0.48523 0.0596 0.0
H4178 H 0.56035 0.40616 0.06283 0.0
H4179 H 0.52445 0.32803 0.05713 0.0
H4180 H 0.51698 0.30363 0.02764 0.0
H4181 H 0.55282 0.38301 0.02458 0.0
C4182 C 0.57656 0.44744 0.03731 0.0
C4183 C 0.58607 0.4777 0.04465 0.0
C4184 C 0.55936 0.40201 0.03908 0.0
C4185 C 0.58178 0.46237 0.05383 0.0
C4186 C 0.56478 0.41715 0.05567 0.0
C4187 C 0.53182 0.34032 0.05006 0.0
C4188 C 0.51865 0.30994 0.0426 0.0
C4189 C 0.55238 0.38639 0.04834 0.0
C4190 C 0.52743 0.3263 0.03348 0.0
C4191 C 0.54764 0.37171 0.03173 0.0
H4192 H 0.78476 0.2482 0.05006 0.0
H4193 H 0.78872 0.23995 0.0202 0.0
H4194 H 0.70831 0.19596 0.01965 0.0
H4195 H 0.63687 0.15577 0.02763 0.0
H4196 H 0.63125 0.15967 0.05749 0.0
H4197 H 0.71162 0.2099 0.05811 0.0
C4198 C 0.76787 0.23729 0.04345 0.0
C4199 C 0.79285 0.2473 0.03517 0.0
C4200 C 0.72122 0.21105 0.04319 0.0
C4201 C 0.77041 0.23247 0.02666 0.0
C4202 C 0.72437 0.20734 0.02634 0.0
C4203 C 0.65336 0.16768 0.03427 0.0
C4204 C 0.62859 0.15277 0.04252 0.0
C4205 C 0.69948 0.19572 0.03455 0.0
C4206 C 0.64996 0.16944 0.05107 0.0
C4207 C 0.69585 0.19841 0.0514 0.0
H4208 H 0.9215 0.51006 0.0569 0.0
H4209 H 0.9906 0.54715 0.03075 0.0
H4210 H 0.94842 0.58245 0.02601 0.0
H4211 H 0.89324 0.60441 0.02946 0.0
H4212 H 0.82951 0.57398 0.05635 0.0
H4213 H 0.86759 0.53415 0.06055 0.0
C4214 C 0.92735 0.52612 0.05019 0.0
C4215 C 0.9602 0.52738 0.04432 0.0
C4216 C 0.90362 0.5473 0.04761 0.0
C4217 C 0.96666 0.54708 0.03552 0.0
C4218 C 0.94228 0.56703 0.03279 0.0
C4219 C 0.88786 0.58965 0.0363 0.0
C4220 C 0.85801 0.59247 0.04252 0.0
C4221 C 0.9111 0.56791 0.03883 0.0
C4222 C 0.85125 0.57189 0.05127 0.0
C4223 C 0.87339 0.54925 0.05373 0.0
H4224 H 0.45199 0.53324 0.46779 0.0
H4225 H 0.50109 0.59856 0.44153 0.0
H4226 H 0.42687 0.58271 0.43719 0.0
H4227 H 0.34909 0.55354 0.44114 0.0
H4228 H 0.30204 0.49859 0.46846 0.0
H4229 H 0.37332 0.50512 0.47189 0.0
C4230 C 0.44605 0.54313 0.46104 0.0
C4231 C 0.48151 0.56493 0.45476 0.0
C4232 C 0.40347 0.5356 0.45878 0.0
C4233 C 0.47393 0.57956 0.44625 0.0
C4234 C 0.43156 0.57106 0.44384 0.0
C4235 C 0.35413 0.54351 0.44793 0.0
C4236 C 0.31937 0.52606 0.45454 0.0
C4237 C 0.39615 0.54951 0.45009 0.0
C4238 C 0.32719 0.51172 0.46312 0.0
C4239 C 0.36843 0.51592 0.46516 0.0
H4240 H 0.58709 0.86358 0.47346 0.0
H4241 H 0.57999 0.82022 0.44507 0.0
H4242 H 0.54605 0.86378 0.44044 0.0
H4243 H 0.5205 0.91678 0.44433 0.0
H4244 H 0.53193 0.96266 0.47256 0.0
H4245 H 0.56226 0.91608 0.47732 0.0
C4246 C 0.57859 0.86378 0.46623 0.0
C4247 C 0.58653 0.83838 0.45965 0.0
C4248 C 0.55991 0.88973 0.46355 0.0
C4249 C 0.57395 0.83866 0.45036 0.0
C4250 C 0.55476 0.86394 0.44767 0.0
C4251 C 0.5299 0.91663 0.45151 0.0
C4252 C 0.52527 0.94424 0.45803 0.0
C4253 C 0.54789 0.88993 0.45419 0.0
C4254 C 0.53645 0.94288 0.46735 0.0
C4255 C 0.55351 0.91594 0.47009 0.0
H4256 H 0.2526 0.76356 0.45428 0.0
H4257 H 0.22852 0.76834 0.48357 0.0
H4258 H 0.18196 0.68825 0.48393 0.0
H4259 H 0.14577 0.61639 0.47599 0.0
H4260 H 0.16721 0.60921 0.44675 0.0
H4261 H 0.21745 0.68971 0.44632 0.0
C4262 C 0.23767 0.74696 0.46076 0.0
C4263 C 0.24413 0.7724 0.46889 0.0
C4264 C 0.21012 0.70022 0.46092 0.0
C4265 C 0.22399 0.75001 0.47719 0.0
C4266 C 0.19727 0.70403 0.47742 0.0
C4267 C 0.16095 0.63262 0.46949 0.0
C4268 C 0.1511 0.60715 0.46132 0.0
C4269 C 0.18949 0.67882 0.46932 0.0
C4270 C 0.17266 0.62832 0.45304 0.0
C4271 C 0.20185 0.67433 0.45284 0.0
H4272 H 0.52756 0.61255 0.96746 0.0
H4273 H 0.49619 0.60811 0.93843 0.0
H4274 H 0.51632 0.68621 0.9389 0.0
H4275 H 0.53772 0.75471 0.94804 0.0
H4276 H 0.57232 0.7588 0.9769 0.0
H4277 H 0.55803 0.683 0.97597 0.0
C4278 C 0.52647 0.62916 0.96118 0.0
C4279 C 0.51213 0.60519 0.95283 0.0
C4280 C 0.53879 0.67422 0.96149 0.0
C4281 C 0.50843 0.62635 0.94487 0.0
C4282 C 0.51988 0.67098 0.94515 0.0
C4283 C 0.54363 0.73945 0.95401 0.0
C4284 C 0.55642 0.76254 0.96252 0.0
C4285 C 0.53479 0.6953 0.95345 0.0
C4286 C 0.56296 0.74191 0.97026 0.0
C4287 C 0.55417 0.69832 0.96977 0.0
H4288 H 0.35292 0.81054 0.94934 0.0
H4289 H 0.31952 0.81652 0.97793 0.0
H4290 H 0.3915 0.88298 0.98035 0.0
H4291 H 0.46645 0.93583 0.97465 0.0
H4292 H 0.49811 0.93392 0.94577 0.0
H4293 H 0.42473 0.86951 0.94311 0.0
C4294 C 0.36107 0.82718 0.95602 0.0
C4295 C 0.3308 0.80886 0.96344 0.0
C4296 C 0.40253 0.86563 0.95734 0.0
C4297 C 0.34192 0.83038 0.97209 0.0
C4298 C 0.3833 0.86806 0.9735 0.0
C4299 C 0.457 0.92145 0.96776 0.0
C4300 C 0.48751 0.93969 0.9604 0.0
C4301 C 0.41427 0.88534 0.96624 0.0
C4302 C 0.47505 0.92078 0.95151 0.0
C4303 C 0.4331 0.88393 0.95 0.0
H4304 H 0.17122 0.56029 0.94236 0.0
H4305 H 0.12678 0.55389 0.97056 0.0
H4306 H 0.17063 0.52123 0.9756 0.0
H4307 H 0.21943 0.49173 0.972 0.0
H4308 H 0.26148 0.49368 0.94371 0.0
H4309 H 0.22125 0.53069 0.93875 0.0
C4310 C 0.17114 0.55152 0.94959 0.0
C4311 C 0.14443 0.55802 0.95601 0.0
C4312 C 0.19614 0.5319 0.95244 0.0
C4313 C 0.1456 0.54772 0.96541 0.0
C4314 C 0.17103 0.52931 0.96832 0.0
C4315 C 0.21965 0.49986 0.96473 0.0
C4316 C 0.24357 0.48954 0.95827 0.0
C4317 C 0.19581 0.5205 0.96188 0.0
C4318 C 0.24397 0.5015 0.9489 0.0
C4319 C 0.2207 0.52253 0.94603 0.0
H4320 H 0.64074 0.50356 0.55452 0.0
H4321 H 0.62069 0.55127 0.5286 0.0
H4322 H 0.70004 0.59443 0.52601 0.0
H4323 H 0.77547 0.61683 0.53085 0.0
H4324 H 0.79751 0.56852 0.55673 0.0
H4325 H 0.71779 0.52696 0.55953 0.0
C4326 C 0.65399 0.52476 0.54849 0.0
C4327 C 0.62474 0.52793 0.54218 0.0
C4328 C 0.70027 0.54838 0.54693 0.0
C4329 C 0.64236 0.55192 0.53397 0.0
C4330 C 0.6879 0.57571 0.53239 0.0
C4331 C 0.7632 0.5978 0.53719 0.0
C4332 C 0.79319 0.59629 0.54356 0.0
C4333 C 0.71726 0.57434 0.53883 0.0
C4334 C 0.77573 0.57014 0.5516 0.0
C4335 C 0.72994 0.54647 0.55325 0.0
H4336 H 0.57232 0.1485 0.5283 0.0
H4337 H 0.58119 0.14593 0.5581 0.0
H4338 H 0.55345 0.19804 0.55949 0.0
H4339 H 0.52012 0.23974 0.55209 0.0
H4340 H 0.51308 0.24147 0.52217 0.0
H4341 H 0.54642 0.19484 0.52098 0.0
C4342 C 0.56822 0.15941 0.53511 0.0
C4343 C 0.577 0.14185 0.5431 0.0
C4344 C 0.55232 0.18935 0.53582 0.0
C4345 C 0.57301 0.15756 0.55185 0.0
C4346 C 0.55747 0.1877 0.55263 0.0
C4347 C 0.52685 0.2307 0.54532 0.0
C4348 C 0.51382 0.24416 0.53722 0.0
C4349 C 0.54594 0.20312 0.54466 0.0
C4350 C 0.52246 0.23156 0.52852 0.0
C4351 C 0.54146 0.2047 0.52782 0.0
H4352 H 0.92579 0.46232 0.55572 0.0
H4353 H 0.96905 0.47945 0.52726 0.0
H4354 H 0.92001 0.40138 0.52417 0.0
H4355 H 0.85896 0.33017 0.52895 0.0
H4356 H 0.80845 0.31176 0.55688 0.0
H4357 H 0.8665 0.38724 0.56092 0.0
C4358 C 0.92552 0.44837 0.54897 0.0
C4359 C 0.95368 0.4761 0.54188 0.0
C4360 C 0.89519 0.40318 0.54712 0.0
C4361 C 0.95048 0.45826 0.53298 0.0
C4362 C 0.92164 0.41369 0.53116 0.0
C4363 C 0.86104 0.3424 0.53598 0.0
C4364 C 0.82914 0.31543 0.54258 0.0
C4365 C 0.89326 0.38606 0.53811 0.0
C4366 C 0.83263 0.33167 0.55167 0.0
C4367 C 0.86549 0.37509 0.55394 0.0
H4368 H 0.18691 0.64933 0.38662 0.0
H4369 H 0.17471 0.6338 0.35684 0.0
H4370 H 0.21144 0.71372 0.35489 0.0
H4371 H 0.24325 0.78822 0.3615 0.0
H4372 H 0.25696 0.80653 0.39114 0.0
H4373 H 0.22422 0.72624 0.39331 0.0
C4374 C 0.19318 0.66359 0.37971 0.0
C4375 C 0.17814 0.63528 0.37186 0.0
C4376 C 0.21414 0.71027 0.37862 0.0
C4377 C 0.18597 0.65454 0.36298 0.0
C4378 C 0.20685 0.70037 0.36186 0.0
C4379 C 0.23894 0.7746 0.36845 0.0
C4380 C 0.25074 0.8032 0.37617 0.0
C4381 C 0.22031 0.72854 0.3696 0.0
C4382 C 0.24646 0.78514 0.3851 0.0
C4383 C 0.22811 0.73918 0.38632 0.0
H4384 H 0.41733 0.572 0.36244 0.0
H4385 H 0.45805 0.61176 0.39077 0.0
H4386 H 0.38537 0.5541 0.39629 0.0
H4387 H 0.30736 0.49682 0.39287 0.0
H4388 H 0.26763 0.46057 0.36437 0.0
H4389 H 0.3421 0.51338 0.35908 0.0
C4390 C 0.41046 0.56798 0.36984 0.0
C4391 C 0.44304 0.59664 0.37617 0.0
C4392 C 0.36832 0.53591 0.37291 0.0
C4393 C 0.43378 0.59017 0.38574 0.0
C4394 C 0.39197 0.55757 0.38889 0.0
C4395 C 0.3154 0.50032 0.38552 0.0
C4396 C 0.28251 0.47403 0.37902 0.0
C4397 C 0.35855 0.53103 0.38252 0.0
C4398 C 0.29275 0.47953 0.3695 0.0
C4399 C 0.33528 0.50984 0.36648 0.0
H4400 H 0.51449 0.89287 0.3821 0.0
H4401 H 0.56669 0.96214 0.35624 0.0
H4402 H 0.61659 0.93284 0.35514 0.0
H4403 H 0.64791 0.88915 0.36159 0.0
H4404 H 0.59402 0.8155 0.38677 0.0
H4405 H 0.54226 0.84366 0.38796 0.0
C4406 C 0.53625 0.90102 0.37616 0.0
C4407 C 0.53701 0.93072 0.36937 0.0
C4408 C 0.56513 0.8834 0.37546 0.0
C4409 C 0.56577 0.94051 0.36173 0.0
C4410 C 0.59442 0.92355 0.36104 0.0
C4411 C 0.62514 0.87975 0.36739 0.0
C4412 C 0.6266 0.85237 0.37438 0.0
C4413 C 0.59502 0.89557 0.36793 0.0
C4414 C 0.59526 0.83852 0.38159 0.0
C4415 C 0.56523 0.85421 0.38219 0.0
H4416 H 0.1393 0.9054 0.80662 0.0
H4417 H 0.15552 0.91636 0.77693 0.0
H4418 H 0.07529 0.88507 0.77498 0.0
H4419 H 0.99896 0.84917 0.78192 0.0
H4420 H 0.98588 0.84084 0.81177 0.0
H4421 H 0.06579 0.87639 0.81346 0.0
C4422 C 0.12521 0.90075 0.79971 0.0
C4423 C 0.15302 0.91095 0.79192 0.0
C4424 C 0.07932 0.88321 0.79869 0.0
C4425 C 0.13457 0.90671 0.78303 0.0
C4426 C 0.08869 0.88926 0.78194 0.0
C4427 C 1.01379 0.85613 0.78878 0.0
C4428 C 0.98621 0.84236 0.79673 0.0
C4429 C 0.06043 0.87649 0.78973 0.0
C4430 C 1.00612 0.85108 0.80556 0.0
C4431 C 0.05191 0.87127 0.80653 0.0
H4432 H 0.26606 0.21039 0.80566 0.0
H4433 H 0.25945 0.1646 0.77749 0.0
H4434 H 0.2228 0.20526 0.77262 0.0
H4435 H 0.195 0.25672 0.77623 0.0
H4436 H 0.20734 0.30602 0.80419 0.0
H4437 H 0.23956 0.26163 0.80921 0.0
C4438 C 0.25715 0.20949 0.79842 0.0
C4439 C 0.26595 0.18428 0.79198 0.0
C4440 C 0.2371 0.2339 0.7956 0.0
C4441 C 0.25277 0.18299 0.78268 0.0
C4442 C 0.23199 0.20657 0.77985 0.0
C4443 C 0.20499 0.25775 0.78341 0.0
C4444 C 0.20006 0.2857 0.78977 0.0
C4445 C 0.22432 0.23249 0.78623 0.0
C4446 C 0.21204 0.28594 0.79909 0.0
C4447 C 0.23021 0.26026 0.80199 0.0
H4448 H 0.87921 0.09488 0.80649 0.0
H4449 H 0.94178 0.13173 0.77957 0.0
H4450 H 0.90135 0.05458 0.77459 0.0
H4451 H 0.84852 0.97566 0.77796 0.0
H4452 H 0.7866 0.94003 0.80486 0.0
H4453 H 0.82546 0.01714 0.80968 0.0
C4454 C 0.8837 0.08628 0.79949 0.0
C4455 C 0.9139 0.11949 0.79346 0.0
C4456 C 0.86001 0.04176 0.79662 0.0
C4457 C 0.91952 0.10711 0.78445 0.0
C4458 C 0.89611 0.06288 0.78156 0.0
C4459 C 0.8433 0.98503 0.78483 0.0
C4460 C 0.81329 0.95221 0.79092 0.0
C4461 C 0.8664 0.02982 0.7876 0.0
C4462 C 0.80776 0.96461 0.7999 0.0
C4463 C 0.83052 1.00883 0.8027 0.0
H4464 H 0.18934 0.96364 0.29644 0.0
H4465 H 0.18843 0.94301 0.26692 0.0
H4466 H 0.22117 0.02265 0.26422 0.0
H4467 H 0.25284 0.09875 0.27034 0.0
H4468 H 0.25126 0.11916 0.29988 0.0
H4469 H 0.21669 0.03952 0.30249 0.0
C4470 C 0.19656 0.97679 0.28943 0.0
C4471 C 0.18834 0.94785 0.28189 0.0
C4472 C 0.21474 0.02265 0.28794 0.0
C4473 C 0.19582 0.96487 0.27283 0.0
C4474 C 0.21438 1.01039 0.27129 0.0
C4475 C 0.2448 0.0858 0.27735 0.0
C4476 C 0.2549 0.11528 0.28491 0.0
C4477 C 0.22456 0.03973 0.2788 0.0
C4478 C 0.24362 0.09754 0.29393 0.0
C4479 C 0.22401 0.05189 0.29543 0.0
H4480 H 0.12906 0.26467 0.30488 0.0
H4481 H 0.17282 0.28426 0.27638 0.0
H4482 H 0.09907 0.22775 0.27133 0.0
H4483 H 1.02212 0.17257 0.27497 0.0
H4484 H 0.97814 0.15099 0.30351 0.0
H4485 H 0.05106 0.20938 0.30851 0.0
C4486 C 0.12223 0.25659 0.29756 0.0
C4487 C 0.15607 0.27957 0.29098 0.0
C4488 C 0.07946 0.22399 0.29469 0.0
C4489 C 0.14711 0.26805 0.28155 0.0
C4490 C 0.10493 0.23555 0.27867 0.0
C4491 C 0.02835 0.1803 0.2823 0.0
C4492 C 0.9942 0.15675 0.28883 0.0
C4493 C 0.07078 0.21338 0.28517 0.0
C4494 C 1.00318 0.16849 0.29828 0.0
C4495 C 0.0452 0.20168 0.30117 0.0
H4496 H 0.89035 0.8358 0.3087 0.0
H4497 H 0.961 0.87911 0.2828 0.0
H4498 H 0.91677 0.91337 0.27846 0.0
H4499 H 0.85643 0.93055 0.28209 0.0
H4500 H 0.79066 0.88971 0.30853 0.0
H4501 H 0.83379 0.85507 0.31255 0.0
C4502 C 0.89635 0.85297 0.30211 0.0
C4503 C 0.92913 0.85475 0.2961 0.0
C4504 C 0.8709 0.87259 0.29969 0.0
C4505 C 0.93646 0.87754 0.28763 0.0
C4506 C 0.9108 0.89681 0.28511 0.0
C4507 C 0.85084 0.91299 0.28861 0.0
C4508 C 0.81803 0.91044 0.29479 0.0
C4509 C 0.87745 0.89419 0.29105 0.0
C4510 C 0.81378 0.89044 0.30348 0.0
C4511 C 0.83894 0.87092 0.30583 0.0
H4512 H 0.29714 0.84445 0.86121 0.0
H4513 H 0.27572 0.82168 0.89062 0.0
H4514 H 0.35541 0.85179 0.89303 0.0
H4515 H 0.43286 0.89111 0.88678 0.0
H4516 H 0.45234 0.91373 0.85728 0.0
H4517 H 0.3726 0.8778 0.8549 0.0
C4518 C 0.31004 0.8464 0.86816 0.0
C4519 C 0.28082 0.83296 0.87578 0.0
C4520 C 0.35589 0.86386 0.86946 0.0
C4521 C 0.29774 0.83377 0.88469 0.0
C4522 C 0.34332 0.85054 0.88604 0.0
C4523 C 0.41948 0.88708 0.87982 0.0
C4524 C 0.44875 0.90471 0.87219 0.0
C4525 C 0.37303 0.86671 0.8785 0.0
C4526 C 0.43073 0.90009 0.86324 0.0
C4527 C 0.38504 0.87977 0.86188 0.0
H4528 H 0.20812 0.56786 0.89465 0.0
H4529 H 0.2008 0.59677 0.86575 0.0
H4530 H 0.21675 0.53893 0.86113 0.0
H4531 H 0.23895 0.48409 0.8652 0.0
H4532 H 0.24923 0.4568 0.89399 0.0
H4533 H 0.22668 0.51021 0.89874 0.0
C4534 C 0.20996 0.56161 0.88733 0.0
C4535 C 0.20344 0.58735 0.88058 0.0
C4536 C 0.22005 0.52862 0.88469 0.0
C4537 C 0.20511 0.57764 0.87113 0.0
C4538 C 0.21471 0.5447 0.86847 0.0
C4539 C 0.23557 0.48942 0.87252 0.0
C4540 C 0.24461 0.46564 0.87924 0.0
C4541 C 0.22307 0.52057 0.87517 0.0
C4542 C 0.24122 0.47367 0.88869 0.0
C4543 C 0.22868 0.50452 0.89139 0.0
H4544 H 0.5471 0.65205 0.86104 0.0
H4545 H 0.50698 0.62483 0.88977 0.0
H4546 H 0.55122 0.70394 0.89335 0.0
H4547 H 0.60134 0.7822 0.88815 0.0
H4548 H 0.64067 0.80603 0.85938 0.0
H4549 H 0.59829 0.72716 0.85611 0.0
C4550 C 0.54836 0.66292 0.86815 0.0
C4551 C 0.52357 0.63171 0.87511 0.0
C4552 C 0.57456 0.70826 0.8702 0.0
C4553 C 0.52503 0.64759 0.8842 0.0
C4554 C 0.55076 0.693 0.88628 0.0
C4555 C 0.60152 0.76981 0.88125 0.0
C4556 C 0.62612 0.79994 0.8741 0.0
C4557 C 0.57585 0.72381 0.87934 0.0
C4558 C 0.62391 0.78353 0.86508 0.0
C4559 C 0.59908 0.73838 0.86317 0.0
H4560 H 0.85815 0.99112 0.71893 0.0
H4561 H 0.83399 0.98123 0.68941 0.0
H4562 H 0.86993 0.06153 0.68824 0.0
H4563 H 0.90562 0.13506 0.69559 0.0
H4564 H 0.92927 0.14692 0.72508 0.0
H4565 H 0.89732 0.06637 0.72629 0.0
C4566 C 0.86159 1.00668 0.71223 0.0
C4567 C 0.84355 0.97989 0.70424 0.0
C4568 C 0.88191 0.05347 0.71162 0.0
C4569 C 0.84766 1.00082 0.69565 0.0
C4570 C 0.86808 0.04685 0.69498 0.0
C4571 C 0.90316 0.11985 0.7023 0.0
C4572 C 0.91776 0.14672 0.71031 0.0
C4573 C 0.88462 0.07353 0.70292 0.0
C4574 C 0.9164 0.12679 0.71888 0.0
C4575 C 0.8986 0.08072 0.71954 0.0
H4576 H 0.96712 0.8341 0.71844 0.0
H4577 H 0.95101 0.80836 0.689 0.0
H4578 H 0.02976 0.85641 0.68653 0.0
H4579 H 0.10386 0.90351 0.69265 0.0
H4580 H 0.12315 0.93167 0.72199 0.0
H4581 H 0.04316 0.88631 0.72457 0.0
C4582 C 0.98121 0.83847 0.71154 0.0
C4583 C 0.95364 0.81486 0.70398 0.0
C4584 C 0.02712 0.86749 0.71012 0.0
C4585 C 0.97185 0.82355 0.69499 0.0
C4586 C 1.01689 0.8517 0.69355 0.0
C4587 C 0.09072 0.89978 0.69963 0.0
C4588 C 0.11981 0.92068 0.70711 0.0
C4589 C 0.04497 0.87325 0.70106 0.0
C4590 C 0.10172 0.91622 0.71607 0.0
C4591 C 0.05589 0.89003 0.71755 0.0
H4592 H 0.27742 0.19965 0.69741 0.0
H4593 H 0.30297 0.19954 0.72668 0.0
H4594 H 0.25648 0.23239 0.73002 0.0
H4595 H 0.21209 0.26584 0.72438 0.0
H4596 H 0.18232 0.25981 0.69518 0.0
H4597 H 0.22662 0.2247 0.69202 0.0
C4598 C 0.27286 0.20694 0.70453 0.0
C4599 C 0.29553 0.19938 0.71175 0.0
C4600 C 0.24516 0.22467 0.70638 0.0
C4601 C 0.28767 0.20707 0.72096 0.0
C4602 C 0.26066 0.2254 0.72287 0.0
C4603 C 0.21459 0.25589 0.71736 0.0
C4604 C 0.19359 0.26505 0.71001 0.0
C4605 C 0.23986 0.23516 0.71561 0.0
C4606 C 0.19758 0.25254 0.70095 0.0
C4607 C 0.22322 0.23279 0.69914 0.0
H4608 H 0.80965 0.2562 0.11182 0.0
H4609 H 0.83823 0.22349 0.13881 0.0
H4610 H 0.75998 0.18546 0.14278 0.0
H4611 H 0.6832 0.16225 0.13876 0.0
H4612 H 0.653 0.19344 0.1117 0.0
H4613 H 0.7315 0.23179 0.10769 0.0
C4614 C 0.79855 0.24033 0.11853 0.0
C4615 C 0.82981 0.24131 0.12488 0.0
C4616 C 0.75302 0.21859 0.12081 0.0
C4617 C 0.815 0.22172 0.13365 0.0
C4618 C 0.7701 0.20031 0.13596 0.0
C4619 C 0.69344 0.1769 0.13193 0.0
C4620 C 0.66148 0.17453 0.12556 0.0
C4621 C 0.73874 0.19842 0.1296 0.0
C4622 C 0.67634 0.19497 0.11683 0.0
C4623 C 0.72142 0.2167 0.11449 0.0
H4624 H 0.95668 0.55819 0.13918 0.0
H4625 H 0.93487 0.50664 0.11122 0.0
H4626 H 0.89816 0.54876 0.10731 0.0
H4627 H 0.87218 0.60135 0.11192 0.0
H4628 H 0.89539 0.65135 0.13995 0.0
H4629 H 0.93265 0.61013 0.14363 0.0
C4630 C 0.94451 0.55639 0.13217 0.0
C4631 C 0.9491 0.5292 0.12552 0.0
C4632 C 0.92416 0.58126 0.12992 0.0
C4633 C 0.93162 0.52672 0.11656 0.0
C4634 C 0.91083 0.55115 0.11429 0.0
C4635 C 0.88649 0.60397 0.11874 0.0
C4636 C 0.88382 0.63199 0.12549 0.0
C4637 C 0.90705 0.57881 0.1209 0.0
C4638 C 0.89981 0.63264 0.13447 0.0
C4639 C 0.92039 0.60834 0.13663 0.0
H4640 H 0.57781 0.44646 0.14032 0.0
H4641 H 0.62093 0.46702 0.11175 0.0
H4642 H 0.57904 0.38707 0.10901 0.0
H4643 H 0.52705 0.3104 0.11467 0.0
H4644 H 0.4852 0.29211 0.14327 0.0
H4645 H 0.52874 0.37153 0.14601 0.0
C4646 C 0.57799 0.43369 0.13346 0.0
C4647 C 0.60243 0.4633 0.12625 0.0
C4648 C 0.55338 0.38772 0.1319 0.0
C4649 C 0.60288 0.44543 0.11748 0.0
C4650 C 0.57865 0.39954 0.11589 0.0
C4651 C 0.52683 0.3241 0.12143 0.0
C4652 C 0.50046 0.2956 0.12862 0.0
C4653 C 0.55316 0.37027 0.12302 0.0
C4654 C 0.50301 0.31351 0.1375 0.0
C4655 C 0.52849 0.35894 0.1391 0.0
H4656 H 0.86127 0.31123 0.61371 0.0
H4657 H 0.87508 0.28936 0.64266 0.0
H4658 H 0.913 0.36859 0.64563 0.0
H4659 H 0.94103 0.44434 0.64023 0.0
H4660 H 0.9255 0.46879 0.61151 0.0
H4661 H 0.88919 0.38916 0.60826 0.0
C4662 C 0.87355 0.32406 0.6206 0.0
C4663 C 0.86772 0.29432 0.62787 0.0
C4664 C 0.89422 0.37031 0.62235 0.0
C4665 C 0.88136 0.31145 0.63687 0.0
C4666 C 0.90249 0.35686 0.6386 0.0
C4667 C 0.92991 0.43246 0.63323 0.0
C4668 C 0.93638 0.46305 0.62613 0.0
C4669 C 0.90904 0.38665 0.63142 0.0
C4670 C 0.92077 0.44637 0.61716 0.0
C4671 C 0.90018 0.40068 0.61528 0.0
H4672 H 0.81015 0.61688 0.64046 0.0
H4673 H 0.82622 0.62062 0.61075 0.0
H4674 H 0.74653 0.56912 0.60887 0.0
H4675 H 0.67057 0.52745 0.6158 0.0
H4676 H 0.65682 0.5261 0.6456 0.0
H4677 H 0.73671 0.57183 0.64733 0.0
C4678 C 0.79616 0.60634 0.63357 0.0
C4679 C 0.82372 0.6239 0.62574 0.0
C4680 C 0.75046 0.577 0.63257 0.0
C4681 C 0.80543 0.60886 0.61686 0.0
C4682 C 0.75988 0.57911 0.61581 0.0
C4683 C 0.68529 0.53639 0.62266 0.0
C4684 C 0.65765 0.52307 0.63059 0.0
C4685 C 0.73175 0.56361 0.62361 0.0
C4686 C 0.67725 0.53567 0.63942 0.0
C4687 C 0.72298 0.56202 0.64041 0.0
H4688 H 0.55499 0.16133 0.6412 0.0
H4689 H 0.60051 0.18592 0.61281 0.0
H4690 H 0.55692 0.22218 0.60992 0.0
H4691 H 0.50441 0.24657 0.61556 0.0
H4692 H 0.46236 0.22272 0.64412 0.0
H4693 H 0.50489 0.18593 0.64678 0.0
C4694 C 0.55524 0.17421 0.63433 0.0
C4695 C 0.581 0.17037 0.62723 0.0
C4696 C 0.52992 0.19473 0.63271 0.0
C4697 C 0.58146 0.18854 0.61846 0.0
C4698 C 0.55625 0.20913 0.61679 0.0
C4699 C 0.50383 0.23228 0.62228 0.0
C4700 C 0.47756 0.23461 0.6295 0.0
C4701 C 0.52997 0.21217 0.62385 0.0
C4702 C 0.47972 0.21873 0.63832 0.0
C4703 C 0.50477 0.19835 0.63989 0.0
H4704 H 0.9905 0.16326 0.21945 0.0
H4705 H 0.97453 0.259 0.20364 0.0
H4706 H 0.05349 0.30026 0.20059 0.0
H4707 H 0.12727 0.30891 0.20211 0.0
H4708 H 0.1431 0.20927 0.21652 0.0
H4709 H 0.06494 0.1712 0.22069 0.0
C4710 C 1.00437 0.19341 0.2154 0.0
C4711 C 0.97608 0.20824 0.21197 0.0
C4712 C 0.05021 0.21664 0.21346 0.0
C4713 C 0.99477 0.2468 0.20653 0.0
C4714 C 0.04032 0.27057 0.20477 0.0
C4715 C 0.11393 0.2785 0.20605 0.0
C4716 C 0.14202 0.26218 0.20886 0.0
C4717 C 0.06834 0.25565 0.20813 0.0
C4718 C 0.12329 0.22341 0.21428 0.0
C4719 C 0.07817 0.20119 0.2166 0.0
H4720 H 0.87526 0.92749 0.21698 0.0
H4721 H 0.82261 0.89241 0.18918 0.0
H4722 H 0.85274 0.84329 0.18764 0.0
H4723 H 0.89221 0.80788 0.19418 0.0
H4724 H 0.9494 0.84459 0.22145 0.0
H4725 H 0.92059 0.89569 0.22313 0.0
C4726 C 0.87105 0.90971 0.21054 0.0
C4727 C 0.84583 0.91345 0.20327 0.0
C4728 C 0.88901 0.88124 0.20962 0.0
C4729 C 0.84092 0.8898 0.19498 0.0
C4730 C 0.85827 0.86159 0.19406 0.0
C4731 C 0.8977 0.82657 0.20055 0.0
C4732 C 0.92046 0.82035 0.20792 0.0
C4733 C 0.88167 0.85638 0.20137 0.0
C4734 C 0.92969 0.84683 0.2159 0.0
C4735 C 0.91374 0.87656 0.21679 0.0
H4736 H 0.22653 1.00921 0.19317 0.0
H4737 H 0.18066 0.98166 0.22153 0.0
H4738 H 0.22357 0.06064 0.22523 0.0
H4739 H 0.27696 0.13831 0.22046 0.0
H4740 H 0.32117 0.16369 0.19202 0.0
H4741 H 0.27723 0.08518 0.18837 0.0
C4742 C 0.22601 0.02024 0.2002 0.0
C4743 C 0.20046 0.98905 0.20707 0.0
C4744 C 0.25117 0.0656 0.2023 0.0
C4745 C 0.19956 1.00462 0.21606 0.0
C4746 C 0.22436 0.04991 0.2182 0.0
C4747 C 0.27748 0.1263 0.21353 0.0
C4748 C 0.30455 0.1564 0.20664 0.0
C4749 C 0.25083 0.08077 0.2114 0.0
C4750 C 0.30274 0.14087 0.19755 0.0
C4751 C 0.27703 0.09601 0.19543 0.0
loop_
_geom_bond_atom_site_label_1
_geom_bond_atom_site_label_2
_geom_bond_distance
_geom_bond_site_symmetry_2
_ccdc_geom_bond_type
Tb0 N31 2.660 . S
Tb0 N38 2.600 . S
Tb0 O44 2.546 . S
Tb0 O45 2.610 . S
Tb0 O47 2.320 . S
Tb0 O48 2.552 . S
Tb0 O49 2.413 . S
Tb0 O51 2.362 . S
Tb0 O52 2.421 . S
Tb0 C64 2.833 . S
C1 C4 1.432 . S
C1 C5 1.414 . S
C1 N8 1.359 . S
C2 C4 1.417 . S
C2 C6 1.432 . S
C2 C14 1.410 . S
C3 C5 1.444 . S
C3 C6 1.317 . S
C3 H26 0.929 . S
C4 C1 1.432 . S
C4 C2 1.417 . S
C4 N12 1.360 . S
C5 C1 1.414 . S
C5 C3 1.444 . S
C5 C10 1.385 . S
C6 C2 1.432 . S
C6 C3 1.317 . S
C6 H18 0.930 . S
C7 C9 1.392 . S
C7 C10 1.370 . S
C7 H19 0.931 . S
N8 C1 1.359 . S
N8 C9 1.327 . S
N8 Tb11 2.600 . S
C9 C7 1.392 . S
C9 N8 1.327 . S
C9 H16 0.930 . S
C10 C5 1.385 . S
C10 C7 1.370 . S
C10 H29 0.930 . S
Tb11 N8 2.600 . S
Tb11 N12 2.660 . S
Tb11 O45 2.362 . S
Tb11 O46 2.421 . S
Tb11 O50 2.546 1_545 S
Tb11 O51 2.610 . S
Tb11 O53 2.320 . S
Tb11 O54 2.552 1_545 S
Tb11 O55 2.413 1_545 S
Tb11 C75 2.833 1_545 S
N12 C4 1.360 . S
N12 Tb11 2.660 . S
N12 C13 1.305 . S
C13 N12 1.305 . S
C13 C15 1.407 . S
C13 H20 0.930 . S
C14 C2 1.410 . S
C14 C15 1.345 . S
C14 H22 0.930 . S
C15 C13 1.407 . S
C15 C14 1.345 . S
C15 H17 0.930 . S
H16 C9 0.930 . S
H17 C15 0.930 . S
H18 C6 0.930 . S
H19 C7 0.931 . S
H20 C13 0.930 . S
H21 C35 0.930 . S
H22 C14 0.930 . S
H23 C41 0.930 . S
H24 C32 0.930 . S
H25 C39 0.931 . S
H26 C3 0.929 . S
H27 C33 0.930 . S
H28 C66 0.930 . S
H29 C10 0.930 . S
H30 C65 0.929 . S
N31 Tb0 2.660 . S
N31 C32 1.305 . S
N31 C36 1.360 . S
C32 H24 0.930 . S
C32 N31 1.305 . S
C32 C35 1.407 . S
C33 H27 0.930 . S
C33 C34 1.410 1_565 S
C33 C35 1.345 1_565 S
C34 C33 1.410 1_545 S
C34 C36 1.417 . S
C34 C66 1.432 1_545 S
C35 H21 0.930 . S
C35 C32 1.407 . S
C35 C33 1.345 1_545 S
C36 N31 1.360 . S
C36 C34 1.417 . S
C36 C40 1.432 . S
H37 C42 0.930 . S
N38 Tb0 2.600 . S
N38 C40 1.359 . S
N38 C41 1.327 . S
C39 H25 0.931 . S
C39 C41 1.392 . S
C39 C42 1.370 . S
C40 C36 1.432 . S
C40 N38 1.359 . S
C40 C43 1.414 . S
C41 H23 0.930 . S
C41 N38 1.327 . S
C41 C39 1.392 . S
C42 H37 0.930 . S
C42 C39 1.370 . S
C42 C43 1.385 . S
C43 C40 1.414 . S
C43 C42 1.385 . S
C43 C65 1.444 . S
O44 Tb0 2.546 . S
O44 C64 1.251 . S
O45 Tb0 2.610 . S
O45 Tb11 2.362 . S
O45 C56 1.283 . S
O46 Tb11 2.421 . S
O46 C63 1.262 . S
O47 Tb0 2.320 . S
O47 C63 1.260 . S
O48 Tb0 2.552 . S
O48 C56 1.243 . S
O49 Tb0 2.413 . S
O49 C64 1.256 . S
O50 Tb11 2.546 1_565 S
O50 C75 1.251 . S
O51 Tb0 2.362 . S
O51 Tb11 2.610 . S
O51 C67 1.283 1_545 S
O52 Tb0 2.421 . S
O52 C74 1.262 . S
O53 Tb11 2.320 . S
O53 C74 1.260 . S
O54 Tb11 2.552 1_565 S
O54 C67 1.243 . S
O55 Tb11 2.413 1_565 S
O55 C75 1.256 . S
C56 O45 1.283 . S
C56 O48 1.243 . S
C57 C59 1.382 . S
C57 C61 1.393 . S
C57 C64 1.500 . S
C58 C59 1.400 . S
C58 C60 1.384 . S
C59 C57 1.382 . S
C59 C58 1.400 . S
C59 H76 0.930 . S
C60 C58 1.384 . S
C60 C62 1.392 . S
C60 H77 0.931 . S
C61 C57 1.393 . S
C61 C62 1.401 . S
C61 H78 0.930 . S
C62 C60 1.392 . S
C62 C61 1.401 . S
C62 H79 0.930 . S
C63 O46 1.262 . S
C63 O47 1.260 . S
C64 Tb0 2.833 . S
C64 O44 1.251 . S
C64 O49 1.256 . S
C64 C57 1.500 . S
C65 H30 0.929 . S
C65 C43 1.444 . S
C65 C66 1.317 1_545 S
C66 H28 0.930 . S
C66 C34 1.432 1_565 S
C66 C65 1.317 1_565 S
C67 O51 1.283 1_565 S
C67 O54 1.243 . S
C68 C69 1.382 . S
C68 C72 1.393 . S
C68 C75 1.500 . S
C69 C68 1.382 . S
C69 C70 1.400 . S
C69 H80 0.930 . S
C70 C69 1.400 . S
C70 C71 1.384 . S
C71 C70 1.384 . S
C71 C73 1.392 . S
C71 H81 0.931 . S
C72 C68 1.393 . S
C72 C73 1.401 . S
C72 H82 0.930 . S
C73 C71 1.392 . S
C73 C72 1.401 . S
C73 H83 0.930 . S
C74 O52 1.262 . S
C74 O53 1.260 . S
C75 Tb11 2.833 1_565 S
C75 O50 1.251 . S
C75 O55 1.256 . S
C75 C68 1.500 . S
H76 C59 0.930 . S
H77 C60 0.931 . S
H78 C61 0.930 . S
H79 C62 0.930 . S
H80 C69 0.930 . S
H81 C71 0.931 . S
H82 C72 0.930 . S
H83 C73 0.930 . S
Tb84 N115 2.660 1_655 S
Tb84 N122 2.600 1_655 S
Tb84 O128 2.546 . S
Tb84 O129 2.610 . S
Tb84 O131 2.320 . S
Tb84 O132 2.552 . S
Tb84 O133 2.413 . S
Tb84 O135 2.362 1_655 S
Tb84 O136 2.421 1_655 S
Tb84 C148 2.833 . S
C85 C88 1.432 1_455 S
C85 C89 1.414 1_455 S
C85 N92 1.359 . S
C86 C88 1.417 . S
C86 C90 1.432 . S
C86 C98 1.410 . S
C87 C89 1.444 . S
C87 C90 1.317 . S
C87 H110 0.929 . S
C88 C85 1.432 1_655 S
C88 C86 1.417 . S
C88 N96 1.360 1_655 S
C89 C85 1.414 1_655 S
C89 C87 1.444 . S
C89 C94 1.385 1_655 S
C90 C86 1.432 . S
C90 C87 1.317 . S
C90 H102 0.930 . S
C91 C93 1.392 . S
C91 C94 1.370 . S
C91 H103 0.931 . S
N92 C85 1.359 . S
N92 C93 1.327 . S
N92 Tb95 2.600 . S
C93 C91 1.392 . S
C93 N92 1.327 . S
C93 H100 0.930 . S
C94 C89 1.385 1_455 S
C94 C91 1.370 . S
C94 H113 0.930 . S
Tb95 N92 2.600 . S
Tb95 N96 2.660 . S
Tb95 O129 2.362 1_455 S
Tb95 O130 2.421 . S
Tb95 O134 2.546 . S
Tb95 O135 2.610 . S
Tb95 O137 2.320 . S
Tb95 O138 2.552 . S
Tb95 O139 2.413 . S
Tb95 C159 2.833 . S
N96 C88 1.360 1_455 S
N96 Tb95 2.660 . S
N96 C97 1.305 1_455 S
C97 N96 1.305 1_655 S
C97 C99 1.407 . S
C97 H104 0.930 1_655 S
C98 C86 1.410 . S
C98 C99 1.345 . S
C98 H106 0.930 . S
C99 C97 1.407 . S
C99 C98 1.345 . S
C99 H101 0.930 . S
H100 C93 0.930 . S
H101 C99 0.930 . S
H102 C90 0.930 . S
H103 C91 0.931 . S
H104 C97 0.930 1_455 S
H105 C119 0.930 . S
H106 C98 0.930 . S
H107 C125 0.930 . S
H108 C116 0.930 . S
H109 C123 0.931 1_655 S
H110 C87 0.929 . S
H111 C117 0.930 . S
H112 C150 0.930 . S
H113 C94 0.930 . S
H114 C149 0.929 . S
N115 Tb84 2.660 1_455 S
N115 C116 1.305 . S
N115 C120 1.360 . S
C116 H108 0.930 . S
C116 N115 1.305 . S
C116 C119 1.407 . S
C117 H111 0.930 . S
C117 C118 1.410 . S
C117 C119 1.345 . S
C118 C117 1.410 . S
C118 C120 1.417 . S
C118 C150 1.432 . S
C119 H105 0.930 . S
C119 C116 1.407 . S
C119 C117 1.345 . S
C120 N115 1.360 . S
C120 C118 1.417 . S
C120 C124 1.432 . S
H121 C126 0.930 . S
N122 Tb84 2.600 1_455 S
N122 C124 1.359 . S
N122 C125 1.327 1_455 S
C123 H109 0.931 1_455 S
C123 C125 1.392 1_455 S
C123 C126 1.370 . S
C124 C120 1.432 . S
C124 N122 1.359 . S
C124 C127 1.414 . S
C125 H107 0.930 . S
C125 N122 1.327 1_655 S
C125 C123 1.392 1_655 S
C126 H121 0.930 . S
C126 C123 1.370 . S
C126 C127 1.385 . S
C127 C124 1.414 . S
C127 C126 1.385 . S
C127 C149 1.444 . S
O128 Tb84 2.546 . S
O128 C148 1.251 . S
O129 Tb84 2.610 . S
O129 Tb95 2.362 1_655 S
O129 C140 1.283 . S
O130 Tb95 2.421 . S
O130 C147 1.262 1_455 S
O131 Tb84 2.320 . S
O131 C147 1.260 . S
O132 Tb84 2.552 . S
O132 C140 1.243 . S
O133 Tb84 2.413 . S
O133 C148 1.256 . S
O134 Tb95 2.546 . S
O134 C159 1.251 . S
O135 Tb84 2.362 1_455 S
O135 Tb95 2.610 . S
O135 C151 1.283 . S
O136 Tb84 2.421 1_455 S
O136 C158 1.262 . S
O137 Tb95 2.320 . S
O137 C158 1.260 . S
O138 Tb95 2.552 . S
O138 C151 1.243 . S
O139 Tb95 2.413 . S
O139 C159 1.256 . S
C140 O129 1.283 . S
C140 O132 1.243 . S
C141 C143 1.382 . S
C141 C145 1.393 . S
C141 C148 1.500 . S
C142 C143 1.400 . S
C142 C144 1.384 . S
C143 C141 1.382 . S
C143 C142 1.400 . S
C143 H160 0.930 . S
C144 C142 1.384 . S
C144 C146 1.392 . S
C144 H161 0.931 . S
C145 C141 1.393 . S
C145 C146 1.401 . S
C145 H162 0.930 . S
C146 C144 1.392 . S
C146 C145 1.401 . S
C146 H163 0.930 . S
C147 O130 1.262 1_655 S
C147 O131 1.260 . S
C148 Tb84 2.833 . S
C148 O128 1.251 . S
C148 O133 1.256 . S
C148 C141 1.500 . S
C149 H114 0.929 . S
C149 C127 1.444 . S
C149 C150 1.317 . S
C150 H112 0.930 . S
C150 C118 1.432 . S
C150 C149 1.317 . S
C151 O135 1.283 . S
C151 O138 1.243 . S
C152 C153 1.382 . S
C152 C156 1.393 . S
C152 C159 1.500 . S
C153 C152 1.382 . S
C153 C154 1.400 . S
C153 H164 0.930 . S
C154 C153 1.400 . S
C154 C155 1.384 . S
C155 C154 1.384 . S
C155 C157 1.392 . S
C155 H165 0.931 . S
C156 C152 1.393 . S
C156 C157 1.401 . S
C156 H166 0.930 . S
C157 C155 1.392 . S
C157 C156 1.401 . S
C157 H167 0.930 . S
C158 O136 1.262 . S
C158 O137 1.260 . S
C159 Tb95 2.833 . S
C159 O134 1.251 . S
C159 O139 1.256 . S
C159 C152 1.500 . S
H160 C143 0.930 . S
H161 C144 0.931 . S
H162 C145 0.930 . S
H163 C146 0.930 . S
H164 C153 0.930 . S
H165 C155 0.931 . S
H166 C156 0.930 . S
H167 C157 0.930 . S
Tb168 N199 2.660 . S
Tb168 N206 2.600 . S
Tb168 O212 2.546 . S
Tb168 O213 2.610 . S
Tb168 O215 2.320 . S
Tb168 O216 2.552 . S
Tb168 O217 2.413 . S
Tb168 O219 2.362 . S
Tb168 O220 2.421 . S
Tb168 C232 2.833 . S
C169 C172 1.432 . S
C169 C173 1.414 . S
C169 N176 1.359 . S
C170 C172 1.417 . S
C170 C174 1.432 . S
C170 C182 1.410 . S
C171 C173 1.444 . S
C171 C174 1.317 . S
C171 H194 0.929 . S
C172 C169 1.432 . S
C172 C170 1.417 . S
C172 N180 1.360 . S
C173 C169 1.414 . S
C173 C171 1.444 . S
C173 C178 1.385 . S
C174 C170 1.432 . S
C174 C171 1.317 . S
C174 H186 0.930 . S
C175 C177 1.392 . S
C175 C178 1.370 . S
C175 H187 0.931 . S
N176 C169 1.359 . S
N176 C177 1.327 . S
N176 Tb179 2.600 . S
C177 C175 1.392 . S
C177 N176 1.327 . S
C177 H184 0.930 . S
C178 C173 1.385 . S
C178 C175 1.370 . S
C178 H197 0.930 . S
Tb179 N176 2.600 . S
Tb179 N180 2.660 . S
Tb179 O213 2.362 . S
Tb179 O214 2.421 . S
Tb179 O218 2.546 . S
Tb179 O219 2.610 . S
Tb179 O221 2.320 . S
Tb179 O222 2.552 . S
Tb179 O223 2.413 . S
Tb179 C243 2.833 . S
N180 C172 1.360 . S
N180 Tb179 2.660 . S
N180 C181 1.305 . S
C181 N180 1.305 . S
C181 C183 1.407 . S
C181 H188 0.930 . S
C182 C170 1.410 . S
C182 C183 1.345 . S
C182 H190 0.930 . S
C183 C181 1.407 . S
C183 C182 1.345 . S
C183 H185 0.930 . S
H184 C177 0.930 . S
H185 C183 0.930 . S
H186 C174 0.930 . S
H187 C175 0.931 . S
H188 C181 0.930 . S
H189 C203 0.930 . S
H190 C182 0.930 . S
H191 C209 0.930 . S
H192 C200 0.930 . S
H193 C207 0.931 . S
H194 C171 0.929 . S
H195 C201 0.930 . S
H196 C234 0.930 . S
H197 C178 0.930 . S
H198 C233 0.929 . S
N199 Tb168 2.660 . S
N199 C200 1.305 . S
N199 C204 1.360 . S
C200 H192 0.930 . S
C200 N199 1.305 . S
C200 C203 1.407 . S
C201 H195 0.930 . S
C201 C202 1.410 . S
C201 C203 1.345 . S
C202 C201 1.410 . S
C202 C204 1.417 . S
C202 C234 1.432 . S
C203 H189 0.930 . S
C203 C200 1.407 . S
C203 C201 1.345 . S
C204 N199 1.360 . S
C204 C202 1.417 . S
C204 C208 1.432 . S
H205 C210 0.930 . S
N206 Tb168 2.600 . S
N206 C208 1.359 . S
N206 C209 1.327 . S
C207 H193 0.931 . S
C207 C209 1.392 . S
C207 C210 1.370 . S
C208 C204 1.432 . S
C208 N206 1.359 . S
C208 C211 1.414 . S
C209 H191 0.930 . S
C209 N206 1.327 . S
C209 C207 1.392 . S
C210 H205 0.930 . S
C210 C207 1.370 . S
C210 C211 1.385 . S
C211 C208 1.414 . S
C211 C210 1.385 . S
C211 C233 1.444 . S
O212 Tb168 2.546 . S
O212 C232 1.251 . S
O213 Tb168 2.610 . S
O213 Tb179 2.362 . S
O213 C224 1.283 . S
O214 Tb179 2.421 . S
O214 C231 1.262 . S
O215 Tb168 2.320 . S
O215 C231 1.260 . S
O216 Tb168 2.552 . S
O216 C224 1.243 . S
O217 Tb168 2.413 . S
O217 C232 1.256 . S
O218 Tb179 2.546 . S
O218 C243 1.251 . S
O219 Tb168 2.362 . S
O219 Tb179 2.610 . S
O219 C235 1.283 . S
O220 Tb168 2.421 . S
O220 C242 1.262 . S
O221 Tb179 2.320 . S
O221 C242 1.260 . S
O222 Tb179 2.552 . S
O222 C235 1.243 . S
O223 Tb179 2.413 . S
O223 C243 1.256 . S
C224 O213 1.283 . S
C224 O216 1.243 . S
C225 C227 1.382 . S
C225 C229 1.393 . S
C225 C232 1.500 . S
C226 C227 1.400 . S
C226 C228 1.384 . S
C227 C225 1.382 . S
C227 C226 1.400 . S
C227 H244 0.930 . S
C228 C226 1.384 . S
C228 C230 1.392 . S
C228 H245 0.931 . S
C229 C225 1.393 . S
C229 C230 1.401 . S
C229 H246 0.930 . S
C230 C228 1.392 . S
C230 C229 1.401 . S
C230 H247 0.930 . S
C231 O214 1.262 . S
C231 O215 1.260 . S
C232 Tb168 2.833 . S
C232 O212 1.251 . S
C232 O217 1.256 . S
C232 C225 1.500 . S
C233 H198 0.929 . S
C233 C211 1.444 . S
C233 C234 1.317 . S
C234 H196 0.930 . S
C234 C202 1.432 . S
C234 C233 1.317 . S
C235 O219 1.283 . S
C235 O222 1.243 . S
C236 C237 1.382 . S
C236 C240 1.393 . S
C236 C243 1.500 . S
C237 C236 1.382 . S
C237 C238 1.400 . S
C237 H248 0.930 . S
C238 C237 1.400 . S
C238 C239 1.384 . S
C239 C238 1.384 . S
C239 C241 1.392 . S
C239 H249 0.931 . S
C240 C236 1.393 . S
C240 C241 1.401 . S
C240 H250 0.930 . S
C241 C239 1.392 . S
C241 C240 1.401 . S
C241 H251 0.930 . S
C242 O220 1.262 . S
C242 O221 1.260 . S
C243 Tb179 2.833 . S
C243 O218 1.251 . S
C243 O223 1.256 . S
C243 C236 1.500 . S
H244 C227 0.930 . S
H245 C228 0.931 . S
H246 C229 0.930 . S
H247 C230 0.930 . S
H248 C237 0.930 . S
H249 C239 0.931 . S
H250 C240 0.930 . S
H251 C241 0.930 . S
Tb252 N283 2.660 . S
Tb252 N290 2.600 . S
Tb252 O296 2.546 . S
Tb252 O297 2.610 . S
Tb252 O299 2.320 . S
Tb252 O300 2.552 . S
Tb252 O301 2.413 . S
Tb252 O303 2.362 . S
Tb252 O304 2.421 . S
Tb252 C316 2.833 . S
C253 C256 1.432 . S
C253 C257 1.414 . S
C253 N260 1.359 . S
C254 C256 1.417 . S
C254 C258 1.432 . S
C254 C266 1.410 . S
C255 C257 1.444 . S
C255 C258 1.317 . S
C255 H278 0.929 . S
C256 C253 1.432 . S
C256 C254 1.417 . S
C256 N264 1.360 . S
C257 C253 1.414 . S
C257 C255 1.444 . S
C257 C262 1.385 . S
C258 C254 1.432 . S
C258 C255 1.317 . S
C258 H270 0.930 . S
C259 C261 1.392 . S
C259 C262 1.370 . S
C259 H271 0.931 . S
N260 C253 1.359 . S
N260 C261 1.327 . S
N260 Tb263 2.600 . S
C261 C259 1.392 . S
C261 N260 1.327 . S
C261 H268 0.930 . S
C262 C257 1.385 . S
C262 C259 1.370 . S
C262 H281 0.930 . S
Tb263 N260 2.600 . S
Tb263 N264 2.660 . S
Tb263 O297 2.362 . S
Tb263 O298 2.421 . S
Tb263 O302 2.546 1_455 S
Tb263 O303 2.610 . S
Tb263 O305 2.320 . S
Tb263 O306 2.552 1_455 S
Tb263 O307 2.413 1_455 S
Tb263 C327 2.833 1_455 S
N264 C256 1.360 . S
N264 Tb263 2.660 . S
N264 C265 1.305 . S
C265 N264 1.305 . S
C265 C267 1.407 . S
C265 H272 0.930 . S
C266 C254 1.410 . S
C266 C267 1.345 . S
C266 H274 0.930 . S
C267 C265 1.407 . S
C267 C266 1.345 . S
C267 H269 0.930 . S
H268 C261 0.930 . S
H269 C267 0.930 . S
H270 C258 0.930 . S
H271 C259 0.931 . S
H272 C265 0.930 . S
H273 C287 0.930 . S
H274 C266 0.930 . S
H275 C293 0.930 . S
H276 C284 0.930 . S
H277 C291 0.931 . S
H278 C255 0.929 . S
H279 C285 0.930 . S
H280 C318 0.930 . S
H281 C262 0.930 . S
H282 C317 0.929 . S
N283 Tb252 2.660 . S
N283 C284 1.305 . S
N283 C288 1.360 . S
C284 H276 0.930 . S
C284 N283 1.305 . S
C284 C287 1.407 . S
C285 H279 0.930 . S
C285 C286 1.410 1_655 S
C285 C287 1.345 1_655 S
C286 C285 1.410 1_455 S
C286 C288 1.417 . S
C286 C318 1.432 1_455 S
C287 H273 0.930 . S
C287 C284 1.407 . S
C287 C285 1.345 1_455 S
C288 N283 1.360 . S
C288 C286 1.417 . S
C288 C292 1.432 . S
H289 C294 0.930 . S
N290 Tb252 2.600 . S
N290 C292 1.359 . S
N290 C293 1.327 . S
C291 H277 0.931 . S
C291 C293 1.392 . S
C291 C294 1.370 . S
C292 C288 1.432 . S
C292 N290 1.359 . S
C292 C295 1.414 . S
C293 H275 0.930 . S
C293 N290 1.327 . S
C293 C291 1.392 . S
C294 H289 0.930 . S
C294 C291 1.370 . S
C294 C295 1.385 . S
C295 C292 1.414 . S
C295 C294 1.385 . S
C295 C317 1.444 . S
O296 Tb252 2.546 . S
O296 C316 1.251 . S
O297 Tb252 2.610 . S
O297 Tb263 2.362 . S
O297 C308 1.283 . S
O298 Tb263 2.421 . S
O298 C315 1.262 . S
O299 Tb252 2.320 . S
O299 C315 1.260 . S
O300 Tb252 2.552 . S
O300 C308 1.243 . S
O301 Tb252 2.413 . S
O301 C316 1.256 . S
O302 Tb263 2.546 1_655 S
O302 C327 1.251 . S
O303 Tb252 2.362 . S
O303 Tb263 2.610 . S
O303 C319 1.283 1_455 S
O304 Tb252 2.421 . S
O304 C326 1.262 . S
O305 Tb263 2.320 . S
O305 C326 1.260 . S
O306 Tb263 2.552 1_655 S
O306 C319 1.243 . S
O307 Tb263 2.413 1_655 S
O307 C327 1.256 . S
C308 O297 1.283 . S
C308 O300 1.243 . S
C309 C311 1.382 . S
C309 C313 1.393 . S
C309 C316 1.500 . S
C310 C311 1.400 . S
C310 C312 1.384 . S
C311 C309 1.382 . S
C311 C310 1.400 . S
C311 H328 0.930 . S
C312 C310 1.384 . S
C312 C314 1.392 . S
C312 H329 0.931 . S
C313 C309 1.393 . S
C313 C314 1.401 . S
C313 H330 0.930 . S
C314 C312 1.392 . S
C314 C313 1.401 . S
C314 H331 0.930 . S
C315 O298 1.262 . S
C315 O299 1.260 . S
C316 Tb252 2.833 . S
C316 O296 1.251 . S
C316 O301 1.256 . S
C316 C309 1.500 . S
C317 H282 0.929 . S
C317 C295 1.444 . S
C317 C318 1.317 1_455 S
C318 H280 0.930 . S
C318 C286 1.432 1_655 S
C318 C317 1.317 1_655 S
C319 O303 1.283 1_655 S
C319 O306 1.243 . S
C320 C321 1.382 . S
C320 C324 1.393 . S
C320 C327 1.500 . S
C321 C320 1.382 . S
C321 C322 1.400 . S
C321 H332 0.930 . S
C322 C321 1.400 . S
C322 C323 1.384 . S
C323 C322 1.384 . S
C323 C325 1.392 . S
C323 H333 0.931 . S
C324 C320 1.393 . S
C324 C325 1.401 . S
C324 H334 0.930 . S
C325 C323 1.392 . S
C325 C324 1.401 . S
C325 H335 0.930 . S
C326 O304 1.262 . S
C326 O305 1.260 . S
C327 Tb263 2.833 1_655 S
C327 O302 1.251 . S
C327 O307 1.256 . S
C327 C320 1.500 . S
H328 C311 0.930 . S
H329 C312 0.931 . S
H330 C313 0.930 . S
H331 C314 0.930 . S
H332 C321 0.930 . S
H333 C323 0.931 . S
H334 C324 0.930 . S
H335 C325 0.930 . S
Tb336 N367 2.660 . S
Tb336 N374 2.600 . S
Tb336 O380 2.546 . S
Tb336 O381 2.610 . S
Tb336 O383 2.320 . S
Tb336 O384 2.552 . S
Tb336 O385 2.413 . S
Tb336 O387 2.362 . S
Tb336 O388 2.421 . S
Tb336 C400 2.833 . S
C337 C340 1.432 . S
C337 C341 1.414 . S
C337 N344 1.359 . S
C338 C340 1.417 . S
C338 C342 1.432 . S
C338 C350 1.410 . S
C339 C341 1.444 . S
C339 C342 1.317 . S
C339 H362 0.929 . S
C340 C337 1.432 . S
C340 C338 1.417 . S
C340 N348 1.360 . S
C341 C337 1.414 . S
C341 C339 1.444 . S
C341 C346 1.385 . S
C342 C338 1.432 . S
C342 C339 1.317 . S
C342 H354 0.930 . S
C343 C345 1.392 . S
C343 C346 1.370 . S
C343 H355 0.931 . S
N344 C337 1.359 . S
N344 C345 1.327 . S
N344 Tb347 2.600 . S
C345 C343 1.392 . S
C345 N344 1.327 . S
C345 H352 0.930 . S
C346 C341 1.385 . S
C346 C343 1.370 . S
C346 H365 0.930 . S
Tb347 N344 2.600 . S
Tb347 N348 2.660 . S
Tb347 O381 2.362 . S
Tb347 O382 2.421 . S
Tb347 O386 2.546 . S
Tb347 O387 2.610 . S
Tb347 O389 2.320 . S
Tb347 O390 2.552 . S
Tb347 O391 2.413 . S
Tb347 C411 2.833 . S
N348 C340 1.360 . S
N348 Tb347 2.660 . S
N348 C349 1.305 . S
C349 N348 1.305 . S
C349 C351 1.407 . S
C349 H356 0.930 . S
C350 C338 1.410 . S
C350 C351 1.345 . S
C350 H358 0.930 . S
C351 C349 1.407 . S
C351 C350 1.345 . S
C351 H353 0.930 . S
H352 C345 0.930 . S
H353 C351 0.930 . S
H354 C342 0.930 . S
H355 C343 0.931 . S
H356 C349 0.930 . S
H357 C371 0.930 . S
H358 C350 0.930 . S
H359 C377 0.930 . S
H360 C368 0.930 . S
H361 C375 0.931 . S
H362 C339 0.929 . S
H363 C369 0.930 . S
H364 C402 0.930 . S
H365 C346 0.930 . S
H366 C401 0.929 . S
N367 Tb336 2.660 . S
N367 C368 1.305 . S
N367 C372 1.360 . S
C368 H360 0.930 . S
C368 N367 1.305 . S
C368 C371 1.407 . S
C369 H363 0.930 . S
C369 C370 1.410 . S
C369 C371 1.345 . S
C370 C369 1.410 . S
C370 C372 1.417 . S
C370 C402 1.432 . S
C371 H357 0.930 . S
C371 C368 1.407 . S
C371 C369 1.345 . S
C372 N367 1.360 . S
C372 C370 1.417 . S
C372 C376 1.432 . S
H373 C378 0.930 . S
N374 Tb336 2.600 . S
N374 C376 1.359 . S
N374 C377 1.327 . S
C375 H361 0.931 . S
C375 C377 1.392 . S
C375 C378 1.370 . S
C376 C372 1.432 . S
C376 N374 1.359 . S
C376 C379 1.414 . S
C377 H359 0.930 . S
C377 N374 1.327 . S
C377 C375 1.392 . S
C378 H373 0.930 . S
C378 C375 1.370 . S
C378 C379 1.385 . S
C379 C376 1.414 . S
C379 C378 1.385 . S
C379 C401 1.444 . S
O380 Tb336 2.546 . S
O380 C400 1.251 . S
O381 Tb336 2.610 . S
O381 Tb347 2.362 . S
O381 C392 1.283 . S
O382 Tb347 2.421 . S
O382 C399 1.262 . S
O383 Tb336 2.320 . S
O383 C399 1.260 . S
O384 Tb336 2.552 . S
O384 C392 1.243 . S
O385 Tb336 2.413 . S
O385 C400 1.256 . S
O386 Tb347 2.546 . S
O386 C411 1.251 . S
O387 Tb336 2.362 . S
O387 Tb347 2.610 . S
O387 C403 1.283 . S
O388 Tb336 2.421 . S
O388 C410 1.262 . S
O389 Tb347 2.320 . S
O389 C410 1.260 . S
O390 Tb347 2.552 . S
O390 C403 1.243 . S
O391 Tb347 2.413 . S
O391 C411 1.256 . S
C392 O381 1.283 . S
C392 O384 1.243 . S
C393 C395 1.382 . S
C393 C397 1.393 . S
C393 C400 1.500 . S
C394 C395 1.400 . S
C394 C396 1.384 . S
C395 C393 1.382 . S
C395 C394 1.400 . S
C395 H412 0.930 . S
C396 C394 1.384 . S
C396 C398 1.392 . S
C396 H413 0.931 . S
C397 C393 1.393 . S
C397 C398 1.401 . S
C397 H414 0.930 . S
C398 C396 1.392 . S
C398 C397 1.401 . S
C398 H415 0.930 . S
C399 O382 1.262 . S
C399 O383 1.260 . S
C400 Tb336 2.833 . S
C400 O380 1.251 . S
C400 O385 1.256 . S
C400 C393 1.500 . S
C401 H366 0.929 . S
C401 C379 1.444 . S
C401 C402 1.317 . S
C402 H364 0.930 . S
C402 C370 1.432 . S
C402 C401 1.317 . S
C403 O387 1.283 . S
C403 O390 1.243 . S
C404 C405 1.382 . S
C404 C408 1.393 . S
C404 C411 1.500 . S
C405 C404 1.382 . S
C405 C406 1.400 . S
C405 H416 0.930 . S
C406 C405 1.400 . S
C406 C407 1.384 . S
C407 C406 1.384 . S
C407 C409 1.392 . S
C407 H417 0.931 . S
C408 C404 1.393 . S
C408 C409 1.401 . S
C408 H418 0.930 . S
C409 C407 1.392 . S
C409 C408 1.401 . S
C409 H419 0.930 . S
C410 O388 1.262 . S
C410 O389 1.260 . S
C411 Tb347 2.833 . S
C411 O386 1.251 . S
C411 O391 1.256 . S
C411 C404 1.500 . S
H412 C395 0.930 . S
H413 C396 0.931 . S
H414 C397 0.930 . S
H415 C398 0.930 . S
H416 C405 0.930 . S
H417 C407 0.931 . S
H418 C408 0.930 . S
H419 C409 0.930 . S
Tb420 N451 2.660 1_565 S
Tb420 N458 2.600 1_565 S
Tb420 O464 2.546 . S
Tb420 O465 2.610 . S
Tb420 O467 2.320 . S
Tb420 O468 2.552 . S
Tb420 O469 2.413 . S
Tb420 O471 2.362 1_565 S
Tb420 O472 2.421 1_565 S
Tb420 C484 2.833 . S
C421 C424 1.432 1_545 S
C421 C425 1.414 1_545 S
C421 N428 1.359 . S
C422 C424 1.417 . S
C422 C426 1.432 . S
C422 C434 1.410 . S
C423 C425 1.444 . S
C423 C426 1.317 . S
C423 H446 0.929 . S
C424 C421 1.432 1_565 S
C424 C422 1.417 . S
C424 N432 1.360 1_565 S
C425 C421 1.414 1_565 S
C425 C423 1.444 . S
C425 C430 1.385 1_565 S
C426 C422 1.432 . S
C426 C423 1.317 . S
C426 H438 0.930 . S
C427 C429 1.392 . S
C427 C430 1.370 . S
C427 H439 0.931 . S
N428 C421 1.359 . S
N428 C429 1.327 . S
N428 Tb431 2.600 . S
C429 C427 1.392 . S
C429 N428 1.327 . S
C429 H436 0.930 . S
C430 C425 1.385 1_545 S
C430 C427 1.370 . S
C430 H449 0.930 . S
Tb431 N428 2.600 . S
Tb431 N432 2.660 . S
Tb431 O465 2.362 1_545 S
Tb431 O466 2.421 . S
Tb431 O470 2.546 . S
Tb431 O471 2.610 . S
Tb431 O473 2.320 . S
Tb431 O474 2.552 . S
Tb431 O475 2.413 . S
Tb431 C495 2.833 . S
N432 C424 1.360 1_545 S
N432 Tb431 2.660 . S
N432 C433 1.305 1_545 S
C433 N432 1.305 1_565 S
C433 C435 1.407 . S
C433 H440 0.930 1_565 S
C434 C422 1.410 . S
C434 C435 1.345 . S
C434 H442 0.930 . S
C435 C433 1.407 . S
C435 C434 1.345 . S
C435 H437 0.930 . S
H436 C429 0.930 . S
H437 C435 0.930 . S
H438 C426 0.930 . S
H439 C427 0.931 . S
H440 C433 0.930 1_545 S
H441 C455 0.930 . S
H442 C434 0.930 . S
H443 C461 0.930 . S
H444 C452 0.930 . S
H445 C459 0.931 1_565 S
H446 C423 0.929 . S
H447 C453 0.930 . S
H448 C486 0.930 . S
H449 C430 0.930 . S
H450 C485 0.929 . S
N451 Tb420 2.660 1_545 S
N451 C452 1.305 . S
N451 C456 1.360 . S
C452 H444 0.930 . S
C452 N451 1.305 . S
C452 C455 1.407 . S
C453 H447 0.930 . S
C453 C454 1.410 . S
C453 C455 1.345 . S
C454 C453 1.410 . S
C454 C456 1.417 . S
C454 C486 1.432 . S
C455 H441 0.930 . S
C455 C452 1.407 . S
C455 C453 1.345 . S
C456 N451 1.360 . S
C456 C454 1.417 . S
C456 C460 1.432 . S
H457 C462 0.930 . S
N458 Tb420 2.600 1_545 S
N458 C460 1.359 . S
N458 C461 1.327 1_545 S
C459 H445 0.931 1_545 S
C459 C461 1.392 1_545 S
C459 C462 1.370 . S
C460 C456 1.432 . S
C460 N458 1.359 . S
C460 C463 1.414 . S
C461 H443 0.930 . S
C461 N458 1.327 1_565 S
C461 C459 1.392 1_565 S
C462 H457 0.930 . S
C462 C459 1.370 . S
C462 C463 1.385 . S
C463 C460 1.414 . S
C463 C462 1.385 . S
C463 C485 1.444 . S
O464 Tb420 2.546 . S
O464 C484 1.251 . S
O465 Tb420 2.610 . S
O465 Tb431 2.362 1_565 S
O465 C476 1.283 . S
O466 Tb431 2.421 . S
O466 C483 1.262 1_545 S
O467 Tb420 2.320 . S
O467 C483 1.260 . S
O468 Tb420 2.552 . S
O468 C476 1.243 . S
O469 Tb420 2.413 . S
O469 C484 1.256 . S
O470 Tb431 2.546 . S
O470 C495 1.251 . S
O471 Tb420 2.362 1_545 S
O471 Tb431 2.610 . S
O471 C487 1.283 . S
O472 Tb420 2.421 1_545 S
O472 C494 1.262 . S
O473 Tb431 2.320 . S
O473 C494 1.260 . S
O474 Tb431 2.552 . S
O474 C487 1.243 . S
O475 Tb431 2.413 . S
O475 C495 1.256 . S
C476 O465 1.283 . S
C476 O468 1.243 . S
C477 C479 1.382 . S
C477 C481 1.393 . S
C477 C484 1.500 . S
C478 C479 1.400 . S
C478 C480 1.384 . S
C479 C477 1.382 . S
C479 C478 1.400 . S
C479 H496 0.930 . S
C480 C478 1.384 . S
C480 C482 1.392 . S
C480 H497 0.931 . S
C481 C477 1.393 . S
C481 C482 1.401 . S
C481 H498 0.930 . S
C482 C480 1.392 . S
C482 C481 1.401 . S
C482 H499 0.930 . S
C483 O466 1.262 1_565 S
C483 O467 1.260 . S
C484 Tb420 2.833 . S
C484 O464 1.251 . S
C484 O469 1.256 . S
C484 C477 1.500 . S
C485 H450 0.929 . S
C485 C463 1.444 . S
C485 C486 1.317 . S
C486 H448 0.930 . S
C486 C454 1.432 . S
C486 C485 1.317 . S
C487 O471 1.283 . S
C487 O474 1.243 . S
C488 C489 1.382 . S
C488 C492 1.393 . S
C488 C495 1.500 . S
C489 C488 1.382 . S
C489 C490 1.400 . S
C489 H500 0.930 . S
C490 C489 1.400 . S
C490 C491 1.384 . S
C491 C490 1.384 . S
C491 C493 1.392 . S
C491 H501 0.931 . S
C492 C488 1.393 . S
C492 C493 1.401 . S
C492 H502 0.930 . S
C493 C491 1.392 . S
C493 C492 1.401 . S
C493 H503 0.930 . S
C494 O472 1.262 . S
C494 O473 1.260 . S
C495 Tb431 2.833 . S
C495 O470 1.251 . S
C495 O475 1.256 . S
C495 C488 1.500 . S
H496 C479 0.930 . S
H497 C480 0.931 . S
H498 C481 0.930 . S
H499 C482 0.930 . S
H500 C489 0.930 . S
H501 C491 0.931 . S
H502 C492 0.930 . S
H503 C493 0.930 . S
Tb504 N535 2.660 . S
Tb504 N542 2.600 . S
Tb504 O548 2.546 . S
Tb504 O549 2.610 . S
Tb504 O551 2.320 . S
Tb504 O552 2.552 . S
Tb504 O553 2.413 . S
Tb504 O555 2.362 1_545 S
Tb504 O556 2.421 . S
Tb504 C568 2.833 . S
C505 C508 1.432 . S
C505 C509 1.414 . S
C505 N512 1.359 . S
C506 C508 1.417 . S
C506 C510 1.432 . S
C506 C518 1.410 . S
C507 C509 1.444 . S
C507 C510 1.317 . S
C507 H530 0.929 . S
C508 C505 1.432 . S
C508 C506 1.417 . S
C508 N516 1.360 . S
C509 C505 1.414 . S
C509 C507 1.444 . S
C509 C514 1.385 . S
C510 C506 1.432 . S
C510 C507 1.317 . S
C510 H522 0.930 . S
C511 C513 1.392 1_545 S
C511 C514 1.370 . S
C511 H523 0.931 1_545 S
N512 C505 1.359 . S
N512 C513 1.327 1_545 S
N512 Tb515 2.600 1_545 S
C513 C511 1.392 1_565 S
C513 N512 1.327 1_565 S
C513 H520 0.930 . S
C514 C509 1.385 . S
C514 C511 1.370 . S
C514 H533 0.930 . S
Tb515 N512 2.600 1_565 S
Tb515 N516 2.660 1_565 S
Tb515 O549 2.362 1_565 S
Tb515 O550 2.421 1_565 S
Tb515 O554 2.546 . S
Tb515 O555 2.610 . S
Tb515 O557 2.320 . S
Tb515 O558 2.552 . S
Tb515 O559 2.413 . S
Tb515 C579 2.833 . S
N516 C508 1.360 . S
N516 Tb515 2.660 1_545 S
N516 C517 1.305 . S
C517 N516 1.305 . S
C517 C519 1.407 . S
C517 H524 0.930 . S
C518 C506 1.410 . S
C518 C519 1.345 . S
C518 H526 0.930 . S
C519 C517 1.407 . S
C519 C518 1.345 . S
C519 H521 0.930 . S
H520 C513 0.930 . S
H521 C519 0.930 . S
H522 C510 0.930 . S
H523 C511 0.931 1_565 S
H524 C517 0.930 . S
H525 C539 0.930 . S
H526 C518 0.930 . S
H527 C545 0.930 . S
H528 C536 0.930 1_545 S
H529 C543 0.931 . S
H530 C507 0.929 . S
H531 C537 0.930 . S
H532 C570 0.930 . S
H533 C514 0.930 . S
H534 C569 0.929 . S
N535 Tb504 2.660 . S
N535 C536 1.305 1_545 S
N535 C540 1.360 1_545 S
C536 H528 0.930 1_565 S
C536 N535 1.305 1_565 S
C536 C539 1.407 . S
C537 H531 0.930 . S
C537 C538 1.410 . S
C537 C539 1.345 . S
C538 C537 1.410 . S
C538 C540 1.417 . S
C538 C570 1.432 . S
C539 H525 0.930 . S
C539 C536 1.407 . S
C539 C537 1.345 . S
C540 N535 1.360 1_565 S
C540 C538 1.417 . S
C540 C544 1.432 1_565 S
H541 C546 0.925 . S
N542 Tb504 2.600 . S
N542 C544 1.359 . S
N542 C545 1.327 . S
C543 H529 0.931 . S
C543 C545 1.392 . S
C543 C546 1.370 . S
C544 C540 1.432 1_545 S
C544 N542 1.359 . S
C544 C547 1.414 1_545 S
C545 H527 0.930 . S
C545 N542 1.327 . S
C545 C543 1.392 . S
C546 H541 0.925 . S
C546 C543 1.370 . S
C546 C547 1.385 1_545 S
C547 C544 1.414 1_565 S
C547 C546 1.385 1_565 S
C547 C569 1.444 . S
O548 Tb504 2.546 . S
O548 C568 1.251 . S
O549 Tb504 2.610 . S
O549 Tb515 2.362 1_545 S
O549 C560 1.283 . S
O550 Tb515 2.421 1_545 S
O550 C567 1.262 . S
O551 Tb504 2.320 . S
O551 C567 1.260 . S
O552 Tb504 2.552 . S
O552 C560 1.243 . S
O553 Tb504 2.413 . S
O553 C568 1.256 . S
O554 Tb515 2.546 . S
O554 C579 1.251 . S
O555 Tb504 2.362 1_565 S
O555 Tb515 2.610 . S
O555 C571 1.283 . S
O556 Tb504 2.421 . S
O556 C578 1.262 1_545 S
O557 Tb515 2.320 . S
O557 C578 1.260 . S
O558 Tb515 2.552 . S
O558 C571 1.243 . S
O559 Tb515 2.413 . S
O559 C579 1.256 . S
C560 O549 1.283 . S
C560 O552 1.243 . S
C561 C563 1.382 . S
C561 C565 1.393 . S
C561 C568 1.500 . S
C562 C563 1.400 . S
C562 C564 1.384 . S
C563 C561 1.382 . S
C563 C562 1.400 . S
C563 H580 0.930 . S
C564 C562 1.384 . S
C564 C566 1.392 . S
C564 H581 0.931 . S
C565 C561 1.393 . S
C565 C566 1.401 . S
C565 H582 0.930 . S
C566 C564 1.392 . S
C566 C565 1.401 . S
C566 H583 0.930 . S
C567 O550 1.262 . S
C567 O551 1.260 . S
C568 Tb504 2.833 . S
C568 O548 1.251 . S
C568 O553 1.256 . S
C568 C561 1.500 . S
C569 H534 0.929 . S
C569 C547 1.444 . S
C569 C570 1.317 . S
C570 H532 0.930 . S
C570 C538 1.432 . S
C570 C569 1.317 . S
C571 O555 1.283 . S
C571 O558 1.243 . S
C572 C573 1.382 . S
C572 C576 1.393 . S
C572 C579 1.500 . S
C573 C572 1.382 . S
C573 C574 1.400 . S
C573 H584 0.930 . S
C574 C573 1.400 . S
C574 C575 1.384 . S
C575 C574 1.384 . S
C575 C577 1.392 . S
C575 H585 0.931 . S
C576 C572 1.393 . S
C576 C577 1.401 . S
C576 H586 0.930 . S
C577 C575 1.392 . S
C577 C576 1.401 . S
C577 H587 0.930 . S
C578 O556 1.262 1_565 S
C578 O557 1.260 . S
C579 Tb515 2.833 . S
C579 O554 1.251 . S
C579 O559 1.256 . S
C579 C572 1.500 . S
H580 C563 0.930 . S
H581 C564 0.931 . S
H582 C565 0.930 . S
H583 C566 0.930 . S
H584 C573 0.930 . S
H585 C575 0.931 . S
H586 C576 0.930 . S
H587 C577 0.930 . S
Tb588 N619 2.660 . S
Tb588 N626 2.600 . S
Tb588 O632 2.546 1_455 S
Tb588 O633 2.610 . S
Tb588 O635 2.320 . S
Tb588 O636 2.552 1_455 S
Tb588 O637 2.413 1_455 S
Tb588 O639 2.362 . S
Tb588 O640 2.421 . S
Tb588 C652 2.833 1_455 S
C589 C592 1.432 . S
C589 C593 1.414 . S
C589 N596 1.359 . S
C590 C592 1.417 . S
C590 C594 1.432 1_455 S
C590 C602 1.410 1_455 S
C591 C593 1.444 . S
C591 C594 1.317 1_455 S
C591 H614 0.929 . S
C592 C589 1.432 . S
C592 C590 1.417 . S
C592 N600 1.360 . S
C593 C589 1.414 . S
C593 C591 1.444 . S
C593 C598 1.385 . S
C594 C590 1.432 1_655 S
C594 C591 1.317 1_655 S
C594 H606 0.930 . S
C595 C597 1.392 . S
C595 C598 1.370 . S
C595 H607 0.931 . S
N596 C589 1.359 . S
N596 C597 1.327 . S
N596 Tb599 2.600 . S
C597 C595 1.392 . S
C597 N596 1.327 . S
C597 H604 0.930 . S
C598 C593 1.385 . S
C598 C595 1.370 . S
C598 H617 0.930 . S
Tb599 N596 2.600 . S
Tb599 N600 2.660 . S
Tb599 O633 2.362 . S
Tb599 O634 2.421 . S
Tb599 O638 2.546 . S
Tb599 O639 2.610 . S
Tb599 O641 2.320 . S
Tb599 O642 2.552 . S
Tb599 O643 2.413 . S
Tb599 C663 2.833 . S
N600 C592 1.360 . S
N600 Tb599 2.660 . S
N600 C601 1.305 . S
C601 N600 1.305 . S
C601 C603 1.407 . S
C601 H608 0.930 . S
C602 C590 1.410 1_655 S
C602 C603 1.345 1_655 S
C602 H610 0.930 . S
C603 C601 1.407 . S
C603 C602 1.345 1_455 S
C603 H605 0.930 . S
H604 C597 0.930 . S
H605 C603 0.930 . S
H606 C594 0.930 . S
H607 C595 0.931 . S
H608 C601 0.930 . S
H609 C623 0.930 . S
H610 C602 0.930 . S
H611 C629 0.930 . S
H612 C620 0.930 . S
H613 C627 0.931 . S
H614 C591 0.929 . S
H615 C621 0.930 . S
H616 C654 0.930 . S
H617 C598 0.930 . S
H618 C653 0.929 . S
N619 Tb588 2.660 . S
N619 C620 1.305 . S
N619 C624 1.360 . S
C620 H612 0.930 . S
C620 N619 1.305 . S
C620 C623 1.407 . S
C621 H615 0.930 . S
C621 C622 1.410 . S
C621 C623 1.345 . S
C622 C621 1.410 . S
C622 C624 1.417 . S
C622 C654 1.432 . S
C623 H609 0.930 . S
C623 C620 1.407 . S
C623 C621 1.345 . S
C624 N619 1.360 . S
C624 C622 1.417 . S
C624 C628 1.432 . S
H625 C630 0.930 . S
N626 Tb588 2.600 . S
N626 C628 1.359 . S
N626 C629 1.327 . S
C627 H613 0.931 . S
C627 C629 1.392 . S
C627 C630 1.370 . S
C628 C624 1.432 . S
C628 N626 1.359 . S
C628 C631 1.414 . S
C629 H611 0.930 . S
C629 N626 1.327 . S
C629 C627 1.392 . S
C630 H625 0.930 . S
C630 C627 1.370 . S
C630 C631 1.385 . S
C631 C628 1.414 . S
C631 C630 1.385 . S
C631 C653 1.444 . S
O632 Tb588 2.546 1_655 S
O632 C652 1.251 . S
O633 Tb588 2.610 . S
O633 Tb599 2.362 . S
O633 C644 1.283 1_455 S
O634 Tb599 2.421 . S
O634 C651 1.262 . S
O635 Tb588 2.320 . S
O635 C651 1.260 . S
O636 Tb588 2.552 1_655 S
O636 C644 1.243 . S
O637 Tb588 2.413 1_655 S
O637 C652 1.256 . S
O638 Tb599 2.546 . S
O638 C663 1.251 . S
O639 Tb588 2.362 . S
O639 Tb599 2.610 . S
O639 C655 1.283 . S
O640 Tb588 2.421 . S
O640 C662 1.262 . S
O641 Tb599 2.320 . S
O641 C662 1.260 . S
O642 Tb599 2.552 . S
O642 C655 1.243 . S
O643 Tb599 2.413 . S
O643 C663 1.256 . S
C644 O633 1.283 1_655 S
C644 O636 1.243 . S
C645 C647 1.382 . S
C645 C649 1.393 . S
C645 C652 1.500 . S
C646 C647 1.400 . S
C646 C648 1.384 . S
C647 C645 1.382 . S
C647 C646 1.400 . S
C647 H664 0.930 . S
C648 C646 1.384 . S
C648 C650 1.392 . S
C648 H665 0.931 . S
C649 C645 1.393 . S
C649 C650 1.401 . S
C649 H666 0.930 . S
C650 C648 1.392 . S
C650 C649 1.401 . S
C650 H667 0.930 . S
C651 O634 1.262 . S
C651 O635 1.260 . S
C652 Tb588 2.833 1_655 S
C652 O632 1.251 . S
C652 O637 1.256 . S
C652 C645 1.500 . S
C653 H618 0.929 . S
C653 C631 1.444 . S
C653 C654 1.317 . S
C654 H616 0.930 . S
C654 C622 1.432 . S
C654 C653 1.317 . S
C655 O639 1.283 . S
C655 O642 1.243 . S
C656 C657 1.382 . S
C656 C660 1.393 . S
C656 C663 1.500 . S
C657 C656 1.382 . S
C657 C658 1.400 . S
C657 H668 0.930 . S
C658 C657 1.400 . S
C658 C659 1.384 . S
C659 C658 1.384 . S
C659 C661 1.392 . S
C659 H669 0.931 . S
C660 C656 1.393 . S
C660 C661 1.401 . S
C660 H670 0.930 . S
C661 C659 1.392 . S
C661 C660 1.401 . S
C661 H671 0.930 . S
C662 O640 1.262 . S
C662 O641 1.260 . S
C663 Tb599 2.833 . S
C663 O638 1.251 . S
C663 O643 1.256 . S
C663 C656 1.500 . S
H664 C647 0.930 . S
H665 C648 0.931 . S
H666 C649 0.930 . S
H667 C650 0.930 . S
H668 C657 0.930 . S
H669 C659 0.931 . S
H670 C660 0.930 . S
H671 C661 0.930 . S
Tb672 N703 2.660 . S
Tb672 N710 2.600 . S
Tb672 O716 2.546 . S
Tb672 O717 2.610 . S
Tb672 O719 2.320 . S
Tb672 O720 2.552 . S
Tb672 O721 2.413 . S
Tb672 O723 2.362 . S
Tb672 O724 2.421 . S
Tb672 C736 2.833 . S
C673 C676 1.432 . S
C673 C677 1.414 . S
C673 N680 1.359 . S
C674 C676 1.417 . S
C674 C678 1.432 . S
C674 C686 1.410 . S
C675 C677 1.444 . S
C675 C678 1.317 . S
C675 H698 0.929 . S
C676 C673 1.432 . S
C676 C674 1.417 . S
C676 N684 1.360 . S
C677 C673 1.414 . S
C677 C675 1.444 . S
C677 C682 1.385 . S
C678 C674 1.432 . S
C678 C675 1.317 . S
C678 H690 0.930 . S
C679 C681 1.392 . S
C679 C682 1.370 . S
C679 H691 0.931 . S
N680 C673 1.359 . S
N680 C681 1.327 . S
N680 Tb683 2.600 . S
C681 C679 1.392 . S
C681 N680 1.327 . S
C681 H688 0.930 . S
C682 C677 1.385 . S
C682 C679 1.370 . S
C682 H701 0.930 . S
Tb683 N680 2.600 . S
Tb683 N684 2.660 . S
Tb683 O717 2.362 . S
Tb683 O718 2.421 . S
Tb683 O722 2.546 . S
Tb683 O723 2.610 . S
Tb683 O725 2.320 . S
Tb683 O726 2.552 . S
Tb683 O727 2.413 . S
Tb683 C747 2.833 . S
N684 C676 1.360 . S
N684 Tb683 2.660 . S
N684 C685 1.305 . S
C685 N684 1.305 . S
C685 C687 1.407 . S
C685 H692 0.930 . S
C686 C674 1.410 . S
C686 C687 1.345 . S
C686 H694 0.930 . S
C687 C685 1.407 . S
C687 C686 1.345 . S
C687 H689 0.930 . S
H688 C681 0.930 . S
H689 C687 0.930 . S
H690 C678 0.930 . S
H691 C679 0.931 . S
H692 C685 0.930 . S
H693 C707 0.930 . S
H694 C686 0.930 . S
H695 C713 0.930 . S
H696 C704 0.930 . S
H697 C711 0.931 . S
H698 C675 0.929 . S
H699 C705 0.930 . S
H700 C738 0.930 . S
H701 C682 0.930 . S
H702 C737 0.929 . S
N703 Tb672 2.660 . S
N703 C704 1.305 . S
N703 C708 1.360 . S
C704 H696 0.930 . S
C704 N703 1.305 . S
C704 C707 1.407 . S
C705 H699 0.930 . S
C705 C706 1.410 . S
C705 C707 1.345 . S
C706 C705 1.410 . S
C706 C708 1.417 . S
C706 C738 1.432 . S
C707 H693 0.930 . S
C707 C704 1.407 . S
C707 C705 1.345 . S
C708 N703 1.360 . S
C708 C706 1.417 . S
C708 C712 1.432 . S
H709 C714 0.930 . S
N710 Tb672 2.600 . S
N710 C712 1.359 . S
N710 C713 1.327 . S
C711 H697 0.931 . S
C711 C713 1.392 . S
C711 C714 1.370 . S
C712 C708 1.432 . S
C712 N710 1.359 . S
C712 C715 1.414 . S
C713 H695 0.930 . S
C713 N710 1.327 . S
C713 C711 1.392 . S
C714 H709 0.930 . S
C714 C711 1.370 . S
C714 C715 1.385 . S
C715 C712 1.414 . S
C715 C714 1.385 . S
C715 C737 1.444 . S
O716 Tb672 2.546 . S
O716 C736 1.251 . S
O717 Tb672 2.610 . S
O717 Tb683 2.362 . S
O717 C728 1.283 . S
O718 Tb683 2.421 . S
O718 C735 1.262 . S
O719 Tb672 2.320 . S
O719 C735 1.260 . S
O720 Tb672 2.552 . S
O720 C728 1.243 . S
O721 Tb672 2.413 . S
O721 C736 1.256 . S
O722 Tb683 2.546 . S
O722 C747 1.251 . S
O723 Tb672 2.362 . S
O723 Tb683 2.610 . S
O723 C739 1.283 . S
O724 Tb672 2.421 . S
O724 C746 1.262 . S
O725 Tb683 2.320 . S
O725 C746 1.260 . S
O726 Tb683 2.552 . S
O726 C739 1.243 . S
O727 Tb683 2.413 . S
O727 C747 1.256 . S
C728 O717 1.283 . S
C728 O720 1.243 . S
C729 C731 1.382 . S
C729 C733 1.393 . S
C729 C736 1.500 . S
C730 C731 1.400 . S
C730 C732 1.384 . S
C731 C729 1.382 . S
C731 C730 1.400 . S
C731 H748 0.930 . S
C732 C730 1.384 . S
C732 C734 1.392 . S
C732 H749 0.931 . S
C733 C729 1.393 . S
C733 C734 1.401 . S
C733 H750 0.930 . S
C734 C732 1.392 . S
C734 C733 1.401 . S
C734 H751 0.930 . S
C735 O718 1.262 . S
C735 O719 1.260 . S
C736 Tb672 2.833 . S
C736 O716 1.251 . S
C736 O721 1.256 . S
C736 C729 1.500 . S
C737 H702 0.929 . S
C737 C715 1.444 . S
C737 C738 1.317 . S
C738 H700 0.930 . S
C738 C706 1.432 . S
C738 C737 1.317 . S
C739 O723 1.283 . S
C739 O726 1.243 . S
C740 C741 1.382 . S
C740 C744 1.393 . S
C740 C747 1.500 . S
C741 C740 1.382 . S
C741 C742 1.400 . S
C741 H752 0.930 . S
C742 C741 1.400 . S
C742 C743 1.384 . S
C743 C742 1.384 . S
C743 C745 1.392 . S
C743 H753 0.931 . S
C744 C740 1.393 . S
C744 C745 1.401 . S
C744 H754 0.930 . S
C745 C743 1.392 . S
C745 C744 1.401 . S
C745 H755 0.930 . S
C746 O724 1.262 . S
C746 O725 1.260 . S
C747 Tb683 2.833 . S
C747 O722 1.251 . S
C747 O727 1.256 . S
C747 C740 1.500 . S
H748 C731 0.930 . S
H749 C732 0.931 . S
H750 C733 0.930 . S
H751 C734 0.930 . S
H752 C741 0.930 . S
H753 C743 0.931 . S
H754 C744 0.930 . S
H755 C745 0.930 . S
Tb756 N787 2.660 . S
Tb756 N794 2.600 . S
Tb756 O800 2.546 . S
Tb756 O801 2.610 . S
Tb756 O803 2.320 . S
Tb756 O804 2.552 . S
Tb756 O805 2.413 . S
Tb756 O807 2.362 1_455 S
Tb756 O808 2.421 . S
Tb756 C820 2.833 . S
C757 C760 1.432 . S
C757 C761 1.414 . S
C757 N764 1.359 . S
C758 C760 1.417 . S
C758 C762 1.432 . S
C758 C770 1.410 . S
C759 C761 1.444 . S
C759 C762 1.317 . S
C759 H782 0.929 . S
C760 C757 1.432 . S
C760 C758 1.417 . S
C760 N768 1.360 . S
C761 C757 1.414 . S
C761 C759 1.444 . S
C761 C766 1.385 . S
C762 C758 1.432 . S
C762 C759 1.317 . S
C762 H774 0.930 . S
C763 C765 1.392 1_455 S
C763 C766 1.370 . S
C763 H775 0.931 1_455 S
N764 C757 1.359 . S
N764 C765 1.327 1_455 S
N764 Tb767 2.600 1_455 S
C765 C763 1.392 1_655 S
C765 N764 1.327 1_655 S
C765 H772 0.930 . S
C766 C761 1.385 . S
C766 C763 1.370 . S
C766 H785 0.930 . S
Tb767 N764 2.600 1_655 S
Tb767 N768 2.660 1_655 S
Tb767 O801 2.362 1_655 S
Tb767 O802 2.421 1_655 S
Tb767 O806 2.546 . S
Tb767 O807 2.610 . S
Tb767 O809 2.320 . S
Tb767 O810 2.552 . S
Tb767 O811 2.413 . S
Tb767 C831 2.833 . S
N768 C760 1.360 . S
N768 Tb767 2.660 1_455 S
N768 C769 1.305 . S
C769 N768 1.305 . S
C769 C771 1.407 . S
C769 H776 0.930 . S
C770 C758 1.410 . S
C770 C771 1.345 . S
C770 H778 0.930 . S
C771 C769 1.407 . S
C771 C770 1.345 . S
C771 H773 0.930 . S
H772 C765 0.930 . S
H773 C771 0.930 . S
H774 C762 0.930 . S
H775 C763 0.931 1_655 S
H776 C769 0.930 . S
H777 C791 0.930 . S
H778 C770 0.930 . S
H779 C797 0.930 . S
H780 C788 0.930 1_455 S
H781 C795 0.931 . S
H782 C759 0.929 . S
H783 C789 0.930 . S
H784 C822 0.930 . S
H785 C766 0.930 . S
H786 C821 0.929 . S
N787 Tb756 2.660 . S
N787 C788 1.305 1_455 S
N787 C792 1.360 1_455 S
C788 H780 0.930 1_655 S
C788 N787 1.305 1_655 S
C788 C791 1.407 . S
C789 H783 0.930 . S
C789 C790 1.410 . S
C789 C791 1.345 . S
C790 C789 1.410 . S
C790 C792 1.417 . S
C790 C822 1.432 . S
C791 H777 0.930 . S
C791 C788 1.407 . S
C791 C789 1.345 . S
C792 N787 1.360 1_655 S
C792 C790 1.417 . S
C792 C796 1.432 1_655 S
H793 C798 0.925 . S
N794 Tb756 2.600 . S
N794 C796 1.359 . S
N794 C797 1.327 . S
C795 H781 0.931 . S
C795 C797 1.392 . S
C795 C798 1.370 . S
C796 C792 1.432 1_455 S
C796 N794 1.359 . S
C796 C799 1.414 1_455 S
C797 H779 0.930 . S
C797 N794 1.327 . S
C797 C795 1.392 . S
C798 H793 0.925 . S
C798 C795 1.370 . S
C798 C799 1.385 1_455 S
C799 C796 1.414 1_655 S
C799 C798 1.385 1_655 S
C799 C821 1.444 . S
O800 Tb756 2.546 . S
O800 C820 1.251 . S
O801 Tb756 2.610 . S
O801 Tb767 2.362 1_455 S
O801 C812 1.283 . S
O802 Tb767 2.421 1_455 S
O802 C819 1.262 . S
O803 Tb756 2.320 . S
O803 C819 1.260 . S
O804 Tb756 2.552 . S
O804 C812 1.243 . S
O805 Tb756 2.413 . S
O805 C820 1.256 . S
O806 Tb767 2.546 . S
O806 C831 1.251 . S
O807 Tb756 2.362 1_655 S
O807 Tb767 2.610 . S
O807 C823 1.283 . S
O808 Tb756 2.421 . S
O808 C830 1.262 1_455 S
O809 Tb767 2.320 . S
O809 C830 1.260 . S
O810 Tb767 2.552 . S
O810 C823 1.243 . S
O811 Tb767 2.413 . S
O811 C831 1.256 . S
C812 O801 1.283 . S
C812 O804 1.243 . S
C813 C815 1.382 . S
C813 C817 1.393 . S
C813 C820 1.500 . S
C814 C815 1.400 . S
C814 C816 1.384 . S
C815 C813 1.382 . S
C815 C814 1.400 . S
C815 H832 0.930 . S
C816 C814 1.384 . S
C816 C818 1.392 . S
C816 H833 0.931 . S
C817 C813 1.393 . S
C817 C818 1.401 . S
C817 H834 0.930 . S
C818 C816 1.392 . S
C818 C817 1.401 . S
C818 H835 0.930 . S
C819 O802 1.262 . S
C819 O803 1.260 . S
C820 Tb756 2.833 . S
C820 O800 1.251 . S
C820 O805 1.256 . S
C820 C813 1.500 . S
C821 H786 0.929 . S
C821 C799 1.444 . S
C821 C822 1.317 . S
C822 H784 0.930 . S
C822 C790 1.432 . S
C822 C821 1.317 . S
C823 O807 1.283 . S
C823 O810 1.243 . S
C824 C825 1.382 . S
C824 C828 1.393 . S
C824 C831 1.500 . S
C825 C824 1.382 . S
C825 C826 1.400 . S
C825 H836 0.930 . S
C826 C825 1.400 . S
C826 C827 1.384 . S
C827 C826 1.384 . S
C827 C829 1.392 . S
C827 H837 0.931 . S
C828 C824 1.393 . S
C828 C829 1.401 . S
C828 H838 0.930 . S
C829 C827 1.392 . S
C829 C828 1.401 . S
C829 H839 0.930 . S
C830 O808 1.262 1_655 S
C830 O809 1.260 . S
C831 Tb767 2.833 . S
C831 O806 1.251 . S
C831 O811 1.256 . S
C831 C824 1.500 . S
H832 C815 0.930 . S
H833 C816 0.931 . S
H834 C817 0.930 . S
H835 C818 0.930 . S
H836 C825 0.930 . S
H837 C827 0.931 . S
H838 C828 0.930 . S
H839 C829 0.930 . S
Tb840 N871 2.660 . S
Tb840 N878 2.600 . S
Tb840 O884 2.546 . S
Tb840 O885 2.610 . S
Tb840 O887 2.320 . S
Tb840 O888 2.552 . S
Tb840 O889 2.413 . S
Tb840 O891 2.362 . S
Tb840 O892 2.421 . S
Tb840 C904 2.833 . S
C841 C844 1.432 . S
C841 C845 1.414 . S
C841 N848 1.359 . S
C842 C844 1.417 . S
C842 C846 1.432 . S
C842 C854 1.410 . S
C843 C845 1.444 . S
C843 C846 1.317 . S
C843 H866 0.929 . S
C844 C841 1.432 . S
C844 C842 1.417 . S
C844 N852 1.360 . S
C845 C841 1.414 . S
C845 C843 1.444 . S
C845 C850 1.385 . S
C846 C842 1.432 . S
C846 C843 1.317 . S
C846 H858 0.930 . S
C847 C849 1.392 . S
C847 C850 1.370 . S
C847 H859 0.931 . S
N848 C841 1.359 . S
N848 C849 1.327 . S
N848 Tb851 2.600 . S
C849 C847 1.392 . S
C849 N848 1.327 . S
C849 H856 0.930 . S
C850 C845 1.385 . S
C850 C847 1.370 . S
C850 H869 0.930 . S
Tb851 N848 2.600 . S
Tb851 N852 2.660 . S
Tb851 O885 2.362 . S
Tb851 O886 2.421 . S
Tb851 O890 2.546 . S
Tb851 O891 2.610 . S
Tb851 O893 2.320 . S
Tb851 O894 2.552 . S
Tb851 O895 2.413 . S
Tb851 C915 2.833 . S
N852 C844 1.360 . S
N852 Tb851 2.660 . S
N852 C853 1.305 . S
C853 N852 1.305 . S
C853 C855 1.407 . S
C853 H860 0.930 . S
C854 C842 1.410 . S
C854 C855 1.345 . S
C854 H862 0.930 . S
C855 C853 1.407 . S
C855 C854 1.345 . S
C855 H857 0.930 . S
H856 C849 0.930 . S
H857 C855 0.930 . S
H858 C846 0.930 . S
H859 C847 0.931 . S
H860 C853 0.930 . S
H861 C875 0.930 . S
H862 C854 0.930 . S
H863 C881 0.930 . S
H864 C872 0.930 . S
H865 C879 0.931 . S
H866 C843 0.929 . S
H867 C873 0.930 . S
H868 C906 0.930 . S
H869 C850 0.930 . S
H870 C905 0.929 . S
N871 Tb840 2.660 . S
N871 C872 1.305 . S
N871 C876 1.360 . S
C872 H864 0.930 . S
C872 N871 1.305 . S
C872 C875 1.407 . S
C873 H867 0.930 . S
C873 C874 1.410 . S
C873 C875 1.345 . S
C874 C873 1.410 . S
C874 C876 1.417 . S
C874 C906 1.432 . S
C875 H861 0.930 . S
C875 C872 1.407 . S
C875 C873 1.345 . S
C876 N871 1.360 . S
C876 C874 1.417 . S
C876 C880 1.432 . S
H877 C882 0.930 . S
N878 Tb840 2.600 . S
N878 C880 1.359 . S
N878 C881 1.327 . S
C879 H865 0.931 . S
C879 C881 1.392 . S
C879 C882 1.370 . S
C880 C876 1.432 . S
C880 N878 1.359 . S
C880 C883 1.414 . S
C881 H863 0.930 . S
C881 N878 1.327 . S
C881 C879 1.392 . S
C882 H877 0.930 . S
C882 C879 1.370 . S
C882 C883 1.385 . S
C883 C880 1.414 . S
C883 C882 1.385 . S
C883 C905 1.444 . S
O884 Tb840 2.546 . S
O884 C904 1.251 . S
O885 Tb840 2.610 . S
O885 Tb851 2.362 . S
O885 C896 1.283 . S
O886 Tb851 2.421 . S
O886 C903 1.262 . S
O887 Tb840 2.320 . S
O887 C903 1.260 . S
O888 Tb840 2.552 . S
O888 C896 1.243 . S
O889 Tb840 2.413 . S
O889 C904 1.256 . S
O890 Tb851 2.546 . S
O890 C915 1.251 . S
O891 Tb840 2.362 . S
O891 Tb851 2.610 . S
O891 C907 1.283 . S
O892 Tb840 2.421 . S
O892 C914 1.262 . S
O893 Tb851 2.320 . S
O893 C914 1.260 . S
O894 Tb851 2.552 . S
O894 C907 1.243 . S
O895 Tb851 2.413 . S
O895 C915 1.256 . S
C896 O885 1.283 . S
C896 O888 1.243 . S
C897 C899 1.382 . S
C897 C901 1.393 . S
C897 C904 1.500 . S
C898 C899 1.400 . S
C898 C900 1.384 . S
C899 C897 1.382 . S
C899 C898 1.400 . S
C899 H916 0.930 . S
C900 C898 1.384 . S
C900 C902 1.392 . S
C900 H917 0.931 . S
C901 C897 1.393 . S
C901 C902 1.401 . S
C901 H918 0.930 . S
C902 C900 1.392 . S
C902 C901 1.401 . S
C902 H919 0.930 . S
C903 O886 1.262 . S
C903 O887 1.260 . S
C904 Tb840 2.833 . S
C904 O884 1.251 . S
C904 O889 1.256 . S
C904 C897 1.500 . S
C905 H870 0.929 . S
C905 C883 1.444 . S
C905 C906 1.317 . S
C906 H868 0.930 . S
C906 C874 1.432 . S
C906 C905 1.317 . S
C907 O891 1.283 . S
C907 O894 1.243 . S
C908 C909 1.382 . S
C908 C912 1.393 . S
C908 C915 1.500 . S
C909 C908 1.382 . S
C909 C910 1.400 . S
C909 H920 0.930 . S
C910 C909 1.400 . S
C910 C911 1.384 . S
C911 C910 1.384 . S
C911 C913 1.392 . S
C911 H921 0.931 . S
C912 C908 1.393 . S
C912 C913 1.401 . S
C912 H922 0.930 . S
C913 C911 1.392 . S
C913 C912 1.401 . S
C913 H923 0.930 . S
C914 O892 1.262 . S
C914 O893 1.260 . S
C915 Tb851 2.833 . S
C915 O890 1.251 . S
C915 O895 1.256 . S
C915 C908 1.500 . S
H916 C899 0.930 . S
H917 C900 0.931 . S
H918 C901 0.930 . S
H919 C902 0.930 . S
H920 C909 0.930 . S
H921 C911 0.931 . S
H922 C912 0.930 . S
H923 C913 0.930 . S
Tb924 N955 2.660 . S
Tb924 N962 2.600 . S
Tb924 O968 2.546 1_545 S
Tb924 O969 2.610 . S
Tb924 O971 2.320 . S
Tb924 O972 2.552 1_545 S
Tb924 O973 2.413 1_545 S
Tb924 O975 2.362 . S
Tb924 O976 2.421 . S
Tb924 C988 2.833 1_545 S
C925 C928 1.432 . S
C925 C929 1.414 . S
C925 N932 1.359 . S
C926 C928 1.417 . S
C926 C930 1.432 1_545 S
C926 C938 1.410 1_545 S
C927 C929 1.444 . S
C927 C930 1.317 1_545 S
C927 H950 0.929 . S
C928 C925 1.432 . S
C928 C926 1.417 . S
C928 N936 1.360 . S
C929 C925 1.414 . S
C929 C927 1.444 . S
C929 C934 1.385 . S
C930 C926 1.432 1_565 S
C930 C927 1.317 1_565 S
C930 H942 0.930 . S
C931 C933 1.392 . S
C931 C934 1.370 . S
C931 H943 0.931 . S
N932 C925 1.359 . S
N932 C933 1.327 . S
N932 Tb935 2.600 . S
C933 C931 1.392 . S
C933 N932 1.327 . S
C933 H940 0.930 . S
C934 C929 1.385 . S
C934 C931 1.370 . S
C934 H953 0.930 . S
Tb935 N932 2.600 . S
Tb935 N936 2.660 . S
Tb935 O969 2.362 . S
Tb935 O970 2.421 . S
Tb935 O974 2.546 . S
Tb935 O975 2.610 . S
Tb935 O977 2.320 . S
Tb935 O978 2.552 . S
Tb935 O979 2.413 . S
Tb935 C999 2.833 . S
N936 C928 1.360 . S
N936 Tb935 2.660 . S
N936 C937 1.305 . S
C937 N936 1.305 . S
C937 C939 1.407 . S
C937 H944 0.930 . S
C938 C926 1.410 1_565 S
C938 C939 1.345 1_565 S
C938 H946 0.930 . S
C939 C937 1.407 . S
C939 C938 1.345 1_545 S
C939 H941 0.930 . S
H940 C933 0.930 . S
H941 C939 0.930 . S
H942 C930 0.930 . S
H943 C931 0.931 . S
H944 C937 0.930 . S
H945 C959 0.930 . S
H946 C938 0.930 . S
H947 C965 0.930 . S
H948 C956 0.930 . S
H949 C963 0.931 . S
H950 C927 0.929 . S
H951 C957 0.930 . S
H952 C990 0.930 . S
H953 C934 0.930 . S
H954 C989 0.929 . S
N955 Tb924 2.660 . S
N955 C956 1.305 . S
N955 C960 1.360 . S
C956 H948 0.930 . S
C956 N955 1.305 . S
C956 C959 1.407 . S
C957 H951 0.930 . S
C957 C958 1.410 . S
C957 C959 1.345 . S
C958 C957 1.410 . S
C958 C960 1.417 . S
C958 C990 1.432 . S
C959 H945 0.930 . S
C959 C956 1.407 . S
C959 C957 1.345 . S
C960 N955 1.360 . S
C960 C958 1.417 . S
C960 C964 1.432 . S
H961 C966 0.930 . S
N962 Tb924 2.600 . S
N962 C964 1.359 . S
N962 C965 1.327 . S
C963 H949 0.931 . S
C963 C965 1.392 . S
C963 C966 1.370 . S
C964 C960 1.432 . S
C964 N962 1.359 . S
C964 C967 1.414 . S
C965 H947 0.930 . S
C965 N962 1.327 . S
C965 C963 1.392 . S
C966 H961 0.930 . S
C966 C963 1.370 . S
C966 C967 1.385 . S
C967 C964 1.414 . S
C967 C966 1.385 . S
C967 C989 1.444 . S
O968 Tb924 2.546 1_565 S
O968 C988 1.251 . S
O969 Tb924 2.610 . S
O969 Tb935 2.362 . S
O969 C980 1.283 1_545 S
O970 Tb935 2.421 . S
O970 C987 1.262 . S
O971 Tb924 2.320 . S
O971 C987 1.260 . S
O972 Tb924 2.552 1_565 S
O972 C980 1.243 . S
O973 Tb924 2.413 1_565 S
O973 C988 1.256 . S
O974 Tb935 2.546 . S
O974 C999 1.251 . S
O975 Tb924 2.362 . S
O975 Tb935 2.610 . S
O975 C991 1.283 . S
O976 Tb924 2.421 . S
O976 C998 1.262 . S
O977 Tb935 2.320 . S
O977 C998 1.260 . S
O978 Tb935 2.552 . S
O978 C991 1.243 . S
O979 Tb935 2.413 . S
O979 C999 1.256 . S
C980 O969 1.283 1_565 S
C980 O972 1.243 . S
C981 C983 1.382 . S
C981 C985 1.393 . S
C981 C988 1.500 . S
C982 C983 1.400 . S
C982 C984 1.384 . S
C983 C981 1.382 . S
C983 C982 1.400 . S
C983 H1000 0.930 . S
C984 C982 1.384 . S
C984 C986 1.392 . S
C984 H1001 0.931 . S
C985 C981 1.393 . S
C985 C986 1.401 . S
C985 H1002 0.930 . S
C986 C984 1.392 . S
C986 C985 1.401 . S
C986 H1003 0.930 . S
C987 O970 1.262 . S
C987 O971 1.260 . S
C988 Tb924 2.833 1_565 S
C988 O968 1.251 . S
C988 O973 1.256 . S
C988 C981 1.500 . S
C989 H954 0.929 . S
C989 C967 1.444 . S
C989 C990 1.317 . S
C990 H952 0.930 . S
C990 C958 1.432 . S
C990 C989 1.317 . S
C991 O975 1.283 . S
C991 O978 1.243 . S
C992 C993 1.382 . S
C992 C996 1.393 . S
C992 C999 1.500 . S
C993 C992 1.382 . S
C993 C994 1.400 . S
C993 H1004 0.930 . S
C994 C993 1.400 . S
C994 C995 1.384 . S
C995 C994 1.384 . S
C995 C997 1.392 . S
C995 H1005 0.931 . S
C996 C992 1.393 . S
C996 C997 1.401 . S
C996 H1006 0.930 . S
C997 C995 1.392 . S
C997 C996 1.401 . S
C997 H1007 0.930 . S
C998 O976 1.262 . S
C998 O977 1.260 . S
C999 Tb935 2.833 . S
C999 O974 1.251 . S
C999 O979 1.256 . S
C999 C992 1.500 . S
H1000 C983 0.930 . S
H1001 C984 0.931 . S
H1002 C985 0.930 . S
H1003 C986 0.930 . S
H1004 C993 0.930 . S
H1005 C995 0.931 . S
H1006 C996 0.930 . S
H1007 C997 0.930 . S
Tb1008 N1039 2.660 . S
Tb1008 N1046 2.600 . S
Tb1008 O1052 2.546 . S
Tb1008 O1053 2.610 . S
Tb1008 O1055 2.320 . S
Tb1008 O1056 2.552 . S
Tb1008 O1057 2.413 . S
Tb1008 O1059 2.362 . S
Tb1008 O1060 2.421 . S
Tb1008 C1072 2.833 . S
C1009 C1012 1.432 . S
C1009 C1013 1.414 . S
C1009 N1016 1.359 . S
C1010 C1012 1.417 . S
C1010 C1014 1.432 . S
C1010 C1022 1.410 . S
C1011 C1013 1.444 . S
C1011 C1014 1.317 . S
C1011 H1034 0.929 . S
C1012 C1009 1.432 . S
C1012 C1010 1.417 . S
C1012 N1020 1.360 . S
C1013 C1009 1.414 . S
C1013 C1011 1.444 . S
C1013 C1018 1.385 . S
C1014 C1010 1.432 . S
C1014 C1011 1.317 . S
C1014 H1026 0.930 . S
C1015 C1017 1.392 . S
C1015 C1018 1.370 . S
C1015 H1027 0.931 . S
N1016 C1009 1.359 . S
N1016 C1017 1.327 . S
N1016 Tb1019 2.600 . S
C1017 C1015 1.392 . S
C1017 N1016 1.327 . S
C1017 H1024 0.930 . S
C1018 C1013 1.385 . S
C1018 C1015 1.370 . S
C1018 H1037 0.930 . S
Tb1019 N1016 2.600 . S
Tb1019 N1020 2.660 . S
Tb1019 O1053 2.362 . S
Tb1019 O1054 2.421 . S
Tb1019 O1058 2.546 . S
Tb1019 O1059 2.610 . S
Tb1019 O1061 2.320 . S
Tb1019 O1062 2.552 . S
Tb1019 O1063 2.413 . S
Tb1019 C1083 2.833 . S
N1020 C1012 1.360 . S
N1020 Tb1019 2.660 . S
N1020 C1021 1.305 . S
C1021 N1020 1.305 . S
C1021 C1023 1.407 . S
C1021 H1028 0.930 . S
C1022 C1010 1.410 . S
C1022 C1023 1.345 . S
C1022 H1030 0.930 . S
C1023 C1021 1.407 . S
C1023 C1022 1.345 . S
C1023 H1025 0.930 . S
H1024 C1017 0.930 . S
H1025 C1023 0.930 . S
H1026 C1014 0.930 . S
H1027 C1015 0.931 . S
H1028 C1021 0.930 . S
H1029 C1043 0.930 . S
H1030 C1022 0.930 . S
H1031 C1049 0.930 . S
H1032 C1040 0.930 . S
H1033 C1047 0.931 . S
H1034 C1011 0.929 . S
H1035 C1041 0.930 . S
H1036 C1074 0.930 . S
H1037 C1018 0.930 . S
H1038 C1073 0.929 . S
N1039 Tb1008 2.660 . S
N1039 C1040 1.305 . S
N1039 C1044 1.360 . S
C1040 H1032 0.930 . S
C1040 N1039 1.305 . S
C1040 C1043 1.407 . S
C1041 H1035 0.930 . S
C1041 C1042 1.410 1_655 S
C1041 C1043 1.345 1_655 S
C1042 C1041 1.410 1_455 S
C1042 C1044 1.417 . S
C1042 C1074 1.432 1_455 S
C1043 H1029 0.930 . S
C1043 C1040 1.407 . S
C1043 C1041 1.345 1_455 S
C1044 N1039 1.360 . S
C1044 C1042 1.417 . S
C1044 C1048 1.432 . S
H1045 C1050 0.930 . S
N1046 Tb1008 2.600 . S
N1046 C1048 1.359 . S
N1046 C1049 1.327 . S
C1047 H1033 0.931 . S
C1047 C1049 1.392 . S
C1047 C1050 1.370 . S
C1048 C1044 1.432 . S
C1048 N1046 1.359 . S
C1048 C1051 1.414 . S
C1049 H1031 0.930 . S
C1049 N1046 1.327 . S
C1049 C1047 1.392 . S
C1050 H1045 0.930 . S
C1050 C1047 1.370 . S
C1050 C1051 1.385 . S
C1051 C1048 1.414 . S
C1051 C1050 1.385 . S
C1051 C1073 1.444 1_455 S
O1052 Tb1008 2.546 . S
O1052 C1072 1.251 . S
O1053 Tb1008 2.610 . S
O1053 Tb1019 2.362 . S
O1053 C1064 1.283 . S
O1054 Tb1019 2.421 . S
O1054 C1071 1.262 . S
O1055 Tb1008 2.320 . S
O1055 C1071 1.260 . S
O1056 Tb1008 2.552 . S
O1056 C1064 1.243 . S
O1057 Tb1008 2.413 . S
O1057 C1072 1.256 . S
O1058 Tb1019 2.546 . S
O1058 C1083 1.251 . S
O1059 Tb1008 2.362 . S
O1059 Tb1019 2.610 . S
O1059 C1075 1.283 . S
O1060 Tb1008 2.421 . S
O1060 C1082 1.262 . S
O1061 Tb1019 2.320 . S
O1061 C1082 1.260 . S
O1062 Tb1019 2.552 . S
O1062 C1075 1.243 . S
O1063 Tb1019 2.413 . S
O1063 C1083 1.256 . S
C1064 O1053 1.283 . S
C1064 O1056 1.243 . S
C1065 C1067 1.382 . S
C1065 C1069 1.393 . S
C1065 C1072 1.500 . S
C1066 C1067 1.400 . S
C1066 C1068 1.384 . S
C1067 C1065 1.382 . S
C1067 C1066 1.400 . S
C1067 H1084 0.930 . S
C1068 C1066 1.384 . S
C1068 C1070 1.392 . S
C1068 H1085 0.931 . S
C1069 C1065 1.393 . S
C1069 C1070 1.401 . S
C1069 H1086 0.930 . S
C1070 C1068 1.392 . S
C1070 C1069 1.401 . S
C1070 H1087 0.930 . S
C1071 O1054 1.262 . S
C1071 O1055 1.260 . S
C1072 Tb1008 2.833 . S
C1072 O1052 1.251 . S
C1072 O1057 1.256 . S
C1072 C1065 1.500 . S
C1073 H1038 0.929 . S
C1073 C1051 1.444 1_655 S
C1073 C1074 1.317 . S
C1074 H1036 0.930 . S
C1074 C1042 1.432 1_655 S
C1074 C1073 1.317 . S
C1075 O1059 1.283 . S
C1075 O1062 1.243 . S
C1076 C1077 1.382 . S
C1076 C1080 1.393 . S
C1076 C1083 1.500 . S
C1077 C1076 1.382 . S
C1077 C1078 1.400 . S
C1077 H1088 0.930 . S
C1078 C1077 1.400 . S
C1078 C1079 1.384 . S
C1079 C1078 1.384 . S
C1079 C1081 1.392 . S
C1079 H1089 0.931 . S
C1080 C1076 1.393 . S
C1080 C1081 1.401 . S
C1080 H1090 0.930 . S
C1081 C1079 1.392 . S
C1081 C1080 1.401 . S
C1081 H1091 0.930 . S
C1082 O1060 1.262 . S
C1082 O1061 1.260 . S
C1083 Tb1019 2.833 . S
C1083 O1058 1.251 . S
C1083 O1063 1.256 . S
C1083 C1076 1.500 . S
H1084 C1067 0.930 . S
H1085 C1068 0.931 . S
H1086 C1069 0.930 . S
H1087 C1070 0.930 . S
H1088 C1077 0.930 . S
H1089 C1079 0.931 . S
H1090 C1080 0.930 . S
H1091 C1081 0.930 . S
Tb1092 N1123 2.660 . S
Tb1092 N1130 2.600 . S
Tb1092 O1136 2.546 . S
Tb1092 O1137 2.610 . S
Tb1092 O1139 2.320 . S
Tb1092 O1140 2.552 . S
Tb1092 O1141 2.413 . S
Tb1092 O1143 2.362 . S
Tb1092 O1144 2.421 . S
Tb1092 C1156 2.833 . S
C1093 C1096 1.432 . S
C1093 C1097 1.414 . S
C1093 N1100 1.359 . S
C1094 C1096 1.417 . S
C1094 C1098 1.432 1_565 S
C1094 C1106 1.410 . S
C1095 C1097 1.464 . S
C1095 C1098 1.312 1_565 S
C1095 H1118 0.915 1_565 S
C1096 C1093 1.432 . S
C1096 C1094 1.417 . S
C1096 N1104 1.360 . S
C1097 C1093 1.414 . S
C1097 C1095 1.464 . S
C1097 C1102 1.385 . S
C1098 C1094 1.432 1_545 S
C1098 C1095 1.312 1_545 S
C1098 H1110 0.930 . S
C1099 C1101 1.392 . S
C1099 C1102 1.370 . S
C1099 H1111 0.931 . S
N1100 C1093 1.359 . S
N1100 C1101 1.327 . S
N1100 Tb1103 2.600 . S
C1101 C1099 1.392 . S
C1101 N1100 1.327 . S
C1101 H1108 0.930 . S
C1102 C1097 1.385 . S
C1102 C1099 1.370 . S
C1102 H1121 0.930 . S
Tb1103 N1100 2.600 . S
Tb1103 N1104 2.660 . S
Tb1103 O1137 2.362 . S
Tb1103 O1138 2.421 . S
Tb1103 O1142 2.546 . S
Tb1103 O1143 2.610 . S
Tb1103 O1145 2.320 . S
Tb1103 O1146 2.552 . S
Tb1103 O1147 2.413 . S
Tb1103 C1167 2.833 . S
N1104 C1096 1.360 . S
N1104 Tb1103 2.660 . S
N1104 C1105 1.305 . S
C1105 N1104 1.305 . S
C1105 C1107 1.407 . S
C1105 H1112 0.930 . S
C1106 C1094 1.410 . S
C1106 C1107 1.345 . S
C1106 H1114 0.952 . S
C1107 C1105 1.407 . S
C1107 C1106 1.345 . S
C1107 H1109 0.930 . S
H1108 C1101 0.930 . S
H1109 C1107 0.930 . S
H1110 C1098 0.930 . S
H1111 C1099 0.931 . S
H1112 C1105 0.930 . S
H1113 C1127 0.930 . S
H1114 C1106 0.952 . S
H1115 C1133 0.930 . S
H1116 C1124 0.930 . S
H1117 C1131 0.931 . S
H1118 C1095 0.915 1_545 S
H1119 C1125 0.930 . S
H1120 C1158 0.930 . S
H1121 C1102 0.930 . S
H1122 C1157 0.929 . S
N1123 Tb1092 2.660 . S
N1123 C1124 1.305 . S
N1123 C1128 1.360 . S
C1124 H1116 0.930 . S
C1124 N1123 1.305 . S
C1124 C1127 1.407 . S
C1125 H1119 0.930 . S
C1125 C1126 1.410 . S
C1125 C1127 1.345 . S
C1126 C1125 1.410 . S
C1126 C1128 1.417 . S
C1126 C1158 1.432 . S
C1127 H1113 0.930 . S
C1127 C1124 1.407 . S
C1127 C1125 1.345 . S
C1128 N1123 1.360 . S
C1128 C1126 1.417 . S
C1128 C1132 1.432 . S
H1129 C1134 0.930 . S
N1130 Tb1092 2.600 . S
N1130 C1132 1.359 . S
N1130 C1133 1.327 . S
C1131 H1117 0.931 . S
C1131 C1133 1.392 . S
C1131 C1134 1.370 . S
C1132 C1128 1.432 . S
C1132 N1130 1.359 . S
C1132 C1135 1.414 . S
C1133 H1115 0.930 . S
C1133 N1130 1.327 . S
C1133 C1131 1.392 . S
C1134 H1129 0.930 . S
C1134 C1131 1.370 . S
C1134 C1135 1.385 . S
C1135 C1132 1.414 . S
C1135 C1134 1.385 . S
C1135 C1157 1.444 . S
O1136 Tb1092 2.546 . S
O1136 C1156 1.251 . S
O1137 Tb1092 2.610 . S
O1137 Tb1103 2.362 . S
O1137 C1148 1.283 . S
O1138 Tb1103 2.421 . S
O1138 C1155 1.262 . S
O1139 Tb1092 2.320 . S
O1139 C1155 1.260 . S
O1140 Tb1092 2.552 . S
O1140 C1148 1.243 . S
O1141 Tb1092 2.413 . S
O1141 C1156 1.256 . S
O1142 Tb1103 2.546 . S
O1142 C1167 1.251 . S
O1143 Tb1092 2.362 . S
O1143 Tb1103 2.610 . S
O1143 C1159 1.283 . S
O1144 Tb1092 2.421 . S
O1144 C1166 1.262 . S
O1145 Tb1103 2.320 . S
O1145 C1166 1.260 . S
O1146 Tb1103 2.552 . S
O1146 C1159 1.243 . S
O1147 Tb1103 2.413 . S
O1147 C1167 1.256 . S
C1148 O1137 1.283 . S
C1148 O1140 1.243 . S
C1149 C1151 1.382 . S
C1149 C1153 1.393 . S
C1149 C1156 1.500 . S
C1150 C1151 1.400 . S
C1150 C1152 1.384 . S
C1151 C1149 1.382 . S
C1151 C1150 1.400 . S
C1151 H1168 0.930 . S
C1152 C1150 1.384 . S
C1152 C1154 1.392 . S
C1152 H1169 0.931 . S
C1153 C1149 1.393 . S
C1153 C1154 1.401 . S
C1153 H1170 0.930 . S
C1154 C1152 1.392 . S
C1154 C1153 1.401 . S
C1154 H1171 0.930 . S
C1155 O1138 1.262 . S
C1155 O1139 1.260 . S
C1156 Tb1092 2.833 . S
C1156 O1136 1.251 . S
C1156 O1141 1.256 . S
C1156 C1149 1.500 . S
C1157 H1122 0.929 . S
C1157 C1135 1.444 . S
C1157 C1158 1.317 . S
C1158 H1120 0.930 . S
C1158 C1126 1.432 . S
C1158 C1157 1.317 . S
C1159 O1143 1.283 . S
C1159 O1146 1.243 . S
C1160 C1161 1.382 . S
C1160 C1164 1.393 . S
C1160 C1167 1.500 1_545 S
C1161 C1160 1.382 . S
C1161 C1162 1.400 . S
C1161 H1172 0.930 . S
C1162 C1161 1.400 . S
C1162 C1163 1.384 . S
C1163 C1162 1.384 . S
C1163 C1165 1.392 . S
C1163 H1173 0.931 . S
C1164 C1160 1.393 . S
C1164 C1165 1.401 . S
C1164 H1174 0.930 . S
C1165 C1163 1.392 . S
C1165 C1164 1.401 . S
C1165 H1175 0.930 . S
C1166 O1144 1.262 . S
C1166 O1145 1.260 . S
C1167 Tb1103 2.833 . S
C1167 O1142 1.251 . S
C1167 O1147 1.256 . S
C1167 C1160 1.500 1_565 S
H1168 C1151 0.930 . S
H1169 C1152 0.931 . S
H1170 C1153 0.930 . S
H1171 C1154 0.930 . S
H1172 C1161 0.930 . S
H1173 C1163 0.931 . S
H1174 C1164 0.930 . S
H1175 C1165 0.930 . S
Tb1176 N1207 2.660 . S
Tb1176 N1214 2.600 . S
Tb1176 O1220 2.546 . S
Tb1176 O1221 2.610 . S
Tb1176 O1223 2.320 . S
Tb1176 O1224 2.552 . S
Tb1176 O1225 2.413 . S
Tb1176 O1227 2.362 . S
Tb1176 O1228 2.421 . S
Tb1176 C1240 2.833 . S
C1177 C1180 1.432 . S
C1177 C1181 1.414 . S
C1177 N1184 1.359 . S
C1178 C1180 1.417 . S
C1178 C1182 1.432 . S
C1178 C1190 1.410 . S
C1179 C1181 1.444 . S
C1179 C1182 1.317 . S
C1179 H1202 0.929 . S
C1180 C1177 1.432 . S
C1180 C1178 1.417 . S
C1180 N1188 1.360 . S
C1181 C1177 1.414 . S
C1181 C1179 1.444 . S
C1181 C1186 1.385 . S
C1182 C1178 1.432 . S
C1182 C1179 1.317 . S
C1182 H1194 0.930 . S
C1183 C1185 1.392 . S
C1183 C1186 1.370 . S
C1183 H1195 0.931 . S
N1184 C1177 1.359 . S
N1184 C1185 1.327 . S
N1184 Tb1187 2.600 . S
C1185 C1183 1.392 . S
C1185 N1184 1.327 . S
C1185 H1192 0.930 . S
C1186 C1181 1.385 . S
C1186 C1183 1.370 . S
C1186 H1205 0.930 . S
Tb1187 N1184 2.600 . S
Tb1187 N1188 2.660 . S
Tb1187 O1221 2.362 . S
Tb1187 O1222 2.421 . S
Tb1187 O1226 2.546 . S
Tb1187 O1227 2.610 . S
Tb1187 O1229 2.320 . S
Tb1187 O1230 2.552 . S
Tb1187 O1231 2.413 . S
Tb1187 C1251 2.833 . S
N1188 C1180 1.360 . S
N1188 Tb1187 2.660 . S
N1188 C1189 1.305 . S
C1189 N1188 1.305 . S
C1189 C1191 1.407 . S
C1189 H1196 0.930 . S
C1190 C1178 1.410 . S
C1190 C1191 1.345 . S
C1190 H1198 0.930 . S
C1191 C1189 1.407 . S
C1191 C1190 1.345 . S
C1191 H1193 0.930 . S
H1192 C1185 0.930 . S
H1193 C1191 0.930 . S
H1194 C1182 0.930 . S
H1195 C1183 0.931 . S
H1196 C1189 0.930 . S
H1197 C1211 0.930 . S
H1198 C1190 0.930 . S
H1199 C1217 0.930 . S
H1200 C1208 0.930 . S
H1201 C1215 0.931 . S
H1202 C1179 0.929 . S
H1203 C1209 0.930 . S
H1204 C1242 0.930 . S
H1205 C1186 0.930 . S
H1206 C1241 0.929 . S
N1207 Tb1176 2.660 . S
N1207 C1208 1.305 . S
N1207 C1212 1.360 1_565 S
C1208 H1200 0.930 . S
C1208 N1207 1.305 . S
C1208 C1211 1.407 1_565 S
C1209 H1203 0.930 . S
C1209 C1210 1.410 . S
C1209 C1211 1.345 . S
C1210 C1209 1.410 . S
C1210 C1212 1.417 . S
C1210 C1242 1.432 . S
C1211 H1197 0.930 . S
C1211 C1208 1.407 1_545 S
C1211 C1209 1.345 . S
C1212 N1207 1.360 1_545 S
C1212 C1210 1.417 . S
C1212 C1216 1.432 1_545 S
H1213 C1218 0.930 . S
N1214 Tb1176 2.600 . S
N1214 C1216 1.359 . S
N1214 C1217 1.327 . S
C1215 H1201 0.931 . S
C1215 C1217 1.392 . S
C1215 C1218 1.370 1_565 S
C1216 C1212 1.432 1_565 S
C1216 N1214 1.359 . S
C1216 C1219 1.414 1_565 S
C1217 H1199 0.930 . S
C1217 N1214 1.327 . S
C1217 C1215 1.392 . S
C1218 H1213 0.930 . S
C1218 C1215 1.370 1_545 S
C1218 C1219 1.385 . S
C1219 C1216 1.414 1_545 S
C1219 C1218 1.385 . S
C1219 C1241 1.444 . S
O1220 Tb1176 2.546 . S
O1220 C1240 1.251 . S
O1221 Tb1176 2.610 . S
O1221 Tb1187 2.362 . S
O1221 C1232 1.283 . S
O1222 Tb1187 2.421 . S
O1222 C1239 1.262 . S
O1223 Tb1176 2.320 . S
O1223 C1239 1.260 . S
O1224 Tb1176 2.552 . S
O1224 C1232 1.243 . S
O1225 Tb1176 2.413 . S
O1225 C1240 1.256 . S
O1226 Tb1187 2.546 . S
O1226 C1251 1.251 . S
O1227 Tb1176 2.362 . S
O1227 Tb1187 2.610 . S
O1227 C1243 1.283 . S
O1228 Tb1176 2.421 . S
O1228 C1250 1.262 . S
O1229 Tb1187 2.320 . S
O1229 C1250 1.260 . S
O1230 Tb1187 2.552 . S
O1230 C1243 1.243 . S
O1231 Tb1187 2.413 . S
O1231 C1251 1.256 . S
C1232 O1221 1.283 . S
C1232 O1224 1.243 . S
C1233 C1235 1.382 . S
C1233 C1237 1.393 . S
C1233 C1240 1.500 . S
C1234 C1235 1.400 . S
C1234 C1236 1.384 . S
C1235 C1233 1.382 . S
C1235 C1234 1.400 . S
C1235 H1252 0.930 . S
C1236 C1234 1.384 . S
C1236 C1238 1.392 . S
C1236 H1253 0.931 . S
C1237 C1233 1.393 . S
C1237 C1238 1.401 . S
C1237 H1254 0.930 . S
C1238 C1236 1.392 . S
C1238 C1237 1.401 . S
C1238 H1255 0.930 . S
C1239 O1222 1.262 . S
C1239 O1223 1.260 . S
C1240 Tb1176 2.833 . S
C1240 O1220 1.251 . S
C1240 O1225 1.256 . S
C1240 C1233 1.500 . S
C1241 H1206 0.929 . S
C1241 C1219 1.444 . S
C1241 C1242 1.317 . S
C1242 H1204 0.930 . S
C1242 C1210 1.432 . S
C1242 C1241 1.317 . S
C1243 O1227 1.283 . S
C1243 O1230 1.243 . S
C1244 C1245 1.382 . S
C1244 C1248 1.393 . S
C1244 C1251 1.500 . S
C1245 C1244 1.382 . S
C1245 C1246 1.400 1_455 S
C1245 H1256 0.930 . S
C1246 C1245 1.400 1_655 S
C1246 C1247 1.384 . S
C1247 C1246 1.384 . S
C1247 C1249 1.392 . S
C1247 H1257 0.931 . S
C1248 C1244 1.393 . S
C1248 C1249 1.401 1_455 S
C1248 H1258 0.930 . S
C1249 C1247 1.392 . S
C1249 C1248 1.401 1_655 S
C1249 H1259 0.930 . S
C1250 O1228 1.262 . S
C1250 O1229 1.260 . S
C1251 Tb1187 2.833 . S
C1251 O1226 1.251 . S
C1251 O1231 1.256 . S
C1251 C1244 1.500 . S
H1252 C1235 0.930 . S
H1253 C1236 0.931 . S
H1254 C1237 0.930 . S
H1255 C1238 0.930 . S
H1256 C1245 0.930 . S
H1257 C1247 0.931 . S
H1258 C1248 0.930 . S
H1259 C1249 0.930 . S
Tb1260 N1291 2.660 . S
Tb1260 N1298 2.600 . S
Tb1260 O1304 2.546 . S
Tb1260 O1305 2.610 . S
Tb1260 O1307 2.320 . S
Tb1260 O1308 2.552 . S
Tb1260 O1309 2.413 . S
Tb1260 O1311 2.362 . S
Tb1260 O1312 2.421 . S
Tb1260 C1324 2.833 . S
C1261 C1264 1.432 . S
C1261 C1265 1.414 1_565 S
C1261 N1268 1.359 . S
C1262 C1264 1.417 1_545 S
C1262 C1266 1.432 . S
C1262 C1274 1.410 . S
C1263 C1265 1.444 . S
C1263 C1266 1.317 . S
C1263 H1286 0.929 . S
C1264 C1261 1.432 . S
C1264 C1262 1.417 1_565 S
C1264 N1272 1.360 . S
C1265 C1261 1.414 1_545 S
C1265 C1263 1.444 . S
C1265 C1270 1.385 1_545 S
C1266 C1262 1.432 . S
C1266 C1263 1.317 . S
C1266 H1278 0.930 . S
C1267 C1269 1.392 . S
C1267 C1270 1.370 . S
C1267 H1279 0.931 . S
N1268 C1261 1.359 . S
N1268 C1269 1.327 . S
N1268 Tb1271 2.600 . S
C1269 C1267 1.392 . S
C1269 N1268 1.327 . S
C1269 H1276 0.930 . S
C1270 C1265 1.385 1_565 S
C1270 C1267 1.370 . S
C1270 H1289 0.930 1_565 S
Tb1271 N1268 2.600 . S
Tb1271 N1272 2.660 . S
Tb1271 O1305 2.362 . S
Tb1271 O1306 2.421 . S
Tb1271 O1310 2.546 . S
Tb1271 O1311 2.610 . S
Tb1271 O1313 2.320 . S
Tb1271 O1314 2.552 . S
Tb1271 O1315 2.413 . S
Tb1271 C1335 2.833 . S
N1272 C1264 1.360 . S
N1272 Tb1271 2.660 . S
N1272 C1273 1.305 . S
C1273 N1272 1.305 . S
C1273 C1275 1.407 1_565 S
C1273 H1280 0.930 . S
C1274 C1262 1.410 . S
C1274 C1275 1.345 . S
C1274 H1282 0.930 . S
C1275 C1273 1.407 1_545 S
C1275 C1274 1.345 . S
C1275 H1277 0.930 . S
H1276 C1269 0.930 . S
H1277 C1275 0.930 . S
H1278 C1266 0.930 . S
H1279 C1267 0.931 . S
H1280 C1273 0.930 . S
H1281 C1295 0.930 . S
H1282 C1274 0.930 . S
H1283 C1301 0.930 . S
H1284 C1292 0.930 . S
H1285 C1299 0.931 . S
H1286 C1263 0.929 . S
H1287 C1293 0.930 . S
H1288 C1326 0.930 . S
H1289 C1270 0.930 1_545 S
H1290 C1325 0.929 . S
N1291 Tb1260 2.660 . S
N1291 C1292 1.305 . S
N1291 C1296 1.360 . S
C1292 H1284 0.930 . S
C1292 N1291 1.305 . S
C1292 C1295 1.407 . S
C1293 H1287 0.930 . S
C1293 C1294 1.410 . S
C1293 C1295 1.345 . S
C1294 C1293 1.410 . S
C1294 C1296 1.417 . S
C1294 C1326 1.432 . S
C1295 H1281 0.930 . S
C1295 C1292 1.407 . S
C1295 C1293 1.345 . S
C1296 N1291 1.360 . S
C1296 C1294 1.417 . S
C1296 C1300 1.432 . S
H1297 C1302 0.930 . S
N1298 Tb1260 2.600 . S
N1298 C1300 1.359 . S
N1298 C1301 1.327 . S
C1299 H1285 0.931 . S
C1299 C1301 1.392 . S
C1299 C1302 1.370 . S
C1300 C1296 1.432 . S
C1300 N1298 1.359 . S
C1300 C1303 1.414 . S
C1301 H1283 0.930 . S
C1301 N1298 1.327 . S
C1301 C1299 1.392 . S
C1302 H1297 0.930 . S
C1302 C1299 1.370 . S
C1302 C1303 1.385 . S
C1303 C1300 1.414 . S
C1303 C1302 1.385 . S
C1303 C1325 1.444 . S
O1304 Tb1260 2.546 . S
O1304 C1324 1.251 . S
O1305 Tb1260 2.610 . S
O1305 Tb1271 2.362 . S
O1305 C1316 1.283 . S
O1306 Tb1271 2.421 . S
O1306 C1323 1.262 . S
O1307 Tb1260 2.320 . S
O1307 C1323 1.260 . S
O1308 Tb1260 2.552 . S
O1308 C1316 1.243 . S
O1309 Tb1260 2.413 . S
O1309 C1324 1.256 . S
O1310 Tb1271 2.546 . S
O1310 C1335 1.251 . S
O1311 Tb1260 2.362 . S
O1311 Tb1271 2.610 . S
O1311 C1327 1.283 . S
O1312 Tb1260 2.421 . S
O1312 C1334 1.262 . S
O1313 Tb1271 2.320 . S
O1313 C1334 1.260 . S
O1314 Tb1271 2.552 . S
O1314 C1327 1.243 . S
O1315 Tb1271 2.413 . S
O1315 C1335 1.256 . S
C1316 O1305 1.283 . S
C1316 O1308 1.243 . S
C1317 C1319 1.382 . S
C1317 C1321 1.393 . S
C1317 C1324 1.500 . S
C1318 C1319 1.400 . S
C1318 C1320 1.384 . S
C1319 C1317 1.382 . S
C1319 C1318 1.400 . S
C1319 H1336 0.930 . S
C1320 C1318 1.384 . S
C1320 C1322 1.392 . S
C1320 H1337 0.931 . S
C1321 C1317 1.393 . S
C1321 C1322 1.401 . S
C1321 H1338 0.930 . S
C1322 C1320 1.392 . S
C1322 C1321 1.401 . S
C1322 H1339 0.930 . S
C1323 O1306 1.262 . S
C1323 O1307 1.260 . S
C1324 Tb1260 2.833 . S
C1324 O1304 1.251 . S
C1324 O1309 1.256 . S
C1324 C1317 1.500 . S
C1325 H1290 0.929 . S
C1325 C1303 1.444 . S
C1325 C1326 1.317 . S
C1326 H1288 0.930 . S
C1326 C1294 1.432 . S
C1326 C1325 1.317 . S
C1327 O1311 1.283 . S
C1327 O1314 1.243 . S
C1328 C1329 1.382 . S
C1328 C1332 1.393 . S
C1328 C1335 1.500 . S
C1329 C1328 1.382 . S
C1329 C1330 1.400 . S
C1329 H1340 0.930 . S
C1330 C1329 1.400 . S
C1330 C1331 1.384 . S
C1331 C1330 1.384 . S
C1331 C1333 1.392 . S
C1331 H1341 0.931 . S
C1332 C1328 1.393 . S
C1332 C1333 1.401 . S
C1332 H1342 0.930 . S
C1333 C1331 1.392 . S
C1333 C1332 1.401 . S
C1333 H1343 0.930 . S
C1334 O1312 1.262 . S
C1334 O1313 1.260 . S
C1335 Tb1271 2.833 . S
C1335 O1310 1.251 . S
C1335 O1315 1.256 . S
C1335 C1328 1.500 . S
H1336 C1319 0.930 . S
H1337 C1320 0.931 . S
H1338 C1321 0.930 . S
H1339 C1322 0.930 . S
H1340 C1329 0.930 . S
H1341 C1331 0.931 . S
H1342 C1332 0.930 . S
H1343 C1333 0.930 . S
Tb1344 N1375 2.660 . S
Tb1344 N1382 2.600 . S
Tb1344 O1388 2.546 . S
Tb1344 O1389 2.610 . S
Tb1344 O1391 2.320 . S
Tb1344 O1392 2.552 . S
Tb1344 O1393 2.413 1_565 S
Tb1344 O1395 2.362 . S
Tb1344 O1396 2.421 . S
Tb1344 C1408 2.833 1_565 S
C1345 C1348 1.432 . S
C1345 C1349 1.414 . S
C1345 N1352 1.359 . S
C1346 C1348 1.417 . S
C1346 C1350 1.432 1_455 S
C1346 C1358 1.410 . S
C1347 C1349 1.444 . S
C1347 C1350 1.317 1_455 S
C1347 H1370 0.929 1_455 S
C1348 C1345 1.432 . S
C1348 C1346 1.417 . S
C1348 N1356 1.360 . S
C1349 C1345 1.414 . S
C1349 C1347 1.444 . S
C1349 C1354 1.385 . S
C1350 C1346 1.432 1_655 S
C1350 C1347 1.317 1_655 S
C1350 H1362 0.930 . S
C1351 C1353 1.392 . S
C1351 C1354 1.370 . S
C1351 H1363 0.931 . S
N1352 C1345 1.359 . S
N1352 C1353 1.327 . S
N1352 Tb1355 2.600 . S
C1353 C1351 1.392 . S
C1353 N1352 1.327 . S
C1353 H1360 0.930 . S
C1354 C1349 1.385 . S
C1354 C1351 1.370 . S
C1354 H1373 0.930 . S
Tb1355 N1352 2.600 . S
Tb1355 N1356 2.660 . S
Tb1355 O1389 2.362 . S
Tb1355 O1390 2.421 . S
Tb1355 O1394 2.546 . S
Tb1355 O1395 2.610 . S
Tb1355 O1397 2.320 . S
Tb1355 O1398 2.552 . S
Tb1355 O1399 2.413 . S
Tb1355 C1419 2.833 . S
N1356 C1348 1.360 . S
N1356 Tb1355 2.660 . S
N1356 C1357 1.305 . S
C1357 N1356 1.305 . S
C1357 C1359 1.407 . S
C1357 H1364 0.930 . S
C1358 C1346 1.410 . S
C1358 C1359 1.345 . S
C1358 H1366 0.930 1_455 S
C1359 C1357 1.407 . S
C1359 C1358 1.345 . S
C1359 H1361 0.930 . S
H1360 C1353 0.930 . S
H1361 C1359 0.930 . S
H1362 C1350 0.930 . S
H1363 C1351 0.931 . S
H1364 C1357 0.930 . S
H1365 C1379 0.930 . S
H1366 C1358 0.930 1_655 S
H1367 C1385 0.930 . S
H1368 C1376 0.930 . S
H1369 C1383 0.931 . S
H1370 C1347 0.929 1_655 S
H1371 C1377 0.930 . S
H1372 C1410 0.930 . S
H1373 C1354 0.930 . S
H1374 C1409 0.929 . S
N1375 Tb1344 2.660 . S
N1375 C1376 1.305 . S
N1375 C1380 1.360 1_565 S
C1376 H1368 0.930 . S
C1376 N1375 1.305 . S
C1376 C1379 1.407 1_565 S
C1377 H1371 0.930 . S
C1377 C1378 1.410 . S
C1377 C1379 1.345 . S
C1378 C1377 1.410 . S
C1378 C1380 1.417 . S
C1378 C1410 1.432 . S
C1379 H1365 0.930 . S
C1379 C1376 1.407 1_545 S
C1379 C1377 1.345 . S
C1380 N1375 1.360 1_545 S
C1380 C1378 1.417 . S
C1380 C1384 1.430 . S
H1381 C1386 0.930 . S
N1382 Tb1344 2.600 . S
N1382 C1384 1.357 1_565 S
N1382 C1385 1.327 . S
C1383 H1369 0.931 . S
C1383 C1385 1.392 . S
C1383 C1386 1.370 1_565 S
C1384 C1380 1.430 . S
C1384 N1382 1.357 1_545 S
C1384 C1387 1.418 . S
C1385 H1367 0.930 . S
C1385 N1382 1.327 . S
C1385 C1383 1.392 . S
C1386 H1381 0.930 . S
C1386 C1383 1.370 1_545 S
C1386 C1387 1.385 . S
C1387 C1384 1.418 . S
C1387 C1386 1.385 . S
C1387 C1409 1.444 . S
O1388 Tb1344 2.546 . S
O1388 C1408 1.251 1_565 S
O1389 Tb1344 2.610 . S
O1389 Tb1355 2.362 . S
O1389 C1400 1.283 . S
O1390 Tb1355 2.421 . S
O1390 C1407 1.262 . S
O1391 Tb1344 2.320 . S
O1391 C1407 1.260 . S
O1392 Tb1344 2.552 . S
O1392 C1400 1.243 . S
O1393 Tb1344 2.413 1_545 S
O1393 C1408 1.256 . S
O1394 Tb1355 2.546 . S
O1394 C1419 1.251 . S
O1395 Tb1344 2.362 . S
O1395 Tb1355 2.610 . S
O1395 C1411 1.283 . S
O1396 Tb1344 2.421 . S
O1396 C1418 1.262 . S
O1397 Tb1355 2.320 . S
O1397 C1418 1.260 . S
O1398 Tb1355 2.552 . S
O1398 C1411 1.243 . S
O1399 Tb1355 2.413 . S
O1399 C1419 1.256 . S
C1400 O1389 1.283 . S
C1400 O1392 1.243 . S
C1401 C1403 1.382 . S
C1401 C1405 1.393 . S
C1401 C1408 1.500 . S
C1402 C1403 1.400 . S
C1402 C1404 1.384 . S
C1403 C1401 1.382 . S
C1403 C1402 1.400 . S
C1403 H1420 0.930 . S
C1404 C1402 1.384 . S
C1404 C1406 1.392 . S
C1404 H1421 0.931 . S
C1405 C1401 1.393 . S
C1405 C1406 1.401 . S
C1405 H1422 0.930 . S
C1406 C1404 1.392 . S
C1406 C1405 1.401 . S
C1406 H1423 0.930 . S
C1407 O1390 1.262 . S
C1407 O1391 1.260 . S
C1408 Tb1344 2.833 1_545 S
C1408 O1388 1.251 1_545 S
C1408 O1393 1.256 . S
C1408 C1401 1.500 . S
C1409 H1374 0.929 . S
C1409 C1387 1.444 . S
C1409 C1410 1.317 . S
C1410 H1372 0.930 . S
C1410 C1378 1.432 . S
C1410 C1409 1.317 . S
C1411 O1395 1.283 . S
C1411 O1398 1.243 . S
C1412 C1413 1.382 . S
C1412 C1416 1.393 . S
C1412 C1419 1.500 . S
C1413 C1412 1.382 . S
C1413 C1414 1.400 . S
C1413 H1424 0.930 . S
C1414 C1413 1.400 . S
C1414 C1415 1.384 . S
C1415 C1414 1.384 . S
C1415 C1417 1.392 . S
C1415 H1425 0.931 . S
C1416 C1412 1.393 . S
C1416 C1417 1.401 . S
C1416 H1426 0.930 . S
C1417 C1415 1.392 . S
C1417 C1416 1.401 . S
C1417 H1427 0.930 . S
C1418 O1396 1.262 . S
C1418 O1397 1.260 . S
C1419 Tb1355 2.833 . S
C1419 O1394 1.251 . S
C1419 O1399 1.256 . S
C1419 C1412 1.500 . S
H1420 C1403 0.930 . S
H1421 C1404 0.931 . S
H1422 C1405 0.930 . S
H1423 C1406 0.930 . S
H1424 C1413 0.930 . S
H1425 C1415 0.931 . S
H1426 C1416 0.930 . S
H1427 C1417 0.930 . S
Tb1428 N1459 2.660 . S
Tb1428 N1466 2.600 . S
Tb1428 O1472 2.546 . S
Tb1428 O1473 2.610 . S
Tb1428 O1475 2.320 . S
Tb1428 O1476 2.552 . S
Tb1428 O1477 2.413 . S
Tb1428 O1479 2.362 . S
Tb1428 O1480 2.421 . S
Tb1428 C1492 2.833 . S
C1429 C1432 1.432 . S
C1429 C1433 1.414 . S
C1429 N1436 1.359 . S
C1430 C1432 1.417 . S
C1430 C1434 1.432 . S
C1430 C1442 1.410 . S
C1431 C1433 1.444 . S
C1431 C1434 1.317 . S
C1431 H1454 0.929 . S
C1432 C1429 1.432 . S
C1432 C1430 1.417 . S
C1432 N1440 1.360 . S
C1433 C1429 1.414 . S
C1433 C1431 1.444 . S
C1433 C1438 1.385 . S
C1434 C1430 1.432 . S
C1434 C1431 1.317 . S
C1434 H1446 0.930 . S
C1435 C1437 1.392 . S
C1435 C1438 1.370 . S
C1435 H1447 0.931 . S
N1436 C1429 1.359 . S
N1436 C1437 1.327 . S
N1436 Tb1439 2.600 . S
C1437 C1435 1.392 . S
C1437 N1436 1.327 . S
C1437 H1444 0.930 . S
C1438 C1433 1.385 . S
C1438 C1435 1.370 . S
C1438 H1457 0.930 . S
Tb1439 N1436 2.600 . S
Tb1439 N1440 2.660 . S
Tb1439 O1473 2.362 . S
Tb1439 O1474 2.421 . S
Tb1439 O1478 2.546 . S
Tb1439 O1479 2.610 . S
Tb1439 O1481 2.320 . S
Tb1439 O1482 2.552 . S
Tb1439 O1483 2.413 . S
Tb1439 C1503 2.833 . S
N1440 C1432 1.360 . S
N1440 Tb1439 2.660 . S
N1440 C1441 1.305 . S
C1441 N1440 1.305 . S
C1441 C1443 1.407 . S
C1441 H1448 0.930 . S
C1442 C1430 1.410 . S
C1442 C1443 1.345 . S
C1442 H1450 0.930 . S
C1443 C1441 1.407 . S
C1443 C1442 1.345 . S
C1443 H1445 0.930 . S
H1444 C1437 0.930 . S
H1445 C1443 0.930 . S
H1446 C1434 0.930 . S
H1447 C1435 0.931 . S
H1448 C1441 0.930 . S
H1449 C1463 0.930 . S
H1450 C1442 0.930 . S
H1451 C1469 0.930 . S
H1452 C1460 0.930 . S
H1453 C1467 0.931 . S
H1454 C1431 0.929 . S
H1455 C1461 0.930 . S
H1456 C1494 0.930 . S
H1457 C1438 0.930 . S
H1458 C1493 0.929 . S
N1459 Tb1428 2.660 . S
N1459 C1460 1.305 . S
N1459 C1464 1.360 . S
C1460 H1452 0.930 . S
C1460 N1459 1.305 . S
C1460 C1463 1.407 . S
C1461 H1455 0.930 . S
C1461 C1462 1.410 . S
C1461 C1463 1.345 . S
C1462 C1461 1.410 . S
C1462 C1464 1.417 . S
C1462 C1494 1.432 . S
C1463 H1449 0.930 . S
C1463 C1460 1.407 . S
C1463 C1461 1.345 . S
C1464 N1459 1.360 . S
C1464 C1462 1.417 . S
C1464 C1468 1.432 . S
H1465 C1470 0.930 . S
N1466 Tb1428 2.600 . S
N1466 C1468 1.359 . S
N1466 C1469 1.327 . S
C1467 H1453 0.931 . S
C1467 C1469 1.392 . S
C1467 C1470 1.370 . S
C1468 C1464 1.432 . S
C1468 N1466 1.359 . S
C1468 C1471 1.414 . S
C1469 H1451 0.930 . S
C1469 N1466 1.327 . S
C1469 C1467 1.392 . S
C1470 H1465 0.930 . S
C1470 C1467 1.370 . S
C1470 C1471 1.385 . S
C1471 C1468 1.414 . S
C1471 C1470 1.385 . S
C1471 C1493 1.444 . S
O1472 Tb1428 2.546 . S
O1472 C1492 1.251 . S
O1473 Tb1428 2.610 . S
O1473 Tb1439 2.362 . S
O1473 C1484 1.283 . S
O1474 Tb1439 2.421 . S
O1474 C1491 1.262 . S
O1475 Tb1428 2.320 . S
O1475 C1491 1.260 . S
O1476 Tb1428 2.552 . S
O1476 C1484 1.243 . S
O1477 Tb1428 2.413 . S
O1477 C1492 1.256 . S
O1478 Tb1439 2.546 . S
O1478 C1503 1.251 . S
O1479 Tb1428 2.362 . S
O1479 Tb1439 2.610 . S
O1479 C1495 1.283 . S
O1480 Tb1428 2.421 . S
O1480 C1502 1.262 . S
O1481 Tb1439 2.320 . S
O1481 C1502 1.260 . S
O1482 Tb1439 2.552 . S
O1482 C1495 1.243 . S
O1483 Tb1439 2.413 . S
O1483 C1503 1.256 . S
C1484 O1473 1.283 . S
C1484 O1476 1.243 . S
C1485 C1487 1.382 . S
C1485 C1489 1.393 . S
C1485 C1492 1.500 1_655 S
C1486 C1487 1.400 . S
C1486 C1488 1.384 . S
C1487 C1485 1.382 . S
C1487 C1486 1.400 . S
C1487 H1504 0.930 . S
C1488 C1486 1.384 . S
C1488 C1490 1.392 . S
C1488 H1505 0.931 . S
C1489 C1485 1.393 . S
C1489 C1490 1.401 . S
C1489 H1506 0.930 . S
C1490 C1488 1.392 . S
C1490 C1489 1.401 . S
C1490 H1507 0.930 . S
C1491 O1474 1.262 . S
C1491 O1475 1.260 . S
C1492 Tb1428 2.833 . S
C1492 O1472 1.251 . S
C1492 O1477 1.256 . S
C1492 C1485 1.500 1_455 S
C1493 H1458 0.929 . S
C1493 C1471 1.444 . S
C1493 C1494 1.317 . S
C1494 H1456 0.930 . S
C1494 C1462 1.432 . S
C1494 C1493 1.317 . S
C1495 O1479 1.283 . S
C1495 O1482 1.243 . S
C1496 C1497 1.382 . S
C1496 C1500 1.393 . S
C1496 C1503 1.500 . S
C1497 C1496 1.382 . S
C1497 C1498 1.400 . S
C1497 H1508 0.930 . S
C1498 C1497 1.400 . S
C1498 C1499 1.384 . S
C1499 C1498 1.384 . S
C1499 C1501 1.392 . S
C1499 H1509 0.931 . S
C1500 C1496 1.393 . S
C1500 C1501 1.401 . S
C1500 H1510 0.930 . S
C1501 C1499 1.392 . S
C1501 C1500 1.401 . S
C1501 H1511 0.930 . S
C1502 O1480 1.262 . S
C1502 O1481 1.260 . S
C1503 Tb1439 2.833 . S
C1503 O1478 1.251 . S
C1503 O1483 1.256 . S
C1503 C1496 1.500 . S
H1504 C1487 0.930 . S
H1505 C1488 0.931 . S
H1506 C1489 0.930 . S
H1507 C1490 0.930 . S
H1508 C1497 0.930 . S
H1509 C1499 0.931 . S
H1510 C1500 0.930 . S
H1511 C1501 0.930 . S
Tb1512 N1543 2.660 . S
Tb1512 N1550 2.600 . S
Tb1512 O1556 2.546 . S
Tb1512 O1557 2.610 . S
Tb1512 O1559 2.320 . S
Tb1512 O1560 2.552 . S
Tb1512 O1561 2.413 . S
Tb1512 O1563 2.362 . S
Tb1512 O1564 2.421 . S
Tb1512 C1576 2.833 . S
C1513 C1516 1.432 . S
C1513 C1517 1.414 . S
C1513 N1520 1.359 . S
C1514 C1516 1.417 . S
C1514 C1518 1.432 . S
C1514 C1526 1.410 . S
C1515 C1517 1.444 . S
C1515 C1518 1.317 . S
C1515 H1538 0.929 . S
C1516 C1513 1.432 . S
C1516 C1514 1.417 . S
C1516 N1524 1.360 . S
C1517 C1513 1.414 . S
C1517 C1515 1.444 . S
C1517 C1522 1.385 . S
C1518 C1514 1.432 . S
C1518 C1515 1.317 . S
C1518 H1530 0.930 . S
C1519 C1521 1.392 . S
C1519 C1522 1.370 . S
C1519 H1531 0.931 . S
N1520 C1513 1.359 . S
N1520 C1521 1.327 . S
N1520 Tb1523 2.600 . S
C1521 C1519 1.392 . S
C1521 N1520 1.327 . S
C1521 H1528 0.930 . S
C1522 C1517 1.385 . S
C1522 C1519 1.370 . S
C1522 H1541 0.930 . S
Tb1523 N1520 2.600 . S
Tb1523 N1524 2.660 . S
Tb1523 O1557 2.362 . S
Tb1523 O1558 2.421 . S
Tb1523 O1562 2.546 . S
Tb1523 O1563 2.610 . S
Tb1523 O1565 2.320 . S
Tb1523 O1566 2.552 . S
Tb1523 O1567 2.413 . S
Tb1523 C1587 2.833 . S
N1524 C1516 1.360 . S
N1524 Tb1523 2.660 . S
N1524 C1525 1.305 . S
C1525 N1524 1.305 . S
C1525 C1527 1.407 . S
C1525 H1532 0.930 . S
C1526 C1514 1.410 . S
C1526 C1527 1.345 . S
C1526 H1534 0.930 . S
C1527 C1525 1.407 . S
C1527 C1526 1.345 . S
C1527 H1529 0.930 . S
H1528 C1521 0.930 . S
H1529 C1527 0.930 . S
H1530 C1518 0.930 . S
H1531 C1519 0.931 . S
H1532 C1525 0.930 . S
H1533 C1547 0.930 . S
H1534 C1526 0.930 . S
H1535 C1553 0.930 . S
H1536 C1544 0.930 . S
H1537 C1551 0.931 . S
H1538 C1515 0.929 . S
H1539 C1545 0.930 1_655 S
H1540 C1578 0.930 . S
H1541 C1522 0.930 . S
H1542 C1577 0.929 1_655 S
N1543 Tb1512 2.660 . S
N1543 C1544 1.305 . S
N1543 C1548 1.360 . S
C1544 H1536 0.930 . S
C1544 N1543 1.305 . S
C1544 C1547 1.407 . S
C1545 H1539 0.930 1_455 S
C1545 C1546 1.410 . S
C1545 C1547 1.345 . S
C1546 C1545 1.410 . S
C1546 C1548 1.417 . S
C1546 C1578 1.432 1_455 S
C1547 H1533 0.930 . S
C1547 C1544 1.407 . S
C1547 C1545 1.345 . S
C1548 N1543 1.360 . S
C1548 C1546 1.417 . S
C1548 C1552 1.432 . S
H1549 C1554 0.930 . S
N1550 Tb1512 2.600 . S
N1550 C1552 1.359 . S
N1550 C1553 1.327 . S
C1551 H1537 0.931 . S
C1551 C1553 1.392 . S
C1551 C1554 1.370 . S
C1552 C1548 1.432 . S
C1552 N1550 1.359 . S
C1552 C1555 1.414 . S
C1553 H1535 0.930 . S
C1553 N1550 1.327 . S
C1553 C1551 1.392 . S
C1554 H1549 0.930 . S
C1554 C1551 1.370 . S
C1554 C1555 1.385 . S
C1555 C1552 1.414 . S
C1555 C1554 1.385 . S
C1555 C1577 1.444 . S
O1556 Tb1512 2.546 . S
O1556 C1576 1.251 . S
O1557 Tb1512 2.610 . S
O1557 Tb1523 2.362 . S
O1557 C1568 1.283 . S
O1558 Tb1523 2.421 . S
O1558 C1575 1.262 . S
O1559 Tb1512 2.320 . S
O1559 C1575 1.260 . S
O1560 Tb1512 2.552 . S
O1560 C1568 1.243 . S
O1561 Tb1512 2.413 . S
O1561 C1576 1.256 . S
O1562 Tb1523 2.546 . S
O1562 C1587 1.251 . S
O1563 Tb1512 2.362 . S
O1563 Tb1523 2.610 . S
O1563 C1579 1.283 . S
O1564 Tb1512 2.421 . S
O1564 C1586 1.262 . S
O1565 Tb1523 2.320 . S
O1565 C1586 1.260 . S
O1566 Tb1523 2.552 . S
O1566 C1579 1.243 . S
O1567 Tb1523 2.413 . S
O1567 C1587 1.256 . S
C1568 O1557 1.283 . S
C1568 O1560 1.243 . S
C1569 C1571 1.382 . S
C1569 C1573 1.393 . S
C1569 C1576 1.500 . S
C1570 C1571 1.400 . S
C1570 C1572 1.384 . S
C1571 C1569 1.382 . S
C1571 C1570 1.400 . S
C1571 H1588 0.930 . S
C1572 C1570 1.384 . S
C1572 C1574 1.392 . S
C1572 H1589 0.931 . S
C1573 C1569 1.393 . S
C1573 C1574 1.401 . S
C1573 H1590 0.930 . S
C1574 C1572 1.392 . S
C1574 C1573 1.401 . S
C1574 H1591 0.930 . S
C1575 O1558 1.262 . S
C1575 O1559 1.260 . S
C1576 Tb1512 2.833 . S
C1576 O1556 1.251 . S
C1576 O1561 1.256 . S
C1576 C1569 1.500 . S
C1577 H1542 0.929 1_455 S
C1577 C1555 1.444 . S
C1577 C1578 1.317 1_455 S
C1578 H1540 0.930 . S
C1578 C1546 1.432 1_655 S
C1578 C1577 1.317 1_655 S
C1579 O1563 1.283 . S
C1579 O1566 1.243 . S
C1580 C1581 1.382 . S
C1580 C1584 1.393 . S
C1580 C1587 1.500 . S
C1581 C1580 1.382 . S
C1581 C1582 1.400 . S
C1581 H1592 0.930 . S
C1582 C1581 1.400 . S
C1582 C1583 1.384 . S
C1583 C1582 1.384 . S
C1583 C1585 1.392 . S
C1583 H1593 0.931 . S
C1584 C1580 1.393 . S
C1584 C1585 1.401 . S
C1584 H1594 0.930 . S
C1585 C1583 1.392 . S
C1585 C1584 1.401 . S
C1585 H1595 0.930 . S
C1586 O1564 1.262 . S
C1586 O1565 1.260 . S
C1587 Tb1523 2.833 . S
C1587 O1562 1.251 . S
C1587 O1567 1.256 . S
C1587 C1580 1.500 . S
H1588 C1571 0.930 . S
H1589 C1572 0.931 . S
H1590 C1573 0.930 . S
H1591 C1574 0.930 . S
H1592 C1581 0.930 . S
H1593 C1583 0.931 . S
H1594 C1584 0.930 . S
H1595 C1585 0.930 . S
Tb1596 N1627 2.660 . S
Tb1596 N1634 2.600 . S
Tb1596 O1640 2.546 . S
Tb1596 O1641 2.610 . S
Tb1596 O1643 2.320 . S
Tb1596 O1644 2.552 . S
Tb1596 O1645 2.413 . S
Tb1596 O1647 2.362 . S
Tb1596 O1648 2.421 . S
Tb1596 C1660 2.833 . S
C1597 C1600 1.439 . S
C1597 C1601 1.434 . S
C1597 N1604 1.331 1_545 S
C1598 C1600 1.417 . S
C1598 C1602 1.432 . S
C1598 C1610 1.410 . S
C1599 C1601 1.444 . S
C1599 C1602 1.317 . S
C1599 H1622 0.929 . S
C1600 C1597 1.439 . S
C1600 C1598 1.417 . S
C1600 N1608 1.360 1_545 S
C1601 C1597 1.434 . S
C1601 C1599 1.444 . S
C1601 C1606 1.385 . S
C1602 C1598 1.432 . S
C1602 C1599 1.317 . S
C1602 H1614 0.930 . S
C1603 C1605 1.392 . S
C1603 C1606 1.370 1_565 S
C1603 H1615 0.931 . S
N1604 C1597 1.331 1_565 S
N1604 C1605 1.327 . S
N1604 Tb1607 2.600 . S
C1605 C1603 1.392 . S
C1605 N1604 1.327 . S
C1605 H1612 0.930 . S
C1606 C1601 1.385 . S
C1606 C1603 1.370 1_545 S
C1606 H1625 0.930 . S
Tb1607 N1604 2.600 . S
Tb1607 N1608 2.660 . S
Tb1607 O1641 2.362 . S
Tb1607 O1642 2.421 . S
Tb1607 O1646 2.546 . S
Tb1607 O1647 2.610 . S
Tb1607 O1649 2.320 . S
Tb1607 O1650 2.552 . S
Tb1607 O1651 2.413 1_565 S
Tb1607 C1671 2.833 1_565 S
N1608 C1600 1.360 1_565 S
N1608 Tb1607 2.660 . S
N1608 C1609 1.305 . S
C1609 N1608 1.305 . S
C1609 C1611 1.407 1_565 S
C1609 H1616 0.930 . S
C1610 C1598 1.410 . S
C1610 C1611 1.345 . S
C1610 H1618 0.930 . S
C1611 C1609 1.407 1_545 S
C1611 C1610 1.345 . S
C1611 H1613 0.930 . S
H1612 C1605 0.930 . S
H1613 C1611 0.930 . S
H1614 C1602 0.930 . S
H1615 C1603 0.931 . S
H1616 C1609 0.930 . S
H1617 C1631 0.930 . S
H1618 C1610 0.930 . S
H1619 C1637 0.930 . S
H1620 C1628 0.930 . S
H1621 C1635 0.931 . S
H1622 C1599 0.929 . S
H1623 C1629 0.930 . S
H1624 C1662 0.930 . S
H1625 C1606 0.930 . S
H1626 C1661 0.929 . S
N1627 Tb1596 2.660 . S
N1627 C1628 1.305 . S
N1627 C1632 1.360 . S
C1628 H1620 0.930 . S
C1628 N1627 1.305 . S
C1628 C1631 1.407 . S
C1629 H1623 0.930 . S
C1629 C1630 1.410 . S
C1629 C1631 1.345 . S
C1630 C1629 1.410 . S
C1630 C1632 1.417 . S
C1630 C1662 1.432 . S
C1631 H1617 0.930 . S
C1631 C1628 1.407 . S
C1631 C1629 1.345 . S
C1632 N1627 1.360 . S
C1632 C1630 1.417 . S
C1632 C1636 1.432 . S
H1633 C1638 0.930 . S
N1634 Tb1596 2.600 . S
N1634 C1636 1.359 . S
N1634 C1637 1.327 . S
C1635 H1621 0.931 . S
C1635 C1637 1.392 . S
C1635 C1638 1.370 . S
C1636 C1632 1.432 . S
C1636 N1634 1.359 . S
C1636 C1639 1.414 . S
C1637 H1619 0.930 . S
C1637 N1634 1.327 . S
C1637 C1635 1.392 . S
C1638 H1633 0.930 . S
C1638 C1635 1.370 . S
C1638 C1639 1.385 . S
C1639 C1636 1.414 . S
C1639 C1638 1.385 . S
C1639 C1661 1.444 . S
O1640 Tb1596 2.546 . S
O1640 C1660 1.251 . S
O1641 Tb1596 2.610 . S
O1641 Tb1607 2.362 . S
O1641 C1652 1.283 . S
O1642 Tb1607 2.421 . S
O1642 C1659 1.262 . S
O1643 Tb1596 2.320 . S
O1643 C1659 1.260 . S
O1644 Tb1596 2.552 . S
O1644 C1652 1.243 . S
O1645 Tb1596 2.413 . S
O1645 C1660 1.256 . S
O1646 Tb1607 2.546 . S
O1646 C1671 1.251 1_565 S
O1647 Tb1596 2.362 . S
O1647 Tb1607 2.610 . S
O1647 C1663 1.283 . S
O1648 Tb1596 2.421 . S
O1648 C1670 1.262 . S
O1649 Tb1607 2.320 . S
O1649 C1670 1.260 . S
O1650 Tb1607 2.552 . S
O1650 C1663 1.243 . S
O1651 Tb1607 2.413 1_545 S
O1651 C1671 1.256 . S
C1652 O1641 1.283 . S
C1652 O1644 1.243 . S
C1653 C1655 1.382 . S
C1653 C1657 1.393 . S
C1653 C1660 1.500 . S
C1654 C1655 1.400 . S
C1654 C1656 1.384 . S
C1655 C1653 1.382 . S
C1655 C1654 1.400 . S
C1655 H1672 0.930 . S
C1656 C1654 1.384 . S
C1656 C1658 1.392 . S
C1656 H1673 0.931 . S
C1657 C1653 1.393 . S
C1657 C1658 1.401 . S
C1657 H1674 0.930 . S
C1658 C1656 1.392 . S
C1658 C1657 1.401 . S
C1658 H1675 0.930 . S
C1659 O1642 1.262 . S
C1659 O1643 1.260 . S
C1660 Tb1596 2.833 . S
C1660 O1640 1.251 . S
C1660 O1645 1.256 . S
C1660 C1653 1.500 . S
C1661 H1626 0.929 . S
C1661 C1639 1.444 . S
C1661 C1662 1.317 . S
C1662 H1624 0.930 . S
C1662 C1630 1.432 . S
C1662 C1661 1.317 . S
C1663 O1647 1.283 . S
C1663 O1650 1.243 . S
C1664 C1665 1.382 . S
C1664 C1668 1.393 . S
C1664 C1671 1.500 . S
C1665 C1664 1.382 . S
C1665 C1666 1.400 . S
C1665 H1676 0.930 . S
C1666 C1665 1.400 . S
C1666 C1667 1.384 . S
C1667 C1666 1.384 . S
C1667 C1669 1.392 . S
C1667 H1677 0.931 . S
C1668 C1664 1.393 . S
C1668 C1669 1.401 . S
C1668 H1678 0.930 . S
C1669 C1667 1.392 . S
C1669 C1668 1.401 . S
C1669 H1679 0.930 . S
C1670 O1648 1.262 . S
C1670 O1649 1.260 . S
C1671 Tb1607 2.833 1_545 S
C1671 O1646 1.251 1_545 S
C1671 O1651 1.256 . S
C1671 C1664 1.500 . S
H1672 C1655 0.930 . S
H1673 C1656 0.931 . S
H1674 C1657 0.930 . S
H1675 C1658 0.930 . S
H1676 C1665 0.930 . S
H1677 C1667 0.931 . S
H1678 C1668 0.930 . S
H1679 C1669 0.930 . S
Tb1680 N1711 2.660 . S
Tb1680 N1718 2.600 . S
Tb1680 O1724 2.546 . S
Tb1680 O1725 2.610 . S
Tb1680 O1727 2.320 . S
Tb1680 O1728 2.552 . S
Tb1680 O1729 2.413 . S
Tb1680 O1731 2.362 . S
Tb1680 O1732 2.421 . S
Tb1680 C1744 2.833 . S
C1681 C1684 1.432 . S
C1681 C1685 1.414 . S
C1681 N1688 1.359 . S
C1682 C1684 1.417 . S
C1682 C1686 1.432 . S
C1682 C1694 1.410 . S
C1683 C1685 1.444 . S
C1683 C1686 1.317 . S
C1683 H1706 0.929 . S
C1684 C1681 1.432 . S
C1684 C1682 1.417 . S
C1684 N1692 1.360 . S
C1685 C1681 1.414 . S
C1685 C1683 1.444 . S
C1685 C1690 1.385 . S
C1686 C1682 1.432 . S
C1686 C1683 1.317 . S
C1686 H1698 0.930 . S
C1687 C1689 1.392 . S
C1687 C1690 1.370 . S
C1687 H1699 0.931 . S
N1688 C1681 1.359 . S
N1688 C1689 1.327 . S
N1688 Tb1691 2.600 . S
C1689 C1687 1.392 . S
C1689 N1688 1.327 . S
C1689 H1696 0.930 . S
C1690 C1685 1.385 . S
C1690 C1687 1.370 . S
C1690 H1709 0.930 . S
Tb1691 N1688 2.600 . S
Tb1691 N1692 2.660 . S
Tb1691 O1725 2.362 . S
Tb1691 O1726 2.421 . S
Tb1691 O1730 2.546 . S
Tb1691 O1731 2.610 . S
Tb1691 O1733 2.320 . S
Tb1691 O1734 2.552 . S
Tb1691 O1735 2.413 . S
Tb1691 C1755 2.833 . S
N1692 C1684 1.360 . S
N1692 Tb1691 2.660 . S
N1692 C1693 1.305 . S
C1693 N1692 1.305 . S
C1693 C1695 1.407 . S
C1693 H1700 0.930 . S
C1694 C1682 1.410 . S
C1694 C1695 1.345 . S
C1694 H1702 0.930 . S
C1695 C1693 1.407 . S
C1695 C1694 1.345 . S
C1695 H1697 0.930 . S
H1696 C1689 0.930 . S
H1697 C1695 0.930 . S
H1698 C1686 0.930 . S
H1699 C1687 0.931 . S
H1700 C1693 0.930 . S
H1701 C1715 0.930 . S
H1702 C1694 0.930 . S
H1703 C1721 0.930 . S
H1704 C1712 0.930 . S
H1705 C1719 0.931 . S
H1706 C1683 0.929 . S
H1707 C1713 0.930 . S
H1708 C1746 0.930 . S
H1709 C1690 0.930 . S
H1710 C1745 0.929 . S
N1711 Tb1680 2.660 . S
N1711 C1712 1.305 . S
N1711 C1716 1.360 . S
C1712 H1704 0.930 . S
C1712 N1711 1.305 . S
C1712 C1715 1.407 1_565 S
C1713 H1707 0.930 . S
C1713 C1714 1.410 . S
C1713 C1715 1.345 . S
C1714 C1713 1.410 . S
C1714 C1716 1.417 1_545 S
C1714 C1746 1.432 . S
C1715 H1701 0.930 . S
C1715 C1712 1.407 1_545 S
C1715 C1713 1.345 . S
C1716 N1711 1.360 . S
C1716 C1714 1.417 1_565 S
C1716 C1720 1.432 . S
H1717 C1722 0.930 1_545 S
N1718 Tb1680 2.600 . S
N1718 C1720 1.359 . S
N1718 C1721 1.327 . S
C1719 H1705 0.931 . S
C1719 C1721 1.392 . S
C1719 C1722 1.370 . S
C1720 C1716 1.432 . S
C1720 N1718 1.359 . S
C1720 C1723 1.414 1_565 S
C1721 H1703 0.930 . S
C1721 N1718 1.327 . S
C1721 C1719 1.392 . S
C1722 H1717 0.930 1_565 S
C1722 C1719 1.370 . S
C1722 C1723 1.385 1_565 S
C1723 C1720 1.414 1_545 S
C1723 C1722 1.385 1_545 S
C1723 C1745 1.444 . S
O1724 Tb1680 2.546 . S
O1724 C1744 1.251 . S
O1725 Tb1680 2.610 . S
O1725 Tb1691 2.362 . S
O1725 C1736 1.283 . S
O1726 Tb1691 2.421 . S
O1726 C1743 1.262 . S
O1727 Tb1680 2.320 . S
O1727 C1743 1.260 . S
O1728 Tb1680 2.552 . S
O1728 C1736 1.243 . S
O1729 Tb1680 2.413 . S
O1729 C1744 1.256 . S
O1730 Tb1691 2.546 . S
O1730 C1755 1.251 . S
O1731 Tb1680 2.362 . S
O1731 Tb1691 2.610 . S
O1731 C1747 1.283 . S
O1732 Tb1680 2.421 . S
O1732 C1754 1.262 . S
O1733 Tb1691 2.320 . S
O1733 C1754 1.260 . S
O1734 Tb1691 2.552 . S
O1734 C1747 1.243 . S
O1735 Tb1691 2.413 . S
O1735 C1755 1.256 . S
C1736 O1725 1.283 . S
C1736 O1728 1.243 . S
C1737 C1739 1.382 . S
C1737 C1741 1.393 . S
C1737 C1744 1.500 . S
C1738 C1739 1.400 . S
C1738 C1740 1.384 . S
C1739 C1737 1.382 . S
C1739 C1738 1.400 . S
C1739 H1756 0.930 . S
C1740 C1738 1.384 . S
C1740 C1742 1.392 . S
C1740 H1757 0.931 . S
C1741 C1737 1.393 . S
C1741 C1742 1.401 . S
C1741 H1758 0.930 . S
C1742 C1740 1.392 . S
C1742 C1741 1.401 . S
C1742 H1759 0.930 . S
C1743 O1726 1.262 . S
C1743 O1727 1.260 . S
C1744 Tb1680 2.833 . S
C1744 O1724 1.251 . S
C1744 O1729 1.256 . S
C1744 C1737 1.500 . S
C1745 H1710 0.929 . S
C1745 C1723 1.444 . S
C1745 C1746 1.317 . S
C1746 H1708 0.930 . S
C1746 C1714 1.432 . S
C1746 C1745 1.317 . S
C1747 O1731 1.283 . S
C1747 O1734 1.243 . S
C1748 C1749 1.382 . S
C1748 C1752 1.393 . S
C1748 C1755 1.500 1_655 S
C1749 C1748 1.382 . S
C1749 C1750 1.400 . S
C1749 H1760 0.930 . S
C1750 C1749 1.400 . S
C1750 C1751 1.384 . S
C1751 C1750 1.384 . S
C1751 C1753 1.392 . S
C1751 H1761 0.931 . S
C1752 C1748 1.393 . S
C1752 C1753 1.401 . S
C1752 H1762 0.930 . S
C1753 C1751 1.392 . S
C1753 C1752 1.401 . S
C1753 H1763 0.930 . S
C1754 O1732 1.262 . S
C1754 O1733 1.260 . S
C1755 Tb1691 2.833 . S
C1755 O1730 1.251 . S
C1755 O1735 1.256 . S
C1755 C1748 1.500 1_455 S
H1756 C1739 0.930 . S
H1757 C1740 0.931 . S
H1758 C1741 0.930 . S
H1759 C1742 0.930 . S
H1760 C1749 0.930 . S
H1761 C1751 0.931 . S
H1762 C1752 0.930 . S
H1763 C1753 0.930 . S
Tb1764 N1795 2.660 . S
Tb1764 N1802 2.600 . S
Tb1764 O1808 2.546 . S
Tb1764 O1809 2.610 . S
Tb1764 O1811 2.320 . S
Tb1764 O1812 2.552 . S
Tb1764 O1813 2.413 . S
Tb1764 O1815 2.362 . S
Tb1764 O1816 2.421 . S
Tb1764 C1828 2.833 . S
C1765 C1768 1.432 1_565 S
C1765 C1769 1.414 1_565 S
C1765 N1772 1.359 . S
C1766 C1768 1.417 . S
C1766 C1770 1.432 . S
C1766 C1778 1.410 . S
C1767 C1769 1.444 . S
C1767 C1770 1.317 . S
C1767 H1790 0.929 . S
C1768 C1765 1.432 1_545 S
C1768 C1766 1.417 . S
C1768 N1776 1.360 1_545 S
C1769 C1765 1.414 1_545 S
C1769 C1767 1.444 . S
C1769 C1774 1.385 . S
C1770 C1766 1.432 . S
C1770 C1767 1.317 . S
C1770 H1782 0.930 . S
C1771 C1773 1.392 . S
C1771 C1774 1.370 1_565 S
C1771 H1783 0.931 . S
N1772 C1765 1.359 . S
N1772 C1773 1.327 . S
N1772 Tb1775 2.600 . S
C1773 C1771 1.392 . S
C1773 N1772 1.327 . S
C1773 H1780 0.930 . S
C1774 C1769 1.385 . S
C1774 C1771 1.370 1_545 S
C1774 H1793 0.930 . S
Tb1775 N1772 2.600 . S
Tb1775 N1776 2.660 . S
Tb1775 O1809 2.362 . S
Tb1775 O1810 2.421 . S
Tb1775 O1814 2.546 . S
Tb1775 O1815 2.610 . S
Tb1775 O1817 2.320 . S
Tb1775 O1818 2.552 . S
Tb1775 O1819 2.413 . S
Tb1775 C1839 2.833 . S
N1776 C1768 1.360 1_565 S
N1776 Tb1775 2.660 . S
N1776 C1777 1.305 . S
C1777 N1776 1.305 . S
C1777 C1779 1.407 1_565 S
C1777 H1784 0.930 . S
C1778 C1766 1.410 . S
C1778 C1779 1.345 . S
C1778 H1786 0.930 . S
C1779 C1777 1.407 1_545 S
C1779 C1778 1.345 . S
C1779 H1781 0.930 . S
H1780 C1773 0.930 . S
H1781 C1779 0.930 . S
H1782 C1770 0.930 . S
H1783 C1771 0.931 . S
H1784 C1777 0.930 . S
H1785 C1799 0.930 . S
H1786 C1778 0.930 . S
H1787 C1805 0.930 . S
H1788 C1796 0.930 . S
H1789 C1803 0.931 . S
H1790 C1767 0.929 . S
H1791 C1797 0.930 . S
H1792 C1830 0.930 . S
H1793 C1774 0.930 . S
H1794 C1829 0.929 . S
N1795 Tb1764 2.660 . S
N1795 C1796 1.305 . S
N1795 C1800 1.360 . S
C1796 H1788 0.930 . S
C1796 N1795 1.305 . S
C1796 C1799 1.407 . S
C1797 H1791 0.930 . S
C1797 C1798 1.410 . S
C1797 C1799 1.345 . S
C1798 C1797 1.410 . S
C1798 C1800 1.417 . S
C1798 C1830 1.432 . S
C1799 H1785 0.930 . S
C1799 C1796 1.407 . S
C1799 C1797 1.345 . S
C1800 N1795 1.360 . S
C1800 C1798 1.417 . S
C1800 C1804 1.432 . S
H1801 C1806 0.930 . S
N1802 Tb1764 2.600 . S
N1802 C1804 1.359 . S
N1802 C1805 1.327 . S
C1803 H1789 0.931 . S
C1803 C1805 1.392 . S
C1803 C1806 1.370 . S
C1804 C1800 1.432 . S
C1804 N1802 1.359 . S
C1804 C1807 1.414 . S
C1805 H1787 0.930 . S
C1805 N1802 1.327 . S
C1805 C1803 1.392 . S
C1806 H1801 0.930 . S
C1806 C1803 1.370 . S
C1806 C1807 1.385 . S
C1807 C1804 1.414 . S
C1807 C1806 1.385 . S
C1807 C1829 1.444 . S
O1808 Tb1764 2.546 . S
O1808 C1828 1.251 . S
O1809 Tb1764 2.610 . S
O1809 Tb1775 2.362 . S
O1809 C1820 1.283 . S
O1810 Tb1775 2.421 . S
O1810 C1827 1.262 . S
O1811 Tb1764 2.320 . S
O1811 C1827 1.260 . S
O1812 Tb1764 2.552 . S
O1812 C1820 1.243 . S
O1813 Tb1764 2.413 . S
O1813 C1828 1.256 . S
O1814 Tb1775 2.546 . S
O1814 C1839 1.251 . S
O1815 Tb1764 2.362 . S
O1815 Tb1775 2.610 . S
O1815 C1831 1.283 . S
O1816 Tb1764 2.421 . S
O1816 C1838 1.262 . S
O1817 Tb1775 2.320 . S
O1817 C1838 1.260 . S
O1818 Tb1775 2.552 . S
O1818 C1831 1.243 . S
O1819 Tb1775 2.413 . S
O1819 C1839 1.256 . S
C1820 O1809 1.283 . S
C1820 O1812 1.243 . S
C1821 C1823 1.382 . S
C1821 C1825 1.393 . S
C1821 C1828 1.500 . S
C1822 C1823 1.400 . S
C1822 C1824 1.384 . S
C1823 C1821 1.382 . S
C1823 C1822 1.400 . S
C1823 H1840 0.930 . S
C1824 C1822 1.384 . S
C1824 C1826 1.392 . S
C1824 H1841 0.931 . S
C1825 C1821 1.393 . S
C1825 C1826 1.401 . S
C1825 H1842 0.930 . S
C1826 C1824 1.392 . S
C1826 C1825 1.401 . S
C1826 H1843 0.930 . S
C1827 O1810 1.262 . S
C1827 O1811 1.260 . S
C1828 Tb1764 2.833 . S
C1828 O1808 1.251 . S
C1828 O1813 1.256 . S
C1828 C1821 1.500 . S
C1829 H1794 0.929 . S
C1829 C1807 1.444 . S
C1829 C1830 1.317 . S
C1830 H1792 0.930 . S
C1830 C1798 1.432 . S
C1830 C1829 1.317 . S
C1831 O1815 1.283 . S
C1831 O1818 1.243 . S
C1832 C1833 1.382 . S
C1832 C1836 1.393 . S
C1832 C1839 1.500 . S
C1833 C1832 1.382 . S
C1833 C1834 1.400 . S
C1833 H1844 0.930 . S
C1834 C1833 1.400 . S
C1834 C1835 1.384 . S
C1835 C1834 1.384 . S
C1835 C1837 1.392 . S
C1835 H1845 0.931 . S
C1836 C1832 1.393 . S
C1836 C1837 1.401 . S
C1836 H1846 0.930 . S
C1837 C1835 1.392 . S
C1837 C1836 1.401 . S
C1837 H1847 0.930 . S
C1838 O1816 1.262 . S
C1838 O1817 1.260 . S
C1839 Tb1775 2.833 . S
C1839 O1814 1.251 . S
C1839 O1819 1.256 . S
C1839 C1832 1.500 . S
H1840 C1823 0.930 . S
H1841 C1824 0.931 . S
H1842 C1825 0.930 . S
H1843 C1826 0.930 . S
H1844 C1833 0.930 . S
H1845 C1835 0.931 . S
H1846 C1836 0.930 . S
H1847 C1837 0.930 . S
Tb1848 N1879 2.660 . S
Tb1848 N1886 2.600 . S
Tb1848 O1892 2.546 . S
Tb1848 O1893 2.610 . S
Tb1848 O1895 2.320 . S
Tb1848 O1896 2.552 . S
Tb1848 O1897 2.413 . S
Tb1848 O1899 2.362 . S
Tb1848 O1900 2.421 . S
Tb1848 C1912 2.833 . S
C1849 C1852 1.432 . S
C1849 C1853 1.414 . S
C1849 N1856 1.359 . S
C1850 C1852 1.417 . S
C1850 C1854 1.432 1_455 S
C1850 C1862 1.410 1_455 S
C1851 C1853 1.444 1_655 S
C1851 C1854 1.317 . S
C1851 H1874 0.929 . S
C1852 C1849 1.432 . S
C1852 C1850 1.417 . S
C1852 N1860 1.360 . S
C1853 C1849 1.414 . S
C1853 C1851 1.444 1_455 S
C1853 C1858 1.385 . S
C1854 C1850 1.432 1_655 S
C1854 C1851 1.317 . S
C1854 H1866 0.930 . S
C1855 C1857 1.392 . S
C1855 C1858 1.370 . S
C1855 H1867 0.931 . S
N1856 C1849 1.359 . S
N1856 C1857 1.327 . S
N1856 Tb1859 2.600 . S
C1857 C1855 1.392 . S
C1857 N1856 1.327 . S
C1857 H1864 0.930 . S
C1858 C1853 1.385 . S
C1858 C1855 1.370 . S
C1858 H1877 0.930 . S
Tb1859 N1856 2.600 . S
Tb1859 N1860 2.660 . S
Tb1859 O1893 2.362 . S
Tb1859 O1894 2.421 . S
Tb1859 O1898 2.546 . S
Tb1859 O1899 2.610 . S
Tb1859 O1901 2.320 . S
Tb1859 O1902 2.552 . S
Tb1859 O1903 2.413 . S
Tb1859 C1923 2.833 . S
N1860 C1852 1.360 . S
N1860 Tb1859 2.660 . S
N1860 C1861 1.305 . S
C1861 N1860 1.305 . S
C1861 C1863 1.407 . S
C1861 H1868 0.930 . S
C1862 C1850 1.410 1_655 S
C1862 C1863 1.345 1_655 S
C1862 H1870 0.930 . S
C1863 C1861 1.407 . S
C1863 C1862 1.345 1_455 S
C1863 H1865 0.930 . S
H1864 C1857 0.930 . S
H1865 C1863 0.930 . S
H1866 C1854 0.930 . S
H1867 C1855 0.931 . S
H1868 C1861 0.930 . S
H1869 C1883 0.930 . S
H1870 C1862 0.930 . S
H1871 C1889 0.930 . S
H1872 C1880 0.930 . S
H1873 C1887 0.931 . S
H1874 C1851 0.929 . S
H1875 C1881 0.930 . S
H1876 C1914 0.930 . S
H1877 C1858 0.930 . S
H1878 C1913 0.926 1_545 S
N1879 Tb1848 2.660 . S
N1879 C1880 1.305 . S
N1879 C1884 1.360 . S
C1880 H1872 0.930 . S
C1880 N1879 1.305 . S
C1880 C1883 1.407 . S
C1881 H1875 0.930 . S
C1881 C1882 1.410 . S
C1881 C1883 1.345 . S
C1882 C1881 1.410 . S
C1882 C1884 1.417 . S
C1882 C1914 1.432 1_565 S
C1883 H1869 0.930 . S
C1883 C1880 1.407 . S
C1883 C1881 1.345 . S
C1884 N1879 1.360 . S
C1884 C1882 1.417 . S
C1884 C1888 1.432 . S
H1885 C1890 0.930 . S
N1886 Tb1848 2.600 . S
N1886 C1888 1.359 . S
N1886 C1889 1.327 . S
C1887 H1873 0.931 . S
C1887 C1889 1.392 . S
C1887 C1890 1.370 . S
C1888 C1884 1.432 . S
C1888 N1886 1.359 . S
C1888 C1891 1.414 . S
C1889 H1871 0.930 . S
C1889 N1886 1.327 . S
C1889 C1887 1.392 . S
C1890 H1885 0.930 . S
C1890 C1887 1.370 . S
C1890 C1891 1.385 . S
C1891 C1888 1.414 . S
C1891 C1890 1.385 . S
C1891 C1913 1.445 . S
O1892 Tb1848 2.546 . S
O1892 C1912 1.251 . S
O1893 Tb1848 2.610 . S
O1893 Tb1859 2.362 . S
O1893 C1904 1.283 . S
O1894 Tb1859 2.421 . S
O1894 C1911 1.262 . S
O1895 Tb1848 2.320 . S
O1895 C1911 1.260 . S
O1896 Tb1848 2.552 . S
O1896 C1904 1.243 . S
O1897 Tb1848 2.413 . S
O1897 C1912 1.256 . S
O1898 Tb1859 2.546 . S
O1898 C1923 1.251 . S
O1899 Tb1848 2.362 . S
O1899 Tb1859 2.610 . S
O1899 C1915 1.283 . S
O1900 Tb1848 2.421 . S
O1900 C1922 1.262 . S
O1901 Tb1859 2.320 . S
O1901 C1922 1.260 . S
O1902 Tb1859 2.552 . S
O1902 C1915 1.243 . S
O1903 Tb1859 2.413 . S
O1903 C1923 1.256 . S
C1904 O1893 1.283 . S
C1904 O1896 1.243 . S
C1905 C1907 1.382 . S
C1905 C1909 1.393 . S
C1905 C1912 1.500 1_545 S
C1906 C1907 1.400 . S
C1906 C1908 1.384 . S
C1907 C1905 1.382 . S
C1907 C1906 1.400 . S
C1907 H1924 0.930 . S
C1908 C1906 1.384 . S
C1908 C1910 1.392 . S
C1908 H1925 0.931 . S
C1909 C1905 1.393 . S
C1909 C1910 1.401 . S
C1909 H1926 0.930 . S
C1910 C1908 1.392 . S
C1910 C1909 1.401 . S
C1910 H1927 0.930 . S
C1911 O1894 1.262 . S
C1911 O1895 1.260 . S
C1912 Tb1848 2.833 . S
C1912 O1892 1.251 . S
C1912 O1897 1.256 . S
C1912 C1905 1.500 1_565 S
C1913 H1878 0.926 1_565 S
C1913 C1891 1.445 . S
C1913 C1914 1.321 1_565 S
C1914 H1876 0.930 . S
C1914 C1882 1.432 1_545 S
C1914 C1913 1.321 1_545 S
C1915 O1899 1.283 . S
C1915 O1902 1.243 . S
C1916 C1917 1.382 . S
C1916 C1920 1.393 . S
C1916 C1923 1.500 . S
C1917 C1916 1.382 . S
C1917 C1918 1.400 . S
C1917 H1928 0.930 . S
C1918 C1917 1.400 . S
C1918 C1919 1.384 . S
C1919 C1918 1.384 . S
C1919 C1921 1.392 . S
C1919 H1929 0.931 . S
C1920 C1916 1.393 . S
C1920 C1921 1.401 . S
C1920 H1930 0.930 . S
C1921 C1919 1.392 . S
C1921 C1920 1.401 . S
C1921 H1931 0.930 . S
C1922 O1900 1.262 . S
C1922 O1901 1.260 . S
C1923 Tb1859 2.833 . S
C1923 O1898 1.251 . S
C1923 O1903 1.256 . S
C1923 C1916 1.500 . S
H1924 C1907 0.930 . S
H1925 C1908 0.931 . S
H1926 C1909 0.930 . S
H1927 C1910 0.930 . S
H1928 C1917 0.930 . S
H1929 C1919 0.931 . S
H1930 C1920 0.930 . S
H1931 C1921 0.930 . S
Tb1932 N1963 2.660 . S
Tb1932 N1970 2.600 . S
Tb1932 O1976 2.546 . S
Tb1932 O1977 2.610 . S
Tb1932 O1979 2.320 . S
Tb1932 O1980 2.552 . S
Tb1932 O1981 2.413 . S
Tb1932 O1983 2.362 . S
Tb1932 O1984 2.421 . S
Tb1932 C1996 2.833 . S
C1933 C1936 1.432 . S
C1933 C1937 1.414 . S
C1933 N1940 1.359 . S
C1934 C1936 1.417 . S
C1934 C1938 1.432 . S
C1934 C1946 1.410 . S
C1935 C1937 1.444 . S
C1935 C1938 1.317 . S
C1935 H1958 0.929 . S
C1936 C1933 1.432 . S
C1936 C1934 1.417 . S
C1936 N1944 1.360 . S
C1937 C1933 1.414 . S
C1937 C1935 1.444 . S
C1937 C1942 1.385 . S
C1938 C1934 1.432 . S
C1938 C1935 1.317 . S
C1938 H1950 0.930 . S
C1939 C1941 1.392 . S
C1939 C1942 1.370 . S
C1939 H1951 0.931 . S
N1940 C1933 1.359 . S
N1940 C1941 1.327 . S
N1940 Tb1943 2.600 . S
C1941 C1939 1.392 . S
C1941 N1940 1.327 . S
C1941 H1948 0.930 . S
C1942 C1937 1.385 . S
C1942 C1939 1.370 . S
C1942 H1961 0.930 . S
Tb1943 N1940 2.600 . S
Tb1943 N1944 2.660 . S
Tb1943 O1977 2.362 . S
Tb1943 O1978 2.421 . S
Tb1943 O1982 2.546 . S
Tb1943 O1983 2.610 . S
Tb1943 O1985 2.320 . S
Tb1943 O1986 2.552 . S
Tb1943 O1987 2.413 . S
Tb1943 C2007 2.833 . S
N1944 C1936 1.360 . S
N1944 Tb1943 2.660 . S
N1944 C1945 1.305 . S
C1945 N1944 1.305 . S
C1945 C1947 1.407 . S
C1945 H1952 0.930 . S
C1946 C1934 1.410 . S
C1946 C1947 1.345 . S
C1946 H1954 0.930 . S
C1947 C1945 1.407 . S
C1947 C1946 1.345 . S
C1947 H1949 0.930 . S
H1948 C1941 0.930 . S
H1949 C1947 0.930 . S
H1950 C1938 0.930 . S
H1951 C1939 0.931 . S
H1952 C1945 0.930 . S
H1953 C1967 0.930 . S
H1954 C1946 0.930 . S
H1955 C1973 0.930 . S
H1956 C1964 0.930 . S
H1957 C1971 0.931 . S
H1958 C1935 0.929 . S
H1959 C1965 0.930 . S
H1960 C1998 0.930 . S
H1961 C1942 0.930 . S
H1962 C1997 0.929 . S
N1963 Tb1932 2.660 . S
N1963 C1964 1.305 . S
N1963 C1968 1.360 . S
C1964 H1956 0.930 . S
C1964 N1963 1.305 . S
C1964 C1967 1.407 . S
C1965 H1959 0.930 . S
C1965 C1966 1.410 . S
C1965 C1967 1.345 . S
C1966 C1965 1.410 . S
C1966 C1968 1.417 . S
C1966 C1998 1.432 . S
C1967 H1953 0.930 . S
C1967 C1964 1.407 . S
C1967 C1965 1.345 . S
C1968 N1963 1.360 . S
C1968 C1966 1.417 . S
C1968 C1972 1.432 . S
H1969 C1974 0.930 . S
N1970 Tb1932 2.600 . S
N1970 C1972 1.359 . S
N1970 C1973 1.327 . S
C1971 H1957 0.931 . S
C1971 C1973 1.392 . S
C1971 C1974 1.370 . S
C1972 C1968 1.432 . S
C1972 N1970 1.359 . S
C1972 C1975 1.414 . S
C1973 H1955 0.930 . S
C1973 N1970 1.327 . S
C1973 C1971 1.392 . S
C1974 H1969 0.930 . S
C1974 C1971 1.370 . S
C1974 C1975 1.385 . S
C1975 C1972 1.414 . S
C1975 C1974 1.385 . S
C1975 C1997 1.444 . S
O1976 Tb1932 2.546 . S
O1976 C1996 1.251 . S
O1977 Tb1932 2.610 . S
O1977 Tb1943 2.362 . S
O1977 C1988 1.283 . S
O1978 Tb1943 2.421 . S
O1978 C1995 1.262 . S
O1979 Tb1932 2.320 . S
O1979 C1995 1.260 . S
O1980 Tb1932 2.552 . S
O1980 C1988 1.243 . S
O1981 Tb1932 2.413 . S
O1981 C1996 1.256 . S
O1982 Tb1943 2.546 . S
O1982 C2007 1.251 . S
O1983 Tb1932 2.362 . S
O1983 Tb1943 2.610 . S
O1983 C1999 1.283 . S
O1984 Tb1932 2.421 . S
O1984 C2006 1.262 . S
O1985 Tb1943 2.320 . S
O1985 C2006 1.260 . S
O1986 Tb1943 2.552 . S
O1986 C1999 1.243 . S
O1987 Tb1943 2.413 . S
O1987 C2007 1.256 . S
C1988 O1977 1.283 . S
C1988 O1980 1.243 . S
C1989 C1991 1.382 . S
C1989 C1993 1.393 . S
C1989 C1996 1.500 . S
C1990 C1991 1.400 1_655 S
C1990 C1992 1.384 . S
C1991 C1989 1.382 . S
C1991 C1990 1.400 1_455 S
C1991 H2008 0.930 . S
C1992 C1990 1.384 . S
C1992 C1994 1.392 . S
C1992 H2009 0.931 . S
C1993 C1989 1.393 . S
C1993 C1994 1.401 1_455 S
C1993 H2010 0.930 . S
C1994 C1992 1.392 . S
C1994 C1993 1.401 1_655 S
C1994 H2011 0.930 . S
C1995 O1978 1.262 . S
C1995 O1979 1.260 . S
C1996 Tb1932 2.833 . S
C1996 O1976 1.251 . S
C1996 O1981 1.256 . S
C1996 C1989 1.500 . S
C1997 H1962 0.929 . S
C1997 C1975 1.444 . S
C1997 C1998 1.317 . S
C1998 H1960 0.930 . S
C1998 C1966 1.432 . S
C1998 C1997 1.317 . S
C1999 O1983 1.283 . S
C1999 O1986 1.243 . S
C2000 C2001 1.382 . S
C2000 C2004 1.393 . S
C2000 C2007 1.500 . S
C2001 C2000 1.382 . S
C2001 C2002 1.400 . S
C2001 H2012 0.930 . S
C2002 C2001 1.400 . S
C2002 C2003 1.384 . S
C2003 C2002 1.384 . S
C2003 C2005 1.392 . S
C2003 H2013 0.931 . S
C2004 C2000 1.393 . S
C2004 C2005 1.401 . S
C2004 H2014 0.930 . S
C2005 C2003 1.392 . S
C2005 C2004 1.401 . S
C2005 H2015 0.930 . S
C2006 O1984 1.262 . S
C2006 O1985 1.260 . S
C2007 Tb1943 2.833 . S
C2007 O1982 1.251 . S
C2007 O1987 1.256 . S
C2007 C2000 1.500 . S
H2008 C1991 0.930 . S
H2009 C1992 0.931 . S
H2010 C1993 0.930 . S
H2011 C1994 0.930 . S
H2012 C2001 0.930 . S
H2013 C2003 0.931 . S
H2014 C2004 0.930 . S
H2015 C2005 0.930 . S
Tb2016 N2047 2.660 . S
Tb2016 N2054 2.600 . S
Tb2016 O2060 2.546 . S
Tb2016 O2061 2.610 . S
Tb2016 O2063 2.320 . S
Tb2016 O2064 2.552 . S
Tb2016 O2065 2.413 . S
Tb2016 O2067 2.362 . S
Tb2016 O2068 2.421 . S
Tb2016 C2080 2.833 . S
C2017 C2020 1.432 . S
C2017 C2021 1.414 1_655 S
C2017 N2024 1.359 . S
C2018 C2020 1.417 1_455 S
C2018 C2022 1.432 . S
C2018 C2030 1.410 . S
C2019 C2021 1.444 . S
C2019 C2022 1.317 . S
C2019 H2042 0.929 . S
C2020 C2017 1.432 . S
C2020 C2018 1.417 1_655 S
C2020 N2028 1.360 . S
C2021 C2017 1.414 1_455 S
C2021 C2019 1.444 . S
C2021 C2026 1.385 1_455 S
C2022 C2018 1.432 . S
C2022 C2019 1.317 . S
C2022 H2034 0.930 . S
C2023 C2025 1.392 . S
C2023 C2026 1.370 . S
C2023 H2035 0.931 . S
N2024 C2017 1.359 . S
N2024 C2025 1.327 . S
N2024 Tb2027 2.600 . S
C2025 C2023 1.392 . S
C2025 N2024 1.327 . S
C2025 H2032 0.930 . S
C2026 C2021 1.385 1_655 S
C2026 C2023 1.370 . S
C2026 H2045 0.930 1_655 S
Tb2027 N2024 2.600 . S
Tb2027 N2028 2.660 . S
Tb2027 O2061 2.362 . S
Tb2027 O2062 2.421 . S
Tb2027 O2066 2.546 . S
Tb2027 O2067 2.610 . S
Tb2027 O2069 2.320 . S
Tb2027 O2070 2.552 . S
Tb2027 O2071 2.413 . S
Tb2027 C2091 2.833 . S
N2028 C2020 1.360 . S
N2028 Tb2027 2.660 . S
N2028 C2029 1.305 . S
C2029 N2028 1.305 . S
C2029 C2031 1.407 1_655 S
C2029 H2036 0.930 . S
C2030 C2018 1.410 . S
C2030 C2031 1.345 . S
C2030 H2038 0.930 . S
C2031 C2029 1.407 1_455 S
C2031 C2030 1.345 . S
C2031 H2033 0.930 . S
H2032 C2025 0.930 . S
H2033 C2031 0.930 . S
H2034 C2022 0.930 . S
H2035 C2023 0.931 . S
H2036 C2029 0.930 . S
H2037 C2051 0.930 . S
H2038 C2030 0.930 . S
H2039 C2057 0.930 . S
H2040 C2048 0.930 . S
H2041 C2055 0.931 . S
H2042 C2019 0.929 . S
H2043 C2049 0.930 . S
H2044 C2082 0.930 . S
H2045 C2026 0.930 1_455 S
H2046 C2081 0.929 . S
N2047 Tb2016 2.660 . S
N2047 C2048 1.305 . S
N2047 C2052 1.360 . S
C2048 H2040 0.930 . S
C2048 N2047 1.305 . S
C2048 C2051 1.407 . S
C2049 H2043 0.930 . S
C2049 C2050 1.410 . S
C2049 C2051 1.345 . S
C2050 C2049 1.410 . S
C2050 C2052 1.417 . S
C2050 C2082 1.432 . S
C2051 H2037 0.930 . S
C2051 C2048 1.407 . S
C2051 C2049 1.345 . S
C2052 N2047 1.360 . S
C2052 C2050 1.417 . S
C2052 C2056 1.432 . S
H2053 C2058 0.930 . S
N2054 Tb2016 2.600 . S
N2054 C2056 1.359 . S
N2054 C2057 1.327 . S
C2055 H2041 0.931 . S
C2055 C2057 1.392 . S
C2055 C2058 1.370 . S
C2056 C2052 1.432 . S
C2056 N2054 1.359 . S
C2056 C2059 1.414 . S
C2057 H2039 0.930 . S
C2057 N2054 1.327 . S
C2057 C2055 1.392 . S
C2058 H2053 0.930 . S
C2058 C2055 1.370 . S
C2058 C2059 1.385 . S
C2059 C2056 1.414 . S
C2059 C2058 1.385 . S
C2059 C2081 1.444 . S
O2060 Tb2016 2.546 . S
O2060 C2080 1.251 . S
O2061 Tb2016 2.610 . S
O2061 Tb2027 2.362 . S
O2061 C2072 1.283 . S
O2062 Tb2027 2.421 . S
O2062 C2079 1.262 . S
O2063 Tb2016 2.320 . S
O2063 C2079 1.260 . S
O2064 Tb2016 2.552 . S
O2064 C2072 1.243 . S
O2065 Tb2016 2.413 . S
O2065 C2080 1.256 . S
O2066 Tb2027 2.546 . S
O2066 C2091 1.251 . S
O2067 Tb2016 2.362 . S
O2067 Tb2027 2.610 . S
O2067 C2083 1.283 . S
O2068 Tb2016 2.421 . S
O2068 C2090 1.262 . S
O2069 Tb2027 2.320 . S
O2069 C2090 1.260 . S
O2070 Tb2027 2.552 . S
O2070 C2083 1.243 . S
O2071 Tb2027 2.413 . S
O2071 C2091 1.256 . S
C2072 O2061 1.283 . S
C2072 O2064 1.243 . S
C2073 C2075 1.382 . S
C2073 C2077 1.393 . S
C2073 C2080 1.500 . S
C2074 C2075 1.400 . S
C2074 C2076 1.384 . S
C2075 C2073 1.382 . S
C2075 C2074 1.400 . S
C2075 H2092 0.930 . S
C2076 C2074 1.384 . S
C2076 C2078 1.392 . S
C2076 H2093 0.931 . S
C2077 C2073 1.393 . S
C2077 C2078 1.401 . S
C2077 H2094 0.930 . S
C2078 C2076 1.392 . S
C2078 C2077 1.401 . S
C2078 H2095 0.930 . S
C2079 O2062 1.262 . S
C2079 O2063 1.260 . S
C2080 Tb2016 2.833 . S
C2080 O2060 1.251 . S
C2080 O2065 1.256 . S
C2080 C2073 1.500 . S
C2081 H2046 0.929 . S
C2081 C2059 1.444 . S
C2081 C2082 1.317 . S
C2082 H2044 0.930 . S
C2082 C2050 1.432 . S
C2082 C2081 1.317 . S
C2083 O2067 1.283 . S
C2083 O2070 1.243 . S
C2084 C2085 1.382 . S
C2084 C2088 1.393 . S
C2084 C2091 1.500 . S
C2085 C2084 1.382 . S
C2085 C2086 1.400 . S
C2085 H2096 0.930 . S
C2086 C2085 1.400 . S
C2086 C2087 1.384 . S
C2087 C2086 1.384 . S
C2087 C2089 1.392 . S
C2087 H2097 0.931 . S
C2088 C2084 1.393 . S
C2088 C2089 1.401 . S
C2088 H2098 0.930 . S
C2089 C2087 1.392 . S
C2089 C2088 1.401 . S
C2089 H2099 0.930 . S
C2090 O2068 1.262 . S
C2090 O2069 1.260 . S
C2091 Tb2027 2.833 . S
C2091 O2066 1.251 . S
C2091 O2071 1.256 . S
C2091 C2084 1.500 . S
H2092 C2075 0.930 . S
H2093 C2076 0.931 . S
H2094 C2077 0.930 . S
H2095 C2078 0.930 . S
H2096 C2085 0.930 . S
H2097 C2087 0.931 . S
H2098 C2088 0.930 . S
H2099 C2089 0.930 . S
Tb2100 N2131 2.660 . S
Tb2100 N2138 2.600 . S
Tb2100 O2144 2.546 . S
Tb2100 O2145 2.610 . S
Tb2100 O2147 2.320 . S
Tb2100 O2148 2.552 . S
Tb2100 O2149 2.413 . S
Tb2100 O2151 2.362 . S
Tb2100 O2152 2.421 . S
Tb2100 C2164 2.833 . S
C2101 C2104 1.432 . S
C2101 C2105 1.414 . S
C2101 N2108 1.359 . S
C2102 C2104 1.417 . S
C2102 C2106 1.432 . S
C2102 C2114 1.410 . S
C2103 C2105 1.444 . S
C2103 C2106 1.317 . S
C2103 H2126 0.929 . S
C2104 C2101 1.432 . S
C2104 C2102 1.417 . S
C2104 N2112 1.360 . S
C2105 C2101 1.414 . S
C2105 C2103 1.444 . S
C2105 C2110 1.385 . S
C2106 C2102 1.432 . S
C2106 C2103 1.317 . S
C2106 H2118 0.930 . S
C2107 C2109 1.392 . S
C2107 C2110 1.370 . S
C2107 H2119 0.931 . S
N2108 C2101 1.359 . S
N2108 C2109 1.327 . S
N2108 Tb2111 2.600 . S
C2109 C2107 1.392 . S
C2109 N2108 1.327 . S
C2109 H2116 0.930 . S
C2110 C2105 1.385 . S
C2110 C2107 1.370 . S
C2110 H2129 0.930 . S
Tb2111 N2108 2.600 . S
Tb2111 N2112 2.660 . S
Tb2111 O2145 2.362 . S
Tb2111 O2146 2.421 . S
Tb2111 O2150 2.546 . S
Tb2111 O2151 2.610 . S
Tb2111 O2153 2.320 . S
Tb2111 O2154 2.552 . S
Tb2111 O2155 2.413 . S
Tb2111 C2175 2.833 . S
N2112 C2104 1.360 . S
N2112 Tb2111 2.660 . S
N2112 C2113 1.305 . S
C2113 N2112 1.305 . S
C2113 C2115 1.407 . S
C2113 H2120 0.930 . S
C2114 C2102 1.410 . S
C2114 C2115 1.345 . S
C2114 H2122 0.930 . S
C2115 C2113 1.407 . S
C2115 C2114 1.345 . S
C2115 H2117 0.930 . S
H2116 C2109 0.930 . S
H2117 C2115 0.930 . S
H2118 C2106 0.930 . S
H2119 C2107 0.931 . S
H2120 C2113 0.930 . S
H2121 C2135 0.930 . S
H2122 C2114 0.930 . S
H2123 C2141 0.930 . S
H2124 C2132 0.930 . S
H2125 C2139 0.931 . S
H2126 C2103 0.929 . S
H2127 C2133 0.930 . S
H2128 C2166 0.930 . S
H2129 C2110 0.930 . S
H2130 C2165 0.929 . S
N2131 Tb2100 2.660 . S
N2131 C2132 1.305 . S
N2131 C2136 1.360 . S
C2132 H2124 0.930 . S
C2132 N2131 1.305 . S
C2132 C2135 1.407 . S
C2133 H2127 0.930 . S
C2133 C2134 1.410 . S
C2133 C2135 1.345 . S
C2134 C2133 1.410 . S
C2134 C2136 1.417 . S
C2134 C2166 1.432 . S
C2135 H2121 0.930 . S
C2135 C2132 1.407 . S
C2135 C2133 1.345 . S
C2136 N2131 1.360 . S
C2136 C2134 1.417 . S
C2136 C2140 1.432 . S
H2137 C2142 0.930 . S
N2138 Tb2100 2.600 . S
N2138 C2140 1.359 . S
N2138 C2141 1.327 . S
C2139 H2125 0.931 . S
C2139 C2141 1.392 . S
C2139 C2142 1.370 . S
C2140 C2136 1.432 . S
C2140 N2138 1.359 . S
C2140 C2143 1.414 . S
C2141 H2123 0.930 . S
C2141 N2138 1.327 . S
C2141 C2139 1.392 . S
C2142 H2137 0.930 . S
C2142 C2139 1.370 . S
C2142 C2143 1.385 . S
C2143 C2140 1.414 . S
C2143 C2142 1.385 . S
C2143 C2165 1.444 . S
O2144 Tb2100 2.546 . S
O2144 C2164 1.251 . S
O2145 Tb2100 2.610 . S
O2145 Tb2111 2.362 . S
O2145 C2156 1.283 . S
O2146 Tb2111 2.421 . S
O2146 C2163 1.262 . S
O2147 Tb2100 2.320 . S
O2147 C2163 1.260 . S
O2148 Tb2100 2.552 . S
O2148 C2156 1.243 . S
O2149 Tb2100 2.413 . S
O2149 C2164 1.256 . S
O2150 Tb2111 2.546 . S
O2150 C2175 1.251 . S
O2151 Tb2100 2.362 . S
O2151 Tb2111 2.610 . S
O2151 C2167 1.283 . S
O2152 Tb2100 2.421 . S
O2152 C2174 1.262 . S
O2153 Tb2111 2.320 . S
O2153 C2174 1.260 . S
O2154 Tb2111 2.552 . S
O2154 C2167 1.243 . S
O2155 Tb2111 2.413 . S
O2155 C2175 1.256 . S
C2156 O2145 1.283 . S
C2156 O2148 1.243 . S
C2157 C2159 1.382 . S
C2157 C2161 1.393 . S
C2157 C2164 1.500 1_565 S
C2158 C2159 1.400 . S
C2158 C2160 1.384 . S
C2159 C2157 1.382 . S
C2159 C2158 1.400 . S
C2159 H2176 0.930 . S
C2160 C2158 1.384 . S
C2160 C2162 1.392 . S
C2160 H2177 0.931 . S
C2161 C2157 1.393 . S
C2161 C2162 1.401 . S
C2161 H2178 0.930 . S
C2162 C2160 1.392 . S
C2162 C2161 1.401 . S
C2162 H2179 0.930 . S
C2163 O2146 1.262 . S
C2163 O2147 1.260 . S
C2164 Tb2100 2.833 . S
C2164 O2144 1.251 . S
C2164 O2149 1.256 . S
C2164 C2157 1.500 1_545 S
C2165 H2130 0.929 . S
C2165 C2143 1.444 . S
C2165 C2166 1.317 . S
C2166 H2128 0.930 . S
C2166 C2134 1.432 . S
C2166 C2165 1.317 . S
C2167 O2151 1.283 . S
C2167 O2154 1.243 . S
C2168 C2169 1.382 . S
C2168 C2172 1.393 . S
C2168 C2175 1.500 . S
C2169 C2168 1.382 . S
C2169 C2170 1.400 . S
C2169 H2180 0.930 . S
C2170 C2169 1.400 . S
C2170 C2171 1.384 . S
C2171 C2170 1.384 . S
C2171 C2173 1.392 . S
C2171 H2181 0.931 . S
C2172 C2168 1.393 . S
C2172 C2173 1.401 . S
C2172 H2182 0.930 . S
C2173 C2171 1.392 . S
C2173 C2172 1.401 . S
C2173 H2183 0.930 . S
C2174 O2152 1.262 . S
C2174 O2153 1.260 . S
C2175 Tb2111 2.833 . S
C2175 O2150 1.251 . S
C2175 O2155 1.256 . S
C2175 C2168 1.500 . S
H2176 C2159 0.930 . S
H2177 C2160 0.931 . S
H2178 C2161 0.930 . S
H2179 C2162 0.930 . S
H2180 C2169 0.930 . S
H2181 C2171 0.931 . S
H2182 C2172 0.930 . S
H2183 C2173 0.930 . S
Tb2184 N2215 2.660 . S
Tb2184 N2222 2.600 . S
Tb2184 O2228 2.546 . S
Tb2184 O2229 2.610 . S
Tb2184 O2231 2.320 . S
Tb2184 O2232 2.552 . S
Tb2184 O2233 2.413 1_655 S
Tb2184 O2235 2.362 . S
Tb2184 O2236 2.421 . S
Tb2184 C2248 2.833 1_655 S
C2185 C2188 1.432 . S
C2185 C2189 1.414 . S
C2185 N2192 1.359 . S
C2186 C2188 1.417 . S
C2186 C2190 1.432 1_545 S
C2186 C2198 1.410 . S
C2187 C2189 1.444 . S
C2187 C2190 1.317 1_545 S
C2187 H2210 0.929 1_545 S
C2188 C2185 1.432 . S
C2188 C2186 1.417 . S
C2188 N2196 1.360 . S
C2189 C2185 1.414 . S
C2189 C2187 1.444 . S
C2189 C2194 1.385 . S
C2190 C2186 1.432 1_565 S
C2190 C2187 1.317 1_565 S
C2190 H2202 0.930 . S
C2191 C2193 1.392 . S
C2191 C2194 1.370 . S
C2191 H2203 0.931 . S
N2192 C2185 1.359 . S
N2192 C2193 1.327 . S
N2192 Tb2195 2.600 . S
C2193 C2191 1.392 . S
C2193 N2192 1.327 . S
C2193 H2200 0.930 . S
C2194 C2189 1.385 . S
C2194 C2191 1.370 . S
C2194 H2213 0.930 . S
Tb2195 N2192 2.600 . S
Tb2195 N2196 2.660 . S
Tb2195 O2229 2.362 . S
Tb2195 O2230 2.421 . S
Tb2195 O2234 2.546 . S
Tb2195 O2235 2.610 . S
Tb2195 O2237 2.320 . S
Tb2195 O2238 2.552 . S
Tb2195 O2239 2.413 . S
Tb2195 C2259 2.833 . S
N2196 C2188 1.360 . S
N2196 Tb2195 2.660 . S
N2196 C2197 1.305 . S
C2197 N2196 1.305 . S
C2197 C2199 1.407 . S
C2197 H2204 0.930 . S
C2198 C2186 1.410 . S
C2198 C2199 1.345 . S
C2198 H2206 0.930 1_545 S
C2199 C2197 1.407 . S
C2199 C2198 1.345 . S
C2199 H2201 0.930 . S
H2200 C2193 0.930 . S
H2201 C2199 0.930 . S
H2202 C2190 0.930 . S
H2203 C2191 0.931 . S
H2204 C2197 0.930 . S
H2205 C2219 0.930 . S
H2206 C2198 0.930 1_565 S
H2207 C2225 0.930 . S
H2208 C2216 0.930 . S
H2209 C2223 0.931 . S
H2210 C2187 0.929 1_565 S
H2211 C2217 0.930 . S
H2212 C2250 0.930 . S
H2213 C2194 0.930 . S
H2214 C2249 0.929 . S
N2215 Tb2184 2.660 . S
N2215 C2216 1.305 . S
N2215 C2220 1.360 1_655 S
C2216 H2208 0.930 . S
C2216 N2215 1.305 . S
C2216 C2219 1.407 1_655 S
C2217 H2211 0.930 . S
C2217 C2218 1.410 . S
C2217 C2219 1.345 . S
C2218 C2217 1.410 . S
C2218 C2220 1.417 . S
C2218 C2250 1.432 . S
C2219 H2205 0.930 . S
C2219 C2216 1.407 1_455 S
C2219 C2217 1.345 . S
C2220 N2215 1.360 1_455 S
C2220 C2218 1.417 . S
C2220 C2224 1.430 . S
H2221 C2226 0.930 . S
N2222 Tb2184 2.600 . S
N2222 C2224 1.357 1_655 S
N2222 C2225 1.327 . S
C2223 H2209 0.931 . S
C2223 C2225 1.392 . S
C2223 C2226 1.370 1_655 S
C2224 C2220 1.430 . S
C2224 N2222 1.357 1_455 S
C2224 C2227 1.418 . S
C2225 H2207 0.930 . S
C2225 N2222 1.327 . S
C2225 C2223 1.392 . S
C2226 H2221 0.930 . S
C2226 C2223 1.370 1_455 S
C2226 C2227 1.385 . S
C2227 C2224 1.418 . S
C2227 C2226 1.385 . S
C2227 C2249 1.444 . S
O2228 Tb2184 2.546 . S
O2228 C2248 1.251 1_655 S
O2229 Tb2184 2.610 . S
O2229 Tb2195 2.362 . S
O2229 C2240 1.283 . S
O2230 Tb2195 2.421 . S
O2230 C2247 1.262 . S
O2231 Tb2184 2.320 . S
O2231 C2247 1.260 . S
O2232 Tb2184 2.552 . S
O2232 C2240 1.243 . S
O2233 Tb2184 2.413 1_455 S
O2233 C2248 1.256 . S
O2234 Tb2195 2.546 . S
O2234 C2259 1.251 . S
O2235 Tb2184 2.362 . S
O2235 Tb2195 2.610 . S
O2235 C2251 1.283 . S
O2236 Tb2184 2.421 . S
O2236 C2258 1.262 . S
O2237 Tb2195 2.320 . S
O2237 C2258 1.260 . S
O2238 Tb2195 2.552 . S
O2238 C2251 1.243 . S
O2239 Tb2195 2.413 . S
O2239 C2259 1.256 . S
C2240 O2229 1.283 . S
C2240 O2232 1.243 . S
C2241 C2243 1.382 . S
C2241 C2245 1.393 . S
C2241 C2248 1.500 . S
C2242 C2243 1.400 . S
C2242 C2244 1.384 . S
C2243 C2241 1.382 . S
C2243 C2242 1.400 . S
C2243 H2260 0.930 . S
C2244 C2242 1.384 . S
C2244 C2246 1.392 . S
C2244 H2261 0.931 . S
C2245 C2241 1.393 . S
C2245 C2246 1.401 . S
C2245 H2262 0.930 . S
C2246 C2244 1.392 . S
C2246 C2245 1.401 . S
C2246 H2263 0.930 . S
C2247 O2230 1.262 . S
C2247 O2231 1.260 . S
C2248 Tb2184 2.833 1_455 S
C2248 O2228 1.251 1_455 S
C2248 O2233 1.256 . S
C2248 C2241 1.500 . S
C2249 H2214 0.929 . S
C2249 C2227 1.444 . S
C2249 C2250 1.317 . S
C2250 H2212 0.930 . S
C2250 C2218 1.432 . S
C2250 C2249 1.317 . S
C2251 O2235 1.283 . S
C2251 O2238 1.243 . S
C2252 C2253 1.382 . S
C2252 C2256 1.393 . S
C2252 C2259 1.500 . S
C2253 C2252 1.382 . S
C2253 C2254 1.400 . S
C2253 H2264 0.930 . S
C2254 C2253 1.400 . S
C2254 C2255 1.384 . S
C2255 C2254 1.384 . S
C2255 C2257 1.392 . S
C2255 H2265 0.931 . S
C2256 C2252 1.393 . S
C2256 C2257 1.401 . S
C2256 H2266 0.930 . S
C2257 C2255 1.392 . S
C2257 C2256 1.401 . S
C2257 H2267 0.930 . S
C2258 O2236 1.262 . S
C2258 O2237 1.260 . S
C2259 Tb2195 2.833 . S
C2259 O2234 1.251 . S
C2259 O2239 1.256 . S
C2259 C2252 1.500 . S
H2260 C2243 0.930 . S
H2261 C2244 0.931 . S
H2262 C2245 0.930 . S
H2263 C2246 0.930 . S
H2264 C2253 0.930 . S
H2265 C2255 0.931 . S
H2266 C2256 0.930 . S
H2267 C2257 0.930 . S
Tb2268 N2299 2.660 . S
Tb2268 N2306 2.600 . S
Tb2268 O2312 2.546 . S
Tb2268 O2313 2.610 . S
Tb2268 O2315 2.320 . S
Tb2268 O2316 2.552 . S
Tb2268 O2317 2.413 . S
Tb2268 O2319 2.362 . S
Tb2268 O2320 2.421 . S
Tb2268 C2332 2.833 . S
C2269 C2272 1.432 . S
C2269 C2273 1.414 . S
C2269 N2276 1.359 . S
C2270 C2272 1.417 . S
C2270 C2274 1.432 . S
C2270 C2282 1.410 . S
C2271 C2273 1.444 . S
C2271 C2274 1.317 . S
C2271 H2294 0.929 . S
C2272 C2269 1.432 . S
C2272 C2270 1.417 . S
C2272 N2280 1.360 . S
C2273 C2269 1.414 . S
C2273 C2271 1.444 . S
C2273 C2278 1.385 . S
C2274 C2270 1.432 . S
C2274 C2271 1.317 . S
C2274 H2286 0.930 . S
C2275 C2277 1.392 . S
C2275 C2278 1.370 . S
C2275 H2287 0.931 . S
N2276 C2269 1.359 . S
N2276 C2277 1.327 . S
N2276 Tb2279 2.600 . S
C2277 C2275 1.392 . S
C2277 N2276 1.327 . S
C2277 H2284 0.930 . S
C2278 C2273 1.385 . S
C2278 C2275 1.370 . S
C2278 H2297 0.930 . S
Tb2279 N2276 2.600 . S
Tb2279 N2280 2.660 . S
Tb2279 O2313 2.362 . S
Tb2279 O2314 2.421 . S
Tb2279 O2318 2.546 . S
Tb2279 O2319 2.610 . S
Tb2279 O2321 2.320 . S
Tb2279 O2322 2.552 . S
Tb2279 O2323 2.413 . S
Tb2279 C2343 2.833 . S
N2280 C2272 1.360 . S
N2280 Tb2279 2.660 . S
N2280 C2281 1.305 . S
C2281 N2280 1.305 . S
C2281 C2283 1.407 . S
C2281 H2288 0.930 . S
C2282 C2270 1.410 . S
C2282 C2283 1.345 . S
C2282 H2290 0.930 . S
C2283 C2281 1.407 . S
C2283 C2282 1.345 . S
C2283 H2285 0.930 . S
H2284 C2277 0.930 . S
H2285 C2283 0.930 . S
H2286 C2274 0.930 . S
H2287 C2275 0.931 . S
H2288 C2281 0.930 . S
H2289 C2303 0.930 . S
H2290 C2282 0.930 . S
H2291 C2309 0.930 . S
H2292 C2300 0.930 . S
H2293 C2307 0.931 . S
H2294 C2271 0.929 . S
H2295 C2301 0.930 . S
H2296 C2334 0.930 . S
H2297 C2278 0.930 . S
H2298 C2333 0.929 . S
N2299 Tb2268 2.660 . S
N2299 C2300 1.305 . S
N2299 C2304 1.360 . S
C2300 H2292 0.930 . S
C2300 N2299 1.305 . S
C2300 C2303 1.407 . S
C2301 H2295 0.930 . S
C2301 C2302 1.410 1_565 S
C2301 C2303 1.345 1_565 S
C2302 C2301 1.410 1_545 S
C2302 C2304 1.417 . S
C2302 C2334 1.432 1_545 S
C2303 H2289 0.930 . S
C2303 C2300 1.407 . S
C2303 C2301 1.345 1_545 S
C2304 N2299 1.360 . S
C2304 C2302 1.417 . S
C2304 C2308 1.432 . S
H2305 C2310 0.930 . S
N2306 Tb2268 2.600 . S
N2306 C2308 1.359 . S
N2306 C2309 1.327 . S
C2307 H2293 0.931 . S
C2307 C2309 1.392 . S
C2307 C2310 1.370 . S
C2308 C2304 1.432 . S
C2308 N2306 1.359 . S
C2308 C2311 1.414 . S
C2309 H2291 0.930 . S
C2309 N2306 1.327 . S
C2309 C2307 1.392 . S
C2310 H2305 0.930 . S
C2310 C2307 1.370 . S
C2310 C2311 1.385 . S
C2311 C2308 1.414 . S
C2311 C2310 1.385 . S
C2311 C2333 1.444 1_545 S
O2312 Tb2268 2.546 . S
O2312 C2332 1.251 . S
O2313 Tb2268 2.610 . S
O2313 Tb2279 2.362 . S
O2313 C2324 1.283 . S
O2314 Tb2279 2.421 . S
O2314 C2331 1.262 . S
O2315 Tb2268 2.320 . S
O2315 C2331 1.260 . S
O2316 Tb2268 2.552 . S
O2316 C2324 1.243 . S
O2317 Tb2268 2.413 . S
O2317 C2332 1.256 . S
O2318 Tb2279 2.546 . S
O2318 C2343 1.251 . S
O2319 Tb2268 2.362 . S
O2319 Tb2279 2.610 . S
O2319 C2335 1.283 . S
O2320 Tb2268 2.421 . S
O2320 C2342 1.262 . S
O2321 Tb2279 2.320 . S
O2321 C2342 1.260 . S
O2322 Tb2279 2.552 . S
O2322 C2335 1.243 . S
O2323 Tb2279 2.413 . S
O2323 C2343 1.256 . S
C2324 O2313 1.283 . S
C2324 O2316 1.243 . S
C2325 C2327 1.382 . S
C2325 C2329 1.393 . S
C2325 C2332 1.500 . S
C2326 C2327 1.400 . S
C2326 C2328 1.384 . S
C2327 C2325 1.382 . S
C2327 C2326 1.400 . S
C2327 H2344 0.930 . S
C2328 C2326 1.384 . S
C2328 C2330 1.392 . S
C2328 H2345 0.931 . S
C2329 C2325 1.393 . S
C2329 C2330 1.401 . S
C2329 H2346 0.930 . S
C2330 C2328 1.392 . S
C2330 C2329 1.401 . S
C2330 H2347 0.930 . S
C2331 O2314 1.262 . S
C2331 O2315 1.260 . S
C2332 Tb2268 2.833 . S
C2332 O2312 1.251 . S
C2332 O2317 1.256 . S
C2332 C2325 1.500 . S
C2333 H2298 0.929 . S
C2333 C2311 1.444 1_565 S
C2333 C2334 1.317 . S
C2334 H2296 0.930 . S
C2334 C2302 1.432 1_565 S
C2334 C2333 1.317 . S
C2335 O2319 1.283 . S
C2335 O2322 1.243 . S
C2336 C2337 1.382 . S
C2336 C2340 1.393 . S
C2336 C2343 1.500 . S
C2337 C2336 1.382 . S
C2337 C2338 1.400 . S
C2337 H2348 0.930 . S
C2338 C2337 1.400 . S
C2338 C2339 1.384 . S
C2339 C2338 1.384 . S
C2339 C2341 1.392 . S
C2339 H2349 0.931 . S
C2340 C2336 1.393 . S
C2340 C2341 1.401 . S
C2340 H2350 0.930 . S
C2341 C2339 1.392 . S
C2341 C2340 1.401 . S
C2341 H2351 0.930 . S
C2342 O2320 1.262 . S
C2342 O2321 1.260 . S
C2343 Tb2279 2.833 . S
C2343 O2318 1.251 . S
C2343 O2323 1.256 . S
C2343 C2336 1.500 . S
H2344 C2327 0.930 . S
H2345 C2328 0.931 . S
H2346 C2329 0.930 . S
H2347 C2330 0.930 . S
H2348 C2337 0.930 . S
H2349 C2339 0.931 . S
H2350 C2340 0.930 . S
H2351 C2341 0.930 . S
Tb2352 N2383 2.660 . S
Tb2352 N2390 2.600 . S
Tb2352 O2396 2.546 . S
Tb2352 O2397 2.610 . S
Tb2352 O2399 2.320 . S
Tb2352 O2400 2.552 . S
Tb2352 O2401 2.413 . S
Tb2352 O2403 2.362 . S
Tb2352 O2404 2.421 . S
Tb2352 C2416 2.833 . S
C2353 C2356 1.432 . S
C2353 C2357 1.414 . S
C2353 N2360 1.359 . S
C2354 C2356 1.417 . S
C2354 C2358 1.432 . S
C2354 C2366 1.410 . S
C2355 C2357 1.444 . S
C2355 C2358 1.317 . S
C2355 H2378 0.929 . S
C2356 C2353 1.432 . S
C2356 C2354 1.417 . S
C2356 N2364 1.360 . S
C2357 C2353 1.414 . S
C2357 C2355 1.444 . S
C2357 C2362 1.385 . S
C2358 C2354 1.432 . S
C2358 C2355 1.317 . S
C2358 H2370 0.930 . S
C2359 C2361 1.392 . S
C2359 C2362 1.370 . S
C2359 H2371 0.931 . S
N2360 C2353 1.359 . S
N2360 C2361 1.327 . S
N2360 Tb2363 2.600 . S
C2361 C2359 1.392 . S
C2361 N2360 1.327 . S
C2361 H2368 0.930 . S
C2362 C2357 1.385 . S
C2362 C2359 1.370 . S
C2362 H2381 0.930 . S
Tb2363 N2360 2.600 . S
Tb2363 N2364 2.660 . S
Tb2363 O2397 2.362 . S
Tb2363 O2398 2.421 . S
Tb2363 O2402 2.546 . S
Tb2363 O2403 2.610 . S
Tb2363 O2405 2.320 . S
Tb2363 O2406 2.552 . S
Tb2363 O2407 2.413 . S
Tb2363 C2427 2.833 . S
N2364 C2356 1.360 . S
N2364 Tb2363 2.660 . S
N2364 C2365 1.305 . S
C2365 N2364 1.305 . S
C2365 C2367 1.407 . S
C2365 H2372 0.930 . S
C2366 C2354 1.410 . S
C2366 C2367 1.345 . S
C2366 H2374 0.930 . S
C2367 C2365 1.407 . S
C2367 C2366 1.345 . S
C2367 H2369 0.930 . S
H2368 C2361 0.930 . S
H2369 C2367 0.930 . S
H2370 C2358 0.930 . S
H2371 C2359 0.931 . S
H2372 C2365 0.930 . S
H2373 C2387 0.930 . S
H2374 C2366 0.930 . S
H2375 C2393 0.930 . S
H2376 C2384 0.930 . S
H2377 C2391 0.931 . S
H2378 C2355 0.929 . S
H2379 C2385 0.930 . S
H2380 C2418 0.930 . S
H2381 C2362 0.930 . S
H2382 C2417 0.929 . S
N2383 Tb2352 2.660 . S
N2383 C2384 1.305 . S
N2383 C2388 1.360 1_655 S
C2384 H2376 0.930 . S
C2384 N2383 1.305 . S
C2384 C2387 1.407 1_655 S
C2385 H2379 0.930 . S
C2385 C2386 1.410 . S
C2385 C2387 1.345 . S
C2386 C2385 1.410 . S
C2386 C2388 1.417 . S
C2386 C2418 1.432 . S
C2387 H2373 0.930 . S
C2387 C2384 1.407 1_455 S
C2387 C2385 1.345 . S
C2388 N2383 1.360 1_455 S
C2388 C2386 1.417 . S
C2388 C2392 1.432 1_455 S
H2389 C2394 0.930 . S
N2390 Tb2352 2.600 . S
N2390 C2392 1.359 . S
N2390 C2393 1.327 . S
C2391 H2377 0.931 . S
C2391 C2393 1.392 . S
C2391 C2394 1.370 1_655 S
C2392 C2388 1.432 1_655 S
C2392 N2390 1.359 . S
C2392 C2395 1.414 1_655 S
C2393 H2375 0.930 . S
C2393 N2390 1.327 . S
C2393 C2391 1.392 . S
C2394 H2389 0.930 . S
C2394 C2391 1.370 1_455 S
C2394 C2395 1.385 . S
C2395 C2392 1.414 1_455 S
C2395 C2394 1.385 . S
C2395 C2417 1.444 . S
O2396 Tb2352 2.546 . S
O2396 C2416 1.251 . S
O2397 Tb2352 2.610 . S
O2397 Tb2363 2.362 . S
O2397 C2408 1.283 . S
O2398 Tb2363 2.421 . S
O2398 C2415 1.262 . S
O2399 Tb2352 2.320 . S
O2399 C2415 1.260 . S
O2400 Tb2352 2.552 . S
O2400 C2408 1.243 . S
O2401 Tb2352 2.413 . S
O2401 C2416 1.256 . S
O2402 Tb2363 2.546 . S
O2402 C2427 1.251 . S
O2403 Tb2352 2.362 . S
O2403 Tb2363 2.610 . S
O2403 C2419 1.283 . S
O2404 Tb2352 2.421 . S
O2404 C2426 1.262 . S
O2405 Tb2363 2.320 . S
O2405 C2426 1.260 . S
O2406 Tb2363 2.552 . S
O2406 C2419 1.243 . S
O2407 Tb2363 2.413 . S
O2407 C2427 1.256 . S
C2408 O2397 1.283 . S
C2408 O2400 1.243 . S
C2409 C2411 1.382 . S
C2409 C2413 1.393 . S
C2409 C2416 1.500 . S
C2410 C2411 1.400 . S
C2410 C2412 1.384 . S
C2411 C2409 1.382 . S
C2411 C2410 1.400 . S
C2411 H2428 0.930 . S
C2412 C2410 1.384 . S
C2412 C2414 1.392 . S
C2412 H2429 0.931 . S
C2413 C2409 1.393 . S
C2413 C2414 1.401 . S
C2413 H2430 0.930 . S
C2414 C2412 1.392 . S
C2414 C2413 1.401 . S
C2414 H2431 0.930 . S
C2415 O2398 1.262 . S
C2415 O2399 1.260 . S
C2416 Tb2352 2.833 . S
C2416 O2396 1.251 . S
C2416 O2401 1.256 . S
C2416 C2409 1.500 . S
C2417 H2382 0.929 . S
C2417 C2395 1.444 . S
C2417 C2418 1.317 . S
C2418 H2380 0.930 . S
C2418 C2386 1.432 . S
C2418 C2417 1.317 . S
C2419 O2403 1.283 . S
C2419 O2406 1.243 . S
C2420 C2421 1.382 . S
C2420 C2424 1.393 . S
C2420 C2427 1.500 . S
C2421 C2420 1.382 . S
C2421 C2422 1.400 1_545 S
C2421 H2432 0.930 . S
C2422 C2421 1.400 1_565 S
C2422 C2423 1.384 . S
C2423 C2422 1.384 . S
C2423 C2425 1.392 . S
C2423 H2433 0.931 . S
C2424 C2420 1.393 . S
C2424 C2425 1.401 1_545 S
C2424 H2434 0.930 . S
C2425 C2423 1.392 . S
C2425 C2424 1.401 1_565 S
C2425 H2435 0.930 . S
C2426 O2404 1.262 . S
C2426 O2405 1.260 . S
C2427 Tb2363 2.833 . S
C2427 O2402 1.251 . S
C2427 O2407 1.256 . S
C2427 C2420 1.500 . S
H2428 C2411 0.930 . S
H2429 C2412 0.931 . S
H2430 C2413 0.930 . S
H2431 C2414 0.930 . S
H2432 C2421 0.930 . S
H2433 C2423 0.931 . S
H2434 C2424 0.930 . S
H2435 C2425 0.930 . S
Tb2436 N2467 2.660 . S
Tb2436 N2474 2.600 . S
Tb2436 O2480 2.546 . S
Tb2436 O2481 2.610 . S
Tb2436 O2483 2.320 . S
Tb2436 O2484 2.552 . S
Tb2436 O2485 2.413 . S
Tb2436 O2487 2.362 . S
Tb2436 O2488 2.421 . S
Tb2436 C2500 2.833 . S
C2437 C2440 1.432 . S
C2437 C2441 1.414 . S
C2437 N2444 1.359 . S
C2438 C2440 1.417 . S
C2438 C2442 1.432 1_655 S
C2438 C2450 1.410 . S
C2439 C2441 1.464 . S
C2439 C2442 1.312 1_655 S
C2439 H2462 0.915 1_655 S
C2440 C2437 1.432 . S
C2440 C2438 1.417 . S
C2440 N2448 1.360 . S
C2441 C2437 1.414 . S
C2441 C2439 1.464 . S
C2441 C2446 1.385 . S
C2442 C2438 1.432 1_455 S
C2442 C2439 1.312 1_455 S
C2442 H2454 0.930 . S
C2443 C2445 1.392 . S
C2443 C2446 1.370 . S
C2443 H2455 0.931 . S
N2444 C2437 1.359 . S
N2444 C2445 1.327 . S
N2444 Tb2447 2.600 . S
C2445 C2443 1.392 . S
C2445 N2444 1.327 . S
C2445 H2452 0.930 . S
C2446 C2441 1.385 . S
C2446 C2443 1.370 . S
C2446 H2465 0.930 . S
Tb2447 N2444 2.600 . S
Tb2447 N2448 2.660 . S
Tb2447 O2481 2.362 . S
Tb2447 O2482 2.421 . S
Tb2447 O2486 2.546 . S
Tb2447 O2487 2.610 . S
Tb2447 O2489 2.320 . S
Tb2447 O2490 2.552 . S
Tb2447 O2491 2.413 . S
Tb2447 C2511 2.833 . S
N2448 C2440 1.360 . S
N2448 Tb2447 2.660 . S
N2448 C2449 1.305 . S
C2449 N2448 1.305 . S
C2449 C2451 1.407 . S
C2449 H2456 0.930 . S
C2450 C2438 1.410 . S
C2450 C2451 1.345 . S
C2450 H2458 0.952 . S
C2451 C2449 1.407 . S
C2451 C2450 1.345 . S
C2451 H2453 0.930 . S
H2452 C2445 0.930 . S
H2453 C2451 0.930 . S
H2454 C2442 0.930 . S
H2455 C2443 0.931 . S
H2456 C2449 0.930 . S
H2457 C2471 0.930 . S
H2458 C2450 0.952 . S
H2459 C2477 0.930 . S
H2460 C2468 0.930 . S
H2461 C2475 0.931 . S
H2462 C2439 0.915 1_455 S
H2463 C2469 0.930 . S
H2464 C2502 0.930 . S
H2465 C2446 0.930 . S
H2466 C2501 0.929 . S
N2467 Tb2436 2.660 . S
N2467 C2468 1.305 . S
N2467 C2472 1.360 . S
C2468 H2460 0.930 . S
C2468 N2467 1.305 . S
C2468 C2471 1.407 . S
C2469 H2463 0.930 . S
C2469 C2470 1.410 . S
C2469 C2471 1.345 . S
C2470 C2469 1.410 . S
C2470 C2472 1.417 . S
C2470 C2502 1.432 . S
C2471 H2457 0.930 . S
C2471 C2468 1.407 . S
C2471 C2469 1.345 . S
C2472 N2467 1.360 . S
C2472 C2470 1.417 . S
C2472 C2476 1.432 . S
H2473 C2478 0.930 . S
N2474 Tb2436 2.600 . S
N2474 C2476 1.359 . S
N2474 C2477 1.327 . S
C2475 H2461 0.931 . S
C2475 C2477 1.392 . S
C2475 C2478 1.370 . S
C2476 C2472 1.432 . S
C2476 N2474 1.359 . S
C2476 C2479 1.414 . S
C2477 H2459 0.930 . S
C2477 N2474 1.327 . S
C2477 C2475 1.392 . S
C2478 H2473 0.930 . S
C2478 C2475 1.370 . S
C2478 C2479 1.385 . S
C2479 C2476 1.414 . S
C2479 C2478 1.385 . S
C2479 C2501 1.444 . S
O2480 Tb2436 2.546 . S
O2480 C2500 1.251 . S
O2481 Tb2436 2.610 . S
O2481 Tb2447 2.362 . S
O2481 C2492 1.283 . S
O2482 Tb2447 2.421 . S
O2482 C2499 1.262 . S
O2483 Tb2436 2.320 . S
O2483 C2499 1.260 . S
O2484 Tb2436 2.552 . S
O2484 C2492 1.243 . S
O2485 Tb2436 2.413 . S
O2485 C2500 1.256 . S
O2486 Tb2447 2.546 . S
O2486 C2511 1.251 . S
O2487 Tb2436 2.362 . S
O2487 Tb2447 2.610 . S
O2487 C2503 1.283 . S
O2488 Tb2436 2.421 . S
O2488 C2510 1.262 . S
O2489 Tb2447 2.320 . S
O2489 C2510 1.260 . S
O2490 Tb2447 2.552 . S
O2490 C2503 1.243 . S
O2491 Tb2447 2.413 . S
O2491 C2511 1.256 . S
C2492 O2481 1.283 . S
C2492 O2484 1.243 . S
C2493 C2495 1.382 . S
C2493 C2497 1.393 . S
C2493 C2500 1.500 . S
C2494 C2495 1.400 . S
C2494 C2496 1.384 . S
C2495 C2493 1.382 . S
C2495 C2494 1.400 . S
C2495 H2512 0.930 . S
C2496 C2494 1.384 . S
C2496 C2498 1.392 . S
C2496 H2513 0.931 . S
C2497 C2493 1.393 . S
C2497 C2498 1.401 . S
C2497 H2514 0.930 . S
C2498 C2496 1.392 . S
C2498 C2497 1.401 . S
C2498 H2515 0.930 . S
C2499 O2482 1.262 . S
C2499 O2483 1.260 . S
C2500 Tb2436 2.833 . S
C2500 O2480 1.251 . S
C2500 O2485 1.256 . S
C2500 C2493 1.500 . S
C2501 H2466 0.929 . S
C2501 C2479 1.444 . S
C2501 C2502 1.317 . S
C2502 H2464 0.930 . S
C2502 C2470 1.432 . S
C2502 C2501 1.317 . S
C2503 O2487 1.283 . S
C2503 O2490 1.243 . S
C2504 C2505 1.382 . S
C2504 C2508 1.393 . S
C2504 C2511 1.500 1_455 S
C2505 C2504 1.382 . S
C2505 C2506 1.400 . S
C2505 H2516 0.930 . S
C2506 C2505 1.400 . S
C2506 C2507 1.384 . S
C2507 C2506 1.384 . S
C2507 C2509 1.392 . S
C2507 H2517 0.931 . S
C2508 C2504 1.393 . S
C2508 C2509 1.401 . S
C2508 H2518 0.930 . S
C2509 C2507 1.392 . S
C2509 C2508 1.401 . S
C2509 H2519 0.930 . S
C2510 O2488 1.262 . S
C2510 O2489 1.260 . S
C2511 Tb2447 2.833 . S
C2511 O2486 1.251 . S
C2511 O2491 1.256 . S
C2511 C2504 1.500 1_655 S
H2512 C2495 0.930 . S
H2513 C2496 0.931 . S
H2514 C2497 0.930 . S
H2515 C2498 0.930 . S
H2516 C2505 0.930 . S
H2517 C2507 0.931 . S
H2518 C2508 0.930 . S
H2519 C2509 0.930 . S
Tb2520 N2551 2.660 . S
Tb2520 N2558 2.600 . S
Tb2520 O2564 2.546 . S
Tb2520 O2565 2.610 . S
Tb2520 O2567 2.320 . S
Tb2520 O2568 2.552 . S
Tb2520 O2569 2.413 . S
Tb2520 O2571 2.362 . S
Tb2520 O2572 2.421 . S
Tb2520 C2584 2.833 . S
C2521 C2524 1.432 1_655 S
C2521 C2525 1.414 1_655 S
C2521 N2528 1.359 . S
C2522 C2524 1.417 . S
C2522 C2526 1.432 . S
C2522 C2534 1.410 . S
C2523 C2525 1.444 . S
C2523 C2526 1.317 . S
C2523 H2546 0.929 . S
C2524 C2521 1.432 1_455 S
C2524 C2522 1.417 . S
C2524 N2532 1.360 1_455 S
C2525 C2521 1.414 1_455 S
C2525 C2523 1.444 . S
C2525 C2530 1.385 . S
C2526 C2522 1.432 . S
C2526 C2523 1.317 . S
C2526 H2538 0.930 . S
C2527 C2529 1.392 . S
C2527 C2530 1.370 1_655 S
C2527 H2539 0.931 . S
N2528 C2521 1.359 . S
N2528 C2529 1.327 . S
N2528 Tb2531 2.600 . S
C2529 C2527 1.392 . S
C2529 N2528 1.327 . S
C2529 H2536 0.930 . S
C2530 C2525 1.385 . S
C2530 C2527 1.370 1_455 S
C2530 H2549 0.930 . S
Tb2531 N2528 2.600 . S
Tb2531 N2532 2.660 . S
Tb2531 O2565 2.362 . S
Tb2531 O2566 2.421 . S
Tb2531 O2570 2.546 . S
Tb2531 O2571 2.610 . S
Tb2531 O2573 2.320 . S
Tb2531 O2574 2.552 . S
Tb2531 O2575 2.413 . S
Tb2531 C2595 2.833 . S
N2532 C2524 1.360 1_655 S
N2532 Tb2531 2.660 . S
N2532 C2533 1.305 . S
C2533 N2532 1.305 . S
C2533 C2535 1.407 1_655 S
C2533 H2540 0.930 . S
C2534 C2522 1.410 . S
C2534 C2535 1.345 . S
C2534 H2542 0.930 . S
C2535 C2533 1.407 1_455 S
C2535 C2534 1.345 . S
C2535 H2537 0.930 . S
H2536 C2529 0.930 . S
H2537 C2535 0.930 . S
H2538 C2526 0.930 . S
H2539 C2527 0.931 . S
H2540 C2533 0.930 . S
H2541 C2555 0.930 . S
H2542 C2534 0.930 . S
H2543 C2561 0.930 . S
H2544 C2552 0.930 . S
H2545 C2559 0.931 . S
H2546 C2523 0.929 . S
H2547 C2553 0.930 . S
H2548 C2586 0.930 . S
H2549 C2530 0.930 . S
H2550 C2585 0.929 . S
N2551 Tb2520 2.660 . S
N2551 C2552 1.305 . S
N2551 C2556 1.360 . S
C2552 H2544 0.930 . S
C2552 N2551 1.305 . S
C2552 C2555 1.407 . S
C2553 H2547 0.930 . S
C2553 C2554 1.410 . S
C2553 C2555 1.345 . S
C2554 C2553 1.410 . S
C2554 C2556 1.417 . S
C2554 C2586 1.432 . S
C2555 H2541 0.930 . S
C2555 C2552 1.407 . S
C2555 C2553 1.345 . S
C2556 N2551 1.360 . S
C2556 C2554 1.417 . S
C2556 C2560 1.432 . S
H2557 C2562 0.930 . S
N2558 Tb2520 2.600 . S
N2558 C2560 1.359 . S
N2558 C2561 1.327 . S
C2559 H2545 0.931 . S
C2559 C2561 1.392 . S
C2559 C2562 1.370 . S
C2560 C2556 1.432 . S
C2560 N2558 1.359 . S
C2560 C2563 1.414 . S
C2561 H2543 0.930 . S
C2561 N2558 1.327 . S
C2561 C2559 1.392 . S
C2562 H2557 0.930 . S
C2562 C2559 1.370 . S
C2562 C2563 1.385 . S
C2563 C2560 1.414 . S
C2563 C2562 1.385 . S
C2563 C2585 1.444 . S
O2564 Tb2520 2.546 . S
O2564 C2584 1.251 . S
O2565 Tb2520 2.610 . S
O2565 Tb2531 2.362 . S
O2565 C2576 1.283 . S
O2566 Tb2531 2.421 . S
O2566 C2583 1.262 . S
O2567 Tb2520 2.320 . S
O2567 C2583 1.260 . S
O2568 Tb2520 2.552 . S
O2568 C2576 1.243 . S
O2569 Tb2520 2.413 . S
O2569 C2584 1.256 . S
O2570 Tb2531 2.546 . S
O2570 C2595 1.251 . S
O2571 Tb2520 2.362 . S
O2571 Tb2531 2.610 . S
O2571 C2587 1.283 . S
O2572 Tb2520 2.421 . S
O2572 C2594 1.262 . S
O2573 Tb2531 2.320 . S
O2573 C2594 1.260 . S
O2574 Tb2531 2.552 . S
O2574 C2587 1.243 . S
O2575 Tb2531 2.413 . S
O2575 C2595 1.256 . S
C2576 O2565 1.283 . S
C2576 O2568 1.243 . S
C2577 C2579 1.382 . S
C2577 C2581 1.393 . S
C2577 C2584 1.500 . S
C2578 C2579 1.400 . S
C2578 C2580 1.384 . S
C2579 C2577 1.382 . S
C2579 C2578 1.400 . S
C2579 H2596 0.930 . S
C2580 C2578 1.384 . S
C2580 C2582 1.392 . S
C2580 H2597 0.931 . S
C2581 C2577 1.393 . S
C2581 C2582 1.401 . S
C2581 H2598 0.930 . S
C2582 C2580 1.392 . S
C2582 C2581 1.401 . S
C2582 H2599 0.930 . S
C2583 O2566 1.262 . S
C2583 O2567 1.260 . S
C2584 Tb2520 2.833 . S
C2584 O2564 1.251 . S
C2584 O2569 1.256 . S
C2584 C2577 1.500 . S
C2585 H2550 0.929 . S
C2585 C2563 1.444 . S
C2585 C2586 1.317 . S
C2586 H2548 0.930 . S
C2586 C2554 1.432 . S
C2586 C2585 1.317 . S
C2587 O2571 1.283 . S
C2587 O2574 1.243 . S
C2588 C2589 1.382 . S
C2588 C2592 1.393 . S
C2588 C2595 1.500 . S
C2589 C2588 1.382 . S
C2589 C2590 1.400 . S
C2589 H2600 0.930 . S
C2590 C2589 1.400 . S
C2590 C2591 1.384 . S
C2591 C2590 1.384 . S
C2591 C2593 1.392 . S
C2591 H2601 0.931 . S
C2592 C2588 1.393 . S
C2592 C2593 1.401 . S
C2592 H2602 0.930 . S
C2593 C2591 1.392 . S
C2593 C2592 1.401 . S
C2593 H2603 0.930 . S
C2594 O2572 1.262 . S
C2594 O2573 1.260 . S
C2595 Tb2531 2.833 . S
C2595 O2570 1.251 . S
C2595 O2575 1.256 . S
C2595 C2588 1.500 . S
H2596 C2579 0.930 . S
H2597 C2580 0.931 . S
H2598 C2581 0.930 . S
H2599 C2582 0.930 . S
H2600 C2589 0.930 . S
H2601 C2591 0.931 . S
H2602 C2592 0.930 . S
H2603 C2593 0.930 . S
Tb2604 N2635 2.660 . S
Tb2604 N2642 2.600 . S
Tb2604 O2648 2.546 . S
Tb2604 O2649 2.610 . S
Tb2604 O2651 2.320 . S
Tb2604 O2652 2.552 . S
Tb2604 O2653 2.413 . S
Tb2604 O2655 2.362 . S
Tb2604 O2656 2.421 . S
Tb2604 C2668 2.833 . S
C2605 C2608 1.432 . S
C2605 C2609 1.414 . S
C2605 N2612 1.359 . S
C2606 C2608 1.417 . S
C2606 C2610 1.432 . S
C2606 C2618 1.410 . S
C2607 C2609 1.444 . S
C2607 C2610 1.317 . S
C2607 H2630 0.929 . S
C2608 C2605 1.432 . S
C2608 C2606 1.417 . S
C2608 N2616 1.360 . S
C2609 C2605 1.414 . S
C2609 C2607 1.444 . S
C2609 C2614 1.385 . S
C2610 C2606 1.432 . S
C2610 C2607 1.317 . S
C2610 H2622 0.930 . S
C2611 C2613 1.392 . S
C2611 C2614 1.370 . S
C2611 H2623 0.931 . S
N2612 C2605 1.359 . S
N2612 C2613 1.327 . S
N2612 Tb2615 2.600 . S
C2613 C2611 1.392 . S
C2613 N2612 1.327 . S
C2613 H2620 0.930 . S
C2614 C2609 1.385 . S
C2614 C2611 1.370 . S
C2614 H2633 0.930 . S
Tb2615 N2612 2.600 . S
Tb2615 N2616 2.660 . S
Tb2615 O2649 2.362 . S
Tb2615 O2650 2.421 . S
Tb2615 O2654 2.546 . S
Tb2615 O2655 2.610 . S
Tb2615 O2657 2.320 . S
Tb2615 O2658 2.552 . S
Tb2615 O2659 2.413 . S
Tb2615 C2679 2.833 . S
N2616 C2608 1.360 . S
N2616 Tb2615 2.660 . S
N2616 C2617 1.305 . S
C2617 N2616 1.305 . S
C2617 C2619 1.407 . S
C2617 H2624 0.930 . S
C2618 C2606 1.410 . S
C2618 C2619 1.345 . S
C2618 H2626 0.930 . S
C2619 C2617 1.407 . S
C2619 C2618 1.345 . S
C2619 H2621 0.930 . S
H2620 C2613 0.930 . S
H2621 C2619 0.930 . S
H2622 C2610 0.930 . S
H2623 C2611 0.931 . S
H2624 C2617 0.930 . S
H2625 C2639 0.930 . S
H2626 C2618 0.930 . S
H2627 C2645 0.930 . S
H2628 C2636 0.930 . S
H2629 C2643 0.931 . S
H2630 C2607 0.929 . S
H2631 C2637 0.930 . S
H2632 C2670 0.930 . S
H2633 C2614 0.930 . S
H2634 C2669 0.929 . S
N2635 Tb2604 2.660 . S
N2635 C2636 1.305 . S
N2635 C2640 1.360 . S
C2636 H2628 0.930 . S
C2636 N2635 1.305 . S
C2636 C2639 1.407 . S
C2637 H2631 0.930 . S
C2637 C2638 1.410 . S
C2637 C2639 1.345 . S
C2638 C2637 1.410 . S
C2638 C2640 1.417 . S
C2638 C2670 1.432 . S
C2639 H2625 0.930 . S
C2639 C2636 1.407 . S
C2639 C2637 1.345 . S
C2640 N2635 1.360 . S
C2640 C2638 1.417 . S
C2640 C2644 1.432 . S
H2641 C2646 0.930 . S
N2642 Tb2604 2.600 . S
N2642 C2644 1.359 . S
N2642 C2645 1.327 . S
C2643 H2629 0.931 . S
C2643 C2645 1.392 . S
C2643 C2646 1.370 . S
C2644 C2640 1.432 . S
C2644 N2642 1.359 . S
C2644 C2647 1.414 . S
C2645 H2627 0.930 . S
C2645 N2642 1.327 . S
C2645 C2643 1.392 . S
C2646 H2641 0.930 . S
C2646 C2643 1.370 . S
C2646 C2647 1.385 . S
C2647 C2644 1.414 . S
C2647 C2646 1.385 . S
C2647 C2669 1.444 . S
O2648 Tb2604 2.546 . S
O2648 C2668 1.251 . S
O2649 Tb2604 2.610 . S
O2649 Tb2615 2.362 . S
O2649 C2660 1.283 . S
O2650 Tb2615 2.421 . S
O2650 C2667 1.262 . S
O2651 Tb2604 2.320 . S
O2651 C2667 1.260 . S
O2652 Tb2604 2.552 . S
O2652 C2660 1.243 . S
O2653 Tb2604 2.413 . S
O2653 C2668 1.256 . S
O2654 Tb2615 2.546 . S
O2654 C2679 1.251 . S
O2655 Tb2604 2.362 . S
O2655 Tb2615 2.610 . S
O2655 C2671 1.283 . S
O2656 Tb2604 2.421 . S
O2656 C2678 1.262 . S
O2657 Tb2615 2.320 . S
O2657 C2678 1.260 . S
O2658 Tb2615 2.552 . S
O2658 C2671 1.243 . S
O2659 Tb2615 2.413 . S
O2659 C2679 1.256 . S
C2660 O2649 1.283 . S
C2660 O2652 1.243 . S
C2661 C2663 1.382 . S
C2661 C2665 1.393 . S
C2661 C2668 1.500 . S
C2662 C2663 1.400 1_565 S
C2662 C2664 1.384 . S
C2663 C2661 1.382 . S
C2663 C2662 1.400 1_545 S
C2663 H2680 0.930 . S
C2664 C2662 1.384 . S
C2664 C2666 1.392 . S
C2664 H2681 0.931 . S
C2665 C2661 1.393 . S
C2665 C2666 1.401 1_545 S
C2665 H2682 0.930 . S
C2666 C2664 1.392 . S
C2666 C2665 1.401 1_565 S
C2666 H2683 0.930 . S
C2667 O2650 1.262 . S
C2667 O2651 1.260 . S
C2668 Tb2604 2.833 . S
C2668 O2648 1.251 . S
C2668 O2653 1.256 . S
C2668 C2661 1.500 . S
C2669 H2634 0.929 . S
C2669 C2647 1.444 . S
C2669 C2670 1.317 . S
C2670 H2632 0.930 . S
C2670 C2638 1.432 . S
C2670 C2669 1.317 . S
C2671 O2655 1.283 . S
C2671 O2658 1.243 . S
C2672 C2673 1.382 . S
C2672 C2676 1.393 . S
C2672 C2679 1.500 . S
C2673 C2672 1.382 . S
C2673 C2674 1.400 . S
C2673 H2684 0.930 . S
C2674 C2673 1.400 . S
C2674 C2675 1.384 . S
C2675 C2674 1.384 . S
C2675 C2677 1.392 . S
C2675 H2685 0.931 . S
C2676 C2672 1.393 . S
C2676 C2677 1.401 . S
C2676 H2686 0.930 . S
C2677 C2675 1.392 . S
C2677 C2676 1.401 . S
C2677 H2687 0.930 . S
C2678 O2656 1.262 . S
C2678 O2657 1.260 . S
C2679 Tb2615 2.833 . S
C2679 O2654 1.251 . S
C2679 O2659 1.256 . S
C2679 C2672 1.500 . S
H2680 C2663 0.930 . S
H2681 C2664 0.931 . S
H2682 C2665 0.930 . S
H2683 C2666 0.930 . S
H2684 C2673 0.930 . S
H2685 C2675 0.931 . S
H2686 C2676 0.930 . S
H2687 C2677 0.930 . S
Tb2688 N2719 2.660 . S
Tb2688 N2726 2.600 . S
Tb2688 O2732 2.546 . S
Tb2688 O2733 2.610 . S
Tb2688 O2735 2.320 . S
Tb2688 O2736 2.552 . S
Tb2688 O2737 2.413 . S
Tb2688 O2739 2.362 . S
Tb2688 O2740 2.421 . S
Tb2688 C2752 2.833 . S
C2689 C2692 1.432 . S
C2689 C2693 1.414 . S
C2689 N2696 1.359 . S
C2690 C2692 1.417 . S
C2690 C2694 1.432 1_545 S
C2690 C2702 1.410 1_545 S
C2691 C2693 1.444 1_565 S
C2691 C2694 1.317 . S
C2691 H2714 0.929 . S
C2692 C2689 1.432 . S
C2692 C2690 1.417 . S
C2692 N2700 1.360 . S
C2693 C2689 1.414 . S
C2693 C2691 1.444 1_545 S
C2693 C2698 1.385 . S
C2694 C2690 1.432 1_565 S
C2694 C2691 1.317 . S
C2694 H2706 0.930 . S
C2695 C2697 1.392 . S
C2695 C2698 1.370 . S
C2695 H2707 0.931 . S
N2696 C2689 1.359 . S
N2696 C2697 1.327 . S
N2696 Tb2699 2.600 . S
C2697 C2695 1.392 . S
C2697 N2696 1.327 . S
C2697 H2704 0.930 . S
C2698 C2693 1.385 . S
C2698 C2695 1.370 . S
C2698 H2717 0.930 . S
Tb2699 N2696 2.600 . S
Tb2699 N2700 2.660 . S
Tb2699 O2733 2.362 . S
Tb2699 O2734 2.421 . S
Tb2699 O2738 2.546 . S
Tb2699 O2739 2.610 . S
Tb2699 O2741 2.320 . S
Tb2699 O2742 2.552 . S
Tb2699 O2743 2.413 . S
Tb2699 C2763 2.833 . S
N2700 C2692 1.360 . S
N2700 Tb2699 2.660 . S
N2700 C2701 1.305 . S
C2701 N2700 1.305 . S
C2701 C2703 1.407 . S
C2701 H2708 0.930 . S
C2702 C2690 1.410 1_565 S
C2702 C2703 1.345 1_565 S
C2702 H2710 0.930 . S
C2703 C2701 1.407 . S
C2703 C2702 1.345 1_545 S
C2703 H2705 0.930 . S
H2704 C2697 0.930 . S
H2705 C2703 0.930 . S
H2706 C2694 0.930 . S
H2707 C2695 0.931 . S
H2708 C2701 0.930 . S
H2709 C2723 0.930 . S
H2710 C2702 0.930 . S
H2711 C2729 0.930 . S
H2712 C2720 0.930 . S
H2713 C2727 0.931 . S
H2714 C2691 0.929 . S
H2715 C2721 0.930 . S
H2716 C2754 0.930 . S
H2717 C2698 0.930 . S
H2718 C2753 0.926 1_455 S
N2719 Tb2688 2.660 . S
N2719 C2720 1.305 . S
N2719 C2724 1.360 . S
C2720 H2712 0.930 . S
C2720 N2719 1.305 . S
C2720 C2723 1.407 . S
C2721 H2715 0.930 . S
C2721 C2722 1.410 . S
C2721 C2723 1.345 . S
C2722 C2721 1.410 . S
C2722 C2724 1.417 . S
C2722 C2754 1.432 1_655 S
C2723 H2709 0.930 . S
C2723 C2720 1.407 . S
C2723 C2721 1.345 . S
C2724 N2719 1.360 . S
C2724 C2722 1.417 . S
C2724 C2728 1.432 . S
H2725 C2730 0.930 . S
N2726 Tb2688 2.600 . S
N2726 C2728 1.359 . S
N2726 C2729 1.327 . S
C2727 H2713 0.931 . S
C2727 C2729 1.392 . S
C2727 C2730 1.370 . S
C2728 C2724 1.432 . S
C2728 N2726 1.359 . S
C2728 C2731 1.414 . S
C2729 H2711 0.930 . S
C2729 N2726 1.327 . S
C2729 C2727 1.392 . S
C2730 H2725 0.930 . S
C2730 C2727 1.370 . S
C2730 C2731 1.385 . S
C2731 C2728 1.414 . S
C2731 C2730 1.385 . S
C2731 C2753 1.445 . S
O2732 Tb2688 2.546 . S
O2732 C2752 1.251 . S
O2733 Tb2688 2.610 . S
O2733 Tb2699 2.362 . S
O2733 C2744 1.283 . S
O2734 Tb2699 2.421 . S
O2734 C2751 1.262 . S
O2735 Tb2688 2.320 . S
O2735 C2751 1.260 . S
O2736 Tb2688 2.552 . S
O2736 C2744 1.243 . S
O2737 Tb2688 2.413 . S
O2737 C2752 1.256 . S
O2738 Tb2699 2.546 . S
O2738 C2763 1.251 . S
O2739 Tb2688 2.362 . S
O2739 Tb2699 2.610 . S
O2739 C2755 1.283 . S
O2740 Tb2688 2.421 . S
O2740 C2762 1.262 . S
O2741 Tb2699 2.320 . S
O2741 C2762 1.260 . S
O2742 Tb2699 2.552 . S
O2742 C2755 1.243 . S
O2743 Tb2699 2.413 . S
O2743 C2763 1.256 . S
C2744 O2733 1.283 . S
C2744 O2736 1.243 . S
C2745 C2747 1.382 . S
C2745 C2749 1.393 . S
C2745 C2752 1.500 1_455 S
C2746 C2747 1.400 . S
C2746 C2748 1.384 . S
C2747 C2745 1.382 . S
C2747 C2746 1.400 . S
C2747 H2764 0.930 . S
C2748 C2746 1.384 . S
C2748 C2750 1.392 . S
C2748 H2765 0.931 . S
C2749 C2745 1.393 . S
C2749 C2750 1.401 . S
C2749 H2766 0.930 . S
C2750 C2748 1.392 . S
C2750 C2749 1.401 . S
C2750 H2767 0.930 . S
C2751 O2734 1.262 . S
C2751 O2735 1.260 . S
C2752 Tb2688 2.833 . S
C2752 O2732 1.251 . S
C2752 O2737 1.256 . S
C2752 C2745 1.500 1_655 S
C2753 H2718 0.926 1_655 S
C2753 C2731 1.445 . S
C2753 C2754 1.321 1_655 S
C2754 H2716 0.930 . S
C2754 C2722 1.432 1_455 S
C2754 C2753 1.321 1_455 S
C2755 O2739 1.283 . S
C2755 O2742 1.243 . S
C2756 C2757 1.382 . S
C2756 C2760 1.393 . S
C2756 C2763 1.500 . S
C2757 C2756 1.382 . S
C2757 C2758 1.400 . S
C2757 H2768 0.930 . S
C2758 C2757 1.400 . S
C2758 C2759 1.384 . S
C2759 C2758 1.384 . S
C2759 C2761 1.392 . S
C2759 H2769 0.931 . S
C2760 C2756 1.393 . S
C2760 C2761 1.401 . S
C2760 H2770 0.930 . S
C2761 C2759 1.392 . S
C2761 C2760 1.401 . S
C2761 H2771 0.930 . S
C2762 O2740 1.262 . S
C2762 O2741 1.260 . S
C2763 Tb2699 2.833 . S
C2763 O2738 1.251 . S
C2763 O2743 1.256 . S
C2763 C2756 1.500 . S
H2764 C2747 0.930 . S
H2765 C2748 0.931 . S
H2766 C2749 0.930 . S
H2767 C2750 0.930 . S
H2768 C2757 0.930 . S
H2769 C2759 0.931 . S
H2770 C2760 0.930 . S
H2771 C2761 0.930 . S
Tb2772 N2803 2.660 . S
Tb2772 N2810 2.600 . S
Tb2772 O2816 2.546 . S
Tb2772 O2817 2.610 . S
Tb2772 O2819 2.320 . S
Tb2772 O2820 2.552 . S
Tb2772 O2821 2.413 . S
Tb2772 O2823 2.362 . S
Tb2772 O2824 2.421 . S
Tb2772 C2836 2.833 . S
C2773 C2776 1.432 . S
C2773 C2777 1.414 . S
C2773 N2780 1.359 . S
C2774 C2776 1.417 . S
C2774 C2778 1.432 . S
C2774 C2786 1.410 . S
C2775 C2777 1.444 . S
C2775 C2778 1.317 . S
C2775 H2798 0.929 . S
C2776 C2773 1.432 . S
C2776 C2774 1.417 . S
C2776 N2784 1.360 . S
C2777 C2773 1.414 . S
C2777 C2775 1.444 . S
C2777 C2782 1.385 . S
C2778 C2774 1.432 . S
C2778 C2775 1.317 . S
C2778 H2790 0.930 . S
C2779 C2781 1.392 . S
C2779 C2782 1.370 . S
C2779 H2791 0.931 . S
N2780 C2773 1.359 . S
N2780 C2781 1.327 . S
N2780 Tb2783 2.600 . S
C2781 C2779 1.392 . S
C2781 N2780 1.327 . S
C2781 H2788 0.930 . S
C2782 C2777 1.385 . S
C2782 C2779 1.370 . S
C2782 H2801 0.930 . S
Tb2783 N2780 2.600 . S
Tb2783 N2784 2.660 . S
Tb2783 O2817 2.362 . S
Tb2783 O2818 2.421 . S
Tb2783 O2822 2.546 . S
Tb2783 O2823 2.610 . S
Tb2783 O2825 2.320 . S
Tb2783 O2826 2.552 . S
Tb2783 O2827 2.413 . S
Tb2783 C2847 2.833 . S
N2784 C2776 1.360 . S
N2784 Tb2783 2.660 . S
N2784 C2785 1.305 . S
C2785 N2784 1.305 . S
C2785 C2787 1.407 . S
C2785 H2792 0.930 . S
C2786 C2774 1.410 . S
C2786 C2787 1.345 . S
C2786 H2794 0.930 . S
C2787 C2785 1.407 . S
C2787 C2786 1.345 . S
C2787 H2789 0.930 . S
H2788 C2781 0.930 . S
H2789 C2787 0.930 . S
H2790 C2778 0.930 . S
H2791 C2779 0.931 . S
H2792 C2785 0.930 . S
H2793 C2807 0.930 . S
H2794 C2786 0.930 . S
H2795 C2813 0.930 . S
H2796 C2804 0.930 . S
H2797 C2811 0.931 . S
H2798 C2775 0.929 . S
H2799 C2805 0.930 1_565 S
H2800 C2838 0.930 . S
H2801 C2782 0.930 . S
H2802 C2837 0.929 1_565 S
N2803 Tb2772 2.660 . S
N2803 C2804 1.305 . S
N2803 C2808 1.360 . S
C2804 H2796 0.930 . S
C2804 N2803 1.305 . S
C2804 C2807 1.407 . S
C2805 H2799 0.930 1_545 S
C2805 C2806 1.410 . S
C2805 C2807 1.345 . S
C2806 C2805 1.410 . S
C2806 C2808 1.417 . S
C2806 C2838 1.432 1_545 S
C2807 H2793 0.930 . S
C2807 C2804 1.407 . S
C2807 C2805 1.345 . S
C2808 N2803 1.360 . S
C2808 C2806 1.417 . S
C2808 C2812 1.432 . S
H2809 C2814 0.930 . S
N2810 Tb2772 2.600 . S
N2810 C2812 1.359 . S
N2810 C2813 1.327 . S
C2811 H2797 0.931 . S
C2811 C2813 1.392 . S
C2811 C2814 1.370 . S
C2812 C2808 1.432 . S
C2812 N2810 1.359 . S
C2812 C2815 1.414 . S
C2813 H2795 0.930 . S
C2813 N2810 1.327 . S
C2813 C2811 1.392 . S
C2814 H2809 0.930 . S
C2814 C2811 1.370 . S
C2814 C2815 1.385 . S
C2815 C2812 1.414 . S
C2815 C2814 1.385 . S
C2815 C2837 1.444 . S
O2816 Tb2772 2.546 . S
O2816 C2836 1.251 . S
O2817 Tb2772 2.610 . S
O2817 Tb2783 2.362 . S
O2817 C2828 1.283 . S
O2818 Tb2783 2.421 . S
O2818 C2835 1.262 . S
O2819 Tb2772 2.320 . S
O2819 C2835 1.260 . S
O2820 Tb2772 2.552 . S
O2820 C2828 1.243 . S
O2821 Tb2772 2.413 . S
O2821 C2836 1.256 . S
O2822 Tb2783 2.546 . S
O2822 C2847 1.251 . S
O2823 Tb2772 2.362 . S
O2823 Tb2783 2.610 . S
O2823 C2839 1.283 . S
O2824 Tb2772 2.421 . S
O2824 C2846 1.262 . S
O2825 Tb2783 2.320 . S
O2825 C2846 1.260 . S
O2826 Tb2783 2.552 . S
O2826 C2839 1.243 . S
O2827 Tb2783 2.413 . S
O2827 C2847 1.256 . S
C2828 O2817 1.283 . S
C2828 O2820 1.243 . S
C2829 C2831 1.382 . S
C2829 C2833 1.393 . S
C2829 C2836 1.500 . S
C2830 C2831 1.400 . S
C2830 C2832 1.384 . S
C2831 C2829 1.382 . S
C2831 C2830 1.400 . S
C2831 H2848 0.930 . S
C2832 C2830 1.384 . S
C2832 C2834 1.392 . S
C2832 H2849 0.931 . S
C2833 C2829 1.393 . S
C2833 C2834 1.401 . S
C2833 H2850 0.930 . S
C2834 C2832 1.392 . S
C2834 C2833 1.401 . S
C2834 H2851 0.930 . S
C2835 O2818 1.262 . S
C2835 O2819 1.260 . S
C2836 Tb2772 2.833 . S
C2836 O2816 1.251 . S
C2836 O2821 1.256 . S
C2836 C2829 1.500 . S
C2837 H2802 0.929 1_545 S
C2837 C2815 1.444 . S
C2837 C2838 1.317 1_545 S
C2838 H2800 0.930 . S
C2838 C2806 1.432 1_565 S
C2838 C2837 1.317 1_565 S
C2839 O2823 1.283 . S
C2839 O2826 1.243 . S
C2840 C2841 1.382 . S
C2840 C2844 1.393 . S
C2840 C2847 1.500 . S
C2841 C2840 1.382 . S
C2841 C2842 1.400 . S
C2841 H2852 0.930 . S
C2842 C2841 1.400 . S
C2842 C2843 1.384 . S
C2843 C2842 1.384 . S
C2843 C2845 1.392 . S
C2843 H2853 0.931 . S
C2844 C2840 1.393 . S
C2844 C2845 1.401 . S
C2844 H2854 0.930 . S
C2845 C2843 1.392 . S
C2845 C2844 1.401 . S
C2845 H2855 0.930 . S
C2846 O2824 1.262 . S
C2846 O2825 1.260 . S
C2847 Tb2783 2.833 . S
C2847 O2822 1.251 . S
C2847 O2827 1.256 . S
C2847 C2840 1.500 . S
H2848 C2831 0.930 . S
H2849 C2832 0.931 . S
H2850 C2833 0.930 . S
H2851 C2834 0.930 . S
H2852 C2841 0.930 . S
H2853 C2843 0.931 . S
H2854 C2844 0.930 . S
H2855 C2845 0.930 . S
Tb2856 N2887 2.660 . S
Tb2856 N2894 2.600 . S
Tb2856 O2900 2.546 . S
Tb2856 O2901 2.610 . S
Tb2856 O2903 2.320 . S
Tb2856 O2904 2.552 . S
Tb2856 O2905 2.413 . S
Tb2856 O2907 2.362 . S
Tb2856 O2908 2.421 . S
Tb2856 C2920 2.833 . S
C2857 C2860 1.432 . S
C2857 C2861 1.414 . S
C2857 N2864 1.359 . S
C2858 C2860 1.417 . S
C2858 C2862 1.432 . S
C2858 C2870 1.410 . S
C2859 C2861 1.444 . S
C2859 C2862 1.317 . S
C2859 H2882 0.929 . S
C2860 C2857 1.432 . S
C2860 C2858 1.417 . S
C2860 N2868 1.360 . S
C2861 C2857 1.414 . S
C2861 C2859 1.444 . S
C2861 C2866 1.385 . S
C2862 C2858 1.432 . S
C2862 C2859 1.317 . S
C2862 H2874 0.930 . S
C2863 C2865 1.392 . S
C2863 C2866 1.370 . S
C2863 H2875 0.931 . S
N2864 C2857 1.359 . S
N2864 C2865 1.327 . S
N2864 Tb2867 2.600 . S
C2865 C2863 1.392 . S
C2865 N2864 1.327 . S
C2865 H2872 0.930 . S
C2866 C2861 1.385 . S
C2866 C2863 1.370 . S
C2866 H2885 0.930 . S
Tb2867 N2864 2.600 . S
Tb2867 N2868 2.660 . S
Tb2867 O2901 2.362 . S
Tb2867 O2902 2.421 . S
Tb2867 O2906 2.546 . S
Tb2867 O2907 2.610 . S
Tb2867 O2909 2.320 . S
Tb2867 O2910 2.552 . S
Tb2867 O2911 2.413 . S
Tb2867 C2931 2.833 . S
N2868 C2860 1.360 . S
N2868 Tb2867 2.660 . S
N2868 C2869 1.305 . S
C2869 N2868 1.305 . S
C2869 C2871 1.407 . S
C2869 H2876 0.930 . S
C2870 C2858 1.410 . S
C2870 C2871 1.345 . S
C2870 H2878 0.930 . S
C2871 C2869 1.407 . S
C2871 C2870 1.345 . S
C2871 H2873 0.930 . S
H2872 C2865 0.930 . S
H2873 C2871 0.930 . S
H2874 C2862 0.930 . S
H2875 C2863 0.931 . S
H2876 C2869 0.930 . S
H2877 C2891 0.930 . S
H2878 C2870 0.930 . S
H2879 C2897 0.930 . S
H2880 C2888 0.930 . S
H2881 C2895 0.931 . S
H2882 C2859 0.929 . S
H2883 C2889 0.930 . S
H2884 C2922 0.930 . S
H2885 C2866 0.930 . S
H2886 C2921 0.929 . S
N2887 Tb2856 2.660 . S
N2887 C2888 1.305 . S
N2887 C2892 1.360 . S
C2888 H2880 0.930 . S
C2888 N2887 1.305 . S
C2888 C2891 1.407 1_655 S
C2889 H2883 0.930 . S
C2889 C2890 1.410 . S
C2889 C2891 1.345 . S
C2890 C2889 1.410 . S
C2890 C2892 1.417 1_455 S
C2890 C2922 1.432 . S
C2891 H2877 0.930 . S
C2891 C2888 1.407 1_455 S
C2891 C2889 1.345 . S
C2892 N2887 1.360 . S
C2892 C2890 1.417 1_655 S
C2892 C2896 1.432 . S
H2893 C2898 0.930 1_455 S
N2894 Tb2856 2.600 . S
N2894 C2896 1.359 . S
N2894 C2897 1.327 . S
C2895 H2881 0.931 . S
C2895 C2897 1.392 . S
C2895 C2898 1.370 . S
C2896 C2892 1.432 . S
C2896 N2894 1.359 . S
C2896 C2899 1.414 1_655 S
C2897 H2879 0.930 . S
C2897 N2894 1.327 . S
C2897 C2895 1.392 . S
C2898 H2893 0.930 1_655 S
C2898 C2895 1.370 . S
C2898 C2899 1.385 1_655 S
C2899 C2896 1.414 1_455 S
C2899 C2898 1.385 1_455 S
C2899 C2921 1.444 . S
O2900 Tb2856 2.546 . S
O2900 C2920 1.251 . S
O2901 Tb2856 2.610 . S
O2901 Tb2867 2.362 . S
O2901 C2912 1.283 . S
O2902 Tb2867 2.421 . S
O2902 C2919 1.262 . S
O2903 Tb2856 2.320 . S
O2903 C2919 1.260 . S
O2904 Tb2856 2.552 . S
O2904 C2912 1.243 . S
O2905 Tb2856 2.413 . S
O2905 C2920 1.256 . S
O2906 Tb2867 2.546 . S
O2906 C2931 1.251 . S
O2907 Tb2856 2.362 . S
O2907 Tb2867 2.610 . S
O2907 C2923 1.283 . S
O2908 Tb2856 2.421 . S
O2908 C2930 1.262 . S
O2909 Tb2867 2.320 . S
O2909 C2930 1.260 . S
O2910 Tb2867 2.552 . S
O2910 C2923 1.243 . S
O2911 Tb2867 2.413 . S
O2911 C2931 1.256 . S
C2912 O2901 1.283 . S
C2912 O2904 1.243 . S
C2913 C2915 1.382 . S
C2913 C2917 1.393 . S
C2913 C2920 1.500 . S
C2914 C2915 1.400 . S
C2914 C2916 1.384 . S
C2915 C2913 1.382 . S
C2915 C2914 1.400 . S
C2915 H2932 0.930 . S
C2916 C2914 1.384 . S
C2916 C2918 1.392 . S
C2916 H2933 0.931 . S
C2917 C2913 1.393 . S
C2917 C2918 1.401 . S
C2917 H2934 0.930 . S
C2918 C2916 1.392 . S
C2918 C2917 1.401 . S
C2918 H2935 0.930 . S
C2919 O2902 1.262 . S
C2919 O2903 1.260 . S
C2920 Tb2856 2.833 . S
C2920 O2900 1.251 . S
C2920 O2905 1.256 . S
C2920 C2913 1.500 . S
C2921 H2886 0.929 . S
C2921 C2899 1.444 . S
C2921 C2922 1.317 . S
C2922 H2884 0.930 . S
C2922 C2890 1.432 . S
C2922 C2921 1.317 . S
C2923 O2907 1.283 . S
C2923 O2910 1.243 . S
C2924 C2925 1.382 . S
C2924 C2928 1.393 . S
C2924 C2931 1.500 1_565 S
C2925 C2924 1.382 . S
C2925 C2926 1.400 . S
C2925 H2936 0.930 . S
C2926 C2925 1.400 . S
C2926 C2927 1.384 . S
C2927 C2926 1.384 . S
C2927 C2929 1.392 . S
C2927 H2937 0.931 . S
C2928 C2924 1.393 . S
C2928 C2929 1.401 . S
C2928 H2938 0.930 . S
C2929 C2927 1.392 . S
C2929 C2928 1.401 . S
C2929 H2939 0.930 . S
C2930 O2908 1.262 . S
C2930 O2909 1.260 . S
C2931 Tb2867 2.833 . S
C2931 O2906 1.251 . S
C2931 O2911 1.256 . S
C2931 C2924 1.500 1_545 S
H2932 C2915 0.930 . S
H2933 C2916 0.931 . S
H2934 C2917 0.930 . S
H2935 C2918 0.930 . S
H2936 C2925 0.930 . S
H2937 C2927 0.931 . S
H2938 C2928 0.930 . S
H2939 C2929 0.930 . S
Tb2940 N2971 2.660 . S
Tb2940 N2978 2.600 . S
Tb2940 O2984 2.546 . S
Tb2940 O2985 2.610 . S
Tb2940 O2987 2.320 . S
Tb2940 O2988 2.552 . S
Tb2940 O2989 2.413 . S
Tb2940 O2991 2.362 . S
Tb2940 O2992 2.421 . S
Tb2940 C3004 2.833 . S
C2941 C2944 1.439 . S
C2941 C2945 1.434 . S
C2941 N2948 1.331 1_455 S
C2942 C2944 1.417 . S
C2942 C2946 1.432 . S
C2942 C2954 1.410 . S
C2943 C2945 1.444 . S
C2943 C2946 1.317 . S
C2943 H2966 0.929 . S
C2944 C2941 1.439 . S
C2944 C2942 1.417 . S
C2944 N2952 1.360 1_455 S
C2945 C2941 1.434 . S
C2945 C2943 1.444 . S
C2945 C2950 1.385 . S
C2946 C2942 1.432 . S
C2946 C2943 1.317 . S
C2946 H2958 0.930 . S
C2947 C2949 1.392 . S
C2947 C2950 1.370 1_655 S
C2947 H2959 0.931 . S
N2948 C2941 1.331 1_655 S
N2948 C2949 1.327 . S
N2948 Tb2951 2.600 . S
C2949 C2947 1.392 . S
C2949 N2948 1.327 . S
C2949 H2956 0.930 . S
C2950 C2945 1.385 . S
C2950 C2947 1.370 1_455 S
C2950 H2969 0.930 . S
Tb2951 N2948 2.600 . S
Tb2951 N2952 2.660 . S
Tb2951 O2985 2.362 . S
Tb2951 O2986 2.421 . S
Tb2951 O2990 2.546 . S
Tb2951 O2991 2.610 . S
Tb2951 O2993 2.320 . S
Tb2951 O2994 2.552 . S
Tb2951 O2995 2.413 1_655 S
Tb2951 C3015 2.833 1_655 S
N2952 C2944 1.360 1_655 S
N2952 Tb2951 2.660 . S
N2952 C2953 1.305 . S
C2953 N2952 1.305 . S
C2953 C2955 1.407 1_655 S
C2953 H2960 0.930 . S
C2954 C2942 1.410 . S
C2954 C2955 1.345 . S
C2954 H2962 0.930 . S
C2955 C2953 1.407 1_455 S
C2955 C2954 1.345 . S
C2955 H2957 0.930 . S
H2956 C2949 0.930 . S
H2957 C2955 0.930 . S
H2958 C2946 0.930 . S
H2959 C2947 0.931 . S
H2960 C2953 0.930 . S
H2961 C2975 0.930 . S
H2962 C2954 0.930 . S
H2963 C2981 0.930 . S
H2964 C2972 0.930 . S
H2965 C2979 0.931 . S
H2966 C2943 0.929 . S
H2967 C2973 0.930 . S
H2968 C3006 0.930 . S
H2969 C2950 0.930 . S
H2970 C3005 0.929 . S
N2971 Tb2940 2.660 . S
N2971 C2972 1.305 . S
N2971 C2976 1.360 . S
C2972 H2964 0.930 . S
C2972 N2971 1.305 . S
C2972 C2975 1.407 . S
C2973 H2967 0.930 . S
C2973 C2974 1.410 . S
C2973 C2975 1.345 . S
C2974 C2973 1.410 . S
C2974 C2976 1.417 . S
C2974 C3006 1.432 . S
C2975 H2961 0.930 . S
C2975 C2972 1.407 . S
C2975 C2973 1.345 . S
C2976 N2971 1.360 . S
C2976 C2974 1.417 . S
C2976 C2980 1.432 . S
H2977 C2982 0.930 . S
N2978 Tb2940 2.600 . S
N2978 C2980 1.359 . S
N2978 C2981 1.327 . S
C2979 H2965 0.931 . S
C2979 C2981 1.392 . S
C2979 C2982 1.370 . S
C2980 C2976 1.432 . S
C2980 N2978 1.359 . S
C2980 C2983 1.414 . S
C2981 H2963 0.930 . S
C2981 N2978 1.327 . S
C2981 C2979 1.392 . S
C2982 H2977 0.930 . S
C2982 C2979 1.370 . S
C2982 C2983 1.385 . S
C2983 C2980 1.414 . S
C2983 C2982 1.385 . S
C2983 C3005 1.444 . S
O2984 Tb2940 2.546 . S
O2984 C3004 1.251 . S
O2985 Tb2940 2.610 . S
O2985 Tb2951 2.362 . S
O2985 C2996 1.283 . S
O2986 Tb2951 2.421 . S
O2986 C3003 1.262 . S
O2987 Tb2940 2.320 . S
O2987 C3003 1.260 . S
O2988 Tb2940 2.552 . S
O2988 C2996 1.243 . S
O2989 Tb2940 2.413 . S
O2989 C3004 1.256 . S
O2990 Tb2951 2.546 . S
O2990 C3015 1.251 1_655 S
O2991 Tb2940 2.362 . S
O2991 Tb2951 2.610 . S
O2991 C3007 1.283 . S
O2992 Tb2940 2.421 . S
O2992 C3014 1.262 . S
O2993 Tb2951 2.320 . S
O2993 C3014 1.260 . S
O2994 Tb2951 2.552 . S
O2994 C3007 1.243 . S
O2995 Tb2951 2.413 1_455 S
O2995 C3015 1.256 . S
C2996 O2985 1.283 . S
C2996 O2988 1.243 . S
C2997 C2999 1.382 . S
C2997 C3001 1.393 . S
C2997 C3004 1.500 . S
C2998 C2999 1.400 . S
C2998 C3000 1.384 . S
C2999 C2997 1.382 . S
C2999 C2998 1.400 . S
C2999 H3016 0.930 . S
C3000 C2998 1.384 . S
C3000 C3002 1.392 . S
C3000 H3017 0.931 . S
C3001 C2997 1.393 . S
C3001 C3002 1.401 . S
C3001 H3018 0.930 . S
C3002 C3000 1.392 . S
C3002 C3001 1.401 . S
C3002 H3019 0.930 . S
C3003 O2986 1.262 . S
C3003 O2987 1.260 . S
C3004 Tb2940 2.833 . S
C3004 O2984 1.251 . S
C3004 O2989 1.256 . S
C3004 C2997 1.500 . S
C3005 H2970 0.929 . S
C3005 C2983 1.444 . S
C3005 C3006 1.317 . S
C3006 H2968 0.930 . S
C3006 C2974 1.432 . S
C3006 C3005 1.317 . S
C3007 O2991 1.283 . S
C3007 O2994 1.243 . S
C3008 C3009 1.382 . S
C3008 C3012 1.393 . S
C3008 C3015 1.500 . S
C3009 C3008 1.382 . S
C3009 C3010 1.400 . S
C3009 H3020 0.930 . S
C3010 C3009 1.400 . S
C3010 C3011 1.384 . S
C3011 C3010 1.384 . S
C3011 C3013 1.392 . S
C3011 H3021 0.931 . S
C3012 C3008 1.393 . S
C3012 C3013 1.401 . S
C3012 H3022 0.930 . S
C3013 C3011 1.392 . S
C3013 C3012 1.401 . S
C3013 H3023 0.930 . S
C3014 O2992 1.262 . S
C3014 O2993 1.260 . S
C3015 Tb2951 2.833 1_455 S
C3015 O2990 1.251 1_455 S
C3015 O2995 1.256 . S
C3015 C3008 1.500 . S
H3016 C2999 0.930 . S
H3017 C3000 0.931 . S
H3018 C3001 0.930 . S
H3019 C3002 0.930 . S
H3020 C3009 0.930 . S
H3021 C3011 0.931 . S
H3022 C3012 0.930 . S
H3023 C3013 0.930 . S
H3024 C3030 0.930 . S
H3025 C3033 0.930 . S
H3026 C3034 0.930 . S
H3027 C3035 0.930 . S
H3028 C3038 0.930 . S
H3029 C3039 0.930 . S
C3030 H3024 0.930 . S
C3030 C3031 1.355 . S
C3030 C3032 1.415 . S
C3031 C3030 1.355 . S
C3031 C3033 1.419 . S
C3032 C3030 1.415 . S
C3032 C3037 1.425 . S
C3032 C3039 1.409 . S
C3033 H3025 0.930 . S
C3033 C3031 1.419 . S
C3033 C3034 1.362 . S
C3034 H3026 0.930 . S
C3034 C3033 1.362 . S
C3034 C3037 1.409 . S
C3035 H3027 0.930 . S
C3035 C3036 1.355 . S
C3035 C3037 1.415 . S
C3036 C3035 1.355 . S
C3036 C3038 1.419 . S
C3037 C3032 1.425 . S
C3037 C3034 1.409 . S
C3037 C3035 1.415 . S
C3038 H3028 0.930 . S
C3038 C3036 1.419 . S
C3038 C3039 1.362 . S
C3039 H3029 0.930 . S
C3039 C3032 1.409 . S
C3039 C3038 1.362 . S
H3040 C3046 0.930 . S
H3041 C3049 0.930 . S
H3042 C3050 0.930 . S
H3043 C3051 0.930 . S
H3044 C3054 0.930 . S
H3045 C3055 0.930 . S
C3046 H3040 0.930 . S
C3046 C3047 1.355 . S
C3046 C3048 1.415 . S
C3047 C3046 1.355 . S
C3047 C3049 1.419 . S
C3048 C3046 1.415 . S
C3048 C3053 1.425 . S
C3048 C3055 1.409 . S
C3049 H3041 0.930 . S
C3049 C3047 1.419 . S
C3049 C3050 1.362 . S
C3050 H3042 0.930 . S
C3050 C3049 1.362 . S
C3050 C3053 1.409 . S
C3051 H3043 0.930 . S
C3051 C3052 1.355 . S
C3051 C3053 1.415 . S
C3052 C3051 1.355 . S
C3052 C3054 1.419 . S
C3053 C3048 1.425 . S
C3053 C3050 1.409 . S
C3053 C3051 1.415 . S
C3054 H3044 0.930 . S
C3054 C3052 1.419 . S
C3054 C3055 1.362 . S
C3055 H3045 0.930 . S
C3055 C3048 1.409 . S
C3055 C3054 1.362 . S
H3056 C3062 0.930 . S
H3057 C3065 0.930 . S
H3058 C3066 0.930 . S
H3059 C3067 0.930 . S
H3060 C3070 0.930 . S
H3061 C3071 0.930 . S
C3062 H3056 0.930 . S
C3062 C3063 1.355 . S
C3062 C3064 1.415 . S
C3063 C3062 1.355 . S
C3063 C3065 1.419 . S
C3064 C3062 1.415 . S
C3064 C3069 1.425 . S
C3064 C3071 1.409 . S
C3065 H3057 0.930 . S
C3065 C3063 1.419 . S
C3065 C3066 1.362 . S
C3066 H3058 0.930 . S
C3066 C3065 1.362 . S
C3066 C3069 1.409 . S
C3067 H3059 0.930 . S
C3067 C3068 1.355 . S
C3067 C3069 1.415 . S
C3068 C3067 1.355 . S
C3068 C3070 1.419 . S
C3069 C3064 1.425 . S
C3069 C3066 1.409 . S
C3069 C3067 1.415 . S
C3070 H3060 0.930 . S
C3070 C3068 1.419 . S
C3070 C3071 1.362 . S
C3071 H3061 0.930 . S
C3071 C3064 1.409 . S
C3071 C3070 1.362 . S
H3072 C3078 0.930 . S
H3073 C3081 0.930 . S
H3074 C3082 0.930 . S
H3075 C3083 0.930 . S
H3076 C3086 0.930 . S
H3077 C3087 0.930 . S
C3078 H3072 0.930 . S
C3078 C3079 1.355 . S
C3078 C3080 1.415 . S
C3079 C3078 1.355 . S
C3079 C3081 1.419 . S
C3080 C3078 1.415 . S
C3080 C3085 1.425 . S
C3080 C3087 1.409 . S
C3081 H3073 0.930 . S
C3081 C3079 1.419 . S
C3081 C3082 1.362 . S
C3082 H3074 0.930 . S
C3082 C3081 1.362 . S
C3082 C3085 1.409 . S
C3083 H3075 0.930 . S
C3083 C3084 1.355 . S
C3083 C3085 1.415 . S
C3084 C3083 1.355 . S
C3084 C3086 1.419 . S
C3085 C3080 1.425 . S
C3085 C3082 1.409 . S
C3085 C3083 1.415 . S
C3086 H3076 0.930 . S
C3086 C3084 1.419 . S
C3086 C3087 1.362 . S
C3087 H3077 0.930 . S
C3087 C3080 1.409 . S
C3087 C3086 1.362 . S
H3088 C3094 0.930 . S
H3089 C3097 0.930 . S
H3090 C3098 0.930 . S
H3091 C3099 0.930 . S
H3092 C3102 0.930 . S
H3093 C3103 0.930 . S
C3094 H3088 0.930 . S
C3094 C3095 1.355 . S
C3094 C3096 1.415 . S
C3095 C3094 1.355 . S
C3095 C3097 1.419 . S
C3096 C3094 1.415 . S
C3096 C3101 1.425 . S
C3096 C3103 1.409 . S
C3097 H3089 0.930 . S
C3097 C3095 1.419 . S
C3097 C3098 1.362 . S
C3098 H3090 0.930 . S
C3098 C3097 1.362 . S
C3098 C3101 1.409 . S
C3099 H3091 0.930 . S
C3099 C3100 1.355 . S
C3099 C3101 1.415 . S
C3100 C3099 1.355 . S
C3100 C3102 1.419 . S
C3101 C3096 1.425 . S
C3101 C3098 1.409 . S
C3101 C3099 1.415 . S
C3102 H3092 0.930 . S
C3102 C3100 1.419 . S
C3102 C3103 1.362 . S
C3103 H3093 0.930 . S
C3103 C3096 1.409 . S
C3103 C3102 1.362 . S
H3104 C3110 0.930 . S
H3105 C3113 0.930 . S
H3106 C3114 0.930 . S
H3107 C3115 0.930 . S
H3108 C3118 0.930 . S
H3109 C3119 0.930 . S
C3110 H3104 0.930 . S
C3110 C3111 1.355 . S
C3110 C3112 1.415 . S
C3111 C3110 1.355 . S
C3111 C3113 1.419 . S
C3112 C3110 1.415 . S
C3112 C3117 1.425 . S
C3112 C3119 1.409 . S
C3113 H3105 0.930 . S
C3113 C3111 1.419 . S
C3113 C3114 1.362 . S
C3114 H3106 0.930 . S
C3114 C3113 1.362 . S
C3114 C3117 1.409 . S
C3115 H3107 0.930 . S
C3115 C3116 1.355 . S
C3115 C3117 1.415 . S
C3116 C3115 1.355 . S
C3116 C3118 1.419 . S
C3117 C3112 1.425 . S
C3117 C3114 1.409 . S
C3117 C3115 1.415 . S
C3118 H3108 0.930 . S
C3118 C3116 1.419 . S
C3118 C3119 1.362 . S
C3119 H3109 0.930 . S
C3119 C3112 1.409 . S
C3119 C3118 1.362 . S
H3120 C3126 0.930 . S
H3121 C3129 0.930 1_545 S
H3122 C3130 0.930 . S
H3123 C3131 0.930 . S
H3124 C3134 0.930 . S
H3125 C3135 0.930 . S
C3126 H3120 0.930 . S
C3126 C3127 1.355 . S
C3126 C3128 1.415 . S
C3127 C3126 1.355 . S
C3127 C3129 1.419 . S
C3128 C3126 1.415 . S
C3128 C3133 1.425 . S
C3128 C3135 1.409 . S
C3129 H3121 0.930 1_565 S
C3129 C3127 1.419 . S
C3129 C3130 1.362 . S
C3130 H3122 0.930 . S
C3130 C3129 1.362 . S
C3130 C3133 1.409 . S
C3131 H3123 0.930 . S
C3131 C3132 1.355 . S
C3131 C3133 1.415 . S
C3132 C3131 1.355 . S
C3132 C3134 1.419 . S
C3133 C3128 1.425 . S
C3133 C3130 1.409 . S
C3133 C3131 1.415 . S
C3134 H3124 0.930 . S
C3134 C3132 1.419 . S
C3134 C3135 1.362 . S
C3135 H3125 0.930 . S
C3135 C3128 1.409 . S
C3135 C3134 1.362 . S
H3136 C3142 0.930 . S
H3137 C3145 0.930 . S
H3138 C3146 0.930 . S
H3139 C3147 0.930 . S
H3140 C3150 0.930 . S
H3141 C3151 0.930 . S
C3142 H3136 0.930 . S
C3142 C3143 1.355 . S
C3142 C3144 1.415 . S
C3143 C3142 1.355 . S
C3143 C3145 1.419 . S
C3144 C3142 1.415 . S
C3144 C3149 1.425 . S
C3144 C3151 1.409 . S
C3145 H3137 0.930 . S
C3145 C3143 1.419 . S
C3145 C3146 1.362 . S
C3146 H3138 0.930 . S
C3146 C3145 1.362 . S
C3146 C3149 1.409 . S
C3147 H3139 0.930 . S
C3147 C3148 1.355 . S
C3147 C3149 1.415 . S
C3148 C3147 1.355 . S
C3148 C3150 1.419 . S
C3149 C3144 1.425 . S
C3149 C3146 1.409 . S
C3149 C3147 1.415 . S
C3150 H3140 0.930 . S
C3150 C3148 1.419 . S
C3150 C3151 1.362 . S
C3151 H3141 0.930 . S
C3151 C3144 1.409 . S
C3151 C3150 1.362 . S
H3152 C3158 0.930 . S
H3153 C3161 0.930 . S
H3154 C3162 0.930 . S
H3155 C3163 0.930 . S
H3156 C3166 0.930 . S
H3157 C3167 0.930 . S
C3158 H3152 0.930 . S
C3158 C3159 1.355 . S
C3158 C3160 1.415 . S
C3159 C3158 1.355 . S
C3159 C3161 1.419 . S
C3160 C3158 1.415 . S
C3160 C3165 1.425 . S
C3160 C3167 1.409 . S
C3161 H3153 0.930 . S
C3161 C3159 1.419 . S
C3161 C3162 1.362 . S
C3162 H3154 0.930 . S
C3162 C3161 1.362 . S
C3162 C3165 1.409 . S
C3163 H3155 0.930 . S
C3163 C3164 1.355 . S
C3163 C3165 1.415 . S
C3164 C3163 1.355 . S
C3164 C3166 1.419 . S
C3165 C3160 1.425 . S
C3165 C3162 1.409 . S
C3165 C3163 1.415 . S
C3166 H3156 0.930 . S
C3166 C3164 1.419 . S
C3166 C3167 1.362 . S
C3167 H3157 0.930 . S
C3167 C3160 1.409 . S
C3167 C3166 1.362 . S
H3168 C3174 0.930 . S
H3169 C3177 0.930 . S
H3170 C3178 0.930 . S
H3171 C3179 0.930 . S
H3172 C3182 0.930 1_455 S
H3173 C3183 0.930 . S
C3174 H3168 0.930 . S
C3174 C3175 1.355 . S
C3174 C3176 1.415 . S
C3175 C3174 1.355 . S
C3175 C3177 1.419 . S
C3176 C3174 1.415 . S
C3176 C3181 1.425 . S
C3176 C3183 1.409 . S
C3177 H3169 0.930 . S
C3177 C3175 1.419 . S
C3177 C3178 1.362 . S
C3178 H3170 0.930 . S
C3178 C3177 1.362 . S
C3178 C3181 1.409 . S
C3179 H3171 0.930 . S
C3179 C3180 1.355 . S
C3179 C3181 1.415 . S
C3180 C3179 1.355 . S
C3180 C3182 1.419 . S
C3181 C3176 1.425 . S
C3181 C3178 1.409 . S
C3181 C3179 1.415 . S
C3182 H3172 0.930 1_655 S
C3182 C3180 1.419 . S
C3182 C3183 1.362 . S
C3183 H3173 0.930 . S
C3183 C3176 1.409 . S
C3183 C3182 1.362 . S
H3184 C3190 0.930 . S
H3185 C3193 0.930 . S
H3186 C3194 0.930 . S
H3187 C3195 0.930 . S
H3188 C3198 0.930 . S
H3189 C3199 0.930 . S
C3190 H3184 0.930 . S
C3190 C3191 1.355 . S
C3190 C3192 1.415 . S
C3191 C3190 1.355 . S
C3191 C3193 1.419 . S
C3192 C3190 1.415 . S
C3192 C3197 1.425 . S
C3192 C3199 1.409 . S
C3193 H3185 0.930 . S
C3193 C3191 1.419 . S
C3193 C3194 1.362 . S
C3194 H3186 0.930 . S
C3194 C3193 1.362 . S
C3194 C3197 1.409 . S
C3195 H3187 0.930 . S
C3195 C3196 1.355 . S
C3195 C3197 1.415 . S
C3196 C3195 1.355 . S
C3196 C3198 1.419 . S
C3197 C3192 1.425 . S
C3197 C3194 1.409 . S
C3197 C3195 1.415 . S
C3198 H3188 0.930 . S
C3198 C3196 1.419 . S
C3198 C3199 1.362 . S
C3199 H3189 0.930 . S
C3199 C3192 1.409 . S
C3199 C3198 1.362 . S
H3200 C3206 0.930 . S
H3201 C3209 0.930 . S
H3202 C3210 0.930 . S
H3203 C3211 0.930 . S
H3204 C3214 0.930 . S
H3205 C3215 0.930 . S
C3206 H3200 0.930 . S
C3206 C3207 1.355 . S
C3206 C3208 1.415 . S
C3207 C3206 1.355 . S
C3207 C3209 1.419 . S
C3208 C3206 1.415 . S
C3208 C3213 1.425 . S
C3208 C3215 1.409 . S
C3209 H3201 0.930 . S
C3209 C3207 1.419 . S
C3209 C3210 1.362 . S
C3210 H3202 0.930 . S
C3210 C3209 1.362 . S
C3210 C3213 1.409 . S
C3211 H3203 0.930 . S
C3211 C3212 1.355 . S
C3211 C3213 1.415 . S
C3212 C3211 1.355 . S
C3212 C3214 1.419 . S
C3213 C3208 1.425 . S
C3213 C3210 1.409 . S
C3213 C3211 1.415 . S
C3214 H3204 0.930 . S
C3214 C3212 1.419 . S
C3214 C3215 1.362 . S
C3215 H3205 0.930 . S
C3215 C3208 1.409 . S
C3215 C3214 1.362 . S
H3216 C3222 0.930 . S
H3217 C3225 0.930 . S
H3218 C3226 0.930 . S
H3219 C3227 0.930 . S
H3220 C3230 0.930 . S
H3221 C3231 0.930 . S
C3222 H3216 0.930 . S
C3222 C3223 1.355 . S
C3222 C3224 1.415 . S
C3223 C3222 1.355 . S
C3223 C3225 1.419 . S
C3224 C3222 1.415 . S
C3224 C3229 1.425 . S
C3224 C3231 1.409 . S
C3225 H3217 0.930 . S
C3225 C3223 1.419 . S
C3225 C3226 1.362 . S
C3226 H3218 0.930 . S
C3226 C3225 1.362 . S
C3226 C3229 1.409 . S
C3227 H3219 0.930 . S
C3227 C3228 1.355 . S
C3227 C3229 1.415 . S
C3228 C3227 1.355 . S
C3228 C3230 1.419 . S
C3229 C3224 1.425 . S
C3229 C3226 1.409 . S
C3229 C3227 1.415 . S
C3230 H3220 0.930 . S
C3230 C3228 1.419 . S
C3230 C3231 1.362 . S
C3231 H3221 0.930 . S
C3231 C3224 1.409 . S
C3231 C3230 1.362 . S
H3232 C3238 0.930 . S
H3233 C3241 0.929 1_565 S
H3234 C3242 0.930 . S
H3235 C3243 0.930 . S
H3236 C3246 0.930 . S
H3237 C3247 0.930 . S
C3238 H3232 0.930 . S
C3238 C3239 1.355 . S
C3238 C3240 1.415 1_565 S
C3239 C3238 1.355 . S
C3239 C3241 1.417 1_565 S
C3240 C3238 1.415 1_545 S
C3240 C3245 1.425 . S
C3240 C3247 1.409 . S
C3241 H3233 0.929 1_545 S
C3241 C3239 1.417 1_545 S
C3241 C3242 1.365 . S
C3242 H3234 0.930 . S
C3242 C3241 1.365 . S
C3242 C3245 1.409 . S
C3243 H3235 0.930 . S
C3243 C3244 1.355 . S
C3243 C3245 1.415 . S
C3244 C3243 1.355 . S
C3244 C3246 1.419 . S
C3245 C3240 1.425 . S
C3245 C3242 1.409 . S
C3245 C3243 1.415 . S
C3246 H3236 0.930 . S
C3246 C3244 1.419 . S
C3246 C3247 1.362 . S
C3247 H3237 0.930 . S
C3247 C3240 1.409 . S
C3247 C3246 1.362 . S
H3248 C3254 0.930 . S
H3249 C3257 0.930 . S
H3250 C3258 0.930 . S
H3251 C3259 0.930 . S
H3252 C3262 0.930 . S
H3253 C3263 0.930 . S
C3254 H3248 0.930 . S
C3254 C3255 1.355 . S
C3254 C3256 1.415 1_655 S
C3255 C3254 1.355 . S
C3255 C3257 1.419 . S
C3256 C3254 1.415 1_455 S
C3256 C3261 1.425 . S
C3256 C3263 1.409 . S
C3257 H3249 0.930 . S
C3257 C3255 1.419 . S
C3257 C3258 1.362 1_655 S
C3258 H3250 0.930 . S
C3258 C3257 1.362 1_455 S
C3258 C3261 1.409 . S
C3259 H3251 0.930 . S
C3259 C3260 1.355 . S
C3259 C3261 1.415 . S
C3260 C3259 1.355 . S
C3260 C3262 1.419 . S
C3261 C3256 1.425 . S
C3261 C3258 1.409 . S
C3261 C3259 1.415 . S
C3262 H3252 0.930 . S
C3262 C3260 1.419 . S
C3262 C3263 1.362 . S
C3263 H3253 0.930 . S
C3263 C3256 1.409 . S
C3263 C3262 1.362 . S
H3264 C3270 0.930 . S
H3265 C3273 0.930 . S
H3266 C3274 0.930 . S
H3267 C3275 0.930 . S
H3268 C3278 0.930 . S
H3269 C3279 0.930 . S
C3270 H3264 0.930 . S
C3270 C3271 1.355 . S
C3270 C3272 1.415 . S
C3271 C3270 1.355 . S
C3271 C3273 1.419 . S
C3272 C3270 1.415 . S
C3272 C3277 1.425 . S
C3272 C3279 1.409 . S
C3273 H3265 0.930 . S
C3273 C3271 1.419 . S
C3273 C3274 1.362 . S
C3274 H3266 0.930 . S
C3274 C3273 1.362 . S
C3274 C3277 1.409 . S
C3275 H3267 0.930 . S
C3275 C3276 1.355 . S
C3275 C3277 1.415 . S
C3276 C3275 1.355 . S
C3276 C3278 1.419 . S
C3277 C3272 1.425 . S
C3277 C3274 1.409 . S
C3277 C3275 1.415 . S
C3278 H3268 0.930 . S
C3278 C3276 1.419 . S
C3278 C3279 1.362 . S
C3279 H3269 0.930 . S
C3279 C3272 1.409 . S
C3279 C3278 1.362 . S
H3280 C3286 0.930 . S
H3281 C3289 0.932 . S
H3282 C3290 0.930 . S
H3283 C3291 0.930 . S
H3284 C3294 0.930 . S
H3285 C3295 0.930 1_565 S
C3286 H3280 0.930 . S
C3286 C3287 1.355 . S
C3286 C3288 1.415 1_565 S
C3287 C3286 1.355 . S
C3287 C3289 1.419 1_565 S
C3288 C3286 1.415 1_545 S
C3288 C3293 1.425 . S
C3288 C3295 1.409 . S
C3289 H3281 0.932 . S
C3289 C3287 1.419 1_545 S
C3289 C3290 1.362 . S
C3290 H3282 0.930 . S
C3290 C3289 1.362 . S
C3290 C3293 1.409 . S
C3291 H3283 0.930 . S
C3291 C3292 1.355 . S
C3291 C3293 1.415 . S
C3292 C3291 1.355 . S
C3292 C3294 1.419 . S
C3293 C3288 1.425 . S
C3293 C3290 1.409 . S
C3293 C3291 1.415 . S
C3294 H3284 0.930 . S
C3294 C3292 1.419 . S
C3294 C3295 1.362 . S
C3295 H3285 0.930 1_545 S
C3295 C3288 1.409 . S
C3295 C3294 1.362 . S
H3296 C3302 0.930 . S
H3297 C3305 0.930 . S
H3298 C3306 0.930 . S
H3299 C3307 0.930 . S
H3300 C3310 0.930 . S
H3301 C3311 0.930 . S
C3302 H3296 0.930 . S
C3302 C3303 1.355 . S
C3302 C3304 1.415 1_655 S
C3303 C3302 1.355 . S
C3303 C3305 1.419 . S
C3304 C3302 1.415 1_455 S
C3304 C3309 1.425 . S
C3304 C3311 1.409 . S
C3305 H3297 0.930 . S
C3305 C3303 1.419 . S
C3305 C3306 1.362 1_655 S
C3306 H3298 0.930 . S
C3306 C3305 1.362 1_455 S
C3306 C3309 1.409 . S
C3307 H3299 0.930 . S
C3307 C3308 1.355 . S
C3307 C3309 1.415 . S
C3308 C3307 1.355 . S
C3308 C3310 1.419 . S
C3309 C3304 1.425 . S
C3309 C3306 1.409 . S
C3309 C3307 1.415 . S
C3310 H3300 0.930 . S
C3310 C3308 1.419 . S
C3310 C3311 1.362 . S
C3311 H3301 0.930 . S
C3311 C3304 1.409 . S
C3311 C3310 1.362 . S
H3312 C3318 0.930 . S
H3313 C3321 0.930 . S
H3314 C3322 0.900 1_556 S
H3315 C3323 0.930 1_565 S
H3316 C3326 0.930 . S
H3317 C3327 0.900 1_554 S
C3318 H3312 0.930 . S
C3318 C3319 1.355 . S
C3318 C3320 1.415 . S
C3319 C3318 1.355 . S
C3319 C3321 1.419 1_545 S
C3320 C3318 1.415 . S
C3320 C3325 1.425 1_554 S
C3320 C3327 1.409 1_554 S
C3321 H3313 0.930 . S
C3321 C3319 1.419 1_565 S
C3321 C3322 1.362 . S
C3322 H3314 0.900 1_554 S
C3322 C3321 1.362 . S
C3322 C3325 1.409 1_564 S
C3323 H3315 0.930 1_545 S
C3323 C3324 1.355 . S
C3323 C3325 1.415 . S
C3324 C3323 1.355 . S
C3324 C3326 1.419 . S
C3325 C3320 1.425 1_556 S
C3325 C3322 1.409 1_546 S
C3325 C3323 1.415 . S
C3326 H3316 0.930 . S
C3326 C3324 1.419 . S
C3326 C3327 1.362 . S
C3327 H3317 0.900 1_556 S
C3327 C3320 1.409 1_556 S
C3327 C3326 1.362 . S
H3328 C3334 0.930 . S
H3329 C3337 0.930 . S
H3330 C3338 0.899 1_554 S
H3331 C3339 0.930 1_655 S
H3332 C3342 0.930 . S
H3333 C3343 0.899 1_556 S
C3334 H3328 0.930 . S
C3334 C3335 1.355 . S
C3334 C3336 1.415 . S
C3335 C3334 1.355 . S
C3335 C3337 1.419 1_455 S
C3336 C3334 1.415 . S
C3336 C3341 1.425 1_556 S
C3336 C3343 1.409 1_556 S
C3337 H3329 0.930 . S
C3337 C3335 1.419 1_655 S
C3337 C3338 1.362 . S
C3338 H3330 0.899 1_556 S
C3338 C3337 1.362 . S
C3338 C3341 1.409 1_656 S
C3339 H3331 0.930 1_455 S
C3339 C3340 1.355 . S
C3339 C3341 1.415 . S
C3340 C3339 1.355 . S
C3340 C3342 1.419 . S
C3341 C3336 1.425 1_554 S
C3341 C3338 1.409 1_454 S
C3341 C3339 1.415 . S
C3342 H3332 0.930 . S
C3342 C3340 1.419 . S
C3342 C3343 1.362 . S
C3343 H3333 0.899 1_554 S
C3343 C3336 1.409 1_554 S
C3343 C3342 1.362 . S
H3344 C3350 0.930 . S
H3345 C3353 0.930 . S
H3346 C3354 0.930 . S
H3347 C3355 0.930 . S
H3348 C3358 0.930 . S
H3349 C3359 0.930 . S
C3350 H3344 0.930 . S
C3350 C3351 1.355 . S
C3350 C3352 1.415 . S
C3351 C3350 1.355 . S
C3351 C3353 1.419 . S
C3352 C3350 1.415 . S
C3352 C3357 1.425 1_554 S
C3352 C3359 1.409 1_554 S
C3353 H3345 0.930 . S
C3353 C3351 1.419 . S
C3353 C3354 1.362 . S
C3354 H3346 0.930 . S
C3354 C3353 1.362 . S
C3354 C3357 1.409 1_554 S
C3355 H3347 0.930 . S
C3355 C3356 1.355 . S
C3355 C3357 1.415 . S
C3356 C3355 1.355 . S
C3356 C3358 1.419 . S
C3357 C3352 1.425 1_556 S
C3357 C3354 1.409 1_556 S
C3357 C3355 1.415 . S
C3358 H3348 0.930 . S
C3358 C3356 1.419 . S
C3358 C3359 1.362 . S
C3359 H3349 0.930 . S
C3359 C3352 1.409 1_556 S
C3359 C3358 1.362 . S
H3360 C3366 0.930 . S
H3361 C3369 0.930 . S
H3362 C3370 0.930 . S
H3363 C3371 0.930 . S
H3364 C3374 0.930 . S
H3365 C3375 0.930 . S
C3366 H3360 0.930 . S
C3366 C3367 1.355 . S
C3366 C3368 1.415 . S
C3367 C3366 1.355 . S
C3367 C3369 1.419 1_455 S
C3368 C3366 1.415 . S
C3368 C3373 1.425 . S
C3368 C3375 1.409 . S
C3369 H3361 0.930 . S
C3369 C3367 1.419 1_655 S
C3369 C3370 1.362 . S
C3370 H3362 0.930 . S
C3370 C3369 1.362 . S
C3370 C3373 1.409 1_655 S
C3371 H3363 0.930 . S
C3371 C3372 1.355 1_655 S
C3371 C3373 1.415 1_655 S
C3372 C3371 1.355 1_455 S
C3372 C3374 1.419 . S
C3373 C3368 1.425 . S
C3373 C3370 1.409 1_455 S
C3373 C3371 1.415 1_455 S
C3374 H3364 0.930 . S
C3374 C3372 1.419 . S
C3374 C3375 1.362 . S
C3375 H3365 0.930 . S
C3375 C3368 1.409 . S
C3375 C3374 1.362 . S
H3376 C3382 0.930 . S
H3377 C3385 0.930 . S
H3378 C3386 0.930 . S
H3379 C3387 0.930 . S
H3380 C3390 0.930 . S
H3381 C3391 0.930 . S
C3382 H3376 0.930 . S
C3382 C3383 1.355 . S
C3382 C3384 1.415 . S
C3383 C3382 1.355 . S
C3383 C3385 1.419 . S
C3384 C3382 1.415 . S
C3384 C3389 1.425 . S
C3384 C3391 1.409 . S
C3385 H3377 0.930 . S
C3385 C3383 1.419 . S
C3385 C3386 1.362 . S
C3386 H3378 0.930 . S
C3386 C3385 1.362 . S
C3386 C3389 1.409 . S
C3387 H3379 0.930 . S
C3387 C3388 1.355 . S
C3387 C3389 1.415 . S
C3388 C3387 1.355 . S
C3388 C3390 1.419 . S
C3389 C3384 1.425 . S
C3389 C3386 1.409 . S
C3389 C3387 1.415 . S
C3390 H3380 0.930 . S
C3390 C3388 1.419 . S
C3390 C3391 1.362 . S
C3391 H3381 0.930 . S
C3391 C3384 1.409 . S
C3391 C3390 1.362 . S
H3392 C3398 0.930 . S
H3393 C3401 0.930 . S
H3394 C3402 0.930 . S
H3395 C3403 0.930 . S
H3396 C3406 0.930 . S
H3397 C3407 0.930 . S
C3398 H3392 0.930 . S
C3398 C3399 1.355 . S
C3398 C3400 1.415 . S
C3399 C3398 1.355 . S
C3399 C3401 1.419 1_545 S
C3400 C3398 1.415 . S
C3400 C3405 1.425 . S
C3400 C3407 1.409 . S
C3401 H3393 0.930 . S
C3401 C3399 1.419 1_565 S
C3401 C3402 1.362 . S
C3402 H3394 0.930 . S
C3402 C3401 1.362 . S
C3402 C3405 1.409 1_565 S
C3403 H3395 0.930 . S
C3403 C3404 1.355 . S
C3403 C3405 1.415 . S
C3404 C3403 1.355 . S
C3404 C3406 1.419 . S
C3405 C3400 1.425 . S
C3405 C3402 1.409 1_545 S
C3405 C3403 1.415 . S
C3406 H3396 0.930 . S
C3406 C3404 1.419 . S
C3406 C3407 1.362 . S
C3407 H3397 0.930 . S
C3407 C3400 1.409 . S
C3407 C3406 1.362 . S
H3408 C3414 0.930 . S
H3409 C3417 0.930 . S
H3410 C3418 0.930 . S
H3411 C3419 0.930 . S
H3412 C3422 0.930 . S
H3413 C3423 0.930 . S
C3414 H3408 0.930 . S
C3414 C3415 1.355 . S
C3414 C3416 1.415 . S
C3415 C3414 1.355 . S
C3415 C3417 1.419 . S
C3416 C3414 1.415 . S
C3416 C3421 1.425 . S
C3416 C3423 1.409 . S
C3417 H3409 0.930 . S
C3417 C3415 1.419 . S
C3417 C3418 1.362 . S
C3418 H3410 0.930 . S
C3418 C3417 1.362 . S
C3418 C3421 1.409 . S
C3419 H3411 0.930 . S
C3419 C3420 1.355 . S
C3419 C3421 1.415 . S
C3420 C3419 1.355 . S
C3420 C3422 1.419 . S
C3421 C3416 1.425 . S
C3421 C3418 1.409 . S
C3421 C3419 1.415 . S
C3422 H3412 0.930 . S
C3422 C3420 1.419 . S
C3422 C3423 1.362 . S
C3423 H3413 0.930 . S
C3423 C3416 1.409 . S
C3423 C3422 1.362 . S
H3424 C3430 0.930 . S
H3425 C3433 0.930 . S
H3426 C3434 0.930 . S
H3427 C3435 0.930 . S
H3428 C3438 0.930 . S
H3429 C3439 0.930 . S
C3430 H3424 0.930 . S
C3430 C3431 1.355 . S
C3430 C3432 1.415 . S
C3431 C3430 1.355 . S
C3431 C3433 1.419 . S
C3432 C3430 1.415 . S
C3432 C3437 1.425 . S
C3432 C3439 1.409 . S
C3433 H3425 0.930 . S
C3433 C3431 1.419 . S
C3433 C3434 1.362 . S
C3434 H3426 0.930 . S
C3434 C3433 1.362 . S
C3434 C3437 1.409 . S
C3435 H3427 0.930 . S
C3435 C3436 1.355 . S
C3435 C3437 1.415 . S
C3436 C3435 1.355 . S
C3436 C3438 1.419 . S
C3437 C3432 1.425 . S
C3437 C3434 1.409 . S
C3437 C3435 1.415 . S
C3438 H3428 0.930 . S
C3438 C3436 1.419 . S
C3438 C3439 1.362 . S
C3439 H3429 0.930 . S
C3439 C3432 1.409 . S
C3439 C3438 1.362 . S
H3440 C3446 0.930 . S
H3441 C3449 0.930 . S
H3442 C3450 0.930 . S
H3443 C3451 0.930 . S
H3444 C3454 0.930 . S
H3445 C3455 0.930 . S
C3446 H3440 0.930 . S
C3446 C3447 1.355 . S
C3446 C3448 1.415 . S
C3447 C3446 1.355 . S
C3447 C3449 1.419 . S
C3448 C3446 1.415 . S
C3448 C3453 1.425 . S
C3448 C3455 1.409 . S
C3449 H3441 0.930 . S
C3449 C3447 1.419 . S
C3449 C3450 1.362 . S
C3450 H3442 0.930 . S
C3450 C3449 1.362 . S
C3450 C3453 1.409 . S
C3451 H3443 0.930 . S
C3451 C3452 1.355 . S
C3451 C3453 1.415 . S
C3452 C3451 1.355 . S
C3452 C3454 1.419 . S
C3453 C3448 1.425 . S
C3453 C3450 1.409 . S
C3453 C3451 1.415 . S
C3454 H3444 0.930 . S
C3454 C3452 1.419 . S
C3454 C3455 1.362 . S
C3455 H3445 0.930 . S
C3455 C3448 1.409 . S
C3455 C3454 1.362 . S
H3456 C3462 0.930 . S
H3457 C3465 0.930 . S
H3458 C3466 0.930 . S
H3459 C3467 0.930 . S
H3460 C3470 0.930 . S
H3461 C3471 0.930 . S
C3462 H3456 0.930 . S
C3462 C3463 1.355 . S
C3462 C3464 1.415 . S
C3463 C3462 1.355 . S
C3463 C3465 1.419 . S
C3464 C3462 1.415 . S
C3464 C3469 1.425 . S
C3464 C3471 1.409 . S
C3465 H3457 0.930 . S
C3465 C3463 1.419 . S
C3465 C3466 1.362 . S
C3466 H3458 0.930 . S
C3466 C3465 1.362 . S
C3466 C3469 1.409 . S
C3467 H3459 0.930 . S
C3467 C3468 1.355 . S
C3467 C3469 1.415 . S
C3468 C3467 1.355 . S
C3468 C3470 1.419 . S
C3469 C3464 1.425 . S
C3469 C3466 1.409 . S
C3469 C3467 1.415 . S
C3470 H3460 0.930 . S
C3470 C3468 1.419 . S
C3470 C3471 1.362 . S
C3471 H3461 0.930 . S
C3471 C3464 1.409 . S
C3471 C3470 1.362 . S
H3472 C3478 0.930 . S
H3473 C3481 0.930 . S
H3474 C3482 0.930 . S
H3475 C3483 0.930 . S
H3476 C3486 0.930 . S
H3477 C3487 0.930 . S
C3478 H3472 0.930 . S
C3478 C3479 1.355 . S
C3478 C3480 1.415 . S
C3479 C3478 1.355 . S
C3479 C3481 1.419 . S
C3480 C3478 1.415 . S
C3480 C3485 1.425 . S
C3480 C3487 1.409 . S
C3481 H3473 0.930 . S
C3481 C3479 1.419 . S
C3481 C3482 1.362 . S
C3482 H3474 0.930 . S
C3482 C3481 1.362 . S
C3482 C3485 1.409 . S
C3483 H3475 0.930 . S
C3483 C3484 1.355 . S
C3483 C3485 1.415 . S
C3484 C3483 1.355 . S
C3484 C3486 1.419 . S
C3485 C3480 1.425 . S
C3485 C3482 1.409 . S
C3485 C3483 1.415 . S
C3486 H3476 0.930 . S
C3486 C3484 1.419 . S
C3486 C3487 1.362 . S
C3487 H3477 0.930 . S
C3487 C3480 1.409 . S
C3487 C3486 1.362 . S
H3488 C3494 0.930 . S
H3489 C3497 0.930 . S
H3490 C3498 0.930 . S
H3491 C3499 0.930 . S
H3492 C3502 0.930 . S
H3493 C3503 0.930 . S
C3494 H3488 0.930 . S
C3494 C3495 1.355 . S
C3494 C3496 1.415 . S
C3495 C3494 1.355 . S
C3495 C3497 1.419 . S
C3496 C3494 1.415 . S
C3496 C3501 1.425 . S
C3496 C3503 1.409 . S
C3497 H3489 0.930 . S
C3497 C3495 1.419 . S
C3497 C3498 1.362 . S
C3498 H3490 0.930 . S
C3498 C3497 1.362 . S
C3498 C3501 1.409 . S
C3499 H3491 0.930 . S
C3499 C3500 1.355 . S
C3499 C3501 1.415 . S
C3500 C3499 1.355 . S
C3500 C3502 1.419 . S
C3501 C3496 1.425 . S
C3501 C3498 1.409 . S
C3501 C3499 1.415 . S
C3502 H3492 0.930 . S
C3502 C3500 1.419 . S
C3502 C3503 1.362 . S
C3503 H3493 0.930 . S
C3503 C3496 1.409 . S
C3503 C3502 1.362 . S
H3504 C3510 0.930 . S
H3505 C3513 0.930 . S
H3506 C3514 0.930 . S
H3507 C3515 0.930 . S
H3508 C3518 0.930 . S
H3509 C3519 0.930 . S
C3510 H3504 0.930 . S
C3510 C3511 1.355 . S
C3510 C3512 1.415 . S
C3511 C3510 1.355 . S
C3511 C3513 1.419 . S
C3512 C3510 1.415 . S
C3512 C3517 1.425 . S
C3512 C3519 1.409 . S
C3513 H3505 0.930 . S
C3513 C3511 1.419 . S
C3513 C3514 1.362 . S
C3514 H3506 0.930 . S
C3514 C3513 1.362 . S
C3514 C3517 1.409 . S
C3515 H3507 0.930 . S
C3515 C3516 1.355 . S
C3515 C3517 1.415 . S
C3516 C3515 1.355 . S
C3516 C3518 1.419 . S
C3517 C3512 1.425 . S
C3517 C3514 1.409 . S
C3517 C3515 1.415 . S
C3518 H3508 0.930 . S
C3518 C3516 1.419 . S
C3518 C3519 1.362 . S
C3519 H3509 0.930 . S
C3519 C3512 1.409 . S
C3519 C3518 1.362 . S
H3520 C3526 0.930 . S
H3521 C3529 0.930 . S
H3522 C3530 0.930 . S
H3523 C3531 0.930 . S
H3524 C3534 0.930 . S
H3525 C3535 0.930 . S
C3526 H3520 0.930 . S
C3526 C3527 1.355 . S
C3526 C3528 1.415 . S
C3527 C3526 1.355 . S
C3527 C3529 1.419 . S
C3528 C3526 1.415 . S
C3528 C3533 1.425 . S
C3528 C3535 1.409 . S
C3529 H3521 0.930 . S
C3529 C3527 1.419 . S
C3529 C3530 1.362 . S
C3530 H3522 0.930 . S
C3530 C3529 1.362 . S
C3530 C3533 1.409 . S
C3531 H3523 0.930 . S
C3531 C3532 1.355 . S
C3531 C3533 1.415 . S
C3532 C3531 1.355 . S
C3532 C3534 1.419 . S
C3533 C3528 1.425 . S
C3533 C3530 1.409 . S
C3533 C3531 1.415 . S
C3534 H3524 0.930 . S
C3534 C3532 1.419 . S
C3534 C3535 1.362 . S
C3535 H3525 0.930 . S
C3535 C3528 1.409 . S
C3535 C3534 1.362 . S
H3536 C3542 0.930 . S
H3537 C3545 0.930 . S
H3538 C3546 0.930 . S
H3539 C3547 0.930 . S
H3540 C3550 0.930 . S
H3541 C3551 0.930 . S
C3542 H3536 0.930 . S
C3542 C3543 1.355 . S
C3542 C3544 1.415 . S
C3543 C3542 1.355 . S
C3543 C3545 1.419 . S
C3544 C3542 1.415 . S
C3544 C3549 1.425 . S
C3544 C3551 1.409 . S
C3545 H3537 0.930 . S
C3545 C3543 1.419 . S
C3545 C3546 1.362 . S
C3546 H3538 0.930 . S
C3546 C3545 1.362 . S
C3546 C3549 1.409 . S
C3547 H3539 0.930 . S
C3547 C3548 1.355 . S
C3547 C3549 1.415 . S
C3548 C3547 1.355 . S
C3548 C3550 1.419 . S
C3549 C3544 1.425 . S
C3549 C3546 1.409 . S
C3549 C3547 1.415 . S
C3550 H3540 0.930 . S
C3550 C3548 1.419 . S
C3550 C3551 1.362 . S
C3551 H3541 0.930 . S
C3551 C3544 1.409 . S
C3551 C3550 1.362 . S
H3552 C3558 0.930 . S
H3553 C3561 0.930 . S
H3554 C3562 0.930 . S
H3555 C3563 0.930 . S
H3556 C3566 0.930 . S
H3557 C3567 0.930 . S
C3558 H3552 0.930 . S
C3558 C3559 1.355 . S
C3558 C3560 1.415 . S
C3559 C3558 1.355 . S
C3559 C3561 1.419 . S
C3560 C3558 1.415 . S
C3560 C3565 1.425 . S
C3560 C3567 1.409 . S
C3561 H3553 0.930 . S
C3561 C3559 1.419 . S
C3561 C3562 1.362 . S
C3562 H3554 0.930 . S
C3562 C3561 1.362 . S
C3562 C3565 1.409 . S
C3563 H3555 0.930 . S
C3563 C3564 1.355 . S
C3563 C3565 1.415 . S
C3564 C3563 1.355 . S
C3564 C3566 1.419 . S
C3565 C3560 1.425 . S
C3565 C3562 1.409 . S
C3565 C3563 1.415 . S
C3566 H3556 0.930 . S
C3566 C3564 1.419 . S
C3566 C3567 1.362 . S
C3567 H3557 0.930 . S
C3567 C3560 1.409 . S
C3567 C3566 1.362 . S
H3568 C3574 0.930 . S
H3569 C3577 0.930 . S
H3570 C3578 0.930 . S
H3571 C3579 0.930 . S
H3572 C3582 0.930 . S
H3573 C3583 0.930 . S
C3574 H3568 0.930 . S
C3574 C3575 1.355 . S
C3574 C3576 1.415 . S
C3575 C3574 1.355 . S
C3575 C3577 1.419 . S
C3576 C3574 1.415 . S
C3576 C3581 1.425 . S
C3576 C3583 1.409 . S
C3577 H3569 0.930 . S
C3577 C3575 1.419 . S
C3577 C3578 1.362 . S
C3578 H3570 0.930 . S
C3578 C3577 1.362 . S
C3578 C3581 1.409 . S
C3579 H3571 0.930 . S
C3579 C3580 1.355 . S
C3579 C3581 1.415 . S
C3580 C3579 1.355 . S
C3580 C3582 1.419 . S
C3581 C3576 1.425 . S
C3581 C3578 1.409 . S
C3581 C3579 1.415 . S
C3582 H3572 0.930 . S
C3582 C3580 1.419 . S
C3582 C3583 1.362 . S
C3583 H3573 0.930 . S
C3583 C3576 1.409 . S
C3583 C3582 1.362 . S
H3584 C3590 0.930 . S
H3585 C3593 0.930 . S
H3586 C3594 0.930 . S
H3587 C3595 0.930 . S
H3588 C3598 0.930 . S
H3589 C3599 0.930 . S
C3590 H3584 0.930 . S
C3590 C3591 1.355 . S
C3590 C3592 1.415 . S
C3591 C3590 1.355 . S
C3591 C3593 1.419 . S
C3592 C3590 1.415 . S
C3592 C3597 1.425 . S
C3592 C3599 1.409 . S
C3593 H3585 0.930 . S
C3593 C3591 1.419 . S
C3593 C3594 1.362 . S
C3594 H3586 0.930 . S
C3594 C3593 1.362 . S
C3594 C3597 1.409 . S
C3595 H3587 0.930 . S
C3595 C3596 1.355 . S
C3595 C3597 1.415 . S
C3596 C3595 1.355 . S
C3596 C3598 1.419 . S
C3597 C3592 1.425 . S
C3597 C3594 1.409 . S
C3597 C3595 1.415 . S
C3598 H3588 0.930 . S
C3598 C3596 1.419 . S
C3598 C3599 1.362 . S
C3599 H3589 0.930 . S
C3599 C3592 1.409 . S
C3599 C3598 1.362 . S
H3600 C3606 0.930 . S
H3601 C3609 0.930 . S
H3602 C3610 0.930 . S
H3603 C3611 0.930 . S
H3604 C3614 0.930 . S
H3605 C3615 0.930 . S
C3606 H3600 0.930 . S
C3606 C3607 1.355 . S
C3606 C3608 1.415 . S
C3607 C3606 1.355 . S
C3607 C3609 1.419 . S
C3608 C3606 1.415 . S
C3608 C3613 1.425 . S
C3608 C3615 1.409 . S
C3609 H3601 0.930 . S
C3609 C3607 1.419 . S
C3609 C3610 1.362 . S
C3610 H3602 0.930 . S
C3610 C3609 1.362 . S
C3610 C3613 1.409 . S
C3611 H3603 0.930 . S
C3611 C3612 1.355 . S
C3611 C3613 1.415 . S
C3612 C3611 1.355 . S
C3612 C3614 1.419 . S
C3613 C3608 1.425 . S
C3613 C3610 1.409 . S
C3613 C3611 1.415 . S
C3614 H3604 0.930 . S
C3614 C3612 1.419 . S
C3614 C3615 1.362 . S
C3615 H3605 0.930 . S
C3615 C3608 1.409 . S
C3615 C3614 1.362 . S
H3616 C3622 0.930 . S
H3617 C3625 0.930 . S
H3618 C3626 0.930 . S
H3619 C3627 0.930 . S
H3620 C3630 0.930 . S
H3621 C3631 0.930 . S
C3622 H3616 0.930 . S
C3622 C3623 1.355 . S
C3622 C3624 1.415 . S
C3623 C3622 1.355 . S
C3623 C3625 1.419 . S
C3624 C3622 1.415 . S
C3624 C3629 1.425 . S
C3624 C3631 1.409 . S
C3625 H3617 0.930 . S
C3625 C3623 1.419 . S
C3625 C3626 1.362 . S
C3626 H3618 0.930 . S
C3626 C3625 1.362 . S
C3626 C3629 1.409 . S
C3627 H3619 0.930 . S
C3627 C3628 1.355 . S
C3627 C3629 1.415 . S
C3628 C3627 1.355 . S
C3628 C3630 1.419 . S
C3629 C3624 1.425 . S
C3629 C3626 1.409 . S
C3629 C3627 1.415 . S
C3630 H3620 0.930 . S
C3630 C3628 1.419 . S
C3630 C3631 1.362 . S
C3631 H3621 0.930 . S
C3631 C3624 1.409 . S
C3631 C3630 1.362 . S
H3632 C3638 0.930 . S
H3633 C3641 0.930 . S
H3634 C3642 0.930 . S
H3635 C3643 0.930 . S
H3636 C3646 0.930 . S
H3637 C3647 0.930 . S
C3638 H3632 0.930 . S
C3638 C3639 1.355 . S
C3638 C3640 1.415 . S
C3639 C3638 1.355 . S
C3639 C3641 1.419 . S
C3640 C3638 1.415 . S
C3640 C3645 1.425 . S
C3640 C3647 1.409 . S
C3641 H3633 0.930 . S
C3641 C3639 1.419 . S
C3641 C3642 1.362 . S
C3642 H3634 0.930 . S
C3642 C3641 1.362 . S
C3642 C3645 1.409 . S
C3643 H3635 0.930 . S
C3643 C3644 1.355 . S
C3643 C3645 1.415 . S
C3644 C3643 1.355 . S
C3644 C3646 1.419 . S
C3645 C3640 1.425 . S
C3645 C3642 1.409 . S
C3645 C3643 1.415 . S
C3646 H3636 0.930 . S
C3646 C3644 1.419 . S
C3646 C3647 1.362 . S
C3647 H3637 0.930 . S
C3647 C3640 1.409 . S
C3647 C3646 1.362 . S
H3648 C3654 0.930 . S
H3649 C3657 0.930 . S
H3650 C3658 0.930 . S
H3651 C3659 0.930 . S
H3652 C3662 0.930 . S
H3653 C3663 0.930 . S
C3654 H3648 0.930 . S
C3654 C3655 1.355 . S
C3654 C3656 1.415 . S
C3655 C3654 1.355 . S
C3655 C3657 1.419 . S
C3656 C3654 1.415 . S
C3656 C3661 1.425 . S
C3656 C3663 1.409 . S
C3657 H3649 0.930 . S
C3657 C3655 1.419 . S
C3657 C3658 1.362 . S
C3658 H3650 0.930 . S
C3658 C3657 1.362 . S
C3658 C3661 1.409 . S
C3659 H3651 0.930 . S
C3659 C3660 1.355 . S
C3659 C3661 1.415 . S
C3660 C3659 1.355 . S
C3660 C3662 1.419 . S
C3661 C3656 1.425 . S
C3661 C3658 1.409 . S
C3661 C3659 1.415 . S
C3662 H3652 0.930 . S
C3662 C3660 1.419 . S
C3662 C3663 1.362 . S
C3663 H3653 0.930 . S
C3663 C3656 1.409 . S
C3663 C3662 1.362 . S
H3664 C3670 0.930 . S
H3665 C3673 0.930 . S
H3666 C3674 0.930 . S
H3667 C3675 0.930 . S
H3668 C3678 0.930 . S
H3669 C3679 0.930 . S
C3670 H3664 0.930 . S
C3670 C3671 1.355 . S
C3670 C3672 1.415 . S
C3671 C3670 1.355 . S
C3671 C3673 1.419 . S
C3672 C3670 1.415 . S
C3672 C3677 1.425 . S
C3672 C3679 1.409 . S
C3673 H3665 0.930 . S
C3673 C3671 1.419 . S
C3673 C3674 1.362 . S
C3674 H3666 0.930 . S
C3674 C3673 1.362 . S
C3674 C3677 1.409 . S
C3675 H3667 0.930 . S
C3675 C3676 1.355 . S
C3675 C3677 1.415 . S
C3676 C3675 1.355 . S
C3676 C3678 1.419 . S
C3677 C3672 1.425 . S
C3677 C3674 1.409 . S
C3677 C3675 1.415 . S
C3678 H3668 0.930 . S
C3678 C3676 1.419 . S
C3678 C3679 1.362 . S
C3679 H3669 0.930 . S
C3679 C3672 1.409 . S
C3679 C3678 1.362 . S
H3680 C3686 0.930 . S
H3681 C3689 0.930 . S
H3682 C3690 0.930 . S
H3683 C3691 0.930 . S
H3684 C3694 0.930 . S
H3685 C3695 0.930 . S
C3686 H3680 0.930 . S
C3686 C3687 1.355 . S
C3686 C3688 1.415 . S
C3687 C3686 1.355 . S
C3687 C3689 1.419 . S
C3688 C3686 1.415 . S
C3688 C3693 1.425 . S
C3688 C3695 1.409 . S
C3689 H3681 0.930 . S
C3689 C3687 1.419 . S
C3689 C3690 1.362 . S
C3690 H3682 0.930 . S
C3690 C3689 1.362 . S
C3690 C3693 1.409 . S
C3691 H3683 0.930 . S
C3691 C3692 1.355 . S
C3691 C3693 1.415 . S
C3692 C3691 1.355 . S
C3692 C3694 1.419 . S
C3693 C3688 1.425 . S
C3693 C3690 1.409 . S
C3693 C3691 1.415 . S
C3694 H3684 0.930 . S
C3694 C3692 1.419 . S
C3694 C3695 1.362 . S
C3695 H3685 0.930 . S
C3695 C3688 1.409 . S
C3695 C3694 1.362 . S
H3696 C3702 0.930 . S
H3697 C3705 0.930 . S
H3698 C3706 0.930 . S
H3699 C3707 0.930 . S
H3700 C3710 0.930 . S
H3701 C3711 0.930 . S
C3702 H3696 0.930 . S
C3702 C3703 1.355 . S
C3702 C3704 1.415 . S
C3703 C3702 1.355 . S
C3703 C3705 1.419 . S
C3704 C3702 1.415 . S
C3704 C3709 1.425 . S
C3704 C3711 1.409 . S
C3705 H3697 0.930 . S
C3705 C3703 1.419 . S
C3705 C3706 1.362 . S
C3706 H3698 0.930 . S
C3706 C3705 1.362 . S
C3706 C3709 1.409 . S
C3707 H3699 0.930 . S
C3707 C3708 1.355 . S
C3707 C3709 1.415 . S
C3708 C3707 1.355 . S
C3708 C3710 1.419 . S
C3709 C3704 1.425 . S
C3709 C3706 1.409 . S
C3709 C3707 1.415 . S
C3710 H3700 0.930 . S
C3710 C3708 1.419 . S
C3710 C3711 1.362 . S
C3711 H3701 0.930 . S
C3711 C3704 1.409 . S
C3711 C3710 1.362 . S
H3712 C3718 0.930 . S
H3713 C3721 0.930 . S
H3714 C3722 0.930 . S
H3715 C3723 0.930 . S
H3716 C3726 0.930 . S
H3717 C3727 0.930 . S
C3718 H3712 0.930 . S
C3718 C3719 1.355 . S
C3718 C3720 1.415 . S
C3719 C3718 1.355 . S
C3719 C3721 1.419 . S
C3720 C3718 1.415 . S
C3720 C3725 1.425 . S
C3720 C3727 1.409 . S
C3721 H3713 0.930 . S
C3721 C3719 1.419 . S
C3721 C3722 1.362 . S
C3722 H3714 0.930 . S
C3722 C3721 1.362 . S
C3722 C3725 1.409 . S
C3723 H3715 0.930 . S
C3723 C3724 1.355 . S
C3723 C3725 1.415 . S
C3724 C3723 1.355 . S
C3724 C3726 1.419 . S
C3725 C3720 1.425 . S
C3725 C3722 1.409 . S
C3725 C3723 1.415 . S
C3726 H3716 0.930 . S
C3726 C3724 1.419 . S
C3726 C3727 1.362 . S
C3727 H3717 0.930 . S
C3727 C3720 1.409 . S
C3727 C3726 1.362 . S
H3728 C3734 0.930 . S
H3729 C3737 0.930 . S
H3730 C3738 0.930 . S
H3731 C3739 0.930 . S
H3732 C3742 0.930 . S
H3733 C3743 0.930 . S
C3734 H3728 0.930 . S
C3734 C3735 1.355 . S
C3734 C3736 1.415 . S
C3735 C3734 1.355 . S
C3735 C3737 1.419 . S
C3736 C3734 1.415 . S
C3736 C3741 1.425 . S
C3736 C3743 1.409 . S
C3737 H3729 0.930 . S
C3737 C3735 1.419 . S
C3737 C3738 1.362 . S
C3738 H3730 0.930 . S
C3738 C3737 1.362 . S
C3738 C3741 1.409 . S
C3739 H3731 0.930 . S
C3739 C3740 1.355 . S
C3739 C3741 1.415 . S
C3740 C3739 1.355 . S
C3740 C3742 1.419 . S
C3741 C3736 1.425 . S
C3741 C3738 1.409 . S
C3741 C3739 1.415 . S
C3742 H3732 0.930 . S
C3742 C3740 1.419 . S
C3742 C3743 1.362 . S
C3743 H3733 0.930 . S
C3743 C3736 1.409 . S
C3743 C3742 1.362 . S
H3744 C3750 0.930 . S
H3745 C3753 0.930 . S
H3746 C3754 0.930 . S
H3747 C3755 0.930 . S
H3748 C3758 0.930 . S
H3749 C3759 0.930 . S
C3750 H3744 0.930 . S
C3750 C3751 1.355 . S
C3750 C3752 1.415 . S
C3751 C3750 1.355 . S
C3751 C3753 1.419 . S
C3752 C3750 1.415 . S
C3752 C3757 1.425 . S
C3752 C3759 1.409 . S
C3753 H3745 0.930 . S
C3753 C3751 1.419 . S
C3753 C3754 1.362 . S
C3754 H3746 0.930 . S
C3754 C3753 1.362 . S
C3754 C3757 1.409 . S
C3755 H3747 0.930 . S
C3755 C3756 1.355 . S
C3755 C3757 1.415 . S
C3756 C3755 1.355 . S
C3756 C3758 1.419 . S
C3757 C3752 1.425 . S
C3757 C3754 1.409 . S
C3757 C3755 1.415 . S
C3758 H3748 0.930 . S
C3758 C3756 1.419 . S
C3758 C3759 1.362 . S
C3759 H3749 0.930 . S
C3759 C3752 1.409 . S
C3759 C3758 1.362 . S
H3760 C3766 0.930 . S
H3761 C3769 0.930 . S
H3762 C3770 0.930 . S
H3763 C3771 0.930 . S
H3764 C3774 0.930 . S
H3765 C3775 0.930 . S
C3766 H3760 0.930 . S
C3766 C3767 1.355 . S
C3766 C3768 1.415 . S
C3767 C3766 1.355 . S
C3767 C3769 1.419 . S
C3768 C3766 1.415 . S
C3768 C3773 1.425 . S
C3768 C3775 1.409 . S
C3769 H3761 0.930 . S
C3769 C3767 1.419 . S
C3769 C3770 1.362 . S
C3770 H3762 0.930 . S
C3770 C3769 1.362 . S
C3770 C3773 1.409 . S
C3771 H3763 0.930 . S
C3771 C3772 1.355 . S
C3771 C3773 1.415 . S
C3772 C3771 1.355 . S
C3772 C3774 1.419 . S
C3773 C3768 1.425 . S
C3773 C3770 1.409 . S
C3773 C3771 1.415 . S
C3774 H3764 0.930 . S
C3774 C3772 1.419 . S
C3774 C3775 1.362 . S
C3775 H3765 0.930 . S
C3775 C3768 1.409 . S
C3775 C3774 1.362 . S
H3776 C3782 0.930 . S
H3777 C3785 0.930 . S
H3778 C3786 0.930 . S
H3779 C3787 0.930 . S
H3780 C3790 0.930 . S
H3781 C3791 0.930 . S
C3782 H3776 0.930 . S
C3782 C3783 1.355 . S
C3782 C3784 1.415 . S
C3783 C3782 1.355 . S
C3783 C3785 1.419 . S
C3784 C3782 1.415 . S
C3784 C3789 1.425 . S
C3784 C3791 1.409 . S
C3785 H3777 0.930 . S
C3785 C3783 1.419 . S
C3785 C3786 1.362 . S
C3786 H3778 0.930 . S
C3786 C3785 1.362 . S
C3786 C3789 1.409 . S
C3787 H3779 0.930 . S
C3787 C3788 1.355 . S
C3787 C3789 1.415 . S
C3788 C3787 1.355 . S
C3788 C3790 1.419 . S
C3789 C3784 1.425 . S
C3789 C3786 1.409 . S
C3789 C3787 1.415 . S
C3790 H3780 0.930 . S
C3790 C3788 1.419 . S
C3790 C3791 1.362 . S
C3791 H3781 0.930 . S
C3791 C3784 1.409 . S
C3791 C3790 1.362 . S
H3792 C3798 0.930 . S
H3793 C3801 0.930 . S
H3794 C3802 0.930 . S
H3795 C3803 0.930 . S
H3796 C3806 0.930 . S
H3797 C3807 0.930 . S
C3798 H3792 0.930 . S
C3798 C3799 1.355 1_545 S
C3798 C3800 1.415 . S
C3799 C3798 1.355 1_565 S
C3799 C3801 1.419 . S
C3800 C3798 1.415 . S
C3800 C3805 1.425 . S
C3800 C3807 1.409 . S
C3801 H3793 0.930 . S
C3801 C3799 1.419 . S
C3801 C3802 1.362 1_565 S
C3802 H3794 0.930 . S
C3802 C3801 1.362 1_545 S
C3802 C3805 1.409 . S
C3803 H3795 0.930 . S
C3803 C3804 1.355 . S
C3803 C3805 1.415 . S
C3804 C3803 1.355 . S
C3804 C3806 1.419 . S
C3805 C3800 1.425 . S
C3805 C3802 1.409 . S
C3805 C3803 1.415 . S
C3806 H3796 0.930 . S
C3806 C3804 1.419 . S
C3806 C3807 1.362 . S
C3807 H3797 0.930 . S
C3807 C3800 1.409 . S
C3807 C3806 1.362 . S
H3808 C3814 0.930 . S
H3809 C3817 0.930 . S
H3810 C3818 0.930 . S
H3811 C3819 0.930 . S
H3812 C3822 0.930 . S
H3813 C3823 0.930 . S
C3814 H3808 0.930 . S
C3814 C3815 1.355 . S
C3814 C3816 1.415 . S
C3815 C3814 1.355 . S
C3815 C3817 1.419 . S
C3816 C3814 1.415 . S
C3816 C3821 1.425 1_455 S
C3816 C3823 1.409 . S
C3817 H3809 0.930 . S
C3817 C3815 1.419 . S
C3817 C3818 1.362 1_455 S
C3818 H3810 0.930 . S
C3818 C3817 1.362 1_655 S
C3818 C3821 1.409 . S
C3819 H3811 0.930 . S
C3819 C3820 1.355 . S
C3819 C3821 1.415 . S
C3820 C3819 1.355 . S
C3820 C3822 1.419 . S
C3821 C3816 1.425 1_655 S
C3821 C3818 1.409 . S
C3821 C3819 1.415 . S
C3822 H3812 0.930 . S
C3822 C3820 1.419 . S
C3822 C3823 1.362 1_655 S
C3823 H3813 0.930 . S
C3823 C3816 1.409 . S
C3823 C3822 1.362 1_455 S
H3824 C3830 0.930 . S
H3825 C3833 0.930 . S
H3826 C3834 0.930 . S
H3827 C3835 0.930 . S
H3828 C3838 0.930 . S
H3829 C3839 0.930 . S
C3830 H3824 0.930 . S
C3830 C3831 1.355 . S
C3830 C3832 1.415 . S
C3831 C3830 1.355 . S
C3831 C3833 1.419 . S
C3832 C3830 1.415 . S
C3832 C3837 1.425 . S
C3832 C3839 1.409 . S
C3833 H3825 0.930 . S
C3833 C3831 1.419 . S
C3833 C3834 1.362 . S
C3834 H3826 0.930 . S
C3834 C3833 1.362 . S
C3834 C3837 1.409 . S
C3835 H3827 0.930 . S
C3835 C3836 1.355 . S
C3835 C3837 1.415 . S
C3836 C3835 1.355 . S
C3836 C3838 1.419 . S
C3837 C3832 1.425 . S
C3837 C3834 1.409 . S
C3837 C3835 1.415 . S
C3838 H3828 0.930 . S
C3838 C3836 1.419 . S
C3838 C3839 1.362 . S
C3839 H3829 0.930 . S
C3839 C3832 1.409 . S
C3839 C3838 1.362 . S
H3840 C3846 0.930 . S
H3841 C3849 0.930 . S
H3842 C3850 0.930 . S
H3843 C3851 0.930 . S
H3844 C3854 0.930 . S
H3845 C3855 0.930 . S
C3846 H3840 0.930 . S
C3846 C3847 1.355 . S
C3846 C3848 1.415 . S
C3847 C3846 1.355 . S
C3847 C3849 1.419 . S
C3848 C3846 1.415 . S
C3848 C3853 1.425 . S
C3848 C3855 1.409 . S
C3849 H3841 0.930 . S
C3849 C3847 1.419 . S
C3849 C3850 1.362 . S
C3850 H3842 0.930 . S
C3850 C3849 1.362 . S
C3850 C3853 1.409 . S
C3851 H3843 0.930 . S
C3851 C3852 1.355 . S
C3851 C3853 1.415 . S
C3852 C3851 1.355 . S
C3852 C3854 1.419 . S
C3853 C3848 1.425 . S
C3853 C3850 1.409 . S
C3853 C3851 1.415 . S
C3854 H3844 0.930 . S
C3854 C3852 1.419 . S
C3854 C3855 1.362 . S
C3855 H3845 0.930 . S
C3855 C3848 1.409 . S
C3855 C3854 1.362 . S
H3856 C3862 0.930 . S
H3857 C3865 0.930 . S
H3858 C3866 0.930 . S
H3859 C3867 0.930 . S
H3860 C3870 0.930 . S
H3861 C3871 0.930 . S
C3862 H3856 0.930 . S
C3862 C3863 1.355 . S
C3862 C3864 1.415 . S
C3863 C3862 1.355 . S
C3863 C3865 1.419 . S
C3864 C3862 1.415 . S
C3864 C3869 1.425 . S
C3864 C3871 1.409 . S
C3865 H3857 0.930 . S
C3865 C3863 1.419 . S
C3865 C3866 1.362 . S
C3866 H3858 0.930 . S
C3866 C3865 1.362 . S
C3866 C3869 1.409 . S
C3867 H3859 0.930 . S
C3867 C3868 1.355 . S
C3867 C3869 1.415 . S
C3868 C3867 1.355 . S
C3868 C3870 1.419 . S
C3869 C3864 1.425 . S
C3869 C3866 1.409 . S
C3869 C3867 1.415 . S
C3870 H3860 0.930 . S
C3870 C3868 1.419 . S
C3870 C3871 1.362 . S
C3871 H3861 0.930 . S
C3871 C3864 1.409 . S
C3871 C3870 1.362 . S
H3872 C3878 0.930 . S
H3873 C3881 0.930 . S
H3874 C3882 0.930 . S
H3875 C3883 0.930 . S
H3876 C3886 0.930 . S
H3877 C3887 0.930 . S
C3878 H3872 0.930 . S
C3878 C3879 1.355 . S
C3878 C3880 1.415 . S
C3879 C3878 1.355 . S
C3879 C3881 1.419 . S
C3880 C3878 1.415 . S
C3880 C3885 1.425 . S
C3880 C3887 1.409 . S
C3881 H3873 0.930 . S
C3881 C3879 1.419 . S
C3881 C3882 1.362 . S
C3882 H3874 0.930 . S
C3882 C3881 1.362 . S
C3882 C3885 1.409 . S
C3883 H3875 0.930 . S
C3883 C3884 1.355 . S
C3883 C3885 1.415 . S
C3884 C3883 1.355 . S
C3884 C3886 1.419 . S
C3885 C3880 1.425 . S
C3885 C3882 1.409 . S
C3885 C3883 1.415 . S
C3886 H3876 0.930 . S
C3886 C3884 1.419 . S
C3886 C3887 1.362 . S
C3887 H3877 0.930 . S
C3887 C3880 1.409 . S
C3887 C3886 1.362 . S
H3888 C3894 0.930 . S
H3889 C3897 0.930 . S
H3890 C3898 0.930 . S
H3891 C3899 0.930 . S
H3892 C3902 0.930 . S
H3893 C3903 0.930 . S
C3894 H3888 0.930 . S
C3894 C3895 1.355 . S
C3894 C3896 1.415 . S
C3895 C3894 1.355 . S
C3895 C3897 1.419 . S
C3896 C3894 1.415 . S
C3896 C3901 1.425 . S
C3896 C3903 1.409 . S
C3897 H3889 0.930 . S
C3897 C3895 1.419 . S
C3897 C3898 1.362 . S
C3898 H3890 0.930 . S
C3898 C3897 1.362 . S
C3898 C3901 1.409 . S
C3899 H3891 0.930 . S
C3899 C3900 1.355 . S
C3899 C3901 1.415 . S
C3900 C3899 1.355 . S
C3900 C3902 1.419 . S
C3901 C3896 1.425 . S
C3901 C3898 1.409 . S
C3901 C3899 1.415 . S
C3902 H3892 0.930 . S
C3902 C3900 1.419 . S
C3902 C3903 1.362 . S
C3903 H3893 0.930 . S
C3903 C3896 1.409 . S
C3903 C3902 1.362 . S
H3904 C3910 0.930 . S
H3905 C3913 0.930 . S
H3906 C3914 0.930 . S
H3907 C3915 0.930 . S
H3908 C3918 0.930 . S
H3909 C3919 0.930 . S
C3910 H3904 0.930 . S
C3910 C3911 1.355 . S
C3910 C3912 1.415 . S
C3911 C3910 1.355 . S
C3911 C3913 1.419 . S
C3912 C3910 1.415 . S
C3912 C3917 1.425 . S
C3912 C3919 1.409 . S
C3913 H3905 0.930 . S
C3913 C3911 1.419 . S
C3913 C3914 1.362 . S
C3914 H3906 0.930 . S
C3914 C3913 1.362 . S
C3914 C3917 1.409 . S
C3915 H3907 0.930 . S
C3915 C3916 1.355 . S
C3915 C3917 1.415 . S
C3916 C3915 1.355 . S
C3916 C3918 1.419 . S
C3917 C3912 1.425 . S
C3917 C3914 1.409 . S
C3917 C3915 1.415 . S
C3918 H3908 0.930 . S
C3918 C3916 1.419 . S
C3918 C3919 1.362 . S
C3919 H3909 0.930 . S
C3919 C3912 1.409 . S
C3919 C3918 1.362 . S
H3920 C3926 0.930 . S
H3921 C3929 0.930 . S
H3922 C3930 0.930 . S
H3923 C3931 0.930 . S
H3924 C3934 0.930 . S
H3925 C3935 0.930 . S
C3926 H3920 0.930 . S
C3926 C3927 1.355 . S
C3926 C3928 1.415 . S
C3927 C3926 1.355 . S
C3927 C3929 1.419 . S
C3928 C3926 1.415 . S
C3928 C3933 1.425 . S
C3928 C3935 1.409 . S
C3929 H3921 0.930 . S
C3929 C3927 1.419 . S
C3929 C3930 1.362 . S
C3930 H3922 0.930 . S
C3930 C3929 1.362 . S
C3930 C3933 1.409 . S
C3931 H3923 0.930 . S
C3931 C3932 1.355 . S
C3931 C3933 1.415 . S
C3932 C3931 1.355 . S
C3932 C3934 1.419 . S
C3933 C3928 1.425 . S
C3933 C3930 1.409 . S
C3933 C3931 1.415 . S
C3934 H3924 0.930 . S
C3934 C3932 1.419 . S
C3934 C3935 1.362 . S
C3935 H3925 0.930 . S
C3935 C3928 1.409 . S
C3935 C3934 1.362 . S
H3936 C3942 0.930 . S
H3937 C3945 0.930 . S
H3938 C3946 0.930 . S
H3939 C3947 0.930 . S
H3940 C3950 0.930 . S
H3941 C3951 0.930 . S
C3942 H3936 0.930 . S
C3942 C3943 1.355 . S
C3942 C3944 1.415 . S
C3943 C3942 1.355 . S
C3943 C3945 1.419 . S
C3944 C3942 1.415 . S
C3944 C3949 1.421 1_455 S
C3944 C3951 1.409 . S
C3945 H3937 0.930 . S
C3945 C3943 1.419 . S
C3945 C3946 1.362 . S
C3946 H3938 0.930 . S
C3946 C3945 1.362 . S
C3946 C3949 1.400 1_455 S
C3947 H3939 0.930 . S
C3947 C3948 1.355 . S
C3947 C3949 1.427 . S
C3948 C3947 1.355 . S
C3948 C3950 1.419 . S
C3949 C3944 1.421 1_655 S
C3949 C3946 1.400 1_655 S
C3949 C3947 1.427 . S
C3950 H3940 0.930 . S
C3950 C3948 1.419 . S
C3950 C3951 1.362 1_655 S
C3951 H3941 0.930 . S
C3951 C3944 1.409 . S
C3951 C3950 1.362 1_455 S
H3952 C3958 0.930 . S
H3953 C3961 0.930 . S
H3954 C3962 0.930 . S
H3955 C3963 0.930 . S
H3956 C3966 0.930 . S
H3957 C3967 0.930 . S
C3958 H3952 0.930 . S
C3958 C3959 1.355 . S
C3958 C3960 1.415 . S
C3959 C3958 1.355 . S
C3959 C3961 1.419 . S
C3960 C3958 1.415 . S
C3960 C3965 1.425 . S
C3960 C3967 1.409 . S
C3961 H3953 0.930 . S
C3961 C3959 1.419 . S
C3961 C3962 1.362 . S
C3962 H3954 0.930 . S
C3962 C3961 1.362 . S
C3962 C3965 1.409 . S
C3963 H3955 0.930 . S
C3963 C3964 1.355 . S
C3963 C3965 1.415 . S
C3964 C3963 1.355 . S
C3964 C3966 1.419 . S
C3965 C3960 1.425 . S
C3965 C3962 1.409 . S
C3965 C3963 1.415 . S
C3966 H3956 0.930 . S
C3966 C3964 1.419 . S
C3966 C3967 1.362 . S
C3967 H3957 0.930 . S
C3967 C3960 1.409 . S
C3967 C3966 1.362 . S
H3968 C3974 0.930 . S
H3969 C3977 0.930 . S
H3970 C3978 0.944 . S
H3971 C3979 0.930 . S
H3972 C3982 0.930 . S
H3973 C3983 0.930 . S
C3974 H3968 0.930 . S
C3974 C3975 1.355 1_545 S
C3974 C3976 1.415 . S
C3975 C3974 1.355 1_565 S
C3975 C3977 1.419 . S
C3976 C3974 1.415 . S
C3976 C3981 1.425 . S
C3976 C3983 1.409 . S
C3977 H3969 0.930 . S
C3977 C3975 1.419 . S
C3977 C3978 1.362 1_565 S
C3978 H3970 0.944 . S
C3978 C3977 1.362 1_545 S
C3978 C3981 1.409 . S
C3979 H3971 0.930 . S
C3979 C3980 1.355 . S
C3979 C3981 1.415 . S
C3980 C3979 1.355 . S
C3980 C3982 1.419 . S
C3981 C3976 1.425 . S
C3981 C3978 1.409 . S
C3981 C3979 1.415 . S
C3982 H3972 0.930 . S
C3982 C3980 1.419 . S
C3982 C3983 1.362 . S
C3983 H3973 0.930 . S
C3983 C3976 1.409 . S
C3983 C3982 1.362 . S
H3984 C3990 0.930 . S
H3985 C3993 0.930 . S
H3986 C3994 0.930 . S
H3987 C3995 0.930 . S
H3988 C3998 0.930 . S
H3989 C3999 0.930 . S
C3990 H3984 0.930 . S
C3990 C3991 1.355 . S
C3990 C3992 1.415 . S
C3991 C3990 1.355 . S
C3991 C3993 1.419 . S
C3992 C3990 1.415 . S
C3992 C3997 1.425 . S
C3992 C3999 1.409 . S
C3993 H3985 0.930 . S
C3993 C3991 1.419 . S
C3993 C3994 1.362 . S
C3994 H3986 0.930 . S
C3994 C3993 1.362 . S
C3994 C3997 1.409 . S
C3995 H3987 0.930 . S
C3995 C3996 1.355 . S
C3995 C3997 1.415 . S
C3996 C3995 1.355 . S
C3996 C3998 1.419 . S
C3997 C3992 1.425 . S
C3997 C3994 1.409 . S
C3997 C3995 1.415 . S
C3998 H3988 0.930 . S
C3998 C3996 1.419 . S
C3998 C3999 1.362 . S
C3999 H3989 0.930 . S
C3999 C3992 1.409 . S
C3999 C3998 1.362 . S
H4000 C4006 0.930 . S
H4001 C4009 0.930 . S
H4002 C4010 0.930 . S
H4003 C4011 0.930 . S
H4004 C4014 0.930 . S
H4005 C4015 0.930 . S
C4006 H4000 0.930 . S
C4006 C4007 1.355 . S
C4006 C4008 1.415 . S
C4007 C4006 1.355 . S
C4007 C4009 1.419 . S
C4008 C4006 1.415 . S
C4008 C4013 1.425 . S
C4008 C4015 1.409 . S
C4009 H4001 0.930 . S
C4009 C4007 1.419 . S
C4009 C4010 1.362 . S
C4010 H4002 0.930 . S
C4010 C4009 1.362 . S
C4010 C4013 1.409 . S
C4011 H4003 0.930 . S
C4011 C4012 1.355 . S
C4011 C4013 1.415 . S
C4012 C4011 1.355 . S
C4012 C4014 1.419 . S
C4013 C4008 1.425 . S
C4013 C4010 1.409 . S
C4013 C4011 1.415 . S
C4014 H4004 0.930 . S
C4014 C4012 1.419 . S
C4014 C4015 1.362 . S
C4015 H4005 0.930 . S
C4015 C4008 1.409 . S
C4015 C4014 1.362 . S
H4016 C4022 0.930 . S
H4017 C4025 0.930 . S
H4018 C4026 0.930 . S
H4019 C4027 0.930 . S
H4020 C4030 0.930 . S
H4021 C4031 0.930 . S
C4022 H4016 0.930 . S
C4022 C4023 1.355 . S
C4022 C4024 1.415 . S
C4023 C4022 1.355 . S
C4023 C4025 1.419 . S
C4024 C4022 1.415 . S
C4024 C4029 1.425 . S
C4024 C4031 1.409 . S
C4025 H4017 0.930 . S
C4025 C4023 1.419 . S
C4025 C4026 1.362 . S
C4026 H4018 0.930 . S
C4026 C4025 1.362 . S
C4026 C4029 1.409 . S
C4027 H4019 0.930 . S
C4027 C4028 1.355 . S
C4027 C4029 1.415 . S
C4028 C4027 1.355 . S
C4028 C4030 1.419 . S
C4029 C4024 1.425 . S
C4029 C4026 1.409 . S
C4029 C4027 1.415 . S
C4030 H4020 0.930 . S
C4030 C4028 1.419 . S
C4030 C4031 1.362 . S
C4031 H4021 0.930 . S
C4031 C4024 1.409 . S
C4031 C4030 1.362 . S
H4032 C4038 0.930 . S
H4033 C4041 0.930 . S
H4034 C4042 0.930 . S
H4035 C4043 0.930 . S
H4036 C4046 0.930 . S
H4037 C4047 0.930 . S
C4038 H4032 0.930 . S
C4038 C4039 1.355 . S
C4038 C4040 1.415 . S
C4039 C4038 1.355 . S
C4039 C4041 1.419 . S
C4040 C4038 1.415 . S
C4040 C4045 1.425 . S
C4040 C4047 1.409 . S
C4041 H4033 0.930 . S
C4041 C4039 1.419 . S
C4041 C4042 1.362 . S
C4042 H4034 0.930 . S
C4042 C4041 1.362 . S
C4042 C4045 1.409 . S
C4043 H4035 0.930 . S
C4043 C4044 1.355 1_455 S
C4043 C4045 1.415 . S
C4044 C4043 1.355 1_655 S
C4044 C4046 1.419 . S
C4045 C4040 1.425 . S
C4045 C4042 1.409 . S
C4045 C4043 1.415 . S
C4046 H4036 0.930 . S
C4046 C4044 1.419 . S
C4046 C4047 1.362 1_655 S
C4047 H4037 0.930 . S
C4047 C4040 1.409 . S
C4047 C4046 1.362 1_455 S
H4048 C4054 0.930 . S
H4049 C4057 0.930 . S
H4050 C4058 0.930 . S
H4051 C4059 0.930 . S
H4052 C4062 0.930 . S
H4053 C4063 0.930 . S
C4054 H4048 0.930 . S
C4054 C4055 1.355 . S
C4054 C4056 1.415 . S
C4055 C4054 1.355 . S
C4055 C4057 1.419 . S
C4056 C4054 1.415 . S
C4056 C4061 1.425 . S
C4056 C4063 1.409 . S
C4057 H4049 0.930 . S
C4057 C4055 1.419 . S
C4057 C4058 1.362 . S
C4058 H4050 0.930 . S
C4058 C4057 1.362 . S
C4058 C4061 1.409 . S
C4059 H4051 0.930 . S
C4059 C4060 1.355 . S
C4059 C4061 1.415 . S
C4060 C4059 1.355 . S
C4060 C4062 1.419 . S
C4061 C4056 1.425 . S
C4061 C4058 1.409 . S
C4061 C4059 1.415 . S
C4062 H4052 0.930 . S
C4062 C4060 1.419 . S
C4062 C4063 1.362 . S
C4063 H4053 0.930 . S
C4063 C4056 1.409 . S
C4063 C4062 1.362 . S
H4064 C4070 0.930 . S
H4065 C4073 0.930 . S
H4066 C4074 0.930 . S
H4067 C4075 0.930 . S
H4068 C4078 0.930 . S
H4069 C4079 0.930 . S
C4070 H4064 0.930 . S
C4070 C4071 1.355 . S
C4070 C4072 1.415 . S
C4071 C4070 1.355 . S
C4071 C4073 1.419 . S
C4072 C4070 1.415 . S
C4072 C4077 1.425 . S
C4072 C4079 1.409 1_545 S
C4073 H4065 0.930 . S
C4073 C4071 1.419 . S
C4073 C4074 1.362 . S
C4074 H4066 0.930 . S
C4074 C4073 1.362 . S
C4074 C4077 1.409 . S
C4075 H4067 0.930 . S
C4075 C4076 1.355 . S
C4075 C4077 1.415 1_565 S
C4076 C4075 1.355 . S
C4076 C4078 1.419 . S
C4077 C4072 1.425 . S
C4077 C4074 1.409 . S
C4077 C4075 1.415 1_545 S
C4078 H4068 0.930 . S
C4078 C4076 1.419 . S
C4078 C4079 1.362 . S
C4079 H4069 0.930 . S
C4079 C4072 1.409 1_565 S
C4079 C4078 1.362 . S
H4080 C4086 0.930 . S
H4081 C4089 0.930 . S
H4082 C4090 0.930 . S
H4083 C4091 0.930 . S
H4084 C4094 0.930 . S
H4085 C4095 0.930 . S
C4086 H4080 0.930 . S
C4086 C4087 1.355 . S
C4086 C4088 1.415 1_565 S
C4087 C4086 1.355 . S
C4087 C4089 1.419 . S
C4088 C4086 1.415 1_545 S
C4088 C4093 1.425 . S
C4088 C4095 1.409 . S
C4089 H4081 0.930 . S
C4089 C4087 1.419 . S
C4089 C4090 1.362 . S
C4090 H4082 0.930 . S
C4090 C4089 1.362 . S
C4090 C4093 1.409 1_565 S
C4091 H4083 0.930 . S
C4091 C4092 1.355 . S
C4091 C4093 1.415 . S
C4092 C4091 1.355 . S
C4092 C4094 1.419 . S
C4093 C4088 1.425 . S
C4093 C4090 1.409 1_545 S
C4093 C4091 1.415 . S
C4094 H4084 0.930 . S
C4094 C4092 1.419 . S
C4094 C4095 1.362 . S
C4095 H4085 0.930 . S
C4095 C4088 1.409 . S
C4095 C4094 1.362 . S
H4096 C4102 0.930 . S
H4097 C4105 0.930 . S
H4098 C4106 0.930 . S
H4099 C4107 0.930 . S
H4100 C4110 0.930 . S
H4101 C4111 0.930 . S
C4102 H4096 0.930 . S
C4102 C4103 1.355 . S
C4102 C4104 1.415 . S
C4103 C4102 1.355 . S
C4103 C4105 1.419 . S
C4104 C4102 1.415 . S
C4104 C4109 1.425 . S
C4104 C4111 1.409 . S
C4105 H4097 0.930 . S
C4105 C4103 1.419 . S
C4105 C4106 1.362 . S
C4106 H4098 0.930 . S
C4106 C4105 1.362 . S
C4106 C4109 1.409 . S
C4107 H4099 0.930 . S
C4107 C4108 1.355 1_455 S
C4107 C4109 1.415 . S
C4108 C4107 1.355 1_655 S
C4108 C4110 1.419 . S
C4109 C4104 1.425 . S
C4109 C4106 1.409 . S
C4109 C4107 1.415 . S
C4110 H4100 0.930 . S
C4110 C4108 1.419 . S
C4110 C4111 1.362 1_655 S
C4111 H4101 0.930 . S
C4111 C4104 1.409 . S
C4111 C4110 1.362 1_455 S
H4112 C4118 0.930 . S
H4113 C4121 0.930 . S
H4114 C4122 0.930 . S
H4115 C4123 0.930 . S
H4116 C4126 0.930 . S
H4117 C4127 0.930 . S
C4118 H4112 0.930 . S
C4118 C4119 1.355 . S
C4118 C4120 1.415 . S
C4119 C4118 1.355 . S
C4119 C4121 1.419 . S
C4120 C4118 1.415 . S
C4120 C4125 1.425 . S
C4120 C4127 1.409 . S
C4121 H4113 0.930 . S
C4121 C4119 1.419 . S
C4121 C4122 1.362 . S
C4122 H4114 0.930 . S
C4122 C4121 1.362 . S
C4122 C4125 1.409 . S
C4123 H4115 0.930 . S
C4123 C4124 1.355 . S
C4123 C4125 1.415 . S
C4124 C4123 1.355 . S
C4124 C4126 1.419 . S
C4125 C4120 1.425 . S
C4125 C4122 1.409 . S
C4125 C4123 1.415 . S
C4126 H4116 0.930 . S
C4126 C4124 1.419 . S
C4126 C4127 1.362 . S
C4127 H4117 0.930 . S
C4127 C4120 1.409 . S
C4127 C4126 1.362 . S
H4128 C4134 0.930 . S
H4129 C4137 0.930 . S
H4130 C4138 0.930 . S
H4131 C4139 0.930 . S
H4132 C4142 0.930 . S
H4133 C4143 0.930 . S
C4134 H4128 0.930 . S
C4134 C4135 1.355 . S
C4134 C4136 1.415 . S
C4135 C4134 1.355 . S
C4135 C4137 1.419 . S
C4136 C4134 1.415 . S
C4136 C4141 1.425 . S
C4136 C4143 1.409 . S
C4137 H4129 0.930 . S
C4137 C4135 1.419 . S
C4137 C4138 1.362 . S
C4138 H4130 0.930 . S
C4138 C4137 1.362 . S
C4138 C4141 1.409 . S
C4139 H4131 0.930 . S
C4139 C4140 1.355 . S
C4139 C4141 1.415 . S
C4140 C4139 1.355 . S
C4140 C4142 1.419 . S
C4141 C4136 1.425 . S
C4141 C4138 1.409 . S
C4141 C4139 1.415 . S
C4142 H4132 0.930 . S
C4142 C4140 1.419 . S
C4142 C4143 1.362 . S
C4143 H4133 0.930 . S
C4143 C4136 1.409 . S
C4143 C4142 1.362 . S
H4144 C4150 0.930 . S
H4145 C4153 0.930 . S
H4146 C4154 0.930 . S
H4147 C4155 0.930 . S
H4148 C4158 0.930 . S
H4149 C4159 0.930 . S
C4150 H4144 0.930 . S
C4150 C4151 1.355 . S
C4150 C4152 1.415 . S
C4151 C4150 1.355 . S
C4151 C4153 1.419 . S
C4152 C4150 1.415 . S
C4152 C4157 1.425 . S
C4152 C4159 1.409 . S
C4153 H4145 0.930 . S
C4153 C4151 1.419 . S
C4153 C4154 1.362 . S
C4154 H4146 0.930 . S
C4154 C4153 1.362 . S
C4154 C4157 1.409 . S
C4155 H4147 0.930 . S
C4155 C4156 1.355 . S
C4155 C4157 1.415 . S
C4156 C4155 1.355 . S
C4156 C4158 1.419 . S
C4157 C4152 1.425 . S
C4157 C4154 1.409 . S
C4157 C4155 1.415 . S
C4158 H4148 0.930 . S
C4158 C4156 1.419 . S
C4158 C4159 1.362 . S
C4159 H4149 0.930 . S
C4159 C4152 1.409 . S
C4159 C4158 1.362 . S
H4160 C4166 0.930 . S
H4161 C4169 0.930 . S
H4162 C4170 0.930 . S
H4163 C4171 0.930 . S
H4164 C4174 0.930 . S
H4165 C4175 0.930 . S
C4166 H4160 0.930 . S
C4166 C4167 1.355 . S
C4166 C4168 1.415 . S
C4167 C4166 1.355 . S
C4167 C4169 1.419 . S
C4168 C4166 1.415 . S
C4168 C4173 1.425 . S
C4168 C4175 1.409 . S
C4169 H4161 0.930 . S
C4169 C4167 1.419 . S
C4169 C4170 1.362 . S
C4170 H4162 0.930 . S
C4170 C4169 1.362 . S
C4170 C4173 1.409 . S
C4171 H4163 0.930 . S
C4171 C4172 1.355 . S
C4171 C4173 1.415 . S
C4172 C4171 1.355 . S
C4172 C4174 1.419 . S
C4173 C4168 1.425 . S
C4173 C4170 1.409 . S
C4173 C4171 1.415 . S
C4174 H4164 0.930 . S
C4174 C4172 1.419 . S
C4174 C4175 1.362 . S
C4175 H4165 0.930 . S
C4175 C4168 1.409 . S
C4175 C4174 1.362 . S
H4176 C4182 0.930 . S
H4177 C4185 0.930 . S
H4178 C4186 0.930 . S
H4179 C4187 0.930 . S
H4180 C4190 0.930 . S
H4181 C4191 0.930 . S
C4182 H4176 0.930 . S
C4182 C4183 1.355 . S
C4182 C4184 1.415 . S
C4183 C4182 1.355 . S
C4183 C4185 1.419 . S
C4184 C4182 1.415 . S
C4184 C4189 1.425 . S
C4184 C4191 1.409 . S
C4185 H4177 0.930 . S
C4185 C4183 1.419 . S
C4185 C4186 1.362 . S
C4186 H4178 0.930 . S
C4186 C4185 1.362 . S
C4186 C4189 1.409 . S
C4187 H4179 0.930 . S
C4187 C4188 1.355 . S
C4187 C4189 1.415 . S
C4188 C4187 1.355 . S
C4188 C4190 1.419 . S
C4189 C4184 1.425 . S
C4189 C4186 1.409 . S
C4189 C4187 1.415 . S
C4190 H4180 0.930 . S
C4190 C4188 1.419 . S
C4190 C4191 1.362 . S
C4191 H4181 0.930 . S
C4191 C4184 1.409 . S
C4191 C4190 1.362 . S
H4192 C4198 0.930 . S
H4193 C4201 0.930 . S
H4194 C4202 0.930 . S
H4195 C4203 0.930 . S
H4196 C4206 0.930 . S
H4197 C4207 0.930 . S
C4198 H4192 0.930 . S
C4198 C4199 1.355 . S
C4198 C4200 1.415 . S
C4199 C4198 1.355 . S
C4199 C4201 1.419 . S
C4200 C4198 1.415 . S
C4200 C4205 1.425 . S
C4200 C4207 1.409 . S
C4201 H4193 0.930 . S
C4201 C4199 1.419 . S
C4201 C4202 1.362 . S
C4202 H4194 0.930 . S
C4202 C4201 1.362 . S
C4202 C4205 1.409 . S
C4203 H4195 0.930 . S
C4203 C4204 1.355 . S
C4203 C4205 1.415 . S
C4204 C4203 1.355 . S
C4204 C4206 1.419 . S
C4205 C4200 1.425 . S
C4205 C4202 1.409 . S
C4205 C4203 1.415 . S
C4206 H4196 0.930 . S
C4206 C4204 1.419 . S
C4206 C4207 1.362 . S
C4207 H4197 0.930 . S
C4207 C4200 1.409 . S
C4207 C4206 1.362 . S
H4208 C4214 0.930 . S
H4209 C4217 0.930 . S
H4210 C4218 0.930 . S
H4211 C4219 0.930 . S
H4212 C4222 0.930 . S
H4213 C4223 0.930 . S
C4214 H4208 0.930 . S
C4214 C4215 1.355 . S
C4214 C4216 1.415 . S
C4215 C4214 1.355 . S
C4215 C4217 1.419 . S
C4216 C4214 1.415 . S
C4216 C4221 1.425 . S
C4216 C4223 1.409 . S
C4217 H4209 0.930 . S
C4217 C4215 1.419 . S
C4217 C4218 1.362 . S
C4218 H4210 0.930 . S
C4218 C4217 1.362 . S
C4218 C4221 1.409 . S
C4219 H4211 0.930 . S
C4219 C4220 1.355 . S
C4219 C4221 1.415 . S
C4220 C4219 1.355 . S
C4220 C4222 1.419 . S
C4221 C4216 1.425 . S
C4221 C4218 1.409 . S
C4221 C4219 1.415 . S
C4222 H4212 0.930 . S
C4222 C4220 1.419 . S
C4222 C4223 1.362 . S
C4223 H4213 0.930 . S
C4223 C4216 1.409 . S
C4223 C4222 1.362 . S
H4224 C4230 0.930 . S
H4225 C4233 0.930 . S
H4226 C4234 0.930 . S
H4227 C4235 0.930 . S
H4228 C4238 0.930 . S
H4229 C4239 0.930 . S
C4230 H4224 0.930 . S
C4230 C4231 1.355 . S
C4230 C4232 1.415 . S
C4231 C4230 1.355 . S
C4231 C4233 1.419 . S
C4232 C4230 1.415 . S
C4232 C4237 1.425 . S
C4232 C4239 1.409 . S
C4233 H4225 0.930 . S
C4233 C4231 1.419 . S
C4233 C4234 1.362 . S
C4234 H4226 0.930 . S
C4234 C4233 1.362 . S
C4234 C4237 1.409 . S
C4235 H4227 0.930 . S
C4235 C4236 1.355 . S
C4235 C4237 1.415 . S
C4236 C4235 1.355 . S
C4236 C4238 1.419 . S
C4237 C4232 1.425 . S
C4237 C4234 1.409 . S
C4237 C4235 1.415 . S
C4238 H4228 0.930 . S
C4238 C4236 1.419 . S
C4238 C4239 1.362 . S
C4239 H4229 0.930 . S
C4239 C4232 1.409 . S
C4239 C4238 1.362 . S
H4240 C4246 0.930 . S
H4241 C4249 0.930 . S
H4242 C4250 0.930 . S
H4243 C4251 0.930 . S
H4244 C4254 0.930 . S
H4245 C4255 0.930 . S
C4246 H4240 0.930 . S
C4246 C4247 1.355 . S
C4246 C4248 1.415 . S
C4247 C4246 1.355 . S
C4247 C4249 1.419 . S
C4248 C4246 1.415 . S
C4248 C4253 1.425 . S
C4248 C4255 1.409 . S
C4249 H4241 0.930 . S
C4249 C4247 1.419 . S
C4249 C4250 1.362 . S
C4250 H4242 0.930 . S
C4250 C4249 1.362 . S
C4250 C4253 1.409 . S
C4251 H4243 0.930 . S
C4251 C4252 1.355 . S
C4251 C4253 1.415 . S
C4252 C4251 1.355 . S
C4252 C4254 1.419 . S
C4253 C4248 1.425 . S
C4253 C4250 1.409 . S
C4253 C4251 1.415 . S
C4254 H4244 0.930 . S
C4254 C4252 1.419 . S
C4254 C4255 1.362 . S
C4255 H4245 0.930 . S
C4255 C4248 1.409 . S
C4255 C4254 1.362 . S
H4256 C4262 0.930 . S
H4257 C4265 0.930 . S
H4258 C4266 0.930 . S
H4259 C4267 0.930 . S
H4260 C4270 0.930 . S
H4261 C4271 0.930 . S
C4262 H4256 0.930 . S
C4262 C4263 1.355 . S
C4262 C4264 1.415 . S
C4263 C4262 1.355 . S
C4263 C4265 1.419 . S
C4264 C4262 1.415 . S
C4264 C4269 1.425 . S
C4264 C4271 1.409 . S
C4265 H4257 0.930 . S
C4265 C4263 1.419 . S
C4265 C4266 1.362 . S
C4266 H4258 0.930 . S
C4266 C4265 1.362 . S
C4266 C4269 1.409 . S
C4267 H4259 0.930 . S
C4267 C4268 1.355 . S
C4267 C4269 1.415 . S
C4268 C4267 1.355 . S
C4268 C4270 1.419 . S
C4269 C4264 1.425 . S
C4269 C4266 1.409 . S
C4269 C4267 1.415 . S
C4270 H4260 0.930 . S
C4270 C4268 1.419 . S
C4270 C4271 1.362 . S
C4271 H4261 0.930 . S
C4271 C4264 1.409 . S
C4271 C4270 1.362 . S
H4272 C4278 0.930 . S
H4273 C4281 0.930 . S
H4274 C4282 0.930 . S
H4275 C4283 0.930 . S
H4276 C4286 0.930 . S
H4277 C4287 0.930 . S
C4278 H4272 0.930 . S
C4278 C4279 1.355 . S
C4278 C4280 1.415 . S
C4279 C4278 1.355 . S
C4279 C4281 1.419 . S
C4280 C4278 1.415 . S
C4280 C4285 1.425 . S
C4280 C4287 1.409 . S
C4281 H4273 0.930 . S
C4281 C4279 1.419 . S
C4281 C4282 1.362 . S
C4282 H4274 0.930 . S
C4282 C4281 1.362 . S
C4282 C4285 1.409 . S
C4283 H4275 0.930 . S
C4283 C4284 1.355 . S
C4283 C4285 1.415 . S
C4284 C4283 1.355 . S
C4284 C4286 1.419 . S
C4285 C4280 1.425 . S
C4285 C4282 1.409 . S
C4285 C4283 1.415 . S
C4286 H4276 0.930 . S
C4286 C4284 1.419 . S
C4286 C4287 1.362 . S
C4287 H4277 0.930 . S
C4287 C4280 1.409 . S
C4287 C4286 1.362 . S
H4288 C4294 0.930 . S
H4289 C4297 0.930 . S
H4290 C4298 0.930 . S
H4291 C4299 0.930 . S
H4292 C4302 0.930 . S
H4293 C4303 0.930 . S
C4294 H4288 0.930 . S
C4294 C4295 1.355 . S
C4294 C4296 1.415 . S
C4295 C4294 1.355 . S
C4295 C4297 1.419 . S
C4296 C4294 1.415 . S
C4296 C4301 1.425 . S
C4296 C4303 1.409 . S
C4297 H4289 0.930 . S
C4297 C4295 1.419 . S
C4297 C4298 1.362 . S
C4298 H4290 0.930 . S
C4298 C4297 1.362 . S
C4298 C4301 1.409 . S
C4299 H4291 0.930 . S
C4299 C4300 1.355 . S
C4299 C4301 1.415 . S
C4300 C4299 1.355 . S
C4300 C4302 1.419 . S
C4301 C4296 1.425 . S
C4301 C4298 1.409 . S
C4301 C4299 1.415 . S
C4302 H4292 0.930 . S
C4302 C4300 1.419 . S
C4302 C4303 1.362 . S
C4303 H4293 0.930 . S
C4303 C4296 1.409 . S
C4303 C4302 1.362 . S
H4304 C4310 0.930 . S
H4305 C4313 0.930 . S
H4306 C4314 0.930 . S
H4307 C4315 0.930 . S
H4308 C4318 0.930 . S
H4309 C4319 0.930 . S
C4310 H4304 0.930 . S
C4310 C4311 1.355 . S
C4310 C4312 1.415 . S
C4311 C4310 1.355 . S
C4311 C4313 1.419 . S
C4312 C4310 1.415 . S
C4312 C4317 1.425 . S
C4312 C4319 1.409 . S
C4313 H4305 0.930 . S
C4313 C4311 1.419 . S
C4313 C4314 1.362 . S
C4314 H4306 0.930 . S
C4314 C4313 1.362 . S
C4314 C4317 1.409 . S
C4315 H4307 0.930 . S
C4315 C4316 1.355 . S
C4315 C4317 1.415 . S
C4316 C4315 1.355 . S
C4316 C4318 1.419 . S
C4317 C4312 1.425 . S
C4317 C4314 1.409 . S
C4317 C4315 1.415 . S
C4318 H4308 0.930 . S
C4318 C4316 1.419 . S
C4318 C4319 1.362 . S
C4319 H4309 0.930 . S
C4319 C4312 1.409 . S
C4319 C4318 1.362 . S
H4320 C4326 0.930 . S
H4321 C4329 0.930 . S
H4322 C4330 0.930 . S
H4323 C4331 0.930 . S
H4324 C4334 0.930 . S
H4325 C4335 0.930 . S
C4326 H4320 0.930 . S
C4326 C4327 1.355 . S
C4326 C4328 1.415 . S
C4327 C4326 1.355 . S
C4327 C4329 1.419 . S
C4328 C4326 1.415 . S
C4328 C4333 1.425 . S
C4328 C4335 1.409 . S
C4329 H4321 0.930 . S
C4329 C4327 1.419 . S
C4329 C4330 1.362 . S
C4330 H4322 0.930 . S
C4330 C4329 1.362 . S
C4330 C4333 1.409 . S
C4331 H4323 0.930 . S
C4331 C4332 1.355 . S
C4331 C4333 1.415 . S
C4332 C4331 1.355 . S
C4332 C4334 1.419 . S
C4333 C4328 1.425 . S
C4333 C4330 1.409 . S
C4333 C4331 1.415 . S
C4334 H4324 0.930 . S
C4334 C4332 1.419 . S
C4334 C4335 1.362 . S
C4335 H4325 0.930 . S
C4335 C4328 1.409 . S
C4335 C4334 1.362 . S
H4336 C4342 0.930 . S
H4337 C4345 0.930 . S
H4338 C4346 0.930 . S
H4339 C4347 0.930 . S
H4340 C4350 0.930 . S
H4341 C4351 0.930 . S
C4342 H4336 0.930 . S
C4342 C4343 1.355 . S
C4342 C4344 1.415 . S
C4343 C4342 1.355 . S
C4343 C4345 1.419 . S
C4344 C4342 1.415 . S
C4344 C4349 1.425 . S
C4344 C4351 1.409 . S
C4345 H4337 0.930 . S
C4345 C4343 1.419 . S
C4345 C4346 1.362 . S
C4346 H4338 0.930 . S
C4346 C4345 1.362 . S
C4346 C4349 1.409 . S
C4347 H4339 0.930 . S
C4347 C4348 1.355 . S
C4347 C4349 1.415 . S
C4348 C4347 1.355 . S
C4348 C4350 1.419 . S
C4349 C4344 1.425 . S
C4349 C4346 1.409 . S
C4349 C4347 1.415 . S
C4350 H4340 0.930 . S
C4350 C4348 1.419 . S
C4350 C4351 1.362 . S
C4351 H4341 0.930 . S
C4351 C4344 1.409 . S
C4351 C4350 1.362 . S
H4352 C4358 0.930 . S
H4353 C4361 0.930 . S
H4354 C4362 0.930 . S
H4355 C4363 0.930 . S
H4356 C4366 0.930 . S
H4357 C4367 0.930 . S
C4358 H4352 0.930 . S
C4358 C4359 1.355 . S
C4358 C4360 1.415 . S
C4359 C4358 1.355 . S
C4359 C4361 1.419 . S
C4360 C4358 1.415 . S
C4360 C4365 1.425 . S
C4360 C4367 1.409 . S
C4361 H4353 0.930 . S
C4361 C4359 1.419 . S
C4361 C4362 1.362 . S
C4362 H4354 0.930 . S
C4362 C4361 1.362 . S
C4362 C4365 1.409 . S
C4363 H4355 0.930 . S
C4363 C4364 1.355 . S
C4363 C4365 1.415 . S
C4364 C4363 1.355 . S
C4364 C4366 1.419 . S
C4365 C4360 1.425 . S
C4365 C4362 1.409 . S
C4365 C4363 1.415 . S
C4366 H4356 0.930 . S
C4366 C4364 1.419 . S
C4366 C4367 1.362 . S
C4367 H4357 0.930 . S
C4367 C4360 1.409 . S
C4367 C4366 1.362 . S
H4368 C4374 0.930 . S
H4369 C4377 0.930 . S
H4370 C4378 0.930 . S
H4371 C4379 0.930 . S
H4372 C4382 0.930 . S
H4373 C4383 0.930 . S
C4374 H4368 0.930 . S
C4374 C4375 1.355 . S
C4374 C4376 1.415 . S
C4375 C4374 1.355 . S
C4375 C4377 1.419 . S
C4376 C4374 1.415 . S
C4376 C4381 1.425 . S
C4376 C4383 1.409 . S
C4377 H4369 0.930 . S
C4377 C4375 1.419 . S
C4377 C4378 1.362 . S
C4378 H4370 0.930 . S
C4378 C4377 1.362 . S
C4378 C4381 1.409 . S
C4379 H4371 0.930 . S
C4379 C4380 1.355 . S
C4379 C4381 1.415 . S
C4380 C4379 1.355 . S
C4380 C4382 1.419 . S
C4381 C4376 1.425 . S
C4381 C4378 1.409 . S
C4381 C4379 1.415 . S
C4382 H4372 0.930 . S
C4382 C4380 1.419 . S
C4382 C4383 1.362 . S
C4383 H4373 0.930 . S
C4383 C4376 1.409 . S
C4383 C4382 1.362 . S
H4384 C4390 0.930 . S
H4385 C4393 0.930 . S
H4386 C4394 0.930 . S
H4387 C4395 0.930 . S
H4388 C4398 0.930 . S
H4389 C4399 0.930 . S
C4390 H4384 0.930 . S
C4390 C4391 1.355 . S
C4390 C4392 1.415 . S
C4391 C4390 1.355 . S
C4391 C4393 1.419 . S
C4392 C4390 1.415 . S
C4392 C4397 1.425 . S
C4392 C4399 1.409 . S
C4393 H4385 0.930 . S
C4393 C4391 1.419 . S
C4393 C4394 1.362 . S
C4394 H4386 0.930 . S
C4394 C4393 1.362 . S
C4394 C4397 1.409 . S
C4395 H4387 0.930 . S
C4395 C4396 1.355 . S
C4395 C4397 1.415 . S
C4396 C4395 1.355 . S
C4396 C4398 1.419 . S
C4397 C4392 1.425 . S
C4397 C4394 1.409 . S
C4397 C4395 1.415 . S
C4398 H4388 0.930 . S
C4398 C4396 1.419 . S
C4398 C4399 1.362 . S
C4399 H4389 0.930 . S
C4399 C4392 1.409 . S
C4399 C4398 1.362 . S
H4400 C4406 0.930 . S
H4401 C4409 0.930 . S
H4402 C4410 0.930 . S
H4403 C4411 0.930 . S
H4404 C4414 0.930 . S
H4405 C4415 0.930 . S
C4406 H4400 0.930 . S
C4406 C4407 1.355 . S
C4406 C4408 1.415 . S
C4407 C4406 1.355 . S
C4407 C4409 1.419 . S
C4408 C4406 1.415 . S
C4408 C4413 1.425 . S
C4408 C4415 1.409 . S
C4409 H4401 0.930 . S
C4409 C4407 1.419 . S
C4409 C4410 1.362 . S
C4410 H4402 0.930 . S
C4410 C4409 1.362 . S
C4410 C4413 1.409 . S
C4411 H4403 0.930 . S
C4411 C4412 1.355 . S
C4411 C4413 1.415 . S
C4412 C4411 1.355 . S
C4412 C4414 1.419 . S
C4413 C4408 1.425 . S
C4413 C4410 1.409 . S
C4413 C4411 1.415 . S
C4414 H4404 0.930 . S
C4414 C4412 1.419 . S
C4414 C4415 1.362 . S
C4415 H4405 0.930 . S
C4415 C4408 1.409 . S
C4415 C4414 1.362 . S
H4416 C4422 0.930 . S
H4417 C4425 0.930 . S
H4418 C4426 0.930 . S
H4419 C4427 0.930 . S
H4420 C4430 0.930 . S
H4421 C4431 0.930 . S
C4422 H4416 0.930 . S
C4422 C4423 1.355 . S
C4422 C4424 1.415 . S
C4423 C4422 1.355 . S
C4423 C4425 1.419 . S
C4424 C4422 1.415 . S
C4424 C4429 1.425 . S
C4424 C4431 1.409 . S
C4425 H4417 0.930 . S
C4425 C4423 1.419 . S
C4425 C4426 1.362 . S
C4426 H4418 0.930 . S
C4426 C4425 1.362 . S
C4426 C4429 1.409 . S
C4427 H4419 0.930 . S
C4427 C4428 1.355 . S
C4427 C4429 1.415 1_655 S
C4428 C4427 1.355 . S
C4428 C4430 1.419 . S
C4429 C4424 1.425 . S
C4429 C4426 1.409 . S
C4429 C4427 1.415 1_455 S
C4430 H4420 0.930 . S
C4430 C4428 1.419 . S
C4430 C4431 1.362 1_655 S
C4431 H4421 0.930 . S
C4431 C4424 1.409 . S
C4431 C4430 1.362 1_455 S
H4432 C4438 0.930 . S
H4433 C4441 0.930 . S
H4434 C4442 0.930 . S
H4435 C4443 0.930 . S
H4436 C4446 0.930 . S
H4437 C4447 0.930 . S
C4438 H4432 0.930 . S
C4438 C4439 1.355 . S
C4438 C4440 1.415 . S
C4439 C4438 1.355 . S
C4439 C4441 1.419 . S
C4440 C4438 1.415 . S
C4440 C4445 1.425 . S
C4440 C4447 1.409 . S
C4441 H4433 0.930 . S
C4441 C4439 1.419 . S
C4441 C4442 1.362 . S
C4442 H4434 0.930 . S
C4442 C4441 1.362 . S
C4442 C4445 1.409 . S
C4443 H4435 0.930 . S
C4443 C4444 1.355 . S
C4443 C4445 1.415 . S
C4444 C4443 1.355 . S
C4444 C4446 1.419 . S
C4445 C4440 1.425 . S
C4445 C4442 1.409 . S
C4445 C4443 1.415 . S
C4446 H4436 0.930 . S
C4446 C4444 1.419 . S
C4446 C4447 1.362 . S
C4447 H4437 0.930 . S
C4447 C4440 1.409 . S
C4447 C4446 1.362 . S
H4448 C4454 0.930 . S
H4449 C4457 0.930 . S
H4450 C4458 0.930 . S
H4451 C4459 0.930 . S
H4452 C4462 0.930 . S
H4453 C4463 0.930 . S
C4454 H4448 0.930 . S
C4454 C4455 1.355 . S
C4454 C4456 1.415 . S
C4455 C4454 1.355 . S
C4455 C4457 1.419 . S
C4456 C4454 1.415 . S
C4456 C4461 1.425 . S
C4456 C4463 1.409 1_545 S
C4457 H4449 0.930 . S
C4457 C4455 1.419 . S
C4457 C4458 1.362 . S
C4458 H4450 0.930 . S
C4458 C4457 1.362 . S
C4458 C4461 1.409 . S
C4459 H4451 0.930 . S
C4459 C4460 1.355 . S
C4459 C4461 1.415 1_565 S
C4460 C4459 1.355 . S
C4460 C4462 1.419 . S
C4461 C4456 1.425 . S
C4461 C4458 1.409 . S
C4461 C4459 1.415 1_545 S
C4462 H4452 0.930 . S
C4462 C4460 1.419 . S
C4462 C4463 1.362 . S
C4463 H4453 0.930 . S
C4463 C4456 1.409 1_565 S
C4463 C4462 1.362 . S
H4464 C4470 0.930 . S
H4465 C4473 0.930 . S
H4466 C4474 0.930 . S
H4467 C4475 0.930 . S
H4468 C4478 0.930 . S
H4469 C4479 0.930 . S
C4470 H4464 0.930 . S
C4470 C4471 1.355 . S
C4470 C4472 1.415 1_565 S
C4471 C4470 1.355 . S
C4471 C4473 1.419 . S
C4472 C4470 1.415 1_545 S
C4472 C4477 1.425 . S
C4472 C4479 1.409 . S
C4473 H4465 0.930 . S
C4473 C4471 1.419 . S
C4473 C4474 1.362 1_565 S
C4474 H4466 0.930 . S
C4474 C4473 1.362 1_545 S
C4474 C4477 1.409 . S
C4475 H4467 0.930 . S
C4475 C4476 1.355 . S
C4475 C4477 1.415 . S
C4476 C4475 1.355 . S
C4476 C4478 1.419 . S
C4477 C4472 1.425 . S
C4477 C4474 1.409 . S
C4477 C4475 1.415 . S
C4478 H4468 0.930 . S
C4478 C4476 1.419 . S
C4478 C4479 1.362 . S
C4479 H4469 0.930 . S
C4479 C4472 1.409 . S
C4479 C4478 1.362 . S
H4480 C4486 0.930 . S
H4481 C4489 0.930 . S
H4482 C4490 0.930 . S
H4483 C4491 0.930 . S
H4484 C4494 0.930 . S
H4485 C4495 0.930 . S
C4486 H4480 0.930 . S
C4486 C4487 1.355 . S
C4486 C4488 1.415 . S
C4487 C4486 1.355 . S
C4487 C4489 1.419 . S
C4488 C4486 1.415 . S
C4488 C4493 1.425 . S
C4488 C4495 1.409 1_455 S
C4489 H4481 0.930 . S
C4489 C4487 1.419 . S
C4489 C4490 1.362 . S
C4490 H4482 0.930 . S
C4490 C4489 1.362 . S
C4490 C4493 1.409 . S
C4491 H4483 0.930 . S
C4491 C4492 1.355 . S
C4491 C4493 1.415 1_655 S
C4492 C4491 1.355 . S
C4492 C4494 1.419 . S
C4493 C4488 1.425 . S
C4493 C4490 1.409 . S
C4493 C4491 1.415 1_455 S
C4494 H4484 0.930 . S
C4494 C4492 1.419 . S
C4494 C4495 1.362 . S
C4495 H4485 0.930 . S
C4495 C4488 1.409 1_655 S
C4495 C4494 1.362 . S
H4496 C4502 0.930 . S
H4497 C4505 0.930 . S
H4498 C4506 0.930 . S
H4499 C4507 0.930 . S
H4500 C4510 0.930 . S
H4501 C4511 0.930 . S
C4502 H4496 0.930 . S
C4502 C4503 1.355 . S
C4502 C4504 1.415 . S
C4503 C4502 1.355 . S
C4503 C4505 1.419 . S
C4504 C4502 1.415 . S
C4504 C4509 1.425 . S
C4504 C4511 1.409 . S
C4505 H4497 0.930 . S
C4505 C4503 1.419 . S
C4505 C4506 1.362 . S
C4506 H4498 0.930 . S
C4506 C4505 1.362 . S
C4506 C4509 1.409 . S
C4507 H4499 0.930 . S
C4507 C4508 1.355 . S
C4507 C4509 1.415 . S
C4508 C4507 1.355 . S
C4508 C4510 1.419 . S
C4509 C4504 1.425 . S
C4509 C4506 1.409 . S
C4509 C4507 1.415 . S
C4510 H4500 0.930 . S
C4510 C4508 1.419 . S
C4510 C4511 1.362 . S
C4511 H4501 0.930 . S
C4511 C4504 1.409 . S
C4511 C4510 1.362 . S
H4512 C4518 0.930 . S
H4513 C4521 0.930 . S
H4514 C4522 0.930 . S
H4515 C4523 0.930 . S
H4516 C4526 0.930 . S
H4517 C4527 0.930 . S
C4518 H4512 0.930 . S
C4518 C4519 1.355 . S
C4518 C4520 1.415 . S
C4519 C4518 1.355 . S
C4519 C4521 1.419 . S
C4520 C4518 1.415 . S
C4520 C4525 1.425 . S
C4520 C4527 1.409 . S
C4521 H4513 0.930 . S
C4521 C4519 1.419 . S
C4521 C4522 1.362 . S
C4522 H4514 0.930 . S
C4522 C4521 1.362 . S
C4522 C4525 1.409 . S
C4523 H4515 0.930 . S
C4523 C4524 1.355 . S
C4523 C4525 1.415 . S
C4524 C4523 1.355 . S
C4524 C4526 1.419 . S
C4525 C4520 1.425 . S
C4525 C4522 1.409 . S
C4525 C4523 1.415 . S
C4526 H4516 0.930 . S
C4526 C4524 1.419 . S
C4526 C4527 1.362 . S
C4527 H4517 0.930 . S
C4527 C4520 1.409 . S
C4527 C4526 1.362 . S
H4528 C4534 0.930 . S
H4529 C4537 0.930 . S
H4530 C4538 0.930 . S
H4531 C4539 0.930 . S
H4532 C4542 0.930 . S
H4533 C4543 0.930 . S
C4534 H4528 0.930 . S
C4534 C4535 1.355 . S
C4534 C4536 1.415 . S
C4535 C4534 1.355 . S
C4535 C4537 1.419 . S
C4536 C4534 1.415 . S
C4536 C4541 1.425 . S
C4536 C4543 1.409 . S
C4537 H4529 0.930 . S
C4537 C4535 1.419 . S
C4537 C4538 1.362 . S
C4538 H4530 0.930 . S
C4538 C4537 1.362 . S
C4538 C4541 1.409 . S
C4539 H4531 0.930 . S
C4539 C4540 1.355 . S
C4539 C4541 1.415 . S
C4540 C4539 1.355 . S
C4540 C4542 1.419 . S
C4541 C4536 1.425 . S
C4541 C4538 1.409 . S
C4541 C4539 1.415 . S
C4542 H4532 0.930 . S
C4542 C4540 1.419 . S
C4542 C4543 1.362 . S
C4543 H4533 0.930 . S
C4543 C4536 1.409 . S
C4543 C4542 1.362 . S
H4544 C4550 0.930 . S
H4545 C4553 0.930 . S
H4546 C4554 0.930 . S
H4547 C4555 0.930 . S
H4548 C4558 0.930 . S
H4549 C4559 0.930 . S
C4550 H4544 0.930 . S
C4550 C4551 1.355 . S
C4550 C4552 1.415 . S
C4551 C4550 1.355 . S
C4551 C4553 1.419 . S
C4552 C4550 1.415 . S
C4552 C4557 1.425 . S
C4552 C4559 1.409 . S
C4553 H4545 0.930 . S
C4553 C4551 1.419 . S
C4553 C4554 1.362 . S
C4554 H4546 0.930 . S
C4554 C4553 1.362 . S
C4554 C4557 1.409 . S
C4555 H4547 0.930 . S
C4555 C4556 1.355 . S
C4555 C4557 1.415 . S
C4556 C4555 1.355 . S
C4556 C4558 1.419 . S
C4557 C4552 1.425 . S
C4557 C4554 1.409 . S
C4557 C4555 1.415 . S
C4558 H4548 0.930 . S
C4558 C4556 1.419 . S
C4558 C4559 1.362 . S
C4559 H4549 0.930 . S
C4559 C4552 1.409 . S
C4559 C4558 1.362 . S
H4560 C4566 0.930 . S
H4561 C4569 0.930 . S
H4562 C4570 0.930 . S
H4563 C4571 0.930 . S
H4564 C4574 0.930 . S
H4565 C4575 0.930 . S
C4566 H4560 0.930 . S
C4566 C4567 1.355 . S
C4566 C4568 1.415 1_565 S
C4567 C4566 1.355 . S
C4567 C4569 1.419 . S
C4568 C4566 1.415 1_545 S
C4568 C4573 1.425 . S
C4568 C4575 1.409 . S
C4569 H4561 0.930 . S
C4569 C4567 1.419 . S
C4569 C4570 1.362 1_565 S
C4570 H4562 0.930 . S
C4570 C4569 1.362 1_545 S
C4570 C4573 1.409 . S
C4571 H4563 0.930 . S
C4571 C4572 1.355 . S
C4571 C4573 1.415 . S
C4572 C4571 1.355 . S
C4572 C4574 1.419 . S
C4573 C4568 1.425 . S
C4573 C4570 1.409 . S
C4573 C4571 1.415 . S
C4574 H4564 0.930 . S
C4574 C4572 1.419 . S
C4574 C4575 1.362 . S
C4575 H4565 0.930 . S
C4575 C4568 1.409 . S
C4575 C4574 1.362 . S
H4576 C4582 0.930 . S
H4577 C4585 0.930 . S
H4578 C4586 0.930 . S
H4579 C4587 0.930 . S
H4580 C4590 0.930 . S
H4581 C4591 0.930 . S
C4582 H4576 0.930 . S
C4582 C4583 1.355 . S
C4582 C4584 1.415 1_655 S
C4583 C4582 1.355 . S
C4583 C4585 1.419 . S
C4584 C4582 1.415 1_455 S
C4584 C4589 1.425 . S
C4584 C4591 1.409 . S
C4585 H4577 0.930 . S
C4585 C4583 1.419 . S
C4585 C4586 1.362 . S
C4586 H4578 0.930 . S
C4586 C4585 1.362 . S
C4586 C4589 1.409 1_655 S
C4587 H4579 0.930 . S
C4587 C4588 1.355 . S
C4587 C4589 1.415 . S
C4588 C4587 1.355 . S
C4588 C4590 1.419 . S
C4589 C4584 1.425 . S
C4589 C4586 1.409 1_455 S
C4589 C4587 1.415 . S
C4590 H4580 0.930 . S
C4590 C4588 1.419 . S
C4590 C4591 1.362 . S
C4591 H4581 0.930 . S
C4591 C4584 1.409 . S
C4591 C4590 1.362 . S
H4592 C4598 0.930 . S
H4593 C4601 0.930 . S
H4594 C4602 0.930 . S
H4595 C4603 0.930 . S
H4596 C4606 0.930 . S
H4597 C4607 0.930 . S
C4598 H4592 0.930 . S
C4598 C4599 1.355 . S
C4598 C4600 1.415 . S
C4599 C4598 1.355 . S
C4599 C4601 1.419 . S
C4600 C4598 1.415 . S
C4600 C4605 1.425 . S
C4600 C4607 1.409 . S
C4601 H4593 0.930 . S
C4601 C4599 1.419 . S
C4601 C4602 1.362 . S
C4602 H4594 0.930 . S
C4602 C4601 1.362 . S
C4602 C4605 1.409 . S
C4603 H4595 0.930 . S
C4603 C4604 1.355 . S
C4603 C4605 1.415 . S
C4604 C4603 1.355 . S
C4604 C4606 1.419 . S
C4605 C4600 1.425 . S
C4605 C4602 1.409 . S
C4605 C4603 1.415 . S
C4606 H4596 0.930 . S
C4606 C4604 1.419 . S
C4606 C4607 1.362 . S
C4607 H4597 0.930 . S
C4607 C4600 1.409 . S
C4607 C4606 1.362 . S
H4608 C4614 0.930 . S
H4609 C4617 0.930 . S
H4610 C4618 0.930 . S
H4611 C4619 0.930 . S
H4612 C4622 0.930 . S
H4613 C4623 0.930 . S
C4614 H4608 0.930 . S
C4614 C4615 1.355 . S
C4614 C4616 1.415 . S
C4615 C4614 1.355 . S
C4615 C4617 1.419 . S
C4616 C4614 1.415 . S
C4616 C4621 1.425 . S
C4616 C4623 1.409 . S
C4617 H4609 0.930 . S
C4617 C4615 1.419 . S
C4617 C4618 1.362 . S
C4618 H4610 0.930 . S
C4618 C4617 1.362 . S
C4618 C4621 1.409 . S
C4619 H4611 0.930 . S
C4619 C4620 1.355 . S
C4619 C4621 1.415 . S
C4620 C4619 1.355 . S
C4620 C4622 1.419 . S
C4621 C4616 1.425 . S
C4621 C4618 1.409 . S
C4621 C4619 1.415 . S
C4622 H4612 0.930 . S
C4622 C4620 1.419 . S
C4622 C4623 1.362 . S
C4623 H4613 0.930 . S
C4623 C4616 1.409 . S
C4623 C4622 1.362 . S
H4624 C4630 0.930 . S
H4625 C4633 0.930 . S
H4626 C4634 0.930 . S
H4627 C4635 0.930 . S
H4628 C4638 0.930 . S
H4629 C4639 0.930 . S
C4630 H4624 0.930 . S
C4630 C4631 1.355 . S
C4630 C4632 1.415 . S
C4631 C4630 1.355 . S
C4631 C4633 1.419 . S
C4632 C4630 1.415 . S
C4632 C4637 1.425 . S
C4632 C4639 1.409 . S
C4633 H4625 0.930 . S
C4633 C4631 1.419 . S
C4633 C4634 1.362 . S
C4634 H4626 0.930 . S
C4634 C4633 1.362 . S
C4634 C4637 1.409 . S
C4635 H4627 0.930 . S
C4635 C4636 1.355 . S
C4635 C4637 1.415 . S
C4636 C4635 1.355 . S
C4636 C4638 1.419 . S
C4637 C4632 1.425 . S
C4637 C4634 1.409 . S
C4637 C4635 1.415 . S
C4638 H4628 0.930 . S
C4638 C4636 1.419 . S
C4638 C4639 1.362 . S
C4639 H4629 0.930 . S
C4639 C4632 1.409 . S
C4639 C4638 1.362 . S
H4640 C4646 0.930 . S
H4641 C4649 0.930 . S
H4642 C4650 0.930 . S
H4643 C4651 0.930 . S
H4644 C4654 0.930 . S
H4645 C4655 0.930 . S
C4646 H4640 0.930 . S
C4646 C4647 1.355 . S
C4646 C4648 1.415 . S
C4647 C4646 1.355 . S
C4647 C4649 1.419 . S
C4648 C4646 1.415 . S
C4648 C4653 1.425 . S
C4648 C4655 1.409 . S
C4649 H4641 0.930 . S
C4649 C4647 1.419 . S
C4649 C4650 1.362 . S
C4650 H4642 0.930 . S
C4650 C4649 1.362 . S
C4650 C4653 1.409 . S
C4651 H4643 0.930 . S
C4651 C4652 1.355 . S
C4651 C4653 1.415 . S
C4652 C4651 1.355 . S
C4652 C4654 1.419 . S
C4653 C4648 1.425 . S
C4653 C4650 1.409 . S
C4653 C4651 1.415 . S
C4654 H4644 0.930 . S
C4654 C4652 1.419 . S
C4654 C4655 1.362 . S
C4655 H4645 0.930 . S
C4655 C4648 1.409 . S
C4655 C4654 1.362 . S
H4656 C4662 0.930 . S
H4657 C4665 0.930 . S
H4658 C4666 0.930 . S
H4659 C4667 0.930 . S
H4660 C4670 0.930 . S
H4661 C4671 0.930 . S
C4662 H4656 0.930 . S
C4662 C4663 1.355 . S
C4662 C4664 1.415 . S
C4663 C4662 1.355 . S
C4663 C4665 1.419 . S
C4664 C4662 1.415 . S
C4664 C4669 1.425 . S
C4664 C4671 1.409 . S
C4665 H4657 0.930 . S
C4665 C4663 1.419 . S
C4665 C4666 1.362 . S
C4666 H4658 0.930 . S
C4666 C4665 1.362 . S
C4666 C4669 1.409 . S
C4667 H4659 0.930 . S
C4667 C4668 1.355 . S
C4667 C4669 1.415 . S
C4668 C4667 1.355 . S
C4668 C4670 1.419 . S
C4669 C4664 1.425 . S
C4669 C4666 1.409 . S
C4669 C4667 1.415 . S
C4670 H4660 0.930 . S
C4670 C4668 1.419 . S
C4670 C4671 1.362 . S
C4671 H4661 0.930 . S
C4671 C4664 1.409 . S
C4671 C4670 1.362 . S
H4672 C4678 0.930 . S
H4673 C4681 0.930 . S
H4674 C4682 0.930 . S
H4675 C4683 0.930 . S
H4676 C4686 0.930 . S
H4677 C4687 0.930 . S
C4678 H4672 0.930 . S
C4678 C4679 1.355 . S
C4678 C4680 1.415 . S
C4679 C4678 1.355 . S
C4679 C4681 1.419 . S
C4680 C4678 1.415 . S
C4680 C4685 1.425 . S
C4680 C4687 1.409 . S
C4681 H4673 0.930 . S
C4681 C4679 1.419 . S
C4681 C4682 1.362 . S
C4682 H4674 0.930 . S
C4682 C4681 1.362 . S
C4682 C4685 1.409 . S
C4683 H4675 0.930 . S
C4683 C4684 1.355 . S
C4683 C4685 1.415 . S
C4684 C4683 1.355 . S
C4684 C4686 1.419 . S
C4685 C4680 1.425 . S
C4685 C4682 1.409 . S
C4685 C4683 1.415 . S
C4686 H4676 0.930 . S
C4686 C4684 1.419 . S
C4686 C4687 1.362 . S
C4687 H4677 0.930 . S
C4687 C4680 1.409 . S
C4687 C4686 1.362 . S
H4688 C4694 0.930 . S
H4689 C4697 0.930 . S
H4690 C4698 0.930 . S
H4691 C4699 0.930 . S
H4692 C4702 0.930 . S
H4693 C4703 0.930 . S
C4694 H4688 0.930 . S
C4694 C4695 1.355 . S
C4694 C4696 1.415 . S
C4695 C4694 1.355 . S
C4695 C4697 1.419 . S
C4696 C4694 1.415 . S
C4696 C4701 1.425 . S
C4696 C4703 1.409 . S
C4697 H4689 0.930 . S
C4697 C4695 1.419 . S
C4697 C4698 1.362 . S
C4698 H4690 0.930 . S
C4698 C4697 1.362 . S
C4698 C4701 1.409 . S
C4699 H4691 0.930 . S
C4699 C4700 1.355 . S
C4699 C4701 1.415 . S
C4700 C4699 1.355 . S
C4700 C4702 1.419 . S
C4701 C4696 1.425 . S
C4701 C4698 1.409 . S
C4701 C4699 1.415 . S
C4702 H4692 0.930 . S
C4702 C4700 1.419 . S
C4702 C4703 1.362 . S
C4703 H4693 0.930 . S
C4703 C4696 1.409 . S
C4703 C4702 1.362 . S
H4704 C4710 0.930 . S
H4705 C4713 0.930 . S
H4706 C4714 0.930 . S
H4707 C4715 0.930 . S
H4708 C4718 0.930 . S
H4709 C4719 0.930 . S
C4710 H4704 0.930 . S
C4710 C4711 1.355 . S
C4710 C4712 1.415 1_655 S
C4711 C4710 1.355 . S
C4711 C4713 1.419 . S
C4712 C4710 1.415 1_455 S
C4712 C4717 1.425 . S
C4712 C4719 1.409 . S
C4713 H4705 0.930 . S
C4713 C4711 1.419 . S
C4713 C4714 1.362 1_655 S
C4714 H4706 0.930 . S
C4714 C4713 1.362 1_455 S
C4714 C4717 1.409 . S
C4715 H4707 0.930 . S
C4715 C4716 1.355 . S
C4715 C4717 1.415 . S
C4716 C4715 1.355 . S
C4716 C4718 1.419 . S
C4717 C4712 1.425 . S
C4717 C4714 1.409 . S
C4717 C4715 1.415 . S
C4718 H4708 0.930 . S
C4718 C4716 1.419 . S
C4718 C4719 1.362 . S
C4719 H4709 0.930 . S
C4719 C4712 1.409 . S
C4719 C4718 1.362 . S
H4720 C4726 0.930 . S
H4721 C4729 0.930 . S
H4722 C4730 0.930 . S
H4723 C4731 0.930 . S
H4724 C4734 0.930 . S
H4725 C4735 0.930 . S
C4726 H4720 0.930 . S
C4726 C4727 1.355 . S
C4726 C4728 1.415 . S
C4727 C4726 1.355 . S
C4727 C4729 1.419 . S
C4728 C4726 1.415 . S
C4728 C4733 1.425 . S
C4728 C4735 1.409 . S
C4729 H4721 0.930 . S
C4729 C4727 1.419 . S
C4729 C4730 1.362 . S
C4730 H4722 0.930 . S
C4730 C4729 1.362 . S
C4730 C4733 1.409 . S
C4731 H4723 0.930 . S
C4731 C4732 1.355 . S
C4731 C4733 1.415 . S
C4732 C4731 1.355 . S
C4732 C4734 1.419 . S
C4733 C4728 1.425 . S
C4733 C4730 1.409 . S
C4733 C4731 1.415 . S
C4734 H4724 0.930 . S
C4734 C4732 1.419 . S
C4734 C4735 1.362 . S
C4735 H4725 0.930 . S
C4735 C4728 1.409 . S
C4735 C4734 1.362 . S
H4736 C4742 0.930 . S
H4737 C4745 0.930 . S
H4738 C4746 0.930 . S
H4739 C4747 0.930 . S
H4740 C4750 0.930 . S
H4741 C4751 0.930 . S
C4742 H4736 0.930 . S
C4742 C4743 1.355 . S
C4742 C4744 1.415 1_565 S
C4743 C4742 1.355 . S
C4743 C4745 1.419 . S
C4744 C4742 1.415 1_545 S
C4744 C4749 1.425 . S
C4744 C4751 1.409 . S
C4745 H4737 0.930 . S
C4745 C4743 1.419 . S
C4745 C4746 1.362 . S
C4746 H4738 0.930 . S
C4746 C4745 1.362 . S
C4746 C4749 1.409 1_565 S
C4747 H4739 0.930 . S
C4747 C4748 1.355 . S
C4747 C4749 1.415 . S
C4748 C4747 1.355 . S
C4748 C4750 1.419 . S
C4749 C4744 1.425 . S
C4749 C4746 1.409 1_545 S
C4749 C4747 1.415 . S
C4750 H4740 0.930 . S
C4750 C4748 1.419 . S
C4750 C4751 1.362 . S
C4751 H4741 0.930 . S
C4751 C4744 1.409 . S
C4751 C4750 1.362 . S
C3031 C2331 1.946 . S
C3036 C63 1.992 . S
C3047 C2415 1.936 . S
C3052 C147 1.938 . S
C3063 C231 1.987 . S
C3068 C2499 1.969 . S
C3079 C315 1.972 . S
C3084 C1071 1.985 . S
C3095 C399 1.926 . S
C3100 C1155 1.978 . S
C3111 C1239 1.982 . S
C3116 C483 1.976 . S
C3127 C578 1.948 . S
C3132 C1838 1.992 . S
C3143 C1922 1.934 . S
C3148 C662 1.988 . S
C3159 C746 1.982 . S
C3164 C2006 1.976 . S
C3175 C2594 1.982 . S
C3180 C830 1.928 . S
C3191 C914 1.937 . S
C3196 C2678 1.937 . S
C3207 C2762 1.932 . S
C3212 C998 1.942 . S
C3223 C2079 1.935 . S
C3228 C1323 1.988 . S
C3239 C1407 1.924 . S
C3244 C2163 1.964 . S
C3255 C2247 1.978 . S
C3260 C1491 1.926 . S
C3271 C1586 1.955 . S
C3276 C2846 1.992 . S
C3287 C1670 1.947 . S
C3292 C2930 1.928 . S
C3303 C3014 1.924 . S
C3308 C1754 1.974 . S
C3319 C74 1.865 . S
C3324 C567 1.865 . S
C3335 C651 1.858 . S
C3340 C158 1.858 . S
C3351 C242 1.832 . S
C3356 C735 1.832 . S
C3367 C819 1.781 . S
C3372 C326 1.781 . S
C3383 C410 1.780 . S
C3388 C903 1.780 . S
C3399 C987 1.848 . S
C3404 C494 1.848 . S
C3415 C1575 1.862 . S
C3420 C1082 1.862 . S
C3431 C1166 1.865 . S
C3436 C1659 1.865 . S
C3447 C1743 1.851 . S
C3452 C1250 1.851 . S
C3463 C1334 1.851 . S
C3468 C1827 1.851 . S
C3479 C1911 1.864 . S
C3484 C1418 1.864 . S
C3495 C1502 1.838 . S
C3500 C1995 1.838 . S
C3511 C2090 1.831 . S
C3516 C2583 1.831 . S
C3527 C2667 1.818 . S
C3532 C2174 1.818 . S
C3543 C2751 1.801 . S
C3548 C2258 1.801 . S
C3559 C2835 1.796 . S
C3564 C2342 1.796 . S
C3575 C2426 1.788 . S
C3580 C2919 1.788 . S
C3591 C2510 1.781 . S
C3596 C3003 1.781 . S
C3607 C70 1.675 . S
C3612 C235 1.782 . S
C3623 C154 1.711 . S
C3628 C67 1.835 . S
C3639 C151 1.766 . S
C3644 C238 1.747 . S
C3655 C322 1.734 . S
C3660 C403 1.761 . S
C3671 C487 1.788 . S
C3676 C406 1.759 . S
C3687 C319 1.808 . S
C3692 C490 1.752 . S
C3703 C728 1.789 . S
C3708 C562 1.669 . S
C3719 C646 1.689 . S
C3724 C560 1.772 . S
C3735 C730 1.759 . S
C3740 C644 1.793 . S
C3751 C896 1.761 . S
C3756 C814 1.719 . S
C3767 C898 1.691 . S
C3772 C980 1.837 . S
C3783 C982 1.676 . S
C3788 C812 1.834 . S
C3799 C1243 1.785 . S
C3804 C1078 1.673 . S
C3815 C1075 1.837 . S
C3820 C1162 1.701 . S
C3831 C1159 1.776 . S
C3836 C1246 1.756 . S
C3847 C1411 1.793 . S
C3852 C1330 1.667 . S
C3863 C1414 1.715 . S
C3868 C1495 1.762 . S
C3879 C1327 1.796 . S
C3884 C1498 1.758 . S
C3895 C1570 1.742 . S
C3900 C1736 1.819 . S
C3911 C1568 1.801 . S
C3916 C1654 1.756 . S
C3927 C1738 1.696 . S
C3932 C1652 1.837 . S
C3943 C1904 1.776 . S
C3948 C1822 1.756 . S
C3959 C1988 1.761 . S
C3964 C1906 1.725 . S
C3975 C1820 1.797 . S
C3980 C1990 1.665 . S
C3991 C2251 1.764 . S
C3996 C2086 1.741 . S
C4007 C2170 1.662 . S
C4012 C2083 1.803 . S
C4023 C2167 1.768 . S
C4028 C2254 1.750 . S
C4039 C2338 1.739 . S
C4044 C2419 1.763 . S
C4055 C2422 1.683 . S
C4060 C2503 1.777 . S
C4071 C2335 1.773 . S
C4076 C2506 1.687 . S
C4087 C2578 1.693 . S
C4092 C2744 1.770 . S
C4103 C2662 1.663 . S
C4108 C2576 1.801 . S
C4119 C2660 1.768 . S
C4124 C2746 1.749 . S
C4135 C2830 1.757 . S
C4140 C2912 1.777 . S
C4151 C2996 1.762 . S
C4156 C2914 1.735 . S
C4167 C2828 1.835 . S
C4172 C2998 1.713 . S
C4183 C224 0.997 . S
C4188 C58 0.948 . S
C4199 C142 0.882 . S
C4204 C56 1.022 . S
C4215 C140 0.940 . S
C4220 C226 1.007 . S
C4231 C392 0.970 . S
C4236 C310 0.872 . S
C4247 C394 0.990 . S
C4252 C476 0.964 . S
C4263 C478 0.896 . S
C4268 C308 1.019 . S
C4279 C739 0.988 . S
C4284 C574 0.854 . S
C4295 C658 0.858 . S
C4300 C571 0.983 . S
C4311 C655 0.963 . S
C4316 C742 0.991 . S
C4327 C907 0.993 . S
C4332 C826 0.954 . S
C4343 C991 1.022 . S
C4348 C910 0.881 . S
C4359 C823 0.958 . S
C4364 C994 0.996 . S
C4375 C1066 0.847 . S
C4380 C1232 1.018 . S
C4391 C1150 0.963 . S
C4396 C1064 0.987 . S
C4407 C1234 0.907 . S
C4412 C1148 1.016 . S
C4423 C1400 1.017 . S
C4428 C1318 0.847 . S
C4439 C1402 0.977 . S
C4444 C1484 0.976 . S
C4455 C1486 0.934 . S
C4460 C1316 0.928 . S
C4471 C1747 1.006 . S
C4476 C1582 0.844 . S
C4487 C1579 0.935 . S
C4492 C1666 0.922 . S
C4503 C1750 0.896 . S
C4508 C1663 0.951 . S
C4519 C1915 1.018 . S
C4524 C1834 0.898 . S
C4535 C1918 0.850 . S
C4540 C1999 0.993 . S
C4551 C2002 0.906 . S
C4556 C1831 0.944 . S
C4567 C2074 0.877 . S
C4572 C2240 1.023 . S
C4583 C2072 0.933 . S
C4588 C2158 0.925 . S
C4599 C2156 0.985 . S
C4604 C2242 0.966 . S
C4615 C2408 0.937 . S
C4620 C2326 1.009 . S
C4631 C2410 0.952 . S
C4636 C2492 0.919 . S
C4647 C2494 0.960 . S
C4652 C2324 0.916 . S
C4663 C2755 0.913 . S
C4668 C2590 0.970 . S
C4679 C2587 1.023 . S
C4684 C2674 0.878 . S
C4695 C2758 0.928 . S
C4700 C2671 0.931 . S
C4711 C2923 0.958 . S
C4716 C2842 0.996 . S
C4727 C2926 0.918 . S
C4732 C3007 1.012 . S
C4743 C3010 0.901 . S
C4748 C2839 0.947 . S
