# Generated by pormake.
# Topology yfu, (5)-cn, num edge types: 1
# Building blocks:
#     Node 0, Type 0, BuildingBlock: XOMCOT_clean_sbu_0, # of connection points: 5
#     Node 1, Type 0, BuildingBlock: XOMCOT_clean_sbu_0, # of connection points: 5
#     Node 2, Type 0, BuildingBlock: XOMCOT_clean_sbu_0, # of connection points: 5
#     Node 3, Type 0, BuildingBlock: XOMCOT_clean_sbu_0, # of connection points: 5
#     Node 4, Type 0, BuildingBlock: XOMCOT_clean_sbu_0, # of connection points: 5
#     Node 5, Type 0, BuildingBlock: XOMCOT_clean_sbu_0, # of connection points: 5
#     Node 6, Type 0, BuildingBlock: XOMCOT_clean_sbu_0, # of connection points: 5
#     Node 7, Type 0, BuildingBlock: XOMCOT_clean_sbu_0, # of connection points: 5
#     Node 8, Type 0, BuildingBlock: XOMCOT_clean_sbu_0, # of connection points: 5
#     Node 9, Type 0, BuildingBlock: XOMCOT_clean_sbu_0, # of connection points: 5
#     Node 10, Type 0, BuildingBlock: XOMCOT_clean_sbu_0, # of connection points: 5
#     Node 11, Type 0, BuildingBlock: XOMCOT_clean_sbu_0, # of connection points: 5
#     Node 12, Type 0, BuildingBlock: XOMCOT_clean_sbu_0, # of connection points: 5
#     Node 13, Type 0, BuildingBlock: XOMCOT_clean_sbu_0, # of connection points: 5
#     Node 14, Type 0, BuildingBlock: XOMCOT_clean_sbu_0, # of connection points: 5
#     Node 15, Type 0, BuildingBlock: XOMCOT_clean_sbu_0, # of connection points: 5
#     Node 16, Type 0, BuildingBlock: XOMCOT_clean_sbu_0, # of connection points: 5
#     Node 17, Type 0, BuildingBlock: XOMCOT_clean_sbu_0, # of connection points: 5
#     Node 18, Type 0, BuildingBlock: XOMCOT_clean_sbu_0, # of connection points: 5
#     Node 19, Type 0, BuildingBlock: XOMCOT_clean_sbu_0, # of connection points: 5
#     Node 20, Type 0, BuildingBlock: XOMCOT_clean_sbu_0, # of connection points: 5
#     Node 21, Type 0, BuildingBlock: XOMCOT_clean_sbu_0, # of connection points: 5
#     Node 22, Type 0, BuildingBlock: XOMCOT_clean_sbu_0, # of connection points: 5
#     Node 23, Type 0, BuildingBlock: XOMCOT_clean_sbu_0, # of connection points: 5
#     Node 24, Type 0, BuildingBlock: XOMCOT_clean_sbu_0, # of connection points: 5
#     Node 25, Type 0, BuildingBlock: XOMCOT_clean_sbu_0, # of connection points: 5
#     Node 26, Type 0, BuildingBlock: XOMCOT_clean_sbu_0, # of connection points: 5
#     Node 27, Type 0, BuildingBlock: XOMCOT_clean_sbu_0, # of connection points: 5
#     Node 28, Type 0, BuildingBlock: XOMCOT_clean_sbu_0, # of connection points: 5
#     Node 29, Type 0, BuildingBlock: XOMCOT_clean_sbu_0, # of connection points: 5
#     Node 30, Type 0, BuildingBlock: XOMCOT_clean_sbu_0, # of connection points: 5
#     Node 31, Type 0, BuildingBlock: XOMCOT_clean_sbu_0, # of connection points: 5
#     Edge 32, Type (0, 0), None
#     Edge 33, Type (0, 0), None
#     Edge 34, Type (0, 0), None
#     Edge 35, Type (0, 0), None
#     Edge 36, Type (0, 0), None
#     Edge 37, Type (0, 0), None
#     Edge 38, Type (0, 0), None
#     Edge 39, Type (0, 0), None
#     Edge 40, Type (0, 0), None
#     Edge 41, Type (0, 0), None
#     Edge 42, Type (0, 0), None
#     Edge 43, Type (0, 0), None
#     Edge 44, Type (0, 0), None
#     Edge 45, Type (0, 0), None
#     Edge 46, Type (0, 0), None
#     Edge 47, Type (0, 0), None
#     Edge 48, Type (0, 0), None
#     Edge 49, Type (0, 0), None
#     Edge 50, Type (0, 0), None
#     Edge 51, Type (0, 0), None
#     Edge 52, Type (0, 0), None
#     Edge 53, Type (0, 0), None
#     Edge 54, Type (0, 0), None
#     Edge 55, Type (0, 0), None
#     Edge 56, Type (0, 0), None
#     Edge 57, Type (0, 0), None
#     Edge 58, Type (0, 0), None
#     Edge 59, Type (0, 0), None
#     Edge 60, Type (0, 0), None
#     Edge 61, Type (0, 0), None
#     Edge 62, Type (0, 0), None
#     Edge 63, Type (0, 0), None
#     Edge 64, Type (0, 0), None
#     Edge 65, Type (0, 0), None
#     Edge 66, Type (0, 0), None
#     Edge 67, Type (0, 0), None
#     Edge 68, Type (0, 0), None
#     Edge 69, Type (0, 0), None
#     Edge 70, Type (0, 0), None
#     Edge 71, Type (0, 0), None
#     Edge 72, Type (0, 0), None
#     Edge 73, Type (0, 0), None
#     Edge 74, Type (0, 0), None
#     Edge 75, Type (0, 0), None
#     Edge 76, Type (0, 0), None
#     Edge 77, Type (0, 0), None
#     Edge 78, Type (0, 0), None
#     Edge 79, Type (0, 0), None
#     Edge 80, Type (0, 0), None
#     Edge 81, Type (0, 0), None
#     Edge 82, Type (0, 0), None
#     Edge 83, Type (0, 0), None
#     Edge 84, Type (0, 0), None
#     Edge 85, Type (0, 0), None
#     Edge 86, Type (0, 0), None
#     Edge 87, Type (0, 0), None
#     Edge 88, Type (0, 0), None
#     Edge 89, Type (0, 0), None
#     Edge 90, Type (0, 0), None
#     Edge 91, Type (0, 0), None
#     Edge 92, Type (0, 0), None
#     Edge 93, Type (0, 0), None
#     Edge 94, Type (0, 0), None
#     Edge 95, Type (0, 0), None
#     Edge 96, Type (0, 0), None
#     Edge 97, Type (0, 0), None
#     Edge 98, Type (0, 0), None
#     Edge 99, Type (0, 0), None
#     Edge 100, Type (0, 0), None
#     Edge 101, Type (0, 0), None
#     Edge 102, Type (0, 0), None
#     Edge 103, Type (0, 0), None
#     Edge 104, Type (0, 0), None
#     Edge 105, Type (0, 0), None
#     Edge 106, Type (0, 0), None
#     Edge 107, Type (0, 0), None
#     Edge 108, Type (0, 0), None
#     Edge 109, Type (0, 0), None
#     Edge 110, Type (0, 0), None
#     Edge 111, Type (0, 0), None
# Relax obj value: 0.358
# Max RMSD: 0.265
# Mean RMSD: 0.265
data_MOF--net-yfu--node1-XOMCOT_clean_sbu_0--edge1-none
_symmetry_space_group_name_H-M    P1
_symmetry_Int_Tables_number       1
_symmetry_cell_setting            triclinic
loop_
_symmetry_equiv_pos_as_xyz
'x, y, z'
_cell_length_a     23.241921
_cell_length_b     23.244787
_cell_length_c     49.710262
_cell_angle_alpha  90.000001
_cell_angle_beta   90.0
_cell_angle_gamma 89.999992
loop_
_atom_site_label
_atom_site_type_symbol
_atom_site_fract_x
_atom_site_fract_y
_atom_site_fract_z
_atom_type_partial_charge
Co0 Co 0.0994 0.11428 0.3671 0.0
C1 C 0.15246 1.00285 0.37848 0.0
C2 C 0.13724 0.04865 0.41524 0.0
C3 C 0.17077 1.00099 0.42077 0.0
N4 N 0.1256 0.04975 0.38862 0.0
N5 N 0.18041 0.97288 0.39745 0.0
H6 H 0.15589 0.99262 0.35744 0.0
H7 H 0.12585 0.08214 0.42936 0.0
C8 C 0.98642 0.07338 0.39287 0.0
O9 O 0.01338 0.04099 0.41038 0.0
N10 N 0.07757 0.17606 0.34376 0.0
C11 C 0.11291 0.20893 0.3286 0.0
C12 C 0.08003 0.24469 0.31298 0.0
C13 C 0.02426 0.19014 0.33611 0.0
N14 N 0.02446 0.23225 0.31767 0.0
C15 C 0.15191 0.07416 0.31839 0.0
C16 C 0.0603 0.00839 0.30071 0.0
C17 C 0.10794 0.01553 0.28375 0.0
C18 C 0.15474 0.04782 0.2931 0.0
C19 C 0.05954 0.03457 0.32601 0.0
N20 N 0.10445 0.06807 0.33439 0.0
H21 H 0.18751 0.1005 0.32492 0.0
H22 H 0.02224 0.02813 0.33849 0.0
H23 H 0.15936 0.20843 0.32925 0.0
H24 H 0.98548 0.17471 0.34566 0.0
O25 O 0.17648 0.14916 0.3694 0.0
O26 O 0.10529 0.16734 0.39724 0.0
O27 O 0.01403 0.09599 0.37314 0.0
C28 C 0.15675 0.18015 0.38929 0.0
H29 H 0.19034 0.9909 0.43994 0.0
H30 H 0.09531 0.28066 0.30114 0.0
H31 H 0.02372 0.98284 0.29441 0.0
H32 H 0.19238 0.05431 0.28062 0.0
Co33 Co 0.14157 0.84944 0.61712 0.0
C34 C 0.25301 0.90251 0.6285 0.0
C35 C 0.20721 0.8873 0.66525 0.0
C36 C 0.25486 0.92084 0.67078 0.0
N37 N 0.20611 0.87564 0.63864 0.0
N38 N 0.28298 0.93047 0.64746 0.0
H39 H 0.26325 0.90593 0.60745 0.0
H40 H 0.17371 0.87593 0.67938 0.0
C41 C 0.18244 0.73649 0.6429 0.0
O42 O 0.21478 0.76346 0.66043 0.0
N43 N 0.07978 0.82762 0.59378 0.0
C44 C 0.04691 0.86295 0.57862 0.0
C45 C 0.01116 0.83007 0.56299 0.0
C46 C 0.06572 0.77431 0.58613 0.0
N47 N 0.0236 0.77451 0.56768 0.0
C48 C 0.1817 0.90196 0.56841 0.0
C49 C 0.24742 0.81035 0.5507 0.0
C50 C 0.24028 0.85799 0.53375 0.0
C51 C 0.20801 0.90479 0.54312 0.0
C52 C 0.22126 0.80959 0.57602 0.0
N53 N 0.18778 0.8545 0.58441 0.0
H54 H 0.15536 0.93756 0.57495 0.0
H55 H 0.2277 0.77229 0.58849 0.0
H56 H 0.04741 0.9094 0.57927 0.0
H57 H 0.08115 0.73553 0.59567 0.0
O58 O 0.10669 0.92652 0.61942 0.0
O59 O 0.0885 0.85533 0.64726 0.0
O60 O 0.15987 0.76409 0.62316 0.0
C61 C 0.07569 0.90678 0.6393 0.0
H62 H 0.26494 0.94043 0.68995 0.0
H63 H 0.97519 0.84535 0.55115 0.0
H64 H 0.27296 0.77376 0.5444 0.0
H65 H 0.20152 0.94243 0.53064 0.0
Co66 Co 0.40637 0.89154 0.8671 0.0
C67 C 0.35331 0.00296 0.87848 0.0
C68 C 0.36853 0.95717 0.91524 0.0
C69 C 0.335 0.00483 0.92077 0.0
N70 N 0.38017 0.95607 0.88862 0.0
N71 N 0.32536 0.03294 0.89745 0.0
H72 H 0.34988 0.01319 0.85744 0.0
H73 H 0.37991 0.92368 0.92936 0.0
C74 C 0.51935 0.93243 0.89287 0.0
O75 O 0.49239 0.96482 0.91038 0.0
N76 N 0.4282 0.82976 0.84376 0.0
C77 C 0.39286 0.79688 0.8286 0.0
C78 C 0.42574 0.76113 0.81298 0.0
C79 C 0.48151 0.81568 0.83611 0.0
N80 N 0.48131 0.77356 0.81767 0.0
C81 C 0.35386 0.93166 0.81839 0.0
C82 C 0.44547 0.99742 0.80071 0.0
C83 C 0.39783 0.99029 0.78375 0.0
C84 C 0.35103 0.958 0.7931 0.0
C85 C 0.44623 0.97124 0.82601 0.0
N86 N 0.40132 0.93774 0.83439 0.0
H87 H 0.31826 0.90532 0.82492 0.0
H88 H 0.48353 0.97769 0.83849 0.0
H89 H 0.3464 0.79739 0.82925 0.0
H90 H 0.52029 0.8311 0.84566 0.0
O91 O 0.32928 0.85666 0.8694 0.0
O92 O 0.40048 0.83847 0.89724 0.0
O93 O 0.49173 0.90982 0.87314 0.0
C94 C 0.34902 0.82566 0.88929 0.0
H95 H 0.31542 0.01492 0.93994 0.0
H96 H 0.41046 0.72516 0.80114 0.0
H97 H 0.48205 0.02298 0.79441 0.0
H98 H 0.31339 0.95151 0.78062 0.0
Co99 Co 0.3642 0.15638 0.11712 0.0
C100 C 0.25276 0.10331 0.1285 0.0
C101 C 0.29856 0.11852 0.16525 0.0
C102 C 0.25091 0.08497 0.17078 0.0
N103 N 0.29966 0.13017 0.13864 0.0
N104 N 0.22279 0.07534 0.14746 0.0
H105 H 0.24252 0.09989 0.10745 0.0
H106 H 0.33206 0.12989 0.17938 0.0
C107 C 0.32333 0.26933 0.1429 0.0
O108 O 0.29099 0.24236 0.16043 0.0
N109 N 0.42599 0.1782 0.09378 0.0
C110 C 0.45886 0.14287 0.07862 0.0
C111 C 0.49461 0.17574 0.06299 0.0
C112 C 0.44005 0.23151 0.08613 0.0
N113 N 0.48217 0.23131 0.06768 0.0
C114 C 0.32407 0.10386 0.06841 0.0
C115 C 0.25835 0.19547 0.0507 0.0
C116 C 0.26549 0.14783 0.03375 0.0
C117 C 0.29775 0.10103 0.04312 0.0
C118 C 0.28451 0.19623 0.07602 0.0
N119 N 0.31799 0.15131 0.08441 0.0
H120 H 0.35041 0.06825 0.07495 0.0
H121 H 0.27807 0.23353 0.08849 0.0
H122 H 0.45836 0.09642 0.07927 0.0
H123 H 0.42462 0.27029 0.09567 0.0
O124 O 0.39908 0.0793 0.11942 0.0
O125 O 0.41727 0.15049 0.14726 0.0
O126 O 0.3459 0.24173 0.12316 0.0
C127 C 0.43008 0.09904 0.1393 0.0
H128 H 0.24083 0.06539 0.18995 0.0
H129 H 0.53058 0.16047 0.05115 0.0
H130 H 0.23281 0.23205 0.0444 0.0
H131 H 0.30425 0.06339 0.03064 0.0
Co132 Co 0.09943 0.89152 0.17292 0.0
C133 C 0.15254 0.00293 0.16157 0.0
C134 C 0.1373 0.95719 0.1248 0.0
C135 C 0.17085 0.00484 0.11928 0.0
N136 N 0.12566 0.95606 0.15142 0.0
N137 N 0.18055 0.03287 0.14261 0.0
H138 H 0.15593 0.01317 0.18261 0.0
H139 H 0.12587 0.92373 0.11066 0.0
C140 C 0.98647 0.93245 0.14715 0.0
O141 O 0.01344 0.96484 0.12964 0.0
N142 N 0.07759 0.82973 0.19626 0.0
C143 C 0.11291 0.79684 0.21141 0.0
C144 C 0.08002 0.7611 0.22704 0.0
C145 C 0.02427 0.81569 0.20392 0.0
N146 N 0.02446 0.77357 0.22236 0.0
C147 C 0.15192 0.9316 0.22165 0.0
C148 C 0.06032 0.99739 0.23932 0.0
C149 C 0.10794 0.99023 0.25629 0.0
C150 C 0.15474 0.95793 0.24694 0.0
C151 C 0.05958 0.97122 0.21401 0.0
N152 N 0.10448 0.9377 0.20564 0.0
H153 H 0.18752 0.90524 0.21512 0.0
H154 H 0.02229 0.97769 0.20153 0.0
H155 H 0.15937 0.79731 0.21076 0.0
H156 H 0.98549 0.83115 0.19438 0.0
O157 O 0.17651 0.85662 0.17063 0.0
O158 O 0.10532 0.83847 0.14278 0.0
O159 O 0.01408 0.90983 0.16688 0.0
C160 C 0.15677 0.82564 0.15074 0.0
H161 H 0.19037 0.015 0.1001 0.0
H162 H 0.09529 0.72512 0.23888 0.0
H163 H 0.02375 0.02296 0.24562 0.0
H164 H 0.19237 0.95141 0.25943 0.0
Co165 Co 0.36423 0.84949 0.42291 0.0
C166 C 0.25282 0.90262 0.41156 0.0
C167 C 0.29855 0.88736 0.37479 0.0
C168 C 0.2509 0.92092 0.36927 0.0
N169 N 0.29968 0.87573 0.4014 0.0
N170 N 0.22288 0.93063 0.3926 0.0
H171 H 0.24258 0.90602 0.4326 0.0
H172 H 0.332 0.87592 0.36065 0.0
C173 C 0.32331 0.73655 0.39713 0.0
O174 O 0.29096 0.76352 0.37961 0.0
N175 N 0.42603 0.82765 0.44624 0.0
C176 C 0.45893 0.86297 0.46139 0.0
C177 C 0.49466 0.83008 0.47703 0.0
C178 C 0.44005 0.77434 0.45391 0.0
N179 N 0.48218 0.77452 0.47235 0.0
C180 C 0.32417 0.90197 0.47164 0.0
C181 C 0.25838 0.81039 0.48932 0.0
C182 C 0.26556 0.85799 0.50629 0.0
C183 C 0.29786 0.90479 0.49694 0.0
C184 C 0.28453 0.80965 0.46401 0.0
N185 N 0.31804 0.85454 0.45563 0.0
H186 H 0.35052 0.93757 0.46511 0.0
H187 H 0.27805 0.77237 0.45152 0.0
H188 H 0.45847 0.90942 0.46073 0.0
H189 H 0.42459 0.73556 0.44437 0.0
O190 O 0.39913 0.92656 0.42062 0.0
O191 O 0.41728 0.85538 0.39277 0.0
O192 O 0.34591 0.76415 0.41687 0.0
C193 C 0.43011 0.90682 0.40072 0.0
H194 H 0.24075 0.94042 0.35009 0.0
H195 H 0.53065 0.84534 0.48886 0.0
H196 H 0.23281 0.77382 0.49562 0.0
H197 H 0.30438 0.94241 0.50943 0.0
Co198 Co 0.40634 0.1143 0.67292 0.0
C199 C 0.35322 1.00289 0.66157 0.0
C200 C 0.36847 0.04863 0.6248 0.0
C201 C 0.33492 1.00097 0.61928 0.0
N202 N 0.3801 0.04976 0.65142 0.0
N203 N 0.32522 0.97295 0.64261 0.0
H204 H 0.34984 0.99264 0.68261 0.0
H205 H 0.3799 0.08208 0.61066 0.0
C206 C 0.5193 0.07336 0.64715 0.0
O207 O 0.49233 0.04098 0.62964 0.0
N208 N 0.42818 0.17609 0.69626 0.0
C209 C 0.39286 0.20898 0.71141 0.0
C210 C 0.42574 0.24471 0.72704 0.0
C211 C 0.4815 0.19012 0.70392 0.0
N212 N 0.48131 0.23224 0.72236 0.0
C213 C 0.35385 0.07422 0.72165 0.0
C214 C 0.44545 0.00843 0.73932 0.0
C215 C 0.39783 0.01559 0.75629 0.0
C216 C 0.35103 0.04789 0.74694 0.0
C217 C 0.44619 0.0346 0.71401 0.0
N218 N 0.40129 0.06811 0.70564 0.0
H219 H 0.31825 0.10057 0.71512 0.0
H220 H 0.48348 0.02813 0.70153 0.0
H221 H 0.3464 0.2085 0.71076 0.0
H222 H 0.52028 0.17467 0.69438 0.0
O223 O 0.32926 0.14919 0.67063 0.0
O224 O 0.40045 0.16735 0.64278 0.0
O225 O 0.49169 0.09599 0.66688 0.0
C226 C 0.34899 0.18018 0.65074 0.0
H227 H 0.3154 0.99082 0.6001 0.0
H228 H 0.41048 0.28069 0.73888 0.0
H229 H 0.48202 0.98286 0.74562 0.0
H230 H 0.3134 0.0544 0.75943 0.0
Co231 Co 0.14154 0.15633 0.92291 0.0
C232 C 0.25295 0.10319 0.91156 0.0
C233 C 0.20722 0.11846 0.87479 0.0
C234 C 0.25487 0.0849 0.86927 0.0
N235 N 0.20608 0.13009 0.9014 0.0
N236 N 0.28289 0.07519 0.8926 0.0
H237 H 0.26319 0.0998 0.9326 0.0
H238 H 0.17376 0.1299 0.86065 0.0
C239 C 0.18245 0.26927 0.89713 0.0
O240 O 0.21481 0.24229 0.87961 0.0
N241 N 0.07974 0.17817 0.94624 0.0
C242 C 0.04684 0.14285 0.96139 0.0
C243 C 0.01111 0.17573 0.97703 0.0
C244 C 0.06571 0.23148 0.95391 0.0
N245 N 0.02359 0.23129 0.97235 0.0
C246 C 0.1816 0.10384 0.97164 0.0
C247 C 0.24739 0.19543 0.98932 0.0
C248 C 0.24021 0.14782 1.00629 0.0
C249 C 0.20791 0.10103 0.99694 0.0
C250 C 0.22124 0.19617 0.96401 0.0
N251 N 0.18772 0.15127 0.95563 0.0
H252 H 0.15525 0.06825 0.96511 0.0
H253 H 0.22772 0.23345 0.95152 0.0
H254 H 0.0473 0.0964 0.96073 0.0
H255 H 0.08118 0.27026 0.94437 0.0
O256 O 0.10664 0.07926 0.92062 0.0
O257 O 0.08849 0.15044 0.89277 0.0
O258 O 0.15986 0.24167 0.91687 0.0
C259 C 0.07565 0.09899 0.90072 0.0
H260 H 0.26502 0.06539 0.85009 0.0
H261 H 0.97512 0.16048 0.98886 0.0
H262 H 0.27296 0.232 0.99562 0.0
H263 H 0.20139 0.06341 1.00943 0.0
Co264 Co 0.90638 0.89154 0.67292 0.0
C265 C 0.85332 0.00297 0.66154 0.0
C266 C 0.86852 0.95717 0.62479 0.0
C267 C 0.83498 0.00483 0.61926 0.0
N268 N 0.88017 0.95607 0.6514 0.0
N269 N 0.82536 0.03294 0.64258 0.0
H270 H 0.8499 0.01321 0.68259 0.0
H271 H 0.87989 0.92367 0.61066 0.0
C272 C 0.01934 0.93245 0.64715 0.0
O273 O 0.99238 0.96477 0.62961 0.0
N274 N 0.9282 0.82976 0.69626 0.0
C275 C 0.89286 0.79689 0.71142 0.0
C276 C 0.92574 0.76113 0.72705 0.0
C277 C 0.98151 0.81568 0.70391 0.0
N278 N 0.98131 0.77356 0.72235 0.0
C279 C 0.85386 0.93167 0.72163 0.0
C280 C 0.94547 0.99742 0.73932 0.0
C281 C 0.89783 0.99029 0.75628 0.0
C282 C 0.85103 0.95801 0.74692 0.0
C283 C 0.94623 0.97124 0.71401 0.0
N284 N 0.90132 0.93775 0.70564 0.0
H285 H 0.81825 0.90533 0.7151 0.0
H286 H 0.98353 0.97768 0.70154 0.0
H287 H 0.84641 0.7974 0.71078 0.0
H288 H 0.02029 0.8311 0.69436 0.0
O289 O 0.82929 0.85666 0.67063 0.0
O290 O 0.90049 0.83848 0.64279 0.0
O291 O 0.99174 0.90983 0.66688 0.0
C292 C 0.84902 0.82567 0.65074 0.0
H293 H 0.8154 0.01491 0.60009 0.0
H294 H 0.91046 0.72517 0.73889 0.0
H295 H 0.98206 0.02297 0.74562 0.0
H296 H 0.81339 0.95152 0.75941 0.0
Co297 Co 0.86419 0.15638 0.42291 0.0
C298 C 0.75275 0.10332 0.41152 0.0
C299 C 0.79858 0.1185 0.37477 0.0
C300 C 0.75092 0.08495 0.36924 0.0
N301 N 0.79966 0.13017 0.40138 0.0
N302 N 0.72279 0.07535 0.39256 0.0
H303 H 0.7425 0.09992 0.43257 0.0
H304 H 0.83209 0.12986 0.36065 0.0
C305 C 0.82333 0.26932 0.39712 0.0
O306 O 0.791 0.24235 0.37959 0.0
N307 N 0.92598 0.1782 0.44625 0.0
C308 C 0.95884 0.14287 0.46141 0.0
C309 C 0.99459 0.17575 0.47704 0.0
C310 C 0.94005 0.23151 0.4539 0.0
N311 N 0.98216 0.23131 0.47234 0.0
C312 C 0.82406 0.10384 0.47161 0.0
C313 C 0.75835 0.19546 0.48932 0.0
C314 C 0.76548 0.14782 0.50627 0.0
C315 C 0.79774 0.10101 0.4969 0.0
C316 C 0.78451 0.19622 0.46401 0.0
N317 N 0.81799 0.15131 0.45562 0.0
H318 H 0.85039 0.06824 0.46507 0.0
H319 H 0.77807 0.23353 0.45154 0.0
H320 H 0.95833 0.09642 0.46077 0.0
H321 H 0.92464 0.27029 0.44435 0.0
O322 O 0.89908 0.0793 0.42061 0.0
O323 O 0.91727 0.15051 0.39277 0.0
O324 O 0.84589 0.24173 0.41687 0.0
C325 C 0.93009 0.09906 0.40073 0.0
H326 H 0.74086 0.06535 0.35008 0.0
H327 H 0.03056 0.16047 0.48889 0.0
H328 H 0.73281 0.23204 0.49563 0.0
H329 H 0.80424 0.06337 0.50938 0.0
Co330 Co 0.59939 0.11427 0.17292 0.0
C331 C 0.65245 1.00284 0.16154 0.0
C332 C 0.63725 0.04865 0.12479 0.0
C333 C 0.67078 1.00099 0.11926 0.0
N334 N 0.6256 0.04974 0.1514 0.0
N335 N 0.68041 0.97287 0.14258 0.0
H336 H 0.65587 0.99261 0.18259 0.0
H337 H 0.62588 0.08215 0.11066 0.0
C338 C 0.48643 0.07337 0.14715 0.0
O339 O 0.51339 0.04104 0.12961 0.0
N340 N 0.57757 0.17606 0.19626 0.0
C341 C 0.6129 0.20892 0.21142 0.0
C342 C 0.58003 0.24468 0.22705 0.0
C343 C 0.52426 0.19014 0.20391 0.0
N344 N 0.52446 0.23225 0.22235 0.0
C345 C 0.65191 0.07415 0.22163 0.0
C346 C 0.5603 0.0084 0.23932 0.0
C347 C 0.60794 0.01553 0.25628 0.0
C348 C 0.65474 0.04781 0.24692 0.0
C349 C 0.55954 0.03458 0.21401 0.0
N350 N 0.60445 0.06807 0.20564 0.0
H351 H 0.68752 0.10049 0.2151 0.0
H352 H 0.52224 0.02814 0.20154 0.0
H353 H 0.65936 0.20841 0.21078 0.0
H354 H 0.48547 0.17472 0.19436 0.0
O355 O 0.67648 0.14915 0.17063 0.0
O356 O 0.60528 0.16734 0.14279 0.0
O357 O 0.51403 0.09598 0.16688 0.0
C358 C 0.65674 0.18015 0.15074 0.0
H359 H 0.69037 0.99091 0.10009 0.0
H360 H 0.59531 0.28065 0.23889 0.0
H361 H 0.52371 0.98285 0.24562 0.0
H362 H 0.69238 0.0543 0.25941 0.0
Co363 Co 0.64158 0.84944 0.92291 0.0
C364 C 0.75302 0.90249 0.91152 0.0
C365 C 0.70719 0.88732 0.87477 0.0
C366 C 0.75485 0.92086 0.86924 0.0
N367 N 0.70611 0.87565 0.90138 0.0
N368 N 0.78298 0.93047 0.89256 0.0
H369 H 0.76327 0.9059 0.93257 0.0
H370 H 0.67368 0.87596 0.86065 0.0
C371 C 0.68244 0.7365 0.89712 0.0
O372 O 0.71477 0.76347 0.87959 0.0
N373 N 0.57979 0.82761 0.94625 0.0
C374 C 0.54693 0.86294 0.96141 0.0
C375 C 0.51117 0.83007 0.97704 0.0
C376 C 0.56571 0.77431 0.9539 0.0
N377 N 0.52361 0.77451 0.97234 0.0
C378 C 0.68171 0.90197 0.97161 0.0
C379 C 0.74742 0.81036 0.98932 0.0
C380 C 0.74028 0.858 1.00627 0.0
C381 C 0.70802 0.90481 0.9969 0.0
C382 C 0.72126 0.8096 0.96401 0.0
N383 N 0.68778 0.85451 0.95562 0.0
H384 H 0.65538 0.93758 0.96507 0.0
H385 H 0.7277 0.77229 0.95154 0.0
H386 H 0.54743 0.90939 0.96077 0.0
H387 H 0.58113 0.73553 0.94435 0.0
O388 O 0.60669 0.92652 0.92061 0.0
O389 O 0.5885 0.85531 0.89277 0.0
O390 O 0.65988 0.76409 0.91687 0.0
C391 C 0.57568 0.90675 0.90073 0.0
H392 H 0.76491 0.94047 0.85008 0.0
H393 H 0.47521 0.84534 0.98889 0.0
H394 H 0.77295 0.77377 0.99563 0.0
H395 H 0.70153 0.94245 1.00938 0.0
Co396 Co 0.90634 0.11429 0.8671 0.0
C397 C 0.85323 1.00288 0.87846 0.0
C398 C 0.86845 0.04863 0.91523 0.0
C399 C 0.8349 1.00097 0.92075 0.0
N400 N 0.8801 0.04976 0.88861 0.0
N401 N 0.82522 0.97294 0.89741 0.0
H402 H 0.84986 0.99263 0.85741 0.0
H403 H 0.87987 0.08209 0.92936 0.0
C404 C 0.01929 0.07335 0.89288 0.0
O405 O 0.99232 0.04103 0.91041 0.0
N406 N 0.92818 0.17608 0.84377 0.0
C407 C 0.89286 0.20897 0.82862 0.0
C408 C 0.92575 0.24471 0.81299 0.0
C409 C 0.9815 0.19013 0.83612 0.0
N410 N 0.98131 0.23224 0.81767 0.0
C411 C 0.85385 0.07421 0.81838 0.0
C412 C 0.94545 0.00843 0.8007 0.0
C413 C 0.89783 0.01558 0.78374 0.0
C414 C 0.85103 0.04788 0.79309 0.0
C415 C 0.94619 0.0346 0.82601 0.0
N416 N 0.90129 0.06811 0.83438 0.0
H417 H 0.81825 0.10056 0.82491 0.0
H418 H 0.98348 0.02813 0.8385 0.0
H419 H 0.8464 0.20849 0.82927 0.0
H420 H 0.02028 0.17468 0.84566 0.0
O421 O 0.82926 0.14919 0.8694 0.0
O422 O 0.90045 0.16734 0.89725 0.0
O423 O 0.99169 0.09598 0.87315 0.0
C424 C 0.849 0.18018 0.88929 0.0
H425 H 0.81538 0.99082 0.93992 0.0
H426 H 0.91048 0.28068 0.80115 0.0
H427 H 0.98202 0.98286 0.79441 0.0
H428 H 0.8134 0.05439 0.7806 0.0
Co429 Co 0.64154 0.15633 0.61712 0.0
C430 C 0.75296 0.10321 0.62847 0.0
C431 C 0.7072 0.11844 0.66524 0.0
C432 C 0.75486 0.08488 0.67076 0.0
N433 N 0.70608 0.13009 0.63863 0.0
N434 N 0.78289 0.07519 0.64743 0.0
H435 H 0.76321 0.09983 0.60743 0.0
H436 H 0.67374 0.12986 0.67938 0.0
C437 C 0.68246 0.26926 0.6429 0.0
O438 O 0.7148 0.24228 0.66043 0.0
N439 N 0.57975 0.17817 0.59378 0.0
C440 C 0.54686 0.14285 0.57863 0.0
C441 C 0.51113 0.17574 0.56299 0.0
C442 C 0.56571 0.23148 0.58612 0.0
N443 N 0.5236 0.2313 0.56768 0.0
C444 C 0.68162 0.10383 0.56839 0.0
C445 C 0.74739 0.19542 0.5507 0.0
C446 C 0.74022 0.14781 0.53374 0.0
C447 C 0.70793 0.10101 0.5431 0.0
C448 C 0.72124 0.19617 0.57602 0.0
N449 N 0.68773 0.15127 0.5844 0.0
H450 H 0.65527 0.06824 0.57492 0.0
H451 H 0.72772 0.23345 0.5885 0.0
H452 H 0.54734 0.0964 0.57928 0.0
H453 H 0.58117 0.27026 0.59566 0.0
O454 O 0.60664 0.07926 0.61941 0.0
O455 O 0.58849 0.15046 0.64726 0.0
O456 O 0.65987 0.24167 0.62316 0.0
C457 C 0.57565 0.09902 0.63929 0.0
H458 H 0.765 0.06535 0.68994 0.0
H459 H 0.47515 0.16048 0.55115 0.0
H460 H 0.77296 0.23199 0.5444 0.0
H461 H 0.7014 0.06339 0.5306 0.0
Co462 Co 0.59943 0.89152 0.3671 0.0
C463 C 0.65254 0.00293 0.37846 0.0
C464 C 0.63731 0.95719 0.41523 0.0
C465 C 0.67087 0.00484 0.42075 0.0
N466 N 0.62566 0.95606 0.38861 0.0
N467 N 0.68055 0.03287 0.39741 0.0
H468 H 0.65591 0.01319 0.35741 0.0
H469 H 0.6259 0.92373 0.42936 0.0
C470 C 0.48648 0.93247 0.39288 0.0
O471 O 0.51345 0.96479 0.41041 0.0
N472 N 0.57758 0.82973 0.34377 0.0
C473 C 0.61291 0.79685 0.32862 0.0
C474 C 0.58002 0.76111 0.31299 0.0
C475 C 0.52427 0.81569 0.33612 0.0
N476 N 0.52445 0.77358 0.31767 0.0
C477 C 0.65192 0.93161 0.31838 0.0
C478 C 0.56032 0.99739 0.3007 0.0
C479 C 0.60794 0.99023 0.28374 0.0
C480 C 0.65474 0.95793 0.29309 0.0
C481 C 0.55957 0.97122 0.32601 0.0
N482 N 0.60448 0.93771 0.33438 0.0
H483 H 0.68752 0.90525 0.32491 0.0
H484 H 0.52229 0.97769 0.3385 0.0
H485 H 0.65936 0.79733 0.32927 0.0
H486 H 0.48549 0.83114 0.34566 0.0
O487 O 0.67651 0.85662 0.3694 0.0
O488 O 0.60532 0.83847 0.39725 0.0
O489 O 0.51408 0.90984 0.37315 0.0
C490 C 0.65677 0.82564 0.38929 0.0
H491 H 0.69039 0.01499 0.43992 0.0
H492 H 0.59528 0.72513 0.30115 0.0
H493 H 0.52374 0.02296 0.29441 0.0
H494 H 0.69237 0.95142 0.2806 0.0
Co495 Co 0.86422 0.84949 0.11712 0.0
C496 C 0.75281 0.90261 0.12847 0.0
C497 C 0.79856 0.88738 0.16524 0.0
C498 C 0.75091 0.92094 0.17076 0.0
N499 N 0.79969 0.87573 0.13863 0.0
N500 N 0.72288 0.93062 0.14743 0.0
H501 H 0.74256 0.90598 0.10743 0.0
H502 H 0.83203 0.87595 0.17938 0.0
C503 C 0.82331 0.73655 0.1429 0.0
O504 O 0.79097 0.76353 0.16043 0.0
N505 N 0.92602 0.82764 0.09378 0.0
C506 C 0.95891 0.86296 0.07863 0.0
C507 C 0.99464 0.83008 0.06299 0.0
C508 C 0.94005 0.77433 0.08612 0.0
N509 N 0.98217 0.77452 0.06768 0.0
C510 C 0.82415 0.90199 0.06839 0.0
C511 C 0.75838 0.81039 0.0507 0.0
C512 C 0.76555 0.85801 0.03374 0.0
C513 C 0.79784 0.90481 0.0431 0.0
C514 C 0.78453 0.80965 0.07602 0.0
N515 N 0.81804 0.85455 0.0844 0.0
H516 H 0.8505 0.93758 0.07492 0.0
H517 H 0.77805 0.77237 0.0885 0.0
H518 H 0.95843 0.90941 0.07928 0.0
H519 H 0.9246 0.73556 0.09566 0.0
O520 O 0.89913 0.92656 0.11941 0.0
O521 O 0.91728 0.85536 0.14726 0.0
O522 O 0.8459 0.76414 0.12316 0.0
C523 C 0.93012 0.9068 0.13929 0.0
H524 H 0.74077 0.94046 0.18994 0.0
H525 H 0.03062 0.84534 0.05115 0.0
H526 H 0.73281 0.77382 0.0444 0.0
H527 H 0.80437 0.94243 0.0306 0.0
Co528 Co 0.59945 0.61424 0.86711 0.0
C529 C 0.65246 0.50278 0.87851 0.0
C530 C 0.63741 0.54869 0.91525 0.0
C531 C 0.67094 0.50103 0.92078 0.0
N532 N 0.62567 0.54973 0.88864 0.0
N533 N 0.68047 0.47285 0.89747 0.0
H534 H 0.65579 0.49248 0.85747 0.0
H535 H 0.62611 0.58223 0.92936 0.0
C536 C 0.48651 0.5734 0.89291 0.0
O537 O 0.51351 0.54112 0.91046 0.0
N538 N 0.57761 0.676 0.84377 0.0
C539 C 0.61294 0.70869 0.82851 0.0
C540 C 0.58007 0.74451 0.81291 0.0
C541 C 0.52428 0.69025 0.83622 0.0
N542 N 0.52452 0.73227 0.81774 0.0
C543 C 0.65203 0.57401 0.81843 0.0
C544 C 0.56034 0.50844 0.80069 0.0
C545 C 0.60802 0.5155 0.78375 0.0
C546 C 0.65487 0.54769 0.79314 0.0
C547 C 0.55957 0.53461 0.826 0.0
N548 N 0.60452 0.56802 0.8344 0.0
H549 H 0.68767 0.60027 0.82499 0.0
H550 H 0.52222 0.52823 0.83845 0.0
H551 H 0.6594 0.708 0.82907 0.0
H552 H 0.48552 0.675 0.84585 0.0
O553 O 0.67653 0.64915 0.8694 0.0
O554 O 0.60532 0.66733 0.89724 0.0
O555 O 0.51409 0.59593 0.87316 0.0
C556 C 0.65676 0.68016 0.88927 0.0
H557 H 0.6906 0.49099 0.93994 0.0
H558 H 0.59535 0.78034 0.80098 0.0
H559 H 0.52372 0.48295 0.79437 0.0
H560 H 0.69254 0.55413 0.78067 0.0
Co561 Co 0.64152 0.34943 0.11711 0.0
C562 C 0.75297 0.40247 0.12849 0.0
C563 C 0.70712 0.38735 0.16524 0.0
C564 C 0.75477 0.42089 0.17077 0.0
N565 N 0.70605 0.37565 0.13863 0.0
N566 N 0.78292 0.43047 0.14746 0.0
H567 H 0.76325 0.40585 0.10745 0.0
H568 H 0.67359 0.37601 0.17936 0.0
C569 C 0.68241 0.2365 0.1429 0.0
O570 O 0.7147 0.26347 0.16044 0.0
N571 N 0.57974 0.3276 0.09377 0.0
C572 C 0.54703 0.36293 0.07852 0.0
C573 C 0.5112 0.33006 0.06292 0.0
C574 C 0.5655 0.27428 0.08622 0.0
N575 N 0.52346 0.27452 0.06775 0.0
C576 C 0.68173 0.40198 0.06842 0.0
C577 C 0.74736 0.31031 0.05069 0.0
C578 C 0.74028 0.35798 0.03375 0.0
C579 C 0.70806 0.40481 0.04313 0.0
C580 C 0.72118 0.30955 0.076 0.0
N581 N 0.68774 0.35449 0.0844 0.0
H582 H 0.65545 0.43761 0.07496 0.0
H583 H 0.72758 0.27222 0.08846 0.0
H584 H 0.54771 0.40938 0.07909 0.0
H585 H 0.58076 0.23552 0.09584 0.0
O586 O 0.60662 0.4265 0.11939 0.0
O587 O 0.58843 0.35533 0.14724 0.0
O588 O 0.65983 0.26409 0.12315 0.0
C589 C 0.57562 0.40677 0.13928 0.0
H590 H 0.76482 0.44053 0.18993 0.0
H591 H 0.47535 0.34534 0.051 0.0
H592 H 0.77287 0.27371 0.04438 0.0
H593 H 0.70161 0.44247 0.03065 0.0
Co594 Co 0.90632 0.39158 0.36711 0.0
C595 C 0.85331 0.50303 0.37851 0.0
C596 C 0.86836 0.45713 0.41525 0.0
C597 C 0.83483 0.50479 0.42078 0.0
N598 N 0.8801 0.45609 0.38864 0.0
N599 N 0.8253 0.53297 0.39747 0.0
H600 H 0.84998 0.51334 0.35747 0.0
H601 H 0.87966 0.42359 0.42936 0.0
C602 C 0.01926 0.43242 0.39291 0.0
O603 O 0.99226 0.46469 0.41046 0.0
N604 N 0.92816 0.32982 0.34377 0.0
C605 C 0.89283 0.29712 0.32851 0.0
C606 C 0.9257 0.2613 0.31291 0.0
C607 C 0.98149 0.31557 0.33622 0.0
N608 N 0.98125 0.27355 0.31774 0.0
C609 C 0.85374 0.43181 0.31843 0.0
C610 C 0.94543 0.49738 0.30069 0.0
C611 C 0.89775 0.49032 0.28375 0.0
C612 C 0.8509 0.45813 0.29314 0.0
C613 C 0.9462 0.47121 0.326 0.0
N614 N 0.90125 0.4378 0.3344 0.0
H615 H 0.8181 0.40554 0.32499 0.0
H616 H 0.98355 0.47759 0.33845 0.0
H617 H 0.84637 0.29781 0.32907 0.0
H618 H 0.02025 0.33081 0.34585 0.0
O619 O 0.82924 0.35667 0.3694 0.0
O620 O 0.90045 0.33849 0.39724 0.0
O621 O 0.99168 0.40989 0.37316 0.0
C622 C 0.849 0.32566 0.38927 0.0
H623 H 0.81517 0.51483 0.43994 0.0
H624 H 0.91042 0.22547 0.30098 0.0
H625 H 0.98204 0.52287 0.29437 0.0
H626 H 0.81322 0.45169 0.28067 0.0
Co627 Co 0.86425 0.65638 0.61711 0.0
C628 C 0.7528 0.60335 0.62849 0.0
C629 C 0.79865 0.61847 0.66524 0.0
C630 C 0.751 0.58492 0.67077 0.0
N631 N 0.79972 0.63017 0.63863 0.0
N632 N 0.72285 0.57535 0.64746 0.0
H633 H 0.74252 0.59997 0.60745 0.0
H634 H 0.83218 0.6298 0.67936 0.0
C635 C 0.82336 0.76932 0.6429 0.0
O636 O 0.79107 0.74234 0.66044 0.0
N637 N 0.92602 0.67821 0.59377 0.0
C638 C 0.95874 0.64289 0.57852 0.0
C639 C 0.99457 0.67576 0.56292 0.0
C640 C 0.94027 0.73154 0.58622 0.0
N641 N 0.98231 0.7313 0.56775 0.0
C642 C 0.82404 0.60384 0.56842 0.0
C643 C 0.75841 0.69551 0.55069 0.0
C644 C 0.76548 0.64784 0.53375 0.0
C645 C 0.7977 0.60101 0.54313 0.0
C646 C 0.78459 0.69627 0.576 0.0
N647 N 0.81802 0.65133 0.5844 0.0
H648 H 0.85032 0.56821 0.57496 0.0
H649 H 0.77819 0.7336 0.58846 0.0
H650 H 0.95806 0.59644 0.57909 0.0
H651 H 0.92501 0.7703 0.59584 0.0
O652 O 0.89915 0.57931 0.61939 0.0
O653 O 0.91733 0.65049 0.64724 0.0
O654 O 0.84594 0.74173 0.62315 0.0
C655 C 0.93015 0.59904 0.63928 0.0
H656 H 0.74094 0.56529 0.68993 0.0
H657 H 0.03041 0.66048 0.551 0.0
H658 H 0.7329 0.73211 0.54438 0.0
H659 H 0.80416 0.56335 0.53065 0.0
Co660 Co 0.5995 0.39153 0.67292 0.0
C661 C 0.65256 0.50296 0.66155 0.0
C662 C 0.63745 0.45714 0.62479 0.0
C663 C 0.671 0.50479 0.61927 0.0
N664 N 0.62574 0.45605 0.6514 0.0
N665 N 0.68061 0.53287 0.6426 0.0
H666 H 0.65587 0.51326 0.68259 0.0
H667 H 0.62609 0.42364 0.61066 0.0
C668 C 0.48656 0.43242 0.64712 0.0
O669 O 0.51356 0.46471 0.62959 0.0
N670 N 0.57765 0.32975 0.69625 0.0
C671 C 0.61297 0.29703 0.7115 0.0
C672 C 0.58009 0.26123 0.72711 0.0
C673 C 0.52431 0.31555 0.70381 0.0
N674 N 0.52455 0.27351 0.72229 0.0
C675 C 0.65204 0.43169 0.72162 0.0
C676 C 0.56038 0.49734 0.73934 0.0
C677 C 0.60803 0.49023 0.75629 0.0
C678 C 0.65486 0.458 0.74691 0.0
C679 C 0.55962 0.47118 0.71402 0.0
N680 N 0.60456 0.43773 0.70563 0.0
H681 H 0.68767 0.4054 0.71507 0.0
H682 H 0.52231 0.4776 0.70156 0.0
H683 H 0.65943 0.29768 0.71092 0.0
H684 H 0.48555 0.33083 0.6942 0.0
O685 O 0.67657 0.35661 0.67063 0.0
O686 O 0.60537 0.33846 0.64278 0.0
O687 O 0.51414 0.40985 0.66687 0.0
C688 C 0.6568 0.32561 0.65075 0.0
H689 H 0.69058 0.51491 0.6001 0.0
H690 H 0.59536 0.22538 0.73903 0.0
H691 H 0.52378 0.52286 0.74564 0.0
H692 H 0.69252 0.45153 0.75939 0.0
Co693 Co 0.86428 0.34947 0.92292 0.0
C694 C 0.75285 0.40255 0.91156 0.0
C695 C 0.79864 0.3874 0.87479 0.0
C696 C 0.75099 0.42096 0.86928 0.0
N697 N 0.79974 0.3757 0.9014 0.0
N698 N 0.72293 0.43059 0.89261 0.0
H699 H 0.74256 0.40588 0.9326 0.0
H700 H 0.83213 0.37602 0.86066 0.0
C701 C 0.82335 0.23654 0.89713 0.0
O702 O 0.79107 0.26352 0.87958 0.0
N703 N 0.92607 0.32762 0.94625 0.0
C704 C 0.95881 0.36294 0.96149 0.0
C705 C 0.99462 0.33007 0.97709 0.0
C706 C 0.94027 0.27429 0.95381 0.0
N707 N 0.98232 0.27453 0.97228 0.0
C708 C 0.82413 0.40199 0.97162 0.0
C709 C 0.75846 0.31034 0.98933 0.0
C710 C 0.76557 0.35798 1.00629 0.0
C711 C 0.79781 0.4048 0.99692 0.0
C712 C 0.78463 0.30958 0.96402 0.0
N713 N 0.81808 0.35452 0.95563 0.0
H714 H 0.85042 0.43761 0.96508 0.0
H715 H 0.7782 0.27227 0.95155 0.0
H716 H 0.95816 0.40939 0.96091 0.0
H717 H 0.92498 0.23554 0.9442 0.0
O718 O 0.8992 0.42653 0.92063 0.0
O719 O 0.91735 0.35536 0.89278 0.0
O720 O 0.84596 0.26412 0.91687 0.0
C721 C 0.93019 0.4068 0.90074 0.0
H722 H 0.74086 0.44053 0.85011 0.0
H723 H 0.03048 0.34533 0.98901 0.0
H724 H 0.73293 0.27374 0.99564 0.0
H725 H 0.80428 0.44245 1.0094 0.0
Co726 Co 0.90627 0.61429 0.17292 0.0
C727 C 0.85321 0.50286 0.16155 0.0
C728 C 0.86832 0.54868 0.12479 0.0
C729 C 0.83477 0.50102 0.11927 0.0
N730 N 0.88003 0.54977 0.1514 0.0
N731 N 0.82516 0.47295 0.1426 0.0
H732 H 0.84989 0.49256 0.18259 0.0
H733 H 0.87968 0.58217 0.11066 0.0
C734 C 0.01921 0.5734 0.14712 0.0
O735 O 0.99221 0.54111 0.12959 0.0
N736 N 0.92812 0.67606 0.19625 0.0
C737 C 0.8928 0.70879 0.2115 0.0
C738 C 0.92568 0.74459 0.22711 0.0
C739 C 0.98146 0.69027 0.20381 0.0
N740 N 0.98122 0.7323 0.22229 0.0
C741 C 0.85373 0.57413 0.22162 0.0
C742 C 0.94539 0.50848 0.23934 0.0
C743 C 0.89774 0.51559 0.25629 0.0
C744 C 0.85091 0.54782 0.24691 0.0
C745 C 0.94614 0.53464 0.21402 0.0
N746 N 0.90121 0.56809 0.20563 0.0
H747 H 0.8181 0.60042 0.21507 0.0
H748 H 0.98346 0.52822 0.20156 0.0
H749 H 0.84634 0.70813 0.21092 0.0
H750 H 0.02022 0.67499 0.1942 0.0
O751 O 0.8292 0.64921 0.17063 0.0
O752 O 0.9004 0.66736 0.14278 0.0
O753 O 0.99163 0.59596 0.16687 0.0
C754 C 0.84897 0.6802 0.15075 0.0
H755 H 0.81519 0.49091 0.1001 0.0
H756 H 0.91041 0.78044 0.23903 0.0
H757 H 0.98199 0.48296 0.24564 0.0
H758 H 0.81325 0.55429 0.25939 0.0
Co759 Co 0.64149 0.65635 0.42292 0.0
C760 C 0.75292 0.60327 0.41156 0.0
C761 C 0.70713 0.61842 0.37479 0.0
C762 C 0.75478 0.58486 0.36928 0.0
N763 N 0.70603 0.63011 0.4014 0.0
N764 N 0.78284 0.57522 0.39261 0.0
H765 H 0.76321 0.59994 0.4326 0.0
H766 H 0.67364 0.6298 0.36066 0.0
C767 C 0.68242 0.76928 0.39713 0.0
O768 O 0.7147 0.7423 0.37958 0.0
N769 N 0.5797 0.6782 0.44625 0.0
C770 C 0.54696 0.64288 0.46149 0.0
C771 C 0.51115 0.67575 0.47709 0.0
C772 C 0.56549 0.73152 0.45381 0.0
N773 N 0.52345 0.73129 0.47228 0.0
C774 C 0.68164 0.60383 0.47162 0.0
C775 C 0.74731 0.69548 0.48933 0.0
C776 C 0.7402 0.64784 0.50629 0.0
C777 C 0.70796 0.60101 0.49692 0.0
C778 C 0.72114 0.69623 0.46402 0.0
N779 N 0.68769 0.6513 0.45563 0.0
H780 H 0.65535 0.56821 0.46508 0.0
H781 H 0.72757 0.73354 0.45155 0.0
H782 H 0.54761 0.59642 0.46091 0.0
H783 H 0.58079 0.77028 0.4442 0.0
O784 O 0.60657 0.57929 0.42063 0.0
O785 O 0.58842 0.65046 0.39278 0.0
O786 O 0.65981 0.7417 0.41687 0.0
C787 C 0.57558 0.59902 0.40074 0.0
H788 H 0.76491 0.56529 0.35011 0.0
H789 H 0.47529 0.66048 0.48901 0.0
H790 H 0.77284 0.73208 0.49564 0.0
H791 H 0.70149 0.56337 0.5094 0.0
Co792 Co 0.40632 0.39158 0.17291 0.0
C793 C 0.35332 0.50304 0.16152 0.0
C794 C 0.36834 0.45713 0.12478 0.0
C795 C 0.33481 0.50479 0.11925 0.0
N796 N 0.3801 0.4561 0.15138 0.0
N797 N 0.3253 0.53297 0.14256 0.0
H798 H 0.35 0.51335 0.18256 0.0
H799 H 0.37963 0.42359 0.11066 0.0
C800 C 0.51925 0.43243 0.14711 0.0
O801 O 0.49225 0.46465 0.12954 0.0
N802 N 0.42816 0.32982 0.19626 0.0
C803 C 0.39283 0.29713 0.21152 0.0
C804 C 0.4257 0.26131 0.22712 0.0
C805 C 0.48149 0.31557 0.2038 0.0
N806 N 0.48125 0.27355 0.22228 0.0
C807 C 0.35374 0.43182 0.22159 0.0
C808 C 0.44543 0.49738 0.23934 0.0
C809 C 0.39775 0.49032 0.25627 0.0
C810 C 0.3509 0.45813 0.24689 0.0
C811 C 0.4462 0.47121 0.21403 0.0
N812 N 0.40125 0.4378 0.20562 0.0
H813 H 0.31809 0.40556 0.21504 0.0
H814 H 0.48355 0.47759 0.20157 0.0
H815 H 0.34637 0.29783 0.21096 0.0
H816 H 0.52025 0.33081 0.19417 0.0
O817 O 0.32924 0.35667 0.17063 0.0
O818 O 0.40045 0.33849 0.14278 0.0
O819 O 0.49168 0.4099 0.16687 0.0
C820 C 0.34901 0.32566 0.15075 0.0
H821 H 0.31514 0.51482 0.10009 0.0
H822 H 0.41042 0.22548 0.23905 0.0
H823 H 0.48205 0.52286 0.24566 0.0
H824 H 0.31322 0.4517 0.25935 0.0
Co825 Co 0.36424 0.65639 0.92292 0.0
C826 C 0.25279 0.60336 0.91153 0.0
C827 C 0.29867 0.61845 0.87478 0.0
C828 C 0.25101 0.58491 0.86926 0.0
N829 N 0.29972 0.63017 0.90139 0.0
N830 N 0.22285 0.57535 0.89257 0.0
H831 H 0.2425 0.60001 0.93257 0.0
H832 H 0.3322 0.62977 0.86066 0.0
C833 C 0.32335 0.76932 0.89713 0.0
O834 O 0.29108 0.74234 0.87958 0.0
N835 N 0.42601 0.67822 0.94626 0.0
C836 C 0.45872 0.64289 0.96152 0.0
C837 C 0.49455 0.67576 0.97712 0.0
C838 C 0.44027 0.73155 0.9538 0.0
N839 N 0.48231 0.7313 0.97228 0.0
C840 C 0.32402 0.60383 0.97161 0.0
C841 C 0.25841 0.6955 0.98934 0.0
C842 C 0.26548 0.64783 1.00628 0.0
C843 C 0.29769 0.601 0.9969 0.0
C844 C 0.28458 0.69626 0.96403 0.0
N845 N 0.31802 0.65132 0.95563 0.0
H846 H 0.3503 0.5682 0.96506 0.0
H847 H 0.27819 0.7336 0.95157 0.0
H848 H 0.45803 0.59644 0.96095 0.0
H849 H 0.42502 0.7703 0.94417 0.0
O850 O 0.39915 0.57932 0.92064 0.0
O851 O 0.41733 0.65051 0.89279 0.0
O852 O 0.34593 0.74173 0.91687 0.0
C853 C 0.43016 0.59907 0.90076 0.0
H854 H 0.24097 0.56526 0.8501 0.0
H855 H 0.53039 0.66048 0.98904 0.0
H856 H 0.2329 0.7321 0.99565 0.0
H857 H 0.30414 0.56333 1.00937 0.0
Co858 Co 0.09945 0.61423 0.67291 0.0
C859 C 0.15245 0.50277 0.66152 0.0
C860 C 0.13743 0.54869 0.62478 0.0
C861 C 0.17096 0.50103 0.61925 0.0
N862 N 0.12567 0.54972 0.65138 0.0
N863 N 0.18047 0.47284 0.64256 0.0
H864 H 0.15577 0.49247 0.68256 0.0
H865 H 0.12614 0.58223 0.61066 0.0
C866 C 0.98652 0.57338 0.64711 0.0
O867 O 0.01352 0.54117 0.62954 0.0
N868 N 0.07761 0.676 0.69626 0.0
C869 C 0.11294 0.70868 0.71152 0.0
C870 C 0.08007 0.7445 0.72712 0.0
C871 C 0.02428 0.69025 0.7038 0.0
N872 N 0.02452 0.73227 0.72228 0.0
C873 C 0.15203 0.574 0.72159 0.0
C874 C 0.06034 0.50844 0.73934 0.0
C875 C 0.10802 0.5155 0.75627 0.0
C876 C 0.15487 0.54768 0.74689 0.0
C877 C 0.05957 0.53461 0.71403 0.0
N878 N 0.10452 0.56801 0.70562 0.0
H879 H 0.18768 0.60026 0.71504 0.0
H880 H 0.02222 0.52823 0.70157 0.0
H881 H 0.1594 0.70799 0.71096 0.0
H882 H 0.98552 0.67501 0.69417 0.0
O883 O 0.17652 0.64914 0.67063 0.0
O884 O 0.10532 0.66732 0.64278 0.0
O885 O 0.01409 0.59592 0.66687 0.0
C886 C 0.15676 0.68015 0.65075 0.0
H887 H 0.19063 0.49099 0.60009 0.0
H888 H 0.09535 0.78033 0.73905 0.0
H889 H 0.02372 0.48295 0.74566 0.0
H890 H 0.19255 0.55412 0.75935 0.0
Co891 Co 0.14153 0.34943 0.42292 0.0
C892 C 0.25298 0.40246 0.41153 0.0
C893 C 0.2071 0.38737 0.37478 0.0
C894 C 0.25476 0.42091 0.36926 0.0
N895 N 0.20605 0.37565 0.40139 0.0
N896 N 0.28292 0.43047 0.39257 0.0
H897 H 0.26327 0.40581 0.43257 0.0
H898 H 0.17357 0.37605 0.36066 0.0
C899 C 0.18242 0.2365 0.39713 0.0
O900 O 0.21469 0.26348 0.37958 0.0
N901 N 0.07975 0.3276 0.44626 0.0
C902 C 0.04705 0.36292 0.46152 0.0
C903 C 0.01122 0.33006 0.47712 0.0
C904 C 0.0655 0.27427 0.4538 0.0
N905 N 0.02346 0.27452 0.47228 0.0
C906 C 0.18175 0.40199 0.47161 0.0
C907 C 0.24736 0.31032 0.48934 0.0
C908 C 0.24029 0.35799 0.50628 0.0
C909 C 0.20808 0.40482 0.4969 0.0
C910 C 0.22118 0.30955 0.46403 0.0
N911 N 0.18775 0.35449 0.45563 0.0
H912 H 0.15547 0.43762 0.46506 0.0
H913 H 0.22758 0.27222 0.45157 0.0
H914 H 0.04774 0.40938 0.46095 0.0
H915 H 0.08075 0.23552 0.44417 0.0
O916 O 0.10662 0.4265 0.42064 0.0
O917 O 0.08843 0.35531 0.39279 0.0
O918 O 0.15984 0.26408 0.41687 0.0
C919 C 0.07561 0.40675 0.40076 0.0
H920 H 0.2648 0.44056 0.3501 0.0
H921 H 0.97538 0.34534 0.48904 0.0
H922 H 0.27286 0.27371 0.49565 0.0
H923 H 0.20163 0.44249 0.50937 0.0
Co924 Co 0.40627 0.61428 0.36711 0.0
C925 C 0.35322 0.50285 0.37848 0.0
C926 C 0.3683 0.54868 0.41524 0.0
C927 C 0.33476 0.50102 0.42076 0.0
N928 N 0.38003 0.54976 0.38863 0.0
N929 N 0.32516 0.47294 0.39743 0.0
H930 H 0.34992 0.49254 0.35744 0.0
H931 H 0.37966 0.58218 0.42937 0.0
C932 C 0.51921 0.57338 0.39291 0.0
O933 O 0.49221 0.54115 0.41047 0.0
N934 N 0.42813 0.67606 0.34378 0.0
C935 C 0.3928 0.70878 0.32853 0.0
C936 C 0.42568 0.74458 0.31292 0.0
C937 C 0.48146 0.69027 0.33622 0.0
N938 N 0.48122 0.7323 0.31774 0.0
C939 C 0.35373 0.57412 0.31841 0.0
C940 C 0.44539 0.50848 0.30069 0.0
C941 C 0.39774 0.51559 0.28374 0.0
C942 C 0.3509 0.54781 0.29311 0.0
C943 C 0.44615 0.53464 0.326 0.0
N944 N 0.40121 0.56809 0.3344 0.0
H945 H 0.3181 0.60041 0.32496 0.0
H946 H 0.48347 0.52822 0.33847 0.0
H947 H 0.34634 0.70812 0.3291 0.0
H948 H 0.52022 0.67499 0.34584 0.0
O949 O 0.3292 0.64921 0.3694 0.0
O950 O 0.40041 0.66735 0.39725 0.0
O951 O 0.49163 0.59595 0.37316 0.0
C952 C 0.34897 0.6802 0.38928 0.0
H953 H 0.31517 0.49091 0.43992 0.0
H954 H 0.41041 0.78043 0.301 0.0
H955 H 0.48199 0.48296 0.29438 0.0
H956 H 0.31325 0.55428 0.28064 0.0
Co957 Co 0.14149 0.65635 0.11711 0.0
C958 C 0.25293 0.60328 0.12847 0.0
C959 C 0.20711 0.6184 0.16523 0.0
C960 C 0.25477 0.58484 0.17075 0.0
N961 N 0.20602 0.63011 0.13863 0.0
N962 N 0.28284 0.57523 0.14742 0.0
H963 H 0.26323 0.59997 0.10743 0.0
H964 H 0.17362 0.62977 0.17937 0.0
C965 C 0.18242 0.76928 0.1429 0.0
O966 O 0.21469 0.74229 0.16045 0.0
N967 N 0.07971 0.6782 0.09378 0.0
C968 C 0.04698 0.64288 0.07853 0.0
C969 C 0.01117 0.67575 0.06293 0.0
C970 C 0.06549 0.73153 0.08622 0.0
N971 N 0.02345 0.73129 0.06775 0.0
C972 C 0.18166 0.60382 0.06841 0.0
C973 C 0.24731 0.69547 0.05069 0.0
C974 C 0.2402 0.64782 0.03374 0.0
C975 C 0.20797 0.601 0.04311 0.0
C976 C 0.22114 0.69623 0.076 0.0
N977 N 0.18769 0.6513 0.08439 0.0
H978 H 0.15536 0.56819 0.07495 0.0
H979 H 0.22756 0.73354 0.08847 0.0
H980 H 0.04764 0.59643 0.0791 0.0
H981 H 0.08077 0.77028 0.09584 0.0
O982 O 0.10657 0.57929 0.11939 0.0
O983 O 0.08842 0.65048 0.14725 0.0
O984 O 0.15982 0.7417 0.12316 0.0
C985 C 0.07557 0.59905 0.13928 0.0
H986 H 0.26488 0.56526 0.18992 0.0
H987 H 0.97531 0.66048 0.051 0.0
H988 H 0.27283 0.73207 0.04438 0.0
H989 H 0.2015 0.56335 0.03064 0.0
Co990 Co 0.09949 0.39153 0.86711 0.0
C991 C 0.15255 0.50297 0.87848 0.0
C992 C 0.13746 0.45714 0.91524 0.0
C993 C 0.17101 0.50479 0.92076 0.0
N994 N 0.12574 0.45606 0.88863 0.0
N995 N 0.18061 0.53288 0.89743 0.0
H996 H 0.15585 0.51328 0.85744 0.0
H997 H 0.12611 0.42364 0.92937 0.0
C998 C 0.98656 0.43243 0.89291 0.0
O999 O 0.01356 0.46466 0.91047 0.0
N1000 N 0.07764 0.32976 0.84378 0.0
C1001 C 0.11297 0.29704 0.82853 0.0
C1002 C 0.08009 0.26124 0.81292 0.0
C1003 C 0.02431 0.31555 0.83622 0.0
N1004 N 0.02455 0.27351 0.81774 0.0
C1005 C 0.15204 0.4317 0.81841 0.0
C1006 C 0.06038 0.49734 0.80069 0.0
C1007 C 0.10803 0.49023 0.78374 0.0
C1008 C 0.15486 0.45801 0.79311 0.0
C1009 C 0.05962 0.47118 0.826 0.0
N1010 N 0.10456 0.43773 0.8344 0.0
H1011 H 0.18767 0.40541 0.82496 0.0
H1012 H 0.0223 0.47759 0.83847 0.0
H1013 H 0.15943 0.2977 0.8291 0.0
H1014 H 0.98555 0.33082 0.84584 0.0
O1015 O 0.17657 0.35661 0.8694 0.0
O1016 O 0.10536 0.33846 0.89725 0.0
O1017 O 0.01414 0.40986 0.87316 0.0
C1018 C 0.1568 0.32562 0.88928 0.0
H1019 H 0.1906 0.51491 0.93992 0.0
H1020 H 0.09536 0.22539 0.801 0.0
H1021 H 0.02378 0.52285 0.79438 0.0
H1022 H 0.19252 0.45154 0.78064 0.0
Co1023 Co 0.36428 0.34946 0.61711 0.0
C1024 C 0.25284 0.40253 0.62847 0.0
C1025 C 0.29866 0.38742 0.66523 0.0
C1026 C 0.251 0.42098 0.67075 0.0
N1027 N 0.29975 0.3757 0.63863 0.0
N1028 N 0.22293 0.43059 0.64742 0.0
H1029 H 0.24254 0.40585 0.60743 0.0
H1030 H 0.33215 0.37605 0.67937 0.0
C1031 C 0.32335 0.23654 0.6429 0.0
O1032 O 0.29108 0.26353 0.66045 0.0
N1033 N 0.42606 0.32761 0.59378 0.0
C1034 C 0.45879 0.36293 0.57853 0.0
C1035 C 0.4946 0.33006 0.56293 0.0
C1036 C 0.44028 0.27429 0.58622 0.0
N1037 N 0.48232 0.27452 0.56775 0.0
C1038 C 0.32411 0.402 0.56841 0.0
C1039 C 0.25846 0.31034 0.55069 0.0
C1040 C 0.26556 0.35799 0.53374 0.0
C1041 C 0.2978 0.40482 0.54311 0.0
C1042 C 0.28462 0.30959 0.576 0.0
N1043 N 0.31808 0.35452 0.58439 0.0
H1044 H 0.35041 0.43762 0.57495 0.0
H1045 H 0.27821 0.27227 0.58847 0.0
H1046 H 0.45813 0.40939 0.5791 0.0
H1047 H 0.425 0.23553 0.59584 0.0
O1048 O 0.3992 0.42653 0.61939 0.0
O1049 O 0.41735 0.35534 0.64725 0.0
O1050 O 0.34595 0.26412 0.62316 0.0
C1051 C 0.4302 0.40677 0.63928 0.0
H1052 H 0.24089 0.44056 0.68992 0.0
H1053 H 0.53045 0.34533 0.551 0.0
H1054 H 0.23294 0.27375 0.54438 0.0
H1055 H 0.30427 0.44247 0.53064 0.0
loop_
_geom_bond_atom_site_label_1
_geom_bond_atom_site_label_2
_geom_bond_distance
_geom_bond_site_symmetry_2
_ccdc_geom_bond_type
Co0 N4 2.148 . S
Co0 N10 2.128 . S
Co0 N20 2.194 . S
Co0 O25 2.351 . S
Co0 O26 2.155 . S
Co0 O27 2.096 1_455 S
C1 N4 1.301 1_565 S
C1 N5 1.328 . S
C1 H6 0.930 . S
C2 C3 1.333 . S
C2 N4 1.317 1_565 S
C2 H7 0.930 . S
C3 C2 1.333 . S
C3 N5 1.350 . S
C3 H29 0.931 . S
N4 Co0 2.148 . S
N4 C1 1.301 1_545 S
N4 C2 1.317 1_545 S
N5 C1 1.328 . S
N5 C3 1.350 . S
H6 C1 0.930 . S
H7 C2 0.930 . S
C8 O9 1.224 . S
C8 O27 1.247 . S
O9 C8 1.224 . S
N10 Co0 2.128 . S
N10 C11 1.355 . S
N10 C13 1.311 1_455 S
C11 N10 1.355 . S
C11 C12 1.363 . S
C11 H23 0.929 . S
C12 C11 1.363 . S
C12 N14 1.375 1_455 S
C12 H30 0.931 . S
C13 N10 1.311 1_655 S
C13 N14 1.347 . S
C13 H24 0.929 . S
N14 C12 1.375 1_655 S
N14 C13 1.347 . S
C15 C18 1.365 . S
C15 N20 1.328 . S
C15 H21 0.929 . S
C16 C17 1.362 1_545 S
C16 C19 1.378 . S
C16 H31 0.928 1_445 S
C17 C16 1.362 1_565 S
C17 C18 1.359 1_565 S
C18 C15 1.365 . S
C18 C17 1.359 1_545 S
C18 H32 0.930 . S
C19 C16 1.378 . S
C19 N20 1.315 . S
C19 H22 0.930 1_455 S
N20 Co0 2.194 . S
N20 C15 1.328 . S
N20 C19 1.315 . S
H21 C15 0.929 . S
H22 C19 0.930 1_655 S
H23 C11 0.929 . S
H24 C13 0.929 . S
O25 Co0 2.351 . S
O25 C28 1.244 . S
O26 Co0 2.155 . S
O26 C28 1.240 . S
O27 Co0 2.096 1_655 S
O27 C8 1.247 . S
C28 O25 1.244 . S
C28 O26 1.240 . S
H29 C3 0.931 . S
H30 C12 0.931 . S
H31 C16 0.928 1_665 S
H32 C18 0.930 . S
Co33 N37 2.148 . S
Co33 N43 2.128 . S
Co33 N53 2.194 . S
Co33 O58 2.351 . S
Co33 O59 2.155 . S
Co33 O60 2.096 . S
C34 N37 1.301 . S
C34 N38 1.328 . S
C34 H39 0.930 . S
C35 C36 1.333 . S
C35 N37 1.317 . S
C35 H40 0.930 . S
C36 C35 1.333 . S
C36 N38 1.350 . S
C36 H62 0.931 . S
N37 Co33 2.148 . S
N37 C34 1.301 . S
N37 C35 1.317 . S
N38 C34 1.328 . S
N38 C36 1.350 . S
H39 C34 0.930 . S
H40 C35 0.930 . S
C41 O42 1.224 . S
C41 O60 1.247 . S
O42 C41 1.224 . S
N43 Co33 2.128 . S
N43 C44 1.355 . S
N43 C46 1.311 . S
C44 N43 1.355 . S
C44 C45 1.363 . S
C44 H56 0.929 . S
C45 C44 1.363 . S
C45 N47 1.375 . S
C45 H63 0.931 . S
C46 N43 1.311 . S
C46 N47 1.347 . S
C46 H57 0.929 . S
N47 C45 1.375 . S
N47 C46 1.347 . S
C48 C51 1.365 . S
C48 N53 1.328 . S
C48 H54 0.929 . S
C49 C50 1.362 . S
C49 C52 1.378 . S
C49 H64 0.929 . S
C50 C49 1.362 . S
C50 C51 1.366 . S
C51 C48 1.365 . S
C51 C50 1.366 . S
C51 H65 0.930 . S
C52 C49 1.378 . S
C52 N53 1.315 . S
C52 H55 0.930 . S
N53 Co33 2.194 . S
N53 C48 1.328 . S
N53 C52 1.315 . S
H54 C48 0.929 . S
H55 C52 0.930 . S
H56 C44 0.929 . S
H57 C46 0.929 . S
O58 Co33 2.351 . S
O58 C61 1.244 . S
O59 Co33 2.155 . S
O59 C61 1.240 . S
O60 Co33 2.096 . S
O60 C41 1.247 . S
C61 O58 1.244 . S
C61 O59 1.240 . S
H62 C36 0.931 . S
H63 C45 0.931 . S
H64 C49 0.929 . S
H65 C51 0.930 . S
Co66 N70 2.148 . S
Co66 N76 2.128 . S
Co66 N86 2.194 . S
Co66 O91 2.351 . S
Co66 O92 2.155 . S
Co66 O93 2.096 . S
C67 N70 1.301 1_545 S
C67 N71 1.328 . S
C67 H72 0.930 . S
C68 C69 1.333 . S
C68 N70 1.317 1_545 S
C68 H73 0.930 . S
C69 C68 1.333 . S
C69 N71 1.350 . S
C69 H95 0.931 . S
N70 Co66 2.148 . S
N70 C67 1.301 1_565 S
N70 C68 1.317 1_565 S
N71 C67 1.328 . S
N71 C69 1.350 . S
H72 C67 0.930 . S
H73 C68 0.930 . S
C74 O75 1.224 . S
C74 O93 1.247 . S
O75 C74 1.224 . S
N76 Co66 2.128 . S
N76 C77 1.355 . S
N76 C79 1.311 . S
C77 N76 1.355 . S
C77 C78 1.363 . S
C77 H89 0.929 . S
C78 C77 1.363 . S
C78 N80 1.375 . S
C78 H96 0.931 . S
C79 N76 1.311 . S
C79 N80 1.347 . S
C79 H90 0.929 . S
N80 C78 1.375 . S
N80 C79 1.347 . S
C81 C84 1.365 . S
C81 N86 1.328 . S
C81 H87 0.929 . S
C82 C83 1.362 1_565 S
C82 C85 1.378 . S
C82 H97 0.928 1_565 S
C83 C82 1.362 1_545 S
C83 C84 1.359 1_545 S
C84 C81 1.365 . S
C84 C83 1.359 1_565 S
C84 H98 0.930 . S
C85 C82 1.378 . S
C85 N86 1.315 . S
C85 H88 0.930 . S
N86 Co66 2.194 . S
N86 C81 1.328 . S
N86 C85 1.315 . S
H87 C81 0.929 . S
H88 C85 0.930 . S
H89 C77 0.929 . S
H90 C79 0.929 . S
O91 Co66 2.351 . S
O91 C94 1.244 . S
O92 Co66 2.155 . S
O92 C94 1.240 . S
O93 Co66 2.096 . S
O93 C74 1.247 . S
C94 O91 1.244 . S
C94 O92 1.240 . S
H95 C69 0.931 . S
H96 C78 0.931 . S
H97 C82 0.928 1_545 S
H98 C84 0.930 . S
Co99 N103 2.148 . S
Co99 N109 2.128 . S
Co99 N119 2.194 . S
Co99 O124 2.351 . S
Co99 O125 2.155 . S
Co99 O126 2.096 . S
C100 N103 1.301 . S
C100 N104 1.328 . S
C100 H105 0.930 . S
C101 C102 1.333 . S
C101 N103 1.317 . S
C101 H106 0.930 . S
C102 C101 1.333 . S
C102 N104 1.350 . S
C102 H128 0.931 . S
N103 Co99 2.148 . S
N103 C100 1.301 . S
N103 C101 1.317 . S
N104 C100 1.328 . S
N104 C102 1.350 . S
H105 C100 0.930 . S
H106 C101 0.930 . S
C107 O108 1.224 . S
C107 O126 1.247 . S
O108 C107 1.224 . S
N109 Co99 2.128 . S
N109 C110 1.355 . S
N109 C112 1.311 . S
C110 N109 1.355 . S
C110 C111 1.363 . S
C110 H122 0.929 . S
C111 C110 1.363 . S
C111 N113 1.375 . S
C111 H129 0.931 . S
C112 N109 1.311 . S
C112 N113 1.347 . S
C112 H123 0.929 . S
N113 C111 1.375 . S
N113 C112 1.347 . S
C114 C117 1.365 . S
C114 N119 1.328 . S
C114 H120 0.929 . S
C115 C116 1.362 . S
C115 C118 1.378 . S
C115 H130 0.929 . S
C116 C115 1.362 . S
C116 C117 1.366 . S
C117 C114 1.365 . S
C117 C116 1.366 . S
C117 H131 0.930 . S
C118 C115 1.378 . S
C118 N119 1.315 . S
C118 H121 0.930 . S
N119 Co99 2.194 . S
N119 C114 1.328 . S
N119 C118 1.315 . S
H120 C114 0.929 . S
H121 C118 0.930 . S
H122 C110 0.929 . S
H123 C112 0.929 . S
O124 Co99 2.351 . S
O124 C127 1.244 . S
O125 Co99 2.155 . S
O125 C127 1.240 . S
O126 Co99 2.096 . S
O126 C107 1.247 . S
C127 O124 1.244 . S
C127 O125 1.240 . S
H128 C102 0.931 . S
H129 C111 0.931 . S
H130 C115 0.929 . S
H131 C117 0.930 . S
Co132 N136 2.148 . S
Co132 N142 2.128 . S
Co132 N152 2.194 . S
Co132 O157 2.351 . S
Co132 O158 2.155 . S
Co132 O159 2.096 1_455 S
C133 N136 1.301 1_545 S
C133 N137 1.328 . S
C133 H138 0.930 . S
C134 C135 1.333 . S
C134 N136 1.317 1_545 S
C134 H139 0.930 . S
C135 C134 1.333 . S
C135 N137 1.350 . S
C135 H161 0.931 . S
N136 Co132 2.148 . S
N136 C133 1.301 1_565 S
N136 C134 1.317 1_565 S
N137 C133 1.328 . S
N137 C135 1.350 . S
H138 C133 0.930 . S
H139 C134 0.930 . S
C140 O141 1.224 . S
C140 O159 1.247 . S
O141 C140 1.224 . S
N142 Co132 2.128 . S
N142 C143 1.355 . S
N142 C145 1.311 1_455 S
C143 N142 1.355 . S
C143 C144 1.363 . S
C143 H155 0.929 . S
C144 C143 1.363 . S
C144 N146 1.375 1_455 S
C144 H162 0.931 . S
C145 N142 1.311 1_655 S
C145 N146 1.347 . S
C145 H156 0.929 . S
N146 C144 1.375 1_655 S
N146 C145 1.347 . S
C147 C150 1.365 . S
C147 N152 1.328 . S
C147 H153 0.929 . S
C148 C149 1.362 1_565 S
C148 C151 1.378 . S
C148 H163 0.928 1_465 S
C149 C148 1.362 1_545 S
C149 C150 1.359 1_545 S
C150 C147 1.365 . S
C150 C149 1.359 1_565 S
C150 H164 0.930 . S
C151 C148 1.378 . S
C151 N152 1.315 . S
C151 H154 0.930 1_455 S
N152 Co132 2.194 . S
N152 C147 1.328 . S
N152 C151 1.315 . S
H153 C147 0.929 . S
H154 C151 0.930 1_655 S
H155 C143 0.929 . S
H156 C145 0.929 . S
O157 Co132 2.351 . S
O157 C160 1.244 . S
O158 Co132 2.155 . S
O158 C160 1.240 . S
O159 Co132 2.096 1_655 S
O159 C140 1.247 . S
C160 O157 1.244 . S
C160 O158 1.240 . S
H161 C135 0.931 . S
H162 C144 0.931 . S
H163 C148 0.928 1_645 S
H164 C150 0.930 . S
Co165 N169 2.148 . S
Co165 N175 2.128 . S
Co165 N185 2.194 . S
Co165 O190 2.351 . S
Co165 O191 2.155 . S
Co165 O192 2.096 . S
C166 N169 1.301 . S
C166 N170 1.328 . S
C166 H171 0.930 . S
C167 C168 1.333 . S
C167 N169 1.317 . S
C167 H172 0.930 . S
C168 C167 1.333 . S
C168 N170 1.350 . S
C168 H194 0.931 . S
N169 Co165 2.148 . S
N169 C166 1.301 . S
N169 C167 1.317 . S
N170 C166 1.328 . S
N170 C168 1.350 . S
H171 C166 0.930 . S
H172 C167 0.930 . S
C173 O174 1.224 . S
C173 O192 1.247 . S
O174 C173 1.224 . S
N175 Co165 2.128 . S
N175 C176 1.355 . S
N175 C178 1.311 . S
C176 N175 1.355 . S
C176 C177 1.363 . S
C176 H188 0.929 . S
C177 C176 1.363 . S
C177 N179 1.375 . S
C177 H195 0.931 . S
C178 N175 1.311 . S
C178 N179 1.347 . S
C178 H189 0.929 . S
N179 C177 1.375 . S
N179 C178 1.347 . S
C180 C183 1.365 . S
C180 N185 1.328 . S
C180 H186 0.929 . S
C181 C182 1.362 . S
C181 C184 1.378 . S
C181 H196 0.929 . S
C182 C181 1.362 . S
C182 C183 1.366 . S
C183 C180 1.365 . S
C183 C182 1.366 . S
C183 H197 0.930 . S
C184 C181 1.378 . S
C184 N185 1.315 . S
C184 H187 0.930 . S
N185 Co165 2.194 . S
N185 C180 1.328 . S
N185 C184 1.315 . S
H186 C180 0.929 . S
H187 C184 0.930 . S
H188 C176 0.929 . S
H189 C178 0.929 . S
O190 Co165 2.351 . S
O190 C193 1.244 . S
O191 Co165 2.155 . S
O191 C193 1.240 . S
O192 Co165 2.096 . S
O192 C173 1.247 . S
C193 O190 1.244 . S
C193 O191 1.240 . S
H194 C168 0.931 . S
H195 C177 0.931 . S
H196 C181 0.929 . S
H197 C183 0.930 . S
Co198 N202 2.148 . S
Co198 N208 2.128 . S
Co198 N218 2.194 . S
Co198 O223 2.351 . S
Co198 O224 2.155 . S
Co198 O225 2.096 . S
C199 N202 1.301 1_565 S
C199 N203 1.328 . S
C199 H204 0.930 . S
C200 C201 1.333 . S
C200 N202 1.317 1_565 S
C200 H205 0.930 . S
C201 C200 1.333 . S
C201 N203 1.350 . S
C201 H227 0.931 . S
N202 Co198 2.148 . S
N202 C199 1.301 1_545 S
N202 C200 1.317 1_545 S
N203 C199 1.328 . S
N203 C201 1.350 . S
H204 C199 0.930 . S
H205 C200 0.930 . S
C206 O207 1.224 . S
C206 O225 1.247 . S
O207 C206 1.224 . S
N208 Co198 2.128 . S
N208 C209 1.355 . S
N208 C211 1.311 . S
C209 N208 1.355 . S
C209 C210 1.363 . S
C209 H221 0.929 . S
C210 C209 1.363 . S
C210 N212 1.375 . S
C210 H228 0.931 . S
C211 N208 1.311 . S
C211 N212 1.347 . S
C211 H222 0.929 . S
N212 C210 1.375 . S
N212 C211 1.347 . S
C213 C216 1.365 . S
C213 N218 1.328 . S
C213 H219 0.929 . S
C214 C215 1.362 1_545 S
C214 C217 1.378 . S
C214 H229 0.928 1_545 S
C215 C214 1.362 1_565 S
C215 C216 1.359 1_565 S
C216 C213 1.365 . S
C216 C215 1.359 1_545 S
C216 H230 0.930 . S
C217 C214 1.378 . S
C217 N218 1.315 . S
C217 H220 0.930 . S
N218 Co198 2.194 . S
N218 C213 1.328 . S
N218 C217 1.315 . S
H219 C213 0.929 . S
H220 C217 0.930 . S
H221 C209 0.929 . S
H222 C211 0.929 . S
O223 Co198 2.351 . S
O223 C226 1.244 . S
O224 Co198 2.155 . S
O224 C226 1.240 . S
O225 Co198 2.096 . S
O225 C206 1.247 . S
C226 O223 1.244 . S
C226 O224 1.240 . S
H227 C201 0.931 . S
H228 C210 0.931 . S
H229 C214 0.928 1_565 S
H230 C216 0.930 . S
Co231 N235 2.148 . S
Co231 N241 2.128 . S
Co231 N251 2.194 . S
Co231 O256 2.351 . S
Co231 O257 2.155 . S
Co231 O258 2.096 . S
C232 N235 1.301 . S
C232 N236 1.328 . S
C232 H237 0.930 . S
C233 C234 1.333 . S
C233 N235 1.317 . S
C233 H238 0.930 . S
C234 C233 1.333 . S
C234 N236 1.350 . S
C234 H260 0.931 . S
N235 Co231 2.148 . S
N235 C232 1.301 . S
N235 C233 1.317 . S
N236 C232 1.328 . S
N236 C234 1.350 . S
H237 C232 0.930 . S
H238 C233 0.930 . S
C239 O240 1.224 . S
C239 O258 1.247 . S
O240 C239 1.224 . S
N241 Co231 2.128 . S
N241 C242 1.355 . S
N241 C244 1.311 . S
C242 N241 1.355 . S
C242 C243 1.363 . S
C242 H254 0.929 . S
C243 C242 1.363 . S
C243 N245 1.375 . S
C243 H261 0.931 . S
C244 N241 1.311 . S
C244 N245 1.347 . S
C244 H255 0.929 . S
N245 C243 1.375 . S
N245 C244 1.347 . S
C246 C249 1.365 . S
C246 N251 1.328 . S
C246 H252 0.929 . S
C247 C248 1.362 . S
C247 C250 1.378 . S
C247 H262 0.929 . S
C248 C247 1.362 . S
C248 C249 1.366 . S
C249 C246 1.365 . S
C249 C248 1.366 . S
C249 H263 0.930 . S
C250 C247 1.378 . S
C250 N251 1.315 . S
C250 H253 0.930 . S
N251 Co231 2.194 . S
N251 C246 1.328 . S
N251 C250 1.315 . S
H252 C246 0.929 . S
H253 C250 0.930 . S
H254 C242 0.929 . S
H255 C244 0.929 . S
O256 Co231 2.351 . S
O256 C259 1.244 . S
O257 Co231 2.155 . S
O257 C259 1.240 . S
O258 Co231 2.096 . S
O258 C239 1.247 . S
C259 O256 1.244 . S
C259 O257 1.240 . S
H260 C234 0.931 . S
H261 C243 0.931 . S
H262 C247 0.929 . S
H263 C249 0.930 . S
Co264 N268 2.148 . S
Co264 N274 2.128 . S
Co264 N284 2.194 . S
Co264 O289 2.351 . S
Co264 O290 2.155 . S
Co264 O291 2.096 1_655 S
C265 N268 1.301 1_545 S
C265 N269 1.328 . S
C265 H270 0.930 . S
C266 C267 1.333 . S
C266 N268 1.317 1_545 S
C266 H271 0.930 . S
C267 C266 1.333 . S
C267 N269 1.350 . S
C267 H293 0.931 . S
N268 Co264 2.148 . S
N268 C265 1.301 1_565 S
N268 C266 1.317 1_565 S
N269 C265 1.328 . S
N269 C267 1.350 . S
H270 C265 0.930 . S
H271 C266 0.930 . S
C272 O273 1.224 . S
C272 O291 1.247 . S
O273 C272 1.224 . S
N274 Co264 2.128 . S
N274 C275 1.355 . S
N274 C277 1.311 1_655 S
C275 N274 1.355 . S
C275 C276 1.363 . S
C275 H287 0.929 . S
C276 C275 1.363 . S
C276 N278 1.375 1_655 S
C276 H294 0.931 . S
C277 N274 1.311 1_455 S
C277 N278 1.347 . S
C277 H288 0.929 . S
N278 C276 1.375 1_455 S
N278 C277 1.347 . S
C279 C282 1.365 . S
C279 N284 1.328 . S
C279 H285 0.929 . S
C280 C281 1.362 1_565 S
C280 C283 1.378 . S
C280 H295 0.928 1_665 S
C281 C280 1.362 1_545 S
C281 C282 1.359 1_545 S
C282 C279 1.365 . S
C282 C281 1.359 1_565 S
C282 H296 0.930 . S
C283 C280 1.378 . S
C283 N284 1.315 . S
C283 H286 0.930 1_655 S
N284 Co264 2.194 . S
N284 C279 1.328 . S
N284 C283 1.315 . S
H285 C279 0.929 . S
H286 C283 0.930 1_455 S
H287 C275 0.929 . S
H288 C277 0.929 . S
O289 Co264 2.351 . S
O289 C292 1.244 . S
O290 Co264 2.155 . S
O290 C292 1.240 . S
O291 Co264 2.096 1_455 S
O291 C272 1.247 . S
C292 O289 1.244 . S
C292 O290 1.240 . S
H293 C267 0.931 . S
H294 C276 0.931 . S
H295 C280 0.928 1_445 S
H296 C282 0.930 . S
Co297 N301 2.148 . S
Co297 N307 2.128 . S
Co297 N317 2.194 . S
Co297 O322 2.351 . S
Co297 O323 2.155 . S
Co297 O324 2.096 . S
C298 N301 1.301 . S
C298 N302 1.328 . S
C298 H303 0.930 . S
C299 C300 1.333 . S
C299 N301 1.317 . S
C299 H304 0.930 . S
C300 C299 1.333 . S
C300 N302 1.350 . S
C300 H326 0.931 . S
N301 Co297 2.148 . S
N301 C298 1.301 . S
N301 C299 1.317 . S
N302 C298 1.328 . S
N302 C300 1.350 . S
H303 C298 0.930 . S
H304 C299 0.930 . S
C305 O306 1.224 . S
C305 O324 1.247 . S
O306 C305 1.224 . S
N307 Co297 2.128 . S
N307 C308 1.355 . S
N307 C310 1.311 . S
C308 N307 1.355 . S
C308 C309 1.363 . S
C308 H320 0.929 . S
C309 C308 1.363 . S
C309 N311 1.375 . S
C309 H327 0.931 . S
C310 N307 1.311 . S
C310 N311 1.347 . S
C310 H321 0.929 . S
N311 C309 1.375 . S
N311 C310 1.347 . S
C312 C315 1.365 . S
C312 N317 1.328 . S
C312 H318 0.929 . S
C313 C314 1.362 . S
C313 C316 1.378 . S
C313 H328 0.929 . S
C314 C313 1.362 . S
C314 C315 1.366 . S
C315 C312 1.365 . S
C315 C314 1.366 . S
C315 H329 0.930 . S
C316 C313 1.378 . S
C316 N317 1.315 . S
C316 H319 0.930 . S
N317 Co297 2.194 . S
N317 C312 1.328 . S
N317 C316 1.315 . S
H318 C312 0.929 . S
H319 C316 0.930 . S
H320 C308 0.929 . S
H321 C310 0.929 . S
O322 Co297 2.351 . S
O322 C325 1.244 . S
O323 Co297 2.155 . S
O323 C325 1.240 . S
O324 Co297 2.096 . S
O324 C305 1.247 . S
C325 O322 1.244 . S
C325 O323 1.240 . S
H326 C300 0.931 . S
H327 C309 0.931 . S
H328 C313 0.929 . S
H329 C315 0.930 . S
Co330 N334 2.148 . S
Co330 N340 2.128 . S
Co330 N350 2.194 . S
Co330 O355 2.351 . S
Co330 O356 2.155 . S
Co330 O357 2.096 . S
C331 N334 1.301 1_565 S
C331 N335 1.328 . S
C331 H336 0.930 . S
C332 C333 1.333 . S
C332 N334 1.317 1_565 S
C332 H337 0.930 . S
C333 C332 1.333 . S
C333 N335 1.350 . S
C333 H359 0.931 . S
N334 Co330 2.148 . S
N334 C331 1.301 1_545 S
N334 C332 1.317 1_545 S
N335 C331 1.328 . S
N335 C333 1.350 . S
H336 C331 0.930 . S
H337 C332 0.930 . S
C338 O339 1.224 . S
C338 O357 1.247 . S
O339 C338 1.224 . S
N340 Co330 2.128 . S
N340 C341 1.355 . S
N340 C343 1.311 . S
C341 N340 1.355 . S
C341 C342 1.363 . S
C341 H353 0.929 . S
C342 C341 1.363 . S
C342 N344 1.375 . S
C342 H360 0.931 . S
C343 N340 1.311 . S
C343 N344 1.347 . S
C343 H354 0.929 . S
N344 C342 1.375 . S
N344 C343 1.347 . S
C345 C348 1.365 . S
C345 N350 1.328 . S
C345 H351 0.929 . S
C346 C347 1.362 1_545 S
C346 C349 1.378 . S
C346 H361 0.928 1_545 S
C347 C346 1.362 1_565 S
C347 C348 1.359 1_565 S
C348 C345 1.365 . S
C348 C347 1.359 1_545 S
C348 H362 0.930 . S
C349 C346 1.378 . S
C349 N350 1.315 . S
C349 H352 0.930 . S
N350 Co330 2.194 . S
N350 C345 1.328 . S
N350 C349 1.315 . S
H351 C345 0.929 . S
H352 C349 0.930 . S
H353 C341 0.929 . S
H354 C343 0.929 . S
O355 Co330 2.351 . S
O355 C358 1.244 . S
O356 Co330 2.155 . S
O356 C358 1.240 . S
O357 Co330 2.096 . S
O357 C338 1.247 . S
C358 O355 1.244 . S
C358 O356 1.240 . S
H359 C333 0.931 . S
H360 C342 0.931 . S
H361 C346 0.928 1_565 S
H362 C348 0.930 . S
Co363 N367 2.148 . S
Co363 N373 2.128 . S
Co363 N383 2.194 . S
Co363 O388 2.351 . S
Co363 O389 2.155 . S
Co363 O390 2.096 . S
C364 N367 1.301 . S
C364 N368 1.328 . S
C364 H369 0.930 . S
C365 C366 1.333 . S
C365 N367 1.317 . S
C365 H370 0.930 . S
C366 C365 1.333 . S
C366 N368 1.350 . S
C366 H392 0.931 . S
N367 Co363 2.148 . S
N367 C364 1.301 . S
N367 C365 1.317 . S
N368 C364 1.328 . S
N368 C366 1.350 . S
H369 C364 0.930 . S
H370 C365 0.930 . S
C371 O372 1.224 . S
C371 O390 1.247 . S
O372 C371 1.224 . S
N373 Co363 2.128 . S
N373 C374 1.355 . S
N373 C376 1.311 . S
C374 N373 1.355 . S
C374 C375 1.363 . S
C374 H386 0.929 . S
C375 C374 1.363 . S
C375 N377 1.375 . S
C375 H393 0.931 . S
C376 N373 1.311 . S
C376 N377 1.347 . S
C376 H387 0.929 . S
N377 C375 1.375 . S
N377 C376 1.347 . S
C378 C381 1.365 . S
C378 N383 1.328 . S
C378 H384 0.929 . S
C379 C380 1.362 . S
C379 C382 1.378 . S
C379 H394 0.929 . S
C380 C379 1.362 . S
C380 C381 1.366 . S
C381 C378 1.365 . S
C381 C380 1.366 . S
C381 H395 0.930 . S
C382 C379 1.378 . S
C382 N383 1.315 . S
C382 H385 0.930 . S
N383 Co363 2.194 . S
N383 C378 1.328 . S
N383 C382 1.315 . S
H384 C378 0.929 . S
H385 C382 0.930 . S
H386 C374 0.929 . S
H387 C376 0.929 . S
O388 Co363 2.351 . S
O388 C391 1.244 . S
O389 Co363 2.155 . S
O389 C391 1.240 . S
O390 Co363 2.096 . S
O390 C371 1.247 . S
C391 O388 1.244 . S
C391 O389 1.240 . S
H392 C366 0.931 . S
H393 C375 0.931 . S
H394 C379 0.929 . S
H395 C381 0.930 . S
Co396 N400 2.148 . S
Co396 N406 2.128 . S
Co396 N416 2.194 . S
Co396 O421 2.351 . S
Co396 O422 2.155 . S
Co396 O423 2.096 1_655 S
C397 N400 1.301 1_565 S
C397 N401 1.328 . S
C397 H402 0.930 . S
C398 C399 1.333 . S
C398 N400 1.317 1_565 S
C398 H403 0.930 . S
C399 C398 1.333 . S
C399 N401 1.350 . S
C399 H425 0.931 . S
N400 Co396 2.148 . S
N400 C397 1.301 1_545 S
N400 C398 1.317 1_545 S
N401 C397 1.328 . S
N401 C399 1.350 . S
H402 C397 0.930 . S
H403 C398 0.930 . S
C404 O405 1.224 . S
C404 O423 1.247 . S
O405 C404 1.224 . S
N406 Co396 2.128 . S
N406 C407 1.355 . S
N406 C409 1.311 1_655 S
C407 N406 1.355 . S
C407 C408 1.363 . S
C407 H419 0.929 . S
C408 C407 1.363 . S
C408 N410 1.375 1_655 S
C408 H426 0.931 . S
C409 N406 1.311 1_455 S
C409 N410 1.347 . S
C409 H420 0.929 . S
N410 C408 1.375 1_455 S
N410 C409 1.347 . S
C411 C414 1.365 . S
C411 N416 1.328 . S
C411 H417 0.929 . S
C412 C413 1.362 1_545 S
C412 C415 1.378 . S
C412 H427 0.928 1_645 S
C413 C412 1.362 1_565 S
C413 C414 1.359 1_565 S
C414 C411 1.365 . S
C414 C413 1.359 1_545 S
C414 H428 0.930 . S
C415 C412 1.378 . S
C415 N416 1.315 . S
C415 H418 0.930 1_655 S
N416 Co396 2.194 . S
N416 C411 1.328 . S
N416 C415 1.315 . S
H417 C411 0.929 . S
H418 C415 0.930 1_455 S
H419 C407 0.929 . S
H420 C409 0.929 . S
O421 Co396 2.351 . S
O421 C424 1.244 . S
O422 Co396 2.155 . S
O422 C424 1.240 . S
O423 Co396 2.096 1_455 S
O423 C404 1.247 . S
C424 O421 1.244 . S
C424 O422 1.240 . S
H425 C399 0.931 . S
H426 C408 0.931 . S
H427 C412 0.928 1_465 S
H428 C414 0.930 . S
Co429 N433 2.148 . S
Co429 N439 2.128 . S
Co429 N449 2.194 . S
Co429 O454 2.351 . S
Co429 O455 2.155 . S
Co429 O456 2.096 . S
C430 N433 1.301 . S
C430 N434 1.328 . S
C430 H435 0.930 . S
C431 C432 1.333 . S
C431 N433 1.317 . S
C431 H436 0.930 . S
C432 C431 1.333 . S
C432 N434 1.350 . S
C432 H458 0.931 . S
N433 Co429 2.148 . S
N433 C430 1.301 . S
N433 C431 1.317 . S
N434 C430 1.328 . S
N434 C432 1.350 . S
H435 C430 0.930 . S
H436 C431 0.930 . S
C437 O438 1.224 . S
C437 O456 1.247 . S
O438 C437 1.224 . S
N439 Co429 2.128 . S
N439 C440 1.355 . S
N439 C442 1.311 . S
C440 N439 1.355 . S
C440 C441 1.363 . S
C440 H452 0.929 . S
C441 C440 1.363 . S
C441 N443 1.375 . S
C441 H459 0.931 . S
C442 N439 1.311 . S
C442 N443 1.347 . S
C442 H453 0.929 . S
N443 C441 1.375 . S
N443 C442 1.347 . S
C444 C447 1.365 . S
C444 N449 1.328 . S
C444 H450 0.929 . S
C445 C446 1.362 . S
C445 C448 1.378 . S
C445 H460 0.929 . S
C446 C445 1.362 . S
C446 C447 1.366 . S
C447 C444 1.365 . S
C447 C446 1.366 . S
C447 H461 0.930 . S
C448 C445 1.378 . S
C448 N449 1.315 . S
C448 H451 0.930 . S
N449 Co429 2.194 . S
N449 C444 1.328 . S
N449 C448 1.315 . S
H450 C444 0.929 . S
H451 C448 0.930 . S
H452 C440 0.929 . S
H453 C442 0.929 . S
O454 Co429 2.351 . S
O454 C457 1.244 . S
O455 Co429 2.155 . S
O455 C457 1.240 . S
O456 Co429 2.096 . S
O456 C437 1.247 . S
C457 O454 1.244 . S
C457 O455 1.240 . S
H458 C432 0.931 . S
H459 C441 0.931 . S
H460 C445 0.929 . S
H461 C447 0.930 . S
Co462 N466 2.148 . S
Co462 N472 2.128 . S
Co462 N482 2.194 . S
Co462 O487 2.351 . S
Co462 O488 2.155 . S
Co462 O489 2.096 . S
C463 N466 1.301 1_545 S
C463 N467 1.328 . S
C463 H468 0.930 . S
C464 C465 1.333 . S
C464 N466 1.317 1_545 S
C464 H469 0.930 . S
C465 C464 1.333 . S
C465 N467 1.350 . S
C465 H491 0.931 . S
N466 Co462 2.148 . S
N466 C463 1.301 1_565 S
N466 C464 1.317 1_565 S
N467 C463 1.328 . S
N467 C465 1.350 . S
H468 C463 0.930 . S
H469 C464 0.930 . S
C470 O471 1.224 . S
C470 O489 1.247 . S
O471 C470 1.224 . S
N472 Co462 2.128 . S
N472 C473 1.355 . S
N472 C475 1.311 . S
C473 N472 1.355 . S
C473 C474 1.363 . S
C473 H485 0.929 . S
C474 C473 1.363 . S
C474 N476 1.375 . S
C474 H492 0.931 . S
C475 N472 1.311 . S
C475 N476 1.347 . S
C475 H486 0.929 . S
N476 C474 1.375 . S
N476 C475 1.347 . S
C477 C480 1.365 . S
C477 N482 1.328 . S
C477 H483 0.929 . S
C478 C479 1.362 1_565 S
C478 C481 1.378 . S
C478 H493 0.928 1_565 S
C479 C478 1.362 1_545 S
C479 C480 1.359 1_545 S
C480 C477 1.365 . S
C480 C479 1.359 1_565 S
C480 H494 0.930 . S
C481 C478 1.378 . S
C481 N482 1.315 . S
C481 H484 0.930 . S
N482 Co462 2.194 . S
N482 C477 1.328 . S
N482 C481 1.315 . S
H483 C477 0.929 . S
H484 C481 0.930 . S
H485 C473 0.929 . S
H486 C475 0.929 . S
O487 Co462 2.351 . S
O487 C490 1.244 . S
O488 Co462 2.155 . S
O488 C490 1.240 . S
O489 Co462 2.096 . S
O489 C470 1.247 . S
C490 O487 1.244 . S
C490 O488 1.240 . S
H491 C465 0.931 . S
H492 C474 0.931 . S
H493 C478 0.928 1_545 S
H494 C480 0.930 . S
Co495 N499 2.148 . S
Co495 N505 2.128 . S
Co495 N515 2.194 . S
Co495 O520 2.351 . S
Co495 O521 2.155 . S
Co495 O522 2.096 . S
C496 N499 1.301 . S
C496 N500 1.328 . S
C496 H501 0.930 . S
C497 C498 1.333 . S
C497 N499 1.317 . S
C497 H502 0.930 . S
C498 C497 1.333 . S
C498 N500 1.350 . S
C498 H524 0.931 . S
N499 Co495 2.148 . S
N499 C496 1.301 . S
N499 C497 1.317 . S
N500 C496 1.328 . S
N500 C498 1.350 . S
H501 C496 0.930 . S
H502 C497 0.930 . S
C503 O504 1.224 . S
C503 O522 1.247 . S
O504 C503 1.224 . S
N505 Co495 2.128 . S
N505 C506 1.355 . S
N505 C508 1.311 . S
C506 N505 1.355 . S
C506 C507 1.363 . S
C506 H518 0.929 . S
C507 C506 1.363 . S
C507 N509 1.375 . S
C507 H525 0.931 . S
C508 N505 1.311 . S
C508 N509 1.347 . S
C508 H519 0.929 . S
N509 C507 1.375 . S
N509 C508 1.347 . S
C510 C513 1.365 . S
C510 N515 1.328 . S
C510 H516 0.929 . S
C511 C512 1.362 . S
C511 C514 1.378 . S
C511 H526 0.929 . S
C512 C511 1.362 . S
C512 C513 1.366 . S
C513 C510 1.365 . S
C513 C512 1.366 . S
C513 H527 0.930 . S
C514 C511 1.378 . S
C514 N515 1.315 . S
C514 H517 0.930 . S
N515 Co495 2.194 . S
N515 C510 1.328 . S
N515 C514 1.315 . S
H516 C510 0.929 . S
H517 C514 0.930 . S
H518 C506 0.929 . S
H519 C508 0.929 . S
O520 Co495 2.351 . S
O520 C523 1.244 . S
O521 Co495 2.155 . S
O521 C523 1.240 . S
O522 Co495 2.096 . S
O522 C503 1.247 . S
C523 O520 1.244 . S
C523 O521 1.240 . S
H524 C498 0.931 . S
H525 C507 0.931 . S
H526 C511 0.929 . S
H527 C513 0.930 . S
Co528 N532 2.148 . S
Co528 N538 2.128 . S
Co528 N548 2.194 . S
Co528 O553 2.351 . S
Co528 O554 2.155 . S
Co528 O555 2.096 . S
C529 N532 1.301 . S
C529 N533 1.328 . S
C529 H534 0.930 . S
C530 C531 1.333 . S
C530 N532 1.317 . S
C530 H535 0.930 . S
C531 C530 1.333 . S
C531 N533 1.350 . S
C531 H557 0.931 . S
N532 Co528 2.148 . S
N532 C529 1.301 . S
N532 C530 1.317 . S
N533 C529 1.328 . S
N533 C531 1.350 . S
H534 C529 0.930 . S
H535 C530 0.930 . S
C536 O537 1.224 . S
C536 O555 1.247 . S
O537 C536 1.224 . S
N538 Co528 2.128 . S
N538 C539 1.355 . S
N538 C541 1.311 . S
C539 N538 1.355 . S
C539 C540 1.363 . S
C539 H551 0.929 . S
C540 C539 1.363 . S
C540 N542 1.375 . S
C540 H558 0.931 . S
C541 N538 1.311 . S
C541 N542 1.347 . S
C541 H552 0.929 . S
N542 C540 1.375 . S
N542 C541 1.347 . S
C543 C546 1.365 . S
C543 N548 1.328 . S
C543 H549 0.929 . S
C544 C545 1.362 . S
C544 C547 1.378 . S
C544 H559 0.929 . S
C545 C544 1.362 . S
C545 C546 1.366 . S
C546 C543 1.365 . S
C546 C545 1.366 . S
C546 H560 0.930 . S
C547 C544 1.378 . S
C547 N548 1.315 . S
C547 H550 0.930 . S
N548 Co528 2.194 . S
N548 C543 1.328 . S
N548 C547 1.315 . S
H549 C543 0.929 . S
H550 C547 0.930 . S
H551 C539 0.929 . S
H552 C541 0.929 . S
O553 Co528 2.351 . S
O553 C556 1.244 . S
O554 Co528 2.155 . S
O554 C556 1.240 . S
O555 Co528 2.096 . S
O555 C536 1.247 . S
C556 O553 1.244 . S
C556 O554 1.240 . S
H557 C531 0.931 . S
H558 C540 0.931 . S
H559 C544 0.929 . S
H560 C546 0.930 . S
Co561 N565 2.148 . S
Co561 N571 2.128 . S
Co561 N581 2.194 . S
Co561 O586 2.351 . S
Co561 O587 2.155 . S
Co561 O588 2.096 . S
C562 N565 1.301 . S
C562 N566 1.328 . S
C562 H567 0.930 . S
C563 C564 1.333 . S
C563 N565 1.317 . S
C563 H568 0.930 . S
C564 C563 1.333 . S
C564 N566 1.350 . S
C564 H590 0.931 . S
N565 Co561 2.148 . S
N565 C562 1.301 . S
N565 C563 1.317 . S
N566 C562 1.328 . S
N566 C564 1.350 . S
H567 C562 0.930 . S
H568 C563 0.930 . S
C569 O570 1.224 . S
C569 O588 1.247 . S
O570 C569 1.224 . S
N571 Co561 2.128 . S
N571 C572 1.355 . S
N571 C574 1.311 . S
C572 N571 1.355 . S
C572 C573 1.363 . S
C572 H584 0.929 . S
C573 C572 1.363 . S
C573 N575 1.375 . S
C573 H591 0.931 . S
C574 N571 1.311 . S
C574 N575 1.347 . S
C574 H585 0.929 . S
N575 C573 1.375 . S
N575 C574 1.347 . S
C576 C579 1.365 . S
C576 N581 1.328 . S
C576 H582 0.929 . S
C577 C578 1.362 . S
C577 C580 1.378 . S
C577 H592 0.929 . S
C578 C577 1.362 . S
C578 C579 1.366 . S
C579 C576 1.365 . S
C579 C578 1.366 . S
C579 H593 0.930 . S
C580 C577 1.378 . S
C580 N581 1.315 . S
C580 H583 0.930 . S
N581 Co561 2.194 . S
N581 C576 1.328 . S
N581 C580 1.315 . S
H582 C576 0.929 . S
H583 C580 0.930 . S
H584 C572 0.929 . S
H585 C574 0.929 . S
O586 Co561 2.351 . S
O586 C589 1.244 . S
O587 Co561 2.155 . S
O587 C589 1.240 . S
O588 Co561 2.096 . S
O588 C569 1.247 . S
C589 O586 1.244 . S
C589 O587 1.240 . S
H590 C564 0.931 . S
H591 C573 0.931 . S
H592 C577 0.929 . S
H593 C579 0.930 . S
Co594 N598 2.148 . S
Co594 N604 2.128 . S
Co594 N614 2.194 . S
Co594 O619 2.351 . S
Co594 O620 2.155 . S
Co594 O621 2.096 1_655 S
C595 N598 1.301 . S
C595 N599 1.328 . S
C595 H600 0.930 . S
C596 C597 1.333 . S
C596 N598 1.317 . S
C596 H601 0.930 . S
C597 C596 1.333 . S
C597 N599 1.350 . S
C597 H623 0.931 . S
N598 Co594 2.148 . S
N598 C595 1.301 . S
N598 C596 1.317 . S
N599 C595 1.328 . S
N599 C597 1.350 . S
H600 C595 0.930 . S
H601 C596 0.930 . S
C602 O603 1.224 . S
C602 O621 1.247 . S
O603 C602 1.224 . S
N604 Co594 2.128 . S
N604 C605 1.355 . S
N604 C607 1.311 1_655 S
C605 N604 1.355 . S
C605 C606 1.363 . S
C605 H617 0.929 . S
C606 C605 1.363 . S
C606 N608 1.375 1_655 S
C606 H624 0.931 . S
C607 N604 1.311 1_455 S
C607 N608 1.347 . S
C607 H618 0.929 . S
N608 C606 1.375 1_455 S
N608 C607 1.347 . S
C609 C612 1.365 . S
C609 N614 1.328 . S
C609 H615 0.929 . S
C610 C611 1.362 . S
C610 C613 1.378 . S
C610 H625 0.929 1_655 S
C611 C610 1.362 . S
C611 C612 1.366 . S
C612 C609 1.365 . S
C612 C611 1.366 . S
C612 H626 0.930 . S
C613 C610 1.378 . S
C613 N614 1.315 . S
C613 H616 0.930 1_655 S
N614 Co594 2.194 . S
N614 C609 1.328 . S
N614 C613 1.315 . S
H615 C609 0.929 . S
H616 C613 0.930 1_455 S
H617 C605 0.929 . S
H618 C607 0.929 . S
O619 Co594 2.351 . S
O619 C622 1.244 . S
O620 Co594 2.155 . S
O620 C622 1.240 . S
O621 Co594 2.096 1_455 S
O621 C602 1.247 . S
C622 O619 1.244 . S
C622 O620 1.240 . S
H623 C597 0.931 . S
H624 C606 0.931 . S
H625 C610 0.929 1_455 S
H626 C612 0.930 . S
Co627 N631 2.148 . S
Co627 N637 2.128 . S
Co627 N647 2.194 . S
Co627 O652 2.351 . S
Co627 O653 2.155 . S
Co627 O654 2.096 . S
C628 N631 1.301 . S
C628 N632 1.328 . S
C628 H633 0.930 . S
C629 C630 1.333 . S
C629 N631 1.317 . S
C629 H634 0.930 . S
C630 C629 1.333 . S
C630 N632 1.350 . S
C630 H656 0.931 . S
N631 Co627 2.148 . S
N631 C628 1.301 . S
N631 C629 1.317 . S
N632 C628 1.328 . S
N632 C630 1.350 . S
H633 C628 0.930 . S
H634 C629 0.930 . S
C635 O636 1.224 . S
C635 O654 1.247 . S
O636 C635 1.224 . S
N637 Co627 2.128 . S
N637 C638 1.355 . S
N637 C640 1.311 . S
C638 N637 1.355 . S
C638 C639 1.363 . S
C638 H650 0.929 . S
C639 C638 1.363 . S
C639 N641 1.375 . S
C639 H657 0.931 . S
C640 N637 1.311 . S
C640 N641 1.347 . S
C640 H651 0.929 . S
N641 C639 1.375 . S
N641 C640 1.347 . S
C642 C645 1.365 . S
C642 N647 1.328 . S
C642 H648 0.929 . S
C643 C644 1.362 . S
C643 C646 1.378 . S
C643 H658 0.929 . S
C644 C643 1.362 . S
C644 C645 1.366 . S
C645 C642 1.365 . S
C645 C644 1.366 . S
C645 H659 0.930 . S
C646 C643 1.378 . S
C646 N647 1.315 . S
C646 H649 0.930 . S
N647 Co627 2.194 . S
N647 C642 1.328 . S
N647 C646 1.315 . S
H648 C642 0.929 . S
H649 C646 0.930 . S
H650 C638 0.929 . S
H651 C640 0.929 . S
O652 Co627 2.351 . S
O652 C655 1.244 . S
O653 Co627 2.155 . S
O653 C655 1.240 . S
O654 Co627 2.096 . S
O654 C635 1.247 . S
C655 O652 1.244 . S
C655 O653 1.240 . S
H656 C630 0.931 . S
H657 C639 0.931 . S
H658 C643 0.929 . S
H659 C645 0.930 . S
Co660 N664 2.148 . S
Co660 N670 2.128 . S
Co660 N680 2.194 . S
Co660 O685 2.351 . S
Co660 O686 2.155 . S
Co660 O687 2.096 . S
C661 N664 1.301 . S
C661 N665 1.328 . S
C661 H666 0.930 . S
C662 C663 1.333 . S
C662 N664 1.317 . S
C662 H667 0.930 . S
C663 C662 1.333 . S
C663 N665 1.350 . S
C663 H689 0.931 . S
N664 Co660 2.148 . S
N664 C661 1.301 . S
N664 C662 1.317 . S
N665 C661 1.328 . S
N665 C663 1.350 . S
H666 C661 0.930 . S
H667 C662 0.930 . S
C668 O669 1.224 . S
C668 O687 1.247 . S
O669 C668 1.224 . S
N670 Co660 2.128 . S
N670 C671 1.355 . S
N670 C673 1.311 . S
C671 N670 1.355 . S
C671 C672 1.363 . S
C671 H683 0.929 . S
C672 C671 1.363 . S
C672 N674 1.375 . S
C672 H690 0.931 . S
C673 N670 1.311 . S
C673 N674 1.347 . S
C673 H684 0.929 . S
N674 C672 1.375 . S
N674 C673 1.347 . S
C675 C678 1.365 . S
C675 N680 1.328 . S
C675 H681 0.929 . S
C676 C677 1.362 . S
C676 C679 1.378 . S
C676 H691 0.929 . S
C677 C676 1.362 . S
C677 C678 1.366 . S
C678 C675 1.365 . S
C678 C677 1.366 . S
C678 H692 0.930 . S
C679 C676 1.378 . S
C679 N680 1.315 . S
C679 H682 0.930 . S
N680 Co660 2.194 . S
N680 C675 1.328 . S
N680 C679 1.315 . S
H681 C675 0.929 . S
H682 C679 0.930 . S
H683 C671 0.929 . S
H684 C673 0.929 . S
O685 Co660 2.351 . S
O685 C688 1.244 . S
O686 Co660 2.155 . S
O686 C688 1.240 . S
O687 Co660 2.096 . S
O687 C668 1.247 . S
C688 O685 1.244 . S
C688 O686 1.240 . S
H689 C663 0.931 . S
H690 C672 0.931 . S
H691 C676 0.929 . S
H692 C678 0.930 . S
Co693 N697 2.148 . S
Co693 N703 2.128 . S
Co693 N713 2.194 . S
Co693 O718 2.351 . S
Co693 O719 2.155 . S
Co693 O720 2.096 . S
C694 N697 1.301 . S
C694 N698 1.328 . S
C694 H699 0.930 . S
C695 C696 1.333 . S
C695 N697 1.317 . S
C695 H700 0.930 . S
C696 C695 1.333 . S
C696 N698 1.350 . S
C696 H722 0.931 . S
N697 Co693 2.148 . S
N697 C694 1.301 . S
N697 C695 1.317 . S
N698 C694 1.328 . S
N698 C696 1.350 . S
H699 C694 0.930 . S
H700 C695 0.930 . S
C701 O702 1.224 . S
C701 O720 1.247 . S
O702 C701 1.224 . S
N703 Co693 2.128 . S
N703 C704 1.355 . S
N703 C706 1.311 . S
C704 N703 1.355 . S
C704 C705 1.363 . S
C704 H716 0.929 . S
C705 C704 1.363 . S
C705 N707 1.375 . S
C705 H723 0.931 . S
C706 N703 1.311 . S
C706 N707 1.347 . S
C706 H717 0.929 . S
N707 C705 1.375 . S
N707 C706 1.347 . S
C708 C711 1.365 . S
C708 N713 1.328 . S
C708 H714 0.929 . S
C709 C710 1.362 . S
C709 C712 1.378 . S
C709 H724 0.929 . S
C710 C709 1.362 . S
C710 C711 1.366 . S
C711 C708 1.365 . S
C711 C710 1.366 . S
C711 H725 0.930 . S
C712 C709 1.378 . S
C712 N713 1.315 . S
C712 H715 0.930 . S
N713 Co693 2.194 . S
N713 C708 1.328 . S
N713 C712 1.315 . S
H714 C708 0.929 . S
H715 C712 0.930 . S
H716 C704 0.929 . S
H717 C706 0.929 . S
O718 Co693 2.351 . S
O718 C721 1.244 . S
O719 Co693 2.155 . S
O719 C721 1.240 . S
O720 Co693 2.096 . S
O720 C701 1.247 . S
C721 O718 1.244 . S
C721 O719 1.240 . S
H722 C696 0.931 . S
H723 C705 0.931 . S
H724 C709 0.929 . S
H725 C711 0.930 . S
Co726 N730 2.148 . S
Co726 N736 2.128 . S
Co726 N746 2.194 . S
Co726 O751 2.351 . S
Co726 O752 2.155 . S
Co726 O753 2.096 1_655 S
C727 N730 1.301 . S
C727 N731 1.328 . S
C727 H732 0.930 . S
C728 C729 1.333 . S
C728 N730 1.317 . S
C728 H733 0.930 . S
C729 C728 1.333 . S
C729 N731 1.350 . S
C729 H755 0.931 . S
N730 Co726 2.148 . S
N730 C727 1.301 . S
N730 C728 1.317 . S
N731 C727 1.328 . S
N731 C729 1.350 . S
H732 C727 0.930 . S
H733 C728 0.930 . S
C734 O735 1.224 . S
C734 O753 1.247 . S
O735 C734 1.224 . S
N736 Co726 2.128 . S
N736 C737 1.355 . S
N736 C739 1.311 1_655 S
C737 N736 1.355 . S
C737 C738 1.363 . S
C737 H749 0.929 . S
C738 C737 1.363 . S
C738 N740 1.375 1_655 S
C738 H756 0.931 . S
C739 N736 1.311 1_455 S
C739 N740 1.347 . S
C739 H750 0.929 . S
N740 C738 1.375 1_455 S
N740 C739 1.347 . S
C741 C744 1.365 . S
C741 N746 1.328 . S
C741 H747 0.929 . S
C742 C743 1.362 . S
C742 C745 1.378 . S
C742 H757 0.929 1_655 S
C743 C742 1.362 . S
C743 C744 1.366 . S
C744 C741 1.365 . S
C744 C743 1.366 . S
C744 H758 0.930 . S
C745 C742 1.378 . S
C745 N746 1.315 . S
C745 H748 0.930 1_655 S
N746 Co726 2.194 . S
N746 C741 1.328 . S
N746 C745 1.315 . S
H747 C741 0.929 . S
H748 C745 0.930 1_455 S
H749 C737 0.929 . S
H750 C739 0.929 . S
O751 Co726 2.351 . S
O751 C754 1.244 . S
O752 Co726 2.155 . S
O752 C754 1.240 . S
O753 Co726 2.096 1_455 S
O753 C734 1.247 . S
C754 O751 1.244 . S
C754 O752 1.240 . S
H755 C729 0.931 . S
H756 C738 0.931 . S
H757 C742 0.929 1_455 S
H758 C744 0.930 . S
Co759 N763 2.148 . S
Co759 N769 2.128 . S
Co759 N779 2.194 . S
Co759 O784 2.351 . S
Co759 O785 2.155 . S
Co759 O786 2.096 . S
C760 N763 1.301 . S
C760 N764 1.328 . S
C760 H765 0.930 . S
C761 C762 1.333 . S
C761 N763 1.317 . S
C761 H766 0.930 . S
C762 C761 1.333 . S
C762 N764 1.350 . S
C762 H788 0.931 . S
N763 Co759 2.148 . S
N763 C760 1.301 . S
N763 C761 1.317 . S
N764 C760 1.328 . S
N764 C762 1.350 . S
H765 C760 0.930 . S
H766 C761 0.930 . S
C767 O768 1.224 . S
C767 O786 1.247 . S
O768 C767 1.224 . S
N769 Co759 2.128 . S
N769 C770 1.355 . S
N769 C772 1.311 . S
C770 N769 1.355 . S
C770 C771 1.363 . S
C770 H782 0.929 . S
C771 C770 1.363 . S
C771 N773 1.375 . S
C771 H789 0.931 . S
C772 N769 1.311 . S
C772 N773 1.347 . S
C772 H783 0.929 . S
N773 C771 1.375 . S
N773 C772 1.347 . S
C774 C777 1.365 . S
C774 N779 1.328 . S
C774 H780 0.929 . S
C775 C776 1.362 . S
C775 C778 1.378 . S
C775 H790 0.929 . S
C776 C775 1.362 . S
C776 C777 1.366 . S
C777 C774 1.365 . S
C777 C776 1.366 . S
C777 H791 0.930 . S
C778 C775 1.378 . S
C778 N779 1.315 . S
C778 H781 0.930 . S
N779 Co759 2.194 . S
N779 C774 1.328 . S
N779 C778 1.315 . S
H780 C774 0.929 . S
H781 C778 0.930 . S
H782 C770 0.929 . S
H783 C772 0.929 . S
O784 Co759 2.351 . S
O784 C787 1.244 . S
O785 Co759 2.155 . S
O785 C787 1.240 . S
O786 Co759 2.096 . S
O786 C767 1.247 . S
C787 O784 1.244 . S
C787 O785 1.240 . S
H788 C762 0.931 . S
H789 C771 0.931 . S
H790 C775 0.929 . S
H791 C777 0.930 . S
Co792 N796 2.148 . S
Co792 N802 2.128 . S
Co792 N812 2.194 . S
Co792 O817 2.351 . S
Co792 O818 2.155 . S
Co792 O819 2.096 . S
C793 N796 1.301 . S
C793 N797 1.328 . S
C793 H798 0.930 . S
C794 C795 1.333 . S
C794 N796 1.317 . S
C794 H799 0.930 . S
C795 C794 1.333 . S
C795 N797 1.350 . S
C795 H821 0.931 . S
N796 Co792 2.148 . S
N796 C793 1.301 . S
N796 C794 1.317 . S
N797 C793 1.328 . S
N797 C795 1.350 . S
H798 C793 0.930 . S
H799 C794 0.930 . S
C800 O801 1.224 . S
C800 O819 1.247 . S
O801 C800 1.224 . S
N802 Co792 2.128 . S
N802 C803 1.355 . S
N802 C805 1.311 . S
C803 N802 1.355 . S
C803 C804 1.363 . S
C803 H815 0.929 . S
C804 C803 1.363 . S
C804 N806 1.375 . S
C804 H822 0.931 . S
C805 N802 1.311 . S
C805 N806 1.347 . S
C805 H816 0.929 . S
N806 C804 1.375 . S
N806 C805 1.347 . S
C807 C810 1.365 . S
C807 N812 1.328 . S
C807 H813 0.929 . S
C808 C809 1.362 . S
C808 C811 1.378 . S
C808 H823 0.929 . S
C809 C808 1.362 . S
C809 C810 1.366 . S
C810 C807 1.365 . S
C810 C809 1.366 . S
C810 H824 0.930 . S
C811 C808 1.378 . S
C811 N812 1.315 . S
C811 H814 0.930 . S
N812 Co792 2.194 . S
N812 C807 1.328 . S
N812 C811 1.315 . S
H813 C807 0.929 . S
H814 C811 0.930 . S
H815 C803 0.929 . S
H816 C805 0.929 . S
O817 Co792 2.351 . S
O817 C820 1.244 . S
O818 Co792 2.155 . S
O818 C820 1.240 . S
O819 Co792 2.096 . S
O819 C800 1.247 . S
C820 O817 1.244 . S
C820 O818 1.240 . S
H821 C795 0.931 . S
H822 C804 0.931 . S
H823 C808 0.929 . S
H824 C810 0.930 . S
Co825 N829 2.148 . S
Co825 N835 2.128 . S
Co825 N845 2.194 . S
Co825 O850 2.351 . S
Co825 O851 2.155 . S
Co825 O852 2.096 . S
C826 N829 1.301 . S
C826 N830 1.328 . S
C826 H831 0.930 . S
C827 C828 1.333 . S
C827 N829 1.317 . S
C827 H832 0.930 . S
C828 C827 1.333 . S
C828 N830 1.350 . S
C828 H854 0.931 . S
N829 Co825 2.148 . S
N829 C826 1.301 . S
N829 C827 1.317 . S
N830 C826 1.328 . S
N830 C828 1.350 . S
H831 C826 0.930 . S
H832 C827 0.930 . S
C833 O834 1.224 . S
C833 O852 1.247 . S
O834 C833 1.224 . S
N835 Co825 2.128 . S
N835 C836 1.355 . S
N835 C838 1.311 . S
C836 N835 1.355 . S
C836 C837 1.363 . S
C836 H848 0.929 . S
C837 C836 1.363 . S
C837 N839 1.375 . S
C837 H855 0.931 . S
C838 N835 1.311 . S
C838 N839 1.347 . S
C838 H849 0.929 . S
N839 C837 1.375 . S
N839 C838 1.347 . S
C840 C843 1.365 . S
C840 N845 1.328 . S
C840 H846 0.929 . S
C841 C842 1.362 . S
C841 C844 1.378 . S
C841 H856 0.929 . S
C842 C841 1.362 . S
C842 C843 1.366 . S
C843 C840 1.365 . S
C843 C842 1.366 . S
C843 H857 0.930 . S
C844 C841 1.378 . S
C844 N845 1.315 . S
C844 H847 0.930 . S
N845 Co825 2.194 . S
N845 C840 1.328 . S
N845 C844 1.315 . S
H846 C840 0.929 . S
H847 C844 0.930 . S
H848 C836 0.929 . S
H849 C838 0.929 . S
O850 Co825 2.351 . S
O850 C853 1.244 . S
O851 Co825 2.155 . S
O851 C853 1.240 . S
O852 Co825 2.096 . S
O852 C833 1.247 . S
C853 O850 1.244 . S
C853 O851 1.240 . S
H854 C828 0.931 . S
H855 C837 0.931 . S
H856 C841 0.929 . S
H857 C843 0.930 . S
Co858 N862 2.148 . S
Co858 N868 2.128 . S
Co858 N878 2.194 . S
Co858 O883 2.351 . S
Co858 O884 2.155 . S
Co858 O885 2.096 1_455 S
C859 N862 1.301 . S
C859 N863 1.328 . S
C859 H864 0.930 . S
C860 C861 1.333 . S
C860 N862 1.317 . S
C860 H865 0.930 . S
C861 C860 1.333 . S
C861 N863 1.350 . S
C861 H887 0.931 . S
N862 Co858 2.148 . S
N862 C859 1.301 . S
N862 C860 1.317 . S
N863 C859 1.328 . S
N863 C861 1.350 . S
H864 C859 0.930 . S
H865 C860 0.930 . S
C866 O867 1.224 . S
C866 O885 1.247 . S
O867 C866 1.224 . S
N868 Co858 2.128 . S
N868 C869 1.355 . S
N868 C871 1.311 1_455 S
C869 N868 1.355 . S
C869 C870 1.363 . S
C869 H881 0.929 . S
C870 C869 1.363 . S
C870 N872 1.375 1_455 S
C870 H888 0.931 . S
C871 N868 1.311 1_655 S
C871 N872 1.347 . S
C871 H882 0.929 . S
N872 C870 1.375 1_655 S
N872 C871 1.347 . S
C873 C876 1.365 . S
C873 N878 1.328 . S
C873 H879 0.929 . S
C874 C875 1.362 . S
C874 C877 1.378 . S
C874 H889 0.929 1_455 S
C875 C874 1.362 . S
C875 C876 1.366 . S
C876 C873 1.365 . S
C876 C875 1.366 . S
C876 H890 0.930 . S
C877 C874 1.378 . S
C877 N878 1.315 . S
C877 H880 0.930 1_455 S
N878 Co858 2.194 . S
N878 C873 1.328 . S
N878 C877 1.315 . S
H879 C873 0.929 . S
H880 C877 0.930 1_655 S
H881 C869 0.929 . S
H882 C871 0.929 . S
O883 Co858 2.351 . S
O883 C886 1.244 . S
O884 Co858 2.155 . S
O884 C886 1.240 . S
O885 Co858 2.096 1_655 S
O885 C866 1.247 . S
C886 O883 1.244 . S
C886 O884 1.240 . S
H887 C861 0.931 . S
H888 C870 0.931 . S
H889 C874 0.929 1_655 S
H890 C876 0.930 . S
Co891 N895 2.148 . S
Co891 N901 2.128 . S
Co891 N911 2.194 . S
Co891 O916 2.351 . S
Co891 O917 2.155 . S
Co891 O918 2.096 . S
C892 N895 1.301 . S
C892 N896 1.328 . S
C892 H897 0.930 . S
C893 C894 1.333 . S
C893 N895 1.317 . S
C893 H898 0.930 . S
C894 C893 1.333 . S
C894 N896 1.350 . S
C894 H920 0.931 . S
N895 Co891 2.148 . S
N895 C892 1.301 . S
N895 C893 1.317 . S
N896 C892 1.328 . S
N896 C894 1.350 . S
H897 C892 0.930 . S
H898 C893 0.930 . S
C899 O900 1.224 . S
C899 O918 1.247 . S
O900 C899 1.224 . S
N901 Co891 2.128 . S
N901 C902 1.355 . S
N901 C904 1.311 . S
C902 N901 1.355 . S
C902 C903 1.363 . S
C902 H914 0.929 . S
C903 C902 1.363 . S
C903 N905 1.375 . S
C903 H921 0.931 . S
C904 N901 1.311 . S
C904 N905 1.347 . S
C904 H915 0.929 . S
N905 C903 1.375 . S
N905 C904 1.347 . S
C906 C909 1.365 . S
C906 N911 1.328 . S
C906 H912 0.929 . S
C907 C908 1.362 . S
C907 C910 1.378 . S
C907 H922 0.929 . S
C908 C907 1.362 . S
C908 C909 1.366 . S
C909 C906 1.365 . S
C909 C908 1.366 . S
C909 H923 0.930 . S
C910 C907 1.378 . S
C910 N911 1.315 . S
C910 H913 0.930 . S
N911 Co891 2.194 . S
N911 C906 1.328 . S
N911 C910 1.315 . S
H912 C906 0.929 . S
H913 C910 0.930 . S
H914 C902 0.929 . S
H915 C904 0.929 . S
O916 Co891 2.351 . S
O916 C919 1.244 . S
O917 Co891 2.155 . S
O917 C919 1.240 . S
O918 Co891 2.096 . S
O918 C899 1.247 . S
C919 O916 1.244 . S
C919 O917 1.240 . S
H920 C894 0.931 . S
H921 C903 0.931 . S
H922 C907 0.929 . S
H923 C909 0.930 . S
Co924 N928 2.148 . S
Co924 N934 2.128 . S
Co924 N944 2.194 . S
Co924 O949 2.351 . S
Co924 O950 2.155 . S
Co924 O951 2.096 . S
C925 N928 1.301 . S
C925 N929 1.328 . S
C925 H930 0.930 . S
C926 C927 1.333 . S
C926 N928 1.317 . S
C926 H931 0.930 . S
C927 C926 1.333 . S
C927 N929 1.350 . S
C927 H953 0.931 . S
N928 Co924 2.148 . S
N928 C925 1.301 . S
N928 C926 1.317 . S
N929 C925 1.328 . S
N929 C927 1.350 . S
H930 C925 0.930 . S
H931 C926 0.930 . S
C932 O933 1.224 . S
C932 O951 1.247 . S
O933 C932 1.224 . S
N934 Co924 2.128 . S
N934 C935 1.355 . S
N934 C937 1.311 . S
C935 N934 1.355 . S
C935 C936 1.363 . S
C935 H947 0.929 . S
C936 C935 1.363 . S
C936 N938 1.375 . S
C936 H954 0.931 . S
C937 N934 1.311 . S
C937 N938 1.347 . S
C937 H948 0.929 . S
N938 C936 1.375 . S
N938 C937 1.347 . S
C939 C942 1.365 . S
C939 N944 1.328 . S
C939 H945 0.929 . S
C940 C941 1.362 . S
C940 C943 1.378 . S
C940 H955 0.929 . S
C941 C940 1.362 . S
C941 C942 1.366 . S
C942 C939 1.365 . S
C942 C941 1.366 . S
C942 H956 0.930 . S
C943 C940 1.378 . S
C943 N944 1.315 . S
C943 H946 0.930 . S
N944 Co924 2.194 . S
N944 C939 1.328 . S
N944 C943 1.315 . S
H945 C939 0.929 . S
H946 C943 0.930 . S
H947 C935 0.929 . S
H948 C937 0.929 . S
O949 Co924 2.351 . S
O949 C952 1.244 . S
O950 Co924 2.155 . S
O950 C952 1.240 . S
O951 Co924 2.096 . S
O951 C932 1.247 . S
C952 O949 1.244 . S
C952 O950 1.240 . S
H953 C927 0.931 . S
H954 C936 0.931 . S
H955 C940 0.929 . S
H956 C942 0.930 . S
Co957 N961 2.148 . S
Co957 N967 2.128 . S
Co957 N977 2.194 . S
Co957 O982 2.351 . S
Co957 O983 2.155 . S
Co957 O984 2.096 . S
C958 N961 1.301 . S
C958 N962 1.328 . S
C958 H963 0.930 . S
C959 C960 1.333 . S
C959 N961 1.317 . S
C959 H964 0.930 . S
C960 C959 1.333 . S
C960 N962 1.350 . S
C960 H986 0.931 . S
N961 Co957 2.148 . S
N961 C958 1.301 . S
N961 C959 1.317 . S
N962 C958 1.328 . S
N962 C960 1.350 . S
H963 C958 0.930 . S
H964 C959 0.930 . S
C965 O966 1.224 . S
C965 O984 1.247 . S
O966 C965 1.224 . S
N967 Co957 2.128 . S
N967 C968 1.355 . S
N967 C970 1.311 . S
C968 N967 1.355 . S
C968 C969 1.363 . S
C968 H980 0.929 . S
C969 C968 1.363 . S
C969 N971 1.375 . S
C969 H987 0.931 . S
C970 N967 1.311 . S
C970 N971 1.347 . S
C970 H981 0.929 . S
N971 C969 1.375 . S
N971 C970 1.347 . S
C972 C975 1.365 . S
C972 N977 1.328 . S
C972 H978 0.929 . S
C973 C974 1.362 . S
C973 C976 1.378 . S
C973 H988 0.929 . S
C974 C973 1.362 . S
C974 C975 1.366 . S
C975 C972 1.365 . S
C975 C974 1.366 . S
C975 H989 0.930 . S
C976 C973 1.378 . S
C976 N977 1.315 . S
C976 H979 0.930 . S
N977 Co957 2.194 . S
N977 C972 1.328 . S
N977 C976 1.315 . S
H978 C972 0.929 . S
H979 C976 0.930 . S
H980 C968 0.929 . S
H981 C970 0.929 . S
O982 Co957 2.351 . S
O982 C985 1.244 . S
O983 Co957 2.155 . S
O983 C985 1.240 . S
O984 Co957 2.096 . S
O984 C965 1.247 . S
C985 O982 1.244 . S
C985 O983 1.240 . S
H986 C960 0.931 . S
H987 C969 0.931 . S
H988 C973 0.929 . S
H989 C975 0.930 . S
Co990 N994 2.148 . S
Co990 N1000 2.128 . S
Co990 N1010 2.194 . S
Co990 O1015 2.351 . S
Co990 O1016 2.155 . S
Co990 O1017 2.096 1_455 S
C991 N994 1.301 . S
C991 N995 1.328 . S
C991 H996 0.930 . S
C992 C993 1.333 . S
C992 N994 1.317 . S
C992 H997 0.930 . S
C993 C992 1.333 . S
C993 N995 1.350 . S
C993 H1019 0.931 . S
N994 Co990 2.148 . S
N994 C991 1.301 . S
N994 C992 1.317 . S
N995 C991 1.328 . S
N995 C993 1.350 . S
H996 C991 0.930 . S
H997 C992 0.930 . S
C998 O999 1.224 . S
C998 O1017 1.247 . S
O999 C998 1.224 . S
N1000 Co990 2.128 . S
N1000 C1001 1.355 . S
N1000 C1003 1.311 1_455 S
C1001 N1000 1.355 . S
C1001 C1002 1.363 . S
C1001 H1013 0.929 . S
C1002 C1001 1.363 . S
C1002 N1004 1.375 1_455 S
C1002 H1020 0.931 . S
C1003 N1000 1.311 1_655 S
C1003 N1004 1.347 . S
C1003 H1014 0.929 . S
N1004 C1002 1.375 1_655 S
N1004 C1003 1.347 . S
C1005 C1008 1.365 . S
C1005 N1010 1.328 . S
C1005 H1011 0.929 . S
C1006 C1007 1.362 . S
C1006 C1009 1.378 . S
C1006 H1021 0.929 1_455 S
C1007 C1006 1.362 . S
C1007 C1008 1.366 . S
C1008 C1005 1.365 . S
C1008 C1007 1.366 . S
C1008 H1022 0.930 . S
C1009 C1006 1.378 . S
C1009 N1010 1.315 . S
C1009 H1012 0.930 1_455 S
N1010 Co990 2.194 . S
N1010 C1005 1.328 . S
N1010 C1009 1.315 . S
H1011 C1005 0.929 . S
H1012 C1009 0.930 1_655 S
H1013 C1001 0.929 . S
H1014 C1003 0.929 . S
O1015 Co990 2.351 . S
O1015 C1018 1.244 . S
O1016 Co990 2.155 . S
O1016 C1018 1.240 . S
O1017 Co990 2.096 1_655 S
O1017 C998 1.247 . S
C1018 O1015 1.244 . S
C1018 O1016 1.240 . S
H1019 C993 0.931 . S
H1020 C1002 0.931 . S
H1021 C1006 0.929 1_655 S
H1022 C1008 0.930 . S
Co1023 N1027 2.148 . S
Co1023 N1033 2.128 . S
Co1023 N1043 2.194 . S
Co1023 O1048 2.351 . S
Co1023 O1049 2.155 . S
Co1023 O1050 2.096 . S
C1024 N1027 1.301 . S
C1024 N1028 1.328 . S
C1024 H1029 0.930 . S
C1025 C1026 1.333 . S
C1025 N1027 1.317 . S
C1025 H1030 0.930 . S
C1026 C1025 1.333 . S
C1026 N1028 1.350 . S
C1026 H1052 0.931 . S
N1027 Co1023 2.148 . S
N1027 C1024 1.301 . S
N1027 C1025 1.317 . S
N1028 C1024 1.328 . S
N1028 C1026 1.350 . S
H1029 C1024 0.930 . S
H1030 C1025 0.930 . S
C1031 O1032 1.224 . S
C1031 O1050 1.247 . S
O1032 C1031 1.224 . S
N1033 Co1023 2.128 . S
N1033 C1034 1.355 . S
N1033 C1036 1.311 . S
C1034 N1033 1.355 . S
C1034 C1035 1.363 . S
C1034 H1046 0.929 . S
C1035 C1034 1.363 . S
C1035 N1037 1.375 . S
C1035 H1053 0.931 . S
C1036 N1033 1.311 . S
C1036 N1037 1.347 . S
C1036 H1047 0.929 . S
N1037 C1035 1.375 . S
N1037 C1036 1.347 . S
C1038 C1041 1.365 . S
C1038 N1043 1.328 . S
C1038 H1044 0.929 . S
C1039 C1040 1.362 . S
C1039 C1042 1.378 . S
C1039 H1054 0.929 . S
C1040 C1039 1.362 . S
C1040 C1041 1.366 . S
C1041 C1038 1.365 . S
C1041 C1040 1.366 . S
C1041 H1055 0.930 . S
C1042 C1039 1.378 . S
C1042 N1043 1.315 . S
C1042 H1045 0.930 . S
N1043 Co1023 2.194 . S
N1043 C1038 1.328 . S
N1043 C1042 1.315 . S
H1044 C1038 0.929 . S
H1045 C1042 0.930 . S
H1046 C1034 0.929 . S
H1047 C1036 0.929 . S
O1048 Co1023 2.351 . S
O1048 C1051 1.244 . S
O1049 Co1023 2.155 . S
O1049 C1051 1.240 . S
O1050 Co1023 2.096 . S
O1050 C1031 1.247 . S
C1051 O1048 1.244 . S
C1051 O1049 1.240 . S
H1052 C1026 0.931 . S
H1053 C1035 0.931 . S
H1054 C1039 0.929 . S
H1055 C1041 0.930 . S
C899 C28 1.719 . S
C272 C61 1.718 . S
C833 C94 1.719 . S
C127 C338 1.718 . S
C965 C160 1.719 . S
C470 C193 1.718 . S
C226 C1031 1.719 . S
C259 C404 1.718 . S
C635 C292 1.719 . S
C8 C325 1.718 . S
C358 C569 1.719 . S
C391 C74 1.718 . S
C424 C701 1.719 . S
C457 C206 1.718 . S
C767 C490 1.719 . S
C140 C523 1.718 . S
C371 C556 1.719 . S
C589 C800 1.718 . S
C305 C622 1.719 . S
C655 C866 1.718 . S
C437 C688 1.719 . S
C998 C721 1.718 . S
C503 C754 1.719 . S
C787 C932 1.718 . S
C820 C107 1.719 . S
C536 C853 1.718 . S
C41 C886 1.719 . S
C919 C602 1.718 . S
C952 C173 1.719 . S
C985 C734 1.718 . S
C239 C1018 1.719 . S
C1051 C668 1.718 . S
N5 N170 1.989 . S
N203 N38 1.989 . S
N236 N71 1.989 . S
N104 N137 1.989 . S
N269 N434 1.989 . S
N302 N467 1.989 . S
N335 N500 1.989 . S
N368 N401 1.989 . S
N698 N533 1.989 . S
N566 N731 1.989 . S
N599 N764 1.989 . S
N665 N632 1.989 . S
N962 N797 1.989 . S
N995 N830 1.989 . S
N1028 N863 1.989 . S
N929 N896 1.989 . S
C17 C149 1.440 1_565 S
C50 C182 1.441 . S
C215 C83 1.440 1_565 S
C248 C116 1.441 1_556 S
C281 C413 1.440 1_545 S
C446 C314 1.441 . S
C347 C479 1.440 1_565 S
C512 C380 1.441 1_554 S
C545 C677 1.441 . S
C578 C710 1.441 1_554 S
C611 C743 1.441 . S
C644 C776 1.441 . S
C941 C809 1.441 . S
C842 C974 1.441 1_556 S
C875 C1007 1.441 . S
C908 C1040 1.441 . S
N14 N608 1.727 1_655 S
N641 N47 1.727 1_655 S
N80 N542 1.728 . S
N113 N575 1.727 . S
N740 N146 1.727 1_455 S
N773 N179 1.727 . S
N212 N674 1.728 . S
N245 N707 1.727 1_455 S
N278 N872 1.727 1_455 S
N905 N311 1.727 1_455 S
N806 N344 1.728 . S
N377 N839 1.727 . S
N410 N1004 1.727 1_455 S
N443 N1037 1.727 . S
N476 N938 1.728 . S
N509 N971 1.727 1_655 S
