# Generated by pormake.
# Topology ure, (4)-cn, num edge types: 1
# Building blocks:
#     Node 0, Type 0, BuildingBlock: GALJAG_clean_sbu_0, # of connection points: 4
#     Node 1, Type 0, BuildingBlock: GALJAG_clean_sbu_0, # of connection points: 4
#     Node 2, Type 0, BuildingBlock: GALJAG_clean_sbu_0, # of connection points: 4
#     Node 3, Type 0, BuildingBlock: GALJAG_clean_sbu_0, # of connection points: 4
#     Node 4, Type 0, BuildingBlock: GALJAG_clean_sbu_0, # of connection points: 4
#     Node 5, Type 0, BuildingBlock: GALJAG_clean_sbu_0, # of connection points: 4
#     Node 6, Type 0, BuildingBlock: GALJAG_clean_sbu_0, # of connection points: 4
#     Node 7, Type 0, BuildingBlock: GALJAG_clean_sbu_0, # of connection points: 4
#     Node 8, Type 0, BuildingBlock: GALJAG_clean_sbu_0, # of connection points: 4
#     Node 9, Type 0, BuildingBlock: GALJAG_clean_sbu_0, # of connection points: 4
#     Node 10, Type 0, BuildingBlock: GALJAG_clean_sbu_0, # of connection points: 4
#     Node 11, Type 0, BuildingBlock: GALJAG_clean_sbu_0, # of connection points: 4
#     Node 12, Type 0, BuildingBlock: GALJAG_clean_sbu_0, # of connection points: 4
#     Node 13, Type 0, BuildingBlock: GALJAG_clean_sbu_0, # of connection points: 4
#     Node 14, Type 0, BuildingBlock: GALJAG_clean_sbu_0, # of connection points: 4
#     Node 15, Type 0, BuildingBlock: GALJAG_clean_sbu_0, # of connection points: 4
#     Edge 16, Type (0, 0), BuildingBlock: ZUJKAS_clean_linker_0, # of connection points: 2
#     Edge 17, Type (0, 0), BuildingBlock: ZUJKAS_clean_linker_0, # of connection points: 2
#     Edge 18, Type (0, 0), BuildingBlock: ZUJKAS_clean_linker_0, # of connection points: 2
#     Edge 19, Type (0, 0), BuildingBlock: ZUJKAS_clean_linker_0, # of connection points: 2
#     Edge 20, Type (0, 0), BuildingBlock: ZUJKAS_clean_linker_0, # of connection points: 2
#     Edge 21, Type (0, 0), BuildingBlock: ZUJKAS_clean_linker_0, # of connection points: 2
#     Edge 22, Type (0, 0), BuildingBlock: ZUJKAS_clean_linker_0, # of connection points: 2
#     Edge 23, Type (0, 0), BuildingBlock: ZUJKAS_clean_linker_0, # of connection points: 2
#     Edge 24, Type (0, 0), BuildingBlock: ZUJKAS_clean_linker_0, # of connection points: 2
#     Edge 25, Type (0, 0), BuildingBlock: ZUJKAS_clean_linker_0, # of connection points: 2
#     Edge 26, Type (0, 0), BuildingBlock: ZUJKAS_clean_linker_0, # of connection points: 2
#     Edge 27, Type (0, 0), BuildingBlock: ZUJKAS_clean_linker_0, # of connection points: 2
#     Edge 28, Type (0, 0), BuildingBlock: ZUJKAS_clean_linker_0, # of connection points: 2
#     Edge 29, Type (0, 0), BuildingBlock: ZUJKAS_clean_linker_0, # of connection points: 2
#     Edge 30, Type (0, 0), BuildingBlock: ZUJKAS_clean_linker_0, # of connection points: 2
#     Edge 31, Type (0, 0), BuildingBlock: ZUJKAS_clean_linker_0, # of connection points: 2
#     Edge 32, Type (0, 0), BuildingBlock: ZUJKAS_clean_linker_0, # of connection points: 2
#     Edge 33, Type (0, 0), BuildingBlock: ZUJKAS_clean_linker_0, # of connection points: 2
#     Edge 34, Type (0, 0), BuildingBlock: ZUJKAS_clean_linker_0, # of connection points: 2
#     Edge 35, Type (0, 0), BuildingBlock: ZUJKAS_clean_linker_0, # of connection points: 2
#     Edge 36, Type (0, 0), BuildingBlock: ZUJKAS_clean_linker_0, # of connection points: 2
#     Edge 37, Type (0, 0), BuildingBlock: ZUJKAS_clean_linker_0, # of connection points: 2
#     Edge 38, Type (0, 0), BuildingBlock: ZUJKAS_clean_linker_0, # of connection points: 2
#     Edge 39, Type (0, 0), BuildingBlock: ZUJKAS_clean_linker_0, # of connection points: 2
#     Edge 40, Type (0, 0), BuildingBlock: ZUJKAS_clean_linker_0, # of connection points: 2
#     Edge 41, Type (0, 0), BuildingBlock: ZUJKAS_clean_linker_0, # of connection points: 2
#     Edge 42, Type (0, 0), BuildingBlock: ZUJKAS_clean_linker_0, # of connection points: 2
#     Edge 43, Type (0, 0), BuildingBlock: ZUJKAS_clean_linker_0, # of connection points: 2
#     Edge 44, Type (0, 0), BuildingBlock: ZUJKAS_clean_linker_0, # of connection points: 2
#     Edge 45, Type (0, 0), BuildingBlock: ZUJKAS_clean_linker_0, # of connection points: 2
#     Edge 46, Type (0, 0), BuildingBlock: ZUJKAS_clean_linker_0, # of connection points: 2
#     Edge 47, Type (0, 0), BuildingBlock: ZUJKAS_clean_linker_0, # of connection points: 2
# Relax obj value: 0.290
# Max RMSD: 0.221
# Mean RMSD: 0.173
data_MOF--net-ure--node1-GALJAG_clean_sbu_0--edge1-ZUJKAS_clean_linker_0
_symmetry_space_group_name_H-M    P1
_symmetry_Int_Tables_number       1
_symmetry_cell_setting            triclinic
loop_
_symmetry_equiv_pos_as_xyz
'x, y, z'
_cell_length_a     35.72628
_cell_length_b     42.005809
_cell_length_c     41.930397
_cell_angle_alpha  100.29583
_cell_angle_beta   96.111646
_cell_angle_gamma 96.025409
loop_
_atom_site_label
_atom_site_type_symbol
_atom_site_fract_x
_atom_site_fract_y
_atom_site_fract_z
_atom_type_partial_charge
In0 In 0.32822 0.28479 0.26853 0.0
O1 O 0.28189 0.2407 0.25611 0.0
O2 O 0.29414 0.26597 0.21823 0.0
C3 C 0.34014 0.29042 0.33405 0.0
C4 C 0.39162 0.26055 0.2511 0.0
C5 C 0.31545 0.3467 0.26622 0.0
O6 O 0.30954 0.27607 0.31727 0.0
O7 O 0.36398 0.30221 0.31783 0.0
O8 O 0.34543 0.33547 0.25888 0.0
O9 O 0.29124 0.32648 0.27427 0.0
C10 C 0.27495 0.2425 0.22639 0.0
O11 O 0.37902 0.28375 0.23972 0.0
O12 O 0.37171 0.2491 0.27048 0.0
In13 In 0.98424 0.99888 0.48152 0.0
O14 O 0.0111 0.01268 0.5348 0.0
O15 O 0.9854 0.96383 0.51754 0.0
C16 C 0.98817 0.05957 0.46773 0.0
C17 C 0.03154 0.96763 0.44429 0.0
C18 C 0.90827 0.98554 0.47596 0.0
O19 O 0.00434 0.05357 0.49383 0.0
O20 O 0.9707 0.03488 0.44822 0.0
O21 O 0.92733 0.97244 0.45467 0.0
O22 O 0.9276 0.00493 0.49991 0.0
C23 C 0.00246 0.98489 0.54138 0.0
O24 O 0.99621 0.95904 0.44032 0.0
O25 O 0.04291 0.9918 0.46698 0.0
In26 In 0.35602 0.75956 0.79135 0.0
O27 O 0.29565 0.73942 0.76771 0.0
O28 O 0.3078 0.79017 0.78828 0.0
C29 C 0.38621 0.70301 0.78466 0.0
C30 C 0.38607 0.79462 0.75025 0.0
C31 C 0.35869 0.7718 0.85691 0.0
O32 O 0.35185 0.70458 0.775 0.0
O33 O 0.40563 0.73013 0.797 0.0
O34 O 0.38562 0.78274 0.84298 0.0
O35 O 0.33102 0.75536 0.83785 0.0
C36 C 0.28336 0.76676 0.77373 0.0
O37 O 0.38633 0.80641 0.78022 0.0
O38 O 0.37248 0.765 0.74174 0.0
In39 In 0.4777 0.99632 0.01707 0.0
O40 O 0.4473 0.00011 0.96747 0.0
O41 O 0.45785 0.04277 0.0048 0.0
C42 C 0.48405 0.9321 0.00695 0.0
C43 C 0.55158 0.01834 0.01803 0.0
C44 C 0.43639 0.00282 0.06748 0.0
O45 O 0.46396 0.94435 0.98679 0.0
O46 O 0.50036 0.95213 0.03179 0.0
O47 O 0.46697 0.02093 0.06759 0.0
O48 O 0.4259 0.98218 0.0414 0.0
C49 C 0.44523 0.03029 0.97545 0.0
O50 O 0.5371 0.0166 0.04394 0.0
O51 O 0.52876 0.0096 0.99214 0.0
In52 In 0.34787 0.74691 0.25684 0.0
O53 O 0.31416 0.69637 0.23945 0.0
O54 O 0.34512 0.70672 0.28702 0.0
C55 C 0.35242 0.75419 0.19442 0.0
C56 C 0.29656 0.78074 0.28618 0.0
C57 C 0.42158 0.7659 0.28081 0.0
O58 O 0.36388 0.73055 0.20564 0.0
O59 O 0.3382 0.77397 0.21449 0.0
O60 O 0.39831 0.7861 0.27769 0.0
O61 O 0.40746 0.7364 0.2725 0.0
C62 C 0.32384 0.68613 0.26524 0.0
O63 O 0.33062 0.78283 0.29886 0.0
O64 O 0.28844 0.76141 0.25903 0.0
In65 In 0.43469 0.00579 0.44714 0.0
O66 O 0.41826 0.00591 0.49832 0.0
O67 O 0.40831 0.96097 0.46463 0.0
C68 C 0.44234 0.07128 0.45354 0.0
C69 C 0.50757 0.99341 0.45031 0.0
C70 C 0.39052 0.98648 0.38894 0.0
O71 O 0.41679 0.0559 0.4656 0.0
O72 O 0.46372 0.05363 0.43837 0.0
O73 O 0.41568 0.97037 0.39892 0.0
O74 O 0.386 0.01139 0.40923 0.0
C75 C 0.40728 0.97576 0.49339 0.0
O76 O 0.48546 0.98771 0.42389 0.0
O77 O 0.49297 0.00536 0.4751 0.0
In78 In 0.39099 0.31536 0.74583 0.0
O79 O 0.38768 0.2609 0.74516 0.0
O80 O 0.42957 0.29191 0.77975 0.0
C81 C 0.39304 0.31292 0.68133 0.0
C82 C 0.31852 0.31157 0.7586 0.0
C83 C 0.42564 0.37623 0.77213 0.0
O84 O 0.41557 0.29907 0.69799 0.0
O85 O 0.37011 0.3279 0.69728 0.0
O86 O 0.39423 0.36473 0.77905 0.0
O87 O 0.44083 0.35648 0.75272 0.0
C88 C 0.41358 0.26324 0.7686 0.0
O89 O 0.34632 0.31774 0.78094 0.0
O90 O 0.32732 0.30705 0.72993 0.0
In91 In 0.98935 0.95464 0.93935 0.0
O92 O 0.94428 0.98928 0.93898 0.0
O93 O 0.94235 0.95668 0.97219 0.0
C94 C 0.9981 0.95444 0.87611 0.0
C95 C 0.04325 0.99552 0.98223 0.0
C96 C 0.98185 0.88944 0.93664 0.0
O97 O 0.96717 0.95777 0.88748 0.0
O98 O 0.02532 0.95151 0.89682 0.0
O99 O 0.01188 0.90782 0.94965 0.0
O100 O 0.956 0.90391 0.92504 0.0
C101 C 0.92773 0.97908 0.96098 0.0
O102 O 0.02796 0.96913 0.98817 0.0
O103 O 0.03234 0.00078 0.95425 0.0
In104 In 0.84751 0.27811 0.76026 0.0
O105 O 0.84049 0.32308 0.79765 0.0
O106 O 0.79061 0.2941 0.77169 0.0
C107 C 0.92257 0.29414 0.77994 0.0
C108 C 0.82401 0.21757 0.76984 0.0
C109 C 0.84423 0.27945 0.69592 0.0
O110 O 0.90354 0.31073 0.7636 0.0
O111 O 0.90359 0.26987 0.78692 0.0
O112 O 0.86175 0.25969 0.70918 0.0
O113 O 0.82765 0.2983 0.71502 0.0
C114 C 0.80476 0.31891 0.79278 0.0
O115 O 0.81781 0.22601 0.74255 0.0
O116 O 0.84119 0.23988 0.79245 0.0
In117 In 0.95772 0.4816 0.93559 0.0
O118 O 0.01643 0.47144 0.92386 0.0
O119 O 0.01186 0.4967 0.97173 0.0
C120 C 0.92404 0.4506 0.87545 0.0
C121 C 0.93348 0.44836 0.98083 0.0
C122 C 0.95316 0.54527 0.93383 0.0
O123 O 0.95717 0.44753 0.88694 0.0
O124 O 0.90686 0.46864 0.8948 0.0
O125 O 0.92915 0.52841 0.94607 0.0
O126 O 0.9788 0.52997 0.92247 0.0
C127 C 0.03319 0.48475 0.95182 0.0
O128 O 0.92771 0.47748 0.98086 0.0
O129 O 0.9497 0.43582 0.95733 0.0
In130 In 0.89524 0.82795 0.28373 0.0
O131 O 0.91178 0.77664 0.28118 0.0
O132 O 0.91815 0.80744 0.32787 0.0
C133 C 0.88778 0.82576 0.21845 0.0
C134 C 0.822 0.82351 0.29521 0.0
C135 C 0.94224 0.88391 0.30766 0.0
O136 O 0.91143 0.81081 0.23251 0.0
O137 O 0.86837 0.84189 0.23729 0.0
O138 O 0.91232 0.87611 0.31939 0.0
O139 O 0.94957 0.86268 0.2846 0.0
C140 C 0.92064 0.77962 0.31156 0.0
O141 O 0.84361 0.85017 0.30133 0.0
O142 O 0.83731 0.79912 0.28335 0.0
In143 In 0.98741 0.46292 0.49991 0.0
O144 O 0.04644 0.48723 0.52393 0.0
O145 O 0.03862 0.4685 0.47278 0.0
C146 C 0.95362 0.45959 0.55403 0.0
C147 C 0.95626 0.50774 0.47041 0.0
C148 C 0.98742 0.39859 0.47904 0.0
O149 O 0.98667 0.47397 0.55488 0.0
O150 O 0.93691 0.44766 0.52567 0.0
O151 O 0.96496 0.41456 0.46485 0.0
O152 O 0.00919 0.4151 0.50335 0.0
C153 C 0.06116 0.48266 0.49766 0.0
O154 O 0.95582 0.47861 0.45594 0.0
O155 O 0.97067 0.51362 0.49994 0.0
In156 In 0.51486 0.53473 0.01903 0.0
O157 O 0.52746 0.49508 0.9784 0.0
O158 O 0.57315 0.53077 0.00205 0.0
C159 C 0.43887 0.51931 0.01273 0.0
C160 C 0.53681 0.51903 0.07727 0.0
C161 C 0.51742 0.5963 0.00798 0.0
O162 O 0.45859 0.50823 0.99107 0.0
O163 O 0.45751 0.53785 0.03757 0.0
O164 O 0.53076 0.58967 0.03474 0.0
O165 O 0.50354 0.57179 0.98639 0.0
C166 C 0.56221 0.50549 0.98053 0.0
O167 O 0.54223 0.54769 0.07202 0.0
O168 O 0.5208 0.49806 0.05294 0.0
In169 In 0.82859 0.82319 0.81088 0.0
O170 O 0.8705 0.80756 0.77539 0.0
O171 O 0.8925 0.82752 0.82478 0.0
C172 C 0.81893 0.88536 0.80673 0.0
C173 C 0.78031 0.77695 0.76809 0.0
C174 C 0.82379 0.81533 0.87293 0.0
O175 O 0.85098 0.8754 0.80923 0.0
O176 O 0.79126 0.86394 0.80654 0.0
O177 O 0.8084 0.83705 0.861 0.0
O178 O 0.84031 0.79708 0.85327 0.0
C179 C 0.89934 0.81556 0.79657 0.0
O180 O 0.79169 0.77355 0.79664 0.0
O181 O 0.79228 0.80403 0.76149 0.0
In182 In 0.86204 0.24361 0.29083 0.0
O183 O 0.80498 0.21524 0.26671 0.0
O184 O 0.80487 0.25961 0.30043 0.0
C185 C 0.9024 0.19255 0.28331 0.0
C186 C 0.87917 0.28019 0.24605 0.0
C187 C 0.8706 0.2612 0.35645 0.0
O188 O 0.8668 0.18962 0.2764 0.0
O189 O 0.91811 0.22159 0.29263 0.0
O190 O 0.872 0.28227 0.33833 0.0
O191 O 0.86561 0.232 0.34144 0.0
C192 C 0.78567 0.23562 0.28099 0.0
O193 O 0.89868 0.28474 0.27382 0.0
O194 O 0.85245 0.2572 0.24111 0.0
In195 In 0.52762 0.48018 0.46985 0.0
O196 O 0.56987 0.49315 0.51703 0.0
O197 O 0.56355 0.52955 0.48863 0.0
C198 C 0.52128 0.41706 0.47665 0.0
C199 C 0.45597 0.49375 0.47381 0.0
C200 C 0.54349 0.48584 0.40947 0.0
O201 O 0.54204 0.42791 0.45747 0.0
O202 O 0.50487 0.43821 0.49314 0.0
O203 O 0.51816 0.49981 0.42306 0.0
O204 O 0.56165 0.46927 0.42662 0.0
C205 C 0.57923 0.52217 0.51415 0.0
O206 O 0.465 0.47448 0.45001 0.0
O207 O 0.48315 0.50634 0.49568 0.0
H208 H 0.25449 0.243 0.16197 0.0
H209 H 0.21401 0.20081 0.12145 0.0
H210 H 0.1961 0.14386 0.19574 0.0
H211 H 0.23603 0.1863 0.23657 0.0
H212 H 0.22604 0.13718 0.10257 0.0
H213 H 0.08851 0.14238 0.15237 0.0
H214 H 0.12817 0.17402 0.16582 0.0
H215 H 0.12689 0.13668 0.18124 0.0
C216 C 0.24154 0.22169 0.16978 0.0
C217 C 0.24833 0.21801 0.20248 0.0
C218 C 0.21848 0.19756 0.14657 0.0
C219 C 0.20167 0.16932 0.1556 0.0
C220 C 0.2081 0.16573 0.18833 0.0
H221 H 0.0659 0.99163 0.0456 0.0
H222 H 0.10587 0.03307 0.08747 0.0
C223 C 0.23107 0.18994 0.21161 0.0
C224 C 0.17905 0.143 0.13037 0.0
H225 H 0.09152 0.09835 0.10883 0.0
C226 C 0.19658 0.12879 0.10386 0.0
C227 C 0.14064 0.13199 0.13215 0.0
C228 C 0.11977 0.14723 0.15925 0.0
C229 C 0.1769 0.10366 0.07928 0.0
C230 C 0.13851 0.09271 0.08103 0.0
C231 C 0.12101 0.10675 0.10761 0.0
C232 C 0.11578 0.06708 0.05524 0.0
C233 C 0.19753 0.08865 0.05191 0.0
C234 C 0.10813 0.07247 0.02323 0.0
C235 C 0.08533 0.04886 0.99926 0.0
C236 C 0.06967 0.01944 0.00691 0.0
C237 C 0.07772 0.01396 0.0389 0.0
C238 C 0.10043 0.03764 0.06288 0.0
H239 H 0.22882 0.09391 0.05836 0.0
H240 H 0.18953 0.0618 0.04557 0.0
H241 H 0.18961 0.09892 0.02989 0.0
H242 H 0.11916 0.09525 0.01694 0.0
H243 H 0.07942 0.05389 0.9749 0.0
H244 H 0.10869 0.97633 0.45486 0.0
H245 H 0.15229 0.94551 0.42469 0.0
H246 H 0.05757 0.8891 0.3592 0.0
H247 H 0.01358 0.91949 0.38982 0.0
H248 H 0.10765 0.85104 0.38299 0.0
H249 H 0.18589 0.95033 0.33624 0.0
H250 H 0.18541 0.95964 0.37963 0.0
H251 H 0.1416 0.95461 0.35269 0.0
C252 C 0.09715 0.95758 0.43384 0.0
C253 C 0.05776 0.95023 0.42474 0.0
C254 C 0.12212 0.94014 0.41648 0.0
C255 C 0.10823 0.91535 0.38941 0.0
C256 C 0.06888 0.90824 0.37996 0.0
H257 H 0.22112 0.7769 0.26499 0.0
H258 H 0.17473 0.80923 0.28955 0.0
C259 C 0.04382 0.92557 0.39746 0.0
C260 C 0.13474 0.89555 0.37239 0.0
H261 H 0.21401 0.90084 0.33376 0.0
C262 C 0.13065 0.86185 0.37189 0.0
C263 C 0.1648 0.90976 0.35804 0.0
C264 C 0.16953 0.94552 0.35635 0.0
C265 C 0.15645 0.84211 0.35823 0.0
C266 C 0.18686 0.85643 0.34444 0.0
C267 C 0.19075 0.89003 0.34457 0.0
C268 C 0.21492 0.83686 0.32969 0.0
C269 C 0.15162 0.80623 0.35939 0.0
C270 C 0.25295 0.84207 0.34394 0.0
C271 C 0.27952 0.82359 0.33002 0.0
C272 C 0.26849 0.79985 0.30143 0.0
C273 C 0.23042 0.79491 0.2871 0.0
C274 C 0.20386 0.81327 0.30113 0.0
H275 H 0.13169 0.80037 0.37674 0.0
H276 H 0.14014 0.79206 0.33472 0.0
H277 H 0.17936 0.79814 0.36663 0.0
H278 H 0.26199 0.8603 0.36594 0.0
H279 H 0.3087 0.82804 0.34149 0.0
H280 H 0.38969 0.91027 0.48961 0.0
H281 H 0.38532 0.88141 0.53507 0.0
H282 H 0.4027 0.97329 0.6031 0.0
H283 H 0.40763 0.00236 0.55776 0.0
H284 H 0.45112 0.92951 0.6195 0.0
H285 H 0.30211 0.87022 0.59305 0.0
H286 H 0.32844 0.86274 0.5589 0.0
H287 H 0.31926 0.90356 0.57441 0.0
C288 C 0.39182 0.92435 0.51418 0.0
C289 C 0.39893 0.95857 0.52013 0.0
C290 C 0.38922 0.90783 0.54014 0.0
C291 C 0.39337 0.92522 0.57243 0.0
C292 C 0.39932 0.95943 0.57834 0.0
H293 H 0.40307 0.861 0.75987 0.0
H294 H 0.40779 0.89415 0.71758 0.0
C295 C 0.40196 0.97598 0.55241 0.0
C296 C 0.39411 0.90766 0.6001 0.0
H297 H 0.34271 0.85079 0.63216 0.0
C298 C 0.42731 0.91251 0.6225 0.0
C299 C 0.36303 0.88549 0.60387 0.0
C300 C 0.32605 0.88037 0.58147 0.0
C301 C 0.43067 0.89504 0.64804 0.0
C302 C 0.39981 0.87247 0.65144 0.0
C303 C 0.36643 0.86799 0.62934 0.0
C304 C 0.40145 0.85284 0.67746 0.0
C305 C 0.46752 0.90013 0.67057 0.0
C306 C 0.39675 0.8187 0.66894 0.0
C307 C 0.39396 0.79978 0.69296 0.0
C308 C 0.39563 0.81466 0.72597 0.0
C309 C 0.40199 0.84887 0.73466 0.0
C310 C 0.40472 0.86783 0.71054 0.0
H311 H 0.49111 0.91248 0.66022 0.0
H312 H 0.46407 0.91563 0.69417 0.0
H313 H 0.47551 0.8765 0.67563 0.0
H314 H 0.39418 0.80668 0.64355 0.0
H315 H 0.38904 0.77347 0.68549 0.0
H316 H 0.43146 0.01185 0.90897 0.0
H317 H 0.42365 0.04768 0.86918 0.0
H318 H 0.42746 0.13006 0.94781 0.0
H319 H 0.43531 0.09453 0.9877 0.0
H320 H 0.36946 0.12558 0.89105 0.0
H321 H 0.51598 0.11541 0.85981 0.0
H322 H 0.48565 0.07789 0.85779 0.0
H323 H 0.50061 0.10453 0.89655 0.0
C324 C 0.42993 0.03749 0.91774 0.0
C325 C 0.43421 0.05046 0.95143 0.0
C326 C 0.42573 0.05791 0.89501 0.0
C327 C 0.42559 0.09151 0.90567 0.0
C328 C 0.42772 0.10419 0.93918 0.0
H329 H 0.46416 0.26274 0.82222 0.0
H330 H 0.46804 0.21862 0.85319 0.0
C331 C 0.43215 0.08386 0.96191 0.0
C332 C 0.42509 0.11387 0.88218 0.0
H333 H 0.47988 0.14862 0.83243 0.0
C334 C 0.39341 0.13045 0.87799 0.0
C335 C 0.45668 0.12038 0.86562 0.0
C336 C 0.49186 0.10386 0.87019 0.0
C337 C 0.3925 0.15353 0.85761 0.0
C338 C 0.42404 0.15997 0.84096 0.0
C339 C 0.45571 0.14336 0.8451 0.0
C340 C 0.42497 0.18489 0.82016 0.0
C341 C 0.35826 0.17151 0.85464 0.0
C342 C 0.40048 0.17995 0.79083 0.0
C343 C 0.39834 0.20496 0.77306 0.0
C344 C 0.42064 0.23534 0.7844 0.0
C345 C 0.44664 0.23961 0.81291 0.0
C346 C 0.44885 0.21449 0.83062 0.0
H347 H 0.33926 0.16775 0.87332 0.0
H348 H 0.36715 0.19807 0.85714 0.0
H349 H 0.34179 0.16261 0.8301 0.0
H350 H 0.38217 0.15709 0.78224 0.0
H351 H 0.3781 0.20091 0.75114 0.0
H352 H 0.7277 0.31278 0.78807 0.0
H353 H 0.6887 0.34803 0.81927 0.0
H354 H 0.78964 0.40966 0.86947 0.0
H355 H 0.82892 0.3747 0.83798 0.0
H356 H 0.69219 0.36059 0.88746 0.0
H357 H 0.72176 0.47503 0.84022 0.0
H358 H 0.73221 0.4361 0.81941 0.0
H359 H 0.76284 0.45806 0.85501 0.0
C360 C 0.74158 0.33399 0.80554 0.0
C361 C 0.78131 0.34096 0.8107 0.0
C362 C 0.71928 0.35408 0.82333 0.0
C363 C 0.73628 0.38156 0.84642 0.0
C364 C 0.77596 0.38885 0.85137 0.0
H365 H 0.639 0.52043 0.98409 0.0
H366 H 0.68217 0.49085 0.95173 0.0
C367 C 0.79834 0.36874 0.83355 0.0
C368 C 0.71236 0.40136 0.86652 0.0
H369 H 0.68447 0.47717 0.88384 0.0
C370 C 0.69043 0.38607 0.88665 0.0
C371 C 0.71046 0.43463 0.86555 0.0
C372 C 0.73281 0.45197 0.84372 0.0
C373 C 0.66656 0.40315 0.9059 0.0
C374 C 0.66402 0.43625 0.90445 0.0
C375 C 0.68642 0.45174 0.88474 0.0
C376 C 0.63781 0.45495 0.92295 0.0
C377 C 0.64468 0.38572 0.92796 0.0
C378 C 0.59858 0.44493 0.91694 0.0
C379 C 0.57395 0.46161 0.93544 0.0
C380 C 0.58813 0.48882 0.96005 0.0
C381 C 0.62732 0.49945 0.96535 0.0
C382 C 0.65197 0.48264 0.94689 0.0
H383 H 0.65751 0.36385 0.93297 0.0
H384 H 0.64338 0.40214 0.95161 0.0
H385 H 0.61522 0.37748 0.91588 0.0
H386 H 0.58704 0.42402 0.89807 0.0
H387 H 0.54385 0.45305 0.93061 0.0
H388 H 0.89114 0.46609 0.03044 0.0
H389 H 0.88214 0.43899 0.07674 0.0
H390 H 0.95138 0.36625 0.03922 0.0
H391 H 0.95894 0.39228 0.99238 0.0
H392 H 0.89286 0.33818 0.05903 0.0
H393 H 0.95555 0.44302 0.1565 0.0
H394 H 0.91589 0.45233 0.13139 0.0
H395 H 0.95825 0.44306 0.11381 0.0
C396 C 0.90418 0.44419 0.03203 0.0
C397 C 0.92572 0.43129 0.00781 0.0
C398 C 0.89943 0.42894 0.0587 0.0
C399 C 0.91687 0.401 0.06197 0.0
C400 C 0.93779 0.38786 0.03741 0.0
H401 H 0.94427 0.31867 0.23996 0.0
H402 H 0.95471 0.34841 0.1955 0.0
C403 C 0.94202 0.40273 0.01057 0.0
C404 C 0.91268 0.38471 0.09035 0.0
H405 H 0.92391 0.39741 0.17385 0.0
C406 C 0.89986 0.35116 0.08412 0.0
C407 C 0.92252 0.40142 0.12316 0.0
C408 C 0.93921 0.43685 0.13167 0.0
C409 C 0.89612 0.33397 0.10959 0.0
C410 C 0.90396 0.35101 0.14239 0.0
C411 C 0.91744 0.38444 0.14873 0.0
C412 C 0.89758 0.33454 0.17027 0.0
C413 C 0.88457 0.29754 0.10093 0.0
C414 C 0.86184 0.31773 0.17139 0.0
C415 C 0.85613 0.30037 0.19622 0.0
C416 C 0.88575 0.30014 0.22105 0.0
C417 C 0.92105 0.31832 0.221 0.0
C418 C 0.92698 0.3353 0.19567 0.0
H419 H 0.89213 0.28711 0.07653 0.0
H420 H 0.89827 0.28493 0.11928 0.0
H421 H 0.85333 0.29232 0.09994 0.0
H422 H 0.83834 0.31772 0.1528 0.0
H423 H 0.82838 0.28707 0.19595 0.0
H424 H 0.95406 0.57136 0.49736 0.0
H425 H 0.94549 0.61635 0.46872 0.0
H426 H 0.92668 0.5489 0.37638 0.0
H427 H 0.93556 0.50359 0.40493 0.0
H428 H 0.98274 0.60251 0.37968 0.0
H429 H 0.8505 0.64322 0.42191 0.0
H430 H 0.88574 0.63924 0.45436 0.0
H431 H 0.86432 0.60364 0.42508 0.0
C432 C 0.94735 0.56598 0.471 0.0
C433 C 0.94541 0.53394 0.45338 0.0
C434 C 0.94235 0.59172 0.45468 0.0
C435 C 0.93514 0.58591 0.42047 0.0
C436 C 0.93207 0.55383 0.40282 0.0
H437 H 0.92168 0.71661 0.28141 0.0
H438 H 0.92723 0.66928 0.3073 0.0
C439 C 0.93696 0.52799 0.41916 0.0
C440 C 0.93367 0.61365 0.40317 0.0
H441 H 0.887 0.67933 0.3959 0.0
C442 C 0.96162 0.61916 0.38294 0.0
C443 C 0.90624 0.63541 0.4077 0.0
C444 C 0.87477 0.63 0.4282 0.0
C445 C 0.96344 0.64638 0.36774 0.0
C446 C 0.93617 0.6683 0.3725 0.0
C447 C 0.90801 0.66258 0.39247 0.0
C448 C 0.93595 0.69718 0.35674 0.0
C449 C 0.99513 0.65193 0.3475 0.0
C450 C 0.93894 0.72856 0.37594 0.0
C451 C 0.9356 0.75564 0.36121 0.0
C452 C 0.92899 0.75175 0.32701 0.0
C453 C 0.92704 0.7204 0.30782 0.0
C454 C 0.93033 0.69333 0.32257 0.0
H455 H 0.01905 0.63818 0.35337 0.0
H456 H 0.98418 0.64345 0.32124 0.0
H457 H 0.00611 0.67824 0.35132 0.0
H458 H 0.94319 0.73202 0.40236 0.0
H459 H 0.9371 0.77948 0.37663 0.0
H460 H 0.60905 0.51442 0.57477 0.0
H461 H 0.64352 0.55682 0.61916 0.0
H462 H 0.63908 0.62707 0.55581 0.0
H463 H 0.60421 0.58508 0.51162 0.0
H464 H 0.71206 0.59796 0.62385 0.0
H465 H 0.59007 0.66909 0.63404 0.0
H466 H 0.58531 0.62774 0.61146 0.0
H467 H 0.60356 0.6611 0.59362 0.0
C468 C 0.61572 0.53885 0.57025 0.0
C469 C 0.60366 0.54652 0.53983 0.0
C470 C 0.63535 0.56303 0.59562 0.0
C471 C 0.64309 0.59523 0.59097 0.0
C472 C 0.63257 0.60255 0.56015 0.0
H473 H 0.75281 0.77909 0.70535 0.0
H474 H 0.71917 0.73408 0.66342 0.0
C475 C 0.61288 0.57848 0.53486 0.0
C476 C 0.6616 0.62135 0.6184 0.0
H477 H 0.64918 0.69463 0.66382 0.0
C478 C 0.69826 0.61899 0.63279 0.0
C479 C 0.64341 0.64869 0.63007 0.0
C480 C 0.60328 0.65176 0.61675 0.0
C481 C 0.7177 0.64377 0.65789 0.0
C482 C 0.69972 0.67135 0.66915 0.0
C483 C 0.6629 0.6735 0.65504 0.0
C484 C 0.71899 0.69864 0.69504 0.0
C485 C 0.7577 0.64071 0.67153 0.0
C486 C 0.72922 0.69377 0.7269 0.0
C487 C 0.74831 0.71947 0.75095 0.0
C488 C 0.7574 0.75048 0.74352 0.0
C489 C 0.74622 0.75547 0.71181 0.0
C490 C 0.72706 0.72979 0.68782 0.0
H491 H 0.77028 0.62178 0.6555 0.0
H492 H 0.77617 0.66433 0.67477 0.0
H493 H 0.75747 0.63377 0.69583 0.0
H494 H 0.72262 0.67004 0.73311 0.0
H495 H 0.7565 0.7149 0.77518 0.0
H496 H 0.40479 0.31885 0.37374 0.0
H497 H 0.41912 0.32171 0.43257 0.0
H498 H 0.30863 0.26994 0.43392 0.0
H499 H 0.29415 0.26672 0.37488 0.0
H500 H 0.38219 0.35052 0.48192 0.0
H501 H 0.38034 0.21853 0.48062 0.0
H502 H 0.3774 0.23487 0.44357 0.0
H503 H 0.33577 0.22797 0.4632 0.0
C504 C 0.38354 0.30801 0.38653 0.0
C505 C 0.34832 0.29252 0.36971 0.0
C506 C 0.39182 0.30963 0.42013 0.0
C507 C 0.36519 0.29559 0.43748 0.0
C508 C 0.32987 0.28035 0.42083 0.0
H509 H 0.34467 0.33884 0.64164 0.0
H510 H 0.34169 0.3351 0.58275 0.0
C511 C 0.32153 0.27873 0.38718 0.0
C512 C 0.37383 0.29801 0.47323 0.0
H513 H 0.37936 0.2527 0.53311 0.0
C514 C 0.3817 0.32914 0.49312 0.0
C515 C 0.37397 0.27009 0.48773 0.0
C516 C 0.36679 0.23599 0.46761 0.0
C517 C 0.38847 0.33314 0.52726 0.0
C518 C 0.38686 0.30523 0.54187 0.0
C519 C 0.3804 0.27408 0.5219 0.0
C520 C 0.38962 0.30787 0.57779 0.0
C521 C 0.39811 0.36722 0.54727 0.0
C522 C 0.41685 0.29291 0.59451 0.0
C523 C 0.41839 0.29473 0.62831 0.0
C524 C 0.39253 0.31135 0.6458 0.0
C525 C 0.36522 0.32611 0.62891 0.0
C526 C 0.36365 0.32421 0.59525 0.0
H527 H 0.40985 0.38455 0.53261 0.0
H528 H 0.37195 0.37592 0.55579 0.0
H529 H 0.41904 0.36779 0.569 0.0
H530 H 0.43685 0.2798 0.58142 0.0
H531 H 0.43961 0.28298 0.64068 0.0
H532 H 0.94158 0.95523 0.82773 0.0
H533 H 0.94654 0.95606 0.77032 0.0
H534 H 0.0676 0.95521 0.78827 0.0
H535 H 0.06252 0.95329 0.84581 0.0
H536 H 0.98397 0.00259 0.7463 0.0
H537 H 0.04004 0.88564 0.70642 0.0
H538 H 0.02064 0.89504 0.74453 0.0
H539 H 0.06826 0.91158 0.74122 0.0
C540 C 0.9692 0.95481 0.81939 0.0
C541 C 0.00164 0.95413 0.84124 0.0
C542 C 0.97202 0.95531 0.78655 0.0
C543 C 0.00737 0.95529 0.77481 0.0
C544 C 0.03989 0.95447 0.79655 0.0
H545 H 0.04317 0.02479 0.59517 0.0
H546 H 0.04794 0.01664 0.65173 0.0
C547 C 0.03702 0.95366 0.82948 0.0
C548 C 0.01012 0.95835 0.74036 0.0
H549 H 0.03844 0.92197 0.66883 0.0
C550 C 0.99587 0.98492 0.72937 0.0
C551 C 0.02524 0.93508 0.71818 0.0
C552 C 0.03908 0.90505 0.72802 0.0
C553 C 0.99627 0.98895 0.69693 0.0
C554 C 0.01245 0.9663 0.67497 0.0
C555 C 0.02655 0.93956 0.68583 0.0
C556 C 0.01356 0.96949 0.64035 0.0
C557 C 0.97829 0.01697 0.68631 0.0
C558 C 0.99432 0.94496 0.61496 0.0
C559 C 0.99198 0.94937 0.58253 0.0
C560 C 0.00881 0.97843 0.57497 0.0
C561 C 0.0296 0.00227 0.60027 0.0
C562 C 0.03218 0.99772 0.63262 0.0
H563 H 0.95842 0.02649 0.70326 0.0
H564 H 0.00083 0.03721 0.68611 0.0
H565 H 0.96252 0.0095 0.66133 0.0
H566 H 0.97991 0.9229 0.62035 0.0
H567 H 0.97584 0.93053 0.56356 0.0
H568 H 0.29883 0.76315 0.89049 0.0
H569 H 0.30016 0.76455 0.94909 0.0
H570 H 0.42155 0.78916 0.9625 0.0
H571 H 0.42052 0.78883 0.90379 0.0
H572 H 0.3378 0.7245 0.9827 0.0
H573 H 0.3883 0.8547 0.03575 0.0
H574 H 0.37035 0.84067 0.99304 0.0
H575 H 0.41774 0.83531 0.00809 0.0
C576 C 0.32581 0.76946 0.90601 0.0
C577 C 0.3596 0.77603 0.89267 0.0
C578 C 0.3265 0.77021 0.93946 0.0
C579 C 0.36099 0.77741 0.96019 0.0
C580 C 0.39469 0.78449 0.94703 0.0
H581 H 0.39093 0.71989 0.15003 0.0
H582 H 0.39535 0.72637 0.09367 0.0
C583 C 0.39403 0.78413 0.91353 0.0
C584 C 0.36172 0.77502 0.99506 0.0
H585 H 0.38464 0.81833 0.073 0.0
C586 C 0.34793 0.74504 0.00247 0.0
C587 C 0.37473 0.80192 0.02071 0.0
C588 C 0.38829 0.83508 0.01412 0.0
C589 C 0.34659 0.74118 0.03486 0.0
C590 C 0.36042 0.76784 0.06061 0.0
C591 C 0.37428 0.79787 0.05322 0.0
C592 C 0.35981 0.76519 0.09533 0.0
C593 C 0.32955 0.70876 0.04106 0.0
C594 C 0.3396 0.78571 0.11536 0.0
C595 C 0.33749 0.78236 0.14772 0.0
C596 C 0.35546 0.75835 0.16053 0.0
C597 C 0.37638 0.73832 0.14066 0.0
C598 C 0.37881 0.74191 0.10843 0.0
H599 H 0.31096 0.69436 0.0192 0.0
H600 H 0.35272 0.69431 0.04703 0.0
H601 H 0.31266 0.71208 0.06189 0.0
H602 H 0.32489 0.80394 0.10578 0.0
H603 H 0.32133 0.79825 0.16253 0.0
H604 H 0.39291 0.93305 0.34182 0.0
H605 H 0.3842 0.93103 0.2828 0.0
H606 H 0.34542 0.02571 0.29836 0.0
H607 H 0.35321 0.02762 0.35735 0.0
H608 H 0.31164 0.98235 0.23736 0.0
H609 H 0.46932 0.99419 0.2587 0.0
H610 H 0.44525 0.95901 0.27009 0.0
H611 H 0.44073 0.99912 0.29175 0.0
C612 C 0.3812 0.9529 0.3326 0.0
C613 C 0.37444 0.98078 0.35418 0.0
C614 C 0.37632 0.95174 0.2989 0.0
C615 C 0.3651 0.97858 0.28638 0.0
C616 C 0.35431 0.00483 0.3076 0.0
H617 H 0.45029 0.04769 0.12424 0.0
H618 H 0.42673 0.04311 0.17605 0.0
C619 C 0.35881 0.00588 0.34132 0.0
C620 C 0.37101 0.98191 0.25266 0.0
H621 H 0.44135 0.99179 0.20498 0.0
C622 C 0.33991 0.98427 0.23011 0.0
C623 C 0.40807 0.98508 0.2436 0.0
C624 C 0.44285 0.98452 0.26731 0.0
C625 C 0.34498 0.98949 0.19852 0.0
C626 C 0.38203 0.99219 0.18943 0.0
C627 C 0.41297 0.98976 0.21203 0.0
C628 C 0.39013 0.99782 0.1568 0.0
C629 C 0.31089 0.99285 0.17544 0.0
C630 C 0.3765 0.97436 0.12856 0.0
C631 C 0.38976 0.97707 0.09881 0.0
C632 C 0.4172 0.00305 0.097 0.0
C633 C 0.42925 0.02736 0.12491 0.0
C634 C 0.4158 0.02477 0.15452 0.0
H635 H 0.2862 0.99827 0.18858 0.0
H636 H 0.31756 0.01246 0.16156 0.0
H637 H 0.30259 0.9696 0.15762 0.0
H638 H 0.35728 0.95305 0.12987 0.0
H639 H 0.38012 0.95786 0.07771 0.0
H640 H 0.43551 0.27532 0.20496 0.0
H641 H 0.50053 0.26346 0.19998 0.0
H642 H 0.49728 0.21251 0.28058 0.0
H643 H 0.43201 0.22302 0.28465 0.0
H644 H 0.55863 0.28574 0.24314 0.0
H645 H 0.54915 0.15163 0.22184 0.0
H646 H 0.50766 0.17239 0.21779 0.0
H647 H 0.52742 0.1662 0.2573 0.0
C648 C 0.44842 0.26088 0.22103 0.0
C649 C 0.42876 0.25004 0.24514 0.0
C650 C 0.48554 0.25414 0.2182 0.0
C651 C 0.50371 0.23668 0.2396 0.0
C652 C 0.48362 0.22511 0.26311 0.0
H653 H 0.73816 0.26873 0.31694 0.0
H654 H 0.66965 0.26724 0.30405 0.0
C655 C 0.44635 0.23139 0.2656 0.0
C656 C 0.54484 0.23397 0.24009 0.0
H657 H 0.61057 0.18123 0.24633 0.0
C658 C 0.56989 0.26275 0.24323 0.0
C659 C 0.55971 0.20397 0.23969 0.0
C660 C 0.53447 0.1718 0.23359 0.0
C661 C 0.60929 0.26263 0.24758 0.0
C662 C 0.6241 0.23309 0.25004 0.0
C663 C 0.59918 0.204 0.24517 0.0
C664 C 0.66524 0.2322 0.25872 0.0
C665 C 0.63456 0.29425 0.24954 0.0
C666 C 0.6852 0.21164 0.23846 0.0
C667 C 0.72432 0.21193 0.2462 0.0
C668 C 0.74401 0.23291 0.2742 0.0
C669 C 0.72376 0.25262 0.29498 0.0
C670 C 0.68467 0.25199 0.2875 0.0
H671 H 0.61999 0.3111 0.23633 0.0
H672 H 0.64176 0.30658 0.27551 0.0
H673 H 0.66132 0.29001 0.23913 0.0
H674 H 0.67067 0.19595 0.21631 0.0
H675 H 0.73929 0.19646 0.22978 0.0
H676 H 0.02651 0.36002 0.5118 0.0
H677 H 0.02298 0.30086 0.49951 0.0
H678 H 0.94638 0.29732 0.41194 0.0
H679 H 0.94882 0.35698 0.42459 0.0
H680 H 0.95352 0.26138 0.4957 0.0
H681 H 0.01993 0.23266 0.38127 0.0
H682 H 0.02715 0.27305 0.40639 0.0
H683 H 0.98267 0.25833 0.3813 0.0
C684 C 0.00911 0.34677 0.48973 0.0
C685 C 0.98756 0.36308 0.46935 0.0
C686 C 0.0072 0.31294 0.48272 0.0
C687 C 0.98411 0.29471 0.45499 0.0
C688 C 0.96408 0.31096 0.43357 0.0
H689 H 0.9482 0.07936 0.41688 0.0
H690 H 0.94339 0.13557 0.40976 0.0
C691 C 0.96552 0.34498 0.44083 0.0
C692 C 0.97857 0.25876 0.45093 0.0
H693 H -0.00012 0.1885 0.40573 0.0
C694 C 0.96349 0.24543 0.47591 0.0
C695 C 0.99049 0.23795 0.42459 0.0
C696 C 0.00617 0.25107 0.39686 0.0
C697 C 0.96165 0.21206 0.47613 0.0
C698 C 0.9764 0.1916 0.45123 0.0
C699 C 0.98924 0.20445 0.42507 0.0
C700 C 0.98135 0.15756 0.45365 0.0
C701 C 0.94442 0.19909 0.50333 0.0
C702 C 0.00524 0.15143 0.48008 0.0
C703 C 0.00824 0.1195 0.48409 0.0
C704 C 0.98753 0.09309 0.46164 0.0
C705 C 0.96467 0.09923 0.43448 0.0
C706 C 0.96177 0.13127 0.43042 0.0
H707 H 0.92419 0.21509 0.51396 0.0
H708 H 0.92927 0.17406 0.49453 0.0
H709 H 0.96731 0.1982 0.52311 0.0
H710 H 0.0211 0.17144 0.49795 0.0
H711 H 0.02623 0.11556 0.50515 0.0
H712 H 0.92136 0.79226 0.73734 0.0
H713 H 0.98535 0.78197 0.72586 0.0
H714 H 0.02822 0.81779 0.82749 0.0
H715 H 0.96448 0.828 0.83922 0.0
H716 H 0.05521 0.82635 0.73812 0.0
H717 H 0.05971 0.72455 0.80605 0.0
H718 H 0.01606 0.73959 0.79345 0.0
H719 H 0.04703 0.76134 0.829 0.0
C720 C 0.94447 0.798 0.75719 0.0
C721 C 0.93797 0.81068 0.7892 0.0
C722 C 0.98092 0.79217 0.75059 0.0
C723 C 0.01122 0.7987 0.77593 0.0
C724 C 0.00498 0.81213 0.80774 0.0
H725 H 0.25141 0.82291 0.78627 0.0
H726 H 0.18404 0.82901 0.78069 0.0
C727 C 0.96863 0.81805 0.81435 0.0
C728 C 0.0494 0.79112 0.76938 0.0
H729 H 0.11825 0.74578 0.79085 0.0
C730 C 0.06895 0.80849 0.74931 0.0
C731 C 0.06681 0.76741 0.78358 0.0
C732 C 0.04625 0.74689 0.80399 0.0
C733 C 0.10633 0.80376 0.74423 0.0
C734 C 0.12455 0.7814 0.76 0.0
C735 C 0.1043 0.76302 0.77889 0.0
C736 C 0.16534 0.77823 0.75938 0.0
C737 C 0.12599 0.8229 0.72223 0.0
C738 C 0.17723 0.74759 0.74945 0.0
C739 C 0.21581 0.74394 0.75294 0.0
C740 C 0.24302 0.77089 0.76663 0.0
C741 C 0.2311 0.80171 0.77556 0.0
C742 C 0.19259 0.80531 0.77212 0.0
H743 H 0.10519 0.83025 0.70413 0.0
H744 H 0.14239 0.84548 0.73727 0.0
H745 H 0.14592 0.80861 0.70892 0.0
H746 H 0.15657 0.72634 0.73979 0.0
H747 H 0.22422 0.71991 0.74587 0.0
H748 H 0.54315 0.65214 0.05206 0.0
H749 H 0.53609 0.70807 0.04605 0.0
H750 H 0.48066 0.67313 0.94761 0.0
H751 H 0.4878 0.61685 0.95334 0.0
H752 H 0.53806 0.73013 0.95688 0.0
H753 H 0.43222 0.74437 0.04457 0.0
H754 H 0.47372 0.72774 0.05878 0.0
H755 H 0.44186 0.70498 0.02425 0.0
C756 C 0.52968 0.65633 0.02904 0.0
C757 C 0.51581 0.63013 0.00324 0.0
C758 C 0.5255 0.68826 0.02572 0.0
C759 C 0.50727 0.69457 0.99661 0.0
C760 C 0.49456 0.66864 0.97034 0.0
H761 H 0.46421 0.88516 0.95148 0.0
H762 H 0.47098 0.82694 0.9453 0.0
C763 C 0.49868 0.63658 0.97366 0.0
C764 C 0.50124 0.72836 0.99411 0.0
H765 H 0.45959 0.7926 0.02986 0.0
C766 C 0.52058 0.74379 0.97249 0.0
C767 C 0.47813 0.74586 0.01436 0.0
C768 C 0.45497 0.72988 0.03661 0.0
C769 C 0.51895 0.77696 0.97183 0.0
C770 C 0.49708 0.7948 0.9931 0.0
C771 C 0.4767 0.77895 0.01385 0.0
C772 C 0.49581 0.83024 0.99539 0.0
C773 C 0.54181 0.79292 0.9494 0.0
C774 C 0.50763 0.85136 0.02547 0.0
C775 C 0.50411 0.88448 0.02895 0.0
C776 C 0.48816 0.89708 0.00251 0.0
C777 C 0.47649 0.87602 0.97227 0.0
C778 C 0.48059 0.84284 0.96867 0.0
H779 H 0.56361 0.77788 0.94021 0.0
H780 H 0.52251 0.79622 0.92802 0.0
H781 H 0.55614 0.81734 0.96207 0.0
H782 H 0.51935 0.84212 0.04641 0.0
H783 H 0.51334 0.90012 0.05257 0.0
H784 H 0.77098 0.76858 0.28482 0.0
H785 H 0.70337 0.76492 0.29087 0.0
H786 H 0.71425 0.86918 0.32358 0.0
H787 H 0.782 0.87312 0.31747 0.0
H788 H 0.66662 0.78829 0.34877 0.0
H789 H 0.62962 0.84767 0.24294 0.0
H790 H 0.67373 0.83081 0.24891 0.0
H791 H 0.66726 0.86876 0.27381 0.0
C792 C 0.75903 0.79072 0.29344 0.0
C793 C 0.78167 0.82117 0.30046 0.0
C794 C 0.72047 0.78857 0.29696 0.0
C795 C 0.70387 0.81681 0.30736 0.0
C796 C 0.72654 0.84717 0.31516 0.0
H797 H 0.45942 0.82775 0.29911 0.0
H798 H 0.52826 0.84341 0.31139 0.0
C799 C 0.76518 0.84935 0.31173 0.0
C800 C 0.66256 0.81429 0.30896 0.0
H801 H 0.57951 0.82922 0.26963 0.0
C802 C 0.64752 0.79748 0.3317 0.0
C803 C 0.63789 0.82656 0.28681 0.0
C804 C 0.6527 0.84431 0.26154 0.0
C805 C 0.60822 0.79199 0.33243 0.0
C806 C 0.58339 0.80294 0.30927 0.0
C807 C 0.59858 0.82084 0.28736 0.0
C808 C 0.54171 0.79379 0.3054 0.0
C809 C 0.59371 0.77438 0.3579 0.0
C810 C 0.52648 0.76077 0.29805 0.0
C811 C 0.48732 0.75181 0.2912 0.0
C812 C 0.46262 0.77571 0.29114 0.0
C813 C 0.47779 0.80881 0.29906 0.0
C814 C 0.51706 0.81777 0.30606 0.0
H815 H 0.61509 0.77783 0.3799 0.0
H816 H 0.56705 0.78295 0.36548 0.0
H817 H 0.58793 0.74785 0.34762 0.0
H818 H 0.54494 0.74183 0.29651 0.0
H819 H 0.4765 0.7261 0.28497 0.0
H820 H 0.40642 0.11567 0.4912 0.0
H821 H 0.41585 0.17523 0.49693 0.0
H822 H 0.49846 0.16709 0.42898 0.0
H823 H 0.48943 0.1078 0.42331 0.0
H824 H 0.48445 0.21787 0.51783 0.0
H825 H 0.42508 0.22496 0.39214 0.0
H826 H 0.41654 0.18875 0.40924 0.0
H827 H 0.46037 0.19756 0.39316 0.0
C828 C 0.42639 0.12662 0.47734 0.0
C829 C 0.44709 0.10711 0.45672 0.0
C830 C 0.43171 0.1606 0.48061 0.0
C831 C 0.45731 0.17549 0.46289 0.0
C832 C 0.478 0.15603 0.44235 0.0
H833 H 0.54697 0.36623 0.43859 0.0
H834 H 0.53087 0.30797 0.43766 0.0
C835 C 0.47296 0.12217 0.43929 0.0
C836 C 0.46383 0.21144 0.46669 0.0
H837 H 0.46245 0.2729 0.42347 0.0
C838 C 0.47933 0.23005 0.49734 0.0
C839 C 0.45702 0.22714 0.43989 0.0
C840 C 0.4385 0.20863 0.40681 0.0
C841 C 0.49003 0.26383 0.50155 0.0
C842 C 0.48415 0.27945 0.47449 0.0
C843 C 0.4674 0.2609 0.44412 0.0
C844 C 0.49574 0.31485 0.47675 0.0
C845 C 0.50911 0.2821 0.53455 0.0
C846 C 0.48167 0.3381 0.49917 0.0
C847 C 0.49079 0.37138 0.49975 0.0
C848 C 0.51426 0.38203 0.47788 0.0
C849 C 0.52896 0.35876 0.45584 0.0
C850 C 0.51965 0.32548 0.4552 0.0
H851 H 0.52084 0.26541 0.5497 0.0
H852 H 0.53248 0.30073 0.532 0.0
H853 H 0.48799 0.2947 0.54788 0.0
H854 H 0.46303 0.33052 0.51582 0.0
H855 H 0.47892 0.38874 0.51693 0.0
H856 H 0.25511 0.30286 0.71435 0.0
H857 H 0.18928 0.30221 0.72533 0.0
H858 H 0.22613 0.3166 0.82883 0.0
H859 H 0.29232 0.3179 0.81805 0.0
H860 H 0.1488 0.26001 0.75605 0.0
H861 H 0.15752 0.38804 0.82268 0.0
H862 H 0.19401 0.37376 0.79914 0.0
H863 H 0.19115 0.36428 0.839 0.0
C864 C 0.24923 0.30597 0.73946 0.0
C865 C 0.2788 0.31053 0.76536 0.0
C866 C 0.21163 0.3056 0.74569 0.0
C867 C 0.20293 0.30981 0.7779 0.0
C868 C 0.23235 0.31399 0.80385 0.0
H869 H 0.96933 0.26106 0.81386 0.0
H870 H 0.03867 0.26634 0.81864 0.0
C871 C 0.27006 0.3145 0.79763 0.0
C872 C 0.16283 0.30887 0.78393 0.0
H873 H 0.0988 0.35481 0.81826 0.0
C874 C 0.13787 0.28065 0.7698 0.0
C875 C 0.14874 0.33599 0.80167 0.0
C876 C 0.1741 0.36738 0.8163 0.0
C877 C 0.09899 0.27892 0.77246 0.0
C878 C 0.08489 0.30594 0.79038 0.0
C879 C 0.10988 0.33406 0.80486 0.0
C880 C 0.04382 0.30606 0.79225 0.0
C881 C 0.07317 0.24866 0.75498 0.0
C882 C 0.02408 0.32786 0.77743 0.0
C883 C 0.98455 0.32512 0.77494 0.0
C884 C 0.96424 0.30048 0.7872 0.0
C885 C 0.98425 0.28006 0.8039 0.0
C886 C 0.0238 0.28294 0.80653 0.0
H887 H 0.0872 0.23339 0.73652 0.0
H888 H 0.06506 0.2337 0.77305 0.0
H889 H 0.04681 0.25514 0.74254 0.0
H890 H 0.03912 0.346 0.76644 0.0
H891 H 0.96986 0.34136 0.76216 0.0
H892 H 0.92656 0.84427 0.89952 0.0
H893 H 0.91757 0.78549 0.89804 0.0
H894 H 0.01607 0.79551 0.96976 0.0
H895 H 0.02583 0.85432 0.97082 0.0
H896 H 0.9618 0.7388 0.88227 0.0
H897 H 0.93599 0.74648 0.01106 0.0
H898 H 0.93734 0.78126 0.99127 0.0
H899 H 0.98073 0.76854 0.00757 0.0
C900 C 0.94623 0.83397 0.91508 0.0
C901 C 0.97677 0.85389 0.93549 0.0
C902 C 0.94091 0.80041 0.91432 0.0
C903 C 0.96534 0.78625 0.93459 0.0
C904 C 0.99623 0.80604 0.9546 0.0
H905 H 0.00546 0.58604 0.91306 0.0
H906 H 0.00519 0.64396 0.91253 0.0
C907 C 0.00196 0.83957 0.95499 0.0
C908 C 0.95917 0.75065 0.93406 0.0
H909 H 0.94834 0.69434 0.983 0.0
C910 C 0.95856 0.72907 0.90425 0.0
C911 C 0.95406 0.73793 0.96259 0.0
C912 C 0.95164 0.75974 0.99487 0.0
C913 C 0.95444 0.69516 0.90242 0.0
C914 C 0.95179 0.6825 0.93133 0.0
C915 C 0.95089 0.70404 0.96091 0.0
C916 C 0.95145 0.64715 0.93159 0.0
C917 C 0.95279 0.67328 0.86944 0.0
C918 C 0.92191 0.62979 0.94349 0.0
C919 C 0.92221 0.59659 0.94421 0.0
C920 C 0.95215 0.58026 0.9331 0.0
C921 C 0.98179 0.59781 0.92149 0.0
C922 C 0.98156 0.63092 0.92095 0.0
H923 H 0.94268 0.68554 0.84935 0.0
H924 H 0.98169 0.66722 0.86569 0.0
H925 H 0.93377 0.65019 0.86767 0.0
H926 H 0.89854 0.6419 0.95209 0.0
H927 H 0.89907 0.58372 0.95341 0.0
H928 H 0.25285 0.37686 0.27943 0.0
H929 H 0.24478 0.43423 0.27953 0.0
H930 H 0.35808 0.45149 0.25425 0.0
H931 H 0.36603 0.3944 0.25348 0.0
H932 H 0.2854 0.4908 0.31649 0.0
H933 H 0.29548 0.48687 0.18516 0.0
H934 H 0.28853 0.45042 0.2021 0.0
H935 H 0.33533 0.47222 0.20506 0.0
C936 C 0.27588 0.39289 0.27367 0.0
C937 C 0.30993 0.38108 0.26612 0.0
C938 C 0.27128 0.42562 0.27382 0.0
C939 C 0.30057 0.44697 0.26631 0.0
C940 C 0.33475 0.43528 0.25932 0.0
H941 H 0.35454 0.65475 0.3113 0.0
H942 H 0.34295 0.59674 0.31289 0.0
C943 C 0.33931 0.40265 0.25904 0.0
C944 C 0.29604 0.48166 0.26626 0.0
H945 H 0.30515 0.53992 0.21949 0.0
C946 C 0.28918 0.50153 0.29518 0.0
C947 C 0.30022 0.49549 0.23827 0.0
C948 C 0.30489 0.47506 0.2058 0.0
C949 C 0.28821 0.53521 0.29728 0.0
C950 C 0.29512 0.54942 0.26993 0.0
C951 C 0.30022 0.5292 0.24061 0.0
C952 C 0.29904 0.58524 0.27128 0.0
C953 C 0.27977 0.55509 0.32879 0.0
C954 C 0.27865 0.59818 0.24713 0.0
C955 C 0.28588 0.63123 0.24574 0.0
C956 C 0.31346 0.65202 0.26863 0.0
C957 C 0.33288 0.63935 0.2935 0.0
C958 C 0.32603 0.6062 0.2946 0.0
H959 H 0.2623 0.53989 0.34224 0.0
H960 H 0.30684 0.56474 0.34477 0.0
H961 H 0.26462 0.57595 0.32433 0.0
H962 H 0.25781 0.5825 0.22879 0.0
H963 H 0.27043 0.64036 0.22634 0.0
H964 H 0.78702 0.16558 0.72486 0.0
H965 H 0.77725 0.10849 0.73086 0.0
H966 H 0.83177 0.13564 0.83037 0.0
H967 H 0.84091 0.19276 0.82475 0.0
H968 H 0.83257 0.0717 0.74283 0.0
H969 H 0.73969 0.07535 0.84063 0.0
H970 H 0.74714 0.10842 0.81887 0.0
H971 H 0.78151 0.10453 0.85215 0.0
C972 C 0.7963 0.15945 0.7482 0.0
C973 C 0.81468 0.18365 0.77435 0.0
C974 C 0.79074 0.12682 0.75158 0.0
C975 C 0.80334 0.11781 0.78119 0.0
C976 C 0.82098 0.14206 0.80755 0.0
H977 H 0.87513 0.93493 0.80941 0.0
H978 H 0.86891 0.99072 0.80263 0.0
C979 C 0.82641 0.1747 0.80423 0.0
C980 C 0.80112 0.08284 0.78364 0.0
H981 H 0.77205 0.02799 0.82989 0.0
C982 C 0.81894 0.06207 0.76164 0.0
C983 C 0.78297 0.07016 0.80792 0.0
C984 C 0.76141 0.0907 0.83102 0.0
C985 C 0.82027 0.0293 0.76396 0.0
C986 C 0.804 0.0171 0.7894 0.0
C987 C 0.78493 0.03749 0.81066 0.0
C988 C 0.80747 0.98353 0.7948 0.0
C989 C 0.83907 0.00806 0.73906 0.0
C990 C 0.775 0.96126 0.79393 0.0
C991 C 0.77852 0.92935 0.79821 0.0
C992 C 0.8146 0.91931 0.80354 0.0
C993 C 0.84698 0.94191 0.80515 0.0
C994 C 0.84346 0.97374 0.80104 0.0
H995 H 0.83951 0.0178 0.71613 0.0
H996 H 0.86892 0.00739 0.74917 0.0
H997 H 0.82437 0.9827 0.73303 0.0
H998 H 0.74695 0.96841 0.78939 0.0
H999 H 0.75307 0.91247 0.79695 0.0
H1000 H 0.39133 0.53992 0.0566 0.0
H1001 H 0.32192 0.53089 0.04904 0.0
H1002 H 0.32274 0.47486 0.95235 0.0
H1003 H 0.3922 0.48337 0.9599 0.0
H1004 H 0.27506 0.55047 0.00132 0.0
H1005 H 0.24915 0.41632 0.99163 0.0
H1006 H 0.29469 0.43978 0.00757 0.0
H1007 H 0.28044 0.42898 0.96419 0.0
C1008 C 0.37672 0.52535 0.03387 0.0
C1009 C 0.39713 0.51229 0.00884 0.0
C1010 C 0.33712 0.52024 0.0296 0.0
C1011 C 0.31725 0.50187 0.00032 0.0
C1012 C 0.33756 0.48852 0.9754 0.0
H1013 H 0.08393 0.46083 0.91266 0.0
H1014 H 0.15283 0.46507 0.92602 0.0
C1015 C 0.37721 0.49356 0.97968 0.0
C1016 C 0.2753 0.49849 0.99507 0.0
H1017 H 0.19583 0.44262 0.97662 0.0
C1018 C 0.25768 0.52692 0.99622 0.0
C1019 C 0.25282 0.46771 0.98833 0.0
C1020 C 0.27016 0.43645 0.98814 0.0
C1021 C 0.21813 0.5254 0.98998 0.0
C1022 C 0.19566 0.49461 0.98292 0.0
C1023 C 0.21323 0.46617 0.98205 0.0
C1024 C 0.1539 0.49142 0.97547 0.0
C1025 C 0.20078 0.55666 0.99003 0.0
C1026 C 0.13174 0.50445 0.99906 0.0
C1027 C 0.09237 0.50213 0.99149 0.0
C1028 C 0.07462 0.4866 0.96025 0.0
C1029 C 0.09685 0.47305 0.9369 0.0
C1030 C 0.13617 0.47537 0.94449 0.0
H1031 H 0.22222 0.57732 0.98852 0.0
H1032 H 0.17785 0.55373 0.96926 0.0
H1033 H 0.18817 0.56306 0.01303 0.0
H1034 H 0.1449 0.51644 0.0233 0.0
H1035 H 0.0759 0.51262 0.01002 0.0
H1036 H 0.97628 0.19149 0.30849 0.0
H1037 H 0.00736 0.14316 0.31509 0.0
H1038 H 0.90524 0.08114 0.26819 0.0
H1039 H 0.8745 0.12889 0.26109 0.0
H1040 H 0.98695 0.09648 0.3498 0.0
H1041 H 0.98473 0.03815 0.22104 0.0
H1042 H 0.97747 0.08032 0.23296 0.0
H1043 H 0.93838 0.04821 0.22793 0.0
C1044 C 0.96084 0.16749 0.29893 0.0
C1045 C 0.92306 0.16393 0.284 0.0
C1046 C 0.97856 0.13995 0.30288 0.0
C1047 C 0.95887 0.10851 0.29162 0.0
C1048 C 0.92138 0.10508 0.27629 0.0
H1049 H 0.92432 0.93525 0.35005 0.0
H1050 H 0.94389 0.99246 0.351 0.0
C1051 C 0.90373 0.13244 0.27239 0.0
C1052 C 0.9758 0.07901 0.29767 0.0
H1053 H 0.98072 0.00113 0.25971 0.0
C1054 C 0.98664 0.07584 0.33005 0.0
C1055 C 0.97673 0.05237 0.27197 0.0
C1056 C 0.96913 0.0551 0.23653 0.0
C1057 C 0.99455 0.0457 0.33749 0.0
C1058 C 0.99026 0.01796 0.31202 0.0
C1059 C 0.98336 0.0221 0.27947 0.0
C1060 C 0.98647 0.98408 0.31829 0.0
C1061 C 0.00622 0.04361 0.37262 0.0
C1062 C 0.00431 0.95989 0.30019 0.0
C1063 C 0.9923 0.92682 0.29895 0.0
C1064 C 0.96236 0.91748 0.31587 0.0
C1065 C 0.94737 0.94166 0.33662 0.0
C1066 C 0.95897 0.9746 0.33751 0.0
H1067 H 0.02211 0.06704 0.38642 0.0
H1068 H 0.98049 0.03868 0.38443 0.0
H1069 H 0.02406 0.02373 0.37448 0.0
H1070 H 0.02561 0.96653 0.28518 0.0
H1071 H 0.00458 0.9087 0.28292 0.0
H1072 H 0.88874 0.96206 0.00916 0.0
H1073 H 0.82772 0.97836 0.02312 0.0
H1074 H 0.82665 0.03902 0.95036 0.0
H1075 H 0.88777 0.02303 0.93628 0.0
H1076 H 0.80315 0.05419 0.03523 0.0
H1077 H 0.72993 0.95813 0.93148 0.0
H1078 H 0.77533 0.95389 0.95268 0.0
H1079 H 0.77241 0.98281 0.92614 0.0
C1080 C 0.87578 0.97923 0.99646 0.0
C1081 C 0.89284 0.99114 0.9715 0.0
C1082 C 0.84109 0.9886 0.00457 0.0
C1083 C 0.82301 0.00989 0.98778 0.0
C1084 C 0.84049 0.0227 0.96364 0.0
H1085 H 0.58589 0.0358 0.96796 0.0
H1086 H 0.65358 0.04004 0.96277 0.0
C1087 C 0.87526 0.01346 0.9556 0.0
C1088 C 0.78416 0.01613 0.99323 0.0
H1089 H 0.69172 0.98908 0.96338 0.0
C1090 C 0.77865 0.04016 0.01955 0.0
C1091 C 0.75261 0.99776 0.97255 0.0
C1092 C 0.75749 0.97158 0.94409 0.0
C1093 C 0.74192 0.04634 0.02572 0.0
C1094 C 0.71021 0.02748 0.00536 0.0
C1095 C 0.71603 0.00363 0.97889 0.0
C1096 C 0.67055 0.03106 0.01116 0.0
C1097 C 0.73745 0.07324 0.05361 0.0
C1098 C 0.6577 0.02561 0.04049 0.0
C1099 C 0.61898 0.02362 0.04366 0.0
C1100 C 0.59258 0.02641 0.01731 0.0
C1101 C 0.60566 0.03341 0.9886 0.0
C1102 C 0.6443 0.03583 0.98561 0.0
H1103 H 0.76325 0.09148 0.06005 0.0
H1104 H 0.71266 0.08594 0.04756 0.0
H1105 H 0.73294 0.06258 0.07549 0.0
H1106 H 0.67729 0.02112 0.06026 0.0
H1107 H 0.60957 0.01795 0.06595 0.0
H1108 H 0.34861 0.64207 0.76202 0.0
H1109 H 0.37289 0.59005 0.76313 0.0
H1110 H 0.4833 0.64078 0.80502 0.0
H1111 H 0.45892 0.69319 0.80455 0.0
H1112 H 0.43182 0.56424 0.73375 0.0
H1113 H 0.45935 0.58079 0.86934 0.0
H1114 H 0.43143 0.6066 0.84923 0.0
H1115 H 0.48216 0.61185 0.85095 0.0
C1116 C 0.3781 0.6422 0.77135 0.0
C1117 C 0.40182 0.67168 0.78332 0.0
C1118 C 0.39195 0.61246 0.77196 0.0
C1119 C 0.42976 0.61157 0.78454 0.0
C1120 C 0.45387 0.64095 0.79575 0.0
H1121 H 0.48643 0.41 0.75274 0.0
H1122 H 0.49979 0.4695 0.75934 0.0
C1123 C 0.43996 0.67082 0.79526 0.0
C1124 C 0.44316 0.5796 0.78595 0.0
H1125 H 0.46784 0.53005 0.8389 0.0
C1126 C 0.44035 0.55684 0.75667 0.0
C1127 C 0.45421 0.57017 0.81596 0.0
C1128 C 0.4568 0.59345 0.84825 0.0
C1129 C 0.44602 0.5243 0.75661 0.0
C1130 C 0.45576 0.51449 0.78671 0.0
C1131 C 0.46071 0.53774 0.81589 0.0
C1132 C 0.45451 0.47952 0.78867 0.0
C1133 C 0.43879 0.50029 0.72451 0.0
C1134 C 0.42656 0.46566 0.80494 0.0
C1135 C 0.41927 0.4319 0.8016 0.0
C1136 C 0.43972 0.41134 0.7818 0.0
C1137 C 0.47001 0.42528 0.7679 0.0
C1138 C 0.47748 0.45922 0.77146 0.0
H1139 H 0.42526 0.51088 0.70439 0.0
H1140 H 0.46613 0.49279 0.71756 0.0
H1141 H 0.42016 0.47811 0.7267 0.0
H1142 H 0.40864 0.48084 0.81852 0.0
H1143 H 0.39598 0.4219 0.81288 0.0
H1144 H 0.0996 0.4674 0.44557 0.0
H1145 H 0.16787 0.4776 0.4441 0.0
H1146 H 0.18311 0.52847 0.54443 0.0
H1147 H 0.11471 0.51746 0.54638 0.0
H1148 H 0.21804 0.53314 0.45386 0.0
H1149 H 0.25314 0.45903 0.54778 0.0
H1150 H 0.20524 0.45887 0.52912 0.0
H1151 H 0.22704 0.49215 0.56105 0.0
C1152 C 0.11745 0.48089 0.4673 0.0
C1153 C 0.10194 0.49133 0.49622 0.0
C1154 C 0.15644 0.48676 0.46639 0.0
C1155 C 0.18061 0.50327 0.49432 0.0
C1156 C 0.16502 0.515 0.52284 0.0
H1157 H 0.4287 0.52991 0.52499 0.0
H1158 H 0.36232 0.5371 0.53042 0.0
C1159 C 0.12598 0.50886 0.52387 0.0
C1160 C 0.22217 0.50699 0.49361 0.0
H1161 H 0.30441 0.48449 0.52684 0.0
C1162 C 0.23699 0.5227 0.46994 0.0
C1163 C 0.24678 0.49321 0.51456 0.0
C1164 C 0.23231 0.47461 0.53938 0.0
C1165 C 0.27573 0.52467 0.46642 0.0
C1166 C 0.30011 0.51042 0.48701 0.0
C1167 C 0.28555 0.49554 0.51124 0.0
C1168 C 0.34036 0.50869 0.48255 0.0
C1169 C 0.29024 0.54177 0.44059 0.0
C1170 C 0.34982 0.4903 0.45386 0.0
C1171 C 0.38757 0.48603 0.45076 0.0
C1172 C 0.41645 0.5 0.47637 0.0
C1173 C 0.407 0.51892 0.50485 0.0
C1174 C 0.36919 0.52307 0.50798 0.0
H1175 H 0.27069 0.55881 0.43316 0.0
H1176 H 0.3188 0.55561 0.44937 0.0
H1177 H 0.29257 0.52333 0.4186 0.0
H1178 H 0.32787 0.47846 0.43424 0.0
H1179 H 0.39401 0.47126 0.42856 0.0
H1180 H 0.85209 0.76872 0.90266 0.0
H1181 H 0.86256 0.76891 0.96136 0.0
H1182 H 0.80958 0.85679 0.98073 0.0
H1183 H 0.80001 0.85735 0.92206 0.0
H1184 H 0.90454 0.82786 0.01086 0.0
H1185 H 0.75703 0.78762 0.03144 0.0
H1186 H 0.77348 0.7781 0.99194 0.0
H1187 H 0.76352 0.8186 0.00714 0.0
C1188 C 0.84258 0.78805 0.91941 0.0
C1189 C 0.82559 0.81322 0.90783 0.0
C1190 C 0.84851 0.78805 0.95287 0.0
C1191 C 0.83674 0.81281 0.97521 0.0
C1192 C 0.8186 0.83737 0.96373 0.0
H1193 H 0.84254 0.85972 0.18438 0.0
H1194 H 0.83219 0.85628 0.12525 0.0
C1195 C 0.81308 0.83761 0.93026 0.0
C1196 C 0.84489 0.81375 0.01067 0.0
H1197 H 0.80283 0.80374 0.07809 0.0
C1198 C 0.88248 0.82226 0.02562 0.0
C1199 C 0.81584 0.80685 0.02965 0.0
C1200 C 0.77515 0.79707 0.01437 0.0
C1201 C 0.89182 0.8245 0.0594 0.0
C1202 C 0.86272 0.81764 0.07854 0.0
C1203 C 0.8251 0.80899 0.06341 0.0
C1204 C 0.87035 0.82017 0.11445 0.0
C1205 C 0.93254 0.83509 0.07433 0.0
C1206 C 0.89519 0.80094 0.12805 0.0
C1207 C 0.90139 0.80305 0.16194 0.0
C1208 C 0.88248 0.82414 0.18272 0.0
C1209 C 0.85756 0.84327 0.16901 0.0
C1210 C 0.85157 0.84129 0.13522 0.0
H1211 H 0.94908 0.84762 0.05814 0.0
H1212 H 0.93426 0.85172 0.09836 0.0
H1213 H 0.94612 0.81326 0.07818 0.0
H1214 H 0.90934 0.78394 0.11245 0.0
H1215 H 0.92053 0.78784 0.1718 0.0
H1216 H 0.5891 0.45162 0.37119 0.0
H1217 H 0.5948 0.45197 0.31341 0.0
H1218 H 0.51738 0.52419 0.31365 0.0
H1219 H 0.51107 0.52356 0.37089 0.0
H1220 H 0.49828 0.47149 0.26243 0.0
H1221 H 0.65038 0.52161 0.27182 0.0
H1222 H 0.64059 0.4864 0.28989 0.0
H1223 H 0.62481 0.52425 0.30691 0.0
C1224 C 0.57367 0.46782 0.35896 0.0
C1225 C 0.54965 0.48757 0.37552 0.0
C1226 C 0.57705 0.46807 0.32602 0.0
C1227 C 0.55673 0.4883 0.30935 0.0
C1228 C 0.5333 0.5084 0.32608 0.0
H1229 H 0.56603 0.56123 0.13371 0.0
H1230 H 0.57396 0.54953 0.18889 0.0
C1231 C 0.52979 0.50806 0.35881 0.0
C1232 C 0.55814 0.48779 0.27408 0.0
H1233 H 0.61592 0.508 0.21901 0.0
C1234 C 0.52405 0.4792 0.25284 0.0
C1235 C 0.59181 0.49799 0.26178 0.0
C1236 C 0.62899 0.50835 0.28373 0.0
C1237 C 0.52239 0.48146 0.21978 0.0
C1238 C 0.55598 0.49196 0.20747 0.0
C1239 C 0.59031 0.49974 0.22851 0.0
C1240 C 0.55519 0.49782 0.17362 0.0
C1241 C 0.48435 0.47408 0.19872 0.0
C1242 C 0.54307 0.47244 0.14665 0.0
C1243 C 0.53823 0.47911 0.11507 0.0
C1244 C 0.54578 0.51122 0.10999 0.0
C1245 C 0.55981 0.53627 0.13687 0.0
C1246 C 0.56446 0.52962 0.16841 0.0
H1247 H 0.46041 0.47305 0.21355 0.0
H1248 H 0.48061 0.49277 0.18337 0.0
H1249 H 0.48274 0.45004 0.18223 0.0
H1250 H 0.53644 0.44763 0.15012 0.0
H1251 H 0.52767 0.45928 0.09476 0.0
H1252 H 0.85886 0.31882 0.3943 0.0
H1253 H 0.85334 0.32882 0.45304 0.0
H1254 H 0.87932 0.23156 0.45755 0.0
H1255 H 0.88437 0.2214 0.39927 0.0
H1256 H 0.81657 0.2432 0.48379 0.0
H1257 H 0.9268 0.32313 0.49364 0.0
H1258 H 0.92952 0.34695 0.53427 0.0
H1259 H 0.8959 0.35382 0.50196 0.0
C1260 C 0.864 0.29985 0.40805 0.0
C1261 C 0.87175 0.26927 0.39226 0.0
C1262 C 0.86106 0.30563 0.44161 0.0
C1263 C 0.86625 0.28102 0.45979 0.0
C1264 C 0.87523 0.25092 0.44407 0.0
H1265 H 0.87527 0.23934 0.65049 0.0
H1266 H 0.87756 0.24266 0.5931 0.0
C1267 C 0.87802 0.24512 0.41072 0.0
C1268 C 0.85946 0.28508 0.49449 0.0
H1269 H 0.89081 0.32858 0.57139 0.0
C1270 C 0.83274 0.26199 0.50287 0.0
C1271 C 0.88022 0.30983 0.51939 0.0
C1272 C 0.90993 0.33478 0.51206 0.0
C1273 C 0.82717 0.26225 0.53545 0.0
C1274 C 0.84883 0.28621 0.56032 0.0
C1275 C 0.87433 0.31024 0.55207 0.0
C1276 C 0.84745 0.28489 0.59509 0.0
C1277 C 0.79869 0.2365 0.54321 0.0
C1278 C 0.82984 0.30767 0.61505 0.0
C1279 C 0.82808 0.30562 0.64781 0.0
C1280 C 0.84448 0.28106 0.66107 0.0
C1281 C 0.8623 0.25846 0.64095 0.0
C1282 C 0.86369 0.26034 0.60822 0.0
H1283 H 0.77884 0.2241 0.52124 0.0
H1284 H 0.81398 0.21781 0.5528 0.0
H1285 H 0.782 0.24735 0.56232 0.0
H1286 H 0.81723 0.3268 0.60521 0.0
H1287 H 0.81431 0.32345 0.66281 0.0
H1288 H 0.889 0.42059 0.55962 0.0
H1289 H 0.86437 0.41171 0.61032 0.0
H1290 H 0.95699 0.47959 0.66663 0.0
H1291 H 0.98146 0.48867 0.61645 0.0
H1292 H 0.90085 0.38812 0.66213 0.0
H1293 H 0.86456 0.51172 0.70541 0.0
H1294 H 0.87222 0.49745 0.66363 0.0
H1295 H 0.9119 0.51323 0.69468 0.0
C1296 C 0.90371 0.43397 0.58284 0.0
C1297 C 0.93698 0.45556 0.5841 0.0
C1298 C 0.8897 0.42878 0.61173 0.0
C1299 C 0.90846 0.44545 0.64221 0.0
C1300 C 0.94154 0.46706 0.64338 0.0
H1301 H 0.95991 0.41609 0.82955 0.0
H1302 H 0.94431 0.40785 0.77072 0.0
C1303 C 0.95562 0.4721 0.61466 0.0
C1304 C 0.89519 0.43937 0.67318 0.0
H1305 H 0.87885 0.48018 0.74719 0.0
C1306 C 0.89515 0.40805 0.68055 0.0
C1307 C 0.88671 0.4651 0.6969 0.0
C1308 C 0.88342 0.49867 0.68962 0.0
C1309 C 0.89029 0.40254 0.71204 0.0
C1310 C 0.88599 0.42914 0.7368 0.0
C1311 C 0.88257 0.45975 0.72847 0.0
C1312 C 0.89054 0.42732 0.77209 0.0
C1313 C 0.891 0.36849 0.71867 0.0
C1314 C 0.8654 0.44068 0.79288 0.0
C1315 C 0.87478 0.44614 0.82689 0.0
C1316 C 0.90948 0.43831 0.84057 0.0
C1317 C 0.933 0.42248 0.81978 0.0
C1318 C 0.92383 0.41736 0.78595 0.0
H1319 H 0.88013 0.35004 0.69633 0.0
H1320 H 0.92072 0.36469 0.72596 0.0
H1321 H 0.8739 0.36426 0.73849 0.0
H1322 H 0.83956 0.44861 0.7828 0.0
H1323 H 0.85598 0.4582 0.84232 0.0
H1324 H 0.86314 0.00575 0.52175 0.0
H1325 H 0.79397 0.00112 0.51519 0.0
H1326 H 0.78971 0.94984 0.41581 0.0
H1327 H 0.85917 0.95378 0.42246 0.0
H1328 H 0.7517 0.0279 0.47101 0.0
H1329 H 0.70904 0.89398 0.45063 0.0
H1330 H 0.75671 0.91265 0.46686 0.0
H1331 H 0.741 0.90702 0.42384 0.0
C1332 C 0.84747 0.99307 0.49863 0.0
C1333 C 0.86648 0.98016 0.47258 0.0
C1334 C 0.80797 0.99045 0.49493 0.0
C1335 C 0.78671 0.97491 0.46512 0.0
C1336 C 0.80555 0.96135 0.43922 0.0
H1337 H 0.54494 0.96736 0.40027 0.0
H1338 H 0.61267 0.96129 0.40268 0.0
C1339 C 0.84519 0.96378 0.44299 0.0
C1340 C 0.74514 0.97537 0.46069 0.0
H1341 H 0.65972 0.92698 0.44462 0.0
C1342 C 0.73161 0.00582 0.4653 0.0
C1343 C 0.71905 0.94651 0.45293 0.0
C1344 C 0.73206 0.91315 0.44852 0.0
C1345 C 0.69266 0.00826 0.46265 0.0
C1346 C 0.6666 0.97947 0.45558 0.0
C1347 C 0.67995 0.94896 0.45019 0.0
C1348 C 0.62537 0.98084 0.45451 0.0
C1349 C 0.67966 0.04165 0.46729 0.0
C1350 C 0.6102 0.99318 0.48301 0.0
C1351 C 0.57169 0.99666 0.48174 0.0
C1352 C 0.54774 0.98781 0.45192 0.0
C1353 C 0.5628 0.97452 0.42356 0.0
C1354 C 0.60137 0.97096 0.42488 0.0
H1355 H 0.70257 0.06084 0.46501 0.0
H1356 H 0.6548 0.04214 0.44915 0.0
H1357 H 0.67097 0.04773 0.49207 0.0
H1358 H 0.62832 0.00056 0.50616 0.0
H1359 H 0.56083 0.0068 0.50401 0.0
loop_
_geom_bond_atom_site_label_1
_geom_bond_atom_site_label_2
_geom_bond_distance
_geom_bond_site_symmetry_2
_ccdc_geom_bond_type
In0 O1 2.294 . S
In0 O2 2.326 . S
In0 O6 2.266 . S
In0 O7 2.326 . S
In0 O8 2.266 . S
In0 O9 2.326 . S
In0 O11 2.294 . S
In0 O12 2.326 . S
O1 In0 2.294 . S
O1 C10 1.240 . S
O2 In0 2.326 . S
O2 C10 1.252 . S
C3 O6 1.252 . S
C3 O7 1.260 . S
C4 O11 1.240 . S
C4 O12 1.252 . S
C5 O8 1.252 . S
C5 O9 1.260 . S
O6 In0 2.266 . S
O6 C3 1.252 . S
O7 In0 2.326 . S
O7 C3 1.260 . S
O8 In0 2.266 . S
O8 C5 1.252 . S
O9 In0 2.326 . S
O9 C5 1.260 . S
C10 O1 1.240 . S
C10 O2 1.252 . S
O11 In0 2.294 . S
O11 C4 1.240 . S
O12 In0 2.326 . S
O12 C4 1.252 . S
In13 O14 2.294 1_655 S
In13 O15 2.329 1_545 S
In13 O19 2.263 1_655 S
In13 O20 2.323 . S
In13 O21 2.267 1_545 S
In13 O22 2.324 . S
In13 O24 2.296 1_645 S
In13 O25 2.327 1_645 S
O14 In13 2.294 1_455 S
O14 C23 1.240 1_545 S
O15 In13 2.329 1_565 S
O15 C23 1.252 1_655 S
C16 O19 1.252 1_655 S
C16 O20 1.260 . S
C17 O24 1.240 . S
C17 O25 1.252 . S
C18 O21 1.245 1_545 S
C18 O22 1.266 . S
O19 In13 2.263 1_455 S
O19 C16 1.252 1_455 S
O20 In13 2.323 . S
O20 C16 1.260 . S
O21 In13 2.267 1_565 S
O21 C18 1.245 1_565 S
O22 In13 2.324 . S
O22 C18 1.266 . S
C23 O14 1.240 1_565 S
C23 O15 1.252 1_455 S
O24 In13 2.296 1_465 S
O24 C17 1.240 . S
O25 In13 2.327 1_465 S
O25 C17 1.252 . S
In26 O27 2.294 . S
In26 O28 2.326 . S
In26 O32 2.266 . S
In26 O33 2.326 . S
In26 O34 2.266 . S
In26 O35 2.326 . S
In26 O37 2.294 . S
In26 O38 2.326 . S
O27 In26 2.294 . S
O27 C36 1.240 . S
O28 In26 2.326 . S
O28 C36 1.252 . S
C29 O32 1.252 . S
C29 O33 1.260 . S
C30 O37 1.240 . S
C30 O38 1.252 . S
C31 O34 1.252 . S
C31 O35 1.260 . S
O32 In26 2.266 . S
O32 C29 1.252 . S
O33 In26 2.326 . S
O33 C29 1.260 . S
O34 In26 2.266 . S
O34 C31 1.252 . S
O35 In26 2.326 . S
O35 C31 1.260 . S
C36 O27 1.240 . S
C36 O28 1.252 . S
O37 In26 2.294 . S
O37 C30 1.240 . S
O38 In26 2.326 . S
O38 C30 1.252 . S
In39 O40 2.294 1_554 S
In39 O41 2.326 1_565 S
In39 O45 2.266 1_554 S
In39 O46 2.326 . S
In39 O47 2.266 . S
In39 O48 2.326 . S
In39 O50 2.294 . S
In39 O51 2.326 1_554 S
O40 In39 2.294 1_556 S
O40 C49 1.240 1_565 S
O41 In39 2.326 1_545 S
O41 C49 1.252 1_554 S
C42 O45 1.252 1_554 S
C42 O46 1.260 . S
C43 O50 1.240 1_556 S
C43 O51 1.252 . S
C44 O47 1.252 . S
C44 O48 1.260 . S
O45 In39 2.266 1_556 S
O45 C42 1.252 1_556 S
O46 In39 2.326 . S
O46 C42 1.260 . S
O47 In39 2.266 . S
O47 C44 1.252 . S
O48 In39 2.326 . S
O48 C44 1.260 . S
C49 O40 1.240 1_545 S
C49 O41 1.252 1_556 S
O50 In39 2.294 . S
O50 C43 1.240 1_554 S
O51 In39 2.326 1_556 S
O51 C43 1.252 . S
In52 O53 2.294 . S
In52 O54 2.326 . S
In52 O58 2.266 . S
In52 O59 2.326 . S
In52 O60 2.266 . S
In52 O61 2.326 . S
In52 O63 2.294 . S
In52 O64 2.326 . S
O53 In52 2.294 . S
O53 C62 1.240 . S
O54 In52 2.326 . S
O54 C62 1.252 . S
C55 O58 1.252 . S
C55 O59 1.260 . S
C56 O63 1.240 . S
C56 O64 1.252 . S
C57 O60 1.252 . S
C57 O61 1.260 . S
O58 In52 2.266 . S
O58 C55 1.252 . S
O59 In52 2.326 . S
O59 C55 1.260 . S
O60 In52 2.266 . S
O60 C57 1.252 . S
O61 In52 2.326 . S
O61 C57 1.260 . S
C62 O53 1.240 . S
C62 O54 1.252 . S
O63 In52 2.294 . S
O63 C56 1.240 . S
O64 In52 2.326 . S
O64 C56 1.252 . S
In65 O66 2.294 . S
In65 O67 2.326 1_545 S
In65 O71 2.266 . S
In65 O72 2.326 . S
In65 O73 2.268 . S
In65 O74 2.326 . S
In65 O76 2.295 . S
In65 O77 2.326 . S
O66 In65 2.294 . S
O66 C75 1.240 1_545 S
O67 In65 2.326 1_565 S
O67 C75 1.252 . S
C68 O71 1.252 . S
C68 O72 1.260 . S
C69 O76 1.240 . S
C69 O77 1.252 . S
C70 O73 1.255 . S
C70 O74 1.260 . S
O71 In65 2.266 . S
O71 C68 1.252 . S
O72 In65 2.326 . S
O72 C68 1.260 . S
O73 In65 2.268 . S
O73 C70 1.255 . S
O74 In65 2.326 . S
O74 C70 1.260 . S
C75 O66 1.240 1_565 S
C75 O67 1.252 . S
O76 In65 2.295 . S
O76 C69 1.240 . S
O77 In65 2.326 . S
O77 C69 1.252 . S
In78 O79 2.294 . S
In78 O80 2.326 . S
In78 O84 2.266 . S
In78 O85 2.326 . S
In78 O86 2.266 . S
In78 O87 2.326 . S
In78 O89 2.294 . S
In78 O90 2.326 . S
O79 In78 2.294 . S
O79 C88 1.240 . S
O80 In78 2.326 . S
O80 C88 1.252 . S
C81 O84 1.252 . S
C81 O85 1.260 . S
C82 O89 1.240 . S
C82 O90 1.252 . S
C83 O86 1.252 . S
C83 O87 1.260 . S
O84 In78 2.266 . S
O84 C81 1.252 . S
O85 In78 2.326 . S
O85 C81 1.260 . S
O86 In78 2.266 . S
O86 C83 1.252 . S
O87 In78 2.326 . S
O87 C83 1.260 . S
C88 O79 1.240 . S
C88 O80 1.252 . S
O89 In78 2.294 . S
O89 C82 1.240 . S
O90 In78 2.326 . S
O90 C82 1.252 . S
In91 O92 2.295 . S
In91 O93 2.327 . S
In91 O97 2.266 . S
In91 O98 2.325 1_655 S
In91 O99 2.266 1_655 S
In91 O100 2.326 . S
In91 O102 2.293 1_655 S
In91 O103 2.326 1_665 S
O92 In91 2.295 . S
O92 C101 1.240 . S
O93 In91 2.327 . S
O93 C101 1.252 . S
C94 O97 1.252 1_455 S
C94 O98 1.260 . S
C95 O102 1.240 1_545 S
C95 O103 1.252 . S
C96 O99 1.252 . S
C96 O100 1.260 1_455 S
O97 In91 2.266 . S
O97 C94 1.252 1_655 S
O98 In91 2.325 1_455 S
O98 C94 1.260 . S
O99 In91 2.266 1_455 S
O99 C96 1.252 . S
O100 In91 2.326 . S
O100 C96 1.260 1_655 S
C101 O92 1.240 . S
C101 O93 1.252 . S
O102 In91 2.293 1_455 S
O102 C95 1.240 1_565 S
O103 In91 2.326 1_445 S
O103 C95 1.252 . S
In104 O105 2.294 . S
In104 O106 2.326 . S
In104 O110 2.266 . S
In104 O111 2.326 . S
In104 O112 2.266 . S
In104 O113 2.326 . S
In104 O115 2.294 . S
In104 O116 2.326 . S
O105 In104 2.294 . S
O105 C114 1.240 . S
O106 In104 2.326 . S
O106 C114 1.252 . S
C107 O110 1.252 . S
C107 O111 1.260 . S
C108 O115 1.240 . S
C108 O116 1.252 . S
C109 O112 1.252 . S
C109 O113 1.260 . S
O110 In104 2.266 . S
O110 C107 1.252 . S
O111 In104 2.326 . S
O111 C107 1.260 . S
O112 In104 2.266 . S
O112 C109 1.252 . S
O113 In104 2.326 . S
O113 C109 1.260 . S
C114 O105 1.240 . S
C114 O106 1.252 . S
O115 In104 2.294 . S
O115 C108 1.240 . S
O116 In104 2.326 . S
O116 C108 1.252 . S
In117 O118 2.296 . S
In117 O119 2.327 . S
In117 O123 2.266 . S
In117 O124 2.324 1_455 S
In117 O125 2.265 1_455 S
In117 O126 2.326 . S
In117 O128 2.293 1_455 S
In117 O129 2.326 1_455 S
O118 In117 2.296 . S
O118 C127 1.240 . S
O119 In117 2.327 . S
O119 C127 1.252 . S
C120 O123 1.252 1_655 S
C120 O124 1.260 . S
C121 O128 1.240 . S
C121 O129 1.252 . S
C122 O125 1.252 . S
C122 O126 1.260 1_655 S
O123 In117 2.266 . S
O123 C120 1.252 1_455 S
O124 In117 2.324 1_655 S
O124 C120 1.260 . S
O125 In117 2.265 1_655 S
O125 C122 1.252 . S
O126 In117 2.326 . S
O126 C122 1.260 1_455 S
C127 O118 1.240 . S
C127 O119 1.252 . S
O128 In117 2.293 1_655 S
O128 C121 1.240 . S
O129 In117 2.326 1_655 S
O129 C121 1.252 . S
In130 O131 2.294 . S
In130 O132 2.326 . S
In130 O136 2.266 . S
In130 O137 2.326 . S
In130 O138 2.266 . S
In130 O139 2.326 . S
In130 O141 2.294 . S
In130 O142 2.326 . S
O131 In130 2.294 . S
O131 C140 1.240 . S
O132 In130 2.326 . S
O132 C140 1.252 . S
C133 O136 1.252 . S
C133 O137 1.260 . S
C134 O141 1.240 . S
C134 O142 1.252 . S
C135 O138 1.252 . S
C135 O139 1.260 . S
O136 In130 2.266 . S
O136 C133 1.252 . S
O137 In130 2.326 . S
O137 C133 1.260 . S
O138 In130 2.266 . S
O138 C135 1.252 . S
O139 In130 2.326 . S
O139 C135 1.260 . S
C140 O131 1.240 . S
C140 O132 1.252 . S
O141 In130 2.294 . S
O141 C134 1.240 . S
O142 In130 2.326 . S
O142 C134 1.252 . S
In143 O144 2.294 . S
In143 O145 2.326 . S
In143 O149 2.266 . S
In143 O150 2.326 1_455 S
In143 O151 2.266 1_455 S
In143 O152 2.326 . S
In143 O154 2.294 1_455 S
In143 O155 2.326 . S
O144 In143 2.294 . S
O144 C153 1.240 . S
O145 In143 2.326 . S
O145 C153 1.252 . S
C146 O149 1.252 1_655 S
C146 O150 1.260 . S
C147 O154 1.240 . S
C147 O155 1.252 1_655 S
C148 O151 1.252 . S
C148 O152 1.260 1_655 S
O149 In143 2.266 . S
O149 C146 1.252 1_455 S
O150 In143 2.326 1_655 S
O150 C146 1.260 . S
O151 In143 2.266 1_655 S
O151 C148 1.252 . S
O152 In143 2.326 . S
O152 C148 1.260 1_455 S
C153 O144 1.240 . S
C153 O145 1.252 . S
O154 In143 2.294 1_655 S
O154 C147 1.240 . S
O155 In143 2.326 . S
O155 C147 1.252 1_455 S
In156 O157 2.294 1_554 S
In156 O158 2.326 . S
In156 O162 2.266 1_554 S
In156 O163 2.326 . S
In156 O164 2.266 . S
In156 O165 2.326 1_554 S
In156 O167 2.294 . S
In156 O168 2.326 . S
O157 In156 2.294 1_556 S
O157 C166 1.240 1_556 S
O158 In156 2.326 . S
O158 C166 1.252 . S
C159 O162 1.252 1_554 S
C159 O163 1.260 . S
C160 O167 1.240 . S
C160 O168 1.252 . S
C161 O164 1.252 . S
C161 O165 1.260 1_554 S
O162 In156 2.266 1_556 S
O162 C159 1.252 1_556 S
O163 In156 2.326 . S
O163 C159 1.260 . S
O164 In156 2.266 . S
O164 C161 1.252 . S
O165 In156 2.326 1_556 S
O165 C161 1.260 1_556 S
C166 O157 1.240 1_554 S
C166 O158 1.252 . S
O167 In156 2.294 . S
O167 C160 1.240 . S
O168 In156 2.326 . S
O168 C160 1.252 . S
In169 O170 2.294 . S
In169 O171 2.326 . S
In169 O175 2.266 . S
In169 O176 2.326 . S
In169 O177 2.266 . S
In169 O178 2.326 . S
In169 O180 2.294 . S
In169 O181 2.326 . S
O170 In169 2.294 . S
O170 C179 1.240 . S
O171 In169 2.326 . S
O171 C179 1.252 . S
C172 O175 1.252 . S
C172 O176 1.260 . S
C173 O180 1.240 . S
C173 O181 1.252 . S
C174 O177 1.252 . S
C174 O178 1.260 . S
O175 In169 2.266 . S
O175 C172 1.252 . S
O176 In169 2.326 . S
O176 C172 1.260 . S
O177 In169 2.266 . S
O177 C174 1.252 . S
O178 In169 2.326 . S
O178 C174 1.260 . S
C179 O170 1.240 . S
C179 O171 1.252 . S
O180 In169 2.294 . S
O180 C173 1.240 . S
O181 In169 2.326 . S
O181 C173 1.252 . S
In182 O183 2.294 . S
In182 O184 2.326 . S
In182 O188 2.266 . S
In182 O189 2.326 . S
In182 O190 2.266 . S
In182 O191 2.326 . S
In182 O193 2.294 . S
In182 O194 2.326 . S
O183 In182 2.294 . S
O183 C192 1.240 . S
O184 In182 2.326 . S
O184 C192 1.252 . S
C185 O188 1.252 . S
C185 O189 1.260 . S
C186 O193 1.240 . S
C186 O194 1.252 . S
C187 O190 1.252 . S
C187 O191 1.260 . S
O188 In182 2.266 . S
O188 C185 1.252 . S
O189 In182 2.326 . S
O189 C185 1.260 . S
O190 In182 2.266 . S
O190 C187 1.252 . S
O191 In182 2.326 . S
O191 C187 1.260 . S
C192 O183 1.240 . S
C192 O184 1.252 . S
O193 In182 2.294 . S
O193 C186 1.240 . S
O194 In182 2.326 . S
O194 C186 1.252 . S
In195 O196 2.294 . S
In195 O197 2.326 . S
In195 O201 2.266 . S
In195 O202 2.326 . S
In195 O203 2.266 . S
In195 O204 2.326 . S
In195 O206 2.294 . S
In195 O207 2.326 . S
O196 In195 2.294 . S
O196 C205 1.240 . S
O197 In195 2.326 . S
O197 C205 1.252 . S
C198 O201 1.252 . S
C198 O202 1.260 . S
C199 O206 1.240 . S
C199 O207 1.252 . S
C200 O203 1.252 . S
C200 O204 1.260 . S
O201 In195 2.266 . S
O201 C198 1.252 . S
O202 In195 2.326 . S
O202 C198 1.260 . S
O203 In195 2.266 . S
O203 C200 1.252 . S
O204 In195 2.326 . S
O204 C200 1.260 . S
C205 O196 1.240 . S
C205 O197 1.252 . S
O206 In195 2.294 . S
O206 C199 1.240 . S
O207 In195 2.326 . S
O207 C199 1.252 . S
H208 C216 0.929 . S
H209 C218 0.930 . S
H210 C220 0.930 . S
H211 C223 0.929 . S
H212 C226 0.930 . S
H213 C228 0.960 . S
H214 C228 0.960 . S
H215 C228 0.960 . S
C216 H208 0.929 . S
C216 C217 1.377 . S
C216 C218 1.384 . S
C217 C216 1.377 . S
C217 C223 1.390 . S
C218 H209 0.930 . S
C218 C216 1.384 . S
C218 C219 1.372 . S
C219 C218 1.372 . S
C219 C220 1.400 . S
C219 C224 1.490 . S
C220 H210 0.930 . S
C220 C219 1.400 . S
C220 C223 1.386 . S
H221 C237 0.930 . S
H222 C238 0.931 . S
C223 H211 0.929 . S
C223 C217 1.390 . S
C223 C220 1.386 . S
C224 C219 1.490 . S
C224 C226 1.395 . S
C224 C227 1.403 . S
H225 C231 0.930 . S
C226 H212 0.930 . S
C226 C224 1.395 . S
C226 C229 1.403 . S
C227 C224 1.403 . S
C227 C228 1.524 . S
C227 C231 1.400 . S
C228 H213 0.960 . S
C228 H214 0.960 . S
C228 H215 0.960 . S
C228 C227 1.524 . S
C229 C226 1.403 . S
C229 C230 1.392 . S
C229 C233 1.495 . S
C230 C229 1.392 . S
C230 C231 1.385 . S
C230 C232 1.478 . S
C231 H225 0.930 . S
C231 C227 1.400 . S
C231 C230 1.385 . S
C232 C230 1.478 . S
C232 C234 1.381 . S
C232 C238 1.383 . S
C233 C229 1.495 . S
C233 H239 0.959 . S
C233 H240 0.961 . S
C233 H241 0.960 . S
C234 C232 1.381 . S
C234 C235 1.394 1_554 S
C234 H242 0.930 . S
C235 C234 1.394 1_556 S
C235 C236 1.383 1_556 S
C235 H243 0.929 . S
C236 C235 1.383 1_554 S
C236 C237 1.377 . S
C237 H221 0.930 . S
C237 C236 1.377 . S
C237 C238 1.379 . S
C238 H222 0.931 . S
C238 C232 1.383 . S
C238 C237 1.379 . S
H239 C233 0.959 . S
H240 C233 0.961 . S
H241 C233 0.960 . S
H242 C234 0.930 . S
H243 C235 0.929 . S
H244 C252 0.929 . S
H245 C254 0.930 . S
H246 C256 0.930 . S
H247 C259 0.929 . S
H248 C262 0.930 . S
H249 C264 0.960 . S
H250 C264 0.960 . S
H251 C264 0.960 . S
C252 H244 0.929 . S
C252 C253 1.377 . S
C252 C254 1.384 . S
C253 C252 1.377 . S
C253 C259 1.390 . S
C254 H245 0.930 . S
C254 C252 1.384 . S
C254 C255 1.372 . S
C255 C254 1.372 . S
C255 C256 1.400 . S
C255 C260 1.490 . S
C256 H246 0.930 . S
C256 C255 1.400 . S
C256 C259 1.386 . S
H257 C273 0.930 . S
H258 C274 0.931 . S
C259 H247 0.929 . S
C259 C253 1.390 . S
C259 C256 1.386 . S
C260 C255 1.490 . S
C260 C262 1.395 . S
C260 C263 1.403 . S
H261 C267 0.930 . S
C262 H248 0.930 . S
C262 C260 1.395 . S
C262 C265 1.403 . S
C263 C260 1.403 . S
C263 C264 1.524 . S
C263 C267 1.400 . S
C264 H249 0.960 . S
C264 H250 0.960 . S
C264 H251 0.960 . S
C264 C263 1.524 . S
C265 C262 1.403 . S
C265 C266 1.392 . S
C265 C269 1.495 . S
C266 C265 1.392 . S
C266 C267 1.385 . S
C266 C268 1.478 . S
C267 H261 0.930 . S
C267 C263 1.400 . S
C267 C266 1.385 . S
C268 C266 1.478 . S
C268 C270 1.381 . S
C268 C274 1.383 . S
C269 C265 1.495 . S
C269 H275 0.959 . S
C269 H276 0.961 . S
C269 H277 0.960 . S
C270 C268 1.381 . S
C270 C271 1.394 . S
C270 H278 0.930 . S
C271 C270 1.394 . S
C271 C272 1.383 . S
C271 H279 0.929 . S
C272 C271 1.383 . S
C272 C273 1.377 . S
C273 H257 0.930 . S
C273 C272 1.377 . S
C273 C274 1.379 . S
C274 H258 0.931 . S
C274 C268 1.383 . S
C274 C273 1.379 . S
H275 C269 0.959 . S
H276 C269 0.961 . S
H277 C269 0.960 . S
H278 C270 0.930 . S
H279 C271 0.929 . S
H280 C288 0.929 . S
H281 C290 0.930 . S
H282 C292 0.930 . S
H283 C295 0.929 . S
H284 C298 0.930 . S
H285 C300 0.960 . S
H286 C300 0.960 . S
H287 C300 0.960 . S
C288 H280 0.929 . S
C288 C289 1.377 . S
C288 C290 1.384 . S
C289 C288 1.377 . S
C289 C295 1.390 . S
C290 H281 0.930 . S
C290 C288 1.384 . S
C290 C291 1.372 . S
C291 C290 1.372 . S
C291 C292 1.400 . S
C291 C296 1.490 . S
C292 H282 0.930 . S
C292 C291 1.400 . S
C292 C295 1.386 . S
H293 C309 0.930 . S
H294 C310 0.931 . S
C295 H283 0.929 . S
C295 C289 1.390 . S
C295 C292 1.386 . S
C296 C291 1.490 . S
C296 C298 1.395 . S
C296 C299 1.403 . S
H297 C303 0.930 . S
C298 H284 0.930 . S
C298 C296 1.395 . S
C298 C301 1.403 . S
C299 C296 1.403 . S
C299 C300 1.524 . S
C299 C303 1.400 . S
C300 H285 0.960 . S
C300 H286 0.960 . S
C300 H287 0.960 . S
C300 C299 1.524 . S
C301 C298 1.403 . S
C301 C302 1.392 . S
C301 C305 1.495 . S
C302 C301 1.392 . S
C302 C303 1.385 . S
C302 C304 1.478 . S
C303 H297 0.930 . S
C303 C299 1.400 . S
C303 C302 1.385 . S
C304 C302 1.478 . S
C304 C306 1.381 . S
C304 C310 1.383 . S
C305 C301 1.495 . S
C305 H311 0.959 . S
C305 H312 0.961 . S
C305 H313 0.960 . S
C306 C304 1.381 . S
C306 C307 1.394 . S
C306 H314 0.930 . S
C307 C306 1.394 . S
C307 C308 1.383 . S
C307 H315 0.929 . S
C308 C307 1.383 . S
C308 C309 1.377 . S
C309 H293 0.930 . S
C309 C308 1.377 . S
C309 C310 1.379 . S
C310 H294 0.931 . S
C310 C304 1.383 . S
C310 C309 1.379 . S
H311 C305 0.959 . S
H312 C305 0.961 . S
H313 C305 0.960 . S
H314 C306 0.930 . S
H315 C307 0.929 . S
H316 C324 0.929 . S
H317 C326 0.930 . S
H318 C328 0.930 . S
H319 C331 0.929 . S
H320 C334 0.930 . S
H321 C336 0.960 . S
H322 C336 0.960 . S
H323 C336 0.960 . S
C324 H316 0.929 . S
C324 C325 1.377 . S
C324 C326 1.384 . S
C325 C324 1.377 . S
C325 C331 1.390 . S
C326 H317 0.930 . S
C326 C324 1.384 . S
C326 C327 1.372 . S
C327 C326 1.372 . S
C327 C328 1.400 . S
C327 C332 1.490 . S
C328 H318 0.930 . S
C328 C327 1.400 . S
C328 C331 1.386 . S
H329 C345 0.930 . S
H330 C346 0.931 . S
C331 H319 0.929 . S
C331 C325 1.390 . S
C331 C328 1.386 . S
C332 C327 1.490 . S
C332 C334 1.395 . S
C332 C335 1.403 . S
H333 C339 0.930 . S
C334 H320 0.930 . S
C334 C332 1.395 . S
C334 C337 1.403 . S
C335 C332 1.403 . S
C335 C336 1.524 . S
C335 C339 1.400 . S
C336 H321 0.960 . S
C336 H322 0.960 . S
C336 H323 0.960 . S
C336 C335 1.524 . S
C337 C334 1.403 . S
C337 C338 1.392 . S
C337 C341 1.495 . S
C338 C337 1.392 . S
C338 C339 1.385 . S
C338 C340 1.478 . S
C339 H333 0.930 . S
C339 C335 1.400 . S
C339 C338 1.385 . S
C340 C338 1.478 . S
C340 C342 1.381 . S
C340 C346 1.383 . S
C341 C337 1.495 . S
C341 H347 0.959 . S
C341 H348 0.961 . S
C341 H349 0.960 . S
C342 C340 1.381 . S
C342 C343 1.394 . S
C342 H350 0.930 . S
C343 C342 1.394 . S
C343 C344 1.383 . S
C343 H351 0.929 . S
C344 C343 1.383 . S
C344 C345 1.377 . S
C345 H329 0.930 . S
C345 C344 1.377 . S
C345 C346 1.379 . S
C346 H330 0.931 . S
C346 C340 1.383 . S
C346 C345 1.379 . S
H347 C341 0.959 . S
H348 C341 0.961 . S
H349 C341 0.960 . S
H350 C342 0.930 . S
H351 C343 0.929 . S
H352 C360 0.929 . S
H353 C362 0.930 . S
H354 C364 0.930 . S
H355 C367 0.929 . S
H356 C370 0.930 . S
H357 C372 0.960 . S
H358 C372 0.960 . S
H359 C372 0.960 . S
C360 H352 0.929 . S
C360 C361 1.377 . S
C360 C362 1.384 . S
C361 C360 1.377 . S
C361 C367 1.390 . S
C362 H353 0.930 . S
C362 C360 1.384 . S
C362 C363 1.372 . S
C363 C362 1.372 . S
C363 C364 1.400 . S
C363 C368 1.490 . S
C364 H354 0.930 . S
C364 C363 1.400 . S
C364 C367 1.386 . S
H365 C381 0.930 1_554 S
H366 C382 0.931 . S
C367 H355 0.929 . S
C367 C361 1.390 . S
C367 C364 1.386 . S
C368 C363 1.490 . S
C368 C370 1.395 . S
C368 C371 1.403 . S
H369 C375 0.930 . S
C370 H356 0.930 . S
C370 C368 1.395 . S
C370 C373 1.403 . S
C371 C368 1.403 . S
C371 C372 1.524 . S
C371 C375 1.400 . S
C372 H357 0.960 . S
C372 H358 0.960 . S
C372 H359 0.960 . S
C372 C371 1.524 . S
C373 C370 1.403 . S
C373 C374 1.392 . S
C373 C377 1.495 . S
C374 C373 1.392 . S
C374 C375 1.385 . S
C374 C376 1.478 . S
C375 H369 0.930 . S
C375 C371 1.400 . S
C375 C374 1.385 . S
C376 C374 1.478 . S
C376 C378 1.381 . S
C376 C382 1.383 . S
C377 C373 1.495 . S
C377 H383 0.959 . S
C377 H384 0.961 . S
C377 H385 0.960 . S
C378 C376 1.381 . S
C378 C379 1.394 . S
C378 H386 0.930 . S
C379 C378 1.394 . S
C379 C380 1.383 . S
C379 H387 0.929 . S
C380 C379 1.383 . S
C380 C381 1.377 . S
C381 H365 0.930 1_556 S
C381 C380 1.377 . S
C381 C382 1.379 . S
C382 H366 0.931 . S
C382 C376 1.383 . S
C382 C381 1.379 . S
H383 C377 0.959 . S
H384 C377 0.961 . S
H385 C377 0.960 . S
H386 C378 0.930 . S
H387 C379 0.929 . S
H388 C396 0.929 1_556 S
H389 C398 0.930 . S
H390 C400 0.930 . S
H391 C403 0.929 1_455 S
H392 C406 0.930 . S
H393 C408 0.960 . S
H394 C408 0.960 . S
H395 C408 0.960 . S
C396 H388 0.929 1_554 S
C396 C397 1.377 . S
C396 C398 1.384 . S
C397 C396 1.377 . S
C397 C403 1.390 . S
C398 H389 0.930 . S
C398 C396 1.384 . S
C398 C399 1.372 . S
C399 C398 1.372 . S
C399 C400 1.400 . S
C399 C404 1.490 . S
C400 H390 0.930 . S
C400 C399 1.400 . S
C400 C403 1.386 . S
H401 C417 0.930 . S
H402 C418 0.931 . S
C403 H391 0.929 1_655 S
C403 C397 1.390 . S
C403 C400 1.386 . S
C404 C399 1.490 . S
C404 C406 1.395 . S
C404 C407 1.403 . S
H405 C411 0.930 . S
C406 H392 0.930 . S
C406 C404 1.395 . S
C406 C409 1.403 . S
C407 C404 1.403 . S
C407 C408 1.524 . S
C407 C411 1.400 . S
C408 H393 0.960 . S
C408 H394 0.960 . S
C408 H395 0.960 . S
C408 C407 1.524 . S
C409 C406 1.403 . S
C409 C410 1.392 . S
C409 C413 1.495 . S
C410 C409 1.392 . S
C410 C411 1.385 . S
C410 C412 1.478 . S
C411 H405 0.930 . S
C411 C407 1.400 . S
C411 C410 1.385 . S
C412 C410 1.478 . S
C412 C414 1.381 . S
C412 C418 1.383 . S
C413 C409 1.495 . S
C413 H419 0.959 . S
C413 H420 0.961 . S
C413 H421 0.960 . S
C414 C412 1.381 . S
C414 C415 1.394 . S
C414 H422 0.930 . S
C415 C414 1.394 . S
C415 C416 1.383 . S
C415 H423 0.929 . S
C416 C415 1.383 . S
C416 C417 1.377 . S
C417 H401 0.930 . S
C417 C416 1.377 . S
C417 C418 1.379 . S
C418 H402 0.931 . S
C418 C412 1.383 . S
C418 C417 1.379 . S
H419 C413 0.959 . S
H420 C413 0.961 . S
H421 C413 0.960 . S
H422 C414 0.930 . S
H423 C415 0.929 . S
H424 C432 0.929 . S
H425 C434 0.911 1_455 S
H426 C436 0.930 . S
H427 C439 0.929 . S
H428 C442 0.930 . S
H429 C444 0.960 . S
H430 C444 0.960 . S
H431 C444 0.960 . S
C432 H424 0.929 . S
C432 C433 1.377 1_455 S
C432 C434 1.379 1_455 S
C433 C432 1.377 1_655 S
C433 C439 1.390 . S
C434 H425 0.911 1_655 S
C434 C432 1.379 1_655 S
C434 C435 1.396 . S
C435 C434 1.396 . S
C435 C436 1.400 . S
C435 C440 1.490 . S
C436 H426 0.930 . S
C436 C435 1.400 . S
C436 C439 1.386 . S
H437 C453 0.930 . S
H438 C454 0.931 . S
C439 H427 0.929 . S
C439 C433 1.390 . S
C439 C436 1.386 . S
C440 C435 1.490 . S
C440 C442 1.395 . S
C440 C443 1.403 . S
H441 C447 0.930 . S
C442 H428 0.930 . S
C442 C440 1.395 . S
C442 C445 1.403 . S
C443 C440 1.403 . S
C443 C444 1.524 . S
C443 C447 1.400 . S
C444 H429 0.960 . S
C444 H430 0.960 . S
C444 H431 0.960 . S
C444 C443 1.524 . S
C445 C442 1.403 . S
C445 C446 1.392 . S
C445 C449 1.495 . S
C446 C445 1.392 . S
C446 C447 1.385 . S
C446 C448 1.478 . S
C447 H441 0.930 . S
C447 C443 1.400 . S
C447 C446 1.385 . S
C448 C446 1.478 . S
C448 C450 1.381 . S
C448 C454 1.383 . S
C449 C445 1.495 . S
C449 H455 0.959 1_655 S
C449 H456 0.961 . S
C449 H457 0.960 1_655 S
C450 C448 1.381 . S
C450 C451 1.394 . S
C450 H458 0.930 . S
C451 C450 1.394 . S
C451 C452 1.383 . S
C451 H459 0.929 . S
C452 C451 1.383 . S
C452 C453 1.377 . S
C453 H437 0.930 . S
C453 C452 1.377 . S
C453 C454 1.379 . S
C454 H438 0.931 . S
C454 C448 1.383 . S
C454 C453 1.379 . S
H455 C449 0.959 1_455 S
H456 C449 0.961 . S
H457 C449 0.960 1_455 S
H458 C450 0.930 . S
H459 C451 0.929 . S
H460 C468 0.929 . S
H461 C470 0.930 . S
H462 C472 0.930 . S
H463 C475 0.929 . S
H464 C478 0.930 . S
H465 C480 0.960 . S
H466 C480 0.960 . S
H467 C480 0.960 . S
C468 H460 0.929 . S
C468 C469 1.377 . S
C468 C470 1.384 . S
C469 C468 1.377 . S
C469 C475 1.390 . S
C470 H461 0.930 . S
C470 C468 1.384 . S
C470 C471 1.372 . S
C471 C470 1.372 . S
C471 C472 1.400 . S
C471 C476 1.490 . S
C472 H462 0.930 . S
C472 C471 1.400 . S
C472 C475 1.386 . S
H473 C489 0.930 . S
H474 C490 0.931 . S
C475 H463 0.929 . S
C475 C469 1.390 . S
C475 C472 1.386 . S
C476 C471 1.490 . S
C476 C478 1.395 . S
C476 C479 1.403 . S
H477 C483 0.930 . S
C478 H464 0.930 . S
C478 C476 1.395 . S
C478 C481 1.403 . S
C479 C476 1.403 . S
C479 C480 1.524 . S
C479 C483 1.400 . S
C480 H465 0.960 . S
C480 H466 0.960 . S
C480 H467 0.960 . S
C480 C479 1.524 . S
C481 C478 1.403 . S
C481 C482 1.392 . S
C481 C485 1.495 . S
C482 C481 1.392 . S
C482 C483 1.385 . S
C482 C484 1.478 . S
C483 H477 0.930 . S
C483 C479 1.400 . S
C483 C482 1.385 . S
C484 C482 1.478 . S
C484 C486 1.381 . S
C484 C490 1.383 . S
C485 C481 1.495 . S
C485 H491 0.959 . S
C485 H492 0.961 . S
C485 H493 0.960 . S
C486 C484 1.381 . S
C486 C487 1.394 . S
C486 H494 0.930 . S
C487 C486 1.394 . S
C487 C488 1.383 . S
C487 H495 0.929 . S
C488 C487 1.383 . S
C488 C489 1.377 . S
C489 H473 0.930 . S
C489 C488 1.377 . S
C489 C490 1.379 . S
C490 H474 0.931 . S
C490 C484 1.383 . S
C490 C489 1.379 . S
H491 C485 0.959 . S
H492 C485 0.961 . S
H493 C485 0.960 . S
H494 C486 0.930 . S
H495 C487 0.929 . S
H496 C504 0.929 . S
H497 C506 0.930 . S
H498 C508 0.930 . S
H499 C511 0.929 . S
H500 C514 0.930 . S
H501 C516 0.960 . S
H502 C516 0.960 . S
H503 C516 0.960 . S
C504 H496 0.929 . S
C504 C505 1.377 . S
C504 C506 1.384 . S
C505 C504 1.377 . S
C505 C511 1.390 . S
C506 H497 0.930 . S
C506 C504 1.384 . S
C506 C507 1.372 . S
C507 C506 1.372 . S
C507 C508 1.400 . S
C507 C512 1.490 . S
C508 H498 0.930 . S
C508 C507 1.400 . S
C508 C511 1.386 . S
H509 C525 0.930 . S
H510 C526 0.931 . S
C511 H499 0.929 . S
C511 C505 1.390 . S
C511 C508 1.386 . S
C512 C507 1.490 . S
C512 C514 1.395 . S
C512 C515 1.403 . S
H513 C519 0.930 . S
C514 H500 0.930 . S
C514 C512 1.395 . S
C514 C517 1.403 . S
C515 C512 1.403 . S
C515 C516 1.524 . S
C515 C519 1.400 . S
C516 H501 0.960 . S
C516 H502 0.960 . S
C516 H503 0.960 . S
C516 C515 1.524 . S
C517 C514 1.403 . S
C517 C518 1.392 . S
C517 C521 1.495 . S
C518 C517 1.392 . S
C518 C519 1.385 . S
C518 C520 1.478 . S
C519 H513 0.930 . S
C519 C515 1.400 . S
C519 C518 1.385 . S
C520 C518 1.478 . S
C520 C522 1.381 . S
C520 C526 1.383 . S
C521 C517 1.495 . S
C521 H527 0.959 . S
C521 H528 0.961 . S
C521 H529 0.960 . S
C522 C520 1.381 . S
C522 C523 1.394 . S
C522 H530 0.930 . S
C523 C522 1.394 . S
C523 C524 1.383 . S
C523 H531 0.929 . S
C524 C523 1.383 . S
C524 C525 1.377 . S
C525 H509 0.930 . S
C525 C524 1.377 . S
C525 C526 1.379 . S
C526 H510 0.931 . S
C526 C520 1.383 . S
C526 C525 1.379 . S
H527 C521 0.959 . S
H528 C521 0.961 . S
H529 C521 0.960 . S
H530 C522 0.930 . S
H531 C523 0.929 . S
H532 C540 0.929 . S
H533 C542 0.930 . S
H534 C544 0.930 . S
H535 C547 0.929 . S
H536 C550 0.930 1_545 S
H537 C552 0.960 . S
H538 C552 0.960 . S
H539 C552 0.960 . S
C540 H532 0.929 . S
C540 C541 1.377 1_655 S
C540 C542 1.384 . S
C541 C540 1.377 1_455 S
C541 C547 1.390 . S
C542 H533 0.930 . S
C542 C540 1.384 . S
C542 C543 1.372 1_655 S
C543 C542 1.372 1_455 S
C543 C544 1.400 . S
C543 C548 1.490 . S
C544 H534 0.930 . S
C544 C543 1.400 . S
C544 C547 1.386 . S
H545 C561 0.930 . S
H546 C562 0.931 . S
C547 H535 0.929 . S
C547 C541 1.390 . S
C547 C544 1.386 . S
C548 C543 1.490 . S
C548 C550 1.395 1_455 S
C548 C551 1.403 . S
H549 C555 0.930 . S
C550 H536 0.930 1_565 S
C550 C548 1.395 1_655 S
C550 C553 1.403 . S
C551 C548 1.403 . S
C551 C552 1.524 . S
C551 C555 1.400 . S
C552 H537 0.960 . S
C552 H538 0.960 . S
C552 H539 0.960 . S
C552 C551 1.524 . S
C553 C550 1.403 . S
C553 C554 1.392 1_655 S
C553 C557 1.495 1_565 S
C554 C553 1.392 1_455 S
C554 C555 1.385 . S
C554 C556 1.478 . S
C555 H549 0.930 . S
C555 C551 1.400 . S
C555 C554 1.385 . S
C556 C554 1.478 . S
C556 C558 1.381 1_455 S
C556 C562 1.383 . S
C557 C553 1.495 1_545 S
C557 H563 0.959 . S
C557 H564 0.961 . S
C557 H565 0.960 . S
C558 C556 1.381 1_655 S
C558 C559 1.394 . S
C558 H566 0.930 . S
C559 C558 1.394 . S
C559 C560 1.383 1_655 S
C559 H567 0.929 . S
C560 C559 1.383 1_455 S
C560 C561 1.377 . S
C561 H545 0.930 . S
C561 C560 1.377 . S
C561 C562 1.379 . S
C562 H546 0.931 . S
C562 C556 1.383 . S
C562 C561 1.379 . S
H563 C557 0.959 . S
H564 C557 0.961 . S
H565 C557 0.960 . S
H566 C558 0.930 . S
H567 C559 0.929 . S
H568 C576 0.929 . S
H569 C578 0.930 . S
H570 C580 0.930 . S
H571 C583 0.929 . S
H572 C586 0.930 1_556 S
H573 C588 0.960 . S
H574 C588 0.960 . S
H575 C588 0.960 . S
C576 H568 0.929 . S
C576 C577 1.377 . S
C576 C578 1.384 . S
C577 C576 1.377 . S
C577 C583 1.390 . S
C578 H569 0.930 . S
C578 C576 1.384 . S
C578 C579 1.372 . S
C579 C578 1.372 . S
C579 C580 1.400 . S
C579 C584 1.490 . S
C580 H570 0.930 . S
C580 C579 1.400 . S
C580 C583 1.386 . S
H581 C597 0.930 . S
H582 C598 0.931 . S
C583 H571 0.929 . S
C583 C577 1.390 . S
C583 C580 1.386 . S
C584 C579 1.490 . S
C584 C586 1.395 1_556 S
C584 C587 1.403 1_556 S
H585 C591 0.930 . S
C586 H572 0.930 1_554 S
C586 C584 1.395 1_554 S
C586 C589 1.403 . S
C587 C584 1.403 1_554 S
C587 C588 1.524 . S
C587 C591 1.400 . S
C588 H573 0.960 . S
C588 H574 0.960 . S
C588 H575 0.960 . S
C588 C587 1.524 . S
C589 C586 1.403 . S
C589 C590 1.392 . S
C589 C593 1.495 . S
C590 C589 1.392 . S
C590 C591 1.385 . S
C590 C592 1.478 . S
C591 H585 0.930 . S
C591 C587 1.400 . S
C591 C590 1.385 . S
C592 C590 1.478 . S
C592 C594 1.381 . S
C592 C598 1.383 . S
C593 C589 1.495 . S
C593 H599 0.959 . S
C593 H600 0.961 . S
C593 H601 0.960 . S
C594 C592 1.381 . S
C594 C595 1.394 . S
C594 H602 0.930 . S
C595 C594 1.394 . S
C595 C596 1.383 . S
C595 H603 0.929 . S
C596 C595 1.383 . S
C596 C597 1.377 . S
C597 H581 0.930 . S
C597 C596 1.377 . S
C597 C598 1.379 . S
C598 H582 0.931 . S
C598 C592 1.383 . S
C598 C597 1.379 . S
H599 C593 0.959 . S
H600 C593 0.961 . S
H601 C593 0.960 . S
H602 C594 0.930 . S
H603 C595 0.929 . S
H604 C612 0.929 . S
H605 C614 0.930 . S
H606 C616 0.930 . S
H607 C619 0.929 . S
H608 C622 0.930 . S
H609 C624 0.960 . S
H610 C624 0.960 . S
H611 C624 0.960 1_545 S
C612 H604 0.929 . S
C612 C613 1.377 . S
C612 C614 1.384 . S
C613 C612 1.377 . S
C613 C619 1.390 1_565 S
C614 H605 0.930 . S
C614 C612 1.384 . S
C614 C615 1.372 . S
C615 C614 1.372 . S
C615 C616 1.400 1_565 S
C615 C620 1.490 . S
C616 H606 0.930 . S
C616 C615 1.400 1_545 S
C616 C619 1.386 . S
H617 C633 0.930 . S
H618 C634 0.931 . S
C619 H607 0.929 . S
C619 C613 1.390 1_545 S
C619 C616 1.386 . S
C620 C615 1.490 . S
C620 C622 1.395 . S
C620 C623 1.403 . S
H621 C627 0.930 . S
C622 H608 0.930 . S
C622 C620 1.395 . S
C622 C625 1.403 . S
C623 C620 1.403 . S
C623 C624 1.524 . S
C623 C627 1.400 . S
C624 H609 0.960 . S
C624 H610 0.960 . S
C624 H611 0.960 1_565 S
C624 C623 1.524 . S
C625 C622 1.403 . S
C625 C626 1.392 . S
C625 C629 1.495 . S
C626 C625 1.392 . S
C626 C627 1.385 . S
C626 C628 1.478 . S
C627 H621 0.930 . S
C627 C623 1.400 . S
C627 C626 1.385 . S
C628 C626 1.478 . S
C628 C630 1.381 . S
C628 C634 1.383 1_565 S
C629 C625 1.495 . S
C629 H635 0.959 . S
C629 H636 0.961 1_565 S
C629 H637 0.960 . S
C630 C628 1.381 . S
C630 C631 1.394 . S
C630 H638 0.930 . S
C631 C630 1.394 . S
C631 C632 1.383 . S
C631 H639 0.929 . S
C632 C631 1.383 . S
C632 C633 1.377 1_565 S
C633 H617 0.930 . S
C633 C632 1.377 1_545 S
C633 C634 1.379 . S
C634 H618 0.931 . S
C634 C628 1.383 1_545 S
C634 C633 1.379 . S
H635 C629 0.959 . S
H636 C629 0.961 1_545 S
H637 C629 0.960 . S
H638 C630 0.930 . S
H639 C631 0.929 . S
H640 C648 0.929 . S
H641 C650 0.930 . S
H642 C652 0.930 . S
H643 C655 0.929 . S
H644 C658 0.930 . S
H645 C660 0.960 . S
H646 C660 0.960 . S
H647 C660 0.960 . S
C648 H640 0.929 . S
C648 C649 1.377 . S
C648 C650 1.384 . S
C649 C648 1.377 . S
C649 C655 1.390 . S
C650 H641 0.930 . S
C650 C648 1.384 . S
C650 C651 1.372 . S
C651 C650 1.372 . S
C651 C652 1.400 . S
C651 C656 1.490 . S
C652 H642 0.930 . S
C652 C651 1.400 . S
C652 C655 1.386 . S
H653 C669 0.930 . S
H654 C670 0.931 . S
C655 H643 0.929 . S
C655 C649 1.390 . S
C655 C652 1.386 . S
C656 C651 1.490 . S
C656 C658 1.395 . S
C656 C659 1.403 . S
H657 C663 0.930 . S
C658 H644 0.930 . S
C658 C656 1.395 . S
C658 C661 1.403 . S
C659 C656 1.403 . S
C659 C660 1.524 . S
C659 C663 1.400 . S
C660 H645 0.960 . S
C660 H646 0.960 . S
C660 H647 0.960 . S
C660 C659 1.524 . S
C661 C658 1.403 . S
C661 C662 1.392 . S
C661 C665 1.495 . S
C662 C661 1.392 . S
C662 C663 1.385 . S
C662 C664 1.478 . S
C663 H657 0.930 . S
C663 C659 1.400 . S
C663 C662 1.385 . S
C664 C662 1.478 . S
C664 C666 1.381 . S
C664 C670 1.383 . S
C665 C661 1.495 . S
C665 H671 0.959 . S
C665 H672 0.961 . S
C665 H673 0.960 . S
C666 C664 1.381 . S
C666 C667 1.394 . S
C666 H674 0.930 . S
C667 C666 1.394 . S
C667 C668 1.383 . S
C667 H675 0.929 . S
C668 C667 1.383 . S
C668 C669 1.377 . S
C669 H653 0.930 . S
C669 C668 1.377 . S
C669 C670 1.379 . S
C670 H654 0.931 . S
C670 C664 1.383 . S
C670 C669 1.379 . S
H671 C665 0.959 . S
H672 C665 0.961 . S
H673 C665 0.960 . S
H674 C666 0.930 . S
H675 C667 0.929 . S
H676 C684 0.929 . S
H677 C686 0.930 . S
H678 C688 0.930 . S
H679 C691 0.929 . S
H680 C694 0.930 . S
H681 C696 0.960 . S
H682 C696 0.960 . S
H683 C696 0.960 . S
C684 H676 0.929 . S
C684 C685 1.377 . S
C684 C686 1.384 . S
C685 C684 1.377 . S
C685 C691 1.390 . S
C686 H677 0.930 . S
C686 C684 1.384 . S
C686 C687 1.372 . S
C687 C686 1.372 . S
C687 C688 1.400 . S
C687 C692 1.490 . S
C688 H678 0.930 . S
C688 C687 1.400 . S
C688 C691 1.386 . S
H689 C705 0.930 . S
H690 C706 0.931 . S
C691 H679 0.929 . S
C691 C685 1.390 . S
C691 C688 1.386 . S
C692 C687 1.490 . S
C692 C694 1.395 . S
C692 C695 1.403 1_655 S
H693 C699 0.930 . S
C694 H680 0.930 . S
C694 C692 1.395 . S
C694 C697 1.403 . S
C695 C692 1.403 1_455 S
C695 C696 1.524 . S
C695 C699 1.400 . S
C696 H681 0.960 . S
C696 H682 0.960 . S
C696 H683 0.960 . S
C696 C695 1.524 . S
C697 C694 1.403 . S
C697 C698 1.392 . S
C697 C701 1.495 . S
C698 C697 1.392 . S
C698 C699 1.385 1_655 S
C698 C700 1.478 . S
C699 H693 0.930 . S
C699 C695 1.400 . S
C699 C698 1.385 1_455 S
C700 C698 1.478 . S
C700 C702 1.381 . S
C700 C706 1.383 . S
C701 C697 1.495 . S
C701 H707 0.959 . S
C701 H708 0.961 . S
C701 H709 0.960 . S
C702 C700 1.381 . S
C702 C703 1.394 . S
C702 H710 0.930 . S
C703 C702 1.394 . S
C703 C704 1.383 . S
C703 H711 0.929 . S
C704 C703 1.383 . S
C704 C705 1.377 . S
C705 H689 0.930 . S
C705 C704 1.377 . S
C705 C706 1.379 . S
C706 H690 0.931 . S
C706 C700 1.383 . S
C706 C705 1.379 . S
H707 C701 0.959 . S
H708 C701 0.961 . S
H709 C701 0.960 . S
H710 C702 0.930 . S
H711 C703 0.929 . S
H712 C720 0.929 . S
H713 C722 0.930 . S
H714 C724 0.930 . S
H715 C727 0.929 . S
H716 C730 0.930 . S
H717 C732 0.960 . S
H718 C732 0.960 . S
H719 C732 0.960 . S
C720 H712 0.929 . S
C720 C721 1.377 . S
C720 C722 1.384 . S
C721 C720 1.377 . S
C721 C727 1.390 . S
C722 H713 0.930 . S
C722 C720 1.384 . S
C722 C723 1.372 . S
C723 C722 1.372 . S
C723 C724 1.400 . S
C723 C728 1.490 1_655 S
C724 H714 0.930 . S
C724 C723 1.400 . S
C724 C727 1.386 . S
H725 C741 0.930 . S
H726 C742 0.931 . S
C727 H715 0.929 . S
C727 C721 1.390 . S
C727 C724 1.386 . S
C728 C723 1.490 1_455 S
C728 C730 1.395 . S
C728 C731 1.403 . S
H729 C735 0.930 . S
C730 H716 0.930 . S
C730 C728 1.395 . S
C730 C733 1.403 . S
C731 C728 1.403 . S
C731 C732 1.524 . S
C731 C735 1.400 . S
C732 H717 0.960 . S
C732 H718 0.960 . S
C732 H719 0.960 . S
C732 C731 1.524 . S
C733 C730 1.403 . S
C733 C734 1.392 . S
C733 C737 1.495 . S
C734 C733 1.392 . S
C734 C735 1.385 . S
C734 C736 1.478 . S
C735 H729 0.930 . S
C735 C731 1.400 . S
C735 C734 1.385 . S
C736 C734 1.478 . S
C736 C738 1.381 . S
C736 C742 1.383 . S
C737 C733 1.495 . S
C737 H743 0.959 . S
C737 H744 0.961 . S
C737 H745 0.960 . S
C738 C736 1.381 . S
C738 C739 1.394 . S
C738 H746 0.930 . S
C739 C738 1.394 . S
C739 C740 1.383 . S
C739 H747 0.929 . S
C740 C739 1.383 . S
C740 C741 1.377 . S
C741 H725 0.930 . S
C741 C740 1.377 . S
C741 C742 1.379 . S
C742 H726 0.931 . S
C742 C736 1.383 . S
C742 C741 1.379 . S
H743 C737 0.959 . S
H744 C737 0.961 . S
H745 C737 0.960 . S
H746 C738 0.930 . S
H747 C739 0.929 . S
H748 C756 0.929 . S
H749 C758 0.930 . S
H750 C760 0.930 . S
H751 C763 0.929 . S
H752 C766 0.930 1_556 S
H753 C768 0.960 . S
H754 C768 0.960 . S
H755 C768 0.960 . S
C756 H748 0.929 . S
C756 C757 1.377 . S
C756 C758 1.384 . S
C757 C756 1.377 . S
C757 C763 1.390 1_554 S
C758 H749 0.930 . S
C758 C756 1.384 . S
C758 C759 1.372 . S
C759 C758 1.372 . S
C759 C760 1.400 1_554 S
C759 C764 1.490 . S
C760 H750 0.930 . S
C760 C759 1.400 1_556 S
C760 C763 1.386 . S
H761 C777 0.930 . S
H762 C778 0.931 . S
C763 H751 0.929 . S
C763 C757 1.390 1_556 S
C763 C760 1.386 . S
C764 C759 1.490 . S
C764 C766 1.395 . S
C764 C767 1.403 . S
H765 C771 0.930 . S
C766 H752 0.930 1_554 S
C766 C764 1.395 . S
C766 C769 1.404 . S
C767 C764 1.403 . S
C767 C768 1.524 . S
C767 C771 1.400 . S
C768 H753 0.960 . S
C768 H754 0.960 . S
C768 H755 0.960 . S
C768 C767 1.524 . S
C769 C766 1.404 . S
C769 C770 1.393 . S
C769 C773 1.494 1_554 S
C770 C769 1.393 . S
C770 C771 1.385 . S
C770 C772 1.478 . S
C771 H765 0.930 . S
C771 C767 1.400 . S
C771 C770 1.385 . S
C772 C770 1.478 . S
C772 C774 1.381 . S
C772 C778 1.383 1_554 S
C773 C769 1.494 1_556 S
C773 H779 0.959 . S
C773 H780 0.961 . S
C773 H781 0.960 1_556 S
C774 C772 1.381 . S
C774 C775 1.394 . S
C774 H782 0.930 . S
C775 C774 1.394 . S
C775 C776 1.383 . S
C775 H783 0.929 . S
C776 C775 1.383 . S
C776 C777 1.377 1_554 S
C777 H761 0.930 . S
C777 C776 1.377 1_556 S
C777 C778 1.379 . S
C778 H762 0.931 . S
C778 C772 1.383 1_556 S
C778 C777 1.379 . S
H779 C773 0.959 . S
H780 C773 0.961 . S
H781 C773 0.960 1_554 S
H782 C774 0.930 . S
H783 C775 0.929 . S
H784 C792 0.929 . S
H785 C794 0.930 . S
H786 C796 0.930 . S
H787 C799 0.929 . S
H788 C802 0.930 . S
H789 C804 0.960 . S
H790 C804 0.960 . S
H791 C804 0.960 . S
C792 H784 0.929 . S
C792 C793 1.377 . S
C792 C794 1.384 . S
C793 C792 1.377 . S
C793 C799 1.390 . S
C794 H785 0.930 . S
C794 C792 1.384 . S
C794 C795 1.372 . S
C795 C794 1.372 . S
C795 C796 1.400 . S
C795 C800 1.490 . S
C796 H786 0.930 . S
C796 C795 1.400 . S
C796 C799 1.386 . S
H797 C813 0.930 . S
H798 C814 0.931 . S
C799 H787 0.929 . S
C799 C793 1.390 . S
C799 C796 1.386 . S
C800 C795 1.490 . S
C800 C802 1.395 . S
C800 C803 1.403 . S
H801 C807 0.930 . S
C802 H788 0.930 . S
C802 C800 1.395 . S
C802 C805 1.403 . S
C803 C800 1.403 . S
C803 C804 1.524 . S
C803 C807 1.400 . S
C804 H789 0.960 . S
C804 H790 0.960 . S
C804 H791 0.960 . S
C804 C803 1.524 . S
C805 C802 1.403 . S
C805 C806 1.392 . S
C805 C809 1.495 . S
C806 C805 1.392 . S
C806 C807 1.385 . S
C806 C808 1.478 . S
C807 H801 0.930 . S
C807 C803 1.400 . S
C807 C806 1.385 . S
C808 C806 1.478 . S
C808 C810 1.381 . S
C808 C814 1.383 . S
C809 C805 1.495 . S
C809 H815 0.959 . S
C809 H816 0.961 . S
C809 H817 0.960 . S
C810 C808 1.381 . S
C810 C811 1.394 . S
C810 H818 0.930 . S
C811 C810 1.394 . S
C811 C812 1.383 . S
C811 H819 0.929 . S
C812 C811 1.383 . S
C812 C813 1.377 . S
C813 H797 0.930 . S
C813 C812 1.377 . S
C813 C814 1.379 . S
C814 H798 0.931 . S
C814 C808 1.383 . S
C814 C813 1.379 . S
H815 C809 0.959 . S
H816 C809 0.961 . S
H817 C809 0.960 . S
H818 C810 0.930 . S
H819 C811 0.929 . S
H820 C828 0.929 . S
H821 C830 0.930 . S
H822 C832 0.930 . S
H823 C835 0.929 . S
H824 C838 0.930 . S
H825 C840 0.960 . S
H826 C840 0.960 . S
H827 C840 0.960 . S
C828 H820 0.929 . S
C828 C829 1.377 . S
C828 C830 1.384 . S
C829 C828 1.377 . S
C829 C835 1.390 . S
C830 H821 0.930 . S
C830 C828 1.384 . S
C830 C831 1.372 . S
C831 C830 1.372 . S
C831 C832 1.400 . S
C831 C836 1.490 . S
C832 H822 0.930 . S
C832 C831 1.400 . S
C832 C835 1.386 . S
H833 C849 0.930 . S
H834 C850 0.931 . S
C835 H823 0.929 . S
C835 C829 1.390 . S
C835 C832 1.386 . S
C836 C831 1.490 . S
C836 C838 1.395 . S
C836 C839 1.403 . S
H837 C843 0.930 . S
C838 H824 0.930 . S
C838 C836 1.395 . S
C838 C841 1.403 . S
C839 C836 1.403 . S
C839 C840 1.524 . S
C839 C843 1.400 . S
C840 H825 0.960 . S
C840 H826 0.960 . S
C840 H827 0.960 . S
C840 C839 1.524 . S
C841 C838 1.403 . S
C841 C842 1.392 . S
C841 C845 1.495 . S
C842 C841 1.392 . S
C842 C843 1.385 . S
C842 C844 1.478 . S
C843 H837 0.930 . S
C843 C839 1.400 . S
C843 C842 1.385 . S
C844 C842 1.478 . S
C844 C846 1.381 . S
C844 C850 1.383 . S
C845 C841 1.495 . S
C845 H851 0.959 . S
C845 H852 0.961 . S
C845 H853 0.960 . S
C846 C844 1.381 . S
C846 C847 1.394 . S
C846 H854 0.930 . S
C847 C846 1.394 . S
C847 C848 1.383 . S
C847 H855 0.929 . S
C848 C847 1.383 . S
C848 C849 1.377 . S
C849 H833 0.930 . S
C849 C848 1.377 . S
C849 C850 1.379 . S
C850 H834 0.931 . S
C850 C844 1.383 . S
C850 C849 1.379 . S
H851 C845 0.959 . S
H852 C845 0.961 . S
H853 C845 0.960 . S
H854 C846 0.930 . S
H855 C847 0.929 . S
H856 C864 0.929 . S
H857 C866 0.930 . S
H858 C868 0.930 . S
H859 C871 0.929 . S
H860 C874 0.930 . S
H861 C876 0.960 . S
H862 C876 0.960 . S
H863 C876 0.960 . S
C864 H856 0.929 . S
C864 C865 1.377 . S
C864 C866 1.384 . S
C865 C864 1.377 . S
C865 C871 1.390 . S
C866 H857 0.930 . S
C866 C864 1.384 . S
C866 C867 1.372 . S
C867 C866 1.372 . S
C867 C868 1.400 . S
C867 C872 1.490 . S
C868 H858 0.930 . S
C868 C867 1.400 . S
C868 C871 1.386 . S
H869 C885 0.930 . S
H870 C886 0.931 . S
C871 H859 0.929 . S
C871 C865 1.390 . S
C871 C868 1.386 . S
C872 C867 1.490 . S
C872 C874 1.395 . S
C872 C875 1.403 . S
H873 C879 0.930 . S
C874 H860 0.930 . S
C874 C872 1.395 . S
C874 C877 1.403 . S
C875 C872 1.403 . S
C875 C876 1.524 . S
C875 C879 1.400 . S
C876 H861 0.960 . S
C876 H862 0.960 . S
C876 H863 0.960 . S
C876 C875 1.524 . S
C877 C874 1.403 . S
C877 C878 1.392 . S
C877 C881 1.495 . S
C878 C877 1.392 . S
C878 C879 1.385 . S
C878 C880 1.478 . S
C879 H873 0.930 . S
C879 C875 1.400 . S
C879 C878 1.385 . S
C880 C878 1.478 . S
C880 C882 1.381 . S
C880 C886 1.383 . S
C881 C877 1.495 . S
C881 H887 0.959 . S
C881 H888 0.961 . S
C881 H889 0.960 . S
C882 C880 1.381 . S
C882 C883 1.394 1_455 S
C882 H890 0.930 . S
C883 C882 1.394 1_655 S
C883 C884 1.383 . S
C883 H891 0.929 . S
C884 C883 1.383 . S
C884 C885 1.377 . S
C885 H869 0.930 . S
C885 C884 1.377 . S
C885 C886 1.379 1_655 S
C886 H870 0.931 . S
C886 C880 1.383 . S
C886 C885 1.379 1_455 S
H887 C881 0.959 . S
H888 C881 0.961 . S
H889 C881 0.960 . S
H890 C882 0.930 . S
H891 C883 0.929 . S
H892 C900 0.929 . S
H893 C902 0.930 . S
H894 C904 0.930 . S
H895 C907 0.929 . S
H896 C910 0.930 . S
H897 C912 0.960 . S
H898 C912 0.960 . S
H899 C912 0.965 . S
C900 H892 0.929 . S
C900 C901 1.377 1_655 S
C900 C902 1.384 . S
C901 C900 1.377 1_455 S
C901 C907 1.390 . S
C902 H893 0.930 . S
C902 C900 1.384 . S
C902 C903 1.372 1_655 S
C903 C902 1.372 1_455 S
C903 C904 1.400 . S
C903 C908 1.490 . S
C904 H894 0.930 . S
C904 C903 1.400 . S
C904 C907 1.386 . S
H905 C921 0.930 . S
H906 C922 0.931 . S
C907 H895 0.929 . S
C907 C901 1.390 . S
C907 C904 1.386 . S
C908 C903 1.490 . S
C908 C910 1.394 . S
C908 C911 1.403 1_455 S
H909 C915 0.930 . S
C910 H896 0.930 . S
C910 C908 1.394 . S
C910 C913 1.403 . S
C911 C908 1.403 1_655 S
C911 C912 1.524 . S
C911 C915 1.400 . S
C912 H897 0.960 . S
C912 H898 0.960 . S
C912 H899 0.965 . S
C912 C911 1.524 . S
C913 C910 1.403 . S
C913 C914 1.392 1_455 S
C913 C917 1.495 . S
C914 C913 1.392 1_655 S
C914 C915 1.385 . S
C914 C916 1.478 . S
C915 H909 0.930 . S
C915 C911 1.400 . S
C915 C914 1.385 . S
C916 C914 1.478 . S
C916 C918 1.381 . S
C916 C922 1.383 1_655 S
C917 C913 1.495 . S
C917 H923 0.959 . S
C917 H924 0.961 . S
C917 H925 0.960 1_455 S
C918 C916 1.381 . S
C918 C919 1.394 . S
C918 H926 0.930 . S
C919 C918 1.394 . S
C919 C920 1.383 . S
C919 H927 0.929 . S
C920 C919 1.383 . S
C920 C921 1.377 1_655 S
C921 H905 0.930 . S
C921 C920 1.377 1_455 S
C921 C922 1.379 . S
C922 H906 0.931 . S
C922 C916 1.383 1_455 S
C922 C921 1.379 . S
H923 C917 0.959 . S
H924 C917 0.961 . S
H925 C917 0.960 1_655 S
H926 C918 0.930 . S
H927 C919 0.929 . S
H928 C936 0.929 . S
H929 C938 0.930 . S
H930 C940 0.930 . S
H931 C943 0.929 . S
H932 C946 0.930 . S
H933 C948 0.960 . S
H934 C948 0.960 . S
H935 C948 0.960 . S
C936 H928 0.929 . S
C936 C937 1.377 . S
C936 C938 1.384 . S
C937 C936 1.377 . S
C937 C943 1.390 . S
C938 H929 0.930 . S
C938 C936 1.384 . S
C938 C939 1.372 . S
C939 C938 1.372 . S
C939 C940 1.400 . S
C939 C944 1.490 . S
C940 H930 0.930 . S
C940 C939 1.400 . S
C940 C943 1.386 . S
H941 C957 0.930 . S
H942 C958 0.931 . S
C943 H931 0.929 . S
C943 C937 1.390 . S
C943 C940 1.386 . S
C944 C939 1.490 . S
C944 C946 1.395 . S
C944 C947 1.403 . S
H945 C951 0.930 . S
C946 H932 0.930 . S
C946 C944 1.395 . S
C946 C949 1.403 . S
C947 C944 1.403 . S
C947 C948 1.524 . S
C947 C951 1.400 . S
C948 H933 0.960 . S
C948 H934 0.960 . S
C948 H935 0.960 . S
C948 C947 1.524 . S
C949 C946 1.403 . S
C949 C950 1.392 . S
C949 C953 1.495 . S
C950 C949 1.392 . S
C950 C951 1.385 . S
C950 C952 1.478 . S
C951 H945 0.930 . S
C951 C947 1.400 . S
C951 C950 1.385 . S
C952 C950 1.478 . S
C952 C954 1.381 . S
C952 C958 1.383 . S
C953 C949 1.495 . S
C953 H959 0.959 . S
C953 H960 0.961 . S
C953 H961 0.960 . S
C954 C952 1.381 . S
C954 C955 1.394 . S
C954 H962 0.930 . S
C955 C954 1.394 . S
C955 C956 1.383 . S
C955 H963 0.929 . S
C956 C955 1.383 . S
C956 C957 1.377 . S
C957 H941 0.930 . S
C957 C956 1.377 . S
C957 C958 1.379 . S
C958 H942 0.931 . S
C958 C952 1.383 . S
C958 C957 1.379 . S
H959 C953 0.959 . S
H960 C953 0.961 . S
H961 C953 0.960 . S
H962 C954 0.930 . S
H963 C955 0.929 . S
H964 C972 0.929 . S
H965 C974 0.930 . S
H966 C976 0.930 . S
H967 C979 0.929 . S
H968 C982 0.930 . S
H969 C984 0.960 . S
H970 C984 0.960 . S
H971 C984 0.960 . S
C972 H964 0.929 . S
C972 C973 1.377 . S
C972 C974 1.384 . S
C973 C972 1.377 . S
C973 C979 1.390 . S
C974 H965 0.930 . S
C974 C972 1.384 . S
C974 C975 1.372 . S
C975 C974 1.372 . S
C975 C976 1.400 . S
C975 C980 1.490 . S
C976 H966 0.930 . S
C976 C975 1.400 . S
C976 C979 1.386 . S
H977 C993 0.930 . S
H978 C994 0.931 . S
C979 H967 0.929 . S
C979 C973 1.390 . S
C979 C976 1.386 . S
C980 C975 1.490 . S
C980 C982 1.395 . S
C980 C983 1.403 . S
H981 C987 0.930 . S
C982 H968 0.930 . S
C982 C980 1.395 . S
C982 C985 1.403 . S
C983 C980 1.403 . S
C983 C984 1.524 . S
C983 C987 1.400 . S
C984 H969 0.960 . S
C984 H970 0.960 . S
C984 H971 0.960 . S
C984 C983 1.524 . S
C985 C982 1.403 . S
C985 C986 1.392 . S
C985 C989 1.495 1_545 S
C986 C985 1.392 . S
C986 C987 1.385 . S
C986 C988 1.478 1_545 S
C987 H981 0.930 . S
C987 C983 1.400 . S
C987 C986 1.385 . S
C988 C986 1.478 1_565 S
C988 C990 1.381 . S
C988 C994 1.383 . S
C989 C985 1.495 1_565 S
C989 H995 0.959 1_565 S
C989 H996 0.961 . S
C989 H997 0.960 . S
C990 C988 1.381 . S
C990 C991 1.394 . S
C990 H998 0.930 . S
C991 C990 1.394 . S
C991 C992 1.383 . S
C991 H999 0.929 . S
C992 C991 1.383 . S
C992 C993 1.377 . S
C993 H977 0.930 . S
C993 C992 1.377 . S
C993 C994 1.379 . S
C994 H978 0.931 . S
C994 C988 1.383 . S
C994 C993 1.379 . S
H995 C989 0.959 1_545 S
H996 C989 0.961 . S
H997 C989 0.960 . S
H998 C990 0.930 . S
H999 C991 0.929 . S
H1000 C1008 0.929 . S
H1001 C1010 0.930 . S
H1002 C1012 0.933 . S
H1003 C1015 0.929 1_556 S
H1004 C1018 0.930 . S
H1005 C1020 0.960 . S
H1006 C1020 0.960 . S
H1007 C1020 0.960 . S
C1008 H1000 0.929 . S
C1008 C1009 1.377 . S
C1008 C1010 1.384 . S
C1009 C1008 1.377 . S
C1009 C1015 1.390 . S
C1010 H1001 0.930 . S
C1010 C1008 1.384 . S
C1010 C1011 1.372 . S
C1011 C1010 1.372 . S
C1011 C1012 1.397 1_554 S
C1011 C1016 1.490 . S
C1012 H1002 0.933 . S
C1012 C1011 1.397 1_556 S
C1012 C1015 1.386 1_556 S
H1013 C1029 0.930 . S
H1014 C1030 0.931 . S
C1015 H1003 0.929 1_554 S
C1015 C1009 1.390 . S
C1015 C1012 1.386 1_554 S
C1016 C1011 1.490 . S
C1016 C1018 1.395 1_554 S
C1016 C1019 1.403 . S
H1017 C1023 0.930 . S
C1018 H1004 0.930 . S
C1018 C1016 1.395 1_556 S
C1018 C1021 1.403 . S
C1019 C1016 1.403 . S
C1019 C1020 1.524 . S
C1019 C1023 1.400 . S
C1020 H1005 0.960 . S
C1020 H1006 0.960 . S
C1020 H1007 0.960 . S
C1020 C1019 1.524 . S
C1021 C1018 1.403 . S
C1021 C1022 1.392 . S
C1021 C1025 1.495 . S
C1022 C1021 1.392 . S
C1022 C1023 1.385 1_556 S
C1022 C1024 1.478 . S
C1023 H1017 0.930 . S
C1023 C1019 1.400 . S
C1023 C1022 1.385 1_554 S
C1024 C1022 1.478 . S
C1024 C1026 1.387 . S
C1024 C1030 1.383 . S
C1025 C1021 1.495 . S
C1025 H1031 0.959 . S
C1025 H1032 0.961 . S
C1025 H1033 0.960 . S
C1026 C1024 1.387 . S
C1026 C1027 1.393 . S
C1026 H1034 0.926 1_556 S
C1027 C1026 1.393 . S
C1027 C1028 1.383 . S
C1027 H1035 0.929 1_556 S
C1028 C1027 1.383 . S
C1028 C1029 1.377 . S
C1029 H1013 0.930 . S
C1029 C1028 1.377 . S
C1029 C1030 1.379 . S
C1030 H1014 0.931 . S
C1030 C1024 1.383 . S
C1030 C1029 1.379 . S
H1031 C1025 0.959 . S
H1032 C1025 0.961 . S
H1033 C1025 0.960 . S
H1034 C1026 0.926 1_554 S
H1035 C1027 0.929 1_554 S
H1036 C1044 0.929 . S
H1037 C1046 0.930 . S
H1038 C1048 0.930 . S
H1039 C1051 0.929 . S
H1040 C1054 0.930 . S
H1041 C1056 0.960 . S
H1042 C1056 0.960 . S
H1043 C1056 0.960 . S
C1044 H1036 0.929 . S
C1044 C1045 1.377 . S
C1044 C1046 1.384 . S
C1045 C1044 1.377 . S
C1045 C1051 1.390 . S
C1046 H1037 0.930 . S
C1046 C1044 1.384 . S
C1046 C1047 1.372 . S
C1047 C1046 1.372 . S
C1047 C1048 1.400 . S
C1047 C1052 1.490 . S
C1048 H1038 0.930 . S
C1048 C1047 1.400 . S
C1048 C1051 1.386 . S
H1049 C1065 0.930 . S
H1050 C1066 0.931 . S
C1051 H1039 0.929 . S
C1051 C1045 1.390 . S
C1051 C1048 1.386 . S
C1052 C1047 1.490 . S
C1052 C1054 1.395 . S
C1052 C1055 1.403 . S
H1053 C1059 0.932 1_565 S
C1054 H1040 0.930 . S
C1054 C1052 1.395 . S
C1054 C1057 1.403 . S
C1055 C1052 1.403 . S
C1055 C1056 1.524 . S
C1055 C1059 1.400 . S
C1056 H1041 0.960 . S
C1056 H1042 0.960 . S
C1056 H1043 0.960 . S
C1056 C1055 1.524 . S
C1057 C1054 1.403 . S
C1057 C1058 1.392 . S
C1057 C1061 1.495 . S
C1058 C1057 1.392 . S
C1058 C1059 1.385 . S
C1058 C1060 1.478 1_545 S
C1059 H1053 0.932 1_545 S
C1059 C1055 1.400 . S
C1059 C1058 1.385 . S
C1060 C1058 1.478 1_565 S
C1060 C1062 1.381 . S
C1060 C1066 1.383 . S
C1061 C1057 1.495 . S
C1061 H1067 0.959 . S
C1061 H1068 0.967 . S
C1061 H1069 0.960 . S
C1062 C1060 1.381 . S
C1062 C1063 1.394 . S
C1062 H1070 0.930 . S
C1063 C1062 1.394 . S
C1063 C1064 1.383 . S
C1063 H1071 0.929 . S
C1064 C1063 1.383 . S
C1064 C1065 1.377 . S
C1065 H1049 0.930 . S
C1065 C1064 1.377 . S
C1065 C1066 1.379 . S
C1066 H1050 0.931 . S
C1066 C1060 1.383 . S
C1066 C1065 1.379 . S
H1067 C1061 0.959 . S
H1068 C1061 0.967 . S
H1069 C1061 0.960 . S
H1070 C1062 0.930 . S
H1071 C1063 0.929 . S
H1072 C1080 0.929 . S
H1073 C1082 0.930 . S
H1074 C1084 0.930 1_545 S
H1075 C1087 0.910 1_545 S
H1076 C1090 0.930 . S
H1077 C1092 0.960 . S
H1078 C1092 0.960 . S
H1079 C1092 0.960 . S
C1080 H1072 0.929 . S
C1080 C1081 1.377 . S
C1080 C1082 1.384 . S
C1081 C1080 1.377 . S
C1081 C1087 1.412 . S
C1082 H1073 0.930 . S
C1082 C1080 1.384 . S
C1082 C1083 1.372 . S
C1083 C1082 1.372 . S
C1083 C1084 1.400 . S
C1083 C1088 1.490 . S
C1084 H1074 0.930 1_565 S
C1084 C1083 1.400 . S
C1084 C1087 1.384 . S
H1085 C1101 0.930 . S
H1086 C1102 0.931 . S
C1087 H1075 0.910 1_565 S
C1087 C1081 1.412 . S
C1087 C1084 1.384 . S
C1088 C1083 1.490 . S
C1088 C1090 1.395 1_556 S
C1088 C1091 1.403 . S
H1089 C1095 0.930 . S
C1090 H1076 0.930 . S
C1090 C1088 1.395 1_554 S
C1090 C1093 1.403 . S
C1091 C1088 1.403 . S
C1091 C1092 1.524 . S
C1091 C1095 1.400 . S
C1092 H1077 0.960 . S
C1092 H1078 0.960 . S
C1092 H1079 0.960 . S
C1092 C1091 1.524 . S
C1093 C1090 1.403 . S
C1093 C1094 1.392 1_554 S
C1093 C1097 1.495 . S
C1094 C1093 1.392 1_556 S
C1094 C1095 1.385 . S
C1094 C1096 1.478 . S
C1095 H1089 0.930 . S
C1095 C1091 1.400 . S
C1095 C1094 1.385 . S
C1096 C1094 1.478 . S
C1096 C1098 1.381 . S
C1096 C1102 1.383 1_565 S
C1097 C1093 1.495 . S
C1097 H1103 0.959 1_565 S
C1097 H1104 0.961 1_565 S
C1097 H1105 0.960 . S
C1098 C1096 1.381 . S
C1098 C1099 1.394 . S
C1098 H1106 0.930 1_556 S
C1099 C1098 1.394 . S
C1099 C1100 1.383 . S
C1099 H1107 0.929 1_556 S
C1100 C1099 1.383 . S
C1100 C1101 1.377 1_565 S
C1101 H1085 0.930 . S
C1101 C1100 1.377 1_545 S
C1101 C1102 1.379 . S
C1102 H1086 0.931 . S
C1102 C1096 1.383 1_545 S
C1102 C1101 1.379 . S
H1103 C1097 0.959 1_545 S
H1104 C1097 0.961 1_545 S
H1105 C1097 0.960 . S
H1106 C1098 0.930 1_554 S
H1107 C1099 0.929 1_554 S
H1108 C1116 0.929 . S
H1109 C1118 0.930 . S
H1110 C1120 0.930 . S
H1111 C1123 0.929 . S
H1112 C1126 0.930 . S
H1113 C1128 0.960 . S
H1114 C1128 0.960 . S
H1115 C1128 0.960 . S
C1116 H1108 0.929 . S
C1116 C1117 1.377 . S
C1116 C1118 1.384 . S
C1117 C1116 1.377 . S
C1117 C1123 1.390 . S
C1118 H1109 0.930 . S
C1118 C1116 1.384 . S
C1118 C1119 1.372 . S
C1119 C1118 1.372 . S
C1119 C1120 1.400 . S
C1119 C1124 1.490 . S
C1120 H1110 0.930 . S
C1120 C1119 1.400 . S
C1120 C1123 1.386 . S
H1121 C1137 0.930 . S
H1122 C1138 0.931 . S
C1123 H1111 0.929 . S
C1123 C1117 1.390 . S
C1123 C1120 1.386 . S
C1124 C1119 1.490 . S
C1124 C1126 1.395 . S
C1124 C1127 1.403 . S
H1125 C1131 0.930 . S
C1126 H1112 0.930 . S
C1126 C1124 1.395 . S
C1126 C1129 1.403 . S
C1127 C1124 1.403 . S
C1127 C1128 1.524 . S
C1127 C1131 1.400 . S
C1128 H1113 0.960 . S
C1128 H1114 0.960 . S
C1128 H1115 0.960 . S
C1128 C1127 1.524 . S
C1129 C1126 1.403 . S
C1129 C1130 1.392 . S
C1129 C1133 1.495 . S
C1130 C1129 1.392 . S
C1130 C1131 1.385 . S
C1130 C1132 1.478 . S
C1131 H1125 0.930 . S
C1131 C1127 1.400 . S
C1131 C1130 1.385 . S
C1132 C1130 1.478 . S
C1132 C1134 1.381 . S
C1132 C1138 1.383 . S
C1133 C1129 1.495 . S
C1133 H1139 0.959 . S
C1133 H1140 0.961 . S
C1133 H1141 0.960 . S
C1134 C1132 1.381 . S
C1134 C1135 1.394 . S
C1134 H1142 0.930 . S
C1135 C1134 1.394 . S
C1135 C1136 1.383 . S
C1135 H1143 0.929 . S
C1136 C1135 1.383 . S
C1136 C1137 1.377 . S
C1137 H1121 0.930 . S
C1137 C1136 1.377 . S
C1137 C1138 1.379 . S
C1138 H1122 0.931 . S
C1138 C1132 1.383 . S
C1138 C1137 1.379 . S
H1139 C1133 0.959 . S
H1140 C1133 0.961 . S
H1141 C1133 0.960 . S
H1142 C1134 0.930 . S
H1143 C1135 0.929 . S
H1144 C1152 0.929 . S
H1145 C1154 0.930 . S
H1146 C1156 0.930 . S
H1147 C1159 0.929 . S
H1148 C1162 0.930 . S
H1149 C1164 0.960 . S
H1150 C1164 0.960 . S
H1151 C1164 0.960 . S
C1152 H1144 0.929 . S
C1152 C1153 1.377 . S
C1152 C1154 1.384 . S
C1153 C1152 1.377 . S
C1153 C1159 1.390 . S
C1154 H1145 0.930 . S
C1154 C1152 1.384 . S
C1154 C1155 1.372 . S
C1155 C1154 1.372 . S
C1155 C1156 1.400 . S
C1155 C1160 1.490 . S
C1156 H1146 0.930 . S
C1156 C1155 1.400 . S
C1156 C1159 1.386 . S
H1157 C1173 0.930 . S
H1158 C1174 0.931 . S
C1159 H1147 0.929 . S
C1159 C1153 1.390 . S
C1159 C1156 1.386 . S
C1160 C1155 1.490 . S
C1160 C1162 1.395 . S
C1160 C1163 1.403 . S
H1161 C1167 0.930 . S
C1162 H1148 0.930 . S
C1162 C1160 1.395 . S
C1162 C1165 1.403 . S
C1163 C1160 1.403 . S
C1163 C1164 1.524 . S
C1163 C1167 1.400 . S
C1164 H1149 0.960 . S
C1164 H1150 0.960 . S
C1164 H1151 0.960 . S
C1164 C1163 1.524 . S
C1165 C1162 1.403 . S
C1165 C1166 1.392 . S
C1165 C1169 1.495 . S
C1166 C1165 1.392 . S
C1166 C1167 1.385 . S
C1166 C1168 1.478 . S
C1167 H1161 0.930 . S
C1167 C1163 1.400 . S
C1167 C1166 1.385 . S
C1168 C1166 1.478 . S
C1168 C1170 1.381 . S
C1168 C1174 1.383 . S
C1169 C1165 1.495 . S
C1169 H1175 0.959 . S
C1169 H1176 0.961 . S
C1169 H1177 0.960 . S
C1170 C1168 1.381 . S
C1170 C1171 1.394 . S
C1170 H1178 0.930 . S
C1171 C1170 1.394 . S
C1171 C1172 1.383 . S
C1171 H1179 0.929 . S
C1172 C1171 1.383 . S
C1172 C1173 1.377 . S
C1173 H1157 0.930 . S
C1173 C1172 1.377 . S
C1173 C1174 1.379 . S
C1174 H1158 0.931 . S
C1174 C1168 1.383 . S
C1174 C1173 1.379 . S
H1175 C1169 0.959 . S
H1176 C1169 0.961 . S
H1177 C1169 0.960 . S
H1178 C1170 0.930 . S
H1179 C1171 0.929 . S
H1180 C1188 0.929 . S
H1181 C1190 0.930 . S
H1182 C1192 0.930 . S
H1183 C1195 0.929 . S
H1184 C1198 0.930 1_556 S
H1185 C1200 0.960 1_554 S
H1186 C1200 0.960 . S
H1187 C1200 0.960 . S
C1188 H1180 0.929 . S
C1188 C1189 1.377 . S
C1188 C1190 1.384 . S
C1189 C1188 1.377 . S
C1189 C1195 1.390 . S
C1190 H1181 0.930 . S
C1190 C1188 1.384 . S
C1190 C1191 1.372 . S
C1191 C1190 1.372 . S
C1191 C1192 1.400 . S
C1191 C1196 1.490 . S
C1192 H1182 0.930 . S
C1192 C1191 1.400 . S
C1192 C1195 1.386 . S
H1193 C1209 0.930 . S
H1194 C1210 0.931 . S
C1195 H1183 0.929 . S
C1195 C1189 1.390 . S
C1195 C1192 1.386 . S
C1196 C1191 1.490 . S
C1196 C1198 1.395 1_556 S
C1196 C1199 1.403 1_556 S
H1197 C1203 0.930 . S
C1198 H1184 0.930 1_554 S
C1198 C1196 1.395 1_554 S
C1198 C1201 1.403 . S
C1199 C1196 1.403 1_554 S
C1199 C1200 1.524 1_554 S
C1199 C1203 1.400 . S
C1200 H1185 0.960 1_556 S
C1200 H1186 0.960 . S
C1200 H1187 0.960 . S
C1200 C1199 1.524 1_556 S
C1201 C1198 1.403 . S
C1201 C1202 1.392 . S
C1201 C1205 1.495 . S
C1202 C1201 1.392 . S
C1202 C1203 1.385 . S
C1202 C1204 1.478 . S
C1203 H1197 0.930 . S
C1203 C1199 1.400 . S
C1203 C1202 1.385 . S
C1204 C1202 1.478 . S
C1204 C1206 1.381 . S
C1204 C1210 1.383 . S
C1205 C1201 1.495 . S
C1205 H1211 0.959 . S
C1205 H1212 0.961 . S
C1205 H1213 0.960 . S
C1206 C1204 1.381 . S
C1206 C1207 1.394 . S
C1206 H1214 0.930 . S
C1207 C1206 1.394 . S
C1207 C1208 1.383 . S
C1207 H1215 0.929 . S
C1208 C1207 1.383 . S
C1208 C1209 1.377 . S
C1209 H1193 0.930 . S
C1209 C1208 1.377 . S
C1209 C1210 1.379 . S
C1210 H1194 0.931 . S
C1210 C1204 1.383 . S
C1210 C1209 1.379 . S
H1211 C1205 0.959 . S
H1212 C1205 0.961 . S
H1213 C1205 0.960 . S
H1214 C1206 0.930 . S
H1215 C1207 0.929 . S
H1216 C1224 0.929 . S
H1217 C1226 0.930 . S
H1218 C1228 0.930 . S
H1219 C1231 0.929 . S
H1220 C1234 0.930 . S
H1221 C1236 0.960 . S
H1222 C1236 0.960 . S
H1223 C1236 0.960 . S
C1224 H1216 0.929 . S
C1224 C1225 1.377 . S
C1224 C1226 1.384 . S
C1225 C1224 1.377 . S
C1225 C1231 1.390 . S
C1226 H1217 0.930 . S
C1226 C1224 1.384 . S
C1226 C1227 1.372 . S
C1227 C1226 1.372 . S
C1227 C1228 1.400 . S
C1227 C1232 1.490 . S
C1228 H1218 0.930 . S
C1228 C1227 1.400 . S
C1228 C1231 1.386 . S
H1229 C1245 0.930 . S
H1230 C1246 0.931 . S
C1231 H1219 0.929 . S
C1231 C1225 1.390 . S
C1231 C1228 1.386 . S
C1232 C1227 1.490 . S
C1232 C1234 1.395 . S
C1232 C1235 1.403 . S
H1233 C1239 0.930 . S
C1234 H1220 0.930 . S
C1234 C1232 1.395 . S
C1234 C1237 1.403 . S
C1235 C1232 1.403 . S
C1235 C1236 1.524 . S
C1235 C1239 1.400 . S
C1236 H1221 0.960 . S
C1236 H1222 0.960 . S
C1236 H1223 0.960 . S
C1236 C1235 1.524 . S
C1237 C1234 1.403 . S
C1237 C1238 1.392 . S
C1237 C1241 1.495 . S
C1238 C1237 1.392 . S
C1238 C1239 1.385 . S
C1238 C1240 1.478 . S
C1239 H1233 0.930 . S
C1239 C1235 1.400 . S
C1239 C1238 1.385 . S
C1240 C1238 1.478 . S
C1240 C1242 1.381 . S
C1240 C1246 1.383 . S
C1241 C1237 1.495 . S
C1241 H1247 0.959 . S
C1241 H1248 0.961 . S
C1241 H1249 0.960 . S
C1242 C1240 1.381 . S
C1242 C1243 1.394 . S
C1242 H1250 0.930 . S
C1243 C1242 1.394 . S
C1243 C1244 1.383 . S
C1243 H1251 0.929 . S
C1244 C1243 1.383 . S
C1244 C1245 1.377 . S
C1245 H1229 0.930 . S
C1245 C1244 1.377 . S
C1245 C1246 1.379 . S
C1246 H1230 0.931 . S
C1246 C1240 1.383 . S
C1246 C1245 1.379 . S
H1247 C1241 0.959 . S
H1248 C1241 0.961 . S
H1249 C1241 0.960 . S
H1250 C1242 0.930 . S
H1251 C1243 0.929 . S
H1252 C1260 0.929 . S
H1253 C1262 0.930 . S
H1254 C1264 0.930 . S
H1255 C1267 0.929 . S
H1256 C1270 0.930 . S
H1257 C1272 0.960 . S
H1258 C1272 0.960 . S
H1259 C1272 0.960 . S
C1260 H1252 0.929 . S
C1260 C1261 1.377 . S
C1260 C1262 1.384 . S
C1261 C1260 1.377 . S
C1261 C1267 1.390 . S
C1262 H1253 0.930 . S
C1262 C1260 1.384 . S
C1262 C1263 1.372 . S
C1263 C1262 1.372 . S
C1263 C1264 1.400 . S
C1263 C1268 1.490 . S
C1264 H1254 0.930 . S
C1264 C1263 1.400 . S
C1264 C1267 1.386 . S
H1265 C1281 0.930 . S
H1266 C1282 0.931 . S
C1267 H1255 0.929 . S
C1267 C1261 1.390 . S
C1267 C1264 1.386 . S
C1268 C1263 1.490 . S
C1268 C1270 1.395 . S
C1268 C1271 1.403 . S
H1269 C1275 0.930 . S
C1270 H1256 0.930 . S
C1270 C1268 1.395 . S
C1270 C1273 1.403 . S
C1271 C1268 1.403 . S
C1271 C1272 1.524 . S
C1271 C1275 1.400 . S
C1272 H1257 0.960 . S
C1272 H1258 0.960 . S
C1272 H1259 0.960 . S
C1272 C1271 1.524 . S
C1273 C1270 1.403 . S
C1273 C1274 1.392 . S
C1273 C1277 1.495 . S
C1274 C1273 1.392 . S
C1274 C1275 1.385 . S
C1274 C1276 1.478 . S
C1275 H1269 0.930 . S
C1275 C1271 1.400 . S
C1275 C1274 1.385 . S
C1276 C1274 1.478 . S
C1276 C1278 1.381 . S
C1276 C1282 1.383 . S
C1277 C1273 1.495 . S
C1277 H1283 0.959 . S
C1277 H1284 0.961 . S
C1277 H1285 0.960 . S
C1278 C1276 1.381 . S
C1278 C1279 1.394 . S
C1278 H1286 0.930 . S
C1279 C1278 1.394 . S
C1279 C1280 1.383 . S
C1279 H1287 0.929 . S
C1280 C1279 1.383 . S
C1280 C1281 1.377 . S
C1281 H1265 0.930 . S
C1281 C1280 1.377 . S
C1281 C1282 1.379 . S
C1282 H1266 0.931 . S
C1282 C1276 1.383 . S
C1282 C1281 1.379 . S
H1283 C1277 0.959 . S
H1284 C1277 0.961 . S
H1285 C1277 0.960 . S
H1286 C1278 0.930 . S
H1287 C1279 0.929 . S
H1288 C1296 0.929 . S
H1289 C1298 0.930 . S
H1290 C1300 0.930 . S
H1291 C1303 0.929 . S
H1292 C1306 0.930 . S
H1293 C1308 0.960 . S
H1294 C1308 0.960 . S
H1295 C1308 0.960 . S
C1296 H1288 0.929 . S
C1296 C1297 1.377 . S
C1296 C1298 1.384 . S
C1297 C1296 1.377 . S
C1297 C1303 1.390 1_655 S
C1298 H1289 0.930 . S
C1298 C1296 1.384 . S
C1298 C1299 1.372 . S
C1299 C1298 1.372 . S
C1299 C1300 1.400 1_655 S
C1299 C1304 1.490 . S
C1300 H1290 0.930 . S
C1300 C1299 1.400 1_455 S
C1300 C1303 1.386 . S
H1301 C1317 0.930 1_455 S
H1302 C1318 0.931 1_455 S
C1303 H1291 0.929 . S
C1303 C1297 1.390 1_455 S
C1303 C1300 1.386 . S
C1304 C1299 1.490 . S
C1304 C1306 1.395 . S
C1304 C1307 1.403 . S
H1305 C1311 0.930 1_455 S
C1306 H1292 0.930 . S
C1306 C1304 1.395 . S
C1306 C1309 1.403 . S
C1307 C1304 1.403 . S
C1307 C1308 1.524 1_655 S
C1307 C1311 1.400 . S
C1308 H1293 0.960 . S
C1308 H1294 0.960 . S
C1308 H1295 0.960 . S
C1308 C1307 1.524 1_455 S
C1309 C1306 1.403 . S
C1309 C1310 1.392 . S
C1309 C1313 1.495 . S
C1310 C1309 1.392 . S
C1310 C1311 1.385 . S
C1310 C1312 1.478 . S
C1311 H1305 0.930 1_655 S
C1311 C1307 1.400 . S
C1311 C1310 1.385 . S
C1312 C1310 1.478 . S
C1312 C1314 1.381 . S
C1312 C1318 1.383 . S
C1313 C1309 1.495 . S
C1313 H1319 0.959 . S
C1313 H1320 0.961 . S
C1313 H1321 0.960 . S
C1314 C1312 1.381 . S
C1314 C1315 1.394 . S
C1314 H1322 0.930 . S
C1315 C1314 1.394 . S
C1315 C1316 1.383 . S
C1315 H1323 0.929 . S
C1316 C1315 1.383 . S
C1316 C1317 1.377 . S
C1317 H1301 0.930 1_655 S
C1317 C1316 1.377 . S
C1317 C1318 1.379 . S
C1318 H1302 0.931 1_655 S
C1318 C1312 1.383 . S
C1318 C1317 1.379 . S
H1319 C1313 0.959 . S
H1320 C1313 0.961 . S
H1321 C1313 0.960 . S
H1322 C1314 0.930 . S
H1323 C1315 0.929 . S
H1324 C1332 0.929 . S
H1325 C1334 0.930 . S
H1326 C1336 0.930 . S
H1327 C1339 0.929 . S
H1328 C1342 0.930 . S
H1329 C1344 0.960 . S
H1330 C1344 0.960 . S
H1331 C1344 0.960 . S
C1332 H1324 0.929 . S
C1332 C1333 1.376 1_545 S
C1332 C1334 1.384 . S
C1333 C1332 1.376 1_565 S
C1333 C1339 1.391 . S
C1334 H1325 0.930 . S
C1334 C1332 1.384 . S
C1334 C1335 1.372 . S
C1335 C1334 1.372 . S
C1335 C1336 1.400 1_545 S
C1335 C1340 1.490 . S
C1336 H1326 0.930 . S
C1336 C1335 1.400 1_565 S
C1336 C1339 1.386 . S
H1337 C1353 0.930 . S
H1338 C1354 0.931 . S
C1339 H1327 0.929 . S
C1339 C1333 1.391 . S
C1339 C1336 1.386 . S
C1340 C1335 1.490 . S
C1340 C1342 1.395 . S
C1340 C1343 1.403 1_545 S
H1341 C1347 0.930 . S
C1342 H1328 0.930 . S
C1342 C1340 1.395 . S
C1342 C1345 1.403 . S
C1343 C1340 1.403 1_565 S
C1343 C1344 1.524 . S
C1343 C1347 1.400 . S
C1344 H1329 0.960 . S
C1344 H1330 0.960 . S
C1344 H1331 0.960 . S
C1344 C1343 1.524 . S
C1345 C1342 1.403 . S
C1345 C1346 1.392 . S
C1345 C1349 1.495 . S
C1346 C1345 1.392 . S
C1346 C1347 1.385 1_545 S
C1346 C1348 1.478 . S
C1347 H1341 0.930 . S
C1347 C1343 1.400 . S
C1347 C1346 1.385 1_565 S
C1348 C1346 1.478 . S
C1348 C1350 1.381 . S
C1348 C1354 1.383 1_545 S
C1349 C1345 1.495 . S
C1349 H1355 0.959 . S
C1349 H1356 0.961 . S
C1349 H1357 0.960 . S
C1350 C1348 1.381 . S
C1350 C1351 1.394 . S
C1350 H1358 0.930 . S
C1351 C1350 1.394 . S
C1351 C1352 1.383 . S
C1351 H1359 0.929 . S
C1352 C1351 1.383 . S
C1352 C1353 1.377 1_545 S
C1353 H1337 0.930 . S
C1353 C1352 1.377 1_565 S
C1353 C1354 1.379 . S
C1354 H1338 0.931 . S
C1354 C1348 1.383 1_565 S
C1354 C1353 1.379 . S
H1355 C1349 0.959 . S
H1356 C1349 0.961 . S
H1357 C1349 0.960 . S
H1358 C1350 0.930 . S
H1359 C1351 0.929 . S
C217 C10 2.056 . S
C236 C95 2.049 1_554 S
C253 C17 2.027 . S
C272 C56 2.027 . S
C289 C75 2.067 . S
C308 C30 2.090 . S
C325 C49 2.063 . S
C344 C88 2.032 . S
C361 C114 1.984 . S
C380 C166 1.973 1_556 S
C397 C121 2.088 1_554 S
C416 C186 2.101 . S
C433 C147 2.071 . S
C452 C140 2.044 . S
C469 C205 1.926 . S
C488 C173 1.919 . S
C505 C3 1.237 . S
C524 C81 1.246 . S
C541 C94 0.549 . S
C560 C23 0.514 . S
C577 C31 1.739 . S
C596 C55 1.738 . S
C613 C70 0.848 1_565 S
C632 C44 0.879 . S
C649 C4 1.577 . S
C668 C192 1.590 . S
C685 C148 1.740 . S
C704 C16 1.727 . S
C721 C179 1.461 . S
C740 C36 1.474 . S
C757 C161 1.686 . S
C776 C42 1.663 . S
C793 C134 1.086 . S
C812 C57 1.094 . S
C829 C68 1.226 . S
C848 C198 1.207 . S
C865 C82 0.979 . S
C884 C107 0.983 . S
C901 C96 1.221 . S
C920 C122 1.219 . S
C937 C5 0.594 . S
C956 C62 0.628 . S
C973 C108 0.616 . S
C992 C172 0.601 . S
C1009 C159 0.811 . S
C1028 C127 0.780 . S
C1045 C185 0.851 . S
C1064 C135 0.846 . S
C1081 C101 1.260 . S
C1100 C43 1.242 . S
C1117 C29 0.912 . S
C1136 C83 0.855 . S
C1153 C153 1.483 . S
C1172 C199 1.467 . S
C1189 C174 1.208 . S
C1208 C133 1.227 . S
C1225 C200 0.544 . S
C1244 C160 0.513 . S
C1261 C187 1.745 . S
C1280 C109 1.746 . S
C1297 C146 0.866 . S
C1316 C120 0.894 . S
C1333 C18 1.039 1_565 S
C1352 C69 1.014 . S
