# Generated by pormake.
# Topology umn, (4)-cn, num edge types: 1
# Building blocks:
#     Node 0, Type 0, BuildingBlock: TATPOV_clean_sbu_0, # of connection points: 4
#     Node 1, Type 0, BuildingBlock: TATPOV_clean_sbu_0, # of connection points: 4
#     Node 2, Type 0, BuildingBlock: TATPOV_clean_sbu_0, # of connection points: 4
#     Node 3, Type 0, BuildingBlock: TATPOV_clean_sbu_0, # of connection points: 4
#     Node 4, Type 0, BuildingBlock: TATPOV_clean_sbu_0, # of connection points: 4
#     Node 5, Type 0, BuildingBlock: TATPOV_clean_sbu_0, # of connection points: 4
#     Node 6, Type 0, BuildingBlock: TATPOV_clean_sbu_0, # of connection points: 4
#     Node 7, Type 0, BuildingBlock: TATPOV_clean_sbu_0, # of connection points: 4
#     Node 8, Type 0, BuildingBlock: TATPOV_clean_sbu_0, # of connection points: 4
#     Node 9, Type 0, BuildingBlock: TATPOV_clean_sbu_0, # of connection points: 4
#     Node 10, Type 0, BuildingBlock: TATPOV_clean_sbu_0, # of connection points: 4
#     Node 11, Type 0, BuildingBlock: TATPOV_clean_sbu_0, # of connection points: 4
#     Node 12, Type 0, BuildingBlock: TATPOV_clean_sbu_0, # of connection points: 4
#     Node 13, Type 0, BuildingBlock: TATPOV_clean_sbu_0, # of connection points: 4
#     Node 14, Type 0, BuildingBlock: TATPOV_clean_sbu_0, # of connection points: 4
#     Node 15, Type 0, BuildingBlock: TATPOV_clean_sbu_0, # of connection points: 4
#     Node 16, Type 0, BuildingBlock: TATPOV_clean_sbu_0, # of connection points: 4
#     Node 17, Type 0, BuildingBlock: TATPOV_clean_sbu_0, # of connection points: 4
#     Node 18, Type 0, BuildingBlock: TATPOV_clean_sbu_0, # of connection points: 4
#     Node 19, Type 0, BuildingBlock: TATPOV_clean_sbu_0, # of connection points: 4
#     Node 20, Type 0, BuildingBlock: TATPOV_clean_sbu_0, # of connection points: 4
#     Node 21, Type 0, BuildingBlock: TATPOV_clean_sbu_0, # of connection points: 4
#     Node 22, Type 0, BuildingBlock: TATPOV_clean_sbu_0, # of connection points: 4
#     Node 23, Type 0, BuildingBlock: TATPOV_clean_sbu_0, # of connection points: 4
#     Node 24, Type 0, BuildingBlock: TATPOV_clean_sbu_0, # of connection points: 4
#     Node 25, Type 0, BuildingBlock: TATPOV_clean_sbu_0, # of connection points: 4
#     Node 26, Type 0, BuildingBlock: TATPOV_clean_sbu_0, # of connection points: 4
#     Node 27, Type 0, BuildingBlock: TATPOV_clean_sbu_0, # of connection points: 4
#     Node 28, Type 0, BuildingBlock: TATPOV_clean_sbu_0, # of connection points: 4
#     Node 29, Type 0, BuildingBlock: TATPOV_clean_sbu_0, # of connection points: 4
#     Node 30, Type 0, BuildingBlock: TATPOV_clean_sbu_0, # of connection points: 4
#     Node 31, Type 0, BuildingBlock: TATPOV_clean_sbu_0, # of connection points: 4
#     Node 32, Type 0, BuildingBlock: TATPOV_clean_sbu_0, # of connection points: 4
#     Node 33, Type 0, BuildingBlock: TATPOV_clean_sbu_0, # of connection points: 4
#     Node 34, Type 0, BuildingBlock: TATPOV_clean_sbu_0, # of connection points: 4
#     Node 35, Type 0, BuildingBlock: TATPOV_clean_sbu_0, # of connection points: 4
#     Edge 36, Type (0, 0), BuildingBlock: CIFDUS_clean_linker_0, # of connection points: 2
#     Edge 37, Type (0, 0), BuildingBlock: CIFDUS_clean_linker_0, # of connection points: 2
#     Edge 38, Type (0, 0), BuildingBlock: CIFDUS_clean_linker_0, # of connection points: 2
#     Edge 39, Type (0, 0), BuildingBlock: CIFDUS_clean_linker_0, # of connection points: 2
#     Edge 40, Type (0, 0), BuildingBlock: CIFDUS_clean_linker_0, # of connection points: 2
#     Edge 41, Type (0, 0), BuildingBlock: CIFDUS_clean_linker_0, # of connection points: 2
#     Edge 42, Type (0, 0), BuildingBlock: CIFDUS_clean_linker_0, # of connection points: 2
#     Edge 43, Type (0, 0), BuildingBlock: CIFDUS_clean_linker_0, # of connection points: 2
#     Edge 44, Type (0, 0), BuildingBlock: CIFDUS_clean_linker_0, # of connection points: 2
#     Edge 45, Type (0, 0), BuildingBlock: CIFDUS_clean_linker_0, # of connection points: 2
#     Edge 46, Type (0, 0), BuildingBlock: CIFDUS_clean_linker_0, # of connection points: 2
#     Edge 47, Type (0, 0), BuildingBlock: CIFDUS_clean_linker_0, # of connection points: 2
#     Edge 48, Type (0, 0), BuildingBlock: CIFDUS_clean_linker_0, # of connection points: 2
#     Edge 49, Type (0, 0), BuildingBlock: CIFDUS_clean_linker_0, # of connection points: 2
#     Edge 50, Type (0, 0), BuildingBlock: CIFDUS_clean_linker_0, # of connection points: 2
#     Edge 51, Type (0, 0), BuildingBlock: CIFDUS_clean_linker_0, # of connection points: 2
#     Edge 52, Type (0, 0), BuildingBlock: CIFDUS_clean_linker_0, # of connection points: 2
#     Edge 53, Type (0, 0), BuildingBlock: CIFDUS_clean_linker_0, # of connection points: 2
#     Edge 54, Type (0, 0), BuildingBlock: CIFDUS_clean_linker_0, # of connection points: 2
#     Edge 55, Type (0, 0), BuildingBlock: CIFDUS_clean_linker_0, # of connection points: 2
#     Edge 56, Type (0, 0), BuildingBlock: CIFDUS_clean_linker_0, # of connection points: 2
#     Edge 57, Type (0, 0), BuildingBlock: CIFDUS_clean_linker_0, # of connection points: 2
#     Edge 58, Type (0, 0), BuildingBlock: CIFDUS_clean_linker_0, # of connection points: 2
#     Edge 59, Type (0, 0), BuildingBlock: CIFDUS_clean_linker_0, # of connection points: 2
#     Edge 60, Type (0, 0), BuildingBlock: CIFDUS_clean_linker_0, # of connection points: 2
#     Edge 61, Type (0, 0), BuildingBlock: CIFDUS_clean_linker_0, # of connection points: 2
#     Edge 62, Type (0, 0), BuildingBlock: CIFDUS_clean_linker_0, # of connection points: 2
#     Edge 63, Type (0, 0), BuildingBlock: CIFDUS_clean_linker_0, # of connection points: 2
#     Edge 64, Type (0, 0), BuildingBlock: CIFDUS_clean_linker_0, # of connection points: 2
#     Edge 65, Type (0, 0), BuildingBlock: CIFDUS_clean_linker_0, # of connection points: 2
#     Edge 66, Type (0, 0), BuildingBlock: CIFDUS_clean_linker_0, # of connection points: 2
#     Edge 67, Type (0, 0), BuildingBlock: CIFDUS_clean_linker_0, # of connection points: 2
#     Edge 68, Type (0, 0), BuildingBlock: CIFDUS_clean_linker_0, # of connection points: 2
#     Edge 69, Type (0, 0), BuildingBlock: CIFDUS_clean_linker_0, # of connection points: 2
#     Edge 70, Type (0, 0), BuildingBlock: CIFDUS_clean_linker_0, # of connection points: 2
#     Edge 71, Type (0, 0), BuildingBlock: CIFDUS_clean_linker_0, # of connection points: 2
#     Edge 72, Type (0, 0), BuildingBlock: CIFDUS_clean_linker_0, # of connection points: 2
#     Edge 73, Type (0, 0), BuildingBlock: CIFDUS_clean_linker_0, # of connection points: 2
#     Edge 74, Type (0, 0), BuildingBlock: CIFDUS_clean_linker_0, # of connection points: 2
#     Edge 75, Type (0, 0), BuildingBlock: CIFDUS_clean_linker_0, # of connection points: 2
#     Edge 76, Type (0, 0), BuildingBlock: CIFDUS_clean_linker_0, # of connection points: 2
#     Edge 77, Type (0, 0), BuildingBlock: CIFDUS_clean_linker_0, # of connection points: 2
#     Edge 78, Type (0, 0), BuildingBlock: CIFDUS_clean_linker_0, # of connection points: 2
#     Edge 79, Type (0, 0), BuildingBlock: CIFDUS_clean_linker_0, # of connection points: 2
#     Edge 80, Type (0, 0), BuildingBlock: CIFDUS_clean_linker_0, # of connection points: 2
#     Edge 81, Type (0, 0), BuildingBlock: CIFDUS_clean_linker_0, # of connection points: 2
#     Edge 82, Type (0, 0), BuildingBlock: CIFDUS_clean_linker_0, # of connection points: 2
#     Edge 83, Type (0, 0), BuildingBlock: CIFDUS_clean_linker_0, # of connection points: 2
#     Edge 84, Type (0, 0), BuildingBlock: CIFDUS_clean_linker_0, # of connection points: 2
#     Edge 85, Type (0, 0), BuildingBlock: CIFDUS_clean_linker_0, # of connection points: 2
#     Edge 86, Type (0, 0), BuildingBlock: CIFDUS_clean_linker_0, # of connection points: 2
#     Edge 87, Type (0, 0), BuildingBlock: CIFDUS_clean_linker_0, # of connection points: 2
#     Edge 88, Type (0, 0), BuildingBlock: CIFDUS_clean_linker_0, # of connection points: 2
#     Edge 89, Type (0, 0), BuildingBlock: CIFDUS_clean_linker_0, # of connection points: 2
#     Edge 90, Type (0, 0), BuildingBlock: CIFDUS_clean_linker_0, # of connection points: 2
#     Edge 91, Type (0, 0), BuildingBlock: CIFDUS_clean_linker_0, # of connection points: 2
#     Edge 92, Type (0, 0), BuildingBlock: CIFDUS_clean_linker_0, # of connection points: 2
#     Edge 93, Type (0, 0), BuildingBlock: CIFDUS_clean_linker_0, # of connection points: 2
#     Edge 94, Type (0, 0), BuildingBlock: CIFDUS_clean_linker_0, # of connection points: 2
#     Edge 95, Type (0, 0), BuildingBlock: CIFDUS_clean_linker_0, # of connection points: 2
#     Edge 96, Type (0, 0), BuildingBlock: CIFDUS_clean_linker_0, # of connection points: 2
#     Edge 97, Type (0, 0), BuildingBlock: CIFDUS_clean_linker_0, # of connection points: 2
#     Edge 98, Type (0, 0), BuildingBlock: CIFDUS_clean_linker_0, # of connection points: 2
#     Edge 99, Type (0, 0), BuildingBlock: CIFDUS_clean_linker_0, # of connection points: 2
#     Edge 100, Type (0, 0), BuildingBlock: CIFDUS_clean_linker_0, # of connection points: 2
#     Edge 101, Type (0, 0), BuildingBlock: CIFDUS_clean_linker_0, # of connection points: 2
#     Edge 102, Type (0, 0), BuildingBlock: CIFDUS_clean_linker_0, # of connection points: 2
#     Edge 103, Type (0, 0), BuildingBlock: CIFDUS_clean_linker_0, # of connection points: 2
#     Edge 104, Type (0, 0), BuildingBlock: CIFDUS_clean_linker_0, # of connection points: 2
#     Edge 105, Type (0, 0), BuildingBlock: CIFDUS_clean_linker_0, # of connection points: 2
#     Edge 106, Type (0, 0), BuildingBlock: CIFDUS_clean_linker_0, # of connection points: 2
#     Edge 107, Type (0, 0), BuildingBlock: CIFDUS_clean_linker_0, # of connection points: 2
# Relax obj value: 0.241
# Max RMSD: 0.288
# Mean RMSD: 0.288
data_MOF--net-umn--node1-TATPOV_clean_sbu_0--edge1-CIFDUS_clean_linker_0
_symmetry_space_group_name_H-M    P1
_symmetry_Int_Tables_number       1
_symmetry_cell_setting            triclinic
loop_
_symmetry_equiv_pos_as_xyz
'x, y, z'
_cell_length_a     73.247351
_cell_length_b     73.237411
_cell_length_c     32.001111
_cell_angle_alpha  90.042205
_cell_angle_beta   90.028894
_cell_angle_gamma 120.10616
loop_
_atom_site_label
_atom_site_type_symbol
_atom_site_fract_x
_atom_site_fract_y
_atom_site_fract_z
_atom_type_partial_charge
Zn0 Zn 0.39802 0.10073 0.27165 0.0
Zn1 Zn 0.38035 0.11522 0.22461 0.0
O2 O 0.40598 0.11868 0.18996 0.0
O3 O 0.42131 0.10609 0.23018 0.0
O4 O 0.3718 0.13453 0.19809 0.0
O5 O 0.40103 0.11681 0.32554 0.0
O6 O 0.37821 0.12055 0.28782 0.0
C7 C 0.42015 0.11362 0.19528 0.0
C8 C 0.35469 0.07095 0.23865 0.0
O9 O 0.35668 0.08579 0.21512 0.0
O10 O 0.36915 0.07389 0.26436 0.0
C11 C 0.35552 0.13394 0.21343 0.0
O12 O 0.34483 0.12 0.24259 0.0
C13 C 0.38643 0.12124 0.32329 0.0
Zn14 Zn 0.90255 0.28776 0.2617 0.0
Zn15 Zn 0.88762 0.25645 0.21419 0.0
O16 O 0.8847 0.27975 0.18232 0.0
O17 O 0.89675 0.30686 0.22472 0.0
O18 O 0.86631 0.22922 0.18775 0.0
O19 O 0.88861 0.27471 0.31721 0.0
O20 O 0.88499 0.24874 0.27756 0.0
C21 C 0.88941 0.29879 0.18926 0.0
C22 C 0.93155 0.27438 0.22264 0.0
O23 O 0.91626 0.2614 0.20002 0.0
O24 O 0.92906 0.28577 0.24945 0.0
C25 C 0.86501 0.21227 0.20104 0.0
O26 O 0.87842 0.21337 0.22961 0.0
C27 C 0.88511 0.25599 0.31382 0.0
Zn28 Zn 0.69887 0.61236 0.24865 0.0
Zn29 Zn 0.73148 0.64164 0.2084 0.0
O30 O 0.71713 0.61461 0.17238 0.0
O31 O 0.69173 0.58838 0.20711 0.0
O32 O 0.76064 0.65723 0.18489 0.0
O33 O 0.71344 0.61748 0.30622 0.0
O34 O 0.73758 0.64443 0.27114 0.0
C35 C 0.70232 0.59542 0.17376 0.0
C36 C 0.69727 0.64989 0.21246 0.0
O37 O 0.71598 0.65727 0.19881 0.0
O38 O 0.68814 0.63253 0.23241 0.0
C39 C 0.77528 0.67383 0.20187 0.0
O40 O 0.77053 0.68309 0.23166 0.0
C41 C 0.73047 0.63511 0.30583 0.0
Zn42 Zn 0.08592 0.3702 0.22221 0.0
Zn43 Zn 0.09572 0.34852 0.26713 0.0
O44 O 0.10034 0.3738 0.30547 0.0
O45 O 0.09226 0.39298 0.26538 0.0
O46 O 0.11315 0.33722 0.29145 0.0
O47 O 0.10255 0.37343 0.16924 0.0
O48 O 0.1019 0.34737 0.20386 0.0
C49 C 0.09758 0.38958 0.30094 0.0
C50 C 0.05194 0.32705 0.24886 0.0
O51 O 0.06538 0.32639 0.27296 0.0
O52 O 0.05718 0.34288 0.22529 0.0
C53 C 0.11326 0.33048 0.3279 0.0
O54 O 0.10057 0.3307 0.35664 0.0
C55 C 0.10466 0.3573 0.16962 0.0
Zn56 Zn 0.58302 0.70153 0.2237 0.0
Zn57 Zn 0.61612 0.73046 0.26642 0.0
O58 O 0.5919 0.71523 0.30889 0.0
O59 O 0.56356 0.69231 0.27475 0.0
O60 O 0.63761 0.75506 0.29954 0.0
O61 O 0.58636 0.72288 0.17835 0.0
O62 O 0.61517 0.74478 0.21223 0.0
C63 C 0.5726 0.70065 0.30903 0.0
C64 C 0.61982 0.69522 0.23086 0.0
O65 O 0.62854 0.71225 0.25195 0.0
O66 O 0.60119 0.68775 0.2168 0.0
C67 C 0.65421 0.76964 0.28255 0.0
O68 O 0.65849 0.76732 0.2437 0.0
C69 C 0.60343 0.74047 0.18021 0.0
Zn70 Zn 0.30049 0.91977 0.22598 0.0
Zn71 Zn 0.26846 0.90664 0.27025 0.0
O72 O 0.29086 0.90373 0.30606 0.0
O73 O 0.31867 0.91422 0.26628 0.0
O74 O 0.24041 0.88589 0.29439 0.0
O75 O 0.28816 0.90492 0.1707 0.0
O76 O 0.26164 0.90272 0.20637 0.0
C77 C 0.30987 0.90782 0.30152 0.0
C78 C 0.28796 0.95056 0.25904 0.0
O79 O 0.27402 0.93582 0.28134 0.0
O80 O 0.29953 0.9471 0.23447 0.0
C81 C 0.23705 0.8784 0.33115 0.0
O82 O 0.25278 0.88524 0.35781 0.0
C83 C 0.26952 0.90181 0.17145 0.0
Zn84 Zn 0.61415 0.90104 0.69058 0.0
Zn85 Zn 0.62963 0.88351 0.72996 0.0
O86 O 0.60373 0.88203 0.76178 0.0
O87 O 0.58701 0.89298 0.72162 0.0
O88 O 0.63022 0.85789 0.75003 0.0
O89 O 0.617 0.8938 0.63046 0.0
O90 O 0.63751 0.88586 0.66646 0.0
C91 C 0.58867 0.88584 0.75656 0.0
C92 C 0.65513 0.92644 0.73996 0.0
O93 O 0.65428 0.90958 0.75244 0.0
O94 O 0.64095 0.92586 0.71612 0.0
C95 C 0.62455 0.85122 0.78706 0.0
O96 O 0.61987 0.86219 0.81293 0.0
C97 C 0.63173 0.88951 0.63134 0.0
Zn98 Zn 0.0876 0.69447 0.76217 0.0
Zn99 Zn 0.10271 0.72682 0.80918 0.0
O100 O 0.10246 0.70316 0.84595 0.0
O101 O 0.08951 0.67518 0.80566 0.0
O102 O 0.12301 0.75395 0.8376 0.0
O103 O 0.1059 0.70666 0.71041 0.0
O104 O 0.11047 0.73402 0.74652 0.0
C105 C 0.09624 0.6836 0.84116 0.0
C106 C 0.05978 0.71192 0.78716 0.0
O107 O 0.07408 0.7239 0.81276 0.0
O108 O 0.06235 0.69938 0.76369 0.0
C109 C 0.12573 0.77094 0.82128 0.0
O110 O 0.11424 0.76984 0.78879 0.0
C111 C 0.11158 0.72608 0.71184 0.0
Zn112 Zn 0.30463 0.38645 0.80928 0.0
Zn113 Zn 0.271 0.38487 0.81324 0.0
O114 O 0.29283 0.40734 0.85627 0.0
O115 O 0.32396 0.41561 0.83176 0.0
O116 O 0.24409 0.38536 0.81924 0.0
O117 O 0.29957 0.37684 0.74888 0.0
O118 O 0.27425 0.3845 0.74895 0.0
C119 C 0.31298 0.41846 0.85872 0.0
C120 C 0.27406 0.34931 0.8481 0.0
O121 O 0.26212 0.35483 0.83036 0.0
O122 O 0.29364 0.36239 0.85073 0.0
C123 C 0.2345 0.38018 0.854 0.0
O124 O 0.24377 0.37708 0.88619 0.0
C125 C 0.28468 0.37738 0.72991 0.0
Zn126 Zn 0.90837 0.6331 0.78349 0.0
Zn127 Zn 0.89967 0.65567 0.73719 0.0
O128 O 0.89234 0.62806 0.70608 0.0
O129 O 0.89749 0.60685 0.74611 0.0
O130 O 0.87954 0.66336 0.71147 0.0
O131 O 0.89695 0.6362 0.84 0.0
O132 O 0.89893 0.66144 0.80028 0.0
C133 C 0.89216 0.61071 0.711 0.0
C134 C 0.94311 0.67405 0.74405 0.0
O135 O 0.92962 0.67606 0.72258 0.0
O136 O 0.93742 0.65863 0.76907 0.0
C137 C 0.87466 0.6761 0.72801 0.0
O138 O 0.88516 0.68713 0.76089 0.0
C139 C 0.89755 0.65374 0.83657 0.0
Zn140 Zn 0.36776 0.29069 0.83658 0.0
Zn141 Zn 0.34171 0.26378 0.78581 0.0
O142 O 0.36616 0.28719 0.74972 0.0
O143 O 0.38927 0.31021 0.79356 0.0
O144 O 0.32954 0.23717 0.75197 0.0
O145 O 0.37095 0.27226 0.88053 0.0
O146 O 0.3427 0.25205 0.84388 0.0
C147 C 0.38337 0.30444 0.75626 0.0
C148 C 0.32341 0.28411 0.82863 0.0
O149 O 0.32 0.27231 0.79688 0.0
O150 O 0.34116 0.29258 0.84715 0.0
C151 C 0.33478 0.23563 0.71487 0.0
O152 O 0.34709 0.25283 0.69361 0.0
C153 C 0.35338 0.25528 0.87723 0.0
Zn154 Zn 0.69847 0.08521 0.73971 0.0
Zn155 Zn 0.72685 0.08474 0.69289 0.0
O156 O 0.70613 0.08733 0.65178 0.0
O157 O 0.68235 0.08886 0.69092 0.0
O158 O 0.75345 0.09512 0.66007 0.0
O159 O 0.71783 0.107 0.78315 0.0
O160 O 0.73925 0.0999 0.74867 0.0
C161 C 0.68923 0.08823 0.65488 0.0
C162 C 0.70111 0.0456 0.73637 0.0
O163 O 0.71512 0.05431 0.70812 0.0
O164 O 0.6926 0.05537 0.7525 0.0
C165 C 0.76886 0.09416 0.67588 0.0
O166 O 0.76585 0.08322 0.71029 0.0
C167 C 0.73545 0.10769 0.78076 0.0
Zn168 Zn 0.04232 0.40766 0.59317 0.0
Zn169 Zn 0.02538 0.42062 0.54049 0.0
O170 O 0.05143 0.42269 0.50995 0.0
O171 O 0.0667 0.41208 0.55503 0.0
O172 O 0.01875 0.44041 0.50989 0.0
O173 O 0.04318 0.42395 0.64593 0.0
O174 O 0.02154 0.4265 0.60243 0.0
C175 C 0.06575 0.4182 0.51843 0.0
C176 C -0.00066 0.37709 0.5576 0.0
O177 O 0.0015 0.39121 0.53179 0.0
O178 O 0.01359 0.38083 0.58448 0.0
C179 C 0.0028 0.44141 0.52227 0.0
O180 O 0.99059 0.42822 0.5512 0.0
C181 C 0.02833 0.42776 0.63961 0.0
Zn182 Zn 0.58447 0.64454 0.58788 0.0
Zn183 Zn 0.55229 0.61091 0.57453 0.0
O184 O 0.55244 0.63496 0.53664 0.0
O185 O 0.57807 0.66501 0.56048 0.0
O186 O 0.52305 0.58609 0.56755 0.0
O187 O 0.58673 0.64267 0.64975 0.0
O188 O 0.55904 0.6115 0.6387 0.0
C189 C 0.563 0.65516 0.53513 0.0
C190 C 0.59042 0.61298 0.54302 0.0
O191 O 0.57083 0.60078 0.54894 0.0
O192 O 0.59916 0.63216 0.55415 0.0
C193 C 0.51776 0.56932 0.58811 0.0
O194 O 0.53128 0.56901 0.61465 0.0
C195 C 0.57349 0.62455 0.66324 0.0
Zn196 Zn 0.3752 0.95859 0.60125 0.0
Zn197 Zn 0.4074 0.97701 0.55528 0.0
O198 O 0.38472 0.9518 0.5196 0.0
O199 O 0.35682 0.93547 0.55962 0.0
O200 O 0.43532 0.98473 0.52988 0.0
O201 O 0.38808 0.95523 0.65507 0.0
O202 O 0.41473 0.97886 0.61854 0.0
C203 C 0.36552 0.93732 0.52444 0.0
C204 C 0.38927 0.00264 0.57098 0.0
O205 O 0.40236 0.00121 0.54713 0.0
O206 O 0.37748 0.9876 0.59537 0.0
C207 C 0.43827 0.97925 0.49403 0.0
O208 O 0.4221 0.9685 0.46903 0.0
C209 C 0.40706 0.97015 0.65361 0.0
Zn210 Zn 0.7264 0.69388 0.58401 0.0
Zn211 Zn 0.73745 0.67305 0.63117 0.0
O212 O 0.73815 0.69699 0.66741 0.0
O213 O 0.729 0.71551 0.62781 0.0
O214 O 0.75804 0.66697 0.65991 0.0
O215 O 0.74494 0.69874 0.53268 0.0
O216 O 0.74579 0.67398 0.56928 0.0
C217 C 0.73427 0.71205 0.66336 0.0
C218 C 0.69561 0.64756 0.60475 0.0
O219 O 0.70825 0.6476 0.63207 0.0
O220 O 0.70035 0.66414 0.58391 0.0
C221 C 0.76288 0.65401 0.6443 0.0
O222 O 0.75219 0.64251 0.61202 0.0
C223 C 0.74854 0.68354 0.53463 0.0
Zn224 Zn 0.29245 0.05645 0.56965 0.0
Zn225 Zn 0.3128 0.08968 0.61234 0.0
O226 O 0.28689 0.06809 0.64721 0.0
O227 O 0.26825 0.03936 0.61038 0.0
O228 O 0.32014 0.11787 0.63624 0.0
O229 O 0.29113 0.06895 0.51354 0.0
O230 O 0.31591 0.09554 0.54858 0.0
C231 C 0.27127 0.04933 0.64442 0.0
C232 C 0.33589 0.06875 0.60313 0.0
O233 O 0.33591 0.08342 0.62439 0.0
O234 O 0.32044 0.05698 0.57949 0.0
C235 C 0.31673 0.12033 0.67415 0.0
O236 O 0.30966 0.10423 0.69988 0.0
C237 C 0.30713 0.08736 0.5138 0.0
Zn238 Zn 0.95575 0.22988 0.55396 0.0
Zn239 Zn 0.92214 0.2141 0.59635 0.0
O240 O 0.94432 0.21126 0.63242 0.0
O241 O 0.97355 0.22443 0.59592 0.0
O242 O 0.89367 0.19215 0.6174 0.0
O243 O 0.94485 0.21637 0.49666 0.0
O244 O 0.91747 0.21207 0.5322 0.0
C245 C 0.96374 0.21646 0.6297 0.0
C246 C 0.93976 0.25795 0.58769 0.0
O247 O 0.92608 0.24258 0.60917 0.0
O248 O 0.95237 0.25571 0.56382 0.0
C249 C 0.87775 0.19198 0.60116 0.0
O250 O 0.88082 0.20691 0.57453 0.0
C251 C 0.92599 0.21267 0.49717 0.0
Zn252 Zn 0.2581 0.23399 0.11524 0.0
Zn253 Zn 0.28052 0.22451 0.16308 0.0
O254 O 0.25358 0.21647 0.19721 0.0
O255 O 0.23438 0.22497 0.15809 0.0
O256 O 0.29348 0.20974 0.19247 0.0
O257 O 0.25842 0.21793 0.06327 0.0
O258 O 0.28327 0.21794 0.10124 0.0
C259 C 0.23735 0.21841 0.19267 0.0
C260 C 0.29892 0.26911 0.14725 0.0
O261 O 0.30003 0.25556 0.17024 0.0
O262 O 0.28382 0.26364 0.12159 0.0
C263 C 0.3105 0.21166 0.17799 0.0
O264 O 0.31993 0.22472 0.14682 0.0
C265 C 0.27431 0.21547 0.06593 0.0
Zn266 Zn 0.76477 0.04122 0.01544 0.0
Zn267 Zn 0.76448 0.06847 0.06505 0.0
O268 O 0.77233 0.05001 0.10161 0.0
O269 O 0.77298 0.02651 0.06023 0.0
O270 O 0.77448 0.09429 0.10011 0.0
O271 O 0.78308 0.06128 0.9691 0.0
O272 O 0.77471 0.0811 1.00614 0.0
C273 C 0.77444 0.0339 0.09671 0.0
C274 C 0.72364 0.03941 0.03227 0.0
O275 O 0.73306 0.05346 0.06017 0.0
O276 O 0.73359 0.03274 0.01049 0.0
C277 C 0.77382 0.11047 0.08809 0.0
O278 O 0.76401 0.1096 0.05312 0.0
C279 C 0.78149 0.07769 0.97211 0.0
Zn280 Zn 0.96366 0.7238 0.11108 0.0
Zn281 Zn 0.93014 0.70557 0.15653 0.0
O282 O 0.95215 0.73041 0.19247 0.0
O283 O 0.98103 0.74661 0.15486 0.0
O284 O 0.90169 0.69814 0.17876 0.0
O285 O 0.95123 0.72638 0.05522 0.0
O286 O 0.92449 0.70413 0.09322 0.0
C287 C 0.97153 0.74464 0.18917 0.0
C288 C 0.94816 0.67962 0.14359 0.0
O289 O 0.93483 0.68124 0.16632 0.0
O290 O 0.9604 0.6945 0.11935 0.0
C291 C 0.88633 0.68134 0.16397 0.0
O292 O 0.89035 0.66918 0.14007 0.0
C293 C 0.93209 0.71182 0.05754 0.0
Zn294 Zn 0.56715 0.92411 0.06247 0.0
Zn295 Zn 0.55761 0.94659 0.01702 0.0
O296 O 0.554 0.92211 0.97843 0.0
O297 O 0.56173 0.90221 0.01703 0.0
O298 O 0.54074 0.95777 0.98916 0.0
O299 O 0.54977 0.92084 0.11475 0.0
O300 O 0.55045 0.94681 0.07975 0.0
C301 C 0.55682 0.90635 0.9817 0.0
C302 C 0.60095 0.96804 0.03977 0.0
O303 O 0.588 0.96888 0.01451 0.0
O304 O 0.59554 0.95184 0.06227 0.0
C305 C 0.54019 0.97326 1.00569 0.0
O306 O 0.55188 0.98242 0.03878 0.0
C307 C 0.54761 0.93697 0.1141 0.0
Zn308 Zn 0.04079 0.61848 0.13803 0.0
Zn309 Zn 0.01931 0.58787 0.09057 0.0
O310 O 0.04589 0.60919 0.05668 0.0
O311 O 0.06523 0.63574 0.09834 0.0
O312 O 0.00983 0.56042 0.06138 0.0
O313 O 0.04157 0.6035 0.19088 0.0
O314 O 0.01577 0.57928 0.15337 0.0
C315 C 0.06214 0.62731 0.06252 0.0
C316 C -0.00154 0.61061 0.10718 0.0
O317 O -0.00225 0.59665 0.08254 0.0
O318 O 0.01395 0.62053 0.13198 0.0
C319 C 0.99357 0.54357 0.07324 0.0
O320 O 0.98177 0.5445 0.10314 0.0
C321 C 0.02485 0.58568 0.18867 0.0
Zn322 Zn 0.38174 0.43259 0.14243 0.0
Zn323 Zn 0.41144 0.4326 0.09619 0.0
O324 O 0.39822 0.44597 0.0594 0.0
O325 O 0.37245 0.44546 0.09526 0.0
O326 O 0.43826 0.43984 0.06654 0.0
O327 O 0.40084 0.44725 0.19335 0.0
O328 O 0.42182 0.44012 0.15695 0.0
C329 C 0.38262 0.44909 0.06129 0.0
C330 C 0.37635 0.39105 0.11635 0.0
O331 O 0.39261 0.40123 0.09363 0.0
O332 O 0.3698 0.40062 0.13968 0.0
C333 C 0.44077 0.44137 0.02717 0.0
O334 O 0.4245 0.4366 1.00289 0.0
C335 C 0.41725 0.44558 0.19141 0.0
Zn336 Zn 0.69062 0.75372 0.94418 0.0
Zn337 Zn 0.65594 0.74465 0.90274 0.0
O338 O 0.67867 0.74989 0.85855 0.0
O339 O 0.70809 0.75766 0.89098 0.0
O340 O 0.63459 0.74873 0.8715 0.0
O341 O 0.6908 0.77645 0.9822 0.0
O342 O 0.65952 0.7628 0.95379 0.0
C343 C 0.69783 0.75426 0.85719 0.0
C344 C 0.65212 0.71056 0.9544 0.0
O345 O 0.64297 0.71532 0.92614 0.0
O346 O 0.67095 0.72369 0.9653 0.0
C347 C 0.63417 0.75025 0.83202 0.0
O348 O 0.6449 0.74411 0.80883 0.0
C349 C 0.67245 0.77417 0.98203 0.0
Zn350 Zn 0.2463 0.96838 0.91903 0.0
Zn351 Zn 0.23541 0.93498 0.87675 0.0
O352 O 0.23037 0.95518 0.83926 0.0
O353 O 0.23881 0.98388 0.87501 0.0
O354 O 0.21711 0.90655 0.85092 0.0
O355 O 0.23119 0.95538 0.97401 0.0
O356 O 0.2306 0.92905 0.94041 0.0
C357 C 0.23276 0.97366 0.841 0.0
C358 C 0.27949 0.95809 0.89086 0.0
O359 O 0.26559 0.94306 0.86896 0.0
O360 O 0.27474 0.96945 0.91327 0.0
C361 C 0.21446 0.88986 0.8686 0.0
O362 O 0.22506 0.89144 0.90284 0.0
C363 C 0.22895 0.93706 0.97456 0.0
Zn364 Zn 0.03896 0.27177 0.91174 0.0
Zn365 Zn 0.07228 0.29887 0.87155 0.0
O366 O 0.05632 0.27458 0.82858 0.0
O367 O 0.02761 0.25161 0.86161 0.0
O368 O 0.1022 0.31619 0.85289 0.0
O369 O 0.05298 0.26896 0.96486 0.0
O370 O 0.07788 0.2971 0.9341 0.0
C371 C 0.03848 0.2575 0.82835 0.0
C372 C 0.04425 0.31417 0.89228 0.0
O373 O 0.05982 0.31761 0.86942 0.0
O374 O 0.03419 0.29709 0.91276 0.0
C375 C 0.11087 0.32852 0.82219 0.0
O376 O 0.09921 0.33044 0.79326 0.0
C377 C 0.07066 0.28588 0.96683 0.0
Zn378 Zn 0.43335 0.06328 0.89731 0.0
Zn379 Zn 0.44408 0.04255 0.9441 0.0
O380 O 0.44931 0.06884 0.97892 0.0
O381 O 0.44039 0.0872 0.93832 0.0
O382 O 0.46167 0.03225 0.97214 0.0
O383 O 0.44902 0.06479 0.8438 0.0
O384 O 0.44904 0.0397 0.88084 0.0
C385 C 0.44654 0.08456 0.97366 0.0
C386 C 0.40003 0.0207 0.92836 0.0
O387 O 0.41382 0.02066 0.95238 0.0
O388 O 0.40484 0.03593 0.90339 0.0
C389 C 0.46166 0.01621 0.95702 0.0
O390 O 0.44915 0.00618 0.92539 0.0
C391 C 0.45101 0.0486 0.8456 0.0
Zn392 Zn 0.944 0.36915 0.90103 0.0
Zn393 Zn 0.96458 0.39837 0.95222 0.0
O394 O 0.93691 0.37653 0.98172 0.0
O395 O 0.91764 0.35176 0.93657 0.0
O396 O 0.97329 0.42549 0.98221 0.0
O397 O 0.94717 0.38527 0.84675 0.0
O398 O 0.97119 0.40751 0.89002 0.0
C399 C 0.9203 0.35906 0.9734 0.0
C400 C 0.98418 0.37444 0.94013 0.0
O401 O 0.98504 0.38865 0.96422 0.0
O402 O 0.96954 0.3655 0.91317 0.0
C403 C 0.99001 0.44231 0.97196 0.0
O404 O 0.0025 0.44143 0.94355 0.0
C405 C 0.96432 0.40241 0.85276 0.0
Zn406 Zn 0.62912 0.58017 0.9195 0.0
Zn407 Zn 0.593 0.55253 0.93601 0.0
O408 O 0.61593 0.54964 0.97067 0.0
O409 O 0.64687 0.56834 0.94116 0.0
O410 O 0.56572 0.52606 0.94855 0.0
O411 O 0.62337 0.58399 0.85944 0.0
O412 O 0.5918 0.55709 0.87186 0.0
C413 C 0.63568 0.55595 0.97 0.0
C414 C 0.60539 0.59352 0.97187 0.0
O415 O 0.5896 0.57574 0.96247 0.0
O416 O 0.62376 0.59799 0.96055 0.0
C417 C 0.56234 0.51844 0.98524 0.0
O418 O 0.57708 0.52779 0.0138 0.0
C419 C 0.60468 0.57155 0.8473 0.0
Zn420 Zn 0.93893 0.57402 0.43863 0.0
Zn421 Zn 0.95775 0.55871 0.48089 0.0
O422 O 0.93404 0.55693 0.51904 0.0
O423 O 0.91707 0.56938 0.48354 0.0
O424 O 0.96472 0.53781 0.50528 0.0
O425 O 0.93425 0.55797 0.38375 0.0
O426 O 0.9575 0.55315 0.41739 0.0
C427 C 0.91982 0.56211 0.51741 0.0
C428 C 0.98398 0.60261 0.46625 0.0
O429 O 0.98269 0.58758 0.48827 0.0
O430 O 0.96854 0.60011 0.44388 0.0
C431 C 0.97856 0.53489 0.48755 0.0
O432 O 0.98913 0.54687 0.45573 0.0
C433 C 0.9484 0.55285 0.38327 0.0
Zn434 Zn 0.41373 0.38218 0.46126 0.0
Zn435 Zn 0.41645 0.40994 0.51182 0.0
O436 O 0.41798 0.38702 0.54835 0.0
O437 O 0.41629 0.36316 0.5046 0.0
O438 O 0.42924 0.43573 0.54803 0.0
O439 O 0.43494 0.40017 0.41647 0.0
O440 O 0.42958 0.42211 0.45367 0.0
C441 C 0.41715 0.36941 0.54188 0.0
C442 C 0.37624 0.38825 0.47236 0.0
O443 O 0.38596 0.40078 0.50244 0.0
O444 O 0.38481 0.37948 0.45245 0.0
C445 C 0.42908 0.4522 0.53616 0.0
O446 O 0.41888 0.45141 0.50178 0.0
C447 C 0.43606 0.41794 0.41995 0.0
Zn448 Zn 0.61896 0.02866 0.35954 0.0
Zn449 Zn 0.58849 0.00946 0.40665 0.0
O450 O 0.61137 0.03546 0.44115 0.0
O451 O 0.63811 0.05257 0.39867 0.0
O452 O 0.5607 0.00144 0.43299 0.0
O453 O 0.6054 0.03095 0.30586 0.0
O454 O 0.58029 0.006 0.34325 0.0
C455 C 0.63019 0.0505 0.43475 0.0
C456 C 0.60777 0.98538 0.39075 0.0
O457 O 0.5947 0.98611 0.41578 0.0
O458 O 0.61841 0.0005 0.36564 0.0
C459 C 0.55785 0.00708 0.46876 0.0
O460 O 0.57413 0.01825 0.49327 0.0
C461 C 0.58714 0.0148 0.30787 0.0
Zn462 Zn 0.24652 0.27553 0.47392 0.0
Zn463 Zn 0.22164 0.28737 0.45608 0.0
O464 O 0.21593 0.26087 0.41932 0.0
O465 O 0.23305 0.24679 0.4483 0.0
O466 O 0.19624 0.29046 0.44759 0.0
O467 O 0.24931 0.28124 0.53567 0.0
O468 O 0.22884 0.29404 0.51969 0.0
C469 C 0.22095 0.24646 0.41977 0.0
C470 C 0.26308 0.31433 0.42301 0.0
O471 O 0.24526 0.31285 0.42852 0.0
O472 O 0.26671 0.30028 0.43723 0.0
C473 C 0.19177 0.29276 0.41037 0.0
O474 O 0.20336 0.29214 0.37967 0.0
C475 C 0.24038 0.2915 0.54626 0.0
Zn476 Zn 0.72651 0.96533 0.39377 0.0
Zn477 Zn 0.71367 0.93289 0.34946 0.0
O478 O 0.73702 0.9578 0.31399 0.0
O479 O 0.74893 0.98589 0.35372 0.0
O480 O 0.71094 0.90611 0.32582 0.0
O481 O 0.73095 0.95611 0.45111 0.0
O482 O 0.7106 0.92793 0.41419 0.0
C483 C 0.74903 0.97768 0.3189 0.0
C484 C 0.68211 0.94361 0.35864 0.0
O485 O 0.68671 0.9322 0.33616 0.0
O486 O 0.69562 0.95722 0.38355 0.0
C487 C 0.69938 0.889 0.34541 0.0
O488 O 0.68951 0.88945 0.37931 0.0
C489 C 0.71733 0.93663 0.44972 0.0
Zn490 Zn 0.05131 0.75794 0.46055 0.0
Zn491 Zn 0.08372 0.76594 0.41786 0.0
O492 O 0.06549 0.77425 0.38131 0.0
O493 O 0.0376 0.76806 0.41758 0.0
O494 O 0.11278 0.7824 0.39403 0.0
O495 O 0.0655 0.77212 0.51556 0.0
O496 O 0.09014 0.76982 0.48134 0.0
C497 C 0.04787 0.77378 0.38365 0.0
C498 C 0.05705 0.72207 0.4301 0.0
O499 O 0.07267 0.73518 0.40839 0.0
O500 O 0.04704 0.72816 0.45329 0.0
C501 C 0.11694 0.78767 0.35594 0.0
O502 O 0.10145 0.78088 0.32872 0.0
C503 C 0.08294 0.7724 0.51569 0.0
H504 H 0.29368 0.977 0.19628 0.0
H505 H 0.29265 0.97244 0.33059 0.0
H506 H 0.31099 0.01098 0.33632 0.0
H507 H 0.3335 0.04523 0.30236 0.0
H508 H 0.33471 0.04974 0.16798 0.0
H509 H 0.30969 0.01179 0.16268 0.0
C510 C 0.2969 0.98453 0.22674 0.0
C511 C 0.2923 0.97224 0.26298 0.0
C512 C 0.3077 0.00653 0.2296 0.0
C513 C 0.29616 0.98181 0.30241 0.0
C514 C 0.30682 0.00377 0.30562 0.0
C515 C 0.32782 0.0379 0.27203 0.0
C516 C 0.33613 0.04985 0.23554 0.0
C517 C 0.31365 0.01621 0.26936 0.0
C518 C 0.32852 0.0406 0.19634 0.0
C519 C 0.31436 0.01896 0.19335 0.0
H520 H 0.02614 0.31143 0.18263 0.0
H521 H 0.02846 0.30554 0.31631 0.0
H522 H 0.98988 0.28466 0.31887 0.0
H523 H 0.95611 0.27452 0.28447 0.0
H524 H 0.95373 0.28054 0.15093 0.0
H525 H 0.99191 0.29465 0.14644 0.0
C526 C 0.01813 0.30509 0.21212 0.0
C527 C 0.02981 0.31028 0.24936 0.0
C528 C -0.0039 0.29337 0.21327 0.0
C529 C 0.01958 0.30176 0.28738 0.0
C530 C -0.0024 0.28999 0.28884 0.0
C531 C 0.96397 0.2784 0.25434 0.0
C532 C 0.95255 0.27699 0.21813 0.0
C533 C 0.98576 0.28665 0.25224 0.0
C534 C 0.96247 0.28165 0.17906 0.0
C535 C 0.98423 0.28984 0.17661 0.0
H536 H 0.65538 0.63385 0.20674 0.0
H537 H 0.7145 0.69266 0.20914 0.0
H538 H 0.69552 0.71221 0.2141 0.0
H539 H 0.6621 0.71213 0.22378 0.0
H540 H 0.60312 0.65313 0.21892 0.0
H541 H 0.62211 0.63398 0.20899 0.0
C542 C 0.66408 0.65097 0.20785 0.0
C543 C 0.68622 0.66186 0.2081 0.0
C544 C 0.65312 0.66198 0.21077 0.0
C545 C 0.69741 0.68401 0.20886 0.0
C546 C 0.68658 0.69514 0.21204 0.0
C547 C 0.65346 0.69508 0.22046 0.0
C548 C 0.63133 0.68396 0.22275 0.0
C549 C 0.66446 0.68423 0.21411 0.0
C550 C 0.6202 0.66196 0.21749 0.0
C551 C 0.63102 0.65102 0.21183 0.0
H552 H 0.65248 0.95189 0.79534 0.0
H553 H 0.69447 0.94745 0.70742 0.0
H554 H 0.7151 0.986 0.70221 0.0
H555 H 0.71586 0.01979 0.711 0.0
H556 H 0.67158 0.02315 0.79541 0.0
H557 H 0.65718 0.98628 0.81377 0.0
C558 C 0.66681 0.95952 0.77678 0.0
C559 C 0.67219 0.9472 0.75203 0.0
C560 C 0.67764 0.98143 0.77211 0.0
C561 C 0.69041 0.95688 0.72727 0.0
C562 C 0.70189 0.97885 0.72365 0.0
C563 C 0.70325 0.01251 0.73379 0.0
C564 C 0.69436 0.02401 0.75073 0.0
C565 C 0.69479 0.99114 0.74391 0.0
C566 C 0.67837 0.01452 0.78102 0.0
C567 C 0.67016 0.99345 0.79179 0.0
H568 H 0.0376 0.7073 0.71722 0.0
H569 H 0.03798 0.71747 0.85005 0.0
H570 H 0.0018 0.71098 0.8462 0.0
H571 H 0.96848 0.69571 0.80715 0.0
H572 H 0.96779 0.68461 0.67482 0.0
H573 H 0.00606 0.69886 0.67577 0.0
C574 C 0.02982 0.70843 0.74514 0.0
C575 C 0.03998 0.71221 0.78406 0.0
C576 C 0.00913 0.70459 0.74261 0.0
C577 C 0.03021 0.71429 0.81993 0.0
C578 C 0.00958 0.71055 0.81771 0.0
C579 C 0.97695 0.69722 0.77834 0.0
C580 C 0.96566 0.68911 0.74104 0.0
C581 C -0.00136 0.70475 0.77955 0.0
C582 C 0.97641 0.69098 0.70371 0.0
C583 C -0.00184 0.69882 0.70444 0.0
H584 H 0.28935 0.28171 0.78795 0.0
H585 H 0.32085 0.29564 0.90757 0.0
H586 H 0.30066 0.31162 0.93163 0.0
H587 H 0.2826 0.33051 0.91095 0.0
H588 H 0.25273 0.31884 0.7904 0.0
H589 H 0.26262 0.29231 0.77526 0.0
C590 C 0.29129 0.28769 0.81963 0.0
C591 C 0.30723 0.28847 0.84521 0.0
C592 C 0.27988 0.29733 0.83313 0.0
C593 C 0.30926 0.29572 0.88662 0.0
C594 C 0.29762 0.30475 0.9006 0.0
C595 C 0.27719 0.32119 0.8825 0.0
C596 C 0.26765 0.32695 0.85135 0.0
C597 C 0.28406 0.30697 0.87309 0.0
C598 C 0.26032 0.31473 0.81475 0.0
C599 C 0.26642 0.29989 0.80565 0.0
H600 H 0.97892 0.35265 0.62324 0.0
H601 H 0.97897 0.35411 0.48856 0.0
H602 H 0.95538 0.3158 0.48657 0.0
H603 H 0.94199 0.282 0.52316 0.0
H604 H 0.94313 0.2805 0.65769 0.0
H605 H 0.95861 0.31892 0.66016 0.0
C606 C 0.97326 0.34457 0.59354 0.0
C607 C 0.98095 0.35581 0.55606 0.0
C608 C 0.96014 0.32266 0.59279 0.0
C609 C 0.9733 0.34555 0.51768 0.0
C610 C 0.95997 0.3237 0.5166 0.0
C611 C 0.945 0.29012 0.55296 0.0
C612 C 0.94194 0.27885 0.59019 0.0
C613 C 0.95434 0.31207 0.55391 0.0
C614 C 0.9455 0.28911 0.62879 0.0
C615 C 0.95453 0.31101 0.6301 0.0
H616 H 0.60013 0.59325 0.60033 0.0
H617 H 0.61335 0.6161 0.47383 0.0
H618 H 0.64947 0.62301 0.48053 0.0
H619 H 0.67877 0.63441 0.52928 0.0
H620 H 0.66679 0.61901 0.65999 0.0
H621 H 0.62892 0.59713 0.64551 0.0
C622 C 0.61065 0.59851 0.57354 0.0
C623 C 0.60443 0.60444 0.53683 0.0
C624 C 0.63193 0.6047 0.57942 0.0
C625 C 0.61795 0.61142 0.50226 0.0
C626 C 0.63871 0.6158 0.50651 0.0
C627 C 0.66786 0.6256 0.5543 0.0
C628 C 0.67518 0.62872 0.59573 0.0
C629 C 0.64623 0.6144 0.54604 0.0
C630 C 0.6613 0.61699 0.62797 0.0
C631 C 0.63967 0.60465 0.61965 0.0
H632 H 0.35686 0.06484 0.53879 0.0
H633 H 0.35273 0.0621 0.67315 0.0
H634 H 0.37291 0.04367 0.67525 0.0
H635 H 0.38478 0.02222 0.63759 0.0
H636 H 0.3884 0.02453 0.50309 0.0
H637 H 0.37565 0.04971 0.50197 0.0
C638 C 0.36106 0.06079 0.56851 0.0
C639 C 0.35324 0.06439 0.60574 0.0
C640 C 0.37219 0.04992 0.56924 0.0
C641 C 0.35873 0.0594 0.64425 0.0
C642 C 0.37002 0.0487 0.64535 0.0
C643 C 0.38324 0.0287 0.60817 0.0
C644 C 0.38695 0.02135 0.5704 0.0
C645 C 0.37576 0.0429 0.6079 0.0
C646 C 0.38543 0.02998 0.53241 0.0
C647 C 0.37804 0.04423 0.5318 0.0
H648 H 0.36024 0.36518 0.18234 0.0
H649 H 0.36643 0.36568 0.04832 0.0
H650 H 0.34323 0.32729 0.04623 0.0
H651 H 0.31922 0.29418 0.08242 0.0
H652 H 0.3151 0.29321 0.21681 0.0
H653 H 0.33973 0.33139 0.21927 0.0
C654 C 0.3566 0.35677 0.15281 0.0
C655 C 0.36461 0.36799 0.11547 0.0
C656 C 0.34368 0.33481 0.15205 0.0
C657 C 0.36028 0.35716 0.07734 0.0
C658 C 0.34701 0.33532 0.07616 0.0
C659 C 0.32394 0.30241 0.11216 0.0
C660 C 0.31534 0.2913 0.14935 0.0
C661 C 0.33831 0.32408 0.11325 0.0
C662 C 0.32164 0.30171 0.18791 0.0
C663 C 0.33559 0.32344 0.18926 0.0
H664 H 0.62899 0.98682 0.97778 0.0
H665 H 0.62064 0.9878 0.11082 0.0
H666 H 0.65823 0.01328 0.11969 0.0
H667 H 0.69397 0.03131 0.09052 0.0
H668 H 0.7028 0.02655 0.9586 0.0
H669 H 0.66461 0.00672 0.94795 0.0
C670 C 0.63546 0.99307 0.00844 0.0
C671 C 0.62243 0.9857 0.04361 0.0
C672 C 0.65716 0.00679 0.01343 0.0
C673 C 0.63069 0.99342 0.08346 0.0
C674 C 0.65209 0.00788 0.08851 0.0
C675 C 0.68744 0.02625 0.05942 0.0
C676 C 0.70093 0.03014 0.02545 0.0
C677 C 0.66558 0.01409 0.05389 0.0
C678 C 0.69251 0.02343 0.98523 0.0
C679 C 0.67075 0.01214 0.97913 0.0
H680 H 0.94977 0.65817 0.07751 0.0
H681 H 0.95116 0.65935 0.21214 0.0
H682 H 0.96385 0.63409 0.21261 0.0
H683 H 0.98091 0.61765 0.17405 0.0
H684 H 0.9798 0.61675 0.03937 0.0
H685 H 0.96006 0.63563 0.03923 0.0
C686 C 0.95234 0.65238 0.10688 0.0
C687 C 0.95004 0.6607 0.14473 0.0
C688 C 0.9598 0.63818 0.10673 0.0
C689 C 0.95298 0.65307 0.18276 0.0
C690 C 0.96036 0.63882 0.18296 0.0
C691 C 0.97581 0.62114 0.14477 0.0
C692 C 0.98202 0.61637 0.10675 0.0
C693 C 0.9648 0.63215 0.14508 0.0
C694 C 0.97516 0.62046 0.06889 0.0
C695 C 0.96407 0.63137 0.06886 0.0
H696 H 0.62943 0.62334 0.02736 0.0
H697 H 0.57637 0.60353 0.94472 0.0
H698 H 0.58466 0.64008 0.93681 0.0
H699 H 0.61268 0.67751 0.93801 0.0
H700 H 0.66722 0.69669 0.01701 0.0
H701 H 0.65275 0.66072 0.04169 0.0
C702 C 0.6191 0.62701 0.00937 0.0
C703 C 0.60275 0.61109 0.98579 0.0
C704 C 0.6248 0.64807 1.00286 0.0
C705 C 0.58917 0.61569 0.96298 0.0
C706 C 0.5942 0.63664 0.95771 0.0
C707 C 0.6212 0.67387 0.96117 0.0
C708 C 0.64138 0.68956 0.97427 0.0
C709 C 0.61295 0.653 0.97485 0.0
C710 C 0.65195 0.68477 1.00527 0.0
C711 C 0.64365 0.66421 0.01968 0.0
H712 H 0.37591 0.00117 0.86182 0.0
H713 H 0.37561 0.00194 0.99649 0.0
H714 H 0.33714 0.97904 0.99663 0.0
H715 H 0.30373 0.96437 0.95785 0.0
H716 H 0.30402 0.96329 0.82322 0.0
H717 H 0.34264 0.98048 0.82329 0.0
C718 C 0.36737 0.99587 0.89112 0.0
C719 C 0.37819 0.00339 0.92908 0.0
C720 C 0.34545 0.98288 0.8908 0.0
C721 C 0.36735 0.9963 0.96702 0.0
C722 C 0.34545 0.98337 0.96704 0.0
C723 C 0.31232 0.96745 0.92865 0.0
C724 C 0.30143 0.96306 0.89057 0.0
C725 C 0.33433 0.97739 0.92909 0.0
C726 C 0.31234 0.96668 0.85277 0.0
C727 C 0.33433 0.97662 0.85286 0.0
H728 H 0.03156 0.32472 0.96227 0.0
H729 H 0.04311 0.33926 0.83102 0.0
H730 H 0.02788 0.36229 0.83605 0.0
H731 H 0.00707 0.37409 0.87594 0.0
H732 H -0.00391 0.36022 0.00738 0.0
H733 H 0.01587 0.34135 1.00468 0.0
C734 C 0.03091 0.33315 0.93496 0.0
C735 C 0.03786 0.33007 0.89613 0.0
C736 C 0.02237 0.34639 0.93827 0.0
C737 C 0.03758 0.34136 0.86105 0.0
C738 C 0.02888 0.35444 0.86393 0.0
C739 C 0.00954 0.36736 0.90412 0.0
C740 C 0.00016 0.36819 0.94169 0.0
C741 C 0.02064 0.35649 0.90208 0.0
C742 C 0.00337 0.3597 0.97828 0.0
C743 C 0.01444 0.34879 0.97658 0.0
H744 H 0.04976 0.69691 0.49589 0.0
H745 H 0.04777 0.69719 0.36134 0.0
H746 H 0.02682 0.65853 0.3606 0.0
H747 H 0.00399 0.6258 0.39916 0.0
H748 H 0.00623 0.62549 0.53372 0.0
H749 H 0.03266 0.6632 0.53391 0.0
C750 C 0.04519 0.68836 0.46647 0.0
C751 C 0.04983 0.69954 0.42874 0.0
C752 C 0.03311 0.66634 0.46648 0.0
C753 C 0.04423 0.68867 0.39062 0.0
C754 C 0.03215 0.66667 0.39028 0.0
C755 C 0.01073 0.63398 0.42838 0.0
C756 C 0.00312 0.62332 0.46641 0.0
C757 C 0.02571 0.65549 0.4281 0.0
C758 C 0.01196 0.63364 0.50421 0.0
C759 C 0.0269 0.65514 0.50427 0.0
H760 H 0.27926 0.34967 0.46727 0.0
H761 H 0.28835 0.3224 0.35558 0.0
H762 H 0.32609 0.3482 0.35669 0.0
H763 H 0.35647 0.37093 0.39995 0.0
H764 H 0.34781 0.39389 0.51825 0.0
H765 H 0.30995 0.37759 0.5043 0.0
C766 C 0.28944 0.35022 0.44203 0.0
C767 C 0.28135 0.33439 0.41134 0.0
C768 C 0.31126 0.36376 0.44524 0.0
C769 C 0.29443 0.33469 0.37915 0.0
C770 C 0.316 0.34917 0.38031 0.0
C771 C 0.34635 0.37268 0.42241 0.0
C772 C 0.35466 0.38286 0.46076 0.0
C773 C 0.32467 0.36257 0.41496 0.0
C774 C 0.34161 0.3857 0.48891 0.0
C775 C 0.32 0.37637 0.48094 0.0
H776 H 0.65801 0.94084 0.42361 0.0
H777 H 0.6603 0.94262 0.28904 0.0
H778 H 0.63187 0.95103 0.28726 0.0
H779 H 0.61358 0.96642 0.3248 0.0
H780 H 0.61288 0.96653 0.45946 0.0
H781 H 0.633 0.94809 0.46079 0.0
C782 C 0.65173 0.94241 0.39395 0.0
C783 C 0.66133 0.94172 0.35652 0.0
C784 C 0.6359 0.94775 0.39339 0.0
C785 C 0.65308 0.9433 0.3181 0.0
C786 C 0.637 0.94826 0.31717 0.0
C787 C 0.61723 0.96168 0.35434 0.0
C788 C 0.61238 0.96814 0.39199 0.0
C789 C 0.62932 0.95181 0.35469 0.0
C790 C 0.61667 0.96175 0.43021 0.0
C791 C 0.62835 0.95144 0.43091 0.0
H792 H 0.34931 0.11287 0.50423 0.0
H793 H 0.29106 0.08259 0.43442 0.0
H794 H 0.31097 0.09368 0.36883 0.0
H795 H 0.34483 0.10812 0.33171 0.0
H796 H 0.40286 0.13421 0.40192 0.0
H797 H 0.3832 0.12887 0.46703 0.0
C798 C 0.34091 0.10914 0.4747 0.0
C799 C 0.31864 0.09707 0.4743 0.0
C800 C 0.35251 0.11467 0.43718 0.0
C801 C 0.30812 0.09195 0.43566 0.0
C802 C 0.31953 0.09821 0.39816 0.0
C803 C 0.35327 0.11316 0.36115 0.0
C804 C 0.37538 0.12179 0.36186 0.0
C805 C 0.34173 0.10905 0.39856 0.0
C806 C 0.38593 0.1277 0.40044 0.0
C807 C 0.37465 0.12452 0.43767 0.0
H808 H 0.89809 0.22654 0.49081 0.0
H809 H 0.93211 0.20442 0.41605 0.0
H810 H 0.91958 0.2132 0.35222 0.0
H811 H 0.90222 0.23071 0.3182 0.0
H812 H 0.87227 0.25697 0.39383 0.0
H813 H 0.87974 0.24284 0.45687 0.0
C814 C 0.90238 0.22313 0.46057 0.0
C815 C 0.91586 0.21455 0.45828 0.0
C816 C 0.89596 0.22918 0.42418 0.0
C817 C 0.92166 0.21083 0.41874 0.0
C818 C 0.91457 0.21596 0.38227 0.0
C819 C 0.89685 0.2329 0.3484 0.0
C820 C 0.88641 0.24466 0.35125 0.0
C821 C 0.90215 0.22562 0.38464 0.0
C822 C 0.88014 0.24785 0.39074 0.0
C823 C 0.88451 0.23985 0.42677 0.0
H824 H 0.75972 0.69986 0.45527 0.0
H825 H 0.73929 0.64281 0.52643 0.0
H826 H 0.73294 0.62265 0.4624 0.0
H827 H 0.729 0.62025 0.38549 0.0
H828 H 0.75208 0.67768 0.31436 0.0
H829 H 0.76166 0.69835 0.37841 0.0
C830 C 0.75438 0.68313 0.45678 0.0
C831 C 0.74983 0.67297 0.49582 0.0
C832 C 0.75092 0.67147 0.41956 0.0
C833 C 0.74301 0.65122 0.49701 0.0
C834 C 0.73916 0.63952 0.46025 0.0
C835 C 0.7365 0.63731 0.38405 0.0
C836 C 0.73958 0.64727 0.34506 0.0
C837 C 0.7424 0.64933 0.42125 0.0
C838 C 0.74952 0.66948 0.34383 0.0
C839 C 0.75492 0.6814 0.38057 0.0
H840 H 0.08936 0.31558 0.15462 0.0
H841 H 0.12051 0.37641 0.09421 0.0
H842 H 0.11563 0.35922 0.0262 0.0
H843 H 0.09856 0.32708 0.98354 0.0
H844 H 0.06374 0.26623 0.04322 0.0
H845 H 0.07429 0.28322 0.11189 0.0
C846 C 0.09558 0.32513 0.12669 0.0
C847 C 0.10543 0.34733 0.1296 0.0
C848 C 0.09183 0.31507 0.08749 0.0
C849 C 0.11296 0.35936 0.09293 0.0
C850 C 0.11007 0.3495 0.05401 0.0
C851 C 0.09365 0.3174 0.01147 0.0
C852 C 0.08035 0.29531 0.00804 0.0
C853 C 0.09896 0.32737 0.05081 0.0
C854 C 0.07398 0.2832 0.0448 0.0
C855 C 0.07992 0.29295 0.08411 0.0
H856 H 0.64429 0.77085 0.16618 0.0
H857 H 0.58324 0.73814 0.10639 0.0
H858 H 0.59996 0.75077 0.03832 0.0
H859 H 0.63188 0.76445 0.99567 0.0
H860 H 0.69299 0.79316 0.0553 0.0
H861 H 0.6763 0.78929 0.12337 0.0
C862 C 0.63451 0.76694 0.13847 0.0
C863 C 0.61247 0.75321 0.14154 0.0
C864 C 0.64435 0.77334 0.09918 0.0
C865 C 0.60019 0.74848 0.10509 0.0
C866 C 0.60979 0.7556 0.06605 0.0
C867 C 0.6417 0.77044 0.02334 0.0
C868 C 0.66373 0.77872 0.02021 0.0
C869 C 0.63189 0.76704 0.06261 0.0
C870 C 0.67606 0.78658 0.05657 0.0
C871 C 0.66646 0.78416 0.09565 0.0
H872 H 0.24255 0.91663 0.15961 0.0
H873 H 0.27348 0.88824 0.09391 0.0
H874 H 0.26056 0.89385 0.02727 0.0
H875 H 0.24413 0.91049 0.98744 0.0
H876 H 0.21695 0.94275 0.05263 0.0
H877 H 0.22448 0.93174 0.11971 0.0
C878 C 0.24605 0.91119 0.1308 0.0
C879 C 0.25884 0.90182 0.13184 0.0
C880 C 0.23937 0.91537 0.09245 0.0
C881 C 0.26361 0.89537 0.09406 0.0
C882 C 0.25628 0.89866 0.05594 0.0
C883 C 0.23934 0.9147 0.01626 0.0
C884 C 0.22978 0.92732 0.01487 0.0
C885 C 0.24464 0.90916 0.05468 0.0
C886 C 0.22419 0.93298 0.05269 0.0
C887 C 0.22861 0.92677 0.09107 0.0
H888 H 0.67435 0.90773 0.62734 0.0
H889 H 0.61855 0.87999 0.55018 0.0
H890 H 0.64053 0.88971 0.48725 0.0
H891 H 0.67547 0.90889 0.45423 0.0
H892 H 0.73123 0.9409 0.53098 0.0
H893 H 0.70954 0.92659 0.59402 0.0
C894 C 0.66701 0.9034 0.59673 0.0
C895 C 0.64479 0.89281 0.59344 0.0
C896 C 0.67981 0.90996 0.56066 0.0
C897 C 0.63555 0.88792 0.55355 0.0
C898 C 0.64814 0.89355 0.5176 0.0
C899 C 0.68297 0.91233 0.48471 0.0
C900 C 0.70506 0.92566 0.48783 0.0
C901 C 0.67028 0.90493 0.52076 0.0
C902 C 0.71437 0.93051 0.52767 0.0
C903 C 0.70192 0.9224 0.5637 0.0
H904 H 0.10638 0.75362 0.5281 0.0
H905 H 0.07956 0.78613 0.59363 0.0
H906 H 0.08962 0.77745 0.66054 0.0
H907 H 0.10179 0.75683 0.70019 0.0
H908 H 0.12439 0.72058 0.63455 0.0
H909 H 0.12054 0.73475 0.56788 0.0
C910 C 0.10319 0.75929 0.55696 0.0
C911 C 0.09232 0.77068 0.55575 0.0
C912 C 0.10813 0.75336 0.59533 0.0
C913 C 0.08795 0.77745 0.59358 0.0
C914 C 0.09363 0.77239 0.63185 0.0
C915 C 0.10645 0.75245 0.67142 0.0
C916 C 0.11359 0.73776 0.67248 0.0
C917 C 0.10315 0.75983 0.63312 0.0
C918 C 0.11902 0.73192 0.63471 0.0
C919 C 0.11668 0.73994 0.59657 0.0
H920 H 0.23615 0.32548 0.56804 0.0
H921 H 0.26056 0.28625 0.6127 0.0
H922 H 0.27761 0.31031 0.67104 0.0
H923 H 0.28684 0.34298 0.70799 0.0
H924 H 0.26151 0.38187 0.6669 0.0
H925 H 0.24397 0.35772 0.60801 0.0
C926 C 0.24483 0.32196 0.59099 0.0
C927 C 0.24697 0.30394 0.58583 0.0
C928 C 0.25494 0.33612 0.62445 0.0
C929 C 0.25855 0.29987 0.61576 0.0
C930 C 0.26849 0.31375 0.64901 0.0
C931 C 0.27781 0.34646 0.68575 0.0
C932 C 0.276 0.36459 0.69121 0.0
C933 C 0.26717 0.33212 0.65315 0.0
C934 C 0.26353 0.3683 0.66294 0.0
C935 C 0.25334 0.35437 0.62953 0.0
H936 H 0.93866 0.72448 0.97507 0.0
H937 H 0.89898 0.67166 0.05459 0.0
H938 H 0.88391 0.64902 0.99391 0.0
H939 H 0.88452 0.643 0.91801 0.0
H940 H 0.92174 0.69634 0.83794 0.0
H941 H 0.93489 0.71967 0.89839 0.0
C942 C 0.9264 0.70815 0.97906 0.0
C943 C 0.92022 0.6999 0.0196 0.0
C944 C 0.91739 0.69506 0.9437 0.0
C945 C 0.90415 0.67863 0.02396 0.0
C946 C 0.89554 0.6655 0.98915 0.0
C947 C 0.89518 0.65978 0.91382 0.0
C948 C 0.90217 0.66779 0.87346 0.0
C949 C 0.90243 0.67336 0.94885 0.0
C950 C 0.91594 0.68967 0.86859 0.0
C951 C 0.92363 0.70309 0.90325 0.0
H952 H 0.31596 0.22806 0.05753 0.0
H953 H 0.25798 0.20276 0.98722 0.0
H954 H 0.27773 0.20923 0.92204 0.0
H955 H 0.31153 0.22696 0.8852 0.0
H956 H 0.36979 0.25623 0.95525 0.0
H957 H 0.34986 0.24284 0.02031 0.0
C958 C 0.30753 0.2234 0.02805 0.0
C959 C 0.28542 0.2149 0.02739 0.0
C960 C 0.31912 0.2281 0.99056 0.0
C961 C 0.27491 0.2093 0.98873 0.0
C962 C 0.28624 0.2131 0.95142 0.0
C963 C 0.32001 0.23001 0.91452 0.0
C964 C 0.34225 0.24274 0.91511 0.0
C965 C 0.3084 0.22322 0.95192 0.0
C966 C 0.35276 0.24652 0.95367 0.0
C967 C 0.34132 0.239 0.99096 0.0
H968 H 0.76831 0.10052 0.79036 0.0
H969 H 0.73183 0.12232 0.85785 0.0
H970 H 0.7466 0.11865 0.92376 0.0
H971 H 0.76459 0.10318 0.96241 0.0
H972 H 0.79777 0.07768 0.89477 0.0
H973 H 0.78979 0.0891 0.82886 0.0
C974 C 0.76393 0.10502 0.81931 0.0
C975 C 0.74869 0.11148 0.81889 0.0
C976 C 0.77169 0.10185 0.85728 0.0
C977 C 0.7434 0.11725 0.85698 0.0
C978 C 0.75174 0.11496 0.8948 0.0
C979 C 0.77063 0.10062 0.93341 0.0
C980 C 0.7817 0.08939 0.93375 0.0
C981 C 0.76512 0.10636 0.89543 0.0
C982 C 0.7892 0.08617 0.89563 0.0
C983 C 0.7845 0.0926 0.85784 0.0
H984 H 0.03891 0.43679 0.72279 0.0
H985 H 0.98723 0.41776 0.6363 0.0
H986 H 0.9628 0.40962 0.69402 0.0
H987 H 0.95514 0.4036 0.76964 0.0
H988 H 0.00712 0.42529 0.85623 0.0
H989 H 0.03204 0.43679 0.79849 0.0
C990 C 0.0224 0.43135 0.71656 0.0
C991 C 0.01505 0.42775 0.67503 0.0
C992 C 0.00825 0.42688 0.75017 0.0
C993 C 0.99354 0.42079 0.66775 0.0
C994 C 0.97939 0.41592 0.70089 0.0
C995 C 0.97194 0.41129 0.77587 0.0
C996 C 0.97908 0.41334 0.81738 0.0
C997 C 0.98642 0.41826 0.74231 0.0
C998 C 0.00101 0.42349 0.82474 0.0
C999 C 0.01538 0.42998 0.79161 0.0
H1000 H 0.61612 0.61071 0.82128 0.0
H1001 H 0.57389 0.54527 0.79153 0.0
H1002 H 0.55887 0.55574 0.73383 0.0
H1003 H 0.55854 0.58391 0.69092 0.0
H1004 H 0.59972 0.64913 0.72527 0.0
H1005 H 0.61386 0.63828 0.78283 0.0
C1006 C 0.60384 0.5987 0.80178 0.0
C1007 C 0.59658 0.57723 0.80985 0.0
C1008 C 0.59476 0.60482 0.77005 0.0
C1009 C 0.58006 0.56189 0.78536 0.0
C1010 C 0.57137 0.5679 0.75264 0.0
C1011 C 0.57023 0.59573 0.71159 0.0
C1012 C 0.57802 0.61738 0.70352 0.0
C1013 C 0.57856 0.58937 0.74473 0.0
C1014 C 0.59337 0.63241 0.73056 0.0
C1015 C 0.60165 0.62623 0.76334 0.0
H1016 H 0.43366 0.00628 0.83602 0.0
H1017 H 0.46479 0.06473 0.76715 0.0
H1018 H 0.45667 0.04498 0.70142 0.0
H1019 H 0.43678 0.01141 0.66347 0.0
H1020 H 0.40188 0.95327 0.73225 0.0
H1021 H 0.41561 0.97252 0.79805 0.0
C1022 C 0.43919 0.01474 0.80671 0.0
C1023 C 0.45002 0.03703 0.8066 0.0
C1024 C 0.43353 0.00326 0.76896 0.0
C1025 C 0.45658 0.04764 0.7682 0.0
C1026 C 0.45181 0.03632 0.73059 0.0
C1027 C 0.43258 0.00282 0.69277 0.0
C1028 C 0.41839 0.98082 0.69281 0.0
C1029 C 0.43973 0.01415 0.73053 0.0
C1030 C 0.41282 0.97011 0.73123 0.0
C1031 C 0.42059 0.98116 0.76888 0.0
H1032 H 0.56105 0.97859 0.12547 0.0
H1033 H 0.53578 0.9198 0.19271 0.0
H1034 H 0.54303 0.93893 0.2591 0.0
H1035 H 0.56072 0.9726 0.2978 0.0
H1036 H 0.58962 0.03138 0.22992 0.0
H1037 H 0.5766 0.01203 0.16407 0.0
C1038 C 0.55657 0.96982 0.15455 0.0
C1039 C 0.54771 0.94766 0.1539 0.0
C1040 C 0.56171 0.98103 0.19259 0.0
C1041 C 0.54248 0.93677 0.19214 0.0
C1042 C 0.54676 0.94775 0.23014 0.0
C1043 C 0.56372 0.98123 0.26871 0.0
C1044 C 0.57604 0.0035 0.26892 0.0
C1045 C 0.55698 0.96993 0.23077 0.0
C1046 C 0.58014 0.01432 0.23075 0.0
C1047 C 0.57276 0.00323 0.19305 0.0
H1048 H 0.98863 0.56163 0.37102 0.0
H1049 H 0.93065 0.54343 0.30482 0.0
H1050 H 0.94905 0.54882 0.23805 0.0
H1051 H 0.98241 0.5631 0.19898 0.0
H1052 H 0.04097 0.58561 0.26594 0.0
H1053 H 0.02155 0.57389 0.33195 0.0
C1054 C 0.97983 0.55829 0.34205 0.0
C1055 C 0.95817 0.55196 0.34305 0.0
C1056 C 0.99075 0.56244 0.30387 0.0
C1057 C 0.94724 0.54819 0.30504 0.0
C1058 C 0.95781 0.55139 0.26685 0.0
C1059 C 0.9909 0.56494 0.2279 0.0
C1060 C 0.01316 0.57506 0.22745 0.0
C1061 C 0.97969 0.55913 0.26591 0.0
C1062 C 0.0239 0.57777 0.26536 0.0
C1063 C 0.01278 0.57117 0.30311 0.0
H1064 H 0.41617 0.46033 0.27012 0.0
H1065 H 0.44257 0.42851 0.20064 0.0
H1066 H 0.45339 0.41926 0.26532 0.0
H1067 H 0.45052 0.41543 0.34204 0.0
H1068 H 0.42618 0.44909 0.4117 0.0
H1069 H 0.41998 0.46261 0.34708 0.0
C1070 C 0.42475 0.45184 0.26907 0.0
C1071 C 0.42815 0.44488 0.23033 0.0
C1072 C 0.43121 0.44663 0.30668 0.0
C1073 C 0.43955 0.43406 0.22979 0.0
C1074 C 0.44569 0.42859 0.26694 0.0
C1075 C 0.44444 0.42621 0.34322 0.0
C1076 C 0.43851 0.43082 0.38194 0.0
C1077 C 0.4409 0.4341 0.30566 0.0
C1078 C 0.43082 0.44504 0.38258 0.0
C1079 C 0.42706 0.45271 0.34544 0.0
H1080 H 0.3414 0.20637 0.14349 0.0
H1081 H 0.29583 0.18431 0.24376 0.0
H1082 H 0.30565 0.15817 0.26308 0.0
H1083 H 0.32631 0.14091 0.25026 0.0
H1084 H 0.37185 0.16276 0.15 0.0
H1085 H 0.36272 0.18959 0.13169 0.0
C1086 C 0.33375 0.19599 0.16983 0.0
C1087 C 0.31789 0.19728 0.19211 0.0
C1088 C 0.33928 0.18082 0.18047 0.0
C1089 C 0.30808 0.18364 0.22605 0.0
C1090 C 0.31362 0.16863 0.23704 0.0
C1091 C 0.3342 0.15147 0.22427 0.0
C1092 C 0.34964 0.14976 0.20136 0.0
C1093 C 0.32901 0.16692 0.21415 0.0
C1094 C 0.35985 0.16371 0.16805 0.0
C1095 C 0.35468 0.17908 0.15763 0.0
H1096 H 0.80065 0.1181 0.15264 0.0
H1097 H 0.77776 0.14885 0.0701 0.0
H1098 H 0.80372 0.1832 0.09872 0.0
H1099 H 0.83437 0.20453 0.14394 0.0
H1100 H 0.85769 0.17343 0.22452 0.0
H1101 H 0.83013 0.13912 0.19948 0.0
C1102 C 0.80112 0.13226 0.14116 0.0
C1103 C 0.78734 0.1309 0.10911 0.0
C1104 C 0.81635 0.15191 0.15698 0.0
C1105 C 0.78821 0.14945 0.09471 0.0
C1106 C 0.80312 0.1691 0.11089 0.0
C1107 C 0.83341 0.19025 0.15606 0.0
C1108 C 0.84818 0.19156 0.1858 0.0
C1109 C 0.81755 0.17053 0.14142 0.0
C1110 C 0.84663 0.1729 0.20139 0.0
C1111 C 0.83083 0.15325 0.18719 0.0
H1112 H 0.78939 0.65107 0.16056 0.0
H1113 H 0.81101 0.70942 0.2281 0.0
H1114 H 0.84743 0.71677 0.22316 0.0
H1115 H 0.87288 0.70592 0.20161 0.0
H1116 H 0.85054 0.6469 0.13595 0.0
H1117 H 0.81454 0.64038 0.13891 0.0
C1118 C 0.80206 0.66555 0.17379 0.0
C1119 C 0.79749 0.67972 0.19454 0.0
C1120 C 0.82279 0.66938 0.1718 0.0
C1121 C 0.81411 0.69828 0.21184 0.0
C1122 C 0.83491 0.70243 0.20925 0.0
C1123 C 0.86011 0.69157 0.1882 0.0
C1124 C 0.86441 0.67688 0.16874 0.0
C1125 C 0.83939 0.68793 0.18981 0.0
C1126 C 0.8477 0.65844 0.15127 0.0
C1127 C 0.8271 0.65473 0.15274 0.0
H1128 H 0.12096 0.31792 0.40317 0.0
H1129 H 0.13842 0.32518 0.27272 0.0
H1130 H 0.16334 0.31322 0.28658 0.0
H1131 H 0.1811 0.30185 0.33552 0.0
H1132 H 0.16467 0.29505 0.46633 0.0
H1133 H 0.13835 0.3055 0.45241 0.0
C1134 C 0.13016 0.3168 0.3778 0.0
C1135 C 0.12785 0.32255 0.33705 0.0
C1136 C 0.14467 0.30999 0.38596 0.0
C1137 C 0.13991 0.32099 0.30449 0.0
C1138 C 0.15419 0.31411 0.3123 0.0
C1139 C 0.17169 0.30252 0.36101 0.0
C1140 C 0.1749 0.29774 0.40188 0.0
C1141 C 0.15681 0.30874 0.35291 0.0
C1142 C 0.16255 0.29869 0.43453 0.0
C1143 C 0.14752 0.3047 0.42662 0.0
H1144 H 0.68125 0.85174 0.38634 0.0
H1145 H 0.71016 0.88057 0.26879 0.0
H1146 H 0.70114 0.84601 0.24049 0.0
H1147 H 0.68169 0.80733 0.24698 0.0
H1148 H 0.65196 0.77877 0.36424 0.0
H1149 H 0.66503 0.8136 0.39506 0.0
C1150 C 0.68573 0.85051 0.35461 0.0
C1151 C 0.69603 0.86862 0.32947 0.0
C1152 C 0.68035 0.83064 0.33851 0.0
C1153 C 0.70206 0.86682 0.28868 0.0
C1154 C 0.69689 0.84706 0.27247 0.0
C1155 C 0.67844 0.80872 0.27952 0.0
C1156 C 0.66566 0.79048 0.30313 0.0
C1157 C 0.68558 0.82882 0.29679 0.0
C1158 C 0.6616 0.79256 0.34527 0.0
C1159 C 0.66899 0.81247 0.36289 0.0
H1160 H 0.15139 0.80665 0.40635 0.0
H1161 H 0.13156 0.80395 0.27824 0.0
H1162 H 0.16705 0.83182 0.2595 0.0
H1163 H 0.20322 0.85761 0.2799 0.0
H1164 H 0.22306 0.86045 0.40801 0.0
H1165 H 0.18784 0.83184 0.42639 0.0
C1166 C 0.15482 0.81203 0.37423 0.0
C1167 C 0.1388 0.80325 0.34375 0.0
C1168 C 0.17517 0.82818 0.36377 0.0
C1169 C 0.14357 0.81043 0.30232 0.0
C1170 C 0.16384 0.82642 0.2916 0.0
C1171 C 0.19987 0.85204 0.31191 0.0
C1172 C 0.21573 0.86126 0.34262 0.0
C1173 C 0.17967 0.83555 0.32218 0.0
C1174 C 0.21113 0.85369 0.38381 0.0
C1175 C 0.19101 0.83731 0.39432 0.0
H1176 H 0.62975 0.82329 0.73964 0.0
H1177 H 0.61479 0.8337 0.86479 0.0
H1178 H 0.61301 0.80116 0.88806 0.0
H1179 H 0.61876 0.77168 0.87447 0.0
H1180 H 0.63537 0.76192 0.75029 0.0
H1181 H 0.63269 0.79192 0.72476 0.0
C1182 C 0.62603 0.81841 0.77198 0.0
C1183 C 0.62273 0.83109 0.80057 0.0
C1184 C 0.62512 0.79971 0.78525 0.0
C1185 C 0.61763 0.82437 0.84222 0.0
C1186 C 0.61653 0.80572 0.85555 0.0
C1187 C 0.62143 0.77582 0.84161 0.0
C1188 C 0.62755 0.76472 0.81446 0.0
C1189 C 0.62063 0.7935 0.82752 0.0
C1190 C 0.63075 0.77025 0.77195 0.0
C1191 C 0.62941 0.78753 0.75739 0.0
H1192 H 0.13959 0.80905 0.78493 0.0
H1193 H 0.15022 0.77921 0.8911 0.0
H1194 H 0.17915 0.81333 0.91431 0.0
H1195 H 0.20128 0.85161 0.90454 0.0
H1196 H 0.19058 0.88123 0.79801 0.0
H1197 H 0.16193 0.8471 0.77467 0.0
C1198 C 0.14815 0.80999 0.81328 0.0
C1199 C 0.14269 0.79163 0.83634 0.0
C1200 C 0.16485 0.82958 0.82621 0.0
C1201 C 0.15407 0.79312 0.8728 0.0
C1202 C 0.17065 0.81261 0.88606 0.0
C1203 C 0.19278 0.8506 0.87607 0.0
C1204 C 0.19808 0.86896 0.85309 0.0
C1205 C 0.1762 0.83094 0.86294 0.0
C1206 C 0.18684 0.86736 0.81633 0.0
C1207 C 0.1704 0.84785 0.80298 0.0
H1208 H 0.13733 0.33763 0.88742 0.0
H1209 H 0.1366 0.34836 0.75501 0.0
H1210 H 0.17531 0.36739 0.75396 0.0
H1211 H 0.20903 0.3784 0.79 0.0
H1212 H 0.20903 0.36711 0.9225 0.0
H1213 H 0.17077 0.3511 0.92422 0.0
C1214 C 0.1456 0.34414 0.85825 0.0
C1215 C 0.13414 0.34128 0.82116 0.0
C1216 C 0.16767 0.35499 0.85796 0.0
C1217 C 0.14509 0.35023 0.78388 0.0
C1218 C 0.16719 0.36108 0.7833 0.0
C1219 C 0.20071 0.37273 0.81939 0.0
C1220 C 0.21189 0.37375 0.85601 0.0
C1221 C 0.17862 0.36322 0.82006 0.0
C1222 C 0.20084 0.3664 0.89382 0.0
C1223 C 0.17894 0.35716 0.89482 0.0
H1224 H 0.84507 0.6487 0.67383 0.0
H1225 H 0.86012 0.70221 0.75307 0.0
H1226 H 0.82631 0.6994 0.73565 0.0
H1227 H 0.79245 0.68153 0.69859 0.0
H1228 H 0.77744 0.62793 0.61964 0.0
H1229 H 0.81125 0.6308 0.63702 0.0
C1230 C 0.84108 0.6599 0.68705 0.0
C1231 C 0.85516 0.67571 0.7146 0.0
C1232 C 0.82153 0.65798 0.67746 0.0
C1233 C 0.84961 0.68994 0.73168 0.0
C1234 C 0.83024 0.68827 0.72191 0.0
C1235 C 0.79646 0.67034 0.68544 0.0
C1236 C 0.7824 0.65449 0.65793 0.0
C1237 C 0.81602 0.67225 0.69511 0.0
C1238 C 0.78794 0.64024 0.64098 0.0
C1239 C 0.80731 0.64193 0.65073 0.0
H1240 H 0.31974 0.19939 0.7592 0.0
H1241 H 0.34047 0.22524 0.6357 0.0
H1242 H 0.33678 0.19176 0.61223 0.0
H1243 H 0.32893 0.15568 0.62763 0.0
H1244 H 0.30921 0.13043 0.75191 0.0
H1245 H 0.31152 0.16337 0.77435 0.0
C1246 C 0.32322 0.19767 0.72698 0.0
C1247 C 0.33032 0.21479 0.69919 0.0
C1248 C 0.32154 0.17861 0.71401 0.0
C1249 C 0.33495 0.2123 0.65769 0.0
C1250 C 0.33293 0.1932 0.64431 0.0
C1251 C 0.32518 0.15738 0.65968 0.0
C1252 C 0.31898 0.14062 0.68809 0.0
C1253 C 0.32652 0.17636 0.67238 0.0
C1254 C 0.31412 0.14309 0.72943 0.0
C1255 C 0.31535 0.16189 0.74226 0.0
H1256 H 0.86596 0.15741 0.65023 0.0
H1257 H 0.84091 0.1873 0.57078 0.0
H1258 H 0.80517 0.1585 0.58362 0.0
H1259 H 0.78097 0.12572 0.61937 0.0
H1260 H 0.80554 0.09614 0.70081 0.0
H1261 H 0.84157 0.12375 0.68445 0.0
C1262 C 0.85268 0.15764 0.63576 0.0
C1263 C 0.85612 0.17458 0.60982 0.0
C1264 C 0.8321 0.141 0.64329 0.0
C1265 C 0.83874 0.17454 0.59109 0.0
C1266 C 0.81827 0.15803 0.59828 0.0
C1267 C 0.79418 0.12509 0.63313 0.0
C1268 C 0.79055 0.10888 0.6613 0.0
C1269 C 0.81477 0.14126 0.62448 0.0
C1270 C 0.80789 0.10843 0.67899 0.0
C1271 C 0.8285 0.12428 0.66985 0.0
H1272 H 0.97704 0.45372 0.55714 0.0
H1273 H 0.022 0.46866 0.45735 0.0
H1274 H 0.01875 0.49923 0.43833 0.0
H1275 H 0.00361 0.52197 0.4509 0.0
H1276 H 0.95912 0.50722 0.5516 0.0
H1277 H 0.96194 0.47638 0.56967 0.0
C1278 C 0.98599 0.46354 0.53097 0.0
C1279 C -0.00032 0.45889 0.5086 0.0
C1280 C 0.98432 0.48124 0.52068 0.0
C1281 C 0.01133 0.4719 0.47505 0.0
C1282 C 0.00954 0.48941 0.46424 0.0
C1283 C 0.99461 0.51209 0.47694 0.0
C1284 C 0.98121 0.51693 0.4999 0.0
C1285 C -0.00378 0.49432 0.48708 0.0
C1286 C 0.96959 0.50389 0.53344 0.0
C1287 C 0.97112 0.4862 0.54374 0.0
H1288 H 0.50221 0.53128 0.62614 0.0
H1289 H 0.48844 0.56326 0.52851 0.0
H1290 H 0.45803 0.52985 0.50682 0.0
H1291 H 0.43777 0.49119 0.51084 0.0
H1292 H 0.45232 0.45921 0.60724 0.0
H1293 H 0.47983 0.49306 0.63444 0.0
C1294 C 0.49243 0.53101 0.60042 0.0
C1295 C 0.49779 0.5497 0.57861 0.0
C1296 C 0.47516 0.51172 0.58773 0.0
C1297 C 0.48479 0.54908 0.54565 0.0
C1298 C 0.46741 0.52997 0.53314 0.0
C1299 C 0.44672 0.49162 0.5382 0.0
C1300 C 0.44317 0.47267 0.5566 0.0
C1301 C 0.4628 0.51112 0.55324 0.0
C1302 C 0.45485 0.47354 0.5922 0.0
C1303 C 0.47063 0.4929 0.60774 0.0
H1304 H 0.52247 0.98875 0.42095 0.0
H1305 H 0.54532 0.01568 0.54316 0.0
H1306 H 0.51037 0.00981 0.56126 0.0
H1307 H 0.47358 -0.00265 0.54215 0.0
H1308 H 0.45081 0.97052 0.41984 0.0
H1309 H 0.48571 0.97626 0.40188 0.0
C1310 C 0.51983 0.99326 0.45166 0.0
C1311 C 0.5365 0.00262 0.4807 0.0
C1312 C 0.4998 0.99002 0.4617 0.0
C1313 C 0.53278 0.00843 0.52025 0.0
C1314 C 0.51281 0.00513 0.53058 0.0
C1315 C 0.47623 0.99282 0.51146 0.0
C1316 C 0.45959 0.98354 0.48233 0.0
C1317 C 0.49626 0.99604 0.50146 0.0
C1318 C 0.46333 0.97771 0.44282 0.0
C1319 C 0.48326 0.98094 0.43256 0.0
H1320 H 0.47008 0.98728 0.92304 0.0
H1321 H 0.48753 0.03154 0.02517 0.0
H1322 H 0.51378 0.02254 0.0485 0.0
H1323 H 0.53186 0.00227 0.03971 0.0
H1324 H 0.51448 0.95814 0.93733 0.0
H1325 H 0.48822 0.96713 0.91409 0.0
C1326 C 0.47953 0.99489 0.95055 0.0
C1327 C 0.47681 0.01002 0.97237 0.0
C1328 C 0.49472 0.98981 0.96355 0.0
C1329 C 0.48929 0.01982 0.0078 0.0
C1330 C 0.50435 0.01473 0.02112 0.0
C1331 C 0.52242 0.99469 0.01216 0.0
C1332 C 0.52516 0.97959 0.99027 0.0
C1333 C 0.50726 -0.00018 0.99912 0.0
C1334 C 0.51272 0.96985 0.95475 0.0
C1335 C 0.49765 0.97493 0.94148 0.0
H1336 H 0.0184 0.53616 0.02123 0.0
H1337 H 0.95938 0.50468 0.08843 0.0
H1338 H 0.95342 0.47051 0.06396 0.0
H1339 H 0.96507 0.44965 0.02397 0.0
H1340 H 0.0242 0.4812 0.95709 0.0
H1341 H 0.0301 0.51533 0.98147 0.0
C1342 C 0.00415 0.52185 0.03036 0.0
C1343 C 0.98932 0.52298 0.05653 0.0
C1344 C 0.00094 0.50228 0.01658 0.0
C1345 C 0.97103 0.50426 0.06825 0.0
C1346 C 0.96764 0.48471 0.05438 0.0
C1347 C 0.97932 0.46397 0.01487 0.0
C1348 C 0.99419 0.46286 0.98878 0.0
C1349 C 0.98254 0.48354 0.02872 0.0
C1350 C 0.01251 0.48159 0.9772 0.0
C1351 C 0.01587 0.50113 0.99101 0.0
H1352 H 0.477 0.45262 0.06929 0.0
H1353 H 0.45322 0.45391 0.94649 0.0
H1354 H 0.48928 0.47637 0.92135 0.0
H1355 H 0.52712 0.49881 0.93653 0.0
H1356 H 0.55041 0.49834 0.06033 0.0
H1357 H 0.51491 0.47228 0.08267 0.0
C1358 C 0.47967 0.45757 0.03685 0.0
C1359 C 0.46242 0.45185 0.00998 0.0
C1360 C 0.50034 0.47082 0.02289 0.0
C1361 C 0.4662 0.45819 0.96793 0.0
C1362 C 0.48682 0.47113 0.95357 0.0
C1363 C 0.52448 0.49281 0.96826 0.0
C1364 C 0.54135 0.50075 0.99689 0.0
C1365 C 0.50395 0.47805 0.98113 0.0
C1366 C 0.53768 0.49269 0.03777 0.0
C1367 C 0.51738 0.47778 0.05061 0.0
H1368 H 0.45869 0.0833 0.05421 0.0
H1369 H 0.43343 0.11359 0.97661 0.0
H1370 H 0.42541 0.12766 0.03857 0.0
H1371 H 0.42085 0.12713 0.115 0.0
H1372 H 0.44625 0.09696 0.19257 0.0
H1373 H 0.45913 0.08751 0.13071 0.0
C1374 C 0.45187 0.09337 0.05071 0.0
C1375 C 0.44644 0.09706 0.01054 0.0
C1376 C 0.44705 0.10131 0.08669 0.0
C1377 C 0.43774 0.11032 0.00692 0.0
C1378 C 0.43299 0.11831 0.04248 0.0
C1379 C 0.42963 0.11891 0.11854 0.0
C1380 C 0.43224 0.11255 0.15865 0.0
C1381 C 0.43686 0.11327 0.0826 0.0
C1382 C 0.44383 0.10202 0.16231 0.0
C1383 C 0.45112 0.09646 0.1268 0.0
H1384 H 0.87668 0.28748 0.10794 0.0
H1385 H 0.90507 0.34147 0.19032 0.0
H1386 H 0.91463 0.36508 0.1305 0.0
H1387 H 0.91973 0.37056 0.05453 0.0
H1388 H 0.89137 0.31672 0.97189 0.0
H1389 H 0.87675 0.29313 0.03181 0.0
C1390 C 0.88451 0.30439 0.11297 0.0
C1391 C 0.89039 0.31257 0.15384 0.0
C1392 C 0.89022 0.31803 0.07817 0.0
C1393 C 0.90041 0.33459 0.15944 0.0
C1394 C 0.90603 0.34819 0.1251 0.0
C1395 C 0.90992 0.35371 0.04948 0.0
C1396 C 0.90696 0.34552 0.00853 0.0
C1397 C 0.90174 0.34012 0.08425 0.0
C1398 C 0.89402 0.32359 1.00285 0.0
C1399 C 0.88576 0.31001 0.03725 0.0
H1400 H 0.67793 0.57418 0.98616 0.0
H1401 H 0.61688 0.53366 0.04131 0.0
H1402 H 0.6331 0.53936 0.11024 0.0
H1403 H 0.66347 0.56139 0.15606 0.0
H1404 H 0.72412 0.60315 0.10067 0.0
H1405 H 0.70931 0.59114 0.03111 0.0
C1406 C 0.66819 0.56605 0.01299 0.0
C1407 C 0.64609 0.55384 0.00837 0.0
C1408 C 0.67757 0.56992 0.05292 0.0
C1409 C 0.63387 0.54335 0.04372 0.0
C1410 C 0.64314 0.54673 0.08337 0.0
C1411 C 0.67363 0.56736 0.12889 0.0
C1412 C 0.69485 0.58343 0.13377 0.0
C1413 C 0.66482 0.56083 0.08862 0.0
C1414 C 0.7077 0.59095 0.09799 0.0
C1415 C 0.6992 0.58417 0.05805 0.0
H1416 H 0.10506 0.38506 0.38361 0.0
H1417 H 0.08726 0.42065 0.30252 0.0
H1418 H 0.07805 0.43459 0.36296 0.0
H1419 H 0.07055 0.4331 0.4383 0.0
H1420 H 0.08878 0.39809 0.51986 0.0
H1421 H 0.10252 0.38794 0.46021 0.0
C1422 C 0.09963 0.39624 0.37911 0.0
C1423 C 0.09665 0.40149 0.33819 0.0
C1424 C 0.09417 0.40421 0.41429 0.0
C1425 C 0.08965 0.41612 0.33336 0.0
C1426 C 0.08424 0.42408 0.36805 0.0
C1427 C 0.07794 0.42363 0.44323 0.0
C1428 C 0.07835 0.41623 0.48373 0.0
C1429 C 0.08575 0.41768 0.4086 0.0
C1430 C 0.08816 0.40406 0.48926 0.0
C1431 C 0.09592 0.39809 0.45499 0.0
H1432 H 0.53961 0.63969 0.46301 0.0
H1433 H 0.58188 0.69784 0.52684 0.0
H1434 H 0.58623 0.7177 0.46317 0.0
H1435 H 0.58285 0.718 0.38688 0.0
H1436 H 0.54041 0.66028 0.32238 0.0
H1437 H 0.53104 0.64108 0.38856 0.0
C1438 C 0.5493 0.65676 0.46334 0.0
C1439 C 0.56074 0.66711 0.49968 0.0
C1440 C 0.55195 0.66825 0.42617 0.0
C1441 C 0.57311 0.6893 0.49934 0.0
C1442 C 0.5757 0.70075 0.46278 0.0
C1443 C 0.57112 0.70133 0.38741 0.0
C1444 C 0.56261 0.6906 0.34953 0.0
C1445 C 0.56595 0.69031 0.42558 0.0
C1446 C 0.54726 0.66901 0.35094 0.0
C1447 C 0.54202 0.65794 0.38885 0.0
H1448 H 0.37854 0.93732 0.44389 0.0
H1449 H 0.32276 0.91066 0.52115 0.0
H1450 H 0.30052 0.89698 0.4592 0.0
H1451 H 0.29668 0.89646 0.38254 0.0
H1452 H 0.35244 0.92288 0.30525 0.0
H1453 H 0.37463 0.93235 0.36744 0.0
C1454 C 0.36153 0.92816 0.44734 0.0
C1455 C 0.35246 0.92533 0.48744 0.0
C1456 C 0.34869 0.92039 0.41133 0.0
C1457 C 0.33033 0.91325 0.49094 0.0
C1458 C 0.31751 0.90547 0.45536 0.0
C1459 C 0.31366 0.90388 0.37916 0.0
C1460 C 0.32276 0.90912 0.33893 0.0
C1461 C 0.32648 0.90952 0.41528 0.0
C1462 C 0.34485 0.91866 0.33555 0.0
C1463 C 0.35765 0.92424 0.37125 0.0
H1464 H 0.58707 0.87023 0.83524 0.0
H1465 H 0.56232 0.90219 0.76132 0.0
H1466 H 0.54804 0.90928 0.82416 0.0
H1467 H 0.54665 0.91056 0.9011 0.0
H1468 H 0.57122 0.87841 0.97499 0.0
H1469 H 0.58112 0.86709 0.91143 0.0
C1470 C 0.57819 0.87837 0.83267 0.0
C1471 C 0.57607 0.88586 0.79334 0.0
C1472 C 0.57011 0.8826 0.86919 0.0
C1473 C 0.56432 0.89624 0.79092 0.0
C1474 C 0.55622 0.90045 0.82703 0.0
C1475 C 0.55375 0.9007 0.90339 0.0
C1476 C 0.55835 0.89561 0.94313 0.0
C1477 C 0.55963 0.89433 0.86651 0.0
C1478 C 0.56748 0.88268 0.94511 0.0
C1479 C 0.5733 0.87628 0.90863 0.0
H1480 H 0.0608 0.61406 0.98186 0.0
H1481 H 0.09205 0.6693 0.06049 0.0
H1482 H 0.10739 0.69151 0.999 0.0
H1483 H 0.10823 0.69585 0.92242 0.0
H1484 H 0.07715 0.64052 0.84393 0.0
H1485 H 0.06583 0.61796 0.90558 0.0
C1486 C 0.07131 0.6309 0.9857 0.0
C1487 C 0.07498 0.63992 0.02599 0.0
C1488 C 0.08001 0.64371 0.95001 0.0
C1489 C 0.08881 0.66181 0.03007 0.0
C1490 C 0.09753 0.67461 0.99478 0.0
C1491 C 0.09935 0.67885 0.91868 0.0
C1492 C 0.09338 0.67003 0.8783 0.0
C1493 C 0.09268 0.66583 0.95449 0.0
C1494 C 0.08196 0.64789 0.87439 0.0
C1495 C 0.07534 0.6349 0.90976 0.0
H1496 H 0.35522 0.44306 0.87433 0.0
H1497 H 0.29432 0.41987 0.9321 0.0
H1498 H 0.31114 0.43082 1.00059 0.0
H1499 H 0.34248 0.44121 0.04511 0.0
H1500 H 0.40307 0.46308 0.98681 0.0
H1501 H 0.38711 0.45875 0.91799 0.0
C1502 C 0.34561 0.44087 0.90171 0.0
C1503 C 0.32343 0.43033 0.89782 0.0
C1504 C 0.35537 0.44675 0.94128 0.0
C1505 C 0.31137 0.42784 0.93386 0.0
C1506 C 0.321 0.43396 0.97325 0.0
C1507 C 0.35234 0.44569 0.01745 0.0
C1508 C 0.37398 0.45226 0.02139 0.0
C1509 C 0.34291 0.4426 0.97757 0.0
C1510 C 0.38639 0.45784 0.98494 0.0
C1511 C 0.37723 0.45525 0.94541 0.0
H1512 H 0.90312 0.58016 0.70154 0.0
H1513 H 0.87595 0.61208 0.63506 0.0
H1514 H 0.87926 0.59719 0.56928 0.0
H1515 H 0.89476 0.5796 0.52933 0.0
H1516 H 0.92293 0.54851 0.59539 0.0
H1517 H 0.91401 0.55821 0.66206 0.0
C1518 C 0.89739 0.58341 0.67286 0.0
C1519 C 0.88951 0.59747 0.67346 0.0
C1520 C 0.89978 0.57513 0.63467 0.0
C1521 C 0.88225 0.60149 0.63573 0.0
C1522 C 0.88422 0.59303 0.59791 0.0
C1523 C 0.8985 0.57446 0.55825 0.0
C1524 C 0.90979 0.56353 0.55701 0.0
C1525 C 0.89372 0.58051 0.59675 0.0
C1526 C 0.91441 0.55705 0.59508 0.0
C1527 C 0.90939 0.5627 0.63341 0.0
H1528 H 0.38257 0.29484 0.67308 0.0
H1529 H 0.40931 0.34717 0.7594 0.0
H1530 H 0.4234 0.37197 0.70119 0.0
H1531 H 0.42537 0.37905 0.62526 0.0
H1532 H 0.40035 0.32667 0.53905 0.0
H1533 H 0.3887 0.30189 0.59733 0.0
C1534 C 0.39175 0.31166 0.67919 0.0
C1535 C 0.39467 0.31904 0.72075 0.0
C1536 C 0.40008 0.32594 0.6454 0.0
C1537 C 0.4068 0.34094 0.7279 0.0
C1538 C 0.41479 0.3552 0.69452 0.0
C1539 C 0.4177 0.36223 0.6192 0.0
C1540 C 0.41365 0.35484 0.57759 0.0
C1541 C 0.41114 0.34793 0.65306 0.0
C1542 C 0.40378 0.33293 0.57055 0.0
C1543 C 0.39695 0.31867 0.60398 0.0
H1544 H 0.61855 0.0538 0.51506 0.0
H1545 H 0.67314 0.07508 0.43572 0.0
H1546 H 0.69633 0.09009 0.49601 0.0
H1547 H 0.70124 0.09393 0.5725 0.0
H1548 H 0.64691 0.07421 0.65175 0.0
H1549 H 0.62379 0.06223 0.59065 0.0
C1550 C 0.63552 0.06206 0.5108 0.0
C1551 C 0.64394 0.06304 0.47063 0.0
C1552 C 0.64896 0.07087 0.54585 0.0
C1553 C 0.66606 0.07399 0.46599 0.0
C1554 C 0.67942 0.08252 0.50064 0.0
C1555 C 0.68438 0.08738 0.57638 0.0
C1556 C 0.67592 0.08487 0.61696 0.0
C1557 C 0.67107 0.08057 0.5409 0.0
C1558 C 0.65399 0.07644 0.62111 0.0
C1559 C 0.64067 0.06941 0.58607 0.0
H1560 H 0.71347 0.73407 0.67323 0.0
H1561 H 0.7526 0.71516 0.73944 0.0
H1562 H 0.74705 0.72917 0.8045 0.0
H1563 H 0.72798 0.74332 0.84422 0.0
H1564 H 0.68681 0.75981 0.77874 0.0
H1565 H 0.69641 0.75054 0.71216 0.0
C1566 C 0.72114 0.73339 0.7017 0.0
C1567 C 0.73344 0.72352 0.70125 0.0
C1568 C 0.71735 0.74094 0.73944 0.0
C1569 C 0.74301 0.72259 0.73873 0.0
C1570 C 0.7398 0.73058 0.77607 0.0
C1571 C 0.7215 0.74536 0.81529 0.0
C1572 C 0.70669 0.75229 0.81661 0.0
C1573 C 0.72656 0.7393 0.77707 0.0
C1574 C 0.69819 0.75448 0.77876 0.0
C1575 C 0.70363 0.7491 0.7406 0.0
H1576 H 0.24444 0.00692 0.65611 0.0
H1577 H 0.27229 0.06667 0.72076 0.0
H1578 H 0.26017 0.04842 0.78746 0.0
H1579 H 0.24621 0.01559 0.82835 0.0
H1580 H 0.21926 0.95586 0.76376 0.0
H1581 H 0.22612 0.97393 0.69669 0.0
C1582 C 0.24742 0.01599 0.68463 0.0
C1583 C 0.25955 0.03822 0.68314 0.0
C1584 C 0.24074 0.00534 0.72327 0.0
C1585 C 0.2632 0.04959 0.7207 0.0
C1586 C 0.25632 0.03913 0.75905 0.0
C1587 C 0.24133 0.00645 0.7997 0.0
C1588 C 0.23241 0.98433 0.80142 0.0
C1589 C 0.24576 0.01701 0.7609 0.0
C1590 C 0.22627 0.97287 0.76368 0.0
C1591 C 0.23029 0.98322 0.72512 0.0
H1592 H 0.00656 0.23668 0.64202 0.0
H1593 H 0.94734 0.19789 0.70514 0.0
H1594 H 0.96577 0.20482 0.77192 0.0
H1595 H -0.00205 0.22579 0.81362 0.0
H1596 H 0.05699 0.26588 0.75092 0.0
H1597 H 0.03948 0.2543 0.68322 0.0
C1598 C -0.0023 0.22929 0.67019 0.0
C1599 C 0.97548 0.21687 0.66828 0.0
C1600 C 0.00839 0.23381 0.70892 0.0
C1601 C 0.96438 0.20758 0.70541 0.0
C1602 C 0.97493 0.21163 0.7438 0.0
C1603 C 0.00715 0.23166 0.78521 0.0
C1604 C 0.02882 0.24689 0.78772 0.0
C1605 C -0.00316 0.22532 0.74615 0.0
C1606 C 0.04032 0.25425 0.75026 0.0
C1607 C 0.03027 0.2477 0.71137 0.0
H1608 H 0.2368 0.20187 0.26949 0.0
H1609 H 0.21121 0.23483 0.2015 0.0
H1610 H 0.20036 0.24366 0.26696 0.0
H1611 H 0.20424 0.2477 0.34366 0.0
H1612 H 0.23002 0.21474 0.41123 0.0
H1613 H 0.23421 0.20002 0.34613 0.0
C1614 C 0.2283 0.21047 0.26885 0.0
C1615 C 0.22522 0.21797 0.23046 0.0
C1616 C 0.22237 0.21582 0.30678 0.0
C1617 C 0.21395 0.22889 0.23041 0.0
C1618 C 0.20787 0.23414 0.268 0.0
C1619 C 0.21016 0.23678 0.34437 0.0
C1620 C 0.21721 0.23276 0.38247 0.0
C1621 C 0.2129 0.22855 0.30647 0.0
C1622 C 0.22471 0.21842 0.38251 0.0
C1623 C 0.22725 0.21003 0.34513 0.0
H1624 H 0.78266 0.04723 0.17806 0.0
H1625 H 0.76574 0.99291 0.10018 0.0
H1626 H 0.75839 0.97091 0.16226 0.0
H1627 H 0.75243 0.96615 0.23859 0.0
H1628 H 0.77009 0.0208 0.31614 0.0
H1629 H 0.78165 0.0434 0.25463 0.0
C1630 C 0.77779 0.03067 0.17459 0.0
C1631 C 0.77459 0.02179 0.13423 0.0
C1632 C 0.77346 0.018 0.21057 0.0
C1633 C 0.76839 0.00028 0.13064 0.0
C1634 C 0.76401 0.98759 0.16625 0.0
C1635 C 0.75921 0.98305 0.24221 0.0
C1636 C 0.76007 0.99159 0.28225 0.0
C1637 C 0.76584 0.99613 0.2064 0.0
C1638 C 0.76907 0.01362 0.28598 0.0
C1639 C 0.77562 0.02664 0.25065 0.0
H1640 H 0.00724 0.76541 0.37244 0.0
H1641 H 0.06574 0.78634 0.30621 0.0
H1642 H 0.04771 0.78214 0.23976 0.0
H1643 H 0.01447 0.76753 0.19993 0.0
H1644 H 0.95582 0.74555 0.26621 0.0
H1645 H 0.97478 0.75549 0.33257 0.0
C1646 C 0.01619 0.76957 0.3436 0.0
C1647 C 0.03786 0.77595 0.34464 0.0
C1648 C 0.0056 0.76669 0.30514 0.0
C1649 C 0.04907 0.78124 0.30666 0.0
C1650 C 0.03872 0.77875 0.26845 0.0
C1651 C 0.00585 0.76542 0.22875 0.0
C1652 C 0.98363 0.75555 0.22778 0.0
C1653 C 0.01685 0.77073 0.26718 0.0
C1654 C 0.97286 0.75296 0.26573 0.0
C1655 C 0.98371 0.75854 0.30389 0.0
loop_
_geom_bond_atom_site_label_1
_geom_bond_atom_site_label_2
_geom_bond_distance
_geom_bond_site_symmetry_2
_ccdc_geom_bond_type
Zn0 O3 2.031 . S
Zn0 O5 2.049 . S
Zn0 O10 2.067 . S
Zn1 O2 1.962 . S
Zn1 O4 1.986 . S
Zn1 O6 1.996 . S
Zn1 O9 1.943 . S
O2 Zn1 1.962 . S
O2 C7 1.254 . S
O3 Zn0 2.031 . S
O3 C7 1.269 . S
O4 Zn1 1.986 . S
O4 C11 1.262 . S
O5 Zn0 2.049 . S
O5 C13 1.260 . S
O6 Zn1 1.996 . S
O6 C13 1.257 . S
C7 O2 1.254 . S
C7 O3 1.269 . S
C8 O9 1.249 . S
C8 O10 1.270 . S
O9 Zn1 1.943 . S
O9 C8 1.249 . S
O10 Zn0 2.067 . S
O10 C8 1.270 . S
C11 O4 1.262 . S
C11 O12 1.232 . S
O12 C11 1.232 . S
C13 O5 1.260 . S
C13 O6 1.257 . S
Zn14 O17 2.031 . S
Zn14 O19 2.049 . S
Zn14 O24 2.067 . S
Zn15 O16 1.962 . S
Zn15 O18 1.986 . S
Zn15 O20 1.996 . S
Zn15 O23 1.943 . S
O16 Zn15 1.962 . S
O16 C21 1.254 . S
O17 Zn14 2.031 . S
O17 C21 1.269 . S
O18 Zn15 1.986 . S
O18 C25 1.262 . S
O19 Zn14 2.049 . S
O19 C27 1.260 . S
O20 Zn15 1.996 . S
O20 C27 1.257 . S
C21 O16 1.254 . S
C21 O17 1.269 . S
C22 O23 1.249 . S
C22 O24 1.270 . S
O23 Zn15 1.943 . S
O23 C22 1.249 . S
O24 Zn14 2.067 . S
O24 C22 1.270 . S
C25 O18 1.262 . S
C25 O26 1.232 . S
O26 C25 1.232 . S
C27 O19 1.260 . S
C27 O20 1.257 . S
Zn28 O31 2.031 . S
Zn28 O33 2.049 . S
Zn28 O38 2.067 . S
Zn29 O30 1.962 . S
Zn29 O32 1.986 . S
Zn29 O34 1.996 . S
Zn29 O37 1.943 . S
O30 Zn29 1.962 . S
O30 C35 1.254 . S
O31 Zn28 2.031 . S
O31 C35 1.269 . S
O32 Zn29 1.986 . S
O32 C39 1.262 . S
O33 Zn28 2.049 . S
O33 C41 1.260 . S
O34 Zn29 1.996 . S
O34 C41 1.257 . S
C35 O30 1.254 . S
C35 O31 1.269 . S
C36 O37 1.249 . S
C36 O38 1.270 . S
O37 Zn29 1.943 . S
O37 C36 1.249 . S
O38 Zn28 2.067 . S
O38 C36 1.270 . S
C39 O32 1.262 . S
C39 O40 1.232 . S
O40 C39 1.232 . S
C41 O33 1.260 . S
C41 O34 1.257 . S
Zn42 O45 2.031 . S
Zn42 O47 2.049 . S
Zn42 O52 2.067 . S
Zn43 O44 1.962 . S
Zn43 O46 1.986 . S
Zn43 O48 1.996 . S
Zn43 O51 1.943 . S
O44 Zn43 1.962 . S
O44 C49 1.254 . S
O45 Zn42 2.031 . S
O45 C49 1.269 . S
O46 Zn43 1.986 . S
O46 C53 1.262 . S
O47 Zn42 2.049 . S
O47 C55 1.260 . S
O48 Zn43 1.996 . S
O48 C55 1.257 . S
C49 O44 1.254 . S
C49 O45 1.269 . S
C50 O51 1.249 . S
C50 O52 1.270 . S
O51 Zn43 1.943 . S
O51 C50 1.249 . S
O52 Zn42 2.067 . S
O52 C50 1.270 . S
C53 O46 1.262 . S
C53 O54 1.232 . S
O54 C53 1.232 . S
C55 O47 1.260 . S
C55 O48 1.257 . S
Zn56 O59 2.031 . S
Zn56 O61 2.049 . S
Zn56 O66 2.067 . S
Zn57 O58 1.962 . S
Zn57 O60 1.986 . S
Zn57 O62 1.996 . S
Zn57 O65 1.943 . S
O58 Zn57 1.962 . S
O58 C63 1.254 . S
O59 Zn56 2.031 . S
O59 C63 1.269 . S
O60 Zn57 1.986 . S
O60 C67 1.262 . S
O61 Zn56 2.049 . S
O61 C69 1.260 . S
O62 Zn57 1.996 . S
O62 C69 1.257 . S
C63 O58 1.254 . S
C63 O59 1.269 . S
C64 O65 1.249 . S
C64 O66 1.270 . S
O65 Zn57 1.943 . S
O65 C64 1.249 . S
O66 Zn56 2.067 . S
O66 C64 1.270 . S
C67 O60 1.262 . S
C67 O68 1.232 . S
O68 C67 1.232 . S
C69 O61 1.260 . S
C69 O62 1.257 . S
Zn70 O73 2.031 . S
Zn70 O75 2.049 . S
Zn70 O80 2.067 . S
Zn71 O72 1.962 . S
Zn71 O74 1.986 . S
Zn71 O76 1.996 . S
Zn71 O79 1.943 . S
O72 Zn71 1.962 . S
O72 C77 1.254 . S
O73 Zn70 2.031 . S
O73 C77 1.269 . S
O74 Zn71 1.986 . S
O74 C81 1.262 . S
O75 Zn70 2.049 . S
O75 C83 1.260 . S
O76 Zn71 1.996 . S
O76 C83 1.257 . S
C77 O72 1.254 . S
C77 O73 1.269 . S
C78 O79 1.249 . S
C78 O80 1.270 . S
O79 Zn71 1.943 . S
O79 C78 1.249 . S
O80 Zn70 2.067 . S
O80 C78 1.270 . S
C81 O74 1.262 . S
C81 O82 1.232 . S
O82 C81 1.232 . S
C83 O75 1.260 . S
C83 O76 1.257 . S
Zn84 O87 2.031 . S
Zn84 O89 2.049 . S
Zn84 O94 2.067 . S
Zn85 O86 1.962 . S
Zn85 O88 1.986 . S
Zn85 O90 1.996 . S
Zn85 O93 1.943 . S
O86 Zn85 1.962 . S
O86 C91 1.254 . S
O87 Zn84 2.031 . S
O87 C91 1.269 . S
O88 Zn85 1.986 . S
O88 C95 1.262 . S
O89 Zn84 2.049 . S
O89 C97 1.260 . S
O90 Zn85 1.996 . S
O90 C97 1.257 . S
C91 O86 1.254 . S
C91 O87 1.269 . S
C92 O93 1.249 . S
C92 O94 1.270 . S
O93 Zn85 1.943 . S
O93 C92 1.249 . S
O94 Zn84 2.067 . S
O94 C92 1.270 . S
C95 O88 1.262 . S
C95 O96 1.232 . S
O96 C95 1.232 . S
C97 O89 1.260 . S
C97 O90 1.257 . S
Zn98 O101 2.031 . S
Zn98 O103 2.049 . S
Zn98 O108 2.067 . S
Zn99 O100 1.962 . S
Zn99 O102 1.986 . S
Zn99 O104 1.996 . S
Zn99 O107 1.943 . S
O100 Zn99 1.962 . S
O100 C105 1.254 . S
O101 Zn98 2.031 . S
O101 C105 1.269 . S
O102 Zn99 1.986 . S
O102 C109 1.262 . S
O103 Zn98 2.049 . S
O103 C111 1.260 . S
O104 Zn99 1.996 . S
O104 C111 1.257 . S
C105 O100 1.254 . S
C105 O101 1.269 . S
C106 O107 1.249 . S
C106 O108 1.270 . S
O107 Zn99 1.943 . S
O107 C106 1.249 . S
O108 Zn98 2.067 . S
O108 C106 1.270 . S
C109 O102 1.262 . S
C109 O110 1.232 . S
O110 C109 1.232 . S
C111 O103 1.260 . S
C111 O104 1.257 . S
Zn112 O115 2.031 . S
Zn112 O117 2.049 . S
Zn112 O122 2.067 . S
Zn113 O114 1.962 . S
Zn113 O116 1.986 . S
Zn113 O118 1.996 . S
Zn113 O121 1.943 . S
O114 Zn113 1.962 . S
O114 C119 1.254 . S
O115 Zn112 2.031 . S
O115 C119 1.269 . S
O116 Zn113 1.986 . S
O116 C123 1.262 . S
O117 Zn112 2.049 . S
O117 C125 1.260 . S
O118 Zn113 1.996 . S
O118 C125 1.257 . S
C119 O114 1.254 . S
C119 O115 1.269 . S
C120 O121 1.249 . S
C120 O122 1.270 . S
O121 Zn113 1.943 . S
O121 C120 1.249 . S
O122 Zn112 2.067 . S
O122 C120 1.270 . S
C123 O116 1.262 . S
C123 O124 1.232 . S
O124 C123 1.232 . S
C125 O117 1.260 . S
C125 O118 1.257 . S
Zn126 O129 2.031 . S
Zn126 O131 2.049 . S
Zn126 O136 2.067 . S
Zn127 O128 1.962 . S
Zn127 O130 1.986 . S
Zn127 O132 1.996 . S
Zn127 O135 1.943 . S
O128 Zn127 1.962 . S
O128 C133 1.254 . S
O129 Zn126 2.031 . S
O129 C133 1.269 . S
O130 Zn127 1.986 . S
O130 C137 1.262 . S
O131 Zn126 2.049 . S
O131 C139 1.260 . S
O132 Zn127 1.996 . S
O132 C139 1.257 . S
C133 O128 1.254 . S
C133 O129 1.269 . S
C134 O135 1.249 . S
C134 O136 1.270 . S
O135 Zn127 1.943 . S
O135 C134 1.249 . S
O136 Zn126 2.067 . S
O136 C134 1.270 . S
C137 O130 1.262 . S
C137 O138 1.232 . S
O138 C137 1.232 . S
C139 O131 1.260 . S
C139 O132 1.257 . S
Zn140 O143 2.031 . S
Zn140 O145 2.049 . S
Zn140 O150 2.067 . S
Zn141 O142 1.962 . S
Zn141 O144 1.986 . S
Zn141 O146 1.996 . S
Zn141 O149 1.943 . S
O142 Zn141 1.962 . S
O142 C147 1.254 . S
O143 Zn140 2.031 . S
O143 C147 1.269 . S
O144 Zn141 1.986 . S
O144 C151 1.262 . S
O145 Zn140 2.049 . S
O145 C153 1.260 . S
O146 Zn141 1.996 . S
O146 C153 1.257 . S
C147 O142 1.254 . S
C147 O143 1.269 . S
C148 O149 1.249 . S
C148 O150 1.270 . S
O149 Zn141 1.943 . S
O149 C148 1.249 . S
O150 Zn140 2.067 . S
O150 C148 1.270 . S
C151 O144 1.262 . S
C151 O152 1.232 . S
O152 C151 1.232 . S
C153 O145 1.260 . S
C153 O146 1.257 . S
Zn154 O157 2.031 . S
Zn154 O159 2.049 . S
Zn154 O164 2.067 . S
Zn155 O156 1.962 . S
Zn155 O158 1.986 . S
Zn155 O160 1.996 . S
Zn155 O163 1.943 . S
O156 Zn155 1.962 . S
O156 C161 1.254 . S
O157 Zn154 2.031 . S
O157 C161 1.269 . S
O158 Zn155 1.986 . S
O158 C165 1.262 . S
O159 Zn154 2.049 . S
O159 C167 1.260 . S
O160 Zn155 1.996 . S
O160 C167 1.257 . S
C161 O156 1.254 . S
C161 O157 1.269 . S
C162 O163 1.249 . S
C162 O164 1.270 . S
O163 Zn155 1.943 . S
O163 C162 1.249 . S
O164 Zn154 2.067 . S
O164 C162 1.270 . S
C165 O158 1.262 . S
C165 O166 1.232 . S
O166 C165 1.232 . S
C167 O159 1.260 . S
C167 O160 1.257 . S
Zn168 O171 2.031 . S
Zn168 O173 2.049 . S
Zn168 O178 2.067 1_455 S
Zn169 O170 1.962 . S
Zn169 O172 1.986 . S
Zn169 O174 1.996 . S
Zn169 O177 1.943 1_455 S
O170 Zn169 1.962 . S
O170 C175 1.254 . S
O171 Zn168 2.031 . S
O171 C175 1.269 . S
O172 Zn169 1.986 . S
O172 C179 1.262 1_455 S
O173 Zn168 2.049 . S
O173 C181 1.260 . S
O174 Zn169 1.996 . S
O174 C181 1.257 . S
C175 O170 1.254 . S
C175 O171 1.269 . S
C176 O177 1.249 . S
C176 O178 1.270 . S
O177 Zn169 1.943 1_655 S
O177 C176 1.249 . S
O178 Zn168 2.067 1_655 S
O178 C176 1.270 . S
C179 O172 1.262 1_655 S
C179 O180 1.232 . S
O180 C179 1.232 . S
C181 O173 1.260 . S
C181 O174 1.257 . S
Zn182 O185 2.031 . S
Zn182 O187 2.049 . S
Zn182 O192 2.067 . S
Zn183 O184 1.962 . S
Zn183 O186 1.986 . S
Zn183 O188 1.996 . S
Zn183 O191 1.943 . S
O184 Zn183 1.962 . S
O184 C189 1.254 . S
O185 Zn182 2.031 . S
O185 C189 1.269 . S
O186 Zn183 1.986 . S
O186 C193 1.262 . S
O187 Zn182 2.049 . S
O187 C195 1.260 . S
O188 Zn183 1.996 . S
O188 C195 1.257 . S
C189 O184 1.254 . S
C189 O185 1.269 . S
C190 O191 1.249 . S
C190 O192 1.270 . S
O191 Zn183 1.943 . S
O191 C190 1.249 . S
O192 Zn182 2.067 . S
O192 C190 1.270 . S
C193 O186 1.262 . S
C193 O194 1.232 . S
O194 C193 1.232 . S
C195 O187 1.260 . S
C195 O188 1.257 . S
Zn196 O199 2.031 . S
Zn196 O201 2.049 . S
Zn196 O206 2.067 1_565 S
Zn197 O198 1.962 . S
Zn197 O200 1.986 . S
Zn197 O202 1.996 . S
Zn197 O205 1.943 1_565 S
O198 Zn197 1.962 . S
O198 C203 1.254 . S
O199 Zn196 2.031 . S
O199 C203 1.269 . S
O200 Zn197 1.986 . S
O200 C207 1.262 1_565 S
O201 Zn196 2.049 . S
O201 C209 1.260 . S
O202 Zn197 1.996 . S
O202 C209 1.257 . S
C203 O198 1.254 . S
C203 O199 1.269 . S
C204 O205 1.249 . S
C204 O206 1.270 . S
O205 Zn197 1.943 1_545 S
O205 C204 1.249 . S
O206 Zn196 2.067 1_545 S
O206 C204 1.270 . S
C207 O200 1.262 1_545 S
C207 O208 1.232 . S
O208 C207 1.232 . S
C209 O201 1.260 . S
C209 O202 1.257 . S
Zn210 O213 2.031 . S
Zn210 O215 2.049 . S
Zn210 O220 2.067 . S
Zn211 O212 1.962 . S
Zn211 O214 1.986 . S
Zn211 O216 1.996 . S
Zn211 O219 1.943 . S
O212 Zn211 1.962 . S
O212 C217 1.254 . S
O213 Zn210 2.031 . S
O213 C217 1.269 . S
O214 Zn211 1.986 . S
O214 C221 1.262 . S
O215 Zn210 2.049 . S
O215 C223 1.260 . S
O216 Zn211 1.996 . S
O216 C223 1.257 . S
C217 O212 1.254 . S
C217 O213 1.269 . S
C218 O219 1.249 . S
C218 O220 1.270 . S
O219 Zn211 1.943 . S
O219 C218 1.249 . S
O220 Zn210 2.067 . S
O220 C218 1.270 . S
C221 O214 1.262 . S
C221 O222 1.232 . S
O222 C221 1.232 . S
C223 O215 1.260 . S
C223 O216 1.257 . S
Zn224 O227 2.031 . S
Zn224 O229 2.049 . S
Zn224 O234 2.067 . S
Zn225 O226 1.962 . S
Zn225 O228 1.986 . S
Zn225 O230 1.996 . S
Zn225 O233 1.943 . S
O226 Zn225 1.962 . S
O226 C231 1.254 . S
O227 Zn224 2.031 . S
O227 C231 1.269 . S
O228 Zn225 1.986 . S
O228 C235 1.262 . S
O229 Zn224 2.049 . S
O229 C237 1.260 . S
O230 Zn225 1.996 . S
O230 C237 1.257 . S
C231 O226 1.254 . S
C231 O227 1.269 . S
C232 O233 1.249 . S
C232 O234 1.270 . S
O233 Zn225 1.943 . S
O233 C232 1.249 . S
O234 Zn224 2.067 . S
O234 C232 1.270 . S
C235 O228 1.262 . S
C235 O236 1.232 . S
O236 C235 1.232 . S
C237 O229 1.260 . S
C237 O230 1.257 . S
Zn238 O241 2.031 . S
Zn238 O243 2.049 . S
Zn238 O248 2.067 . S
Zn239 O240 1.962 . S
Zn239 O242 1.986 . S
Zn239 O244 1.996 . S
Zn239 O247 1.943 . S
O240 Zn239 1.962 . S
O240 C245 1.254 . S
O241 Zn238 2.031 . S
O241 C245 1.269 . S
O242 Zn239 1.986 . S
O242 C249 1.262 . S
O243 Zn238 2.049 . S
O243 C251 1.260 . S
O244 Zn239 1.996 . S
O244 C251 1.257 . S
C245 O240 1.254 . S
C245 O241 1.269 . S
C246 O247 1.249 . S
C246 O248 1.270 . S
O247 Zn239 1.943 . S
O247 C246 1.249 . S
O248 Zn238 2.067 . S
O248 C246 1.270 . S
C249 O242 1.262 . S
C249 O250 1.232 . S
O250 C249 1.232 . S
C251 O243 1.260 . S
C251 O244 1.257 . S
Zn252 O255 2.031 . S
Zn252 O257 2.049 . S
Zn252 O262 2.067 . S
Zn253 O254 1.962 . S
Zn253 O256 1.986 . S
Zn253 O258 1.996 . S
Zn253 O261 1.943 . S
O254 Zn253 1.962 . S
O254 C259 1.254 . S
O255 Zn252 2.031 . S
O255 C259 1.269 . S
O256 Zn253 1.986 . S
O256 C263 1.262 . S
O257 Zn252 2.049 . S
O257 C265 1.260 . S
O258 Zn253 1.996 . S
O258 C265 1.257 . S
C259 O254 1.254 . S
C259 O255 1.269 . S
C260 O261 1.249 . S
C260 O262 1.270 . S
O261 Zn253 1.943 . S
O261 C260 1.249 . S
O262 Zn252 2.067 . S
O262 C260 1.270 . S
C263 O256 1.262 . S
C263 O264 1.232 . S
O264 C263 1.232 . S
C265 O257 1.260 . S
C265 O258 1.257 . S
Zn266 O269 2.031 . S
Zn266 O271 2.049 . S
Zn266 O276 2.067 . S
Zn267 O268 1.962 . S
Zn267 O270 1.986 . S
Zn267 O272 1.996 . S
Zn267 O275 1.943 . S
O268 Zn267 1.962 . S
O268 C273 1.254 . S
O269 Zn266 2.031 . S
O269 C273 1.269 . S
O270 Zn267 1.986 . S
O270 C277 1.262 . S
O271 Zn266 2.049 . S
O271 C279 1.260 . S
O272 Zn267 1.996 . S
O272 C279 1.257 . S
C273 O268 1.254 . S
C273 O269 1.269 . S
C274 O275 1.249 . S
C274 O276 1.270 . S
O275 Zn267 1.943 . S
O275 C274 1.249 . S
O276 Zn266 2.067 . S
O276 C274 1.270 . S
C277 O270 1.262 . S
C277 O278 1.232 . S
O278 C277 1.232 . S
C279 O271 1.260 . S
C279 O272 1.257 . S
Zn280 O283 2.031 . S
Zn280 O285 2.049 . S
Zn280 O290 2.067 . S
Zn281 O282 1.962 . S
Zn281 O284 1.986 . S
Zn281 O286 1.996 . S
Zn281 O289 1.943 . S
O282 Zn281 1.962 . S
O282 C287 1.254 . S
O283 Zn280 2.031 . S
O283 C287 1.269 . S
O284 Zn281 1.986 . S
O284 C291 1.262 . S
O285 Zn280 2.049 . S
O285 C293 1.260 . S
O286 Zn281 1.996 . S
O286 C293 1.257 . S
C287 O282 1.254 . S
C287 O283 1.269 . S
C288 O289 1.249 . S
C288 O290 1.270 . S
O289 Zn281 1.943 . S
O289 C288 1.249 . S
O290 Zn280 2.067 . S
O290 C288 1.270 . S
C291 O284 1.262 . S
C291 O292 1.232 . S
O292 C291 1.232 . S
C293 O285 1.260 . S
C293 O286 1.257 . S
Zn294 O297 2.031 . S
Zn294 O299 2.049 . S
Zn294 O304 2.067 1_565 S
Zn295 O296 1.962 . S
Zn295 O298 1.986 . S
Zn295 O300 1.996 . S
Zn295 O303 1.943 1_565 S
O296 Zn295 1.962 . S
O296 C301 1.254 . S
O297 Zn294 2.031 . S
O297 C301 1.269 . S
O298 Zn295 1.986 . S
O298 C305 1.262 1_565 S
O299 Zn294 2.049 . S
O299 C307 1.260 . S
O300 Zn295 1.996 . S
O300 C307 1.257 . S
C301 O296 1.254 . S
C301 O297 1.269 . S
C302 O303 1.249 . S
C302 O304 1.270 . S
O303 Zn295 1.943 1_545 S
O303 C302 1.249 . S
O304 Zn294 2.067 1_545 S
O304 C302 1.270 . S
C305 O298 1.262 1_545 S
C305 O306 1.232 1_554 S
O306 C305 1.232 1_556 S
C307 O299 1.260 . S
C307 O300 1.257 . S
Zn308 O311 2.031 . S
Zn308 O313 2.049 . S
Zn308 O318 2.067 1_455 S
Zn309 O310 1.962 . S
Zn309 O312 1.986 . S
Zn309 O314 1.996 . S
Zn309 O317 1.943 1_455 S
O310 Zn309 1.962 . S
O310 C315 1.254 . S
O311 Zn308 2.031 . S
O311 C315 1.269 . S
O312 Zn309 1.986 . S
O312 C319 1.262 1_455 S
O313 Zn308 2.049 . S
O313 C321 1.260 . S
O314 Zn309 1.996 . S
O314 C321 1.257 . S
C315 O310 1.254 . S
C315 O311 1.269 . S
C316 O317 1.249 . S
C316 O318 1.270 . S
O317 Zn309 1.943 1_655 S
O317 C316 1.249 . S
O318 Zn308 2.067 1_655 S
O318 C316 1.270 . S
C319 O312 1.262 1_655 S
C319 O320 1.232 1_554 S
O320 C319 1.232 1_556 S
C321 O313 1.260 . S
C321 O314 1.257 . S
Zn322 O325 2.031 . S
Zn322 O327 2.049 . S
Zn322 O332 2.067 . S
Zn323 O324 1.962 . S
Zn323 O326 1.986 . S
Zn323 O328 1.996 . S
Zn323 O331 1.943 . S
O324 Zn323 1.962 . S
O324 C329 1.254 . S
O325 Zn322 2.031 . S
O325 C329 1.269 . S
O326 Zn323 1.986 . S
O326 C333 1.262 . S
O327 Zn322 2.049 . S
O327 C335 1.260 . S
O328 Zn323 1.996 . S
O328 C335 1.257 . S
C329 O324 1.254 . S
C329 O325 1.269 . S
C330 O331 1.249 . S
C330 O332 1.270 . S
O331 Zn323 1.943 . S
O331 C330 1.249 . S
O332 Zn322 2.067 . S
O332 C330 1.270 . S
C333 O326 1.262 . S
C333 O334 1.232 1_554 S
O334 C333 1.232 1_556 S
C335 O327 1.260 . S
C335 O328 1.257 . S
Zn336 O339 2.031 . S
Zn336 O341 2.049 . S
Zn336 O346 2.067 . S
Zn337 O338 1.962 . S
Zn337 O340 1.986 . S
Zn337 O342 1.996 . S
Zn337 O345 1.943 . S
O338 Zn337 1.962 . S
O338 C343 1.254 . S
O339 Zn336 2.031 . S
O339 C343 1.269 . S
O340 Zn337 1.986 . S
O340 C347 1.262 . S
O341 Zn336 2.049 . S
O341 C349 1.260 . S
O342 Zn337 1.996 . S
O342 C349 1.257 . S
C343 O338 1.254 . S
C343 O339 1.269 . S
C344 O345 1.249 . S
C344 O346 1.270 . S
O345 Zn337 1.943 . S
O345 C344 1.249 . S
O346 Zn336 2.067 . S
O346 C344 1.270 . S
C347 O340 1.262 . S
C347 O348 1.232 . S
O348 C347 1.232 . S
C349 O341 1.260 . S
C349 O342 1.257 . S
Zn350 O353 2.031 . S
Zn350 O355 2.049 . S
Zn350 O360 2.067 . S
Zn351 O352 1.962 . S
Zn351 O354 1.986 . S
Zn351 O356 1.996 . S
Zn351 O359 1.943 . S
O352 Zn351 1.962 . S
O352 C357 1.254 . S
O353 Zn350 2.031 . S
O353 C357 1.269 . S
O354 Zn351 1.986 . S
O354 C361 1.262 . S
O355 Zn350 2.049 . S
O355 C363 1.260 . S
O356 Zn351 1.996 . S
O356 C363 1.257 . S
C357 O352 1.254 . S
C357 O353 1.269 . S
C358 O359 1.249 . S
C358 O360 1.270 . S
O359 Zn351 1.943 . S
O359 C358 1.249 . S
O360 Zn350 2.067 . S
O360 C358 1.270 . S
C361 O354 1.262 . S
C361 O362 1.232 . S
O362 C361 1.232 . S
C363 O355 1.260 . S
C363 O356 1.257 . S
Zn364 O367 2.031 . S
Zn364 O369 2.049 . S
Zn364 O374 2.067 . S
Zn365 O366 1.962 . S
Zn365 O368 1.986 . S
Zn365 O370 1.996 . S
Zn365 O373 1.943 . S
O366 Zn365 1.962 . S
O366 C371 1.254 . S
O367 Zn364 2.031 . S
O367 C371 1.269 . S
O368 Zn365 1.986 . S
O368 C375 1.262 . S
O369 Zn364 2.049 . S
O369 C377 1.260 . S
O370 Zn365 1.996 . S
O370 C377 1.257 . S
C371 O366 1.254 . S
C371 O367 1.269 . S
C372 O373 1.249 . S
C372 O374 1.270 . S
O373 Zn365 1.943 . S
O373 C372 1.249 . S
O374 Zn364 2.067 . S
O374 C372 1.270 . S
C375 O368 1.262 . S
C375 O376 1.232 . S
O376 C375 1.232 . S
C377 O369 1.260 . S
C377 O370 1.257 . S
Zn378 O381 2.031 . S
Zn378 O383 2.049 . S
Zn378 O388 2.067 1_545 S
Zn379 O380 1.962 . S
Zn379 O382 1.986 . S
Zn379 O384 1.996 . S
Zn379 O387 1.943 1_545 S
O380 Zn379 1.962 . S
O380 C385 1.254 . S
O381 Zn378 2.031 . S
O381 C385 1.269 . S
O382 Zn379 1.986 . S
O382 C389 1.262 1_545 S
O383 Zn378 2.049 . S
O383 C391 1.260 . S
O384 Zn379 1.996 . S
O384 C391 1.257 . S
C385 O380 1.254 . S
C385 O381 1.269 . S
C386 O387 1.249 . S
C386 O388 1.270 . S
O387 Zn379 1.943 1_565 S
O387 C386 1.249 . S
O388 Zn378 2.067 1_565 S
O388 C386 1.270 . S
C389 O382 1.262 1_565 S
C389 O390 1.232 1_556 S
O390 C389 1.232 1_554 S
C391 O383 1.260 . S
C391 O384 1.257 . S
Zn392 O395 2.031 . S
Zn392 O397 2.049 . S
Zn392 O402 2.067 1_655 S
Zn393 O394 1.962 . S
Zn393 O396 1.986 . S
Zn393 O398 1.996 . S
Zn393 O401 1.943 1_655 S
O394 Zn393 1.962 . S
O394 C399 1.254 . S
O395 Zn392 2.031 . S
O395 C399 1.269 . S
O396 Zn393 1.986 . S
O396 C403 1.262 1_655 S
O397 Zn392 2.049 . S
O397 C405 1.260 . S
O398 Zn393 1.996 . S
O398 C405 1.257 . S
C399 O394 1.254 . S
C399 O395 1.269 . S
C400 O401 1.249 . S
C400 O402 1.270 . S
O401 Zn393 1.943 1_455 S
O401 C400 1.249 . S
O402 Zn392 2.067 1_455 S
O402 C400 1.270 . S
C403 O396 1.262 1_455 S
C403 O404 1.232 1_556 S
O404 C403 1.232 1_554 S
C405 O397 1.260 . S
C405 O398 1.257 . S
Zn406 O409 2.031 . S
Zn406 O411 2.049 . S
Zn406 O416 2.067 . S
Zn407 O408 1.962 . S
Zn407 O410 1.986 . S
Zn407 O412 1.996 . S
Zn407 O415 1.943 . S
O408 Zn407 1.962 . S
O408 C413 1.254 . S
O409 Zn406 2.031 . S
O409 C413 1.269 . S
O410 Zn407 1.986 . S
O410 C417 1.262 . S
O411 Zn406 2.049 . S
O411 C419 1.260 . S
O412 Zn407 1.996 . S
O412 C419 1.257 . S
C413 O408 1.254 . S
C413 O409 1.269 . S
C414 O415 1.249 . S
C414 O416 1.270 . S
O415 Zn407 1.943 . S
O415 C414 1.249 . S
O416 Zn406 2.067 . S
O416 C414 1.270 . S
C417 O410 1.262 . S
C417 O418 1.232 1_556 S
O418 C417 1.232 1_554 S
C419 O411 1.260 . S
C419 O412 1.257 . S
Zn420 O423 2.031 . S
Zn420 O425 2.049 . S
Zn420 O430 2.067 1_655 S
Zn421 O422 1.962 . S
Zn421 O424 1.986 . S
Zn421 O426 1.996 . S
Zn421 O429 1.943 1_655 S
O422 Zn421 1.962 . S
O422 C427 1.254 . S
O423 Zn420 2.031 . S
O423 C427 1.269 . S
O424 Zn421 1.986 . S
O424 C431 1.262 1_655 S
O425 Zn420 2.049 . S
O425 C433 1.260 . S
O426 Zn421 1.996 . S
O426 C433 1.257 . S
C427 O422 1.254 . S
C427 O423 1.269 . S
C428 O429 1.249 . S
C428 O430 1.270 . S
O429 Zn421 1.943 1_455 S
O429 C428 1.249 . S
O430 Zn420 2.067 1_455 S
O430 C428 1.270 . S
C431 O424 1.262 1_455 S
C431 O432 1.232 . S
O432 C431 1.232 . S
C433 O425 1.260 . S
C433 O426 1.257 . S
Zn434 O437 2.031 . S
Zn434 O439 2.049 . S
Zn434 O444 2.067 . S
Zn435 O436 1.962 . S
Zn435 O438 1.986 . S
Zn435 O440 1.996 . S
Zn435 O443 1.943 . S
O436 Zn435 1.962 . S
O436 C441 1.254 . S
O437 Zn434 2.031 . S
O437 C441 1.269 . S
O438 Zn435 1.986 . S
O438 C445 1.262 . S
O439 Zn434 2.049 . S
O439 C447 1.260 . S
O440 Zn435 1.996 . S
O440 C447 1.257 . S
C441 O436 1.254 . S
C441 O437 1.269 . S
C442 O443 1.249 . S
C442 O444 1.270 . S
O443 Zn435 1.943 . S
O443 C442 1.249 . S
O444 Zn434 2.067 . S
O444 C442 1.270 . S
C445 O438 1.262 . S
C445 O446 1.232 . S
O446 C445 1.232 . S
C447 O439 1.260 . S
C447 O440 1.257 . S
Zn448 O451 2.031 . S
Zn448 O453 2.049 . S
Zn448 O458 2.067 1_545 S
Zn449 O450 1.962 . S
Zn449 O452 1.986 . S
Zn449 O454 1.996 . S
Zn449 O457 1.943 1_545 S
O450 Zn449 1.962 . S
O450 C455 1.254 . S
O451 Zn448 2.031 . S
O451 C455 1.269 . S
O452 Zn449 1.986 . S
O452 C459 1.262 1_545 S
O453 Zn448 2.049 . S
O453 C461 1.260 . S
O454 Zn449 1.996 . S
O454 C461 1.257 . S
C455 O450 1.254 . S
C455 O451 1.269 . S
C456 O457 1.249 . S
C456 O458 1.270 . S
O457 Zn449 1.943 1_565 S
O457 C456 1.249 . S
O458 Zn448 2.067 1_565 S
O458 C456 1.270 . S
C459 O452 1.262 1_565 S
C459 O460 1.232 . S
O460 C459 1.232 . S
C461 O453 1.260 . S
C461 O454 1.257 . S
Zn462 O465 2.031 . S
Zn462 O467 2.049 . S
Zn462 O472 2.067 . S
Zn463 O464 1.962 . S
Zn463 O466 1.986 . S
Zn463 O468 1.996 . S
Zn463 O471 1.943 . S
O464 Zn463 1.962 . S
O464 C469 1.254 . S
O465 Zn462 2.031 . S
O465 C469 1.269 . S
O466 Zn463 1.986 . S
O466 C473 1.262 . S
O467 Zn462 2.049 . S
O467 C475 1.260 . S
O468 Zn463 1.996 . S
O468 C475 1.257 . S
C469 O464 1.254 . S
C469 O465 1.269 . S
C470 O471 1.249 . S
C470 O472 1.270 . S
O471 Zn463 1.943 . S
O471 C470 1.249 . S
O472 Zn462 2.067 . S
O472 C470 1.270 . S
C473 O466 1.262 . S
C473 O474 1.232 . S
O474 C473 1.232 . S
C475 O467 1.260 . S
C475 O468 1.257 . S
Zn476 O479 2.031 . S
Zn476 O481 2.049 . S
Zn476 O486 2.067 . S
Zn477 O478 1.962 . S
Zn477 O480 1.986 . S
Zn477 O482 1.996 . S
Zn477 O485 1.943 . S
O478 Zn477 1.962 . S
O478 C483 1.254 . S
O479 Zn476 2.031 . S
O479 C483 1.269 . S
O480 Zn477 1.986 . S
O480 C487 1.262 . S
O481 Zn476 2.049 . S
O481 C489 1.260 . S
O482 Zn477 1.996 . S
O482 C489 1.257 . S
C483 O478 1.254 . S
C483 O479 1.269 . S
C484 O485 1.249 . S
C484 O486 1.270 . S
O485 Zn477 1.943 . S
O485 C484 1.249 . S
O486 Zn476 2.067 . S
O486 C484 1.270 . S
C487 O480 1.262 . S
C487 O488 1.232 . S
O488 C487 1.232 . S
C489 O481 1.260 . S
C489 O482 1.257 . S
Zn490 O493 2.031 . S
Zn490 O495 2.049 . S
Zn490 O500 2.067 . S
Zn491 O492 1.962 . S
Zn491 O494 1.986 . S
Zn491 O496 1.996 . S
Zn491 O499 1.943 . S
O492 Zn491 1.962 . S
O492 C497 1.254 . S
O493 Zn490 2.031 . S
O493 C497 1.269 . S
O494 Zn491 1.986 . S
O494 C501 1.262 . S
O495 Zn490 2.049 . S
O495 C503 1.260 . S
O496 Zn491 1.996 . S
O496 C503 1.257 . S
C497 O492 1.254 . S
C497 O493 1.269 . S
C498 O499 1.249 . S
C498 O500 1.270 . S
O499 Zn491 1.943 . S
O499 C498 1.249 . S
O500 Zn490 2.067 . S
O500 C498 1.270 . S
C501 O494 1.262 . S
C501 O502 1.232 . S
O502 C501 1.232 . S
C503 O495 1.260 . S
C503 O496 1.257 . S
H504 C510 0.930 . S
H505 C513 0.930 . S
H506 C514 0.897 1_545 S
H507 C515 0.930 . S
H508 C518 0.930 . S
H509 C519 0.900 1_565 S
C510 H504 0.930 . S
C510 C511 1.355 . S
C510 C512 1.415 . S
C511 C510 1.355 . S
C511 C513 1.419 . S
C512 C510 1.415 . S
C512 C517 1.425 1_565 S
C512 C519 1.399 1_565 S
C513 H505 0.930 . S
C513 C511 1.419 . S
C513 C514 1.409 . S
C514 H506 0.897 1_565 S
C514 C513 1.409 . S
C514 C517 1.397 1_565 S
C515 H507 0.930 . S
C515 C516 1.355 . S
C515 C517 1.415 . S
C516 C515 1.355 . S
C516 C518 1.419 . S
C517 C512 1.425 1_545 S
C517 C514 1.397 1_545 S
C517 C515 1.415 . S
C518 H508 0.930 . S
C518 C516 1.419 . S
C518 C519 1.404 . S
C519 H509 0.900 1_545 S
C519 C512 1.399 1_545 S
C519 C518 1.404 . S
H520 C526 0.930 . S
H521 C529 0.930 . S
H522 C530 0.930 . S
H523 C531 0.930 . S
H524 C534 0.930 . S
H525 C535 0.930 . S
C526 H520 0.930 . S
C526 C527 1.355 . S
C526 C528 1.415 . S
C527 C526 1.355 . S
C527 C529 1.419 . S
C528 C526 1.415 . S
C528 C533 1.425 1_455 S
C528 C535 1.409 1_455 S
C529 H521 0.930 . S
C529 C527 1.419 . S
C529 C530 1.362 . S
C530 H522 0.930 . S
C530 C529 1.362 . S
C530 C533 1.409 1_455 S
C531 H523 0.930 . S
C531 C532 1.355 . S
C531 C533 1.415 . S
C532 C531 1.355 . S
C532 C534 1.419 . S
C533 C528 1.425 1_655 S
C533 C530 1.409 1_655 S
C533 C531 1.415 . S
C534 H524 0.930 . S
C534 C532 1.419 . S
C534 C535 1.362 . S
C535 H525 0.930 . S
C535 C528 1.409 1_655 S
C535 C534 1.362 . S
H536 C542 0.930 . S
H537 C545 0.930 . S
H538 C546 0.930 . S
H539 C547 0.930 . S
H540 C550 0.930 . S
H541 C551 0.930 . S
C542 H536 0.930 . S
C542 C543 1.355 . S
C542 C544 1.415 . S
C543 C542 1.355 . S
C543 C545 1.419 . S
C544 C542 1.415 . S
C544 C549 1.425 . S
C544 C551 1.409 . S
C545 H537 0.930 . S
C545 C543 1.419 . S
C545 C546 1.362 . S
C546 H538 0.930 . S
C546 C545 1.362 . S
C546 C549 1.409 . S
C547 H539 0.930 . S
C547 C548 1.355 . S
C547 C549 1.415 . S
C548 C547 1.355 . S
C548 C550 1.419 . S
C549 C544 1.425 . S
C549 C546 1.409 . S
C549 C547 1.415 . S
C550 H540 0.930 . S
C550 C548 1.419 . S
C550 C551 1.362 . S
C551 H541 0.930 . S
C551 C544 1.409 . S
C551 C550 1.362 . S
H552 C558 0.930 . S
H553 C561 0.930 . S
H554 C562 0.930 . S
H555 C563 0.930 . S
H556 C566 0.930 . S
H557 C567 0.930 . S
C558 H552 0.930 . S
C558 C559 1.355 . S
C558 C560 1.415 . S
C559 C558 1.355 . S
C559 C561 1.419 . S
C560 C558 1.415 . S
C560 C565 1.425 1_565 S
C560 C567 1.409 1_565 S
C561 H553 0.930 . S
C561 C559 1.419 . S
C561 C562 1.362 . S
C562 H554 0.930 . S
C562 C561 1.362 . S
C562 C565 1.409 1_565 S
C563 H555 0.930 . S
C563 C564 1.355 . S
C563 C565 1.415 . S
C564 C563 1.355 . S
C564 C566 1.419 . S
C565 C560 1.425 1_545 S
C565 C562 1.409 1_545 S
C565 C563 1.415 . S
C566 H556 0.930 . S
C566 C564 1.419 . S
C566 C567 1.362 . S
C567 H557 0.930 . S
C567 C560 1.409 1_545 S
C567 C566 1.362 . S
H568 C574 0.930 . S
H569 C577 0.930 . S
H570 C578 0.930 . S
H571 C579 0.930 . S
H572 C582 0.930 . S
H573 C583 0.930 . S
C574 H568 0.930 . S
C574 C575 1.355 . S
C574 C576 1.415 . S
C575 C574 1.355 . S
C575 C577 1.419 . S
C576 C574 1.415 . S
C576 C581 1.425 1_455 S
C576 C583 1.409 1_455 S
C577 H569 0.930 . S
C577 C575 1.419 . S
C577 C578 1.362 . S
C578 H570 0.930 . S
C578 C577 1.362 . S
C578 C581 1.409 1_455 S
C579 H571 0.930 . S
C579 C580 1.355 . S
C579 C581 1.415 . S
C580 C579 1.355 . S
C580 C582 1.419 . S
C581 C576 1.425 1_655 S
C581 C578 1.409 1_655 S
C581 C579 1.415 . S
C582 H572 0.930 . S
C582 C580 1.419 . S
C582 C583 1.362 . S
C583 H573 0.930 . S
C583 C576 1.409 1_655 S
C583 C582 1.362 . S
H584 C590 0.930 . S
H585 C593 0.930 . S
H586 C594 0.930 . S
H587 C595 0.930 . S
H588 C598 0.930 . S
H589 C599 0.930 . S
C590 H584 0.930 . S
C590 C591 1.355 . S
C590 C592 1.415 . S
C591 C590 1.355 . S
C591 C593 1.419 . S
C592 C590 1.415 . S
C592 C597 1.425 . S
C592 C599 1.409 . S
C593 H585 0.930 . S
C593 C591 1.419 . S
C593 C594 1.362 . S
C594 H586 0.930 . S
C594 C593 1.362 . S
C594 C597 1.409 . S
C595 H587 0.930 . S
C595 C596 1.355 . S
C595 C597 1.415 . S
C596 C595 1.355 . S
C596 C598 1.419 . S
C597 C592 1.425 . S
C597 C594 1.409 . S
C597 C595 1.415 . S
C598 H588 0.930 . S
C598 C596 1.419 . S
C598 C599 1.362 . S
C599 H589 0.930 . S
C599 C592 1.409 . S
C599 C598 1.362 . S
H600 C606 0.930 . S
H601 C609 0.930 . S
H602 C610 0.930 . S
H603 C611 0.930 . S
H604 C614 0.930 . S
H605 C615 0.930 . S
C606 H600 0.930 . S
C606 C607 1.355 . S
C606 C608 1.415 . S
C607 C606 1.355 . S
C607 C609 1.419 . S
C608 C606 1.415 . S
C608 C613 1.425 . S
C608 C615 1.409 . S
C609 H601 0.930 . S
C609 C607 1.419 . S
C609 C610 1.362 . S
C610 H602 0.930 . S
C610 C609 1.362 . S
C610 C613 1.409 . S
C611 H603 0.930 . S
C611 C612 1.355 . S
C611 C613 1.415 . S
C612 C611 1.355 . S
C612 C614 1.419 . S
C613 C608 1.425 . S
C613 C610 1.409 . S
C613 C611 1.415 . S
C614 H604 0.930 . S
C614 C612 1.419 . S
C614 C615 1.362 . S
C615 H605 0.930 . S
C615 C608 1.409 . S
C615 C614 1.362 . S
H616 C622 0.930 . S
H617 C625 0.930 . S
H618 C626 0.930 . S
H619 C627 0.930 . S
H620 C630 0.930 . S
H621 C631 0.930 . S
C622 H616 0.930 . S
C622 C623 1.355 . S
C622 C624 1.415 . S
C623 C622 1.355 . S
C623 C625 1.419 . S
C624 C622 1.415 . S
C624 C629 1.425 . S
C624 C631 1.409 . S
C625 H617 0.930 . S
C625 C623 1.419 . S
C625 C626 1.362 . S
C626 H618 0.930 . S
C626 C625 1.362 . S
C626 C629 1.409 . S
C627 H619 0.930 . S
C627 C628 1.355 . S
C627 C629 1.415 . S
C628 C627 1.355 . S
C628 C630 1.419 . S
C629 C624 1.425 . S
C629 C626 1.409 . S
C629 C627 1.415 . S
C630 H620 0.930 . S
C630 C628 1.419 . S
C630 C631 1.362 . S
C631 H621 0.930 . S
C631 C624 1.409 . S
C631 C630 1.362 . S
H632 C638 0.930 . S
H633 C641 0.930 . S
H634 C642 0.930 . S
H635 C643 0.930 . S
H636 C646 0.911 1_565 S
H637 C647 0.930 . S
C638 H632 0.930 . S
C638 C639 1.355 . S
C638 C640 1.415 . S
C639 C638 1.355 . S
C639 C641 1.419 . S
C640 C638 1.415 . S
C640 C645 1.425 . S
C640 C647 1.409 . S
C641 H633 0.930 . S
C641 C639 1.419 . S
C641 C642 1.362 . S
C642 H634 0.930 . S
C642 C641 1.362 . S
C642 C645 1.409 . S
C643 H635 0.930 . S
C643 C644 1.355 . S
C643 C645 1.415 . S
C644 C643 1.355 . S
C644 C646 1.419 . S
C645 C640 1.425 . S
C645 C642 1.409 . S
C645 C643 1.415 . S
C646 H636 0.911 1_545 S
C646 C644 1.419 . S
C646 C647 1.362 . S
C647 H637 0.930 . S
C647 C640 1.409 . S
C647 C646 1.362 . S
H648 C654 0.930 . S
H649 C657 0.930 1_556 S
H650 C658 0.930 . S
H651 C659 0.930 . S
H652 C662 0.930 . S
H653 C663 0.930 . S
C654 H648 0.930 . S
C654 C655 1.355 . S
C654 C656 1.415 . S
C655 C654 1.355 . S
C655 C657 1.419 . S
C656 C654 1.415 . S
C656 C661 1.425 . S
C656 C663 1.409 . S
C657 H649 0.930 1_554 S
C657 C655 1.419 . S
C657 C658 1.362 . S
C658 H650 0.930 . S
C658 C657 1.362 . S
C658 C661 1.409 . S
C659 H651 0.930 . S
C659 C660 1.355 . S
C659 C661 1.415 . S
C660 C659 1.355 . S
C660 C662 1.419 . S
C661 C656 1.425 . S
C661 C658 1.409 . S
C661 C659 1.415 . S
C662 H652 0.930 . S
C662 C660 1.419 . S
C662 C663 1.362 . S
C663 H653 0.930 . S
C663 C656 1.409 . S
C663 C662 1.362 . S
H664 C670 0.930 . S
H665 C673 0.930 . S
H666 C674 0.930 . S
H667 C675 0.930 . S
H668 C678 0.930 . S
H669 C679 0.930 . S
C670 H664 0.930 . S
C670 C671 1.355 . S
C670 C672 1.415 . S
C671 C670 1.355 . S
C671 C673 1.419 . S
C672 C670 1.415 . S
C672 C677 1.425 . S
C672 C679 1.409 . S
C673 H665 0.930 . S
C673 C671 1.419 . S
C673 C674 1.362 . S
C674 H666 0.930 . S
C674 C673 1.362 . S
C674 C677 1.409 . S
C675 H667 0.930 . S
C675 C676 1.355 . S
C675 C677 1.415 . S
C676 C675 1.355 . S
C676 C678 1.419 . S
C677 C672 1.425 . S
C677 C674 1.409 . S
C677 C675 1.415 . S
C678 H668 0.930 . S
C678 C676 1.419 . S
C678 C679 1.362 . S
C679 H669 0.930 . S
C679 C672 1.409 . S
C679 C678 1.362 . S
H680 C686 0.930 . S
H681 C689 0.930 . S
H682 C690 0.930 . S
H683 C691 0.930 . S
H684 C694 0.930 . S
H685 C695 0.930 . S
C686 H680 0.930 . S
C686 C687 1.355 . S
C686 C688 1.415 . S
C687 C686 1.355 . S
C687 C689 1.419 . S
C688 C686 1.415 . S
C688 C693 1.425 . S
C688 C695 1.409 . S
C689 H681 0.930 . S
C689 C687 1.419 . S
C689 C690 1.362 . S
C690 H682 0.930 . S
C690 C689 1.362 . S
C690 C693 1.409 . S
C691 H683 0.930 . S
C691 C692 1.355 . S
C691 C693 1.415 . S
C692 C691 1.355 . S
C692 C694 1.419 . S
C693 C688 1.425 . S
C693 C690 1.409 . S
C693 C691 1.415 . S
C694 H684 0.930 . S
C694 C692 1.419 . S
C694 C695 1.362 . S
C695 H685 0.930 . S
C695 C688 1.409 . S
C695 C694 1.362 . S
H696 C702 0.930 . S
H697 C705 0.930 . S
H698 C706 0.930 . S
H699 C707 0.930 . S
H700 C710 0.930 . S
H701 C711 0.930 . S
C702 H696 0.930 . S
C702 C703 1.355 . S
C702 C704 1.415 . S
C703 C702 1.355 . S
C703 C705 1.419 . S
C704 C702 1.415 . S
C704 C709 1.425 . S
C704 C711 1.409 . S
C705 H697 0.930 . S
C705 C703 1.419 . S
C705 C706 1.362 . S
C706 H698 0.930 . S
C706 C705 1.362 . S
C706 C709 1.409 . S
C707 H699 0.930 . S
C707 C708 1.355 . S
C707 C709 1.415 . S
C708 C707 1.355 . S
C708 C710 1.419 . S
C709 C704 1.425 . S
C709 C706 1.409 . S
C709 C707 1.415 . S
C710 H700 0.930 . S
C710 C708 1.419 . S
C710 C711 1.362 . S
C711 H701 0.930 . S
C711 C704 1.409 . S
C711 C710 1.362 . S
H712 C718 0.930 . S
H713 C721 0.930 1_554 S
H714 C722 0.930 . S
H715 C723 0.930 . S
H716 C726 0.930 . S
H717 C727 0.930 . S
C718 H712 0.930 . S
C718 C719 1.355 . S
C718 C720 1.415 . S
C719 C718 1.355 . S
C719 C721 1.419 . S
C720 C718 1.415 . S
C720 C725 1.425 . S
C720 C727 1.409 . S
C721 H713 0.930 1_556 S
C721 C719 1.419 . S
C721 C722 1.362 . S
C722 H714 0.930 . S
C722 C721 1.362 . S
C722 C725 1.409 . S
C723 H715 0.930 . S
C723 C724 1.355 . S
C723 C725 1.415 . S
C724 C723 1.355 . S
C724 C726 1.419 . S
C725 C720 1.425 . S
C725 C722 1.409 . S
C725 C723 1.415 . S
C726 H716 0.930 . S
C726 C724 1.419 . S
C726 C727 1.362 . S
C727 H717 0.930 . S
C727 C720 1.409 . S
C727 C726 1.362 . S
H728 C734 0.930 . S
H729 C737 0.930 . S
H730 C738 0.930 . S
H731 C739 0.930 . S
H732 C742 0.930 . S
H733 C743 0.930 . S
C734 H728 0.930 . S
C734 C735 1.355 . S
C734 C736 1.415 . S
C735 C734 1.355 . S
C735 C737 1.419 . S
C736 C734 1.415 . S
C736 C741 1.425 . S
C736 C743 1.409 . S
C737 H729 0.930 . S
C737 C735 1.419 . S
C737 C738 1.362 . S
C738 H730 0.930 . S
C738 C737 1.362 . S
C738 C741 1.409 . S
C739 H731 0.930 . S
C739 C740 1.355 . S
C739 C741 1.415 . S
C740 C739 1.355 . S
C740 C742 1.419 . S
C741 C736 1.425 . S
C741 C738 1.409 . S
C741 C739 1.415 . S
C742 H732 0.930 . S
C742 C740 1.419 . S
C742 C743 1.362 . S
C743 H733 0.930 . S
C743 C736 1.409 . S
C743 C742 1.362 . S
H744 C750 0.930 . S
H745 C753 0.930 . S
H746 C754 0.930 . S
H747 C755 0.930 . S
H748 C758 0.930 1_655 S
H749 C759 0.930 . S
C750 H744 0.930 . S
C750 C751 1.355 . S
C750 C752 1.415 . S
C751 C750 1.355 . S
C751 C753 1.419 . S
C752 C750 1.415 . S
C752 C757 1.425 . S
C752 C759 1.409 . S
C753 H745 0.930 . S
C753 C751 1.419 . S
C753 C754 1.362 . S
C754 H746 0.930 . S
C754 C753 1.362 . S
C754 C757 1.409 . S
C755 H747 0.930 . S
C755 C756 1.355 . S
C755 C757 1.415 . S
C756 C755 1.355 . S
C756 C758 1.419 . S
C757 C752 1.425 . S
C757 C754 1.409 . S
C757 C755 1.415 . S
C758 H748 0.930 1_455 S
C758 C756 1.419 . S
C758 C759 1.362 . S
C759 H749 0.930 . S
C759 C752 1.409 . S
C759 C758 1.362 . S
H760 C766 0.930 . S
H761 C769 0.930 . S
H762 C770 0.930 . S
H763 C771 0.930 . S
H764 C774 0.930 . S
H765 C775 0.930 . S
C766 H760 0.930 . S
C766 C767 1.355 . S
C766 C768 1.415 . S
C767 C766 1.355 . S
C767 C769 1.419 . S
C768 C766 1.415 . S
C768 C773 1.425 . S
C768 C775 1.409 . S
C769 H761 0.930 . S
C769 C767 1.419 . S
C769 C770 1.362 . S
C770 H762 0.930 . S
C770 C769 1.362 . S
C770 C773 1.409 . S
C771 H763 0.930 . S
C771 C772 1.355 . S
C771 C773 1.415 . S
C772 C771 1.355 . S
C772 C774 1.419 . S
C773 C768 1.425 . S
C773 C770 1.409 . S
C773 C771 1.415 . S
C774 H764 0.930 . S
C774 C772 1.419 . S
C774 C775 1.362 . S
C775 H765 0.930 . S
C775 C768 1.409 . S
C775 C774 1.362 . S
H776 C782 0.930 . S
H777 C785 0.930 . S
H778 C786 0.930 . S
H779 C787 0.930 . S
H780 C790 0.957 . S
H781 C791 0.930 . S
C782 H776 0.930 . S
C782 C783 1.355 . S
C782 C784 1.415 . S
C783 C782 1.355 . S
C783 C785 1.419 . S
C784 C782 1.415 . S
C784 C789 1.425 . S
C784 C791 1.409 . S
C785 H777 0.930 . S
C785 C783 1.419 . S
C785 C786 1.362 . S
C786 H778 0.930 . S
C786 C785 1.362 . S
C786 C789 1.409 . S
C787 H779 0.930 . S
C787 C788 1.355 . S
C787 C789 1.415 . S
C788 C787 1.355 . S
C788 C790 1.419 . S
C789 C784 1.425 . S
C789 C786 1.409 . S
C789 C787 1.415 . S
C790 H780 0.957 . S
C790 C788 1.419 . S
C790 C791 1.362 . S
C791 H781 0.930 . S
C791 C784 1.409 . S
C791 C790 1.362 . S
H792 C798 0.930 . S
H793 C801 0.930 . S
H794 C802 0.930 . S
H795 C803 0.930 . S
H796 C806 0.930 . S
H797 C807 0.930 . S
C798 H792 0.930 . S
C798 C799 1.355 . S
C798 C800 1.415 . S
C799 C798 1.355 . S
C799 C801 1.419 . S
C800 C798 1.415 . S
C800 C805 1.425 . S
C800 C807 1.409 . S
C801 H793 0.930 . S
C801 C799 1.419 . S
C801 C802 1.362 . S
C802 H794 0.930 . S
C802 C801 1.362 . S
C802 C805 1.409 . S
C803 H795 0.930 . S
C803 C804 1.355 . S
C803 C805 1.415 . S
C804 C803 1.355 . S
C804 C806 1.419 . S
C805 C800 1.425 . S
C805 C802 1.409 . S
C805 C803 1.415 . S
C806 H796 0.930 . S
C806 C804 1.419 . S
C806 C807 1.362 . S
C807 H797 0.930 . S
C807 C800 1.409 . S
C807 C806 1.362 . S
H808 C814 0.930 . S
H809 C817 0.930 . S
H810 C818 0.930 . S
H811 C819 0.930 . S
H812 C822 0.930 . S
H813 C823 0.930 . S
C814 H808 0.930 . S
C814 C815 1.355 . S
C814 C816 1.415 . S
C815 C814 1.355 . S
C815 C817 1.419 . S
C816 C814 1.415 . S
C816 C821 1.425 . S
C816 C823 1.409 . S
C817 H809 0.930 . S
C817 C815 1.419 . S
C817 C818 1.362 . S
C818 H810 0.930 . S
C818 C817 1.362 . S
C818 C821 1.409 . S
C819 H811 0.930 . S
C819 C820 1.355 . S
C819 C821 1.415 . S
C820 C819 1.355 . S
C820 C822 1.419 . S
C821 C816 1.425 . S
C821 C818 1.409 . S
C821 C819 1.415 . S
C822 H812 0.930 . S
C822 C820 1.419 . S
C822 C823 1.362 . S
C823 H813 0.930 . S
C823 C816 1.409 . S
C823 C822 1.362 . S
H824 C830 0.930 . S
H825 C833 0.930 . S
H826 C834 0.930 . S
H827 C835 0.930 . S
H828 C838 0.930 . S
H829 C839 0.930 . S
C830 H824 0.930 . S
C830 C831 1.355 . S
C830 C832 1.415 . S
C831 C830 1.355 . S
C831 C833 1.419 . S
C832 C830 1.415 . S
C832 C837 1.425 . S
C832 C839 1.409 . S
C833 H825 0.930 . S
C833 C831 1.419 . S
C833 C834 1.362 . S
C834 H826 0.930 . S
C834 C833 1.362 . S
C834 C837 1.409 . S
C835 H827 0.930 . S
C835 C836 1.355 . S
C835 C837 1.415 . S
C836 C835 1.355 . S
C836 C838 1.419 . S
C837 C832 1.425 . S
C837 C834 1.409 . S
C837 C835 1.415 . S
C838 H828 0.930 . S
C838 C836 1.419 . S
C838 C839 1.362 . S
C839 H829 0.930 . S
C839 C832 1.409 . S
C839 C838 1.362 . S
H840 C846 0.930 . S
H841 C849 0.930 . S
H842 C850 0.930 . S
H843 C851 0.930 . S
H844 C854 0.930 . S
H845 C855 0.930 . S
C846 H840 0.930 . S
C846 C847 1.355 . S
C846 C848 1.415 . S
C847 C846 1.355 . S
C847 C849 1.419 . S
C848 C846 1.415 . S
C848 C853 1.425 . S
C848 C855 1.409 . S
C849 H841 0.930 . S
C849 C847 1.419 . S
C849 C850 1.362 . S
C850 H842 0.930 . S
C850 C849 1.362 . S
C850 C853 1.409 . S
C851 H843 0.930 . S
C851 C852 1.355 . S
C851 C853 1.415 . S
C852 C851 1.355 . S
C852 C854 1.419 . S
C853 C848 1.425 . S
C853 C850 1.409 . S
C853 C851 1.415 . S
C854 H844 0.930 . S
C854 C852 1.419 . S
C854 C855 1.362 . S
C855 H845 0.930 . S
C855 C848 1.409 . S
C855 C854 1.362 . S
H856 C862 0.930 . S
H857 C865 0.930 . S
H858 C866 0.930 . S
H859 C867 0.930 . S
H860 C870 0.930 . S
H861 C871 0.930 . S
C862 H856 0.930 . S
C862 C863 1.355 . S
C862 C864 1.415 . S
C863 C862 1.355 . S
C863 C865 1.419 . S
C864 C862 1.415 . S
C864 C869 1.425 . S
C864 C871 1.409 . S
C865 H857 0.930 . S
C865 C863 1.419 . S
C865 C866 1.362 . S
C866 H858 0.930 . S
C866 C865 1.362 . S
C866 C869 1.409 . S
C867 H859 0.930 . S
C867 C868 1.355 . S
C867 C869 1.415 . S
C868 C867 1.355 . S
C868 C870 1.419 . S
C869 C864 1.425 . S
C869 C866 1.409 . S
C869 C867 1.415 . S
C870 H860 0.930 . S
C870 C868 1.419 . S
C870 C871 1.362 . S
C871 H861 0.930 . S
C871 C864 1.409 . S
C871 C870 1.362 . S
H872 C878 0.930 . S
H873 C881 0.930 . S
H874 C882 0.930 . S
H875 C883 0.930 . S
H876 C886 0.930 1_556 S
H877 C887 0.930 . S
C878 H872 0.930 . S
C878 C879 1.355 . S
C878 C880 1.415 . S
C879 C878 1.355 . S
C879 C881 1.419 . S
C880 C878 1.415 . S
C880 C885 1.425 . S
C880 C887 1.409 . S
C881 H873 0.930 . S
C881 C879 1.419 . S
C881 C882 1.362 . S
C882 H874 0.930 . S
C882 C881 1.362 . S
C882 C885 1.409 . S
C883 H875 0.930 . S
C883 C884 1.355 . S
C883 C885 1.415 . S
C884 C883 1.355 . S
C884 C886 1.419 . S
C885 C880 1.425 . S
C885 C882 1.409 . S
C885 C883 1.415 . S
C886 H876 0.930 1_554 S
C886 C884 1.419 . S
C886 C887 1.362 . S
C887 H877 0.930 . S
C887 C880 1.409 . S
C887 C886 1.362 . S
H888 C894 0.930 . S
H889 C897 0.930 . S
H890 C898 0.930 . S
H891 C899 0.930 . S
H892 C902 0.930 . S
H893 C903 0.930 . S
C894 H888 0.930 . S
C894 C895 1.355 . S
C894 C896 1.415 . S
C895 C894 1.355 . S
C895 C897 1.419 . S
C896 C894 1.415 . S
C896 C901 1.425 . S
C896 C903 1.409 . S
C897 H889 0.930 . S
C897 C895 1.419 . S
C897 C898 1.362 . S
C898 H890 0.930 . S
C898 C897 1.362 . S
C898 C901 1.409 . S
C899 H891 0.930 . S
C899 C900 1.355 . S
C899 C901 1.415 . S
C900 C899 1.355 . S
C900 C902 1.419 . S
C901 C896 1.425 . S
C901 C898 1.409 . S
C901 C899 1.415 . S
C902 H892 0.930 . S
C902 C900 1.419 . S
C902 C903 1.362 . S
C903 H893 0.930 . S
C903 C896 1.409 . S
C903 C902 1.362 . S
H904 C910 0.930 . S
H905 C913 0.930 . S
H906 C914 0.930 . S
H907 C915 0.930 . S
H908 C918 0.930 . S
H909 C919 0.930 . S
C910 H904 0.930 . S
C910 C911 1.355 . S
C910 C912 1.415 . S
C911 C910 1.355 . S
C911 C913 1.419 . S
C912 C910 1.415 . S
C912 C917 1.425 . S
C912 C919 1.409 . S
C913 H905 0.930 . S
C913 C911 1.419 . S
C913 C914 1.362 . S
C914 H906 0.930 . S
C914 C913 1.362 . S
C914 C917 1.409 . S
C915 H907 0.930 . S
C915 C916 1.355 . S
C915 C917 1.415 . S
C916 C915 1.355 . S
C916 C918 1.419 . S
C917 C912 1.425 . S
C917 C914 1.409 . S
C917 C915 1.415 . S
C918 H908 0.930 . S
C918 C916 1.419 . S
C918 C919 1.362 . S
C919 H909 0.930 . S
C919 C912 1.409 . S
C919 C918 1.362 . S
H920 C926 0.930 . S
H921 C929 0.930 . S
H922 C930 0.930 . S
H923 C931 0.930 . S
H924 C934 0.930 . S
H925 C935 0.930 . S
C926 H920 0.930 . S
C926 C927 1.355 . S
C926 C928 1.415 . S
C927 C926 1.355 . S
C927 C929 1.419 . S
C928 C926 1.415 . S
C928 C933 1.425 . S
C928 C935 1.409 . S
C929 H921 0.930 . S
C929 C927 1.419 . S
C929 C930 1.362 . S
C930 H922 0.930 . S
C930 C929 1.362 . S
C930 C933 1.409 . S
C931 H923 0.930 . S
C931 C932 1.355 . S
C931 C933 1.415 . S
C932 C931 1.355 . S
C932 C934 1.419 . S
C933 C928 1.425 . S
C933 C930 1.409 . S
C933 C931 1.415 . S
C934 H924 0.930 . S
C934 C932 1.419 . S
C934 C935 1.362 . S
C935 H925 0.930 . S
C935 C928 1.409 . S
C935 C934 1.362 . S
H936 C942 0.930 . S
H937 C945 0.930 1_554 S
H938 C946 0.930 . S
H939 C947 0.930 . S
H940 C950 0.930 . S
H941 C951 0.930 . S
C942 H936 0.930 . S
C942 C943 1.355 . S
C942 C944 1.415 . S
C943 C942 1.355 . S
C943 C945 1.419 . S
C944 C942 1.415 . S
C944 C949 1.425 . S
C944 C951 1.409 . S
C945 H937 0.930 1_556 S
C945 C943 1.419 . S
C945 C946 1.362 . S
C946 H938 0.930 . S
C946 C945 1.362 . S
C946 C949 1.409 . S
C947 H939 0.930 . S
C947 C948 1.355 . S
C947 C949 1.415 . S
C948 C947 1.355 . S
C948 C950 1.419 . S
C949 C944 1.425 . S
C949 C946 1.409 . S
C949 C947 1.415 . S
C950 H940 0.930 . S
C950 C948 1.419 . S
C950 C951 1.362 . S
C951 H941 0.930 . S
C951 C944 1.409 . S
C951 C950 1.362 . S
H952 C958 0.930 . S
H953 C961 0.930 1_554 S
H954 C962 0.930 . S
H955 C963 0.930 . S
H956 C966 0.930 . S
H957 C967 0.930 . S
C958 H952 0.930 . S
C958 C959 1.355 . S
C958 C960 1.415 . S
C959 C958 1.355 . S
C959 C961 1.419 . S
C960 C958 1.415 . S
C960 C965 1.425 . S
C960 C967 1.409 . S
C961 H953 0.930 1_556 S
C961 C959 1.419 . S
C961 C962 1.362 . S
C962 H954 0.930 . S
C962 C961 1.362 . S
C962 C965 1.409 . S
C963 H955 0.930 . S
C963 C964 1.355 . S
C963 C965 1.415 . S
C964 C963 1.355 . S
C964 C966 1.419 . S
C965 C960 1.425 . S
C965 C962 1.409 . S
C965 C963 1.415 . S
C966 H956 0.930 . S
C966 C964 1.419 . S
C966 C967 1.362 . S
C967 H957 0.930 . S
C967 C960 1.409 . S
C967 C966 1.362 . S
H968 C974 0.930 . S
H969 C977 0.930 . S
H970 C978 0.930 . S
H971 C979 0.930 . S
H972 C982 0.930 1_554 S
H973 C983 0.930 . S
C974 H968 0.930 . S
C974 C975 1.355 . S
C974 C976 1.415 . S
C975 C974 1.355 . S
C975 C977 1.419 . S
C976 C974 1.415 . S
C976 C981 1.425 . S
C976 C983 1.409 . S
C977 H969 0.930 . S
C977 C975 1.419 . S
C977 C978 1.362 . S
C978 H970 0.930 . S
C978 C977 1.362 . S
C978 C981 1.409 . S
C979 H971 0.930 . S
C979 C980 1.355 . S
C979 C981 1.415 . S
C980 C979 1.355 . S
C980 C982 1.419 . S
C981 C976 1.425 . S
C981 C978 1.409 . S
C981 C979 1.415 . S
C982 H972 0.930 1_556 S
C982 C980 1.419 . S
C982 C983 1.362 . S
C983 H973 0.930 . S
C983 C976 1.409 . S
C983 C982 1.362 . S
H984 C990 0.930 . S
H985 C993 0.930 . S
H986 C994 0.930 . S
H987 C995 0.930 . S
H988 C998 0.930 . S
H989 C999 0.930 . S
C990 H984 0.930 . S
C990 C991 1.355 . S
C990 C992 1.415 . S
C991 C990 1.355 . S
C991 C993 1.419 1_455 S
C992 C990 1.415 . S
C992 C997 1.425 1_455 S
C992 C999 1.409 . S
C993 H985 0.930 . S
C993 C991 1.419 1_655 S
C993 C994 1.362 . S
C994 H986 0.930 . S
C994 C993 1.362 . S
C994 C997 1.409 . S
C995 H987 0.930 . S
C995 C996 1.355 . S
C995 C997 1.415 . S
C996 C995 1.355 . S
C996 C998 1.419 1_655 S
C997 C992 1.425 1_655 S
C997 C994 1.409 . S
C997 C995 1.415 . S
C998 H988 0.930 . S
C998 C996 1.419 1_455 S
C998 C999 1.362 . S
C999 H989 0.930 . S
C999 C992 1.409 . S
C999 C998 1.362 . S
H1000 C1006 0.930 . S
H1001 C1009 0.930 . S
H1002 C1010 0.930 . S
H1003 C1011 0.930 . S
H1004 C1014 0.930 . S
H1005 C1015 0.930 . S
C1006 H1000 0.930 . S
C1006 C1007 1.355 . S
C1006 C1008 1.415 . S
C1007 C1006 1.355 . S
C1007 C1009 1.419 . S
C1008 C1006 1.415 . S
C1008 C1013 1.425 . S
C1008 C1015 1.409 . S
C1009 H1001 0.930 . S
C1009 C1007 1.419 . S
C1009 C1010 1.362 . S
C1010 H1002 0.930 . S
C1010 C1009 1.362 . S
C1010 C1013 1.409 . S
C1011 H1003 0.930 . S
C1011 C1012 1.355 . S
C1011 C1013 1.415 . S
C1012 C1011 1.355 . S
C1012 C1014 1.419 . S
C1013 C1008 1.425 . S
C1013 C1010 1.409 . S
C1013 C1011 1.415 . S
C1014 H1004 0.930 . S
C1014 C1012 1.419 . S
C1014 C1015 1.362 . S
C1015 H1005 0.930 . S
C1015 C1008 1.409 . S
C1015 C1014 1.362 . S
H1016 C1022 0.930 . S
H1017 C1025 0.930 . S
H1018 C1026 0.930 . S
H1019 C1027 0.930 . S
H1020 C1030 0.930 . S
H1021 C1031 0.930 . S
C1022 H1016 0.930 . S
C1022 C1023 1.355 1_565 S
C1022 C1024 1.415 . S
C1023 C1022 1.355 1_545 S
C1023 C1025 1.419 . S
C1024 C1022 1.415 . S
C1024 C1029 1.425 1_565 S
C1024 C1031 1.409 . S
C1025 H1017 0.930 . S
C1025 C1023 1.419 . S
C1025 C1026 1.362 . S
C1026 H1018 0.930 . S
C1026 C1025 1.362 . S
C1026 C1029 1.409 . S
C1027 H1019 0.930 . S
C1027 C1028 1.355 1_545 S
C1027 C1029 1.415 . S
C1028 C1027 1.355 1_565 S
C1028 C1030 1.419 . S
C1029 C1024 1.425 1_545 S
C1029 C1026 1.409 . S
C1029 C1027 1.415 . S
C1030 H1020 0.930 . S
C1030 C1028 1.419 . S
C1030 C1031 1.362 . S
C1031 H1021 0.930 . S
C1031 C1024 1.409 . S
C1031 C1030 1.362 . S
H1032 C1038 0.930 . S
H1033 C1041 0.930 . S
H1034 C1042 0.930 . S
H1035 C1043 0.930 . S
H1036 C1046 0.930 . S
H1037 C1047 0.930 . S
C1038 H1032 0.930 . S
C1038 C1039 1.355 . S
C1038 C1040 1.409 1_565 S
C1039 C1038 1.355 . S
C1039 C1041 1.419 . S
C1040 C1038 1.409 1_545 S
C1040 C1045 1.440 1_545 S
C1040 C1047 1.409 . S
C1041 H1033 0.930 . S
C1041 C1039 1.419 . S
C1041 C1042 1.362 . S
C1042 H1034 0.930 . S
C1042 C1041 1.362 . S
C1042 C1045 1.410 . S
C1043 H1035 0.930 . S
C1043 C1044 1.355 . S
C1043 C1045 1.407 1_545 S
C1044 C1043 1.355 . S
C1044 C1046 1.419 . S
C1045 C1040 1.440 1_565 S
C1045 C1042 1.410 . S
C1045 C1043 1.407 1_565 S
C1046 H1036 0.930 . S
C1046 C1044 1.419 . S
C1046 C1047 1.362 . S
C1047 H1037 0.930 . S
C1047 C1040 1.409 . S
C1047 C1046 1.362 . S
H1048 C1054 0.930 . S
H1049 C1057 0.930 . S
H1050 C1058 0.930 . S
H1051 C1059 0.930 . S
H1052 C1062 0.930 . S
H1053 C1063 0.930 . S
C1054 H1048 0.930 . S
C1054 C1055 1.355 . S
C1054 C1056 1.415 . S
C1055 C1054 1.355 . S
C1055 C1057 1.419 . S
C1056 C1054 1.415 . S
C1056 C1061 1.425 1_655 S
C1056 C1063 1.409 . S
C1057 H1049 0.930 . S
C1057 C1055 1.419 . S
C1057 C1058 1.362 1_655 S
C1058 H1050 0.930 . S
C1058 C1057 1.362 1_455 S
C1058 C1061 1.409 . S
C1059 H1051 0.930 . S
C1059 C1060 1.355 . S
C1059 C1061 1.415 . S
C1060 C1059 1.355 . S
C1060 C1062 1.419 . S
C1061 C1056 1.425 1_455 S
C1061 C1058 1.409 . S
C1061 C1059 1.415 . S
C1062 H1052 0.930 . S
C1062 C1060 1.419 . S
C1062 C1063 1.362 1_455 S
C1063 H1053 0.930 . S
C1063 C1056 1.409 . S
C1063 C1062 1.362 1_655 S
H1064 C1070 0.930 . S
H1065 C1073 0.930 . S
H1066 C1074 0.930 . S
H1067 C1075 0.930 . S
H1068 C1078 0.930 . S
H1069 C1079 0.930 . S
C1070 H1064 0.930 . S
C1070 C1071 1.355 . S
C1070 C1072 1.415 . S
C1071 C1070 1.355 . S
C1071 C1073 1.419 . S
C1072 C1070 1.415 . S
C1072 C1077 1.425 . S
C1072 C1079 1.409 . S
C1073 H1065 0.930 . S
C1073 C1071 1.419 . S
C1073 C1074 1.362 . S
C1074 H1066 0.930 . S
C1074 C1073 1.362 . S
C1074 C1077 1.409 . S
C1075 H1067 0.930 . S
C1075 C1076 1.355 . S
C1075 C1077 1.415 . S
C1076 C1075 1.355 . S
C1076 C1078 1.419 . S
C1077 C1072 1.425 . S
C1077 C1074 1.409 . S
C1077 C1075 1.415 . S
C1078 H1068 0.930 . S
C1078 C1076 1.419 . S
C1078 C1079 1.362 . S
C1079 H1069 0.930 . S
C1079 C1072 1.409 . S
C1079 C1078 1.362 . S
H1080 C1086 0.930 . S
H1081 C1089 0.930 . S
H1082 C1090 0.930 . S
H1083 C1091 0.930 . S
H1084 C1094 0.930 . S
H1085 C1095 0.930 . S
C1086 H1080 0.930 . S
C1086 C1087 1.355 . S
C1086 C1088 1.415 . S
C1087 C1086 1.355 . S
C1087 C1089 1.419 . S
C1088 C1086 1.415 . S
C1088 C1093 1.425 . S
C1088 C1095 1.409 . S
C1089 H1081 0.930 . S
C1089 C1087 1.419 . S
C1089 C1090 1.362 . S
C1090 H1082 0.930 . S
C1090 C1089 1.362 . S
C1090 C1093 1.409 . S
C1091 H1083 0.930 . S
C1091 C1092 1.355 . S
C1091 C1093 1.415 . S
C1092 C1091 1.355 . S
C1092 C1094 1.419 . S
C1093 C1088 1.425 . S
C1093 C1090 1.409 . S
C1093 C1091 1.415 . S
C1094 H1084 0.930 . S
C1094 C1092 1.419 . S
C1094 C1095 1.362 . S
C1095 H1085 0.930 . S
C1095 C1088 1.409 . S
C1095 C1094 1.362 . S
H1096 C1102 0.930 . S
H1097 C1105 0.930 . S
H1098 C1106 0.930 . S
H1099 C1107 0.930 . S
H1100 C1110 0.930 . S
H1101 C1111 0.930 . S
C1102 H1096 0.930 . S
C1102 C1103 1.355 . S
C1102 C1104 1.415 . S
C1103 C1102 1.355 . S
C1103 C1105 1.419 . S
C1104 C1102 1.415 . S
C1104 C1109 1.425 . S
C1104 C1111 1.409 . S
C1105 H1097 0.930 . S
C1105 C1103 1.419 . S
C1105 C1106 1.362 . S
C1106 H1098 0.930 . S
C1106 C1105 1.362 . S
C1106 C1109 1.409 . S
C1107 H1099 0.930 . S
C1107 C1108 1.355 . S
C1107 C1109 1.415 . S
C1108 C1107 1.355 . S
C1108 C1110 1.419 . S
C1109 C1104 1.425 . S
C1109 C1106 1.409 . S
C1109 C1107 1.415 . S
C1110 H1100 0.930 . S
C1110 C1108 1.419 . S
C1110 C1111 1.362 . S
C1111 H1101 0.930 . S
C1111 C1104 1.409 . S
C1111 C1110 1.362 . S
H1112 C1118 0.930 . S
H1113 C1121 0.930 . S
H1114 C1122 0.930 . S
H1115 C1123 0.930 . S
H1116 C1126 0.930 . S
H1117 C1127 0.930 . S
C1118 H1112 0.930 . S
C1118 C1119 1.355 . S
C1118 C1120 1.415 . S
C1119 C1118 1.355 . S
C1119 C1121 1.419 . S
C1120 C1118 1.415 . S
C1120 C1125 1.425 . S
C1120 C1127 1.409 . S
C1121 H1113 0.930 . S
C1121 C1119 1.419 . S
C1121 C1122 1.362 . S
C1122 H1114 0.930 . S
C1122 C1121 1.362 . S
C1122 C1125 1.409 . S
C1123 H1115 0.930 . S
C1123 C1124 1.355 . S
C1123 C1125 1.415 . S
C1124 C1123 1.355 . S
C1124 C1126 1.419 . S
C1125 C1120 1.425 . S
C1125 C1122 1.409 . S
C1125 C1123 1.415 . S
C1126 H1116 0.930 . S
C1126 C1124 1.419 . S
C1126 C1127 1.362 . S
C1127 H1117 0.930 . S
C1127 C1120 1.409 . S
C1127 C1126 1.362 . S
H1128 C1134 0.930 . S
H1129 C1137 0.930 . S
H1130 C1138 0.930 . S
H1131 C1139 0.930 . S
H1132 C1142 0.930 . S
H1133 C1143 0.930 . S
C1134 H1128 0.930 . S
C1134 C1135 1.355 . S
C1134 C1136 1.415 . S
C1135 C1134 1.355 . S
C1135 C1137 1.419 . S
C1136 C1134 1.415 . S
C1136 C1141 1.425 . S
C1136 C1143 1.409 . S
C1137 H1129 0.930 . S
C1137 C1135 1.419 . S
C1137 C1138 1.362 . S
C1138 H1130 0.930 . S
C1138 C1137 1.362 . S
C1138 C1141 1.409 . S
C1139 H1131 0.930 . S
C1139 C1140 1.355 . S
C1139 C1141 1.415 . S
C1140 C1139 1.355 . S
C1140 C1142 1.419 . S
C1141 C1136 1.425 . S
C1141 C1138 1.409 . S
C1141 C1139 1.415 . S
C1142 H1132 0.930 . S
C1142 C1140 1.419 . S
C1142 C1143 1.362 . S
C1143 H1133 0.930 . S
C1143 C1136 1.409 . S
C1143 C1142 1.362 . S
H1144 C1150 0.930 . S
H1145 C1153 0.930 . S
H1146 C1154 0.930 . S
H1147 C1155 0.930 . S
H1148 C1158 0.930 . S
H1149 C1159 0.930 . S
C1150 H1144 0.930 . S
C1150 C1151 1.355 . S
C1150 C1152 1.415 . S
C1151 C1150 1.355 . S
C1151 C1153 1.419 . S
C1152 C1150 1.415 . S
C1152 C1157 1.425 . S
C1152 C1159 1.409 . S
C1153 H1145 0.930 . S
C1153 C1151 1.419 . S
C1153 C1154 1.362 . S
C1154 H1146 0.930 . S
C1154 C1153 1.362 . S
C1154 C1157 1.409 . S
C1155 H1147 0.930 . S
C1155 C1156 1.355 . S
C1155 C1157 1.415 . S
C1156 C1155 1.355 . S
C1156 C1158 1.419 . S
C1157 C1152 1.425 . S
C1157 C1154 1.409 . S
C1157 C1155 1.415 . S
C1158 H1148 0.930 . S
C1158 C1156 1.419 . S
C1158 C1159 1.362 . S
C1159 H1149 0.930 . S
C1159 C1152 1.409 . S
C1159 C1158 1.362 . S
H1160 C1166 0.930 . S
H1161 C1169 0.930 . S
H1162 C1170 0.930 . S
H1163 C1171 0.930 . S
H1164 C1174 0.930 . S
H1165 C1175 0.930 . S
C1166 H1160 0.930 . S
C1166 C1167 1.355 . S
C1166 C1168 1.415 . S
C1167 C1166 1.355 . S
C1167 C1169 1.419 . S
C1168 C1166 1.415 . S
C1168 C1173 1.425 . S
C1168 C1175 1.409 . S
C1169 H1161 0.930 . S
C1169 C1167 1.419 . S
C1169 C1170 1.362 . S
C1170 H1162 0.930 . S
C1170 C1169 1.362 . S
C1170 C1173 1.409 . S
C1171 H1163 0.930 . S
C1171 C1172 1.355 . S
C1171 C1173 1.415 . S
C1172 C1171 1.355 . S
C1172 C1174 1.419 . S
C1173 C1168 1.425 . S
C1173 C1170 1.409 . S
C1173 C1171 1.415 . S
C1174 H1164 0.930 . S
C1174 C1172 1.419 . S
C1174 C1175 1.362 . S
C1175 H1165 0.930 . S
C1175 C1168 1.409 . S
C1175 C1174 1.362 . S
H1176 C1182 0.930 . S
H1177 C1185 0.930 . S
H1178 C1186 0.930 . S
H1179 C1187 0.930 . S
H1180 C1190 0.930 . S
H1181 C1191 0.930 . S
C1182 H1176 0.930 . S
C1182 C1183 1.355 . S
C1182 C1184 1.415 . S
C1183 C1182 1.355 . S
C1183 C1185 1.419 . S
C1184 C1182 1.415 . S
C1184 C1189 1.425 . S
C1184 C1191 1.409 . S
C1185 H1177 0.930 . S
C1185 C1183 1.419 . S
C1185 C1186 1.362 . S
C1186 H1178 0.930 . S
C1186 C1185 1.362 . S
C1186 C1189 1.409 . S
C1187 H1179 0.930 . S
C1187 C1188 1.355 . S
C1187 C1189 1.415 . S
C1188 C1187 1.355 . S
C1188 C1190 1.419 . S
C1189 C1184 1.425 . S
C1189 C1186 1.409 . S
C1189 C1187 1.415 . S
C1190 H1180 0.930 . S
C1190 C1188 1.419 . S
C1190 C1191 1.362 . S
C1191 H1181 0.930 . S
C1191 C1184 1.409 . S
C1191 C1190 1.362 . S
H1192 C1198 0.930 . S
H1193 C1201 0.930 . S
H1194 C1202 0.930 . S
H1195 C1203 0.930 . S
H1196 C1206 0.930 . S
H1197 C1207 0.930 . S
C1198 H1192 0.930 . S
C1198 C1199 1.355 . S
C1198 C1200 1.415 . S
C1199 C1198 1.355 . S
C1199 C1201 1.419 . S
C1200 C1198 1.415 . S
C1200 C1205 1.425 . S
C1200 C1207 1.409 . S
C1201 H1193 0.930 . S
C1201 C1199 1.419 . S
C1201 C1202 1.362 . S
C1202 H1194 0.930 . S
C1202 C1201 1.362 . S
C1202 C1205 1.409 . S
C1203 H1195 0.930 . S
C1203 C1204 1.355 . S
C1203 C1205 1.415 . S
C1204 C1203 1.355 . S
C1204 C1206 1.419 . S
C1205 C1200 1.425 . S
C1205 C1202 1.409 . S
C1205 C1203 1.415 . S
C1206 H1196 0.930 . S
C1206 C1204 1.419 . S
C1206 C1207 1.362 . S
C1207 H1197 0.930 . S
C1207 C1200 1.409 . S
C1207 C1206 1.362 . S
H1208 C1214 0.930 . S
H1209 C1217 0.930 . S
H1210 C1218 0.930 . S
H1211 C1219 0.930 . S
H1212 C1222 0.930 . S
H1213 C1223 0.930 . S
C1214 H1208 0.930 . S
C1214 C1215 1.355 . S
C1214 C1216 1.415 . S
C1215 C1214 1.355 . S
C1215 C1217 1.419 . S
C1216 C1214 1.415 . S
C1216 C1221 1.425 . S
C1216 C1223 1.409 . S
C1217 H1209 0.930 . S
C1217 C1215 1.419 . S
C1217 C1218 1.362 . S
C1218 H1210 0.930 . S
C1218 C1217 1.362 . S
C1218 C1221 1.409 . S
C1219 H1211 0.930 . S
C1219 C1220 1.355 . S
C1219 C1221 1.415 . S
C1220 C1219 1.355 . S
C1220 C1222 1.419 . S
C1221 C1216 1.425 . S
C1221 C1218 1.409 . S
C1221 C1219 1.415 . S
C1222 H1212 0.930 . S
C1222 C1220 1.419 . S
C1222 C1223 1.362 . S
C1223 H1213 0.930 . S
C1223 C1216 1.409 . S
C1223 C1222 1.362 . S
H1224 C1230 0.930 . S
H1225 C1233 0.930 . S
H1226 C1234 0.930 . S
H1227 C1235 0.930 . S
H1228 C1238 0.930 . S
H1229 C1239 0.930 . S
C1230 H1224 0.930 . S
C1230 C1231 1.355 . S
C1230 C1232 1.415 . S
C1231 C1230 1.355 . S
C1231 C1233 1.419 . S
C1232 C1230 1.415 . S
C1232 C1237 1.425 . S
C1232 C1239 1.409 . S
C1233 H1225 0.930 . S
C1233 C1231 1.419 . S
C1233 C1234 1.362 . S
C1234 H1226 0.930 . S
C1234 C1233 1.362 . S
C1234 C1237 1.409 . S
C1235 H1227 0.930 . S
C1235 C1236 1.355 . S
C1235 C1237 1.415 . S
C1236 C1235 1.355 . S
C1236 C1238 1.419 . S
C1237 C1232 1.425 . S
C1237 C1234 1.409 . S
C1237 C1235 1.415 . S
C1238 H1228 0.930 . S
C1238 C1236 1.419 . S
C1238 C1239 1.362 . S
C1239 H1229 0.930 . S
C1239 C1232 1.409 . S
C1239 C1238 1.362 . S
H1240 C1246 0.930 . S
H1241 C1249 0.930 . S
H1242 C1250 0.930 . S
H1243 C1251 0.930 . S
H1244 C1254 0.930 . S
H1245 C1255 0.930 . S
C1246 H1240 0.930 . S
C1246 C1247 1.355 . S
C1246 C1248 1.415 . S
C1247 C1246 1.355 . S
C1247 C1249 1.419 . S
C1248 C1246 1.415 . S
C1248 C1253 1.425 . S
C1248 C1255 1.409 . S
C1249 H1241 0.930 . S
C1249 C1247 1.419 . S
C1249 C1250 1.362 . S
C1250 H1242 0.930 . S
C1250 C1249 1.362 . S
C1250 C1253 1.409 . S
C1251 H1243 0.930 . S
C1251 C1252 1.355 . S
C1251 C1253 1.415 . S
C1252 C1251 1.355 . S
C1252 C1254 1.419 . S
C1253 C1248 1.425 . S
C1253 C1250 1.409 . S
C1253 C1251 1.415 . S
C1254 H1244 0.930 . S
C1254 C1252 1.419 . S
C1254 C1255 1.362 . S
C1255 H1245 0.930 . S
C1255 C1248 1.409 . S
C1255 C1254 1.362 . S
H1256 C1262 0.930 . S
H1257 C1265 0.930 . S
H1258 C1266 0.930 . S
H1259 C1267 0.930 . S
H1260 C1270 0.930 . S
H1261 C1271 0.930 . S
C1262 H1256 0.930 . S
C1262 C1263 1.355 . S
C1262 C1264 1.415 . S
C1263 C1262 1.355 . S
C1263 C1265 1.419 . S
C1264 C1262 1.415 . S
C1264 C1269 1.425 . S
C1264 C1271 1.409 . S
C1265 H1257 0.930 . S
C1265 C1263 1.419 . S
C1265 C1266 1.362 . S
C1266 H1258 0.930 . S
C1266 C1265 1.362 . S
C1266 C1269 1.409 . S
C1267 H1259 0.930 . S
C1267 C1268 1.355 . S
C1267 C1269 1.415 . S
C1268 C1267 1.355 . S
C1268 C1270 1.419 . S
C1269 C1264 1.425 . S
C1269 C1266 1.409 . S
C1269 C1267 1.415 . S
C1270 H1260 0.930 . S
C1270 C1268 1.419 . S
C1270 C1271 1.362 . S
C1271 H1261 0.930 . S
C1271 C1264 1.409 . S
C1271 C1270 1.362 . S
H1272 C1278 0.930 . S
H1273 C1281 0.930 . S
H1274 C1282 0.930 . S
H1275 C1283 0.930 . S
H1276 C1286 0.930 . S
H1277 C1287 0.930 . S
C1278 H1272 0.930 . S
C1278 C1279 1.355 . S
C1278 C1280 1.415 . S
C1279 C1278 1.355 . S
C1279 C1281 1.419 1_655 S
C1280 C1278 1.415 . S
C1280 C1285 1.425 1_655 S
C1280 C1287 1.409 . S
C1281 H1273 0.930 . S
C1281 C1279 1.419 1_455 S
C1281 C1282 1.362 . S
C1282 H1274 0.930 . S
C1282 C1281 1.362 . S
C1282 C1285 1.409 . S
C1283 H1275 0.930 . S
C1283 C1284 1.355 . S
C1283 C1285 1.415 . S
C1284 C1283 1.355 . S
C1284 C1286 1.419 1_455 S
C1285 C1280 1.425 1_455 S
C1285 C1282 1.409 . S
C1285 C1283 1.415 . S
C1286 H1276 0.930 . S
C1286 C1284 1.419 1_655 S
C1286 C1287 1.362 . S
C1287 H1277 0.930 . S
C1287 C1280 1.409 . S
C1287 C1286 1.362 . S
H1288 C1294 0.930 . S
H1289 C1297 0.930 . S
H1290 C1298 0.930 . S
H1291 C1299 0.930 . S
H1292 C1302 0.930 . S
H1293 C1303 0.930 . S
C1294 H1288 0.930 . S
C1294 C1295 1.355 . S
C1294 C1296 1.415 . S
C1295 C1294 1.355 . S
C1295 C1297 1.419 . S
C1296 C1294 1.415 . S
C1296 C1301 1.425 . S
C1296 C1303 1.409 . S
C1297 H1289 0.930 . S
C1297 C1295 1.419 . S
C1297 C1298 1.362 . S
C1298 H1290 0.930 . S
C1298 C1297 1.362 . S
C1298 C1301 1.409 . S
C1299 H1291 0.930 . S
C1299 C1300 1.355 . S
C1299 C1301 1.415 . S
C1300 C1299 1.355 . S
C1300 C1302 1.419 . S
C1301 C1296 1.425 . S
C1301 C1298 1.409 . S
C1301 C1299 1.415 . S
C1302 H1292 0.930 . S
C1302 C1300 1.419 . S
C1302 C1303 1.362 . S
C1303 H1293 0.930 . S
C1303 C1296 1.409 . S
C1303 C1302 1.362 . S
H1304 C1310 0.930 . S
H1305 C1313 0.930 . S
H1306 C1314 0.930 . S
H1307 C1315 0.930 . S
H1308 C1318 0.930 . S
H1309 C1319 0.930 . S
C1310 H1304 0.930 . S
C1310 C1311 1.355 . S
C1310 C1312 1.415 . S
C1311 C1310 1.355 . S
C1311 C1313 1.419 1_565 S
C1312 C1310 1.415 . S
C1312 C1317 1.425 1_565 S
C1312 C1319 1.409 . S
C1313 H1305 0.930 . S
C1313 C1311 1.419 1_545 S
C1313 C1314 1.362 . S
C1314 H1306 0.930 . S
C1314 C1313 1.362 . S
C1314 C1317 1.409 . S
C1315 H1307 0.930 . S
C1315 C1316 1.355 . S
C1315 C1317 1.415 . S
C1316 C1315 1.355 . S
C1316 C1318 1.419 1_545 S
C1317 C1312 1.425 1_545 S
C1317 C1314 1.409 . S
C1317 C1315 1.415 . S
C1318 H1308 0.930 . S
C1318 C1316 1.419 1_565 S
C1318 C1319 1.362 . S
C1319 H1309 0.930 . S
C1319 C1312 1.409 . S
C1319 C1318 1.362 . S
H1320 C1326 0.930 . S
H1321 C1329 0.930 . S
H1322 C1330 0.930 . S
H1323 C1331 0.930 . S
H1324 C1334 0.930 . S
H1325 C1335 0.930 . S
C1326 H1320 0.930 . S
C1326 C1327 1.355 1_554 S
C1326 C1328 1.415 . S
C1327 C1326 1.355 1_556 S
C1327 C1329 1.419 1_565 S
C1328 C1326 1.415 . S
C1328 C1333 1.425 1_564 S
C1328 C1335 1.409 . S
C1329 H1321 0.930 . S
C1329 C1327 1.419 1_545 S
C1329 C1330 1.362 . S
C1330 H1322 0.930 . S
C1330 C1329 1.362 . S
C1330 C1333 1.409 . S
C1331 H1323 0.930 . S
C1331 C1332 1.355 1_556 S
C1331 C1333 1.415 . S
C1332 C1331 1.355 1_554 S
C1332 C1334 1.419 1_545 S
C1333 C1328 1.425 1_546 S
C1333 C1330 1.409 . S
C1333 C1331 1.415 . S
C1334 H1324 0.930 . S
C1334 C1332 1.419 1_565 S
C1334 C1335 1.362 . S
C1335 H1325 0.930 . S
C1335 C1328 1.409 . S
C1335 C1334 1.362 . S
H1336 C1342 0.933 . S
H1337 C1345 0.930 . S
H1338 C1346 0.930 . S
H1339 C1347 0.933 . S
H1340 C1350 0.930 . S
H1341 C1351 0.930 . S
C1342 H1336 0.933 . S
C1342 C1343 1.351 1_456 S
C1342 C1344 1.416 . S
C1343 C1342 1.351 1_654 S
C1343 C1345 1.419 . S
C1344 C1342 1.416 . S
C1344 C1349 1.425 1_456 S
C1344 C1351 1.409 . S
C1345 H1337 0.930 . S
C1345 C1343 1.419 . S
C1345 C1346 1.362 . S
C1346 H1338 0.930 . S
C1346 C1345 1.362 . S
C1346 C1349 1.409 . S
C1347 H1339 0.933 . S
C1347 C1348 1.351 1_654 S
C1347 C1349 1.416 . S
C1348 C1347 1.351 1_456 S
C1348 C1350 1.419 . S
C1349 C1344 1.425 1_654 S
C1349 C1346 1.409 . S
C1349 C1347 1.416 . S
C1350 H1340 0.930 . S
C1350 C1348 1.419 . S
C1350 C1351 1.362 . S
C1351 H1341 0.930 . S
C1351 C1344 1.409 . S
C1351 C1350 1.362 . S
H1352 C1358 0.930 . S
H1353 C1361 0.930 . S
H1354 C1362 0.930 . S
H1355 C1363 0.930 . S
H1356 C1366 0.930 . S
H1357 C1367 0.930 . S
C1358 H1352 0.930 . S
C1358 C1359 1.355 . S
C1358 C1360 1.415 . S
C1359 C1358 1.355 . S
C1359 C1361 1.419 1_554 S
C1360 C1358 1.415 . S
C1360 C1365 1.425 1_554 S
C1360 C1367 1.409 . S
C1361 H1353 0.930 . S
C1361 C1359 1.419 1_556 S
C1361 C1362 1.362 . S
C1362 H1354 0.930 . S
C1362 C1361 1.362 . S
C1362 C1365 1.409 . S
C1363 H1355 0.930 . S
C1363 C1364 1.355 . S
C1363 C1365 1.415 . S
C1364 C1363 1.355 . S
C1364 C1366 1.419 1_556 S
C1365 C1360 1.425 1_556 S
C1365 C1362 1.409 . S
C1365 C1363 1.415 . S
C1366 H1356 0.930 . S
C1366 C1364 1.419 1_554 S
C1366 C1367 1.362 . S
C1367 H1357 0.930 . S
C1367 C1360 1.409 . S
C1367 C1366 1.362 . S
H1368 C1374 0.930 . S
H1369 C1377 0.930 1_556 S
H1370 C1378 0.930 . S
H1371 C1379 0.930 . S
H1372 C1382 0.930 . S
H1373 C1383 0.930 . S
C1374 H1368 0.930 . S
C1374 C1375 1.355 . S
C1374 C1376 1.415 . S
C1375 C1374 1.355 . S
C1375 C1377 1.419 . S
C1376 C1374 1.415 . S
C1376 C1381 1.425 . S
C1376 C1383 1.409 . S
C1377 H1369 0.930 1_554 S
C1377 C1375 1.419 . S
C1377 C1378 1.362 . S
C1378 H1370 0.930 . S
C1378 C1377 1.362 . S
C1378 C1381 1.409 . S
C1379 H1371 0.930 . S
C1379 C1380 1.355 . S
C1379 C1381 1.415 . S
C1380 C1379 1.355 . S
C1380 C1382 1.419 . S
C1381 C1376 1.425 . S
C1381 C1378 1.409 . S
C1381 C1379 1.415 . S
C1382 H1372 0.930 . S
C1382 C1380 1.419 . S
C1382 C1383 1.362 . S
C1383 H1373 0.930 . S
C1383 C1376 1.409 . S
C1383 C1382 1.362 . S
H1384 C1390 0.930 . S
H1385 C1393 0.930 . S
H1386 C1394 0.930 . S
H1387 C1395 0.930 . S
H1388 C1398 0.930 1_556 S
H1389 C1399 0.930 . S
C1390 H1384 0.930 . S
C1390 C1391 1.355 . S
C1390 C1392 1.415 . S
C1391 C1390 1.355 . S
C1391 C1393 1.419 . S
C1392 C1390 1.415 . S
C1392 C1397 1.425 . S
C1392 C1399 1.409 . S
C1393 H1385 0.930 . S
C1393 C1391 1.419 . S
C1393 C1394 1.362 . S
C1394 H1386 0.930 . S
C1394 C1393 1.362 . S
C1394 C1397 1.409 . S
C1395 H1387 0.930 . S
C1395 C1396 1.355 . S
C1395 C1397 1.415 . S
C1396 C1395 1.355 . S
C1396 C1398 1.419 . S
C1397 C1392 1.425 . S
C1397 C1394 1.409 . S
C1397 C1395 1.415 . S
C1398 H1388 0.930 1_554 S
C1398 C1396 1.419 . S
C1398 C1399 1.362 . S
C1399 H1389 0.930 . S
C1399 C1392 1.409 . S
C1399 C1398 1.362 . S
H1400 C1406 0.930 . S
H1401 C1409 0.930 . S
H1402 C1410 0.930 . S
H1403 C1411 0.930 . S
H1404 C1414 0.930 . S
H1405 C1415 0.930 . S
C1406 H1400 0.930 . S
C1406 C1407 1.355 . S
C1406 C1408 1.415 . S
C1407 C1406 1.355 . S
C1407 C1409 1.419 . S
C1408 C1406 1.415 . S
C1408 C1413 1.425 . S
C1408 C1415 1.409 . S
C1409 H1401 0.930 . S
C1409 C1407 1.419 . S
C1409 C1410 1.362 . S
C1410 H1402 0.930 . S
C1410 C1409 1.362 . S
C1410 C1413 1.409 . S
C1411 H1403 0.930 . S
C1411 C1412 1.355 . S
C1411 C1413 1.415 . S
C1412 C1411 1.355 . S
C1412 C1414 1.419 . S
C1413 C1408 1.425 . S
C1413 C1410 1.409 . S
C1413 C1411 1.415 . S
C1414 H1404 0.930 . S
C1414 C1412 1.419 . S
C1414 C1415 1.362 . S
C1415 H1405 0.930 . S
C1415 C1408 1.409 . S
C1415 C1414 1.362 . S
H1416 C1422 0.930 . S
H1417 C1425 0.930 . S
H1418 C1426 0.930 . S
H1419 C1427 0.930 . S
H1420 C1430 0.930 . S
H1421 C1431 0.930 . S
C1422 H1416 0.930 . S
C1422 C1423 1.355 . S
C1422 C1424 1.415 . S
C1423 C1422 1.355 . S
C1423 C1425 1.419 . S
C1424 C1422 1.415 . S
C1424 C1429 1.425 . S
C1424 C1431 1.409 . S
C1425 H1417 0.930 . S
C1425 C1423 1.419 . S
C1425 C1426 1.362 . S
C1426 H1418 0.930 . S
C1426 C1425 1.362 . S
C1426 C1429 1.409 . S
C1427 H1419 0.930 . S
C1427 C1428 1.355 . S
C1427 C1429 1.415 . S
C1428 C1427 1.355 . S
C1428 C1430 1.419 . S
C1429 C1424 1.425 . S
C1429 C1426 1.409 . S
C1429 C1427 1.415 . S
C1430 H1420 0.930 . S
C1430 C1428 1.419 . S
C1430 C1431 1.362 . S
C1431 H1421 0.930 . S
C1431 C1424 1.409 . S
C1431 C1430 1.362 . S
H1432 C1438 0.930 . S
H1433 C1441 0.930 . S
H1434 C1442 0.930 . S
H1435 C1443 0.930 . S
H1436 C1446 0.930 . S
H1437 C1447 0.930 . S
C1438 H1432 0.930 . S
C1438 C1439 1.355 . S
C1438 C1440 1.415 . S
C1439 C1438 1.355 . S
C1439 C1441 1.419 . S
C1440 C1438 1.415 . S
C1440 C1445 1.425 . S
C1440 C1447 1.409 . S
C1441 H1433 0.930 . S
C1441 C1439 1.419 . S
C1441 C1442 1.362 . S
C1442 H1434 0.930 . S
C1442 C1441 1.362 . S
C1442 C1445 1.409 . S
C1443 H1435 0.930 . S
C1443 C1444 1.355 . S
C1443 C1445 1.415 . S
C1444 C1443 1.355 . S
C1444 C1446 1.419 . S
C1445 C1440 1.425 . S
C1445 C1442 1.409 . S
C1445 C1443 1.415 . S
C1446 H1436 0.930 . S
C1446 C1444 1.419 . S
C1446 C1447 1.362 . S
C1447 H1437 0.930 . S
C1447 C1440 1.409 . S
C1447 C1446 1.362 . S
H1448 C1454 0.930 . S
H1449 C1457 0.930 . S
H1450 C1458 0.930 . S
H1451 C1459 0.930 . S
H1452 C1462 0.930 . S
H1453 C1463 0.930 . S
C1454 H1448 0.930 . S
C1454 C1455 1.355 . S
C1454 C1456 1.415 . S
C1455 C1454 1.355 . S
C1455 C1457 1.419 . S
C1456 C1454 1.415 . S
C1456 C1461 1.425 . S
C1456 C1463 1.409 . S
C1457 H1449 0.930 . S
C1457 C1455 1.419 . S
C1457 C1458 1.362 . S
C1458 H1450 0.930 . S
C1458 C1457 1.362 . S
C1458 C1461 1.409 . S
C1459 H1451 0.930 . S
C1459 C1460 1.355 . S
C1459 C1461 1.415 . S
C1460 C1459 1.355 . S
C1460 C1462 1.419 . S
C1461 C1456 1.425 . S
C1461 C1458 1.409 . S
C1461 C1459 1.415 . S
C1462 H1452 0.930 . S
C1462 C1460 1.419 . S
C1462 C1463 1.362 . S
C1463 H1453 0.930 . S
C1463 C1456 1.409 . S
C1463 C1462 1.362 . S
H1464 C1470 0.930 . S
H1465 C1473 0.930 . S
H1466 C1474 0.930 . S
H1467 C1475 0.930 . S
H1468 C1478 0.930 1_554 S
H1469 C1479 0.930 . S
C1470 H1464 0.930 . S
C1470 C1471 1.355 . S
C1470 C1472 1.415 . S
C1471 C1470 1.355 . S
C1471 C1473 1.419 . S
C1472 C1470 1.415 . S
C1472 C1477 1.425 . S
C1472 C1479 1.409 . S
C1473 H1465 0.930 . S
C1473 C1471 1.419 . S
C1473 C1474 1.362 . S
C1474 H1466 0.930 . S
C1474 C1473 1.362 . S
C1474 C1477 1.409 . S
C1475 H1467 0.930 . S
C1475 C1476 1.355 . S
C1475 C1477 1.415 . S
C1476 C1475 1.355 . S
C1476 C1478 1.419 . S
C1477 C1472 1.425 . S
C1477 C1474 1.409 . S
C1477 C1475 1.415 . S
C1478 H1468 0.930 1_556 S
C1478 C1476 1.419 . S
C1478 C1479 1.362 . S
C1479 H1469 0.930 . S
C1479 C1472 1.409 . S
C1479 C1478 1.362 . S
H1480 C1486 0.930 . S
H1481 C1489 0.930 1_554 S
H1482 C1490 0.930 . S
H1483 C1491 0.930 . S
H1484 C1494 0.930 . S
H1485 C1495 0.930 . S
C1486 H1480 0.930 . S
C1486 C1487 1.355 . S
C1486 C1488 1.415 . S
C1487 C1486 1.355 . S
C1487 C1489 1.419 . S
C1488 C1486 1.415 . S
C1488 C1493 1.425 . S
C1488 C1495 1.409 . S
C1489 H1481 0.930 1_556 S
C1489 C1487 1.419 . S
C1489 C1490 1.362 . S
C1490 H1482 0.930 . S
C1490 C1489 1.362 . S
C1490 C1493 1.409 . S
C1491 H1483 0.930 . S
C1491 C1492 1.355 . S
C1491 C1493 1.415 . S
C1492 C1491 1.355 . S
C1492 C1494 1.419 . S
C1493 C1488 1.425 . S
C1493 C1490 1.409 . S
C1493 C1491 1.415 . S
C1494 H1484 0.930 . S
C1494 C1492 1.419 . S
C1494 C1495 1.362 . S
C1495 H1485 0.930 . S
C1495 C1488 1.409 . S
C1495 C1494 1.362 . S
H1496 C1502 0.930 . S
H1497 C1505 0.930 . S
H1498 C1506 0.930 . S
H1499 C1507 0.930 . S
H1500 C1510 0.930 . S
H1501 C1511 0.930 . S
C1502 H1496 0.930 . S
C1502 C1503 1.355 . S
C1502 C1504 1.415 . S
C1503 C1502 1.355 . S
C1503 C1505 1.419 . S
C1504 C1502 1.415 . S
C1504 C1509 1.425 . S
C1504 C1511 1.409 . S
C1505 H1497 0.930 . S
C1505 C1503 1.419 . S
C1505 C1506 1.362 . S
C1506 H1498 0.930 . S
C1506 C1505 1.362 . S
C1506 C1509 1.409 . S
C1507 H1499 0.930 . S
C1507 C1508 1.355 . S
C1507 C1509 1.415 . S
C1508 C1507 1.355 . S
C1508 C1510 1.419 . S
C1509 C1504 1.425 . S
C1509 C1506 1.409 . S
C1509 C1507 1.415 . S
C1510 H1500 0.930 . S
C1510 C1508 1.419 . S
C1510 C1511 1.362 . S
C1511 H1501 0.930 . S
C1511 C1504 1.409 . S
C1511 C1510 1.362 . S
H1512 C1518 0.930 . S
H1513 C1521 0.930 . S
H1514 C1522 0.930 . S
H1515 C1523 0.930 . S
H1516 C1526 0.930 . S
H1517 C1527 0.930 . S
C1518 H1512 0.930 . S
C1518 C1519 1.355 . S
C1518 C1520 1.415 . S
C1519 C1518 1.355 . S
C1519 C1521 1.419 . S
C1520 C1518 1.415 . S
C1520 C1525 1.425 . S
C1520 C1527 1.409 . S
C1521 H1513 0.930 . S
C1521 C1519 1.419 . S
C1521 C1522 1.362 . S
C1522 H1514 0.930 . S
C1522 C1521 1.362 . S
C1522 C1525 1.409 . S
C1523 H1515 0.930 . S
C1523 C1524 1.355 . S
C1523 C1525 1.415 . S
C1524 C1523 1.355 . S
C1524 C1526 1.419 . S
C1525 C1520 1.425 . S
C1525 C1522 1.409 . S
C1525 C1523 1.415 . S
C1526 H1516 0.930 . S
C1526 C1524 1.419 . S
C1526 C1527 1.362 . S
C1527 H1517 0.930 . S
C1527 C1520 1.409 . S
C1527 C1526 1.362 . S
H1528 C1534 0.930 . S
H1529 C1537 0.930 . S
H1530 C1538 0.930 . S
H1531 C1539 0.930 . S
H1532 C1542 0.930 . S
H1533 C1543 0.930 . S
C1534 H1528 0.930 . S
C1534 C1535 1.355 . S
C1534 C1536 1.415 . S
C1535 C1534 1.355 . S
C1535 C1537 1.419 . S
C1536 C1534 1.415 . S
C1536 C1541 1.425 . S
C1536 C1543 1.409 . S
C1537 H1529 0.930 . S
C1537 C1535 1.419 . S
C1537 C1538 1.362 . S
C1538 H1530 0.930 . S
C1538 C1537 1.362 . S
C1538 C1541 1.409 . S
C1539 H1531 0.930 . S
C1539 C1540 1.355 . S
C1539 C1541 1.415 . S
C1540 C1539 1.355 . S
C1540 C1542 1.419 . S
C1541 C1536 1.425 . S
C1541 C1538 1.409 . S
C1541 C1539 1.415 . S
C1542 H1532 0.930 . S
C1542 C1540 1.419 . S
C1542 C1543 1.362 . S
C1543 H1533 0.930 . S
C1543 C1536 1.409 . S
C1543 C1542 1.362 . S
H1544 C1550 0.930 . S
H1545 C1553 0.930 . S
H1546 C1554 0.930 . S
H1547 C1555 0.930 . S
H1548 C1558 0.930 . S
H1549 C1559 0.930 . S
C1550 H1544 0.930 . S
C1550 C1551 1.355 . S
C1550 C1552 1.415 . S
C1551 C1550 1.355 . S
C1551 C1553 1.419 . S
C1552 C1550 1.415 . S
C1552 C1557 1.425 . S
C1552 C1559 1.409 . S
C1553 H1545 0.930 . S
C1553 C1551 1.419 . S
C1553 C1554 1.362 . S
C1554 H1546 0.930 . S
C1554 C1553 1.362 . S
C1554 C1557 1.409 . S
C1555 H1547 0.930 . S
C1555 C1556 1.355 . S
C1555 C1557 1.415 . S
C1556 C1555 1.355 . S
C1556 C1558 1.419 . S
C1557 C1552 1.425 . S
C1557 C1554 1.409 . S
C1557 C1555 1.415 . S
C1558 H1548 0.930 . S
C1558 C1556 1.419 . S
C1558 C1559 1.362 . S
C1559 H1549 0.930 . S
C1559 C1552 1.409 . S
C1559 C1558 1.362 . S
H1560 C1566 0.930 . S
H1561 C1569 0.930 . S
H1562 C1570 0.930 . S
H1563 C1571 0.930 . S
H1564 C1574 0.930 . S
H1565 C1575 0.930 . S
C1566 H1560 0.930 . S
C1566 C1567 1.355 . S
C1566 C1568 1.415 . S
C1567 C1566 1.355 . S
C1567 C1569 1.419 . S
C1568 C1566 1.415 . S
C1568 C1573 1.425 . S
C1568 C1575 1.409 . S
C1569 H1561 0.930 . S
C1569 C1567 1.419 . S
C1569 C1570 1.362 . S
C1570 H1562 0.930 . S
C1570 C1569 1.362 . S
C1570 C1573 1.409 . S
C1571 H1563 0.930 . S
C1571 C1572 1.355 . S
C1571 C1573 1.415 . S
C1572 C1571 1.355 . S
C1572 C1574 1.419 . S
C1573 C1568 1.425 . S
C1573 C1570 1.409 . S
C1573 C1571 1.415 . S
C1574 H1564 0.930 . S
C1574 C1572 1.419 . S
C1574 C1575 1.362 . S
C1575 H1565 0.930 . S
C1575 C1568 1.409 . S
C1575 C1574 1.362 . S
H1576 C1582 0.930 . S
H1577 C1585 0.930 . S
H1578 C1586 0.930 . S
H1579 C1587 0.930 . S
H1580 C1590 0.930 . S
H1581 C1591 0.930 . S
C1582 H1576 0.930 . S
C1582 C1583 1.355 . S
C1582 C1584 1.415 1_545 S
C1583 C1582 1.355 . S
C1583 C1585 1.419 . S
C1584 C1582 1.415 1_565 S
C1584 C1589 1.425 1_565 S
C1584 C1591 1.409 . S
C1585 H1577 0.930 . S
C1585 C1583 1.419 . S
C1585 C1586 1.362 . S
C1586 H1578 0.930 . S
C1586 C1585 1.362 . S
C1586 C1589 1.409 . S
C1587 H1579 0.930 . S
C1587 C1588 1.355 . S
C1587 C1589 1.415 1_565 S
C1588 C1587 1.355 . S
C1588 C1590 1.419 . S
C1589 C1584 1.425 1_545 S
C1589 C1586 1.409 . S
C1589 C1587 1.415 1_545 S
C1590 H1580 0.930 . S
C1590 C1588 1.419 . S
C1590 C1591 1.362 . S
C1591 H1581 0.930 . S
C1591 C1584 1.409 . S
C1591 C1590 1.362 . S
H1592 C1598 0.930 . S
H1593 C1601 0.930 . S
H1594 C1602 0.930 . S
H1595 C1603 0.930 . S
H1596 C1606 0.930 . S
H1597 C1607 0.930 . S
C1598 H1592 0.930 . S
C1598 C1599 1.355 . S
C1598 C1600 1.415 1_655 S
C1599 C1598 1.355 . S
C1599 C1601 1.419 . S
C1600 C1598 1.415 1_455 S
C1600 C1605 1.445 1_455 S
C1600 C1607 1.409 . S
C1601 H1593 0.930 . S
C1601 C1599 1.419 . S
C1601 C1602 1.362 . S
C1602 H1594 0.930 . S
C1602 C1601 1.362 . S
C1602 C1605 1.422 . S
C1603 H1595 0.930 . S
C1603 C1604 1.355 . S
C1603 C1605 1.385 1_455 S
C1604 C1603 1.355 . S
C1604 C1606 1.419 . S
C1605 C1600 1.445 1_655 S
C1605 C1602 1.422 . S
C1605 C1603 1.385 1_655 S
C1606 H1596 0.930 . S
C1606 C1604 1.419 . S
C1606 C1607 1.362 . S
C1607 H1597 0.930 . S
C1607 C1600 1.409 . S
C1607 C1606 1.362 . S
H1608 C1614 0.930 . S
H1609 C1617 0.930 . S
H1610 C1618 0.930 . S
H1611 C1619 0.930 . S
H1612 C1622 0.930 . S
H1613 C1623 0.930 . S
C1614 H1608 0.930 . S
C1614 C1615 1.355 . S
C1614 C1616 1.415 . S
C1615 C1614 1.355 . S
C1615 C1617 1.419 . S
C1616 C1614 1.415 . S
C1616 C1621 1.425 . S
C1616 C1623 1.409 . S
C1617 H1609 0.930 . S
C1617 C1615 1.419 . S
C1617 C1618 1.362 . S
C1618 H1610 0.930 . S
C1618 C1617 1.362 . S
C1618 C1621 1.409 . S
C1619 H1611 0.930 . S
C1619 C1620 1.355 . S
C1619 C1621 1.415 . S
C1620 C1619 1.355 . S
C1620 C1622 1.419 . S
C1621 C1616 1.425 . S
C1621 C1618 1.409 . S
C1621 C1619 1.415 . S
C1622 H1612 0.930 . S
C1622 C1620 1.419 . S
C1622 C1623 1.362 . S
C1623 H1613 0.930 . S
C1623 C1616 1.409 . S
C1623 C1622 1.362 . S
H1624 C1630 0.930 . S
H1625 C1633 0.930 . S
H1626 C1634 0.930 . S
H1627 C1635 0.930 . S
H1628 C1638 0.930 . S
H1629 C1639 0.930 . S
C1630 H1624 0.930 . S
C1630 C1631 1.355 . S
C1630 C1632 1.415 . S
C1631 C1630 1.355 . S
C1631 C1633 1.419 . S
C1632 C1630 1.415 . S
C1632 C1637 1.425 1_545 S
C1632 C1639 1.409 . S
C1633 H1625 0.930 . S
C1633 C1631 1.419 . S
C1633 C1634 1.362 1_545 S
C1634 H1626 0.930 . S
C1634 C1633 1.362 1_565 S
C1634 C1637 1.409 . S
C1635 H1627 0.930 . S
C1635 C1636 1.355 . S
C1635 C1637 1.415 . S
C1636 C1635 1.355 . S
C1636 C1638 1.419 . S
C1637 C1632 1.425 1_565 S
C1637 C1634 1.409 . S
C1637 C1635 1.415 . S
C1638 H1628 0.930 . S
C1638 C1636 1.419 . S
C1638 C1639 1.362 1_565 S
C1639 H1629 0.930 . S
C1639 C1632 1.409 . S
C1639 C1638 1.362 1_545 S
H1640 C1646 0.926 1_655 S
H1641 C1649 0.930 . S
H1642 C1650 0.930 . S
H1643 C1651 0.928 . S
H1644 C1654 0.930 . S
H1645 C1655 0.930 . S
C1646 H1640 0.926 1_455 S
C1646 C1647 1.355 . S
C1646 C1648 1.415 1_455 S
C1647 C1646 1.355 . S
C1647 C1649 1.419 . S
C1648 C1646 1.415 1_655 S
C1648 C1653 1.425 1_655 S
C1648 C1655 1.409 . S
C1649 H1641 0.930 . S
C1649 C1647 1.419 . S
C1649 C1650 1.362 . S
C1650 H1642 0.930 . S
C1650 C1649 1.362 . S
C1650 C1653 1.409 . S
C1651 H1643 0.928 . S
C1651 C1652 1.355 . S
C1651 C1653 1.415 1_655 S
C1652 C1651 1.355 . S
C1652 C1654 1.419 . S
C1653 C1648 1.425 1_455 S
C1653 C1650 1.409 . S
C1653 C1651 1.415 1_455 S
C1654 H1644 0.930 . S
C1654 C1652 1.419 . S
C1654 C1655 1.362 . S
C1655 H1645 0.930 . S
C1655 C1648 1.409 . S
C1655 C1654 1.362 . S
C511 C78 0.789 . S
C516 C8 0.801 . S
C527 C50 0.808 . S
C532 C22 0.700 . S
C543 C36 0.769 . S
C548 C64 0.630 . S
C559 C92 0.687 . S
C564 C162 0.581 . S
C575 C106 0.689 . S
C580 C134 0.805 . S
C591 C148 0.608 . S
C596 C120 0.606 . S
C607 C176 0.754 . S
C612 C246 0.815 . S
C623 C190 0.787 . S
C628 C218 0.803 . S
C639 C232 0.803 . S
C644 C204 0.685 . S
C655 C330 0.806 . S
C660 C260 0.782 . S
C671 C302 0.594 . S
C676 C274 0.624 . S
C687 C288 0.777 . S
C692 C316 0.640 . S
C703 C414 0.630 . S
C708 C344 0.590 . S
C719 C386 0.777 . S
C724 C358 0.808 . S
C735 C372 0.816 . S
C740 C400 0.735 . S
C751 C498 0.748 . S
C756 C428 0.610 . S
C767 C470 0.790 . S
C772 C442 0.801 . S
C783 C484 0.673 . S
C788 C456 0.580 . S
C799 C237 1.276 . S
C804 C13 1.246 . S
C815 C251 1.229 . S
C820 C27 1.339 . S
C831 C223 1.246 . S
C836 C41 1.275 . S
C847 C55 1.341 . S
C852 C377 1.251 1_554 S
C863 C69 1.230 . S
C868 C349 1.339 1_554 S
C879 C83 1.223 . S
C884 C363 1.321 1_554 S
C895 C97 1.224 . S
C900 C489 1.315 . S
C911 C503 1.320 . S
C916 C111 1.223 . S
C927 C475 1.275 . S
C932 C125 1.247 . S
C943 C293 1.289 1_556 S
C948 C139 1.236 . S
C959 C265 1.245 1_556 S
C964 C153 1.278 . S
C975 C167 1.234 . S
C980 C279 1.294 1_556 S
C991 C181 1.227 . S
C996 C405 1.306 . S
C1007 C419 1.284 . S
C1012 C195 1.239 . S
C1023 C391 1.333 . S
C1028 C209 1.270 . S
C1039 C307 1.341 . S
C1044 C461 1.248 . S
C1055 C433 1.225 . S
C1060 C321 1.311 . S
C1071 C335 1.306 . S
C1076 C447 1.227 . S
C1087 C263 1.285 . S
C1092 C11 1.285 . S
C1103 C277 1.341 . S
C1108 C25 1.341 . S
C1119 C39 1.319 . S
C1124 C291 1.319 . S
C1135 C53 1.302 . S
C1140 C473 1.302 . S
C1151 C487 1.298 . S
C1156 C67 1.298 . S
C1167 C501 1.326 . S
C1172 C81 1.326 . S
C1183 C95 1.282 . S
C1188 C347 1.282 . S
C1199 C109 1.305 . S
C1204 C361 1.305 . S
C1215 C375 1.341 . S
C1220 C123 1.341 . S
C1231 C137 1.333 . S
C1236 C221 1.333 . S
C1247 C151 1.323 . S
C1252 C235 1.323 . S
C1263 C249 1.341 . S
C1268 C165 1.341 . S
C1279 C179 1.276 . S
C1284 C431 1.276 . S
C1295 C193 1.278 . S
C1300 C445 1.278 . S
C1311 C459 1.284 . S
C1316 C207 1.284 . S
C1327 C389 1.292 . S
C1332 C305 1.292 . S
C1343 C319 1.342 . S
C1348 C403 1.342 . S
C1359 C333 1.279 . S
C1364 C417 1.279 . S
C1375 C385 1.631 1_554 S
C1380 C7 1.622 . S
C1391 C21 1.638 . S
C1396 C399 1.615 1_554 S
C1407 C413 1.646 1_554 S
C1412 C35 1.614 . S
C1423 C49 1.644 . S
C1428 C175 1.612 . S
C1439 C189 1.611 . S
C1444 C63 1.644 . S
C1455 C203 1.630 . S
C1460 C77 1.623 . S
C1471 C91 1.634 . S
C1476 C301 1.619 1_556 S
C1487 C315 1.646 1_556 S
C1492 C105 1.609 . S
C1503 C119 1.618 . S
C1508 C329 1.643 1_556 S
C1519 C133 1.636 . S
C1524 C427 1.628 . S
C1535 C147 1.645 . S
C1540 C441 1.611 . S
C1551 C455 1.646 . S
C1556 C161 1.610 . S
C1567 C217 1.648 . S
C1572 C343 1.612 . S
C1583 C231 1.621 . S
C1588 C357 1.641 . S
C1599 C245 1.648 . S
C1604 C371 1.610 . S
C1615 C259 1.638 . S
C1620 C469 1.616 . S
C1631 C273 1.616 . S
C1636 C483 1.638 . S
C1647 C497 1.618 . S
C1652 C287 1.643 . S
