# Generated by pormake.
# Topology wfx, (7)-cn, num edge types: 1
# Building blocks:
#     Node 0, Type 0, BuildingBlock: HICVOG_clean_sbu_0, # of connection points: 7
#     Node 1, Type 0, BuildingBlock: HICVOG_clean_sbu_0, # of connection points: 7
#     Node 2, Type 0, BuildingBlock: HICVOG_clean_sbu_0, # of connection points: 7
#     Node 3, Type 0, BuildingBlock: HICVOG_clean_sbu_0, # of connection points: 7
#     Node 4, Type 0, BuildingBlock: HICVOG_clean_sbu_0, # of connection points: 7
#     Node 5, Type 0, BuildingBlock: HICVOG_clean_sbu_0, # of connection points: 7
#     Node 6, Type 0, BuildingBlock: HICVOG_clean_sbu_0, # of connection points: 7
#     Node 7, Type 0, BuildingBlock: HICVOG_clean_sbu_0, # of connection points: 7
#     Node 8, Type 0, BuildingBlock: HICVOG_clean_sbu_0, # of connection points: 7
#     Node 9, Type 0, BuildingBlock: HICVOG_clean_sbu_0, # of connection points: 7
#     Node 10, Type 0, BuildingBlock: HICVOG_clean_sbu_0, # of connection points: 7
#     Node 11, Type 0, BuildingBlock: HICVOG_clean_sbu_0, # of connection points: 7
#     Node 12, Type 0, BuildingBlock: HICVOG_clean_sbu_0, # of connection points: 7
#     Node 13, Type 0, BuildingBlock: HICVOG_clean_sbu_0, # of connection points: 7
#     Node 14, Type 0, BuildingBlock: HICVOG_clean_sbu_0, # of connection points: 7
#     Node 15, Type 0, BuildingBlock: HICVOG_clean_sbu_0, # of connection points: 7
#     Edge 16, Type (0, 0), None
#     Edge 17, Type (0, 0), None
#     Edge 18, Type (0, 0), None
#     Edge 19, Type (0, 0), None
#     Edge 20, Type (0, 0), None
#     Edge 21, Type (0, 0), None
#     Edge 22, Type (0, 0), None
#     Edge 23, Type (0, 0), None
#     Edge 24, Type (0, 0), None
#     Edge 25, Type (0, 0), None
#     Edge 26, Type (0, 0), None
#     Edge 27, Type (0, 0), None
#     Edge 28, Type (0, 0), None
#     Edge 29, Type (0, 0), None
#     Edge 30, Type (0, 0), None
#     Edge 31, Type (0, 0), None
#     Edge 32, Type (0, 0), None
#     Edge 33, Type (0, 0), None
#     Edge 34, Type (0, 0), None
#     Edge 35, Type (0, 0), None
#     Edge 36, Type (0, 0), None
#     Edge 37, Type (0, 0), None
#     Edge 38, Type (0, 0), None
#     Edge 39, Type (0, 0), None
#     Edge 40, Type (0, 0), None
#     Edge 41, Type (0, 0), None
#     Edge 42, Type (0, 0), None
#     Edge 43, Type (0, 0), None
#     Edge 44, Type (0, 0), None
#     Edge 45, Type (0, 0), None
#     Edge 46, Type (0, 0), None
#     Edge 47, Type (0, 0), None
#     Edge 48, Type (0, 0), None
#     Edge 49, Type (0, 0), None
#     Edge 50, Type (0, 0), None
#     Edge 51, Type (0, 0), None
#     Edge 52, Type (0, 0), None
#     Edge 53, Type (0, 0), None
#     Edge 54, Type (0, 0), None
#     Edge 55, Type (0, 0), None
#     Edge 56, Type (0, 0), None
#     Edge 57, Type (0, 0), None
#     Edge 58, Type (0, 0), None
#     Edge 59, Type (0, 0), None
#     Edge 60, Type (0, 0), None
#     Edge 61, Type (0, 0), None
#     Edge 62, Type (0, 0), None
#     Edge 63, Type (0, 0), None
#     Edge 64, Type (0, 0), None
#     Edge 65, Type (0, 0), None
#     Edge 66, Type (0, 0), None
#     Edge 67, Type (0, 0), None
#     Edge 68, Type (0, 0), None
#     Edge 69, Type (0, 0), None
#     Edge 70, Type (0, 0), None
#     Edge 71, Type (0, 0), None
# Relax obj value: 0.491
# Max RMSD: 0.260
# Mean RMSD: 0.260
data_MOF--net-wfx--node1-HICVOG_clean_sbu_0--edge1-none
_symmetry_space_group_name_H-M    P1
_symmetry_Int_Tables_number       1
_symmetry_cell_setting            triclinic
loop_
_symmetry_equiv_pos_as_xyz
'x, y, z'
_cell_length_a     16.246543
_cell_length_b     16.245955
_cell_length_c     34.545975
_cell_angle_alpha  90.000937
_cell_angle_beta   90.000977
_cell_angle_gamma 90.001647
loop_
_atom_site_label
_atom_site_type_symbol
_atom_site_fract_x
_atom_site_fract_y
_atom_site_fract_z
_atom_type_partial_charge
Zn0 Zn 0.6441 0.14928 0.08483 0.0
C1 C 0.56842 0.95034 0.12869 0.0
N2 N 0.52584 0.94363 0.09427 0.0
C3 C 0.54079 1.01732 0.07623 0.0
N4 N 0.58752 0.06354 0.09921 0.0
N5 N 0.60823 1.02385 0.13093 0.0
C6 C 0.88484 0.98338 0.15969 0.0
O7 O 0.89927 0.93395 0.18897 0.0
O8 O 0.5983 0.18498 0.13888 0.0
Zn9 Zn 0.6956 0.07561 0.16822 0.0
N10 N 0.71887 0.06645 0.06191 0.0
C11 C 0.79045 0.93777 0.05757 0.0
C12 C 0.74766 0.99605 0.07898 0.0
C13 C 0.7321 0.07902 1.02383 0.0
N14 N 0.806 0.95247 1.01986 0.0
C15 C 0.77716 1.02157 1.00263 0.0
O16 O 0.74046 0.19927 0.16174 0.0
C17 C 0.75796 0.24063 0.13133 0.0
O18 O 0.73525 0.21692 0.09821 0.0
H19 H 0.73547 0.98131 0.10835 0.0
H20 H 0.70936 0.13478 1.01049 0.0
C21 C 0.66064 0.09481 0.25534 0.0
C22 C 0.60447 0.11962 0.28475 0.0
C23 C 0.49733 0.12382 0.23866 0.0
C24 C 0.55113 0.09573 0.21041 0.0
N25 N 0.63295 0.08536 0.21816 0.0
N26 N 0.52498 0.13464 0.2751 0.0
H27 H 0.7246 0.08296 0.2621 0.0
C28 C 0.54844 0.24405 0.14263 0.0
O29 O 0.51876 0.26489 0.17656 0.0
O30 O 0.81596 1.02252 0.15891 0.0
H31 H 0.52679 0.08653 0.18185 0.0
H32 H 0.81257 0.88223 0.07118 0.0
H33 H 0.43332 0.13517 0.23185 0.0
Zn34 Zn 0.41057 0.64402 0.08484 0.0
C35 C 0.60954 0.56838 0.12867 0.0
N36 N 0.61625 0.52581 0.09424 0.0
C37 C 0.54255 0.54074 0.07621 0.0
N38 N 0.49632 0.58744 0.0992 0.0
N39 N 0.53603 0.60817 0.13091 0.0
C40 C 0.57655 0.88483 0.15975 0.0
O41 O 0.62597 0.8993 0.18902 0.0
O42 O 0.37492 0.59829 0.13892 0.0
Zn43 Zn 0.48428 0.69556 0.16821 0.0
N44 N 0.49338 0.71885 0.06194 0.0
C45 C 0.62204 0.79049 0.05762 0.0
C46 C 0.56377 0.74767 0.07903 0.0
C47 C 0.48086 0.73205 1.02386 0.0
N48 N 0.60738 0.80599 1.01991 0.0
C49 C 0.53832 0.77711 1.00267 0.0
O50 O 0.36065 0.74051 0.16171 0.0
C51 C 0.31923 0.75791 0.13131 0.0
O52 O 0.34286 0.7351 0.09819 0.0
H53 H 0.57849 0.73548 0.1084 0.0
H54 H 0.42512 0.70929 1.0105 0.0
C55 C 0.46503 0.66057 0.25532 0.0
C56 C 0.44023 0.60439 0.28473 0.0
C57 C 0.43612 0.49724 0.23865 0.0
C58 C 0.46419 0.55104 0.2104 0.0
N59 N 0.47451 0.63287 0.21814 0.0
N60 N 0.42527 0.52489 0.27508 0.0
H61 H 0.47685 0.72454 0.26208 0.0
C62 C 0.31575 0.54856 0.14271 0.0
O63 O 0.2949 0.51897 0.17665 0.0
O64 O 0.53744 0.81593 0.15897 0.0
H65 H 0.47341 0.5267 0.18184 0.0
H66 H 0.67755 0.81264 0.07124 0.0
H67 H 0.42481 0.43322 0.23184 0.0
Zn68 Zn 0.86432 0.48426 0.16821 0.0
C69 C 1.01911 0.54256 0.07621 0.0
N70 N 0.03402 0.61628 0.09424 0.0
C71 C 0.99146 0.60956 0.12866 0.0
N72 N 0.95167 0.53604 0.1309 0.0
N73 N 0.97247 0.49628 0.0992 0.0
C74 C 1.0114 0.31586 0.14263 0.0
O75 O 0.04101 0.29496 0.17657 0.0
O76 O 0.74395 0.53736 0.15892 0.0
Zn77 Zn 0.91573 0.41065 0.08483 0.0
N78 N 0.92698 0.47457 0.21814 0.0
C79 C 0.06259 0.43606 0.23864 0.0
C80 C 1.00879 0.46418 0.21039 0.0
C81 C 0.89928 0.46503 0.25531 0.0
N82 N 0.03495 0.42522 0.27507 0.0
C83 C 0.95546 0.44021 0.28472 0.0
O84 O 0.82468 0.34289 0.0982 0.0
C85 C 0.80192 0.31922 0.13133 0.0
O86 O 0.81939 0.36062 0.16173 0.0
H87 H 0.03312 0.47341 0.18183 0.0
H88 H 0.83532 0.47685 0.26208 0.0
C89 C 0.82767 0.48095 1.02391 0.0
C90 C 0.78264 0.53841 1.0027 0.0
C91 C 0.76939 0.62224 0.05763 0.0
C92 C 0.8122 0.56398 0.07905 0.0
N93 N 0.84091 0.49352 0.06198 0.0
N94 N 0.75382 0.60752 1.01992 0.0
H95 H 0.8504 0.42518 1.01056 0.0
C96 C 0.67506 0.57649 0.15971 0.0
O97 O 0.66063 0.62591 0.18899 0.0
O98 O 0.96153 0.37492 0.13888 0.0
H99 H 0.82445 0.57877 0.10841 0.0
H100 H 0.1266 0.42473 0.23182 0.0
H101 H 0.74731 0.6778 0.07123 0.0
Zn102 Zn 0.07562 0.86433 0.1682 0.0
C103 C 1.01737 1.01919 0.07621 0.0
N104 N 0.94365 0.03408 0.09423 0.0
C105 C 0.95035 0.9915 0.12865 0.0
N106 N 1.02388 0.95173 0.1309 0.0
N107 N 0.06365 0.97257 0.09921 0.0
C108 C 0.24412 1.0113 0.14273 0.0
O109 O 0.26504 0.04082 0.17667 0.0
O110 O 1.02245 0.74396 0.15894 0.0
Zn111 Zn 0.1493 0.91585 0.08485 0.0
N112 N 0.08533 0.92698 0.21815 0.0
C113 C 0.12381 0.0626 0.23865 0.0
C114 C 0.0957 1.00881 0.2104 0.0
C115 C 0.09489 0.89926 0.25531 0.0
N116 N 0.13468 0.03494 0.27508 0.0
C117 C 0.11971 0.95543 0.28473 0.0
O118 O 0.21709 0.82483 0.09819 0.0
C119 C 0.24069 0.80196 0.13131 0.0
O120 O 0.19924 0.81934 0.16171 0.0
H121 H 0.08646 0.03316 0.18184 0.0
H122 H 0.08308 0.83529 0.26207 0.0
C123 C 0.079 0.82782 1.02391 0.0
C124 C 1.02152 0.78281 1.0027 0.0
C125 C 0.93774 0.76948 0.05764 0.0
C126 C 0.99602 0.81226 0.07905 0.0
N127 N 0.06645 0.84101 0.06199 0.0
N128 N 0.95243 0.75397 1.01992 0.0
H129 H 0.13475 0.85056 1.01056 0.0
C130 C 0.98332 0.67507 0.15971 0.0
O131 O 0.93387 0.66062 0.18898 0.0
O132 O 0.18498 0.96154 0.13894 0.0
H133 H 0.98125 0.82447 0.10842 0.0
H134 H 0.13514 0.12661 0.23184 0.0
H135 H 0.8822 0.74737 0.07124 0.0
Zn136 Zn 0.19557 0.98425 0.44242 0.0
C137 C 0.04073 0.04252 0.53441 0.0
N138 N 1.02583 0.11624 0.51638 0.0
C139 C 0.0684 0.10952 0.48196 0.0
N140 N 0.10819 0.036 0.47973 0.0
N141 N 0.08737 0.99624 0.51142 0.0
C142 C 0.04854 0.81578 0.46796 0.0
O143 O 1.01896 0.79487 0.43403 0.0
O144 O 0.31594 0.03738 0.45172 0.0
Zn145 Zn 0.1441 0.9106 0.52579 0.0
N146 N 0.13293 0.97454 0.39248 0.0
C147 C 0.99733 0.93599 0.37198 0.0
C148 C 0.05111 0.96413 0.40023 0.0
C149 C 0.16064 0.96501 0.35531 0.0
N150 N 1.02497 0.92515 0.33555 0.0
C151 C 0.10446 0.94016 0.3259 0.0
O152 O 0.23516 0.84286 0.51243 0.0
C153 C 0.25795 0.8192 0.47931 0.0
O154 O 0.24051 0.86061 0.44891 0.0
H155 H 1.02678 0.97335 0.42879 0.0
H156 H 0.2246 0.97685 0.34855 0.0
C157 C 0.23213 0.98092 0.58674 0.0
C158 C 0.27715 0.03839 0.60794 0.0
C159 C 0.29042 0.1222 0.55301 0.0
C160 C 0.24764 0.06393 0.53159 0.0
N161 N 0.21891 0.99348 0.54866 0.0
N162 N 0.30597 0.1075 0.59072 0.0
H163 H 0.20939 0.92516 0.60008 0.0
C164 C 0.38482 0.07652 0.45093 0.0
O165 O 0.39927 0.12593 0.42165 0.0
O166 O 0.09835 0.87488 0.47173 0.0
H167 H 0.23541 0.0787 0.50223 0.0
H168 H 0.93332 0.92464 0.3788 0.0
H169 H 0.31251 0.17776 0.53941 0.0
Zn170 Zn 0.57562 0.19555 0.44243 0.0
C171 C 0.51733 0.04076 0.53443 0.0
N172 N 0.44362 1.02585 0.51641 0.0
C173 C 0.45032 0.06842 0.48199 0.0
N174 N 0.52385 0.1082 0.47974 0.0
N175 N 0.56361 0.08739 0.51143 0.0
C176 C 0.74406 0.04852 0.46798 0.0
O177 O 0.76496 1.01893 0.43405 0.0
O178 O 0.52249 0.31593 0.45169 0.0
Zn179 Zn 0.64925 0.14411 0.5258 0.0
N180 N 0.58532 0.13287 0.3925 0.0
C181 C 0.62382 0.99724 0.37201 0.0
C182 C 0.5957 0.05105 0.40025 0.0
C183 C 0.59488 0.16057 0.35533 0.0
N184 N 0.63469 1.02487 0.33558 0.0
C185 C 0.61972 0.10437 0.32593 0.0
O186 O 0.71702 0.23516 0.51244 0.0
C187 C 0.74067 0.25794 0.47931 0.0
O188 O 0.69926 0.2405 0.44891 0.0
H189 H 0.58646 1.02673 0.42882 0.0
H190 H 0.58308 0.22453 0.34856 0.0
C191 C 0.57894 0.23215 0.58674 0.0
C192 C 0.52148 0.27719 0.60794 0.0
C193 C 0.43769 0.2905 0.553 0.0
C194 C 0.49596 0.24769 0.53159 0.0
N195 N 0.56639 0.21894 0.54866 0.0
N196 N 0.45239 0.30604 0.59071 0.0
H197 H 0.63469 0.2094 0.60009 0.0
C198 C 0.48338 0.38483 0.4509 0.0
O199 O 0.43401 0.39929 0.4216 0.0
O200 O 0.68496 0.09834 0.47175 0.0
H201 H 0.48119 0.23546 0.50222 0.0
H202 H 0.63514 0.93323 0.37883 0.0
H203 H 0.38216 0.31261 0.53939 0.0
Zn204 Zn 0.41579 0.64929 0.52581 0.0
C205 C 0.49145 0.45032 0.48196 0.0
N206 N 0.53404 0.44362 0.51638 0.0
C207 C 0.51908 0.51732 0.53441 0.0
N208 N 0.47237 0.56354 0.51144 0.0
N209 N 0.45165 0.52384 0.47971 0.0
C210 C 0.17503 0.48336 0.4509 0.0
O211 O 0.16057 0.43397 0.42161 0.0
O212 O 0.46157 0.68497 0.47175 0.0
Zn213 Zn 0.36429 0.5756 0.44241 0.0
N214 N 0.34099 0.56646 0.54872 0.0
C215 C 0.26936 0.4378 0.55304 0.0
C216 C 0.31218 0.49607 0.53164 0.0
C217 C 0.32778 0.579 0.5868 0.0
N218 N 0.25384 0.45248 0.59076 0.0
C219 C 0.28271 0.52155 0.60799 0.0
O220 O 0.3194 0.69924 0.44891 0.0
C221 C 0.30193 0.74063 0.47931 0.0
O222 O 0.32467 0.71694 0.51243 0.0
H223 H 0.32436 0.48135 0.50226 0.0
H224 H 0.35055 0.63474 0.60015 0.0
C225 C 0.39929 0.59483 0.35531 0.0
C226 C 0.45548 0.61966 0.32591 0.0
C227 C 0.56261 0.62382 0.37199 0.0
C228 C 0.5088 0.59572 0.40024 0.0
N229 N 0.42697 0.58536 0.39248 0.0
N230 N 0.53497 0.63465 0.33555 0.0
H231 H 0.33533 0.58299 0.34854 0.0
C232 C 0.51136 0.7441 0.46798 0.0
O233 O 0.54101 0.76494 0.43405 0.0
O234 O 0.24393 0.52248 0.45168 0.0
H235 H 0.53312 0.58651 0.4288 0.0
H236 H 0.24721 0.38228 0.53943 0.0
H237 H 0.62662 0.63515 0.37881 0.0
Zn238 Zn 0.91057 0.41582 0.52581 0.0
C239 C 0.10954 0.49145 0.48195 0.0
N240 N 0.11624 0.53404 0.51637 0.0
C241 C 0.04254 0.51911 0.53441 0.0
N242 N 0.99632 0.47239 0.51143 0.0
N243 N 0.03602 0.45166 0.47971 0.0
C244 C 0.07655 0.17504 0.45092 0.0
O245 O 0.12601 0.1606 0.42165 0.0
O246 O 0.87489 0.46158 0.47174 0.0
Zn247 Zn 0.98427 0.36429 0.44241 0.0
N248 N 0.99338 0.34104 0.54873 0.0
C249 C 0.12204 0.26942 0.55305 0.0
C250 C 0.06376 0.31221 0.53165 0.0
C251 C 0.98085 0.32784 0.58681 0.0
N252 N 0.10737 0.25391 0.59077 0.0
C253 C 0.0383 0.28278 0.60801 0.0
O254 O 0.86063 0.31938 0.44891 0.0
C255 C 0.81924 0.30193 0.47931 0.0
O256 O 0.84292 0.32468 0.51243 0.0
H257 H 0.07847 0.32438 0.50227 0.0
H258 H 0.92511 0.35061 0.60016 0.0
C259 C 0.96503 0.39927 0.3553 0.0
C260 C 0.94021 0.45546 0.3259 0.0
C261 C 0.93605 0.56259 0.37198 0.0
C262 C 0.96415 0.50878 0.40023 0.0
N263 N 0.97451 0.42696 0.39248 0.0
N264 N 0.92522 0.53495 0.33555 0.0
H265 H 0.97687 0.33531 0.34854 0.0
C266 C 0.81577 0.51137 0.46797 0.0
O267 O 0.79493 0.54101 0.43404 0.0
O268 O 0.03741 0.24392 0.45169 0.0
H269 H 0.97336 0.53312 0.42879 0.0
H270 H 0.17756 0.24728 0.53944 0.0
H271 H 0.92473 0.6266 0.3788 0.0
Zn272 Zn 0.4158 0.91056 1.02583 0.0
C273 C 0.49148 0.10954 0.98198 0.0
N274 N 0.53405 0.11624 1.01641 0.0
C275 C 0.51905 0.04257 1.03445 0.0
N276 N 0.47235 0.99634 1.01146 0.0
N277 N 0.45165 0.03604 0.97974 0.0
C278 C 0.17506 0.07659 0.9509 0.0
O279 O 0.16058 0.126 0.92162 0.0
O280 O 0.46155 0.87493 0.97175 0.0
Zn281 Zn 0.3643 0.98429 0.94243 0.0
N282 N 0.34103 0.99336 1.04877 0.0
C283 C 0.26937 0.122 1.05308 0.0
C284 C 0.31217 0.06372 1.03168 0.0
C285 C 0.32789 0.98087 0.08686 0.0
N286 N 0.25389 0.10737 0.0908 0.0
C287 C 0.28284 0.03834 0.10805 0.0
O288 O 0.31937 0.86066 0.94892 0.0
C289 C 0.30192 0.81925 0.97932 0.0
O290 O 0.32467 0.84292 1.01244 0.0
H291 H 0.32432 0.0784 1.0023 0.0
H292 H 0.35069 0.92515 0.10022 0.0
C293 C 0.39929 0.96506 0.85533 0.0
C294 C 0.45547 0.94026 0.82592 0.0
C295 C 0.56261 0.93613 0.872 0.0
C296 C 0.50881 0.96421 0.90025 0.0
N297 N 0.42698 0.97454 0.8925 0.0
N298 N 0.53497 0.92529 0.83557 0.0
H299 H 0.33533 0.97688 0.84857 0.0
C300 C 0.51131 0.81579 0.96797 0.0
O301 O 0.54102 0.79499 0.93405 0.0
O302 O 0.24395 0.03748 0.95167 0.0
H303 H 0.53314 0.97343 0.92881 0.0
H304 H 0.24718 0.17749 1.03946 0.0
H305 H 0.62663 0.92482 0.87882 0.0
Zn306 Zn 0.57561 0.36431 0.94241 0.0
C307 C 0.51731 0.51906 1.03442 0.0
N308 N 0.44362 0.53403 1.01638 0.0
C309 C 0.45034 0.49148 0.98195 0.0
N310 N 0.52384 0.45167 0.97972 0.0
N311 N 0.56359 0.47244 1.01142 0.0
C312 C 0.744 0.51141 0.968 0.0
O313 O 0.76485 0.54113 0.93408 0.0
O314 O 0.52256 0.24393 0.95174 0.0
Zn315 Zn 0.64922 0.4157 1.02579 0.0
N316 N 0.58527 0.42696 0.89247 0.0
C317 C 0.62379 0.56258 0.87198 0.0
C318 C 0.59567 0.50878 0.90022 0.0
C319 C 0.59481 0.39926 0.8553 0.0
N320 N 0.63463 0.53494 0.83554 0.0
C321 C 0.61964 0.45544 0.82589 0.0
O322 O 0.71692 0.32462 1.0124 0.0
C323 C 0.74064 0.30193 0.97927 0.0
O324 O 0.69927 0.31944 0.94887 0.0
H325 H 0.58645 0.53311 0.92879 0.0
H326 H 0.58299 0.3353 0.84853 0.0
C327 C 0.57891 0.32769 0.08672 0.0
C328 C 0.52142 0.28271 0.10794 0.0
C329 C 0.43759 0.26941 1.05302 0.0
C330 C 0.49586 0.3122 1.03159 0.0
N331 N 0.56633 0.34091 1.04865 0.0
N332 N 0.45231 0.25387 0.09073 0.0
H333 H 0.63469 0.35041 0.10006 0.0
C334 C 0.48342 0.17505 0.95093 0.0
O335 O 0.43404 0.16062 0.92164 0.0
O336 O 0.68493 0.46155 0.97174 0.0
H337 H 0.48107 0.32445 1.00223 0.0
H338 H 0.63513 0.62659 0.8788 0.0
H339 H 0.38203 0.24733 1.03942 0.0
Zn340 Zn 0.14406 0.64935 1.02582 0.0
C341 C 0.06841 0.45038 0.98195 0.0
N342 N 1.02584 0.44366 1.01638 0.0
C343 C 0.04082 0.51733 1.03442 0.0
N344 N 0.08751 0.56358 1.01144 0.0
N345 N 0.10821 0.52389 0.97972 0.0
C346 C 0.38483 0.48338 0.9509 0.0
O347 O 0.39928 0.43395 0.92162 0.0
O348 O 0.09829 0.68502 0.97176 0.0
Zn349 Zn 0.19558 0.57565 0.94241 0.0
N350 N 0.21883 0.56654 1.04876 0.0
C351 C 0.29048 0.43789 1.05305 0.0
C352 C 0.24768 0.49619 1.03166 0.0
C353 C 0.23198 0.57903 0.08685 0.0
N354 N 0.30596 0.45251 0.09078 0.0
C355 C 0.27702 0.52154 0.10803 0.0
O356 O 0.24047 0.69929 0.94891 0.0
C357 C 0.25794 0.74067 0.97931 0.0
O358 O 0.23521 0.71697 1.01244 0.0
H359 H 0.23553 0.48151 1.00228 0.0
H360 H 0.2092 0.63475 0.10021 0.0
C361 C 0.16059 0.59484 0.8553 0.0
C362 C 0.10441 0.61965 0.82589 0.0
C363 C 0.99729 0.62387 0.87198 0.0
C364 C 0.05109 0.59578 0.90023 0.0
N365 N 0.1329 0.5854 0.89248 0.0
N366 N 1.02492 0.63467 0.83555 0.0
H367 H 0.22454 0.58298 0.84854 0.0
C368 C 0.04852 0.74416 0.968 0.0
O369 O 1.01877 0.76496 0.93408 0.0
O370 O 0.31594 0.5225 0.95168 0.0
H371 H 1.02676 0.58658 0.9288 0.0
H372 H 0.31266 0.3824 1.03943 0.0
H373 H 0.93328 0.63522 0.8788 0.0
Zn374 Zn 0.98428 0.19561 0.94241 0.0
C375 C 0.04259 0.04087 1.03442 0.0
N376 N 0.11629 1.02593 1.01639 0.0
C377 C 0.10957 0.06849 0.98196 0.0
N378 N 0.03605 0.10826 0.97972 0.0
N379 N 0.9963 0.08746 1.01142 0.0
C380 C 0.81584 0.04858 0.96794 0.0
O381 O 0.795 1.01893 0.93401 0.0
O382 O 0.03739 0.31598 0.95168 0.0
Zn383 Zn 0.91064 0.14418 1.02578 0.0
N384 N 0.97461 0.13294 0.89247 0.0
C385 C 0.93613 0.99731 0.87198 0.0
C386 C 0.96423 0.05112 0.90022 0.0
C387 C 0.96505 0.16063 0.8553 0.0
N388 N 0.92527 1.02495 0.83555 0.0
C389 C 0.94024 0.10444 0.82589 0.0
O390 O 0.84291 0.23524 1.0124 0.0
C391 C 0.81924 0.25799 0.97927 0.0
O392 O 0.86063 0.24053 0.94887 0.0
H393 H 0.97347 1.02679 0.92879 0.0
H394 H 0.97685 0.2246 0.84854 0.0
C395 C 0.98094 0.23219 0.08673 0.0
C396 C 0.03842 0.2772 0.10794 0.0
C397 C 0.12221 0.29053 1.05301 0.0
C398 C 0.06394 0.24775 1.03159 0.0
N399 N 0.99349 0.219 1.04865 0.0
N400 N 0.10751 0.30606 0.09072 0.0
H401 H 0.92518 0.20944 0.10007 0.0
C402 C 0.0765 0.38488 0.9509 0.0
O403 O 0.1259 0.39934 0.92161 0.0
O404 O 0.87496 0.09839 0.97171 0.0
H405 H 0.07871 0.23553 1.00222 0.0
H406 H 0.92481 0.93329 0.8788 0.0
H407 H 0.17776 0.31264 1.03941 0.0
Zn408 Zn 0.86429 0.0756 0.66821 0.0
C409 C 1.01905 1.0173 0.5762 0.0
N410 N 0.03398 0.9436 0.59423 0.0
C411 C 0.99143 0.95033 0.62866 0.0
N412 N 0.95165 1.02385 0.6309 0.0
N413 N 0.97245 0.0636 0.5992 0.0
C414 C 1.01128 0.24409 0.64269 0.0
O415 O 0.0409 0.26495 0.67663 0.0
O416 O 0.74393 1.02245 0.65896 0.0
Zn417 Zn 0.91577 0.14928 0.58484 0.0
N418 N 0.92697 0.0853 0.71815 0.0
C419 C 0.06261 0.12378 0.73863 0.0
C420 C 1.00879 0.09567 0.71039 0.0
C421 C 0.89928 0.09486 0.75531 0.0
N422 N 0.03498 0.13466 0.77507 0.0
C423 C 0.95548 0.11969 0.78471 0.0
O424 O 0.82471 0.21702 0.59821 0.0
C425 C 0.80191 0.24066 0.63133 0.0
O426 O 0.81934 0.19924 0.66173 0.0
H427 H 0.03312 0.08642 0.68183 0.0
H428 H 0.83532 0.08306 0.76208 0.0
C429 C 0.82776 0.07898 0.52387 0.0
C430 C 0.78274 1.0215 0.50267 0.0
C431 C 0.76937 0.93775 0.55762 0.0
C432 C 0.81216 0.99603 0.57903 0.0
N433 N 0.84094 0.06645 0.56195 0.0
N434 N 0.75385 0.95243 0.5199 0.0
H435 H 0.85053 0.13473 0.51052 0.0
C436 C 0.67503 0.98334 0.65973 0.0
O437 O 0.66056 0.93393 0.68902 0.0
O438 O 0.96151 0.18495 0.63892 0.0
H439 H 0.82436 0.98128 0.6084 0.0
H440 H 0.12662 0.1351 0.73181 0.0
H441 H 0.74724 0.88222 0.57122 0.0
Zn442 Zn 0.48424 0.86432 0.66823 0.0
C443 C 0.54256 1.01907 0.57622 0.0
N444 N 0.61626 0.03401 0.59425 0.0
C445 C 0.60954 0.99144 0.62868 0.0
N446 N 0.53601 0.95167 0.63091 0.0
N447 N 0.49626 0.97247 0.59922 0.0
C448 C 0.3158 1.01139 0.64265 0.0
O449 O 0.29495 0.04109 0.67657 0.0
O450 O 0.53734 0.74394 0.65893 0.0
Zn451 Zn 0.4106 0.91577 0.58484 0.0
N452 N 0.47457 0.92698 0.71817 0.0
C453 C 0.43604 0.06261 0.73865 0.0
C454 C 0.46416 1.0088 0.71041 0.0
C455 C 0.46504 0.8993 0.75534 0.0
N456 N 0.42521 0.03498 0.77509 0.0
C457 C 0.44021 0.9555 0.78474 0.0
O458 O 0.3429 0.82468 0.59822 0.0
C459 C 0.31921 0.80195 0.63135 0.0
O460 O 0.36059 0.81942 0.66175 0.0
H461 H 0.47338 0.03312 0.68184 0.0
H462 H 0.47687 0.83534 0.76211 0.0
C463 C 0.4809 0.82779 0.52387 0.0
C464 C 0.53838 0.78279 0.50267 0.0
C465 C 0.62214 0.76942 0.55761 0.0
C466 C 0.56386 0.81221 0.57902 0.0
N467 N 0.49344 0.84097 0.56195 0.0
N468 N 0.60746 0.75391 0.51989 0.0
H469 H 0.42514 0.85053 0.51052 0.0
C470 C 0.57646 0.67505 0.65972 0.0
O471 O 0.62585 0.66059 0.68901 0.0
O472 O 0.3749 0.96157 0.63889 0.0
H473 H 0.57862 0.82441 0.60839 0.0
H474 H 0.4247 0.12662 0.73182 0.0
H475 H 0.67767 0.74729 0.57122 0.0
Zn476 Zn 0.69555 0.48428 0.66821 0.0
C477 C 0.54079 0.54256 0.5762 0.0
N478 N 0.52583 0.61626 0.59423 0.0
C479 C 0.5684 0.60955 0.62866 0.0
N480 N 0.6082 0.53604 0.63089 0.0
N481 N 0.58741 0.49628 0.5992 0.0
C482 C 0.54848 0.31584 0.64264 0.0
O483 O 0.5188 0.29498 0.67656 0.0
O484 O 0.81592 0.53738 0.65891 0.0
Zn485 Zn 0.64411 0.41062 0.58483 0.0
N486 N 0.63289 0.47459 0.71814 0.0
C487 C 0.49727 0.43608 0.73863 0.0
C488 C 0.55107 0.4642 0.71039 0.0
C489 C 0.66058 0.46504 0.75531 0.0
N490 N 0.5249 0.42521 0.77506 0.0
C491 C 0.60439 0.4402 0.78471 0.0
O492 O 0.73518 0.34291 0.59821 0.0
C493 C 0.75793 0.31923 0.63133 0.0
O494 O 0.74046 0.36062 0.66174 0.0
H495 H 0.52675 0.47344 0.68182 0.0
H496 H 0.72455 0.47685 0.76208 0.0
C497 C 0.73209 0.48092 0.52386 0.0
C498 C 0.77709 0.5384 0.50266 0.0
C499 C 0.79045 0.62218 0.55759 0.0
C500 C 0.74766 0.56391 0.57901 0.0
N501 N 0.71891 0.49347 0.56194 0.0
N502 N 0.80597 0.60749 0.51987 0.0
H503 H 0.70935 0.42515 0.51052 0.0
C504 C 0.88481 0.57651 0.6597 0.0
O505 O 0.89926 0.62591 0.68899 0.0
O506 O 0.59832 0.37493 0.63889 0.0
H507 H 0.73545 0.57868 0.60837 0.0
H508 H 0.43326 0.42475 0.7318 0.0
H509 H 0.81257 0.67773 0.57119 0.0
Zn510 Zn 0.07557 0.69558 0.66821 0.0
C511 C 1.0173 0.54082 0.57619 0.0
N512 N 0.9436 0.52587 0.59422 0.0
C513 C 0.95031 0.56844 0.62864 0.0
N514 N 1.02382 0.60823 0.63089 0.0
N515 N 0.06359 0.58743 0.5992 0.0
C516 C 0.24403 0.54856 0.64268 0.0
O517 O 0.26488 0.51892 0.67661 0.0
O518 O 1.02242 0.81593 0.65894 0.0
Zn519 Zn 0.14926 0.64412 0.58484 0.0
N520 N 0.08526 0.63289 0.71814 0.0
C521 C 0.12372 0.49726 0.73863 0.0
C522 C 0.09562 0.55107 0.71039 0.0
C523 C 0.09482 0.66059 0.75531 0.0
N524 N 0.13459 0.52489 0.77507 0.0
C525 C 0.11964 0.60439 0.78471 0.0
O526 O 0.21698 0.73519 0.59822 0.0
C527 C 0.24063 0.75797 0.63134 0.0
O528 O 0.19922 0.74053 0.66174 0.0
H529 H 0.08638 0.52674 0.68182 0.0
H530 H 0.08304 0.72456 0.76208 0.0
C531 C 0.07898 0.73209 0.52386 0.0
C532 C 1.0215 0.7771 0.50265 0.0
C533 C 0.93774 0.79049 0.55759 0.0
C534 C 0.99601 0.7477 0.57901 0.0
N535 N 0.06644 0.71893 0.56194 0.0
N536 N 0.95243 0.80599 0.51987 0.0
H537 H 0.13473 0.70933 0.51051 0.0
C538 C 0.9833 0.88482 0.65971 0.0
O539 O 0.93385 0.89928 0.68898 0.0
O540 O 0.18492 0.59836 0.63891 0.0
H541 H 0.98125 0.73551 0.60837 0.0
H542 H 0.13503 0.43324 0.73181 0.0
H543 H 0.88221 0.81263 0.57119 0.0
loop_
_geom_bond_atom_site_label_1
_geom_bond_atom_site_label_2
_geom_bond_distance
_geom_bond_site_symmetry_2
_ccdc_geom_bond_type
Zn0 N4 2.020 . S
Zn0 O8 2.019 . S
Zn0 N10 2.119 . S
Zn0 O18 1.975 . S
C1 N2 1.334 . S
C1 N5 1.336 . S
N2 C1 1.334 . S
N2 C3 1.334 . S
C3 N2 1.334 . S
C3 N4 1.336 1_565 S
N4 Zn0 2.020 . S
N4 C3 1.336 1_545 S
N4 N5 1.354 1_545 S
N5 C1 1.336 . S
N5 N4 1.354 1_565 S
N5 Zn9 2.020 1_565 S
C6 O7 1.244 . S
C6 O30 1.257 . S
O7 C6 1.244 . S
O8 Zn0 2.019 . S
O8 C28 1.257 . S
Zn9 N5 2.020 1_545 S
Zn9 O16 1.975 . S
Zn9 N25 2.119 . S
Zn9 O30 2.019 1_545 S
N10 Zn0 2.119 . S
N10 C12 1.334 . S
N10 C13 1.328 1_554 S
C11 C12 1.391 . S
C11 N14 1.329 1_554 S
C11 H32 0.930 1_545 S
C12 N10 1.334 . S
C12 C11 1.391 . S
C12 H19 0.930 . S
C13 N10 1.328 1_556 S
C13 C15 1.392 . S
C13 H20 0.930 . S
N14 C11 1.329 1_556 S
N14 C15 1.331 . S
C15 C13 1.392 . S
C15 N14 1.331 . S
O16 Zn9 1.975 . S
O16 C17 1.252 . S
C17 O16 1.252 . S
C17 O18 1.252 . S
O18 Zn0 1.975 . S
O18 C17 1.252 . S
H19 C12 0.930 . S
H20 C13 0.930 . S
C21 C22 1.392 . S
C21 N25 1.328 . S
C21 H27 0.930 1_545 S
C22 C21 1.392 . S
C22 N26 1.331 . S
C23 C24 1.391 . S
C23 N26 1.329 . S
C23 H33 0.930 . S
C24 C23 1.391 . S
C24 N25 1.334 . S
C24 H31 0.930 . S
N25 Zn9 2.119 . S
N25 C21 1.328 . S
N25 C24 1.334 . S
N26 C22 1.331 . S
N26 C23 1.329 . S
H27 C21 0.930 1_565 S
C28 O8 1.257 . S
C28 O29 1.244 . S
O29 C28 1.244 . S
O30 C6 1.257 . S
O30 Zn9 2.019 1_565 S
H31 C24 0.930 . S
H32 C11 0.930 1_565 S
H33 C23 0.930 . S
Zn34 N38 2.020 . S
Zn34 O42 2.019 . S
Zn34 N44 2.119 . S
Zn34 O52 1.975 . S
C35 N36 1.334 . S
C35 N39 1.336 . S
N36 C35 1.334 . S
N36 C37 1.334 . S
C37 N36 1.334 . S
C37 N38 1.336 . S
N38 Zn34 2.020 . S
N38 C37 1.336 . S
N38 N39 1.354 . S
N39 C35 1.336 . S
N39 N38 1.354 . S
N39 Zn43 2.020 . S
C40 O41 1.244 . S
C40 O64 1.257 . S
O41 C40 1.244 . S
O42 Zn34 2.019 . S
O42 C62 1.257 . S
Zn43 N39 2.020 . S
Zn43 O50 1.975 . S
Zn43 N59 2.119 . S
Zn43 O64 2.019 . S
N44 Zn34 2.119 . S
N44 C46 1.334 . S
N44 C47 1.328 1_554 S
C45 C46 1.391 . S
C45 N48 1.329 1_554 S
C45 H66 0.930 . S
C46 N44 1.334 . S
C46 C45 1.391 . S
C46 H53 0.930 . S
C47 N44 1.328 1_556 S
C47 C49 1.392 . S
C47 H54 0.930 . S
N48 C45 1.329 1_556 S
N48 C49 1.331 . S
C49 C47 1.392 . S
C49 N48 1.331 . S
O50 Zn43 1.975 . S
O50 C51 1.252 . S
C51 O50 1.252 . S
C51 O52 1.252 . S
O52 Zn34 1.975 . S
O52 C51 1.252 . S
H53 C46 0.930 . S
H54 C47 0.930 . S
C55 C56 1.392 . S
C55 N59 1.328 . S
C55 H61 0.930 . S
C56 C55 1.392 . S
C56 N60 1.331 . S
C57 C58 1.391 . S
C57 N60 1.329 . S
C57 H67 0.930 . S
C58 C57 1.391 . S
C58 N59 1.334 . S
C58 H65 0.930 . S
N59 Zn43 2.119 . S
N59 C55 1.328 . S
N59 C58 1.334 . S
N60 C56 1.331 . S
N60 C57 1.329 . S
H61 C55 0.930 . S
C62 O42 1.257 . S
C62 O63 1.244 . S
O63 C62 1.244 . S
O64 C40 1.257 . S
O64 Zn43 2.019 . S
H65 C58 0.930 . S
H66 C45 0.930 . S
H67 C57 0.930 . S
Zn68 N72 2.020 . S
Zn68 O76 2.019 . S
Zn68 N78 2.119 . S
Zn68 O86 1.975 . S
C69 N70 1.334 . S
C69 N73 1.336 . S
N70 C69 1.334 . S
N70 C71 1.334 . S
C71 N70 1.334 . S
C71 N72 1.336 . S
N72 Zn68 2.020 . S
N72 C71 1.336 . S
N72 N73 1.354 . S
N73 C69 1.336 . S
N73 N72 1.354 . S
N73 Zn77 2.020 . S
C74 O75 1.244 . S
C74 O98 1.257 . S
O75 C74 1.244 . S
O76 Zn68 2.019 . S
O76 C96 1.257 . S
Zn77 N73 2.020 . S
Zn77 O84 1.975 . S
Zn77 N93 2.119 . S
Zn77 O98 2.019 . S
N78 Zn68 2.119 . S
N78 C80 1.334 . S
N78 C81 1.328 . S
C79 C80 1.391 . S
C79 N82 1.329 . S
C79 H100 0.930 1_655 S
C80 N78 1.334 . S
C80 C79 1.391 . S
C80 H87 0.930 . S
C81 N78 1.328 . S
C81 C83 1.392 . S
C81 H88 0.930 . S
N82 C79 1.329 . S
N82 C83 1.331 . S
C83 C81 1.392 . S
C83 N82 1.331 . S
O84 Zn77 1.975 . S
O84 C85 1.252 . S
C85 O84 1.252 . S
C85 O86 1.252 . S
O86 Zn68 1.975 . S
O86 C85 1.252 . S
H87 C80 0.930 . S
H88 C81 0.930 . S
C89 C90 1.392 . S
C89 N93 1.328 1_556 S
C89 H95 0.930 . S
C90 C89 1.392 . S
C90 N94 1.331 . S
C91 C92 1.391 . S
C91 N94 1.329 1_554 S
C91 H101 0.930 . S
C92 C91 1.391 . S
C92 N93 1.334 . S
C92 H99 0.930 . S
N93 Zn77 2.119 . S
N93 C89 1.328 1_554 S
N93 C92 1.334 . S
N94 C90 1.331 . S
N94 C91 1.329 1_556 S
H95 C89 0.930 . S
C96 O76 1.257 . S
C96 O97 1.244 . S
O97 C96 1.244 . S
O98 C74 1.257 . S
O98 Zn77 2.019 . S
H99 C92 0.930 . S
H100 C79 0.930 1_455 S
H101 C91 0.930 . S
Zn102 N106 2.020 1_455 S
Zn102 O110 2.019 1_455 S
Zn102 N112 2.119 . S
Zn102 O120 1.975 . S
C103 N104 1.334 . S
C103 N107 1.336 1_655 S
N104 C103 1.334 . S
N104 C105 1.334 . S
C105 N104 1.334 . S
C105 N106 1.336 . S
N106 Zn102 2.020 1_655 S
N106 C105 1.336 . S
N106 N107 1.354 1_655 S
N107 C103 1.336 1_455 S
N107 N106 1.354 1_455 S
N107 Zn111 2.020 . S
C108 O109 1.244 . S
C108 O132 1.257 . S
O109 C108 1.244 . S
O110 Zn102 2.019 1_655 S
O110 C130 1.257 . S
Zn111 N107 2.020 . S
Zn111 O118 1.975 . S
Zn111 N127 2.119 . S
Zn111 O132 2.019 . S
N112 Zn102 2.119 . S
N112 C114 1.334 . S
N112 C115 1.328 . S
C113 C114 1.391 . S
C113 N116 1.329 . S
C113 H134 0.930 1_565 S
C114 N112 1.334 . S
C114 C113 1.391 . S
C114 H121 0.930 . S
C115 N112 1.328 . S
C115 C117 1.392 . S
C115 H122 0.930 1_455 S
N116 C113 1.329 . S
N116 C117 1.331 . S
C117 C115 1.392 . S
C117 N116 1.331 . S
O118 Zn111 1.975 . S
O118 C119 1.252 . S
C119 O118 1.252 . S
C119 O120 1.252 . S
O120 Zn102 1.975 . S
O120 C119 1.252 . S
H121 C114 0.930 . S
H122 C115 0.930 1_655 S
C123 C124 1.392 . S
C123 N127 1.328 1_556 S
C123 H129 0.930 . S
C124 C123 1.392 . S
C124 N128 1.331 . S
C125 C126 1.391 . S
C125 N128 1.329 1_554 S
C125 H135 0.930 1_455 S
C126 C125 1.391 . S
C126 N127 1.334 . S
C126 H133 0.930 . S
N127 Zn111 2.119 . S
N127 C123 1.328 1_554 S
N127 C126 1.334 . S
N128 C124 1.331 . S
N128 C125 1.329 1_556 S
H129 C123 0.930 . S
C130 O110 1.257 . S
C130 O131 1.244 . S
O131 C130 1.244 . S
O132 C108 1.257 . S
O132 Zn111 2.019 . S
H133 C126 0.930 . S
H134 C113 0.930 1_545 S
H135 C125 0.930 1_655 S
Zn136 N140 2.020 1_565 S
Zn136 O144 2.019 1_565 S
Zn136 N146 2.119 . S
Zn136 O154 1.975 . S
C137 N138 1.334 . S
C137 N141 1.336 1_545 S
N138 C137 1.334 . S
N138 C139 1.334 . S
C139 N138 1.334 . S
C139 N140 1.336 . S
N140 Zn136 2.020 1_545 S
N140 C139 1.336 . S
N140 N141 1.354 1_545 S
N141 C137 1.336 1_565 S
N141 N140 1.354 1_565 S
N141 Zn145 2.020 . S
C142 O143 1.244 . S
C142 O166 1.257 . S
O143 C142 1.244 . S
O144 Zn136 2.019 1_545 S
O144 C164 1.257 . S
Zn145 N141 2.020 . S
Zn145 O152 1.975 . S
Zn145 N161 2.119 . S
Zn145 O166 2.019 . S
N146 Zn136 2.119 . S
N146 C148 1.334 . S
N146 C149 1.328 . S
C147 C148 1.391 . S
C147 N150 1.329 . S
C147 H168 0.930 1_455 S
C148 N146 1.334 . S
C148 C147 1.391 . S
C148 H155 0.930 . S
C149 N146 1.328 . S
C149 C151 1.392 . S
C149 H156 0.930 1_565 S
N150 C147 1.329 . S
N150 C151 1.331 . S
C151 C149 1.392 . S
C151 N150 1.331 . S
O152 Zn145 1.975 . S
O152 C153 1.252 . S
C153 O152 1.252 . S
C153 O154 1.252 . S
O154 Zn136 1.975 . S
O154 C153 1.252 . S
H155 C148 0.930 . S
H156 C149 0.930 1_545 S
C157 C158 1.392 . S
C157 N161 1.328 . S
C157 H163 0.930 . S
C158 C157 1.392 . S
C158 N162 1.331 . S
C159 C160 1.391 . S
C159 N162 1.329 . S
C159 H169 0.930 1_565 S
C160 C159 1.391 . S
C160 N161 1.334 . S
C160 H167 0.930 . S
N161 Zn145 2.119 . S
N161 C157 1.328 . S
N161 C160 1.334 . S
N162 C158 1.331 . S
N162 C159 1.329 . S
H163 C157 0.930 . S
C164 O144 1.257 . S
C164 O165 1.244 . S
O165 C164 1.244 . S
O166 C142 1.257 . S
O166 Zn145 2.019 . S
H167 C160 0.930 . S
H168 C147 0.930 1_655 S
H169 C159 0.930 1_545 S
Zn170 N174 2.020 . S
Zn170 O178 2.019 . S
Zn170 N180 2.119 . S
Zn170 O188 1.975 . S
C171 N172 1.334 . S
C171 N175 1.336 . S
N172 C171 1.334 . S
N172 C173 1.334 . S
C173 N172 1.334 . S
C173 N174 1.336 . S
N174 Zn170 2.020 . S
N174 C173 1.336 . S
N174 N175 1.354 . S
N175 C171 1.336 . S
N175 N174 1.354 . S
N175 Zn179 2.020 . S
C176 O177 1.244 . S
C176 O200 1.257 . S
O177 C176 1.244 . S
O178 Zn170 2.019 . S
O178 C198 1.257 . S
Zn179 N175 2.020 . S
Zn179 O186 1.975 . S
Zn179 N195 2.119 . S
Zn179 O200 2.019 . S
N180 Zn170 2.119 . S
N180 C182 1.334 . S
N180 C183 1.328 . S
C181 C182 1.391 . S
C181 N184 1.329 . S
C181 H202 0.930 1_545 S
C182 N180 1.334 . S
C182 C181 1.391 . S
C182 H189 0.930 . S
C183 N180 1.328 . S
C183 C185 1.392 . S
C183 H190 0.930 . S
N184 C181 1.329 . S
N184 C185 1.331 . S
C185 C183 1.392 . S
C185 N184 1.331 . S
O186 Zn179 1.975 . S
O186 C187 1.252 . S
C187 O186 1.252 . S
C187 O188 1.252 . S
O188 Zn170 1.975 . S
O188 C187 1.252 . S
H189 C182 0.930 . S
H190 C183 0.930 . S
C191 C192 1.392 . S
C191 N195 1.328 . S
C191 H197 0.930 . S
C192 C191 1.392 . S
C192 N196 1.331 . S
C193 C194 1.391 . S
C193 N196 1.329 . S
C193 H203 0.930 . S
C194 C193 1.391 . S
C194 N195 1.334 . S
C194 H201 0.930 . S
N195 Zn179 2.119 . S
N195 C191 1.328 . S
N195 C194 1.334 . S
N196 C192 1.331 . S
N196 C193 1.329 . S
H197 C191 0.930 . S
C198 O178 1.257 . S
C198 O199 1.244 . S
O199 C198 1.244 . S
O200 C176 1.257 . S
O200 Zn179 2.019 . S
H201 C194 0.930 . S
H202 C181 0.930 1_565 S
H203 C193 0.930 . S
Zn204 N208 2.020 . S
Zn204 O212 2.019 . S
Zn204 N214 2.119 . S
Zn204 O222 1.975 . S
C205 N206 1.334 . S
C205 N209 1.336 . S
N206 C205 1.334 . S
N206 C207 1.334 . S
C207 N206 1.334 . S
C207 N208 1.336 . S
N208 Zn204 2.020 . S
N208 C207 1.336 . S
N208 N209 1.354 . S
N209 C205 1.336 . S
N209 N208 1.354 . S
N209 Zn213 2.020 . S
C210 O211 1.244 . S
C210 O234 1.257 . S
O211 C210 1.244 . S
O212 Zn204 2.019 . S
O212 C232 1.257 . S
Zn213 N209 2.020 . S
Zn213 O220 1.975 . S
Zn213 N229 2.119 . S
Zn213 O234 2.019 . S
N214 Zn204 2.119 . S
N214 C216 1.334 . S
N214 C217 1.328 . S
C215 C216 1.391 . S
C215 N218 1.329 . S
C215 H236 0.930 . S
C216 N214 1.334 . S
C216 C215 1.391 . S
C216 H223 0.930 . S
C217 N214 1.328 . S
C217 C219 1.392 . S
C217 H224 0.930 . S
N218 C215 1.329 . S
N218 C219 1.331 . S
C219 C217 1.392 . S
C219 N218 1.331 . S
O220 Zn213 1.975 . S
O220 C221 1.252 . S
C221 O220 1.252 . S
C221 O222 1.252 . S
O222 Zn204 1.975 . S
O222 C221 1.252 . S
H223 C216 0.930 . S
H224 C217 0.930 . S
C225 C226 1.392 . S
C225 N229 1.328 . S
C225 H231 0.930 . S
C226 C225 1.392 . S
C226 N230 1.331 . S
C227 C228 1.391 . S
C227 N230 1.329 . S
C227 H237 0.930 . S
C228 C227 1.391 . S
C228 N229 1.334 . S
C228 H235 0.930 . S
N229 Zn213 2.119 . S
N229 C225 1.328 . S
N229 C228 1.334 . S
N230 C226 1.331 . S
N230 C227 1.329 . S
H231 C225 0.930 . S
C232 O212 1.257 . S
C232 O233 1.244 . S
O233 C232 1.244 . S
O234 C210 1.257 . S
O234 Zn213 2.019 . S
H235 C228 0.930 . S
H236 C215 0.930 . S
H237 C227 0.930 . S
Zn238 N242 2.020 . S
Zn238 O246 2.019 . S
Zn238 N248 2.119 . S
Zn238 O256 1.975 . S
C239 N240 1.334 . S
C239 N243 1.336 . S
N240 C239 1.334 . S
N240 C241 1.334 . S
C241 N240 1.334 . S
C241 N242 1.336 1_455 S
N242 Zn238 2.020 . S
N242 C241 1.336 1_655 S
N242 N243 1.354 1_655 S
N243 C239 1.336 . S
N243 N242 1.354 1_455 S
N243 Zn247 2.020 1_455 S
C244 O245 1.244 . S
C244 O268 1.257 . S
O245 C244 1.244 . S
O246 Zn238 2.019 . S
O246 C266 1.257 . S
Zn247 N243 2.020 1_655 S
Zn247 O254 1.975 . S
Zn247 N263 2.119 . S
Zn247 O268 2.019 1_655 S
N248 Zn238 2.119 . S
N248 C250 1.334 . S
N248 C251 1.328 . S
C249 C250 1.391 . S
C249 N252 1.329 . S
C249 H270 0.930 1_655 S
C250 N248 1.334 . S
C250 C249 1.391 . S
C250 H257 0.930 . S
C251 N248 1.328 . S
C251 C253 1.392 . S
C251 H258 0.930 . S
N252 C249 1.329 . S
N252 C253 1.331 . S
C253 C251 1.392 . S
C253 N252 1.331 . S
O254 Zn247 1.975 . S
O254 C255 1.252 . S
C255 O254 1.252 . S
C255 O256 1.252 . S
O256 Zn238 1.975 . S
O256 C255 1.252 . S
H257 C250 0.930 . S
H258 C251 0.930 . S
C259 C260 1.392 . S
C259 N263 1.328 . S
C259 H265 0.930 1_655 S
C260 C259 1.392 . S
C260 N264 1.331 . S
C261 C262 1.391 . S
C261 N264 1.329 . S
C261 H271 0.930 . S
C262 C261 1.391 . S
C262 N263 1.334 . S
C262 H269 0.930 . S
N263 Zn247 2.119 . S
N263 C259 1.328 . S
N263 C262 1.334 . S
N264 C260 1.331 . S
N264 C261 1.329 . S
H265 C259 0.930 1_455 S
C266 O246 1.257 . S
C266 O267 1.244 . S
O267 C266 1.244 . S
O268 C244 1.257 . S
O268 Zn247 2.019 1_455 S
H269 C262 0.930 . S
H270 C249 0.930 1_455 S
H271 C261 0.930 . S
Zn272 N276 2.020 . S
Zn272 O280 2.019 . S
Zn272 N282 2.119 . S
Zn272 O290 1.975 . S
C273 N274 1.334 . S
C273 N277 1.336 . S
N274 C273 1.334 . S
N274 C275 1.334 . S
C275 N274 1.334 . S
C275 N276 1.336 1_545 S
N276 Zn272 2.020 . S
N276 C275 1.336 1_565 S
N276 N277 1.354 1_565 S
N277 C273 1.336 . S
N277 N276 1.354 1_545 S
N277 Zn281 2.020 1_545 S
C278 O279 1.244 . S
C278 O302 1.257 . S
O279 C278 1.244 . S
O280 Zn272 2.019 . S
O280 C300 1.257 . S
Zn281 N277 2.020 1_565 S
Zn281 O288 1.975 . S
Zn281 N297 2.119 . S
Zn281 O302 2.019 1_565 S
N282 Zn272 2.119 . S
N282 C284 1.334 . S
N282 C285 1.328 1_556 S
C283 C284 1.391 . S
C283 N286 1.329 1_556 S
C283 H304 0.930 1_565 S
C284 N282 1.334 . S
C284 C283 1.391 . S
C284 H291 0.930 . S
C285 N282 1.328 1_554 S
C285 C287 1.392 . S
C285 H292 0.930 . S
N286 C283 1.329 1_554 S
N286 C287 1.331 . S
C287 C285 1.392 . S
C287 N286 1.331 . S
O288 Zn281 1.975 . S
O288 C289 1.252 . S
C289 O288 1.252 . S
C289 O290 1.252 . S
O290 Zn272 1.975 . S
O290 C289 1.252 . S
H291 C284 0.930 . S
H292 C285 0.930 . S
C293 C294 1.392 . S
C293 N297 1.328 . S
C293 H299 0.930 1_565 S
C294 C293 1.392 . S
C294 N298 1.331 . S
C295 C296 1.391 . S
C295 N298 1.329 . S
C295 H305 0.930 . S
C296 C295 1.391 . S
C296 N297 1.334 . S
C296 H303 0.930 . S
N297 Zn281 2.119 . S
N297 C293 1.328 . S
N297 C296 1.334 . S
N298 C294 1.331 . S
N298 C295 1.329 . S
H299 C293 0.930 1_545 S
C300 O280 1.257 . S
C300 O301 1.244 . S
O301 C300 1.244 . S
O302 C278 1.257 . S
O302 Zn281 2.019 1_545 S
H303 C296 0.930 . S
H304 C283 0.930 1_545 S
H305 C295 0.930 . S
Zn306 N310 2.020 . S
Zn306 O314 2.019 . S
Zn306 N316 2.119 . S
Zn306 O324 1.975 . S
C307 N308 1.334 . S
C307 N311 1.336 . S
N308 C307 1.334 . S
N308 C309 1.334 . S
C309 N308 1.334 . S
C309 N310 1.336 . S
N310 Zn306 2.020 . S
N310 C309 1.336 . S
N310 N311 1.354 . S
N311 C307 1.336 . S
N311 N310 1.354 . S
N311 Zn315 2.020 . S
C312 O313 1.244 . S
C312 O336 1.257 . S
O313 C312 1.244 . S
O314 Zn306 2.019 . S
O314 C334 1.257 . S
Zn315 N311 2.020 . S
Zn315 O322 1.975 . S
Zn315 N331 2.119 . S
Zn315 O336 2.019 . S
N316 Zn306 2.119 . S
N316 C318 1.334 . S
N316 C319 1.328 . S
C317 C318 1.391 . S
C317 N320 1.329 . S
C317 H338 0.930 . S
C318 N316 1.334 . S
C318 C317 1.391 . S
C318 H325 0.930 . S
C319 N316 1.328 . S
C319 C321 1.392 . S
C319 H326 0.930 . S
N320 C317 1.329 . S
N320 C321 1.331 . S
C321 C319 1.392 . S
C321 N320 1.331 . S
O322 Zn315 1.975 . S
O322 C323 1.252 . S
C323 O322 1.252 . S
C323 O324 1.252 . S
O324 Zn306 1.975 . S
O324 C323 1.252 . S
H325 C318 0.930 . S
H326 C319 0.930 . S
C327 C328 1.392 . S
C327 N331 1.328 1_554 S
C327 H333 0.930 . S
C328 C327 1.392 . S
C328 N332 1.331 . S
C329 C330 1.391 . S
C329 N332 1.329 1_556 S
C329 H339 0.930 . S
C330 C329 1.391 . S
C330 N331 1.334 . S
C330 H337 0.930 . S
N331 Zn315 2.119 . S
N331 C327 1.328 1_556 S
N331 C330 1.334 . S
N332 C328 1.331 . S
N332 C329 1.329 1_554 S
H333 C327 0.930 . S
C334 O314 1.257 . S
C334 O335 1.244 . S
O335 C334 1.244 . S
O336 C312 1.257 . S
O336 Zn315 2.019 . S
H337 C330 0.930 . S
H338 C317 0.930 . S
H339 C329 0.930 . S
Zn340 N344 2.020 . S
Zn340 O348 2.019 . S
Zn340 N350 2.119 . S
Zn340 O358 1.975 . S
C341 N342 1.334 . S
C341 N345 1.336 . S
N342 C341 1.334 . S
N342 C343 1.334 . S
C343 N342 1.334 . S
C343 N344 1.336 . S
N344 Zn340 2.020 . S
N344 C343 1.336 . S
N344 N345 1.354 . S
N345 C341 1.336 . S
N345 N344 1.354 . S
N345 Zn349 2.020 . S
C346 O347 1.244 . S
C346 O370 1.257 . S
O347 C346 1.244 . S
O348 Zn340 2.019 . S
O348 C368 1.257 . S
Zn349 N345 2.020 . S
Zn349 O356 1.975 . S
Zn349 N365 2.119 . S
Zn349 O370 2.019 . S
N350 Zn340 2.119 . S
N350 C352 1.334 . S
N350 C353 1.328 1_556 S
C351 C352 1.391 . S
C351 N354 1.329 1_556 S
C351 H372 0.930 . S
C352 N350 1.334 . S
C352 C351 1.391 . S
C352 H359 0.930 . S
C353 N350 1.328 1_554 S
C353 C355 1.392 . S
C353 H360 0.930 . S
N354 C351 1.329 1_554 S
N354 C355 1.331 . S
C355 C353 1.392 . S
C355 N354 1.331 . S
O356 Zn349 1.975 . S
O356 C357 1.252 . S
C357 O356 1.252 . S
C357 O358 1.252 . S
O358 Zn340 1.975 . S
O358 C357 1.252 . S
H359 C352 0.930 . S
H360 C353 0.930 . S
C361 C362 1.392 . S
C361 N365 1.328 . S
C361 H367 0.930 . S
C362 C361 1.392 . S
C362 N366 1.331 . S
C363 C364 1.391 . S
C363 N366 1.329 . S
C363 H373 0.930 1_455 S
C364 C363 1.391 . S
C364 N365 1.334 . S
C364 H371 0.930 . S
N365 Zn349 2.119 . S
N365 C361 1.328 . S
N365 C364 1.334 . S
N366 C362 1.331 . S
N366 C363 1.329 . S
H367 C361 0.930 . S
C368 O348 1.257 . S
C368 O369 1.244 . S
O369 C368 1.244 . S
O370 C346 1.257 . S
O370 Zn349 2.019 . S
H371 C364 0.930 . S
H372 C351 0.930 . S
H373 C363 0.930 1_655 S
Zn374 N378 2.020 1_655 S
Zn374 O382 2.019 1_655 S
Zn374 N384 2.119 . S
Zn374 O392 1.975 . S
C375 N376 1.334 . S
C375 N379 1.336 1_455 S
N376 C375 1.334 . S
N376 C377 1.334 . S
C377 N376 1.334 . S
C377 N378 1.336 . S
N378 Zn374 2.020 1_455 S
N378 C377 1.336 . S
N378 N379 1.354 1_455 S
N379 C375 1.336 1_655 S
N379 N378 1.354 1_655 S
N379 Zn383 2.020 . S
C380 O381 1.244 . S
C380 O404 1.257 . S
O381 C380 1.244 . S
O382 Zn374 2.019 1_455 S
O382 C402 1.257 . S
Zn383 N379 2.020 . S
Zn383 O390 1.975 . S
Zn383 N399 2.119 . S
Zn383 O404 2.019 . S
N384 Zn374 2.119 . S
N384 C386 1.334 . S
N384 C387 1.328 . S
C385 C386 1.391 . S
C385 N388 1.329 . S
C385 H406 0.930 1_545 S
C386 N384 1.334 . S
C386 C385 1.391 . S
C386 H393 0.930 . S
C387 N384 1.328 . S
C387 C389 1.392 . S
C387 H394 0.930 1_655 S
N388 C385 1.329 . S
N388 C389 1.331 . S
C389 C387 1.392 . S
C389 N388 1.331 . S
O390 Zn383 1.975 . S
O390 C391 1.252 . S
C391 O390 1.252 . S
C391 O392 1.252 . S
O392 Zn374 1.975 . S
O392 C391 1.252 . S
H393 C386 0.930 . S
H394 C387 0.930 1_455 S
C395 C396 1.392 . S
C395 N399 1.328 1_554 S
C395 H401 0.930 . S
C396 C395 1.392 . S
C396 N400 1.331 . S
C397 C398 1.391 . S
C397 N400 1.329 1_556 S
C397 H407 0.930 1_655 S
C398 C397 1.391 . S
C398 N399 1.334 . S
C398 H405 0.930 . S
N399 Zn383 2.119 . S
N399 C395 1.328 1_556 S
N399 C398 1.334 . S
N400 C396 1.331 . S
N400 C397 1.329 1_554 S
H401 C395 0.930 . S
C402 O382 1.257 . S
C402 O403 1.244 . S
O403 C402 1.244 . S
O404 C380 1.257 . S
O404 Zn383 2.019 . S
H405 C398 0.930 . S
H406 C385 0.930 1_565 S
H407 C397 0.930 1_455 S
Zn408 N412 2.020 1_545 S
Zn408 O416 2.019 1_545 S
Zn408 N418 2.119 . S
Zn408 O426 1.975 . S
C409 N410 1.334 . S
C409 N413 1.336 1_565 S
N410 C409 1.334 . S
N410 C411 1.334 . S
C411 N410 1.334 . S
C411 N412 1.336 . S
N412 Zn408 2.020 1_565 S
N412 C411 1.336 . S
N412 N413 1.354 1_565 S
N413 C409 1.336 1_545 S
N413 N412 1.354 1_545 S
N413 Zn417 2.020 . S
C414 O415 1.244 . S
C414 O438 1.257 . S
O415 C414 1.244 . S
O416 Zn408 2.019 1_565 S
O416 C436 1.257 . S
Zn417 N413 2.020 . S
Zn417 O424 1.975 . S
Zn417 N433 2.119 . S
Zn417 O438 2.019 . S
N418 Zn408 2.119 . S
N418 C420 1.334 . S
N418 C421 1.328 . S
C419 C420 1.391 . S
C419 N422 1.329 . S
C419 H440 0.930 1_655 S
C420 N418 1.334 . S
C420 C419 1.391 . S
C420 H427 0.930 . S
C421 N418 1.328 . S
C421 C423 1.392 . S
C421 H428 0.930 1_545 S
N422 C419 1.329 . S
N422 C423 1.331 . S
C423 C421 1.392 . S
C423 N422 1.331 . S
O424 Zn417 1.975 . S
O424 C425 1.252 . S
C425 O424 1.252 . S
C425 O426 1.252 . S
O426 Zn408 1.975 . S
O426 C425 1.252 . S
H427 C420 0.930 . S
H428 C421 0.930 1_565 S
C429 C430 1.392 . S
C429 N433 1.328 . S
C429 H435 0.930 . S
C430 C429 1.392 . S
C430 N434 1.331 . S
C431 C432 1.391 . S
C431 N434 1.329 . S
C431 H441 0.930 1_545 S
C432 C431 1.391 . S
C432 N433 1.334 . S
C432 H439 0.930 . S
N433 Zn417 2.119 . S
N433 C429 1.328 . S
N433 C432 1.334 . S
N434 C430 1.331 . S
N434 C431 1.329 . S
H435 C429 0.930 . S
C436 O416 1.257 . S
C436 O437 1.244 . S
O437 C436 1.244 . S
O438 C414 1.257 . S
O438 Zn417 2.019 . S
H439 C432 0.930 . S
H440 C419 0.930 1_455 S
H441 C431 0.930 1_565 S
Zn442 N446 2.020 . S
Zn442 O450 2.019 . S
Zn442 N452 2.119 . S
Zn442 O460 1.975 . S
C443 N444 1.334 . S
C443 N447 1.336 . S
N444 C443 1.334 . S
N444 C445 1.334 . S
C445 N444 1.334 . S
C445 N446 1.336 . S
N446 Zn442 2.020 . S
N446 C445 1.336 . S
N446 N447 1.354 . S
N447 C443 1.336 . S
N447 N446 1.354 . S
N447 Zn451 2.020 . S
C448 O449 1.244 . S
C448 O472 1.257 . S
O449 C448 1.244 . S
O450 Zn442 2.019 . S
O450 C470 1.257 . S
Zn451 N447 2.020 . S
Zn451 O458 1.975 . S
Zn451 N467 2.119 . S
Zn451 O472 2.019 . S
N452 Zn442 2.119 . S
N452 C454 1.334 . S
N452 C455 1.328 . S
C453 C454 1.391 . S
C453 N456 1.329 . S
C453 H474 0.930 1_565 S
C454 N452 1.334 . S
C454 C453 1.391 . S
C454 H461 0.930 . S
C455 N452 1.328 . S
C455 C457 1.392 . S
C455 H462 0.930 . S
N456 C453 1.329 . S
N456 C457 1.331 . S
C457 C455 1.392 . S
C457 N456 1.331 . S
O458 Zn451 1.975 . S
O458 C459 1.252 . S
C459 O458 1.252 . S
C459 O460 1.252 . S
O460 Zn442 1.975 . S
O460 C459 1.252 . S
H461 C454 0.930 . S
H462 C455 0.930 . S
C463 C464 1.392 . S
C463 N467 1.328 . S
C463 H469 0.930 . S
C464 C463 1.392 . S
C464 N468 1.331 . S
C465 C466 1.391 . S
C465 N468 1.329 . S
C465 H475 0.930 . S
C466 C465 1.391 . S
C466 N467 1.334 . S
C466 H473 0.930 . S
N467 Zn451 2.119 . S
N467 C463 1.328 . S
N467 C466 1.334 . S
N468 C464 1.331 . S
N468 C465 1.329 . S
H469 C463 0.930 . S
C470 O450 1.257 . S
C470 O471 1.244 . S
O471 C470 1.244 . S
O472 C448 1.257 . S
O472 Zn451 2.019 . S
H473 C466 0.930 . S
H474 C453 0.930 1_545 S
H475 C465 0.930 . S
Zn476 N480 2.020 . S
Zn476 O484 2.019 . S
Zn476 N486 2.119 . S
Zn476 O494 1.975 . S
C477 N478 1.334 . S
C477 N481 1.336 . S
N478 C477 1.334 . S
N478 C479 1.334 . S
C479 N478 1.334 . S
C479 N480 1.336 . S
N480 Zn476 2.020 . S
N480 C479 1.336 . S
N480 N481 1.354 . S
N481 C477 1.336 . S
N481 N480 1.354 . S
N481 Zn485 2.020 . S
C482 O483 1.244 . S
C482 O506 1.257 . S
O483 C482 1.244 . S
O484 Zn476 2.019 . S
O484 C504 1.257 . S
Zn485 N481 2.020 . S
Zn485 O492 1.975 . S
Zn485 N501 2.119 . S
Zn485 O506 2.019 . S
N486 Zn476 2.119 . S
N486 C488 1.334 . S
N486 C489 1.328 . S
C487 C488 1.391 . S
C487 N490 1.329 . S
C487 H508 0.930 . S
C488 N486 1.334 . S
C488 C487 1.391 . S
C488 H495 0.930 . S
C489 N486 1.328 . S
C489 C491 1.392 . S
C489 H496 0.930 . S
N490 C487 1.329 . S
N490 C491 1.331 . S
C491 C489 1.392 . S
C491 N490 1.331 . S
O492 Zn485 1.975 . S
O492 C493 1.252 . S
C493 O492 1.252 . S
C493 O494 1.252 . S
O494 Zn476 1.975 . S
O494 C493 1.252 . S
H495 C488 0.930 . S
H496 C489 0.930 . S
C497 C498 1.392 . S
C497 N501 1.328 . S
C497 H503 0.930 . S
C498 C497 1.392 . S
C498 N502 1.331 . S
C499 C500 1.391 . S
C499 N502 1.329 . S
C499 H509 0.930 . S
C500 C499 1.391 . S
C500 N501 1.334 . S
C500 H507 0.930 . S
N501 Zn485 2.119 . S
N501 C497 1.328 . S
N501 C500 1.334 . S
N502 C498 1.331 . S
N502 C499 1.329 . S
H503 C497 0.930 . S
C504 O484 1.257 . S
C504 O505 1.244 . S
O505 C504 1.244 . S
O506 C482 1.257 . S
O506 Zn485 2.019 . S
H507 C500 0.930 . S
H508 C487 0.930 . S
H509 C499 0.930 . S
Zn510 N514 2.020 1_455 S
Zn510 O518 2.019 1_455 S
Zn510 N520 2.119 . S
Zn510 O528 1.975 . S
C511 N512 1.334 . S
C511 N515 1.336 1_655 S
N512 C511 1.334 . S
N512 C513 1.334 . S
C513 N512 1.334 . S
C513 N514 1.336 . S
N514 Zn510 2.020 1_655 S
N514 C513 1.336 . S
N514 N515 1.354 1_655 S
N515 C511 1.336 1_455 S
N515 N514 1.354 1_455 S
N515 Zn519 2.020 . S
C516 O517 1.244 . S
C516 O540 1.257 . S
O517 C516 1.244 . S
O518 Zn510 2.019 1_655 S
O518 C538 1.257 . S
Zn519 N515 2.020 . S
Zn519 O526 1.975 . S
Zn519 N535 2.119 . S
Zn519 O540 2.019 . S
N520 Zn510 2.119 . S
N520 C522 1.334 . S
N520 C523 1.328 . S
C521 C522 1.391 . S
C521 N524 1.329 . S
C521 H542 0.930 . S
C522 N520 1.334 . S
C522 C521 1.391 . S
C522 H529 0.930 . S
C523 N520 1.328 . S
C523 C525 1.392 . S
C523 H530 0.930 1_455 S
N524 C521 1.329 . S
N524 C525 1.331 . S
C525 C523 1.392 . S
C525 N524 1.331 . S
O526 Zn519 1.975 . S
O526 C527 1.252 . S
C527 O526 1.252 . S
C527 O528 1.252 . S
O528 Zn510 1.975 . S
O528 C527 1.252 . S
H529 C522 0.930 . S
H530 C523 0.930 1_655 S
C531 C532 1.392 . S
C531 N535 1.328 . S
C531 H537 0.930 . S
C532 C531 1.392 . S
C532 N536 1.331 . S
C533 C534 1.391 . S
C533 N536 1.329 . S
C533 H543 0.930 1_455 S
C534 C533 1.391 . S
C534 N535 1.334 . S
C534 H541 0.930 . S
N535 Zn519 2.119 . S
N535 C531 1.328 . S
N535 C534 1.334 . S
N536 C532 1.331 . S
N536 C533 1.329 . S
H537 C531 0.930 . S
C538 O518 1.257 . S
C538 O539 1.244 . S
O539 C538 1.244 . S
O540 C516 1.257 . S
O540 Zn519 2.019 . S
H541 C534 0.930 . S
H542 C521 0.930 . S
H543 C533 0.930 1_655 S
C275 C3 4.608 1_546 S
C37 C307 4.608 1_554 S
C343 C69 4.608 1_456 S
C103 C375 4.608 1_664 S
C137 C409 4.608 1_445 S
C171 C443 4.608 1_545 S
C477 C207 4.608 . S
C511 C241 4.608 1_655 S
C1 C40 3.128 . S
C96 C35 3.128 . S
C130 C71 3.128 . S
C6 C105 3.128 . S
C244 C139 3.128 . S
C164 C173 3.128 . S
C205 C198 3.128 . S
C239 C210 3.128 . S
C334 C273 3.128 . S
C309 C346 3.128 . S
C402 C341 3.128 . S
C278 C377 3.128 . S
C538 C411 3.128 . S
C436 C445 3.128 . S
C470 C479 3.128 . S
C504 C513 3.128 . S
C328 C28 1.080 . S
C355 C62 1.080 . S
C396 C74 1.079 . S
C287 C108 1.080 . S
C532 C142 1.080 . S
C430 C176 1.079 . S
C232 C464 1.080 . S
C498 C266 1.080 . S
C300 C49 1.080 . S
C312 C90 1.080 . S
C368 C124 1.079 . S
C15 C380 1.080 . S
C414 C253 1.080 . S
C158 C448 1.079 . S
C482 C192 1.080 . S
C516 C219 1.080 . S
C185 C22 1.407 . S
C226 C56 1.407 . S
C260 C83 1.407 . S
C151 C117 1.407 . S
C457 C294 1.407 . S
C321 C491 1.407 . S
C362 C525 1.407 . S
C389 C423 1.407 . S
C85 C17 3.248 . S
C51 C119 3.248 . S
C221 C153 3.248 . S
C255 C187 3.248 . S
C289 C357 3.248 . S
C391 C323 3.248 . S
C493 C425 3.248 . S
C527 C459 3.248 . S
