# Generated by pormake.
# Topology smc, (6)-cn, num edge types: 1
# Building blocks:
#     Node 0, Type 0, BuildingBlock: CUWYAW_clean_sbu_0, # of connection points: 6
#     Node 1, Type 0, BuildingBlock: CUWYAW_clean_sbu_0, # of connection points: 6
#     Node 2, Type 0, BuildingBlock: CUWYAW_clean_sbu_0, # of connection points: 6
#     Node 3, Type 0, BuildingBlock: CUWYAW_clean_sbu_0, # of connection points: 6
#     Node 4, Type 0, BuildingBlock: CUWYAW_clean_sbu_0, # of connection points: 6
#     Node 5, Type 0, BuildingBlock: CUWYAW_clean_sbu_0, # of connection points: 6
#     Node 6, Type 0, BuildingBlock: CUWYAW_clean_sbu_0, # of connection points: 6
#     Node 7, Type 0, BuildingBlock: CUWYAW_clean_sbu_0, # of connection points: 6
#     Node 8, Type 0, BuildingBlock: CUWYAW_clean_sbu_0, # of connection points: 6
#     Edge 9, Type (0, 0), BuildingBlock: XIVTED_clean_linker_0, # of connection points: 2
#     Edge 10, Type (0, 0), BuildingBlock: XIVTED_clean_linker_0, # of connection points: 2
#     Edge 11, Type (0, 0), BuildingBlock: XIVTED_clean_linker_0, # of connection points: 2
#     Edge 12, Type (0, 0), BuildingBlock: XIVTED_clean_linker_0, # of connection points: 2
#     Edge 13, Type (0, 0), BuildingBlock: XIVTED_clean_linker_0, # of connection points: 2
#     Edge 14, Type (0, 0), BuildingBlock: XIVTED_clean_linker_0, # of connection points: 2
#     Edge 15, Type (0, 0), BuildingBlock: XIVTED_clean_linker_0, # of connection points: 2
#     Edge 16, Type (0, 0), BuildingBlock: XIVTED_clean_linker_0, # of connection points: 2
#     Edge 17, Type (0, 0), BuildingBlock: XIVTED_clean_linker_0, # of connection points: 2
#     Edge 18, Type (0, 0), BuildingBlock: XIVTED_clean_linker_0, # of connection points: 2
#     Edge 19, Type (0, 0), BuildingBlock: XIVTED_clean_linker_0, # of connection points: 2
#     Edge 20, Type (0, 0), BuildingBlock: XIVTED_clean_linker_0, # of connection points: 2
#     Edge 21, Type (0, 0), BuildingBlock: XIVTED_clean_linker_0, # of connection points: 2
#     Edge 22, Type (0, 0), BuildingBlock: XIVTED_clean_linker_0, # of connection points: 2
#     Edge 23, Type (0, 0), BuildingBlock: XIVTED_clean_linker_0, # of connection points: 2
#     Edge 24, Type (0, 0), BuildingBlock: XIVTED_clean_linker_0, # of connection points: 2
#     Edge 25, Type (0, 0), BuildingBlock: XIVTED_clean_linker_0, # of connection points: 2
#     Edge 26, Type (0, 0), BuildingBlock: XIVTED_clean_linker_0, # of connection points: 2
#     Edge 27, Type (0, 0), BuildingBlock: XIVTED_clean_linker_0, # of connection points: 2
#     Edge 28, Type (0, 0), BuildingBlock: XIVTED_clean_linker_0, # of connection points: 2
#     Edge 29, Type (0, 0), BuildingBlock: XIVTED_clean_linker_0, # of connection points: 2
#     Edge 30, Type (0, 0), BuildingBlock: XIVTED_clean_linker_0, # of connection points: 2
#     Edge 31, Type (0, 0), BuildingBlock: XIVTED_clean_linker_0, # of connection points: 2
#     Edge 32, Type (0, 0), BuildingBlock: XIVTED_clean_linker_0, # of connection points: 2
#     Edge 33, Type (0, 0), BuildingBlock: XIVTED_clean_linker_0, # of connection points: 2
#     Edge 34, Type (0, 0), BuildingBlock: XIVTED_clean_linker_0, # of connection points: 2
#     Edge 35, Type (0, 0), BuildingBlock: XIVTED_clean_linker_0, # of connection points: 2
# Relax obj value: 0.194
# Max RMSD: 0.318
# Mean RMSD: 0.318
data_MOF--net-smc--node1-CUWYAW_clean_sbu_0--edge1-XIVTED_clean_linker_0
_symmetry_space_group_name_H-M    P1
_symmetry_Int_Tables_number       1
_symmetry_cell_setting            triclinic
loop_
_symmetry_equiv_pos_as_xyz
'x, y, z'
_cell_length_a     39.725378
_cell_length_b     39.761423
_cell_length_c     39.732558
_cell_angle_alpha  90.068864
_cell_angle_beta   90.087931
_cell_angle_gamma 119.93264
loop_
_atom_site_label
_atom_site_type_symbol
_atom_site_fract_x
_atom_site_fract_y
_atom_site_fract_z
_atom_type_partial_charge
C0 C 0.94038 0.32879 0.02065 0.0
Eu1 Eu 0.99058 0.40289 0.02185 0.0
C2 C 0.89728 0.30558 0.02113 0.0
C3 C 0.8783 0.28624 0.05076 0.0
C4 C 0.83782 0.26444 0.05212 0.0
C5 C 0.81507 0.26097 0.02374 0.0
C6 C 0.834 0.28065 0.9941 0.0
C7 C 0.87466 0.30275 0.9928 0.0
C8 C 0.02455 0.43923 0.08081 0.0
C9 C 0.95765 0.46051 0.02814 0.0
C10 C 0.08535 0.56064 1.01263 0.0
Eu11 Eu 0.04543 0.48494 1.01146 0.0
C12 C 0.12133 0.59882 1.01015 0.0
C13 C 0.13276 0.61827 0.97916 0.0
C14 C 0.1612 0.65754 0.97786 0.0
C15 C 0.17886 0.67836 1.00753 0.0
C16 C 0.16879 0.65827 0.03833 0.0
C17 C 0.14027 0.61903 0.03962 0.0
C18 C 1.016 0.44323 0.95356 0.0
C19 C 0.08328 0.43321 1.00707 0.0
O20 O 0.9572 0.34883 0.99357 0.0
O21 O 0.95681 0.34804 0.04815 0.0
O22 O 0.98747 0.4171 0.07636 0.0
O23 O 0.04151 0.44465 0.05278 0.0
O24 O 0.94802 0.42518 0.01834 0.0
O25 O 0.99417 0.48625 0.03346 0.0
O26 O 0.0795 0.53906 0.03924 0.0
O27 O 0.06956 0.54041 0.98534 0.0
O28 O 0.05201 0.46977 0.95776 0.0
O29 O 0.99669 0.44079 0.97958 0.0
O30 O 0.09072 0.46862 1.0135 0.0
O31 O 0.04707 0.4032 1.00617 0.0
H32 H 0.89483 0.28803 0.07308 0.0
H33 H 0.82436 0.25043 0.07561 0.0
H34 H 0.81749 0.27837 0.97165 0.0
H35 H 0.88828 0.31737 0.96956 0.0
H36 H 0.11833 0.60377 0.95602 0.0
H37 H 0.16779 0.672 0.9537 0.0
H38 H 0.18224 0.67307 0.06163 0.0
H39 H 0.1318 0.60505 0.06397 0.0
C40 C 0.71294 0.63114 0.02506 0.0
Eu41 Eu 0.63878 0.60749 0.02414 0.0
C42 C 0.73616 0.61125 0.02445 0.0
C43 C 0.75753 0.61281 0.05316 0.0
C44 C 0.77914 0.59385 0.0538 0.0
C45 C 0.7803 0.57303 0.02559 0.0
C46 C 0.7586 0.57114 0.99687 0.0
C47 C 0.73669 0.58996 0.99632 0.0
C48 C 0.60035 0.6048 0.08233 0.0
C49 C 0.58113 0.5168 0.02813 0.0
C50 C 0.48125 0.54472 1.0117 0.0
Eu51 Eu 0.55694 0.58054 1.01185 0.0
C52 C 0.4431 0.54266 1.00996 0.0
C53 C 0.42392 0.53655 0.97891 0.0
C54 C 0.3846 0.52563 0.9777 0.0
C55 C 0.36353 0.52052 1.00754 0.0
C56 C 0.38333 0.52866 0.0385 0.0
C57 C 0.42261 0.53942 0.03969 0.0
C58 C 0.5996 0.59288 0.95479 0.0
C59 C 0.60907 0.67022 1.0089 0.0
O60 O 0.69424 0.63052 0.99771 0.0
O61 O 0.69233 0.62574 0.05214 0.0
O62 O 0.62288 0.59022 0.07848 0.0
O63 O 0.59615 0.61638 0.05388 0.0
O64 O 0.61674 0.54286 0.01945 0.0
O65 O 0.55501 0.52724 0.03285 0.0
O66 O 0.50223 0.55765 0.03909 0.0
O67 O 0.50208 0.55205 0.98441 0.0
O68 O 0.57274 0.60205 0.95827 0.0
O69 O 0.60184 0.57612 0.981 0.0
O70 O 0.5735 0.64226 1.0148 0.0
O71 O 0.63904 0.66388 1.00835 0.0
H72 H 0.75739 0.62864 0.07532 0.0
H73 H 0.79471 0.59533 0.07665 0.0
H74 H 0.75905 0.55572 0.97455 0.0
H75 H 0.72039 0.58792 0.97382 0.0
H76 H 0.43866 0.53814 0.95555 0.0
H77 H 0.37034 0.51921 0.9534 0.0
H78 H 0.36827 0.52576 0.06195 0.0
H79 H 0.43641 0.54342 0.06405 0.0
C80 C 0.41046 0.10169 0.02208 0.0
Eu81 Eu 0.4346 0.05159 0.02245 0.0
C82 C 0.43007 0.14473 0.02204 0.0
C83 C 0.42688 0.16389 0.05049 0.0
C84 C 0.44538 0.20435 0.05165 0.0
C85 C 0.46738 0.22693 0.0242 0.0
C86 C 0.47099 0.20779 0.99576 0.0
C87 C 0.45258 0.16713 0.9947 0.0
C88 C 0.43794 0.01767 0.08097 0.0
C89 C 0.52535 0.08509 0.02773 0.0
C90 C 0.49861 0.95786 1.01071 0.0
Eu91 Eu 0.46224 0.99729 1.01094 0.0
C92 C 0.50086 0.92193 1.0081 0.0
C93 C 0.51471 0.91409 0.97832 0.0
C94 C 0.5256 0.88568 0.97762 0.0
C95 C 0.5229 0.86434 1.00672 0.0
C96 C 0.50702 0.87079 0.03603 0.0
C97 C 0.49632 0.89939 0.03677 0.0
C98 C 0.45034 0.02798 0.95373 0.0
C99 C 0.37249 0.95881 1.00739 0.0
O100 O 0.4125 0.0842 0.99488 0.0
O101 O 0.41473 0.0861 0.04947 0.0
O102 O 0.45264 0.05469 0.07669 0.0
O103 O 0.42614 1.00066 0.05291 0.0
O104 O 0.49922 0.09434 0.01831 0.0
O105 O 0.51505 0.04867 0.03282 0.0
O106 O 0.48429 0.96452 0.03789 0.0
O107 O 0.49246 0.9726 0.98359 0.0
O108 O 0.44054 0.99181 0.95713 0.0
O109 O 0.46691 0.04652 0.98013 0.0
O110 O 0.40081 0.95164 1.01314 0.0
O111 O 0.37838 0.99494 1.00695 0.0
H112 H 0.41009 0.14747 0.07206 0.0
H113 H 0.44257 0.21793 0.07429 0.0
H114 H 0.48738 0.22413 0.97404 0.0
H115 H 0.45587 0.15337 0.97242 0.0
H116 H 0.51922 0.93142 0.95597 0.0
H117 H 0.53811 0.88202 0.95468 0.0
H118 H 0.50377 0.85444 0.05875 0.0
H119 H 0.48614 0.90496 0.06025 0.0
C120 C 0.60753 0.66374 0.35854 0.0
Eu121 Eu 0.65753 0.73794 0.35871 0.0
C122 C 0.56439 0.64036 0.35853 0.0
C123 C 0.54491 0.62134 0.3881 0.0
C124 C 0.50439 0.59929 0.3889 0.0
C125 C 0.48212 0.59528 0.36002 0.0
C126 C 0.50156 0.61463 0.33043 0.0
C127 C 0.54223 0.63694 0.32968 0.0
C128 C 0.69325 0.77723 0.41666 0.0
C129 C 0.62388 0.79592 0.35898 0.0
C130 C 0.75338 0.89492 0.34305 0.0
Eu131 Eu 0.71275 0.81946 0.34496 0.0
C132 C 0.78913 0.93334 0.34305 0.0
C133 C 0.80222 0.95362 0.31259 0.0
C134 C 0.8304 0.9929 0.31241 0.0
C135 C 0.84639 0.01299 0.34273 0.0
C136 C 0.83458 0.99214 0.37315 0.0
C137 C 0.8061 0.95279 0.37332 0.0
C138 C 0.68319 0.77501 0.28869 0.0
C139 C 0.75008 0.76708 0.34504 0.0
O140 O 0.62461 0.68321 0.3313 0.0
O141 O 0.62363 0.68361 0.38587 0.0
O142 O 0.65615 0.75458 0.41285 0.0
O143 O 0.70892 0.78133 0.38816 0.0
O144 O 0.61415 0.75916 0.35627 0.0
O145 O 0.66033 0.82347 0.35916 0.0
O146 O 0.74058 0.87531 0.37109 0.0
O147 O 0.74455 0.87289 0.31631 0.0
O148 O 0.71912 0.80194 0.29228 0.0
O149 O 0.66381 0.77359 0.31441 0.0
O150 O 0.75754 0.80264 0.35078 0.0
O151 O 0.7138 0.73725 0.34398 0.0
H152 H 0.56107 0.62356 0.41078 0.0
H153 H 0.49052 0.58551 0.41233 0.0
H154 H 0.48543 0.61192 0.30762 0.0
H155 H 0.55621 0.65124 0.30644 0.0
H156 H 0.78917 0.93969 0.28888 0.0
H157 H 0.8381 1.00787 0.2885 0.0
H158 H 0.84668 1.00639 0.39695 0.0
H159 H 0.7963 0.93809 0.39726 0.0
C160 C 0.37919 0.96545 0.35667 0.0
Eu161 Eu 0.30496 0.94134 0.35594 0.0
C162 C 0.40224 0.94536 0.35621 0.0
C163 C 0.42246 0.9454 0.38529 0.0
C164 C 0.44373 0.92603 0.38575 0.0
C165 C 0.44552 0.90631 0.35703 0.0
C166 C 0.42519 0.90613 0.32793 0.0
C167 C 0.40367 0.9253 0.32753 0.0
C168 C 0.26598 0.93749 0.41366 0.0
C169 C 0.24752 0.85055 0.3606 0.0
C170 C 0.14813 0.87779 0.33815 0.0
Eu171 Eu 0.22374 0.91408 0.34197 0.0
C172 C 0.1099 0.87559 0.33881 0.0
C173 C 0.08867 0.86766 0.30875 0.0
C174 C 0.04946 0.857 0.30925 0.0
C175 C 0.03045 0.8541 0.33988 0.0
C176 C 0.05229 0.86392 0.36988 0.0
C177 C 0.09156 0.87437 0.36937 0.0
C178 C 0.26825 0.92588 0.28614 0.0
C179 C 0.27375 1.00358 0.34285 0.0
O180 O 0.3602 0.96424 0.32931 0.0
O181 O 0.35885 0.96066 0.38383 0.0
O182 O 0.28904 0.92348 0.41019 0.0
O183 O 0.26143 0.94905 0.38528 0.0
O184 O 0.28347 0.87667 0.35291 0.0
O185 O 0.22086 0.86056 0.36313 0.0
O186 O 0.16722 0.88287 0.36629 0.0
O187 O 0.17077 0.89315 0.31212 0.0
O188 O 0.24302 0.93723 0.28891 0.0
O189 O 0.26906 0.90904 0.31269 0.0
O190 O 0.23879 0.97473 0.34912 0.0
O191 O 0.30417 0.9979 0.34098 0.0
H192 H 0.42185 0.96051 0.40778 0.0
H193 H 0.45941 0.92714 0.40844 0.0
H194 H 0.4256 0.89083 0.3055 0.0
H195 H 0.38814 0.92429 0.30478 0.0
H196 H 0.10181 0.86762 0.28488 0.0
H197 H 0.03368 0.84911 0.28566 0.0
H198 H 0.03887 0.86271 0.39389 0.0
H199 H 0.10703 0.87994 0.39304 0.0
C200 C 0.07802 0.43645 0.35758 0.0
Eu201 Eu 0.10167 0.38598 0.35698 0.0
C202 C 0.0981 0.47944 0.35764 0.0
C203 C 0.09445 0.49874 0.38575 0.0
C204 C 0.11356 0.53924 0.38693 0.0
C205 C 0.13662 0.56159 0.35983 0.0
C206 C 0.14061 0.54224 0.33174 0.0
C207 C 0.12168 0.50161 0.33069 0.0
C208 C 0.10623 0.35262 0.41537 0.0
C209 C 0.19225 0.419 0.36104 0.0
C210 C 0.16454 0.29199 0.34278 0.0
Eu211 Eu 0.12825 0.33142 0.34444 0.0
C212 C 0.16654 0.25601 0.33967 0.0
C213 C 0.17302 0.24402 0.30823 0.0
C214 C 0.1835 0.21529 0.30617 0.0
C215 C 0.18814 0.19826 0.33553 0.0
C216 C 0.18005 0.20929 0.36684 0.0
C217 C 0.16929 0.23768 0.36885 0.0
C218 C 0.11528 0.36172 0.28766 0.0
C219 C 0.03861 0.29337 0.34295 0.0
O220 O 0.07981 0.41916 0.33019 0.0
O221 O 0.08233 0.42056 0.38474 0.0
O222 O 0.12141 0.38962 0.41062 0.0
O223 O 0.09354 0.33516 0.38758 0.0
O224 O 0.16621 0.42852 0.35209 0.0
O225 O 0.18172 0.38249 0.36593 0.0
O226 O 0.15061 0.29835 0.37035 0.0
O227 O 0.15804 0.30702 0.31605 0.0
O228 O 0.10459 0.32538 0.29119 0.0
O229 O 0.1326 0.38047 0.31375 0.0
O230 O 0.06688 0.28597 0.34795 0.0
O231 O 0.04478 0.32957 0.3425 0.0
H232 H 0.07686 0.48243 0.40702 0.0
H233 H 0.11042 0.55298 0.40931 0.0
H234 H 0.15779 0.55841 0.31027 0.0
H235 H 0.12543 0.48765 0.30874 0.0
H236 H 0.17167 0.25797 0.28527 0.0
H237 H 0.18882 0.20713 0.28159 0.0
H238 H 0.18393 0.19752 0.39013 0.0
H239 H 0.16525 0.24678 0.39351 0.0
C240 C 0.27212 0.99262 0.70229 0.0
Eu241 Eu 0.32284 0.06602 0.69612 0.0
C242 C 0.22938 0.96962 0.70107 0.0
C243 C 0.20994 0.94018 0.72476 0.0
C244 C 0.16948 0.91811 0.72461 0.0
C245 C 0.14744 0.92476 0.70051 0.0
C246 C 0.16701 0.95485 0.67703 0.0
C247 C 0.20764 0.97722 0.6774 0.0
C248 C 0.36381 0.11303 0.74891 0.0
C249 C 0.29346 0.12813 0.69173 0.0
C250 C 0.4316 0.22409 0.67521 0.0
Eu251 Eu 0.38127 0.15116 0.67487 0.0
C252 C 0.46029 0.26568 0.67545 0.0
C253 C 0.47699 0.28501 0.64528 0.0
C254 C 0.50344 0.32479 0.64541 0.0
C255 C 0.51413 0.34592 0.6758 0.0
C256 C 0.49795 0.32607 0.70607 0.0
C257 C 0.47104 0.28639 0.70584 0.0
C258 C 0.3404 0.10727 0.61965 0.0
C259 C 0.41419 0.0925 0.67864 0.0
O260 O 0.29 1.00829 0.67416 0.0
O261 O 0.28696 0.01607 0.72797 0.0
O262 O 0.32645 0.09007 0.74827 0.0
O263 O 0.37644 0.11367 0.71951 0.0
O264 O 0.28295 0.09109 0.6876 0.0
O265 O 0.33025 0.1554 0.69326 0.0
O266 O 0.40498 0.20793 0.69864 0.0
O267 O 0.43078 0.20069 0.65152 0.0
O268 O 0.36641 0.14371 0.61792 0.0
O269 O 0.33737 0.09839 0.65009 0.0
O270 O 0.42228 0.12878 0.67677 0.0
O271 O 0.37853 0.06305 0.68493 0.0
H272 H 0.22614 0.9343 0.74354 0.0
H273 H 0.1555 0.89591 0.74363 0.0
H274 H 0.15106 0.96067 0.658 0.0
H275 H 0.222 1.00025 0.6591 0.0
H276 H 0.46899 0.26957 0.6215 0.0
H277 H 0.51468 0.33904 0.62152 0.0
H278 H 0.50607 0.3411 0.73002 0.0
H279 H 0.45878 0.27187 0.72947 0.0
C280 C 0.04504 0.29513 0.69023 0.0
Eu281 Eu 0.97111 0.27274 0.69038 0.0
C282 C 0.06802 0.27494 0.69056 0.0
C283 C 0.08982 0.27751 0.71927 0.0
C284 C 0.11205 0.25918 0.72024 0.0
C285 C 0.1134 0.23799 0.69238 0.0
C286 C 0.09107 0.23488 0.66375 0.0
C287 C 0.06858 0.25309 0.66285 0.0
C288 C 0.93222 0.26991 0.74841 0.0
C289 C 0.9111 0.18181 0.69043 0.0
C290 C 0.81565 0.21675 0.67144 0.0
Eu291 Eu 0.89093 0.24966 0.6758 0.0
C292 C 0.77663 0.21249 0.67457 0.0
C293 C 0.75793 0.21623 0.64597 0.0
C294 C 0.71829 0.20415 0.64673 0.0
C295 C 0.69625 0.18753 0.676 0.0
C296 C 0.71551 0.18542 0.70502 0.0
C297 C 0.75519 0.19778 0.70432 0.0
C298 C 0.9358 0.26236 0.62012 0.0
C299 C 0.94467 0.33831 0.67851 0.0
O300 O 0.02543 0.2926 0.66294 0.0
O301 O 0.02553 0.29218 0.71754 0.0
O302 O 0.95439 0.25491 0.74445 0.0
O303 O 0.92855 0.28212 0.72004 0.0
O304 O 0.94823 0.20791 0.68838 0.0
O305 O 0.88449 0.19209 0.68979 0.0
O306 O 0.83384 0.21514 0.69836 0.0
O307 O 0.839 0.23765 0.64723 0.0
O308 O 0.91148 0.27477 0.62364 0.0
O309 O 0.93532 0.24366 0.64589 0.0
O310 O 0.90938 0.31097 0.6861 0.0
O311 O 0.97344 0.33045 0.67515 0.0
H312 H 0.08976 0.29384 0.74109 0.0
H313 H 0.12814 0.2616 0.743 0.0
H314 H 0.09161 0.21913 0.64171 0.0
H315 H 0.05196 0.25029 0.64035 0.0
H316 H 0.77352 0.22692 0.6225 0.0
H317 H 0.7048 0.20701 0.62405 0.0
H318 H 0.69965 0.17234 0.72793 0.0
H319 H 0.76853 0.19386 0.72664 0.0
C320 C 0.74446 0.7682 0.69307 0.0
Eu321 Eu 0.76749 0.71727 0.6921 0.0
C322 C 0.7649 0.8113 0.69179 0.0
C323 C 0.7729 0.83284 0.7218 0.0
C324 C 0.79219 0.87339 0.72117 0.0
C325 C 0.80374 0.8935 0.69049 0.0
C326 C 0.79588 0.87205 0.66044 0.0
C327 C 0.77675 0.83142 0.66107 0.0
C328 C 0.76981 0.68027 0.74949 0.0
C329 C 0.85782 0.74913 0.69667 0.0
C330 C 0.82928 0.62172 0.67737 0.0
Eu331 Eu 0.79392 0.66206 0.67848 0.0
C332 C 0.83228 0.58631 0.67369 0.0
C333 C 0.85082 0.58215 0.64524 0.0
C334 C 0.86222 0.55412 0.64444 0.0
C335 C 0.85532 0.52949 0.67213 0.0
C336 C 0.83475 0.53224 0.69984 0.0
C337 C 0.82353 0.56047 0.70069 0.0
C338 C 0.78109 0.69328 0.62221 0.0
C339 C 0.70419 0.62545 0.67549 0.0
O340 O 0.74414 0.74954 0.66579 0.0
O341 O 0.75016 0.75316 0.72016 0.0
O342 O 0.78439 0.71743 0.74656 0.0
O343 O 0.7583 0.66516 0.72077 0.0
O344 O 0.83217 0.75932 0.68805 0.0
O345 O 0.84689 0.71245 0.70093 0.0
O346 O 0.81347 0.62664 0.70442 0.0
O347 O 0.82493 0.63841 0.6507 0.0
O348 O 0.77171 0.65717 0.62514 0.0
O349 O 0.79831 0.71185 0.64852 0.0
O350 O 0.73214 0.61743 0.68018 0.0
O351 O 0.71056 0.6617 0.67644 0.0
H352 H 0.76405 0.81831 0.74589 0.0
H353 H 0.79727 0.88897 0.74472 0.0
H354 H 0.80471 0.8867 0.6364 0.0
H355 H 0.7712 0.81585 0.63747 0.0
H356 H 0.85858 0.60208 0.62429 0.0
H357 H 0.87837 0.55332 0.62283 0.0
H358 H 0.82821 0.5133 0.72135 0.0
H359 H 0.80959 0.56311 0.72314 0.0
H360 H 0.32118 0.53517 0.96099 0.0
H361 H 0.11643 0.4057 0.05092 0.0
H362 H 0.30791 0.46918 0.05121 0.0
H363 H 0.13045 0.45869 0.95371 0.0
H364 H 0.18564 0.42513 0.0507 0.0
H365 H 0.25085 0.50598 0.95779 0.0
C366 C 0.30355 0.51444 0.98009 0.0
C367 C 0.32073 0.50464 1.00635 0.0
C368 C 0.17332 0.43144 0.02894 0.0
C369 C 0.23977 0.47117 1.00298 0.0
C370 C 0.13369 0.4196 0.02879 0.0
C371 C 0.11763 0.42938 1.00171 0.0
C372 C 0.19689 0.4537 1.00203 0.0
C373 C 0.1416 0.44945 0.97447 0.0
C374 C 0.26328 0.49778 0.97828 0.0
C375 C 0.29617 0.47813 0.03074 0.0
N376 N 0.18008 0.46132 0.97547 0.0
N377 N 0.25699 0.46238 0.02849 0.0
H378 H 0.56118 0.85086 0.05811 0.0
H379 H 0.5945 0.69836 0.95274 0.0
H380 H 0.52178 0.81664 0.95582 0.0
H381 H 0.62608 0.72473 0.05707 0.0
H382 H 0.57521 0.74792 0.95151 0.0
H383 H 0.58945 0.80873 0.05725 0.0
C384 C 0.5581 0.83429 0.03552 0.0
C385 C 0.53885 0.83741 1.00699 0.0
C386 C 0.58745 0.74381 0.97445 0.0
C387 C 0.57246 0.78988 1.00557 0.0
C388 C 0.59926 0.71613 0.97491 0.0
C389 C 0.61339 0.70873 1.00464 0.0
C390 C 0.58927 0.76386 1.00416 0.0
C391 C 0.61682 0.73081 0.0333 0.0
C392 C 0.57473 0.81055 0.03496 0.0
C393 C 0.53674 0.81574 0.97828 0.0
N394 N 0.60451 0.75719 0.03246 0.0
N395 N 0.55333 0.79299 0.97832 0.0
H396 H 0.31403 0.92506 0.0531 0.0
H397 H 0.23343 0.72098 0.95944 0.0
H398 H 0.34847 0.91177 0.95358 0.0
H399 H 0.18591 0.73379 0.05312 0.0
H400 H 0.27478 0.79127 0.95677 0.0
H401 H 0.26427 0.85595 0.05293 0.0
C402 C 0.30966 0.90799 0.03055 0.0
C403 C 0.33421 0.92429 1.00276 0.0
C404 C 0.25524 0.77874 0.9779 0.0
C405 C 0.27924 0.84502 1.00304 0.0
C406 C 0.2315 0.73849 0.97942 0.0
C407 C 0.20591 0.72116 1.0065 0.0
C408 C 0.25366 0.80212 1.0037 0.0
C409 C 0.20548 0.7456 0.03196 0.0
C410 C 0.28188 0.86839 0.03069 0.0
C411 C 0.32908 0.90048 0.97495 0.0
N412 N 0.22898 0.78476 0.02995 0.0
N413 N 0.30248 0.86203 0.9759 0.0
H414 H 0.43747 0.26974 0.05153 0.0
H415 H 0.61899 0.47829 1.00646 0.0
H416 H 0.53846 0.28291 0.99904 0.0
H417 H 0.51298 0.45934 0.05338 0.0
H418 H 0.59273 0.4076 1.0057 0.0
H419 H 0.4673 0.33983 0.05451 0.0
C420 C 0.4661 0.28731 0.04081 0.0
C421 C 0.48549 0.27008 0.02524 0.0
C422 C 0.57543 0.41908 0.01631 0.0
C423 C 0.51983 0.35121 0.02801 0.0
C424 C 0.5905 0.45939 0.01695 0.0
C425 C 0.56826 0.47484 0.03007 0.0
C426 C 0.53796 0.39422 0.02897 0.0
C427 C 0.53129 0.44893 0.04297 0.0
C428 C 0.48308 0.32754 0.04231 0.0
C429 C 0.52221 0.29476 1.01106 0.0
N430 N 0.5174 0.41011 0.04202 0.0
N431 N 0.53821 0.33406 1.01282 0.0
H432 H 0.56371 0.16019 1.00356 0.0
H433 H 0.77244 0.19131 0.0559 0.0
H434 H 0.5827 0.07596 0.05587 0.0
H435 H 0.75898 0.27344 0.99455 0.0
H436 H 0.70226 0.15128 0.05905 0.0
H437 H 0.6344 0.20466 1.00296 0.0
C438 C 0.58263 0.15126 1.01529 0.0
C439 C 0.56722 0.11434 0.02987 0.0
C440 C 0.71453 0.17804 0.04486 0.0
C441 C 0.64781 0.1647 0.02898 0.0
C442 C 0.75478 0.20117 0.04325 0.0
C443 C 0.77192 0.2361 0.02511 0.0
C444 C 0.6908 0.18958 0.02811 0.0
C445 C 0.74718 0.24663 1.00859 0.0
C446 C 0.62293 0.1765 1.01472 0.0
C447 C 0.59313 0.10409 0.04432 0.0
N448 N 0.70787 0.22349 1.0105 0.0
N449 N 0.63196 0.12902 0.04344 0.0
H450 H 0.96809 0.52684 0.05736 0.0
H451 H 0.76506 0.50318 0.99729 0.0
H452 H 0.88209 0.4251 1.00434 0.0
H453 H 0.85174 0.59995 0.05501 0.0
H454 H 0.8063 0.4735 0.99905 0.0
H455 H 0.92422 0.55262 0.05712 0.0
C456 C 0.93973 0.50963 0.04589 0.0
C457 C 0.92876 0.47359 0.0309 0.0
C458 C 0.81609 0.50112 1.01145 0.0
C459 C 0.87808 0.50347 0.03026 0.0
C460 C 0.79272 0.51829 1.01025 0.0
C461 C 0.80473 0.55418 0.02616 0.0
C462 C 0.85177 0.51997 0.02863 0.0
C463 C 0.84072 0.572 0.0429 0.0
C464 C 0.91462 0.52451 0.04571 0.0
C465 C 0.8916 0.45284 0.01641 0.0
N466 N 0.86281 0.55476 0.04366 0.0
N467 N 0.86761 0.46819 0.01627 0.0
H468 H 0.78596 0.74697 0.39251 0.0
H469 H 0.98581 0.8658 0.29355 0.0
H470 H 0.79445 0.7849 0.28991 0.0
H471 H 0.97708 0.80706 0.3873 0.0
H472 H 0.91546 0.83658 0.29267 0.0
H473 H 0.85524 0.7667 0.39146 0.0
C474 C 0.80201 0.75749 0.36922 0.0
C475 C 0.78433 0.76284 0.34078 0.0
C476 C 0.9289 0.82999 0.31342 0.0
C477 C 0.86373 0.78775 0.33996 0.0
C478 C 0.9692 0.84666 0.31393 0.0
C479 C 0.9877 0.83879 0.34042 0.0
C480 C 0.90665 0.80542 0.33974 0.0
C481 C 0.96437 0.81446 0.36653 0.0
C482 C 0.84167 0.76954 0.36881 0.0
C483 C 0.80681 0.77893 0.31187 0.0
N484 N 0.92511 0.79869 0.36554 0.0
N485 N 0.84541 0.79121 0.31229 0.0
H486 H 0.24203 0.19802 0.29163 0.0
H487 H 0.25233 0.03201 0.39408 0.0
H488 H 0.16916 0.13541 0.37602 0.0
H489 H 0.29513 0.05805 0.29241 0.0
H490 H 0.23469 0.08169 0.3914 0.0
H491 H 0.26984 0.15514 0.29299 0.0
C492 C 0.23153 0.17516 0.31024 0.0
C493 C 0.20332 0.17075 0.33401 0.0
C494 C 0.2489 0.07752 0.36985 0.0
C495 C 0.23621 0.12271 0.33627 0.0
C496 C 0.26027 0.04985 0.37177 0.0
C497 C 0.27712 0.04208 0.34402 0.0
C498 C 0.25351 0.09739 0.33965 0.0
C499 C 0.28358 0.0642 0.31477 0.0
C500 C 0.24777 0.15099 0.31111 0.0
C501 C 0.19146 0.14084 0.35774 0.0
N502 N 0.27137 0.09078 0.31316 0.0
N503 N 0.20815 0.11831 0.35839 0.0
H504 H 0.98283 0.25899 0.39069 0.0
H505 H 0.90233 0.0564 0.2959 0.0
H506 H 1.01166 0.2474 0.28859 0.0
H507 H 0.85238 0.06774 0.38876 0.0
H508 H 0.94286 0.12667 0.29362 0.0
H509 H 0.93333 0.1898 0.39076 0.0
C510 C 0.97718 0.24228 0.36772 0.0
C511 C 1.00009 0.25907 0.33911 0.0
C512 C 0.92297 0.11382 0.31448 0.0
C513 C 0.94561 0.17974 0.3396 0.0
C514 C 0.89967 0.07356 0.31579 0.0
C515 C 0.8735 0.05579 0.34245 0.0
C516 C 0.92056 0.13682 0.34017 0.0
C517 C 0.87235 0.07987 0.3679 0.0
C518 C 0.94958 0.20266 0.36796 0.0
C519 C 0.99349 0.23573 0.31066 0.0
N520 N 0.89555 0.11909 0.36615 0.0
N521 N 0.9672 0.1972 0.31173 0.0
H522 H 0.18049 0.79479 0.38849 0.0
H523 H 0.20858 0.61627 0.33538 0.0
H524 H 0.28473 0.81094 0.34005 0.0
H525 H 0.10777 0.60583 0.38621 0.0
H526 H 0.23809 0.68707 0.33717 0.0
H527 H 0.15535 0.72537 0.38923 0.0
C528 C 0.19835 0.78375 0.37822 0.0
C529 C 0.23487 0.80885 0.36416 0.0
C530 C 0.20962 0.66918 0.34808 0.0
C531 C 0.20576 0.72858 0.36465 0.0
C532 C 0.19256 0.62872 0.34685 0.0
C533 C 0.15555 0.60478 0.36076 0.0
C534 C 0.18953 0.68586 0.3633 0.0
C535 C 0.13657 0.62281 0.37568 0.0
C536 C 0.18385 0.74391 0.37861 0.0
C537 C 0.25656 0.79266 0.35132 0.0
N538 N 0.15373 0.66207 0.3765 0.0
N539 N 0.24154 0.75342 0.35165 0.0
H540 H 0.23099 0.49413 0.33701 0.0
H541 H 0.4391 0.52588 0.3925 0.0
H542 H 0.2493 0.40956 0.38947 0.0
H543 H 0.42637 0.60709 0.32923 0.0
H544 H 0.36885 0.48558 0.39471 0.0
H545 H 0.30168 0.53855 0.33697 0.0
C546 C 0.24976 0.48511 0.34887 0.0
C547 C 0.23416 0.44811 0.36333 0.0
C548 C 0.38131 0.51219 0.3803 0.0
C549 C 0.31478 0.49845 0.36315 0.0
C550 C 0.42158 0.53548 0.37922 0.0
C551 C 0.43895 0.57023 0.36082 0.0
C552 C 0.35779 0.52343 0.36278 0.0
C553 C 0.41441 0.58043 0.34351 0.0
C554 C 0.29007 0.51033 0.34863 0.0
C555 C 0.25989 0.43774 0.37798 0.0
N556 N 0.37508 0.55717 0.34494 0.0
N557 N 0.29875 0.46269 0.37747 0.0
H558 H 0.45187 0.8618 0.40698 0.0
H559 H 0.6265 0.85232 0.31985 0.0
H560 H 0.49373 0.90682 0.3076 0.0
H561 H 0.55553 0.7683 0.39459 0.0
H562 H 0.58127 0.87697 0.31873 0.0
H563 H 0.49304 0.8319 0.40698 0.0
C564 C 0.46964 0.86537 0.38516 0.0
C565 C 0.46927 0.88685 0.3572 0.0
C566 C 0.57534 0.85299 0.33526 0.0
C567 C 0.51626 0.8527 0.35711 0.0
C568 C 0.60116 0.83897 0.33597 0.0
C569 C 0.59452 0.80818 0.35728 0.0
C570 C 0.54296 0.83674 0.35659 0.0
C571 C 0.56132 0.79185 0.37761 0.0
C572 C 0.49284 0.84804 0.38511 0.0
C573 C 0.49268 0.8902 0.32953 0.0
N574 N 0.53687 0.80667 0.3771 0.0
N575 N 0.51538 0.87359 0.33031 0.0
H576 H 0.64485 0.14997 0.62403 0.0
H577 H 0.45611 0.09709 0.73344 0.0
H578 H 0.64866 0.18516 0.72756 0.0
H579 H 0.45377 0.0871 0.62554 0.0
H580 H 0.52555 0.11912 0.73314 0.0
H581 H 0.57429 0.11975 0.62497 0.0
C582 C 0.63107 0.15176 0.64691 0.0
C583 C 0.65315 0.17036 0.67579 0.0
C584 C 0.50968 0.1109 0.70957 0.0
C585 C 0.5718 0.13433 0.67724 0.0
C586 C 0.46978 0.09728 0.70985 0.0
C587 C 0.44877 0.08832 0.6796 0.0
C588 C 0.52882 0.11586 0.67874 0.0
C589 C 0.46859 0.09194 0.64947 0.0
C590 C 0.59061 0.13403 0.64748 0.0
C591 C 0.63312 0.17068 0.70484 0.0
N592 N 0.50756 0.10563 0.64975 0.0
N593 N 0.59368 0.15286 0.70483 0.0
H594 H 0.93858 0.37133 0.62136 0.0
H595 H 0.88603 0.51086 0.72626 0.0
H596 H 0.95449 0.38849 0.72842 0.0
H597 H 0.86324 0.48819 0.61988 0.0
H598 H 0.91547 0.46985 0.7268 0.0
H599 H 0.91843 0.42034 0.619 0.0
C600 C 0.93989 0.38708 0.64407 0.0
C601 C 0.94977 0.37719 0.6749 0.0
C602 C 0.90415 0.47394 0.7033 0.0
C603 C 0.92458 0.4315 0.67289 0.0
C604 C 0.88682 0.49703 0.70302 0.0
C605 C 0.87186 0.50306 0.67297 0.0
C606 C 0.90692 0.45682 0.67329 0.0
C607 C 0.87476 0.48493 0.64357 0.0
C608 C 0.92752 0.41437 0.64289 0.0
C609 C 0.94862 0.39655 0.70399 0.0
N610 N 0.89192 0.46268 0.64448 0.0
N611 N 0.9359 0.42254 0.70234 0.0
H612 H 0.64528 0.59253 0.72095 0.0
H613 H 0.57701 0.38832 0.63475 0.0
H614 H 0.68009 0.57891 0.62165 0.0
H615 H 0.51287 0.40129 0.71667 0.0
H616 H 0.61742 0.45858 0.63209 0.0
H617 H 0.59656 0.52317 0.72141 0.0
C618 C 0.64117 0.57536 0.69856 0.0
C619 C 0.6657 0.59153 0.67075 0.0
C620 C 0.59438 0.44604 0.65057 0.0
C621 C 0.61208 0.51219 0.67181 0.0
C622 C 0.57117 0.40583 0.65207 0.0
C623 C 0.54096 0.38862 0.67564 0.0
C624 C 0.58778 0.46941 0.67304 0.0
C625 C 0.53589 0.41306 0.69819 0.0
C626 C 0.61398 0.53565 0.69907 0.0
C627 C 0.66077 0.56764 0.64308 0.0
N628 N 0.55908 0.45221 0.69635 0.0
N629 N 0.63493 0.52908 0.64448 0.0
H630 H 0.86074 0.94665 0.73249 0.0
H631 H 0.84402 0.12499 0.66364 0.0
H632 H 0.78951 0.93861 0.64732 0.0
H633 H 0.9471 0.14294 0.71575 0.0
H634 H 0.82001 0.05548 0.66287 0.0
H635 H 0.8892 0.01748 0.73213 0.0
C636 C 0.85114 0.95974 0.71369 0.0
C637 C 0.82268 0.9366 0.68986 0.0
C638 C 0.84792 0.07452 0.67443 0.0
C639 C 0.85507 0.01741 0.68943 0.0
C640 C 0.8616 0.11424 0.67508 0.0
C641 C 0.89761 0.13978 0.68992 0.0
C642 C 0.86996 0.05985 0.68927 0.0
C643 C 0.91926 0.12419 0.70399 0.0
C644 C 0.86761 1.00013 0.71339 0.0
C645 C 0.81162 0.95521 0.66593 0.0
N646 N 0.9049 0.08504 0.70364 0.0
N647 N 0.82759 0.99441 0.6665 0.0
H648 H 0.89635 0.82774 0.68256 0.0
H649 H 0.10465 0.84676 0.71257 0.0
H650 H 0.91538 0.73517 0.71588 0.0
H651 H 0.09173 0.9451 0.68623 0.0
H652 H 0.0346 0.80609 0.71323 0.0
H653 H 0.96711 0.87202 0.68334 0.0
C654 C 0.91526 0.81683 0.69032 0.0
C655 C 0.89982 0.77771 0.69924 0.0
C656 C 0.04692 0.83656 0.70731 0.0
C657 C 0.9804 0.82781 0.6998 0.0
C658 C 0.08712 0.85998 0.70716 0.0
C659 C 0.10437 0.89967 0.69972 0.0
C660 C 0.02335 0.85261 0.6997 0.0
C661 C 0.07982 0.91464 0.69191 0.0
C662 C 0.95558 0.84202 0.69062 0.0
C663 C 0.92572 0.76503 0.70881 0.0
N664 N 0.0405 0.8911 0.69214 0.0
N665 N 0.96453 0.7899 0.70871 0.0
H666 H 0.2159 0.08845 0.67316 0.0
H667 H 0.18586 0.26796 0.72044 0.0
H668 H 0.30452 0.19735 0.71485 0.0
H669 H 0.09971 0.16792 0.66565 0.0
H670 H 0.22721 0.23912 0.72222 0.0
H671 H 0.17052 0.11372 0.67366 0.0
C672 C 0.2257 0.11743 0.68268 0.0
C673 C 0.26412 0.14079 0.69389 0.0
C674 C 0.19927 0.22336 0.70977 0.0
C675 C 0.21259 0.16982 0.69447 0.0
C676 C 0.17539 0.23974 0.70897 0.0
C677 C 0.13894 0.22034 0.69306 0.0
C678 C 0.18695 0.18718 0.69446 0.0
C679 C 0.12765 0.18417 0.67796 0.0
C680 C 0.19989 0.13191 0.68278 0.0
C681 C 0.27532 0.17826 0.70575 0.0
N682 N 0.15153 0.16873 0.67906 0.0
N683 N 0.24978 0.19149 0.7057 0.0
H684 H 0.05114 0.36945 0.28109 0.0
H685 H 0.09695 0.44702 0.09047 0.0
H686 H 0.15329 0.38802 0.2279 0.0
H687 H 0.99197 0.42091 0.14333 0.0
H688 H 0.12083 0.43059 0.14135 0.0
H689 H 0.0318 0.39332 0.23212 0.0
C690 C 0.06982 0.37921 0.25922 0.0
C691 C 0.10427 0.37764 0.25871 0.0
C692 C 0.09278 0.42893 0.14195 0.0
C693 C 0.08176 0.4038 0.20195 0.0
C694 C 0.07924 0.43862 0.11296 0.0
C695 C 0.04243 0.43569 0.11266 0.0
C696 C 0.06949 0.41637 0.171 0.0
C697 C 0.02058 0.42391 0.14243 0.0
C698 C 0.05862 0.3925 0.23111 0.0
C699 C 0.12675 0.38932 0.22933 0.0
N700 N 0.03434 0.41463 0.17022 0.0
N701 N 0.11511 0.40184 0.20209 0.0
H702 H 0.72318 0.78053 0.23195 0.0
H703 H 0.55607 0.59078 0.13972 0.0
H704 H 0.6093 0.71292 0.27551 0.0
H705 H 0.6622 0.67602 0.09262 0.0
H706 H 0.57376 0.6326 0.19029 0.0
H707 H 0.70078 0.74011 0.18177 0.0
C708 C 0.69332 0.75711 0.23096 0.0
C709 C 0.66816 0.75016 0.2581 0.0
C710 C 0.593 0.64221 0.16878 0.0
C711 C 0.64206 0.70299 0.20025 0.0
C712 C 0.58288 0.61839 0.14001 0.0
C713 C 0.60777 0.63002 0.11214 0.0
C714 C 0.62846 0.67756 0.16966 0.0
C715 C 0.64222 0.666 0.11365 0.0
C716 C 0.68047 0.73394 0.20216 0.0
C717 C 0.62975 0.71921 0.25525 0.0
N718 N 0.65161 0.68824 0.14189 0.0
N719 N 0.6179 0.69659 0.2269 0.0
H720 H 0.37679 0.94346 0.09183 0.0
H721 H 0.33491 0.9949 0.27724 0.0
H722 H 0.44989 0.05204 0.14265 0.0
H723 H 0.26443 0.88308 0.23099 0.0
H724 H 0.37883 0.01497 0.22879 0.0
H725 H 0.3368 0.91926 0.14279 0.0
C726 C 0.38494 0.96196 0.11388 0.0
C727 C 0.41706 0.99985 0.11296 0.0
C728 C 0.35395 0.98592 0.2292 0.0
C729 C 0.37093 0.97247 0.17131 0.0
C730 C 0.32898 0.97446 0.25694 0.0
C731 C 0.29636 0.93717 0.25816 0.0
C732 C 0.34592 0.96012 0.2021 0.0
C733 C 0.28959 0.91195 0.23104 0.0
C734 C 0.36189 0.9482 0.14293 0.0
C735 C 0.42566 0.02261 0.1422 0.0
N736 N 0.314 0.92392 0.20401 0.0
N737 N 0.40271 1.00871 0.16994 0.0
H738 H 0.46255 0.10201 0.94359 0.0
H739 H 0.38451 0.05808 0.75363 0.0
H740 H 0.41785 0.99089 0.89482 0.0
H741 H 0.38542 0.15084 0.81045 0.0
H742 H 0.4083 0.03979 0.80297 0.0
H743 H 0.44439 0.12622 0.89361 0.0
C744 C 0.44888 0.08273 0.92244 0.0
C745 C 0.44136 0.04423 0.92353 0.0
C746 C 0.40381 0.06447 0.80469 0.0
C747 C 0.4216 0.072 0.86603 0.0
C748 C 0.39067 0.07525 0.77636 0.0
C749 C 0.38375 0.10658 0.77773 0.0
C750 C 0.41019 0.08505 0.83496 0.0
C751 C 0.39099 0.12692 0.80823 0.0
C752 C 0.43863 0.09658 0.89393 0.0
C753 C 0.42414 0.02071 0.89519 0.0
N754 N 0.40392 0.11587 0.8357 0.0
N755 N 0.41507 0.03497 0.86767 0.0
H756 H 0.05673 0.44694 0.89767 0.0
H757 H 0.88554 0.26072 0.80343 0.0
H758 H 0.94181 0.38206 0.93982 0.0
H759 H 0.99798 0.33746 0.76097 0.0
H760 H 0.90374 0.30326 0.85359 0.0
H761 H 0.03446 0.40576 0.84787 0.0
C762 C 0.02667 0.42398 0.89643 0.0
C763 C 1.00119 0.41804 0.92307 0.0
C764 C 0.92434 0.3108 0.83322 0.0
C765 C 0.97518 0.36997 0.86564 0.0
C766 C 0.91392 0.28655 0.80466 0.0
C767 C 0.94043 0.29544 0.77826 0.0
C768 C 0.96157 0.34401 0.83529 0.0
C769 C 0.97678 0.32937 0.78092 0.0
C770 C 1.01389 0.40034 0.86787 0.0
C771 C 0.96253 0.38762 0.91994 0.0
N772 N 0.98627 0.35214 0.80885 0.0
N773 N 0.95071 0.3646 0.89182 0.0
H774 H 0.79247 0.67275 0.81329 0.0
H775 H 0.58944 0.61926 0.89483 0.0
H776 H 0.69167 0.64762 0.75411 0.0
H777 H 0.66544 0.58686 0.94466 0.0
H778 H 0.63037 0.63664 0.84479 0.0
H779 H 0.75067 0.64797 0.86363 0.0
C780 C 0.76149 0.66139 0.81085 0.0
C781 C 0.74534 0.66145 0.77946 0.0
C782 C 0.63821 0.62576 0.86665 0.0
C783 C 0.69774 0.63444 0.83677 0.0
C784 C 0.61485 0.61587 0.89529 0.0
C785 C 0.62416 0.60187 0.92416 0.0
C786 C 0.67185 0.62257 0.86687 0.0
C787 C 0.6575 0.59806 0.92316 0.0
C788 C 0.7377 0.64734 0.83949 0.0
C789 C 0.70512 0.64717 0.77769 0.0
N790 N 0.68045 0.6088 0.89514 0.0
N791 N 0.68286 0.63468 0.8059 0.0
H792 H 0.70667 0.71744 0.42353 0.0
H793 H 0.79222 0.7672 0.61174 0.0
H794 H 0.71928 0.81748 0.47683 0.0
H795 H 0.74764 0.65548 0.56399 0.0
H796 H 0.77307 0.79037 0.56162 0.0
H797 H 0.73002 0.69897 0.4732 0.0
C798 C 0.71483 0.73578 0.44571 0.0
C799 C 0.71107 0.76905 0.44613 0.0
C800 C 0.76758 0.76083 0.56219 0.0
C801 C 0.73786 0.748 0.50346 0.0
C802 C 0.77848 0.74759 0.59078 0.0
C803 C 0.7714 0.70925 0.59216 0.0
C804 C 0.7501 0.73573 0.53461 0.0
C805 C 0.75373 0.68523 0.56414 0.0
C806 C 0.72798 0.72512 0.47416 0.0
C807 C 0.72181 0.79164 0.47556 0.0
N808 N 0.74388 0.69885 0.53666 0.0
N809 N 0.73477 0.78074 0.50311 0.0
H810 H 0.29244 0.0148 0.41735 0.0
H811 H 0.3082 0.02789 0.61793 0.0
H812 H 0.2555 0.91433 0.47991 0.0
H813 H 0.33887 0.12603 0.55396 0.0
H814 H 0.28537 0.98511 0.56881 0.0
H815 H 0.30552 0.05501 0.46735 0.0
C816 C 0.28533 1.00092 0.44167 0.0
C817 C 0.27056 0.96077 0.44436 0.0
C818 C 0.29663 0.01593 0.5655 0.0
C819 C 0.28862 1.00728 0.50236 0.0
C820 C 0.30914 0.04031 0.59375 0.0
C821 C 0.32444 0.08045 0.59037 0.0
C822 C 0.29981 0.03188 0.53336 0.0
C823 C 0.32689 0.0952 0.55786 0.0
C824 C 0.29382 0.02408 0.47036 0.0
C825 C 0.2657 0.94496 0.47672 0.0
N826 N 0.3148 0.07101 0.5307 0.0
N827 N 0.27471 0.96823 0.50448 0.0
H828 H 0.97814 0.33448 0.5939 0.0
H829 H 0.05149 0.27633 0.43019 0.0
H830 H 0.95783 0.21802 0.58294 0.0
H831 H 0.1127 0.39086 0.47413 0.0
H832 H 1.01188 0.2526 0.48172 0.0
H833 H 0.02237 0.35461 0.54575 0.0
C834 C 0.98309 0.31316 0.58129 0.0
C835 C 0.96439 0.27458 0.59234 0.0
C836 C 0.03444 0.28276 0.48014 0.0
C837 C 1.0143 0.29715 0.53658 0.0
C838 C 0.05718 0.29631 0.45083 0.0
C839 C 0.08587 0.33568 0.44782 0.0
C840 C 0.03988 0.30893 0.50628 0.0
C841 C 0.09125 0.3603 0.47522 0.0
C842 C 1.00839 0.32464 0.55387 0.0
C843 C 0.97195 0.24811 0.57523 0.0
N844 N 0.06827 0.34668 0.50292 0.0
N845 N 0.9959 0.25972 0.54782 0.0
loop_
_geom_bond_atom_site_label_1
_geom_bond_atom_site_label_2
_geom_bond_distance
_geom_bond_site_symmetry_2
_ccdc_geom_bond_type
C0 Eu1 2.835 . S
C0 C2 1.500 . S
C0 O20 1.257 1_554 S
C0 O21 1.260 . S
Eu1 C0 2.835 . S
Eu1 O20 2.473 1_554 S
Eu1 O21 2.480 . S
Eu1 O22 2.430 . S
Eu1 O23 2.670 1_655 S
Eu1 O24 2.394 . S
Eu1 O29 2.355 1_554 S
Eu1 O31 2.374 1_654 S
C2 C0 1.500 . S
C2 C3 1.377 . S
C2 C7 1.377 1_554 S
C3 C2 1.377 . S
C3 C4 1.395 . S
C3 H32 0.931 . S
C4 C3 1.395 . S
C4 C5 1.383 . S
C4 H33 0.931 . S
C5 C4 1.383 . S
C5 C6 1.394 1_554 S
C6 C5 1.394 1_556 S
C6 C7 1.378 . S
C6 H34 0.931 . S
C7 C2 1.377 1_556 S
C7 C6 1.378 . S
C7 H35 0.931 . S
C8 O22 1.259 1_455 S
C8 O23 1.270 . S
C9 O24 1.251 . S
C9 O25 1.251 . S
C10 Eu11 2.835 . S
C10 C12 1.500 . S
C10 O26 1.257 1_556 S
C10 O27 1.260 . S
Eu11 C10 2.835 . S
Eu11 O23 2.355 1_556 S
Eu11 O25 2.374 1_456 S
Eu11 O26 2.473 1_556 S
Eu11 O27 2.480 . S
Eu11 O28 2.430 . S
Eu11 O29 2.670 1_455 S
Eu11 O30 2.394 . S
C12 C10 1.500 . S
C12 C13 1.377 . S
C12 C17 1.377 1_556 S
C13 C12 1.377 . S
C13 C14 1.395 . S
C13 H36 0.931 . S
C14 C13 1.395 . S
C14 C15 1.383 . S
C14 H37 0.931 . S
C15 C14 1.383 . S
C15 C16 1.394 1_556 S
C16 C15 1.394 1_554 S
C16 C17 1.378 . S
C16 H38 0.931 . S
C17 C12 1.377 1_554 S
C17 C16 1.378 . S
C17 H39 0.931 . S
C18 O28 1.259 1_655 S
C18 O29 1.270 . S
C19 O30 1.251 . S
C19 O31 1.251 . S
O20 C0 1.257 1_556 S
O20 Eu1 2.473 1_556 S
O21 C0 1.260 . S
O21 Eu1 2.480 . S
O22 Eu1 2.430 . S
O22 C8 1.259 1_655 S
O23 Eu1 2.670 1_455 S
O23 C8 1.270 . S
O23 Eu11 2.355 1_554 S
O24 Eu1 2.394 . S
O24 C9 1.251 . S
O25 C9 1.251 . S
O25 Eu11 2.374 1_654 S
O26 C10 1.257 1_554 S
O26 Eu11 2.473 1_554 S
O27 C10 1.260 . S
O27 Eu11 2.480 . S
O28 Eu11 2.430 . S
O28 C18 1.259 1_455 S
O29 Eu1 2.355 1_556 S
O29 Eu11 2.670 1_655 S
O29 C18 1.270 . S
O30 Eu11 2.394 . S
O30 C19 1.251 . S
O31 Eu1 2.374 1_456 S
O31 C19 1.251 . S
H32 C3 0.931 . S
H33 C4 0.931 . S
H34 C6 0.931 . S
H35 C7 0.931 . S
H36 C13 0.931 . S
H37 C14 0.931 . S
H38 C16 0.931 . S
H39 C17 0.931 . S
C40 Eu41 2.835 . S
C40 C42 1.500 . S
C40 O60 1.257 1_554 S
C40 O61 1.260 . S
Eu41 C40 2.835 . S
Eu41 O60 2.473 1_554 S
Eu41 O61 2.480 . S
Eu41 O62 2.430 . S
Eu41 O63 2.670 . S
Eu41 O64 2.394 . S
Eu41 O69 2.355 1_554 S
Eu41 O71 2.374 1_554 S
C42 C40 1.500 . S
C42 C43 1.377 . S
C42 C47 1.377 1_554 S
C43 C42 1.377 . S
C43 C44 1.395 . S
C43 H72 0.931 . S
C44 C43 1.395 . S
C44 C45 1.383 . S
C44 H73 0.931 . S
C45 C44 1.383 . S
C45 C46 1.394 1_554 S
C46 C45 1.394 1_556 S
C46 C47 1.378 . S
C46 H74 0.931 . S
C47 C42 1.377 1_556 S
C47 C46 1.378 . S
C47 H75 0.931 . S
C48 O62 1.259 . S
C48 O63 1.270 . S
C49 O64 1.251 . S
C49 O65 1.251 . S
C50 Eu51 2.835 . S
C50 C52 1.500 . S
C50 O66 1.257 1_556 S
C50 O67 1.260 . S
Eu51 C50 2.835 . S
Eu51 O63 2.355 1_556 S
Eu51 O65 2.374 1_556 S
Eu51 O66 2.473 1_556 S
Eu51 O67 2.480 . S
Eu51 O68 2.430 . S
Eu51 O69 2.670 . S
Eu51 O70 2.394 . S
C52 C50 1.500 . S
C52 C53 1.377 . S
C52 C57 1.377 1_556 S
C53 C52 1.377 . S
C53 C54 1.395 . S
C53 H76 0.931 . S
C54 C53 1.395 . S
C54 C55 1.383 . S
C54 H77 0.931 . S
C55 C54 1.383 . S
C55 C56 1.394 1_556 S
C56 C55 1.394 1_554 S
C56 C57 1.378 . S
C56 H78 0.931 . S
C57 C52 1.377 1_554 S
C57 C56 1.378 . S
C57 H79 0.931 . S
C58 O68 1.259 . S
C58 O69 1.270 . S
C59 O70 1.251 . S
C59 O71 1.251 . S
O60 C40 1.257 1_556 S
O60 Eu41 2.473 1_556 S
O61 C40 1.260 . S
O61 Eu41 2.480 . S
O62 Eu41 2.430 . S
O62 C48 1.259 . S
O63 Eu41 2.670 . S
O63 C48 1.270 . S
O63 Eu51 2.355 1_554 S
O64 Eu41 2.394 . S
O64 C49 1.251 . S
O65 C49 1.251 . S
O65 Eu51 2.374 1_554 S
O66 C50 1.257 1_554 S
O66 Eu51 2.473 1_554 S
O67 C50 1.260 . S
O67 Eu51 2.480 . S
O68 Eu51 2.430 . S
O68 C58 1.259 . S
O69 Eu41 2.355 1_556 S
O69 Eu51 2.670 . S
O69 C58 1.270 . S
O70 Eu51 2.394 . S
O70 C59 1.251 . S
O71 Eu41 2.374 1_556 S
O71 C59 1.251 . S
H72 C43 0.931 . S
H73 C44 0.931 . S
H74 C46 0.931 . S
H75 C47 0.931 . S
H76 C53 0.931 . S
H77 C54 0.931 . S
H78 C56 0.931 . S
H79 C57 0.931 . S
C80 Eu81 2.835 . S
C80 C82 1.500 . S
C80 O100 1.257 1_554 S
C80 O101 1.260 . S
Eu81 C80 2.835 . S
Eu81 O100 2.473 1_554 S
Eu81 O101 2.480 . S
Eu81 O102 2.430 . S
Eu81 O103 2.670 1_545 S
Eu81 O104 2.394 . S
Eu81 O109 2.355 1_554 S
Eu81 O111 2.374 1_544 S
C82 C80 1.500 . S
C82 C83 1.377 . S
C82 C87 1.377 1_554 S
C83 C82 1.377 . S
C83 C84 1.395 . S
C83 H112 0.931 . S
C84 C83 1.395 . S
C84 C85 1.383 . S
C84 H113 0.931 . S
C85 C84 1.383 . S
C85 C86 1.394 1_554 S
C86 C85 1.394 1_556 S
C86 C87 1.378 . S
C86 H114 0.931 . S
C87 C82 1.377 1_556 S
C87 C86 1.378 . S
C87 H115 0.931 . S
C88 O102 1.259 . S
C88 O103 1.270 1_545 S
C89 O104 1.251 . S
C89 O105 1.251 . S
C90 Eu91 2.835 . S
C90 C92 1.500 . S
C90 O106 1.257 1_556 S
C90 O107 1.260 . S
Eu91 C90 2.835 . S
Eu91 O103 2.355 1_556 S
Eu91 O105 2.374 1_566 S
Eu91 O106 2.473 1_556 S
Eu91 O107 2.480 . S
Eu91 O108 2.430 . S
Eu91 O109 2.670 1_565 S
Eu91 O110 2.394 . S
C92 C90 1.500 . S
C92 C93 1.377 . S
C92 C97 1.377 1_556 S
C93 C92 1.377 . S
C93 C94 1.395 . S
C93 H116 0.931 . S
C94 C93 1.395 . S
C94 C95 1.383 . S
C94 H117 0.931 . S
C95 C94 1.383 . S
C95 C96 1.394 1_556 S
C96 C95 1.394 1_554 S
C96 C97 1.378 . S
C96 H118 0.931 . S
C97 C92 1.377 1_554 S
C97 C96 1.378 . S
C97 H119 0.931 . S
C98 O108 1.259 1_545 S
C98 O109 1.270 . S
C99 O110 1.251 . S
C99 O111 1.251 . S
O100 C80 1.257 1_556 S
O100 Eu81 2.473 1_556 S
O101 C80 1.260 . S
O101 Eu81 2.480 . S
O102 Eu81 2.430 . S
O102 C88 1.259 . S
O103 Eu81 2.670 1_565 S
O103 C88 1.270 1_565 S
O103 Eu91 2.355 1_554 S
O104 Eu81 2.394 . S
O104 C89 1.251 . S
O105 C89 1.251 . S
O105 Eu91 2.374 1_544 S
O106 C90 1.257 1_554 S
O106 Eu91 2.473 1_554 S
O107 C90 1.260 . S
O107 Eu91 2.480 . S
O108 Eu91 2.430 . S
O108 C98 1.259 1_565 S
O109 Eu81 2.355 1_556 S
O109 Eu91 2.670 1_545 S
O109 C98 1.270 . S
O110 Eu91 2.394 . S
O110 C99 1.251 . S
O111 Eu81 2.374 1_566 S
O111 C99 1.251 . S
H112 C83 0.931 . S
H113 C84 0.931 . S
H114 C86 0.931 . S
H115 C87 0.931 . S
H116 C93 0.931 . S
H117 C94 0.931 . S
H118 C96 0.931 . S
H119 C97 0.931 . S
C120 Eu121 2.835 . S
C120 C122 1.500 . S
C120 O140 1.257 . S
C120 O141 1.260 . S
Eu121 C120 2.835 . S
Eu121 O140 2.473 . S
Eu121 O141 2.480 . S
Eu121 O142 2.430 . S
Eu121 O143 2.670 . S
Eu121 O144 2.394 . S
Eu121 O149 2.355 . S
Eu121 O151 2.374 . S
C122 C120 1.500 . S
C122 C123 1.377 . S
C122 C127 1.377 . S
C123 C122 1.377 . S
C123 C124 1.395 . S
C123 H152 0.931 . S
C124 C123 1.395 . S
C124 C125 1.383 . S
C124 H153 0.931 . S
C125 C124 1.383 . S
C125 C126 1.394 . S
C126 C125 1.394 . S
C126 C127 1.378 . S
C126 H154 0.931 . S
C127 C122 1.377 . S
C127 C126 1.378 . S
C127 H155 0.931 . S
C128 O142 1.259 . S
C128 O143 1.270 . S
C129 O144 1.251 . S
C129 O145 1.251 . S
C130 Eu131 2.835 . S
C130 C132 1.500 . S
C130 O146 1.257 . S
C130 O147 1.260 . S
Eu131 C130 2.835 . S
Eu131 O143 2.355 . S
Eu131 O145 2.374 . S
Eu131 O146 2.473 . S
Eu131 O147 2.480 . S
Eu131 O148 2.430 . S
Eu131 O149 2.670 . S
Eu131 O150 2.394 . S
C132 C130 1.500 . S
C132 C133 1.377 . S
C132 C137 1.377 . S
C133 C132 1.377 . S
C133 C134 1.395 . S
C133 H156 0.931 . S
C134 C133 1.395 . S
C134 C135 1.383 . S
C134 H157 0.931 1_565 S
C135 C134 1.383 . S
C135 C136 1.394 . S
C136 C135 1.394 . S
C136 C137 1.378 . S
C136 H158 0.931 . S
C137 C132 1.377 . S
C137 C136 1.378 . S
C137 H159 0.931 . S
C138 O148 1.259 . S
C138 O149 1.270 . S
C139 O150 1.251 . S
C139 O151 1.251 . S
O140 C120 1.257 . S
O140 Eu121 2.473 . S
O141 C120 1.260 . S
O141 Eu121 2.480 . S
O142 Eu121 2.430 . S
O142 C128 1.259 . S
O143 Eu121 2.670 . S
O143 C128 1.270 . S
O143 Eu131 2.355 . S
O144 Eu121 2.394 . S
O144 C129 1.251 . S
O145 C129 1.251 . S
O145 Eu131 2.374 . S
O146 C130 1.257 . S
O146 Eu131 2.473 . S
O147 C130 1.260 . S
O147 Eu131 2.480 . S
O148 Eu131 2.430 . S
O148 C138 1.259 . S
O149 Eu121 2.355 . S
O149 Eu131 2.670 . S
O149 C138 1.270 . S
O150 Eu131 2.394 . S
O150 C139 1.251 . S
O151 Eu121 2.374 . S
O151 C139 1.251 . S
H152 C123 0.931 . S
H153 C124 0.931 . S
H154 C126 0.931 . S
H155 C127 0.931 . S
H156 C133 0.931 . S
H157 C134 0.931 1_545 S
H158 C136 0.931 . S
H159 C137 0.931 . S
C160 Eu161 2.835 . S
C160 C162 1.500 . S
C160 O180 1.257 . S
C160 O181 1.260 . S
Eu161 C160 2.835 . S
Eu161 O180 2.473 . S
Eu161 O181 2.480 . S
Eu161 O182 2.430 . S
Eu161 O183 2.670 . S
Eu161 O184 2.394 . S
Eu161 O189 2.355 . S
Eu161 O191 2.374 . S
C162 C160 1.500 . S
C162 C163 1.377 . S
C162 C167 1.377 . S
C163 C162 1.377 . S
C163 C164 1.395 . S
C163 H192 0.931 . S
C164 C163 1.395 . S
C164 C165 1.383 . S
C164 H193 0.931 . S
C165 C164 1.383 . S
C165 C166 1.394 . S
C166 C165 1.394 . S
C166 C167 1.378 . S
C166 H194 0.931 . S
C167 C162 1.377 . S
C167 C166 1.378 . S
C167 H195 0.931 . S
C168 O182 1.259 . S
C168 O183 1.270 . S
C169 O184 1.251 . S
C169 O185 1.251 . S
C170 Eu171 2.835 . S
C170 C172 1.500 . S
C170 O186 1.257 . S
C170 O187 1.260 . S
Eu171 C170 2.835 . S
Eu171 O183 2.355 . S
Eu171 O185 2.374 . S
Eu171 O186 2.473 . S
Eu171 O187 2.480 . S
Eu171 O188 2.430 . S
Eu171 O189 2.670 . S
Eu171 O190 2.394 . S
C172 C170 1.500 . S
C172 C173 1.377 . S
C172 C177 1.377 . S
C173 C172 1.377 . S
C173 C174 1.395 . S
C173 H196 0.931 . S
C174 C173 1.395 . S
C174 C175 1.383 . S
C174 H197 0.931 . S
C175 C174 1.383 . S
C175 C176 1.394 . S
C176 C175 1.394 . S
C176 C177 1.378 . S
C176 H198 0.931 . S
C177 C172 1.377 . S
C177 C176 1.378 . S
C177 H199 0.931 . S
C178 O188 1.259 . S
C178 O189 1.270 . S
C179 O190 1.251 . S
C179 O191 1.251 . S
O180 C160 1.257 . S
O180 Eu161 2.473 . S
O181 C160 1.260 . S
O181 Eu161 2.480 . S
O182 Eu161 2.430 . S
O182 C168 1.259 . S
O183 Eu161 2.670 . S
O183 C168 1.270 . S
O183 Eu171 2.355 . S
O184 Eu161 2.394 . S
O184 C169 1.251 . S
O185 C169 1.251 . S
O185 Eu171 2.374 . S
O186 C170 1.257 . S
O186 Eu171 2.473 . S
O187 C170 1.260 . S
O187 Eu171 2.480 . S
O188 Eu171 2.430 . S
O188 C178 1.259 . S
O189 Eu161 2.355 . S
O189 Eu171 2.670 . S
O189 C178 1.270 . S
O190 Eu171 2.394 . S
O190 C179 1.251 . S
O191 Eu161 2.374 . S
O191 C179 1.251 . S
H192 C163 0.931 . S
H193 C164 0.931 . S
H194 C166 0.931 . S
H195 C167 0.931 . S
H196 C173 0.931 . S
H197 C174 0.931 . S
H198 C176 0.931 . S
H199 C177 0.931 . S
C200 Eu201 2.835 . S
C200 C202 1.500 . S
C200 O220 1.257 . S
C200 O221 1.260 . S
Eu201 C200 2.835 . S
Eu201 O220 2.473 . S
Eu201 O221 2.480 . S
Eu201 O222 2.430 . S
Eu201 O223 2.670 . S
Eu201 O224 2.394 . S
Eu201 O229 2.355 . S
Eu201 O231 2.374 . S
C202 C200 1.500 . S
C202 C203 1.377 . S
C202 C207 1.377 . S
C203 C202 1.377 . S
C203 C204 1.395 . S
C203 H232 0.931 . S
C204 C203 1.395 . S
C204 C205 1.383 . S
C204 H233 0.931 . S
C205 C204 1.383 . S
C205 C206 1.394 . S
C206 C205 1.394 . S
C206 C207 1.378 . S
C206 H234 0.931 . S
C207 C202 1.377 . S
C207 C206 1.378 . S
C207 H235 0.931 . S
C208 O222 1.259 . S
C208 O223 1.270 . S
C209 O224 1.251 . S
C209 O225 1.251 . S
C210 Eu211 2.835 . S
C210 C212 1.500 . S
C210 O226 1.257 . S
C210 O227 1.260 . S
Eu211 C210 2.835 . S
Eu211 O223 2.355 . S
Eu211 O225 2.374 . S
Eu211 O226 2.473 . S
Eu211 O227 2.480 . S
Eu211 O228 2.430 . S
Eu211 O229 2.670 . S
Eu211 O230 2.394 . S
C212 C210 1.500 . S
C212 C213 1.377 . S
C212 C217 1.377 . S
C213 C212 1.377 . S
C213 C214 1.395 . S
C213 H236 0.931 . S
C214 C213 1.395 . S
C214 C215 1.383 . S
C214 H237 0.931 . S
C215 C214 1.383 . S
C215 C216 1.394 . S
C216 C215 1.394 . S
C216 C217 1.378 . S
C216 H238 0.931 . S
C217 C212 1.377 . S
C217 C216 1.378 . S
C217 H239 0.931 . S
C218 O228 1.259 . S
C218 O229 1.270 . S
C219 O230 1.251 . S
C219 O231 1.251 . S
O220 C200 1.257 . S
O220 Eu201 2.473 . S
O221 C200 1.260 . S
O221 Eu201 2.480 . S
O222 Eu201 2.430 . S
O222 C208 1.259 . S
O223 Eu201 2.670 . S
O223 C208 1.270 . S
O223 Eu211 2.355 . S
O224 Eu201 2.394 . S
O224 C209 1.251 . S
O225 C209 1.251 . S
O225 Eu211 2.374 . S
O226 C210 1.257 . S
O226 Eu211 2.473 . S
O227 C210 1.260 . S
O227 Eu211 2.480 . S
O228 Eu211 2.430 . S
O228 C218 1.259 . S
O229 Eu201 2.355 . S
O229 Eu211 2.670 . S
O229 C218 1.270 . S
O230 Eu211 2.394 . S
O230 C219 1.251 . S
O231 Eu201 2.374 . S
O231 C219 1.251 . S
H232 C203 0.931 . S
H233 C204 0.931 . S
H234 C206 0.931 . S
H235 C207 0.931 . S
H236 C213 0.931 . S
H237 C214 0.931 . S
H238 C216 0.931 . S
H239 C217 0.931 . S
C240 Eu241 2.835 . S
C240 C242 1.500 1_545 S
C240 O260 1.257 . S
C240 O261 1.260 . S
Eu241 C240 2.835 . S
Eu241 O260 2.473 . S
Eu241 O261 2.480 . S
Eu241 O262 2.430 . S
Eu241 O263 2.670 . S
Eu241 O264 2.394 . S
Eu241 O269 2.355 . S
Eu241 O271 2.374 . S
C242 C240 1.500 1_565 S
C242 C243 1.377 . S
C242 C247 1.377 . S
C243 C242 1.377 . S
C243 C244 1.395 . S
C243 H272 0.931 . S
C244 C243 1.395 . S
C244 C245 1.383 . S
C244 H273 0.931 . S
C245 C244 1.383 . S
C245 C246 1.394 . S
C246 C245 1.394 . S
C246 C247 1.378 . S
C246 H274 0.931 . S
C247 C242 1.377 . S
C247 C246 1.378 . S
C247 H275 0.931 . S
C248 O262 1.259 . S
C248 O263 1.270 . S
C249 O264 1.251 . S
C249 O265 1.251 . S
C250 Eu251 2.835 . S
C250 C252 1.500 . S
C250 O266 1.257 . S
C250 O267 1.260 . S
Eu251 C250 2.835 . S
Eu251 O263 2.355 . S
Eu251 O265 2.374 . S
Eu251 O266 2.473 . S
Eu251 O267 2.480 . S
Eu251 O268 2.430 . S
Eu251 O269 2.670 . S
Eu251 O270 2.394 . S
C252 C250 1.500 . S
C252 C253 1.377 . S
C252 C257 1.377 . S
C253 C252 1.377 . S
C253 C254 1.395 . S
C253 H276 0.931 . S
C254 C253 1.395 . S
C254 C255 1.383 . S
C254 H277 0.931 . S
C255 C254 1.383 . S
C255 C256 1.394 . S
C256 C255 1.394 . S
C256 C257 1.378 . S
C256 H278 0.931 . S
C257 C252 1.377 . S
C257 C256 1.378 . S
C257 H279 0.931 . S
C258 O268 1.259 . S
C258 O269 1.270 . S
C259 O270 1.251 . S
C259 O271 1.251 . S
O260 C240 1.257 . S
O260 Eu241 2.473 . S
O261 C240 1.260 . S
O261 Eu241 2.480 . S
O262 Eu241 2.430 . S
O262 C248 1.259 . S
O263 Eu241 2.670 . S
O263 C248 1.270 . S
O263 Eu251 2.355 . S
O264 Eu241 2.394 . S
O264 C249 1.251 . S
O265 C249 1.251 . S
O265 Eu251 2.374 . S
O266 C250 1.257 . S
O266 Eu251 2.473 . S
O267 C250 1.260 . S
O267 Eu251 2.480 . S
O268 Eu251 2.430 . S
O268 C258 1.259 . S
O269 Eu241 2.355 . S
O269 Eu251 2.670 . S
O269 C258 1.270 . S
O270 Eu251 2.394 . S
O270 C259 1.251 . S
O271 Eu241 2.374 . S
O271 C259 1.251 . S
H272 C243 0.931 . S
H273 C244 0.931 . S
H274 C246 0.931 . S
H275 C247 0.931 . S
H276 C253 0.931 . S
H277 C254 0.931 . S
H278 C256 0.931 . S
H279 C257 0.931 . S
C280 Eu281 2.835 1_455 S
C280 C282 1.500 . S
C280 O300 1.257 1_455 S
C280 O301 1.260 1_455 S
Eu281 C280 2.835 1_655 S
Eu281 O300 2.473 . S
Eu281 O301 2.480 . S
Eu281 O302 2.430 . S
Eu281 O303 2.670 . S
Eu281 O304 2.394 . S
Eu281 O309 2.355 . S
Eu281 O311 2.374 . S
C282 C280 1.500 . S
C282 C283 1.377 . S
C282 C287 1.377 . S
C283 C282 1.377 . S
C283 C284 1.395 . S
C283 H312 0.931 . S
C284 C283 1.395 . S
C284 C285 1.383 . S
C284 H313 0.931 . S
C285 C284 1.383 . S
C285 C286 1.394 . S
C286 C285 1.394 . S
C286 C287 1.378 . S
C286 H314 0.931 . S
C287 C282 1.377 . S
C287 C286 1.378 . S
C287 H315 0.931 . S
C288 O302 1.259 . S
C288 O303 1.270 . S
C289 O304 1.251 . S
C289 O305 1.251 . S
C290 Eu291 2.835 . S
C290 C292 1.500 . S
C290 O306 1.257 . S
C290 O307 1.260 . S
Eu291 C290 2.835 . S
Eu291 O303 2.355 . S
Eu291 O305 2.374 . S
Eu291 O306 2.473 . S
Eu291 O307 2.480 . S
Eu291 O308 2.430 . S
Eu291 O309 2.670 . S
Eu291 O310 2.394 . S
C292 C290 1.500 . S
C292 C293 1.377 . S
C292 C297 1.377 . S
C293 C292 1.377 . S
C293 C294 1.395 . S
C293 H316 0.931 . S
C294 C293 1.395 . S
C294 C295 1.383 . S
C294 H317 0.931 . S
C295 C294 1.383 . S
C295 C296 1.394 . S
C296 C295 1.394 . S
C296 C297 1.378 . S
C296 H318 0.931 . S
C297 C292 1.377 . S
C297 C296 1.378 . S
C297 H319 0.931 . S
C298 O308 1.259 . S
C298 O309 1.270 . S
C299 O310 1.251 . S
C299 O311 1.251 . S
O300 C280 1.257 1_655 S
O300 Eu281 2.473 . S
O301 C280 1.260 1_655 S
O301 Eu281 2.480 . S
O302 Eu281 2.430 . S
O302 C288 1.259 . S
O303 Eu281 2.670 . S
O303 C288 1.270 . S
O303 Eu291 2.355 . S
O304 Eu281 2.394 . S
O304 C289 1.251 . S
O305 C289 1.251 . S
O305 Eu291 2.374 . S
O306 C290 1.257 . S
O306 Eu291 2.473 . S
O307 C290 1.260 . S
O307 Eu291 2.480 . S
O308 Eu291 2.430 . S
O308 C298 1.259 . S
O309 Eu281 2.355 . S
O309 Eu291 2.670 . S
O309 C298 1.270 . S
O310 Eu291 2.394 . S
O310 C299 1.251 . S
O311 Eu281 2.374 . S
O311 C299 1.251 . S
H312 C283 0.931 . S
H313 C284 0.931 . S
H314 C286 0.931 . S
H315 C287 0.931 . S
H316 C293 0.931 . S
H317 C294 0.931 . S
H318 C296 0.931 . S
H319 C297 0.931 . S
C320 Eu321 2.835 . S
C320 C322 1.500 . S
C320 O340 1.257 . S
C320 O341 1.260 . S
Eu321 C320 2.835 . S
Eu321 O340 2.473 . S
Eu321 O341 2.480 . S
Eu321 O342 2.430 . S
Eu321 O343 2.670 . S
Eu321 O344 2.394 . S
Eu321 O349 2.355 . S
Eu321 O351 2.374 . S
C322 C320 1.500 . S
C322 C323 1.377 . S
C322 C327 1.377 . S
C323 C322 1.377 . S
C323 C324 1.395 . S
C323 H352 0.931 . S
C324 C323 1.395 . S
C324 C325 1.383 . S
C324 H353 0.931 . S
C325 C324 1.383 . S
C325 C326 1.394 . S
C326 C325 1.394 . S
C326 C327 1.378 . S
C326 H354 0.931 . S
C327 C322 1.377 . S
C327 C326 1.378 . S
C327 H355 0.931 . S
C328 O342 1.259 . S
C328 O343 1.270 . S
C329 O344 1.251 . S
C329 O345 1.251 . S
C330 Eu331 2.835 . S
C330 C332 1.500 . S
C330 O346 1.257 . S
C330 O347 1.260 . S
Eu331 C330 2.835 . S
Eu331 O343 2.355 . S
Eu331 O345 2.374 . S
Eu331 O346 2.473 . S
Eu331 O347 2.480 . S
Eu331 O348 2.430 . S
Eu331 O349 2.670 . S
Eu331 O350 2.394 . S
C332 C330 1.500 . S
C332 C333 1.377 . S
C332 C337 1.377 . S
C333 C332 1.377 . S
C333 C334 1.395 . S
C333 H356 0.931 . S
C334 C333 1.395 . S
C334 C335 1.383 . S
C334 H357 0.931 . S
C335 C334 1.383 . S
C335 C336 1.394 . S
C336 C335 1.394 . S
C336 C337 1.378 . S
C336 H358 0.931 . S
C337 C332 1.377 . S
C337 C336 1.378 . S
C337 H359 0.931 . S
C338 O348 1.259 . S
C338 O349 1.270 . S
C339 O350 1.251 . S
C339 O351 1.251 . S
O340 C320 1.257 . S
O340 Eu321 2.473 . S
O341 C320 1.260 . S
O341 Eu321 2.480 . S
O342 Eu321 2.430 . S
O342 C328 1.259 . S
O343 Eu321 2.670 . S
O343 C328 1.270 . S
O343 Eu331 2.355 . S
O344 Eu321 2.394 . S
O344 C329 1.251 . S
O345 C329 1.251 . S
O345 Eu331 2.374 . S
O346 C330 1.257 . S
O346 Eu331 2.473 . S
O347 C330 1.260 . S
O347 Eu331 2.480 . S
O348 Eu331 2.430 . S
O348 C338 1.259 . S
O349 Eu321 2.355 . S
O349 Eu331 2.670 . S
O349 C338 1.270 . S
O350 Eu331 2.394 . S
O350 C339 1.251 . S
O351 Eu321 2.374 . S
O351 C339 1.251 . S
H352 C323 0.931 . S
H353 C324 0.931 . S
H354 C326 0.931 . S
H355 C327 0.931 . S
H356 C333 0.931 . S
H357 C334 0.931 . S
H358 C336 0.931 . S
H359 C337 0.931 . S
H360 C366 0.930 . S
H361 C370 0.930 . S
H362 C375 0.929 . S
H363 C373 0.929 . S
H364 C368 0.929 . S
H365 C374 0.929 . S
C366 H360 0.930 . S
C366 C367 1.367 . S
C366 C374 1.378 . S
C367 C366 1.367 . S
C367 C375 1.433 1_556 S
C368 H364 0.929 . S
C368 C370 1.378 . S
C368 C372 1.350 1_554 S
C369 C372 1.463 . S
C369 C374 1.350 . S
C369 N377 1.427 1_556 S
C370 H361 0.930 . S
C370 C368 1.378 . S
C370 C371 1.367 1_554 S
C371 C370 1.367 1_556 S
C371 C373 1.433 . S
C372 C368 1.350 1_556 S
C372 C369 1.463 . S
C372 N376 1.427 . S
C373 H363 0.929 . S
C373 C371 1.433 . S
C373 N376 1.384 . S
C374 H365 0.929 . S
C374 C366 1.378 . S
C374 C369 1.350 . S
C375 H362 0.929 . S
C375 C367 1.433 1_554 S
C375 N377 1.384 . S
N376 C372 1.427 . S
N376 C373 1.384 . S
N377 C369 1.427 1_554 S
N377 C375 1.384 . S
H378 C384 0.930 . S
H379 C388 0.930 . S
H380 C393 0.929 . S
H381 C391 0.929 . S
H382 C386 0.929 . S
H383 C392 0.929 . S
C384 H378 0.930 . S
C384 C385 1.367 1_554 S
C384 C392 1.378 . S
C385 C384 1.367 1_556 S
C385 C393 1.433 . S
C386 H382 0.929 . S
C386 C388 1.378 . S
C386 C390 1.350 . S
C387 C390 1.463 . S
C387 C392 1.350 1_556 S
C387 N395 1.427 . S
C388 H379 0.930 . S
C388 C386 1.378 . S
C388 C389 1.367 . S
C389 C388 1.367 . S
C389 C391 1.433 1_556 S
C390 C386 1.350 . S
C390 C387 1.463 . S
C390 N394 1.427 1_556 S
C391 H381 0.929 . S
C391 C389 1.433 1_554 S
C391 N394 1.384 . S
C392 H383 0.929 . S
C392 C384 1.378 . S
C392 C387 1.350 1_554 S
C393 H380 0.929 . S
C393 C385 1.433 . S
C393 N395 1.384 . S
N394 C390 1.427 1_554 S
N394 C391 1.384 . S
N395 C387 1.427 . S
N395 C393 1.384 . S
H396 C402 0.930 . S
H397 C406 0.930 . S
H398 C411 0.929 . S
H399 C409 0.929 . S
H400 C404 0.929 . S
H401 C410 0.929 . S
C402 H396 0.930 . S
C402 C403 1.367 1_554 S
C402 C410 1.378 . S
C403 C402 1.367 1_556 S
C403 C411 1.433 . S
C404 H400 0.929 . S
C404 C406 1.378 . S
C404 C408 1.350 . S
C405 C408 1.463 . S
C405 C410 1.350 1_556 S
C405 N413 1.427 . S
C406 H397 0.930 . S
C406 C404 1.378 . S
C406 C407 1.367 . S
C407 C406 1.367 . S
C407 C409 1.433 1_556 S
C408 C404 1.350 . S
C408 C405 1.463 . S
C408 N412 1.427 1_556 S
C409 H399 0.929 . S
C409 C407 1.433 1_554 S
C409 N412 1.384 . S
C410 H401 0.929 . S
C410 C402 1.378 . S
C410 C405 1.350 1_554 S
C411 H398 0.929 . S
C411 C403 1.433 . S
C411 N413 1.384 . S
N412 C408 1.427 1_554 S
N412 C409 1.384 . S
N413 C405 1.427 . S
N413 C411 1.384 . S
H414 C420 0.930 . S
H415 C424 0.930 . S
H416 C429 0.929 . S
H417 C427 0.929 . S
H418 C422 0.929 . S
H419 C428 0.929 . S
C420 H414 0.930 . S
C420 C421 1.367 . S
C420 C428 1.378 . S
C421 C420 1.367 . S
C421 C429 1.433 1_554 S
C422 H418 0.929 . S
C422 C424 1.378 . S
C422 C426 1.350 1_556 S
C423 C426 1.463 . S
C423 C428 1.350 . S
C423 N431 1.427 1_554 S
C424 H415 0.930 . S
C424 C422 1.378 . S
C424 C425 1.367 1_556 S
C425 C424 1.367 1_554 S
C425 C427 1.433 . S
C426 C422 1.350 1_554 S
C426 C423 1.463 . S
C426 N430 1.427 . S
C427 H417 0.929 . S
C427 C425 1.433 . S
C427 N430 1.384 . S
C428 H419 0.929 . S
C428 C420 1.378 . S
C428 C423 1.350 . S
C429 H416 0.929 . S
C429 C421 1.433 1_556 S
C429 N431 1.384 . S
N430 C426 1.427 . S
N430 C427 1.384 . S
N431 C423 1.427 1_556 S
N431 C429 1.384 . S
H432 C438 0.930 . S
H433 C442 0.930 . S
H434 C447 0.929 . S
H435 C445 0.929 . S
H436 C440 0.929 . S
H437 C446 0.929 . S
C438 H432 0.930 . S
C438 C439 1.367 1_556 S
C438 C446 1.378 . S
C439 C438 1.367 1_554 S
C439 C447 1.433 . S
C440 H436 0.929 . S
C440 C442 1.378 . S
C440 C444 1.350 . S
C441 C444 1.463 . S
C441 C446 1.350 1_554 S
C441 N449 1.427 . S
C442 H433 0.930 . S
C442 C440 1.378 . S
C442 C443 1.367 . S
C443 C442 1.367 . S
C443 C445 1.433 1_554 S
C444 C440 1.350 . S
C444 C441 1.463 . S
C444 N448 1.427 1_554 S
C445 H435 0.929 . S
C445 C443 1.433 1_556 S
C445 N448 1.384 . S
C446 H437 0.929 . S
C446 C438 1.378 . S
C446 C441 1.350 1_556 S
C447 H434 0.929 . S
C447 C439 1.433 . S
C447 N449 1.384 . S
N448 C444 1.427 1_556 S
N448 C445 1.384 . S
N449 C441 1.427 . S
N449 C447 1.384 . S
H450 C456 0.930 . S
H451 C460 0.930 . S
H452 C465 0.929 . S
H453 C463 0.929 . S
H454 C458 0.929 . S
H455 C464 0.929 . S
C456 H450 0.930 . S
C456 C457 1.367 . S
C456 C464 1.378 . S
C457 C456 1.367 . S
C457 C465 1.433 1_554 S
C458 H454 0.929 . S
C458 C460 1.378 . S
C458 C462 1.350 1_556 S
C459 C462 1.463 . S
C459 C464 1.350 . S
C459 N467 1.427 1_554 S
C460 H451 0.930 . S
C460 C458 1.378 . S
C460 C461 1.367 1_556 S
C461 C460 1.367 1_554 S
C461 C463 1.433 . S
C462 C458 1.350 1_554 S
C462 C459 1.463 . S
C462 N466 1.427 . S
C463 H453 0.929 . S
C463 C461 1.433 . S
C463 N466 1.384 . S
C464 H455 0.929 . S
C464 C456 1.378 . S
C464 C459 1.350 . S
C465 H452 0.929 . S
C465 C457 1.433 1_556 S
C465 N467 1.384 . S
N466 C462 1.427 . S
N466 C463 1.384 . S
N467 C459 1.427 1_556 S
N467 C465 1.384 . S
H468 C474 0.930 . S
H469 C478 0.930 . S
H470 C483 0.929 . S
H471 C481 0.929 . S
H472 C476 0.929 . S
H473 C482 0.929 . S
C474 H468 0.930 . S
C474 C475 1.367 . S
C474 C482 1.378 . S
C475 C474 1.367 . S
C475 C483 1.433 . S
C476 H472 0.929 . S
C476 C478 1.378 . S
C476 C480 1.350 . S
C477 C480 1.463 . S
C477 C482 1.350 . S
C477 N485 1.427 . S
C478 H469 0.930 . S
C478 C476 1.378 . S
C478 C479 1.367 . S
C479 C478 1.367 . S
C479 C481 1.433 . S
C480 C476 1.350 . S
C480 C477 1.463 . S
C480 N484 1.427 . S
C481 H471 0.929 . S
C481 C479 1.433 . S
C481 N484 1.384 . S
C482 H473 0.929 . S
C482 C474 1.378 . S
C482 C477 1.350 . S
C483 H470 0.929 . S
C483 C475 1.433 . S
C483 N485 1.384 . S
N484 C480 1.427 . S
N484 C481 1.384 . S
N485 C477 1.427 . S
N485 C483 1.384 . S
H486 C492 0.930 . S
H487 C496 0.930 . S
H488 C501 0.929 . S
H489 C499 0.929 . S
H490 C494 0.929 1_565 S
H491 C500 0.929 . S
C492 H486 0.930 . S
C492 C493 1.367 . S
C492 C500 1.378 . S
C493 C492 1.367 . S
C493 C501 1.433 . S
C494 H490 0.929 1_545 S
C494 C496 1.378 1_545 S
C494 C498 1.350 . S
C495 C498 1.463 . S
C495 C500 1.350 . S
C495 N503 1.427 . S
C496 H487 0.930 . S
C496 C494 1.378 1_565 S
C496 C497 1.367 . S
C497 C496 1.367 . S
C497 C499 1.433 1_565 S
C498 C494 1.350 . S
C498 C495 1.463 . S
C498 N502 1.427 . S
C499 H489 0.929 . S
C499 C497 1.433 1_545 S
C499 N502 1.384 . S
C500 H491 0.929 . S
C500 C492 1.378 . S
C500 C495 1.350 . S
C501 H488 0.929 . S
C501 C493 1.433 . S
C501 N503 1.384 . S
N502 C498 1.427 . S
N502 C499 1.384 . S
N503 C495 1.427 . S
N503 C501 1.384 . S
H504 C510 0.930 . S
H505 C514 0.930 . S
H506 C519 0.929 . S
H507 C517 0.929 . S
H508 C512 0.929 . S
H509 C518 0.929 . S
C510 H504 0.930 . S
C510 C511 1.367 1_655 S
C510 C518 1.378 . S
C511 C510 1.367 1_455 S
C511 C519 1.433 . S
C512 H508 0.929 . S
C512 C514 1.378 . S
C512 C516 1.350 . S
C513 C516 1.463 . S
C513 C518 1.350 . S
C513 N521 1.427 1_655 S
C514 H505 0.930 . S
C514 C512 1.378 . S
C514 C515 1.367 . S
C515 C514 1.367 . S
C515 C517 1.433 . S
C516 C512 1.350 . S
C516 C513 1.463 . S
C516 N520 1.427 . S
C517 H507 0.929 . S
C517 C515 1.433 . S
C517 N520 1.384 . S
C518 H509 0.929 . S
C518 C510 1.378 . S
C518 C513 1.350 . S
C519 H506 0.929 . S
C519 C511 1.433 . S
C519 N521 1.384 . S
N520 C516 1.427 . S
N520 C517 1.384 . S
N521 C513 1.427 1_455 S
N521 C519 1.384 . S
H522 C528 0.930 . S
H523 C532 0.930 . S
H524 C537 0.929 . S
H525 C535 0.929 . S
H526 C530 0.929 . S
H527 C536 0.929 . S
C528 H522 0.930 . S
C528 C529 1.367 . S
C528 C536 1.378 . S
C529 C528 1.367 . S
C529 C537 1.433 . S
C530 H526 0.929 . S
C530 C532 1.378 . S
C530 C534 1.350 . S
C531 C534 1.463 . S
C531 C536 1.350 . S
C531 N539 1.427 . S
C532 H523 0.930 . S
C532 C530 1.378 . S
C532 C533 1.367 . S
C533 C532 1.367 . S
C533 C535 1.433 . S
C534 C530 1.350 . S
C534 C531 1.463 . S
C534 N538 1.427 . S
C535 H525 0.929 . S
C535 C533 1.433 . S
C535 N538 1.384 . S
C536 H527 0.929 . S
C536 C528 1.378 . S
C536 C531 1.350 . S
C537 H524 0.929 . S
C537 C529 1.433 . S
C537 N539 1.384 . S
N538 C534 1.427 . S
N538 C535 1.384 . S
N539 C531 1.427 . S
N539 C537 1.384 . S
H540 C546 0.930 . S
H541 C550 0.930 . S
H542 C555 0.929 . S
H543 C553 0.929 . S
H544 C548 0.929 . S
H545 C554 0.929 . S
C546 H540 0.930 . S
C546 C547 1.367 . S
C546 C554 1.378 . S
C547 C546 1.367 . S
C547 C555 1.433 . S
C548 H544 0.929 . S
C548 C550 1.378 . S
C548 C552 1.350 . S
C549 C552 1.463 . S
C549 C554 1.350 . S
C549 N557 1.427 . S
C550 H541 0.930 . S
C550 C548 1.378 . S
C550 C551 1.367 . S
C551 C550 1.367 . S
C551 C553 1.433 . S
C552 C548 1.350 . S
C552 C549 1.463 . S
C552 N556 1.427 . S
C553 H543 0.929 . S
C553 C551 1.433 . S
C553 N556 1.384 . S
C554 H545 0.929 . S
C554 C546 1.378 . S
C554 C549 1.350 . S
C555 H542 0.929 . S
C555 C547 1.433 . S
C555 N557 1.384 . S
N556 C552 1.427 . S
N556 C553 1.384 . S
N557 C549 1.427 . S
N557 C555 1.384 . S
H558 C564 0.930 . S
H559 C568 0.930 . S
H560 C573 0.929 . S
H561 C571 0.929 . S
H562 C566 0.929 . S
H563 C572 0.929 . S
C564 H558 0.930 . S
C564 C565 1.367 . S
C564 C572 1.378 . S
C565 C564 1.367 . S
C565 C573 1.433 . S
C566 H562 0.929 . S
C566 C568 1.378 . S
C566 C570 1.350 . S
C567 C570 1.463 . S
C567 C572 1.350 . S
C567 N575 1.427 . S
C568 H559 0.930 . S
C568 C566 1.378 . S
C568 C569 1.367 . S
C569 C568 1.367 . S
C569 C571 1.433 . S
C570 C566 1.350 . S
C570 C567 1.463 . S
C570 N574 1.427 . S
C571 H561 0.929 . S
C571 C569 1.433 . S
C571 N574 1.384 . S
C572 H563 0.929 . S
C572 C564 1.378 . S
C572 C567 1.350 . S
C573 H560 0.929 . S
C573 C565 1.433 . S
C573 N575 1.384 . S
N574 C570 1.427 . S
N574 C571 1.384 . S
N575 C567 1.427 . S
N575 C573 1.384 . S
H576 C582 0.930 . S
H577 C586 0.930 . S
H578 C591 0.929 . S
H579 C589 0.929 . S
H580 C584 0.929 . S
H581 C590 0.929 . S
C582 H576 0.930 . S
C582 C583 1.367 . S
C582 C590 1.378 . S
C583 C582 1.367 . S
C583 C591 1.433 . S
C584 H580 0.929 . S
C584 C586 1.378 . S
C584 C588 1.350 . S
C585 C588 1.463 . S
C585 C590 1.350 . S
C585 N593 1.427 . S
C586 H577 0.930 . S
C586 C584 1.378 . S
C586 C587 1.367 . S
C587 C586 1.367 . S
C587 C589 1.433 . S
C588 C584 1.350 . S
C588 C585 1.463 . S
C588 N592 1.427 . S
C589 H579 0.929 . S
C589 C587 1.433 . S
C589 N592 1.384 . S
C590 H581 0.929 . S
C590 C582 1.378 . S
C590 C585 1.350 . S
C591 H578 0.929 . S
C591 C583 1.433 . S
C591 N593 1.384 . S
N592 C588 1.427 . S
N592 C589 1.384 . S
N593 C585 1.427 . S
N593 C591 1.384 . S
H594 C600 0.930 . S
H595 C604 0.930 . S
H596 C609 0.929 . S
H597 C607 0.929 . S
H598 C602 0.929 . S
H599 C608 0.929 . S
C600 H594 0.930 . S
C600 C601 1.367 . S
C600 C608 1.378 . S
C601 C600 1.367 . S
C601 C609 1.433 . S
C602 H598 0.929 . S
C602 C604 1.378 . S
C602 C606 1.350 . S
C603 C606 1.463 . S
C603 C608 1.350 . S
C603 N611 1.427 . S
C604 H595 0.930 . S
C604 C602 1.378 . S
C604 C605 1.367 . S
C605 C604 1.367 . S
C605 C607 1.433 . S
C606 C602 1.350 . S
C606 C603 1.463 . S
C606 N610 1.427 . S
C607 H597 0.929 . S
C607 C605 1.433 . S
C607 N610 1.384 . S
C608 H599 0.929 . S
C608 C600 1.378 . S
C608 C603 1.350 . S
C609 H596 0.929 . S
C609 C601 1.433 . S
C609 N611 1.384 . S
N610 C606 1.427 . S
N610 C607 1.384 . S
N611 C603 1.427 . S
N611 C609 1.384 . S
H612 C618 0.930 . S
H613 C622 0.930 . S
H614 C627 0.929 . S
H615 C625 0.929 . S
H616 C620 0.929 . S
H617 C626 0.929 . S
C618 H612 0.930 . S
C618 C619 1.367 . S
C618 C626 1.378 . S
C619 C618 1.367 . S
C619 C627 1.433 . S
C620 H616 0.929 . S
C620 C622 1.378 . S
C620 C624 1.350 . S
C621 C624 1.463 . S
C621 C626 1.350 . S
C621 N629 1.427 . S
C622 H613 0.930 . S
C622 C620 1.378 . S
C622 C623 1.367 . S
C623 C622 1.367 . S
C623 C625 1.433 . S
C624 C620 1.350 . S
C624 C621 1.463 . S
C624 N628 1.427 . S
C625 H615 0.929 . S
C625 C623 1.433 . S
C625 N628 1.384 . S
C626 H617 0.929 . S
C626 C618 1.378 . S
C626 C621 1.350 . S
C627 H614 0.929 . S
C627 C619 1.433 . S
C627 N629 1.384 . S
N628 C624 1.427 . S
N628 C625 1.384 . S
N629 C621 1.427 . S
N629 C627 1.384 . S
H630 C636 0.930 . S
H631 C640 0.930 . S
H632 C645 0.929 . S
H633 C643 0.929 . S
H634 C638 0.929 . S
H635 C644 0.929 1_545 S
C636 H630 0.930 . S
C636 C637 1.367 . S
C636 C644 1.378 . S
C637 C636 1.367 . S
C637 C645 1.433 . S
C638 H634 0.929 . S
C638 C640 1.378 . S
C638 C642 1.350 . S
C639 C642 1.463 . S
C639 C644 1.350 1_545 S
C639 N647 1.427 1_545 S
C640 H631 0.930 . S
C640 C638 1.378 . S
C640 C641 1.367 . S
C641 C640 1.367 . S
C641 C643 1.433 . S
C642 C638 1.350 . S
C642 C639 1.463 . S
C642 N646 1.427 . S
C643 H633 0.929 . S
C643 C641 1.433 . S
C643 N646 1.384 . S
C644 H635 0.929 1_565 S
C644 C636 1.378 . S
C644 C639 1.350 1_565 S
C645 H632 0.929 . S
C645 C637 1.433 . S
C645 N647 1.384 . S
N646 C642 1.427 . S
N646 C643 1.384 . S
N647 C639 1.427 1_565 S
N647 C645 1.384 . S
H648 C654 0.930 . S
H649 C658 0.930 . S
H650 C663 0.929 . S
H651 C661 0.929 . S
H652 C656 0.929 . S
H653 C662 0.929 . S
C654 H648 0.930 . S
C654 C655 1.367 . S
C654 C662 1.378 . S
C655 C654 1.367 . S
C655 C663 1.433 . S
C656 H652 0.929 . S
C656 C658 1.378 . S
C656 C660 1.350 . S
C657 C660 1.463 1_655 S
C657 C662 1.350 . S
C657 N665 1.427 . S
C658 H649 0.930 . S
C658 C656 1.378 . S
C658 C659 1.367 . S
C659 C658 1.367 . S
C659 C661 1.433 . S
C660 C656 1.350 . S
C660 C657 1.463 1_455 S
C660 N664 1.427 . S
C661 H651 0.929 . S
C661 C659 1.433 . S
C661 N664 1.384 . S
C662 H653 0.929 . S
C662 C654 1.378 . S
C662 C657 1.350 . S
C663 H650 0.929 . S
C663 C655 1.433 . S
C663 N665 1.384 . S
N664 C660 1.427 . S
N664 C661 1.384 . S
N665 C657 1.427 . S
N665 C663 1.384 . S
H666 C672 0.930 . S
H667 C676 0.930 . S
H668 C681 0.929 . S
H669 C679 0.929 . S
H670 C674 0.929 . S
H671 C680 0.929 . S
C672 H666 0.930 . S
C672 C673 1.367 . S
C672 C680 1.378 . S
C673 C672 1.367 . S
C673 C681 1.433 . S
C674 H670 0.929 . S
C674 C676 1.378 . S
C674 C678 1.350 . S
C675 C678 1.463 . S
C675 C680 1.350 . S
C675 N683 1.427 . S
C676 H667 0.930 . S
C676 C674 1.378 . S
C676 C677 1.367 . S
C677 C676 1.367 . S
C677 C679 1.433 . S
C678 C674 1.350 . S
C678 C675 1.463 . S
C678 N682 1.427 . S
C679 H669 0.929 . S
C679 C677 1.433 . S
C679 N682 1.384 . S
C680 H671 0.929 . S
C680 C672 1.378 . S
C680 C675 1.350 . S
C681 H668 0.929 . S
C681 C673 1.433 . S
C681 N683 1.384 . S
N682 C678 1.427 . S
N682 C679 1.384 . S
N683 C675 1.427 . S
N683 C681 1.384 . S
H684 C690 0.930 . S
H685 C694 0.930 . S
H686 C699 0.929 . S
H687 C697 0.929 . S
H688 C692 0.929 . S
H689 C698 0.929 . S
C690 H684 0.930 . S
C690 C691 1.367 . S
C690 C698 1.378 . S
C691 C690 1.367 . S
C691 C699 1.433 . S
C692 H688 0.929 . S
C692 C694 1.378 . S
C692 C696 1.350 . S
C693 C696 1.463 . S
C693 C698 1.350 . S
C693 N701 1.427 . S
C694 H685 0.930 . S
C694 C692 1.378 . S
C694 C695 1.367 . S
C695 C694 1.367 . S
C695 C697 1.433 . S
C696 C692 1.350 . S
C696 C693 1.463 . S
C696 N700 1.427 . S
C697 H687 0.929 . S
C697 C695 1.433 . S
C697 N700 1.384 . S
C698 H689 0.929 . S
C698 C690 1.378 . S
C698 C693 1.350 . S
C699 H686 0.929 . S
C699 C691 1.433 . S
C699 N701 1.384 . S
N700 C696 1.427 . S
N700 C697 1.384 . S
N701 C693 1.427 . S
N701 C699 1.384 . S
H702 C708 0.930 . S
H703 C712 0.930 . S
H704 C717 0.929 . S
H705 C715 0.929 . S
H706 C710 0.929 . S
H707 C716 0.929 . S
C708 H702 0.930 . S
C708 C709 1.367 . S
C708 C716 1.378 . S
C709 C708 1.367 . S
C709 C717 1.433 . S
C710 H706 0.929 . S
C710 C712 1.378 . S
C710 C714 1.350 . S
C711 C714 1.463 . S
C711 C716 1.350 . S
C711 N719 1.427 . S
C712 H703 0.930 . S
C712 C710 1.378 . S
C712 C713 1.367 . S
C713 C712 1.367 . S
C713 C715 1.433 . S
C714 C710 1.350 . S
C714 C711 1.463 . S
C714 N718 1.427 . S
C715 H705 0.929 . S
C715 C713 1.433 . S
C715 N718 1.384 . S
C716 H707 0.929 . S
C716 C708 1.378 . S
C716 C711 1.350 . S
C717 H704 0.929 . S
C717 C709 1.433 . S
C717 N719 1.384 . S
N718 C714 1.427 . S
N718 C715 1.384 . S
N719 C711 1.427 . S
N719 C717 1.384 . S
H720 C726 0.930 . S
H721 C730 0.930 . S
H722 C735 0.929 . S
H723 C733 0.929 . S
H724 C728 0.929 . S
H725 C734 0.929 . S
C726 H720 0.930 . S
C726 C727 1.367 . S
C726 C734 1.378 . S
C727 C726 1.367 . S
C727 C735 1.433 1_565 S
C728 H724 0.929 . S
C728 C730 1.378 . S
C728 C732 1.350 . S
C729 C732 1.463 . S
C729 C734 1.350 . S
C729 N737 1.427 . S
C730 H721 0.930 . S
C730 C728 1.378 . S
C730 C731 1.367 . S
C731 C730 1.367 . S
C731 C733 1.433 . S
C732 C728 1.350 . S
C732 C729 1.463 . S
C732 N736 1.427 . S
C733 H723 0.929 . S
C733 C731 1.433 . S
C733 N736 1.384 . S
C734 H725 0.929 . S
C734 C726 1.378 . S
C734 C729 1.350 . S
C735 H722 0.929 . S
C735 C727 1.433 1_545 S
C735 N737 1.384 1_545 S
N736 C732 1.427 . S
N736 C733 1.384 . S
N737 C729 1.427 . S
N737 C735 1.384 1_565 S
H738 C744 0.930 . S
H739 C748 0.930 . S
H740 C753 0.929 1_565 S
H741 C751 0.929 . S
H742 C746 0.929 . S
H743 C752 0.929 . S
C744 H738 0.930 . S
C744 C745 1.367 . S
C744 C752 1.378 . S
C745 C744 1.367 . S
C745 C753 1.433 . S
C746 H742 0.929 . S
C746 C748 1.378 . S
C746 C750 1.350 . S
C747 C750 1.463 . S
C747 C752 1.350 . S
C747 N755 1.427 . S
C748 H739 0.930 . S
C748 C746 1.378 . S
C748 C749 1.367 . S
C749 C748 1.367 . S
C749 C751 1.433 . S
C750 C746 1.350 . S
C750 C747 1.463 . S
C750 N754 1.427 . S
C751 H741 0.929 . S
C751 C749 1.433 . S
C751 N754 1.384 . S
C752 H743 0.929 . S
C752 C744 1.378 . S
C752 C747 1.350 . S
C753 H740 0.929 1_545 S
C753 C745 1.433 . S
C753 N755 1.384 . S
N754 C750 1.427 . S
N754 C751 1.384 . S
N755 C747 1.427 . S
N755 C753 1.384 . S
H756 C762 0.930 1_455 S
H757 C766 0.930 . S
H758 C771 0.929 . S
H759 C769 0.929 . S
H760 C764 0.929 . S
H761 C770 0.929 . S
C762 H756 0.930 1_655 S
C762 C763 1.367 . S
C762 C770 1.378 . S
C763 C762 1.367 . S
C763 C771 1.433 . S
C764 H760 0.929 . S
C764 C766 1.378 . S
C764 C768 1.350 . S
C765 C768 1.463 . S
C765 C770 1.350 . S
C765 N773 1.427 . S
C766 H757 0.930 . S
C766 C764 1.378 . S
C766 C767 1.367 . S
C767 C766 1.367 . S
C767 C769 1.433 . S
C768 C764 1.350 . S
C768 C765 1.463 . S
C768 N772 1.427 . S
C769 H759 0.929 . S
C769 C767 1.433 . S
C769 N772 1.384 . S
C770 H761 0.929 . S
C770 C762 1.378 . S
C770 C765 1.350 . S
C771 H758 0.929 . S
C771 C763 1.433 . S
C771 N773 1.384 . S
N772 C768 1.427 . S
N772 C769 1.384 . S
N773 C765 1.427 . S
N773 C771 1.384 . S
H774 C780 0.930 . S
H775 C784 0.930 . S
H776 C789 0.929 . S
H777 C787 0.929 . S
H778 C782 0.929 . S
H779 C788 0.929 . S
C780 H774 0.930 . S
C780 C781 1.367 . S
C780 C788 1.378 . S
C781 C780 1.367 . S
C781 C789 1.433 . S
C782 H778 0.929 . S
C782 C784 1.378 . S
C782 C786 1.350 . S
C783 C786 1.463 . S
C783 C788 1.350 . S
C783 N791 1.427 . S
C784 H775 0.930 . S
C784 C782 1.378 . S
C784 C785 1.367 . S
C785 C784 1.367 . S
C785 C787 1.433 . S
C786 C782 1.350 . S
C786 C783 1.463 . S
C786 N790 1.427 . S
C787 H777 0.929 . S
C787 C785 1.433 . S
C787 N790 1.384 . S
C788 H779 0.929 . S
C788 C780 1.378 . S
C788 C783 1.350 . S
C789 H776 0.929 . S
C789 C781 1.433 . S
C789 N791 1.384 . S
N790 C786 1.427 . S
N790 C787 1.384 . S
N791 C783 1.427 . S
N791 C789 1.384 . S
H792 C798 0.930 . S
H793 C802 0.930 . S
H794 C807 0.929 . S
H795 C805 0.929 . S
H796 C800 0.929 . S
H797 C806 0.929 . S
C798 H792 0.930 . S
C798 C799 1.367 . S
C798 C806 1.378 . S
C799 C798 1.367 . S
C799 C807 1.433 . S
C800 H796 0.929 . S
C800 C802 1.378 . S
C800 C804 1.350 . S
C801 C804 1.463 . S
C801 C806 1.350 . S
C801 N809 1.427 . S
C802 H793 0.930 . S
C802 C800 1.378 . S
C802 C803 1.367 . S
C803 C802 1.367 . S
C803 C805 1.433 . S
C804 C800 1.350 . S
C804 C801 1.463 . S
C804 N808 1.427 . S
C805 H795 0.929 . S
C805 C803 1.433 . S
C805 N808 1.384 . S
C806 H797 0.929 . S
C806 C798 1.378 . S
C806 C801 1.350 . S
C807 H794 0.929 . S
C807 C799 1.433 . S
C807 N809 1.384 . S
N808 C804 1.427 . S
N808 C805 1.384 . S
N809 C801 1.427 . S
N809 C807 1.384 . S
H810 C816 0.930 . S
H811 C820 0.930 . S
H812 C825 0.929 . S
H813 C823 0.929 . S
H814 C818 0.929 1_565 S
H815 C824 0.929 1_545 S
C816 H810 0.930 . S
C816 C817 1.367 . S
C816 C824 1.378 . S
C817 C816 1.367 . S
C817 C825 1.433 . S
C818 H814 0.929 1_545 S
C818 C820 1.378 . S
C818 C822 1.350 . S
C819 C822 1.463 1_565 S
C819 C824 1.350 . S
C819 N827 1.427 . S
C820 H811 0.930 . S
C820 C818 1.378 . S
C820 C821 1.367 . S
C821 C820 1.367 . S
C821 C823 1.433 . S
C822 C818 1.350 . S
C822 C819 1.463 1_545 S
C822 N826 1.427 . S
C823 H813 0.929 . S
C823 C821 1.433 . S
C823 N826 1.384 . S
C824 H815 0.929 1_565 S
C824 C816 1.378 . S
C824 C819 1.350 . S
C825 H812 0.929 . S
C825 C817 1.433 . S
C825 N827 1.384 . S
N826 C822 1.427 . S
N826 C823 1.384 . S
N827 C819 1.427 . S
N827 C825 1.384 . S
H828 C834 0.930 . S
H829 C838 0.930 . S
H830 C843 0.929 . S
H831 C841 0.929 . S
H832 C836 0.929 . S
H833 C842 0.929 1_455 S
C834 H828 0.930 . S
C834 C835 1.367 . S
C834 C842 1.378 . S
C835 C834 1.367 . S
C835 C843 1.433 . S
C836 H832 0.929 . S
C836 C838 1.378 . S
C836 C840 1.350 . S
C837 C840 1.463 1_655 S
C837 C842 1.350 . S
C837 N845 1.427 . S
C838 H829 0.930 . S
C838 C836 1.378 . S
C838 C839 1.367 . S
C839 C838 1.367 . S
C839 C841 1.433 . S
C840 C836 1.350 . S
C840 C837 1.463 1_455 S
C840 N844 1.427 . S
C841 H831 0.929 . S
C841 C839 1.433 . S
C841 N844 1.384 . S
C842 H833 0.929 1_655 S
C842 C834 1.378 . S
C842 C837 1.350 . S
C843 H830 0.929 . S
C843 C835 1.433 . S
C843 N845 1.384 . S
N844 C840 1.427 . S
N844 C841 1.384 . S
N845 C837 1.427 . S
N845 C843 1.384 . S
C367 C55 1.581 . S
C371 C19 1.613 . S
C385 C95 1.572 . S
C389 C59 1.605 . S
C403 C99 1.613 . S
C407 C15 1.581 . S
C421 C85 1.390 . S
C425 C49 1.362 . S
C439 C89 1.361 . S
C443 C5 1.389 . S
C457 C9 1.348 . S
C461 C45 1.382 . S
C475 C139 1.612 . S
C479 C175 1.580 1_655 S
C493 C215 1.570 . S
C497 C179 1.606 . S
C511 C219 1.612 . S
C515 C135 1.579 1_545 S
C529 C169 1.347 . S
C533 C205 1.382 . S
C547 C209 1.361 . S
C551 C125 1.389 . S
C565 C165 1.384 . S
C569 C129 1.355 . S
C583 C295 1.570 . S
C587 C259 1.607 . S
C601 C299 1.607 . S
C605 C335 1.576 . S
C619 C339 1.613 . S
C623 C255 1.580 . S
C637 C325 1.382 . S
C641 C289 1.352 . S
C655 C329 1.363 . S
C659 C245 1.392 . S
C673 C249 1.362 . S
C677 C285 1.389 . S
C691 C218 2.552 . S
C695 C8 2.183 . S
C709 C138 2.555 . S
C713 C48 2.198 . S
C727 C88 2.192 1_565 S
C731 C178 2.553 . S
C745 C98 2.552 . S
C749 C248 2.181 . S
C763 C18 2.554 . S
C767 C288 2.198 . S
C781 C328 2.199 . S
C785 C58 2.555 . S
C799 C128 2.181 . S
C803 C338 2.552 . S
C817 C168 2.184 . S
C821 C258 2.552 . S
C835 C298 2.553 . S
C839 C208 2.191 . S
