# Generated by pormake.
# Topology lcy-a, (4)-cn, num edge types: 1
# Building blocks:
#     Node 0, Type 0, BuildingBlock: QUQFOY_clean_sbu_1, # of connection points: 4
#     Node 1, Type 0, BuildingBlock: QUQFOY_clean_sbu_1, # of connection points: 4
#     Node 2, Type 0, BuildingBlock: QUQFOY_clean_sbu_1, # of connection points: 4
#     Node 3, Type 0, BuildingBlock: QUQFOY_clean_sbu_1, # of connection points: 4
#     Node 4, Type 0, BuildingBlock: QUQFOY_clean_sbu_1, # of connection points: 4
#     Node 5, Type 0, BuildingBlock: QUQFOY_clean_sbu_1, # of connection points: 4
#     Node 6, Type 0, BuildingBlock: QUQFOY_clean_sbu_1, # of connection points: 4
#     Node 7, Type 0, BuildingBlock: QUQFOY_clean_sbu_1, # of connection points: 4
#     Node 8, Type 0, BuildingBlock: QUQFOY_clean_sbu_1, # of connection points: 4
#     Node 9, Type 0, BuildingBlock: QUQFOY_clean_sbu_1, # of connection points: 4
#     Node 10, Type 0, BuildingBlock: QUQFOY_clean_sbu_1, # of connection points: 4
#     Node 11, Type 0, BuildingBlock: QUQFOY_clean_sbu_1, # of connection points: 4
#     Node 12, Type 0, BuildingBlock: QUQFOY_clean_sbu_1, # of connection points: 4
#     Node 13, Type 0, BuildingBlock: QUQFOY_clean_sbu_1, # of connection points: 4
#     Node 14, Type 0, BuildingBlock: QUQFOY_clean_sbu_1, # of connection points: 4
#     Node 15, Type 0, BuildingBlock: QUQFOY_clean_sbu_1, # of connection points: 4
#     Node 16, Type 0, BuildingBlock: QUQFOY_clean_sbu_1, # of connection points: 4
#     Node 17, Type 0, BuildingBlock: QUQFOY_clean_sbu_1, # of connection points: 4
#     Node 18, Type 0, BuildingBlock: QUQFOY_clean_sbu_1, # of connection points: 4
#     Node 19, Type 0, BuildingBlock: QUQFOY_clean_sbu_1, # of connection points: 4
#     Node 20, Type 0, BuildingBlock: QUQFOY_clean_sbu_1, # of connection points: 4
#     Node 21, Type 0, BuildingBlock: QUQFOY_clean_sbu_1, # of connection points: 4
#     Node 22, Type 0, BuildingBlock: QUQFOY_clean_sbu_1, # of connection points: 4
#     Node 23, Type 0, BuildingBlock: QUQFOY_clean_sbu_1, # of connection points: 4
#     Edge 24, Type (0, 0), BuildingBlock: MIFKUJ_clean_linker_0, # of connection points: 2
#     Edge 25, Type (0, 0), BuildingBlock: MIFKUJ_clean_linker_0, # of connection points: 2
#     Edge 26, Type (0, 0), BuildingBlock: MIFKUJ_clean_linker_0, # of connection points: 2
#     Edge 27, Type (0, 0), BuildingBlock: MIFKUJ_clean_linker_0, # of connection points: 2
#     Edge 28, Type (0, 0), BuildingBlock: MIFKUJ_clean_linker_0, # of connection points: 2
#     Edge 29, Type (0, 0), BuildingBlock: MIFKUJ_clean_linker_0, # of connection points: 2
#     Edge 30, Type (0, 0), BuildingBlock: MIFKUJ_clean_linker_0, # of connection points: 2
#     Edge 31, Type (0, 0), BuildingBlock: MIFKUJ_clean_linker_0, # of connection points: 2
#     Edge 32, Type (0, 0), BuildingBlock: MIFKUJ_clean_linker_0, # of connection points: 2
#     Edge 33, Type (0, 0), BuildingBlock: MIFKUJ_clean_linker_0, # of connection points: 2
#     Edge 34, Type (0, 0), BuildingBlock: MIFKUJ_clean_linker_0, # of connection points: 2
#     Edge 35, Type (0, 0), BuildingBlock: MIFKUJ_clean_linker_0, # of connection points: 2
#     Edge 36, Type (0, 0), BuildingBlock: MIFKUJ_clean_linker_0, # of connection points: 2
#     Edge 37, Type (0, 0), BuildingBlock: MIFKUJ_clean_linker_0, # of connection points: 2
#     Edge 38, Type (0, 0), BuildingBlock: MIFKUJ_clean_linker_0, # of connection points: 2
#     Edge 39, Type (0, 0), BuildingBlock: MIFKUJ_clean_linker_0, # of connection points: 2
#     Edge 40, Type (0, 0), BuildingBlock: MIFKUJ_clean_linker_0, # of connection points: 2
#     Edge 41, Type (0, 0), BuildingBlock: MIFKUJ_clean_linker_0, # of connection points: 2
#     Edge 42, Type (0, 0), BuildingBlock: MIFKUJ_clean_linker_0, # of connection points: 2
#     Edge 43, Type (0, 0), BuildingBlock: MIFKUJ_clean_linker_0, # of connection points: 2
#     Edge 44, Type (0, 0), BuildingBlock: MIFKUJ_clean_linker_0, # of connection points: 2
#     Edge 45, Type (0, 0), BuildingBlock: MIFKUJ_clean_linker_0, # of connection points: 2
#     Edge 46, Type (0, 0), BuildingBlock: MIFKUJ_clean_linker_0, # of connection points: 2
#     Edge 47, Type (0, 0), BuildingBlock: MIFKUJ_clean_linker_0, # of connection points: 2
#     Edge 48, Type (0, 0), BuildingBlock: MIFKUJ_clean_linker_0, # of connection points: 2
#     Edge 49, Type (0, 0), BuildingBlock: MIFKUJ_clean_linker_0, # of connection points: 2
#     Edge 50, Type (0, 0), BuildingBlock: MIFKUJ_clean_linker_0, # of connection points: 2
#     Edge 51, Type (0, 0), BuildingBlock: MIFKUJ_clean_linker_0, # of connection points: 2
#     Edge 52, Type (0, 0), BuildingBlock: MIFKUJ_clean_linker_0, # of connection points: 2
#     Edge 53, Type (0, 0), BuildingBlock: MIFKUJ_clean_linker_0, # of connection points: 2
#     Edge 54, Type (0, 0), BuildingBlock: MIFKUJ_clean_linker_0, # of connection points: 2
#     Edge 55, Type (0, 0), BuildingBlock: MIFKUJ_clean_linker_0, # of connection points: 2
#     Edge 56, Type (0, 0), BuildingBlock: MIFKUJ_clean_linker_0, # of connection points: 2
#     Edge 57, Type (0, 0), BuildingBlock: MIFKUJ_clean_linker_0, # of connection points: 2
#     Edge 58, Type (0, 0), BuildingBlock: MIFKUJ_clean_linker_0, # of connection points: 2
#     Edge 59, Type (0, 0), BuildingBlock: MIFKUJ_clean_linker_0, # of connection points: 2
#     Edge 60, Type (0, 0), BuildingBlock: MIFKUJ_clean_linker_0, # of connection points: 2
#     Edge 61, Type (0, 0), BuildingBlock: MIFKUJ_clean_linker_0, # of connection points: 2
#     Edge 62, Type (0, 0), BuildingBlock: MIFKUJ_clean_linker_0, # of connection points: 2
#     Edge 63, Type (0, 0), BuildingBlock: MIFKUJ_clean_linker_0, # of connection points: 2
#     Edge 64, Type (0, 0), BuildingBlock: MIFKUJ_clean_linker_0, # of connection points: 2
#     Edge 65, Type (0, 0), BuildingBlock: MIFKUJ_clean_linker_0, # of connection points: 2
#     Edge 66, Type (0, 0), BuildingBlock: MIFKUJ_clean_linker_0, # of connection points: 2
#     Edge 67, Type (0, 0), BuildingBlock: MIFKUJ_clean_linker_0, # of connection points: 2
#     Edge 68, Type (0, 0), BuildingBlock: MIFKUJ_clean_linker_0, # of connection points: 2
#     Edge 69, Type (0, 0), BuildingBlock: MIFKUJ_clean_linker_0, # of connection points: 2
#     Edge 70, Type (0, 0), BuildingBlock: MIFKUJ_clean_linker_0, # of connection points: 2
#     Edge 71, Type (0, 0), BuildingBlock: MIFKUJ_clean_linker_0, # of connection points: 2
# Relax obj value: 0.387
# Max RMSD: 0.175
# Mean RMSD: 0.175
data_MOF--net-lcy-a--node1-QUQFOY_clean_sbu_1--edge1-MIFKUJ_clean_linker_0
_symmetry_space_group_name_H-M    P1
_symmetry_Int_Tables_number       1
_symmetry_cell_setting            triclinic
loop_
_symmetry_equiv_pos_as_xyz
'x, y, z'
_cell_length_a     76.045184
_cell_length_b     76.048866
_cell_length_c     76.044623
_cell_angle_alpha  89.989482
_cell_angle_beta   89.991031
_cell_angle_gamma 89.992258
loop_
_atom_site_label
_atom_site_type_symbol
_atom_site_fract_x
_atom_site_fract_y
_atom_site_fract_z
_atom_type_partial_charge
O0 O 0.20549 0.26947 0.39364 0.0
Cd1 Cd 0.18553 0.28662 0.39871 0.0
Cd2 Cd 0.20974 0.30898 0.40819 0.0
O3 O 0.22584 0.28796 0.4028 0.0
O4 O 0.16409 0.27394 0.40623 0.0
O5 O 0.17946 0.29172 0.42367 0.0
C6 C 0.16658 0.28081 0.42159 0.0
C7 C 0.21903 0.32815 0.43066 0.0
C8 C 0.22156 0.2734 0.3958 0.0
C9 C 0.19079 0.31555 0.37404 0.0
O10 O 0.20185 0.32092 0.38534 0.0
O11 O 0.18117 0.3023 0.37727 0.0
O12 O 0.22751 0.32645 0.41616 0.0
O13 O 0.20507 0.31877 0.43271 0.0
O14 O 0.9788 0.95076 0.63394 0.0
Cd15 Cd 0.96125 0.93109 0.63983 0.0
Cd16 Cd 0.94046 0.95614 0.65379 0.0
O17 O 0.96293 0.97042 0.6481 0.0
O18 O 0.97375 0.90949 0.64736 0.0
O19 O 0.958 0.92631 0.66534 0.0
C20 C 0.96828 0.91296 0.6631 0.0
C21 C 0.92506 0.96653 0.6784 0.0
C22 C 0.97671 0.96634 0.63956 0.0
C23 C 0.92741 0.93577 0.62176 0.0
O24 O 0.92488 0.94773 0.63317 0.0
O25 O 0.94141 0.92665 0.62202 0.0
O26 O 0.92574 0.97521 0.66391 0.0
O27 O 0.933 0.95157 0.67904 0.0
O28 O 0.29529 0.72675 0.88175 0.0
Cd29 Cd 0.31542 0.71012 0.88874 0.0
Cd30 Cd 0.29067 0.689 0.90221 0.0
O31 O 0.27587 0.71113 0.89654 0.0
O32 O 0.33637 0.72358 0.89643 0.0
O33 O 0.31969 0.70768 0.91443 0.0
C34 C 0.33277 0.71833 0.91221 0.0
C35 C 0.28066 0.6732 0.92675 0.0
C36 C 0.27974 0.72463 0.88747 0.0
C37 C 0.31204 0.67632 0.87062 0.0
O38 O 0.29955 0.67381 0.88146 0.0
O39 O 0.32125 0.69021 0.87149 0.0
O40 O 0.27208 0.67359 0.91219 0.0
O41 O 0.29531 0.68171 0.9275 0.0
O42 O 0.51463 0.04383 0.13607 0.0
Cd43 Cd 0.53159 0.06428 0.14094 0.0
Cd44 Cd 0.55452 0.03998 0.15219 0.0
O45 O 0.5325 0.02453 0.1482 0.0
O46 O 0.5184 0.08516 0.14922 0.0
O47 O 0.53644 0.0696 0.16614 0.0
C48 C 0.5253 0.08235 0.1645 0.0
C49 C 0.57279 0.03012 0.17503 0.0
C50 C 0.51787 0.02822 0.141 0.0
C51 C 0.56367 0.0616 0.11958 0.0
O52 O 0.5677 0.04944 0.13034 0.0
O53 O 0.54948 0.07019 0.12155 0.0
O54 O 0.57145 0.02186 0.16035 0.0
O55 O 0.56373 0.04434 0.1769 0.0
O56 O 0.7024 0.23429 0.61295 0.0
Cd57 Cd 0.68387 0.21543 0.60737 0.0
Cd58 Cd 0.71042 0.19602 0.59445 0.0
O59 O 0.72314 0.21962 0.59901 0.0
O60 O 0.66163 0.22624 0.59899 0.0
O61 O 0.67954 0.21058 0.58204 0.0
C62 C 0.66551 0.22006 0.58362 0.0
C63 C 0.72148 0.18018 0.57038 0.0
C64 C 0.71808 0.23323 0.6073 0.0
C65 C 0.69095 0.18296 0.62706 0.0
O66 O 0.70332 0.18098 0.61598 0.0
O67 O 0.68054 0.19598 0.62584 0.0
O68 O 0.73021 0.18196 0.58474 0.0
O69 O 0.70611 0.18731 0.56956 0.0
O70 O 0.01508 0.45563 0.86601 0.0
Cd71 Cd 0.03293 0.43639 0.85958 0.0
Cd72 Cd 0.05378 0.4622 0.8475 0.0
O73 O 0.03181 0.47652 0.85488 0.0
O74 O 0.02111 0.41452 0.85181 0.0
O75 O 0.03629 0.43204 0.83397 0.0
C76 C 0.02666 0.41821 0.83617 0.0
C77 C 0.06957 0.47338 0.82345 0.0
C78 C 0.01767 0.47174 0.86244 0.0
C79 C 0.06678 0.43984 0.87806 0.0
O80 O 0.06961 0.45214 0.86712 0.0
O81 O 0.05247 0.43126 0.87758 0.0
O82 O 0.06916 0.48125 0.8384 0.0
O83 O 0.0607 0.45901 0.82188 0.0
O84 O 0.79197 0.76179 0.11279 0.0
Cd85 Cd 0.80915 0.78223 0.10795 0.0
Cd86 Cd 0.78084 0.79851 0.09585 0.0
O87 O 0.77034 0.77357 0.09755 0.0
O88 O 0.83238 0.77247 0.10121 0.0
O89 O 0.81494 0.78699 0.08282 0.0
C90 C 0.82924 0.77816 0.0855 0.0
C91 C 0.77088 0.81678 0.07308 0.0
C92 C 0.77664 0.76074 0.10622 0.0
C93 C 0.79802 0.81181 0.12957 0.0
O94 O 0.78491 0.81172 0.11921 0.0
O95 O 0.81094 0.80159 0.12683 0.0
O96 O 0.76094 0.81231 0.08601 0.0
O97 O 0.7866 0.81043 0.07266 0.0
O98 O 0.48252 0.54249 0.36553 0.0
Cd99 Cd 0.46698 0.56426 0.36192 0.0
Cd100 Cd 0.44188 0.54148 0.35273 0.0
O101 O 0.46188 0.52373 0.35772 0.0
O102 O 0.48227 0.58391 0.35437 0.0
O103 O 0.46206 0.57167 0.33721 0.0
C104 C 0.47474 0.58284 0.33917 0.0
C105 C 0.42259 0.53366 0.33 0.0
C106 C 0.47745 0.5268 0.36295 0.0
C107 C 0.43586 0.56459 0.38486 0.0
O108 O 0.43007 0.55315 0.37415 0.0
O109 O 0.45097 0.57134 0.38261 0.0
O110 O 0.4227 0.5256 0.34486 0.0
O111 O 0.43364 0.54635 0.32781 0.0
O112 O 0.38413 0.20627 0.24991 0.0
Cd113 Cd 0.38626 0.18951 0.27105 0.0
Cd114 Cd 0.40194 0.21699 0.28635 0.0
O115 O 0.40328 0.22532 0.2605 0.0
O116 O 0.39315 0.16536 0.26363 0.0
O117 O 0.41056 0.18356 0.27838 0.0
C118 C 0.40838 0.1687 0.27045 0.0
C119 C 0.42472 0.22552 0.30533 0.0
C120 C 0.3936 0.2199 0.248 0.0
C121 C 0.36525 0.20517 0.29863 0.0
O122 O 0.37744 0.21662 0.29831 0.0
O123 O 0.36654 0.1913 0.28942 0.0
O124 O 0.41332 0.23658 0.2995 0.0
O125 O 0.4236 0.20947 0.29999 0.0
O126 O 0.0487 0.12967 0.51793 0.0
Cd127 Cd 0.06649 0.13512 0.53752 0.0
Cd128 Cd 0.0392 0.14818 0.55569 0.0
O129 O 0.02716 0.14325 0.53177 0.0
O130 O 0.08933 0.14271 0.52746 0.0
O131 O 0.07116 0.16049 0.54187 0.0
C132 C 0.08549 0.15833 0.53299 0.0
C133 C 0.02799 0.17241 0.57118 0.0
C134 C 0.03289 0.13504 0.51837 0.0
C135 C 0.05818 0.11568 0.56977 0.0
O136 O 0.04585 0.12688 0.57123 0.0
O137 O 0.06897 0.11662 0.55707 0.0
O138 O 0.01913 0.15817 0.56915 0.0
O139 O 0.04351 0.17308 0.56436 0.0
O140 O 0.11612 0.79554 0.76028 0.0
Cd141 Cd 0.11123 0.81271 0.78052 0.0
Cd142 Cd 0.09765 0.78489 0.79772 0.0
O143 O 0.10189 0.77379 0.77317 0.0
O144 O 0.10364 0.83604 0.7716 0.0
O145 O 0.08592 0.81722 0.78526 0.0
C146 C 0.08806 0.83194 0.77704 0.0
C147 C 0.07387 0.77398 0.81408 0.0
C148 C 0.11022 0.77991 0.76 0.0
C149 C 0.13057 0.8029 0.81231 0.0
O150 O 0.1192 0.79069 0.81323 0.0
O151 O 0.12986 0.8142 0.80004 0.0
O152 O 0.0877 0.76473 0.81106 0.0
O153 O 0.07316 0.78952 0.80732 0.0
O154 O 0.45338 0.86442 0.01341 0.0
Cd155 Cd 0.43478 0.85948 0.03242 0.0
Cd156 Cd 0.46083 0.8437 0.05039 0.0
O157 O 0.47317 0.84768 0.02645 0.0
O158 O 0.41171 0.85301 0.0221 0.0
O159 O 0.42918 0.83423 0.03614 0.0
C160 C 0.41495 0.83715 0.02732 0.0
C161 C 0.47026 0.81923 0.06667 0.0
C162 C 0.46845 0.85719 0.01351 0.0
C163 C 0.44407 0.87726 0.06516 0.0
O164 O 0.45577 0.86536 0.06603 0.0
O165 O 0.43302 0.87729 0.05264 0.0
O166 O 0.48007 0.83279 0.06429 0.0
O167 O 0.45496 0.81919 0.05936 0.0
O168 O 0.88307 0.29422 0.73842 0.0
Cd169 Cd 0.88738 0.31233 0.71884 0.0
Cd170 Cd 0.90046 0.2854 0.7001 0.0
O171 O 0.89656 0.27297 0.72403 0.0
O172 O 0.89463 0.33518 0.72903 0.0
O173 O 0.91246 0.31782 0.71372 0.0
C174 C 0.91017 0.33192 0.72294 0.0
C175 C 0.9241 0.27517 0.68312 0.0
C176 C 0.88873 0.27852 0.73774 0.0
C177 C 0.86731 0.30417 0.68705 0.0
O178 O 0.87868 0.29205 0.68524 0.0
O179 O 0.86827 0.31478 0.6999 0.0
O180 O 0.91017 0.26593 0.68563 0.0
O181 O 0.92493 0.29035 0.69063 0.0
O182 O 0.95416 0.63395 0.98819 0.0
Cd183 Cd 0.93486 0.63962 0.97012 0.0
Cd184 Cd 0.96091 0.65223 0.94987 0.0
O185 O 0.97433 0.64846 0.97325 0.0
O186 O 0.9132 0.64828 0.98182 0.0
O187 O 0.93058 0.665 0.96532 0.0
C188 C 0.91695 0.66358 0.97539 0.0
C189 C 0.97176 0.67521 0.93231 0.0
C190 C 0.9697 0.63992 0.98686 0.0
C191 C 0.94078 0.61933 0.93806 0.0
O192 O 0.95329 0.63021 0.93584 0.0
O193 O 0.93047 0.62093 0.9511 0.0
O194 O 0.98037 0.66087 0.93472 0.0
O195 O 0.9567 0.67672 0.93998 0.0
O196 O 0.61491 0.70763 0.23154 0.0
Cd197 Cd 0.61106 0.68667 0.2149 0.0
Cd198 Cd 0.59984 0.71038 0.19165 0.0
O199 O 0.60428 0.72693 0.21278 0.0
O200 O 0.60514 0.66585 0.22937 0.0
O201 O 0.58639 0.67858 0.21097 0.0
C202 C 0.58952 0.6667 0.22273 0.0
C203 C 0.57535 0.71789 0.17453 0.0
C204 C 0.61075 0.72334 0.22776 0.0
C205 C 0.63246 0.68913 0.18262 0.0
O206 O 0.62143 0.70088 0.17815 0.0
O207 O 0.63077 0.68111 0.19719 0.0
O208 O 0.58955 0.72708 0.17443 0.0
O209 O 0.57499 0.70401 0.18429 0.0
O210 O 0.54203 0.35863 0.48555 0.0
Cd211 Cd 0.56043 0.35444 0.46624 0.0
Cd212 Cd 0.53391 0.34199 0.44662 0.0
O213 O 0.52131 0.34499 0.47058 0.0
O214 O 0.58303 0.34675 0.47672 0.0
O215 O 0.56591 0.32948 0.46054 0.0
C216 C 0.57984 0.33141 0.4701 0.0
C217 C 0.5233 0.31876 0.42932 0.0
C218 C 0.52646 0.35272 0.48449 0.0
C219 C 0.55256 0.37562 0.43498 0.0
O220 O 0.5404 0.3644 0.43257 0.0
O221 O 0.56313 0.37399 0.4478 0.0
O222 O 0.51423 0.33273 0.43216 0.0
O223 O 0.5387 0.31779 0.43636 0.0
O224 O 0.27027 0.37812 0.20571 0.0
Cd225 Cd 0.28795 0.38823 0.18776 0.0
Cd226 Cd 0.30406 0.40166 0.2157 0.0
O227 O 0.28074 0.39417 0.22742 0.0
O228 O 0.27576 0.39554 0.16582 0.0
O229 O 0.288 0.41419 0.18465 0.0
C230 C 0.27908 0.41157 0.17042 0.0
C231 C 0.3169 0.42765 0.2262 0.0
C232 C 0.26935 0.38347 0.22151 0.0
C233 C 0.32225 0.37256 0.19511 0.0
O234 O 0.32143 0.38189 0.20897 0.0
O235 O 0.31047 0.37392 0.18334 0.0
O236 O 0.31621 0.41359 0.23559 0.0
O237 O 0.31024 0.4271 0.21062 0.0
O238 O 0.76423 0.11749 0.79305 0.0
Cd239 Cd 0.78169 0.11214 0.81299 0.0
Cd240 Cd 0.80298 0.10059 0.78757 0.0
O241 O 0.78066 0.1051 0.77264 0.0
O242 O 0.76856 0.10502 0.83435 0.0
O243 O 0.78546 0.08689 0.81892 0.0
C244 C 0.77469 0.08937 0.83184 0.0
C245 C 0.82029 0.07646 0.77937 0.0
C246 C 0.76647 0.1127 0.77721 0.0
C247 C 0.81414 0.13263 0.80903 0.0
O248 O 0.81713 0.12207 0.79642 0.0
O249 O 0.80042 0.13087 0.81838 0.0
O250 O 0.81962 0.09058 0.77008 0.0
O251 O 0.81084 0.07579 0.79344 0.0
O252 O 0.1343 0.50757 0.04293 0.0
Cd253 Cd 0.1376 0.52523 0.06308 0.0
Cd254 Cd 0.15249 0.54664 0.0388 0.0
O255 O 0.1494 0.52381 0.02425 0.0
O256 O 0.14463 0.51318 0.08513 0.0
O257 O 0.16234 0.53055 0.06969 0.0
C258 C 0.16002 0.52007 0.08289 0.0
C259 C 0.17597 0.56464 0.02999 0.0
C260 C 0.14113 0.50972 0.02785 0.0
C261 C 0.11825 0.55791 0.05707 0.0
O262 O 0.13041 0.56086 0.04598 0.0
O263 O 0.11838 0.54397 0.06625 0.0
O264 O 0.1621 0.56265 0.02055 0.0
O265 O 0.17682 0.55611 0.04463 0.0
O266 O 0.73736 0.88151 0.29876 0.0
Cd267 Cd 0.71789 0.88887 0.31604 0.0
Cd268 Cd 0.70342 0.90441 0.28822 0.0
O269 O 0.72864 0.90051 0.27868 0.0
O270 O 0.72789 0.89576 0.33915 0.0
O271 O 0.71539 0.91448 0.32053 0.0
C272 C 0.72366 0.91174 0.33512 0.0
C273 C 0.68837 0.92911 0.27752 0.0
C274 C 0.73981 0.88941 0.28426 0.0
C275 C 0.68581 0.87189 0.30435 0.0
O276 O 0.68721 0.88271 0.29166 0.0
O277 O 0.69641 0.87267 0.31723 0.0
O278 O 0.69199 0.91584 0.26769 0.0
O279 O 0.69366 0.92867 0.29363 0.0
O280 O 0.3731 0.48811 0.54969 0.0
Cd281 Cd 0.36702 0.46969 0.56851 0.0
Cd282 Cd 0.35151 0.4511 0.54229 0.0
O283 O 0.35763 0.47432 0.52942 0.0
O284 O 0.35932 0.48091 0.59083 0.0
O285 O 0.34151 0.46629 0.57289 0.0
C286 C 0.34361 0.47568 0.58689 0.0
C287 C 0.32615 0.43687 0.53192 0.0
C288 C 0.36693 0.48738 0.53419 0.0
C289 C 0.38347 0.43554 0.56129 0.0
O290 O 0.37172 0.43436 0.54944 0.0
O291 O 0.38407 0.44889 0.57131 0.0
O292 O 0.34037 0.43768 0.5228 0.0
O293 O 0.32617 0.4442 0.54721 0.0
O294 O 0.23332 0.61968 0.70496 0.0
Cd295 Cd 0.21655 0.61481 0.68433 0.0
Cd296 Cd 0.19342 0.60381 0.7086 0.0
O297 O 0.21482 0.60907 0.72454 0.0
O298 O 0.23079 0.60813 0.66358 0.0
O299 O 0.21296 0.5897 0.67756 0.0
C300 C 0.22451 0.59244 0.66537 0.0
C301 C 0.17637 0.58001 0.71827 0.0
C302 C 0.22965 0.61577 0.72077 0.0
C303 C 0.18385 0.63563 0.6863 0.0
O304 O 0.17964 0.62488 0.6984 0.0
O305 O 0.1984 0.63396 0.67826 0.0
O306 O 0.17667 0.59479 0.72647 0.0
O307 O 0.18563 0.57865 0.70412 0.0
O308 O 0.62916 0.99088 0.95486 0.0
Cd309 Cd 0.63432 0.97192 0.93634 0.0
Cd310 Cd 0.64773 0.95272 0.96303 0.0
O311 O 0.64246 0.97614 0.97596 0.0
O312 O 0.64154 0.983 0.91389 0.0
O313 O 0.65954 0.96745 0.93085 0.0
C314 C 0.65716 0.97704 0.917 0.0
C315 C 0.67168 0.93682 0.97428 0.0
C316 C 0.63442 0.98982 0.97066 0.0
C317 C 0.6155 0.93899 0.9431 0.0
O318 O 0.62691 0.93705 0.95518 0.0
O319 O 0.61587 0.95243 0.9332 0.0
O320 O 0.65716 0.93844 0.98277 0.0
O321 O 0.67284 0.94441 0.95915 0.0
O322 O 0.86748 0.01269 0.45734 0.0
Cd323 Cd 0.86446 0.03032 0.43709 0.0
Cd324 Cd 0.85188 0.05252 0.46142 0.0
O325 O 0.85359 0.02973 0.47622 0.0
O326 O 0.85719 0.01781 0.41542 0.0
O327 O 0.8398 0.03594 0.43033 0.0
C328 C 0.84191 0.02499 0.41749 0.0
C329 C 0.82898 0.07159 0.46935 0.0
C330 C 0.86101 0.0152 0.47252 0.0
C331 C 0.88623 0.0616 0.44247 0.0
O332 O 0.87487 0.0652 0.4542 0.0
O333 O 0.88449 0.04797 0.43299 0.0
O334 O 0.84262 0.06937 0.47909 0.0
O335 O 0.82811 0.06279 0.45488 0.0
H336 H 0.11847 0.15789 0.51894 0.0
H337 H 0.13389 0.18236 0.50503 0.0
H338 H 0.09187 0.21746 0.52 0.0
H339 H 0.07666 0.19313 0.53443 0.0
H340 H 0.12207 0.19808 0.47761 0.0
H341 H 0.10631 0.26016 0.51957 0.0
H342 H 0.10336 0.26835 0.55082 0.0
H343 H 0.13674 0.22526 0.56557 0.0
H344 H 0.14009 0.21696 0.53442 0.0
H345 H 0.13323 0.26783 0.42133 0.0
H346 H 0.11887 0.2514 0.44494 0.0
H347 H 0.16283 0.26205 0.47919 0.0
H348 H 0.17681 0.27928 0.45588 0.0
H349 H 0.13361 0.25889 0.49825 0.0
H350 H 0.16243 0.22527 0.45306 0.0
H351 H 0.16856 0.21624 0.42251 0.0
H352 H 0.11482 0.20009 0.41621 0.0
H353 H 0.10832 0.20925 0.44666 0.0
C354 C 0.11273 0.1709 0.51966 0.0
C355 C 0.09628 0.17356 0.52761 0.0
C356 C 0.12154 0.18488 0.51167 0.0
C357 C 0.114 0.20174 0.51136 0.0
C358 C 0.09807 0.20464 0.52024 0.0
C359 C 0.08934 0.19068 0.52843 0.0
C360 C 0.12165 0.21558 0.49991 0.0
C361 C 0.12465 0.21134 0.48221 0.0
C362 C 0.12513 0.23287 0.50587 0.0
C363 C 0.12329 0.23784 0.52465 0.0
C364 C 0.11307 0.25247 0.52947 0.0
C365 C 0.11132 0.25712 0.54718 0.0
C366 C 0.11981 0.24729 0.56018 0.0
C367 C 0.13011 0.23282 0.5555 0.0
C368 C 0.13191 0.22811 0.53782 0.0
C369 C 0.13956 0.26711 0.43407 0.0
C370 C 0.15622 0.27456 0.43674 0.0
C371 C 0.13139 0.25769 0.44753 0.0
C372 C 0.14005 0.25504 0.46363 0.0
C373 C 0.15596 0.26382 0.46684 0.0
C374 C 0.16395 0.27363 0.45349 0.0
C375 C 0.13376 0.24134 0.47602 0.0
C376 C 0.13101 0.2456 0.49378 0.0
C377 C 0.13093 0.22385 0.4703 0.0
C378 C 0.13487 0.21807 0.45208 0.0
C379 C 0.15191 0.21986 0.44513 0.0
C380 C 0.15545 0.21472 0.42783 0.0
C381 C 0.14208 0.20763 0.41742 0.0
C382 C 0.12516 0.2056 0.42429 0.0
C383 C 0.12154 0.21075 0.44157 0.0
H384 H 0.14484 0.20367 0.40403 0.0
H385 H 0.11843 0.25092 0.57387 0.0
H386 H 0.96593 0.92164 0.69792 0.0
H387 H 0.98294 0.90887 0.72208 0.0
H388 H 0.00338 0.86938 0.68688 0.0
H389 H 0.98678 0.88225 0.66261 0.0
H390 H 0.98784 0.87729 0.73903 0.0
H391 H 0.04695 0.86735 0.69185 0.0
H392 H 0.05844 0.8799 0.66422 0.0
H393 H 0.03235 0.92876 0.67522 0.0
H394 H 0.02094 0.91659 0.70303 0.0
H395 H 0.05394 0.82158 0.77404 0.0
H396 H 0.03018 0.83766 0.75974 0.0
H397 H 0.06381 0.88317 0.75496 0.0
H398 H 0.08793 0.86673 0.7684 0.0
H399 H 0.05161 0.87656 0.72523 0.0
H400 H 0.02461 0.88209 0.78118 0.0
H401 H 0.01339 0.8726 0.81008 0.0
H402 H 0.97625 0.83842 0.7848 0.0
H403 H 0.9874 0.84752 0.75574 0.0
C404 C 0.97373 0.90998 0.69542 0.0
C405 C 0.97528 0.90312 0.6783 0.0
C406 C 0.9834 0.90269 0.70926 0.0
C407 C 0.99468 0.88844 0.70616 0.0
C408 C 0.99498 0.8806 0.68945 0.0
C409 C 0.98547 0.88795 0.6756 0.0
C410 C 0.00765 0.88301 0.71964 0.0
C411 C 0.0018 0.87711 0.73611 0.0
C412 C 0.02588 0.88345 0.71601 0.0
C413 C 0.03296 0.89099 0.69944 0.0
C414 C 0.04374 0.88079 0.68841 0.0
C415 C 0.05023 0.88784 0.67271 0.0
C416 C 0.04608 0.9051 0.66794 0.0
C417 C 0.0355 0.91537 0.6789 0.0
C418 C 0.02901 0.9084 0.69462 0.0
C419 C 0.05612 0.83517 0.77034 0.0
C420 C 0.07281 0.84287 0.77215 0.0
C421 C 0.04247 0.84441 0.76224 0.0
C422 C 0.04514 0.86169 0.75625 0.0
C423 C 0.06145 0.86982 0.75933 0.0
C424 C 0.07521 0.86045 0.76705 0.0
C425 C 0.03192 0.8703 0.7447 0.0
C426 C 0.03771 0.87683 0.72843 0.0
C427 C 0.01374 0.87089 0.7488 0.0
C428 C 0.00694 0.86541 0.76626 0.0
C429 C 0.01413 0.87246 0.78178 0.0
C430 C 0.00777 0.86716 0.79819 0.0
C431 C 0.99414 0.85489 0.79928 0.0
C432 C 0.98681 0.84792 0.78394 0.0
C433 C 0.99313 0.85317 0.76749 0.0
H434 H 0.98924 0.85081 0.812 0.0
H435 H 0.0511 0.91052 0.65577 0.0
H436 H 0.32299 0.71744 0.94678 0.0
H437 H 0.33555 0.73481 0.97079 0.0
H438 H 0.37649 0.7532 0.93608 0.0
H439 H 0.36375 0.73631 0.91194 0.0
H440 H 0.36616 0.73892 0.9885 0.0
H441 H 0.38117 0.79646 0.94065 0.0
H442 H 0.37036 0.80804 0.91233 0.0
H443 H 0.31981 0.78471 0.92175 0.0
H444 H 0.33023 0.77322 0.95023 0.0
H445 H 0.42378 0.80256 0.02476 0.0
H446 H 0.40719 0.7795 0.00993 0.0
H447 H 0.36373 0.81535 0.00273 0.0
H448 H 0.38073 0.83874 0.01676 0.0
H449 H 0.37094 0.80223 0.97348 0.0
H450 H 0.36161 0.7768 0.02963 0.0
H451 H 0.36923 0.76574 0.05914 0.0
H452 H 0.4024 0.72627 0.03611 0.0
H453 H 0.39517 0.73725 0.00646 0.0
C454 C 0.33488 0.7249 0.94437 0.0
C455 C 0.34224 0.72578 0.92742 0.0
C456 C 0.34205 0.73479 0.95811 0.0
C457 C 0.35669 0.74559 0.95509 0.0
C458 C 0.36494 0.74523 0.93857 0.0
C459 C 0.35768 0.73555 0.9248 0.0
C460 C 0.36231 0.75857 0.96848 0.0
C461 C 0.36722 0.75278 0.9853 0.0
C462 C 0.36303 0.77672 0.96448 0.0
C463 C 0.35654 0.78385 0.9475 0.0
C464 C 0.36772 0.79388 0.93671 0.0
C465 C 0.36167 0.80042 0.92063 0.0
C466 C 0.34443 0.79707 0.91522 0.0
C467 C 0.33318 0.78724 0.92592 0.0
C468 C 0.33916 0.78071 0.94203 0.0
C469 C 0.41053 0.8054 0.02038 0.0
C470 C 0.40359 0.82247 0.02174 0.0
C471 C 0.40099 0.79216 0.01198 0.0
C472 C 0.38415 0.79562 0.00521 0.0
C473 C 0.37674 0.81237 0.00772 0.0
C474 C 0.38643 0.82572 0.01577 0.0
C475 C 0.37533 0.78266 0.99355 0.0
C476 C 0.36979 0.78844 0.97692 0.0
C477 C 0.37357 0.76464 0.998 0.0
C478 C 0.37793 0.75794 0.01581 0.0
C479 C 0.37063 0.76585 0.03086 0.0
C480 C 0.37486 0.75957 0.04761 0.0
C481 C 0.38632 0.74533 0.0495 0.0
C482 C 0.39353 0.73731 0.03463 0.0
C483 C 0.38934 0.74353 0.01784 0.0
H484 H 0.38959 0.7405 0.06248 0.0
H485 H 0.33978 0.80212 0.90275 0.0
H486 H 0.50422 0.11129 0.16471 0.0
H487 H 0.49098 0.12553 0.19014 0.0
H488 H 0.51944 0.09073 0.22476 0.0
H489 H 0.5327 0.07621 0.19922 0.0
H490 H 0.48534 0.09116 0.23277 0.0
H491 H 0.52912 0.13424 0.22499 0.0
H492 H 0.54832 0.15498 0.20912 0.0
H493 H 0.50322 0.18486 0.19296 0.0
H494 H 0.48371 0.16416 0.2085 0.0
H495 H 0.44211 0.17268 0.28222 0.0
H496 H 0.468 0.15624 0.2726 0.0
H497 H 0.4348 0.12203 0.24182 0.0
H498 H 0.40891 0.13815 0.25162 0.0
H499 H 0.47897 0.15562 0.24033 0.0
H500 H 0.45308 0.08329 0.23439 0.0
H501 H 0.43528 0.06255 0.25181 0.0
H502 H 0.44762 0.09104 0.29896 0.0
H503 H 0.46572 0.11181 0.28188 0.0
C504 C 0.50793 0.10685 0.17772 0.0
C505 C 0.51944 0.09257 0.17995 0.0
C506 C 0.50042 0.11508 0.19228 0.0
C507 C 0.50431 0.10928 0.20937 0.0
C508 C 0.5163 0.09544 0.21169 0.0
C509 C 0.5239 0.08721 0.19709 0.0
C510 C 0.49445 0.11667 0.22447 0.0
C511 C 0.4841 0.10525 0.23463 0.0
C512 C 0.49327 0.13501 0.22727 0.0
C513 C 0.50493 0.14758 0.2179 0.0
C514 C 0.52328 0.14517 0.21797 0.0
C515 C 0.53422 0.15693 0.20904 0.0
C516 C 0.527 0.17122 0.20003 0.0
C517 C 0.50881 0.17379 0.19995 0.0
C518 C 0.49779 0.16206 0.20886 0.0
C519 C 0.44028 0.16136 0.27378 0.0
C520 C 0.42347 0.15681 0.26753 0.0
C521 C 0.45511 0.152 0.26827 0.0
C522 C 0.45337 0.13789 0.25651 0.0
C523 C 0.43648 0.13268 0.25114 0.0
C524 C 0.42166 0.14199 0.25667 0.0
C525 C 0.46908 0.13015 0.24789 0.0
C526 C 0.48052 0.14152 0.23889 0.0
C527 C 0.47146 0.11176 0.24642 0.0
C528 C 0.46072 0.09917 0.25681 0.0
C529 C 0.45211 0.08507 0.24849 0.0
C530 C 0.44193 0.07332 0.2583 0.0
C531 C 0.4403 0.07549 0.27647 0.0
C532 C 0.44886 0.0894 0.28487 0.0
C533 C 0.45906 0.10118 0.27513 0.0
H534 H 0.4324 0.06638 0.28405 0.0
H535 H 0.5355 0.18031 0.19312 0.0
H536 H 0.63588 0.24022 0.58269 0.0
H537 H 0.62122 0.25202 0.55679 0.0
H538 H 0.65667 0.22306 0.52325 0.0
H539 H 0.67167 0.21138 0.54923 0.0
H540 H 0.65569 0.25605 0.51357 0.0
H541 H 0.61265 0.21285 0.52394 0.0
H542 H 0.59195 0.19451 0.54087 0.0
H543 H 0.5621 0.24039 0.55469 0.0
H544 H 0.58275 0.25906 0.53808 0.0
H545 H 0.57487 0.29688 0.46116 0.0
H546 H 0.59053 0.27136 0.47298 0.0
H547 H 0.62492 0.30594 0.50197 0.0
H548 H 0.60962 0.33138 0.49003 0.0
H549 H 0.59119 0.26212 0.50601 0.0
H550 H 0.66357 0.28817 0.51009 0.0
H551 H 0.68426 0.30488 0.49156 0.0
H552 H 0.6556 0.28978 0.44533 0.0
H553 H 0.63487 0.27275 0.46353 0.0
C554 C 0.64037 0.23608 0.56983 0.0
C555 C 0.65501 0.22495 0.56802 0.0
C556 C 0.63189 0.24275 0.55499 0.0
C557 C 0.63776 0.23833 0.53805 0.0
C558 C 0.65191 0.22663 0.53619 0.0
C559 C 0.66043 0.21994 0.55106 0.0
C560 C 0.63022 0.24746 0.52254 0.0
C561 C 0.64159 0.25721 0.51174 0.0
C562 C 0.61186 0.24852 0.51977 0.0
C563 C 0.59931 0.23737 0.52978 0.0
C564 C 0.60173 0.21905 0.53068 0.0
C565 C 0.59 0.20859 0.54021 0.0
C566 C 0.57573 0.21628 0.54886 0.0
C567 C 0.57315 0.23445 0.54797 0.0
C568 C 0.58485 0.24497 0.53846 0.0
C569 C 0.58604 0.29904 0.46972 0.0
C570 C 0.59094 0.31615 0.47476 0.0
C571 C 0.59495 0.28444 0.47649 0.0
C572 C 0.60896 0.28671 0.4883 0.0
C573 C 0.61437 0.30382 0.49264 0.0
C574 C 0.60552 0.31839 0.48588 0.0
C575 C 0.61664 0.27148 0.49777 0.0
C576 C 0.6053 0.26061 0.50747 0.0
C577 C 0.63504 0.26914 0.49928 0.0
C578 C 0.6476 0.27922 0.48822 0.0
C579 C 0.66174 0.2883 0.49596 0.0
C580 C 0.67346 0.29786 0.48551 0.0
C581 C 0.67123 0.29841 0.46729 0.0
C582 C 0.65728 0.28938 0.45946 0.0
C583 C 0.64553 0.27979 0.46984 0.0
H584 H 0.68032 0.30584 0.45922 0.0
H585 H 0.56666 0.20816 0.55623 0.0
H586 H 0.9452 0.32467 0.71908 0.0
H587 H 0.96955 0.33951 0.73401 0.0
H588 H 0.93364 0.37879 0.7536 0.0
H589 H 0.90923 0.36393 0.73903 0.0
H590 H 0.9853 0.37283 0.73708 0.0
H591 H 0.93944 0.38129 0.79724 0.0
H592 H 0.91273 0.36764 0.80965 0.0
H593 H 0.92556 0.31884 0.78432 0.0
H594 H 0.95247 0.33211 0.77201 0.0
H595 H 0.02164 0.42924 0.80249 0.0
H596 H 0.00645 0.41334 0.77909 0.0
H597 H 0.00375 0.36727 0.81222 0.0
H598 H 0.01798 0.38354 0.83598 0.0
H599 H 0.97356 0.37339 0.80127 0.0
H600 H 0.02884 0.36991 0.77213 0.0
H601 H 0.05687 0.38064 0.75986 0.0
H602 H 0.02876 0.41399 0.724 0.0
H603 H 0.00055 0.40363 0.73621 0.0
C604 C 0.94257 0.33674 0.72617 0.0
C605 C 0.92525 0.34295 0.7282 0.0
C606 C 0.95652 0.34522 0.73463 0.0
C607 C 0.9533 0.36001 0.74516 0.0
C608 C 0.93632 0.36722 0.74573 0.0
C609 C 0.92238 0.3587 0.73741 0.0
C610 C 0.96688 0.36637 0.75756 0.0
C611 C 0.98284 0.373 0.75113 0.0
C612 C 0.96384 0.36596 0.7759 0.0
C613 C 0.94786 0.35776 0.78356 0.0
C614 C 0.93659 0.36763 0.79439 0.0
C615 C 0.92142 0.35996 0.8014 0.0
C616 C 0.91742 0.3424 0.79773 0.0
C617 C 0.92864 0.33245 0.78711 0.0
C618 C 0.94384 0.34004 0.7801 0.0
C619 C 0.01814 0.4156 0.8046 0.0
C620 C 0.02079 0.40764 0.82105 0.0
C621 C 0.00954 0.40646 0.79117 0.0
C622 C 0.00394 0.38905 0.79382 0.0
C623 C 0.00779 0.38073 0.80988 0.0
C624 C 0.01595 0.39 0.82344 0.0
C625 C 0.99213 0.38031 0.78093 0.0
C626 C 0.97631 0.37319 0.78727 0.0
C627 C 0.99563 0.37985 0.76262 0.0
C628 C 0.01257 0.38608 0.75519 0.0
C629 C 0.02863 0.37962 0.76171 0.0
C630 C 0.04455 0.38562 0.75475 0.0
C631 C 0.04459 0.39802 0.74118 0.0
C632 C 0.02871 0.4044 0.73451 0.0
C633 C 0.01275 0.39844 0.74143 0.0
H634 H 0.05694 0.40265 0.73582 0.0
H635 H 0.90566 0.3365 0.80314 0.0
H636 H 0.85868 0.75779 0.08678 0.0
H637 H 0.87475 0.74534 0.0621 0.0
H638 H 0.84223 0.77456 0.02591 0.0
H639 H 0.8257 0.78679 0.05069 0.0
H640 H 0.84285 0.7419 0.01658 0.0
H641 H 0.88712 0.7832 0.02979 0.0
H642 H 0.90743 0.80059 0.0481 0.0
H643 H 0.93399 0.75339 0.06404 0.0
H644 H 0.91369 0.73567 0.04604 0.0
H645 H 0.92397 0.69807 0.96778 0.0
H646 H 0.90923 0.72405 0.97982 0.0
H647 H 0.8726 0.69052 0.00727 0.0
H648 H 0.88708 0.66461 0.9952 0.0
H649 H 0.90738 0.73291 0.01342 0.0
H650 H 0.83394 0.70994 0.01267 0.0
H651 H 0.81381 0.69413 0.99278 0.0
H652 H 0.84592 0.70826 0.94853 0.0
H653 H 0.86611 0.72438 0.9681 0.0
C654 C 0.85515 0.76188 0.0736 0.0
C655 C 0.84083 0.77318 0.0707 0.0
C656 C 0.86445 0.75483 0.05946 0.0
C657 C 0.8598 0.7591 0.0421 0.0
C658 C 0.84606 0.77108 0.03918 0.0
C659 C 0.83666 0.77809 0.05336 0.0
C660 C 0.86801 0.74944 0.02724 0.0
C661 C 0.85698 0.74012 0.01573 0.0
C662 C 0.88646 0.7475 0.02576 0.0
C663 C 0.89882 0.75809 0.03657 0.0
C664 C 0.89722 0.77651 0.03727 0.0
C665 C 0.90875 0.78643 0.04759 0.0
C666 C 0.92199 0.7781 0.05723 0.0
C667 C 0.92374 0.75983 0.05655 0.0
C668 C 0.91225 0.74984 0.04626 0.0
C669 C 0.91255 0.69625 0.9761 0.0
C670 C 0.90672 0.67928 0.9806 0.0
C671 C 0.90419 0.71111 0.983 0.0
C672 C 0.88976 0.70924 0.99435 0.0
C673 C 0.88352 0.69231 0.9983 0.0
C674 C 0.89189 0.67748 0.99146 0.0
C675 C 0.88215 0.72469 0.00351 0.0
C676 C 0.89329 0.73505 0.01396 0.0
C677 C 0.86382 0.72785 0.00378 0.0
C678 C 0.8516 0.71831 0.99189 0.0
C679 C 0.83666 0.70978 0.99868 0.0
C680 C 0.82525 0.70073 0.98746 0.0
C681 C 0.8286 0.70016 0.96941 0.0
C682 C 0.84336 0.70867 0.96253 0.0
C683 C 0.85481 0.71774 0.97368 0.0
H684 H 0.81976 0.69315 0.96075 0.0
H685 H 0.93089 0.78581 0.06522 0.0
H686 H 0.55558 0.66379 0.21077 0.0
H687 H 0.53145 0.64751 0.22462 0.0
H688 H 0.56721 0.62849 0.26439 0.0
H689 H 0.59132 0.64408 0.25035 0.0
H690 H 0.54548 0.60367 0.25666 0.0
H691 H 0.54005 0.66616 0.26977 0.0
H692 H 0.53638 0.69743 0.26192 0.0
H693 H 0.48755 0.68553 0.23619 0.0
H694 H 0.49105 0.65414 0.24374 0.0
H695 H 0.50361 0.60394 0.33867 0.0
H696 H 0.51779 0.61694 0.31302 0.0
H697 H 0.47607 0.5978 0.2798 0.0
H698 H 0.4618 0.58431 0.30548 0.0
H699 H 0.49512 0.63916 0.27825 0.0
H700 H 0.50079 0.57538 0.26965 0.0
H701 H 0.50589 0.54548 0.28117 0.0
H702 H 0.556 0.56159 0.3016 0.0
H703 H 0.55105 0.59167 0.29044 0.0
C704 C 0.55832 0.65588 0.2223 0.0
C705 C 0.57532 0.65533 0.22956 0.0
C706 C 0.5445 0.64666 0.23024 0.0
C707 C 0.54744 0.63701 0.24573 0.0
C708 C 0.56459 0.63582 0.25246 0.0
C709 C 0.57838 0.64481 0.24443 0.0
C710 C 0.53273 0.629 0.25577 0.0
C711 C 0.53437 0.61142 0.26116 0.0
C712 C 0.51806 0.63897 0.26155 0.0
C713 C 0.51592 0.65781 0.25711 0.0
C714 C 0.52859 0.67022 0.26234 0.0
C715 C 0.52654 0.68795 0.25796 0.0
C716 C 0.51177 0.69346 0.24851 0.0
C717 C 0.499 0.68124 0.24347 0.0
C718 C 0.50101 0.66348 0.2478 0.0
C719 C 0.49723 0.6027 0.32599 0.0
C720 C 0.48164 0.59297 0.32408 0.0
C721 C 0.50536 0.61016 0.31137 0.0
C722 C 0.49799 0.60819 0.29462 0.0
C723 C 0.48191 0.5994 0.2927 0.0
C724 C 0.47381 0.59171 0.30735 0.0
C725 C 0.50817 0.6141 0.27921 0.0
C726 C 0.50582 0.63129 0.27305 0.0
C727 C 0.52234 0.6039 0.2729 0.0
C728 C 0.52548 0.58578 0.27934 0.0
C729 C 0.51283 0.57257 0.27673 0.0
C730 C 0.5157 0.55559 0.28317 0.0
C731 C 0.53124 0.55165 0.29215 0.0
C732 C 0.54396 0.56467 0.29466 0.0
C733 C 0.54114 0.58167 0.28826 0.0
H734 H 0.53344 0.5385 0.29713 0.0
H735 H 0.5102 0.70719 0.24512 0.0
H736 H 0.25874 0.41024 0.1409 0.0
H737 H 0.24385 0.43462 0.12638 0.0
H738 H 0.26792 0.47113 0.16252 0.0
H739 H 0.28269 0.44669 0.17737 0.0
H740 H 0.23394 0.47696 0.16064 0.0
H741 H 0.27966 0.47114 0.11898 0.0
H742 H 0.30007 0.45602 0.09883 0.0
H743 H 0.25655 0.43829 0.06755 0.0
H744 H 0.23584 0.45309 0.08764 0.0
H745 H 0.1945 0.52997 0.0799 0.0
H746 H 0.21961 0.5181 0.09615 0.0
H747 H 0.18443 0.48618 0.12719 0.0
H748 H 0.15934 0.49814 0.11126 0.0
H749 H 0.2301 0.48516 0.09604 0.0
H750 H 0.20092 0.47773 0.16678 0.0
H751 H 0.18199 0.49456 0.18702 0.0
H752 H 0.19564 0.54247 0.16045 0.0
H753 H 0.21485 0.52599 0.1402 0.0
C754 C 0.2611 0.42347 0.14561 0.0
C755 C 0.27184 0.42652 0.16033 0.0
C756 C 0.25265 0.43743 0.13723 0.0
C757 C 0.25488 0.45473 0.14327 0.0
C758 C 0.26603 0.45789 0.15763 0.0
C759 C 0.27449 0.44391 0.16606 0.0
C760 C 0.24435 0.46917 0.13546 0.0
C761 C 0.23323 0.47891 0.14652 0.0
C762 C 0.24379 0.47208 0.11709 0.0
C763 C 0.25618 0.46318 0.10489 0.0
C764 C 0.27442 0.46393 0.10787 0.0
C765 C 0.28605 0.45543 0.09644 0.0
C766 C 0.27961 0.44619 0.08193 0.0
C767 C 0.26152 0.44546 0.0788 0.0
C768 C 0.24983 0.45393 0.09018 0.0
C769 C 0.19209 0.5207 0.09044 0.0
C770 C 0.17493 0.51493 0.09424 0.0
C771 C 0.20646 0.5139 0.09967 0.0
C772 C 0.20391 0.50132 0.11294 0.0
C773 C 0.18673 0.49609 0.11721 0.0
C774 C 0.17238 0.50288 0.10802 0.0
C775 C 0.21911 0.49229 0.12117 0.0
C776 C 0.23108 0.48353 0.11017 0.0
C777 C 0.22068 0.49054 0.13962 0.0
C778 C 0.20927 0.50058 0.1519 0.0
C779 C 0.19998 0.49187 0.16531 0.0
C780 C 0.18917 0.50135 0.17678 0.0
C781 C 0.18759 0.51957 0.175 0.0
C782 C 0.19684 0.52835 0.16178 0.0
C783 C 0.20767 0.51894 0.15029 0.0
H784 H 0.17921 0.52688 0.18388 0.0
H785 H 0.28863 0.43961 0.07311 0.0
H786 H 0.69189 0.96815 0.92078 0.0
H787 H 0.71698 0.98116 0.90534 0.0
H788 H 0.68143 0.01165 0.8733 0.0
H789 H 0.65641 0.99847 0.8883 0.0
H790 H 0.70909 0.00201 0.8544 0.0
H791 H 0.6987 0.02801 0.91202 0.0
H792 H 0.69593 0.02705 0.94433 0.0
H793 H 0.74863 0.00719 0.94853 0.0
H794 H 0.75162 0.00784 0.9162 0.0
H795 H 0.75306 0.09075 0.86036 0.0
H796 H 0.73855 0.06619 0.87493 0.0
H797 H 0.7671 0.02965 0.84224 0.0
H798 H 0.78156 0.05428 0.82734 0.0
H799 H 0.74756 0.03751 0.89336 0.0
H800 H 0.73778 0.99699 0.83065 0.0
H801 H 0.73774 0.00084 0.7984 0.0
H802 H 0.72114 0.05447 0.80455 0.0
H803 H 0.72088 0.05085 0.83679 0.0
C804 C 0.68942 0.97734 0.91018 0.0
C805 C 0.67217 0.98247 0.90591 0.0
C806 C 0.70377 0.98479 0.90141 0.0
C807 C 0.70108 0.99761 0.88839 0.0
C808 C 0.68384 0.00181 0.88332 0.0
C809 C 0.66952 0.99431 0.89198 0.0
C810 C 0.7159 0.00806 0.88123 0.0
C811 C 0.71771 0.00953 0.86292 0.0
C812 C 0.72705 0.01803 0.89232 0.0
C813 C 0.7253 0.01777 0.91173 0.0
C814 C 0.70965 0.02333 0.91984 0.0
C815 C 0.70805 0.02286 0.93815 0.0
C816 C 0.72208 0.01701 0.94848 0.0
C817 C 0.73776 0.01168 0.94051 0.0
C818 C 0.73942 0.0121 0.9222 0.0
C819 C 0.7565 0.0775 0.85644 0.0
C820 C 0.76828 0.07446 0.84254 0.0
C821 C 0.74825 0.06345 0.86486 0.0
C822 C 0.75157 0.04611 0.85952 0.0
C823 C 0.7642 0.04295 0.84642 0.0
C824 C 0.77248 0.05704 0.83796 0.0
C825 C 0.74048 0.03172 0.86656 0.0
C826 C 0.73937 0.02952 0.88484 0.0
C827 C 0.72966 0.02142 0.85545 0.0
C828 C 0.72955 0.0237 0.8361 0.0
C829 C 0.7341 0.00958 0.82509 0.0
C830 C 0.73412 0.01173 0.80683 0.0
C831 C 0.72951 0.02791 0.79944 0.0
C832 C 0.72478 0.04196 0.81029 0.0
C833 C 0.72471 0.03987 0.82856 0.0
H834 H 0.72956 0.02955 0.7853 0.0
H835 H 0.72081 0.01665 0.96265 0.0
H836 H 0.71681 0.94676 0.33037 0.0
H837 H 0.73119 0.97144 0.34517 0.0
H838 H 0.75908 0.9351 0.37866 0.0
H839 H 0.74448 0.91047 0.36429 0.0
H840 H 0.75133 0.96412 0.39643 0.0
H841 H 0.77677 0.94967 0.33955 0.0
H842 H 0.77573 0.94549 0.30739 0.0
H843 H 0.75937 0.99913 0.30067 0.0
H844 H 0.76011 0.00354 0.33284 0.0
H845 H 0.84244 0.00267 0.38948 0.0
H846 H 0.81723 0.98914 0.37507 0.0
H847 H 0.78206 0.02089 0.40627 0.0
H848 H 0.80731 0.03436 0.42102 0.0
H849 H 0.7892 0.99875 0.35608 0.0
H850 H 0.7479 0.99401 0.41892 0.0
H851 H 0.75165 0.99519 0.45116 0.0
H852 H 0.80428 0.97535 0.44602 0.0
H853 H 0.80074 0.97386 0.41381 0.0
C854 C 0.7257 0.94405 0.34116 0.0
C855 C 0.72971 0.92665 0.346 0.0
C856 C 0.73393 0.95817 0.34957 0.0
C857 C 0.74646 0.95508 0.36278 0.0
C858 C 0.74948 0.93779 0.36848 0.0
C859 C 0.74117 0.9237 0.36018 0.0
C860 C 0.75787 0.96943 0.36939 0.0
C861 C 0.75939 0.97191 0.3876 0.0
C862 C 0.76856 0.97946 0.35788 0.0
C863 C 0.76829 0.97687 0.33857 0.0
C864 C 0.77285 0.96053 0.33121 0.0
C865 C 0.77233 0.95813 0.31299 0.0
C866 C 0.76743 0.97202 0.302 0.0
C867 C 0.76312 0.98837 0.3092 0.0
C868 C 0.76359 0.99083 0.32742 0.0
C869 C 0.82936 0.00704 0.39307 0.0
C870 C 0.82686 0.0194 0.40657 0.0
C871 C 0.81495 0.99934 0.38475 0.0
C872 C 0.79778 0.00382 0.38979 0.0
C873 C 0.79522 0.01709 0.40236 0.0
C874 C 0.80966 0.02481 0.41073 0.0
C875 C 0.78286 0.99321 0.38312 0.0
C876 C 0.78071 0.99141 0.36489 0.0
C877 C 0.77192 0.98346 0.39462 0.0
C878 C 0.77412 0.98405 0.41398 0.0
C879 C 0.76024 0.98987 0.4247 0.0
C880 C 0.76233 0.99059 0.44295 0.0
C881 C 0.77821 0.98541 0.45063 0.0
C882 C 0.79201 0.97942 0.44006 0.0
C883 C 0.78997 0.97865 0.42181 0.0
H884 H 0.77981 0.986 0.46476 0.0
H885 H 0.76703 0.97013 0.2879 0.0
H886 H 0.21527 0.55758 0.6666 0.0
H887 H 0.23036 0.53304 0.65217 0.0
H888 H 0.26533 0.56964 0.62652 0.0
H889 H 0.25011 0.59411 0.64041 0.0
H890 H 0.25815 0.54369 0.60503 0.0
H891 H 0.27591 0.5493 0.66629 0.0
H892 H 0.27051 0.54983 0.69828 0.0
H893 H 0.24941 0.49751 0.69587 0.0
H894 H 0.25451 0.49677 0.66382 0.0
H895 H 0.34363 0.49523 0.61701 0.0
H896 H 0.31848 0.50995 0.63049 0.0
H897 H 0.2837 0.48501 0.59328 0.0
H898 H 0.30882 0.47029 0.5796 0.0
H899 H 0.28685 0.50131 0.64555 0.0
H900 H 0.25547 0.51732 0.57879 0.0
H901 H 0.26377 0.5193 0.54745 0.0
H902 H 0.31675 0.53235 0.56202 0.0
H903 H 0.30868 0.53069 0.5934 0.0
C904 C 0.22596 0.56039 0.6576 0.0
C905 C 0.23163 0.57777 0.65479 0.0
C906 C 0.23461 0.54635 0.64944 0.0
C907 C 0.24918 0.54949 0.63851 0.0
C908 C 0.25414 0.56689 0.63491 0.0
C909 C 0.24545 0.58088 0.64293 0.0
C910 C 0.26026 0.53487 0.63188 0.0
C911 C 0.26419 0.53424 0.61386 0.0
C912 C 0.26834 0.52265 0.64341 0.0
C913 C 0.2654 0.52306 0.66266 0.0
C914 C 0.27002 0.53796 0.67258 0.0
C915 C 0.26703 0.53829 0.69072 0.0
C916 C 0.25957 0.52374 0.6991 0.0
C917 C 0.25515 0.50879 0.68936 0.0
C918 C 0.25809 0.5084 0.67122 0.0
C919 C 0.3306 0.49257 0.61192 0.0
C920 C 0.32824 0.48181 0.59709 0.0
C921 C 0.31622 0.50093 0.61969 0.0
C922 C 0.29928 0.49875 0.61272 0.0
C923 C 0.29671 0.48699 0.59873 0.0
C924 C 0.31109 0.47859 0.59096 0.0
C925 C 0.28486 0.51033 0.61879 0.0
C926 C 0.28036 0.5104 0.63667 0.0
C927 C 0.27659 0.52234 0.60722 0.0
C928 C 0.28152 0.52364 0.5884 0.0
C929 C 0.26887 0.52065 0.57528 0.0
C930 C 0.27354 0.52172 0.55752 0.0
C931 C 0.29079 0.52587 0.55275 0.0
C932 C 0.3034 0.52906 0.56573 0.0
C933 C 0.2988 0.52804 0.58349 0.0
H934 H 0.29438 0.52667 0.539 0.0
H935 H 0.25725 0.52402 0.71314 0.0
H936 H 0.32146 0.42527 0.49855 0.0
H937 H 0.29638 0.40961 0.48646 0.0
H938 H 0.27027 0.41182 0.53676 0.0
H939 H 0.29561 0.42775 0.54914 0.0
H940 H 0.26987 0.37789 0.52038 0.0
H941 H 0.25359 0.43638 0.50644 0.0
H942 H 0.25802 0.46683 0.49625 0.0
H943 H 0.27169 0.44797 0.44482 0.0
H944 H 0.26761 0.41739 0.45476 0.0
H945 H 0.20599 0.33383 0.46404 0.0
H946 H 0.21727 0.3547 0.48606 0.0
H947 H 0.25746 0.37127 0.4496 0.0
H948 H 0.24637 0.3508 0.42778 0.0
H949 H 0.24171 0.39914 0.46549 0.0
H950 H 0.26596 0.34165 0.48228 0.0
H951 H 0.26316 0.3109 0.49226 0.0
H952 H 0.23498 0.32804 0.5381 0.0
H953 H 0.23746 0.35889 0.52826 0.0
C954 C 0.3104 0.42253 0.5071 0.0
C955 C 0.31052 0.42777 0.52481 0.0
C956 C 0.29602 0.41364 0.50012 0.0
C957 C 0.2814 0.40974 0.51066 0.0
C958 C 0.28142 0.41481 0.52841 0.0
C959 C 0.29585 0.42392 0.53542 0.0
C960 C 0.26656 0.39988 0.50282 0.0
C961 C 0.26326 0.38269 0.50867 0.0
C962 C 0.25802 0.40615 0.48754 0.0
C963 C 0.2603 0.42456 0.48138 0.0
C964 C 0.25762 0.43871 0.49298 0.0
C965 C 0.26006 0.45601 0.48725 0.0
C966 C 0.26513 0.45934 0.4699 0.0
C967 C 0.26774 0.44538 0.45825 0.0
C968 C 0.26532 0.42805 0.46392 0.0
C969 C 0.21719 0.34199 0.46076 0.0
C970 C 0.22531 0.34064 0.44419 0.0
C971 C 0.22361 0.35387 0.47334 0.0
C972 C 0.23818 0.36455 0.46944 0.0
C973 C 0.24612 0.36327 0.45285 0.0
C974 C 0.2398 0.35146 0.4404 0.0
C975 C 0.24584 0.37686 0.48247 0.0
C976 C 0.24775 0.39455 0.47757 0.0
C977 C 0.25313 0.37102 0.49856 0.0
C978 C 0.25168 0.35251 0.50443 0.0
C979 C 0.25904 0.33883 0.49441 0.0
C980 C 0.25754 0.3214 0.50005 0.0
C981 C 0.24884 0.31751 0.51577 0.0
C982 C 0.24167 0.33106 0.5259 0.0
C983 C 0.24312 0.34852 0.52031 0.0
H984 H 0.24769 0.30401 0.52012 0.0
H985 H 0.26703 0.47273 0.46549 0.0
H986 H 0.91537 0.00044 0.68303 0.0
H987 H 0.89942 0.01324 0.70762 0.0
H988 H 0.89704 0.96255 0.73294 0.0
H989 H 0.91345 0.9495 0.7082 0.0
H990 H 0.86352 0.98288 0.7304 0.0
H991 H 0.92146 0.98836 0.75257 0.0
H992 H 0.95326 0.9945 0.75135 0.0
H993 H 0.94266 0.04835 0.73809 0.0
H994 H 0.91079 0.04249 0.73895 0.0
H995 H 0.8214 0.04268 0.79242 0.0
H996 H 0.84058 0.01857 0.78247 0.0
H997 H 0.86429 0.05327 0.74436 0.0
H998 H 0.84536 0.07714 0.75405 0.0
H999 H 0.88886 0.03363 0.76262 0.0
H1000 H 0.83257 0.02542 0.73222 0.0
H1001 H 0.80064 0.01977 0.73153 0.0
H1002 H 0.80832 0.97133 0.75951 0.0
H1003 H 0.84031 0.97682 0.76055 0.0
C1004 C 0.91154 0.99196 0.69382 0.0
C1005 C 0.91565 0.97395 0.69369 0.0
C1006 C 0.90248 0.99932 0.7079 0.0
C1007 C 0.89719 0.98886 0.72211 0.0
C1008 C 0.90112 0.97082 0.72208 0.0
C1009 C 0.91049 0.96343 0.70801 0.0
C1010 C 0.88717 0.99719 0.73654 0.0
C1011 C 0.86913 0.9936 0.73795 0.0
C1012 C 0.89452 0.01125 0.74621 0.0
C1013 C 0.9137 0.01495 0.74581 0.0
C1014 C 0.9259 0.00149 0.74929 0.0
C1015 C 0.94395 0.00493 0.74868 0.0
C1016 C 0.94998 0.0218 0.74464 0.0
C1017 C 0.93797 0.03529 0.74124 0.0
C1018 C 0.91991 0.03192 0.74183 0.0
C1019 C 0.83077 0.04513 0.78197 0.0
C1020 C 0.83183 0.06178 0.77396 0.0
C1021 C 0.84168 0.03137 0.77632 0.0
C1022 C 0.85386 0.03418 0.76271 0.0
C1023 C 0.85507 0.05086 0.75496 0.0
C1024 C 0.84414 0.06447 0.76045 0.0
C1025 C 0.8651 0.01986 0.75578 0.0
C1026 C 0.88337 0.02241 0.75573 0.0
C1027 C 0.85794 0.00492 0.74733 0.0
C1028 C 0.83876 0.00165 0.74669 0.0
C1029 C 0.82742 0.01365 0.73837 0.0
C1030 C 0.80932 0.01046 0.73788 0.0
C1031 C 0.80244 0.99523 0.74553 0.0
C1032 C 0.81366 0.98314 0.75364 0.0
C1033 C 0.83177 0.98628 0.75418 0.0
H1034 H 0.78843 0.99279 0.74514 0.0
H1035 H 0.96396 0.02444 0.74417 0.0
H1036 H 0.2482 0.6588 0.92957 0.0
H1037 H 0.2357 0.64298 0.95434 0.0
H1038 H 0.28399 0.64944 0.98335 0.0
H1039 H 0.29678 0.66562 0.95834 0.0
H1040 H 0.26865 0.6139 0.98363 0.0
H1041 H 0.25284 0.67253 0.99779 0.0
H1042 H 0.2424 0.70267 0.99198 0.0
H1043 H 0.19221 0.6825 0.9758 0.0
H1044 H 0.20243 0.65222 0.98124 0.0
H1045 H 0.20832 0.57085 0.04522 0.0
H1046 H 0.23107 0.59146 0.03488 0.0
H1047 H 0.19784 0.6061 0.9913 0.0
H1048 H 0.17535 0.58584 0.00138 0.0
H1049 H 0.21191 0.63479 0.00816 0.0
H1050 H 0.23106 0.57713 0.98604 0.0
H1051 H 0.24131 0.54661 0.99011 0.0
H1052 H 0.28497 0.56507 0.0208 0.0
H1053 H 0.27483 0.5957 0.01706 0.0
C1054 C 0.25625 0.65692 0.94117 0.0
C1055 C 0.27348 0.6635 0.942 0.0
C1056 C 0.24904 0.64791 0.95536 0.0
C1057 C 0.25886 0.64522 0.97072 0.0
C1058 C 0.2762 0.65149 0.97161 0.0
C1059 C 0.28344 0.66073 0.95736 0.0
C1060 C 0.25059 0.63565 0.98549 0.0
C1061 C 0.25653 0.61864 0.98949 0.0
C1062 C 0.23477 0.64185 0.99304 0.0
C1063 C 0.22843 0.66008 0.98992 0.0
C1064 C 0.23961 0.67451 0.99291 0.0
C1065 C 0.23372 0.69163 0.98969 0.0
C1066 C 0.21665 0.6945 0.98353 0.0
C1067 C 0.20542 0.68026 0.9806 0.0
C1068 C 0.21124 0.66311 0.98379 0.0
C1069 C 0.20593 0.57849 0.03345 0.0
C1070 C 0.19005 0.57671 0.02411 0.0
C1071 C 0.21891 0.59023 0.02757 0.0
C1072 C 0.21608 0.60034 0.01237 0.0
C1073 C 0.20023 0.59854 0.00314 0.0
C1074 C 0.18741 0.58685 0.00889 0.0
C1075 C 0.22944 0.61273 0.00547 0.0
C1076 C 0.22441 0.6303 0.00296 0.0
C1077 C 0.24602 0.60701 0.99928 0.0
C1078 C 0.25207 0.58864 0.00149 0.0
C1079 C 0.24276 0.57465 0.99378 0.0
C1080 C 0.24856 0.55735 0.996 0.0
C1081 C 0.26374 0.5539 0.00577 0.0
C1082 C 0.27318 0.56776 0.01328 0.0
C1083 C 0.26742 0.58509 0.01112 0.0
H1084 H 0.26822 0.5405 0.00746 0.0
H1085 H 0.21213 0.70776 0.98103 0.0
H1086 H 0.57849 0.04342 0.2083 0.0
H1087 H 0.59687 0.03041 0.23157 0.0
H1088 H 0.611 0.98805 0.19659 0.0
H1089 H 0.59286 0.00072 0.1736 0.0
H1090 H 0.60038 0.97615 0.22863 0.0
H1091 H 0.63893 0.02187 0.20473 0.0
H1092 H 0.64677 0.05266 0.19818 0.0
H1093 H 0.64282 0.0656 0.25301 0.0
H1094 H 0.63474 0.0349 0.25984 0.0
H1095 H 0.67795 0.93384 0.24375 0.0
H1096 H 0.65721 0.95541 0.23248 0.0
H1097 H 0.65327 0.97904 0.28386 0.0
H1098 H 0.67424 0.95725 0.29545 0.0
H1099 H 0.65466 0.00361 0.25225 0.0
H1100 H 0.62179 0.95569 0.2762 0.0
H1101 H 0.61531 0.92443 0.28188 0.0
H1102 H 0.60875 0.91546 0.22652 0.0
H1103 H 0.61547 0.9466 0.22049 0.0
C1104 C 0.58559 0.03137 0.20562 0.0
C1105 C 0.58417 0.02307 0.18913 0.0
C1106 C 0.59607 0.02399 0.21889 0.0
C1107 C 0.60523 0.00824 0.21581 0.0
C1108 C 0.60393 0.00013 0.19931 0.0
C1109 C 0.59357 0.00745 0.18613 0.0
C1110 C 0.61609 -0.00031 0.22953 0.0
C1111 C 0.61217 0.98221 0.23391 0.0
C1112 C 0.63115 0.00779 0.23689 0.0
C1113 C 0.636 0.02618 0.23276 0.0
C1114 C 0.63958 0.03133 0.21536 0.0
C1115 C 0.6441 0.04875 0.21161 0.0
C1116 C 0.64523 0.0611 0.22516 0.0
C1117 C 0.64189 0.05603 0.24252 0.0
C1118 C 0.63735 0.03863 0.24633 0.0
C1119 C 0.67289 0.94372 0.25268 0.0
C1120 C 0.67758 0.9437 0.27055 0.0
C1121 C 0.66105 0.95605 0.24619 0.0
C1122 C 0.65359 0.96864 0.2574 0.0
C1123 C 0.65891 0.96938 0.27505 0.0
C1124 C 0.67083 0.95692 0.28163 0.0
C1125 C 0.63929 0.97989 0.25055 0.0
C1126 C 0.64254 0.99778 0.24749 0.0
C1127 C 0.62356 0.9722 0.24433 0.0
C1128 C 0.6192 0.95349 0.2479 0.0
C1129 C 0.61907 0.94704 0.26523 0.0
C1130 C 0.61534 0.92933 0.26851 0.0
C1131 C 0.61164 0.91796 0.25457 0.0
C1132 C 0.61161 0.92428 0.23731 0.0
C1133 C 0.61535 0.94197 0.23396 0.0
H1134 H 0.60877 0.90426 0.25714 0.0
H1135 H 0.64873 0.07457 0.22223 0.0
H1136 H 0.75476 0.16768 0.5679 0.0
H1137 H 0.76811 0.15177 0.54364 0.0
H1138 H 0.71946 0.15442 0.51463 0.0
H1139 H 0.70579 0.17061 0.53914 0.0
H1140 H 0.73606 0.1203 0.51493 0.0
H1141 H 0.75034 0.17905 0.49987 0.0
H1142 H 0.75994 0.20956 0.50513 0.0
H1143 H 0.81065 0.19106 0.5217 0.0
H1144 H 0.80128 0.16042 0.5168 0.0
H1145 H 0.79662 0.07743 0.45407 0.0
H1146 H 0.77378 0.09808 0.4641 0.0
H1147 H 0.80734 0.11423 0.50689 0.0
H1148 H 0.82995 0.09394 0.49708 0.0
H1149 H 0.79229 0.14228 0.49017 0.0
H1150 H 0.77464 0.08443 0.51297 0.0
H1151 H 0.7652 0.05362 0.50926 0.0
H1152 H 0.72099 0.0706 0.47848 0.0
H1153 H 0.73032 0.10152 0.48186 0.0
C1154 C 0.74682 0.16494 0.5564 0.0
C1155 C 0.72921 0.17045 0.55543 0.0
C1156 C 0.75452 0.1559 0.54249 0.0
C1157 C 0.74484 0.15213 0.52727 0.0
C1158 C 0.72715 0.15733 0.52625 0.0
C1159 C 0.71941 0.16657 0.54022 0.0
C1160 C 0.75357 0.14247 0.5128 0.0
C1161 C 0.74808 0.12526 0.50904 0.0
C1162 C 0.76925 0.14896 0.5052 0.0
C1163 C 0.77508 0.1674 0.50797 0.0
C1164 C 0.76351 0.18147 0.50471 0.0
C1165 C 0.76892 0.1988 0.50763 0.0
C1166 C 0.78589 0.20224 0.51374 0.0
C1167 C 0.79751 0.18837 0.51693 0.0
C1168 C 0.79217 0.17102 0.51405 0.0
C1169 C 0.79909 0.08546 0.46557 0.0
C1170 C 0.81506 0.08403 0.47481 0.0
C1171 C 0.78606 0.09721 0.47127 0.0
C1172 C 0.7889 0.10769 0.48622 0.0
C1173 C 0.80491 0.10636 0.49525 0.0
C1174 C 0.8178 0.09466 0.48967 0.0
C1175 C 0.77532 0.11982 0.49313 0.0
C1176 C 0.77992 0.13753 0.49545 0.0
C1177 C 0.75888 0.11377 0.49942 0.0
C1178 C 0.7533 0.09522 0.49746 0.0
C1179 C 0.76299 0.08157 0.50529 0.0
C1180 C 0.75765 0.06409 0.50328 0.0
C1181 C 0.74254 0.06015 0.49358 0.0
C1182 C 0.73272 0.07367 0.48594 0.0
C1183 C 0.73802 0.09116 0.48791 0.0
H1184 H 0.73842 0.04661 0.49204 0.0
H1185 H 0.79005 0.21567 0.516 0.0
H1186 H 0.16805 0.54848 0.7024 0.0
H1187 H 0.15105 0.52407 0.7153 0.0
H1188 H 0.14497 0.55378 0.76323 0.0
H1189 H 0.16153 0.57798 0.75056 0.0
H1190 H 0.1568 0.51853 0.76801 0.0
H1191 H 0.11235 0.55262 0.7357 0.0
H1192 H 0.0995 0.56468 0.70847 0.0
H1193 H 0.09578 0.51265 0.68686 0.0
H1194 H 0.10884 0.50031 0.71392 0.0
H1195 H 0.08822 0.50374 0.82372 0.0
H1196 H 0.10747 0.51526 0.801 0.0
H1197 H 0.09504 0.4712 0.76756 0.0
H1198 H 0.07539 0.45943 0.79048 0.0
H1199 H 0.09574 0.50446 0.74977 0.0
H1200 H 0.13339 0.4701 0.78555 0.0
H1201 H 0.14554 0.45834 0.81322 0.0
H1202 H 0.16253 0.51007 0.82811 0.0
H1203 H 0.15025 0.52221 0.80067 0.0
C1204 C 0.16304 0.54974 0.71567 0.0
C1205 C 0.16611 0.56515 0.72546 0.0
C1206 C 0.15335 0.53584 0.72299 0.0
C1207 C 0.14685 0.53715 0.74022 0.0
C1208 C 0.14997 0.55248 0.74994 0.0
C1209 C 0.15938 0.56635 0.74263 0.0
C1210 C 0.13669 0.52283 0.74858 0.0
C1211 C 0.14351 0.51529 0.76396 0.0
C1212 C 0.11962 0.51815 0.74289 0.0
C1213 C 0.11179 0.52559 0.7267 0.0
C1214 C 0.10896 0.54378 0.72507 0.0
C1215 C 0.1016 0.55066 0.70969 0.0
C1216 C 0.09689 0.53945 0.69592 0.0
C1217 C 0.09948 0.52132 0.69752 0.0
C1218 C 0.10685 0.51438 0.71287 0.0
C1219 C 0.08946 0.49645 0.81155 0.0
C1220 C 0.08038 0.48058 0.80897 0.0
C1221 C 0.10054 0.50305 0.79858 0.0
C1222 C 0.10291 0.49392 0.78274 0.0
C1223 C 0.09345 0.47835 0.77977 0.0
C1224 C 0.08228 0.47167 0.79285 0.0
C1225 C 0.11557 0.50093 0.7697 0.0
C1226 C 0.10926 0.50709 0.75349 0.0
C1227 C 0.13321 0.50431 0.77456 0.0
C1228 C 0.14086 0.49707 0.79103 0.0
C1229 C 0.13964 0.47899 0.79476 0.0
C1230 C 0.14656 0.47225 0.81041 0.0
C1231 C 0.1548 0.48345 0.82241 0.0
C1232 C 0.15616 0.50141 0.81878 0.0
C1233 C 0.14926 0.50822 0.80316 0.0
H1234 H 0.16013 0.47821 0.83452 0.0
H1235 H 0.09119 0.54479 0.68402 0.0
H1236 H 0.67236 0.92105 0.00624 0.0
H1237 H 0.6956 0.90333 0.01902 0.0
H1238 H 0.72741 0.91093 0.97267 0.0
H1239 H 0.70382 0.9288 0.9595 0.0
H1240 H 0.72717 0.87616 0.98413 0.0
H1241 H 0.73963 0.93169 0.00899 0.0
H1242 H 0.73332 0.96024 0.02299 0.0
H1243 H 0.71337 0.93377 0.0687 0.0
H1244 H 0.7193 0.90505 0.05489 0.0
H1245 H 0.78746 0.82826 0.04293 0.0
H1246 H 0.77682 0.85078 0.02222 0.0
H1247 H 0.72952 0.85659 0.05296 0.0
H1248 H 0.73981 0.83428 0.0734 0.0
H1249 H 0.74669 0.88864 0.04512 0.0
H1250 H 0.72823 0.83391 0.01624 0.0
H1251 H 0.73423 0.80542 0.00194 0.0
H1252 H 0.76663 0.8312 0.96353 0.0
H1253 H 0.76098 0.85983 0.97777 0.0
C1254 C 0.68429 0.91908 0.99871 0.0
C1255 C 0.68626 0.92641 0.98186 0.0
C1256 C 0.69763 0.90899 0.0061 0.0
C1257 C 0.71336 0.90605 0.99693 0.0
C1258 C 0.71541 0.91316 0.98 0.0
C1259 C 0.70197 0.92338 0.97254 0.0
C1260 C 0.72718 0.89508 0.00523 0.0
C1261 C 0.73188 0.8791 0.99727 0.0
C1262 C 0.73336 0.89893 0.02235 0.0
C1263 C 0.7299 0.91619 0.03086 0.0
C1264 C 0.73382 0.93195 0.02199 0.0
C1265 C 0.73031 0.94816 0.0299 0.0
C1266 C 0.72295 0.94882 0.04672 0.0
C1267 C 0.7191 0.93325 0.05568 0.0
C1268 C 0.72257 0.91699 0.04783 0.0
C1269 C 0.77475 0.83429 0.04516 0.0
C1270 C 0.76449 0.82951 0.05982 0.0
C1271 C 0.76872 0.84712 0.03335 0.0
C1272 C 0.75245 0.85539 0.03617 0.0
C1273 C 0.74217 0.85046 0.05064 0.0
C1274 C 0.74806 0.83762 0.06228 0.0
C1275 C 0.7458 0.8694 0.02439 0.0
C1276 C 0.7425 0.88598 0.03174 0.0
C1277 C 0.74106 0.86613 0.00672 0.0
C1278 C 0.74439 0.84894 0.9982 0.0
C1279 C 0.73677 0.83347 0.00485 0.0
C1280 C 0.74007 0.81731 0.99674 0.0
C1281 C 0.75086 0.81649 0.98188 0.0
C1282 C 0.75832 0.83185 0.97507 0.0
C1283 C 0.75507 0.84804 0.98315 0.0
H1284 H 0.7534 0.80397 0.97561 0.0
H1285 H 0.72023 0.96139 0.05281 0.0
H1286 H 0.32379 0.43495 0.26038 0.0
H1287 H 0.33906 0.46039 0.27238 0.0
H1288 H 0.34468 0.48201 0.22025 0.0
H1289 H 0.32905 0.45642 0.20802 0.0
H1290 H 0.37649 0.48084 0.24058 0.0
H1291 H 0.31873 0.50337 0.24566 0.0
H1292 H 0.28701 0.50277 0.25231 0.0
H1293 H 0.29829 0.49279 0.30673 0.0
H1294 H 0.33008 0.49306 0.30037 0.0
H1295 H 0.42115 0.54457 0.29547 0.0
H1296 H 0.40097 0.53395 0.27253 0.0
H1297 H 0.37607 0.49981 0.3104 0.0
H1298 H 0.39585 0.51032 0.33315 0.0
H1299 H 0.35199 0.51597 0.28979 0.0
H1300 H 0.40803 0.48482 0.28246 0.0
H1301 H 0.43988 0.48357 0.27635 0.0
H1302 H 0.43159 0.50887 0.22654 0.0
H1303 H 0.3997 0.51043 0.23248 0.0
C1304 C 0.32812 0.44516 0.25144 0.0
C1305 C 0.32526 0.44369 0.23326 0.0
C1306 C 0.33676 0.45974 0.25833 0.0
C1307 C 0.34284 0.47313 0.24721 0.0
C1308 C 0.33996 0.47183 0.22903 0.0
C1309 C 0.33103 0.45727 0.22209 0.0
C1310 C 0.35307 0.48779 0.25491 0.0
C1311 C 0.37105 0.48897 0.25097 0.0
C1312 C 0.34596 0.49826 0.26853 0.0
C1313 C 0.32682 0.49821 0.27251 0.0
C1314 C 0.31445 0.50095 0.25903 0.0
C1315 C 0.29645 0.50068 0.26275 0.0
C1316 C 0.29064 0.49774 0.27993 0.0
C1317 C 0.30282 0.49509 0.29343 0.0
C1318 C 0.32084 0.49534 0.28978 0.0
C1319 C 0.41126 0.53491 0.29887 0.0
C1320 C 0.41016 0.5282 0.31608 0.0
C1321 C 0.39977 0.52885 0.28578 0.0
C1322 C 0.38704 0.51606 0.28977 0.0
C1323 C 0.38571 0.50975 0.30704 0.0
C1324 C 0.39714 0.51571 0.32002 0.0
C1325 C 0.37554 0.50827 0.27609 0.0
C1326 C 0.3573 0.5084 0.27893 0.0
C1327 C 0.38244 0.49893 0.26155 0.0
C1328 C 0.40156 0.49797 0.25801 0.0
C1329 C 0.41304 0.49024 0.27028 0.0
C1330 C 0.43108 0.48945 0.26684 0.0
C1331 C 0.43776 0.4962 0.2511 0.0
C1332 C 0.4264 0.5037 0.23875 0.0
C1333 C 0.40835 0.50454 0.24214 0.0
H1334 H 0.45173 0.49557 0.24845 0.0
H1335 H 0.2767 0.49753 0.28279 0.0
H1336 H 0.49039 0.3169 0.41579 0.0
H1337 H 0.47805 0.2943 0.39696 0.0
H1338 H 0.527 0.26566 0.39862 0.0
H1339 H 0.53968 0.2886 0.41763 0.0
H1340 H 0.51331 0.26831 0.36482 0.0
H1341 H 0.49323 0.24851 0.41999 0.0
H1342 H 0.48086 0.25061 0.44988 0.0
H1343 H 0.43203 0.26942 0.42868 0.0
H1344 H 0.44417 0.2677 0.39868 0.0
H1345 H 0.45466 0.20811 0.31579 0.0
H1346 H 0.47577 0.21755 0.33849 0.0
H1347 H 0.44521 0.26449 0.34728 0.0
H1348 H 0.42448 0.25548 0.3246 0.0
H1349 H 0.45466 0.24326 0.37866 0.0
H1350 H 0.47898 0.26959 0.32476 0.0
H1351 H 0.4917 0.26747 0.295 0.0
H1352 H 0.53316 0.23461 0.31476 0.0
H1353 H 0.52051 0.23635 0.34462 0.0
C1354 C 0.49859 0.30579 0.41227 0.0
C1355 C 0.51602 0.30453 0.41825 0.0
C1356 C 0.49146 0.2928 0.40156 0.0
C1357 C 0.50151 0.27816 0.39662 0.0
C1358 C 0.51899 0.27681 0.40241 0.0
C1359 C 0.52618 0.28988 0.41328 0.0
C1360 C 0.49353 0.26484 0.38484 0.0
C1361 C 0.50074 0.26237 0.36802 0.0
C1362 C 0.47715 0.25704 0.38902 0.0
C1363 C 0.46965 0.258 0.40705 0.0
C1364 C 0.47988 0.25319 0.4217 0.0
C1365 C 0.4729 0.2543 0.43867 0.0
C1366 C 0.45567 0.26014 0.44118 0.0
C1367 C 0.44537 0.26487 0.42672 0.0
C1368 C 0.45229 0.26379 0.40972 0.0
C1369 C 0.45255 0.22048 0.32253 0.0
C1370 C 0.43795 0.23108 0.31842 0.0
C1371 C 0.46457 0.22581 0.33545 0.0
C1372 C 0.46193 0.24164 0.34455 0.0
C1373 C 0.4474 0.25219 0.34043 0.0
C1374 C 0.43562 0.24705 0.3274 0.0
C1375 C 0.47405 0.24757 0.35853 0.0
C1376 C 0.46755 0.24863 0.37574 0.0
C1377 C 0.49111 0.25388 0.35475 0.0
C1378 C 0.49867 0.25289 0.33684 0.0
C1379 C 0.4907 0.26176 0.32272 0.0
C1380 C 0.49792 0.26067 0.30584 0.0
C1381 C 0.51319 0.25085 0.30297 0.0
C1382 C 0.52131 0.24216 0.31699 0.0
C1383 C 0.51412 0.2432 0.33389 0.0
H1384 H 0.51877 0.25002 0.2899 0.0
H1385 H 0.45029 0.261 0.45433 0.0
H1386 H 0.04414 0.20303 0.5819 0.0
H1387 H 0.03094 0.22698 0.59922 0.0
H1388 H 0.98157 0.19905 0.60006 0.0
H1389 H 0.99447 0.17537 0.58293 0.0
H1390 H 0.97722 0.23383 0.59241 0.0
H1391 H 0.00962 0.19749 0.63468 0.0
H1392 H 0.03669 0.18437 0.64682 0.0
H1393 H 0.05918 0.23581 0.65296 0.0
H1394 H 0.03228 0.24921 0.64065 0.0
H1395 H 0.92377 0.24506 0.66403 0.0
H1396 H 0.94585 0.23446 0.64352 0.0
H1397 H 0.97854 0.27936 0.6549 0.0
H1398 H 0.9562 0.29029 0.67567 0.0
H1399 H 0.9966 0.24514 0.65368 0.0
H1400 H 0.96017 0.28116 0.61795 0.0
H1401 H 0.9322 0.2933 0.60691 0.0
H1402 H 0.91687 0.24213 0.58865 0.0
H1403 H 0.94461 0.22962 0.59982 0.0
C1404 C 0.03045 0.2021 0.58572 0.0
C1405 C 0.02036 0.1873 0.58109 0.0
C1406 C 0.02296 0.21575 0.59563 0.0
C1407 C 0.00528 0.21476 0.60092 0.0
C1408 C 0.9952 0.20013 0.59603 0.0
C1409 C 0.00265 0.18654 0.5863 0.0
C1410 C 0.99699 0.22852 0.61196 0.0
C1411 C 0.98152 0.23643 0.60576 0.0
C1412 C 0.00296 0.23239 0.62916 0.0
C1413 C 0.01907 0.22432 0.63654 0.0
C1414 C 0.0204 0.20598 0.63848 0.0
C1415 C 0.0357 0.1985 0.64542 0.0
C1416 C 0.04968 0.20925 0.6506 0.0
C1417 C 0.04836 0.2275 0.6489 0.0
C1418 C 0.0331 0.23504 0.64195 0.0
C1419 C 0.93565 0.25272 0.6623 0.0
C1420 C 0.93819 0.26858 0.67143 0.0
C1421 C 0.94825 0.24665 0.65051 0.0
C1422 C 0.96369 0.25625 0.64755 0.0
C1423 C 0.96663 0.27184 0.65698 0.0
C1424 C 0.95387 0.27805 0.66878 0.0
C1425 C 0.9764 0.24967 0.63436 0.0
C1426 C 0.99265 0.24311 0.64012 0.0
C1427 C 0.97115 0.24698 0.61673 0.0
C1428 C 0.95449 0.25445 0.60977 0.0
C1429 C 0.95079 0.27248 0.61167 0.0
C1430 C 0.93498 0.27942 0.60538 0.0
C1431 C 0.92276 0.26849 0.59709 0.0
C1432 C 0.92635 0.25059 0.59505 0.0
C1433 C 0.94214 0.24357 0.60133 0.0
H1434 H 0.91052 0.2739 0.59224 0.0
H1435 H 0.0615 0.20343 0.65597 0.0
H1436 H 0.0037 0.67532 0.91649 0.0
H1437 H 0.01652 0.69799 0.89804 0.0
H1438 H 0.96987 0.72971 0.90393 0.0
H1439 H 0.9567 0.70674 0.9226 0.0
H1440 H 0.98271 0.72805 0.86883 0.0
H1441 H 0.00441 0.743 0.92522 0.0
H1442 H 0.01708 0.73777 0.9546 0.0
H1443 H 0.06437 0.71789 0.93102 0.0
H1444 H 0.05191 0.72275 0.90149 0.0
H1445 H 0.04231 0.7894 0.82307 0.0
H1446 H 0.02054 0.77824 0.84429 0.0
H1447 H 0.05252 0.73218 0.85276 0.0
H1448 H 0.07402 0.74299 0.83173 0.0
H1449 H 0.04238 0.74971 0.88391 0.0
H1450 H 0.01724 0.72899 0.82831 0.0
H1451 H 0.00437 0.73366 0.7989 0.0
H1452 H 0.96337 0.76522 0.82153 0.0
H1453 H 0.97615 0.76091 0.85107 0.0
C1454 C 0.99609 0.68709 0.91395 0.0
C1455 C 0.9792 0.68926 0.9211 0.0
C1456 C 0.00349 0.70008 0.90342 0.0
C1457 C 0.99425 0.71563 0.89983 0.0
C1458 C 0.97724 0.71782 0.90665 0.0
C1459 C 0.96977 0.70475 0.91733 0.0
C1460 C 0.00276 0.72927 0.88882 0.0
C1461 C 0.99554 0.73323 0.87229 0.0
C1462 C 0.01949 0.73601 0.89337 0.0
C1463 C 0.02718 0.73322 0.91111 0.0
C1464 C 0.01748 0.73743 0.92629 0.0
C1465 C 0.02463 0.73453 0.94298 0.0
C1466 C 0.04151 0.7275 0.94467 0.0
C1467 C 0.0513 0.72336 0.92968 0.0
C1468 C 0.04421 0.72622 0.91296 0.0
C1469 C 0.04457 0.77683 0.82937 0.0
C1470 C 0.05991 0.7671 0.82577 0.0
C1471 C 0.03216 0.7705 0.84146 0.0
C1472 C 0.03502 0.75446 0.85014 0.0
C1473 C 0.05014 0.74465 0.84629 0.0
C1474 C 0.06239 0.75084 0.83419 0.0
C1475 C 0.02274 0.74769 0.86364 0.0
C1476 C 0.02929 0.74506 0.88067 0.0
C1477 C 0.00542 0.7423 0.85956 0.0
C1478 C 0.99778 0.74484 0.84184 0.0
C1479 C 0.00558 0.73707 0.82698 0.0
C1480 C 0.99828 0.73961 0.8103 0.0
C1481 C 0.9831 0.74979 0.80834 0.0
C1482 C 0.97516 0.75739 0.82307 0.0
C1483 C 0.98242 0.75489 0.83978 0.0
H1484 H 0.97747 0.75174 0.79542 0.0
H1485 H 0.04702 0.72525 0.95761 0.0
H1486 H 0.5716 0.74888 0.15739 0.0
H1487 H 0.54628 0.75946 0.14104 0.0
H1488 H 0.51883 0.71094 0.15134 0.0
H1489 H 0.54436 0.70013 0.16817 0.0
H1490 H 0.51886 0.72636 0.1133 0.0
H1491 H 0.50216 0.73923 0.17211 0.0
H1492 H 0.50685 0.74877 0.20274 0.0
H1493 H 0.5215 0.80024 0.18476 0.0
H1494 H 0.51718 0.79094 0.15401 0.0
H1495 H 0.45514 0.78666 0.07192 0.0
H1496 H 0.46567 0.76328 0.09176 0.0
H1497 H 0.50941 0.79603 0.10694 0.0
H1498 H 0.49925 0.81907 0.08732 0.0
H1499 H 0.49097 0.78098 0.13558 0.0
H1500 H 0.51577 0.76488 0.07791 0.0
H1501 H 0.51288 0.75568 0.04694 0.0
H1502 H 0.48316 0.71039 0.06291 0.0
H1503 H 0.48572 0.71947 0.09398 0.0
C1504 C 0.56026 0.74035 0.15619 0.0
C1505 C 0.55998 0.72367 0.16413 0.0
C1506 C 0.54578 0.74644 0.14684 0.0
C1507 C 0.53071 0.73601 0.1451 0.0
C1508 C 0.53039 0.71915 0.1526 0.0
C1509 C 0.54492 0.71306 0.16222 0.0
C1510 C 0.51545 0.74342 0.13564 0.0
C1511 C 0.51222 0.73794 0.11833 0.0
C1512 C 0.50692 0.75856 0.14223 0.0
C1513 C 0.50936 0.76435 0.16073 0.0
C1514 C 0.50648 0.75255 0.17468 0.0
C1515 C 0.50906 0.75792 0.19207 0.0
C1516 C 0.51447 0.7751 0.19569 0.0
C1517 C 0.51729 0.78695 0.18193 0.0
C1518 C 0.51474 0.78164 0.16452 0.0
C1519 C 0.46701 0.78879 0.07949 0.0
C1520 C 0.47637 0.8047 0.07805 0.0
C1521 C 0.47298 0.77546 0.09079 0.0
C1522 C 0.48824 0.77802 0.10087 0.0
C1523 C 0.49752 0.79386 0.09938 0.0
C1524 C 0.49173 0.807 0.08806 0.0
C1525 C 0.49509 0.76443 0.11299 0.0
C1526 C 0.49683 0.76888 0.1308 0.0
C1527 C 0.5022 0.74839 0.10683 0.0
C1528 C 0.50071 0.74298 0.0882 0.0
C1529 C 0.50848 0.75305 0.07479 0.0
C1530 C 0.50694 0.74784 0.05723 0.0
C1531 C 0.49779 0.73249 0.05295 0.0
C1532 C 0.49021 0.7223 0.06624 0.0
C1533 C 0.4917 0.72747 0.08382 0.0
H1534 H 0.49661 0.72847 0.03935 0.0
H1535 H 0.51647 0.77923 0.20916 0.0
H1536 H 0.18489 0.29716 0.34373 0.0
H1537 H 0.19543 0.30497 0.31421 0.0
H1538 H 0.21349 0.35493 0.33407 0.0
H1539 H 0.20307 0.34728 0.36339 0.0
H1540 H 0.19352 0.35778 0.30482 0.0
H1541 H 0.24086 0.31992 0.32981 0.0
H1542 H 0.26537 0.29475 0.33843 0.0
H1543 H 0.25177 0.27142 0.26933 0.0
H1544 H 0.22954 0.29869 0.27097 0.0
H1545 H 0.25933 0.39672 0.25324 0.0
H1546 H 0.24044 0.38284 0.27512 0.0
H1547 H 0.23059 0.33975 0.2396 0.0
H1548 H 0.24953 0.35364 0.21748 0.0
H1549 H 0.24195 0.32917 0.27217 0.0
H1550 H 0.19737 0.36615 0.24942 0.0
H1551 H 0.18423 0.39389 0.23896 0.0
H1552 H 0.19145 0.41692 0.29 0.0
H1553 H 0.20487 0.38941 0.30071 0.0
C1554 C 0.19069 0.31001 0.34166 0.0
C1555 C 0.1929 0.32178 0.35581 0.0
C1556 C 0.19707 0.31423 0.3249 0.0
C1557 C 0.20556 0.33033 0.32208 0.0
C1558 C 0.20715 0.34232 0.33604 0.0
C1559 C 0.20095 0.33808 0.35273 0.0
C1560 C 0.21147 0.3358 0.30443 0.0
C1561 C 0.20411 0.35139 0.29769 0.0
C1562 C 0.2247 0.32694 0.2947 0.0
C1563 C 0.23356 0.31024 0.30014 0.0
C1564 C 0.2436 0.30969 0.32033 0.0
C1565 C 0.2594 0.29421 0.32536 0.0
C1566 C 0.26448 0.27329 0.29849 0.0
C1567 C 0.2511 0.27889 0.28141 0.0
C1568 C 0.23692 0.29604 0.28285 0.0
C1569 C 0.25292 0.38444 0.24993 0.0
C1570 C 0.25598 0.37624 0.23365 0.0
C1571 C 0.24205 0.37656 0.26244 0.0
C1572 C 0.23405 0.36031 0.25895 0.0
C1573 C 0.23661 0.35233 0.2425 0.0
C1574 C 0.24736 0.36031 0.22988 0.0
C1575 C 0.2244 0.35109 0.27316 0.0
C1576 C 0.23096 0.33496 0.27918 0.0
C1577 C 0.21035 0.35913 0.28219 0.0
C1578 C 0.20221 0.37571 0.27585 0.0
C1579 C 0.19627 0.37717 0.25839 0.0
C1580 C 0.18875 0.39285 0.25241 0.0
C1581 C 0.18703 0.40716 0.2638 0.0
C1582 C 0.19279 0.40581 0.28119 0.0
C1583 C 0.20032 0.39017 0.28723 0.0
H1584 H 0.18121 0.41929 0.25915 0.0
H1585 H 0.27333 0.26214 0.29641 0.0
H1586 H 0.88225 0.98607 0.47234 0.0
H1587 H 0.88835 0.96634 0.49701 0.0
H1588 H 0.85018 0.99397 0.52862 0.0
H1589 H 0.84431 0.01394 0.50422 0.0
H1590 H 0.88071 0.99261 0.54461 0.0
H1591 H 0.84388 0.95085 0.51518 0.0
H1592 H 0.83365 0.93275 0.49031 0.0
H1593 H 0.8835 0.90629 0.48866 0.0
H1594 H 0.89413 0.9244 0.51337 0.0
H1595 H 0.8932 0.94626 0.62053 0.0
H1596 H 0.87633 0.95272 0.594 0.0
H1597 H 0.91755 0.9303 0.56215 0.0
H1598 H 0.93436 0.92339 0.58871 0.0
H1599 H 0.8837 0.92743 0.54641 0.0
H1600 H 0.92152 0.97133 0.57249 0.0
H1601 H 0.93266 0.9893 0.59708 0.0
H1602 H 0.88144 0.01206 0.604 0.0
H1603 H 0.86993 0.99398 0.57961 0.0
C1604 C 0.87493 0.98774 0.48445 0.0
C1605 C 0.86297 0.00171 0.48641 0.0
C1606 C 0.87835 0.97637 0.4985 0.0
C1607 C 0.86969 0.97865 0.51466 0.0
C1608 C 0.85706 0.99201 0.51629 0.0
C1609 C 0.85374 0.00343 0.50234 0.0
C1610 C 0.87527 0.96865 0.53046 0.0
C1611 C 0.88096 0.97835 0.54508 0.0
C1612 C 0.87622 0.95005 0.53088 0.0
C1613 C 0.86985 0.9391 0.51604 0.0
C1614 C 0.85272 0.94127 0.50943 0.0
C1615 C 0.84684 0.93099 0.49537 0.0
C1616 C 0.85793 0.91841 0.48788 0.0
C1617 C 0.87492 0.91605 0.49446 0.0
C1618 C 0.88088 0.92631 0.50851 0.0
C1619 C 0.89839 0.94211 0.60793 0.0
C1620 C 0.91526 0.93467 0.60665 0.0
C1621 C 0.88872 0.94578 0.59278 0.0
C1622 C 0.89592 0.94238 0.57613 0.0
C1623 C 0.91181 0.93309 0.57489 0.0
C1624 C 0.92142 0.92919 0.59009 0.0
C1625 C 0.88873 0.95146 0.56048 0.0
C1626 C 0.88306 0.94167 0.54591 0.0
C1627 C 0.88787 0.97004 0.55993 0.0
C1628 C 0.89483 0.98118 0.57437 0.0
C1629 C 0.91262 0.98009 0.57933 0.0
C1630 C 0.91899 0.99029 0.59323 0.0
C1631 C 0.90775 0.00178 0.60213 0.0
C1632 C 0.89012 0.00313 0.59711 0.0
C1633 C 0.88367 0.99291 0.58325 0.0
H1634 H 0.91271 0.00966 0.61289 0.0
H1635 H 0.85336 0.91046 0.477 0.0
H1636 H 0.26352 0.62807 0.7179 0.0
H1637 H 0.28368 0.63558 0.74192 0.0
H1638 H 0.24464 0.61948 0.77978 0.0
H1639 H 0.2245 0.61197 0.75604 0.0
H1640 H 0.25801 0.6522 0.78673 0.0
H1641 H 0.27946 0.59419 0.77237 0.0
H1642 H 0.29146 0.57131 0.75278 0.0
H1643 H 0.33682 0.60337 0.74261 0.0
H1644 H 0.32496 0.62656 0.76197 0.0
H1645 H 0.29694 0.64411 0.8663 0.0
H1646 H 0.29087 0.62998 0.83822 0.0
H1647 H 0.3238 0.66772 0.81175 0.0
H1648 H 0.32997 0.68211 0.83986 0.0
H1649 H 0.31674 0.62554 0.79724 0.0
H1650 H 0.2922 0.68545 0.80782 0.0
H1651 H 0.28175 0.70695 0.82979 0.0
H1652 H 0.24299 0.67005 0.84782 0.0
H1653 H 0.25341 0.64826 0.82606 0.0
C1654 C 0.25928 0.62603 0.73134 0.0
C1655 C 0.24236 0.61949 0.73504 0.0
C1656 C 0.27084 0.63026 0.74503 0.0
C1657 C 0.26563 0.62807 0.7626 0.0
C1658 C 0.24888 0.62131 0.7663 0.0
C1659 C 0.2374 0.61699 0.75268 0.0
C1660 C 0.27718 0.63353 0.77728 0.0
C1661 C 0.27084 0.64636 0.78892 0.0
C1662 C 0.29408 0.62614 0.78004 0.0
C1663 C 0.30122 0.6122 0.76844 0.0
C1664 C 0.29192 0.59643 0.76582 0.0
C1665 C 0.29871 0.58339 0.75479 0.0
C1666 C 0.31487 0.58591 0.74641 0.0
C1667 C 0.32429 0.60145 0.74909 0.0
C1668 C 0.31754 0.61455 0.76009 0.0
C1669 C 0.30351 0.64901 0.85464 0.0
C1670 C 0.31354 0.66453 0.85523 0.0
C1671 C 0.30014 0.64079 0.83861 0.0
C1672 C 0.30677 0.64794 0.82298 0.0
C1673 C 0.31868 0.66198 0.82375 0.0
C1674 C 0.32209 0.67025 0.83983 0.0
C1675 C 0.29743 0.64406 0.80643 0.0
C1676 C 0.30407 0.63156 0.79465 0.0
C1677 C 0.28084 0.6518 0.80333 0.0
C1678 C 0.27359 0.66527 0.8154 0.0
C1679 C 0.2814 0.68198 0.81644 0.0
C1680 C 0.27554 0.69418 0.82888 0.0
C1681 C 0.26177 0.68984 0.84024 0.0
C1682 C 0.25368 0.67337 0.83903 0.0
C1683 C 0.25954 0.66111 0.82663 0.0
H1684 H 0.25738 0.69925 0.84998 0.0
H1685 H 0.32011 0.57579 0.73788 0.0
H1686 H 0.5963 0.04824 0.11313 0.0
H1687 H 0.6109 0.046 0.08478 0.0
H1688 H 0.57012 0.07749 0.06103 0.0
H1689 H 0.55519 0.0796 0.08948 0.0
H1690 H 0.5733 0.04706 0.04474 0.0
H1691 H 0.61321 0.09174 0.06089 0.0
H1692 H 0.63381 0.10818 0.07975 0.0
H1693 H 0.66871 0.06381 0.08087 0.0
H1694 H 0.64822 0.04699 0.06223 0.0
H1695 H 0.61387 0.01905 0.9655 0.0
H1696 H 0.60452 0.04045 0.98767 0.0
H1697 H 0.63615 0.014 0.02662 0.0
H1698 H 0.64568 0.99273 0.00462 0.0
H1699 H 0.63699 0.04983 0.03091 0.0
H1700 H 0.59328 0.00377 0.02192 0.0
H1701 H 0.57243 0.98648 0.00407 0.0
H1702 H 0.54459 0.03368 0.9904 0.0
H1703 H 0.56544 0.05126 0.00801 0.0
C1704 C 0.59064 0.0551 0.102 0.0
C1705 C 0.57445 0.06389 0.10353 0.0
C1706 C 0.59911 0.05393 0.08578 0.0
C1707 C 0.59164 0.06161 0.07074 0.0
C1708 C 0.57612 0.07148 0.07247 0.0
C1709 C 0.56764 0.07271 0.08876 0.0
C1710 C 0.59856 0.05685 0.05312 0.0
C1711 C 0.58715 0.0482 0.04147 0.0
C1712 C 0.61667 0.05802 0.04897 0.0
C1713 C 0.62911 0.06807 0.06018 0.0
C1714 C 0.62522 0.08543 0.06525 0.0
C1715 C 0.63689 0.09483 0.07589 0.0
C1716 C 0.65255 0.08704 0.08152 0.0
C1717 C 0.65658 0.06984 0.07649 0.0
C1718 C 0.64495 0.06037 0.06585 0.0
C1719 C 0.61906 0.01795 0.97872 0.0
C1720 C 0.63033 0.00403 0.98335 0.0
C1721 C 0.6137 0.0302 0.99136 0.0
C1722 C 0.6195 0.02869 0.00883 0.0
C1723 C 0.63153 0.01542 0.01322 0.0
C1724 C 0.63686 0.00318 0.00063 0.0
C1725 C 0.6118 0.03964 0.023 0.0
C1726 C 0.62307 0.04932 0.03396 0.0
C1727 C 0.59356 0.03939 0.02662 0.0
C1728 C 0.58104 0.02884 0.01606 0.0
C1729 C 0.58279 0.01046 0.01498 0.0
C1730 C 0.57097 0.00061 0.00493 0.0
C1731 C 0.55723 0.00899 0.99605 0.0
C1732 C 0.55526 0.02722 0.99724 0.0
C1733 C 0.56708 0.03713 0.00725 0.0
H1734 H 0.54808 0.00134 0.98828 0.0
H1735 H 0.66156 0.09434 0.08976 0.0
H1736 H 0.67266 0.18794 0.65775 0.0
H1737 H 0.6775 0.17258 0.68561 0.0
H1738 H 0.7133 0.13693 0.65985 0.0
H1739 H 0.70846 0.15204 0.63199 0.0
H1740 H 0.69479 0.12055 0.68643 0.0
H1741 H 0.72883 0.1738 0.67726 0.0
H1742 H 0.73238 0.20549 0.67133 0.0
H1743 H 0.70221 0.21777 0.71746 0.0
H1744 H 0.69826 0.18611 0.72351 0.0
H1745 H 0.76545 0.10145 0.74311 0.0
H1746 H 0.74482 0.11026 0.72021 0.0
H1747 H 0.71632 0.14186 0.75771 0.0
H1748 H 0.73701 0.13315 0.7808 0.0
H1749 H 0.72499 0.16023 0.72853 0.0
H1750 H 0.69715 0.1057 0.74073 0.0
H1751 H 0.69528 0.0738 0.74619 0.0
H1752 H 0.71511 0.06345 0.69436 0.0
H1753 H 0.71737 0.09529 0.68866 0.0
C1754 C 0.68115 0.1765 0.65789 0.0
C1755 C 0.69043 0.1714 0.64272 0.0
C1756 C 0.68393 0.16777 0.67384 0.0
C1757 C 0.696 0.15384 0.67483 0.0
C1758 C 0.70397 0.1477 0.65938 0.0
C1759 C 0.70126 0.15643 0.64348 0.0
C1760 C 0.70231 0.14725 0.69205 0.0
C1761 C 0.70135 0.12919 0.6957 0.0
C1762 C 0.7106 0.15861 0.70426 0.0
C1763 C 0.71305 0.17762 0.7007 0.0
C1764 C 0.72284 0.18327 0.68606 0.0
C1765 C 0.72494 0.20122 0.68269 0.0
C1766 C 0.71748 0.21364 0.69398 0.0
C1767 C 0.70794 0.20813 0.7087 0.0
C1768 C 0.70576 0.19019 0.7121 0.0
C1769 C 0.75467 0.11009 0.74658 0.0
C1770 C 0.75295 0.11668 0.76377 0.0
C1771 C 0.7428 0.11501 0.73348 0.0
C1772 C 0.72894 0.12659 0.73729 0.0
C1773 C 0.72688 0.13284 0.75453 0.0
C1774 C 0.73871 0.12784 0.7677 0.0
C1775 C 0.71778 0.13343 0.72284 0.0
C1776 C 0.71796 0.15159 0.71961 0.0
C1777 C 0.70893 0.12211 0.711 0.0
C1778 C 0.70752 0.10292 0.7143 0.0
C1779 C 0.70123 0.09663 0.73053 0.0
C1780 C 0.70008 0.07855 0.73367 0.0
C1781 C 0.70509 0.06661 0.72064 0.0
C1782 C 0.71123 0.07272 0.70444 0.0
C1783 C 0.71242 0.09079 0.70124 0.0
H1784 H 0.7042 0.05262 0.72309 0.0
H1785 H 0.71913 0.22753 0.69136 0.0
H1786 H 0.11786 0.48219 0.02753 0.0
H1787 H 0.11032 0.46351 0.00248 0.0
H1788 H 0.1508 0.48852 0.97156 0.0
H1789 H 0.15814 0.50746 0.99637 0.0
H1790 H 0.12023 0.49042 0.95568 0.0
H1791 H 0.15319 0.44458 0.98351 0.0
H1792 H 0.16192 0.42481 0.00769 0.0
H1793 H 0.10987 0.40296 0.00902 0.0
H1794 H 0.10075 0.42278 0.98502 0.0
H1795 H 0.10164 0.44788 0.87869 0.0
H1796 H 0.11966 0.45217 0.90491 0.0
H1797 H 0.07763 0.43204 0.93724 0.0
H1798 H 0.05969 0.42722 0.91097 0.0
H1799 H 0.11103 0.42591 0.95205 0.0
H1800 H 0.07722 0.47401 0.92791 0.0
H1801 H 0.0675 0.49372 0.90406 0.0
H1802 H 0.12056 0.51167 0.89689 0.0
H1803 H 0.13063 0.49183 0.92053 0.0
C1804 C 0.1254 0.48346 0.01552 0.0
C1805 C 0.13843 0.49648 0.01385 0.0
C1806 C 0.12114 0.47269 0.00122 0.0
C1807 C 0.13001 0.4746 0.98513 0.0
C1808 C 0.14375 0.48686 0.98383 0.0
C1809 C 0.1479 0.4977 0.99802 0.0
C1810 C 0.12351 0.46564 0.96907 0.0
C1811 C 0.11864 0.47626 0.9548 0.0
C1812 C 0.1208 0.44723 0.96812 0.0
C1813 C 0.12625 0.43528 0.98255 0.0
C1814 C 0.14356 0.43566 0.98906 0.0
C1815 C 0.14859 0.42443 0.00271 0.0
C1816 C 0.13645 0.41267 0.00991 0.0
C1817 C 0.11926 0.41209 0.00344 0.0
C1818 C 0.11416 0.42331 0.98979 0.0
C1819 C 0.09647 0.44377 0.89131 0.0
C1820 C 0.07914 0.43756 0.89285 0.0
C1821 C 0.10679 0.4462 0.90628 0.0
C1822 C 0.09978 0.44285 0.92302 0.0
C1823 C 0.08324 0.43479 0.92444 0.0
C1824 C 0.07299 0.43208 0.9094 0.0
C1825 C 0.10812 0.45073 0.93876 0.0
C1826 C 0.11304 0.44 0.95295 0.0
C1827 C 0.11078 0.46912 0.93982 0.0
C1828 C 0.1047 0.48131 0.92585 0.0
C1829 C 0.08682 0.48209 0.92118 0.0
C1830 C 0.08125 0.49328 0.9077 0.0
C1831 C 0.09341 0.50391 0.89893 0.0
C1832 C 0.11116 0.50341 0.90367 0.0
C1833 C 0.11681 0.4922 0.91711 0.0
H1834 H 0.08907 0.51256 0.88849 0.0
H1835 H 0.14037 0.40398 0.02048 0.0
H1836 H 0.76071 0.91016 0.26381 0.0
H1837 H 0.7798 0.90037 0.23977 0.0
H1838 H 0.76826 0.84632 0.25289 0.0
H1839 H 0.75054 0.85612 0.27775 0.0
H1840 H 0.79792 0.8462 0.23874 0.0
H1841 H 0.74244 0.87309 0.22259 0.0
H1842 H 0.72062 0.89709 0.22139 0.0
H1843 H 0.75818 0.93027 0.19534 0.0
H1844 H 0.78028 0.9065 0.19659 0.0
H1845 H 0.76907 0.82708 0.14364 0.0
H1846 H 0.7666 0.84314 0.17102 0.0
H1847 H 0.82261 0.83838 0.17915 0.0
H1848 H 0.82502 0.8213 0.15184 0.0
H1849 H 0.77712 0.87199 0.18257 0.0
H1850 H 0.83099 0.83841 0.22358 0.0
H1851 H 0.84727 0.81034 0.22495 0.0
H1852 H 0.8037 0.78359 0.201 0.0
H1853 H 0.78712 0.81144 0.19967 0.0
C1854 C 0.7628 0.89621 0.26186 0.0
C1855 C 0.75409 0.88386 0.27245 0.0
C1856 C 0.77358 0.8906 0.24806 0.0
C1857 C 0.77498 0.87259 0.24405 0.0
C1858 C 0.76738 0.86028 0.25557 0.0
C1859 C 0.75719 0.86588 0.26978 0.0
C1860 C 0.78216 0.86655 0.22686 0.0
C1861 C 0.79351 0.85196 0.22646 0.0
C1862 C 0.77631 0.87387 0.21073 0.0
C1863 C 0.76305 0.88813 0.20988 0.0
C1864 C 0.74605 0.88554 0.21669 0.0
C1865 C 0.73364 0.89909 0.216 0.0
C1866 C 0.73803 0.91521 0.20835 0.0
C1867 C 0.75482 0.91779 0.20131 0.0
C1868 C 0.76729 0.90429 0.20201 0.0
C1869 C 0.78094 0.82951 0.15114 0.0
C1870 C 0.79725 0.82285 0.14557 0.0
C1871 C 0.77951 0.83879 0.16683 0.0
C1872 C 0.79438 0.84194 0.17729 0.0
C1873 C 0.81087 0.83587 0.17149 0.0
C1874 C 0.81226 0.8262 0.15584 0.0
C1875 C 0.79209 0.85106 0.19445 0.0
C1876 C 0.78185 0.86642 0.19483 0.0
C1877 C 0.79814 0.84384 0.21052 0.0
C1878 C 0.80795 0.82703 0.2113 0.0
C1879 C 0.82491 0.82652 0.21862 0.0
C1880 C 0.83418 0.81066 0.21939 0.0
C1881 C 0.82656 0.79521 0.21299 0.0
C1882 C 0.80962 0.79557 0.20587 0.0
C1883 C 0.80029 0.81139 0.20509 0.0
H1884 H 0.83376 0.78295 0.21359 0.0
H1885 H 0.72841 0.92569 0.20783 0.0
H1886 H 0.39106 0.51412 0.53717 0.0
H1887 H 0.40083 0.53415 0.51388 0.0
H1888 H 0.36258 0.51173 0.47851 0.0
H1889 H 0.35291 0.49163 0.5015 0.0
H1890 H 0.3952 0.5108 0.46503 0.0
H1891 H 0.35833 0.55353 0.49399 0.0
H1892 H 0.34803 0.57128 0.51909 0.0
H1893 H 0.39907 0.59498 0.52365 0.0
H1894 H 0.40976 0.57718 0.49873 0.0
H1895 H 0.401 0.55924 0.3906 0.0
H1896 H 0.3873 0.55392 0.41908 0.0
H1897 H 0.43493 0.56996 0.44525 0.0
H1898 H 0.44881 0.57543 0.41669 0.0
H1899 H 0.39933 0.57597 0.46468 0.0
H1900 H 0.437 0.53148 0.43842 0.0
H1901 H 0.44791 0.51416 0.41325 0.0
H1902 H 0.39595 0.4939 0.40438 0.0
H1903 H 0.38472 0.51128 0.42941 0.0
C1904 C 0.38453 0.51367 0.52452 0.0
C1905 C 0.37136 0.50112 0.52112 0.0
C1906 C 0.39009 0.52518 0.51125 0.0
C1907 C 0.38244 0.5244 0.49446 0.0
C1908 C 0.36871 0.51249 0.49135 0.0
C1909 C 0.36321 0.50099 0.50453 0.0
C1910 C 0.38983 0.53456 0.47955 0.0
C1911 C 0.39589 0.52506 0.46496 0.0
C1912 C 0.39133 0.55314 0.47966 0.0
C1913 C 0.3849 0.56388 0.49461 0.0
C1914 C 0.36741 0.56241 0.50045 0.0
C1915 C 0.36149 0.57251 0.51462 0.0
C1916 C 0.3729 0.58422 0.52299 0.0
C1917 C 0.39025 0.58589 0.51717 0.0
C1918 C 0.39624 0.57581 0.50301 0.0
C1919 C 0.40835 0.56233 0.4024 0.0
C1920 C 0.42609 0.56739 0.40142 0.0
C1921 C 0.40046 0.55936 0.41868 0.0
C1922 C 0.41023 0.5613 0.43419 0.0
C1923 C 0.42721 0.56844 0.43338 0.0
C1924 C 0.43512 0.57152 0.41704 0.0
C1925 C 0.4042 0.55213 0.45023 0.0
C1926 C 0.39859 0.56173 0.46494 0.0
C1927 C 0.40324 0.53357 0.45044 0.0
C1928 C 0.41 0.52278 0.43566 0.0
C1929 C 0.4279 0.52341 0.43103 0.0
C1930 C 0.43414 0.51358 0.4168 0.0
C1931 C 0.42262 0.50298 0.40719 0.0
C1932 C 0.40485 0.50213 0.41183 0.0
C1933 C 0.39855 0.51194 0.42605 0.0
H1934 H 0.42747 0.4954 0.39616 0.0
H1935 H 0.36829 0.59202 0.53396 0.0
H1936 H 0.25499 0.28365 0.38823 0.0
H1937 H 0.27519 0.26985 0.36758 0.0
H1938 H 0.23893 0.22683 0.3605 0.0
H1939 H 0.21835 0.24071 0.38104 0.0
H1940 H 0.27219 0.21602 0.36679 0.0
H1941 H 0.24043 0.2548 0.32916 0.0
H1942 H 0.22537 0.27999 0.30805 0.0
H1943 H 0.29543 0.3038 0.30265 0.0
H1944 H 0.30002 0.27649 0.32439 0.0
H1945 H 0.3351 0.18521 0.30124 0.0
H1946 H 0.30737 0.19361 0.31554 0.0
H1947 H 0.33086 0.24237 0.33244 0.0
H1948 H 0.35839 0.23418 0.31842 0.0
H1949 H 0.29848 0.24653 0.31566 0.0
H1950 H 0.3251 0.20964 0.36098 0.0
H1951 H 0.33706 0.18166 0.3722 0.0
H1952 H 0.28823 0.1558 0.36059 0.0
H1953 H 0.27605 0.18361 0.3491 0.0
C1954 C 0.25136 0.27111 0.38252 0.0
C1955 C 0.23508 0.26321 0.38637 0.0
C1956 C 0.26278 0.26345 0.37044 0.0
C1957 C 0.25827 0.24764 0.36216 0.0
C1958 C 0.24244 0.23925 0.36654 0.0
C1959 C 0.23084 0.24705 0.37845 0.0
C1960 C 0.27101 0.23912 0.35033 0.0
C1961 C 0.27772 0.22265 0.35542 0.0
C1962 C 0.27827 0.24794 0.33564 0.0
C1963 C 0.27094 0.26459 0.32814 0.0
C1964 C 0.24877 0.26507 0.32396 0.0
C1965 C 0.23958 0.28059 0.31025 0.0
C1966 C 0.26393 0.30174 0.29827 0.0
C1967 C 0.28403 0.29619 0.30647 0.0
C1968 C 0.2866 0.27895 0.32037 0.0
C1969 C 0.3344 0.19762 0.30818 0.0
C1970 C 0.34897 0.20903 0.30863 0.0
C1971 C 0.31854 0.20241 0.31629 0.0
C1972 C 0.31706 0.21867 0.32492 0.0
C1973 C 0.33169 0.22983 0.32571 0.0
C1974 C 0.34747 0.22506 0.31775 0.0
C1975 C 0.30033 0.22448 0.33303 0.0
C1976 C 0.29279 0.24025 0.32711 0.0
C1977 C 0.29242 0.21531 0.34708 0.0
C1978 C 0.29975 0.19863 0.35397 0.0
C1979 C 0.31697 0.19795 0.36067 0.0
C1980 C 0.32378 0.18213 0.36711 0.0
C1981 C 0.31343 0.16694 0.36705 0.0
C1982 C 0.29624 0.16756 0.36059 0.0
C1983 C 0.28938 0.18335 0.35412 0.0
H1984 H 0.31872 0.15471 0.37205 0.0
H1985 H 0.2635 0.31297 0.28929 0.0
H1986 H 0.00628 0.96386 0.61885 0.0
H1987 H 0.02575 0.98792 0.60979 0.0
H1988 H 0.9961 0.02405 0.64191 0.0
H1989 H 0.97663 0.00031 0.65092 0.0
H1990 H 0.99898 0.03494 0.60801 0.0
H1991 H 0.0372 0.0121 0.65331 0.0
H1992 H 0.0547 0.98916 0.6681 0.0
H1993 H 0.08634 0.98301 0.62173 0.0
H1994 H 0.06885 0.00575 0.60657 0.0
H1995 H 0.04265 0.1128 0.60187 0.0
H1996 H 0.03505 0.08553 0.61694 0.0
H1997 H 0.06489 0.05593 0.57888 0.0
H1998 H 0.07279 0.08328 0.56378 0.0
H1999 H 0.06376 0.04031 0.61419 0.0
H2000 H 0.0257 0.06176 0.56856 0.0
H2001 H 0.00867 0.08459 0.55306 0.0
H2002 H 0.97657 0.09215 0.5989 0.0
H2003 H 0.99369 0.06962 0.61481 0.0
C2004 C 0.00407 0.97689 0.62417 0.0
C2005 C 0.98977 0.98019 0.63546 0.0
C2006 C 0.01525 0.99059 0.61904 0.0
C2007 C 0.01234 0.00776 0.62517 0.0
C2008 C 0.99853 0.0109 0.63698 0.0
C2009 C 0.9874 0.99729 0.6421 0.0
C2010 C 0.0225 0.02283 0.61818 0.0
C2011 C 0.01312 0.03617 0.60957 0.0
C2012 C 0.04103 0.02411 0.61961 0.0
C2013 C 0.05159 0.01049 0.62874 0.0
C2014 C 0.04778 0.00575 0.64621 0.0
C2015 C 0.05773 0.9928 0.65467 0.0
C2016 C 0.07159 0.98459 0.64584 0.0
C2017 C 0.07558 0.98935 0.62854 0.0
C2018 C 0.06566 0.00228 0.62002 0.0
C2019 C 0.0481 0.10056 0.59703 0.0
C2020 C 0.05801 0.10013 0.58144 0.0
C2021 C 0.04379 0.08499 0.60568 0.0
C2022 C 0.04912 0.06874 0.59878 0.0
C2023 C 0.06063 0.06837 0.58437 0.0
C2024 C 0.06509 0.08401 0.57574 0.0
C2025 C 0.04008 0.05252 0.6046 0.0
C2026 C 0.04963 0.03898 0.61271 0.0
C2027 C 0.02167 0.05085 0.60257 0.0
C2028 C 0.01109 0.06413 0.59293 0.0
C2029 C 0.01509 0.06838 0.57537 0.0
C2030 C 0.00542 0.08126 0.56651 0.0
C2031 C 0.99156 0.08983 0.575 0.0
C2032 C 0.98733 0.08551 0.59235 0.0
C2033 C 0.99701 0.07269 0.6013 0.0
H2034 H 0.98408 0.09979 0.56811 0.0
H2035 H 0.07927 0.97457 0.65241 0.0
H2036 H 0.24773 0.72811 0.90313 0.0
H2037 H 0.22329 0.74665 0.89383 0.0
H2038 H 0.25516 0.76807 0.85207 0.0
H2039 H 0.27996 0.74978 0.86161 0.0
H2040 H 0.23352 0.79325 0.86667 0.0
H2041 H 0.22678 0.73476 0.84228 0.0
H2042 H 0.225 0.70238 0.84314 0.0
H2043 H 0.18265 0.70533 0.88034 0.0
H2044 H 0.18399 0.73776 0.87951 0.0
H2045 H 0.16402 0.81458 0.80626 0.0
H2046 H 0.19026 0.80674 0.82315 0.0
H2047 H 0.15759 0.78209 0.86248 0.0
H2048 H 0.13144 0.78933 0.84534 0.0
H2049 H 0.18004 0.75971 0.8503 0.0
H2050 H 0.18421 0.81886 0.87128 0.0
H2051 H 0.18541 0.85117 0.86898 0.0
H2052 H 0.23245 0.84752 0.83795 0.0
H2053 H 0.2314 0.81516 0.83985 0.0
C2054 C 0.24965 0.7369 0.89209 0.0
C2055 C 0.26571 0.73732 0.88295 0.0
C2056 C 0.23565 0.74749 0.88679 0.0
C2057 C 0.23731 0.75848 0.87206 0.0
C2058 C 0.2536 0.75964 0.86345 0.0
C2059 C 0.26773 0.74915 0.86888 0.0
C2060 C 0.22164 0.7676 0.8649 0.0
C2061 C 0.22183 0.78597 0.86294 0.0
C2062 C 0.20633 0.75811 0.86033 0.0
C2063 C 0.2056 0.73864 0.86096 0.0
C2064 C 0.21716 0.72849 0.85072 0.0
C2065 C 0.21622 0.71014 0.85118 0.0
C2066 C 0.20385 0.7018 0.86191 0.0
C2067 C 0.19227 0.7118 0.87208 0.0
C2068 C 0.19305 0.73017 0.87156 0.0
C2069 C 0.16243 0.80798 0.81879 0.0
C2070 C 0.14574 0.80235 0.8244 0.0
C2071 C 0.17744 0.80354 0.82847 0.0
C2072 C 0.17592 0.79374 0.84407 0.0
C2073 C 0.1591 0.78953 0.85042 0.0
C2074 C 0.14416 0.79369 0.84063 0.0
C2075 C 0.19163 0.78552 0.85224 0.0
C2076 C 0.19155 0.76717 0.85423 0.0
C2077 C 0.20696 0.79509 0.85674 0.0
C2078 C 0.20763 0.81456 0.85558 0.0
C2079 C 0.19473 0.82493 0.86384 0.0
C2080 C 0.1954 0.84326 0.86263 0.0
C2081 C 0.20897 0.85139 0.85329 0.0
C2082 C 0.22193 0.84121 0.84517 0.0
C2083 C 0.22132 0.82287 0.84633 0.0
H2084 H 0.20947 0.86559 0.85238 0.0
H2085 H 0.20318 0.68759 0.86226 0.0
H2086 H 0.51903 0.99456 0.15322 0.0
H2087 H 0.50107 0.96977 0.14377 0.0
H2088 H 0.47038 0.00422 0.1108 0.0
H2089 H 0.48825 0.02931 0.12035 0.0
H2090 H 0.45021 0.9767 0.12686 0.0
H2091 H 0.50228 0.98426 0.09212 0.0
H2092 H 0.534 0.98869 0.08707 0.0
H2093 H 0.54527 0.93996 0.11329 0.0
H2094 H 0.51361 0.93538 0.11874 0.0
H2095 H 0.42804 0.90951 0.06252 0.0
H2096 H 0.43524 0.9359 0.07955 0.0
H2097 H 0.4696 0.90522 0.11263 0.0
H2098 H 0.46261 0.87892 0.09572 0.0
H2099 H 0.48647 0.93201 0.09609 0.0
H2100 H 0.43346 0.92398 0.12953 0.0
H2101 H 0.40159 0.91996 0.13383 0.0
H2102 H 0.39163 0.96956 0.10875 0.0
H2103 H 0.42346 0.97377 0.10406 0.0
C2104 C 0.50829 0.99698 0.14418 0.0
C2105 C 0.50526 0.01387 0.13729 0.0
C2106 C 0.498 0.98279 0.13884 0.0
C2107 C 0.4846 0.98515 0.1264 0.0
C2108 C 0.48069 0.00216 0.12041 0.0
C2109 C 0.49097 0.01644 0.12581 0.0
C2110 C 0.47624 0.96959 0.11825 0.0
C2111 C 0.45804 0.96698 0.11996 0.0
C2112 C 0.48654 0.95692 0.10935 0.0
C2113 C 0.50559 0.95957 0.10599 0.0
C2114 C 0.51153 0.97456 0.09693 0.0
C2115 C 0.5295 0.97709 0.09398 0.0
C2116 C 0.54165 0.96464 0.0999 0.0
C2117 C 0.53585 0.94961 0.10874 0.0
C2118 C 0.51789 0.94703 0.11175 0.0
C2119 C 0.43672 0.9083 0.07374 0.0
C2120 C 0.44499 0.89219 0.0776 0.0
C2121 C 0.4408 0.92338 0.08348 0.0
C2122 C 0.45306 0.92251 0.09725 0.0
C2123 C 0.46019 0.90618 0.10197 0.0
C2124 C 0.45618 0.89116 0.09227 0.0
C2125 C 0.46044 0.93875 0.10506 0.0
C2126 C 0.47855 0.94162 0.10307 0.0
C2127 C 0.44998 0.95162 0.1135 0.0
C2128 C 0.43084 0.9491 0.11627 0.0
C2129 C 0.42447 0.93395 0.12477 0.0
C2130 C 0.40641 0.93166 0.12732 0.0
C2131 C 0.39459 0.94447 0.12152 0.0
C2132 C 0.40081 0.95963 0.11321 0.0
C2133 C 0.41886 0.96199 0.11062 0.0
H2134 H 0.38061 0.94268 0.12351 0.0
H2135 H 0.55555 0.96662 0.09759 0.0
H2136 H 0.75002 0.23839 0.59203 0.0
H2137 H 0.77383 0.25697 0.60274 0.0
H2138 H 0.73995 0.27739 0.64336 0.0
H2139 H 0.71582 0.25892 0.63255 0.0
H2140 H 0.7651 0.30269 0.62979 0.0
H2141 H 0.76296 0.24443 0.65428 0.0
H2142 H 0.76062 0.21211 0.65295 0.0
H2143 H 0.80774 0.20969 0.62193 0.0
H2144 H 0.81021 0.24204 0.62286 0.0
H2145 H 0.83465 0.31814 0.6932 0.0
H2146 H 0.80785 0.31226 0.67633 0.0
H2147 H 0.83846 0.28464 0.63734 0.0
H2148 H 0.86513 0.29011 0.65427 0.0
H2149 H 0.81358 0.26431 0.65069 0.0
H2150 H 0.8165 0.32328 0.62792 0.0
H2151 H 0.81836 0.35559 0.62984 0.0
H2152 H 0.76988 0.35697 0.65876 0.0
H2153 H 0.76785 0.32464 0.65723 0.0
C2154 C 0.74747 0.24711 0.603 0.0
C2155 C 0.73114 0.24695 0.61165 0.0
C2156 C 0.76108 0.25777 0.60905 0.0
C2157 C 0.7587 0.26831 0.624 0.0
C2158 C 0.74201 0.26933 0.63181 0.0
C2159 C 0.72828 0.25871 0.62565 0.0
C2160 C 0.77423 0.27605 0.63279 0.0
C2161 C 0.77568 0.29437 0.63453 0.0
C2162 C 0.78799 0.26513 0.63888 0.0
C2163 C 0.78667 0.24566 0.6385 0.0
C2164 C 0.77275 0.23701 0.64707 0.0
C2165 C 0.7714 0.21869 0.6464 0.0
C2166 C 0.78399 0.20886 0.63732 0.0
C2167 C 0.79798 0.21733 0.62894 0.0
C2168 C 0.79937 0.23565 0.62954 0.0
C2169 C 0.83571 0.31126 0.68077 0.0
C2170 C 0.85194 0.30436 0.67516 0.0
C2171 C 0.82039 0.30794 0.67112 0.0
C2172 C 0.82115 0.29791 0.65562 0.0
C2173 C 0.83756 0.29229 0.64933 0.0
C2174 C 0.85279 0.29543 0.65902 0.0
C2175 C 0.80488 0.29109 0.64731 0.0
C2176 C 0.80316 0.27278 0.64586 0.0
C2177 C 0.79092 0.30207 0.64169 0.0
C2178 C 0.79212 0.32151 0.64261 0.0
C2179 C 0.80631 0.33046 0.63483 0.0
C2180 C 0.80738 0.34878 0.63582 0.0
C2181 C 0.79428 0.35833 0.64446 0.0
C2182 C 0.78004 0.34956 0.65209 0.0
C2183 C 0.77891 0.33124 0.65115 0.0
H2184 H 0.79513 0.37251 0.64521 0.0
H2185 H 0.78293 0.19468 0.63682 0.0
H2186 H 0.98458 0.46693 0.8763 0.0
H2187 H 0.96477 0.4897 0.88786 0.0
H2188 H 0.00215 0.52969 0.87313 0.0
H2189 H 0.02182 0.50728 0.86145 0.0
H2190 H 0.99125 0.53015 0.9092 0.0
H2191 H 0.96724 0.52645 0.85 0.0
H2192 H 0.95327 0.51099 0.82516 0.0
H2193 H 0.90891 0.49822 0.8577 0.0
H2194 H 0.92276 0.51341 0.88282 0.0
H2195 H 0.95854 0.61371 0.90751 0.0
H2196 H 0.96388 0.58546 0.89343 0.0
H2197 H 0.92736 0.56052 0.92885 0.0
H2198 H 0.92202 0.58886 0.94334 0.0
H2199 H 0.93323 0.54876 0.88572 0.0
H2200 H 0.95717 0.55132 0.94529 0.0
H2201 H 0.97081 0.56717 0.97008 0.0
H2202 H 0.01468 0.58111 0.93735 0.0
H2203 H 0.0011 0.56557 0.91227 0.0
C2204 C 0.98847 0.48059 0.87534 0.0
C2205 C 0.00483 0.48528 0.86804 0.0
C2206 C 0.97712 0.49355 0.88191 0.0
C2207 C 0.98207 0.51131 0.88137 0.0
C2208 C 0.99815 0.51602 0.87368 0.0
C2209 C 0.00935 0.50317 0.86698 0.0
C2210 C 0.97125 0.5251 0.88978 0.0
C2211 C 0.97851 0.5341 0.90412 0.0
C2212 C 0.95443 0.52995 0.88344 0.0
C2213 C 0.94614 0.52085 0.86834 0.0
C2214 C 0.9546 0.52018 0.85191 0.0
C2215 C 0.94668 0.51151 0.83777 0.0
C2216 C 0.93024 0.50357 0.83987 0.0
C2217 C 0.92166 0.50434 0.8561 0.0
C2218 C 0.92954 0.51299 0.87029 0.0
C2219 C 0.95121 0.60236 0.91203 0.0
C2220 C 0.94012 0.60347 0.92679 0.0
C2221 C 0.95421 0.58624 0.90387 0.0
C2222 C 0.9461 0.57097 0.91021 0.0
C2223 C 0.93366 0.57224 0.92376 0.0
C2224 C 0.93068 0.58843 0.93204 0.0
C2225 C 0.95341 0.5538 0.90491 0.0
C2226 C 0.94567 0.54435 0.89111 0.0
C2227 C 0.96971 0.54825 0.91187 0.0
C2228 C 0.97804 0.55746 0.92689 0.0
C2229 C 0.96964 0.55792 0.94335 0.0
C2230 C 0.97737 0.56681 0.95745 0.0
C2231 C 0.99358 0.57517 0.95529 0.0
C2232 C 0.00211 0.57464 0.93901 0.0
C2233 C 0.9944 0.56579 0.92484 0.0
H2234 H 0.99954 0.582 0.96625 0.0
H2235 H 0.92413 0.49687 0.8289 0.0
H2236 H 0.63821 0.70075 0.1492 0.0
H2237 H 0.66624 0.70224 0.13385 0.0
H2238 H 0.69109 0.67353 0.176 0.0
H2239 H 0.66297 0.67212 0.19162 0.0
H2240 H 0.70693 0.70411 0.1704 0.0
H2241 H 0.69052 0.65638 0.13424 0.0
H2242 H 0.67138 0.63833 0.11533 0.0
H2243 H 0.66907 0.68002 0.07733 0.0
H2244 H 0.68798 0.69845 0.09612 0.0
H2245 H 0.78399 0.73246 0.12744 0.0
H2246 H 0.76324 0.71013 0.13776 0.0
H2247 H 0.72287 0.73225 0.10463 0.0
H2248 H 0.74348 0.75434 0.09404 0.0
H2249 H 0.71955 0.69674 0.10683 0.0
H2250 H 0.72807 0.74619 0.14686 0.0
H2251 H 0.74592 0.76546 0.16588 0.0
H2252 H 0.76178 0.72085 0.19666 0.0
H2253 H 0.74417 0.70128 0.17765 0.0
C2254 C 0.64952 0.69434 0.15503 0.0
C2255 C 0.6484 0.68652 0.17174 0.0
C2256 C 0.66555 0.69508 0.14614 0.0
C2257 C 0.68079 0.68795 0.15374 0.0
C2258 C 0.67948 0.67907 0.16988 0.0
C2259 C 0.66339 0.67826 0.17877 0.0
C2260 C 0.69822 0.69233 0.14613 0.0
C2261 C 0.70996 0.70197 0.15662 0.0
C2262 C 0.70203 0.68986 0.12808 0.0
C2263 C 0.69066 0.67883 0.11665 0.0
C2264 C 0.68585 0.66176 0.12191 0.0
C2265 C 0.67504 0.65145 0.1112 0.0
C2266 C 0.669 0.65803 0.09514 0.0
C2267 C 0.67377 0.67493 0.08976 0.0
C2268 C 0.68457 0.68531 0.10043 0.0
C2269 C 0.77081 0.73233 0.12204 0.0
C2270 C 0.7653 0.74539 0.11015 0.0
C2271 C 0.75897 0.71955 0.12797 0.0
C2272 C 0.74143 0.71972 0.12219 0.0
C2273 C 0.73632 0.73188 0.1093 0.0
C2274 C 0.74813 0.7446 0.10334 0.0
C2275 C 0.72779 0.70893 0.131 0.0
C2276 C 0.71678 0.69824 0.12074 0.0
C2277 C 0.72451 0.71051 0.14926 0.0
C2278 C 0.73502 0.72226 0.16071 0.0
C2279 C 0.73547 0.74048 0.15761 0.0
C2280 C 0.74552 0.75146 0.16839 0.0
C2281 C 0.75503 0.74437 0.18243 0.0
C2282 C 0.75445 0.72631 0.18575 0.0
C2283 C 0.74444 0.71527 0.17498 0.0
H2284 H 0.76281 0.75289 0.19077 0.0
H2285 H 0.66063 0.65003 0.08687 0.0
H2286 H 0.46848 0.49251 0.36814 0.0
H2287 H 0.48752 0.46859 0.37802 0.0
H2288 H 0.53223 0.50341 0.37701 0.0
H2289 H 0.5132 0.52763 0.36737 0.0
H2290 H 0.53623 0.4652 0.36239 0.0
H2291 H 0.51946 0.49995 0.41343 0.0
H2292 H 0.49735 0.5156 0.43128 0.0
H2293 H 0.46856 0.46754 0.43826 0.0
H2294 H 0.49037 0.45166 0.4202 0.0
H2295 H 0.56662 0.40761 0.44335 0.0
H2296 H 0.56083 0.43561 0.42852 0.0
H2297 H 0.53261 0.40825 0.38766 0.0
H2298 H 0.53811 0.38028 0.40249 0.0
H2299 H 0.5256 0.4464 0.42401 0.0
H2300 H 0.53661 0.43343 0.34968 0.0
H2301 H 0.55717 0.41726 0.33051 0.0
H2302 H 0.59743 0.42115 0.3699 0.0
H2303 H 0.5772 0.43756 0.3892 0.0
C2304 C 0.4824 0.49505 0.36975 0.0
C2305 C 0.48932 0.51198 0.36709 0.0
C2306 C 0.49324 0.48137 0.37538 0.0
C2307 C 0.51121 0.48432 0.37823 0.0
C2308 C 0.51838 0.50094 0.37479 0.0
C2309 C 0.50748 0.51474 0.3694 0.0
C2310 C 0.52201 0.47037 0.3863 0.0
C2311 C 0.53409 0.46112 0.37589 0.0
C2312 C 0.51924 0.46529 0.40395 0.0
C2313 C 0.50649 0.47466 0.41538 0.0
C2314 C 0.50837 0.49274 0.4187 0.0
C2315 C 0.4959 0.50165 0.42886 0.0
C2316 C 0.48154 0.49258 0.43587 0.0
C2317 C 0.47968 0.47455 0.43282 0.0
C2318 C 0.49211 0.46559 0.42265 0.0
C2319 C 0.55963 0.4075 0.43094 0.0
C2320 C 0.55267 0.39177 0.42415 0.0
C2321 C 0.55629 0.42351 0.42253 0.0
C2322 C 0.54628 0.42397 0.40704 0.0
C2323 C 0.54048 0.40815 0.39954 0.0
C2324 C 0.54358 0.39219 0.40806 0.0
C2325 C 0.53973 0.4409 0.40004 0.0
C2326 C 0.52818 0.45065 0.41063 0.0
C2327 C 0.54298 0.44633 0.38254 0.0
C2328 C 0.55532 0.43663 0.37094 0.0
C2329 C 0.54987 0.43092 0.35422 0.0
C2330 C 0.56147 0.42169 0.34334 0.0
C2331 C 0.57858 0.41814 0.349 0.0
C2332 C 0.58415 0.42385 0.36555 0.0
C2333 C 0.57261 0.43309 0.37648 0.0
H2334 H 0.58753 0.41099 0.34056 0.0
H2335 H 0.47186 0.49951 0.44367 0.0
H2336 H 0.41845 0.23804 0.22943 0.0
H2337 H 0.41292 0.26234 0.20897 0.0
H2338 H 0.35703 0.2533 0.21383 0.0
H2339 H 0.36269 0.22814 0.23269 0.0
H2340 H 0.36099 0.26757 0.18508 0.0
H2341 H 0.38407 0.28166 0.24342 0.0
H2342 H 0.40646 0.28108 0.26691 0.0
H2343 H 0.44414 0.30443 0.2319 0.0
H2344 H 0.42198 0.30496 0.20815 0.0
H2345 H 0.34065 0.3583 0.22203 0.0
H2346 H 0.35886 0.33224 0.22152 0.0
H2347 H 0.35343 0.32923 0.16505 0.0
H2348 H 0.33392 0.35494 0.1657 0.0
H2349 H 0.38729 0.32159 0.21037 0.0
H2350 H 0.35555 0.28649 0.15213 0.0
H2351 H 0.32816 0.28663 0.13468 0.0
H2352 H 0.29933 0.30511 0.17959 0.0
H2353 H 0.32652 0.30492 0.19731 0.0
C2354 C 0.40506 0.2409 0.22549 0.0
C2355 C 0.39096 0.23142 0.2327 0.0
C2356 C 0.40188 0.25487 0.21395 0.0
C2357 C 0.38452 0.26019 0.21037 0.0
C2358 C 0.37056 0.24964 0.21637 0.0
C2359 C 0.37378 0.23524 0.22725 0.0
C2360 C 0.38054 0.27784 0.20285 0.0
C2361 C 0.3669 0.27939 0.19048 0.0
C2362 C 0.38819 0.29339 0.20977 0.0
C2363 C 0.40149 0.29311 0.22399 0.0
C2364 C 0.39717 0.28659 0.24074 0.0
C2365 C 0.4098 0.28627 0.25408 0.0
C2366 C 0.42674 0.29265 0.25088 0.0
C2367 C 0.43104 0.29943 0.23434 0.0
C2368 C 0.41846 0.29973 0.22093 0.0
C2369 C 0.34347 0.35228 0.20943 0.0
C2370 C 0.33567 0.35856 0.19393 0.0
C2371 C 0.35401 0.33734 0.20913 0.0
C2372 C 0.35739 0.32848 0.19327 0.0
C2373 C 0.35069 0.33551 0.17752 0.0
C2374 C 0.33964 0.35027 0.17788 0.0
C2375 C 0.36666 0.31124 0.19393 0.0
C2376 C 0.38163 0.30981 0.20463 0.0
C2377 C 0.35946 0.29578 0.18642 0.0
C2378 C 0.34307 0.29594 0.17592 0.0
C2379 C 0.34335 0.29058 0.15825 0.0
C2380 C 0.32787 0.29066 0.14832 0.0
C2381 C 0.31203 0.29596 0.156 0.0
C2382 C 0.31161 0.30109 0.17364 0.0
C2383 C 0.32705 0.30101 0.18362 0.0
H2384 H 0.30006 0.29602 0.14829 0.0
H2385 H 0.4365 0.2924 0.26123 0.0
H2386 H 0.84626 0.13818 0.79415 0.0
H2387 H 0.86227 0.16579 0.79255 0.0
H2388 H 0.82435 0.19005 0.8271 0.0
H2389 H 0.808 0.16234 0.82857 0.0
H2390 H 0.82713 0.20771 0.7974 0.0
H2391 H 0.86799 0.18721 0.83931 0.0
H2392 H 0.88815 0.16644 0.85391 0.0
H2393 H 0.9209 0.1654 0.80793 0.0
H2394 H 0.90082 0.18596 0.79293 0.0
H2395 H 0.87034 0.28476 0.76819 0.0
H2396 H 0.86122 0.26308 0.79018 0.0
H2397 H 0.88956 0.2227 0.76218 0.0
H2398 H 0.89895 0.24421 0.7404 0.0
H2399 H 0.8916 0.21761 0.79747 0.0
H2400 H 0.84607 0.23049 0.75395 0.0
H2401 H 0.82554 0.25016 0.73831 0.0
H2402 H 0.80146 0.26446 0.78735 0.0
H2403 H 0.82201 0.24501 0.80329 0.0
C2404 C 0.84152 0.14924 0.80178 0.0
C2405 C 0.82571 0.14812 0.81129 0.0
C2406 C 0.85081 0.16503 0.80098 0.0
C2407 C 0.84457 0.18002 0.80976 0.0
C2408 C 0.82943 0.17863 0.82025 0.0
C2409 C 0.82012 0.16278 0.8211 0.0
C2410 C 0.85227 0.19745 0.80556 0.0
C2411 C 0.84119 0.21011 0.79798 0.0
C2412 C 0.87063 0.20049 0.80601 0.0
C2413 C 0.88283 0.18813 0.81497 0.0
C2414 C 0.87943 0.18248 0.83225 0.0
C2415 C 0.89086 0.17075 0.84061 0.0
C2416 C 0.90579 0.1646 0.83185 0.0
C2417 C 0.90933 0.17019 0.81471 0.0
C2418 C 0.89795 0.18192 0.80628 0.0
C2419 C 0.87489 0.27133 0.76689 0.0
C2420 C 0.88514 0.26616 0.75237 0.0
C2421 C 0.86967 0.25896 0.77948 0.0
C2422 C 0.87451 0.24123 0.77767 0.0
C2423 C 0.88567 0.23631 0.76384 0.0
C2424 C 0.89093 0.24863 0.75131 0.0
C2425 C 0.86649 0.22737 0.7888 0.0
C2426 C 0.87751 0.21543 0.79757 0.0
C2427 C 0.84806 0.22488 0.78938 0.0
C2428 C 0.8357 0.23651 0.77981 0.0
C2429 C 0.83647 0.23793 0.76139 0.0
C2430 C 0.82483 0.24902 0.75248 0.0
C2431 C 0.81225 0.2586 0.76183 0.0
C2432 C 0.81125 0.25707 0.78012 0.0
C2433 C 0.82289 0.24602 0.7891 0.0
H2434 H 0.80324 0.26717 0.75491 0.0
H2435 H 0.91461 0.15552 0.83834 0.0
H2436 H 0.00057 0.65698 0.99311 0.0
H2437 H 0.02494 0.64689 0.01141 0.0
H2438 H 0.99394 0.60257 0.02852 0.0
H2439 H 0.96924 0.61292 0.01064 0.0
H2440 H 0.01585 0.61421 0.05473 0.0
H2441 H 0.02047 0.59922 0.99303 0.0
H2442 H 0.02129 0.60587 0.96127 0.0
H2443 H 0.06649 0.63874 0.96896 0.0
H2444 H 0.06574 0.63263 0.00082 0.0
H2445 H 0.08453 0.55062 0.06737 0.0
H2446 H 0.05845 0.56855 0.06157 0.0
H2447 H 0.09149 0.61032 0.04196 0.0
H2448 H 0.11749 0.59228 0.04723 0.0
H2449 H 0.06851 0.60152 0.01838 0.0
H2450 H 0.06567 0.61481 0.07972 0.0
H2451 H 0.06498 0.60849 0.11151 0.0
H2452 H 0.01737 0.57888 0.10492 0.0
H2453 H 0.01789 0.58482 0.07304 0.0
C2454 C 0.9988 0.64529 0.00106 0.0
C2455 C 0.9831 0.63558 0.00024 0.0
C2456 C 0.01274 0.63954 0.01151 0.0
C2457 C 0.01139 0.62376 0.02099 0.0
C2458 C 0.99528 0.61474 0.02125 0.0
C2459 C 0.9812 0.62065 0.01099 0.0
C2460 C 0.02728 0.61566 0.02887 0.0
C2461 C 0.02736 0.61132 0.04682 0.0
C2462 C 0.04238 0.61214 0.01855 0.0
C2463 C 0.04294 0.61561 0.99934 0.0
C2464 C 0.03051 0.60796 0.98797 0.0
C2465 C 0.03097 0.61162 0.96995 0.0
C2466 C 0.04392 0.62271 0.96312 0.0
C2467 C 0.05646 0.63017 0.97428 0.0
C2468 C 0.05602 0.62662 0.99231 0.0
C2469 C 0.08624 0.56382 0.0623 0.0
C2470 C 0.10301 0.56997 0.05754 0.0
C2471 C 0.07132 0.57409 0.05902 0.0
C2472 C 0.07299 0.59078 0.05125 0.0
C2473 C 0.08986 0.59744 0.04783 0.0
C2474 C 0.10471 0.58712 0.05087 0.0
C2475 C 0.05732 0.60022 0.0444 0.0
C2476 C 0.05717 0.60462 0.02648 0.0
C2477 C 0.04226 0.60375 0.05478 0.0
C2478 C 0.04191 0.60014 0.07395 0.0
C2479 C 0.05513 0.60683 0.08502 0.0
C2480 C 0.05475 0.60334 0.10307 0.0
C2481 C 0.04116 0.59326 0.11023 0.0
C2482 C 0.02789 0.58668 0.09936 0.0
C2483 C 0.02821 0.59012 0.0813 0.0
H2484 H 0.0409 0.59057 0.1242 0.0
H2485 H 0.04424 0.62551 0.94917 0.0
H2486 H 0.65947 0.86815 0.28031 0.0
H2487 H 0.64209 0.84192 0.27453 0.0
H2488 H 0.66577 0.81609 0.31914 0.0
H2489 H 0.6835 0.84234 0.32493 0.0
H2490 H 0.6692 0.79697 0.28998 0.0
H2491 H 0.62154 0.82513 0.31883 0.0
H2492 H 0.60115 0.84928 0.32604 0.0
H2493 H 0.58205 0.84944 0.27291 0.0
H2494 H 0.60249 0.82545 0.2653 0.0
H2495 H 0.62392 0.72075 0.26126 0.0
H2496 H 0.63205 0.74485 0.28096 0.0
H2497 H 0.61396 0.78246 0.24252 0.0
H2498 H 0.60547 0.75854 0.22296 0.0
H2499 H 0.6058 0.79323 0.2751 0.0
H2500 H 0.65741 0.77049 0.24518 0.0
H2501 H 0.67859 0.74742 0.23672 0.0
H2502 H 0.69074 0.73825 0.2911 0.0
H2503 H 0.66945 0.76114 0.29988 0.0
C2504 C 0.66075 0.85704 0.28915 0.0
C2505 C 0.67302 0.85728 0.30298 0.0
C2506 C 0.65067 0.84207 0.28589 0.0
C2507 C 0.65256 0.82705 0.29645 0.0
C2508 C 0.66409 0.82756 0.31086 0.0
C2509 C 0.67418 0.84259 0.31417 0.0
C2510 C 0.64421 0.8103 0.29095 0.0
C2511 C 0.65524 0.79598 0.28722 0.0
C2512 C 0.62607 0.80915 0.28695 0.0
C2513 C 0.61363 0.82352 0.29148 0.0
C2514 C 0.61307 0.83038 0.30865 0.0
C2515 C 0.60149 0.84403 0.31281 0.0
C2516 C 0.59032 0.8509 0.29994 0.0
C2517 C 0.5907 0.8441 0.28288 0.0
C2518 C 0.60226 0.83044 0.27864 0.0
C2519 C 0.62148 0.73415 0.25708 0.0
C2520 C 0.61424 0.73772 0.24043 0.0
C2521 C 0.62614 0.7479 0.26836 0.0
C2522 C 0.62383 0.76546 0.26311 0.0
C2523 C 0.61586 0.76902 0.24686 0.0
C2524 C 0.6111 0.7553 0.23563 0.0
C2525 C 0.6309 0.78019 0.27376 0.0
C2526 C 0.61966 0.79409 0.27838 0.0
C2527 C 0.64889 0.78107 0.27846 0.0
C2528 C 0.66169 0.76734 0.27319 0.0
C2529 C 0.6645 0.76345 0.25533 0.0
C2530 C 0.67654 0.75043 0.25048 0.0
C2531 C 0.68596 0.74133 0.26337 0.0
C2532 C 0.6834 0.74528 0.28113 0.0
C2533 C 0.67136 0.75827 0.28606 0.0
H2534 H 0.69528 0.73126 0.25958 0.0
H2535 H 0.58137 0.86148 0.30319 0.0
H2536 H 0.38222 0.40208 0.54875 0.0
H2537 H 0.40719 0.38289 0.54268 0.0
H2538 H 0.44203 0.42019 0.56744 0.0
H2539 H 0.41697 0.43929 0.57395 0.0
H2540 H 0.43144 0.39397 0.52059 0.0
H2541 H 0.48129 0.39945 0.57792 0.0
H2542 H 0.48131 0.4013 0.6103 0.0
H2543 H 0.43158 0.37463 0.61216 0.0
H2544 H 0.43138 0.3724 0.57982 0.0
H2545 H 0.52906 0.37654 0.51141 0.0
H2546 H 0.50533 0.38616 0.53095 0.0
H2547 H 0.47127 0.34634 0.50929 0.0
H2548 H 0.4947 0.3369 0.48951 0.0
H2549 H 0.48181 0.37245 0.55604 0.0
H2550 H 0.43321 0.36571 0.49814 0.0
H2551 H 0.43366 0.36503 0.46569 0.0
H2552 H 0.48079 0.39614 0.4654 0.0
H2553 H 0.48046 0.39721 0.49781 0.0
C2554 C 0.39512 0.40596 0.55338 0.0
C2555 C 0.39768 0.4223 0.5616 0.0
C2556 C 0.40938 0.39497 0.5499 0.0
C2557 C 0.4265 0.40015 0.55447 0.0
C2558 C 0.42893 0.41581 0.56395 0.0
C2559 C 0.41459 0.42676 0.56762 0.0
C2560 C 0.44175 0.3907 0.5468 0.0
C2561 C 0.44223 0.38892 0.52844 0.0
C2562 C 0.45621 0.38478 0.55694 0.0
C2563 C 0.45625 0.38592 0.57641 0.0
C2564 C 0.47039 0.39392 0.58524 0.0
C2565 C 0.47043 0.39505 0.60359 0.0
C2566 C 0.45643 0.38814 0.61328 0.0
C2567 C 0.44238 0.38004 0.60464 0.0
C2568 C 0.44228 0.37888 0.58629 0.0
C2569 C 0.51665 0.36956 0.5111 0.0
C2570 C 0.51362 0.3562 0.49867 0.0
C2571 C 0.50314 0.37503 0.52234 0.0
C2572 C 0.48648 0.36716 0.52132 0.0
C2573 C 0.48397 0.35275 0.51007 0.0
C2574 C 0.49736 0.34741 0.49875 0.0
C2575 C 0.47114 0.37547 0.52998 0.0
C2576 C 0.4708 0.37726 0.54836 0.0
C2577 C 0.45677 0.38162 0.51991 0.0
C2578 C 0.45691 0.38135 0.50039 0.0
C2579 C 0.44362 0.37245 0.49113 0.0
C2580 C 0.44386 0.372 0.47275 0.0
C2581 C 0.45728 0.38048 0.46349 0.0
C2582 C 0.47044 0.38951 0.47259 0.0
C2583 C 0.47024 0.39004 0.49096 0.0
H2584 H 0.45746 0.38009 0.44926 0.0
H2585 H 0.45648 0.38903 0.62748 0.0
H2586 H 0.15054 0.64133 0.69823 0.0
H2587 H 0.13531 0.66938 0.69994 0.0
H2588 H 0.17681 0.69398 0.67007 0.0
H2589 H 0.19235 0.66583 0.6685 0.0
H2590 H 0.17249 0.70978 0.70057 0.0
H2591 H 0.13415 0.69406 0.65448 0.0
H2592 H 0.11431 0.67531 0.63702 0.0
H2593 H 0.07806 0.67287 0.68024 0.0
H2594 H 0.09779 0.69139 0.69808 0.0
H2595 H 0.13067 0.78699 0.7311 0.0
H2596 H 0.14028 0.76616 0.70852 0.0
H2597 H 0.10854 0.72563 0.73234 0.0
H2598 H 0.0987 0.74631 0.75474 0.0
H2599 H 0.10871 0.72278 0.69644 0.0
H2600 H 0.15122 0.73064 0.74394 0.0
H2601 H 0.17132 0.7482 0.76237 0.0
H2602 H 0.19984 0.76432 0.71637 0.0
H2603 H 0.17974 0.74701 0.69765 0.0
C2604 C 0.15623 0.65257 0.69159 0.0
C2605 C 0.1728 0.6514 0.68347 0.0
C2606 C 0.1474 0.66862 0.69244 0.0
C2607 C 0.15489 0.68382 0.68511 0.0
C2608 C 0.17078 0.68241 0.6758 0.0
C2609 C 0.17962 0.6663 0.67489 0.0
C2610 C 0.14763 0.7013 0.68989 0.0
C2611 C 0.15864 0.71289 0.69912 0.0
C2612 C 0.12951 0.70524 0.68831 0.0
C2613 C 0.11751 0.6941 0.67765 0.0
C2614 C 0.12201 0.68944 0.66032 0.0
C2615 C 0.11076 0.67886 0.65034 0.0
C2616 C 0.09494 0.67289 0.65752 0.0
C2617 C 0.09031 0.67752 0.67469 0.0
C2618 C 0.10151 0.68809 0.68473 0.0
C2619 C 0.12547 0.77374 0.73134 0.0
C2620 C 0.11413 0.76824 0.7449 0.0
C2621 C 0.13097 0.76186 0.71842 0.0
C2622 C 0.12529 0.7443 0.71889 0.0
C2623 C 0.11308 0.73912 0.73171 0.0
C2624 C 0.10757 0.75095 0.7446 0.0
C2625 C 0.13349 0.73073 0.70755 0.0
C2626 C 0.12266 0.71992 0.69723 0.0
C2627 C 0.15178 0.72738 0.70816 0.0
C2628 C 0.16386 0.73775 0.7194 0.0
C2629 C 0.1617 0.73804 0.73776 0.0
C2630 C 0.1731 0.74793 0.74826 0.0
C2631 C 0.18681 0.75743 0.74054 0.0
C2632 C 0.18919 0.75701 0.72232 0.0
C2633 C 0.1778 0.74716 0.71176 0.0
H2634 H 0.19563 0.76507 0.74869 0.0
H2635 H 0.08625 0.6647 0.64978 0.0
H2636 H 0.49903 0.83984 0.00655 0.0
H2637 H 0.52295 0.84964 0.98756 0.0
H2638 H 0.49146 0.89347 0.97015 0.0
H2639 H 0.46724 0.88357 0.98894 0.0
H2640 H 0.51436 0.88035 0.9436 0.0
H2641 H 0.51657 0.89984 0.00396 0.0
H2642 H 0.51596 0.89567 0.03612 0.0
H2643 H 0.56128 0.86213 0.0329 0.0
H2644 H 0.56198 0.8659 0.00066 0.0
H2645 H 0.58228 0.94488 0.93061 0.0
H2646 H 0.55639 0.92653 0.93585 0.0
H2647 H 0.58939 0.88649 0.95886 0.0
H2648 H 0.61517 0.905 0.95418 0.0
H2649 H 0.56537 0.89625 0.98104 0.0
H2650 H 0.56508 0.87965 0.92033 0.0
H2651 H 0.56538 0.88439 0.88826 0.0
H2652 H 0.51693 0.91317 0.89174 0.0
H2653 H 0.51644 0.90882 0.92388 0.0
C2654 C 0.49701 0.85134 0.99839 0.0
C2655 C 0.48137 0.86113 0.99951 0.0
C2656 C 0.51068 0.85688 0.9875 0.0
C2657 C 0.50907 0.87245 0.97772 0.0
C2658 C 0.49295 0.88143 0.97763 0.0
C2659 C 0.47916 0.8758 0.98844 0.0
C2660 C 0.5249 0.88062 0.96987 0.0
C2661 C 0.52553 0.88394 0.95172 0.0
C2662 C 0.53948 0.88511 0.9805 0.0
C2663 C 0.53921 0.883 -0.0001 0.0
C2664 C 0.52632 0.89148 0.0101 0.0
C2665 C 0.52597 0.8892 0.02834 0.0
C2666 C 0.53855 0.8786 0.03654 0.0
C2667 C 0.55153 0.87031 0.02653 0.0
C2668 C 0.55192 0.87252 0.00827 0.0
C2669 C 0.58406 0.93194 0.9363 0.0
C2670 C 0.6007 0.92645 0.94221 0.0
C2671 C 0.56924 0.92142 0.93924 0.0
C2672 C 0.57092 0.90514 0.94783 0.0
C2673 C 0.58776 0.89905 0.95233 0.0
C2674 C 0.60249 0.90964 0.94964 0.0
C2675 C 0.55517 0.89577 0.95458 0.0
C2676 C 0.55443 0.89243 0.97271 0.0
C2677 C 0.54056 0.89139 0.94388 0.0
C2678 C 0.54081 0.89403 0.92455 0.0
C2679 C 0.55456 0.88712 0.91429 0.0
C2680 C 0.55475 0.88971 0.89609 0.0
C2681 C 0.54121 0.89911 0.88797 0.0
C2682 C 0.52742 0.90591 0.89804 0.0
C2683 C 0.52717 0.90336 0.91625 0.0
H2684 H 0.54138 0.9011 0.87388 0.0
H2685 H 0.53825 0.87685 0.05067 0.0
H2686 H 0.89202 0.09372 0.45723 0.0
H2687 H 0.9201 0.10862 0.46075 0.0
H2688 H 0.94546 0.06874 0.42936 0.0
H2689 H 0.91726 0.05356 0.4259 0.0
H2690 H 0.96084 0.07216 0.4607 0.0
H2691 H 0.94476 0.11154 0.41522 0.0
H2692 H 0.92562 0.13165 0.39848 0.0
H2693 H 0.92299 0.16655 0.44277 0.0
H2694 H 0.94189 0.14654 0.45989 0.0
H2695 H 0.03889 0.11409 0.48959 0.0
H2696 H 0.01722 0.10415 0.46794 0.0
H2697 H 0.97751 0.13602 0.49294 0.0
H2698 H 0.99901 0.14616 0.51442 0.0
H2699 H 0.97364 0.13603 0.45731 0.0
H2700 H 0.98223 0.09328 0.50418 0.0
H2701 H -0.0001 0.07301 0.52233 0.0
H2702 H 0.01529 0.04455 0.47605 0.0
H2703 H 0.99782 0.06479 0.45761 0.0
C2704 C 0.90347 0.08831 0.4507 0.0
C2705 C 0.90243 0.07234 0.44145 0.0
C2706 C 0.91953 0.09694 0.45262 0.0
C2707 C 0.9349 0.08984 0.44526 0.0
C2708 C 0.93374 0.07446 0.4351 0.0
C2709 C 0.91761 0.06583 0.4331 0.0
C2710 C 0.95224 0.09714 0.45041 0.0
C2711 C 0.9639 0.08604 0.45945 0.0
C2712 C 0.95606 0.11532 0.44913 0.0
C2713 C 0.94472 0.12747 0.43887 0.0
C2714 C 0.94001 0.12344 0.42144 0.0
C2715 C 0.92921 0.13484 0.41187 0.0
C2716 C 0.92308 0.15036 0.41956 0.0
C2717 C 0.92776 0.15453 0.43683 0.0
C2718 C 0.93855 0.14318 0.44646 0.0
C2719 C 0.02562 0.11922 0.49029 0.0
C2720 C 0.02062 0.13074 0.50388 0.0
C2721 C 0.01326 0.11351 0.47792 0.0
C2722 C 0.99572 0.11919 0.47897 0.0
C2723 C 0.99098 0.13148 0.49187 0.0
C2724 C 0.00328 0.13718 0.50422 0.0
C2725 C 0.98181 0.11112 0.46796 0.0
C2726 C 0.97082 0.12207 0.45796 0.0
C2727 C 0.97846 0.09282 0.46846 0.0
C2728 C 0.98893 0.08066 0.47951 0.0
C2729 C 0.9895 0.08278 0.49788 0.0
C2730 C 0.99946 0.07129 0.50821 0.0
C2731 C 0.00878 0.05755 0.50034 0.0
C2732 C 0.00811 0.05523 0.48212 0.0
C2733 C 0.99818 0.0667 0.47172 0.0
H2734 H 0.01648 0.04867 0.50837 0.0
H2735 H 0.91472 0.15916 0.41213 0.0
loop_
_geom_bond_atom_site_label_1
_geom_bond_atom_site_label_2
_geom_bond_distance
_geom_bond_site_symmetry_2
_ccdc_geom_bond_type
O0 Cd1 2.223 . S
O0 C8 1.315 . S
Cd1 O0 2.223 . S
Cd1 O4 2.297 . S
Cd1 O5 2.439 . S
Cd1 O11 2.240 . S
Cd2 O3 2.240 . S
Cd2 O10 2.223 . S
Cd2 O12 2.297 . S
Cd2 O13 2.439 . S
O3 Cd2 2.240 . S
O3 C8 1.279 . S
O4 Cd1 2.297 . S
O4 C6 1.247 . S
O5 Cd1 2.439 . S
O5 C6 1.208 . S
C6 O4 1.247 . S
C6 O5 1.208 . S
C7 O12 1.247 . S
C7 O13 1.208 . S
C8 O0 1.315 . S
C8 O3 1.279 . S
C9 O10 1.315 . S
C9 O11 1.279 . S
O10 Cd2 2.223 . S
O10 C9 1.315 . S
O11 Cd1 2.240 . S
O11 C9 1.279 . S
O12 Cd2 2.297 . S
O12 C7 1.247 . S
O13 Cd2 2.439 . S
O13 C7 1.208 . S
O14 Cd15 2.223 . S
O14 C22 1.315 . S
Cd15 O14 2.223 . S
Cd15 O18 2.297 . S
Cd15 O19 2.439 . S
Cd15 O25 2.240 . S
Cd16 O17 2.240 . S
Cd16 O24 2.223 . S
Cd16 O26 2.297 . S
Cd16 O27 2.439 . S
O17 Cd16 2.240 . S
O17 C22 1.279 . S
O18 Cd15 2.297 . S
O18 C20 1.247 . S
O19 Cd15 2.439 . S
O19 C20 1.208 . S
C20 O18 1.247 . S
C20 O19 1.208 . S
C21 O26 1.247 . S
C21 O27 1.208 . S
C22 O14 1.315 . S
C22 O17 1.279 . S
C23 O24 1.315 . S
C23 O25 1.279 . S
O24 Cd16 2.223 . S
O24 C23 1.315 . S
O25 Cd15 2.240 . S
O25 C23 1.279 . S
O26 Cd16 2.297 . S
O26 C21 1.247 . S
O27 Cd16 2.439 . S
O27 C21 1.208 . S
O28 Cd29 2.223 . S
O28 C36 1.315 . S
Cd29 O28 2.223 . S
Cd29 O32 2.297 . S
Cd29 O33 2.439 . S
Cd29 O39 2.240 . S
Cd30 O31 2.240 . S
Cd30 O38 2.223 . S
Cd30 O40 2.297 . S
Cd30 O41 2.439 . S
O31 Cd30 2.240 . S
O31 C36 1.279 . S
O32 Cd29 2.297 . S
O32 C34 1.247 . S
O33 Cd29 2.439 . S
O33 C34 1.208 . S
C34 O32 1.247 . S
C34 O33 1.208 . S
C35 O40 1.247 . S
C35 O41 1.208 . S
C36 O28 1.315 . S
C36 O31 1.279 . S
C37 O38 1.315 . S
C37 O39 1.279 . S
O38 Cd30 2.223 . S
O38 C37 1.315 . S
O39 Cd29 2.240 . S
O39 C37 1.279 . S
O40 Cd30 2.297 . S
O40 C35 1.247 . S
O41 Cd30 2.439 . S
O41 C35 1.208 . S
O42 Cd43 2.223 . S
O42 C50 1.315 . S
Cd43 O42 2.223 . S
Cd43 O46 2.297 . S
Cd43 O47 2.439 . S
Cd43 O53 2.240 . S
Cd44 O45 2.240 . S
Cd44 O52 2.223 . S
Cd44 O54 2.297 . S
Cd44 O55 2.439 . S
O45 Cd44 2.240 . S
O45 C50 1.279 . S
O46 Cd43 2.297 . S
O46 C48 1.247 . S
O47 Cd43 2.439 . S
O47 C48 1.208 . S
C48 O46 1.247 . S
C48 O47 1.208 . S
C49 O54 1.247 . S
C49 O55 1.208 . S
C50 O42 1.315 . S
C50 O45 1.279 . S
C51 O52 1.315 . S
C51 O53 1.279 . S
O52 Cd44 2.223 . S
O52 C51 1.315 . S
O53 Cd43 2.240 . S
O53 C51 1.279 . S
O54 Cd44 2.297 . S
O54 C49 1.247 . S
O55 Cd44 2.439 . S
O55 C49 1.208 . S
O56 Cd57 2.223 . S
O56 C64 1.315 . S
Cd57 O56 2.223 . S
Cd57 O60 2.297 . S
Cd57 O61 2.439 . S
Cd57 O67 2.240 . S
Cd58 O59 2.240 . S
Cd58 O66 2.223 . S
Cd58 O68 2.297 . S
Cd58 O69 2.439 . S
O59 Cd58 2.240 . S
O59 C64 1.279 . S
O60 Cd57 2.297 . S
O60 C62 1.247 . S
O61 Cd57 2.439 . S
O61 C62 1.208 . S
C62 O60 1.247 . S
C62 O61 1.208 . S
C63 O68 1.247 . S
C63 O69 1.208 . S
C64 O56 1.315 . S
C64 O59 1.279 . S
C65 O66 1.315 . S
C65 O67 1.279 . S
O66 Cd58 2.223 . S
O66 C65 1.315 . S
O67 Cd57 2.240 . S
O67 C65 1.279 . S
O68 Cd58 2.297 . S
O68 C63 1.247 . S
O69 Cd58 2.439 . S
O69 C63 1.208 . S
O70 Cd71 2.223 . S
O70 C78 1.315 . S
Cd71 O70 2.223 . S
Cd71 O74 2.297 . S
Cd71 O75 2.439 . S
Cd71 O81 2.240 . S
Cd72 O73 2.240 . S
Cd72 O80 2.223 . S
Cd72 O82 2.297 . S
Cd72 O83 2.439 . S
O73 Cd72 2.240 . S
O73 C78 1.279 . S
O74 Cd71 2.297 . S
O74 C76 1.247 . S
O75 Cd71 2.439 . S
O75 C76 1.208 . S
C76 O74 1.247 . S
C76 O75 1.208 . S
C77 O82 1.247 . S
C77 O83 1.208 . S
C78 O70 1.315 . S
C78 O73 1.279 . S
C79 O80 1.315 . S
C79 O81 1.279 . S
O80 Cd72 2.223 . S
O80 C79 1.315 . S
O81 Cd71 2.240 . S
O81 C79 1.279 . S
O82 Cd72 2.297 . S
O82 C77 1.247 . S
O83 Cd72 2.439 . S
O83 C77 1.208 . S
O84 Cd85 2.223 . S
O84 C92 1.315 . S
Cd85 O84 2.223 . S
Cd85 O88 2.297 . S
Cd85 O89 2.439 . S
Cd85 O95 2.240 . S
Cd86 O87 2.240 . S
Cd86 O94 2.223 . S
Cd86 O96 2.297 . S
Cd86 O97 2.439 . S
O87 Cd86 2.240 . S
O87 C92 1.279 . S
O88 Cd85 2.297 . S
O88 C90 1.247 . S
O89 Cd85 2.439 . S
O89 C90 1.208 . S
C90 O88 1.247 . S
C90 O89 1.208 . S
C91 O96 1.247 . S
C91 O97 1.208 . S
C92 O84 1.315 . S
C92 O87 1.279 . S
C93 O94 1.315 . S
C93 O95 1.279 . S
O94 Cd86 2.223 . S
O94 C93 1.315 . S
O95 Cd85 2.240 . S
O95 C93 1.279 . S
O96 Cd86 2.297 . S
O96 C91 1.247 . S
O97 Cd86 2.439 . S
O97 C91 1.208 . S
O98 Cd99 2.223 . S
O98 C106 1.315 . S
Cd99 O98 2.223 . S
Cd99 O102 2.297 . S
Cd99 O103 2.439 . S
Cd99 O109 2.240 . S
Cd100 O101 2.240 . S
Cd100 O108 2.223 . S
Cd100 O110 2.297 . S
Cd100 O111 2.439 . S
O101 Cd100 2.240 . S
O101 C106 1.279 . S
O102 Cd99 2.297 . S
O102 C104 1.247 . S
O103 Cd99 2.439 . S
O103 C104 1.208 . S
C104 O102 1.247 . S
C104 O103 1.208 . S
C105 O110 1.247 . S
C105 O111 1.208 . S
C106 O98 1.315 . S
C106 O101 1.279 . S
C107 O108 1.315 . S
C107 O109 1.279 . S
O108 Cd100 2.223 . S
O108 C107 1.315 . S
O109 Cd99 2.240 . S
O109 C107 1.279 . S
O110 Cd100 2.297 . S
O110 C105 1.247 . S
O111 Cd100 2.439 . S
O111 C105 1.208 . S
O112 Cd113 2.223 . S
O112 C120 1.315 . S
Cd113 O112 2.223 . S
Cd113 O116 2.297 . S
Cd113 O117 2.439 . S
Cd113 O123 2.240 . S
Cd114 O115 2.240 . S
Cd114 O122 2.223 . S
Cd114 O124 2.297 . S
Cd114 O125 2.439 . S
O115 Cd114 2.240 . S
O115 C120 1.279 . S
O116 Cd113 2.297 . S
O116 C118 1.247 . S
O117 Cd113 2.439 . S
O117 C118 1.208 . S
C118 O116 1.247 . S
C118 O117 1.208 . S
C119 O124 1.247 . S
C119 O125 1.208 . S
C120 O112 1.315 . S
C120 O115 1.279 . S
C121 O122 1.315 . S
C121 O123 1.279 . S
O122 Cd114 2.223 . S
O122 C121 1.315 . S
O123 Cd113 2.240 . S
O123 C121 1.279 . S
O124 Cd114 2.297 . S
O124 C119 1.247 . S
O125 Cd114 2.439 . S
O125 C119 1.208 . S
O126 Cd127 2.223 . S
O126 C134 1.315 . S
Cd127 O126 2.223 . S
Cd127 O130 2.297 . S
Cd127 O131 2.439 . S
Cd127 O137 2.240 . S
Cd128 O129 2.240 . S
Cd128 O136 2.223 . S
Cd128 O138 2.297 . S
Cd128 O139 2.439 . S
O129 Cd128 2.240 . S
O129 C134 1.279 . S
O130 Cd127 2.297 . S
O130 C132 1.247 . S
O131 Cd127 2.439 . S
O131 C132 1.208 . S
C132 O130 1.247 . S
C132 O131 1.208 . S
C133 O138 1.247 . S
C133 O139 1.208 . S
C134 O126 1.315 . S
C134 O129 1.279 . S
C135 O136 1.315 . S
C135 O137 1.279 . S
O136 Cd128 2.223 . S
O136 C135 1.315 . S
O137 Cd127 2.240 . S
O137 C135 1.279 . S
O138 Cd128 2.297 . S
O138 C133 1.247 . S
O139 Cd128 2.439 . S
O139 C133 1.208 . S
O140 Cd141 2.223 . S
O140 C148 1.315 . S
Cd141 O140 2.223 . S
Cd141 O144 2.297 . S
Cd141 O145 2.439 . S
Cd141 O151 2.240 . S
Cd142 O143 2.240 . S
Cd142 O150 2.223 . S
Cd142 O152 2.297 . S
Cd142 O153 2.439 . S
O143 Cd142 2.240 . S
O143 C148 1.279 . S
O144 Cd141 2.297 . S
O144 C146 1.247 . S
O145 Cd141 2.439 . S
O145 C146 1.208 . S
C146 O144 1.247 . S
C146 O145 1.208 . S
C147 O152 1.247 . S
C147 O153 1.208 . S
C148 O140 1.315 . S
C148 O143 1.279 . S
C149 O150 1.315 . S
C149 O151 1.279 . S
O150 Cd142 2.223 . S
O150 C149 1.315 . S
O151 Cd141 2.240 . S
O151 C149 1.279 . S
O152 Cd142 2.297 . S
O152 C147 1.247 . S
O153 Cd142 2.439 . S
O153 C147 1.208 . S
O154 Cd155 2.223 . S
O154 C162 1.315 . S
Cd155 O154 2.223 . S
Cd155 O158 2.297 . S
Cd155 O159 2.439 . S
Cd155 O165 2.240 . S
Cd156 O157 2.240 . S
Cd156 O164 2.223 . S
Cd156 O166 2.297 . S
Cd156 O167 2.439 . S
O157 Cd156 2.240 . S
O157 C162 1.279 . S
O158 Cd155 2.297 . S
O158 C160 1.247 . S
O159 Cd155 2.439 . S
O159 C160 1.208 . S
C160 O158 1.247 . S
C160 O159 1.208 . S
C161 O166 1.247 . S
C161 O167 1.208 . S
C162 O154 1.315 . S
C162 O157 1.279 . S
C163 O164 1.315 . S
C163 O165 1.279 . S
O164 Cd156 2.223 . S
O164 C163 1.315 . S
O165 Cd155 2.240 . S
O165 C163 1.279 . S
O166 Cd156 2.297 . S
O166 C161 1.247 . S
O167 Cd156 2.439 . S
O167 C161 1.208 . S
O168 Cd169 2.223 . S
O168 C176 1.315 . S
Cd169 O168 2.223 . S
Cd169 O172 2.297 . S
Cd169 O173 2.439 . S
Cd169 O179 2.240 . S
Cd170 O171 2.240 . S
Cd170 O178 2.223 . S
Cd170 O180 2.297 . S
Cd170 O181 2.439 . S
O171 Cd170 2.240 . S
O171 C176 1.279 . S
O172 Cd169 2.297 . S
O172 C174 1.247 . S
O173 Cd169 2.439 . S
O173 C174 1.208 . S
C174 O172 1.247 . S
C174 O173 1.208 . S
C175 O180 1.247 . S
C175 O181 1.208 . S
C176 O168 1.315 . S
C176 O171 1.279 . S
C177 O178 1.315 . S
C177 O179 1.279 . S
O178 Cd170 2.223 . S
O178 C177 1.315 . S
O179 Cd169 2.240 . S
O179 C177 1.279 . S
O180 Cd170 2.297 . S
O180 C175 1.247 . S
O181 Cd170 2.439 . S
O181 C175 1.208 . S
O182 Cd183 2.223 . S
O182 C190 1.315 . S
Cd183 O182 2.223 . S
Cd183 O186 2.297 . S
Cd183 O187 2.439 . S
Cd183 O193 2.240 . S
Cd184 O185 2.240 . S
Cd184 O192 2.223 . S
Cd184 O194 2.297 . S
Cd184 O195 2.439 . S
O185 Cd184 2.240 . S
O185 C190 1.279 . S
O186 Cd183 2.297 . S
O186 C188 1.247 . S
O187 Cd183 2.439 . S
O187 C188 1.208 . S
C188 O186 1.247 . S
C188 O187 1.208 . S
C189 O194 1.247 . S
C189 O195 1.208 . S
C190 O182 1.315 . S
C190 O185 1.279 . S
C191 O192 1.315 . S
C191 O193 1.279 . S
O192 Cd184 2.223 . S
O192 C191 1.315 . S
O193 Cd183 2.240 . S
O193 C191 1.279 . S
O194 Cd184 2.297 . S
O194 C189 1.247 . S
O195 Cd184 2.439 . S
O195 C189 1.208 . S
O196 Cd197 2.223 . S
O196 C204 1.315 . S
Cd197 O196 2.223 . S
Cd197 O200 2.297 . S
Cd197 O201 2.439 . S
Cd197 O207 2.240 . S
Cd198 O199 2.240 . S
Cd198 O206 2.223 . S
Cd198 O208 2.297 . S
Cd198 O209 2.439 . S
O199 Cd198 2.240 . S
O199 C204 1.279 . S
O200 Cd197 2.297 . S
O200 C202 1.247 . S
O201 Cd197 2.439 . S
O201 C202 1.208 . S
C202 O200 1.247 . S
C202 O201 1.208 . S
C203 O208 1.247 . S
C203 O209 1.208 . S
C204 O196 1.315 . S
C204 O199 1.279 . S
C205 O206 1.315 . S
C205 O207 1.279 . S
O206 Cd198 2.223 . S
O206 C205 1.315 . S
O207 Cd197 2.240 . S
O207 C205 1.279 . S
O208 Cd198 2.297 . S
O208 C203 1.247 . S
O209 Cd198 2.439 . S
O209 C203 1.208 . S
O210 Cd211 2.223 . S
O210 C218 1.315 . S
Cd211 O210 2.223 . S
Cd211 O214 2.297 . S
Cd211 O215 2.439 . S
Cd211 O221 2.240 . S
Cd212 O213 2.240 . S
Cd212 O220 2.223 . S
Cd212 O222 2.297 . S
Cd212 O223 2.439 . S
O213 Cd212 2.240 . S
O213 C218 1.279 . S
O214 Cd211 2.297 . S
O214 C216 1.247 . S
O215 Cd211 2.439 . S
O215 C216 1.208 . S
C216 O214 1.247 . S
C216 O215 1.208 . S
C217 O222 1.247 . S
C217 O223 1.208 . S
C218 O210 1.315 . S
C218 O213 1.279 . S
C219 O220 1.315 . S
C219 O221 1.279 . S
O220 Cd212 2.223 . S
O220 C219 1.315 . S
O221 Cd211 2.240 . S
O221 C219 1.279 . S
O222 Cd212 2.297 . S
O222 C217 1.247 . S
O223 Cd212 2.439 . S
O223 C217 1.208 . S
O224 Cd225 2.223 . S
O224 C232 1.315 . S
Cd225 O224 2.223 . S
Cd225 O228 2.297 . S
Cd225 O229 2.439 . S
Cd225 O235 2.240 . S
Cd226 O227 2.240 . S
Cd226 O234 2.223 . S
Cd226 O236 2.297 . S
Cd226 O237 2.439 . S
O227 Cd226 2.240 . S
O227 C232 1.279 . S
O228 Cd225 2.297 . S
O228 C230 1.247 . S
O229 Cd225 2.439 . S
O229 C230 1.208 . S
C230 O228 1.247 . S
C230 O229 1.208 . S
C231 O236 1.247 . S
C231 O237 1.208 . S
C232 O224 1.315 . S
C232 O227 1.279 . S
C233 O234 1.315 . S
C233 O235 1.279 . S
O234 Cd226 2.223 . S
O234 C233 1.315 . S
O235 Cd225 2.240 . S
O235 C233 1.279 . S
O236 Cd226 2.297 . S
O236 C231 1.247 . S
O237 Cd226 2.439 . S
O237 C231 1.208 . S
O238 Cd239 2.223 . S
O238 C246 1.315 . S
Cd239 O238 2.223 . S
Cd239 O242 2.297 . S
Cd239 O243 2.439 . S
Cd239 O249 2.240 . S
Cd240 O241 2.240 . S
Cd240 O248 2.223 . S
Cd240 O250 2.297 . S
Cd240 O251 2.439 . S
O241 Cd240 2.240 . S
O241 C246 1.279 . S
O242 Cd239 2.297 . S
O242 C244 1.247 . S
O243 Cd239 2.439 . S
O243 C244 1.208 . S
C244 O242 1.247 . S
C244 O243 1.208 . S
C245 O250 1.247 . S
C245 O251 1.208 . S
C246 O238 1.315 . S
C246 O241 1.279 . S
C247 O248 1.315 . S
C247 O249 1.279 . S
O248 Cd240 2.223 . S
O248 C247 1.315 . S
O249 Cd239 2.240 . S
O249 C247 1.279 . S
O250 Cd240 2.297 . S
O250 C245 1.247 . S
O251 Cd240 2.439 . S
O251 C245 1.208 . S
O252 Cd253 2.223 . S
O252 C260 1.315 . S
Cd253 O252 2.223 . S
Cd253 O256 2.297 . S
Cd253 O257 2.439 . S
Cd253 O263 2.240 . S
Cd254 O255 2.240 . S
Cd254 O262 2.223 . S
Cd254 O264 2.297 . S
Cd254 O265 2.439 . S
O255 Cd254 2.240 . S
O255 C260 1.279 . S
O256 Cd253 2.297 . S
O256 C258 1.247 . S
O257 Cd253 2.439 . S
O257 C258 1.208 . S
C258 O256 1.247 . S
C258 O257 1.208 . S
C259 O264 1.247 . S
C259 O265 1.208 . S
C260 O252 1.315 . S
C260 O255 1.279 . S
C261 O262 1.315 . S
C261 O263 1.279 . S
O262 Cd254 2.223 . S
O262 C261 1.315 . S
O263 Cd253 2.240 . S
O263 C261 1.279 . S
O264 Cd254 2.297 . S
O264 C259 1.247 . S
O265 Cd254 2.439 . S
O265 C259 1.208 . S
O266 Cd267 2.223 . S
O266 C274 1.315 . S
Cd267 O266 2.223 . S
Cd267 O270 2.297 . S
Cd267 O271 2.439 . S
Cd267 O277 2.240 . S
Cd268 O269 2.240 . S
Cd268 O276 2.223 . S
Cd268 O278 2.297 . S
Cd268 O279 2.439 . S
O269 Cd268 2.240 . S
O269 C274 1.279 . S
O270 Cd267 2.297 . S
O270 C272 1.247 . S
O271 Cd267 2.439 . S
O271 C272 1.208 . S
C272 O270 1.247 . S
C272 O271 1.208 . S
C273 O278 1.247 . S
C273 O279 1.208 . S
C274 O266 1.315 . S
C274 O269 1.279 . S
C275 O276 1.315 . S
C275 O277 1.279 . S
O276 Cd268 2.223 . S
O276 C275 1.315 . S
O277 Cd267 2.240 . S
O277 C275 1.279 . S
O278 Cd268 2.297 . S
O278 C273 1.247 . S
O279 Cd268 2.439 . S
O279 C273 1.208 . S
O280 Cd281 2.223 . S
O280 C288 1.315 . S
Cd281 O280 2.223 . S
Cd281 O284 2.297 . S
Cd281 O285 2.439 . S
Cd281 O291 2.240 . S
Cd282 O283 2.240 . S
Cd282 O290 2.223 . S
Cd282 O292 2.297 . S
Cd282 O293 2.439 . S
O283 Cd282 2.240 . S
O283 C288 1.279 . S
O284 Cd281 2.297 . S
O284 C286 1.247 . S
O285 Cd281 2.439 . S
O285 C286 1.208 . S
C286 O284 1.247 . S
C286 O285 1.208 . S
C287 O292 1.247 . S
C287 O293 1.208 . S
C288 O280 1.315 . S
C288 O283 1.279 . S
C289 O290 1.315 . S
C289 O291 1.279 . S
O290 Cd282 2.223 . S
O290 C289 1.315 . S
O291 Cd281 2.240 . S
O291 C289 1.279 . S
O292 Cd282 2.297 . S
O292 C287 1.247 . S
O293 Cd282 2.439 . S
O293 C287 1.208 . S
O294 Cd295 2.223 . S
O294 C302 1.315 . S
Cd295 O294 2.223 . S
Cd295 O298 2.297 . S
Cd295 O299 2.439 . S
Cd295 O305 2.240 . S
Cd296 O297 2.240 . S
Cd296 O304 2.223 . S
Cd296 O306 2.297 . S
Cd296 O307 2.439 . S
O297 Cd296 2.240 . S
O297 C302 1.279 . S
O298 Cd295 2.297 . S
O298 C300 1.247 . S
O299 Cd295 2.439 . S
O299 C300 1.208 . S
C300 O298 1.247 . S
C300 O299 1.208 . S
C301 O306 1.247 . S
C301 O307 1.208 . S
C302 O294 1.315 . S
C302 O297 1.279 . S
C303 O304 1.315 . S
C303 O305 1.279 . S
O304 Cd296 2.223 . S
O304 C303 1.315 . S
O305 Cd295 2.240 . S
O305 C303 1.279 . S
O306 Cd296 2.297 . S
O306 C301 1.247 . S
O307 Cd296 2.439 . S
O307 C301 1.208 . S
O308 Cd309 2.223 . S
O308 C316 1.315 . S
Cd309 O308 2.223 . S
Cd309 O312 2.297 . S
Cd309 O313 2.439 . S
Cd309 O319 2.240 . S
Cd310 O311 2.240 . S
Cd310 O318 2.223 . S
Cd310 O320 2.297 . S
Cd310 O321 2.439 . S
O311 Cd310 2.240 . S
O311 C316 1.279 . S
O312 Cd309 2.297 . S
O312 C314 1.247 . S
O313 Cd309 2.439 . S
O313 C314 1.208 . S
C314 O312 1.247 . S
C314 O313 1.208 . S
C315 O320 1.247 . S
C315 O321 1.208 . S
C316 O308 1.315 . S
C316 O311 1.279 . S
C317 O318 1.315 . S
C317 O319 1.279 . S
O318 Cd310 2.223 . S
O318 C317 1.315 . S
O319 Cd309 2.240 . S
O319 C317 1.279 . S
O320 Cd310 2.297 . S
O320 C315 1.247 . S
O321 Cd310 2.439 . S
O321 C315 1.208 . S
O322 Cd323 2.223 . S
O322 C330 1.315 . S
Cd323 O322 2.223 . S
Cd323 O326 2.297 . S
Cd323 O327 2.439 . S
Cd323 O333 2.240 . S
Cd324 O325 2.240 . S
Cd324 O332 2.223 . S
Cd324 O334 2.297 . S
Cd324 O335 2.439 . S
O325 Cd324 2.240 . S
O325 C330 1.279 . S
O326 Cd323 2.297 . S
O326 C328 1.247 . S
O327 Cd323 2.439 . S
O327 C328 1.208 . S
C328 O326 1.247 . S
C328 O327 1.208 . S
C329 O334 1.247 . S
C329 O335 1.208 . S
C330 O322 1.315 . S
C330 O325 1.279 . S
C331 O332 1.315 . S
C331 O333 1.279 . S
O332 Cd324 2.223 . S
O332 C331 1.315 . S
O333 Cd323 2.240 . S
O333 C331 1.279 . S
O334 Cd324 2.297 . S
O334 C329 1.247 . S
O335 Cd324 2.439 . S
O335 C329 1.208 . S
H336 C354 0.951 . S
H337 C356 0.951 . S
H338 C358 0.950 . S
H339 C359 0.950 . S
H340 C361 0.950 . S
H341 C364 0.950 . S
H342 C365 0.950 . S
H343 C367 0.950 . S
H344 C368 0.950 . S
H345 C369 0.951 . S
H346 C371 0.951 . S
H347 C373 0.950 . S
H348 C374 0.950 . S
H349 C376 0.950 . S
H350 C379 0.950 . S
H351 C380 0.950 . S
H352 C382 0.950 . S
H353 C383 0.950 . S
C354 H336 0.951 . S
C354 C355 1.366 . S
C354 C356 1.388 . S
C355 C354 1.366 . S
C355 C359 1.385 . S
C356 H337 0.951 . S
C356 C354 1.388 . S
C356 C357 1.366 . S
C357 C356 1.366 . S
C357 C358 1.414 . S
C357 C360 1.499 . S
C358 H338 0.950 . S
C358 C357 1.414 . S
C358 C359 1.374 . S
C359 H339 0.950 . S
C359 C355 1.385 . S
C359 C358 1.374 . S
C360 C357 1.499 . S
C360 C361 1.373 . S
C360 C362 1.389 . S
C361 H340 0.950 . S
C361 C360 1.373 . S
C361 C377 1.377 . S
C362 C360 1.389 . S
C362 C363 1.524 . S
C362 C376 1.377 . S
C363 C362 1.524 . S
C363 C364 1.397 . S
C363 C368 1.363 . S
C364 H341 0.950 . S
C364 C363 1.397 . S
C364 C365 1.334 . S
C365 H342 0.950 . S
C365 C364 1.334 . S
C365 C366 1.287 . S
C366 C365 1.287 . S
C366 C367 1.524 . S
C366 H385 0.913 . S
C367 H343 0.950 . S
C367 C366 1.524 . S
C367 C368 1.415 . S
C368 H344 0.950 . S
C368 C363 1.363 . S
C368 C367 1.415 . S
C369 H345 0.951 . S
C369 C370 1.366 . S
C369 C371 1.388 . S
C370 C369 1.366 . S
C370 C374 1.385 . S
C371 H346 0.951 . S
C371 C369 1.388 . S
C371 C372 1.366 . S
C372 C371 1.366 . S
C372 C373 1.414 . S
C372 C375 1.499 . S
C373 H347 0.950 . S
C373 C372 1.414 . S
C373 C374 1.374 . S
C374 H348 0.950 . S
C374 C370 1.385 . S
C374 C373 1.374 . S
C375 C372 1.499 . S
C375 C376 1.373 . S
C375 C377 1.389 . S
C376 H349 0.950 . S
C376 C362 1.377 . S
C376 C375 1.373 . S
C377 C361 1.377 . S
C377 C375 1.389 . S
C377 C378 1.524 . S
C378 C377 1.524 . S
C378 C379 1.397 . S
C378 C383 1.363 . S
C379 H350 0.950 . S
C379 C378 1.397 . S
C379 C380 1.334 . S
C380 H351 0.950 . S
C380 C379 1.334 . S
C380 C381 1.287 . S
C381 C380 1.287 . S
C381 C382 1.524 . S
C381 H384 0.999 . S
C382 H352 0.950 . S
C382 C381 1.524 . S
C382 C383 1.415 . S
C383 H353 0.950 . S
C383 C378 1.363 . S
C383 C382 1.415 . S
H384 C381 0.999 . S
H385 C366 0.913 . S
H386 C404 0.951 . S
H387 C406 0.951 . S
H388 C408 0.950 . S
H389 C409 0.950 . S
H390 C411 0.950 . S
H391 C414 0.950 . S
H392 C415 0.950 . S
H393 C417 0.950 . S
H394 C418 0.950 . S
H395 C419 0.951 . S
H396 C421 0.951 . S
H397 C423 0.950 . S
H398 C424 0.950 . S
H399 C426 0.950 . S
H400 C429 0.950 . S
H401 C430 0.950 . S
H402 C432 0.950 1_655 S
H403 C433 0.950 . S
C404 H386 0.951 . S
C404 C405 1.366 1_455 S
C404 C406 1.388 . S
C405 C404 1.366 1_655 S
C405 C409 1.385 . S
C406 H387 0.951 . S
C406 C404 1.388 . S
C406 C407 1.366 . S
C407 C406 1.366 . S
C407 C408 1.414 . S
C407 C410 1.499 . S
C408 H388 0.950 . S
C408 C407 1.414 . S
C408 C409 1.374 1_455 S
C409 H389 0.950 . S
C409 C405 1.385 . S
C409 C408 1.374 1_655 S
C410 C407 1.499 . S
C410 C411 1.373 . S
C410 C412 1.389 . S
C411 H390 0.950 . S
C411 C410 1.373 . S
C411 C427 1.377 . S
C412 C410 1.389 . S
C412 C413 1.524 . S
C412 C426 1.377 . S
C413 C412 1.524 . S
C413 C414 1.397 . S
C413 C418 1.363 . S
C414 H391 0.950 . S
C414 C413 1.397 . S
C414 C415 1.334 . S
C415 H392 0.950 . S
C415 C414 1.334 . S
C415 C416 1.287 . S
C416 C415 1.287 . S
C416 C417 1.524 . S
C416 H435 0.913 . S
C417 H393 0.950 . S
C417 C416 1.524 . S
C417 C418 1.415 . S
C418 H394 0.950 . S
C418 C413 1.363 . S
C418 C417 1.415 . S
C419 H395 0.951 . S
C419 C420 1.366 . S
C419 C421 1.388 . S
C420 C419 1.366 . S
C420 C424 1.385 . S
C421 H396 0.951 . S
C421 C419 1.388 . S
C421 C422 1.366 . S
C422 C421 1.366 . S
C422 C423 1.414 . S
C422 C425 1.499 . S
C423 H397 0.950 . S
C423 C422 1.414 . S
C423 C424 1.374 . S
C424 H398 0.950 . S
C424 C420 1.385 . S
C424 C423 1.374 . S
C425 C422 1.499 . S
C425 C426 1.373 . S
C425 C427 1.389 . S
C426 H399 0.950 . S
C426 C412 1.377 . S
C426 C425 1.373 . S
C427 C411 1.377 . S
C427 C425 1.389 . S
C427 C428 1.524 . S
C428 C427 1.524 . S
C428 C429 1.397 . S
C428 C433 1.363 . S
C429 H400 0.950 . S
C429 C428 1.397 . S
C429 C430 1.334 . S
C430 H401 0.950 . S
C430 C429 1.334 . S
C430 C431 1.287 . S
C431 C430 1.287 . S
C431 C432 1.524 . S
C431 H434 0.999 . S
C432 H402 0.950 1_455 S
C432 C431 1.524 . S
C432 C433 1.415 . S
C433 H403 0.950 . S
C433 C428 1.363 . S
C433 C432 1.415 . S
H434 C431 0.999 . S
H435 C416 0.913 . S
H436 C454 0.951 . S
H437 C456 0.951 . S
H438 C458 0.950 . S
H439 C459 0.950 . S
H440 C461 0.950 . S
H441 C464 0.950 . S
H442 C465 0.950 . S
H443 C467 0.950 . S
H444 C468 0.950 . S
H445 C469 0.951 . S
H446 C471 0.951 . S
H447 C473 0.950 . S
H448 C474 0.956 . S
H449 C476 0.950 . S
H450 C479 0.950 . S
H451 C480 0.950 . S
H452 C482 0.950 . S
H453 C483 0.950 . S
C454 H436 0.951 . S
C454 C455 1.366 . S
C454 C456 1.388 . S
C455 C454 1.366 . S
C455 C459 1.385 . S
C456 H437 0.951 . S
C456 C454 1.388 . S
C456 C457 1.366 . S
C457 C456 1.366 . S
C457 C458 1.414 . S
C457 C460 1.499 . S
C458 H438 0.950 . S
C458 C457 1.414 . S
C458 C459 1.374 . S
C459 H439 0.950 . S
C459 C455 1.385 . S
C459 C458 1.374 . S
C460 C457 1.499 . S
C460 C461 1.373 . S
C460 C462 1.389 . S
C461 H440 0.950 . S
C461 C460 1.373 . S
C461 C477 1.377 . S
C462 C460 1.389 . S
C462 C463 1.524 . S
C462 C476 1.377 . S
C463 C462 1.524 . S
C463 C464 1.397 . S
C463 C468 1.363 . S
C464 H441 0.950 . S
C464 C463 1.397 . S
C464 C465 1.334 . S
C465 H442 0.950 . S
C465 C464 1.334 . S
C465 C466 1.287 . S
C466 C465 1.287 . S
C466 C467 1.524 . S
C466 H485 0.913 . S
C467 H443 0.950 . S
C467 C466 1.524 . S
C467 C468 1.415 . S
C468 H444 0.950 . S
C468 C463 1.363 . S
C468 C467 1.415 . S
C469 H445 0.951 . S
C469 C470 1.366 . S
C469 C471 1.388 1_554 S
C470 C469 1.366 . S
C470 C474 1.395 . S
C471 H446 0.951 . S
C471 C469 1.388 1_556 S
C471 C472 1.366 . S
C472 C471 1.366 . S
C472 C473 1.414 . S
C472 C475 1.499 . S
C473 H447 0.950 . S
C473 C472 1.414 . S
C473 C474 1.358 1_556 S
C474 H448 0.956 . S
C474 C470 1.395 . S
C474 C473 1.358 1_554 S
C475 C472 1.499 . S
C475 C476 1.373 . S
C475 C477 1.389 . S
C476 H449 0.950 . S
C476 C462 1.377 . S
C476 C475 1.373 . S
C477 C461 1.377 . S
C477 C475 1.389 . S
C477 C478 1.524 . S
C478 C477 1.524 . S
C478 C479 1.397 1_556 S
C478 C483 1.363 . S
C479 H450 0.950 . S
C479 C478 1.397 1_554 S
C479 C480 1.334 . S
C480 H451 0.950 . S
C480 C479 1.334 . S
C480 C481 1.287 . S
C481 C480 1.287 . S
C481 C482 1.524 . S
C481 H484 0.999 . S
C482 H452 0.950 . S
C482 C481 1.524 . S
C482 C483 1.415 1_554 S
C483 H453 0.950 . S
C483 C478 1.363 . S
C483 C482 1.415 1_556 S
H484 C481 0.999 . S
H485 C466 0.913 . S
H486 C504 0.951 . S
H487 C506 0.951 . S
H488 C508 0.950 . S
H489 C509 0.950 . S
H490 C511 0.950 . S
H491 C514 0.950 . S
H492 C515 0.950 . S
H493 C517 0.950 . S
H494 C518 0.950 . S
H495 C519 0.951 . S
H496 C521 0.951 . S
H497 C523 0.950 . S
H498 C524 0.950 . S
H499 C526 0.950 . S
H500 C529 0.950 . S
H501 C530 0.950 . S
H502 C532 0.950 . S
H503 C533 0.950 . S
C504 H486 0.951 . S
C504 C505 1.366 . S
C504 C506 1.388 . S
C505 C504 1.366 . S
C505 C509 1.385 . S
C506 H487 0.951 . S
C506 C504 1.388 . S
C506 C507 1.366 . S
C507 C506 1.366 . S
C507 C508 1.414 . S
C507 C510 1.499 . S
C508 H488 0.950 . S
C508 C507 1.414 . S
C508 C509 1.374 . S
C509 H489 0.950 . S
C509 C505 1.385 . S
C509 C508 1.374 . S
C510 C507 1.499 . S
C510 C511 1.373 . S
C510 C512 1.389 . S
C511 H490 0.950 . S
C511 C510 1.373 . S
C511 C527 1.377 . S
C512 C510 1.389 . S
C512 C513 1.524 . S
C512 C526 1.377 . S
C513 C512 1.524 . S
C513 C514 1.397 . S
C513 C518 1.363 . S
C514 H491 0.950 . S
C514 C513 1.397 . S
C514 C515 1.334 . S
C515 H492 0.950 . S
C515 C514 1.334 . S
C515 C516 1.287 . S
C516 C515 1.287 . S
C516 C517 1.524 . S
C516 H535 0.913 . S
C517 H493 0.950 . S
C517 C516 1.524 . S
C517 C518 1.415 . S
C518 H494 0.950 . S
C518 C513 1.363 . S
C518 C517 1.415 . S
C519 H495 0.951 . S
C519 C520 1.366 . S
C519 C521 1.388 . S
C520 C519 1.366 . S
C520 C524 1.385 . S
C521 H496 0.951 . S
C521 C519 1.388 . S
C521 C522 1.366 . S
C522 C521 1.366 . S
C522 C523 1.414 . S
C522 C525 1.499 . S
C523 H497 0.950 . S
C523 C522 1.414 . S
C523 C524 1.374 . S
C524 H498 0.950 . S
C524 C520 1.385 . S
C524 C523 1.374 . S
C525 C522 1.499 . S
C525 C526 1.373 . S
C525 C527 1.389 . S
C526 H499 0.950 . S
C526 C512 1.377 . S
C526 C525 1.373 . S
C527 C511 1.377 . S
C527 C525 1.389 . S
C527 C528 1.524 . S
C528 C527 1.524 . S
C528 C529 1.397 . S
C528 C533 1.363 . S
C529 H500 0.950 . S
C529 C528 1.397 . S
C529 C530 1.334 . S
C530 H501 0.950 . S
C530 C529 1.334 . S
C530 C531 1.287 . S
C531 C530 1.287 . S
C531 C532 1.524 . S
C531 H534 0.999 . S
C532 H502 0.950 . S
C532 C531 1.524 . S
C532 C533 1.415 . S
C533 H503 0.950 . S
C533 C528 1.363 . S
C533 C532 1.415 . S
H534 C531 0.999 . S
H535 C516 0.913 . S
H536 C554 0.951 . S
H537 C556 0.951 . S
H538 C558 0.950 . S
H539 C559 0.950 . S
H540 C561 0.950 . S
H541 C564 0.950 . S
H542 C565 0.950 . S
H543 C567 0.950 . S
H544 C568 0.950 . S
H545 C569 0.951 . S
H546 C571 0.951 . S
H547 C573 0.950 . S
H548 C574 0.950 . S
H549 C576 0.950 . S
H550 C579 0.950 . S
H551 C580 0.950 . S
H552 C582 0.950 . S
H553 C583 0.950 . S
C554 H536 0.951 . S
C554 C555 1.366 . S
C554 C556 1.388 . S
C555 C554 1.366 . S
C555 C559 1.385 . S
C556 H537 0.951 . S
C556 C554 1.388 . S
C556 C557 1.366 . S
C557 C556 1.366 . S
C557 C558 1.414 . S
C557 C560 1.499 . S
C558 H538 0.950 . S
C558 C557 1.414 . S
C558 C559 1.374 . S
C559 H539 0.950 . S
C559 C555 1.385 . S
C559 C558 1.374 . S
C560 C557 1.499 . S
C560 C561 1.373 . S
C560 C562 1.389 . S
C561 H540 0.950 . S
C561 C560 1.373 . S
C561 C577 1.377 . S
C562 C560 1.389 . S
C562 C563 1.524 . S
C562 C576 1.377 . S
C563 C562 1.524 . S
C563 C564 1.397 . S
C563 C568 1.363 . S
C564 H541 0.950 . S
C564 C563 1.397 . S
C564 C565 1.334 . S
C565 H542 0.950 . S
C565 C564 1.334 . S
C565 C566 1.287 . S
C566 C565 1.287 . S
C566 C567 1.524 . S
C566 H585 0.913 . S
C567 H543 0.950 . S
C567 C566 1.524 . S
C567 C568 1.415 . S
C568 H544 0.950 . S
C568 C563 1.363 . S
C568 C567 1.415 . S
C569 H545 0.951 . S
C569 C570 1.366 . S
C569 C571 1.388 . S
C570 C569 1.366 . S
C570 C574 1.385 . S
C571 H546 0.951 . S
C571 C569 1.388 . S
C571 C572 1.366 . S
C572 C571 1.366 . S
C572 C573 1.414 . S
C572 C575 1.499 . S
C573 H547 0.950 . S
C573 C572 1.414 . S
C573 C574 1.374 . S
C574 H548 0.950 . S
C574 C570 1.385 . S
C574 C573 1.374 . S
C575 C572 1.499 . S
C575 C576 1.373 . S
C575 C577 1.389 . S
C576 H549 0.950 . S
C576 C562 1.377 . S
C576 C575 1.373 . S
C577 C561 1.377 . S
C577 C575 1.389 . S
C577 C578 1.524 . S
C578 C577 1.524 . S
C578 C579 1.397 . S
C578 C583 1.363 . S
C579 H550 0.950 . S
C579 C578 1.397 . S
C579 C580 1.334 . S
C580 H551 0.950 . S
C580 C579 1.334 . S
C580 C581 1.287 . S
C581 C580 1.287 . S
C581 C582 1.524 . S
C581 H584 0.999 . S
C582 H552 0.950 . S
C582 C581 1.524 . S
C582 C583 1.415 . S
C583 H553 0.950 . S
C583 C578 1.363 . S
C583 C582 1.415 . S
H584 C581 0.999 . S
H585 C566 0.913 . S
H586 C604 0.951 . S
H587 C606 0.951 . S
H588 C608 0.950 . S
H589 C609 0.950 . S
H590 C611 0.950 . S
H591 C614 0.950 . S
H592 C615 0.950 . S
H593 C617 0.950 . S
H594 C618 0.950 . S
H595 C619 0.951 . S
H596 C621 0.951 . S
H597 C623 0.949 1_455 S
H598 C624 0.950 . S
H599 C626 0.950 . S
H600 C629 0.952 . S
H601 C630 0.996 . S
H602 C632 0.950 . S
H603 C633 0.950 . S
C604 H586 0.951 . S
C604 C605 1.366 . S
C604 C606 1.388 . S
C605 C604 1.366 . S
C605 C609 1.385 . S
C606 H587 0.951 . S
C606 C604 1.388 . S
C606 C607 1.366 . S
C607 C606 1.366 . S
C607 C608 1.414 . S
C607 C610 1.499 . S
C608 H588 0.950 . S
C608 C607 1.414 . S
C608 C609 1.374 . S
C609 H589 0.950 . S
C609 C605 1.385 . S
C609 C608 1.374 . S
C610 C607 1.499 . S
C610 C611 1.373 . S
C610 C612 1.389 . S
C611 H590 0.950 . S
C611 C610 1.373 . S
C611 C627 1.377 . S
C612 C610 1.389 . S
C612 C613 1.524 . S
C612 C626 1.377 . S
C613 C612 1.524 . S
C613 C614 1.397 . S
C613 C618 1.363 . S
C614 H591 0.950 . S
C614 C613 1.397 . S
C614 C615 1.334 . S
C615 H592 0.950 . S
C615 C614 1.334 . S
C615 C616 1.287 . S
C616 C615 1.287 . S
C616 C617 1.524 . S
C616 H635 0.913 . S
C617 H593 0.950 . S
C617 C616 1.524 . S
C617 C618 1.415 . S
C618 H594 0.950 . S
C618 C613 1.363 . S
C618 C617 1.415 . S
C619 H595 0.951 . S
C619 C620 1.366 1_655 S
C619 C621 1.388 . S
C620 C619 1.366 1_455 S
C620 C624 1.385 . S
C621 H596 0.951 . S
C621 C619 1.388 . S
C621 C622 1.366 . S
C622 C621 1.366 . S
C622 C623 1.420 . S
C622 C625 1.499 . S
C623 H597 0.949 1_655 S
C623 C622 1.420 . S
C623 C624 1.369 1_655 S
C624 H598 0.950 . S
C624 C620 1.385 . S
C624 C623 1.369 1_455 S
C625 C622 1.499 . S
C625 C626 1.373 . S
C625 C627 1.389 . S
C626 H599 0.950 . S
C626 C612 1.377 . S
C626 C625 1.373 . S
C627 C611 1.377 . S
C627 C625 1.389 . S
C627 C628 1.524 . S
C628 C627 1.524 . S
C628 C629 1.397 . S
C628 C633 1.363 . S
C629 H600 0.952 . S
C629 C628 1.397 . S
C629 C630 1.314 1_655 S
C630 H601 0.996 . S
C630 C629 1.314 1_455 S
C630 C631 1.260 1_455 S
C631 C630 1.260 1_655 S
C631 C632 1.524 . S
C631 H634 0.999 . S
C632 H602 0.950 . S
C632 C631 1.524 . S
C632 C633 1.415 . S
C633 H603 0.950 . S
C633 C628 1.363 . S
C633 C632 1.415 . S
H634 C631 0.999 . S
H635 C616 0.913 . S
H636 C654 0.951 . S
H637 C656 0.951 . S
H638 C658 0.950 . S
H639 C659 0.950 . S
H640 C661 0.950 . S
H641 C664 0.950 . S
H642 C665 0.950 . S
H643 C667 0.950 . S
H644 C668 0.950 . S
H645 C669 0.951 . S
H646 C671 0.951 . S
H647 C673 0.950 . S
H648 C674 0.950 . S
H649 C676 0.950 . S
H650 C679 0.950 . S
H651 C680 0.950 . S
H652 C682 0.950 . S
H653 C683 0.950 1_554 S
C654 H636 0.951 . S
C654 C655 1.366 . S
C654 C656 1.388 . S
C655 C654 1.366 . S
C655 C659 1.385 . S
C656 H637 0.951 . S
C656 C654 1.388 . S
C656 C657 1.366 . S
C657 C656 1.366 . S
C657 C658 1.414 . S
C657 C660 1.499 . S
C658 H638 0.950 . S
C658 C657 1.414 . S
C658 C659 1.374 . S
C659 H639 0.950 . S
C659 C655 1.385 . S
C659 C658 1.374 . S
C660 C657 1.499 . S
C660 C661 1.373 . S
C660 C662 1.389 . S
C661 H640 0.950 . S
C661 C660 1.373 . S
C661 C677 1.377 . S
C662 C660 1.389 . S
C662 C663 1.524 . S
C662 C676 1.377 . S
C663 C662 1.524 . S
C663 C664 1.397 . S
C663 C668 1.363 . S
C664 H641 0.950 . S
C664 C663 1.397 . S
C664 C665 1.334 . S
C665 H642 0.950 . S
C665 C664 1.334 . S
C665 C666 1.287 . S
C666 C665 1.287 . S
C666 C667 1.524 . S
C666 H685 0.913 . S
C667 H643 0.950 . S
C667 C666 1.524 . S
C667 C668 1.415 . S
C668 H644 0.950 . S
C668 C663 1.363 . S
C668 C667 1.415 . S
C669 H645 0.951 . S
C669 C670 1.366 . S
C669 C671 1.388 1_556 S
C670 C669 1.366 . S
C670 C674 1.385 1_556 S
C671 H646 0.951 . S
C671 C669 1.388 1_554 S
C671 C672 1.366 . S
C672 C671 1.366 . S
C672 C673 1.414 . S
C672 C675 1.499 . S
C673 H647 0.950 . S
C673 C672 1.414 . S
C673 C674 1.374 . S
C674 H648 0.950 . S
C674 C670 1.385 1_554 S
C674 C673 1.374 . S
C675 C672 1.499 . S
C675 C676 1.373 . S
C675 C677 1.389 . S
C676 H649 0.950 . S
C676 C662 1.377 . S
C676 C675 1.373 . S
C677 C661 1.377 . S
C677 C675 1.389 . S
C677 C678 1.524 . S
C678 C677 1.524 . S
C678 C679 1.397 1_554 S
C678 C683 1.363 1_554 S
C679 H650 0.950 . S
C679 C678 1.397 1_556 S
C679 C680 1.334 . S
C680 H651 0.950 . S
C680 C679 1.334 . S
C680 C681 1.287 . S
C681 C680 1.287 . S
C681 C682 1.524 . S
C681 H684 0.999 . S
C682 H652 0.950 . S
C682 C681 1.524 . S
C682 C683 1.415 . S
C683 H653 0.950 1_556 S
C683 C678 1.363 1_556 S
C683 C682 1.415 . S
H684 C681 0.999 . S
H685 C666 0.913 . S
H686 C704 0.951 . S
H687 C706 0.951 . S
H688 C708 0.950 . S
H689 C709 0.950 . S
H690 C711 0.950 . S
H691 C714 0.950 . S
H692 C715 0.950 . S
H693 C717 0.950 . S
H694 C718 0.950 . S
H695 C719 0.951 . S
H696 C721 0.951 . S
H697 C723 0.950 . S
H698 C724 0.950 . S
H699 C726 0.950 . S
H700 C729 0.950 . S
H701 C730 0.950 . S
H702 C732 0.950 . S
H703 C733 0.950 . S
C704 H686 0.951 . S
C704 C705 1.366 . S
C704 C706 1.388 . S
C705 C704 1.366 . S
C705 C709 1.385 . S
C706 H687 0.951 . S
C706 C704 1.388 . S
C706 C707 1.366 . S
C707 C706 1.366 . S
C707 C708 1.414 . S
C707 C710 1.499 . S
C708 H688 0.950 . S
C708 C707 1.414 . S
C708 C709 1.374 . S
C709 H689 0.950 . S
C709 C705 1.385 . S
C709 C708 1.374 . S
C710 C707 1.499 . S
C710 C711 1.373 . S
C710 C712 1.389 . S
C711 H690 0.950 . S
C711 C710 1.373 . S
C711 C727 1.377 . S
C712 C710 1.389 . S
C712 C713 1.524 . S
C712 C726 1.377 . S
C713 C712 1.524 . S
C713 C714 1.397 . S
C713 C718 1.363 . S
C714 H691 0.950 . S
C714 C713 1.397 . S
C714 C715 1.334 . S
C715 H692 0.950 . S
C715 C714 1.334 . S
C715 C716 1.287 . S
C716 C715 1.287 . S
C716 C717 1.524 . S
C716 H735 0.913 . S
C717 H693 0.950 . S
C717 C716 1.524 . S
C717 C718 1.415 . S
C718 H694 0.950 . S
C718 C713 1.363 . S
C718 C717 1.415 . S
C719 H695 0.951 . S
C719 C720 1.366 . S
C719 C721 1.388 . S
C720 C719 1.366 . S
C720 C724 1.385 . S
C721 H696 0.951 . S
C721 C719 1.388 . S
C721 C722 1.366 . S
C722 C721 1.366 . S
C722 C723 1.414 . S
C722 C725 1.499 . S
C723 H697 0.950 . S
C723 C722 1.414 . S
C723 C724 1.374 . S
C724 H698 0.950 . S
C724 C720 1.385 . S
C724 C723 1.374 . S
C725 C722 1.499 . S
C725 C726 1.373 . S
C725 C727 1.389 . S
C726 H699 0.950 . S
C726 C712 1.377 . S
C726 C725 1.373 . S
C727 C711 1.377 . S
C727 C725 1.389 . S
C727 C728 1.524 . S
C728 C727 1.524 . S
C728 C729 1.397 . S
C728 C733 1.363 . S
C729 H700 0.950 . S
C729 C728 1.397 . S
C729 C730 1.334 . S
C730 H701 0.950 . S
C730 C729 1.334 . S
C730 C731 1.287 . S
C731 C730 1.287 . S
C731 C732 1.524 . S
C731 H734 0.999 . S
C732 H702 0.950 . S
C732 C731 1.524 . S
C732 C733 1.415 . S
C733 H703 0.950 . S
C733 C728 1.363 . S
C733 C732 1.415 . S
H734 C731 0.999 . S
H735 C716 0.913 . S
H736 C754 0.951 . S
H737 C756 0.951 . S
H738 C758 0.950 . S
H739 C759 0.950 . S
H740 C761 0.950 . S
H741 C764 0.950 . S
H742 C765 0.950 . S
H743 C767 0.950 . S
H744 C768 0.950 . S
H745 C769 0.951 . S
H746 C771 0.951 . S
H747 C773 0.950 . S
H748 C774 0.950 . S
H749 C776 0.950 . S
H750 C779 0.950 . S
H751 C780 0.950 . S
H752 C782 0.950 . S
H753 C783 0.950 . S
C754 H736 0.951 . S
C754 C755 1.366 . S
C754 C756 1.388 . S
C755 C754 1.366 . S
C755 C759 1.385 . S
C756 H737 0.951 . S
C756 C754 1.388 . S
C756 C757 1.366 . S
C757 C756 1.366 . S
C757 C758 1.414 . S
C757 C760 1.499 . S
C758 H738 0.950 . S
C758 C757 1.414 . S
C758 C759 1.374 . S
C759 H739 0.950 . S
C759 C755 1.385 . S
C759 C758 1.374 . S
C760 C757 1.499 . S
C760 C761 1.373 . S
C760 C762 1.389 . S
C761 H740 0.950 . S
C761 C760 1.373 . S
C761 C777 1.377 . S
C762 C760 1.389 . S
C762 C763 1.524 . S
C762 C776 1.377 . S
C763 C762 1.524 . S
C763 C764 1.397 . S
C763 C768 1.363 . S
C764 H741 0.950 . S
C764 C763 1.397 . S
C764 C765 1.334 . S
C765 H742 0.950 . S
C765 C764 1.334 . S
C765 C766 1.287 . S
C766 C765 1.287 . S
C766 C767 1.524 . S
C766 H785 0.913 . S
C767 H743 0.950 . S
C767 C766 1.524 . S
C767 C768 1.415 . S
C768 H744 0.950 . S
C768 C763 1.363 . S
C768 C767 1.415 . S
C769 H745 0.951 . S
C769 C770 1.366 . S
C769 C771 1.388 . S
C770 C769 1.366 . S
C770 C774 1.385 . S
C771 H746 0.951 . S
C771 C769 1.388 . S
C771 C772 1.366 . S
C772 C771 1.366 . S
C772 C773 1.414 . S
C772 C775 1.499 . S
C773 H747 0.950 . S
C773 C772 1.414 . S
C773 C774 1.374 . S
C774 H748 0.950 . S
C774 C770 1.385 . S
C774 C773 1.374 . S
C775 C772 1.499 . S
C775 C776 1.373 . S
C775 C777 1.389 . S
C776 H749 0.950 . S
C776 C762 1.377 . S
C776 C775 1.373 . S
C777 C761 1.377 . S
C777 C775 1.389 . S
C777 C778 1.524 . S
C778 C777 1.524 . S
C778 C779 1.397 . S
C778 C783 1.363 . S
C779 H750 0.950 . S
C779 C778 1.397 . S
C779 C780 1.334 . S
C780 H751 0.950 . S
C780 C779 1.334 . S
C780 C781 1.287 . S
C781 C780 1.287 . S
C781 C782 1.524 . S
C781 H784 0.999 . S
C782 H752 0.950 . S
C782 C781 1.524 . S
C782 C783 1.415 . S
C783 H753 0.950 . S
C783 C778 1.363 . S
C783 C782 1.415 . S
H784 C781 0.999 . S
H785 C766 0.913 . S
H786 C804 0.951 . S
H787 C806 0.943 1_565 S
H788 C808 0.950 . S
H789 C809 0.950 . S
H790 C811 0.950 . S
H791 C814 0.950 . S
H792 C815 0.950 . S
H793 C817 0.950 . S
H794 C818 0.950 . S
H795 C819 0.951 . S
H796 C821 0.951 . S
H797 C823 0.950 . S
H798 C824 0.950 . S
H799 C826 0.950 . S
H800 C829 0.950 . S
H801 C830 0.950 . S
H802 C832 0.950 . S
H803 C833 0.950 . S
C804 H786 0.951 . S
C804 C805 1.366 . S
C804 C806 1.363 1_565 S
C805 C804 1.366 . S
C805 C809 1.385 1_565 S
C806 H787 0.943 1_545 S
C806 C804 1.363 1_545 S
C806 C807 1.399 . S
C807 C806 1.399 . S
C807 C808 1.414 . S
C807 C810 1.499 . S
C808 H788 0.950 . S
C808 C807 1.414 . S
C808 C809 1.374 . S
C809 H789 0.950 . S
C809 C805 1.385 1_545 S
C809 C808 1.374 . S
C810 C807 1.499 . S
C810 C811 1.373 . S
C810 C812 1.389 . S
C811 H790 0.950 . S
C811 C810 1.373 . S
C811 C827 1.377 . S
C812 C810 1.389 . S
C812 C813 1.524 . S
C812 C826 1.377 . S
C813 C812 1.524 . S
C813 C814 1.397 . S
C813 C818 1.363 . S
C814 H791 0.950 . S
C814 C813 1.397 . S
C814 C815 1.334 . S
C815 H792 0.950 . S
C815 C814 1.334 . S
C815 C816 1.287 . S
C816 C815 1.287 . S
C816 C817 1.524 . S
C816 H835 0.913 . S
C817 H793 0.950 . S
C817 C816 1.524 . S
C817 C818 1.415 . S
C818 H794 0.950 . S
C818 C813 1.363 . S
C818 C817 1.415 . S
C819 H795 0.951 . S
C819 C820 1.366 . S
C819 C821 1.388 . S
C820 C819 1.366 . S
C820 C824 1.385 . S
C821 H796 0.951 . S
C821 C819 1.388 . S
C821 C822 1.366 . S
C822 C821 1.366 . S
C822 C823 1.414 . S
C822 C825 1.499 . S
C823 H797 0.950 . S
C823 C822 1.414 . S
C823 C824 1.374 . S
C824 H798 0.950 . S
C824 C820 1.385 . S
C824 C823 1.374 . S
C825 C822 1.499 . S
C825 C826 1.373 . S
C825 C827 1.389 . S
C826 H799 0.950 . S
C826 C812 1.377 . S
C826 C825 1.373 . S
C827 C811 1.377 . S
C827 C825 1.389 . S
C827 C828 1.524 . S
C828 C827 1.524 . S
C828 C829 1.397 . S
C828 C833 1.363 . S
C829 H800 0.950 . S
C829 C828 1.397 . S
C829 C830 1.334 . S
C830 H801 0.950 . S
C830 C829 1.334 . S
C830 C831 1.287 . S
C831 C830 1.287 . S
C831 C832 1.524 . S
C831 H834 0.999 . S
C832 H802 0.950 . S
C832 C831 1.524 . S
C832 C833 1.415 . S
C833 H803 0.950 . S
C833 C828 1.363 . S
C833 C832 1.415 . S
H834 C831 0.999 . S
H835 C816 0.913 . S
H836 C854 0.951 . S
H837 C856 0.951 . S
H838 C858 0.950 . S
H839 C859 0.950 . S
H840 C861 0.950 . S
H841 C864 0.950 . S
H842 C865 0.950 . S
H843 C867 0.950 1_545 S
H844 C868 0.950 . S
H845 C869 0.951 . S
H846 C871 0.951 . S
H847 C873 0.943 1_545 S
H848 C874 0.950 . S
H849 C876 0.950 . S
H850 C879 0.950 . S
H851 C880 0.950 . S
H852 C882 0.950 . S
H853 C883 0.950 . S
C854 H836 0.951 . S
C854 C855 1.366 . S
C854 C856 1.388 . S
C855 C854 1.366 . S
C855 C859 1.385 . S
C856 H837 0.951 . S
C856 C854 1.388 . S
C856 C857 1.366 . S
C857 C856 1.366 . S
C857 C858 1.414 . S
C857 C860 1.499 . S
C858 H838 0.950 . S
C858 C857 1.414 . S
C858 C859 1.374 . S
C859 H839 0.950 . S
C859 C855 1.385 . S
C859 C858 1.374 . S
C860 C857 1.499 . S
C860 C861 1.373 . S
C860 C862 1.389 . S
C861 H840 0.950 . S
C861 C860 1.373 . S
C861 C877 1.377 . S
C862 C860 1.389 . S
C862 C863 1.524 . S
C862 C876 1.377 . S
C863 C862 1.524 . S
C863 C864 1.397 . S
C863 C868 1.363 . S
C864 H841 0.950 . S
C864 C863 1.397 . S
C864 C865 1.334 . S
C865 H842 0.950 . S
C865 C864 1.334 . S
C865 C866 1.287 . S
C866 C865 1.287 . S
C866 C867 1.524 . S
C866 H885 0.913 . S
C867 H843 0.950 1_565 S
C867 C866 1.524 . S
C867 C868 1.415 . S
C868 H844 0.950 . S
C868 C863 1.363 . S
C868 C867 1.415 . S
C869 H845 0.951 . S
C869 C870 1.366 1_565 S
C869 C871 1.388 . S
C870 C869 1.366 1_545 S
C870 C874 1.385 . S
C871 H846 0.951 . S
C871 C869 1.388 . S
C871 C872 1.366 . S
C872 C871 1.366 . S
C872 C873 1.454 . S
C872 C875 1.499 . S
C873 H847 0.943 1_565 S
C873 C872 1.454 . S
C873 C874 1.343 1_565 S
C874 H848 0.950 . S
C874 C870 1.385 . S
C874 C873 1.343 1_545 S
C875 C872 1.499 . S
C875 C876 1.373 . S
C875 C877 1.389 . S
C876 H849 0.950 . S
C876 C862 1.377 . S
C876 C875 1.373 . S
C877 C861 1.377 . S
C877 C875 1.389 . S
C877 C878 1.524 . S
C878 C877 1.524 . S
C878 C879 1.397 . S
C878 C883 1.363 . S
C879 H850 0.950 . S
C879 C878 1.397 . S
C879 C880 1.334 . S
C880 H851 0.950 . S
C880 C879 1.334 . S
C880 C881 1.287 . S
C881 C880 1.287 . S
C881 C882 1.524 . S
C881 H884 0.999 . S
C882 H852 0.950 . S
C882 C881 1.524 . S
C882 C883 1.415 . S
C883 H853 0.950 . S
C883 C878 1.363 . S
C883 C882 1.415 . S
H884 C881 0.999 . S
H885 C866 0.913 . S
H886 C904 0.951 . S
H887 C906 0.951 . S
H888 C908 0.950 . S
H889 C909 0.950 . S
H890 C911 0.950 . S
H891 C914 0.950 . S
H892 C915 0.950 . S
H893 C917 0.950 . S
H894 C918 0.950 . S
H895 C919 0.951 . S
H896 C921 0.951 . S
H897 C923 0.950 . S
H898 C924 0.950 . S
H899 C926 0.950 . S
H900 C929 0.950 . S
H901 C930 0.950 . S
H902 C932 0.950 . S
H903 C933 0.950 . S
C904 H886 0.951 . S
C904 C905 1.366 . S
C904 C906 1.388 . S
C905 C904 1.366 . S
C905 C909 1.385 . S
C906 H887 0.951 . S
C906 C904 1.388 . S
C906 C907 1.366 . S
C907 C906 1.366 . S
C907 C908 1.414 . S
C907 C910 1.499 . S
C908 H888 0.950 . S
C908 C907 1.414 . S
C908 C909 1.374 . S
C909 H889 0.950 . S
C909 C905 1.385 . S
C909 C908 1.374 . S
C910 C907 1.499 . S
C910 C911 1.373 . S
C910 C912 1.389 . S
C911 H890 0.950 . S
C911 C910 1.373 . S
C911 C927 1.377 . S
C912 C910 1.389 . S
C912 C913 1.524 . S
C912 C926 1.377 . S
C913 C912 1.524 . S
C913 C914 1.397 . S
C913 C918 1.363 . S
C914 H891 0.950 . S
C914 C913 1.397 . S
C914 C915 1.334 . S
C915 H892 0.950 . S
C915 C914 1.334 . S
C915 C916 1.287 . S
C916 C915 1.287 . S
C916 C917 1.524 . S
C916 H935 0.913 . S
C917 H893 0.950 . S
C917 C916 1.524 . S
C917 C918 1.415 . S
C918 H894 0.950 . S
C918 C913 1.363 . S
C918 C917 1.415 . S
C919 H895 0.951 . S
C919 C920 1.366 . S
C919 C921 1.388 . S
C920 C919 1.366 . S
C920 C924 1.385 . S
C921 H896 0.951 . S
C921 C919 1.388 . S
C921 C922 1.366 . S
C922 C921 1.366 . S
C922 C923 1.414 . S
C922 C925 1.499 . S
C923 H897 0.950 . S
C923 C922 1.414 . S
C923 C924 1.374 . S
C924 H898 0.950 . S
C924 C920 1.385 . S
C924 C923 1.374 . S
C925 C922 1.499 . S
C925 C926 1.373 . S
C925 C927 1.389 . S
C926 H899 0.950 . S
C926 C912 1.377 . S
C926 C925 1.373 . S
C927 C911 1.377 . S
C927 C925 1.389 . S
C927 C928 1.524 . S
C928 C927 1.524 . S
C928 C929 1.397 . S
C928 C933 1.363 . S
C929 H900 0.950 . S
C929 C928 1.397 . S
C929 C930 1.334 . S
C930 H901 0.950 . S
C930 C929 1.334 . S
C930 C931 1.287 . S
C931 C930 1.287 . S
C931 C932 1.524 . S
C931 H934 0.999 . S
C932 H902 0.950 . S
C932 C931 1.524 . S
C932 C933 1.415 . S
C933 H903 0.950 . S
C933 C928 1.363 . S
C933 C932 1.415 . S
H934 C931 0.999 . S
H935 C916 0.913 . S
H936 C954 0.951 . S
H937 C956 0.951 . S
H938 C958 0.950 . S
H939 C959 0.950 . S
H940 C961 0.950 . S
H941 C964 0.950 . S
H942 C965 0.950 . S
H943 C967 0.950 . S
H944 C968 0.950 . S
H945 C969 0.951 . S
H946 C971 0.951 . S
H947 C973 0.950 . S
H948 C974 0.950 . S
H949 C976 0.950 . S
H950 C979 0.950 . S
H951 C980 0.950 . S
H952 C982 0.950 . S
H953 C983 0.950 . S
C954 H936 0.951 . S
C954 C955 1.366 . S
C954 C956 1.388 . S
C955 C954 1.366 . S
C955 C959 1.385 . S
C956 H937 0.951 . S
C956 C954 1.388 . S
C956 C957 1.366 . S
C957 C956 1.366 . S
C957 C958 1.414 . S
C957 C960 1.499 . S
C958 H938 0.950 . S
C958 C957 1.414 . S
C958 C959 1.374 . S
C959 H939 0.950 . S
C959 C955 1.385 . S
C959 C958 1.374 . S
C960 C957 1.499 . S
C960 C961 1.373 . S
C960 C962 1.389 . S
C961 H940 0.950 . S
C961 C960 1.373 . S
C961 C977 1.377 . S
C962 C960 1.389 . S
C962 C963 1.524 . S
C962 C976 1.377 . S
C963 C962 1.524 . S
C963 C964 1.397 . S
C963 C968 1.363 . S
C964 H941 0.950 . S
C964 C963 1.397 . S
C964 C965 1.334 . S
C965 H942 0.950 . S
C965 C964 1.334 . S
C965 C966 1.287 . S
C966 C965 1.287 . S
C966 C967 1.524 . S
C966 H985 0.913 . S
C967 H943 0.950 . S
C967 C966 1.524 . S
C967 C968 1.415 . S
C968 H944 0.950 . S
C968 C963 1.363 . S
C968 C967 1.415 . S
C969 H945 0.951 . S
C969 C970 1.366 . S
C969 C971 1.388 . S
C970 C969 1.366 . S
C970 C974 1.385 . S
C971 H946 0.951 . S
C971 C969 1.388 . S
C971 C972 1.366 . S
C972 C971 1.366 . S
C972 C973 1.414 . S
C972 C975 1.499 . S
C973 H947 0.950 . S
C973 C972 1.414 . S
C973 C974 1.374 . S
C974 H948 0.950 . S
C974 C970 1.385 . S
C974 C973 1.374 . S
C975 C972 1.499 . S
C975 C976 1.373 . S
C975 C977 1.389 . S
C976 H949 0.950 . S
C976 C962 1.377 . S
C976 C975 1.373 . S
C977 C961 1.377 . S
C977 C975 1.389 . S
C977 C978 1.524 . S
C978 C977 1.524 . S
C978 C979 1.397 . S
C978 C983 1.363 . S
C979 H950 0.950 . S
C979 C978 1.397 . S
C979 C980 1.334 . S
C980 H951 0.950 . S
C980 C979 1.334 . S
C980 C981 1.287 . S
C981 C980 1.287 . S
C981 C982 1.524 . S
C981 H984 0.999 . S
C982 H952 0.950 . S
C982 C981 1.524 . S
C982 C983 1.415 . S
C983 H953 0.950 . S
C983 C978 1.363 . S
C983 C982 1.415 . S
H984 C981 0.999 . S
H985 C966 0.913 . S
H986 C1004 0.951 . S
H987 C1006 0.951 1_545 S
H988 C1008 0.950 . S
H989 C1009 0.950 . S
H990 C1011 0.950 . S
H991 C1014 0.950 . S
H992 C1015 0.950 . S
H993 C1017 0.950 1_545 S
H994 C1018 0.950 . S
H995 C1019 0.951 . S
H996 C1021 0.951 . S
H997 C1023 0.950 . S
H998 C1024 0.950 . S
H999 C1026 0.950 . S
H1000 C1029 0.950 . S
H1001 C1030 0.950 . S
H1002 C1032 0.950 . S
H1003 C1033 0.950 . S
C1004 H986 0.951 . S
C1004 C1005 1.366 . S
C1004 C1006 1.388 . S
C1005 C1004 1.366 . S
C1005 C1009 1.385 . S
C1006 H987 0.951 1_565 S
C1006 C1004 1.388 . S
C1006 C1007 1.366 . S
C1007 C1006 1.366 . S
C1007 C1008 1.414 . S
C1007 C1010 1.499 1_565 S
C1008 H988 0.950 . S
C1008 C1007 1.414 . S
C1008 C1009 1.374 . S
C1009 H989 0.950 . S
C1009 C1005 1.385 . S
C1009 C1008 1.374 . S
C1010 C1007 1.499 1_545 S
C1010 C1011 1.373 . S
C1010 C1012 1.389 . S
C1011 H990 0.950 . S
C1011 C1010 1.373 . S
C1011 C1027 1.377 . S
C1012 C1010 1.389 . S
C1012 C1013 1.554 . S
C1012 C1026 1.377 . S
C1013 C1012 1.554 . S
C1013 C1014 1.344 1_545 S
C1013 C1018 1.388 . S
C1014 H991 0.950 . S
C1014 C1013 1.344 1_565 S
C1014 C1015 1.334 . S
C1015 H992 0.950 . S
C1015 C1014 1.334 . S
C1015 C1016 1.287 . S
C1016 C1015 1.287 . S
C1016 C1017 1.524 . S
C1016 H1035 0.913 . S
C1017 H993 0.950 1_565 S
C1017 C1016 1.524 . S
C1017 C1018 1.415 1_565 S
C1018 H994 0.950 . S
C1018 C1013 1.388 . S
C1018 C1017 1.415 1_545 S
C1019 H995 0.951 . S
C1019 C1020 1.366 . S
C1019 C1021 1.388 . S
C1020 C1019 1.366 . S
C1020 C1024 1.385 . S
C1021 H996 0.951 . S
C1021 C1019 1.388 . S
C1021 C1022 1.366 . S
C1022 C1021 1.366 . S
C1022 C1023 1.414 . S
C1022 C1025 1.499 . S
C1023 H997 0.950 . S
C1023 C1022 1.414 . S
C1023 C1024 1.374 . S
C1024 H998 0.950 . S
C1024 C1020 1.385 . S
C1024 C1023 1.374 . S
C1025 C1022 1.499 . S
C1025 C1026 1.373 . S
C1025 C1027 1.389 . S
C1026 H999 0.950 . S
C1026 C1012 1.377 . S
C1026 C1025 1.373 . S
C1027 C1011 1.377 . S
C1027 C1025 1.389 . S
C1027 C1028 1.524 . S
C1028 C1027 1.524 . S
C1028 C1029 1.397 . S
C1028 C1033 1.363 . S
C1029 H1000 0.950 . S
C1029 C1028 1.397 . S
C1029 C1030 1.334 . S
C1030 H1001 0.950 . S
C1030 C1029 1.334 . S
C1030 C1031 1.287 . S
C1031 C1030 1.287 . S
C1031 C1032 1.524 . S
C1031 H1034 0.999 . S
C1032 H1002 0.950 . S
C1032 C1031 1.524 . S
C1032 C1033 1.415 . S
C1033 H1003 0.950 . S
C1033 C1028 1.363 . S
C1033 C1032 1.415 . S
H1034 C1031 0.999 . S
H1035 C1016 0.913 . S
H1036 C1054 0.951 . S
H1037 C1056 0.951 . S
H1038 C1058 0.950 . S
H1039 C1059 0.950 . S
H1040 C1061 0.950 . S
H1041 C1064 0.950 . S
H1042 C1065 0.950 . S
H1043 C1067 0.950 . S
H1044 C1068 0.950 . S
H1045 C1069 0.951 . S
H1046 C1071 0.951 . S
H1047 C1073 0.950 . S
H1048 C1074 0.950 . S
H1049 C1076 0.950 . S
H1050 C1079 0.923 1_556 S
H1051 C1080 0.950 . S
H1052 C1082 0.950 . S
H1053 C1083 0.950 . S
C1054 H1036 0.951 . S
C1054 C1055 1.366 . S
C1054 C1056 1.388 . S
C1055 C1054 1.366 . S
C1055 C1059 1.385 . S
C1056 H1037 0.951 . S
C1056 C1054 1.388 . S
C1056 C1057 1.366 . S
C1057 C1056 1.366 . S
C1057 C1058 1.414 . S
C1057 C1060 1.499 . S
C1058 H1038 0.950 . S
C1058 C1057 1.414 . S
C1058 C1059 1.374 . S
C1059 H1039 0.950 . S
C1059 C1055 1.385 . S
C1059 C1058 1.374 . S
C1060 C1057 1.499 . S
C1060 C1061 1.373 . S
C1060 C1062 1.389 . S
C1061 H1040 0.950 . S
C1061 C1060 1.373 . S
C1061 C1077 1.377 . S
C1062 C1060 1.389 . S
C1062 C1063 1.524 . S
C1062 C1076 1.377 . S
C1063 C1062 1.524 . S
C1063 C1064 1.397 . S
C1063 C1068 1.363 . S
C1064 H1041 0.950 . S
C1064 C1063 1.397 . S
C1064 C1065 1.334 . S
C1065 H1042 0.950 . S
C1065 C1064 1.334 . S
C1065 C1066 1.287 . S
C1066 C1065 1.287 . S
C1066 C1067 1.524 . S
C1066 H1085 0.913 . S
C1067 H1043 0.950 . S
C1067 C1066 1.524 . S
C1067 C1068 1.415 . S
C1068 H1044 0.950 . S
C1068 C1063 1.363 . S
C1068 C1067 1.415 . S
C1069 H1045 0.951 . S
C1069 C1070 1.366 . S
C1069 C1071 1.388 . S
C1070 C1069 1.366 . S
C1070 C1074 1.385 . S
C1071 H1046 0.951 . S
C1071 C1069 1.388 . S
C1071 C1072 1.366 . S
C1072 C1071 1.366 . S
C1072 C1073 1.414 1_554 S
C1072 C1075 1.499 1_554 S
C1073 H1047 0.950 . S
C1073 C1072 1.414 1_556 S
C1073 C1074 1.374 1_556 S
C1074 H1048 0.950 . S
C1074 C1070 1.385 . S
C1074 C1073 1.374 1_554 S
C1075 C1072 1.499 1_556 S
C1075 C1076 1.373 . S
C1075 C1077 1.389 . S
C1076 H1049 0.950 . S
C1076 C1062 1.377 . S
C1076 C1075 1.373 . S
C1077 C1061 1.377 . S
C1077 C1075 1.389 . S
C1077 C1078 1.524 1_556 S
C1078 C1077 1.524 1_554 S
C1078 C1079 1.397 . S
C1078 C1083 1.363 . S
C1079 H1050 0.923 1_554 S
C1079 C1078 1.397 . S
C1079 C1080 1.334 . S
C1080 H1051 0.950 . S
C1080 C1079 1.334 . S
C1080 C1081 1.287 . S
C1081 C1080 1.287 . S
C1081 C1082 1.524 . S
C1081 H1084 0.999 . S
C1082 H1052 0.950 . S
C1082 C1081 1.524 . S
C1082 C1083 1.415 . S
C1083 H1053 0.950 . S
C1083 C1078 1.363 . S
C1083 C1082 1.415 . S
H1084 C1081 0.999 . S
H1085 C1066 0.913 . S
H1086 C1104 0.951 . S
H1087 C1106 0.951 . S
H1088 C1108 0.950 . S
H1089 C1109 0.950 . S
H1090 C1111 0.950 . S
H1091 C1114 0.950 . S
H1092 C1115 0.950 . S
H1093 C1117 0.950 . S
H1094 C1118 0.950 1_565 S
H1095 C1119 0.951 . S
H1096 C1121 0.951 . S
H1097 C1123 0.950 . S
H1098 C1124 0.950 . S
H1099 C1126 0.950 . S
H1100 C1129 0.950 . S
H1101 C1130 0.950 . S
H1102 C1132 0.950 . S
H1103 C1133 0.950 . S
C1104 H1086 0.951 . S
C1104 C1105 1.366 . S
C1104 C1106 1.388 . S
C1105 C1104 1.366 . S
C1105 C1109 1.385 . S
C1106 H1087 0.951 . S
C1106 C1104 1.388 . S
C1106 C1107 1.366 . S
C1107 C1106 1.366 . S
C1107 C1108 1.414 . S
C1107 C1110 1.499 1_545 S
C1108 H1088 0.950 . S
C1108 C1107 1.414 . S
C1108 C1109 1.374 . S
C1109 H1089 0.950 . S
C1109 C1105 1.385 . S
C1109 C1108 1.374 . S
C1110 C1107 1.499 1_565 S
C1110 C1111 1.373 . S
C1110 C1112 1.389 . S
C1111 H1090 0.950 . S
C1111 C1110 1.373 . S
C1111 C1127 1.377 . S
C1112 C1110 1.389 . S
C1112 C1113 1.524 1_565 S
C1112 C1126 1.377 . S
C1113 C1112 1.524 1_545 S
C1113 C1114 1.397 . S
C1113 C1118 1.363 . S
C1114 H1091 0.950 . S
C1114 C1113 1.397 . S
C1114 C1115 1.334 . S
C1115 H1092 0.950 . S
C1115 C1114 1.334 . S
C1115 C1116 1.287 . S
C1116 C1115 1.287 . S
C1116 C1117 1.524 . S
C1116 H1135 0.913 . S
C1117 H1093 0.950 . S
C1117 C1116 1.524 . S
C1117 C1118 1.415 . S
C1118 H1094 0.950 1_545 S
C1118 C1113 1.363 . S
C1118 C1117 1.415 . S
C1119 H1095 0.951 . S
C1119 C1120 1.366 . S
C1119 C1121 1.388 . S
C1120 C1119 1.366 . S
C1120 C1124 1.385 . S
C1121 H1096 0.951 . S
C1121 C1119 1.388 . S
C1121 C1122 1.366 . S
C1122 C1121 1.366 . S
C1122 C1123 1.414 . S
C1122 C1125 1.499 . S
C1123 H1097 0.950 . S
C1123 C1122 1.414 . S
C1123 C1124 1.374 . S
C1124 H1098 0.950 . S
C1124 C1120 1.385 . S
C1124 C1123 1.374 . S
C1125 C1122 1.499 . S
C1125 C1126 1.373 . S
C1125 C1127 1.389 . S
C1126 H1099 0.950 . S
C1126 C1112 1.377 . S
C1126 C1125 1.373 . S
C1127 C1111 1.377 . S
C1127 C1125 1.389 . S
C1127 C1128 1.524 . S
C1128 C1127 1.524 . S
C1128 C1129 1.397 . S
C1128 C1133 1.363 . S
C1129 H1100 0.950 . S
C1129 C1128 1.397 . S
C1129 C1130 1.334 . S
C1130 H1101 0.950 . S
C1130 C1129 1.334 . S
C1130 C1131 1.287 . S
C1131 C1130 1.287 . S
C1131 C1132 1.524 . S
C1131 H1134 0.999 . S
C1132 H1102 0.950 . S
C1132 C1131 1.524 . S
C1132 C1133 1.415 . S
C1133 H1103 0.950 . S
C1133 C1128 1.363 . S
C1133 C1132 1.415 . S
H1134 C1131 0.999 . S
H1135 C1116 0.913 . S
H1136 C1154 0.951 . S
H1137 C1156 0.951 . S
H1138 C1158 0.950 . S
H1139 C1159 0.950 . S
H1140 C1161 0.950 . S
H1141 C1164 0.950 . S
H1142 C1165 0.950 . S
H1143 C1167 0.950 . S
H1144 C1168 0.950 . S
H1145 C1169 0.951 . S
H1146 C1171 0.951 . S
H1147 C1173 0.950 . S
H1148 C1174 0.950 . S
H1149 C1176 0.950 . S
H1150 C1179 0.950 . S
H1151 C1180 0.950 . S
H1152 C1182 0.950 . S
H1153 C1183 0.950 . S
C1154 H1136 0.951 . S
C1154 C1155 1.366 . S
C1154 C1156 1.388 . S
C1155 C1154 1.366 . S
C1155 C1159 1.385 . S
C1156 H1137 0.951 . S
C1156 C1154 1.388 . S
C1156 C1157 1.366 . S
C1157 C1156 1.366 . S
C1157 C1158 1.414 . S
C1157 C1160 1.499 . S
C1158 H1138 0.950 . S
C1158 C1157 1.414 . S
C1158 C1159 1.374 . S
C1159 H1139 0.950 . S
C1159 C1155 1.385 . S
C1159 C1158 1.374 . S
C1160 C1157 1.499 . S
C1160 C1161 1.373 . S
C1160 C1162 1.389 . S
C1161 H1140 0.950 . S
C1161 C1160 1.373 . S
C1161 C1177 1.377 . S
C1162 C1160 1.389 . S
C1162 C1163 1.524 . S
C1162 C1176 1.377 . S
C1163 C1162 1.524 . S
C1163 C1164 1.397 . S
C1163 C1168 1.363 . S
C1164 H1141 0.950 . S
C1164 C1163 1.397 . S
C1164 C1165 1.334 . S
C1165 H1142 0.950 . S
C1165 C1164 1.334 . S
C1165 C1166 1.287 . S
C1166 C1165 1.287 . S
C1166 C1167 1.524 . S
C1166 H1185 0.913 . S
C1167 H1143 0.950 . S
C1167 C1166 1.524 . S
C1167 C1168 1.415 . S
C1168 H1144 0.950 . S
C1168 C1163 1.363 . S
C1168 C1167 1.415 . S
C1169 H1145 0.951 . S
C1169 C1170 1.366 . S
C1169 C1171 1.388 . S
C1170 C1169 1.366 . S
C1170 C1174 1.385 . S
C1171 H1146 0.951 . S
C1171 C1169 1.388 . S
C1171 C1172 1.366 . S
C1172 C1171 1.366 . S
C1172 C1173 1.414 . S
C1172 C1175 1.499 . S
C1173 H1147 0.950 . S
C1173 C1172 1.414 . S
C1173 C1174 1.374 . S
C1174 H1148 0.950 . S
C1174 C1170 1.385 . S
C1174 C1173 1.374 . S
C1175 C1172 1.499 . S
C1175 C1176 1.373 . S
C1175 C1177 1.389 . S
C1176 H1149 0.950 . S
C1176 C1162 1.377 . S
C1176 C1175 1.373 . S
C1177 C1161 1.377 . S
C1177 C1175 1.389 . S
C1177 C1178 1.524 . S
C1178 C1177 1.524 . S
C1178 C1179 1.397 . S
C1178 C1183 1.363 . S
C1179 H1150 0.950 . S
C1179 C1178 1.397 . S
C1179 C1180 1.334 . S
C1180 H1151 0.950 . S
C1180 C1179 1.334 . S
C1180 C1181 1.287 . S
C1181 C1180 1.287 . S
C1181 C1182 1.524 . S
C1181 H1184 0.999 . S
C1182 H1152 0.950 . S
C1182 C1181 1.524 . S
C1182 C1183 1.415 . S
C1183 H1153 0.950 . S
C1183 C1178 1.363 . S
C1183 C1182 1.415 . S
H1184 C1181 0.999 . S
H1185 C1166 0.913 . S
H1186 C1204 0.951 . S
H1187 C1206 0.951 . S
H1188 C1208 0.950 . S
H1189 C1209 0.950 . S
H1190 C1211 0.950 . S
H1191 C1214 0.950 . S
H1192 C1215 0.950 . S
H1193 C1217 0.950 . S
H1194 C1218 0.950 . S
H1195 C1219 0.951 . S
H1196 C1221 0.951 . S
H1197 C1223 0.950 . S
H1198 C1224 0.950 . S
H1199 C1226 0.950 . S
H1200 C1229 0.950 . S
H1201 C1230 0.950 . S
H1202 C1232 0.950 . S
H1203 C1233 0.950 . S
C1204 H1186 0.951 . S
C1204 C1205 1.366 . S
C1204 C1206 1.388 . S
C1205 C1204 1.366 . S
C1205 C1209 1.385 . S
C1206 H1187 0.951 . S
C1206 C1204 1.388 . S
C1206 C1207 1.366 . S
C1207 C1206 1.366 . S
C1207 C1208 1.414 . S
C1207 C1210 1.499 . S
C1208 H1188 0.950 . S
C1208 C1207 1.414 . S
C1208 C1209 1.374 . S
C1209 H1189 0.950 . S
C1209 C1205 1.385 . S
C1209 C1208 1.374 . S
C1210 C1207 1.499 . S
C1210 C1211 1.373 . S
C1210 C1212 1.389 . S
C1211 H1190 0.950 . S
C1211 C1210 1.373 . S
C1211 C1227 1.377 . S
C1212 C1210 1.389 . S
C1212 C1213 1.524 . S
C1212 C1226 1.377 . S
C1213 C1212 1.524 . S
C1213 C1214 1.397 . S
C1213 C1218 1.363 . S
C1214 H1191 0.950 . S
C1214 C1213 1.397 . S
C1214 C1215 1.334 . S
C1215 H1192 0.950 . S
C1215 C1214 1.334 . S
C1215 C1216 1.287 . S
C1216 C1215 1.287 . S
C1216 C1217 1.524 . S
C1216 H1235 0.913 . S
C1217 H1193 0.950 . S
C1217 C1216 1.524 . S
C1217 C1218 1.415 . S
C1218 H1194 0.950 . S
C1218 C1213 1.363 . S
C1218 C1217 1.415 . S
C1219 H1195 0.951 . S
C1219 C1220 1.366 . S
C1219 C1221 1.388 . S
C1220 C1219 1.366 . S
C1220 C1224 1.385 . S
C1221 H1196 0.951 . S
C1221 C1219 1.388 . S
C1221 C1222 1.366 . S
C1222 C1221 1.366 . S
C1222 C1223 1.414 . S
C1222 C1225 1.499 . S
C1223 H1197 0.950 . S
C1223 C1222 1.414 . S
C1223 C1224 1.374 . S
C1224 H1198 0.950 . S
C1224 C1220 1.385 . S
C1224 C1223 1.374 . S
C1225 C1222 1.499 . S
C1225 C1226 1.373 . S
C1225 C1227 1.389 . S
C1226 H1199 0.950 . S
C1226 C1212 1.377 . S
C1226 C1225 1.373 . S
C1227 C1211 1.377 . S
C1227 C1225 1.389 . S
C1227 C1228 1.524 . S
C1228 C1227 1.524 . S
C1228 C1229 1.397 . S
C1228 C1233 1.363 . S
C1229 H1200 0.950 . S
C1229 C1228 1.397 . S
C1229 C1230 1.334 . S
C1230 H1201 0.950 . S
C1230 C1229 1.334 . S
C1230 C1231 1.287 . S
C1231 C1230 1.287 . S
C1231 C1232 1.524 . S
C1231 H1234 0.999 . S
C1232 H1202 0.950 . S
C1232 C1231 1.524 . S
C1232 C1233 1.415 . S
C1233 H1203 0.950 . S
C1233 C1228 1.363 . S
C1233 C1232 1.415 . S
H1234 C1231 0.999 . S
H1235 C1216 0.913 . S
H1236 C1254 0.951 . S
H1237 C1256 0.951 1_554 S
H1238 C1258 0.950 . S
H1239 C1259 0.950 . S
H1240 C1261 0.950 1_556 S
H1241 C1264 0.950 . S
H1242 C1265 0.950 . S
H1243 C1267 0.950 . S
H1244 C1268 0.950 . S
H1245 C1269 0.951 . S
H1246 C1271 0.951 . S
H1247 C1273 0.950 . S
H1248 C1274 0.950 . S
H1249 C1276 0.950 . S
H1250 C1279 0.950 . S
H1251 C1280 0.950 . S
H1252 C1282 0.950 . S
H1253 C1283 0.950 . S
C1254 H1236 0.951 . S
C1254 C1255 1.366 . S
C1254 C1256 1.388 . S
C1255 C1254 1.366 . S
C1255 C1259 1.385 . S
C1256 H1237 0.951 1_556 S
C1256 C1254 1.388 . S
C1256 C1257 1.366 . S
C1257 C1256 1.366 . S
C1257 C1258 1.414 . S
C1257 C1260 1.499 1_556 S
C1258 H1238 0.950 . S
C1258 C1257 1.414 . S
C1258 C1259 1.374 . S
C1259 H1239 0.950 . S
C1259 C1255 1.385 . S
C1259 C1258 1.374 . S
C1260 C1257 1.499 1_554 S
C1260 C1261 1.373 . S
C1260 C1262 1.389 . S
C1261 H1240 0.950 1_554 S
C1261 C1260 1.373 . S
C1261 C1277 1.377 . S
C1262 C1260 1.389 . S
C1262 C1263 1.524 . S
C1262 C1276 1.377 . S
C1263 C1262 1.524 . S
C1263 C1264 1.397 . S
C1263 C1268 1.363 . S
C1264 H1241 0.950 . S
C1264 C1263 1.397 . S
C1264 C1265 1.334 . S
C1265 H1242 0.950 . S
C1265 C1264 1.334 . S
C1265 C1266 1.287 . S
C1266 C1265 1.287 . S
C1266 C1267 1.524 . S
C1266 H1285 0.913 . S
C1267 H1243 0.950 . S
C1267 C1266 1.524 . S
C1267 C1268 1.415 . S
C1268 H1244 0.950 . S
C1268 C1263 1.363 . S
C1268 C1267 1.415 . S
C1269 H1245 0.951 . S
C1269 C1270 1.366 . S
C1269 C1271 1.388 . S
C1270 C1269 1.366 . S
C1270 C1274 1.385 . S
C1271 H1246 0.951 . S
C1271 C1269 1.388 . S
C1271 C1272 1.366 . S
C1272 C1271 1.366 . S
C1272 C1273 1.414 . S
C1272 C1275 1.499 . S
C1273 H1247 0.950 . S
C1273 C1272 1.414 . S
C1273 C1274 1.374 . S
C1274 H1248 0.950 . S
C1274 C1270 1.385 . S
C1274 C1273 1.374 . S
C1275 C1272 1.499 . S
C1275 C1276 1.373 . S
C1275 C1277 1.389 . S
C1276 H1249 0.950 . S
C1276 C1262 1.377 . S
C1276 C1275 1.373 . S
C1277 C1261 1.377 . S
C1277 C1275 1.389 . S
C1277 C1278 1.524 . S
C1278 C1277 1.524 . S
C1278 C1279 1.397 . S
C1278 C1283 1.363 1_554 S
C1279 H1250 0.950 . S
C1279 C1278 1.397 . S
C1279 C1280 1.332 . S
C1280 H1251 0.950 . S
C1280 C1279 1.332 . S
C1280 C1281 1.289 1_554 S
C1281 C1280 1.289 1_556 S
C1281 C1282 1.524 . S
C1281 H1284 0.999 . S
C1282 H1252 0.950 . S
C1282 C1281 1.524 . S
C1282 C1283 1.415 . S
C1283 H1253 0.950 . S
C1283 C1278 1.363 1_556 S
C1283 C1282 1.415 . S
H1284 C1281 0.999 . S
H1285 C1266 0.913 . S
H1286 C1304 0.951 . S
H1287 C1306 0.951 . S
H1288 C1308 0.950 . S
H1289 C1309 0.950 . S
H1290 C1311 0.950 . S
H1291 C1314 0.950 . S
H1292 C1315 0.950 . S
H1293 C1317 0.950 . S
H1294 C1318 0.950 . S
H1295 C1319 0.951 . S
H1296 C1321 0.951 . S
H1297 C1323 0.950 . S
H1298 C1324 0.950 . S
H1299 C1326 0.950 . S
H1300 C1329 0.950 . S
H1301 C1330 0.950 . S
H1302 C1332 0.950 . S
H1303 C1333 0.950 . S
C1304 H1286 0.951 . S
C1304 C1305 1.366 . S
C1304 C1306 1.388 . S
C1305 C1304 1.366 . S
C1305 C1309 1.385 . S
C1306 H1287 0.951 . S
C1306 C1304 1.388 . S
C1306 C1307 1.366 . S
C1307 C1306 1.366 . S
C1307 C1308 1.414 . S
C1307 C1310 1.499 . S
C1308 H1288 0.950 . S
C1308 C1307 1.414 . S
C1308 C1309 1.374 . S
C1309 H1289 0.950 . S
C1309 C1305 1.385 . S
C1309 C1308 1.374 . S
C1310 C1307 1.499 . S
C1310 C1311 1.373 . S
C1310 C1312 1.389 . S
C1311 H1290 0.950 . S
C1311 C1310 1.373 . S
C1311 C1327 1.377 . S
C1312 C1310 1.389 . S
C1312 C1313 1.524 . S
C1312 C1326 1.377 . S
C1313 C1312 1.524 . S
C1313 C1314 1.397 . S
C1313 C1318 1.363 . S
C1314 H1291 0.950 . S
C1314 C1313 1.397 . S
C1314 C1315 1.334 . S
C1315 H1292 0.950 . S
C1315 C1314 1.334 . S
C1315 C1316 1.287 . S
C1316 C1315 1.287 . S
C1316 C1317 1.524 . S
C1316 H1335 0.913 . S
C1317 H1293 0.950 . S
C1317 C1316 1.524 . S
C1317 C1318 1.415 . S
C1318 H1294 0.950 . S
C1318 C1313 1.363 . S
C1318 C1317 1.415 . S
C1319 H1295 0.951 . S
C1319 C1320 1.366 . S
C1319 C1321 1.388 . S
C1320 C1319 1.366 . S
C1320 C1324 1.385 . S
C1321 H1296 0.951 . S
C1321 C1319 1.388 . S
C1321 C1322 1.366 . S
C1322 C1321 1.366 . S
C1322 C1323 1.414 . S
C1322 C1325 1.499 . S
C1323 H1297 0.950 . S
C1323 C1322 1.414 . S
C1323 C1324 1.374 . S
C1324 H1298 0.950 . S
C1324 C1320 1.385 . S
C1324 C1323 1.374 . S
C1325 C1322 1.499 . S
C1325 C1326 1.373 . S
C1325 C1327 1.389 . S
C1326 H1299 0.950 . S
C1326 C1312 1.377 . S
C1326 C1325 1.373 . S
C1327 C1311 1.377 . S
C1327 C1325 1.389 . S
C1327 C1328 1.524 . S
C1328 C1327 1.524 . S
C1328 C1329 1.397 . S
C1328 C1333 1.363 . S
C1329 H1300 0.950 . S
C1329 C1328 1.397 . S
C1329 C1330 1.334 . S
C1330 H1301 0.950 . S
C1330 C1329 1.334 . S
C1330 C1331 1.287 . S
C1331 C1330 1.287 . S
C1331 C1332 1.524 . S
C1331 H1334 0.999 . S
C1332 H1302 0.950 . S
C1332 C1331 1.524 . S
C1332 C1333 1.415 . S
C1333 H1303 0.950 . S
C1333 C1328 1.363 . S
C1333 C1332 1.415 . S
H1334 C1331 0.999 . S
H1335 C1316 0.913 . S
H1336 C1354 0.951 . S
H1337 C1356 0.951 . S
H1338 C1358 0.950 . S
H1339 C1359 0.950 . S
H1340 C1361 0.950 . S
H1341 C1364 0.950 . S
H1342 C1365 0.950 . S
H1343 C1367 0.950 . S
H1344 C1368 0.950 . S
H1345 C1369 0.951 . S
H1346 C1371 0.951 . S
H1347 C1373 0.950 . S
H1348 C1374 0.950 . S
H1349 C1376 0.950 . S
H1350 C1379 0.950 . S
H1351 C1380 0.950 . S
H1352 C1382 0.950 . S
H1353 C1383 0.950 . S
C1354 H1336 0.951 . S
C1354 C1355 1.366 . S
C1354 C1356 1.388 . S
C1355 C1354 1.366 . S
C1355 C1359 1.385 . S
C1356 H1337 0.951 . S
C1356 C1354 1.388 . S
C1356 C1357 1.366 . S
C1357 C1356 1.366 . S
C1357 C1358 1.414 . S
C1357 C1360 1.499 . S
C1358 H1338 0.950 . S
C1358 C1357 1.414 . S
C1358 C1359 1.374 . S
C1359 H1339 0.950 . S
C1359 C1355 1.385 . S
C1359 C1358 1.374 . S
C1360 C1357 1.499 . S
C1360 C1361 1.373 . S
C1360 C1362 1.389 . S
C1361 H1340 0.950 . S
C1361 C1360 1.373 . S
C1361 C1377 1.377 . S
C1362 C1360 1.389 . S
C1362 C1363 1.524 . S
C1362 C1376 1.377 . S
C1363 C1362 1.524 . S
C1363 C1364 1.397 . S
C1363 C1368 1.363 . S
C1364 H1341 0.950 . S
C1364 C1363 1.397 . S
C1364 C1365 1.334 . S
C1365 H1342 0.950 . S
C1365 C1364 1.334 . S
C1365 C1366 1.287 . S
C1366 C1365 1.287 . S
C1366 C1367 1.524 . S
C1366 H1385 0.913 . S
C1367 H1343 0.950 . S
C1367 C1366 1.524 . S
C1367 C1368 1.415 . S
C1368 H1344 0.950 . S
C1368 C1363 1.363 . S
C1368 C1367 1.415 . S
C1369 H1345 0.951 . S
C1369 C1370 1.366 . S
C1369 C1371 1.388 . S
C1370 C1369 1.366 . S
C1370 C1374 1.385 . S
C1371 H1346 0.951 . S
C1371 C1369 1.388 . S
C1371 C1372 1.366 . S
C1372 C1371 1.366 . S
C1372 C1373 1.414 . S
C1372 C1375 1.499 . S
C1373 H1347 0.950 . S
C1373 C1372 1.414 . S
C1373 C1374 1.374 . S
C1374 H1348 0.950 . S
C1374 C1370 1.385 . S
C1374 C1373 1.374 . S
C1375 C1372 1.499 . S
C1375 C1376 1.373 . S
C1375 C1377 1.389 . S
C1376 H1349 0.950 . S
C1376 C1362 1.377 . S
C1376 C1375 1.373 . S
C1377 C1361 1.377 . S
C1377 C1375 1.389 . S
C1377 C1378 1.524 . S
C1378 C1377 1.524 . S
C1378 C1379 1.397 . S
C1378 C1383 1.363 . S
C1379 H1350 0.950 . S
C1379 C1378 1.397 . S
C1379 C1380 1.334 . S
C1380 H1351 0.950 . S
C1380 C1379 1.334 . S
C1380 C1381 1.287 . S
C1381 C1380 1.287 . S
C1381 C1382 1.524 . S
C1381 H1384 0.999 . S
C1382 H1352 0.950 . S
C1382 C1381 1.524 . S
C1382 C1383 1.415 . S
C1383 H1353 0.950 . S
C1383 C1378 1.363 . S
C1383 C1382 1.415 . S
H1384 C1381 0.999 . S
H1385 C1366 0.913 . S
H1386 C1404 0.951 . S
H1387 C1406 0.951 . S
H1388 C1408 0.950 . S
H1389 C1409 0.950 . S
H1390 C1411 0.950 . S
H1391 C1414 0.950 . S
H1392 C1415 0.950 . S
H1393 C1417 0.950 . S
H1394 C1418 0.950 . S
H1395 C1419 0.951 . S
H1396 C1421 0.951 . S
H1397 C1423 0.950 . S
H1398 C1424 0.950 . S
H1399 C1426 0.950 . S
H1400 C1429 0.950 . S
H1401 C1430 0.950 . S
H1402 C1432 0.950 . S
H1403 C1433 0.950 . S
C1404 H1386 0.951 . S
C1404 C1405 1.366 . S
C1404 C1406 1.388 . S
C1405 C1404 1.366 . S
C1405 C1409 1.385 . S
C1406 H1387 0.951 . S
C1406 C1404 1.388 . S
C1406 C1407 1.366 . S
C1407 C1406 1.366 . S
C1407 C1408 1.414 1_455 S
C1407 C1410 1.499 1_455 S
C1408 H1388 0.950 . S
C1408 C1407 1.414 1_655 S
C1408 C1409 1.374 1_655 S
C1409 H1389 0.950 . S
C1409 C1405 1.385 . S
C1409 C1408 1.374 1_455 S
C1410 C1407 1.499 1_655 S
C1410 C1411 1.373 . S
C1410 C1412 1.389 . S
C1411 H1390 0.950 . S
C1411 C1410 1.373 . S
C1411 C1427 1.377 . S
C1412 C1410 1.389 . S
C1412 C1413 1.524 1_655 S
C1412 C1426 1.377 . S
C1413 C1412 1.524 1_455 S
C1413 C1414 1.397 . S
C1413 C1418 1.363 . S
C1414 H1391 0.950 . S
C1414 C1413 1.397 . S
C1414 C1415 1.334 . S
C1415 H1392 0.950 . S
C1415 C1414 1.334 . S
C1415 C1416 1.287 . S
C1416 C1415 1.287 . S
C1416 C1417 1.524 . S
C1416 H1435 0.913 . S
C1417 H1393 0.950 . S
C1417 C1416 1.524 . S
C1417 C1418 1.415 . S
C1418 H1394 0.950 . S
C1418 C1413 1.363 . S
C1418 C1417 1.415 . S
C1419 H1395 0.951 . S
C1419 C1420 1.366 . S
C1419 C1421 1.388 . S
C1420 C1419 1.366 . S
C1420 C1424 1.385 . S
C1421 H1396 0.951 . S
C1421 C1419 1.388 . S
C1421 C1422 1.366 . S
C1422 C1421 1.366 . S
C1422 C1423 1.414 . S
C1422 C1425 1.499 . S
C1423 H1397 0.950 . S
C1423 C1422 1.414 . S
C1423 C1424 1.374 . S
C1424 H1398 0.950 . S
C1424 C1420 1.385 . S
C1424 C1423 1.374 . S
C1425 C1422 1.499 . S
C1425 C1426 1.373 . S
C1425 C1427 1.389 . S
C1426 H1399 0.950 . S
C1426 C1412 1.377 . S
C1426 C1425 1.373 . S
C1427 C1411 1.377 . S
C1427 C1425 1.389 . S
C1427 C1428 1.524 . S
C1428 C1427 1.524 . S
C1428 C1429 1.397 . S
C1428 C1433 1.363 . S
C1429 H1400 0.950 . S
C1429 C1428 1.397 . S
C1429 C1430 1.334 . S
C1430 H1401 0.950 . S
C1430 C1429 1.334 . S
C1430 C1431 1.287 . S
C1431 C1430 1.287 . S
C1431 C1432 1.524 . S
C1431 H1434 0.999 . S
C1432 H1402 0.950 . S
C1432 C1431 1.524 . S
C1432 C1433 1.415 . S
C1433 H1403 0.950 . S
C1433 C1428 1.363 . S
C1433 C1432 1.415 . S
H1434 C1431 0.999 . S
H1435 C1416 0.913 . S
H1436 C1454 0.951 . S
H1437 C1456 0.951 . S
H1438 C1458 0.950 . S
H1439 C1459 0.950 . S
H1440 C1461 0.950 1_655 S
H1441 C1464 0.950 . S
H1442 C1465 0.950 . S
H1443 C1467 0.950 . S
H1444 C1468 0.950 . S
H1445 C1469 0.951 . S
H1446 C1471 0.951 . S
H1447 C1473 0.950 . S
H1448 C1474 0.950 . S
H1449 C1476 0.950 . S
H1450 C1479 0.950 . S
H1451 C1480 0.950 . S
H1452 C1482 0.950 . S
H1453 C1483 0.950 . S
C1454 H1436 0.951 . S
C1454 C1455 1.366 . S
C1454 C1456 1.388 1_655 S
C1455 C1454 1.366 . S
C1455 C1459 1.385 . S
C1456 H1437 0.951 . S
C1456 C1454 1.388 1_455 S
C1456 C1457 1.366 1_455 S
C1457 C1456 1.366 1_655 S
C1457 C1458 1.414 . S
C1457 C1460 1.499 1_655 S
C1458 H1438 0.950 . S
C1458 C1457 1.414 . S
C1458 C1459 1.374 . S
C1459 H1439 0.950 . S
C1459 C1455 1.385 . S
C1459 C1458 1.374 . S
C1460 C1457 1.499 1_455 S
C1460 C1461 1.373 . S
C1460 C1462 1.389 . S
C1461 H1440 0.950 1_455 S
C1461 C1460 1.373 . S
C1461 C1477 1.377 . S
C1462 C1460 1.389 . S
C1462 C1463 1.524 . S
C1462 C1476 1.377 . S
C1463 C1462 1.524 . S
C1463 C1464 1.397 . S
C1463 C1468 1.363 . S
C1464 H1441 0.950 . S
C1464 C1463 1.397 . S
C1464 C1465 1.334 . S
C1465 H1442 0.950 . S
C1465 C1464 1.334 . S
C1465 C1466 1.287 . S
C1466 C1465 1.287 . S
C1466 C1467 1.524 . S
C1466 H1485 0.913 . S
C1467 H1443 0.950 . S
C1467 C1466 1.524 . S
C1467 C1468 1.415 . S
C1468 H1444 0.950 . S
C1468 C1463 1.363 . S
C1468 C1467 1.415 . S
C1469 H1445 0.951 . S
C1469 C1470 1.366 . S
C1469 C1471 1.388 . S
C1470 C1469 1.366 . S
C1470 C1474 1.385 . S
C1471 H1446 0.951 . S
C1471 C1469 1.388 . S
C1471 C1472 1.366 . S
C1472 C1471 1.366 . S
C1472 C1473 1.414 . S
C1472 C1475 1.499 . S
C1473 H1447 0.950 . S
C1473 C1472 1.414 . S
C1473 C1474 1.374 . S
C1474 H1448 0.950 . S
C1474 C1470 1.385 . S
C1474 C1473 1.374 . S
C1475 C1472 1.499 . S
C1475 C1476 1.373 . S
C1475 C1477 1.389 . S
C1476 H1449 0.950 . S
C1476 C1462 1.377 . S
C1476 C1475 1.373 . S
C1477 C1461 1.377 . S
C1477 C1475 1.389 . S
C1477 C1478 1.524 . S
C1478 C1477 1.524 . S
C1478 C1479 1.397 . S
C1478 C1483 1.363 1_455 S
C1479 H1450 0.950 . S
C1479 C1478 1.397 . S
C1479 C1480 1.334 . S
C1480 H1451 0.950 . S
C1480 C1479 1.334 . S
C1480 C1481 1.287 1_455 S
C1481 C1480 1.287 1_655 S
C1481 C1482 1.524 . S
C1481 H1484 0.999 . S
C1482 H1452 0.950 . S
C1482 C1481 1.524 . S
C1482 C1483 1.415 . S
C1483 H1453 0.950 . S
C1483 C1478 1.363 1_655 S
C1483 C1482 1.415 . S
H1484 C1481 0.999 . S
H1485 C1466 0.913 . S
H1486 C1504 0.951 . S
H1487 C1506 0.951 . S
H1488 C1508 0.950 . S
H1489 C1509 0.950 . S
H1490 C1511 0.950 . S
H1491 C1514 0.950 . S
H1492 C1515 0.950 . S
H1493 C1517 0.950 . S
H1494 C1518 0.950 . S
H1495 C1519 0.951 . S
H1496 C1521 0.951 . S
H1497 C1523 0.950 . S
H1498 C1524 0.950 . S
H1499 C1526 0.950 . S
H1500 C1529 0.950 . S
H1501 C1530 0.950 . S
H1502 C1532 0.950 . S
H1503 C1533 0.950 . S
C1504 H1486 0.951 . S
C1504 C1505 1.366 . S
C1504 C1506 1.388 . S
C1505 C1504 1.366 . S
C1505 C1509 1.385 . S
C1506 H1487 0.951 . S
C1506 C1504 1.388 . S
C1506 C1507 1.366 . S
C1507 C1506 1.366 . S
C1507 C1508 1.414 . S
C1507 C1510 1.499 . S
C1508 H1488 0.950 . S
C1508 C1507 1.414 . S
C1508 C1509 1.374 . S
C1509 H1489 0.950 . S
C1509 C1505 1.385 . S
C1509 C1508 1.374 . S
C1510 C1507 1.499 . S
C1510 C1511 1.373 . S
C1510 C1512 1.389 . S
C1511 H1490 0.950 . S
C1511 C1510 1.373 . S
C1511 C1527 1.377 . S
C1512 C1510 1.389 . S
C1512 C1513 1.524 . S
C1512 C1526 1.377 . S
C1513 C1512 1.524 . S
C1513 C1514 1.397 . S
C1513 C1518 1.363 . S
C1514 H1491 0.950 . S
C1514 C1513 1.397 . S
C1514 C1515 1.334 . S
C1515 H1492 0.950 . S
C1515 C1514 1.334 . S
C1515 C1516 1.287 . S
C1516 C1515 1.287 . S
C1516 C1517 1.524 . S
C1516 H1535 0.913 . S
C1517 H1493 0.950 . S
C1517 C1516 1.524 . S
C1517 C1518 1.415 . S
C1518 H1494 0.950 . S
C1518 C1513 1.363 . S
C1518 C1517 1.415 . S
C1519 H1495 0.951 . S
C1519 C1520 1.366 . S
C1519 C1521 1.388 . S
C1520 C1519 1.366 . S
C1520 C1524 1.385 . S
C1521 H1496 0.951 . S
C1521 C1519 1.388 . S
C1521 C1522 1.366 . S
C1522 C1521 1.366 . S
C1522 C1523 1.414 . S
C1522 C1525 1.499 . S
C1523 H1497 0.950 . S
C1523 C1522 1.414 . S
C1523 C1524 1.374 . S
C1524 H1498 0.950 . S
C1524 C1520 1.385 . S
C1524 C1523 1.374 . S
C1525 C1522 1.499 . S
C1525 C1526 1.373 . S
C1525 C1527 1.389 . S
C1526 H1499 0.950 . S
C1526 C1512 1.377 . S
C1526 C1525 1.373 . S
C1527 C1511 1.377 . S
C1527 C1525 1.389 . S
C1527 C1528 1.524 . S
C1528 C1527 1.524 . S
C1528 C1529 1.397 . S
C1528 C1533 1.363 . S
C1529 H1500 0.950 . S
C1529 C1528 1.397 . S
C1529 C1530 1.334 . S
C1530 H1501 0.950 . S
C1530 C1529 1.334 . S
C1530 C1531 1.287 . S
C1531 C1530 1.287 . S
C1531 C1532 1.524 . S
C1531 H1534 0.999 . S
C1532 H1502 0.950 . S
C1532 C1531 1.524 . S
C1532 C1533 1.415 . S
C1533 H1503 0.950 . S
C1533 C1528 1.363 . S
C1533 C1532 1.415 . S
H1534 C1531 0.999 . S
H1535 C1516 0.913 . S
H1536 C1554 0.951 . S
H1537 C1556 0.951 . S
H1538 C1558 0.950 . S
H1539 C1559 0.950 . S
H1540 C1561 0.950 . S
H1541 C1564 0.950 . S
H1542 C1565 0.950 . S
H1543 C1567 0.950 . S
H1544 C1568 0.950 . S
H1545 C1569 0.951 . S
H1546 C1571 0.951 . S
H1547 C1573 0.950 . S
H1548 C1574 0.950 . S
H1549 C1576 0.950 . S
H1550 C1579 0.950 . S
H1551 C1580 0.950 . S
H1552 C1582 0.950 . S
H1553 C1583 0.950 . S
C1554 H1536 0.951 . S
C1554 C1555 1.366 . S
C1554 C1556 1.388 . S
C1555 C1554 1.366 . S
C1555 C1559 1.385 . S
C1556 H1537 0.951 . S
C1556 C1554 1.388 . S
C1556 C1557 1.366 . S
C1557 C1556 1.366 . S
C1557 C1558 1.414 . S
C1557 C1560 1.499 . S
C1558 H1538 0.950 . S
C1558 C1557 1.414 . S
C1558 C1559 1.374 . S
C1559 H1539 0.950 . S
C1559 C1555 1.385 . S
C1559 C1558 1.374 . S
C1560 C1557 1.499 . S
C1560 C1561 1.373 . S
C1560 C1562 1.389 . S
C1561 H1540 0.950 . S
C1561 C1560 1.373 . S
C1561 C1577 1.377 . S
C1562 C1560 1.389 . S
C1562 C1563 1.524 . S
C1562 C1576 1.377 . S
C1563 C1562 1.524 . S
C1563 C1564 1.397 . S
C1563 C1568 1.363 . S
C1564 H1541 0.950 . S
C1564 C1563 1.397 . S
C1564 C1565 1.334 . S
C1565 H1542 0.950 . S
C1565 C1564 1.334 . S
C1565 C1566 1.287 . S
C1566 C1565 1.287 . S
C1566 C1567 1.524 . S
C1566 H1585 0.913 . S
C1567 H1543 0.950 . S
C1567 C1566 1.524 . S
C1567 C1568 1.415 . S
C1568 H1544 0.950 . S
C1568 C1563 1.363 . S
C1568 C1567 1.415 . S
C1569 H1545 0.951 . S
C1569 C1570 1.366 . S
C1569 C1571 1.388 . S
C1570 C1569 1.366 . S
C1570 C1574 1.385 . S
C1571 H1546 0.951 . S
C1571 C1569 1.388 . S
C1571 C1572 1.366 . S
C1572 C1571 1.366 . S
C1572 C1573 1.414 . S
C1572 C1575 1.499 . S
C1573 H1547 0.950 . S
C1573 C1572 1.414 . S
C1573 C1574 1.374 . S
C1574 H1548 0.950 . S
C1574 C1570 1.385 . S
C1574 C1573 1.374 . S
C1575 C1572 1.499 . S
C1575 C1576 1.373 . S
C1575 C1577 1.389 . S
C1576 H1549 0.950 . S
C1576 C1562 1.377 . S
C1576 C1575 1.373 . S
C1577 C1561 1.377 . S
C1577 C1575 1.389 . S
C1577 C1578 1.524 . S
C1578 C1577 1.524 . S
C1578 C1579 1.397 . S
C1578 C1583 1.363 . S
C1579 H1550 0.950 . S
C1579 C1578 1.397 . S
C1579 C1580 1.334 . S
C1580 H1551 0.950 . S
C1580 C1579 1.334 . S
C1580 C1581 1.287 . S
C1581 C1580 1.287 . S
C1581 C1582 1.524 . S
C1581 H1584 0.999 . S
C1582 H1552 0.950 . S
C1582 C1581 1.524 . S
C1582 C1583 1.415 . S
C1583 H1553 0.950 . S
C1583 C1578 1.363 . S
C1583 C1582 1.415 . S
H1584 C1581 0.999 . S
H1585 C1566 0.913 . S
H1586 C1604 0.941 1_565 S
H1587 C1606 0.951 . S
H1588 C1608 0.950 . S
H1589 C1609 0.950 . S
H1590 C1611 0.955 1_545 S
H1591 C1614 0.950 . S
H1592 C1615 0.950 . S
H1593 C1617 0.950 . S
H1594 C1618 0.950 . S
H1595 C1619 0.951 . S
H1596 C1621 0.951 . S
H1597 C1623 0.950 . S
H1598 C1624 0.950 . S
H1599 C1626 0.950 . S
H1600 C1629 0.950 1_565 S
H1601 C1630 0.950 . S
H1602 C1632 0.950 . S
H1603 C1633 0.950 . S
C1604 H1586 0.941 1_545 S
C1604 C1605 1.400 . S
C1604 C1606 1.367 1_545 S
C1605 C1604 1.400 . S
C1605 C1609 1.385 . S
C1606 H1587 0.951 . S
C1606 C1604 1.367 1_565 S
C1606 C1607 1.366 . S
C1607 C1606 1.366 . S
C1607 C1608 1.414 1_565 S
C1607 C1610 1.499 . S
C1608 H1588 0.950 . S
C1608 C1607 1.414 1_545 S
C1608 C1609 1.374 . S
C1609 H1589 0.950 . S
C1609 C1605 1.385 . S
C1609 C1608 1.374 . S
C1610 C1607 1.499 . S
C1610 C1611 1.370 . S
C1610 C1612 1.389 . S
C1611 H1590 0.955 1_565 S
C1611 C1610 1.370 . S
C1611 C1627 1.375 . S
C1612 C1610 1.389 . S
C1612 C1613 1.524 . S
C1612 C1626 1.377 . S
C1613 C1612 1.524 . S
C1613 C1614 1.397 . S
C1613 C1618 1.363 . S
C1614 H1591 0.950 . S
C1614 C1613 1.397 . S
C1614 C1615 1.334 . S
C1615 H1592 0.950 . S
C1615 C1614 1.334 . S
C1615 C1616 1.287 . S
C1616 C1615 1.287 . S
C1616 C1617 1.524 . S
C1616 H1635 0.913 . S
C1617 H1593 0.950 . S
C1617 C1616 1.524 . S
C1617 C1618 1.415 . S
C1618 H1594 0.950 . S
C1618 C1613 1.363 . S
C1618 C1617 1.415 . S
C1619 H1595 0.951 . S
C1619 C1620 1.366 . S
C1619 C1621 1.388 . S
C1620 C1619 1.366 . S
C1620 C1624 1.385 . S
C1621 H1596 0.951 . S
C1621 C1619 1.388 . S
C1621 C1622 1.366 . S
C1622 C1621 1.366 . S
C1622 C1623 1.414 . S
C1622 C1625 1.499 . S
C1623 H1597 0.950 . S
C1623 C1622 1.414 . S
C1623 C1624 1.374 . S
C1624 H1598 0.950 . S
C1624 C1620 1.385 . S
C1624 C1623 1.374 . S
C1625 C1622 1.499 . S
C1625 C1626 1.373 . S
C1625 C1627 1.389 . S
C1626 H1599 0.950 . S
C1626 C1612 1.377 . S
C1626 C1625 1.373 . S
C1627 C1611 1.375 . S
C1627 C1625 1.389 . S
C1627 C1628 1.524 1_565 S
C1628 C1627 1.524 1_545 S
C1628 C1629 1.397 . S
C1628 C1633 1.363 . S
C1629 H1600 0.950 1_545 S
C1629 C1628 1.397 . S
C1629 C1630 1.334 . S
C1630 H1601 0.950 . S
C1630 C1629 1.334 . S
C1630 C1631 1.287 . S
C1631 C1630 1.287 . S
C1631 C1632 1.524 . S
C1631 H1634 0.999 . S
C1632 H1602 0.950 . S
C1632 C1631 1.524 . S
C1632 C1633 1.415 . S
C1633 H1603 0.950 . S
C1633 C1628 1.363 . S
C1633 C1632 1.415 . S
H1634 C1631 0.999 . S
H1635 C1616 0.913 . S
H1636 C1654 0.951 . S
H1637 C1656 0.951 . S
H1638 C1658 0.950 . S
H1639 C1659 0.950 . S
H1640 C1661 0.950 . S
H1641 C1664 0.950 . S
H1642 C1665 0.950 . S
H1643 C1667 0.950 . S
H1644 C1668 0.950 . S
H1645 C1669 0.951 . S
H1646 C1671 0.951 . S
H1647 C1673 0.950 . S
H1648 C1674 0.950 . S
H1649 C1676 0.950 . S
H1650 C1679 0.950 . S
H1651 C1680 0.950 . S
H1652 C1682 0.950 . S
H1653 C1683 0.950 . S
C1654 H1636 0.951 . S
C1654 C1655 1.366 . S
C1654 C1656 1.388 . S
C1655 C1654 1.366 . S
C1655 C1659 1.385 . S
C1656 H1637 0.951 . S
C1656 C1654 1.388 . S
C1656 C1657 1.366 . S
C1657 C1656 1.366 . S
C1657 C1658 1.414 . S
C1657 C1660 1.499 . S
C1658 H1638 0.950 . S
C1658 C1657 1.414 . S
C1658 C1659 1.374 . S
C1659 H1639 0.950 . S
C1659 C1655 1.385 . S
C1659 C1658 1.374 . S
C1660 C1657 1.499 . S
C1660 C1661 1.373 . S
C1660 C1662 1.389 . S
C1661 H1640 0.950 . S
C1661 C1660 1.373 . S
C1661 C1677 1.377 . S
C1662 C1660 1.389 . S
C1662 C1663 1.524 . S
C1662 C1676 1.377 . S
C1663 C1662 1.524 . S
C1663 C1664 1.397 . S
C1663 C1668 1.363 . S
C1664 H1641 0.950 . S
C1664 C1663 1.397 . S
C1664 C1665 1.334 . S
C1665 H1642 0.950 . S
C1665 C1664 1.334 . S
C1665 C1666 1.287 . S
C1666 C1665 1.287 . S
C1666 C1667 1.524 . S
C1666 H1685 0.913 . S
C1667 H1643 0.950 . S
C1667 C1666 1.524 . S
C1667 C1668 1.415 . S
C1668 H1644 0.950 . S
C1668 C1663 1.363 . S
C1668 C1667 1.415 . S
C1669 H1645 0.951 . S
C1669 C1670 1.366 . S
C1669 C1671 1.388 . S
C1670 C1669 1.366 . S
C1670 C1674 1.385 . S
C1671 H1646 0.951 . S
C1671 C1669 1.388 . S
C1671 C1672 1.366 . S
C1672 C1671 1.366 . S
C1672 C1673 1.414 . S
C1672 C1675 1.499 . S
C1673 H1647 0.950 . S
C1673 C1672 1.414 . S
C1673 C1674 1.374 . S
C1674 H1648 0.950 . S
C1674 C1670 1.385 . S
C1674 C1673 1.374 . S
C1675 C1672 1.499 . S
C1675 C1676 1.373 . S
C1675 C1677 1.389 . S
C1676 H1649 0.950 . S
C1676 C1662 1.377 . S
C1676 C1675 1.373 . S
C1677 C1661 1.377 . S
C1677 C1675 1.389 . S
C1677 C1678 1.524 . S
C1678 C1677 1.524 . S
C1678 C1679 1.397 . S
C1678 C1683 1.363 . S
C1679 H1650 0.950 . S
C1679 C1678 1.397 . S
C1679 C1680 1.334 . S
C1680 H1651 0.950 . S
C1680 C1679 1.334 . S
C1680 C1681 1.287 . S
C1681 C1680 1.287 . S
C1681 C1682 1.524 . S
C1681 H1684 0.999 . S
C1682 H1652 0.950 . S
C1682 C1681 1.524 . S
C1682 C1683 1.415 . S
C1683 H1653 0.950 . S
C1683 C1678 1.363 . S
C1683 C1682 1.415 . S
H1684 C1681 0.999 . S
H1685 C1666 0.913 . S
H1686 C1704 0.951 . S
H1687 C1706 0.951 . S
H1688 C1708 0.950 . S
H1689 C1709 0.950 . S
H1690 C1711 0.950 . S
H1691 C1714 0.950 . S
H1692 C1715 0.950 . S
H1693 C1717 0.950 . S
H1694 C1718 0.950 . S
H1695 C1719 0.951 . S
H1696 C1721 0.951 . S
H1697 C1723 0.956 1_554 S
H1698 C1724 0.950 . S
H1699 C1726 0.950 . S
H1700 C1729 0.950 . S
H1701 C1730 0.950 . S
H1702 C1732 0.950 . S
H1703 C1733 0.950 . S
C1704 H1686 0.951 . S
C1704 C1705 1.366 . S
C1704 C1706 1.388 . S
C1705 C1704 1.366 . S
C1705 C1709 1.385 . S
C1706 H1687 0.951 . S
C1706 C1704 1.388 . S
C1706 C1707 1.366 . S
C1707 C1706 1.366 . S
C1707 C1708 1.414 . S
C1707 C1710 1.499 . S
C1708 H1688 0.950 . S
C1708 C1707 1.414 . S
C1708 C1709 1.374 . S
C1709 H1689 0.950 . S
C1709 C1705 1.385 . S
C1709 C1708 1.374 . S
C1710 C1707 1.499 . S
C1710 C1711 1.373 . S
C1710 C1712 1.389 . S
C1711 H1690 0.950 . S
C1711 C1710 1.373 . S
C1711 C1727 1.377 . S
C1712 C1710 1.389 . S
C1712 C1713 1.524 . S
C1712 C1726 1.377 . S
C1713 C1712 1.524 . S
C1713 C1714 1.397 . S
C1713 C1718 1.363 . S
C1714 H1691 0.950 . S
C1714 C1713 1.397 . S
C1714 C1715 1.334 . S
C1715 H1692 0.950 . S
C1715 C1714 1.334 . S
C1715 C1716 1.287 . S
C1716 C1715 1.287 . S
C1716 C1717 1.524 . S
C1716 H1735 0.913 . S
C1717 H1693 0.950 . S
C1717 C1716 1.524 . S
C1717 C1718 1.415 . S
C1718 H1694 0.950 . S
C1718 C1713 1.363 . S
C1718 C1717 1.415 . S
C1719 H1695 0.951 . S
C1719 C1720 1.366 . S
C1719 C1721 1.388 . S
C1720 C1719 1.366 . S
C1720 C1724 1.385 . S
C1721 H1696 0.951 . S
C1721 C1719 1.388 . S
C1721 C1722 1.366 1_566 S
C1722 C1721 1.366 1_544 S
C1722 C1723 1.415 1_554 S
C1722 C1725 1.499 . S
C1723 H1697 0.956 1_556 S
C1723 C1722 1.415 1_556 S
C1723 C1724 1.367 1_545 S
C1724 H1698 0.950 . S
C1724 C1720 1.385 . S
C1724 C1723 1.367 1_565 S
C1725 C1722 1.499 . S
C1725 C1726 1.373 . S
C1725 C1727 1.389 . S
C1726 H1699 0.950 . S
C1726 C1712 1.377 . S
C1726 C1725 1.373 . S
C1727 C1711 1.377 . S
C1727 C1725 1.389 . S
C1727 C1728 1.524 1_545 S
C1728 C1727 1.524 1_565 S
C1728 C1729 1.397 . S
C1728 C1733 1.363 . S
C1729 H1700 0.950 . S
C1729 C1728 1.397 . S
C1729 C1730 1.334 . S
C1730 H1701 0.950 . S
C1730 C1729 1.334 . S
C1730 C1731 1.287 . S
C1731 C1730 1.287 . S
C1731 C1732 1.524 . S
C1731 H1734 0.999 . S
C1732 H1702 0.950 . S
C1732 C1731 1.524 . S
C1732 C1733 1.415 . S
C1733 H1703 0.950 . S
C1733 C1728 1.363 . S
C1733 C1732 1.415 . S
H1734 C1731 0.999 . S
H1735 C1716 0.913 . S
H1736 C1754 0.951 . S
H1737 C1756 0.951 . S
H1738 C1758 0.950 . S
H1739 C1759 0.950 . S
H1740 C1761 0.950 . S
H1741 C1764 0.950 . S
H1742 C1765 0.950 . S
H1743 C1767 0.950 . S
H1744 C1768 0.950 . S
H1745 C1769 0.951 . S
H1746 C1771 0.951 . S
H1747 C1773 0.950 . S
H1748 C1774 0.950 . S
H1749 C1776 0.950 . S
H1750 C1779 0.950 . S
H1751 C1780 0.950 . S
H1752 C1782 0.950 . S
H1753 C1783 0.950 . S
C1754 H1736 0.951 . S
C1754 C1755 1.366 . S
C1754 C1756 1.388 . S
C1755 C1754 1.366 . S
C1755 C1759 1.385 . S
C1756 H1737 0.951 . S
C1756 C1754 1.388 . S
C1756 C1757 1.366 . S
C1757 C1756 1.366 . S
C1757 C1758 1.414 . S
C1757 C1760 1.499 . S
C1758 H1738 0.950 . S
C1758 C1757 1.414 . S
C1758 C1759 1.374 . S
C1759 H1739 0.950 . S
C1759 C1755 1.385 . S
C1759 C1758 1.374 . S
C1760 C1757 1.499 . S
C1760 C1761 1.373 . S
C1760 C1762 1.389 . S
C1761 H1740 0.950 . S
C1761 C1760 1.373 . S
C1761 C1777 1.377 . S
C1762 C1760 1.389 . S
C1762 C1763 1.524 . S
C1762 C1776 1.377 . S
C1763 C1762 1.524 . S
C1763 C1764 1.397 . S
C1763 C1768 1.363 . S
C1764 H1741 0.950 . S
C1764 C1763 1.397 . S
C1764 C1765 1.334 . S
C1765 H1742 0.950 . S
C1765 C1764 1.334 . S
C1765 C1766 1.287 . S
C1766 C1765 1.287 . S
C1766 C1767 1.524 . S
C1766 H1785 0.913 . S
C1767 H1743 0.950 . S
C1767 C1766 1.524 . S
C1767 C1768 1.415 . S
C1768 H1744 0.950 . S
C1768 C1763 1.363 . S
C1768 C1767 1.415 . S
C1769 H1745 0.951 . S
C1769 C1770 1.366 . S
C1769 C1771 1.388 . S
C1770 C1769 1.366 . S
C1770 C1774 1.385 . S
C1771 H1746 0.951 . S
C1771 C1769 1.388 . S
C1771 C1772 1.366 . S
C1772 C1771 1.366 . S
C1772 C1773 1.414 . S
C1772 C1775 1.499 . S
C1773 H1747 0.950 . S
C1773 C1772 1.414 . S
C1773 C1774 1.374 . S
C1774 H1748 0.950 . S
C1774 C1770 1.385 . S
C1774 C1773 1.374 . S
C1775 C1772 1.499 . S
C1775 C1776 1.373 . S
C1775 C1777 1.389 . S
C1776 H1749 0.950 . S
C1776 C1762 1.377 . S
C1776 C1775 1.373 . S
C1777 C1761 1.377 . S
C1777 C1775 1.389 . S
C1777 C1778 1.524 . S
C1778 C1777 1.524 . S
C1778 C1779 1.397 . S
C1778 C1783 1.363 . S
C1779 H1750 0.950 . S
C1779 C1778 1.397 . S
C1779 C1780 1.334 . S
C1780 H1751 0.950 . S
C1780 C1779 1.334 . S
C1780 C1781 1.287 . S
C1781 C1780 1.287 . S
C1781 C1782 1.524 . S
C1781 H1784 0.999 . S
C1782 H1752 0.950 . S
C1782 C1781 1.524 . S
C1782 C1783 1.415 . S
C1783 H1753 0.950 . S
C1783 C1778 1.363 . S
C1783 C1782 1.415 . S
H1784 C1781 0.999 . S
H1785 C1766 0.913 . S
H1786 C1804 0.951 . S
H1787 C1806 0.951 . S
H1788 C1808 0.950 . S
H1789 C1809 0.950 . S
H1790 C1811 0.950 . S
H1791 C1814 0.948 . S
H1792 C1815 0.950 . S
H1793 C1817 0.950 . S
H1794 C1818 0.950 . S
H1795 C1819 0.951 . S
H1796 C1821 0.951 . S
H1797 C1823 0.950 . S
H1798 C1824 0.950 . S
H1799 C1826 0.950 . S
H1800 C1829 0.950 . S
H1801 C1830 0.950 . S
H1802 C1832 0.950 . S
H1803 C1833 0.950 . S
C1804 H1786 0.951 . S
C1804 C1805 1.366 . S
C1804 C1806 1.388 . S
C1805 C1804 1.366 . S
C1805 C1809 1.385 . S
C1806 H1787 0.951 . S
C1806 C1804 1.388 . S
C1806 C1807 1.366 1_554 S
C1807 C1806 1.366 1_556 S
C1807 C1808 1.414 . S
C1807 C1810 1.499 . S
C1808 H1788 0.950 . S
C1808 C1807 1.414 . S
C1808 C1809 1.374 1_556 S
C1809 H1789 0.950 . S
C1809 C1805 1.385 . S
C1809 C1808 1.374 1_554 S
C1810 C1807 1.499 . S
C1810 C1811 1.373 . S
C1810 C1812 1.389 . S
C1811 H1790 0.950 . S
C1811 C1810 1.373 . S
C1811 C1827 1.377 . S
C1812 C1810 1.389 . S
C1812 C1813 1.524 . S
C1812 C1826 1.377 . S
C1813 C1812 1.524 . S
C1813 C1814 1.396 . S
C1813 C1818 1.363 . S
C1814 H1791 0.948 . S
C1814 C1813 1.396 . S
C1814 C1815 1.336 1_556 S
C1815 H1792 0.950 . S
C1815 C1814 1.336 1_554 S
C1815 C1816 1.287 . S
C1816 C1815 1.287 . S
C1816 C1817 1.524 . S
C1816 H1835 0.913 . S
C1817 H1793 0.950 . S
C1817 C1816 1.524 . S
C1817 C1818 1.415 1_554 S
C1818 H1794 0.950 . S
C1818 C1813 1.363 . S
C1818 C1817 1.415 1_556 S
C1819 H1795 0.951 . S
C1819 C1820 1.366 . S
C1819 C1821 1.388 . S
C1820 C1819 1.366 . S
C1820 C1824 1.385 . S
C1821 H1796 0.951 . S
C1821 C1819 1.388 . S
C1821 C1822 1.366 . S
C1822 C1821 1.366 . S
C1822 C1823 1.414 . S
C1822 C1825 1.499 . S
C1823 H1797 0.950 . S
C1823 C1822 1.414 . S
C1823 C1824 1.374 . S
C1824 H1798 0.950 . S
C1824 C1820 1.385 . S
C1824 C1823 1.374 . S
C1825 C1822 1.499 . S
C1825 C1826 1.373 . S
C1825 C1827 1.389 . S
C1826 H1799 0.950 . S
C1826 C1812 1.377 . S
C1826 C1825 1.373 . S
C1827 C1811 1.377 . S
C1827 C1825 1.389 . S
C1827 C1828 1.524 . S
C1828 C1827 1.524 . S
C1828 C1829 1.397 . S
C1828 C1833 1.363 . S
C1829 H1800 0.950 . S
C1829 C1828 1.397 . S
C1829 C1830 1.334 . S
C1830 H1801 0.950 . S
C1830 C1829 1.334 . S
C1830 C1831 1.287 . S
C1831 C1830 1.287 . S
C1831 C1832 1.524 . S
C1831 H1834 0.999 . S
C1832 H1802 0.950 . S
C1832 C1831 1.524 . S
C1832 C1833 1.415 . S
C1833 H1803 0.950 . S
C1833 C1828 1.363 . S
C1833 C1832 1.415 . S
H1834 C1831 0.999 . S
H1835 C1816 0.913 . S
H1836 C1854 0.951 . S
H1837 C1856 0.951 . S
H1838 C1858 0.950 . S
H1839 C1859 0.950 . S
H1840 C1861 0.950 . S
H1841 C1864 0.950 . S
H1842 C1865 0.950 . S
H1843 C1867 0.950 . S
H1844 C1868 0.950 . S
H1845 C1869 0.951 . S
H1846 C1871 0.951 . S
H1847 C1873 0.950 . S
H1848 C1874 0.950 . S
H1849 C1876 0.950 . S
H1850 C1879 0.950 . S
H1851 C1880 0.950 . S
H1852 C1882 0.950 . S
H1853 C1883 0.950 . S
C1854 H1836 0.951 . S
C1854 C1855 1.366 . S
C1854 C1856 1.388 . S
C1855 C1854 1.366 . S
C1855 C1859 1.385 . S
C1856 H1837 0.951 . S
C1856 C1854 1.388 . S
C1856 C1857 1.366 . S
C1857 C1856 1.366 . S
C1857 C1858 1.414 . S
C1857 C1860 1.499 . S
C1858 H1838 0.950 . S
C1858 C1857 1.414 . S
C1858 C1859 1.374 . S
C1859 H1839 0.950 . S
C1859 C1855 1.385 . S
C1859 C1858 1.374 . S
C1860 C1857 1.499 . S
C1860 C1861 1.373 . S
C1860 C1862 1.389 . S
C1861 H1840 0.950 . S
C1861 C1860 1.373 . S
C1861 C1877 1.377 . S
C1862 C1860 1.389 . S
C1862 C1863 1.524 . S
C1862 C1876 1.377 . S
C1863 C1862 1.524 . S
C1863 C1864 1.397 . S
C1863 C1868 1.363 . S
C1864 H1841 0.950 . S
C1864 C1863 1.397 . S
C1864 C1865 1.334 . S
C1865 H1842 0.950 . S
C1865 C1864 1.334 . S
C1865 C1866 1.287 . S
C1866 C1865 1.287 . S
C1866 C1867 1.524 . S
C1866 H1885 0.913 . S
C1867 H1843 0.950 . S
C1867 C1866 1.524 . S
C1867 C1868 1.415 . S
C1868 H1844 0.950 . S
C1868 C1863 1.363 . S
C1868 C1867 1.415 . S
C1869 H1845 0.951 . S
C1869 C1870 1.366 . S
C1869 C1871 1.388 . S
C1870 C1869 1.366 . S
C1870 C1874 1.385 . S
C1871 H1846 0.951 . S
C1871 C1869 1.388 . S
C1871 C1872 1.366 . S
C1872 C1871 1.366 . S
C1872 C1873 1.414 . S
C1872 C1875 1.499 . S
C1873 H1847 0.950 . S
C1873 C1872 1.414 . S
C1873 C1874 1.374 . S
C1874 H1848 0.950 . S
C1874 C1870 1.385 . S
C1874 C1873 1.374 . S
C1875 C1872 1.499 . S
C1875 C1876 1.373 . S
C1875 C1877 1.389 . S
C1876 H1849 0.950 . S
C1876 C1862 1.377 . S
C1876 C1875 1.373 . S
C1877 C1861 1.377 . S
C1877 C1875 1.389 . S
C1877 C1878 1.524 . S
C1878 C1877 1.524 . S
C1878 C1879 1.397 . S
C1878 C1883 1.363 . S
C1879 H1850 0.950 . S
C1879 C1878 1.397 . S
C1879 C1880 1.334 . S
C1880 H1851 0.950 . S
C1880 C1879 1.334 . S
C1880 C1881 1.287 . S
C1881 C1880 1.287 . S
C1881 C1882 1.524 . S
C1881 H1884 0.999 . S
C1882 H1852 0.950 . S
C1882 C1881 1.524 . S
C1882 C1883 1.415 . S
C1883 H1853 0.950 . S
C1883 C1878 1.363 . S
C1883 C1882 1.415 . S
H1884 C1881 0.999 . S
H1885 C1866 0.913 . S
H1886 C1904 0.951 . S
H1887 C1906 0.951 . S
H1888 C1908 0.950 . S
H1889 C1909 0.950 . S
H1890 C1911 0.950 . S
H1891 C1914 0.950 . S
H1892 C1915 0.950 . S
H1893 C1917 0.950 . S
H1894 C1918 0.950 . S
H1895 C1919 0.951 . S
H1896 C1921 0.951 . S
H1897 C1923 0.950 . S
H1898 C1924 0.950 . S
H1899 C1926 0.950 . S
H1900 C1929 0.950 . S
H1901 C1930 0.950 . S
H1902 C1932 0.950 . S
H1903 C1933 0.950 . S
C1904 H1886 0.951 . S
C1904 C1905 1.366 . S
C1904 C1906 1.388 . S
C1905 C1904 1.366 . S
C1905 C1909 1.385 . S
C1906 H1887 0.951 . S
C1906 C1904 1.388 . S
C1906 C1907 1.366 . S
C1907 C1906 1.366 . S
C1907 C1908 1.414 . S
C1907 C1910 1.499 . S
C1908 H1888 0.950 . S
C1908 C1907 1.414 . S
C1908 C1909 1.374 . S
C1909 H1889 0.950 . S
C1909 C1905 1.385 . S
C1909 C1908 1.374 . S
C1910 C1907 1.499 . S
C1910 C1911 1.373 . S
C1910 C1912 1.389 . S
C1911 H1890 0.950 . S
C1911 C1910 1.373 . S
C1911 C1927 1.377 . S
C1912 C1910 1.389 . S
C1912 C1913 1.524 . S
C1912 C1926 1.377 . S
C1913 C1912 1.524 . S
C1913 C1914 1.397 . S
C1913 C1918 1.363 . S
C1914 H1891 0.950 . S
C1914 C1913 1.397 . S
C1914 C1915 1.334 . S
C1915 H1892 0.950 . S
C1915 C1914 1.334 . S
C1915 C1916 1.287 . S
C1916 C1915 1.287 . S
C1916 C1917 1.524 . S
C1916 H1935 0.913 . S
C1917 H1893 0.950 . S
C1917 C1916 1.524 . S
C1917 C1918 1.415 . S
C1918 H1894 0.950 . S
C1918 C1913 1.363 . S
C1918 C1917 1.415 . S
C1919 H1895 0.951 . S
C1919 C1920 1.366 . S
C1919 C1921 1.388 . S
C1920 C1919 1.366 . S
C1920 C1924 1.385 . S
C1921 H1896 0.951 . S
C1921 C1919 1.388 . S
C1921 C1922 1.366 . S
C1922 C1921 1.366 . S
C1922 C1923 1.414 . S
C1922 C1925 1.499 . S
C1923 H1897 0.950 . S
C1923 C1922 1.414 . S
C1923 C1924 1.374 . S
C1924 H1898 0.950 . S
C1924 C1920 1.385 . S
C1924 C1923 1.374 . S
C1925 C1922 1.499 . S
C1925 C1926 1.373 . S
C1925 C1927 1.389 . S
C1926 H1899 0.950 . S
C1926 C1912 1.377 . S
C1926 C1925 1.373 . S
C1927 C1911 1.377 . S
C1927 C1925 1.389 . S
C1927 C1928 1.524 . S
C1928 C1927 1.524 . S
C1928 C1929 1.397 . S
C1928 C1933 1.363 . S
C1929 H1900 0.950 . S
C1929 C1928 1.397 . S
C1929 C1930 1.334 . S
C1930 H1901 0.950 . S
C1930 C1929 1.334 . S
C1930 C1931 1.287 . S
C1931 C1930 1.287 . S
C1931 C1932 1.524 . S
C1931 H1934 0.999 . S
C1932 H1902 0.950 . S
C1932 C1931 1.524 . S
C1932 C1933 1.415 . S
C1933 H1903 0.950 . S
C1933 C1928 1.363 . S
C1933 C1932 1.415 . S
H1934 C1931 0.999 . S
H1935 C1916 0.913 . S
H1936 C1954 0.951 . S
H1937 C1956 0.951 . S
H1938 C1958 0.950 . S
H1939 C1959 0.950 . S
H1940 C1961 0.950 . S
H1941 C1964 0.950 . S
H1942 C1965 0.950 . S
H1943 C1967 0.950 . S
H1944 C1968 0.950 . S
H1945 C1969 0.951 . S
H1946 C1971 0.951 . S
H1947 C1973 0.950 . S
H1948 C1974 0.950 . S
H1949 C1976 0.950 . S
H1950 C1979 0.950 . S
H1951 C1980 0.950 . S
H1952 C1982 0.950 . S
H1953 C1983 0.950 . S
C1954 H1936 0.951 . S
C1954 C1955 1.366 . S
C1954 C1956 1.388 . S
C1955 C1954 1.366 . S
C1955 C1959 1.385 . S
C1956 H1937 0.951 . S
C1956 C1954 1.388 . S
C1956 C1957 1.366 . S
C1957 C1956 1.366 . S
C1957 C1958 1.414 . S
C1957 C1960 1.499 . S
C1958 H1938 0.950 . S
C1958 C1957 1.414 . S
C1958 C1959 1.374 . S
C1959 H1939 0.950 . S
C1959 C1955 1.385 . S
C1959 C1958 1.374 . S
C1960 C1957 1.499 . S
C1960 C1961 1.373 . S
C1960 C1962 1.389 . S
C1961 H1940 0.950 . S
C1961 C1960 1.373 . S
C1961 C1977 1.377 . S
C1962 C1960 1.389 . S
C1962 C1963 1.524 . S
C1962 C1976 1.377 . S
C1963 C1962 1.524 . S
C1963 C1964 1.397 . S
C1963 C1968 1.363 . S
C1964 H1941 0.950 . S
C1964 C1963 1.397 . S
C1964 C1965 1.334 . S
C1965 H1942 0.950 . S
C1965 C1964 1.334 . S
C1965 C1966 1.287 . S
C1966 C1965 1.287 . S
C1966 C1967 1.524 . S
C1966 H1985 0.913 . S
C1967 H1943 0.950 . S
C1967 C1966 1.524 . S
C1967 C1968 1.415 . S
C1968 H1944 0.950 . S
C1968 C1963 1.363 . S
C1968 C1967 1.415 . S
C1969 H1945 0.951 . S
C1969 C1970 1.366 . S
C1969 C1971 1.388 . S
C1970 C1969 1.366 . S
C1970 C1974 1.385 . S
C1971 H1946 0.951 . S
C1971 C1969 1.388 . S
C1971 C1972 1.366 . S
C1972 C1971 1.366 . S
C1972 C1973 1.414 . S
C1972 C1975 1.499 . S
C1973 H1947 0.950 . S
C1973 C1972 1.414 . S
C1973 C1974 1.374 . S
C1974 H1948 0.950 . S
C1974 C1970 1.385 . S
C1974 C1973 1.374 . S
C1975 C1972 1.499 . S
C1975 C1976 1.373 . S
C1975 C1977 1.389 . S
C1976 H1949 0.950 . S
C1976 C1962 1.377 . S
C1976 C1975 1.373 . S
C1977 C1961 1.377 . S
C1977 C1975 1.389 . S
C1977 C1978 1.524 . S
C1978 C1977 1.524 . S
C1978 C1979 1.397 . S
C1978 C1983 1.363 . S
C1979 H1950 0.950 . S
C1979 C1978 1.397 . S
C1979 C1980 1.334 . S
C1980 H1951 0.950 . S
C1980 C1979 1.334 . S
C1980 C1981 1.287 . S
C1981 C1980 1.287 . S
C1981 C1982 1.524 . S
C1981 H1984 0.999 . S
C1982 H1952 0.950 . S
C1982 C1981 1.524 . S
C1982 C1983 1.415 . S
C1983 H1953 0.950 . S
C1983 C1978 1.363 . S
C1983 C1982 1.415 . S
H1984 C1981 0.999 . S
H1985 C1966 0.913 . S
H1986 C2004 0.951 . S
H1987 C2006 0.951 . S
H1988 C2008 0.950 . S
H1989 C2009 0.950 . S
H1990 C2011 0.952 . S
H1991 C2014 0.950 . S
H1992 C2015 0.950 . S
H1993 C2017 0.950 . S
H1994 C2018 0.950 . S
H1995 C2019 0.951 . S
H1996 C2021 0.951 . S
H1997 C2023 0.950 . S
H1998 C2024 0.950 . S
H1999 C2026 0.950 . S
H2000 C2029 0.950 1_455 S
H2001 C2030 0.950 . S
H2002 C2032 0.950 . S
H2003 C2033 0.950 . S
C2004 H1986 0.951 . S
C2004 C2005 1.366 1_455 S
C2004 C2006 1.388 . S
C2005 C2004 1.366 1_655 S
C2005 C2009 1.385 . S
C2006 H1987 0.951 . S
C2006 C2004 1.388 . S
C2006 C2007 1.366 1_565 S
C2007 C2006 1.366 1_545 S
C2007 C2008 1.414 1_455 S
C2007 C2010 1.499 . S
C2008 H1988 0.950 . S
C2008 C2007 1.414 1_655 S
C2008 C2009 1.374 1_545 S
C2009 H1989 0.950 . S
C2009 C2005 1.385 . S
C2009 C2008 1.374 1_565 S
C2010 C2007 1.499 . S
C2010 C2011 1.372 1_455 S
C2010 C2012 1.389 . S
C2011 H1990 0.952 . S
C2011 C2010 1.372 1_655 S
C2011 C2027 1.376 1_655 S
C2012 C2010 1.389 . S
C2012 C2013 1.524 . S
C2012 C2026 1.377 . S
C2013 C2012 1.524 . S
C2013 C2014 1.397 . S
C2013 C2018 1.363 . S
C2014 H1991 0.950 . S
C2014 C2013 1.397 . S
C2014 C2015 1.334 1_545 S
C2015 H1992 0.950 . S
C2015 C2014 1.334 1_565 S
C2015 C2016 1.287 . S
C2016 C2015 1.287 . S
C2016 C2017 1.524 . S
C2016 H2035 0.913 . S
C2017 H1993 0.950 . S
C2017 C2016 1.524 . S
C2017 C2018 1.415 1_565 S
C2018 H1994 0.950 . S
C2018 C2013 1.363 . S
C2018 C2017 1.415 1_545 S
C2019 H1995 0.951 . S
C2019 C2020 1.366 . S
C2019 C2021 1.388 . S
C2020 C2019 1.366 . S
C2020 C2024 1.385 . S
C2021 H1996 0.951 . S
C2021 C2019 1.388 . S
C2021 C2022 1.366 . S
C2022 C2021 1.366 . S
C2022 C2023 1.414 . S
C2022 C2025 1.499 . S
C2023 H1997 0.950 . S
C2023 C2022 1.414 . S
C2023 C2024 1.374 . S
C2024 H1998 0.950 . S
C2024 C2020 1.385 . S
C2024 C2023 1.374 . S
C2025 C2022 1.499 . S
C2025 C2026 1.373 . S
C2025 C2027 1.389 . S
C2026 H1999 0.950 . S
C2026 C2012 1.377 . S
C2026 C2025 1.373 . S
C2027 C2011 1.376 1_455 S
C2027 C2025 1.389 . S
C2027 C2028 1.524 1_455 S
C2028 C2027 1.524 1_655 S
C2028 C2029 1.397 . S
C2028 C2033 1.363 . S
C2029 H2000 0.950 1_655 S
C2029 C2028 1.397 . S
C2029 C2030 1.334 . S
C2030 H2001 0.950 . S
C2030 C2029 1.334 . S
C2030 C2031 1.287 . S
C2031 C2030 1.287 . S
C2031 C2032 1.524 . S
C2031 H2034 0.999 . S
C2032 H2002 0.950 . S
C2032 C2031 1.524 . S
C2032 C2033 1.415 . S
C2033 H2003 0.950 . S
C2033 C2028 1.363 . S
C2033 C2032 1.415 . S
H2034 C2031 0.999 . S
H2035 C2016 0.913 . S
H2036 C2054 0.951 . S
H2037 C2056 0.951 . S
H2038 C2058 0.950 . S
H2039 C2059 0.950 . S
H2040 C2061 0.950 . S
H2041 C2064 0.950 . S
H2042 C2065 0.950 . S
H2043 C2067 0.950 . S
H2044 C2068 0.950 . S
H2045 C2069 0.951 . S
H2046 C2071 0.951 . S
H2047 C2073 0.950 . S
H2048 C2074 0.950 . S
H2049 C2076 0.950 . S
H2050 C2079 0.950 . S
H2051 C2080 0.950 . S
H2052 C2082 0.950 . S
H2053 C2083 0.950 . S
C2054 H2036 0.951 . S
C2054 C2055 1.366 . S
C2054 C2056 1.388 . S
C2055 C2054 1.366 . S
C2055 C2059 1.385 . S
C2056 H2037 0.951 . S
C2056 C2054 1.388 . S
C2056 C2057 1.366 . S
C2057 C2056 1.366 . S
C2057 C2058 1.414 . S
C2057 C2060 1.499 . S
C2058 H2038 0.950 . S
C2058 C2057 1.414 . S
C2058 C2059 1.374 . S
C2059 H2039 0.950 . S
C2059 C2055 1.385 . S
C2059 C2058 1.374 . S
C2060 C2057 1.499 . S
C2060 C2061 1.373 . S
C2060 C2062 1.389 . S
C2061 H2040 0.950 . S
C2061 C2060 1.373 . S
C2061 C2077 1.377 . S
C2062 C2060 1.389 . S
C2062 C2063 1.524 . S
C2062 C2076 1.377 . S
C2063 C2062 1.524 . S
C2063 C2064 1.397 . S
C2063 C2068 1.363 . S
C2064 H2041 0.950 . S
C2064 C2063 1.397 . S
C2064 C2065 1.334 . S
C2065 H2042 0.950 . S
C2065 C2064 1.334 . S
C2065 C2066 1.287 . S
C2066 C2065 1.287 . S
C2066 C2067 1.524 . S
C2066 H2085 0.913 . S
C2067 H2043 0.950 . S
C2067 C2066 1.524 . S
C2067 C2068 1.415 . S
C2068 H2044 0.950 . S
C2068 C2063 1.363 . S
C2068 C2067 1.415 . S
C2069 H2045 0.951 . S
C2069 C2070 1.366 . S
C2069 C2071 1.388 . S
C2070 C2069 1.366 . S
C2070 C2074 1.385 . S
C2071 H2046 0.951 . S
C2071 C2069 1.388 . S
C2071 C2072 1.366 . S
C2072 C2071 1.366 . S
C2072 C2073 1.414 . S
C2072 C2075 1.499 . S
C2073 H2047 0.950 . S
C2073 C2072 1.414 . S
C2073 C2074 1.374 . S
C2074 H2048 0.950 . S
C2074 C2070 1.385 . S
C2074 C2073 1.374 . S
C2075 C2072 1.499 . S
C2075 C2076 1.373 . S
C2075 C2077 1.389 . S
C2076 H2049 0.950 . S
C2076 C2062 1.377 . S
C2076 C2075 1.373 . S
C2077 C2061 1.377 . S
C2077 C2075 1.389 . S
C2077 C2078 1.524 . S
C2078 C2077 1.524 . S
C2078 C2079 1.397 . S
C2078 C2083 1.363 . S
C2079 H2050 0.950 . S
C2079 C2078 1.397 . S
C2079 C2080 1.334 . S
C2080 H2051 0.950 . S
C2080 C2079 1.334 . S
C2080 C2081 1.287 . S
C2081 C2080 1.287 . S
C2081 C2082 1.524 . S
C2081 H2084 0.999 . S
C2082 H2052 0.950 . S
C2082 C2081 1.524 . S
C2082 C2083 1.415 . S
C2083 H2053 0.950 . S
C2083 C2078 1.363 . S
C2083 C2082 1.415 . S
H2084 C2081 0.999 . S
H2085 C2066 0.913 . S
H2086 C2104 0.951 . S
H2087 C2106 0.948 . S
H2088 C2108 0.950 . S
H2089 C2109 0.950 . S
H2090 C2111 0.950 . S
H2091 C2114 0.950 1_545 S
H2092 C2115 0.950 . S
H2093 C2117 0.950 . S
H2094 C2118 0.950 . S
H2095 C2119 0.951 . S
H2096 C2121 0.951 . S
H2097 C2123 0.950 . S
H2098 C2124 0.950 . S
H2099 C2126 0.950 . S
H2100 C2129 0.950 . S
H2101 C2130 0.950 . S
H2102 C2132 0.950 . S
H2103 C2133 0.950 . S
C2104 H2086 0.951 . S
C2104 C2105 1.366 . S
C2104 C2106 1.390 1_545 S
C2105 C2104 1.366 . S
C2105 C2109 1.385 . S
C2106 H2087 0.948 . S
C2106 C2104 1.390 1_565 S
C2106 C2107 1.365 . S
C2107 C2106 1.365 . S
C2107 C2108 1.414 1_565 S
C2107 C2110 1.499 . S
C2108 H2088 0.950 . S
C2108 C2107 1.414 1_545 S
C2108 C2109 1.374 . S
C2109 H2089 0.950 . S
C2109 C2105 1.385 . S
C2109 C2108 1.374 . S
C2110 C2107 1.499 . S
C2110 C2111 1.373 . S
C2110 C2112 1.389 . S
C2111 H2090 0.950 . S
C2111 C2110 1.373 . S
C2111 C2127 1.377 . S
C2112 C2110 1.389 . S
C2112 C2113 1.524 . S
C2112 C2126 1.377 . S
C2113 C2112 1.524 . S
C2113 C2114 1.397 . S
C2113 C2118 1.363 . S
C2114 H2091 0.950 1_565 S
C2114 C2113 1.397 . S
C2114 C2115 1.334 1_565 S
C2115 H2092 0.950 . S
C2115 C2114 1.334 1_545 S
C2115 C2116 1.287 1_545 S
C2116 C2115 1.287 1_565 S
C2116 C2117 1.524 . S
C2116 H2135 0.913 . S
C2117 H2093 0.950 . S
C2117 C2116 1.524 . S
C2117 C2118 1.415 . S
C2118 H2094 0.950 . S
C2118 C2113 1.363 . S
C2118 C2117 1.415 . S
C2119 H2095 0.951 . S
C2119 C2120 1.366 . S
C2119 C2121 1.388 . S
C2120 C2119 1.366 . S
C2120 C2124 1.385 . S
C2121 H2096 0.951 . S
C2121 C2119 1.388 . S
C2121 C2122 1.366 . S
C2122 C2121 1.366 . S
C2122 C2123 1.414 . S
C2122 C2125 1.499 . S
C2123 H2097 0.950 . S
C2123 C2122 1.414 . S
C2123 C2124 1.374 . S
C2124 H2098 0.950 . S
C2124 C2120 1.385 . S
C2124 C2123 1.374 . S
C2125 C2122 1.499 . S
C2125 C2126 1.373 . S
C2125 C2127 1.389 . S
C2126 H2099 0.950 . S
C2126 C2112 1.377 . S
C2126 C2125 1.373 . S
C2127 C2111 1.377 . S
C2127 C2125 1.389 . S
C2127 C2128 1.524 . S
C2128 C2127 1.524 . S
C2128 C2129 1.397 . S
C2128 C2133 1.363 . S
C2129 H2100 0.950 . S
C2129 C2128 1.397 . S
C2129 C2130 1.334 . S
C2130 H2101 0.950 . S
C2130 C2129 1.334 . S
C2130 C2131 1.287 . S
C2131 C2130 1.287 . S
C2131 C2132 1.524 . S
C2131 H2134 0.999 . S
C2132 H2102 0.950 . S
C2132 C2131 1.524 . S
C2132 C2133 1.415 . S
C2133 H2103 0.950 . S
C2133 C2128 1.363 . S
C2133 C2132 1.415 . S
H2134 C2131 0.999 . S
H2135 C2116 0.913 . S
H2136 C2154 0.951 . S
H2137 C2156 0.951 . S
H2138 C2158 0.950 . S
H2139 C2159 0.950 . S
H2140 C2161 0.950 . S
H2141 C2164 0.950 . S
H2142 C2165 0.950 . S
H2143 C2167 0.950 . S
H2144 C2168 0.950 . S
H2145 C2169 0.951 . S
H2146 C2171 0.951 . S
H2147 C2173 0.950 . S
H2148 C2174 0.950 . S
H2149 C2176 0.950 . S
H2150 C2179 0.950 . S
H2151 C2180 0.950 . S
H2152 C2182 0.950 . S
H2153 C2183 0.950 . S
C2154 H2136 0.951 . S
C2154 C2155 1.366 . S
C2154 C2156 1.388 . S
C2155 C2154 1.366 . S
C2155 C2159 1.385 . S
C2156 H2137 0.951 . S
C2156 C2154 1.388 . S
C2156 C2157 1.366 . S
C2157 C2156 1.366 . S
C2157 C2158 1.414 . S
C2157 C2160 1.499 . S
C2158 H2138 0.950 . S
C2158 C2157 1.414 . S
C2158 C2159 1.374 . S
C2159 H2139 0.950 . S
C2159 C2155 1.385 . S
C2159 C2158 1.374 . S
C2160 C2157 1.499 . S
C2160 C2161 1.373 . S
C2160 C2162 1.389 . S
C2161 H2140 0.950 . S
C2161 C2160 1.373 . S
C2161 C2177 1.377 . S
C2162 C2160 1.389 . S
C2162 C2163 1.524 . S
C2162 C2176 1.377 . S
C2163 C2162 1.524 . S
C2163 C2164 1.397 . S
C2163 C2168 1.363 . S
C2164 H2141 0.950 . S
C2164 C2163 1.397 . S
C2164 C2165 1.334 . S
C2165 H2142 0.950 . S
C2165 C2164 1.334 . S
C2165 C2166 1.287 . S
C2166 C2165 1.287 . S
C2166 C2167 1.524 . S
C2166 H2185 0.913 . S
C2167 H2143 0.950 . S
C2167 C2166 1.524 . S
C2167 C2168 1.415 . S
C2168 H2144 0.950 . S
C2168 C2163 1.363 . S
C2168 C2167 1.415 . S
C2169 H2145 0.951 . S
C2169 C2170 1.366 . S
C2169 C2171 1.388 . S
C2170 C2169 1.366 . S
C2170 C2174 1.385 . S
C2171 H2146 0.951 . S
C2171 C2169 1.388 . S
C2171 C2172 1.366 . S
C2172 C2171 1.366 . S
C2172 C2173 1.414 . S
C2172 C2175 1.499 . S
C2173 H2147 0.950 . S
C2173 C2172 1.414 . S
C2173 C2174 1.374 . S
C2174 H2148 0.950 . S
C2174 C2170 1.385 . S
C2174 C2173 1.374 . S
C2175 C2172 1.499 . S
C2175 C2176 1.373 . S
C2175 C2177 1.389 . S
C2176 H2149 0.950 . S
C2176 C2162 1.377 . S
C2176 C2175 1.373 . S
C2177 C2161 1.377 . S
C2177 C2175 1.389 . S
C2177 C2178 1.524 . S
C2178 C2177 1.524 . S
C2178 C2179 1.397 . S
C2178 C2183 1.363 . S
C2179 H2150 0.950 . S
C2179 C2178 1.397 . S
C2179 C2180 1.334 . S
C2180 H2151 0.950 . S
C2180 C2179 1.334 . S
C2180 C2181 1.287 . S
C2181 C2180 1.287 . S
C2181 C2182 1.524 . S
C2181 H2184 0.999 . S
C2182 H2152 0.950 . S
C2182 C2181 1.524 . S
C2182 C2183 1.415 . S
C2183 H2153 0.950 . S
C2183 C2178 1.363 . S
C2183 C2182 1.415 . S
H2184 C2181 0.999 . S
H2185 C2166 0.913 . S
H2186 C2204 0.951 . S
H2187 C2206 0.951 . S
H2188 C2208 0.950 . S
H2189 C2209 0.950 . S
H2190 C2211 0.950 1_455 S
H2191 C2214 0.950 . S
H2192 C2215 0.950 . S
H2193 C2217 0.950 . S
H2194 C2218 0.950 . S
H2195 C2219 0.951 . S
H2196 C2221 0.951 . S
H2197 C2223 0.950 . S
H2198 C2224 0.950 . S
H2199 C2226 0.950 . S
H2200 C2229 0.950 . S
H2201 C2230 0.950 . S
H2202 C2232 0.950 . S
H2203 C2233 0.950 . S
C2204 H2186 0.951 . S
C2204 C2205 1.366 1_655 S
C2204 C2206 1.388 . S
C2205 C2204 1.366 1_455 S
C2205 C2209 1.385 . S
C2206 H2187 0.951 . S
C2206 C2204 1.388 . S
C2206 C2207 1.366 . S
C2207 C2206 1.366 . S
C2207 C2208 1.414 1_655 S
C2207 C2210 1.499 . S
C2208 H2188 0.950 . S
C2208 C2207 1.414 1_455 S
C2208 C2209 1.374 . S
C2209 H2189 0.950 . S
C2209 C2205 1.385 . S
C2209 C2208 1.374 . S
C2210 C2207 1.499 . S
C2210 C2211 1.373 . S
C2210 C2212 1.389 . S
C2211 H2190 0.950 1_655 S
C2211 C2210 1.373 . S
C2211 C2227 1.377 . S
C2212 C2210 1.389 . S
C2212 C2213 1.524 . S
C2212 C2226 1.377 . S
C2213 C2212 1.524 . S
C2213 C2214 1.397 . S
C2213 C2218 1.363 . S
C2214 H2191 0.950 . S
C2214 C2213 1.397 . S
C2214 C2215 1.334 . S
C2215 H2192 0.950 . S
C2215 C2214 1.334 . S
C2215 C2216 1.287 . S
C2216 C2215 1.287 . S
C2216 C2217 1.524 . S
C2216 H2235 0.913 . S
C2217 H2193 0.950 . S
C2217 C2216 1.524 . S
C2217 C2218 1.415 . S
C2218 H2194 0.950 . S
C2218 C2213 1.363 . S
C2218 C2217 1.415 . S
C2219 H2195 0.951 . S
C2219 C2220 1.366 . S
C2219 C2221 1.388 . S
C2220 C2219 1.366 . S
C2220 C2224 1.385 . S
C2221 H2196 0.951 . S
C2221 C2219 1.388 . S
C2221 C2222 1.366 . S
C2222 C2221 1.366 . S
C2222 C2223 1.414 . S
C2222 C2225 1.499 . S
C2223 H2197 0.950 . S
C2223 C2222 1.414 . S
C2223 C2224 1.374 . S
C2224 H2198 0.950 . S
C2224 C2220 1.385 . S
C2224 C2223 1.374 . S
C2225 C2222 1.499 . S
C2225 C2226 1.373 . S
C2225 C2227 1.389 . S
C2226 H2199 0.950 . S
C2226 C2212 1.377 . S
C2226 C2225 1.373 . S
C2227 C2211 1.377 . S
C2227 C2225 1.389 . S
C2227 C2228 1.524 . S
C2228 C2227 1.524 . S
C2228 C2229 1.397 . S
C2228 C2233 1.363 1_655 S
C2229 H2200 0.950 . S
C2229 C2228 1.397 . S
C2229 C2230 1.334 . S
C2230 H2201 0.950 . S
C2230 C2229 1.334 . S
C2230 C2231 1.232 1_655 S
C2231 C2230 1.232 1_455 S
C2231 C2232 1.569 . S
C2231 H2234 1.017 . S
C2232 H2202 0.950 . S
C2232 C2231 1.569 . S
C2232 C2233 1.415 . S
C2233 H2203 0.950 . S
C2233 C2228 1.363 1_455 S
C2233 C2232 1.415 . S
H2234 C2231 1.017 . S
H2235 C2216 0.913 . S
H2236 C2254 0.951 . S
H2237 C2256 0.951 . S
H2238 C2258 0.950 . S
H2239 C2259 0.950 . S
H2240 C2261 0.950 . S
H2241 C2264 0.950 . S
H2242 C2265 0.950 . S
H2243 C2267 0.950 . S
H2244 C2268 0.950 . S
H2245 C2269 0.951 . S
H2246 C2271 0.951 . S
H2247 C2273 0.950 . S
H2248 C2274 0.950 . S
H2249 C2276 0.950 . S
H2250 C2279 0.950 . S
H2251 C2280 0.950 . S
H2252 C2282 0.950 . S
H2253 C2283 0.950 . S
C2254 H2236 0.951 . S
C2254 C2255 1.366 . S
C2254 C2256 1.388 . S
C2255 C2254 1.366 . S
C2255 C2259 1.385 . S
C2256 H2237 0.951 . S
C2256 C2254 1.388 . S
C2256 C2257 1.366 . S
C2257 C2256 1.366 . S
C2257 C2258 1.414 . S
C2257 C2260 1.499 . S
C2258 H2238 0.950 . S
C2258 C2257 1.414 . S
C2258 C2259 1.374 . S
C2259 H2239 0.950 . S
C2259 C2255 1.385 . S
C2259 C2258 1.374 . S
C2260 C2257 1.499 . S
C2260 C2261 1.373 . S
C2260 C2262 1.389 . S
C2261 H2240 0.950 . S
C2261 C2260 1.373 . S
C2261 C2277 1.377 . S
C2262 C2260 1.389 . S
C2262 C2263 1.524 . S
C2262 C2276 1.377 . S
C2263 C2262 1.524 . S
C2263 C2264 1.397 . S
C2263 C2268 1.363 . S
C2264 H2241 0.950 . S
C2264 C2263 1.397 . S
C2264 C2265 1.334 . S
C2265 H2242 0.950 . S
C2265 C2264 1.334 . S
C2265 C2266 1.287 . S
C2266 C2265 1.287 . S
C2266 C2267 1.524 . S
C2266 H2285 0.913 . S
C2267 H2243 0.950 . S
C2267 C2266 1.524 . S
C2267 C2268 1.415 . S
C2268 H2244 0.950 . S
C2268 C2263 1.363 . S
C2268 C2267 1.415 . S
C2269 H2245 0.951 . S
C2269 C2270 1.366 . S
C2269 C2271 1.388 . S
C2270 C2269 1.366 . S
C2270 C2274 1.385 . S
C2271 H2246 0.951 . S
C2271 C2269 1.388 . S
C2271 C2272 1.366 . S
C2272 C2271 1.366 . S
C2272 C2273 1.414 . S
C2272 C2275 1.499 . S
C2273 H2247 0.950 . S
C2273 C2272 1.414 . S
C2273 C2274 1.374 . S
C2274 H2248 0.950 . S
C2274 C2270 1.385 . S
C2274 C2273 1.374 . S
C2275 C2272 1.499 . S
C2275 C2276 1.373 . S
C2275 C2277 1.389 . S
C2276 H2249 0.950 . S
C2276 C2262 1.377 . S
C2276 C2275 1.373 . S
C2277 C2261 1.377 . S
C2277 C2275 1.389 . S
C2277 C2278 1.524 . S
C2278 C2277 1.524 . S
C2278 C2279 1.397 . S
C2278 C2283 1.363 . S
C2279 H2250 0.950 . S
C2279 C2278 1.397 . S
C2279 C2280 1.334 . S
C2280 H2251 0.950 . S
C2280 C2279 1.334 . S
C2280 C2281 1.287 . S
C2281 C2280 1.287 . S
C2281 C2282 1.524 . S
C2281 H2284 0.999 . S
C2282 H2252 0.950 . S
C2282 C2281 1.524 . S
C2282 C2283 1.415 . S
C2283 H2253 0.950 . S
C2283 C2278 1.363 . S
C2283 C2282 1.415 . S
H2284 C2281 0.999 . S
H2285 C2266 0.913 . S
H2286 C2304 0.951 . S
H2287 C2306 0.951 . S
H2288 C2308 0.950 . S
H2289 C2309 0.950 . S
H2290 C2311 0.950 . S
H2291 C2314 0.950 . S
H2292 C2315 0.950 . S
H2293 C2317 0.950 . S
H2294 C2318 0.950 . S
H2295 C2319 0.951 . S
H2296 C2321 0.951 . S
H2297 C2323 0.950 . S
H2298 C2324 0.950 . S
H2299 C2326 0.950 . S
H2300 C2329 0.950 . S
H2301 C2330 0.950 . S
H2302 C2332 0.950 . S
H2303 C2333 0.950 . S
C2304 H2286 0.951 . S
C2304 C2305 1.366 . S
C2304 C2306 1.388 . S
C2305 C2304 1.366 . S
C2305 C2309 1.385 . S
C2306 H2287 0.951 . S
C2306 C2304 1.388 . S
C2306 C2307 1.366 . S
C2307 C2306 1.366 . S
C2307 C2308 1.414 . S
C2307 C2310 1.499 . S
C2308 H2288 0.950 . S
C2308 C2307 1.414 . S
C2308 C2309 1.374 . S
C2309 H2289 0.950 . S
C2309 C2305 1.385 . S
C2309 C2308 1.374 . S
C2310 C2307 1.499 . S
C2310 C2311 1.373 . S
C2310 C2312 1.389 . S
C2311 H2290 0.950 . S
C2311 C2310 1.373 . S
C2311 C2327 1.377 . S
C2312 C2310 1.389 . S
C2312 C2313 1.524 . S
C2312 C2326 1.377 . S
C2313 C2312 1.524 . S
C2313 C2314 1.397 . S
C2313 C2318 1.363 . S
C2314 H2291 0.950 . S
C2314 C2313 1.397 . S
C2314 C2315 1.334 . S
C2315 H2292 0.950 . S
C2315 C2314 1.334 . S
C2315 C2316 1.287 . S
C2316 C2315 1.287 . S
C2316 C2317 1.524 . S
C2316 H2335 0.913 . S
C2317 H2293 0.950 . S
C2317 C2316 1.524 . S
C2317 C2318 1.415 . S
C2318 H2294 0.950 . S
C2318 C2313 1.363 . S
C2318 C2317 1.415 . S
C2319 H2295 0.951 . S
C2319 C2320 1.366 . S
C2319 C2321 1.388 . S
C2320 C2319 1.366 . S
C2320 C2324 1.385 . S
C2321 H2296 0.951 . S
C2321 C2319 1.388 . S
C2321 C2322 1.366 . S
C2322 C2321 1.366 . S
C2322 C2323 1.414 . S
C2322 C2325 1.499 . S
C2323 H2297 0.950 . S
C2323 C2322 1.414 . S
C2323 C2324 1.374 . S
C2324 H2298 0.950 . S
C2324 C2320 1.385 . S
C2324 C2323 1.374 . S
C2325 C2322 1.499 . S
C2325 C2326 1.373 . S
C2325 C2327 1.389 . S
C2326 H2299 0.950 . S
C2326 C2312 1.377 . S
C2326 C2325 1.373 . S
C2327 C2311 1.377 . S
C2327 C2325 1.389 . S
C2327 C2328 1.524 . S
C2328 C2327 1.524 . S
C2328 C2329 1.397 . S
C2328 C2333 1.363 . S
C2329 H2300 0.950 . S
C2329 C2328 1.397 . S
C2329 C2330 1.334 . S
C2330 H2301 0.950 . S
C2330 C2329 1.334 . S
C2330 C2331 1.287 . S
C2331 C2330 1.287 . S
C2331 C2332 1.524 . S
C2331 H2334 0.999 . S
C2332 H2302 0.950 . S
C2332 C2331 1.524 . S
C2332 C2333 1.415 . S
C2333 H2303 0.950 . S
C2333 C2328 1.363 . S
C2333 C2332 1.415 . S
H2334 C2331 0.999 . S
H2335 C2316 0.913 . S
H2336 C2354 0.951 . S
H2337 C2356 0.951 . S
H2338 C2358 0.950 . S
H2339 C2359 0.950 . S
H2340 C2361 0.950 . S
H2341 C2364 0.950 . S
H2342 C2365 0.950 . S
H2343 C2367 0.950 . S
H2344 C2368 0.950 . S
H2345 C2369 0.951 . S
H2346 C2371 0.951 . S
H2347 C2373 0.950 . S
H2348 C2374 0.950 . S
H2349 C2376 0.950 . S
H2350 C2379 0.950 . S
H2351 C2380 0.950 . S
H2352 C2382 0.950 . S
H2353 C2383 0.950 . S
C2354 H2336 0.951 . S
C2354 C2355 1.366 . S
C2354 C2356 1.388 . S
C2355 C2354 1.366 . S
C2355 C2359 1.385 . S
C2356 H2337 0.951 . S
C2356 C2354 1.388 . S
C2356 C2357 1.366 . S
C2357 C2356 1.366 . S
C2357 C2358 1.414 . S
C2357 C2360 1.499 . S
C2358 H2338 0.950 . S
C2358 C2357 1.414 . S
C2358 C2359 1.374 . S
C2359 H2339 0.950 . S
C2359 C2355 1.385 . S
C2359 C2358 1.374 . S
C2360 C2357 1.499 . S
C2360 C2361 1.373 . S
C2360 C2362 1.389 . S
C2361 H2340 0.950 . S
C2361 C2360 1.373 . S
C2361 C2377 1.377 . S
C2362 C2360 1.389 . S
C2362 C2363 1.524 . S
C2362 C2376 1.377 . S
C2363 C2362 1.524 . S
C2363 C2364 1.397 . S
C2363 C2368 1.363 . S
C2364 H2341 0.950 . S
C2364 C2363 1.397 . S
C2364 C2365 1.334 . S
C2365 H2342 0.950 . S
C2365 C2364 1.334 . S
C2365 C2366 1.287 . S
C2366 C2365 1.287 . S
C2366 C2367 1.524 . S
C2366 H2385 0.913 . S
C2367 H2343 0.950 . S
C2367 C2366 1.524 . S
C2367 C2368 1.415 . S
C2368 H2344 0.950 . S
C2368 C2363 1.363 . S
C2368 C2367 1.415 . S
C2369 H2345 0.951 . S
C2369 C2370 1.366 . S
C2369 C2371 1.388 . S
C2370 C2369 1.366 . S
C2370 C2374 1.385 . S
C2371 H2346 0.951 . S
C2371 C2369 1.388 . S
C2371 C2372 1.366 . S
C2372 C2371 1.366 . S
C2372 C2373 1.414 . S
C2372 C2375 1.499 . S
C2373 H2347 0.950 . S
C2373 C2372 1.414 . S
C2373 C2374 1.374 . S
C2374 H2348 0.950 . S
C2374 C2370 1.385 . S
C2374 C2373 1.374 . S
C2375 C2372 1.499 . S
C2375 C2376 1.373 . S
C2375 C2377 1.389 . S
C2376 H2349 0.950 . S
C2376 C2362 1.377 . S
C2376 C2375 1.373 . S
C2377 C2361 1.377 . S
C2377 C2375 1.389 . S
C2377 C2378 1.524 . S
C2378 C2377 1.524 . S
C2378 C2379 1.397 . S
C2378 C2383 1.363 . S
C2379 H2350 0.950 . S
C2379 C2378 1.397 . S
C2379 C2380 1.334 . S
C2380 H2351 0.950 . S
C2380 C2379 1.334 . S
C2380 C2381 1.287 . S
C2381 C2380 1.287 . S
C2381 C2382 1.524 . S
C2381 H2384 0.999 . S
C2382 H2352 0.950 . S
C2382 C2381 1.524 . S
C2382 C2383 1.415 . S
C2383 H2353 0.950 . S
C2383 C2378 1.363 . S
C2383 C2382 1.415 . S
H2384 C2381 0.999 . S
H2385 C2366 0.913 . S
H2386 C2404 0.951 . S
H2387 C2406 0.951 . S
H2388 C2408 0.950 . S
H2389 C2409 0.950 . S
H2390 C2411 0.950 . S
H2391 C2414 0.950 . S
H2392 C2415 0.950 . S
H2393 C2417 0.950 . S
H2394 C2418 0.950 . S
H2395 C2419 0.951 . S
H2396 C2421 0.951 . S
H2397 C2423 0.950 . S
H2398 C2424 0.950 . S
H2399 C2426 0.950 . S
H2400 C2429 0.950 . S
H2401 C2430 0.950 . S
H2402 C2432 0.950 . S
H2403 C2433 0.950 . S
C2404 H2386 0.951 . S
C2404 C2405 1.366 . S
C2404 C2406 1.388 . S
C2405 C2404 1.366 . S
C2405 C2409 1.385 . S
C2406 H2387 0.951 . S
C2406 C2404 1.388 . S
C2406 C2407 1.366 . S
C2407 C2406 1.366 . S
C2407 C2408 1.414 . S
C2407 C2410 1.499 . S
C2408 H2388 0.950 . S
C2408 C2407 1.414 . S
C2408 C2409 1.374 . S
C2409 H2389 0.950 . S
C2409 C2405 1.385 . S
C2409 C2408 1.374 . S
C2410 C2407 1.499 . S
C2410 C2411 1.373 . S
C2410 C2412 1.389 . S
C2411 H2390 0.950 . S
C2411 C2410 1.373 . S
C2411 C2427 1.377 . S
C2412 C2410 1.389 . S
C2412 C2413 1.524 . S
C2412 C2426 1.377 . S
C2413 C2412 1.524 . S
C2413 C2414 1.397 . S
C2413 C2418 1.363 . S
C2414 H2391 0.950 . S
C2414 C2413 1.397 . S
C2414 C2415 1.334 . S
C2415 H2392 0.950 . S
C2415 C2414 1.334 . S
C2415 C2416 1.287 . S
C2416 C2415 1.287 . S
C2416 C2417 1.524 . S
C2416 H2435 0.913 . S
C2417 H2393 0.950 . S
C2417 C2416 1.524 . S
C2417 C2418 1.415 . S
C2418 H2394 0.950 . S
C2418 C2413 1.363 . S
C2418 C2417 1.415 . S
C2419 H2395 0.951 . S
C2419 C2420 1.366 . S
C2419 C2421 1.388 . S
C2420 C2419 1.366 . S
C2420 C2424 1.385 . S
C2421 H2396 0.951 . S
C2421 C2419 1.388 . S
C2421 C2422 1.366 . S
C2422 C2421 1.366 . S
C2422 C2423 1.414 . S
C2422 C2425 1.499 . S
C2423 H2397 0.950 . S
C2423 C2422 1.414 . S
C2423 C2424 1.374 . S
C2424 H2398 0.950 . S
C2424 C2420 1.385 . S
C2424 C2423 1.374 . S
C2425 C2422 1.499 . S
C2425 C2426 1.373 . S
C2425 C2427 1.389 . S
C2426 H2399 0.950 . S
C2426 C2412 1.377 . S
C2426 C2425 1.373 . S
C2427 C2411 1.377 . S
C2427 C2425 1.389 . S
C2427 C2428 1.524 . S
C2428 C2427 1.524 . S
C2428 C2429 1.397 . S
C2428 C2433 1.363 . S
C2429 H2400 0.950 . S
C2429 C2428 1.397 . S
C2429 C2430 1.334 . S
C2430 H2401 0.950 . S
C2430 C2429 1.334 . S
C2430 C2431 1.287 . S
C2431 C2430 1.287 . S
C2431 C2432 1.524 . S
C2431 H2434 0.999 . S
C2432 H2402 0.950 . S
C2432 C2431 1.524 . S
C2432 C2433 1.415 . S
C2433 H2403 0.950 . S
C2433 C2428 1.363 . S
C2433 C2432 1.415 . S
H2434 C2431 0.999 . S
H2435 C2416 0.913 . S
H2436 C2454 0.951 . S
H2437 C2456 1.009 . S
H2438 C2458 0.950 . S
H2439 C2459 0.950 . S
H2440 C2461 0.950 . S
H2441 C2464 0.950 . S
H2442 C2465 0.950 1_655 S
H2443 C2467 0.950 . S
H2444 C2468 0.950 . S
H2445 C2469 0.951 . S
H2446 C2471 0.951 . S
H2447 C2473 0.950 . S
H2448 C2474 0.950 . S
H2449 C2476 0.950 . S
H2450 C2479 0.950 . S
H2451 C2480 0.950 . S
H2452 C2482 0.950 . S
H2453 C2483 0.950 . S
C2454 H2436 0.951 . S
C2454 C2455 1.366 . S
C2454 C2456 1.330 1_655 S
C2455 C2454 1.366 . S
C2455 C2459 1.385 1_556 S
C2456 H2437 1.009 . S
C2456 C2454 1.330 1_455 S
C2456 C2457 1.369 1_556 S
C2457 C2456 1.369 1_554 S
C2457 C2458 1.414 1_455 S
C2457 C2460 1.499 . S
C2458 H2438 0.950 . S
C2458 C2457 1.414 1_655 S
C2458 C2459 1.374 . S
C2459 H2439 0.950 . S
C2459 C2455 1.385 1_554 S
C2459 C2458 1.374 . S
C2460 C2457 1.499 . S
C2460 C2461 1.373 . S
C2460 C2462 1.389 . S
C2461 H2440 0.950 . S
C2461 C2460 1.373 . S
C2461 C2477 1.377 . S
C2462 C2460 1.389 . S
C2462 C2463 1.524 1_554 S
C2462 C2476 1.377 . S
C2463 C2462 1.524 1_556 S
C2463 C2464 1.397 . S
C2463 C2468 1.363 . S
C2464 H2441 0.950 . S
C2464 C2463 1.397 . S
C2464 C2465 1.334 . S
C2465 H2442 0.950 1_455 S
C2465 C2464 1.334 . S
C2465 C2466 1.287 . S
C2466 C2465 1.287 . S
C2466 C2467 1.524 . S
C2466 H2485 0.913 . S
C2467 H2443 0.950 . S
C2467 C2466 1.524 . S
C2467 C2468 1.415 . S
C2468 H2444 0.950 . S
C2468 C2463 1.363 . S
C2468 C2467 1.415 . S
C2469 H2445 0.951 . S
C2469 C2470 1.366 . S
C2469 C2471 1.388 . S
C2470 C2469 1.366 . S
C2470 C2474 1.385 . S
C2471 H2446 0.951 . S
C2471 C2469 1.388 . S
C2471 C2472 1.366 . S
C2472 C2471 1.366 . S
C2472 C2473 1.414 . S
C2472 C2475 1.499 . S
C2473 H2447 0.950 . S
C2473 C2472 1.414 . S
C2473 C2474 1.374 . S
C2474 H2448 0.950 . S
C2474 C2470 1.385 . S
C2474 C2473 1.374 . S
C2475 C2472 1.499 . S
C2475 C2476 1.373 . S
C2475 C2477 1.389 . S
C2476 H2449 0.950 . S
C2476 C2462 1.377 . S
C2476 C2475 1.373 . S
C2477 C2461 1.377 . S
C2477 C2475 1.389 . S
C2477 C2478 1.524 . S
C2478 C2477 1.524 . S
C2478 C2479 1.397 . S
C2478 C2483 1.363 . S
C2479 H2450 0.950 . S
C2479 C2478 1.397 . S
C2479 C2480 1.334 . S
C2480 H2451 0.950 . S
C2480 C2479 1.334 . S
C2480 C2481 1.287 . S
C2481 C2480 1.287 . S
C2481 C2482 1.524 . S
C2481 H2484 0.999 . S
C2482 H2452 0.950 . S
C2482 C2481 1.524 . S
C2482 C2483 1.415 . S
C2483 H2453 0.950 . S
C2483 C2478 1.363 . S
C2483 C2482 1.415 . S
H2484 C2481 0.999 . S
H2485 C2466 0.913 . S
H2486 C2504 0.951 . S
H2487 C2506 0.951 . S
H2488 C2508 0.950 . S
H2489 C2509 0.950 . S
H2490 C2511 0.950 . S
H2491 C2514 0.950 . S
H2492 C2515 0.950 . S
H2493 C2517 0.950 . S
H2494 C2518 0.950 . S
H2495 C2519 0.951 . S
H2496 C2521 0.951 . S
H2497 C2523 0.950 . S
H2498 C2524 0.950 . S
H2499 C2526 0.950 . S
H2500 C2529 0.950 . S
H2501 C2530 0.950 . S
H2502 C2532 0.950 . S
H2503 C2533 0.950 . S
C2504 H2486 0.951 . S
C2504 C2505 1.366 . S
C2504 C2506 1.388 . S
C2505 C2504 1.366 . S
C2505 C2509 1.385 . S
C2506 H2487 0.951 . S
C2506 C2504 1.388 . S
C2506 C2507 1.366 . S
C2507 C2506 1.366 . S
C2507 C2508 1.414 . S
C2507 C2510 1.499 . S
C2508 H2488 0.950 . S
C2508 C2507 1.414 . S
C2508 C2509 1.374 . S
C2509 H2489 0.950 . S
C2509 C2505 1.385 . S
C2509 C2508 1.374 . S
C2510 C2507 1.499 . S
C2510 C2511 1.373 . S
C2510 C2512 1.389 . S
C2511 H2490 0.950 . S
C2511 C2510 1.373 . S
C2511 C2527 1.377 . S
C2512 C2510 1.389 . S
C2512 C2513 1.524 . S
C2512 C2526 1.377 . S
C2513 C2512 1.524 . S
C2513 C2514 1.397 . S
C2513 C2518 1.363 . S
C2514 H2491 0.950 . S
C2514 C2513 1.397 . S
C2514 C2515 1.334 . S
C2515 H2492 0.950 . S
C2515 C2514 1.334 . S
C2515 C2516 1.287 . S
C2516 C2515 1.287 . S
C2516 C2517 1.524 . S
C2516 H2535 0.913 . S
C2517 H2493 0.950 . S
C2517 C2516 1.524 . S
C2517 C2518 1.415 . S
C2518 H2494 0.950 . S
C2518 C2513 1.363 . S
C2518 C2517 1.415 . S
C2519 H2495 0.951 . S
C2519 C2520 1.366 . S
C2519 C2521 1.388 . S
C2520 C2519 1.366 . S
C2520 C2524 1.385 . S
C2521 H2496 0.951 . S
C2521 C2519 1.388 . S
C2521 C2522 1.366 . S
C2522 C2521 1.366 . S
C2522 C2523 1.414 . S
C2522 C2525 1.499 . S
C2523 H2497 0.950 . S
C2523 C2522 1.414 . S
C2523 C2524 1.374 . S
C2524 H2498 0.950 . S
C2524 C2520 1.385 . S
C2524 C2523 1.374 . S
C2525 C2522 1.499 . S
C2525 C2526 1.373 . S
C2525 C2527 1.389 . S
C2526 H2499 0.950 . S
C2526 C2512 1.377 . S
C2526 C2525 1.373 . S
C2527 C2511 1.377 . S
C2527 C2525 1.389 . S
C2527 C2528 1.524 . S
C2528 C2527 1.524 . S
C2528 C2529 1.397 . S
C2528 C2533 1.363 . S
C2529 H2500 0.950 . S
C2529 C2528 1.397 . S
C2529 C2530 1.334 . S
C2530 H2501 0.950 . S
C2530 C2529 1.334 . S
C2530 C2531 1.287 . S
C2531 C2530 1.287 . S
C2531 C2532 1.524 . S
C2531 H2534 0.999 . S
C2532 H2502 0.950 . S
C2532 C2531 1.524 . S
C2532 C2533 1.415 . S
C2533 H2503 0.950 . S
C2533 C2528 1.363 . S
C2533 C2532 1.415 . S
H2534 C2531 0.999 . S
H2535 C2516 0.913 . S
H2536 C2554 0.951 . S
H2537 C2556 0.951 . S
H2538 C2558 0.950 . S
H2539 C2559 0.950 . S
H2540 C2561 0.950 . S
H2541 C2564 0.950 . S
H2542 C2565 0.950 . S
H2543 C2567 0.950 . S
H2544 C2568 0.950 . S
H2545 C2569 0.951 . S
H2546 C2571 0.951 . S
H2547 C2573 0.950 . S
H2548 C2574 0.950 . S
H2549 C2576 0.950 . S
H2550 C2579 0.950 . S
H2551 C2580 0.950 . S
H2552 C2582 0.950 . S
H2553 C2583 0.950 . S
C2554 H2536 0.951 . S
C2554 C2555 1.366 . S
C2554 C2556 1.388 . S
C2555 C2554 1.366 . S
C2555 C2559 1.385 . S
C2556 H2537 0.951 . S
C2556 C2554 1.388 . S
C2556 C2557 1.366 . S
C2557 C2556 1.366 . S
C2557 C2558 1.414 . S
C2557 C2560 1.499 . S
C2558 H2538 0.950 . S
C2558 C2557 1.414 . S
C2558 C2559 1.374 . S
C2559 H2539 0.950 . S
C2559 C2555 1.385 . S
C2559 C2558 1.374 . S
C2560 C2557 1.499 . S
C2560 C2561 1.373 . S
C2560 C2562 1.389 . S
C2561 H2540 0.950 . S
C2561 C2560 1.373 . S
C2561 C2577 1.377 . S
C2562 C2560 1.389 . S
C2562 C2563 1.524 . S
C2562 C2576 1.377 . S
C2563 C2562 1.524 . S
C2563 C2564 1.397 . S
C2563 C2568 1.363 . S
C2564 H2541 0.950 . S
C2564 C2563 1.397 . S
C2564 C2565 1.334 . S
C2565 H2542 0.950 . S
C2565 C2564 1.334 . S
C2565 C2566 1.287 . S
C2566 C2565 1.287 . S
C2566 C2567 1.524 . S
C2566 H2585 0.913 . S
C2567 H2543 0.950 . S
C2567 C2566 1.524 . S
C2567 C2568 1.415 . S
C2568 H2544 0.950 . S
C2568 C2563 1.363 . S
C2568 C2567 1.415 . S
C2569 H2545 0.951 . S
C2569 C2570 1.366 . S
C2569 C2571 1.388 . S
C2570 C2569 1.366 . S
C2570 C2574 1.385 . S
C2571 H2546 0.951 . S
C2571 C2569 1.388 . S
C2571 C2572 1.366 . S
C2572 C2571 1.366 . S
C2572 C2573 1.414 . S
C2572 C2575 1.499 . S
C2573 H2547 0.950 . S
C2573 C2572 1.414 . S
C2573 C2574 1.374 . S
C2574 H2548 0.950 . S
C2574 C2570 1.385 . S
C2574 C2573 1.374 . S
C2575 C2572 1.499 . S
C2575 C2576 1.373 . S
C2575 C2577 1.389 . S
C2576 H2549 0.950 . S
C2576 C2562 1.377 . S
C2576 C2575 1.373 . S
C2577 C2561 1.377 . S
C2577 C2575 1.389 . S
C2577 C2578 1.524 . S
C2578 C2577 1.524 . S
C2578 C2579 1.397 . S
C2578 C2583 1.363 . S
C2579 H2550 0.950 . S
C2579 C2578 1.397 . S
C2579 C2580 1.334 . S
C2580 H2551 0.950 . S
C2580 C2579 1.334 . S
C2580 C2581 1.287 . S
C2581 C2580 1.287 . S
C2581 C2582 1.524 . S
C2581 H2584 0.999 . S
C2582 H2552 0.950 . S
C2582 C2581 1.524 . S
C2582 C2583 1.415 . S
C2583 H2553 0.950 . S
C2583 C2578 1.363 . S
C2583 C2582 1.415 . S
H2584 C2581 0.999 . S
H2585 C2566 0.913 . S
H2586 C2604 0.951 . S
H2587 C2606 0.951 . S
H2588 C2608 0.950 . S
H2589 C2609 0.950 . S
H2590 C2611 0.950 . S
H2591 C2614 0.950 . S
H2592 C2615 0.950 . S
H2593 C2617 0.950 . S
H2594 C2618 0.950 . S
H2595 C2619 0.951 . S
H2596 C2621 0.951 . S
H2597 C2623 0.950 . S
H2598 C2624 0.950 . S
H2599 C2626 0.950 . S
H2600 C2629 0.950 . S
H2601 C2630 0.950 . S
H2602 C2632 0.950 . S
H2603 C2633 0.950 . S
C2604 H2586 0.951 . S
C2604 C2605 1.366 . S
C2604 C2606 1.388 . S
C2605 C2604 1.366 . S
C2605 C2609 1.385 . S
C2606 H2587 0.951 . S
C2606 C2604 1.388 . S
C2606 C2607 1.366 . S
C2607 C2606 1.366 . S
C2607 C2608 1.414 . S
C2607 C2610 1.499 . S
C2608 H2588 0.950 . S
C2608 C2607 1.414 . S
C2608 C2609 1.374 . S
C2609 H2589 0.950 . S
C2609 C2605 1.385 . S
C2609 C2608 1.374 . S
C2610 C2607 1.499 . S
C2610 C2611 1.373 . S
C2610 C2612 1.389 . S
C2611 H2590 0.950 . S
C2611 C2610 1.373 . S
C2611 C2627 1.377 . S
C2612 C2610 1.389 . S
C2612 C2613 1.524 . S
C2612 C2626 1.377 . S
C2613 C2612 1.524 . S
C2613 C2614 1.397 . S
C2613 C2618 1.363 . S
C2614 H2591 0.950 . S
C2614 C2613 1.397 . S
C2614 C2615 1.334 . S
C2615 H2592 0.950 . S
C2615 C2614 1.334 . S
C2615 C2616 1.287 . S
C2616 C2615 1.287 . S
C2616 C2617 1.524 . S
C2616 H2635 0.913 . S
C2617 H2593 0.950 . S
C2617 C2616 1.524 . S
C2617 C2618 1.415 . S
C2618 H2594 0.950 . S
C2618 C2613 1.363 . S
C2618 C2617 1.415 . S
C2619 H2595 0.951 . S
C2619 C2620 1.366 . S
C2619 C2621 1.388 . S
C2620 C2619 1.366 . S
C2620 C2624 1.385 . S
C2621 H2596 0.951 . S
C2621 C2619 1.388 . S
C2621 C2622 1.366 . S
C2622 C2621 1.366 . S
C2622 C2623 1.414 . S
C2622 C2625 1.499 . S
C2623 H2597 0.950 . S
C2623 C2622 1.414 . S
C2623 C2624 1.374 . S
C2624 H2598 0.950 . S
C2624 C2620 1.385 . S
C2624 C2623 1.374 . S
C2625 C2622 1.499 . S
C2625 C2626 1.373 . S
C2625 C2627 1.389 . S
C2626 H2599 0.950 . S
C2626 C2612 1.377 . S
C2626 C2625 1.373 . S
C2627 C2611 1.377 . S
C2627 C2625 1.389 . S
C2627 C2628 1.524 . S
C2628 C2627 1.524 . S
C2628 C2629 1.397 . S
C2628 C2633 1.363 . S
C2629 H2600 0.950 . S
C2629 C2628 1.397 . S
C2629 C2630 1.334 . S
C2630 H2601 0.950 . S
C2630 C2629 1.334 . S
C2630 C2631 1.287 . S
C2631 C2630 1.287 . S
C2631 C2632 1.524 . S
C2631 H2634 0.999 . S
C2632 H2602 0.950 . S
C2632 C2631 1.524 . S
C2632 C2633 1.415 . S
C2633 H2603 0.950 . S
C2633 C2628 1.363 . S
C2633 C2632 1.415 . S
H2634 C2631 0.999 . S
H2635 C2616 0.913 . S
H2636 C2654 0.951 . S
H2637 C2656 0.951 . S
H2638 C2658 0.975 . S
H2639 C2659 0.950 . S
H2640 C2661 0.950 . S
H2641 C2664 0.950 . S
H2642 C2665 0.950 . S
H2643 C2667 0.950 . S
H2644 C2668 0.950 . S
H2645 C2669 0.951 . S
H2646 C2671 0.951 . S
H2647 C2673 0.950 . S
H2648 C2674 0.950 . S
H2649 C2676 0.950 . S
H2650 C2679 0.950 . S
H2651 C2680 0.950 . S
H2652 C2682 0.950 . S
H2653 C2683 0.950 . S
C2654 H2636 0.951 . S
C2654 C2655 1.366 . S
C2654 C2656 1.388 . S
C2655 C2654 1.366 . S
C2655 C2659 1.385 . S
C2656 H2637 0.951 . S
C2656 C2654 1.388 . S
C2656 C2657 1.366 1_554 S
C2657 C2656 1.366 1_556 S
C2657 C2658 1.418 . S
C2657 C2660 1.499 . S
C2658 H2638 0.975 . S
C2658 C2657 1.418 . S
C2658 C2659 1.350 1_556 S
C2659 H2639 0.950 . S
C2659 C2655 1.385 . S
C2659 C2658 1.350 1_554 S
C2660 C2657 1.499 . S
C2660 C2661 1.373 . S
C2660 C2662 1.389 . S
C2661 H2640 0.950 . S
C2661 C2660 1.373 . S
C2661 C2677 1.377 . S
C2662 C2660 1.389 . S
C2662 C2663 1.524 1_556 S
C2662 C2676 1.377 . S
C2663 C2662 1.524 1_554 S
C2663 C2664 1.397 . S
C2663 C2668 1.363 . S
C2664 H2641 0.950 . S
C2664 C2663 1.397 . S
C2664 C2665 1.334 . S
C2665 H2642 0.950 . S
C2665 C2664 1.334 . S
C2665 C2666 1.287 . S
C2666 C2665 1.287 . S
C2666 C2667 1.524 . S
C2666 H2685 0.913 . S
C2667 H2643 0.950 . S
C2667 C2666 1.524 . S
C2667 C2668 1.415 . S
C2668 H2644 0.950 . S
C2668 C2663 1.363 . S
C2668 C2667 1.415 . S
C2669 H2645 0.951 . S
C2669 C2670 1.366 . S
C2669 C2671 1.388 . S
C2670 C2669 1.366 . S
C2670 C2674 1.385 . S
C2671 H2646 0.951 . S
C2671 C2669 1.388 . S
C2671 C2672 1.366 . S
C2672 C2671 1.366 . S
C2672 C2673 1.414 . S
C2672 C2675 1.499 . S
C2673 H2647 0.950 . S
C2673 C2672 1.414 . S
C2673 C2674 1.374 . S
C2674 H2648 0.950 . S
C2674 C2670 1.385 . S
C2674 C2673 1.374 . S
C2675 C2672 1.499 . S
C2675 C2676 1.373 . S
C2675 C2677 1.389 . S
C2676 H2649 0.950 . S
C2676 C2662 1.377 . S
C2676 C2675 1.373 . S
C2677 C2661 1.377 . S
C2677 C2675 1.389 . S
C2677 C2678 1.524 . S
C2678 C2677 1.524 . S
C2678 C2679 1.397 . S
C2678 C2683 1.363 . S
C2679 H2650 0.950 . S
C2679 C2678 1.397 . S
C2679 C2680 1.334 . S
C2680 H2651 0.950 . S
C2680 C2679 1.334 . S
C2680 C2681 1.287 . S
C2681 C2680 1.287 . S
C2681 C2682 1.524 . S
C2681 H2684 0.999 . S
C2682 H2652 0.950 . S
C2682 C2681 1.524 . S
C2682 C2683 1.415 . S
C2683 H2653 0.950 . S
C2683 C2678 1.363 . S
C2683 C2682 1.415 . S
H2684 C2681 0.999 . S
H2685 C2666 0.913 . S
H2686 C2704 0.951 . S
H2687 C2706 0.951 . S
H2688 C2708 0.950 . S
H2689 C2709 0.950 . S
H2690 C2711 0.950 . S
H2691 C2714 0.950 . S
H2692 C2715 0.950 . S
H2693 C2717 0.950 . S
H2694 C2718 0.950 . S
H2695 C2719 0.951 . S
H2696 C2721 0.951 . S
H2697 C2723 0.924 1_655 S
H2698 C2724 0.950 . S
H2699 C2726 0.950 . S
H2700 C2729 0.950 . S
H2701 C2730 0.950 . S
H2702 C2732 0.950 . S
H2703 C2733 0.934 1_655 S
C2704 H2686 0.951 . S
C2704 C2705 1.366 . S
C2704 C2706 1.388 . S
C2705 C2704 1.366 . S
C2705 C2709 1.385 . S
C2706 H2687 0.951 . S
C2706 C2704 1.388 . S
C2706 C2707 1.366 . S
C2707 C2706 1.366 . S
C2707 C2708 1.414 . S
C2707 C2710 1.499 . S
C2708 H2688 0.950 . S
C2708 C2707 1.414 . S
C2708 C2709 1.374 . S
C2709 H2689 0.950 . S
C2709 C2705 1.385 . S
C2709 C2708 1.374 . S
C2710 C2707 1.499 . S
C2710 C2711 1.373 . S
C2710 C2712 1.389 . S
C2711 H2690 0.950 . S
C2711 C2710 1.373 . S
C2711 C2727 1.377 . S
C2712 C2710 1.389 . S
C2712 C2713 1.524 . S
C2712 C2726 1.377 . S
C2713 C2712 1.524 . S
C2713 C2714 1.397 . S
C2713 C2718 1.363 . S
C2714 H2691 0.950 . S
C2714 C2713 1.397 . S
C2714 C2715 1.334 . S
C2715 H2692 0.950 . S
C2715 C2714 1.334 . S
C2715 C2716 1.287 . S
C2716 C2715 1.287 . S
C2716 C2717 1.524 . S
C2716 H2735 0.913 . S
C2717 H2693 0.950 . S
C2717 C2716 1.524 . S
C2717 C2718 1.415 . S
C2718 H2694 0.950 . S
C2718 C2713 1.363 . S
C2718 C2717 1.415 . S
C2719 H2695 0.951 . S
C2719 C2720 1.366 . S
C2719 C2721 1.388 . S
C2720 C2719 1.366 . S
C2720 C2724 1.385 . S
C2721 H2696 0.951 . S
C2721 C2719 1.388 . S
C2721 C2722 1.366 1_455 S
C2722 C2721 1.366 1_655 S
C2722 C2723 1.411 1_655 S
C2722 C2725 1.499 . S
C2723 H2697 0.924 1_455 S
C2723 C2722 1.411 1_455 S
C2723 C2724 1.404 . S
C2724 H2698 0.950 . S
C2724 C2720 1.385 . S
C2724 C2723 1.404 . S
C2725 C2722 1.499 . S
C2725 C2726 1.373 . S
C2725 C2727 1.389 . S
C2726 H2699 0.950 . S
C2726 C2712 1.377 . S
C2726 C2725 1.373 . S
C2727 C2711 1.377 . S
C2727 C2725 1.389 . S
C2727 C2728 1.524 . S
C2728 C2727 1.524 . S
C2728 C2729 1.397 1_655 S
C2728 C2733 1.357 1_655 S
C2729 H2700 0.950 . S
C2729 C2728 1.397 1_455 S
C2729 C2730 1.334 . S
C2730 H2701 0.950 . S
C2730 C2729 1.334 . S
C2730 C2731 1.287 . S
C2731 C2730 1.287 . S
C2731 C2732 1.524 . S
C2731 H2734 0.999 . S
C2732 H2702 0.950 . S
C2732 C2731 1.524 . S
C2732 C2733 1.438 . S
C2733 H2703 0.934 1_455 S
C2733 C2728 1.357 1_455 S
C2733 C2732 1.438 . S
H2734 C2731 0.999 . S
H2735 C2716 0.913 . S
C355 C132 1.109 . S
C370 C6 1.109 . S
C405 C20 1.109 . S
C420 C146 1.109 . S
C455 C34 1.109 . S
C470 C160 1.109 . S
C505 C48 1.109 . S
C520 C118 1.109 . S
C555 C62 1.109 . S
C570 C216 1.109 . S
C605 C174 1.109 . S
C620 C76 1.109 . S
C655 C90 1.109 . S
C670 C188 1.109 . S
C705 C202 1.109 . S
C720 C104 1.109 . S
C755 C230 1.109 . S
C770 C258 1.109 . S
C805 C314 1.109 . S
C820 C244 1.109 . S
C855 C272 1.109 . S
C870 C328 1.109 . S
C905 C300 1.109 . S
C920 C286 1.109 . S
C955 C287 1.872 . S
C970 C7 1.871 . S
C1005 C21 1.871 . S
C1020 C245 1.872 . S
C1055 C35 1.872 . S
C1070 C259 1.871 . S
C1105 C49 1.871 . S
C1120 C273 1.872 . S
C1155 C63 1.872 . S
C1170 C329 1.871 . S
C1205 C301 1.871 . S
C1220 C77 1.871 . S
C1255 C315 1.872 . S
C1270 C91 1.871 . S
C1305 C231 1.872 . S
C1320 C105 1.872 . S
C1355 C217 1.871 . S
C1370 C119 1.872 . S
C1405 C133 1.871 . S
C1420 C175 1.871 . S
C1455 C189 1.872 . S
C1470 C147 1.871 . S
C1505 C203 1.872 . S
C1520 C161 1.872 . S
C1555 C9 0.979 . S
C1570 C232 1.018 . S
C1605 C330 1.018 . S
C1620 C23 0.980 . S
C1655 C302 1.018 . S
C1670 C37 0.979 . S
C1705 C51 0.977 . S
C1720 C316 1.018 . S
C1755 C65 0.979 . S
C1770 C246 1.017 . S
C1805 C260 1.018 . S
C1820 C79 0.980 . S
C1855 C274 1.018 . S
C1870 C93 0.978 . S
C1905 C288 1.017 . S
C1920 C107 0.979 . S
C1955 C8 1.018 . S
C1970 C121 0.978 . S
C2005 C22 1.018 . S
C2020 C135 0.979 . S
C2055 C36 1.018 . S
C2070 C149 0.977 . S
C2105 C50 1.018 . S
C2120 C163 0.978 . S
C2155 C64 1.018 . S
C2170 C177 0.978 . S
C2205 C78 1.018 . S
C2220 C191 0.979 . S
C2255 C205 0.977 . S
C2270 C92 1.018 . S
C2305 C106 1.018 . S
C2320 C219 0.978 . S
C2355 C120 1.018 . S
C2370 C233 0.978 . S
C2405 C247 0.978 . S
C2420 C176 1.018 . S
C2455 C190 1.018 . S
C2470 C261 0.978 . S
C2505 C275 0.978 . S
C2520 C204 1.018 . S
C2555 C289 0.977 . S
C2570 C218 1.018 . S
C2605 C303 0.977 . S
C2620 C148 1.018 . S
C2655 C162 1.018 . S
C2670 C317 0.977 . S
C2705 C331 0.979 . S
C2720 C134 1.018 . S
