# Generated by pormake.
# Topology mmt, (4)-cn, num edge types: 1
# Building blocks:
#     Node 0, Type 0, BuildingBlock: NAHDIM_clean_sbu_0, # of connection points: 4
#     Node 1, Type 0, BuildingBlock: NAHDIM_clean_sbu_0, # of connection points: 4
#     Node 2, Type 0, BuildingBlock: NAHDIM_clean_sbu_0, # of connection points: 4
#     Node 3, Type 0, BuildingBlock: NAHDIM_clean_sbu_0, # of connection points: 4
#     Node 4, Type 0, BuildingBlock: NAHDIM_clean_sbu_0, # of connection points: 4
#     Node 5, Type 0, BuildingBlock: NAHDIM_clean_sbu_0, # of connection points: 4
#     Node 6, Type 0, BuildingBlock: NAHDIM_clean_sbu_0, # of connection points: 4
#     Node 7, Type 0, BuildingBlock: NAHDIM_clean_sbu_0, # of connection points: 4
#     Edge 8, Type (0, 0), BuildingBlock: KIFKEQ_clean_linker_1, # of connection points: 2
#     Edge 9, Type (0, 0), BuildingBlock: KIFKEQ_clean_linker_1, # of connection points: 2
#     Edge 10, Type (0, 0), BuildingBlock: KIFKEQ_clean_linker_1, # of connection points: 2
#     Edge 11, Type (0, 0), BuildingBlock: KIFKEQ_clean_linker_1, # of connection points: 2
#     Edge 12, Type (0, 0), BuildingBlock: KIFKEQ_clean_linker_1, # of connection points: 2
#     Edge 13, Type (0, 0), BuildingBlock: KIFKEQ_clean_linker_1, # of connection points: 2
#     Edge 14, Type (0, 0), BuildingBlock: KIFKEQ_clean_linker_1, # of connection points: 2
#     Edge 15, Type (0, 0), BuildingBlock: KIFKEQ_clean_linker_1, # of connection points: 2
#     Edge 16, Type (0, 0), BuildingBlock: KIFKEQ_clean_linker_1, # of connection points: 2
#     Edge 17, Type (0, 0), BuildingBlock: KIFKEQ_clean_linker_1, # of connection points: 2
#     Edge 18, Type (0, 0), BuildingBlock: KIFKEQ_clean_linker_1, # of connection points: 2
#     Edge 19, Type (0, 0), BuildingBlock: KIFKEQ_clean_linker_1, # of connection points: 2
#     Edge 20, Type (0, 0), BuildingBlock: KIFKEQ_clean_linker_1, # of connection points: 2
#     Edge 21, Type (0, 0), BuildingBlock: KIFKEQ_clean_linker_1, # of connection points: 2
#     Edge 22, Type (0, 0), BuildingBlock: KIFKEQ_clean_linker_1, # of connection points: 2
#     Edge 23, Type (0, 0), BuildingBlock: KIFKEQ_clean_linker_1, # of connection points: 2
# Relax obj value: 0.079
# Max RMSD: 0.130
# Mean RMSD: 0.130
data_MOF--net-mmt--node1-NAHDIM_clean_sbu_0--edge1-KIFKEQ_clean_linker_1
_symmetry_space_group_name_H-M    P1
_symmetry_Int_Tables_number       1
_symmetry_cell_setting            triclinic
loop_
_symmetry_equiv_pos_as_xyz
'x, y, z'
_cell_length_a     22.52158
_cell_length_b     38.380288
_cell_length_c     44.937794
_cell_angle_alpha  89.933262
_cell_angle_beta   89.943465
_cell_angle_gamma 89.899645
loop_
_atom_site_label
_atom_site_type_symbol
_atom_site_fract_x
_atom_site_fract_y
_atom_site_fract_z
_atom_type_partial_charge
C0 C 0.0943 0.53693 0.39723 0.0
O1 O 0.05835 0.552 0.37812 0.0
O2 O 0.18094 0.60305 0.3488 0.0
Zn3 Zn 0.17459 0.55075 0.34996 0.0
O4 O 0.11593 0.53473 0.31922 0.0
C5 C 0.26826 0.54078 0.31129 0.0
O6 O 0.23411 0.56329 0.29734 0.0
O7 O 0.14879 0.5334 0.39038 0.0
C8 C 0.07658 0.55387 0.30718 0.0
O9 O 0.07106 0.5865 0.31553 0.0
C10 C 0.17767 0.623 0.37129 0.0
O11 O 0.16869 0.60949 0.39778 0.0
O12 O 0.25303 0.53063 0.33713 0.0
C13 C 0.38857 0.94889 0.41027 0.0
O14 O 0.40975 0.91941 0.39983 0.0
O15 O 0.29736 0.89453 0.36299 0.0
Zn16 Zn 0.32416 0.94397 0.35648 0.0
O17 O 0.39503 0.94429 0.3293 0.0
C18 C 0.20487 0.96852 0.34301 0.0
O19 O 0.18876 0.9461 0.36359 0.0
O20 O 0.34899 0.96494 0.39546 0.0
C21 C 0.38984 0.94557 0.30114 0.0
O22 O 0.33658 0.94566 0.28926 0.0
C23 C 0.26809 0.87819 0.3433 0.0
O24 O 0.25465 0.89403 0.31826 0.0
O25 O 0.25968 0.9724 0.33724 0.0
C26 C 0.59547 0.44911 0.09019 0.0
O27 O 0.56278 0.42829 0.10665 0.0
O28 O 0.69131 0.38356 0.13018 0.0
Zn29 Zn 0.67384 0.43448 0.13736 0.0
O30 O 0.60672 0.44118 0.16666 0.0
C31 C 0.78291 0.44068 0.16938 0.0
O32 O 0.77329 0.40722 0.17308 0.0
O33 O 0.64795 0.45616 0.09866 0.0
C34 C 0.61358 0.44513 0.19454 0.0
O35 O 0.66712 0.44321 0.20598 0.0
C36 C 0.67511 0.35962 0.14797 0.0
O37 O 0.64411 0.36789 0.17172 0.0
O38 O 0.74675 0.45836 0.15372 0.0
C39 C 0.91406 0.02377 0.09667 0.0
O40 O 0.94967 0.03762 0.11652 0.0
O41 O 0.80517 0.09004 0.13917 0.0
Zn42 Zn 0.82972 0.03972 0.14203 0.0
O43 O 0.89264 0.03219 0.17329 0.0
C44 C 0.74251 0.02463 0.1826 0.0
O45 O 0.7729 0.05005 0.19483 0.0
O46 O 0.85886 0.0217 0.10243 0.0
C47 C 0.91775 0.05548 0.1889 0.0
O48 O 0.90495 0.08845 0.18433 0.0
C49 C 0.83407 0.11489 0.12741 0.0
O50 O 0.88634 0.10872 0.11551 0.0
O51 O 0.758 0.01384 0.15699 0.0
C52 C 0.92918 0.44792 0.59208 0.0
O53 O 0.95253 0.42049 0.60515 0.0
O54 O 0.82473 0.39644 0.63956 0.0
Zn55 Zn 0.85482 0.44575 0.64362 0.0
O56 O 0.92081 0.44792 0.67384 0.0
C57 C 0.73533 0.47375 0.64908 0.0
O58 O 0.72302 0.45159 0.62771 0.0
O59 O 0.88552 0.46325 0.60436 0.0
C60 C 0.90908 0.45174 0.70134 0.0
O61 O 0.85336 0.45312 0.70992 0.0
C62 C 0.79035 0.38398 0.65934 0.0
O63 O 0.776 0.40334 0.68233 0.0
O64 O 0.78849 0.47639 0.65821 0.0
C65 C 0.5583 0.05037 0.59914 0.0
O66 O 0.52455 0.06862 0.61721 0.0
O67 O 0.66324 0.11465 0.64084 0.0
Zn68 Zn 0.64181 0.06407 0.64506 0.0
O69 O 0.57909 0.0573 0.67658 0.0
C70 C 0.73151 0.04754 0.68507 0.0
O71 O 0.70178 0.072 0.69913 0.0
O72 O 0.61217 0.04489 0.60618 0.0
C73 C 0.5724 0.02651 0.68646 0.0
O74 O 0.60493 0.00132 0.67517 0.0
C75 C 0.62869 0.13941 0.64812 0.0
O76 O 0.57525 0.13216 0.65808 0.0
O77 O 0.71477 0.03872 0.65916 0.0
C78 C 0.42584 0.5488 0.90021 0.0
O79 O 0.44651 0.57805 0.88911 0.0
O80 O 0.33243 0.60052 0.84926 0.0
Zn81 Zn 0.35807 0.55028 0.84634 0.0
O82 O 0.424 0.54539 0.81655 0.0
C83 C 0.236 0.53078 0.83659 0.0
O84 O 0.22558 0.55759 0.854 0.0
O85 O 0.38623 0.53223 0.88593 0.0
C86 C 0.41346 0.54938 0.78897 0.0
O87 O 0.35939 0.55747 0.78041 0.0
C88 C 0.36504 0.62564 0.84078 0.0
O89 O 0.41861 0.61906 0.83063 0.0
O90 O 0.28937 0.52204 0.83122 0.0
C91 C 0.08017 0.93537 0.90192 0.0
O92 O 0.05505 0.90879 0.88853 0.0
O93 O 0.17144 0.88336 0.85076 0.0
Zn94 Zn 0.14602 0.93365 0.84844 0.0
O95 O 0.07485 0.93896 0.82184 0.0
C96 C 0.26659 0.95667 0.8378 0.0
O97 O 0.27938 0.93363 0.8585 0.0
O98 O 0.123 0.95084 0.88908 0.0
C99 C 0.07977 0.94477 0.79409 0.0
O100 O 0.13288 0.94572 0.78201 0.0
C101 C 0.19907 0.86962 0.82905 0.0
O102 O 0.20902 0.88834 0.80507 0.0
O103 O 0.21259 0.962 0.83105 0.0
H104 H 0.34721 0.49176 0.33207 0.0
H105 H 0.30818 0.55661 0.25581 0.0
H106 H 0.4306 0.4657 0.30497 0.0
H107 H 0.3912 0.53099 0.22914 0.0
H108 H 0.49808 0.45282 0.17744 0.0
H109 H 0.41529 0.4741 0.20716 0.0
H110 H 0.52989 0.48157 0.28388 0.0
H111 H 0.61298 0.45977 0.25422 0.0
C112 C 0.3566 0.5006 0.30966 0.0
C113 C 0.32088 0.52612 0.29604 0.0
C114 C 0.40437 0.48574 0.29419 0.0
C115 C 0.41696 0.49602 0.26481 0.0
C116 C 0.38188 0.522 0.25152 0.0
C117 C 0.33451 0.53687 0.26693 0.0
C118 C 0.50565 0.45868 0.20071 0.0
C119 C 0.5623 0.45491 0.21338 0.0
C120 C 0.45824 0.47106 0.21769 0.0
C121 C 0.4663 0.47994 0.24775 0.0
C122 C 0.52231 0.47482 0.2608 0.0
C123 C 0.56991 0.46247 0.24376 0.0
H124 H 0.93732 0.99 0.21026 0.0
H125 H 0.99035 0.09726 0.2223 0.0
H126 H 0.00387 0.97233 0.25013 0.0
H127 H 0.05723 0.07935 0.26245 0.0
H128 H 0.22286 0.02001 0.30197 0.0
H129 H 0.15118 0.04352 0.26655 0.0
H130 H 0.01393 0.9795 0.3054 0.0
H131 H 0.08556 0.95581 0.34083 0.0
C132 C 0.96316 0.00984 0.22142 0.0
C133 C 0.95869 0.04505 0.21304 0.0
C134 C 0.00089 -0.00028 0.24446 0.0
C135 C 0.03541 0.02449 0.25951 0.0
C136 C 0.03121 0.05971 0.25114 0.0
C137 C 0.99289 0.06993 0.22822 0.0
C138 C 0.17722 0.01126 0.30322 0.0
C139 C 0.15998 0.98582 0.32405 0.0
C140 C 0.13615 0.02488 0.28302 0.0
C141 C 0.07716 0.01311 0.28308 0.0
C142 C 0.05936 0.9887 0.30464 0.0
C143 C 0.1003 0.9753 0.32502 0.0
H144 H 0.85794 0.41102 0.20954 0.0
H145 H 0.81593 0.50945 0.16768 0.0
H146 H 0.93075 0.43966 0.24071 0.0
H147 H 0.89076 0.53813 0.19838 0.0
H148 H 0.97325 0.58136 0.28526 0.0
H149 H 0.90565 0.55484 0.24945 0.0
H150 H 0.02495 0.46709 0.24059 0.0
H151 H 0.09113 0.49294 0.27706 0.0
C152 C 0.8649 0.43873 0.20664 0.0
C153 C 0.83096 0.45797 0.18618 0.0
C154 C 0.90703 0.45517 0.22444 0.0
C155 C 0.91673 0.49124 0.22208 0.0
C156 C 0.88382 0.51039 0.20106 0.0
C157 C 0.84127 0.49393 0.18332 0.0
C158 C 0.98505 0.55648 0.27554 0.0
C159 C 0.03711 0.53904 0.28424 0.0
C160 C 0.94653 0.54137 0.25486 0.0
C161 C 0.95962 0.50868 0.24227 0.0
C162 C 0.01281 0.49191 0.2503 0.0
C163 C 0.05089 0.50681 0.27115 0.0
H164 H 0.66276 0.97548 0.16306 0.0
H165 H 0.70798 0.03889 0.23915 0.0
H166 H 0.57875 0.95107 0.19084 0.0
H167 H 0.62456 0.015 0.26644 0.0
H168 H 0.50579 0.94551 0.3187 0.0
H169 H 0.59263 0.95994 0.28888 0.0
H170 H 0.48148 0.97175 0.21123 0.0
H171 H 0.39438 0.95672 0.24097 0.0
C172 C 0.6549 0.98413 0.18565 0.0
C173 C 0.69199 0.00912 0.19889 0.0
C174 C 0.60678 0.97026 0.20149 0.0
C175 C 0.59539 0.98093 0.23089 0.0
C176 C 0.63278 0.00575 0.24404 0.0
C177 C 0.68038 0.01967 0.22825 0.0
C178 C 0.49985 0.95078 0.2952 0.0
C179 C 0.44306 0.95043 0.2823 0.0
C180 C 0.5496 0.95916 0.27814 0.0
C181 C 0.54373 0.96744 0.24781 0.0
C182 C 0.48741 0.96534 0.23452 0.0
C183 C 0.43751 0.95692 0.25161 0.0
H184 H 0.40479 0.55201 0.72824 0.0
H185 H 0.5295 0.53305 0.79953 0.0
H186 H 0.48229 0.53912 0.69181 0.0
H187 H 0.60627 0.5196 0.76326 0.0
H188 H 0.74637 0.52218 0.69314 0.0
H189 H 0.66823 0.54539 0.72495 0.0
H190 H 0.53735 0.48771 0.67504 0.0
H191 H 0.61541 0.46503 0.64276 0.0
C192 C 0.44875 0.54526 0.73614 0.0
C193 C 0.46094 0.54342 0.76679 0.0
C194 C 0.49304 0.53773 0.71527 0.0
C195 C 0.55042 0.52835 0.72462 0.0
C196 C 0.5628 0.52726 0.75527 0.0
C197 C 0.51861 0.53472 0.7761 0.0
C198 C 0.70083 0.51483 0.68865 0.0
C199 C 0.68716 0.49147 0.6656 0.0
C200 C 0.6561 0.52799 0.707 0.0
C201 C 0.59671 0.51801 0.70279 0.0
C202 C 0.58264 0.49608 0.67877 0.0
C203 C 0.62742 0.48297 0.66033 0.0
H204 H 0.80687 -0.00181 0.66193 0.0
H205 H 0.77019 0.05719 0.74177 0.0
H206 H 0.88953 0.96915 0.68725 0.0
H207 H 0.85254 0.02857 0.76673 0.0
H208 H 0.96473 0.94864 0.81307 0.0
H209 H 0.87924 0.97029 0.7855 0.0
H210 H 0.98924 0.98462 0.70767 0.0
H211 H 0.07491 0.96252 0.73512 0.0
C212 C 0.81644 0.00497 0.68482 0.0
C213 C 0.782 0.02999 0.69984 0.0
C214 C 0.8638 0.98843 0.69926 0.0
C215 C 0.87719 0.99641 0.72903 0.0
C216 C 0.84269 0.02141 0.74395 0.0
C217 C 0.79575 0.03803 0.72953 0.0
C218 C 0.97066 0.95602 0.78998 0.0
C219 C 0.02679 0.9542 0.77639 0.0
C220 C 0.92171 0.96858 0.77424 0.0
C221 C 0.92773 0.97955 0.74455 0.0
C222 C 0.9832 0.97621 0.73049 0.0
C223 C 0.0323 0.9637 0.74628 0.0
H224 H 0.11814 0.54772 0.83799 0.0
H225 H 0.2425 0.47532 0.79855 0.0
H226 H 0.0392 0.5242 0.80705 0.0
H227 H 0.1631 0.45122 0.76809 0.0
H228 H 0.02829 0.45647 0.69047 0.0
H229 H 0.10635 0.47127 0.72567 0.0
H230 H 0.97727 0.47419 0.79684 0.0
H231 H 0.89888 0.46017 0.76149 0.0
C232 C 0.12844 0.52638 0.8231 0.0
C233 C 0.18673 0.51363 0.82055 0.0
C234 C 0.08306 0.51275 0.80545 0.0
C235 C 0.09492 0.48598 0.78493 0.0
C236 C 0.15272 0.47223 0.78331 0.0
C237 C 0.19814 0.48591 0.80091 0.0
C238 C 0.01661 0.45994 0.71367 0.0
C239 C 0.95729 0.45744 0.72312 0.0
C240 C 0.06146 0.46822 0.73391 0.0
C241 C 0.04802 0.47407 0.76407 0.0
C242 C 0.98896 0.47037 0.77368 0.0
C243 C 0.94409 0.46217 0.75343 0.0
H244 H 0.25474 0.00389 0.79262 0.0
H245 H 0.38607 0.94437 0.84108 0.0
H246 H 0.33116 0.02344 0.75807 0.0
H247 H 0.46265 0.96438 0.80668 0.0
H248 H 0.55498 0.96466 0.71493 0.0
H249 H 0.48393 0.95159 0.75415 0.0
H250 H 0.42256 0.05827 0.75248 0.0
H251 H 0.49347 0.07138 0.7128 0.0
C252 C 0.30008 0.99544 0.79622 0.0
C253 C 0.31421 0.9723 0.81946 0.0
C254 C 0.34393 0.00679 0.77647 0.0
C255 C 0.40282 0.99519 0.77948 0.0
C256 C 0.41744 0.97332 0.80352 0.0
C257 C 0.37363 0.96205 0.82334 0.0
C258 C 0.52648 0.9854 0.72293 0.0
C259 C 0.52969 0.01903 0.71064 0.0
C260 C 0.4861 0.97796 0.74562 0.0
C261 C 0.44782 0.00394 0.75652 0.0
C262 C 0.45124 0.03766 0.7444 0.0
C263 C 0.49192 0.04517 0.72174 0.0
H264 H 0.97918 0.53624 0.41599 0.0
H265 H 0.15683 0.50853 0.44365 0.0
H266 H 0.94009 0.51455 0.46291 0.0
H267 H 0.11774 0.48757 0.49108 0.0
H268 H 0.01818 0.4193 0.55859 0.0
H269 H 0.0586 0.44083 0.51172 0.0
H270 H 0.93793 0.52842 0.515 0.0
H271 H 0.8965 0.50643 0.56141 0.0
C272 C 0.01 0.52572 0.43217 0.0
C273 C 0.07115 0.52411 0.42606 0.0
C274 C 0.98757 0.51345 0.45919 0.0
C275 C 0.02575 0.4994 0.48084 0.0
C276 C 0.087 0.49784 0.47475 0.0
C277 C 0.10946 0.51003 0.44763 0.0
C278 C 0.00023 0.44313 0.54929 0.0
C279 C 0.95396 0.46107 0.56369 0.0
C280 C 0.0237 0.45561 0.52251 0.0
C281 C 0.00153 0.48636 0.50956 0.0
C282 C 0.95546 0.50437 0.5241 0.0
C283 C 0.93188 0.49185 0.5508 0.0
H284 H 0.36138 0.01167 0.43578 0.0
H285 H 0.46926 0.91954 0.44807 0.0
H286 H 0.4029 0.03661 0.48106 0.0
H287 H 0.50962 0.94409 0.49369 0.0
H288 H 0.61663 0.01401 0.55563 0.0
H289 H 0.5752 0.98996 0.50998 0.0
H290 H 0.40195 0.0292 0.53445 0.0
H291 H 0.44361 0.05397 0.57969 0.0
C292 C 0.39362 -0.00337 0.44825 0.0
C293 C 0.41209 0.96365 0.43828 0.0
C294 C 0.41723 0.01086 0.47429 0.0
C295 C 0.45971 0.99239 0.49099 0.0
C296 C 0.47772 0.95927 0.48112 0.0
C297 C 0.45425 0.94509 0.45505 0.0
C298 C 0.56973 0.01756 0.55124 0.0
C299 C 0.53344 0.03592 0.5713 0.0
C300 C 0.54589 0.00359 0.52515 0.0
C301 C 0.4852 0.00757 0.51858 0.0
C302 C 0.44901 0.02604 0.53862 0.0
C303 C 0.47287 0.04008 0.56466 0.0
H304 H 0.48198 0.4442 0.06964 0.0
H305 H 0.6532 0.48826 0.04815 0.0
H306 H 0.44067 0.46907 0.02437 0.0
H307 H 0.6122 0.51237 0.00228 0.0
H308 H 0.50421 0.57991 0.9382 0.0
H309 H 0.54487 0.55641 0.9843 0.0
H310 H 0.44411 0.46187 0.97153 0.0
H311 H 0.40219 0.48576 0.92595 0.0
C312 C 0.51095 0.45903 0.05515 0.0
C313 C 0.57093 0.46421 0.06249 0.0
C314 C 0.4873 0.47314 0.02907 0.0
C315 C 0.52311 0.49263 0.00959 0.0
C316 C 0.58315 0.49788 0.01697 0.0
C317 C 0.60677 0.48388 0.04317 0.0
C318 C 0.4906 0.55415 0.94528 0.0
C319 C 0.44987 0.53474 0.92843 0.0
C320 C 0.51424 0.54057 0.97162 0.0
C321 C 0.49787 0.50722 0.98163 0.0
C322 C 0.45704 0.48785 0.96474 0.0
C323 C 0.4332 0.50149 0.9385 0.0
H324 H 0.99195 0.90663 0.93562 0.0
H325 H 0.11596 0.99241 0.93367 0.0
H326 H 0.95227 0.9277 0.98272 0.0
H327 H 0.07526 0.01395 0.98047 0.0
H328 H 0.03015 0.02158 0.07934 0.0
H329 H 0.07075 -0.00031 0.03276 0.0
H330 H 0.89361 0.97523 0.0025 0.0
H331 H 0.853 0.99639 0.04948 0.0
C332 C 0.01069 0.93003 0.94521 0.0
C333 C 0.05716 0.94783 0.93089 0.0
C334 C 0.98762 0.94225 0.97212 0.0
C335 C 0.0104 0.97259 0.98534 0.0
C336 C 0.05716 0.99026 0.97109 0.0
C337 C 0.08033 0.978 0.94419 0.0
C338 C -0.00021 0.01153 0.06277 0.0
C339 C 0.93831 0.01071 0.06815 0.0
C340 C 0.02309 -0.00084 0.03597 0.0
C341 C 0.98547 0.98574 0.01386 0.0
C342 C 0.92392 0.98496 0.01922 0.0
C343 C 0.9006 -0.00272 0.04608 0.0
H344 H 0.20432 0.65811 0.32017 0.0
H345 H 0.17079 0.67379 0.41393 0.0
H346 H 0.22292 0.72008 0.31416 0.0
H347 H 0.18803 0.73614 0.40772 0.0
H348 H 0.2953 0.83652 0.39079 0.0
H349 H 0.26989 0.7754 0.39788 0.0
H350 H 0.17425 0.77605 0.31456 0.0
H351 H 0.20088 0.83694 0.3071 0.0
C352 C 0.20037 0.67483 0.33947 0.0
C353 C 0.18629 0.66097 0.36757 0.0
C354 C 0.21067 0.71045 0.33597 0.0
C355 C 0.20694 0.73311 0.36045 0.0
C356 C 0.19202 0.71932 0.38849 0.0
C357 C 0.18184 0.68362 0.39202 0.0
C358 C 0.26867 0.82366 0.37402 0.0
C359 C 0.25043 0.84154 0.34828 0.0
C360 C 0.25377 0.78867 0.3782 0.0
C361 C 0.22017 0.77079 0.35676 0.0
C362 C 0.20098 0.7889 0.33129 0.0
C363 C 0.21601 0.82386 0.32708 0.0
H364 H 0.72354 0.13463 0.14563 0.0
H365 H 0.88832 0.17592 0.1112 0.0
H366 H 0.68308 0.19326 0.14871 0.0
H367 H 0.84823 0.23489 0.11507 0.0
H368 H 0.73831 0.33356 0.10092 0.0
H369 H 0.775 0.27426 0.0943 0.0
H370 H 0.69599 0.2447 0.17827 0.0
H371 H 0.65806 0.30363 0.18451 0.0
C372 C 0.75124 0.15625 0.13876 0.0
C373 C 0.8093 0.15061 0.12827 0.0
C374 C 0.7281 0.18991 0.14069 0.0
C375 C 0.7625 0.21882 0.13234 0.0
C376 C 0.82029 0.21316 0.12139 0.0
C377 C 0.84341 0.17939 0.11932 0.0
C378 C 0.72844 0.31433 0.11787 0.0
C379 C 0.69521 0.32332 0.14325 0.0
C380 C 0.74985 0.2804 0.11417 0.0
C381 C 0.73859 0.25473 0.13577 0.0
C382 C 0.70479 0.26369 0.16098 0.0
C383 C 0.68325 0.29755 0.16464 0.0
H384 H 0.56804 0.19861 0.66339 0.0
H385 H 0.73809 0.16263 0.63087 0.0
H386 H 0.60547 0.25819 0.66433 0.0
H387 H 0.77574 0.222 0.63241 0.0
H388 H 0.80793 0.33742 0.61399 0.0
H389 H 0.76626 0.27903 0.60922 0.0
H390 H 0.67598 0.29177 0.6934 0.0
H391 H 0.7165 0.35024 0.69789 0.0
C392 C 0.61332 0.2034 0.65637 0.0
C393 C 0.65012 0.17584 0.64717 0.0
C394 C 0.63488 0.23752 0.65708 0.0
C395 C 0.6937 0.24483 0.6486 0.0
C396 C 0.73004 0.21734 0.63878 0.0
C397 C 0.7085 0.18325 0.63806 0.0
C398 C 0.77912 0.32776 0.63145 0.0
C399 C 0.76562 0.34847 0.65634 0.0
C400 C 0.75542 0.29426 0.62877 0.0
C401 C 0.71771 0.28076 0.65091 0.0
C402 C 0.70411 0.30156 0.67572 0.0
C403 C 0.72776 0.33501 0.6784 0.0
H404 H 0.42089 0.68477 0.82177 0.0
H405 H 0.25596 0.64802 0.85966 0.0
H406 H 0.38071 0.74373 0.81978 0.0
H407 H 0.21556 0.70693 0.85722 0.0
H408 H 0.18653 0.82368 0.87529 0.0
H409 H 0.22768 0.765 0.87929 0.0
H410 H 0.30471 0.77543 0.79166 0.0
H411 H 0.26447 0.83419 0.7878 0.0
C412 C 0.37612 0.68926 0.82973 0.0
C413 C 0.3416 0.66167 0.84081 0.0
C414 C 0.35297 0.72302 0.82841 0.0
C415 C 0.29484 0.72996 0.83819 0.0
C416 C 0.26068 0.70248 0.84977 0.0
C417 C 0.28378 0.6687 0.85103 0.0
C418 C 0.21216 0.81343 0.85685 0.0
C419 C 0.22226 0.83363 0.83123 0.0
C420 C 0.23553 0.77976 0.85911 0.0
C421 C 0.26963 0.76562 0.83584 0.0
C422 C 0.27938 0.78577 0.81016 0.0
C423 C 0.25592 0.81936 0.80787 0.0
loop_
_geom_bond_atom_site_label_1
_geom_bond_atom_site_label_2
_geom_bond_distance
_geom_bond_site_symmetry_2
_ccdc_geom_bond_type
C0 O1 1.160 . S
C0 O7 1.185 . S
O1 C0 1.160 . S
O2 Zn3 1.899 . S
O2 C10 1.284 . S
Zn3 O2 1.899 . S
Zn3 O4 2.032 . S
Zn3 O7 2.086 . S
Zn3 O12 1.977 . S
O4 Zn3 2.032 . S
O4 C8 1.278 . S
C5 O6 1.203 . S
C5 O12 1.267 . S
O6 C5 1.203 . S
O7 C0 1.185 . S
O7 Zn3 2.086 . S
C8 O4 1.278 . S
C8 O9 1.211 . S
O9 C8 1.211 . S
C10 O2 1.284 . S
C10 O11 1.273 . S
O11 C10 1.273 . S
O12 Zn3 1.977 . S
O12 C5 1.267 . S
C13 O14 1.160 . S
C13 O20 1.185 . S
O14 C13 1.160 . S
O15 Zn16 1.899 . S
O15 C23 1.284 . S
Zn16 O15 1.899 . S
Zn16 O17 2.032 . S
Zn16 O20 2.086 . S
Zn16 O25 1.977 . S
O17 Zn16 2.032 . S
O17 C21 1.278 . S
C18 O19 1.203 . S
C18 O25 1.267 . S
O19 C18 1.203 . S
O20 C13 1.185 . S
O20 Zn16 2.086 . S
C21 O17 1.278 . S
C21 O22 1.211 . S
O22 C21 1.211 . S
C23 O15 1.284 . S
C23 O24 1.273 . S
O24 C23 1.273 . S
O25 Zn16 1.977 . S
O25 C18 1.267 . S
C26 O27 1.160 . S
C26 O33 1.185 . S
O27 C26 1.160 . S
O28 Zn29 1.899 . S
O28 C36 1.284 . S
Zn29 O28 1.899 . S
Zn29 O30 2.032 . S
Zn29 O33 2.086 . S
Zn29 O38 1.977 . S
O30 Zn29 2.032 . S
O30 C34 1.278 . S
C31 O32 1.203 . S
C31 O38 1.267 . S
O32 C31 1.203 . S
O33 C26 1.185 . S
O33 Zn29 2.086 . S
C34 O30 1.278 . S
C34 O35 1.211 . S
O35 C34 1.211 . S
C36 O28 1.284 . S
C36 O37 1.273 . S
O37 C36 1.273 . S
O38 Zn29 1.977 . S
O38 C31 1.267 . S
C39 O40 1.160 . S
C39 O46 1.185 . S
O40 C39 1.160 . S
O41 Zn42 1.899 . S
O41 C49 1.284 . S
Zn42 O41 1.899 . S
Zn42 O43 2.032 . S
Zn42 O46 2.086 . S
Zn42 O51 1.977 . S
O43 Zn42 2.032 . S
O43 C47 1.278 . S
C44 O45 1.203 . S
C44 O51 1.267 . S
O45 C44 1.203 . S
O46 C39 1.185 . S
O46 Zn42 2.086 . S
C47 O43 1.278 . S
C47 O48 1.211 . S
O48 C47 1.211 . S
C49 O41 1.284 . S
C49 O50 1.273 . S
O50 C49 1.273 . S
O51 Zn42 1.977 . S
O51 C44 1.267 . S
C52 O53 1.160 . S
C52 O59 1.185 . S
O53 C52 1.160 . S
O54 Zn55 1.899 . S
O54 C62 1.284 . S
Zn55 O54 1.899 . S
Zn55 O56 2.032 . S
Zn55 O59 2.086 . S
Zn55 O64 1.977 . S
O56 Zn55 2.032 . S
O56 C60 1.278 . S
C57 O58 1.203 . S
C57 O64 1.267 . S
O58 C57 1.203 . S
O59 C52 1.185 . S
O59 Zn55 2.086 . S
C60 O56 1.278 . S
C60 O61 1.211 . S
O61 C60 1.211 . S
C62 O54 1.284 . S
C62 O63 1.273 . S
O63 C62 1.273 . S
O64 Zn55 1.977 . S
O64 C57 1.267 . S
C65 O66 1.160 . S
C65 O72 1.185 . S
O66 C65 1.160 . S
O67 Zn68 1.899 . S
O67 C75 1.284 . S
Zn68 O67 1.899 . S
Zn68 O69 2.032 . S
Zn68 O72 2.086 . S
Zn68 O77 1.977 . S
O69 Zn68 2.032 . S
O69 C73 1.278 . S
C70 O71 1.203 . S
C70 O77 1.267 . S
O71 C70 1.203 . S
O72 C65 1.185 . S
O72 Zn68 2.086 . S
C73 O69 1.278 . S
C73 O74 1.211 . S
O74 C73 1.211 . S
C75 O67 1.284 . S
C75 O76 1.273 . S
O76 C75 1.273 . S
O77 Zn68 1.977 . S
O77 C70 1.267 . S
C78 O79 1.160 . S
C78 O85 1.185 . S
O79 C78 1.160 . S
O80 Zn81 1.899 . S
O80 C88 1.284 . S
Zn81 O80 1.899 . S
Zn81 O82 2.032 . S
Zn81 O85 2.086 . S
Zn81 O90 1.977 . S
O82 Zn81 2.032 . S
O82 C86 1.278 . S
C83 O84 1.203 . S
C83 O90 1.267 . S
O84 C83 1.203 . S
O85 C78 1.185 . S
O85 Zn81 2.086 . S
C86 O82 1.278 . S
C86 O87 1.211 . S
O87 C86 1.211 . S
C88 O80 1.284 . S
C88 O89 1.273 . S
O89 C88 1.273 . S
O90 Zn81 1.977 . S
O90 C83 1.267 . S
C91 O92 1.160 . S
C91 O98 1.185 . S
O92 C91 1.160 . S
O93 Zn94 1.899 . S
O93 C101 1.284 . S
Zn94 O93 1.899 . S
Zn94 O95 2.032 . S
Zn94 O98 2.086 . S
Zn94 O103 1.977 . S
O95 Zn94 2.032 . S
O95 C99 1.278 . S
C96 O97 1.203 . S
C96 O103 1.267 . S
O97 C96 1.203 . S
O98 C91 1.185 . S
O98 Zn94 2.086 . S
C99 O95 1.278 . S
C99 O100 1.211 . S
O100 C99 1.211 . S
C101 O93 1.284 . S
C101 O102 1.273 . S
O102 C101 1.273 . S
O103 Zn94 1.977 . S
O103 C96 1.267 . S
H104 C112 0.950 . S
H105 C117 0.950 . S
H106 C114 0.950 . S
H107 C116 0.950 . S
H108 C118 0.950 . S
H109 C120 0.950 . S
H110 C122 0.950 . S
H111 C123 0.950 . S
C112 H104 0.950 . S
C112 C113 1.386 . S
C112 C114 1.391 . S
C113 C112 1.386 . S
C113 C117 1.393 . S
C114 H106 0.950 . S
C114 C112 1.391 . S
C114 C115 1.400 . S
C115 C114 1.400 . S
C115 C116 1.398 . S
C115 C121 1.491 . S
C116 H107 0.950 . S
C116 C115 1.398 . S
C116 C117 1.391 . S
C117 H105 0.950 . S
C117 C113 1.393 . S
C117 C116 1.391 . S
C118 H108 0.950 . S
C118 C119 1.386 . S
C118 C120 1.391 . S
C119 C118 1.386 . S
C119 C123 1.393 . S
C120 H109 0.950 . S
C120 C118 1.391 . S
C120 C121 1.400 . S
C121 C115 1.491 . S
C121 C120 1.400 . S
C121 C122 1.398 . S
C122 H110 0.950 . S
C122 C121 1.398 . S
C122 C123 1.391 . S
C123 H111 0.950 . S
C123 C119 1.393 . S
C123 C122 1.391 . S
H124 C132 0.950 1_565 S
H125 C137 0.950 . S
H126 C134 0.950 . S
H127 C136 0.950 . S
H128 C138 0.950 . S
H129 C140 0.950 . S
H130 C142 0.950 . S
H131 C143 0.950 . S
C132 H124 0.950 1_545 S
C132 C133 1.386 . S
C132 C134 1.391 1_645 S
C133 C132 1.386 . S
C133 C137 1.393 1_655 S
C134 H126 0.950 . S
C134 C132 1.391 1_465 S
C134 C135 1.400 1_565 S
C135 C134 1.400 1_545 S
C135 C136 1.398 . S
C135 C141 1.491 . S
C136 H127 0.950 . S
C136 C135 1.398 . S
C136 C137 1.391 . S
C137 H125 0.950 . S
C137 C133 1.393 1_455 S
C137 C136 1.391 . S
C138 H128 0.950 . S
C138 C139 1.386 1_545 S
C138 C140 1.391 . S
C139 C138 1.386 1_565 S
C139 C143 1.393 . S
C140 H129 0.950 . S
C140 C138 1.391 . S
C140 C141 1.400 . S
C141 C135 1.491 . S
C141 C140 1.400 . S
C141 C142 1.398 1_545 S
C142 H130 0.950 . S
C142 C141 1.398 1_565 S
C142 C143 1.391 . S
C143 H131 0.950 . S
C143 C139 1.393 . S
C143 C142 1.391 . S
H144 C152 0.950 . S
H145 C157 0.950 . S
H146 C154 0.950 . S
H147 C156 0.950 . S
H148 C158 0.950 . S
H149 C160 0.950 . S
H150 C162 0.950 . S
H151 C163 0.950 . S
C152 H144 0.950 . S
C152 C153 1.386 . S
C152 C154 1.391 . S
C153 C152 1.386 . S
C153 C157 1.393 . S
C154 H146 0.950 . S
C154 C152 1.391 . S
C154 C155 1.400 . S
C155 C154 1.400 . S
C155 C156 1.398 . S
C155 C161 1.491 . S
C156 H147 0.950 . S
C156 C155 1.398 . S
C156 C157 1.391 . S
C157 H145 0.950 . S
C157 C153 1.393 . S
C157 C156 1.391 . S
C158 H148 0.950 . S
C158 C159 1.386 . S
C158 C160 1.391 1_455 S
C159 C158 1.386 . S
C159 C163 1.393 1_455 S
C160 H149 0.950 . S
C160 C158 1.391 1_655 S
C160 C161 1.400 . S
C161 C155 1.491 . S
C161 C160 1.400 . S
C161 C162 1.398 . S
C162 H150 0.950 . S
C162 C161 1.398 . S
C162 C163 1.391 . S
C163 H151 0.950 . S
C163 C159 1.393 1_655 S
C163 C162 1.391 . S
H164 C172 0.950 . S
H165 C177 0.950 . S
H166 C174 0.950 . S
H167 C176 0.950 . S
H168 C178 0.950 . S
H169 C180 0.950 . S
H170 C182 0.950 1_545 S
H171 C183 0.950 . S
C172 H164 0.950 . S
C172 C173 1.386 . S
C172 C174 1.391 . S
C173 C172 1.386 . S
C173 C177 1.393 1_545 S
C174 H166 0.950 . S
C174 C172 1.391 . S
C174 C175 1.400 1_545 S
C175 C174 1.400 1_565 S
C175 C176 1.398 . S
C175 C181 1.491 . S
C176 H167 0.950 . S
C176 C175 1.398 . S
C176 C177 1.391 . S
C177 H165 0.950 . S
C177 C173 1.393 1_565 S
C177 C176 1.391 . S
C178 H168 0.950 . S
C178 C179 1.386 . S
C178 C180 1.391 . S
C179 C178 1.386 . S
C179 C183 1.393 . S
C180 H169 0.950 . S
C180 C178 1.391 . S
C180 C181 1.400 . S
C181 C175 1.491 . S
C181 C180 1.400 . S
C181 C182 1.398 . S
C182 H170 0.950 1_565 S
C182 C181 1.398 . S
C182 C183 1.391 . S
C183 H171 0.950 . S
C183 C179 1.393 . S
C183 C182 1.391 . S
H184 C192 0.950 . S
H185 C197 0.950 . S
H186 C194 0.950 . S
H187 C196 0.950 . S
H188 C198 0.950 . S
H189 C200 0.950 . S
H190 C202 0.950 . S
H191 C203 0.950 . S
C192 H184 0.950 . S
C192 C193 1.386 . S
C192 C194 1.391 . S
C193 C192 1.386 . S
C193 C197 1.393 . S
C194 H186 0.950 . S
C194 C192 1.391 . S
C194 C195 1.400 . S
C195 C194 1.400 . S
C195 C196 1.398 . S
C195 C201 1.491 . S
C196 H187 0.950 . S
C196 C195 1.398 . S
C196 C197 1.391 . S
C197 H185 0.950 . S
C197 C193 1.393 . S
C197 C196 1.391 . S
C198 H188 0.950 . S
C198 C199 1.386 . S
C198 C200 1.391 . S
C199 C198 1.386 . S
C199 C203 1.393 . S
C200 H189 0.950 . S
C200 C198 1.391 . S
C200 C201 1.400 . S
C201 C195 1.491 . S
C201 C200 1.400 . S
C201 C202 1.398 . S
C202 H190 0.950 . S
C202 C201 1.398 . S
C202 C203 1.391 . S
C203 H191 0.950 . S
C203 C199 1.393 . S
C203 C202 1.391 . S
H204 C212 0.950 . S
H205 C217 0.950 . S
H206 C214 0.950 . S
H207 C216 0.950 . S
H208 C218 0.950 . S
H209 C220 0.950 1_545 S
H210 C222 0.950 . S
H211 C223 0.950 1_455 S
C212 H204 0.950 . S
C212 C213 1.386 1_565 S
C212 C214 1.391 . S
C213 C212 1.386 1_545 S
C213 C217 1.393 . S
C214 H206 0.950 . S
C214 C212 1.391 . S
C214 C215 1.400 . S
C215 C214 1.400 . S
C215 C216 1.398 1_565 S
C215 C221 1.491 . S
C216 H207 0.950 . S
C216 C215 1.398 1_545 S
C216 C217 1.391 . S
C217 H205 0.950 . S
C217 C213 1.393 . S
C217 C216 1.391 . S
C218 H208 0.950 . S
C218 C219 1.386 1_655 S
C218 C220 1.391 . S
C219 C218 1.386 1_455 S
C219 C223 1.393 1_455 S
C220 H209 0.950 1_565 S
C220 C218 1.391 . S
C220 C221 1.400 . S
C221 C215 1.491 . S
C221 C220 1.400 . S
C221 C222 1.398 . S
C222 H210 0.950 . S
C222 C221 1.398 . S
C222 C223 1.391 . S
C223 H211 0.950 1_655 S
C223 C219 1.393 1_655 S
C223 C222 1.391 . S
H224 C232 0.950 . S
H225 C237 0.950 . S
H226 C234 0.950 . S
H227 C236 0.950 . S
H228 C238 0.950 . S
H229 C240 0.950 . S
H230 C242 0.950 . S
H231 C243 0.950 . S
C232 H224 0.950 . S
C232 C233 1.386 . S
C232 C234 1.391 . S
C233 C232 1.386 . S
C233 C237 1.393 . S
C234 H226 0.950 . S
C234 C232 1.391 . S
C234 C235 1.400 . S
C235 C234 1.400 . S
C235 C236 1.398 . S
C235 C241 1.491 . S
C236 H227 0.950 . S
C236 C235 1.398 . S
C236 C237 1.391 . S
C237 H225 0.950 . S
C237 C233 1.393 . S
C237 C236 1.391 . S
C238 H228 0.950 . S
C238 C239 1.386 1_455 S
C238 C240 1.391 . S
C239 C238 1.386 1_655 S
C239 C243 1.393 . S
C240 H229 0.950 . S
C240 C238 1.391 . S
C240 C241 1.400 . S
C241 C235 1.491 . S
C241 C240 1.400 . S
C241 C242 1.398 . S
C242 H230 0.950 . S
C242 C241 1.398 . S
C242 C243 1.391 1_455 S
C243 H231 0.950 . S
C243 C239 1.393 . S
C243 C242 1.391 1_655 S
H244 C252 0.950 . S
H245 C257 0.950 . S
H246 C254 0.950 . S
H247 C256 0.950 . S
H248 C258 0.950 1_565 S
H249 C260 0.950 . S
H250 C262 0.950 . S
H251 C263 0.950 . S
C252 H244 0.950 . S
C252 C253 1.386 1_545 S
C252 C254 1.391 . S
C253 C252 1.386 1_565 S
C253 C257 1.393 . S
C254 H246 0.950 . S
C254 C252 1.391 . S
C254 C255 1.400 . S
C255 C254 1.400 . S
C255 C256 1.398 1_545 S
C255 C261 1.491 . S
C256 H247 0.950 . S
C256 C255 1.398 1_565 S
C256 C257 1.391 . S
C257 H245 0.950 . S
C257 C253 1.393 . S
C257 C256 1.391 . S
C258 H248 0.950 1_545 S
C258 C259 1.386 . S
C258 C260 1.391 1_545 S
C259 C258 1.386 . S
C259 C263 1.393 . S
C260 H249 0.950 . S
C260 C258 1.391 1_565 S
C260 C261 1.400 1_565 S
C261 C255 1.491 . S
C261 C260 1.400 1_545 S
C261 C262 1.398 . S
C262 H250 0.950 . S
C262 C261 1.398 . S
C262 C263 1.391 . S
C263 H251 0.950 . S
C263 C259 1.393 . S
C263 C262 1.391 . S
H264 C272 0.950 . S
H265 C277 0.950 . S
H266 C274 0.950 . S
H267 C276 0.950 . S
H268 C278 0.950 . S
H269 C280 0.950 . S
H270 C282 0.950 . S
H271 C283 0.950 . S
C272 H264 0.950 . S
C272 C273 1.386 . S
C272 C274 1.391 1_455 S
C273 C272 1.386 . S
C273 C277 1.393 . S
C274 H266 0.950 . S
C274 C272 1.391 1_655 S
C274 C275 1.400 1_655 S
C275 C274 1.400 1_455 S
C275 C276 1.398 . S
C275 C281 1.491 1_455 S
C276 H267 0.950 . S
C276 C275 1.398 . S
C276 C277 1.391 . S
C277 H265 0.950 . S
C277 C273 1.393 . S
C277 C276 1.391 . S
C278 H268 0.950 . S
C278 C279 1.386 . S
C278 C280 1.391 1_655 S
C279 C278 1.386 . S
C279 C283 1.393 . S
C280 H269 0.950 . S
C280 C278 1.391 1_455 S
C280 C281 1.400 1_455 S
C281 C275 1.491 1_655 S
C281 C280 1.400 1_655 S
C281 C282 1.398 . S
C282 H270 0.950 . S
C282 C281 1.398 . S
C282 C283 1.391 . S
C283 H271 0.950 . S
C283 C279 1.393 . S
C283 C282 1.391 . S
H284 C292 0.950 1_545 S
H285 C297 0.950 . S
H286 C294 0.950 . S
H287 C296 0.950 . S
H288 C298 0.950 1_565 S
H289 C300 0.950 . S
H290 C302 0.950 . S
H291 C303 0.950 . S
C292 H284 0.950 1_565 S
C292 C293 1.385 . S
C292 C294 1.392 1_565 S
C293 C292 1.385 . S
C293 C297 1.393 . S
C294 H286 0.950 . S
C294 C292 1.392 1_545 S
C294 C295 1.400 1_545 S
C295 C294 1.400 1_565 S
C295 C296 1.398 . S
C295 C301 1.491 1_565 S
C296 H287 0.950 . S
C296 C295 1.398 . S
C296 C297 1.391 . S
C297 H285 0.950 . S
C297 C293 1.393 . S
C297 C296 1.391 . S
C298 H288 0.950 1_545 S
C298 C299 1.385 . S
C298 C300 1.392 1_545 S
C299 C298 1.385 . S
C299 C303 1.393 . S
C300 H289 0.950 . S
C300 C298 1.392 1_565 S
C300 C301 1.400 1_565 S
C301 C295 1.491 1_545 S
C301 C300 1.400 1_545 S
C301 C302 1.398 . S
C302 H290 0.950 . S
C302 C301 1.398 . S
C302 C303 1.391 . S
C303 H291 0.950 . S
C303 C299 1.393 . S
C303 C302 1.391 . S
H304 C312 0.950 . S
H305 C317 0.950 . S
H306 C314 0.950 . S
H307 C316 0.950 . S
H308 C318 0.950 . S
H309 C320 0.950 . S
H310 C322 0.950 . S
H311 C323 0.950 . S
C312 H304 0.950 . S
C312 C313 1.386 . S
C312 C314 1.391 . S
C313 C312 1.386 . S
C313 C317 1.393 . S
C314 H306 0.950 . S
C314 C312 1.391 . S
C314 C315 1.400 . S
C315 C314 1.400 . S
C315 C316 1.398 . S
C315 C321 1.491 1_554 S
C316 H307 0.950 . S
C316 C315 1.398 . S
C316 C317 1.391 . S
C317 H305 0.950 . S
C317 C313 1.393 . S
C317 C316 1.391 . S
C318 H308 0.950 . S
C318 C319 1.386 . S
C318 C320 1.391 . S
C319 C318 1.386 . S
C319 C323 1.393 . S
C320 H309 0.950 . S
C320 C318 1.391 . S
C320 C321 1.400 . S
C321 C315 1.491 1_556 S
C321 C320 1.400 . S
C321 C322 1.398 . S
C322 H310 0.950 . S
C322 C321 1.398 . S
C322 C323 1.391 . S
C323 H311 0.950 . S
C323 C319 1.393 . S
C323 C322 1.391 . S
H324 C332 0.950 1_655 S
H325 C337 0.950 . S
H326 C334 0.950 . S
H327 C336 0.950 1_544 S
H328 C338 0.950 1_455 S
H329 C340 0.950 . S
H330 C342 0.950 1_566 S
H331 C343 0.950 . S
C332 H324 0.950 1_455 S
C332 C333 1.386 . S
C332 C334 1.391 1_455 S
C333 C332 1.386 . S
C333 C337 1.393 . S
C334 H326 0.950 . S
C334 C332 1.391 1_655 S
C334 C335 1.400 1_655 S
C335 C334 1.400 1_455 S
C335 C336 1.398 . S
C335 C341 1.491 1_466 S
C336 H327 0.950 1_566 S
C336 C335 1.398 . S
C336 C337 1.391 . S
C337 H325 0.950 . S
C337 C333 1.393 . S
C337 C336 1.391 . S
C338 H328 0.950 1_655 S
C338 C339 1.386 . S
C338 C340 1.391 1_655 S
C339 C338 1.386 . S
C339 C343 1.393 . S
C340 H329 0.950 . S
C340 C338 1.391 1_455 S
C340 C341 1.400 1_455 S
C341 C335 1.491 1_644 S
C341 C340 1.400 1_655 S
C341 C342 1.398 . S
C342 H330 0.950 1_544 S
C342 C341 1.398 . S
C342 C343 1.391 . S
C343 H331 0.950 . S
C343 C339 1.393 . S
C343 C342 1.391 . S
H344 C352 0.950 . S
H345 C357 0.950 . S
H346 C354 0.950 . S
H347 C356 0.950 . S
H348 C358 0.950 . S
H349 C360 0.950 . S
H350 C362 0.950 . S
H351 C363 0.950 . S
C352 H344 0.950 . S
C352 C353 1.386 . S
C352 C354 1.391 . S
C353 C352 1.386 . S
C353 C357 1.393 . S
C354 H346 0.950 . S
C354 C352 1.391 . S
C354 C355 1.400 . S
C355 C354 1.400 . S
C355 C356 1.398 . S
C355 C361 1.491 . S
C356 H347 0.950 . S
C356 C355 1.398 . S
C356 C357 1.391 . S
C357 H345 0.950 . S
C357 C353 1.393 . S
C357 C356 1.391 . S
C358 H348 0.950 . S
C358 C359 1.386 . S
C358 C360 1.391 . S
C359 C358 1.386 . S
C359 C363 1.393 . S
C360 H349 0.950 . S
C360 C358 1.391 . S
C360 C361 1.400 . S
C361 C355 1.491 . S
C361 C360 1.400 . S
C361 C362 1.398 . S
C362 H350 0.950 . S
C362 C361 1.398 . S
C362 C363 1.391 . S
C363 H351 0.950 . S
C363 C359 1.393 . S
C363 C362 1.391 . S
H364 C372 0.950 . S
H365 C377 0.950 . S
H366 C374 0.950 . S
H367 C376 0.950 . S
H368 C378 0.950 . S
H369 C380 0.950 . S
H370 C382 0.950 . S
H371 C383 0.950 . S
C372 H364 0.950 . S
C372 C373 1.386 . S
C372 C374 1.391 . S
C373 C372 1.386 . S
C373 C377 1.393 . S
C374 H366 0.950 . S
C374 C372 1.391 . S
C374 C375 1.400 . S
C375 C374 1.400 . S
C375 C376 1.398 . S
C375 C381 1.491 . S
C376 H367 0.950 . S
C376 C375 1.398 . S
C376 C377 1.391 . S
C377 H365 0.950 . S
C377 C373 1.393 . S
C377 C376 1.391 . S
C378 H368 0.950 . S
C378 C379 1.386 . S
C378 C380 1.391 . S
C379 C378 1.386 . S
C379 C383 1.393 . S
C380 H369 0.950 . S
C380 C378 1.391 . S
C380 C381 1.400 . S
C381 C375 1.491 . S
C381 C380 1.400 . S
C381 C382 1.398 . S
C382 H370 0.950 . S
C382 C381 1.398 . S
C382 C383 1.391 . S
C383 H371 0.950 . S
C383 C379 1.393 . S
C383 C382 1.391 . S
H384 C392 0.950 . S
H385 C397 0.950 . S
H386 C394 0.950 . S
H387 C396 0.950 . S
H388 C398 0.950 . S
H389 C400 0.950 . S
H390 C402 0.950 . S
H391 C403 0.950 . S
C392 H384 0.950 . S
C392 C393 1.386 . S
C392 C394 1.391 . S
C393 C392 1.386 . S
C393 C397 1.393 . S
C394 H386 0.950 . S
C394 C392 1.391 . S
C394 C395 1.400 . S
C395 C394 1.400 . S
C395 C396 1.398 . S
C395 C401 1.491 . S
C396 H387 0.950 . S
C396 C395 1.398 . S
C396 C397 1.391 . S
C397 H385 0.950 . S
C397 C393 1.393 . S
C397 C396 1.391 . S
C398 H388 0.950 . S
C398 C399 1.386 . S
C398 C400 1.391 . S
C399 C398 1.386 . S
C399 C403 1.393 . S
C400 H389 0.950 . S
C400 C398 1.391 . S
C400 C401 1.400 . S
C401 C395 1.491 . S
C401 C400 1.400 . S
C401 C402 1.398 . S
C402 H390 0.950 . S
C402 C401 1.398 . S
C402 C403 1.391 . S
C403 H391 0.950 . S
C403 C399 1.393 . S
C403 C402 1.391 . S
H404 C412 0.950 . S
H405 C417 0.950 . S
H406 C414 0.950 . S
H407 C416 0.950 . S
H408 C418 0.950 . S
H409 C420 0.950 . S
H410 C422 0.950 . S
H411 C423 0.950 . S
C412 H404 0.950 . S
C412 C413 1.386 . S
C412 C414 1.391 . S
C413 C412 1.386 . S
C413 C417 1.393 . S
C414 H406 0.950 . S
C414 C412 1.391 . S
C414 C415 1.400 . S
C415 C414 1.400 . S
C415 C416 1.398 . S
C415 C421 1.491 . S
C416 H407 0.950 . S
C416 C415 1.398 . S
C416 C417 1.391 . S
C417 H405 0.950 . S
C417 C413 1.393 . S
C417 C416 1.391 . S
C418 H408 0.950 . S
C418 C419 1.386 . S
C418 C420 1.391 . S
C419 C418 1.386 . S
C419 C423 1.393 . S
C420 H409 0.950 . S
C420 C418 1.391 . S
C420 C421 1.400 . S
C421 C415 1.491 . S
C421 C420 1.400 . S
C421 C422 1.398 . S
C422 H410 0.950 . S
C422 C421 1.398 . S
C422 C423 1.391 . S
C423 H411 0.950 . S
C423 C419 1.393 . S
C423 C422 1.391 . S
C113 C5 1.145 . S
C119 C34 1.130 . S
C133 C47 1.155 . S
C139 C18 1.155 . S
C153 C31 1.133 . S
C159 C8 1.158 . S
C173 C44 1.157 . S
C179 C21 1.143 . S
C193 C86 1.143 . S
C199 C57 1.125 . S
C213 C70 1.137 . S
C219 C99 1.160 . S
C233 C83 1.125 . S
C239 C60 1.147 . S
C253 C96 1.155 . S
C259 C73 1.154 . S
C273 C0 1.502 . S
C279 C52 1.502 . S
C293 C13 1.488 . S
C299 C65 1.488 . S
C313 C26 1.491 . S
C319 C78 1.491 . S
C333 C91 1.486 . S
C339 C39 1.486 . S
C353 C10 1.512 . S
C359 C23 1.518 . S
C373 C49 1.511 . S
C379 C36 1.519 . S
C393 C75 1.517 . S
C399 C62 1.512 . S
C413 C88 1.514 . S
C419 C101 1.515 . S
