# Generated by pormake.
# Topology zfb, (5)-cn, num edge types: 1
# Building blocks:
#     Node 0, Type 0, BuildingBlock: XOMCOT_clean_sbu_1, # of connection points: 5
#     Node 1, Type 0, BuildingBlock: XOMCOT_clean_sbu_1, # of connection points: 5
#     Node 2, Type 0, BuildingBlock: XOMCOT_clean_sbu_1, # of connection points: 5
#     Node 3, Type 0, BuildingBlock: XOMCOT_clean_sbu_1, # of connection points: 5
#     Node 4, Type 0, BuildingBlock: XOMCOT_clean_sbu_1, # of connection points: 5
#     Node 5, Type 0, BuildingBlock: XOMCOT_clean_sbu_1, # of connection points: 5
#     Node 6, Type 0, BuildingBlock: XOMCOT_clean_sbu_1, # of connection points: 5
#     Node 7, Type 0, BuildingBlock: XOMCOT_clean_sbu_1, # of connection points: 5
#     Edge 8, Type (0, 0), BuildingBlock: EZIPEK_clean_linker_0, # of connection points: 2
#     Edge 9, Type (0, 0), BuildingBlock: EZIPEK_clean_linker_0, # of connection points: 2
#     Edge 10, Type (0, 0), BuildingBlock: EZIPEK_clean_linker_0, # of connection points: 2
#     Edge 11, Type (0, 0), BuildingBlock: EZIPEK_clean_linker_0, # of connection points: 2
#     Edge 12, Type (0, 0), BuildingBlock: EZIPEK_clean_linker_0, # of connection points: 2
#     Edge 13, Type (0, 0), BuildingBlock: EZIPEK_clean_linker_0, # of connection points: 2
#     Edge 14, Type (0, 0), BuildingBlock: EZIPEK_clean_linker_0, # of connection points: 2
#     Edge 15, Type (0, 0), BuildingBlock: EZIPEK_clean_linker_0, # of connection points: 2
#     Edge 16, Type (0, 0), BuildingBlock: EZIPEK_clean_linker_0, # of connection points: 2
#     Edge 17, Type (0, 0), BuildingBlock: EZIPEK_clean_linker_0, # of connection points: 2
#     Edge 18, Type (0, 0), BuildingBlock: EZIPEK_clean_linker_0, # of connection points: 2
#     Edge 19, Type (0, 0), BuildingBlock: EZIPEK_clean_linker_0, # of connection points: 2
#     Edge 20, Type (0, 0), BuildingBlock: EZIPEK_clean_linker_0, # of connection points: 2
#     Edge 21, Type (0, 0), BuildingBlock: EZIPEK_clean_linker_0, # of connection points: 2
#     Edge 22, Type (0, 0), BuildingBlock: EZIPEK_clean_linker_0, # of connection points: 2
#     Edge 23, Type (0, 0), BuildingBlock: EZIPEK_clean_linker_0, # of connection points: 2
#     Edge 24, Type (0, 0), BuildingBlock: EZIPEK_clean_linker_0, # of connection points: 2
#     Edge 25, Type (0, 0), BuildingBlock: EZIPEK_clean_linker_0, # of connection points: 2
#     Edge 26, Type (0, 0), BuildingBlock: EZIPEK_clean_linker_0, # of connection points: 2
#     Edge 27, Type (0, 0), BuildingBlock: EZIPEK_clean_linker_0, # of connection points: 2
# Relax obj value: 0.168
# Max RMSD: 0.182
# Mean RMSD: 0.182
data_MOF--net-zfb--node1-XOMCOT_clean_sbu_1--edge1-EZIPEK_clean_linker_0
_symmetry_space_group_name_H-M    P1
_symmetry_Int_Tables_number       1
_symmetry_cell_setting            triclinic
loop_
_symmetry_equiv_pos_as_xyz
'x, y, z'
_cell_length_a     24.554272
_cell_length_b     24.4434
_cell_length_c     26.600346
_cell_angle_alpha  89.859962
_cell_angle_beta   89.761384
_cell_angle_gamma 90.029869
loop_
_atom_site_label
_atom_site_type_symbol
_atom_site_fract_x
_atom_site_fract_y
_atom_site_fract_z
_atom_type_partial_charge
C0 C 0.26912 0.34041 0.97722 0.0
C1 C 0.26461 0.32823 0.92687 0.0
N2 N 0.21353 0.34014 0.91193 0.0
N3 N 0.22094 0.35933 0.99424 0.0
C4 C 0.18803 0.35928 0.95348 0.0
H5 H 0.30475 0.33449 1.00037 0.0
Co6 Co 0.20549 0.37632 0.0614 0.0
C7 C 0.1232 0.46599 0.03926 0.0
O8 O 0.15415 0.50613 0.05472 0.0
N9 N 0.18903 0.39241 0.13054 0.0
C10 C 0.16795 0.43787 0.20079 0.0
C11 C 0.1817 0.44248 0.15109 0.0
C12 C 0.1806 0.35778 0.16999 0.0
N13 N 0.1669 0.38463 0.21273 0.0
O14 O 0.16305 0.31028 0.0658 0.0
H15 H 0.18755 0.48069 0.1322 0.0
H16 H 0.18464 0.31388 0.16785 0.0
O17 O 0.13924 0.41619 0.04071 0.0
C18 C 0.19294 0.26856 0.07335 0.0
O19 O 0.24541 0.27596 0.08 0.0
N20 N 0.25127 0.43862 0.05599 0.0
C21 C 0.30592 0.53759 0.06037 0.0
C22 C 0.2752 0.52424 1.01795 0.0
C23 C 0.2495 0.47343 1.01573 0.0
C24 C 0.28936 0.44668 0.09253 0.0
C25 C 0.31721 0.49649 0.09567 0.0
H26 H 0.22322 0.46496 0.98424 0.0
H27 H 0.29489 0.4163 0.1217 0.0
H28 H 0.14568 0.37134 0.95439 0.0
H29 H 0.29623 0.31131 0.90307 0.0
H30 H 0.15996 0.47116 0.22657 0.0
H31 H 0.26742 0.55435 0.9889 0.0
H32 H 0.34267 0.50484 0.12791 0.0
C33 C 0.58362 0.25224 0.47461 0.0
C34 C 0.59363 0.24763 0.42388 0.0
N35 N 0.61826 0.19939 0.41568 0.0
N36 N 0.60072 0.20655 0.49858 0.0
C37 C 0.62208 0.17516 0.46137 0.0
H38 H 0.5655 0.28733 0.49267 0.0
Co39 Co 0.59569 0.19304 0.56869 0.0
C40 C 0.58784 0.07284 0.54962 0.0
O41 O 0.64075 0.06561 0.54753 0.0
N42 N 0.58987 0.17891 0.63884 0.0
C43 C 0.55401 0.14751 0.71048 0.0
C44 C 0.54525 0.156 0.66019 0.0
C45 C 0.62525 0.18454 0.67771 0.0
N46 N 0.60433 0.16513 0.72155 0.0
O47 O 0.66911 0.16838 0.56822 0.0
H48 H 0.5089 0.14426 0.64015 0.0
H49 H 0.66585 0.20126 0.67405 0.0
O50 O 0.56777 0.12017 0.55679 0.0
C51 C 0.70087 0.20895 0.5741 0.0
O52 O 0.67947 0.25733 0.5827 0.0
N53 N 0.52555 0.22219 0.56898 0.0
C54 C 0.42861 0.28036 0.56305 0.0
C55 C 0.43103 0.22548 0.54795 0.0
C56 C 0.48025 0.19734 0.55011 0.0
C57 C 0.52357 0.27491 0.58547 0.0
C58 C 0.47575 0.30541 0.58147 0.0
H59 H 0.48176 0.15622 0.53555 0.0
H60 H 0.56025 0.29414 0.59928 0.0
H61 H 0.64089 0.13575 0.46757 0.0
H62 H 0.58485 0.27793 0.39528 0.0
H63 H 0.52602 0.1286 0.73687 0.0
H64 H 0.39545 0.20518 0.53285 0.0
H65 H 0.4756 0.34809 0.59232 0.0
C66 C 0.74283 0.60279 0.95717 0.0
C67 C 0.74558 0.61653 0.90699 0.0
N68 N 0.79723 0.63079 0.89594 0.0
N69 N 0.79261 0.60805 0.97799 0.0
C70 C 0.82464 0.62618 0.93972 0.0
H71 H 0.70642 0.59069 0.97723 0.0
Co72 Co 0.80999 0.59751 0.04646 0.0
C73 C 0.9101 0.54872 0.99507 0.0
O74 O 0.88493 0.52873 0.95563 0.0
N75 N 0.82779 0.58707 0.1154 0.0
C76 C 0.86121 0.54743 0.1844 0.0
C77 C 0.85116 0.54121 0.13405 0.0
C78 C 0.82412 0.62079 0.15582 0.0
N79 N 0.84434 0.59745 0.19808 0.0
O80 O 0.83767 0.66979 0.04815 0.0
H81 H 0.86268 0.50594 0.11215 0.0
H82 H 0.80844 0.66207 0.15432 0.0
O83 O 0.88215 0.57177 1.02943 0.0
C84 C 0.79939 0.70352 0.05655 0.0
O85 O 0.75011 0.68462 0.06518 0.0
N86 N 0.77806 0.52815 0.04555 0.0
C87 C 0.71756 0.43306 0.0562 0.0
C88 C 0.77114 0.43087 0.03848 0.0
C89 C 0.80098 0.47897 0.0336 0.0
C90 C 0.72556 0.5308 0.06234 0.0
C91 C 0.69418 0.48357 0.06768 0.0
H92 H 0.84302 0.47539 1.02332 0.0
H93 H 0.70837 0.57001 0.07247 0.0
H94 H 0.86726 0.63643 0.94381 0.0
H95 H 0.71226 0.61594 0.88047 0.0
H96 H 0.8815 0.51841 0.20876 0.0
H97 H 0.7904 0.39197 1.03042 0.0
H98 H 0.65296 0.48616 0.08212 0.0
C99 C 0.345 0.72983 0.49116 0.0
C100 C 0.3313 0.73594 0.44144 0.0
N101 N 0.33797 0.78883 0.42878 0.0
N102 N 0.36035 0.7786 0.50997 0.0
C103 C 0.35538 0.8141 0.47101 0.0
H104 H 0.34447 0.69201 0.51235 0.0
Co105 Co 0.38251 0.78643 0.577 0.0
C106 C 0.46669 0.87472 0.56875 0.0
O107 O 0.50391 0.84156 0.58627 0.0
N108 N 0.40283 0.79367 0.64703 0.0
C109 C 0.44753 0.80181 0.71989 0.0
C110 C 0.45205 0.78978 0.66966 0.0
C111 C 0.36888 0.80614 0.68593 0.0
N112 N 0.39495 0.81172 0.73034 0.0
O113 O 0.31582 0.82313 0.59054 0.0
H114 H 0.48961 0.77822 0.65174 0.0
H115 H 0.32576 0.81264 0.6822 0.0
O116 O 0.41758 0.85827 0.5622 0.0
C117 C 0.27599 0.7903 0.59556 0.0
O118 O 0.28572 0.73745 0.59435 0.0
N119 N 0.44603 0.74641 0.56131 0.0
C120 C 0.54467 0.69483 0.54485 0.0
C121 C 0.52662 0.73513 0.51162 0.0
C122 C 0.47647 0.75973 0.51992 0.0
C123 C 0.45859 0.7007 0.58853 0.0
C124 C 0.50881 0.67458 0.58156 0.0
H125 H 0.46431 0.79268 0.49539 0.0
H126 H 0.43164 0.68719 0.61835 0.0
H127 H 0.36458 0.85729 0.47331 0.0
H128 H 0.31818 0.70393 0.41616 0.0
H129 H 0.48039 0.80264 0.7469 0.0
H130 H 0.55296 0.75061 0.48204 0.0
H131 H 0.52137 0.6425 0.60714 0.0
C132 C 0.74991 0.09541 0.16384 0.0
C133 C 0.74653 0.10447 0.21481 0.0
N134 N 0.69625 0.1231 0.2252 0.0
N135 N 0.70168 0.10736 0.14211 0.0
C136 C 0.66987 0.12446 0.18072 0.0
H137 H 0.78565 0.08141 0.14378 0.0
Co138 Co 0.68746 0.10084 0.07261 0.0
C139 C 0.57007 0.08502 0.0985 0.0
O140 O 0.56115 0.13742 0.10532 0.0
N141 N 0.67374 0.09339 1.00289 0.0
C142 C 0.64746 0.0552 0.93094 0.0
C143 C 0.65482 0.04702 0.98152 0.0
C144 C 0.6787 0.12902 0.96388 0.0
N145 N 0.66215 0.10678 0.91985 0.0
O146 O 0.65569 0.17205 0.07191 0.0
H147 H 0.64554 0.0097 1.00172 0.0
H148 H 0.69355 0.17045 0.96761 0.0
O149 O 0.61709 0.06747 0.08609 0.0
C150 C 0.68897 0.21149 0.07607 0.0
O151 O 0.74107 0.20081 0.08117 0.0
N152 N 0.72116 0.0326 0.0729 0.0
C153 C 0.77242 0.93232 0.06423 0.0
C154 C 0.72627 0.93788 0.09477 0.0
C155 C 0.70142 0.98878 0.09915 0.0
C156 C 0.76807 0.02864 0.04554 0.0
C157 C 0.7947 0.97849 0.04074 0.0
H158 H 0.66596 0.99264 0.12304 0.0
H159 H 0.78386 0.06431 1.02623 0.0
H160 H 0.6289 0.13959 0.17645 0.0
H161 H 0.77886 0.09946 0.24198 0.0
H162 H 0.63134 0.02593 0.90438 0.0
H163 H 0.70885 0.90281 0.11395 0.0
H164 H 0.83067 0.97518 1.01723 0.0
C165 C 0.84151 0.75817 0.63341 0.0
C166 C 0.83083 0.75084 0.68361 0.0
N167 N 0.85078 0.70193 0.69754 0.0
N168 N 0.86767 0.71402 0.61504 0.0
C169 C 0.87349 0.68047 0.65541 0.0
H170 H 0.83064 0.79368 0.6115 0.0
Co171 Co 0.88135 0.70685 0.54576 0.0
C172 C 0.89722 0.58484 0.55347 0.0
O173 O 0.84856 0.5711 0.53757 0.0
N174 N 0.89337 0.70221 0.47587 0.0
C175 C 0.90705 0.735 0.39867 0.0
C176 C 0.91033 0.74609 0.4491 0.0
C177 C 0.87962 0.6647 0.44056 0.0
N178 N 0.88748 0.68403 0.39326 0.0
O179 O 0.80964 0.67807 0.53851 0.0
H180 H 0.92186 0.78493 0.46526 0.0
H181 H 0.86158 0.62537 0.44905 0.0
O182 O 0.91114 0.6348 0.55696 0.0
C183 C 0.77371 0.70364 0.51346 0.0
O184 O 0.78769 0.74695 0.48706 0.0
N185 N 0.9509 0.73723 0.55393 0.0
C186 C 0.05196 0.78308 0.57322 0.0
C187 C 0.04816 0.73094 0.55212 0.0
C188 C -0.00287 0.70886 0.54218 0.0
C189 C 0.95415 0.78962 0.57138 0.0
C190 C 0.00458 0.8133 0.58192 0.0
H191 H -0.00494 0.66887 0.52517 0.0
H192 H 0.91755 0.81307 0.57762 0.0
H193 H 0.89249 0.64063 0.65394 0.0
H194 H 0.80954 0.77903 0.7081 0.0
H195 H 0.9166 0.76278 0.36811 0.0
H196 H 0.08442 0.70717 0.54417 0.0
H197 H 0.0066 0.85414 0.59751 0.0
C198 C 0.22596 0.84607 0.16351 0.0
C199 C 0.23031 0.83574 0.21422 0.0
N200 N 0.28226 0.84475 0.22808 0.0
N201 N 0.27501 0.86125 0.14528 0.0
C202 C 0.30849 0.86068 0.18566 0.0
H203 H 0.18958 0.84204 0.14104 0.0
Co204 Co 0.28873 0.87684 0.07741 0.0
C205 C 0.3738 0.96482 0.09565 0.0
O206 O 0.34167 0.00567 0.08426 0.0
N207 N 0.30326 0.89167 1.00759 0.0
C208 C 0.32681 0.93521 0.93678 0.0
C209 C 0.3135 0.94108 0.9865 0.0
C210 C 0.30902 0.85636 0.96845 0.0
N211 N 0.32395 0.88193 0.92517 0.0
O212 O 0.32921 0.80965 0.07295 0.0
H213 H 0.31076 0.97971 1.00525 0.0
H214 H 0.30314 0.81267 0.97146 0.0
O215 O 0.357 0.91521 0.09472 0.0
C216 C 0.29822 0.76828 0.06782 0.0
O217 O 0.2456 0.77646 0.06315 0.0
N218 N 0.24466 0.94021 0.08313 0.0
C219 C 0.18851 0.03842 0.0814 0.0
C220 C 0.22055 0.0247 0.12287 0.0
C221 C 0.24707 0.97433 0.12376 0.0
C222 C 0.20591 0.94875 0.04727 0.0
C223 C 0.17735 -0.00183 0.04543 0.0
H224 H 0.2743 0.96569 0.15458 0.0
H225 H 0.1998 0.91884 1.01793 0.0
H226 H 0.35137 0.87077 0.18402 0.0
H227 H 0.19796 0.82216 0.23907 0.0
H228 H 0.33769 0.96773 0.91089 0.0
H229 H 0.22862 0.05431 0.15216 0.0
H230 H 0.15115 0.00694 1.01376 0.0
C231 C 0.10996 0.24853 0.64705 0.0
C232 C 0.12529 0.24514 0.69666 0.0
N233 N 0.14178 0.29501 0.71152 0.0
N234 N 0.11607 0.30044 0.63051 0.0
C235 C 0.13749 0.32736 0.67033 0.0
H236 H 0.09488 0.21514 0.62441 0.0
Co237 Co 0.10059 0.32222 0.56386 0.0
C238 C 0.05083 0.42191 0.62089 0.0
O239 O 0.05343 0.40272 0.6668 0.0
N240 N 0.08652 0.34244 0.49655 0.0
C241 C 0.05324 0.38308 0.42816 0.0
C242 C 0.04772 0.37692 0.47939 0.0
C243 C 0.11369 0.32662 0.45464 0.0
N244 N 0.09497 0.35165 0.4128 0.0
O245 O 0.17097 0.356 0.55943 0.0
H246 H 0.01739 0.39681 0.50253 0.0
H247 H 0.14646 0.2973 0.45461 0.0
O248 O 0.06768 0.39215 0.58449 0.0
C249 C 0.20859 0.32291 0.54682 0.0
O250 O 0.19566 0.27163 0.53822 0.0
N251 N 0.03264 0.28679 0.56722 0.0
C252 C 0.93108 0.23696 0.56499 0.0
C253 C 0.94442 0.27272 0.60387 0.0
C254 C -0.00431 0.29693 0.60452 0.0
C255 C 0.02169 0.24858 0.53128 0.0
C256 C 0.97062 0.22343 0.5291 0.0
H257 H 0.00537 0.32368 0.63509 0.0
H258 H 0.05212 0.23874 0.50324 0.0
H259 H 0.14959 0.36992 0.6694 0.0
H260 H 0.12371 0.20907 0.72032 0.0
H261 H 0.02927 0.40944 0.40412 0.0
H262 H 0.91473 0.28334 0.63247 0.0
H263 H 0.96132 0.19558 0.49871 0.0
C264 C 0.20442 0.1248 0.03263 0.0
C265 C 0.17604 0.09692 0.07168 0.0
C266 C 0.14275 0.1848 0.10431 0.0
C267 C 0.17293 0.21189 0.06622 0.0
N268 N 0.21227 0.20762 0.98374 0.0
N269 N 0.1079 0.09839 0.137 0.0
C270 C 0.19668 0.18159 1.02678 0.0
C271 C 0.14149 0.1264 0.10498 0.0
N272 N 0.24239 0.09848 1.00373 0.0
N273 N 0.1172 0.21485 0.14055 0.0
H274 H 0.10626 0.05572 0.13765 0.0
H275 H 0.07883 0.11705 0.15979 0.0
H276 H 0.11422 0.25732 0.1382 0.0
H277 H 0.09995 0.19809 0.17291 0.0
H278 H 0.2684 0.11889 0.97895 0.0
H279 H 0.25201 0.05729 1.00758 0.0
H280 H 0.22569 0.18725 0.95163 0.0
H281 H 0.20481 0.24906 0.97865 0.0
C282 C 0.83929 0.25227 0.52803 0.0
C283 C 0.87361 0.22017 0.55897 0.0
C284 C 0.79443 0.17206 0.59413 0.0
C285 C 0.76009 0.20518 0.56392 0.0
N286 N 0.74978 0.26483 0.4924 0.0
N287 N 0.88669 0.14213 0.61276 0.0
C288 C 0.78268 0.24135 0.52765 0.0
C289 C 0.85199 0.17736 0.58907 0.0
N290 N 0.86039 0.29516 0.50108 0.0
N291 N 0.77216 0.13805 0.6295 0.0
H292 H 0.92895 0.14563 0.60975 0.0
H293 H 0.87399 0.10711 0.63182 0.0
H294 H 0.73036 0.132 0.63314 0.0
H295 H 0.79473 0.11782 0.65686 0.0
H296 H 0.83657 0.32463 0.48338 0.0
H297 H 0.90193 0.30378 0.49899 0.0
H298 H 0.76437 0.28785 0.46225 0.0
H299 H 0.70813 0.25691 0.49054 0.0
C300 C 0.77311 0.84791 1.01234 0.0
C301 C 0.79373 0.87688 0.05418 0.0
C302 C 0.83624 0.79324 0.08641 0.0
C303 C 0.80695 0.76302 0.05001 0.0
N304 N 0.75004 0.76011 0.97637 0.0
N305 N 0.84743 0.88014 0.12952 0.0
C306 C 0.77696 0.79009 1.0118 0.0
C307 C 0.82697 0.85055 0.09035 0.0
N308 N 0.74916 0.87575 0.97362 0.0
N309 N 0.8719 0.76699 0.11754 0.0
H310 H 0.84331 0.92256 0.13182 0.0
H311 H 0.86668 0.8629 0.16051 0.0
H312 H 0.8791 0.72503 0.11564 0.0
H313 H 0.89762 0.78699 0.14247 0.0
H314 H 0.73829 0.85782 0.93967 0.0
H315 H 0.74395 0.91806 0.97356 0.0
H316 H 0.72153 0.77627 0.95162 0.0
H317 H 0.75483 0.71799 0.9728 0.0
C318 C 0.13798 0.83445 0.55416 0.0
C319 C 0.10602 0.8036 0.58836 0.0
C320 C 0.18604 0.78309 0.63897 0.0
C321 C 0.21897 0.80907 0.60189 0.0
N322 N 0.22458 0.87827 0.53702 0.0
N323 N 0.09495 0.76476 0.67087 0.0
C324 C 0.19439 0.84143 0.56388 0.0
C325 C 0.12861 0.78379 0.63367 0.0
N326 N 0.1151 0.85418 0.51104 0.0
N327 N 0.20998 0.75559 0.67782 0.0
H328 H 0.05263 0.76468 0.66737 0.0
H329 H 0.10828 0.7537 0.70656 0.0
H330 H 0.25175 0.75702 0.68438 0.0
H331 H 0.18902 0.72998 0.7025 0.0
H332 H 0.13768 0.87077 0.48147 0.0
H333 H 0.07347 0.85131 0.50381 0.0
H334 H 0.20754 0.90612 0.51192 0.0
H335 H 0.26567 0.88544 0.5437 0.0
C336 C 0.6956 0.35646 0.11458 0.0
C337 C 0.68885 0.3813 0.06684 0.0
C338 C 0.65492 0.29535 0.03198 0.0
C339 C 0.67086 0.26914 0.07706 0.0
N340 N 0.68255 0.27552 0.16608 0.0
N341 N 0.65116 0.38021 0.98364 0.0
C342 C 0.68324 0.30024 0.1201 0.0
C343 C 0.66402 0.35262 1.02675 0.0
N344 N 0.7175 0.38561 0.15338 0.0
N345 N 0.63227 0.26504 0.99451 0.0
H346 H 0.65673 0.42238 0.98005 0.0
H347 H 0.63368 0.36247 0.95212 0.0
H348 H 0.62107 0.22442 1.00025 0.0
H349 H 0.62195 0.27998 0.9592 0.0
H350 H 0.72991 0.36807 0.18714 0.0
H351 H 0.72545 0.42746 0.15104 0.0
H352 H 0.68633 0.29654 0.19986 0.0
H353 H 0.67199 0.23446 0.17015 0.0
C354 C 0.62869 0.64869 0.51121 0.0
C355 C 0.6039 0.68409 0.54666 0.0
C356 C 0.69013 0.73086 0.56036 0.0
C357 C 0.71576 0.69489 0.52582 0.0
N358 N 0.71283 0.61326 0.4753 0.0
N359 N 0.61395 0.74664 0.61601 0.0
C360 C 0.68617 0.65132 0.50374 0.0
C361 C 0.63584 0.72069 0.57521 0.0
N362 N 0.59691 0.61424 0.48361 0.0
N363 N 0.71642 0.77664 0.57697 0.0
H364 H 0.57408 0.7403 0.62804 0.0
H365 H 0.63697 0.76965 0.64108 0.0
H366 H 0.75557 0.7872 0.56561 0.0
H367 H 0.69741 0.80728 0.59776 0.0
H368 H 0.61127 0.59168 0.45318 0.0
H369 H 0.55517 0.61004 0.49026 0.0
H370 H 0.69441 0.57795 0.46166 0.0
H371 H 0.75461 0.61523 0.46818 0.0
C372 C 0.35227 0.6263 0.03803 0.0
C373 C 0.31774 0.59614 0.07091 0.0
C374 C 0.29362 0.68075 0.11441 0.0
C375 C 0.31771 0.71133 0.07511 0.0
N376 N 0.37517 0.7149 1.00191 0.0
N377 N 0.25131 0.59606 0.13876 0.0
C378 C 0.34956 0.68462 0.03804 0.0
C379 C 0.28816 0.62352 0.10943 0.0
N380 N 0.38732 0.59894 1.00702 0.0
N381 N 0.27567 0.70685 0.15657 0.0
H382 H 0.24461 0.55423 0.13663 0.0
H383 H 0.22383 0.61566 0.16262 0.0
H384 H 0.28053 0.74877 0.16106 0.0
H385 H 0.26239 0.68648 0.18883 0.0
H386 H 0.41652 0.61815 0.98466 0.0
H387 H 0.39007 0.55632 1.00692 0.0
H388 H 0.39349 0.69829 0.97007 0.0
H389 H 0.3769 0.75739 1.00375 0.0
C390 C 0.29792 0.32291 0.50173 0.0
C391 C 0.26697 0.3387 0.54435 0.0
C392 C 0.3477 0.33332 0.59712 0.0
C393 C 0.37715 0.31135 0.55577 0.0
N394 N 0.38756 0.30728 0.4658 0.0
N395 N 0.26875 0.38584 0.62345 0.0
C396 C 0.35462 0.31379 0.50688 0.0
C397 C 0.29409 0.35332 0.58904 0.0
N398 N 0.27253 0.31494 0.4569 0.0
N399 N 0.36886 0.33149 0.64446 0.0
H400 H 0.23005 0.40196 0.61738 0.0
H401 H 0.28874 0.40212 0.65448 0.0
H402 H 0.40662 0.31453 0.65284 0.0
H403 H 0.34718 0.34345 0.67618 0.0
H404 H 0.29095 0.29674 0.42583 0.0
H405 H 0.23212 0.32611 0.45162 0.0
H406 H 0.37435 0.31256 0.42897 0.0
H407 H 0.42959 0.30188 0.46896 0.0
C408 C 0.05464 0.4939 0.97478 0.0
C409 C 0.06707 0.48001 1.02525 0.0
C410 C 0.98812 0.5307 0.05432 0.0
C411 C 0.96876 0.53515 1.00421 0.0
N412 N 0.98917 0.53021 0.91536 0.0
N413 N 0.03978 0.47556 0.11219 0.0
C414 C 0.00353 0.51894 0.96384 0.0
C415 C 0.03143 0.4947 0.06458 0.0
N416 N 0.09278 0.48576 0.93797 0.0
N417 N 0.9699 0.56481 0.09129 0.0
H418 H 0.07096 0.44814 0.12075 0.0
H419 H 0.01215 0.48227 0.14143 0.0
H420 H 0.94722 0.59986 0.08381 0.0
H421 H 0.98562 0.56414 0.12763 0.0
H422 H 0.08898 0.49992 0.90124 0.0
H423 H 0.13015 0.46707 0.94494 0.0
H424 H 0.00791 0.5126 0.88418 0.0
H425 H 0.95878 0.55831 0.90634 0.0
C426 C 0.49825 0.96154 0.60547 0.0
C427 C 0.48305 0.93244 0.56182 0.0
C428 C 0.52916 0.00105 0.50927 0.0
C429 C 0.55126 0.02487 0.5533 0.0
N430 N 0.56281 0.02368 0.64334 0.0
N431 N 0.4841 0.92261 0.47188 0.0
C432 C 0.53702 0.00436 0.60152 0.0
C433 C 0.49778 0.95214 0.51346 0.0
N434 N 0.47563 0.94764 0.65077 0.0
N435 N 0.5384 0.02512 0.46363 0.0
H436 H 0.45924 0.8881 0.47385 0.0
H437 H 0.49901 0.93082 0.43595 0.0
H438 H 0.56306 0.05957 0.4594 0.0
H439 H 0.51913 0.01319 0.43064 0.0
H440 H 0.4813 0.97017 0.68351 0.0
H441 H 0.44656 0.91664 0.65427 0.0
H442 H 0.55797 0.00666 0.679 0.0
H443 H 0.59308 0.05359 0.64175 0.0
C444 C 0.44901 0.0031 0.14702 0.0
C445 C 0.43181 0.97796 0.10192 0.0
C446 C 0.50565 0.02157 0.05541 0.0
C447 C 0.52388 0.04633 0.10047 0.0
N448 N 0.52016 0.05247 0.1909 0.0
N449 N 0.45269 0.94887 1.01782 0.0
C450 C 0.49796 0.03428 0.14701 0.0
C451 C 0.46371 0.98192 0.05781 0.0
N452 N 0.4172 -0.00112 0.18911 0.0
N453 N 0.52491 0.03936 1.00998 0.0
H454 H 0.42256 0.9188 1.0194 0.0
H455 H 0.47715 0.94717 0.98576 0.0
H456 H 0.5517 0.07225 1.00657 0.0
H457 H 0.50956 0.026 0.97568 0.0
H458 H 0.42369 0.02142 0.2217 0.0
H459 H 0.38269 0.97392 0.19046 0.0
H460 H 0.50607 0.04084 0.22632 0.0
H461 H 0.5554 0.07619 0.19186 0.0
C462 C 0.98401 0.53237 0.54156 0.0
C463 C 0.93653 0.54277 0.57058 0.0
C464 C 0.97419 0.48934 0.64035 0.0
C465 C 0.01821 0.47247 0.609 0.0
N466 N 0.0761 0.49615 0.53908 0.0
N467 N 0.88253 0.52558 0.64482 0.0
C468 C 0.02626 0.49922 0.56202 0.0
C469 C 0.93042 0.51944 0.61907 0.0
N470 N 0.98746 0.55226 0.49355 0.0
N471 N 0.97644 0.48192 0.69123 0.0
H472 H 0.84981 0.54807 0.63091 0.0
H473 H 0.87342 0.5043 0.67779 0.0
H474 H 0.01183 0.47038 0.70978 0.0
H475 H 0.94698 0.49667 0.71599 0.0
H476 H 0.01797 0.54148 0.46819 0.0
H477 H 0.95709 0.57638 0.47747 0.0
H478 H 0.08669 0.51775 0.50674 0.0
H479 H 0.10923 0.47669 0.55583 0.0
C480 C 0.10392 0.33766 0.27215 0.0
C481 C 0.15453 0.36368 0.26233 0.0
C482 C 0.1678 0.37796 0.35266 0.0
C483 C 0.11796 0.35072 0.36273 0.0
N484 N 0.04422 0.29475 0.33397 0.0
N485 N 0.24056 0.39566 0.29275 0.0
C486 C 0.08799 0.3271 0.3229 0.0
C487 C 0.18852 0.37917 0.3027 0.0
N488 N 0.06968 0.32637 0.23325 0.0
N489 N 0.19321 0.40613 0.39011 0.0
H490 H 0.25636 0.39638 0.25624 0.0
H491 H 0.2692 0.40324 0.32067 0.0
H492 H 0.17799 0.40789 0.42672 0.0
H493 H 0.22678 0.43138 0.38402 0.0
H494 H 0.02983 0.31274 0.23816 0.0
H495 H 0.07999 0.33417 0.19588 0.0
H496 H 0.02312 0.27232 0.30711 0.0
H497 H 0.0321 0.28681 0.37094 0.0
C498 C 0.61375 0.16955 0.86163 0.0
C499 C 0.65645 0.13188 0.87083 0.0
C500 C 0.67079 0.12184 0.77981 0.0
C501 C 0.62902 0.16068 0.77072 0.0
N502 N 0.57078 0.23149 0.8023 0.0
N503 N 0.73366 0.08199 0.84007 0.0
C504 C 0.60422 0.18813 0.81166 0.0
C505 C 0.68789 0.11167 0.83015 0.0
N506 N 0.5795 0.18405 0.89985 0.0
N507 N 0.69114 0.09173 0.7409 0.0
H508 H 0.7465 0.07423 0.87678 0.0
H509 H 0.76114 0.06967 0.81241 0.0
H510 H 0.67808 0.09677 0.70398 0.0
H511 H 0.71763 0.0589 0.74571 0.0
H512 H 0.54434 0.20714 0.89456 0.0
H513 H 0.5836 0.16883 0.93625 0.0
H514 H 0.55475 0.2563 0.8305 0.0
H515 H 0.56362 0.24562 0.76584 0.0
C516 C 0.91923 0.64712 0.31219 0.0
C517 C 0.87566 0.65847 0.34558 0.0
C518 C 0.81042 0.62882 0.28119 0.0
C519 C 0.85391 0.62207 0.2466 0.0
N520 N 0.94837 0.63403 0.22579 0.0
N521 N 0.77937 0.66842 0.35997 0.0
C522 C 0.90803 0.63387 0.26125 0.0
C523 C 0.82099 0.65139 0.32965 0.0
N524 N 0.97135 0.64785 0.32986 0.0
N525 N 0.75937 0.61223 0.26803 0.0
H526 H 0.78595 0.68559 0.39524 0.0
H527 H 0.73881 0.66937 0.34875 0.0
H528 H 0.7507 0.59632 0.23258 0.0
H529 H 0.72672 0.61069 0.2931 0.0
H530 H 0.0049 0.63519 0.30884 0.0
H531 H 0.98034 0.65637 0.36736 0.0
H532 H 0.98805 0.64687 0.23283 0.0
H533 H 0.94064 0.62633 0.18794 0.0
C534 C 0.37735 0.81826 0.87095 0.0
C535 C 0.3367 0.85895 0.87632 0.0
C536 C 0.33648 0.87113 0.78474 0.0
C537 C 0.3722 0.8258 0.77912 0.0
N538 N 0.41216 0.74607 0.81795 0.0
N539 N 0.26702 0.91308 0.83674 0.0
C540 C 0.38803 0.79604 0.82261 0.0
C541 C 0.3127 0.88167 0.83258 0.0
N542 N 0.40876 0.80369 0.91091 0.0
N543 N 0.32823 0.90658 0.74581 0.0
H544 H 0.24748 0.91949 0.87114 0.0
H545 H 0.24554 0.92724 0.80559 0.0
H546 H 0.34905 0.90376 0.71173 0.0
H547 H 0.3059 0.9426 0.74968 0.0
H548 H 0.44183 0.77717 0.90763 0.0
H549 H 0.40596 0.82324 0.94558 0.0
H550 H 0.42092 0.72132 0.84886 0.0
H551 H 0.41709 0.72688 0.78325 0.0
C552 C 0.80908 0.60965 0.80548 0.0
C553 C 0.81828 0.64524 0.84666 0.0
C554 C 0.86435 0.70906 0.78924 0.0
C555 C 0.84568 0.67861 0.74742 0.0
N556 N 0.792 0.6034 0.71621 0.0
N557 N 0.84906 0.73318 0.87631 0.0
C558 C 0.81627 0.62941 0.75554 0.0
C559 C 0.84502 0.69598 0.83834 0.0
N560 N 0.79449 0.5566 0.81422 0.0
N561 N 0.90098 0.75032 0.78181 0.0
H562 H 0.83358 0.72616 0.91222 0.0
H563 H 0.86318 0.77297 0.87087 0.0
H564 H 0.91686 0.75947 0.74631 0.0
H565 H 0.91971 0.77116 0.81118 0.0
H566 H 0.79164 0.52755 0.78574 0.0
H567 H 0.79144 0.54041 0.85046 0.0
H568 H 0.76577 0.57023 0.7209 0.0
H569 H 0.79364 0.61816 0.67948 0.0
C570 C 0.28756 0.84824 0.36904 0.0
C571 C 0.33057 0.81127 0.37896 0.0
C572 C 0.3458 0.7997 0.28837 0.0
C573 C 0.30369 0.83802 0.27837 0.0
N574 N 0.24587 0.91002 0.30898 0.0
N575 N 0.40992 0.76382 0.34938 0.0
C576 C 0.2783 0.86599 0.31882 0.0
C577 C 0.3628 0.79107 0.33886 0.0
N578 N 0.25357 0.8638 0.40708 0.0
N579 N 0.36719 0.76896 0.25036 0.0
H580 H 0.4235 0.75805 0.38615 0.0
H581 H 0.43792 0.75214 0.32191 0.0
H582 H 0.35534 0.77301 0.21306 0.0
H583 H 0.39351 0.73622 0.25641 0.0
H584 H 0.21808 0.88624 0.40135 0.0
H585 H 0.25856 0.85016 0.44389 0.0
H586 H 0.22963 0.93494 0.33698 0.0
H587 H 0.24012 0.92486 0.27256 0.0
C588 C 0.12234 0.29971 0.80318 0.0
C589 C 0.15762 0.31043 0.76197 0.0
C590 C 0.22198 0.35317 0.81988 0.0
C591 C 0.19184 0.33334 0.86168 0.0
N592 N 0.11665 0.27791 0.89168 0.0
N593 N 0.247 0.33626 0.73359 0.0
C594 C 0.1426 0.30415 0.8531 0.0
C595 C 0.20901 0.33448 0.77091 0.0
N596 N 0.06914 0.2867 0.79471 0.0
N597 N 0.26211 0.39101 0.82676 0.0
H598 H 0.24037 0.31882 0.69843 0.0
H599 H 0.28682 0.34898 0.74007 0.0
H600 H 0.27024 0.40814 0.86182 0.0
H601 H 0.28244 0.4099 0.79691 0.0
H602 H 0.04047 0.28301 0.82354 0.0
H603 H 0.05254 0.28583 0.75869 0.0
H604 H 0.08358 0.25189 0.88616 0.0
H605 H 0.13136 0.2773 0.92826 0.0
C606 C 0.69902 0.19027 0.29464 0.0
C607 C 0.67662 0.14223 0.27331 0.0
C608 C 0.61297 0.13438 0.34442 0.0
C609 C 0.63838 0.17964 0.36783 0.0
N610 N 0.70896 0.24786 0.36807 0.0
N611 N 0.61904 0.06322 0.28108 0.0
C612 C 0.68238 0.20684 0.34361 0.0
C613 C 0.63536 0.11279 0.29912 0.0
N614 N 0.73487 0.22105 0.26716 0.0
N615 N 0.56592 0.11382 0.36437 0.0
H616 H 0.63543 0.04628 0.24841 0.0
H617 H 0.59281 0.03709 0.30051 0.0
H618 H 0.54782 0.13026 0.39647 0.0
H619 H 0.54239 0.08409 0.34674 0.0
H620 H 0.7485 0.25957 0.27801 0.0
H621 H 0.7477 0.21014 0.23119 0.0
H622 H 0.74529 0.26524 0.35551 0.0
H623 H 0.69643 0.26221 0.40296 0.0
loop_
_geom_bond_atom_site_label_1
_geom_bond_atom_site_label_2
_geom_bond_distance
_geom_bond_site_symmetry_2
_ccdc_geom_bond_type
C0 C1 1.351 . S
C0 N3 1.368 . S
C0 H5 0.931 . S
C1 C0 1.351 . S
C1 N2 1.373 . S
C1 H29 0.930 . S
N2 C1 1.373 . S
N2 C4 1.340 . S
N3 C0 1.368 . S
N3 C4 1.321 . S
N3 Co6 2.135 1_556 S
C4 N2 1.340 . S
C4 N3 1.321 . S
C4 H28 0.930 . S
H5 C0 0.931 . S
Co6 N3 2.135 1_554 S
Co6 N9 2.121 . S
Co6 O14 2.055 . S
Co6 O17 2.039 . S
Co6 N20 2.140 . S
C7 O8 1.227 . S
C7 O17 1.265 . S
O8 C7 1.227 . S
N9 Co6 2.121 . S
N9 C11 1.375 . S
N9 C12 1.313 . S
C10 C11 1.338 . S
C10 N13 1.377 . S
C10 H30 0.930 . S
C11 N9 1.375 . S
C11 C10 1.338 . S
C11 H15 0.931 . S
C12 N9 1.313 . S
C12 N13 1.344 . S
C12 H16 0.930 . S
N13 C10 1.377 . S
N13 C12 1.344 . S
O14 Co6 2.055 . S
O14 C18 1.253 . S
H15 C11 0.931 . S
H16 C12 0.930 . S
O17 Co6 2.039 . S
O17 C7 1.265 . S
C18 O14 1.253 . S
C18 O19 1.227 . S
O19 C18 1.227 . S
N20 Co6 2.140 . S
N20 C23 1.346 1_554 S
N20 C24 1.345 . S
C21 C22 1.387 1_554 S
C21 C25 1.391 . S
C22 C21 1.387 1_556 S
C22 C23 1.369 . S
C22 H31 0.929 . S
C23 N20 1.346 1_556 S
C23 C22 1.369 . S
C23 H26 0.928 . S
C24 N20 1.345 . S
C24 C25 1.371 . S
C24 H27 0.931 . S
C25 C21 1.391 . S
C25 C24 1.371 . S
C25 H32 0.930 . S
H26 C23 0.928 . S
H27 C24 0.931 . S
H28 C4 0.930 . S
H29 C1 0.930 . S
H30 C10 0.930 . S
H31 C22 0.929 . S
H32 C25 0.930 . S
C33 C34 1.351 . S
C33 N36 1.368 . S
C33 H38 0.931 . S
C34 C33 1.351 . S
C34 N35 1.373 . S
C34 H62 0.930 . S
N35 C34 1.373 . S
N35 C37 1.340 . S
N36 C33 1.368 . S
N36 C37 1.321 . S
N36 Co39 2.135 . S
C37 N35 1.340 . S
C37 N36 1.321 . S
C37 H61 0.930 . S
H38 C33 0.931 . S
Co39 N36 2.135 . S
Co39 N42 2.121 . S
Co39 O47 2.055 . S
Co39 O50 2.039 . S
Co39 N53 2.140 . S
C40 O41 1.227 . S
C40 O50 1.265 . S
O41 C40 1.227 . S
N42 Co39 2.121 . S
N42 C44 1.375 . S
N42 C45 1.313 . S
C43 C44 1.338 . S
C43 N46 1.377 . S
C43 H63 0.930 . S
C44 N42 1.375 . S
C44 C43 1.338 . S
C44 H48 0.931 . S
C45 N42 1.313 . S
C45 N46 1.344 . S
C45 H49 0.930 . S
N46 C43 1.377 . S
N46 C45 1.344 . S
O47 Co39 2.055 . S
O47 C51 1.253 . S
H48 C44 0.931 . S
H49 C45 0.930 . S
O50 Co39 2.039 . S
O50 C40 1.265 . S
C51 O47 1.253 . S
C51 O52 1.227 . S
O52 C51 1.227 . S
N53 Co39 2.140 . S
N53 C56 1.346 . S
N53 C57 1.345 . S
C54 C55 1.387 . S
C54 C58 1.391 . S
C55 C54 1.387 . S
C55 C56 1.369 . S
C55 H64 0.929 . S
C56 N53 1.346 . S
C56 C55 1.369 . S
C56 H59 0.928 . S
C57 N53 1.345 . S
C57 C58 1.371 . S
C57 H60 0.931 . S
C58 C54 1.391 . S
C58 C57 1.371 . S
C58 H65 0.930 . S
H59 C56 0.928 . S
H60 C57 0.931 . S
H61 C37 0.930 . S
H62 C34 0.930 . S
H63 C43 0.930 . S
H64 C55 0.929 . S
H65 C58 0.930 . S
C66 C67 1.351 . S
C66 N69 1.368 . S
C66 H71 0.931 . S
C67 C66 1.351 . S
C67 N68 1.373 . S
C67 H95 0.930 . S
N68 C67 1.373 . S
N68 C70 1.340 . S
N69 C66 1.368 . S
N69 C70 1.321 . S
N69 Co72 2.135 1_556 S
C70 N68 1.340 . S
C70 N69 1.321 . S
C70 H94 0.930 . S
H71 C66 0.931 . S
Co72 N69 2.135 1_554 S
Co72 N75 2.121 . S
Co72 O80 2.055 . S
Co72 O83 2.039 . S
Co72 N86 2.140 . S
C73 O74 1.227 . S
C73 O83 1.265 . S
O74 C73 1.227 . S
N75 Co72 2.121 . S
N75 C77 1.375 . S
N75 C78 1.313 . S
C76 C77 1.338 . S
C76 N79 1.377 . S
C76 H96 0.930 . S
C77 N75 1.375 . S
C77 C76 1.338 . S
C77 H81 0.931 . S
C78 N75 1.313 . S
C78 N79 1.344 . S
C78 H82 0.930 . S
N79 C76 1.377 . S
N79 C78 1.344 . S
O80 Co72 2.055 . S
O80 C84 1.253 . S
H81 C77 0.931 . S
H82 C78 0.930 . S
O83 Co72 2.039 . S
O83 C73 1.265 . S
C84 O80 1.253 . S
C84 O85 1.227 . S
O85 C84 1.227 . S
N86 Co72 2.140 . S
N86 C89 1.346 1_554 S
N86 C90 1.345 . S
C87 C88 1.387 1_554 S
C87 C91 1.391 . S
C88 C87 1.387 1_556 S
C88 C89 1.369 . S
C88 H97 0.929 . S
C89 N86 1.346 1_556 S
C89 C88 1.369 . S
C89 H92 0.928 . S
C90 N86 1.345 . S
C90 C91 1.371 . S
C90 H93 0.931 . S
C91 C87 1.391 . S
C91 C90 1.371 . S
C91 H98 0.930 . S
H92 C89 0.928 . S
H93 C90 0.931 . S
H94 C70 0.930 . S
H95 C67 0.930 . S
H96 C76 0.930 . S
H97 C88 0.929 . S
H98 C91 0.930 . S
C99 C100 1.351 . S
C99 N102 1.368 . S
C99 H104 0.931 . S
C100 C99 1.351 . S
C100 N101 1.373 . S
C100 H128 0.930 . S
N101 C100 1.373 . S
N101 C103 1.340 . S
N102 C99 1.368 . S
N102 C103 1.321 . S
N102 Co105 2.135 . S
C103 N101 1.340 . S
C103 N102 1.321 . S
C103 H127 0.930 . S
H104 C99 0.931 . S
Co105 N102 2.135 . S
Co105 N108 2.121 . S
Co105 O113 2.055 . S
Co105 O116 2.039 . S
Co105 N119 2.140 . S
C106 O107 1.227 . S
C106 O116 1.265 . S
O107 C106 1.227 . S
N108 Co105 2.121 . S
N108 C110 1.375 . S
N108 C111 1.313 . S
C109 C110 1.338 . S
C109 N112 1.377 . S
C109 H129 0.930 . S
C110 N108 1.375 . S
C110 C109 1.338 . S
C110 H114 0.931 . S
C111 N108 1.313 . S
C111 N112 1.344 . S
C111 H115 0.930 . S
N112 C109 1.377 . S
N112 C111 1.344 . S
O113 Co105 2.055 . S
O113 C117 1.253 . S
H114 C110 0.931 . S
H115 C111 0.930 . S
O116 Co105 2.039 . S
O116 C106 1.265 . S
C117 O113 1.253 . S
C117 O118 1.227 . S
O118 C117 1.227 . S
N119 Co105 2.140 . S
N119 C122 1.346 . S
N119 C123 1.345 . S
C120 C121 1.387 . S
C120 C124 1.391 . S
C121 C120 1.387 . S
C121 C122 1.369 . S
C121 H130 0.929 . S
C122 N119 1.346 . S
C122 C121 1.369 . S
C122 H125 0.928 . S
C123 N119 1.345 . S
C123 C124 1.371 . S
C123 H126 0.931 . S
C124 C120 1.391 . S
C124 C123 1.371 . S
C124 H131 0.930 . S
H125 C122 0.928 . S
H126 C123 0.931 . S
H127 C103 0.930 . S
H128 C100 0.930 . S
H129 C109 0.930 . S
H130 C121 0.929 . S
H131 C124 0.930 . S
C132 C133 1.351 . S
C132 N135 1.368 . S
C132 H137 0.931 . S
C133 C132 1.351 . S
C133 N134 1.373 . S
C133 H161 0.930 . S
N134 C133 1.373 . S
N134 C136 1.340 . S
N135 C132 1.368 . S
N135 C136 1.321 . S
N135 Co138 2.135 . S
C136 N134 1.340 . S
C136 N135 1.321 . S
C136 H160 0.930 . S
H137 C132 0.931 . S
Co138 N135 2.135 . S
Co138 N141 2.121 1_554 S
Co138 O146 2.055 . S
Co138 O149 2.039 . S
Co138 N152 2.140 . S
C139 O140 1.227 . S
C139 O149 1.265 . S
O140 C139 1.227 . S
N141 Co138 2.121 1_556 S
N141 C143 1.375 . S
N141 C144 1.313 . S
C142 C143 1.338 . S
C142 N145 1.377 . S
C142 H162 0.930 . S
C143 N141 1.375 . S
C143 C142 1.338 . S
C143 H147 0.931 . S
C144 N141 1.313 . S
C144 N145 1.344 . S
C144 H148 0.930 . S
N145 C142 1.377 . S
N145 C144 1.344 . S
O146 Co138 2.055 . S
O146 C150 1.253 . S
H147 C143 0.931 . S
H148 C144 0.930 . S
O149 Co138 2.039 . S
O149 C139 1.265 . S
C150 O146 1.253 . S
C150 O151 1.227 . S
O151 C150 1.227 . S
N152 Co138 2.140 . S
N152 C155 1.346 1_545 S
N152 C156 1.345 . S
C153 C154 1.387 . S
C153 C157 1.391 . S
C154 C153 1.387 . S
C154 C155 1.369 . S
C154 H163 0.929 . S
C155 N152 1.346 1_565 S
C155 C154 1.369 . S
C155 H158 0.928 . S
C156 N152 1.345 . S
C156 C157 1.371 1_545 S
C156 H159 0.931 1_554 S
C157 C153 1.391 . S
C157 C156 1.371 1_565 S
C157 H164 0.930 1_554 S
H158 C155 0.928 . S
H159 C156 0.931 1_556 S
H160 C136 0.930 . S
H161 C133 0.930 . S
H162 C142 0.930 . S
H163 C154 0.929 . S
H164 C157 0.930 1_556 S
C165 C166 1.351 . S
C165 N168 1.368 . S
C165 H170 0.931 . S
C166 C165 1.351 . S
C166 N167 1.373 . S
C166 H194 0.930 . S
N167 C166 1.373 . S
N167 C169 1.340 . S
N168 C165 1.368 . S
N168 C169 1.321 . S
N168 Co171 2.135 . S
C169 N167 1.340 . S
C169 N168 1.321 . S
C169 H193 0.930 . S
H170 C165 0.931 . S
Co171 N168 2.135 . S
Co171 N174 2.121 . S
Co171 O179 2.055 . S
Co171 O182 2.039 . S
Co171 N185 2.140 . S
C172 O173 1.227 . S
C172 O182 1.265 . S
O173 C172 1.227 . S
N174 Co171 2.121 . S
N174 C176 1.375 . S
N174 C177 1.313 . S
C175 C176 1.338 . S
C175 N178 1.377 . S
C175 H195 0.930 . S
C176 N174 1.375 . S
C176 C175 1.338 . S
C176 H180 0.931 . S
C177 N174 1.313 . S
C177 N178 1.344 . S
C177 H181 0.930 . S
N178 C175 1.377 . S
N178 C177 1.344 . S
O179 Co171 2.055 . S
O179 C183 1.253 . S
H180 C176 0.931 . S
H181 C177 0.930 . S
O182 Co171 2.039 . S
O182 C172 1.265 . S
C183 O179 1.253 . S
C183 O184 1.227 . S
O184 C183 1.227 . S
N185 Co171 2.140 . S
N185 C188 1.346 1_655 S
N185 C189 1.345 . S
C186 C187 1.387 . S
C186 C190 1.391 . S
C187 C186 1.387 . S
C187 C188 1.369 . S
C187 H196 0.929 . S
C188 N185 1.346 1_455 S
C188 C187 1.369 . S
C188 H191 0.928 . S
C189 N185 1.345 . S
C189 C190 1.371 1_655 S
C189 H192 0.931 . S
C190 C186 1.391 . S
C190 C189 1.371 1_455 S
C190 H197 0.930 . S
H191 C188 0.928 . S
H192 C189 0.931 . S
H193 C169 0.930 . S
H194 C166 0.930 . S
H195 C175 0.930 . S
H196 C187 0.929 . S
H197 C190 0.930 . S
C198 C199 1.351 . S
C198 N201 1.368 . S
C198 H203 0.931 . S
C199 C198 1.351 . S
C199 N200 1.373 . S
C199 H227 0.930 . S
N200 C199 1.373 . S
N200 C202 1.340 . S
N201 C198 1.368 . S
N201 C202 1.321 . S
N201 Co204 2.135 . S
C202 N200 1.340 . S
C202 N201 1.321 . S
C202 H226 0.930 . S
H203 C198 0.931 . S
Co204 N201 2.135 . S
Co204 N207 2.121 1_554 S
Co204 O212 2.055 . S
Co204 O215 2.039 . S
Co204 N218 2.140 . S
C205 O206 1.227 . S
C205 O215 1.265 . S
O206 C205 1.227 . S
N207 Co204 2.121 1_556 S
N207 C209 1.375 . S
N207 C210 1.313 . S
C208 C209 1.338 . S
C208 N211 1.377 . S
C208 H228 0.930 . S
C209 N207 1.375 . S
C209 C208 1.338 . S
C209 H213 0.931 . S
C210 N207 1.313 . S
C210 N211 1.344 . S
C210 H214 0.930 . S
N211 C208 1.377 . S
N211 C210 1.344 . S
O212 Co204 2.055 . S
O212 C216 1.253 . S
H213 C209 0.931 . S
H214 C210 0.930 . S
O215 Co204 2.039 . S
O215 C205 1.265 . S
C216 O212 1.253 . S
C216 O217 1.227 . S
O217 C216 1.227 . S
N218 Co204 2.140 . S
N218 C221 1.346 1_565 S
N218 C222 1.345 . S
C219 C220 1.387 . S
C219 C223 1.391 . S
C220 C219 1.387 . S
C220 C221 1.369 . S
C220 H229 0.929 . S
C221 N218 1.346 1_545 S
C221 C220 1.369 . S
C221 H224 0.928 . S
C222 N218 1.345 . S
C222 C223 1.371 1_565 S
C222 H225 0.931 1_554 S
C223 C219 1.391 . S
C223 C222 1.371 1_545 S
C223 H230 0.930 1_554 S
H224 C221 0.928 . S
H225 C222 0.931 1_556 S
H226 C202 0.930 . S
H227 C199 0.930 . S
H228 C208 0.930 . S
H229 C220 0.929 . S
H230 C223 0.930 1_556 S
C231 C232 1.351 . S
C231 N234 1.368 . S
C231 H236 0.931 . S
C232 C231 1.351 . S
C232 N233 1.373 . S
C232 H260 0.930 . S
N233 C232 1.373 . S
N233 C235 1.340 . S
N234 C231 1.368 . S
N234 C235 1.321 . S
N234 Co237 2.135 . S
C235 N233 1.340 . S
C235 N234 1.321 . S
C235 H259 0.930 . S
H236 C231 0.931 . S
Co237 N234 2.135 . S
Co237 N240 2.121 . S
Co237 O245 2.055 . S
Co237 O248 2.039 . S
Co237 N251 2.140 . S
C238 O239 1.227 . S
C238 O248 1.265 . S
O239 C238 1.227 . S
N240 Co237 2.121 . S
N240 C242 1.375 . S
N240 C243 1.313 . S
C241 C242 1.338 . S
C241 N244 1.377 . S
C241 H261 0.930 . S
C242 N240 1.375 . S
C242 C241 1.338 . S
C242 H246 0.931 . S
C243 N240 1.313 . S
C243 N244 1.344 . S
C243 H247 0.930 . S
N244 C241 1.377 . S
N244 C243 1.344 . S
O245 Co237 2.055 . S
O245 C249 1.253 . S
H246 C242 0.931 . S
H247 C243 0.930 . S
O248 Co237 2.039 . S
O248 C238 1.265 . S
C249 O245 1.253 . S
C249 O250 1.227 . S
O250 C249 1.227 . S
N251 Co237 2.140 . S
N251 C254 1.346 1_455 S
N251 C255 1.345 . S
C252 C253 1.387 . S
C252 C256 1.391 . S
C253 C252 1.387 . S
C253 C254 1.369 . S
C253 H262 0.929 . S
C254 N251 1.346 1_655 S
C254 C253 1.369 . S
C254 H257 0.928 . S
C255 N251 1.345 . S
C255 C256 1.371 1_455 S
C255 H258 0.931 . S
C256 C252 1.391 . S
C256 C255 1.371 1_655 S
C256 H263 0.930 . S
H257 C254 0.928 . S
H258 C255 0.931 . S
H259 C235 0.930 . S
H260 C232 0.930 . S
H261 C241 0.930 . S
H262 C253 0.929 . S
H263 C256 0.930 . S
C264 C265 1.363 . S
C264 C270 1.379 . S
C264 N272 1.356 1_554 S
C265 C264 1.363 . S
C265 C271 1.363 . S
C266 C267 1.363 . S
C266 C271 1.379 . S
C266 N273 1.356 . S
C267 C266 1.363 . S
C267 C270 1.363 . S
N268 C270 1.356 1_556 S
N268 H280 0.984 . S
N268 H281 0.985 . S
N269 C271 1.356 . S
N269 H274 0.984 . S
N269 H275 0.985 . S
C270 C264 1.379 . S
C270 C267 1.363 . S
C270 N268 1.356 1_554 S
C271 C265 1.363 . S
C271 C266 1.379 . S
C271 N269 1.356 . S
N272 C264 1.356 1_556 S
N272 H278 0.984 . S
N272 H279 0.984 . S
N273 C266 1.356 . S
N273 H276 0.984 . S
N273 H277 0.985 . S
H274 N269 0.984 . S
H275 N269 0.985 . S
H276 N273 0.984 . S
H277 N273 0.985 . S
H278 N272 0.984 . S
H279 N272 0.984 . S
H280 N268 0.984 . S
H281 N268 0.985 . S
C282 C283 1.363 . S
C282 C288 1.379 . S
C282 N290 1.356 . S
C283 C282 1.363 . S
C283 C289 1.363 . S
C284 C285 1.363 . S
C284 C289 1.379 . S
C284 N291 1.356 . S
C285 C284 1.363 . S
C285 C288 1.363 . S
N286 C288 1.356 . S
N286 H298 0.984 . S
N286 H299 0.985 . S
N287 C289 1.356 . S
N287 H292 0.984 . S
N287 H293 0.985 . S
C288 C282 1.379 . S
C288 C285 1.363 . S
C288 N286 1.356 . S
C289 C283 1.363 . S
C289 C284 1.379 . S
C289 N287 1.356 . S
N290 C282 1.356 . S
N290 H296 0.984 . S
N290 H297 0.984 . S
N291 C284 1.356 . S
N291 H294 0.984 . S
N291 H295 0.985 . S
H292 N287 0.984 . S
H293 N287 0.985 . S
H294 N291 0.984 . S
H295 N291 0.985 . S
H296 N290 0.984 . S
H297 N290 0.984 . S
H298 N286 0.984 . S
H299 N286 0.985 . S
C300 C301 1.363 . S
C300 C306 1.379 . S
C300 N308 1.356 1_554 S
C301 C300 1.363 . S
C301 C307 1.363 . S
C302 C303 1.363 . S
C302 C307 1.379 . S
C302 N309 1.356 . S
C303 C302 1.363 . S
C303 C306 1.363 . S
N304 C306 1.356 1_556 S
N304 H316 0.984 . S
N304 H317 0.985 . S
N305 C307 1.356 . S
N305 H310 0.984 . S
N305 H311 0.985 . S
C306 C300 1.379 . S
C306 C303 1.363 . S
C306 N304 1.356 1_554 S
C307 C301 1.363 . S
C307 C302 1.379 . S
C307 N305 1.356 . S
N308 C300 1.356 1_556 S
N308 H314 0.984 . S
N308 H315 0.984 . S
N309 C302 1.356 . S
N309 H312 0.984 . S
N309 H313 0.985 . S
H310 N305 0.984 . S
H311 N305 0.985 . S
H312 N309 0.984 . S
H313 N309 0.985 . S
H314 N308 0.984 . S
H315 N308 0.984 . S
H316 N304 0.984 . S
H317 N304 0.985 . S
C318 C319 1.363 . S
C318 C324 1.379 . S
C318 N326 1.356 . S
C319 C318 1.363 . S
C319 C325 1.363 . S
C320 C321 1.363 . S
C320 C325 1.379 . S
C320 N327 1.356 . S
C321 C320 1.363 . S
C321 C324 1.363 . S
N322 C324 1.356 . S
N322 H334 0.984 . S
N322 H335 0.985 . S
N323 C325 1.356 . S
N323 H328 0.984 . S
N323 H329 0.985 . S
C324 C318 1.379 . S
C324 C321 1.363 . S
C324 N322 1.356 . S
C325 C319 1.363 . S
C325 C320 1.379 . S
C325 N323 1.356 . S
N326 C318 1.356 . S
N326 H332 0.984 . S
N326 H333 0.984 . S
N327 C320 1.356 . S
N327 H330 0.984 . S
N327 H331 0.985 . S
H328 N323 0.984 . S
H329 N323 0.985 . S
H330 N327 0.984 . S
H331 N327 0.985 . S
H332 N326 0.984 . S
H333 N326 0.984 . S
H334 N322 0.984 . S
H335 N322 0.985 . S
C336 C337 1.363 . S
C336 C342 1.379 . S
C336 N344 1.356 . S
C337 C336 1.363 . S
C337 C343 1.363 1_554 S
C338 C339 1.363 1_556 S
C338 C343 1.379 . S
C338 N345 1.356 . S
C339 C338 1.363 1_554 S
C339 C342 1.363 . S
N340 C342 1.356 . S
N340 H352 0.984 . S
N340 H353 0.985 . S
N341 C343 1.356 . S
N341 H346 0.984 . S
N341 H347 0.985 . S
C342 C336 1.379 . S
C342 C339 1.363 . S
C342 N340 1.356 . S
C343 C337 1.363 1_556 S
C343 C338 1.379 . S
C343 N341 1.356 . S
N344 C336 1.356 . S
N344 H350 0.984 . S
N344 H351 0.984 . S
N345 C338 1.356 . S
N345 H348 0.984 . S
N345 H349 0.985 . S
H346 N341 0.984 . S
H347 N341 0.985 . S
H348 N345 0.984 . S
H349 N345 0.985 . S
H350 N344 0.984 . S
H351 N344 0.984 . S
H352 N340 0.984 . S
H353 N340 0.985 . S
C354 C355 1.363 . S
C354 C360 1.379 . S
C354 N362 1.356 . S
C355 C354 1.363 . S
C355 C361 1.363 . S
C356 C357 1.363 . S
C356 C361 1.379 . S
C356 N363 1.356 . S
C357 C356 1.363 . S
C357 C360 1.363 . S
N358 C360 1.356 . S
N358 H370 0.984 . S
N358 H371 0.985 . S
N359 C361 1.356 . S
N359 H364 0.984 . S
N359 H365 0.985 . S
C360 C354 1.379 . S
C360 C357 1.363 . S
C360 N358 1.356 . S
C361 C355 1.363 . S
C361 C356 1.379 . S
C361 N359 1.356 . S
N362 C354 1.356 . S
N362 H368 0.984 . S
N362 H369 0.984 . S
N363 C356 1.356 . S
N363 H366 0.984 . S
N363 H367 0.985 . S
H364 N359 0.984 . S
H365 N359 0.985 . S
H366 N363 0.984 . S
H367 N363 0.985 . S
H368 N362 0.984 . S
H369 N362 0.984 . S
H370 N358 0.984 . S
H371 N358 0.985 . S
C372 C373 1.363 1_556 S
C372 C378 1.379 . S
C372 N380 1.356 . S
C373 C372 1.363 1_554 S
C373 C379 1.363 . S
C374 C375 1.363 . S
C374 C379 1.379 . S
C374 N381 1.356 . S
C375 C374 1.363 . S
C375 C378 1.363 1_554 S
N376 C378 1.356 . S
N376 H388 0.984 . S
N376 H389 0.985 . S
N377 C379 1.356 . S
N377 H382 0.984 . S
N377 H383 0.985 . S
C378 C372 1.379 . S
C378 C375 1.363 1_556 S
C378 N376 1.356 . S
C379 C373 1.363 . S
C379 C374 1.379 . S
C379 N377 1.356 . S
N380 C372 1.356 . S
N380 H386 0.984 . S
N380 H387 0.984 . S
N381 C374 1.356 . S
N381 H384 0.984 . S
N381 H385 0.985 . S
H382 N377 0.984 . S
H383 N377 0.985 . S
H384 N381 0.984 . S
H385 N381 0.985 . S
H386 N380 0.984 . S
H387 N380 0.984 . S
H388 N376 0.984 . S
H389 N376 0.985 . S
C390 C391 1.363 . S
C390 C396 1.379 . S
C390 N398 1.356 . S
C391 C390 1.363 . S
C391 C397 1.363 . S
C392 C393 1.363 . S
C392 C397 1.379 . S
C392 N399 1.356 . S
C393 C392 1.363 . S
C393 C396 1.363 . S
N394 C396 1.356 . S
N394 H406 0.984 . S
N394 H407 0.985 . S
N395 C397 1.356 . S
N395 H400 0.984 . S
N395 H401 0.985 . S
C396 C390 1.379 . S
C396 C393 1.363 . S
C396 N394 1.356 . S
C397 C391 1.363 . S
C397 C392 1.379 . S
C397 N395 1.356 . S
N398 C390 1.356 . S
N398 H404 0.984 . S
N398 H405 0.984 . S
N399 C392 1.356 . S
N399 H402 0.984 . S
N399 H403 0.985 . S
H400 N395 0.984 . S
H401 N395 0.985 . S
H402 N399 0.984 . S
H403 N399 0.985 . S
H404 N398 0.984 . S
H405 N398 0.984 . S
H406 N394 0.984 . S
H407 N394 0.985 . S
C408 C409 1.363 1_556 S
C408 C414 1.379 . S
C408 N416 1.356 . S
C409 C408 1.363 1_554 S
C409 C415 1.363 1_455 S
C410 C411 1.363 . S
C410 C415 1.379 . S
C410 N417 1.356 . S
C411 C410 1.363 . S
C411 C414 1.363 1_654 S
N412 C414 1.356 . S
N412 H424 0.984 . S
N412 H425 0.985 . S
N413 C415 1.356 . S
N413 H418 0.984 . S
N413 H419 0.985 . S
C414 C408 1.379 . S
C414 C411 1.363 1_456 S
C414 N412 1.356 . S
C415 C409 1.363 1_655 S
C415 C410 1.379 . S
C415 N413 1.356 . S
N416 C408 1.356 . S
N416 H422 0.984 . S
N416 H423 0.984 . S
N417 C410 1.356 . S
N417 H420 0.984 . S
N417 H421 0.985 . S
H418 N413 0.984 . S
H419 N413 0.985 . S
H420 N417 0.984 . S
H421 N417 0.985 . S
H422 N416 0.984 . S
H423 N416 0.984 . S
H424 N412 0.984 . S
H425 N412 0.985 . S
C426 C427 1.363 1_545 S
C426 C432 1.379 . S
C426 N434 1.356 . S
C427 C426 1.363 1_565 S
C427 C433 1.363 . S
C428 C429 1.363 1_565 S
C428 C433 1.379 . S
C428 N435 1.356 . S
C429 C428 1.363 1_545 S
C429 C432 1.363 . S
N430 C432 1.356 . S
N430 H442 0.984 . S
N430 H443 0.985 . S
N431 C433 1.356 . S
N431 H436 0.984 . S
N431 H437 0.985 . S
C432 C426 1.379 . S
C432 C429 1.363 . S
C432 N430 1.356 . S
C433 C427 1.363 . S
C433 C428 1.379 . S
C433 N431 1.356 . S
N434 C426 1.356 . S
N434 H440 0.984 . S
N434 H441 0.984 . S
N435 C428 1.356 . S
N435 H438 0.984 . S
N435 H439 0.985 . S
H436 N431 0.984 . S
H437 N431 0.985 . S
H438 N435 0.984 . S
H439 N435 0.985 . S
H440 N434 0.984 . S
H441 N434 0.984 . S
H442 N430 0.984 . S
H443 N430 0.985 . S
C444 C445 1.363 . S
C444 C450 1.379 1_565 S
C444 N452 1.356 . S
C445 C444 1.363 . S
C445 C451 1.363 . S
C446 C447 1.363 . S
C446 C451 1.379 1_545 S
C446 N453 1.356 1_554 S
C447 C446 1.363 . S
C447 C450 1.363 . S
N448 C450 1.356 . S
N448 H460 0.984 . S
N448 H461 0.985 . S
N449 C451 1.356 1_556 S
N449 H454 0.989 . S
N449 H455 0.985 . S
C450 C444 1.379 1_545 S
C450 C447 1.363 . S
C450 N448 1.356 . S
C451 C445 1.363 . S
C451 C446 1.379 1_565 S
C451 N449 1.356 1_554 S
N452 C444 1.356 . S
N452 H458 0.984 . S
N452 H459 0.984 . S
N453 C446 1.356 1_556 S
N453 H456 0.989 . S
N453 H457 0.985 . S
H454 N449 0.989 . S
H455 N449 0.985 . S
H456 N453 0.989 . S
H457 N453 0.985 . S
H458 N452 0.984 . S
H459 N452 0.984 . S
H460 N448 0.984 . S
H461 N448 0.985 . S
C462 C463 1.363 . S
C462 C468 1.379 1_655 S
C462 N470 1.356 . S
C463 C462 1.363 . S
C463 C469 1.363 . S
C464 C465 1.363 . S
C464 C469 1.379 1_455 S
C464 N471 1.356 . S
C465 C464 1.363 . S
C465 C468 1.363 . S
N466 C468 1.356 . S
N466 H478 0.984 . S
N466 H479 0.985 . S
N467 C469 1.356 . S
N467 H472 0.984 . S
N467 H473 0.985 . S
C468 C462 1.379 1_455 S
C468 C465 1.363 . S
C468 N466 1.356 . S
C469 C463 1.363 . S
C469 C464 1.379 1_655 S
C469 N467 1.356 . S
N470 C462 1.356 . S
N470 H476 0.984 . S
N470 H477 0.984 . S
N471 C464 1.356 . S
N471 H474 0.984 . S
N471 H475 0.985 . S
H472 N467 0.984 . S
H473 N467 0.985 . S
H474 N471 0.984 . S
H475 N471 0.985 . S
H476 N470 0.984 . S
H477 N470 0.984 . S
H478 N466 0.984 . S
H479 N466 0.985 . S
C480 C481 1.363 . S
C480 C486 1.379 . S
C480 N488 1.356 . S
C481 C480 1.363 . S
C481 C487 1.363 . S
C482 C483 1.363 . S
C482 C487 1.379 . S
C482 N489 1.356 . S
C483 C482 1.363 . S
C483 C486 1.363 . S
N484 C486 1.356 . S
N484 H496 0.984 . S
N484 H497 0.985 . S
N485 C487 1.356 . S
N485 H490 0.984 . S
N485 H491 0.985 . S
C486 C480 1.379 . S
C486 C483 1.363 . S
C486 N484 1.356 . S
C487 C481 1.363 . S
C487 C482 1.379 . S
C487 N485 1.356 . S
N488 C480 1.356 . S
N488 H494 0.984 . S
N488 H495 0.984 . S
N489 C482 1.356 . S
N489 H492 0.984 . S
N489 H493 0.985 . S
H490 N485 0.984 . S
H491 N485 0.985 . S
H492 N489 0.984 . S
H493 N489 0.985 . S
H494 N488 0.984 . S
H495 N488 0.984 . S
H496 N484 0.984 . S
H497 N484 0.985 . S
C498 C499 1.363 . S
C498 C504 1.379 . S
C498 N506 1.356 . S
C499 C498 1.363 . S
C499 C505 1.363 . S
C500 C501 1.363 . S
C500 C505 1.379 . S
C500 N507 1.356 . S
C501 C500 1.363 . S
C501 C504 1.363 . S
N502 C504 1.356 . S
N502 H514 0.984 . S
N502 H515 0.985 . S
N503 C505 1.356 . S
N503 H508 0.984 . S
N503 H509 0.985 . S
C504 C498 1.379 . S
C504 C501 1.363 . S
C504 N502 1.356 . S
C505 C499 1.363 . S
C505 C500 1.379 . S
C505 N503 1.356 . S
N506 C498 1.356 . S
N506 H512 0.984 . S
N506 H513 0.984 . S
N507 C500 1.356 . S
N507 H510 0.984 . S
N507 H511 0.985 . S
H508 N503 0.984 . S
H509 N503 0.985 . S
H510 N507 0.984 . S
H511 N507 0.985 . S
H512 N506 0.984 . S
H513 N506 0.984 . S
H514 N502 0.984 . S
H515 N502 0.985 . S
C516 C517 1.363 . S
C516 C522 1.379 . S
C516 N524 1.356 . S
C517 C516 1.363 . S
C517 C523 1.363 . S
C518 C519 1.363 . S
C518 C523 1.379 . S
C518 N525 1.356 . S
C519 C518 1.363 . S
C519 C522 1.363 . S
N520 C522 1.356 . S
N520 H532 0.984 . S
N520 H533 0.985 . S
N521 C523 1.356 . S
N521 H526 0.984 . S
N521 H527 0.985 . S
C522 C516 1.379 . S
C522 C519 1.363 . S
C522 N520 1.356 . S
C523 C517 1.363 . S
C523 C518 1.379 . S
C523 N521 1.356 . S
N524 C516 1.356 . S
N524 H530 0.984 . S
N524 H531 0.984 . S
N525 C518 1.356 . S
N525 H528 0.984 . S
N525 H529 0.985 . S
H526 N521 0.984 . S
H527 N521 0.985 . S
H528 N525 0.984 . S
H529 N525 0.985 . S
H530 N524 0.984 . S
H531 N524 0.984 . S
H532 N520 0.984 . S
H533 N520 0.985 . S
C534 C535 1.363 . S
C534 C540 1.379 . S
C534 N542 1.356 . S
C535 C534 1.363 . S
C535 C541 1.363 . S
C536 C537 1.363 . S
C536 C541 1.379 . S
C536 N543 1.356 . S
C537 C536 1.363 . S
C537 C540 1.363 . S
N538 C540 1.356 . S
N538 H550 0.984 . S
N538 H551 0.985 . S
N539 C541 1.356 . S
N539 H544 0.984 . S
N539 H545 0.985 . S
C540 C534 1.379 . S
C540 C537 1.363 . S
C540 N538 1.356 . S
C541 C535 1.363 . S
C541 C536 1.379 . S
C541 N539 1.356 . S
N542 C534 1.356 . S
N542 H548 0.984 . S
N542 H549 0.984 . S
N543 C536 1.356 . S
N543 H546 0.984 . S
N543 H547 0.985 . S
H544 N539 0.984 . S
H545 N539 0.985 . S
H546 N543 0.984 . S
H547 N543 0.985 . S
H548 N542 0.984 . S
H549 N542 0.984 . S
H550 N538 0.984 . S
H551 N538 0.985 . S
C552 C553 1.363 . S
C552 C558 1.379 . S
C552 N560 1.356 . S
C553 C552 1.363 . S
C553 C559 1.363 . S
C554 C555 1.363 . S
C554 C559 1.379 . S
C554 N561 1.356 . S
C555 C554 1.363 . S
C555 C558 1.363 . S
N556 C558 1.356 . S
N556 H568 0.984 . S
N556 H569 0.985 . S
N557 C559 1.356 . S
N557 H562 0.984 . S
N557 H563 0.985 . S
C558 C552 1.379 . S
C558 C555 1.363 . S
C558 N556 1.356 . S
C559 C553 1.363 . S
C559 C554 1.379 . S
C559 N557 1.356 . S
N560 C552 1.356 . S
N560 H566 0.984 . S
N560 H567 0.984 . S
N561 C554 1.356 . S
N561 H564 0.984 . S
N561 H565 0.985 . S
H562 N557 0.984 . S
H563 N557 0.985 . S
H564 N561 0.984 . S
H565 N561 0.985 . S
H566 N560 0.984 . S
H567 N560 0.984 . S
H568 N556 0.984 . S
H569 N556 0.985 . S
C570 C571 1.363 . S
C570 C576 1.379 . S
C570 N578 1.356 . S
C571 C570 1.363 . S
C571 C577 1.363 . S
C572 C573 1.363 . S
C572 C577 1.379 . S
C572 N579 1.356 . S
C573 C572 1.363 . S
C573 C576 1.363 . S
N574 C576 1.356 . S
N574 H586 0.984 . S
N574 H587 0.985 . S
N575 C577 1.356 . S
N575 H580 0.984 . S
N575 H581 0.985 . S
C576 C570 1.379 . S
C576 C573 1.363 . S
C576 N574 1.356 . S
C577 C571 1.363 . S
C577 C572 1.379 . S
C577 N575 1.356 . S
N578 C570 1.356 . S
N578 H584 0.984 . S
N578 H585 0.984 . S
N579 C572 1.356 . S
N579 H582 0.984 . S
N579 H583 0.985 . S
H580 N575 0.984 . S
H581 N575 0.985 . S
H582 N579 0.984 . S
H583 N579 0.985 . S
H584 N578 0.984 . S
H585 N578 0.984 . S
H586 N574 0.984 . S
H587 N574 0.985 . S
C588 C589 1.363 . S
C588 C594 1.379 . S
C588 N596 1.356 . S
C589 C588 1.363 . S
C589 C595 1.363 . S
C590 C591 1.363 . S
C590 C595 1.379 . S
C590 N597 1.356 . S
C591 C590 1.363 . S
C591 C594 1.363 . S
N592 C594 1.356 . S
N592 H604 0.984 . S
N592 H605 0.985 . S
N593 C595 1.356 . S
N593 H598 0.984 . S
N593 H599 0.985 . S
C594 C588 1.379 . S
C594 C591 1.363 . S
C594 N592 1.356 . S
C595 C589 1.363 . S
C595 C590 1.379 . S
C595 N593 1.356 . S
N596 C588 1.356 . S
N596 H602 0.984 . S
N596 H603 0.984 . S
N597 C590 1.356 . S
N597 H600 0.984 . S
N597 H601 0.985 . S
H598 N593 0.984 . S
H599 N593 0.985 . S
H600 N597 0.984 . S
H601 N597 0.985 . S
H602 N596 0.984 . S
H603 N596 0.984 . S
H604 N592 0.984 . S
H605 N592 0.985 . S
C606 C607 1.363 . S
C606 C612 1.379 . S
C606 N614 1.356 . S
C607 C606 1.363 . S
C607 C613 1.363 . S
C608 C609 1.363 . S
C608 C613 1.379 . S
C608 N615 1.356 . S
C609 C608 1.363 . S
C609 C612 1.363 . S
N610 C612 1.356 . S
N610 H622 0.984 . S
N610 H623 0.985 . S
N611 C613 1.356 . S
N611 H616 0.984 . S
N611 H617 0.985 . S
C612 C606 1.379 . S
C612 C609 1.363 . S
C612 N610 1.356 . S
C613 C607 1.363 . S
C613 C608 1.379 . S
C613 N611 1.356 . S
N614 C606 1.356 . S
N614 H620 0.984 . S
N614 H621 0.984 . S
N615 C608 1.356 . S
N615 H618 0.984 . S
N615 H619 0.985 . S
H616 N611 0.984 . S
H617 N611 0.985 . S
H618 N615 0.984 . S
H619 N615 0.985 . S
H620 N614 0.984 . S
H621 N614 0.984 . S
H622 N610 0.984 . S
H623 N610 0.985 . S
C265 C219 1.584 . S
C267 C18 1.641 . S
C283 C252 1.583 . S
C285 C51 1.641 . S
C301 C153 1.584 . S
C303 C84 1.641 . S
C319 C186 1.583 . S
C321 C117 1.641 . S
C337 C87 1.584 . S
C339 C150 1.641 . S
C355 C120 1.584 . S
C357 C183 1.641 . S
C373 C21 1.584 . S
C375 C216 1.641 . S
C391 C249 1.641 . S
C393 C54 1.584 . S
C409 C7 0.689 . S
C411 C73 0.689 . S
C427 C106 0.689 . S
C429 C40 0.689 . S
C445 C205 0.689 . S
C447 C139 0.689 . S
C463 C172 0.689 . S
C465 C238 0.689 . S
C481 N13 1.722 . S
C483 N244 1.722 . S
C499 N145 1.722 . S
C501 N46 1.722 . S
C517 N178 1.722 . S
C519 N79 1.722 . S
C535 N211 1.722 . S
C537 N112 1.722 . S
C553 N68 1.453 . S
C555 N167 1.453 . S
C571 N101 1.453 . S
C573 N200 1.453 . S
C589 N233 1.453 . S
C591 N2 1.453 . S
C607 N134 1.453 . S
C609 N35 1.453 . S
