# Generated by pormake.
# Topology unp, (4)-cn, num edge types: 1
# Building blocks:
#     Node 0, Type 0, BuildingBlock: GALJAG_clean_sbu_0, # of connection points: 4
#     Node 1, Type 0, BuildingBlock: GALJAG_clean_sbu_0, # of connection points: 4
#     Node 2, Type 0, BuildingBlock: GALJAG_clean_sbu_0, # of connection points: 4
#     Node 3, Type 0, BuildingBlock: GALJAG_clean_sbu_0, # of connection points: 4
#     Node 4, Type 0, BuildingBlock: GALJAG_clean_sbu_0, # of connection points: 4
#     Node 5, Type 0, BuildingBlock: GALJAG_clean_sbu_0, # of connection points: 4
#     Node 6, Type 0, BuildingBlock: GALJAG_clean_sbu_0, # of connection points: 4
#     Node 7, Type 0, BuildingBlock: GALJAG_clean_sbu_0, # of connection points: 4
#     Node 8, Type 0, BuildingBlock: GALJAG_clean_sbu_0, # of connection points: 4
#     Node 9, Type 0, BuildingBlock: GALJAG_clean_sbu_0, # of connection points: 4
#     Node 10, Type 0, BuildingBlock: GALJAG_clean_sbu_0, # of connection points: 4
#     Node 11, Type 0, BuildingBlock: GALJAG_clean_sbu_0, # of connection points: 4
#     Node 12, Type 0, BuildingBlock: GALJAG_clean_sbu_0, # of connection points: 4
#     Node 13, Type 0, BuildingBlock: GALJAG_clean_sbu_0, # of connection points: 4
#     Node 14, Type 0, BuildingBlock: GALJAG_clean_sbu_0, # of connection points: 4
#     Node 15, Type 0, BuildingBlock: GALJAG_clean_sbu_0, # of connection points: 4
#     Node 16, Type 0, BuildingBlock: GALJAG_clean_sbu_0, # of connection points: 4
#     Node 17, Type 0, BuildingBlock: GALJAG_clean_sbu_0, # of connection points: 4
#     Edge 18, Type (0, 0), None
#     Edge 19, Type (0, 0), None
#     Edge 20, Type (0, 0), None
#     Edge 21, Type (0, 0), None
#     Edge 22, Type (0, 0), None
#     Edge 23, Type (0, 0), None
#     Edge 24, Type (0, 0), None
#     Edge 25, Type (0, 0), None
#     Edge 26, Type (0, 0), None
#     Edge 27, Type (0, 0), None
#     Edge 28, Type (0, 0), None
#     Edge 29, Type (0, 0), None
#     Edge 30, Type (0, 0), None
#     Edge 31, Type (0, 0), None
#     Edge 32, Type (0, 0), None
#     Edge 33, Type (0, 0), None
#     Edge 34, Type (0, 0), None
#     Edge 35, Type (0, 0), None
#     Edge 36, Type (0, 0), None
#     Edge 37, Type (0, 0), None
#     Edge 38, Type (0, 0), None
#     Edge 39, Type (0, 0), None
#     Edge 40, Type (0, 0), None
#     Edge 41, Type (0, 0), None
#     Edge 42, Type (0, 0), None
#     Edge 43, Type (0, 0), None
#     Edge 44, Type (0, 0), None
#     Edge 45, Type (0, 0), None
#     Edge 46, Type (0, 0), None
#     Edge 47, Type (0, 0), None
#     Edge 48, Type (0, 0), None
#     Edge 49, Type (0, 0), None
#     Edge 50, Type (0, 0), None
#     Edge 51, Type (0, 0), None
#     Edge 52, Type (0, 0), None
#     Edge 53, Type (0, 0), None
# Relax obj value: 0.396
# Max RMSD: 0.140
# Mean RMSD: 0.140
data_MOF--net-unp--node1-GALJAG_clean_sbu_0--edge1-none
_symmetry_space_group_name_H-M    P1
_symmetry_Int_Tables_number       1
_symmetry_cell_setting            triclinic
loop_
_symmetry_equiv_pos_as_xyz
'x, y, z'
_cell_length_a     22.613618
_cell_length_b     22.614207
_cell_length_c     20.005942
_cell_angle_alpha  89.99593
_cell_angle_beta   90.003887
_cell_angle_gamma 120.00024
loop_
_atom_site_label
_atom_site_type_symbol
_atom_site_fract_x
_atom_site_fract_y
_atom_site_fract_z
_atom_type_partial_charge
In0 In 0.15592 0.13614 0.13948 0.0
O1 O 0.25563 0.2136 0.09083 0.0
O2 O 0.25352 0.21085 0.19636 0.0
C3 C 0.05056 0.14786 0.18632 0.0
C4 C 0.11156 0.11103 0.01323 0.0
C5 C 0.1298 0.01129 0.18064 0.0
O6 O 0.07341 0.11463 0.21669 0.0
O7 O 0.08811 0.18402 0.139 0.0
O8 O 0.15702 0.03681 0.12517 0.0
O9 O 0.12094 0.05122 0.21777 0.0
C10 C 0.28822 0.236 0.14398 0.0
O11 O 0.14212 0.08308 0.03964 0.0
O12 O 0.10098 0.14918 0.05115 0.0
In13 In 0.85177 0.01945 0.13955 0.0
O14 O 0.77422 0.04162 0.09095 0.0
O15 O 0.77715 0.04244 0.19647 0.0
C16 C 0.84003 0.90234 0.18632 0.0
C17 C 0.87689 0.0003 0.01328 0.0
C18 C 0.9766 0.11812 0.18067 0.0
O19 O 0.87328 0.9584 0.21671 0.0
O20 O 0.80387 0.90376 0.13902 0.0
O21 O 0.9511 0.11987 0.1252 0.0
O22 O 0.93669 0.06935 0.21784 0.0
C23 C 0.75192 0.05192 0.1441 0.0
O24 O 0.90481 0.05878 0.03971 0.0
O25 O 0.83876 0.95154 0.05118 0.0
In26 In 0.96845 0.832 0.13944 0.0
O27 O 0.92924 0.84597 0.03963 0.0
O28 O 0.03644 0.88684 0.05109 0.0
C29 C 0.86977 0.85812 0.18062 0.0
C30 C 0.93597 0.69969 0.14388 0.0
C31 C 0.0855 0.93733 0.18623 0.0
O32 O 0.86803 0.83093 0.12512 0.0
O33 O 0.91852 0.86692 0.21779 0.0
O34 O 0.02945 0.91454 0.21664 0.0
O35 O 0.08415 0.8998 0.13893 0.0
C36 C 0.98773 0.87641 0.0132 0.0
O37 O 0.94604 0.73227 0.09074 0.0
O38 O 0.94564 0.7344 0.19627 0.0
In39 In 0.13225 0.15981 0.81513 0.0
O40 O 0.20974 0.25953 0.86377 0.0
O41 O 0.20693 0.25742 0.75824 0.0
C42 C 0.144 0.05447 0.7683 0.0
C43 C 0.10717 0.1155 0.94138 0.0
C44 C 0.00739 0.13366 0.774 0.0
O45 O 0.11077 0.07732 0.73792 0.0
O46 O 0.18014 0.09201 0.81563 0.0
O47 O 0.03291 0.16089 0.82946 0.0
O48 O 0.04732 0.12481 0.73686 0.0
C49 C 0.2321 0.29212 0.81062 0.0
O50 O 0.07919 0.14602 0.91498 0.0
O51 O 0.14532 0.10489 0.90347 0.0
In52 In 0.8281 0.9723 0.81518 0.0
O53 O 0.84192 0.93299 0.91499 0.0
O54 O 0.88301 0.04024 0.90354 0.0
C55 C 0.85421 0.87358 0.77397 0.0
C56 C 0.69579 0.93986 0.81071 0.0
C57 C 0.93343 0.08935 0.76841 0.0
O58 O 0.82701 0.87187 0.82946 0.0
O59 O 0.86304 0.92238 0.73685 0.0
O60 O 0.91064 0.03331 0.73799 0.0
O61 O 0.8959 0.08799 0.81573 0.0
C62 C 0.87242 0.99148 0.94142 0.0
O63 O 0.72838 0.94999 0.86385 0.0
O64 O 0.7305 0.94947 0.75833 0.0
In65 In 0.0156 0.85568 0.81507 0.0
O66 O 0.05503 0.90865 0.91492 0.0
O67 O 0.94773 0.84279 0.90344 0.0
C68 C 0.11426 0.98051 0.77395 0.0
C69 C 0.04803 0.75581 0.81047 0.0
C70 C 0.89852 0.84394 0.76834 0.0
O71 O 0.11603 0.95501 0.8294 0.0
O72 O 0.06549 0.9406 0.73678 0.0
O73 O 0.95455 0.87721 0.73791 0.0
O74 O 0.8999 0.80775 0.81564 0.0
C75 C -0.00345 0.88081 0.94135 0.0
O76 O 0.03766 0.77804 0.86363 0.0
O77 O 0.03863 0.78111 0.75812 0.0
In78 In 0.82264 0.46958 0.47277 0.0
O79 O 0.92236 0.54695 0.42408 0.0
O80 O 0.92025 0.54437 0.5296 0.0
C81 C 0.71727 0.4813 0.51957 0.0
C82 C 0.77825 0.44443 0.34653 0.0
C83 C 0.79654 0.34475 0.51399 0.0
O84 O 0.74012 0.44808 0.54996 0.0
O85 O 0.75483 0.51745 0.47225 0.0
O86 O 0.82374 0.37024 0.4585 0.0
O87 O 0.7877 0.38471 0.5511 0.0
C88 C 0.95495 0.56944 0.47721 0.0
O89 O 0.80874 0.41643 0.37296 0.0
O90 O 0.76776 0.48266 0.38442 0.0
In91 In 0.51848 0.35289 0.47282 0.0
O92 O 0.44107 0.37522 0.42416 0.0
O93 O 0.44378 0.3758 0.52969 0.0
C94 C 0.50675 0.23581 0.51967 0.0
C95 C 0.54354 0.33357 0.34658 0.0
C96 C 0.64331 0.45157 0.51392 0.0
O97 O 0.53999 0.29189 0.55003 0.0
O98 O 0.47058 0.2372 0.47236 0.0
O99 O 0.61782 0.4533 0.45844 0.0
O100 O 0.6034 0.40282 0.5511 0.0
C101 C 0.41866 0.38539 0.47731 0.0
O102 O 0.57159 0.39207 0.37298 0.0
O103 O 0.5053 0.28487 0.38449 0.0
In104 In 0.63517 0.16546 0.47288 0.0
O105 O 0.61302 0.06575 0.42428 0.0
O106 O 0.61221 0.06786 0.5298 0.0
C107 C 0.75224 0.2708 0.51962 0.0
C108 C 0.6543 0.20973 0.3466 0.0
C109 C 0.5365 0.1916 0.51401 0.0
O110 O 0.6962 0.24803 0.55004 0.0
O111 O 0.75087 0.23324 0.47234 0.0
O112 O 0.53474 0.16436 0.45854 0.0
O113 O 0.58526 0.20044 0.55118 0.0
C114 C 0.60273 0.03316 0.47744 0.0
O115 O 0.59581 0.17912 0.37303 0.0
O116 O 0.70308 0.22041 0.38451 0.0
In117 In 0.79897 0.49308 0.1484 0.0
O118 O 0.74595 0.47945 0.24825 0.0
O119 O 0.81191 0.43813 0.23678 0.0
C120 C 0.6741 0.46691 0.10725 0.0
C121 C 0.89879 0.62537 0.14383 0.0
C122 C 0.81072 0.38772 0.10165 0.0
O123 O 0.69963 0.49417 0.16271 0.0
O124 O 0.71403 0.45804 0.07013 0.0
O125 O 0.77748 0.41053 0.07124 0.0
O126 O 0.84688 0.4253 0.14895 0.0
C127 C 0.77385 0.44885 0.27467 0.0
O128 O 0.87656 0.59278 0.197 0.0
O129 O 0.87356 0.59068 0.09147 0.0
In130 In 0.49482 0.30556 0.14846 0.0
O131 O 0.50849 0.26622 0.24833 0.0
O132 O 0.54982 0.3735 0.2368 0.0
C133 C 0.52097 0.20685 0.10732 0.0
C134 C 0.36253 0.27311 0.14393 0.0
C135 C 0.60014 0.42261 0.10167 0.0
O136 O 0.49374 0.20514 0.16279 0.0
O137 O 0.52982 0.25564 0.07019 0.0
O138 O 0.57735 0.36656 0.07126 0.0
O139 O 0.56261 0.42126 0.14899 0.0
C140 C 0.53909 0.32472 0.27472 0.0
O141 O 0.39512 0.28338 0.19709 0.0
O142 O 0.39723 0.28264 0.09155 0.0
In143 In 0.68234 0.18895 0.14851 0.0
O144 O 0.72161 0.2421 0.24832 0.0
O145 O 0.61437 0.17586 0.23686 0.0
C146 C 0.781 0.31376 0.10734 0.0
C147 C 0.71484 0.08914 0.14406 0.0
C148 C 0.56528 0.17721 0.10173 0.0
O149 O 0.78276 0.2883 0.16282 0.0
O150 O 0.73224 0.27382 0.07017 0.0
O151 O 0.62132 0.21047 0.07132 0.0
O152 O 0.56664 0.14103 0.14905 0.0
C153 C 0.66312 0.21408 0.27474 0.0
O154 O 0.70469 0.11157 0.1972 0.0
O155 O 0.70519 0.1142 0.09166 0.0
In156 In 0.48919 0.80285 0.80621 0.0
O157 O 0.58888 0.88041 0.7576 0.0
O158 O 0.58679 0.87748 0.86313 0.0
C159 C 0.38381 0.81459 0.85297 0.0
C160 C 0.44491 0.7777 0.67994 0.0
C161 C 0.46305 0.678 0.84738 0.0
O162 O 0.40663 0.78134 0.88337 0.0
O163 O 0.42139 0.85075 0.80567 0.0
O164 O 0.49029 0.70352 0.79191 0.0
O165 O 0.45418 0.71793 0.8845 0.0
C166 C 0.62148 0.90268 0.81076 0.0
O167 O 0.47554 0.74984 0.70636 0.0
O168 O 0.43422 0.81578 0.71785 0.0
In169 In 0.18504 0.68619 0.8061 0.0
O170 O 0.10776 0.70865 0.75738 0.0
O171 O 0.11023 0.70899 0.86292 0.0
C172 C 0.1733 0.5691 0.85292 0.0
C173 C 0.21015 0.66687 0.67988 0.0
C174 C 0.30985 0.78486 0.84728 0.0
O175 O 0.20654 0.62517 0.8833 0.0
O176 O 0.13714 0.5705 0.80561 0.0
O177 O 0.28439 0.78661 0.79179 0.0
O178 O 0.26991 0.73611 0.88444 0.0
C179 C 0.08526 0.71873 0.81051 0.0
O180 O 0.23826 0.72536 0.70631 0.0
O181 O 0.17183 0.61818 0.71776 0.0
In182 In 0.30171 0.49873 0.80615 0.0
O183 O 0.27944 0.39901 0.7575 0.0
O184 O 0.27881 0.40113 0.86304 0.0
C185 C 0.41875 0.60404 0.85297 0.0
C186 C 0.32096 0.54308 0.6799 0.0
C187 C 0.20303 0.52487 0.84727 0.0
O188 O 0.36269 0.58126 0.88336 0.0
O189 O 0.41741 0.56651 0.80567 0.0
O190 O 0.2013 0.49765 0.79179 0.0
O191 O 0.25178 0.5337 0.88445 0.0
C192 C 0.26921 0.36643 0.81065 0.0
O193 O 0.26246 0.51254 0.7063 0.0
O194 O 0.3697 0.55365 0.71783 0.0
In195 In 0.46569 0.82654 0.48185 0.0
O196 O 0.54307 0.92626 0.53054 0.0
O197 O 0.54045 0.92415 0.425 0.0
C198 C 0.47744 0.72119 0.43505 0.0
C199 C 0.44057 0.78218 0.60808 0.0
C200 C 0.34084 0.8004 0.44064 0.0
O201 O 0.44421 0.74403 0.40465 0.0
O202 O 0.51358 0.75874 0.48238 0.0
O203 O 0.36634 0.82761 0.49612 0.0
O204 O 0.3808 0.79157 0.40353 0.0
C205 C 0.5655 0.95884 0.4774 0.0
O206 O 0.41253 0.81264 0.58165 0.0
O207 O 0.47879 0.77167 0.5702 0.0
In208 In 0.16155 0.63901 0.48174 0.0
O209 O 0.17507 0.59956 0.5816 0.0
O210 O 0.21658 0.70687 0.57011 0.0
C211 C 0.18769 0.54031 0.44058 0.0
C212 C 0.02926 0.60657 0.47717 0.0
C213 C 0.26689 0.75609 0.43502 0.0
O214 O 0.16045 0.53858 0.49604 0.0
O215 O 0.19656 0.58911 0.40346 0.0
O216 O 0.24412 0.70006 0.40459 0.0
O217 O 0.22933 0.75471 0.48232 0.0
C218 C 0.20575 0.65805 0.60802 0.0
O219 O 0.06186 0.61694 0.53033 0.0
O220 O 0.06395 0.61603 0.4248 0.0
In221 In 0.34905 0.52239 0.4818 0.0
O222 O 0.38832 0.57545 0.58165 0.0
O223 O 0.28107 0.50933 0.57013 0.0
C224 C 0.44771 0.64723 0.4407 0.0
C225 C 0.38155 0.4226 0.47727 0.0
C226 C 0.232 0.51066 0.43499 0.0
O227 O 0.44946 0.62173 0.49616 0.0
O228 O 0.39896 0.60732 0.40352 0.0
O229 O 0.28805 0.54393 0.40459 0.0
O230 O 0.23335 0.47447 0.4823 0.0
C231 C 0.32982 0.54747 0.60805 0.0
O232 O 0.37129 0.44491 0.53043 0.0
O233 O 0.37199 0.44774 0.42489 0.0
loop_
_geom_bond_atom_site_label_1
_geom_bond_atom_site_label_2
_geom_bond_distance
_geom_bond_site_symmetry_2
_ccdc_geom_bond_type
In0 O1 2.294 . S
In0 O2 2.326 . S
In0 O6 2.266 . S
In0 O7 2.326 . S
In0 O8 2.266 . S
In0 O9 2.326 . S
In0 O11 2.294 . S
In0 O12 2.326 . S
O1 In0 2.294 . S
O1 C10 1.240 . S
O2 In0 2.326 . S
O2 C10 1.252 . S
C3 O6 1.252 . S
C3 O7 1.260 . S
C4 O11 1.240 . S
C4 O12 1.252 . S
C5 O8 1.252 . S
C5 O9 1.260 . S
O6 In0 2.266 . S
O6 C3 1.252 . S
O7 In0 2.326 . S
O7 C3 1.260 . S
O8 In0 2.266 . S
O8 C5 1.252 . S
O9 In0 2.326 . S
O9 C5 1.260 . S
C10 O1 1.240 . S
C10 O2 1.252 . S
O11 In0 2.294 . S
O11 C4 1.240 . S
O12 In0 2.326 . S
O12 C4 1.252 . S
In13 O14 2.294 . S
In13 O15 2.326 . S
In13 O19 2.266 1_545 S
In13 O20 2.326 1_545 S
In13 O21 2.266 . S
In13 O22 2.326 . S
In13 O24 2.294 . S
In13 O25 2.326 1_545 S
O14 In13 2.294 . S
O14 C23 1.240 . S
O15 In13 2.326 . S
O15 C23 1.252 . S
C16 O19 1.252 . S
C16 O20 1.260 . S
C17 O24 1.240 1_565 S
C17 O25 1.252 . S
C18 O21 1.252 . S
C18 O22 1.260 . S
O19 In13 2.266 1_565 S
O19 C16 1.252 . S
O20 In13 2.326 1_565 S
O20 C16 1.260 . S
O21 In13 2.266 . S
O21 C18 1.252 . S
O22 In13 2.326 . S
O22 C18 1.260 . S
C23 O14 1.240 . S
C23 O15 1.252 . S
O24 In13 2.294 . S
O24 C17 1.240 1_545 S
O25 In13 2.326 1_565 S
O25 C17 1.252 . S
In26 O27 2.294 . S
In26 O28 2.326 1_655 S
In26 O32 2.266 . S
In26 O33 2.326 . S
In26 O34 2.266 1_655 S
In26 O35 2.326 1_655 S
In26 O37 2.291 1_655 S
In26 O38 2.326 . S
O27 In26 2.294 . S
O27 C36 1.240 1_655 S
O28 In26 2.326 1_455 S
O28 C36 1.252 . S
C29 O32 1.252 . S
C29 O33 1.260 . S
C30 O37 1.236 1_655 S
C30 O38 1.252 . S
C31 O34 1.252 . S
C31 O35 1.260 . S
O32 In26 2.266 . S
O32 C29 1.252 . S
O33 In26 2.326 . S
O33 C29 1.260 . S
O34 In26 2.266 1_455 S
O34 C31 1.252 . S
O35 In26 2.326 1_455 S
O35 C31 1.260 . S
C36 O27 1.240 1_455 S
C36 O28 1.252 . S
O37 In26 2.291 1_455 S
O37 C30 1.236 1_455 S
O38 In26 2.326 . S
O38 C30 1.252 . S
In39 O40 2.294 . S
In39 O41 2.326 . S
In39 O45 2.266 . S
In39 O46 2.326 . S
In39 O47 2.266 . S
In39 O48 2.326 . S
In39 O50 2.294 . S
In39 O51 2.326 . S
O40 In39 2.294 . S
O40 C49 1.240 . S
O41 In39 2.326 . S
O41 C49 1.252 . S
C42 O45 1.252 . S
C42 O46 1.260 . S
C43 O50 1.240 . S
C43 O51 1.252 . S
C44 O47 1.252 . S
C44 O48 1.260 . S
O45 In39 2.266 . S
O45 C42 1.252 . S
O46 In39 2.326 . S
O46 C42 1.260 . S
O47 In39 2.266 . S
O47 C44 1.252 . S
O48 In39 2.326 . S
O48 C44 1.260 . S
C49 O40 1.240 . S
C49 O41 1.252 . S
O50 In39 2.294 . S
O50 C43 1.240 . S
O51 In39 2.326 . S
O51 C43 1.252 . S
In52 O53 2.294 . S
In52 O54 2.326 1_565 S
In52 O58 2.266 . S
In52 O59 2.326 . S
In52 O60 2.266 1_565 S
In52 O61 2.326 1_565 S
In52 O63 2.291 1_565 S
In52 O64 2.326 . S
O53 In52 2.294 . S
O53 C62 1.240 1_565 S
O54 In52 2.326 1_545 S
O54 C62 1.252 . S
C55 O58 1.252 . S
C55 O59 1.260 . S
C56 O63 1.236 1_565 S
C56 O64 1.252 . S
C57 O60 1.252 . S
C57 O61 1.260 . S
O58 In52 2.266 . S
O58 C55 1.252 . S
O59 In52 2.326 . S
O59 C55 1.260 . S
O60 In52 2.266 1_545 S
O60 C57 1.252 . S
O61 In52 2.326 1_545 S
O61 C57 1.260 . S
C62 O53 1.240 1_545 S
C62 O54 1.252 . S
O63 In52 2.291 1_545 S
O63 C56 1.236 1_545 S
O64 In52 2.326 . S
O64 C56 1.252 . S
In65 O66 2.294 . S
In65 O67 2.326 1_455 S
In65 O71 2.266 . S
In65 O72 2.326 . S
In65 O73 2.266 1_455 S
In65 O74 2.326 1_455 S
In65 O76 2.294 . S
In65 O77 2.326 . S
O66 In65 2.294 . S
O66 C75 1.240 1_455 S
O67 In65 2.326 1_655 S
O67 C75 1.252 . S
C68 O71 1.252 . S
C68 O72 1.260 . S
C69 O76 1.240 . S
C69 O77 1.252 . S
C70 O73 1.252 . S
C70 O74 1.260 . S
O71 In65 2.266 . S
O71 C68 1.252 . S
O72 In65 2.326 . S
O72 C68 1.260 . S
O73 In65 2.266 1_655 S
O73 C70 1.252 . S
O74 In65 2.326 1_655 S
O74 C70 1.260 . S
C75 O66 1.240 1_655 S
C75 O67 1.252 . S
O76 In65 2.294 . S
O76 C69 1.240 . S
O77 In65 2.326 . S
O77 C69 1.252 . S
In78 O79 2.294 . S
In78 O80 2.326 . S
In78 O84 2.266 . S
In78 O85 2.326 . S
In78 O86 2.266 . S
In78 O87 2.326 . S
In78 O89 2.294 . S
In78 O90 2.326 . S
O79 In78 2.294 . S
O79 C88 1.240 . S
O80 In78 2.326 . S
O80 C88 1.252 . S
C81 O84 1.252 . S
C81 O85 1.260 . S
C82 O89 1.240 . S
C82 O90 1.252 . S
C83 O86 1.252 . S
C83 O87 1.260 . S
O84 In78 2.266 . S
O84 C81 1.252 . S
O85 In78 2.326 . S
O85 C81 1.260 . S
O86 In78 2.266 . S
O86 C83 1.252 . S
O87 In78 2.326 . S
O87 C83 1.260 . S
C88 O79 1.240 . S
C88 O80 1.252 . S
O89 In78 2.294 . S
O89 C82 1.240 . S
O90 In78 2.326 . S
O90 C82 1.252 . S
In91 O92 2.294 . S
In91 O93 2.326 . S
In91 O97 2.266 . S
In91 O98 2.326 . S
In91 O99 2.266 . S
In91 O100 2.326 . S
In91 O102 2.294 . S
In91 O103 2.326 . S
O92 In91 2.294 . S
O92 C101 1.240 . S
O93 In91 2.326 . S
O93 C101 1.252 . S
C94 O97 1.252 . S
C94 O98 1.260 . S
C95 O102 1.240 . S
C95 O103 1.252 . S
C96 O99 1.252 . S
C96 O100 1.260 . S
O97 In91 2.266 . S
O97 C94 1.252 . S
O98 In91 2.326 . S
O98 C94 1.260 . S
O99 In91 2.266 . S
O99 C96 1.252 . S
O100 In91 2.326 . S
O100 C96 1.260 . S
C101 O92 1.240 . S
C101 O93 1.252 . S
O102 In91 2.294 . S
O102 C95 1.240 . S
O103 In91 2.326 . S
O103 C95 1.252 . S
In104 O105 2.294 . S
In104 O106 2.326 . S
In104 O110 2.266 . S
In104 O111 2.326 . S
In104 O112 2.266 . S
In104 O113 2.326 . S
In104 O115 2.294 . S
In104 O116 2.326 . S
O105 In104 2.294 . S
O105 C114 1.240 . S
O106 In104 2.326 . S
O106 C114 1.252 . S
C107 O110 1.252 . S
C107 O111 1.260 . S
C108 O115 1.240 . S
C108 O116 1.252 . S
C109 O112 1.252 . S
C109 O113 1.260 . S
O110 In104 2.266 . S
O110 C107 1.252 . S
O111 In104 2.326 . S
O111 C107 1.260 . S
O112 In104 2.266 . S
O112 C109 1.252 . S
O113 In104 2.326 . S
O113 C109 1.260 . S
C114 O105 1.240 . S
C114 O106 1.252 . S
O115 In104 2.294 . S
O115 C108 1.240 . S
O116 In104 2.326 . S
O116 C108 1.252 . S
In117 O118 2.294 . S
In117 O119 2.326 . S
In117 O123 2.266 . S
In117 O124 2.326 . S
In117 O125 2.266 . S
In117 O126 2.326 . S
In117 O128 2.294 . S
In117 O129 2.326 . S
O118 In117 2.294 . S
O118 C127 1.240 . S
O119 In117 2.326 . S
O119 C127 1.252 . S
C120 O123 1.252 . S
C120 O124 1.260 . S
C121 O128 1.240 . S
C121 O129 1.252 . S
C122 O125 1.252 . S
C122 O126 1.260 . S
O123 In117 2.266 . S
O123 C120 1.252 . S
O124 In117 2.326 . S
O124 C120 1.260 . S
O125 In117 2.266 . S
O125 C122 1.252 . S
O126 In117 2.326 . S
O126 C122 1.260 . S
C127 O118 1.240 . S
C127 O119 1.252 . S
O128 In117 2.294 . S
O128 C121 1.240 . S
O129 In117 2.326 . S
O129 C121 1.252 . S
In130 O131 2.294 . S
In130 O132 2.326 . S
In130 O136 2.266 . S
In130 O137 2.326 . S
In130 O138 2.266 . S
In130 O139 2.326 . S
In130 O141 2.294 . S
In130 O142 2.326 . S
O131 In130 2.294 . S
O131 C140 1.240 . S
O132 In130 2.326 . S
O132 C140 1.252 . S
C133 O136 1.252 . S
C133 O137 1.260 . S
C134 O141 1.240 . S
C134 O142 1.252 . S
C135 O138 1.252 . S
C135 O139 1.260 . S
O136 In130 2.266 . S
O136 C133 1.252 . S
O137 In130 2.326 . S
O137 C133 1.260 . S
O138 In130 2.266 . S
O138 C135 1.252 . S
O139 In130 2.326 . S
O139 C135 1.260 . S
C140 O131 1.240 . S
C140 O132 1.252 . S
O141 In130 2.294 . S
O141 C134 1.240 . S
O142 In130 2.326 . S
O142 C134 1.252 . S
In143 O144 2.294 . S
In143 O145 2.326 . S
In143 O149 2.266 . S
In143 O150 2.326 . S
In143 O151 2.266 . S
In143 O152 2.326 . S
In143 O154 2.294 . S
In143 O155 2.326 . S
O144 In143 2.294 . S
O144 C153 1.240 . S
O145 In143 2.326 . S
O145 C153 1.252 . S
C146 O149 1.252 . S
C146 O150 1.260 . S
C147 O154 1.240 . S
C147 O155 1.252 . S
C148 O151 1.252 . S
C148 O152 1.260 . S
O149 In143 2.266 . S
O149 C146 1.252 . S
O150 In143 2.326 . S
O150 C146 1.260 . S
O151 In143 2.266 . S
O151 C148 1.252 . S
O152 In143 2.326 . S
O152 C148 1.260 . S
C153 O144 1.240 . S
C153 O145 1.252 . S
O154 In143 2.294 . S
O154 C147 1.240 . S
O155 In143 2.326 . S
O155 C147 1.252 . S
In156 O157 2.294 . S
In156 O158 2.326 . S
In156 O162 2.266 . S
In156 O163 2.326 . S
In156 O164 2.266 . S
In156 O165 2.326 . S
In156 O167 2.294 . S
In156 O168 2.326 . S
O157 In156 2.294 . S
O157 C166 1.240 . S
O158 In156 2.326 . S
O158 C166 1.252 . S
C159 O162 1.252 . S
C159 O163 1.260 . S
C160 O167 1.240 . S
C160 O168 1.252 . S
C161 O164 1.252 . S
C161 O165 1.260 . S
O162 In156 2.266 . S
O162 C159 1.252 . S
O163 In156 2.326 . S
O163 C159 1.260 . S
O164 In156 2.266 . S
O164 C161 1.252 . S
O165 In156 2.326 . S
O165 C161 1.260 . S
C166 O157 1.240 . S
C166 O158 1.252 . S
O167 In156 2.294 . S
O167 C160 1.240 . S
O168 In156 2.326 . S
O168 C160 1.252 . S
In169 O170 2.294 . S
In169 O171 2.326 . S
In169 O175 2.266 . S
In169 O176 2.326 . S
In169 O177 2.266 . S
In169 O178 2.326 . S
In169 O180 2.294 . S
In169 O181 2.326 . S
O170 In169 2.294 . S
O170 C179 1.240 . S
O171 In169 2.326 . S
O171 C179 1.252 . S
C172 O175 1.252 . S
C172 O176 1.260 . S
C173 O180 1.240 . S
C173 O181 1.252 . S
C174 O177 1.252 . S
C174 O178 1.260 . S
O175 In169 2.266 . S
O175 C172 1.252 . S
O176 In169 2.326 . S
O176 C172 1.260 . S
O177 In169 2.266 . S
O177 C174 1.252 . S
O178 In169 2.326 . S
O178 C174 1.260 . S
C179 O170 1.240 . S
C179 O171 1.252 . S
O180 In169 2.294 . S
O180 C173 1.240 . S
O181 In169 2.326 . S
O181 C173 1.252 . S
In182 O183 2.294 . S
In182 O184 2.326 . S
In182 O188 2.266 . S
In182 O189 2.326 . S
In182 O190 2.266 . S
In182 O191 2.326 . S
In182 O193 2.294 . S
In182 O194 2.326 . S
O183 In182 2.294 . S
O183 C192 1.240 . S
O184 In182 2.326 . S
O184 C192 1.252 . S
C185 O188 1.252 . S
C185 O189 1.260 . S
C186 O193 1.240 . S
C186 O194 1.252 . S
C187 O190 1.252 . S
C187 O191 1.260 . S
O188 In182 2.266 . S
O188 C185 1.252 . S
O189 In182 2.326 . S
O189 C185 1.260 . S
O190 In182 2.266 . S
O190 C187 1.252 . S
O191 In182 2.326 . S
O191 C187 1.260 . S
C192 O183 1.240 . S
C192 O184 1.252 . S
O193 In182 2.294 . S
O193 C186 1.240 . S
O194 In182 2.326 . S
O194 C186 1.252 . S
In195 O196 2.294 . S
In195 O197 2.326 . S
In195 O201 2.266 . S
In195 O202 2.326 . S
In195 O203 2.266 . S
In195 O204 2.326 . S
In195 O206 2.294 . S
In195 O207 2.326 . S
O196 In195 2.294 . S
O196 C205 1.240 . S
O197 In195 2.326 . S
O197 C205 1.252 . S
C198 O201 1.252 . S
C198 O202 1.260 . S
C199 O206 1.240 . S
C199 O207 1.252 . S
C200 O203 1.252 . S
C200 O204 1.260 . S
O201 In195 2.266 . S
O201 C198 1.252 . S
O202 In195 2.326 . S
O202 C198 1.260 . S
O203 In195 2.266 . S
O203 C200 1.252 . S
O204 In195 2.326 . S
O204 C200 1.260 . S
C205 O196 1.240 . S
C205 O197 1.252 . S
O206 In195 2.294 . S
O206 C199 1.240 . S
O207 In195 2.326 . S
O207 C199 1.252 . S
In208 O209 2.294 . S
In208 O210 2.326 . S
In208 O214 2.266 . S
In208 O215 2.326 . S
In208 O216 2.266 . S
In208 O217 2.326 . S
In208 O219 2.294 . S
In208 O220 2.326 . S
O209 In208 2.294 . S
O209 C218 1.240 . S
O210 In208 2.326 . S
O210 C218 1.252 . S
C211 O214 1.252 . S
C211 O215 1.260 . S
C212 O219 1.240 . S
C212 O220 1.252 . S
C213 O216 1.252 . S
C213 O217 1.260 . S
O214 In208 2.266 . S
O214 C211 1.252 . S
O215 In208 2.326 . S
O215 C211 1.260 . S
O216 In208 2.266 . S
O216 C213 1.252 . S
O217 In208 2.326 . S
O217 C213 1.260 . S
C218 O209 1.240 . S
C218 O210 1.252 . S
O219 In208 2.294 . S
O219 C212 1.240 . S
O220 In208 2.326 . S
O220 C212 1.252 . S
In221 O222 2.294 . S
In221 O223 2.326 . S
In221 O227 2.266 . S
In221 O228 2.326 . S
In221 O229 2.266 . S
In221 O230 2.326 . S
In221 O232 2.294 . S
In221 O233 2.326 . S
O222 In221 2.294 . S
O222 C231 1.240 . S
O223 In221 2.326 . S
O223 C231 1.252 . S
C224 O227 1.252 . S
C224 O228 1.260 . S
C225 O232 1.240 . S
C225 O233 1.252 . S
C226 O229 1.252 . S
C226 O230 1.260 . S
O227 In221 2.266 . S
O227 C224 1.252 . S
O228 In221 2.326 . S
O228 C224 1.260 . S
O229 In221 2.266 . S
O229 C226 1.252 . S
O230 In221 2.326 . S
O230 C226 1.260 . S
C231 O222 1.240 . S
C231 O223 1.252 . S
O232 In221 2.294 . S
O232 C225 1.240 . S
O233 In221 2.326 . S
O233 C225 1.252 . S
C134 C10 1.995 . S
C23 C147 1.995 . S
C121 C30 1.995 . S
C192 C49 1.995 . S
C56 C166 1.995 . S
C179 C69 1.995 . S
C88 C212 1.995 1_655 S
C225 C101 1.995 . S
C114 C205 1.995 1_545 S
C3 C18 1.640 1_455 S
C16 C29 1.640 . S
C5 C31 1.640 1_545 S
C68 C42 1.640 1_565 S
C44 C57 1.640 1_455 S
C70 C55 1.640 . S
C81 C96 1.639 . S
C94 C109 1.640 . S
C83 C107 1.640 . S
C146 C122 1.639 . S
C120 C135 1.640 . S
C133 C148 1.640 . S
C174 C159 1.639 . S
C187 C172 1.640 . S
C161 C185 1.640 . S
C198 C224 1.639 . S
C213 C200 1.640 . S
C226 C211 1.640 . S
C4 C43 2.022 1_554 S
C62 C17 2.022 1_546 S
C75 C36 2.022 1_656 S
C127 C82 2.022 . S
C140 C95 2.022 . S
C108 C153 2.022 . S
C199 C160 2.022 . S
C218 C173 2.022 . S
C231 C186 2.022 . S
