# Generated by pormake.
# Topology vmv, (8)-cn, num edge types: 1
# Building blocks:
#     Node 0, Type 0, BuildingBlock: TAGTUT_clean_sbu_1, # of connection points: 8
#     Node 1, Type 0, BuildingBlock: TAGTUT_clean_sbu_1, # of connection points: 8
#     Node 2, Type 0, BuildingBlock: TAGTUT_clean_sbu_1, # of connection points: 8
#     Node 3, Type 0, BuildingBlock: TAGTUT_clean_sbu_1, # of connection points: 8
#     Edge 4, Type (0, 0), BuildingBlock: TEMPAE_clean_linker_10, # of connection points: 2
#     Edge 5, Type (0, 0), BuildingBlock: TEMPAE_clean_linker_10, # of connection points: 2
#     Edge 6, Type (0, 0), BuildingBlock: TEMPAE_clean_linker_10, # of connection points: 2
#     Edge 7, Type (0, 0), BuildingBlock: TEMPAE_clean_linker_10, # of connection points: 2
#     Edge 8, Type (0, 0), BuildingBlock: TEMPAE_clean_linker_10, # of connection points: 2
#     Edge 9, Type (0, 0), BuildingBlock: TEMPAE_clean_linker_10, # of connection points: 2
#     Edge 10, Type (0, 0), BuildingBlock: TEMPAE_clean_linker_10, # of connection points: 2
#     Edge 11, Type (0, 0), BuildingBlock: TEMPAE_clean_linker_10, # of connection points: 2
#     Edge 12, Type (0, 0), BuildingBlock: TEMPAE_clean_linker_10, # of connection points: 2
#     Edge 13, Type (0, 0), BuildingBlock: TEMPAE_clean_linker_10, # of connection points: 2
#     Edge 14, Type (0, 0), BuildingBlock: TEMPAE_clean_linker_10, # of connection points: 2
#     Edge 15, Type (0, 0), BuildingBlock: TEMPAE_clean_linker_10, # of connection points: 2
#     Edge 16, Type (0, 0), BuildingBlock: TEMPAE_clean_linker_10, # of connection points: 2
#     Edge 17, Type (0, 0), BuildingBlock: TEMPAE_clean_linker_10, # of connection points: 2
#     Edge 18, Type (0, 0), BuildingBlock: TEMPAE_clean_linker_10, # of connection points: 2
#     Edge 19, Type (0, 0), BuildingBlock: TEMPAE_clean_linker_10, # of connection points: 2
# Relax obj value: 0.289
# Max RMSD: 0.289
# Mean RMSD: 0.281
data_MOF--net-vmv--node1-TAGTUT_clean_sbu_1--edge1-TEMPAE_clean_linker_10
_symmetry_space_group_name_H-M    P1
_symmetry_Int_Tables_number       1
_symmetry_cell_setting            triclinic
loop_
_symmetry_equiv_pos_as_xyz
'x, y, z'
_cell_length_a     16.32168
_cell_length_b     31.539163
_cell_length_c     32.206461
_cell_angle_alpha  89.929003
_cell_angle_beta   105.24385
_cell_angle_gamma 88.368201
loop_
_atom_site_label
_atom_site_type_symbol
_atom_site_fract_x
_atom_site_fract_y
_atom_site_fract_z
_atom_type_partial_charge
C0 C 0.30946 0.1659 0.75255 0.0
C1 C 0.50727 0.25865 0.79269 0.0
C2 C 0.2652 0.38007 0.76094 0.0
Mg3 Mg 0.39966 0.22744 0.7043 0.0
O4 O 0.30693 0.26138 0.71228 0.0
Mg5 Mg 0.29473 0.27201 0.77115 0.0
Mg6 Mg 0.30099 0.32046 0.69245 0.0
O7 O 0.29296 0.37971 0.66927 0.0
Mg8 Mg 0.21307 0.42236 0.67633 0.0
Mg9 Mg 0.30067 0.36628 0.60984 0.0
C10 C 0.32844 0.26696 0.60917 0.0
C11 C 0.48382 0.33846 0.67326 0.0
O12 O 0.28465 0.19699 0.77286 0.0
O13 O 0.35284 0.17085 0.72514 0.0
O14 O 0.43599 0.26665 0.80043 0.0
O15 O 0.51277 0.2453 0.75587 0.0
O16 O 0.37451 0.23743 0.63272 0.0
O17 O 0.29158 0.29647 0.62537 0.0
C18 C 0.11393 0.29987 0.70679 0.0
O19 O 0.15418 0.31784 0.68268 0.0
O20 O 0.15319 0.28001 0.74109 0.0
O21 O 0.31831 0.43692 0.60428 0.0
O22 O 0.3098 0.46533 0.66727 0.0
O23 O 0.15797 0.37447 0.58142 0.0
C24 C 0.33549 0.46588 0.63277 0.0
O25 O 0.11369 0.42631 0.61723 0.0
O26 O 0.19747 0.38393 0.73064 0.0
C27 C 0.11066 0.40711 0.58208 0.0
O28 O 0.31289 0.34664 0.76157 0.0
O29 O 0.44699 0.32298 0.70031 0.0
O30 O 0.44155 0.35629 0.63828 0.0
C31 C 0.00871 0.70797 0.7061 0.0
C32 C 0.27463 0.67827 0.78361 0.0
C33 C 0.15929 0.73509 0.92094 0.0
Mg34 Mg 0.17165 0.75875 0.74291 0.0
O35 O 0.1192 0.75875 0.7891 0.0
Mg36 Mg 0.09846 0.70558 0.81609 0.0
Mg37 Mg 0.16718 0.79154 0.84043 0.0
O38 O 0.21656 0.82794 0.8906 0.0
Mg39 Mg 0.17443 0.83106 0.93936 0.0
Mg40 Mg 0.22037 0.88187 0.85762 0.0
C41 C 0.17249 0.85762 0.76266 0.0
C42 C 0.35778 0.81503 0.83716 0.0
O43 O 0.01293 0.69299 0.74412 0.0
O44 O 0.06356 0.7331 0.69871 0.0
O45 O 0.2172 0.67383 0.80345 0.0
O46 O 0.27339 0.70988 0.75843 0.0
O47 O 0.18982 0.82835 0.73812 0.0
O48 O 0.15081 0.84894 0.79696 0.0
C49 C 0.97004 0.77499 0.83854 0.0
O50 O 0.02883 0.80212 0.84636 0.0
O51 O 0.98353 0.7372 0.82792 0.0
O52 O 0.29767 0.90641 0.92083 0.0
O53 O 0.29418 0.86068 0.97442 0.0
O54 O 0.10205 0.91211 0.87087 0.0
C55 C 0.32621 0.89231 0.95936 0.0
O56 O 0.07625 0.87841 0.92667 0.0
O57 O 0.11749 0.7683 0.92671 0.0
C58 C 0.05947 0.90779 0.89843 0.0
O59 O 0.18242 0.73115 0.88554 0.0
O60 O 0.30602 0.78451 0.83418 0.0
O61 O 0.33748 0.85289 0.84507 0.0
C62 C 0.70587 0.56477 0.46806 0.0
C63 C 0.90737 0.63252 0.43316 0.0
C64 C 0.66544 0.75742 0.41434 0.0
Mg65 Mg 0.74898 0.58416 0.38271 0.0
O66 O 0.69292 0.63525 0.38407 0.0
Mg67 Mg 0.71393 0.66616 0.43944 0.0
Mg68 Mg 0.6927 0.68646 0.34711 0.0
O69 O 0.68472 0.73864 0.31264 0.0
Mg70 Mg 0.58562 0.77231 0.31316 0.0
Mg71 Mg 0.69766 0.716 0.25696 0.0
C72 C 0.68148 0.605 0.2812 0.0
C73 C 0.87886 0.69527 0.32616 0.0
O74 O 0.70934 0.6047 0.47345 0.0
O75 O 0.7114 0.54766 0.43274 0.0
O76 O 0.86248 0.65655 0.4515 0.0
O77 O 0.87396 0.60474 0.40556 0.0
O78 O 0.7023 0.57913 0.31346 0.0
O79 O 0.68145 0.64591 0.2858 0.0
C80 C 0.51868 0.68041 0.37837 0.0
O81 O 0.54939 0.68819 0.34615 0.0
O82 O 0.56686 0.67131 0.4161 0.0
O83 O 0.70712 0.79208 0.24273 0.0
O84 O 0.63007 0.82355 0.28377 0.0
O85 O 0.55824 0.71957 0.22492 0.0
C86 C 0.67657 0.8258 0.25747 0.0
O87 O 0.47471 0.75003 0.26146 0.0
O88 O 0.60706 0.77768 0.38564 0.0
C89 C 0.4848 0.73066 0.228 0.0
O90 O 0.71021 0.72742 0.4042 0.0
O91 O 0.8382 0.68483 0.35348 0.0
O92 O 0.8401 0.70881 0.28854 0.0
C93 C 0.7408 0.10519 0.03514 0.0
C94 C 0.96091 0.09618 0.12079 0.0
C95 C 0.80069 0.13826 0.2366 0.0
Mg96 Mg 0.87624 0.17288 0.07917 0.0
O97 O 0.79305 0.17795 0.11047 0.0
Mg98 Mg 0.77417 0.12196 0.13786 0.0
Mg99 Mg 0.83303 0.20935 0.16685 0.0
O100 O 0.87389 0.2381 0.22198 0.0
Mg101 Mg 0.80903 0.23744 0.26328 0.0
Mg102 Mg 0.90634 0.29264 0.20024 0.0
C103 C 0.86367 0.26841 0.09388 0.0
C104 C 0.03651 0.22436 0.17948 0.0
O105 O 0.72298 0.10094 0.07114 0.0
O106 O 0.79727 0.1307 0.02926 0.0
O107 O 0.89675 0.08505 0.13321 0.0
O108 O 0.97531 0.13512 0.11954 0.0
O109 O 0.91733 0.23867 0.09227 0.0
O110 O 0.83475 0.27204 0.1276 0.0
C111 C 0.63306 0.1919 0.15163 0.0
O112 O 0.69061 0.21926 0.16508 0.0
O113 O 0.65078 0.15525 0.13918 0.0
O114 O 0.97625 0.30215 0.27442 0.0
O115 O 0.91067 0.26186 0.31342 0.0
O116 O 0.78646 0.32568 0.20755 0.0
C117 C 0.96961 0.28691 0.31067 0.0
O118 O 0.71293 0.29035 0.24504 0.0
O119 O 0.78675 0.16661 0.26314 0.0
C120 C 0.72244 0.32278 0.2228 0.0
O121 O 0.82796 0.14847 0.20416 0.0
O122 O 0.97649 0.19795 0.16988 0.0
O123 O 0.02396 0.26171 0.19143 0.0
C124 C 0.04166 0.60403 0.42399 0.0
C125 C 1.00076 0.62843 0.44953 0.0
C126 C 0.08207 0.56551 0.44056 0.0
C127 C 0.09487 0.55689 0.48499 0.0
C128 C 0.08418 0.59059 0.51242 0.0
C129 C 0.03464 0.62638 0.49413 0.0
C130 C 0.09966 0.53267 0.40968 0.0
C131 C 0.11217 0.58585 0.56071 0.0
C132 C 0.02034 0.46152 0.53435 0.0
C133 C 0.0934 0.43548 0.54438 0.0
C134 C 0.01739 0.49891 0.51043 0.0
C135 C 0.09256 0.51261 0.50046 0.0
C136 C 0.16422 0.48458 0.50765 0.0
C137 C 0.16139 0.44515 0.52725 0.0
C138 C 0.93465 0.52442 0.49781 0.0
C139 C 0.24568 0.49613 0.49713 0.0
H140 H 0.02274 0.60881 0.38938 0.0
H141 H 0.01122 0.64806 0.51466 0.0
H142 H 0.16879 0.5311 0.41237 0.0
H143 H 0.08019 0.50072 0.41709 0.0
H144 H 0.06653 0.54075 0.37571 0.0
H145 H 0.05898 0.5742 0.57266 0.0
H146 H 0.16689 0.56297 0.57087 0.0
H147 H 0.13017 0.61699 0.57595 0.0
H148 H 0.96706 0.45366 0.54687 0.0
H149 H 0.21676 0.424 0.5334 0.0
H150 H 0.87948 0.50427 0.49693 0.0
H151 H 0.92541 0.5394 0.46567 0.0
H152 H 0.93476 0.54981 0.5216 0.0
H153 H 0.24704 0.48182 0.46587 0.0
H154 H 0.30163 0.48257 0.52151 0.0
H155 H 0.2528 0.53089 0.49517 0.0
C156 C 0.74214 0.02997 0.02307 0.0
C157 C 0.71035 0.07 1.00617 0.0
C158 C 0.68958 0.995 0.01802 0.0
C159 C 0.60512 0.99933 0.99232 0.0
C160 C 0.57683 0.03803 0.96981 0.0
C161 C 0.62927 0.07338 0.97785 0.0
C162 C 0.7212 0.95557 0.04479 0.0
C163 C 0.48835 0.0434 0.94053 0.0
C164 C 0.47293 0.90246 0.95841 0.0
C165 C 0.41034 0.90811 0.98079 0.0
C166 C 0.53822 0.93125 0.96252 0.0
C167 C 0.54416 0.96498 0.99188 0.0
C168 C 0.4873 0.96761 0.01857 0.0
C169 C 0.41934 0.93969 0.01189 0.0
C170 C 0.59525 0.92787 0.93244 0.0
C171 C 0.49396 1.00187 0.05184 0.0
H172 H 0.80412 0.02766 0.04595 0.0
H173 H 0.60372 0.10439 0.96556 0.0
H174 H 0.68886 0.95379 0.07105 0.0
H175 H 0.70586 0.92654 0.0253 0.0
H176 H 0.79088 0.95558 0.05954 0.0
H177 H 0.48294 0.07111 0.91854 0.0
H178 H 0.47 0.01447 0.92111 0.0
H179 H 0.44245 0.04856 0.96017 0.0
H180 H 0.46481 0.87831 0.93378 0.0
H181 H 0.37012 0.94464 0.02852 0.0
H182 H 0.66248 0.92383 0.9511 0.0
H183 H 0.58978 0.95755 0.91321 0.0
H184 H 0.57929 0.90081 0.90996 0.0
H185 H 0.46089 0.99326 0.07659 0.0
H186 H 0.46413 0.03175 0.0359 0.0
H187 H 0.56132 0.00803 0.06805 0.0
C188 C 0.62526 0.50797 0.49292 0.0
C189 C 0.68296 0.54077 0.50256 0.0
C190 C 0.58111 0.49562 0.52285 0.0
C191 C 0.59445 0.51717 0.56268 0.0
C192 C 0.65883 0.54722 0.57404 0.0
C193 C 0.70334 0.55806 0.54411 0.0
C194 C 0.51502 0.46214 0.51033 0.0
C195 C 0.67482 0.5712 0.61584 0.0
C196 C 0.39266 0.52444 0.59955 0.0
C197 C 0.40689 0.49142 0.62972 0.0
C198 C 0.45624 0.53545 0.5798 0.0
C199 C 0.5345 0.51189 0.58983 0.0
C200 C 0.55156 0.48109 0.6232 0.0
C201 C 0.4877 0.47176 0.6433 0.0
C202 C 0.43658 0.56955 0.54536 0.0
C203 C 0.63299 0.45451 0.63436 0.0
H204 H 0.60937 0.49451 0.46094 0.0
H205 H 0.74908 0.58305 0.55193 0.0
H206 H 0.51888 0.43996 0.53761 0.0
H207 H 0.45075 0.47754 0.50199 0.0
H208 H 0.52231 0.44364 0.48212 0.0
H209 H 0.6214 0.59429 0.61416 0.0
H210 H 0.6778 0.54938 0.64326 0.0
H211 H 0.73469 0.58893 0.62243 0.0
H212 H 0.3295 0.53886 0.5885 0.0
H213 H 0.49757 0.44538 0.66592 0.0
H214 H 0.42712 0.55474 0.51327 0.0
H215 H 0.49043 0.59129 0.54973 0.0
H216 H 0.37817 0.58846 0.54552 0.0
H217 H 0.63019 0.43025 0.60912 0.0
H218 H 0.64284 0.43778 0.66576 0.0
H219 H 0.68881 0.47413 0.63545 0.0
C220 C 0.96803 0.09168 0.04517 0.0
C221 C 0.97658 0.07121 0.08492 0.0
C222 C 0.96159 0.0687 1.00763 0.0
C223 C 0.97503 0.02432 0.01054 0.0
C224 C 0.98985 1.00344 0.05111 0.0
C225 C 0.98661 0.02708 0.08762 0.0
C226 C 0.94003 0.09268 0.96526 0.0
C227 C 0.01034 0.95641 0.0563 0.0
C228 C 0.94237 0.94511 0.92015 0.0
C229 C 0.02152 0.946 0.91131 0.0
C230 C 0.92234 0.97394 0.94932 0.0
C231 C 0.98613 1.00084 0.97267 0.0
C232 C 0.06398 1.00354 0.96142 0.0
C233 C 0.07873 0.97742 0.92917 0.0
C234 C 0.83457 0.97457 0.95609 0.0
C235 C 0.13481 0.03119 0.98566 0.0
H236 H 0.9608 0.1259 0.04255 0.0
H237 H 0.99279 0.01124 0.11824 0.0
H238 H 0.99621 0.11023 0.96233 0.0
H239 H 0.91914 0.07183 0.93696 0.0
H240 H 0.88855 0.11675 0.96444 0.0
H241 H 0.03614 0.94705 0.09063 0.0
H242 H 0.95194 0.93848 0.04309 0.0
H243 H 0.05738 0.94675 0.03843 0.0
H244 H 0.89846 0.92061 0.90614 0.0
H245 H 0.14043 0.97756 0.92234 0.0
H246 H 0.80971 0.00779 0.95479 0.0
H247 H 0.83699 0.96118 0.98816 0.0
H248 H 0.78981 0.9559 0.93137 0.0
H249 H 0.11861 0.06484 0.97642 0.0
H250 H 0.19635 0.023 0.97852 0.0
H251 H 0.1437 0.02822 0.02093 0.0
C252 C 0.63005 0.23177 0.85141 0.0
C253 C 0.58219 0.26614 0.82895 0.0
C254 C 0.67898 0.23626 0.89429 0.0
C255 C 0.67942 0.276 0.91509 0.0
C256 C 0.63576 0.31138 0.89136 0.0
C257 C 0.58775 0.30597 0.84869 0.0
C258 C 0.72563 0.19781 0.9182 0.0
C259 C 0.63461 0.35432 0.91191 0.0
C260 C 0.72337 0.2719 0.03781 0.0
C261 C 0.81001 0.28067 0.05063 0.0
C262 C 0.6792 0.27167 0.99378 0.0
C263 C 0.72289 0.28019 0.962 0.0
C264 C 0.80911 0.29137 0.97514 0.0
C265 C 0.85137 0.29149 0.01915 0.0
C266 C 0.58697 0.26003 0.98119 0.0
C267 C 0.85835 0.30067 0.94266 0.0
H268 H 0.62393 0.20071 0.83671 0.0
H269 H 0.54926 0.33238 0.83164 0.0
H270 H 0.79235 0.20536 0.9344 0.0
H271 H 0.69504 0.18826 0.9436 0.0
H272 H 0.72571 0.17042 0.89655 0.0
H273 H 0.60416 0.37936 0.88809 0.0
H274 H 0.59903 0.3527 0.93685 0.0
H275 H 0.70012 0.36373 0.9282 0.0
H276 H 0.69163 0.26249 0.06186 0.0
H277 H 0.91877 0.29762 0.02897 0.0
H278 H 0.5803 0.22905 0.96453 0.0
H279 H 0.54866 0.28395 0.95834 0.0
H280 H 0.5604 0.25765 0.00949 0.0
H281 H 0.86486 0.27142 0.92453 0.0
H282 H 0.92289 0.31214 0.95807 0.0
H283 H 0.8238 0.32485 0.91895 0.0
C284 C 0.63755 0.74031 0.48506 0.0
C285 C 0.68097 0.76428 0.46133 0.0
C286 C 0.67596 0.72846 0.52829 0.0
C287 C 0.75815 0.74278 0.549 0.0
C288 C 0.79741 0.77127 0.52659 0.0
C289 C 0.75916 0.78098 0.483 0.0
C290 C 0.63191 0.69738 0.55014 0.0
C291 C 0.88357 0.7887 0.54746 0.0
C292 C 0.86467 0.73594 0.6695 0.0
C293 C 0.92958 0.70535 0.67093 0.0
C294 C 0.80404 0.74651 0.63061 0.0
C295 C 0.80739 0.72546 0.59222 0.0
C296 C 0.86743 0.69143 0.5946 0.0
C297 C 0.92911 0.68249 0.63363 0.0
C298 C 0.74201 0.78303 0.63003 0.0
C299 C 0.87105 0.6668 0.55504 0.0
H300 H 0.5766 0.72777 0.46887 0.0
H301 H 0.79392 0.79888 0.46479 0.0
H302 H 0.66103 0.66525 0.54935 0.0
H303 H 0.63962 0.70561 0.5844 0.0
H304 H 0.56306 0.69596 0.53376 0.0
H305 H 0.90004 0.81467 0.52803 0.0
H306 H 0.88561 0.80091 0.58 0.0
H307 H 0.93284 0.76297 0.55126 0.0
H308 H 0.86611 0.75446 0.69803 0.0
H309 H 0.98007 0.65946 0.63431 0.0
H310 H 0.6779 0.77574 0.60971 0.0
H311 H 0.76355 0.8114 0.6159 0.0
H312 H 0.73716 0.79104 0.66291 0.0
H313 H 0.80637 0.65787 0.5368 0.0
H314 H 0.91185 0.63756 0.5631 0.0
H315 H 0.89682 0.68717 0.53369 0.0
C316 C 0.16838 0.70058 0.99091 0.0
C317 C 0.2115 0.717 0.96231 0.0
C318 C 0.20611 0.69828 0.03556 0.0
C319 C 0.28938 0.71297 0.05243 0.0
C320 C 0.3354 0.72702 0.02338 0.0
C321 C 0.29584 0.72903 0.97872 0.0
C322 C 0.15439 0.68297 0.06487 0.0
C323 C 0.42461 0.74256 0.03969 0.0
C324 C 0.36209 0.75621 0.16732 0.0
C325 C 0.41469 0.72278 0.18889 0.0
C326 C 0.31803 0.75283 0.12334 0.0
C327 C 0.32705 0.71523 0.10036 0.0
C328 C 0.37525 0.68042 0.123 0.0
C329 C 0.41805 0.68461 0.16675 0.0
C330 C 0.2661 0.79052 0.10077 0.0
C331 C 0.38676 0.63966 0.10036 0.0
H332 H 0.1023 0.69249 0.97859 0.0
H333 H 0.32849 0.74323 0.95713 0.0
H334 H 0.1914 0.65911 0.08821 0.0
H335 H 0.13873 0.71003 0.08369 0.0
H336 H 0.09415 0.66873 0.04669 0.0
H337 H 0.4545 0.7488 0.01311 0.0
H338 H 0.42345 0.77237 0.05783 0.0
H339 H 0.46482 0.71894 0.06217 0.0
H340 H 0.36064 0.78609 0.18375 0.0
H341 H 0.45949 0.65878 0.18305 0.0
H342 H 0.20201 0.78059 0.08263 0.0
H343 H 0.2972 0.80397 0.07714 0.0
H344 H 0.25895 0.81583 0.12363 0.0
H345 H 0.32446 0.62817 0.08155 0.0
H346 H 0.41925 0.61425 0.12323 0.0
H347 H 0.42526 0.64555 0.07732 0.0
C348 C 0.12249 0.28396 0.35225 0.0
C349 C 0.0373 0.29353 0.35076 0.0
C350 C 0.18463 0.27974 0.39193 0.0
C351 C 0.16117 0.28612 0.4309 0.0
C352 C 0.07621 0.29868 0.42921 0.0
C353 C 0.01518 0.30149 0.38927 0.0
C354 C 0.27392 0.26576 0.39215 0.0
C355 C 0.04879 0.30738 0.46976 0.0
C356 C 0.26877 0.2328 0.53828 0.0
C357 C 0.3107 0.26684 0.56161 0.0
C358 C 0.22535 0.23762 0.49442 0.0
C359 C 0.22309 0.27758 0.47369 0.0
C360 C 0.2719 0.31077 0.49624 0.0
C361 C 0.31596 0.30474 0.5397 0.0
C362 C 0.1759 0.20101 0.47137 0.0
C363 C 0.27184 0.35383 0.47566 0.0
H364 H 0.13943 0.27688 0.32257 0.0
H365 H 0.94926 0.30862 0.38819 0.0
H366 H 0.32116 0.28529 0.41454 0.0
H367 H 0.28546 0.23241 0.4037 0.0
H368 H 0.28488 0.26771 0.35959 0.0
H369 H 0.98223 0.31992 0.4628 0.0
H370 H 0.05412 0.27769 0.48893 0.0
H371 H 0.09105 0.33065 0.48996 0.0
H372 H 0.26403 0.20353 0.55508 0.0
H373 H 0.35076 0.33066 0.55722 0.0
H374 H 0.18629 0.19724 0.43887 0.0
H375 H 0.107 0.20751 0.46714 0.0
H376 H 0.19387 0.17069 0.48951 0.0
H377 H 0.286 0.35062 0.44395 0.0
H378 H 0.31879 0.37505 0.49614 0.0
H379 H 0.20776 0.36918 0.4699 0.0
C380 C 0.98108 0.34522 0.68727 0.0
C381 C 0.02068 0.30521 0.69793 0.0
C382 C 0.89451 0.35197 0.6853 0.0
C383 C 0.84594 0.31749 0.6926 0.0
C384 C 0.88531 0.27672 0.70188 0.0
C385 C 0.97254 0.2713 0.7053 0.0
C386 C 0.85546 0.39613 0.67634 0.0
C387 C 0.83524 0.23874 0.708 0.0
C388 C 0.63381 0.33478 0.72039 0.0
C389 C 0.57656 0.33285 0.67961 0.0
C390 C 0.72208 0.33092 0.72514 0.0
C391 C 0.75308 0.32346 0.68841 0.0
C392 C 0.69496 0.32063 0.64738 0.0
C393 C 0.6078 0.32605 0.64345 0.0
C394 C 0.78212 0.33543 0.76927 0.0
C395 C 0.72461 0.31111 0.60761 0.0
H396 H 0.01868 0.37165 0.68237 0.0
H397 H 1.00335 0.24039 0.71374 0.0
H398 H 0.80548 0.39679 0.64543 0.0
H399 H 0.82444 0.40552 0.70189 0.0
H400 H 0.90319 0.42002 0.6746 0.0
H401 H 0.87476 0.20897 0.71354 0.0
H402 H 0.80812 0.24376 0.73582 0.0
H403 H 0.78123 0.23471 0.67916 0.0
H404 H 0.60973 0.34032 0.74831 0.0
H405 H 0.56356 0.32408 0.61186 0.0
H406 H 0.82642 0.36138 0.76881 0.0
H407 H 0.82116 0.30588 0.77851 0.0
H408 H 0.74804 0.34238 0.79428 0.0
H409 H 0.76559 0.33667 0.60178 0.0
H410 H 0.67084 0.30806 0.57842 0.0
H411 H 0.76338 0.28114 0.61233 0.0
C412 C 0.48408 0.84108 0.81734 0.0
C413 C 0.44492 0.80791 0.83315 0.0
C414 C 0.57032 0.83849 0.81851 0.0
C415 C 0.61906 0.80203 0.83652 0.0
C416 C 0.57969 0.76808 0.85203 0.0
C417 C 0.4925 0.77124 0.84975 0.0
C418 C 0.60912 0.87484 0.80054 0.0
C419 C 0.63014 0.72886 0.87181 0.0
C420 C 0.8175 0.77279 0.80238 0.0
C421 C 0.88177 0.78714 0.83703 0.0
C422 C 0.73188 0.77854 0.8014 0.0
C423 C 0.70994 0.79827 0.83652 0.0
C424 C 0.77458 0.81407 0.87116 0.0
C425 C 0.86031 0.80879 0.87072 0.0
C426 C 0.66508 0.76277 0.76306 0.0
C427 C 0.75338 0.83572 0.90896 0.0
H428 H 0.44713 0.8695 0.80438 0.0
H429 H 0.46249 0.74592 0.86256 0.0
H430 H 0.65901 0.88915 0.82649 0.0
H431 H 0.64004 0.86312 0.77574 0.0
H432 H 0.56129 0.90006 0.78589 0.0
H433 H 0.59085 0.70605 0.88382 0.0
H434 H 0.65738 0.71265 0.84772 0.0
H435 H 0.68408 0.73791 0.89898 0.0
H436 H 0.8345 0.75645 0.77607 0.0
H437 H 0.91037 0.81979 0.89745 0.0
H438 H 0.61835 0.7887 0.74941 0.0
H439 H 0.62975 0.73694 0.77329 0.0
H440 H 0.6929 0.75055 0.73724 0.0
H441 H 0.72027 0.86659 0.89838 0.0
H442 H 0.81101 0.84169 0.9354 0.0
H443 H 0.70974 0.81623 0.92172 0.0
C444 C 0.01152 0.66896 0.30898 0.0
C445 C 0.97267 0.69031 0.33723 0.0
C446 C 0.10048 0.66524 0.31754 0.0
C447 C 0.15218 0.68496 0.35434 0.0
C448 C 0.11301 0.70634 0.38319 0.0
C449 C 0.02366 0.70808 0.37468 0.0
C450 C 0.1391 0.6404 0.28698 0.0
C451 C 0.16529 0.72864 0.42224 0.0
C452 C 0.38736 0.65228 0.39364 0.0
C453 C 0.42519 0.6817 0.37225 0.0
C454 C 0.29875 0.65269 0.38793 0.0
C455 C 0.24682 0.68438 0.36154 0.0
C456 C 0.2852 0.7148 0.34073 0.0
C457 C 0.37359 0.71261 0.34571 0.0
C458 C 0.26061 0.61862 0.40935 0.0
C459 C 0.23292 0.74992 0.31338 0.0
H460 H 0.97203 0.6548 0.28023 0.0
H461 H 0.99355 0.72465 0.39648 0.0
H462 H 0.17343 0.66198 0.27064 0.0
H463 H 0.18614 0.61641 0.30506 0.0
H464 H 0.09047 0.62395 0.26202 0.0
H465 H 0.12525 0.74423 0.4412 0.0
H466 H 0.21009 0.70575 0.44345 0.0
H467 H 0.20389 0.75303 0.41205 0.0
H468 H 0.42702 0.6282 0.41408 0.0
H469 H 0.40271 0.73576 0.32966 0.0
H470 H 0.21134 0.60211 0.38487 0.0
H471 H 0.22889 0.63302 0.43264 0.0
H472 H 0.30895 0.59476 0.42671 0.0
H473 H 0.1877 0.73631 0.28498 0.0
H474 H 0.27292 0.77273 0.30187 0.0
H475 H 0.19484 0.76747 0.33206 0.0
C476 C 0.14959 0.2448 0.14652 0.0
C477 C 0.11915 0.21517 0.17084 0.0
C478 C 0.2323 0.24127 0.14193 0.0
C479 C 0.28658 0.20764 0.16292 0.0
C480 C 0.25546 0.17684 0.18667 0.0
C481 C 0.17127 0.18076 0.19003 0.0
C482 C 0.26204 0.27406 0.11534 0.0
C483 C 0.31193 0.14069 0.20965 0.0
C484 C 0.47927 0.1794 0.12278 0.0
C485 C 0.54403 0.20044 0.15221 0.0
C486 C 0.39533 0.18154 0.12588 0.0
C487 C 0.37568 0.20491 0.1596 0.0
C488 C 0.4404 0.22701 0.18896 0.0
C489 C 0.52399 0.22478 0.18469 0.0
C490 C 0.32785 0.15849 0.09327 0.0
C491 C 0.42169 0.25214 0.22543 0.0
H492 H 0.10864 0.27135 0.13156 0.0
H493 H 0.14758 0.15818 0.20914 0.0
H494 H 0.31483 0.29187 0.13609 0.0
H495 H 0.28687 0.25832 0.09016 0.0
H496 H 0.21044 0.29706 0.09949 0.0
H497 H 0.27773 0.11904 0.22609 0.0
H498 H 0.33775 0.12207 0.1865 0.0
H499 H 0.36687 0.15348 0.23395 0.0
H500 H 0.49461 0.16063 0.0975 0.0
H501 H 0.57414 0.24051 0.20781 0.0
H502 H 0.27647 0.1812 0.07666 0.0
H503 H 0.2986 0.13458 0.10973 0.0
H504 H 0.35363 0.14215 0.06867 0.0
H505 H 0.37289 0.27738 0.2125 0.0
H506 H 0.47919 0.2671 0.24574 0.0
H507 H 0.39536 0.23107 0.24604 0.0
C508 C 0.32375 0.09628 0.79098 0.0
C509 C 0.281 0.1227 0.75678 0.0
C510 C 0.30745 0.05266 0.79056 0.0
C511 C 0.24614 0.0355 0.75536 0.0
C512 C 0.20186 0.06252 0.72118 0.0
C513 C 0.22041 0.10572 0.72217 0.0
C514 C 0.3562 0.02524 0.82782 0.0
C515 C 0.13589 0.04566 0.6832 0.0
C516 C 0.25014 0.91591 0.73675 0.0
C517 C 0.18685 0.90297 0.75571 0.0
C518 C 0.26997 0.9591 0.73609 0.0
C519 C 0.22553 0.98973 0.75488 0.0
C520 C 0.16054 0.97672 0.7732 0.0
C521 C 0.14144 0.93374 0.77288 0.0
C522 C 0.34034 0.97185 0.71669 0.0
C523 C 0.1125 0.00804 0.79419 0.0
H524 H 0.37204 0.1094 0.81723 0.0
H525 H 0.18886 0.12622 0.69532 0.0
H526 H 0.31753 0.02185 0.85122 0.0
H527 H 0.37037 0.99301 0.81729 0.0
H528 H 0.41708 0.03971 0.84461 0.0
H529 H 0.10746 0.07085 0.65916 0.0
H530 H 0.16495 0.0205 0.66712 0.0
H531 H 0.08429 0.03104 0.69434 0.0
H532 H 0.2861 0.89226 0.72393 0.0
H533 H 0.09158 0.924 0.78705 0.0
H534 H 0.39226 0.98582 0.74191 0.0
H535 H 0.3165 0.99656 0.69152 0.0
H536 H 0.367 0.94456 0.7022 0.0
H537 H 0.15742 0.02358 0.82144 0.0
H538 H 0.06304 0.99275 0.80659 0.0
H539 H 0.08161 0.0333 0.77084 0.0
C540 C 0.38589 0.43206 0.77426 0.0
C541 C 0.30317 0.42168 0.77501 0.0
C542 C 0.41185 0.47468 0.77875 0.0
C543 C 0.35294 0.50751 0.78288 0.0
C544 C 0.27056 0.49651 0.78511 0.0
C545 C 0.24775 0.454 0.78202 0.0
C546 C 0.50094 0.48414 0.77711 0.0
C547 C 0.20423 0.52983 0.78872 0.0
C548 C 0.36585 0.61893 0.82323 0.0
C549 C 0.33233 0.64117 0.78443 0.0
C550 C 0.38846 0.57555 0.82329 0.0
C551 C 0.37299 0.5537 0.78375 0.0
C552 C 0.35178 0.57767 0.74485 0.0
C553 C 0.33241 0.62133 0.74567 0.0
C554 C 0.41826 0.55211 0.86564 0.0
C555 C 0.33831 0.55649 0.70198 0.0
H556 H 0.42894 0.40742 0.76827 0.0
H557 H 0.18378 0.44612 0.78262 0.0
H558 H 0.50305 0.48587 0.743 0.0
H559 H 0.52286 0.51457 0.79282 0.0
H560 H 0.54598 0.45821 0.79284 0.0
H561 H 0.14154 0.51607 0.78702 0.0
H562 H 0.22517 0.5467 0.81973 0.0
H563 H 0.19562 0.5537 0.76245 0.0
H564 H 0.3672 0.63443 0.85343 0.0
H565 H 0.30698 0.63849 0.71561 0.0
H566 H 0.4644 0.52614 0.8636 0.0
H567 H 0.36313 0.53776 0.87381 0.0
H568 H 0.44832 0.57381 0.89207 0.0
H569 H 0.39013 0.53274 0.7033 0.0
H570 H 0.33659 0.57955 0.67562 0.0
H571 H 0.27692 0.54012 0.69453 0.0
C572 C 0.7709 0.88099 0.23661 0.0
C573 C 0.69578 0.87021 0.24704 0.0
C574 C 0.79269 0.9241 0.2347 0.0
C575 C 0.73905 0.95702 0.24419 0.0
C576 C 0.66226 0.94611 0.25337 0.0
C577 C 0.64125 0.90337 0.25396 0.0
C578 C 0.87337 0.93449 0.22292 0.0
C579 C 0.60247 0.97963 0.26353 0.0
C580 C 0.81624 0.069 0.27847 0.0
C581 C 0.78032 0.09267 0.24083 0.0
C582 C 0.80541 0.02461 0.27991 0.0
C583 C 0.75939 1.00315 0.24255 0.0
C584 C 0.72342 0.02708 0.20468 0.0
C585 C 0.73192 0.07125 0.20492 0.0
C586 C 0.84254 1.00069 0.32147 0.0
C587 C 0.67421 0.00638 0.16374 0.0
H588 H 0.81374 0.85592 0.23135 0.0
H589 H 0.58221 0.89587 0.26137 0.0
H590 H 0.85861 0.95619 0.19459 0.0
H591 H 0.91646 0.95129 0.24988 0.0
H592 H 0.90722 0.90567 0.21534 0.0
H593 H 0.54763 0.96576 0.2725 0.0
H594 H 0.63698 0.99961 0.29047 0.0
H595 H 0.57763 1.0008 0.23524 0.0
H596 H 0.85387 0.08502 0.3065 0.0
H597 H 0.69907 0.08888 0.17668 0.0
H598 H 0.88543 0.97449 0.31623 0.0
H599 H 0.7908 0.98614 0.33258 0.0
H600 H 0.87866 0.02147 0.34728 0.0
H601 H 0.70541 0.97597 0.15824 0.0
H602 H 0.668 0.02729 0.13522 0.0
H603 H 0.60947 0.99939 0.16627 0.0
C604 C 0.66797 0.38485 0.25603 0.0
C605 C 0.66834 0.36189 0.21892 0.0
C606 C 0.65119 0.42904 0.25391 0.0
C607 C 0.63302 0.45065 0.21359 0.0
C608 C 0.62352 0.42663 0.17561 0.0
C609 C 0.6424 0.3827 0.17878 0.0
C610 C 0.66143 0.45312 0.29536 0.0
C611 C 0.60121 0.44762 0.13181 0.0
C612 C 0.57787 0.56679 0.22712 0.0
C613 C 0.65962 0.58334 0.23945 0.0
C614 C 0.56576 0.52428 0.21389 0.0
C615 C 0.63703 0.49817 0.21247 0.0
C616 C 0.71663 0.51723 0.2172 0.0
C617 C 0.7264 0.55993 0.22975 0.0
C618 C 0.47866 0.50624 0.20676 0.0
C619 C 0.79438 0.49124 0.21489 0.0
H620 H 0.68965 0.36919 0.28715 0.0
H621 H 0.64356 0.36518 0.14997 0.0
H622 H 0.71883 0.47264 0.30111 0.0
H623 H 0.60605 0.47504 0.29314 0.0
H624 H 0.66813 0.43163 0.32349 0.0
H625 H 0.57346 0.42476 0.10607 0.0
H626 H 0.55561 0.47475 0.13011 0.0
H627 H 0.65962 0.45996 0.12529 0.0
H628 H 0.52557 0.58471 0.23426 0.0
H629 H 0.78975 0.57252 0.23911 0.0
H630 H 0.4734 0.49098 0.23698 0.0
H631 H 0.46747 0.48176 0.18132 0.0
H632 H 0.42815 0.53149 0.19764 0.0
H633 H 0.81414 0.47005 0.24356 0.0
H634 H 0.84852 0.51149 0.21403 0.0
H635 H 0.78021 0.47091 0.18597 0.0
loop_
_geom_bond_atom_site_label_1
_geom_bond_atom_site_label_2
_geom_bond_distance
_geom_bond_site_symmetry_2
_ccdc_geom_bond_type
C0 O12 1.241 . S
C0 O13 1.280 . S
C1 O14 1.277 . S
C1 O15 1.245 . S
C2 O26 1.247 . S
C2 O28 1.289 . S
Mg3 O4 1.926 . S
Mg3 O13 1.984 . S
Mg3 O15 1.988 . S
Mg3 O16 2.061 . S
O4 Mg3 1.926 . S
O4 Mg5 1.986 . S
O4 Mg6 1.917 . S
Mg5 O4 1.986 . S
Mg5 O12 2.042 . S
Mg5 O14 2.041 . S
Mg5 O20 2.038 . S
Mg5 O28 2.238 . S
Mg6 O4 1.917 . S
Mg6 O7 1.917 . S
Mg6 O17 2.106 . S
Mg6 O19 2.079 . S
Mg6 O28 2.106 . S
Mg6 O29 2.079 . S
O7 Mg6 1.917 . S
O7 Mg8 1.926 . S
O7 Mg9 1.986 . S
Mg8 O7 1.926 . S
Mg8 O22 1.984 . S
Mg8 O25 1.988 . S
Mg8 O26 2.061 . S
Mg9 O7 1.986 . S
Mg9 O17 2.238 . S
Mg9 O21 2.042 . S
Mg9 O23 2.041 . S
Mg9 O30 2.038 . S
C10 O16 1.247 . S
C10 O17 1.289 . S
C11 O29 1.245 . S
C11 O30 1.274 . S
O12 C0 1.241 . S
O12 Mg5 2.042 . S
O13 C0 1.280 . S
O13 Mg3 1.984 . S
O14 C1 1.277 . S
O14 Mg5 2.041 . S
O15 C1 1.245 . S
O15 Mg3 1.988 . S
O16 Mg3 2.061 . S
O16 C10 1.247 . S
O17 Mg6 2.106 . S
O17 Mg9 2.238 . S
O17 C10 1.289 . S
C18 O19 1.245 . S
C18 O20 1.274 . S
O19 Mg6 2.079 . S
O19 C18 1.245 . S
O20 Mg5 2.038 . S
O20 C18 1.274 . S
O21 Mg9 2.042 . S
O21 C24 1.241 . S
O22 Mg8 1.984 . S
O22 C24 1.280 . S
O23 Mg9 2.041 . S
O23 C27 1.277 . S
C24 O21 1.241 . S
C24 O22 1.280 . S
O25 Mg8 1.988 . S
O25 C27 1.245 . S
O26 C2 1.247 . S
O26 Mg8 2.061 . S
C27 O23 1.277 . S
C27 O25 1.245 . S
O28 C2 1.289 . S
O28 Mg5 2.238 . S
O28 Mg6 2.106 . S
O29 Mg6 2.079 . S
O29 C11 1.245 . S
O30 Mg9 2.038 . S
O30 C11 1.274 . S
C31 O43 1.241 . S
C31 O44 1.280 . S
C32 O45 1.277 . S
C32 O46 1.245 . S
C33 O57 1.247 . S
C33 O59 1.289 . S
Mg34 O35 1.926 . S
Mg34 O44 1.984 . S
Mg34 O46 1.988 . S
Mg34 O47 2.061 . S
O35 Mg34 1.926 . S
O35 Mg36 1.986 . S
O35 Mg37 1.917 . S
Mg36 O35 1.986 . S
Mg36 O43 2.042 . S
Mg36 O45 2.041 . S
Mg36 O51 2.038 . S
Mg36 O59 2.238 . S
Mg37 O35 1.917 . S
Mg37 O38 1.917 . S
Mg37 O48 2.106 . S
Mg37 O50 2.079 . S
Mg37 O59 2.106 . S
Mg37 O60 2.079 . S
O38 Mg37 1.917 . S
O38 Mg39 1.926 . S
O38 Mg40 1.986 . S
Mg39 O38 1.926 . S
Mg39 O53 1.984 . S
Mg39 O56 1.988 . S
Mg39 O57 2.061 . S
Mg40 O38 1.986 . S
Mg40 O48 2.238 . S
Mg40 O52 2.042 . S
Mg40 O54 2.041 . S
Mg40 O61 2.038 . S
C41 O47 1.247 . S
C41 O48 1.289 . S
C42 O60 1.245 . S
C42 O61 1.274 . S
O43 C31 1.241 . S
O43 Mg36 2.042 . S
O44 C31 1.280 . S
O44 Mg34 1.984 . S
O45 C32 1.277 . S
O45 Mg36 2.041 . S
O46 C32 1.245 . S
O46 Mg34 1.988 . S
O47 Mg34 2.061 . S
O47 C41 1.247 . S
O48 Mg37 2.106 . S
O48 Mg40 2.238 . S
O48 C41 1.289 . S
C49 O50 1.245 . S
C49 O51 1.274 . S
O50 Mg37 2.079 . S
O50 C49 1.245 . S
O51 Mg36 2.038 . S
O51 C49 1.274 . S
O52 Mg40 2.042 . S
O52 C55 1.241 . S
O53 Mg39 1.984 . S
O53 C55 1.280 . S
O54 Mg40 2.041 . S
O54 C58 1.277 . S
C55 O52 1.241 . S
C55 O53 1.280 . S
O56 Mg39 1.988 . S
O56 C58 1.245 . S
O57 C33 1.247 . S
O57 Mg39 2.061 . S
C58 O54 1.277 . S
C58 O56 1.245 . S
O59 C33 1.289 . S
O59 Mg36 2.238 . S
O59 Mg37 2.106 . S
O60 Mg37 2.079 . S
O60 C42 1.245 . S
O61 Mg40 2.038 . S
O61 C42 1.274 . S
C62 O74 1.241 . S
C62 O75 1.280 . S
C63 O76 1.277 . S
C63 O77 1.245 . S
C64 O88 1.247 . S
C64 O90 1.289 . S
Mg65 O66 1.926 . S
Mg65 O75 1.984 . S
Mg65 O77 1.988 . S
Mg65 O78 2.061 . S
O66 Mg65 1.926 . S
O66 Mg67 1.986 . S
O66 Mg68 1.917 . S
Mg67 O66 1.986 . S
Mg67 O74 2.042 . S
Mg67 O76 2.041 . S
Mg67 O82 2.038 . S
Mg67 O90 2.238 . S
Mg68 O66 1.917 . S
Mg68 O69 1.917 . S
Mg68 O79 2.106 . S
Mg68 O81 2.079 . S
Mg68 O90 2.106 . S
Mg68 O91 2.079 . S
O69 Mg68 1.917 . S
O69 Mg70 1.926 . S
O69 Mg71 1.986 . S
Mg70 O69 1.926 . S
Mg70 O84 1.984 . S
Mg70 O87 1.988 . S
Mg70 O88 2.061 . S
Mg71 O69 1.986 . S
Mg71 O79 2.238 . S
Mg71 O83 2.042 . S
Mg71 O85 2.041 . S
Mg71 O92 2.038 . S
C72 O78 1.247 . S
C72 O79 1.289 . S
C73 O91 1.245 . S
C73 O92 1.274 . S
O74 C62 1.241 . S
O74 Mg67 2.042 . S
O75 C62 1.280 . S
O75 Mg65 1.984 . S
O76 C63 1.277 . S
O76 Mg67 2.041 . S
O77 C63 1.245 . S
O77 Mg65 1.988 . S
O78 Mg65 2.061 . S
O78 C72 1.247 . S
O79 Mg68 2.106 . S
O79 Mg71 2.238 . S
O79 C72 1.289 . S
C80 O81 1.245 . S
C80 O82 1.274 . S
O81 Mg68 2.079 . S
O81 C80 1.245 . S
O82 Mg67 2.038 . S
O82 C80 1.274 . S
O83 Mg71 2.042 . S
O83 C86 1.241 . S
O84 Mg70 1.984 . S
O84 C86 1.280 . S
O85 Mg71 2.041 . S
O85 C89 1.277 . S
C86 O83 1.241 . S
C86 O84 1.280 . S
O87 Mg70 1.988 . S
O87 C89 1.245 . S
O88 C64 1.247 . S
O88 Mg70 2.061 . S
C89 O85 1.277 . S
C89 O87 1.245 . S
O90 C64 1.289 . S
O90 Mg67 2.238 . S
O90 Mg68 2.106 . S
O91 Mg68 2.079 . S
O91 C73 1.245 . S
O92 Mg71 2.038 . S
O92 C73 1.274 . S
C93 O105 1.241 . S
C93 O106 1.280 . S
C94 O107 1.277 . S
C94 O108 1.245 . S
C95 O119 1.247 . S
C95 O121 1.289 . S
Mg96 O97 1.926 . S
Mg96 O106 1.984 . S
Mg96 O108 1.988 . S
Mg96 O109 2.061 . S
O97 Mg96 1.926 . S
O97 Mg98 1.986 . S
O97 Mg99 1.917 . S
Mg98 O97 1.986 . S
Mg98 O105 2.042 . S
Mg98 O107 2.041 . S
Mg98 O113 2.038 . S
Mg98 O121 2.238 . S
Mg99 O97 1.917 . S
Mg99 O100 1.917 . S
Mg99 O110 2.106 . S
Mg99 O112 2.079 . S
Mg99 O121 2.106 . S
Mg99 O122 2.079 . S
O100 Mg99 1.917 . S
O100 Mg101 1.926 . S
O100 Mg102 1.986 . S
Mg101 O100 1.926 . S
Mg101 O115 1.984 . S
Mg101 O118 1.988 . S
Mg101 O119 2.061 . S
Mg102 O100 1.986 . S
Mg102 O110 2.238 . S
Mg102 O114 2.042 . S
Mg102 O116 2.041 . S
Mg102 O123 2.038 . S
C103 O109 1.247 . S
C103 O110 1.289 . S
C104 O122 1.245 . S
C104 O123 1.274 . S
O105 C93 1.241 . S
O105 Mg98 2.042 . S
O106 C93 1.280 . S
O106 Mg96 1.984 . S
O107 C94 1.277 . S
O107 Mg98 2.041 . S
O108 C94 1.245 . S
O108 Mg96 1.988 . S
O109 Mg96 2.061 . S
O109 C103 1.247 . S
O110 Mg99 2.106 . S
O110 Mg102 2.238 . S
O110 C103 1.289 . S
C111 O112 1.245 . S
C111 O113 1.274 . S
O112 Mg99 2.079 . S
O112 C111 1.245 . S
O113 Mg98 2.038 . S
O113 C111 1.274 . S
O114 Mg102 2.042 . S
O114 C117 1.241 . S
O115 Mg101 1.984 . S
O115 C117 1.280 . S
O116 Mg102 2.041 . S
O116 C120 1.277 . S
C117 O114 1.241 . S
C117 O115 1.280 . S
O118 Mg101 1.988 . S
O118 C120 1.245 . S
O119 C95 1.247 . S
O119 Mg101 2.061 . S
C120 O116 1.277 . S
C120 O118 1.245 . S
O121 C95 1.289 . S
O121 Mg98 2.238 . S
O121 Mg99 2.106 . S
O122 Mg99 2.079 . S
O122 C104 1.245 . S
O123 Mg102 2.038 . S
O123 C104 1.274 . S
C124 C125 1.391 . S
C124 C126 1.394 . S
C124 H140 0.931 . S
C125 C124 1.391 . S
C125 C129 1.376 . S
C126 C124 1.394 . S
C126 C127 1.369 . S
C126 C130 1.531 . S
C127 C126 1.369 . S
C127 C128 1.410 . S
C127 C135 1.503 1_655 S
C128 C127 1.410 . S
C128 C129 1.392 . S
C128 C131 1.511 1_655 S
C129 C125 1.376 . S
C129 C128 1.392 . S
C129 H141 0.929 . S
C130 C126 1.531 . S
C130 H142 0.960 . S
C130 H143 0.962 . S
C130 H144 0.960 . S
C131 C128 1.511 1_455 S
C131 H145 0.961 . S
C131 H146 0.961 . S
C131 H147 0.961 . S
C132 C133 1.370 . S
C132 C134 1.363 1_455 S
C132 H148 0.931 . S
C133 C132 1.370 . S
C133 C137 1.408 . S
C134 C132 1.363 1_655 S
C134 C135 1.370 1_655 S
C134 C138 1.524 . S
C135 C127 1.503 1_455 S
C135 C134 1.370 1_455 S
C135 C136 1.403 . S
C136 C135 1.403 . S
C136 C137 1.404 . S
C136 C139 1.539 . S
C137 C133 1.408 . S
C137 C136 1.404 . S
C137 H149 0.930 . S
C138 C134 1.524 . S
C138 H150 0.956 . S
C138 H151 0.961 . S
C138 H152 0.961 . S
C139 C136 1.539 . S
C139 H153 0.958 . S
C139 H154 0.961 . S
C139 H155 0.960 . S
H140 C124 0.931 . S
H141 C129 0.929 . S
H142 C130 0.960 . S
H143 C130 0.962 . S
H144 C130 0.960 . S
H145 C131 0.961 . S
H146 C131 0.961 . S
H147 C131 0.961 . S
H148 C132 0.931 . S
H149 C137 0.930 . S
H150 C138 0.956 . S
H151 C138 0.961 . S
H152 C138 0.961 . S
H153 C139 0.958 . S
H154 C139 0.961 . S
H155 C139 0.960 . S
C156 C157 1.391 . S
C156 C158 1.394 . S
C156 H172 0.931 . S
C157 C156 1.391 . S
C157 C161 1.376 . S
C158 C156 1.394 . S
C158 C159 1.369 . S
C158 C162 1.531 1_545 S
C159 C158 1.369 . S
C159 C160 1.410 . S
C159 C167 1.503 1_545 S
C160 C159 1.410 . S
C160 C161 1.392 . S
C160 C163 1.511 . S
C161 C157 1.376 . S
C161 C160 1.392 . S
C161 H173 0.929 . S
C162 C158 1.531 1_565 S
C162 H174 0.960 . S
C162 H175 0.962 1_554 S
C162 H176 0.960 . S
C163 C160 1.511 . S
C163 H177 0.961 1_554 S
C163 H178 0.961 1_554 S
C163 H179 0.961 . S
C164 C165 1.370 . S
C164 C166 1.363 . S
C164 H180 0.931 . S
C165 C164 1.370 . S
C165 C169 1.408 1_556 S
C166 C164 1.363 . S
C166 C167 1.370 1_556 S
C166 C170 1.524 . S
C167 C159 1.503 1_565 S
C167 C166 1.370 1_554 S
C167 C168 1.403 . S
C168 C167 1.403 . S
C168 C169 1.404 . S
C168 C171 1.539 . S
C169 C165 1.408 1_554 S
C169 C168 1.404 . S
C169 H181 0.930 . S
C170 C166 1.524 . S
C170 H182 0.956 . S
C170 H183 0.961 1_565 S
C170 H184 0.961 . S
C171 C168 1.539 . S
C171 H185 0.958 . S
C171 H186 0.961 . S
C171 H187 0.960 1_565 S
H172 C156 0.931 . S
H173 C161 0.929 . S
H174 C162 0.960 . S
H175 C162 0.962 1_556 S
H176 C162 0.960 . S
H177 C163 0.961 1_556 S
H178 C163 0.961 1_556 S
H179 C163 0.961 . S
H180 C164 0.931 . S
H181 C169 0.930 . S
H182 C170 0.956 . S
H183 C170 0.961 1_545 S
H184 C170 0.961 . S
H185 C171 0.958 . S
H186 C171 0.961 . S
H187 C171 0.960 1_545 S
C188 C189 1.391 . S
C188 C190 1.394 . S
C188 H204 0.931 . S
C189 C188 1.391 . S
C189 C193 1.376 . S
C190 C188 1.394 . S
C190 C191 1.369 . S
C190 C194 1.531 . S
C191 C190 1.369 . S
C191 C192 1.410 . S
C191 C199 1.503 . S
C192 C191 1.410 . S
C192 C193 1.392 . S
C192 C195 1.511 . S
C193 C189 1.376 . S
C193 C192 1.392 . S
C193 H205 0.929 . S
C194 C190 1.531 . S
C194 H206 0.960 . S
C194 H207 0.962 . S
C194 H208 0.960 . S
C195 C192 1.511 . S
C195 H209 0.961 . S
C195 H210 0.961 . S
C195 H211 0.961 . S
C196 C197 1.370 . S
C196 C198 1.363 . S
C196 H212 0.931 . S
C197 C196 1.370 . S
C197 C201 1.408 . S
C198 C196 1.363 . S
C198 C199 1.370 . S
C198 C202 1.524 . S
C199 C191 1.503 . S
C199 C198 1.370 . S
C199 C200 1.403 . S
C200 C199 1.403 . S
C200 C201 1.404 . S
C200 C203 1.539 . S
C201 C197 1.408 . S
C201 C200 1.404 . S
C201 H213 0.930 . S
C202 C198 1.524 . S
C202 H214 0.956 . S
C202 H215 0.961 . S
C202 H216 0.961 . S
C203 C200 1.539 . S
C203 H217 0.958 . S
C203 H218 0.961 . S
C203 H219 0.960 . S
H204 C188 0.931 . S
H205 C193 0.929 . S
H206 C194 0.960 . S
H207 C194 0.962 . S
H208 C194 0.960 . S
H209 C195 0.961 . S
H210 C195 0.961 . S
H211 C195 0.961 . S
H212 C196 0.931 . S
H213 C201 0.930 . S
H214 C202 0.956 . S
H215 C202 0.961 . S
H216 C202 0.961 . S
H217 C203 0.958 . S
H218 C203 0.961 . S
H219 C203 0.960 . S
C220 C221 1.391 . S
C220 C222 1.394 . S
C220 H236 0.931 . S
C221 C220 1.391 . S
C221 C225 1.376 . S
C222 C220 1.394 . S
C222 C223 1.369 . S
C222 C226 1.531 1_554 S
C223 C222 1.369 . S
C223 C224 1.410 1_645 S
C223 C231 1.503 1_644 S
C224 C223 1.410 1_465 S
C224 C225 1.392 1_465 S
C224 C227 1.511 . S
C225 C221 1.376 . S
C225 C224 1.392 1_645 S
C225 H237 0.929 1_645 S
C226 C222 1.531 1_556 S
C226 H238 0.960 . S
C226 H239 0.962 . S
C226 H240 0.960 . S
C227 C224 1.511 . S
C227 H241 0.961 . S
C227 H242 0.961 . S
C227 H243 0.961 . S
C228 C229 1.370 . S
C228 C230 1.355 1_455 S
C228 H244 0.931 . S
C229 C228 1.370 . S
C229 C233 1.408 1_565 S
C230 C228 1.355 1_655 S
C230 C231 1.367 1_655 S
C230 C234 1.536 . S
C231 C223 1.503 1_466 S
C231 C230 1.367 1_455 S
C231 C232 1.403 1_565 S
C232 C231 1.403 1_545 S
C232 C233 1.404 . S
C232 C235 1.539 1_556 S
C233 C229 1.408 1_545 S
C233 C232 1.404 . S
C233 H245 0.930 . S
C234 C230 1.536 . S
C234 H246 0.956 . S
C234 H247 0.961 1_556 S
C234 H248 0.961 . S
C235 C232 1.539 1_554 S
C235 H249 0.958 1_554 S
C235 H250 0.961 . S
C235 H251 0.959 . S
H236 C220 0.931 . S
H237 C225 0.929 1_465 S
H238 C226 0.960 . S
H239 C226 0.962 . S
H240 C226 0.960 . S
H241 C227 0.961 . S
H242 C227 0.961 . S
H243 C227 0.961 . S
H244 C228 0.931 . S
H245 C233 0.930 . S
H246 C234 0.956 . S
H247 C234 0.961 1_554 S
H248 C234 0.961 . S
H249 C235 0.958 1_556 S
H250 C235 0.961 . S
H251 C235 0.959 . S
C252 C253 1.391 . S
C252 C254 1.394 . S
C252 H268 0.931 . S
C253 C252 1.391 . S
C253 C257 1.376 . S
C254 C252 1.394 . S
C254 C255 1.369 . S
C254 C258 1.531 . S
C255 C254 1.369 . S
C255 C256 1.410 . S
C255 C263 1.503 . S
C256 C255 1.410 . S
C256 C257 1.392 . S
C256 C259 1.511 . S
C257 C253 1.376 . S
C257 C256 1.392 . S
C257 H269 0.929 . S
C258 C254 1.531 . S
C258 H270 0.960 . S
C258 H271 0.962 . S
C258 H272 0.960 . S
C259 C256 1.511 . S
C259 H273 0.961 . S
C259 H274 0.961 . S
C259 H275 0.961 . S
C260 C261 1.370 . S
C260 C262 1.363 1_554 S
C260 H276 0.931 . S
C261 C260 1.370 . S
C261 C265 1.416 . S
C262 C260 1.363 1_556 S
C262 C263 1.370 . S
C262 C266 1.524 . S
C263 C255 1.503 . S
C263 C262 1.370 . S
C263 C264 1.403 . S
C264 C263 1.403 . S
C264 C265 1.395 1_556 S
C264 C267 1.539 . S
C265 C261 1.416 . S
C265 C264 1.395 1_554 S
C265 H277 0.931 . S
C266 C262 1.524 . S
C266 H278 0.956 . S
C266 H279 0.961 . S
C266 H280 0.961 . S
C267 C264 1.539 . S
C267 H281 0.958 . S
C267 H282 0.961 . S
C267 H283 0.960 . S
H268 C252 0.931 . S
H269 C257 0.929 . S
H270 C258 0.960 . S
H271 C258 0.962 . S
H272 C258 0.960 . S
H273 C259 0.961 . S
H274 C259 0.961 . S
H275 C259 0.961 . S
H276 C260 0.931 . S
H277 C265 0.931 . S
H278 C266 0.956 . S
H279 C266 0.961 . S
H280 C266 0.961 . S
H281 C267 0.958 . S
H282 C267 0.961 . S
H283 C267 0.960 . S
C284 C285 1.391 . S
C284 C286 1.394 . S
C284 H300 0.931 . S
C285 C284 1.391 . S
C285 C289 1.376 . S
C286 C284 1.394 . S
C286 C287 1.369 . S
C286 C290 1.531 . S
C287 C286 1.369 . S
C287 C288 1.410 . S
C287 C295 1.503 . S
C288 C287 1.410 . S
C288 C289 1.392 . S
C288 C291 1.511 . S
C289 C285 1.376 . S
C289 C288 1.392 . S
C289 H301 0.929 . S
C290 C286 1.531 . S
C290 H302 0.960 . S
C290 H303 0.962 . S
C290 H304 0.960 . S
C291 C288 1.511 . S
C291 H305 0.961 . S
C291 H306 0.961 . S
C291 H307 0.961 1_655 S
C292 C293 1.370 . S
C292 C294 1.363 . S
C292 H308 0.931 . S
C293 C292 1.370 . S
C293 C297 1.408 . S
C294 C292 1.363 . S
C294 C295 1.370 . S
C294 C298 1.524 . S
C295 C287 1.503 . S
C295 C294 1.370 . S
C295 C296 1.403 . S
C296 C295 1.403 . S
C296 C297 1.404 . S
C296 C299 1.539 . S
C297 C293 1.408 . S
C297 C296 1.404 . S
C297 H309 0.930 1_655 S
C298 C294 1.524 . S
C298 H310 0.956 . S
C298 H311 0.961 . S
C298 H312 0.961 . S
C299 C296 1.539 . S
C299 H313 0.958 . S
C299 H314 0.961 1_655 S
C299 H315 0.960 . S
H300 C284 0.931 . S
H301 C289 0.929 . S
H302 C290 0.960 . S
H303 C290 0.962 . S
H304 C290 0.960 . S
H305 C291 0.961 . S
H306 C291 0.961 . S
H307 C291 0.961 1_455 S
H308 C292 0.931 . S
H309 C297 0.930 1_455 S
H310 C298 0.956 . S
H311 C298 0.961 . S
H312 C298 0.961 . S
H313 C299 0.958 . S
H314 C299 0.961 1_455 S
H315 C299 0.960 . S
C316 C317 1.391 . S
C316 C318 1.394 1_556 S
C316 H332 0.931 . S
C317 C316 1.391 . S
C317 C321 1.376 . S
C318 C316 1.394 1_554 S
C318 C319 1.369 . S
C318 C322 1.531 . S
C319 C318 1.369 . S
C319 C320 1.410 . S
C319 C327 1.503 . S
C320 C319 1.410 . S
C320 C321 1.392 1_554 S
C320 C323 1.511 . S
C321 C317 1.376 . S
C321 C320 1.392 1_556 S
C321 H333 0.929 . S
C322 C318 1.531 . S
C322 H334 0.960 . S
C322 H335 0.962 . S
C322 H336 0.960 . S
C323 C320 1.511 . S
C323 H337 0.961 . S
C323 H338 0.961 . S
C323 H339 0.961 . S
C324 C325 1.370 . S
C324 C326 1.363 . S
C324 H340 0.931 . S
C325 C324 1.370 . S
C325 C329 1.408 . S
C326 C324 1.363 . S
C326 C327 1.370 . S
C326 C330 1.524 . S
C327 C319 1.503 . S
C327 C326 1.370 . S
C327 C328 1.403 . S
C328 C327 1.403 . S
C328 C329 1.404 . S
C328 C331 1.539 . S
C329 C325 1.408 . S
C329 C328 1.404 . S
C329 H341 0.930 . S
C330 C326 1.524 . S
C330 H342 0.956 . S
C330 H343 0.961 . S
C330 H344 0.961 . S
C331 C328 1.539 . S
C331 H345 0.958 . S
C331 H346 0.961 . S
C331 H347 0.960 . S
H332 C316 0.931 . S
H333 C321 0.929 . S
H334 C322 0.960 . S
H335 C322 0.962 . S
H336 C322 0.960 . S
H337 C323 0.961 . S
H338 C323 0.961 . S
H339 C323 0.961 . S
H340 C324 0.931 . S
H341 C329 0.930 . S
H342 C330 0.956 . S
H343 C330 0.961 . S
H344 C330 0.961 . S
H345 C331 0.958 . S
H346 C331 0.961 . S
H347 C331 0.960 . S
C348 C349 1.391 . S
C348 C350 1.394 . S
C348 H364 0.931 1_455 S
C349 C348 1.391 . S
C349 C353 1.376 . S
C350 C348 1.394 . S
C350 C351 1.369 . S
C350 C354 1.531 . S
C351 C350 1.369 . S
C351 C352 1.410 . S
C351 C359 1.503 . S
C352 C351 1.410 . S
C352 C353 1.392 . S
C352 C355 1.511 . S
C353 C349 1.376 . S
C353 C352 1.392 . S
C353 H365 0.929 . S
C354 C350 1.531 . S
C354 H366 0.960 . S
C354 H367 0.962 1_455 S
C354 H368 0.960 . S
C355 C352 1.511 . S
C355 H369 0.961 . S
C355 H370 0.961 . S
C355 H371 0.961 . S
C356 C357 1.370 . S
C356 C358 1.363 . S
C356 H372 0.931 . S
C357 C356 1.370 . S
C357 C361 1.408 . S
C358 C356 1.363 . S
C358 C359 1.370 . S
C358 C362 1.524 . S
C359 C351 1.503 . S
C359 C358 1.370 . S
C359 C360 1.403 . S
C360 C359 1.403 . S
C360 C361 1.404 . S
C360 C363 1.539 . S
C361 C357 1.408 . S
C361 C360 1.404 . S
C361 H373 0.930 . S
C362 C358 1.524 . S
C362 H374 0.956 1_455 S
C362 H375 0.961 . S
C362 H376 0.961 . S
C363 C360 1.539 . S
C363 H377 0.958 . S
C363 H378 0.961 . S
C363 H379 0.960 . S
H364 C348 0.931 1_655 S
H365 C353 0.929 . S
H366 C354 0.960 . S
H367 C354 0.962 1_655 S
H368 C354 0.960 . S
H369 C355 0.961 . S
H370 C355 0.961 . S
H371 C355 0.961 . S
H372 C356 0.931 . S
H373 C361 0.930 . S
H374 C362 0.956 1_655 S
H375 C362 0.961 . S
H376 C362 0.961 . S
H377 C363 0.958 . S
H378 C363 0.961 . S
H379 C363 0.960 . S
C380 C381 1.391 1_655 S
C380 C382 1.394 . S
C380 H396 0.931 . S
C381 C380 1.391 1_455 S
C381 C385 1.376 1_455 S
C382 C380 1.394 . S
C382 C383 1.369 . S
C382 C386 1.531 . S
C383 C382 1.369 . S
C383 C384 1.410 . S
C383 C391 1.503 . S
C384 C383 1.410 . S
C384 C385 1.392 . S
C384 C387 1.511 . S
C385 C381 1.376 1_655 S
C385 C384 1.392 . S
C385 H397 0.929 1_655 S
C386 C382 1.531 . S
C386 H398 0.960 . S
C386 H399 0.962 . S
C386 H400 0.960 . S
C387 C384 1.511 . S
C387 H401 0.961 . S
C387 H402 0.961 . S
C387 H403 0.961 . S
C388 C389 1.370 . S
C388 C390 1.363 . S
C388 H404 0.931 . S
C389 C388 1.370 . S
C389 C393 1.408 . S
C390 C388 1.363 . S
C390 C391 1.370 . S
C390 C394 1.524 . S
C391 C383 1.503 . S
C391 C390 1.370 . S
C391 C392 1.403 . S
C392 C391 1.403 . S
C392 C393 1.404 . S
C392 C395 1.539 . S
C393 C389 1.408 . S
C393 C392 1.404 . S
C393 H405 0.930 . S
C394 C390 1.524 . S
C394 H406 0.956 . S
C394 H407 0.961 . S
C394 H408 0.961 . S
C395 C392 1.539 . S
C395 H409 0.958 . S
C395 H410 0.961 . S
C395 H411 0.960 . S
H396 C380 0.931 . S
H397 C385 0.929 1_455 S
H398 C386 0.960 . S
H399 C386 0.962 . S
H400 C386 0.960 . S
H401 C387 0.961 . S
H402 C387 0.961 . S
H403 C387 0.961 . S
H404 C388 0.931 . S
H405 C393 0.930 . S
H406 C394 0.956 . S
H407 C394 0.961 . S
H408 C394 0.961 . S
H409 C395 0.958 . S
H410 C395 0.961 . S
H411 C395 0.960 . S
C412 C413 1.391 . S
C412 C414 1.394 . S
C412 H428 0.931 . S
C413 C412 1.391 . S
C413 C417 1.376 . S
C414 C412 1.394 . S
C414 C415 1.369 . S
C414 C418 1.531 . S
C415 C414 1.369 . S
C415 C416 1.410 . S
C415 C423 1.503 . S
C416 C415 1.410 . S
C416 C417 1.392 . S
C416 C419 1.511 . S
C417 C413 1.376 . S
C417 C416 1.392 . S
C417 H429 0.929 . S
C418 C414 1.531 . S
C418 H430 0.960 . S
C418 H431 0.962 . S
C418 H432 0.960 . S
C419 C416 1.511 . S
C419 H433 0.961 . S
C419 H434 0.961 . S
C419 H435 0.961 . S
C420 C421 1.370 . S
C420 C422 1.363 . S
C420 H436 0.931 . S
C421 C420 1.370 . S
C421 C425 1.408 . S
C422 C420 1.363 . S
C422 C423 1.370 . S
C422 C426 1.524 . S
C423 C415 1.503 . S
C423 C422 1.370 . S
C423 C424 1.403 . S
C424 C423 1.403 . S
C424 C425 1.404 . S
C424 C427 1.539 . S
C425 C421 1.408 . S
C425 C424 1.404 . S
C425 H437 0.930 . S
C426 C422 1.524 . S
C426 H438 0.956 . S
C426 H439 0.961 . S
C426 H440 0.961 . S
C427 C424 1.539 . S
C427 H441 0.958 . S
C427 H442 0.961 . S
C427 H443 0.960 . S
H428 C412 0.931 . S
H429 C417 0.929 . S
H430 C418 0.960 . S
H431 C418 0.962 . S
H432 C418 0.960 . S
H433 C419 0.961 . S
H434 C419 0.961 . S
H435 C419 0.961 . S
H436 C420 0.931 . S
H437 C425 0.930 . S
H438 C426 0.956 . S
H439 C426 0.961 . S
H440 C426 0.961 . S
H441 C427 0.958 . S
H442 C427 0.961 . S
H443 C427 0.960 . S
C444 C445 1.391 1_455 S
C444 C446 1.394 . S
C444 H460 0.931 1_455 S
C445 C444 1.391 1_655 S
C445 C449 1.376 1_655 S
C446 C444 1.394 . S
C446 C447 1.369 . S
C446 C450 1.531 . S
C447 C446 1.369 . S
C447 C448 1.410 . S
C447 C455 1.503 . S
C448 C447 1.410 . S
C448 C449 1.392 . S
C448 C451 1.511 . S
C449 C445 1.376 1_455 S
C449 C448 1.392 . S
C449 H461 0.929 . S
C450 C446 1.531 . S
C450 H462 0.960 . S
C450 H463 0.962 . S
C450 H464 0.960 . S
C451 C448 1.511 . S
C451 H465 0.961 . S
C451 H466 0.961 . S
C451 H467 0.961 . S
C452 C453 1.370 . S
C452 C454 1.363 . S
C452 H468 0.931 . S
C453 C452 1.370 . S
C453 C457 1.408 . S
C454 C452 1.363 . S
C454 C455 1.370 . S
C454 C458 1.524 . S
C455 C447 1.503 . S
C455 C454 1.370 . S
C455 C456 1.403 . S
C456 C455 1.403 . S
C456 C457 1.404 . S
C456 C459 1.539 . S
C457 C453 1.408 . S
C457 C456 1.404 . S
C457 H469 0.930 . S
C458 C454 1.524 . S
C458 H470 0.956 . S
C458 H471 0.961 . S
C458 H472 0.961 . S
C459 C456 1.539 . S
C459 H473 0.958 . S
C459 H474 0.961 . S
C459 H475 0.960 . S
H460 C444 0.931 1_655 S
H461 C449 0.929 . S
H462 C450 0.960 . S
H463 C450 0.962 . S
H464 C450 0.960 . S
H465 C451 0.961 . S
H466 C451 0.961 . S
H467 C451 0.961 . S
H468 C452 0.931 . S
H469 C457 0.930 . S
H470 C458 0.956 . S
H471 C458 0.961 . S
H472 C458 0.961 . S
H473 C459 0.958 . S
H474 C459 0.961 . S
H475 C459 0.960 . S
C476 C477 1.391 . S
C476 C478 1.394 . S
C476 H492 0.931 . S
C477 C476 1.391 . S
C477 C481 1.376 . S
C478 C476 1.394 . S
C478 C479 1.369 . S
C478 C482 1.531 . S
C479 C478 1.369 . S
C479 C480 1.410 . S
C479 C487 1.503 . S
C480 C479 1.410 . S
C480 C481 1.392 . S
C480 C483 1.511 . S
C481 C477 1.376 . S
C481 C480 1.392 . S
C481 H493 0.929 . S
C482 C478 1.531 . S
C482 H494 0.960 . S
C482 H495 0.962 . S
C482 H496 0.960 . S
C483 C480 1.511 . S
C483 H497 0.961 . S
C483 H498 0.961 . S
C483 H499 0.961 . S
C484 C485 1.370 . S
C484 C486 1.363 . S
C484 H500 0.931 . S
C485 C484 1.370 . S
C485 C489 1.408 . S
C486 C484 1.363 . S
C486 C487 1.370 . S
C486 C490 1.524 . S
C487 C479 1.503 . S
C487 C486 1.370 . S
C487 C488 1.403 . S
C488 C487 1.403 . S
C488 C489 1.404 . S
C488 C491 1.539 . S
C489 C485 1.408 . S
C489 C488 1.404 . S
C489 H501 0.930 . S
C490 C486 1.524 . S
C490 H502 0.956 . S
C490 H503 0.961 . S
C490 H504 0.961 . S
C491 C488 1.539 . S
C491 H505 0.958 . S
C491 H506 0.961 . S
C491 H507 0.960 . S
H492 C476 0.931 . S
H493 C481 0.929 . S
H494 C482 0.960 . S
H495 C482 0.962 . S
H496 C482 0.960 . S
H497 C483 0.961 . S
H498 C483 0.961 . S
H499 C483 0.961 . S
H500 C484 0.931 . S
H501 C489 0.930 . S
H502 C490 0.956 . S
H503 C490 0.961 . S
H504 C490 0.961 . S
H505 C491 0.958 . S
H506 C491 0.961 . S
H507 C491 0.960 . S
C508 C509 1.391 . S
C508 C510 1.394 . S
C508 H524 0.931 . S
C509 C508 1.391 . S
C509 C513 1.376 . S
C510 C508 1.394 . S
C510 C511 1.369 . S
C510 C514 1.531 . S
C511 C510 1.369 . S
C511 C512 1.410 . S
C511 C519 1.503 . S
C512 C511 1.410 . S
C512 C513 1.392 . S
C512 C515 1.511 1_455 S
C513 C509 1.376 . S
C513 C512 1.392 . S
C513 H525 0.929 . S
C514 C510 1.531 . S
C514 H526 0.960 . S
C514 H527 0.962 . S
C514 H528 0.960 . S
C515 C512 1.511 1_655 S
C515 H529 0.961 . S
C515 H530 0.961 1_655 S
C515 H531 0.961 . S
C516 C517 1.370 . S
C516 C518 1.363 1_565 S
C516 H532 0.931 . S
C517 C516 1.370 . S
C517 C521 1.408 . S
C518 C516 1.363 1_545 S
C518 C519 1.370 . S
C518 C522 1.524 . S
C519 C511 1.503 . S
C519 C518 1.370 . S
C519 C520 1.403 . S
C520 C519 1.403 . S
C520 C521 1.404 1_545 S
C520 C523 1.539 . S
C521 C517 1.408 . S
C521 C520 1.404 1_565 S
C521 H533 0.930 . S
C522 C518 1.524 . S
C522 H534 0.956 . S
C522 H535 0.961 . S
C522 H536 0.961 . S
C523 C520 1.539 . S
C523 H537 0.958 . S
C523 H538 0.961 . S
C523 H539 0.960 . S
H524 C508 0.931 . S
H525 C513 0.929 . S
H526 C514 0.960 . S
H527 C514 0.962 . S
H528 C514 0.960 . S
H529 C515 0.961 . S
H530 C515 0.961 1_455 S
H531 C515 0.961 . S
H532 C516 0.931 . S
H533 C521 0.930 . S
H534 C522 0.956 . S
H535 C522 0.961 . S
H536 C522 0.961 . S
H537 C523 0.958 . S
H538 C523 0.961 . S
H539 C523 0.960 . S
C540 C541 1.391 . S
C540 C542 1.394 . S
C540 H556 0.931 . S
C541 C540 1.391 . S
C541 C545 1.376 . S
C542 C540 1.394 . S
C542 C543 1.369 . S
C542 C546 1.531 . S
C543 C542 1.369 . S
C543 C544 1.410 . S
C543 C551 1.503 . S
C544 C543 1.410 . S
C544 C545 1.392 . S
C544 C547 1.511 . S
C545 C541 1.376 . S
C545 C544 1.392 . S
C545 H557 0.929 . S
C546 C542 1.531 . S
C546 H558 0.960 . S
C546 H559 0.962 . S
C546 H560 0.960 . S
C547 C544 1.511 . S
C547 H561 0.961 . S
C547 H562 0.961 . S
C547 H563 0.961 . S
C548 C549 1.370 . S
C548 C550 1.363 . S
C548 H564 0.931 . S
C549 C548 1.370 . S
C549 C553 1.408 . S
C550 C548 1.363 . S
C550 C551 1.370 . S
C550 C554 1.524 . S
C551 C543 1.503 . S
C551 C550 1.370 . S
C551 C552 1.403 . S
C552 C551 1.403 . S
C552 C553 1.404 . S
C552 C555 1.539 . S
C553 C549 1.408 . S
C553 C552 1.404 . S
C553 H565 0.930 . S
C554 C550 1.524 . S
C554 H566 0.956 . S
C554 H567 0.961 . S
C554 H568 0.961 . S
C555 C552 1.539 . S
C555 H569 0.958 . S
C555 H570 0.961 . S
C555 H571 0.960 . S
H556 C540 0.931 . S
H557 C545 0.929 . S
H558 C546 0.960 . S
H559 C546 0.962 . S
H560 C546 0.960 . S
H561 C547 0.961 . S
H562 C547 0.961 . S
H563 C547 0.961 . S
H564 C548 0.931 . S
H565 C553 0.930 . S
H566 C554 0.956 . S
H567 C554 0.961 . S
H568 C554 0.961 . S
H569 C555 0.958 . S
H570 C555 0.961 . S
H571 C555 0.960 . S
C572 C573 1.391 . S
C572 C574 1.394 . S
C572 H588 0.931 . S
C573 C572 1.391 . S
C573 C577 1.376 . S
C574 C572 1.394 . S
C574 C575 1.369 . S
C574 C578 1.531 . S
C575 C574 1.369 . S
C575 C576 1.410 . S
C575 C583 1.503 . S
C576 C575 1.410 . S
C576 C577 1.392 . S
C576 C579 1.511 . S
C577 C573 1.376 . S
C577 C576 1.392 . S
C577 H589 0.929 . S
C578 C574 1.531 . S
C578 H590 0.960 . S
C578 H591 0.962 1_655 S
C578 H592 0.960 . S
C579 C576 1.511 . S
C579 H593 0.961 . S
C579 H594 0.961 . S
C579 H595 0.961 . S
C580 C581 1.370 . S
C580 C582 1.363 1_545 S
C580 H596 0.931 . S
C581 C580 1.370 . S
C581 C585 1.408 . S
C582 C580 1.363 1_565 S
C582 C583 1.370 . S
C582 C586 1.524 . S
C583 C575 1.503 . S
C583 C582 1.370 . S
C583 C584 1.403 . S
C584 C583 1.403 . S
C584 C585 1.404 1_565 S
C584 C587 1.539 . S
C585 C581 1.408 . S
C585 C584 1.404 1_545 S
C585 H597 0.930 . S
C586 C582 1.524 . S
C586 H598 0.956 . S
C586 H599 0.961 . S
C586 H600 0.961 . S
C587 C584 1.539 . S
C587 H601 0.958 . S
C587 H602 0.961 . S
C587 H603 0.960 . S
H588 C572 0.931 . S
H589 C577 0.929 . S
H590 C578 0.960 . S
H591 C578 0.962 1_455 S
H592 C578 0.960 . S
H593 C579 0.961 . S
H594 C579 0.961 . S
H595 C579 0.961 . S
H596 C580 0.931 . S
H597 C585 0.930 . S
H598 C586 0.956 . S
H599 C586 0.961 . S
H600 C586 0.961 . S
H601 C587 0.958 . S
H602 C587 0.961 . S
H603 C587 0.960 . S
C604 C605 1.391 . S
C604 C606 1.394 . S
C604 H620 0.931 . S
C605 C604 1.391 . S
C605 C609 1.376 . S
C606 C604 1.394 . S
C606 C607 1.369 . S
C606 C610 1.531 . S
C607 C606 1.369 . S
C607 C608 1.410 . S
C607 C615 1.503 . S
C608 C607 1.410 . S
C608 C609 1.392 . S
C608 C611 1.511 . S
C609 C605 1.376 . S
C609 C608 1.392 . S
C609 H621 0.929 . S
C610 C606 1.531 . S
C610 H622 0.960 . S
C610 H623 0.962 . S
C610 H624 0.960 . S
C611 C608 1.511 . S
C611 H625 0.961 . S
C611 H626 0.961 . S
C611 H627 0.961 . S
C612 C613 1.370 . S
C612 C614 1.363 . S
C612 H628 0.931 . S
C613 C612 1.370 . S
C613 C617 1.408 . S
C614 C612 1.363 . S
C614 C615 1.370 . S
C614 C618 1.524 . S
C615 C607 1.503 . S
C615 C614 1.370 . S
C615 C616 1.403 . S
C616 C615 1.403 . S
C616 C617 1.404 . S
C616 C619 1.539 . S
C617 C613 1.408 . S
C617 C616 1.404 . S
C617 H629 0.930 . S
C618 C614 1.524 . S
C618 H630 0.956 . S
C618 H631 0.961 . S
C618 H632 0.961 . S
C619 C616 1.539 . S
C619 H633 0.958 . S
C619 H634 0.961 . S
C619 H635 0.960 . S
H620 C604 0.931 . S
H621 C609 0.929 . S
H622 C610 0.960 . S
H623 C610 0.962 . S
H624 C610 0.960 . S
H625 C611 0.961 . S
H626 C611 0.961 . S
H627 C611 0.961 . S
H628 C612 0.931 . S
H629 C617 0.930 . S
H630 C618 0.956 . S
H631 C618 0.961 . S
H632 C618 0.961 . S
H633 C619 0.958 . S
H634 C619 0.961 . S
H635 C619 0.960 . S
C125 C63 0.735 . S
C133 C27 0.646 . S
C157 C93 0.645 . S
C165 C55 0.712 . S
C189 C62 0.801 . S
C197 C24 0.691 . S
C221 C94 0.670 . S
C229 C58 0.681 . S
C253 C1 1.807 . S
C261 C103 1.642 . S
C285 C64 1.993 . S
C293 C31 1.867 1_655 S
C317 C33 1.694 . S
C325 C89 1.790 . S
C349 C117 1.897 1_455 S
C357 C10 1.999 . S
C381 C18 1.725 . S
C389 C11 1.706 . S
C413 C42 1.691 . S
C421 C49 1.718 1_655 S
C445 C73 1.701 . S
C453 C80 1.714 . S
C477 C104 1.694 1_455 S
C485 C111 1.716 . S
C509 C0 1.924 . S
C517 C41 2.009 . S
C541 C2 1.547 . S
C549 C32 1.717 . S
C573 C86 1.902 . S
C581 C95 2.001 . S
C605 C120 1.683 . S
C613 C72 1.584 . S
