# Generated by pormake.
# Topology unp, (4)-cn, num edge types: 1
# Building blocks:
#     Node 0, Type 0, BuildingBlock: GALJAG_clean_sbu_0, # of connection points: 4
#     Node 1, Type 0, BuildingBlock: GALJAG_clean_sbu_0, # of connection points: 4
#     Node 2, Type 0, BuildingBlock: GALJAG_clean_sbu_0, # of connection points: 4
#     Node 3, Type 0, BuildingBlock: GALJAG_clean_sbu_0, # of connection points: 4
#     Node 4, Type 0, BuildingBlock: GALJAG_clean_sbu_0, # of connection points: 4
#     Node 5, Type 0, BuildingBlock: GALJAG_clean_sbu_0, # of connection points: 4
#     Node 6, Type 0, BuildingBlock: GALJAG_clean_sbu_0, # of connection points: 4
#     Node 7, Type 0, BuildingBlock: GALJAG_clean_sbu_0, # of connection points: 4
#     Node 8, Type 0, BuildingBlock: GALJAG_clean_sbu_0, # of connection points: 4
#     Node 9, Type 0, BuildingBlock: GALJAG_clean_sbu_0, # of connection points: 4
#     Node 10, Type 0, BuildingBlock: GALJAG_clean_sbu_0, # of connection points: 4
#     Node 11, Type 0, BuildingBlock: GALJAG_clean_sbu_0, # of connection points: 4
#     Node 12, Type 0, BuildingBlock: GALJAG_clean_sbu_0, # of connection points: 4
#     Node 13, Type 0, BuildingBlock: GALJAG_clean_sbu_0, # of connection points: 4
#     Node 14, Type 0, BuildingBlock: GALJAG_clean_sbu_0, # of connection points: 4
#     Node 15, Type 0, BuildingBlock: GALJAG_clean_sbu_0, # of connection points: 4
#     Node 16, Type 0, BuildingBlock: GALJAG_clean_sbu_0, # of connection points: 4
#     Node 17, Type 0, BuildingBlock: GALJAG_clean_sbu_0, # of connection points: 4
#     Edge 18, Type (0, 0), BuildingBlock: MIFKUJ_clean_linker_0, # of connection points: 2
#     Edge 19, Type (0, 0), BuildingBlock: MIFKUJ_clean_linker_0, # of connection points: 2
#     Edge 20, Type (0, 0), BuildingBlock: MIFKUJ_clean_linker_0, # of connection points: 2
#     Edge 21, Type (0, 0), BuildingBlock: MIFKUJ_clean_linker_0, # of connection points: 2
#     Edge 22, Type (0, 0), BuildingBlock: MIFKUJ_clean_linker_0, # of connection points: 2
#     Edge 23, Type (0, 0), BuildingBlock: MIFKUJ_clean_linker_0, # of connection points: 2
#     Edge 24, Type (0, 0), BuildingBlock: MIFKUJ_clean_linker_0, # of connection points: 2
#     Edge 25, Type (0, 0), BuildingBlock: MIFKUJ_clean_linker_0, # of connection points: 2
#     Edge 26, Type (0, 0), BuildingBlock: MIFKUJ_clean_linker_0, # of connection points: 2
#     Edge 27, Type (0, 0), BuildingBlock: MIFKUJ_clean_linker_0, # of connection points: 2
#     Edge 28, Type (0, 0), BuildingBlock: MIFKUJ_clean_linker_0, # of connection points: 2
#     Edge 29, Type (0, 0), BuildingBlock: MIFKUJ_clean_linker_0, # of connection points: 2
#     Edge 30, Type (0, 0), BuildingBlock: MIFKUJ_clean_linker_0, # of connection points: 2
#     Edge 31, Type (0, 0), BuildingBlock: MIFKUJ_clean_linker_0, # of connection points: 2
#     Edge 32, Type (0, 0), BuildingBlock: MIFKUJ_clean_linker_0, # of connection points: 2
#     Edge 33, Type (0, 0), BuildingBlock: MIFKUJ_clean_linker_0, # of connection points: 2
#     Edge 34, Type (0, 0), BuildingBlock: MIFKUJ_clean_linker_0, # of connection points: 2
#     Edge 35, Type (0, 0), BuildingBlock: MIFKUJ_clean_linker_0, # of connection points: 2
#     Edge 36, Type (0, 0), BuildingBlock: MIFKUJ_clean_linker_0, # of connection points: 2
#     Edge 37, Type (0, 0), BuildingBlock: MIFKUJ_clean_linker_0, # of connection points: 2
#     Edge 38, Type (0, 0), BuildingBlock: MIFKUJ_clean_linker_0, # of connection points: 2
#     Edge 39, Type (0, 0), BuildingBlock: MIFKUJ_clean_linker_0, # of connection points: 2
#     Edge 40, Type (0, 0), BuildingBlock: MIFKUJ_clean_linker_0, # of connection points: 2
#     Edge 41, Type (0, 0), BuildingBlock: MIFKUJ_clean_linker_0, # of connection points: 2
#     Edge 42, Type (0, 0), BuildingBlock: MIFKUJ_clean_linker_0, # of connection points: 2
#     Edge 43, Type (0, 0), BuildingBlock: MIFKUJ_clean_linker_0, # of connection points: 2
#     Edge 44, Type (0, 0), BuildingBlock: MIFKUJ_clean_linker_0, # of connection points: 2
#     Edge 45, Type (0, 0), BuildingBlock: MIFKUJ_clean_linker_0, # of connection points: 2
#     Edge 46, Type (0, 0), BuildingBlock: MIFKUJ_clean_linker_0, # of connection points: 2
#     Edge 47, Type (0, 0), BuildingBlock: MIFKUJ_clean_linker_0, # of connection points: 2
#     Edge 48, Type (0, 0), BuildingBlock: MIFKUJ_clean_linker_0, # of connection points: 2
#     Edge 49, Type (0, 0), BuildingBlock: MIFKUJ_clean_linker_0, # of connection points: 2
#     Edge 50, Type (0, 0), BuildingBlock: MIFKUJ_clean_linker_0, # of connection points: 2
#     Edge 51, Type (0, 0), BuildingBlock: MIFKUJ_clean_linker_0, # of connection points: 2
#     Edge 52, Type (0, 0), BuildingBlock: MIFKUJ_clean_linker_0, # of connection points: 2
#     Edge 53, Type (0, 0), BuildingBlock: MIFKUJ_clean_linker_0, # of connection points: 2
# Relax obj value: 0.397
# Max RMSD: 0.139
# Mean RMSD: 0.139
data_MOF--net-unp--node1-GALJAG_clean_sbu_0--edge1-MIFKUJ_clean_linker_0
_symmetry_space_group_name_H-M    P1
_symmetry_Int_Tables_number       1
_symmetry_cell_setting            triclinic
loop_
_symmetry_equiv_pos_as_xyz
'x, y, z'
_cell_length_a     64.311775
_cell_length_b     64.291218
_cell_length_c     55.004807
_cell_angle_alpha  90.025958
_cell_angle_beta   89.979179
_cell_angle_gamma 119.99847
loop_
_atom_site_label
_atom_site_type_symbol
_atom_site_fract_x
_atom_site_fract_y
_atom_site_fract_z
_atom_type_partial_charge
In0 In 0.17242 0.16126 0.17488 0.0
O1 O 0.19768 0.20105 0.18325 0.0
O2 O 0.21129 0.17733 0.18745 0.0
C3 C 0.13259 0.16117 0.19081 0.0
C4 C 0.17139 0.16221 0.12582 0.0
C5 C 0.16813 0.11924 0.18966 0.0
O6 O 0.1486 0.16273 0.20518 0.0
O7 O 0.13698 0.16023 0.16865 0.0
O8 O 0.17922 0.12987 0.17055 0.0
O9 O 0.15966 0.13008 0.2016 0.0
C10 C 0.21552 0.19868 0.18809 0.0
O11 O 0.16061 0.14294 0.13783 0.0
O12 O 0.18255 0.18093 0.13854 0.0
In13 In 0.84122 0.01661 0.18095 0.0
O14 O 0.80126 0.00049 0.18939 0.0
O15 O 0.82479 0.03649 0.19991 0.0
C16 C 0.84721 0.97871 0.18988 0.0
C17 C 0.83281 0.01806 0.13317 0.0
C18 C 0.88514 0.05138 0.19516 0.0
O19 O 0.83788 0.98606 0.20543 0.0
O20 O 0.853 0.99021 0.17017 0.0
O21 O 0.87799 0.04883 0.17344 0.0
O22 O 0.86991 0.03664 0.20999 0.0
C23 C 0.80344 0.01954 0.19829 0.0
O24 O 0.84409 0.03684 0.14585 0.0
O25 O 0.8258 0.99867 0.14462 0.0
In26 In 0.005 0.84023 0.18033 0.0
O27 O 0.01695 0.86315 0.14585 0.0
O28 O 0.00251 0.8255 0.14221 0.0
C29 C 0.97028 0.85107 0.18956 0.0
C30 C 0.99011 0.79353 0.18945 0.0
C31 C 0.0457 0.87295 0.20297 0.0
O32 O 0.97873 0.85208 0.16863 0.0
O33 O 0.97921 0.84434 0.20612 0.0
O34 O 0.02515 0.86534 0.21202 0.0
O35 O 0.04576 0.86292 0.18333 0.0
C36 C 0.01128 0.8456 0.13178 0.0
O37 O 0.01207 0.80922 0.18825 0.0
O38 O 0.97604 0.80175 0.18762 0.0
In39 In 0.172 0.17073 0.81555 0.0
O40 O 0.21108 0.2004 0.80985 0.0
O41 O 0.18345 0.20885 0.80441 0.0
C42 C 0.17949 0.13813 0.79197 0.0
C43 C 0.17245 0.16957 0.86468 0.0
C44 C 0.12589 0.15743 0.80588 0.0
O45 O 0.16732 0.14666 0.78299 0.0
O46 O 0.18926 0.14733 0.81201 0.0
O47 O 0.13219 0.15025 0.82426 0.0
O48 O 0.14291 0.17157 0.79224 0.0
C49 C 0.20568 0.21633 0.80511 0.0
O50 O 0.16676 0.1513 0.85174 0.0
O51 O 0.17786 0.18841 0.85288 0.0
In52 In 0.83769 0.00789 0.82553 0.0
O53 O 0.83345 0.99379 0.86424 0.0
O54 O 0.83574 0.02767 0.85909 0.0
C55 C 0.85122 0.97626 0.81113 0.0
C56 C 0.79262 0.99489 0.81096 0.0
C57 C 0.87777 0.04803 0.81159 0.0
O58 O 0.84444 0.97684 0.83252 0.0
O59 O 0.85089 0.99143 0.79682 0.0
O60 O 0.86067 0.0361 0.79703 0.0
O61 O 0.87427 0.04001 0.83301 0.0
C62 C 0.83344 0.01162 0.87385 0.0
O63 O 0.80852 0.01654 0.81391 0.0
O64 O 0.79985 0.98017 0.81411 0.0
In65 In 0.01721 0.85134 0.82225 0.0
O66 O 0.02794 0.87185 0.85818 0.0
O67 O 0.01076 0.83376 0.85952 0.0
C68 C 0.05319 0.89176 0.80259 0.0
C69 C 0.02312 0.8138 0.81036 0.0
C70 C 0.97661 0.852 0.81119 0.0
O71 O 0.05526 0.88299 0.82234 0.0
O72 O 0.03301 0.87984 0.79235 0.0
O73 O 0.98728 0.84617 0.79566 0.0
O74 O 0.9859 0.85639 0.83203 0.0
C75 C 0.02006 0.85326 0.87119 0.0
O76 O 0.00311 0.81098 0.81705 0.0
O77 O 0.0394 0.8354 0.80819 0.0
In78 In 0.83423 0.49396 0.50903 0.0
O79 O 0.86008 0.53425 0.51493 0.0
O80 O 0.87165 0.50991 0.52517 0.0
C81 C 0.79455 0.49389 0.52557 0.0
C82 C 0.83252 0.49343 0.46004 0.0
C83 C 0.83161 0.45216 0.52169 0.0
O84 O 0.80963 0.49325 0.53973 0.0
O85 O 0.80009 0.49564 0.50342 0.0
O86 O 0.8422 0.4636 0.50274 0.0
O87 O 0.82261 0.46197 0.53448 0.0
C88 C 0.87688 0.53148 0.52301 0.0
O89 O 0.81861 0.47546 0.47277 0.0
O90 O 0.84726 0.51163 0.47202 0.0
In91 In 0.50008 0.33427 0.51348 0.0
O92 O 0.46115 0.3223 0.52404 0.0
O93 O 0.48712 0.35917 0.52707 0.0
C94 C 0.50294 0.29528 0.52626 0.0
C95 C 0.49275 0.33393 0.46528 0.0
C96 C 0.54517 0.36751 0.52614 0.0
O97 O 0.49896 0.3074 0.54169 0.0
O98 O 0.50458 0.30235 0.50463 0.0
O99 O 0.5381 0.36323 0.50437 0.0
O100 O 0.52937 0.35516 0.54176 0.0
C101 C 0.46535 0.34326 0.52861 0.0
O102 O 0.50839 0.35228 0.47646 0.0
O103 O 0.48072 0.31566 0.47846 0.0
In104 In 0.67461 0.1719 0.51024 0.0
O105 O 0.68353 0.14231 0.51905 0.0
O106 O 0.64724 0.13383 0.52135 0.0
C107 C 0.71652 0.20623 0.52951 0.0
C108 C 0.67789 0.17495 0.46133 0.0
C109 C 0.64024 0.18268 0.52188 0.0
O110 O 0.69685 0.19746 0.54076 0.0
O111 O 0.71522 0.1968 0.50907 0.0
O112 O 0.64421 0.17885 0.50036 0.0
O113 O 0.65343 0.18081 0.53768 0.0
C114 C 0.66199 0.12642 0.52278 0.0
O115 O 0.68365 0.19304 0.47466 0.0
O116 O 0.67046 0.15545 0.47268 0.0
In117 In 0.82907 0.50268 0.15026 0.0
O118 O 0.81202 0.48356 0.18596 0.0
O119 O 0.84313 0.51818 0.18784 0.0
C120 C 0.78518 0.49399 0.13629 0.0
C121 C 0.86326 0.54716 0.13607 0.0
C122 C 0.83589 0.46647 0.13528 0.0
O123 O 0.79518 0.50497 0.15564 0.0
O124 O 0.79738 0.48747 0.12378 0.0
O125 O 0.82847 0.47683 0.12117 0.0
O126 O 0.84092 0.47518 0.15641 0.0
C127 C 0.82717 0.50029 0.19925 0.0
O128 O 0.86819 0.53112 0.14177 0.0
O129 O 0.84119 0.54024 0.13611 0.0
In130 In 0.50153 0.33587 0.15617 0.0
O131 O 0.48638 0.31529 0.19168 0.0
O132 O 0.51664 0.35032 0.19385 0.0
C133 C 0.51275 0.30195 0.14409 0.0
C134 C 0.45968 0.33424 0.14569 0.0
C135 C 0.53619 0.3755 0.13408 0.0
O136 O 0.4913 0.29745 0.1453 0.0
O137 O 0.52832 0.32333 0.14898 0.0
O138 O 0.52373 0.35602 0.12271 0.0
O139 O 0.53015 0.37517 0.15595 0.0
C140 C 0.50127 0.33197 0.20511 0.0
O141 O 0.4748 0.34889 0.1605 0.0
O142 O 0.46628 0.32122 0.13482 0.0
In143 In 0.67634 0.17601 0.15127 0.0
O144 O 0.67866 0.19468 0.18738 0.0
O145 O 0.67322 0.15925 0.18843 0.0
C146 C 0.71503 0.21807 0.13847 0.0
C147 C 0.68204 0.13871 0.13762 0.0
C148 C 0.6362 0.17539 0.13536 0.0
O149 O 0.71352 0.20791 0.15854 0.0
O150 O 0.69718 0.20677 0.12458 0.0
O151 O 0.65446 0.18204 0.12215 0.0
O152 O 0.63781 0.16816 0.15615 0.0
C153 C 0.67586 0.17721 0.20025 0.0
O154 O 0.66198 0.13606 0.14372 0.0
O155 O 0.6987 0.16023 0.13671 0.0
In156 In 0.49945 0.83851 0.84348 0.0
O157 O 0.52893 0.87763 0.8499 0.0
O158 O 0.53766 0.85026 0.85497 0.0
C159 C 0.46237 0.84226 0.86121 0.0
C160 C 0.50343 0.84084 0.79472 0.0
C161 C 0.48275 0.79238 0.85651 0.0
O162 O 0.47758 0.84127 0.87493 0.0
O163 O 0.46664 0.84253 0.83883 0.0
O164 O 0.48143 0.79864 0.83511 0.0
O165 O 0.49266 0.80944 0.87154 0.0
C166 C 0.545 0.87243 0.85444 0.0
O167 O 0.50994 0.82881 0.80752 0.0
O168 O 0.49483 0.85166 0.80654 0.0
In169 In 0.16877 0.66507 0.8489 0.0
O170 O 0.1319 0.65994 0.85956 0.0
O171 O 0.16077 0.6953 0.8532 0.0
C172 C 0.16119 0.625 0.87274 0.0
C173 C 0.16642 0.65938 0.80011 0.0
C174 C 0.21452 0.69898 0.85854 0.0
O175 O 0.17303 0.64575 0.88166 0.0
O176 O 0.15164 0.62424 0.85253 0.0
O177 O 0.20818 0.68738 0.83886 0.0
O178 O 0.19767 0.69375 0.87344 0.0
C179 C 0.13883 0.6821 0.85815 0.0
O180 O 0.18071 0.65616 0.81313 0.0
O181 O 0.15311 0.66507 0.81171 0.0
In182 In 0.33325 0.50814 0.84851 0.0
O183 O 0.34149 0.47888 0.8605 0.0
O184 O 0.30539 0.46878 0.85212 0.0
C185 C 0.37298 0.54437 0.86939 0.0
C186 C 0.33574 0.50704 0.7995 0.0
C187 C 0.29946 0.519 0.86158 0.0
O188 O 0.35473 0.53027 0.88164 0.0
O189 O 0.37149 0.53936 0.84712 0.0
O190 O 0.30141 0.50248 0.87186 0.0
O191 O 0.3146 0.52999 0.84496 0.0
C192 C 0.32004 0.46211 0.85819 0.0
O193 O 0.32289 0.51378 0.81042 0.0
O194 O 0.34743 0.50094 0.81326 0.0
In195 In 0.49767 0.83537 0.48527 0.0
O196 O 0.53725 0.86335 0.47795 0.0
O197 O 0.51126 0.87411 0.47437 0.0
C198 C 0.49644 0.7952 0.46895 0.0
C199 C 0.50164 0.83812 0.534 0.0
C200 C 0.45286 0.82335 0.4713 0.0
O201 O 0.49938 0.81188 0.45475 0.0
O202 O 0.49512 0.79929 0.49112 0.0
O203 O 0.45904 0.82501 0.4933 0.0
O204 O 0.46938 0.82799 0.45617 0.0
C205 C 0.53315 0.88029 0.47417 0.0
O206 O 0.4882 0.84374 0.52245 0.0
O207 O 0.51302 0.83098 0.52096 0.0
In208 In 0.16801 0.65776 0.49072 0.0
O209 O 0.18435 0.65639 0.52698 0.0
O210 O 0.15855 0.66791 0.52703 0.0
C211 C 0.17425 0.62085 0.47733 0.0
C212 C 0.12192 0.64584 0.48253 0.0
C213 C 0.20548 0.69752 0.47123 0.0
O214 O 0.17116 0.62486 0.49909 0.0
O215 O 0.17387 0.6353 0.46206 0.0
O216 O 0.1907 0.6802 0.45832 0.0
O217 O 0.20066 0.69519 0.49357 0.0
C218 C 0.17235 0.66331 0.5393 0.0
O219 O 0.13899 0.66714 0.48029 0.0
O220 O 0.12835 0.63078 0.48744 0.0
In221 In 0.33536 0.50109 0.48958 0.0
O222 O 0.33001 0.51402 0.52647 0.0
O223 O 0.34396 0.49022 0.52599 0.0
C224 C 0.36756 0.54583 0.47389 0.0
C225 C 0.34412 0.46575 0.47634 0.0
C226 C 0.29163 0.49256 0.47539 0.0
O227 O 0.36882 0.53793 0.49445 0.0
O228 O 0.35045 0.53097 0.46087 0.0
O229 O 0.30785 0.49586 0.4604 0.0
O230 O 0.29715 0.49244 0.49735 0.0
C231 C 0.33752 0.50241 0.53859 0.0
O232 O 0.32379 0.46163 0.48354 0.0
O233 O 0.35962 0.48773 0.4746 0.0
H234 H 0.42152 0.29884 0.12093 0.0
H235 H 0.37913 0.28513 0.12837 0.0
H236 H 0.39895 0.34458 0.17734 0.0
H237 H 0.44135 0.35832 0.17009 0.0
H238 H 0.37045 0.30268 0.19911 0.0
H239 H 0.36864 0.34063 0.12582 0.0
H240 H 0.37582 0.35153 0.08243 0.0
H241 H 0.33066 0.27757 0.06249 0.0
H242 H 0.32348 0.26616 0.10577 0.0
H243 H 0.23076 0.24573 0.17818 0.0
H244 H 0.27238 0.27815 0.17343 0.0
H245 H 0.29742 0.23045 0.1969 0.0
H246 H 0.25593 0.19799 0.20157 0.0
H247 H 0.30299 0.27574 0.14083 0.0
H248 H 0.35308 0.26427 0.22382 0.0
H249 H 0.34662 0.25542 0.26765 0.0
H250 H 0.29551 0.27984 0.26916 0.0
H251 H 0.30202 0.28933 0.22544 0.0
C252 C 0.41685 0.30942 0.13267 0.0
C253 C 0.43473 0.32951 0.1451 0.0
C254 C 0.39261 0.30158 0.1369 0.0
C255 C 0.3859 0.31379 0.15351 0.0
C256 C 0.40375 0.33486 0.16454 0.0
C257 C 0.42797 0.34273 0.16028 0.0
C258 C 0.36062 0.30279 0.16169 0.0
C259 C 0.35567 0.29698 0.18642 0.0
C260 C 0.34142 0.29577 0.14518 0.0
C261 C 0.34563 0.30253 0.11908 0.0
C262 C 0.36037 0.32666 0.11219 0.0
C263 C 0.36442 0.33293 0.08761 0.0
C264 C 0.35373 0.31525 0.06972 0.0
C265 C 0.33893 0.29125 0.07637 0.0
C266 C 0.33483 0.28488 0.10093 0.0
C267 C 0.24515 0.24235 0.18295 0.0
C268 C 0.24014 0.21931 0.19013 0.0
C269 C 0.26889 0.26085 0.18011 0.0
C270 C 0.28795 0.25669 0.18479 0.0
C271 C 0.28297 0.23412 0.19342 0.0
C272 C 0.25926 0.21556 0.19603 0.0
C273 C 0.31286 0.27485 0.1781 0.0
C274 C 0.31775 0.28186 0.15362 0.0
C275 C 0.33202 0.28309 0.19488 0.0
C276 C 0.32788 0.27731 0.22122 0.0
C277 C 0.34052 0.26784 0.23349 0.0
C278 C 0.33685 0.26271 0.25833 0.0
C279 C 0.3206 0.26698 0.27116 0.0
C280 C 0.30802 0.27645 0.25917 0.0
C281 C 0.31167 0.28168 0.23434 0.0
H282 H 0.31779 0.263 0.29039 0.0
H283 H 0.35689 0.32014 0.05069 0.0
H284 H 0.75708 0.98995 0.18407 0.0
H285 H 0.72732 0.00223 0.17636 0.0
H286 H 0.77398 0.07096 0.20955 0.0
H287 H 0.80378 0.05883 0.21733 0.0
H288 H 0.72571 0.05656 0.21584 0.0
H289 H 0.7814 0.06546 0.15232 0.0
H290 H 0.80141 0.0505 0.125 0.0
H291 H 0.73353 0.00109 0.0927 0.0
H292 H 0.71303 0.01547 0.12025 0.0
H293 H 0.7226 0.13958 0.12195 0.0
H294 H 0.73535 0.11076 0.13256 0.0
H295 H 0.66618 0.06436 0.16502 0.0
H296 H 0.65324 0.0931 0.15434 0.0
H297 H 0.72087 0.06285 0.12624 0.0
H298 H 0.67925 0.04895 0.22206 0.0
H299 H 0.66512 0.06904 0.25041 0.0
H300 H 0.71351 0.13729 0.21819 0.0
H301 H 0.72824 0.11768 0.18997 0.0
C302 C 0.7606 0.00731 0.1906 0.0
C303 C 0.78292 0.02363 0.20089 0.0
C304 C 0.74359 0.01432 0.18612 0.0
C305 C 0.74871 0.03766 0.19194 0.0
C306 C 0.76975 0.0529 0.20483 0.0
C307 C 0.7868 0.04596 0.20921 0.0
C308 C 0.73459 0.04772 0.18105 0.0
C309 C 0.72421 0.05754 0.19628 0.0
C310 C 0.73335 0.04964 0.15549 0.0
C311 C 0.74565 0.04132 0.13854 0.0
C312 C 0.77072 0.05129 0.13951 0.0
C313 C 0.78215 0.04292 0.12398 0.0
C314 C 0.76875 0.02481 0.10715 0.0
C315 C 0.74388 0.01509 0.10578 0.0
C316 C 0.73234 0.02332 0.12136 0.0
C317 C 0.70983 0.12287 0.13061 0.0
C318 C 0.68703 0.11869 0.13754 0.0
C319 C 0.71713 0.10641 0.13666 0.0
C320 C 0.70184 0.08568 0.14995 0.0
C321 C 0.6783 0.08041 0.15497 0.0
C322 C 0.6709 0.09678 0.14872 0.0
C323 C 0.71164 0.0714 0.16102 0.0
C324 C 0.72152 0.06108 0.1458 0.0
C325 C 0.71307 0.0697 0.1866 0.0
C326 C 0.70453 0.08176 0.20364 0.0
C327 C 0.68688 0.06824 0.22105 0.0
C328 C 0.67879 0.07955 0.23711 0.0
C329 C 0.6883 0.1044 0.23599 0.0
C330 C 0.70605 0.11803 0.21892 0.0
C331 C 0.71426 0.10681 0.20289 0.0
H332 H 0.68201 0.11311 0.24843 0.0
H333 H 0.77764 0.01835 0.09514 0.0
H334 H 0.85556 0.58452 0.12917 0.0
H335 H 0.88417 0.62688 0.1347 0.0
H336 H 0.94127 0.61075 0.14421 0.0
H337 H 0.91219 0.56781 0.13966 0.0
H338 H 0.94349 0.63858 0.17894 0.0
H339 H 0.93913 0.64381 0.09378 0.0
H340 H 0.92071 0.63683 0.05312 0.0
H341 H 0.88343 0.6738 0.07415 0.0
H342 H 0.90132 0.68071 0.11506 0.0
H343 H 0.01651 0.7708 0.18603 0.0
H344 H 0.00127 0.72859 0.17491 0.0
H345 H 0.92878 0.71576 0.17736 0.0
H346 H 0.94369 0.75753 0.1887 0.0
H347 H 0.94374 0.70443 0.13178 0.0
H348 H 0.94507 0.69265 0.2195 0.0
H349 H 0.96542 0.7 0.25918 0.0
H350 H 0.01222 0.67636 0.23039 0.0
H351 H 0.99233 0.66919 0.19042 0.0
C352 C 0.87429 0.58997 0.13185 0.0
C353 C 0.88161 0.57282 0.13404 0.0
C354 C 0.89074 0.61431 0.13488 0.0
C355 C 0.91502 0.62216 0.13963 0.0
C356 C 0.92265 0.60515 0.14055 0.0
C357 C 0.90606 0.58065 0.13777 0.0
C358 C 0.93153 0.64774 0.14606 0.0
C359 C 0.94403 0.65302 0.16826 0.0
C360 C 0.93232 0.6667 0.13223 0.0
C361 C 0.92154 0.6627 0.10757 0.0
C362 C 0.9269 0.65033 0.0898 0.0
C363 C 0.91656 0.6464 0.06669 0.0
C364 C 0.9009 0.65485 0.06106 0.0
C365 C 0.89558 0.66728 0.07853 0.0
C366 C 0.90586 0.67125 0.10167 0.0
C367 C 0.9973 0.75879 0.18484 0.0
C368 C 0.98129 0.76749 0.18808 0.0
C369 C 0.98866 0.73476 0.17839 0.0
C370 C 0.96395 0.71925 0.17504 0.0
C371 C 0.94793 0.72757 0.17967 0.0
C372 C 0.95649 0.75141 0.18628 0.0
C373 C 0.95456 0.69484 0.16497 0.0
C374 C 0.94357 0.68994 0.14205 0.0
C375 C 0.95555 0.67639 0.17789 0.0
C376 C 0.96743 0.68069 0.20191 0.0
C377 C 0.95986 0.68926 0.22157 0.0
C378 C 0.97127 0.69333 0.24412 0.0
C379 C 0.99016 0.68873 0.24728 0.0
C380 C 0.99762 0.67997 0.2279 0.0
C381 C 0.98628 0.67589 0.20531 0.0
H382 H 0.99897 0.69189 0.26476 0.0
H383 H 0.8929 0.65177 0.04316 0.0
H384 H 0.34907 0.44249 0.8546 0.0
H385 H 0.33615 0.40008 0.84722 0.0
H386 H 0.26219 0.3819 0.85501 0.0
H387 H 0.27492 0.42407 0.86223 0.0
H388 H 0.27063 0.348 0.8754 0.0
H389 H 0.28634 0.39288 0.80118 0.0
H390 H 0.31112 0.42548 0.77255 0.0
H391 H 0.36026 0.39887 0.7662 0.0
H392 H 0.33611 0.36649 0.79542 0.0
H393 H 0.1969 0.25314 0.7991 0.0
H394 H 0.22403 0.29536 0.80854 0.0
H395 H 0.28167 0.28072 0.82083 0.0
H396 H 0.25439 0.23804 0.81181 0.0
H397 H 0.28808 0.33018 0.79245 0.0
H398 H 0.26703 0.28206 0.86728 0.0
H399 H 0.23788 0.24964 0.89385 0.0
H400 H 0.19421 0.28281 0.89586 0.0
H401 H 0.22288 0.31517 0.86889 0.0
C402 C 0.3301 0.42933 0.85537 0.0
C403 C 0.31295 0.43651 0.85883 0.0
C404 C 0.32277 0.40518 0.85102 0.0
C405 C 0.29822 0.38797 0.85029 0.0
C406 C 0.28121 0.39493 0.85548 0.0
C407 C 0.2885 0.41901 0.85956 0.0
C408 C 0.28988 0.36312 0.84205 0.0
C409 C 0.2747 0.34412 0.85738 0.0
C410 C 0.29515 0.3581 0.81847 0.0
C411 C 0.30963 0.37748 0.8008 0.0
C412 C 0.30259 0.39414 0.79392 0.0
C413 C 0.31651 0.41257 0.77757 0.0
C414 C 0.33728 0.41428 0.76759 0.0
C415 C 0.34419 0.39756 0.77399 0.0
C416 C 0.33043 0.3792 0.7905 0.0
C417 C 0.21549 0.25893 0.80318 0.0
C418 C 0.22347 0.24224 0.80498 0.0
C419 C 0.23095 0.28306 0.80855 0.0
C420 C 0.25468 0.29096 0.81555 0.0
C421 C 0.26335 0.27483 0.81542 0.0
C422 C 0.24777 0.25051 0.81027 0.0
C423 C 0.26902 0.31526 0.82588 0.0
C424 C 0.28492 0.33411 0.81081 0.0
C425 C 0.26413 0.32025 0.84955 0.0
C426 C 0.24699 0.3009 0.86591 0.0
C427 C 0.25109 0.2823 0.87318 0.0
C428 C 0.23468 0.26396 0.88835 0.0
C429 C 0.2142 0.26416 0.89652 0.0
C430 C 0.21008 0.28268 0.88951 0.0
C431 C 0.2264 0.30102 0.8743 0.0
H432 H 0.20157 0.25003 0.90835 0.0
H433 H 0.34797 0.4285 0.75485 0.0
H434 H 0.75598 0.94913 0.80601 0.0
H435 H 0.71332 0.93496 0.80945 0.0
H436 H 0.728 0.00816 0.81315 0.0
H437 H 0.77118 0.02253 0.81043 0.0
H438 H 0.6994 0.98333 0.8487 0.0
H439 H 0.69728 0.97134 0.76395 0.0
H440 H 0.70595 0.95895 0.72458 0.0
H441 H 0.66915 0.88534 0.74779 0.0
H442 H 0.66055 0.89729 0.78745 0.0
H443 H 0.56622 0.92116 0.84809 0.0
H444 H 0.60873 0.94887 0.83876 0.0
H445 H 0.62419 0.89157 0.84969 0.0
H446 H 0.58214 0.86402 0.85937 0.0
H447 H 0.63575 0.91586 0.80137 0.0
H448 H 0.64487 0.93131 0.8889 0.0
H449 H 0.63609 0.94495 0.92746 0.0
H450 H 0.65893 0.0143 0.89626 0.0
H451 H 0.66755 0.00094 0.85738 0.0
C452 C 0.75016 0.96227 0.80699 0.0
C453 C 0.76692 0.98693 0.80802 0.0
C454 C 0.72568 0.95414 0.80883 0.0
C455 C 0.71737 0.97049 0.81134 0.0
C456 C 0.73401 0.99523 0.81119 0.0
C457 C 0.75863 0.00341 0.80948 0.0
C458 C 0.69159 0.96135 0.81657 0.0
C459 C 0.68543 0.96901 0.83796 0.0
C460 C 0.6733 0.94263 0.80265 0.0
C461 C 0.67834 0.93526 0.77875 0.0
C462 C 0.69116 0.95252 0.76074 0.0
C463 C 0.69604 0.94557 0.73835 0.0
C464 C 0.68812 0.92138 0.7337 0.0
C465 C 0.67526 0.90408 0.75141 0.0
C466 C 0.67033 0.91093 0.77384 0.0
C467 C 0.57884 0.91469 0.84918 0.0
C468 C 0.57085 0.89039 0.85427 0.0
C469 C 0.60303 0.93049 0.84377 0.0
C470 C 0.61938 0.92208 0.84328 0.0
C471 C 0.61171 0.89827 0.84983 0.0
C472 C 0.5877 0.8826 0.85547 0.0
C473 C 0.64399 0.93716 0.83388 0.0
C474 C 0.64976 0.93061 0.81166 0.0
C475 C 0.66179 0.95708 0.84682 0.0
C476 C 0.65652 0.96502 0.87014 0.0
C477 C 0.64775 0.94937 0.89017 0.0
C478 C 0.64288 0.95708 0.91211 0.0
C479 C 0.64685 0.98045 0.91428 0.0
C480 C 0.6558 0.99619 0.89453 0.0
C481 C 0.66069 0.98856 0.87255 0.0
H482 H 0.64308 0.98639 0.93128 0.0
H483 H 0.69193 0.91604 0.71635 0.0
H484 H 0.15079 0.72874 0.85399 0.0
H485 H 0.12405 0.74481 0.8488 0.0
H486 H 0.06266 0.67394 0.85827 0.0
H487 H 0.08968 0.65745 0.86275 0.0
H488 H 0.05593 0.69497 0.82029 0.0
H489 H 0.0775 0.71806 0.90201 0.0
H490 H 0.10383 0.73433 0.93785 0.0
H491 H 0.14147 0.80376 0.90407 0.0
H492 H 0.11562 0.78784 0.86787 0.0
H493 H 0.99365 0.76654 0.82284 0.0
H494 H 0.00647 0.73725 0.83212 0.0
H495 H 0.07814 0.78784 0.8081 0.0
H496 H 0.06554 0.81691 0.79848 0.0
H497 H 0.07095 0.77062 0.85977 0.0
H498 H 0.05122 0.74337 0.77553 0.0
H499 H 0.02324 0.7259 0.74103 0.0
H500 H 0.97898 0.6625 0.78298 0.0
H501 H 0.00655 0.67978 0.81787 0.0
C502 C 0.13163 0.71656 0.8554 0.0
C503 C 0.12234 0.69183 0.85884 0.0
C504 C 0.1163 0.72581 0.85253 0.0
C505 C 0.0913 0.71066 0.85348 0.0
C506 C 0.0819 0.68598 0.85758 0.0
C507 C 0.09732 0.67662 0.8603 0.0
C508 C 0.07543 0.72079 0.84853 0.0
C509 C 0.0588 0.71118 0.82935 0.0
C510 C 0.07905 0.74193 0.86034 0.0
C511 C 0.09463 0.7517 0.88216 0.0
C512 C 0.09148 0.73676 0.90215 0.0
C513 C 0.10632 0.74593 0.92255 0.0
C514 C 0.12432 0.77006 0.92323 0.0
C515 C 0.1275 0.78508 0.90353 0.0
C516 C 0.11272 0.776 0.88308 0.0
C517 C 0.01193 0.77109 0.81879 0.0
C518 C 0.02867 0.7941 0.81015 0.0
C519 C 0.01921 0.75438 0.82418 0.0
C520 C 0.04327 0.76058 0.82102 0.0
C521 C 0.05951 0.78284 0.81076 0.0
C522 C 0.05225 0.79939 0.8052 0.0
C523 C 0.05252 0.74541 0.83093 0.0
C524 C 0.06776 0.75409 0.85117 0.0
C525 C 0.04728 0.7233 0.82038 0.0
C526 C 0.03075 0.713 0.79941 0.0
C527 C 0.03538 0.72583 0.7775 0.0
C528 C 0.01963 0.71593 0.75784 0.0
C529 C 0.9993 0.69314 0.75984 0.0
C530 C 0.99471 0.68018 0.78147 0.0
C531 C 0.01039 0.69 0.80118 0.0
H532 H 0.98714 0.68551 0.7446 0.0
H533 H 0.1358 0.77712 0.93903 0.0
H534 H 0.91471 0.52932 0.54189 0.0
H535 H 0.95697 0.55927 0.53803 0.0
H536 H 0.93807 0.60871 0.50563 0.0
H537 H 0.8954 0.57836 0.50907 0.0
H538 H 0.969 0.6046 0.47784 0.0
H539 H 0.96825 0.62223 0.56057 0.0
H540 H 0.95889 0.61507 0.60427 0.0
H541 H -0.00045 0.57883 0.60923 0.0
H542 H 0.00887 0.58542 0.56549 0.0
H543 H 0.1025 0.67491 0.47477 0.0
H544 H 0.06084 0.66482 0.48301 0.0
H545 H 0.04286 0.59268 0.50203 0.0
H546 H 0.08387 0.60228 0.4934 0.0
H547 H 0.03247 0.62141 0.53861 0.0
H548 H 0.02335 0.59669 0.45275 0.0
H549 H 0.03264 0.60507 0.40913 0.0
H550 H 0.01092 0.65827 0.41154 0.0
H551 H 0.00182 0.6504 0.4553 0.0
C552 C 0.91949 0.54678 0.53454 0.0
C553 C 0.90177 0.55145 0.52567 0.0
C554 C 0.94371 0.564 0.53245 0.0
C555 C 0.95076 0.58635 0.52166 0.0
C556 C 0.93304 0.59161 0.51405 0.0
C557 C 0.90869 0.57431 0.51616 0.0
C558 C 0.97648 0.60261 0.51576 0.0
C559 C 0.98289 0.60892 0.49131 0.0
C560 C 0.9947 0.60834 0.53325 0.0
C561 C 0.98921 0.60429 0.55966 0.0
C562 C 0.97508 0.61259 0.57093 0.0
C563 C 0.96979 0.60865 0.59572 0.0
C564 C 0.97861 0.59649 0.60951 0.0
C565 C 0.99275 0.58827 0.59853 0.0
C566 C 0.99809 0.59216 0.57373 0.0
C567 C 0.08949 0.65678 0.48021 0.0
C568 C 0.09644 0.63939 0.4835 0.0
C569 C 0.06582 0.65111 0.48501 0.0
C570 C 0.049 0.62812 0.49338 0.0
C571 C 0.05571 0.61058 0.49577 0.0
C572 C 0.07912 0.61608 0.49068 0.0
C573 C 0.02454 0.62209 0.50073 0.0
C574 C 0.0185 0.61779 0.52543 0.0
C575 C 0.00675 0.61852 0.48357 0.0
C576 C 0.01227 0.62322 0.45733 0.0
C577 C 0.02083 0.61036 0.44404 0.0
C578 C 0.02599 0.61497 0.41927 0.0
C579 C 0.02247 0.63226 0.40759 0.0
C580 C 0.01371 0.64493 0.42063 0.0
C581 C 0.00854 0.6404 0.4454 0.0
H582 H 0.02646 0.63579 0.38841 0.0
H583 H 0.97449 0.59345 0.62871 0.0
H584 H 0.31512 0.41764 0.48435 0.0
H585 H 0.32813 0.38824 0.49106 0.0
H586 H 0.40078 0.44182 0.47274 0.0
H587 H 0.38785 0.47107 0.46557 0.0
H588 H 0.39185 0.39862 0.45791 0.0
H589 H 0.38136 0.43371 0.53139 0.0
H590 H 0.35855 0.44378 0.5605 0.0
H591 H 0.30815 0.3688 0.57076 0.0
H592 H 0.33056 0.3583 0.54146 0.0
H593 H 0.47103 0.38761 0.53553 0.0
H594 H 0.44154 0.39985 0.52669 0.0
H595 H 0.38713 0.32589 0.51582 0.0
H596 H 0.41676 0.31336 0.52424 0.0
H597 H 0.3799 0.3708 0.54368 0.0
H598 H 0.39567 0.3375 0.46923 0.0
H599 H 0.42424 0.33213 0.44373 0.0
H600 H 0.46943 0.40864 0.43829 0.0
H601 H 0.44132 0.41442 0.46415 0.0
C602 C 0.33373 0.42294 0.48107 0.0
C603 C 0.35055 0.44674 0.47475 0.0
C604 C 0.34115 0.40616 0.48503 0.0
C605 C 0.36551 0.41301 0.48292 0.0
C606 C 0.38191 0.43617 0.47457 0.0
C607 C 0.3745 0.4529 0.47052 0.0
C608 C 0.37455 0.39726 0.49194 0.0
C609 C 0.38889 0.39224 0.47654 0.0
C610 C 0.37083 0.38899 0.51633 0.0
C611 C 0.35743 0.39524 0.53403 0.0
C612 C 0.36531 0.41938 0.53973 0.0
C613 C 0.35248 0.42517 0.55627 0.0
C614 C 0.33186 0.40695 0.5674 0.0
C615 C 0.32409 0.38289 0.56207 0.0
C616 C 0.33685 0.37701 0.54551 0.0
C617 C 0.45264 0.37383 0.53201 0.0
C618 C 0.44626 0.34955 0.53025 0.0
C619 C 0.43583 0.38088 0.52697 0.0
C620 C 0.41236 0.36376 0.52036 0.0
C621 C 0.40524 0.33929 0.52088 0.0
C622 C 0.42216 0.3322 0.52573 0.0
C623 C 0.39684 0.37209 0.50958 0.0
C624 C 0.38179 0.37618 0.52475 0.0
C625 C 0.40011 0.37978 0.48511 0.0
C626 C 0.4165 0.37637 0.46874 0.0
C627 C 0.41177 0.35316 0.46269 0.0
C628 C 0.42787 0.35004 0.44818 0.0
C629 C 0.44866 0.37003 0.43943 0.0
C630 C 0.45333 0.39317 0.44509 0.0
C631 C 0.43731 0.39638 0.45965 0.0
H632 H 0.46113 0.36757 0.42825 0.0
H633 H 0.32194 0.41147 0.58021 0.0
H634 H 0.61645 0.08982 0.52939 0.0
H635 H 0.60182 0.04715 0.52458 0.0
H636 H 0.67448 0.06152 0.51526 0.0
H637 H 0.68928 0.1047 0.5194 0.0
H638 H 0.64758 0.03343 0.48035 0.0
H639 H 0.64053 0.03008 0.56566 0.0
H640 H 0.6307 0.03822 0.60661 0.0
H641 H 0.55585 0.00222 0.58805 0.0
H642 H 0.56523 0.99416 0.54686 0.0
H643 H 0.58175 0.89923 0.47964 0.0
H644 H 0.61119 0.94122 0.48941 0.0
H645 H 0.55633 0.96048 0.48075 0.0
H646 H 0.5271 0.91901 0.47056 0.0
H647 H 0.58242 0.96937 0.52957 0.0
H648 H 0.59335 0.98052 0.44126 0.0
H649 H 0.60467 0.97201 0.4012 0.0
H650 H 0.67491 0.99228 0.42828 0.0
H651 H 0.66386 0.00059 0.46863 0.0
C652 C 0.62941 0.08391 0.52687 0.0
C653 C 0.654 0.1006 0.52471 0.0
C654 C 0.62102 0.05943 0.52424 0.0
C655 C 0.63705 0.05103 0.51977 0.0
C656 C 0.66179 0.06759 0.51874 0.0
C657 C 0.67022 0.09221 0.52126 0.0
C658 C 0.62745 0.02529 0.51383 0.0
C659 C 0.63378 0.01936 0.49147 0.0
C660 C 0.60946 0.00684 0.52828 0.0
C661 C 0.60363 0.01158 0.55309 0.0
C662 C 0.62198 0.02402 0.57024 0.0
C663 C 0.61649 0.02861 0.59352 0.0
C664 C 0.59267 0.02075 0.59992 0.0
C665 C 0.57429 0.00827 0.58307 0.0
C666 C 0.57969 0.00365 0.55976 0.0
C667 C 0.57619 0.91258 0.47911 0.0
C668 C 0.55209 0.90583 0.47451 0.0
C669 C 0.59296 0.93647 0.48479 0.0
C670 C 0.58574 0.95373 0.48603 0.0
C671 C 0.56212 0.94729 0.47999 0.0
C672 C 0.54549 0.92361 0.47407 0.0
C673 C 0.60183 0.97798 0.49579 0.0
C674 C 0.5967 0.98347 0.5189 0.0
C675 C 0.62112 0.99587 0.48225 0.0
C676 C 0.62767 0.99082 0.45804 0.0
C677 C 0.61111 0.98288 0.43875 0.0
C678 C 0.6175 0.97817 0.41597 0.0
C679 C 0.64046 0.9815 0.41222 0.0
C680 C 0.65711 0.98964 0.43123 0.0
C681 C 0.6508 0.99436 0.45405 0.0
H682 H 0.64538 0.97786 0.39457 0.0
H683 H 0.58845 0.02433 0.61795 0.0
H684 H 0.09993 0.16592 0.16373 0.0
H685 H 0.05895 0.15459 0.17512 0.0
H686 H 0.07125 0.13715 0.24747 0.0
H687 H 0.11258 0.14868 0.23614 0.0
H688 H 0.03197 0.10003 0.22547 0.0
H689 H 0.06024 0.18226 0.24103 0.0
H690 H 0.08262 0.22592 0.23369 0.0
H691 H 0.04056 0.21649 0.16972 0.0
H692 H 0.01814 0.17272 0.17643 0.0
H693 H 0.90697 0.05616 0.23916 0.0
H694 H 0.94976 0.08165 0.24851 0.0
H695 H 0.96226 0.11109 0.17601 0.0
H696 H 0.91967 0.08593 0.16666 0.0
H697 H 0.98961 0.14534 0.20947 0.0
H698 H 0.96931 0.06375 0.18874 0.0
H699 H 0.94752 0.01977 0.19415 0.0
H700 H 0.97556 0.02825 0.26657 0.0
H701 H 0.99725 0.07234 0.26169 0.0
C702 C 0.0941 0.16018 0.18223 0.0
C703 C 0.10937 0.15807 0.19903 0.0
C704 C 0.07071 0.15384 0.18877 0.0
C705 C 0.0621 0.14515 0.21219 0.0
C706 C 0.07762 0.14394 0.22935 0.0
C707 C 0.10119 0.15058 0.22288 0.0
C708 C 0.03616 0.13472 0.21744 0.0
C709 C 0.02275 0.1101 0.22272 0.0
C710 C 0.02415 0.14779 0.21338 0.0
C711 C 0.03756 0.17414 0.2092 0.0
C712 C 0.05586 0.18946 0.22529 0.0
C713 C 0.06854 0.21424 0.22126 0.0
C714 C 0.06303 0.22397 0.20124 0.0
C715 C 0.0448 0.20893 0.18522 0.0
C716 C 0.03207 0.18412 0.18916 0.0
C717 C 0.91879 0.0684 0.2254 0.0
C718 C 0.91007 0.0689 0.2021 0.0
C719 C 0.94321 0.08291 0.23075 0.0
C720 C 0.95921 0.09805 0.21286 0.0
C721 C 0.95023 0.09956 0.19009 0.0
C722 C 0.9259 0.08507 0.18473 0.0
C723 C 0.98553 0.11058 0.21672 0.0
C724 C 0.99893 0.1355 0.21303 0.0
C725 C 0.9976 0.09779 0.22206 0.0
C726 C 0.98462 0.07132 0.22498 0.0
C727 C 0.97066 0.05623 0.20589 0.0
C728 C 0.95835 0.03129 0.20884 0.0
C729 C 0.96008 0.02122 0.23072 0.0
C730 C 0.97418 0.03608 0.24966 0.0
C731 C 0.98648 0.06104 0.24682 0.0
H732 H 0.95056 0.00191 0.23297 0.0
H733 H 0.07287 0.24317 0.19815 0.0
H734 H 0.86057 0.9566 0.15661 0.0
H735 H 0.87335 0.92735 0.16385 0.0
H736 H 0.85903 0.92743 0.24048 0.0
H737 H 0.84618 0.9571 0.23329 0.0
H738 H 0.90382 0.93386 0.23145 0.0
H739 H 0.8241 0.87755 0.20798 0.0
H740 H 0.78726 0.86105 0.18323 0.0
H741 H 0.82578 0.85725 0.12121 0.0
H742 H 0.86294 0.87406 0.14546 0.0
H743 H 0.95076 0.85321 0.23322 0.0
H744 H 0.92226 0.86748 0.24034 0.0
H745 H 0.92073 0.8795 0.16334 0.0
H746 H 0.94871 0.86505 0.15613 0.0
H747 H 0.87655 0.8599 0.18241 0.0
H748 H 0.95676 0.92509 0.20271 0.0
H749 H 0.99471 0.94363 0.22582 0.0
H750 H 0.95564 0.93185 0.29252 0.0
H751 H 0.91742 0.91297 0.26978 0.0
C752 C 0.85979 0.95017 0.17498 0.0
C753 C 0.8524 0.95913 0.1944 0.0
C754 C 0.86697 0.93332 0.17907 0.0
C755 C 0.86686 0.92498 0.20266 0.0
C756 C 0.85906 0.93353 0.22211 0.0
C757 C 0.85168 0.95038 0.21799 0.0
C758 C 0.87687 0.90891 0.20675 0.0
C759 C 0.89744 0.91729 0.22131 0.0
C760 C 0.86874 0.88749 0.19324 0.0
C761 C 0.84635 0.87714 0.17857 0.0
C762 C 0.82476 0.87332 0.18903 0.0
C763 C 0.80381 0.8639 0.17509 0.0
C764 C 0.80419 0.85812 0.15066 0.0
C765 C 0.82551 0.86171 0.14014 0.0
C766 C 0.84651 0.87114 0.154 0.0
C767 C 0.94412 0.8587 0.21784 0.0
C768 C 0.95204 0.85815 0.19414 0.0
C769 C 0.92791 0.86688 0.22193 0.0
C770 C 0.91951 0.87471 0.20238 0.0
C771 C 0.92689 0.87346 0.17869 0.0
C772 C 0.943 0.86531 0.17461 0.0
C773 C 0.90402 0.88543 0.20626 0.0
C774 C 0.88244 0.87603 0.19319 0.0
C775 C 0.91131 0.906 0.22098 0.0
C776 C 0.93425 0.91733 0.23461 0.0
C777 C 0.95627 0.92628 0.22232 0.0
C778 C 0.97782 0.93688 0.23534 0.0
C779 C 0.97758 0.93884 0.26063 0.0
C780 C 0.95579 0.93027 0.27294 0.0
C781 C 0.93418 0.91961 0.26 0.0
H782 H 0.99428 0.94706 0.27069 0.0
H783 H 0.78795 0.85084 0.1399 0.0
H784 H 0.14017 0.09068 0.22663 0.0
H785 H 0.12859 0.04886 0.23433 0.0
H786 H 0.17433 0.05136 0.17563 0.0
H787 H 0.18554 0.09309 0.16747 0.0
H788 H 0.13134 0.01423 0.1706 0.0
H789 H 0.18704 0.04586 0.23614 0.0
H790 H 0.20627 0.07032 0.2726 0.0
H791 H 0.14012 0.03146 0.31212 0.0
H792 H 0.12038 0.00698 0.2758 0.0
H793 H 0.09154 0.89336 0.1857 0.0
H794 H 0.12251 0.93551 0.19011 0.0
H795 H 0.07831 0.94579 0.24222 0.0
H796 H 0.04751 0.90358 0.23831 0.0
H797 H 0.12695 0.97653 0.25059 0.0
H798 H 0.07034 0.95092 0.18335 0.0
H799 H 0.05026 0.92594 0.14737 0.0
H800 H 0.11827 0.95422 0.11121 0.0
H801 H 0.13881 0.97905 0.1472 0.0
C802 C 0.14809 0.08245 0.21563 0.0
C803 C 0.16366 0.0951 0.19636 0.0
C804 C 0.14157 0.05857 0.22016 0.0
C805 C 0.15074 0.04698 0.2057 0.0
C806 C 0.16705 0.05992 0.18704 0.0
C807 C 0.17346 0.08377 0.18241 0.0
C808 C 0.14138 0.02079 0.20843 0.0
C809 C 0.13099 0.0061 0.18799 0.0
C810 C 0.14036 0.01005 0.23122 0.0
C811 C 0.15219 0.02467 0.25317 0.0
C812 C 0.17654 0.04264 0.25255 0.0
C813 C 0.18754 0.05649 0.27321 0.0
C814 C 0.17441 0.05248 0.29465 0.0
C815 C 0.15027 0.03456 0.2955 0.0
C816 C 0.13917 0.02066 0.27489 0.0
C817 C 0.08882 0.90436 0.19882 0.0
C818 C 0.06691 0.89534 0.21128 0.0
C819 C 0.10653 0.92845 0.20128 0.0
C820 C 0.10238 0.94388 0.21598 0.0
C821 C 0.08178 0.93422 0.23065 0.0
C822 C 0.06415 0.91007 0.22835 0.0
C823 C 0.11695 0.97025 0.21284 0.0
C824 C 0.128 0.98487 0.23315 0.0
C825 C 0.11854 0.98103 0.18995 0.0
C826 C 0.10614 0.96663 0.16805 0.0
C827 C 0.08102 0.95172 0.16777 0.0
C828 C 0.06956 0.93758 0.14739 0.0
C829 C 0.08299 0.93845 0.12704 0.0
C830 C 0.1079 0.95354 0.12701 0.0
C831 C 0.11946 0.96763 0.14739 0.0
H832 H 0.07409 0.92748 0.11129 0.0
H833 H 0.18297 0.06323 0.31062 0.0
H834 H 0.09877 0.9183 0.8197 0.0
H835 H 0.12776 0.96001 0.80987 0.0
H836 H 0.07928 0.96057 0.75605 0.0
H837 H 0.05019 0.91859 0.76561 0.0
H838 H 0.12873 0.98908 0.74279 0.0
H839 H 0.0757 0.97883 0.80888 0.0
H840 H 0.0548 0.96156 0.84757 0.0
H841 H 0.12257 0.99098 0.88445 0.0
H842 H 0.1439 0.00814 0.84583 0.0
H843 H 0.15285 0.1105 0.7538 0.0
H844 H 0.13974 0.06807 0.74774 0.0
H845 H 0.18776 0.07181 0.80449 0.0
H846 H 0.2008 0.11419 0.81082 0.0
H847 H 0.14126 0.04061 0.81479 0.0
H848 H 0.19371 0.05624 0.74694 0.0
H849 H 0.21224 0.07363 0.70737 0.0
H850 H 0.14331 0.03533 0.67272 0.0
H851 H 0.12429 0.01795 0.71214 0.0
C852 C 0.09449 0.92711 0.80539 0.0
C853 C 0.07211 0.91534 0.79364 0.0
C854 C 0.11109 0.95091 0.79975 0.0
C855 C 0.10551 0.96341 0.78245 0.0
C856 C 0.08392 0.95118 0.7694 0.0
C857 C 0.06729 0.92727 0.77498 0.0
C858 C 0.12056 0.98984 0.78062 0.0
C859 C 0.13145 0.00045 0.75843 0.0
C860 C 0.12414 0.00454 0.80112 0.0
C861 C 0.1114 0.99453 0.82443 0.0
C862 C 0.08615 0.98146 0.8252 0.0
C863 C 0.07423 0.97171 0.84712 0.0
C864 C 0.08735 0.97511 0.86845 0.0
C865 C 0.11243 0.98833 0.8679 0.0
C866 C 0.12445 0.99808 0.84601 0.0
C867 C 0.16131 0.10254 0.76434 0.0
C868 C 0.17755 0.11555 0.78307 0.0
C869 C 0.15383 0.07826 0.76081 0.0
C870 C 0.16262 0.06673 0.77582 0.0
C871 C 0.18068 0.08036 0.79279 0.0
C872 C 0.18815 0.1046 0.79635 0.0
C873 C 0.14995 0.04015 0.77699 0.0
C874 C 0.13909 0.02939 0.79915 0.0
C875 C 0.14615 0.02553 0.75632 0.0
C876 C 0.15754 0.03593 0.73256 0.0
C877 C 0.18246 0.05167 0.73093 0.0
C878 C 0.19307 0.0615 0.70851 0.0
C879 C 0.17896 0.05563 0.68755 0.0
C880 C 0.15422 0.03987 0.68897 0.0
C881 C 0.14352 0.03 0.71134 0.0
H882 H 0.18721 0.06325 0.67021 0.0
H883 H 0.07809 0.96754 0.8854 0.0
H884 H 0.10759 0.17457 0.7713 0.0
H885 H 0.06504 0.16106 0.76359 0.0
H886 H 0.04471 0.1088 0.82107 0.0
H887 H 0.08687 0.1222 0.82893 0.0
H888 H 0.01781 0.08993 0.77907 0.0
H889 H 0.04586 0.15964 0.83207 0.0
H890 H 0.07188 0.20238 0.84254 0.0
H891 H 0.04776 0.22295 0.77897 0.0
H892 H 0.02182 0.18029 0.76797 0.0
H893 H 0.91255 0.0819 0.84016 0.0
H894 H 0.95477 0.10749 0.82955 0.0
H895 H 0.93905 0.0833 0.75516 0.0
H896 H 0.89655 0.05765 0.7657 0.0
H897 H 0.9843 0.14322 0.79612 0.0
H898 H 0.98196 0.0668 0.74132 0.0
H899 H 0.95608 0.02317 0.73473 0.0
H900 H 0.9288 0.01495 0.80747 0.0
H901 H 0.95485 0.05843 0.81462 0.0
C902 C 0.09398 0.16017 0.78221 0.0
C903 C 0.10048 0.14946 0.80075 0.0
C904 C 0.06976 0.15251 0.7778 0.0
C905 C 0.0518 0.13393 0.79175 0.0
C906 C 0.05832 0.12307 0.81002 0.0
C907 C 0.08241 0.13084 0.81458 0.0
C908 C 0.0261 0.12589 0.78807 0.0
C909 C 0.01051 0.10169 0.78232 0.0
C910 C 0.01663 0.14124 0.7924 0.0
C911 C 0.03217 0.16682 0.79903 0.0
C912 C 0.04628 0.17329 0.82022 0.0
C913 C 0.06097 0.19749 0.82627 0.0
C914 C 0.06154 0.21537 0.81138 0.0
C915 C 0.04735 0.20908 0.79045 0.0
C916 C 0.03265 0.1849 0.7843 0.0
C917 C 0.91796 0.08262 0.82138 0.0
C918 C 0.90143 0.0676 0.80381 0.0
C919 C 0.94205 0.09736 0.81531 0.0
C920 C 0.95002 0.09704 0.79166 0.0
C921 C 0.93319 0.08369 0.77354 0.0
C922 C 0.90896 0.0691 0.77957 0.0
C923 C 0.97603 0.1072 0.78747 0.0
C924 C 0.99167 0.13172 0.79186 0.0
C925 C 0.9856 0.09208 0.78225 0.0
C926 C 0.97008 0.06588 0.77834 0.0
C927 C 0.97046 0.05565 0.7559 0.0
C928 C 0.9558 0.03096 0.75209 0.0
C929 C 0.94076 0.01633 0.77065 0.0
C930 C 0.94041 0.02632 0.7931 0.0
C931 C 0.95512 0.05098 0.79703 0.0
H932 H 0.92946 0.99723 0.76765 0.0
H933 H 0.07292 0.2341 0.8161 0.0
H934 H 0.95792 0.85184 0.7662 0.0
H935 H 0.93154 0.86815 0.75627 0.0
H936 H 0.92607 0.88053 0.83241 0.0
H937 H 0.95185 0.86406 0.84251 0.0
H938 H 0.88072 0.85873 0.78292 0.0
H939 H 0.95305 0.94347 0.82857 0.0
H940 H 0.99674 0.964 0.83602 0.0
H941 H 0.00707 0.93679 0.76854 0.0
H942 H 0.96352 0.91649 0.7605 0.0
H943 H 0.84455 0.93628 0.83492 0.0
H944 H 0.8614 0.9107 0.82453 0.0
H945 H 0.89478 0.95379 0.76089 0.0
H946 H 0.87774 0.9794 0.77105 0.0
H947 H 0.92641 0.94747 0.79203 0.0
H948 H 0.85233 0.90017 0.75078 0.0
H949 H 0.80837 0.87849 0.74563 0.0
H950 H 0.8009 0.8306 0.80369 0.0
H951 H 0.8448 0.85222 0.80945 0.0
C952 C 0.95048 0.85738 0.78083 0.0
C953 C 0.95712 0.85691 0.8051 0.0
C954 C 0.93545 0.86665 0.77513 0.0
C955 C 0.92713 0.87566 0.79365 0.0
C956 C 0.9324 0.87367 0.81793 0.0
C957 C 0.94718 0.8643 0.82363 0.0
C958 C 0.91553 0.88993 0.78803 0.0
C959 C 0.89064 0.87815 0.78448 0.0
C960 C 0.92869 0.91524 0.78992 0.0
C961 C 0.95502 0.92832 0.79404 0.0
C962 C 0.96468 0.94204 0.81524 0.0
C963 C 0.98941 0.95361 0.81958 0.0
C964 C 0.00466 0.95164 0.8028 0.0
C965 C 0.99523 0.93824 0.78156 0.0
C966 C 0.97053 0.92668 0.77711 0.0
C967 C 0.85523 0.94013 0.81855 0.0
C968 C 0.85987 0.95981 0.8038 0.0
C969 C 0.86472 0.92544 0.81257 0.0
C970 C 0.8792 0.93031 0.79187 0.0
C971 C 0.88356 0.94972 0.77687 0.0
C972 C 0.87378 0.96426 0.78267 0.0
C973 C 0.89137 0.9163 0.78733 0.0
C974 C 0.91644 0.92815 0.78948 0.0
C975 C 0.87833 0.89108 0.78404 0.0
C976 C 0.85189 0.87793 0.78063 0.0
C977 C 0.84131 0.88514 0.76258 0.0
C978 C 0.8164 0.87283 0.75953 0.0
C979 C 0.80185 0.8532 0.77434 0.0
C980 C 0.81219 0.84581 0.79222 0.0
C981 C 0.8371 0.85807 0.79536 0.0
H982 H 0.78256 0.8437 0.77195 0.0
H983 H 0.02379 0.96053 0.80624 0.0
H984 H 0.76125 0.49756 0.49847 0.0
H985 H 0.7192 0.48219 0.50858 0.0
H986 H 0.73133 0.46358 0.58048 0.0
H987 H 0.77366 0.47879 0.57029 0.0
H988 H 0.69513 0.42595 0.55844 0.0
H989 H 0.7148 0.50633 0.57312 0.0
H990 H 0.73349 0.54983 0.56561 0.0
H991 H 0.69229 0.53599 0.50012 0.0
H992 H 0.6736 0.49239 0.50702 0.0
H993 H 0.56742 0.37382 0.57016 0.0
H994 H 0.6101 0.40069 0.57933 0.0
H995 H 0.622 0.42708 0.50562 0.0
H996 H 0.57962 0.40034 0.49635 0.0
H997 H 0.6458 0.46344 0.53951 0.0
H998 H 0.63357 0.38418 0.52078 0.0
H999 H 0.61598 0.34055 0.52675 0.0
H1000 H 0.64414 0.35272 0.59938 0.0
H1001 H 0.66159 0.39645 0.59395 0.0
C1002 C 0.75514 0.49077 0.51665 0.0
C1003 C 0.77069 0.48926 0.53355 0.0
C1004 C 0.73108 0.48208 0.52247 0.0
C1005 C 0.7221 0.47183 0.54535 0.0
C1006 C 0.7379 0.47148 0.56275 0.0
C1007 C 0.76208 0.48027 0.55694 0.0
C1008 C 0.6958 0.45897 0.54967 0.0
C1009 C 0.68436 0.43433 0.55504 0.0
C1010 C 0.68174 0.46978 0.5448 0.0
C1011 C 0.69285 0.49604 0.54057 0.0
C1012 C 0.70983 0.51254 0.55703 0.0
C1013 C 0.72041 0.53723 0.55289 0.0
C1014 C 0.71409 0.54567 0.53239 0.0
C1015 C 0.69715 0.52943 0.51601 0.0
C1016 C 0.68652 0.50472 0.52005 0.0
C1017 C 0.57913 0.38557 0.55603 0.0
C1018 C 0.57028 0.38493 0.53251 0.0
C1019 C 0.60345 0.40085 0.56128 0.0
C1020 C 0.61917 0.41577 0.54311 0.0
C1021 C 0.61014 0.41576 0.5199 0.0
C1022 C 0.58595 0.40039 0.5146 0.0
C1023 C 0.64533 0.43044 0.54751 0.0
C1024 C 0.65666 0.45532 0.5437 0.0
C1025 C 0.65931 0.41985 0.55374 0.0
C1026 C 0.64857 0.39355 0.55709 0.0
C1027 C 0.63577 0.37754 0.53812 0.0
C1028 C 0.62588 0.35279 0.54138 0.0
C1029 C 0.62886 0.34385 0.56346 0.0
C1030 C 0.64178 0.35966 0.58231 0.0
C1031 C 0.65166 0.38442 0.57916 0.0
H1032 H 0.62124 0.32469 0.56593 0.0
H1033 H 0.72231 0.56479 0.52922 0.0
H1034 H 0.50309 0.26177 0.49643 0.0
H1035 H 0.52021 0.23619 0.50484 0.0
H1036 H 0.53387 0.26135 0.57903 0.0
H1037 H 0.51657 0.28707 0.57067 0.0
H1038 H 0.57411 0.26788 0.55572 0.0
H1039 H 0.49531 0.20301 0.5685 0.0
H1040 H 0.45223 0.17634 0.56019 0.0
H1041 H 0.46929 0.15387 0.49323 0.0
H1042 H 0.51248 0.18067 0.50093 0.0
H1043 H 0.63289 0.19835 0.56557 0.0
H1044 H 0.60449 0.21233 0.57441 0.0
H1045 H 0.57874 0.1969 0.5005 0.0
H1046 H 0.60699 0.18299 0.49156 0.0
H1047 H 0.54193 0.18241 0.53341 0.0
H1048 H 0.61923 0.25222 0.51703 0.0
H1049 H 0.66231 0.28074 0.5233 0.0
H1050 H 0.64775 0.29537 0.59556 0.0
H1051 H 0.6046 0.26653 0.5899 0.0
C1052 C 0.50914 0.26137 0.51471 0.0
C1053 C 0.50861 0.27645 0.53288 0.0
C1054 C 0.51882 0.24666 0.51954 0.0
C1055 C 0.52823 0.2468 0.54259 0.0
C1056 C 0.52659 0.26091 0.56115 0.0
C1057 C 0.51663 0.2755 0.55639 0.0
C1058 C 0.54247 0.23468 0.54599 0.0
C1059 C 0.56693 0.24899 0.55157 0.0
C1060 C 0.53317 0.21021 0.54 0.0
C1061 C 0.50718 0.19397 0.53526 0.0
C1062 C 0.48989 0.19252 0.55191 0.0
C1063 C 0.46544 0.17735 0.54733 0.0
C1064 C 0.45802 0.16344 0.52619 0.0
C1065 C 0.47506 0.16464 0.50961 0.0
C1066 C 0.49954 0.17979 0.5141 0.0
C1067 C 0.62101 0.19776 0.55129 0.0
C1068 C 0.6222 0.18969 0.52785 0.0
C1069 C 0.60486 0.20578 0.55635 0.0
C1070 C 0.58961 0.20575 0.53807 0.0
C1071 C 0.5903 0.197 0.51488 0.0
C1072 C 0.60652 0.18917 0.50978 0.0
C1073 C 0.57363 0.21578 0.5425 0.0
C1074 C 0.54892 0.20109 0.53829 0.0
C1075 C 0.58272 0.23998 0.54961 0.0
C1076 C 0.60874 0.25686 0.55321 0.0
C1077 C 0.62525 0.26123 0.5344 0.0
C1078 C 0.64968 0.27752 0.53781 0.0
C1079 C 0.65778 0.28977 0.55986 0.0
C1080 C 0.64147 0.28578 0.57854 0.0
C1081 C 0.61703 0.26944 0.57525 0.0
H1082 H 0.67669 0.30243 0.56244 0.0
H1083 H 0.43908 0.15171 0.52267 0.0
H1084 H 0.80681 0.42281 0.55963 0.0
H1085 H 0.79719 0.38131 0.56595 0.0
H1086 H 0.83946 0.38607 0.50303 0.0
H1087 H 0.84885 0.42749 0.49641 0.0
H1088 H 0.79533 0.34858 0.50011 0.0
H1089 H 0.85695 0.38013 0.56042 0.0
H1090 H 0.87888 0.40407 0.59628 0.0
H1091 H 0.81663 0.36292 0.64082 0.0
H1092 H 0.7942 0.33893 0.60516 0.0
H1093 H 0.76065 0.22877 0.50802 0.0
H1094 H 0.79103 0.2711 0.51276 0.0
H1095 H 0.75047 0.27753 0.57182 0.0
H1096 H 0.7203 0.23513 0.56755 0.0
H1097 H 0.79963 0.30968 0.5764 0.0
H1098 H 0.73655 0.28451 0.51626 0.0
H1099 H 0.71277 0.2601 0.48137 0.0
H1100 H 0.77639 0.29015 0.4373 0.0
H1101 H 0.80063 0.31441 0.47212 0.0
C1102 C 0.8144 0.41515 0.54741 0.0
C1103 C 0.82842 0.4283 0.52742 0.0
C1104 C 0.80903 0.39148 0.55113 0.0
C1105 C 0.81774 0.38063 0.53505 0.0
C1106 C 0.83259 0.39411 0.51568 0.0
C1107 C 0.83793 0.41776 0.51192 0.0
C1108 C 0.80904 0.35453 0.53675 0.0
C1109 C 0.79687 0.3402 0.51661 0.0
C1110 C 0.81038 0.34349 0.55852 0.0
C1111 C 0.82384 0.35782 0.58005 0.0
C1112 C 0.84787 0.37629 0.57782 0.0
C1113 C 0.86041 0.38985 0.59813 0.0
C1114 C 0.84915 0.38505 0.6208 0.0
C1115 C 0.82534 0.36663 0.62324 0.0
C1116 C 0.81271 0.35302 0.60299 0.0
C1117 C 0.75868 0.23896 0.52263 0.0
C1118 C 0.73787 0.22884 0.53706 0.0
C1119 C 0.77605 0.26314 0.52531 0.0
C1120 C 0.77264 0.27753 0.54222 0.0
C1121 C 0.75336 0.26675 0.55857 0.0
C1122 C 0.73607 0.24251 0.55604 0.0
C1123 C 0.7861 0.30401 0.53978 0.0
C1124 C 0.79879 0.31829 0.55976 0.0
C1125 C 0.78505 0.31513 0.51797 0.0
C1126 C 0.77043 0.30105 0.49684 0.0
C1127 C 0.74548 0.2858 0.49916 0.0
C1128 C 0.73192 0.27199 0.47941 0.0
C1129 C 0.74307 0.27352 0.45715 0.0
C1130 C 0.76779 0.28894 0.45457 0.0
C1131 C 0.78145 0.30272 0.47431 0.0
H1132 H 0.73255 0.2628 0.44188 0.0
H1133 H 0.85888 0.39557 0.6365 0.0
H1134 H 0.75657 0.24412 0.1639 0.0
H1135 H 0.78641 0.28653 0.15842 0.0
H1136 H 0.74804 0.28959 0.09547 0.0
H1137 H 0.7184 0.24698 0.10051 0.0
H1138 H 0.79703 0.31902 0.09029 0.0
H1139 H 0.73575 0.30355 0.14992 0.0
H1140 H 0.71162 0.28436 0.18659 0.0
H1141 H 0.77565 0.31574 0.23007 0.0
H1142 H 0.8002 0.33483 0.19356 0.0
H1143 H 0.81443 0.43765 0.09595 0.0
H1144 H 0.80345 0.39553 0.09185 0.0
H1145 H 0.84304 0.40102 0.15717 0.0
H1146 H 0.85362 0.44298 0.16162 0.0
H1147 H 0.79802 0.36706 0.16135 0.0
H1148 H 0.85881 0.38793 0.10141 0.0
H1149 H 0.88194 0.4072 0.06428 0.0
H1150 H 0.81868 0.36679 0.02087 0.0
H1151 H 0.79506 0.34751 0.05778 0.0
C1152 C 0.75477 0.25369 0.14858 0.0
C1153 C 0.73498 0.24237 0.13284 0.0
C1154 C 0.77184 0.2779 0.14547 0.0
C1155 C 0.76918 0.29129 0.1268 0.0
C1156 C 0.7504 0.27959 0.11001 0.0
C1157 C 0.73342 0.25529 0.11299 0.0
C1158 C 0.78404 0.31785 0.12663 0.0
C1159 C 0.79726 0.32962 0.10575 0.0
C1160 C 0.78458 0.33159 0.14697 0.0
C1161 C 0.76982 0.32039 0.16899 0.0
C1162 C 0.74469 0.30622 0.16728 0.0
C1163 C 0.73094 0.29538 0.18803 0.0
C1164 C 0.7421 0.29876 0.21063 0.0
C1165 C 0.76703 0.31309 0.21254 0.0
C1166 C 0.78087 0.32393 0.19183 0.0
C1167 C 0.82144 0.43009 0.10899 0.0
C1168 C 0.83462 0.44348 0.12927 0.0
C1169 C 0.81521 0.406 0.10659 0.0
C1170 C 0.82235 0.39506 0.12427 0.0
C1171 C 0.83724 0.40905 0.14338 0.0
C1172 C 0.84331 0.43304 0.14588 0.0
C1173 C 0.81124 0.36852 0.12499 0.0
C1174 C 0.79839 0.35664 0.14599 0.0
C1175 C 0.81098 0.35484 0.10469 0.0
C1176 C 0.82512 0.36639 0.08242 0.0
C1177 C 0.84977 0.38329 0.08398 0.0
C1178 C 0.86299 0.39419 0.06296 0.0
C1179 C 0.85178 0.38826 0.04024 0.0
C1180 C 0.82734 0.37137 0.03849 0.0
C1181 C 0.81404 0.36042 0.05945 0.0
H1182 H 0.86204 0.39672 0.02399 0.0
H1183 H 0.73143 0.29034 0.22668 0.0
H1184 H 0.75863 0.51172 0.15655 0.0
H1185 H 0.71636 0.4985 0.14912 0.0
H1186 H 0.71357 0.44902 0.09443 0.0
H1187 H 0.75615 0.46273 0.10131 0.0
H1188 H 0.68532 0.46787 0.08183 0.0
H1189 H 0.69685 0.43 0.1518 0.0
H1190 H 0.71424 0.42883 0.19138 0.0
H1191 H 0.68465 0.46908 0.22392 0.0
H1192 H 0.66737 0.47078 0.18441 0.0
H1193 H 0.56267 0.37412 0.09595 0.0
H1194 H 0.60539 0.40195 0.08915 0.0
H1195 H 0.60451 0.44889 0.14474 0.0
H1196 H 0.56198 0.42084 0.152 0.0
H1197 H 0.635 0.4342 0.15557 0.0
H1198 H 0.61905 0.46735 0.08485 0.0
H1199 H 0.60117 0.4664 0.04494 0.0
H1200 H 0.63769 0.43241 0.01335 0.0
H1201 H 0.65554 0.43284 0.05316 0.0
C1202 C 0.74911 0.4983 0.14267 0.0
C1203 C 0.76055 0.488 0.12974 0.0
C1204 C 0.72497 0.49076 0.13844 0.0
C1205 C 0.71171 0.47246 0.12154 0.0
C1206 C 0.72345 0.46314 0.10758 0.0
C1207 C 0.74773 0.47089 0.11162 0.0
C1208 C 0.68523 0.46145 0.12027 0.0
C1209 C 0.67423 0.46038 0.09788 0.0
C1210 C 0.67083 0.4519 0.14128 0.0
C1211 C 0.68105 0.45075 0.1651 0.0
C1212 C 0.6942 0.43875 0.16736 0.0
C1213 C 0.70402 0.43797 0.18978 0.0
C1214 C 0.70061 0.44894 0.21014 0.0
C1215 C 0.68731 0.46064 0.20813 0.0
C1216 C 0.6775 0.46151 0.18573 0.0
C1217 C 0.57137 0.39082 0.10605 0.0
C1218 C 0.55912 0.3952 0.12472 0.0
C1219 C 0.59582 0.40676 0.10213 0.0
C1220 C 0.60822 0.42744 0.11658 0.0
C1221 C 0.59534 0.43296 0.1335 0.0
C1222 C 0.57102 0.41696 0.13758 0.0
C1223 C 0.63486 0.44084 0.11717 0.0
C1224 C 0.64597 0.44208 0.1395 0.0
C1225 C 0.64917 0.4502 0.09605 0.0
C1226 C 0.63849 0.44996 0.07206 0.0
C1227 C 0.62312 0.45949 0.06945 0.0
C1228 C 0.61302 0.45908 0.04683 0.0
C1229 C 0.61825 0.4493 0.02664 0.0
C1230 C 0.63364 0.43996 0.02901 0.0
C1231 C 0.64379 0.44032 0.0516 0.0
H1232 H 0.61041 0.44901 0.00914 0.0
H1233 H 0.70823 0.44832 0.22748 0.0
H1234 H 0.55523 0.30967 0.12585 0.0
H1235 H 0.56761 0.27989 0.11842 0.0
H1236 H 0.49824 0.22347 0.14218 0.0
H1237 H 0.4854 0.25321 0.14896 0.0
H1238 H 0.54395 0.22966 0.16651 0.0
H1239 H 0.50511 0.21878 0.08917 0.0
H1240 H 0.49631 0.23257 0.05074 0.0
H1241 H 0.57043 0.26511 0.02991 0.0
H1242 H 0.57976 0.25183 0.06839 0.0
H1243 H 0.5906 0.15282 0.15342 0.0
H1244 H 0.56079 0.1656 0.14876 0.0
H1245 H 0.6085 0.22183 0.0998 0.0
H1246 H 0.63753 0.20807 0.1032 0.0
H1247 H 0.5657 0.2091 0.0871 0.0
H1248 H 0.60724 0.22963 0.16403 0.0
H1249 H 0.62063 0.22137 0.20305 0.0
H1250 H 0.54725 0.1775 0.22553 0.0
H1251 H 0.53344 0.18526 0.18648 0.0
C1252 C 0.5425 0.29088 0.12918 0.0
C1253 C 0.51939 0.28369 0.13803 0.0
C1254 C 0.54956 0.27392 0.12483 0.0
C1255 C 0.53377 0.24956 0.12966 0.0
C1256 C 0.51056 0.24222 0.13821 0.0
C1257 C 0.50328 0.25916 0.14204 0.0
C1258 C 0.54254 0.23233 0.12765 0.0
C1259 C 0.54813 0.22456 0.14917 0.0
C1260 C 0.54872 0.22655 0.105 0.0
C1261 C 0.54315 0.23444 0.08176 0.0
C1262 C 0.51958 0.22905 0.07649 0.0
C1263 C 0.51448 0.23674 0.05468 0.0
C1264 C 0.5328 0.24974 0.03792 0.0
C1265 C 0.55625 0.25504 0.04292 0.0
C1266 C 0.56144 0.2474 0.06471 0.0
C1267 C 0.59435 0.16745 0.14112 0.0
C1268 C 0.61641 0.17964 0.12885 0.0
C1269 C 0.57741 0.17487 0.1386 0.0
C1270 C 0.5827 0.1952 0.12456 0.0
C1271 C 0.604 0.20619 0.11086 0.0
C1272 C 0.62063 0.19834 0.11283 0.0
C1273 C 0.56755 0.20664 0.12605 0.0
C1274 C 0.56094 0.21355 0.10448 0.0
C1275 C 0.56106 0.21233 0.14872 0.0
C1276 C 0.56932 0.20777 0.17225 0.0
C1277 C 0.59397 0.2181 0.17725 0.0
C1278 C 0.60163 0.21352 0.19936 0.0
C1279 C 0.5848 0.19886 0.21672 0.0
C1280 C 0.56027 0.1888 0.21204 0.0
C1281 C 0.55251 0.19328 0.18993 0.0
H1282 H 0.59076 0.19533 0.23383 0.0
H1283 H 0.52883 0.25568 0.02104 0.0
H1284 H 0.23266 0.72953 0.89748 0.0
H1285 H 0.27502 0.75855 0.90591 0.0
H1286 H 0.29557 0.73717 0.83994 0.0
H1287 H 0.25353 0.70838 0.8314 0.0
H1288 H 0.32343 0.73968 0.87895 0.0
H1289 H 0.29359 0.78745 0.84067 0.0
H1290 H 0.26666 0.80425 0.83681 0.0
H1291 H 0.28942 0.8378 0.90676 0.0
H1292 H 0.31626 0.8209 0.91116 0.0
H1293 H 0.42991 0.84917 0.83621 0.0
H1294 H 0.38718 0.83068 0.84538 0.0
H1295 H 0.3988 0.80665 0.9146 0.0
H1296 H 0.4417 0.82518 0.90552 0.0
H1297 H 0.35444 0.82757 0.88117 0.0
H1298 H 0.35838 0.7456 0.91514 0.0
H1299 H 0.38596 0.7293 0.91475 0.0
H1300 H 0.41542 0.76447 0.84668 0.0
H1301 H 0.38768 0.78053 0.84644 0.0
C1302 C 0.24625 0.73109 0.8848 0.0
C1303 C 0.23983 0.71675 0.86377 0.0
C1304 C 0.27038 0.74764 0.88963 0.0
C1305 C 0.28838 0.74995 0.87355 0.0
C1306 C 0.28195 0.73556 0.85264 0.0
C1307 C 0.25792 0.71921 0.84773 0.0
C1308 C 0.31401 0.76747 0.87807 0.0
C1309 C 0.33015 0.75887 0.87982 0.0
C1310 C 0.32277 0.7925 0.87903 0.0
C1311 C 0.30668 0.80266 0.87638 0.0
C1312 C 0.29268 0.79822 0.85532 0.0
C1313 C 0.27747 0.8078 0.85301 0.0
C1314 C 0.27626 0.82201 0.87157 0.0
C1315 C 0.29033 0.82674 0.89243 0.0
C1316 C 0.30554 0.81717 0.89484 0.0
C1317 C 0.42352 0.84076 0.85379 0.0
C1318 C 0.43898 0.8382 0.86997 0.0
C1319 C 0.39911 0.8303 0.85906 0.0
C1320 C 0.38983 0.81696 0.88046 0.0
C1321 C 0.40566 0.81675 0.8979 0.0
C1322 C 0.43016 0.82738 0.8927 0.0
C1323 C 0.36377 0.79974 0.88198 0.0
C1324 C 0.34758 0.80835 0.88118 0.0
C1325 C 0.35493 0.77467 0.88142 0.0
C1326 C 0.37118 0.76451 0.88097 0.0
C1327 C 0.37067 0.74975 0.90005 0.0
C1328 C 0.38632 0.74055 0.89993 0.0
C1329 C 0.40248 0.74591 0.88074 0.0
C1330 C 0.40293 0.76037 0.86156 0.0
C1331 C 0.38724 0.76951 0.86154 0.0
H1332 H 0.41459 0.7388 0.88069 0.0
H1333 H 0.26449 0.82942 0.86974 0.0
H1334 H 0.26095 0.49427 0.89193 0.0
H1335 H 0.2281 0.50247 0.89958 0.0
H1336 H 0.26274 0.56482 0.85318 0.0
H1337 H 0.29506 0.55641 0.84501 0.0
H1338 H 0.22476 0.53883 0.91895 0.0
H1339 H 0.22374 0.57055 0.81969 0.0
H1340 H 0.23072 0.56094 0.77814 0.0
H1341 H 0.2138 0.49046 0.80144 0.0
H1342 H 0.20636 0.49949 0.84305 0.0
H1343 H 0.19225 0.62648 0.90708 0.0
H1344 H 0.20541 0.59737 0.91223 0.0
H1345 H 0.14882 0.54816 0.86444 0.0
H1346 H 0.13643 0.57805 0.85815 0.0
H1347 H 0.18707 0.55402 0.84763 0.0
H1348 H 0.1554 0.53392 0.92644 0.0
H1349 H 0.14529 0.53944 0.96828 0.0
H1350 H 0.22017 0.57859 0.98671 0.0
H1351 H 0.23079 0.57364 0.9449 0.0
C1352 C 0.26153 0.50976 0.88345 0.0
C1353 C 0.28043 0.52459 0.8677 0.0
C1354 C 0.2428 0.51442 0.88787 0.0
C1355 C 0.24273 0.53397 0.87658 0.0
C1356 C 0.26211 0.54929 0.86163 0.0
C1357 C 0.28065 0.54454 0.85707 0.0
C1358 C 0.22243 0.53849 0.87991 0.0
C1359 C 0.21629 0.54198 0.90344 0.0
C1360 C 0.21059 0.54147 0.85969 0.0
C1361 C 0.2146 0.53576 0.83454 0.0
C1362 C 0.22133 0.55293 0.81593 0.0
C1363 C 0.22541 0.5476 0.79237 0.0
C1364 C 0.22274 0.52512 0.78717 0.0
C1365 C 0.21592 0.50789 0.8055 0.0
C1366 C 0.21179 0.51311 0.82908 0.0
C1367 C 0.18204 0.60913 0.89833 0.0
C1368 C 0.16355 0.60468 0.8819 0.0
C1369 C 0.18951 0.59232 0.90143 0.0
C1370 C 0.17822 0.57046 0.88866 0.0
C1371 C 0.158 0.56496 0.87432 0.0
C1372 C 0.15083 0.58201 0.87083 0.0
C1373 C 0.19023 0.55583 0.88675 0.0
C1374 C 0.19491 0.55037 0.86335 0.0
C1375 C 0.2001 0.55038 0.90717 0.0
C1376 C 0.19389 0.55344 0.93244 0.0
C1377 C 0.16974 0.54384 0.93936 0.0
C1378 C 0.16391 0.54685 0.96309 0.0
C1379 C 0.18207 0.55937 0.98014 0.0
C1380 C 0.20611 0.56887 0.97349 0.0
C1381 C 0.21204 0.56592 0.94978 0.0
H1382 H 0.17753 0.56169 0.9985 0.0
H1383 H 0.22594 0.52104 0.76892 0.0
H1384 H 0.47376 0.77254 0.90205 0.0
H1385 H 0.45748 0.73007 0.91243 0.0
H1386 H 0.45555 0.71306 0.83622 0.0
H1387 H 0.47075 0.75505 0.82583 0.0
H1388 H 0.41617 0.68181 0.85578 0.0
H1389 H 0.50005 0.71718 0.87814 0.0
H1390 H 0.53689 0.74508 0.90043 0.0
H1391 H 0.50097 0.71637 0.96835 0.0
H1392 H 0.46382 0.68848 0.94645 0.0
H1393 H 0.41453 0.57576 0.84681 0.0
H1394 H 0.43815 0.61871 0.85499 0.0
H1395 H 0.39777 0.60925 0.92064 0.0
H1396 H 0.37382 0.56605 0.91252 0.0
H1397 H 0.45606 0.65295 0.91293 0.0
H1398 H 0.37081 0.61878 0.88805 0.0
H1399 H 0.33666 0.58854 0.86395 0.0
H1400 H 0.37845 0.61484 0.79863 0.0
H1401 H 0.41299 0.64494 0.82249 0.0
C1402 C 0.46989 0.75967 0.88759 0.0
C1403 C 0.47353 0.76704 0.86315 0.0
C1404 C 0.4607 0.73545 0.89353 0.0
C1405 C 0.45551 0.71835 0.87513 0.0
C1406 C 0.4593 0.72584 0.85075 0.0
C1407 C 0.46806 0.74988 0.84482 0.0
C1408 C 0.44565 0.69251 0.88084 0.0
C1409 C 0.42497 0.67568 0.86836 0.0
C1410 C 0.45676 0.68425 0.89754 0.0
C1411 C 0.4791 0.70095 0.91067 0.0
C1412 C 0.49997 0.71695 0.89783 0.0
C1413 C 0.52091 0.73273 0.91039 0.0
C1414 C 0.52125 0.73255 0.93579 0.0
C1415 C 0.50067 0.71653 0.94868 0.0
C1416 C 0.47967 0.70072 0.93621 0.0
C1417 C 0.41133 0.5826 0.86354 0.0
C1418 C 0.39202 0.56768 0.87876 0.0
C1419 C 0.42496 0.60714 0.86826 0.0
C1420 C 0.41948 0.61705 0.88826 0.0
C1421 C 0.40229 0.60181 0.90519 0.0
C1422 C 0.38857 0.57716 0.90046 0.0
C1423 C 0.42707 0.64282 0.88764 0.0
C1424 C 0.44716 0.65941 0.90088 0.0
C1425 C 0.4156 0.65102 0.87156 0.0
C1426 C 0.39445 0.63399 0.85704 0.0
C1427 C 0.37269 0.61807 0.86855 0.0
C1428 C 0.35329 0.60094 0.85495 0.0
C1429 C 0.35539 0.59975 0.82977 0.0
C1430 C 0.37685 0.61578 0.81813 0.0
C1431 C 0.39633 0.63289 0.83168 0.0
H1432 H 0.34038 0.58641 0.81928 0.0
H1433 H 0.53748 0.74479 0.94548 0.0
H1434 H 0.50116 0.76182 0.49464 0.0
H1435 H 0.48436 0.71947 0.48439 0.0
H1436 H 0.46169 0.73174 0.41467 0.0
H1437 H 0.47886 0.77442 0.42477 0.0
H1438 H 0.42462 0.69699 0.44268 0.0
H1439 H 0.5011 0.71316 0.41488 0.0
H1440 H 0.54502 0.73055 0.41612 0.0
H1441 H 0.53852 0.69022 0.48069 0.0
H1442 H 0.49458 0.67285 0.48007 0.0
H1443 H 0.36499 0.56874 0.43302 0.0
H1444 H 0.39066 0.61122 0.42244 0.0
H1445 H 0.43208 0.62199 0.48772 0.0
H1446 H 0.40679 0.57968 0.49816 0.0
H1447 H 0.46097 0.64512 0.45083 0.0
H1448 H 0.38734 0.63619 0.48389 0.0
H1449 H 0.34406 0.62222 0.4868 0.0
H1450 H 0.34563 0.65111 0.41604 0.0
H1451 H 0.38886 0.6649 0.41251 0.0
C1452 C 0.49326 0.75564 0.47683 0.0
C1453 C 0.49124 0.77132 0.46051 0.0
C1454 C 0.48374 0.73146 0.47095 0.0
C1455 C 0.47184 0.72249 0.44875 0.0
C1456 C 0.47094 0.73838 0.43184 0.0
C1457 C 0.48083 0.76273 0.43758 0.0
C1458 C 0.45761 0.69618 0.44504 0.0
C1459 C 0.43256 0.68557 0.44369 0.0
C1460 C 0.46804 0.68144 0.44704 0.0
C1461 C 0.4945 0.69176 0.44747 0.0
C1462 C 0.50903 0.70812 0.42945 0.0
C1463 C 0.53394 0.71795 0.43002 0.0
C1464 C 0.54455 0.71151 0.44848 0.0
C1465 C 0.53027 0.69518 0.46639 0.0
C1466 C 0.50535 0.6853 0.46591 0.0
C1467 C 0.37976 0.58014 0.44493 0.0
C1468 C 0.38391 0.57092 0.46642 0.0
C1469 C 0.39432 0.60441 0.43894 0.0
C1470 C 0.41319 0.61983 0.45438 0.0
C1471 C 0.41769 0.61043 0.47549 0.0
C1472 C 0.40317 0.58625 0.48148 0.0
C1473 C 0.42791 0.64593 0.4493 0.0
C1474 C 0.45303 0.65647 0.44905 0.0
C1475 C 0.41753 0.66068 0.44619 0.0
C1476 C 0.39127 0.65122 0.44776 0.0
C1477 C 0.37839 0.63923 0.46878 0.0
C1478 C 0.35389 0.63147 0.4706 0.0
C1479 C 0.34212 0.63583 0.45164 0.0
C1480 C 0.35477 0.64775 0.43071 0.0
C1481 C 0.37926 0.6555 0.42877 0.0
H1482 H 0.32318 0.62989 0.45313 0.0
H1483 H 0.56384 0.71915 0.4489 0.0
H1484 H 0.23787 0.73769 0.49523 0.0
H1485 H 0.27942 0.76484 0.48378 0.0
H1486 H 0.26747 0.72825 0.415 0.0
H1487 H 0.22566 0.70067 0.42659 0.0
H1488 H 0.30423 0.72974 0.43828 0.0
H1489 H 0.28315 0.78781 0.41665 0.0
H1490 H 0.26383 0.81251 0.42025 0.0
H1491 H 0.30474 0.84573 0.48471 0.0
H1492 H 0.32406 0.82099 0.48173 0.0
H1493 H 0.43192 0.8068 0.4269 0.0
H1494 H 0.38943 0.79049 0.41638 0.0
H1495 H 0.37546 0.80617 0.48883 0.0
H1496 H 0.41762 0.82213 0.49952 0.0
H1497 H 0.35224 0.81774 0.45161 0.0
H1498 H 0.36523 0.75258 0.47736 0.0
H1499 H 0.38387 0.72719 0.47457 0.0
H1500 H 0.35725 0.70703 0.40175 0.0
H1501 H 0.33878 0.73267 0.40398 0.0
C1502 C 0.24387 0.73582 0.47738 0.0
C1503 C 0.22858 0.71697 0.46187 0.0
C1504 C 0.26764 0.75147 0.47077 0.0
C1505 C 0.27659 0.74866 0.44847 0.0
C1506 C 0.26093 0.73076 0.43227 0.0
C1507 C 0.23704 0.7151 0.43887 0.0
C1508 C 0.30285 0.76223 0.44393 0.0
C1509 C 0.31469 0.74909 0.44042 0.0
C1510 C 0.31654 0.78743 0.44706 0.0
C1511 C 0.30501 0.80244 0.44899 0.0
C1512 C 0.28792 0.80026 0.43169 0.0
C1513 C 0.27698 0.8143 0.43361 0.0
C1514 C 0.28304 0.83066 0.45271 0.0
C1515 C 0.30008 0.83305 0.46991 0.0
C1516 C 0.31106 0.81906 0.46809 0.0
C1517 C 0.4198 0.80703 0.44044 0.0
C1518 C 0.42796 0.81557 0.46406 0.0
C1519 C 0.3956 0.79771 0.43442 0.0
C1520 C 0.37938 0.79711 0.45187 0.0
C1521 C 0.38775 0.80659 0.47511 0.0
C1522 C 0.41179 0.81556 0.48122 0.0
C1523 C 0.35333 0.78508 0.44682 0.0
C1524 C 0.34165 0.79851 0.44862 0.0
C1525 C 0.33975 0.76015 0.44208 0.0
C1526 C 0.35096 0.74485 0.44069 0.0
C1527 C 0.36359 0.74296 0.46065 0.0
C1528 C 0.37407 0.72848 0.45919 0.0
C1529 C 0.37184 0.71559 0.43795 0.0
C1530 C 0.35904 0.7171 0.41816 0.0
C1531 C 0.34858 0.73162 0.4195 0.0
H1532 H 0.37997 0.70439 0.43687 0.0
H1533 H 0.27455 0.84151 0.45416 0.0
H1534 H 0.27876 0.49927 0.42994 0.0
H1535 H 0.24953 0.51193 0.42059 0.0
H1536 H 0.22742 0.50198 0.49576 0.0
H1537 H 0.25612 0.48887 0.50509 0.0
H1538 H 0.19028 0.49341 0.46559 0.0
H1539 H 0.27441 0.55452 0.47694 0.0
H1540 H 0.31729 0.57282 0.46623 0.0
H1541 H 0.30202 0.58592 0.39368 0.0
H1542 H 0.25894 0.56722 0.40383 0.0
H1543 H 0.17349 0.58678 0.50712 0.0
H1544 H 0.18542 0.55722 0.49743 0.0
H1545 H 0.19866 0.58174 0.42303 0.0
H1546 H 0.18688 0.61169 0.43273 0.0
H1547 H 0.23614 0.57948 0.44231 0.0
H1548 H 0.15195 0.52627 0.43611 0.0
H1549 H 0.10951 0.50736 0.44858 0.0
H1550 H 0.125 0.48003 0.5131 0.0
H1551 H 0.16761 0.49906 0.50122 0.0
C1552 C 0.26706 0.49896 0.44427 0.0
C1553 C 0.27003 0.49357 0.46834 0.0
C1554 C 0.25041 0.50624 0.43892 0.0
C1555 C 0.23676 0.50844 0.45761 0.0
C1556 C 0.23787 0.50053 0.48108 0.0
C1557 C 0.25439 0.49314 0.48642 0.0
C1558 C 0.22449 0.52251 0.45403 0.0
C1559 C 0.20019 0.51219 0.46037 0.0
C1560 C 0.23742 0.54693 0.4468 0.0
C1561 C 0.26344 0.55918 0.44103 0.0
C1562 C 0.28019 0.56121 0.45867 0.0
C1563 C 0.30451 0.57158 0.45269 0.0
C1564 C 0.31233 0.58032 0.42923 0.0
C1565 C 0.2959 0.57898 0.41179 0.0
C1566 C 0.27153 0.56848 0.41764 0.0
C1567 C 0.17862 0.58568 0.48861 0.0
C1568 C 0.1793 0.60156 0.47068 0.0
C1569 C 0.18529 0.56866 0.48305 0.0
C1570 C 0.19265 0.56707 0.45943 0.0
C1571 C 0.19289 0.58258 0.44133 0.0
C1572 C 0.18613 0.59963 0.44688 0.0
C1573 C 0.20198 0.55056 0.45449 0.0
C1574 C 0.22587 0.56051 0.44672 0.0
C1575 C 0.18871 0.52589 0.46064 0.0
C1576 C 0.16303 0.51418 0.46778 0.0
C1577 C 0.14634 0.51634 0.45302 0.0
C1578 C 0.12225 0.50558 0.45998 0.0
C1579 C 0.11457 0.49252 0.48162 0.0
C1580 C 0.13097 0.49014 0.49633 0.0
C1581 C 0.15509 0.50087 0.48946 0.0
H1582 H 0.09591 0.48422 0.48699 0.0
H1583 H 0.33116 0.58831 0.42462 0.0
H1584 H 0.19089 0.20173 0.09657 0.0
H1585 H 0.19062 0.20281 0.05213 0.0
H1586 H 0.15097 0.12536 0.05006 0.0
H1587 H 0.15124 0.12414 0.09456 0.0
H1588 H 0.18888 0.14472 0.01802 0.0
H1589 H 0.12263 0.15594 0.03918 0.0
H1590 H 0.10276 0.17516 0.06027 0.0
H1591 H 0.15071 0.24235 0.02584 0.0
H1592 H 0.17109 0.2236 0.0048 0.0
H1593 H 0.15571 0.13015 0.89387 0.0
H1594 H 0.15543 0.12906 0.93829 0.0
H1595 H 0.1895 0.20639 0.9404 0.0
H1596 H 0.18922 0.20747 0.89592 0.0
H1597 H 0.15449 0.18719 0.97266 0.0
H1598 H 0.22109 0.17686 0.95178 0.0
H1599 H 0.24187 0.15846 0.93092 0.0
H1600 H 0.19472 0.09081 0.96499 0.0
H1601 H 0.17344 0.10873 0.98581 0.0
C1602 C 0.18207 0.18493 0.08665 0.0
C1603 C 0.17104 0.16284 0.09901 0.0
C1604 C 0.18187 0.18558 0.06128 0.0
C1605 C 0.1706 0.16416 0.04784 0.0
C1606 C 0.15973 0.14208 0.06013 0.0
C1607 C 0.15984 0.14142 0.08552 0.0
C1608 C 0.17044 0.16482 0.02092 0.0
C1609 C 0.18107 0.15371 0.00805 0.0
C1610 C 0.16083 0.17713 0.00803 0.0
C1611 C 0.14854 0.18842 0.0206 0.0
C1612 C 0.12907 0.17486 0.03626 0.0
C1613 C 0.11769 0.18566 0.04818 0.0
C1614 C 0.12551 0.20997 0.04445 0.0
C1615 C 0.14469 0.22352 0.02874 0.0
C1616 C 0.15615 0.21282 0.01679 0.0
C1617 C 0.16317 0.14691 0.90382 0.0
C1618 C 0.17254 0.16891 0.89149 0.0
C1619 C 0.1631 0.14628 0.92919 0.0
C1620 C 0.17275 0.16767 0.94269 0.0
C1621 C 0.18199 0.18966 0.93037 0.0
C1622 C 0.18187 0.19027 0.90499 0.0
C1623 C 0.17294 0.16706 0.96966 0.0
C1624 C 0.16232 0.1782 0.98257 0.0
C1625 C 0.18271 0.15489 0.98261 0.0
C1626 C 0.19553 0.14409 0.97017 0.0
C1627 C 0.21504 0.15801 0.95468 0.0
C1628 C 0.22693 0.14768 0.94289 0.0
C1629 C 0.21958 0.12346 0.94658 0.0
C1630 C 0.20037 0.10955 0.96212 0.0
C1631 C 0.1884 0.1198 0.97394 0.0
H1632 H 0.22881 0.1155 0.93743 0.0
H1633 H 0.11668 0.2183 0.05369 0.0
H1634 H 0.82209 0.97697 0.9081 0.0
H1635 H 0.8186 0.98035 0.95203 0.0
H1636 H 0.83614 0.05404 0.94336 0.0
H1637 H 0.83951 0.05075 0.89929 0.0
H1638 H 0.86251 0.04724 0.97994 0.0
H1639 H 0.78053 0.01442 0.95579 0.0
H1640 H 0.74301 0.98598 0.93486 0.0
H1641 H 0.739 0.92778 0.97682 0.0
H1642 H 0.77671 0.95583 0.99776 0.0
H1643 H 0.84271 0.057 0.10506 0.0
H1644 H 0.83908 0.05806 0.06083 0.0
H1645 H 0.81184 0.98165 0.05751 0.0
H1646 H 0.81461 0.98037 0.10168 0.0
H1647 H 0.78863 0.99327 0.02628 0.0
H1648 H 0.87198 0.02381 0.04651 0.0
H1649 H 0.91037 0.05087 0.0669 0.0
H1650 H 0.91272 0.11168 0.03183 0.0
H1651 H 0.87416 0.08498 0.01148 0.0
C1652 C 0.82512 0.99387 0.91554 0.0
C1653 C 0.83106 0.0136 0.90031 0.0
C1654 C 0.82301 0.99573 0.9406 0.0
C1655 C 0.82692 0.01738 0.95086 0.0
C1656 C 0.83298 0.03717 0.93573 0.0
C1657 C 0.83486 0.03524 0.91061 0.0
C1658 C 0.82544 0.01948 0.97752 0.0
C1659 C 0.84624 0.03579 0.99009 0.0
C1660 C 0.80433 0.00413 0.99067 0.0
C1661 C 0.78156 0.98722 0.97821 0.0
C1662 C 0.77176 0.99553 0.96042 0.0
C1663 C 0.75043 0.97949 0.94858 0.0
C1664 C 0.73866 0.95508 0.95447 0.0
C1665 C 0.74815 0.94669 0.97226 0.0
C1666 C 0.76948 0.96266 0.98415 0.0
C1667 C 0.83573 0.04042 0.09488 0.0
C1668 C 0.82916 0.01864 0.10676 0.0
C1669 C 0.83374 0.04105 0.06962 0.0
C1670 C 0.82561 0.02 0.0558 0.0
C1671 C 0.81821 0.99812 0.06777 0.0
C1672 C 0.8199 0.99743 0.09302 0.0
C1673 C 0.82586 0.02077 0.02882 0.0
C1674 C 0.80482 0.00497 0.01617 0.0
C1675 C 0.84685 0.03639 0.01557 0.0
C1676 C 0.87007 0.05244 0.02771 0.0
C1677 C 0.8806 0.04297 0.04329 0.0
C1678 C 0.9024 0.05824 0.05482 0.0
C1679 C 0.91394 0.08299 0.05072 0.0
C1680 C 0.90374 0.09251 0.03503 0.0
C1681 C 0.88192 0.07733 0.02349 0.0
H1682 H 0.93081 0.09478 0.05966 0.0
H1683 H 0.72215 0.94269 0.94528 0.0
H1684 H 0.00732 0.81595 0.90241 0.0
H1685 H 0.00738 0.81704 0.94679 0.0
H1686 H 0.03444 0.89345 0.94494 0.0
H1687 H 0.03494 0.89256 0.90041 0.0
H1688 H 0.05647 0.88237 0.97972 0.0
H1689 H 0.97532 0.85458 0.95589 0.0
H1690 H 0.93733 0.82915 0.93415 0.0
H1691 H 0.92968 0.76668 0.97066 0.0
H1692 H 0.96782 0.7917 0.99237 0.0
H1693 H 0.02721 0.8865 0.10479 0.0
H1694 H 0.02989 0.89003 0.06041 0.0
H1695 H 0.00422 0.81405 0.05451 0.0
H1696 H 0.00106 0.81033 0.0987 0.0
H1697 H 0.98116 0.82766 0.02363 0.0
H1698 H 0.06385 0.85627 0.04628 0.0
H1699 H 0.10107 0.88258 0.06885 0.0
H1700 H 0.10495 0.94464 0.03513 0.0
H1701 H 0.06756 0.9187 0.01258 0.0
C1702 C 0.01336 0.833 0.91145 0.0
C1703 C 0.02096 0.85414 0.89799 0.0
C1704 C 0.01331 0.83359 0.9368 0.0
C1705 C 0.02053 0.85526 0.94915 0.0
C1706 C 0.02872 0.87653 0.93576 0.0
C1707 C 0.02893 0.87597 0.91035 0.0
C1708 C 0.0191 0.85554 0.97603 0.0
C1709 C 0.03993 0.87065 0.98933 0.0
C1710 C 0.99756 0.84011 0.98856 0.0
C1711 C 0.97455 0.825 0.97561 0.0
C1712 C 0.96563 0.8354 0.95915 0.0
C1713 C 0.94405 0.82106 0.94685 0.0
C1714 C 0.93113 0.79631 0.95098 0.0
C1715 C 0.93972 0.78585 0.96746 0.0
C1716 C 0.96131 0.80011 0.97979 0.0
C1717 C 0.02223 0.87059 0.094 0.0
C1718 C 0.01391 0.84814 0.10515 0.0
C1719 C 0.02385 0.87264 0.06868 0.0
C1720 C 0.0174 0.85231 0.05418 0.0
C1721 C 0.00924 0.82994 0.06536 0.0
C1722 C 0.00752 0.82787 0.0906 0.0
C1723 C 0.01862 0.85407 0.02731 0.0
C1724 C 0.99769 0.83941 0.01401 0.0
C1725 C 0.04 0.87001 0.01484 0.0
C1726 C 0.0628 0.88556 0.02792 0.0
C1727 C 0.07258 0.87553 0.04377 0.0
C1728 C 0.09371 0.89038 0.05655 0.0
C1729 C 0.10532 0.91527 0.05349 0.0
C1730 C 0.09591 0.92536 0.03752 0.0
C1731 C 0.07477 0.9106 0.0247 0.0
H1732 H 0.12165 0.92674 0.06344 0.0
H1733 H 0.91442 0.78524 0.94144 0.0
H1734 H 0.8566 0.53502 0.23112 0.0
H1735 H 0.85657 0.53249 0.27543 0.0
H1736 H 0.797 0.45986 0.27222 0.0
H1737 H 0.79663 0.46246 0.2278 0.0
H1738 H 0.79061 0.4847 0.30764 0.0
H1739 H 0.85399 0.47092 0.28251 0.0
H1740 H 0.89089 0.47941 0.26065 0.0
H1741 H 0.93057 0.54592 0.29945 0.0
H1742 H 0.89382 0.53799 0.32131 0.0
H1743 H 0.80223 0.45655 0.43041 0.0
H1744 H 0.80061 0.45656 0.38594 0.0
H1745 H 0.85878 0.52996 0.3848 0.0
H1746 H 0.8607 0.52998 0.4292 0.0
H1747 H 0.86521 0.50278 0.35152 0.0
H1748 H 0.80125 0.51676 0.37579 0.0
H1749 H 0.76424 0.5079 0.39768 0.0
H1750 H 0.72558 0.44029 0.36053 0.0
H1751 H 0.76246 0.44861 0.33866 0.0
C1752 C 0.84346 0.51853 0.23985 0.0
C1753 C 0.82669 0.49889 0.22603 0.0
C1754 C 0.84354 0.51706 0.26516 0.0
C1755 C 0.82703 0.49585 0.27709 0.0
C1756 C 0.80995 0.47636 0.26336 0.0
C1757 C 0.80979 0.47786 0.23801 0.0
C1758 C 0.82765 0.49407 0.30392 0.0
C1759 C 0.80682 0.48829 0.31722 0.0
C1760 C 0.84892 0.49918 0.31643 0.0
C1761 C 0.87109 0.50395 0.30339 0.0
C1762 C 0.87054 0.48744 0.28625 0.0
C1763 C 0.89144 0.49214 0.27388 0.0
C1764 C 0.91305 0.51322 0.27862 0.0
C1765 C 0.91382 0.52961 0.29578 0.0
C1766 C 0.89296 0.52501 0.30819 0.0
C1767 C 0.81467 0.47268 0.42066 0.0
C1768 C 0.83155 0.49329 0.43324 0.0
C1769 C 0.81366 0.47268 0.39529 0.0
C1770 C 0.82941 0.49335 0.38211 0.0
C1771 C 0.84645 0.51385 0.39464 0.0
C1772 C 0.84748 0.51385 0.41999 0.0
C1773 C 0.82826 0.49363 0.35522 0.0
C1774 C 0.84899 0.4991 0.34192 0.0
C1775 C 0.80689 0.48817 0.34273 0.0
C1776 C 0.78467 0.4832 0.35577 0.0
C1777 C 0.7849 0.49992 0.37243 0.0
C1778 C 0.76394 0.49501 0.38481 0.0
C1779 C 0.74259 0.47352 0.38055 0.0
C1780 C 0.74214 0.45692 0.36384 0.0
C1781 C 0.76306 0.46173 0.35143 0.0
H1782 H 0.72638 0.46975 0.39015 0.0
H1783 H 0.92921 0.51682 0.26902 0.0
H1784 H 0.47033 0.29406 0.23334 0.0
H1785 H 0.46673 0.29307 0.27769 0.0
H1786 H 0.52483 0.36643 0.28146 0.0
H1787 H 0.52887 0.36733 0.23726 0.0
H1788 H 0.52988 0.3401 0.31516 0.0
H1789 H 0.46534 0.35142 0.28693 0.0
H1790 H 0.42898 0.34144 0.26322 0.0
H1791 H 0.39039 0.27374 0.30016 0.0
H1792 H 0.42665 0.28317 0.32387 0.0
H1793 H 0.51672 0.37107 0.43374 0.0
H1794 H 0.5153 0.36948 0.38936 0.0
H1795 H 0.4613 0.29444 0.39216 0.0
H1796 H 0.46246 0.29594 0.4367 0.0
H1797 H 0.45283 0.31937 0.35547 0.0
H1798 H 0.51734 0.30844 0.38389 0.0
H1799 H 0.55369 0.31868 0.40772 0.0
H1800 H 0.59225 0.386 0.37011 0.0
H1801 H 0.556 0.37632 0.34629 0.0
C1802 C 0.48242 0.30991 0.24366 0.0
C1803 C 0.49987 0.33079 0.23188 0.0
C1804 C 0.48023 0.30938 0.26897 0.0
C1805 C 0.49527 0.3298 0.28284 0.0
C1806 C 0.513 0.35049 0.2711 0.0
C1807 C 0.51529 0.35098 0.24585 0.0
C1808 C 0.49277 0.32971 0.30964 0.0
C1809 C 0.51309 0.33584 0.32393 0.0
C1810 C 0.47068 0.32352 0.32111 0.0
C1811 C 0.4488 0.3179 0.30699 0.0
C1812 C 0.44916 0.33432 0.28987 0.0
C1813 C 0.42856 0.32878 0.27645 0.0
C1814 C 0.40741 0.30694 0.28013 0.0
C1815 C 0.4068 0.29063 0.2973 0.0
C1816 C 0.42737 0.29608 0.31075 0.0
C1817 C 0.50435 0.35429 0.42492 0.0
C1818 C 0.48994 0.33353 0.43864 0.0
C1819 C 0.50357 0.35341 0.39959 0.0
C1820 C 0.48849 0.33175 0.38753 0.0
C1821 C 0.47312 0.3113 0.40116 0.0
C1822 C 0.47388 0.31217 0.42656 0.0
C1823 C 0.49004 0.33015 0.36081 0.0
C1824 C 0.46956 0.3236 0.34661 0.0
C1825 C 0.51199 0.33598 0.34934 0.0
C1826 C 0.53389 0.34174 0.36346 0.0
C1827 C 0.53352 0.3255 0.38082 0.0
C1828 C 0.55411 0.33119 0.39431 0.0
C1829 C 0.57525 0.353 0.39047 0.0
C1830 C 0.57586 0.36913 0.37308 0.0
C1831 C 0.5553 0.36354 0.35956 0.0
H1832 H 0.59118 0.35738 0.40094 0.0
H1833 H 0.39149 0.30268 0.26971 0.0
H1834 H 0.69374 0.21482 0.43273 0.0
H1835 H 0.69491 0.21656 0.38823 0.0
H1836 H 0.66605 0.1399 0.38511 0.0
H1837 H 0.66516 0.13808 0.4295 0.0
H1838 H 0.70192 0.16266 0.35297 0.0
H1839 H 0.63033 0.16405 0.37552 0.0
H1840 H 0.60697 0.17923 0.39708 0.0
H1841 H 0.64812 0.2477 0.36209 0.0
H1842 H 0.67196 0.23301 0.34057 0.0
H1843 H 0.66358 0.13974 0.23105 0.0
H1844 H 0.66472 0.1406 0.27541 0.0
H1845 H 0.69051 0.21682 0.27432 0.0
H1846 H 0.68857 0.21586 0.22983 0.0
H1847 H 0.65792 0.19599 0.30862 0.0
H1848 H 0.72852 0.19349 0.28452 0.0
H1849 H 0.75046 0.17718 0.26215 0.0
H1850 H 0.71039 0.10997 0.29962 0.0
H1851 H 0.68795 0.12576 0.32198 0.0
C1852 C 0.68771 0.19836 0.42253 0.0
C1853 C 0.67923 0.17629 0.43455 0.0
C1854 C 0.68832 0.19937 0.39714 0.0
C1855 C 0.68031 0.17831 0.38337 0.0
C1856 C 0.6723 0.15635 0.39538 0.0
C1857 C 0.67173 0.15534 0.42073 0.0
C1858 C 0.67986 0.17899 0.35644 0.0
C1859 C 0.69214 0.16976 0.34326 0.0
C1860 C 0.66748 0.18868 0.3438 0.0
C1861 C 0.6531 0.19751 0.35664 0.0
C1862 C 0.63452 0.1824 0.37257 0.0
C1863 C 0.62117 0.19091 0.38476 0.0
C1864 C 0.6261 0.21444 0.38101 0.0
C1865 C 0.64435 0.22949 0.36501 0.0
C1866 C 0.65778 0.22108 0.3528 0.0
C1867 C 0.66943 0.15667 0.24027 0.0
C1868 C 0.6761 0.17776 0.22704 0.0
C1869 C 0.67021 0.15717 0.26562 0.0
C1870 C 0.67816 0.17887 0.27819 0.0
C1871 C 0.68442 0.1999 0.265 0.0
C1872 C 0.68334 0.19934 0.23961 0.0
C1873 C 0.67993 0.1796 0.3051 0.0
C1874 C 0.66788 0.18907 0.3183 0.0
C1875 C 0.6925 0.17008 0.31775 0.0
C1876 C 0.70646 0.16078 0.30483 0.0
C1877 C 0.72434 0.17521 0.28794 0.0
C1878 C 0.73686 0.16606 0.27527 0.0
C1879 C 0.73184 0.14256 0.27948 0.0
C1880 C 0.71431 0.12819 0.29643 0.0
C1881 C 0.70169 0.13723 0.30912 0.0
H1882 H 0.74149 0.13548 0.26958 0.0
H1883 H 0.61575 0.22099 0.39046 0.0
H1884 H 0.52493 0.822 0.56316 0.0
H1885 H 0.52741 0.8236 0.60762 0.0
H1886 H 0.48559 0.85913 0.60955 0.0
H1887 H 0.48297 0.85754 0.56513 0.0
H1888 H 0.52563 0.88009 0.64033 0.0
H1889 H 0.4588 0.80155 0.62186 0.0
H1890 H 0.43903 0.76187 0.60195 0.0
H1891 H 0.48832 0.74459 0.63659 0.0
H1892 H 0.50861 0.78434 0.65645 0.0
H1893 H 0.48832 0.86339 0.76333 0.0
H1894 H 0.49061 0.86414 0.71896 0.0
H1895 H 0.52545 0.82164 0.72135 0.0
H1896 H 0.52279 0.82044 0.76575 0.0
H1897 H 0.4911 0.8046 0.68813 0.0
H1898 H 0.55707 0.8817 0.70809 0.0
H1899 H 0.57791 0.92147 0.72779 0.0
H1900 H 0.53222 0.94183 0.69037 0.0
H1901 H 0.51085 0.90204 0.67071 0.0
C1902 C 0.51633 0.8302 0.57307 0.0
C1903 C 0.50366 0.83955 0.56073 0.0
C1904 C 0.51772 0.83106 0.59842 0.0
C1905 C 0.50655 0.84134 0.61181 0.0
C1906 C 0.49432 0.85113 0.59951 0.0
C1907 C 0.49277 0.85011 0.57417 0.0
C1908 C 0.50716 0.84148 0.63869 0.0
C1909 C 0.51787 0.86362 0.65085 0.0
C1910 C 0.49763 0.81996 0.65226 0.0
C1911 C 0.48538 0.79602 0.64043 0.0
C1912 C 0.46555 0.78937 0.62507 0.0
C1913 C 0.45423 0.76685 0.61382 0.0
C1914 C 0.46246 0.75075 0.61794 0.0
C1915 C 0.48199 0.7571 0.63338 0.0
C1916 C 0.4934 0.77961 0.64465 0.0
C1917 C 0.49656 0.8543 0.7544 0.0
C1918 C 0.50539 0.84187 0.76797 0.0
C1919 C 0.49796 0.85484 0.72905 0.0
C1920 C 0.50846 0.84318 0.71685 0.0
C1921 C 0.51732 0.83079 0.7304 0.0
C1922 C 0.51582 0.83016 0.75575 0.0
C1923 C 0.50945 0.84326 0.68992 0.0
C1924 C 0.49901 0.82114 0.6777 0.0
C1925 C 0.51941 0.86482 0.67631 0.0
C1926 C 0.53221 0.88879 0.6881 0.0
C1927 C 0.55132 0.89458 0.70422 0.0
C1928 C 0.56326 0.91714 0.71535 0.0
C1929 C 0.55636 0.93414 0.71038 0.0
C1930 C 0.53753 0.92863 0.69423 0.0
C1931 C 0.52551 0.90608 0.68307 0.0
H1932 H 0.56563 0.9516 0.71901 0.0
H1933 H 0.45367 0.73332 0.60922 0.0
H1934 H 0.20064 0.65435 0.56945 0.0
H1935 H 0.20043 0.6541 0.61392 0.0
H1936 H 0.14593 0.67454 0.61403 0.0
H1937 H 0.14633 0.67521 0.56957 0.0
H1938 H 0.17948 0.69886 0.64802 0.0
H1939 H 0.13114 0.61657 0.62328 0.0
H1940 H 0.12236 0.5797 0.60113 0.0
H1941 H 0.18011 0.57788 0.63833 0.0
H1942 H 0.18946 0.61494 0.66047 0.0
H1943 H 0.13829 0.6672 0.76872 0.0
H1944 H 0.13992 0.66775 0.72431 0.0
H1945 H 0.19604 0.64961 0.72658 0.0
H1946 H 0.19435 0.64879 0.77109 0.0
H1947 H 0.16253 0.62437 0.69153 0.0
H1948 H 0.21017 0.70659 0.71689 0.0
H1949 H 0.21826 0.7432 0.73914 0.0
H1950 H 0.16095 0.74482 0.70079 0.0
H1951 H 0.15229 0.708 0.67854 0.0
C1952 C 0.18875 0.65896 0.57896 0.0
C1953 C 0.17341 0.66468 0.56607 0.0
C1954 C 0.18857 0.6587 0.60435 0.0
C1955 C 0.1729 0.66395 0.61725 0.0
C1956 C 0.15811 0.67038 0.60441 0.0
C1957 C 0.15833 0.67071 0.57903 0.0
C1958 C 0.17157 0.66227 0.64412 0.0
C1959 C 0.1755 0.68249 0.65752 0.0
C1960 C 0.16684 0.64104 0.65651 0.0
C1961 C 0.16115 0.61866 0.64335 0.0
C1962 C 0.14208 0.6084 0.62661 0.0
C1963 C 0.13699 0.58746 0.61407 0.0
C1964 C 0.15071 0.57649 0.61827 0.0
C1965 C 0.16952 0.58641 0.63507 0.0
C1966 C 0.17471 0.60738 0.64763 0.0
C1967 C 0.15086 0.66316 0.75976 0.0
C1968 C 0.16629 0.65807 0.77333 0.0
C1969 C 0.15184 0.66359 0.73441 0.0
C1970 C 0.16835 0.65907 0.72221 0.0
C1971 C 0.18324 0.65322 0.73569 0.0
C1972 C 0.18228 0.6528 0.76107 0.0
C1973 C 0.17038 0.66092 0.69539 0.0
C1974 C 0.16657 0.64074 0.68201 0.0
C1975 C 0.17514 0.68216 0.68301 0.0
C1976 C 0.18045 0.70442 0.69621 0.0
C1977 C 0.19918 0.71465 0.71333 0.0
C1978 C 0.20389 0.73545 0.72592 0.0
C1979 C 0.19009 0.74629 0.72142 0.0
C1980 C 0.1716 0.73639 0.70427 0.0
C1981 C 0.1668 0.71557 0.69165 0.0
H1982 H 0.19376 0.76239 0.7312 0.0
H1983 H 0.14674 0.56028 0.60854 0.0
H1984 H 0.32129 0.52429 0.56958 0.0
H1985 H 0.32282 0.52487 0.61398 0.0
H1986 H 0.35803 0.48269 0.61254 0.0
H1987 H 0.35605 0.48161 0.56809 0.0
H1988 H 0.3246 0.46625 0.6464 0.0
H1989 H 0.38946 0.54317 0.6248 0.0
H1990 H 0.40984 0.58242 0.60408 0.0
H1991 H 0.36363 0.60296 0.64018 0.0
H1992 H 0.34271 0.56367 0.66086 0.0
H1993 H 0.35782 0.4883 0.77204 0.0
H1994 H 0.35978 0.48732 0.7276 0.0
H1995 H 0.3184 0.52318 0.72229 0.0
H1996 H 0.31645 0.5243 0.76665 0.0
H1997 H 0.35783 0.54288 0.69209 0.0
H1998 H 0.29213 0.46375 0.7123 0.0
H1999 H 0.27356 0.42462 0.73327 0.0
H2000 H 0.32459 0.40884 0.70018 0.0
H2001 H 0.34364 0.44803 0.67921 0.0
C2002 C 0.3294 0.51518 0.57873 0.0
C2003 C 0.33862 0.50296 0.5654 0.0
C2004 C 0.33036 0.51561 0.6041 0.0
C2005 C 0.34086 0.50412 0.61659 0.0
C2006 C 0.3499 0.49172 0.60329 0.0
C2007 C 0.34881 0.49116 0.57791 0.0
C2008 C 0.3421 0.50481 0.64354 0.0
C2009 C 0.33221 0.48304 0.65637 0.0
C2010 C 0.35183 0.5267 0.65659 0.0
C2011 C 0.36437 0.55037 0.64421 0.0
C2012 C 0.38351 0.55598 0.62817 0.0
C2013 C 0.39518 0.57825 0.61646 0.0
C2014 C 0.388 0.59515 0.62077 0.0
C2015 C 0.36915 0.58983 0.63684 0.0
C2016 C 0.3574 0.56757 0.64858 0.0
C2017 C 0.34917 0.496 0.76138 0.0
C2018 C 0.33698 0.50638 0.77276 0.0
C2019 C 0.35023 0.49534 0.73603 0.0
C2020 C 0.33911 0.50505 0.72169 0.0
C2021 C 0.3271 0.5156 0.73305 0.0
C2022 C 0.32594 0.51615 0.75836 0.0
C2023 C 0.33997 0.50435 0.69482 0.0
C2024 C 0.35033 0.52614 0.68205 0.0
C2025 C 0.33097 0.48252 0.68186 0.0
C2026 C 0.31943 0.4589 0.69434 0.0
C2027 C 0.29948 0.45201 0.70962 0.0
C2028 C 0.28884 0.42979 0.72146 0.0
C2029 C 0.29787 0.41424 0.71802 0.0
C2030 C 0.31758 0.42089 0.70277 0.0
C2031 C 0.3283 0.44308 0.69089 0.0
H2032 H 0.28961 0.39706 0.72721 0.0
H2033 H 0.39707 0.61238 0.61169 0.0
loop_
_geom_bond_atom_site_label_1
_geom_bond_atom_site_label_2
_geom_bond_distance
_geom_bond_site_symmetry_2
_ccdc_geom_bond_type
In0 O1 2.294 . S
In0 O2 2.326 . S
In0 O6 2.266 . S
In0 O7 2.326 . S
In0 O8 2.266 . S
In0 O9 2.326 . S
In0 O11 2.294 . S
In0 O12 2.326 . S
O1 In0 2.294 . S
O1 C10 1.240 . S
O2 In0 2.326 . S
O2 C10 1.252 . S
C3 O6 1.252 . S
C3 O7 1.260 . S
C4 O11 1.240 . S
C4 O12 1.252 . S
C5 O8 1.252 . S
C5 O9 1.260 . S
O6 In0 2.266 . S
O6 C3 1.252 . S
O7 In0 2.326 . S
O7 C3 1.260 . S
O8 In0 2.266 . S
O8 C5 1.252 . S
O9 In0 2.326 . S
O9 C5 1.260 . S
C10 O1 1.240 . S
C10 O2 1.252 . S
O11 In0 2.294 . S
O11 C4 1.240 . S
O12 In0 2.326 . S
O12 C4 1.252 . S
In13 O14 2.294 . S
In13 O15 2.326 . S
In13 O19 2.266 1_545 S
In13 O20 2.326 1_545 S
In13 O21 2.266 . S
In13 O22 2.326 . S
In13 O24 2.294 . S
In13 O25 2.326 1_545 S
O14 In13 2.294 . S
O14 C23 1.240 . S
O15 In13 2.326 . S
O15 C23 1.252 . S
C16 O19 1.252 . S
C16 O20 1.260 . S
C17 O24 1.240 . S
C17 O25 1.252 1_545 S
C18 O21 1.252 . S
C18 O22 1.260 . S
O19 In13 2.266 1_565 S
O19 C16 1.252 . S
O20 In13 2.326 1_565 S
O20 C16 1.260 . S
O21 In13 2.266 . S
O21 C18 1.252 . S
O22 In13 2.326 . S
O22 C18 1.260 . S
C23 O14 1.240 . S
C23 O15 1.252 . S
O24 In13 2.294 . S
O24 C17 1.240 . S
O25 In13 2.326 1_565 S
O25 C17 1.252 1_565 S
In26 O27 2.294 . S
In26 O28 2.326 1_655 S
In26 O32 2.266 . S
In26 O33 2.326 . S
In26 O34 2.266 1_655 S
In26 O35 2.326 1_655 S
In26 O37 2.294 . S
In26 O38 2.326 . S
O27 In26 2.294 . S
O27 C36 1.240 1_655 S
O28 In26 2.326 1_455 S
O28 C36 1.252 . S
C29 O32 1.252 . S
C29 O33 1.260 . S
C30 O37 1.240 . S
C30 O38 1.252 . S
C31 O34 1.252 . S
C31 O35 1.260 . S
O32 In26 2.266 . S
O32 C29 1.252 . S
O33 In26 2.326 . S
O33 C29 1.260 . S
O34 In26 2.266 1_455 S
O34 C31 1.252 . S
O35 In26 2.326 1_455 S
O35 C31 1.260 . S
C36 O27 1.240 1_455 S
C36 O28 1.252 . S
O37 In26 2.294 . S
O37 C30 1.240 . S
O38 In26 2.326 . S
O38 C30 1.252 . S
In39 O40 2.294 . S
In39 O41 2.326 . S
In39 O45 2.266 . S
In39 O46 2.326 . S
In39 O47 2.266 . S
In39 O48 2.326 . S
In39 O50 2.294 . S
In39 O51 2.326 . S
O40 In39 2.294 . S
O40 C49 1.240 . S
O41 In39 2.326 . S
O41 C49 1.252 . S
C42 O45 1.252 . S
C42 O46 1.260 . S
C43 O50 1.240 . S
C43 O51 1.252 . S
C44 O47 1.252 . S
C44 O48 1.260 . S
O45 In39 2.266 . S
O45 C42 1.252 . S
O46 In39 2.326 . S
O46 C42 1.260 . S
O47 In39 2.266 . S
O47 C44 1.252 . S
O48 In39 2.326 . S
O48 C44 1.260 . S
C49 O40 1.240 . S
C49 O41 1.252 . S
O50 In39 2.294 . S
O50 C43 1.240 . S
O51 In39 2.326 . S
O51 C43 1.252 . S
In52 O53 2.294 . S
In52 O54 2.326 1_565 S
In52 O58 2.266 . S
In52 O59 2.326 . S
In52 O60 2.266 1_565 S
In52 O61 2.326 1_565 S
In52 O63 2.294 . S
In52 O64 2.326 . S
O53 In52 2.294 . S
O53 C62 1.240 1_565 S
O54 In52 2.326 1_545 S
O54 C62 1.252 . S
C55 O58 1.252 . S
C55 O59 1.260 . S
C56 O63 1.240 . S
C56 O64 1.252 . S
C57 O60 1.252 . S
C57 O61 1.260 . S
O58 In52 2.266 . S
O58 C55 1.252 . S
O59 In52 2.326 . S
O59 C55 1.260 . S
O60 In52 2.266 1_545 S
O60 C57 1.252 . S
O61 In52 2.326 1_545 S
O61 C57 1.260 . S
C62 O53 1.240 1_545 S
C62 O54 1.252 . S
O63 In52 2.294 . S
O63 C56 1.240 . S
O64 In52 2.326 . S
O64 C56 1.252 . S
In65 O66 2.294 . S
In65 O67 2.326 1_455 S
In65 O71 2.266 . S
In65 O72 2.326 . S
In65 O73 2.266 1_455 S
In65 O74 2.326 1_455 S
In65 O76 2.294 . S
In65 O77 2.326 . S
O66 In65 2.294 . S
O66 C75 1.240 . S
O67 In65 2.326 1_655 S
O67 C75 1.252 1_655 S
C68 O71 1.252 . S
C68 O72 1.260 . S
C69 O76 1.240 . S
C69 O77 1.252 . S
C70 O73 1.252 . S
C70 O74 1.260 . S
O71 In65 2.266 . S
O71 C68 1.252 . S
O72 In65 2.326 . S
O72 C68 1.260 . S
O73 In65 2.266 1_655 S
O73 C70 1.252 . S
O74 In65 2.326 1_655 S
O74 C70 1.260 . S
C75 O66 1.240 . S
C75 O67 1.252 1_455 S
O76 In65 2.294 . S
O76 C69 1.240 . S
O77 In65 2.326 . S
O77 C69 1.252 . S
In78 O79 2.294 . S
In78 O80 2.326 . S
In78 O84 2.266 . S
In78 O85 2.326 . S
In78 O86 2.266 . S
In78 O87 2.326 . S
In78 O89 2.294 . S
In78 O90 2.326 . S
O79 In78 2.294 . S
O79 C88 1.240 . S
O80 In78 2.326 . S
O80 C88 1.252 . S
C81 O84 1.252 . S
C81 O85 1.260 . S
C82 O89 1.240 . S
C82 O90 1.252 . S
C83 O86 1.252 . S
C83 O87 1.260 . S
O84 In78 2.266 . S
O84 C81 1.252 . S
O85 In78 2.326 . S
O85 C81 1.260 . S
O86 In78 2.266 . S
O86 C83 1.252 . S
O87 In78 2.326 . S
O87 C83 1.260 . S
C88 O79 1.240 . S
C88 O80 1.252 . S
O89 In78 2.294 . S
O89 C82 1.240 . S
O90 In78 2.326 . S
O90 C82 1.252 . S
In91 O92 2.294 . S
In91 O93 2.326 . S
In91 O97 2.266 . S
In91 O98 2.326 . S
In91 O99 2.266 . S
In91 O100 2.326 . S
In91 O102 2.294 . S
In91 O103 2.326 . S
O92 In91 2.294 . S
O92 C101 1.240 . S
O93 In91 2.326 . S
O93 C101 1.252 . S
C94 O97 1.252 . S
C94 O98 1.260 . S
C95 O102 1.240 . S
C95 O103 1.252 . S
C96 O99 1.252 . S
C96 O100 1.260 . S
O97 In91 2.266 . S
O97 C94 1.252 . S
O98 In91 2.326 . S
O98 C94 1.260 . S
O99 In91 2.266 . S
O99 C96 1.252 . S
O100 In91 2.326 . S
O100 C96 1.260 . S
C101 O92 1.240 . S
C101 O93 1.252 . S
O102 In91 2.294 . S
O102 C95 1.240 . S
O103 In91 2.326 . S
O103 C95 1.252 . S
In104 O105 2.294 . S
In104 O106 2.326 . S
In104 O110 2.266 . S
In104 O111 2.326 . S
In104 O112 2.266 . S
In104 O113 2.326 . S
In104 O115 2.294 . S
In104 O116 2.326 . S
O105 In104 2.294 . S
O105 C114 1.240 . S
O106 In104 2.326 . S
O106 C114 1.252 . S
C107 O110 1.252 . S
C107 O111 1.260 . S
C108 O115 1.240 . S
C108 O116 1.252 . S
C109 O112 1.252 . S
C109 O113 1.260 . S
O110 In104 2.266 . S
O110 C107 1.252 . S
O111 In104 2.326 . S
O111 C107 1.260 . S
O112 In104 2.266 . S
O112 C109 1.252 . S
O113 In104 2.326 . S
O113 C109 1.260 . S
C114 O105 1.240 . S
C114 O106 1.252 . S
O115 In104 2.294 . S
O115 C108 1.240 . S
O116 In104 2.326 . S
O116 C108 1.252 . S
In117 O118 2.294 . S
In117 O119 2.326 . S
In117 O123 2.266 . S
In117 O124 2.326 . S
In117 O125 2.266 . S
In117 O126 2.326 . S
In117 O128 2.294 . S
In117 O129 2.326 . S
O118 In117 2.294 . S
O118 C127 1.240 . S
O119 In117 2.326 . S
O119 C127 1.252 . S
C120 O123 1.252 . S
C120 O124 1.260 . S
C121 O128 1.240 . S
C121 O129 1.252 . S
C122 O125 1.252 . S
C122 O126 1.260 . S
O123 In117 2.266 . S
O123 C120 1.252 . S
O124 In117 2.326 . S
O124 C120 1.260 . S
O125 In117 2.266 . S
O125 C122 1.252 . S
O126 In117 2.326 . S
O126 C122 1.260 . S
C127 O118 1.240 . S
C127 O119 1.252 . S
O128 In117 2.294 . S
O128 C121 1.240 . S
O129 In117 2.326 . S
O129 C121 1.252 . S
In130 O131 2.294 . S
In130 O132 2.326 . S
In130 O136 2.266 . S
In130 O137 2.326 . S
In130 O138 2.266 . S
In130 O139 2.326 . S
In130 O141 2.294 . S
In130 O142 2.326 . S
O131 In130 2.294 . S
O131 C140 1.240 . S
O132 In130 2.326 . S
O132 C140 1.252 . S
C133 O136 1.252 . S
C133 O137 1.260 . S
C134 O141 1.240 . S
C134 O142 1.252 . S
C135 O138 1.252 . S
C135 O139 1.260 . S
O136 In130 2.266 . S
O136 C133 1.252 . S
O137 In130 2.326 . S
O137 C133 1.260 . S
O138 In130 2.266 . S
O138 C135 1.252 . S
O139 In130 2.326 . S
O139 C135 1.260 . S
C140 O131 1.240 . S
C140 O132 1.252 . S
O141 In130 2.294 . S
O141 C134 1.240 . S
O142 In130 2.326 . S
O142 C134 1.252 . S
In143 O144 2.294 . S
In143 O145 2.326 . S
In143 O149 2.266 . S
In143 O150 2.326 . S
In143 O151 2.266 . S
In143 O152 2.326 . S
In143 O154 2.294 . S
In143 O155 2.326 . S
O144 In143 2.294 . S
O144 C153 1.240 . S
O145 In143 2.326 . S
O145 C153 1.252 . S
C146 O149 1.252 . S
C146 O150 1.260 . S
C147 O154 1.240 . S
C147 O155 1.252 . S
C148 O151 1.252 . S
C148 O152 1.260 . S
O149 In143 2.266 . S
O149 C146 1.252 . S
O150 In143 2.326 . S
O150 C146 1.260 . S
O151 In143 2.266 . S
O151 C148 1.252 . S
O152 In143 2.326 . S
O152 C148 1.260 . S
C153 O144 1.240 . S
C153 O145 1.252 . S
O154 In143 2.294 . S
O154 C147 1.240 . S
O155 In143 2.326 . S
O155 C147 1.252 . S
In156 O157 2.294 . S
In156 O158 2.326 . S
In156 O162 2.266 . S
In156 O163 2.326 . S
In156 O164 2.266 . S
In156 O165 2.326 . S
In156 O167 2.294 . S
In156 O168 2.326 . S
O157 In156 2.294 . S
O157 C166 1.240 . S
O158 In156 2.326 . S
O158 C166 1.252 . S
C159 O162 1.252 . S
C159 O163 1.260 . S
C160 O167 1.240 . S
C160 O168 1.252 . S
C161 O164 1.252 . S
C161 O165 1.260 . S
O162 In156 2.266 . S
O162 C159 1.252 . S
O163 In156 2.326 . S
O163 C159 1.260 . S
O164 In156 2.266 . S
O164 C161 1.252 . S
O165 In156 2.326 . S
O165 C161 1.260 . S
C166 O157 1.240 . S
C166 O158 1.252 . S
O167 In156 2.294 . S
O167 C160 1.240 . S
O168 In156 2.326 . S
O168 C160 1.252 . S
In169 O170 2.294 . S
In169 O171 2.326 . S
In169 O175 2.266 . S
In169 O176 2.326 . S
In169 O177 2.266 . S
In169 O178 2.326 . S
In169 O180 2.294 . S
In169 O181 2.326 . S
O170 In169 2.294 . S
O170 C179 1.240 . S
O171 In169 2.326 . S
O171 C179 1.252 . S
C172 O175 1.252 . S
C172 O176 1.260 . S
C173 O180 1.240 . S
C173 O181 1.252 . S
C174 O177 1.252 . S
C174 O178 1.260 . S
O175 In169 2.266 . S
O175 C172 1.252 . S
O176 In169 2.326 . S
O176 C172 1.260 . S
O177 In169 2.266 . S
O177 C174 1.252 . S
O178 In169 2.326 . S
O178 C174 1.260 . S
C179 O170 1.240 . S
C179 O171 1.252 . S
O180 In169 2.294 . S
O180 C173 1.240 . S
O181 In169 2.326 . S
O181 C173 1.252 . S
In182 O183 2.294 . S
In182 O184 2.326 . S
In182 O188 2.266 . S
In182 O189 2.326 . S
In182 O190 2.266 . S
In182 O191 2.326 . S
In182 O193 2.294 . S
In182 O194 2.326 . S
O183 In182 2.294 . S
O183 C192 1.240 . S
O184 In182 2.326 . S
O184 C192 1.252 . S
C185 O188 1.252 . S
C185 O189 1.260 . S
C186 O193 1.240 . S
C186 O194 1.252 . S
C187 O190 1.252 . S
C187 O191 1.260 . S
O188 In182 2.266 . S
O188 C185 1.252 . S
O189 In182 2.326 . S
O189 C185 1.260 . S
O190 In182 2.266 . S
O190 C187 1.252 . S
O191 In182 2.326 . S
O191 C187 1.260 . S
C192 O183 1.240 . S
C192 O184 1.252 . S
O193 In182 2.294 . S
O193 C186 1.240 . S
O194 In182 2.326 . S
O194 C186 1.252 . S
In195 O196 2.294 . S
In195 O197 2.326 . S
In195 O201 2.266 . S
In195 O202 2.326 . S
In195 O203 2.266 . S
In195 O204 2.326 . S
In195 O206 2.294 . S
In195 O207 2.326 . S
O196 In195 2.294 . S
O196 C205 1.240 . S
O197 In195 2.326 . S
O197 C205 1.252 . S
C198 O201 1.252 . S
C198 O202 1.260 . S
C199 O206 1.240 . S
C199 O207 1.252 . S
C200 O203 1.252 . S
C200 O204 1.260 . S
O201 In195 2.266 . S
O201 C198 1.252 . S
O202 In195 2.326 . S
O202 C198 1.260 . S
O203 In195 2.266 . S
O203 C200 1.252 . S
O204 In195 2.326 . S
O204 C200 1.260 . S
C205 O196 1.240 . S
C205 O197 1.252 . S
O206 In195 2.294 . S
O206 C199 1.240 . S
O207 In195 2.326 . S
O207 C199 1.252 . S
In208 O209 2.294 . S
In208 O210 2.326 . S
In208 O214 2.266 . S
In208 O215 2.326 . S
In208 O216 2.266 . S
In208 O217 2.326 . S
In208 O219 2.294 . S
In208 O220 2.326 . S
O209 In208 2.294 . S
O209 C218 1.240 . S
O210 In208 2.326 . S
O210 C218 1.252 . S
C211 O214 1.252 . S
C211 O215 1.260 . S
C212 O219 1.240 . S
C212 O220 1.252 . S
C213 O216 1.252 . S
C213 O217 1.260 . S
O214 In208 2.266 . S
O214 C211 1.252 . S
O215 In208 2.326 . S
O215 C211 1.260 . S
O216 In208 2.266 . S
O216 C213 1.252 . S
O217 In208 2.326 . S
O217 C213 1.260 . S
C218 O209 1.240 . S
C218 O210 1.252 . S
O219 In208 2.294 . S
O219 C212 1.240 . S
O220 In208 2.326 . S
O220 C212 1.252 . S
In221 O222 2.294 . S
In221 O223 2.326 . S
In221 O227 2.266 . S
In221 O228 2.326 . S
In221 O229 2.266 . S
In221 O230 2.326 . S
In221 O232 2.294 . S
In221 O233 2.326 . S
O222 In221 2.294 . S
O222 C231 1.240 . S
O223 In221 2.326 . S
O223 C231 1.252 . S
C224 O227 1.252 . S
C224 O228 1.260 . S
C225 O232 1.240 . S
C225 O233 1.252 . S
C226 O229 1.252 . S
C226 O230 1.260 . S
O227 In221 2.266 . S
O227 C224 1.252 . S
O228 In221 2.326 . S
O228 C224 1.260 . S
O229 In221 2.266 . S
O229 C226 1.252 . S
O230 In221 2.326 . S
O230 C226 1.260 . S
C231 O222 1.240 . S
C231 O223 1.252 . S
O232 In221 2.294 . S
O232 C225 1.240 . S
O233 In221 2.326 . S
O233 C225 1.252 . S
H234 C252 0.951 . S
H235 C254 0.951 . S
H236 C256 0.950 . S
H237 C257 0.950 . S
H238 C259 0.950 . S
H239 C262 0.950 . S
H240 C263 0.950 . S
H241 C265 0.950 . S
H242 C266 0.950 . S
H243 C267 0.951 . S
H244 C269 0.951 . S
H245 C271 0.950 . S
H246 C272 0.950 . S
H247 C274 0.950 . S
H248 C277 0.950 . S
H249 C278 0.950 . S
H250 C280 0.950 . S
H251 C281 0.950 . S
C252 H234 0.951 . S
C252 C253 1.366 . S
C252 C254 1.388 . S
C253 C252 1.366 . S
C253 C257 1.385 . S
C254 H235 0.951 . S
C254 C252 1.388 . S
C254 C255 1.366 . S
C255 C254 1.366 . S
C255 C256 1.414 . S
C255 C258 1.499 . S
C256 H236 0.950 . S
C256 C255 1.414 . S
C256 C257 1.374 . S
C257 H237 0.950 . S
C257 C253 1.385 . S
C257 C256 1.374 . S
C258 C255 1.499 . S
C258 C259 1.373 . S
C258 C260 1.389 . S
C259 H238 0.950 . S
C259 C258 1.373 . S
C259 C275 1.377 . S
C260 C258 1.389 . S
C260 C261 1.524 . S
C260 C274 1.377 . S
C261 C260 1.524 . S
C261 C262 1.397 . S
C261 C266 1.363 . S
C262 H239 0.950 . S
C262 C261 1.397 . S
C262 C263 1.334 . S
C263 H240 0.950 . S
C263 C262 1.334 . S
C263 C264 1.287 . S
C264 C263 1.287 . S
C264 C265 1.524 . S
C264 H283 0.913 . S
C265 H241 0.950 . S
C265 C264 1.524 . S
C265 C266 1.415 . S
C266 H242 0.950 . S
C266 C261 1.363 . S
C266 C265 1.415 . S
C267 H243 0.951 . S
C267 C268 1.366 . S
C267 C269 1.388 . S
C268 C267 1.366 . S
C268 C272 1.385 . S
C269 H244 0.951 . S
C269 C267 1.388 . S
C269 C270 1.366 . S
C270 C269 1.366 . S
C270 C271 1.414 . S
C270 C273 1.499 . S
C271 H245 0.950 . S
C271 C270 1.414 . S
C271 C272 1.374 . S
C272 H246 0.950 . S
C272 C268 1.385 . S
C272 C271 1.374 . S
C273 C270 1.499 . S
C273 C274 1.373 . S
C273 C275 1.389 . S
C274 H247 0.950 . S
C274 C260 1.377 . S
C274 C273 1.373 . S
C275 C259 1.377 . S
C275 C273 1.389 . S
C275 C276 1.524 . S
C276 C275 1.524 . S
C276 C277 1.397 . S
C276 C281 1.363 . S
C277 H248 0.950 . S
C277 C276 1.397 . S
C277 C278 1.334 . S
C278 H249 0.950 . S
C278 C277 1.334 . S
C278 C279 1.287 . S
C279 C278 1.287 . S
C279 C280 1.524 . S
C279 H282 0.999 . S
C280 H250 0.950 . S
C280 C279 1.524 . S
C280 C281 1.415 . S
C281 H251 0.950 . S
C281 C276 1.363 . S
C281 C280 1.415 . S
H282 C279 0.999 . S
H283 C264 0.913 . S
H284 C302 0.951 . S
H285 C304 0.951 . S
H286 C306 0.950 . S
H287 C307 0.950 . S
H288 C309 0.950 . S
H289 C312 0.950 . S
H290 C313 0.950 . S
H291 C315 0.950 . S
H292 C316 0.950 . S
H293 C317 0.951 . S
H294 C319 0.951 . S
H295 C321 0.950 . S
H296 C322 0.950 . S
H297 C324 0.950 . S
H298 C327 0.950 . S
H299 C328 0.950 . S
H300 C330 0.950 . S
H301 C331 0.950 . S
C302 H284 0.951 . S
C302 C303 1.366 . S
C302 C304 1.388 . S
C303 C302 1.366 . S
C303 C307 1.385 . S
C304 H285 0.951 . S
C304 C302 1.388 . S
C304 C305 1.366 . S
C305 C304 1.366 . S
C305 C306 1.414 . S
C305 C308 1.499 . S
C306 H286 0.950 . S
C306 C305 1.414 . S
C306 C307 1.374 . S
C307 H287 0.950 . S
C307 C303 1.385 . S
C307 C306 1.374 . S
C308 C305 1.499 . S
C308 C309 1.373 . S
C308 C310 1.389 . S
C309 H288 0.950 . S
C309 C308 1.373 . S
C309 C325 1.377 . S
C310 C308 1.389 . S
C310 C311 1.524 . S
C310 C324 1.377 . S
C311 C310 1.524 . S
C311 C312 1.397 . S
C311 C316 1.363 . S
C312 H289 0.950 . S
C312 C311 1.397 . S
C312 C313 1.334 . S
C313 H290 0.950 . S
C313 C312 1.334 . S
C313 C314 1.287 . S
C314 C313 1.287 . S
C314 C315 1.524 . S
C314 H333 0.913 . S
C315 H291 0.950 . S
C315 C314 1.524 . S
C315 C316 1.415 . S
C316 H292 0.950 . S
C316 C311 1.363 . S
C316 C315 1.415 . S
C317 H293 0.951 . S
C317 C318 1.366 . S
C317 C319 1.388 . S
C318 C317 1.366 . S
C318 C322 1.385 . S
C319 H294 0.951 . S
C319 C317 1.388 . S
C319 C320 1.366 . S
C320 C319 1.366 . S
C320 C321 1.414 . S
C320 C323 1.499 . S
C321 H295 0.950 . S
C321 C320 1.414 . S
C321 C322 1.374 . S
C322 H296 0.950 . S
C322 C318 1.385 . S
C322 C321 1.374 . S
C323 C320 1.499 . S
C323 C324 1.373 . S
C323 C325 1.389 . S
C324 H297 0.950 . S
C324 C310 1.377 . S
C324 C323 1.373 . S
C325 C309 1.377 . S
C325 C323 1.389 . S
C325 C326 1.524 . S
C326 C325 1.524 . S
C326 C327 1.397 . S
C326 C331 1.363 . S
C327 H298 0.950 . S
C327 C326 1.397 . S
C327 C328 1.334 . S
C328 H299 0.950 . S
C328 C327 1.334 . S
C328 C329 1.287 . S
C329 C328 1.287 . S
C329 C330 1.524 . S
C329 H332 0.999 . S
C330 H300 0.950 . S
C330 C329 1.524 . S
C330 C331 1.415 . S
C331 H301 0.950 . S
C331 C326 1.363 . S
C331 C330 1.415 . S
H332 C329 0.999 . S
H333 C314 0.913 . S
H334 C352 0.951 . S
H335 C354 0.951 . S
H336 C356 0.950 . S
H337 C357 0.950 . S
H338 C359 0.950 . S
H339 C362 0.950 . S
H340 C363 0.950 . S
H341 C365 0.950 . S
H342 C366 0.950 . S
H343 C367 0.951 . S
H344 C369 0.951 . S
H345 C371 0.950 . S
H346 C372 0.950 . S
H347 C374 0.950 . S
H348 C377 0.950 . S
H349 C378 0.950 . S
H350 C380 0.950 . S
H351 C381 0.950 . S
C352 H334 0.951 . S
C352 C353 1.366 . S
C352 C354 1.388 . S
C353 C352 1.366 . S
C353 C357 1.385 . S
C354 H335 0.951 . S
C354 C352 1.388 . S
C354 C355 1.366 . S
C355 C354 1.366 . S
C355 C356 1.414 . S
C355 C358 1.499 . S
C356 H336 0.950 . S
C356 C355 1.414 . S
C356 C357 1.374 . S
C357 H337 0.950 . S
C357 C353 1.385 . S
C357 C356 1.374 . S
C358 C355 1.499 . S
C358 C359 1.373 . S
C358 C360 1.389 . S
C359 H338 0.950 . S
C359 C358 1.373 . S
C359 C375 1.377 . S
C360 C358 1.389 . S
C360 C361 1.524 . S
C360 C374 1.377 . S
C361 C360 1.524 . S
C361 C362 1.397 . S
C361 C366 1.363 . S
C362 H339 0.950 . S
C362 C361 1.397 . S
C362 C363 1.334 . S
C363 H340 0.950 . S
C363 C362 1.334 . S
C363 C364 1.287 . S
C364 C363 1.287 . S
C364 C365 1.524 . S
C364 H383 0.913 . S
C365 H341 0.950 . S
C365 C364 1.524 . S
C365 C366 1.415 . S
C366 H342 0.950 . S
C366 C361 1.363 . S
C366 C365 1.415 . S
C367 H343 0.951 . S
C367 C368 1.366 . S
C367 C369 1.388 . S
C368 C367 1.366 . S
C368 C372 1.385 . S
C369 H344 0.951 . S
C369 C367 1.388 . S
C369 C370 1.366 . S
C370 C369 1.366 . S
C370 C371 1.414 . S
C370 C373 1.499 . S
C371 H345 0.950 . S
C371 C370 1.414 . S
C371 C372 1.374 . S
C372 H346 0.950 . S
C372 C368 1.385 . S
C372 C371 1.374 . S
C373 C370 1.499 . S
C373 C374 1.373 . S
C373 C375 1.389 . S
C374 H347 0.950 . S
C374 C360 1.377 . S
C374 C373 1.373 . S
C375 C359 1.377 . S
C375 C373 1.389 . S
C375 C376 1.524 . S
C376 C375 1.524 . S
C376 C377 1.397 . S
C376 C381 1.363 . S
C377 H348 0.950 . S
C377 C376 1.397 . S
C377 C378 1.334 1_655 S
C378 H349 0.950 . S
C378 C377 1.334 1_455 S
C378 C379 1.287 . S
C379 C378 1.287 . S
C379 C380 1.524 . S
C379 H382 0.999 . S
C380 H350 0.950 . S
C380 C379 1.524 . S
C380 C381 1.415 1_455 S
C381 H351 0.950 . S
C381 C376 1.363 . S
C381 C380 1.415 1_655 S
H382 C379 0.999 . S
H383 C364 0.913 . S
H384 C402 0.951 . S
H385 C404 0.951 . S
H386 C406 0.950 . S
H387 C407 0.950 . S
H388 C409 0.950 . S
H389 C412 0.950 . S
H390 C413 0.950 . S
H391 C415 0.950 . S
H392 C416 0.950 . S
H393 C417 0.951 . S
H394 C419 0.951 . S
H395 C421 0.950 . S
H396 C422 0.950 . S
H397 C424 0.950 . S
H398 C427 0.950 . S
H399 C428 0.950 . S
H400 C430 0.950 . S
H401 C431 0.950 . S
C402 H384 0.951 . S
C402 C403 1.366 . S
C402 C404 1.388 . S
C403 C402 1.366 . S
C403 C407 1.385 . S
C404 H385 0.951 . S
C404 C402 1.388 . S
C404 C405 1.366 . S
C405 C404 1.366 . S
C405 C406 1.414 . S
C405 C408 1.499 . S
C406 H386 0.950 . S
C406 C405 1.414 . S
C406 C407 1.374 . S
C407 H387 0.950 . S
C407 C403 1.385 . S
C407 C406 1.374 . S
C408 C405 1.499 . S
C408 C409 1.373 . S
C408 C410 1.389 . S
C409 H388 0.950 . S
C409 C408 1.373 . S
C409 C425 1.377 . S
C410 C408 1.389 . S
C410 C411 1.524 . S
C410 C424 1.377 . S
C411 C410 1.524 . S
C411 C412 1.397 . S
C411 C416 1.363 . S
C412 H389 0.950 . S
C412 C411 1.397 . S
C412 C413 1.334 . S
C413 H390 0.950 . S
C413 C412 1.334 . S
C413 C414 1.287 . S
C414 C413 1.287 . S
C414 C415 1.524 . S
C414 H433 0.913 . S
C415 H391 0.950 . S
C415 C414 1.524 . S
C415 C416 1.415 . S
C416 H392 0.950 . S
C416 C411 1.363 . S
C416 C415 1.415 . S
C417 H393 0.951 . S
C417 C418 1.366 . S
C417 C419 1.388 . S
C418 C417 1.366 . S
C418 C422 1.385 . S
C419 H394 0.951 . S
C419 C417 1.388 . S
C419 C420 1.366 . S
C420 C419 1.366 . S
C420 C421 1.414 . S
C420 C423 1.499 . S
C421 H395 0.950 . S
C421 C420 1.414 . S
C421 C422 1.374 . S
C422 H396 0.950 . S
C422 C418 1.385 . S
C422 C421 1.374 . S
C423 C420 1.499 . S
C423 C424 1.373 . S
C423 C425 1.389 . S
C424 H397 0.950 . S
C424 C410 1.377 . S
C424 C423 1.373 . S
C425 C409 1.377 . S
C425 C423 1.389 . S
C425 C426 1.524 . S
C426 C425 1.524 . S
C426 C427 1.397 . S
C426 C431 1.363 . S
C427 H398 0.950 . S
C427 C426 1.397 . S
C427 C428 1.334 . S
C428 H399 0.950 . S
C428 C427 1.334 . S
C428 C429 1.287 . S
C429 C428 1.287 . S
C429 C430 1.524 . S
C429 H432 0.999 . S
C430 H400 0.950 . S
C430 C429 1.524 . S
C430 C431 1.415 . S
C431 H401 0.950 . S
C431 C426 1.363 . S
C431 C430 1.415 . S
H432 C429 0.999 . S
H433 C414 0.913 . S
H434 C452 0.951 . S
H435 C454 0.951 . S
H436 C456 0.950 . S
H437 C457 0.950 . S
H438 C459 0.950 . S
H439 C462 0.950 . S
H440 C463 0.950 . S
H441 C465 0.950 . S
H442 C466 0.950 . S
H443 C467 0.951 . S
H444 C469 0.951 . S
H445 C471 0.950 . S
H446 C472 0.950 . S
H447 C474 0.950 . S
H448 C477 0.950 . S
H449 C478 0.950 . S
H450 C480 0.950 . S
H451 C481 0.950 . S
C452 H434 0.951 . S
C452 C453 1.366 . S
C452 C454 1.388 . S
C453 C452 1.366 . S
C453 C457 1.385 . S
C454 H435 0.951 . S
C454 C452 1.388 . S
C454 C455 1.366 . S
C455 C454 1.366 . S
C455 C456 1.414 . S
C455 C458 1.499 . S
C456 H436 0.950 . S
C456 C455 1.414 . S
C456 C457 1.374 . S
C457 H437 0.950 . S
C457 C453 1.385 . S
C457 C456 1.374 . S
C458 C455 1.499 . S
C458 C459 1.373 . S
C458 C460 1.389 . S
C459 H438 0.950 . S
C459 C458 1.373 . S
C459 C475 1.377 . S
C460 C458 1.389 . S
C460 C461 1.524 . S
C460 C474 1.377 . S
C461 C460 1.524 . S
C461 C462 1.397 . S
C461 C466 1.363 . S
C462 H439 0.950 . S
C462 C461 1.397 . S
C462 C463 1.334 . S
C463 H440 0.950 . S
C463 C462 1.334 . S
C463 C464 1.287 . S
C464 C463 1.287 . S
C464 C465 1.524 . S
C464 H483 0.913 . S
C465 H441 0.950 . S
C465 C464 1.524 . S
C465 C466 1.415 . S
C466 H442 0.950 . S
C466 C461 1.363 . S
C466 C465 1.415 . S
C467 H443 0.951 . S
C467 C468 1.366 . S
C467 C469 1.388 . S
C468 C467 1.366 . S
C468 C472 1.385 . S
C469 H444 0.951 . S
C469 C467 1.388 . S
C469 C470 1.366 . S
C470 C469 1.366 . S
C470 C471 1.414 . S
C470 C473 1.499 . S
C471 H445 0.950 . S
C471 C470 1.414 . S
C471 C472 1.374 . S
C472 H446 0.950 . S
C472 C468 1.385 . S
C472 C471 1.374 . S
C473 C470 1.499 . S
C473 C474 1.373 . S
C473 C475 1.389 . S
C474 H447 0.950 . S
C474 C460 1.377 . S
C474 C473 1.373 . S
C475 C459 1.377 . S
C475 C473 1.389 . S
C475 C476 1.524 . S
C476 C475 1.524 . S
C476 C477 1.397 . S
C476 C481 1.363 . S
C477 H448 0.950 . S
C477 C476 1.397 . S
C477 C478 1.334 . S
C478 H449 0.950 . S
C478 C477 1.334 . S
C478 C479 1.287 . S
C479 C478 1.287 . S
C479 C480 1.524 . S
C479 H482 0.999 . S
C480 H450 0.950 . S
C480 C479 1.524 . S
C480 C481 1.415 . S
C481 H451 0.950 . S
C481 C476 1.363 . S
C481 C480 1.415 . S
H482 C479 0.999 . S
H483 C464 0.913 . S
H484 C502 0.951 . S
H485 C504 0.951 . S
H486 C506 0.950 . S
H487 C507 0.950 . S
H488 C509 0.950 . S
H489 C512 0.950 . S
H490 C513 0.950 . S
H491 C515 0.950 . S
H492 C516 0.950 . S
H493 C517 0.951 . S
H494 C519 0.951 . S
H495 C521 0.950 . S
H496 C522 0.950 . S
H497 C524 0.950 . S
H498 C527 0.950 . S
H499 C528 0.950 . S
H500 C530 0.950 1_655 S
H501 C531 0.950 . S
C502 H484 0.951 . S
C502 C503 1.366 . S
C502 C504 1.388 . S
C503 C502 1.366 . S
C503 C507 1.385 . S
C504 H485 0.951 . S
C504 C502 1.388 . S
C504 C505 1.366 . S
C505 C504 1.366 . S
C505 C506 1.414 . S
C505 C508 1.499 . S
C506 H486 0.950 . S
C506 C505 1.414 . S
C506 C507 1.374 . S
C507 H487 0.950 . S
C507 C503 1.385 . S
C507 C506 1.374 . S
C508 C505 1.499 . S
C508 C509 1.373 . S
C508 C510 1.389 . S
C509 H488 0.950 . S
C509 C508 1.373 . S
C509 C525 1.377 . S
C510 C508 1.389 . S
C510 C511 1.524 . S
C510 C524 1.377 . S
C511 C510 1.524 . S
C511 C512 1.397 . S
C511 C516 1.363 . S
C512 H489 0.950 . S
C512 C511 1.397 . S
C512 C513 1.334 . S
C513 H490 0.950 . S
C513 C512 1.334 . S
C513 C514 1.287 . S
C514 C513 1.287 . S
C514 C515 1.524 . S
C514 H533 0.913 . S
C515 H491 0.950 . S
C515 C514 1.524 . S
C515 C516 1.415 . S
C516 H492 0.950 . S
C516 C511 1.363 . S
C516 C515 1.415 . S
C517 H493 0.951 . S
C517 C518 1.366 . S
C517 C519 1.388 . S
C518 C517 1.366 . S
C518 C522 1.385 . S
C519 H494 0.951 . S
C519 C517 1.388 . S
C519 C520 1.366 . S
C520 C519 1.366 . S
C520 C521 1.414 . S
C520 C523 1.499 . S
C521 H495 0.950 . S
C521 C520 1.414 . S
C521 C522 1.374 . S
C522 H496 0.950 . S
C522 C518 1.385 . S
C522 C521 1.374 . S
C523 C520 1.499 . S
C523 C524 1.373 . S
C523 C525 1.389 . S
C524 H497 0.950 . S
C524 C510 1.377 . S
C524 C523 1.373 . S
C525 C509 1.377 . S
C525 C523 1.389 . S
C525 C526 1.524 . S
C526 C525 1.524 . S
C526 C527 1.397 . S
C526 C531 1.363 . S
C527 H498 0.950 . S
C527 C526 1.397 . S
C527 C528 1.334 . S
C528 H499 0.950 . S
C528 C527 1.334 . S
C528 C529 1.287 . S
C529 C528 1.287 . S
C529 C530 1.524 . S
C529 H532 0.999 1_455 S
C530 H500 0.950 1_455 S
C530 C529 1.524 . S
C530 C531 1.415 . S
C531 H501 0.950 . S
C531 C526 1.363 . S
C531 C530 1.415 . S
H532 C529 0.999 1_655 S
H533 C514 0.913 . S
H534 C552 0.951 . S
H535 C554 0.951 . S
H536 C556 0.950 . S
H537 C557 0.950 . S
H538 C559 0.950 . S
H539 C562 0.950 . S
H540 C563 0.950 . S
H541 C565 0.950 1_455 S
H542 C566 0.950 . S
H543 C567 0.951 . S
H544 C569 0.951 . S
H545 C571 0.950 . S
H546 C572 0.950 . S
H547 C574 0.950 . S
H548 C577 0.950 . S
H549 C578 0.950 . S
H550 C580 0.950 . S
H551 C581 0.950 1_655 S
C552 H534 0.951 . S
C552 C553 1.366 . S
C552 C554 1.388 . S
C553 C552 1.366 . S
C553 C557 1.385 . S
C554 H535 0.951 . S
C554 C552 1.388 . S
C554 C555 1.366 . S
C555 C554 1.366 . S
C555 C556 1.414 . S
C555 C558 1.499 . S
C556 H536 0.950 . S
C556 C555 1.414 . S
C556 C557 1.374 . S
C557 H537 0.950 . S
C557 C553 1.385 . S
C557 C556 1.374 . S
C558 C555 1.499 . S
C558 C559 1.373 . S
C558 C560 1.389 . S
C559 H538 0.950 . S
C559 C558 1.373 . S
C559 C575 1.377 1_655 S
C560 C558 1.389 . S
C560 C561 1.524 . S
C560 C574 1.377 1_655 S
C561 C560 1.524 . S
C561 C562 1.397 . S
C561 C566 1.363 1_655 S
C562 H539 0.950 . S
C562 C561 1.397 . S
C562 C563 1.334 . S
C563 H540 0.950 . S
C563 C562 1.334 . S
C563 C564 1.287 . S
C564 C563 1.287 . S
C564 C565 1.524 . S
C564 H583 0.913 . S
C565 H541 0.950 1_655 S
C565 C564 1.524 . S
C565 C566 1.415 1_655 S
C566 H542 0.950 . S
C566 C561 1.363 1_455 S
C566 C565 1.415 1_455 S
C567 H543 0.951 . S
C567 C568 1.366 . S
C567 C569 1.388 . S
C568 C567 1.366 . S
C568 C572 1.385 . S
C569 H544 0.951 . S
C569 C567 1.388 . S
C569 C570 1.366 . S
C570 C569 1.366 . S
C570 C571 1.414 . S
C570 C573 1.499 . S
C571 H545 0.950 . S
C571 C570 1.414 . S
C571 C572 1.374 . S
C572 H546 0.950 . S
C572 C568 1.385 . S
C572 C571 1.374 . S
C573 C570 1.499 . S
C573 C574 1.373 . S
C573 C575 1.389 . S
C574 H547 0.950 . S
C574 C560 1.377 1_455 S
C574 C573 1.373 . S
C575 C559 1.377 1_455 S
C575 C573 1.389 . S
C575 C576 1.524 . S
C576 C575 1.524 . S
C576 C577 1.397 . S
C576 C581 1.363 . S
C577 H548 0.950 . S
C577 C576 1.397 . S
C577 C578 1.334 . S
C578 H549 0.950 . S
C578 C577 1.334 . S
C578 C579 1.287 . S
C579 C578 1.287 . S
C579 C580 1.524 . S
C579 H582 0.999 . S
C580 H550 0.950 . S
C580 C579 1.524 . S
C580 C581 1.415 . S
C581 H551 0.950 1_455 S
C581 C576 1.363 . S
C581 C580 1.415 . S
H582 C579 0.999 . S
H583 C564 0.913 . S
H584 C602 0.951 . S
H585 C604 0.951 . S
H586 C606 0.950 . S
H587 C607 0.950 . S
H588 C609 0.950 . S
H589 C612 0.950 . S
H590 C613 0.950 . S
H591 C615 0.950 . S
H592 C616 0.950 . S
H593 C617 0.951 . S
H594 C619 0.951 . S
H595 C621 0.950 . S
H596 C622 0.950 . S
H597 C624 0.950 . S
H598 C627 0.950 . S
H599 C628 0.950 . S
H600 C630 0.950 . S
H601 C631 0.950 . S
C602 H584 0.951 . S
C602 C603 1.366 . S
C602 C604 1.388 . S
C603 C602 1.366 . S
C603 C607 1.385 . S
C604 H585 0.951 . S
C604 C602 1.388 . S
C604 C605 1.366 . S
C605 C604 1.366 . S
C605 C606 1.414 . S
C605 C608 1.499 . S
C606 H586 0.950 . S
C606 C605 1.414 . S
C606 C607 1.374 . S
C607 H587 0.950 . S
C607 C603 1.385 . S
C607 C606 1.374 . S
C608 C605 1.499 . S
C608 C609 1.373 . S
C608 C610 1.389 . S
C609 H588 0.950 . S
C609 C608 1.373 . S
C609 C625 1.377 . S
C610 C608 1.389 . S
C610 C611 1.524 . S
C610 C624 1.377 . S
C611 C610 1.524 . S
C611 C612 1.397 . S
C611 C616 1.363 . S
C612 H589 0.950 . S
C612 C611 1.397 . S
C612 C613 1.334 . S
C613 H590 0.950 . S
C613 C612 1.334 . S
C613 C614 1.287 . S
C614 C613 1.287 . S
C614 C615 1.524 . S
C614 H633 0.913 . S
C615 H591 0.950 . S
C615 C614 1.524 . S
C615 C616 1.415 . S
C616 H592 0.950 . S
C616 C611 1.363 . S
C616 C615 1.415 . S
C617 H593 0.951 . S
C617 C618 1.366 . S
C617 C619 1.388 . S
C618 C617 1.366 . S
C618 C622 1.385 . S
C619 H594 0.951 . S
C619 C617 1.388 . S
C619 C620 1.366 . S
C620 C619 1.366 . S
C620 C621 1.414 . S
C620 C623 1.499 . S
C621 H595 0.950 . S
C621 C620 1.414 . S
C621 C622 1.374 . S
C622 H596 0.950 . S
C622 C618 1.385 . S
C622 C621 1.374 . S
C623 C620 1.499 . S
C623 C624 1.373 . S
C623 C625 1.389 . S
C624 H597 0.950 . S
C624 C610 1.377 . S
C624 C623 1.373 . S
C625 C609 1.377 . S
C625 C623 1.389 . S
C625 C626 1.524 . S
C626 C625 1.524 . S
C626 C627 1.397 . S
C626 C631 1.363 . S
C627 H598 0.950 . S
C627 C626 1.397 . S
C627 C628 1.334 . S
C628 H599 0.950 . S
C628 C627 1.334 . S
C628 C629 1.287 . S
C629 C628 1.287 . S
C629 C630 1.524 . S
C629 H632 0.999 . S
C630 H600 0.950 . S
C630 C629 1.524 . S
C630 C631 1.415 . S
C631 H601 0.950 . S
C631 C626 1.363 . S
C631 C630 1.415 . S
H632 C629 0.999 . S
H633 C614 0.913 . S
H634 C652 0.951 . S
H635 C654 0.951 . S
H636 C656 0.950 . S
H637 C657 0.950 . S
H638 C659 0.950 . S
H639 C662 0.950 . S
H640 C663 0.950 . S
H641 C665 0.950 . S
H642 C666 0.950 . S
H643 C667 0.951 . S
H644 C669 0.951 . S
H645 C671 0.950 . S
H646 C672 0.950 . S
H647 C674 0.950 . S
H648 C677 0.950 . S
H649 C678 0.950 . S
H650 C680 0.950 . S
H651 C681 0.950 1_545 S
C652 H634 0.951 . S
C652 C653 1.366 . S
C652 C654 1.388 . S
C653 C652 1.366 . S
C653 C657 1.385 . S
C654 H635 0.951 . S
C654 C652 1.388 . S
C654 C655 1.366 . S
C655 C654 1.366 . S
C655 C656 1.414 . S
C655 C658 1.499 . S
C656 H636 0.950 . S
C656 C655 1.414 . S
C656 C657 1.374 . S
C657 H637 0.950 . S
C657 C653 1.385 . S
C657 C656 1.374 . S
C658 C655 1.499 . S
C658 C659 1.373 . S
C658 C660 1.389 . S
C659 H638 0.950 . S
C659 C658 1.373 . S
C659 C675 1.377 1_545 S
C660 C658 1.389 . S
C660 C661 1.524 . S
C660 C674 1.377 1_545 S
C661 C660 1.524 . S
C661 C662 1.397 . S
C661 C666 1.363 . S
C662 H639 0.950 . S
C662 C661 1.397 . S
C662 C663 1.334 . S
C663 H640 0.950 . S
C663 C662 1.334 . S
C663 C664 1.287 . S
C664 C663 1.287 . S
C664 C665 1.524 . S
C664 H683 0.913 . S
C665 H641 0.950 . S
C665 C664 1.524 . S
C665 C666 1.415 . S
C666 H642 0.950 . S
C666 C661 1.363 . S
C666 C665 1.415 . S
C667 H643 0.951 . S
C667 C668 1.366 . S
C667 C669 1.388 . S
C668 C667 1.366 . S
C668 C672 1.385 . S
C669 H644 0.951 . S
C669 C667 1.388 . S
C669 C670 1.366 . S
C670 C669 1.366 . S
C670 C671 1.414 . S
C670 C673 1.499 . S
C671 H645 0.950 . S
C671 C670 1.414 . S
C671 C672 1.374 . S
C672 H646 0.950 . S
C672 C668 1.385 . S
C672 C671 1.374 . S
C673 C670 1.499 . S
C673 C674 1.373 . S
C673 C675 1.389 . S
C674 H647 0.950 . S
C674 C660 1.377 1_565 S
C674 C673 1.373 . S
C675 C659 1.377 1_565 S
C675 C673 1.389 . S
C675 C676 1.524 . S
C676 C675 1.524 . S
C676 C677 1.397 . S
C676 C681 1.363 . S
C677 H648 0.950 . S
C677 C676 1.397 . S
C677 C678 1.334 . S
C678 H649 0.950 . S
C678 C677 1.334 . S
C678 C679 1.287 . S
C679 C678 1.287 . S
C679 C680 1.524 . S
C679 H682 0.999 . S
C680 H650 0.950 . S
C680 C679 1.524 . S
C680 C681 1.415 . S
C681 H651 0.950 1_565 S
C681 C676 1.363 . S
C681 C680 1.415 . S
H682 C679 0.999 . S
H683 C664 0.913 . S
H684 C702 0.951 . S
H685 C704 0.951 . S
H686 C706 0.950 . S
H687 C707 0.950 . S
H688 C709 0.950 . S
H689 C712 0.950 . S
H690 C713 0.950 . S
H691 C715 0.950 . S
H692 C716 0.950 . S
H693 C717 0.951 . S
H694 C719 0.951 . S
H695 C721 0.950 . S
H696 C722 0.950 . S
H697 C724 0.950 . S
H698 C727 0.950 . S
H699 C728 0.950 . S
H700 C730 0.950 . S
H701 C731 0.950 1_455 S
C702 H684 0.951 . S
C702 C703 1.366 . S
C702 C704 1.388 . S
C703 C702 1.366 . S
C703 C707 1.385 . S
C704 H685 0.951 . S
C704 C702 1.388 . S
C704 C705 1.366 . S
C705 C704 1.366 . S
C705 C706 1.414 . S
C705 C708 1.499 . S
C706 H686 0.950 . S
C706 C705 1.414 . S
C706 C707 1.374 . S
C707 H687 0.950 . S
C707 C703 1.385 . S
C707 C706 1.374 . S
C708 C705 1.499 . S
C708 C709 1.373 . S
C708 C710 1.389 . S
C709 H688 0.950 . S
C709 C708 1.373 . S
C709 C725 1.377 1_455 S
C710 C708 1.389 . S
C710 C711 1.524 . S
C710 C724 1.377 1_455 S
C711 C710 1.524 . S
C711 C712 1.397 . S
C711 C716 1.363 . S
C712 H689 0.950 . S
C712 C711 1.397 . S
C712 C713 1.334 . S
C713 H690 0.950 . S
C713 C712 1.334 . S
C713 C714 1.287 . S
C714 C713 1.287 . S
C714 C715 1.524 . S
C714 H733 0.913 . S
C715 H691 0.950 . S
C715 C714 1.524 . S
C715 C716 1.415 . S
C716 H692 0.950 . S
C716 C711 1.363 . S
C716 C715 1.415 . S
C717 H693 0.951 . S
C717 C718 1.366 . S
C717 C719 1.388 . S
C718 C717 1.366 . S
C718 C722 1.385 . S
C719 H694 0.951 . S
C719 C717 1.388 . S
C719 C720 1.366 . S
C720 C719 1.366 . S
C720 C721 1.414 . S
C720 C723 1.499 . S
C721 H695 0.950 . S
C721 C720 1.414 . S
C721 C722 1.374 . S
C722 H696 0.950 . S
C722 C718 1.385 . S
C722 C721 1.374 . S
C723 C720 1.499 . S
C723 C724 1.373 . S
C723 C725 1.389 . S
C724 H697 0.950 . S
C724 C710 1.377 1_655 S
C724 C723 1.373 . S
C725 C709 1.377 1_655 S
C725 C723 1.389 . S
C725 C726 1.524 . S
C726 C725 1.524 . S
C726 C727 1.397 . S
C726 C731 1.363 . S
C727 H698 0.950 . S
C727 C726 1.397 . S
C727 C728 1.334 . S
C728 H699 0.950 . S
C728 C727 1.334 . S
C728 C729 1.287 . S
C729 C728 1.287 . S
C729 C730 1.524 . S
C729 H732 0.999 . S
C730 H700 0.950 . S
C730 C729 1.524 . S
C730 C731 1.415 . S
C731 H701 0.950 1_655 S
C731 C726 1.363 . S
C731 C730 1.415 . S
H732 C729 0.999 . S
H733 C714 0.913 . S
H734 C752 0.951 . S
H735 C754 0.951 . S
H736 C756 0.950 . S
H737 C757 0.950 . S
H738 C759 0.950 . S
H739 C762 0.950 . S
H740 C763 0.950 . S
H741 C765 0.950 . S
H742 C766 0.950 . S
H743 C767 0.951 . S
H744 C769 0.951 . S
H745 C771 0.950 . S
H746 C772 0.950 . S
H747 C774 0.950 . S
H748 C777 0.950 . S
H749 C778 0.950 . S
H750 C780 0.950 . S
H751 C781 0.950 . S
C752 H734 0.951 . S
C752 C753 1.366 . S
C752 C754 1.388 . S
C753 C752 1.366 . S
C753 C757 1.385 . S
C754 H735 0.951 . S
C754 C752 1.388 . S
C754 C755 1.366 . S
C755 C754 1.366 . S
C755 C756 1.414 . S
C755 C758 1.499 . S
C756 H736 0.950 . S
C756 C755 1.414 . S
C756 C757 1.374 . S
C757 H737 0.950 . S
C757 C753 1.385 . S
C757 C756 1.374 . S
C758 C755 1.499 . S
C758 C759 1.373 . S
C758 C760 1.389 . S
C759 H738 0.950 . S
C759 C758 1.373 . S
C759 C775 1.377 . S
C760 C758 1.389 . S
C760 C761 1.524 . S
C760 C774 1.377 . S
C761 C760 1.524 . S
C761 C762 1.397 . S
C761 C766 1.363 . S
C762 H739 0.950 . S
C762 C761 1.397 . S
C762 C763 1.334 . S
C763 H740 0.950 . S
C763 C762 1.334 . S
C763 C764 1.287 . S
C764 C763 1.287 . S
C764 C765 1.524 . S
C764 H783 0.913 . S
C765 H741 0.950 . S
C765 C764 1.524 . S
C765 C766 1.415 . S
C766 H742 0.950 . S
C766 C761 1.363 . S
C766 C765 1.415 . S
C767 H743 0.951 . S
C767 C768 1.366 . S
C767 C769 1.388 . S
C768 C767 1.366 . S
C768 C772 1.385 . S
C769 H744 0.951 . S
C769 C767 1.388 . S
C769 C770 1.366 . S
C770 C769 1.366 . S
C770 C771 1.414 . S
C770 C773 1.499 . S
C771 H745 0.950 . S
C771 C770 1.414 . S
C771 C772 1.374 . S
C772 H746 0.950 . S
C772 C768 1.385 . S
C772 C771 1.374 . S
C773 C770 1.499 . S
C773 C774 1.373 . S
C773 C775 1.389 . S
C774 H747 0.950 . S
C774 C760 1.377 . S
C774 C773 1.373 . S
C775 C759 1.377 . S
C775 C773 1.389 . S
C775 C776 1.524 . S
C776 C775 1.524 . S
C776 C777 1.397 . S
C776 C781 1.363 . S
C777 H748 0.950 . S
C777 C776 1.397 . S
C777 C778 1.334 . S
C778 H749 0.950 . S
C778 C777 1.334 . S
C778 C779 1.287 . S
C779 C778 1.287 . S
C779 C780 1.524 . S
C779 H782 0.999 . S
C780 H750 0.950 . S
C780 C779 1.524 . S
C780 C781 1.415 . S
C781 H751 0.950 . S
C781 C776 1.363 . S
C781 C780 1.415 . S
H782 C779 0.999 . S
H783 C764 0.913 . S
H784 C802 0.951 . S
H785 C804 0.951 . S
H786 C806 0.950 . S
H787 C807 0.950 . S
H788 C809 0.950 . S
H789 C812 0.950 . S
H790 C813 0.950 . S
H791 C815 0.950 . S
H792 C816 0.950 . S
H793 C817 0.951 . S
H794 C819 0.951 . S
H795 C821 0.950 . S
H796 C822 0.950 . S
H797 C824 0.950 . S
H798 C827 0.950 . S
H799 C828 0.950 . S
H800 C830 0.950 . S
H801 C831 0.950 . S
C802 H784 0.951 . S
C802 C803 1.366 . S
C802 C804 1.388 . S
C803 C802 1.366 . S
C803 C807 1.385 . S
C804 H785 0.951 . S
C804 C802 1.388 . S
C804 C805 1.366 . S
C805 C804 1.366 . S
C805 C806 1.414 . S
C805 C808 1.499 . S
C806 H786 0.950 . S
C806 C805 1.414 . S
C806 C807 1.374 . S
C807 H787 0.950 . S
C807 C803 1.385 . S
C807 C806 1.374 . S
C808 C805 1.499 . S
C808 C809 1.373 . S
C808 C810 1.389 . S
C809 H788 0.950 . S
C809 C808 1.373 . S
C809 C825 1.377 1_545 S
C810 C808 1.389 . S
C810 C811 1.524 . S
C810 C824 1.377 1_545 S
C811 C810 1.524 . S
C811 C812 1.397 . S
C811 C816 1.363 . S
C812 H789 0.950 . S
C812 C811 1.397 . S
C812 C813 1.334 . S
C813 H790 0.950 . S
C813 C812 1.334 . S
C813 C814 1.287 . S
C814 C813 1.287 . S
C814 C815 1.524 . S
C814 H833 0.913 . S
C815 H791 0.950 . S
C815 C814 1.524 . S
C815 C816 1.415 . S
C816 H792 0.950 . S
C816 C811 1.363 . S
C816 C815 1.415 . S
C817 H793 0.951 . S
C817 C818 1.366 . S
C817 C819 1.388 . S
C818 C817 1.366 . S
C818 C822 1.385 . S
C819 H794 0.951 . S
C819 C817 1.388 . S
C819 C820 1.366 . S
C820 C819 1.366 . S
C820 C821 1.414 . S
C820 C823 1.499 . S
C821 H795 0.950 . S
C821 C820 1.414 . S
C821 C822 1.374 . S
C822 H796 0.950 . S
C822 C818 1.385 . S
C822 C821 1.374 . S
C823 C820 1.499 . S
C823 C824 1.373 . S
C823 C825 1.389 . S
C824 H797 0.950 . S
C824 C810 1.377 1_565 S
C824 C823 1.373 . S
C825 C809 1.377 1_565 S
C825 C823 1.389 . S
C825 C826 1.524 . S
C826 C825 1.524 . S
C826 C827 1.397 . S
C826 C831 1.363 . S
C827 H798 0.950 . S
C827 C826 1.397 . S
C827 C828 1.334 . S
C828 H799 0.950 . S
C828 C827 1.334 . S
C828 C829 1.287 . S
C829 C828 1.287 . S
C829 C830 1.524 . S
C829 H832 0.999 . S
C830 H800 0.950 . S
C830 C829 1.524 . S
C830 C831 1.415 . S
C831 H801 0.950 . S
C831 C826 1.363 . S
C831 C830 1.415 . S
H832 C829 0.999 . S
H833 C814 0.913 . S
H834 C852 0.951 . S
H835 C854 0.951 . S
H836 C856 0.950 . S
H837 C857 0.950 . S
H838 C859 0.950 . S
H839 C862 0.950 . S
H840 C863 0.950 . S
H841 C865 0.950 . S
H842 C866 0.950 1_545 S
H843 C867 0.951 . S
H844 C869 0.951 . S
H845 C871 0.950 . S
H846 C872 0.950 . S
H847 C874 0.950 . S
H848 C877 0.950 . S
H849 C878 0.950 . S
H850 C880 0.950 . S
H851 C881 0.950 . S
C852 H834 0.951 . S
C852 C853 1.366 . S
C852 C854 1.388 . S
C853 C852 1.366 . S
C853 C857 1.385 . S
C854 H835 0.951 . S
C854 C852 1.388 . S
C854 C855 1.366 . S
C855 C854 1.366 . S
C855 C856 1.414 . S
C855 C858 1.499 . S
C856 H836 0.950 . S
C856 C855 1.414 . S
C856 C857 1.374 . S
C857 H837 0.950 . S
C857 C853 1.385 . S
C857 C856 1.374 . S
C858 C855 1.499 . S
C858 C859 1.373 . S
C858 C860 1.389 . S
C859 H838 0.950 . S
C859 C858 1.373 . S
C859 C875 1.377 1_565 S
C860 C858 1.389 . S
C860 C861 1.524 . S
C860 C874 1.377 1_565 S
C861 C860 1.524 . S
C861 C862 1.397 . S
C861 C866 1.363 . S
C862 H839 0.950 . S
C862 C861 1.397 . S
C862 C863 1.334 . S
C863 H840 0.950 . S
C863 C862 1.334 . S
C863 C864 1.287 . S
C864 C863 1.287 . S
C864 C865 1.524 . S
C864 H883 0.913 . S
C865 H841 0.950 . S
C865 C864 1.524 . S
C865 C866 1.415 . S
C866 H842 0.950 1_565 S
C866 C861 1.363 . S
C866 C865 1.415 . S
C867 H843 0.951 . S
C867 C868 1.366 . S
C867 C869 1.388 . S
C868 C867 1.366 . S
C868 C872 1.385 . S
C869 H844 0.951 . S
C869 C867 1.388 . S
C869 C870 1.366 . S
C870 C869 1.366 . S
C870 C871 1.414 . S
C870 C873 1.499 . S
C871 H845 0.950 . S
C871 C870 1.414 . S
C871 C872 1.374 . S
C872 H846 0.950 . S
C872 C868 1.385 . S
C872 C871 1.374 . S
C873 C870 1.499 . S
C873 C874 1.373 . S
C873 C875 1.389 . S
C874 H847 0.950 . S
C874 C860 1.377 1_545 S
C874 C873 1.373 . S
C875 C859 1.377 1_545 S
C875 C873 1.389 . S
C875 C876 1.524 . S
C876 C875 1.524 . S
C876 C877 1.397 . S
C876 C881 1.363 . S
C877 H848 0.950 . S
C877 C876 1.397 . S
C877 C878 1.334 . S
C878 H849 0.950 . S
C878 C877 1.334 . S
C878 C879 1.287 . S
C879 C878 1.287 . S
C879 C880 1.524 . S
C879 H882 0.999 . S
C880 H850 0.950 . S
C880 C879 1.524 . S
C880 C881 1.415 . S
C881 H851 0.950 . S
C881 C876 1.363 . S
C881 C880 1.415 . S
H882 C879 0.999 . S
H883 C864 0.913 . S
H884 C902 0.951 . S
H885 C904 0.951 . S
H886 C906 0.950 . S
H887 C907 0.950 . S
H888 C909 0.950 . S
H889 C912 0.950 . S
H890 C913 0.950 . S
H891 C915 0.950 . S
H892 C916 0.950 . S
H893 C917 0.951 . S
H894 C919 0.951 . S
H895 C921 0.950 . S
H896 C922 0.950 . S
H897 C924 0.950 . S
H898 C927 0.950 . S
H899 C928 0.950 . S
H900 C930 0.950 1_565 S
H901 C931 0.950 . S
C902 H884 0.951 . S
C902 C903 1.366 . S
C902 C904 1.388 . S
C903 C902 1.366 . S
C903 C907 1.385 . S
C904 H885 0.951 . S
C904 C902 1.388 . S
C904 C905 1.366 . S
C905 C904 1.366 . S
C905 C906 1.414 . S
C905 C908 1.499 . S
C906 H886 0.950 . S
C906 C905 1.414 . S
C906 C907 1.374 . S
C907 H887 0.950 . S
C907 C903 1.385 . S
C907 C906 1.374 . S
C908 C905 1.499 . S
C908 C909 1.373 . S
C908 C910 1.389 . S
C909 H888 0.950 . S
C909 C908 1.373 . S
C909 C925 1.377 1_455 S
C910 C908 1.389 . S
C910 C911 1.524 . S
C910 C924 1.377 1_455 S
C911 C910 1.524 . S
C911 C912 1.397 . S
C911 C916 1.363 . S
C912 H889 0.950 . S
C912 C911 1.397 . S
C912 C913 1.334 . S
C913 H890 0.950 . S
C913 C912 1.334 . S
C913 C914 1.287 . S
C914 C913 1.287 . S
C914 C915 1.524 . S
C914 H933 0.913 . S
C915 H891 0.950 . S
C915 C914 1.524 . S
C915 C916 1.415 . S
C916 H892 0.950 . S
C916 C911 1.363 . S
C916 C915 1.415 . S
C917 H893 0.951 . S
C917 C918 1.366 . S
C917 C919 1.388 . S
C918 C917 1.366 . S
C918 C922 1.385 . S
C919 H894 0.951 . S
C919 C917 1.388 . S
C919 C920 1.366 . S
C920 C919 1.366 . S
C920 C921 1.414 . S
C920 C923 1.499 . S
C921 H895 0.950 . S
C921 C920 1.414 . S
C921 C922 1.374 . S
C922 H896 0.950 . S
C922 C918 1.385 . S
C922 C921 1.374 . S
C923 C920 1.499 . S
C923 C924 1.373 . S
C923 C925 1.389 . S
C924 H897 0.950 . S
C924 C910 1.377 1_655 S
C924 C923 1.373 . S
C925 C909 1.377 1_655 S
C925 C923 1.389 . S
C925 C926 1.524 . S
C926 C925 1.524 . S
C926 C927 1.397 . S
C926 C931 1.363 . S
C927 H898 0.950 . S
C927 C926 1.397 . S
C927 C928 1.334 . S
C928 H899 0.950 . S
C928 C927 1.334 . S
C928 C929 1.287 . S
C929 C928 1.287 . S
C929 C930 1.524 . S
C929 H932 0.999 1_545 S
C930 H900 0.950 1_545 S
C930 C929 1.524 . S
C930 C931 1.415 . S
C931 H901 0.950 . S
C931 C926 1.363 . S
C931 C930 1.415 . S
H932 C929 0.999 1_565 S
H933 C914 0.913 . S
H934 C952 0.951 . S
H935 C954 0.951 . S
H936 C956 0.950 . S
H937 C957 0.950 . S
H938 C959 0.950 . S
H939 C962 0.950 . S
H940 C963 0.950 . S
H941 C965 0.950 . S
H942 C966 0.950 . S
H943 C967 0.951 . S
H944 C969 0.951 . S
H945 C971 0.950 . S
H946 C972 0.950 . S
H947 C974 0.950 . S
H948 C977 0.950 . S
H949 C978 0.950 . S
H950 C980 0.950 . S
H951 C981 0.950 . S
C952 H934 0.951 . S
C952 C953 1.366 . S
C952 C954 1.388 . S
C953 C952 1.366 . S
C953 C957 1.385 . S
C954 H935 0.951 . S
C954 C952 1.388 . S
C954 C955 1.366 . S
C955 C954 1.366 . S
C955 C956 1.414 . S
C955 C958 1.499 . S
C956 H936 0.950 . S
C956 C955 1.414 . S
C956 C957 1.374 . S
C957 H937 0.950 . S
C957 C953 1.385 . S
C957 C956 1.374 . S
C958 C955 1.499 . S
C958 C959 1.373 . S
C958 C960 1.389 . S
C959 H938 0.950 . S
C959 C958 1.373 . S
C959 C975 1.377 . S
C960 C958 1.389 . S
C960 C961 1.524 . S
C960 C974 1.377 . S
C961 C960 1.524 . S
C961 C962 1.397 . S
C961 C966 1.363 . S
C962 H939 0.950 . S
C962 C961 1.397 . S
C962 C963 1.334 . S
C963 H940 0.950 . S
C963 C962 1.334 . S
C963 C964 1.287 . S
C964 C963 1.287 . S
C964 C965 1.524 . S
C964 H983 0.913 . S
C965 H941 0.950 . S
C965 C964 1.524 . S
C965 C966 1.415 . S
C966 H942 0.950 . S
C966 C961 1.363 . S
C966 C965 1.415 . S
C967 H943 0.951 . S
C967 C968 1.366 . S
C967 C969 1.388 . S
C968 C967 1.366 . S
C968 C972 1.385 . S
C969 H944 0.951 . S
C969 C967 1.388 . S
C969 C970 1.366 . S
C970 C969 1.366 . S
C970 C971 1.414 . S
C970 C973 1.499 . S
C971 H945 0.950 . S
C971 C970 1.414 . S
C971 C972 1.374 . S
C972 H946 0.950 . S
C972 C968 1.385 . S
C972 C971 1.374 . S
C973 C970 1.499 . S
C973 C974 1.373 . S
C973 C975 1.389 . S
C974 H947 0.950 . S
C974 C960 1.377 . S
C974 C973 1.373 . S
C975 C959 1.377 . S
C975 C973 1.389 . S
C975 C976 1.524 . S
C976 C975 1.524 . S
C976 C977 1.397 . S
C976 C981 1.363 . S
C977 H948 0.950 . S
C977 C976 1.397 . S
C977 C978 1.334 . S
C978 H949 0.950 . S
C978 C977 1.334 . S
C978 C979 1.287 . S
C979 C978 1.287 . S
C979 C980 1.524 . S
C979 H982 0.999 . S
C980 H950 0.950 . S
C980 C979 1.524 . S
C980 C981 1.415 . S
C981 H951 0.950 . S
C981 C976 1.363 . S
C981 C980 1.415 . S
H982 C979 0.999 . S
H983 C964 0.913 . S
H984 C1002 0.951 . S
H985 C1004 0.951 . S
H986 C1006 0.950 . S
H987 C1007 0.950 . S
H988 C1009 0.950 . S
H989 C1012 0.950 . S
H990 C1013 0.950 . S
H991 C1015 0.950 . S
H992 C1016 0.950 . S
H993 C1017 0.951 . S
H994 C1019 0.951 . S
H995 C1021 0.950 . S
H996 C1022 0.950 . S
H997 C1024 0.950 . S
H998 C1027 0.950 . S
H999 C1028 0.950 . S
H1000 C1030 0.950 . S
H1001 C1031 0.950 . S
C1002 H984 0.951 . S
C1002 C1003 1.366 . S
C1002 C1004 1.388 . S
C1003 C1002 1.366 . S
C1003 C1007 1.385 . S
C1004 H985 0.951 . S
C1004 C1002 1.388 . S
C1004 C1005 1.366 . S
C1005 C1004 1.366 . S
C1005 C1006 1.414 . S
C1005 C1008 1.499 . S
C1006 H986 0.950 . S
C1006 C1005 1.414 . S
C1006 C1007 1.374 . S
C1007 H987 0.950 . S
C1007 C1003 1.385 . S
C1007 C1006 1.374 . S
C1008 C1005 1.499 . S
C1008 C1009 1.373 . S
C1008 C1010 1.389 . S
C1009 H988 0.950 . S
C1009 C1008 1.373 . S
C1009 C1025 1.377 . S
C1010 C1008 1.389 . S
C1010 C1011 1.524 . S
C1010 C1024 1.377 . S
C1011 C1010 1.524 . S
C1011 C1012 1.397 . S
C1011 C1016 1.363 . S
C1012 H989 0.950 . S
C1012 C1011 1.397 . S
C1012 C1013 1.334 . S
C1013 H990 0.950 . S
C1013 C1012 1.334 . S
C1013 C1014 1.287 . S
C1014 C1013 1.287 . S
C1014 C1015 1.524 . S
C1014 H1033 0.913 . S
C1015 H991 0.950 . S
C1015 C1014 1.524 . S
C1015 C1016 1.415 . S
C1016 H992 0.950 . S
C1016 C1011 1.363 . S
C1016 C1015 1.415 . S
C1017 H993 0.951 . S
C1017 C1018 1.366 . S
C1017 C1019 1.388 . S
C1018 C1017 1.366 . S
C1018 C1022 1.385 . S
C1019 H994 0.951 . S
C1019 C1017 1.388 . S
C1019 C1020 1.366 . S
C1020 C1019 1.366 . S
C1020 C1021 1.414 . S
C1020 C1023 1.499 . S
C1021 H995 0.950 . S
C1021 C1020 1.414 . S
C1021 C1022 1.374 . S
C1022 H996 0.950 . S
C1022 C1018 1.385 . S
C1022 C1021 1.374 . S
C1023 C1020 1.499 . S
C1023 C1024 1.373 . S
C1023 C1025 1.389 . S
C1024 H997 0.950 . S
C1024 C1010 1.377 . S
C1024 C1023 1.373 . S
C1025 C1009 1.377 . S
C1025 C1023 1.389 . S
C1025 C1026 1.524 . S
C1026 C1025 1.524 . S
C1026 C1027 1.397 . S
C1026 C1031 1.363 . S
C1027 H998 0.950 . S
C1027 C1026 1.397 . S
C1027 C1028 1.334 . S
C1028 H999 0.950 . S
C1028 C1027 1.334 . S
C1028 C1029 1.287 . S
C1029 C1028 1.287 . S
C1029 C1030 1.524 . S
C1029 H1032 0.999 . S
C1030 H1000 0.950 . S
C1030 C1029 1.524 . S
C1030 C1031 1.415 . S
C1031 H1001 0.950 . S
C1031 C1026 1.363 . S
C1031 C1030 1.415 . S
H1032 C1029 0.999 . S
H1033 C1014 0.913 . S
H1034 C1052 0.951 . S
H1035 C1054 0.951 . S
H1036 C1056 0.950 . S
H1037 C1057 0.950 . S
H1038 C1059 0.950 . S
H1039 C1062 0.950 . S
H1040 C1063 0.950 . S
H1041 C1065 0.950 . S
H1042 C1066 0.950 . S
H1043 C1067 0.951 . S
H1044 C1069 0.951 . S
H1045 C1071 0.950 . S
H1046 C1072 0.950 . S
H1047 C1074 0.950 . S
H1048 C1077 0.950 . S
H1049 C1078 0.950 . S
H1050 C1080 0.950 . S
H1051 C1081 0.950 . S
C1052 H1034 0.951 . S
C1052 C1053 1.366 . S
C1052 C1054 1.388 . S
C1053 C1052 1.366 . S
C1053 C1057 1.385 . S
C1054 H1035 0.951 . S
C1054 C1052 1.388 . S
C1054 C1055 1.366 . S
C1055 C1054 1.366 . S
C1055 C1056 1.414 . S
C1055 C1058 1.499 . S
C1056 H1036 0.950 . S
C1056 C1055 1.414 . S
C1056 C1057 1.374 . S
C1057 H1037 0.950 . S
C1057 C1053 1.385 . S
C1057 C1056 1.374 . S
C1058 C1055 1.499 . S
C1058 C1059 1.373 . S
C1058 C1060 1.389 . S
C1059 H1038 0.950 . S
C1059 C1058 1.373 . S
C1059 C1075 1.377 . S
C1060 C1058 1.389 . S
C1060 C1061 1.524 . S
C1060 C1074 1.377 . S
C1061 C1060 1.524 . S
C1061 C1062 1.397 . S
C1061 C1066 1.363 . S
C1062 H1039 0.950 . S
C1062 C1061 1.397 . S
C1062 C1063 1.334 . S
C1063 H1040 0.950 . S
C1063 C1062 1.334 . S
C1063 C1064 1.287 . S
C1064 C1063 1.287 . S
C1064 C1065 1.524 . S
C1064 H1083 0.913 . S
C1065 H1041 0.950 . S
C1065 C1064 1.524 . S
C1065 C1066 1.415 . S
C1066 H1042 0.950 . S
C1066 C1061 1.363 . S
C1066 C1065 1.415 . S
C1067 H1043 0.951 . S
C1067 C1068 1.366 . S
C1067 C1069 1.388 . S
C1068 C1067 1.366 . S
C1068 C1072 1.385 . S
C1069 H1044 0.951 . S
C1069 C1067 1.388 . S
C1069 C1070 1.366 . S
C1070 C1069 1.366 . S
C1070 C1071 1.414 . S
C1070 C1073 1.499 . S
C1071 H1045 0.950 . S
C1071 C1070 1.414 . S
C1071 C1072 1.374 . S
C1072 H1046 0.950 . S
C1072 C1068 1.385 . S
C1072 C1071 1.374 . S
C1073 C1070 1.499 . S
C1073 C1074 1.373 . S
C1073 C1075 1.389 . S
C1074 H1047 0.950 . S
C1074 C1060 1.377 . S
C1074 C1073 1.373 . S
C1075 C1059 1.377 . S
C1075 C1073 1.389 . S
C1075 C1076 1.524 . S
C1076 C1075 1.524 . S
C1076 C1077 1.397 . S
C1076 C1081 1.363 . S
C1077 H1048 0.950 . S
C1077 C1076 1.397 . S
C1077 C1078 1.334 . S
C1078 H1049 0.950 . S
C1078 C1077 1.334 . S
C1078 C1079 1.287 . S
C1079 C1078 1.287 . S
C1079 C1080 1.524 . S
C1079 H1082 0.999 . S
C1080 H1050 0.950 . S
C1080 C1079 1.524 . S
C1080 C1081 1.415 . S
C1081 H1051 0.950 . S
C1081 C1076 1.363 . S
C1081 C1080 1.415 . S
H1082 C1079 0.999 . S
H1083 C1064 0.913 . S
H1084 C1102 0.951 . S
H1085 C1104 0.951 . S
H1086 C1106 0.950 . S
H1087 C1107 0.950 . S
H1088 C1109 0.950 . S
H1089 C1112 0.950 . S
H1090 C1113 0.950 . S
H1091 C1115 0.950 . S
H1092 C1116 0.950 . S
H1093 C1117 0.951 . S
H1094 C1119 0.951 . S
H1095 C1121 0.950 . S
H1096 C1122 0.950 . S
H1097 C1124 0.950 . S
H1098 C1127 0.950 . S
H1099 C1128 0.950 . S
H1100 C1130 0.950 . S
H1101 C1131 0.950 . S
C1102 H1084 0.951 . S
C1102 C1103 1.366 . S
C1102 C1104 1.388 . S
C1103 C1102 1.366 . S
C1103 C1107 1.385 . S
C1104 H1085 0.951 . S
C1104 C1102 1.388 . S
C1104 C1105 1.366 . S
C1105 C1104 1.366 . S
C1105 C1106 1.414 . S
C1105 C1108 1.499 . S
C1106 H1086 0.950 . S
C1106 C1105 1.414 . S
C1106 C1107 1.374 . S
C1107 H1087 0.950 . S
C1107 C1103 1.385 . S
C1107 C1106 1.374 . S
C1108 C1105 1.499 . S
C1108 C1109 1.373 . S
C1108 C1110 1.389 . S
C1109 H1088 0.950 . S
C1109 C1108 1.373 . S
C1109 C1125 1.377 . S
C1110 C1108 1.389 . S
C1110 C1111 1.524 . S
C1110 C1124 1.377 . S
C1111 C1110 1.524 . S
C1111 C1112 1.397 . S
C1111 C1116 1.363 . S
C1112 H1089 0.950 . S
C1112 C1111 1.397 . S
C1112 C1113 1.334 . S
C1113 H1090 0.950 . S
C1113 C1112 1.334 . S
C1113 C1114 1.287 . S
C1114 C1113 1.287 . S
C1114 C1115 1.524 . S
C1114 H1133 0.913 . S
C1115 H1091 0.950 . S
C1115 C1114 1.524 . S
C1115 C1116 1.415 . S
C1116 H1092 0.950 . S
C1116 C1111 1.363 . S
C1116 C1115 1.415 . S
C1117 H1093 0.951 . S
C1117 C1118 1.366 . S
C1117 C1119 1.388 . S
C1118 C1117 1.366 . S
C1118 C1122 1.385 . S
C1119 H1094 0.951 . S
C1119 C1117 1.388 . S
C1119 C1120 1.366 . S
C1120 C1119 1.366 . S
C1120 C1121 1.414 . S
C1120 C1123 1.499 . S
C1121 H1095 0.950 . S
C1121 C1120 1.414 . S
C1121 C1122 1.374 . S
C1122 H1096 0.950 . S
C1122 C1118 1.385 . S
C1122 C1121 1.374 . S
C1123 C1120 1.499 . S
C1123 C1124 1.373 . S
C1123 C1125 1.389 . S
C1124 H1097 0.950 . S
C1124 C1110 1.377 . S
C1124 C1123 1.373 . S
C1125 C1109 1.377 . S
C1125 C1123 1.389 . S
C1125 C1126 1.524 . S
C1126 C1125 1.524 . S
C1126 C1127 1.397 . S
C1126 C1131 1.363 . S
C1127 H1098 0.950 . S
C1127 C1126 1.397 . S
C1127 C1128 1.334 . S
C1128 H1099 0.950 . S
C1128 C1127 1.334 . S
C1128 C1129 1.287 . S
C1129 C1128 1.287 . S
C1129 C1130 1.524 . S
C1129 H1132 0.999 . S
C1130 H1100 0.950 . S
C1130 C1129 1.524 . S
C1130 C1131 1.415 . S
C1131 H1101 0.950 . S
C1131 C1126 1.363 . S
C1131 C1130 1.415 . S
H1132 C1129 0.999 . S
H1133 C1114 0.913 . S
H1134 C1152 0.951 . S
H1135 C1154 0.951 . S
H1136 C1156 0.950 . S
H1137 C1157 0.950 . S
H1138 C1159 0.950 . S
H1139 C1162 0.950 . S
H1140 C1163 0.950 . S
H1141 C1165 0.950 . S
H1142 C1166 0.950 . S
H1143 C1167 0.951 . S
H1144 C1169 0.951 . S
H1145 C1171 0.950 . S
H1146 C1172 0.950 . S
H1147 C1174 0.950 . S
H1148 C1177 0.950 . S
H1149 C1178 0.950 . S
H1150 C1180 0.950 . S
H1151 C1181 0.950 . S
C1152 H1134 0.951 . S
C1152 C1153 1.366 . S
C1152 C1154 1.388 . S
C1153 C1152 1.366 . S
C1153 C1157 1.385 . S
C1154 H1135 0.951 . S
C1154 C1152 1.388 . S
C1154 C1155 1.366 . S
C1155 C1154 1.366 . S
C1155 C1156 1.414 . S
C1155 C1158 1.499 . S
C1156 H1136 0.950 . S
C1156 C1155 1.414 . S
C1156 C1157 1.374 . S
C1157 H1137 0.950 . S
C1157 C1153 1.385 . S
C1157 C1156 1.374 . S
C1158 C1155 1.499 . S
C1158 C1159 1.373 . S
C1158 C1160 1.389 . S
C1159 H1138 0.950 . S
C1159 C1158 1.373 . S
C1159 C1175 1.377 . S
C1160 C1158 1.389 . S
C1160 C1161 1.524 . S
C1160 C1174 1.377 . S
C1161 C1160 1.524 . S
C1161 C1162 1.397 . S
C1161 C1166 1.363 . S
C1162 H1139 0.950 . S
C1162 C1161 1.397 . S
C1162 C1163 1.334 . S
C1163 H1140 0.950 . S
C1163 C1162 1.334 . S
C1163 C1164 1.287 . S
C1164 C1163 1.287 . S
C1164 C1165 1.524 . S
C1164 H1183 0.913 . S
C1165 H1141 0.950 . S
C1165 C1164 1.524 . S
C1165 C1166 1.415 . S
C1166 H1142 0.950 . S
C1166 C1161 1.363 . S
C1166 C1165 1.415 . S
C1167 H1143 0.951 . S
C1167 C1168 1.366 . S
C1167 C1169 1.388 . S
C1168 C1167 1.366 . S
C1168 C1172 1.385 . S
C1169 H1144 0.951 . S
C1169 C1167 1.388 . S
C1169 C1170 1.366 . S
C1170 C1169 1.366 . S
C1170 C1171 1.414 . S
C1170 C1173 1.499 . S
C1171 H1145 0.950 . S
C1171 C1170 1.414 . S
C1171 C1172 1.374 . S
C1172 H1146 0.950 . S
C1172 C1168 1.385 . S
C1172 C1171 1.374 . S
C1173 C1170 1.499 . S
C1173 C1174 1.373 . S
C1173 C1175 1.389 . S
C1174 H1147 0.950 . S
C1174 C1160 1.377 . S
C1174 C1173 1.373 . S
C1175 C1159 1.377 . S
C1175 C1173 1.389 . S
C1175 C1176 1.524 . S
C1176 C1175 1.524 . S
C1176 C1177 1.397 . S
C1176 C1181 1.363 . S
C1177 H1148 0.950 . S
C1177 C1176 1.397 . S
C1177 C1178 1.334 . S
C1178 H1149 0.950 . S
C1178 C1177 1.334 . S
C1178 C1179 1.287 . S
C1179 C1178 1.287 . S
C1179 C1180 1.524 . S
C1179 H1182 0.999 . S
C1180 H1150 0.950 . S
C1180 C1179 1.524 . S
C1180 C1181 1.415 . S
C1181 H1151 0.950 . S
C1181 C1176 1.363 . S
C1181 C1180 1.415 . S
H1182 C1179 0.999 . S
H1183 C1164 0.913 . S
H1184 C1202 0.951 . S
H1185 C1204 0.951 . S
H1186 C1206 0.950 . S
H1187 C1207 0.950 . S
H1188 C1209 0.950 . S
H1189 C1212 0.950 . S
H1190 C1213 0.950 . S
H1191 C1215 0.950 . S
H1192 C1216 0.950 . S
H1193 C1217 0.951 . S
H1194 C1219 0.951 . S
H1195 C1221 0.950 . S
H1196 C1222 0.950 . S
H1197 C1224 0.950 . S
H1198 C1227 0.950 . S
H1199 C1228 0.950 . S
H1200 C1230 0.950 . S
H1201 C1231 0.950 . S
C1202 H1184 0.951 . S
C1202 C1203 1.366 . S
C1202 C1204 1.388 . S
C1203 C1202 1.366 . S
C1203 C1207 1.385 . S
C1204 H1185 0.951 . S
C1204 C1202 1.388 . S
C1204 C1205 1.366 . S
C1205 C1204 1.366 . S
C1205 C1206 1.414 . S
C1205 C1208 1.499 . S
C1206 H1186 0.950 . S
C1206 C1205 1.414 . S
C1206 C1207 1.374 . S
C1207 H1187 0.950 . S
C1207 C1203 1.385 . S
C1207 C1206 1.374 . S
C1208 C1205 1.499 . S
C1208 C1209 1.373 . S
C1208 C1210 1.389 . S
C1209 H1188 0.950 . S
C1209 C1208 1.373 . S
C1209 C1225 1.377 . S
C1210 C1208 1.389 . S
C1210 C1211 1.524 . S
C1210 C1224 1.377 . S
C1211 C1210 1.524 . S
C1211 C1212 1.397 . S
C1211 C1216 1.363 . S
C1212 H1189 0.950 . S
C1212 C1211 1.397 . S
C1212 C1213 1.334 . S
C1213 H1190 0.950 . S
C1213 C1212 1.334 . S
C1213 C1214 1.287 . S
C1214 C1213 1.287 . S
C1214 C1215 1.524 . S
C1214 H1233 0.913 . S
C1215 H1191 0.950 . S
C1215 C1214 1.524 . S
C1215 C1216 1.415 . S
C1216 H1192 0.950 . S
C1216 C1211 1.363 . S
C1216 C1215 1.415 . S
C1217 H1193 0.951 . S
C1217 C1218 1.366 . S
C1217 C1219 1.388 . S
C1218 C1217 1.366 . S
C1218 C1222 1.385 . S
C1219 H1194 0.951 . S
C1219 C1217 1.388 . S
C1219 C1220 1.366 . S
C1220 C1219 1.366 . S
C1220 C1221 1.414 . S
C1220 C1223 1.499 . S
C1221 H1195 0.950 . S
C1221 C1220 1.414 . S
C1221 C1222 1.374 . S
C1222 H1196 0.950 . S
C1222 C1218 1.385 . S
C1222 C1221 1.374 . S
C1223 C1220 1.499 . S
C1223 C1224 1.373 . S
C1223 C1225 1.389 . S
C1224 H1197 0.950 . S
C1224 C1210 1.377 . S
C1224 C1223 1.373 . S
C1225 C1209 1.377 . S
C1225 C1223 1.389 . S
C1225 C1226 1.524 . S
C1226 C1225 1.524 . S
C1226 C1227 1.397 . S
C1226 C1231 1.363 . S
C1227 H1198 0.950 . S
C1227 C1226 1.397 . S
C1227 C1228 1.334 . S
C1228 H1199 0.950 . S
C1228 C1227 1.334 . S
C1228 C1229 1.287 . S
C1229 C1228 1.287 . S
C1229 C1230 1.524 . S
C1229 H1232 0.999 . S
C1230 H1200 0.950 . S
C1230 C1229 1.524 . S
C1230 C1231 1.415 . S
C1231 H1201 0.950 . S
C1231 C1226 1.363 . S
C1231 C1230 1.415 . S
H1232 C1229 0.999 . S
H1233 C1214 0.913 . S
H1234 C1252 0.951 . S
H1235 C1254 0.951 . S
H1236 C1256 0.950 . S
H1237 C1257 0.950 . S
H1238 C1259 0.950 . S
H1239 C1262 0.950 . S
H1240 C1263 0.950 . S
H1241 C1265 0.950 . S
H1242 C1266 0.950 . S
H1243 C1267 0.951 . S
H1244 C1269 0.951 . S
H1245 C1271 0.950 . S
H1246 C1272 0.950 . S
H1247 C1274 0.950 . S
H1248 C1277 0.950 . S
H1249 C1278 0.950 . S
H1250 C1280 0.950 . S
H1251 C1281 0.950 . S
C1252 H1234 0.951 . S
C1252 C1253 1.366 . S
C1252 C1254 1.388 . S
C1253 C1252 1.366 . S
C1253 C1257 1.385 . S
C1254 H1235 0.951 . S
C1254 C1252 1.388 . S
C1254 C1255 1.366 . S
C1255 C1254 1.366 . S
C1255 C1256 1.414 . S
C1255 C1258 1.499 . S
C1256 H1236 0.950 . S
C1256 C1255 1.414 . S
C1256 C1257 1.374 . S
C1257 H1237 0.950 . S
C1257 C1253 1.385 . S
C1257 C1256 1.374 . S
C1258 C1255 1.499 . S
C1258 C1259 1.373 . S
C1258 C1260 1.389 . S
C1259 H1238 0.950 . S
C1259 C1258 1.373 . S
C1259 C1275 1.377 . S
C1260 C1258 1.389 . S
C1260 C1261 1.524 . S
C1260 C1274 1.377 . S
C1261 C1260 1.524 . S
C1261 C1262 1.397 . S
C1261 C1266 1.363 . S
C1262 H1239 0.950 . S
C1262 C1261 1.397 . S
C1262 C1263 1.334 . S
C1263 H1240 0.950 . S
C1263 C1262 1.334 . S
C1263 C1264 1.287 . S
C1264 C1263 1.287 . S
C1264 C1265 1.524 . S
C1264 H1283 0.913 . S
C1265 H1241 0.950 . S
C1265 C1264 1.524 . S
C1265 C1266 1.415 . S
C1266 H1242 0.950 . S
C1266 C1261 1.363 . S
C1266 C1265 1.415 . S
C1267 H1243 0.951 . S
C1267 C1268 1.366 . S
C1267 C1269 1.388 . S
C1268 C1267 1.366 . S
C1268 C1272 1.385 . S
C1269 H1244 0.951 . S
C1269 C1267 1.388 . S
C1269 C1270 1.366 . S
C1270 C1269 1.366 . S
C1270 C1271 1.414 . S
C1270 C1273 1.499 . S
C1271 H1245 0.950 . S
C1271 C1270 1.414 . S
C1271 C1272 1.374 . S
C1272 H1246 0.950 . S
C1272 C1268 1.385 . S
C1272 C1271 1.374 . S
C1273 C1270 1.499 . S
C1273 C1274 1.373 . S
C1273 C1275 1.389 . S
C1274 H1247 0.950 . S
C1274 C1260 1.377 . S
C1274 C1273 1.373 . S
C1275 C1259 1.377 . S
C1275 C1273 1.389 . S
C1275 C1276 1.524 . S
C1276 C1275 1.524 . S
C1276 C1277 1.397 . S
C1276 C1281 1.363 . S
C1277 H1248 0.950 . S
C1277 C1276 1.397 . S
C1277 C1278 1.334 . S
C1278 H1249 0.950 . S
C1278 C1277 1.334 . S
C1278 C1279 1.287 . S
C1279 C1278 1.287 . S
C1279 C1280 1.524 . S
C1279 H1282 0.999 . S
C1280 H1250 0.950 . S
C1280 C1279 1.524 . S
C1280 C1281 1.415 . S
C1281 H1251 0.950 . S
C1281 C1276 1.363 . S
C1281 C1280 1.415 . S
H1282 C1279 0.999 . S
H1283 C1264 0.913 . S
H1284 C1302 0.951 . S
H1285 C1304 0.951 . S
H1286 C1306 0.950 . S
H1287 C1307 0.950 . S
H1288 C1309 0.950 . S
H1289 C1312 0.950 . S
H1290 C1313 0.950 . S
H1291 C1315 0.950 . S
H1292 C1316 0.950 . S
H1293 C1317 0.951 . S
H1294 C1319 0.951 . S
H1295 C1321 0.950 . S
H1296 C1322 0.950 . S
H1297 C1324 0.950 . S
H1298 C1327 0.950 . S
H1299 C1328 0.950 . S
H1300 C1330 0.950 . S
H1301 C1331 0.950 . S
C1302 H1284 0.951 . S
C1302 C1303 1.366 . S
C1302 C1304 1.388 . S
C1303 C1302 1.366 . S
C1303 C1307 1.385 . S
C1304 H1285 0.951 . S
C1304 C1302 1.388 . S
C1304 C1305 1.366 . S
C1305 C1304 1.366 . S
C1305 C1306 1.414 . S
C1305 C1308 1.499 . S
C1306 H1286 0.950 . S
C1306 C1305 1.414 . S
C1306 C1307 1.374 . S
C1307 H1287 0.950 . S
C1307 C1303 1.385 . S
C1307 C1306 1.374 . S
C1308 C1305 1.499 . S
C1308 C1309 1.373 . S
C1308 C1310 1.389 . S
C1309 H1288 0.950 . S
C1309 C1308 1.373 . S
C1309 C1325 1.377 . S
C1310 C1308 1.389 . S
C1310 C1311 1.524 . S
C1310 C1324 1.377 . S
C1311 C1310 1.524 . S
C1311 C1312 1.397 . S
C1311 C1316 1.363 . S
C1312 H1289 0.950 . S
C1312 C1311 1.397 . S
C1312 C1313 1.334 . S
C1313 H1290 0.950 . S
C1313 C1312 1.334 . S
C1313 C1314 1.287 . S
C1314 C1313 1.287 . S
C1314 C1315 1.524 . S
C1314 H1333 0.913 . S
C1315 H1291 0.950 . S
C1315 C1314 1.524 . S
C1315 C1316 1.415 . S
C1316 H1292 0.950 . S
C1316 C1311 1.363 . S
C1316 C1315 1.415 . S
C1317 H1293 0.951 . S
C1317 C1318 1.366 . S
C1317 C1319 1.388 . S
C1318 C1317 1.366 . S
C1318 C1322 1.385 . S
C1319 H1294 0.951 . S
C1319 C1317 1.388 . S
C1319 C1320 1.366 . S
C1320 C1319 1.366 . S
C1320 C1321 1.414 . S
C1320 C1323 1.499 . S
C1321 H1295 0.950 . S
C1321 C1320 1.414 . S
C1321 C1322 1.374 . S
C1322 H1296 0.950 . S
C1322 C1318 1.385 . S
C1322 C1321 1.374 . S
C1323 C1320 1.499 . S
C1323 C1324 1.373 . S
C1323 C1325 1.389 . S
C1324 H1297 0.950 . S
C1324 C1310 1.377 . S
C1324 C1323 1.373 . S
C1325 C1309 1.377 . S
C1325 C1323 1.389 . S
C1325 C1326 1.524 . S
C1326 C1325 1.524 . S
C1326 C1327 1.397 . S
C1326 C1331 1.363 . S
C1327 H1298 0.950 . S
C1327 C1326 1.397 . S
C1327 C1328 1.334 . S
C1328 H1299 0.950 . S
C1328 C1327 1.334 . S
C1328 C1329 1.287 . S
C1329 C1328 1.287 . S
C1329 C1330 1.524 . S
C1329 H1332 0.999 . S
C1330 H1300 0.950 . S
C1330 C1329 1.524 . S
C1330 C1331 1.415 . S
C1331 H1301 0.950 . S
C1331 C1326 1.363 . S
C1331 C1330 1.415 . S
H1332 C1329 0.999 . S
H1333 C1314 0.913 . S
H1334 C1352 0.951 . S
H1335 C1354 0.951 . S
H1336 C1356 0.950 . S
H1337 C1357 0.950 . S
H1338 C1359 0.950 . S
H1339 C1362 0.950 . S
H1340 C1363 0.950 . S
H1341 C1365 0.950 . S
H1342 C1366 0.950 . S
H1343 C1367 0.951 . S
H1344 C1369 0.951 . S
H1345 C1371 0.950 . S
H1346 C1372 0.950 . S
H1347 C1374 0.950 . S
H1348 C1377 0.950 . S
H1349 C1378 0.950 . S
H1350 C1380 0.950 . S
H1351 C1381 0.950 . S
C1352 H1334 0.951 . S
C1352 C1353 1.366 . S
C1352 C1354 1.388 . S
C1353 C1352 1.366 . S
C1353 C1357 1.385 . S
C1354 H1335 0.951 . S
C1354 C1352 1.388 . S
C1354 C1355 1.366 . S
C1355 C1354 1.366 . S
C1355 C1356 1.414 . S
C1355 C1358 1.499 . S
C1356 H1336 0.950 . S
C1356 C1355 1.414 . S
C1356 C1357 1.374 . S
C1357 H1337 0.950 . S
C1357 C1353 1.385 . S
C1357 C1356 1.374 . S
C1358 C1355 1.499 . S
C1358 C1359 1.373 . S
C1358 C1360 1.389 . S
C1359 H1338 0.950 . S
C1359 C1358 1.373 . S
C1359 C1375 1.377 . S
C1360 C1358 1.389 . S
C1360 C1361 1.524 . S
C1360 C1374 1.377 . S
C1361 C1360 1.524 . S
C1361 C1362 1.397 . S
C1361 C1366 1.363 . S
C1362 H1339 0.950 . S
C1362 C1361 1.397 . S
C1362 C1363 1.334 . S
C1363 H1340 0.950 . S
C1363 C1362 1.334 . S
C1363 C1364 1.287 . S
C1364 C1363 1.287 . S
C1364 C1365 1.524 . S
C1364 H1383 0.913 . S
C1365 H1341 0.950 . S
C1365 C1364 1.524 . S
C1365 C1366 1.415 . S
C1366 H1342 0.950 . S
C1366 C1361 1.363 . S
C1366 C1365 1.415 . S
C1367 H1343 0.951 . S
C1367 C1368 1.366 . S
C1367 C1369 1.388 . S
C1368 C1367 1.366 . S
C1368 C1372 1.385 . S
C1369 H1344 0.951 . S
C1369 C1367 1.388 . S
C1369 C1370 1.366 . S
C1370 C1369 1.366 . S
C1370 C1371 1.414 . S
C1370 C1373 1.499 . S
C1371 H1345 0.950 . S
C1371 C1370 1.414 . S
C1371 C1372 1.374 . S
C1372 H1346 0.950 . S
C1372 C1368 1.385 . S
C1372 C1371 1.374 . S
C1373 C1370 1.499 . S
C1373 C1374 1.373 . S
C1373 C1375 1.389 . S
C1374 H1347 0.950 . S
C1374 C1360 1.377 . S
C1374 C1373 1.373 . S
C1375 C1359 1.377 . S
C1375 C1373 1.389 . S
C1375 C1376 1.524 . S
C1376 C1375 1.524 . S
C1376 C1377 1.397 . S
C1376 C1381 1.363 . S
C1377 H1348 0.950 . S
C1377 C1376 1.397 . S
C1377 C1378 1.334 . S
C1378 H1349 0.950 . S
C1378 C1377 1.334 . S
C1378 C1379 1.287 . S
C1379 C1378 1.287 . S
C1379 C1380 1.524 . S
C1379 H1382 0.999 . S
C1380 H1350 0.950 . S
C1380 C1379 1.524 . S
C1380 C1381 1.415 . S
C1381 H1351 0.950 . S
C1381 C1376 1.363 . S
C1381 C1380 1.415 . S
H1382 C1379 0.999 . S
H1383 C1364 0.913 . S
H1384 C1402 0.951 . S
H1385 C1404 0.951 . S
H1386 C1406 0.950 . S
H1387 C1407 0.950 . S
H1388 C1409 0.950 . S
H1389 C1412 0.950 . S
H1390 C1413 0.950 . S
H1391 C1415 0.950 . S
H1392 C1416 0.950 . S
H1393 C1417 0.951 . S
H1394 C1419 0.951 . S
H1395 C1421 0.950 . S
H1396 C1422 0.950 . S
H1397 C1424 0.950 . S
H1398 C1427 0.950 . S
H1399 C1428 0.950 . S
H1400 C1430 0.950 . S
H1401 C1431 0.950 . S
C1402 H1384 0.951 . S
C1402 C1403 1.366 . S
C1402 C1404 1.388 . S
C1403 C1402 1.366 . S
C1403 C1407 1.385 . S
C1404 H1385 0.951 . S
C1404 C1402 1.388 . S
C1404 C1405 1.366 . S
C1405 C1404 1.366 . S
C1405 C1406 1.414 . S
C1405 C1408 1.499 . S
C1406 H1386 0.950 . S
C1406 C1405 1.414 . S
C1406 C1407 1.374 . S
C1407 H1387 0.950 . S
C1407 C1403 1.385 . S
C1407 C1406 1.374 . S
C1408 C1405 1.499 . S
C1408 C1409 1.373 . S
C1408 C1410 1.389 . S
C1409 H1388 0.950 . S
C1409 C1408 1.373 . S
C1409 C1425 1.377 . S
C1410 C1408 1.389 . S
C1410 C1411 1.524 . S
C1410 C1424 1.377 . S
C1411 C1410 1.524 . S
C1411 C1412 1.397 . S
C1411 C1416 1.363 . S
C1412 H1389 0.950 . S
C1412 C1411 1.397 . S
C1412 C1413 1.334 . S
C1413 H1390 0.950 . S
C1413 C1412 1.334 . S
C1413 C1414 1.287 . S
C1414 C1413 1.287 . S
C1414 C1415 1.524 . S
C1414 H1433 0.913 . S
C1415 H1391 0.950 . S
C1415 C1414 1.524 . S
C1415 C1416 1.415 . S
C1416 H1392 0.950 . S
C1416 C1411 1.363 . S
C1416 C1415 1.415 . S
C1417 H1393 0.951 . S
C1417 C1418 1.366 . S
C1417 C1419 1.388 . S
C1418 C1417 1.366 . S
C1418 C1422 1.385 . S
C1419 H1394 0.951 . S
C1419 C1417 1.388 . S
C1419 C1420 1.366 . S
C1420 C1419 1.366 . S
C1420 C1421 1.414 . S
C1420 C1423 1.499 . S
C1421 H1395 0.950 . S
C1421 C1420 1.414 . S
C1421 C1422 1.374 . S
C1422 H1396 0.950 . S
C1422 C1418 1.385 . S
C1422 C1421 1.374 . S
C1423 C1420 1.499 . S
C1423 C1424 1.373 . S
C1423 C1425 1.389 . S
C1424 H1397 0.950 . S
C1424 C1410 1.377 . S
C1424 C1423 1.373 . S
C1425 C1409 1.377 . S
C1425 C1423 1.389 . S
C1425 C1426 1.524 . S
C1426 C1425 1.524 . S
C1426 C1427 1.397 . S
C1426 C1431 1.363 . S
C1427 H1398 0.950 . S
C1427 C1426 1.397 . S
C1427 C1428 1.334 . S
C1428 H1399 0.950 . S
C1428 C1427 1.334 . S
C1428 C1429 1.287 . S
C1429 C1428 1.287 . S
C1429 C1430 1.524 . S
C1429 H1432 0.999 . S
C1430 H1400 0.950 . S
C1430 C1429 1.524 . S
C1430 C1431 1.415 . S
C1431 H1401 0.950 . S
C1431 C1426 1.363 . S
C1431 C1430 1.415 . S
H1432 C1429 0.999 . S
H1433 C1414 0.913 . S
H1434 C1452 0.951 . S
H1435 C1454 0.951 . S
H1436 C1456 0.950 . S
H1437 C1457 0.950 . S
H1438 C1459 0.950 . S
H1439 C1462 0.950 . S
H1440 C1463 0.950 . S
H1441 C1465 0.950 . S
H1442 C1466 0.950 . S
H1443 C1467 0.951 . S
H1444 C1469 0.951 . S
H1445 C1471 0.950 . S
H1446 C1472 0.950 . S
H1447 C1474 0.950 . S
H1448 C1477 0.950 . S
H1449 C1478 0.950 . S
H1450 C1480 0.950 . S
H1451 C1481 0.950 . S
C1452 H1434 0.951 . S
C1452 C1453 1.366 . S
C1452 C1454 1.388 . S
C1453 C1452 1.366 . S
C1453 C1457 1.385 . S
C1454 H1435 0.951 . S
C1454 C1452 1.388 . S
C1454 C1455 1.366 . S
C1455 C1454 1.366 . S
C1455 C1456 1.414 . S
C1455 C1458 1.499 . S
C1456 H1436 0.950 . S
C1456 C1455 1.414 . S
C1456 C1457 1.374 . S
C1457 H1437 0.950 . S
C1457 C1453 1.385 . S
C1457 C1456 1.374 . S
C1458 C1455 1.499 . S
C1458 C1459 1.373 . S
C1458 C1460 1.389 . S
C1459 H1438 0.950 . S
C1459 C1458 1.373 . S
C1459 C1475 1.377 . S
C1460 C1458 1.389 . S
C1460 C1461 1.524 . S
C1460 C1474 1.377 . S
C1461 C1460 1.524 . S
C1461 C1462 1.397 . S
C1461 C1466 1.363 . S
C1462 H1439 0.950 . S
C1462 C1461 1.397 . S
C1462 C1463 1.334 . S
C1463 H1440 0.950 . S
C1463 C1462 1.334 . S
C1463 C1464 1.287 . S
C1464 C1463 1.287 . S
C1464 C1465 1.524 . S
C1464 H1483 0.913 . S
C1465 H1441 0.950 . S
C1465 C1464 1.524 . S
C1465 C1466 1.415 . S
C1466 H1442 0.950 . S
C1466 C1461 1.363 . S
C1466 C1465 1.415 . S
C1467 H1443 0.951 . S
C1467 C1468 1.366 . S
C1467 C1469 1.388 . S
C1468 C1467 1.366 . S
C1468 C1472 1.385 . S
C1469 H1444 0.951 . S
C1469 C1467 1.388 . S
C1469 C1470 1.366 . S
C1470 C1469 1.366 . S
C1470 C1471 1.414 . S
C1470 C1473 1.499 . S
C1471 H1445 0.950 . S
C1471 C1470 1.414 . S
C1471 C1472 1.374 . S
C1472 H1446 0.950 . S
C1472 C1468 1.385 . S
C1472 C1471 1.374 . S
C1473 C1470 1.499 . S
C1473 C1474 1.373 . S
C1473 C1475 1.389 . S
C1474 H1447 0.950 . S
C1474 C1460 1.377 . S
C1474 C1473 1.373 . S
C1475 C1459 1.377 . S
C1475 C1473 1.389 . S
C1475 C1476 1.524 . S
C1476 C1475 1.524 . S
C1476 C1477 1.397 . S
C1476 C1481 1.363 . S
C1477 H1448 0.950 . S
C1477 C1476 1.397 . S
C1477 C1478 1.334 . S
C1478 H1449 0.950 . S
C1478 C1477 1.334 . S
C1478 C1479 1.287 . S
C1479 C1478 1.287 . S
C1479 C1480 1.524 . S
C1479 H1482 0.999 . S
C1480 H1450 0.950 . S
C1480 C1479 1.524 . S
C1480 C1481 1.415 . S
C1481 H1451 0.950 . S
C1481 C1476 1.363 . S
C1481 C1480 1.415 . S
H1482 C1479 0.999 . S
H1483 C1464 0.913 . S
H1484 C1502 0.951 . S
H1485 C1504 0.951 . S
H1486 C1506 0.950 . S
H1487 C1507 0.950 . S
H1488 C1509 0.950 . S
H1489 C1512 0.950 . S
H1490 C1513 0.950 . S
H1491 C1515 0.950 . S
H1492 C1516 0.950 . S
H1493 C1517 0.951 . S
H1494 C1519 0.951 . S
H1495 C1521 0.950 . S
H1496 C1522 0.950 . S
H1497 C1524 0.950 . S
H1498 C1527 0.950 . S
H1499 C1528 0.950 . S
H1500 C1530 0.950 . S
H1501 C1531 0.950 . S
C1502 H1484 0.951 . S
C1502 C1503 1.366 . S
C1502 C1504 1.388 . S
C1503 C1502 1.366 . S
C1503 C1507 1.385 . S
C1504 H1485 0.951 . S
C1504 C1502 1.388 . S
C1504 C1505 1.366 . S
C1505 C1504 1.366 . S
C1505 C1506 1.414 . S
C1505 C1508 1.499 . S
C1506 H1486 0.950 . S
C1506 C1505 1.414 . S
C1506 C1507 1.374 . S
C1507 H1487 0.950 . S
C1507 C1503 1.385 . S
C1507 C1506 1.374 . S
C1508 C1505 1.499 . S
C1508 C1509 1.373 . S
C1508 C1510 1.389 . S
C1509 H1488 0.950 . S
C1509 C1508 1.373 . S
C1509 C1525 1.377 . S
C1510 C1508 1.389 . S
C1510 C1511 1.524 . S
C1510 C1524 1.377 . S
C1511 C1510 1.524 . S
C1511 C1512 1.397 . S
C1511 C1516 1.363 . S
C1512 H1489 0.950 . S
C1512 C1511 1.397 . S
C1512 C1513 1.334 . S
C1513 H1490 0.950 . S
C1513 C1512 1.334 . S
C1513 C1514 1.287 . S
C1514 C1513 1.287 . S
C1514 C1515 1.524 . S
C1514 H1533 0.913 . S
C1515 H1491 0.950 . S
C1515 C1514 1.524 . S
C1515 C1516 1.415 . S
C1516 H1492 0.950 . S
C1516 C1511 1.363 . S
C1516 C1515 1.415 . S
C1517 H1493 0.951 . S
C1517 C1518 1.366 . S
C1517 C1519 1.388 . S
C1518 C1517 1.366 . S
C1518 C1522 1.385 . S
C1519 H1494 0.951 . S
C1519 C1517 1.388 . S
C1519 C1520 1.366 . S
C1520 C1519 1.366 . S
C1520 C1521 1.414 . S
C1520 C1523 1.499 . S
C1521 H1495 0.950 . S
C1521 C1520 1.414 . S
C1521 C1522 1.374 . S
C1522 H1496 0.950 . S
C1522 C1518 1.385 . S
C1522 C1521 1.374 . S
C1523 C1520 1.499 . S
C1523 C1524 1.373 . S
C1523 C1525 1.389 . S
C1524 H1497 0.950 . S
C1524 C1510 1.377 . S
C1524 C1523 1.373 . S
C1525 C1509 1.377 . S
C1525 C1523 1.389 . S
C1525 C1526 1.524 . S
C1526 C1525 1.524 . S
C1526 C1527 1.397 . S
C1526 C1531 1.363 . S
C1527 H1498 0.950 . S
C1527 C1526 1.397 . S
C1527 C1528 1.334 . S
C1528 H1499 0.950 . S
C1528 C1527 1.334 . S
C1528 C1529 1.287 . S
C1529 C1528 1.287 . S
C1529 C1530 1.524 . S
C1529 H1532 0.999 . S
C1530 H1500 0.950 . S
C1530 C1529 1.524 . S
C1530 C1531 1.415 . S
C1531 H1501 0.950 . S
C1531 C1526 1.363 . S
C1531 C1530 1.415 . S
H1532 C1529 0.999 . S
H1533 C1514 0.913 . S
H1534 C1552 0.951 . S
H1535 C1554 0.951 . S
H1536 C1556 0.950 . S
H1537 C1557 0.950 . S
H1538 C1559 0.950 . S
H1539 C1562 0.950 . S
H1540 C1563 0.950 . S
H1541 C1565 0.950 . S
H1542 C1566 0.950 . S
H1543 C1567 0.951 . S
H1544 C1569 0.951 . S
H1545 C1571 0.950 . S
H1546 C1572 0.950 . S
H1547 C1574 0.950 . S
H1548 C1577 0.950 . S
H1549 C1578 0.950 . S
H1550 C1580 0.950 . S
H1551 C1581 0.950 . S
C1552 H1534 0.951 . S
C1552 C1553 1.366 . S
C1552 C1554 1.388 . S
C1553 C1552 1.366 . S
C1553 C1557 1.385 . S
C1554 H1535 0.951 . S
C1554 C1552 1.388 . S
C1554 C1555 1.366 . S
C1555 C1554 1.366 . S
C1555 C1556 1.414 . S
C1555 C1558 1.499 . S
C1556 H1536 0.950 . S
C1556 C1555 1.414 . S
C1556 C1557 1.374 . S
C1557 H1537 0.950 . S
C1557 C1553 1.385 . S
C1557 C1556 1.374 . S
C1558 C1555 1.499 . S
C1558 C1559 1.373 . S
C1558 C1560 1.389 . S
C1559 H1538 0.950 . S
C1559 C1558 1.373 . S
C1559 C1575 1.377 . S
C1560 C1558 1.389 . S
C1560 C1561 1.524 . S
C1560 C1574 1.377 . S
C1561 C1560 1.524 . S
C1561 C1562 1.397 . S
C1561 C1566 1.363 . S
C1562 H1539 0.950 . S
C1562 C1561 1.397 . S
C1562 C1563 1.334 . S
C1563 H1540 0.950 . S
C1563 C1562 1.334 . S
C1563 C1564 1.287 . S
C1564 C1563 1.287 . S
C1564 C1565 1.524 . S
C1564 H1583 0.913 . S
C1565 H1541 0.950 . S
C1565 C1564 1.524 . S
C1565 C1566 1.415 . S
C1566 H1542 0.950 . S
C1566 C1561 1.363 . S
C1566 C1565 1.415 . S
C1567 H1543 0.951 . S
C1567 C1568 1.366 . S
C1567 C1569 1.388 . S
C1568 C1567 1.366 . S
C1568 C1572 1.385 . S
C1569 H1544 0.951 . S
C1569 C1567 1.388 . S
C1569 C1570 1.366 . S
C1570 C1569 1.366 . S
C1570 C1571 1.414 . S
C1570 C1573 1.499 . S
C1571 H1545 0.950 . S
C1571 C1570 1.414 . S
C1571 C1572 1.374 . S
C1572 H1546 0.950 . S
C1572 C1568 1.385 . S
C1572 C1571 1.374 . S
C1573 C1570 1.499 . S
C1573 C1574 1.373 . S
C1573 C1575 1.389 . S
C1574 H1547 0.950 . S
C1574 C1560 1.377 . S
C1574 C1573 1.373 . S
C1575 C1559 1.377 . S
C1575 C1573 1.389 . S
C1575 C1576 1.524 . S
C1576 C1575 1.524 . S
C1576 C1577 1.397 . S
C1576 C1581 1.363 . S
C1577 H1548 0.950 . S
C1577 C1576 1.397 . S
C1577 C1578 1.334 . S
C1578 H1549 0.950 . S
C1578 C1577 1.334 . S
C1578 C1579 1.287 . S
C1579 C1578 1.287 . S
C1579 C1580 1.524 . S
C1579 H1582 0.999 . S
C1580 H1550 0.950 . S
C1580 C1579 1.524 . S
C1580 C1581 1.415 . S
C1581 H1551 0.950 . S
C1581 C1576 1.363 . S
C1581 C1580 1.415 . S
H1582 C1579 0.999 . S
H1583 C1564 0.913 . S
H1584 C1602 0.951 . S
H1585 C1604 0.951 . S
H1586 C1606 0.950 . S
H1587 C1607 0.950 . S
H1588 C1609 0.950 . S
H1589 C1612 0.950 . S
H1590 C1613 0.950 . S
H1591 C1615 0.950 . S
H1592 C1616 0.950 . S
H1593 C1617 0.951 . S
H1594 C1619 0.951 . S
H1595 C1621 0.950 . S
H1596 C1622 0.950 . S
H1597 C1624 0.950 . S
H1598 C1627 0.950 . S
H1599 C1628 0.950 . S
H1600 C1630 0.950 . S
H1601 C1631 0.950 . S
C1602 H1584 0.951 . S
C1602 C1603 1.366 . S
C1602 C1604 1.388 . S
C1603 C1602 1.366 . S
C1603 C1607 1.385 . S
C1604 H1585 0.951 . S
C1604 C1602 1.388 . S
C1604 C1605 1.366 . S
C1605 C1604 1.366 . S
C1605 C1606 1.414 . S
C1605 C1608 1.499 . S
C1606 H1586 0.950 . S
C1606 C1605 1.414 . S
C1606 C1607 1.374 . S
C1607 H1587 0.950 . S
C1607 C1603 1.385 . S
C1607 C1606 1.374 . S
C1608 C1605 1.499 . S
C1608 C1609 1.373 . S
C1608 C1610 1.389 . S
C1609 H1588 0.950 . S
C1609 C1608 1.373 . S
C1609 C1625 1.377 1_554 S
C1610 C1608 1.389 . S
C1610 C1611 1.524 . S
C1610 C1624 1.377 1_554 S
C1611 C1610 1.524 . S
C1611 C1612 1.397 . S
C1611 C1616 1.363 . S
C1612 H1589 0.950 . S
C1612 C1611 1.397 . S
C1612 C1613 1.334 . S
C1613 H1590 0.950 . S
C1613 C1612 1.334 . S
C1613 C1614 1.287 . S
C1614 C1613 1.287 . S
C1614 C1615 1.524 . S
C1614 H1633 0.913 . S
C1615 H1591 0.950 . S
C1615 C1614 1.524 . S
C1615 C1616 1.415 . S
C1616 H1592 0.950 . S
C1616 C1611 1.363 . S
C1616 C1615 1.415 . S
C1617 H1593 0.951 . S
C1617 C1618 1.366 . S
C1617 C1619 1.388 . S
C1618 C1617 1.366 . S
C1618 C1622 1.385 . S
C1619 H1594 0.951 . S
C1619 C1617 1.388 . S
C1619 C1620 1.366 . S
C1620 C1619 1.366 . S
C1620 C1621 1.414 . S
C1620 C1623 1.499 . S
C1621 H1595 0.950 . S
C1621 C1620 1.414 . S
C1621 C1622 1.374 . S
C1622 H1596 0.950 . S
C1622 C1618 1.385 . S
C1622 C1621 1.374 . S
C1623 C1620 1.499 . S
C1623 C1624 1.373 . S
C1623 C1625 1.389 . S
C1624 H1597 0.950 . S
C1624 C1610 1.377 1_556 S
C1624 C1623 1.373 . S
C1625 C1609 1.377 1_556 S
C1625 C1623 1.389 . S
C1625 C1626 1.524 . S
C1626 C1625 1.524 . S
C1626 C1627 1.397 . S
C1626 C1631 1.363 . S
C1627 H1598 0.950 . S
C1627 C1626 1.397 . S
C1627 C1628 1.334 . S
C1628 H1599 0.950 . S
C1628 C1627 1.334 . S
C1628 C1629 1.287 . S
C1629 C1628 1.287 . S
C1629 C1630 1.524 . S
C1629 H1632 0.999 . S
C1630 H1600 0.950 . S
C1630 C1629 1.524 . S
C1630 C1631 1.415 . S
C1631 H1601 0.950 . S
C1631 C1626 1.363 . S
C1631 C1630 1.415 . S
H1632 C1629 0.999 . S
H1633 C1614 0.913 . S
H1634 C1652 0.951 . S
H1635 C1654 0.951 . S
H1636 C1656 0.950 . S
H1637 C1657 0.950 . S
H1638 C1659 0.950 . S
H1639 C1662 0.950 . S
H1640 C1663 0.950 . S
H1641 C1665 0.950 . S
H1642 C1666 0.950 . S
H1643 C1667 0.951 . S
H1644 C1669 0.951 . S
H1645 C1671 0.950 . S
H1646 C1672 0.950 . S
H1647 C1674 0.950 . S
H1648 C1677 0.950 . S
H1649 C1678 0.950 . S
H1650 C1680 0.950 . S
H1651 C1681 0.950 . S
C1652 H1634 0.951 . S
C1652 C1653 1.366 1_565 S
C1652 C1654 1.388 . S
C1653 C1652 1.366 1_545 S
C1653 C1657 1.385 . S
C1654 H1635 0.951 . S
C1654 C1652 1.388 . S
C1654 C1655 1.366 1_565 S
C1655 C1654 1.366 1_545 S
C1655 C1656 1.414 . S
C1655 C1658 1.499 . S
C1656 H1636 0.950 . S
C1656 C1655 1.414 . S
C1656 C1657 1.374 . S
C1657 H1637 0.950 . S
C1657 C1653 1.385 . S
C1657 C1656 1.374 . S
C1658 C1655 1.499 . S
C1658 C1659 1.373 . S
C1658 C1660 1.389 1_545 S
C1659 H1638 0.950 . S
C1659 C1658 1.373 . S
C1659 C1675 1.377 1_556 S
C1660 C1658 1.389 1_565 S
C1660 C1661 1.524 . S
C1660 C1674 1.377 1_556 S
C1661 C1660 1.524 . S
C1661 C1662 1.397 . S
C1661 C1666 1.363 . S
C1662 H1639 0.950 . S
C1662 C1661 1.397 . S
C1662 C1663 1.334 . S
C1663 H1640 0.950 . S
C1663 C1662 1.334 . S
C1663 C1664 1.287 . S
C1664 C1663 1.287 . S
C1664 C1665 1.524 . S
C1664 H1683 0.913 . S
C1665 H1641 0.950 . S
C1665 C1664 1.524 . S
C1665 C1666 1.415 . S
C1666 H1642 0.950 . S
C1666 C1661 1.363 . S
C1666 C1665 1.415 . S
C1667 H1643 0.951 . S
C1667 C1668 1.366 . S
C1667 C1669 1.388 . S
C1668 C1667 1.366 . S
C1668 C1672 1.385 1_545 S
C1669 H1644 0.951 . S
C1669 C1667 1.388 . S
C1669 C1670 1.366 . S
C1670 C1669 1.366 . S
C1670 C1671 1.414 1_545 S
C1670 C1673 1.499 . S
C1671 H1645 0.950 . S
C1671 C1670 1.414 1_565 S
C1671 C1672 1.374 . S
C1672 H1646 0.950 . S
C1672 C1668 1.385 1_565 S
C1672 C1671 1.374 . S
C1673 C1670 1.499 . S
C1673 C1674 1.373 1_545 S
C1673 C1675 1.389 . S
C1674 H1647 0.950 . S
C1674 C1660 1.377 1_554 S
C1674 C1673 1.373 1_565 S
C1675 C1659 1.377 1_554 S
C1675 C1673 1.389 . S
C1675 C1676 1.524 . S
C1676 C1675 1.524 . S
C1676 C1677 1.397 . S
C1676 C1681 1.363 . S
C1677 H1648 0.950 . S
C1677 C1676 1.397 . S
C1677 C1678 1.334 . S
C1678 H1649 0.950 . S
C1678 C1677 1.334 . S
C1678 C1679 1.287 . S
C1679 C1678 1.287 . S
C1679 C1680 1.524 . S
C1679 H1682 0.999 . S
C1680 H1650 0.950 . S
C1680 C1679 1.524 . S
C1680 C1681 1.415 . S
C1681 H1651 0.950 . S
C1681 C1676 1.363 . S
C1681 C1680 1.415 . S
H1682 C1679 0.999 . S
H1683 C1664 0.913 . S
H1684 C1702 0.951 . S
H1685 C1704 0.951 . S
H1686 C1706 0.950 . S
H1687 C1707 0.950 . S
H1688 C1709 0.950 . S
H1689 C1712 0.950 . S
H1690 C1713 0.950 . S
H1691 C1715 0.950 . S
H1692 C1716 0.950 . S
H1693 C1717 0.951 . S
H1694 C1719 0.951 . S
H1695 C1721 0.950 1_655 S
H1696 C1722 0.957 1_655 S
H1697 C1724 0.950 . S
H1698 C1727 0.950 . S
H1699 C1728 0.950 . S
H1700 C1730 0.950 . S
H1701 C1731 0.950 . S
C1702 H1684 0.951 . S
C1702 C1703 1.366 1_655 S
C1702 C1704 1.388 . S
C1703 C1702 1.366 1_455 S
C1703 C1707 1.385 . S
C1704 H1685 0.951 . S
C1704 C1702 1.388 . S
C1704 C1705 1.366 1_655 S
C1705 C1704 1.366 1_455 S
C1705 C1706 1.414 . S
C1705 C1708 1.499 . S
C1706 H1686 0.950 . S
C1706 C1705 1.414 . S
C1706 C1707 1.374 . S
C1707 H1687 0.950 . S
C1707 C1703 1.385 . S
C1707 C1706 1.374 . S
C1708 C1705 1.499 . S
C1708 C1709 1.373 . S
C1708 C1710 1.389 1_455 S
C1709 H1688 0.950 . S
C1709 C1708 1.373 . S
C1709 C1725 1.377 1_556 S
C1710 C1708 1.389 1_655 S
C1710 C1711 1.524 . S
C1710 C1724 1.377 1_556 S
C1711 C1710 1.524 . S
C1711 C1712 1.397 . S
C1711 C1716 1.363 . S
C1712 H1689 0.950 . S
C1712 C1711 1.397 . S
C1712 C1713 1.334 . S
C1713 H1690 0.950 . S
C1713 C1712 1.334 . S
C1713 C1714 1.287 . S
C1714 C1713 1.287 . S
C1714 C1715 1.524 . S
C1714 H1733 0.913 . S
C1715 H1691 0.950 . S
C1715 C1714 1.524 . S
C1715 C1716 1.415 . S
C1716 H1692 0.950 . S
C1716 C1711 1.363 . S
C1716 C1715 1.415 . S
C1717 H1693 0.951 . S
C1717 C1718 1.366 . S
C1717 C1719 1.388 . S
C1718 C1717 1.366 . S
C1718 C1722 1.385 . S
C1719 H1694 0.951 . S
C1719 C1717 1.388 . S
C1719 C1720 1.366 . S
C1720 C1719 1.366 . S
C1720 C1721 1.414 . S
C1720 C1723 1.499 . S
C1721 H1695 0.950 1_455 S
C1721 C1720 1.414 . S
C1721 C1722 1.374 . S
C1722 H1696 0.957 1_455 S
C1722 C1718 1.385 . S
C1722 C1721 1.374 . S
C1723 C1720 1.499 . S
C1723 C1724 1.373 1_455 S
C1723 C1725 1.389 . S
C1724 H1697 0.950 . S
C1724 C1710 1.377 1_554 S
C1724 C1723 1.373 1_655 S
C1725 C1709 1.377 1_554 S
C1725 C1723 1.389 . S
C1725 C1726 1.524 . S
C1726 C1725 1.524 . S
C1726 C1727 1.397 . S
C1726 C1731 1.363 . S
C1727 H1698 0.950 . S
C1727 C1726 1.397 . S
C1727 C1728 1.334 . S
C1728 H1699 0.950 . S
C1728 C1727 1.334 . S
C1728 C1729 1.287 . S
C1729 C1728 1.287 . S
C1729 C1730 1.524 . S
C1729 H1732 0.999 . S
C1730 H1700 0.950 . S
C1730 C1729 1.524 . S
C1730 C1731 1.415 . S
C1731 H1701 0.950 . S
C1731 C1726 1.363 . S
C1731 C1730 1.415 . S
H1732 C1729 0.999 . S
H1733 C1714 0.913 . S
H1734 C1752 0.951 . S
H1735 C1754 0.951 . S
H1736 C1756 0.950 . S
H1737 C1757 0.950 . S
H1738 C1759 0.950 . S
H1739 C1762 0.950 . S
H1740 C1763 0.950 . S
H1741 C1765 0.950 . S
H1742 C1766 0.950 . S
H1743 C1767 0.951 . S
H1744 C1769 0.951 . S
H1745 C1771 0.950 . S
H1746 C1772 0.950 . S
H1747 C1774 0.950 . S
H1748 C1777 0.950 . S
H1749 C1778 0.950 . S
H1750 C1780 0.950 . S
H1751 C1781 0.950 . S
C1752 H1734 0.951 . S
C1752 C1753 1.366 . S
C1752 C1754 1.388 . S
C1753 C1752 1.366 . S
C1753 C1757 1.385 . S
C1754 H1735 0.951 . S
C1754 C1752 1.388 . S
C1754 C1755 1.366 . S
C1755 C1754 1.366 . S
C1755 C1756 1.414 . S
C1755 C1758 1.499 . S
C1756 H1736 0.950 . S
C1756 C1755 1.414 . S
C1756 C1757 1.374 . S
C1757 H1737 0.950 . S
C1757 C1753 1.385 . S
C1757 C1756 1.374 . S
C1758 C1755 1.499 . S
C1758 C1759 1.373 . S
C1758 C1760 1.389 . S
C1759 H1738 0.950 . S
C1759 C1758 1.373 . S
C1759 C1775 1.377 . S
C1760 C1758 1.389 . S
C1760 C1761 1.524 . S
C1760 C1774 1.377 . S
C1761 C1760 1.524 . S
C1761 C1762 1.397 . S
C1761 C1766 1.363 . S
C1762 H1739 0.950 . S
C1762 C1761 1.397 . S
C1762 C1763 1.334 . S
C1763 H1740 0.950 . S
C1763 C1762 1.334 . S
C1763 C1764 1.287 . S
C1764 C1763 1.287 . S
C1764 C1765 1.524 . S
C1764 H1783 0.913 . S
C1765 H1741 0.950 . S
C1765 C1764 1.524 . S
C1765 C1766 1.415 . S
C1766 H1742 0.950 . S
C1766 C1761 1.363 . S
C1766 C1765 1.415 . S
C1767 H1743 0.951 . S
C1767 C1768 1.366 . S
C1767 C1769 1.388 . S
C1768 C1767 1.366 . S
C1768 C1772 1.385 . S
C1769 H1744 0.951 . S
C1769 C1767 1.388 . S
C1769 C1770 1.366 . S
C1770 C1769 1.366 . S
C1770 C1771 1.414 . S
C1770 C1773 1.499 . S
C1771 H1745 0.950 . S
C1771 C1770 1.414 . S
C1771 C1772 1.374 . S
C1772 H1746 0.950 . S
C1772 C1768 1.385 . S
C1772 C1771 1.374 . S
C1773 C1770 1.499 . S
C1773 C1774 1.373 . S
C1773 C1775 1.389 . S
C1774 H1747 0.950 . S
C1774 C1760 1.377 . S
C1774 C1773 1.373 . S
C1775 C1759 1.377 . S
C1775 C1773 1.389 . S
C1775 C1776 1.524 . S
C1776 C1775 1.524 . S
C1776 C1777 1.397 . S
C1776 C1781 1.363 . S
C1777 H1748 0.950 . S
C1777 C1776 1.397 . S
C1777 C1778 1.334 . S
C1778 H1749 0.950 . S
C1778 C1777 1.334 . S
C1778 C1779 1.287 . S
C1779 C1778 1.287 . S
C1779 C1780 1.524 . S
C1779 H1782 0.999 . S
C1780 H1750 0.950 . S
C1780 C1779 1.524 . S
C1780 C1781 1.415 . S
C1781 H1751 0.950 . S
C1781 C1776 1.363 . S
C1781 C1780 1.415 . S
H1782 C1779 0.999 . S
H1783 C1764 0.913 . S
H1784 C1802 0.951 . S
H1785 C1804 0.951 . S
H1786 C1806 0.950 . S
H1787 C1807 0.950 . S
H1788 C1809 0.950 . S
H1789 C1812 0.950 . S
H1790 C1813 0.950 . S
H1791 C1815 0.950 . S
H1792 C1816 0.950 . S
H1793 C1817 0.951 . S
H1794 C1819 0.951 . S
H1795 C1821 0.950 . S
H1796 C1822 0.950 . S
H1797 C1824 0.950 . S
H1798 C1827 0.950 . S
H1799 C1828 0.950 . S
H1800 C1830 0.950 . S
H1801 C1831 0.950 . S
C1802 H1784 0.951 . S
C1802 C1803 1.366 . S
C1802 C1804 1.388 . S
C1803 C1802 1.366 . S
C1803 C1807 1.385 . S
C1804 H1785 0.951 . S
C1804 C1802 1.388 . S
C1804 C1805 1.366 . S
C1805 C1804 1.366 . S
C1805 C1806 1.414 . S
C1805 C1808 1.499 . S
C1806 H1786 0.950 . S
C1806 C1805 1.414 . S
C1806 C1807 1.374 . S
C1807 H1787 0.950 . S
C1807 C1803 1.385 . S
C1807 C1806 1.374 . S
C1808 C1805 1.499 . S
C1808 C1809 1.373 . S
C1808 C1810 1.389 . S
C1809 H1788 0.950 . S
C1809 C1808 1.373 . S
C1809 C1825 1.377 . S
C1810 C1808 1.389 . S
C1810 C1811 1.524 . S
C1810 C1824 1.377 . S
C1811 C1810 1.524 . S
C1811 C1812 1.397 . S
C1811 C1816 1.363 . S
C1812 H1789 0.950 . S
C1812 C1811 1.397 . S
C1812 C1813 1.334 . S
C1813 H1790 0.950 . S
C1813 C1812 1.334 . S
C1813 C1814 1.287 . S
C1814 C1813 1.287 . S
C1814 C1815 1.524 . S
C1814 H1833 0.913 . S
C1815 H1791 0.950 . S
C1815 C1814 1.524 . S
C1815 C1816 1.415 . S
C1816 H1792 0.950 . S
C1816 C1811 1.363 . S
C1816 C1815 1.415 . S
C1817 H1793 0.951 . S
C1817 C1818 1.366 . S
C1817 C1819 1.388 . S
C1818 C1817 1.366 . S
C1818 C1822 1.385 . S
C1819 H1794 0.951 . S
C1819 C1817 1.388 . S
C1819 C1820 1.366 . S
C1820 C1819 1.366 . S
C1820 C1821 1.414 . S
C1820 C1823 1.499 . S
C1821 H1795 0.950 . S
C1821 C1820 1.414 . S
C1821 C1822 1.374 . S
C1822 H1796 0.950 . S
C1822 C1818 1.385 . S
C1822 C1821 1.374 . S
C1823 C1820 1.499 . S
C1823 C1824 1.373 . S
C1823 C1825 1.389 . S
C1824 H1797 0.950 . S
C1824 C1810 1.377 . S
C1824 C1823 1.373 . S
C1825 C1809 1.377 . S
C1825 C1823 1.389 . S
C1825 C1826 1.524 . S
C1826 C1825 1.524 . S
C1826 C1827 1.397 . S
C1826 C1831 1.363 . S
C1827 H1798 0.950 . S
C1827 C1826 1.397 . S
C1827 C1828 1.334 . S
C1828 H1799 0.950 . S
C1828 C1827 1.334 . S
C1828 C1829 1.287 . S
C1829 C1828 1.287 . S
C1829 C1830 1.524 . S
C1829 H1832 0.999 . S
C1830 H1800 0.950 . S
C1830 C1829 1.524 . S
C1830 C1831 1.415 . S
C1831 H1801 0.950 . S
C1831 C1826 1.363 . S
C1831 C1830 1.415 . S
H1832 C1829 0.999 . S
H1833 C1814 0.913 . S
H1834 C1852 0.951 . S
H1835 C1854 0.951 . S
H1836 C1856 0.950 . S
H1837 C1857 0.950 . S
H1838 C1859 0.950 . S
H1839 C1862 0.950 . S
H1840 C1863 0.950 . S
H1841 C1865 0.950 . S
H1842 C1866 0.950 . S
H1843 C1867 0.951 . S
H1844 C1869 0.951 . S
H1845 C1871 0.950 . S
H1846 C1872 0.950 . S
H1847 C1874 0.950 . S
H1848 C1877 0.950 . S
H1849 C1878 0.950 . S
H1850 C1880 0.950 . S
H1851 C1881 0.950 . S
C1852 H1834 0.951 . S
C1852 C1853 1.366 . S
C1852 C1854 1.388 . S
C1853 C1852 1.366 . S
C1853 C1857 1.385 . S
C1854 H1835 0.951 . S
C1854 C1852 1.388 . S
C1854 C1855 1.366 . S
C1855 C1854 1.366 . S
C1855 C1856 1.414 . S
C1855 C1858 1.499 . S
C1856 H1836 0.950 . S
C1856 C1855 1.414 . S
C1856 C1857 1.374 . S
C1857 H1837 0.950 . S
C1857 C1853 1.385 . S
C1857 C1856 1.374 . S
C1858 C1855 1.499 . S
C1858 C1859 1.373 . S
C1858 C1860 1.389 . S
C1859 H1838 0.950 . S
C1859 C1858 1.373 . S
C1859 C1875 1.377 . S
C1860 C1858 1.389 . S
C1860 C1861 1.524 . S
C1860 C1874 1.377 . S
C1861 C1860 1.524 . S
C1861 C1862 1.397 . S
C1861 C1866 1.363 . S
C1862 H1839 0.950 . S
C1862 C1861 1.397 . S
C1862 C1863 1.334 . S
C1863 H1840 0.950 . S
C1863 C1862 1.334 . S
C1863 C1864 1.287 . S
C1864 C1863 1.287 . S
C1864 C1865 1.524 . S
C1864 H1883 0.913 . S
C1865 H1841 0.950 . S
C1865 C1864 1.524 . S
C1865 C1866 1.415 . S
C1866 H1842 0.950 . S
C1866 C1861 1.363 . S
C1866 C1865 1.415 . S
C1867 H1843 0.951 . S
C1867 C1868 1.366 . S
C1867 C1869 1.388 . S
C1868 C1867 1.366 . S
C1868 C1872 1.385 . S
C1869 H1844 0.951 . S
C1869 C1867 1.388 . S
C1869 C1870 1.366 . S
C1870 C1869 1.366 . S
C1870 C1871 1.414 . S
C1870 C1873 1.499 . S
C1871 H1845 0.950 . S
C1871 C1870 1.414 . S
C1871 C1872 1.374 . S
C1872 H1846 0.950 . S
C1872 C1868 1.385 . S
C1872 C1871 1.374 . S
C1873 C1870 1.499 . S
C1873 C1874 1.373 . S
C1873 C1875 1.389 . S
C1874 H1847 0.950 . S
C1874 C1860 1.377 . S
C1874 C1873 1.373 . S
C1875 C1859 1.377 . S
C1875 C1873 1.389 . S
C1875 C1876 1.524 . S
C1876 C1875 1.524 . S
C1876 C1877 1.397 . S
C1876 C1881 1.363 . S
C1877 H1848 0.950 . S
C1877 C1876 1.397 . S
C1877 C1878 1.334 . S
C1878 H1849 0.950 . S
C1878 C1877 1.334 . S
C1878 C1879 1.287 . S
C1879 C1878 1.287 . S
C1879 C1880 1.524 . S
C1879 H1882 0.999 . S
C1880 H1850 0.950 . S
C1880 C1879 1.524 . S
C1880 C1881 1.415 . S
C1881 H1851 0.950 . S
C1881 C1876 1.363 . S
C1881 C1880 1.415 . S
H1882 C1879 0.999 . S
H1883 C1864 0.913 . S
H1884 C1902 0.951 . S
H1885 C1904 0.951 . S
H1886 C1906 0.950 . S
H1887 C1907 0.950 . S
H1888 C1909 0.950 . S
H1889 C1912 0.950 . S
H1890 C1913 0.950 . S
H1891 C1915 0.950 . S
H1892 C1916 0.950 . S
H1893 C1917 0.951 . S
H1894 C1919 0.951 . S
H1895 C1921 0.950 . S
H1896 C1922 0.950 . S
H1897 C1924 0.950 . S
H1898 C1927 0.950 . S
H1899 C1928 0.950 . S
H1900 C1930 0.950 . S
H1901 C1931 0.950 . S
C1902 H1884 0.951 . S
C1902 C1903 1.366 . S
C1902 C1904 1.388 . S
C1903 C1902 1.366 . S
C1903 C1907 1.385 . S
C1904 H1885 0.951 . S
C1904 C1902 1.388 . S
C1904 C1905 1.366 . S
C1905 C1904 1.366 . S
C1905 C1906 1.414 . S
C1905 C1908 1.499 . S
C1906 H1886 0.950 . S
C1906 C1905 1.414 . S
C1906 C1907 1.374 . S
C1907 H1887 0.950 . S
C1907 C1903 1.385 . S
C1907 C1906 1.374 . S
C1908 C1905 1.499 . S
C1908 C1909 1.373 . S
C1908 C1910 1.389 . S
C1909 H1888 0.950 . S
C1909 C1908 1.373 . S
C1909 C1925 1.377 . S
C1910 C1908 1.389 . S
C1910 C1911 1.524 . S
C1910 C1924 1.377 . S
C1911 C1910 1.524 . S
C1911 C1912 1.397 . S
C1911 C1916 1.363 . S
C1912 H1889 0.950 . S
C1912 C1911 1.397 . S
C1912 C1913 1.334 . S
C1913 H1890 0.950 . S
C1913 C1912 1.334 . S
C1913 C1914 1.287 . S
C1914 C1913 1.287 . S
C1914 C1915 1.524 . S
C1914 H1933 0.913 . S
C1915 H1891 0.950 . S
C1915 C1914 1.524 . S
C1915 C1916 1.415 . S
C1916 H1892 0.950 . S
C1916 C1911 1.363 . S
C1916 C1915 1.415 . S
C1917 H1893 0.951 . S
C1917 C1918 1.366 . S
C1917 C1919 1.388 . S
C1918 C1917 1.366 . S
C1918 C1922 1.385 . S
C1919 H1894 0.951 . S
C1919 C1917 1.388 . S
C1919 C1920 1.366 . S
C1920 C1919 1.366 . S
C1920 C1921 1.414 . S
C1920 C1923 1.499 . S
C1921 H1895 0.950 . S
C1921 C1920 1.414 . S
C1921 C1922 1.374 . S
C1922 H1896 0.950 . S
C1922 C1918 1.385 . S
C1922 C1921 1.374 . S
C1923 C1920 1.499 . S
C1923 C1924 1.373 . S
C1923 C1925 1.389 . S
C1924 H1897 0.950 . S
C1924 C1910 1.377 . S
C1924 C1923 1.373 . S
C1925 C1909 1.377 . S
C1925 C1923 1.389 . S
C1925 C1926 1.524 . S
C1926 C1925 1.524 . S
C1926 C1927 1.397 . S
C1926 C1931 1.363 . S
C1927 H1898 0.950 . S
C1927 C1926 1.397 . S
C1927 C1928 1.334 . S
C1928 H1899 0.950 . S
C1928 C1927 1.334 . S
C1928 C1929 1.287 . S
C1929 C1928 1.287 . S
C1929 C1930 1.524 . S
C1929 H1932 0.999 . S
C1930 H1900 0.950 . S
C1930 C1929 1.524 . S
C1930 C1931 1.415 . S
C1931 H1901 0.950 . S
C1931 C1926 1.363 . S
C1931 C1930 1.415 . S
H1932 C1929 0.999 . S
H1933 C1914 0.913 . S
H1934 C1952 0.951 . S
H1935 C1954 0.951 . S
H1936 C1956 0.950 . S
H1937 C1957 0.950 . S
H1938 C1959 0.950 . S
H1939 C1962 0.950 . S
H1940 C1963 0.950 . S
H1941 C1965 0.950 . S
H1942 C1966 0.950 . S
H1943 C1967 0.951 . S
H1944 C1969 0.951 . S
H1945 C1971 0.950 . S
H1946 C1972 0.950 . S
H1947 C1974 0.950 . S
H1948 C1977 0.950 . S
H1949 C1978 0.950 . S
H1950 C1980 0.950 . S
H1951 C1981 0.950 . S
C1952 H1934 0.951 . S
C1952 C1953 1.366 . S
C1952 C1954 1.388 . S
C1953 C1952 1.366 . S
C1953 C1957 1.385 . S
C1954 H1935 0.951 . S
C1954 C1952 1.388 . S
C1954 C1955 1.366 . S
C1955 C1954 1.366 . S
C1955 C1956 1.414 . S
C1955 C1958 1.499 . S
C1956 H1936 0.950 . S
C1956 C1955 1.414 . S
C1956 C1957 1.374 . S
C1957 H1937 0.950 . S
C1957 C1953 1.385 . S
C1957 C1956 1.374 . S
C1958 C1955 1.499 . S
C1958 C1959 1.373 . S
C1958 C1960 1.389 . S
C1959 H1938 0.950 . S
C1959 C1958 1.373 . S
C1959 C1975 1.377 . S
C1960 C1958 1.389 . S
C1960 C1961 1.524 . S
C1960 C1974 1.377 . S
C1961 C1960 1.524 . S
C1961 C1962 1.397 . S
C1961 C1966 1.363 . S
C1962 H1939 0.950 . S
C1962 C1961 1.397 . S
C1962 C1963 1.334 . S
C1963 H1940 0.950 . S
C1963 C1962 1.334 . S
C1963 C1964 1.287 . S
C1964 C1963 1.287 . S
C1964 C1965 1.524 . S
C1964 H1983 0.913 . S
C1965 H1941 0.950 . S
C1965 C1964 1.524 . S
C1965 C1966 1.415 . S
C1966 H1942 0.950 . S
C1966 C1961 1.363 . S
C1966 C1965 1.415 . S
C1967 H1943 0.951 . S
C1967 C1968 1.366 . S
C1967 C1969 1.388 . S
C1968 C1967 1.366 . S
C1968 C1972 1.385 . S
C1969 H1944 0.951 . S
C1969 C1967 1.388 . S
C1969 C1970 1.366 . S
C1970 C1969 1.366 . S
C1970 C1971 1.414 . S
C1970 C1973 1.499 . S
C1971 H1945 0.950 . S
C1971 C1970 1.414 . S
C1971 C1972 1.374 . S
C1972 H1946 0.950 . S
C1972 C1968 1.385 . S
C1972 C1971 1.374 . S
C1973 C1970 1.499 . S
C1973 C1974 1.373 . S
C1973 C1975 1.389 . S
C1974 H1947 0.950 . S
C1974 C1960 1.377 . S
C1974 C1973 1.373 . S
C1975 C1959 1.377 . S
C1975 C1973 1.389 . S
C1975 C1976 1.524 . S
C1976 C1975 1.524 . S
C1976 C1977 1.397 . S
C1976 C1981 1.363 . S
C1977 H1948 0.950 . S
C1977 C1976 1.397 . S
C1977 C1978 1.334 . S
C1978 H1949 0.950 . S
C1978 C1977 1.334 . S
C1978 C1979 1.287 . S
C1979 C1978 1.287 . S
C1979 C1980 1.524 . S
C1979 H1982 0.999 . S
C1980 H1950 0.950 . S
C1980 C1979 1.524 . S
C1980 C1981 1.415 . S
C1981 H1951 0.950 . S
C1981 C1976 1.363 . S
C1981 C1980 1.415 . S
H1982 C1979 0.999 . S
H1983 C1964 0.913 . S
H1984 C2002 0.951 . S
H1985 C2004 0.951 . S
H1986 C2006 0.950 . S
H1987 C2007 0.950 . S
H1988 C2009 0.950 . S
H1989 C2012 0.950 . S
H1990 C2013 0.950 . S
H1991 C2015 0.950 . S
H1992 C2016 0.950 . S
H1993 C2017 0.951 . S
H1994 C2019 0.951 . S
H1995 C2021 0.950 . S
H1996 C2022 0.950 . S
H1997 C2024 0.950 . S
H1998 C2027 0.950 . S
H1999 C2028 0.950 . S
H2000 C2030 0.950 . S
H2001 C2031 0.950 . S
C2002 H1984 0.951 . S
C2002 C2003 1.366 . S
C2002 C2004 1.388 . S
C2003 C2002 1.366 . S
C2003 C2007 1.385 . S
C2004 H1985 0.951 . S
C2004 C2002 1.388 . S
C2004 C2005 1.366 . S
C2005 C2004 1.366 . S
C2005 C2006 1.414 . S
C2005 C2008 1.499 . S
C2006 H1986 0.950 . S
C2006 C2005 1.414 . S
C2006 C2007 1.374 . S
C2007 H1987 0.950 . S
C2007 C2003 1.385 . S
C2007 C2006 1.374 . S
C2008 C2005 1.499 . S
C2008 C2009 1.373 . S
C2008 C2010 1.389 . S
C2009 H1988 0.950 . S
C2009 C2008 1.373 . S
C2009 C2025 1.377 . S
C2010 C2008 1.389 . S
C2010 C2011 1.524 . S
C2010 C2024 1.377 . S
C2011 C2010 1.524 . S
C2011 C2012 1.397 . S
C2011 C2016 1.363 . S
C2012 H1989 0.950 . S
C2012 C2011 1.397 . S
C2012 C2013 1.334 . S
C2013 H1990 0.950 . S
C2013 C2012 1.334 . S
C2013 C2014 1.287 . S
C2014 C2013 1.287 . S
C2014 C2015 1.524 . S
C2014 H2033 0.913 . S
C2015 H1991 0.950 . S
C2015 C2014 1.524 . S
C2015 C2016 1.415 . S
C2016 H1992 0.950 . S
C2016 C2011 1.363 . S
C2016 C2015 1.415 . S
C2017 H1993 0.951 . S
C2017 C2018 1.366 . S
C2017 C2019 1.388 . S
C2018 C2017 1.366 . S
C2018 C2022 1.385 . S
C2019 H1994 0.951 . S
C2019 C2017 1.388 . S
C2019 C2020 1.366 . S
C2020 C2019 1.366 . S
C2020 C2021 1.414 . S
C2020 C2023 1.499 . S
C2021 H1995 0.950 . S
C2021 C2020 1.414 . S
C2021 C2022 1.374 . S
C2022 H1996 0.950 . S
C2022 C2018 1.385 . S
C2022 C2021 1.374 . S
C2023 C2020 1.499 . S
C2023 C2024 1.373 . S
C2023 C2025 1.389 . S
C2024 H1997 0.950 . S
C2024 C2010 1.377 . S
C2024 C2023 1.373 . S
C2025 C2009 1.377 . S
C2025 C2023 1.389 . S
C2025 C2026 1.524 . S
C2026 C2025 1.524 . S
C2026 C2027 1.397 . S
C2026 C2031 1.363 . S
C2027 H1998 0.950 . S
C2027 C2026 1.397 . S
C2027 C2028 1.334 . S
C2028 H1999 0.950 . S
C2028 C2027 1.334 . S
C2028 C2029 1.287 . S
C2029 C2028 1.287 . S
C2029 C2030 1.524 . S
C2029 H2032 0.999 . S
C2030 H2000 0.950 . S
C2030 C2029 1.524 . S
C2030 C2031 1.415 . S
C2031 H2001 0.950 . S
C2031 C2026 1.363 . S
C2031 C2030 1.415 . S
H2032 C2029 0.999 . S
H2033 C2014 0.913 . S
C253 C134 1.157 . S
C268 C10 1.158 . S
C303 C23 1.159 . S
C318 C147 1.159 . S
C353 C121 1.158 . S
C368 C30 1.158 . S
C403 C192 1.159 . S
C418 C49 1.159 . S
C453 C56 1.158 . S
C468 C166 1.158 . S
C503 C179 1.158 . S
C518 C69 1.158 . S
C553 C88 1.157 . S
C568 C212 1.158 . S
C603 C225 1.159 . S
C618 C101 1.159 . S
C653 C114 1.157 . S
C668 C205 1.157 . S
C703 C3 1.089 . S
C718 C18 1.101 . S
C753 C16 1.090 . S
C768 C29 1.099 . S
C803 C5 1.099 . S
C818 C31 1.090 . S
C853 C68 1.100 . S
C868 C42 1.089 . S
C903 C44 1.100 . S
C918 C57 1.090 . S
C953 C70 1.090 . S
C968 C55 1.099 . S
C1003 C81 1.089 . S
C1018 C96 1.100 . S
C1053 C94 1.089 . S
C1068 C109 1.100 . S
C1103 C83 1.099 . S
C1118 C107 1.090 . S
C1153 C146 1.100 . S
C1168 C122 1.089 . S
C1203 C120 1.100 . S
C1218 C135 1.089 . S
C1253 C133 1.099 . S
C1268 C148 1.090 . S
C1303 C174 1.100 . S
C1318 C159 1.090 . S
C1353 C187 1.100 . S
C1368 C172 1.090 . S
C1403 C161 1.099 . S
C1418 C185 1.090 . S
C1453 C198 1.089 . S
C1468 C224 1.100 . S
C1503 C213 1.089 . S
C1518 C200 1.100 . S
C1553 C226 1.089 . S
C1568 C211 1.100 . S
C1603 C4 1.720 . S
C1618 C43 1.720 . S
C1653 C62 1.720 . S
C1668 C17 1.720 . S
C1703 C75 1.720 . S
C1718 C36 1.720 . S
C1753 C127 1.720 . S
C1768 C82 1.720 . S
C1803 C140 1.720 . S
C1818 C95 1.720 . S
C1853 C108 1.720 . S
C1868 C153 1.720 . S
C1903 C199 1.720 . S
C1918 C160 1.720 . S
C1953 C218 1.720 . S
C1968 C173 1.720 . S
C2003 C231 1.720 . S
C2018 C186 1.720 . S
