# Generated by pormake.
# Topology mdf, (4)-cn, num edge types: 1
# Building blocks:
#     Node 0, Type 0, BuildingBlock: GALJAG_clean_sbu_0, # of connection points: 4
#     Node 1, Type 0, BuildingBlock: GALJAG_clean_sbu_0, # of connection points: 4
#     Node 2, Type 0, BuildingBlock: GALJAG_clean_sbu_0, # of connection points: 4
#     Node 3, Type 0, BuildingBlock: GALJAG_clean_sbu_0, # of connection points: 4
#     Node 4, Type 0, BuildingBlock: GALJAG_clean_sbu_0, # of connection points: 4
#     Node 5, Type 0, BuildingBlock: GALJAG_clean_sbu_0, # of connection points: 4
#     Node 6, Type 0, BuildingBlock: GALJAG_clean_sbu_0, # of connection points: 4
#     Node 7, Type 0, BuildingBlock: GALJAG_clean_sbu_0, # of connection points: 4
#     Edge 8, Type (0, 0), BuildingBlock: FUNLAD_clean_linker_0, # of connection points: 2
#     Edge 9, Type (0, 0), BuildingBlock: FUNLAD_clean_linker_0, # of connection points: 2
#     Edge 10, Type (0, 0), BuildingBlock: FUNLAD_clean_linker_0, # of connection points: 2
#     Edge 11, Type (0, 0), BuildingBlock: FUNLAD_clean_linker_0, # of connection points: 2
#     Edge 12, Type (0, 0), BuildingBlock: FUNLAD_clean_linker_0, # of connection points: 2
#     Edge 13, Type (0, 0), BuildingBlock: FUNLAD_clean_linker_0, # of connection points: 2
#     Edge 14, Type (0, 0), BuildingBlock: FUNLAD_clean_linker_0, # of connection points: 2
#     Edge 15, Type (0, 0), BuildingBlock: FUNLAD_clean_linker_0, # of connection points: 2
#     Edge 16, Type (0, 0), BuildingBlock: FUNLAD_clean_linker_0, # of connection points: 2
#     Edge 17, Type (0, 0), BuildingBlock: FUNLAD_clean_linker_0, # of connection points: 2
#     Edge 18, Type (0, 0), BuildingBlock: FUNLAD_clean_linker_0, # of connection points: 2
#     Edge 19, Type (0, 0), BuildingBlock: FUNLAD_clean_linker_0, # of connection points: 2
#     Edge 20, Type (0, 0), BuildingBlock: FUNLAD_clean_linker_0, # of connection points: 2
#     Edge 21, Type (0, 0), BuildingBlock: FUNLAD_clean_linker_0, # of connection points: 2
#     Edge 22, Type (0, 0), BuildingBlock: FUNLAD_clean_linker_0, # of connection points: 2
#     Edge 23, Type (0, 0), BuildingBlock: FUNLAD_clean_linker_0, # of connection points: 2
# Relax obj value: 0.054
# Max RMSD: 0.086
# Mean RMSD: 0.086
data_MOF--net-mdf--node1-GALJAG_clean_sbu_0--edge1-FUNLAD_clean_linker_0
_symmetry_space_group_name_H-M    P1
_symmetry_Int_Tables_number       1
_symmetry_cell_setting            triclinic
loop_
_symmetry_equiv_pos_as_xyz
'x, y, z'
_cell_length_a     45.82863
_cell_length_b     45.617757
_cell_length_c     12.540443
_cell_angle_alpha  90.198815
_cell_angle_beta   90.216539
_cell_angle_gamma 89.849326
loop_
_atom_site_label
_atom_site_type_symbol
_atom_site_fract_x
_atom_site_fract_y
_atom_site_fract_z
_atom_type_partial_charge
In0 In 0.24453 0.52139 0.39037 0.0
O1 O 0.25628 0.54257 0.23111 0.0
O2 O 0.27748 0.55751 0.37301 0.0
C3 C 0.20274 0.48151 0.3523 0.0
C4 C 0.28806 0.48448 0.44237 0.0
C5 C 0.21284 0.56163 0.4951 0.0
O6 O 0.2142 0.49611 0.27768 0.0
O7 O 0.21238 0.48724 0.44441 0.0
O8 O 0.23298 0.54725 0.54077 0.0
O9 O 0.2086 0.55516 0.39834 0.0
C10 C 0.27438 0.56009 0.27346 0.0
O11 O 0.27496 0.49973 0.51197 0.0
O12 O 0.27924 0.48815 0.34788 0.0
In13 In 0.47565 0.74473 0.6187 0.0
O14 O 0.45243 0.73311 0.77372 0.0
O15 O 0.43872 0.71258 0.62847 0.0
C16 C 0.51659 0.78543 0.65554 0.0
C17 C 0.51123 0.69906 0.58197 0.0
C18 C 0.43792 0.7787 0.51178 0.0
O19 O 0.50063 0.77574 0.72982 0.0
O20 O 0.51179 0.77442 0.56465 0.0
O21 O 0.45173 0.75811 0.46592 0.0
O22 O 0.4435 0.78194 0.60977 0.0
C23 C 0.43528 0.71523 0.7279 0.0
O24 O 0.49784 0.71186 0.50657 0.0
O25 O 0.5066 0.70949 0.67375 0.0
In26 In 0.25064 0.97899 0.86461 0.0
O27 O 0.25926 0.95678 0.02547 0.0
O28 O 0.27656 0.93731 0.88436 0.0
C29 C 0.21198 0.02219 0.90201 0.0
C30 C 0.29855 0.01113 0.82651 0.0
C31 C 0.2166 0.94472 0.74306 0.0
O32 O 0.21991 0.00456 0.97441 0.0
O33 O 0.22386 0.01811 0.81253 0.0
O34 O 0.24073 0.95443 0.70949 0.0
O35 O 0.20984 0.9526 0.83634 0.0
C36 C 0.27389 0.93609 0.98427 0.0
O37 O 0.28404 -0.00063 0.75181 0.0
O38 O 0.28885 0.00653 0.91892 0.0
In39 In 0.01208 0.75042 0.1361 0.0
O40 O 0.99162 0.71727 0.25009 0.0
O41 O 0.98624 0.71092 0.08273 0.0
C42 C 0.04339 0.7869 0.25891 0.0
C43 C 0.05585 0.72687 0.02242 0.0
C44 C 0.96817 0.78734 0.09014 0.0
O45 O 0.03564 0.76189 0.29165 0.0
O46 O 0.03531 0.79322 0.16549 0.0
O47 O 0.98725 0.78044 0.02158 0.0
O48 O 0.97116 0.7752 0.17985 0.0
C49 C 0.98106 0.70177 0.17552 0.0
O50 O 0.03523 0.74084 0.97807 0.0
O51 O 0.05434 0.72539 0.12262 0.0
In52 In 0.74274 0.01868 0.85549 0.0
O53 O 0.75246 0.03907 0.69327 0.0
O54 O 0.77505 0.05507 0.83088 0.0
C55 C 0.6996 0.97957 0.82825 0.0
C56 C 0.7873 0.98179 0.89368 0.0
C57 C 0.713 0.05911 0.96636 0.0
O58 O 0.71005 0.99381 0.7508 0.0
O59 O 0.71106 0.98507 0.91771 0.0
O60 O 0.73323 0.04413 0.00896 0.0
O61 O 0.70798 0.05336 0.86948 0.0
C62 C 0.77098 0.05686 0.73147 0.0
O63 O 0.77527 0.99621 0.96806 0.0
O64 O 0.77676 0.98609 0.802 0.0
In65 In 0.979 0.24777 0.12778 0.0
O66 O 0.95863 0.23762 0.28918 0.0
O67 O 0.94506 0.2128 0.15312 0.0
C68 C 0.01597 0.29265 0.15843 0.0
C69 C 0.01774 0.20468 0.08973 0.0
C70 C 0.93756 0.27649 0.01813 0.0
O71 O 0.00218 0.28111 0.23477 0.0
O72 O 0.01112 0.28139 0.06806 0.0
O73 O 0.95385 0.25759 0.97366 0.0
O74 O 0.94246 0.2806 0.11612 0.0
C75 C 0.9425 0.2175 0.25197 0.0
O76 O 0.00235 0.21558 0.01558 0.0
O77 O 0.0135 0.21565 0.18084 0.0
In78 In 0.74859 0.47756 0.37205 0.0
O79 O 0.75782 0.45252 0.52658 0.0
O80 O 0.78168 0.4413 0.38623 0.0
C81 C 0.70481 0.51579 0.40457 0.0
C82 C 0.79281 0.5154 0.34868 0.0
C83 C 0.71953 0.44029 0.24549 0.0
O84 O 0.71464 0.49985 0.47917 0.0
O85 O 0.71719 0.51233 0.3157 0.0
O86 O 0.73879 0.45738 0.20891 0.0
O87 O 0.71507 0.4424 0.34451 0.0
C88 C 0.77693 0.43624 0.4835 0.0
O89 O 0.78292 0.50058 0.27105 0.0
O90 O 0.78035 0.511 0.43676 0.0
In91 In 0.51546 0.24981 0.61354 0.0
O92 O 0.49254 0.216 0.718 0.0
O93 O 0.48353 0.21602 0.55126 0.0
C94 C 0.55025 0.28026 0.74535 0.0
C95 C 0.55801 0.22263 0.50452 0.0
C96 C 0.47762 0.29306 0.56658 0.0
O97 O 0.53397 0.25994 0.779 0.0
O98 O 0.54867 0.28504 0.64643 0.0
O99 O 0.49433 0.28206 0.4969 0.0
O100 O 0.47992 0.28197 0.65825 0.0
C101 C 0.47879 0.20453 0.64086 0.0
O102 O 0.54087 0.24072 0.46029 0.0
O103 O 0.55335 0.21828 0.60225 0.0
C104 C 0.41058 0.69973 0.89645 0.0
C105 C 0.41322 0.69792 0.7852 0.0
C106 C 0.39042 0.68219 0.94996 0.0
C107 C 0.37237 0.66264 0.89276 0.0
C108 C 0.37497 0.66112 0.78152 0.0
C109 C 0.39506 0.67861 0.72825 0.0
C110 C 0.3519 0.64219 0.94584 0.0
C111 C 0.34136 0.6464 0.0447 0.0
C112 C 0.32306 0.62448 0.10019 0.0
C113 C 0.32409 0.62358 0.21182 0.0
C114 C 0.30825 0.60262 0.26759 0.0
C115 C 0.29068 0.5823 0.2129 0.0
H116 H 0.30278 0.60519 0.95933 0.0
C117 C 0.28888 0.58363 0.10128 0.0
C118 C 0.30491 0.60456 0.04523 0.0
H119 H 0.27521 0.56845 0.05727 0.0
H120 H 0.42446 0.71429 0.94236 0.0
H121 H 0.38982 0.68347 0.03601 0.0
H122 H 0.36152 0.64615 0.73552 0.0
H123 H 0.39658 0.6767 0.64232 0.0
H124 H 0.34579 0.62265 0.90152 0.0
H125 H 0.34744 0.66583 0.08958 0.0
H126 H 0.33766 0.6388 0.25612 0.0
H127 H 0.30986 0.60233 0.35379 0.0
C128 C 0.4091 0.79291 0.34944 0.0
C129 C 0.41651 0.79764 0.45679 0.0
C130 C 0.38864 0.81102 0.29888 0.0
C131 C 0.37515 0.83415 0.35518 0.0
C132 C 0.38286 0.83891 0.46212 0.0
C133 C 0.40317 0.8208 0.51257 0.0
C134 C 0.35423 0.85478 0.30432 0.0
C135 C 0.33838 0.84819 0.21696 0.0
C136 C 0.3197 0.87001 0.16155 0.0
C137 C 0.31589 0.86727 0.05104 0.0
C138 C 0.30044 0.88848 0.99415 0.0
C139 C 0.28803 0.91268 0.04692 0.0
H140 H 0.30784 0.89585 0.30102 0.0
C141 C 0.29049 0.91473 0.15828 0.0
C142 C 0.30623 0.89359 0.21528 0.0
H143 H 0.28088 0.93301 0.20102 0.0
H144 H 0.41918 0.77532 0.30439 0.0
H145 H 0.38406 0.80716 0.21536 0.0
H146 H 0.37307 0.85671 0.50707 0.0
H147 H 0.40849 0.82508 0.59541 0.0
H148 H 0.35221 0.87638 0.34025 0.0
H149 H 0.34037 0.82669 0.18039 0.0
H150 H 0.32572 0.84916 0.00794 0.0
H151 H 0.29862 0.88614 0.90838 0.0
C152 C 0.08062 0.79689 0.40046 0.0
C153 C 0.06103 0.80731 0.32304 0.0
C154 C 0.09867 0.81646 0.45571 0.0
C155 C 0.09683 0.84673 0.43579 0.0
C156 C 0.07653 0.85713 0.3611 0.0
C157 C 0.05911 0.83756 0.30387 0.0
C158 C 0.11525 0.86797 0.49391 0.0
C159 C 0.14375 0.86315 0.51284 0.0
C160 C 0.16209 0.88481 0.56988 0.0
C161 C 0.19132 0.88861 0.54006 0.0
C162 C 0.209 0.90879 0.59415 0.0
C163 C 0.19783 0.92486 0.6806 0.0
H164 H 0.12863 0.89818 0.68221 0.0
C165 C 0.16865 0.92084 0.71086 0.0
C166 C 0.1509 0.90112 0.6558 0.0
H167 H 0.15953 0.93285 0.77761 0.0
H168 H 0.08247 0.77363 0.41638 0.0
H169 H 0.1138 0.80799 0.51466 0.0
H170 H 0.0746 0.8804 0.34538 0.0
H171 H 0.04402 0.8461 0.24485 0.0
H172 H 0.10554 0.88894 0.51524 0.0
H173 H 0.15418 0.84355 0.4812 0.0
H174 H 0.20042 0.8761 0.47449 0.0
H175 H 0.23152 0.91131 0.56996 0.0
C176 C 0.07742 0.70832 0.85162 0.0
C177 C 0.07896 0.71141 0.96285 0.0
C178 C 0.09772 0.6908 0.79766 0.0
C179 C 0.12011 0.67626 0.85426 0.0
C180 C 0.12206 0.68029 0.965 0.0
C181 C 0.10178 0.69767 0.01869 0.0
C182 C 0.14048 0.65502 0.80347 0.0
C183 C 0.14519 0.65318 0.69777 0.0
C184 C 0.16343 0.62988 0.6483 0.0
C185 C 0.15788 0.62212 0.54186 0.0
C186 C 0.17383 0.59981 0.49268 0.0
C187 C 0.19589 0.58488 0.54872 0.0
H188 H 0.19164 0.62126 0.78492 0.0
C189 C 0.20192 0.59292 0.65463 0.0
C190 C 0.18594 0.61529 0.70397 0.0
H191 H 0.21909 0.58207 0.69917 0.0
H192 H 0.05992 0.71853 0.80674 0.0
H193 H 0.09487 0.68791 0.71271 0.0
H194 H 0.13899 0.66939 0.01075 0.0
H195 H 0.10359 0.6997 0.10456 0.0
H196 H 0.15132 0.63967 0.85642 0.0
H197 H 0.13429 0.66826 0.64406 0.0
H198 H 0.14086 0.63309 0.49686 0.0
H199 H 0.16882 0.59425 0.41058 0.0
C200 C 0.80479 0.09924 0.71583 0.0
C201 C 0.78726 0.078 0.66596 0.0
C202 C 0.82133 0.11863 0.65542 0.0
C203 C 0.82104 0.11694 0.54334 0.0
C204 C 0.80273 0.0963 0.49353 0.0
C205 C 0.786 0.07696 0.5542 0.0
C206 C 0.83945 0.13616 0.47585 0.0
C207 C 0.86377 0.14967 0.5116 0.0
C208 C 0.88307 0.16748 0.4427 0.0
C209 C 0.90095 0.18889 0.49013 0.0
C210 C 0.92016 0.20539 0.42837 0.0
C211 C 0.92207 0.20054 0.31804 0.0
H212 H 0.87255 0.14564 0.29292 0.0
C213 C 0.90436 0.17901 0.27062 0.0
C214 C 0.88513 0.16259 0.33216 0.0
H215 H 0.90552 0.17462 0.18579 0.0
H216 H 0.80581 0.10088 0.80197 0.0
H217 H 0.83407 0.13492 0.69747 0.0
H218 H 0.80179 0.09473 0.40734 0.0
H219 H 0.77252 0.06092 0.51367 0.0
H220 H 0.83304 0.13842 0.39286 0.0
H221 H 0.87027 0.14766 0.59447 0.0
H222 H 0.90002 0.19288 0.57528 0.0
H223 H 0.93363 0.22179 0.4671 0.0
C224 C 0.91157 0.29116 0.85005 0.0
C225 C 0.91481 0.29326 0.9611 0.0
C226 C 0.89092 0.30848 0.79684 0.0
C227 C 0.87294 0.32809 0.85421 0.0
C228 C 0.87599 0.32966 0.96541 0.0
C229 C 0.8966 0.31246 0.01827 0.0
C230 C 0.85215 0.34866 0.80196 0.0
C231 C 0.84272 0.34602 0.70062 0.0
C232 C 0.82447 0.36864 0.64755 0.0
C233 C 0.82713 0.37216 0.53705 0.0
C234 C 0.81158 0.39409 0.48428 0.0
C235 C 0.79268 0.41278 0.54071 0.0
H236 H 0.80157 0.38415 0.78868 0.0
C237 C 0.78919 0.40874 0.65082 0.0
C238 C 0.80494 0.38684 0.70394 0.0
H239 H 0.77448 0.4226 0.69601 0.0
H240 H 0.92542 0.27664 0.80399 0.0
H241 H 0.88994 0.30696 0.71091 0.0
H242 H 0.86259 0.34456 0.01174 0.0
H243 H 0.89851 0.31453 0.1041 0.0
H244 H 0.84502 0.36735 0.84909 0.0
H245 H 0.84988 0.32769 0.65195 0.0
H246 H 0.8418 0.35831 0.49159 0.0
H247 H 0.81453 0.39647 0.39907 0.0
C248 C 0.68476 0.39876 0.22727 0.0
C249 C 0.70311 0.41935 0.17879 0.0
C250 C 0.66834 0.37936 0.16559 0.0
C251 C 0.66959 0.3804 0.05357 0.0
C252 C 0.68862 0.40046 0.00528 0.0
C253 C 0.70523 0.4198 0.06725 0.0
C254 C 0.65147 0.36112 0.98444 0.0
C255 C 0.62684 0.34786 0.01746 0.0
C256 C 0.60791 0.3302 0.94588 0.0
C257 C 0.58996 0.30851 0.99009 0.0
C258 C 0.57124 0.29205 0.92522 0.0
C259 C 0.56994 0.29727 0.81507 0.0
H260 H 0.61895 0.35276 0.79891 0.0
C261 C 0.58764 0.31917 0.77104 0.0
C262 C 0.60635 0.33553 0.83563 0.0
H263 H 0.58691 0.32387 0.68645 0.0
H264 H 0.68306 0.39758 0.3133 0.0
H265 H 0.65497 0.36355 0.20667 0.0
H266 H 0.69028 0.40154 0.91921 0.0
H267 H 0.71936 0.43534 0.02784 0.0
H268 H 0.65838 0.35859 0.9022 0.0
H269 H 0.61981 0.34996 0.09958 0.0
H270 H 0.59051 0.30421 0.07501 0.0
H271 H 0.55775 0.27537 0.96132 0.0
C272 C 0.70066 0.08684 0.13331 0.0
C273 C 0.69615 0.08168 0.02412 0.0
C274 C 0.68383 0.10774 0.18739 0.0
C275 C 0.66228 0.12401 0.13269 0.0
C276 C 0.65813 0.1189 0.02333 0.0
C277 C 0.67486 0.09805 0.96961 0.0
C278 C 0.64245 0.14521 0.18643 0.0
C279 C 0.64696 0.15643 0.2845 0.0
C280 C 0.62507 0.17518 0.33885 0.0
C281 C 0.62292 0.17373 0.45015 0.0
C282 C 0.60129 0.18942 0.50381 0.0
C283 C 0.5816 0.20726 0.44724 0.0
H284 H 0.60771 0.19636 0.19686 0.0
C285 C 0.58447 0.20977 0.33628 0.0
C286 C 0.60603 0.19389 0.28241 0.0
H287 H 0.56983 0.22367 0.29091 0.0
H288 H 0.71686 0.07443 0.17733 0.0
H289 H 0.68741 0.11033 0.27209 0.0
H290 H 0.64167 0.13094 0.97915 0.0
H291 H 0.67089 0.09462 0.88528 0.0
H292 H 0.62271 0.15118 0.14338 0.0
H293 H 0.66624 0.1504 0.32985 0.0
H294 H 0.6375 0.15974 0.49555 0.0
H295 H 0.59982 0.1873 0.58963 0.0
C296 C 0.32523 0.44751 0.38649 0.0
C297 C 0.3114 0.46328 0.46848 0.0
C298 C 0.34651 0.42655 0.41004 0.0
C299 C 0.3546 0.421 0.51644 0.0
C300 C 0.34076 0.43683 0.59836 0.0
C301 C 0.31948 0.45788 0.57469 0.0
C302 C 0.37605 0.39781 0.54523 0.0
C303 C 0.39704 0.38809 0.47853 0.0
C304 C 0.4178 0.3639 0.50417 0.0
C305 C 0.43377 0.351 0.4206 0.0
C306 C 0.45325 0.32798 0.44033 0.0
C307 C 0.45718 0.31738 0.54429 0.0
H308 H 0.4113 0.36317 0.67637 0.0
C309 C 0.44157 0.33044 0.62814 0.0
C310 C 0.42225 0.35352 0.60865 0.0
H311 H 0.44443 0.32297 0.70944 0.0
H312 H 0.3193 0.45103 0.3038 0.0
H313 H 0.35582 0.41423 0.34461 0.0
H314 H 0.34637 0.43281 0.68106 0.0
H315 H 0.30909 0.46962 0.63956 0.0
H316 H 0.37405 0.38863 0.6244 0.0
H317 H 0.39902 0.39788 0.40015 0.0
H318 H 0.431 0.35862 0.33942 0.0
H319 H 0.46511 0.31842 0.37417 0.0
C320 C 0.66525 0.94995 0.71552 0.0
C321 C 0.67579 0.95805 0.81661 0.0
C322 C 0.64304 0.92912 0.7057 0.0
C323 C 0.63099 0.91602 0.79705 0.0
C324 C 0.6411 0.92471 0.89793 0.0
C325 C 0.6634 0.94532 0.90769 0.0
C326 C 0.60753 0.89367 0.7905 0.0
C327 C 0.60475 0.87507 0.70751 0.0
C328 C 0.58177 0.85219 0.69862 0.0
C329 C 0.57666 0.83959 0.5981 0.0
C330 C 0.55554 0.81793 0.58468 0.0
C331 C 0.53906 0.80818 0.67177 0.0
H332 H 0.56914 0.85058 0.866 0.0
C333 C 0.54425 0.82043 0.77287 0.0
C334 C 0.56546 0.84218 0.78643 0.0
H335 H 0.532 0.81317 0.84154 0.0
H336 H 0.67422 0.95962 0.64404 0.0
H337 H 0.63513 0.92372 0.62666 0.0
H338 H 0.632 0.9152 0.96952 0.0
H339 H 0.67092 0.95129 0.98681 0.0
H340 H 0.59289 0.8922 0.85794 0.0
H341 H 0.61999 0.87663 0.64167 0.0
H342 H 0.58896 0.84664 0.52919 0.0
H343 H 0.55212 0.80886 0.50568 0.0
C344 C 0.04752 0.17202 0.97038 0.0
C345 C 0.03915 0.18086 0.07321 0.0
C346 C 0.06845 0.1499 0.95678 0.0
C347 C 0.08121 0.13615 0.04604 0.0
C348 C 0.07223 0.14457 0.1484 0.0
C349 C 0.05165 0.16683 0.16195 0.0
C350 C 0.10345 0.11258 0.03618 0.0
C351 C 0.12262 0.11106 0.95521 0.0
C352 C 0.1457 0.08814 0.94566 0.0
C353 C 0.1591 0.08408 0.84623 0.0
C354 C 0.18079 0.06287 0.83263 0.0
C355 C 0.18972 0.04524 0.91844 0.0
H356 H 0.14621 0.07375 0.11136 0.0
C357 C 0.1768 0.04953 0.01857 0.0
C358 C 0.1551 0.07084 0.03235 0.0
H359 H 0.18344 0.03642 0.08636 0.0
H360 H 0.03807 0.18233 0.9006 0.0
H361 H 0.07421 0.14336 0.87652 0.0
H362 H 0.0815 0.13418 0.21839 0.0
H363 H 0.04549 0.173 0.24229 0.0
H364 H 0.10445 0.09675 0.10037 0.0
H365 H 0.12145 0.12731 0.89221 0.0
H366 H 0.15258 0.0972 0.77828 0.0
H367 H 0.19039 0.06015 0.75441 0.0
C368 C 0.95398 0.66791 0.29689 0.0
C369 C 0.96316 0.67544 0.19392 0.0
C370 C 0.93551 0.64392 0.31217 0.0
C371 C 0.92591 0.62708 0.22445 0.0
C372 C 0.93612 0.63399 0.12236 0.0
C373 C 0.95437 0.65801 0.10705 0.0
C374 C 0.90508 0.60241 0.23541 0.0
C375 C 0.88492 0.60119 0.31307 0.0
C376 C 0.86225 0.57804 0.31971 0.0
C377 C 0.84871 0.57322 0.4182 0.0
C378 C 0.8264 0.55264 0.42757 0.0
C379 C 0.81692 0.53658 0.33823 0.0
H380 H 0.86188 0.56557 0.15183 0.0
C381 C 0.83036 0.54132 0.23943 0.0
C382 C 0.85276 0.56191 0.23002 0.0
H383 H 0.82334 0.5294 0.16907 0.0
H384 H 0.96068 0.6808 0.36539 0.0
H385 H 0.92893 0.63867 0.39261 0.0
H386 H 0.92934 0.62121 0.05363 0.0
H387 H 0.96132 0.66312 0.02677 0.0
H388 H 0.90554 0.58565 0.17384 0.0
H389 H 0.88453 0.61807 0.37431 0.0
H390 H 0.85536 0.58548 0.48832 0.0
H391 H 0.8164 0.54953 0.50484 0.0
C392 C 0.33264 0.03777 0.70488 0.0
C393 C 0.32433 0.02977 0.80839 0.0
C394 C 0.356 0.05695 0.6893 0.0
C395 C 0.37143 0.0685 0.77725 0.0
C396 C 0.36381 0.05947 0.88021 0.0
C397 C 0.34041 0.04048 0.89576 0.0
C398 C 0.3953 0.0902 0.76556 0.0
C399 C 0.39667 0.10925 0.68395 0.0
C400 C 0.4189 0.13281 0.67575 0.0
C401 C 0.42414 0.14516 0.57537 0.0
C402 C 0.4438 0.16825 0.56416 0.0
C403 C 0.45851 0.17969 0.65344 0.0
H404 H 0.42966 0.13609 0.84476 0.0
C405 C 0.45336 0.16743 0.7541 0.0
C406 C 0.43368 0.14427 0.76538 0.0
H407 H 0.46426 0.17596 0.82441 0.0
H408 H 0.32082 0.02957 0.63604 0.0
H409 H 0.36187 0.06256 0.60845 0.0
H410 H 0.37551 0.06775 0.94922 0.0
H411 H 0.33469 0.03449 0.97653 0.0
H412 H 0.41125 0.09135 0.82957 0.0
H413 H 0.38059 0.10802 0.62033 0.0
H414 H 0.41291 0.13698 0.50517 0.0
H415 H 0.44728 0.17727 0.48545 0.0
C416 C 0.81914 0.95154 0.01382 0.0
C417 C 0.8116 0.96105 0.91097 0.0
C418 C 0.84133 0.93076 0.02809 0.0
C419 C 0.85644 0.91931 0.93955 0.0
C420 C 0.8495 0.92963 0.83741 0.0
C421 C 0.82714 0.95005 0.82307 0.0
C422 C 0.87978 0.89692 0.9505 0.0
C423 C 0.87953 0.87624 0.02681 0.0
C424 C 0.90222 0.85306 0.03835 0.0
C425 C 0.90417 0.83815 0.13581 0.0
C426 C 0.92529 0.81651 0.15169 0.0
C427 C 0.94492 0.80913 0.0701 0.0
H428 H 0.92019 0.85522 0.87779 0.0
C429 C 0.94264 0.82342 0.97151 0.0
C430 C 0.92144 0.84511 0.95546 0.0
H431 H 0.95735 0.81799 0.90692 0.0
H432 H 0.80764 0.95983 0.08299 0.0
H433 H 0.84675 0.92396 0.10837 0.0
H434 H 0.86102 0.9214 0.76812 0.0
H435 H 0.82199 0.95718 0.74284 0.0
H436 H 0.89689 0.89709 0.89104 0.0
H437 H 0.86195 0.87628 0.08468 0.0
H438 H 0.88952 0.84354 0.20068 0.0
H439 H 0.92642 0.80581 0.22858 0.0
C440 C 0.04299 0.32826 0.2746 0.0
C441 C 0.03632 0.31741 0.17256 0.0
C442 C 0.0627 0.35139 0.28712 0.0
C443 C 0.07618 0.36402 0.19757 0.0
C444 C 0.06887 0.35359 0.09562 0.0
C445 C 0.04931 0.33042 0.08318 0.0
C446 C 0.09757 0.3883 0.20701 0.0
C447 C 0.1148 0.39204 0.29319 0.0
C448 C 0.13689 0.4157 0.30424 0.0
C449 C 0.14739 0.42228 0.40676 0.0
C450 C 0.16858 0.44378 0.42194 0.0
C451 C 0.17997 0.45915 0.3347 0.0
H452 H 0.14162 0.42616 0.13571 0.0
C453 C 0.16968 0.45261 0.23179 0.0
C454 C 0.14839 0.43103 0.21648 0.0
H455 H 0.17826 0.46396 0.16301 0.0
H456 H 0.03305 0.31886 0.34481 0.0
H457 H 0.06697 0.35948 0.36684 0.0
H458 H 0.07867 0.36311 0.02531 0.0
H459 H 0.04441 0.32267 0.00335 0.0
H460 H 0.0996 0.4028 0.1391 0.0
H461 H 0.11275 0.37709 0.35991 0.0
H462 H 0.13913 0.41075 0.47572 0.0
H463 H 0.17613 0.44825 0.50232 0.0
C464 C 0.5395 0.66495 0.46327 0.0
C465 C 0.5311 0.6739 0.56589 0.0
C466 C 0.55928 0.64178 0.45003 0.0
C467 C 0.57096 0.62717 0.53946 0.0
C468 C 0.56176 0.6356 0.64156 0.0
C469 C 0.54224 0.65883 0.65476 0.0
C470 C 0.59266 0.60306 0.53008 0.0
C471 C 0.61194 0.6012 0.44956 0.0
C472 C 0.63506 0.57834 0.44153 0.0
C473 C 0.64834 0.57381 0.34222 0.0
C474 C 0.67081 0.55338 0.33061 0.0
C475 C 0.68071 0.53703 0.41838 0.0
H476 H 0.63609 0.56528 0.6086 0.0
C477 C 0.66757 0.54145 0.51809 0.0
C478 C 0.64503 0.56198 0.52982 0.0
H479 H 0.67492 0.52929 0.58726 0.0
H480 H 0.53103 0.67601 0.39335 0.0
H481 H 0.56511 0.63528 0.36983 0.0
H482 H 0.57016 0.62455 0.71166 0.0
H483 H 0.53599 0.66505 0.73495 0.0
H484 H 0.59342 0.58728 0.5945 0.0
H485 H 0.61108 0.61734 0.38616 0.0
H486 H 0.64133 0.58618 0.27303 0.0
H487 H 0.6805 0.55051 0.25261 0.0
loop_
_geom_bond_atom_site_label_1
_geom_bond_atom_site_label_2
_geom_bond_distance
_geom_bond_site_symmetry_2
_ccdc_geom_bond_type
In0 O1 2.294 . S
In0 O2 2.326 . S
In0 O6 2.266 . S
In0 O7 2.326 . S
In0 O8 2.266 . S
In0 O9 2.326 . S
In0 O11 2.294 . S
In0 O12 2.326 . S
O1 In0 2.294 . S
O1 C10 1.240 . S
O2 In0 2.326 . S
O2 C10 1.252 . S
C3 O6 1.252 . S
C3 O7 1.260 . S
C4 O11 1.240 . S
C4 O12 1.252 . S
C5 O8 1.252 . S
C5 O9 1.260 . S
O6 In0 2.266 . S
O6 C3 1.252 . S
O7 In0 2.326 . S
O7 C3 1.260 . S
O8 In0 2.266 . S
O8 C5 1.252 . S
O9 In0 2.326 . S
O9 C5 1.260 . S
C10 O1 1.240 . S
C10 O2 1.252 . S
O11 In0 2.294 . S
O11 C4 1.240 . S
O12 In0 2.326 . S
O12 C4 1.252 . S
In13 O14 2.294 . S
In13 O15 2.326 . S
In13 O19 2.266 . S
In13 O20 2.326 . S
In13 O21 2.266 . S
In13 O22 2.326 . S
In13 O24 2.294 . S
In13 O25 2.326 . S
O14 In13 2.294 . S
O14 C23 1.240 . S
O15 In13 2.326 . S
O15 C23 1.252 . S
C16 O19 1.252 . S
C16 O20 1.260 . S
C17 O24 1.240 . S
C17 O25 1.252 . S
C18 O21 1.252 . S
C18 O22 1.260 . S
O19 In13 2.266 . S
O19 C16 1.252 . S
O20 In13 2.326 . S
O20 C16 1.260 . S
O21 In13 2.266 . S
O21 C18 1.252 . S
O22 In13 2.326 . S
O22 C18 1.260 . S
C23 O14 1.240 . S
C23 O15 1.252 . S
O24 In13 2.294 . S
O24 C17 1.240 . S
O25 In13 2.326 . S
O25 C17 1.252 . S
In26 O27 2.294 1_556 S
In26 O28 2.326 . S
In26 O32 2.279 . S
In26 O33 2.326 1_565 S
In26 O34 2.266 . S
In26 O35 2.326 . S
In26 O37 2.299 . S
In26 O38 2.326 1_565 S
O27 In26 2.294 1_554 S
O27 C36 1.240 1_554 S
O28 In26 2.326 . S
O28 C36 1.252 . S
C29 O32 1.233 1_545 S
C29 O33 1.260 . S
C30 O37 1.232 1_545 S
C30 O38 1.252 . S
C31 O34 1.252 . S
C31 O35 1.260 . S
O32 In26 2.279 . S
O32 C29 1.233 1_565 S
O33 In26 2.326 1_545 S
O33 C29 1.260 . S
O34 In26 2.266 . S
O34 C31 1.252 . S
O35 In26 2.326 . S
O35 C31 1.260 . S
C36 O27 1.240 1_556 S
C36 O28 1.252 . S
O37 In26 2.299 . S
O37 C30 1.232 1_565 S
O38 In26 2.326 1_545 S
O38 C30 1.252 . S
In39 O40 2.299 . S
In39 O41 2.326 1_455 S
In39 O45 2.266 . S
In39 O46 2.326 . S
In39 O47 2.279 . S
In39 O48 2.326 1_455 S
In39 O50 2.294 1_554 S
In39 O51 2.326 . S
O40 In39 2.299 . S
O40 C49 1.232 1_455 S
O41 In39 2.326 1_655 S
O41 C49 1.252 . S
C42 O45 1.252 . S
C42 O46 1.260 . S
C43 O50 1.240 1_554 S
C43 O51 1.252 . S
C44 O47 1.233 1_655 S
C44 O48 1.260 . S
O45 In39 2.266 . S
O45 C42 1.252 . S
O46 In39 2.326 . S
O46 C42 1.260 . S
O47 In39 2.279 . S
O47 C44 1.233 1_455 S
O48 In39 2.326 1_655 S
O48 C44 1.260 . S
C49 O40 1.232 1_655 S
C49 O41 1.252 . S
O50 In39 2.294 1_556 S
O50 C43 1.240 1_556 S
O51 In39 2.326 . S
O51 C43 1.252 . S
In52 O53 2.294 . S
In52 O54 2.326 . S
In52 O58 2.266 . S
In52 O59 2.326 1_545 S
In52 O60 2.266 1_556 S
In52 O61 2.326 . S
In52 O63 2.303 . S
In52 O64 2.326 1_545 S
O53 In52 2.294 . S
O53 C62 1.240 . S
O54 In52 2.326 . S
O54 C62 1.252 . S
C55 O58 1.252 1_565 S
C55 O59 1.260 . S
C56 O63 1.227 1_565 S
C56 O64 1.252 . S
C57 O60 1.252 1_556 S
C57 O61 1.260 . S
O58 In52 2.266 . S
O58 C55 1.252 1_545 S
O59 In52 2.326 1_565 S
O59 C55 1.260 . S
O60 In52 2.266 1_554 S
O60 C57 1.252 1_554 S
O61 In52 2.326 . S
O61 C57 1.260 . S
C62 O53 1.240 . S
C62 O54 1.252 . S
O63 In52 2.303 . S
O63 C56 1.227 1_545 S
O64 In52 2.326 1_565 S
O64 C56 1.252 . S
In65 O66 2.294 . S
In65 O67 2.326 . S
In65 O71 2.266 . S
In65 O72 2.326 1_655 S
In65 O73 2.266 1_554 S
In65 O74 2.326 . S
In65 O76 2.303 . S
In65 O77 2.326 1_655 S
O66 In65 2.294 . S
O66 C75 1.240 . S
O67 In65 2.326 . S
O67 C75 1.252 . S
C68 O71 1.252 1_455 S
C68 O72 1.260 . S
C69 O76 1.227 1_455 S
C69 O77 1.252 . S
C70 O73 1.252 1_554 S
C70 O74 1.260 . S
O71 In65 2.266 . S
O71 C68 1.252 1_655 S
O72 In65 2.326 1_455 S
O72 C68 1.260 . S
O73 In65 2.266 1_556 S
O73 C70 1.252 1_556 S
O74 In65 2.326 . S
O74 C70 1.260 . S
C75 O66 1.240 . S
C75 O67 1.252 . S
O76 In65 2.303 . S
O76 C69 1.227 1_655 S
O77 In65 2.326 1_455 S
O77 C69 1.252 . S
In78 O79 2.294 . S
In78 O80 2.326 . S
In78 O84 2.266 . S
In78 O85 2.326 . S
In78 O86 2.266 . S
In78 O87 2.326 . S
In78 O89 2.294 . S
In78 O90 2.326 . S
O79 In78 2.294 . S
O79 C88 1.240 . S
O80 In78 2.326 . S
O80 C88 1.252 . S
C81 O84 1.252 . S
C81 O85 1.260 . S
C82 O89 1.240 . S
C82 O90 1.252 . S
C83 O86 1.252 . S
C83 O87 1.260 . S
O84 In78 2.266 . S
O84 C81 1.252 . S
O85 In78 2.326 . S
O85 C81 1.260 . S
O86 In78 2.266 . S
O86 C83 1.252 . S
O87 In78 2.326 . S
O87 C83 1.260 . S
C88 O79 1.240 . S
C88 O80 1.252 . S
O89 In78 2.294 . S
O89 C82 1.240 . S
O90 In78 2.326 . S
O90 C82 1.252 . S
In91 O92 2.294 . S
In91 O93 2.326 . S
In91 O97 2.266 . S
In91 O98 2.326 . S
In91 O99 2.266 . S
In91 O100 2.326 . S
In91 O102 2.294 . S
In91 O103 2.326 . S
O92 In91 2.294 . S
O92 C101 1.240 . S
O93 In91 2.326 . S
O93 C101 1.252 . S
C94 O97 1.252 . S
C94 O98 1.260 . S
C95 O102 1.240 . S
C95 O103 1.252 . S
C96 O99 1.252 . S
C96 O100 1.260 . S
O97 In91 2.266 . S
O97 C94 1.252 . S
O98 In91 2.326 . S
O98 C94 1.260 . S
O99 In91 2.266 . S
O99 C96 1.252 . S
O100 In91 2.326 . S
O100 C96 1.260 . S
C101 O92 1.240 . S
C101 O93 1.252 . S
O102 In91 2.294 . S
O102 C95 1.240 . S
O103 In91 2.326 . S
O103 C95 1.252 . S
C104 C105 1.386 . S
C104 C106 1.383 . S
C104 H120 0.951 . S
C105 C104 1.386 . S
C105 C109 1.383 . S
C106 C104 1.383 . S
C106 C107 1.402 . S
C106 H121 0.951 . S
C107 C106 1.402 . S
C107 C108 1.375 . S
C107 C110 1.481 . S
C108 C107 1.375 . S
C108 C109 1.367 . S
C108 H122 0.951 . S
C109 C105 1.383 . S
C109 C108 1.367 . S
C109 H123 0.950 . S
C110 C107 1.481 . S
C110 C111 1.297 1_556 S
C110 H124 0.950 . S
C111 C110 1.297 1_554 S
C111 C112 1.479 . S
C111 H125 0.950 . S
C112 C111 1.479 . S
C112 C113 1.375 . S
C112 C118 1.404 . S
C113 C112 1.375 . S
C113 C114 1.369 . S
C113 H126 0.950 . S
C114 C113 1.369 . S
C114 C115 1.392 . S
C114 H127 0.951 . S
C115 C114 1.392 . S
C115 C117 1.384 . S
H116 C118 0.949 1_556 S
C117 C115 1.384 . S
C117 C118 1.385 . S
C117 H119 0.950 . S
C118 C112 1.404 . S
C118 H116 0.949 1_554 S
C118 C117 1.385 . S
H119 C117 0.950 . S
H120 C104 0.951 . S
H121 C106 0.951 . S
H122 C108 0.951 . S
H123 C109 0.950 . S
H124 C110 0.950 . S
H125 C111 0.950 . S
H126 C113 0.950 . S
H127 C114 0.951 . S
C128 C129 1.386 . S
C128 C130 1.383 . S
C128 H144 0.951 . S
C129 C128 1.386 . S
C129 C133 1.383 . S
C130 C128 1.383 . S
C130 C131 1.402 . S
C130 H145 0.951 . S
C131 C130 1.402 . S
C131 C132 1.375 . S
C131 C134 1.481 . S
C132 C131 1.375 . S
C132 C133 1.367 . S
C132 H146 0.951 . S
C133 C129 1.383 . S
C133 C132 1.367 . S
C133 H147 0.950 . S
C134 C131 1.481 . S
C134 C135 1.297 . S
C134 H148 0.950 . S
C135 C134 1.297 . S
C135 C136 1.479 . S
C135 H149 0.950 . S
C136 C135 1.479 . S
C136 C137 1.375 . S
C136 C142 1.404 . S
C137 C136 1.375 . S
C137 C138 1.369 . S
C137 H150 0.950 . S
C138 C137 1.369 . S
C138 C139 1.392 . S
C138 H151 0.951 1_554 S
C139 C138 1.392 . S
C139 C141 1.384 . S
H140 C142 0.949 . S
C141 C139 1.384 . S
C141 C142 1.385 . S
C141 H143 0.950 . S
C142 C136 1.404 . S
C142 H140 0.949 . S
C142 C141 1.385 . S
H143 C141 0.950 . S
H144 C128 0.951 . S
H145 C130 0.951 . S
H146 C132 0.951 . S
H147 C133 0.950 . S
H148 C134 0.950 . S
H149 C135 0.950 . S
H150 C137 0.950 . S
H151 C138 0.951 1_556 S
C152 C153 1.386 . S
C152 C154 1.383 . S
C152 H168 0.951 . S
C153 C152 1.386 . S
C153 C157 1.383 . S
C154 C152 1.383 . S
C154 C155 1.402 . S
C154 H169 0.951 . S
C155 C154 1.402 . S
C155 C156 1.375 . S
C155 C158 1.481 . S
C156 C155 1.375 . S
C156 C157 1.367 . S
C156 H170 0.951 . S
C157 C153 1.383 . S
C157 C156 1.367 . S
C157 H171 0.950 . S
C158 C155 1.481 . S
C158 C159 1.297 . S
C158 H172 0.950 . S
C159 C158 1.297 . S
C159 C160 1.479 . S
C159 H173 0.950 . S
C160 C159 1.479 . S
C160 C161 1.375 . S
C160 C166 1.404 . S
C161 C160 1.375 . S
C161 C162 1.369 . S
C161 H174 0.950 . S
C162 C161 1.369 . S
C162 C163 1.392 . S
C162 H175 0.951 . S
C163 C162 1.392 . S
C163 C165 1.384 . S
H164 C166 0.949 . S
C165 C163 1.384 . S
C165 C166 1.385 . S
C165 H167 0.950 . S
C166 C160 1.404 . S
C166 H164 0.949 . S
C166 C165 1.385 . S
H167 C165 0.950 . S
H168 C152 0.951 . S
H169 C154 0.951 . S
H170 C156 0.951 . S
H171 C157 0.950 . S
H172 C158 0.950 . S
H173 C159 0.950 . S
H174 C161 0.950 . S
H175 C162 0.951 . S
C176 C177 1.386 . S
C176 C178 1.383 . S
C176 H192 0.951 . S
C177 C176 1.386 . S
C177 C181 1.383 1_556 S
C178 C176 1.383 . S
C178 C179 1.402 . S
C178 H193 0.951 . S
C179 C178 1.402 . S
C179 C180 1.375 . S
C179 C182 1.481 . S
C180 C179 1.375 . S
C180 C181 1.367 1_556 S
C180 H194 0.951 1_556 S
C181 C177 1.383 1_554 S
C181 C180 1.367 1_554 S
C181 H195 0.950 . S
C182 C179 1.481 . S
C182 C183 1.297 . S
C182 H196 0.950 . S
C183 C182 1.297 . S
C183 C184 1.479 . S
C183 H197 0.950 . S
C184 C183 1.479 . S
C184 C185 1.375 . S
C184 C190 1.404 . S
C185 C184 1.375 . S
C185 C186 1.369 . S
C185 H198 0.950 . S
C186 C185 1.369 . S
C186 C187 1.392 . S
C186 H199 0.951 . S
C187 C186 1.392 . S
C187 C189 1.384 . S
H188 C190 0.949 . S
C189 C187 1.384 . S
C189 C190 1.385 . S
C189 H191 0.950 . S
C190 C184 1.404 . S
C190 H188 0.949 . S
C190 C189 1.385 . S
H191 C189 0.950 . S
H192 C176 0.951 . S
H193 C178 0.951 . S
H194 C180 0.951 1_554 S
H195 C181 0.950 . S
H196 C182 0.950 . S
H197 C183 0.950 . S
H198 C185 0.950 . S
H199 C186 0.951 . S
C200 C201 1.386 . S
C200 C202 1.383 . S
C200 H216 0.951 . S
C201 C200 1.386 . S
C201 C205 1.383 . S
C202 C200 1.383 . S
C202 C203 1.402 . S
C202 H217 0.951 . S
C203 C202 1.402 . S
C203 C204 1.375 . S
C203 C206 1.481 . S
C204 C203 1.375 . S
C204 C205 1.367 . S
C204 H218 0.951 . S
C205 C201 1.383 . S
C205 C204 1.367 . S
C205 H219 0.950 . S
C206 C203 1.481 . S
C206 C207 1.297 . S
C206 H220 0.950 . S
C207 C206 1.297 . S
C207 C208 1.479 . S
C207 H221 0.950 . S
C208 C207 1.479 . S
C208 C209 1.375 . S
C208 C214 1.404 . S
C209 C208 1.375 . S
C209 C210 1.369 . S
C209 H222 0.950 . S
C210 C209 1.369 . S
C210 C211 1.392 . S
C210 H223 0.951 . S
C211 C210 1.392 . S
C211 C213 1.384 . S
H212 C214 0.949 . S
C213 C211 1.384 . S
C213 C214 1.385 . S
C213 H215 0.950 . S
C214 C208 1.404 . S
C214 H212 0.949 . S
C214 C213 1.385 . S
H215 C213 0.950 . S
H216 C200 0.951 . S
H217 C202 0.951 . S
H218 C204 0.951 . S
H219 C205 0.950 . S
H220 C206 0.950 . S
H221 C207 0.950 . S
H222 C209 0.950 . S
H223 C210 0.951 . S
C224 C225 1.386 . S
C224 C226 1.383 . S
C224 H240 0.951 . S
C225 C224 1.386 . S
C225 C229 1.383 . S
C226 C224 1.383 . S
C226 C227 1.402 . S
C226 H241 0.951 . S
C227 C226 1.402 . S
C227 C228 1.375 . S
C227 C230 1.481 . S
C228 C227 1.375 . S
C228 C229 1.367 . S
C228 H242 0.951 . S
C229 C225 1.383 . S
C229 C228 1.367 . S
C229 H243 0.950 1_556 S
C230 C227 1.481 . S
C230 C231 1.297 . S
C230 H244 0.950 . S
C231 C230 1.297 . S
C231 C232 1.479 . S
C231 H245 0.950 . S
C232 C231 1.479 . S
C232 C233 1.375 . S
C232 C238 1.404 . S
C233 C232 1.375 . S
C233 C234 1.369 . S
C233 H246 0.950 . S
C234 C233 1.369 . S
C234 C235 1.392 . S
C234 H247 0.951 . S
C235 C234 1.392 . S
C235 C237 1.384 . S
H236 C238 0.949 . S
C237 C235 1.384 . S
C237 C238 1.385 . S
C237 H239 0.950 . S
C238 C232 1.404 . S
C238 H236 0.949 . S
C238 C237 1.385 . S
H239 C237 0.950 . S
H240 C224 0.951 . S
H241 C226 0.951 . S
H242 C228 0.951 . S
H243 C229 0.950 1_554 S
H244 C230 0.950 . S
H245 C231 0.950 . S
H246 C233 0.950 . S
H247 C234 0.951 . S
C248 C249 1.386 . S
C248 C250 1.383 . S
C248 H264 0.951 . S
C249 C248 1.386 . S
C249 C253 1.383 . S
C250 C248 1.383 . S
C250 C251 1.402 . S
C250 H265 0.951 . S
C251 C250 1.402 . S
C251 C252 1.375 . S
C251 C254 1.481 . S
C252 C251 1.375 . S
C252 C253 1.367 . S
C252 H266 0.951 . S
C253 C249 1.383 . S
C253 C252 1.367 . S
C253 H267 0.950 . S
C254 C251 1.481 . S
C254 C255 1.297 . S
C254 H268 0.950 1_554 S
C255 C254 1.297 . S
C255 C256 1.479 1_554 S
C255 H269 0.950 . S
C256 C255 1.479 1_556 S
C256 C257 1.375 . S
C256 C262 1.404 . S
C257 C256 1.375 . S
C257 C258 1.369 . S
C257 H270 0.950 1_556 S
C258 C257 1.369 . S
C258 C259 1.392 . S
C258 H271 0.951 . S
C259 C258 1.392 . S
C259 C261 1.384 . S
H260 C262 0.949 . S
C261 C259 1.384 . S
C261 C262 1.385 . S
C261 H263 0.950 . S
C262 C256 1.404 . S
C262 H260 0.949 . S
C262 C261 1.385 . S
H263 C261 0.950 . S
H264 C248 0.951 . S
H265 C250 0.951 . S
H266 C252 0.951 . S
H267 C253 0.950 . S
H268 C254 0.950 1_556 S
H269 C255 0.950 . S
H270 C257 0.950 1_554 S
H271 C258 0.951 . S
C272 C273 1.386 . S
C272 C274 1.383 . S
C272 H288 0.951 . S
C273 C272 1.386 . S
C273 C277 1.383 1_554 S
C274 C272 1.383 . S
C274 C275 1.402 . S
C274 H289 0.951 . S
C275 C274 1.402 . S
C275 C276 1.375 . S
C275 C278 1.481 . S
C276 C275 1.375 . S
C276 C277 1.367 1_554 S
C276 H290 0.951 1_554 S
C277 C273 1.383 1_556 S
C277 C276 1.367 1_556 S
C277 H291 0.950 . S
C278 C275 1.481 . S
C278 C279 1.297 . S
C278 H292 0.950 . S
C279 C278 1.297 . S
C279 C280 1.479 . S
C279 H293 0.950 . S
C280 C279 1.479 . S
C280 C281 1.375 . S
C280 C286 1.404 . S
C281 C280 1.375 . S
C281 C282 1.369 . S
C281 H294 0.950 . S
C282 C281 1.369 . S
C282 C283 1.392 . S
C282 H295 0.951 . S
C283 C282 1.392 . S
C283 C285 1.384 . S
H284 C286 0.949 . S
C285 C283 1.384 . S
C285 C286 1.385 . S
C285 H287 0.950 . S
C286 C280 1.404 . S
C286 H284 0.949 . S
C286 C285 1.385 . S
H287 C285 0.950 . S
H288 C272 0.951 . S
H289 C274 0.951 . S
H290 C276 0.951 1_556 S
H291 C277 0.950 . S
H292 C278 0.950 . S
H293 C279 0.950 . S
H294 C281 0.950 . S
H295 C282 0.951 . S
C296 C297 1.386 . S
C296 C298 1.383 . S
C296 H312 0.951 . S
C297 C296 1.386 . S
C297 C301 1.383 . S
C298 C296 1.383 . S
C298 C299 1.402 . S
C298 H313 0.951 . S
C299 C298 1.402 . S
C299 C300 1.375 . S
C299 C302 1.481 . S
C300 C299 1.375 . S
C300 C301 1.367 . S
C300 H314 0.951 . S
C301 C297 1.383 . S
C301 C300 1.367 . S
C301 H315 0.950 . S
C302 C299 1.481 . S
C302 C303 1.297 . S
C302 H316 0.950 . S
C303 C302 1.297 . S
C303 C304 1.479 . S
C303 H317 0.950 . S
C304 C303 1.479 . S
C304 C305 1.375 . S
C304 C310 1.404 . S
C305 C304 1.375 . S
C305 C306 1.369 . S
C305 H318 0.950 . S
C306 C305 1.369 . S
C306 C307 1.392 . S
C306 H319 0.951 . S
C307 C306 1.392 . S
C307 C309 1.384 . S
H308 C310 0.949 . S
C309 C307 1.384 . S
C309 C310 1.385 . S
C309 H311 0.950 . S
C310 C304 1.404 . S
C310 H308 0.949 . S
C310 C309 1.385 . S
H311 C309 0.950 . S
H312 C296 0.951 . S
H313 C298 0.951 . S
H314 C300 0.951 . S
H315 C301 0.950 . S
H316 C302 0.950 . S
H317 C303 0.950 . S
H318 C305 0.950 . S
H319 C306 0.951 . S
C320 C321 1.386 . S
C320 C322 1.383 . S
C320 H336 0.951 . S
C321 C320 1.386 . S
C321 C325 1.383 . S
C322 C320 1.383 . S
C322 C323 1.402 . S
C322 H337 0.951 . S
C323 C322 1.402 . S
C323 C324 1.375 . S
C323 C326 1.481 . S
C324 C323 1.375 . S
C324 C325 1.367 . S
C324 H338 0.951 . S
C325 C321 1.383 . S
C325 C324 1.367 . S
C325 H339 0.950 . S
C326 C323 1.481 . S
C326 C327 1.297 . S
C326 H340 0.950 . S
C327 C326 1.297 . S
C327 C328 1.479 . S
C327 H341 0.950 . S
C328 C327 1.479 . S
C328 C329 1.375 . S
C328 C334 1.404 . S
C329 C328 1.375 . S
C329 C330 1.369 . S
C329 H342 0.950 . S
C330 C329 1.369 . S
C330 C331 1.392 . S
C330 H343 0.951 . S
C331 C330 1.392 . S
C331 C333 1.384 . S
H332 C334 0.949 . S
C333 C331 1.384 . S
C333 C334 1.385 . S
C333 H335 0.950 . S
C334 C328 1.404 . S
C334 H332 0.949 . S
C334 C333 1.385 . S
H335 C333 0.950 . S
H336 C320 0.951 . S
H337 C322 0.951 . S
H338 C324 0.951 . S
H339 C325 0.950 . S
H340 C326 0.950 . S
H341 C327 0.950 . S
H342 C329 0.950 . S
H343 C330 0.951 . S
C344 C345 1.386 1_556 S
C344 C346 1.383 . S
C344 H360 0.951 . S
C345 C344 1.386 1_554 S
C345 C349 1.383 . S
C346 C344 1.383 . S
C346 C347 1.402 1_556 S
C346 H361 0.951 . S
C347 C346 1.402 1_554 S
C347 C348 1.375 . S
C347 C350 1.481 . S
C348 C347 1.375 . S
C348 C349 1.367 . S
C348 H362 0.951 . S
C349 C345 1.383 . S
C349 C348 1.367 . S
C349 H363 0.950 . S
C350 C347 1.481 . S
C350 C351 1.297 1_554 S
C350 H364 0.950 . S
C351 C350 1.297 1_556 S
C351 C352 1.479 . S
C351 H365 0.950 . S
C352 C351 1.479 . S
C352 C353 1.375 . S
C352 C358 1.404 1_556 S
C353 C352 1.375 . S
C353 C354 1.369 . S
C353 H366 0.950 . S
C354 C353 1.369 . S
C354 C355 1.392 . S
C354 H367 0.951 . S
C355 C354 1.392 . S
C355 C357 1.384 1_556 S
H356 C358 0.949 . S
C357 C355 1.384 1_554 S
C357 C358 1.385 . S
C357 H359 0.950 . S
C358 C352 1.404 1_554 S
C358 H356 0.949 . S
C358 C357 1.385 . S
H359 C357 0.950 . S
H360 C344 0.951 . S
H361 C346 0.951 . S
H362 C348 0.951 . S
H363 C349 0.950 . S
H364 C350 0.950 . S
H365 C351 0.950 . S
H366 C353 0.950 . S
H367 C354 0.951 . S
C368 C369 1.386 . S
C368 C370 1.383 . S
C368 H384 0.951 . S
C369 C368 1.386 . S
C369 C373 1.383 . S
C370 C368 1.383 . S
C370 C371 1.402 . S
C370 H385 0.951 . S
C371 C370 1.402 . S
C371 C372 1.375 . S
C371 C374 1.481 . S
C372 C371 1.375 . S
C372 C373 1.367 . S
C372 H386 0.951 . S
C373 C369 1.383 . S
C373 C372 1.367 . S
C373 H387 0.950 . S
C374 C371 1.481 . S
C374 C375 1.297 . S
C374 H388 0.950 . S
C375 C374 1.297 . S
C375 C376 1.479 . S
C375 H389 0.950 . S
C376 C375 1.479 . S
C376 C377 1.375 . S
C376 C382 1.404 . S
C377 C376 1.375 . S
C377 C378 1.369 . S
C377 H390 0.950 . S
C378 C377 1.369 . S
C378 C379 1.392 . S
C378 H391 0.951 . S
C379 C378 1.392 . S
C379 C381 1.384 . S
H380 C382 0.949 . S
C381 C379 1.384 . S
C381 C382 1.385 . S
C381 H383 0.950 . S
C382 C376 1.404 . S
C382 H380 0.949 . S
C382 C381 1.385 . S
H383 C381 0.950 . S
H384 C368 0.951 . S
H385 C370 0.951 . S
H386 C372 0.951 . S
H387 C373 0.950 . S
H388 C374 0.950 . S
H389 C375 0.950 . S
H390 C377 0.950 . S
H391 C378 0.951 . S
C392 C393 1.386 . S
C392 C394 1.383 . S
C392 H408 0.951 . S
C393 C392 1.386 . S
C393 C397 1.383 . S
C394 C392 1.383 . S
C394 C395 1.402 . S
C394 H409 0.951 . S
C395 C394 1.402 . S
C395 C396 1.375 . S
C395 C398 1.481 . S
C396 C395 1.375 . S
C396 C397 1.367 . S
C396 H410 0.951 . S
C397 C393 1.383 . S
C397 C396 1.367 . S
C397 H411 0.950 . S
C398 C395 1.481 . S
C398 C399 1.297 . S
C398 H412 0.950 . S
C399 C398 1.297 . S
C399 C400 1.479 . S
C399 H413 0.950 . S
C400 C399 1.479 . S
C400 C401 1.375 . S
C400 C406 1.404 . S
C401 C400 1.375 . S
C401 C402 1.369 . S
C401 H414 0.950 . S
C402 C401 1.369 . S
C402 C403 1.392 . S
C402 H415 0.951 . S
C403 C402 1.392 . S
C403 C405 1.384 . S
H404 C406 0.949 . S
C405 C403 1.384 . S
C405 C406 1.385 . S
C405 H407 0.950 . S
C406 C400 1.404 . S
C406 H404 0.949 . S
C406 C405 1.385 . S
H407 C405 0.950 . S
H408 C392 0.951 . S
H409 C394 0.951 . S
H410 C396 0.951 . S
H411 C397 0.950 . S
H412 C398 0.950 . S
H413 C399 0.950 . S
H414 C401 0.950 . S
H415 C402 0.951 . S
C416 C417 1.386 1_554 S
C416 C418 1.383 . S
C416 H432 0.951 . S
C417 C416 1.386 1_556 S
C417 C421 1.383 . S
C418 C416 1.383 . S
C418 C419 1.402 1_554 S
C418 H433 0.951 . S
C419 C418 1.402 1_556 S
C419 C420 1.375 . S
C419 C422 1.481 . S
C420 C419 1.375 . S
C420 C421 1.367 . S
C420 H434 0.951 . S
C421 C417 1.383 . S
C421 C420 1.367 . S
C421 H435 0.950 . S
C422 C419 1.481 . S
C422 C423 1.297 1_556 S
C422 H436 0.950 . S
C423 C422 1.297 1_554 S
C423 C424 1.479 . S
C423 H437 0.950 . S
C424 C423 1.479 . S
C424 C425 1.375 . S
C424 C430 1.404 1_554 S
C425 C424 1.375 . S
C425 C426 1.369 . S
C425 H438 0.950 . S
C426 C425 1.369 . S
C426 C427 1.392 . S
C426 H439 0.951 . S
C427 C426 1.392 . S
C427 C429 1.384 1_554 S
H428 C430 0.949 . S
C429 C427 1.384 1_556 S
C429 C430 1.385 . S
C429 H431 0.950 . S
C430 C424 1.404 1_556 S
C430 H428 0.949 . S
C430 C429 1.385 . S
H431 C429 0.950 . S
H432 C416 0.951 . S
H433 C418 0.951 . S
H434 C420 0.951 . S
H435 C421 0.950 . S
H436 C422 0.950 . S
H437 C423 0.950 . S
H438 C425 0.950 . S
H439 C426 0.951 . S
C440 C441 1.386 . S
C440 C442 1.383 . S
C440 H456 0.951 . S
C441 C440 1.386 . S
C441 C445 1.383 . S
C442 C440 1.383 . S
C442 C443 1.402 . S
C442 H457 0.951 . S
C443 C442 1.402 . S
C443 C444 1.375 . S
C443 C446 1.481 . S
C444 C443 1.375 . S
C444 C445 1.367 . S
C444 H458 0.951 . S
C445 C441 1.383 . S
C445 C444 1.367 . S
C445 H459 0.950 . S
C446 C443 1.481 . S
C446 C447 1.297 . S
C446 H460 0.950 . S
C447 C446 1.297 . S
C447 C448 1.479 . S
C447 H461 0.950 . S
C448 C447 1.479 . S
C448 C449 1.375 . S
C448 C454 1.404 . S
C449 C448 1.375 . S
C449 C450 1.369 . S
C449 H462 0.950 . S
C450 C449 1.369 . S
C450 C451 1.392 . S
C450 H463 0.951 . S
C451 C450 1.392 . S
C451 C453 1.384 . S
H452 C454 0.949 . S
C453 C451 1.384 . S
C453 C454 1.385 . S
C453 H455 0.950 . S
C454 C448 1.404 . S
C454 H452 0.949 . S
C454 C453 1.385 . S
H455 C453 0.950 . S
H456 C440 0.951 . S
H457 C442 0.951 . S
H458 C444 0.951 . S
H459 C445 0.950 . S
H460 C446 0.950 . S
H461 C447 0.950 . S
H462 C449 0.950 . S
H463 C450 0.951 . S
C464 C465 1.386 . S
C464 C466 1.383 . S
C464 H480 0.951 . S
C465 C464 1.386 . S
C465 C469 1.383 . S
C466 C464 1.383 . S
C466 C467 1.402 . S
C466 H481 0.951 . S
C467 C466 1.402 . S
C467 C468 1.375 . S
C467 C470 1.481 . S
C468 C467 1.375 . S
C468 C469 1.367 . S
C468 H482 0.951 . S
C469 C465 1.383 . S
C469 C468 1.367 . S
C469 H483 0.950 . S
C470 C467 1.481 . S
C470 C471 1.297 . S
C470 H484 0.950 . S
C471 C470 1.297 . S
C471 C472 1.479 . S
C471 H485 0.950 . S
C472 C471 1.479 . S
C472 C473 1.375 . S
C472 C478 1.404 . S
C473 C472 1.375 . S
C473 C474 1.369 . S
C473 H486 0.950 . S
C474 C473 1.369 . S
C474 C475 1.392 . S
C474 H487 0.951 . S
C475 C474 1.392 . S
C475 C477 1.384 . S
H476 C478 0.949 . S
C477 C475 1.384 . S
C477 C478 1.385 . S
C477 H479 0.950 . S
C478 C472 1.404 . S
C478 H476 0.949 . S
C478 C477 1.385 . S
H479 C477 0.950 . S
H480 C464 0.951 . S
H481 C466 0.951 . S
H482 C468 0.951 . S
H483 C469 0.950 . S
H484 C470 0.950 . S
H485 C471 0.950 . S
H486 C473 0.950 . S
H487 C474 0.951 . S
C105 C23 1.465 . S
C115 C10 1.462 . S
C129 C18 1.464 . S
C139 C36 1.461 1_554 S
C153 C42 1.464 . S
C163 C31 1.461 . S
C177 C43 1.466 1_556 S
C187 C5 1.459 . S
C201 C62 1.464 . S
C211 C75 1.455 . S
C225 C70 1.466 1_556 S
C235 C88 1.460 . S
C249 C83 1.465 . S
C259 C94 1.461 . S
C273 C57 1.464 1_554 S
C283 C95 1.462 . S
C297 C4 1.509 . S
C307 C96 1.501 . S
C321 C55 1.507 . S
C331 C16 1.494 . S
C345 C69 1.502 . S
C355 C29 1.484 . S
C369 C49 1.494 . S
C379 C82 1.484 . S
C393 C30 1.494 . S
C403 C101 1.482 . S
C417 C56 1.502 . S
C427 C44 1.484 . S
C441 C68 1.509 . S
C451 C3 1.498 . S
C465 C17 1.502 . S
C475 C81 1.485 . S
