# Generated by pormake.
# Topology ukf, (4)-cn, num edge types: 1
# Building blocks:
#     Node 0, Type 0, BuildingBlock: ICAMEG_clean_sbu_1, # of connection points: 4
#     Node 1, Type 0, BuildingBlock: ICAMEG_clean_sbu_1, # of connection points: 4
#     Node 2, Type 0, BuildingBlock: ICAMEG_clean_sbu_1, # of connection points: 4
#     Node 3, Type 0, BuildingBlock: ICAMEG_clean_sbu_1, # of connection points: 4
#     Node 4, Type 0, BuildingBlock: ICAMEG_clean_sbu_1, # of connection points: 4
#     Node 5, Type 0, BuildingBlock: ICAMEG_clean_sbu_1, # of connection points: 4
#     Node 6, Type 0, BuildingBlock: ICAMEG_clean_sbu_1, # of connection points: 4
#     Node 7, Type 0, BuildingBlock: ICAMEG_clean_sbu_1, # of connection points: 4
#     Node 8, Type 0, BuildingBlock: ICAMEG_clean_sbu_1, # of connection points: 4
#     Node 9, Type 0, BuildingBlock: ICAMEG_clean_sbu_1, # of connection points: 4
#     Node 10, Type 0, BuildingBlock: ICAMEG_clean_sbu_1, # of connection points: 4
#     Node 11, Type 0, BuildingBlock: ICAMEG_clean_sbu_1, # of connection points: 4
#     Edge 12, Type (0, 0), BuildingBlock: TEMPAE_clean_linker_10, # of connection points: 2
#     Edge 13, Type (0, 0), BuildingBlock: TEMPAE_clean_linker_10, # of connection points: 2
#     Edge 14, Type (0, 0), BuildingBlock: TEMPAE_clean_linker_10, # of connection points: 2
#     Edge 15, Type (0, 0), BuildingBlock: TEMPAE_clean_linker_10, # of connection points: 2
#     Edge 16, Type (0, 0), BuildingBlock: TEMPAE_clean_linker_10, # of connection points: 2
#     Edge 17, Type (0, 0), BuildingBlock: TEMPAE_clean_linker_10, # of connection points: 2
#     Edge 18, Type (0, 0), BuildingBlock: TEMPAE_clean_linker_10, # of connection points: 2
#     Edge 19, Type (0, 0), BuildingBlock: TEMPAE_clean_linker_10, # of connection points: 2
#     Edge 20, Type (0, 0), BuildingBlock: TEMPAE_clean_linker_10, # of connection points: 2
#     Edge 21, Type (0, 0), BuildingBlock: TEMPAE_clean_linker_10, # of connection points: 2
#     Edge 22, Type (0, 0), BuildingBlock: TEMPAE_clean_linker_10, # of connection points: 2
#     Edge 23, Type (0, 0), BuildingBlock: TEMPAE_clean_linker_10, # of connection points: 2
#     Edge 24, Type (0, 0), BuildingBlock: TEMPAE_clean_linker_10, # of connection points: 2
#     Edge 25, Type (0, 0), BuildingBlock: TEMPAE_clean_linker_10, # of connection points: 2
#     Edge 26, Type (0, 0), BuildingBlock: TEMPAE_clean_linker_10, # of connection points: 2
#     Edge 27, Type (0, 0), BuildingBlock: TEMPAE_clean_linker_10, # of connection points: 2
#     Edge 28, Type (0, 0), BuildingBlock: TEMPAE_clean_linker_10, # of connection points: 2
#     Edge 29, Type (0, 0), BuildingBlock: TEMPAE_clean_linker_10, # of connection points: 2
#     Edge 30, Type (0, 0), BuildingBlock: TEMPAE_clean_linker_10, # of connection points: 2
#     Edge 31, Type (0, 0), BuildingBlock: TEMPAE_clean_linker_10, # of connection points: 2
#     Edge 32, Type (0, 0), BuildingBlock: TEMPAE_clean_linker_10, # of connection points: 2
#     Edge 33, Type (0, 0), BuildingBlock: TEMPAE_clean_linker_10, # of connection points: 2
#     Edge 34, Type (0, 0), BuildingBlock: TEMPAE_clean_linker_10, # of connection points: 2
#     Edge 35, Type (0, 0), BuildingBlock: TEMPAE_clean_linker_10, # of connection points: 2
# Relax obj value: 0.106
# Max RMSD: 0.105
# Mean RMSD: 0.105
data_MOF--net-ukf--node1-ICAMEG_clean_sbu_1--edge1-TEMPAE_clean_linker_10
_symmetry_space_group_name_H-M    P1
_symmetry_Int_Tables_number       1
_symmetry_cell_setting            triclinic
loop_
_symmetry_equiv_pos_as_xyz
'x, y, z'
_cell_length_a     34.120868
_cell_length_b     34.085513
_cell_length_c     71.80279
_cell_angle_alpha  89.995042
_cell_angle_beta   90.040883
_cell_angle_gamma 120.03322
loop_
_atom_site_label
_atom_site_type_symbol
_atom_site_fract_x
_atom_site_fract_y
_atom_site_fract_z
_atom_type_partial_charge
Co0 Co 0.42769 0.25191 0.04458 0.0
Co1 Co 0.45137 0.1921 0.07697 0.0
O2 O 0.43283 0.23667 0.07057 0.0
C3 C 0.46641 0.34082 0.06601 0.0
O4 O 0.46592 0.32089 0.08169 0.0
C5 C 0.37357 0.16939 0.10306 0.0
O6 O 0.35131 0.17685 0.08993 0.0
O7 O 0.40132 0.14522 0.06148 0.0
O8 O 0.40278 0.18668 0.03688 0.0
H9 H 0.48785 0.06945 0.06283 0.0
H10 H 0.38235 0.27353 0.0754 0.0
O11 O 0.45268 0.31825 0.05088 0.0
H12 H 0.2612 0.18112 0.03074 0.0
H13 H 0.3929 0.33042 0.99312 0.0
H14 H 0.44904 0.22604 0.00821 0.0
H15 H 0.33972 0.19998 0.02467 0.0
H16 H 0.3976 0.31061 0.02576 0.0
O17 O 0.4117 0.17275 0.09957 0.0
H18 H 0.46581 0.12631 0.05528 0.0
H19 H 0.47542 0.16286 0.11235 0.0
H20 H 0.44447 0.2446 0.97537 0.0
H21 H 0.30465 0.25627 0.08184 0.0
H22 H 0.41623 0.29715 0.96765 0.0
H23 H 0.24321 0.20956 0.05947 0.0
O24 O 0.49076 0.26576 0.03943 0.0
H25 H 0.51931 0.31482 0.12547 0.0
H26 H 0.55075 0.22618 0.07977 0.0
H27 H 0.61339 0.28484 0.09836 0.0
H28 H 0.59786 0.32958 0.12147 0.0
H29 H 0.45778 0.25632 0.10637 0.0
H30 H 0.49724 0.10615 0.12054 0.0
H31 H 0.50373 0.05903 0.09568 0.0
O32 O 0.49277 0.21013 0.05511 0.0
C33 C 0.39076 0.14855 0.0447 0.0
C34 C 0.48514 0.08975 0.0738 0.0
C35 C 0.49034 0.1103 0.10618 0.0
N36 N 0.46917 0.14783 0.08336 0.0
C37 C 0.47267 0.12203 0.06961 0.0
C38 C 0.47776 0.14224 0.10147 0.0
C39 C 0.49401 0.08391 0.09223 0.0
C40 C 0.35631 0.25401 0.06538 0.0
N41 N 0.36608 0.2385 0.04951 0.0
C42 C 0.3121 0.24396 0.0692 0.0
C43 C 0.27762 0.21766 0.05667 0.0
C44 C 0.28769 0.20167 0.04057 0.0
C45 C 0.33228 0.21237 0.03723 0.0
C46 C 0.40519 0.30742 0.9963 0.0
C47 C 0.43644 0.2487 0.00496 0.0
C48 C 0.40805 0.29618 0.01476 0.0
N49 N 0.42327 0.26692 0.01888 0.0
C50 C 0.43406 0.25919 0.98634 0.0
C51 C 0.41826 0.28872 0.98202 0.0
C52 C 0.50926 0.24225 0.04329 0.0
C53 C 0.52654 0.2956 0.11543 0.0
C54 C 0.54373 0.24585 0.0896 0.0
C55 C 0.57934 0.27886 0.10019 0.0
C56 C 0.5706 0.30389 0.11317 0.0
N57 N 0.50059 0.238 0.09184 0.0
C58 C 0.49178 0.26232 0.1046 0.0
Co59 Co 0.17321 0.41619 0.37461 0.0
Co60 Co 0.25884 0.45011 0.40677 0.0
O61 O 0.19518 0.42757 0.4004 0.0
C62 C 0.13649 0.47344 0.38919 0.0
O63 O 0.17645 0.50088 0.39639 0.0
C64 C 0.20859 0.37421 0.43419 0.0
O65 O 0.18031 0.34859 0.42117 0.0
O66 O 0.25855 0.39938 0.39273 0.0
O67 O 0.21533 0.39312 0.36803 0.0
H68 H 0.4201 0.49372 0.39314 0.0
H69 H 0.10797 0.37834 0.40579 0.0
O70 O 0.12981 0.43824 0.38032 0.0
H71 H 0.08374 0.24608 0.36884 0.0
H72 H 0.05392 0.36381 0.32456 0.0
H73 H 0.21707 0.43177 0.33762 0.0
H74 H 0.14043 0.32347 0.35915 0.0
H75 H 0.08202 0.37722 0.35691 0.0
O76 O 0.24084 0.41371 0.43029 0.0
H77 H 0.34007 0.46625 0.38548 0.0
H78 H 0.31294 0.48175 0.44189 0.0
H79 H 0.19038 0.41853 0.30506 0.0
H80 H 0.05047 0.30156 0.41589 0.0
H81 H 0.10825 0.38433 0.29837 0.0
H82 H 0.03818 0.23475 0.39739 0.0
O83 O 0.22027 0.47885 0.36705 0.0
H84 H 0.19642 0.51888 0.45128 0.0
H85 H 0.32039 0.55056 0.40766 0.0
H86 H 0.31996 0.61391 0.42402 0.0
H87 H 0.25769 0.59825 0.44605 0.0
H88 H 0.19788 0.45657 0.43444 0.0
H89 H 0.39262 0.50905 0.4502 0.0
H90 H 0.44687 0.51533 0.42571 0.0
O91 O 0.27952 0.48826 0.38396 0.0
C92 C 0.24375 0.38508 0.37631 0.0
C93 C 0.3968 0.49114 0.40393 0.0
C94 C 0.38136 0.49967 0.43596 0.0
N95 N 0.32177 0.47226 0.41322 0.0
C96 C 0.35142 0.47561 0.39968 0.0
C97 C 0.33621 0.48399 0.43119 0.0
C98 C 0.41179 0.50323 0.42221 0.0
C99 C 0.10257 0.34945 0.3976 0.0
N100 N 0.12761 0.35538 0.38192 0.0
C101 C 0.07007 0.30605 0.40341 0.0
C102 C 0.06324 0.26858 0.39304 0.0
C103 C 0.08883 0.2749 0.37704 0.0
C104 C 0.12107 0.3188 0.37167 0.0
C105 C 0.08977 0.37868 0.3273 0.0
C106 C 0.18126 0.41664 0.33482 0.0
C107 C 0.1059 0.38648 0.34559 0.0
N108 N 0.15112 0.40504 0.34915 0.0
C109 C 0.16636 0.40933 0.31636 0.0
C110 C 0.12028 0.39018 0.31261 0.0
C111 C 0.26245 0.50022 0.37091 0.0
C112 C 0.2238 0.52613 0.44175 0.0
C113 C 0.29305 0.54345 0.41714 0.0
C114 C 0.29307 0.57947 0.42642 0.0
C115 C 0.25815 0.57066 0.43879 0.0
N116 N 0.25926 0.49985 0.42013 0.0
C117 C 0.22491 0.49096 0.43224 0.0
Co118 Co 0.76417 0.17065 0.70781 0.0
Co119 Co 0.82075 0.2483 0.74206 0.0
O120 O 0.77771 0.186 0.7343 0.0
C121 C 0.67217 0.12801 0.72477 0.0
O122 O 0.68495 0.16615 0.73371 0.0
C123 C 0.83973 0.1895 0.76792 0.0
O124 O 0.82617 0.15713 0.75546 0.0
O125 O 0.86865 0.24765 0.72638 0.0
O126 O 0.82811 0.21641 0.70046 0.0
H127 H 0.94208 0.40984 0.73116 0.0
H128 H 0.74116 0.09608 0.73459 0.0
O129 O 0.69996 0.12419 0.71413 0.0
H130 H 0.84882 0.09005 0.69053 0.0
H131 H 0.69262 0.06455 0.65355 0.0
H132 H 0.78556 0.22415 0.67295 0.0
H133 H 0.82548 0.14738 0.68689 0.0
H134 H 0.71163 0.08421 0.68666 0.0
O135 O 0.84031 0.22626 0.76413 0.0
H136 H 0.88676 0.33149 0.72203 0.0
H137 H 0.84758 0.29725 0.77852 0.0
H138 H 0.76767 0.206 0.63969 0.0
H139 H 0.76307 0.03772 0.73858 0.0
H140 H 0.72086 0.12569 0.6298 0.0
H141 H 0.81742 0.03458 0.71648 0.0
O142 O 0.74609 0.21751 0.70501 0.0
H143 H 0.69294 0.18246 0.78821 0.0
H144 H 0.78597 0.31258 0.74726 0.0
H145 H 0.72513 0.31208 0.76592 0.0
H146 H 0.67821 0.24675 0.78665 0.0
H147 H 0.75366 0.18402 0.76909 0.0
H148 H 0.90282 0.3751 0.78827 0.0
H149 H 0.95041 0.4321 0.76449 0.0
O150 O 0.80263 0.27396 0.72081 0.0
C151 C 0.86589 0.23932 0.70894 0.0
C152 C 0.92149 0.38534 0.74164 0.0
C153 C 0.89949 0.36583 0.7737 0.0
N154 N 0.86383 0.3098 0.7497 0.0
C155 C 0.89005 0.34092 0.73656 0.0
C156 C 0.86838 0.32173 0.76809 0.0
C157 C 0.92617 0.39779 0.76035 0.0
C158 C 0.7645 0.09465 0.72482 0.0
N159 N 0.78201 0.12511 0.71054 0.0
C160 C 0.77693 0.06165 0.72719 0.0
C161 C 0.80748 0.05996 0.71481 0.0
C162 C 0.82515 0.09111 0.70026 0.0
C163 C 0.81197 0.12364 0.69833 0.0
C164 C 0.71312 0.09967 0.65768 0.0
C165 C 0.76542 0.18911 0.66875 0.0
C166 C 0.72392 0.11101 0.67641 0.0
N167 N 0.74997 0.15527 0.68172 0.0
C168 C 0.75529 0.17904 0.6499 0.0
C169 C 0.72899 0.13398 0.64436 0.0
C170 C 0.76949 0.2592 0.70946 0.0
C171 C 0.71325 0.21119 0.77928 0.0
C172 C 0.76556 0.28389 0.75615 0.0
C173 C 0.73124 0.28388 0.76674 0.0
C174 C 0.70495 0.24724 0.77837 0.0
N175 N 0.77357 0.24845 0.75714 0.0
C176 C 0.74785 0.21238 0.76849 0.0
Co177 Co 0.58715 0.75825 0.04341 0.0
Co178 Co 0.56221 0.81868 0.07482 0.0
O179 O 0.58019 0.7734 0.06917 0.0
C180 C 0.54568 0.66922 0.06476 0.0
O181 O 0.54434 0.68898 0.0802 0.0
C182 C 0.63788 0.84106 0.10201 0.0
O183 O 0.66216 0.83639 0.08895 0.0
O184 O 0.61429 0.86521 0.06012 0.0
O185 O 0.61294 0.82356 0.03563 0.0
H186 H 0.53012 0.94362 0.05913 0.0
H187 H 0.62955 0.7359 0.07509 0.0
O188 O 0.5615 0.69186 0.04977 0.0
H189 H 0.7546 0.82838 0.03204 0.0
H190 H 0.6255 0.67988 0.99311 0.0
H191 H 0.56861 0.78442 0.00651 0.0
H192 H 0.67675 0.81004 0.02468 0.0
H193 H 0.61833 0.69945 0.02552 0.0
O194 O 0.59943 0.83654 0.09814 0.0
H195 H 0.55126 0.88574 0.05241 0.0
H196 H 0.53601 0.84839 0.10951 0.0
H197 H 0.57566 0.76612 0.9739 0.0
H198 H 0.70658 0.75271 0.08284 0.0
H199 H 0.60429 0.71349 0.96703 0.0
H200 H 0.76995 0.79943 0.06127 0.0
O201 O 0.52457 0.74485 0.03738 0.0
H202 H 0.48684 0.69522 0.12264 0.0
H203 H 0.46306 0.78652 0.07554 0.0
H204 H 0.39777 0.72828 0.09308 0.0
H205 H 0.40943 0.6822 0.11689 0.0
H206 H 0.55112 0.75334 0.10457 0.0
H207 H 0.515 0.9061 0.11687 0.0
H208 H 0.51182 0.95415 0.09157 0.0
O209 O 0.52327 0.80191 0.05217 0.0
C210 C 0.62537 0.86178 0.04345 0.0
C211 C 0.53139 0.92292 0.07028 0.0
C212 C 0.52298 0.90191 0.10268 0.0
N213 N 0.54505 0.86375 0.08055 0.0
C214 C 0.54335 0.89005 0.06656 0.0
C215 C 0.53511 0.8694 0.09844 0.0
C216 C 0.52116 0.92882 0.08848 0.0
C217 C 0.65651 0.75549 0.06544 0.0
N218 N 0.64821 0.77127 0.04928 0.0
C219 C 0.70029 0.76526 0.06999 0.0
C220 C 0.73585 0.79156 0.05791 0.0
C221 C 0.72726 0.80783 0.04152 0.0
C222 C 0.68305 0.79741 0.03745 0.0
C223 C 0.61305 0.70291 0.99592 0.0
C224 C 0.58134 0.7617 1.00363 0.0
C225 C 0.60878 0.71401 0.01425 0.0
N226 N 0.59336 0.74331 0.0179 0.0
C227 C 0.58515 0.75136 0.98514 0.0
C228 C 0.60116 0.72179 0.9813 0.0
C229 C 0.50677 0.76934 0.04054 0.0
C230 C 0.4813 0.71503 0.11229 0.0
C231 C 0.46842 0.76627 0.08569 0.0
C232 C 0.43131 0.7335 0.09567 0.0
C233 C 0.43788 0.70771 0.10904 0.0
N234 N 0.51092 0.77312 0.08889 0.0
C235 C 0.51761 0.74808 0.10203 0.0
Co236 Co 0.83692 0.59266 0.37577 0.0
Co237 Co 0.75703 0.56605 0.4094 0.0
O238 O 0.81981 0.58651 0.40217 0.0
C239 C 0.87935 0.54144 0.39124 0.0
O240 O 0.84085 0.51441 0.3996 0.0
C241 C 0.81246 0.64101 0.43681 0.0
O242 O 0.84274 0.66447 0.42403 0.0
O243 O 0.75919 0.61756 0.39532 0.0
O244 O 0.79134 0.61155 0.36902 0.0
H245 H 0.59684 0.52884 0.3976 0.0
H246 H 0.90883 0.64033 0.40399 0.0
O247 O 0.88337 0.57447 0.38147 0.0
H248 H 0.91721 0.7605 0.36307 0.0
H249 H 0.94662 0.63643 0.32237 0.0
H250 H 0.78584 0.56595 0.34019 0.0
H251 H 0.86118 0.6803 0.35711 0.0
H252 H 0.9247 0.63043 0.35543 0.0
O253 O 0.77767 0.6033 0.43271 0.0
H254 H 0.67573 0.55322 0.38907 0.0
H255 H 0.70513 0.53705 0.4451 0.0
H256 H 0.80628 0.57155 0.30698 0.0
H257 H 0.96587 0.7201 0.4103 0.0
H258 H 0.88718 0.607 0.29788 0.0
H259 H 0.97018 0.78083 0.38979 0.0
O260 O 0.79054 0.52804 0.37132 0.0
H261 H 0.81842 0.49487 0.45321 0.0
H262 H 0.69222 0.46625 0.41133 0.0
H263 H 0.691 0.40227 0.42785 0.0
H264 H 0.75437 0.41639 0.44902 0.0
H265 H 0.81859 0.55781 0.43621 0.0
H266 H 0.62666 0.51295 0.45427 0.0
H267 H 0.57183 0.50852 0.43041 0.0
O268 O 0.73303 0.52651 0.38683 0.0
C269 C 0.7686 0.62571 0.37805 0.0
C270 C 0.6204 0.53061 0.40812 0.0
C271 C 0.63715 0.52174 0.43993 0.0
N272 N 0.69507 0.54655 0.41656 0.0
C273 C 0.66513 0.54436 0.40337 0.0
C274 C 0.68162 0.5356 0.43467 0.0
C275 C 0.6064 0.51923 0.42653 0.0
C276 C 0.91083 0.66655 0.3949 0.0
N277 N 0.88179 0.65566 0.38019 0.0
C278 C 0.94306 0.71166 0.39858 0.0
C279 C 0.94541 0.74573 0.38709 0.0
C280 C 0.91567 0.73435 0.3721 0.0
C281 C 0.88389 0.68887 0.36884 0.0
C282 C 0.91125 0.62098 0.32616 0.0
C283 C 0.82113 0.58163 0.33635 0.0
C284 C 0.89863 0.61739 0.34486 0.0
N285 N 0.85404 0.59809 0.34973 0.0
C286 C 0.83249 0.58461 0.31752 0.0
C287 C 0.87789 0.60447 0.31242 0.0
C288 C 0.74853 0.50943 0.37519 0.0
C289 C 0.79055 0.4883 0.44406 0.0
C290 C 0.72006 0.47269 0.42042 0.0
C291 C 0.7191 0.43631 0.4298 0.0
C292 C 0.75464 0.44427 0.44169 0.0
N293 N 0.75539 0.51581 0.42284 0.0
C294 C 0.79036 0.52384 0.43446 0.0
Co295 Co 0.25158 0.83814 0.70991 0.0
Co296 Co 0.20019 0.75292 0.74236 0.0
O297 O 0.24109 0.8165 0.73573 0.0
C298 C 0.34548 0.87406 0.72431 0.0
O299 O 0.33254 0.83392 0.73145 0.0
C300 C 0.17449 0.80419 0.76916 0.0
O301 O 0.17745 0.83202 0.75588 0.0
O302 O 0.14962 0.75217 0.728 0.0
O303 O 0.18628 0.79625 0.70344 0.0
H304 H 0.08378 0.59058 0.72937 0.0
H305 H 0.2799 0.90389 0.74099 0.0
O306 O 0.31717 0.8812 0.71554 0.0
H307 H 0.17232 0.92876 0.70409 0.0
H308 H 0.31891 0.95691 0.65968 0.0
H309 H 0.22256 0.79387 0.67299 0.0
H310 H 0.19222 0.87149 0.69445 0.0
H311 H 0.30437 0.92915 0.69207 0.0
O312 O 0.18141 0.77157 0.76561 0.0
H313 H 0.1359 0.67057 0.72135 0.0
H314 H 0.17758 0.70014 0.77782 0.0
H315 H 0.23584 0.82022 0.6404 0.0
H316 H 0.26145 0.96198 0.75103 0.0
H317 H 0.28435 0.90229 0.63357 0.0
H318 H 0.20715 0.97459 0.73256 0.0
O319 O 0.26657 0.79067 0.70238 0.0
H320 H 0.33111 0.81801 0.78709 0.0
H321 H 0.2397 0.69204 0.74402 0.0
H322 H 0.30361 0.6937 0.76074 0.0
H323 H 0.34978 0.75697 0.7825 0.0
H324 H 0.26722 0.81531 0.76991 0.0
H325 H 0.12562 0.62053 0.78649 0.0
H326 H 0.07836 0.56508 0.76216 0.0
O327 O 0.21815 0.73177 0.71984 0.0
C328 C 0.14998 0.76729 0.71166 0.0
C329 C 0.10419 0.61441 0.7401 0.0
C330 C 0.12762 0.63124 0.77216 0.0
N331 N 0.1597 0.69008 0.7491 0.0
C332 C 0.13379 0.65977 0.73564 0.0
C333 C 0.15684 0.67634 0.76718 0.0
C334 C 0.10114 0.60013 0.7585 0.0
C335 C 0.2565 0.90943 0.7328 0.0
N336 N 0.23703 0.88421 0.71718 0.0
C337 C 0.24608 0.94226 0.73859 0.0
C338 C 0.21556 0.94927 0.72824 0.0
C339 C 0.19595 0.92352 0.71228 0.0
C340 C 0.20714 0.89094 0.70694 0.0
C341 C 0.29766 0.92108 0.66248 0.0
C342 C 0.24349 0.82967 0.67014 0.0
C343 C 0.28942 0.90514 0.68079 0.0
N344 N 0.26243 0.85996 0.68442 0.0
C345 C 0.25099 0.84437 0.65165 0.0
C346 C 0.27825 0.89041 0.64783 0.0
C347 C 0.24652 0.74866 0.70656 0.0
C348 C 0.31117 0.79019 0.77769 0.0
C349 C 0.25972 0.7198 0.75339 0.0
C350 C 0.29581 0.72048 0.76287 0.0
C351 C 0.32167 0.75597 0.77509 0.0
N352 N 0.24959 0.75347 0.75602 0.0
C353 C 0.27481 0.78837 0.76798 0.0
Co354 Co 0.76381 0.59428 0.63376 0.0
Co355 Co 0.8162 0.56188 0.60121 0.0
O356 O 0.77509 0.58427 0.60786 0.0
C357 C 0.67027 0.53708 0.61875 0.0
O358 O 0.68327 0.51023 0.61134 0.0
C359 C 0.84095 0.63885 0.57434 0.0
O360 O 0.8347 0.66248 0.58722 0.0
O361 O 0.86631 0.61128 0.61593 0.0
O362 O 0.82892 0.61742 0.64049 0.0
H363 H 0.93224 0.51578 0.61437 0.0
H364 H 0.7361 0.63313 0.60301 0.0
O365 O 0.69839 0.57199 0.62788 0.0
H366 H 0.84313 0.76404 0.64087 0.0
H367 H 0.69518 0.64353 0.68421 0.0
H368 H 0.79165 0.57733 0.67061 0.0
H369 H 0.82312 0.68639 0.64986 0.0
H370 H 0.71066 0.63179 0.65176 0.0
O371 O 0.83596 0.60014 0.57816 0.0
H372 H 0.87987 0.54325 0.62234 0.0
H373 H 0.83991 0.53296 0.56569 0.0
H374 H 0.77741 0.5889 0.70326 0.0
H375 H 0.7546 0.71015 0.59364 0.0
H376 H 0.72884 0.62221 0.71023 0.0
H377 H 0.80864 0.77629 0.61259 0.0
O378 O 0.74846 0.53144 0.64086 0.0
H379 H 0.68675 0.49755 0.55575 0.0
H380 H 0.77675 0.46149 0.59892 0.0
H381 H 0.71343 0.39977 0.58167 0.0
H382 H 0.66799 0.41764 0.55986 0.0
H383 H 0.75 0.55817 0.57347 0.0
H384 H 0.89215 0.50573 0.55708 0.0
H385 H 0.93868 0.49683 0.58152 0.0
O386 O 0.79753 0.52191 0.62348 0.0
C387 C 0.86547 0.62526 0.63238 0.0
C388 C 0.91215 0.5195 0.60359 0.0
C389 C 0.88969 0.51393 0.57143 0.0
N390 N 0.85688 0.53981 0.5945 0.0
C391 C 0.8824 0.53503 0.60802 0.0
C392 C 0.8603 0.52956 0.57639 0.0
C393 C 0.91576 0.50891 0.58516 0.0
C394 C 0.75936 0.66171 0.61141 0.0
N395 N 0.77865 0.65528 0.62693 0.0
C396 C 0.76983 0.70526 0.606 0.0
C397 C 0.80021 0.74236 0.61662 0.0
C398 C 0.81963 0.73551 0.63247 0.0
C399 C 0.80839 0.69148 0.63744 0.0
C400 C 0.71645 0.62905 0.68135 0.0
C401 C 0.77069 0.59209 0.67353 0.0
C402 C 0.72523 0.62219 0.663 0.0
N403 N 0.75224 0.60412 0.65929 0.0
C404 C 0.76265 0.59845 0.69205 0.0
C405 C 0.73536 0.61709 0.69595 0.0
C406 C 0.76874 0.50977 0.63662 0.0
C407 C 0.70638 0.48934 0.56518 0.0
C408 C 0.75703 0.46955 0.58954 0.0
C409 C 0.72129 0.43445 0.57975 0.0
C410 C 0.69583 0.44451 0.56751 0.0
N411 N 0.76723 0.51346 0.58716 0.0
C412 C 0.74239 0.52356 0.57518 0.0
Co413 Co 0.16626 0.76389 0.96625 0.0
Co414 Co 0.24888 0.81412 0.93237 0.0
O415 O 0.18566 0.77481 0.94007 0.0
C416 C 0.12918 0.6702 0.95129 0.0
O417 O 0.16841 0.6838 0.94319 0.0
C418 C 0.19483 0.839 0.90633 0.0
O419 O 0.16257 0.82743 0.91869 0.0
O420 O 0.25409 0.86499 0.94809 0.0
O421 O 0.2088 0.82934 0.97253 0.0
H422 H 0.41414 0.92348 0.94331 0.0
H423 H 0.09695 0.73475 0.93652 0.0
O424 O 0.12278 0.6981 0.96078 0.0
H425 H 0.07625 0.843 0.97488 0.0
H426 H 0.05211 0.69587 0.01808 0.0
H427 H 0.21365 0.79287 1.00256 0.0
H428 H 0.13481 0.82362 0.9829 0.0
H429 H 0.07697 0.71072 0.98532 0.0
O430 O 0.23007 0.83684 0.91029 0.0
H431 H 0.33453 0.87374 0.95245 0.0
H432 H 0.29758 0.83754 0.89588 0.0
H433 H 0.19021 0.77926 0.03551 0.0
H434 H 0.03737 0.75246 0.92816 0.0
H435 H 0.10891 0.73042 0.04344 0.0
H436 H 0.02689 0.80715 0.94736 0.0
O437 O 0.21402 0.74857 0.97279 0.0
H438 H 0.17321 0.68643 0.88634 0.0
H439 H 0.30573 0.77086 0.92724 0.0
H440 H 0.29881 0.70686 0.90869 0.0
H441 H 0.23223 0.66423 0.888 0.0
H442 H 0.18112 0.75018 0.90534 0.0
H443 H 0.37672 0.88721 0.88612 0.0
H444 H 0.43569 0.9305 0.90993 0.0
O445 O 0.27071 0.79271 0.95352 0.0
C446 C 0.23911 0.86515 0.96441 0.0
C447 C 0.38876 0.9048 0.93281 0.0
C448 C 0.36775 0.88449 0.90071 0.0
N449 N 0.31135 0.8528 0.92473 0.0
C450 C 0.34361 0.87655 0.9379 0.0
C451 C 0.32293 0.85656 0.90632 0.0
C452 C 0.40082 0.90873 0.91407 0.0
C453 C 0.09235 0.7583 0.94503 0.0
N454 N 0.11957 0.7784 0.96011 0.0
C455 C 0.05867 0.76832 0.94019 0.0
C456 C 0.05285 0.79906 0.95094 0.0
C457 C 0.0806 0.81926 0.96636 0.0
C458 C 0.11395 0.80843 0.97077 0.0
C459 C 0.08762 0.71727 0.0148 0.0
C460 C 0.17817 0.77181 0.0059 0.0
C461 C 0.10192 0.7257 0.99627 0.0
N462 N 0.14669 0.75287 0.99203 0.0
C463 C 0.16512 0.76412 0.02458 0.0
C464 C 0.11951 0.73668 0.02902 0.0
C465 C 0.25489 0.76577 0.96729 0.0
C466 C 0.20246 0.70484 0.89526 0.0
C467 C 0.27654 0.75237 0.91836 0.0
C468 C 0.27288 0.71623 0.90783 0.0
C469 C 0.23554 0.69235 0.89621 0.0
N470 N 0.24401 0.76452 0.91732 0.0
C471 C 0.20726 0.74117 0.90598 0.0
Co472 Co 0.41468 0.16928 0.29909 0.0
Co473 Co 0.44659 0.25316 0.26595 0.0
O474 O 0.42381 0.18979 0.27308 0.0
C475 C 0.47211 0.13346 0.28407 0.0
O476 O 0.49832 0.1733 0.27651 0.0
C477 C 0.36801 0.19988 0.23986 0.0
O478 O 0.34561 0.16963 0.25279 0.0
O479 O 0.39894 0.2557 0.28121 0.0
O480 O 0.39134 0.21116 0.30566 0.0
H481 H 0.49662 0.41685 0.27802 0.0
H482 H 0.37549 0.10156 0.26873 0.0
O483 O 0.43732 0.12638 0.29333 0.0
H484 H 0.24537 0.07785 0.30694 0.0
H485 H 0.36768 0.05284 0.3501 0.0
H486 H 0.4321 0.21511 0.33573 0.0
H487 H 0.323 0.13632 0.31549 0.0
H488 H 0.37841 0.07914 0.31752 0.0
O489 O 0.40655 0.23411 0.24343 0.0
H490 H 0.46845 0.3371 0.28658 0.0
H491 H 0.47325 0.30386 0.22993 0.0
H492 H 0.42154 0.19022 0.36851 0.0
H493 H 0.2985 0.04218 0.2598 0.0
H494 H 0.38913 0.10855 0.37586 0.0
H495 H 0.23275 0.03016 0.27893 0.0
O496 O 0.47749 0.21723 0.30595 0.0
H497 H 0.50509 0.18345 0.22005 0.0
H498 H 0.54683 0.31261 0.26224 0.0
H499 H 0.60635 0.30877 0.24428 0.0
H500 H 0.58561 0.24388 0.22295 0.0
H501 H 0.44674 0.18832 0.23846 0.0
H502 H 0.50109 0.38318 0.22074 0.0
H503 H 0.51311 0.44036 0.24488 0.0
O504 O 0.4883 0.27502 0.28767 0.0
C505 C 0.38446 0.2406 0.29758 0.0
C506 C 0.49153 0.39227 0.26737 0.0
C507 C 0.49398 0.37335 0.23522 0.0
N508 N 0.46913 0.31579 0.25878 0.0
C509 C 0.47561 0.34704 0.27214 0.0
C510 C 0.47802 0.32843 0.24051 0.0
C511 C 0.50075 0.40542 0.24878 0.0
C512 C 0.34708 0.09629 0.2772 0.0
N513 N 0.35371 0.12256 0.29257 0.0
C514 C 0.30355 0.06272 0.27204 0.0
C515 C 0.26667 0.05605 0.28276 0.0
C516 C 0.27372 0.08285 0.29846 0.0
C517 C 0.31773 0.11613 0.30317 0.0
C518 C 0.38177 0.08851 0.34707 0.0
C519 C 0.41772 0.17948 0.33882 0.0
C520 C 0.38805 0.10362 0.32865 0.0
N521 N 0.40562 0.14859 0.32473 0.0
C522 C 0.41194 0.1656 0.35741 0.0
C523 C 0.3938 0.11978 0.36152 0.0
C524 C 0.50001 0.25878 0.30111 0.0
C525 C 0.51455 0.21196 0.22925 0.0
C526 C 0.53753 0.28416 0.25307 0.0
C527 C 0.57138 0.28224 0.24289 0.0
C528 C 0.55972 0.24584 0.23091 0.0
N529 N 0.49327 0.25083 0.25135 0.0
C530 C 0.48161 0.21502 0.23965 0.0
Co531 Co 0.2514 0.41637 0.63261 0.0
Co532 Co 0.19747 0.44074 0.59831 0.0
O533 O 0.23968 0.4205 0.60609 0.0
C534 C 0.3445 0.46678 0.61668 0.0
O535 O 0.33255 0.49308 0.608 0.0
C536 C 0.17874 0.36439 0.57168 0.0
O537 O 0.19024 0.34389 0.58417 0.0
O538 O 0.14841 0.39096 0.61314 0.0
O539 O 0.18708 0.39781 0.63942 0.0
H540 H 0.07617 0.48082 0.60904 0.0
H541 H 0.27563 0.36679 0.60533 0.0
O542 O 0.31592 0.43436 0.62682 0.0
H543 H 0.16451 0.24956 0.64741 0.0
H544 H 0.31917 0.37698 0.68677 0.0
H545 H 0.22787 0.44555 0.66773 0.0
H546 H 0.18838 0.33007 0.6522 0.0
H547 H 0.30223 0.38039 0.65361 0.0
O548 O 0.17923 0.40101 0.57568 0.0
H549 H 0.13051 0.45664 0.61818 0.0
H550 H 0.1733 0.46614 0.56199 0.0
H551 H 0.24376 0.44258 0.70105 0.0
H552 H 0.25326 0.28668 0.60021 0.0
H553 H 0.28972 0.40809 0.71076 0.0
H554 H 0.19716 0.22741 0.62129 0.0
O555 O 0.26965 0.48121 0.63627 0.0
H556 H 0.32826 0.50621 0.55361 0.0
H557 H 0.23319 0.54037 0.59454 0.0
H558 H 0.29549 0.6022 0.57695 0.0
H559 H 0.34346 0.58528 0.55625 0.0
H560 H 0.26601 0.4455 0.57166 0.0
H561 H 0.11906 0.48995 0.55222 0.0
H562 H 0.07015 0.49764 0.57584 0.0
O563 O 0.21432 0.48264 0.62016 0.0
C564 C 0.15005 0.38354 0.63046 0.0
C565 C 0.09734 0.47766 0.59862 0.0
C566 C 0.12137 0.48273 0.56673 0.0
N567 N 0.15518 0.46008 0.59066 0.0
C568 C 0.12823 0.46403 0.60372 0.0
C569 C 0.15192 0.46907 0.57235 0.0
C570 C 0.09396 0.48706 0.57999 0.0
C571 C 0.25155 0.34123 0.61467 0.0
N572 N 0.23337 0.35312 0.62904 0.0
C573 C 0.23886 0.29591 0.61166 0.0
C574 C 0.20733 0.26267 0.62347 0.0
C575 C 0.18896 0.27506 0.63811 0.0
C576 C 0.20246 0.32071 0.64071 0.0
C577 C 0.29904 0.39202 0.68272 0.0
C578 C 0.24769 0.43027 0.67185 0.0
C579 C 0.28941 0.39413 0.66395 0.0
N580 N 0.26385 0.4129 0.65874 0.0
C581 C 0.25667 0.42878 0.69073 0.0
C582 C 0.2825 0.40947 0.69617 0.0
C583 C 0.24668 0.49998 0.63191 0.0
C584 C 0.30751 0.514 0.56254 0.0
C585 C 0.25404 0.53273 0.58565 0.0
C586 C 0.28919 0.56788 0.57567 0.0
C587 C 0.31607 0.55836 0.56405 0.0
N588 N 0.24579 0.48927 0.58408 0.0
C589 C 0.27206 0.47971 0.57273 0.0
Co590 Co 0.84563 0.24573 0.96478 0.0
Co591 Co 0.75993 0.19555 0.93236 0.0
O592 O 0.82366 0.23567 0.93898 0.0
C593 C 0.88141 0.34005 0.95078 0.0
O594 O 0.84127 0.32701 0.94366 0.0
C595 C 0.80975 0.16872 0.90521 0.0
O596 O 0.83797 0.17142 0.91826 0.0
O597 O 0.75826 0.14436 0.94664 0.0
O598 O 0.80364 0.18014 0.97104 0.0
H599 H 0.59713 0.08124 0.94547 0.0
H600 H 0.91074 0.27434 0.93351 0.0
O601 O 0.88875 0.3116 0.95935 0.0
H602 H 0.93588 0.16595 0.96973 0.0
H603 H 0.96496 0.31209 0.01483 0.0
H604 H 0.8019 0.21601 1.00173 0.0
H605 H 0.87901 0.18598 0.97977 0.0
H606 H 0.9368 0.29814 0.98249 0.0
O607 O 0.77769 0.17624 0.90904 0.0
H608 H 0.67734 0.13226 0.95342 0.0
H609 H 0.70692 0.17397 0.89697 0.0
H610 H 0.82865 0.2287 0.03427 0.0
H611 H 0.96842 0.25577 0.92306 0.0
H612 H 0.91073 0.27708 0.04099 0.0
H613 H 0.98116 0.20107 0.94119 0.0
O614 O 0.79854 0.26093 0.97266 0.0
H615 H 0.82666 0.32682 0.88779 0.0
H616 H 0.70049 0.23671 0.93086 0.0
H617 H 0.70335 0.3014 0.91427 0.0
H618 H 0.76674 0.34692 0.89252 0.0
H619 H 0.82278 0.26218 0.90484 0.0
H620 H 0.62709 0.12311 0.88837 0.0
H621 H 0.57151 0.07638 0.91272 0.0
O622 O 0.73954 0.21401 0.95491 0.0
C623 C 0.77391 0.14414 0.96282 0.0
C624 C 0.62102 0.10138 0.93472 0.0
C625 C 0.63785 0.12483 0.90268 0.0
N626 N 0.6969 0.15592 0.92567 0.0
C627 C 0.66651 0.13034 0.93914 0.0
C628 C 0.68308 0.1534 0.90762 0.0
C629 C 0.60668 0.09866 0.91635 0.0
C630 C 0.91632 0.25075 0.94154 0.0
N631 N 0.8914 0.23111 0.9572 0.0
C632 C 0.94893 0.24026 0.93552 0.0
C633 C 0.95601 0.20952 0.94568 0.0
C634 C 0.93057 0.18975 0.96168 0.0
C635 C 0.89822 0.20101 0.96725 0.0
C636 C 0.92912 0.2909 0.01208 0.0
C637 C 0.83769 0.23688 0.00453 0.0
C638 C 0.91296 0.28298 0.9938 0.0
N639 N 0.86777 0.25607 0.99022 0.0
C640 C 0.85263 0.24404 0.02299 0.0
C641 C 0.89868 0.27123 0.02675 0.0
C642 C 0.75669 0.24184 0.96835 0.0
C643 C 0.7988 0.30717 0.8972 0.0
C644 C 0.7283 0.25645 0.9215 0.0
C645 C 0.72966 0.29297 0.91209 0.0
C646 C 0.76521 0.31847 0.89988 0.0
N647 N 0.76136 0.24553 0.91879 0.0
C648 C 0.79631 0.27039 0.90683 0.0
Co649 Co 0.59647 0.83854 0.29981 0.0
Co650 Co 0.57595 0.76125 0.26545 0.0
O651 O 0.59517 0.82348 0.27332 0.0
C652 C 0.54723 0.88122 0.28277 0.0
O653 O 0.52184 0.84303 0.27386 0.0
C654 C 0.65303 0.82093 0.2394 0.0
O655 O 0.67049 0.85425 0.25149 0.0
O656 O 0.62411 0.76156 0.28136 0.0
O657 O 0.61436 0.79261 0.30724 0.0
H658 H 0.53499 0.59944 0.27622 0.0
H659 H 0.64865 0.91363 0.27332 0.0
O660 O 0.5789 0.88511 0.29341 0.0
H661 H 0.76135 0.91858 0.31773 0.0
H662 H 0.63003 0.94405 0.35419 0.0
H663 H 0.56362 0.78465 0.33455 0.0
H664 H 0.68059 0.86129 0.32102 0.0
H665 H 0.63001 0.92475 0.32109 0.0
O666 O 0.61805 0.7834 0.24352 0.0
H667 H 0.55805 0.67774 0.28543 0.0
H668 H 0.55456 0.71272 0.2289 0.0
H669 H 0.56323 0.80245 0.36781 0.0
H670 H 0.72902 0.97197 0.26969 0.0
H671 H 0.59662 0.88266 0.37782 0.0
H672 H 0.78602 0.97457 0.29196 0.0
O673 O 0.53147 0.79174 0.30236 0.0
H674 H 0.51505 0.82807 0.21918 0.0
H675 H 0.47708 0.69702 0.2597 0.0
H676 H 0.41721 0.69782 0.24077 0.0
H677 H 0.43606 0.76361 0.22026 0.0
H678 H 0.57369 0.82623 0.23857 0.0
H679 H 0.53195 0.63493 0.21907 0.0
H680 H 0.52179 0.57758 0.24282 0.0
O681 O 0.53163 0.73541 0.2865 0.0
C682 C 0.62932 0.76972 0.29882 0.0
C683 C 0.53924 0.6241 0.26574 0.0
C684 C 0.53759 0.64403 0.23367 0.0
N685 N 0.55755 0.6998 0.25774 0.0
C686 C 0.55224 0.66849 0.27087 0.0
C687 C 0.55058 0.6881 0.23932 0.0
C688 C 0.53187 0.61187 0.247 0.0
C689 C 0.6732 0.91481 0.28316 0.0
N690 N 0.65993 0.88405 0.29734 0.0
C691 C 0.71869 0.9478 0.28099 0.0
C692 C 0.75066 0.9492 0.29347 0.0
C693 C 0.73685 0.91775 0.30792 0.0
C694 C 0.69108 0.88524 0.30966 0.0
C695 C 0.61546 0.90898 0.35001 0.0
C696 C 0.57846 0.81965 0.3388 0.0
C697 C 0.61527 0.89783 0.33128 0.0
N698 N 0.59713 0.85363 0.32591 0.0
C699 C 0.57803 0.82951 0.35766 0.0
C700 C 0.59672 0.87452 0.36326 0.0
C701 C 0.51312 0.75012 0.2978 0.0
C702 C 0.50643 0.79913 0.22801 0.0
C703 C 0.48556 0.72591 0.2509 0.0
C704 C 0.45151 0.72609 0.24016 0.0
C705 C 0.46212 0.76299 0.22864 0.0
N706 N 0.52901 0.76142 0.25017 0.0
C707 C 0.53959 0.79778 0.23895 0.0
C708 C 0.23598 0.91379 0.99004 0.0
C709 C 0.25955 0.90847 0.97513 0.0
C710 C 0.25578 0.95309 1.00114 0.0
C711 C 0.30097 0.98758 0.99772 0.0
C712 C 0.32501 0.98254 0.98267 0.0
C713 C 0.3038 0.94347 0.9714 0.0
C714 C 0.22834 0.95751 0.01664 0.0
C715 C 0.37361 0.01784 0.97879 0.0
C716 C 0.34427 0.10706 0.0166 0.0
C717 C 0.3658 0.10659 0.03323 0.0
C718 C 0.32239 0.06847 0.00514 0.0
C719 C 0.32317 0.0286 0.01002 0.0
C720 C 0.34506 0.02791 0.02671 0.0
C721 C 0.3654 0.06655 0.03824 0.0
C722 C 0.29839 0.07041 0.98779 0.0
C723 C 0.34775 0.98659 0.03225 0.0
H724 H 0.20188 0.88712 0.99312 0.0
H725 H 0.32254 0.93969 0.96004 0.0
H726 H 0.24397 0.95834 0.03029 0.0
H727 H 0.22819 0.98985 0.01522 0.0
H728 H 0.19278 0.9291 0.01674 0.0
H729 H 0.38784 0.00864 0.96675 0.0
H730 H 0.37624 0.05104 0.97591 0.0
H731 H 0.39471 0.02225 0.99125 0.0
H732 H 0.34438 0.13767 0.01249 0.0
H733 H 0.38209 0.06571 0.05094 0.0
H734 H 0.2626 0.04257 0.98797 0.0
H735 H 0.31449 0.06547 0.97528 0.0
H736 H 0.29903 0.10319 0.9864 0.0
H737 H 0.31322 0.95729 0.03429 0.0
H738 H 0.36741 0.99201 0.04528 0.0
H739 H 0.36387 0.97743 0.02094 0.0
C740 C 0.23992 0.33584 0.34955 0.0
C741 C 0.26229 0.36051 0.36561 0.0
C742 C 0.25824 0.315 0.33846 0.0
C743 C 0.30078 0.31992 0.34315 0.0
C744 C 0.32359 0.34466 0.35934 0.0
C745 C 0.30379 0.36407 0.37052 0.0
C746 C 0.23212 0.28793 0.32164 0.0
C747 C 0.36945 0.35156 0.36464 0.0
C748 C 0.33416 0.23652 0.32393 0.0
C749 C 0.36075 0.25984 0.30842 0.0
C750 C 0.31383 0.25526 0.33509 0.0
C751 C 0.3213 0.29914 0.33108 0.0
C752 C 0.34814 0.32298 0.31547 0.0
C753 C 0.36694 0.3028 0.30418 0.0
C754 C 0.28444 0.22806 0.35124 0.0
C755 C 0.35783 0.37025 0.31092 0.0
H756 H 0.20797 0.33289 0.34552 0.0
H757 H 0.32159 0.38323 0.38278 0.0
H758 H 0.25165 0.30388 0.30878 0.0
H759 H 0.2271 0.25319 0.32238 0.0
H760 H 0.19847 0.28542 0.32043 0.0
H761 H 0.38323 0.3725 0.37741 0.0
H762 H 0.36719 0.31835 0.36702 0.0
H763 H 0.3937 0.3684 0.35306 0.0
H764 H 0.32918 0.20345 0.32743 0.0
H765 H 0.38767 0.32134 0.29236 0.0
H766 H 0.25045 0.22467 0.35001 0.0
H767 H 0.29947 0.24593 0.36452 0.0
H768 H 0.2803 0.19362 0.35199 0.0
H769 H 0.32573 0.36996 0.30809 0.0
H770 H 0.38036 0.38476 0.29863 0.0
H771 H 0.37406 0.3929 0.32305 0.0
C772 C 0.94839 0.2649 0.70464 0.0
C773 C 0.90779 0.25976 0.69756 0.0
C774 C 0.98784 0.28361 0.69363 0.0
C775 C 0.98704 0.29896 0.67534 0.0
C776 C 0.94622 0.29447 0.66828 0.0
C777 C 0.90702 0.27432 0.67935 0.0
C778 C 0.0303 0.28665 0.70151 0.0
C779 C 0.94407 0.31163 0.64913 0.0
C780 C 0.09917 0.38765 0.6541 0.0
C781 C 0.10768 0.36188 0.64128 0.0
C782 C 0.05986 0.36772 0.66512 0.0
C783 C 0.029 0.32054 0.66367 0.0
C784 C 0.03793 0.2943 0.65084 0.0
C785 C 0.07698 0.31545 0.63961 0.0
C786 C 0.05123 0.39723 0.67822 0.0
C787 C 0.00654 0.24382 0.64915 0.0
H788 H 0.94904 0.25343 0.71866 0.0
H789 H 0.87583 0.27089 0.67387 0.0
H790 H 0.04251 0.2692 0.69211 0.0
H791 H 0.05751 0.32262 0.70241 0.0
H792 H 0.02482 0.27128 0.71559 0.0
H793 H 0.90996 0.30642 0.64585 0.0
H794 H 0.96911 0.34835 0.64809 0.0
H795 H 0.9531 0.29408 0.63841 0.0
H796 H 0.12323 0.4236 0.65538 0.0
H797 H 0.0841 0.29556 0.62984 0.0
H798 H 0.04966 0.38569 0.69278 0.0
H799 H 0.01802 0.39422 0.675 0.0
H800 H 0.0779 0.43349 0.6773 0.0
H801 H 1.00253 0.22748 0.66293 0.0
H802 H 0.01911 0.22803 0.63902 0.0
H803 H 0.97248 0.23667 0.64465 0.0
C804 C 0.65111 0.94374 0.03679 0.0
C805 C 0.65086 0.90366 0.032 0.0
C806 C 0.67128 0.98207 0.02512 0.0
C807 C 0.69329 0.98111 0.00853 0.0
C808 C 0.69453 0.94132 1.00394 0.0
C809 C 0.67269 0.90297 0.01552 0.0
C810 C 0.6681 0.0233 0.03036 0.0
C811 C 0.71881 0.93918 0.98674 0.0
C812 C 0.71091 0.0648 0.96955 0.0
C813 C 0.7547 0.10066 0.97335 0.0
C814 C 0.69049 0.02581 0.98087 0.0
C815 C 0.71495 0.02169 0.996 0.0
C816 C 0.75984 0.0569 0.9994 0.0
C817 C 0.77879 0.09613 0.98828 0.0
C818 C 0.64216 0.9897 0.97701 0.0
C819 C 0.78775 0.05345 0.01496 0.0
H820 H 0.63431 0.9448 0.04942 0.0
H821 H 0.67275 0.87233 0.01159 0.0
H822 H 0.70249 0.0529 0.03232 0.0
H823 H 0.65175 0.03183 0.01892 0.0
H824 H 0.64841 0.0181 0.04335 0.0
H825 H 0.71891 0.90671 0.98568 0.0
H826 H 0.70237 0.94308 0.9741 0.0
H827 H 0.75436 0.96752 0.98681 0.0
H828 H 0.69183 0.06787 0.95815 0.0
H829 H 0.81257 0.12345 0.9914 0.0
H830 H 0.62089 0.98527 0.9894 0.0
H831 H 0.64023 0.95672 0.97437 0.0
H832 H 0.62762 0.99811 0.96483 0.0
H833 H 0.77238 0.0532 0.02859 0.0
H834 H 0.82323 0.08203 0.01485 0.0
H835 H 0.78813 0.02117 0.01383 0.0
C836 C 0.63356 0.73291 0.32822 0.0
C837 C 0.65044 0.7491 0.31033 0.0
C838 C 0.65244 0.71281 0.33944 0.0
C839 C 0.6902 0.71014 0.33292 0.0
C840 C 0.70788 0.72715 0.31495 0.0
C841 C 0.68727 0.7457 0.30374 0.0
C842 C 0.63145 0.69377 0.35818 0.0
C843 C 0.74882 0.72611 0.30766 0.0
C844 C 0.76175 0.69323 0.36956 0.0
C845 C 0.74768 0.64729 0.36727 0.0
C846 C 0.74391 0.71438 0.35827 0.0
C847 C 0.7104 0.68858 0.34474 0.0
C848 C 0.69563 0.64185 0.3427 0.0
C849 C 0.715 0.62199 0.35378 0.0
C850 C 0.76141 0.76445 0.3606 0.0
C851 C 0.65917 0.61271 0.32888 0.0
H852 H 0.60476 0.73503 0.3333 0.0
H853 H 0.70058 0.75848 0.28997 0.0
H854 H 0.62077 0.65723 0.35884 0.0
H855 H 0.65672 0.71106 0.3694 0.0
H856 H 0.60155 0.69762 0.36104 0.0
H857 H 0.7598 0.74271 0.29383 0.0
H858 H 0.77738 0.74344 0.31761 0.0
H859 H 0.74122 0.69055 0.3064 0.0
H860 H 0.78753 0.7128 0.37985 0.0
H861 H 0.70435 0.58641 0.35203 0.0
H862 H 0.73336 0.77023 0.3647 0.0
H863 H 0.77491 0.78213 0.34714 0.0
H864 H 0.78855 0.77999 0.37128 0.0
H865 H 0.62814 0.61459 0.33163 0.0
H866 H 0.65038 0.57664 0.32948 0.0
H867 H 0.67044 0.62546 0.31455 0.0
C868 C 0.91066 0.67433 0.65923 0.0
C869 C 0.90833 0.64931 0.64329 0.0
C870 C 0.94958 0.69478 0.67049 0.0
C871 C 0.98687 0.68907 0.66612 0.0
C872 C 0.98484 0.66387 0.65007 0.0
C873 C 0.94594 0.6449 0.63871 0.0
C874 C 0.95068 0.7224 0.68714 0.0
C875 C 0.02341 0.65609 0.64511 0.0
C876 C 0.10395 0.7717 0.68529 0.0
C877 C 0.10685 0.74851 0.70094 0.0
C878 C 0.06489 0.75322 0.67412 0.0
C879 C 0.02803 0.70971 0.67829 0.0
C880 C 0.03057 0.68607 0.69408 0.0
C881 C 0.0696 0.70603 0.70536 0.0
C882 C 0.06322 0.78022 0.65777 0.0
C883 C 0.99247 0.6392 0.6988 0.0
H884 H 0.88191 0.67791 0.66302 0.0
H885 H 0.94451 0.62542 0.62655 0.0
H886 H 0.95389 0.70661 0.70013 0.0
H887 H 0.98067 0.75696 0.68633 0.0
H888 H 0.91977 0.72536 0.68814 0.0
H889 H 0.01611 0.63466 0.63249 0.0
H890 H 0.05467 0.68899 0.64263 0.0
H891 H 0.03039 0.63941 0.6569 0.0
H892 H 0.13241 0.80441 0.68165 0.0
H893 H 0.07146 0.68761 0.71731 0.0
H894 H 0.03281 0.78398 0.65877 0.0
H895 H 0.06042 0.76199 0.6446 0.0
H896 H 0.09373 0.8145 0.65698 0.0
H897 H 0.96089 0.64008 0.70139 0.0
H898 H 1.00006 0.62488 0.71128 0.0
H899 H 0.98591 0.61606 0.68684 0.0
C900 C 0.73983 0.28006 0.9948 0.0
C901 C 0.72516 0.25083 0.97938 0.0
C902 C 0.7088 0.28614 0.0056 0.0
C903 C 0.66216 0.26215 1.00092 0.0
C904 C 0.64753 0.23385 0.98504 0.0
C905 C 0.67906 0.22867 0.97451 0.0
C906 C 0.72563 0.31695 0.02236 0.0
C907 C 0.5981 0.20723 0.97961 0.0
C908 C 0.57008 0.22345 0.03721 0.0
C909 C 0.55109 0.2509 0.0334 0.0
C910 C 0.60786 0.22864 0.02745 0.0
C911 C 0.62756 0.26226 0.01349 0.0
C912 C 0.61003 0.29153 0.0101 0.0
C913 C 0.57183 0.28539 0.02005 0.0
C914 C 0.62506 0.19633 0.03141 0.0
C915 C 0.63043 0.32801 0.99542 0.0
H916 H 0.77533 0.29755 0.99864 0.0
H917 H 0.66703 0.20611 0.96261 0.0
H918 H 0.71177 0.34027 0.02234 0.0
H919 H 0.7136 0.2964 0.03526 0.0
H920 H 0.76318 0.33733 0.02281 0.0
H921 H 0.5927 0.18891 0.96621 0.0
H922 H 0.57866 0.18204 0.99061 0.0
H923 H 0.58388 0.2301 0.97836 0.0
H924 H 0.5547 0.19679 0.04753 0.0
H925 H 0.55773 0.30702 0.01709 0.0
H926 H 0.66217 0.21531 0.03373 0.0
H927 H 0.61846 0.17391 0.01919 0.0
H928 H 0.60855 0.17473 0.04378 0.0
H929 H 0.66784 0.34749 0.99679 0.0
H930 H 0.61722 0.35186 0.99628 0.0
H931 H 0.6225 0.3122 0.9814 0.0
C932 C 0.27983 0.55613 0.34471 0.0
C933 C 0.29443 0.54033 0.35974 0.0
C934 C 0.31114 0.59305 0.33386 0.0
C935 C 0.35796 0.61427 0.33809 0.0
C936 C 0.37263 0.59912 0.35349 0.0
C937 C 0.34084 0.56261 0.36408 0.0
C938 C 0.29432 0.6086 0.31761 0.0
C939 C 0.42223 0.62044 0.35845 0.0
C940 C 0.45017 0.67034 0.30193 0.0
C941 C 0.47003 0.71636 0.30675 0.0
C942 C 0.41181 0.63707 0.31124 0.0
C943 C 0.39255 0.6499 0.32577 0.0
C944 C 0.41082 0.69642 0.33007 0.0
C945 C 0.44946 0.72914 0.32054 0.0
C946 C 0.3937 0.58787 0.30627 0.0
C947 C 0.39105 0.71144 0.34541 0.0
H948 H 0.24413 0.53934 0.34126 0.0
H949 H 0.35284 0.55106 0.37565 0.0
H950 H 0.30832 0.64579 0.31828 0.0
H951 H 0.30626 0.6013 0.30439 0.0
H952 H 0.25677 0.59155 0.31721 0.0
H953 H 0.4278 0.60593 0.37137 0.0
H954 H 0.44076 0.61527 0.3469 0.0
H955 H 0.43731 0.65751 0.3604 0.0
H956 H 0.46541 0.65988 0.29124 0.0
H957 H 0.46426 0.76456 0.3243 0.0
H958 H 0.35648 0.5703 0.30432 0.0
H959 H 0.40069 0.57066 0.31785 0.0
H960 H 0.40934 0.58385 0.29338 0.0
H961 H 0.35362 0.6939 0.34422 0.0
H962 H 0.40462 0.74863 0.3452 0.0
H963 H 0.3992 0.70221 0.35911 0.0
C964 C 0.78741 0.33917 0.70476 0.0
C965 C 0.76045 0.293 0.70032 0.0
C966 C 0.78243 0.37239 0.69535 0.0
C967 C 0.74951 0.35935 0.68112 0.0
C968 C 0.72057 0.31275 0.67718 0.0
C969 C 0.72647 0.28007 0.68678 0.0
C970 C 0.81431 0.42169 0.69991 0.0
C971 C 0.68484 0.29753 0.6622 0.0
C972 C 0.73075 0.45371 0.66279 0.0
C973 C 0.76029 0.46914 0.64749 0.0
C974 C 0.7252 0.41661 0.6735 0.0
C975 C 0.75 0.3948 0.66885 0.0
C976 C 0.77877 0.40944 0.65313 0.0
C977 C 0.78344 0.44616 0.64268 0.0
C978 C 0.6939 0.40161 0.69009 0.0
C979 C 0.80619 0.3875 0.64771 0.0
H980 H 0.81361 0.34976 0.71526 0.0
H981 H 0.70524 0.24454 0.68332 0.0
H982 H 0.83749 0.43834 0.68799 0.0
H983 H 0.79513 0.43962 0.70221 0.0
H984 H 0.83508 0.42599 0.71249 0.0
H985 H 0.66105 0.26038 0.66263 0.0
H986 H 0.66524 0.31531 0.66363 0.0
H987 H 0.70134 0.30632 0.64833 0.0
H988 H 0.71258 0.47104 0.66661 0.0
H989 H 0.80628 0.4574 0.63088 0.0
H990 H 0.71401 0.4093 0.70309 0.0
H991 H 0.67061 0.36441 0.68967 0.0
H992 H 0.67352 0.41876 0.6907 0.0
H993 H 0.83076 0.39278 0.65893 0.0
H994 H 0.82525 0.40147 0.63455 0.0
H995 H 0.78375 0.35042 0.64602 0.0
C996 C 0.33147 0.77403 0.97086 0.0
C997 C 0.28696 0.75597 0.97749 0.0
C998 C 0.36409 0.76947 0.9809 0.0
C999 C 0.35218 0.7461 0.99808 0.0
C1000 C 0.30685 0.72567 0.00446 0.0
C1001 C 0.2747 0.73093 0.9941 0.0
C1002 C 0.41207 0.79215 0.97361 0.0
C1003 C 0.29284 0.70015 0.02265 0.0
C1004 C 0.44227 0.72361 0.01837 0.0
C1005 C 0.46565 0.76116 0.03017 0.0
C1006 C 0.40373 0.71682 0.00845 0.0
C1007 C 0.38867 0.74857 0.01025 0.0
C1008 C 0.41155 0.78587 0.02245 0.0
C1009 C 0.44949 0.79159 0.03226 0.0
C1010 C 0.37987 0.67642 0.99568 0.0
C1011 C 0.39708 0.82092 0.02464 0.0
H1012 H 0.34156 0.79327 0.95801 0.0
H1013 H 0.24044 0.71663 0.99932 0.0
H1014 H 0.43444 0.82079 0.98287 0.0
H1015 H 0.42493 0.76803 0.97361 0.0
H1016 H 0.41485 0.80549 0.95926 0.0
H1017 H 0.25547 0.68093 0.02436 0.0
H1018 H 0.30588 0.67622 0.02362 0.0
H1019 H 0.3077 0.7244 0.03439 0.0
H1020 H 0.4542 0.69971 0.01677 0.0
H1021 H 0.46702 0.8207 0.04135 0.0
H1022 H 0.38493 0.68801 0.98099 0.0
H1023 H 0.3429 0.65821 0.99839 0.0
H1024 H 0.3926 0.65233 0.99736 0.0
H1025 H 0.40149 0.83884 0.01122 0.0
H1026 H 0.41692 0.8465 0.0355 0.0
H1027 H 0.3607 0.80433 0.02835 0.0
C1028 C 0.55534 0.2776 0.32761 0.0
C1029 C 0.54117 0.29102 0.31168 0.0
C1030 C 0.59247 0.30944 0.33821 0.0
C1031 C 0.61564 0.35565 0.33281 0.0
C1032 C 0.60255 0.36895 0.31638 0.0
C1033 C 0.56572 0.33661 0.30606 0.0
C1034 C 0.60577 0.29398 0.35557 0.0
C1035 C 0.62597 0.41788 0.31016 0.0
C1036 C 0.66875 0.44984 0.36841 0.0
C1037 C 0.71525 0.46774 0.3652 0.0
C1038 C 0.63617 0.41209 0.35856 0.0
C1039 C 0.65018 0.39122 0.34518 0.0
C1040 C 0.69699 0.4078 0.34234 0.0
C1041 C 0.72905 0.44606 0.35233 0.0
C1042 C 0.58664 0.39594 0.36189 0.0
C1043 C 0.71317 0.38613 0.3283 0.0
H1044 H 0.53682 0.24252 0.33205 0.0
H1045 H 0.55549 0.34763 0.29376 0.0
H1046 H 0.64289 0.30763 0.35586 0.0
H1047 H 0.59703 0.30728 0.36803 0.0
H1048 H 0.5883 0.25645 0.35661 0.0
H1049 H 0.61372 0.4221 0.29637 0.0
H1050 H 0.61996 0.43845 0.32053 0.0
H1051 H 0.66307 0.43181 0.30932 0.0
H1052 H 0.65745 0.466 0.37834 0.0
H1053 H 0.76484 0.45934 0.34984 0.0
H1054 H 0.56789 0.35903 0.36479 0.0
H1055 H 0.57164 0.40166 0.34918 0.0
H1056 H 0.58135 0.41382 0.37371 0.0
H1057 H 0.69508 0.34882 0.33021 0.0
H1058 H 0.75018 0.39932 0.32937 0.0
H1059 H 0.70552 0.39285 0.31403 0.0
C1060 C 0.22826 0.5614 0.63731 0.0
C1061 C 0.25529 0.54218 0.64151 0.0
C1062 C 0.23298 0.5991 0.64705 0.0
C1063 C 0.26574 0.61851 0.66135 0.0
C1064 C 0.29469 0.60081 0.66511 0.0
C1065 C 0.28902 0.56269 0.65519 0.0
C1066 C 0.20105 0.61653 0.6427 0.0
C1067 C 0.33027 0.62086 0.68016 0.0
C1068 C 0.28445 0.73121 0.6802 0.0
C1069 C 0.25485 0.71669 0.69548 0.0
C1070 C 0.29006 0.69993 0.66935 0.0
C1071 C 0.26524 0.65316 0.67382 0.0
C1072 C 0.23637 0.6386 0.68951 0.0
C1073 C 0.23167 0.6704 0.70012 0.0
C1074 C 0.32144 0.71668 0.65279 0.0
C1075 C 0.2089 0.58905 0.69472 0.0
H1076 H 0.20223 0.54619 0.62672 0.0
H1077 H 0.31031 0.54839 0.65846 0.0
H1078 H 0.17792 0.60968 0.65466 0.0
H1079 H 0.22022 0.65373 0.64055 0.0
H1080 H 0.18024 0.60032 0.6301 0.0
H1081 H 0.35396 0.60744 0.67964 0.0
H1082 H 0.35 0.65832 0.67889 0.0
H1083 H 0.31364 0.61283 0.69401 0.0
H1084 H 0.30266 0.76684 0.67653 0.0
H1085 H 0.20878 0.65849 0.7119 0.0
H1086 H 0.3014 0.70451 0.63975 0.0
H1087 H 0.34475 0.70283 0.65311 0.0
H1088 H 0.34181 0.75427 0.65231 0.0
H1089 H 0.18436 0.57002 0.68346 0.0
H1090 H 0.18982 0.58361 0.70791 0.0
H1091 H 0.23131 0.57438 0.69629 0.0
C1092 C 0.32332 0.17027 0.1287 0.0
C1093 C 0.35847 0.16309 0.12282 0.0
C1094 C 0.31419 0.17107 0.14781 0.0
C1095 C 0.34121 0.16515 0.16128 0.0
C1096 C 0.37479 0.15514 0.15534 0.0
C1097 C 0.38269 0.15388 0.13627 0.0
C1098 C 0.27735 0.18075 0.15356 0.0
C1099 C 0.40468 0.1488 0.16913 0.0
C1100 C 0.37439 0.2275 0.20725 0.0
C1101 C 0.35293 0.19195 0.22011 0.0
C1102 C 0.36813 0.21968 0.18803 0.0
C1103 C 0.33921 0.17517 0.18139 0.0
C1104 C 0.31431 0.13979 0.19431 0.0
C1105 C 0.32158 0.14854 0.21357 0.0
C1106 C 0.39547 0.25854 0.17486 0.0
C1107 C 0.2824 0.09208 0.18781 0.0
H1108 H 0.30419 0.17712 0.11844 0.0
H1109 H 0.40944 0.14755 0.13196 0.0
H1110 H 0.25748 0.15866 0.16534 0.0
H1111 H 0.29283 0.21639 0.15835 0.0
H1112 H 0.25399 0.17575 0.14185 0.0
H1113 H 0.42704 0.13812 0.16229 0.0
H1114 H 0.42629 0.18113 0.1766 0.0
H1115 H 0.38378 0.12304 0.1797 0.0
H1116 H 0.39803 0.26136 0.21216 0.0
H1117 H 0.30462 0.12089 0.22339 0.0
H1118 H 0.37344 0.26002 0.16385 0.0
H1119 H 0.42144 0.2532 0.16787 0.0
H1120 H 0.41292 0.29174 0.18215 0.0
H1121 H 0.26197 0.09208 0.17578 0.0
H1122 H 0.25919 0.07087 0.1991 0.0
H1123 H 0.30224 0.0762 0.18315 0.0
C1124 C 0.16139 0.32211 0.46023 0.0
C1125 C 0.20145 0.36014 0.45408 0.0
C1126 C 0.15285 0.31265 0.47941 0.0
C1127 C 0.18492 0.34213 0.49266 0.0
C1128 C 0.22635 0.37909 0.48644 0.0
C1129 C 0.23414 0.38741 0.46732 0.0
C1130 C 0.10863 0.27245 0.48547 0.0
C1131 C 0.26156 0.41161 0.50001 0.0
C1132 C 0.15322 0.36839 0.53955 0.0
C1133 C 0.17165 0.34988 0.55186 0.0
C1134 C 0.15423 0.36312 0.52024 0.0
C1135 C 0.17383 0.33832 0.51293 0.0
C1136 C 0.18892 0.31619 0.52531 0.0
C1137 C 0.18777 0.32233 0.54468 0.0
C1138 C 0.13769 0.38734 0.50765 0.0
C1139 C 0.20925 0.28875 0.5181 0.0
H1140 H 0.13601 0.30067 0.45014 0.0
H1141 H 0.26552 0.41652 0.4628 0.0
H1142 H 0.11425 0.25377 0.49684 0.0
H1143 H 0.08603 0.28438 0.49096 0.0
H1144 H 0.09104 0.24871 0.47376 0.0
H1145 H 0.29317 0.4369 0.49293 0.0
H1146 H 0.24776 0.43007 0.50785 0.0
H1147 H 0.27018 0.39282 0.51029 0.0
H1148 H 0.13987 0.38904 0.54497 0.0
H1149 H 0.20185 0.30767 0.55407 0.0
H1150 H 0.11516 0.36416 0.49666 0.0
H1151 H 0.16705 0.41593 0.50061 0.0
H1152 H 0.11905 0.40108 0.51544 0.0
H1153 H 0.18926 0.26716 0.50622 0.0
H1154 H 0.21116 0.26687 0.52911 0.0
H1155 H 0.24405 0.31198 0.51298 0.0
C1156 C 0.85654 0.16274 0.87926 0.0
C1157 C 0.81693 0.16172 0.88532 0.0
C1158 C 0.86521 0.16178 0.8601 0.0
C1159 C 0.8338 0.16029 0.84677 0.0
C1160 C 0.7928 0.1569 0.8529 0.0
C1161 C 0.78481 0.15734 0.872 0.0
C1162 C 0.9089 0.16452 0.85414 0.0
C1163 C 0.75832 0.15547 0.83926 0.0
C1164 C 0.86696 0.21856 0.79997 0.0
C1165 C 0.84727 0.18167 0.78763 0.0
C1166 C 0.86598 0.21207 0.81927 0.0
C1167 C 0.84519 0.16751 0.82653 0.0
C1168 C 0.82899 0.13025 0.8141 0.0
C1169 C 0.83007 0.13774 0.79475 0.0
C1170 C 0.8837 0.25289 0.83191 0.0
C1171 C 0.80745 0.08227 0.82125 0.0
H1172 H 0.88147 0.16587 0.88941 0.0
H1173 H 0.75377 0.15585 0.87644 0.0
H1174 H 0.90277 0.14029 0.84268 0.0
H1175 H 0.93245 0.19904 0.84882 0.0
H1176 H 0.92567 0.15737 0.86587 0.0
H1177 H 0.72702 0.15017 0.84627 0.0
H1178 H 0.77316 0.18783 0.83141 0.0
H1179 H 0.74892 0.12787 0.82899 0.0
H1180 H 0.88115 0.25272 0.7946 0.0
H1181 H 0.81503 0.10902 0.78534 0.0
H1182 H 0.90569 0.25133 0.84291 0.0
H1183 H 0.85485 0.25313 0.83893 0.0
H1184 H 0.90326 0.28524 0.82416 0.0
H1185 H 0.82696 0.07996 0.83315 0.0
H1186 H 0.80496 0.05829 0.81021 0.0
H1187 H 0.77279 0.07147 0.82631 0.0
C1188 C 0.6235 0.84903 0.13551 0.0
C1189 C 0.65192 0.84679 0.12192 0.0
C1190 C 0.63252 0.84922 0.15455 0.0
C1191 C 0.6714 0.84772 0.16036 0.0
C1192 C 0.70164 0.84786 0.14678 0.0
C1193 C 0.69141 0.8471 0.12769 0.0
C1194 C 0.59904 0.84876 0.16846 0.0
C1195 C 0.74382 0.84704 0.15241 0.0
C1196 C 0.6924 0.87235 0.21217 0.0
C1197 C 0.6676 0.82848 0.21958 0.0
C1198 C 0.69753 0.87928 0.19276 0.0
C1199 C 0.67714 0.8415 0.18057 0.0
C1200 C 0.65547 0.79717 0.18809 0.0
C1201 C 0.65121 0.79125 0.20745 0.0
C1202 C 0.72171 0.92708 0.18533 0.0
C1203 C 0.63315 0.75582 0.1757 0.0
H1204 H 0.59303 0.8491 0.13133 0.0
H1205 H 0.71371 0.84557 0.11734 0.0
H1206 H 0.58332 0.81646 0.17638 0.0
H1207 H 0.61658 0.87671 0.17865 0.0
H1208 H 0.57166 0.85225 0.16169 0.0
H1209 H 0.76716 0.85428 0.14047 0.0
H1210 H 0.76207 0.87217 0.16359 0.0
H1211 H 0.73435 0.81313 0.15804 0.0
H1212 H 0.70545 0.90136 0.2214 0.0
H1213 H 0.63272 0.75717 0.21304 0.0
H1214 H 0.69641 0.93607 0.18036 0.0
H1215 H 0.74346 0.93009 0.1733 0.0
H1216 H 0.74293 0.95195 0.19617 0.0
H1217 H 0.60278 0.75371 0.16904 0.0
H1218 H 0.62241 0.72398 0.18358 0.0
H1219 H 0.65643 0.75829 0.16441 0.0
C1220 C 0.83861 0.68656 0.54797 0.0
C1221 C 0.84803 0.65334 0.55451 0.0
C1222 C 0.83804 0.69446 0.52872 0.0
C1223 C 0.84681 0.66834 0.51579 0.0
C1224 C 0.85936 0.63707 0.52242 0.0
C1225 C 0.86001 0.63016 0.54163 0.0
C1226 C 0.82532 0.72871 0.52223 0.0
C1227 C 0.86896 0.60837 0.50922 0.0
C1228 C 0.78525 0.63076 0.46966 0.0
C1229 C 0.82025 0.65451 0.45677 0.0
C1230 C 0.79296 0.63706 0.48888 0.0
C1231 C 0.83674 0.66838 0.49554 0.0
C1232 C 0.8715 0.69496 0.48263 0.0
C1233 C 0.86291 0.68759 0.46336 0.0
C1234 C 0.7548 0.60782 0.50205 0.0
C1235 C 0.9184 0.72931 0.48916 0.0
H1236 H 0.82952 0.70482 0.5578 0.0
H1237 H 0.86813 0.60498 0.54652 0.0
H1238 H 0.8474 0.74924 0.51057 0.0
H1239 H 0.78997 0.71076 0.517 0.0
H1240 H 0.82773 0.75179 0.53366 0.0
H1241 H 0.88214 0.58863 0.51656 0.0
H1242 H 0.83734 0.58425 0.50184 0.0
H1243 H 0.89394 0.62991 0.49853 0.0
H1244 H 0.75192 0.60569 0.46477 0.0
H1245 H 0.89013 0.70632 0.45353 0.0
H1246 H 0.75093 0.62905 0.51277 0.0
H1247 H 0.76278 0.58402 0.5094 0.0
H1248 H 0.72195 0.58772 0.4947 0.0
H1249 H 0.9167 0.74961 0.50089 0.0
H1250 H 0.93899 0.75261 0.47778 0.0
H1251 H 0.93598 0.71148 0.49431 0.0
C1252 C 0.1444 0.83084 0.87922 0.0
C1253 C 0.18792 0.8466 0.88652 0.0
C1254 C 0.13728 0.82918 0.85982 0.0
C1255 C 0.17449 0.84334 0.84753 0.0
C1256 C 0.21881 0.86278 0.85494 0.0
C1257 C 0.22495 0.86437 0.87428 0.0
C1258 C 0.0896 0.80909 0.85252 0.0
C1259 C 0.25957 0.87836 0.84245 0.0
C1260 C 0.16218 0.78035 0.80251 0.0
C1261 C 0.16788 0.81248 0.78895 0.0
C1262 C 0.16198 0.78924 0.82155 0.0
C1263 C 0.16714 0.83127 0.82734 0.0
C1264 C 0.1701 0.86284 0.81376 0.0
C1265 C 0.17064 0.85317 0.79468 0.0
C1266 C 0.15884 0.75451 0.83547 0.0
C1267 C 0.17489 0.90769 0.81936 0.0
H1268 H 0.11559 0.81725 0.88855 0.0
H1269 H 0.25882 0.8774 0.87979 0.0
H1270 H 0.08842 0.82869 0.8404 0.0
H1271 H 0.07752 0.77392 0.84772 0.0
H1272 H 0.06598 0.8081 0.86339 0.0
H1273 H 0.29193 0.89718 0.85025 0.0
H1274 H 0.25846 0.84847 0.83576 0.0
H1275 H 0.25924 0.90045 0.83118 0.0
H1276 H 0.15939 0.74852 0.79831 0.0
H1277 H 0.17486 0.87816 0.78434 0.0
H1278 H 0.13149 0.74666 0.84568 0.0
H1279 H 0.19105 0.76842 0.84337 0.0
H1280 H 0.15214 0.72242 0.82871 0.0
H1281 H 0.15078 0.90299 0.83067 0.0
H1282 H 0.16904 0.92491 0.80743 0.0
H1283 H 0.20955 0.93023 0.82478 0.0
C1284 C 0.49698 0.58873 0.05484 0.0
C1285 C 0.53374 0.62122 0.06517 0.0
C1286 C 0.48538 0.54286 0.05515 0.0
C1287 C 0.51233 0.52958 0.06546 0.0
C1288 C 0.55013 0.56273 0.07561 0.0
C1289 C 0.55988 0.60803 0.0756 0.0
C1290 C 0.444 0.50854 0.04462 0.0
C1291 C 0.58069 0.5505 0.08625 0.0
C1292 C 0.46425 0.40647 0.08042 0.0
C1293 C 0.4791 0.38921 0.06607 0.0
C1294 C 0.47404 0.45179 0.0802 0.0
C1295 C 0.50094 0.48108 0.06568 0.0
C1296 C 0.5169 0.46394 0.05138 0.0
C1297 C 0.50494 0.41797 0.05154 0.0
C1298 C 0.45487 0.46806 0.09533 0.0
C1299 C 0.54701 0.49426 0.03602 0.0
H1300 H 0.47685 0.59915 0.04678 0.0
H1301 H 0.58864 0.63344 0.08342 0.0
H1302 H 0.45389 0.49235 0.03362 0.0
H1303 H 0.42061 0.48129 0.05421 0.0
H1304 H 0.4255 0.524 0.03801 0.0
H1305 H 0.60982 0.58056 0.09273 0.0
H1306 H 0.56129 0.52576 0.09738 0.0
H1307 H 0.59387 0.53405 0.07677 0.0
H1308 H 0.44373 0.38409 0.09154 0.0
H1309 H 0.51654 0.40465 0.04046 0.0
H1310 H 0.43463 0.48193 0.08902 0.0
H1311 H 0.48273 0.49589 0.10332 0.0
H1312 H 0.43301 0.44058 0.10517 0.0
H1313 H 0.52869 0.50744 0.0277 0.0
H1314 H 0.5585 0.47632 0.02651 0.0
H1315 H 0.57722 0.52395 0.0421 0.0
C1316 C 0.95586 0.5566 0.38083 0.0
C1317 C 0.91799 0.53286 0.39244 0.0
C1318 C 0.99193 0.54779 0.38113 0.0
C1319 C 0.99057 0.51473 0.39348 0.0
C1320 C 0.95297 0.49137 0.40555 0.0
C1321 C 0.91704 0.50051 0.40481 0.0
C1322 C 0.03103 0.57315 0.36787 0.0
C1323 C 0.95039 0.45623 0.41906 0.0
C1324 C 0.05944 0.4591 0.38012 0.0
C1325 C 0.09892 0.48353 0.39082 0.0
C1326 C 0.02392 0.46865 0.38101 0.0
C1327 C 0.02749 0.50319 0.39305 0.0
C1328 C 0.06688 0.52749 0.40414 0.0
C1329 C 0.10222 0.51758 0.40281 0.0
C1330 C 0.98285 0.44223 0.36877 0.0
C1331 C 0.07182 0.56422 0.4173 0.0
H1332 H 0.95702 0.58162 0.37118 0.0
H1333 H 0.88812 0.48217 0.41392 0.0
H1334 H 0.06337 0.59064 0.3757 0.0
H1335 H 0.03324 0.54891 0.35821 0.0
H1336 H 0.02761 0.59869 0.35949 0.0
H1337 H 0.92023 0.44296 0.42825 0.0
H1338 H 0.949 0.42744 0.41127 0.0
H1339 H 0.98125 0.47089 0.42787 0.0
H1340 H 0.05648 0.43281 0.37076 0.0
H1341 H 0.13242 0.53646 0.41121 0.0
H1342 H 0.97909 0.46565 0.35918 0.0
H1343 H 0.95181 0.42536 0.37743 0.0
H1344 H 0.985 0.41603 0.36035 0.0
H1345 H 0.07167 0.59202 0.40933 0.0
H1346 H 0.10358 0.5786 0.42557 0.0
H1347 H 0.04265 0.55058 0.42702 0.0
C1348 C 0.60942 0.05205 0.71442 0.0
C1349 C 0.62484 0.08967 0.7263 0.0
C1350 C 0.56433 0.01639 0.71499 0.0
C1351 C 0.53375 0.01794 0.72789 0.0
C1352 C 0.54933 0.05524 0.74025 0.0
C1353 C 0.59459 0.09075 0.73925 0.0
C1354 C 0.54914 0.97754 0.70144 0.0
C1355 C 0.51796 0.05801 0.75432 0.0
C1356 C 0.40854 0.95117 0.71548 0.0
C1357 C 0.39339 0.9112 0.72584 0.0
C1358 C 0.45388 0.98622 0.7162 0.0
C1359 C 0.48503 0.98162 0.72773 0.0
C1360 C 0.46985 0.94175 0.73851 0.0
C1361 C 0.42429 0.90692 0.73737 0.0
C1362 C 0.46861 0.02787 0.70432 0.0
C1363 C 0.50186 0.93571 0.75111 0.0
H1364 H 0.63239 0.05078 0.70434 0.0
H1365 H 0.60617 0.11949 0.74856 0.0
H1366 H 0.53412 0.9449 0.70907 0.0
H1367 H 0.52247 0.97618 0.69216 0.0
H1368 H 0.57739 0.98067 0.69268 0.0
H1369 H 0.53587 0.08781 0.76367 0.0
H1370 H 0.49052 0.0603 0.74701 0.0
H1371 H 0.50171 0.02681 0.76294 0.0
H1372 H 0.38508 0.9549 0.70649 0.0
H1373 H 0.41291 0.87633 0.74551 0.0
H1374 H 0.49499 0.03144 0.69433 0.0
H1375 H 0.48385 0.05866 0.71319 0.0
H1376 H 0.44007 0.02659 0.69635 0.0
H1377 H 0.52901 0.93547 0.7427 0.0
H1378 H 0.4844 0.90372 0.75923 0.0
H1379 H 0.51846 0.9646 0.76095 0.0
C1380 C 0.60712 0.55075 0.62774 0.0
C1381 C 0.62251 0.52663 0.61705 0.0
C1382 C 0.56194 0.54081 0.62681 0.0
C1383 C 0.53119 0.50616 0.61474 0.0
C1384 C 0.5466 0.48216 0.60366 0.0
C1385 C 0.59199 0.49249 0.60502 0.0
C1386 C 0.54695 0.56695 0.63902 0.0
C1387 C 0.51503 0.4453 0.59049 0.0
C1388 C 0.40618 0.452 0.62702 0.0
C1389 C 0.39175 0.47551 0.61541 0.0
C1390 C 0.45113 0.46107 0.62668 0.0
C1391 C 0.48261 0.49418 0.6143 0.0
C1392 C 0.46806 0.51728 0.60221 0.0
C1393 C 0.42291 0.50784 0.60297 0.0
C1394 C 0.4652 0.43593 0.63994 0.0
C1395 C 0.50041 0.55251 0.58869 0.0
H1396 H 0.63028 0.57711 0.63712 0.0
H1397 H 0.60355 0.47383 0.59662 0.0
H1398 H 0.53249 0.58355 0.63035 0.0
H1399 H 0.51989 0.54338 0.64862 0.0
H1400 H 0.57518 0.59334 0.64744 0.0
H1401 H 0.53265 0.43119 0.58223 0.0
H1402 H 0.48724 0.41735 0.59846 0.0
H1403 H 0.49926 0.45869 0.58076 0.0
H1404 H 0.3825 0.42697 0.6367 0.0
H1405 H 0.41211 0.52601 0.59387 0.0
H1406 H 0.4915 0.46029 0.64962 0.0
H1407 H 0.48035 0.41875 0.6321 0.0
H1408 H 0.43635 0.41018 0.64828 0.0
H1409 H 0.52764 0.58148 0.59646 0.0
H1410 H 0.48327 0.56547 0.57946 0.0
H1411 H 0.51685 0.53808 0.57991 0.0
C1412 C 0.09529 0.59209 0.93735 0.0
C1413 C 0.09239 0.62202 0.94995 0.0
C1414 C 0.06094 0.54628 0.93633 0.0
C1415 C 0.02299 0.52975 0.94835 0.0
C1416 C 0.01977 0.5599 0.96099 0.0
C1417 C 0.05426 0.60558 0.96156 0.0
C1418 C 0.06546 0.51543 0.92249 0.0
C1419 C 0.98025 0.54373 0.97421 0.0
C1420 C 0.91385 0.41903 0.9379 0.0
C1421 C 0.91814 0.38828 0.94953 0.0
C1422 C 0.9481 0.46491 0.93703 0.0
C1423 C 0.98739 0.48064 0.94824 0.0
C1424 C 0.99201 0.44966 0.95989 0.0
C1425 C 0.95757 0.40395 0.9603 0.0
C1426 C 0.94205 0.49667 0.92427 0.0
C1427 C 0.03299 0.46495 0.97222 0.0
H1428 H 0.12442 0.60446 0.92824 0.0
H1429 H 0.05165 0.62828 0.9714 0.0
H1430 H 0.06772 0.48817 0.92998 0.0
H1431 H 0.035 0.49885 0.91347 0.0
H1432 H 0.09587 0.53389 0.91353 0.0
H1433 H 0.98238 0.57157 0.983 0.0
H1434 H 0.94802 0.52837 0.96629 0.0
H1435 H 0.97895 0.51705 0.98348 0.0
H1436 H 0.88369 0.40727 0.92944 0.0
H1437 H 0.96127 0.38061 0.96939 0.0
H1438 H 0.97146 0.51391 0.91474 0.0
H1439 H 0.94066 0.52337 0.93258 0.0
H1440 H 0.91066 0.4788 0.9158 0.0
H1441 H 0.06429 0.4809 0.9637 0.0
H1442 H 0.03184 0.43654 0.98026 0.0
H1443 H 0.03538 0.49096 0.98218 0.0
C1444 C 0.50573 0.91773 0.26869 0.0
C1445 C 0.53804 0.91943 0.28128 0.0
C1446 C 0.4956 0.95299 0.26781 0.0
C1447 C 0.518 0.99071 0.27993 0.0
C1448 C 0.55117 0.99295 0.29243 0.0
C1449 C 0.5609 0.95749 0.2929 0.0
C1450 C 0.46031 0.94947 0.25417 0.0
C1451 C 0.57561 0.0323 0.3057 0.0
C1452 C 0.51766 0.1008 0.27047 0.0
C1453 C 0.48324 0.0966 0.28243 0.0
C1454 C 0.52875 0.06625 0.26919 0.0
C1455 C 0.5052 0.02674 0.28027 0.0
C1456 C 0.47021 0.02221 0.29225 0.0
C1457 C 0.45955 0.05698 0.29311 0.0
C1458 C 0.56598 0.07221 0.25613 0.0
C1459 C 0.4445 0.98092 0.30444 0.0
H1460 H 0.48804 0.88865 0.25958 0.0
H1461 H 0.58593 0.95927 0.30269 0.0
H1462 H 0.43099 0.94708 0.26185 0.0
H1463 H 0.47435 0.98041 0.24542 0.0
H1464 H 0.448 0.91944 0.24493 0.0
H1465 H 0.6016 0.02976 0.3141 0.0
H1466 H 0.59234 0.06469 0.29787 0.0
H1467 H 0.55091 0.03369 0.31533 0.0
H1468 H 0.536 0.13112 0.26208 0.0
H1469 H 0.43295 0.05332 0.30243 0.0
H1470 H 0.55316 0.04303 0.24642 0.0
H1471 H 0.59409 0.07295 0.26419 0.0
H1472 H 0.57966 0.10392 0.24785 0.0
H1473 H 0.42851 0.94982 0.29576 0.0
H1474 H 0.41773 0.98221 0.31276 0.0
H1475 H 0.46822 0.97794 0.31413 0.0
loop_
_geom_bond_atom_site_label_1
_geom_bond_atom_site_label_2
_geom_bond_distance
_geom_bond_site_symmetry_2
_ccdc_geom_bond_type
Co0 O2 2.143 . S
Co0 O8 2.074 . S
Co0 O11 2.093 . S
Co0 O24 2.097 . S
Co0 N41 2.151 . S
Co0 N49 2.214 1_554 S
Co1 O2 2.160 . S
Co1 O7 2.058 . S
Co1 O17 2.057 . S
Co1 O32 2.037 . S
Co1 N36 2.145 . S
Co1 N57 2.257 . S
O2 Co0 2.143 . S
O2 Co1 2.160 . S
C3 O4 1.278 . S
C3 O11 1.224 . S
O4 C3 1.278 . S
C5 O6 1.245 . S
C5 O17 1.232 . S
O6 C5 1.245 . S
O7 Co1 2.058 . S
O7 C33 1.269 . S
O8 Co0 2.074 . S
O8 C33 1.257 . S
H9 C34 0.930 . S
H10 C40 0.930 . S
O11 Co0 2.093 . S
O11 C3 1.224 . S
H12 C44 0.929 . S
H13 C46 0.930 . S
H14 C47 0.930 . S
H15 C45 0.929 . S
H16 C48 0.928 . S
O17 Co1 2.057 . S
O17 C5 1.232 . S
H18 C37 0.929 . S
H19 C38 0.929 . S
H20 C50 0.931 . S
H21 C42 0.929 . S
H22 C51 0.930 . S
H23 C43 0.931 . S
O24 Co0 2.097 . S
O24 C52 1.214 . S
H25 C53 0.929 . S
H26 C54 0.929 . S
H27 C55 0.930 . S
H28 C56 0.929 . S
H29 C58 0.930 . S
H30 C35 0.930 . S
H31 C39 0.930 . S
O32 Co1 2.037 . S
O32 C52 1.234 . S
C33 O7 1.269 . S
C33 O8 1.257 . S
C34 H9 0.930 . S
C34 C37 1.388 . S
C34 C39 1.418 . S
C35 H30 0.930 . S
C35 C38 1.404 . S
C35 C39 1.353 . S
N36 Co1 2.145 . S
N36 C37 1.397 . S
N36 C38 1.334 . S
C37 H18 0.929 . S
C37 C34 1.388 . S
C37 N36 1.397 . S
C38 H19 0.929 . S
C38 C35 1.404 . S
C38 N36 1.334 . S
C39 H31 0.930 . S
C39 C34 1.418 . S
C39 C35 1.353 . S
C40 H10 0.930 . S
C40 N41 1.330 . S
C40 C42 1.446 . S
N41 Co0 2.151 . S
N41 C40 1.330 . S
N41 C45 1.418 . S
C42 H21 0.929 . S
C42 C40 1.446 . S
C42 C43 1.332 . S
C43 H23 0.931 . S
C43 C42 1.332 . S
C43 C44 1.267 . S
C44 H12 0.929 . S
C44 C43 1.267 . S
C44 C45 1.251 . S
C45 H15 0.929 . S
C45 N41 1.418 . S
C45 C44 1.251 . S
C46 H13 0.930 . S
C46 C48 1.406 . S
C46 C51 1.261 . S
C47 H14 0.930 . S
C47 N49 1.325 . S
C47 C50 1.357 . S
C48 H16 0.928 . S
C48 C46 1.406 . S
C48 N49 1.261 . S
N49 Co0 2.214 1_556 S
N49 C47 1.325 . S
N49 C48 1.261 . S
C50 H20 0.931 . S
C50 C47 1.357 . S
C50 C51 1.312 . S
C51 H22 0.930 . S
C51 C46 1.261 . S
C51 C50 1.312 . S
C52 O24 1.214 . S
C52 O32 1.234 . S
C53 H25 0.929 . S
C53 C56 1.391 . S
C53 C58 1.391 . S
C54 H26 0.929 . S
C54 C55 1.390 . S
C54 N57 1.391 . S
C55 H27 0.930 . S
C55 C54 1.390 . S
C55 C56 1.392 . S
C56 H28 0.929 . S
C56 C53 1.391 . S
C56 C55 1.392 . S
N57 Co1 2.257 . S
N57 C54 1.391 . S
N57 C58 1.388 . S
C58 H29 0.930 . S
C58 C53 1.391 . S
C58 N57 1.388 . S
Co59 O61 2.143 . S
Co59 O67 2.074 . S
Co59 O70 2.093 . S
Co59 O83 2.097 . S
Co59 N100 2.151 . S
Co59 N108 2.214 . S
Co60 O61 2.160 . S
Co60 O66 2.058 . S
Co60 O76 2.057 . S
Co60 O91 2.037 . S
Co60 N95 2.145 . S
Co60 N116 2.257 . S
O61 Co59 2.143 . S
O61 Co60 2.160 . S
C62 O63 1.278 . S
C62 O70 1.224 . S
O63 C62 1.278 . S
C64 O65 1.245 . S
C64 O76 1.232 . S
O65 C64 1.245 . S
O66 Co60 2.058 . S
O66 C92 1.269 . S
O67 Co59 2.074 . S
O67 C92 1.257 . S
H68 C93 0.930 . S
H69 C99 0.930 . S
O70 Co59 2.093 . S
O70 C62 1.224 . S
H71 C103 0.929 . S
H72 C105 0.930 . S
H73 C106 0.930 . S
H74 C104 0.929 . S
H75 C107 0.928 . S
O76 Co60 2.057 . S
O76 C64 1.232 . S
H77 C96 0.929 . S
H78 C97 0.929 . S
H79 C109 0.931 . S
H80 C101 0.929 1_655 S
H81 C110 0.930 . S
H82 C102 0.931 1_655 S
O83 Co59 2.097 . S
O83 C111 1.214 . S
H84 C112 0.929 . S
H85 C113 0.929 . S
H86 C114 0.930 . S
H87 C115 0.929 . S
H88 C117 0.930 . S
H89 C94 0.930 . S
H90 C98 0.930 . S
O91 Co60 2.037 . S
O91 C111 1.234 . S
C92 O66 1.269 . S
C92 O67 1.257 . S
C93 H68 0.930 . S
C93 C96 1.388 . S
C93 C98 1.418 . S
C94 H89 0.930 . S
C94 C97 1.404 . S
C94 C98 1.353 . S
N95 Co60 2.145 . S
N95 C96 1.397 . S
N95 C97 1.334 . S
C96 H77 0.929 . S
C96 C93 1.388 . S
C96 N95 1.397 . S
C97 H78 0.929 . S
C97 C94 1.404 . S
C97 N95 1.334 . S
C98 H90 0.930 . S
C98 C93 1.418 . S
C98 C94 1.353 . S
C99 H69 0.930 . S
C99 N100 1.330 . S
C99 C101 1.446 . S
N100 Co59 2.151 . S
N100 C99 1.330 . S
N100 C104 1.418 . S
C101 H80 0.929 1_455 S
C101 C99 1.446 . S
C101 C102 1.332 . S
C102 H82 0.931 1_455 S
C102 C101 1.332 . S
C102 C103 1.267 . S
C103 H71 0.929 . S
C103 C102 1.267 . S
C103 C104 1.251 . S
C104 H74 0.929 . S
C104 N100 1.418 . S
C104 C103 1.251 . S
C105 H72 0.930 . S
C105 C107 1.406 . S
C105 C110 1.261 . S
C106 H73 0.930 . S
C106 N108 1.325 . S
C106 C109 1.357 . S
C107 H75 0.928 . S
C107 C105 1.406 . S
C107 N108 1.261 . S
N108 Co59 2.214 . S
N108 C106 1.325 . S
N108 C107 1.261 . S
C109 H79 0.931 . S
C109 C106 1.357 . S
C109 C110 1.312 . S
C110 H81 0.930 . S
C110 C105 1.261 . S
C110 C109 1.312 . S
C111 O83 1.214 . S
C111 O91 1.234 . S
C112 H84 0.929 . S
C112 C115 1.391 . S
C112 C117 1.391 . S
C113 H85 0.929 . S
C113 C114 1.390 . S
C113 N116 1.391 . S
C114 H86 0.930 . S
C114 C113 1.390 . S
C114 C115 1.392 . S
C115 H87 0.929 . S
C115 C112 1.391 . S
C115 C114 1.392 . S
N116 Co60 2.257 . S
N116 C113 1.391 . S
N116 C117 1.388 . S
C117 H88 0.930 . S
C117 C112 1.391 . S
C117 N116 1.388 . S
Co118 O120 2.143 . S
Co118 O126 2.074 . S
Co118 O129 2.093 . S
Co118 O142 2.097 . S
Co118 N159 2.151 . S
Co118 N167 2.214 . S
Co119 O120 2.160 . S
Co119 O125 2.058 . S
Co119 O135 2.057 . S
Co119 O150 2.037 . S
Co119 N154 2.145 . S
Co119 N175 2.257 . S
O120 Co118 2.143 . S
O120 Co119 2.160 . S
C121 O122 1.278 . S
C121 O129 1.224 . S
O122 C121 1.278 . S
C123 O124 1.245 . S
C123 O135 1.232 . S
O124 C123 1.245 . S
O125 Co119 2.058 . S
O125 C151 1.269 . S
O126 Co118 2.074 . S
O126 C151 1.257 . S
H127 C152 0.930 . S
H128 C158 0.930 . S
O129 Co118 2.093 . S
O129 C121 1.224 . S
H130 C162 0.929 . S
H131 C164 0.930 . S
H132 C165 0.930 . S
H133 C163 0.929 . S
H134 C166 0.928 . S
O135 Co119 2.057 . S
O135 C123 1.232 . S
H136 C155 0.929 . S
H137 C156 0.929 . S
H138 C168 0.931 . S
H139 C160 0.929 1_565 S
H140 C169 0.930 . S
H141 C161 0.931 1_565 S
O142 Co118 2.097 . S
O142 C170 1.214 . S
H143 C171 0.929 . S
H144 C172 0.929 . S
H145 C173 0.930 . S
H146 C174 0.929 . S
H147 C176 0.930 . S
H148 C153 0.930 . S
H149 C157 0.930 . S
O150 Co119 2.037 . S
O150 C170 1.234 . S
C151 O125 1.269 . S
C151 O126 1.257 . S
C152 H127 0.930 . S
C152 C155 1.388 . S
C152 C157 1.418 . S
C153 H148 0.930 . S
C153 C156 1.404 . S
C153 C157 1.353 . S
N154 Co119 2.145 . S
N154 C155 1.397 . S
N154 C156 1.334 . S
C155 H136 0.929 . S
C155 C152 1.388 . S
C155 N154 1.397 . S
C156 H137 0.929 . S
C156 C153 1.404 . S
C156 N154 1.334 . S
C157 H149 0.930 . S
C157 C152 1.418 . S
C157 C153 1.353 . S
C158 H128 0.930 . S
C158 N159 1.330 . S
C158 C160 1.446 . S
N159 Co118 2.151 . S
N159 C158 1.330 . S
N159 C163 1.418 . S
C160 H139 0.929 1_545 S
C160 C158 1.446 . S
C160 C161 1.332 . S
C161 H141 0.931 1_545 S
C161 C160 1.332 . S
C161 C162 1.267 . S
C162 H130 0.929 . S
C162 C161 1.267 . S
C162 C163 1.251 . S
C163 H133 0.929 . S
C163 N159 1.418 . S
C163 C162 1.251 . S
C164 H131 0.930 . S
C164 C166 1.406 . S
C164 C169 1.261 . S
C165 H132 0.930 . S
C165 N167 1.325 . S
C165 C168 1.357 . S
C166 H134 0.928 . S
C166 C164 1.406 . S
C166 N167 1.261 . S
N167 Co118 2.214 . S
N167 C165 1.325 . S
N167 C166 1.261 . S
C168 H138 0.931 . S
C168 C165 1.357 . S
C168 C169 1.312 . S
C169 H140 0.930 . S
C169 C164 1.261 . S
C169 C168 1.312 . S
C170 O142 1.214 . S
C170 O150 1.234 . S
C171 H143 0.929 . S
C171 C174 1.391 . S
C171 C176 1.391 . S
C172 H144 0.929 . S
C172 C173 1.390 . S
C172 N175 1.391 . S
C173 H145 0.930 . S
C173 C172 1.390 . S
C173 C174 1.392 . S
C174 H146 0.929 . S
C174 C171 1.391 . S
C174 C173 1.392 . S
N175 Co119 2.257 . S
N175 C172 1.391 . S
N175 C176 1.388 . S
C176 H147 0.930 . S
C176 C171 1.391 . S
C176 N175 1.388 . S
Co177 O179 2.143 . S
Co177 O185 2.074 . S
Co177 O188 2.093 . S
Co177 O201 2.097 . S
Co177 N218 2.151 . S
Co177 N226 2.214 1_554 S
Co178 O179 2.160 . S
Co178 O184 2.058 . S
Co178 O194 2.057 . S
Co178 O209 2.037 . S
Co178 N213 2.145 . S
Co178 N234 2.257 . S
O179 Co177 2.143 . S
O179 Co178 2.160 . S
C180 O181 1.278 . S
C180 O188 1.224 . S
O181 C180 1.278 . S
C182 O183 1.245 . S
C182 O194 1.232 . S
O183 C182 1.245 . S
O184 Co178 2.058 . S
O184 C210 1.269 . S
O185 Co177 2.074 . S
O185 C210 1.257 . S
H186 C211 0.930 . S
H187 C217 0.930 . S
O188 Co177 2.093 . S
O188 C180 1.224 . S
H189 C221 0.929 . S
H190 C223 0.930 . S
H191 C224 0.930 . S
H192 C222 0.929 . S
H193 C225 0.928 . S
O194 Co178 2.057 . S
O194 C182 1.232 . S
H195 C214 0.929 . S
H196 C215 0.929 . S
H197 C227 0.931 . S
H198 C219 0.929 . S
H199 C228 0.930 . S
H200 C220 0.931 . S
O201 Co177 2.097 . S
O201 C229 1.214 . S
H202 C230 0.929 . S
H203 C231 0.929 . S
H204 C232 0.930 . S
H205 C233 0.929 . S
H206 C235 0.930 . S
H207 C212 0.930 . S
H208 C216 0.930 . S
O209 Co178 2.037 . S
O209 C229 1.234 . S
C210 O184 1.269 . S
C210 O185 1.257 . S
C211 H186 0.930 . S
C211 C214 1.388 . S
C211 C216 1.418 . S
C212 H207 0.930 . S
C212 C215 1.404 . S
C212 C216 1.353 . S
N213 Co178 2.145 . S
N213 C214 1.397 . S
N213 C215 1.334 . S
C214 H195 0.929 . S
C214 C211 1.388 . S
C214 N213 1.397 . S
C215 H196 0.929 . S
C215 C212 1.404 . S
C215 N213 1.334 . S
C216 H208 0.930 . S
C216 C211 1.418 . S
C216 C212 1.353 . S
C217 H187 0.930 . S
C217 N218 1.330 . S
C217 C219 1.446 . S
N218 Co177 2.151 . S
N218 C217 1.330 . S
N218 C222 1.418 . S
C219 H198 0.929 . S
C219 C217 1.446 . S
C219 C220 1.332 . S
C220 H200 0.931 . S
C220 C219 1.332 . S
C220 C221 1.267 . S
C221 H189 0.929 . S
C221 C220 1.267 . S
C221 C222 1.251 . S
C222 H192 0.929 . S
C222 N218 1.418 . S
C222 C221 1.251 . S
C223 H190 0.930 . S
C223 C225 1.406 . S
C223 C228 1.261 . S
C224 H191 0.930 . S
C224 N226 1.325 . S
C224 C227 1.357 . S
C225 H193 0.928 . S
C225 C223 1.406 . S
C225 N226 1.261 . S
N226 Co177 2.214 1_556 S
N226 C224 1.325 . S
N226 C225 1.261 . S
C227 H197 0.931 . S
C227 C224 1.357 . S
C227 C228 1.312 . S
C228 H199 0.930 . S
C228 C223 1.261 . S
C228 C227 1.312 . S
C229 O201 1.214 . S
C229 O209 1.234 . S
C230 H202 0.929 . S
C230 C233 1.391 . S
C230 C235 1.391 . S
C231 H203 0.929 . S
C231 C232 1.390 . S
C231 N234 1.391 . S
C232 H204 0.930 . S
C232 C231 1.390 . S
C232 C233 1.392 . S
C233 H205 0.929 . S
C233 C230 1.391 . S
C233 C232 1.392 . S
N234 Co178 2.257 . S
N234 C231 1.391 . S
N234 C235 1.388 . S
C235 H206 0.930 . S
C235 C230 1.391 . S
C235 N234 1.388 . S
Co236 O238 2.143 . S
Co236 O244 2.074 . S
Co236 O247 2.093 . S
Co236 O260 2.097 . S
Co236 N277 2.151 . S
Co236 N285 2.214 . S
Co237 O238 2.160 . S
Co237 O243 2.058 . S
Co237 O253 2.057 . S
Co237 O268 2.037 . S
Co237 N272 2.145 . S
Co237 N293 2.257 . S
O238 Co236 2.143 . S
O238 Co237 2.160 . S
C239 O240 1.278 . S
C239 O247 1.224 . S
O240 C239 1.278 . S
C241 O242 1.245 . S
C241 O253 1.232 . S
O242 C241 1.245 . S
O243 Co237 2.058 . S
O243 C269 1.269 . S
O244 Co236 2.074 . S
O244 C269 1.257 . S
H245 C270 0.930 . S
H246 C276 0.930 . S
O247 Co236 2.093 . S
O247 C239 1.224 . S
H248 C280 0.929 . S
H249 C282 0.930 . S
H250 C283 0.930 . S
H251 C281 0.929 . S
H252 C284 0.928 . S
O253 Co237 2.057 . S
O253 C241 1.232 . S
H254 C273 0.929 . S
H255 C274 0.929 . S
H256 C286 0.931 . S
H257 C278 0.929 1_455 S
H258 C287 0.930 . S
H259 C279 0.931 1_455 S
O260 Co236 2.097 . S
O260 C288 1.214 . S
H261 C289 0.929 . S
H262 C290 0.929 . S
H263 C291 0.930 . S
H264 C292 0.929 . S
H265 C294 0.930 . S
H266 C271 0.930 . S
H267 C275 0.930 . S
O268 Co237 2.037 . S
O268 C288 1.234 . S
C269 O243 1.269 . S
C269 O244 1.257 . S
C270 H245 0.930 . S
C270 C273 1.388 . S
C270 C275 1.418 . S
C271 H266 0.930 . S
C271 C274 1.404 . S
C271 C275 1.353 . S
N272 Co237 2.145 . S
N272 C273 1.397 . S
N272 C274 1.334 . S
C273 H254 0.929 . S
C273 C270 1.388 . S
C273 N272 1.397 . S
C274 H255 0.929 . S
C274 C271 1.404 . S
C274 N272 1.334 . S
C275 H267 0.930 . S
C275 C270 1.418 . S
C275 C271 1.353 . S
C276 H246 0.930 . S
C276 N277 1.330 . S
C276 C278 1.446 . S
N277 Co236 2.151 . S
N277 C276 1.330 . S
N277 C281 1.418 . S
C278 H257 0.929 1_655 S
C278 C276 1.446 . S
C278 C279 1.332 . S
C279 H259 0.931 1_655 S
C279 C278 1.332 . S
C279 C280 1.267 . S
C280 H248 0.929 . S
C280 C279 1.267 . S
C280 C281 1.251 . S
C281 H251 0.929 . S
C281 N277 1.418 . S
C281 C280 1.251 . S
C282 H249 0.930 . S
C282 C284 1.406 . S
C282 C287 1.261 . S
C283 H250 0.930 . S
C283 N285 1.325 . S
C283 C286 1.357 . S
C284 H252 0.928 . S
C284 C282 1.406 . S
C284 N285 1.261 . S
N285 Co236 2.214 . S
N285 C283 1.325 . S
N285 C284 1.261 . S
C286 H256 0.931 . S
C286 C283 1.357 . S
C286 C287 1.312 . S
C287 H258 0.930 . S
C287 C282 1.261 . S
C287 C286 1.312 . S
C288 O260 1.214 . S
C288 O268 1.234 . S
C289 H261 0.929 . S
C289 C292 1.391 . S
C289 C294 1.391 . S
C290 H262 0.929 . S
C290 C291 1.390 . S
C290 N293 1.391 . S
C291 H263 0.930 . S
C291 C290 1.390 . S
C291 C292 1.392 . S
C292 H264 0.929 . S
C292 C289 1.391 . S
C292 C291 1.392 . S
N293 Co237 2.257 . S
N293 C290 1.391 . S
N293 C294 1.388 . S
C294 H265 0.930 . S
C294 C289 1.391 . S
C294 N293 1.388 . S
Co295 O297 2.143 . S
Co295 O303 2.074 . S
Co295 O306 2.093 . S
Co295 O319 2.097 . S
Co295 N336 2.151 . S
Co295 N344 2.214 . S
Co296 O297 2.160 . S
Co296 O302 2.058 . S
Co296 O312 2.057 . S
Co296 O327 2.037 . S
Co296 N331 2.145 . S
Co296 N352 2.257 . S
O297 Co295 2.143 . S
O297 Co296 2.160 . S
C298 O299 1.278 . S
C298 O306 1.224 . S
O299 C298 1.278 . S
C300 O301 1.245 . S
C300 O312 1.232 . S
O301 C300 1.245 . S
O302 Co296 2.058 . S
O302 C328 1.269 . S
O303 Co295 2.074 . S
O303 C328 1.257 . S
H304 C329 0.930 . S
H305 C335 0.930 . S
O306 Co295 2.093 . S
O306 C298 1.224 . S
H307 C339 0.929 . S
H308 C341 0.930 . S
H309 C342 0.930 . S
H310 C340 0.929 . S
H311 C343 0.928 . S
O312 Co296 2.057 . S
O312 C300 1.232 . S
H313 C332 0.929 . S
H314 C333 0.929 . S
H315 C345 0.931 . S
H316 C337 0.929 1_545 S
H317 C346 0.930 . S
H318 C338 0.931 1_545 S
O319 Co295 2.097 . S
O319 C347 1.214 . S
H320 C348 0.929 . S
H321 C349 0.929 . S
H322 C350 0.930 . S
H323 C351 0.929 . S
H324 C353 0.930 . S
H325 C330 0.930 . S
H326 C334 0.930 . S
O327 Co296 2.037 . S
O327 C347 1.234 . S
C328 O302 1.269 . S
C328 O303 1.257 . S
C329 H304 0.930 . S
C329 C332 1.388 . S
C329 C334 1.418 . S
C330 H325 0.930 . S
C330 C333 1.404 . S
C330 C334 1.353 . S
N331 Co296 2.145 . S
N331 C332 1.397 . S
N331 C333 1.334 . S
C332 H313 0.929 . S
C332 C329 1.388 . S
C332 N331 1.397 . S
C333 H314 0.929 . S
C333 C330 1.404 . S
C333 N331 1.334 . S
C334 H326 0.930 . S
C334 C329 1.418 . S
C334 C330 1.353 . S
C335 H305 0.930 . S
C335 N336 1.330 . S
C335 C337 1.446 . S
N336 Co295 2.151 . S
N336 C335 1.330 . S
N336 C340 1.418 . S
C337 H316 0.929 1_565 S
C337 C335 1.446 . S
C337 C338 1.332 . S
C338 H318 0.931 1_565 S
C338 C337 1.332 . S
C338 C339 1.267 . S
C339 H307 0.929 . S
C339 C338 1.267 . S
C339 C340 1.251 . S
C340 H310 0.929 . S
C340 N336 1.418 . S
C340 C339 1.251 . S
C341 H308 0.930 . S
C341 C343 1.406 . S
C341 C346 1.261 . S
C342 H309 0.930 . S
C342 N344 1.325 . S
C342 C345 1.357 . S
C343 H311 0.928 . S
C343 C341 1.406 . S
C343 N344 1.261 . S
N344 Co295 2.214 . S
N344 C342 1.325 . S
N344 C343 1.261 . S
C345 H315 0.931 . S
C345 C342 1.357 . S
C345 C346 1.312 . S
C346 H317 0.930 . S
C346 C341 1.261 . S
C346 C345 1.312 . S
C347 O319 1.214 . S
C347 O327 1.234 . S
C348 H320 0.929 . S
C348 C351 1.391 . S
C348 C353 1.391 . S
C349 H321 0.929 . S
C349 C350 1.390 . S
C349 N352 1.391 . S
C350 H322 0.930 . S
C350 C349 1.390 . S
C350 C351 1.392 . S
C351 H323 0.929 . S
C351 C348 1.391 . S
C351 C350 1.392 . S
N352 Co296 2.257 . S
N352 C349 1.391 . S
N352 C353 1.388 . S
C353 H324 0.930 . S
C353 C348 1.391 . S
C353 N352 1.388 . S
Co354 O356 2.143 . S
Co354 O362 2.074 . S
Co354 O365 2.093 . S
Co354 O378 2.097 . S
Co354 N395 2.151 . S
Co354 N403 2.214 . S
Co355 O356 2.160 . S
Co355 O361 2.058 . S
Co355 O371 2.057 . S
Co355 O386 2.037 . S
Co355 N390 2.145 . S
Co355 N411 2.257 . S
O356 Co354 2.143 . S
O356 Co355 2.160 . S
C357 O358 1.278 . S
C357 O365 1.224 . S
O358 C357 1.278 . S
C359 O360 1.245 . S
C359 O371 1.232 . S
O360 C359 1.245 . S
O361 Co355 2.058 . S
O361 C387 1.269 . S
O362 Co354 2.074 . S
O362 C387 1.257 . S
H363 C388 0.930 . S
H364 C394 0.930 . S
O365 Co354 2.093 . S
O365 C357 1.224 . S
H366 C398 0.929 . S
H367 C400 0.930 . S
H368 C401 0.930 . S
H369 C399 0.929 . S
H370 C402 0.928 . S
O371 Co355 2.057 . S
O371 C359 1.232 . S
H372 C391 0.929 . S
H373 C392 0.929 . S
H374 C404 0.931 . S
H375 C396 0.929 . S
H376 C405 0.930 . S
H377 C397 0.931 . S
O378 Co354 2.097 . S
O378 C406 1.214 . S
H379 C407 0.929 . S
H380 C408 0.929 . S
H381 C409 0.930 . S
H382 C410 0.929 . S
H383 C412 0.930 . S
H384 C389 0.930 . S
H385 C393 0.930 . S
O386 Co355 2.037 . S
O386 C406 1.234 . S
C387 O361 1.269 . S
C387 O362 1.257 . S
C388 H363 0.930 . S
C388 C391 1.388 . S
C388 C393 1.418 . S
C389 H384 0.930 . S
C389 C392 1.404 . S
C389 C393 1.353 . S
N390 Co355 2.145 . S
N390 C391 1.397 . S
N390 C392 1.334 . S
C391 H372 0.929 . S
C391 C388 1.388 . S
C391 N390 1.397 . S
C392 H373 0.929 . S
C392 C389 1.404 . S
C392 N390 1.334 . S
C393 H385 0.930 . S
C393 C388 1.418 . S
C393 C389 1.353 . S
C394 H364 0.930 . S
C394 N395 1.330 . S
C394 C396 1.446 . S
N395 Co354 2.151 . S
N395 C394 1.330 . S
N395 C399 1.418 . S
C396 H375 0.929 . S
C396 C394 1.446 . S
C396 C397 1.332 . S
C397 H377 0.931 . S
C397 C396 1.332 . S
C397 C398 1.267 . S
C398 H366 0.929 . S
C398 C397 1.267 . S
C398 C399 1.251 . S
C399 H369 0.929 . S
C399 N395 1.418 . S
C399 C398 1.251 . S
C400 H367 0.930 . S
C400 C402 1.406 . S
C400 C405 1.261 . S
C401 H368 0.930 . S
C401 N403 1.325 . S
C401 C404 1.357 . S
C402 H370 0.928 . S
C402 C400 1.406 . S
C402 N403 1.261 . S
N403 Co354 2.214 . S
N403 C401 1.325 . S
N403 C402 1.261 . S
C404 H374 0.931 . S
C404 C401 1.357 . S
C404 C405 1.312 . S
C405 H376 0.930 . S
C405 C400 1.261 . S
C405 C404 1.312 . S
C406 O378 1.214 . S
C406 O386 1.234 . S
C407 H379 0.929 . S
C407 C410 1.391 . S
C407 C412 1.391 . S
C408 H380 0.929 . S
C408 C409 1.390 . S
C408 N411 1.391 . S
C409 H381 0.930 . S
C409 C408 1.390 . S
C409 C410 1.392 . S
C410 H382 0.929 . S
C410 C407 1.391 . S
C410 C409 1.392 . S
N411 Co355 2.257 . S
N411 C408 1.391 . S
N411 C412 1.388 . S
C412 H383 0.930 . S
C412 C407 1.391 . S
C412 N411 1.388 . S
Co413 O415 2.143 . S
Co413 O421 2.074 . S
Co413 O424 2.093 . S
Co413 O437 2.097 . S
Co413 N454 2.151 . S
Co413 N462 2.214 1_556 S
Co414 O415 2.160 . S
Co414 O420 2.058 . S
Co414 O430 2.057 . S
Co414 O445 2.037 . S
Co414 N449 2.145 . S
Co414 N470 2.257 . S
O415 Co413 2.143 . S
O415 Co414 2.160 . S
C416 O417 1.278 . S
C416 O424 1.224 . S
O417 C416 1.278 . S
C418 O419 1.245 . S
C418 O430 1.232 . S
O419 C418 1.245 . S
O420 Co414 2.058 . S
O420 C446 1.269 . S
O421 Co413 2.074 . S
O421 C446 1.257 . S
H422 C447 0.930 . S
H423 C453 0.930 . S
O424 Co413 2.093 . S
O424 C416 1.224 . S
H425 C457 0.929 . S
H426 C459 0.930 . S
H427 C460 0.930 . S
H428 C458 0.929 . S
H429 C461 0.928 . S
O430 Co414 2.057 . S
O430 C418 1.232 . S
H431 C450 0.929 . S
H432 C451 0.929 . S
H433 C463 0.931 . S
H434 C455 0.929 1_655 S
H435 C464 0.930 . S
H436 C456 0.931 1_655 S
O437 Co413 2.097 . S
O437 C465 1.214 . S
H438 C466 0.929 . S
H439 C467 0.929 . S
H440 C468 0.930 . S
H441 C469 0.929 . S
H442 C471 0.930 . S
H443 C448 0.930 . S
H444 C452 0.930 . S
O445 Co414 2.037 . S
O445 C465 1.234 . S
C446 O420 1.269 . S
C446 O421 1.257 . S
C447 H422 0.930 . S
C447 C450 1.388 . S
C447 C452 1.418 . S
C448 H443 0.930 . S
C448 C451 1.404 . S
C448 C452 1.353 . S
N449 Co414 2.145 . S
N449 C450 1.397 . S
N449 C451 1.334 . S
C450 H431 0.929 . S
C450 C447 1.388 . S
C450 N449 1.397 . S
C451 H432 0.929 . S
C451 C448 1.404 . S
C451 N449 1.334 . S
C452 H444 0.930 . S
C452 C447 1.418 . S
C452 C448 1.353 . S
C453 H423 0.930 . S
C453 N454 1.330 . S
C453 C455 1.446 . S
N454 Co413 2.151 . S
N454 C453 1.330 . S
N454 C458 1.418 . S
C455 H434 0.929 1_455 S
C455 C453 1.446 . S
C455 C456 1.332 . S
C456 H436 0.931 1_455 S
C456 C455 1.332 . S
C456 C457 1.267 . S
C457 H425 0.929 . S
C457 C456 1.267 . S
C457 C458 1.251 . S
C458 H428 0.929 . S
C458 N454 1.418 . S
C458 C457 1.251 . S
C459 H426 0.930 . S
C459 C461 1.406 . S
C459 C464 1.261 . S
C460 H427 0.930 . S
C460 N462 1.325 . S
C460 C463 1.357 . S
C461 H429 0.928 . S
C461 C459 1.406 . S
C461 N462 1.261 . S
N462 Co413 2.214 1_554 S
N462 C460 1.325 . S
N462 C461 1.261 . S
C463 H433 0.931 . S
C463 C460 1.357 . S
C463 C464 1.312 . S
C464 H435 0.930 . S
C464 C459 1.261 . S
C464 C463 1.312 . S
C465 O437 1.214 . S
C465 O445 1.234 . S
C466 H438 0.929 . S
C466 C469 1.391 . S
C466 C471 1.391 . S
C467 H439 0.929 . S
C467 C468 1.390 . S
C467 N470 1.391 . S
C468 H440 0.930 . S
C468 C467 1.390 . S
C468 C469 1.392 . S
C469 H441 0.929 . S
C469 C466 1.391 . S
C469 C468 1.392 . S
N470 Co414 2.257 . S
N470 C467 1.391 . S
N470 C471 1.388 . S
C471 H442 0.930 . S
C471 C466 1.391 . S
C471 N470 1.388 . S
Co472 O474 2.143 . S
Co472 O480 2.074 . S
Co472 O483 2.093 . S
Co472 O496 2.097 . S
Co472 N513 2.151 . S
Co472 N521 2.214 . S
Co473 O474 2.160 . S
Co473 O479 2.058 . S
Co473 O489 2.057 . S
Co473 O504 2.037 . S
Co473 N508 2.145 . S
Co473 N529 2.257 . S
O474 Co472 2.143 . S
O474 Co473 2.160 . S
C475 O476 1.278 . S
C475 O483 1.224 . S
O476 C475 1.278 . S
C477 O478 1.245 . S
C477 O489 1.232 . S
O478 C477 1.245 . S
O479 Co473 2.058 . S
O479 C505 1.269 . S
O480 Co472 2.074 . S
O480 C505 1.257 . S
H481 C506 0.930 . S
H482 C512 0.930 . S
O483 Co472 2.093 . S
O483 C475 1.224 . S
H484 C516 0.929 . S
H485 C518 0.930 . S
H486 C519 0.930 . S
H487 C517 0.929 . S
H488 C520 0.928 . S
O489 Co473 2.057 . S
O489 C477 1.232 . S
H490 C509 0.929 . S
H491 C510 0.929 . S
H492 C522 0.931 . S
H493 C514 0.929 1_565 S
H494 C523 0.930 . S
H495 C515 0.931 1_565 S
O496 Co472 2.097 . S
O496 C524 1.214 . S
H497 C525 0.929 . S
H498 C526 0.929 . S
H499 C527 0.930 . S
H500 C528 0.929 . S
H501 C530 0.930 . S
H502 C507 0.930 . S
H503 C511 0.930 . S
O504 Co473 2.037 . S
O504 C524 1.234 . S
C505 O479 1.269 . S
C505 O480 1.257 . S
C506 H481 0.930 . S
C506 C509 1.388 . S
C506 C511 1.418 . S
C507 H502 0.930 . S
C507 C510 1.404 . S
C507 C511 1.353 . S
N508 Co473 2.145 . S
N508 C509 1.397 . S
N508 C510 1.334 . S
C509 H490 0.929 . S
C509 C506 1.388 . S
C509 N508 1.397 . S
C510 H491 0.929 . S
C510 C507 1.404 . S
C510 N508 1.334 . S
C511 H503 0.930 . S
C511 C506 1.418 . S
C511 C507 1.353 . S
C512 H482 0.930 . S
C512 N513 1.330 . S
C512 C514 1.446 . S
N513 Co472 2.151 . S
N513 C512 1.330 . S
N513 C517 1.418 . S
C514 H493 0.929 1_545 S
C514 C512 1.446 . S
C514 C515 1.332 . S
C515 H495 0.931 1_545 S
C515 C514 1.332 . S
C515 C516 1.267 . S
C516 H484 0.929 . S
C516 C515 1.267 . S
C516 C517 1.251 . S
C517 H487 0.929 . S
C517 N513 1.418 . S
C517 C516 1.251 . S
C518 H485 0.930 . S
C518 C520 1.406 . S
C518 C523 1.261 . S
C519 H486 0.930 . S
C519 N521 1.325 . S
C519 C522 1.357 . S
C520 H488 0.928 . S
C520 C518 1.406 . S
C520 N521 1.261 . S
N521 Co472 2.214 . S
N521 C519 1.325 . S
N521 C520 1.261 . S
C522 H492 0.931 . S
C522 C519 1.357 . S
C522 C523 1.312 . S
C523 H494 0.930 . S
C523 C518 1.261 . S
C523 C522 1.312 . S
C524 O496 1.214 . S
C524 O504 1.234 . S
C525 H497 0.929 . S
C525 C528 1.391 . S
C525 C530 1.391 . S
C526 H498 0.929 . S
C526 C527 1.390 . S
C526 N529 1.391 . S
C527 H499 0.930 . S
C527 C526 1.390 . S
C527 C528 1.392 . S
C528 H500 0.929 . S
C528 C525 1.391 . S
C528 C527 1.392 . S
N529 Co473 2.257 . S
N529 C526 1.391 . S
N529 C530 1.388 . S
C530 H501 0.930 . S
C530 C525 1.391 . S
C530 N529 1.388 . S
Co531 O533 2.143 . S
Co531 O539 2.074 . S
Co531 O542 2.093 . S
Co531 O555 2.097 . S
Co531 N572 2.151 . S
Co531 N580 2.214 . S
Co532 O533 2.160 . S
Co532 O538 2.058 . S
Co532 O548 2.057 . S
Co532 O563 2.037 . S
Co532 N567 2.145 . S
Co532 N588 2.257 . S
O533 Co531 2.143 . S
O533 Co532 2.160 . S
C534 O535 1.278 . S
C534 O542 1.224 . S
O535 C534 1.278 . S
C536 O537 1.245 . S
C536 O548 1.232 . S
O537 C536 1.245 . S
O538 Co532 2.058 . S
O538 C564 1.269 . S
O539 Co531 2.074 . S
O539 C564 1.257 . S
H540 C565 0.930 . S
H541 C571 0.930 . S
O542 Co531 2.093 . S
O542 C534 1.224 . S
H543 C575 0.929 . S
H544 C577 0.930 . S
H545 C578 0.930 . S
H546 C576 0.929 . S
H547 C579 0.928 . S
O548 Co532 2.057 . S
O548 C536 1.232 . S
H549 C568 0.929 . S
H550 C569 0.929 . S
H551 C581 0.931 . S
H552 C573 0.929 . S
H553 C582 0.930 . S
H554 C574 0.931 . S
O555 Co531 2.097 . S
O555 C583 1.214 . S
H556 C584 0.929 . S
H557 C585 0.929 . S
H558 C586 0.930 . S
H559 C587 0.929 . S
H560 C589 0.930 . S
H561 C566 0.930 . S
H562 C570 0.930 . S
O563 Co532 2.037 . S
O563 C583 1.234 . S
C564 O538 1.269 . S
C564 O539 1.257 . S
C565 H540 0.930 . S
C565 C568 1.388 . S
C565 C570 1.418 . S
C566 H561 0.930 . S
C566 C569 1.404 . S
C566 C570 1.353 . S
N567 Co532 2.145 . S
N567 C568 1.397 . S
N567 C569 1.334 . S
C568 H549 0.929 . S
C568 C565 1.388 . S
C568 N567 1.397 . S
C569 H550 0.929 . S
C569 C566 1.404 . S
C569 N567 1.334 . S
C570 H562 0.930 . S
C570 C565 1.418 . S
C570 C566 1.353 . S
C571 H541 0.930 . S
C571 N572 1.330 . S
C571 C573 1.446 . S
N572 Co531 2.151 . S
N572 C571 1.330 . S
N572 C576 1.418 . S
C573 H552 0.929 . S
C573 C571 1.446 . S
C573 C574 1.332 . S
C574 H554 0.931 . S
C574 C573 1.332 . S
C574 C575 1.267 . S
C575 H543 0.929 . S
C575 C574 1.267 . S
C575 C576 1.251 . S
C576 H546 0.929 . S
C576 N572 1.418 . S
C576 C575 1.251 . S
C577 H544 0.930 . S
C577 C579 1.406 . S
C577 C582 1.261 . S
C578 H545 0.930 . S
C578 N580 1.325 . S
C578 C581 1.357 . S
C579 H547 0.928 . S
C579 C577 1.406 . S
C579 N580 1.261 . S
N580 Co531 2.214 . S
N580 C578 1.325 . S
N580 C579 1.261 . S
C581 H551 0.931 . S
C581 C578 1.357 . S
C581 C582 1.312 . S
C582 H553 0.930 . S
C582 C577 1.261 . S
C582 C581 1.312 . S
C583 O555 1.214 . S
C583 O563 1.234 . S
C584 H556 0.929 . S
C584 C587 1.391 . S
C584 C589 1.391 . S
C585 H557 0.929 . S
C585 C586 1.390 . S
C585 N588 1.391 . S
C586 H558 0.930 . S
C586 C585 1.390 . S
C586 C587 1.392 . S
C587 H559 0.929 . S
C587 C584 1.391 . S
C587 C586 1.392 . S
N588 Co532 2.257 . S
N588 C585 1.391 . S
N588 C589 1.388 . S
C589 H560 0.930 . S
C589 C584 1.391 . S
C589 N588 1.388 . S
Co590 O592 2.143 . S
Co590 O598 2.074 . S
Co590 O601 2.093 . S
Co590 O614 2.097 . S
Co590 N631 2.151 . S
Co590 N639 2.214 1_556 S
Co591 O592 2.160 . S
Co591 O597 2.058 . S
Co591 O607 2.057 . S
Co591 O622 2.037 . S
Co591 N626 2.145 . S
Co591 N647 2.257 . S
O592 Co590 2.143 . S
O592 Co591 2.160 . S
C593 O594 1.278 . S
C593 O601 1.224 . S
O594 C593 1.278 . S
C595 O596 1.245 . S
C595 O607 1.232 . S
O596 C595 1.245 . S
O597 Co591 2.058 . S
O597 C623 1.269 . S
O598 Co590 2.074 . S
O598 C623 1.257 . S
H599 C624 0.930 . S
H600 C630 0.930 . S
O601 Co590 2.093 . S
O601 C593 1.224 . S
H602 C634 0.929 . S
H603 C636 0.930 . S
H604 C637 0.930 . S
H605 C635 0.929 . S
H606 C638 0.928 . S
O607 Co591 2.057 . S
O607 C595 1.232 . S
H608 C627 0.929 . S
H609 C628 0.929 . S
H610 C640 0.931 . S
H611 C632 0.929 1_455 S
H612 C641 0.930 . S
H613 C633 0.931 1_455 S
O614 Co590 2.097 . S
O614 C642 1.214 . S
H615 C643 0.929 . S
H616 C644 0.929 . S
H617 C645 0.930 . S
H618 C646 0.929 . S
H619 C648 0.930 . S
H620 C625 0.930 . S
H621 C629 0.930 . S
O622 Co591 2.037 . S
O622 C642 1.234 . S
C623 O597 1.269 . S
C623 O598 1.257 . S
C624 H599 0.930 . S
C624 C627 1.388 . S
C624 C629 1.418 . S
C625 H620 0.930 . S
C625 C628 1.404 . S
C625 C629 1.353 . S
N626 Co591 2.145 . S
N626 C627 1.397 . S
N626 C628 1.334 . S
C627 H608 0.929 . S
C627 C624 1.388 . S
C627 N626 1.397 . S
C628 H609 0.929 . S
C628 C625 1.404 . S
C628 N626 1.334 . S
C629 H621 0.930 . S
C629 C624 1.418 . S
C629 C625 1.353 . S
C630 H600 0.930 . S
C630 N631 1.330 . S
C630 C632 1.446 . S
N631 Co590 2.151 . S
N631 C630 1.330 . S
N631 C635 1.418 . S
C632 H611 0.929 1_655 S
C632 C630 1.446 . S
C632 C633 1.332 . S
C633 H613 0.931 1_655 S
C633 C632 1.332 . S
C633 C634 1.267 . S
C634 H602 0.929 . S
C634 C633 1.267 . S
C634 C635 1.251 . S
C635 H605 0.929 . S
C635 N631 1.418 . S
C635 C634 1.251 . S
C636 H603 0.930 . S
C636 C638 1.406 . S
C636 C641 1.261 . S
C637 H604 0.930 . S
C637 N639 1.325 . S
C637 C640 1.357 . S
C638 H606 0.928 . S
C638 C636 1.406 . S
C638 N639 1.261 . S
N639 Co590 2.214 1_554 S
N639 C637 1.325 . S
N639 C638 1.261 . S
C640 H610 0.931 . S
C640 C637 1.357 . S
C640 C641 1.312 . S
C641 H612 0.930 . S
C641 C636 1.261 . S
C641 C640 1.312 . S
C642 O614 1.214 . S
C642 O622 1.234 . S
C643 H615 0.929 . S
C643 C646 1.391 . S
C643 C648 1.391 . S
C644 H616 0.929 . S
C644 C645 1.390 . S
C644 N647 1.391 . S
C645 H617 0.930 . S
C645 C644 1.390 . S
C645 C646 1.392 . S
C646 H618 0.929 . S
C646 C643 1.391 . S
C646 C645 1.392 . S
N647 Co591 2.257 . S
N647 C644 1.391 . S
N647 C648 1.388 . S
C648 H619 0.930 . S
C648 C643 1.391 . S
C648 N647 1.388 . S
Co649 O651 2.143 . S
Co649 O657 2.074 . S
Co649 O660 2.093 . S
Co649 O673 2.097 . S
Co649 N690 2.151 . S
Co649 N698 2.214 . S
Co650 O651 2.160 . S
Co650 O656 2.058 . S
Co650 O666 2.057 . S
Co650 O681 2.037 . S
Co650 N685 2.145 . S
Co650 N706 2.257 . S
O651 Co649 2.143 . S
O651 Co650 2.160 . S
C652 O653 1.278 . S
C652 O660 1.224 . S
O653 C652 1.278 . S
C654 O655 1.245 . S
C654 O666 1.232 . S
O655 C654 1.245 . S
O656 Co650 2.058 . S
O656 C682 1.269 . S
O657 Co649 2.074 . S
O657 C682 1.257 . S
H658 C683 0.930 . S
H659 C689 0.930 . S
O660 Co649 2.093 . S
O660 C652 1.224 . S
H661 C693 0.929 . S
H662 C695 0.930 . S
H663 C696 0.930 . S
H664 C694 0.929 . S
H665 C697 0.928 . S
O666 Co650 2.057 . S
O666 C654 1.232 . S
H667 C686 0.929 . S
H668 C687 0.929 . S
H669 C699 0.931 . S
H670 C691 0.929 1_545 S
H671 C700 0.930 . S
H672 C692 0.931 1_545 S
O673 Co649 2.097 . S
O673 C701 1.214 . S
H674 C702 0.929 . S
H675 C703 0.929 . S
H676 C704 0.930 . S
H677 C705 0.929 . S
H678 C707 0.930 . S
H679 C684 0.930 . S
H680 C688 0.930 . S
O681 Co650 2.037 . S
O681 C701 1.234 . S
C682 O656 1.269 . S
C682 O657 1.257 . S
C683 H658 0.930 . S
C683 C686 1.388 . S
C683 C688 1.418 . S
C684 H679 0.930 . S
C684 C687 1.404 . S
C684 C688 1.353 . S
N685 Co650 2.145 . S
N685 C686 1.397 . S
N685 C687 1.334 . S
C686 H667 0.929 . S
C686 C683 1.388 . S
C686 N685 1.397 . S
C687 H668 0.929 . S
C687 C684 1.404 . S
C687 N685 1.334 . S
C688 H680 0.930 . S
C688 C683 1.418 . S
C688 C684 1.353 . S
C689 H659 0.930 . S
C689 N690 1.330 . S
C689 C691 1.446 . S
N690 Co649 2.151 . S
N690 C689 1.330 . S
N690 C694 1.418 . S
C691 H670 0.929 1_565 S
C691 C689 1.446 . S
C691 C692 1.332 . S
C692 H672 0.931 1_565 S
C692 C691 1.332 . S
C692 C693 1.267 . S
C693 H661 0.929 . S
C693 C692 1.267 . S
C693 C694 1.251 . S
C694 H664 0.929 . S
C694 N690 1.418 . S
C694 C693 1.251 . S
C695 H662 0.930 . S
C695 C697 1.406 . S
C695 C700 1.261 . S
C696 H663 0.930 . S
C696 N698 1.325 . S
C696 C699 1.357 . S
C697 H665 0.928 . S
C697 C695 1.406 . S
C697 N698 1.261 . S
N698 Co649 2.214 . S
N698 C696 1.325 . S
N698 C697 1.261 . S
C699 H669 0.931 . S
C699 C696 1.357 . S
C699 C700 1.312 . S
C700 H671 0.930 . S
C700 C695 1.261 . S
C700 C699 1.312 . S
C701 O673 1.214 . S
C701 O681 1.234 . S
C702 H674 0.929 . S
C702 C705 1.391 . S
C702 C707 1.391 . S
C703 H675 0.929 . S
C703 C704 1.390 . S
C703 N706 1.391 . S
C704 H676 0.930 . S
C704 C703 1.390 . S
C704 C705 1.392 . S
C705 H677 0.929 . S
C705 C702 1.391 . S
C705 C704 1.392 . S
N706 Co650 2.257 . S
N706 C703 1.391 . S
N706 C707 1.388 . S
C707 H678 0.930 . S
C707 C702 1.391 . S
C707 N706 1.388 . S
C708 C709 1.391 . S
C708 C710 1.394 1_556 S
C708 H724 0.931 . S
C709 C708 1.391 . S
C709 C713 1.376 . S
C710 C708 1.394 1_554 S
C710 C711 1.369 1_554 S
C710 C714 1.531 . S
C711 C710 1.369 1_556 S
C711 C712 1.410 . S
C711 C719 1.503 1_566 S
C712 C711 1.410 . S
C712 C713 1.392 . S
C712 C715 1.511 1_565 S
C713 C709 1.376 . S
C713 C712 1.392 . S
C713 H725 0.929 . S
C714 C710 1.531 . S
C714 H726 0.960 . S
C714 H727 0.962 . S
C714 H728 0.960 . S
C715 C712 1.511 1_545 S
C715 H729 0.961 . S
C715 H730 0.961 . S
C715 H731 0.961 . S
C716 C717 1.370 . S
C716 C718 1.363 . S
C716 H732 0.931 . S
C717 C716 1.370 . S
C717 C721 1.408 . S
C718 C716 1.363 . S
C718 C719 1.370 . S
C718 C722 1.524 1_554 S
C719 C711 1.503 1_544 S
C719 C718 1.370 . S
C719 C720 1.403 . S
C720 C719 1.403 . S
C720 C721 1.404 . S
C720 C723 1.539 1_545 S
C721 C717 1.408 . S
C721 C720 1.404 . S
C721 H733 0.930 . S
C722 C718 1.524 1_556 S
C722 H734 0.956 . S
C722 H735 0.961 . S
C722 H736 0.961 . S
C723 C720 1.539 1_565 S
C723 H737 0.958 . S
C723 H738 0.961 1_565 S
C723 H739 0.960 . S
H724 C708 0.931 . S
H725 C713 0.929 . S
H726 C714 0.960 . S
H727 C714 0.962 . S
H728 C714 0.960 . S
H729 C715 0.961 . S
H730 C715 0.961 . S
H731 C715 0.961 . S
H732 C716 0.931 . S
H733 C721 0.930 . S
H734 C722 0.956 . S
H735 C722 0.961 . S
H736 C722 0.961 . S
H737 C723 0.958 . S
H738 C723 0.961 1_545 S
H739 C723 0.960 . S
C740 C741 1.391 . S
C740 C742 1.394 . S
C740 H756 0.931 . S
C741 C740 1.391 . S
C741 C745 1.376 . S
C742 C740 1.394 . S
C742 C743 1.369 . S
C742 C746 1.531 . S
C743 C742 1.369 . S
C743 C744 1.410 . S
C743 C751 1.503 . S
C744 C743 1.410 . S
C744 C745 1.392 . S
C744 C747 1.511 . S
C745 C741 1.376 . S
C745 C744 1.392 . S
C745 H757 0.929 . S
C746 C742 1.531 . S
C746 H758 0.960 . S
C746 H759 0.962 . S
C746 H760 0.960 . S
C747 C744 1.511 . S
C747 H761 0.961 . S
C747 H762 0.961 . S
C747 H763 0.961 . S
C748 C749 1.370 . S
C748 C750 1.363 . S
C748 H764 0.931 . S
C749 C748 1.370 . S
C749 C753 1.408 . S
C750 C748 1.363 . S
C750 C751 1.370 . S
C750 C754 1.524 . S
C751 C743 1.503 . S
C751 C750 1.370 . S
C751 C752 1.403 . S
C752 C751 1.403 . S
C752 C753 1.404 . S
C752 C755 1.539 . S
C753 C749 1.408 . S
C753 C752 1.404 . S
C753 H765 0.930 . S
C754 C750 1.524 . S
C754 H766 0.956 . S
C754 H767 0.961 . S
C754 H768 0.961 . S
C755 C752 1.539 . S
C755 H769 0.958 . S
C755 H770 0.961 . S
C755 H771 0.960 . S
H756 C740 0.931 . S
H757 C745 0.929 . S
H758 C746 0.960 . S
H759 C746 0.962 . S
H760 C746 0.960 . S
H761 C747 0.961 . S
H762 C747 0.961 . S
H763 C747 0.961 . S
H764 C748 0.931 . S
H765 C753 0.930 . S
H766 C754 0.956 . S
H767 C754 0.961 . S
H768 C754 0.961 . S
H769 C755 0.958 . S
H770 C755 0.961 . S
H771 C755 0.960 . S
C772 C773 1.391 . S
C772 C774 1.394 . S
C772 H788 0.931 . S
C773 C772 1.391 . S
C773 C777 1.376 . S
C774 C772 1.394 . S
C774 C775 1.369 . S
C774 C778 1.531 1_655 S
C775 C774 1.369 . S
C775 C776 1.410 . S
C775 C783 1.503 1_655 S
C776 C775 1.410 . S
C776 C777 1.392 . S
C776 C779 1.511 . S
C777 C773 1.376 . S
C777 C776 1.392 . S
C777 H789 0.929 . S
C778 C774 1.531 1_455 S
C778 H790 0.960 . S
C778 H791 0.962 . S
C778 H792 0.960 1_455 S
C779 C776 1.511 . S
C779 H793 0.961 . S
C779 H794 0.961 . S
C779 H795 0.961 . S
C780 C781 1.370 . S
C780 C782 1.363 . S
C780 H796 0.931 . S
C781 C780 1.370 . S
C781 C785 1.408 . S
C782 C780 1.363 . S
C782 C783 1.370 . S
C782 C786 1.524 . S
C783 C775 1.503 1_455 S
C783 C782 1.370 . S
C783 C784 1.403 . S
C784 C783 1.403 . S
C784 C785 1.404 . S
C784 C787 1.539 1_455 S
C785 C781 1.408 . S
C785 C784 1.404 . S
C785 H797 0.930 . S
C786 C782 1.524 . S
C786 H798 0.956 . S
C786 H799 0.961 . S
C786 H800 0.961 . S
C787 C784 1.539 1_655 S
C787 H801 0.970 . S
C787 H802 0.961 . S
C787 H803 0.960 . S
H788 C772 0.931 . S
H789 C777 0.929 . S
H790 C778 0.960 . S
H791 C778 0.962 . S
H792 C778 0.960 1_655 S
H793 C779 0.961 . S
H794 C779 0.961 . S
H795 C779 0.961 . S
H796 C780 0.931 . S
H797 C785 0.930 . S
H798 C786 0.956 . S
H799 C786 0.961 . S
H800 C786 0.961 . S
H801 C787 0.970 . S
H802 C787 0.961 . S
H803 C787 0.960 . S
C804 C805 1.391 . S
C804 C806 1.394 . S
C804 H820 0.931 . S
C805 C804 1.391 . S
C805 C809 1.376 . S
C806 C804 1.394 . S
C806 C807 1.369 . S
C806 C810 1.531 1_565 S
C807 C806 1.369 . S
C807 C808 1.410 1_554 S
C807 C815 1.503 1_564 S
C808 C807 1.410 1_556 S
C808 C809 1.392 1_556 S
C808 C811 1.511 . S
C809 C805 1.376 . S
C809 C808 1.392 1_554 S
C809 H821 0.914 1_554 S
C810 C806 1.531 1_545 S
C810 H822 0.960 . S
C810 H823 0.962 . S
C810 H824 0.960 . S
C811 C808 1.511 . S
C811 H825 0.961 . S
C811 H826 0.961 . S
C811 H827 0.961 . S
C812 C813 1.370 . S
C812 C814 1.363 . S
C812 H828 0.931 . S
C813 C812 1.370 . S
C813 C817 1.408 . S
C814 C812 1.363 . S
C814 C815 1.370 . S
C814 C818 1.524 . S
C815 C807 1.503 1_546 S
C815 C814 1.370 . S
C815 C816 1.403 . S
C816 C815 1.403 . S
C816 C817 1.404 . S
C816 C819 1.539 . S
C817 C813 1.408 . S
C817 C816 1.404 . S
C817 H829 0.930 . S
C818 C814 1.524 . S
C818 H830 0.956 1_556 S
C818 H831 0.961 1_545 S
C818 H832 0.961 . S
C819 C816 1.539 . S
C819 H833 0.958 1_556 S
C819 H834 0.961 . S
C819 H835 0.960 1_545 S
H820 C804 0.931 . S
H821 C809 0.914 1_556 S
H822 C810 0.960 . S
H823 C810 0.962 . S
H824 C810 0.960 . S
H825 C811 0.961 . S
H826 C811 0.961 . S
H827 C811 0.961 . S
H828 C812 0.931 . S
H829 C817 0.930 . S
H830 C818 0.956 1_554 S
H831 C818 0.961 1_565 S
H832 C818 0.961 . S
H833 C819 0.958 1_554 S
H834 C819 0.961 . S
H835 C819 0.960 1_565 S
C836 C837 1.391 . S
C836 C838 1.394 . S
C836 H852 0.931 . S
C837 C836 1.391 . S
C837 C841 1.376 . S
C838 C836 1.394 . S
C838 C839 1.369 . S
C838 C842 1.531 . S
C839 C838 1.369 . S
C839 C840 1.410 . S
C839 C847 1.503 . S
C840 C839 1.410 . S
C840 C841 1.392 . S
C840 C843 1.511 . S
C841 C837 1.376 . S
C841 C840 1.392 . S
C841 H853 0.929 . S
C842 C838 1.531 . S
C842 H854 0.960 . S
C842 H855 0.962 . S
C842 H856 0.960 . S
C843 C840 1.511 . S
C843 H857 0.961 . S
C843 H858 0.961 . S
C843 H859 0.961 . S
C844 C845 1.370 . S
C844 C846 1.363 . S
C844 H860 0.931 . S
C845 C844 1.370 . S
C845 C849 1.408 . S
C846 C844 1.363 . S
C846 C847 1.370 . S
C846 C850 1.524 . S
C847 C839 1.503 . S
C847 C846 1.370 . S
C847 C848 1.403 . S
C848 C847 1.403 . S
C848 C849 1.404 . S
C848 C851 1.539 . S
C849 C845 1.408 . S
C849 C848 1.404 . S
C849 H861 0.930 . S
C850 C846 1.524 . S
C850 H862 0.956 . S
C850 H863 0.961 . S
C850 H864 0.961 . S
C851 C848 1.539 . S
C851 H865 0.958 . S
C851 H866 0.961 . S
C851 H867 0.960 . S
H852 C836 0.931 . S
H853 C841 0.929 . S
H854 C842 0.960 . S
H855 C842 0.962 . S
H856 C842 0.960 . S
H857 C843 0.961 . S
H858 C843 0.961 . S
H859 C843 0.961 . S
H860 C844 0.931 . S
H861 C849 0.930 . S
H862 C850 0.956 . S
H863 C850 0.961 . S
H864 C850 0.961 . S
H865 C851 0.958 . S
H866 C851 0.961 . S
H867 C851 0.960 . S
C868 C869 1.391 . S
C868 C870 1.394 . S
C868 H884 0.931 . S
C869 C868 1.391 . S
C869 C873 1.376 . S
C870 C868 1.394 . S
C870 C871 1.369 . S
C870 C874 1.531 . S
C871 C870 1.369 . S
C871 C872 1.410 . S
C871 C879 1.503 1_655 S
C872 C871 1.410 . S
C872 C873 1.392 . S
C872 C875 1.511 . S
C873 C869 1.376 . S
C873 C872 1.392 . S
C873 H885 0.929 . S
C874 C870 1.531 . S
C874 H886 0.960 . S
C874 H887 0.962 . S
C874 H888 0.960 . S
C875 C872 1.511 . S
C875 H889 0.961 . S
C875 H890 0.961 1_655 S
C875 H891 0.961 . S
C876 C877 1.370 . S
C876 C878 1.363 . S
C876 H892 0.931 . S
C877 C876 1.370 . S
C877 C881 1.408 . S
C878 C876 1.363 . S
C878 C879 1.370 . S
C878 C882 1.524 . S
C879 C871 1.503 1_455 S
C879 C878 1.370 . S
C879 C880 1.403 . S
C880 C879 1.403 . S
C880 C881 1.404 . S
C880 C883 1.539 1_455 S
C881 C877 1.408 . S
C881 C880 1.404 . S
C881 H893 0.930 . S
C882 C878 1.524 . S
C882 H894 0.956 . S
C882 H895 0.961 . S
C882 H896 0.961 . S
C883 C880 1.539 1_655 S
C883 H897 0.958 . S
C883 H898 0.961 . S
C883 H899 0.960 . S
H884 C868 0.931 . S
H885 C873 0.929 . S
H886 C874 0.960 . S
H887 C874 0.962 . S
H888 C874 0.960 . S
H889 C875 0.961 . S
H890 C875 0.961 1_455 S
H891 C875 0.961 . S
H892 C876 0.931 . S
H893 C881 0.930 . S
H894 C882 0.956 . S
H895 C882 0.961 . S
H896 C882 0.961 . S
H897 C883 0.958 . S
H898 C883 0.961 . S
H899 C883 0.960 . S
C900 C901 1.391 . S
C900 C902 1.394 . S
C900 H916 0.931 . S
C901 C900 1.391 . S
C901 C905 1.376 . S
C902 C900 1.394 . S
C902 C903 1.369 . S
C902 C906 1.531 . S
C903 C902 1.369 . S
C903 C904 1.410 . S
C903 C911 1.505 1_556 S
C904 C903 1.410 . S
C904 C905 1.392 . S
C904 C907 1.511 . S
C905 C901 1.376 . S
C905 C904 1.392 . S
C905 H917 0.929 . S
C906 C902 1.531 . S
C906 H918 0.960 . S
C906 H919 0.962 1_556 S
C906 H920 0.960 . S
C907 C904 1.511 . S
C907 H921 0.961 . S
C907 H922 0.970 . S
C907 H923 0.961 . S
C908 C909 1.370 . S
C908 C910 1.363 . S
C908 H924 0.931 . S
C909 C908 1.370 . S
C909 C913 1.408 1_554 S
C910 C908 1.363 . S
C910 C911 1.365 . S
C910 C914 1.524 . S
C911 C903 1.505 1_554 S
C911 C910 1.365 . S
C911 C912 1.406 1_554 S
C912 C911 1.406 1_556 S
C912 C913 1.404 . S
C912 C915 1.539 . S
C913 C909 1.408 1_556 S
C913 C912 1.404 . S
C913 H925 0.930 . S
C914 C910 1.524 . S
C914 H926 0.956 . S
C914 H927 0.961 . S
C914 H928 0.961 . S
C915 C912 1.539 . S
C915 H929 0.958 . S
C915 H930 0.961 . S
C915 H931 0.960 . S
H916 C900 0.931 . S
H917 C905 0.929 . S
H918 C906 0.960 . S
H919 C906 0.962 1_554 S
H920 C906 0.960 . S
H921 C907 0.961 . S
H922 C907 0.970 . S
H923 C907 0.961 . S
H924 C908 0.931 . S
H925 C913 0.930 . S
H926 C914 0.956 . S
H927 C914 0.961 . S
H928 C914 0.961 . S
H929 C915 0.958 . S
H930 C915 0.961 . S
H931 C915 0.960 . S
C932 C933 1.391 . S
C932 C934 1.394 . S
C932 H948 0.931 . S
C933 C932 1.391 . S
C933 C937 1.376 . S
C934 C932 1.394 . S
C934 C935 1.369 . S
C934 C938 1.531 . S
C935 C934 1.369 . S
C935 C936 1.410 . S
C935 C943 1.503 . S
C936 C935 1.410 . S
C936 C937 1.392 . S
C936 C939 1.511 . S
C937 C933 1.376 . S
C937 C936 1.392 . S
C937 H949 0.929 . S
C938 C934 1.531 . S
C938 H950 0.960 . S
C938 H951 0.962 . S
C938 H952 0.960 . S
C939 C936 1.511 . S
C939 H953 0.961 . S
C939 H954 0.961 . S
C939 H955 0.961 . S
C940 C941 1.370 . S
C940 C942 1.363 . S
C940 H956 0.931 . S
C941 C940 1.370 . S
C941 C945 1.408 . S
C942 C940 1.363 . S
C942 C943 1.370 . S
C942 C946 1.524 . S
C943 C935 1.503 . S
C943 C942 1.370 . S
C943 C944 1.403 . S
C944 C943 1.403 . S
C944 C945 1.404 . S
C944 C947 1.539 . S
C945 C941 1.408 . S
C945 C944 1.404 . S
C945 H957 0.930 . S
C946 C942 1.524 . S
C946 H958 0.956 . S
C946 H959 0.961 . S
C946 H960 0.961 . S
C947 C944 1.539 . S
C947 H961 0.958 . S
C947 H962 0.961 . S
C947 H963 0.960 . S
H948 C932 0.931 . S
H949 C937 0.929 . S
H950 C938 0.960 . S
H951 C938 0.962 . S
H952 C938 0.960 . S
H953 C939 0.961 . S
H954 C939 0.961 . S
H955 C939 0.961 . S
H956 C940 0.931 . S
H957 C945 0.930 . S
H958 C946 0.956 . S
H959 C946 0.961 . S
H960 C946 0.961 . S
H961 C947 0.958 . S
H962 C947 0.961 . S
H963 C947 0.960 . S
C964 C965 1.391 . S
C964 C966 1.394 . S
C964 H980 0.931 . S
C965 C964 1.391 . S
C965 C969 1.376 . S
C966 C964 1.394 . S
C966 C967 1.369 . S
C966 C970 1.531 . S
C967 C966 1.369 . S
C967 C968 1.410 . S
C967 C975 1.503 . S
C968 C967 1.410 . S
C968 C969 1.392 . S
C968 C971 1.511 . S
C969 C965 1.376 . S
C969 C968 1.392 . S
C969 H981 0.929 . S
C970 C966 1.531 . S
C970 H982 0.960 . S
C970 H983 0.962 . S
C970 H984 0.960 . S
C971 C968 1.511 . S
C971 H985 0.961 . S
C971 H986 0.961 . S
C971 H987 0.961 . S
C972 C973 1.370 . S
C972 C974 1.363 . S
C972 H988 0.931 . S
C973 C972 1.370 . S
C973 C977 1.408 . S
C974 C972 1.363 . S
C974 C975 1.370 . S
C974 C978 1.524 . S
C975 C967 1.503 . S
C975 C974 1.370 . S
C975 C976 1.403 . S
C976 C975 1.403 . S
C976 C977 1.404 . S
C976 C979 1.539 . S
C977 C973 1.408 . S
C977 C976 1.404 . S
C977 H989 0.930 . S
C978 C974 1.524 . S
C978 H990 0.956 . S
C978 H991 0.961 . S
C978 H992 0.961 . S
C979 C976 1.539 . S
C979 H993 0.958 . S
C979 H994 0.961 . S
C979 H995 0.960 . S
H980 C964 0.931 . S
H981 C969 0.929 . S
H982 C970 0.960 . S
H983 C970 0.962 . S
H984 C970 0.960 . S
H985 C971 0.961 . S
H986 C971 0.961 . S
H987 C971 0.961 . S
H988 C972 0.931 . S
H989 C977 0.930 . S
H990 C978 0.956 . S
H991 C978 0.961 . S
H992 C978 0.961 . S
H993 C979 0.958 . S
H994 C979 0.961 . S
H995 C979 0.960 . S
C996 C997 1.391 . S
C996 C998 1.394 . S
C996 H1012 0.931 . S
C997 C996 1.391 . S
C997 C1001 1.376 1_556 S
C998 C996 1.394 . S
C998 C999 1.369 . S
C998 C1002 1.531 . S
C999 C998 1.369 . S
C999 C1000 1.410 1_556 S
C999 C1007 1.503 1_556 S
C1000 C999 1.410 1_554 S
C1000 C1001 1.392 . S
C1000 C1003 1.511 . S
C1001 C997 1.376 1_554 S
C1001 C1000 1.392 . S
C1001 H1013 0.929 . S
C1002 C998 1.531 . S
C1002 H1014 0.960 . S
C1002 H1015 0.962 . S
C1002 H1016 0.960 . S
C1003 C1000 1.511 . S
C1003 H1017 0.961 . S
C1003 H1018 0.961 . S
C1003 H1019 0.961 . S
C1004 C1005 1.370 . S
C1004 C1006 1.363 . S
C1004 H1020 0.931 . S
C1005 C1004 1.370 . S
C1005 C1009 1.408 . S
C1006 C1004 1.363 . S
C1006 C1007 1.370 . S
C1006 C1010 1.524 . S
C1007 C999 1.503 1_554 S
C1007 C1006 1.370 . S
C1007 C1008 1.403 1_554 S
C1008 C1007 1.403 1_556 S
C1008 C1009 1.404 1_556 S
C1008 C1011 1.539 . S
C1009 C1005 1.408 . S
C1009 C1008 1.404 1_554 S
C1009 H1021 0.930 . S
C1010 C1006 1.524 . S
C1010 H1022 0.956 . S
C1010 H1023 0.961 . S
C1010 H1024 0.961 . S
C1011 C1008 1.539 . S
C1011 H1025 0.958 . S
C1011 H1026 0.961 . S
C1011 H1027 0.960 . S
H1012 C996 0.931 . S
H1013 C1001 0.929 . S
H1014 C1002 0.960 . S
H1015 C1002 0.962 . S
H1016 C1002 0.960 . S
H1017 C1003 0.961 . S
H1018 C1003 0.961 . S
H1019 C1003 0.961 . S
H1020 C1004 0.931 . S
H1021 C1009 0.930 . S
H1022 C1010 0.956 . S
H1023 C1010 0.961 . S
H1024 C1010 0.961 . S
H1025 C1011 0.958 . S
H1026 C1011 0.961 . S
H1027 C1011 0.960 . S
C1028 C1029 1.391 . S
C1028 C1030 1.394 . S
C1028 H1044 0.931 . S
C1029 C1028 1.391 . S
C1029 C1033 1.376 . S
C1030 C1028 1.394 . S
C1030 C1031 1.369 . S
C1030 C1034 1.531 . S
C1031 C1030 1.369 . S
C1031 C1032 1.410 . S
C1031 C1039 1.503 . S
C1032 C1031 1.410 . S
C1032 C1033 1.392 . S
C1032 C1035 1.511 . S
C1033 C1029 1.376 . S
C1033 C1032 1.392 . S
C1033 H1045 0.929 . S
C1034 C1030 1.531 . S
C1034 H1046 0.960 . S
C1034 H1047 0.962 . S
C1034 H1048 0.960 . S
C1035 C1032 1.511 . S
C1035 H1049 0.961 . S
C1035 H1050 0.961 . S
C1035 H1051 0.961 . S
C1036 C1037 1.370 . S
C1036 C1038 1.363 . S
C1036 H1052 0.931 . S
C1037 C1036 1.370 . S
C1037 C1041 1.408 . S
C1038 C1036 1.363 . S
C1038 C1039 1.370 . S
C1038 C1042 1.524 . S
C1039 C1031 1.503 . S
C1039 C1038 1.370 . S
C1039 C1040 1.403 . S
C1040 C1039 1.403 . S
C1040 C1041 1.404 . S
C1040 C1043 1.539 . S
C1041 C1037 1.408 . S
C1041 C1040 1.404 . S
C1041 H1053 0.930 . S
C1042 C1038 1.524 . S
C1042 H1054 0.956 . S
C1042 H1055 0.961 . S
C1042 H1056 0.961 . S
C1043 C1040 1.539 . S
C1043 H1057 0.958 . S
C1043 H1058 0.961 . S
C1043 H1059 0.960 . S
H1044 C1028 0.931 . S
H1045 C1033 0.929 . S
H1046 C1034 0.960 . S
H1047 C1034 0.962 . S
H1048 C1034 0.960 . S
H1049 C1035 0.961 . S
H1050 C1035 0.961 . S
H1051 C1035 0.961 . S
H1052 C1036 0.931 . S
H1053 C1041 0.930 . S
H1054 C1042 0.956 . S
H1055 C1042 0.961 . S
H1056 C1042 0.961 . S
H1057 C1043 0.958 . S
H1058 C1043 0.961 . S
H1059 C1043 0.960 . S
C1060 C1061 1.391 . S
C1060 C1062 1.394 . S
C1060 H1076 0.931 . S
C1061 C1060 1.391 . S
C1061 C1065 1.376 . S
C1062 C1060 1.394 . S
C1062 C1063 1.369 . S
C1062 C1066 1.531 . S
C1063 C1062 1.369 . S
C1063 C1064 1.410 . S
C1063 C1071 1.503 . S
C1064 C1063 1.410 . S
C1064 C1065 1.392 . S
C1064 C1067 1.511 . S
C1065 C1061 1.376 . S
C1065 C1064 1.392 . S
C1065 H1077 0.929 . S
C1066 C1062 1.531 . S
C1066 H1078 0.960 . S
C1066 H1079 0.962 . S
C1066 H1080 0.960 . S
C1067 C1064 1.511 . S
C1067 H1081 0.961 . S
C1067 H1082 0.961 . S
C1067 H1083 0.961 . S
C1068 C1069 1.370 . S
C1068 C1070 1.363 . S
C1068 H1084 0.931 . S
C1069 C1068 1.370 . S
C1069 C1073 1.408 . S
C1070 C1068 1.363 . S
C1070 C1071 1.370 . S
C1070 C1074 1.524 . S
C1071 C1063 1.503 . S
C1071 C1070 1.370 . S
C1071 C1072 1.403 . S
C1072 C1071 1.403 . S
C1072 C1073 1.404 . S
C1072 C1075 1.539 . S
C1073 C1069 1.408 . S
C1073 C1072 1.404 . S
C1073 H1085 0.930 . S
C1074 C1070 1.524 . S
C1074 H1086 0.956 . S
C1074 H1087 0.961 . S
C1074 H1088 0.961 . S
C1075 C1072 1.539 . S
C1075 H1089 0.958 . S
C1075 H1090 0.961 . S
C1075 H1091 0.960 . S
H1076 C1060 0.931 . S
H1077 C1065 0.929 . S
H1078 C1066 0.960 . S
H1079 C1066 0.962 . S
H1080 C1066 0.960 . S
H1081 C1067 0.961 . S
H1082 C1067 0.961 . S
H1083 C1067 0.961 . S
H1084 C1068 0.931 . S
H1085 C1073 0.930 . S
H1086 C1074 0.956 . S
H1087 C1074 0.961 . S
H1088 C1074 0.961 . S
H1089 C1075 0.958 . S
H1090 C1075 0.961 . S
H1091 C1075 0.960 . S
C1092 C1093 1.391 . S
C1092 C1094 1.394 . S
C1092 H1108 0.931 . S
C1093 C1092 1.391 . S
C1093 C1097 1.376 . S
C1094 C1092 1.394 . S
C1094 C1095 1.369 . S
C1094 C1098 1.531 . S
C1095 C1094 1.369 . S
C1095 C1096 1.410 . S
C1095 C1103 1.503 . S
C1096 C1095 1.410 . S
C1096 C1097 1.392 . S
C1096 C1099 1.511 . S
C1097 C1093 1.376 . S
C1097 C1096 1.392 . S
C1097 H1109 0.929 . S
C1098 C1094 1.531 . S
C1098 H1110 0.960 . S
C1098 H1111 0.962 . S
C1098 H1112 0.960 . S
C1099 C1096 1.511 . S
C1099 H1113 0.961 . S
C1099 H1114 0.961 . S
C1099 H1115 0.961 . S
C1100 C1101 1.370 . S
C1100 C1102 1.363 . S
C1100 H1116 0.931 . S
C1101 C1100 1.370 . S
C1101 C1105 1.408 . S
C1102 C1100 1.363 . S
C1102 C1103 1.370 . S
C1102 C1106 1.524 . S
C1103 C1095 1.503 . S
C1103 C1102 1.370 . S
C1103 C1104 1.403 . S
C1104 C1103 1.403 . S
C1104 C1105 1.404 . S
C1104 C1107 1.539 . S
C1105 C1101 1.408 . S
C1105 C1104 1.404 . S
C1105 H1117 0.930 . S
C1106 C1102 1.524 . S
C1106 H1118 0.956 . S
C1106 H1119 0.961 . S
C1106 H1120 0.961 . S
C1107 C1104 1.539 . S
C1107 H1121 0.958 . S
C1107 H1122 0.961 . S
C1107 H1123 0.960 . S
H1108 C1092 0.931 . S
H1109 C1097 0.929 . S
H1110 C1098 0.960 . S
H1111 C1098 0.962 . S
H1112 C1098 0.960 . S
H1113 C1099 0.961 . S
H1114 C1099 0.961 . S
H1115 C1099 0.961 . S
H1116 C1100 0.931 . S
H1117 C1105 0.930 . S
H1118 C1106 0.956 . S
H1119 C1106 0.961 . S
H1120 C1106 0.961 . S
H1121 C1107 0.958 . S
H1122 C1107 0.961 . S
H1123 C1107 0.960 . S
C1124 C1125 1.391 . S
C1124 C1126 1.394 . S
C1124 H1140 0.931 . S
C1125 C1124 1.391 . S
C1125 C1129 1.376 . S
C1126 C1124 1.394 . S
C1126 C1127 1.369 . S
C1126 C1130 1.531 . S
C1127 C1126 1.369 . S
C1127 C1128 1.410 . S
C1127 C1135 1.503 . S
C1128 C1127 1.410 . S
C1128 C1129 1.392 . S
C1128 C1131 1.511 . S
C1129 C1125 1.376 . S
C1129 C1128 1.392 . S
C1129 H1141 0.929 . S
C1130 C1126 1.531 . S
C1130 H1142 0.960 . S
C1130 H1143 0.962 . S
C1130 H1144 0.960 . S
C1131 C1128 1.511 . S
C1131 H1145 0.961 . S
C1131 H1146 0.961 . S
C1131 H1147 0.961 . S
C1132 C1133 1.370 . S
C1132 C1134 1.363 . S
C1132 H1148 0.931 . S
C1133 C1132 1.370 . S
C1133 C1137 1.408 . S
C1134 C1132 1.363 . S
C1134 C1135 1.370 . S
C1134 C1138 1.524 . S
C1135 C1127 1.503 . S
C1135 C1134 1.370 . S
C1135 C1136 1.403 . S
C1136 C1135 1.403 . S
C1136 C1137 1.404 . S
C1136 C1139 1.539 . S
C1137 C1133 1.408 . S
C1137 C1136 1.404 . S
C1137 H1149 0.930 . S
C1138 C1134 1.524 . S
C1138 H1150 0.956 . S
C1138 H1151 0.961 . S
C1138 H1152 0.961 . S
C1139 C1136 1.539 . S
C1139 H1153 0.958 . S
C1139 H1154 0.961 . S
C1139 H1155 0.960 . S
H1140 C1124 0.931 . S
H1141 C1129 0.929 . S
H1142 C1130 0.960 . S
H1143 C1130 0.962 . S
H1144 C1130 0.960 . S
H1145 C1131 0.961 . S
H1146 C1131 0.961 . S
H1147 C1131 0.961 . S
H1148 C1132 0.931 . S
H1149 C1137 0.930 . S
H1150 C1138 0.956 . S
H1151 C1138 0.961 . S
H1152 C1138 0.961 . S
H1153 C1139 0.958 . S
H1154 C1139 0.961 . S
H1155 C1139 0.960 . S
C1156 C1157 1.391 . S
C1156 C1158 1.394 . S
C1156 H1172 0.931 . S
C1157 C1156 1.391 . S
C1157 C1161 1.376 . S
C1158 C1156 1.394 . S
C1158 C1159 1.369 . S
C1158 C1162 1.531 . S
C1159 C1158 1.369 . S
C1159 C1160 1.410 . S
C1159 C1167 1.503 . S
C1160 C1159 1.410 . S
C1160 C1161 1.392 . S
C1160 C1163 1.511 . S
C1161 C1157 1.376 . S
C1161 C1160 1.392 . S
C1161 H1173 0.929 . S
C1162 C1158 1.531 . S
C1162 H1174 0.960 . S
C1162 H1175 0.962 . S
C1162 H1176 0.960 . S
C1163 C1160 1.511 . S
C1163 H1177 0.961 . S
C1163 H1178 0.961 . S
C1163 H1179 0.961 . S
C1164 C1165 1.370 . S
C1164 C1166 1.363 . S
C1164 H1180 0.931 . S
C1165 C1164 1.370 . S
C1165 C1169 1.408 . S
C1166 C1164 1.363 . S
C1166 C1167 1.370 . S
C1166 C1170 1.524 . S
C1167 C1159 1.503 . S
C1167 C1166 1.370 . S
C1167 C1168 1.403 . S
C1168 C1167 1.403 . S
C1168 C1169 1.404 . S
C1168 C1171 1.539 . S
C1169 C1165 1.408 . S
C1169 C1168 1.404 . S
C1169 H1181 0.930 . S
C1170 C1166 1.524 . S
C1170 H1182 0.956 . S
C1170 H1183 0.961 . S
C1170 H1184 0.961 . S
C1171 C1168 1.539 . S
C1171 H1185 0.958 . S
C1171 H1186 0.961 . S
C1171 H1187 0.960 . S
H1172 C1156 0.931 . S
H1173 C1161 0.929 . S
H1174 C1162 0.960 . S
H1175 C1162 0.962 . S
H1176 C1162 0.960 . S
H1177 C1163 0.961 . S
H1178 C1163 0.961 . S
H1179 C1163 0.961 . S
H1180 C1164 0.931 . S
H1181 C1169 0.930 . S
H1182 C1170 0.956 . S
H1183 C1170 0.961 . S
H1184 C1170 0.961 . S
H1185 C1171 0.958 . S
H1186 C1171 0.961 . S
H1187 C1171 0.960 . S
C1188 C1189 1.391 . S
C1188 C1190 1.394 . S
C1188 H1204 0.931 . S
C1189 C1188 1.391 . S
C1189 C1193 1.376 . S
C1190 C1188 1.394 . S
C1190 C1191 1.369 . S
C1190 C1194 1.531 . S
C1191 C1190 1.369 . S
C1191 C1192 1.410 . S
C1191 C1199 1.503 . S
C1192 C1191 1.410 . S
C1192 C1193 1.392 . S
C1192 C1195 1.511 . S
C1193 C1189 1.376 . S
C1193 C1192 1.392 . S
C1193 H1205 0.929 . S
C1194 C1190 1.531 . S
C1194 H1206 0.960 . S
C1194 H1207 0.962 . S
C1194 H1208 0.960 . S
C1195 C1192 1.511 . S
C1195 H1209 0.961 . S
C1195 H1210 0.961 . S
C1195 H1211 0.961 . S
C1196 C1197 1.370 . S
C1196 C1198 1.363 . S
C1196 H1212 0.931 . S
C1197 C1196 1.370 . S
C1197 C1201 1.408 . S
C1198 C1196 1.363 . S
C1198 C1199 1.370 . S
C1198 C1202 1.524 . S
C1199 C1191 1.503 . S
C1199 C1198 1.370 . S
C1199 C1200 1.403 . S
C1200 C1199 1.403 . S
C1200 C1201 1.404 . S
C1200 C1203 1.539 . S
C1201 C1197 1.408 . S
C1201 C1200 1.404 . S
C1201 H1213 0.930 . S
C1202 C1198 1.524 . S
C1202 H1214 0.956 . S
C1202 H1215 0.961 . S
C1202 H1216 0.961 . S
C1203 C1200 1.539 . S
C1203 H1217 0.958 . S
C1203 H1218 0.961 . S
C1203 H1219 0.960 . S
H1204 C1188 0.931 . S
H1205 C1193 0.929 . S
H1206 C1194 0.960 . S
H1207 C1194 0.962 . S
H1208 C1194 0.960 . S
H1209 C1195 0.961 . S
H1210 C1195 0.961 . S
H1211 C1195 0.961 . S
H1212 C1196 0.931 . S
H1213 C1201 0.930 . S
H1214 C1202 0.956 . S
H1215 C1202 0.961 . S
H1216 C1202 0.961 . S
H1217 C1203 0.958 . S
H1218 C1203 0.961 . S
H1219 C1203 0.960 . S
C1220 C1221 1.391 . S
C1220 C1222 1.394 . S
C1220 H1236 0.931 . S
C1221 C1220 1.391 . S
C1221 C1225 1.376 . S
C1222 C1220 1.394 . S
C1222 C1223 1.369 . S
C1222 C1226 1.531 . S
C1223 C1222 1.369 . S
C1223 C1224 1.410 . S
C1223 C1231 1.503 . S
C1224 C1223 1.410 . S
C1224 C1225 1.392 . S
C1224 C1227 1.511 . S
C1225 C1221 1.376 . S
C1225 C1224 1.392 . S
C1225 H1237 0.929 . S
C1226 C1222 1.531 . S
C1226 H1238 0.960 . S
C1226 H1239 0.962 . S
C1226 H1240 0.960 . S
C1227 C1224 1.511 . S
C1227 H1241 0.961 . S
C1227 H1242 0.961 . S
C1227 H1243 0.961 . S
C1228 C1229 1.370 . S
C1228 C1230 1.363 . S
C1228 H1244 0.931 . S
C1229 C1228 1.370 . S
C1229 C1233 1.408 . S
C1230 C1228 1.363 . S
C1230 C1231 1.370 . S
C1230 C1234 1.524 . S
C1231 C1223 1.503 . S
C1231 C1230 1.370 . S
C1231 C1232 1.403 . S
C1232 C1231 1.403 . S
C1232 C1233 1.404 . S
C1232 C1235 1.539 . S
C1233 C1229 1.408 . S
C1233 C1232 1.404 . S
C1233 H1245 0.930 . S
C1234 C1230 1.524 . S
C1234 H1246 0.956 . S
C1234 H1247 0.961 . S
C1234 H1248 0.961 . S
C1235 C1232 1.539 . S
C1235 H1249 0.958 . S
C1235 H1250 0.961 . S
C1235 H1251 0.960 . S
H1236 C1220 0.931 . S
H1237 C1225 0.929 . S
H1238 C1226 0.960 . S
H1239 C1226 0.962 . S
H1240 C1226 0.960 . S
H1241 C1227 0.961 . S
H1242 C1227 0.961 . S
H1243 C1227 0.961 . S
H1244 C1228 0.931 . S
H1245 C1233 0.930 . S
H1246 C1234 0.956 . S
H1247 C1234 0.961 . S
H1248 C1234 0.961 . S
H1249 C1235 0.958 . S
H1250 C1235 0.961 . S
H1251 C1235 0.960 . S
C1252 C1253 1.391 . S
C1252 C1254 1.394 . S
C1252 H1268 0.931 . S
C1253 C1252 1.391 . S
C1253 C1257 1.376 . S
C1254 C1252 1.394 . S
C1254 C1255 1.369 . S
C1254 C1258 1.531 . S
C1255 C1254 1.369 . S
C1255 C1256 1.410 . S
C1255 C1263 1.503 . S
C1256 C1255 1.410 . S
C1256 C1257 1.392 . S
C1256 C1259 1.511 . S
C1257 C1253 1.376 . S
C1257 C1256 1.392 . S
C1257 H1269 0.929 . S
C1258 C1254 1.531 . S
C1258 H1270 0.960 . S
C1258 H1271 0.962 . S
C1258 H1272 0.960 . S
C1259 C1256 1.511 . S
C1259 H1273 0.961 . S
C1259 H1274 0.961 . S
C1259 H1275 0.961 . S
C1260 C1261 1.370 . S
C1260 C1262 1.363 . S
C1260 H1276 0.931 . S
C1261 C1260 1.370 . S
C1261 C1265 1.408 . S
C1262 C1260 1.363 . S
C1262 C1263 1.370 . S
C1262 C1266 1.524 . S
C1263 C1255 1.503 . S
C1263 C1262 1.370 . S
C1263 C1264 1.403 . S
C1264 C1263 1.403 . S
C1264 C1265 1.404 . S
C1264 C1267 1.539 . S
C1265 C1261 1.408 . S
C1265 C1264 1.404 . S
C1265 H1277 0.930 . S
C1266 C1262 1.524 . S
C1266 H1278 0.956 . S
C1266 H1279 0.961 . S
C1266 H1280 0.961 . S
C1267 C1264 1.539 . S
C1267 H1281 0.958 . S
C1267 H1282 0.961 . S
C1267 H1283 0.960 . S
H1268 C1252 0.931 . S
H1269 C1257 0.929 . S
H1270 C1258 0.960 . S
H1271 C1258 0.962 . S
H1272 C1258 0.960 . S
H1273 C1259 0.961 . S
H1274 C1259 0.961 . S
H1275 C1259 0.961 . S
H1276 C1260 0.931 . S
H1277 C1265 0.930 . S
H1278 C1266 0.956 . S
H1279 C1266 0.961 . S
H1280 C1266 0.961 . S
H1281 C1267 0.958 . S
H1282 C1267 0.961 . S
H1283 C1267 0.960 . S
C1284 C1285 1.391 . S
C1284 C1286 1.394 . S
C1284 H1300 0.931 . S
C1285 C1284 1.391 . S
C1285 C1289 1.376 . S
C1286 C1284 1.394 . S
C1286 C1287 1.369 . S
C1286 C1290 1.531 . S
C1287 C1286 1.369 . S
C1287 C1288 1.410 . S
C1287 C1295 1.503 . S
C1288 C1287 1.410 . S
C1288 C1289 1.392 . S
C1288 C1291 1.511 . S
C1289 C1285 1.376 . S
C1289 C1288 1.392 . S
C1289 H1301 0.929 . S
C1290 C1286 1.531 . S
C1290 H1302 0.960 . S
C1290 H1303 0.962 . S
C1290 H1304 0.960 . S
C1291 C1288 1.511 . S
C1291 H1305 0.961 . S
C1291 H1306 0.961 . S
C1291 H1307 0.961 . S
C1292 C1293 1.370 . S
C1292 C1294 1.363 . S
C1292 H1308 0.931 . S
C1293 C1292 1.370 . S
C1293 C1297 1.408 . S
C1294 C1292 1.363 . S
C1294 C1295 1.370 . S
C1294 C1298 1.524 . S
C1295 C1287 1.503 . S
C1295 C1294 1.370 . S
C1295 C1296 1.403 . S
C1296 C1295 1.403 . S
C1296 C1297 1.404 . S
C1296 C1299 1.539 . S
C1297 C1293 1.408 . S
C1297 C1296 1.404 . S
C1297 H1309 0.930 . S
C1298 C1294 1.524 . S
C1298 H1310 0.956 . S
C1298 H1311 0.961 . S
C1298 H1312 0.961 . S
C1299 C1296 1.539 . S
C1299 H1313 0.958 . S
C1299 H1314 0.961 . S
C1299 H1315 0.960 . S
H1300 C1284 0.931 . S
H1301 C1289 0.929 . S
H1302 C1290 0.960 . S
H1303 C1290 0.962 . S
H1304 C1290 0.960 . S
H1305 C1291 0.961 . S
H1306 C1291 0.961 . S
H1307 C1291 0.961 . S
H1308 C1292 0.931 . S
H1309 C1297 0.930 . S
H1310 C1298 0.956 . S
H1311 C1298 0.961 . S
H1312 C1298 0.961 . S
H1313 C1299 0.958 . S
H1314 C1299 0.961 . S
H1315 C1299 0.960 . S
C1316 C1317 1.391 . S
C1316 C1318 1.394 1_655 S
C1316 H1332 0.931 . S
C1317 C1316 1.391 . S
C1317 C1321 1.376 . S
C1318 C1316 1.394 1_455 S
C1318 C1319 1.369 1_455 S
C1318 C1322 1.531 . S
C1319 C1318 1.369 1_655 S
C1319 C1320 1.410 . S
C1319 C1327 1.503 1_655 S
C1320 C1319 1.410 . S
C1320 C1321 1.392 . S
C1320 C1323 1.511 . S
C1321 C1317 1.376 . S
C1321 C1320 1.392 . S
C1321 H1333 0.929 . S
C1322 C1318 1.531 . S
C1322 H1334 0.960 . S
C1322 H1335 0.962 . S
C1322 H1336 0.960 . S
C1323 C1320 1.511 . S
C1323 H1337 0.961 . S
C1323 H1338 0.961 . S
C1323 H1339 0.961 . S
C1324 C1325 1.370 . S
C1324 C1326 1.363 . S
C1324 H1340 0.931 . S
C1325 C1324 1.370 . S
C1325 C1329 1.408 . S
C1326 C1324 1.363 . S
C1326 C1327 1.370 . S
C1326 C1330 1.524 1_455 S
C1327 C1319 1.503 1_455 S
C1327 C1326 1.370 . S
C1327 C1328 1.403 . S
C1328 C1327 1.403 . S
C1328 C1329 1.404 . S
C1328 C1331 1.539 . S
C1329 C1325 1.408 . S
C1329 C1328 1.404 . S
C1329 H1341 0.930 . S
C1330 C1326 1.524 1_655 S
C1330 H1342 0.956 . S
C1330 H1343 0.961 . S
C1330 H1344 0.961 . S
C1331 C1328 1.539 . S
C1331 H1345 0.958 . S
C1331 H1346 0.961 . S
C1331 H1347 0.960 . S
H1332 C1316 0.931 . S
H1333 C1321 0.929 . S
H1334 C1322 0.960 . S
H1335 C1322 0.962 . S
H1336 C1322 0.960 . S
H1337 C1323 0.961 . S
H1338 C1323 0.961 . S
H1339 C1323 0.961 . S
H1340 C1324 0.931 . S
H1341 C1329 0.930 . S
H1342 C1330 0.956 . S
H1343 C1330 0.961 . S
H1344 C1330 0.961 . S
H1345 C1331 0.958 . S
H1346 C1331 0.961 . S
H1347 C1331 0.960 . S
C1348 C1349 1.391 . S
C1348 C1350 1.394 1_545 S
C1348 H1364 0.931 . S
C1349 C1348 1.391 . S
C1349 C1353 1.376 . S
C1350 C1348 1.394 1_565 S
C1350 C1351 1.369 1_565 S
C1350 C1354 1.531 . S
C1351 C1350 1.369 1_545 S
C1351 C1352 1.410 . S
C1351 C1359 1.503 1_545 S
C1352 C1351 1.410 . S
C1352 C1353 1.392 . S
C1352 C1355 1.511 . S
C1353 C1349 1.376 . S
C1353 C1352 1.392 . S
C1353 H1365 0.929 . S
C1354 C1350 1.531 . S
C1354 H1366 0.960 . S
C1354 H1367 0.962 . S
C1354 H1368 0.960 . S
C1355 C1352 1.511 . S
C1355 H1369 0.961 . S
C1355 H1370 0.961 . S
C1355 H1371 0.961 . S
C1356 C1357 1.370 . S
C1356 C1358 1.363 . S
C1356 H1372 0.931 . S
C1357 C1356 1.370 . S
C1357 C1361 1.408 . S
C1358 C1356 1.363 . S
C1358 C1359 1.370 . S
C1358 C1362 1.524 . S
C1359 C1351 1.503 1_565 S
C1359 C1358 1.370 . S
C1359 C1360 1.403 . S
C1360 C1359 1.403 . S
C1360 C1361 1.404 . S
C1360 C1363 1.539 . S
C1361 C1357 1.408 . S
C1361 C1360 1.404 . S
C1361 H1373 0.930 . S
C1362 C1358 1.524 . S
C1362 H1374 0.956 . S
C1362 H1375 0.961 1_565 S
C1362 H1376 0.961 . S
C1363 C1360 1.539 . S
C1363 H1377 0.958 . S
C1363 H1378 0.961 . S
C1363 H1379 0.960 1_565 S
H1364 C1348 0.931 . S
H1365 C1353 0.929 . S
H1366 C1354 0.960 . S
H1367 C1354 0.962 . S
H1368 C1354 0.960 . S
H1369 C1355 0.961 . S
H1370 C1355 0.961 . S
H1371 C1355 0.961 . S
H1372 C1356 0.931 . S
H1373 C1361 0.930 . S
H1374 C1362 0.956 . S
H1375 C1362 0.961 1_545 S
H1376 C1362 0.961 . S
H1377 C1363 0.958 . S
H1378 C1363 0.961 . S
H1379 C1363 0.960 1_545 S
C1380 C1381 1.391 . S
C1380 C1382 1.394 . S
C1380 H1396 0.931 . S
C1381 C1380 1.391 . S
C1381 C1385 1.376 . S
C1382 C1380 1.394 . S
C1382 C1383 1.369 . S
C1382 C1386 1.531 . S
C1383 C1382 1.369 . S
C1383 C1384 1.410 . S
C1383 C1391 1.503 . S
C1384 C1383 1.410 . S
C1384 C1385 1.392 . S
C1384 C1387 1.511 . S
C1385 C1381 1.376 . S
C1385 C1384 1.392 . S
C1385 H1397 0.929 . S
C1386 C1382 1.531 . S
C1386 H1398 0.960 . S
C1386 H1399 0.962 . S
C1386 H1400 0.960 . S
C1387 C1384 1.511 . S
C1387 H1401 0.961 . S
C1387 H1402 0.961 . S
C1387 H1403 0.961 . S
C1388 C1389 1.370 . S
C1388 C1390 1.363 . S
C1388 H1404 0.931 . S
C1389 C1388 1.370 . S
C1389 C1393 1.408 . S
C1390 C1388 1.363 . S
C1390 C1391 1.370 . S
C1390 C1394 1.524 . S
C1391 C1383 1.503 . S
C1391 C1390 1.370 . S
C1391 C1392 1.403 . S
C1392 C1391 1.403 . S
C1392 C1393 1.404 . S
C1392 C1395 1.539 . S
C1393 C1389 1.408 . S
C1393 C1392 1.404 . S
C1393 H1405 0.930 . S
C1394 C1390 1.524 . S
C1394 H1406 0.956 . S
C1394 H1407 0.961 . S
C1394 H1408 0.961 . S
C1395 C1392 1.539 . S
C1395 H1409 0.958 . S
C1395 H1410 0.961 . S
C1395 H1411 0.960 . S
H1396 C1380 0.931 . S
H1397 C1385 0.929 . S
H1398 C1386 0.960 . S
H1399 C1386 0.962 . S
H1400 C1386 0.960 . S
H1401 C1387 0.961 . S
H1402 C1387 0.961 . S
H1403 C1387 0.961 . S
H1404 C1388 0.931 . S
H1405 C1393 0.930 . S
H1406 C1394 0.956 . S
H1407 C1394 0.961 . S
H1408 C1394 0.961 . S
H1409 C1395 0.958 . S
H1410 C1395 0.961 . S
H1411 C1395 0.960 . S
C1412 C1413 1.391 . S
C1412 C1414 1.394 . S
C1412 H1428 0.931 . S
C1413 C1412 1.391 . S
C1413 C1417 1.376 . S
C1414 C1412 1.394 . S
C1414 C1415 1.369 . S
C1414 C1418 1.531 . S
C1415 C1414 1.369 . S
C1415 C1416 1.410 1_455 S
C1415 C1423 1.503 1_455 S
C1416 C1415 1.410 1_655 S
C1416 C1417 1.392 1_655 S
C1416 C1419 1.511 . S
C1417 C1413 1.376 . S
C1417 C1416 1.392 1_455 S
C1417 H1429 0.929 . S
C1418 C1414 1.531 . S
C1418 H1430 0.960 . S
C1418 H1431 0.962 . S
C1418 H1432 0.960 . S
C1419 C1416 1.511 . S
C1419 H1433 0.961 . S
C1419 H1434 0.961 . S
C1419 H1435 0.961 . S
C1420 C1421 1.370 . S
C1420 C1422 1.363 . S
C1420 H1436 0.931 . S
C1421 C1420 1.370 . S
C1421 C1425 1.408 . S
C1422 C1420 1.363 . S
C1422 C1423 1.370 . S
C1422 C1426 1.524 . S
C1423 C1415 1.503 1_655 S
C1423 C1422 1.370 . S
C1423 C1424 1.403 . S
C1424 C1423 1.403 . S
C1424 C1425 1.404 . S
C1424 C1427 1.539 . S
C1425 C1421 1.408 . S
C1425 C1424 1.404 . S
C1425 H1437 0.930 . S
C1426 C1422 1.524 . S
C1426 H1438 0.956 1_655 S
C1426 H1439 0.961 . S
C1426 H1440 0.961 . S
C1427 C1424 1.539 . S
C1427 H1441 0.958 1_655 S
C1427 H1442 0.961 1_556 S
C1427 H1443 0.960 . S
H1428 C1412 0.931 . S
H1429 C1417 0.929 . S
H1430 C1418 0.960 . S
H1431 C1418 0.962 . S
H1432 C1418 0.960 . S
H1433 C1419 0.961 . S
H1434 C1419 0.961 . S
H1435 C1419 0.961 . S
H1436 C1420 0.931 . S
H1437 C1425 0.930 . S
H1438 C1426 0.956 1_455 S
H1439 C1426 0.961 . S
H1440 C1426 0.961 . S
H1441 C1427 0.958 1_455 S
H1442 C1427 0.961 1_554 S
H1443 C1427 0.960 . S
C1444 C1445 1.391 . S
C1444 C1446 1.394 . S
C1444 H1460 0.931 . S
C1445 C1444 1.391 . S
C1445 C1449 1.376 . S
C1446 C1444 1.394 . S
C1446 C1447 1.369 . S
C1446 C1450 1.531 . S
C1447 C1446 1.369 . S
C1447 C1448 1.410 . S
C1447 C1455 1.503 1_565 S
C1448 C1447 1.410 . S
C1448 C1449 1.392 . S
C1448 C1451 1.511 1_565 S
C1449 C1445 1.376 . S
C1449 C1448 1.392 . S
C1449 H1461 0.929 . S
C1450 C1446 1.531 . S
C1450 H1462 0.960 . S
C1450 H1463 0.962 . S
C1450 H1464 0.960 . S
C1451 C1448 1.511 1_545 S
C1451 H1465 0.961 . S
C1451 H1466 0.961 . S
C1451 H1467 0.961 . S
C1452 C1453 1.370 . S
C1452 C1454 1.363 . S
C1452 H1468 0.931 . S
C1453 C1452 1.370 . S
C1453 C1457 1.408 . S
C1454 C1452 1.363 . S
C1454 C1455 1.370 . S
C1454 C1458 1.524 . S
C1455 C1447 1.503 1_545 S
C1455 C1454 1.370 . S
C1455 C1456 1.403 . S
C1456 C1455 1.403 . S
C1456 C1457 1.404 . S
C1456 C1459 1.539 1_545 S
C1457 C1453 1.408 . S
C1457 C1456 1.404 . S
C1457 H1469 0.930 . S
C1458 C1454 1.524 . S
C1458 H1470 0.956 . S
C1458 H1471 0.961 . S
C1458 H1472 0.961 . S
C1459 C1456 1.539 1_565 S
C1459 H1473 0.958 . S
C1459 H1474 0.961 . S
C1459 H1475 0.960 . S
H1460 C1444 0.931 . S
H1461 C1449 0.929 . S
H1462 C1450 0.960 . S
H1463 C1450 0.962 . S
H1464 C1450 0.960 . S
H1465 C1451 0.961 . S
H1466 C1451 0.961 . S
H1467 C1451 0.961 . S
H1468 C1452 0.931 . S
H1469 C1457 0.930 . S
H1470 C1458 0.956 . S
H1471 C1458 0.961 . S
H1472 C1458 0.961 . S
H1473 C1459 0.958 . S
H1474 C1459 0.961 . S
H1475 C1459 0.960 . S
C709 C446 1.534 . S
C717 C33 1.549 . S
C741 C92 1.539 . S
C749 C505 1.547 . S
C773 C151 1.556 . S
C781 C564 1.559 . S
C805 C210 1.564 . S
C813 C623 1.560 . S
C837 C682 1.544 . S
C845 C269 1.547 . S
C869 C387 1.536 . S
C877 C328 1.551 . S
C901 C642 1.708 . S
C909 C52 1.740 . S
C933 C111 1.709 . S
C941 C701 1.740 . S
C965 C170 1.747 . S
C973 C406 1.724 . S
C997 C465 1.720 . S
C1005 C229 1.735 . S
C1029 C524 1.714 . S
C1037 C288 1.739 . S
C1061 C583 1.747 . S
C1069 C347 1.724 . S
C1093 C5 1.738 . S
C1101 C477 1.748 . S
C1125 C64 1.741 . S
C1133 C536 1.750 . S
C1157 C595 1.742 . S
C1165 C123 1.750 . S
C1189 C182 1.748 . S
C1197 C654 1.748 . S
C1221 C359 1.751 . S
C1229 C241 1.753 . S
C1253 C418 1.749 . S
C1261 C300 1.753 . S
C1285 C180 1.284 . S
C1293 C3 1.264 . S
C1317 C239 1.291 . S
C1325 C62 1.273 . S
C1349 C121 1.281 . S
C1357 C298 1.278 . S
C1381 C357 1.292 . S
C1389 C534 1.263 . S
C1413 C416 1.264 . S
C1421 C593 1.271 . S
C1445 C652 1.253 . S
C1453 C475 1.276 . S
