# Generated by pormake.
# Topology bcs, (6)-cn, num edge types: 1
# Building blocks:
#     Node 0, Type 0, BuildingBlock: MIFKUJ_clean_sbu_0, # of connection points: 6
#     Node 1, Type 0, BuildingBlock: MIFKUJ_clean_sbu_0, # of connection points: 6
#     Node 2, Type 0, BuildingBlock: MIFKUJ_clean_sbu_0, # of connection points: 6
#     Node 3, Type 0, BuildingBlock: MIFKUJ_clean_sbu_0, # of connection points: 6
#     Node 4, Type 0, BuildingBlock: MIFKUJ_clean_sbu_0, # of connection points: 6
#     Node 5, Type 0, BuildingBlock: MIFKUJ_clean_sbu_0, # of connection points: 6
#     Node 6, Type 0, BuildingBlock: MIFKUJ_clean_sbu_0, # of connection points: 6
#     Node 7, Type 0, BuildingBlock: MIFKUJ_clean_sbu_0, # of connection points: 6
#     Node 8, Type 0, BuildingBlock: MIFKUJ_clean_sbu_0, # of connection points: 6
#     Node 9, Type 0, BuildingBlock: MIFKUJ_clean_sbu_0, # of connection points: 6
#     Node 10, Type 0, BuildingBlock: MIFKUJ_clean_sbu_0, # of connection points: 6
#     Node 11, Type 0, BuildingBlock: MIFKUJ_clean_sbu_0, # of connection points: 6
#     Node 12, Type 0, BuildingBlock: MIFKUJ_clean_sbu_0, # of connection points: 6
#     Node 13, Type 0, BuildingBlock: MIFKUJ_clean_sbu_0, # of connection points: 6
#     Node 14, Type 0, BuildingBlock: MIFKUJ_clean_sbu_0, # of connection points: 6
#     Node 15, Type 0, BuildingBlock: MIFKUJ_clean_sbu_0, # of connection points: 6
#     Edge 16, Type (0, 0), BuildingBlock: UVAHIK_clean_linker_0, # of connection points: 2
#     Edge 17, Type (0, 0), BuildingBlock: UVAHIK_clean_linker_0, # of connection points: 2
#     Edge 18, Type (0, 0), BuildingBlock: UVAHIK_clean_linker_0, # of connection points: 2
#     Edge 19, Type (0, 0), BuildingBlock: UVAHIK_clean_linker_0, # of connection points: 2
#     Edge 20, Type (0, 0), BuildingBlock: UVAHIK_clean_linker_0, # of connection points: 2
#     Edge 21, Type (0, 0), BuildingBlock: UVAHIK_clean_linker_0, # of connection points: 2
#     Edge 22, Type (0, 0), BuildingBlock: UVAHIK_clean_linker_0, # of connection points: 2
#     Edge 23, Type (0, 0), BuildingBlock: UVAHIK_clean_linker_0, # of connection points: 2
#     Edge 24, Type (0, 0), BuildingBlock: UVAHIK_clean_linker_0, # of connection points: 2
#     Edge 25, Type (0, 0), BuildingBlock: UVAHIK_clean_linker_0, # of connection points: 2
#     Edge 26, Type (0, 0), BuildingBlock: UVAHIK_clean_linker_0, # of connection points: 2
#     Edge 27, Type (0, 0), BuildingBlock: UVAHIK_clean_linker_0, # of connection points: 2
#     Edge 28, Type (0, 0), BuildingBlock: UVAHIK_clean_linker_0, # of connection points: 2
#     Edge 29, Type (0, 0), BuildingBlock: UVAHIK_clean_linker_0, # of connection points: 2
#     Edge 30, Type (0, 0), BuildingBlock: UVAHIK_clean_linker_0, # of connection points: 2
#     Edge 31, Type (0, 0), BuildingBlock: UVAHIK_clean_linker_0, # of connection points: 2
#     Edge 32, Type (0, 0), BuildingBlock: UVAHIK_clean_linker_0, # of connection points: 2
#     Edge 33, Type (0, 0), BuildingBlock: UVAHIK_clean_linker_0, # of connection points: 2
#     Edge 34, Type (0, 0), BuildingBlock: UVAHIK_clean_linker_0, # of connection points: 2
#     Edge 35, Type (0, 0), BuildingBlock: UVAHIK_clean_linker_0, # of connection points: 2
#     Edge 36, Type (0, 0), BuildingBlock: UVAHIK_clean_linker_0, # of connection points: 2
#     Edge 37, Type (0, 0), BuildingBlock: UVAHIK_clean_linker_0, # of connection points: 2
#     Edge 38, Type (0, 0), BuildingBlock: UVAHIK_clean_linker_0, # of connection points: 2
#     Edge 39, Type (0, 0), BuildingBlock: UVAHIK_clean_linker_0, # of connection points: 2
#     Edge 40, Type (0, 0), BuildingBlock: UVAHIK_clean_linker_0, # of connection points: 2
#     Edge 41, Type (0, 0), BuildingBlock: UVAHIK_clean_linker_0, # of connection points: 2
#     Edge 42, Type (0, 0), BuildingBlock: UVAHIK_clean_linker_0, # of connection points: 2
#     Edge 43, Type (0, 0), BuildingBlock: UVAHIK_clean_linker_0, # of connection points: 2
#     Edge 44, Type (0, 0), BuildingBlock: UVAHIK_clean_linker_0, # of connection points: 2
#     Edge 45, Type (0, 0), BuildingBlock: UVAHIK_clean_linker_0, # of connection points: 2
#     Edge 46, Type (0, 0), BuildingBlock: UVAHIK_clean_linker_0, # of connection points: 2
#     Edge 47, Type (0, 0), BuildingBlock: UVAHIK_clean_linker_0, # of connection points: 2
#     Edge 48, Type (0, 0), BuildingBlock: UVAHIK_clean_linker_0, # of connection points: 2
#     Edge 49, Type (0, 0), BuildingBlock: UVAHIK_clean_linker_0, # of connection points: 2
#     Edge 50, Type (0, 0), BuildingBlock: UVAHIK_clean_linker_0, # of connection points: 2
#     Edge 51, Type (0, 0), BuildingBlock: UVAHIK_clean_linker_0, # of connection points: 2
#     Edge 52, Type (0, 0), BuildingBlock: UVAHIK_clean_linker_0, # of connection points: 2
#     Edge 53, Type (0, 0), BuildingBlock: UVAHIK_clean_linker_0, # of connection points: 2
#     Edge 54, Type (0, 0), BuildingBlock: UVAHIK_clean_linker_0, # of connection points: 2
#     Edge 55, Type (0, 0), BuildingBlock: UVAHIK_clean_linker_0, # of connection points: 2
#     Edge 56, Type (0, 0), BuildingBlock: UVAHIK_clean_linker_0, # of connection points: 2
#     Edge 57, Type (0, 0), BuildingBlock: UVAHIK_clean_linker_0, # of connection points: 2
#     Edge 58, Type (0, 0), BuildingBlock: UVAHIK_clean_linker_0, # of connection points: 2
#     Edge 59, Type (0, 0), BuildingBlock: UVAHIK_clean_linker_0, # of connection points: 2
#     Edge 60, Type (0, 0), BuildingBlock: UVAHIK_clean_linker_0, # of connection points: 2
#     Edge 61, Type (0, 0), BuildingBlock: UVAHIK_clean_linker_0, # of connection points: 2
#     Edge 62, Type (0, 0), BuildingBlock: UVAHIK_clean_linker_0, # of connection points: 2
#     Edge 63, Type (0, 0), BuildingBlock: UVAHIK_clean_linker_0, # of connection points: 2
# Relax obj value: 0.090
# Max RMSD: 0.209
# Mean RMSD: 0.146
data_MOF--net-bcs--node1-MIFKUJ_clean_sbu_0--edge1-UVAHIK_clean_linker_0
_symmetry_space_group_name_H-M    P1
_symmetry_Int_Tables_number       1
_symmetry_cell_setting            triclinic
loop_
_symmetry_equiv_pos_as_xyz
'x, y, z'
_cell_length_a     47.115761
_cell_length_b     51.126375
_cell_length_c     45.636871
_cell_angle_alpha  95.882451
_cell_angle_beta   96.87832
_cell_angle_gamma 101.46954
loop_
_atom_site_label
_atom_site_type_symbol
_atom_site_fract_x
_atom_site_fract_y
_atom_site_fract_z
_atom_type_partial_charge
Zn0 Zn 0.97135 -0.00132 0.97397 0.0
Zn1 Zn 0.02347 0.98347 0.0133 0.0
C2 C 0.93909 0.01875 0.01498 0.0
O3 O 0.92048 -0.00219 -0.00026 0.0
C4 C 0.05705 0.9643 0.97313 0.0
O5 O 0.07589 0.98327 0.99121 0.0
O6 O 0.94505 0.00824 0.94033 0.0
O7 O 0.012 0.00953 0.96245 0.0
O8 O 0.03622 0.0224 0.00748 0.0
C9 C 0.95223 0.0332 0.93788 0.0
O10 O 0.97493 0.04805 0.95576 0.0
O11 O 0.96526 0.02376 0.00921 0.0
C12 C 0.04406 0.94789 0.0461 0.0
O13 O 0.02248 0.93345 0.0265 0.0
O14 O 0.05029 0.97329 0.04606 0.0
O15 O 0.98389 0.97131 0.02555 0.0
O16 O 0.95633 0.96025 0.98196 0.0
O17 O 0.03017 0.96042 0.97663 0.0
C18 C 0.03278 0.02525 0.98005 0.0
C19 C 0.96194 0.95632 0.00891 0.0
Zn20 Zn 0.25619 0.75442 0.19783 0.0
Zn21 Zn 0.22773 0.70268 0.26083 0.0
C22 C 0.20864 0.78259 0.1948 0.0
O23 O 0.20216 0.77043 0.21788 0.0
C24 C 0.27764 0.68092 0.27535 0.0
O25 O 0.29001 0.70205 0.26375 0.0
O26 O 0.29743 0.77038 0.19218 0.0
O27 O 0.25272 0.75227 0.24138 0.0
O28 O 0.24396 0.73965 0.28421 0.0
C29 C 0.30566 0.79582 0.19443 0.0
O30 O 0.28724 0.81092 0.20123 0.0
O31 O 0.23005 0.77796 0.18213 0.0
C32 C 0.17716 0.69682 0.28938 0.0
O33 O 0.19612 0.71249 0.3106 0.0
O34 O 0.18552 0.69028 0.26472 0.0
O35 O 0.23417 0.70603 0.21869 0.0
O36 O 0.24384 0.71622 0.17553 0.0
O37 O 0.25039 0.67679 0.27666 0.0
C38 C 0.25438 0.75802 0.26929 0.0
C39 C 0.23528 0.69825 0.19176 0.0
Zn40 Zn 0.51846 0.97298 0.47914 0.0
Zn41 Zn 0.46857 0.00035 0.51233 0.0
C42 C 0.54121 0.94775 0.52799 0.0
O43 O 0.56183 0.96976 0.5318 0.0
C44 C 0.44687 0.02663 0.46646 0.0
O45 O 0.42374 0.00874 0.46999 0.0
O46 O 0.54412 0.96443 0.44903 0.0
O47 O 0.47836 0.96709 0.45608 0.0
O48 O 0.44814 0.9648 0.48987 0.0
C49 C 0.53492 0.94207 0.43239 0.0
O50 O 0.5098 0.9269 0.43568 0.0
O51 O 0.51966 0.94496 0.50745 0.0
C52 C 0.44984 0.03951 0.54782 0.0
O53 O 0.47119 0.05386 0.5365 0.0
O54 O 0.44421 0.014 0.54172 0.0
O55 O 0.50734 0.00023 0.53432 0.0
O56 O 0.53439 0.01043 0.49976 0.0
O57 O 0.47123 0.02714 0.48217 0.0
C58 C 0.45313 0.9594 0.4634 0.0
C59 C 0.52775 0.01609 0.52541 0.0
Zn60 Zn 0.19908 0.2564 0.77687 0.0
Zn61 Zn 0.26203 0.24489 0.71677 0.0
C62 C 0.17555 0.23393 0.82807 0.0
O63 O 0.17482 0.25893 0.8372 0.0
C64 C 0.29314 0.2938 0.69789 0.0
O65 O 0.30262 0.29984 0.72652 0.0
O66 O 0.18822 0.29165 0.78958 0.0
O67 O 0.2432 0.2599 0.777 0.0
O68 O 0.28383 0.25754 0.75837 0.0
C69 C 0.19984 0.30819 0.8126 0.0
O70 O 0.22155 0.30302 0.8303 0.0
O71 O 0.18476 0.22844 0.80353 0.0
C72 C 0.29897 0.21017 0.70759 0.0
O73 O 0.31636 0.23231 0.72179 0.0
O74 O 0.27171 0.20955 0.70221 0.0
O75 O 0.2204 0.24294 0.72209 0.0
O76 O 0.17759 0.24312 0.73485 0.0
O77 O 0.27501 0.27169 0.6886 0.0
C78 C 0.27096 0.26307 0.78048 0.0
C79 C 0.19298 0.23848 0.71469 0.0
Zn80 Zn 0.00293 0.00891 0.45256 0.0
Zn81 Zn 0.99036 0.96837 0.5242 0.0
C82 C 0.95996 0.02552 0.41455 0.0
O83 O 0.97402 0.01536 0.39455 0.0
C84 C 0.0449 0.94997 0.52862 0.0
O85 O 0.0566 0.97548 0.52835 0.0
O86 O 0.03441 0.02675 0.43086 0.0
O87 O 0.01481 0.01741 0.49724 0.0
O88 O 0.0136 0.0054 0.54205 0.0
C89 C 0.03926 0.05229 0.43357 0.0
O90 O 0.02459 0.06502 0.45085 0.0
O91 O 0.96798 0.02446 0.44188 0.0
C92 C 0.94664 0.93076 0.54303 0.0
O93 O 0.95578 0.91529 0.52306 0.0
O94 O 0.95816 0.95574 0.54774 0.0
O95 O 0.97488 0.97113 0.48219 0.0
O96 O 0.99157 0.96893 0.43996 0.0
O97 O 0.01724 0.94241 0.52588 0.0
C98 C 0.02233 0.02286 0.52525 0.0
C99 C 0.97974 0.95683 0.45973 0.0
Zn100 Zn 0.27166 0.71628 0.73162 0.0
Zn101 Zn 0.21242 0.766 0.74455 0.0
C102 C 0.2834 0.70632 0.79329 0.0
O103 O 0.29164 0.73264 0.79894 0.0
C104 C 0.17927 0.77483 0.68993 0.0
O105 O 0.16298 0.75117 0.69174 0.0
O106 O 0.28821 0.69558 0.69986 0.0
O107 O 0.22994 0.71973 0.7178 0.0
O108 O 0.19203 0.72671 0.73808 0.0
C109 C 0.30851 0.70574 0.68574 0.0
O110 O 0.3186 0.73191 0.68992 0.0
O111 O 0.27307 0.69554 0.76681 0.0
C112 C 0.17436 0.78335 0.78131 0.0
O113 O 0.15618 0.76699 0.76001 0.0
O114 O 0.20173 0.78594 0.78088 0.0
O115 O 0.25457 0.76486 0.74618 0.0
O116 O 0.29675 0.75455 0.74403 0.0
O117 O 0.20135 0.78451 0.70958 0.0
C118 C 0.20645 0.71015 0.72773 0.0
C119 C 0.28208 0.77245 0.74939 0.0
Zn120 Zn 0.47213 0.00625 0.00337 0.0
Zn121 Zn 0.51057 0.9729 0.97223 0.0
C122 C 0.44419 0.95693 0.02335 0.0
O123 O 0.42116 0.95998 0.00581 0.0
C124 C 0.5437 0.01633 0.94781 0.0
O125 O 0.56547 0.00635 0.95943 0.0
O126 O 0.44865 0.0309 0.02257 0.0
O127 O 0.51493 0.02415 0.0115 0.0
O128 O 0.52725 0.98519 0.01536 0.0
C129 C 0.4605 0.054 0.03673 0.0
O130 O 0.48886 0.06283 0.03825 0.0
O131 O 0.46804 0.97413 0.02555 0.0
C132 C 0.53616 0.94477 0.92785 0.0
O133 O 0.52334 0.95944 0.91072 0.0
O134 O 0.53352 0.94663 0.95537 0.0
O135 O 0.46822 0.95576 0.96064 0.0
O136 O 0.45409 -0.00568 0.96052 0.0
O137 O 0.51772 0.0054 0.95065 0.0
C138 C 0.53211 0.01048 0.023 0.0
C139 C 0.45172 0.97006 0.94923 0.0
Zn140 Zn 0.22583 0.25942 0.24115 0.0
Zn141 Zn 0.29153 0.23383 0.2665 0.0
C142 C 0.18861 0.26412 0.2855 0.0
O143 O 0.17326 0.24217 0.26894 0.0
C144 C 0.31798 0.21852 0.21859 0.0
O145 O 0.33704 0.23915 0.23386 0.0
O146 O 0.19501 0.26551 0.20888 0.0
O147 O 0.26484 0.28238 0.23628 0.0
O148 O 0.30416 0.27269 0.26134 0.0
C149 C 0.20122 0.27689 0.18625 0.0
O150 O 0.22867 0.28295 0.18184 0.0
O151 O 0.2133 0.27501 0.27883 0.0
C152 C 0.3171 0.19714 0.2947 0.0
O153 O 0.2936 0.18249 0.27783 0.0
O154 O 0.32205 0.22258 0.295 0.0
O155 O 0.254 0.22288 0.28285 0.0
O156 O 0.22292 0.21944 0.24188 0.0
O157 O 0.29316 0.21177 0.22727 0.0
C158 C 0.29223 0.28771 0.24545 0.0
C159 C 0.22919 0.21291 0.26758 0.0
Zn160 Zn 0.48493 0.51437 0.95353 0.0
Zn161 Zn 0.49815 0.4661 0.02317 0.0
C162 C 0.43321 0.53032 0.92876 0.0
O163 O 0.43122 0.50849 0.91008 0.0
C164 C 0.54956 0.45173 0.04818 0.0
O165 O 0.54691 0.47043 0.06904 0.0
O166 O 0.5158 0.52859 0.92952 0.0
O167 O 0.50319 0.51725 -0.00318 0.0
O168 O 0.51554 0.50481 0.04028 0.0
C169 C 0.52505 0.55392 0.93261 0.0
O170 O 0.51394 0.56924 0.95103 0.0
O171 O 0.45432 0.53679 0.95005 0.0
C172 C 0.46681 0.42532 0.05219 0.0
O173 O 0.48443 0.41166 0.04043 0.0
O174 O 0.46787 0.44946 0.04715 0.0
O175 O 0.48141 0.46719 0.9813 0.0
O176 O 0.46638 0.4753 0.93714 0.0
O177 O 0.53092 0.44614 0.0247 0.0
C178 C 0.51615 0.52324 0.02347 0.0
C179 C 0.4678 0.45839 0.95548 0.0
Zn180 Zn 0.77971 0.21918 0.2396 0.0
Zn181 Zn 0.71227 0.26473 0.24492 0.0
C182 C 0.80515 0.20719 0.29675 0.0
O183 O 0.82007 0.23215 0.29995 0.0
C184 C 0.70048 0.27877 0.1848 0.0
O185 O 0.70215 0.25396 0.17574 0.0
O186 O 0.79643 0.20301 0.20436 0.0
O187 O 0.73642 0.21844 0.23307 0.0
O188 O 0.69223 0.22551 0.23023 0.0
C189 C 0.79754 0.1782 0.20276 0.0
O190 O 0.78662 0.16392 0.2227 0.0
O191 O 0.78675 0.19813 0.27349 0.0
C192 C 0.699 0.30502 0.28563 0.0
O193 O 0.7144 0.31999 0.2689 0.0
O194 O 0.69577 0.27956 0.28076 0.0
O195 O 0.75622 0.26732 0.25146 0.0
O196 O 0.79983 0.25833 0.253 0.0
O197 O 0.70403 0.28692 0.21249 0.0
C198 C 0.70912 0.20932 0.2261 0.0
C199 C 0.78379 0.27514 0.25808 0.0
Zn200 Zn 0.97567 0.51635 0.52279 0.0
Zn201 Zn 0.0141 0.47528 0.46351 0.0
C202 C 0.95902 0.48922 0.56947 0.0
O203 O 0.93586 0.49865 0.56075 0.0
C204 C 0.02005 0.49212 0.40619 0.0
O205 O 0.03926 0.47669 0.40675 0.0
O206 O 0.9609 0.54998 0.53549 0.0
O207 O 0.01005 0.51992 0.4997 0.0
O208 O 0.0466 0.5014 0.49196 0.0
C209 C 0.96348 0.55944 0.56282 0.0
O210 O 0.97929 0.54946 0.58275 0.0
O211 O 0.9815 0.49498 0.55666 0.0
C212 C 0.01799 0.42429 0.42953 0.0
O213 O -0.00404 0.42846 0.4114 0.0
O214 O 0.02788 0.44072 0.45311 0.0
O215 O 0.97992 0.47161 0.48693 0.0
O216 O 0.9441 0.49202 0.49261 0.0
O217 O 0.00562 0.49392 0.4278 0.0
C218 C 0.03633 0.51827 0.50776 0.0
C219 C 0.95425 0.47441 0.47784 0.0
Zn220 Zn 0.72371 0.73988 0.27466 0.0
Zn221 Zn 0.78009 0.72863 0.2084 0.0
C222 C 0.68369 0.70489 0.30242 0.0
O223 O 0.66579 0.71261 0.28236 0.0
C224 C 0.81727 0.76262 0.17749 0.0
O225 O 0.8362 0.75324 0.19478 0.0
O226 O 0.71406 0.77536 0.2869 0.0
O227 O 0.76746 0.74446 0.27137 0.0
O228 O 0.80547 0.7426 0.24804 0.0
C229 C 0.71531 0.78488 0.31392 0.0
O230 O 0.72511 0.77189 0.33501 0.0
O231 O 0.71107 0.71411 0.30407 0.0
C232 C 0.78445 0.68451 0.16619 0.0
O233 O 0.77343 0.69872 0.14713 0.0
O234 O 0.78798 0.69286 0.19383 0.0
O235 O 0.73979 0.72618 0.21763 0.0
O236 O 0.69873 0.72591 0.23435 0.0
O237 O 0.79016 0.7549 0.17893 0.0
C238 C 0.79512 0.74821 0.27194 0.0
C239 C 0.7122 0.72153 0.21255 0.0
Zn240 Zn 0.76859 0.27507 0.72216 0.0
Zn241 Zn 0.73526 0.22217 0.78224 0.0
C242 C 0.72068 0.30033 0.7138 0.0
O243 O 0.70857 0.27921 0.72557 0.0
C244 C 0.77997 0.19071 0.78376 0.0
O245 O 0.78714 0.20294 0.76092 0.0
O246 O 0.81057 0.28541 0.716 0.0
O247 O 0.76285 0.26884 0.76344 0.0
O248 O 0.75162 0.25934 0.80609 0.0
C249 C 0.81808 0.27615 0.69188 0.0
O250 O 0.79874 0.25826 0.67304 0.0
O251 O 0.7474 0.30347 0.71022 0.0
C252 C 0.68443 0.21789 0.81193 0.0
O253 O 0.70218 0.23645 0.83145 0.0
O254 O 0.69368 0.20908 0.78864 0.0
O255 O 0.7368 0.22477 0.73824 0.0
O256 O 0.74731 0.24028 0.69703 0.0
O257 O 0.75874 0.19596 0.79631 0.0
C258 C 0.76187 0.27695 0.79026 0.0
C259 C 0.73359 0.22184 0.71001 0.0
Zn260 Zn 0.70448 0.74755 0.72422 0.0
Zn261 Zn 0.76827 0.73292 0.74899 0.0
C262 C 0.68482 0.76392 0.7791 0.0
O263 O 0.66758 0.73991 0.77262 0.0
C264 C 0.79265 0.72373 0.69676 0.0
O265 O 0.81027 0.74596 0.71045 0.0
O266 O 0.67025 0.75481 0.6973 0.0
O267 O 0.73934 0.76182 0.70508 0.0
O268 O 0.77202 0.77263 0.74533 0.0
C269 C 0.67166 0.77995 0.69761 0.0
O270 O 0.69425 0.7968 0.71357 0.0
O271 O 0.70447 0.77093 0.7629 0.0
C272 C 0.81108 0.7043 0.76961 0.0
O273 O 0.7957 0.68689 0.74746 0.0
O274 O 0.80387 0.72682 0.77545 0.0
O275 O 0.73426 0.71332 0.76638 0.0
O276 O 0.69694 0.70871 0.73059 0.0
O277 O 0.77021 0.71396 0.70824 0.0
C278 C 0.76233 0.7772 0.71955 0.0
C279 C 0.70893 0.70108 0.75371 0.0
Zn280 Zn 0.46911 0.49641 0.47664 0.0
Zn281 Zn 0.52281 0.48121 0.51611 0.0
C282 C 0.44135 0.5207 0.51978 0.0
O283 O 0.42124 0.49934 0.50794 0.0
C284 C 0.55349 0.45842 0.47605 0.0
O285 O 0.57245 0.47941 0.49074 0.0
O286 O 0.44108 0.50415 0.44342 0.0
O287 O 0.50817 0.50424 0.46158 0.0
O288 O 0.53696 0.51827 0.50413 0.0
C289 C 0.44977 0.52766 0.43666 0.0
O290 O 0.4743 0.54268 0.45121 0.0
O291 O 0.46624 0.52427 0.51079 0.0
C292 C 0.54207 0.4522 0.55958 0.0
O293 O 0.51663 0.43711 0.5474 0.0
O294 O 0.55091 0.47453 0.55012 0.0
O295 O 0.48323 0.47256 0.53045 0.0
O296 O 0.45434 0.45938 0.48784 0.0
O297 O 0.52746 0.45383 0.48231 0.0
C298 C 0.53085 0.51977 0.47653 0.0
C299 C 0.46002 0.4579 0.51546 0.0
Zn300 Zn 0.99429 0.46397 0.0054 0.0
Zn301 Zn 0.98925 0.51904 0.98254 0.0
C302 C 0.01156 0.44406 0.95071 0.0
O303 O 0.98701 0.42619 0.94929 0.0
C304 C 0.97365 0.54522 0.03389 0.0
O305 O -0.00258 0.56255 0.03082 0.0
O306 O 0.0017 0.43209 0.02646 0.0
O307 O 0.01285 0.49651 0.03443 0.0
O308 O 0.03063 0.52011 0.00061 0.0
C309 C 0.02907 0.43283 0.03179 0.0
O310 O 0.04738 0.45304 0.02414 0.0
O311 O 0.01839 0.46327 0.97193 0.0
C312 C 0.96125 0.55656 0.95607 0.0
O313 O 0.94022 0.54318 0.96862 0.0
O314 O 0.98618 0.55023 0.95876 0.0
O315 O 0.96854 0.48647 0.9548 0.0
O316 O 0.95217 0.46113 0.98792 0.0
O317 O 0.96591 0.52349 0.01608 0.0
C318 C 0.03392 0.51225 0.02613 0.0
C319 C 0.94796 0.4702 0.96316 0.0
C320 C 0.15914 0.18517 0.83395 0.0
C321 C 0.16531 0.2124 0.84612 0.0
C322 C 0.14838 0.16503 0.85082 0.0
C323 C 0.11141 0.15513 0.91771 0.0
H324 H 0.12981 0.08448 0.90635 0.0
C325 C 0.06847 0.0697 0.98592 0.0
C326 C 0.05317 0.04592 0.96797 0.0
C327 C 0.08565 0.09011 0.97344 0.0
C328 C 0.12457 0.10417 0.90978 0.0
H329 H 0.16595 0.2398 0.88587 0.0
H330 H 0.14814 0.20479 0.91553 0.0
H331 H 0.15347 0.12023 0.88017 0.0
H332 H 0.04496 0.02429 0.92332 0.0
H333 H 0.0754 0.05958 0.90181 0.0
H334 H 0.08267 0.13895 0.94752 0.0
C335 C 0.15073 0.1989 0.8927 0.0
C336 C 0.13793 0.12461 0.89463 0.0
C337 C 0.16112 0.21902 0.87571 0.0
C338 C 0.05634 0.04247 0.93767 0.0
C339 C 0.07391 0.06258 0.92537 0.0
C340 C 0.0984 0.1348 0.93316 0.0
C341 C 0.14386 0.17162 0.8804 0.0
C342 C 0.13117 0.15027 0.898 0.0
C343 C 0.08831 0.0868 0.94298 0.0
C344 C 0.10449 0.10901 0.92899 0.0
H345 H 0.16202 0.17943 0.81116 0.0
H346 H 0.14292 0.14434 0.84036 0.0
H347 H 0.10519 0.17441 0.92055 0.0
H348 H 0.06638 0.0729 0.00932 0.0
H349 H 0.09664 0.10858 0.9875 0.0
C350 C 0.0547 0.90592 0.0636 0.0
C351 C 0.06084 0.93419 0.06675 0.0
C352 C 0.07046 0.89235 0.08228 0.0
C353 C 0.14054 0.89985 0.13005 0.0
H354 H 0.10117 0.83269 0.15336 0.0
C355 C 0.20097 0.81743 0.16175 0.0
C356 C 0.19204 0.80236 0.18437 0.0
C357 C 0.18547 0.83622 0.15194 0.0
C358 C 0.1125 0.85159 0.14749 0.0
H359 H 0.0882 0.97044 0.09224 0.0
H360 H 0.11578 0.94653 0.1254 0.0
H361 H 0.07248 0.86108 0.12911 0.0
H362 H 0.16009 0.79553 0.2148 0.0
H363 H 0.13298 0.8284 0.19763 0.0
H364 H 0.18061 0.89024 0.14845 0.0
C365 C 0.09885 0.93497 0.10814 0.0
C366 C 0.09607 0.86773 0.13327 0.0
C367 C 0.08304 0.94864 0.08925 0.0
C368 C 0.16744 0.80671 0.19721 0.0
C369 C 0.15188 0.8255 0.18734 0.0
C370 C 0.15701 0.88372 0.14439 0.0
C371 C 0.09269 0.90664 0.10479 0.0
C372 C 0.10994 0.89165 0.12363 0.0
C373 C 0.16065 0.84037 0.1645 0.0
C374 C 0.14319 0.85908 0.15257 0.0
H375 H 0.03788 0.89411 0.04638 0.0
H376 H 0.06559 0.87056 0.0786 0.0
H377 H 0.1519 0.91812 0.12284 0.0
H378 H 0.21992 0.81466 0.15148 0.0
H379 H 0.19254 0.84703 0.13398 0.0
C380 C 0.43429 0.94198 0.41035 0.0
C381 C 0.42929 0.94493 0.44014 0.0
C382 C 0.41254 0.92711 0.38828 0.0
C383 C 0.33415 0.89582 0.37028 0.0
H384 H 0.36204 0.84138 0.32292 0.0
C385 C 0.26268 0.79494 0.31156 0.0
C386 C 0.26947 0.78477 0.28415 0.0
C387 C 0.27928 0.81925 0.32683 0.0
C388 C 0.35394 0.85681 0.33544 0.0
H389 H 0.39716 0.93578 0.46999 0.0
H390 H 0.35915 0.90915 0.43122 0.0
H391 H 0.39685 0.87565 0.3571 0.0
H392 H 0.29852 0.79153 0.25131 0.0
H393 H 0.3269 0.83444 0.27715 0.0
H394 H 0.29099 0.87614 0.3491 0.0
C395 C 0.37986 0.91867 0.42506 0.0
C396 C 0.37388 0.87641 0.35505 0.0
C397 C 0.40167 0.93367 0.44724 0.0
C398 C 0.2923 0.79956 0.27178 0.0
C399 C 0.30879 0.82383 0.28685 0.0
C400 C 0.31409 0.87612 0.35055 0.0
C401 C 0.3854 0.91481 0.39554 0.0
C402 C 0.36416 0.89585 0.37294 0.0
C403 C 0.30298 0.8335 0.31491 0.0
C404 C 0.32385 0.85624 0.3333 0.0
H405 H 0.45521 0.95077 0.40405 0.0
H406 H 0.41719 0.9247 0.36559 0.0
H407 H 0.32622 0.91078 0.38372 0.0
H408 H 0.24511 0.78376 0.32152 0.0
H409 H 0.27459 0.82612 0.34862 0.0
C410 C 0.34161 0.18859 0.70456 0.0
C411 C 0.31173 0.18767 0.69614 0.0
C412 C 0.35502 0.16937 0.69146 0.0
C413 C 0.3426 0.10335 0.64475 0.0
H414 H 0.41635 0.13557 0.62045 0.0
C415 C 0.41724 0.04158 0.58741 0.0
C416 C 0.43154 0.05342 0.56523 0.0
C417 C 0.40123 0.05597 0.60457 0.0
C418 C 0.39569 0.1262 0.62684 0.0
H419 H 0.27203 0.1649 0.66863 0.0
H420 H 0.29571 0.13132 0.64524 0.0
H421 H 0.39063 0.16354 0.64865 0.0
H422 H 0.43902 0.08874 0.54233 0.0
H423 H 0.41049 0.11329 0.57126 0.0
H424 H 0.34745 0.06604 0.62182 0.0
C425 C 0.30866 0.14691 0.66219 0.0
C426 C 0.38112 0.14221 0.64343 0.0
C427 C 0.29514 0.16619 0.67546 0.0
C428 C 0.42871 0.07933 0.55972 0.0
C429 C 0.41244 0.09345 0.5764 0.0
C430 C 0.35723 0.08722 0.62795 0.0
C431 C 0.33894 0.14881 0.66946 0.0
C432 C 0.3544 0.13105 0.65255 0.0
C433 C 0.39904 0.08225 0.59948 0.0
C434 C 0.3838 0.09859 0.61853 0.0
H435 H 0.35496 0.20463 0.72076 0.0
H436 H 0.37824 0.17104 0.69805 0.0
H437 H 0.32212 0.09416 0.65162 0.0
H438 H 0.41913 0.02159 0.59204 0.0
H439 H 0.39129 0.04683 0.62229 0.0
C440 C 0.09351 0.94043 0.54712 0.0
C441 C 0.06358 0.93097 0.53649 0.0
C442 C 0.11024 0.92311 0.55854 0.0
C443 C 0.11133 0.85139 0.56314 0.0
H444 H 0.15533 0.87861 0.64134 0.0
C445 C 0.14412 0.78243 0.64759 0.0
C446 C 0.17067 0.79121 0.66688 0.0
C447 C 0.13473 0.79908 0.62775 0.0
C448 C 0.14368 0.8708 0.61927 0.0
H449 H 0.02812 0.89561 0.52782 0.0
H450 H 0.05731 0.86544 0.54775 0.0
H451 H 0.13269 0.9086 0.61283 0.0
H452 H 0.20893 0.82378 0.67941 0.0
H453 H 0.19272 0.85261 0.64452 0.0
H454 H 0.12181 0.81338 0.56993 0.0
C455 C 0.06788 0.88621 0.54722 0.0
C456 C 0.13068 0.88802 0.60292 0.0
C457 C 0.05111 0.90354 0.53597 0.0
C458 C 0.18821 0.8165 0.66504 0.0
C459 C 0.17887 0.8331 0.64514 0.0
C460 C 0.12443 0.83415 0.57946 0.0
C461 C 0.09742 0.89596 0.55932 0.0
C462 C 0.11393 0.87838 0.57492 0.0
C463 C 0.15175 0.82481 0.6267 0.0
C464 C 0.1403 0.84356 0.60795 0.0
H465 H 0.10379 0.96145 0.54775 0.0
H466 H 0.13306 0.9311 0.56741 0.0
H467 H 0.09882 0.8435 0.54145 0.0
H468 H 0.13011 0.76305 0.64844 0.0
H469 H 0.11358 0.79218 0.61409 0.0
C470 C 0.27931 0.82023 0.76435 0.0
C471 C 0.29629 0.80103 0.75875 0.0
C472 C 0.2927 0.84675 0.77608 0.0
C473 C 0.36495 0.89487 0.79432 0.0
H474 H 0.33595 0.91507 0.86754 0.0
C475 C 0.43806 0.93824 0.90243 0.0
C476 C 0.43166 0.95893 0.9215 0.0
C477 C 0.41943 0.92733 0.87614 0.0
C478 C 0.34393 0.91026 0.84678 0.0
H479 H 0.34055 0.79491 0.75924 0.0
H480 H 0.36392 0.84094 0.78008 0.0
H481 H 0.30579 0.87952 0.83067 0.0
H482 H 0.40107 0.98484 0.92789 0.0
H483 H 0.36748 0.9647 0.88207 0.0
H484 H 0.40411 0.92421 0.81176 0.0
C485 C 0.34027 0.8357 0.77514 0.0
C486 C 0.32666 0.88987 0.8256 0.0
C487 C 0.32689 0.8092 0.76349 0.0
C488 C 0.40641 0.96883 0.91355 0.0
C489 C 0.38732 0.95743 0.8874 0.0
C490 C 0.38226 0.91516 0.81558 0.0
C491 C 0.32334 0.85459 0.78233 0.0
C492 C 0.33771 0.88092 0.79996 0.0
C493 C 0.39371 0.93654 0.86853 0.0
C494 C 0.37253 0.92191 0.84269 0.0
H495 H 0.25563 0.81461 0.76056 0.0
H496 H 0.27908 0.86089 0.78112 0.0
H497 H 0.37373 0.88886 0.77443 0.0
H498 H 0.45753 0.93041 0.90781 0.0
H499 H 0.42461 0.91091 0.86228 0.0
C500 C 0.41326 0.06002 0.0543 0.0
C501 C 0.44294 0.07034 0.05259 0.0
C502 C 0.3973 0.07514 0.07061 0.0
C503 C 0.40865 0.13212 0.131 0.0
H504 H 0.32784 0.13379 0.10398 0.0
C505 C 0.35464 0.21094 0.1854 0.0
C506 C 0.32741 0.20179 0.19467 0.0
C507 C 0.36619 0.19415 0.16626 0.0
C508 C 0.35031 0.13329 0.11188 0.0
H509 H 0.47881 0.10497 0.066 0.0
H510 H 0.45101 0.1314 0.09376 0.0
H511 H 0.35325 0.10579 0.07412 0.0
H512 H 0.29015 0.16824 0.18965 0.0
H513 H 0.31044 0.13875 0.15571 0.0
H514 H 0.40598 0.15985 0.16841 0.0
C515 C 0.44014 0.1114 0.08315 0.0
C516 C 0.36487 0.11725 0.09485 0.0
C517 C 0.45608 0.09629 0.06701 0.0
C518 C 0.31119 0.17587 0.18293 0.0
C519 C 0.32278 0.15901 0.16353 0.0
C520 C 0.39424 0.14821 0.14781 0.0
C521 C 0.41067 0.10092 0.08553 0.0
C522 C 0.39439 0.11679 0.10402 0.0
C523 C 0.3508 0.16777 0.15575 0.0
C524 C 0.36508 0.14931 0.13826 0.0
H525 H 0.40248 0.04007 0.04349 0.0
H526 H 0.37472 0.06636 0.07213 0.0
H527 H 0.43107 0.13171 0.13924 0.0
H528 H 0.36761 0.23088 0.19369 0.0
H529 H 0.38756 0.20166 0.16016 0.0
C530 C 0.06483 0.05531 0.38877 0.0
C531 C 0.05926 0.0675 0.41586 0.0
C532 C 0.08169 0.07047 0.37073 0.0
C533 C 0.10925 0.14162 0.35921 0.0
H534 H 0.16093 0.11073 0.31251 0.0
C535 C 0.20649 0.20188 0.31239 0.0
C536 C 0.20658 0.19655 0.2816 0.0
C537 C 0.18592 0.18603 0.3263 0.0
C538 C 0.14627 0.11942 0.32519 0.0
H539 H 0.06799 0.1046 0.44613 0.0
H540 H 0.09857 0.13077 0.41548 0.0
H541 H 0.13159 0.08287 0.34306 0.0
H542 H 0.1853 0.17077 0.24109 0.0
H543 H 0.14974 0.14208 0.26592 0.0
H544 H 0.12538 0.17857 0.34244 0.0
C545 C 0.08897 0.10984 0.4074 0.0
C546 C 0.12941 0.10352 0.34264 0.0
C547 C 0.07168 0.09481 0.42514 0.0
C548 C 0.18557 0.17522 0.26485 0.0
C549 C 0.1654 0.15886 0.27898 0.0
C550 C 0.1265 0.15758 0.34221 0.0
C551 C 0.09374 0.09802 0.37968 0.0
C552 C 0.11092 0.11451 0.36015 0.0
C553 C 0.16554 0.1642 0.3098 0.0
C554 C 0.14527 0.14665 0.32529 0.0
H555 H 0.05529 0.0343 0.38101 0.0
H556 H 0.08457 0.06071 0.34942 0.0
H557 H 0.09472 0.15062 0.37172 0.0
H558 H 0.2223 0.21839 0.32573 0.0
H559 H 0.1864 0.19041 0.35011 0.0
C560 C 0.8038 0.13727 0.17179 0.0
C561 C 0.81161 0.16531 0.17959 0.0
C562 C 0.81837 0.12433 0.15182 0.0
C563 C 0.88834 0.1292 0.12459 0.0
H564 H 0.84424 0.0733 0.06278 0.0
C565 C 0.94267 0.06435 0.04381 0.0
C566 C 0.92833 0.0372 0.03606 0.0
C567 C 0.92988 0.08224 0.0606 0.0
C568 C 0.85695 0.08863 0.08013 0.0
H569 H 0.84065 0.20189 0.17236 0.0
H570 H 0.86671 0.17902 0.1376 0.0
H571 H 0.81853 0.10084 0.09207 0.0
H572 H 0.89037 0.00718 0.04132 0.0
H573 H 0.86871 0.03786 0.07112 0.0
H574 H 0.92676 0.1163 0.11332 0.0
C575 C 0.84909 0.16719 0.14692 0.0
C576 C 0.84218 0.10454 0.09676 0.0
C577 C 0.83407 0.18026 0.16659 0.0
C578 C 0.90179 0.02805 0.04658 0.0
C579 C 0.88922 0.04575 0.06347 0.0
C580 C 0.90319 0.11306 0.10807 0.0
C581 C 0.84141 0.13906 0.13946 0.0
C582 C 0.85762 0.12461 0.11957 0.0
C583 C 0.90263 0.07322 0.07005 0.0
C584 C 0.88758 0.09213 0.0861 0.0
H585 H 0.78654 0.12521 0.18138 0.0
H586 H 0.81213 0.10262 0.1467 0.0
H587 H 0.90078 0.14447 0.14217 0.0
H588 H 0.9631 0.072 0.03588 0.0
H589 H 0.94082 0.10326 0.06524 0.0
C590 C 0.01218 0.53601 0.39102 0.0
C591 C 0.02001 0.51121 0.3841 0.0
C592 C 0.0195 0.55686 0.37391 0.0
C593 C 0.07875 0.578 0.33177 0.0
H594 H 0.04272 0.63874 0.31946 0.0
C595 C 0.14281 0.68346 0.32554 0.0
C596 C 0.1485 0.68289 0.29595 0.0
C597 C 0.11894 0.66552 0.33265 0.0
C598 C 0.05278 0.62177 0.32273 0.0
H599 H 0.03772 0.48741 0.35171 0.0
H600 H 0.04963 0.52346 0.3213 0.0
H601 H 0.01426 0.59813 0.33548 0.0
H602 H 0.13186 0.66535 0.25027 0.0
H603 H 0.09024 0.63384 0.26295 0.0
H604 H 0.11729 0.60168 0.31967 0.0
C605 C 0.03892 0.52721 0.34056 0.0
C606 C 0.03665 0.59865 0.33186 0.0
C607 C 0.03203 0.50654 0.35788 0.0
C608 C 0.12822 0.66603 0.2733 0.0
C609 C 0.10429 0.64819 0.28044 0.0
C610 C 0.09468 0.60092 0.32272 0.0
C611 C 0.03443 0.55306 0.34946 0.0
C612 C 0.0496 0.57658 0.33664 0.0
C613 C 0.10026 0.6471 0.31024 0.0
C614 C 0.08195 0.62297 0.31841 0.0
H615 H 0.00269 0.5401 0.41104 0.0
H616 H 0.01567 0.5765 0.38134 0.0
H617 H 0.08973 0.56178 0.33603 0.0
H618 H 0.15796 0.69628 0.34348 0.0
H619 H 0.11638 0.66461 0.35583 0.0
C620 C 0.53132 0.89882 0.53502 0.0
C621 C 0.54435 0.9258 0.54608 0.0
C622 C 0.53679 0.87799 0.55113 0.0
C623 C 0.56206 0.86373 0.62615 0.0
H624 H 0.5975 0.81014 0.58683 0.0
C625 C 0.64706 0.81765 0.68861 0.0
C626 C 0.64863 0.79073 0.68092 0.0
C627 C 0.62689 0.82905 0.67232 0.0
C628 C 0.58698 0.82448 0.59802 0.0
H629 H 0.57232 0.95217 0.58304 0.0
H630 H 0.58123 0.91598 0.6114 0.0
H631 H 0.57489 0.84004 0.55749 0.0
H632 H 0.6297 0.75435 0.6505 0.0
H633 H 0.5943 0.7746 0.62143 0.0
H634 H 0.57491 0.84893 0.66675 0.0
C635 C 0.56697 0.91088 0.59026 0.0
C636 C 0.57409 0.84164 0.58122 0.0
C637 C 0.56201 0.93159 0.57395 0.0
C638 C 0.62897 0.77517 0.6569 0.0
C639 C 0.60882 0.78676 0.64025 0.0
C640 C 0.57468 0.8465 0.64286 0.0
C641 C 0.55479 0.88385 0.57886 0.0
C642 C 0.56266 0.86217 0.59535 0.0
C643 C 0.60774 0.81393 0.64773 0.0
C644 C 0.58849 0.82753 0.62919 0.0
H645 H 0.51776 0.89377 0.51348 0.0
H646 H 0.52717 0.85732 0.54185 0.0
H647 H 0.55292 0.87907 0.63752 0.0
H648 H 0.66175 0.83016 0.70711 0.0
H649 H 0.62705 0.85013 0.67842 0.0
C650 C 0.4494 0.41854 0.917 0.0
C651 C 0.45337 0.42984 0.94691 0.0
C652 C 0.43296 0.39249 0.90803 0.0
C653 C 0.36951 0.34861 0.92486 0.0
H654 H 0.3867 0.30091 0.86084 0.0
C655 C 0.3099 0.25983 0.82109 0.0
C656 C 0.28856 0.27318 0.80969 0.0
C657 C 0.32947 0.27144 0.84676 0.0
C658 C 0.38159 0.31349 0.87919 0.0
H659 H 0.44391 0.42273 0.991 0.0
H660 H 0.41439 0.3771 0.97516 0.0
H661 H 0.42607 0.33525 0.88997 0.0
H662 H 0.27119 0.30905 0.81533 0.0
H663 H 0.30476 0.32927 0.86038 0.0
H664 H 0.32469 0.32794 0.9128 0.0
C665 C 0.42448 0.3883 0.95883 0.0
C666 C 0.40416 0.3333 0.89573 0.0
C667 C 0.44146 0.41428 0.9679 0.0
C668 C 0.28642 0.29782 0.82469 0.0
C669 C 0.30588 0.30942 0.85036 0.0
C670 C 0.34687 0.32886 0.90818 0.0
C671 C 0.41968 0.37735 0.92868 0.0
C672 C 0.39806 0.35194 0.91762 0.0
C673 C 0.32818 0.29675 0.86121 0.0
C674 C 0.35247 0.31206 0.88414 0.0
H675 H 0.4584 0.4301 0.90038 0.0
H676 H 0.42929 0.38476 0.88457 0.0
H677 H 0.36418 0.36269 0.94165 0.0
H678 H 0.312 0.24083 0.8096 0.0
H679 H 0.34636 0.26117 0.8546 0.0
C680 C 0.8453 0.7599 0.30117 0.0
C681 C 0.81546 0.76052 0.29941 0.0
C682 C 0.86543 0.77445 0.32509 0.0
C683 C 0.87422 0.81443 0.39983 0.0
H684 H 0.93967 0.85788 0.371 0.0
C685 C 0.93789 0.91829 0.4587 0.0
C686 C 0.96664 0.92782 0.45343 0.0
C687 C 0.92257 0.89244 0.44635 0.0
C688 C 0.92209 0.84552 0.37983 0.0
H689 H 0.78308 0.77547 0.32238 0.0
H690 H 0.81838 0.80144 0.36398 0.0
H691 H 0.90638 0.82236 0.33733 0.0
H692 H 0.00285 0.91732 0.43336 0.0
H693 H 0.97658 0.87177 0.41262 0.0
H694 H 0.88969 0.83839 0.44228 0.0
C695 C 0.82617 0.78943 0.34699 0.0
C696 C 0.90282 0.82509 0.36035 0.0
C697 C 0.80593 0.77467 0.32307 0.0
C698 C 0.98063 0.9104 0.43761 0.0
C699 C 0.96547 0.88442 0.42558 0.0
C700 C 0.89369 0.83489 0.41948 0.0
C701 C 0.85628 0.7902 0.34773 0.0
C702 C 0.87832 0.80963 0.36988 0.0
C703 C 0.93575 0.87561 0.42847 0.0
C704 C 0.91754 0.8511 0.40952 0.0
H705 H 0.85332 0.74881 0.28356 0.0
H706 H 0.88837 0.77413 0.32531 0.0
H707 H 0.85572 0.80266 0.40794 0.0
H708 H 0.92651 0.93149 0.47055 0.0
H709 H 0.89973 0.88655 0.44897 0.0
C710 C 0.44659 0.56852 0.54291 0.0
C711 C 0.43357 0.54105 0.54102 0.0
C712 C 0.43601 0.58786 0.56004 0.0
C713 C 0.39185 0.59653 0.62076 0.0
H714 H 0.37323 0.65663 0.58264 0.0
C715 C 0.3151 0.65982 0.66682 0.0
C716 C 0.32277 0.68791 0.66739 0.0
C717 C 0.33019 0.64306 0.6517 0.0
C718 C 0.37864 0.64018 0.59378 0.0
H719 H 0.40032 0.5122 0.55658 0.0
H720 H 0.38234 0.54572 0.58679 0.0
H721 H 0.39876 0.62577 0.55741 0.0
H722 H 0.35177 0.7203 0.65165 0.0
H723 H 0.37809 0.69101 0.62522 0.0
H724 H 0.37167 0.61071 0.65703 0.0
C725 C 0.40053 0.55244 0.575 0.0
C726 C 0.39333 0.62254 0.57935 0.0
C727 C 0.41075 0.53323 0.55758 0.0
C728 C 0.34532 0.69876 0.65171 0.0
C729 C 0.36036 0.68195 0.63646 0.0
C730 C 0.3773 0.61419 0.63522 0.0
C731 C 0.41262 0.58001 0.57598 0.0
C732 C 0.39969 0.60027 0.59249 0.0
C733 C 0.35328 0.65392 0.63667 0.0
C734 C 0.37008 0.63599 0.62173 0.0
H735 H 0.46407 0.57512 0.53019 0.0
H736 H 0.44589 0.60895 0.56056 0.0
H737 H 0.39683 0.57979 0.63166 0.0
H738 H 0.2978 0.65073 0.67857 0.0
H739 H 0.32375 0.62153 0.65184 0.0
C740 C 0.52767 0.05367 0.92324 0.0
C741 C 0.54916 0.03876 0.92992 0.0
C742 C 0.53285 0.07455 0.90569 0.0
C743 C 0.57762 0.09816 0.84947 0.0
H744 H 0.57394 0.17054 0.88112 0.0
C745 C 0.63621 0.18545 0.79792 0.0
C746 C 0.6561 0.20403 0.81936 0.0
C747 C 0.61248 0.16829 0.80638 0.0
C748 C 0.57475 0.1504 0.87178 0.0
H749 H 0.59273 0.03384 0.92342 0.0
H750 H 0.60159 0.06995 0.8926 0.0
H751 H 0.55362 0.13246 0.9062 0.0
H752 H 0.66504 0.22119 0.86584 0.0
H753 H 0.62447 0.19077 0.88076 0.0
H754 H 0.60039 0.11578 0.81635 0.0
C755 C 0.58077 0.06551 0.90086 0.0
C756 C 0.56295 0.12863 0.88602 0.0
C757 C 0.57581 0.04501 0.91873 0.0
C758 C 0.65025 0.20689 0.84884 0.0
C759 C 0.62674 0.18954 0.85736 0.0
C760 C 0.5893 0.1198 0.83522 0.0
C761 C 0.55935 0.08042 0.89411 0.0
C762 C 0.56558 0.10251 0.87573 0.0
C763 C 0.60845 0.16915 0.83649 0.0
C764 C 0.58925 0.14632 0.847 0.0
H765 H 0.50694 0.0493 0.9317 0.0
H766 H 0.51609 0.08587 0.90088 0.0
H767 H 0.57948 0.0781 0.84087 0.0
H768 H 0.63982 0.18317 0.77488 0.0
H769 H 0.59834 0.15325 0.78963 0.0
C770 C 0.06993 0.40953 0.04287 0.0
C771 C 0.04097 0.41146 0.04547 0.0
C772 C 0.08234 0.39031 0.05615 0.0
C773 C 0.07984 0.35084 0.11786 0.0
H774 H 0.12783 0.31222 0.0741 0.0
C775 C 0.14953 0.28279 0.17372 0.0
C776 C 0.17836 0.28611 0.16711 0.0
C777 C 0.12882 0.29385 0.15729 0.0
C778 C 0.11464 0.32291 0.08671 0.0
H779 H 0.00224 0.39461 0.06414 0.0
H780 H 0.02436 0.36094 0.08808 0.0
H781 H 0.09826 0.33931 0.04845 0.0
H782 H 0.2077 0.30308 0.13748 0.0
H783 H 0.1719 0.32245 0.10916 0.0
H784 H 0.09716 0.33533 0.15643 0.0
C785 C 0.03724 0.37438 0.07544 0.0
C786 C 0.09759 0.33834 0.07197 0.0
C787 C 0.02457 0.39352 0.06166 0.0
C788 C 0.18571 0.30003 0.14316 0.0
C789 C 0.16506 0.31104 0.12676 0.0
C790 C 0.09707 0.33548 0.13271 0.0
C791 C 0.06627 0.37258 0.07269 0.0
C792 C 0.08061 0.35304 0.08752 0.0
C793 C 0.13643 0.30839 0.1338 0.0
C794 C 0.11529 0.3219 0.11746 0.0
H795 H 0.08322 0.42296 0.03052 0.0
H796 H 0.10486 0.38972 0.05397 0.0
H797 H 0.06712 0.3621 0.13046 0.0
H798 H 0.14309 0.27217 0.19203 0.0
H799 H 0.1069 0.29117 0.16311 0.0
C800 C 0.56254 0.59291 0.92353 0.0
C801 C 0.54744 0.56609 0.91527 0.0
C802 C 0.58242 0.60504 0.9061 0.0
C803 C 0.62664 0.59212 0.84704 0.0
H804 H 0.61704 0.66261 0.82878 0.0
C805 C 0.66174 0.67068 0.75919 0.0
C806 C 0.69197 0.67994 0.76829 0.0
C807 C 0.64507 0.65359 0.77564 0.0
C808 C 0.6198 0.64289 0.83365 0.0
H809 H 0.54197 0.53061 0.88296 0.0
H810 H 0.57642 0.55204 0.85217 0.0
H811 H 0.58712 0.63977 0.86249 0.0
H812 H 0.72875 0.67703 0.80049 0.0
H813 H 0.69942 0.6468 0.82893 0.0
H814 H 0.65969 0.59568 0.81818 0.0
C815 C 0.57313 0.56353 0.87231 0.0
C816 C 0.60297 0.62995 0.85313 0.0
C817 C 0.55333 0.55133 0.88984 0.0
C818 C 0.70546 0.67039 0.79302 0.0
C819 C 0.68881 0.65301 0.80921 0.0
C820 C 0.64384 0.60532 0.82781 0.0
C821 C 0.58745 0.59065 0.88 0.0
C822 C 0.60614 0.60443 0.85997 0.0
C823 C 0.65842 0.64515 0.80109 0.0
C824 C 0.64031 0.63068 0.82088 0.0
H825 H 0.55879 0.60461 0.94331 0.0
H826 H 0.59359 0.62584 0.91283 0.0
H827 H 0.62956 0.57249 0.85205 0.0
H828 H 0.65071 0.67755 0.74019 0.0
H829 H 0.6216 0.64761 0.76905 0.0
C830 C 0.69457 0.32414 0.17312 0.0
C831 C 0.69281 0.29683 0.16328 0.0
C832 C 0.68505 0.34094 0.15367 0.0
C833 C 0.63204 0.33813 0.08819 0.0
H834 H 0.66861 0.41378 0.09356 0.0
C835 C 0.57208 0.41261 0.03392 0.0
C836 C 0.5721 0.43571 0.05349 0.0
C837 C 0.59151 0.39599 0.04085 0.0
C838 C 0.65818 0.39267 0.09173 0.0
H839 H 0.68081 0.26597 0.125 0.0
H840 H 0.66389 0.29546 0.09091 0.0
H841 H 0.69496 0.38339 0.11768 0.0
H842 H 0.59341 0.46022 0.0949 0.0
H843 H 0.62692 0.43122 0.10709 0.0
H844 H 0.59471 0.34759 0.06353 0.0
C845 C 0.67258 0.30373 0.11377 0.0
C846 C 0.67326 0.3753 0.1055 0.0
C847 C 0.68233 0.2869 0.13325 0.0
C848 C 0.59277 0.44252 0.07939 0.0
C849 C 0.61219 0.42599 0.08626 0.0
C850 C 0.61692 0.35552 0.07447 0.0
C851 C 0.67344 0.33082 0.12394 0.0
C852 C 0.65994 0.34804 0.10474 0.0
C853 C 0.6114 0.40227 0.06738 0.0
C854 C 0.62944 0.38315 0.07699 0.0
H855 H 0.70267 0.33246 0.19609 0.0
H856 H 0.68562 0.36161 0.16231 0.0
H857 H 0.62109 0.31727 0.08744 0.0
H858 H 0.55645 0.40688 0.01373 0.0
H859 H 0.59058 0.37795 0.02576 0.0
C860 C 0.94129 0.4332 0.44092 0.0
C861 C 0.9376 0.45923 0.44986 0.0
C862 C 0.92337 0.41742 0.41627 0.0
C863 C 0.87921 0.41423 0.34655 0.0
H864 H 0.83064 0.35051 0.36821 0.0
C865 C 0.82558 0.31497 0.26929 0.0
C866 C 0.79703 0.30255 0.27283 0.0
C867 C 0.83979 0.33908 0.28692 0.0
C868 C 0.84374 0.3684 0.36187 0.0
H869 H 0.91326 0.48974 0.43956 0.0
H870 H 0.88214 0.46208 0.39577 0.0
H871 H 0.86337 0.38283 0.40687 0.0
H872 H 0.76073 0.30569 0.29685 0.0
H873 H 0.78555 0.34774 0.32782 0.0
H874 H 0.86051 0.39892 0.30122 0.0
C875 C 0.89885 0.454 0.40803 0.0
C876 C 0.86258 0.38671 0.38392 0.0
C877 C 0.91648 0.46968 0.43306 0.0
C878 C 0.78242 0.31523 0.29321 0.0
C879 C 0.79672 0.33911 0.31109 0.0
C880 C 0.8607 0.39553 0.32428 0.0
C881 C 0.90176 0.42757 0.39996 0.0
C882 C 0.88068 0.40954 0.37641 0.0
C883 C 0.82583 0.35079 0.30872 0.0
C884 C 0.84301 0.37235 0.33182 0.0
H885 H 0.95719 0.42462 0.45374 0.0
H886 H 0.92589 0.39701 0.41035 0.0
H887 H 0.89307 0.4318 0.34041 0.0
H888 H 0.8373 0.30552 0.2537 0.0
H889 H 0.86233 0.34757 0.28488 0.0
C890 C 0.57801 0.55301 0.47473 0.0
C891 C 0.55023 0.53854 0.46094 0.0
C892 C 0.59596 0.57027 0.45914 0.0
C893 C 0.60464 0.58444 0.38168 0.0
H894 H 0.64908 0.65432 0.41959 0.0
C895 C 0.64266 0.67092 0.31525 0.0
C896 C 0.6718 0.68536 0.32212 0.0
C897 C 0.63104 0.65232 0.33334 0.0
C898 C 0.63706 0.63472 0.40883 0.0
H899 H 0.51944 0.5313 0.42007 0.0
H900 H 0.54995 0.56158 0.3936 0.0
H901 H 0.62276 0.62306 0.4494 0.0
H902 H 0.71152 0.69184 0.35373 0.0
H903 H 0.69085 0.65946 0.38586 0.0
H904 H 0.61797 0.59647 0.34098 0.0
C905 C 0.55846 0.5592 0.41606 0.0
C906 C 0.62203 0.61677 0.42589 0.0
C907 C 0.54075 0.54192 0.43143 0.0
C908 C 0.68902 0.68094 0.34779 0.0
C909 C 0.67718 0.66253 0.36623 0.0
C910 C 0.61934 0.60242 0.36467 0.0
C911 C 0.58643 0.57345 0.4295 0.0
C912 C 0.60505 0.59161 0.41237 0.0
C913 C 0.64812 0.64788 0.35901 0.0
C914 C 0.63522 0.62796 0.37791 0.0
H915 H 0.586 0.5508 0.4974 0.0
H916 H 0.61743 0.58079 0.47017 0.0
H917 H 0.59255 0.56498 0.37059 0.0
H918 H 0.62876 0.67381 0.29568 0.0
H919 H 0.60847 0.64157 0.3274 0.0
C920 C 0.76688 0.31426 0.83142 0.0
C921 C 0.76956 0.30579 0.80187 0.0
C922 C 0.77622 0.34128 0.84318 0.0
C923 C 0.83237 0.39796 0.83254 0.0
H924 H 0.80938 0.42786 0.90538 0.0
C925 C 0.89699 0.44216 0.95041 0.0
C926 C 0.91976 0.46159 0.94332 0.0
C927 C 0.87133 0.43282 0.93024 0.0
C928 C 0.8158 0.42006 0.88478 0.0
H929 H 0.7822 0.31915 0.7608 0.0
H930 H 0.79773 0.36649 0.78104 0.0
H931 H 0.77435 0.39291 0.8713 0.0
H932 H 0.93256 0.48811 0.91063 0.0
H933 H 0.8881 0.47122 0.87528 0.0
H934 H 0.87413 0.42413 0.84659 0.0
C935 C 0.78898 0.3522 0.79535 0.0
C936 C 0.79586 0.40001 0.86534 0.0
C937 C 0.78 0.32507 0.78371 0.0
C938 C 0.91566 0.47268 0.91653 0.0
C939 C 0.89013 0.46324 0.89635 0.0
C940 C 0.85206 0.41825 0.85169 0.0
C941 C 0.78828 0.36047 0.82556 0.0
C942 C 0.80469 0.38741 0.84013 0.0
C943 C 0.86811 0.44268 0.90264 0.0
C944 C 0.84455 0.42819 0.87886 0.0
H945 H 0.75861 0.29988 0.84587 0.0
H946 H 0.7757 0.34671 0.86663 0.0
H947 H 0.84009 0.38881 0.81342 0.0
H948 H 0.89937 0.43349 0.97101 0.0
H949 H 0.8548 0.41667 0.93545 0.0
C950 C 0.80851 0.78897 0.13471 0.0
C951 C 0.82775 0.78235 0.15745 0.0
C952 C 0.81894 0.80787 0.11615 0.0
C953 C 0.87765 0.86631 0.11606 0.0
H954 H 0.86712 0.85065 0.02998 0.0
C955 C 0.95395 0.92766 0.04927 0.0
C956 C 0.94298 0.93527 0.02216 0.0
C957 C 0.93646 0.90923 0.06351 0.0
C958 C 0.86981 0.85552 0.05395 0.0
H959 H 0.873 0.79027 0.17834 0.0
H960 H 0.89089 0.82339 0.14652 0.0
H961 H 0.84209 0.81798 0.05941 0.0
H962 H 0.905 0.92878 0.9883 0.0
H963 H 0.87388 0.89646 0.01371 0.0
H964 H 0.90525 0.9036 0.11106 0.0
C965 C 0.86782 0.81398 0.14297 0.0
C966 C 0.85554 0.83681 0.07076 0.0
C967 C 0.85755 0.7949 0.16113 0.0
C968 C 0.91408 0.92332 0.00918 0.0
C969 C 0.89631 0.90483 0.0237 0.0
C970 C 0.89158 0.88501 0.09938 0.0
C971 C 0.84866 0.82078 0.1204 0.0
C972 C 0.86012 0.84173 0.10203 0.0
C973 C 0.90722 0.89798 0.05136 0.0
C974 C 0.88872 0.87949 0.06819 0.0
H975 H 0.78545 0.77953 0.13123 0.0
H976 H 0.80373 0.8128 0.09891 0.0
H977 H 0.8811 0.87085 0.1401 0.0
H978 H 0.97622 0.9361 0.05978 0.0
H979 H 0.94595 0.90384 0.08425 0.0
C980 C 0.82 0.16513 0.78128 0.0
C981 C 0.7966 0.17126 0.79509 0.0
C982 C 0.8361 0.14723 0.7925 0.0
C983 C 0.83429 0.09443 0.84293 0.0
H984 H 0.91875 0.11468 0.8489 0.0
C985 C 0.91021 0.03114 0.89745 0.0
C986 C 0.93482 0.04609 0.91683 0.0
C987 C 0.89334 0.04408 0.87871 0.0
C988 C 0.89519 0.10874 0.84745 0.0
H989 H 0.77149 0.16312 0.83126 0.0
H990 H 0.79985 0.13239 0.8511 0.0
H991 H 0.88869 0.1417 0.82408 0.0
H992 H 0.9612 0.08628 0.93148 0.0
H993 H 0.9317 0.10867 0.89955 0.0
H994 H 0.84092 0.06226 0.86767 0.0
C995 C 0.8055 0.141 0.83131 0.0
C996 C 0.87792 0.12406 0.83288 0.0
C997 C 0.78938 0.15883 0.82008 0.0
C998 C 0.94245 0.07408 0.91676 0.0
C999 C 0.92562 0.08696 0.89822 0.0
C1000 C 0.85159 0.07917 0.85766 0.0
C1001 C 0.82917 0.13511 0.81778 0.0
C1002 C 0.84729 0.11737 0.8309 0.0
C1003 C 0.90079 0.07219 0.87906 0.0
C1004 C 0.88227 0.08648 0.8606 0.0
H1005 H 0.82603 0.17425 0.7619 0.0
H1006 H 0.85399 0.14288 0.78134 0.0
H1007 H 0.81073 0.0885 0.84139 0.0
H1008 H 0.90382 0.00952 0.89695 0.0
H1009 H 0.87448 0.03209 0.86399 0.0
C1010 C 0.70872 0.196 0.66146 0.0
C1011 C 0.71101 0.19995 0.69261 0.0
C1012 C 0.68467 0.17825 0.64458 0.0
C1013 C 0.62506 0.12109 0.64893 0.0
H1014 H 0.59233 0.14095 0.57433 0.0
C1015 C 0.53357 0.04772 0.572 0.0
C1016 C 0.5418 0.04167 0.54391 0.0
C1017 C 0.54824 0.07096 0.59059 0.0
C1018 C 0.60114 0.13533 0.59524 0.0
H1019 H 0.69068 0.18765 0.73064 0.0
H1020 H 0.64847 0.15692 0.70115 0.0
H1021 H 0.63142 0.17314 0.60722 0.0
H1022 H 0.57019 0.0561 0.51226 0.0
H1023 H 0.59625 0.09656 0.5451 0.0
H1024 H 0.59524 0.08314 0.63673 0.0
C1025 C 0.66531 0.1674 0.68977 0.0
C1026 C 0.6236 0.15357 0.61391 0.0
C1027 C 0.68952 0.18496 0.70666 0.0
C1028 C 0.56369 0.06009 0.53398 0.0
C1029 C 0.57833 0.08339 0.55259 0.0
C1030 C 0.60247 0.10299 0.63042 0.0
C1031 C 0.66239 0.16428 0.65854 0.0
C1032 C 0.63639 0.14627 0.64046 0.0
C1033 C 0.57134 0.08851 0.58139 0.0
C1034 C 0.59096 0.10966 0.60304 0.0
H1035 H 0.72512 0.20713 0.65006 0.0
H1036 H 0.68343 0.17563 0.62058 0.0
H1037 H 0.63458 0.11481 0.66912 0.0
H1038 H 0.51637 0.03414 0.58004 0.0
H1039 H 0.5423 0.0747 0.61262 0.0
C1040 C 0.54486 0.90556 0.39693 0.0
C1041 C 0.55328 0.93201 0.41164 0.0
C1042 C 0.5636 0.89482 0.38005 0.0
C1043 C 0.64196 0.9028 0.37711 0.0
H1044 H 0.61508 0.84689 0.30984 0.0
C1045 C 0.70219 0.81827 0.35109 0.0
C1046 C 0.70214 0.8082 0.32129 0.0
C1047 C 0.68676 0.83817 0.35807 0.0
C1048 C 0.62309 0.8628 0.32827 0.0
H1049 H 0.58703 0.9686 0.41843 0.0
H1050 H 0.61965 0.94993 0.3885 0.0
H1051 H 0.58139 0.87361 0.32703 0.0
H1052 H 0.687 0.81198 0.27536 0.0
H1053 H 0.66014 0.84677 0.28766 0.0
H1054 H 0.6835 0.89171 0.37863 0.0
C1055 C 0.59881 0.93732 0.39062 0.0
C1056 C 0.6037 0.87791 0.33831 0.0
C1057 C 0.5801 0.94803 0.40768 0.0
C1058 C 0.68739 0.81925 0.29858 0.0
C1059 C 0.67187 0.83907 0.30558 0.0
C1060 C 0.66134 0.88775 0.36704 0.0
C1061 C 0.59111 0.91035 0.37732 0.0
C1062 C 0.61268 0.89752 0.36341 0.0
C1063 C 0.67095 0.84837 0.3354 0.0
C1064 C 0.65186 0.86705 0.34311 0.0
H1065 H 0.52427 0.89271 0.39942 0.0
H1066 H 0.55709 0.87389 0.37042 0.0
H1067 H 0.64957 0.91759 0.39665 0.0
H1068 H 0.71334 0.81021 0.36908 0.0
H1069 H 0.68618 0.84469 0.38129 0.0
C1070 C 0.79579 0.16218 0.3147 0.0
C1071 C 0.81272 0.18847 0.31745 0.0
C1072 C 0.8055 0.14302 0.33067 0.0
C1073 C 0.8625 0.1331 0.39006 0.0
H1074 H 0.85762 0.06653 0.33875 0.0
C1075 C 0.92169 0.05081 0.42692 0.0
C1076 C 0.93709 0.04028 0.40565 0.0
C1077 C 0.90167 0.06653 0.41885 0.0
C1078 C 0.85915 0.08499 0.35338 0.0
H1079 H 0.85194 0.21589 0.34077 0.0
H1080 H 0.86928 0.18232 0.36803 0.0
H1081 H 0.83111 0.09955 0.3217 0.0
H1082 H 0.9432 0.03751 0.35915 0.0
H1083 H 0.90875 0.06523 0.34519 0.0
H1084 H 0.89209 0.11912 0.42095 0.0
C1085 C 0.84833 0.17651 0.35385 0.0
C1086 C 0.8436 0.10379 0.3438 0.0
C1087 C 0.83848 0.19575 0.33807 0.0
C1088 C 0.93157 0.0452 0.37603 0.0
C1089 C 0.91167 0.06098 0.368 0.0
C1090 C 0.87821 0.11431 0.39959 0.0
C1091 C 0.83246 0.14969 0.34951 0.0
C1092 C 0.84561 0.12833 0.36174 0.0
C1093 C 0.89672 0.07204 0.38936 0.0
C1094 C 0.87726 0.09036 0.381 0.0
H1095 H 0.77559 0.15607 0.29931 0.0
H1096 H 0.79243 0.12269 0.32737 0.0
H1097 H 0.86422 0.15168 0.40453 0.0
H1098 H 0.9254 0.04726 0.44993 0.0
H1099 H 0.89024 0.07452 0.43573 0.0
C1100 C 0.66752 0.16934 0.21201 0.0
C1101 C 0.6973 0.18103 0.21311 0.0
C1102 C 0.6558 0.14369 0.19652 0.0
C1103 C 0.66718 0.10365 0.13095 0.0
H1104 H 0.60101 0.05266 0.1492 0.0
C1105 C 0.5694 0.00998 0.06685 0.0
C1106 C 0.55738 0.02403 0.0453 0.0
C1107 C 0.59208 0.02354 0.08917 0.0
C1108 C 0.61985 0.06638 0.14399 0.0
H1109 H 0.73812 0.17486 0.19975 0.0
H1110 H 0.71794 0.12995 0.17295 0.0
H1111 H 0.63101 0.08624 0.18884 0.0
H1112 H 0.56038 0.06283 0.02928 0.0
H1113 H 0.60028 0.08631 0.06777 0.0
H1114 H 0.6549 0.08496 0.0858 0.0
C1115 C 0.70367 0.1405 0.18414 0.0
C1116 C 0.63686 0.08568 0.16658 0.0
C1117 C 0.71533 0.1661 0.19969 0.0
C1118 C 0.56912 0.05155 0.04572 0.0
C1119 C 0.5921 0.06492 0.06757 0.0
C1120 C 0.65003 0.08459 0.10838 0.0
C1121 C 0.67359 0.12937 0.18162 0.0
C1122 C 0.65995 0.10519 0.15999 0.0
C1123 C 0.60349 0.05116 0.08974 0.0
C1124 C 0.62552 0.06655 0.11448 0.0
H1125 H 0.65308 0.18037 0.22223 0.0
H1126 H 0.63246 0.13581 0.19467 0.0
H1127 H 0.68472 0.11847 0.12509 0.0
H1128 H 0.56066 0.98874 0.06701 0.0
H1129 H 0.60049 0.01258 0.10612 0.0
C1130 C 0.68369 0.8116 0.79683 0.0
C1131 C 0.67713 0.78419 0.80053 0.0
C1132 C 0.67174 0.83015 0.81337 0.0
C1133 C 0.63881 0.84417 0.88004 0.0
H1134 H 0.59105 0.8809 0.83054 0.0
C1135 C 0.55982 0.90492 0.92882 0.0
C1136 C 0.55435 0.92721 0.91527 0.0
C1137 C 0.57647 0.88808 0.91621 0.0
C1138 C 0.60473 0.87137 0.8449 0.0
H1139 H 0.65447 0.75502 0.82573 0.0
H1140 H 0.63438 0.78775 0.85541 0.0
H1141 H 0.6193 0.85172 0.80757 0.0
H1142 H 0.56292 0.95001 0.87862 0.0
H1143 H 0.59302 0.92172 0.85753 0.0
H1144 H 0.62504 0.86431 0.9175 0.0
C1145 C 0.64846 0.79471 0.83943 0.0
C1146 C 0.62081 0.8545 0.83161 0.0
C1147 C 0.65991 0.77602 0.82243 0.0
C1148 C 0.5664 0.93273 0.88933 0.0
C1149 C 0.58354 0.91631 0.87711 0.0
C1150 C 0.62319 0.86154 0.89346 0.0
C1151 C 0.65354 0.82176 0.83437 0.0
C1152 C 0.63786 0.84064 0.84901 0.0
C1153 C 0.58853 0.89349 0.89009 0.0
C1154 C 0.60576 0.8753 0.87606 0.0
H1155 H 0.69669 0.81849 0.77997 0.0
H1156 H 0.67605 0.85096 0.80919 0.0
H1157 H 0.65189 0.8337 0.8939 0.0
H1158 H 0.55069 0.90013 0.94879 0.0
H1159 H 0.57933 0.87054 0.92668 0.0
C1160 C 0.90624 0.89378 0.55069 0.0
C1161 C 0.92513 0.91865 0.56133 0.0
C1162 C 0.88775 0.88085 0.56889 0.0
C1163 C 0.85731 0.89016 0.64004 0.0
H1164 H 0.847 0.81243 0.63186 0.0
C1165 C 0.80404 0.81653 0.71931 0.0
C1166 C 0.78042 0.7967 0.70389 0.0
C1167 C 0.82173 0.83381 0.70366 0.0
C1168 C 0.84979 0.83414 0.63437 0.0
H1169 H 0.93902 0.95 0.59897 0.0
H1170 H 0.9075 0.92695 0.6313 0.0
H1171 H 0.87762 0.83802 0.60084 0.0
H1172 H 0.75658 0.7798 0.6601 0.0
H1173 H 0.78786 0.80936 0.6331 0.0
H1174 H 0.8298 0.88582 0.67435 0.0
C1175 C 0.9064 0.91765 0.60867 0.0
C1176 C 0.86704 0.84883 0.61641 0.0
C1177 C 0.92455 0.93083 0.5902 0.0
C1178 C 0.77456 0.79483 0.67271 0.0
C1179 C 0.79246 0.81168 0.65718 0.0
C1180 C 0.84036 0.87539 0.65841 0.0
C1181 C 0.8882 0.89222 0.59842 0.0
C1182 C 0.87061 0.87698 0.61858 0.0
C1183 C 0.8163 0.8311 0.67246 0.0
C1184 C 0.83614 0.84726 0.6553 0.0
H1185 H 0.90596 0.88414 0.52834 0.0
H1186 H 0.87337 0.86172 0.55988 0.0
H1187 H 0.8594 0.91176 0.64219 0.0
H1188 H 0.80899 0.81849 0.74333 0.0
H1189 H 0.84015 0.84869 0.71579 0.0
C1190 C 0.1815 0.82122 0.82315 0.0
C1191 C 0.16279 0.8002 0.80344 0.0
C1192 C 0.16999 0.83849 0.84204 0.0
C1193 C 0.10307 0.84503 0.87503 0.0
H1194 H 0.13555 0.92156 0.88108 0.0
C1195 C 0.04888 0.92442 0.93338 0.0
C1196 C 0.06787 0.9464 0.95142 0.0
C1197 C 0.05997 0.90663 0.91465 0.0
C1198 C 0.12639 0.90025 0.87994 0.0
H1199 H 0.11736 0.78037 0.78884 0.0
H1200 H 0.09743 0.8104 0.82159 0.0
H1201 H 0.15668 0.88991 0.85166 0.0
H1202 H 0.11337 0.96711 0.96352 0.0
H1203 H 0.13253 0.93611 0.93152 0.0
H1204 H 0.07289 0.85534 0.90347 0.0
C1205 C 0.12096 0.81351 0.82263 0.0
C1206 C 0.13857 0.88208 0.86308 0.0
C1207 C 0.13243 0.79635 0.80372 0.0
C1208 C 0.09804 0.95046 0.94988 0.0
C1209 C 0.10908 0.9327 0.93132 0.0
C1210 C 0.09095 0.8632 0.892 0.0
C1211 C 0.13955 0.83503 0.84172 0.0
C1212 C 0.12707 0.85425 0.86041 0.0
C1213 C 0.09026 0.91043 0.91361 0.0
C1214 C 0.10248 0.89106 0.89472 0.0
H1215 H 0.20499 0.82473 0.82353 0.0
H1216 H 0.18493 0.85466 0.85679 0.0
H1217 H 0.09388 0.8237 0.87369 0.0
H1218 H 0.02553 0.92073 0.93402 0.0
H1219 H 0.04478 0.8899 0.90099 0.0
C1220 C 0.93469 0.4674 0.60864 0.0
C1221 C 0.95695 0.46928 0.59063 0.0
C1222 C 0.92793 0.44511 0.62364 0.0
C1223 C 0.94726 0.38554 0.64981 0.0
H1224 H 0.866 0.35295 0.61951 0.0
C1225 C 0.86595 0.30947 0.70202 0.0
C1226 C 0.84535 0.28992 0.6822 0.0
C1227 C 0.88763 0.32727 0.69129 0.0
C1228 C 0.88884 0.36154 0.62782 0.0
H1229 H 0.9916 0.45087 0.57651 0.0
H1230 H 0.97942 0.41147 0.60278 0.0
H1231 H 0.88884 0.39491 0.60328 0.0
H1232 H 0.83348 0.27159 0.63615 0.0
H1233 H 0.87093 0.30303 0.61748 0.0
H1234 H 0.94655 0.35239 0.67542 0.0
C1235 C 0.96736 0.42734 0.60522 0.0
C1236 C 0.90177 0.3857 0.61882 0.0
C1237 C 0.97424 0.44981 0.59019 0.0
C1238 C 0.84879 0.28662 0.65197 0.0
C1239 C 0.87024 0.30458 0.64124 0.0
C1240 C 0.93404 0.36141 0.65933 0.0
C1241 C 0.94325 0.42431 0.62084 0.0
C1242 C 0.93089 0.39811 0.63002 0.0
C1243 C 0.88882 0.32589 0.66061 0.0
C1244 C 0.90464 0.34935 0.64847 0.0
H1245 H 0.92138 0.48239 0.60979 0.0
H1246 H 0.90949 0.4433 0.63595 0.0
H1247 H 0.96983 0.3948 0.65855 0.0
H1248 H 0.86407 0.31225 0.72551 0.0
H1249 H 0.90169 0.34357 0.70665 0.0
C1250 C 0.42108 0.04015 0.42165 0.0
C1251 C 0.44342 0.0468 0.44611 0.0
C1252 C 0.41504 0.05963 0.40402 0.0
C1253 C 0.41655 0.13095 0.40765 0.0
H1254 H 0.39664 0.11362 0.32197 0.0
C1255 C 0.36154 0.19827 0.33222 0.0
C1256 C 0.33743 0.18366 0.31185 0.0
C1257 C 0.38031 0.18478 0.3481 0.0
C1258 C 0.40213 0.11881 0.34587 0.0
H1259 H 0.47733 0.07895 0.47117 0.0
H1260 H 0.46627 0.11348 0.44041 0.0
H1261 H 0.41999 0.08384 0.35039 0.0
H1262 H 0.31429 0.14347 0.29215 0.0
H1263 H 0.34657 0.12028 0.3196 0.0
H1264 H 0.39731 0.1653 0.40319 0.0
C1265 C 0.45371 0.09302 0.43482 0.0
C1266 C 0.41559 0.1018 0.36211 0.0
C1267 C 0.46016 0.07327 0.45223 0.0
C1268 C 0.33262 0.15543 0.30761 0.0
C1269 C 0.35135 0.14207 0.3232 0.0
C1270 C 0.4029 0.14799 0.39135 0.0
C1271 C 0.43089 0.08638 0.41068 0.0
C1272 C 0.42201 0.10716 0.39326 0.0
C1273 C 0.37546 0.1565 0.34358 0.0
C1274 C 0.39456 0.14152 0.36039 0.0
H1275 H 0.40783 0.01991 0.41646 0.0
H1276 H 0.3971 0.05396 0.38581 0.0
H1277 H 0.42114 0.13551 0.43167 0.0
H1278 H 0.36583 0.22005 0.33598 0.0
H1279 H 0.39873 0.19645 0.36367 0.0
C1280 C 0.54967 0.56608 0.01679 0.0
C1281 C 0.53276 0.55072 0.03484 0.0
C1282 C 0.56804 0.59088 0.02872 0.0
C1283 C 0.58375 0.64307 0.09501 0.0
H1284 H 0.66431 0.6527 0.08035 0.0
C1285 C 0.67102 0.72035 0.17261 0.0
C1286 C 0.69585 0.71083 0.18283 0.0
C1287 C 0.65255 0.70743 0.14678 0.0
C1288 C 0.6419 0.65038 0.08466 0.0
H1289 H 0.52142 0.54912 0.07929 0.0
H1290 H 0.55333 0.59215 0.10022 0.0
H1291 H 0.62692 0.61692 0.05026 0.0
H1292 H 0.72185 0.68139 0.17364 0.0
H1293 H 0.68897 0.65783 0.12935 0.0
H1294 H 0.59864 0.67488 0.13074 0.0
C1295 C 0.55216 0.58549 0.07672 0.0
C1296 C 0.62038 0.63007 0.06713 0.0
C1297 C 0.53402 0.56073 0.06483 0.0
C1298 C 0.70293 0.68919 0.16594 0.0
C1299 C 0.68405 0.67579 0.14046 0.0
C1300 C 0.60519 0.66316 0.11261 0.0
C1301 C 0.56973 0.60071 0.05896 0.0
C1302 C 0.59128 0.6255 0.07298 0.0
C1303 C 0.65797 0.68411 0.1312 0.0
C1304 C 0.63477 0.66646 0.10847 0.0
H1305 H 0.54987 0.55827 -0.0061 0.0
H1306 H 0.58135 0.60205 0.01448 0.0
H1307 H 0.56142 0.64043 0.09966 0.0
H1308 H 0.66541 0.7373 0.18515 0.0
H1309 H 0.63324 0.71498 0.13986 0.0
C1310 C 0.15196 0.23227 0.67304 0.0
C1311 C 0.17893 0.22689 0.68432 0.0
C1312 C 0.13582 0.2175 0.64682 0.0
C1313 C 0.13588 0.16122 0.58666 0.0
H1314 H 0.05579 0.13869 0.60115 0.0
C1315 C 0.05646 0.06611 0.52071 0.0
C1316 C 0.03978 0.04977 0.53817 0.0
C1317 C 0.07227 0.09191 0.53268 0.0
C1318 C 0.07809 0.14472 0.59675 0.0
H1319 H 0.21148 0.20363 0.67597 0.0
H1320 H 0.18274 0.17668 0.63128 0.0
H1321 H 0.08701 0.17812 0.63079 0.0
H1322 H 0.02721 0.04732 0.58211 0.0
H1323 H 0.05529 0.09188 0.60328 0.0
H1324 H 0.12724 0.1263 0.55408 0.0
C1325 C 0.17415 0.19273 0.64193 0.0
C1326 C 0.09598 0.16773 0.61343 0.0
C1327 C 0.19063 0.20805 0.66775 0.0
C1328 C 0.03969 0.0595 0.56803 0.0
C1329 C 0.05551 0.0852 0.58002 0.0
C1330 C 0.11798 0.13794 0.57013 0.0
C1331 C 0.14589 0.1964 0.63191 0.0
C1332 C 0.1255 0.17572 0.6095 0.0
C1333 C 0.07185 0.10182 0.56247 0.0
C1334 C 0.08926 0.12883 0.57593 0.0
H1335 H 0.14281 0.24719 0.68515 0.0
H1336 H 0.11468 0.22162 0.63921 0.0
H1337 H 0.15825 0.16711 0.58245 0.0
H1338 H 0.05765 0.0588 0.49791 0.0
H1339 H 0.08469 0.1041 0.51857 0.0
C1340 C 0.69101 0.34584 0.31566 0.0
C1341 C 0.68347 0.31783 0.30757 0.0
C1342 C 0.67453 0.35875 0.3335 0.0
C1343 C 0.61932 0.34859 0.38503 0.0
H1344 H 0.6066 0.41693 0.3625 0.0
C1345 C 0.54885 0.41346 0.44524 0.0
C1346 C 0.5633 0.44052 0.45358 0.0
C1347 C 0.56035 0.39641 0.42593 0.0
C1348 C 0.60995 0.39788 0.36909 0.0
H1349 H 0.65333 0.28121 0.31294 0.0
H1350 H 0.62417 0.3039 0.34396 0.0
H1351 H 0.63347 0.39088 0.33292 0.0
H1352 H 0.60049 0.4711 0.44752 0.0
H1353 H 0.62008 0.44172 0.41381 0.0
H1354 H 0.59572 0.35595 0.42143 0.0
C1355 C 0.64303 0.31584 0.3366 0.0
C1356 C 0.62552 0.38299 0.35225 0.0
C1357 C 0.65972 0.30284 0.31881 0.0
C1358 C 0.58884 0.45035 0.4416 0.0
C1359 C 0.60002 0.43353 0.42213 0.0
C1360 C 0.60353 0.36351 0.40188 0.0
C1361 C 0.64986 0.34405 0.34356 0.0
C1362 C 0.6311 0.3585 0.3604 0.0
C1363 C 0.58612 0.40632 0.41425 0.0
C1364 C 0.59932 0.38864 0.39446 0.0
H1365 H 0.70941 0.35796 0.30774 0.0
H1366 H 0.68099 0.38041 0.33913 0.0
H1367 H 0.62322 0.32982 0.39196 0.0
H1368 H 0.52921 0.4053 0.45427 0.0
H1369 H 0.54912 0.37553 0.42012 0.0
C1370 C 0.41671 0.9141 0.03729 0.0
C1371 C 0.44211 0.93453 0.04152 0.0
C1372 C 0.41367 0.8942 0.0561 0.0
C1373 C 0.43537 0.8861 0.13265 0.0
H1374 H 0.38898 0.81418 0.10611 0.0
C1375 C 0.34357 0.8364 0.19027 0.0
C1376 C 0.33448 0.80826 0.18692 0.0
C1377 C 0.36818 0.84841 0.17851 0.0
C1378 C 0.40264 0.83387 0.11415 0.0
H1379 H 0.48496 0.9494 0.06786 0.0
H1380 H 0.47936 0.91471 0.10107 0.0
H1381 H 0.41132 0.84058 0.07026 0.0
H1382 H 0.34575 0.77059 0.17142 0.0
H1383 H 0.38877 0.79166 0.15068 0.0
H1384 H 0.4254 0.87989 0.1763 0.0
C1385 C 0.46184 0.91417 0.08317 0.0
C1386 C 0.41517 0.84911 0.09349 0.0
C1387 C 0.46499 0.93399 0.06416 0.0
C1388 C 0.35197 0.79236 0.17393 0.0
C1389 C 0.3766 0.80439 0.16206 0.0
C1390 C 0.42284 0.87084 0.15335 0.0
C1391 C 0.43591 0.89437 0.07966 0.0
C1392 C 0.43018 0.87589 0.10226 0.0
C1393 C 0.38421 0.83252 0.1631 0.0
C1394 C 0.40491 0.84517 0.14397 0.0
H1395 H 0.39879 0.91387 0.01994 0.0
H1396 H 0.39323 0.87945 0.05308 0.0
H1397 H 0.44695 0.90667 0.14011 0.0
H1398 H 0.33081 0.84922 0.20058 0.0
H1399 H 0.37324 0.87012 0.17954 0.0
C1400 C 0.96666 0.58147 0.91174 0.0
C1401 C 0.95495 0.57781 0.93829 0.0
C1402 C 0.95716 0.59913 0.89308 0.0
C1403 C 0.92321 0.65729 0.88973 0.0
H1404 H 0.88305 0.62245 0.81231 0.0
C1405 C 0.84045 0.70383 0.81909 0.0
C1406 C 0.83512 0.69648 0.78816 0.0
C1407 C 0.86005 0.6926 0.83685 0.0
C1408 C 0.89477 0.6329 0.83345 0.0
H1409 H 0.92544 0.5906 0.96696 0.0
H1410 H 0.90978 0.62214 0.93498 0.0
H1411 H 0.90984 0.5977 0.84434 0.0
H1412 H 0.84758 0.6734 0.7512 0.0
H1413 H 0.88295 0.65517 0.78167 0.0
H1414 H 0.90857 0.69262 0.87897 0.0
C1415 C 0.92593 0.61117 0.9284 0.0
C1416 C 0.91004 0.61855 0.85186 0.0
C1417 C 0.9348 0.59306 0.94659 0.0
C1418 C 0.85105 0.67913 0.77509 0.0
C1419 C 0.87112 0.66845 0.79268 0.0
C1420 C 0.90846 0.6719 0.87106 0.0
C1421 C 0.93649 0.61391 0.90117 0.0
C1422 C 0.92389 0.63042 0.88037 0.0
C1423 C 0.87519 0.67423 0.82392 0.0
C1424 C 0.89347 0.65975 0.84285 0.0
H1425 H 0.98203 0.56976 0.90474 0.0
H1426 H 0.96554 0.60089 0.87211 0.0
H1427 H 0.93383 0.66688 0.91165 0.0
H1428 H 0.82825 0.71702 0.82971 0.0
H1429 H 0.86218 0.69741 0.86076 0.0
C1430 C 0.45199 0.3899 0.08428 0.0
C1431 C 0.44725 0.41314 0.07234 0.0
C1432 C 0.43453 0.37885 0.10438 0.0
C1433 C 0.38328 0.3949 0.15586 0.0
H1434 H 0.36586 0.31738 0.15481 0.0
C1435 C 0.29893 0.32746 0.21707 0.0
C1436 C 0.31122 0.30956 0.23351 0.0
C1437 C 0.3159 0.34407 0.20031 0.0
C1438 C 0.37073 0.33907 0.15538 0.0
H1439 H 0.42015 0.44279 0.07155 0.0
H1440 H 0.38882 0.42288 0.10596 0.0
H1441 H 0.39271 0.33712 0.11727 0.0
H1442 H 0.35159 0.29686 0.24728 0.0
H1443 H 0.38081 0.32538 0.21741 0.0
H1444 H 0.36005 0.39632 0.1936 0.0
C1445 C 0.40657 0.41361 0.10041 0.0
C1446 C 0.38621 0.35043 0.13401 0.0
C1447 C 0.42437 0.42491 0.08055 0.0
C1448 C 0.34133 0.31022 0.23473 0.0
C1449 C 0.3581 0.32648 0.21763 0.0
C1450 C 0.36725 0.3834 0.17699 0.0
C1451 C 0.41154 0.39049 0.11268 0.0
C1452 C 0.39319 0.37852 0.13427 0.0
C1453 C 0.34525 0.34279 0.19955 0.0
C1454 C 0.36137 0.35545 0.17714 0.0
H1455 H 0.46965 0.38052 0.07863 0.0
H1456 H 0.43948 0.36142 0.11384 0.0
H1457 H 0.38849 0.4166 0.15692 0.0
H1458 H 0.27587 0.32762 0.21587 0.0
H1459 H 0.30563 0.35655 0.18644 0.0
C1460 C 0.41737 0.57382 0.94022 0.0
C1461 C 0.41257 0.54825 0.92352 0.0
C1462 C 0.39931 0.59164 0.93334 0.0
C1463 C 0.32842 0.59589 0.89085 0.0
H1464 H 0.3695 0.66747 0.88142 0.0
C1465 C 0.28303 0.66102 0.80959 0.0
C1466 C 0.29058 0.6892 0.81617 0.0
C1467 C 0.29379 0.6448 0.82911 0.0
C1468 C 0.35751 0.6478 0.88455 0.0
H1469 H 0.38435 0.52093 0.88735 0.0
H1470 H 0.35306 0.552 0.87526 0.0
H1471 H 0.39637 0.63699 0.90418 0.0
H1472 H 0.31362 0.72239 0.84946 0.0
H1473 H 0.33219 0.694 0.88367 0.0
H1474 H 0.28972 0.60644 0.87026 0.0
C1475 C 0.37059 0.55824 0.89382 0.0
C1476 C 0.37297 0.6303 0.89759 0.0
C1477 C 0.38869 0.5405 0.9006 0.0
C1478 C 0.30756 0.70075 0.84361 0.0
C1479 C 0.31836 0.6845 0.86314 0.0
C1480 C 0.31294 0.61342 0.87786 0.0
C1481 C 0.376 0.58418 0.90975 0.0
C1482 C 0.35875 0.6039 0.90011 0.0
C1483 C 0.3123 0.65638 0.85569 0.0
C1484 C 0.32748 0.63932 0.87379 0.0
H1485 H 0.43555 0.58038 0.95808 0.0
H1486 H 0.40386 0.61141 0.94618 0.0
H1487 H 0.31677 0.57581 0.89298 0.0
H1488 H 0.26987 0.65146 0.78872 0.0
H1489 H 0.28887 0.62324 0.82252 0.0
C1490 C 0.04008 0.54895 0.55483 0.0
C1491 C 0.0527 0.53204 0.53672 0.0
C1492 C 0.05542 0.56258 0.58189 0.0
C1493 C 0.12405 0.5691 0.6358 0.0
H1494 H 0.11117 0.64113 0.6544 0.0
C1495 C 0.20435 0.66414 0.70138 0.0
C1496 C 0.1919 0.68145 0.71943 0.0
C1497 C 0.1872 0.63977 0.68655 0.0
C1498 C 0.11466 0.62087 0.64985 0.0
H1499 H 0.09179 0.51646 0.5325 0.0
H1500 H 0.11949 0.54163 0.57881 0.0
H1501 H 0.08136 0.61178 0.61231 0.0
H1502 H 0.15316 0.68497 0.73965 0.0
H1503 H 0.12329 0.64276 0.71335 0.0
H1504 H 0.15921 0.57966 0.6725 0.0
C1505 C 0.09708 0.54342 0.57291 0.0
C1506 C 0.09744 0.60389 0.6257 0.0
C1507 C 0.0813 0.52918 0.54614 0.0
C1508 C 0.16323 0.67238 0.72537 0.0
C1509 C 0.1461 0.64818 0.71041 0.0
C1510 C 0.1418 0.58646 0.65974 0.0
C1511 C 0.08443 0.56055 0.59105 0.0
C1512 C 0.10192 0.57778 0.61814 0.0
C1513 C 0.15745 0.6325 0.68957 0.0
C1514 C 0.13724 0.61253 0.66683 0.0
H1515 H 0.01847 0.55207 0.54779 0.0
H1516 H 0.04457 0.57508 0.59535 0.0
H1517 H 0.12792 0.54903 0.63099 0.0
H1518 H 0.22653 0.67036 0.69675 0.0
H1519 H 0.19645 0.62796 0.67062 0.0
C1520 C 0.29589 0.30532 0.64582 0.0
C1521 C 0.30501 0.31177 0.67668 0.0
C1522 C 0.30845 0.3217 0.62591 0.0
C1523 C 0.35308 0.38992 0.62258 0.0
H1524 H 0.3756 0.35581 0.55166 0.0
C1525 C 0.44309 0.44389 0.56244 0.0
C1526 C 0.43869 0.44126 0.53116 0.0
C1527 C 0.42333 0.42861 0.57777 0.0
C1528 C 0.36906 0.36565 0.57113 0.0
H1529 H 0.33422 0.34071 0.71075 0.0
H1530 H 0.35628 0.36886 0.67625 0.0
H1531 H 0.34704 0.32825 0.5831 0.0
H1532 H 0.40997 0.42028 0.49145 0.0
H1533 H 0.37543 0.39313 0.51846 0.0
H1534 H 0.37591 0.42719 0.61115 0.0
C1535 C 0.33911 0.35146 0.66732 0.0
C1536 C 0.35265 0.34987 0.58915 0.0
C1537 C 0.32656 0.33516 0.68716 0.0
C1538 C 0.41399 0.4228 0.51555 0.0
C1539 C 0.39428 0.40721 0.53098 0.0
C1540 C 0.36958 0.40562 0.6047 0.0
C1541 C 0.33038 0.34489 0.63642 0.0
C1542 C 0.34503 0.36177 0.61548 0.0
C1543 C 0.39871 0.41008 0.56228 0.0
C1544 C 0.37831 0.39362 0.57915 0.0
H1545 H 0.27927 0.28747 0.637 0.0
H1546 H 0.30098 0.31618 0.60229 0.0
H1547 H 0.34701 0.39986 0.64227 0.0
H1548 H 0.46186 0.45785 0.57526 0.0
H1549 H 0.42763 0.431 0.60186 0.0
C1550 C 0.22588 0.66128 0.14936 0.0
C1551 C 0.22706 0.66946 0.17984 0.0
C1552 C 0.21475 0.63443 0.13754 0.0
C1553 C 0.159 0.58012 0.15249 0.0
H1554 H 0.17358 0.54783 0.07664 0.0
C1555 C 0.06598 0.51036 0.07328 0.0
C1556 C 0.06234 0.52011 0.04565 0.0
C1557 C 0.09241 0.51863 0.0924 0.0
C1558 C 0.16942 0.55634 0.09803 0.0
H1559 H 0.22014 0.65563 0.22234 0.0
H1560 H 0.20091 0.60869 0.20172 0.0
H1561 H 0.21236 0.58156 0.10799 0.0
H1562 H 0.08406 0.54488 0.01564 0.0
H1563 H 0.12993 0.55985 0.04927 0.0
H1564 H 0.11558 0.55642 0.14179 0.0
C1565 C 0.20811 0.62308 0.18687 0.0
C1566 C 0.19157 0.57562 0.11595 0.0
C1567 C 0.21906 0.64998 0.19866 0.0
C1568 C 0.08609 0.53724 0.0369 0.0
C1569 C 0.11253 0.54549 0.05601 0.0
C1570 C 0.13696 0.56081 0.13468 0.0
C1571 C 0.20468 0.61523 0.15602 0.0
C1572 C 0.18589 0.58897 0.1424 0.0
C1573 C 0.11572 0.53679 0.08424 0.0
C1574 C 0.14138 0.55005 0.10644 0.0
H1575 H 0.23219 0.67581 0.13436 0.0
H1576 H 0.21212 0.62921 0.11363 0.0
H1577 H 0.15377 0.58999 0.17269 0.0
H1578 H 0.04821 0.49675 0.08047 0.0
H1579 H 0.09432 0.51151 0.11395 0.0
C1580 C 0.71581 0.34192 0.69075 0.0
C1581 C 0.70294 0.31916 0.70312 0.0
C1582 C 0.69861 0.35872 0.67893 0.0
C1583 C 0.62344 0.35681 0.64599 0.0
H1584 H 0.64753 0.43468 0.6568 0.0
C1585 C 0.54795 0.42059 0.59666 0.0
C1586 C 0.56068 0.44173 0.58189 0.0
C1587 C 0.56541 0.40801 0.61492 0.0
C1588 C 0.64064 0.41295 0.6534 0.0
H1589 H 0.66211 0.29667 0.71368 0.0
H1590 H 0.63218 0.32601 0.6931 0.0
H1591 H 0.67805 0.408 0.68229 0.0
H1592 H 0.60159 0.46713 0.57562 0.0
H1593 H 0.63233 0.44467 0.60713 0.0
H1594 H 0.58652 0.36146 0.61665 0.0
C1595 C 0.6555 0.33069 0.69226 0.0
C1596 C 0.65807 0.3977 0.66801 0.0
C1597 C 0.67268 0.31396 0.70417 0.0
C1598 C 0.59121 0.45092 0.58683 0.0
C1599 C 0.60878 0.43808 0.60492 0.0
C1600 C 0.60614 0.37198 0.63132 0.0
C1601 C 0.66822 0.35302 0.67915 0.0
C1602 C 0.6496 0.36947 0.66444 0.0
C1603 C 0.59605 0.41602 0.61854 0.0
C1604 C 0.61447 0.40023 0.63486 0.0
H1605 H 0.73908 0.3465 0.68968 0.0
H1606 H 0.70898 0.37566 0.66875 0.0
H1607 H 0.61664 0.33507 0.64231 0.0
H1608 H 0.52443 0.41332 0.59361 0.0
H1609 H 0.55486 0.39156 0.6257 0.0
C1610 C 0.81149 0.64816 0.17609 0.0
C1611 C 0.79688 0.66152 0.15561 0.0
C1612 C 0.82715 0.62932 0.16628 0.0
C1613 C 0.84075 0.58878 0.09914 0.0
H1614 H 0.9197 0.60161 0.14147 0.0
C1615 C 0.92692 0.53547 0.05563 0.0
C1616 C 0.95388 0.55276 0.05451 0.0
C1617 C 0.9066 0.54412 0.07212 0.0
C1618 C 0.8977 0.59772 0.12947 0.0
H1619 H 0.78561 0.66425 0.10868 0.0
H1620 H 0.81321 0.63164 0.09159 0.0
H1621 H 0.88421 0.62457 0.1613 0.0
H1622 H 0.98126 0.59216 0.07094 0.0
H1623 H 0.94577 0.60732 0.09929 0.0
H1624 H 0.85479 0.56314 0.06639 0.0
C1625 C 0.81242 0.63556 0.11522 0.0
C1626 C 0.87724 0.61061 0.14101 0.0
C1627 C 0.79673 0.6544 0.12503 0.0
C1628 C 0.96069 0.57834 0.07134 0.0
C1629 C 0.94038 0.58699 0.08776 0.0
C1630 C 0.86125 0.57591 0.08756 0.0
C1631 C 0.8285 0.62341 0.1358 0.0
C1632 C 0.84874 0.60678 0.12561 0.0
C1633 C 0.91286 0.57019 0.08781 0.0
C1634 C 0.89015 0.58078 0.10223 0.0
H1635 H 0.81181 0.65301 0.19981 0.0
H1636 H 0.83893 0.61995 0.18262 0.0
H1637 H 0.81886 0.5852 0.08695 0.0
H1638 H 0.92108 0.51557 0.04301 0.0
H1639 H 0.88573 0.5306 0.07208 0.0
C1640 C 0.92669 0.58796 0.552 0.0
C1641 C 0.9453 0.57822 0.57269 0.0
C1642 C 0.90774 0.60381 0.56173 0.0
C1643 C 0.89804 0.64782 0.6269 0.0
H1644 H 0.81667 0.63467 0.59108 0.0
C1645 C 0.79137 0.67989 0.6657 0.0
C1646 C 0.80261 0.70777 0.6727 0.0
C1647 C 0.80563 0.66402 0.64815 0.0
C1648 C 0.83936 0.6385 0.60115 0.0
H1649 H 0.95855 0.57754 0.61979 0.0
H1650 H 0.92564 0.60502 0.6366 0.0
H1651 H 0.84909 0.60695 0.57174 0.0
H1652 H 0.8356 0.74122 0.66431 0.0
H1653 H 0.86041 0.71353 0.63397 0.0
H1654 H 0.88847 0.6791 0.65639 0.0
C1655 C 0.92589 0.60069 0.6129 0.0
C1656 C 0.85792 0.62283 0.59004 0.0
C1657 C 0.94478 0.58493 0.60323 0.0
C1658 C 0.82668 0.71975 0.6597 0.0
C1659 C 0.8409 0.70394 0.64235 0.0
C1660 C 0.87969 0.66357 0.6377 0.0
C1661 C 0.90713 0.61027 0.5923 0.0
C1662 C 0.88741 0.62726 0.60299 0.0
C1663 C 0.83127 0.67586 0.63749 0.0
C1664 C 0.85022 0.6591 0.62497 0.0
H1665 H 0.92649 0.58307 0.52831 0.0
H1666 H 0.89372 0.61117 0.54537 0.0
H1667 H 0.92067 0.65185 0.63721 0.0
H1668 H 0.77284 0.67009 0.6754 0.0
H1669 H 0.79783 0.64236 0.6447 0.0
C1670 C 0.44573 0.56166 0.40213 0.0
C1671 C 0.43227 0.53908 0.41432 0.0
C1672 C 0.42915 0.57473 0.38357 0.0
C1673 C 0.35651 0.56908 0.3391 0.0
H1674 H 0.37735 0.64701 0.35547 0.0
C1675 C 0.28177 0.63908 0.29807 0.0
C1676 C 0.29532 0.66271 0.28766 0.0
C1677 C 0.29858 0.62247 0.3109 0.0
C1678 C 0.37149 0.62529 0.35035 0.0
H1679 H 0.39111 0.51168 0.41572 0.0
H1680 H 0.3618 0.53497 0.38367 0.0
H1681 H 0.40625 0.62036 0.38236 0.0
H1682 H 0.33704 0.68711 0.28185 0.0
H1683 H 0.36636 0.6581 0.30432 0.0
H1684 H 0.32121 0.57428 0.30748 0.0
C1685 C 0.38529 0.54235 0.38816 0.0
C1686 C 0.38807 0.60998 0.36571 0.0
C1687 C 0.40202 0.52904 0.40656 0.0
C1688 C 0.32596 0.6691 0.28977 0.0
C1689 C 0.34275 0.65257 0.30274 0.0
C1690 C 0.33977 0.58447 0.32379 0.0
C1691 C 0.39863 0.56573 0.37706 0.0
C1692 C 0.38087 0.5817 0.36023 0.0
C1693 C 0.32924 0.62924 0.31371 0.0
C1694 C 0.34716 0.61273 0.32926 0.0
H1695 H 0.4691 0.5696 0.40735 0.0
H1696 H 0.44022 0.59223 0.37476 0.0
H1697 H 0.35055 0.54736 0.33419 0.0
H1698 H 0.25819 0.63356 0.29666 0.0
H1699 H 0.2876 0.60474 0.3194 0.0
C1700 C 0.19883 0.34976 0.84635 0.0
C1701 C 0.1857 0.3304 0.8219 0.0
C1702 C 0.18375 0.36875 0.85723 0.0
C1703 C 0.11623 0.39597 0.84042 0.0
H1704 H 0.12194 0.4071 0.92643 0.0
C1705 C 0.02501 0.42022 0.90552 0.0
C1706 C 0.03324 0.43929 0.93111 0.0
C1707 C 0.04622 0.41286 0.88941 0.0
C1708 C 0.12047 0.40457 0.90239 0.0
H1709 H 0.14697 0.31646 0.7889 0.0
H1710 H 0.12039 0.34869 0.80839 0.0
H1711 H 0.15506 0.38324 0.90352 0.0
H1712 H 0.06997 0.46651 0.95916 0.0
H1713 H 0.107 0.4532 0.93124 0.0
H1714 H 0.08021 0.4159 0.83961 0.0
C1715 C 0.14255 0.34983 0.81886 0.0
C1716 C 0.13955 0.39098 0.8892 0.0
C1717 C 0.15775 0.33114 0.80777 0.0
C1718 C 0.06293 0.45178 0.93949 0.0
C1719 C 0.08415 0.44411 0.92364 0.0
C1720 C 0.09684 0.4092 0.85366 0.0
C1721 C 0.15508 0.36853 0.84411 0.0
C1722 C 0.13731 0.38602 0.85802 0.0
C1723 C 0.07602 0.42418 0.89887 0.0
C1724 C 0.09852 0.4132 0.88473 0.0
H1725 H 0.22048 0.34986 0.85753 0.0
H1726 H 0.19433 0.38321 0.87633 0.0
H1727 H 0.11426 0.39303 0.81637 0.0
H1728 H 0.00229 0.41033 0.89852 0.0
H1729 H 0.03944 0.39727 0.8705 0.0
C1730 C 0.18442 0.30575 0.31726 0.0
C1731 C 0.17523 0.27787 0.3086 0.0
C1732 C 0.16869 0.31942 0.3354 0.0
C1733 C 0.09405 0.31186 0.35588 0.0
H1734 H 0.12891 0.3777 0.40862 0.0
C1735 C 0.05891 0.39995 0.43868 0.0
C1736 C 0.03418 0.40351 0.42025 0.0
C1737 C 0.07601 0.38242 0.42854 0.0
C1738 C 0.11878 0.35913 0.39434 0.0
H1739 H 0.14383 0.24211 0.314 0.0
H1740 H 0.11706 0.26572 0.34653 0.0
H1741 H 0.16033 0.35102 0.38674 0.0
H1742 H 0.00764 0.39084 0.37699 0.0
H1743 H 0.0376 0.36077 0.35918 0.0
H1744 H 0.05255 0.31967 0.36385 0.0
C1745 C 0.1357 0.27728 0.33845 0.0
C1746 C 0.13684 0.34399 0.38144 0.0
C1747 C 0.15118 0.26368 0.31998 0.0
C1748 C 0.02645 0.38852 0.39183 0.0
C1749 C 0.04361 0.37112 0.38166 0.0
C1750 C 0.07603 0.32684 0.36896 0.0
C1751 C 0.14365 0.30545 0.3456 0.0
C1752 C 0.12471 0.32037 0.36164 0.0
C1753 C 0.06884 0.3681 0.39971 0.0
C1754 C 0.08812 0.35094 0.38793 0.0
H1755 H 0.20282 0.31725 0.30875 0.0
H1756 H 0.17537 0.34112 0.34014 0.0
H1757 H 0.08379 0.29403 0.34046 0.0
H1758 H 0.06544 0.41113 0.46074 0.0
H1759 H 0.095 0.38028 0.44324 0.0
loop_
_geom_bond_atom_site_label_1
_geom_bond_atom_site_label_2
_geom_bond_distance
_geom_bond_site_symmetry_2
_ccdc_geom_bond_type
Zn0 O6 1.969 . S
Zn0 O7 1.965 1_655 S
Zn0 O11 2.024 1_556 S
Zn0 O16 1.969 1_546 S
Zn1 O8 1.969 1_564 S
Zn1 O14 1.969 . S
Zn1 O15 1.965 1_455 S
Zn1 O17 2.024 1_554 S
C2 O3 1.229 . S
C2 O11 1.058 . S
O3 C2 1.229 . S
C4 O5 1.229 . S
C4 O17 1.058 . S
O5 C4 1.229 . S
O6 Zn0 1.969 . S
O6 C9 1.267 . S
O7 Zn0 1.965 1_455 S
O7 C18 1.260 . S
O8 Zn1 1.969 1_546 S
O8 C18 1.258 . S
C9 O6 1.267 . S
C9 O10 1.228 . S
O10 C9 1.228 . S
O11 Zn0 2.024 1_554 S
O11 C2 1.058 . S
C12 O13 1.228 . S
C12 O14 1.267 . S
O13 C12 1.228 . S
O14 Zn1 1.969 . S
O14 C12 1.267 . S
O15 Zn1 1.965 1_655 S
O15 C19 1.260 . S
O16 Zn0 1.969 1_564 S
O16 C19 1.258 . S
O17 Zn1 2.024 1_556 S
O17 C4 1.058 . S
C18 O7 1.260 . S
C18 O8 1.258 . S
C19 O15 1.260 . S
C19 O16 1.258 . S
Zn20 O26 1.969 . S
Zn20 O27 1.965 . S
Zn20 O31 2.024 . S
Zn20 O36 1.969 . S
Zn21 O28 1.969 . S
Zn21 O34 1.969 . S
Zn21 O35 1.965 . S
Zn21 O37 2.024 . S
C22 O23 1.229 . S
C22 O31 1.058 . S
O23 C22 1.229 . S
C24 O25 1.229 . S
C24 O37 1.058 . S
O25 C24 1.229 . S
O26 Zn20 1.969 . S
O26 C29 1.267 . S
O27 Zn20 1.965 . S
O27 C38 1.260 . S
O28 Zn21 1.969 . S
O28 C38 1.258 . S
C29 O26 1.267 . S
C29 O30 1.228 . S
O30 C29 1.228 . S
O31 Zn20 2.024 . S
O31 C22 1.058 . S
C32 O33 1.228 . S
C32 O34 1.267 . S
O33 C32 1.228 . S
O34 Zn21 1.969 . S
O34 C32 1.267 . S
O35 Zn21 1.965 . S
O35 C39 1.260 . S
O36 Zn20 1.969 . S
O36 C39 1.258 . S
O37 Zn21 2.024 . S
O37 C24 1.058 . S
C38 O27 1.260 . S
C38 O28 1.258 . S
C39 O35 1.260 . S
C39 O36 1.258 . S
Zn40 O46 1.969 . S
Zn40 O47 1.965 . S
Zn40 O51 2.024 . S
Zn40 O56 1.969 1_565 S
Zn41 O48 1.969 1_545 S
Zn41 O54 1.969 . S
Zn41 O55 1.965 . S
Zn41 O57 2.024 . S
C42 O43 1.229 . S
C42 O51 1.058 . S
O43 C42 1.229 . S
C44 O45 1.229 . S
C44 O57 1.058 . S
O45 C44 1.229 . S
O46 Zn40 1.969 . S
O46 C49 1.267 . S
O47 Zn40 1.965 . S
O47 C58 1.260 . S
O48 Zn41 1.969 1_565 S
O48 C58 1.258 . S
C49 O46 1.267 . S
C49 O50 1.228 . S
O50 C49 1.228 . S
O51 Zn40 2.024 . S
O51 C42 1.058 . S
C52 O53 1.228 . S
C52 O54 1.267 . S
O53 C52 1.228 . S
O54 Zn41 1.969 . S
O54 C52 1.267 . S
O55 Zn41 1.965 . S
O55 C59 1.260 . S
O56 Zn40 1.969 1_545 S
O56 C59 1.258 . S
O57 Zn41 2.024 . S
O57 C44 1.058 . S
C58 O47 1.260 . S
C58 O48 1.258 . S
C59 O55 1.260 . S
C59 O56 1.258 . S
Zn60 O66 1.969 . S
Zn60 O67 1.965 . S
Zn60 O71 2.024 . S
Zn60 O76 1.969 . S
Zn61 O68 1.969 . S
Zn61 O74 1.969 . S
Zn61 O75 1.965 . S
Zn61 O77 2.024 . S
C62 O63 1.229 . S
C62 O71 1.058 . S
O63 C62 1.229 . S
C64 O65 1.229 . S
C64 O77 1.058 . S
O65 C64 1.229 . S
O66 Zn60 1.969 . S
O66 C69 1.267 . S
O67 Zn60 1.965 . S
O67 C78 1.260 . S
O68 Zn61 1.969 . S
O68 C78 1.258 . S
C69 O66 1.267 . S
C69 O70 1.228 . S
O70 C69 1.228 . S
O71 Zn60 2.024 . S
O71 C62 1.058 . S
C72 O73 1.228 . S
C72 O74 1.267 . S
O73 C72 1.228 . S
O74 Zn61 1.969 . S
O74 C72 1.267 . S
O75 Zn61 1.965 . S
O75 C79 1.260 . S
O76 Zn60 1.969 . S
O76 C79 1.258 . S
O77 Zn61 2.024 . S
O77 C64 1.058 . S
C78 O67 1.260 . S
C78 O68 1.258 . S
C79 O75 1.260 . S
C79 O76 1.258 . S
Zn80 O86 1.969 . S
Zn80 O87 1.965 . S
Zn80 O91 2.024 1_455 S
Zn80 O96 1.969 1_445 S
Zn81 O88 1.969 1_665 S
Zn81 O94 1.969 . S
Zn81 O95 1.965 . S
Zn81 O97 2.024 1_655 S
C82 O83 1.229 . S
C82 O91 1.058 . S
O83 C82 1.229 . S
C84 O85 1.229 . S
C84 O97 1.058 . S
O85 C84 1.229 . S
O86 Zn80 1.969 . S
O86 C89 1.267 . S
O87 Zn80 1.965 . S
O87 C98 1.260 . S
O88 Zn81 1.969 1_445 S
O88 C98 1.258 . S
C89 O86 1.267 . S
C89 O90 1.228 . S
O90 C89 1.228 . S
O91 Zn80 2.024 1_655 S
O91 C82 1.058 . S
C92 O93 1.228 . S
C92 O94 1.267 . S
O93 C92 1.228 . S
O94 Zn81 1.969 . S
O94 C92 1.267 . S
O95 Zn81 1.965 . S
O95 C99 1.260 . S
O96 Zn80 1.969 1_665 S
O96 C99 1.258 . S
O97 Zn81 2.024 1_455 S
O97 C84 1.058 . S
C98 O87 1.260 . S
C98 O88 1.258 . S
C99 O95 1.260 . S
C99 O96 1.258 . S
Zn100 O106 1.969 . S
Zn100 O107 1.965 . S
Zn100 O111 2.024 . S
Zn100 O116 1.969 . S
Zn101 O108 1.969 . S
Zn101 O114 1.969 . S
Zn101 O115 1.965 . S
Zn101 O117 2.024 . S
C102 O103 1.229 . S
C102 O111 1.058 . S
O103 C102 1.229 . S
C104 O105 1.229 . S
C104 O117 1.058 . S
O105 C104 1.229 . S
O106 Zn100 1.969 . S
O106 C109 1.267 . S
O107 Zn100 1.965 . S
O107 C118 1.260 . S
O108 Zn101 1.969 . S
O108 C118 1.258 . S
C109 O106 1.267 . S
C109 O110 1.228 . S
O110 C109 1.228 . S
O111 Zn100 2.024 . S
O111 C102 1.058 . S
C112 O113 1.228 . S
C112 O114 1.267 . S
O113 C112 1.228 . S
O114 Zn101 1.969 . S
O114 C112 1.267 . S
O115 Zn101 1.965 . S
O115 C119 1.260 . S
O116 Zn100 1.969 . S
O116 C119 1.258 . S
O117 Zn101 2.024 . S
O117 C104 1.058 . S
C118 O107 1.260 . S
C118 O108 1.258 . S
C119 O115 1.260 . S
C119 O116 1.258 . S
Zn120 O126 1.969 . S
Zn120 O127 1.965 . S
Zn120 O131 2.024 1_545 S
Zn120 O136 1.969 1_544 S
Zn121 O128 1.969 1_566 S
Zn121 O134 1.969 . S
Zn121 O135 1.965 . S
Zn121 O137 2.024 1_565 S
C122 O123 1.229 . S
C122 O131 1.058 . S
O123 C122 1.229 . S
C124 O125 1.229 . S
C124 O137 1.058 . S
O125 C124 1.229 . S
O126 Zn120 1.969 . S
O126 C129 1.267 . S
O127 Zn120 1.965 . S
O127 C138 1.260 . S
O128 Zn121 1.969 1_544 S
O128 C138 1.258 . S
C129 O126 1.267 . S
C129 O130 1.228 . S
O130 C129 1.228 . S
O131 Zn120 2.024 1_565 S
O131 C122 1.058 . S
C132 O133 1.228 . S
C132 O134 1.267 . S
O133 C132 1.228 . S
O134 Zn121 1.969 . S
O134 C132 1.267 . S
O135 Zn121 1.965 . S
O135 C139 1.260 . S
O136 Zn120 1.969 1_566 S
O136 C139 1.258 . S
O137 Zn121 2.024 1_545 S
O137 C124 1.058 . S
C138 O127 1.260 . S
C138 O128 1.258 . S
C139 O135 1.260 . S
C139 O136 1.258 . S
Zn140 O146 1.969 . S
Zn140 O147 1.965 . S
Zn140 O151 2.024 . S
Zn140 O156 1.969 . S
Zn141 O148 1.969 . S
Zn141 O154 1.969 . S
Zn141 O155 1.965 . S
Zn141 O157 2.024 . S
C142 O143 1.229 . S
C142 O151 1.058 . S
O143 C142 1.229 . S
C144 O145 1.229 . S
C144 O157 1.058 . S
O145 C144 1.229 . S
O146 Zn140 1.969 . S
O146 C149 1.267 . S
O147 Zn140 1.965 . S
O147 C158 1.260 . S
O148 Zn141 1.969 . S
O148 C158 1.258 . S
C149 O146 1.267 . S
C149 O150 1.228 . S
O150 C149 1.228 . S
O151 Zn140 2.024 . S
O151 C142 1.058 . S
C152 O153 1.228 . S
C152 O154 1.267 . S
O153 C152 1.228 . S
O154 Zn141 1.969 . S
O154 C152 1.267 . S
O155 Zn141 1.965 . S
O155 C159 1.260 . S
O156 Zn140 1.969 . S
O156 C159 1.258 . S
O157 Zn141 2.024 . S
O157 C144 1.058 . S
C158 O147 1.260 . S
C158 O148 1.258 . S
C159 O155 1.260 . S
C159 O156 1.258 . S
Zn160 O166 1.969 . S
Zn160 O167 1.965 1_556 S
Zn160 O171 2.024 . S
Zn160 O176 1.969 . S
Zn161 O168 1.969 . S
Zn161 O174 1.969 . S
Zn161 O175 1.965 1_554 S
Zn161 O177 2.024 . S
C162 O163 1.229 . S
C162 O171 1.058 . S
O163 C162 1.229 . S
C164 O165 1.229 . S
C164 O177 1.058 . S
O165 C164 1.229 . S
O166 Zn160 1.969 . S
O166 C169 1.267 . S
O167 Zn160 1.965 1_554 S
O167 C178 1.260 . S
O168 Zn161 1.969 . S
O168 C178 1.258 . S
C169 O166 1.267 . S
C169 O170 1.228 . S
O170 C169 1.228 . S
O171 Zn160 2.024 . S
O171 C162 1.058 . S
C172 O173 1.228 . S
C172 O174 1.267 . S
O173 C172 1.228 . S
O174 Zn161 1.969 . S
O174 C172 1.267 . S
O175 Zn161 1.965 1_556 S
O175 C179 1.260 . S
O176 Zn160 1.969 . S
O176 C179 1.258 . S
O177 Zn161 2.024 . S
O177 C164 1.058 . S
C178 O167 1.260 . S
C178 O168 1.258 . S
C179 O175 1.260 . S
C179 O176 1.258 . S
Zn180 O186 1.969 . S
Zn180 O187 1.965 . S
Zn180 O191 2.024 . S
Zn180 O196 1.969 . S
Zn181 O188 1.969 . S
Zn181 O194 1.969 . S
Zn181 O195 1.965 . S
Zn181 O197 2.024 . S
C182 O183 1.229 . S
C182 O191 1.058 . S
O183 C182 1.229 . S
C184 O185 1.229 . S
C184 O197 1.058 . S
O185 C184 1.229 . S
O186 Zn180 1.969 . S
O186 C189 1.267 . S
O187 Zn180 1.965 . S
O187 C198 1.260 . S
O188 Zn181 1.969 . S
O188 C198 1.258 . S
C189 O186 1.267 . S
C189 O190 1.228 . S
O190 C189 1.228 . S
O191 Zn180 2.024 . S
O191 C182 1.058 . S
C192 O193 1.228 . S
C192 O194 1.267 . S
O193 C192 1.228 . S
O194 Zn181 1.969 . S
O194 C192 1.267 . S
O195 Zn181 1.965 . S
O195 C199 1.260 . S
O196 Zn180 1.969 . S
O196 C199 1.258 . S
O197 Zn181 2.024 . S
O197 C184 1.058 . S
C198 O187 1.260 . S
C198 O188 1.258 . S
C199 O195 1.260 . S
C199 O196 1.258 . S
Zn200 O206 1.969 . S
Zn200 O207 1.965 1_655 S
Zn200 O211 2.024 . S
Zn200 O216 1.969 . S
Zn201 O208 1.969 . S
Zn201 O214 1.969 . S
Zn201 O215 1.965 1_455 S
Zn201 O217 2.024 . S
C202 O203 1.229 . S
C202 O211 1.058 . S
O203 C202 1.229 . S
C204 O205 1.229 . S
C204 O217 1.058 . S
O205 C204 1.229 . S
O206 Zn200 1.969 . S
O206 C209 1.267 . S
O207 Zn200 1.965 1_455 S
O207 C218 1.260 . S
O208 Zn201 1.969 . S
O208 C218 1.258 . S
C209 O206 1.267 . S
C209 O210 1.228 . S
O210 C209 1.228 . S
O211 Zn200 2.024 . S
O211 C202 1.058 . S
C212 O213 1.228 . S
C212 O214 1.267 . S
O213 C212 1.228 . S
O214 Zn201 1.969 . S
O214 C212 1.267 . S
O215 Zn201 1.965 1_655 S
O215 C219 1.260 . S
O216 Zn200 1.969 . S
O216 C219 1.258 . S
O217 Zn201 2.024 . S
O217 C204 1.058 . S
C218 O207 1.260 . S
C218 O208 1.258 . S
C219 O215 1.260 . S
C219 O216 1.258 . S
Zn220 O226 1.969 . S
Zn220 O227 1.965 . S
Zn220 O231 2.024 . S
Zn220 O236 1.969 . S
Zn221 O228 1.969 . S
Zn221 O234 1.969 . S
Zn221 O235 1.965 . S
Zn221 O237 2.024 . S
C222 O223 1.229 . S
C222 O231 1.058 . S
O223 C222 1.229 . S
C224 O225 1.229 . S
C224 O237 1.058 . S
O225 C224 1.229 . S
O226 Zn220 1.969 . S
O226 C229 1.267 . S
O227 Zn220 1.965 . S
O227 C238 1.260 . S
O228 Zn221 1.969 . S
O228 C238 1.258 . S
C229 O226 1.267 . S
C229 O230 1.228 . S
O230 C229 1.228 . S
O231 Zn220 2.024 . S
O231 C222 1.058 . S
C232 O233 1.228 . S
C232 O234 1.267 . S
O233 C232 1.228 . S
O234 Zn221 1.969 . S
O234 C232 1.267 . S
O235 Zn221 1.965 . S
O235 C239 1.260 . S
O236 Zn220 1.969 . S
O236 C239 1.258 . S
O237 Zn221 2.024 . S
O237 C224 1.058 . S
C238 O227 1.260 . S
C238 O228 1.258 . S
C239 O235 1.260 . S
C239 O236 1.258 . S
Zn240 O246 1.969 . S
Zn240 O247 1.965 . S
Zn240 O251 2.024 . S
Zn240 O256 1.969 . S
Zn241 O248 1.969 . S
Zn241 O254 1.969 . S
Zn241 O255 1.965 . S
Zn241 O257 2.024 . S
C242 O243 1.229 . S
C242 O251 1.058 . S
O243 C242 1.229 . S
C244 O245 1.229 . S
C244 O257 1.058 . S
O245 C244 1.229 . S
O246 Zn240 1.969 . S
O246 C249 1.267 . S
O247 Zn240 1.965 . S
O247 C258 1.260 . S
O248 Zn241 1.969 . S
O248 C258 1.258 . S
C249 O246 1.267 . S
C249 O250 1.228 . S
O250 C249 1.228 . S
O251 Zn240 2.024 . S
O251 C242 1.058 . S
C252 O253 1.228 . S
C252 O254 1.267 . S
O253 C252 1.228 . S
O254 Zn241 1.969 . S
O254 C252 1.267 . S
O255 Zn241 1.965 . S
O255 C259 1.260 . S
O256 Zn240 1.969 . S
O256 C259 1.258 . S
O257 Zn241 2.024 . S
O257 C244 1.058 . S
C258 O247 1.260 . S
C258 O248 1.258 . S
C259 O255 1.260 . S
C259 O256 1.258 . S
Zn260 O266 1.969 . S
Zn260 O267 1.965 . S
Zn260 O271 2.024 . S
Zn260 O276 1.969 . S
Zn261 O268 1.969 . S
Zn261 O274 1.969 . S
Zn261 O275 1.965 . S
Zn261 O277 2.024 . S
C262 O263 1.229 . S
C262 O271 1.058 . S
O263 C262 1.229 . S
C264 O265 1.229 . S
C264 O277 1.058 . S
O265 C264 1.229 . S
O266 Zn260 1.969 . S
O266 C269 1.267 . S
O267 Zn260 1.965 . S
O267 C278 1.260 . S
O268 Zn261 1.969 . S
O268 C278 1.258 . S
C269 O266 1.267 . S
C269 O270 1.228 . S
O270 C269 1.228 . S
O271 Zn260 2.024 . S
O271 C262 1.058 . S
C272 O273 1.228 . S
C272 O274 1.267 . S
O273 C272 1.228 . S
O274 Zn261 1.969 . S
O274 C272 1.267 . S
O275 Zn261 1.965 . S
O275 C279 1.260 . S
O276 Zn260 1.969 . S
O276 C279 1.258 . S
O277 Zn261 2.024 . S
O277 C264 1.058 . S
C278 O267 1.260 . S
C278 O268 1.258 . S
C279 O275 1.260 . S
C279 O276 1.258 . S
Zn280 O286 1.969 . S
Zn280 O287 1.965 . S
Zn280 O291 2.024 . S
Zn280 O296 1.969 . S
Zn281 O288 1.969 . S
Zn281 O294 1.969 . S
Zn281 O295 1.965 . S
Zn281 O297 2.024 . S
C282 O283 1.229 . S
C282 O291 1.058 . S
O283 C282 1.229 . S
C284 O285 1.229 . S
C284 O297 1.058 . S
O285 C284 1.229 . S
O286 Zn280 1.969 . S
O286 C289 1.267 . S
O287 Zn280 1.965 . S
O287 C298 1.260 . S
O288 Zn281 1.969 . S
O288 C298 1.258 . S
C289 O286 1.267 . S
C289 O290 1.228 . S
O290 C289 1.228 . S
O291 Zn280 2.024 . S
O291 C282 1.058 . S
C292 O293 1.228 . S
C292 O294 1.267 . S
O293 C292 1.228 . S
O294 Zn281 1.969 . S
O294 C292 1.267 . S
O295 Zn281 1.965 . S
O295 C299 1.260 . S
O296 Zn280 1.969 . S
O296 C299 1.258 . S
O297 Zn281 2.024 . S
O297 C284 1.058 . S
C298 O287 1.260 . S
C298 O288 1.258 . S
C299 O295 1.260 . S
C299 O296 1.258 . S
Zn300 O306 1.969 . S
Zn300 O307 1.965 . S
Zn300 O311 2.024 1_554 S
Zn300 O316 1.969 1_454 S
Zn301 O308 1.969 1_656 S
Zn301 O314 1.969 . S
Zn301 O315 1.965 . S
Zn301 O317 2.024 1_556 S
C302 O303 1.229 . S
C302 O311 1.058 . S
O303 C302 1.229 . S
C304 O305 1.229 . S
C304 O317 1.058 . S
O305 C304 1.229 . S
O306 Zn300 1.969 . S
O306 C309 1.267 . S
O307 Zn300 1.965 . S
O307 C318 1.260 . S
O308 Zn301 1.969 1_454 S
O308 C318 1.258 . S
C309 O306 1.267 . S
C309 O310 1.228 . S
O310 C309 1.228 . S
O311 Zn300 2.024 1_556 S
O311 C302 1.058 . S
C312 O313 1.228 . S
C312 O314 1.267 . S
O313 C312 1.228 . S
O314 Zn301 1.969 . S
O314 C312 1.267 . S
O315 Zn301 1.965 . S
O315 C319 1.260 . S
O316 Zn300 1.969 1_656 S
O316 C319 1.258 . S
O317 Zn301 2.024 1_554 S
O317 C304 1.058 . S
C318 O307 1.260 . S
C318 O308 1.258 . S
C319 O315 1.260 . S
C319 O316 1.258 . S
C320 C321 1.349 . S
C320 C322 1.327 . S
C320 H345 0.950 . S
C321 C320 1.349 . S
C321 C337 1.349 . S
C322 C320 1.327 . S
C322 C341 1.429 . S
C322 H346 0.950 . S
C323 C340 1.574 . S
C323 C342 1.368 . S
C323 H347 0.949 . S
H324 C328 0.949 . S
C325 C326 1.349 . S
C325 C327 1.327 . S
C325 H348 0.950 . S
C326 C325 1.349 . S
C326 C338 1.349 . S
C327 C325 1.327 . S
C327 C343 1.429 . S
C327 H349 0.950 . S
C328 H324 0.949 . S
C328 C336 1.574 . S
C328 C344 1.368 . S
H329 C337 0.950 . S
H330 C335 0.950 . S
H331 C336 0.949 . S
H332 C338 0.950 . S
H333 C339 0.950 . S
H334 C340 0.949 . S
C335 H330 0.950 . S
C335 C337 1.327 . S
C335 C341 1.429 . S
C336 C328 1.574 . S
C336 H331 0.949 . S
C336 C342 1.368 . S
C337 C321 1.349 . S
C337 H329 0.950 . S
C337 C335 1.327 . S
C338 C326 1.349 . S
C338 H332 0.950 . S
C338 C339 1.327 . S
C339 H333 0.950 . S
C339 C338 1.327 . S
C339 C343 1.429 . S
C340 C323 1.574 . S
C340 H334 0.949 . S
C340 C344 1.368 . S
C341 C322 1.429 . S
C341 C335 1.429 . S
C341 C342 1.523 . S
C342 C323 1.368 . S
C342 C336 1.368 . S
C342 C341 1.523 . S
C343 C327 1.429 . S
C343 C339 1.429 . S
C343 C344 1.523 . S
C344 C328 1.368 . S
C344 C340 1.368 . S
C344 C343 1.523 . S
H345 C320 0.950 . S
H346 C322 0.950 . S
H347 C323 0.949 . S
H348 C325 0.950 . S
H349 C327 0.950 . S
C350 C351 1.349 . S
C350 C352 1.327 . S
C350 H375 0.950 . S
C351 C350 1.349 . S
C351 C367 1.349 . S
C352 C350 1.327 . S
C352 C371 1.429 . S
C352 H376 0.950 . S
C353 C370 1.574 . S
C353 C372 1.368 . S
C353 H377 0.949 . S
H354 C358 0.949 . S
C355 C356 1.349 . S
C355 C357 1.327 . S
C355 H378 0.950 . S
C356 C355 1.349 . S
C356 C368 1.349 . S
C357 C355 1.327 . S
C357 C373 1.429 . S
C357 H379 0.950 . S
C358 H354 0.949 . S
C358 C366 1.574 . S
C358 C374 1.368 . S
H359 C367 0.950 . S
H360 C365 0.950 . S
H361 C366 0.949 . S
H362 C368 0.950 . S
H363 C369 0.950 . S
H364 C370 0.949 . S
C365 H360 0.950 . S
C365 C367 1.327 . S
C365 C371 1.429 . S
C366 C358 1.574 . S
C366 H361 0.949 . S
C366 C372 1.368 . S
C367 C351 1.349 . S
C367 H359 0.950 . S
C367 C365 1.327 . S
C368 C356 1.349 . S
C368 H362 0.950 . S
C368 C369 1.327 . S
C369 H363 0.950 . S
C369 C368 1.327 . S
C369 C373 1.429 . S
C370 C353 1.574 . S
C370 H364 0.949 . S
C370 C374 1.368 . S
C371 C352 1.429 . S
C371 C365 1.429 . S
C371 C372 1.523 . S
C372 C353 1.368 . S
C372 C366 1.368 . S
C372 C371 1.523 . S
C373 C357 1.429 . S
C373 C369 1.429 . S
C373 C374 1.523 . S
C374 C358 1.368 . S
C374 C370 1.368 . S
C374 C373 1.523 . S
H375 C350 0.950 . S
H376 C352 0.950 . S
H377 C353 0.949 . S
H378 C355 0.950 . S
H379 C357 0.950 . S
C380 C381 1.349 . S
C380 C382 1.327 . S
C380 H405 0.950 . S
C381 C380 1.349 . S
C381 C397 1.349 . S
C382 C380 1.327 . S
C382 C401 1.429 . S
C382 H406 0.950 . S
C383 C400 1.574 . S
C383 C402 1.368 . S
C383 H407 0.949 . S
H384 C388 0.949 . S
C385 C386 1.349 . S
C385 C387 1.327 . S
C385 H408 0.950 . S
C386 C385 1.349 . S
C386 C398 1.349 . S
C387 C385 1.327 . S
C387 C403 1.429 . S
C387 H409 0.950 . S
C388 H384 0.949 . S
C388 C396 1.574 . S
C388 C404 1.368 . S
H389 C397 0.950 . S
H390 C395 0.950 . S
H391 C396 0.949 . S
H392 C398 0.950 . S
H393 C399 0.950 . S
H394 C400 0.949 . S
C395 H390 0.950 . S
C395 C397 1.327 . S
C395 C401 1.429 . S
C396 C388 1.574 . S
C396 H391 0.949 . S
C396 C402 1.368 . S
C397 C381 1.349 . S
C397 H389 0.950 . S
C397 C395 1.327 . S
C398 C386 1.349 . S
C398 H392 0.950 . S
C398 C399 1.327 . S
C399 H393 0.950 . S
C399 C398 1.327 . S
C399 C403 1.429 . S
C400 C383 1.574 . S
C400 H394 0.949 . S
C400 C404 1.368 . S
C401 C382 1.429 . S
C401 C395 1.429 . S
C401 C402 1.523 . S
C402 C383 1.368 . S
C402 C396 1.368 . S
C402 C401 1.523 . S
C403 C387 1.429 . S
C403 C399 1.429 . S
C403 C404 1.523 . S
C404 C388 1.368 . S
C404 C400 1.368 . S
C404 C403 1.523 . S
H405 C380 0.950 . S
H406 C382 0.950 . S
H407 C383 0.949 . S
H408 C385 0.950 . S
H409 C387 0.950 . S
C410 C411 1.349 . S
C410 C412 1.327 . S
C410 H435 0.950 . S
C411 C410 1.349 . S
C411 C427 1.349 . S
C412 C410 1.327 . S
C412 C431 1.429 . S
C412 H436 0.950 . S
C413 C430 1.574 . S
C413 C432 1.368 . S
C413 H437 0.949 . S
H414 C418 0.949 . S
C415 C416 1.349 . S
C415 C417 1.327 . S
C415 H438 0.950 . S
C416 C415 1.349 . S
C416 C428 1.349 . S
C417 C415 1.327 . S
C417 C433 1.429 . S
C417 H439 0.950 . S
C418 H414 0.949 . S
C418 C426 1.574 . S
C418 C434 1.368 . S
H419 C427 0.950 . S
H420 C425 0.950 . S
H421 C426 0.949 . S
H422 C428 0.950 . S
H423 C429 0.950 . S
H424 C430 0.949 . S
C425 H420 0.950 . S
C425 C427 1.327 . S
C425 C431 1.429 . S
C426 C418 1.574 . S
C426 H421 0.949 . S
C426 C432 1.368 . S
C427 C411 1.349 . S
C427 H419 0.950 . S
C427 C425 1.327 . S
C428 C416 1.349 . S
C428 H422 0.950 . S
C428 C429 1.327 . S
C429 H423 0.950 . S
C429 C428 1.327 . S
C429 C433 1.429 . S
C430 C413 1.574 . S
C430 H424 0.949 . S
C430 C434 1.368 . S
C431 C412 1.429 . S
C431 C425 1.429 . S
C431 C432 1.523 . S
C432 C413 1.368 . S
C432 C426 1.368 . S
C432 C431 1.523 . S
C433 C417 1.429 . S
C433 C429 1.429 . S
C433 C434 1.523 . S
C434 C418 1.368 . S
C434 C430 1.368 . S
C434 C433 1.523 . S
H435 C410 0.950 . S
H436 C412 0.950 . S
H437 C413 0.949 . S
H438 C415 0.950 . S
H439 C417 0.950 . S
C440 C441 1.349 . S
C440 C442 1.327 . S
C440 H465 0.950 . S
C441 C440 1.349 . S
C441 C457 1.349 . S
C442 C440 1.327 . S
C442 C461 1.429 . S
C442 H466 0.950 . S
C443 C460 1.574 . S
C443 C462 1.368 . S
C443 H467 0.949 . S
H444 C448 0.949 . S
C445 C446 1.349 . S
C445 C447 1.327 . S
C445 H468 0.950 . S
C446 C445 1.349 . S
C446 C458 1.349 . S
C447 C445 1.327 . S
C447 C463 1.429 . S
C447 H469 0.950 . S
C448 H444 0.949 . S
C448 C456 1.574 . S
C448 C464 1.368 . S
H449 C457 0.950 . S
H450 C455 0.950 . S
H451 C456 0.949 . S
H452 C458 0.950 . S
H453 C459 0.950 . S
H454 C460 0.949 . S
C455 H450 0.950 . S
C455 C457 1.327 . S
C455 C461 1.429 . S
C456 C448 1.574 . S
C456 H451 0.949 . S
C456 C462 1.368 . S
C457 C441 1.349 . S
C457 H449 0.950 . S
C457 C455 1.327 . S
C458 C446 1.349 . S
C458 H452 0.950 . S
C458 C459 1.327 . S
C459 H453 0.950 . S
C459 C458 1.327 . S
C459 C463 1.429 . S
C460 C443 1.574 . S
C460 H454 0.949 . S
C460 C464 1.368 . S
C461 C442 1.429 . S
C461 C455 1.429 . S
C461 C462 1.523 . S
C462 C443 1.368 . S
C462 C456 1.368 . S
C462 C461 1.523 . S
C463 C447 1.429 . S
C463 C459 1.429 . S
C463 C464 1.523 . S
C464 C448 1.368 . S
C464 C460 1.368 . S
C464 C463 1.523 . S
H465 C440 0.950 . S
H466 C442 0.950 . S
H467 C443 0.949 . S
H468 C445 0.950 . S
H469 C447 0.950 . S
C470 C471 1.349 . S
C470 C472 1.327 . S
C470 H495 0.950 . S
C471 C470 1.349 . S
C471 C487 1.349 . S
C472 C470 1.327 . S
C472 C491 1.429 . S
C472 H496 0.950 . S
C473 C490 1.574 . S
C473 C492 1.368 . S
C473 H497 0.949 . S
H474 C478 0.949 . S
C475 C476 1.349 . S
C475 C477 1.327 . S
C475 H498 0.950 . S
C476 C475 1.349 . S
C476 C488 1.349 . S
C477 C475 1.327 . S
C477 C493 1.429 . S
C477 H499 0.950 . S
C478 H474 0.949 . S
C478 C486 1.574 . S
C478 C494 1.368 . S
H479 C487 0.950 . S
H480 C485 0.950 . S
H481 C486 0.949 . S
H482 C488 0.950 . S
H483 C489 0.950 . S
H484 C490 0.949 . S
C485 H480 0.950 . S
C485 C487 1.327 . S
C485 C491 1.429 . S
C486 C478 1.574 . S
C486 H481 0.949 . S
C486 C492 1.368 . S
C487 C471 1.349 . S
C487 H479 0.950 . S
C487 C485 1.327 . S
C488 C476 1.349 . S
C488 H482 0.950 . S
C488 C489 1.327 . S
C489 H483 0.950 . S
C489 C488 1.327 . S
C489 C493 1.429 . S
C490 C473 1.574 . S
C490 H484 0.949 . S
C490 C494 1.368 . S
C491 C472 1.429 . S
C491 C485 1.429 . S
C491 C492 1.523 . S
C492 C473 1.368 . S
C492 C486 1.368 . S
C492 C491 1.523 . S
C493 C477 1.429 . S
C493 C489 1.429 . S
C493 C494 1.523 . S
C494 C478 1.368 . S
C494 C490 1.368 . S
C494 C493 1.523 . S
H495 C470 0.950 . S
H496 C472 0.950 . S
H497 C473 0.949 . S
H498 C475 0.950 . S
H499 C477 0.950 . S
C500 C501 1.349 . S
C500 C502 1.327 . S
C500 H525 0.950 . S
C501 C500 1.349 . S
C501 C517 1.349 . S
C502 C500 1.327 . S
C502 C521 1.429 . S
C502 H526 0.950 . S
C503 C520 1.574 . S
C503 C522 1.368 . S
C503 H527 0.949 . S
H504 C508 0.949 . S
C505 C506 1.349 . S
C505 C507 1.327 . S
C505 H528 0.950 . S
C506 C505 1.349 . S
C506 C518 1.349 . S
C507 C505 1.327 . S
C507 C523 1.429 . S
C507 H529 0.950 . S
C508 H504 0.949 . S
C508 C516 1.574 . S
C508 C524 1.368 . S
H509 C517 0.950 . S
H510 C515 0.950 . S
H511 C516 0.949 . S
H512 C518 0.950 . S
H513 C519 0.950 . S
H514 C520 0.949 . S
C515 H510 0.950 . S
C515 C517 1.327 . S
C515 C521 1.429 . S
C516 C508 1.574 . S
C516 H511 0.949 . S
C516 C522 1.368 . S
C517 C501 1.349 . S
C517 H509 0.950 . S
C517 C515 1.327 . S
C518 C506 1.349 . S
C518 H512 0.950 . S
C518 C519 1.327 . S
C519 H513 0.950 . S
C519 C518 1.327 . S
C519 C523 1.429 . S
C520 C503 1.574 . S
C520 H514 0.949 . S
C520 C524 1.368 . S
C521 C502 1.429 . S
C521 C515 1.429 . S
C521 C522 1.523 . S
C522 C503 1.368 . S
C522 C516 1.368 . S
C522 C521 1.523 . S
C523 C507 1.429 . S
C523 C519 1.429 . S
C523 C524 1.523 . S
C524 C508 1.368 . S
C524 C520 1.368 . S
C524 C523 1.523 . S
H525 C500 0.950 . S
H526 C502 0.950 . S
H527 C503 0.949 . S
H528 C505 0.950 . S
H529 C507 0.950 . S
C530 C531 1.349 . S
C530 C532 1.327 . S
C530 H555 0.950 . S
C531 C530 1.349 . S
C531 C547 1.349 . S
C532 C530 1.327 . S
C532 C551 1.429 . S
C532 H556 0.950 . S
C533 C550 1.574 . S
C533 C552 1.368 . S
C533 H557 0.949 . S
H534 C538 0.949 . S
C535 C536 1.349 . S
C535 C537 1.327 . S
C535 H558 0.950 . S
C536 C535 1.349 . S
C536 C548 1.349 . S
C537 C535 1.327 . S
C537 C553 1.429 . S
C537 H559 0.950 . S
C538 H534 0.949 . S
C538 C546 1.574 . S
C538 C554 1.368 . S
H539 C547 0.950 . S
H540 C545 0.950 . S
H541 C546 0.949 . S
H542 C548 0.950 . S
H543 C549 0.950 . S
H544 C550 0.949 . S
C545 H540 0.950 . S
C545 C547 1.327 . S
C545 C551 1.429 . S
C546 C538 1.574 . S
C546 H541 0.949 . S
C546 C552 1.368 . S
C547 C531 1.349 . S
C547 H539 0.950 . S
C547 C545 1.327 . S
C548 C536 1.349 . S
C548 H542 0.950 . S
C548 C549 1.327 . S
C549 H543 0.950 . S
C549 C548 1.327 . S
C549 C553 1.429 . S
C550 C533 1.574 . S
C550 H544 0.949 . S
C550 C554 1.368 . S
C551 C532 1.429 . S
C551 C545 1.429 . S
C551 C552 1.523 . S
C552 C533 1.368 . S
C552 C546 1.368 . S
C552 C551 1.523 . S
C553 C537 1.429 . S
C553 C549 1.429 . S
C553 C554 1.523 . S
C554 C538 1.368 . S
C554 C550 1.368 . S
C554 C553 1.523 . S
H555 C530 0.950 . S
H556 C532 0.950 . S
H557 C533 0.949 . S
H558 C535 0.950 . S
H559 C537 0.950 . S
C560 C561 1.349 . S
C560 C562 1.327 . S
C560 H585 0.950 . S
C561 C560 1.349 . S
C561 C577 1.349 . S
C562 C560 1.327 . S
C562 C581 1.429 . S
C562 H586 0.950 . S
C563 C580 1.574 . S
C563 C582 1.368 . S
C563 H587 0.949 . S
H564 C568 0.949 . S
C565 C566 1.349 . S
C565 C567 1.327 . S
C565 H588 0.950 . S
C566 C565 1.349 . S
C566 C578 1.349 . S
C567 C565 1.327 . S
C567 C583 1.429 . S
C567 H589 0.950 . S
C568 H564 0.949 . S
C568 C576 1.574 . S
C568 C584 1.368 . S
H569 C577 0.950 . S
H570 C575 0.950 . S
H571 C576 0.949 . S
H572 C578 0.950 . S
H573 C579 0.950 . S
H574 C580 0.949 . S
C575 H570 0.950 . S
C575 C577 1.327 . S
C575 C581 1.429 . S
C576 C568 1.574 . S
C576 H571 0.949 . S
C576 C582 1.368 . S
C577 C561 1.349 . S
C577 H569 0.950 . S
C577 C575 1.327 . S
C578 C566 1.349 . S
C578 H572 0.950 . S
C578 C579 1.327 . S
C579 H573 0.950 . S
C579 C578 1.327 . S
C579 C583 1.429 . S
C580 C563 1.574 . S
C580 H574 0.949 . S
C580 C584 1.368 . S
C581 C562 1.429 . S
C581 C575 1.429 . S
C581 C582 1.523 . S
C582 C563 1.368 . S
C582 C576 1.368 . S
C582 C581 1.523 . S
C583 C567 1.429 . S
C583 C579 1.429 . S
C583 C584 1.523 . S
C584 C568 1.368 . S
C584 C580 1.368 . S
C584 C583 1.523 . S
H585 C560 0.950 . S
H586 C562 0.950 . S
H587 C563 0.949 . S
H588 C565 0.950 . S
H589 C567 0.950 . S
C590 C591 1.349 . S
C590 C592 1.327 . S
C590 H615 0.950 . S
C591 C590 1.349 . S
C591 C607 1.349 . S
C592 C590 1.327 . S
C592 C611 1.429 . S
C592 H616 0.950 . S
C593 C610 1.574 . S
C593 C612 1.368 . S
C593 H617 0.949 . S
H594 C598 0.949 . S
C595 C596 1.349 . S
C595 C597 1.327 . S
C595 H618 0.950 . S
C596 C595 1.349 . S
C596 C608 1.349 . S
C597 C595 1.327 . S
C597 C613 1.429 . S
C597 H619 0.950 . S
C598 H594 0.949 . S
C598 C606 1.574 . S
C598 C614 1.368 . S
H599 C607 0.950 . S
H600 C605 0.950 . S
H601 C606 0.949 . S
H602 C608 0.950 . S
H603 C609 0.950 . S
H604 C610 0.949 . S
C605 H600 0.950 . S
C605 C607 1.327 . S
C605 C611 1.429 . S
C606 C598 1.574 . S
C606 H601 0.949 . S
C606 C612 1.368 . S
C607 C591 1.349 . S
C607 H599 0.950 . S
C607 C605 1.327 . S
C608 C596 1.349 . S
C608 H602 0.950 . S
C608 C609 1.327 . S
C609 H603 0.950 . S
C609 C608 1.327 . S
C609 C613 1.429 . S
C610 C593 1.574 . S
C610 H604 0.949 . S
C610 C614 1.368 . S
C611 C592 1.429 . S
C611 C605 1.429 . S
C611 C612 1.523 . S
C612 C593 1.368 . S
C612 C606 1.368 . S
C612 C611 1.523 . S
C613 C597 1.429 . S
C613 C609 1.429 . S
C613 C614 1.523 . S
C614 C598 1.368 . S
C614 C610 1.368 . S
C614 C613 1.523 . S
H615 C590 0.950 . S
H616 C592 0.950 . S
H617 C593 0.949 . S
H618 C595 0.950 . S
H619 C597 0.950 . S
C620 C621 1.349 . S
C620 C622 1.327 . S
C620 H645 0.950 . S
C621 C620 1.349 . S
C621 C637 1.349 . S
C622 C620 1.327 . S
C622 C641 1.429 . S
C622 H646 0.950 . S
C623 C640 1.574 . S
C623 C642 1.368 . S
C623 H647 0.949 . S
H624 C628 0.949 . S
C625 C626 1.349 . S
C625 C627 1.327 . S
C625 H648 0.950 . S
C626 C625 1.349 . S
C626 C638 1.349 . S
C627 C625 1.327 . S
C627 C643 1.429 . S
C627 H649 0.950 . S
C628 H624 0.949 . S
C628 C636 1.574 . S
C628 C644 1.368 . S
H629 C637 0.950 . S
H630 C635 0.950 . S
H631 C636 0.949 . S
H632 C638 0.950 . S
H633 C639 0.950 . S
H634 C640 0.949 . S
C635 H630 0.950 . S
C635 C637 1.327 . S
C635 C641 1.429 . S
C636 C628 1.574 . S
C636 H631 0.949 . S
C636 C642 1.368 . S
C637 C621 1.349 . S
C637 H629 0.950 . S
C637 C635 1.327 . S
C638 C626 1.349 . S
C638 H632 0.950 . S
C638 C639 1.327 . S
C639 H633 0.950 . S
C639 C638 1.327 . S
C639 C643 1.429 . S
C640 C623 1.574 . S
C640 H634 0.949 . S
C640 C644 1.368 . S
C641 C622 1.429 . S
C641 C635 1.429 . S
C641 C642 1.523 . S
C642 C623 1.368 . S
C642 C636 1.368 . S
C642 C641 1.523 . S
C643 C627 1.429 . S
C643 C639 1.429 . S
C643 C644 1.523 . S
C644 C628 1.368 . S
C644 C640 1.368 . S
C644 C643 1.523 . S
H645 C620 0.950 . S
H646 C622 0.950 . S
H647 C623 0.949 . S
H648 C625 0.950 . S
H649 C627 0.950 . S
C650 C651 1.349 . S
C650 C652 1.327 . S
C650 H675 0.950 . S
C651 C650 1.349 . S
C651 C667 1.349 . S
C652 C650 1.327 . S
C652 C671 1.429 . S
C652 H676 0.950 . S
C653 C670 1.574 . S
C653 C672 1.368 . S
C653 H677 0.949 . S
H654 C658 0.949 . S
C655 C656 1.349 . S
C655 C657 1.327 . S
C655 H678 0.950 . S
C656 C655 1.349 . S
C656 C668 1.349 . S
C657 C655 1.327 . S
C657 C673 1.429 . S
C657 H679 0.950 . S
C658 H654 0.949 . S
C658 C666 1.574 . S
C658 C674 1.368 . S
H659 C667 0.950 . S
H660 C665 0.950 . S
H661 C666 0.949 . S
H662 C668 0.950 . S
H663 C669 0.950 . S
H664 C670 0.949 . S
C665 H660 0.950 . S
C665 C667 1.327 . S
C665 C671 1.429 . S
C666 C658 1.574 . S
C666 H661 0.949 . S
C666 C672 1.368 . S
C667 C651 1.349 . S
C667 H659 0.950 . S
C667 C665 1.327 . S
C668 C656 1.349 . S
C668 H662 0.950 . S
C668 C669 1.327 . S
C669 H663 0.950 . S
C669 C668 1.327 . S
C669 C673 1.429 . S
C670 C653 1.574 . S
C670 H664 0.949 . S
C670 C674 1.368 . S
C671 C652 1.429 . S
C671 C665 1.429 . S
C671 C672 1.523 . S
C672 C653 1.368 . S
C672 C666 1.368 . S
C672 C671 1.523 . S
C673 C657 1.429 . S
C673 C669 1.429 . S
C673 C674 1.523 . S
C674 C658 1.368 . S
C674 C670 1.368 . S
C674 C673 1.523 . S
H675 C650 0.950 . S
H676 C652 0.950 . S
H677 C653 0.949 . S
H678 C655 0.950 . S
H679 C657 0.950 . S
C680 C681 1.349 . S
C680 C682 1.327 . S
C680 H705 0.950 . S
C681 C680 1.349 . S
C681 C697 1.349 . S
C682 C680 1.327 . S
C682 C701 1.429 . S
C682 H706 0.950 . S
C683 C700 1.574 . S
C683 C702 1.368 . S
C683 H707 0.949 . S
H684 C688 0.949 . S
C685 C686 1.349 . S
C685 C687 1.327 . S
C685 H708 0.950 . S
C686 C685 1.349 . S
C686 C698 1.349 . S
C687 C685 1.327 . S
C687 C703 1.429 . S
C687 H709 0.950 . S
C688 H684 0.949 . S
C688 C696 1.574 . S
C688 C704 1.368 . S
H689 C697 0.950 . S
H690 C695 0.950 . S
H691 C696 0.949 . S
H692 C698 0.950 . S
H693 C699 0.950 . S
H694 C700 0.949 . S
C695 H690 0.950 . S
C695 C697 1.327 . S
C695 C701 1.429 . S
C696 C688 1.574 . S
C696 H691 0.949 . S
C696 C702 1.368 . S
C697 C681 1.349 . S
C697 H689 0.950 . S
C697 C695 1.327 . S
C698 C686 1.349 . S
C698 H692 0.950 . S
C698 C699 1.327 . S
C699 H693 0.950 . S
C699 C698 1.327 . S
C699 C703 1.429 . S
C700 C683 1.574 . S
C700 H694 0.949 . S
C700 C704 1.368 . S
C701 C682 1.429 . S
C701 C695 1.429 . S
C701 C702 1.523 . S
C702 C683 1.368 . S
C702 C696 1.368 . S
C702 C701 1.523 . S
C703 C687 1.429 . S
C703 C699 1.429 . S
C703 C704 1.523 . S
C704 C688 1.368 . S
C704 C700 1.368 . S
C704 C703 1.523 . S
H705 C680 0.950 . S
H706 C682 0.950 . S
H707 C683 0.949 . S
H708 C685 0.950 . S
H709 C687 0.950 . S
C710 C711 1.349 . S
C710 C712 1.327 . S
C710 H735 0.950 . S
C711 C710 1.349 . S
C711 C727 1.349 . S
C712 C710 1.327 . S
C712 C731 1.429 . S
C712 H736 0.950 . S
C713 C730 1.574 . S
C713 C732 1.368 . S
C713 H737 0.949 . S
H714 C718 0.949 . S
C715 C716 1.349 . S
C715 C717 1.327 . S
C715 H738 0.950 . S
C716 C715 1.349 . S
C716 C728 1.349 . S
C717 C715 1.327 . S
C717 C733 1.429 . S
C717 H739 0.950 . S
C718 H714 0.949 . S
C718 C726 1.574 . S
C718 C734 1.368 . S
H719 C727 0.950 . S
H720 C725 0.950 . S
H721 C726 0.949 . S
H722 C728 0.950 . S
H723 C729 0.950 . S
H724 C730 0.949 . S
C725 H720 0.950 . S
C725 C727 1.327 . S
C725 C731 1.429 . S
C726 C718 1.574 . S
C726 H721 0.949 . S
C726 C732 1.368 . S
C727 C711 1.349 . S
C727 H719 0.950 . S
C727 C725 1.327 . S
C728 C716 1.349 . S
C728 H722 0.950 . S
C728 C729 1.327 . S
C729 H723 0.950 . S
C729 C728 1.327 . S
C729 C733 1.429 . S
C730 C713 1.574 . S
C730 H724 0.949 . S
C730 C734 1.368 . S
C731 C712 1.429 . S
C731 C725 1.429 . S
C731 C732 1.523 . S
C732 C713 1.368 . S
C732 C726 1.368 . S
C732 C731 1.523 . S
C733 C717 1.429 . S
C733 C729 1.429 . S
C733 C734 1.523 . S
C734 C718 1.368 . S
C734 C730 1.368 . S
C734 C733 1.523 . S
H735 C710 0.950 . S
H736 C712 0.950 . S
H737 C713 0.949 . S
H738 C715 0.950 . S
H739 C717 0.950 . S
C740 C741 1.349 . S
C740 C742 1.327 . S
C740 H765 0.950 . S
C741 C740 1.349 . S
C741 C757 1.349 . S
C742 C740 1.327 . S
C742 C761 1.429 . S
C742 H766 0.950 . S
C743 C760 1.574 . S
C743 C762 1.368 . S
C743 H767 0.949 . S
H744 C748 0.949 . S
C745 C746 1.349 . S
C745 C747 1.327 . S
C745 H768 0.950 . S
C746 C745 1.349 . S
C746 C758 1.349 . S
C747 C745 1.327 . S
C747 C763 1.429 . S
C747 H769 0.950 . S
C748 H744 0.949 . S
C748 C756 1.574 . S
C748 C764 1.368 . S
H749 C757 0.950 . S
H750 C755 0.950 . S
H751 C756 0.949 . S
H752 C758 0.950 . S
H753 C759 0.950 . S
H754 C760 0.949 . S
C755 H750 0.950 . S
C755 C757 1.327 . S
C755 C761 1.429 . S
C756 C748 1.574 . S
C756 H751 0.949 . S
C756 C762 1.368 . S
C757 C741 1.349 . S
C757 H749 0.950 . S
C757 C755 1.327 . S
C758 C746 1.349 . S
C758 H752 0.950 . S
C758 C759 1.327 . S
C759 H753 0.950 . S
C759 C758 1.327 . S
C759 C763 1.429 . S
C760 C743 1.574 . S
C760 H754 0.949 . S
C760 C764 1.368 . S
C761 C742 1.429 . S
C761 C755 1.429 . S
C761 C762 1.523 . S
C762 C743 1.368 . S
C762 C756 1.368 . S
C762 C761 1.523 . S
C763 C747 1.429 . S
C763 C759 1.429 . S
C763 C764 1.523 . S
C764 C748 1.368 . S
C764 C760 1.368 . S
C764 C763 1.523 . S
H765 C740 0.950 . S
H766 C742 0.950 . S
H767 C743 0.949 . S
H768 C745 0.950 . S
H769 C747 0.950 . S
C770 C771 1.349 . S
C770 C772 1.327 . S
C770 H795 0.950 . S
C771 C770 1.349 . S
C771 C787 1.349 . S
C772 C770 1.327 . S
C772 C791 1.429 . S
C772 H796 0.950 . S
C773 C790 1.574 . S
C773 C792 1.368 . S
C773 H797 0.949 . S
H774 C778 0.949 . S
C775 C776 1.349 . S
C775 C777 1.327 . S
C775 H798 0.950 . S
C776 C775 1.349 . S
C776 C788 1.349 . S
C777 C775 1.327 . S
C777 C793 1.429 . S
C777 H799 0.950 . S
C778 H774 0.949 . S
C778 C786 1.574 . S
C778 C794 1.368 . S
H779 C787 0.950 . S
H780 C785 0.950 . S
H781 C786 0.949 . S
H782 C788 0.950 . S
H783 C789 0.950 . S
H784 C790 0.949 . S
C785 H780 0.950 . S
C785 C787 1.327 . S
C785 C791 1.429 . S
C786 C778 1.574 . S
C786 H781 0.949 . S
C786 C792 1.368 . S
C787 C771 1.349 . S
C787 H779 0.950 . S
C787 C785 1.327 . S
C788 C776 1.349 . S
C788 H782 0.950 . S
C788 C789 1.327 . S
C789 H783 0.950 . S
C789 C788 1.327 . S
C789 C793 1.429 . S
C790 C773 1.574 . S
C790 H784 0.949 . S
C790 C794 1.368 . S
C791 C772 1.429 . S
C791 C785 1.429 . S
C791 C792 1.523 . S
C792 C773 1.368 . S
C792 C786 1.368 . S
C792 C791 1.523 . S
C793 C777 1.429 . S
C793 C789 1.429 . S
C793 C794 1.523 . S
C794 C778 1.368 . S
C794 C790 1.368 . S
C794 C793 1.523 . S
H795 C770 0.950 . S
H796 C772 0.950 . S
H797 C773 0.949 . S
H798 C775 0.950 . S
H799 C777 0.950 . S
C800 C801 1.349 . S
C800 C802 1.327 . S
C800 H825 0.950 . S
C801 C800 1.349 . S
C801 C817 1.349 . S
C802 C800 1.327 . S
C802 C821 1.429 . S
C802 H826 0.950 . S
C803 C820 1.574 . S
C803 C822 1.368 . S
C803 H827 0.949 . S
H804 C808 0.949 . S
C805 C806 1.349 . S
C805 C807 1.327 . S
C805 H828 0.950 . S
C806 C805 1.349 . S
C806 C818 1.349 . S
C807 C805 1.327 . S
C807 C823 1.429 . S
C807 H829 0.950 . S
C808 H804 0.949 . S
C808 C816 1.574 . S
C808 C824 1.368 . S
H809 C817 0.950 . S
H810 C815 0.950 . S
H811 C816 0.949 . S
H812 C818 0.950 . S
H813 C819 0.950 . S
H814 C820 0.949 . S
C815 H810 0.950 . S
C815 C817 1.327 . S
C815 C821 1.429 . S
C816 C808 1.574 . S
C816 H811 0.949 . S
C816 C822 1.368 . S
C817 C801 1.349 . S
C817 H809 0.950 . S
C817 C815 1.327 . S
C818 C806 1.349 . S
C818 H812 0.950 . S
C818 C819 1.327 . S
C819 H813 0.950 . S
C819 C818 1.327 . S
C819 C823 1.429 . S
C820 C803 1.574 . S
C820 H814 0.949 . S
C820 C824 1.368 . S
C821 C802 1.429 . S
C821 C815 1.429 . S
C821 C822 1.523 . S
C822 C803 1.368 . S
C822 C816 1.368 . S
C822 C821 1.523 . S
C823 C807 1.429 . S
C823 C819 1.429 . S
C823 C824 1.523 . S
C824 C808 1.368 . S
C824 C820 1.368 . S
C824 C823 1.523 . S
H825 C800 0.950 . S
H826 C802 0.950 . S
H827 C803 0.949 . S
H828 C805 0.950 . S
H829 C807 0.950 . S
C830 C831 1.349 . S
C830 C832 1.327 . S
C830 H855 0.950 . S
C831 C830 1.349 . S
C831 C847 1.349 . S
C832 C830 1.327 . S
C832 C851 1.429 . S
C832 H856 0.950 . S
C833 C850 1.574 . S
C833 C852 1.368 . S
C833 H857 0.949 . S
H834 C838 0.949 . S
C835 C836 1.349 . S
C835 C837 1.327 . S
C835 H858 0.950 . S
C836 C835 1.349 . S
C836 C848 1.349 . S
C837 C835 1.327 . S
C837 C853 1.429 . S
C837 H859 0.950 . S
C838 H834 0.949 . S
C838 C846 1.574 . S
C838 C854 1.368 . S
H839 C847 0.950 . S
H840 C845 0.950 . S
H841 C846 0.949 . S
H842 C848 0.950 . S
H843 C849 0.950 . S
H844 C850 0.949 . S
C845 H840 0.950 . S
C845 C847 1.327 . S
C845 C851 1.429 . S
C846 C838 1.574 . S
C846 H841 0.949 . S
C846 C852 1.368 . S
C847 C831 1.349 . S
C847 H839 0.950 . S
C847 C845 1.327 . S
C848 C836 1.349 . S
C848 H842 0.950 . S
C848 C849 1.327 . S
C849 H843 0.950 . S
C849 C848 1.327 . S
C849 C853 1.429 . S
C850 C833 1.574 . S
C850 H844 0.949 . S
C850 C854 1.368 . S
C851 C832 1.429 . S
C851 C845 1.429 . S
C851 C852 1.523 . S
C852 C833 1.368 . S
C852 C846 1.368 . S
C852 C851 1.523 . S
C853 C837 1.429 . S
C853 C849 1.429 . S
C853 C854 1.523 . S
C854 C838 1.368 . S
C854 C850 1.368 . S
C854 C853 1.523 . S
H855 C830 0.950 . S
H856 C832 0.950 . S
H857 C833 0.949 . S
H858 C835 0.950 . S
H859 C837 0.950 . S
C860 C861 1.349 . S
C860 C862 1.327 . S
C860 H885 0.950 . S
C861 C860 1.349 . S
C861 C877 1.349 . S
C862 C860 1.327 . S
C862 C881 1.429 . S
C862 H886 0.950 . S
C863 C880 1.574 . S
C863 C882 1.368 . S
C863 H887 0.949 . S
H864 C868 0.949 . S
C865 C866 1.349 . S
C865 C867 1.327 . S
C865 H888 0.950 . S
C866 C865 1.349 . S
C866 C878 1.349 . S
C867 C865 1.327 . S
C867 C883 1.429 . S
C867 H889 0.950 . S
C868 H864 0.949 . S
C868 C876 1.574 . S
C868 C884 1.368 . S
H869 C877 0.950 . S
H870 C875 0.950 . S
H871 C876 0.949 . S
H872 C878 0.950 . S
H873 C879 0.950 . S
H874 C880 0.949 . S
C875 H870 0.950 . S
C875 C877 1.327 . S
C875 C881 1.429 . S
C876 C868 1.574 . S
C876 H871 0.949 . S
C876 C882 1.368 . S
C877 C861 1.349 . S
C877 H869 0.950 . S
C877 C875 1.327 . S
C878 C866 1.349 . S
C878 H872 0.950 . S
C878 C879 1.327 . S
C879 H873 0.950 . S
C879 C878 1.327 . S
C879 C883 1.429 . S
C880 C863 1.574 . S
C880 H874 0.949 . S
C880 C884 1.368 . S
C881 C862 1.429 . S
C881 C875 1.429 . S
C881 C882 1.523 . S
C882 C863 1.368 . S
C882 C876 1.368 . S
C882 C881 1.523 . S
C883 C867 1.429 . S
C883 C879 1.429 . S
C883 C884 1.523 . S
C884 C868 1.368 . S
C884 C880 1.368 . S
C884 C883 1.523 . S
H885 C860 0.950 . S
H886 C862 0.950 . S
H887 C863 0.949 . S
H888 C865 0.950 . S
H889 C867 0.950 . S
C890 C891 1.349 . S
C890 C892 1.327 . S
C890 H915 0.950 . S
C891 C890 1.349 . S
C891 C907 1.349 . S
C892 C890 1.327 . S
C892 C911 1.429 . S
C892 H916 0.950 . S
C893 C910 1.574 . S
C893 C912 1.368 . S
C893 H917 0.949 . S
H894 C898 0.949 . S
C895 C896 1.349 . S
C895 C897 1.327 . S
C895 H918 0.950 . S
C896 C895 1.349 . S
C896 C908 1.349 . S
C897 C895 1.327 . S
C897 C913 1.429 . S
C897 H919 0.950 . S
C898 H894 0.949 . S
C898 C906 1.574 . S
C898 C914 1.368 . S
H899 C907 0.950 . S
H900 C905 0.950 . S
H901 C906 0.949 . S
H902 C908 0.950 . S
H903 C909 0.950 . S
H904 C910 0.949 . S
C905 H900 0.950 . S
C905 C907 1.327 . S
C905 C911 1.429 . S
C906 C898 1.574 . S
C906 H901 0.949 . S
C906 C912 1.368 . S
C907 C891 1.349 . S
C907 H899 0.950 . S
C907 C905 1.327 . S
C908 C896 1.349 . S
C908 H902 0.950 . S
C908 C909 1.327 . S
C909 H903 0.950 . S
C909 C908 1.327 . S
C909 C913 1.429 . S
C910 C893 1.574 . S
C910 H904 0.949 . S
C910 C914 1.368 . S
C911 C892 1.429 . S
C911 C905 1.429 . S
C911 C912 1.523 . S
C912 C893 1.368 . S
C912 C906 1.368 . S
C912 C911 1.523 . S
C913 C897 1.429 . S
C913 C909 1.429 . S
C913 C914 1.523 . S
C914 C898 1.368 . S
C914 C910 1.368 . S
C914 C913 1.523 . S
H915 C890 0.950 . S
H916 C892 0.950 . S
H917 C893 0.949 . S
H918 C895 0.950 . S
H919 C897 0.950 . S
C920 C921 1.349 . S
C920 C922 1.327 . S
C920 H945 0.950 . S
C921 C920 1.349 . S
C921 C937 1.349 . S
C922 C920 1.327 . S
C922 C941 1.429 . S
C922 H946 0.950 . S
C923 C940 1.574 . S
C923 C942 1.368 . S
C923 H947 0.949 . S
H924 C928 0.949 . S
C925 C926 1.349 . S
C925 C927 1.327 . S
C925 H948 0.950 . S
C926 C925 1.349 . S
C926 C938 1.349 . S
C927 C925 1.327 . S
C927 C943 1.429 . S
C927 H949 0.950 . S
C928 H924 0.949 . S
C928 C936 1.574 . S
C928 C944 1.368 . S
H929 C937 0.950 . S
H930 C935 0.950 . S
H931 C936 0.949 . S
H932 C938 0.950 . S
H933 C939 0.950 . S
H934 C940 0.949 . S
C935 H930 0.950 . S
C935 C937 1.327 . S
C935 C941 1.429 . S
C936 C928 1.574 . S
C936 H931 0.949 . S
C936 C942 1.368 . S
C937 C921 1.349 . S
C937 H929 0.950 . S
C937 C935 1.327 . S
C938 C926 1.349 . S
C938 H932 0.950 . S
C938 C939 1.327 . S
C939 H933 0.950 . S
C939 C938 1.327 . S
C939 C943 1.429 . S
C940 C923 1.574 . S
C940 H934 0.949 . S
C940 C944 1.368 . S
C941 C922 1.429 . S
C941 C935 1.429 . S
C941 C942 1.523 . S
C942 C923 1.368 . S
C942 C936 1.368 . S
C942 C941 1.523 . S
C943 C927 1.429 . S
C943 C939 1.429 . S
C943 C944 1.523 . S
C944 C928 1.368 . S
C944 C940 1.368 . S
C944 C943 1.523 . S
H945 C920 0.950 . S
H946 C922 0.950 . S
H947 C923 0.949 . S
H948 C925 0.950 . S
H949 C927 0.950 . S
C950 C951 1.349 . S
C950 C952 1.327 . S
C950 H975 0.950 . S
C951 C950 1.349 . S
C951 C967 1.349 . S
C952 C950 1.327 . S
C952 C971 1.429 . S
C952 H976 0.950 . S
C953 C970 1.574 . S
C953 C972 1.368 . S
C953 H977 0.949 . S
H954 C958 0.949 . S
C955 C956 1.349 . S
C955 C957 1.327 . S
C955 H978 0.950 . S
C956 C955 1.349 . S
C956 C968 1.349 . S
C957 C955 1.327 . S
C957 C973 1.429 . S
C957 H979 0.950 . S
C958 H954 0.949 . S
C958 C966 1.574 . S
C958 C974 1.368 . S
H959 C967 0.950 . S
H960 C965 0.950 . S
H961 C966 0.949 . S
H962 C968 0.950 . S
H963 C969 0.950 . S
H964 C970 0.949 . S
C965 H960 0.950 . S
C965 C967 1.327 . S
C965 C971 1.429 . S
C966 C958 1.574 . S
C966 H961 0.949 . S
C966 C972 1.368 . S
C967 C951 1.349 . S
C967 H959 0.950 . S
C967 C965 1.327 . S
C968 C956 1.349 . S
C968 H962 0.950 . S
C968 C969 1.327 . S
C969 H963 0.950 . S
C969 C968 1.327 . S
C969 C973 1.429 . S
C970 C953 1.574 . S
C970 H964 0.949 . S
C970 C974 1.368 . S
C971 C952 1.429 . S
C971 C965 1.429 . S
C971 C972 1.523 . S
C972 C953 1.368 . S
C972 C966 1.368 . S
C972 C971 1.523 . S
C973 C957 1.429 . S
C973 C969 1.429 . S
C973 C974 1.523 . S
C974 C958 1.368 . S
C974 C970 1.368 . S
C974 C973 1.523 . S
H975 C950 0.950 . S
H976 C952 0.950 . S
H977 C953 0.949 . S
H978 C955 0.950 . S
H979 C957 0.950 . S
C980 C981 1.349 . S
C980 C982 1.327 . S
C980 H1005 0.950 . S
C981 C980 1.349 . S
C981 C997 1.349 . S
C982 C980 1.327 . S
C982 C1001 1.429 . S
C982 H1006 0.950 . S
C983 C1000 1.574 . S
C983 C1002 1.368 . S
C983 H1007 0.949 . S
H984 C988 0.949 . S
C985 C986 1.349 . S
C985 C987 1.327 . S
C985 H1008 0.950 . S
C986 C985 1.349 . S
C986 C998 1.349 . S
C987 C985 1.327 . S
C987 C1003 1.429 . S
C987 H1009 0.950 . S
C988 H984 0.949 . S
C988 C996 1.574 . S
C988 C1004 1.368 . S
H989 C997 0.950 . S
H990 C995 0.950 . S
H991 C996 0.949 . S
H992 C998 0.950 . S
H993 C999 0.950 . S
H994 C1000 0.949 . S
C995 H990 0.950 . S
C995 C997 1.327 . S
C995 C1001 1.429 . S
C996 C988 1.574 . S
C996 H991 0.949 . S
C996 C1002 1.368 . S
C997 C981 1.349 . S
C997 H989 0.950 . S
C997 C995 1.327 . S
C998 C986 1.349 . S
C998 H992 0.950 . S
C998 C999 1.327 . S
C999 H993 0.950 . S
C999 C998 1.327 . S
C999 C1003 1.429 . S
C1000 C983 1.574 . S
C1000 H994 0.949 . S
C1000 C1004 1.368 . S
C1001 C982 1.429 . S
C1001 C995 1.429 . S
C1001 C1002 1.523 . S
C1002 C983 1.368 . S
C1002 C996 1.368 . S
C1002 C1001 1.523 . S
C1003 C987 1.429 . S
C1003 C999 1.429 . S
C1003 C1004 1.523 . S
C1004 C988 1.368 . S
C1004 C1000 1.368 . S
C1004 C1003 1.523 . S
H1005 C980 0.950 . S
H1006 C982 0.950 . S
H1007 C983 0.949 . S
H1008 C985 0.950 . S
H1009 C987 0.950 . S
C1010 C1011 1.349 . S
C1010 C1012 1.327 . S
C1010 H1035 0.950 . S
C1011 C1010 1.349 . S
C1011 C1027 1.349 . S
C1012 C1010 1.327 . S
C1012 C1031 1.429 . S
C1012 H1036 0.950 . S
C1013 C1030 1.574 . S
C1013 C1032 1.368 . S
C1013 H1037 0.949 . S
H1014 C1018 0.949 . S
C1015 C1016 1.349 . S
C1015 C1017 1.327 . S
C1015 H1038 0.950 . S
C1016 C1015 1.349 . S
C1016 C1028 1.349 . S
C1017 C1015 1.327 . S
C1017 C1033 1.429 . S
C1017 H1039 0.950 . S
C1018 H1014 0.949 . S
C1018 C1026 1.574 . S
C1018 C1034 1.368 . S
H1019 C1027 0.950 . S
H1020 C1025 0.950 . S
H1021 C1026 0.949 . S
H1022 C1028 0.950 . S
H1023 C1029 0.950 . S
H1024 C1030 0.949 . S
C1025 H1020 0.950 . S
C1025 C1027 1.327 . S
C1025 C1031 1.429 . S
C1026 C1018 1.574 . S
C1026 H1021 0.949 . S
C1026 C1032 1.368 . S
C1027 C1011 1.349 . S
C1027 H1019 0.950 . S
C1027 C1025 1.327 . S
C1028 C1016 1.349 . S
C1028 H1022 0.950 . S
C1028 C1029 1.327 . S
C1029 H1023 0.950 . S
C1029 C1028 1.327 . S
C1029 C1033 1.429 . S
C1030 C1013 1.574 . S
C1030 H1024 0.949 . S
C1030 C1034 1.368 . S
C1031 C1012 1.429 . S
C1031 C1025 1.429 . S
C1031 C1032 1.523 . S
C1032 C1013 1.368 . S
C1032 C1026 1.368 . S
C1032 C1031 1.523 . S
C1033 C1017 1.429 . S
C1033 C1029 1.429 . S
C1033 C1034 1.523 . S
C1034 C1018 1.368 . S
C1034 C1030 1.368 . S
C1034 C1033 1.523 . S
H1035 C1010 0.950 . S
H1036 C1012 0.950 . S
H1037 C1013 0.949 . S
H1038 C1015 0.950 . S
H1039 C1017 0.950 . S
C1040 C1041 1.349 . S
C1040 C1042 1.327 . S
C1040 H1065 0.950 . S
C1041 C1040 1.349 . S
C1041 C1057 1.349 . S
C1042 C1040 1.327 . S
C1042 C1061 1.429 . S
C1042 H1066 0.950 . S
C1043 C1060 1.574 . S
C1043 C1062 1.368 . S
C1043 H1067 0.949 . S
H1044 C1048 0.949 . S
C1045 C1046 1.349 . S
C1045 C1047 1.327 . S
C1045 H1068 0.950 . S
C1046 C1045 1.349 . S
C1046 C1058 1.349 . S
C1047 C1045 1.327 . S
C1047 C1063 1.429 . S
C1047 H1069 0.950 . S
C1048 H1044 0.949 . S
C1048 C1056 1.574 . S
C1048 C1064 1.368 . S
H1049 C1057 0.950 . S
H1050 C1055 0.950 . S
H1051 C1056 0.949 . S
H1052 C1058 0.950 . S
H1053 C1059 0.950 . S
H1054 C1060 0.949 . S
C1055 H1050 0.950 . S
C1055 C1057 1.327 . S
C1055 C1061 1.429 . S
C1056 C1048 1.574 . S
C1056 H1051 0.949 . S
C1056 C1062 1.368 . S
C1057 C1041 1.349 . S
C1057 H1049 0.950 . S
C1057 C1055 1.327 . S
C1058 C1046 1.349 . S
C1058 H1052 0.950 . S
C1058 C1059 1.327 . S
C1059 H1053 0.950 . S
C1059 C1058 1.327 . S
C1059 C1063 1.429 . S
C1060 C1043 1.574 . S
C1060 H1054 0.949 . S
C1060 C1064 1.368 . S
C1061 C1042 1.429 . S
C1061 C1055 1.429 . S
C1061 C1062 1.523 . S
C1062 C1043 1.368 . S
C1062 C1056 1.368 . S
C1062 C1061 1.523 . S
C1063 C1047 1.429 . S
C1063 C1059 1.429 . S
C1063 C1064 1.523 . S
C1064 C1048 1.368 . S
C1064 C1060 1.368 . S
C1064 C1063 1.523 . S
H1065 C1040 0.950 . S
H1066 C1042 0.950 . S
H1067 C1043 0.949 . S
H1068 C1045 0.950 . S
H1069 C1047 0.950 . S
C1070 C1071 1.349 . S
C1070 C1072 1.327 . S
C1070 H1095 0.950 . S
C1071 C1070 1.349 . S
C1071 C1087 1.349 . S
C1072 C1070 1.327 . S
C1072 C1091 1.429 . S
C1072 H1096 0.950 . S
C1073 C1090 1.574 . S
C1073 C1092 1.368 . S
C1073 H1097 0.949 . S
H1074 C1078 0.949 . S
C1075 C1076 1.349 . S
C1075 C1077 1.327 . S
C1075 H1098 0.950 . S
C1076 C1075 1.349 . S
C1076 C1088 1.349 . S
C1077 C1075 1.327 . S
C1077 C1093 1.429 . S
C1077 H1099 0.950 . S
C1078 H1074 0.949 . S
C1078 C1086 1.574 . S
C1078 C1094 1.368 . S
H1079 C1087 0.950 . S
H1080 C1085 0.950 . S
H1081 C1086 0.949 . S
H1082 C1088 0.950 . S
H1083 C1089 0.950 . S
H1084 C1090 0.949 . S
C1085 H1080 0.950 . S
C1085 C1087 1.327 . S
C1085 C1091 1.429 . S
C1086 C1078 1.574 . S
C1086 H1081 0.949 . S
C1086 C1092 1.368 . S
C1087 C1071 1.349 . S
C1087 H1079 0.950 . S
C1087 C1085 1.327 . S
C1088 C1076 1.349 . S
C1088 H1082 0.950 . S
C1088 C1089 1.327 . S
C1089 H1083 0.950 . S
C1089 C1088 1.327 . S
C1089 C1093 1.429 . S
C1090 C1073 1.574 . S
C1090 H1084 0.949 . S
C1090 C1094 1.368 . S
C1091 C1072 1.429 . S
C1091 C1085 1.429 . S
C1091 C1092 1.523 . S
C1092 C1073 1.368 . S
C1092 C1086 1.368 . S
C1092 C1091 1.523 . S
C1093 C1077 1.429 . S
C1093 C1089 1.429 . S
C1093 C1094 1.523 . S
C1094 C1078 1.368 . S
C1094 C1090 1.368 . S
C1094 C1093 1.523 . S
H1095 C1070 0.950 . S
H1096 C1072 0.950 . S
H1097 C1073 0.949 . S
H1098 C1075 0.950 . S
H1099 C1077 0.950 . S
C1100 C1101 1.349 . S
C1100 C1102 1.327 . S
C1100 H1125 0.950 . S
C1101 C1100 1.349 . S
C1101 C1117 1.349 . S
C1102 C1100 1.327 . S
C1102 C1121 1.429 . S
C1102 H1126 0.950 . S
C1103 C1120 1.574 . S
C1103 C1122 1.368 . S
C1103 H1127 0.949 . S
H1104 C1108 0.949 . S
C1105 C1106 1.349 . S
C1105 C1107 1.327 . S
C1105 H1128 0.950 . S
C1106 C1105 1.349 . S
C1106 C1118 1.349 . S
C1107 C1105 1.327 . S
C1107 C1123 1.429 . S
C1107 H1129 0.950 . S
C1108 H1104 0.949 . S
C1108 C1116 1.574 . S
C1108 C1124 1.368 . S
H1109 C1117 0.950 . S
H1110 C1115 0.950 . S
H1111 C1116 0.949 . S
H1112 C1118 0.950 . S
H1113 C1119 0.950 . S
H1114 C1120 0.949 . S
C1115 H1110 0.950 . S
C1115 C1117 1.327 . S
C1115 C1121 1.429 . S
C1116 C1108 1.574 . S
C1116 H1111 0.949 . S
C1116 C1122 1.368 . S
C1117 C1101 1.349 . S
C1117 H1109 0.950 . S
C1117 C1115 1.327 . S
C1118 C1106 1.349 . S
C1118 H1112 0.950 . S
C1118 C1119 1.327 . S
C1119 H1113 0.950 . S
C1119 C1118 1.327 . S
C1119 C1123 1.429 . S
C1120 C1103 1.574 . S
C1120 H1114 0.949 . S
C1120 C1124 1.368 . S
C1121 C1102 1.429 . S
C1121 C1115 1.429 . S
C1121 C1122 1.523 . S
C1122 C1103 1.368 . S
C1122 C1116 1.368 . S
C1122 C1121 1.523 . S
C1123 C1107 1.429 . S
C1123 C1119 1.429 . S
C1123 C1124 1.523 . S
C1124 C1108 1.368 . S
C1124 C1120 1.368 . S
C1124 C1123 1.523 . S
H1125 C1100 0.950 . S
H1126 C1102 0.950 . S
H1127 C1103 0.949 . S
H1128 C1105 0.950 . S
H1129 C1107 0.950 . S
C1130 C1131 1.349 . S
C1130 C1132 1.327 . S
C1130 H1155 0.950 . S
C1131 C1130 1.349 . S
C1131 C1147 1.349 . S
C1132 C1130 1.327 . S
C1132 C1151 1.429 . S
C1132 H1156 0.950 . S
C1133 C1150 1.574 . S
C1133 C1152 1.368 . S
C1133 H1157 0.949 . S
H1134 C1138 0.949 . S
C1135 C1136 1.349 . S
C1135 C1137 1.327 . S
C1135 H1158 0.950 . S
C1136 C1135 1.349 . S
C1136 C1148 1.349 . S
C1137 C1135 1.327 . S
C1137 C1153 1.429 . S
C1137 H1159 0.950 . S
C1138 H1134 0.949 . S
C1138 C1146 1.574 . S
C1138 C1154 1.368 . S
H1139 C1147 0.950 . S
H1140 C1145 0.950 . S
H1141 C1146 0.949 . S
H1142 C1148 0.950 . S
H1143 C1149 0.950 . S
H1144 C1150 0.949 . S
C1145 H1140 0.950 . S
C1145 C1147 1.327 . S
C1145 C1151 1.429 . S
C1146 C1138 1.574 . S
C1146 H1141 0.949 . S
C1146 C1152 1.368 . S
C1147 C1131 1.349 . S
C1147 H1139 0.950 . S
C1147 C1145 1.327 . S
C1148 C1136 1.349 . S
C1148 H1142 0.950 . S
C1148 C1149 1.327 . S
C1149 H1143 0.950 . S
C1149 C1148 1.327 . S
C1149 C1153 1.429 . S
C1150 C1133 1.574 . S
C1150 H1144 0.949 . S
C1150 C1154 1.368 . S
C1151 C1132 1.429 . S
C1151 C1145 1.429 . S
C1151 C1152 1.523 . S
C1152 C1133 1.368 . S
C1152 C1146 1.368 . S
C1152 C1151 1.523 . S
C1153 C1137 1.429 . S
C1153 C1149 1.429 . S
C1153 C1154 1.523 . S
C1154 C1138 1.368 . S
C1154 C1150 1.368 . S
C1154 C1153 1.523 . S
H1155 C1130 0.950 . S
H1156 C1132 0.950 . S
H1157 C1133 0.949 . S
H1158 C1135 0.950 . S
H1159 C1137 0.950 . S
C1160 C1161 1.349 . S
C1160 C1162 1.327 . S
C1160 H1185 0.950 . S
C1161 C1160 1.349 . S
C1161 C1177 1.349 . S
C1162 C1160 1.327 . S
C1162 C1181 1.429 . S
C1162 H1186 0.950 . S
C1163 C1180 1.574 . S
C1163 C1182 1.368 . S
C1163 H1187 0.949 . S
H1164 C1168 0.949 . S
C1165 C1166 1.349 . S
C1165 C1167 1.327 . S
C1165 H1188 0.950 . S
C1166 C1165 1.349 . S
C1166 C1178 1.349 . S
C1167 C1165 1.327 . S
C1167 C1183 1.429 . S
C1167 H1189 0.950 . S
C1168 H1164 0.949 . S
C1168 C1176 1.574 . S
C1168 C1184 1.368 . S
H1169 C1177 0.950 . S
H1170 C1175 0.950 . S
H1171 C1176 0.949 . S
H1172 C1178 0.950 . S
H1173 C1179 0.950 . S
H1174 C1180 0.949 . S
C1175 H1170 0.950 . S
C1175 C1177 1.327 . S
C1175 C1181 1.429 . S
C1176 C1168 1.574 . S
C1176 H1171 0.949 . S
C1176 C1182 1.368 . S
C1177 C1161 1.349 . S
C1177 H1169 0.950 . S
C1177 C1175 1.327 . S
C1178 C1166 1.349 . S
C1178 H1172 0.950 . S
C1178 C1179 1.327 . S
C1179 H1173 0.950 . S
C1179 C1178 1.327 . S
C1179 C1183 1.429 . S
C1180 C1163 1.574 . S
C1180 H1174 0.949 . S
C1180 C1184 1.368 . S
C1181 C1162 1.429 . S
C1181 C1175 1.429 . S
C1181 C1182 1.523 . S
C1182 C1163 1.368 . S
C1182 C1176 1.368 . S
C1182 C1181 1.523 . S
C1183 C1167 1.429 . S
C1183 C1179 1.429 . S
C1183 C1184 1.523 . S
C1184 C1168 1.368 . S
C1184 C1180 1.368 . S
C1184 C1183 1.523 . S
H1185 C1160 0.950 . S
H1186 C1162 0.950 . S
H1187 C1163 0.949 . S
H1188 C1165 0.950 . S
H1189 C1167 0.950 . S
C1190 C1191 1.349 . S
C1190 C1192 1.327 . S
C1190 H1215 0.950 . S
C1191 C1190 1.349 . S
C1191 C1207 1.349 . S
C1192 C1190 1.327 . S
C1192 C1211 1.429 . S
C1192 H1216 0.950 . S
C1193 C1210 1.574 . S
C1193 C1212 1.368 . S
C1193 H1217 0.949 . S
H1194 C1198 0.949 . S
C1195 C1196 1.349 . S
C1195 C1197 1.327 . S
C1195 H1218 0.950 . S
C1196 C1195 1.349 . S
C1196 C1208 1.349 . S
C1197 C1195 1.327 . S
C1197 C1213 1.429 . S
C1197 H1219 0.950 . S
C1198 H1194 0.949 . S
C1198 C1206 1.574 . S
C1198 C1214 1.368 . S
H1199 C1207 0.950 . S
H1200 C1205 0.950 . S
H1201 C1206 0.949 . S
H1202 C1208 0.950 . S
H1203 C1209 0.950 . S
H1204 C1210 0.949 . S
C1205 H1200 0.950 . S
C1205 C1207 1.327 . S
C1205 C1211 1.429 . S
C1206 C1198 1.574 . S
C1206 H1201 0.949 . S
C1206 C1212 1.368 . S
C1207 C1191 1.349 . S
C1207 H1199 0.950 . S
C1207 C1205 1.327 . S
C1208 C1196 1.349 . S
C1208 H1202 0.950 . S
C1208 C1209 1.327 . S
C1209 H1203 0.950 . S
C1209 C1208 1.327 . S
C1209 C1213 1.429 . S
C1210 C1193 1.574 . S
C1210 H1204 0.949 . S
C1210 C1214 1.368 . S
C1211 C1192 1.429 . S
C1211 C1205 1.429 . S
C1211 C1212 1.523 . S
C1212 C1193 1.368 . S
C1212 C1206 1.368 . S
C1212 C1211 1.523 . S
C1213 C1197 1.429 . S
C1213 C1209 1.429 . S
C1213 C1214 1.523 . S
C1214 C1198 1.368 . S
C1214 C1210 1.368 . S
C1214 C1213 1.523 . S
H1215 C1190 0.950 . S
H1216 C1192 0.950 . S
H1217 C1193 0.949 . S
H1218 C1195 0.950 . S
H1219 C1197 0.950 . S
C1220 C1221 1.349 . S
C1220 C1222 1.327 . S
C1220 H1245 0.950 . S
C1221 C1220 1.349 . S
C1221 C1237 1.349 . S
C1222 C1220 1.327 . S
C1222 C1241 1.429 . S
C1222 H1246 0.950 . S
C1223 C1240 1.574 . S
C1223 C1242 1.368 . S
C1223 H1247 0.949 . S
H1224 C1228 0.949 . S
C1225 C1226 1.349 . S
C1225 C1227 1.327 . S
C1225 H1248 0.950 . S
C1226 C1225 1.349 . S
C1226 C1238 1.349 . S
C1227 C1225 1.327 . S
C1227 C1243 1.429 . S
C1227 H1249 0.950 . S
C1228 H1224 0.949 . S
C1228 C1236 1.574 . S
C1228 C1244 1.368 . S
H1229 C1237 0.950 . S
H1230 C1235 0.950 . S
H1231 C1236 0.949 . S
H1232 C1238 0.950 . S
H1233 C1239 0.950 . S
H1234 C1240 0.949 . S
C1235 H1230 0.950 . S
C1235 C1237 1.327 . S
C1235 C1241 1.429 . S
C1236 C1228 1.574 . S
C1236 H1231 0.949 . S
C1236 C1242 1.368 . S
C1237 C1221 1.349 . S
C1237 H1229 0.950 . S
C1237 C1235 1.327 . S
C1238 C1226 1.349 . S
C1238 H1232 0.950 . S
C1238 C1239 1.327 . S
C1239 H1233 0.950 . S
C1239 C1238 1.327 . S
C1239 C1243 1.429 . S
C1240 C1223 1.574 . S
C1240 H1234 0.949 . S
C1240 C1244 1.368 . S
C1241 C1222 1.429 . S
C1241 C1235 1.429 . S
C1241 C1242 1.523 . S
C1242 C1223 1.368 . S
C1242 C1236 1.368 . S
C1242 C1241 1.523 . S
C1243 C1227 1.429 . S
C1243 C1239 1.429 . S
C1243 C1244 1.523 . S
C1244 C1228 1.368 . S
C1244 C1240 1.368 . S
C1244 C1243 1.523 . S
H1245 C1220 0.950 . S
H1246 C1222 0.950 . S
H1247 C1223 0.949 . S
H1248 C1225 0.950 . S
H1249 C1227 0.950 . S
C1250 C1251 1.349 . S
C1250 C1252 1.327 . S
C1250 H1275 0.950 . S
C1251 C1250 1.349 . S
C1251 C1267 1.349 . S
C1252 C1250 1.327 . S
C1252 C1271 1.429 . S
C1252 H1276 0.950 . S
C1253 C1270 1.574 . S
C1253 C1272 1.368 . S
C1253 H1277 0.949 . S
H1254 C1258 0.949 . S
C1255 C1256 1.349 . S
C1255 C1257 1.327 . S
C1255 H1278 0.950 . S
C1256 C1255 1.349 . S
C1256 C1268 1.349 . S
C1257 C1255 1.327 . S
C1257 C1273 1.429 . S
C1257 H1279 0.950 . S
C1258 H1254 0.949 . S
C1258 C1266 1.574 . S
C1258 C1274 1.368 . S
H1259 C1267 0.950 . S
H1260 C1265 0.950 . S
H1261 C1266 0.949 . S
H1262 C1268 0.950 . S
H1263 C1269 0.950 . S
H1264 C1270 0.949 . S
C1265 H1260 0.950 . S
C1265 C1267 1.327 . S
C1265 C1271 1.429 . S
C1266 C1258 1.574 . S
C1266 H1261 0.949 . S
C1266 C1272 1.368 . S
C1267 C1251 1.349 . S
C1267 H1259 0.950 . S
C1267 C1265 1.327 . S
C1268 C1256 1.349 . S
C1268 H1262 0.950 . S
C1268 C1269 1.327 . S
C1269 H1263 0.950 . S
C1269 C1268 1.327 . S
C1269 C1273 1.429 . S
C1270 C1253 1.574 . S
C1270 H1264 0.949 . S
C1270 C1274 1.368 . S
C1271 C1252 1.429 . S
C1271 C1265 1.429 . S
C1271 C1272 1.523 . S
C1272 C1253 1.368 . S
C1272 C1266 1.368 . S
C1272 C1271 1.523 . S
C1273 C1257 1.429 . S
C1273 C1269 1.429 . S
C1273 C1274 1.523 . S
C1274 C1258 1.368 . S
C1274 C1270 1.368 . S
C1274 C1273 1.523 . S
H1275 C1250 0.950 . S
H1276 C1252 0.950 . S
H1277 C1253 0.949 . S
H1278 C1255 0.950 . S
H1279 C1257 0.950 . S
C1280 C1281 1.349 . S
C1280 C1282 1.327 . S
C1280 H1305 0.950 . S
C1281 C1280 1.349 . S
C1281 C1297 1.349 . S
C1282 C1280 1.327 . S
C1282 C1301 1.429 . S
C1282 H1306 0.950 . S
C1283 C1300 1.574 . S
C1283 C1302 1.368 . S
C1283 H1307 0.949 . S
H1284 C1288 0.949 . S
C1285 C1286 1.349 . S
C1285 C1287 1.327 . S
C1285 H1308 0.950 . S
C1286 C1285 1.349 . S
C1286 C1298 1.349 . S
C1287 C1285 1.327 . S
C1287 C1303 1.429 . S
C1287 H1309 0.950 . S
C1288 H1284 0.949 . S
C1288 C1296 1.574 . S
C1288 C1304 1.368 . S
H1289 C1297 0.950 . S
H1290 C1295 0.950 . S
H1291 C1296 0.949 . S
H1292 C1298 0.950 . S
H1293 C1299 0.950 . S
H1294 C1300 0.949 . S
C1295 H1290 0.950 . S
C1295 C1297 1.327 . S
C1295 C1301 1.429 . S
C1296 C1288 1.574 . S
C1296 H1291 0.949 . S
C1296 C1302 1.368 . S
C1297 C1281 1.349 . S
C1297 H1289 0.950 . S
C1297 C1295 1.327 . S
C1298 C1286 1.349 . S
C1298 H1292 0.950 . S
C1298 C1299 1.327 . S
C1299 H1293 0.950 . S
C1299 C1298 1.327 . S
C1299 C1303 1.429 . S
C1300 C1283 1.574 . S
C1300 H1294 0.949 . S
C1300 C1304 1.368 . S
C1301 C1282 1.429 . S
C1301 C1295 1.429 . S
C1301 C1302 1.523 . S
C1302 C1283 1.368 . S
C1302 C1296 1.368 . S
C1302 C1301 1.523 . S
C1303 C1287 1.429 . S
C1303 C1299 1.429 . S
C1303 C1304 1.523 . S
C1304 C1288 1.368 . S
C1304 C1300 1.368 . S
C1304 C1303 1.523 . S
H1305 C1280 0.950 . S
H1306 C1282 0.950 . S
H1307 C1283 0.949 . S
H1308 C1285 0.950 . S
H1309 C1287 0.950 . S
C1310 C1311 1.349 . S
C1310 C1312 1.327 . S
C1310 H1335 0.950 . S
C1311 C1310 1.349 . S
C1311 C1327 1.349 . S
C1312 C1310 1.327 . S
C1312 C1331 1.429 . S
C1312 H1336 0.950 . S
C1313 C1330 1.574 . S
C1313 C1332 1.368 . S
C1313 H1337 0.949 . S
H1314 C1318 0.949 . S
C1315 C1316 1.349 . S
C1315 C1317 1.327 . S
C1315 H1338 0.950 . S
C1316 C1315 1.349 . S
C1316 C1328 1.349 . S
C1317 C1315 1.327 . S
C1317 C1333 1.429 . S
C1317 H1339 0.950 . S
C1318 H1314 0.949 . S
C1318 C1326 1.574 . S
C1318 C1334 1.368 . S
H1319 C1327 0.950 . S
H1320 C1325 0.950 . S
H1321 C1326 0.949 . S
H1322 C1328 0.950 . S
H1323 C1329 0.950 . S
H1324 C1330 0.949 . S
C1325 H1320 0.950 . S
C1325 C1327 1.327 . S
C1325 C1331 1.429 . S
C1326 C1318 1.574 . S
C1326 H1321 0.949 . S
C1326 C1332 1.368 . S
C1327 C1311 1.349 . S
C1327 H1319 0.950 . S
C1327 C1325 1.327 . S
C1328 C1316 1.349 . S
C1328 H1322 0.950 . S
C1328 C1329 1.327 . S
C1329 H1323 0.950 . S
C1329 C1328 1.327 . S
C1329 C1333 1.429 . S
C1330 C1313 1.574 . S
C1330 H1324 0.949 . S
C1330 C1334 1.368 . S
C1331 C1312 1.429 . S
C1331 C1325 1.429 . S
C1331 C1332 1.523 . S
C1332 C1313 1.368 . S
C1332 C1326 1.368 . S
C1332 C1331 1.523 . S
C1333 C1317 1.429 . S
C1333 C1329 1.429 . S
C1333 C1334 1.523 . S
C1334 C1318 1.368 . S
C1334 C1330 1.368 . S
C1334 C1333 1.523 . S
H1335 C1310 0.950 . S
H1336 C1312 0.950 . S
H1337 C1313 0.949 . S
H1338 C1315 0.950 . S
H1339 C1317 0.950 . S
C1340 C1341 1.349 . S
C1340 C1342 1.327 . S
C1340 H1365 0.950 . S
C1341 C1340 1.349 . S
C1341 C1357 1.349 . S
C1342 C1340 1.327 . S
C1342 C1361 1.429 . S
C1342 H1366 0.950 . S
C1343 C1360 1.574 . S
C1343 C1362 1.368 . S
C1343 H1367 0.949 . S
H1344 C1348 0.949 . S
C1345 C1346 1.349 . S
C1345 C1347 1.327 . S
C1345 H1368 0.950 . S
C1346 C1345 1.349 . S
C1346 C1358 1.349 . S
C1347 C1345 1.327 . S
C1347 C1363 1.429 . S
C1347 H1369 0.950 . S
C1348 H1344 0.949 . S
C1348 C1356 1.574 . S
C1348 C1364 1.368 . S
H1349 C1357 0.950 . S
H1350 C1355 0.950 . S
H1351 C1356 0.949 . S
H1352 C1358 0.950 . S
H1353 C1359 0.950 . S
H1354 C1360 0.949 . S
C1355 H1350 0.950 . S
C1355 C1357 1.327 . S
C1355 C1361 1.429 . S
C1356 C1348 1.574 . S
C1356 H1351 0.949 . S
C1356 C1362 1.368 . S
C1357 C1341 1.349 . S
C1357 H1349 0.950 . S
C1357 C1355 1.327 . S
C1358 C1346 1.349 . S
C1358 H1352 0.950 . S
C1358 C1359 1.327 . S
C1359 H1353 0.950 . S
C1359 C1358 1.327 . S
C1359 C1363 1.429 . S
C1360 C1343 1.574 . S
C1360 H1354 0.949 . S
C1360 C1364 1.368 . S
C1361 C1342 1.429 . S
C1361 C1355 1.429 . S
C1361 C1362 1.523 . S
C1362 C1343 1.368 . S
C1362 C1356 1.368 . S
C1362 C1361 1.523 . S
C1363 C1347 1.429 . S
C1363 C1359 1.429 . S
C1363 C1364 1.523 . S
C1364 C1348 1.368 . S
C1364 C1360 1.368 . S
C1364 C1363 1.523 . S
H1365 C1340 0.950 . S
H1366 C1342 0.950 . S
H1367 C1343 0.949 . S
H1368 C1345 0.950 . S
H1369 C1347 0.950 . S
C1370 C1371 1.349 . S
C1370 C1372 1.327 . S
C1370 H1395 0.950 . S
C1371 C1370 1.349 . S
C1371 C1387 1.349 . S
C1372 C1370 1.327 . S
C1372 C1391 1.429 . S
C1372 H1396 0.950 . S
C1373 C1390 1.574 . S
C1373 C1392 1.368 . S
C1373 H1397 0.949 . S
H1374 C1378 0.949 . S
C1375 C1376 1.349 . S
C1375 C1377 1.327 . S
C1375 H1398 0.950 . S
C1376 C1375 1.349 . S
C1376 C1388 1.349 . S
C1377 C1375 1.327 . S
C1377 C1393 1.429 . S
C1377 H1399 0.950 . S
C1378 H1374 0.949 . S
C1378 C1386 1.574 . S
C1378 C1394 1.368 . S
H1379 C1387 0.950 . S
H1380 C1385 0.950 . S
H1381 C1386 0.949 . S
H1382 C1388 0.950 . S
H1383 C1389 0.950 . S
H1384 C1390 0.949 . S
C1385 H1380 0.950 . S
C1385 C1387 1.327 . S
C1385 C1391 1.429 . S
C1386 C1378 1.574 . S
C1386 H1381 0.949 . S
C1386 C1392 1.368 . S
C1387 C1371 1.349 . S
C1387 H1379 0.950 . S
C1387 C1385 1.327 . S
C1388 C1376 1.349 . S
C1388 H1382 0.950 . S
C1388 C1389 1.327 . S
C1389 H1383 0.950 . S
C1389 C1388 1.327 . S
C1389 C1393 1.429 . S
C1390 C1373 1.574 . S
C1390 H1384 0.949 . S
C1390 C1394 1.368 . S
C1391 C1372 1.429 . S
C1391 C1385 1.429 . S
C1391 C1392 1.523 . S
C1392 C1373 1.368 . S
C1392 C1386 1.368 . S
C1392 C1391 1.523 . S
C1393 C1377 1.429 . S
C1393 C1389 1.429 . S
C1393 C1394 1.523 . S
C1394 C1378 1.368 . S
C1394 C1390 1.368 . S
C1394 C1393 1.523 . S
H1395 C1370 0.950 . S
H1396 C1372 0.950 . S
H1397 C1373 0.949 . S
H1398 C1375 0.950 . S
H1399 C1377 0.950 . S
C1400 C1401 1.349 . S
C1400 C1402 1.327 . S
C1400 H1425 0.950 . S
C1401 C1400 1.349 . S
C1401 C1417 1.349 . S
C1402 C1400 1.327 . S
C1402 C1421 1.429 . S
C1402 H1426 0.950 . S
C1403 C1420 1.574 . S
C1403 C1422 1.368 . S
C1403 H1427 0.949 . S
H1404 C1408 0.949 . S
C1405 C1406 1.349 . S
C1405 C1407 1.327 . S
C1405 H1428 0.950 . S
C1406 C1405 1.349 . S
C1406 C1418 1.349 . S
C1407 C1405 1.327 . S
C1407 C1423 1.429 . S
C1407 H1429 0.950 . S
C1408 H1404 0.949 . S
C1408 C1416 1.574 . S
C1408 C1424 1.368 . S
H1409 C1417 0.950 . S
H1410 C1415 0.950 . S
H1411 C1416 0.949 . S
H1412 C1418 0.950 . S
H1413 C1419 0.950 . S
H1414 C1420 0.949 . S
C1415 H1410 0.950 . S
C1415 C1417 1.327 . S
C1415 C1421 1.429 . S
C1416 C1408 1.574 . S
C1416 H1411 0.949 . S
C1416 C1422 1.368 . S
C1417 C1401 1.349 . S
C1417 H1409 0.950 . S
C1417 C1415 1.327 . S
C1418 C1406 1.349 . S
C1418 H1412 0.950 . S
C1418 C1419 1.327 . S
C1419 H1413 0.950 . S
C1419 C1418 1.327 . S
C1419 C1423 1.429 . S
C1420 C1403 1.574 . S
C1420 H1414 0.949 . S
C1420 C1424 1.368 . S
C1421 C1402 1.429 . S
C1421 C1415 1.429 . S
C1421 C1422 1.523 . S
C1422 C1403 1.368 . S
C1422 C1416 1.368 . S
C1422 C1421 1.523 . S
C1423 C1407 1.429 . S
C1423 C1419 1.429 . S
C1423 C1424 1.523 . S
C1424 C1408 1.368 . S
C1424 C1420 1.368 . S
C1424 C1423 1.523 . S
H1425 C1400 0.950 . S
H1426 C1402 0.950 . S
H1427 C1403 0.949 . S
H1428 C1405 0.950 . S
H1429 C1407 0.950 . S
C1430 C1431 1.349 . S
C1430 C1432 1.327 . S
C1430 H1455 0.950 . S
C1431 C1430 1.349 . S
C1431 C1447 1.349 . S
C1432 C1430 1.327 . S
C1432 C1451 1.429 . S
C1432 H1456 0.950 . S
C1433 C1450 1.574 . S
C1433 C1452 1.368 . S
C1433 H1457 0.949 . S
H1434 C1438 0.949 . S
C1435 C1436 1.349 . S
C1435 C1437 1.327 . S
C1435 H1458 0.950 . S
C1436 C1435 1.349 . S
C1436 C1448 1.349 . S
C1437 C1435 1.327 . S
C1437 C1453 1.429 . S
C1437 H1459 0.950 . S
C1438 H1434 0.949 . S
C1438 C1446 1.574 . S
C1438 C1454 1.368 . S
H1439 C1447 0.950 . S
H1440 C1445 0.950 . S
H1441 C1446 0.949 . S
H1442 C1448 0.950 . S
H1443 C1449 0.950 . S
H1444 C1450 0.949 . S
C1445 H1440 0.950 . S
C1445 C1447 1.327 . S
C1445 C1451 1.429 . S
C1446 C1438 1.574 . S
C1446 H1441 0.949 . S
C1446 C1452 1.368 . S
C1447 C1431 1.349 . S
C1447 H1439 0.950 . S
C1447 C1445 1.327 . S
C1448 C1436 1.349 . S
C1448 H1442 0.950 . S
C1448 C1449 1.327 . S
C1449 H1443 0.950 . S
C1449 C1448 1.327 . S
C1449 C1453 1.429 . S
C1450 C1433 1.574 . S
C1450 H1444 0.949 . S
C1450 C1454 1.368 . S
C1451 C1432 1.429 . S
C1451 C1445 1.429 . S
C1451 C1452 1.523 . S
C1452 C1433 1.368 . S
C1452 C1446 1.368 . S
C1452 C1451 1.523 . S
C1453 C1437 1.429 . S
C1453 C1449 1.429 . S
C1453 C1454 1.523 . S
C1454 C1438 1.368 . S
C1454 C1450 1.368 . S
C1454 C1453 1.523 . S
H1455 C1430 0.950 . S
H1456 C1432 0.950 . S
H1457 C1433 0.949 . S
H1458 C1435 0.950 . S
H1459 C1437 0.950 . S
C1460 C1461 1.349 . S
C1460 C1462 1.327 . S
C1460 H1485 0.950 . S
C1461 C1460 1.349 . S
C1461 C1477 1.349 . S
C1462 C1460 1.327 . S
C1462 C1481 1.429 . S
C1462 H1486 0.950 . S
C1463 C1480 1.574 . S
C1463 C1482 1.368 . S
C1463 H1487 0.949 . S
H1464 C1468 0.949 . S
C1465 C1466 1.349 . S
C1465 C1467 1.327 . S
C1465 H1488 0.950 . S
C1466 C1465 1.349 . S
C1466 C1478 1.349 . S
C1467 C1465 1.327 . S
C1467 C1483 1.429 . S
C1467 H1489 0.950 . S
C1468 H1464 0.949 . S
C1468 C1476 1.574 . S
C1468 C1484 1.368 . S
H1469 C1477 0.950 . S
H1470 C1475 0.950 . S
H1471 C1476 0.949 . S
H1472 C1478 0.950 . S
H1473 C1479 0.950 . S
H1474 C1480 0.949 . S
C1475 H1470 0.950 . S
C1475 C1477 1.327 . S
C1475 C1481 1.429 . S
C1476 C1468 1.574 . S
C1476 H1471 0.949 . S
C1476 C1482 1.368 . S
C1477 C1461 1.349 . S
C1477 H1469 0.950 . S
C1477 C1475 1.327 . S
C1478 C1466 1.349 . S
C1478 H1472 0.950 . S
C1478 C1479 1.327 . S
C1479 H1473 0.950 . S
C1479 C1478 1.327 . S
C1479 C1483 1.429 . S
C1480 C1463 1.574 . S
C1480 H1474 0.949 . S
C1480 C1484 1.368 . S
C1481 C1462 1.429 . S
C1481 C1475 1.429 . S
C1481 C1482 1.523 . S
C1482 C1463 1.368 . S
C1482 C1476 1.368 . S
C1482 C1481 1.523 . S
C1483 C1467 1.429 . S
C1483 C1479 1.429 . S
C1483 C1484 1.523 . S
C1484 C1468 1.368 . S
C1484 C1480 1.368 . S
C1484 C1483 1.523 . S
H1485 C1460 0.950 . S
H1486 C1462 0.950 . S
H1487 C1463 0.949 . S
H1488 C1465 0.950 . S
H1489 C1467 0.950 . S
C1490 C1491 1.349 . S
C1490 C1492 1.327 . S
C1490 H1515 0.950 . S
C1491 C1490 1.349 . S
C1491 C1507 1.349 . S
C1492 C1490 1.327 . S
C1492 C1511 1.429 . S
C1492 H1516 0.950 . S
C1493 C1510 1.574 . S
C1493 C1512 1.368 . S
C1493 H1517 0.949 . S
H1494 C1498 0.949 . S
C1495 C1496 1.349 . S
C1495 C1497 1.327 . S
C1495 H1518 0.950 . S
C1496 C1495 1.349 . S
C1496 C1508 1.349 . S
C1497 C1495 1.327 . S
C1497 C1513 1.429 . S
C1497 H1519 0.950 . S
C1498 H1494 0.949 . S
C1498 C1506 1.574 . S
C1498 C1514 1.368 . S
H1499 C1507 0.950 . S
H1500 C1505 0.950 . S
H1501 C1506 0.949 . S
H1502 C1508 0.950 . S
H1503 C1509 0.950 . S
H1504 C1510 0.949 . S
C1505 H1500 0.950 . S
C1505 C1507 1.327 . S
C1505 C1511 1.429 . S
C1506 C1498 1.574 . S
C1506 H1501 0.949 . S
C1506 C1512 1.368 . S
C1507 C1491 1.349 . S
C1507 H1499 0.950 . S
C1507 C1505 1.327 . S
C1508 C1496 1.349 . S
C1508 H1502 0.950 . S
C1508 C1509 1.327 . S
C1509 H1503 0.950 . S
C1509 C1508 1.327 . S
C1509 C1513 1.429 . S
C1510 C1493 1.574 . S
C1510 H1504 0.949 . S
C1510 C1514 1.368 . S
C1511 C1492 1.429 . S
C1511 C1505 1.429 . S
C1511 C1512 1.523 . S
C1512 C1493 1.368 . S
C1512 C1506 1.368 . S
C1512 C1511 1.523 . S
C1513 C1497 1.429 . S
C1513 C1509 1.429 . S
C1513 C1514 1.523 . S
C1514 C1498 1.368 . S
C1514 C1510 1.368 . S
C1514 C1513 1.523 . S
H1515 C1490 0.950 . S
H1516 C1492 0.950 . S
H1517 C1493 0.949 . S
H1518 C1495 0.950 . S
H1519 C1497 0.950 . S
C1520 C1521 1.349 . S
C1520 C1522 1.327 . S
C1520 H1545 0.950 . S
C1521 C1520 1.349 . S
C1521 C1537 1.349 . S
C1522 C1520 1.327 . S
C1522 C1541 1.429 . S
C1522 H1546 0.950 . S
C1523 C1540 1.574 . S
C1523 C1542 1.368 . S
C1523 H1547 0.949 . S
H1524 C1528 0.949 . S
C1525 C1526 1.349 . S
C1525 C1527 1.327 . S
C1525 H1548 0.950 . S
C1526 C1525 1.349 . S
C1526 C1538 1.349 . S
C1527 C1525 1.327 . S
C1527 C1543 1.429 . S
C1527 H1549 0.950 . S
C1528 H1524 0.949 . S
C1528 C1536 1.574 . S
C1528 C1544 1.368 . S
H1529 C1537 0.950 . S
H1530 C1535 0.950 . S
H1531 C1536 0.949 . S
H1532 C1538 0.950 . S
H1533 C1539 0.950 . S
H1534 C1540 0.949 . S
C1535 H1530 0.950 . S
C1535 C1537 1.327 . S
C1535 C1541 1.429 . S
C1536 C1528 1.574 . S
C1536 H1531 0.949 . S
C1536 C1542 1.368 . S
C1537 C1521 1.349 . S
C1537 H1529 0.950 . S
C1537 C1535 1.327 . S
C1538 C1526 1.349 . S
C1538 H1532 0.950 . S
C1538 C1539 1.327 . S
C1539 H1533 0.950 . S
C1539 C1538 1.327 . S
C1539 C1543 1.429 . S
C1540 C1523 1.574 . S
C1540 H1534 0.949 . S
C1540 C1544 1.368 . S
C1541 C1522 1.429 . S
C1541 C1535 1.429 . S
C1541 C1542 1.523 . S
C1542 C1523 1.368 . S
C1542 C1536 1.368 . S
C1542 C1541 1.523 . S
C1543 C1527 1.429 . S
C1543 C1539 1.429 . S
C1543 C1544 1.523 . S
C1544 C1528 1.368 . S
C1544 C1540 1.368 . S
C1544 C1543 1.523 . S
H1545 C1520 0.950 . S
H1546 C1522 0.950 . S
H1547 C1523 0.949 . S
H1548 C1525 0.950 . S
H1549 C1527 0.950 . S
C1550 C1551 1.349 . S
C1550 C1552 1.327 . S
C1550 H1575 0.950 . S
C1551 C1550 1.349 . S
C1551 C1567 1.349 . S
C1552 C1550 1.327 . S
C1552 C1571 1.429 . S
C1552 H1576 0.950 . S
C1553 C1570 1.574 . S
C1553 C1572 1.368 . S
C1553 H1577 0.949 . S
H1554 C1558 0.949 . S
C1555 C1556 1.349 . S
C1555 C1557 1.327 . S
C1555 H1578 0.950 . S
C1556 C1555 1.349 . S
C1556 C1568 1.349 . S
C1557 C1555 1.327 . S
C1557 C1573 1.429 . S
C1557 H1579 0.950 . S
C1558 H1554 0.949 . S
C1558 C1566 1.574 . S
C1558 C1574 1.368 . S
H1559 C1567 0.950 . S
H1560 C1565 0.950 . S
H1561 C1566 0.949 . S
H1562 C1568 0.950 . S
H1563 C1569 0.950 . S
H1564 C1570 0.949 . S
C1565 H1560 0.950 . S
C1565 C1567 1.327 . S
C1565 C1571 1.429 . S
C1566 C1558 1.574 . S
C1566 H1561 0.949 . S
C1566 C1572 1.368 . S
C1567 C1551 1.349 . S
C1567 H1559 0.950 . S
C1567 C1565 1.327 . S
C1568 C1556 1.349 . S
C1568 H1562 0.950 . S
C1568 C1569 1.327 . S
C1569 H1563 0.950 . S
C1569 C1568 1.327 . S
C1569 C1573 1.429 . S
C1570 C1553 1.574 . S
C1570 H1564 0.949 . S
C1570 C1574 1.368 . S
C1571 C1552 1.429 . S
C1571 C1565 1.429 . S
C1571 C1572 1.523 . S
C1572 C1553 1.368 . S
C1572 C1566 1.368 . S
C1572 C1571 1.523 . S
C1573 C1557 1.429 . S
C1573 C1569 1.429 . S
C1573 C1574 1.523 . S
C1574 C1558 1.368 . S
C1574 C1570 1.368 . S
C1574 C1573 1.523 . S
H1575 C1550 0.950 . S
H1576 C1552 0.950 . S
H1577 C1553 0.949 . S
H1578 C1555 0.950 . S
H1579 C1557 0.950 . S
C1580 C1581 1.349 . S
C1580 C1582 1.327 . S
C1580 H1605 0.950 . S
C1581 C1580 1.349 . S
C1581 C1597 1.349 . S
C1582 C1580 1.327 . S
C1582 C1601 1.429 . S
C1582 H1606 0.950 . S
C1583 C1600 1.574 . S
C1583 C1602 1.368 . S
C1583 H1607 0.949 . S
H1584 C1588 0.949 . S
C1585 C1586 1.349 . S
C1585 C1587 1.327 . S
C1585 H1608 0.950 . S
C1586 C1585 1.349 . S
C1586 C1598 1.349 . S
C1587 C1585 1.327 . S
C1587 C1603 1.429 . S
C1587 H1609 0.950 . S
C1588 H1584 0.949 . S
C1588 C1596 1.574 . S
C1588 C1604 1.368 . S
H1589 C1597 0.950 . S
H1590 C1595 0.950 . S
H1591 C1596 0.949 . S
H1592 C1598 0.950 . S
H1593 C1599 0.950 . S
H1594 C1600 0.949 . S
C1595 H1590 0.950 . S
C1595 C1597 1.327 . S
C1595 C1601 1.429 . S
C1596 C1588 1.574 . S
C1596 H1591 0.949 . S
C1596 C1602 1.368 . S
C1597 C1581 1.349 . S
C1597 H1589 0.950 . S
C1597 C1595 1.327 . S
C1598 C1586 1.349 . S
C1598 H1592 0.950 . S
C1598 C1599 1.327 . S
C1599 H1593 0.950 . S
C1599 C1598 1.327 . S
C1599 C1603 1.429 . S
C1600 C1583 1.574 . S
C1600 H1594 0.949 . S
C1600 C1604 1.368 . S
C1601 C1582 1.429 . S
C1601 C1595 1.429 . S
C1601 C1602 1.523 . S
C1602 C1583 1.368 . S
C1602 C1596 1.368 . S
C1602 C1601 1.523 . S
C1603 C1587 1.429 . S
C1603 C1599 1.429 . S
C1603 C1604 1.523 . S
C1604 C1588 1.368 . S
C1604 C1600 1.368 . S
C1604 C1603 1.523 . S
H1605 C1580 0.950 . S
H1606 C1582 0.950 . S
H1607 C1583 0.949 . S
H1608 C1585 0.950 . S
H1609 C1587 0.950 . S
C1610 C1611 1.349 . S
C1610 C1612 1.327 . S
C1610 H1635 0.950 . S
C1611 C1610 1.349 . S
C1611 C1627 1.349 . S
C1612 C1610 1.327 . S
C1612 C1631 1.429 . S
C1612 H1636 0.950 . S
C1613 C1630 1.574 . S
C1613 C1632 1.368 . S
C1613 H1637 0.949 . S
H1614 C1618 0.949 . S
C1615 C1616 1.349 . S
C1615 C1617 1.327 . S
C1615 H1638 0.950 . S
C1616 C1615 1.349 . S
C1616 C1628 1.349 . S
C1617 C1615 1.327 . S
C1617 C1633 1.429 . S
C1617 H1639 0.950 . S
C1618 H1614 0.949 . S
C1618 C1626 1.574 . S
C1618 C1634 1.368 . S
H1619 C1627 0.950 . S
H1620 C1625 0.950 . S
H1621 C1626 0.949 . S
H1622 C1628 0.950 . S
H1623 C1629 0.950 . S
H1624 C1630 0.949 . S
C1625 H1620 0.950 . S
C1625 C1627 1.327 . S
C1625 C1631 1.429 . S
C1626 C1618 1.574 . S
C1626 H1621 0.949 . S
C1626 C1632 1.368 . S
C1627 C1611 1.349 . S
C1627 H1619 0.950 . S
C1627 C1625 1.327 . S
C1628 C1616 1.349 . S
C1628 H1622 0.950 . S
C1628 C1629 1.327 . S
C1629 H1623 0.950 . S
C1629 C1628 1.327 . S
C1629 C1633 1.429 . S
C1630 C1613 1.574 . S
C1630 H1624 0.949 . S
C1630 C1634 1.368 . S
C1631 C1612 1.429 . S
C1631 C1625 1.429 . S
C1631 C1632 1.523 . S
C1632 C1613 1.368 . S
C1632 C1626 1.368 . S
C1632 C1631 1.523 . S
C1633 C1617 1.429 . S
C1633 C1629 1.429 . S
C1633 C1634 1.523 . S
C1634 C1618 1.368 . S
C1634 C1630 1.368 . S
C1634 C1633 1.523 . S
H1635 C1610 0.950 . S
H1636 C1612 0.950 . S
H1637 C1613 0.949 . S
H1638 C1615 0.950 . S
H1639 C1617 0.950 . S
C1640 C1641 1.349 . S
C1640 C1642 1.327 . S
C1640 H1665 0.950 . S
C1641 C1640 1.349 . S
C1641 C1657 1.349 . S
C1642 C1640 1.327 . S
C1642 C1661 1.429 . S
C1642 H1666 0.950 . S
C1643 C1660 1.574 . S
C1643 C1662 1.368 . S
C1643 H1667 0.949 . S
H1644 C1648 0.949 . S
C1645 C1646 1.349 . S
C1645 C1647 1.327 . S
C1645 H1668 0.950 . S
C1646 C1645 1.349 . S
C1646 C1658 1.349 . S
C1647 C1645 1.327 . S
C1647 C1663 1.429 . S
C1647 H1669 0.950 . S
C1648 H1644 0.949 . S
C1648 C1656 1.574 . S
C1648 C1664 1.368 . S
H1649 C1657 0.950 . S
H1650 C1655 0.950 . S
H1651 C1656 0.949 . S
H1652 C1658 0.950 . S
H1653 C1659 0.950 . S
H1654 C1660 0.949 . S
C1655 H1650 0.950 . S
C1655 C1657 1.327 . S
C1655 C1661 1.429 . S
C1656 C1648 1.574 . S
C1656 H1651 0.949 . S
C1656 C1662 1.368 . S
C1657 C1641 1.349 . S
C1657 H1649 0.950 . S
C1657 C1655 1.327 . S
C1658 C1646 1.349 . S
C1658 H1652 0.950 . S
C1658 C1659 1.327 . S
C1659 H1653 0.950 . S
C1659 C1658 1.327 . S
C1659 C1663 1.429 . S
C1660 C1643 1.574 . S
C1660 H1654 0.949 . S
C1660 C1664 1.368 . S
C1661 C1642 1.429 . S
C1661 C1655 1.429 . S
C1661 C1662 1.523 . S
C1662 C1643 1.368 . S
C1662 C1656 1.368 . S
C1662 C1661 1.523 . S
C1663 C1647 1.429 . S
C1663 C1659 1.429 . S
C1663 C1664 1.523 . S
C1664 C1648 1.368 . S
C1664 C1660 1.368 . S
C1664 C1663 1.523 . S
H1665 C1640 0.950 . S
H1666 C1642 0.950 . S
H1667 C1643 0.949 . S
H1668 C1645 0.950 . S
H1669 C1647 0.950 . S
C1670 C1671 1.349 . S
C1670 C1672 1.327 . S
C1670 H1695 0.950 . S
C1671 C1670 1.349 . S
C1671 C1687 1.349 . S
C1672 C1670 1.327 . S
C1672 C1691 1.429 . S
C1672 H1696 0.950 . S
C1673 C1690 1.574 . S
C1673 C1692 1.368 . S
C1673 H1697 0.949 . S
H1674 C1678 0.949 . S
C1675 C1676 1.349 . S
C1675 C1677 1.327 . S
C1675 H1698 0.950 . S
C1676 C1675 1.349 . S
C1676 C1688 1.349 . S
C1677 C1675 1.327 . S
C1677 C1693 1.429 . S
C1677 H1699 0.950 . S
C1678 H1674 0.949 . S
C1678 C1686 1.574 . S
C1678 C1694 1.368 . S
H1679 C1687 0.950 . S
H1680 C1685 0.950 . S
H1681 C1686 0.949 . S
H1682 C1688 0.950 . S
H1683 C1689 0.950 . S
H1684 C1690 0.949 . S
C1685 H1680 0.950 . S
C1685 C1687 1.327 . S
C1685 C1691 1.429 . S
C1686 C1678 1.574 . S
C1686 H1681 0.949 . S
C1686 C1692 1.368 . S
C1687 C1671 1.349 . S
C1687 H1679 0.950 . S
C1687 C1685 1.327 . S
C1688 C1676 1.349 . S
C1688 H1682 0.950 . S
C1688 C1689 1.327 . S
C1689 H1683 0.950 . S
C1689 C1688 1.327 . S
C1689 C1693 1.429 . S
C1690 C1673 1.574 . S
C1690 H1684 0.949 . S
C1690 C1694 1.368 . S
C1691 C1672 1.429 . S
C1691 C1685 1.429 . S
C1691 C1692 1.523 . S
C1692 C1673 1.368 . S
C1692 C1686 1.368 . S
C1692 C1691 1.523 . S
C1693 C1677 1.429 . S
C1693 C1689 1.429 . S
C1693 C1694 1.523 . S
C1694 C1678 1.368 . S
C1694 C1690 1.368 . S
C1694 C1693 1.523 . S
H1695 C1670 0.950 . S
H1696 C1672 0.950 . S
H1697 C1673 0.949 . S
H1698 C1675 0.950 . S
H1699 C1677 0.950 . S
C1700 C1701 1.349 . S
C1700 C1702 1.327 . S
C1700 H1725 0.950 . S
C1701 C1700 1.349 . S
C1701 C1717 1.349 . S
C1702 C1700 1.327 . S
C1702 C1721 1.429 . S
C1702 H1726 0.950 . S
C1703 C1720 1.574 . S
C1703 C1722 1.368 . S
C1703 H1727 0.949 . S
H1704 C1708 0.949 . S
C1705 C1706 1.349 . S
C1705 C1707 1.327 . S
C1705 H1728 0.950 . S
C1706 C1705 1.349 . S
C1706 C1718 1.349 . S
C1707 C1705 1.327 . S
C1707 C1723 1.429 . S
C1707 H1729 0.950 . S
C1708 H1704 0.949 . S
C1708 C1716 1.574 . S
C1708 C1724 1.368 . S
H1709 C1717 0.950 . S
H1710 C1715 0.950 . S
H1711 C1716 0.949 . S
H1712 C1718 0.950 . S
H1713 C1719 0.950 . S
H1714 C1720 0.949 . S
C1715 H1710 0.950 . S
C1715 C1717 1.327 . S
C1715 C1721 1.429 . S
C1716 C1708 1.574 . S
C1716 H1711 0.949 . S
C1716 C1722 1.368 . S
C1717 C1701 1.349 . S
C1717 H1709 0.950 . S
C1717 C1715 1.327 . S
C1718 C1706 1.349 . S
C1718 H1712 0.950 . S
C1718 C1719 1.327 . S
C1719 H1713 0.950 . S
C1719 C1718 1.327 . S
C1719 C1723 1.429 . S
C1720 C1703 1.574 . S
C1720 H1714 0.949 . S
C1720 C1724 1.368 . S
C1721 C1702 1.429 . S
C1721 C1715 1.429 . S
C1721 C1722 1.523 . S
C1722 C1703 1.368 . S
C1722 C1716 1.368 . S
C1722 C1721 1.523 . S
C1723 C1707 1.429 . S
C1723 C1719 1.429 . S
C1723 C1724 1.523 . S
C1724 C1708 1.368 . S
C1724 C1720 1.368 . S
C1724 C1723 1.523 . S
H1725 C1700 0.950 . S
H1726 C1702 0.950 . S
H1727 C1703 0.949 . S
H1728 C1705 0.950 . S
H1729 C1707 0.950 . S
C1730 C1731 1.349 . S
C1730 C1732 1.327 . S
C1730 H1755 0.950 . S
C1731 C1730 1.349 . S
C1731 C1747 1.349 . S
C1732 C1730 1.327 . S
C1732 C1751 1.429 . S
C1732 H1756 0.950 . S
C1733 C1750 1.574 . S
C1733 C1752 1.368 . S
C1733 H1757 0.949 . S
H1734 C1738 0.949 . S
C1735 C1736 1.349 . S
C1735 C1737 1.327 . S
C1735 H1758 0.950 . S
C1736 C1735 1.349 . S
C1736 C1748 1.349 . S
C1737 C1735 1.327 . S
C1737 C1753 1.429 . S
C1737 H1759 0.950 . S
C1738 H1734 0.949 . S
C1738 C1746 1.574 . S
C1738 C1754 1.368 . S
H1739 C1747 0.950 . S
H1740 C1745 0.950 . S
H1741 C1746 0.949 . S
H1742 C1748 0.950 . S
H1743 C1749 0.950 . S
H1744 C1750 0.949 . S
C1745 H1740 0.950 . S
C1745 C1747 1.327 . S
C1745 C1751 1.429 . S
C1746 C1738 1.574 . S
C1746 H1741 0.949 . S
C1746 C1752 1.368 . S
C1747 C1731 1.349 . S
C1747 H1739 0.950 . S
C1747 C1745 1.327 . S
C1748 C1736 1.349 . S
C1748 H1742 0.950 . S
C1748 C1749 1.327 . S
C1749 H1743 0.950 . S
C1749 C1748 1.327 . S
C1749 C1753 1.429 . S
C1750 C1733 1.574 . S
C1750 H1744 0.949 . S
C1750 C1754 1.368 . S
C1751 C1732 1.429 . S
C1751 C1745 1.429 . S
C1751 C1752 1.523 . S
C1752 C1733 1.368 . S
C1752 C1746 1.368 . S
C1752 C1751 1.523 . S
C1753 C1737 1.429 . S
C1753 C1749 1.429 . S
C1753 C1754 1.523 . S
C1754 C1738 1.368 . S
C1754 C1750 1.368 . S
C1754 C1753 1.523 . S
H1755 C1730 0.950 . S
H1756 C1732 0.950 . S
H1757 C1733 0.949 . S
H1758 C1735 0.950 . S
H1759 C1737 0.950 . S
C321 C62 1.679 . S
C326 C18 1.731 . S
C351 C12 1.426 . S
C356 C22 1.413 . S
C381 C58 0.972 . S
C386 C38 0.976 . S
C411 C72 1.270 . S
C416 C52 1.244 . S
C441 C84 1.514 . S
C446 C104 1.489 . S
C471 C119 0.958 . S
C476 C139 0.958 . S
C501 C129 1.477 . S
C506 C144 1.404 . S
C531 C89 1.466 . S
C536 C159 1.468 . S
C561 C189 1.419 . S
C566 C2 1.344 . S
C591 C204 0.685 . S
C596 C32 0.674 . S
C621 C42 1.189 . S
C626 C269 1.202 . S
C651 C179 0.856 . S
C656 C78 0.855 . S
C681 C238 1.038 . S
C686 C99 1.050 . S
C711 C282 1.394 . S
C716 C109 1.466 . S
C741 C124 0.645 . S
C746 C252 0.639 . S
C771 C309 1.190 . S
C776 C149 1.166 . S
C801 C169 1.454 . S
C806 C279 1.455 . S
C831 C184 1.533 . S
C836 C164 1.558 . S
C861 C219 0.938 . S
C866 C199 0.943 . S
C891 C298 1.769 . S
C896 C222 1.718 . S
C921 C258 0.918 . S
C926 C319 0.917 . S
C951 C224 1.679 . S
C956 C19 1.734 . S
C981 C244 1.412 . S
C986 C9 1.428 . S
C1011 C259 0.974 . S
C1016 C59 0.969 . S
C1041 C49 1.246 . S
C1046 C229 1.273 . S
C1071 C182 1.487 . S
C1076 C82 1.512 . S
C1101 C198 0.959 . S
C1106 C138 0.950 . S
C1131 C262 1.409 . S
C1136 C132 1.481 . S
C1161 C92 1.466 . S
C1166 C278 1.474 . S
C1191 C112 1.419 . S
C1196 C4 1.354 . S
C1221 C202 0.685 . S
C1226 C249 0.676 . S
C1251 C44 1.189 . S
C1256 C152 1.198 . S
C1281 C178 0.856 . S
C1286 C239 0.849 . S
C1311 C79 1.038 . S
C1316 C98 1.044 . S
C1341 C192 1.466 . S
C1346 C284 1.394 . S
C1371 C122 0.645 . S
C1376 C29 0.633 . S
C1401 C312 1.190 . S
C1406 C272 1.173 . S
C1431 C172 1.454 . S
C1436 C158 1.450 . S
C1461 C162 1.558 . S
C1466 C102 1.536 . S
C1491 C218 0.938 . S
C1496 C118 0.942 . S
C1521 C64 1.718 . S
C1526 C299 1.769 . S
C1551 C39 0.918 . S
C1556 C318 0.913 . S
C1581 C242 1.181 . S
C1586 C292 1.202 . S
C1611 C232 1.382 . S
C1616 C304 1.305 . S
C1641 C209 1.432 . S
C1646 C264 1.349 . S
C1671 C289 1.202 . S
C1676 C24 1.181 . S
C1701 C69 1.382 . S
C1706 C302 1.309 . S
C1731 C142 1.348 . S
C1736 C212 1.431 . S
