# Generated by pormake.
# Topology msp, (4)-cn, num edge types: 1
# Building blocks:
#     Node 0, Type 0, BuildingBlock: MUDLON_clean_sbu_0, # of connection points: 4
#     Node 1, Type 0, BuildingBlock: MUDLON_clean_sbu_0, # of connection points: 4
#     Node 2, Type 0, BuildingBlock: MUDLON_clean_sbu_0, # of connection points: 4
#     Node 3, Type 0, BuildingBlock: MUDLON_clean_sbu_0, # of connection points: 4
#     Node 4, Type 0, BuildingBlock: MUDLON_clean_sbu_0, # of connection points: 4
#     Node 5, Type 0, BuildingBlock: MUDLON_clean_sbu_0, # of connection points: 4
#     Node 6, Type 0, BuildingBlock: MUDLON_clean_sbu_0, # of connection points: 4
#     Node 7, Type 0, BuildingBlock: MUDLON_clean_sbu_0, # of connection points: 4
#     Edge 8, Type (0, 0), BuildingBlock: MIFKUJ_clean_linker_0, # of connection points: 2
#     Edge 9, Type (0, 0), BuildingBlock: MIFKUJ_clean_linker_0, # of connection points: 2
#     Edge 10, Type (0, 0), BuildingBlock: MIFKUJ_clean_linker_0, # of connection points: 2
#     Edge 11, Type (0, 0), BuildingBlock: MIFKUJ_clean_linker_0, # of connection points: 2
#     Edge 12, Type (0, 0), BuildingBlock: MIFKUJ_clean_linker_0, # of connection points: 2
#     Edge 13, Type (0, 0), BuildingBlock: MIFKUJ_clean_linker_0, # of connection points: 2
#     Edge 14, Type (0, 0), BuildingBlock: MIFKUJ_clean_linker_0, # of connection points: 2
#     Edge 15, Type (0, 0), BuildingBlock: MIFKUJ_clean_linker_0, # of connection points: 2
#     Edge 16, Type (0, 0), BuildingBlock: MIFKUJ_clean_linker_0, # of connection points: 2
#     Edge 17, Type (0, 0), BuildingBlock: MIFKUJ_clean_linker_0, # of connection points: 2
#     Edge 18, Type (0, 0), BuildingBlock: MIFKUJ_clean_linker_0, # of connection points: 2
#     Edge 19, Type (0, 0), BuildingBlock: MIFKUJ_clean_linker_0, # of connection points: 2
#     Edge 20, Type (0, 0), BuildingBlock: MIFKUJ_clean_linker_0, # of connection points: 2
#     Edge 21, Type (0, 0), BuildingBlock: MIFKUJ_clean_linker_0, # of connection points: 2
#     Edge 22, Type (0, 0), BuildingBlock: MIFKUJ_clean_linker_0, # of connection points: 2
#     Edge 23, Type (0, 0), BuildingBlock: MIFKUJ_clean_linker_0, # of connection points: 2
# Relax obj value: 0.166
# Max RMSD: 0.252
# Mean RMSD: 0.252
data_MOF--net-msp--node1-MUDLON_clean_sbu_0--edge1-MIFKUJ_clean_linker_0
_symmetry_space_group_name_H-M    P1
_symmetry_Int_Tables_number       1
_symmetry_cell_setting            triclinic
loop_
_symmetry_equiv_pos_as_xyz
'x, y, z'
_cell_length_a     31.844906
_cell_length_b     31.339202
_cell_length_c     54.295148
_cell_angle_alpha  89.885113
_cell_angle_beta   101.19544
_cell_angle_gamma 89.822098
loop_
_atom_site_label
_atom_site_type_symbol
_atom_site_fract_x
_atom_site_fract_y
_atom_site_fract_z
_atom_type_partial_charge
Mg0 Mg 0.07053 0.29943 0.37956 0.0
C1 C 0.10556 0.28794 0.33274 0.0
O2 O 0.07125 0.26382 0.32841 0.0
C3 C 0.04169 0.34459 0.42101 0.0
O4 O 0.02467 0.30644 0.42104 0.0
C5 C 0.97587 0.30649 0.35653 0.0
O6 O 0.98149 0.34341 0.36809 0.0
O7 O 1.00736 0.28073 0.3585 0.0
O8 O 0.11302 0.3099 0.35284 0.0
O9 O 0.10197 0.25104 0.40577 0.0
C10 C 0.13425 0.23033 0.4015 0.0
O11 O 0.14492 0.23394 0.37942 0.0
O12 O 0.06369 0.35309 0.40436 0.0
Mg13 Mg 0.47417 0.29613 0.65483 0.0
C14 C 0.43499 0.27264 0.69757 0.0
O15 O 0.46311 0.24226 0.69649 0.0
C16 C 0.49112 0.34182 0.60998 0.0
O17 O 0.50153 0.30207 0.60643 0.0
C18 C 0.57089 0.2972 0.67343 0.0
O19 O 0.56737 0.33025 0.65825 0.0
O20 O 0.53748 0.27597 0.67499 0.0
O21 O 0.4329 0.30384 0.6823 0.0
O22 O 0.43929 0.24873 0.62984 0.0
C23 C 0.45275 0.2201 0.61672 0.0
O24 O 0.49411 0.21417 0.61861 0.0
O25 O 0.47866 0.35114 0.63026 0.0
Mg26 Mg 0.98791 0.70461 0.65271 0.0
C27 C 0.93172 0.73472 0.68598 0.0
O28 O 0.94208 0.76918 0.67473 0.0
C29 C 0.97482 0.62006 0.62261 0.0
O30 O 0.93551 0.62245 0.62662 0.0
C31 C 0.06259 0.71321 0.69385 0.0
O32 O 0.03912 0.68374 0.70181 0.0
O33 O 0.04893 0.73014 0.67244 0.0
O34 O 0.94723 0.69897 0.6809 0.0
O35 O 0.9516 0.74477 0.62303 0.0
C36 C 0.91175 0.73637 0.61852 0.0
O37 O 0.8976 0.70673 0.63194 0.0
O38 O 1.00223 0.64746 0.63268 0.0
Mg39 Mg 0.5447 0.69881 0.37522 0.0
C40 C 0.62785 0.68483 0.35601 0.0
O41 O 0.64244 0.67474 0.37963 0.0
C42 C 0.50994 0.62588 0.40301 0.0
O43 O 0.47326 0.63868 0.38952 0.0
C44 C 0.46997 0.69539 0.33262 0.0
O45 O 0.49754 0.66999 0.32479 0.0
O46 O 0.48074 0.71297 0.35401 0.0
O47 O 0.58833 0.69373 0.34899 0.0
O48 O 0.57045 0.74804 0.40192 0.0
C49 C 0.60052 0.77275 0.39864 0.0
O50 O 0.61151 0.77398 0.37655 0.0
O51 O 0.54442 0.64318 0.3995 0.0
Mg52 Mg 0.56303 0.81756 0.87385 0.0
C53 C 0.64865 0.81434 0.85831 0.0
O54 O 0.65881 0.80024 0.88151 0.0
C55 C 0.52276 0.87036 0.90914 0.0
O56 O 0.49339 0.84124 0.90192 0.0
C57 C 0.47437 0.77839 0.85367 0.0
O58 O 0.48309 0.75583 0.87447 0.0
O59 O 0.50171 0.80521 0.84901 0.0
O60 O 0.61066 0.8278 0.85022 0.0
O61 O 0.58921 0.76303 0.89676 0.0
C62 C 0.58709 0.7589 0.91978 0.0
O63 O 0.56155 0.78418 0.92938 0.0
O64 O 0.55626 0.87003 0.89956 0.0
Mg65 Mg 0.96877 0.79999 0.15449 0.0
C66 C 0.93316 0.78412 0.20047 0.0
O67 O 0.96842 0.76115 0.20469 0.0
C68 C 1.00513 0.86027 0.12091 0.0
O69 O 0.03842 0.83561 0.12895 0.0
C70 C 0.05917 0.75961 0.17023 0.0
O71 O 0.04957 0.73929 0.14874 0.0
O72 O 0.03214 0.78539 0.17641 0.0
O73 O 0.92499 0.80689 0.18065 0.0
O74 O 0.93948 0.75006 0.12937 0.0
C75 C 0.94757 0.74503 0.10754 0.0
O76 O 0.97976 0.76582 0.10134 0.0
O77 O 0.97134 0.85473 0.12978 0.0
Mg78 Mg 0.49307 0.20995 0.15521 0.0
C79 C 0.41342 0.19199 0.17793 0.0
O80 O 0.39852 0.17638 0.15551 0.0
C81 C 0.46825 0.14828 0.11243 0.0
O82 O 0.43666 0.17598 0.1075 0.0
C83 C 0.5637 0.24732 0.19491 0.0
O84 O 0.53018 0.26214 0.20299 0.0
O85 O 0.55783 0.22556 0.17477 0.0
O86 O 0.45179 0.20545 0.183 0.0
O87 O 0.46488 0.25749 0.12742 0.0
C88 C 0.43147 0.27816 0.12983 0.0
O89 O 0.41881 0.27682 0.15143 0.0
O90 O 0.49601 0.15253 0.1326 0.0
Mg91 Mg 0.04856 0.18722 0.87514 0.0
C92 C 0.12717 0.17233 0.8512 0.0
O93 O 0.14269 0.15467 0.87305 0.0
C94 C 1.00721 0.1232 0.9037 0.0
O95 O 0.97904 0.15443 0.90077 0.0
C96 C 0.98085 0.2327 0.83678 0.0
O97 O 1.015 0.24297 0.82787 0.0
O98 O 0.98553 0.21145 0.85714 0.0
O99 O 0.08866 0.18565 0.84676 0.0
O100 O 0.08415 0.22663 0.90533 0.0
C101 C 0.10825 0.20549 0.92261 0.0
O102 O 0.1079 0.16367 0.9213 0.0
O103 O 0.0393 0.12615 0.89299 0.0
H104 H 0.98447 0.34032 0.45218 0.0
H105 H 0.97574 0.38933 0.48565 0.0
H106 H 0.07639 0.4687 0.46814 0.0
H107 H 0.08529 0.41953 0.43425 0.0
H108 H 0.08418 0.45129 0.52015 0.0
H109 H 0.97752 0.50284 0.45172 0.0
H110 H 0.91613 0.49662 0.41644 0.0
H111 H 0.83815 0.44894 0.46656 0.0
H112 H 0.89927 0.45428 0.50211 0.0
H113 H 0.04443 0.62123 0.59989 0.0
H114 H 0.05793 0.57618 0.56563 0.0
H115 H 0.94347 0.50448 0.56846 0.0
H116 H 0.92889 0.55068 0.60209 0.0
H117 H 0.94486 0.5209 0.52239 0.0
H118 H 0.05004 0.46499 0.59027 0.0
H119 H 0.11087 0.46785 0.6261 0.0
H120 H 0.19082 0.5196 0.57825 0.0
H121 H 0.13029 0.51756 0.54219 0.0
C122 C 1.0047 0.36828 0.45529 0.0
C123 C 0.03557 0.37601 0.44047 0.0
C124 C 0.99955 0.39636 0.47444 0.0
C125 C 0.02522 0.43282 0.47934 0.0
C126 C 0.05619 0.44075 0.46465 0.0
C127 C 0.06109 0.41278 0.44522 0.0
C128 C 0.01979 0.462 0.50011 0.0
C129 C 0.05397 0.46716 0.52049 0.0
C130 C 0.98 0.48166 0.50088 0.0
C131 C 0.9431 0.47863 0.47955 0.0
C132 C 0.94738 0.49071 0.45519 0.0
C133 C 0.91261 0.4874 0.43515 0.0
C134 C 0.87329 0.47231 0.43924 0.0
C135 C 0.86863 0.46059 0.46341 0.0
C136 C 0.90332 0.4638 0.48352 0.0
C137 C 0.02239 0.59552 0.59346 0.0
C138 C 0.98558 0.58954 0.60381 0.0
C139 C 0.03024 0.5696 0.57386 0.0
C140 C 1.00202 0.53645 0.56449 0.0
C141 C 0.96576 0.52984 0.57523 0.0
C142 C 0.95754 0.55616 0.59459 0.0
C143 C 1.00912 0.50991 0.5428 0.0
C144 C 0.97521 0.50524 0.52215 0.0
C145 C 0.04905 0.49032 0.54195 0.0
C146 C 0.0855 0.49153 0.56359 0.0
C147 C 0.0805 0.47729 0.58743 0.0
C148 C 0.11495 0.4787 0.60777 0.0
C149 C 0.15465 0.49401 0.60446 0.0
C150 C 0.16003 0.50781 0.58079 0.0
C151 C 0.12567 0.5065 0.56039 0.0
H152 H 0.18128 0.49508 0.62023 0.0
H153 H 0.84641 0.46977 0.4237 0.0
H154 H 0.44665 0.57146 0.4107 0.0
H155 H 0.4457 0.52619 0.44731 0.0
H156 H 0.57262 0.56914 0.48072 0.0
H157 H 0.57424 0.6131 0.44368 0.0
H158 H 0.56862 0.48997 0.49006 0.0
H159 H 0.47848 0.60797 0.49914 0.0
H160 H 0.41945 0.65947 0.48661 0.0
H161 H 0.32824 0.55737 0.4786 0.0
H162 H 0.38678 0.50517 0.49077 0.0
H163 H 0.48119 0.42929 0.61176 0.0
H164 H 0.48722 0.48127 0.57865 0.0
H165 H 0.51112 0.37867 0.53031 0.0
H166 H 0.50618 0.32718 0.56313 0.0
H167 H 0.44415 0.49497 0.5326 0.0
H168 H 0.5792 0.40708 0.49396 0.0
H169 H 0.64238 0.36213 0.50998 0.0
H170 H 0.65152 0.4163 0.5834 0.0
H171 H 0.58881 0.46198 0.56776 0.0
C172 C 0.4745 0.57095 0.42575 0.0
C173 C 0.51056 0.59586 0.42426 0.0
C174 C 0.47379 0.54532 0.44682 0.0
C175 C 0.50871 0.54481 0.46716 0.0
C176 C 0.54518 0.56891 0.46539 0.0
C177 C 0.54614 0.59401 0.44415 0.0
C178 C 0.50729 0.51908 0.49018 0.0
C179 C 0.54138 0.49119 0.49933 0.0
C180 C 0.47239 0.52134 0.50289 0.0
C181 C 0.43706 0.55263 0.49567 0.0
C182 C 0.44585 0.59647 0.49455 0.0
C183 C 0.41248 0.62579 0.48753 0.0
C184 C 0.37013 0.61169 0.48176 0.0
C185 C 0.36106 0.56824 0.48305 0.0
C186 C 0.39432 0.53878 0.49004 0.0
C187 C 0.48786 0.41792 0.59409 0.0
C188 C 0.49365 0.3741 0.59024 0.0
C189 C 0.49119 0.44762 0.57515 0.0
C190 C 0.50038 0.43401 0.55208 0.0
C191 C 0.50506 0.39018 0.54809 0.0
C192 C 0.50206 0.36068 0.56695 0.0
C193 C 0.50489 0.46513 0.53194 0.0
C194 C 0.47143 0.49398 0.52336 0.0
C195 C 0.54096 0.46472 0.52021 0.0
C196 C 0.57906 0.4377 0.52971 0.0
C197 C 0.59482 0.40955 0.51349 0.0
C198 C 0.63052 0.38391 0.52251 0.0
C199 C 0.65088 0.38627 0.5477 0.0
C200 C 0.63564 0.41439 0.56391 0.0
C201 C 0.59998 0.44012 0.55498 0.0
H202 H 0.67849 0.36638 0.55465 0.0
H203 H 0.34434 0.63444 0.47632 0.0
H204 H 0.41403 0.13201 0.06803 0.0
H205 H 0.42518 0.08392 0.03463 0.0
H206 H 0.54647 0.04451 0.07907 0.0
H207 H 0.53525 0.09236 0.11287 0.0
H208 H 0.48471 0.08473 1.00672 0.0
H209 H 0.5669 0.94108 0.06324 0.0
H210 H 0.56862 0.90497 0.10386 0.0
H211 H 0.4414 0.94987 0.10479 0.0
H212 H 0.43874 0.98577 0.06405 0.0
H213 H 0.57207 0.94025 0.92636 0.0
H214 H 0.56468 0.98712 0.96152 0.0
H215 H 0.45652 0.91359 0.97404 0.0
H216 H 0.46334 0.86715 0.93905 0.0
H217 H 0.51377 0.92963 0.01811 0.0
H218 H 0.43874 0.00655 0.94597 0.0
H219 H 0.43044 0.04148 0.90456 0.0
H220 H 0.53226 0.12797 0.93367 0.0
H221 H 0.54153 0.09314 0.9752 0.0
C222 C 0.44294 0.11284 0.07089 0.0
C223 C 0.47373 0.11607 0.09322 0.0
C224 C 0.44937 0.08548 0.05165 0.0
C225 C 0.48665 0.06051 0.05424 0.0
C226 C 0.51722 0.06309 0.07668 0.0
C227 C 0.51076 0.09049 0.09602 0.0
C228 C 0.49357 0.03257 0.03319 0.0
C229 C 0.4913 0.05086 1.0093 0.0
C230 C 0.50181 0.98826 0.03636 0.0
C231 C 0.50286 0.9665 0.06075 0.0
C232 C 0.53927 0.94314 0.07209 0.0
C233 C 0.54041 0.92272 0.09513 0.0
C234 C 0.5052 0.92525 0.10694 0.0
C235 C 0.46872 0.94808 0.09568 0.0
C236 C 0.46741 0.96852 0.07263 0.0
C237 C 0.54663 0.93421 0.93655 0.0
C238 C 0.51823 0.90001 0.9298 0.0
C239 C 0.54245 0.961 0.95663 0.0
C240 C 0.51005 0.95382 0.97043 0.0
C241 C 0.48186 0.91964 0.96376 0.0
C242 C 0.48569 0.89325 0.9436 0.0
C243 C 0.50504 0.98188 0.99177 0.0
C244 C 0.50772 0.96361 0.01567 0.0
C245 C 0.49653 0.02608 0.98855 0.0
C246 C 0.49118 0.04691 0.96359 0.0
C247 C 0.45964 0.03274 0.94347 0.0
C248 C 0.45469 0.05258 0.92 0.0
C249 C 0.4809 0.08683 0.91646 0.0
C250 C 0.51204 0.10138 0.93642 0.0
C251 C 0.51715 0.08162 0.95993 0.0
H252 H 0.477 0.10217 0.89828 0.0
H253 H 0.50616 0.90945 0.12478 0.0
H254 H 0.07229 0.87841 0.09817 0.0
H255 H 0.07184 0.92155 0.06072 0.0
H256 H 0.93872 0.95226 0.05744 0.0
H257 H 0.9387 0.9083 0.0948 0.0
H258 H 0.95177 0.93 1.01245 0.0
H259 H 0.0193 0.0264 0.07609 0.0
H260 H 0.07206 0.0495 0.11305 0.0
H261 H 0.17426 0.02584 0.07358 0.0
H262 H 0.12214 0.00202 0.03647 0.0
H263 H 0.93917 0.10281 0.92518 0.0
H264 H 0.93839 0.05466 0.96053 0.0
H265 H 0.06955 0.01949 0.96091 0.0
H266 H 0.0706 0.06775 0.92546 0.0
H267 H 0.05786 0.04339 1.00711 0.0
H268 H 0.98967 0.94941 0.94274 0.0
H269 H 0.93685 0.9251 0.90615 0.0
H270 H 0.83558 0.94316 0.94707 0.0
H271 H 0.88768 0.96837 0.98378 0.0
C272 C 0.04296 0.89468 0.08969 0.0
C273 C 1.00555 0.88997 0.0996 0.0
C274 C 0.04282 0.91952 0.06827 0.0
C275 C 1.00538 0.94061 0.05634 0.0
C276 C 0.96805 0.9364 0.06633 0.0
C277 C 0.96814 0.91146 0.0878 0.0
C278 C 1.00488 0.9656 0.0329 0.0
C279 C 0.97454 0.95523 1.01136 0.0
C280 C 0.03539 -0.00225 0.03128 0.0
C281 C 0.06682 0.01203 0.05358 0.0
C282 C 0.05305 0.02578 0.07536 0.0
C283 C 0.08284 0.03907 0.09632 0.0
C284 C 0.12649 0.03903 0.09569 0.0
C285 C 0.14044 0.0258 0.07406 0.0
C286 C 0.11078 0.01244 0.05304 0.0
C287 C 0.96766 0.08428 0.93248 0.0
C288 C 1.00498 0.08921 0.9225 0.0
C289 C 0.96711 0.05664 0.95267 0.0
C290 C 1.00388 0.03336 0.96339 0.0
C291 C 0.04079 0.03713 0.95295 0.0
C292 C 0.04126 0.06454 0.93258 0.0
C293 C 1.00471 0.00773 0.98661 0.0
C294 C 0.0351 0.01807 1.00814 0.0
C295 C 0.97417 0.97559 0.98821 0.0
C296 C 0.94259 0.96138 0.96593 0.0
C297 C 0.95608 0.94878 0.94385 0.0
C298 C 0.92627 0.9347 0.9231 0.0
C299 C 0.88287 0.93274 0.92425 0.0
C300 C 0.86919 0.94481 0.94618 0.0
C301 C 0.89886 0.95902 0.96696 0.0
H302 H 0.85985 0.92174 0.90819 0.0
H303 H 0.1495 0.04935 0.11194 0.0
H304 H 0.58697 0.29585 0.2371 0.0
H305 H 0.65825 0.30422 0.26299 0.0
H306 H 0.71093 0.22173 0.21312 0.0
H307 H 0.63947 0.21298 0.18708 0.0
H308 H 0.7405 0.20132 0.26284 0.0
H309 H 0.72726 0.32744 0.21159 0.0
H310 H 0.69245 0.39319 0.19248 0.0
H311 H 0.69692 0.44657 0.26571 0.0
H312 H 0.73122 0.38089 0.28528 0.0
H313 H 0.95821 0.24756 0.31862 0.0
H314 H 0.88979 0.23589 0.28993 0.0
H315 H 0.83028 0.33078 0.32954 0.0
H316 H 0.89882 0.34372 0.35749 0.0
H317 H 0.80566 0.34378 0.28251 0.0
H318 H 0.81472 0.21797 0.33426 0.0
H319 H 0.84775 0.15215 0.35435 0.0
H320 H 0.84933 0.09811 0.28192 0.0
H321 H 0.81678 0.16385 0.2614 0.0
C322 C 0.61369 0.27964 0.23151 0.0
C323 C 0.60744 0.25383 0.20993 0.0
C324 C 0.6545 0.28455 0.24632 0.0
C325 C 0.69005 0.26387 0.23991 0.0
C326 C 0.68398 0.23803 0.21842 0.0
C327 C 0.64313 0.23323 0.20349 0.0
C328 C 0.73334 0.26885 0.25591 0.0
C329 C 0.75511 0.2324 0.26686 0.0
C330 C 0.75195 0.30947 0.26163 0.0
C331 C 0.73149 0.34909 0.2499 0.0
C332 C 0.72053 0.35307 0.22363 0.0
C333 C 0.70094 0.39035 0.21271 0.0
C334 C 0.69239 0.424 0.22787 0.0
C335 C 0.70352 0.42047 0.25399 0.0
C336 C 0.72308 0.38324 0.265 0.0
C337 C 0.93041 0.26562 0.32132 0.0
C338 C 0.93394 0.29657 0.34033 0.0
C339 C 0.8912 0.25883 0.30495 0.0
C340 C 0.85451 0.28214 0.30762 0.0
C341 C 0.85799 0.31247 0.32693 0.0
C342 C 0.89723 0.31975 0.34299 0.0
C343 C 0.81277 0.27626 0.28992 0.0
C344 C 0.79126 0.3126 0.27853 0.0
C345 C 0.79425 0.23556 0.28401 0.0
C346 C 0.81373 0.196 0.29631 0.0
C347 C 0.8224 0.19217 0.32263 0.0
C348 C 0.84098 0.15486 0.33409 0.0
C349 C 0.85074 0.12102 0.31942 0.0
C350 C 0.84182 0.12437 0.29326 0.0
C351 C 0.82327 0.16163 0.2817 0.0
H352 H 0.86513 0.09216 0.32833 0.0
H353 H 0.67722 0.45283 0.21939 0.0
H354 H 0.64942 0.3292 0.67042 0.0
H355 H 0.71772 0.31605 0.69884 0.0
H356 H 0.65568 0.23003 0.74242 0.0
H357 H 0.58701 0.24293 0.71395 0.0
H358 H 0.70911 0.28831 0.77199 0.0
H359 H 0.71726 0.18966 0.70575 0.0
H360 H 0.71361 0.16716 0.6619 0.0
H361 H 0.81471 0.25404 0.65501 0.0
H362 H 0.81856 0.27753 0.69873 0.0
H363 H 0.90324 0.20541 0.84561 0.0
H364 H 0.83277 0.21541 0.81874 0.0
H365 H 0.88971 0.29077 0.76737 0.0
H366 H 0.96027 0.28016 0.79381 0.0
H367 H 0.83724 0.23491 0.74216 0.0
H368 H 0.82816 0.33579 0.8072 0.0
H369 H 0.83167 0.36048 0.85064 0.0
H370 H 0.73274 0.27227 0.85951 0.0
H371 H 0.72903 0.24663 0.8162 0.0
C372 C 0.65027 0.30723 0.68593 0.0
C373 C 0.61271 0.28705 0.68986 0.0
C374 C 0.6894 0.29969 0.70215 0.0
C375 C 0.69188 0.27191 0.72271 0.0
C376 C 0.65451 0.25158 0.72668 0.0
C377 C 0.61534 0.25881 0.7103 0.0
C378 C 0.73342 0.26482 0.74023 0.0
C379 C 0.737 0.27598 0.76558 0.0
C380 C 0.77005 0.24978 0.73174 0.0
C381 C 0.76792 0.23564 0.70545 0.0
C382 C 0.73847 0.20423 0.69482 0.0
C383 C 0.73641 0.19125 0.67 0.0
C384 C 0.76384 0.20924 0.65566 0.0
C385 C 0.79345 0.24018 0.66613 0.0
C386 C 0.79562 0.2533 0.69094 0.0
C387 C 0.90072 0.22451 0.82873 0.0
C388 C 0.93749 0.24195 0.82188 0.0
C389 C 0.86032 0.23029 0.81339 0.0
C390 C 0.85574 0.25407 0.79103 0.0
C391 C 0.89233 0.27218 0.78445 0.0
C392 C 0.9327 0.26622 0.79968 0.0
C393 C 0.81322 0.2588 0.77398 0.0
C394 C 0.80941 0.24713 0.74866 0.0
C395 C 0.77647 0.27366 0.7825 0.0
C396 C 0.77866 0.28896 0.80855 0.0
C397 C 0.80741 0.3214 0.81848 0.0
C398 C 0.80938 0.33562 0.84307 0.0
C399 C 0.78253 0.31787 0.85785 0.0
C400 C 0.75357 0.28593 0.84805 0.0
C401 C 0.7515 0.27157 0.82348 0.0
H402 H 0.7841 0.32893 0.87688 0.0
H403 H 0.7622 0.19914 0.63644 0.0
H404 H 0.12452 0.76634 0.6819 0.0
H405 H 0.19477 0.78244 0.70782 0.0
H406 H 0.16572 0.70199 0.76682 0.0
H407 H 0.09581 0.68619 0.74133 0.0
H408 H 0.20218 0.77467 0.78577 0.0
H409 H 0.23016 0.66714 0.72754 0.0
H410 H 0.22926 0.63643 0.68566 0.0
H411 H 0.30293 0.74207 0.66705 0.0
H412 H 0.30377 0.77371 0.70874 0.0
H413 H 0.40562 0.73038 0.86013 0.0
H414 H 0.33617 0.72431 0.83179 0.0
H415 H 0.37863 0.80984 0.77938 0.0
H416 H 0.44833 0.81598 0.80758 0.0
H417 H 0.33601 0.74113 0.75568 0.0
H418 H 0.31219 0.84596 0.81538 0.0
H419 H 0.31354 0.87567 0.85754 0.0
H420 H 0.23211 0.77457 0.87358 0.0
H421 H 0.23077 0.74388 0.83162 0.0
C422 C 0.13306 0.75229 0.70044 0.0
C423 C 0.10457 0.72484 0.70948 0.0
C424 C 0.17329 0.76135 0.7152 0.0
C425 C 0.18571 0.7431 0.73921 0.0
C426 C 0.15691 0.71646 0.74839 0.0
C427 C 0.11692 0.70734 0.7337 0.0
C428 C 0.22879 0.751 0.75485 0.0
C429 C 0.23142 0.76701 0.77924 0.0
C430 C 0.26704 0.74201 0.74618 0.0
C431 C 0.26659 0.72304 0.72113 0.0
C432 C 0.24585 0.684 0.71444 0.0
C433 C 0.24541 0.66639 0.69076 0.0
C434 C 0.26591 0.68735 0.67368 0.0
C435 C 0.28699 0.72591 0.68028 0.0
C436 C 0.28748 0.74369 0.70394 0.0
C437 C 0.40029 0.74785 0.84256 0.0
C438 C 0.43255 0.7738 0.8362 0.0
C439 C 0.36047 0.74449 0.82642 0.0
C440 C 0.35201 0.76701 0.80358 0.0
C441 C 0.38439 0.79227 0.79693 0.0
C442 C 0.42419 0.79582 0.81312 0.0
C443 C 0.30931 0.76414 0.78671 0.0
C444 C 0.30677 0.74914 0.76212 0.0
C445 C 0.2711 0.77398 0.79521 0.0
C446 C 0.2717 0.79241 0.82043 0.0
C447 C 0.29485 0.82987 0.82797 0.0
C448 C 0.29556 0.84692 0.85182 0.0
C449 C 0.27301 0.82697 0.86825 0.0
C450 C 0.24961 0.78997 0.86084 0.0
C451 C 0.24882 0.77275 0.83702 0.0
H452 H 0.2736 0.84022 0.88671 0.0
H453 H 0.26555 0.67366 0.65535 0.0
H454 H 0.44046 0.6661 0.28515 0.0
H455 H 0.37069 0.67878 0.25836 0.0
H456 H 0.33292 0.7551 0.31645 0.0
H457 H 0.40289 0.74226 0.3436 0.0
H458 H 0.26986 0.70014 0.29549 0.0
H459 H 0.35935 0.8028 0.26606 0.0
H460 H 0.42254 0.82859 0.25054 0.0
H461 H 0.39071 0.74774 0.18589 0.0
H462 H 0.32763 0.72098 0.20121 0.0
H463 H 0.08596 0.79145 0.21752 0.0
H464 H 0.15528 0.78114 0.24538 0.0
H465 H 0.19712 0.70281 0.18947 0.0
H466 H 0.12778 0.71315 0.16132 0.0
H467 H 0.25793 0.76082 0.2099 0.0
H468 H 0.16896 0.65735 0.23998 0.0
H469 H 0.10558 0.63222 0.25556 0.0
H470 H 0.13631 0.71563 0.31911 0.0
H471 H 0.19959 0.74172 0.30372 0.0
C472 C 0.41741 0.68563 0.2923 0.0
C473 C 0.42737 0.70329 0.31652 0.0
C474 C 0.37754 0.693 0.27688 0.0
C475 C 0.34673 0.71831 0.28527 0.0
C476 C 0.35627 0.73557 0.30957 0.0
C477 C 0.39631 0.7283 0.32503 0.0
C478 C 0.3045 0.72629 0.26865 0.0
C479 C 0.2672 0.71403 0.27693 0.0
C480 C 0.30107 0.74356 0.24421 0.0
C481 C 0.33898 0.75958 0.23492 0.0
C482 C 0.36602 0.79024 0.24864 0.0
C483 C 0.40178 0.80509 0.23986 0.0
C484 C 0.4107 0.78973 0.21728 0.0
C485 C 0.3838 0.75956 0.2034 0.0
C486 C 0.34801 0.74457 0.21211 0.0
C487 C 0.10984 0.77198 0.2111 0.0
C488 C 0.10124 0.75304 0.18717 0.0
C489 C 0.14943 0.76599 0.22712 0.0
C490 C 0.18127 0.74089 0.21961 0.0
C491 C 0.17299 0.72226 0.19566 0.0
C492 C 0.13328 0.72808 0.17963 0.0
C493 C 0.22333 0.73442 0.23668 0.0
C494 C 0.2606 0.74701 0.22849 0.0
C495 C 0.22671 0.71755 0.26121 0.0
C496 C 0.18877 0.70181 0.27055 0.0
C497 C 0.16201 0.6706 0.25717 0.0
C498 C 0.12613 0.65613 0.26598 0.0
C499 C 0.11685 0.67241 0.28827 0.0
C500 C 0.1435 0.7031 0.30183 0.0
C501 C 0.1794 0.71771 0.29308 0.0
H502 H 0.08907 0.66116 0.29507 0.0
H503 H 0.43839 0.80128 0.2105 0.0
H504 H 0.43011 0.23548 0.22254 0.0
H505 H 0.37971 0.25427 0.24947 0.0
H506 H 0.27998 0.18509 0.20065 0.0
H507 H 0.32997 0.16697 0.17332 0.0
H508 H 0.25111 0.26031 0.21115 0.0
H509 H 0.32934 0.14726 0.25998 0.0
H510 H 0.3937 0.10973 0.28245 0.0
H511 H 0.4247 0.21692 0.33169 0.0
H512 H 0.36079 0.25533 0.30929 0.0
H513 H 0.09665 0.24582 0.28817 0.0
H514 H 0.15069 0.23341 0.26279 0.0
H515 H 0.24105 0.30907 0.31403 0.0
H516 H 0.18698 0.32116 0.33993 0.0
H517 H 0.27687 0.23525 0.3031 0.0
H518 H 0.19629 0.34678 0.25536 0.0
H519 H 0.13145 0.38364 0.23298 0.0
H520 H 0.10454 0.27873 0.18166 0.0
H521 H 0.16892 0.24095 0.20394 0.0
C522 C 0.39759 0.22379 0.21767 0.0
C523 C 0.38414 0.19964 0.19573 0.0
C524 C 0.36877 0.23452 0.23315 0.0
C525 C 0.32598 0.22092 0.22724 0.0
C526 C 0.31275 0.19609 0.20562 0.0
C527 C 0.34146 0.18555 0.19005 0.0
C528 C 0.29455 0.23389 0.24295 0.0
C529 C 0.25655 0.2543 0.23121 0.0
C530 C 0.30211 0.2274 0.26929 0.0
C531 C 0.34053 0.20434 0.28278 0.0
C532 C 0.35007 0.16296 0.27547 0.0
C533 C 0.38644 0.14151 0.28822 0.0
C534 C 0.41334 0.16097 0.30844 0.0
C535 C 0.40387 0.20191 0.31599 0.0
C536 C 0.36756 0.22352 0.30329 0.0
C537 C 0.12783 0.2603 0.29397 0.0
C538 C 0.13739 0.28459 0.31611 0.0
C539 C 0.15874 0.25326 0.27933 0.0
C540 C 0.19992 0.27058 0.28632 0.0
C541 C 0.20948 0.29542 0.30822 0.0
C542 C 0.17845 0.30253 0.32293 0.0
C543 C 0.23323 0.26111 0.27122 0.0
C544 C 0.27157 0.24144 0.28306 0.0
C545 C 0.22598 0.26819 0.24495 0.0
C546 C 0.18727 0.29088 0.23146 0.0
C547 C 0.17638 0.33142 0.23942 0.0
C548 C 0.13973 0.3525 0.22673 0.0
C549 C 0.11384 0.3335 0.20595 0.0
C550 C 0.12461 0.2934 0.19777 0.0
C551 C 0.1612 0.27216 0.21041 0.0
H552 H 0.08549 0.34988 0.19615 0.0
H553 H 0.44148 0.14431 0.31829 0.0
H554 H 0.36177 0.31922 0.69851 0.0
H555 H 0.30719 0.30455 0.72365 0.0
H556 H 0.38322 0.19959 0.75978 0.0
H557 H 0.43721 0.21354 0.73459 0.0
H558 H 0.30359 0.17496 0.745 0.0
H559 H 0.37309 0.29496 0.79027 0.0
H560 H 0.40058 0.36851 0.79572 0.0
H561 H 0.27365 0.41788 0.77005 0.0
H562 H 0.24548 0.34457 0.76413 0.0
H563 H 0.20629 0.13833 0.85084 0.0
H564 H 0.25546 0.15714 0.82305 0.0
H565 H 0.16262 0.24621 0.7836 0.0
H566 H 0.11297 0.2272 0.81109 0.0
H567 H 0.24622 0.28057 0.79796 0.0
H568 H 0.17695 0.15909 0.75489 0.0
H569 H 0.1506 0.08506 0.75067 0.0
H570 H 0.27907 0.03803 0.77359 0.0
H571 H 0.30615 0.11183 0.7783 0.0
C572 C 0.36707 0.29338 0.71204 0.0
C573 C 0.40382 0.2675 0.71447 0.0
C574 C 0.33585 0.28502 0.72643 0.0
C575 C 0.34103 0.25091 0.74367 0.0
C576 C 0.37827 0.22587 0.74652 0.0
C577 C 0.40926 0.23405 0.73213 0.0
C578 C 0.30722 0.23997 0.75812 0.0
C579 C 0.29146 0.19801 0.75679 0.0
C580 C 0.2904 0.2702 0.77303 0.0
C581 C 0.30727 0.31429 0.77648 0.0
C582 C 0.3511 0.3215 0.78557 0.0
C583 C 0.36679 0.36314 0.78879 0.0
C584 C 0.3389 0.39784 0.78315 0.0
C585 C 0.29523 0.39097 0.77435 0.0
C586 C 0.27938 0.34938 0.77108 0.0
C587 C 0.19613 0.16161 0.8361 0.0
C588 C 0.15564 0.18115 0.83316 0.0
C589 C 0.22427 0.17231 0.82023 0.0
C590 C 0.21268 0.20307 0.80125 0.0
C591 C 0.17221 0.22245 0.79814 0.0
C592 C 0.14379 0.21132 0.81378 0.0
C593 C 0.24328 0.21553 0.78506 0.0
C594 C 0.25831 0.2577 0.78604 0.0
C595 C 0.25968 0.18546 0.76996 0.0
C596 C 0.24353 0.14101 0.76719 0.0
C597 C 0.19955 0.13297 0.75926 0.0
C598 C 0.18449 0.09105 0.75673 0.0
C599 C 0.21313 0.05686 0.76193 0.0
C600 C 0.25692 0.06454 0.76961 0.0
C601 C 0.27214 0.10642 0.77219 0.0
H602 H 0.20141 0.02443 0.75994 0.0
H603 H 0.35111 0.43006 0.78567 0.0
H604 H 0.64303 0.84573 0.81041 0.0
H605 H 0.69125 0.83087 0.78138 0.0
H606 H 0.77016 0.75292 0.83786 0.0
H607 H 0.72337 0.76914 0.86716 0.0
H608 H 0.81986 0.7939 0.81528 0.0
H609 H 0.6949 0.71043 0.7867 0.0
H610 H 0.61792 0.696 0.77258 0.0
H611 H 0.61449 0.77894 0.70917 0.0
H612 H 0.69138 0.79433 0.7231 0.0
H613 H 0.92514 0.68437 0.72664 0.0
H614 H 0.87676 0.69546 0.75643 0.0
H615 H 0.82022 0.80382 0.71314 0.0
H616 H 0.86884 0.79371 0.68391 0.0
H617 H 0.7599 0.74328 0.72914 0.0
H618 H 0.88763 0.82642 0.76078 0.0
H619 H 0.96537 0.83528 0.77549 0.0
H620 H 0.96343 0.74398 0.83433 0.0
H621 H 0.88572 0.7341 0.8197 0.0
C622 C 0.6709 0.82579 0.8167 0.0
C623 C 0.67921 0.80857 0.8411 0.0
C624 C 0.6983 0.81696 0.8 0.0
C625 C 0.73401 0.78992 0.80716 0.0
C626 C 0.7429 0.77375 0.83176 0.0
C627 C 0.71598 0.78309 0.84854 0.0
C628 C 0.76196 0.77809 0.78909 0.0
C629 C 0.80658 0.78226 0.79659 0.0
C630 C 0.74503 0.76303 0.76455 0.0
C631 C 0.6988 0.75386 0.75609 0.0
C632 C 0.67766 0.72584 0.76985 0.0
C633 C 0.63406 0.71745 0.76187 0.0
C634 C 0.6113 0.73664 0.74003 0.0
C635 C 0.63215 0.76416 0.7261 0.0
C636 C 0.67575 0.7727 0.73402 0.0
C637 C 0.90212 0.71028 0.72344 0.0
C638 C 0.9009 0.73832 0.70307 0.0
C639 C 0.87464 0.71665 0.74044 0.0
C640 C 0.84502 0.75055 0.73697 0.0
C641 C 0.84279 0.7775 0.71614 0.0
C642 C 0.87075 0.77176 0.69954 0.0
C643 C 0.81728 0.75931 0.75543 0.0
C644 C 0.77285 0.75463 0.74794 0.0
C645 C 0.83437 0.77305 0.78011 0.0
C646 C 0.881 0.77913 0.78896 0.0
C647 C 0.90386 0.80792 0.7767 0.0
C648 C 0.9479 0.8132 0.78505 0.0
C649 C 0.96936 0.7901 0.80578 0.0
C650 C 0.94679 0.76178 0.81824 0.0
C651 C 0.90275 0.75634 0.80994 0.0
H652 H 1.00345 0.79424 0.81222 0.0
H653 H 0.57755 0.73009 0.73388 0.0
H654 H 0.9458 0.74565 0.24637 0.0
H655 H 0.89278 0.73038 0.27206 0.0
H656 H 0.79593 0.79489 0.21813 0.0
H657 H 0.8493 0.81113 0.19242 0.0
H658 H 0.78637 0.8122 0.26523 0.0
H659 H 0.80368 0.68597 0.2188 0.0
H660 H 0.8434 0.62788 0.20287 0.0
H661 H 0.89092 0.58474 0.27827 0.0
H662 H 0.85195 0.64297 0.29469 0.0
H663 H 0.6104 0.71963 0.3088 0.0
H664 H 0.66126 0.73715 0.2819 0.0
H665 H 0.76419 0.6839 0.3369 0.0
H666 H 0.71355 0.66631 0.36402 0.0
H667 H 0.76839 0.66076 0.28796 0.0
H668 H 0.75091 0.78831 0.33407 0.0
H669 H 0.70952 0.84566 0.3494 0.0
H670 H 0.6604 0.88559 0.27355 0.0
H671 H 0.70095 0.82796 0.25773 0.0
C672 C 0.91333 0.75699 0.24002 0.0
C673 C 0.90172 0.7793 0.21719 0.0
C674 C 0.88296 0.74802 0.25471 0.0
C675 C 0.8401 0.7606 0.24677 0.0
C676 C 0.82874 0.78459 0.22456 0.0
C677 C 0.85928 0.79387 0.20988 0.0
C678 C 0.80718 0.74752 0.26136 0.0
C679 C 0.78202 0.77903 0.26988 0.0
C680 C 0.80186 0.70427 0.2678 0.0
C681 C 0.8252 0.66908 0.25799 0.0
C682 C 0.82285 0.66429 0.232 0.0
C683 C 0.84519 0.63131 0.22288 0.0
C684 C 0.86975 0.6027 0.23955 0.0
C685 C 0.87193 0.60696 0.26538 0.0
C686 C 0.84969 0.63992 0.2746 0.0
C687 C 0.64378 0.71122 0.31511 0.0
C688 C 0.65792 0.69167 0.33864 0.0
C689 C 0.67284 0.72148 0.29974 0.0
C690 C 0.71659 0.71231 0.30753 0.0
C691 C 0.73058 0.69138 0.33056 0.0
C692 C 0.70158 0.68139 0.34605 0.0
C693 C 0.7479 0.72543 0.29194 0.0
C694 C 0.7727 0.6939 0.28323 0.0
C695 C 0.75269 0.76859 0.28523 0.0
C696 C 0.72862 0.80353 0.2947 0.0
C697 C 0.73101 0.8091 0.32064 0.0
C698 C 0.70774 0.84169 0.32943 0.0
C699 C 0.68227 0.86919 0.31246 0.0
C700 C 0.6801 0.86422 0.28667 0.0
C701 C 0.70323 0.8316 0.27778 0.0
H702 H 0.66428 0.89441 0.31929 0.0
H703 H 0.88702 0.57718 0.23245 0.0
H704 H 0.46867 0.18045 0.57443 0.0
H705 H 0.41576 0.16211 0.53686 0.0
H706 H 0.3138 0.19814 0.57466 0.0
H707 H 0.3662 0.21603 0.6122 0.0
H708 H 0.2904 0.13086 0.54313 0.0
H709 H 0.35415 0.27033 0.54051 0.0
H710 H 0.41433 0.32033 0.54234 0.0
H711 H 0.45144 0.25716 0.47974 0.0
H712 H 0.39175 0.20637 0.47778 0.0
H713 H 0.12663 0.22385 0.45081 0.0
H714 H 0.18218 0.20232 0.48631 0.0
H715 H 0.2659 0.1697 0.43553 0.0
H716 H 0.21064 0.19142 0.39991 0.0
H717 H 0.30336 0.22419 0.47108 0.0
H718 H 0.22862 0.09238 0.4698 0.0
H719 H 0.16616 0.04562 0.46863 0.0
H720 H 0.14687 0.0972 0.53881 0.0
H721 H 0.20886 0.14473 0.54024 0.0
C722 C 0.43496 0.1833 0.57497 0.0
C723 C 0.42163 0.2003 0.59615 0.0
C724 C 0.40477 0.17298 0.55346 0.0
C725 C 0.36087 0.17949 0.55284 0.0
C726 C 0.34747 0.19299 0.57468 0.0
C727 C 0.37753 0.20343 0.5961 0.0
C728 C 0.32924 0.17741 0.52888 0.0
C729 C 0.29315 0.15119 0.52733 0.0
C730 C 0.33315 0.20357 0.50816 0.0
C731 C 0.36886 0.23423 0.50921 0.0
C732 C 0.37535 0.2669 0.52727 0.0
C733 C 0.40934 0.29541 0.52832 0.0
C734 C 0.43679 0.29182 0.51123 0.0
C735 C 0.43021 0.25981 0.49301 0.0
C736 C 0.39632 0.23117 0.49192 0.0
C737 C 0.15646 0.21116 0.44711 0.0
C738 C 0.16428 0.20975 0.4225 0.0
C739 C 0.1882 0.1987 0.46746 0.0
C740 C 0.22825 0.18436 0.46359 0.0
C741 C 0.23527 0.18072 0.43896 0.0
C742 C 0.20355 0.19308 0.4186 0.0
C743 C 0.26411 0.17786 0.48529 0.0
C744 C 0.30094 0.2029 0.48653 0.0
C745 C 0.26054 0.15097 0.50576 0.0
C746 C 0.22327 0.12234 0.50503 0.0
C747 C 0.21088 0.09399 0.48489 0.0
C748 C 0.17558 0.0673 0.4842 0.0
C749 C 0.15252 0.06849 0.50361 0.0
C750 C 0.16476 0.09632 0.52378 0.0
C751 C 0.20003 0.1231 0.52456 0.0
H752 H 0.12519 0.0478 0.50304 0.0
H753 H 0.46306 0.31391 0.51204 0.0
H754 H 0.92936 0.77863 0.57714 0.0
H755 H 0.87714 0.80082 0.53973 0.0
H756 H 0.77396 0.76139 0.57558 0.0
H757 H 0.82545 0.73899 0.61254 0.0
H758 H 0.77059 0.72318 0.53083 0.0
H759 H 0.79031 0.8657 0.56446 0.0
H760 H 0.83216 0.92937 0.58035 0.0
H761 H 0.87375 0.94251 0.51009 0.0
H762 H 0.83259 0.87853 0.49389 0.0
H763 H 0.58753 0.77602 0.44685 0.0
H764 H 0.64212 0.78637 0.48459 0.0
H765 H 0.73457 0.81785 0.43907 0.0
H766 H 0.68001 0.80784 0.40106 0.0
H767 H 0.74735 0.86245 0.48654 0.0
H768 H 0.73078 0.72055 0.45326 0.0
H769 H 0.69161 0.65564 0.43683 0.0
H770 H 0.64762 0.63993 0.5062 0.0
H771 H 0.68598 0.70524 0.5229 0.0
C772 C 0.89551 0.7756 0.57717 0.0
C773 C 0.88149 0.75653 0.5976 0.0
C774 C 0.86572 0.78833 0.55584 0.0
C775 C 0.82166 0.78249 0.55484 0.0
C776 C 0.80779 0.76588 0.57587 0.0
C777 C 0.83732 0.75304 0.59698 0.0
C778 C 0.78994 0.78904 0.53123 0.0
C779 C 0.76519 0.75384 0.52139 0.0
C780 C 0.78403 0.82859 0.51835 0.0
C781 C 0.80875 0.86704 0.52806 0.0
C782 C 0.8087 0.88192 0.55248 0.0
C783 C 0.83223 0.91813 0.56153 0.0
C784 C 0.85571 0.9399 0.54627 0.0
C785 C 0.85561 0.92558 0.5219 0.0
C786 C 0.83216 0.88937 0.51277 0.0
C787 C 0.61909 0.78639 0.44481 0.0
C788 C 0.62963 0.79024 0.42093 0.0
C789 C 0.65026 0.79232 0.46642 0.0
C790 C 0.69252 0.80202 0.46456 0.0
C791 C 0.70214 0.81022 0.44087 0.0
C792 C 0.67088 0.80437 0.41916 0.0
C793 C 0.72731 0.79692 0.48684 0.0
C794 C 0.75281 0.83199 0.49616 0.0
C795 C 0.73439 0.7571 0.49929 0.0
C796 C 0.71093 0.71801 0.48924 0.0
C797 C 0.7124 0.70351 0.46492 0.0
C798 C 0.69041 0.66661 0.45557 0.0
C799 C 0.66716 0.64369 0.47047 0.0
C800 C 0.66567 0.65774 0.4947 0.0
C801 C 0.68753 0.69468 0.50411 0.0
H802 H 0.65052 0.61491 0.4633 0.0
H803 H 0.87389 0.96793 0.55331 0.0
H804 H 0.95468 0.72477 0.05944 0.0
H805 H 0.89638 0.70597 0.02479 0.0
H806 H 0.80823 0.70411 0.07595 0.0
H807 H 0.86644 0.72086 0.11067 0.0
H808 H 0.78344 0.6481 0.04161 0.0
H809 H 0.82782 0.79526 0.04145 0.0
H810 H 0.87731 0.85512 0.03965 0.0
H811 H 0.89662 0.81277 0.9675 0.0
H812 H 0.84787 0.75216 0.96909 0.0
H813 H 0.59393 0.74357 0.97004 0.0
H814 H 0.65779 0.71914 0.9993 0.0
H815 H 0.7216 0.69646 0.93739 0.0
H816 H 0.65779 0.7202 0.90795 0.0
H817 H 0.76292 0.7549 0.97275 0.0
H818 H 0.70525 0.61433 0.97152 0.0
H819 H 0.65039 0.56012 0.97422 0.0
H820 H 0.64998 0.59677 0.05032 0.0
H821 H 0.7044 0.65165 0.04799 0.0
C822 C 0.92308 0.71925 0.06339 0.0
C823 C 0.9151 0.72498 0.08774 0.0
C824 C 0.88971 0.70877 0.04354 0.0
C825 C 0.8476 0.70488 0.04759 0.0
C826 C 0.84031 0.70721 0.07224 0.0
C827 C 0.87374 0.71692 0.09214 0.0
C828 C 0.81054 0.70263 0.02621 0.0
C829 C 0.77894 0.6715 0.02658 0.0
C830 C 0.8048 0.73277 1.00631 0.0
C831 C 0.83471 0.7688 1.00556 0.0
C832 C 0.84299 0.79844 0.02533 0.0
C833 C 0.87085 0.83254 0.02433 0.0
C834 C 0.89019 0.83764 1.00351 0.0
C835 C 0.88172 0.80867 0.98365 0.0
C836 C 0.85404 0.77442 0.98461 0.0
C837 C 0.62105 0.73216 0.96257 0.0
C838 C 0.62093 0.73447 0.93668 0.0
C839 C 0.65751 0.71809 0.97933 0.0
C840 C 0.69448 0.70623 0.9705 0.0
C841 C 0.69339 0.70554 0.94456 0.0
C842 C 0.6568 0.7191 0.92777 0.0
C843 C 0.73568 0.70086 0.9884 0.0
C844 C 0.76793 0.73084 0.98745 0.0
C845 C 0.74144 0.67038 1.008 0.0
C846 C 0.70874 0.63733 1.00951 0.0
C847 C 0.69322 0.61109 0.98877 0.0
C848 C 0.66224 0.58017 0.99025 0.0
C849 C 0.64665 0.57505 1.01241 0.0
C850 C 0.66208 0.60078 0.03316 0.0
C851 C 0.69304 0.63175 0.03178 0.0
H852 H 0.62267 0.5511 1.01352 0.0
H853 H 0.91162 0.86408 1.00271 0.0
H854 H 0.44881 0.29457 0.08323 0.0
H855 H 0.39664 0.30439 0.04414 0.0
H856 H 0.29412 0.30117 0.08576 0.0
H857 H 0.34599 0.2938 0.12472 0.0
H858 H 0.34518 0.24951 0.02439 0.0
H859 H 0.20198 0.33895 0.05516 0.0
H860 H 0.19082 0.40036 0.08148 0.0
H861 H 0.31154 0.45287 0.0729 0.0
H862 H 0.3232 0.3921 0.04623 0.0
H863 H 0.15251 0.16837 0.96493 0.0
H864 H 0.20944 0.19895 0.99617 0.0
H865 H 0.19231 0.32018 0.95774 0.0
H866 H 0.13432 0.28958 0.92611 0.0
H867 H 0.20775 0.32932 1.00946 0.0
H868 H 0.27324 0.26035 0.94943 0.0
H869 H 0.28729 0.20324 0.92091 0.0
H870 H 0.32827 0.11974 0.98384 0.0
H871 H 0.31368 0.17605 1.01272 0.0
C872 C 0.41521 0.29744 0.08407 0.0
C873 C 0.40156 0.29322 0.10706 0.0
C874 C 0.38535 0.30287 0.0617 0.0
C875 C 0.34121 0.30359 0.06181 0.0
C876 C 0.32783 0.3018 0.08499 0.0
C877 C 0.35768 0.29726 0.10738 0.0
C878 C 0.3092 0.29977 0.03791 0.0
C879 C 0.31547 0.26752 0.02104 0.0
C880 C 0.27061 0.32378 0.03298 0.0
C881 C 0.26354 0.36078 0.04876 0.0
C882 C 0.22603 0.36373 0.05873 0.0
C883 C 0.21965 0.3984 0.07376 0.0
C884 C 0.25048 0.43046 0.07889 0.0
C885 C 0.28773 0.42795 0.06896 0.0
C886 C 0.29427 0.39336 0.05392 0.0
C887 C 0.16047 0.20166 0.96311 0.0
C888 C 0.13918 0.22643 0.94285 0.0
C889 C 0.19319 0.21907 0.98099 0.0
C890 C 0.20577 0.26156 0.97898 0.0
C891 C 0.18328 0.28719 0.95951 0.0
C892 C 0.15018 0.26971 0.9415 0.0
C893 C 0.24336 0.27793 0.99701 0.0
C894 C 0.23802 0.31227 1.01267 0.0
C895 C 0.28334 0.25662 1.00054 0.0
C896 C 0.29212 0.22244 0.98325 0.0
C897 C 0.28491 0.22971 0.95718 0.0
C898 C 0.29301 0.19747 0.94095 0.0
C899 C 0.30861 0.15787 0.95055 0.0
C900 C 0.31616 0.15043 0.97642 0.0
C901 C 0.30801 0.18252 0.99274 0.0
H902 H 0.31491 0.13297 0.93795 0.0
H903 H 0.24549 0.45725 0.09055 0.0
loop_
_geom_bond_atom_site_label_1
_geom_bond_atom_site_label_2
_geom_bond_distance
_geom_bond_site_symmetry_2
_ccdc_geom_bond_type
Mg0 O7 2.141 1_455 S
Mg0 O8 2.048 . S
Mg0 O9 2.048 . S
Mg0 O12 2.141 . S
C1 O2 1.313 . S
C1 O8 1.195 . S
O2 C1 1.313 . S
C3 O4 1.245 . S
C3 O12 1.289 . S
O4 C3 1.245 . S
C5 O6 1.245 . S
C5 O7 1.289 . S
O6 C5 1.245 . S
O7 Mg0 2.141 1_655 S
O7 C5 1.289 . S
O8 Mg0 2.048 . S
O8 C1 1.195 . S
O9 Mg0 2.048 . S
O9 C10 1.195 . S
C10 O9 1.195 . S
C10 O11 1.313 . S
O11 C10 1.313 . S
O12 Mg0 2.141 . S
O12 C3 1.289 . S
Mg13 O20 2.141 . S
Mg13 O21 2.048 . S
Mg13 O22 2.048 . S
Mg13 O25 2.141 . S
C14 O15 1.313 . S
C14 O21 1.195 . S
O15 C14 1.313 . S
C16 O17 1.245 . S
C16 O25 1.289 . S
O17 C16 1.245 . S
C18 O19 1.245 . S
C18 O20 1.289 . S
O19 C18 1.245 . S
O20 Mg13 2.141 . S
O20 C18 1.289 . S
O21 Mg13 2.048 . S
O21 C14 1.195 . S
O22 Mg13 2.048 . S
O22 C23 1.195 . S
C23 O22 1.195 . S
C23 O24 1.313 . S
O24 C23 1.313 . S
O25 Mg13 2.141 . S
O25 C16 1.289 . S
Mg26 O33 2.141 1_655 S
Mg26 O34 2.048 . S
Mg26 O35 2.048 . S
Mg26 O38 2.141 . S
C27 O28 1.313 . S
C27 O34 1.195 . S
O28 C27 1.313 . S
C29 O30 1.245 . S
C29 O38 1.289 . S
O30 C29 1.245 . S
C31 O32 1.245 . S
C31 O33 1.289 . S
O32 C31 1.245 . S
O33 Mg26 2.141 1_455 S
O33 C31 1.289 . S
O34 Mg26 2.048 . S
O34 C27 1.195 . S
O35 Mg26 2.048 . S
O35 C36 1.195 . S
C36 O35 1.195 . S
C36 O37 1.313 . S
O37 C36 1.313 . S
O38 Mg26 2.141 . S
O38 C29 1.289 . S
Mg39 O46 2.141 . S
Mg39 O47 2.048 . S
Mg39 O48 2.048 . S
Mg39 O51 2.141 . S
C40 O41 1.313 . S
C40 O47 1.195 . S
O41 C40 1.313 . S
C42 O43 1.245 . S
C42 O51 1.289 . S
O43 C42 1.245 . S
C44 O45 1.245 . S
C44 O46 1.289 . S
O45 C44 1.245 . S
O46 Mg39 2.141 . S
O46 C44 1.289 . S
O47 Mg39 2.048 . S
O47 C40 1.195 . S
O48 Mg39 2.048 . S
O48 C49 1.195 . S
C49 O48 1.195 . S
C49 O50 1.313 . S
O50 C49 1.313 . S
O51 Mg39 2.141 . S
O51 C42 1.289 . S
Mg52 O59 2.141 . S
Mg52 O60 2.048 . S
Mg52 O61 2.048 . S
Mg52 O64 2.141 . S
C53 O54 1.313 . S
C53 O60 1.195 . S
O54 C53 1.313 . S
C55 O56 1.245 . S
C55 O64 1.289 . S
O56 C55 1.245 . S
C57 O58 1.245 . S
C57 O59 1.289 . S
O58 C57 1.245 . S
O59 Mg52 2.141 . S
O59 C57 1.289 . S
O60 Mg52 2.048 . S
O60 C53 1.195 . S
O61 Mg52 2.048 . S
O61 C62 1.195 . S
C62 O61 1.195 . S
C62 O63 1.313 . S
O63 C62 1.313 . S
O64 Mg52 2.141 . S
O64 C55 1.289 . S
Mg65 O72 2.141 1_655 S
Mg65 O73 2.048 . S
Mg65 O74 2.048 . S
Mg65 O77 2.141 . S
C66 O67 1.313 . S
C66 O73 1.195 . S
O67 C66 1.313 . S
C68 O69 1.245 . S
C68 O77 1.289 . S
O69 C68 1.245 . S
C70 O71 1.245 . S
C70 O72 1.289 . S
O71 C70 1.245 . S
O72 Mg65 2.141 1_455 S
O72 C70 1.289 . S
O73 Mg65 2.048 . S
O73 C66 1.195 . S
O74 Mg65 2.048 . S
O74 C75 1.195 . S
C75 O74 1.195 . S
C75 O76 1.313 . S
O76 C75 1.313 . S
O77 Mg65 2.141 . S
O77 C68 1.289 . S
Mg78 O85 2.141 . S
Mg78 O86 2.048 . S
Mg78 O87 2.048 . S
Mg78 O90 2.141 . S
C79 O80 1.313 . S
C79 O86 1.195 . S
O80 C79 1.313 . S
C81 O82 1.245 . S
C81 O90 1.289 . S
O82 C81 1.245 . S
C83 O84 1.245 . S
C83 O85 1.289 . S
O84 C83 1.245 . S
O85 Mg78 2.141 . S
O85 C83 1.289 . S
O86 Mg78 2.048 . S
O86 C79 1.195 . S
O87 Mg78 2.048 . S
O87 C88 1.195 . S
C88 O87 1.195 . S
C88 O89 1.313 . S
O89 C88 1.313 . S
O90 Mg78 2.141 . S
O90 C81 1.289 . S
Mg91 O98 2.141 1_455 S
Mg91 O99 2.048 . S
Mg91 O100 2.048 . S
Mg91 O103 2.141 . S
C92 O93 1.313 . S
C92 O99 1.195 . S
O93 C92 1.313 . S
C94 O95 1.245 . S
C94 O103 1.289 . S
O95 C94 1.245 . S
C96 O97 1.245 . S
C96 O98 1.289 . S
O97 C96 1.245 . S
O98 Mg91 2.141 1_655 S
O98 C96 1.289 . S
O99 Mg91 2.048 . S
O99 C92 1.195 . S
O100 Mg91 2.048 . S
O100 C101 1.195 . S
C101 O100 1.195 . S
C101 O102 1.313 . S
O102 C101 1.313 . S
O103 Mg91 2.141 . S
O103 C94 1.289 . S
H104 C122 0.951 . S
H105 C124 0.951 . S
H106 C126 0.950 . S
H107 C127 0.950 . S
H108 C129 0.950 . S
H109 C132 0.950 . S
H110 C133 0.950 . S
H111 C135 0.950 . S
H112 C136 0.950 . S
H113 C137 0.951 . S
H114 C139 0.951 . S
H115 C141 0.950 . S
H116 C142 0.950 . S
H117 C144 0.950 . S
H118 C147 0.950 . S
H119 C148 0.950 . S
H120 C150 0.950 . S
H121 C151 0.950 . S
C122 H104 0.951 . S
C122 C123 1.366 . S
C122 C124 1.388 . S
C123 C122 1.366 . S
C123 C127 1.385 1_655 S
C124 H105 0.951 . S
C124 C122 1.388 . S
C124 C125 1.366 . S
C125 C124 1.366 . S
C125 C126 1.414 1_655 S
C125 C128 1.499 . S
C126 H106 0.950 . S
C126 C125 1.414 1_455 S
C126 C127 1.374 . S
C127 H107 0.950 . S
C127 C123 1.385 1_455 S
C127 C126 1.374 . S
C128 C125 1.499 . S
C128 C129 1.373 1_655 S
C128 C130 1.389 . S
C129 H108 0.950 . S
C129 C128 1.373 1_455 S
C129 C145 1.377 . S
C130 C128 1.389 . S
C130 C131 1.524 . S
C130 C144 1.377 . S
C131 C130 1.524 . S
C131 C132 1.397 . S
C131 C136 1.363 . S
C132 H109 0.950 . S
C132 C131 1.397 . S
C132 C133 1.334 . S
C133 H110 0.950 . S
C133 C132 1.334 . S
C133 C134 1.287 . S
C134 C133 1.287 . S
C134 C135 1.524 . S
C134 H153 0.913 . S
C135 H111 0.950 . S
C135 C134 1.524 . S
C135 C136 1.415 . S
C136 H112 0.950 . S
C136 C131 1.363 . S
C136 C135 1.415 . S
C137 H113 0.951 . S
C137 C138 1.366 . S
C137 C139 1.388 . S
C138 C137 1.366 . S
C138 C142 1.385 1_455 S
C139 H114 0.951 . S
C139 C137 1.388 . S
C139 C140 1.366 . S
C140 C139 1.366 . S
C140 C141 1.414 1_455 S
C140 C143 1.499 . S
C141 H115 0.950 . S
C141 C140 1.414 1_655 S
C141 C142 1.374 . S
C142 H116 0.950 . S
C142 C138 1.385 1_655 S
C142 C141 1.374 . S
C143 C140 1.499 . S
C143 C144 1.373 1_455 S
C143 C145 1.389 . S
C144 H117 0.950 . S
C144 C130 1.377 . S
C144 C143 1.373 1_655 S
C145 C129 1.377 . S
C145 C143 1.389 . S
C145 C146 1.524 . S
C146 C145 1.524 . S
C146 C147 1.397 . S
C146 C151 1.363 . S
C147 H118 0.950 . S
C147 C146 1.397 . S
C147 C148 1.334 . S
C148 H119 0.950 . S
C148 C147 1.334 . S
C148 C149 1.287 . S
C149 C148 1.287 . S
C149 C150 1.524 . S
C149 H152 0.999 . S
C150 H120 0.950 . S
C150 C149 1.524 . S
C150 C151 1.415 . S
C151 H121 0.950 . S
C151 C146 1.363 . S
C151 C150 1.415 . S
H152 C149 0.999 . S
H153 C134 0.913 . S
H154 C172 0.951 . S
H155 C174 0.951 . S
H156 C176 0.950 . S
H157 C177 0.950 . S
H158 C179 0.950 . S
H159 C182 0.950 . S
H160 C183 0.950 . S
H161 C185 0.950 . S
H162 C186 0.950 . S
H163 C187 0.951 . S
H164 C189 0.951 . S
H165 C191 0.950 . S
H166 C192 0.950 . S
H167 C194 0.950 . S
H168 C197 0.950 . S
H169 C198 0.950 . S
H170 C200 0.950 . S
H171 C201 0.950 . S
C172 H154 0.951 . S
C172 C173 1.366 . S
C172 C174 1.388 . S
C173 C172 1.366 . S
C173 C177 1.385 . S
C174 H155 0.951 . S
C174 C172 1.388 . S
C174 C175 1.366 . S
C175 C174 1.366 . S
C175 C176 1.414 . S
C175 C178 1.499 . S
C176 H156 0.950 . S
C176 C175 1.414 . S
C176 C177 1.374 . S
C177 H157 0.950 . S
C177 C173 1.385 . S
C177 C176 1.374 . S
C178 C175 1.499 . S
C178 C179 1.373 . S
C178 C180 1.389 . S
C179 H158 0.950 . S
C179 C178 1.373 . S
C179 C195 1.377 . S
C180 C178 1.389 . S
C180 C181 1.524 . S
C180 C194 1.377 . S
C181 C180 1.524 . S
C181 C182 1.397 . S
C181 C186 1.363 . S
C182 H159 0.950 . S
C182 C181 1.397 . S
C182 C183 1.334 . S
C183 H160 0.950 . S
C183 C182 1.334 . S
C183 C184 1.287 . S
C184 C183 1.287 . S
C184 C185 1.524 . S
C184 H203 0.913 . S
C185 H161 0.950 . S
C185 C184 1.524 . S
C185 C186 1.415 . S
C186 H162 0.950 . S
C186 C181 1.363 . S
C186 C185 1.415 . S
C187 H163 0.951 . S
C187 C188 1.366 . S
C187 C189 1.388 . S
C188 C187 1.366 . S
C188 C192 1.385 . S
C189 H164 0.951 . S
C189 C187 1.388 . S
C189 C190 1.366 . S
C190 C189 1.366 . S
C190 C191 1.414 . S
C190 C193 1.499 . S
C191 H165 0.950 . S
C191 C190 1.414 . S
C191 C192 1.374 . S
C192 H166 0.950 . S
C192 C188 1.385 . S
C192 C191 1.374 . S
C193 C190 1.499 . S
C193 C194 1.373 . S
C193 C195 1.389 . S
C194 H167 0.950 . S
C194 C180 1.377 . S
C194 C193 1.373 . S
C195 C179 1.377 . S
C195 C193 1.389 . S
C195 C196 1.524 . S
C196 C195 1.524 . S
C196 C197 1.397 . S
C196 C201 1.363 . S
C197 H168 0.950 . S
C197 C196 1.397 . S
C197 C198 1.334 . S
C198 H169 0.950 . S
C198 C197 1.334 . S
C198 C199 1.287 . S
C199 C198 1.287 . S
C199 C200 1.524 . S
C199 H202 0.999 . S
C200 H170 0.950 . S
C200 C199 1.524 . S
C200 C201 1.415 . S
C201 H171 0.950 . S
C201 C196 1.363 . S
C201 C200 1.415 . S
H202 C199 0.999 . S
H203 C184 0.913 . S
H204 C222 0.951 . S
H205 C224 0.951 . S
H206 C226 0.950 . S
H207 C227 0.950 . S
H208 C229 0.950 . S
H209 C232 0.950 . S
H210 C233 0.950 . S
H211 C235 0.950 . S
H212 C236 0.950 . S
H213 C237 0.951 . S
H214 C239 0.951 . S
H215 C241 0.950 . S
H216 C242 0.950 . S
H217 C244 0.950 . S
H218 C247 0.950 . S
H219 C248 0.950 . S
H220 C250 0.950 . S
H221 C251 0.950 . S
C222 H204 0.951 . S
C222 C223 1.366 . S
C222 C224 1.388 . S
C223 C222 1.366 . S
C223 C227 1.385 . S
C224 H205 0.951 . S
C224 C222 1.388 . S
C224 C225 1.366 . S
C225 C224 1.366 . S
C225 C226 1.414 . S
C225 C228 1.499 . S
C226 H206 0.950 . S
C226 C225 1.414 . S
C226 C227 1.374 . S
C227 H207 0.950 . S
C227 C223 1.385 . S
C227 C226 1.374 . S
C228 C225 1.499 . S
C228 C229 1.373 1_554 S
C228 C230 1.389 1_545 S
C229 H208 0.950 . S
C229 C228 1.373 1_556 S
C229 C245 1.377 . S
C230 C228 1.389 1_565 S
C230 C231 1.524 . S
C230 C244 1.377 . S
C231 C230 1.524 . S
C231 C232 1.397 1_565 S
C231 C236 1.363 . S
C232 H209 0.950 . S
C232 C231 1.397 1_545 S
C232 C233 1.334 . S
C233 H210 0.950 . S
C233 C232 1.334 . S
C233 C234 1.287 1_545 S
C234 C233 1.287 1_565 S
C234 C235 1.524 . S
C234 H253 0.913 . S
C235 H211 0.950 . S
C235 C234 1.524 . S
C235 C236 1.415 . S
C236 H212 0.950 . S
C236 C231 1.363 . S
C236 C235 1.415 . S
C237 H213 0.951 . S
C237 C238 1.366 . S
C237 C239 1.388 . S
C238 C237 1.366 . S
C238 C242 1.385 . S
C239 H214 0.951 . S
C239 C237 1.388 . S
C239 C240 1.366 . S
C240 C239 1.366 . S
C240 C241 1.414 . S
C240 C243 1.499 . S
C241 H215 0.950 . S
C241 C240 1.414 . S
C241 C242 1.374 . S
C242 H216 0.950 . S
C242 C238 1.385 . S
C242 C241 1.374 . S
C243 C240 1.499 . S
C243 C244 1.373 1_556 S
C243 C245 1.389 1_565 S
C244 H217 0.950 . S
C244 C230 1.377 . S
C244 C243 1.373 1_554 S
C245 C229 1.377 . S
C245 C243 1.389 1_545 S
C245 C246 1.524 . S
C246 C245 1.524 . S
C246 C247 1.397 1_545 S
C246 C251 1.363 . S
C247 H218 0.950 . S
C247 C246 1.397 1_565 S
C247 C248 1.334 . S
C248 H219 0.950 . S
C248 C247 1.334 . S
C248 C249 1.287 1_565 S
C249 C248 1.287 1_545 S
C249 C250 1.524 . S
C249 H252 0.999 . S
C250 H220 0.950 . S
C250 C249 1.524 . S
C250 C251 1.415 . S
C251 H221 0.950 . S
C251 C246 1.363 . S
C251 C250 1.415 . S
H252 C249 0.999 . S
H253 C234 0.913 . S
H254 C272 0.951 . S
H255 C274 0.951 . S
H256 C276 0.950 . S
H257 C277 0.950 . S
H258 C279 0.950 . S
H259 C282 0.950 . S
H260 C283 0.950 . S
H261 C285 0.950 . S
H262 C286 0.950 . S
H263 C287 0.951 . S
H264 C289 0.951 . S
H265 C291 0.950 . S
H266 C292 0.950 . S
H267 C294 0.950 . S
H268 C297 0.950 . S
H269 C298 0.950 . S
H270 C300 0.950 . S
H271 C301 0.950 . S
C272 H254 0.951 . S
C272 C273 1.366 . S
C272 C274 1.388 . S
C273 C272 1.366 . S
C273 C277 1.385 1_455 S
C274 H255 0.951 . S
C274 C272 1.388 . S
C274 C275 1.366 . S
C275 C274 1.366 . S
C275 C276 1.414 1_455 S
C275 C278 1.497 . S
C276 H256 0.950 . S
C276 C275 1.414 1_655 S
C276 C277 1.374 . S
C277 H257 0.950 . S
C277 C273 1.385 1_655 S
C277 C276 1.374 . S
C278 C275 1.497 . S
C278 C279 1.364 1_454 S
C278 C280 1.400 . S
C279 H258 0.950 . S
C279 C278 1.364 1_656 S
C279 C295 1.377 1_565 S
C280 C278 1.400 . S
C280 C281 1.524 . S
C280 C294 1.377 1_565 S
C281 C280 1.524 . S
C281 C282 1.397 . S
C281 C286 1.363 . S
C282 H259 0.950 . S
C282 C281 1.397 . S
C282 C283 1.334 . S
C283 H260 0.950 . S
C283 C282 1.334 . S
C283 C284 1.287 . S
C284 C283 1.287 . S
C284 C285 1.524 . S
C284 H303 0.913 . S
C285 H261 0.950 . S
C285 C284 1.524 . S
C285 C286 1.415 . S
C286 H262 0.950 . S
C286 C281 1.363 . S
C286 C285 1.415 . S
C287 H263 0.951 . S
C287 C288 1.366 . S
C287 C289 1.388 . S
C288 C287 1.366 . S
C288 C292 1.385 1_655 S
C289 H264 0.951 . S
C289 C287 1.388 . S
C289 C290 1.366 . S
C290 C289 1.366 . S
C290 C291 1.414 1_655 S
C290 C293 1.497 . S
C291 H265 0.950 . S
C291 C290 1.414 1_455 S
C291 C292 1.374 . S
C292 H266 0.950 . S
C292 C288 1.385 1_455 S
C292 C291 1.374 . S
C293 C290 1.497 . S
C293 C294 1.364 1_656 S
C293 C295 1.400 . S
C294 H267 0.950 . S
C294 C280 1.377 1_545 S
C294 C293 1.364 1_454 S
C295 C279 1.377 1_545 S
C295 C293 1.400 . S
C295 C296 1.524 . S
C296 C295 1.524 . S
C296 C297 1.397 . S
C296 C301 1.363 . S
C297 H268 0.950 . S
C297 C296 1.397 . S
C297 C298 1.334 . S
C298 H269 0.950 . S
C298 C297 1.334 . S
C298 C299 1.287 . S
C299 C298 1.287 . S
C299 C300 1.524 . S
C299 H302 0.999 . S
C300 H270 0.950 . S
C300 C299 1.524 . S
C300 C301 1.415 . S
C301 H271 0.950 . S
C301 C296 1.363 . S
C301 C300 1.415 . S
H302 C299 0.999 . S
H303 C284 0.913 . S
H304 C322 0.951 . S
H305 C324 0.951 . S
H306 C326 0.950 . S
H307 C327 0.950 . S
H308 C329 0.950 . S
H309 C332 0.950 . S
H310 C333 0.950 . S
H311 C335 0.950 . S
H312 C336 0.950 . S
H313 C337 0.951 . S
H314 C339 0.951 . S
H315 C341 0.950 . S
H316 C342 0.950 . S
H317 C344 0.950 . S
H318 C347 0.950 . S
H319 C348 0.950 . S
H320 C350 0.950 . S
H321 C351 0.950 . S
C322 H304 0.951 . S
C322 C323 1.366 . S
C322 C324 1.388 . S
C323 C322 1.366 . S
C323 C327 1.385 . S
C324 H305 0.951 . S
C324 C322 1.388 . S
C324 C325 1.366 . S
C325 C324 1.366 . S
C325 C326 1.414 . S
C325 C328 1.499 . S
C326 H306 0.950 . S
C326 C325 1.414 . S
C326 C327 1.374 . S
C327 H307 0.950 . S
C327 C323 1.385 . S
C327 C326 1.374 . S
C328 C325 1.499 . S
C328 C329 1.373 . S
C328 C330 1.389 . S
C329 H308 0.950 . S
C329 C328 1.373 . S
C329 C345 1.377 . S
C330 C328 1.389 . S
C330 C331 1.524 . S
C330 C344 1.377 . S
C331 C330 1.524 . S
C331 C332 1.397 . S
C331 C336 1.363 . S
C332 H309 0.950 . S
C332 C331 1.397 . S
C332 C333 1.334 . S
C333 H310 0.950 . S
C333 C332 1.334 . S
C333 C334 1.287 . S
C334 C333 1.287 . S
C334 C335 1.524 . S
C334 H353 0.913 . S
C335 H311 0.950 . S
C335 C334 1.524 . S
C335 C336 1.415 . S
C336 H312 0.950 . S
C336 C331 1.363 . S
C336 C335 1.415 . S
C337 H313 0.951 . S
C337 C338 1.366 . S
C337 C339 1.388 . S
C338 C337 1.366 . S
C338 C342 1.385 . S
C339 H314 0.951 . S
C339 C337 1.388 . S
C339 C340 1.366 . S
C340 C339 1.366 . S
C340 C341 1.414 . S
C340 C343 1.499 . S
C341 H315 0.950 . S
C341 C340 1.414 . S
C341 C342 1.374 . S
C342 H316 0.950 . S
C342 C338 1.385 . S
C342 C341 1.374 . S
C343 C340 1.499 . S
C343 C344 1.373 . S
C343 C345 1.389 . S
C344 H317 0.950 . S
C344 C330 1.377 . S
C344 C343 1.373 . S
C345 C329 1.377 . S
C345 C343 1.389 . S
C345 C346 1.524 . S
C346 C345 1.524 . S
C346 C347 1.397 . S
C346 C351 1.363 . S
C347 H318 0.950 . S
C347 C346 1.397 . S
C347 C348 1.334 . S
C348 H319 0.950 . S
C348 C347 1.334 . S
C348 C349 1.287 . S
C349 C348 1.287 . S
C349 C350 1.524 . S
C349 H352 0.999 . S
C350 H320 0.950 . S
C350 C349 1.524 . S
C350 C351 1.415 . S
C351 H321 0.950 . S
C351 C346 1.363 . S
C351 C350 1.415 . S
H352 C349 0.999 . S
H353 C334 0.913 . S
H354 C372 0.951 . S
H355 C374 0.951 . S
H356 C376 0.950 . S
H357 C377 0.950 . S
H358 C379 0.950 . S
H359 C382 0.950 . S
H360 C383 0.950 . S
H361 C385 0.950 . S
H362 C386 0.950 . S
H363 C387 0.951 . S
H364 C389 0.951 . S
H365 C391 0.950 . S
H366 C392 0.950 . S
H367 C394 0.950 . S
H368 C397 0.950 . S
H369 C398 0.950 . S
H370 C400 0.950 . S
H371 C401 0.950 . S
C372 H354 0.951 . S
C372 C373 1.366 . S
C372 C374 1.388 . S
C373 C372 1.366 . S
C373 C377 1.385 . S
C374 H355 0.951 . S
C374 C372 1.388 . S
C374 C375 1.366 . S
C375 C374 1.366 . S
C375 C376 1.414 . S
C375 C378 1.499 . S
C376 H356 0.950 . S
C376 C375 1.414 . S
C376 C377 1.374 . S
C377 H357 0.950 . S
C377 C373 1.385 . S
C377 C376 1.374 . S
C378 C375 1.499 . S
C378 C379 1.373 . S
C378 C380 1.389 . S
C379 H358 0.950 . S
C379 C378 1.373 . S
C379 C395 1.377 . S
C380 C378 1.389 . S
C380 C381 1.524 . S
C380 C394 1.377 . S
C381 C380 1.524 . S
C381 C382 1.397 . S
C381 C386 1.363 . S
C382 H359 0.950 . S
C382 C381 1.397 . S
C382 C383 1.334 . S
C383 H360 0.950 . S
C383 C382 1.334 . S
C383 C384 1.287 . S
C384 C383 1.287 . S
C384 C385 1.524 . S
C384 H403 0.913 . S
C385 H361 0.950 . S
C385 C384 1.524 . S
C385 C386 1.415 . S
C386 H362 0.950 . S
C386 C381 1.363 . S
C386 C385 1.415 . S
C387 H363 0.951 . S
C387 C388 1.366 . S
C387 C389 1.388 . S
C388 C387 1.366 . S
C388 C392 1.385 . S
C389 H364 0.951 . S
C389 C387 1.388 . S
C389 C390 1.366 . S
C390 C389 1.366 . S
C390 C391 1.414 . S
C390 C393 1.499 . S
C391 H365 0.950 . S
C391 C390 1.414 . S
C391 C392 1.374 . S
C392 H366 0.950 . S
C392 C388 1.385 . S
C392 C391 1.374 . S
C393 C390 1.499 . S
C393 C394 1.373 . S
C393 C395 1.389 . S
C394 H367 0.950 . S
C394 C380 1.377 . S
C394 C393 1.373 . S
C395 C379 1.377 . S
C395 C393 1.389 . S
C395 C396 1.524 . S
C396 C395 1.524 . S
C396 C397 1.397 . S
C396 C401 1.363 . S
C397 H368 0.950 . S
C397 C396 1.397 . S
C397 C398 1.334 . S
C398 H369 0.950 . S
C398 C397 1.334 . S
C398 C399 1.287 . S
C399 C398 1.287 . S
C399 C400 1.524 . S
C399 H402 0.999 . S
C400 H370 0.950 . S
C400 C399 1.524 . S
C400 C401 1.415 . S
C401 H371 0.950 . S
C401 C396 1.363 . S
C401 C400 1.415 . S
H402 C399 0.999 . S
H403 C384 0.913 . S
H404 C422 0.951 . S
H405 C424 0.951 . S
H406 C426 0.950 . S
H407 C427 0.950 . S
H408 C429 0.950 . S
H409 C432 0.950 . S
H410 C433 0.950 . S
H411 C435 0.950 . S
H412 C436 0.950 . S
H413 C437 0.951 . S
H414 C439 0.951 . S
H415 C441 0.950 . S
H416 C442 0.950 . S
H417 C444 0.950 . S
H418 C447 0.950 . S
H419 C448 0.950 . S
H420 C450 0.950 . S
H421 C451 0.950 . S
C422 H404 0.951 . S
C422 C423 1.366 . S
C422 C424 1.388 . S
C423 C422 1.366 . S
C423 C427 1.385 . S
C424 H405 0.951 . S
C424 C422 1.388 . S
C424 C425 1.366 . S
C425 C424 1.366 . S
C425 C426 1.414 . S
C425 C428 1.499 . S
C426 H406 0.950 . S
C426 C425 1.414 . S
C426 C427 1.374 . S
C427 H407 0.950 . S
C427 C423 1.385 . S
C427 C426 1.374 . S
C428 C425 1.499 . S
C428 C429 1.373 . S
C428 C430 1.389 . S
C429 H408 0.950 . S
C429 C428 1.373 . S
C429 C445 1.377 . S
C430 C428 1.389 . S
C430 C431 1.524 . S
C430 C444 1.377 . S
C431 C430 1.524 . S
C431 C432 1.397 . S
C431 C436 1.363 . S
C432 H409 0.950 . S
C432 C431 1.397 . S
C432 C433 1.334 . S
C433 H410 0.950 . S
C433 C432 1.334 . S
C433 C434 1.287 . S
C434 C433 1.287 . S
C434 C435 1.524 . S
C434 H453 0.913 . S
C435 H411 0.950 . S
C435 C434 1.524 . S
C435 C436 1.415 . S
C436 H412 0.950 . S
C436 C431 1.363 . S
C436 C435 1.415 . S
C437 H413 0.951 . S
C437 C438 1.366 . S
C437 C439 1.388 . S
C438 C437 1.366 . S
C438 C442 1.385 . S
C439 H414 0.951 . S
C439 C437 1.388 . S
C439 C440 1.366 . S
C440 C439 1.366 . S
C440 C441 1.414 . S
C440 C443 1.499 . S
C441 H415 0.950 . S
C441 C440 1.414 . S
C441 C442 1.374 . S
C442 H416 0.950 . S
C442 C438 1.385 . S
C442 C441 1.374 . S
C443 C440 1.499 . S
C443 C444 1.373 . S
C443 C445 1.389 . S
C444 H417 0.950 . S
C444 C430 1.377 . S
C444 C443 1.373 . S
C445 C429 1.377 . S
C445 C443 1.389 . S
C445 C446 1.524 . S
C446 C445 1.524 . S
C446 C447 1.397 . S
C446 C451 1.363 . S
C447 H418 0.950 . S
C447 C446 1.397 . S
C447 C448 1.334 . S
C448 H419 0.950 . S
C448 C447 1.334 . S
C448 C449 1.287 . S
C449 C448 1.287 . S
C449 C450 1.524 . S
C449 H452 0.999 . S
C450 H420 0.950 . S
C450 C449 1.524 . S
C450 C451 1.415 . S
C451 H421 0.950 . S
C451 C446 1.363 . S
C451 C450 1.415 . S
H452 C449 0.999 . S
H453 C434 0.913 . S
H454 C472 0.951 . S
H455 C474 0.951 . S
H456 C476 0.950 . S
H457 C477 0.950 . S
H458 C479 0.950 . S
H459 C482 0.950 . S
H460 C483 0.950 . S
H461 C485 0.950 . S
H462 C486 0.950 . S
H463 C487 0.951 . S
H464 C489 0.951 . S
H465 C491 0.950 . S
H466 C492 0.950 . S
H467 C494 0.950 . S
H468 C497 0.950 . S
H469 C498 0.950 . S
H470 C500 0.950 . S
H471 C501 0.950 . S
C472 H454 0.951 . S
C472 C473 1.366 . S
C472 C474 1.388 . S
C473 C472 1.366 . S
C473 C477 1.385 . S
C474 H455 0.951 . S
C474 C472 1.388 . S
C474 C475 1.366 . S
C475 C474 1.366 . S
C475 C476 1.414 . S
C475 C478 1.499 . S
C476 H456 0.950 . S
C476 C475 1.414 . S
C476 C477 1.374 . S
C477 H457 0.950 . S
C477 C473 1.385 . S
C477 C476 1.374 . S
C478 C475 1.499 . S
C478 C479 1.373 . S
C478 C480 1.389 . S
C479 H458 0.950 . S
C479 C478 1.373 . S
C479 C495 1.377 . S
C480 C478 1.389 . S
C480 C481 1.524 . S
C480 C494 1.377 . S
C481 C480 1.524 . S
C481 C482 1.397 . S
C481 C486 1.363 . S
C482 H459 0.950 . S
C482 C481 1.397 . S
C482 C483 1.334 . S
C483 H460 0.950 . S
C483 C482 1.334 . S
C483 C484 1.287 . S
C484 C483 1.287 . S
C484 C485 1.524 . S
C484 H503 0.913 . S
C485 H461 0.950 . S
C485 C484 1.524 . S
C485 C486 1.415 . S
C486 H462 0.950 . S
C486 C481 1.363 . S
C486 C485 1.415 . S
C487 H463 0.951 . S
C487 C488 1.366 . S
C487 C489 1.388 . S
C488 C487 1.366 . S
C488 C492 1.385 . S
C489 H464 0.951 . S
C489 C487 1.388 . S
C489 C490 1.366 . S
C490 C489 1.366 . S
C490 C491 1.414 . S
C490 C493 1.499 . S
C491 H465 0.950 . S
C491 C490 1.414 . S
C491 C492 1.374 . S
C492 H466 0.950 . S
C492 C488 1.385 . S
C492 C491 1.374 . S
C493 C490 1.499 . S
C493 C494 1.373 . S
C493 C495 1.389 . S
C494 H467 0.950 . S
C494 C480 1.377 . S
C494 C493 1.373 . S
C495 C479 1.377 . S
C495 C493 1.389 . S
C495 C496 1.524 . S
C496 C495 1.524 . S
C496 C497 1.397 . S
C496 C501 1.363 . S
C497 H468 0.950 . S
C497 C496 1.397 . S
C497 C498 1.334 . S
C498 H469 0.950 . S
C498 C497 1.334 . S
C498 C499 1.287 . S
C499 C498 1.287 . S
C499 C500 1.524 . S
C499 H502 0.999 . S
C500 H470 0.950 . S
C500 C499 1.524 . S
C500 C501 1.415 . S
C501 H471 0.950 . S
C501 C496 1.363 . S
C501 C500 1.415 . S
H502 C499 0.999 . S
H503 C484 0.913 . S
H504 C522 0.951 . S
H505 C524 0.951 . S
H506 C526 0.950 . S
H507 C527 0.950 . S
H508 C529 0.950 . S
H509 C532 0.950 . S
H510 C533 0.950 . S
H511 C535 0.950 . S
H512 C536 0.950 . S
H513 C537 0.951 . S
H514 C539 0.951 . S
H515 C541 0.950 . S
H516 C542 0.950 . S
H517 C544 0.950 . S
H518 C547 0.950 . S
H519 C548 0.950 . S
H520 C550 0.950 . S
H521 C551 0.950 . S
C522 H504 0.951 . S
C522 C523 1.366 . S
C522 C524 1.388 . S
C523 C522 1.366 . S
C523 C527 1.385 . S
C524 H505 0.951 . S
C524 C522 1.388 . S
C524 C525 1.366 . S
C525 C524 1.366 . S
C525 C526 1.414 . S
C525 C528 1.499 . S
C526 H506 0.950 . S
C526 C525 1.414 . S
C526 C527 1.374 . S
C527 H507 0.950 . S
C527 C523 1.385 . S
C527 C526 1.374 . S
C528 C525 1.499 . S
C528 C529 1.373 . S
C528 C530 1.389 . S
C529 H508 0.950 . S
C529 C528 1.373 . S
C529 C545 1.377 . S
C530 C528 1.389 . S
C530 C531 1.524 . S
C530 C544 1.377 . S
C531 C530 1.524 . S
C531 C532 1.397 . S
C531 C536 1.363 . S
C532 H509 0.950 . S
C532 C531 1.397 . S
C532 C533 1.334 . S
C533 H510 0.950 . S
C533 C532 1.334 . S
C533 C534 1.287 . S
C534 C533 1.287 . S
C534 C535 1.524 . S
C534 H553 0.913 . S
C535 H511 0.950 . S
C535 C534 1.524 . S
C535 C536 1.415 . S
C536 H512 0.950 . S
C536 C531 1.363 . S
C536 C535 1.415 . S
C537 H513 0.951 . S
C537 C538 1.366 . S
C537 C539 1.388 . S
C538 C537 1.366 . S
C538 C542 1.385 . S
C539 H514 0.951 . S
C539 C537 1.388 . S
C539 C540 1.366 . S
C540 C539 1.366 . S
C540 C541 1.414 . S
C540 C543 1.499 . S
C541 H515 0.950 . S
C541 C540 1.414 . S
C541 C542 1.374 . S
C542 H516 0.950 . S
C542 C538 1.385 . S
C542 C541 1.374 . S
C543 C540 1.499 . S
C543 C544 1.373 . S
C543 C545 1.389 . S
C544 H517 0.950 . S
C544 C530 1.377 . S
C544 C543 1.373 . S
C545 C529 1.377 . S
C545 C543 1.389 . S
C545 C546 1.524 . S
C546 C545 1.524 . S
C546 C547 1.397 . S
C546 C551 1.363 . S
C547 H518 0.950 . S
C547 C546 1.397 . S
C547 C548 1.334 . S
C548 H519 0.950 . S
C548 C547 1.334 . S
C548 C549 1.287 . S
C549 C548 1.287 . S
C549 C550 1.524 . S
C549 H552 0.999 . S
C550 H520 0.950 . S
C550 C549 1.524 . S
C550 C551 1.415 . S
C551 H521 0.950 . S
C551 C546 1.363 . S
C551 C550 1.415 . S
H552 C549 0.999 . S
H553 C534 0.913 . S
H554 C572 0.951 . S
H555 C574 0.951 . S
H556 C576 0.950 . S
H557 C577 0.950 . S
H558 C579 0.950 . S
H559 C582 0.950 . S
H560 C583 0.950 . S
H561 C585 0.950 . S
H562 C586 0.950 . S
H563 C587 0.951 . S
H564 C589 0.951 . S
H565 C591 0.950 . S
H566 C592 0.950 . S
H567 C594 0.950 . S
H568 C597 0.950 . S
H569 C598 0.950 . S
H570 C600 0.950 . S
H571 C601 0.950 . S
C572 H554 0.951 . S
C572 C573 1.366 . S
C572 C574 1.388 . S
C573 C572 1.366 . S
C573 C577 1.385 . S
C574 H555 0.951 . S
C574 C572 1.388 . S
C574 C575 1.366 . S
C575 C574 1.366 . S
C575 C576 1.414 . S
C575 C578 1.499 . S
C576 H556 0.950 . S
C576 C575 1.414 . S
C576 C577 1.374 . S
C577 H557 0.950 . S
C577 C573 1.385 . S
C577 C576 1.374 . S
C578 C575 1.499 . S
C578 C579 1.373 . S
C578 C580 1.389 . S
C579 H558 0.950 . S
C579 C578 1.373 . S
C579 C595 1.377 . S
C580 C578 1.389 . S
C580 C581 1.524 . S
C580 C594 1.377 . S
C581 C580 1.524 . S
C581 C582 1.397 . S
C581 C586 1.363 . S
C582 H559 0.950 . S
C582 C581 1.397 . S
C582 C583 1.334 . S
C583 H560 0.950 . S
C583 C582 1.334 . S
C583 C584 1.287 . S
C584 C583 1.287 . S
C584 C585 1.524 . S
C584 H603 0.913 . S
C585 H561 0.950 . S
C585 C584 1.524 . S
C585 C586 1.415 . S
C586 H562 0.950 . S
C586 C581 1.363 . S
C586 C585 1.415 . S
C587 H563 0.951 . S
C587 C588 1.366 . S
C587 C589 1.388 . S
C588 C587 1.366 . S
C588 C592 1.385 . S
C589 H564 0.951 . S
C589 C587 1.388 . S
C589 C590 1.366 . S
C590 C589 1.366 . S
C590 C591 1.414 . S
C590 C593 1.499 . S
C591 H565 0.950 . S
C591 C590 1.414 . S
C591 C592 1.374 . S
C592 H566 0.950 . S
C592 C588 1.385 . S
C592 C591 1.374 . S
C593 C590 1.499 . S
C593 C594 1.373 . S
C593 C595 1.389 . S
C594 H567 0.950 . S
C594 C580 1.377 . S
C594 C593 1.373 . S
C595 C579 1.377 . S
C595 C593 1.389 . S
C595 C596 1.524 . S
C596 C595 1.524 . S
C596 C597 1.397 . S
C596 C601 1.363 . S
C597 H568 0.950 . S
C597 C596 1.397 . S
C597 C598 1.334 . S
C598 H569 0.950 . S
C598 C597 1.334 . S
C598 C599 1.287 . S
C599 C598 1.287 . S
C599 C600 1.524 . S
C599 H602 0.999 . S
C600 H570 0.950 . S
C600 C599 1.524 . S
C600 C601 1.415 . S
C601 H571 0.950 . S
C601 C596 1.363 . S
C601 C600 1.415 . S
H602 C599 0.999 . S
H603 C584 0.913 . S
H604 C622 0.951 . S
H605 C624 0.951 . S
H606 C626 0.950 . S
H607 C627 0.950 . S
H608 C629 0.950 . S
H609 C632 0.950 . S
H610 C633 0.950 . S
H611 C635 0.950 . S
H612 C636 0.950 . S
H613 C637 0.951 . S
H614 C639 0.951 . S
H615 C641 0.950 . S
H616 C642 0.950 . S
H617 C644 0.950 . S
H618 C647 0.950 . S
H619 C648 0.950 . S
H620 C650 0.950 . S
H621 C651 0.950 . S
C622 H604 0.951 . S
C622 C623 1.366 . S
C622 C624 1.388 . S
C623 C622 1.366 . S
C623 C627 1.385 . S
C624 H605 0.951 . S
C624 C622 1.388 . S
C624 C625 1.366 . S
C625 C624 1.366 . S
C625 C626 1.414 . S
C625 C628 1.499 . S
C626 H606 0.950 . S
C626 C625 1.414 . S
C626 C627 1.374 . S
C627 H607 0.950 . S
C627 C623 1.385 . S
C627 C626 1.374 . S
C628 C625 1.499 . S
C628 C629 1.373 . S
C628 C630 1.389 . S
C629 H608 0.950 . S
C629 C628 1.373 . S
C629 C645 1.377 . S
C630 C628 1.389 . S
C630 C631 1.524 . S
C630 C644 1.377 . S
C631 C630 1.524 . S
C631 C632 1.397 . S
C631 C636 1.363 . S
C632 H609 0.950 . S
C632 C631 1.397 . S
C632 C633 1.334 . S
C633 H610 0.950 . S
C633 C632 1.334 . S
C633 C634 1.287 . S
C634 C633 1.287 . S
C634 C635 1.524 . S
C634 H653 0.913 . S
C635 H611 0.950 . S
C635 C634 1.524 . S
C635 C636 1.415 . S
C636 H612 0.950 . S
C636 C631 1.363 . S
C636 C635 1.415 . S
C637 H613 0.951 . S
C637 C638 1.366 . S
C637 C639 1.388 . S
C638 C637 1.366 . S
C638 C642 1.385 . S
C639 H614 0.951 . S
C639 C637 1.388 . S
C639 C640 1.366 . S
C640 C639 1.366 . S
C640 C641 1.414 . S
C640 C643 1.499 . S
C641 H615 0.950 . S
C641 C640 1.414 . S
C641 C642 1.374 . S
C642 H616 0.950 . S
C642 C638 1.385 . S
C642 C641 1.374 . S
C643 C640 1.499 . S
C643 C644 1.373 . S
C643 C645 1.389 . S
C644 H617 0.950 . S
C644 C630 1.377 . S
C644 C643 1.373 . S
C645 C629 1.377 . S
C645 C643 1.389 . S
C645 C646 1.524 . S
C646 C645 1.524 . S
C646 C647 1.397 . S
C646 C651 1.363 . S
C647 H618 0.950 . S
C647 C646 1.397 . S
C647 C648 1.334 . S
C648 H619 0.950 . S
C648 C647 1.334 . S
C648 C649 1.287 . S
C649 C648 1.287 . S
C649 C650 1.524 . S
C649 H652 0.999 . S
C650 H620 0.950 . S
C650 C649 1.524 . S
C650 C651 1.415 . S
C651 H621 0.950 . S
C651 C646 1.363 . S
C651 C650 1.415 . S
H652 C649 0.999 . S
H653 C634 0.913 . S
H654 C672 0.951 . S
H655 C674 0.951 . S
H656 C676 0.950 . S
H657 C677 0.950 . S
H658 C679 0.950 . S
H659 C682 0.950 . S
H660 C683 0.950 . S
H661 C685 0.950 . S
H662 C686 0.950 . S
H663 C687 0.951 . S
H664 C689 0.951 . S
H665 C691 0.950 . S
H666 C692 0.950 . S
H667 C694 0.950 . S
H668 C697 0.950 . S
H669 C698 0.950 . S
H670 C700 0.950 . S
H671 C701 0.950 . S
C672 H654 0.951 . S
C672 C673 1.366 . S
C672 C674 1.388 . S
C673 C672 1.366 . S
C673 C677 1.385 . S
C674 H655 0.951 . S
C674 C672 1.388 . S
C674 C675 1.366 . S
C675 C674 1.366 . S
C675 C676 1.414 . S
C675 C678 1.499 . S
C676 H656 0.950 . S
C676 C675 1.414 . S
C676 C677 1.374 . S
C677 H657 0.950 . S
C677 C673 1.385 . S
C677 C676 1.374 . S
C678 C675 1.499 . S
C678 C679 1.373 . S
C678 C680 1.389 . S
C679 H658 0.950 . S
C679 C678 1.373 . S
C679 C695 1.377 . S
C680 C678 1.389 . S
C680 C681 1.524 . S
C680 C694 1.377 . S
C681 C680 1.524 . S
C681 C682 1.397 . S
C681 C686 1.363 . S
C682 H659 0.950 . S
C682 C681 1.397 . S
C682 C683 1.334 . S
C683 H660 0.950 . S
C683 C682 1.334 . S
C683 C684 1.287 . S
C684 C683 1.287 . S
C684 C685 1.524 . S
C684 H703 0.913 . S
C685 H661 0.950 . S
C685 C684 1.524 . S
C685 C686 1.415 . S
C686 H662 0.950 . S
C686 C681 1.363 . S
C686 C685 1.415 . S
C687 H663 0.951 . S
C687 C688 1.366 . S
C687 C689 1.388 . S
C688 C687 1.366 . S
C688 C692 1.385 . S
C689 H664 0.951 . S
C689 C687 1.388 . S
C689 C690 1.366 . S
C690 C689 1.366 . S
C690 C691 1.414 . S
C690 C693 1.499 . S
C691 H665 0.950 . S
C691 C690 1.414 . S
C691 C692 1.374 . S
C692 H666 0.950 . S
C692 C688 1.385 . S
C692 C691 1.374 . S
C693 C690 1.499 . S
C693 C694 1.373 . S
C693 C695 1.389 . S
C694 H667 0.950 . S
C694 C680 1.377 . S
C694 C693 1.373 . S
C695 C679 1.377 . S
C695 C693 1.389 . S
C695 C696 1.524 . S
C696 C695 1.524 . S
C696 C697 1.397 . S
C696 C701 1.363 . S
C697 H668 0.950 . S
C697 C696 1.397 . S
C697 C698 1.334 . S
C698 H669 0.950 . S
C698 C697 1.334 . S
C698 C699 1.287 . S
C699 C698 1.287 . S
C699 C700 1.524 . S
C699 H702 0.999 . S
C700 H670 0.950 . S
C700 C699 1.524 . S
C700 C701 1.415 . S
C701 H671 0.950 . S
C701 C696 1.363 . S
C701 C700 1.415 . S
H702 C699 0.999 . S
H703 C684 0.913 . S
H704 C722 0.951 . S
H705 C724 0.951 . S
H706 C726 0.950 . S
H707 C727 0.950 . S
H708 C729 0.950 . S
H709 C732 0.950 . S
H710 C733 0.950 . S
H711 C735 0.950 . S
H712 C736 0.950 . S
H713 C737 0.951 . S
H714 C739 0.951 . S
H715 C741 0.950 . S
H716 C742 0.950 . S
H717 C744 0.950 . S
H718 C747 0.950 . S
H719 C748 0.950 . S
H720 C750 0.950 . S
H721 C751 0.950 . S
C722 H704 0.951 . S
C722 C723 1.366 . S
C722 C724 1.388 . S
C723 C722 1.366 . S
C723 C727 1.385 . S
C724 H705 0.951 . S
C724 C722 1.388 . S
C724 C725 1.366 . S
C725 C724 1.366 . S
C725 C726 1.414 . S
C725 C728 1.499 . S
C726 H706 0.950 . S
C726 C725 1.414 . S
C726 C727 1.374 . S
C727 H707 0.950 . S
C727 C723 1.385 . S
C727 C726 1.374 . S
C728 C725 1.499 . S
C728 C729 1.373 . S
C728 C730 1.389 . S
C729 H708 0.950 . S
C729 C728 1.373 . S
C729 C745 1.377 . S
C730 C728 1.389 . S
C730 C731 1.524 . S
C730 C744 1.377 . S
C731 C730 1.524 . S
C731 C732 1.397 . S
C731 C736 1.363 . S
C732 H709 0.950 . S
C732 C731 1.397 . S
C732 C733 1.334 . S
C733 H710 0.950 . S
C733 C732 1.334 . S
C733 C734 1.287 . S
C734 C733 1.287 . S
C734 C735 1.524 . S
C734 H753 0.913 . S
C735 H711 0.950 . S
C735 C734 1.524 . S
C735 C736 1.415 . S
C736 H712 0.950 . S
C736 C731 1.363 . S
C736 C735 1.415 . S
C737 H713 0.951 . S
C737 C738 1.366 . S
C737 C739 1.388 . S
C738 C737 1.366 . S
C738 C742 1.385 . S
C739 H714 0.951 . S
C739 C737 1.388 . S
C739 C740 1.366 . S
C740 C739 1.366 . S
C740 C741 1.414 . S
C740 C743 1.499 . S
C741 H715 0.950 . S
C741 C740 1.414 . S
C741 C742 1.374 . S
C742 H716 0.950 . S
C742 C738 1.385 . S
C742 C741 1.374 . S
C743 C740 1.499 . S
C743 C744 1.373 . S
C743 C745 1.389 . S
C744 H717 0.950 . S
C744 C730 1.377 . S
C744 C743 1.373 . S
C745 C729 1.377 . S
C745 C743 1.389 . S
C745 C746 1.524 . S
C746 C745 1.524 . S
C746 C747 1.397 . S
C746 C751 1.363 . S
C747 H718 0.950 . S
C747 C746 1.397 . S
C747 C748 1.334 . S
C748 H719 0.950 . S
C748 C747 1.334 . S
C748 C749 1.287 . S
C749 C748 1.287 . S
C749 C750 1.524 . S
C749 H752 0.999 . S
C750 H720 0.950 . S
C750 C749 1.524 . S
C750 C751 1.415 . S
C751 H721 0.950 . S
C751 C746 1.363 . S
C751 C750 1.415 . S
H752 C749 0.999 . S
H753 C734 0.913 . S
H754 C772 0.951 . S
H755 C774 0.951 . S
H756 C776 0.950 . S
H757 C777 0.950 . S
H758 C779 0.950 . S
H759 C782 0.950 . S
H760 C783 0.950 . S
H761 C785 0.950 . S
H762 C786 0.950 . S
H763 C787 0.951 . S
H764 C789 0.951 . S
H765 C791 0.950 . S
H766 C792 0.950 . S
H767 C794 0.950 . S
H768 C797 0.950 . S
H769 C798 0.950 . S
H770 C800 0.950 . S
H771 C801 0.950 . S
C772 H754 0.951 . S
C772 C773 1.366 . S
C772 C774 1.388 . S
C773 C772 1.366 . S
C773 C777 1.385 . S
C774 H755 0.951 . S
C774 C772 1.388 . S
C774 C775 1.366 . S
C775 C774 1.366 . S
C775 C776 1.414 . S
C775 C778 1.499 . S
C776 H756 0.950 . S
C776 C775 1.414 . S
C776 C777 1.374 . S
C777 H757 0.950 . S
C777 C773 1.385 . S
C777 C776 1.374 . S
C778 C775 1.499 . S
C778 C779 1.373 . S
C778 C780 1.389 . S
C779 H758 0.950 . S
C779 C778 1.373 . S
C779 C795 1.377 . S
C780 C778 1.389 . S
C780 C781 1.524 . S
C780 C794 1.377 . S
C781 C780 1.524 . S
C781 C782 1.397 . S
C781 C786 1.363 . S
C782 H759 0.950 . S
C782 C781 1.397 . S
C782 C783 1.334 . S
C783 H760 0.950 . S
C783 C782 1.334 . S
C783 C784 1.287 . S
C784 C783 1.287 . S
C784 C785 1.524 . S
C784 H803 0.913 . S
C785 H761 0.950 . S
C785 C784 1.524 . S
C785 C786 1.415 . S
C786 H762 0.950 . S
C786 C781 1.363 . S
C786 C785 1.415 . S
C787 H763 0.951 . S
C787 C788 1.366 . S
C787 C789 1.388 . S
C788 C787 1.366 . S
C788 C792 1.385 . S
C789 H764 0.951 . S
C789 C787 1.388 . S
C789 C790 1.366 . S
C790 C789 1.366 . S
C790 C791 1.414 . S
C790 C793 1.499 . S
C791 H765 0.950 . S
C791 C790 1.414 . S
C791 C792 1.374 . S
C792 H766 0.950 . S
C792 C788 1.385 . S
C792 C791 1.374 . S
C793 C790 1.499 . S
C793 C794 1.373 . S
C793 C795 1.389 . S
C794 H767 0.950 . S
C794 C780 1.377 . S
C794 C793 1.373 . S
C795 C779 1.377 . S
C795 C793 1.389 . S
C795 C796 1.524 . S
C796 C795 1.524 . S
C796 C797 1.397 . S
C796 C801 1.363 . S
C797 H768 0.950 . S
C797 C796 1.397 . S
C797 C798 1.334 . S
C798 H769 0.950 . S
C798 C797 1.334 . S
C798 C799 1.287 . S
C799 C798 1.287 . S
C799 C800 1.524 . S
C799 H802 0.999 . S
C800 H770 0.950 . S
C800 C799 1.524 . S
C800 C801 1.415 . S
C801 H771 0.950 . S
C801 C796 1.363 . S
C801 C800 1.415 . S
H802 C799 0.999 . S
H803 C784 0.913 . S
H804 C822 0.951 . S
H805 C824 0.951 . S
H806 C826 0.950 . S
H807 C827 0.950 . S
H808 C829 0.950 . S
H809 C832 0.950 . S
H810 C833 0.950 . S
H811 C835 0.950 . S
H812 C836 0.950 . S
H813 C837 0.951 . S
H814 C839 0.951 . S
H815 C841 0.950 . S
H816 C842 0.950 . S
H817 C844 0.950 . S
H818 C847 0.950 . S
H819 C848 0.950 . S
H820 C850 0.950 . S
H821 C851 0.950 . S
C822 H804 0.951 . S
C822 C823 1.366 . S
C822 C824 1.388 . S
C823 C822 1.366 . S
C823 C827 1.385 . S
C824 H805 0.951 . S
C824 C822 1.388 . S
C824 C825 1.366 . S
C825 C824 1.366 . S
C825 C826 1.414 . S
C825 C828 1.499 . S
C826 H806 0.950 . S
C826 C825 1.414 . S
C826 C827 1.374 . S
C827 H807 0.950 . S
C827 C823 1.385 . S
C827 C826 1.374 . S
C828 C825 1.499 . S
C828 C829 1.373 . S
C828 C830 1.389 . S
C829 H808 0.950 . S
C829 C828 1.373 . S
C829 C845 1.377 1_554 S
C830 C828 1.389 . S
C830 C831 1.533 . S
C830 C844 1.377 1_554 S
C831 C830 1.533 . S
C831 C832 1.423 . S
C831 C836 1.329 1_554 S
C832 H809 0.950 . S
C832 C831 1.423 . S
C832 C833 1.334 . S
C833 H810 0.950 . S
C833 C832 1.334 . S
C833 C834 1.287 . S
C834 C833 1.287 . S
C834 C835 1.524 1_554 S
C834 H853 0.913 . S
C835 H811 0.950 . S
C835 C834 1.524 1_556 S
C835 C836 1.415 . S
C836 H812 0.950 . S
C836 C831 1.329 1_556 S
C836 C835 1.415 . S
C837 H813 0.951 . S
C837 C838 1.366 . S
C837 C839 1.388 . S
C838 C837 1.366 . S
C838 C842 1.385 . S
C839 H814 0.951 . S
C839 C837 1.388 . S
C839 C840 1.366 . S
C840 C839 1.366 . S
C840 C841 1.414 . S
C840 C843 1.499 . S
C841 H815 0.950 . S
C841 C840 1.414 . S
C841 C842 1.374 . S
C842 H816 0.950 . S
C842 C838 1.385 . S
C842 C841 1.374 . S
C843 C840 1.499 . S
C843 C844 1.373 . S
C843 C845 1.389 . S
C844 H817 0.950 . S
C844 C830 1.377 1_556 S
C844 C843 1.373 . S
C845 C829 1.377 1_556 S
C845 C843 1.389 . S
C845 C846 1.533 . S
C846 C845 1.533 . S
C846 C847 1.423 . S
C846 C851 1.329 1_556 S
C847 H818 0.950 . S
C847 C846 1.423 . S
C847 C848 1.334 . S
C848 H819 0.950 . S
C848 C847 1.334 . S
C848 C849 1.287 . S
C849 C848 1.287 . S
C849 C850 1.524 1_556 S
C849 H852 0.999 . S
C850 H820 0.950 . S
C850 C849 1.524 1_554 S
C850 C851 1.415 . S
C851 H821 0.950 . S
C851 C846 1.329 1_554 S
C851 C850 1.415 . S
H852 C849 0.999 . S
H853 C834 0.913 . S
H854 C872 0.951 . S
H855 C874 0.951 . S
H856 C876 0.950 . S
H857 C877 0.950 . S
H858 C879 0.950 . S
H859 C882 0.950 . S
H860 C883 0.950 . S
H861 C885 0.950 . S
H862 C886 0.950 . S
H863 C887 0.951 . S
H864 C889 0.951 . S
H865 C891 0.950 . S
H866 C892 0.950 . S
H867 C894 0.950 . S
H868 C897 0.950 . S
H869 C898 0.950 . S
H870 C900 0.950 . S
H871 C901 0.950 . S
C872 H854 0.951 . S
C872 C873 1.366 . S
C872 C874 1.388 . S
C873 C872 1.366 . S
C873 C877 1.385 . S
C874 H855 0.951 . S
C874 C872 1.388 . S
C874 C875 1.366 . S
C875 C874 1.366 . S
C875 C876 1.414 . S
C875 C878 1.499 . S
C876 H856 0.950 . S
C876 C875 1.414 . S
C876 C877 1.374 . S
C877 H857 0.950 . S
C877 C873 1.385 . S
C877 C876 1.374 . S
C878 C875 1.499 . S
C878 C879 1.373 . S
C878 C880 1.389 . S
C879 H858 0.950 . S
C879 C878 1.373 . S
C879 C895 1.377 1_554 S
C880 C878 1.389 . S
C880 C881 1.524 . S
C880 C894 1.377 1_554 S
C881 C880 1.524 . S
C881 C882 1.397 . S
C881 C886 1.363 . S
C882 H859 0.950 . S
C882 C881 1.397 . S
C882 C883 1.334 . S
C883 H860 0.950 . S
C883 C882 1.334 . S
C883 C884 1.287 . S
C884 C883 1.287 . S
C884 C885 1.524 . S
C884 H903 0.913 . S
C885 H861 0.950 . S
C885 C884 1.524 . S
C885 C886 1.415 . S
C886 H862 0.950 . S
C886 C881 1.363 . S
C886 C885 1.415 . S
C887 H863 0.951 . S
C887 C888 1.366 . S
C887 C889 1.388 . S
C888 C887 1.366 . S
C888 C892 1.385 . S
C889 H864 0.951 . S
C889 C887 1.388 . S
C889 C890 1.366 . S
C890 C889 1.366 . S
C890 C891 1.414 . S
C890 C893 1.499 . S
C891 H865 0.950 . S
C891 C890 1.414 . S
C891 C892 1.374 . S
C892 H866 0.950 . S
C892 C888 1.385 . S
C892 C891 1.374 . S
C893 C890 1.499 . S
C893 C894 1.373 . S
C893 C895 1.389 . S
C894 H867 0.950 . S
C894 C880 1.377 1_556 S
C894 C893 1.373 . S
C895 C879 1.377 1_556 S
C895 C893 1.389 . S
C895 C896 1.524 . S
C896 C895 1.524 . S
C896 C897 1.397 . S
C896 C901 1.363 . S
C897 H868 0.950 . S
C897 C896 1.397 . S
C897 C898 1.334 . S
C898 H869 0.950 . S
C898 C897 1.334 . S
C898 C899 1.287 . S
C899 C898 1.287 . S
C899 C900 1.524 . S
C899 H902 0.999 . S
C900 H870 0.950 . S
C900 C899 1.524 . S
C900 C901 1.415 . S
C901 H871 0.950 . S
C901 C896 1.363 . S
C901 C900 1.415 . S
H902 C899 0.999 . S
H903 C884 0.913 . S
C123 C3 1.899 1_655 S
C138 C29 1.793 1_455 S
C173 C42 1.793 . S
C188 C16 1.899 . S
C223 C81 1.794 . S
C238 C55 1.899 . S
C273 C68 1.899 1_455 S
C288 C94 1.794 1_655 S
C323 C83 2.168 . S
C338 C5 2.129 . S
C373 C18 2.129 . S
C388 C96 2.168 . S
C423 C31 2.168 . S
C438 C57 2.128 . S
C473 C44 2.168 . S
C488 C70 2.128 . S
C523 C79 2.269 . S
C538 C1 2.358 . S
C573 C14 2.358 . S
C588 C92 2.268 . S
C623 C53 2.358 . S
C638 C27 2.268 . S
C673 C66 2.358 . S
C688 C40 2.268 . S
C723 C23 0.297 . S
C738 C10 0.299 . S
C773 C36 0.219 . S
C788 C49 0.221 . S
C823 C75 0.297 . S
C838 C62 0.299 . S
C873 C88 0.219 . S
C888 C101 0.220 . S
