# Generated by pormake.
# Topology und, (4)-cn, num edge types: 1
# Building blocks:
#     Node 0, Type 0, BuildingBlock: NAHDIM_clean_sbu_0, # of connection points: 4
#     Node 1, Type 0, BuildingBlock: NAHDIM_clean_sbu_0, # of connection points: 4
#     Node 2, Type 0, BuildingBlock: NAHDIM_clean_sbu_0, # of connection points: 4
#     Node 3, Type 0, BuildingBlock: NAHDIM_clean_sbu_0, # of connection points: 4
#     Node 4, Type 0, BuildingBlock: NAHDIM_clean_sbu_0, # of connection points: 4
#     Node 5, Type 0, BuildingBlock: NAHDIM_clean_sbu_0, # of connection points: 4
#     Node 6, Type 0, BuildingBlock: NAHDIM_clean_sbu_0, # of connection points: 4
#     Node 7, Type 0, BuildingBlock: NAHDIM_clean_sbu_0, # of connection points: 4
#     Node 8, Type 0, BuildingBlock: NAHDIM_clean_sbu_0, # of connection points: 4
#     Node 9, Type 0, BuildingBlock: NAHDIM_clean_sbu_0, # of connection points: 4
#     Node 10, Type 0, BuildingBlock: NAHDIM_clean_sbu_0, # of connection points: 4
#     Node 11, Type 0, BuildingBlock: NAHDIM_clean_sbu_0, # of connection points: 4
#     Node 12, Type 0, BuildingBlock: NAHDIM_clean_sbu_0, # of connection points: 4
#     Node 13, Type 0, BuildingBlock: NAHDIM_clean_sbu_0, # of connection points: 4
#     Node 14, Type 0, BuildingBlock: NAHDIM_clean_sbu_0, # of connection points: 4
#     Node 15, Type 0, BuildingBlock: NAHDIM_clean_sbu_0, # of connection points: 4
#     Edge 16, Type (0, 0), BuildingBlock: MIFKUJ_clean_linker_0, # of connection points: 2
#     Edge 17, Type (0, 0), BuildingBlock: MIFKUJ_clean_linker_0, # of connection points: 2
#     Edge 18, Type (0, 0), BuildingBlock: MIFKUJ_clean_linker_0, # of connection points: 2
#     Edge 19, Type (0, 0), BuildingBlock: MIFKUJ_clean_linker_0, # of connection points: 2
#     Edge 20, Type (0, 0), BuildingBlock: MIFKUJ_clean_linker_0, # of connection points: 2
#     Edge 21, Type (0, 0), BuildingBlock: MIFKUJ_clean_linker_0, # of connection points: 2
#     Edge 22, Type (0, 0), BuildingBlock: MIFKUJ_clean_linker_0, # of connection points: 2
#     Edge 23, Type (0, 0), BuildingBlock: MIFKUJ_clean_linker_0, # of connection points: 2
#     Edge 24, Type (0, 0), BuildingBlock: MIFKUJ_clean_linker_0, # of connection points: 2
#     Edge 25, Type (0, 0), BuildingBlock: MIFKUJ_clean_linker_0, # of connection points: 2
#     Edge 26, Type (0, 0), BuildingBlock: MIFKUJ_clean_linker_0, # of connection points: 2
#     Edge 27, Type (0, 0), BuildingBlock: MIFKUJ_clean_linker_0, # of connection points: 2
#     Edge 28, Type (0, 0), BuildingBlock: MIFKUJ_clean_linker_0, # of connection points: 2
#     Edge 29, Type (0, 0), BuildingBlock: MIFKUJ_clean_linker_0, # of connection points: 2
#     Edge 30, Type (0, 0), BuildingBlock: MIFKUJ_clean_linker_0, # of connection points: 2
#     Edge 31, Type (0, 0), BuildingBlock: MIFKUJ_clean_linker_0, # of connection points: 2
#     Edge 32, Type (0, 0), BuildingBlock: MIFKUJ_clean_linker_0, # of connection points: 2
#     Edge 33, Type (0, 0), BuildingBlock: MIFKUJ_clean_linker_0, # of connection points: 2
#     Edge 34, Type (0, 0), BuildingBlock: MIFKUJ_clean_linker_0, # of connection points: 2
#     Edge 35, Type (0, 0), BuildingBlock: MIFKUJ_clean_linker_0, # of connection points: 2
#     Edge 36, Type (0, 0), BuildingBlock: MIFKUJ_clean_linker_0, # of connection points: 2
#     Edge 37, Type (0, 0), BuildingBlock: MIFKUJ_clean_linker_0, # of connection points: 2
#     Edge 38, Type (0, 0), BuildingBlock: MIFKUJ_clean_linker_0, # of connection points: 2
#     Edge 39, Type (0, 0), BuildingBlock: MIFKUJ_clean_linker_0, # of connection points: 2
#     Edge 40, Type (0, 0), BuildingBlock: MIFKUJ_clean_linker_0, # of connection points: 2
#     Edge 41, Type (0, 0), BuildingBlock: MIFKUJ_clean_linker_0, # of connection points: 2
#     Edge 42, Type (0, 0), BuildingBlock: MIFKUJ_clean_linker_0, # of connection points: 2
#     Edge 43, Type (0, 0), BuildingBlock: MIFKUJ_clean_linker_0, # of connection points: 2
#     Edge 44, Type (0, 0), BuildingBlock: MIFKUJ_clean_linker_0, # of connection points: 2
#     Edge 45, Type (0, 0), BuildingBlock: MIFKUJ_clean_linker_0, # of connection points: 2
#     Edge 46, Type (0, 0), BuildingBlock: MIFKUJ_clean_linker_0, # of connection points: 2
#     Edge 47, Type (0, 0), BuildingBlock: MIFKUJ_clean_linker_0, # of connection points: 2
# Relax obj value: 0.114
# Max RMSD: 0.175
# Mean RMSD: 0.175
data_MOF--net-und--node1-NAHDIM_clean_sbu_0--edge1-MIFKUJ_clean_linker_0
_symmetry_space_group_name_H-M    P1
_symmetry_Int_Tables_number       1
_symmetry_cell_setting            triclinic
loop_
_symmetry_equiv_pos_as_xyz
'x, y, z'
_cell_length_a     77.412856
_cell_length_b     77.380289
_cell_length_c     27.686195
_cell_angle_alpha  90.019989
_cell_angle_beta   89.999093
_cell_angle_gamma 96.402706
loop_
_atom_site_label
_atom_site_type_symbol
_atom_site_fract_x
_atom_site_fract_y
_atom_site_fract_z
_atom_type_partial_charge
C0 C 0.23593 0.39112 0.02576 0.0
O1 O 0.2517 0.39581 0.04201 0.0
O2 O 0.24939 0.3452 0.06501 0.0
Zn3 Zn 0.25143 0.3603 0.00558 0.0
O4 O 0.27451 0.37478 0.00171 0.0
C5 C 0.2534 0.3296 0.94958 0.0
O6 O 0.2583 0.32382 0.99144 0.0
O7 O 0.23253 0.37618 0.00669 0.0
C8 C 0.28896 0.36874 0.99574 0.0
O9 O 0.28941 0.35183 0.99469 0.0
C10 C 0.24002 0.34801 0.10127 0.0
O11 O 0.23197 0.36207 0.10234 0.0
O12 O 0.24929 0.34502 0.94666 0.0
C13 C 0.89026 0.04887 0.22503 0.0
O14 O 0.89101 0.03406 0.20231 0.0
O15 O 0.92817 0.02829 0.22236 0.0
Zn16 Zn 0.91462 0.03388 0.2809 0.0
O17 O 0.89997 0.01268 0.30537 0.0
C18 C 0.94742 0.04682 0.32325 0.0
O19 O 0.95239 0.04819 0.27792 0.0
O20 O 0.89948 0.05209 0.26257 0.0
C21 C 0.90679 0.00131 0.32986 0.0
O22 O 0.92362 0.00339 0.33801 0.0
C23 C 0.93016 0.01331 0.20599 0.0
O24 O 0.92224 -0.00058 0.22702 0.0
O25 O 0.93156 0.04208 0.33295 0.0
C26 C 0.26842 0.64824 0.55909 0.0
O27 O 0.25266 0.6467 0.5773 0.0
O28 O 0.25178 0.69129 0.55372 0.0
Zn29 Zn 0.25304 0.67272 0.50419 0.0
O30 O 0.23051 0.65747 0.49858 0.0
C31 C 0.25085 0.67954 0.40193 0.0
O32 O 0.24129 0.66441 0.40101 0.0
O33 O 0.27199 0.65866 0.52413 0.0
C34 C 0.2161 0.66365 0.49335 0.0
O35 O 0.21575 0.68059 0.4943 0.0
C36 C 0.24268 0.69001 0.59196 0.0
O37 O 0.23264 0.67554 0.60091 0.0
O38 O 0.25801 0.68492 0.44125 0.0
C39 C 0.58313 0.96197 0.71012 0.0
O40 O 0.5718 0.96564 0.67742 0.0
O41 O 0.5561 0.99505 0.7035 0.0
Zn42 Zn 0.57104 0.99098 0.76077 0.0
O43 O 0.58814 0.01212 0.77195 0.0
C44 C 0.5402 0.98235 0.81968 0.0
O45 O 0.53284 0.97685 0.7789 0.0
O46 O 0.58453 0.9707 0.74908 0.0
C47 C 0.58439 0.02403 0.80049 0.0
O48 O 0.56903 0.02262 0.8212 0.0
C49 C 0.54545 0.0064 0.70418 0.0
O50 O 0.54429 0.01591 0.7431 0.0
O51 O 0.55634 0.98756 0.82026 0.0
C52 C 0.76968 0.65341 0.9833 0.0
O53 O 0.75503 0.65194 0.95891 0.0
O54 O 0.75066 0.69348 0.97441 0.0
Zn55 Zn 0.75147 0.67751 0.03067 0.0
O56 O 0.72913 0.66188 0.03753 0.0
C57 C 0.76723 0.70595 0.08428 0.0
O58 O 0.77708 0.70731 0.04551 0.0
O59 O 0.77133 0.66362 0.0193 0.0
C60 C 0.72395 0.65693 0.07932 0.0
O61 O 0.73329 0.66231 0.11716 0.0
C62 C 0.7402 0.69248 0.939 0.0
O63 O 0.72779 0.67947 0.93634 0.0
O64 O 0.75556 0.69311 0.08799 0.0
C65 C 0.10227 0.97584 0.81326 0.0
O66 O 0.10157 0.98886 0.84343 0.0
O67 O 0.06523 0.99711 0.82482 0.0
Zn68 Zn 0.0797 0.9956 0.76514 0.0
O69 O 0.0956 0.01778 0.75539 0.0
C70 C 0.04795 0.9922 0.70986 0.0
O71 O 0.04076 0.99254 0.75276 0.0
O72 O 0.09381 0.97574 0.77397 0.0
C73 C 0.09088 0.02949 0.72769 0.0
O74 O 0.07549 0.02715 0.70721 0.0
C75 C 0.06178 0.01128 0.84372 0.0
O76 O 0.06815 0.02613 0.82431 0.0
O77 O 0.06431 0.99205 0.70669 0.0
C78 C 0.73282 0.38212 0.53353 0.0
O79 O 0.74551 0.38981 0.56004 0.0
O80 O 0.75566 0.33778 0.47095 0.0
Zn81 Zn 0.75499 0.35451 0.52598 0.0
O82 O 0.77638 0.37149 0.52801 0.0
C83 C 0.74043 0.33009 0.59646 0.0
O84 O 0.728 0.32734 0.56412 0.0
O85 O 0.73412 0.36708 0.5165 0.0
C86 C 0.79081 0.36662 0.54098 0.0
O87 O 0.7917 0.35011 0.55035 0.0
C88 C 0.76063 0.32276 0.47548 0.0
O89 O 0.76662 0.31808 0.51732 0.0
O90 O 0.75315 0.34151 0.58824 0.0
C91 C 0.38034 0.04902 0.29553 0.0
O92 O 0.38147 0.03399 0.3167 0.0
O93 O 0.42109 0.03209 0.3 0.0
Zn94 Zn 0.40629 0.03581 0.24223 0.0
O95 O 0.39225 0.01319 0.22492 0.0
C96 C 0.4374 0.04836 0.18854 0.0
O97 O 0.44417 0.05196 0.23136 0.0
O98 O 0.39014 0.05329 0.25968 0.0
C99 C 0.39785 0.00309 0.19376 0.0
O100 O 0.41299 0.00749 0.1732 0.0
C101 C 0.43173 0.02073 0.30004 0.0
O102 O 0.43312 0.01115 0.26135 0.0
O103 O 0.42132 0.04306 0.18518 0.0
C104 C 0.72591 0.87014 0.57264 0.0
O105 O 0.73871 0.86875 0.60304 0.0
O106 O 0.74939 0.8333 0.56447 0.0
Zn107 Zn 0.74768 0.85184 0.51488 0.0
O108 O 0.76893 0.86917 0.5123 0.0
C109 C 0.75215 0.84516 0.41253 0.0
O110 O 0.76154 0.86038 0.41232 0.0
O111 O 0.72682 0.86393 0.53037 0.0
C112 C 0.78419 0.86479 0.50803 0.0
O113 O 0.78649 0.84822 0.5084 0.0
C114 C 0.75918 0.83392 0.60135 0.0
O115 O 0.76991 0.84796 0.60991 0.0
O116 O 0.74468 0.83961 0.45127 0.0
C117 C 0.39483 0.55397 0.7845 0.0
O118 O 0.38964 0.54215 0.81702 0.0
O119 O 0.43819 0.53138 0.71444 0.0
Zn120 Zn 0.42318 0.53331 0.77303 0.0
O121 O 0.40727 0.51129 0.78278 0.0
C122 C 0.45241 0.54451 0.83754 0.0
O123 O 0.45968 0.55297 0.80031 0.0
O124 O 0.40908 0.55303 0.76252 0.0
C125 C 0.41365 0.4975 0.79503 0.0
O126 O 0.4306 0.49768 0.79779 0.0
C127 C 0.45246 0.52471 0.71438 0.0
O128 O 0.45815 0.51838 0.75463 0.0
O129 O 0.43728 0.53647 0.83338 0.0
C130 C 0.77319 0.16763 0.06444 0.0
O131 O 0.77182 0.18209 0.08829 0.0
O132 O 0.73634 0.18813 0.085 0.0
Zn133 Zn 0.74044 0.17474 0.02492 0.0
O134 O 0.72003 0.15756 0.00909 0.0
C135 C 0.75547 0.20411 0.96823 0.0
O136 O 0.76625 0.20688 0.00477 0.0
O137 O 0.76142 0.16213 0.03447 0.0
C138 C 0.72178 0.14827 0.97195 0.0
O139 O 0.73661 0.15022 0.9484 0.0
C140 C 0.72939 0.20224 0.08388 0.0
O141 O 0.72351 0.20763 0.04267 0.0
O142 O 0.74393 0.1911 0.96918 0.0
C143 C 0.10971 0.48951 0.23227 0.0
O144 O 0.11583 0.50075 0.26532 0.0
O145 O 0.06002 0.51035 0.20482 0.0
Zn146 Zn 0.07889 0.50531 0.25104 0.0
O147 O 0.09373 0.52745 0.26789 0.0
C148 C 0.05533 0.48444 0.3152 0.0
O149 O 0.04927 0.47679 0.27532 0.0
O150 O 0.09376 0.48866 0.22069 0.0
C151 C 0.08739 0.5409 0.28301 0.0
O152 O 0.07045 0.54087 0.28522 0.0
C153 C 0.04527 0.51417 0.21888 0.0
O154 O 0.04204 0.51507 0.26533 0.0
O155 O 0.06834 0.49594 0.31287 0.0
C156 C 0.25899 0.15793 0.49057 0.0
O157 O 0.25023 0.15267 0.52947 0.0
O158 O 0.22928 0.19995 0.43934 0.0
Zn159 Zn 0.2372 0.18587 0.49401 0.0
O160 O 0.21702 0.17022 0.52125 0.0
C161 C 0.25326 0.21787 0.53762 0.0
O162 O 0.25462 0.22349 0.49287 0.0
O163 O 0.25568 0.17181 0.4697 0.0
C164 C 0.21653 0.16695 0.56627 0.0
O165 O 0.2292 0.17392 0.59405 0.0
C166 C 0.21853 0.21094 0.44646 0.0
O167 O 0.21173 0.21216 0.48965 0.0
O168 O 0.24687 0.20231 0.54592 0.0
C169 C 0.60851 0.47953 0.30881 0.0
O170 O 0.60782 0.49591 0.32041 0.0
O171 O 0.56773 0.496 0.30183 0.0
Zn172 Zn 0.58268 0.48889 0.24828 0.0
O173 O 0.59679 0.51043 0.22352 0.0
C174 C 0.55191 0.47273 0.19998 0.0
O175 O 0.54569 0.47037 0.24392 0.0
O176 O 0.59853 0.47278 0.2758 0.0
C177 C 0.59482 0.51656 0.18152 0.0
O178 O 0.58327 0.50853 0.15211 0.0
C179 C 0.55639 0.50642 0.29531 0.0
O180 O 0.55418 0.51266 0.2519 0.0
O181 O 0.56779 0.4785 0.19443 0.0
C182 C 0.21289 0.85109 0.96458 0.0
O183 O 0.21645 0.83726 0.94068 0.0
O184 O 0.24853 0.82783 0.97004 0.0
Zn185 Zn 0.2433 0.84506 0.01991 0.0
O186 O 0.26359 0.86303 0.02968 0.0
C187 C 0.22772 0.81776 0.07708 0.0
O188 O 0.21886 0.8149 0.03684 0.0
O189 O 0.22242 0.85653 8e-05 0.0
C190 C 0.27808 0.85885 0.04452 0.0
O191 O 0.27976 0.8424 0.05277 0.0
C192 C 0.25777 0.83031 0.93233 0.0
O193 O 0.26556 0.8459 0.92287 0.0
O194 O 0.23866 0.83122 0.08019 0.0
C195 C 0.90981 0.57427 0.77246 0.0
O196 O 0.92537 0.57522 0.79187 0.0
O197 O 0.93234 0.53809 0.79578 0.0
Zn198 Zn 0.91887 0.54169 0.73572 0.0
O199 O 0.90279 0.52025 0.72248 0.0
C200 C 0.95133 0.54575 0.68391 0.0
O201 O 0.95806 0.54842 0.72719 0.0
O202 O 0.90481 0.5616 0.74477 0.0
C203 C 0.90905 0.50579 0.72018 0.0
O204 O 0.92563 0.50527 0.72951 0.0
C205 C 0.92537 0.53652 0.83728 0.0
O206 O 0.90855 0.53714 0.84162 0.0
O207 O 0.93492 0.54421 0.67893 0.0
H208 H 0.22046 0.34949 0.1832 0.0
H209 H 0.21351 0.32646 0.24289 0.0
H210 H 0.24516 0.29336 0.165 0.0
H211 H 0.2521 0.3162 0.10508 0.0
H212 H 0.21324 0.27659 0.18851 0.0
H213 H 0.25974 0.31278 0.2678 0.0
H214 H 0.27426 0.34022 0.30099 0.0
H215 H 0.23141 0.3437 0.39767 0.0
H216 H 0.21653 0.31638 0.36456 0.0
H217 H 0.23115 0.21215 0.35442 0.0
H218 H 0.23057 0.23568 0.29628 0.0
H219 H 0.19984 0.26285 0.39472 0.0
H220 H 0.20059 0.23939 0.45373 0.0
H221 H 0.22725 0.28364 0.36273 0.0
H222 H 0.18215 0.24569 0.28989 0.0
H223 H 0.16771 0.21814 0.25726 0.0
H224 H 0.20734 0.21784 0.14885 0.0
H225 H 0.22217 0.24526 0.18125 0.0
C226 C 0.22605 0.33736 0.17897 0.0
C227 C 0.23683 0.33468 0.1394 0.0
C228 C 0.22207 0.32423 0.21312 0.0
C229 C 0.22883 0.30823 0.2083 0.0
C230 C 0.23975 0.3056 0.16919 0.0
C231 C 0.24378 0.31871 0.13516 0.0
C232 C 0.22441 0.29407 0.24356 0.0
C233 C 0.21641 0.27806 0.22657 0.0
C234 C 0.228 0.29624 0.2934 0.0
C235 C 0.23693 0.31266 0.3133 0.0
C236 C 0.25334 0.31948 0.29582 0.0
C237 C 0.26165 0.33499 0.31469 0.0
C238 C 0.25373 0.34373 0.35131 0.0
C239 C 0.23751 0.33694 0.36924 0.0
C240 C 0.22914 0.32144 0.35046 0.0
C241 C 0.22401 0.22298 0.3635 0.0
C242 C 0.21599 0.22394 0.40881 0.0
C243 C 0.22362 0.2364 0.33006 0.0
C244 C 0.21506 0.25097 0.34104 0.0
C245 C 0.2065 0.2517 0.38555 0.0
C246 C 0.20689 0.23825 0.41912 0.0
C247 C 0.2164 0.26598 0.30757 0.0
C248 C 0.22381 0.2822 0.32484 0.0
C249 C 0.21223 0.264 0.25798 0.0
C250 C 0.20334 0.2475 0.23825 0.0
C251 C 0.18786 0.23969 0.25932 0.0
C252 C 0.17959 0.2241 0.24082 0.0
C253 C 0.18662 0.21623 0.20106 0.0
C254 C 0.20191 0.22395 0.17965 0.0
C255 C 0.21024 0.23953 0.19804 0.0
H256 H 0.1802 0.20416 0.18679 0.0
H257 H 0.26019 0.35573 0.36588 0.0
H258 H 0.98228 0.045 0.3137 0.0
H259 H 0.00232 0.03836 0.37755 0.0
H260 H 0.96214 0.04165 0.48397 0.0
H261 H 0.94195 0.04819 0.42041 0.0
H262 H 0.9966 0.05487 0.51559 0.0
H263 H 0.96502 0.00389 0.44033 0.0
H264 H 0.95532 0.98612 0.36934 0.0
H265 H 0.00844 0.98179 0.33124 0.0
H266 H 0.01844 -0.00028 0.40179 0.0
H267 H 0.01467 0.00055 0.70601 0.0
H268 H -2e-05 0.01149 0.63626 0.0
H269 H 0.04368 0.00327 0.54585 0.0
H270 H 0.05861 0.99236 0.61559 0.0
H271 H 0.01071 0.99397 0.50186 0.0
H272 H 0.04246 0.04183 0.58251 0.0
H273 H 0.05245 0.06003 0.65235 0.0
H274 H 0.00012 0.07102 0.67895 0.0
H275 H 0.98977 0.05262 0.60969 0.0
C276 C 0.97784 0.04481 0.35082 0.0
C277 C 0.96047 0.04687 0.36206 0.0
C278 C 0.9893 0.04098 0.38718 0.0
C279 C 0.98358 0.0393 0.43519 0.0
C280 C 0.96674 0.04287 0.44703 0.0
C281 C 0.95522 0.04654 0.41068 0.0
C282 C 0.99424 0.03169 0.47202 0.0
C283 C -0.00034 0.04156 0.51279 0.0
C284 C -0.00154 0.01443 0.46761 0.0
C285 C 0.99247 0.00326 0.42601 0.0
C286 C 0.97462 -0.00079 0.41666 0.0
C287 C 0.96907 0.98911 0.37653 0.0
C288 C 0.98126 0.98287 0.34571 0.0
C289 C -0.00098 0.98665 0.35511 0.0
C290 C 0.00464 0.99676 0.39519 0.0
C291 C 0.02106 0.00075 0.67118 0.0
C292 C 0.03788 0.99575 0.66641 0.0
C293 C 0.01268 0.00709 0.63144 0.0
C294 C 0.02092 0.00844 0.58629 0.0
C295 C 0.0372 0.0024 0.58058 0.0
C296 C 0.04568 0.99618 0.62044 0.0
C297 C 0.01287 0.01707 0.5459 0.0
C298 C 0.00789 0.00737 0.50446 0.0
C299 C 0.00915 0.03452 0.54962 0.0
C300 C 0.01531 0.04571 0.59114 0.0
C301 C 0.03305 0.048 0.60349 0.0
C302 C 0.03879 0.05837 0.64294 0.0
C303 C 0.02692 0.06664 0.67013 0.0
C304 C 0.0093 0.06459 0.65787 0.0
C305 C 0.00349 0.0542 0.61849 0.0
H306 H 0.03138 0.07468 0.70065 0.0
H307 H 0.97694 0.97508 0.31461 0.0
H308 H 0.26237 0.72131 0.5832 0.0
H309 H 0.26566 0.74505 0.64145 0.0
H310 H 0.22985 0.71553 0.73782 0.0
H311 H 0.2263 0.69165 0.6793 0.0
H312 H 0.22335 0.74925 0.73085 0.0
H313 H 0.27247 0.7185 0.76043 0.0
H314 H 0.29851 0.70445 0.73933 0.0
H315 H 0.3237 0.75319 0.68762 0.0
H316 H 0.29769 0.7675 0.70783 0.0
H317 H 0.24242 0.79716 0.94252 0.0
H318 H 0.24112 0.77367 0.88381 0.0
H319 H 0.27296 0.8067 0.78563 0.0
H320 H 0.27439 0.83054 0.84458 0.0
H321 H 0.28179 0.77167 0.79273 0.0
H322 H 0.23178 0.80223 0.7661 0.0
H323 H 0.20574 0.81555 0.79147 0.0
H324 H 0.18213 0.76596 0.84166 0.0
H325 H 0.20816 0.75239 0.81734 0.0
C326 C 0.25514 0.71983 0.61671 0.0
C327 C 0.24412 0.70455 0.62675 0.0
C328 C 0.25711 0.7334 0.65004 0.0
C329 C 0.24819 0.73192 0.69414 0.0
C330 C 0.23689 0.71686 0.70397 0.0
C331 C 0.2349 0.70324 0.67057 0.0
C332 C 0.25066 0.74618 0.72984 0.0
C333 C 0.23609 0.75401 0.74483 0.0
C334 C 0.26736 0.75257 0.74726 0.0
C335 C 0.28306 0.74404 0.73519 0.0
C336 C 0.2835 0.7262 0.74418 0.0
C337 C 0.29827 0.71819 0.73245 0.0
C338 C 0.31273 0.72791 0.71201 0.0
C339 C 0.31247 0.74567 0.70339 0.0
C340 C 0.29773 0.75375 0.71502 0.0
C341 C 0.24928 0.79948 0.90863 0.0
C342 C 0.25838 0.8158 0.89797 0.0
C343 C 0.24849 0.78601 0.87514 0.0
C344 C 0.25674 0.78858 0.8303 0.0
C345 C 0.26646 0.80456 0.82012 0.0
C346 C 0.26723 0.81814 0.85371 0.0
C347 C 0.25449 0.77468 0.79361 0.0
C348 C 0.26908 0.76693 0.77849 0.0
C349 C 0.23779 0.76825 0.77638 0.0
C350 C 0.22199 0.77632 0.79026 0.0
C351 C 0.22109 0.79418 0.78285 0.0
C352 C 0.20632 0.80178 0.79701 0.0
C353 C 0.19231 0.79161 0.81825 0.0
C354 C 0.193 0.77382 0.82524 0.0
C355 C 0.20775 0.76617 0.81124 0.0
H356 H 0.18089 0.79752 0.82922 0.0
H357 H 0.32415 0.72168 0.70296 0.0
H358 H 0.47295 0.0509 0.18671 0.0
H359 H 0.49097 0.04066 0.12261 0.0
H360 H 0.44566 0.02989 0.03222 0.0
H361 H 0.42752 0.03995 0.0961 0.0
H362 H 0.46311 0.00173 0.04263 0.0
H363 H 0.47712 0.06221 0.00383 0.0
H364 H 0.4872 0.09299 0.02045 0.0
H365 H 0.53691 0.07897 0.06495 0.0
H366 H 0.52705 0.04806 0.04924 0.0
H367 H 0.50477 0.98055 0.82474 0.0
H368 H 0.48766 0.99185 0.88921 0.0
H369 H 0.53421 0.00415 0.97384 0.0
H370 H 0.55146 0.99316 0.90925 0.0
H371 H 0.51654 0.03148 0.96771 0.0
H372 H 0.50313 0.97139 0.0069 0.0
H373 H 0.49341 0.9404 0.99217 0.0
H374 H 0.44308 0.95332 0.9496 0.0
H375 H 0.45258 0.98443 0.9634 0.0
C376 C 0.46687 0.04679 0.15274 0.0
C377 C 0.44877 0.04607 0.14669 0.0
C378 C 0.4772 0.04092 0.11614 0.0
C379 C 0.46961 0.03441 0.07283 0.0
C380 C 0.45173 0.03475 0.06555 0.0
C381 C 0.44141 0.04059 0.10204 0.0
C382 C 0.47995 0.02578 0.03701 0.0
C383 C 0.47465 0.00831 0.02561 0.0
C384 C 0.49532 0.0342 0.01632 0.0
C385 C 0.50128 0.05279 0.02582 0.0
C386 C 0.49015 0.06566 0.01757 0.0
C387 C 0.49584 0.08314 0.02674 0.0
C388 C 0.51267 0.08793 0.04387 0.0
C389 C 0.52387 0.07524 0.05175 0.0
C390 C 0.51824 0.05774 0.04268 0.0
C391 C 0.51132 0.9853 0.85748 0.0
C392 C 0.52948 0.98605 0.86176 0.0
C393 C 0.50152 0.99176 0.89434 0.0
C394 C 0.50968 -0.00114 0.9363 0.0
C395 C 0.52768 -0.00118 0.94163 0.0
C396 C 0.5375 0.99244 0.90476 0.0
C397 C 0.49963 0.00745 0.973 0.0
C398 C 0.505 0.0249 0.98468 0.0
C399 C 0.48437 -0.00103 0.99422 0.0
C400 C 0.47863 0.98027 0.98572 0.0
C401 C 0.49004 0.96764 0.99397 0.0
C402 C 0.48456 0.95005 0.98587 0.0
C403 C 0.46766 0.9449 0.96983 0.0
C404 C 0.45618 0.95733 0.96195 0.0
C405 C 0.4616 0.97494 0.96995 0.0
H406 H 0.46344 0.93127 0.96361 0.0
H407 H 0.51705 0.10147 0.05093 0.0
H408 H 0.20842 0.78597 0.07687 0.0
H409 H 0.21167 0.76154 0.13065 0.0
H410 H 0.24978 0.79376 0.2141 0.0
H411 H 0.24677 0.81822 0.16022 0.0
H412 H 0.26157 0.7637 0.18635 0.0
H413 H 0.20989 0.78092 0.25973 0.0
H414 H 0.17973 0.7883 0.26168 0.0
H415 H 0.16137 0.7374 0.20863 0.0
H416 H 0.19146 0.72979 0.2057 0.0
H417 H 0.26953 0.71134 0.3921 0.0
H418 H 0.26539 0.73343 0.33188 0.0
H419 H 0.2273 0.69762 0.25896 0.0
H420 H 0.23115 0.67544 0.31978 0.0
H421 H 0.21503 0.72805 0.27645 0.0
H422 H 0.2666 0.71031 0.20672 0.0
H423 H 0.29674 0.70288 0.20522 0.0
H424 H 0.31535 0.75462 0.25121 0.0
H425 H 0.28529 0.7623 0.25365 0.0
C426 C 0.21726 0.78797 0.10718 0.0
C427 C 0.22744 0.80399 0.11407 0.0
C428 C 0.21908 0.77399 0.13792 0.0
C429 C 0.231 0.77585 0.17622 0.0
C430 C 0.24058 0.79206 0.18453 0.0
C431 C 0.23877 0.80604 0.15385 0.0
C432 C 0.23443 0.76063 0.2055 0.0
C433 C 0.25145 0.75602 0.2066 0.0
C434 C 0.22107 0.75029 0.23034 0.0
C435 C 0.20296 0.75486 0.23197 0.0
C436 C 0.19945 0.77135 0.24803 0.0
C437 C 0.18235 0.77557 0.24941 0.0
C438 C 0.16865 0.76334 0.23514 0.0
C439 C 0.172 0.74686 0.21959 0.0
C440 C 0.18907 0.74259 0.21809 0.0
C441 C 0.2605 0.70802 0.36278 0.0
C442 C 0.2506 0.69167 0.36086 0.0
C443 C 0.2582 0.72066 0.32824 0.0
C444 C 0.24608 0.71714 0.29088 0.0
C445 C 0.23672 0.70058 0.28758 0.0
C446 C 0.23901 0.68789 0.32219 0.0
C447 C 0.24224 0.73125 0.25785 0.0
C448 C 0.22514 0.73564 0.25595 0.0
C449 C 0.25553 0.7414 0.2322 0.0
C450 C 0.27365 0.73683 0.23072 0.0
C451 C 0.2771 0.72006 0.21689 0.0
C452 C 0.29418 0.71582 0.2158 0.0
C453 C 0.30795 0.72826 0.22821 0.0
C454 C 0.30467 0.74499 0.24163 0.0
C455 C 0.28761 0.74931 0.24281 0.0
H456 H 0.32117 0.72494 0.22734 0.0
H457 H 0.15542 0.76663 0.23626 0.0
H458 H 0.45739 -0.00059 0.30975 0.0
H459 H 0.47632 0.9969 0.37939 0.0
H460 H 0.4502 0.03502 0.45602 0.0
H461 H 0.43139 0.03783 0.38629 0.0
H462 H 0.48476 0.04173 0.46405 0.0
H463 H 0.44249 0.992 0.48385 0.0
H464 H 0.42489 0.96492 0.45908 0.0
H465 H 0.47136 0.94052 0.43559 0.0
H466 H 0.48925 0.96755 0.4596 0.0
H467 H 0.51957 0.02754 0.6963 0.0
H468 H 0.50003 0.02993 0.62789 0.0
H469 H 0.52579 0.992 0.54934 0.0
H470 H 0.54519 0.98932 0.61782 0.0
H471 H 0.49111 0.98523 0.543 0.0
H472 H 0.53334 0.03515 0.52238 0.0
H473 H 0.55087 0.06225 0.54735 0.0
H474 H 0.50431 0.08629 0.57267 0.0
H475 H 0.48649 0.05924 0.54846 0.0
C476 C 0.45562 0.00721 0.34148 0.0
C477 C 0.44288 0.0188 0.34254 0.0
C478 C 0.46641 0.00571 0.38131 0.0
C479 C 0.46454 0.01566 0.42301 0.0
C480 C 0.45184 0.02723 0.42416 0.0
C481 C 0.44108 0.02878 0.38433 0.0
C482 C 0.4761 0.01428 0.46508 0.0
C483 C 0.48597 0.02941 0.48178 0.0
C484 C 0.47795 -0.00185 0.48742 0.0
C485 C 0.46721 0.98186 0.47308 0.0
C486 C 0.44896 0.98091 0.47303 0.0
C487 C 0.43893 0.96556 0.4592 0.0
C488 C 0.447 0.95102 0.44565 0.0
C489 C 0.46512 0.9518 0.44604 0.0
C490 C 0.47521 0.96712 0.4598 0.0
C491 C 0.52113 0.01976 0.6644 0.0
C492 C 0.53395 0.00827 0.66242 0.0
C493 C 0.50999 0.02118 0.6253 0.0
C494 C 0.51159 0.01126 0.5834 0.0
C495 C 0.52435 -0.00023 0.58136 0.0
C496 C 0.53546 -0.0017 0.62047 0.0
C497 C 0.49979 0.01267 0.54188 0.0
C498 C 0.48988 0.99754 0.5253 0.0
C499 C 0.49789 0.02881 0.51967 0.0
C500 C 0.50858 0.04511 0.53406 0.0
C501 C 0.52684 0.04617 0.53363 0.0
C502 C 0.53683 0.06153 0.54758 0.0
C503 C 0.52871 0.07596 0.56171 0.0
C504 C 0.51058 0.07509 0.56178 0.0
C505 C 0.50053 0.05975 0.54791 0.0
H506 H 0.53646 0.08784 0.5725 0.0
H507 H 0.43922 0.93915 0.43496 0.0
H508 H 0.25639 0.25336 0.53529 0.0
H509 H 0.25821 0.27313 0.60439 0.0
H510 H 0.26021 0.2296 0.70093 0.0
H511 H 0.25779 0.20974 0.63213 0.0
H512 H 0.23682 0.24859 0.73048 0.0
H513 H 0.2961 0.2606 0.67888 0.0
H514 H 0.31998 0.26878 0.62152 0.0
H515 H 0.30135 0.31839 0.59918 0.0
H516 H 0.27721 0.31042 0.65594 0.0
H517 H 0.25849 0.29535 0.94553 0.0
H518 H 0.25966 0.27722 0.87369 0.0
H519 H 0.25014 0.32062 0.78356 0.0
H520 H 0.24897 0.33894 0.8554 0.0
H521 H 0.27721 0.30259 0.74999 0.0
H522 H 0.21799 0.29009 0.80268 0.0
H523 H 0.19461 0.28172 0.86144 0.0
H524 H 0.21405 0.23245 0.88296 0.0
H525 H 0.2377 0.24063 0.82481 0.0
C526 C 0.25752 0.24805 0.57119 0.0
C527 C 0.25687 0.23001 0.57838 0.0
C528 C 0.25861 0.25937 0.61067 0.0
C529 C 0.25942 0.25286 0.65788 0.0
C530 C 0.25952 0.2349 0.66486 0.0
C531 C 0.25819 0.22358 0.62552 0.0
C532 C 0.25881 0.26452 0.7002 0.0
C533 C 0.24586 0.26024 0.73505 0.0
C534 C 0.27023 0.28002 0.70547 0.0
C535 C 0.28474 0.28484 0.67131 0.0
C536 C 0.29701 0.2732 0.66144 0.0
C537 C 0.31061 0.27781 0.62909 0.0
C538 C 0.31216 0.29407 0.60662 0.0
C539 C 0.30013 0.30578 0.61656 0.0
C540 C 0.28649 0.30124 0.64885 0.0
C541 C 0.25659 0.30105 0.91047 0.0
C542 C 0.25357 0.31856 0.90613 0.0
C543 C 0.25725 0.29066 0.86949 0.0
C544 C 0.25489 0.29758 0.82346 0.0
C545 C 0.25199 0.31507 0.81886 0.0
C546 C 0.25123 0.32547 0.85992 0.0
C547 C 0.25542 0.28645 0.78022 0.0
C548 C 0.26826 0.29089 0.74524 0.0
C549 C 0.24398 0.27102 0.77489 0.0
C550 C 0.22971 0.26604 0.80972 0.0
C551 C 0.21736 0.27753 0.82023 0.0
C552 C 0.20404 0.27281 0.85338 0.0
C553 C 0.20287 0.25658 0.87601 0.0
C554 C 0.21499 0.24502 0.86545 0.0
C555 C 0.22834 0.24969 0.83236 0.0
H556 H 0.19255 0.25295 0.90166 0.0
H557 H 0.3227 0.29762 0.58159 0.0
H558 H 0.04646 0.98272 0.89135 0.0
H559 H 0.02475 0.98186 0.95545 0.0
H560 H 0.02771 0.03785 0.9533 0.0
H561 H 0.04962 0.03889 0.88934 0.0
H562 H 0.02602 0.02454 0.04587 0.0
H563 H 0.99568 0.01433 0.89452 0.0
H564 H 0.98925 -0.00064 0.81686 0.0
H565 H 0.97536 0.9512 0.89163 0.0
H566 H 0.98199 0.96584 0.96973 0.0
H567 H 0.94765 0.0396 0.15428 0.0
H568 H 0.97025 0.03747 0.0941 0.0
H569 H 0.96386 0.9816 0.10783 0.0
H570 H 0.94099 0.98356 0.16822 0.0
H571 H 0.96785 0.99291 0.01245 0.0
H572 H 0.99644 0.00334 0.16424 0.0
H573 H 0.0022 0.01839 0.24207 0.0
H574 H 0.01922 0.06586 0.16734 0.0
H575 H 0.01326 0.05117 0.08902 0.0
C576 C 0.04261 0.99488 0.90471 0.0
C577 C 0.04964 0.01089 0.88495 0.0
C578 C 0.03018 0.99435 0.94129 0.0
C579 C 0.02448 0.00977 0.95856 0.0
C580 C 0.03194 0.0258 0.94029 0.0
C581 C 0.0444 0.02636 0.90367 0.0
C582 C 0.0102 0.00914 0.99419 0.0
C583 C 0.01327 0.01776 0.03845 0.0
C584 C 0.9937 -9e-05 0.98482 0.0
C585 C 0.9895 0.99114 0.93793 0.0
C586 C 0.99138 0.00052 0.89438 0.0
C587 C 0.98768 0.9921 0.85029 0.0
C588 C 0.98194 0.97433 0.84931 0.0
C589 C 0.97983 0.96496 0.89244 0.0
C590 C 0.98355 0.97331 0.93663 0.0
C591 C 0.95091 0.02682 0.14434 0.0
C592 C 0.94264 0.01174 0.16636 0.0
C593 C 0.96387 0.02565 0.11002 0.0
C594 C 0.96889 0.00941 0.09726 0.0
C595 C 0.96019 0.99425 0.11752 0.0
C596 C 0.94716 0.99541 0.15198 0.0
C597 C 0.98363 0.00846 0.06383 0.0
C598 C 0.98066 -0.00044 0.02003 0.0
C599 C 0.00023 0.01739 0.07368 0.0
C600 C 0.00428 0.02617 0.12072 0.0
C601 C 0.00132 0.01701 0.16438 0.0
C602 C 0.00462 0.02547 0.2086 0.0
C603 C 0.01104 0.04308 0.20964 0.0
C604 C 0.01424 0.05223 0.16647 0.0
C605 C 0.01092 0.04383 0.12214 0.0
H606 H 0.01355 0.04962 0.24391 0.0
H607 H 0.97909 0.96784 0.81514 0.0
H608 H 0.76467 0.72056 0.93578 0.0
H609 H 0.76764 0.74389 0.87652 0.0
H610 H 0.72313 0.71938 0.79907 0.0
H611 H 0.7201 0.69566 0.85837 0.0
H612 H 0.7506 0.73139 0.73894 0.0
H613 H 0.71836 0.75344 0.869 0.0
H614 H 0.71253 0.7603 0.95402 0.0
H615 H 0.76028 0.79428 0.96039 0.0
H616 H 0.76651 0.78743 0.87555 0.0
H617 H 0.73666 0.80428 0.59628 0.0
H618 H 0.73389 0.77986 0.65218 0.0
H619 H 0.77604 0.80496 0.73779 0.0
H620 H 0.7787 0.82976 0.68227 0.0
H621 H 0.74935 0.79236 0.79348 0.0
H622 H 0.78193 0.77046 0.66457 0.0
H623 H 0.78848 0.76333 0.5802 0.0
H624 H 0.741 0.72901 0.57195 0.0
H625 H 0.73404 0.73612 0.6561 0.0
C626 C 0.75548 0.72004 0.90617 0.0
C627 C 0.74206 0.70629 0.90194 0.0
C628 C 0.75719 0.73344 0.87241 0.0
C629 C 0.74546 0.73346 0.83391 0.0
C630 C 0.73226 0.71959 0.82877 0.0
C631 C 0.73053 0.7061 0.86268 0.0
C632 C 0.74703 0.74812 0.79942 0.0
C633 C 0.75005 0.74471 0.75061 0.0
C634 C 0.74679 0.76549 0.81514 0.0
C635 C 0.74297 0.7698 0.86602 0.0
C636 C 0.72767 0.76228 0.88862 0.0
C637 C 0.72429 0.76619 0.93677 0.0
C638 C 0.73604 0.77769 0.96263 0.0
C639 C 0.75119 0.78536 0.94033 0.0
C640 C 0.75464 0.78149 0.89219 0.0
C641 C 0.74542 0.80463 0.62686 0.0
C642 C 0.75794 0.81897 0.63481 0.0
C643 C 0.74386 0.79059 0.65866 0.0
C644 C 0.75491 0.79049 0.69875 0.0
C645 C 0.76742 0.80478 0.70693 0.0
C646 C 0.76895 0.81891 0.67516 0.0
C647 C 0.75299 0.77568 0.73285 0.0
C648 C 0.74988 0.77905 0.78167 0.0
C649 C 0.75322 0.75829 0.71712 0.0
C650 C 0.75738 0.75396 0.66651 0.0
C651 C 0.77282 0.7615 0.64465 0.0
C652 C 0.77662 0.75744 0.59688 0.0
C653 C 0.76514 0.74576 0.57069 0.0
C654 C 0.74986 0.73808 0.59226 0.0
C655 C 0.74599 0.7421 0.64001 0.0
H656 H 0.76811 0.74263 0.53372 0.0
H657 H 0.73341 0.78069 -9e-05 0.0
H658 H 0.7675 0.28882 0.4745 0.0
H659 H 0.76151 0.26767 0.40929 0.0
H660 H 0.74207 0.30706 0.3206 0.0
H661 H 0.74786 0.32824 0.38557 0.0
H662 H 0.72031 0.27705 0.32028 0.0
H663 H 0.78137 0.29434 0.2983 0.0
H664 H 0.81208 0.29954 0.32328 0.0
H665 H 0.81176 0.24553 0.35916 0.0
H666 H 0.78095 0.24004 0.33499 0.0
H667 H 0.71997 0.23517 0.09126 0.0
H668 H 0.7242 0.25476 0.16049 0.0
H669 H 0.7446 0.2144 0.24336 0.0
H670 H 0.74067 0.19481 0.17415 0.0
H671 H 0.76551 0.24422 0.24867 0.0
H672 H 0.70458 0.22673 0.26792 0.0
H673 H 0.6739 0.22164 0.2425 0.0
H674 H 0.67394 0.276 0.21143 0.0
H675 H 0.7047 0.28139 0.23605 0.0
C676 C 0.76209 0.29303 0.44097 0.0
C677 C 0.75818 0.31022 0.43518 0.0
C678 C 0.75869 0.28093 0.40376 0.0
C679 C 0.75141 0.28584 0.36011 0.0
C680 C 0.74764 0.30301 0.35409 0.0
C681 C 0.75104 0.31511 0.39119 0.0
C682 C 0.7474 0.27303 0.3209 0.0
C683 C 0.73022 0.27 0.30419 0.0
C684 C 0.76027 0.26356 0.30086 0.0
C685 C 0.7788 0.26682 0.31532 0.0
C686 C 0.7878 0.2836 0.3119 0.0
C687 C 0.80524 0.28659 0.32584 0.0
C688 C 0.81385 0.27288 0.34293 0.0
C689 C 0.80506 0.25614 0.34599 0.0
C690 C 0.78762 0.25307 0.33214 0.0
C691 C 0.72512 0.23037 0.12443 0.0
C692 C 0.73001 0.21344 0.12719 0.0
C693 C 0.7275 0.24158 0.16401 0.0
C694 C 0.73465 0.236 0.20712 0.0
C695 C 0.7391 0.21896 0.21038 0.0
C696 C 0.73677 0.20777 0.17083 0.0
C697 C 0.7384 0.24823 0.24789 0.0
C698 C 0.75557 0.25118 0.26489 0.0
C699 C 0.72551 0.25762 0.26814 0.0
C700 C 0.70699 0.25443 0.25342 0.0
C701 C 0.69809 0.23758 0.2553 0.0
C702 C 0.68068 0.23464 0.2411 0.0
C703 C 0.67199 0.24848 0.22525 0.0
C704 C 0.68069 0.26529 0.22367 0.0
C705 C 0.69811 0.2683 0.23779 0.0
H706 H 0.65851 0.24618 0.21427 0.0
H707 H 0.82735 0.27523 0.35369 0.0
H708 H 0.77735 0.2341 0.95543 0.0
H709 H 0.77566 0.25606 0.89248 0.0
H710 H 0.73168 0.22495 0.82927 0.0
H711 H 0.73348 0.20285 0.89114 0.0
H712 H 0.75323 0.23851 0.76091 0.0
H713 H 0.72633 0.25927 0.90342 0.0
H714 H 0.72516 0.26768 0.98918 0.0
H715 H 0.7678 0.30738 0.96732 0.0
H716 H 0.7694 0.29901 0.88154 0.0
H717 H 0.71805 0.3013 0.61846 0.0
H718 H 0.72092 0.2806 0.68391 0.0
H719 H 0.76671 0.31211 0.73531 0.0
H720 H 0.7639 0.33294 0.67032 0.0
H721 H 0.74533 0.29888 0.80959 0.0
H722 H 0.77151 0.27843 0.66599 0.0
H723 H 0.77203 0.27021 0.57998 0.0
H724 H 0.73016 0.22987 0.60399 0.0
H725 H 0.72918 0.23806 0.69002 0.0
C726 C 0.76743 0.23187 0.92786 0.0
C727 C 0.75548 0.21681 0.92847 0.0
C728 C 0.76643 0.24446 0.89208 0.0
C729 C 0.75337 0.24223 0.8567 0.0
C730 C 0.74183 0.22693 0.85631 0.0
C731 C 0.74286 0.21434 0.89182 0.0
C732 C 0.75131 0.256 0.82078 0.0
C733 C 0.75134 0.25166 0.77158 0.0
C734 C 0.74915 0.27323 0.83475 0.0
C735 C 0.7481 0.27839 0.88619 0.0
C736 C 0.73553 0.26971 0.91698 0.0
C737 C 0.73478 0.27448 0.96558 0.0
C738 C 0.74643 0.28803 0.98371 0.0
C739 C 0.75881 0.29687 0.95324 0.0
C740 C 0.75964 0.29212 0.90463 0.0
C741 C 0.72859 0.30395 0.64406 0.0
C742 C 0.74085 0.31865 0.63895 0.0
C743 C 0.73024 0.29209 0.6813 0.0
C744 C 0.74418 0.29474 0.71386 0.0
C745 C 0.75591 0.30983 0.71037 0.0
C746 C 0.7543 0.32168 0.67312 0.0
C747 C 0.74709 0.2813 0.74992 0.0
C748 C 0.74727 0.28572 0.79904 0.0
C749 C 0.74938 0.26412 0.73591 0.0
C750 C 0.75016 0.25896 0.68437 0.0
C751 C 0.76233 0.26788 0.65287 0.0
C752 C 0.76272 0.26322 0.60412 0.0
C753 C 0.75111 0.24955 0.58651 0.0
C754 C 0.73913 0.24047 0.61767 0.0
C755 C 0.73866 0.24511 0.66644 0.0
H756 H 0.75142 0.24597 0.54875 0.0
H757 H 0.74583 0.2917 0.02135 0.0
H758 H 0.7882 0.73679 0.08169 0.0
H759 H 0.78632 0.76222 0.13302 0.0
H760 H 0.74557 0.73355 0.21613 0.0
H761 H 0.74721 0.70812 0.16478 0.0
H762 H 0.73678 0.76493 0.18698 0.0
H763 H 0.78592 0.74264 0.26244 0.0
H764 H 0.81502 0.73254 0.26453 0.0
H765 H 0.83768 0.78213 0.21181 0.0
H766 H 0.80866 0.79246 0.2088 0.0
H767 H 0.73226 0.81421 0.39923 0.0
H768 H 0.73518 0.79287 0.33594 0.0
H769 H 0.7752 0.82784 0.26779 0.0
H770 H 0.77248 0.84933 0.33154 0.0
H771 H 0.78528 0.79576 0.28129 0.0
H772 H 0.73643 0.81899 0.21305 0.0
H773 H 0.70737 0.82917 0.2116 0.0
H774 H 0.68412 0.77808 0.25033 0.0
H775 H 0.71307 0.76764 0.25271 0.0
C776 C 0.77901 0.7358 0.11133 0.0
C777 C 0.7678 0.72047 0.11906 0.0
C778 C 0.77797 0.75035 0.14061 0.0
C779 C 0.76579 0.74974 0.17825 0.0
C780 C 0.75499 0.73428 0.18705 0.0
C781 C 0.75602 0.71974 0.15783 0.0
C782 C 0.7637 0.76543 0.20723 0.0
C783 C 0.74732 0.77158 0.20803 0.0
C784 C 0.77766 0.77444 0.23308 0.0
C785 C 0.7951 0.76825 0.23487 0.0
C786 C 0.79709 0.75134 0.25088 0.0
C787 C 0.81357 0.74558 0.25232 0.0
C788 C 0.82818 0.75667 0.23816 0.0
C789 C 0.82634 0.77355 0.22267 0.0
C790 C 0.80989 0.77936 0.22113 0.0
C791 C 0.7415 0.81751 0.3704 0.0
C792 C 0.75221 0.83342 0.37052 0.0
C793 C 0.74309 0.80532 0.33411 0.0
C794 C 0.75535 0.80882 0.29709 0.0
C795 C 0.76565 0.82493 0.29608 0.0
C796 C 0.76402 0.8372 0.33238 0.0
C797 C 0.75824 0.79504 0.26194 0.0
C798 C 0.77477 0.78924 0.25983 0.0
C799 C 0.74442 0.78635 0.23483 0.0
C800 C 0.72696 0.79256 0.23339 0.0
C801 C 0.72514 0.80995 0.22164 0.0
C802 C 0.70868 0.81576 0.22057 0.0
C803 C 0.69391 0.80429 0.23095 0.0
C804 C 0.69557 0.78696 0.24232 0.0
C805 C 0.71201 0.78108 0.24346 0.0
H806 H 0.68118 0.80881 0.2301 0.0
H807 H 0.84093 0.75219 0.23932 0.0
H808 H 0.56056 0.47791 0.10522 0.0
H809 H 0.54234 0.48884 0.04295 0.0
H810 H 0.49827 0.48233 0.13905 0.0
H811 H 0.51642 0.47142 0.20194 0.0
H812 H 0.49005 0.47533 0.03952 0.0
H813 H 0.51979 0.52002 0.1399 0.0
H814 H 0.54524 0.53571 0.18048 0.0
H815 H 0.57 0.54623 0.04326 0.0
H816 H 0.5447 0.53052 0.00179 0.0
H817 H 0.44047 0.53389 0.92621 0.0
H818 H 0.45691 0.52133 0.99002 0.0
H819 H 0.50406 0.5328 0.90736 0.0
H820 H 0.48774 0.54583 0.84393 0.0
H821 H 0.51034 0.537 0.00166 0.0
H822 H 0.47919 0.49325 0.9009 0.0
H823 H 0.45331 0.47774 0.86193 0.0
H824 H 0.431 0.46476 0.00099 0.0
H825 H 0.45653 0.48059 0.04083 0.0
C826 C 0.54688 0.47833 0.11277 0.0
C827 C 0.54001 0.47415 0.15887 0.0
C828 C 0.53652 0.48462 0.07716 0.0
C829 C 0.51914 0.48676 0.08701 0.0
C830 C 0.51174 0.48088 0.13107 0.0
C831 C 0.52212 0.47461 0.1669 0.0
C832 C 0.50937 0.49692 0.05363 0.0
C833 C 0.49432 0.48886 0.03153 0.0
C834 C 0.51518 0.5145 0.04304 0.0
C835 C 0.53042 0.52397 0.06778 0.0
C836 C 0.53072 0.52556 0.11839 0.0
C837 C 0.5451 0.53448 0.14155 0.0
C838 C 0.55924 0.54192 0.11448 0.0
C839 C 0.55903 0.54046 0.06417 0.0
C840 C 0.54466 0.53159 0.0408 0.0
C841 C 0.45441 0.5341 0.92218 0.0
C842 C 0.46282 0.54065 0.87992 0.0
C843 C 0.46376 0.52682 0.95848 0.0
C844 C 0.48159 0.52567 0.95269 0.0
C845 C 0.49026 0.53342 0.91227 0.0
C846 C 0.48094 0.54092 0.87615 0.0
C847 C 0.49097 0.51542 0.98703 0.0
C848 C 0.506 0.52347 0.00946 0.0
C849 C 0.48509 0.49782 0.99793 0.0
C850 C 0.46972 0.48829 0.97387 0.0
C851 C 0.46869 0.48725 0.92319 0.0
C852 C 0.45407 0.4784 0.90093 0.0
C853 C 0.44049 0.47034 0.92898 0.0
C854 C 0.4415 0.47108 0.97932 0.0
C855 C 0.45603 0.48001 0.00175 0.0
H856 H 0.42922 0.46344 0.91176 0.0
H857 H 0.57033 0.54887 0.13249 0.0
H858 H 0.06564 0.49433 0.40598 0.0
H859 H 0.04678 0.50104 0.47241 0.0
H860 H 0.00175 0.48073 0.38997 0.0
H861 H 0.02056 0.47397 0.32317 0.0
H862 H 0.00138 0.51492 0.41651 0.0
H863 H 0.01059 0.46141 0.49341 0.0
H864 H 0.02775 0.43896 0.52535 0.0
H865 H 0.05339 0.47597 0.62472 0.0
H866 H 0.03656 0.49871 0.59292 0.0
H867 H 0.94057 0.53283 0.59588 0.0
H868 H 0.95802 0.52018 0.53496 0.0
H869 H 0.00428 0.53459 0.61928 0.0
H870 H 0.98677 0.54688 0.68139 0.0
H871 H 0.00304 0.50184 0.59167 0.0
H872 H 0.996 0.55565 0.51273 0.0
H873 H 0.98005 0.57894 0.48025 0.0
H874 H 0.95185 0.54248 0.38407 0.0
H875 H 0.96748 0.51891 0.41644 0.0
C876 C 0.05175 0.49077 0.4026 0.0
C877 C 0.04455 0.4838 0.35922 0.0
C878 C 0.041 0.49458 0.44065 0.0
C879 C 0.02289 0.49147 0.4359 0.0
C880 C 0.01572 0.48324 0.39417 0.0
C881 C 0.02649 0.47929 0.35619 0.0
C882 C 0.01158 0.49908 0.47127 0.0
C883 C 0.00143 0.5118 0.45472 0.0
C884 C 0.01226 0.49547 0.52121 0.0
C885 C 0.0224 0.48181 0.54048 0.0
C886 C 0.01999 0.4648 0.52179 0.0
C887 C 0.02964 0.45202 0.53994 0.0
C888 C 0.04168 0.45604 0.57697 0.0
C889 C 0.04407 0.47287 0.59601 0.0
C890 C 0.03446 0.48571 0.57798 0.0
C891 C 0.9545 0.53361 0.60118 0.0
C892 C 0.96228 0.54084 0.64357 0.0
C893 C 0.96447 0.52637 0.56621 0.0
C894 C 0.98247 0.52648 0.57247 0.0
C895 C 0.99039 0.53429 0.61386 0.0
C896 C 0.98039 0.54141 0.64913 0.0
C897 C 0.99285 0.51773 0.53692 0.0
C898 C 0.00287 0.50486 0.55343 0.0
C899 C 0.99222 0.52132 0.48689 0.0
C900 C 0.98279 0.53548 0.46738 0.0
C901 C 0.9863 0.55257 0.48494 0.0
C902 C 0.97733 0.56583 0.46649 0.0
C903 C 0.96491 0.56219 0.43022 0.0
C904 C 0.96146 0.54528 0.41222 0.0
C905 C 0.97038 0.53197 0.43058 0.0
H906 H 0.95799 0.57247 0.41597 0.0
H907 H 0.04913 0.44612 0.59097 0.0
H908 H 0.0486 0.51596 0.12085 0.0
H909 H 0.02638 0.52131 0.0619 0.0
H910 H 0.98939 0.52519 0.17685 0.0
H911 H 0.01156 0.51973 0.23632 0.0
H912 H 0.97582 0.50476 0.10114 0.0
H913 H 0.0062 0.56132 0.12335 0.0
H914 H 0.03184 0.58318 0.12922 0.0
H915 H 0.04533 0.57297 0.98232 0.0
H916 H 0.01991 0.55086 0.97578 0.0
H917 H 0.91561 0.53549 0.93253 0.0
H918 H 0.93431 0.53303 0.00303 0.0
H919 H 0.97844 0.53058 0.90905 0.0
H920 H 0.96002 0.53329 0.83879 0.0
H921 H 0.98625 0.55269 0.98204 0.0
H922 H 0.95785 0.49415 0.96274 0.0
H923 H 0.9326 0.47182 0.95667 0.0
H924 H 0.91561 0.48558 0.0978 0.0
H925 H 0.94067 0.50816 0.10443 0.0
C926 C 0.03575 0.51797 0.13368 0.0
C927 C 0.03185 0.51748 0.18325 0.0
C928 C 0.0231 0.52109 0.09996 0.0
C929 C 0.00633 0.52383 0.11515 0.0
C930 C 0.0023 0.52316 0.16452 0.0
C931 C 0.01499 0.5201 0.19838 0.0
C932 C 0.99303 0.52717 0.07907 0.0
C933 C 0.97791 0.51543 0.07562 0.0
C934 C 0.99594 0.54096 0.04553 0.0
C935 C 0.0112 0.55433 0.0492 0.0
C936 C 0.0147 0.56364 0.0924 0.0
C937 C 0.02919 0.5761 0.09584 0.0
C938 C 0.04023 0.57944 0.0562 0.0
C939 C 0.03678 0.57036 0.01301 0.0
C940 C 0.02231 0.55788 0.0094 0.0
C941 C 0.92929 0.53438 0.92694 0.0
C942 C 0.93634 0.53458 0.88012 0.0
C943 C 0.93994 0.53294 0.96722 0.0
C944 C 0.95774 0.53154 0.96118 0.0
C945 C 0.96475 0.53171 0.91448 0.0
C946 C 0.95417 0.5332 0.87435 0.0
C947 C 0.96926 0.53 0.00322 0.0
C948 C 0.98404 0.54214 0.0079 0.0
C949 C 0.96604 0.51656 0.03777 0.0
C950 C 0.95101 0.50298 0.03383 0.0
C951 C 0.94865 0.49251 0.9923 0.0
C952 C 0.93439 0.47979 0.98879 0.0
C953 C 0.92248 0.47732 0.02676 0.0
C954 C 0.92483 0.48754 0.06838 0.0
C955 C 0.93906 0.50029 0.07204 0.0
H956 H 0.91145 0.46746 0.02398 0.0
H957 H 0.05144 0.58909 0.05893 0.0
H958 H 0.44446 0.53688 0.62537 0.0
H959 H 0.46159 0.5366 0.55132 0.0
H960 H 0.50066 0.51169 0.62752 0.0
H961 H 0.48374 0.5121 0.70191 0.0
H962 H 0.51496 0.5381 0.57088 0.0
H963 H 0.47161 0.48848 0.55457 0.0
H964 H 0.44177 0.47355 0.55203 0.0
H965 H 0.42968 0.50548 0.43258 0.0
H966 H 0.45941 0.52076 0.43484 0.0
H967 H 0.56051 0.49877 0.39023 0.0
H968 H 0.54222 0.50533 0.45788 0.0
H969 H 0.50939 0.53079 0.3613 0.0
H970 H 0.52769 0.52419 0.29285 0.0
H971 H 0.49085 0.50774 0.42365 0.0
H972 H 0.53542 0.55521 0.43461 0.0
H973 H 0.56545 0.56963 0.43675 0.0
H974 H 0.57543 0.54166 0.56587 0.0
H975 H 0.54552 0.52686 0.56412 0.0
C976 C 0.4567 0.53133 0.62641 0.0
C977 C 0.46272 0.52445 0.66949 0.0
C978 C 0.46644 0.53115 0.58402 0.0
C979 C 0.48231 0.524 0.58392 0.0
C980 C 0.48843 0.51728 0.62692 0.0
C981 C 0.47871 0.51746 0.66933 0.0
C982 C 0.49255 0.52341 0.53899 0.0
C983 C 0.50975 0.53136 0.53879 0.0
C984 C 0.48552 0.5151 0.4967 0.0
C985 C 0.46766 0.5059 0.49525 0.0
C986 C 0.46254 0.49241 0.52804 0.0
C987 C 0.44566 0.48387 0.52659 0.0
C988 C 0.43382 0.4886 0.49227 0.0
C989 C 0.43886 0.50185 0.45921 0.0
C990 C 0.45572 0.51045 0.46054 0.0
C991 C 0.54945 0.50583 0.38327 0.0
C992 C 0.54554 0.51097 0.3362 0.0
C993 C 0.53907 0.50965 0.42204 0.0
C994 C 0.52459 0.5187 0.41458 0.0
C995 C 0.52058 0.52386 0.36769 0.0
C996 C 0.53106 0.52012 0.32875 0.0
C997 C 0.51337 0.5221 0.45593 0.0
C998 C 0.49599 0.51471 0.45549 0.0
C999 C 0.52024 0.5309 0.49766 0.0
C1000 C 0.53824 0.53983 0.49902 0.0
C1001 C 0.54405 0.55203 0.46326 0.0
C1002 C 0.56105 0.56029 0.46444 0.0
C1003 C 0.57235 0.55654 0.50138 0.0
C1004 C 0.56666 0.54455 0.53727 0.0
C1005 C 0.54967 0.53623 0.53624 0.0
H1006 H 0.58551 0.56295 0.50223 0.0
H1007 H 0.42075 0.48196 0.4912 0.0
H1008 H 0.10101 0.46314 0.16779 0.0
H1009 H 0.12079 0.44629 0.12346 0.0
H1010 H 0.16464 0.47499 0.19416 0.0
H1011 H 0.14503 0.49187 0.2386 0.0
H1012 H 0.16885 0.47224 0.09453 0.0
H1013 H 0.15124 0.43521 0.23094 0.0
H1014 H 0.12993 0.41839 0.28381 0.0
H1015 H 0.11065 0.38714 0.16307 0.0
H1016 H 0.13172 0.40394 0.10933 0.0
H1017 H 0.23875 0.4225 0.07138 0.0
H1018 H 0.21535 0.43923 0.09533 0.0
H1019 H 0.17797 0.40172 0.02586 0.0
H1020 H 0.20139 0.38459 0.00257 0.0
H1021 H 0.16771 0.4084 0.11423 0.0
H1022 H 0.18749 0.44292 0.97924 0.0
H1023 H 0.20868 0.45956 0.9257 0.0
H1024 H 0.22341 0.49547 0.04065 0.0
H1025 H 0.20248 0.4789 0.09514 0.0
C1026 C 0.11486 0.46582 0.17402 0.0
C1027 C 0.12147 0.47881 0.20676 0.0
C1028 C 0.12612 0.45618 0.1487 0.0
C1029 C 0.14414 0.45942 0.15565 0.0
C1030 C 0.15076 0.47236 0.18824 0.0
C1031 C 0.13953 0.48192 0.21379 0.0
C1032 C 0.15621 0.44933 0.12913 0.0
C1033 C 0.16871 0.4583 0.09897 0.0
C1034 C 0.15554 0.43108 0.13374 0.0
C1035 C 0.1429 0.42096 0.16603 0.0
C1036 C 0.14235 0.42485 0.21559 0.0
C1037 C 0.13034 0.4153 0.24573 0.0
C1038 C 0.1189 0.40174 0.22678 0.0
C1039 C 0.11949 0.39767 0.17767 0.0
C1040 C 0.13147 0.40719 0.14737 0.0
C1041 C 0.22559 0.41789 0.06058 0.0
C1042 C 0.22192 0.40217 0.03522 0.0
C1043 C 0.21222 0.42754 0.07407 0.0
C1044 C 0.19492 0.42182 0.06196 0.0
C1045 C 0.19124 0.40638 0.03548 0.0
C1046 C 0.20463 0.39664 0.0221 0.0
C1047 C 0.18069 0.43135 0.08029 0.0
C1048 C 0.16773 0.4223 0.10897 0.0
C1049 C 0.18088 0.44952 0.07407 0.0
C1050 C 0.19348 0.45959 0.04139 0.0
C1051 C 0.19533 0.45429 0.99323 0.0
C1052 C 0.20729 0.46373 0.96268 0.0
C1053 C 0.21741 0.47854 0.97979 0.0
C1054 C 0.21557 0.48398 0.02746 0.0
C1055 C 0.20364 0.47459 0.05817 0.0
H1056 H 0.22666 0.48583 0.95608 0.0
H1057 H 0.10962 0.39435 0.25018 0.0
H1058 H 0.81901 0.86113 0.50495 0.0
H1059 H 0.84257 0.88278 0.47736 0.0
H1060 H 0.80564 0.91982 0.45532 0.0
H1061 H 0.78218 0.89855 0.48333 0.0
H1062 H 0.82765 0.91358 0.37333 0.0
H1063 H 0.83051 0.92618 0.5457 0.0
H1064 H 0.83414 0.91841 0.63117 0.0
H1065 H 0.8847 0.90335 0.59991 0.0
H1066 H 0.88125 0.91081 0.51404 0.0
H1067 H 0.87142 0.99555 0.33032 0.0
H1068 H 0.85328 0.97038 0.36207 0.0
H1069 H 0.89911 0.94693 0.40335 0.0
H1070 H 0.91745 0.97243 0.37275 0.0
H1071 H 0.87571 0.94265 0.47282 0.0
H1072 H 0.87519 0.9322 0.30429 0.0
H1073 H 0.87252 0.93863 0.21758 0.0
H1074 H 0.81917 0.9472 0.23821 0.0
H1075 H 0.82158 0.94107 0.32521 0.0
C1076 C 0.81597 0.87397 0.49479 0.0
C1077 C 0.79874 0.87812 0.49616 0.0
C1078 C 0.82941 0.88628 0.47911 0.0
C1079 C 0.82575 0.9028 0.4642 0.0
C1080 C 0.80866 0.90709 0.46659 0.0
C1081 C 0.7953 0.89493 0.4828 0.0
C1082 C 0.83945 0.9155 0.44377 0.0
C1083 C 0.83812 0.92005 0.39504 0.0
C1084 C 0.85346 0.92329 0.47177 0.0
C1085 C 0.85552 0.91884 0.52336 0.0
C1086 C 0.84232 0.92104 0.55695 0.0
C1087 C 0.84437 0.91673 0.60549 0.0
C1088 C 0.85961 0.91033 0.62093 0.0
C1089 C 0.87288 0.90827 0.58788 0.0
C1090 C 0.87089 0.91255 0.53928 0.0
C1091 C 0.87768 0.98503 0.34601 0.0
C1092 C 0.89587 0.98594 0.34879 0.0
C1093 C 0.86728 0.9706 0.36397 0.0
C1094 C 0.87484 0.95661 0.38428 0.0
C1095 C 0.89301 0.95754 0.38762 0.0
C1096 C 0.90346 0.97209 0.37003 0.0
C1097 C 0.86361 0.94123 0.40254 0.0
C1098 C 0.86542 0.93607 0.45075 0.0
C1099 C 0.85017 0.93262 0.37379 0.0
C1100 C 0.84861 0.93629 0.32139 0.0
C1101 C 0.86292 0.93558 0.29042 0.0
C1102 C 0.86145 0.93915 0.24119 0.0
C1103 C 0.8457 0.94335 0.22241 0.0
C1104 C 0.83137 0.94395 0.25281 0.0
C1105 C 0.83277 0.94041 0.30208 0.0
H1106 H 0.84458 0.94611 0.18429 0.0
H1107 H 0.86118 0.907 0.65853 0.0
H1108 H 0.26505 0.62636 0.63644 0.0
H1109 H 0.28787 0.61249 0.67688 0.0
H1110 H 0.32549 0.63565 0.57422 0.0
H1111 H 0.30266 0.6495 0.53309 0.0
H1112 H 0.32907 0.60167 0.59058 0.0
H1113 H 0.32434 0.65247 0.68525 0.0
H1114 H 0.30921 0.67337 0.73188 0.0
H1115 H 0.29193 0.6334 0.83406 0.0
H1116 H 0.30678 0.61218 0.78762 0.0
H1117 H 0.40191 0.58004 0.7187 0.0
H1118 H 0.38151 0.59843 0.68384 0.0
H1119 H 0.34111 0.57519 0.7783 0.0
H1120 H 0.36149 0.55678 0.81386 0.0
H1121 H 0.34014 0.61078 0.76591 0.0
H1122 H 0.34369 0.55976 0.6674 0.0
H1123 H 0.35896 0.53913 0.62009 0.0
H1124 H 0.37876 0.58028 0.52431 0.0
H1125 H 0.36379 0.60122 0.57151 0.0
C1126 C 0.27815 0.62846 0.62227 0.0
C1127 C 0.28207 0.63908 0.58167 0.0
C1128 C 0.29119 0.62061 0.64562 0.0
C1129 C 0.30839 0.6233 0.62897 0.0
C1130 C 0.31229 0.63352 0.58773 0.0
C1131 C 0.29924 0.6414 0.56432 0.0
C1132 C 0.32223 0.61526 0.65448 0.0
C1133 C 0.3317 0.60389 0.62872 0.0
C1134 C 0.3254 0.61795 0.70443 0.0
C1135 C 0.31655 0.6307 0.7327 0.0
C1136 C 0.31721 0.6481 0.71746 0.0
C1137 C 0.3087 0.66001 0.7439 0.0
C1138 C 0.29958 0.65471 0.78585 0.0
C1139 C 0.29899 0.63749 0.80152 0.0
C1140 C 0.30747 0.62551 0.77519 0.0
C1141 C 0.38875 0.57899 0.73262 0.0
C1142 C 0.38323 0.56677 0.76858 0.0
C1143 C 0.37713 0.5895 0.71258 0.0
C1144 C 0.35977 0.58791 0.72794 0.0
C1145 C 0.35446 0.57653 0.76588 0.0
C1146 C 0.36611 0.566 0.78605 0.0
C1147 C 0.34687 0.59715 0.70201 0.0
C1148 C 0.33758 0.6087 0.7277 0.0
C1149 C 0.34389 0.59468 0.65191 0.0
C1150 C 0.35278 0.58208 0.62328 0.0
C1151 C 0.35141 0.56443 0.63647 0.0
C1152 C 0.35999 0.55268 0.60964 0.0
C1153 C 0.36987 0.5584 0.5693 0.0
C1154 C 0.37113 0.57588 0.55562 0.0
C1155 C 0.36259 0.58769 0.58237 0.0
H1156 H 0.3765 0.54928 0.54857 0.0
H1157 H 0.29299 0.66395 0.80625 0.0
H1158 H 0.72203 0.1256 0.89658 0.0
H1159 H 0.69778 0.10581 0.8658 0.0
H1160 H 0.66426 0.12356 0.97539 0.0
H1161 H 0.68857 0.1432 0.00706 0.0
H1162 H 0.65963 0.08907 0.96761 0.0
H1163 H 0.66187 0.13713 0.85843 0.0
H1164 H 0.67554 0.15907 0.80161 0.0
H1165 H 0.68829 0.11858 0.70631 0.0
H1166 H 0.67491 0.09637 0.76291 0.0
H1167 H 0.58124 0.05003 0.86542 0.0
H1168 H 0.60386 0.07254 0.89203 0.0
H1169 H 0.64004 0.05335 0.79224 0.0
H1170 H 0.61745 0.03081 0.76508 0.0
H1171 H 0.64244 0.08945 0.79492 0.0
H1172 H 0.64111 0.04156 0.9068 0.0
H1173 H 0.62712 0.01985 0.96378 0.0
H1174 H 0.61216 0.06075 0.05425 0.0
H1175 H 0.62588 0.08271 0.99741 0.0
C1176 C 0.70951 0.1253 0.9142 0.0
C1177 C 0.7072 0.136 0.95417 0.0
C1178 C 0.69564 0.11405 0.89637 0.0
C1179 C 0.67916 0.11343 0.91784 0.0
C1180 C 0.67687 0.1239 0.9582 0.0
C1181 C 0.69076 0.13512 0.97621 0.0
C1182 C 0.66441 0.10159 0.89864 0.0
C1183 C 0.65569 0.08935 0.93003 0.0
C1184 C 0.65952 0.10175 0.84938 0.0
C1185 C 0.66752 0.11508 0.81514 0.0
C1186 C 0.66771 0.13289 0.82554 0.0
C1187 C 0.67539 0.14538 0.79333 0.0
C1188 C 0.68282 0.14022 0.75043 0.0
C1189 C 0.68254 0.12255 0.73958 0.0
C1190 C 0.6749 0.11001 0.77169 0.0
C1191 C 0.59395 0.05068 0.84876 0.0
C1192 C 0.59761 0.03853 0.81345 0.0
C1193 C 0.60686 0.06352 0.86411 0.0
C1194 C 0.62365 0.06442 0.84452 0.0
C1195 C 0.62716 0.05281 0.80784 0.0
C1196 C 0.61426 0.03992 0.79251 0.0
C1197 C 0.63775 0.07697 0.86388 0.0
C1198 C 0.64635 0.08929 0.83253 0.0
C1199 C 0.6425 0.07695 0.91322 0.0
C1200 C 0.63436 0.06377 0.94761 0.0
C1201 C 0.63472 0.04592 0.93866 0.0
C1202 C 0.62686 0.03357 0.97096 0.0
C1203 C 0.61871 0.03891 0.01254 0.0
C1204 C 0.61846 0.05663 0.02198 0.0
C1205 C 0.62628 0.06903 0.98976 0.0
H1206 H 0.61263 0.02933 0.03751 0.0
H1207 H 0.68875 0.14991 0.72555 0.0
H1208 H 0.12244 0.5428 0.2964 0.0
H1209 H 0.14115 0.56575 0.33714 0.0
H1210 H 0.09753 0.59521 0.3562 0.0
H1211 H 0.07855 0.57218 0.31554 0.0
H1212 H 0.12984 0.61515 0.32563 0.0
H1213 H 0.10785 0.57477 0.44859 0.0
H1214 H 0.10093 0.54563 0.48427 0.0
H1215 H 0.155 0.53794 0.48195 0.0
H1216 H 0.16222 0.56694 0.44555 0.0
H1217 H 0.18274 0.67181 0.4826 0.0
H1218 H 0.15755 0.65268 0.45342 0.0
H1219 H 0.18916 0.61025 0.44362 0.0
H1220 H 0.21408 0.629 0.47403 0.0
H1221 H 0.15853 0.59872 0.47654 0.0
H1222 H 0.18049 0.63601 0.34459 0.0
H1223 H 0.18865 0.66427 0.30484 0.0
H1224 H 0.13631 0.67696 0.31981 0.0
H1225 H 0.1279 0.64886 0.36029 0.0
C1226 C 0.11681 0.55422 0.30875 0.0
C1227 C 0.09898 0.55561 0.30308 0.0
C1228 C 0.12752 0.56729 0.33213 0.0
C1229 C 0.12062 0.58201 0.35011 0.0
C1230 C 0.10302 0.58387 0.34266 0.0
C1231 C 0.09222 0.57071 0.31955 0.0
C1232 C 0.13182 0.59502 0.37829 0.0
C1233 C 0.13588 0.61174 0.35915 0.0
C1234 C 0.13982 0.59036 0.42155 0.0
C1235 C 0.13555 0.57299 0.44405 0.0
C1236 C 0.11825 0.56682 0.45539 0.0
C1237 C 0.11428 0.55033 0.47578 0.0
C1238 C 0.12752 0.53993 0.4853 0.0
C1239 C 0.14476 0.54601 0.47455 0.0
C1240 C 0.1488 0.56248 0.45409 0.0
C1241 C 0.18424 0.65834 0.47477 0.0
C1242 C 0.20042 0.65195 0.48027 0.0
C1243 C 0.16986 0.64746 0.4579 0.0
C1244 C 0.17155 0.63012 0.44559 0.0
C1245 C 0.18754 0.62359 0.45286 0.0
C1246 C 0.20181 0.63436 0.47016 0.0
C1247 C 0.15704 0.61879 0.42321 0.0
C1248 C 0.1523 0.60233 0.4435 0.0
C1249 C 0.14861 0.62362 0.38065 0.0
C1250 C 0.15362 0.64044 0.35597 0.0
C1251 C 0.17076 0.64489 0.3397 0.0
C1252 C 0.17542 0.66086 0.317 0.0
C1253 C 0.16302 0.67243 0.30993 0.0
C1254 C 0.14591 0.66801 0.3254 0.0
C1255 C 0.14119 0.65206 0.34822 0.0
H1256 H 0.16665 0.68479 0.29236 0.0
H1257 H 0.12441 0.52716 0.50108 0.0
H1258 H 0.60782 0.95118 0.77003 0.0
H1259 H 0.63078 0.93331 0.74888 0.0
H1260 H 0.61004 0.92683 0.60457 0.0
H1261 H 0.58684 0.94447 0.6256 0.0
H1262 H 0.62138 0.89698 0.63829 0.0
H1263 H 0.64327 0.95754 0.62676 0.0
H1264 H 0.64944 0.98767 0.65626 0.0
H1265 H 0.681 0.97037 0.77015 0.0
H1266 H 0.67482 0.94008 0.74171 0.0
H1267 H 0.69748 0.87568 0.51848 0.0
H1268 H 0.67204 0.88936 0.54437 0.0
H1269 H 0.69393 0.89668 0.68721 0.0
H1270 H 0.71952 0.88329 0.66148 0.0
H1271 H 0.68172 0.92555 0.65545 0.0
H1272 H 0.66064 0.86492 0.66484 0.0
H1273 H 0.65451 0.83489 0.63461 0.0
H1274 H 0.62162 0.85226 0.52399 0.0
H1275 H 0.62775 0.88246 0.55316 0.0
C1276 C 0.60799 0.94577 0.73397 0.0
C1277 C 0.59564 0.94942 0.69929 0.0
C1278 C 0.62115 0.9356 0.72192 0.0
C1279 C 0.62227 0.92905 0.67491 0.0
C1280 C 0.60942 0.93185 0.641 0.0
C1281 C 0.5962 0.94197 0.65306 0.0
C1282 C 0.63741 0.92017 0.66033 0.0
C1283 C 0.63457 0.90326 0.64156 0.0
C1284 C 0.65462 0.92831 0.66541 0.0
C1285 C 0.65843 0.94653 0.6824 0.0
C1286 C 0.65142 0.96015 0.65831 0.0
C1287 C 0.65493 0.97725 0.67481 0.0
C1288 C 0.66556 0.98093 0.71514 0.0
C1289 C 0.67274 0.9675 0.73897 0.0
C1290 C 0.66925 0.95037 0.72266 0.0
C1291 C 0.69687 0.88019 0.55541 0.0
C1292 C 0.71051 0.87841 0.58795 0.0
C1293 C 0.68229 0.8879 0.57021 0.0
C1294 C 0.68102 0.89383 0.61786 0.0
C1295 C 0.69465 0.89215 0.6503 0.0
C1296 C 0.70925 0.88449 0.63553 0.0
C1297 C 0.66574 0.90229 0.63358 0.0
C1298 C 0.66855 0.91919 0.6524 0.0
C1299 C 0.64854 0.89413 0.62843 0.0
C1300 C 0.64479 0.87598 0.61091 0.0
C1301 C 0.65221 0.86236 0.63383 0.0
C1302 C 0.64872 0.84531 0.61693 0.0
C1303 C 0.63772 0.84168 0.57733 0.0
C1304 C 0.63016 0.8551 0.55462 0.0
C1305 C 0.63362 0.87218 0.57135 0.0
H1306 H 0.63503 0.82846 0.5643 0.0
H1307 H 0.66827 0.99418 0.72785 0.0
H1308 H 0.37912 0.49566 0.81664 0.0
H1309 H 0.36115 0.47145 0.85453 0.0
H1310 H 0.40423 0.44063 0.85087 0.0
H1311 H 0.42243 0.46487 0.81308 0.0
H1312 H 0.37061 0.4225 0.82378 0.0
H1313 H 0.39782 0.45772 0.95105 0.0
H1314 H 0.40673 0.48541 0.99303 0.0
H1315 H 0.35323 0.49367 0.0118 0.0
H1316 H 0.34398 0.46624 0.96896 0.0
H1317 H 0.32184 0.3607 0.97542 0.0
H1318 H 0.34656 0.3806 0.9469 0.0
H1319 H 0.31582 0.42362 0.9592 0.0
H1320 H 0.29137 0.40404 0.98881 0.0
H1321 H 0.34778 0.43342 0.98722 0.0
H1322 H 0.32058 0.40184 0.85072 0.0
H1323 H 0.31044 0.37544 0.80423 0.0
H1324 H 0.36249 0.36126 0.79994 0.0
H1325 H 0.3729 0.38748 0.84697 0.0
C1326 C 0.38473 0.48366 0.82322 0.0
C1327 C 0.40222 0.4822 0.81223 0.0
C1328 C 0.37447 0.46989 0.84505 0.0
C1329 C 0.38148 0.4544 0.85596 0.0
C1330 C 0.39865 0.45254 0.84281 0.0
C1331 C 0.409 0.46639 0.82136 0.0
C1332 C 0.37097 0.44055 0.88302 0.0
C1333 C 0.36587 0.42469 0.85991 0.0
C1334 C 0.36469 0.44361 0.92985 0.0
C1335 C 0.37022 0.45997 0.95646 0.0
C1336 C 0.38796 0.4655 0.9638 0.0
C1337 C 0.39307 0.48114 0.98778 0.0
C1338 C 0.38056 0.49128 0.00504 0.0
C1339 C 0.3629 0.4858 -0.00159 0.0
C1340 C 0.35772 0.4702 0.97429 0.0
C1341 C 0.32045 0.37444 0.97271 0.0
C1342 C 0.30458 0.38076 0.9839 0.0
C1343 C 0.33456 0.38577 0.9562 0.0
C1344 C 0.33293 0.40354 0.95013 0.0
C1345 C 0.31737 0.40996 0.9635 0.0
C1346 C 0.30336 0.39871 0.98028 0.0
C1347 C 0.34692 0.41548 0.92748 0.0
C1348 C 0.35275 0.43102 0.95148 0.0
C1349 C 0.3537 0.4122 0.88124 0.0
C1350 C 0.34747 0.39648 0.85285 0.0
C1351 C 0.32983 0.39302 0.84016 0.0
C1352 C 0.32404 0.3781 0.81367 0.0
C1353 C 0.3358 0.36665 0.79928 0.0
C1354 C 0.35339 0.37012 0.81121 0.0
C1355 C 0.35924 0.385 0.83777 0.0
H1356 H 0.3313 0.35511 0.77876 0.0
H1357 H 0.38454 0.50338 0.0236 0.0
H1358 H 0.78111 0.1385 0.01746 0.0
H1359 H 0.80274 0.11937 0.04075 0.0
H1360 H 0.81864 0.15326 0.16026 0.0
H1361 H 0.7973 0.17269 0.13662 0.0
H1362 H 0.84627 0.14111 0.11793 0.0
H1363 H 0.79029 0.11706 0.17758 0.0
H1364 H 0.75914 0.10644 0.17094 0.0
H1365 H 0.77106 0.067 0.07102 0.0
H1366 H 0.80228 0.07755 0.07657 0.0
H1367 H 0.88546 0.08055 0.26355 0.0
H1368 H 0.86694 0.10161 0.23236 0.0
H1369 H 0.85157 0.0673 0.11331 0.0
H1370 H 0.86983 0.04608 0.14455 0.0
H1371 H 0.82408 0.07979 0.1538 0.0
H1372 H 0.8804 0.10331 0.09674 0.0
H1373 H 0.91151 0.11397 0.1043 0.0
H1374 H 0.89903 0.15431 0.2005 0.0
H1375 H 0.86784 0.14374 0.19404 0.0
C1376 C 0.78933 0.14198 0.04842 0.0
C1377 C 0.78737 0.15699 0.07556 0.0
C1378 C 0.80164 0.13101 0.06173 0.0
C1379 C 0.81204 0.13474 0.10276 0.0
C1380 C 0.81068 0.15013 0.12859 0.0
C1381 C 0.79845 0.16118 0.11509 0.0
C1382 C 0.82368 0.12216 0.12016 0.0
C1383 C 0.84141 0.12774 0.12627 0.0
C1384 C 0.81735 0.10466 0.13021 0.0
C1385 C 0.7986 0.0982 0.12713 0.0
C1386 C 0.78626 0.1062 0.15394 0.0
C1387 C 0.76859 0.10018 0.15041 0.0
C1388 C 0.76312 0.08608 0.12048 0.0
C1389 C 0.77532 0.07794 0.09413 0.0
C1390 C 0.793 0.08392 0.09749 0.0
C1391 C 0.87815 0.0775 0.2307 0.0
C1392 C 0.87911 0.06166 0.20649 0.0
C1393 C 0.86766 0.08958 0.2128 0.0
C1394 C 0.85806 0.08608 0.17023 0.0
C1395 C 0.85892 0.07025 0.14617 0.0
C1396 C 0.86937 0.05816 0.16406 0.0
C1397 C 0.8467 0.0987 0.15145 0.0
C1398 C 0.82898 0.09313 0.14525 0.0
C1399 C 0.85306 0.1162 0.14148 0.0
C1400 C 0.8718 0.12263 0.14525 0.0
C1401 C 0.8843 0.11437 0.11981 0.0
C1402 C 0.90194 0.12041 0.12384 0.0
C1403 C 0.90724 0.13478 0.15296 0.0
C1404 C 0.8949 0.14317 0.178 0.0
C1405 C 0.87724 0.13717 0.17413 0.0
H1406 H 0.92091 0.13944 0.15603 0.0
H1407 H 0.74944 0.08145 0.11778 0.0
H1408 H 0.77029 0.63128 0.90689 0.0
H1409 H 0.79532 0.61873 0.87405 0.0
H1410 H 0.82773 0.6432 0.98712 0.0
H1411 H 0.80272 0.65605 0.02001 0.0
H1412 H 0.84285 0.64814 0.89921 0.0
H1413 H 0.81606 0.60001 0.98997 0.0
H1414 H 0.7921 0.57866 0.01775 0.0
H1415 H 0.78506 0.55881 0.87341 0.0
H1416 H 0.80883 0.58021 0.84461 0.0
H1417 H 0.91362 0.59822 0.84557 0.0
H1418 H 0.89076 0.61326 0.88233 0.0
H1419 H 0.85428 0.5911 0.77532 0.0
H1420 H 0.87694 0.57589 0.73869 0.0
H1421 H 0.84229 0.58509 0.86584 0.0
H1422 H 0.86859 0.63422 0.77502 0.0
H1423 H 0.89263 0.65564 0.74807 0.0
H1424 H 0.90091 0.67345 0.89403 0.0
H1425 H 0.87706 0.65196 0.92196 0.0
C1426 C 0.78269 0.63388 0.9251 0.0
C1427 C 0.78453 0.64466 0.96606 0.0
C1428 C 0.79698 0.62666 0.90634 0.0
C1429 C 0.81334 0.62995 0.92837 0.0
C1430 C 0.8152 0.64052 0.96963 0.0
C1431 C 0.80089 0.64777 0.98847 0.0
C1432 C 0.82856 0.62276 0.90715 0.0
C1433 C 0.84288 0.63432 0.89261 0.0
C1434 C 0.82841 0.60478 0.89785 0.0
C1435 C 0.81414 0.59182 0.91506 0.0
C1436 C 0.80932 0.59118 0.96408 0.0
C1437 C 0.79579 0.57905 0.98002 0.0
C1438 C 0.78704 0.56741 0.94735 0.0
C1439 C 0.79184 0.56784 0.89867 0.0
C1440 C 0.80535 0.57996 0.88253 0.0
C1441 C 0.90083 0.59683 0.82925 0.0
C1442 C 0.89705 0.58575 0.78948 0.0
C1443 C 0.88778 0.60545 0.8503 0.0
C1444 C 0.87082 0.60322 0.83163 0.0
C1445 C 0.86727 0.59288 0.79044 0.0
C1446 C 0.88025 0.58426 0.76947 0.0
C1447 C 0.85645 0.61049 0.85702 0.0
C1448 C 0.8423 0.59891 0.87257 0.0
C1449 C 0.85682 0.62843 0.86738 0.0
C1450 C 0.87116 0.64135 0.85064 0.0
C1451 C 0.87564 0.64259 0.80143 0.0
C1452 C 0.88921 0.65477 0.78597 0.0
C1453 C 0.89833 0.66586 0.81934 0.0
C1454 C 0.89386 0.66483 0.86823 0.0
C1455 C 0.8803 0.65266 0.88389 0.0
H1456 H 0.90882 0.67529 0.80729 0.0
H1457 H 0.77656 0.55803 0.95976 0.0
H1458 H 0.21494 0.1528 0.6566 0.0
H1459 H 0.19263 0.13104 0.68893 0.0
H1460 H 0.16416 0.1314 0.55511 0.0
H1461 H 0.18648 0.15315 0.52223 0.0
H1462 H 0.14313 0.13144 0.64026 0.0
H1463 H 0.18802 0.1004 0.57078 0.0
H1464 H 0.21823 0.09379 0.5603 0.0
H1465 H 0.22087 0.08087 0.71074 0.0
H1466 H 0.19075 0.08766 0.72227 0.0
H1467 H 0.08827 0.05243 0.6542 0.0
H1468 H 0.10891 0.0773 0.63235 0.0
H1469 H 0.14093 0.06727 0.75463 0.0
H1470 H 0.12062 0.04185 0.77551 0.0
H1471 H 0.16042 0.07324 0.67996 0.0
H1472 H 0.11546 0.10243 0.75047 0.0
H1473 H 0.08548 0.10938 0.76334 0.0
H1474 H 0.08299 0.12639 0.61615 0.0
H1475 H 0.11288 0.11932 0.60219 0.0
C1476 C 0.20388 0.14837 0.63412 0.0
C1477 C 0.20252 0.1546 0.58672 0.0
C1478 C 0.19117 0.13593 0.65266 0.0
C1479 C 0.17686 0.12958 0.62423 0.0
C1480 C 0.17514 0.13618 0.57753 0.0
C1481 C 0.18793 0.14852 0.55877 0.0
C1482 C 0.16413 0.11544 0.64241 0.0
C1483 C 0.1468 0.11864 0.64859 0.0
C1484 C 0.16914 0.09896 0.65449 0.0
C1485 C 0.1872 0.09472 0.64749 0.0
C1486 C 0.19509 0.09629 0.60171 0.0
C1487 C 0.21219 0.09249 0.59556 0.0
C1488 C 0.22148 0.08696 0.63485 0.0
C1489 C 0.21367 0.08517 0.68035 0.0
C1490 C 0.19658 0.08899 0.68671 0.0
C1491 C 0.09963 0.05559 0.67669 0.0
C1492 C 0.10285 0.04519 0.71656 0.0
C1493 C 0.11138 0.0699 0.66432 0.0
C1494 C 0.12636 0.07435 0.69226 0.0
C1495 C 0.12946 0.0641 0.73256 0.0
C1496 C 0.11784 0.04961 0.7445 0.0
C1497 C 0.13922 0.08911 0.67787 0.0
C1498 C 0.15665 0.08604 0.67221 0.0
C1499 C 0.1343 0.10576 0.6668 0.0
C1500 C 0.11637 0.11021 0.6752 0.0
C1501 C 0.10848 0.10755 0.72076 0.0
C1502 C 0.09151 0.11153 0.72826 0.0
C1503 C 0.08232 0.11828 0.69055 0.0
C1504 C 0.09012 0.12114 0.64531 0.0
C1505 C 0.10708 0.11717 0.6376 0.0
H1506 H 0.06918 0.12134 0.69642 0.0
H1507 H 0.23472 0.08402 0.63002 0.0
H1508 H 0.72805 0.4161 0.55115 0.0
H1509 H 0.70506 0.43206 0.51872 0.0
H1510 H 0.68115 0.38511 0.45121 0.0
H1511 H 0.70409 0.36913 0.4829 0.0
H1512 H 0.68619 0.41149 0.38807 0.0
H1513 H 0.66217 0.40265 0.54727 0.0
H1514 H 0.66234 0.40377 0.63627 0.0
H1515 H 0.67299 0.4594 0.63176 0.0
H1516 H 0.67312 0.4586 0.54268 0.0
H1517 H 0.61053 0.44456 0.30172 0.0
H1518 H 0.63027 0.42751 0.34516 0.0
H1519 H 0.65333 0.47397 0.41693 0.0
H1520 H 0.63339 0.49104 0.37453 0.0
H1521 H 0.64829 0.44761 0.47917 0.0
H1522 H 0.67358 0.45671 0.32158 0.0
H1523 H 0.67404 0.45613 0.23254 0.0
H1524 H 0.6619 0.40062 0.23417 0.0
H1525 H 0.66114 0.40089 0.32327 0.0
C1526 C 0.71775 0.40912 0.53001 0.0
C1527 C 0.71797 0.3914 0.51922 0.0
C1528 C 0.7046 0.41824 0.51165 0.0
C1529 C 0.69142 0.40974 0.48261 0.0
C1530 C 0.69126 0.39191 0.4734 0.0
C1531 C 0.70438 0.38281 0.4916 0.0
C1532 C 0.67856 0.41962 0.45864 0.0
C1533 C 0.67769 0.41917 0.40804 0.0
C1534 C 0.6679 0.43004 0.48471 0.0
C1535 C 0.66782 0.43055 0.53828 0.0
C1536 C 0.6647 0.41511 0.56524 0.0
C1537 C 0.66471 0.41569 0.61571 0.0
C1538 C 0.66772 0.43164 0.63966 0.0
C1539 C 0.67068 0.44705 0.61317 0.0
C1540 C 0.6707 0.44655 0.56269 0.0
C1541 C 0.61981 0.45115 0.32671 0.0
C1542 C 0.62048 0.46915 0.33451 0.0
C1543 C 0.6311 0.4414 0.35144 0.0
C1544 C 0.64339 0.44952 0.38384 0.0
C1545 C 0.64393 0.46745 0.3921 0.0
C1546 C 0.63258 0.47719 0.36767 0.0
C1547 C 0.65586 0.43938 0.40864 0.0
C1548 C 0.65672 0.43985 0.45929 0.0
C1549 C 0.66662 0.42904 0.38265 0.0
C1550 C 0.66713 0.42884 0.32907 0.0
C1551 C 0.67088 0.44439 0.30294 0.0
C1552 C 0.67122 0.44412 0.25246 0.0
C1553 C 0.66796 0.42835 0.22771 0.0
C1554 C 0.6644 0.41282 0.25339 0.0
C1555 C 0.66403 0.41303 0.30388 0.0
H1556 H 0.66823 0.42817 0.18863 0.0
H1557 H 0.66772 0.43206 0.67873 0.0
H1558 H 0.40621 0.97869 0.12904 0.0
H1559 H 0.38807 0.95251 0.10276 0.0
H1560 H 0.34734 0.96466 0.1992 0.0
H1561 H 0.36548 0.99073 0.22624 0.0
H1562 H 0.35109 0.93047 0.2014 0.0
H1563 H 0.34584 0.97445 0.08001 0.0
H1564 H 0.357 0.99635 0.01969 0.0
H1565 H 0.37977 0.95715 0.93938 0.0
H1566 H 0.36891 0.93504 -0.0004 0.0
H1567 H 0.27884 0.89371 0.02879 0.0
H1568 H 0.30155 0.91659 0.05198 0.0
H1569 H 0.33264 0.87803 0.1069 0.0
H1570 H 0.30982 0.85496 0.08426 0.0
H1571 H 0.33531 0.9243 0.028 0.0
H1572 H 0.35291 0.89507 0.21 0.0
H1573 H 0.33984 0.87451 0.27148 0.0
H1574 H 0.2889 0.88665 0.23227 0.0
H1575 H 0.30168 0.90743 0.17105 0.0
C1576 C 0.39343 0.97575 0.14488 0.0
C1577 C 0.38722 0.98685 0.17948 0.0
C1578 C 0.38308 0.9608 0.12974 0.0
C1579 C 0.36631 0.95677 0.14867 0.0
C1580 C 0.36026 0.96756 0.18417 0.0
C1581 C 0.37061 0.98248 0.19943 0.0
C1582 C 0.35476 0.94166 0.13039 0.0
C1583 C 0.34774 0.92905 0.16345 0.0
C1584 C 0.35029 0.9399 0.08092 0.0
C1585 C 0.35672 0.95314 0.04455 0.0
C1586 C 0.35333 0.97053 0.04966 0.0
C1587 C 0.35959 0.98297 0.01547 0.0
C1588 C 0.36913 0.97815 0.9758 0.0
C1589 C 0.3724 0.96087 0.97016 0.0
C1590 C 0.36618 0.94837 0.00429 0.0
C1591 C 0.29054 0.89005 0.04551 0.0
C1592 C 0.29246 0.87252 0.05512 0.0
C1593 C 0.30355 0.90315 0.05852 0.0
C1594 C 0.31868 0.899 0.08154 0.0
C1595 C 0.32095 0.88149 0.08964 0.0
C1596 C 0.30792 0.86834 0.0766 0.0
C1597 C 0.33159 0.91316 0.09905 0.0
C1598 C 0.33889 0.92557 0.06584 0.0
C1599 C 0.33607 0.9149 0.14849 0.0
C1600 C 0.32825 0.90263 0.18561 0.0
C1601 C 0.33892 0.89337 0.21463 0.0
C1602 C 0.33157 0.88168 0.24941 0.0
C1603 C 0.31355 0.87923 0.25565 0.0
C1604 C 0.30285 0.88851 0.22727 0.0
C1605 C 0.31014 0.90023 0.19249 0.0
H1606 H 0.30788 0.87016 0.28256 0.0
H1607 H 0.37397 0.98781 0.94937 0.0
H1608 H 0.79199 0.40186 0.53335 0.0
H1609 H 0.81543 0.4236 0.5583 0.0
H1610 H 0.84699 0.38302 0.59583 0.0
H1611 H 0.82333 0.36104 0.57185 0.0
H1612 H 0.84689 0.40575 0.66688 0.0
H1613 H 0.85731 0.4097 0.49814 0.0
H1614 H 0.85023 0.41216 0.41178 0.0
H1615 H 0.83269 0.46208 0.43728 0.0
H1616 H 0.83942 0.45983 0.52396 0.0
H1617 H 0.91755 0.47242 0.71608 0.0
H1618 H 0.90016 0.44697 0.68173 0.0
H1619 H 0.85898 0.47841 0.64953 0.0
H1620 H 0.87616 0.50384 0.68381 0.0
H1621 H 0.86801 0.45815 0.57154 0.0
H1622 H 0.85461 0.45184 0.74213 0.0
H1623 H 0.86196 0.4491 0.82825 0.0
H1624 H 0.88614 0.40301 0.79732 0.0
H1625 H 0.87912 0.40562 0.71084 0.0
C1626 C 0.80399 0.39751 0.54625 0.0
C1627 C 0.80578 0.37971 0.55078 0.0
C1628 C 0.81744 0.40999 0.56027 0.0
C1629 C 0.83304 0.40494 0.57848 0.0
C1630 C 0.83506 0.38718 0.58179 0.0
C1631 C 0.82155 0.37466 0.56795 0.0
C1632 C 0.84658 0.41827 0.59734 0.0
C1633 C 0.85183 0.41701 0.64564 0.0
C1634 C 0.85282 0.43308 0.56986 0.0
C1635 C 0.84878 0.43454 0.51767 0.0
C1636 C 0.85182 0.42115 0.48542 0.0
C1637 C 0.84789 0.42252 0.43638 0.0
C1638 C 0.84099 0.43726 0.41907 0.0
C1639 C 0.83803 0.45067 0.45075 0.0
C1640 C 0.84193 0.44937 0.49983 0.0
C1641 C 0.90474 0.47388 0.702 0.0
C1642 C 0.89822 0.49014 0.70264 0.0
C1643 C 0.89485 0.45935 0.68242 0.0
C1644 C 0.87834 0.46088 0.66308 0.0
C1645 C 0.87175 0.47703 0.66412 0.0
C1646 C 0.88154 0.49151 0.68398 0.0
C1647 C 0.86789 0.44576 0.64115 0.0
C1648 C 0.86328 0.44671 0.59233 0.0
C1649 C 0.86234 0.43063 0.66801 0.0
C1650 C 0.86654 0.42905 0.71996 0.0
C1651 C 0.86164 0.44121 0.75363 0.0
C1652 C 0.86571 0.43966 0.80252 0.0
C1653 C 0.87456 0.42592 0.81822 0.0
C1654 C 0.87931 0.41367 0.78508 0.0
C1655 C 0.87528 0.41517 0.73614 0.0
H1656 H 0.8777 0.42474 0.85609 0.0
H1657 H 0.83795 0.43829 0.38109 0.0
H1658 H 0.26754 0.12657 0.52237 0.0
H1659 H 0.28904 0.10926 0.48815 0.0
H1660 H 0.30211 0.14862 0.3798 0.0
H1661 H 0.28039 0.16591 0.41328 0.0
H1662 H 0.2985 0.11691 0.34043 0.0
H1663 H 0.32913 0.1442 0.47528 0.0
H1664 H 0.33365 0.15298 0.56037 0.0
H1665 H 0.32956 0.09936 0.60326 0.0
H1666 H 0.32478 0.09025 0.51847 0.0
H1667 H 0.37485 0.08116 0.26113 0.0
H1668 H 0.35486 0.10069 0.29327 0.0
H1669 H 0.3382 0.06304 0.40337 0.0
H1670 H 0.35822 0.04356 0.37195 0.0
H1671 H 0.34476 0.09536 0.4405 0.0
H1672 H 0.31291 0.06824 0.30581 0.0
H1673 H 0.30843 0.05954 0.22063 0.0
H1674 H 0.31505 0.11316 0.17741 0.0
H1675 H 0.31981 0.12217 0.26233 0.0
C1676 C 0.27503 0.1316 0.49138 0.0
C1677 C 0.27229 0.14763 0.47061 0.0
C1678 C 0.28736 0.12171 0.47198 0.0
C1679 C 0.29731 0.12776 0.43178 0.0
C1680 C 0.29458 0.14374 0.41088 0.0
C1681 C 0.2822 0.15361 0.43015 0.0
C1682 C 0.3103 0.11721 0.41096 0.0
C1683 C 0.30879 0.11243 0.36211 0.0
C1684 C 0.32352 0.11111 0.43951 0.0
C1685 C 0.32644 0.11654 0.49055 0.0
C1686 C 0.32906 0.13428 0.50289 0.0
C1687 C 0.3317 0.13931 0.55107 0.0
C1688 C 0.33185 0.12674 0.58721 0.0
C1689 C 0.32942 0.10909 0.57523 0.0
C1690 C 0.32676 0.10398 0.52711 0.0
C1691 C 0.3669 0.07703 0.29212 0.0
C1692 C 0.3681 0.0608 0.31397 0.0
C1693 C 0.35546 0.08818 0.31033 0.0
C1694 C 0.34498 0.08324 0.35048 0.0
C1695 C 0.3462 0.06709 0.37239 0.0
C1696 C 0.35761 0.05595 0.35425 0.0
C1697 C 0.33283 0.09493 0.37017 0.0
C1698 C 0.33452 0.09994 0.4188 0.0
C1699 C 0.3198 0.10126 0.3414 0.0
C1700 C 0.3169 0.09586 0.29036 0.0
C1701 C 0.31356 0.07817 0.2781 0.0
C1702 C 0.31094 0.07318 0.22988 0.0
C1703 C 0.3115 0.08579 0.19362 0.0
C1704 C 0.31464 0.10341 0.20553 0.0
C1705 C 0.31729 0.10846 0.25369 0.0
H1706 H 0.30947 0.08191 0.15631 0.0
H1707 H 0.33389 0.13066 0.62449 0.0
H1708 H 0.61558 0.53916 0.23761 0.0
H1709 H 0.63399 0.56515 0.21177 0.0
H1710 H 0.61694 0.55617 0.06465 0.0
H1711 H 0.59841 0.53002 0.09023 0.0
H1712 H 0.65287 0.56273 0.07398 0.0
H1713 H 0.60274 0.5884 0.12242 0.0
H1714 H 0.57842 0.59379 0.17574 0.0
H1715 H 0.61451 0.6144 0.2846 0.0
H1716 H 0.63908 0.60885 0.23226 0.0
H1717 H 0.70239 0.64229 0.00847 0.0
H1718 H 0.67711 0.62062 0.01837 0.0
H1719 H 0.68443 0.62202 0.17285 0.0
H1720 H 0.70953 0.64381 0.16342 0.0
H1721 H 0.6502 0.62069 0.14868 0.0
H1722 H 0.69967 0.59061 0.1056 0.0
H1723 H 0.7242 0.5844 0.05397 0.0
H1724 H 0.68912 0.57169 0.93584 0.0
H1725 H 0.6644 0.57805 0.98665 0.0
C1726 C 0.61568 0.54272 0.19977 0.0
C1727 C 0.60557 0.53253 0.16592 0.0
C1728 C 0.62612 0.55764 0.18513 0.0
C1729 C 0.62668 0.56263 0.13641 0.0
C1730 C 0.61661 0.55252 0.10245 0.0
C1731 C 0.60604 0.53763 0.11714 0.0
C1732 C 0.63846 0.578 0.12113 0.0
C1733 C 0.65207 0.57552 0.08939 0.0
C1734 C 0.63751 0.59456 0.14195 0.0
C1735 C 0.62277 0.5981 0.17347 0.0
C1736 C 0.6055 0.59397 0.15786 0.0
C1737 C 0.59167 0.59707 0.1879 0.0
C1738 C 0.59492 0.60442 0.23355 0.0
C1739 C 0.61202 0.60871 0.24922 0.0
C1740 C 0.62591 0.6056 0.21935 0.0
C1741 C 0.69853 0.63809 0.04459 0.0
C1742 C 0.70805 0.64465 0.08517 0.0
C1743 C 0.68411 0.6257 0.05014 0.0
C1744 C 0.67903 0.6196 0.0963 0.0
C1745 C 0.68814 0.62657 0.13692 0.0
C1746 C 0.70254 0.63896 0.13143 0.0
C1747 C 0.66483 0.6053 0.10246 0.0
C1748 C 0.65079 0.608 0.13253 0.0
C1749 C 0.66539 0.5889 0.08019 0.0
C1750 C 0.68023 0.58501 0.04971 0.0
C1751 C 0.69721 0.58662 0.06849 0.0
C1752 C 0.71114 0.58305 0.03941 0.0
C1753 C 0.70823 0.57771 0.9916 0.0
C1754 C 0.69137 0.57587 0.97284 0.0
C1755 C 0.67739 0.57945 0.00176 0.0
H1756 H 0.71903 0.57495 0.96914 0.0
H1757 H 0.58419 0.60681 0.25676 0.0
H1758 H 0.20068 0.87861 0.00968 0.0
H1759 H 0.1787 0.89627 0.98026 0.0
H1760 H 0.17103 0.86377 0.85371 0.0
H1761 H 0.19314 0.846 0.8828 0.0
H1762 H 0.17576 0.89832 0.83134 0.0
H1763 H 0.13982 0.86167 0.93704 0.0
H1764 H 0.13141 0.84621 0.01273 0.0
H1765 H 0.13212 0.89494 0.08732 0.0
H1766 H 0.1408 0.91071 0.01222 0.0
H1767 H 0.1065 0.94693 0.75931 0.0
H1768 H 0.12265 0.92267 0.78159 0.0
H1769 H 0.13662 0.94761 0.91765 0.0
H1770 H 0.12043 0.97177 0.896 0.0
H1771 H 0.1257 0.91319 0.92882 0.0
H1772 H 0.16537 0.94927 0.82589 0.0
H1773 H 0.17431 0.96488 0.75073 0.0
H1774 H 0.16666 0.91696 0.6713 0.0
H1775 H 0.15746 0.9011 0.74597 0.0
C1776 C 0.19421 0.8751 0.97581 0.0
C1777 C 0.19868 0.86094 0.9485 0.0
C1778 C 0.18159 0.88515 0.95917 0.0
C1779 C 0.17316 0.88122 0.91503 0.0
C1780 C 0.17737 0.86696 0.88796 0.0
C1781 C 0.18997 0.85681 0.9047 0.0
C1782 C 0.16074 0.89275 0.89613 0.0
C1783 C 0.16457 0.90129 0.85209 0.0
C1784 C 0.14635 0.8968 0.9237 0.0
C1785 C 0.14108 0.88737 0.969 0.0
C1786 C 0.13832 0.8691 0.96965 0.0
C1787 C 0.13347 0.86027 0.01245 0.0
C1788 C 0.13126 0.86958 0.05482 0.0
C1789 C 0.13385 0.88774 0.05447 0.0
C1790 C 0.1387 0.89663 0.01177 0.0
C1791 C 0.11303 0.94725 0.79394 0.0
C1792 C 0.11224 0.96129 0.82586 0.0
C1793 C 0.12226 0.9334 0.80656 0.0
C1794 C 0.13087 0.93341 0.85116 0.0
C1795 C 0.13 0.94735 0.88313 0.0
C1796 C 0.12081 0.96118 0.87056 0.0
C1797 C 0.14099 0.91905 0.86471 0.0
C1798 C 0.13671 0.90998 0.90771 0.0
C1799 C 0.15497 0.91453 0.83622 0.0
C1800 C 0.16052 0.92404 0.79137 0.0
C1801 C 0.16545 0.94209 0.79232 0.0
C1802 C 0.17059 0.95097 0.74983 0.0
C1803 C 0.171 0.94192 0.70624 0.0
C1804 C 0.16631 0.92396 0.70508 0.0
C1805 C 0.16113 0.91501 0.74746 0.0
H1806 H 0.17499 0.94882 0.67338 0.0
H1807 H 0.12751 0.86272 0.08792 0.0
loop_
_geom_bond_atom_site_label_1
_geom_bond_atom_site_label_2
_geom_bond_distance
_geom_bond_site_symmetry_2
_ccdc_geom_bond_type
C0 O1 1.160 . S
C0 O7 1.185 . S
O1 C0 1.160 . S
O2 Zn3 1.899 . S
O2 C10 1.284 . S
Zn3 O2 1.899 . S
Zn3 O4 2.032 . S
Zn3 O7 2.086 . S
Zn3 O12 1.977 1_554 S
O4 Zn3 2.032 . S
O4 C8 1.278 1_554 S
C5 O6 1.203 . S
C5 O12 1.267 . S
O6 C5 1.203 . S
O7 C0 1.185 . S
O7 Zn3 2.086 . S
C8 O4 1.278 1_556 S
C8 O9 1.211 . S
O9 C8 1.211 . S
C10 O2 1.284 . S
C10 O11 1.273 . S
O11 C10 1.273 . S
O12 Zn3 1.977 1_556 S
O12 C5 1.267 . S
C13 O14 1.160 . S
C13 O20 1.185 . S
O14 C13 1.160 . S
O15 Zn16 1.899 . S
O15 C23 1.284 . S
Zn16 O15 1.899 . S
Zn16 O17 2.032 . S
Zn16 O20 2.086 . S
Zn16 O25 1.977 . S
O17 Zn16 2.032 . S
O17 C21 1.278 1_545 S
C18 O19 1.203 . S
C18 O25 1.267 . S
O19 C18 1.203 . S
O20 C13 1.185 . S
O20 Zn16 2.086 . S
C21 O17 1.278 1_565 S
C21 O22 1.211 . S
O22 C21 1.211 . S
C23 O15 1.284 . S
C23 O24 1.273 1_545 S
O24 C23 1.273 1_565 S
O25 Zn16 1.977 . S
O25 C18 1.267 . S
C26 O27 1.160 . S
C26 O33 1.185 . S
O27 C26 1.160 . S
O28 Zn29 1.899 . S
O28 C36 1.284 . S
Zn29 O28 1.899 . S
Zn29 O30 2.032 . S
Zn29 O33 2.086 . S
Zn29 O38 1.977 . S
O30 Zn29 2.032 . S
O30 C34 1.278 . S
C31 O32 1.203 . S
C31 O38 1.267 . S
O32 C31 1.203 . S
O33 C26 1.185 . S
O33 Zn29 2.086 . S
C34 O30 1.278 . S
C34 O35 1.211 . S
O35 C34 1.211 . S
C36 O28 1.284 . S
C36 O37 1.273 . S
O37 C36 1.273 . S
O38 Zn29 1.977 . S
O38 C31 1.267 . S
C39 O40 1.160 . S
C39 O46 1.185 . S
O40 C39 1.160 . S
O41 Zn42 1.899 . S
O41 C49 1.284 . S
Zn42 O41 1.899 . S
Zn42 O43 2.032 . S
Zn42 O46 2.086 1_545 S
Zn42 O51 1.977 . S
O43 Zn42 2.032 . S
O43 C47 1.278 . S
C44 O45 1.203 . S
C44 O51 1.267 . S
O45 C44 1.203 . S
O46 C39 1.185 . S
O46 Zn42 2.086 1_565 S
C47 O43 1.278 . S
C47 O48 1.211 . S
O48 C47 1.211 . S
C49 O41 1.284 . S
C49 O50 1.273 . S
O50 C49 1.273 . S
O51 Zn42 1.977 . S
O51 C44 1.267 . S
C52 O53 1.160 . S
C52 O59 1.185 1_556 S
O53 C52 1.160 . S
O54 Zn55 1.899 1_556 S
O54 C62 1.284 . S
Zn55 O54 1.899 1_554 S
Zn55 O56 2.032 . S
Zn55 O59 2.086 . S
Zn55 O64 1.977 . S
O56 Zn55 2.032 . S
O56 C60 1.278 . S
C57 O58 1.203 . S
C57 O64 1.267 . S
O58 C57 1.203 . S
O59 C52 1.185 1_554 S
O59 Zn55 2.086 . S
C60 O56 1.278 . S
C60 O61 1.211 . S
O61 C60 1.211 . S
C62 O54 1.284 . S
C62 O63 1.273 . S
O63 C62 1.273 . S
O64 Zn55 1.977 . S
O64 C57 1.267 . S
C65 O66 1.160 . S
C65 O72 1.185 . S
O66 C65 1.160 . S
O67 Zn68 1.899 . S
O67 C75 1.284 . S
Zn68 O67 1.899 . S
Zn68 O69 2.032 . S
Zn68 O72 2.086 1_545 S
Zn68 O77 1.977 . S
O69 Zn68 2.032 . S
O69 C73 1.278 . S
C70 O71 1.203 . S
C70 O77 1.267 . S
O71 C70 1.203 . S
O72 C65 1.185 . S
O72 Zn68 2.086 1_565 S
C73 O69 1.278 . S
C73 O74 1.211 . S
O74 C73 1.211 . S
C75 O67 1.284 . S
C75 O76 1.273 . S
O76 C75 1.273 . S
O77 Zn68 1.977 . S
O77 C70 1.267 . S
C78 O79 1.160 . S
C78 O85 1.185 . S
O79 C78 1.160 . S
O80 Zn81 1.899 . S
O80 C88 1.284 . S
Zn81 O80 1.899 . S
Zn81 O82 2.032 . S
Zn81 O85 2.086 . S
Zn81 O90 1.977 . S
O82 Zn81 2.032 . S
O82 C86 1.278 . S
C83 O84 1.203 . S
C83 O90 1.267 . S
O84 C83 1.203 . S
O85 C78 1.185 . S
O85 Zn81 2.086 . S
C86 O82 1.278 . S
C86 O87 1.211 . S
O87 C86 1.211 . S
C88 O80 1.284 . S
C88 O89 1.273 . S
O89 C88 1.273 . S
O90 Zn81 1.977 . S
O90 C83 1.267 . S
C91 O92 1.160 . S
C91 O98 1.185 . S
O92 C91 1.160 . S
O93 Zn94 1.899 . S
O93 C101 1.284 . S
Zn94 O93 1.899 . S
Zn94 O95 2.032 . S
Zn94 O98 2.086 . S
Zn94 O103 1.977 . S
O95 Zn94 2.032 . S
O95 C99 1.278 1_545 S
C96 O97 1.203 . S
C96 O103 1.267 . S
O97 C96 1.203 . S
O98 C91 1.185 . S
O98 Zn94 2.086 . S
C99 O95 1.278 1_565 S
C99 O100 1.211 . S
O100 C99 1.211 . S
C101 O93 1.284 . S
C101 O102 1.273 1_545 S
O102 C101 1.273 1_565 S
O103 Zn94 1.977 . S
O103 C96 1.267 . S
C104 O105 1.160 . S
C104 O111 1.185 . S
O105 C104 1.160 . S
O106 Zn107 1.899 . S
O106 C114 1.284 . S
Zn107 O106 1.899 . S
Zn107 O108 2.032 . S
Zn107 O111 2.086 . S
Zn107 O116 1.977 . S
O108 Zn107 2.032 . S
O108 C112 1.278 . S
C109 O110 1.203 . S
C109 O116 1.267 . S
O110 C109 1.203 . S
O111 C104 1.185 . S
O111 Zn107 2.086 . S
C112 O108 1.278 . S
C112 O113 1.211 . S
O113 C112 1.211 . S
C114 O106 1.284 . S
C114 O115 1.273 . S
O115 C114 1.273 . S
O116 Zn107 1.977 . S
O116 C109 1.267 . S
C117 O118 1.160 . S
C117 O124 1.185 . S
O118 C117 1.160 . S
O119 Zn120 1.899 . S
O119 C127 1.284 . S
Zn120 O119 1.899 . S
Zn120 O121 2.032 . S
Zn120 O124 2.086 . S
Zn120 O129 1.977 . S
O121 Zn120 2.032 . S
O121 C125 1.278 . S
C122 O123 1.203 . S
C122 O129 1.267 . S
O123 C122 1.203 . S
O124 C117 1.185 . S
O124 Zn120 2.086 . S
C125 O121 1.278 . S
C125 O126 1.211 . S
O126 C125 1.211 . S
C127 O119 1.284 . S
C127 O128 1.273 . S
O128 C127 1.273 . S
O129 Zn120 1.977 . S
O129 C122 1.267 . S
C130 O131 1.160 . S
C130 O137 1.185 . S
O131 C130 1.160 . S
O132 Zn133 1.899 . S
O132 C140 1.284 . S
Zn133 O132 1.899 . S
Zn133 O134 2.032 . S
Zn133 O137 2.086 . S
Zn133 O142 1.977 1_554 S
O134 Zn133 2.032 . S
O134 C138 1.278 1_554 S
C135 O136 1.203 . S
C135 O142 1.267 . S
O136 C135 1.203 . S
O137 C130 1.185 . S
O137 Zn133 2.086 . S
C138 O134 1.278 1_556 S
C138 O139 1.211 . S
O139 C138 1.211 . S
C140 O132 1.284 . S
C140 O141 1.273 . S
O141 C140 1.273 . S
O142 Zn133 1.977 1_556 S
O142 C135 1.267 . S
C143 O144 1.160 . S
C143 O150 1.185 . S
O144 C143 1.160 . S
O145 Zn146 1.899 . S
O145 C153 1.284 . S
Zn146 O145 1.899 . S
Zn146 O147 2.032 . S
Zn146 O150 2.086 . S
Zn146 O155 1.977 . S
O147 Zn146 2.032 . S
O147 C151 1.278 . S
C148 O149 1.203 . S
C148 O155 1.267 . S
O149 C148 1.203 . S
O150 C143 1.185 . S
O150 Zn146 2.086 . S
C151 O147 1.278 . S
C151 O152 1.211 . S
O152 C151 1.211 . S
C153 O145 1.284 . S
C153 O154 1.273 . S
O154 C153 1.273 . S
O155 Zn146 1.977 . S
O155 C148 1.267 . S
C156 O157 1.160 . S
C156 O163 1.185 . S
O157 C156 1.160 . S
O158 Zn159 1.899 . S
O158 C166 1.284 . S
Zn159 O158 1.899 . S
Zn159 O160 2.032 . S
Zn159 O163 2.086 . S
Zn159 O168 1.977 . S
O160 Zn159 2.032 . S
O160 C164 1.278 . S
C161 O162 1.203 . S
C161 O168 1.267 . S
O162 C161 1.203 . S
O163 C156 1.185 . S
O163 Zn159 2.086 . S
C164 O160 1.278 . S
C164 O165 1.211 . S
O165 C164 1.211 . S
C166 O158 1.284 . S
C166 O167 1.273 . S
O167 C166 1.273 . S
O168 Zn159 1.977 . S
O168 C161 1.267 . S
C169 O170 1.160 . S
C169 O176 1.185 . S
O170 C169 1.160 . S
O171 Zn172 1.899 . S
O171 C179 1.284 . S
Zn172 O171 1.899 . S
Zn172 O173 2.032 . S
Zn172 O176 2.086 . S
Zn172 O181 1.977 . S
O173 Zn172 2.032 . S
O173 C177 1.278 . S
C174 O175 1.203 . S
C174 O181 1.267 . S
O175 C174 1.203 . S
O176 C169 1.185 . S
O176 Zn172 2.086 . S
C177 O173 1.278 . S
C177 O178 1.211 . S
O178 C177 1.211 . S
C179 O171 1.284 . S
C179 O180 1.273 . S
O180 C179 1.273 . S
O181 Zn172 1.977 . S
O181 C174 1.267 . S
C182 O183 1.160 . S
C182 O189 1.185 1_556 S
O183 C182 1.160 . S
O184 Zn185 1.899 1_556 S
O184 C192 1.284 . S
Zn185 O184 1.899 1_554 S
Zn185 O186 2.032 . S
Zn185 O189 2.086 . S
Zn185 O194 1.977 . S
O186 Zn185 2.032 . S
O186 C190 1.278 . S
C187 O188 1.203 . S
C187 O194 1.267 . S
O188 C187 1.203 . S
O189 C182 1.185 1_554 S
O189 Zn185 2.086 . S
C190 O186 1.278 . S
C190 O191 1.211 . S
O191 C190 1.211 . S
C192 O184 1.284 . S
C192 O193 1.273 . S
O193 C192 1.273 . S
O194 Zn185 1.977 . S
O194 C187 1.267 . S
C195 O196 1.160 . S
C195 O202 1.185 . S
O196 C195 1.160 . S
O197 Zn198 1.899 . S
O197 C205 1.284 . S
Zn198 O197 1.899 . S
Zn198 O199 2.032 . S
Zn198 O202 2.086 . S
Zn198 O207 1.977 . S
O199 Zn198 2.032 . S
O199 C203 1.278 . S
C200 O201 1.203 . S
C200 O207 1.267 . S
O201 C200 1.203 . S
O202 C195 1.185 . S
O202 Zn198 2.086 . S
C203 O199 1.278 . S
C203 O204 1.211 . S
O204 C203 1.211 . S
C205 O197 1.284 . S
C205 O206 1.273 . S
O206 C205 1.273 . S
O207 Zn198 1.977 . S
O207 C200 1.267 . S
H208 C226 0.951 . S
H209 C228 0.951 . S
H210 C230 0.950 . S
H211 C231 0.950 . S
H212 C233 0.950 . S
H213 C236 0.950 . S
H214 C237 0.950 . S
H215 C239 0.950 . S
H216 C240 0.950 . S
H217 C241 0.951 . S
H218 C243 0.951 . S
H219 C245 0.950 . S
H220 C246 0.950 . S
H221 C248 0.950 . S
H222 C251 0.950 . S
H223 C252 0.950 . S
H224 C254 0.950 . S
H225 C255 0.950 . S
C226 H208 0.951 . S
C226 C227 1.366 . S
C226 C228 1.388 . S
C227 C226 1.366 . S
C227 C231 1.385 . S
C228 H209 0.951 . S
C228 C226 1.388 . S
C228 C229 1.366 . S
C229 C228 1.366 . S
C229 C230 1.414 . S
C229 C232 1.499 . S
C230 H210 0.950 . S
C230 C229 1.414 . S
C230 C231 1.374 . S
C231 H211 0.950 . S
C231 C227 1.385 . S
C231 C230 1.374 . S
C232 C229 1.499 . S
C232 C233 1.373 . S
C232 C234 1.389 . S
C233 H212 0.950 . S
C233 C232 1.373 . S
C233 C249 1.377 . S
C234 C232 1.389 . S
C234 C235 1.524 . S
C234 C248 1.377 . S
C235 C234 1.524 . S
C235 C236 1.397 . S
C235 C240 1.363 . S
C236 H213 0.950 . S
C236 C235 1.397 . S
C236 C237 1.334 . S
C237 H214 0.950 . S
C237 C236 1.334 . S
C237 C238 1.287 . S
C238 C237 1.287 . S
C238 C239 1.524 . S
C238 H257 0.913 . S
C239 H215 0.950 . S
C239 C238 1.524 . S
C239 C240 1.415 . S
C240 H216 0.950 . S
C240 C235 1.363 . S
C240 C239 1.415 . S
C241 H217 0.951 . S
C241 C242 1.366 . S
C241 C243 1.388 . S
C242 C241 1.366 . S
C242 C246 1.385 . S
C243 H218 0.951 . S
C243 C241 1.388 . S
C243 C244 1.366 . S
C244 C243 1.366 . S
C244 C245 1.414 . S
C244 C247 1.499 . S
C245 H219 0.950 . S
C245 C244 1.414 . S
C245 C246 1.374 . S
C246 H220 0.950 . S
C246 C242 1.385 . S
C246 C245 1.374 . S
C247 C244 1.499 . S
C247 C248 1.373 . S
C247 C249 1.389 . S
C248 H221 0.950 . S
C248 C234 1.377 . S
C248 C247 1.373 . S
C249 C233 1.377 . S
C249 C247 1.389 . S
C249 C250 1.524 . S
C250 C249 1.524 . S
C250 C251 1.397 . S
C250 C255 1.363 . S
C251 H222 0.950 . S
C251 C250 1.397 . S
C251 C252 1.334 . S
C252 H223 0.950 . S
C252 C251 1.334 . S
C252 C253 1.287 . S
C253 C252 1.287 . S
C253 C254 1.524 . S
C253 H256 0.999 . S
C254 H224 0.950 . S
C254 C253 1.524 . S
C254 C255 1.415 . S
C255 H225 0.950 . S
C255 C250 1.363 . S
C255 C254 1.415 . S
H256 C253 0.999 . S
H257 C238 0.913 . S
H258 C276 0.951 . S
H259 C278 0.951 . S
H260 C280 0.950 . S
H261 C281 0.950 . S
H262 C283 0.950 . S
H263 C286 0.950 . S
H264 C287 0.950 . S
H265 C289 0.950 . S
H266 C290 0.950 . S
H267 C291 0.951 . S
H268 C293 0.951 . S
H269 C295 0.950 . S
H270 C296 0.950 . S
H271 C298 0.889 1_565 S
H272 C301 0.950 . S
H273 C302 0.950 . S
H274 C304 0.950 . S
H275 C305 0.950 . S
C276 H258 0.951 . S
C276 C277 1.366 . S
C276 C278 1.388 . S
C277 C276 1.366 . S
C277 C281 1.385 . S
C278 H259 0.951 . S
C278 C276 1.388 . S
C278 C279 1.366 . S
C279 C278 1.366 . S
C279 C280 1.414 . S
C279 C282 1.499 . S
C280 H260 0.950 . S
C280 C279 1.414 . S
C280 C281 1.374 . S
C281 H261 0.950 . S
C281 C277 1.385 . S
C281 C280 1.374 . S
C282 C279 1.499 . S
C282 C283 1.373 . S
C282 C284 1.389 . S
C283 H262 0.950 . S
C283 C282 1.373 . S
C283 C299 1.377 1_655 S
C284 C282 1.389 . S
C284 C285 1.524 1_545 S
C284 C298 1.392 1_655 S
C285 C284 1.524 1_565 S
C285 C286 1.397 . S
C285 C290 1.363 . S
C286 H263 0.950 . S
C286 C285 1.397 . S
C286 C287 1.334 . S
C287 H264 0.950 . S
C287 C286 1.334 . S
C287 C288 1.287 . S
C288 C287 1.287 . S
C288 C289 1.524 . S
C288 H307 0.913 . S
C289 H265 0.950 . S
C289 C288 1.524 . S
C289 C290 1.415 . S
C290 H266 0.950 . S
C290 C285 1.363 . S
C290 C289 1.415 . S
C291 H267 0.951 . S
C291 C292 1.366 . S
C291 C293 1.388 . S
C292 C291 1.366 . S
C292 C296 1.385 1_545 S
C293 H268 0.951 . S
C293 C291 1.388 . S
C293 C294 1.366 . S
C294 C293 1.366 . S
C294 C295 1.414 1_545 S
C294 C297 1.499 . S
C295 H269 0.950 . S
C295 C294 1.414 1_565 S
C295 C296 1.374 . S
C296 H270 0.950 . S
C296 C292 1.385 1_565 S
C296 C295 1.374 . S
C297 C294 1.499 . S
C297 C298 1.421 . S
C297 C299 1.389 . S
C298 H271 0.889 1_545 S
C298 C284 1.392 1_455 S
C298 C297 1.421 . S
C299 C283 1.377 1_455 S
C299 C297 1.389 . S
C299 C300 1.524 . S
C300 C299 1.524 . S
C300 C301 1.397 . S
C300 C305 1.363 . S
C301 H272 0.950 . S
C301 C300 1.397 . S
C301 C302 1.334 . S
C302 H273 0.950 . S
C302 C301 1.334 . S
C302 C303 1.287 . S
C303 C302 1.287 . S
C303 C304 1.524 . S
C303 H306 0.999 . S
C304 H274 0.950 . S
C304 C303 1.524 . S
C304 C305 1.415 . S
C305 H275 0.950 . S
C305 C300 1.363 . S
C305 C304 1.415 . S
H306 C303 0.999 . S
H307 C288 0.913 . S
H308 C326 0.951 . S
H309 C328 0.951 . S
H310 C330 0.950 . S
H311 C331 0.950 . S
H312 C333 0.950 . S
H313 C336 0.950 . S
H314 C337 0.950 . S
H315 C339 0.950 . S
H316 C340 0.950 . S
H317 C341 0.951 . S
H318 C343 0.951 . S
H319 C345 0.950 . S
H320 C346 0.950 . S
H321 C348 0.950 . S
H322 C351 0.950 . S
H323 C352 0.950 . S
H324 C354 0.950 . S
H325 C355 0.950 . S
C326 H308 0.951 . S
C326 C327 1.366 . S
C326 C328 1.388 . S
C327 C326 1.366 . S
C327 C331 1.385 . S
C328 H309 0.951 . S
C328 C326 1.388 . S
C328 C329 1.366 . S
C329 C328 1.366 . S
C329 C330 1.414 . S
C329 C332 1.499 . S
C330 H310 0.950 . S
C330 C329 1.414 . S
C330 C331 1.374 . S
C331 H311 0.950 . S
C331 C327 1.385 . S
C331 C330 1.374 . S
C332 C329 1.499 . S
C332 C333 1.373 . S
C332 C334 1.389 . S
C333 H312 0.950 . S
C333 C332 1.373 . S
C333 C349 1.377 . S
C334 C332 1.389 . S
C334 C335 1.524 . S
C334 C348 1.377 . S
C335 C334 1.524 . S
C335 C336 1.397 . S
C335 C340 1.363 . S
C336 H313 0.950 . S
C336 C335 1.397 . S
C336 C337 1.334 . S
C337 H314 0.950 . S
C337 C336 1.334 . S
C337 C338 1.287 . S
C338 C337 1.287 . S
C338 C339 1.524 . S
C338 H357 0.913 . S
C339 H315 0.950 . S
C339 C338 1.524 . S
C339 C340 1.415 . S
C340 H316 0.950 . S
C340 C335 1.363 . S
C340 C339 1.415 . S
C341 H317 0.951 . S
C341 C342 1.366 . S
C341 C343 1.388 . S
C342 C341 1.366 . S
C342 C346 1.385 . S
C343 H318 0.951 . S
C343 C341 1.388 . S
C343 C344 1.366 . S
C344 C343 1.366 . S
C344 C345 1.414 . S
C344 C347 1.499 . S
C345 H319 0.950 . S
C345 C344 1.414 . S
C345 C346 1.374 . S
C346 H320 0.950 . S
C346 C342 1.385 . S
C346 C345 1.374 . S
C347 C344 1.499 . S
C347 C348 1.373 . S
C347 C349 1.389 . S
C348 H321 0.950 . S
C348 C334 1.377 . S
C348 C347 1.373 . S
C349 C333 1.377 . S
C349 C347 1.389 . S
C349 C350 1.524 . S
C350 C349 1.524 . S
C350 C351 1.397 . S
C350 C355 1.363 . S
C351 H322 0.950 . S
C351 C350 1.397 . S
C351 C352 1.334 . S
C352 H323 0.950 . S
C352 C351 1.334 . S
C352 C353 1.287 . S
C353 C352 1.287 . S
C353 C354 1.524 . S
C353 H356 0.999 . S
C354 H324 0.950 . S
C354 C353 1.524 . S
C354 C355 1.415 . S
C355 H325 0.950 . S
C355 C350 1.363 . S
C355 C354 1.415 . S
H356 C353 0.999 . S
H357 C338 0.913 . S
H358 C376 0.951 . S
H359 C378 0.951 . S
H360 C380 0.950 . S
H361 C381 0.950 . S
H362 C383 0.950 1_565 S
H363 C386 0.950 . S
H364 C387 0.950 . S
H365 C389 0.950 . S
H366 C390 0.950 . S
H367 C391 0.950 . S
H368 C393 0.951 1_565 S
H369 C395 0.950 . S
H370 C396 0.950 . S
H371 C398 0.955 . S
H372 C401 0.950 1_554 S
H373 C402 0.950 . S
H374 C404 0.950 . S
H375 C405 0.950 . S
C376 H358 0.951 . S
C376 C377 1.366 . S
C376 C378 1.388 . S
C377 C376 1.366 . S
C377 C381 1.385 . S
C378 H359 0.951 . S
C378 C376 1.388 . S
C378 C379 1.366 . S
C379 C378 1.366 . S
C379 C380 1.414 . S
C379 C382 1.499 . S
C380 H360 0.950 . S
C380 C379 1.414 . S
C380 C381 1.374 . S
C381 H361 0.950 . S
C381 C377 1.385 . S
C381 C380 1.374 . S
C382 C379 1.499 . S
C382 C383 1.373 . S
C382 C384 1.389 . S
C383 H362 0.950 1_545 S
C383 C382 1.373 . S
C383 C399 1.400 . S
C384 C382 1.389 . S
C384 C385 1.524 . S
C384 C398 1.367 1_554 S
C385 C384 1.524 . S
C385 C386 1.397 . S
C385 C390 1.363 . S
C386 H363 0.950 . S
C386 C385 1.397 . S
C386 C387 1.334 . S
C387 H364 0.950 . S
C387 C386 1.334 . S
C387 C388 1.287 . S
C388 C387 1.287 . S
C388 C389 1.524 . S
C388 H407 0.913 . S
C389 H365 0.950 . S
C389 C388 1.524 . S
C389 C390 1.415 . S
C390 H366 0.950 . S
C390 C385 1.363 . S
C390 C389 1.415 . S
C391 H367 0.950 . S
C391 C392 1.366 1_565 S
C391 C393 1.388 1_565 S
C392 C391 1.366 1_545 S
C392 C396 1.385 . S
C393 H368 0.951 1_545 S
C393 C391 1.388 1_545 S
C393 C394 1.366 . S
C394 C393 1.366 . S
C394 C395 1.414 . S
C394 C397 1.499 . S
C395 H369 0.950 . S
C395 C394 1.414 . S
C395 C396 1.374 . S
C396 H370 0.950 . S
C396 C392 1.385 . S
C396 C395 1.374 . S
C397 C394 1.499 . S
C397 C398 1.378 . S
C397 C399 1.419 1_556 S
C398 H371 0.955 . S
C398 C384 1.367 1_556 S
C398 C397 1.378 . S
C399 C383 1.400 . S
C399 C397 1.419 1_554 S
C399 C400 1.471 1_544 S
C400 C399 1.471 1_566 S
C400 C401 1.397 . S
C400 C405 1.363 . S
C401 H372 0.950 1_556 S
C401 C400 1.397 . S
C401 C402 1.334 . S
C402 H373 0.950 . S
C402 C401 1.334 . S
C402 C403 1.287 . S
C403 C402 1.287 . S
C403 C404 1.524 . S
C403 H406 0.999 . S
C404 H374 0.950 . S
C404 C403 1.524 . S
C404 C405 1.415 . S
C405 H375 0.950 . S
C405 C400 1.363 . S
C405 C404 1.415 . S
H406 C403 0.999 . S
H407 C388 0.913 . S
H408 C426 0.951 . S
H409 C428 0.951 . S
H410 C430 0.950 . S
H411 C431 0.950 . S
H412 C433 0.950 . S
H413 C436 0.950 . S
H414 C437 0.950 . S
H415 C439 0.950 . S
H416 C440 0.950 . S
H417 C441 0.951 . S
H418 C443 0.951 . S
H419 C445 0.950 . S
H420 C446 0.950 . S
H421 C448 0.950 . S
H422 C451 0.950 . S
H423 C452 0.950 . S
H424 C454 0.950 . S
H425 C455 0.950 . S
C426 H408 0.951 . S
C426 C427 1.366 . S
C426 C428 1.388 . S
C427 C426 1.366 . S
C427 C431 1.385 . S
C428 H409 0.951 . S
C428 C426 1.388 . S
C428 C429 1.366 . S
C429 C428 1.366 . S
C429 C430 1.414 . S
C429 C432 1.499 . S
C430 H410 0.950 . S
C430 C429 1.414 . S
C430 C431 1.374 . S
C431 H411 0.950 . S
C431 C427 1.385 . S
C431 C430 1.374 . S
C432 C429 1.499 . S
C432 C433 1.373 . S
C432 C434 1.389 . S
C433 H412 0.950 . S
C433 C432 1.373 . S
C433 C449 1.377 . S
C434 C432 1.389 . S
C434 C435 1.524 . S
C434 C448 1.377 . S
C435 C434 1.524 . S
C435 C436 1.397 . S
C435 C440 1.363 . S
C436 H413 0.950 . S
C436 C435 1.397 . S
C436 C437 1.334 . S
C437 H414 0.950 . S
C437 C436 1.334 . S
C437 C438 1.287 . S
C438 C437 1.287 . S
C438 C439 1.524 . S
C438 H457 0.913 . S
C439 H415 0.950 . S
C439 C438 1.524 . S
C439 C440 1.415 . S
C440 H416 0.950 . S
C440 C435 1.363 . S
C440 C439 1.415 . S
C441 H417 0.951 . S
C441 C442 1.366 . S
C441 C443 1.388 . S
C442 C441 1.366 . S
C442 C446 1.385 . S
C443 H418 0.951 . S
C443 C441 1.388 . S
C443 C444 1.366 . S
C444 C443 1.366 . S
C444 C445 1.414 . S
C444 C447 1.499 . S
C445 H419 0.950 . S
C445 C444 1.414 . S
C445 C446 1.374 . S
C446 H420 0.950 . S
C446 C442 1.385 . S
C446 C445 1.374 . S
C447 C444 1.499 . S
C447 C448 1.373 . S
C447 C449 1.389 . S
C448 H421 0.950 . S
C448 C434 1.377 . S
C448 C447 1.373 . S
C449 C433 1.377 . S
C449 C447 1.389 . S
C449 C450 1.524 . S
C450 C449 1.524 . S
C450 C451 1.397 . S
C450 C455 1.363 . S
C451 H422 0.950 . S
C451 C450 1.397 . S
C451 C452 1.334 . S
C452 H423 0.950 . S
C452 C451 1.334 . S
C452 C453 1.287 . S
C453 C452 1.287 . S
C453 C454 1.524 . S
C453 H456 0.999 . S
C454 H424 0.950 . S
C454 C453 1.524 . S
C454 C455 1.415 . S
C455 H425 0.950 . S
C455 C450 1.363 . S
C455 C454 1.415 . S
H456 C453 0.999 . S
H457 C438 0.913 . S
H458 C476 0.951 1_565 S
H459 C478 0.951 1_565 S
H460 C480 0.950 . S
H461 C481 0.950 . S
H462 C483 0.950 . S
H463 C486 0.950 . S
H464 C487 0.950 . S
H465 C489 0.950 . S
H466 C490 0.950 . S
H467 C491 0.951 . S
H468 C493 0.951 . S
H469 C495 0.954 . S
H470 C496 0.950 . S
H471 C498 0.950 1_565 S
H472 C501 0.950 . S
H473 C502 0.950 . S
H474 C504 0.950 . S
H475 C505 0.950 . S
C476 H458 0.951 1_545 S
C476 C477 1.366 . S
C476 C478 1.388 . S
C477 C476 1.366 . S
C477 C481 1.385 . S
C478 H459 0.951 1_545 S
C478 C476 1.388 . S
C478 C479 1.366 . S
C479 C478 1.366 . S
C479 C480 1.414 . S
C479 C482 1.499 . S
C480 H460 0.950 . S
C480 C479 1.414 . S
C480 C481 1.374 . S
C481 H461 0.950 . S
C481 C477 1.385 . S
C481 C480 1.374 . S
C482 C479 1.499 . S
C482 C483 1.373 . S
C482 C484 1.389 . S
C483 H462 0.950 . S
C483 C482 1.373 . S
C483 C499 1.377 . S
C484 C482 1.389 . S
C484 C485 1.524 1_545 S
C484 C498 1.377 . S
C485 C484 1.524 1_565 S
C485 C486 1.397 . S
C485 C490 1.363 . S
C486 H463 0.950 . S
C486 C485 1.397 . S
C486 C487 1.334 . S
C487 H464 0.950 . S
C487 C486 1.334 . S
C487 C488 1.287 . S
C488 C487 1.287 . S
C488 C489 1.524 . S
C488 H507 0.913 . S
C489 H465 0.950 . S
C489 C488 1.524 . S
C489 C490 1.415 . S
C490 H466 0.950 . S
C490 C485 1.363 . S
C490 C489 1.415 . S
C491 H467 0.951 . S
C491 C492 1.366 . S
C491 C493 1.388 . S
C492 C491 1.366 . S
C492 C496 1.385 . S
C493 H468 0.951 . S
C493 C491 1.388 . S
C493 C494 1.366 . S
C494 C493 1.366 . S
C494 C495 1.414 . S
C494 C497 1.499 . S
C495 H469 0.954 . S
C495 C494 1.414 . S
C495 C496 1.374 . S
C496 H470 0.950 . S
C496 C492 1.385 . S
C496 C495 1.374 . S
C497 C494 1.499 . S
C497 C498 1.373 . S
C497 C499 1.389 . S
C498 H471 0.950 1_545 S
C498 C484 1.377 . S
C498 C497 1.373 . S
C499 C483 1.377 . S
C499 C497 1.389 . S
C499 C500 1.524 . S
C500 C499 1.524 . S
C500 C501 1.397 . S
C500 C505 1.363 . S
C501 H472 0.950 . S
C501 C500 1.397 . S
C501 C502 1.334 . S
C502 H473 0.950 . S
C502 C501 1.334 . S
C502 C503 1.287 . S
C503 C502 1.287 . S
C503 C504 1.524 . S
C503 H506 0.999 . S
C504 H474 0.950 . S
C504 C503 1.524 . S
C504 C505 1.415 . S
C505 H475 0.950 . S
C505 C500 1.363 . S
C505 C504 1.415 . S
H506 C503 0.999 . S
H507 C488 0.913 . S
H508 C526 0.951 . S
H509 C528 0.951 . S
H510 C530 0.950 . S
H511 C531 0.950 . S
H512 C533 0.950 . S
H513 C536 0.950 . S
H514 C537 0.950 . S
H515 C539 0.950 . S
H516 C540 0.950 . S
H517 C541 0.951 . S
H518 C543 0.951 . S
H519 C545 0.950 . S
H520 C546 0.950 . S
H521 C548 0.950 . S
H522 C551 0.950 . S
H523 C552 0.950 . S
H524 C554 0.950 . S
H525 C555 0.950 . S
C526 H508 0.951 . S
C526 C527 1.366 . S
C526 C528 1.388 . S
C527 C526 1.366 . S
C527 C531 1.385 . S
C528 H509 0.951 . S
C528 C526 1.388 . S
C528 C529 1.366 . S
C529 C528 1.366 . S
C529 C530 1.414 . S
C529 C532 1.499 . S
C530 H510 0.950 . S
C530 C529 1.414 . S
C530 C531 1.374 . S
C531 H511 0.950 . S
C531 C527 1.385 . S
C531 C530 1.374 . S
C532 C529 1.499 . S
C532 C533 1.373 . S
C532 C534 1.389 . S
C533 H512 0.950 . S
C533 C532 1.373 . S
C533 C549 1.377 . S
C534 C532 1.389 . S
C534 C535 1.524 . S
C534 C548 1.377 . S
C535 C534 1.524 . S
C535 C536 1.397 . S
C535 C540 1.363 . S
C536 H513 0.950 . S
C536 C535 1.397 . S
C536 C537 1.334 . S
C537 H514 0.950 . S
C537 C536 1.334 . S
C537 C538 1.287 . S
C538 C537 1.287 . S
C538 C539 1.524 . S
C538 H557 0.913 . S
C539 H515 0.950 . S
C539 C538 1.524 . S
C539 C540 1.415 . S
C540 H516 0.950 . S
C540 C535 1.363 . S
C540 C539 1.415 . S
C541 H517 0.951 . S
C541 C542 1.366 . S
C541 C543 1.388 . S
C542 C541 1.366 . S
C542 C546 1.385 . S
C543 H518 0.951 . S
C543 C541 1.388 . S
C543 C544 1.366 . S
C544 C543 1.366 . S
C544 C545 1.414 . S
C544 C547 1.499 . S
C545 H519 0.950 . S
C545 C544 1.414 . S
C545 C546 1.374 . S
C546 H520 0.950 . S
C546 C542 1.385 . S
C546 C545 1.374 . S
C547 C544 1.499 . S
C547 C548 1.373 . S
C547 C549 1.389 . S
C548 H521 0.950 . S
C548 C534 1.377 . S
C548 C547 1.373 . S
C549 C533 1.377 . S
C549 C547 1.389 . S
C549 C550 1.524 . S
C550 C549 1.524 . S
C550 C551 1.397 . S
C550 C555 1.363 . S
C551 H522 0.950 . S
C551 C550 1.397 . S
C551 C552 1.334 . S
C552 H523 0.950 . S
C552 C551 1.334 . S
C552 C553 1.287 . S
C553 C552 1.287 . S
C553 C554 1.524 . S
C553 H556 0.999 . S
C554 H524 0.950 . S
C554 C553 1.524 . S
C554 C555 1.415 . S
C555 H525 0.950 . S
C555 C550 1.363 . S
C555 C554 1.415 . S
H556 C553 0.999 . S
H557 C538 0.913 . S
H558 C576 0.951 1_565 S
H559 C578 0.951 1_565 S
H560 C580 0.950 . S
H561 C581 0.950 . S
H562 C583 0.950 . S
H563 C586 0.950 1_545 S
H564 C587 0.950 . S
H565 C589 0.950 . S
H566 C590 0.950 . S
H567 C591 0.951 . S
H568 C593 0.951 . S
H569 C595 0.947 1_565 S
H570 C596 0.981 . S
H571 C598 0.950 1_565 S
H572 C601 0.950 . S
H573 C602 0.950 . S
H574 C604 0.950 . S
H575 C605 0.950 . S
C576 H558 0.951 1_545 S
C576 C577 1.366 . S
C576 C578 1.388 . S
C577 C576 1.366 . S
C577 C581 1.385 . S
C578 H559 0.951 1_545 S
C578 C576 1.388 . S
C578 C579 1.366 . S
C579 C578 1.366 . S
C579 C580 1.414 . S
C579 C582 1.499 . S
C580 H560 0.950 . S
C580 C579 1.414 . S
C580 C581 1.374 . S
C581 H561 0.950 . S
C581 C577 1.385 . S
C581 C580 1.374 . S
C582 C579 1.499 . S
C582 C583 1.373 1_556 S
C582 C584 1.389 1_455 S
C583 H562 0.950 . S
C583 C582 1.373 1_554 S
C583 C599 1.377 . S
C584 C582 1.389 1_655 S
C584 C585 1.524 1_545 S
C584 C598 1.377 1_556 S
C585 C584 1.524 1_565 S
C585 C586 1.397 . S
C585 C590 1.363 . S
C586 H563 0.950 1_565 S
C586 C585 1.397 . S
C586 C587 1.334 . S
C587 H564 0.950 . S
C587 C586 1.334 . S
C587 C588 1.287 . S
C588 C587 1.287 . S
C588 C589 1.524 . S
C588 H607 0.913 . S
C589 H565 0.950 . S
C589 C588 1.524 . S
C589 C590 1.415 . S
C590 H566 0.950 . S
C590 C585 1.363 . S
C590 C589 1.415 . S
C591 H567 0.951 . S
C591 C592 1.366 . S
C591 C593 1.388 . S
C592 C591 1.366 . S
C592 C596 1.353 1_545 S
C593 H568 0.951 . S
C593 C591 1.388 . S
C593 C594 1.366 . S
C594 C593 1.366 . S
C594 C595 1.418 . S
C594 C597 1.499 . S
C595 H569 0.947 1_545 S
C595 C594 1.418 . S
C595 C596 1.376 1_545 S
C596 H570 0.981 . S
C596 C592 1.353 1_565 S
C596 C595 1.376 1_565 S
C597 C594 1.499 . S
C597 C598 1.373 . S
C597 C599 1.389 1_655 S
C598 H571 0.950 1_545 S
C598 C584 1.377 1_554 S
C598 C597 1.373 . S
C599 C583 1.377 . S
C599 C597 1.389 1_455 S
C599 C600 1.524 . S
C600 C599 1.524 . S
C600 C601 1.397 . S
C600 C605 1.363 . S
C601 H572 0.950 . S
C601 C600 1.397 . S
C601 C602 1.334 . S
C602 H573 0.950 . S
C602 C601 1.334 . S
C602 C603 1.287 . S
C603 C602 1.287 . S
C603 C604 1.524 . S
C603 H606 0.999 . S
C604 H574 0.950 . S
C604 C603 1.524 . S
C604 C605 1.415 . S
C605 H575 0.950 . S
C605 C600 1.363 . S
C605 C604 1.415 . S
H606 C603 0.999 . S
H607 C588 0.913 . S
H608 C626 0.951 . S
H609 C628 0.951 . S
H610 C630 0.950 . S
H611 C631 0.950 . S
H612 C633 0.950 . S
H613 C636 0.950 . S
H614 C637 0.950 . S
H615 C639 0.950 . S
H616 C640 0.950 . S
H617 C641 0.951 . S
H618 C643 0.951 . S
H619 C645 0.950 . S
H620 C646 0.950 . S
H621 C648 0.950 . S
H622 C651 0.950 . S
H623 C652 0.950 . S
H624 C654 0.950 . S
H625 C655 0.950 . S
C626 H608 0.951 . S
C626 C627 1.366 . S
C626 C628 1.388 . S
C627 C626 1.366 . S
C627 C631 1.385 . S
C628 H609 0.951 . S
C628 C626 1.388 . S
C628 C629 1.366 . S
C629 C628 1.366 . S
C629 C630 1.414 . S
C629 C632 1.499 . S
C630 H610 0.950 . S
C630 C629 1.414 . S
C630 C631 1.374 . S
C631 H611 0.950 . S
C631 C627 1.385 . S
C631 C630 1.374 . S
C632 C629 1.499 . S
C632 C633 1.373 . S
C632 C634 1.389 . S
C633 H612 0.950 . S
C633 C632 1.373 . S
C633 C649 1.377 . S
C634 C632 1.389 . S
C634 C635 1.524 . S
C634 C648 1.377 . S
C635 C634 1.524 . S
C635 C636 1.397 . S
C635 C640 1.363 . S
C636 H613 0.950 . S
C636 C635 1.397 . S
C636 C637 1.334 . S
C637 H614 0.950 . S
C637 C636 1.334 . S
C637 C638 1.287 . S
C638 C637 1.287 . S
C638 C639 1.524 . S
C638 H657 0.913 . S
C639 H615 0.950 . S
C639 C638 1.524 . S
C639 C640 1.415 . S
C640 H616 0.950 . S
C640 C635 1.363 . S
C640 C639 1.415 . S
C641 H617 0.951 . S
C641 C642 1.366 . S
C641 C643 1.388 . S
C642 C641 1.366 . S
C642 C646 1.385 . S
C643 H618 0.951 . S
C643 C641 1.388 . S
C643 C644 1.366 . S
C644 C643 1.366 . S
C644 C645 1.414 . S
C644 C647 1.499 . S
C645 H619 0.950 . S
C645 C644 1.414 . S
C645 C646 1.374 . S
C646 H620 0.950 . S
C646 C642 1.385 . S
C646 C645 1.374 . S
C647 C644 1.499 . S
C647 C648 1.373 . S
C647 C649 1.389 . S
C648 H621 0.950 . S
C648 C634 1.377 . S
C648 C647 1.373 . S
C649 C633 1.377 . S
C649 C647 1.389 . S
C649 C650 1.524 . S
C650 C649 1.524 . S
C650 C651 1.397 . S
C650 C655 1.363 . S
C651 H622 0.950 . S
C651 C650 1.397 . S
C651 C652 1.334 . S
C652 H623 0.950 . S
C652 C651 1.334 . S
C652 C653 1.287 . S
C653 C652 1.287 . S
C653 C654 1.524 . S
C653 H656 0.999 . S
C654 H624 0.950 . S
C654 C653 1.524 . S
C654 C655 1.415 . S
C655 H625 0.950 . S
C655 C650 1.363 . S
C655 C654 1.415 . S
H656 C653 0.999 . S
H657 C638 0.913 . S
H658 C676 0.951 . S
H659 C678 0.951 . S
H660 C680 0.950 . S
H661 C681 0.950 . S
H662 C683 0.950 . S
H663 C686 0.950 . S
H664 C687 0.950 . S
H665 C689 0.950 . S
H666 C690 0.950 . S
H667 C691 0.951 . S
H668 C693 0.951 . S
H669 C695 0.950 . S
H670 C696 0.950 . S
H671 C698 0.950 . S
H672 C701 0.950 . S
H673 C702 0.950 . S
H674 C704 0.950 . S
H675 C705 0.950 . S
C676 H658 0.951 . S
C676 C677 1.366 . S
C676 C678 1.388 . S
C677 C676 1.366 . S
C677 C681 1.385 . S
C678 H659 0.951 . S
C678 C676 1.388 . S
C678 C679 1.366 . S
C679 C678 1.366 . S
C679 C680 1.414 . S
C679 C682 1.499 . S
C680 H660 0.950 . S
C680 C679 1.414 . S
C680 C681 1.374 . S
C681 H661 0.950 . S
C681 C677 1.385 . S
C681 C680 1.374 . S
C682 C679 1.499 . S
C682 C683 1.373 . S
C682 C684 1.389 . S
C683 H662 0.950 . S
C683 C682 1.373 . S
C683 C699 1.377 . S
C684 C682 1.389 . S
C684 C685 1.524 . S
C684 C698 1.377 . S
C685 C684 1.524 . S
C685 C686 1.397 . S
C685 C690 1.363 . S
C686 H663 0.950 . S
C686 C685 1.397 . S
C686 C687 1.334 . S
C687 H664 0.950 . S
C687 C686 1.334 . S
C687 C688 1.287 . S
C688 C687 1.287 . S
C688 C689 1.524 . S
C688 H707 0.913 . S
C689 H665 0.950 . S
C689 C688 1.524 . S
C689 C690 1.415 . S
C690 H666 0.950 . S
C690 C685 1.363 . S
C690 C689 1.415 . S
C691 H667 0.951 . S
C691 C692 1.366 . S
C691 C693 1.388 . S
C692 C691 1.366 . S
C692 C696 1.385 . S
C693 H668 0.951 . S
C693 C691 1.388 . S
C693 C694 1.366 . S
C694 C693 1.366 . S
C694 C695 1.414 . S
C694 C697 1.499 . S
C695 H669 0.950 . S
C695 C694 1.414 . S
C695 C696 1.374 . S
C696 H670 0.950 . S
C696 C692 1.385 . S
C696 C695 1.374 . S
C697 C694 1.499 . S
C697 C698 1.373 . S
C697 C699 1.389 . S
C698 H671 0.950 . S
C698 C684 1.377 . S
C698 C697 1.373 . S
C699 C683 1.377 . S
C699 C697 1.389 . S
C699 C700 1.524 . S
C700 C699 1.524 . S
C700 C701 1.397 . S
C700 C705 1.363 . S
C701 H672 0.950 . S
C701 C700 1.397 . S
C701 C702 1.334 . S
C702 H673 0.950 . S
C702 C701 1.334 . S
C702 C703 1.287 . S
C703 C702 1.287 . S
C703 C704 1.524 . S
C703 H706 0.999 . S
C704 H674 0.950 . S
C704 C703 1.524 . S
C704 C705 1.415 . S
C705 H675 0.950 . S
C705 C700 1.363 . S
C705 C704 1.415 . S
H706 C703 0.999 . S
H707 C688 0.913 . S
H708 C726 0.951 . S
H709 C728 0.951 . S
H710 C730 0.950 . S
H711 C731 0.950 . S
H712 C733 0.950 . S
H713 C736 0.950 . S
H714 C737 0.950 . S
H715 C739 0.950 . S
H716 C740 0.950 . S
H717 C741 0.951 . S
H718 C743 0.951 . S
H719 C745 0.950 . S
H720 C746 0.950 . S
H721 C748 0.950 . S
H722 C751 0.950 . S
H723 C752 0.950 . S
H724 C754 0.950 . S
H725 C755 0.950 . S
C726 H708 0.951 . S
C726 C727 1.366 . S
C726 C728 1.388 . S
C727 C726 1.366 . S
C727 C731 1.385 . S
C728 H709 0.951 . S
C728 C726 1.388 . S
C728 C729 1.366 . S
C729 C728 1.366 . S
C729 C730 1.414 . S
C729 C732 1.499 . S
C730 H710 0.950 . S
C730 C729 1.414 . S
C730 C731 1.374 . S
C731 H711 0.950 . S
C731 C727 1.385 . S
C731 C730 1.374 . S
C732 C729 1.499 . S
C732 C733 1.373 . S
C732 C734 1.389 . S
C733 H712 0.950 . S
C733 C732 1.373 . S
C733 C749 1.377 . S
C734 C732 1.389 . S
C734 C735 1.524 . S
C734 C748 1.377 . S
C735 C734 1.524 . S
C735 C736 1.397 . S
C735 C740 1.363 . S
C736 H713 0.950 . S
C736 C735 1.397 . S
C736 C737 1.334 . S
C737 H714 0.950 . S
C737 C736 1.334 . S
C737 C738 1.287 . S
C738 C737 1.287 . S
C738 C739 1.524 . S
C738 H757 0.913 . S
C739 H715 0.950 . S
C739 C738 1.524 . S
C739 C740 1.415 . S
C740 H716 0.950 . S
C740 C735 1.363 . S
C740 C739 1.415 . S
C741 H717 0.951 . S
C741 C742 1.366 . S
C741 C743 1.388 . S
C742 C741 1.366 . S
C742 C746 1.385 . S
C743 H718 0.951 . S
C743 C741 1.388 . S
C743 C744 1.366 . S
C744 C743 1.366 . S
C744 C745 1.414 . S
C744 C747 1.499 . S
C745 H719 0.950 . S
C745 C744 1.414 . S
C745 C746 1.374 . S
C746 H720 0.950 . S
C746 C742 1.385 . S
C746 C745 1.374 . S
C747 C744 1.499 . S
C747 C748 1.373 . S
C747 C749 1.389 . S
C748 H721 0.950 . S
C748 C734 1.377 . S
C748 C747 1.373 . S
C749 C733 1.377 . S
C749 C747 1.389 . S
C749 C750 1.524 . S
C750 C749 1.524 . S
C750 C751 1.397 . S
C750 C755 1.363 . S
C751 H722 0.950 . S
C751 C750 1.397 . S
C751 C752 1.334 . S
C752 H723 0.950 . S
C752 C751 1.334 . S
C752 C753 1.287 . S
C753 C752 1.287 . S
C753 C754 1.524 . S
C753 H756 0.999 . S
C754 H724 0.950 . S
C754 C753 1.524 . S
C754 C755 1.415 . S
C755 H725 0.950 . S
C755 C750 1.363 . S
C755 C754 1.415 . S
H756 C753 0.999 . S
H757 C738 0.913 . S
H758 C776 0.951 . S
H759 C778 0.951 . S
H760 C780 0.950 . S
H761 C781 0.950 . S
H762 C783 0.950 . S
H763 C786 0.950 . S
H764 C787 0.950 . S
H765 C789 0.950 . S
H766 C790 0.950 . S
H767 C791 0.951 . S
H768 C793 0.951 . S
H769 C795 0.950 . S
H770 C796 0.950 . S
H771 C798 0.950 . S
H772 C801 0.950 . S
H773 C802 0.950 . S
H774 C804 0.950 . S
H775 C805 0.950 . S
C776 H758 0.951 . S
C776 C777 1.366 . S
C776 C778 1.388 . S
C777 C776 1.366 . S
C777 C781 1.385 . S
C778 H759 0.951 . S
C778 C776 1.388 . S
C778 C779 1.366 . S
C779 C778 1.366 . S
C779 C780 1.414 . S
C779 C782 1.499 . S
C780 H760 0.950 . S
C780 C779 1.414 . S
C780 C781 1.374 . S
C781 H761 0.950 . S
C781 C777 1.385 . S
C781 C780 1.374 . S
C782 C779 1.499 . S
C782 C783 1.373 . S
C782 C784 1.389 . S
C783 H762 0.950 . S
C783 C782 1.373 . S
C783 C799 1.377 . S
C784 C782 1.389 . S
C784 C785 1.524 . S
C784 C798 1.377 . S
C785 C784 1.524 . S
C785 C786 1.397 . S
C785 C790 1.363 . S
C786 H763 0.950 . S
C786 C785 1.397 . S
C786 C787 1.334 . S
C787 H764 0.950 . S
C787 C786 1.334 . S
C787 C788 1.287 . S
C788 C787 1.287 . S
C788 C789 1.524 . S
C788 H807 0.913 . S
C789 H765 0.950 . S
C789 C788 1.524 . S
C789 C790 1.415 . S
C790 H766 0.950 . S
C790 C785 1.363 . S
C790 C789 1.415 . S
C791 H767 0.951 . S
C791 C792 1.366 . S
C791 C793 1.388 . S
C792 C791 1.366 . S
C792 C796 1.385 . S
C793 H768 0.951 . S
C793 C791 1.388 . S
C793 C794 1.366 . S
C794 C793 1.366 . S
C794 C795 1.414 . S
C794 C797 1.499 . S
C795 H769 0.950 . S
C795 C794 1.414 . S
C795 C796 1.374 . S
C796 H770 0.950 . S
C796 C792 1.385 . S
C796 C795 1.374 . S
C797 C794 1.499 . S
C797 C798 1.373 . S
C797 C799 1.389 . S
C798 H771 0.950 . S
C798 C784 1.377 . S
C798 C797 1.373 . S
C799 C783 1.377 . S
C799 C797 1.389 . S
C799 C800 1.524 . S
C800 C799 1.524 . S
C800 C801 1.397 . S
C800 C805 1.363 . S
C801 H772 0.950 . S
C801 C800 1.397 . S
C801 C802 1.334 . S
C802 H773 0.950 . S
C802 C801 1.334 . S
C802 C803 1.287 . S
C803 C802 1.287 . S
C803 C804 1.524 . S
C803 H806 0.999 . S
C804 H774 0.950 . S
C804 C803 1.524 . S
C804 C805 1.415 . S
C805 H775 0.950 . S
C805 C800 1.363 . S
C805 C804 1.415 . S
H806 C803 0.999 . S
H807 C788 0.913 . S
H808 C826 0.951 . S
H809 C828 0.951 . S
H810 C830 0.950 . S
H811 C831 0.950 . S
H812 C833 0.950 . S
H813 C836 0.950 . S
H814 C837 0.950 . S
H815 C839 0.950 . S
H816 C840 0.950 . S
H817 C841 0.951 . S
H818 C843 0.951 . S
H819 C845 0.950 . S
H820 C846 0.950 . S
H821 C848 0.950 . S
H822 C851 0.950 . S
H823 C852 0.950 . S
H824 C854 0.950 . S
H825 C855 0.950 . S
C826 H808 0.951 . S
C826 C827 1.366 . S
C826 C828 1.388 . S
C827 C826 1.366 . S
C827 C831 1.385 . S
C828 H809 0.951 . S
C828 C826 1.388 . S
C828 C829 1.366 . S
C829 C828 1.366 . S
C829 C830 1.414 . S
C829 C832 1.499 . S
C830 H810 0.950 . S
C830 C829 1.414 . S
C830 C831 1.374 . S
C831 H811 0.950 . S
C831 C827 1.385 . S
C831 C830 1.374 . S
C832 C829 1.499 . S
C832 C833 1.373 . S
C832 C834 1.389 . S
C833 H812 0.950 . S
C833 C832 1.373 . S
C833 C849 1.377 . S
C834 C832 1.389 . S
C834 C835 1.524 . S
C834 C848 1.377 1_554 S
C835 C834 1.524 . S
C835 C836 1.397 . S
C835 C840 1.363 1_554 S
C836 H813 0.950 . S
C836 C835 1.397 . S
C836 C837 1.334 . S
C837 H814 0.950 . S
C837 C836 1.334 . S
C837 C838 1.287 . S
C838 C837 1.287 . S
C838 C839 1.524 1_554 S
C838 H857 0.913 . S
C839 H815 0.950 . S
C839 C838 1.524 1_556 S
C839 C840 1.415 . S
C840 H816 0.950 . S
C840 C835 1.363 1_556 S
C840 C839 1.415 . S
C841 H817 0.951 . S
C841 C842 1.366 . S
C841 C843 1.388 . S
C842 C841 1.366 . S
C842 C846 1.385 . S
C843 H818 0.951 . S
C843 C841 1.388 . S
C843 C844 1.366 . S
C844 C843 1.366 . S
C844 C845 1.414 . S
C844 C847 1.499 . S
C845 H819 0.950 . S
C845 C844 1.414 . S
C845 C846 1.374 . S
C846 H820 0.950 . S
C846 C842 1.385 . S
C846 C845 1.374 . S
C847 C844 1.499 . S
C847 C848 1.373 . S
C847 C849 1.389 1_556 S
C848 H821 0.950 . S
C848 C834 1.377 1_556 S
C848 C847 1.373 . S
C849 C833 1.377 . S
C849 C847 1.389 1_554 S
C849 C850 1.524 . S
C850 C849 1.524 . S
C850 C851 1.397 1_554 S
C850 C855 1.363 . S
C851 H822 0.950 . S
C851 C850 1.397 1_556 S
C851 C852 1.334 . S
C852 H823 0.950 . S
C852 C851 1.334 . S
C852 C853 1.287 1_556 S
C853 C852 1.287 1_554 S
C853 C854 1.524 . S
C853 H856 0.999 . S
C854 H824 0.950 . S
C854 C853 1.524 . S
C854 C855 1.415 . S
C855 H825 0.950 . S
C855 C850 1.363 . S
C855 C854 1.415 . S
H856 C853 0.999 . S
H857 C838 0.913 . S
H858 C876 0.951 . S
H859 C878 0.951 . S
H860 C880 0.950 . S
H861 C881 0.950 . S
H862 C883 0.950 . S
H863 C886 0.950 . S
H864 C887 0.950 . S
H865 C889 0.950 . S
H866 C890 0.950 . S
H867 C891 0.951 . S
H868 C893 0.951 . S
H869 C895 0.950 . S
H870 C896 0.950 . S
H871 C898 0.950 . S
H872 C901 0.950 . S
H873 C902 0.950 . S
H874 C904 0.950 . S
H875 C905 0.950 . S
C876 H858 0.951 . S
C876 C877 1.366 . S
C876 C878 1.388 . S
C877 C876 1.366 . S
C877 C881 1.385 . S
C878 H859 0.951 . S
C878 C876 1.388 . S
C878 C879 1.366 . S
C879 C878 1.366 . S
C879 C880 1.414 . S
C879 C882 1.499 . S
C880 H860 0.950 . S
C880 C879 1.414 . S
C880 C881 1.374 . S
C881 H861 0.950 . S
C881 C877 1.385 . S
C881 C880 1.374 . S
C882 C879 1.499 . S
C882 C883 1.373 1_455 S
C882 C884 1.389 . S
C883 H862 0.950 . S
C883 C882 1.373 1_655 S
C883 C899 1.377 . S
C884 C882 1.389 . S
C884 C885 1.524 . S
C884 C898 1.377 . S
C885 C884 1.524 . S
C885 C886 1.397 . S
C885 C890 1.363 . S
C886 H863 0.950 . S
C886 C885 1.397 . S
C886 C887 1.334 . S
C887 H864 0.950 . S
C887 C886 1.334 . S
C887 C888 1.287 . S
C888 C887 1.287 . S
C888 C889 1.524 . S
C888 H907 0.913 . S
C889 H865 0.950 . S
C889 C888 1.524 . S
C889 C890 1.415 . S
C890 H866 0.950 . S
C890 C885 1.363 . S
C890 C889 1.415 . S
C891 H867 0.951 . S
C891 C892 1.366 . S
C891 C893 1.388 . S
C892 C891 1.366 . S
C892 C896 1.385 . S
C893 H868 0.951 . S
C893 C891 1.388 . S
C893 C894 1.366 . S
C894 C893 1.366 . S
C894 C895 1.414 . S
C894 C897 1.499 . S
C895 H869 0.950 . S
C895 C894 1.414 . S
C895 C896 1.374 . S
C896 H870 0.950 . S
C896 C892 1.385 . S
C896 C895 1.374 . S
C897 C894 1.499 . S
C897 C898 1.373 1_655 S
C897 C899 1.389 . S
C898 H871 0.950 . S
C898 C884 1.377 . S
C898 C897 1.373 1_455 S
C899 C883 1.377 . S
C899 C897 1.389 . S
C899 C900 1.524 . S
C900 C899 1.524 . S
C900 C901 1.397 . S
C900 C905 1.363 . S
C901 H872 0.950 . S
C901 C900 1.397 . S
C901 C902 1.334 . S
C902 H873 0.950 . S
C902 C901 1.334 . S
C902 C903 1.287 . S
C903 C902 1.287 . S
C903 C904 1.524 . S
C903 H906 0.999 . S
C904 H874 0.950 . S
C904 C903 1.524 . S
C904 C905 1.415 . S
C905 H875 0.950 . S
C905 C900 1.363 . S
C905 C904 1.415 . S
H906 C903 0.999 . S
H907 C888 0.913 . S
H908 C926 0.951 . S
H909 C928 0.951 . S
H910 C930 0.950 . S
H911 C931 0.950 . S
H912 C933 0.950 . S
H913 C936 0.950 . S
H914 C937 0.950 . S
H915 C939 0.950 . S
H916 C940 0.950 . S
H917 C941 0.951 . S
H918 C943 0.951 . S
H919 C945 0.950 . S
H920 C946 0.950 . S
H921 C948 0.950 . S
H922 C951 0.950 . S
H923 C952 0.950 . S
H924 C954 0.950 . S
H925 C955 0.950 . S
C926 H908 0.951 . S
C926 C927 1.366 . S
C926 C928 1.388 . S
C927 C926 1.366 . S
C927 C931 1.385 . S
C928 H909 0.951 . S
C928 C926 1.388 . S
C928 C929 1.366 . S
C929 C928 1.366 . S
C929 C930 1.414 . S
C929 C932 1.499 . S
C930 H910 0.950 . S
C930 C929 1.414 . S
C930 C931 1.374 . S
C931 H911 0.950 . S
C931 C927 1.385 . S
C931 C930 1.374 . S
C932 C929 1.499 . S
C932 C933 1.373 1_455 S
C932 C934 1.389 . S
C933 H912 0.950 . S
C933 C932 1.373 1_655 S
C933 C949 1.377 . S
C934 C932 1.389 . S
C934 C935 1.524 . S
C934 C948 1.377 1_554 S
C935 C934 1.524 . S
C935 C936 1.397 . S
C935 C940 1.363 1_554 S
C936 H913 0.950 . S
C936 C935 1.397 . S
C936 C937 1.334 . S
C937 H914 0.950 . S
C937 C936 1.334 . S
C937 C938 1.287 . S
C938 C937 1.287 . S
C938 C939 1.524 1_554 S
C938 H957 0.913 . S
C939 H915 0.950 . S
C939 C938 1.524 1_556 S
C939 C940 1.415 . S
C940 H916 0.950 . S
C940 C935 1.363 1_556 S
C940 C939 1.415 . S
C941 H917 0.951 . S
C941 C942 1.366 . S
C941 C943 1.388 . S
C942 C941 1.366 . S
C942 C946 1.385 . S
C943 H918 0.951 . S
C943 C941 1.388 . S
C943 C944 1.366 . S
C944 C943 1.366 . S
C944 C945 1.414 . S
C944 C947 1.499 . S
C945 H919 0.950 . S
C945 C944 1.414 . S
C945 C946 1.374 . S
C946 H920 0.950 . S
C946 C942 1.385 . S
C946 C945 1.374 . S
C947 C944 1.499 . S
C947 C948 1.373 1_655 S
C947 C949 1.389 1_556 S
C948 H921 0.950 . S
C948 C934 1.377 1_556 S
C948 C947 1.373 1_455 S
C949 C933 1.377 . S
C949 C947 1.389 1_554 S
C949 C950 1.524 . S
C950 C949 1.524 . S
C950 C951 1.397 1_554 S
C950 C955 1.363 . S
C951 H922 0.950 . S
C951 C950 1.397 1_556 S
C951 C952 1.334 . S
C952 H923 0.950 . S
C952 C951 1.334 . S
C952 C953 1.287 1_556 S
C953 C952 1.287 1_554 S
C953 C954 1.524 . S
C953 H956 0.999 . S
C954 H924 0.950 . S
C954 C953 1.524 . S
C954 C955 1.415 . S
C955 H925 0.950 . S
C955 C950 1.363 . S
C955 C954 1.415 . S
H956 C953 0.999 . S
H957 C938 0.913 . S
H958 C976 0.951 . S
H959 C978 0.951 . S
H960 C980 0.950 . S
H961 C981 0.950 . S
H962 C983 0.950 . S
H963 C986 0.950 . S
H964 C987 0.950 . S
H965 C989 0.950 . S
H966 C990 0.950 . S
H967 C991 0.951 . S
H968 C993 0.951 . S
H969 C995 0.950 . S
H970 C996 0.950 . S
H971 C998 0.950 . S
H972 C1001 0.950 . S
H973 C1002 0.950 . S
H974 C1004 0.950 . S
H975 C1005 0.950 . S
C976 H958 0.951 . S
C976 C977 1.366 . S
C976 C978 1.388 . S
C977 C976 1.366 . S
C977 C981 1.385 . S
C978 H959 0.951 . S
C978 C976 1.388 . S
C978 C979 1.366 . S
C979 C978 1.366 . S
C979 C980 1.414 . S
C979 C982 1.499 . S
C980 H960 0.950 . S
C980 C979 1.414 . S
C980 C981 1.374 . S
C981 H961 0.950 . S
C981 C977 1.385 . S
C981 C980 1.374 . S
C982 C979 1.499 . S
C982 C983 1.373 . S
C982 C984 1.389 . S
C983 H962 0.950 . S
C983 C982 1.373 . S
C983 C999 1.377 . S
C984 C982 1.389 . S
C984 C985 1.524 . S
C984 C998 1.377 . S
C985 C984 1.524 . S
C985 C986 1.397 . S
C985 C990 1.363 . S
C986 H963 0.950 . S
C986 C985 1.397 . S
C986 C987 1.334 . S
C987 H964 0.950 . S
C987 C986 1.334 . S
C987 C988 1.287 . S
C988 C987 1.287 . S
C988 C989 1.524 . S
C988 H1007 0.913 . S
C989 H965 0.950 . S
C989 C988 1.524 . S
C989 C990 1.415 . S
C990 H966 0.950 . S
C990 C985 1.363 . S
C990 C989 1.415 . S
C991 H967 0.951 . S
C991 C992 1.366 . S
C991 C993 1.388 . S
C992 C991 1.366 . S
C992 C996 1.385 . S
C993 H968 0.951 . S
C993 C991 1.388 . S
C993 C994 1.366 . S
C994 C993 1.366 . S
C994 C995 1.414 . S
C994 C997 1.499 . S
C995 H969 0.950 . S
C995 C994 1.414 . S
C995 C996 1.374 . S
C996 H970 0.950 . S
C996 C992 1.385 . S
C996 C995 1.374 . S
C997 C994 1.499 . S
C997 C998 1.373 . S
C997 C999 1.389 . S
C998 H971 0.950 . S
C998 C984 1.377 . S
C998 C997 1.373 . S
C999 C983 1.377 . S
C999 C997 1.389 . S
C999 C1000 1.524 . S
C1000 C999 1.524 . S
C1000 C1001 1.397 . S
C1000 C1005 1.363 . S
C1001 H972 0.950 . S
C1001 C1000 1.397 . S
C1001 C1002 1.334 . S
C1002 H973 0.950 . S
C1002 C1001 1.334 . S
C1002 C1003 1.287 . S
C1003 C1002 1.287 . S
C1003 C1004 1.524 . S
C1003 H1006 0.999 . S
C1004 H974 0.950 . S
C1004 C1003 1.524 . S
C1004 C1005 1.415 . S
C1005 H975 0.950 . S
C1005 C1000 1.363 . S
C1005 C1004 1.415 . S
H1006 C1003 0.999 . S
H1007 C988 0.913 . S
H1008 C1026 0.951 . S
H1009 C1028 0.951 . S
H1010 C1030 0.950 . S
H1011 C1031 0.950 . S
H1012 C1033 0.950 . S
H1013 C1036 0.950 . S
H1014 C1037 0.950 . S
H1015 C1039 0.950 . S
H1016 C1040 0.950 . S
H1017 C1041 0.951 . S
H1018 C1043 0.951 . S
H1019 C1045 0.950 . S
H1020 C1046 0.950 . S
H1021 C1048 0.950 . S
H1022 C1051 0.950 . S
H1023 C1052 0.950 . S
H1024 C1054 0.950 . S
H1025 C1055 0.950 . S
C1026 H1008 0.951 . S
C1026 C1027 1.366 . S
C1026 C1028 1.388 . S
C1027 C1026 1.366 . S
C1027 C1031 1.385 . S
C1028 H1009 0.951 . S
C1028 C1026 1.388 . S
C1028 C1029 1.366 . S
C1029 C1028 1.366 . S
C1029 C1030 1.414 . S
C1029 C1032 1.499 . S
C1030 H1010 0.950 . S
C1030 C1029 1.414 . S
C1030 C1031 1.374 . S
C1031 H1011 0.950 . S
C1031 C1027 1.385 . S
C1031 C1030 1.374 . S
C1032 C1029 1.499 . S
C1032 C1033 1.373 . S
C1032 C1034 1.389 . S
C1033 H1012 0.950 . S
C1033 C1032 1.373 . S
C1033 C1049 1.377 . S
C1034 C1032 1.389 . S
C1034 C1035 1.524 . S
C1034 C1048 1.377 . S
C1035 C1034 1.524 . S
C1035 C1036 1.397 . S
C1035 C1040 1.363 . S
C1036 H1013 0.950 . S
C1036 C1035 1.397 . S
C1036 C1037 1.334 . S
C1037 H1014 0.950 . S
C1037 C1036 1.334 . S
C1037 C1038 1.287 . S
C1038 C1037 1.287 . S
C1038 C1039 1.524 . S
C1038 H1057 0.913 . S
C1039 H1015 0.950 . S
C1039 C1038 1.524 . S
C1039 C1040 1.415 . S
C1040 H1016 0.950 . S
C1040 C1035 1.363 . S
C1040 C1039 1.415 . S
C1041 H1017 0.951 . S
C1041 C1042 1.366 . S
C1041 C1043 1.388 . S
C1042 C1041 1.366 . S
C1042 C1046 1.385 . S
C1043 H1018 0.951 . S
C1043 C1041 1.388 . S
C1043 C1044 1.366 . S
C1044 C1043 1.366 . S
C1044 C1045 1.414 . S
C1044 C1047 1.499 . S
C1045 H1019 0.950 . S
C1045 C1044 1.414 . S
C1045 C1046 1.374 . S
C1046 H1020 0.950 . S
C1046 C1042 1.385 . S
C1046 C1045 1.374 . S
C1047 C1044 1.499 . S
C1047 C1048 1.373 . S
C1047 C1049 1.389 . S
C1048 H1021 0.950 . S
C1048 C1034 1.377 . S
C1048 C1047 1.373 . S
C1049 C1033 1.377 . S
C1049 C1047 1.389 . S
C1049 C1050 1.524 . S
C1050 C1049 1.524 . S
C1050 C1051 1.397 . S
C1050 C1055 1.363 . S
C1051 H1022 0.950 . S
C1051 C1050 1.397 . S
C1051 C1052 1.334 1_554 S
C1052 H1023 0.950 . S
C1052 C1051 1.334 1_556 S
C1052 C1053 1.287 . S
C1053 C1052 1.287 . S
C1053 C1054 1.524 1_556 S
C1053 H1056 0.999 . S
C1054 H1024 0.950 . S
C1054 C1053 1.524 1_554 S
C1054 C1055 1.415 . S
C1055 H1025 0.950 . S
C1055 C1050 1.363 . S
C1055 C1054 1.415 . S
H1056 C1053 0.999 . S
H1057 C1038 0.913 . S
H1058 C1076 0.951 . S
H1059 C1078 0.951 . S
H1060 C1080 0.950 . S
H1061 C1081 0.950 . S
H1062 C1083 0.950 . S
H1063 C1086 0.950 . S
H1064 C1087 0.950 . S
H1065 C1089 0.950 . S
H1066 C1090 0.950 . S
H1067 C1091 0.951 . S
H1068 C1093 0.951 . S
H1069 C1095 0.950 . S
H1070 C1096 0.950 . S
H1071 C1098 0.950 . S
H1072 C1101 0.950 . S
H1073 C1102 0.950 . S
H1074 C1104 0.950 . S
H1075 C1105 0.950 . S
C1076 H1058 0.951 . S
C1076 C1077 1.366 . S
C1076 C1078 1.388 . S
C1077 C1076 1.366 . S
C1077 C1081 1.385 . S
C1078 H1059 0.951 . S
C1078 C1076 1.388 . S
C1078 C1079 1.366 . S
C1079 C1078 1.366 . S
C1079 C1080 1.414 . S
C1079 C1082 1.499 . S
C1080 H1060 0.950 . S
C1080 C1079 1.414 . S
C1080 C1081 1.374 . S
C1081 H1061 0.950 . S
C1081 C1077 1.385 . S
C1081 C1080 1.374 . S
C1082 C1079 1.499 . S
C1082 C1083 1.373 . S
C1082 C1084 1.389 . S
C1083 H1062 0.950 . S
C1083 C1082 1.373 . S
C1083 C1099 1.377 . S
C1084 C1082 1.389 . S
C1084 C1085 1.524 . S
C1084 C1098 1.377 . S
C1085 C1084 1.524 . S
C1085 C1086 1.397 . S
C1085 C1090 1.363 . S
C1086 H1063 0.950 . S
C1086 C1085 1.397 . S
C1086 C1087 1.334 . S
C1087 H1064 0.950 . S
C1087 C1086 1.334 . S
C1087 C1088 1.287 . S
C1088 C1087 1.287 . S
C1088 C1089 1.524 . S
C1088 H1107 0.913 . S
C1089 H1065 0.950 . S
C1089 C1088 1.524 . S
C1089 C1090 1.415 . S
C1090 H1066 0.950 . S
C1090 C1085 1.363 . S
C1090 C1089 1.415 . S
C1091 H1067 0.951 . S
C1091 C1092 1.366 . S
C1091 C1093 1.388 . S
C1092 C1091 1.366 . S
C1092 C1096 1.385 . S
C1093 H1068 0.951 . S
C1093 C1091 1.388 . S
C1093 C1094 1.366 . S
C1094 C1093 1.366 . S
C1094 C1095 1.414 . S
C1094 C1097 1.499 . S
C1095 H1069 0.950 . S
C1095 C1094 1.414 . S
C1095 C1096 1.374 . S
C1096 H1070 0.950 . S
C1096 C1092 1.385 . S
C1096 C1095 1.374 . S
C1097 C1094 1.499 . S
C1097 C1098 1.373 . S
C1097 C1099 1.389 . S
C1098 H1071 0.950 . S
C1098 C1084 1.377 . S
C1098 C1097 1.373 . S
C1099 C1083 1.377 . S
C1099 C1097 1.389 . S
C1099 C1100 1.524 . S
C1100 C1099 1.524 . S
C1100 C1101 1.397 . S
C1100 C1105 1.363 . S
C1101 H1072 0.950 . S
C1101 C1100 1.397 . S
C1101 C1102 1.334 . S
C1102 H1073 0.950 . S
C1102 C1101 1.334 . S
C1102 C1103 1.287 . S
C1103 C1102 1.287 . S
C1103 C1104 1.524 . S
C1103 H1106 0.999 . S
C1104 H1074 0.950 . S
C1104 C1103 1.524 . S
C1104 C1105 1.415 . S
C1105 H1075 0.950 . S
C1105 C1100 1.363 . S
C1105 C1104 1.415 . S
H1106 C1103 0.999 . S
H1107 C1088 0.913 . S
H1108 C1126 0.951 . S
H1109 C1128 0.951 . S
H1110 C1130 0.950 . S
H1111 C1131 0.950 . S
H1112 C1133 0.950 . S
H1113 C1136 0.950 . S
H1114 C1137 0.950 . S
H1115 C1139 0.950 . S
H1116 C1140 0.950 . S
H1117 C1141 0.951 . S
H1118 C1143 0.951 . S
H1119 C1145 0.950 . S
H1120 C1146 0.950 . S
H1121 C1148 0.950 . S
H1122 C1151 0.950 . S
H1123 C1152 0.950 . S
H1124 C1154 0.950 . S
H1125 C1155 0.950 . S
C1126 H1108 0.951 . S
C1126 C1127 1.366 . S
C1126 C1128 1.388 . S
C1127 C1126 1.366 . S
C1127 C1131 1.385 . S
C1128 H1109 0.951 . S
C1128 C1126 1.388 . S
C1128 C1129 1.366 . S
C1129 C1128 1.366 . S
C1129 C1130 1.414 . S
C1129 C1132 1.499 . S
C1130 H1110 0.950 . S
C1130 C1129 1.414 . S
C1130 C1131 1.374 . S
C1131 H1111 0.950 . S
C1131 C1127 1.385 . S
C1131 C1130 1.374 . S
C1132 C1129 1.499 . S
C1132 C1133 1.373 . S
C1132 C1134 1.389 . S
C1133 H1112 0.950 . S
C1133 C1132 1.373 . S
C1133 C1149 1.377 . S
C1134 C1132 1.389 . S
C1134 C1135 1.524 . S
C1134 C1148 1.377 . S
C1135 C1134 1.524 . S
C1135 C1136 1.397 . S
C1135 C1140 1.363 . S
C1136 H1113 0.950 . S
C1136 C1135 1.397 . S
C1136 C1137 1.334 . S
C1137 H1114 0.950 . S
C1137 C1136 1.334 . S
C1137 C1138 1.287 . S
C1138 C1137 1.287 . S
C1138 C1139 1.524 . S
C1138 H1157 0.913 . S
C1139 H1115 0.950 . S
C1139 C1138 1.524 . S
C1139 C1140 1.415 . S
C1140 H1116 0.950 . S
C1140 C1135 1.363 . S
C1140 C1139 1.415 . S
C1141 H1117 0.951 . S
C1141 C1142 1.366 . S
C1141 C1143 1.388 . S
C1142 C1141 1.366 . S
C1142 C1146 1.385 . S
C1143 H1118 0.951 . S
C1143 C1141 1.388 . S
C1143 C1144 1.366 . S
C1144 C1143 1.366 . S
C1144 C1145 1.414 . S
C1144 C1147 1.499 . S
C1145 H1119 0.950 . S
C1145 C1144 1.414 . S
C1145 C1146 1.374 . S
C1146 H1120 0.950 . S
C1146 C1142 1.385 . S
C1146 C1145 1.374 . S
C1147 C1144 1.499 . S
C1147 C1148 1.373 . S
C1147 C1149 1.389 . S
C1148 H1121 0.950 . S
C1148 C1134 1.377 . S
C1148 C1147 1.373 . S
C1149 C1133 1.377 . S
C1149 C1147 1.389 . S
C1149 C1150 1.524 . S
C1150 C1149 1.524 . S
C1150 C1151 1.397 . S
C1150 C1155 1.363 . S
C1151 H1122 0.950 . S
C1151 C1150 1.397 . S
C1151 C1152 1.334 . S
C1152 H1123 0.950 . S
C1152 C1151 1.334 . S
C1152 C1153 1.287 . S
C1153 C1152 1.287 . S
C1153 C1154 1.524 . S
C1153 H1156 0.999 . S
C1154 H1124 0.950 . S
C1154 C1153 1.524 . S
C1154 C1155 1.415 . S
C1155 H1125 0.950 . S
C1155 C1150 1.363 . S
C1155 C1154 1.415 . S
H1156 C1153 0.999 . S
H1157 C1138 0.913 . S
H1158 C1176 0.951 . S
H1159 C1178 0.951 . S
H1160 C1180 0.954 . S
H1161 C1181 0.950 . S
H1162 C1183 0.950 . S
H1163 C1186 0.950 . S
H1164 C1187 0.950 . S
H1165 C1189 0.950 . S
H1166 C1190 0.950 . S
H1167 C1191 0.951 . S
H1168 C1193 0.951 . S
H1169 C1195 0.950 . S
H1170 C1196 0.950 . S
H1171 C1198 0.950 . S
H1172 C1201 0.950 . S
H1173 C1202 0.950 . S
H1174 C1204 0.950 . S
H1175 C1205 0.950 1_554 S
C1176 H1158 0.951 . S
C1176 C1177 1.366 . S
C1176 C1178 1.388 . S
C1177 C1176 1.366 . S
C1177 C1181 1.385 1_556 S
C1178 H1159 0.951 . S
C1178 C1176 1.388 . S
C1178 C1179 1.366 . S
C1179 C1178 1.366 . S
C1179 C1180 1.414 . S
C1179 C1182 1.499 . S
C1180 H1160 0.954 . S
C1180 C1179 1.414 . S
C1180 C1181 1.374 1_556 S
C1181 H1161 0.950 . S
C1181 C1177 1.385 1_554 S
C1181 C1180 1.374 1_554 S
C1182 C1179 1.499 . S
C1182 C1183 1.373 . S
C1182 C1184 1.389 . S
C1183 H1162 0.950 . S
C1183 C1182 1.373 . S
C1183 C1199 1.377 . S
C1184 C1182 1.389 . S
C1184 C1185 1.524 . S
C1184 C1198 1.377 . S
C1185 C1184 1.524 . S
C1185 C1186 1.397 . S
C1185 C1190 1.363 . S
C1186 H1163 0.950 . S
C1186 C1185 1.397 . S
C1186 C1187 1.334 . S
C1187 H1164 0.950 . S
C1187 C1186 1.334 . S
C1187 C1188 1.287 . S
C1188 C1187 1.287 . S
C1188 C1189 1.524 . S
C1188 H1207 0.913 . S
C1189 H1165 0.950 . S
C1189 C1188 1.524 . S
C1189 C1190 1.415 . S
C1190 H1166 0.950 . S
C1190 C1185 1.363 . S
C1190 C1189 1.415 . S
C1191 H1167 0.951 . S
C1191 C1192 1.366 . S
C1191 C1193 1.388 . S
C1192 C1191 1.366 . S
C1192 C1196 1.385 . S
C1193 H1168 0.951 . S
C1193 C1191 1.388 . S
C1193 C1194 1.366 . S
C1194 C1193 1.366 . S
C1194 C1195 1.414 . S
C1194 C1197 1.499 . S
C1195 H1169 0.950 . S
C1195 C1194 1.414 . S
C1195 C1196 1.374 . S
C1196 H1170 0.950 . S
C1196 C1192 1.385 . S
C1196 C1195 1.374 . S
C1197 C1194 1.499 . S
C1197 C1198 1.373 . S
C1197 C1199 1.389 . S
C1198 H1171 0.950 . S
C1198 C1184 1.377 . S
C1198 C1197 1.373 . S
C1199 C1183 1.377 . S
C1199 C1197 1.389 . S
C1199 C1200 1.524 . S
C1200 C1199 1.524 . S
C1200 C1201 1.397 . S
C1200 C1205 1.363 . S
C1201 H1172 0.950 . S
C1201 C1200 1.397 . S
C1201 C1202 1.334 . S
C1202 H1173 0.950 . S
C1202 C1201 1.334 . S
C1202 C1203 1.287 . S
C1203 C1202 1.287 . S
C1203 C1204 1.524 1_556 S
C1203 H1206 0.999 1_556 S
C1204 H1174 0.950 . S
C1204 C1203 1.524 1_554 S
C1204 C1205 1.415 1_554 S
C1205 H1175 0.950 1_556 S
C1205 C1200 1.363 . S
C1205 C1204 1.415 1_556 S
H1206 C1203 0.999 1_554 S
H1207 C1188 0.913 . S
H1208 C1226 0.951 . S
H1209 C1228 0.951 . S
H1210 C1230 0.950 . S
H1211 C1231 0.950 . S
H1212 C1233 0.950 . S
H1213 C1236 0.950 . S
H1214 C1237 0.950 . S
H1215 C1239 0.950 . S
H1216 C1240 0.950 . S
H1217 C1241 0.951 . S
H1218 C1243 0.951 . S
H1219 C1245 0.950 . S
H1220 C1246 0.950 . S
H1221 C1248 0.950 . S
H1222 C1251 0.950 . S
H1223 C1252 0.950 . S
H1224 C1254 0.950 . S
H1225 C1255 0.950 . S
C1226 H1208 0.951 . S
C1226 C1227 1.366 . S
C1226 C1228 1.388 . S
C1227 C1226 1.366 . S
C1227 C1231 1.385 . S
C1228 H1209 0.951 . S
C1228 C1226 1.388 . S
C1228 C1229 1.366 . S
C1229 C1228 1.366 . S
C1229 C1230 1.414 . S
C1229 C1232 1.499 . S
C1230 H1210 0.950 . S
C1230 C1229 1.414 . S
C1230 C1231 1.374 . S
C1231 H1211 0.950 . S
C1231 C1227 1.385 . S
C1231 C1230 1.374 . S
C1232 C1229 1.499 . S
C1232 C1233 1.373 . S
C1232 C1234 1.389 . S
C1233 H1212 0.950 . S
C1233 C1232 1.373 . S
C1233 C1249 1.377 . S
C1234 C1232 1.389 . S
C1234 C1235 1.524 . S
C1234 C1248 1.377 . S
C1235 C1234 1.524 . S
C1235 C1236 1.397 . S
C1235 C1240 1.363 . S
C1236 H1213 0.950 . S
C1236 C1235 1.397 . S
C1236 C1237 1.334 . S
C1237 H1214 0.950 . S
C1237 C1236 1.334 . S
C1237 C1238 1.287 . S
C1238 C1237 1.287 . S
C1238 C1239 1.524 . S
C1238 H1257 0.913 . S
C1239 H1215 0.950 . S
C1239 C1238 1.524 . S
C1239 C1240 1.415 . S
C1240 H1216 0.950 . S
C1240 C1235 1.363 . S
C1240 C1239 1.415 . S
C1241 H1217 0.951 . S
C1241 C1242 1.366 . S
C1241 C1243 1.388 . S
C1242 C1241 1.366 . S
C1242 C1246 1.385 . S
C1243 H1218 0.951 . S
C1243 C1241 1.388 . S
C1243 C1244 1.366 . S
C1244 C1243 1.366 . S
C1244 C1245 1.414 . S
C1244 C1247 1.499 . S
C1245 H1219 0.950 . S
C1245 C1244 1.414 . S
C1245 C1246 1.374 . S
C1246 H1220 0.950 . S
C1246 C1242 1.385 . S
C1246 C1245 1.374 . S
C1247 C1244 1.499 . S
C1247 C1248 1.373 . S
C1247 C1249 1.389 . S
C1248 H1221 0.950 . S
C1248 C1234 1.377 . S
C1248 C1247 1.373 . S
C1249 C1233 1.377 . S
C1249 C1247 1.389 . S
C1249 C1250 1.524 . S
C1250 C1249 1.524 . S
C1250 C1251 1.397 . S
C1250 C1255 1.363 . S
C1251 H1222 0.950 . S
C1251 C1250 1.397 . S
C1251 C1252 1.334 . S
C1252 H1223 0.950 . S
C1252 C1251 1.334 . S
C1252 C1253 1.287 . S
C1253 C1252 1.287 . S
C1253 C1254 1.524 . S
C1253 H1256 0.999 . S
C1254 H1224 0.950 . S
C1254 C1253 1.524 . S
C1254 C1255 1.415 . S
C1255 H1225 0.950 . S
C1255 C1250 1.363 . S
C1255 C1254 1.415 . S
H1256 C1253 0.999 . S
H1257 C1238 0.913 . S
H1258 C1276 0.951 . S
H1259 C1278 0.951 . S
H1260 C1280 0.950 . S
H1261 C1281 0.950 . S
H1262 C1283 0.950 . S
H1263 C1286 0.950 . S
H1264 C1287 0.931 1_545 S
H1265 C1289 0.950 . S
H1266 C1290 0.950 . S
H1267 C1291 0.951 . S
H1268 C1293 0.951 . S
H1269 C1295 0.950 . S
H1270 C1296 0.950 . S
H1271 C1298 0.950 . S
H1272 C1301 0.950 . S
H1273 C1302 0.950 . S
H1274 C1304 0.950 . S
H1275 C1305 0.950 . S
C1276 H1258 0.951 . S
C1276 C1277 1.366 . S
C1276 C1278 1.388 . S
C1277 C1276 1.366 . S
C1277 C1281 1.385 . S
C1278 H1259 0.951 . S
C1278 C1276 1.388 . S
C1278 C1279 1.366 . S
C1279 C1278 1.366 . S
C1279 C1280 1.414 . S
C1279 C1282 1.499 . S
C1280 H1260 0.950 . S
C1280 C1279 1.414 . S
C1280 C1281 1.374 . S
C1281 H1261 0.950 . S
C1281 C1277 1.385 . S
C1281 C1280 1.374 . S
C1282 C1279 1.499 . S
C1282 C1283 1.373 . S
C1282 C1284 1.389 . S
C1283 H1262 0.950 . S
C1283 C1282 1.373 . S
C1283 C1299 1.377 . S
C1284 C1282 1.389 . S
C1284 C1285 1.524 . S
C1284 C1298 1.377 . S
C1285 C1284 1.524 . S
C1285 C1286 1.397 . S
C1285 C1290 1.363 . S
C1286 H1263 0.950 . S
C1286 C1285 1.397 . S
C1286 C1287 1.334 . S
C1287 H1264 0.931 1_565 S
C1287 C1286 1.334 . S
C1287 C1288 1.287 . S
C1288 C1287 1.287 . S
C1288 C1289 1.524 . S
C1288 H1307 0.913 1_565 S
C1289 H1265 0.950 . S
C1289 C1288 1.524 . S
C1289 C1290 1.415 . S
C1290 H1266 0.950 . S
C1290 C1285 1.363 . S
C1290 C1289 1.415 . S
C1291 H1267 0.951 . S
C1291 C1292 1.366 . S
C1291 C1293 1.388 . S
C1292 C1291 1.366 . S
C1292 C1296 1.385 . S
C1293 H1268 0.951 . S
C1293 C1291 1.388 . S
C1293 C1294 1.366 . S
C1294 C1293 1.366 . S
C1294 C1295 1.414 . S
C1294 C1297 1.499 . S
C1295 H1269 0.950 . S
C1295 C1294 1.414 . S
C1295 C1296 1.374 . S
C1296 H1270 0.950 . S
C1296 C1292 1.385 . S
C1296 C1295 1.374 . S
C1297 C1294 1.499 . S
C1297 C1298 1.373 . S
C1297 C1299 1.389 . S
C1298 H1271 0.950 . S
C1298 C1284 1.377 . S
C1298 C1297 1.373 . S
C1299 C1283 1.377 . S
C1299 C1297 1.389 . S
C1299 C1300 1.524 . S
C1300 C1299 1.524 . S
C1300 C1301 1.397 . S
C1300 C1305 1.363 . S
C1301 H1272 0.950 . S
C1301 C1300 1.397 . S
C1301 C1302 1.334 . S
C1302 H1273 0.950 . S
C1302 C1301 1.334 . S
C1302 C1303 1.287 . S
C1303 C1302 1.287 . S
C1303 C1304 1.524 . S
C1303 H1306 0.999 . S
C1304 H1274 0.950 . S
C1304 C1303 1.524 . S
C1304 C1305 1.415 . S
C1305 H1275 0.950 . S
C1305 C1300 1.363 . S
C1305 C1304 1.415 . S
H1306 C1303 0.999 . S
H1307 C1288 0.913 1_545 S
H1308 C1326 0.951 . S
H1309 C1328 0.951 . S
H1310 C1330 0.950 . S
H1311 C1331 0.950 . S
H1312 C1333 0.950 . S
H1313 C1336 0.950 . S
H1314 C1337 0.950 . S
H1315 C1339 0.950 . S
H1316 C1340 0.950 . S
H1317 C1341 0.951 1_554 S
H1318 C1343 0.951 . S
H1319 C1345 0.950 . S
H1320 C1346 0.950 . S
H1321 C1348 0.950 . S
H1322 C1351 0.950 . S
H1323 C1352 0.950 . S
H1324 C1354 0.950 . S
H1325 C1355 0.950 . S
C1326 H1308 0.951 . S
C1326 C1327 1.366 . S
C1326 C1328 1.388 . S
C1327 C1326 1.366 . S
C1327 C1331 1.385 . S
C1328 H1309 0.951 . S
C1328 C1326 1.388 . S
C1328 C1329 1.366 . S
C1329 C1328 1.366 . S
C1329 C1330 1.414 . S
C1329 C1332 1.499 . S
C1330 H1310 0.950 . S
C1330 C1329 1.414 . S
C1330 C1331 1.374 . S
C1331 H1311 0.950 . S
C1331 C1327 1.385 . S
C1331 C1330 1.374 . S
C1332 C1329 1.499 . S
C1332 C1333 1.373 . S
C1332 C1334 1.389 . S
C1333 H1312 0.950 . S
C1333 C1332 1.373 . S
C1333 C1349 1.377 . S
C1334 C1332 1.389 . S
C1334 C1335 1.524 . S
C1334 C1348 1.377 . S
C1335 C1334 1.524 . S
C1335 C1336 1.397 . S
C1335 C1340 1.363 . S
C1336 H1313 0.950 . S
C1336 C1335 1.397 . S
C1336 C1337 1.334 . S
C1337 H1314 0.950 . S
C1337 C1336 1.334 . S
C1337 C1338 1.287 . S
C1338 C1337 1.287 . S
C1338 C1339 1.524 . S
C1338 H1357 0.913 . S
C1339 H1315 0.950 . S
C1339 C1338 1.524 . S
C1339 C1340 1.415 . S
C1340 H1316 0.950 . S
C1340 C1335 1.363 . S
C1340 C1339 1.415 . S
C1341 H1317 0.951 1_556 S
C1341 C1342 1.366 . S
C1341 C1343 1.388 . S
C1342 C1341 1.366 . S
C1342 C1346 1.385 . S
C1343 H1318 0.951 . S
C1343 C1341 1.388 . S
C1343 C1344 1.366 . S
C1344 C1343 1.366 . S
C1344 C1345 1.414 . S
C1344 C1347 1.499 . S
C1345 H1319 0.950 . S
C1345 C1344 1.414 . S
C1345 C1346 1.374 . S
C1346 H1320 0.950 . S
C1346 C1342 1.385 . S
C1346 C1345 1.374 . S
C1347 C1344 1.499 . S
C1347 C1348 1.373 . S
C1347 C1349 1.389 . S
C1348 H1321 0.950 . S
C1348 C1334 1.377 . S
C1348 C1347 1.373 . S
C1349 C1333 1.377 . S
C1349 C1347 1.389 . S
C1349 C1350 1.524 . S
C1350 C1349 1.524 . S
C1350 C1351 1.397 . S
C1350 C1355 1.363 . S
C1351 H1322 0.950 . S
C1351 C1350 1.397 . S
C1351 C1352 1.334 . S
C1352 H1323 0.950 . S
C1352 C1351 1.334 . S
C1352 C1353 1.287 . S
C1353 C1352 1.287 . S
C1353 C1354 1.524 . S
C1353 H1356 0.999 . S
C1354 H1324 0.950 . S
C1354 C1353 1.524 . S
C1354 C1355 1.415 . S
C1355 H1325 0.950 . S
C1355 C1350 1.363 . S
C1355 C1354 1.415 . S
H1356 C1353 0.999 . S
H1357 C1338 0.913 . S
H1358 C1376 0.951 1_556 S
H1359 C1378 0.951 . S
H1360 C1380 0.950 . S
H1361 C1381 0.950 . S
H1362 C1383 0.950 . S
H1363 C1386 0.950 . S
H1364 C1387 0.950 . S
H1365 C1389 0.950 1_556 S
H1366 C1390 0.950 . S
H1367 C1391 0.951 . S
H1368 C1393 0.951 . S
H1369 C1395 0.950 . S
H1370 C1396 0.950 . S
H1371 C1398 0.950 . S
H1372 C1401 0.950 . S
H1373 C1402 0.950 . S
H1374 C1404 0.950 . S
H1375 C1405 0.950 . S
C1376 H1358 0.951 1_554 S
C1376 C1377 1.366 . S
C1376 C1378 1.388 . S
C1377 C1376 1.366 . S
C1377 C1381 1.385 . S
C1378 H1359 0.951 . S
C1378 C1376 1.388 . S
C1378 C1379 1.366 . S
C1379 C1378 1.366 . S
C1379 C1380 1.414 . S
C1379 C1382 1.499 . S
C1380 H1360 0.950 . S
C1380 C1379 1.414 . S
C1380 C1381 1.374 . S
C1381 H1361 0.950 . S
C1381 C1377 1.385 . S
C1381 C1380 1.374 . S
C1382 C1379 1.499 . S
C1382 C1383 1.373 . S
C1382 C1384 1.389 . S
C1383 H1362 0.950 . S
C1383 C1382 1.373 . S
C1383 C1399 1.377 . S
C1384 C1382 1.389 . S
C1384 C1385 1.524 . S
C1384 C1398 1.377 . S
C1385 C1384 1.524 . S
C1385 C1386 1.397 . S
C1385 C1390 1.363 . S
C1386 H1363 0.950 . S
C1386 C1385 1.397 . S
C1386 C1387 1.334 . S
C1387 H1364 0.950 . S
C1387 C1386 1.334 . S
C1387 C1388 1.287 . S
C1388 C1387 1.287 . S
C1388 C1389 1.524 . S
C1388 H1407 0.913 . S
C1389 H1365 0.950 1_554 S
C1389 C1388 1.524 . S
C1389 C1390 1.415 . S
C1390 H1366 0.950 . S
C1390 C1385 1.363 . S
C1390 C1389 1.415 . S
C1391 H1367 0.951 . S
C1391 C1392 1.366 . S
C1391 C1393 1.388 . S
C1392 C1391 1.366 . S
C1392 C1396 1.385 . S
C1393 H1368 0.951 . S
C1393 C1391 1.388 . S
C1393 C1394 1.366 . S
C1394 C1393 1.366 . S
C1394 C1395 1.414 . S
C1394 C1397 1.499 . S
C1395 H1369 0.950 . S
C1395 C1394 1.414 . S
C1395 C1396 1.374 . S
C1396 H1370 0.950 . S
C1396 C1392 1.385 . S
C1396 C1395 1.374 . S
C1397 C1394 1.499 . S
C1397 C1398 1.373 . S
C1397 C1399 1.389 . S
C1398 H1371 0.950 . S
C1398 C1384 1.377 . S
C1398 C1397 1.373 . S
C1399 C1383 1.377 . S
C1399 C1397 1.389 . S
C1399 C1400 1.524 . S
C1400 C1399 1.524 . S
C1400 C1401 1.397 . S
C1400 C1405 1.363 . S
C1401 H1372 0.950 . S
C1401 C1400 1.397 . S
C1401 C1402 1.334 . S
C1402 H1373 0.950 . S
C1402 C1401 1.334 . S
C1402 C1403 1.287 . S
C1403 C1402 1.287 . S
C1403 C1404 1.524 . S
C1403 H1406 0.999 . S
C1404 H1374 0.950 . S
C1404 C1403 1.524 . S
C1404 C1405 1.415 . S
C1405 H1375 0.950 . S
C1405 C1400 1.363 . S
C1405 C1404 1.415 . S
H1406 C1403 0.999 . S
H1407 C1388 0.913 . S
H1408 C1426 0.951 . S
H1409 C1428 0.951 . S
H1410 C1430 0.950 . S
H1411 C1431 0.950 1_554 S
H1412 C1433 0.950 . S
H1413 C1436 0.950 1_554 S
H1414 C1437 0.950 . S
H1415 C1439 0.950 . S
H1416 C1440 0.950 . S
H1417 C1441 0.951 . S
H1418 C1443 0.951 . S
H1419 C1445 0.950 . S
H1420 C1446 0.950 . S
H1421 C1448 0.950 . S
H1422 C1451 0.950 . S
H1423 C1452 0.950 . S
H1424 C1454 0.950 . S
H1425 C1455 0.950 . S
C1426 H1408 0.951 . S
C1426 C1427 1.366 . S
C1426 C1428 1.388 . S
C1427 C1426 1.366 . S
C1427 C1431 1.385 . S
C1428 H1409 0.951 . S
C1428 C1426 1.388 . S
C1428 C1429 1.366 . S
C1429 C1428 1.366 . S
C1429 C1430 1.414 . S
C1429 C1432 1.499 . S
C1430 H1410 0.950 . S
C1430 C1429 1.414 . S
C1430 C1431 1.374 . S
C1431 H1411 0.950 1_556 S
C1431 C1427 1.385 . S
C1431 C1430 1.374 . S
C1432 C1429 1.499 . S
C1432 C1433 1.373 . S
C1432 C1434 1.389 . S
C1433 H1412 0.950 . S
C1433 C1432 1.373 . S
C1433 C1449 1.377 . S
C1434 C1432 1.389 . S
C1434 C1435 1.524 . S
C1434 C1448 1.377 . S
C1435 C1434 1.524 . S
C1435 C1436 1.397 . S
C1435 C1440 1.363 . S
C1436 H1413 0.950 1_556 S
C1436 C1435 1.397 . S
C1436 C1437 1.334 1_556 S
C1437 H1414 0.950 . S
C1437 C1436 1.334 1_554 S
C1437 C1438 1.287 . S
C1438 C1437 1.287 . S
C1438 C1439 1.524 1_554 S
C1438 H1457 0.913 . S
C1439 H1415 0.950 . S
C1439 C1438 1.524 1_556 S
C1439 C1440 1.415 . S
C1440 H1416 0.950 . S
C1440 C1435 1.363 . S
C1440 C1439 1.415 . S
C1441 H1417 0.951 . S
C1441 C1442 1.366 . S
C1441 C1443 1.388 . S
C1442 C1441 1.366 . S
C1442 C1446 1.385 . S
C1443 H1418 0.951 . S
C1443 C1441 1.388 . S
C1443 C1444 1.366 . S
C1444 C1443 1.366 . S
C1444 C1445 1.414 . S
C1444 C1447 1.499 . S
C1445 H1419 0.950 . S
C1445 C1444 1.414 . S
C1445 C1446 1.374 . S
C1446 H1420 0.950 . S
C1446 C1442 1.385 . S
C1446 C1445 1.374 . S
C1447 C1444 1.499 . S
C1447 C1448 1.373 . S
C1447 C1449 1.389 . S
C1448 H1421 0.950 . S
C1448 C1434 1.377 . S
C1448 C1447 1.373 . S
C1449 C1433 1.377 . S
C1449 C1447 1.389 . S
C1449 C1450 1.524 . S
C1450 C1449 1.524 . S
C1450 C1451 1.397 . S
C1450 C1455 1.363 . S
C1451 H1422 0.950 . S
C1451 C1450 1.397 . S
C1451 C1452 1.334 . S
C1452 H1423 0.950 . S
C1452 C1451 1.334 . S
C1452 C1453 1.287 . S
C1453 C1452 1.287 . S
C1453 C1454 1.524 . S
C1453 H1456 0.999 . S
C1454 H1424 0.950 . S
C1454 C1453 1.524 . S
C1454 C1455 1.415 . S
C1455 H1425 0.950 . S
C1455 C1450 1.363 . S
C1455 C1454 1.415 . S
H1456 C1453 0.999 . S
H1457 C1438 0.913 . S
H1458 C1476 0.951 . S
H1459 C1478 0.951 . S
H1460 C1480 0.950 . S
H1461 C1481 0.950 . S
H1462 C1483 0.950 . S
H1463 C1486 0.950 . S
H1464 C1487 0.950 . S
H1465 C1489 0.950 . S
H1466 C1490 0.950 . S
H1467 C1491 0.951 . S
H1468 C1493 0.951 . S
H1469 C1495 0.950 . S
H1470 C1496 0.950 . S
H1471 C1498 0.950 . S
H1472 C1501 0.950 . S
H1473 C1502 0.950 . S
H1474 C1504 0.950 . S
H1475 C1505 0.950 . S
C1476 H1458 0.951 . S
C1476 C1477 1.366 . S
C1476 C1478 1.388 . S
C1477 C1476 1.366 . S
C1477 C1481 1.385 . S
C1478 H1459 0.951 . S
C1478 C1476 1.388 . S
C1478 C1479 1.366 . S
C1479 C1478 1.366 . S
C1479 C1480 1.414 . S
C1479 C1482 1.499 . S
C1480 H1460 0.950 . S
C1480 C1479 1.414 . S
C1480 C1481 1.374 . S
C1481 H1461 0.950 . S
C1481 C1477 1.385 . S
C1481 C1480 1.374 . S
C1482 C1479 1.499 . S
C1482 C1483 1.373 . S
C1482 C1484 1.389 . S
C1483 H1462 0.950 . S
C1483 C1482 1.373 . S
C1483 C1499 1.377 . S
C1484 C1482 1.389 . S
C1484 C1485 1.524 . S
C1484 C1498 1.377 . S
C1485 C1484 1.524 . S
C1485 C1486 1.397 . S
C1485 C1490 1.363 . S
C1486 H1463 0.950 . S
C1486 C1485 1.397 . S
C1486 C1487 1.334 . S
C1487 H1464 0.950 . S
C1487 C1486 1.334 . S
C1487 C1488 1.287 . S
C1488 C1487 1.287 . S
C1488 C1489 1.524 . S
C1488 H1507 0.913 . S
C1489 H1465 0.950 . S
C1489 C1488 1.524 . S
C1489 C1490 1.415 . S
C1490 H1466 0.950 . S
C1490 C1485 1.363 . S
C1490 C1489 1.415 . S
C1491 H1467 0.951 . S
C1491 C1492 1.366 . S
C1491 C1493 1.388 . S
C1492 C1491 1.366 . S
C1492 C1496 1.385 . S
C1493 H1468 0.951 . S
C1493 C1491 1.388 . S
C1493 C1494 1.366 . S
C1494 C1493 1.366 . S
C1494 C1495 1.414 . S
C1494 C1497 1.499 . S
C1495 H1469 0.950 . S
C1495 C1494 1.414 . S
C1495 C1496 1.374 . S
C1496 H1470 0.950 . S
C1496 C1492 1.385 . S
C1496 C1495 1.374 . S
C1497 C1494 1.499 . S
C1497 C1498 1.373 . S
C1497 C1499 1.389 . S
C1498 H1471 0.950 . S
C1498 C1484 1.377 . S
C1498 C1497 1.373 . S
C1499 C1483 1.377 . S
C1499 C1497 1.389 . S
C1499 C1500 1.524 . S
C1500 C1499 1.524 . S
C1500 C1501 1.397 . S
C1500 C1505 1.363 . S
C1501 H1472 0.950 . S
C1501 C1500 1.397 . S
C1501 C1502 1.334 . S
C1502 H1473 0.950 . S
C1502 C1501 1.334 . S
C1502 C1503 1.287 . S
C1503 C1502 1.287 . S
C1503 C1504 1.524 . S
C1503 H1506 0.999 . S
C1504 H1474 0.950 . S
C1504 C1503 1.524 . S
C1504 C1505 1.415 . S
C1505 H1475 0.950 . S
C1505 C1500 1.363 . S
C1505 C1504 1.415 . S
H1506 C1503 0.999 . S
H1507 C1488 0.913 . S
H1508 C1526 0.951 . S
H1509 C1528 0.951 . S
H1510 C1530 0.950 . S
H1511 C1531 0.950 . S
H1512 C1533 0.950 . S
H1513 C1536 0.950 . S
H1514 C1537 0.950 . S
H1515 C1539 0.950 . S
H1516 C1540 0.950 . S
H1517 C1541 0.951 . S
H1518 C1543 0.951 . S
H1519 C1545 0.950 . S
H1520 C1546 0.950 . S
H1521 C1548 0.950 . S
H1522 C1551 0.950 . S
H1523 C1552 0.950 . S
H1524 C1554 0.950 . S
H1525 C1555 0.950 . S
C1526 H1508 0.951 . S
C1526 C1527 1.366 . S
C1526 C1528 1.388 . S
C1527 C1526 1.366 . S
C1527 C1531 1.385 . S
C1528 H1509 0.951 . S
C1528 C1526 1.388 . S
C1528 C1529 1.366 . S
C1529 C1528 1.366 . S
C1529 C1530 1.414 . S
C1529 C1532 1.499 . S
C1530 H1510 0.950 . S
C1530 C1529 1.414 . S
C1530 C1531 1.374 . S
C1531 H1511 0.950 . S
C1531 C1527 1.385 . S
C1531 C1530 1.374 . S
C1532 C1529 1.499 . S
C1532 C1533 1.373 . S
C1532 C1534 1.389 . S
C1533 H1512 0.950 . S
C1533 C1532 1.373 . S
C1533 C1549 1.377 . S
C1534 C1532 1.389 . S
C1534 C1535 1.524 . S
C1534 C1548 1.377 . S
C1535 C1534 1.524 . S
C1535 C1536 1.397 . S
C1535 C1540 1.363 . S
C1536 H1513 0.950 . S
C1536 C1535 1.397 . S
C1536 C1537 1.334 . S
C1537 H1514 0.950 . S
C1537 C1536 1.334 . S
C1537 C1538 1.287 . S
C1538 C1537 1.287 . S
C1538 C1539 1.524 . S
C1538 H1557 0.913 . S
C1539 H1515 0.950 . S
C1539 C1538 1.524 . S
C1539 C1540 1.415 . S
C1540 H1516 0.950 . S
C1540 C1535 1.363 . S
C1540 C1539 1.415 . S
C1541 H1517 0.951 . S
C1541 C1542 1.366 . S
C1541 C1543 1.388 . S
C1542 C1541 1.366 . S
C1542 C1546 1.385 . S
C1543 H1518 0.951 . S
C1543 C1541 1.388 . S
C1543 C1544 1.366 . S
C1544 C1543 1.366 . S
C1544 C1545 1.414 . S
C1544 C1547 1.499 . S
C1545 H1519 0.950 . S
C1545 C1544 1.414 . S
C1545 C1546 1.374 . S
C1546 H1520 0.950 . S
C1546 C1542 1.385 . S
C1546 C1545 1.374 . S
C1547 C1544 1.499 . S
C1547 C1548 1.373 . S
C1547 C1549 1.389 . S
C1548 H1521 0.950 . S
C1548 C1534 1.377 . S
C1548 C1547 1.373 . S
C1549 C1533 1.377 . S
C1549 C1547 1.389 . S
C1549 C1550 1.524 . S
C1550 C1549 1.524 . S
C1550 C1551 1.397 . S
C1550 C1555 1.363 . S
C1551 H1522 0.950 . S
C1551 C1550 1.397 . S
C1551 C1552 1.334 . S
C1552 H1523 0.950 . S
C1552 C1551 1.334 . S
C1552 C1553 1.287 . S
C1553 C1552 1.287 . S
C1553 C1554 1.524 . S
C1553 H1556 0.999 . S
C1554 H1524 0.950 . S
C1554 C1553 1.524 . S
C1554 C1555 1.415 . S
C1555 H1525 0.950 . S
C1555 C1550 1.363 . S
C1555 C1554 1.415 . S
H1556 C1553 0.999 . S
H1557 C1538 0.913 . S
H1558 C1576 0.951 . S
H1559 C1578 0.951 . S
H1560 C1580 0.950 . S
H1561 C1581 0.950 . S
H1562 C1583 0.950 . S
H1563 C1586 0.950 . S
H1564 C1587 0.950 1_545 S
H1565 C1589 0.950 1_556 S
H1566 C1590 0.950 . S
H1567 C1591 0.951 . S
H1568 C1593 0.951 . S
H1569 C1595 0.950 . S
H1570 C1596 0.950 1_556 S
H1571 C1598 0.950 . S
H1572 C1601 0.950 . S
H1573 C1602 0.950 . S
H1574 C1604 0.950 . S
H1575 C1605 0.950 . S
C1576 H1558 0.951 . S
C1576 C1577 1.366 . S
C1576 C1578 1.388 . S
C1577 C1576 1.366 . S
C1577 C1581 1.385 . S
C1578 H1559 0.951 . S
C1578 C1576 1.388 . S
C1578 C1579 1.366 . S
C1579 C1578 1.366 . S
C1579 C1580 1.414 . S
C1579 C1582 1.499 . S
C1580 H1560 0.950 . S
C1580 C1579 1.414 . S
C1580 C1581 1.374 . S
C1581 H1561 0.950 . S
C1581 C1577 1.385 . S
C1581 C1580 1.374 . S
C1582 C1579 1.499 . S
C1582 C1583 1.373 . S
C1582 C1584 1.389 . S
C1583 H1562 0.950 . S
C1583 C1582 1.373 . S
C1583 C1599 1.377 . S
C1584 C1582 1.389 . S
C1584 C1585 1.524 . S
C1584 C1598 1.377 . S
C1585 C1584 1.524 . S
C1585 C1586 1.397 . S
C1585 C1590 1.363 . S
C1586 H1563 0.950 . S
C1586 C1585 1.397 . S
C1586 C1587 1.334 . S
C1587 H1564 0.950 1_565 S
C1587 C1586 1.334 . S
C1587 C1588 1.287 . S
C1588 C1587 1.287 . S
C1588 C1589 1.524 . S
C1588 H1607 0.913 1_565 S
C1589 H1565 0.950 1_554 S
C1589 C1588 1.524 . S
C1589 C1590 1.415 . S
C1590 H1566 0.950 . S
C1590 C1585 1.363 . S
C1590 C1589 1.415 . S
C1591 H1567 0.951 . S
C1591 C1592 1.366 . S
C1591 C1593 1.388 . S
C1592 C1591 1.366 . S
C1592 C1596 1.385 . S
C1593 H1568 0.951 . S
C1593 C1591 1.388 . S
C1593 C1594 1.366 . S
C1594 C1593 1.366 . S
C1594 C1595 1.414 . S
C1594 C1597 1.499 . S
C1595 H1569 0.950 . S
C1595 C1594 1.414 . S
C1595 C1596 1.374 . S
C1596 H1570 0.950 1_554 S
C1596 C1592 1.385 . S
C1596 C1595 1.374 . S
C1597 C1594 1.499 . S
C1597 C1598 1.373 . S
C1597 C1599 1.389 . S
C1598 H1571 0.950 . S
C1598 C1584 1.377 . S
C1598 C1597 1.373 . S
C1599 C1583 1.377 . S
C1599 C1597 1.389 . S
C1599 C1600 1.524 . S
C1600 C1599 1.524 . S
C1600 C1601 1.397 . S
C1600 C1605 1.363 . S
C1601 H1572 0.950 . S
C1601 C1600 1.397 . S
C1601 C1602 1.334 . S
C1602 H1573 0.950 . S
C1602 C1601 1.334 . S
C1602 C1603 1.287 . S
C1603 C1602 1.287 . S
C1603 C1604 1.524 . S
C1603 H1606 0.999 . S
C1604 H1574 0.950 . S
C1604 C1603 1.524 . S
C1604 C1605 1.415 . S
C1605 H1575 0.950 . S
C1605 C1600 1.363 . S
C1605 C1604 1.415 . S
H1606 C1603 0.999 . S
H1607 C1588 0.913 1_545 S
H1608 C1626 0.951 . S
H1609 C1628 0.951 . S
H1610 C1630 0.950 . S
H1611 C1631 0.950 . S
H1612 C1633 0.950 . S
H1613 C1636 0.950 . S
H1614 C1637 0.950 . S
H1615 C1639 0.950 . S
H1616 C1640 0.950 . S
H1617 C1641 0.951 . S
H1618 C1643 0.951 . S
H1619 C1645 0.950 . S
H1620 C1646 0.950 . S
H1621 C1648 0.950 . S
H1622 C1651 0.950 . S
H1623 C1652 0.950 . S
H1624 C1654 0.950 . S
H1625 C1655 0.950 . S
C1626 H1608 0.951 . S
C1626 C1627 1.366 . S
C1626 C1628 1.388 . S
C1627 C1626 1.366 . S
C1627 C1631 1.385 . S
C1628 H1609 0.951 . S
C1628 C1626 1.388 . S
C1628 C1629 1.366 . S
C1629 C1628 1.366 . S
C1629 C1630 1.414 . S
C1629 C1632 1.499 . S
C1630 H1610 0.950 . S
C1630 C1629 1.414 . S
C1630 C1631 1.374 . S
C1631 H1611 0.950 . S
C1631 C1627 1.385 . S
C1631 C1630 1.374 . S
C1632 C1629 1.499 . S
C1632 C1633 1.373 . S
C1632 C1634 1.389 . S
C1633 H1612 0.950 . S
C1633 C1632 1.373 . S
C1633 C1649 1.377 . S
C1634 C1632 1.389 . S
C1634 C1635 1.524 . S
C1634 C1648 1.377 . S
C1635 C1634 1.524 . S
C1635 C1636 1.397 . S
C1635 C1640 1.363 . S
C1636 H1613 0.950 . S
C1636 C1635 1.397 . S
C1636 C1637 1.334 . S
C1637 H1614 0.950 . S
C1637 C1636 1.334 . S
C1637 C1638 1.287 . S
C1638 C1637 1.287 . S
C1638 C1639 1.524 . S
C1638 H1657 0.913 . S
C1639 H1615 0.950 . S
C1639 C1638 1.524 . S
C1639 C1640 1.415 . S
C1640 H1616 0.950 . S
C1640 C1635 1.363 . S
C1640 C1639 1.415 . S
C1641 H1617 0.951 . S
C1641 C1642 1.366 . S
C1641 C1643 1.388 . S
C1642 C1641 1.366 . S
C1642 C1646 1.385 . S
C1643 H1618 0.951 . S
C1643 C1641 1.388 . S
C1643 C1644 1.366 . S
C1644 C1643 1.366 . S
C1644 C1645 1.414 . S
C1644 C1647 1.499 . S
C1645 H1619 0.950 . S
C1645 C1644 1.414 . S
C1645 C1646 1.374 . S
C1646 H1620 0.950 . S
C1646 C1642 1.385 . S
C1646 C1645 1.374 . S
C1647 C1644 1.499 . S
C1647 C1648 1.373 . S
C1647 C1649 1.389 . S
C1648 H1621 0.950 . S
C1648 C1634 1.377 . S
C1648 C1647 1.373 . S
C1649 C1633 1.377 . S
C1649 C1647 1.389 . S
C1649 C1650 1.524 . S
C1650 C1649 1.524 . S
C1650 C1651 1.397 . S
C1650 C1655 1.363 . S
C1651 H1622 0.950 . S
C1651 C1650 1.397 . S
C1651 C1652 1.334 . S
C1652 H1623 0.950 . S
C1652 C1651 1.334 . S
C1652 C1653 1.287 . S
C1653 C1652 1.287 . S
C1653 C1654 1.524 . S
C1653 H1656 0.999 . S
C1654 H1624 0.950 . S
C1654 C1653 1.524 . S
C1654 C1655 1.415 . S
C1655 H1625 0.950 . S
C1655 C1650 1.363 . S
C1655 C1654 1.415 . S
H1656 C1653 0.999 . S
H1657 C1638 0.913 . S
H1658 C1676 0.951 . S
H1659 C1678 0.951 . S
H1660 C1680 0.950 . S
H1661 C1681 0.950 . S
H1662 C1683 0.950 . S
H1663 C1686 0.950 . S
H1664 C1687 0.950 . S
H1665 C1689 0.950 . S
H1666 C1690 0.950 . S
H1667 C1691 0.951 . S
H1668 C1693 0.951 . S
H1669 C1695 0.950 . S
H1670 C1696 0.950 . S
H1671 C1698 0.950 . S
H1672 C1701 0.950 . S
H1673 C1702 0.950 . S
H1674 C1704 0.950 . S
H1675 C1705 0.950 . S
C1676 H1658 0.951 . S
C1676 C1677 1.366 . S
C1676 C1678 1.388 . S
C1677 C1676 1.366 . S
C1677 C1681 1.385 . S
C1678 H1659 0.951 . S
C1678 C1676 1.388 . S
C1678 C1679 1.366 . S
C1679 C1678 1.366 . S
C1679 C1680 1.414 . S
C1679 C1682 1.499 . S
C1680 H1660 0.950 . S
C1680 C1679 1.414 . S
C1680 C1681 1.374 . S
C1681 H1661 0.950 . S
C1681 C1677 1.385 . S
C1681 C1680 1.374 . S
C1682 C1679 1.499 . S
C1682 C1683 1.373 . S
C1682 C1684 1.389 . S
C1683 H1662 0.950 . S
C1683 C1682 1.373 . S
C1683 C1699 1.377 . S
C1684 C1682 1.389 . S
C1684 C1685 1.524 . S
C1684 C1698 1.377 . S
C1685 C1684 1.524 . S
C1685 C1686 1.397 . S
C1685 C1690 1.363 . S
C1686 H1663 0.950 . S
C1686 C1685 1.397 . S
C1686 C1687 1.334 . S
C1687 H1664 0.950 . S
C1687 C1686 1.334 . S
C1687 C1688 1.287 . S
C1688 C1687 1.287 . S
C1688 C1689 1.524 . S
C1688 H1707 0.913 . S
C1689 H1665 0.950 . S
C1689 C1688 1.524 . S
C1689 C1690 1.415 . S
C1690 H1666 0.950 . S
C1690 C1685 1.363 . S
C1690 C1689 1.415 . S
C1691 H1667 0.951 . S
C1691 C1692 1.366 . S
C1691 C1693 1.388 . S
C1692 C1691 1.366 . S
C1692 C1696 1.385 . S
C1693 H1668 0.951 . S
C1693 C1691 1.388 . S
C1693 C1694 1.366 . S
C1694 C1693 1.366 . S
C1694 C1695 1.414 . S
C1694 C1697 1.499 . S
C1695 H1669 0.950 . S
C1695 C1694 1.414 . S
C1695 C1696 1.374 . S
C1696 H1670 0.950 . S
C1696 C1692 1.385 . S
C1696 C1695 1.374 . S
C1697 C1694 1.499 . S
C1697 C1698 1.373 . S
C1697 C1699 1.389 . S
C1698 H1671 0.950 . S
C1698 C1684 1.377 . S
C1698 C1697 1.373 . S
C1699 C1683 1.377 . S
C1699 C1697 1.389 . S
C1699 C1700 1.524 . S
C1700 C1699 1.524 . S
C1700 C1701 1.397 . S
C1700 C1705 1.363 . S
C1701 H1672 0.950 . S
C1701 C1700 1.397 . S
C1701 C1702 1.334 . S
C1702 H1673 0.950 . S
C1702 C1701 1.334 . S
C1702 C1703 1.287 . S
C1703 C1702 1.287 . S
C1703 C1704 1.524 . S
C1703 H1706 0.999 . S
C1704 H1674 0.950 . S
C1704 C1703 1.524 . S
C1704 C1705 1.415 . S
C1705 H1675 0.950 . S
C1705 C1700 1.363 . S
C1705 C1704 1.415 . S
H1706 C1703 0.999 . S
H1707 C1688 0.913 . S
H1708 C1726 0.951 . S
H1709 C1728 0.951 . S
H1710 C1730 0.950 . S
H1711 C1731 0.950 . S
H1712 C1733 0.950 . S
H1713 C1736 0.950 . S
H1714 C1737 0.950 . S
H1715 C1739 0.950 . S
H1716 C1740 0.950 . S
H1717 C1741 0.951 1_556 S
H1718 C1743 0.951 . S
H1719 C1745 0.950 . S
H1720 C1746 0.950 . S
H1721 C1748 0.950 . S
H1722 C1751 0.950 . S
H1723 C1752 0.950 . S
H1724 C1754 0.950 . S
H1725 C1755 0.950 . S
C1726 H1708 0.951 . S
C1726 C1727 1.366 . S
C1726 C1728 1.388 . S
C1727 C1726 1.366 . S
C1727 C1731 1.385 . S
C1728 H1709 0.951 . S
C1728 C1726 1.388 . S
C1728 C1729 1.366 . S
C1729 C1728 1.366 . S
C1729 C1730 1.414 . S
C1729 C1732 1.499 . S
C1730 H1710 0.950 . S
C1730 C1729 1.414 . S
C1730 C1731 1.374 . S
C1731 H1711 0.950 . S
C1731 C1727 1.385 . S
C1731 C1730 1.374 . S
C1732 C1729 1.499 . S
C1732 C1733 1.373 . S
C1732 C1734 1.389 . S
C1733 H1712 0.950 . S
C1733 C1732 1.373 . S
C1733 C1749 1.377 . S
C1734 C1732 1.389 . S
C1734 C1735 1.524 . S
C1734 C1748 1.377 . S
C1735 C1734 1.524 . S
C1735 C1736 1.397 . S
C1735 C1740 1.363 . S
C1736 H1713 0.950 . S
C1736 C1735 1.397 . S
C1736 C1737 1.334 . S
C1737 H1714 0.950 . S
C1737 C1736 1.334 . S
C1737 C1738 1.287 . S
C1738 C1737 1.287 . S
C1738 C1739 1.524 . S
C1738 H1757 0.913 . S
C1739 H1715 0.950 . S
C1739 C1738 1.524 . S
C1739 C1740 1.415 . S
C1740 H1716 0.950 . S
C1740 C1735 1.363 . S
C1740 C1739 1.415 . S
C1741 H1717 0.951 1_554 S
C1741 C1742 1.366 . S
C1741 C1743 1.388 . S
C1742 C1741 1.366 . S
C1742 C1746 1.385 . S
C1743 H1718 0.951 . S
C1743 C1741 1.388 . S
C1743 C1744 1.366 . S
C1744 C1743 1.366 . S
C1744 C1745 1.414 . S
C1744 C1747 1.499 . S
C1745 H1719 0.950 . S
C1745 C1744 1.414 . S
C1745 C1746 1.374 . S
C1746 H1720 0.950 . S
C1746 C1742 1.385 . S
C1746 C1745 1.374 . S
C1747 C1744 1.499 . S
C1747 C1748 1.373 . S
C1747 C1749 1.389 . S
C1748 H1721 0.950 . S
C1748 C1734 1.377 . S
C1748 C1747 1.373 . S
C1749 C1733 1.377 . S
C1749 C1747 1.389 . S
C1749 C1750 1.524 . S
C1750 C1749 1.524 . S
C1750 C1751 1.397 . S
C1750 C1755 1.363 . S
C1751 H1722 0.950 . S
C1751 C1750 1.397 . S
C1751 C1752 1.334 . S
C1752 H1723 0.950 . S
C1752 C1751 1.334 . S
C1752 C1753 1.287 1_554 S
C1753 C1752 1.287 1_556 S
C1753 C1754 1.524 . S
C1753 H1756 0.999 . S
C1754 H1724 0.950 . S
C1754 C1753 1.524 . S
C1754 C1755 1.415 1_556 S
C1755 H1725 0.950 . S
C1755 C1750 1.363 . S
C1755 C1754 1.415 1_554 S
H1756 C1753 0.999 . S
H1757 C1738 0.913 . S
H1758 C1776 0.951 . S
H1759 C1778 0.951 1_554 S
H1760 C1780 0.950 . S
H1761 C1781 0.950 . S
H1762 C1783 0.950 . S
H1763 C1786 0.950 . S
H1764 C1787 0.950 . S
H1765 C1789 0.950 . S
H1766 C1790 0.950 . S
H1767 C1791 0.951 . S
H1768 C1793 0.951 . S
H1769 C1795 0.950 . S
H1770 C1796 0.950 . S
H1771 C1798 0.950 . S
H1772 C1801 0.950 . S
H1773 C1802 0.950 . S
H1774 C1804 0.950 . S
H1775 C1805 0.950 . S
C1776 H1758 0.951 . S
C1776 C1777 1.366 1_554 S
C1776 C1778 1.388 1_554 S
C1777 C1776 1.366 1_556 S
C1777 C1781 1.385 . S
C1778 H1759 0.951 1_556 S
C1778 C1776 1.388 1_556 S
C1778 C1779 1.366 . S
C1779 C1778 1.366 . S
C1779 C1780 1.414 . S
C1779 C1782 1.499 . S
C1780 H1760 0.950 . S
C1780 C1779 1.414 . S
C1780 C1781 1.374 . S
C1781 H1761 0.950 . S
C1781 C1777 1.385 . S
C1781 C1780 1.374 . S
C1782 C1779 1.499 . S
C1782 C1783 1.373 . S
C1782 C1784 1.389 . S
C1783 H1762 0.950 . S
C1783 C1782 1.373 . S
C1783 C1799 1.377 . S
C1784 C1782 1.389 . S
C1784 C1785 1.524 . S
C1784 C1798 1.377 . S
C1785 C1784 1.524 . S
C1785 C1786 1.397 . S
C1785 C1790 1.363 . S
C1786 H1763 0.950 . S
C1786 C1785 1.397 . S
C1786 C1787 1.334 . S
C1787 H1764 0.950 . S
C1787 C1786 1.334 . S
C1787 C1788 1.287 . S
C1788 C1787 1.287 . S
C1788 C1789 1.524 1_556 S
C1788 H1807 0.913 . S
C1789 H1765 0.950 . S
C1789 C1788 1.524 1_554 S
C1789 C1790 1.415 1_554 S
C1790 H1766 0.950 . S
C1790 C1785 1.363 . S
C1790 C1789 1.415 1_556 S
C1791 H1767 0.951 . S
C1791 C1792 1.366 . S
C1791 C1793 1.388 . S
C1792 C1791 1.366 . S
C1792 C1796 1.385 . S
C1793 H1768 0.951 . S
C1793 C1791 1.388 . S
C1793 C1794 1.366 . S
C1794 C1793 1.366 . S
C1794 C1795 1.414 . S
C1794 C1797 1.499 . S
C1795 H1769 0.950 . S
C1795 C1794 1.414 . S
C1795 C1796 1.374 . S
C1796 H1770 0.950 . S
C1796 C1792 1.385 . S
C1796 C1795 1.374 . S
C1797 C1794 1.499 . S
C1797 C1798 1.373 . S
C1797 C1799 1.389 . S
C1798 H1771 0.950 . S
C1798 C1784 1.377 . S
C1798 C1797 1.373 . S
C1799 C1783 1.377 . S
C1799 C1797 1.389 . S
C1799 C1800 1.524 . S
C1800 C1799 1.524 . S
C1800 C1801 1.397 . S
C1800 C1805 1.363 . S
C1801 H1772 0.950 . S
C1801 C1800 1.397 . S
C1801 C1802 1.334 . S
C1802 H1773 0.950 . S
C1802 C1801 1.334 . S
C1802 C1803 1.287 . S
C1803 C1802 1.287 . S
C1803 C1804 1.524 . S
C1803 H1806 0.999 . S
C1804 H1774 0.950 . S
C1804 C1803 1.524 . S
C1804 C1805 1.415 . S
C1805 H1775 0.950 . S
C1805 C1800 1.363 . S
C1805 C1804 1.415 . S
H1806 C1803 0.999 . S
H1807 C1788 0.913 . S
C227 C10 1.150 . S
C242 C166 1.150 . S
C277 C18 0.894 . S
C292 C70 0.894 . S
C327 C36 1.150 . S
C342 C192 1.150 . S
C377 C96 0.893 . S
C392 C44 0.893 . S
C427 C187 0.892 . S
C442 C31 0.892 . S
C477 C101 1.150 . S
C492 C49 1.150 . S
C527 C161 0.893 . S
C542 C5 0.893 . S
C577 C75 1.150 . S
C592 C23 1.150 . S
C627 C62 1.150 . S
C642 C114 1.150 . S
C677 C88 1.150 . S
C692 C140 1.150 . S
C727 C135 0.894 . S
C742 C83 0.894 . S
C777 C57 0.892 . S
C792 C109 0.892 . S
C827 C174 0.895 . S
C842 C122 0.895 . S
C877 C148 0.893 . S
C892 C200 0.893 . S
C927 C153 1.150 . S
C942 C205 1.150 . S
C977 C127 1.150 . S
C992 C179 1.150 . S
C1027 C143 1.409 . S
C1042 C0 1.409 . S
C1077 C112 1.440 . S
C1092 C21 1.440 . S
C1127 C26 1.410 . S
C1142 C117 1.410 . S
C1177 C138 1.441 . S
C1192 C47 1.441 . S
C1227 C151 1.440 . S
C1242 C34 1.441 . S
C1277 C39 1.410 . S
C1292 C104 1.410 . S
C1327 C125 1.441 . S
C1342 C8 1.441 . S
C1377 C130 1.410 . S
C1392 C13 1.410 . S
C1427 C52 1.409 . S
C1442 C195 1.409 . S
C1477 C164 1.440 . S
C1492 C73 1.440 . S
C1527 C78 1.409 . S
C1542 C169 1.409 . S
C1577 C99 1.441 . S
C1592 C190 1.441 . S
C1627 C86 1.440 . S
C1642 C203 1.440 . S
C1677 C156 1.409 . S
C1692 C91 1.409 . S
C1727 C177 1.440 . S
C1742 C60 1.440 . S
C1777 C182 1.410 . S
C1792 C65 1.409 . S
