# Generated by pormake.
# Topology umq, (4)-cn, num edge types: 1
# Building blocks:
#     Node 0, Type 0, BuildingBlock: KUFVIS_clean_sbu_0, # of connection points: 4
#     Node 1, Type 0, BuildingBlock: KUFVIS_clean_sbu_0, # of connection points: 4
#     Node 2, Type 0, BuildingBlock: KUFVIS_clean_sbu_0, # of connection points: 4
#     Node 3, Type 0, BuildingBlock: KUFVIS_clean_sbu_0, # of connection points: 4
#     Node 4, Type 0, BuildingBlock: KUFVIS_clean_sbu_0, # of connection points: 4
#     Node 5, Type 0, BuildingBlock: KUFVIS_clean_sbu_0, # of connection points: 4
#     Node 6, Type 0, BuildingBlock: KUFVIS_clean_sbu_0, # of connection points: 4
#     Node 7, Type 0, BuildingBlock: KUFVIS_clean_sbu_0, # of connection points: 4
#     Node 8, Type 0, BuildingBlock: KUFVIS_clean_sbu_0, # of connection points: 4
#     Node 9, Type 0, BuildingBlock: KUFVIS_clean_sbu_0, # of connection points: 4
#     Node 10, Type 0, BuildingBlock: KUFVIS_clean_sbu_0, # of connection points: 4
#     Node 11, Type 0, BuildingBlock: KUFVIS_clean_sbu_0, # of connection points: 4
#     Node 12, Type 0, BuildingBlock: KUFVIS_clean_sbu_0, # of connection points: 4
#     Node 13, Type 0, BuildingBlock: KUFVIS_clean_sbu_0, # of connection points: 4
#     Node 14, Type 0, BuildingBlock: KUFVIS_clean_sbu_0, # of connection points: 4
#     Node 15, Type 0, BuildingBlock: KUFVIS_clean_sbu_0, # of connection points: 4
#     Node 16, Type 0, BuildingBlock: KUFVIS_clean_sbu_0, # of connection points: 4
#     Node 17, Type 0, BuildingBlock: KUFVIS_clean_sbu_0, # of connection points: 4
#     Node 18, Type 0, BuildingBlock: KUFVIS_clean_sbu_0, # of connection points: 4
#     Node 19, Type 0, BuildingBlock: KUFVIS_clean_sbu_0, # of connection points: 4
#     Node 20, Type 0, BuildingBlock: KUFVIS_clean_sbu_0, # of connection points: 4
#     Node 21, Type 0, BuildingBlock: KUFVIS_clean_sbu_0, # of connection points: 4
#     Node 22, Type 0, BuildingBlock: KUFVIS_clean_sbu_0, # of connection points: 4
#     Node 23, Type 0, BuildingBlock: KUFVIS_clean_sbu_0, # of connection points: 4
#     Node 24, Type 0, BuildingBlock: KUFVIS_clean_sbu_0, # of connection points: 4
#     Node 25, Type 0, BuildingBlock: KUFVIS_clean_sbu_0, # of connection points: 4
#     Node 26, Type 0, BuildingBlock: KUFVIS_clean_sbu_0, # of connection points: 4
#     Node 27, Type 0, BuildingBlock: KUFVIS_clean_sbu_0, # of connection points: 4
#     Node 28, Type 0, BuildingBlock: KUFVIS_clean_sbu_0, # of connection points: 4
#     Node 29, Type 0, BuildingBlock: KUFVIS_clean_sbu_0, # of connection points: 4
#     Node 30, Type 0, BuildingBlock: KUFVIS_clean_sbu_0, # of connection points: 4
#     Node 31, Type 0, BuildingBlock: KUFVIS_clean_sbu_0, # of connection points: 4
#     Edge 32, Type (0, 0), None
#     Edge 33, Type (0, 0), None
#     Edge 34, Type (0, 0), None
#     Edge 35, Type (0, 0), None
#     Edge 36, Type (0, 0), None
#     Edge 37, Type (0, 0), None
#     Edge 38, Type (0, 0), None
#     Edge 39, Type (0, 0), None
#     Edge 40, Type (0, 0), None
#     Edge 41, Type (0, 0), None
#     Edge 42, Type (0, 0), None
#     Edge 43, Type (0, 0), None
#     Edge 44, Type (0, 0), None
#     Edge 45, Type (0, 0), None
#     Edge 46, Type (0, 0), None
#     Edge 47, Type (0, 0), None
#     Edge 48, Type (0, 0), None
#     Edge 49, Type (0, 0), None
#     Edge 50, Type (0, 0), None
#     Edge 51, Type (0, 0), None
#     Edge 52, Type (0, 0), None
#     Edge 53, Type (0, 0), None
#     Edge 54, Type (0, 0), None
#     Edge 55, Type (0, 0), None
#     Edge 56, Type (0, 0), None
#     Edge 57, Type (0, 0), None
#     Edge 58, Type (0, 0), None
#     Edge 59, Type (0, 0), None
#     Edge 60, Type (0, 0), None
#     Edge 61, Type (0, 0), None
#     Edge 62, Type (0, 0), None
#     Edge 63, Type (0, 0), None
#     Edge 64, Type (0, 0), None
#     Edge 65, Type (0, 0), None
#     Edge 66, Type (0, 0), None
#     Edge 67, Type (0, 0), None
#     Edge 68, Type (0, 0), None
#     Edge 69, Type (0, 0), None
#     Edge 70, Type (0, 0), None
#     Edge 71, Type (0, 0), None
#     Edge 72, Type (0, 0), None
#     Edge 73, Type (0, 0), None
#     Edge 74, Type (0, 0), None
#     Edge 75, Type (0, 0), None
#     Edge 76, Type (0, 0), None
#     Edge 77, Type (0, 0), None
#     Edge 78, Type (0, 0), None
#     Edge 79, Type (0, 0), None
#     Edge 80, Type (0, 0), None
#     Edge 81, Type (0, 0), None
#     Edge 82, Type (0, 0), None
#     Edge 83, Type (0, 0), None
#     Edge 84, Type (0, 0), None
#     Edge 85, Type (0, 0), None
#     Edge 86, Type (0, 0), None
#     Edge 87, Type (0, 0), None
#     Edge 88, Type (0, 0), None
#     Edge 89, Type (0, 0), None
#     Edge 90, Type (0, 0), None
#     Edge 91, Type (0, 0), None
#     Edge 92, Type (0, 0), None
#     Edge 93, Type (0, 0), None
#     Edge 94, Type (0, 0), None
#     Edge 95, Type (0, 0), None
# Relax obj value: 0.070
# Max RMSD: 0.055
# Mean RMSD: 0.055
data_MOF--net-umq--node1-KUFVIS_clean_sbu_0--edge1-none
_symmetry_space_group_name_H-M    P1
_symmetry_Int_Tables_number       1
_symmetry_cell_setting            triclinic
loop_
_symmetry_equiv_pos_as_xyz
'x, y, z'
_cell_length_a     29.887045
_cell_length_b     29.90054
_cell_length_c     19.457708
_cell_angle_alpha  90.006643
_cell_angle_beta   90.00663
_cell_angle_gamma 89.989773
loop_
_atom_site_label
_atom_site_type_symbol
_atom_site_fract_x
_atom_site_fract_y
_atom_site_fract_z
_atom_type_partial_charge
Mn0 Mn 0.25293 0.11508 0.19815 0.0
Mn1 Mn 0.19531 0.17099 0.08622 0.0
C2 C 0.19688 0.17002 0.2426 0.0
C3 C 0.25455 0.0398 0.24206 0.0
C4 C 0.29355 0.19241 0.13208 0.0
O5 O 0.27474 0.09358 0.09754 0.0
O6 O 0.20762 0.10732 0.08381 0.0
C7 C 0.11474 0.11925 0.12402 0.0
N8 N 0.13344 0.15795 0.10048 0.0
C9 C 0.06352 0.19654 0.11057 0.0
C10 C 0.04319 0.15685 0.13259 0.0
C11 C 0.06902 0.11804 0.14 0.0
C12 C 0.10942 0.19601 0.09831 0.0
H13 H 0.13478 0.08994 0.13269 0.0
C14 C 0.24264 0.09479 0.05497 0.0
O15 O 0.29 0.06472 0.24052 0.0
O16 O 0.21839 0.05856 0.21956 0.0
N17 N 0.17756 0.2321 0.08364 0.0
C18 C 0.20153 0.26655 0.05687 0.0
C19 C 0.18058 0.30775 0.04511 0.0
C20 C 0.13463 0.31263 0.05608 0.0
C21 C 0.10976 0.27541 0.07621 0.0
C22 C 0.1325 0.235 0.08663 0.0
H23 H 0.23647 0.26279 0.04468 0.0
O24 O 0.22236 0.14646 0.28212 0.0
O25 O 0.20501 0.16087 0.18012 0.0
O26 O 0.29493 0.16663 0.18435 0.0
O27 O 0.26214 0.19016 0.08503 0.0
C28 C 0.06312 0.27631 0.08379 0.0
C29 C 0.04033 0.2369 0.10157 0.0
H30 H 1.00829 0.15617 0.14654 0.0
H31 H 0.05392 0.08753 0.15889 0.0
H32 H 0.2003 0.33623 0.03129 0.0
H33 H 0.11879 0.34474 0.04754 0.0
H34 H 0.04445 0.30693 0.07581 0.0
H35 H 1.00495 0.23783 0.10741 0.0
Mn36 Mn 0.91139 0.24953 0.19334 0.0
Mn37 Mn 0.86036 0.18457 0.08431 0.0
C38 C 0.86088 0.18959 0.24058 0.0
C39 C 0.98568 0.25701 0.24076 0.0
C40 C 0.82813 0.28164 0.12927 0.0
O41 O 0.93037 0.27367 0.09127 0.0
O42 O 0.92088 0.20675 0.08078 0.0
C43 C 0.9303 0.11397 0.08224 0.0
N44 N 0.8864 0.12626 0.0884 0.0
C45 C 0.86425 0.04997 0.10029 0.0
C46 C 0.90921 0.03669 0.0982 0.0
C47 C 0.94245 0.06894 0.08842 0.0
C48 C 0.85419 0.09541 0.09584 0.0
H49 H 0.95595 0.13791 0.07023 0.0
C50 C 0.92879 0.24142 0.04908 0.0
O51 O 0.95846 0.29074 0.23705 0.0
O52 O 0.97003 0.21979 0.21712 0.0
N53 N 0.80393 0.15511 0.09129 0.0
C54 C 0.76205 0.17203 0.0832 0.0
C55 C 0.72515 0.14279 0.08419 0.0
C56 C 0.73159 0.09677 0.09103 0.0
C57 C 0.77501 0.08004 0.09549 0.0
C58 C 0.81061 0.11035 0.09436 0.0
H59 H 0.75711 0.20723 0.07408 0.0
O60 O 0.88158 0.21824 0.2787 0.0
O61 O 0.87199 0.19529 0.17799 0.0
O62 O 0.85654 0.28735 0.17731 0.0
O63 O 0.82955 0.24731 0.08711 0.0
C64 C 0.78434 0.03427 0.09966 0.0
C65 C 0.829 0.01955 0.10299 0.0
H66 H 0.91847 1.00176 0.10106 0.0
H67 H 0.97718 0.05906 0.08388 0.0
H68 H 0.6916 0.15498 0.07745 0.0
H69 H 0.70298 0.07452 0.09099 0.0
H70 H 0.75722 0.01048 0.10053 0.0
H71 H 0.83666 0.98489 0.10645 0.0
Mn72 Mn 0.76775 0.90516 0.19813 0.0
Mn73 Mn 0.82536 0.84924 0.08622 0.0
C74 C 0.82381 0.85022 0.2426 0.0
C75 C 0.76614 0.98045 0.24203 0.0
C76 C 0.72713 0.82782 0.13207 0.0
O77 O 0.74594 0.92665 0.09752 0.0
O78 O 0.81306 0.91292 0.08383 0.0
C79 C 0.90594 0.90099 0.12405 0.0
N80 N 0.88724 0.86229 0.10049 0.0
C81 C 0.95716 0.8237 0.11055 0.0
C82 C 0.97749 0.86339 0.13259 0.0
C83 C 0.95166 0.9022 0.14002 0.0
C84 C 0.91126 0.82423 0.0983 0.0
H85 H 0.8859 0.93029 0.13273 0.0
C86 C 0.77805 0.92545 0.05497 0.0
O87 O 0.73069 0.95553 0.24049 0.0
O88 O 0.8023 0.96168 0.21953 0.0
N89 N 0.84312 0.78813 0.08363 0.0
C90 C 0.81915 0.75368 0.05687 0.0
C91 C 0.8401 0.71248 0.04511 0.0
C92 C 0.88605 0.70761 0.05605 0.0
C93 C 0.91093 0.74483 0.07618 0.0
C94 C 0.88818 0.78523 0.08661 0.0
H95 H 0.7842 0.75743 0.04469 0.0
O96 O 0.79833 0.87379 0.28211 0.0
O97 O 0.81567 0.85937 0.18011 0.0
O98 O 0.72575 0.85362 0.18434 0.0
O99 O 0.75854 0.83007 0.08502 0.0
C100 C 0.95757 0.74394 0.08375 0.0
C101 C 0.98035 0.78335 0.10153 0.0
H102 H 0.0124 0.86407 0.14653 0.0
H103 H 0.96676 0.93271 0.15892 0.0
H104 H 0.82037 0.68399 0.0313 0.0
H105 H 0.90189 0.6755 0.04752 0.0
H106 H 0.97624 0.71332 0.07576 0.0
H107 H 0.01574 0.78242 0.10736 0.0
Mn108 Mn 0.10929 0.77072 0.19333 0.0
Mn109 Mn 0.16032 0.83566 0.08433 0.0
C110 C 0.1598 0.83066 0.2406 0.0
C111 C 0.03499 0.76324 0.24073 0.0
C112 C 0.19254 0.73859 0.12928 0.0
O113 O 0.09031 0.74658 0.09124 0.0
O114 O 0.0998 0.81349 0.08077 0.0
C115 C 0.09039 0.90627 0.08226 0.0
N116 N 0.13428 0.89398 0.08842 0.0
C117 C 0.15644 0.97027 0.10032 0.0
C118 C 0.11148 0.98355 0.09822 0.0
C119 C 0.07824 0.9513 0.08844 0.0
C120 C 0.1665 0.92483 0.09587 0.0
H121 H 0.06474 0.88233 0.07025 0.0
C122 C 0.09189 0.77882 0.04906 0.0
O123 O 0.06221 0.7295 0.23701 0.0
O124 O 0.05064 0.80046 0.21711 0.0
N125 N 0.21675 0.86513 0.09133 0.0
C126 C 0.25863 0.8482 0.08323 0.0
C127 C 0.29553 0.87744 0.08422 0.0
C128 C 0.2891 0.92346 0.09106 0.0
C129 C 0.24568 0.94019 0.09552 0.0
C130 C 0.21008 0.90989 0.0944 0.0
H131 H 0.26357 0.813 0.07411 0.0
O132 O 0.1391 0.80201 0.2787 0.0
O133 O 0.14869 0.82495 0.178 0.0
O134 O 0.16413 0.73289 0.17732 0.0
O135 O 0.19113 0.77292 0.08713 0.0
C136 C 0.23635 0.98596 0.0997 0.0
C137 C 0.19169 1.00069 0.10302 0.0
H138 H 0.10223 0.01849 0.10108 0.0
H139 H 0.04351 0.96119 0.08389 0.0
H140 H 0.32908 0.86524 0.07748 0.0
H141 H 0.31771 0.9457 0.09103 0.0
H142 H 0.26348 1.00975 0.10056 0.0
H143 H 0.18404 0.03535 0.10647 0.0
Mn144 Mn 0.25225 0.91705 0.31128 0.0
Mn145 Mn 0.19326 0.8627 0.42296 0.0
C146 C 0.19385 0.86437 0.26614 0.0
C147 C 0.25458 0.99247 0.26774 0.0
C148 C 0.29047 0.83688 0.37342 0.0
O149 O 0.27734 0.93657 0.41229 0.0
O150 O 0.21079 0.92475 0.42892 0.0
C151 C 0.11737 0.92537 0.40997 0.0
N152 N 0.13301 0.88265 0.41525 0.0
C153 C 0.05919 0.85301 0.40577 0.0
C154 C 0.04226 0.89659 0.4009 0.0
C155 C 0.07152 0.93301 0.40213 0.0
C156 C 0.10528 0.84744 0.41101 0.0
H157 H 0.13943 0.95349 0.41437 0.0
C158 C 0.24658 0.93461 0.45712 0.0
O159 O 0.28976 0.96706 0.26834 0.0
O160 O 0.21854 0.9741 0.2909 0.0
N161 N 0.16941 0.80366 0.41979 0.0
C162 C 0.18984 0.76547 0.44088 0.0
C163 C 0.16454 0.72627 0.44859 0.0
C164 C 0.11827 0.72691 0.43751 0.0
C165 C 0.09734 0.76753 0.4226 0.0
C166 C 0.12422 0.80566 0.41639 0.0
H167 H 0.22507 0.7651 0.45282 0.0
O168 O 0.22022 0.88722 0.22724 0.0
O169 O 0.20179 0.87369 0.32884 0.0
O170 O 0.29314 0.86402 0.32289 0.0
O171 O 0.25813 0.83805 0.41909 0.0
C172 C 0.05069 0.77225 0.4177 0.0
C173 C 0.03197 0.8151 0.40893 0.0
H174 H 1.00694 0.90274 0.39872 0.0
H175 H 0.05866 0.96681 0.39942 0.0
H176 H 0.18093 0.69531 0.46094 0.0
H177 H 0.09903 0.69644 0.44326 0.0
H178 H 0.02896 0.74345 0.42238 0.0
H179 H 0.99662 0.81928 0.40678 0.0
Mn180 Mn 0.10768 0.25881 0.31478 0.0
Mn181 Mn 0.16329 0.19698 0.42199 0.0
C182 C 0.16252 0.20332 0.26723 0.0
C183 C 0.03226 0.25933 0.26973 0.0
C184 C 0.18898 0.29477 0.37997 0.0
O185 O 0.08642 0.28033 0.41619 0.0
O186 O 0.10077 0.21359 0.42819 0.0
C187 C 0.10409 0.12395 0.37915 0.0
N188 N 0.14398 0.13745 0.406 0.0
C189 C 0.17407 0.064 0.39579 0.0
C190 C 0.13269 0.04862 0.37151 0.0
C191 C 0.09767 0.07895 0.36196 0.0
C192 C 0.17894 0.10942 0.40857 0.0
H193 H 0.07836 0.14789 0.36732 0.0
C194 C 0.08942 0.24828 0.45851 0.0
O195 O 0.05634 0.29542 0.27239 0.0
O196 O 0.05174 0.22379 0.29237 0.0
N197 N 0.22267 0.17331 0.41952 0.0
C198 C 0.26172 0.19392 0.4359 0.0
C199 C 0.30092 0.16839 0.44253 0.0
C200 C 0.29947 0.12184 0.43659 0.0
C201 C 0.25843 0.10104 0.42496 0.0
C202 C 0.2204 0.12809 0.41871 0.0
H203 H 0.26284 0.22933 0.44532 0.0
O204 O 0.13934 0.22977 0.22873 0.0
O205 O 0.15236 0.20966 0.32967 0.0
O206 O 0.16015 0.29994 0.33197 0.0
O207 O 0.18778 0.26163 0.4242 0.0
C208 C 0.25349 0.05448 0.42016 0.0
C209 C 0.21108 0.03636 0.40573 0.0
H210 H 0.12821 0.01444 0.35548 0.0
H211 H 0.06639 0.06789 0.33968 0.0
H212 H 0.33248 0.18444 0.45203 0.0
H213 H 0.3299 0.10246 0.44195 0.0
H214 H 0.28196 0.03246 0.42661 0.0
H215 H 0.20661 1.00129 0.40224 0.0
Mn216 Mn 0.76844 0.10321 0.31124 0.0
Mn217 Mn 0.82744 0.15756 0.42294 0.0
C218 C 0.82684 0.15588 0.26612 0.0
C219 C 0.76611 0.02778 0.26769 0.0
C220 C 0.73022 0.18337 0.3734 0.0
O221 O 0.74336 0.08368 0.41223 0.0
O222 O 0.80991 0.0955 0.42888 0.0
C223 C 0.90332 0.09488 0.40992 0.0
N224 N 0.88769 0.1376 0.41523 0.0
C225 C 0.9615 0.16724 0.40576 0.0
C226 C 0.97843 0.12366 0.40085 0.0
C227 C 0.94917 0.08724 0.40207 0.0
C228 C 0.91542 0.17281 0.411 0.0
H229 H 0.88126 0.06676 0.4143 0.0
C230 C 0.77412 0.08564 0.45707 0.0
O231 O 0.73093 0.05319 0.26828 0.0
O232 O 0.80215 0.04615 0.29086 0.0
N233 N 0.85129 0.21659 0.4198 0.0
C234 C 0.83086 0.25478 0.4409 0.0
C235 C 0.85616 0.29398 0.44863 0.0
C236 C 0.90243 0.29334 0.43754 0.0
C237 C 0.92336 0.25272 0.42262 0.0
C238 C 0.89647 0.21459 0.4164 0.0
H239 H 0.79563 0.25515 0.45284 0.0
O240 O 0.80047 0.13302 0.2272 0.0
O241 O 0.8189 0.14657 0.32881 0.0
O242 O 0.72756 0.15623 0.32285 0.0
O243 O 0.76256 0.1822 0.41907 0.0
C244 C 0.97001 0.248 0.41772 0.0
C245 C 0.98873 0.20515 0.40893 0.0
H246 H 0.01376 0.11751 0.39866 0.0
H247 H 0.96203 0.05344 0.39934 0.0
H248 H 0.83978 0.32494 0.46099 0.0
H249 H 0.92167 0.32381 0.44331 0.0
H250 H 0.99174 0.2768 0.42241 0.0
H251 H 0.02408 0.20096 0.40677 0.0
Mn252 Mn 0.91301 0.76144 0.31477 0.0
Mn253 Mn 0.85742 0.82328 0.42199 0.0
C254 C 0.85817 0.81692 0.26722 0.0
C255 C 0.98843 0.76091 0.2697 0.0
C256 C 0.83172 0.72549 0.37998 0.0
O257 O 0.93429 0.73992 0.41617 0.0
O258 O 0.91994 0.80666 0.42821 0.0
C259 C 0.91661 0.89629 0.37914 0.0
N260 N 0.87673 0.8828 0.406 0.0
C261 C 0.84665 0.95625 0.39576 0.0
C262 C 0.88802 0.97163 0.37148 0.0
C263 C 0.92304 0.94129 0.36194 0.0
C264 C 0.84178 0.91084 0.40856 0.0
H265 H 0.94234 0.87234 0.36732 0.0
C266 C 0.93128 0.77197 0.45851 0.0
O267 O 0.96435 0.72483 0.27237 0.0
O268 O 0.96895 0.79645 0.29236 0.0
N269 N 0.79804 0.84696 0.41951 0.0
C270 C 0.75899 0.82635 0.43591 0.0
C271 C 0.71979 0.85189 0.44254 0.0
C272 C 0.72125 0.89844 0.43659 0.0
C273 C 0.76228 0.91923 0.42494 0.0
C274 C 0.80031 0.89217 0.41869 0.0
H275 H 0.75787 0.79095 0.44533 0.0
O276 O 0.88134 0.79047 0.22872 0.0
O277 O 0.86833 0.81059 0.32967 0.0
O278 O 0.86054 0.72031 0.33197 0.0
O279 O 0.83292 0.75863 0.4242 0.0
C280 C 0.76723 0.96579 0.42012 0.0
C281 C 0.80964 0.98389 0.40568 0.0
H282 H 0.89251 1.0058 0.35543 0.0
H283 H 0.95432 0.95233 0.33966 0.0
H284 H 0.68823 0.83585 0.45206 0.0
H285 H 0.69082 0.91782 0.44194 0.0
H286 H 0.73877 0.98781 0.42655 0.0
H287 H 0.81412 0.01897 0.40218 0.0
Mn288 Mn 0.77684 0.9097 0.82914 0.0
Mn289 Mn 0.82823 0.82775 0.92472 0.0
C290 C 0.82861 0.85679 0.77446 0.0
C291 C 0.77336 0.98624 0.77618 0.0
C292 C 0.73409 0.81575 0.87782 0.0
O293 O 0.76411 0.93202 0.93032 0.0
O294 O 0.79742 0.87338 0.97568 0.0
C295 C 0.89434 0.89806 0.95571 0.0
N296 N 0.88479 0.85431 0.94268 0.0
C297 C 0.96243 0.83488 0.94196 0.0
C298 C 0.97332 0.8792 0.95882 0.0
C299 C 0.93909 0.91119 0.96438 0.0
C300 C 0.91745 0.82416 0.93228 0.0
H301 H 0.86794 0.92259 0.95958 0.0
C302 C 0.77443 0.9084 0.98294 0.0
O303 O 0.73852 0.96141 0.78696 0.0
O304 O 0.80973 0.96825 0.79977 0.0
N305 N 0.86108 0.77845 0.88923 0.0
C306 C 0.846 0.74056 0.85808 0.0
C307 C 0.87663 0.70639 0.84215 0.0
C308 C 0.92155 0.71024 0.86263 0.0
C309 C 0.93625 0.74968 0.89436 0.0
C310 C 0.90466 0.78316 0.90688 0.0
H311 H 0.81147 0.73767 0.84245 0.0
O312 O 0.80186 0.88253 0.74196 0.0
O313 O 0.82672 0.86417 0.84026 0.0
O314 O 0.73177 0.85472 0.84757 0.0
O315 O 0.76986 0.80047 0.90529 0.0
C316 C 0.98135 0.75807 0.91104 0.0
C317 C 0.99445 0.80112 0.93324 0.0
H318 H 1.00782 0.88916 0.96638 0.0
H319 H 0.94711 0.94567 0.97599 0.0
H320 H 0.86552 0.67685 0.81491 0.0
H321 H 0.94486 0.68354 0.85103 0.0
H322 H 1.00644 0.73242 0.90364 0.0
H323 H 0.02914 0.80869 0.94224 0.0
Mn324 Mn 0.11167 0.77554 0.82288 0.0
Mn325 Mn 0.1948 0.82403 0.91842 0.0
C326 C 0.1644 0.82751 0.76948 0.0
C327 C 0.03486 0.77382 0.7736 0.0
C328 C 0.19738 0.72742 0.87547 0.0
O329 O 0.09422 0.76023 0.92565 0.0
O330 O 0.14208 0.80907 0.97281 0.0
C331 C 0.14592 0.90946 0.93294 0.0
N332 N 0.18501 0.8866 0.92664 0.0
C333 C 0.22782 0.95449 0.92324 0.0
C334 C 0.18834 0.97896 0.93379 0.0
C335 C 0.14703 0.95642 0.93632 0.0
C336 C 0.22435 0.90805 0.91799 0.0
H337 H 0.11442 0.89174 0.93537 0.0
C338 C 0.11257 0.77836 0.97884 0.0
O339 O 0.05936 0.73853 0.78187 0.0
O340 O 0.05311 0.8097 0.79874 0.0
N341 N 0.24949 0.84017 0.87532 0.0
C342 C 0.27781 0.81521 0.83626 0.0
C343 C 0.31932 0.83338 0.81725 0.0
C344 C 0.33056 0.87726 0.83643 0.0
C345 C 0.29968 0.90302 0.87341 0.0
C346 C 0.25936 0.88285 0.89281 0.0
H347 H 0.26946 0.78127 0.82219 0.0
O348 O 0.13732 0.80262 0.73584 0.0
O349 O 0.15806 0.82364 0.8351 0.0
O350 O 0.16393 0.72892 0.83347 0.0
O351 O 0.20915 0.76027 0.91271 0.0
C352 C 0.30598 0.94868 0.88772 0.0
C353 C 0.26998 0.97439 0.91277 0.0
H354 H 0.18913 0.01511 0.93721 0.0
H355 H 0.11626 0.97516 0.94188 0.0
H356 H 0.34354 0.81287 0.79128 0.0
H357 H 0.36254 0.89109 0.82114 0.0
H358 H 0.33729 0.96501 0.87526 0.0
H359 H 0.27456 1.00977 0.91973 0.0
Mn360 Mn 0.24389 0.11056 0.82915 0.0
Mn361 Mn 0.19251 0.19252 0.92472 0.0
C362 C 0.19212 0.16346 0.77447 0.0
C363 C 0.24736 0.03401 0.77621 0.0
C364 C 0.28666 0.20451 0.87784 0.0
O365 O 0.25661 0.08825 0.93033 0.0
O366 O 0.2233 0.14688 0.9757 0.0
C367 C 0.12637 0.12225 0.95566 0.0
N368 N 0.13594 0.166 0.94266 0.0
C369 C 0.05832 0.18547 0.94193 0.0
C370 C 0.0474 0.14116 0.95877 0.0
C371 C 0.08161 0.10915 0.96432 0.0
C372 C 0.1033 0.19616 0.93226 0.0
H373 H 0.15275 0.0977 0.95953 0.0
C374 C 0.24627 0.11186 0.98296 0.0
O375 O 0.2822 0.05884 0.78698 0.0
O376 O 0.21099 0.05201 0.79978 0.0
N377 N 0.15969 0.24184 0.88923 0.0
C378 C 0.17479 0.27971 0.85805 0.0
C379 C 0.14417 0.31389 0.8421 0.0
C380 C 0.09925 0.31007 0.86258 0.0
C381 C 0.08454 0.27065 0.89433 0.0
C382 C 0.11611 0.23716 0.90687 0.0
H383 H 0.20932 0.28257 0.84242 0.0
O384 O 0.21886 0.13772 0.74197 0.0
O385 O 0.19402 0.15609 0.84026 0.0
O386 O 0.28896 0.16553 0.84758 0.0
O387 O 0.2509 0.21978 0.90533 0.0
C388 C 0.03944 0.26229 0.91101 0.0
C389 C 0.02632 0.21925 0.93321 0.0
H390 H 0.01289 0.13122 0.96632 0.0
H391 H 0.07357 0.07467 0.97592 0.0
H392 H 0.1553 0.34342 0.81486 0.0
H393 H 0.07596 0.33678 0.85098 0.0
H394 H 0.01435 0.28795 0.9036 0.0
H395 H 0.99162 0.2117 0.94221 0.0
Mn396 Mn 0.90905 0.2447 0.82289 0.0
Mn397 Mn 0.82592 0.19621 0.91839 0.0
C398 C 0.85632 0.19273 0.76946 0.0
C399 C 0.98586 0.24642 0.77362 0.0
C400 C 0.82335 0.29282 0.87546 0.0
O401 O 0.92648 0.26001 0.92568 0.0
O402 O 0.87864 0.21115 0.97278 0.0
C403 C 0.87476 0.11076 0.93291 0.0
N404 N 0.83569 0.13364 0.92659 0.0
C405 C 0.79285 0.06576 0.92318 0.0
C406 C 0.83232 0.04128 0.93375 0.0
C407 C 0.87364 0.06381 0.9363 0.0
C408 C 0.79634 0.1122 0.91793 0.0
H409 H 0.90628 0.12847 0.93535 0.0
C410 C 0.90813 0.24187 0.97885 0.0
O411 O 0.96136 0.28171 0.7819 0.0
O412 O 0.96762 0.21055 0.79876 0.0
N413 N 0.77121 0.18009 0.87527 0.0
C414 C 0.7429 0.20505 0.83621 0.0
C415 C 0.70138 0.1869 0.8172 0.0
C416 C 0.69013 0.14302 0.83636 0.0
C417 C 0.72101 0.11725 0.87334 0.0
C418 C 0.76133 0.13741 0.89275 0.0
H419 H 0.75126 0.23899 0.82215 0.0
O420 O 0.8834 0.21761 0.73583 0.0
O421 O 0.86266 0.1966 0.83508 0.0
O422 O 0.85679 0.29131 0.83347 0.0
O423 O 0.81158 0.25998 0.9127 0.0
C424 C 0.71469 0.07159 0.88765 0.0
C425 C 0.75069 0.04588 0.9127 0.0
H426 H 0.83152 1.00513 0.93718 0.0
H427 H 0.9044 0.04506 0.94186 0.0
H428 H 0.67716 0.20742 0.79124 0.0
H429 H 0.65815 0.1292 0.82107 0.0
H430 H 0.68337 0.05527 0.87518 0.0
H431 H 0.74609 0.01049 0.91966 0.0
Mn432 Mn 0.77191 0.10761 0.68244 0.0
Mn433 Mn 0.82274 0.18785 0.58365 0.0
C434 C 0.82378 0.16123 0.73431 0.0
C435 C 0.77208 0.03179 0.73808 0.0
C436 C 0.72819 0.1992 0.62911 0.0
O437 O 0.7576 0.08441 0.5818 0.0
O438 O 0.79417 0.1402 0.53286 0.0
C439 C 0.89195 0.11919 0.56725 0.0
N440 N 0.88049 0.16322 0.57045 0.0
C441 C 0.95718 0.18562 0.57603 0.0
C442 C 0.97023 0.14081 0.56849 0.0
C443 C 0.93738 0.10726 0.56611 0.0
C444 C 0.91159 0.19517 0.57952 0.0
H445 H 0.86643 0.09359 0.56597 0.0
C446 C 0.77002 0.10565 0.5276 0.0
O447 O 0.73612 0.05528 0.72819 0.0
O448 O 0.80718 0.05056 0.71187 0.0
N449 N 0.85279 0.23878 0.61932 0.0
C450 C 0.83596 0.27517 0.65248 0.0
C451 C 0.86483 0.31066 0.66929 0.0
C452 C 0.90995 0.30917 0.64896 0.0
C453 C 0.92663 0.27078 0.6164 0.0
C454 C 0.89657 0.23622 0.60191 0.0
H455 H 0.80126 0.2762 0.66795 0.0
O456 O 0.79722 0.13623 0.76858 0.0
O457 O 0.82085 0.15313 0.66898 0.0
O458 O 0.72626 0.16159 0.66314 0.0
O459 O 0.76343 0.21344 0.59912 0.0
C460 C 0.97239 0.26388 0.60265 0.0
C461 C 0.98763 0.22083 0.58388 0.0
H462 H 1.00529 0.13172 0.56663 0.0
H463 H 0.94703 0.07245 0.56259 0.0
H464 H 0.85215 0.33943 0.69686 0.0
H465 H 0.93199 0.33666 0.66192 0.0
H466 H 0.99639 0.29041 0.61124 0.0
H467 H 0.02278 0.21408 0.57819 0.0
Mn468 Mn 0.91309 0.77302 0.68413 0.0
Mn469 Mn 0.8314 0.82236 0.58711 0.0
C470 C 0.86007 0.82484 0.73741 0.0
C471 C 0.98908 0.77311 0.73702 0.0
C472 C 0.82117 0.72827 0.63573 0.0
O473 O 0.93505 0.75793 0.58342 0.0
O474 O 0.8778 0.79265 0.53534 0.0
C475 C 0.89949 0.8904 0.55536 0.0
N476 N 0.85607 0.87955 0.56872 0.0
C477 C 0.83438 0.95647 0.5707 0.0
C478 C 0.87833 0.96876 0.55365 0.0
C479 C 0.91127 0.93552 0.54703 0.0
C480 C 0.82493 0.91119 0.57957 0.0
H481 H 0.92475 0.86471 0.55098 0.0
C482 C 0.91263 0.76897 0.52977 0.0
O483 O 0.96555 0.73716 0.72782 0.0
O484 O 0.97027 0.80838 0.71141 0.0
N485 N 0.78161 0.85355 0.62424 0.0
C486 C 0.74553 0.83757 0.65923 0.0
C487 C 0.71061 0.86708 0.67656 0.0
C488 C 0.71238 0.91193 0.65493 0.0
C489 C 0.7505 0.92772 0.62055 0.0
C490 C 0.78453 0.89712 0.60593 0.0
H491 H 0.74434 0.80309 0.67572 0.0
O492 O 0.88589 0.79859 0.77055 0.0
O493 O 0.86735 0.82208 0.67159 0.0
O494 O 0.85938 0.72672 0.668 0.0
O495 O 0.80604 0.76344 0.60657 0.0
C496 C 0.75742 0.97308 0.60402 0.0
C497 C 0.79986 0.98744 0.58075 0.0
H498 H 0.88725 1.00357 0.54647 0.0
H499 H 0.94544 0.94461 0.5351 0.0
H500 H 0.68204 0.85504 0.70527 0.0
H501 H 0.68525 0.93442 0.66789 0.0
H502 H 0.73124 0.99743 0.6128 0.0
H503 H 0.80658 0.0223 0.57202 0.0
Mn504 Mn 0.2488 0.91263 0.68248 0.0
Mn505 Mn 0.19797 0.83239 0.58367 0.0
C506 C 0.19693 0.85901 0.73434 0.0
C507 C 0.24863 0.98845 0.73812 0.0
C508 C 0.29252 0.82104 0.62914 0.0
O509 O 0.2631 0.93582 0.58185 0.0
O510 O 0.22653 0.88004 0.53289 0.0
C511 C 0.12875 0.90104 0.56729 0.0
N512 N 0.14022 0.85702 0.57047 0.0
C513 C 0.06353 0.83461 0.57604 0.0
C514 C 0.05047 0.87942 0.56852 0.0
C515 C 0.08332 0.91297 0.56614 0.0
C516 C 0.10912 0.82507 0.57953 0.0
H517 H 0.15427 0.92665 0.56602 0.0
C518 C 0.25068 0.91459 0.52764 0.0
O519 O 0.28458 0.96497 0.72824 0.0
O520 O 0.21353 0.96968 0.7119 0.0
N521 N 0.16793 0.78146 0.61931 0.0
C522 C 0.18476 0.74507 0.65246 0.0
C523 C 0.15589 0.70958 0.66926 0.0
C524 C 0.11077 0.71106 0.64893 0.0
C525 C 0.09409 0.74945 0.61638 0.0
C526 C 0.12414 0.78402 0.6019 0.0
H527 H 0.21946 0.74405 0.66793 0.0
O528 O 0.22349 0.88401 0.76861 0.0
O529 O 0.19986 0.86711 0.66901 0.0
O530 O 0.29445 0.85866 0.66319 0.0
O531 O 0.25728 0.80681 0.59913 0.0
C532 C 0.04832 0.75636 0.60263 0.0
C533 C 0.03308 0.7994 0.58388 0.0
H534 H 0.01541 0.88851 0.56666 0.0
H535 H 0.07367 0.94779 0.56265 0.0
H536 H 0.16858 0.68081 0.69682 0.0
H537 H 0.08874 0.68357 0.66188 0.0
H538 H 0.02432 0.72982 0.61122 0.0
H539 H 0.99793 0.80615 0.57819 0.0
Mn540 Mn 0.10762 0.24723 0.68414 0.0
Mn541 Mn 0.1893 0.19788 0.58712 0.0
C542 C 0.16065 0.19541 0.73742 0.0
C543 C 0.03163 0.24713 0.73704 0.0
C544 C 0.19954 0.29197 0.63573 0.0
O545 O 0.08566 0.26231 0.58343 0.0
O546 O 0.1429 0.22758 0.53535 0.0
C547 C 0.12121 0.12984 0.55535 0.0
N548 N 0.16463 0.14068 0.56872 0.0
C549 C 0.18632 0.06376 0.57071 0.0
C550 C 0.14236 0.05147 0.55365 0.0
C551 C 0.10943 0.08471 0.54702 0.0
C552 C 0.19577 0.10904 0.57958 0.0
H553 H 0.09595 0.15553 0.55096 0.0
C554 C 0.10807 0.25127 0.52978 0.0
O555 O 0.05516 0.28308 0.72785 0.0
O556 O 0.05044 0.21186 0.71142 0.0
N557 N 0.2391 0.16669 0.62426 0.0
C558 C 0.27518 0.18267 0.65925 0.0
C559 C 0.3101 0.15317 0.67659 0.0
C560 C 0.30832 0.10831 0.65496 0.0
C561 C 0.2702 0.09252 0.62057 0.0
C562 C 0.23617 0.12312 0.60594 0.0
H563 H 0.27637 0.21715 0.67574 0.0
O564 O 0.13484 0.22167 0.77056 0.0
O565 O 0.15336 0.19816 0.6716 0.0
O566 O 0.16133 0.29353 0.66801 0.0
O567 O 0.21466 0.2568 0.60659 0.0
C568 C 0.26328 0.04716 0.60405 0.0
C569 C 0.22084 0.03279 0.58077 0.0
H570 H 0.13345 0.01666 0.54648 0.0
H571 H 0.07525 0.07562 0.53508 0.0
H572 H 0.33868 0.16521 0.70531 0.0
H573 H 0.33545 0.08582 0.66793 0.0
H574 H 0.28946 0.0228 0.61285 0.0
H575 H 0.21412 0.99793 0.57205 0.0
Mn576 Mn 0.75306 0.6077 0.69846 0.0
Mn577 Mn 0.69223 0.66347 0.59073 0.0
C578 C 0.69547 0.6602 0.74546 0.0
C579 C 0.75482 0.53187 0.74076 0.0
C580 C 0.78975 0.68934 0.63624 0.0
O581 O 0.77605 0.58801 0.59722 0.0
O582 O 0.70901 0.60109 0.584 0.0
C583 C 0.61803 0.6034 0.62757 0.0
N584 N 0.63232 0.64399 0.60426 0.0
C585 C 0.55876 0.67415 0.61345 0.0
C586 C 0.54271 0.63231 0.63438 0.0
C587 C 0.57267 0.59681 0.64249 0.0
C588 C 0.60444 0.67911 0.60272 0.0
H589 H 0.64137 0.57695 0.63811 0.0
C590 C 0.74404 0.58966 0.55459 0.0
O591 O 0.79023 0.55696 0.74018 0.0
O592 O 0.71895 0.55057 0.71756 0.0
N593 N 0.66855 0.72283 0.59431 0.0
C594 C 0.68931 0.76197 0.5789 0.0
C595 C 0.6638 0.80126 0.57262 0.0
C596 C 0.61725 0.79982 0.57804 0.0
C597 C 0.59635 0.75877 0.58855 0.0
C598 C 0.62331 0.72065 0.59456 0.0
H599 H 0.72478 0.76302 0.56964 0.0
O600 O 0.72184 0.637 0.78385 0.0
O601 O 0.70346 0.65175 0.68294 0.0
O602 O 0.7937 0.66127 0.68567 0.0
O603 O 0.75717 0.68787 0.59087 0.0
C604 C 0.54973 0.75388 0.59176 0.0
C605 C 0.53134 0.71135 0.60402 0.0
H606 H 0.50807 0.62769 0.64819 0.0
H607 H 0.56104 0.56487 0.66162 0.0
H608 H 0.67968 0.83283 0.56275 0.0
H609 H 0.59791 0.83027 0.57261 0.0
H610 H 0.52787 0.78246 0.58541 0.0
H611 H 0.49618 0.70688 0.60607 0.0
Mn612 Mn 0.41406 0.75456 0.69199 0.0
Mn613 Mn 0.35872 0.69177 0.58278 0.0
C614 C 0.36056 0.69726 0.73869 0.0
C615 C 0.48865 0.75848 0.74022 0.0
C616 C 0.33108 0.78917 0.62888 0.0
O617 O 0.43504 0.77755 0.59009 0.0
O618 O 0.41933 0.71186 0.58023 0.0
C619 C 0.42594 0.61902 0.58134 0.0
N620 N 0.38245 0.63273 0.58671 0.0
C621 C 0.35738 0.55737 0.59644 0.0
C622 C 0.40181 0.54251 0.59371 0.0
C623 C 0.43632 0.57353 0.58583 0.0
C624 C 0.34904 0.60309 0.59337 0.0
H625 H 0.45259 0.64221 0.57106 0.0
C626 C 0.42985 0.74562 0.54809 0.0
O627 O 0.46325 0.79357 0.73586 0.0
O628 O 0.47083 0.72205 0.71766 0.0
N629 N 0.30112 0.66458 0.58845 0.0
C630 C 0.26038 0.68294 0.57536 0.0
C631 C 0.22246 0.65515 0.57291 0.0
C632 C 0.22677 0.60897 0.58161 0.0
C633 C 0.26931 0.59058 0.58988 0.0
C634 C 0.30602 0.61961 0.59138 0.0
H635 H 0.25713 0.7182 0.56488 0.0
O636 O 0.38238 0.72497 0.77701 0.0
O637 O 0.37204 0.70214 0.67622 0.0
O638 O 0.36081 0.79465 0.67518 0.0
O639 O 0.33065 0.75501 0.58671 0.0
C640 C 0.27692 0.54441 0.59376 0.0
C641 C 0.32104 0.52826 0.59767 0.0
H642 H 0.40978 0.50739 0.59377 0.0
H643 H 0.47062 0.56231 0.58099 0.0
H644 H 0.18978 0.66879 0.56339 0.0
H645 H 0.19737 0.58784 0.57924 0.0
H646 H 0.24916 0.52122 0.59272 0.0
H647 H 0.32758 0.49349 0.59985 0.0
Mn648 Mn 0.26766 0.41255 0.69845 0.0
Mn649 Mn 0.32847 0.35676 0.59072 0.0
C650 C 0.32525 0.36005 0.74545 0.0
C651 C 0.26591 0.48838 0.74075 0.0
C652 C 0.23096 0.33091 0.63623 0.0
O653 O 0.24466 0.43223 0.59721 0.0
O654 O 0.3117 0.41914 0.58401 0.0
C655 C 0.40269 0.41683 0.62755 0.0
N656 N 0.38839 0.37624 0.60425 0.0
C657 C 0.46195 0.34608 0.61341 0.0
C658 C 0.47801 0.38792 0.63434 0.0
C659 C 0.44805 0.42342 0.64246 0.0
C660 C 0.41627 0.34112 0.6027 0.0
H661 H 0.37935 0.44329 0.6381 0.0
C662 C 0.27667 0.43058 0.55459 0.0
O663 O 0.23049 0.46329 0.74016 0.0
O664 O 0.30177 0.46967 0.71754 0.0
N665 N 0.35215 0.2974 0.5943 0.0
C666 C 0.33138 0.25825 0.5789 0.0
C667 C 0.35689 0.21897 0.57263 0.0
C668 C 0.40345 0.2204 0.57803 0.0
C669 C 0.42435 0.26146 0.58852 0.0
C670 C 0.39739 0.29957 0.59453 0.0
H671 H 0.29591 0.25721 0.56966 0.0
O672 O 0.29889 0.38326 0.78384 0.0
O673 O 0.31725 0.3685 0.68293 0.0
O674 O 0.22701 0.35898 0.68566 0.0
O675 O 0.26353 0.33237 0.59087 0.0
C676 C 0.47097 0.26635 0.59172 0.0
C677 C 0.48936 0.30888 0.60397 0.0
H678 H 0.51266 0.39253 0.64813 0.0
H679 H 0.45969 0.45536 0.66159 0.0
H680 H 0.34101 0.18739 0.56277 0.0
H681 H 0.42278 0.18996 0.5726 0.0
H682 H 0.49282 0.23776 0.58536 0.0
H683 H 0.52453 0.31334 0.606 0.0
Mn684 Mn 0.60665 0.26569 0.69194 0.0
Mn685 Mn 0.66199 0.32847 0.58277 0.0
C686 C 0.66016 0.32299 0.73866 0.0
C687 C 0.53207 0.26177 0.74017 0.0
C688 C 0.68963 0.23108 0.62884 0.0
O689 O 0.58566 0.24269 0.59002 0.0
O690 O 0.60139 0.30839 0.58022 0.0
C691 C 0.59478 0.40122 0.58129 0.0
N692 N 0.63827 0.38751 0.58669 0.0
C693 C 0.66334 0.46288 0.59642 0.0
C694 C 0.6189 0.47773 0.59367 0.0
C695 C 0.58439 0.44671 0.58578 0.0
C696 C 0.67168 0.41715 0.59335 0.0
H697 H 0.56812 0.37803 0.571 0.0
C698 C 0.59087 0.27463 0.54804 0.0
O699 O 0.55746 0.22668 0.7358 0.0
O700 O 0.54988 0.29819 0.71761 0.0
N701 N 0.7196 0.35567 0.58845 0.0
C702 C 0.76034 0.33731 0.57538 0.0
C703 C 0.79826 0.36509 0.57295 0.0
C704 C 0.79394 0.41127 0.58164 0.0
C705 C 0.75141 0.42966 0.5899 0.0
C706 C 0.71469 0.40064 0.59138 0.0
H707 H 0.76358 0.30204 0.56491 0.0
O708 O 0.63834 0.29528 0.77697 0.0
O709 O 0.64867 0.31811 0.67619 0.0
O710 O 0.6599 0.2256 0.67513 0.0
O711 O 0.69006 0.26524 0.58669 0.0
C712 C 0.74379 0.47583 0.59377 0.0
C713 C 0.69967 0.49198 0.59766 0.0
H714 H 0.61093 0.51285 0.59372 0.0
H715 H 0.5501 0.45793 0.58091 0.0
H716 H 0.83094 0.35146 0.56344 0.0
H717 H 0.82334 0.43241 0.57928 0.0
H718 H 0.77155 0.49903 0.59275 0.0
H719 H 0.69313 0.52675 0.59984 0.0
Mn720 Mn 0.75178 0.40911 0.80982 0.0
Mn721 Mn 0.69354 0.35263 0.92065 0.0
C722 C 0.69499 0.35554 0.76405 0.0
C723 C 0.75431 0.48461 0.76675 0.0
C724 C 0.79148 0.3309 0.87436 0.0
O725 O 0.77382 0.42911 0.91104 0.0
O726 O 0.70654 0.41601 0.92585 0.0
C727 C 0.61325 0.40559 0.88552 0.0
N728 N 0.63182 0.36634 0.907 0.0
C729 C 0.56151 0.32858 0.89759 0.0
C730 C 0.54133 0.36868 0.87697 0.0
C731 C 0.56742 0.40739 0.87035 0.0
C732 C 0.60754 0.32845 0.90822 0.0
H733 H 0.63347 0.43488 0.87778 0.0
C734 C 0.74208 0.42746 0.95435 0.0
O735 O 0.78946 0.45926 0.76815 0.0
O736 O 0.71799 0.46631 0.78955 0.0
N737 N 0.67542 0.29162 0.92145 0.0
C738 C 0.69903 0.25713 0.94891 0.0
C739 C 0.67778 0.2162 0.96143 0.0
C740 C 0.63183 0.21159 0.95009 0.0
C741 C 0.60725 0.24895 0.9296 0.0
C742 C 0.63034 0.28911 0.91862 0.0
H743 H 0.7338 0.26083 0.96206 0.0
O744 O 0.72077 0.37915 0.72517 0.0
O745 O 0.70325 0.36387 0.82684 0.0
O746 O 0.79323 0.35686 0.82232 0.0
O747 O 0.76 0.33308 0.92114 0.0
C748 C 0.56049 0.24874 0.92379 0.0
C749 C 0.53795 0.2886 0.90758 0.0
H750 H 0.50635 0.36975 0.86346 0.0
H751 H 0.55241 0.43829 0.85281 0.0
H752 H 0.69728 0.1879 0.97693 0.0
H753 H 0.61567 0.17975 0.95953 0.0
H754 H 0.5415 0.21845 0.93284 0.0
H755 H 0.50244 0.28852 0.90469 0.0
Mn756 Mn 0.60983 0.75252 0.81741 0.0
Mn757 Mn 0.66288 0.688 0.92562 0.0
C758 C 0.66092 0.69301 0.77059 0.0
C759 C 0.5351 0.75802 0.77013 0.0
C760 C 0.6948 0.78433 0.87741 0.0
O761 O 0.59033 0.77688 0.9199 0.0
O762 O 0.60322 0.71063 0.92535 0.0
C763 C 0.59219 0.61841 0.93185 0.0
N764 N 0.63617 0.63001 0.92436 0.0
C765 C 0.6572 0.55341 0.91305 0.0
C766 C 0.61208 0.54076 0.91622 0.0
C767 C 0.57937 0.57351 0.92658 0.0
C768 C 0.6679 0.59868 0.91703 0.0
H769 H 0.56704 0.64288 0.9442 0.0
C770 C 0.59381 0.74362 0.95967 0.0
O771 O 0.5616 0.79237 0.7729 0.0
O772 O 0.5517 0.72149 0.79453 0.0
N773 N 0.71887 0.65777 0.91878 0.0
C774 C 0.76108 0.67438 0.92255 0.0
C775 C 0.79761 0.64471 0.91982 0.0
C776 C 0.79053 0.59866 0.91541 0.0
C777 C 0.74686 0.58237 0.91428 0.0
C778 C 0.71165 0.61308 0.91692 0.0
H779 H 0.76658 0.70969 0.92947 0.0
O780 O 0.63975 0.72123 0.73239 0.0
O781 O 0.64966 0.69832 0.83287 0.0
O782 O 0.66507 0.79078 0.83115 0.0
O783 O 0.69393 0.75018 0.91989 0.0
C784 C 0.73691 0.53671 0.91086 0.0
C785 C 0.69202 0.52256 0.90915 0.0
H786 H 0.60232 0.50596 0.91382 0.0
H787 H 0.54458 0.56413 0.93213 0.0
H788 H 0.83138 0.65668 0.92432 0.0
H789 H 0.81889 0.5761 0.91418 0.0
H790 H 0.76372 0.51261 0.90875 0.0
H791 H 0.68385 0.48807 0.90547 0.0
Mn792 Mn 0.26895 0.61114 0.8098 0.0
Mn793 Mn 0.32719 0.66763 0.92066 0.0
C794 C 0.32573 0.66471 0.76406 0.0
C795 C 0.26642 0.53564 0.76673 0.0
C796 C 0.22925 0.68935 0.87436 0.0
O797 O 0.24692 0.59114 0.91101 0.0
O798 O 0.31419 0.60424 0.92586 0.0
C799 C 0.40749 0.61466 0.88555 0.0
N800 N 0.38891 0.65391 0.90703 0.0
C801 C 0.45922 0.69167 0.89762 0.0
C802 C 0.47939 0.65157 0.87701 0.0
C803 C 0.45331 0.61287 0.87039 0.0
C804 C 0.41319 0.69181 0.90825 0.0
H805 H 0.38727 0.58537 0.87781 0.0
C806 C 0.27865 0.59279 0.95433 0.0
O807 O 0.23127 0.56099 0.76812 0.0
O808 O 0.30274 0.55395 0.78954 0.0
N809 N 0.34531 0.72863 0.92148 0.0
C810 C 0.3217 0.76313 0.94893 0.0
C811 C 0.34295 0.80406 0.96145 0.0
C812 C 0.3889 0.80868 0.95012 0.0
C813 C 0.41348 0.7713 0.92963 0.0
C814 C 0.39039 0.73115 0.91865 0.0
H815 H 0.28693 0.75943 0.96208 0.0
O816 O 0.29995 0.6411 0.72517 0.0
O817 O 0.31747 0.65638 0.82685 0.0
O818 O 0.22749 0.66339 0.82231 0.0
O819 O 0.26073 0.68717 0.92115 0.0
C820 C 0.46024 0.77153 0.92382 0.0
C821 C 0.48278 0.73166 0.90761 0.0
H822 H 0.51438 0.6505 0.8635 0.0
H823 H 0.46832 0.58197 0.85284 0.0
H824 H 0.32345 0.83237 0.97694 0.0
H825 H 0.40506 0.84051 0.95956 0.0
H826 H 0.47923 0.80181 0.93287 0.0
H827 H 0.51829 0.73174 0.90472 0.0
Mn828 Mn 0.41089 0.26774 0.81738 0.0
Mn829 Mn 0.35789 0.33226 0.92562 0.0
C830 C 0.3598 0.32724 0.77058 0.0
C831 C 0.48562 0.26223 0.77009 0.0
C832 C 0.32595 0.23593 0.87741 0.0
O833 O 0.43039 0.24337 0.91986 0.0
O834 O 0.41755 0.30963 0.92537 0.0
C835 C 0.42857 0.40186 0.93184 0.0
N836 N 0.38459 0.39025 0.92434 0.0
C837 C 0.36355 0.46685 0.91301 0.0
C838 C 0.40867 0.4795 0.91619 0.0
C839 C 0.44138 0.44676 0.92656 0.0
C840 C 0.35285 0.42157 0.917 0.0
H841 H 0.45372 0.3774 0.9442 0.0
C842 C 0.42694 0.27663 0.95967 0.0
O843 O 0.45911 0.22788 0.77285 0.0
O844 O 0.46902 0.29876 0.7945 0.0
N845 N 0.30189 0.36249 0.91878 0.0
C846 C 0.25968 0.34588 0.92259 0.0
C847 C 0.22315 0.37554 0.91988 0.0
C848 C 0.23022 0.42159 0.91543 0.0
C849 C 0.2739 0.43789 0.91426 0.0
C850 C 0.3091 0.40717 0.9169 0.0
H851 H 0.25418 0.31056 0.92954 0.0
O852 O 0.38096 0.29901 0.73237 0.0
O853 O 0.37107 0.32193 0.83285 0.0
O854 O 0.35566 0.22948 0.83113 0.0
O855 O 0.32684 0.27008 0.9199 0.0
C856 C 0.28384 0.48354 0.91083 0.0
C857 C 0.32873 0.4977 0.90911 0.0
H858 H 0.41842 0.51431 0.91379 0.0
H859 H 0.47617 0.45615 0.93212 0.0
H860 H 0.18938 0.36357 0.92439 0.0
H861 H 0.20186 0.44415 0.91421 0.0
H862 H 0.25702 0.50764 0.90872 0.0
H863 H 0.33689 0.53219 0.90542 0.0
Mn864 Mn 0.27535 0.41512 0.32782 0.0
Mn865 Mn 0.32405 0.33128 0.42367 0.0
C866 C 0.32667 0.36129 0.27501 0.0
C867 C 0.27392 0.49154 0.2736 0.0
C868 C 0.22889 0.32477 0.37877 0.0
O869 O 0.26343 0.43678 0.42969 0.0
O870 O 0.29645 0.37793 0.47685 0.0
C871 C 0.39575 0.3958 0.45379 0.0
N872 N 0.38255 0.35295 0.44152 0.0
C873 C 0.45832 0.32718 0.43849 0.0
C874 C 0.47301 0.3706 0.45415 0.0
C875 C 0.44155 0.40527 0.46078 0.0
C876 C 0.41247 0.32003 0.43094 0.0
H877 H 0.37137 0.42235 0.45816 0.0
C878 C 0.27374 0.41333 0.4828 0.0
O879 O 0.23849 0.46757 0.28456 0.0
O880 O 0.30977 0.47283 0.29791 0.0
N881 N 0.35267 0.2805 0.38486 0.0
C882 C 0.33503 0.24624 0.34756 0.0
C883 C 0.36248 0.20974 0.33007 0.0
C884 C 0.40726 0.20864 0.35217 0.0
C885 C 0.42502 0.24523 0.38811 0.0
C886 C 0.39617 0.28051 0.40437 0.0
H887 H 0.30055 0.24718 0.33085 0.0
O888 O 0.29979 0.38633 0.24098 0.0
O889 O 0.32417 0.36898 0.34053 0.0
O890 O 0.22814 0.36279 0.34625 0.0
O891 O 0.2641 0.30832 0.40578 0.0
C892 C 0.47083 0.24971 0.40376 0.0
C893 C 0.48746 0.29111 0.4276 0.0
H894 H 0.50833 0.37782 0.46002 0.0
H895 H 0.45252 0.43903 0.47166 0.0
H896 H 0.34891 0.18214 0.30076 0.0
H897 H 0.42826 0.18053 0.3383 0.0
H898 H 0.49394 0.22266 0.39329 0.0
H899 H 0.52274 0.29574 0.43547 0.0
Mn900 Mn 0.61114 0.27044 0.3226 0.0
Mn901 Mn 0.6955 0.31797 0.41729 0.0
C902 C 0.66434 0.32119 0.26869 0.0
C903 C 0.53436 0.27213 0.27251 0.0
C904 C 0.69834 0.2217 0.37411 0.0
O905 O 0.59226 0.25598 0.42465 0.0
O906 O 0.64397 0.30037 0.47265 0.0
C907 C 0.64357 0.40142 0.43131 0.0
N908 N 0.68358 0.38006 0.42647 0.0
C909 C 0.72364 0.44949 0.42147 0.0
C910 C 0.68319 0.47254 0.43077 0.0
C911 C 0.64278 0.44842 0.43325 0.0
C912 C 0.722 0.40296 0.41709 0.0
H913 H 0.61277 0.38248 0.43345 0.0
C914 C 0.61146 0.27283 0.47793 0.0
O915 O 0.55732 0.23575 0.28086 0.0
O916 O 0.55399 0.30697 0.29829 0.0
N917 N 0.7496 0.3361 0.37433 0.0
C918 C 0.77927 0.31194 0.33648 0.0
C919 C 0.82001 0.33173 0.31728 0.0
C920 C 0.82948 0.37603 0.33615 0.0
C921 C 0.79753 0.40064 0.37272 0.0
C922 C 0.75789 0.37907 0.39183 0.0
H923 H 0.77237 0.27759 0.32287 0.0
O924 O 0.63709 0.29635 0.23553 0.0
O925 O 0.65836 0.31762 0.33443 0.0
O926 O 0.66327 0.22265 0.3347 0.0
O927 O 0.71142 0.25496 0.40936 0.0
C928 C 0.80211 0.44649 0.38682 0.0
C929 C 0.76505 0.47083 0.41122 0.0
H930 H 0.68256 0.50873 0.43322 0.0
H931 H 0.61125 0.46598 0.43754 0.0
H932 H 0.84522 0.31218 0.29177 0.0
H933 H 0.86094 0.39105 0.32099 0.0
H934 H 0.83283 0.46396 0.37457 0.0
H935 H 0.76826 0.50624 0.41788 0.0
Mn936 Mn 0.74535 0.60513 0.32783 0.0
Mn937 Mn 0.69666 0.68896 0.4237 0.0
C938 C 0.69403 0.65895 0.27503 0.0
C939 C 0.74678 0.52871 0.27361 0.0
C940 C 0.79181 0.69548 0.37879 0.0
O941 O 0.75728 0.58346 0.4297 0.0
O942 O 0.72428 0.64231 0.47686 0.0
C943 C 0.62498 0.62442 0.4538 0.0
N944 N 0.63817 0.66727 0.44154 0.0
C945 C 0.56239 0.69302 0.43853 0.0
C946 C 0.54771 0.64959 0.45417 0.0
C947 C 0.57919 0.61494 0.46079 0.0
C948 C 0.60824 0.70018 0.43097 0.0
H949 H 0.64937 0.59788 0.45817 0.0
C950 C 0.74698 0.60691 0.48281 0.0
O951 O 0.78222 0.55268 0.28457 0.0
O952 O 0.71093 0.54741 0.29791 0.0
N953 N 0.66802 0.73973 0.38491 0.0
C954 C 0.68564 0.774 0.34763 0.0
C955 C 0.65819 0.81049 0.33015 0.0
C956 C 0.6134 0.81158 0.35225 0.0
C957 C 0.59566 0.77498 0.38817 0.0
C958 C 0.62452 0.73971 0.40442 0.0
H959 H 0.72012 0.77307 0.33092 0.0
O960 O 0.72091 0.63391 0.241 0.0
O961 O 0.69654 0.65126 0.34055 0.0
O962 O 0.79257 0.65746 0.34627 0.0
O963 O 0.7566 0.71193 0.4058 0.0
C964 C 0.54986 0.77048 0.40382 0.0
C965 C 0.53324 0.72908 0.42765 0.0
H966 H 0.51239 0.64237 0.46004 0.0
H967 H 0.56823 0.58117 0.47166 0.0
H968 H 0.67174 0.83809 0.30084 0.0
H969 H 0.59239 0.83968 0.33839 0.0
H970 H 0.52674 0.79753 0.39336 0.0
H971 H 0.49796 0.72444 0.43552 0.0
Mn972 Mn 0.40957 0.74981 0.32264 0.0
Mn973 Mn 0.32521 0.70229 0.41731 0.0
C974 C 0.35636 0.69906 0.26873 0.0
C975 C 0.48635 0.74812 0.27253 0.0
C976 C 0.32236 0.79856 0.37414 0.0
O977 O 0.42847 0.76426 0.4247 0.0
O978 O 0.37672 0.71992 0.47268 0.0
C979 C 0.37717 0.61887 0.43134 0.0
N980 N 0.33715 0.64021 0.4265 0.0
C981 C 0.29712 0.57076 0.42149 0.0
C982 C 0.33758 0.54773 0.43079 0.0
C983 C 0.37798 0.57187 0.43327 0.0
C984 C 0.29874 0.61729 0.41712 0.0
H985 H 0.40796 0.63782 0.43349 0.0
C986 C 0.40925 0.74743 0.47797 0.0
O987 O 0.46338 0.7845 0.28091 0.0
O988 O 0.46672 0.71328 0.29831 0.0
N989 N 0.27111 0.68413 0.37434 0.0
C990 C 0.24143 0.70827 0.33648 0.0
C991 C 0.20069 0.68846 0.31727 0.0
C992 C 0.19125 0.64416 0.33615 0.0
C993 C 0.22321 0.61957 0.37273 0.0
C994 C 0.26284 0.64116 0.39184 0.0
H995 H 0.24831 0.74262 0.32286 0.0
O996 O 0.38361 0.72389 0.23557 0.0
O997 O 0.36235 0.70263 0.33447 0.0
O998 O 0.35744 0.7976 0.33476 0.0
O999 O 0.30926 0.76529 0.40935 0.0
C1000 C 0.21865 0.57373 0.38683 0.0
C1001 C 0.25572 0.5494 0.41124 0.0
H1002 H 0.33823 0.51154 0.43323 0.0
H1003 H 0.40952 0.55432 0.43757 0.0
H1004 H 0.17548 0.70799 0.29174 0.0
H1005 H 0.15979 0.62913 0.32098 0.0
H1006 H 0.18793 0.55624 0.37458 0.0
H1007 H 0.25253 0.514 0.41789 0.0
Mn1008 Mn 0.27467 0.61326 0.17955 0.0
Mn1009 Mn 0.3257 0.69434 0.08186 0.0
C1010 C 0.32477 0.66735 0.23264 0.0
C1011 C 0.27366 0.53716 0.23522 0.0
C1012 C 0.23119 0.70628 0.12734 0.0
O1013 O 0.26341 0.5892 0.0789 0.0
O1014 O 0.29663 0.64725 0.03108 0.0
C1015 C 0.39393 0.6254 0.05479 0.0
N1016 N 0.38307 0.66904 0.06618 0.0
C1017 C 0.46013 0.69051 0.06875 0.0
C1018 C 0.4724 0.64631 0.05342 0.0
C1019 C 0.43911 0.61337 0.04777 0.0
C1020 C 0.41479 0.70019 0.0766 0.0
H1021 H 0.36823 0.60014 0.05093 0.0
C1022 C 0.27426 0.61165 0.02529 0.0
O1023 O 0.23803 0.56086 0.22386 0.0
O1024 O 0.3093 0.55601 0.21087 0.0
N1025 N 0.35682 0.74461 0.11772 0.0
C1026 C 0.34055 0.78173 0.14962 0.0
C1027 C 0.37015 0.81654 0.16681 0.0
C1028 C 0.41535 0.81393 0.14735 0.0
C1029 C 0.43132 0.77514 0.11515 0.0
C1030 C 0.40066 0.74105 0.10102 0.0
H1031 H 0.30584 0.7836 0.16469 0.0
O1032 O 0.29772 0.64239 0.26619 0.0
O1033 O 0.32381 0.65882 0.16717 0.0
O1034 O 0.22897 0.66763 0.1588 0.0
O1035 O 0.26675 0.72096 0.09879 0.0
C1036 C 0.47683 0.76777 0.10007 0.0
C1037 C 0.49116 0.72508 0.0781 0.0
H1038 H 0.50725 0.63717 0.04725 0.0
H1039 H 0.44819 0.57897 0.03743 0.0
H1040 H 0.35801 0.84559 0.19426 0.0
H1041 H 0.43789 0.84103 0.16019 0.0
H1042 H 0.50132 0.79385 0.10874 0.0
H1043 H 0.52605 0.7183 0.07008 0.0
Mn1044 Mn 0.41161 0.27661 0.18661 0.0
Mn1045 Mn 0.33098 0.32694 0.09002 0.0
C1046 C 0.35963 0.33011 0.23992 0.0
C1047 C 0.48858 0.27364 0.23574 0.0
C1048 C 0.32639 0.22992 0.13134 0.0
O1049 O 0.42734 0.25877 0.08365 0.0
O1050 O 0.38692 0.31471 0.04173 0.0
C1051 C 0.37806 0.41382 0.08057 0.0
N1052 N 0.3395 0.38992 0.08529 0.0
C1053 C 0.29498 0.45675 0.08905 0.0
C1054 C 0.33393 0.48225 0.07987 0.0
C1055 C 0.37579 0.46075 0.07786 0.0
C1056 C 0.29948 0.41033 0.09291 0.0
H1057 H 0.41005 0.39697 0.07871 0.0
C1058 C 0.40949 0.27894 0.03188 0.0
O1059 O 0.46336 0.23884 0.22791 0.0
O1060 O 0.47113 0.30963 0.20966 0.0
N1061 N 0.27515 0.34112 0.13134 0.0
C1062 C 0.24765 0.31532 0.17041 0.0
C1063 C 0.20596 0.33245 0.19049 0.0
C1064 C 0.19376 0.37631 0.17269 0.0
C1065 C 0.224 0.40311 0.13619 0.0
C1066 C 0.26467 0.38397 0.11591 0.0
H1067 H 0.25679 0.28151 0.18391 0.0
O1068 O 0.38715 0.30573 0.27349 0.0
O1069 O 0.36558 0.32519 0.17459 0.0
O1070 O 0.35806 0.2316 0.1765 0.0
O1071 O 0.31718 0.26239 0.09147 0.0
C1072 C 0.21684 0.44885 0.12367 0.0
C1073 C 0.25235 0.4756 0.09967 0.0
H1074 H 0.3323 0.5184 0.07722 0.0
H1075 H 0.40613 0.48028 0.07336 0.0
H1076 H 0.18242 0.3111 0.21622 0.0
H1077 H 0.16161 0.38935 0.18877 0.0
H1078 H 0.18523 0.46439 0.13674 0.0
H1079 H 0.24705 0.51097 0.09407 0.0
Mn1080 Mn 0.74603 0.40699 0.17955 0.0
Mn1081 Mn 0.69498 0.32593 0.08182 0.0
C1082 C 0.69592 0.3529 0.23262 0.0
C1083 C 0.74705 0.48308 0.23523 0.0
C1084 C 0.78948 0.31395 0.12733 0.0
O1085 O 0.7573 0.43104 0.07892 0.0
O1086 O 0.72408 0.373 0.03107 0.0
C1087 C 0.6268 0.39493 0.05474 0.0
N1088 N 0.63762 0.35128 0.06613 0.0
C1089 C 0.56054 0.32989 0.06869 0.0
C1090 C 0.54831 0.3741 0.05336 0.0
C1091 C 0.58163 0.407 0.04773 0.0
C1092 C 0.60587 0.32016 0.07654 0.0
H1093 H 0.65253 0.42016 0.05089 0.0
C1094 C 0.74646 0.40859 0.0253 0.0
O1095 O 0.78268 0.45937 0.22389 0.0
O1096 O 0.7114 0.46424 0.21087 0.0
N1097 N 0.6638 0.27568 0.11762 0.0
C1098 C 0.68005 0.23852 0.14947 0.0
C1099 C 0.65042 0.20374 0.16661 0.0
C1100 C 0.60521 0.2064 0.14717 0.0
C1101 C 0.58927 0.24522 0.11502 0.0
C1102 C 0.61997 0.27929 0.10094 0.0
H1103 H 0.71476 0.23662 0.16452 0.0
O1104 O 0.72298 0.37785 0.26618 0.0
O1105 O 0.69688 0.36143 0.16716 0.0
O1106 O 0.79171 0.35261 0.15879 0.0
O1107 O 0.75391 0.29928 0.09877 0.0
C1108 C 0.54377 0.25264 0.09995 0.0
C1109 C 0.52948 0.29535 0.07802 0.0
H1110 H 0.51347 0.38327 0.04719 0.0
H1111 H 0.57259 0.44141 0.03739 0.0
H1112 H 0.66254 0.17466 0.19402 0.0
H1113 H 0.58265 0.17931 0.15997 0.0
H1114 H 0.51926 0.22657 0.1086 0.0
H1115 H 0.49459 0.30216 0.07002 0.0
Mn1116 Mn 0.60909 0.74364 0.18663 0.0
Mn1117 Mn 0.68969 0.69327 0.09003 0.0
C1118 C 0.66107 0.69013 0.23994 0.0
C1119 C 0.53211 0.7466 0.23576 0.0
C1120 C 0.6943 0.79031 0.13135 0.0
O1121 O 0.59336 0.76148 0.08367 0.0
O1122 O 0.63372 0.70548 0.0418 0.0
C1123 C 0.64262 0.60638 0.08061 0.0
N1124 N 0.68118 0.63029 0.08533 0.0
C1125 C 0.72572 0.56347 0.08908 0.0
C1126 C 0.68677 0.53796 0.0799 0.0
C1127 C 0.6449 0.55945 0.0779 0.0
C1128 C 0.7212 0.6099 0.09294 0.0
H1129 H 0.61063 0.62322 0.07876 0.0
C1130 C 0.61121 0.74128 0.03192 0.0
O1131 O 0.55734 0.78141 0.22793 0.0
O1132 O 0.54956 0.71062 0.20967 0.0
N1133 N 0.74553 0.67911 0.13134 0.0
C1134 C 0.77303 0.70493 0.17041 0.0
C1135 C 0.81473 0.68781 0.19048 0.0
C1136 C 0.82694 0.64395 0.17269 0.0
C1137 C 0.7967 0.61714 0.1362 0.0
C1138 C 0.75602 0.63626 0.11592 0.0
H1139 H 0.76389 0.73874 0.1839 0.0
O1140 O 0.63354 0.71451 0.27352 0.0
O1141 O 0.65512 0.69505 0.17462 0.0
O1142 O 0.66264 0.78863 0.17654 0.0
O1143 O 0.70348 0.75783 0.09146 0.0
C1144 C 0.80386 0.5714 0.12368 0.0
C1145 C 0.76835 0.54464 0.0997 0.0
H1146 H 0.68841 0.50182 0.07725 0.0
H1147 H 0.61456 0.53991 0.0734 0.0
H1148 H 0.83828 0.70918 0.2162 0.0
H1149 H 0.8591 0.63092 0.18876 0.0
H1150 H 0.83548 0.55586 0.13675 0.0
H1151 H 0.77366 0.50927 0.0941 0.0
loop_
_geom_bond_atom_site_label_1
_geom_bond_atom_site_label_2
_geom_bond_distance
_geom_bond_site_symmetry_2
_ccdc_geom_bond_type
Mn0 O5 2.095 . S
Mn0 O15 2.162 . S
Mn0 O16 2.297 . S
Mn0 O24 2.385 . S
Mn0 O25 2.209 . S
Mn0 O26 2.094 . S
Mn1 O6 2.121 . S
Mn1 N8 2.257 . S
Mn1 N17 2.282 . S
Mn1 O25 2.215 . S
Mn1 O27 2.117 . S
C2 O24 1.234 . S
C2 O25 1.283 . S
C3 O15 1.281 . S
C3 O16 1.236 . S
C4 O26 1.240 . S
C4 O27 1.264 . S
O5 Mn0 2.095 . S
O5 C14 1.250 . S
O6 Mn1 2.121 . S
O6 C14 1.258 . S
C7 N8 1.326 . S
C7 C11 1.460 . S
C7 H13 0.929 . S
N8 Mn1 2.257 . S
N8 C7 1.326 . S
N8 C12 1.362 . S
C9 C10 1.258 . S
C9 C12 1.431 . S
C9 C29 1.449 . S
C10 C9 1.258 . S
C10 C11 1.477 . S
C10 H30 0.931 . S
C11 C7 1.460 . S
C11 C10 1.477 . S
C11 H31 0.930 1_554 S
C12 N8 1.362 . S
C12 C9 1.431 . S
C12 C22 1.476 . S
H13 C7 0.929 . S
C14 O5 1.250 . S
C14 O6 1.258 . S
O15 Mn0 2.162 . S
O15 C3 1.281 . S
O16 Mn0 2.297 . S
O16 C3 1.236 . S
N17 Mn1 2.282 . S
N17 C18 1.328 . S
N17 C22 1.318 . S
C18 N17 1.328 . S
C18 C19 1.457 . S
C18 H23 0.929 . S
C19 C18 1.457 . S
C19 C20 1.291 . S
C19 H32 0.931 . S
C20 C19 1.291 . S
C20 C21 1.373 . S
C20 H33 0.929 . S
C21 C20 1.373 . S
C21 C22 1.396 . S
C21 C28 1.403 . S
C22 C12 1.476 . S
C22 N17 1.318 . S
C22 C21 1.396 . S
H23 C18 0.929 . S
O24 Mn0 2.385 . S
O24 C2 1.234 . S
O25 Mn0 2.209 . S
O25 Mn1 2.215 . S
O25 C2 1.283 . S
O26 Mn0 2.094 . S
O26 C4 1.240 . S
O27 Mn1 2.117 . S
O27 C4 1.264 . S
C28 C21 1.403 . S
C28 C29 1.399 . S
C28 H34 0.929 . S
C29 C9 1.449 . S
C29 C28 1.399 . S
C29 H35 0.930 . S
H30 C10 0.931 . S
H31 C11 0.930 1_556 S
H32 C19 0.931 . S
H33 C20 0.929 . S
H34 C28 0.929 . S
H35 C29 0.930 . S
Mn36 O41 2.095 . S
Mn36 O51 2.162 . S
Mn36 O52 2.297 . S
Mn36 O60 2.385 . S
Mn36 O61 2.209 . S
Mn36 O62 2.094 . S
Mn37 O42 2.121 . S
Mn37 N44 2.257 . S
Mn37 N53 2.282 . S
Mn37 O61 2.215 . S
Mn37 O63 2.117 . S
C38 O60 1.234 . S
C38 O61 1.283 . S
C39 O51 1.281 . S
C39 O52 1.236 . S
C40 O62 1.240 . S
C40 O63 1.264 . S
O41 Mn36 2.095 . S
O41 C50 1.250 . S
O42 Mn37 2.121 . S
O42 C50 1.258 . S
C43 N44 1.326 . S
C43 C47 1.460 . S
C43 H49 0.929 . S
N44 Mn37 2.257 . S
N44 C43 1.326 . S
N44 C48 1.362 . S
C45 C46 1.258 . S
C45 C48 1.431 . S
C45 C65 1.449 . S
C46 C45 1.258 . S
C46 C47 1.477 . S
C46 H66 0.931 . S
C47 C43 1.460 . S
C47 C46 1.477 . S
C47 H67 0.930 1_554 S
C48 N44 1.362 . S
C48 C45 1.431 . S
C48 C58 1.476 . S
H49 C43 0.929 . S
C50 O41 1.250 . S
C50 O42 1.258 . S
O51 Mn36 2.162 . S
O51 C39 1.281 . S
O52 Mn36 2.297 . S
O52 C39 1.236 . S
N53 Mn37 2.282 . S
N53 C54 1.328 . S
N53 C58 1.318 . S
C54 N53 1.328 . S
C54 C55 1.457 . S
C54 H59 0.929 . S
C55 C54 1.457 . S
C55 C56 1.291 . S
C55 H68 0.931 . S
C56 C55 1.291 . S
C56 C57 1.373 . S
C56 H69 0.929 . S
C57 C56 1.373 . S
C57 C58 1.396 . S
C57 C64 1.403 . S
C58 C48 1.476 . S
C58 N53 1.318 . S
C58 C57 1.396 . S
H59 C54 0.929 . S
O60 Mn36 2.385 . S
O60 C38 1.234 . S
O61 Mn36 2.209 . S
O61 Mn37 2.215 . S
O61 C38 1.283 . S
O62 Mn36 2.094 . S
O62 C40 1.240 . S
O63 Mn37 2.117 . S
O63 C40 1.264 . S
C64 C57 1.403 . S
C64 C65 1.399 . S
C64 H70 0.929 . S
C65 C45 1.449 . S
C65 C64 1.399 . S
C65 H71 0.930 . S
H66 C46 0.931 . S
H67 C47 0.930 1_556 S
H68 C55 0.931 . S
H69 C56 0.929 . S
H70 C64 0.929 . S
H71 C65 0.930 . S
Mn72 O77 2.095 . S
Mn72 O87 2.162 . S
Mn72 O88 2.297 . S
Mn72 O96 2.385 . S
Mn72 O97 2.209 . S
Mn72 O98 2.094 . S
Mn73 O78 2.121 . S
Mn73 N80 2.257 . S
Mn73 N89 2.282 . S
Mn73 O97 2.215 . S
Mn73 O99 2.117 . S
C74 O96 1.234 . S
C74 O97 1.283 . S
C75 O87 1.281 . S
C75 O88 1.236 . S
C76 O98 1.240 . S
C76 O99 1.264 . S
O77 Mn72 2.095 . S
O77 C86 1.250 . S
O78 Mn73 2.121 . S
O78 C86 1.258 . S
C79 N80 1.326 . S
C79 C83 1.460 . S
C79 H85 0.929 . S
N80 Mn73 2.257 . S
N80 C79 1.326 . S
N80 C84 1.362 . S
C81 C82 1.258 . S
C81 C84 1.431 . S
C81 C101 1.449 . S
C82 C81 1.258 . S
C82 C83 1.477 . S
C82 H102 0.931 . S
C83 C79 1.460 . S
C83 C82 1.477 . S
C83 H103 0.930 1_554 S
C84 N80 1.362 . S
C84 C81 1.431 . S
C84 C94 1.476 . S
H85 C79 0.929 . S
C86 O77 1.250 . S
C86 O78 1.258 . S
O87 Mn72 2.162 . S
O87 C75 1.281 . S
O88 Mn72 2.297 . S
O88 C75 1.236 . S
N89 Mn73 2.282 . S
N89 C90 1.328 . S
N89 C94 1.318 . S
C90 N89 1.328 . S
C90 C91 1.457 . S
C90 H95 0.929 . S
C91 C90 1.457 . S
C91 C92 1.291 . S
C91 H104 0.931 . S
C92 C91 1.291 . S
C92 C93 1.373 . S
C92 H105 0.929 . S
C93 C92 1.373 . S
C93 C94 1.396 . S
C93 C100 1.403 . S
C94 C84 1.476 . S
C94 N89 1.318 . S
C94 C93 1.396 . S
H95 C90 0.929 . S
O96 Mn72 2.385 . S
O96 C74 1.234 . S
O97 Mn72 2.209 . S
O97 Mn73 2.215 . S
O97 C74 1.283 . S
O98 Mn72 2.094 . S
O98 C76 1.240 . S
O99 Mn73 2.117 . S
O99 C76 1.264 . S
C100 C93 1.403 . S
C100 C101 1.399 . S
C100 H106 0.929 . S
C101 C81 1.449 . S
C101 C100 1.399 . S
C101 H107 0.930 . S
H102 C82 0.931 . S
H103 C83 0.930 1_556 S
H104 C91 0.931 . S
H105 C92 0.929 . S
H106 C100 0.929 . S
H107 C101 0.930 . S
Mn108 O113 2.095 . S
Mn108 O123 2.162 . S
Mn108 O124 2.297 . S
Mn108 O132 2.385 . S
Mn108 O133 2.209 . S
Mn108 O134 2.094 . S
Mn109 O114 2.121 . S
Mn109 N116 2.257 . S
Mn109 N125 2.282 . S
Mn109 O133 2.215 . S
Mn109 O135 2.117 . S
C110 O132 1.234 . S
C110 O133 1.283 . S
C111 O123 1.281 . S
C111 O124 1.236 . S
C112 O134 1.240 . S
C112 O135 1.264 . S
O113 Mn108 2.095 . S
O113 C122 1.250 . S
O114 Mn109 2.121 . S
O114 C122 1.258 . S
C115 N116 1.326 . S
C115 C119 1.460 . S
C115 H121 0.929 . S
N116 Mn109 2.257 . S
N116 C115 1.326 . S
N116 C120 1.362 . S
C117 C118 1.258 . S
C117 C120 1.431 . S
C117 C137 1.449 . S
C118 C117 1.258 . S
C118 C119 1.477 . S
C118 H138 0.931 . S
C119 C115 1.460 . S
C119 C118 1.477 . S
C119 H139 0.930 1_554 S
C120 N116 1.362 . S
C120 C117 1.431 . S
C120 C130 1.476 . S
H121 C115 0.929 . S
C122 O113 1.250 . S
C122 O114 1.258 . S
O123 Mn108 2.162 . S
O123 C111 1.281 . S
O124 Mn108 2.297 . S
O124 C111 1.236 . S
N125 Mn109 2.282 . S
N125 C126 1.328 . S
N125 C130 1.318 . S
C126 N125 1.328 . S
C126 C127 1.457 . S
C126 H131 0.929 . S
C127 C126 1.457 . S
C127 C128 1.291 . S
C127 H140 0.931 . S
C128 C127 1.291 . S
C128 C129 1.373 . S
C128 H141 0.929 . S
C129 C128 1.373 . S
C129 C130 1.396 . S
C129 C136 1.403 . S
C130 C120 1.476 . S
C130 N125 1.318 . S
C130 C129 1.396 . S
H131 C126 0.929 . S
O132 Mn108 2.385 . S
O132 C110 1.234 . S
O133 Mn108 2.209 . S
O133 Mn109 2.215 . S
O133 C110 1.283 . S
O134 Mn108 2.094 . S
O134 C112 1.240 . S
O135 Mn109 2.117 . S
O135 C112 1.264 . S
C136 C129 1.403 . S
C136 C137 1.399 . S
C136 H142 0.929 . S
C137 C117 1.449 . S
C137 C136 1.399 . S
C137 H143 0.930 . S
H138 C118 0.931 . S
H139 C119 0.930 1_556 S
H140 C127 0.931 . S
H141 C128 0.929 . S
H142 C136 0.929 . S
H143 C137 0.930 . S
Mn144 O149 2.095 . S
Mn144 O159 2.162 . S
Mn144 O160 2.297 . S
Mn144 O168 2.385 . S
Mn144 O169 2.209 . S
Mn144 O170 2.094 . S
Mn145 O150 2.121 . S
Mn145 N152 2.257 . S
Mn145 N161 2.282 . S
Mn145 O169 2.215 . S
Mn145 O171 2.117 . S
C146 O168 1.234 . S
C146 O169 1.283 . S
C147 O159 1.281 . S
C147 O160 1.236 . S
C148 O170 1.240 . S
C148 O171 1.264 . S
O149 Mn144 2.095 . S
O149 C158 1.250 . S
O150 Mn145 2.121 . S
O150 C158 1.258 . S
C151 N152 1.326 . S
C151 C155 1.460 . S
C151 H157 0.929 . S
N152 Mn145 2.257 . S
N152 C151 1.326 . S
N152 C156 1.362 . S
C153 C154 1.258 . S
C153 C156 1.431 . S
C153 C173 1.449 . S
C154 C153 1.258 . S
C154 C155 1.477 . S
C154 H174 0.931 . S
C155 C151 1.460 . S
C155 C154 1.477 . S
C155 H175 0.930 . S
C156 N152 1.362 . S
C156 C153 1.431 . S
C156 C166 1.476 . S
H157 C151 0.929 . S
C158 O149 1.250 . S
C158 O150 1.258 . S
O159 Mn144 2.162 . S
O159 C147 1.281 . S
O160 Mn144 2.297 . S
O160 C147 1.236 . S
N161 Mn145 2.282 . S
N161 C162 1.328 . S
N161 C166 1.318 . S
C162 N161 1.328 . S
C162 C163 1.457 . S
C162 H167 0.929 . S
C163 C162 1.457 . S
C163 C164 1.291 . S
C163 H176 0.931 . S
C164 C163 1.291 . S
C164 C165 1.373 . S
C164 H177 0.929 . S
C165 C164 1.373 . S
C165 C166 1.396 . S
C165 C172 1.403 . S
C166 C156 1.476 . S
C166 N161 1.318 . S
C166 C165 1.396 . S
H167 C162 0.929 . S
O168 Mn144 2.385 . S
O168 C146 1.234 . S
O169 Mn144 2.209 . S
O169 Mn145 2.215 . S
O169 C146 1.283 . S
O170 Mn144 2.094 . S
O170 C148 1.240 . S
O171 Mn145 2.117 . S
O171 C148 1.264 . S
C172 C165 1.403 . S
C172 C173 1.399 . S
C172 H178 0.929 . S
C173 C153 1.449 . S
C173 C172 1.399 . S
C173 H179 0.930 . S
H174 C154 0.931 . S
H175 C155 0.930 . S
H176 C163 0.931 . S
H177 C164 0.929 . S
H178 C172 0.929 . S
H179 C173 0.930 . S
Mn180 O185 2.095 . S
Mn180 O195 2.162 . S
Mn180 O196 2.297 . S
Mn180 O204 2.385 . S
Mn180 O205 2.209 . S
Mn180 O206 2.094 . S
Mn181 O186 2.121 . S
Mn181 N188 2.257 . S
Mn181 N197 2.282 . S
Mn181 O205 2.215 . S
Mn181 O207 2.117 . S
C182 O204 1.234 . S
C182 O205 1.283 . S
C183 O195 1.281 . S
C183 O196 1.236 . S
C184 O206 1.240 . S
C184 O207 1.264 . S
O185 Mn180 2.095 . S
O185 C194 1.250 . S
O186 Mn181 2.121 . S
O186 C194 1.258 . S
C187 N188 1.326 . S
C187 C191 1.460 . S
C187 H193 0.929 . S
N188 Mn181 2.257 . S
N188 C187 1.326 . S
N188 C192 1.362 . S
C189 C190 1.258 . S
C189 C192 1.431 . S
C189 C209 1.449 . S
C190 C189 1.258 . S
C190 C191 1.477 . S
C190 H210 0.931 . S
C191 C187 1.460 . S
C191 C190 1.477 . S
C191 H211 0.930 . S
C192 N188 1.362 . S
C192 C189 1.431 . S
C192 C202 1.476 . S
H193 C187 0.929 . S
C194 O185 1.250 . S
C194 O186 1.258 . S
O195 Mn180 2.162 . S
O195 C183 1.281 . S
O196 Mn180 2.297 . S
O196 C183 1.236 . S
N197 Mn181 2.282 . S
N197 C198 1.328 . S
N197 C202 1.318 . S
C198 N197 1.328 . S
C198 C199 1.457 . S
C198 H203 0.929 . S
C199 C198 1.457 . S
C199 C200 1.291 . S
C199 H212 0.931 . S
C200 C199 1.291 . S
C200 C201 1.373 . S
C200 H213 0.929 . S
C201 C200 1.373 . S
C201 C202 1.396 . S
C201 C208 1.403 . S
C202 C192 1.476 . S
C202 N197 1.318 . S
C202 C201 1.396 . S
H203 C198 0.929 . S
O204 Mn180 2.385 . S
O204 C182 1.234 . S
O205 Mn180 2.209 . S
O205 Mn181 2.215 . S
O205 C182 1.283 . S
O206 Mn180 2.094 . S
O206 C184 1.240 . S
O207 Mn181 2.117 . S
O207 C184 1.264 . S
C208 C201 1.403 . S
C208 C209 1.399 . S
C208 H214 0.929 . S
C209 C189 1.449 . S
C209 C208 1.399 . S
C209 H215 0.930 . S
H210 C190 0.931 . S
H211 C191 0.930 . S
H212 C199 0.931 . S
H213 C200 0.929 . S
H214 C208 0.929 . S
H215 C209 0.930 . S
Mn216 O221 2.095 . S
Mn216 O231 2.162 . S
Mn216 O232 2.297 . S
Mn216 O240 2.385 . S
Mn216 O241 2.209 . S
Mn216 O242 2.094 . S
Mn217 O222 2.121 . S
Mn217 N224 2.257 . S
Mn217 N233 2.282 . S
Mn217 O241 2.215 . S
Mn217 O243 2.117 . S
C218 O240 1.234 . S
C218 O241 1.283 . S
C219 O231 1.281 . S
C219 O232 1.236 . S
C220 O242 1.240 . S
C220 O243 1.264 . S
O221 Mn216 2.095 . S
O221 C230 1.250 . S
O222 Mn217 2.121 . S
O222 C230 1.258 . S
C223 N224 1.326 . S
C223 C227 1.460 . S
C223 H229 0.929 . S
N224 Mn217 2.257 . S
N224 C223 1.326 . S
N224 C228 1.362 . S
C225 C226 1.258 . S
C225 C228 1.431 . S
C225 C245 1.449 . S
C226 C225 1.258 . S
C226 C227 1.477 . S
C226 H246 0.931 . S
C227 C223 1.460 . S
C227 C226 1.477 . S
C227 H247 0.930 . S
C228 N224 1.362 . S
C228 C225 1.431 . S
C228 C238 1.476 . S
H229 C223 0.929 . S
C230 O221 1.250 . S
C230 O222 1.258 . S
O231 Mn216 2.162 . S
O231 C219 1.281 . S
O232 Mn216 2.297 . S
O232 C219 1.236 . S
N233 Mn217 2.282 . S
N233 C234 1.328 . S
N233 C238 1.318 . S
C234 N233 1.328 . S
C234 C235 1.457 . S
C234 H239 0.929 . S
C235 C234 1.457 . S
C235 C236 1.291 . S
C235 H248 0.931 . S
C236 C235 1.291 . S
C236 C237 1.373 . S
C236 H249 0.929 . S
C237 C236 1.373 . S
C237 C238 1.396 . S
C237 C244 1.403 . S
C238 C228 1.476 . S
C238 N233 1.318 . S
C238 C237 1.396 . S
H239 C234 0.929 . S
O240 Mn216 2.385 . S
O240 C218 1.234 . S
O241 Mn216 2.209 . S
O241 Mn217 2.215 . S
O241 C218 1.283 . S
O242 Mn216 2.094 . S
O242 C220 1.240 . S
O243 Mn217 2.117 . S
O243 C220 1.264 . S
C244 C237 1.403 . S
C244 C245 1.399 . S
C244 H250 0.929 . S
C245 C225 1.449 . S
C245 C244 1.399 . S
C245 H251 0.930 . S
H246 C226 0.931 . S
H247 C227 0.930 . S
H248 C235 0.931 . S
H249 C236 0.929 . S
H250 C244 0.929 . S
H251 C245 0.930 . S
Mn252 O257 2.095 . S
Mn252 O267 2.162 . S
Mn252 O268 2.297 . S
Mn252 O276 2.385 . S
Mn252 O277 2.209 . S
Mn252 O278 2.094 . S
Mn253 O258 2.121 . S
Mn253 N260 2.257 . S
Mn253 N269 2.282 . S
Mn253 O277 2.215 . S
Mn253 O279 2.117 . S
C254 O276 1.234 . S
C254 O277 1.283 . S
C255 O267 1.281 . S
C255 O268 1.236 . S
C256 O278 1.240 . S
C256 O279 1.264 . S
O257 Mn252 2.095 . S
O257 C266 1.250 . S
O258 Mn253 2.121 . S
O258 C266 1.258 . S
C259 N260 1.326 . S
C259 C263 1.460 . S
C259 H265 0.929 . S
N260 Mn253 2.257 . S
N260 C259 1.326 . S
N260 C264 1.362 . S
C261 C262 1.258 . S
C261 C264 1.431 . S
C261 C281 1.449 . S
C262 C261 1.258 . S
C262 C263 1.477 . S
C262 H282 0.931 . S
C263 C259 1.460 . S
C263 C262 1.477 . S
C263 H283 0.930 . S
C264 N260 1.362 . S
C264 C261 1.431 . S
C264 C274 1.476 . S
H265 C259 0.929 . S
C266 O257 1.250 . S
C266 O258 1.258 . S
O267 Mn252 2.162 . S
O267 C255 1.281 . S
O268 Mn252 2.297 . S
O268 C255 1.236 . S
N269 Mn253 2.282 . S
N269 C270 1.328 . S
N269 C274 1.318 . S
C270 N269 1.328 . S
C270 C271 1.457 . S
C270 H275 0.929 . S
C271 C270 1.457 . S
C271 C272 1.291 . S
C271 H284 0.931 . S
C272 C271 1.291 . S
C272 C273 1.373 . S
C272 H285 0.929 . S
C273 C272 1.373 . S
C273 C274 1.396 . S
C273 C280 1.403 . S
C274 C264 1.476 . S
C274 N269 1.318 . S
C274 C273 1.396 . S
H275 C270 0.929 . S
O276 Mn252 2.385 . S
O276 C254 1.234 . S
O277 Mn252 2.209 . S
O277 Mn253 2.215 . S
O277 C254 1.283 . S
O278 Mn252 2.094 . S
O278 C256 1.240 . S
O279 Mn253 2.117 . S
O279 C256 1.264 . S
C280 C273 1.403 . S
C280 C281 1.399 . S
C280 H286 0.929 . S
C281 C261 1.449 . S
C281 C280 1.399 . S
C281 H287 0.930 . S
H282 C262 0.931 . S
H283 C263 0.930 . S
H284 C271 0.931 . S
H285 C272 0.929 . S
H286 C280 0.929 . S
H287 C281 0.930 . S
Mn288 O293 2.095 . S
Mn288 O303 2.162 . S
Mn288 O304 2.297 . S
Mn288 O312 2.385 . S
Mn288 O313 2.209 . S
Mn288 O314 2.094 . S
Mn289 O294 2.121 . S
Mn289 N296 2.257 . S
Mn289 N305 2.282 . S
Mn289 O313 2.215 . S
Mn289 O315 2.117 . S
C290 O312 1.234 . S
C290 O313 1.283 . S
C291 O303 1.281 . S
C291 O304 1.236 . S
C292 O314 1.240 . S
C292 O315 1.264 . S
O293 Mn288 2.095 . S
O293 C302 1.250 . S
O294 Mn289 2.121 . S
O294 C302 1.258 . S
C295 N296 1.326 . S
C295 C299 1.460 . S
C295 H301 0.929 . S
N296 Mn289 2.257 . S
N296 C295 1.326 . S
N296 C300 1.362 . S
C297 C298 1.258 . S
C297 C300 1.431 . S
C297 C317 1.449 . S
C298 C297 1.258 . S
C298 C299 1.477 . S
C298 H318 0.931 . S
C299 C295 1.460 . S
C299 C298 1.477 . S
C299 H319 0.930 1_556 S
C300 N296 1.362 . S
C300 C297 1.431 . S
C300 C310 1.476 . S
H301 C295 0.929 . S
C302 O293 1.250 . S
C302 O294 1.258 . S
O303 Mn288 2.162 . S
O303 C291 1.281 . S
O304 Mn288 2.297 . S
O304 C291 1.236 . S
N305 Mn289 2.282 . S
N305 C306 1.328 . S
N305 C310 1.318 . S
C306 N305 1.328 . S
C306 C307 1.457 . S
C306 H311 0.929 . S
C307 C306 1.457 . S
C307 C308 1.291 . S
C307 H320 0.931 . S
C308 C307 1.291 . S
C308 C309 1.373 . S
C308 H321 0.929 . S
C309 C308 1.373 . S
C309 C310 1.396 . S
C309 C316 1.403 . S
C310 C300 1.476 . S
C310 N305 1.318 . S
C310 C309 1.396 . S
H311 C306 0.929 . S
O312 Mn288 2.385 . S
O312 C290 1.234 . S
O313 Mn288 2.209 . S
O313 Mn289 2.215 . S
O313 C290 1.283 . S
O314 Mn288 2.094 . S
O314 C292 1.240 . S
O315 Mn289 2.117 . S
O315 C292 1.264 . S
C316 C309 1.403 . S
C316 C317 1.399 . S
C316 H322 0.929 . S
C317 C297 1.449 . S
C317 C316 1.399 . S
C317 H323 0.930 . S
H318 C298 0.931 . S
H319 C299 0.930 1_554 S
H320 C307 0.931 . S
H321 C308 0.929 . S
H322 C316 0.929 . S
H323 C317 0.930 . S
Mn324 O329 2.095 . S
Mn324 O339 2.162 . S
Mn324 O340 2.297 . S
Mn324 O348 2.385 . S
Mn324 O349 2.209 . S
Mn324 O350 2.094 . S
Mn325 O330 2.121 . S
Mn325 N332 2.257 . S
Mn325 N341 2.282 . S
Mn325 O349 2.215 . S
Mn325 O351 2.117 . S
C326 O348 1.234 . S
C326 O349 1.283 . S
C327 O339 1.281 . S
C327 O340 1.236 . S
C328 O350 1.240 . S
C328 O351 1.264 . S
O329 Mn324 2.095 . S
O329 C338 1.250 . S
O330 Mn325 2.121 . S
O330 C338 1.258 . S
C331 N332 1.326 . S
C331 C335 1.460 . S
C331 H337 0.929 . S
N332 Mn325 2.257 . S
N332 C331 1.326 . S
N332 C336 1.362 . S
C333 C334 1.258 . S
C333 C336 1.431 . S
C333 C353 1.449 . S
C334 C333 1.258 . S
C334 C335 1.477 . S
C334 H354 0.931 . S
C335 C331 1.460 . S
C335 C334 1.477 . S
C335 H355 0.930 1_556 S
C336 N332 1.362 . S
C336 C333 1.431 . S
C336 C346 1.476 . S
H337 C331 0.929 . S
C338 O329 1.250 . S
C338 O330 1.258 . S
O339 Mn324 2.162 . S
O339 C327 1.281 . S
O340 Mn324 2.297 . S
O340 C327 1.236 . S
N341 Mn325 2.282 . S
N341 C342 1.328 . S
N341 C346 1.318 . S
C342 N341 1.328 . S
C342 C343 1.457 . S
C342 H347 0.929 . S
C343 C342 1.457 . S
C343 C344 1.291 . S
C343 H356 0.931 . S
C344 C343 1.291 . S
C344 C345 1.373 . S
C344 H357 0.929 . S
C345 C344 1.373 . S
C345 C346 1.396 . S
C345 C352 1.403 . S
C346 C336 1.476 . S
C346 N341 1.318 . S
C346 C345 1.396 . S
H347 C342 0.929 . S
O348 Mn324 2.385 . S
O348 C326 1.234 . S
O349 Mn324 2.209 . S
O349 Mn325 2.215 . S
O349 C326 1.283 . S
O350 Mn324 2.094 . S
O350 C328 1.240 . S
O351 Mn325 2.117 . S
O351 C328 1.264 . S
C352 C345 1.403 . S
C352 C353 1.399 . S
C352 H358 0.929 . S
C353 C333 1.449 . S
C353 C352 1.399 . S
C353 H359 0.930 . S
H354 C334 0.931 . S
H355 C335 0.930 1_554 S
H356 C343 0.931 . S
H357 C344 0.929 . S
H358 C352 0.929 . S
H359 C353 0.930 . S
Mn360 O365 2.095 . S
Mn360 O375 2.162 . S
Mn360 O376 2.297 . S
Mn360 O384 2.385 . S
Mn360 O385 2.209 . S
Mn360 O386 2.094 . S
Mn361 O366 2.121 . S
Mn361 N368 2.257 . S
Mn361 N377 2.282 . S
Mn361 O385 2.215 . S
Mn361 O387 2.117 . S
C362 O384 1.234 . S
C362 O385 1.283 . S
C363 O375 1.281 . S
C363 O376 1.236 . S
C364 O386 1.240 . S
C364 O387 1.264 . S
O365 Mn360 2.095 . S
O365 C374 1.250 . S
O366 Mn361 2.121 . S
O366 C374 1.258 . S
C367 N368 1.326 . S
C367 C371 1.460 . S
C367 H373 0.929 . S
N368 Mn361 2.257 . S
N368 C367 1.326 . S
N368 C372 1.362 . S
C369 C370 1.258 . S
C369 C372 1.431 . S
C369 C389 1.449 . S
C370 C369 1.258 . S
C370 C371 1.477 . S
C370 H390 0.931 . S
C371 C367 1.460 . S
C371 C370 1.477 . S
C371 H391 0.930 1_556 S
C372 N368 1.362 . S
C372 C369 1.431 . S
C372 C382 1.476 . S
H373 C367 0.929 . S
C374 O365 1.250 . S
C374 O366 1.258 . S
O375 Mn360 2.162 . S
O375 C363 1.281 . S
O376 Mn360 2.297 . S
O376 C363 1.236 . S
N377 Mn361 2.282 . S
N377 C378 1.328 . S
N377 C382 1.318 . S
C378 N377 1.328 . S
C378 C379 1.457 . S
C378 H383 0.929 . S
C379 C378 1.457 . S
C379 C380 1.291 . S
C379 H392 0.931 . S
C380 C379 1.291 . S
C380 C381 1.373 . S
C380 H393 0.929 . S
C381 C380 1.373 . S
C381 C382 1.396 . S
C381 C388 1.403 . S
C382 C372 1.476 . S
C382 N377 1.318 . S
C382 C381 1.396 . S
H383 C378 0.929 . S
O384 Mn360 2.385 . S
O384 C362 1.234 . S
O385 Mn360 2.209 . S
O385 Mn361 2.215 . S
O385 C362 1.283 . S
O386 Mn360 2.094 . S
O386 C364 1.240 . S
O387 Mn361 2.117 . S
O387 C364 1.264 . S
C388 C381 1.403 . S
C388 C389 1.399 . S
C388 H394 0.929 . S
C389 C369 1.449 . S
C389 C388 1.399 . S
C389 H395 0.930 . S
H390 C370 0.931 . S
H391 C371 0.930 1_554 S
H392 C379 0.931 . S
H393 C380 0.929 . S
H394 C388 0.929 . S
H395 C389 0.930 . S
Mn396 O401 2.095 . S
Mn396 O411 2.162 . S
Mn396 O412 2.297 . S
Mn396 O420 2.385 . S
Mn396 O421 2.209 . S
Mn396 O422 2.094 . S
Mn397 O402 2.121 . S
Mn397 N404 2.257 . S
Mn397 N413 2.282 . S
Mn397 O421 2.215 . S
Mn397 O423 2.117 . S
C398 O420 1.234 . S
C398 O421 1.283 . S
C399 O411 1.281 . S
C399 O412 1.236 . S
C400 O422 1.240 . S
C400 O423 1.264 . S
O401 Mn396 2.095 . S
O401 C410 1.250 . S
O402 Mn397 2.121 . S
O402 C410 1.258 . S
C403 N404 1.326 . S
C403 C407 1.460 . S
C403 H409 0.929 . S
N404 Mn397 2.257 . S
N404 C403 1.326 . S
N404 C408 1.362 . S
C405 C406 1.258 . S
C405 C408 1.431 . S
C405 C425 1.449 . S
C406 C405 1.258 . S
C406 C407 1.477 . S
C406 H426 0.931 . S
C407 C403 1.460 . S
C407 C406 1.477 . S
C407 H427 0.930 1_556 S
C408 N404 1.362 . S
C408 C405 1.431 . S
C408 C418 1.476 . S
H409 C403 0.929 . S
C410 O401 1.250 . S
C410 O402 1.258 . S
O411 Mn396 2.162 . S
O411 C399 1.281 . S
O412 Mn396 2.297 . S
O412 C399 1.236 . S
N413 Mn397 2.282 . S
N413 C414 1.328 . S
N413 C418 1.318 . S
C414 N413 1.328 . S
C414 C415 1.457 . S
C414 H419 0.929 . S
C415 C414 1.457 . S
C415 C416 1.291 . S
C415 H428 0.931 . S
C416 C415 1.291 . S
C416 C417 1.373 . S
C416 H429 0.929 . S
C417 C416 1.373 . S
C417 C418 1.396 . S
C417 C424 1.403 . S
C418 C408 1.476 . S
C418 N413 1.318 . S
C418 C417 1.396 . S
H419 C414 0.929 . S
O420 Mn396 2.385 . S
O420 C398 1.234 . S
O421 Mn396 2.209 . S
O421 Mn397 2.215 . S
O421 C398 1.283 . S
O422 Mn396 2.094 . S
O422 C400 1.240 . S
O423 Mn397 2.117 . S
O423 C400 1.264 . S
C424 C417 1.403 . S
C424 C425 1.399 . S
C424 H430 0.929 . S
C425 C405 1.449 . S
C425 C424 1.399 . S
C425 H431 0.930 . S
H426 C406 0.931 . S
H427 C407 0.930 1_554 S
H428 C415 0.931 . S
H429 C416 0.929 . S
H430 C424 0.929 . S
H431 C425 0.930 . S
Mn432 O437 2.095 . S
Mn432 O447 2.162 . S
Mn432 O448 2.297 . S
Mn432 O456 2.385 . S
Mn432 O457 2.209 . S
Mn432 O458 2.094 . S
Mn433 O438 2.121 . S
Mn433 N440 2.257 . S
Mn433 N449 2.282 . S
Mn433 O457 2.215 . S
Mn433 O459 2.117 . S
C434 O456 1.234 . S
C434 O457 1.283 . S
C435 O447 1.281 . S
C435 O448 1.236 . S
C436 O458 1.240 . S
C436 O459 1.264 . S
O437 Mn432 2.095 . S
O437 C446 1.250 . S
O438 Mn433 2.121 . S
O438 C446 1.258 . S
C439 N440 1.326 . S
C439 C443 1.460 . S
C439 H445 0.929 . S
N440 Mn433 2.257 . S
N440 C439 1.326 . S
N440 C444 1.362 . S
C441 C442 1.258 . S
C441 C444 1.431 . S
C441 C461 1.449 . S
C442 C441 1.258 . S
C442 C443 1.477 . S
C442 H462 0.931 . S
C443 C439 1.460 . S
C443 C442 1.477 . S
C443 H463 0.930 . S
C444 N440 1.362 . S
C444 C441 1.431 . S
C444 C454 1.476 . S
H445 C439 0.929 . S
C446 O437 1.250 . S
C446 O438 1.258 . S
O447 Mn432 2.162 . S
O447 C435 1.281 . S
O448 Mn432 2.297 . S
O448 C435 1.236 . S
N449 Mn433 2.282 . S
N449 C450 1.328 . S
N449 C454 1.318 . S
C450 N449 1.328 . S
C450 C451 1.457 . S
C450 H455 0.929 . S
C451 C450 1.457 . S
C451 C452 1.291 . S
C451 H464 0.931 . S
C452 C451 1.291 . S
C452 C453 1.373 . S
C452 H465 0.929 . S
C453 C452 1.373 . S
C453 C454 1.396 . S
C453 C460 1.403 . S
C454 C444 1.476 . S
C454 N449 1.318 . S
C454 C453 1.396 . S
H455 C450 0.929 . S
O456 Mn432 2.385 . S
O456 C434 1.234 . S
O457 Mn432 2.209 . S
O457 Mn433 2.215 . S
O457 C434 1.283 . S
O458 Mn432 2.094 . S
O458 C436 1.240 . S
O459 Mn433 2.117 . S
O459 C436 1.264 . S
C460 C453 1.403 . S
C460 C461 1.399 . S
C460 H466 0.929 . S
C461 C441 1.449 . S
C461 C460 1.399 . S
C461 H467 0.930 . S
H462 C442 0.931 . S
H463 C443 0.930 . S
H464 C451 0.931 . S
H465 C452 0.929 . S
H466 C460 0.929 . S
H467 C461 0.930 . S
Mn468 O473 2.095 . S
Mn468 O483 2.162 . S
Mn468 O484 2.297 . S
Mn468 O492 2.385 . S
Mn468 O493 2.209 . S
Mn468 O494 2.094 . S
Mn469 O474 2.121 . S
Mn469 N476 2.257 . S
Mn469 N485 2.282 . S
Mn469 O493 2.215 . S
Mn469 O495 2.117 . S
C470 O492 1.234 . S
C470 O493 1.283 . S
C471 O483 1.281 . S
C471 O484 1.236 . S
C472 O494 1.240 . S
C472 O495 1.264 . S
O473 Mn468 2.095 . S
O473 C482 1.250 . S
O474 Mn469 2.121 . S
O474 C482 1.258 . S
C475 N476 1.326 . S
C475 C479 1.460 . S
C475 H481 0.929 . S
N476 Mn469 2.257 . S
N476 C475 1.326 . S
N476 C480 1.362 . S
C477 C478 1.258 . S
C477 C480 1.431 . S
C477 C497 1.449 . S
C478 C477 1.258 . S
C478 C479 1.477 . S
C478 H498 0.931 . S
C479 C475 1.460 . S
C479 C478 1.477 . S
C479 H499 0.930 . S
C480 N476 1.362 . S
C480 C477 1.431 . S
C480 C490 1.476 . S
H481 C475 0.929 . S
C482 O473 1.250 . S
C482 O474 1.258 . S
O483 Mn468 2.162 . S
O483 C471 1.281 . S
O484 Mn468 2.297 . S
O484 C471 1.236 . S
N485 Mn469 2.282 . S
N485 C486 1.328 . S
N485 C490 1.318 . S
C486 N485 1.328 . S
C486 C487 1.457 . S
C486 H491 0.929 . S
C487 C486 1.457 . S
C487 C488 1.291 . S
C487 H500 0.931 . S
C488 C487 1.291 . S
C488 C489 1.373 . S
C488 H501 0.929 . S
C489 C488 1.373 . S
C489 C490 1.396 . S
C489 C496 1.403 . S
C490 C480 1.476 . S
C490 N485 1.318 . S
C490 C489 1.396 . S
H491 C486 0.929 . S
O492 Mn468 2.385 . S
O492 C470 1.234 . S
O493 Mn468 2.209 . S
O493 Mn469 2.215 . S
O493 C470 1.283 . S
O494 Mn468 2.094 . S
O494 C472 1.240 . S
O495 Mn469 2.117 . S
O495 C472 1.264 . S
C496 C489 1.403 . S
C496 C497 1.399 . S
C496 H502 0.929 . S
C497 C477 1.449 . S
C497 C496 1.399 . S
C497 H503 0.930 . S
H498 C478 0.931 . S
H499 C479 0.930 . S
H500 C487 0.931 . S
H501 C488 0.929 . S
H502 C496 0.929 . S
H503 C497 0.930 . S
Mn504 O509 2.095 . S
Mn504 O519 2.162 . S
Mn504 O520 2.297 . S
Mn504 O528 2.385 . S
Mn504 O529 2.209 . S
Mn504 O530 2.094 . S
Mn505 O510 2.121 . S
Mn505 N512 2.257 . S
Mn505 N521 2.282 . S
Mn505 O529 2.215 . S
Mn505 O531 2.117 . S
C506 O528 1.234 . S
C506 O529 1.283 . S
C507 O519 1.281 . S
C507 O520 1.236 . S
C508 O530 1.240 . S
C508 O531 1.264 . S
O509 Mn504 2.095 . S
O509 C518 1.250 . S
O510 Mn505 2.121 . S
O510 C518 1.258 . S
C511 N512 1.326 . S
C511 C515 1.460 . S
C511 H517 0.929 . S
N512 Mn505 2.257 . S
N512 C511 1.326 . S
N512 C516 1.362 . S
C513 C514 1.258 . S
C513 C516 1.431 . S
C513 C533 1.449 . S
C514 C513 1.258 . S
C514 C515 1.477 . S
C514 H534 0.931 . S
C515 C511 1.460 . S
C515 C514 1.477 . S
C515 H535 0.930 . S
C516 N512 1.362 . S
C516 C513 1.431 . S
C516 C526 1.476 . S
H517 C511 0.929 . S
C518 O509 1.250 . S
C518 O510 1.258 . S
O519 Mn504 2.162 . S
O519 C507 1.281 . S
O520 Mn504 2.297 . S
O520 C507 1.236 . S
N521 Mn505 2.282 . S
N521 C522 1.328 . S
N521 C526 1.318 . S
C522 N521 1.328 . S
C522 C523 1.457 . S
C522 H527 0.929 . S
C523 C522 1.457 . S
C523 C524 1.291 . S
C523 H536 0.931 . S
C524 C523 1.291 . S
C524 C525 1.373 . S
C524 H537 0.929 . S
C525 C524 1.373 . S
C525 C526 1.396 . S
C525 C532 1.403 . S
C526 C516 1.476 . S
C526 N521 1.318 . S
C526 C525 1.396 . S
H527 C522 0.929 . S
O528 Mn504 2.385 . S
O528 C506 1.234 . S
O529 Mn504 2.209 . S
O529 Mn505 2.215 . S
O529 C506 1.283 . S
O530 Mn504 2.094 . S
O530 C508 1.240 . S
O531 Mn505 2.117 . S
O531 C508 1.264 . S
C532 C525 1.403 . S
C532 C533 1.399 . S
C532 H538 0.929 . S
C533 C513 1.449 . S
C533 C532 1.399 . S
C533 H539 0.930 . S
H534 C514 0.931 . S
H535 C515 0.930 . S
H536 C523 0.931 . S
H537 C524 0.929 . S
H538 C532 0.929 . S
H539 C533 0.930 . S
Mn540 O545 2.095 . S
Mn540 O555 2.162 . S
Mn540 O556 2.297 . S
Mn540 O564 2.385 . S
Mn540 O565 2.209 . S
Mn540 O566 2.094 . S
Mn541 O546 2.121 . S
Mn541 N548 2.257 . S
Mn541 N557 2.282 . S
Mn541 O565 2.215 . S
Mn541 O567 2.117 . S
C542 O564 1.234 . S
C542 O565 1.283 . S
C543 O555 1.281 . S
C543 O556 1.236 . S
C544 O566 1.240 . S
C544 O567 1.264 . S
O545 Mn540 2.095 . S
O545 C554 1.250 . S
O546 Mn541 2.121 . S
O546 C554 1.258 . S
C547 N548 1.326 . S
C547 C551 1.460 . S
C547 H553 0.929 . S
N548 Mn541 2.257 . S
N548 C547 1.326 . S
N548 C552 1.362 . S
C549 C550 1.258 . S
C549 C552 1.431 . S
C549 C569 1.449 . S
C550 C549 1.258 . S
C550 C551 1.477 . S
C550 H570 0.931 . S
C551 C547 1.460 . S
C551 C550 1.477 . S
C551 H571 0.930 . S
C552 N548 1.362 . S
C552 C549 1.431 . S
C552 C562 1.476 . S
H553 C547 0.929 . S
C554 O545 1.250 . S
C554 O546 1.258 . S
O555 Mn540 2.162 . S
O555 C543 1.281 . S
O556 Mn540 2.297 . S
O556 C543 1.236 . S
N557 Mn541 2.282 . S
N557 C558 1.328 . S
N557 C562 1.318 . S
C558 N557 1.328 . S
C558 C559 1.457 . S
C558 H563 0.929 . S
C559 C558 1.457 . S
C559 C560 1.291 . S
C559 H572 0.931 . S
C560 C559 1.291 . S
C560 C561 1.373 . S
C560 H573 0.929 . S
C561 C560 1.373 . S
C561 C562 1.396 . S
C561 C568 1.403 . S
C562 C552 1.476 . S
C562 N557 1.318 . S
C562 C561 1.396 . S
H563 C558 0.929 . S
O564 Mn540 2.385 . S
O564 C542 1.234 . S
O565 Mn540 2.209 . S
O565 Mn541 2.215 . S
O565 C542 1.283 . S
O566 Mn540 2.094 . S
O566 C544 1.240 . S
O567 Mn541 2.117 . S
O567 C544 1.264 . S
C568 C561 1.403 . S
C568 C569 1.399 . S
C568 H574 0.929 . S
C569 C549 1.449 . S
C569 C568 1.399 . S
C569 H575 0.930 . S
H570 C550 0.931 . S
H571 C551 0.930 . S
H572 C559 0.931 . S
H573 C560 0.929 . S
H574 C568 0.929 . S
H575 C569 0.930 . S
Mn576 O581 2.095 . S
Mn576 O591 2.162 . S
Mn576 O592 2.297 . S
Mn576 O600 2.385 . S
Mn576 O601 2.209 . S
Mn576 O602 2.094 . S
Mn577 O582 2.121 . S
Mn577 N584 2.257 . S
Mn577 N593 2.282 . S
Mn577 O601 2.215 . S
Mn577 O603 2.117 . S
C578 O600 1.234 . S
C578 O601 1.283 . S
C579 O591 1.281 . S
C579 O592 1.236 . S
C580 O602 1.240 . S
C580 O603 1.264 . S
O581 Mn576 2.095 . S
O581 C590 1.250 . S
O582 Mn577 2.121 . S
O582 C590 1.258 . S
C583 N584 1.326 . S
C583 C587 1.460 . S
C583 H589 0.929 . S
N584 Mn577 2.257 . S
N584 C583 1.326 . S
N584 C588 1.362 . S
C585 C586 1.258 . S
C585 C588 1.431 . S
C585 C605 1.449 . S
C586 C585 1.258 . S
C586 C587 1.477 . S
C586 H606 0.931 . S
C587 C583 1.460 . S
C587 C586 1.477 . S
C587 H607 0.930 . S
C588 N584 1.362 . S
C588 C585 1.431 . S
C588 C598 1.476 . S
H589 C583 0.929 . S
C590 O581 1.250 . S
C590 O582 1.258 . S
O591 Mn576 2.162 . S
O591 C579 1.281 . S
O592 Mn576 2.297 . S
O592 C579 1.236 . S
N593 Mn577 2.282 . S
N593 C594 1.328 . S
N593 C598 1.318 . S
C594 N593 1.328 . S
C594 C595 1.457 . S
C594 H599 0.929 . S
C595 C594 1.457 . S
C595 C596 1.291 . S
C595 H608 0.931 . S
C596 C595 1.291 . S
C596 C597 1.373 . S
C596 H609 0.929 . S
C597 C596 1.373 . S
C597 C598 1.396 . S
C597 C604 1.403 . S
C598 C588 1.476 . S
C598 N593 1.318 . S
C598 C597 1.396 . S
H599 C594 0.929 . S
O600 Mn576 2.385 . S
O600 C578 1.234 . S
O601 Mn576 2.209 . S
O601 Mn577 2.215 . S
O601 C578 1.283 . S
O602 Mn576 2.094 . S
O602 C580 1.240 . S
O603 Mn577 2.117 . S
O603 C580 1.264 . S
C604 C597 1.403 . S
C604 C605 1.399 . S
C604 H610 0.929 . S
C605 C585 1.449 . S
C605 C604 1.399 . S
C605 H611 0.930 . S
H606 C586 0.931 . S
H607 C587 0.930 . S
H608 C595 0.931 . S
H609 C596 0.929 . S
H610 C604 0.929 . S
H611 C605 0.930 . S
Mn612 O617 2.095 . S
Mn612 O627 2.162 . S
Mn612 O628 2.297 . S
Mn612 O636 2.385 . S
Mn612 O637 2.209 . S
Mn612 O638 2.094 . S
Mn613 O618 2.121 . S
Mn613 N620 2.257 . S
Mn613 N629 2.282 . S
Mn613 O637 2.215 . S
Mn613 O639 2.117 . S
C614 O636 1.234 . S
C614 O637 1.283 . S
C615 O627 1.281 . S
C615 O628 1.236 . S
C616 O638 1.240 . S
C616 O639 1.264 . S
O617 Mn612 2.095 . S
O617 C626 1.250 . S
O618 Mn613 2.121 . S
O618 C626 1.258 . S
C619 N620 1.326 . S
C619 C623 1.460 . S
C619 H625 0.929 . S
N620 Mn613 2.257 . S
N620 C619 1.326 . S
N620 C624 1.362 . S
C621 C622 1.258 . S
C621 C624 1.431 . S
C621 C641 1.449 . S
C622 C621 1.258 . S
C622 C623 1.477 . S
C622 H642 0.931 . S
C623 C619 1.460 . S
C623 C622 1.477 . S
C623 H643 0.930 . S
C624 N620 1.362 . S
C624 C621 1.431 . S
C624 C634 1.476 . S
H625 C619 0.929 . S
C626 O617 1.250 . S
C626 O618 1.258 . S
O627 Mn612 2.162 . S
O627 C615 1.281 . S
O628 Mn612 2.297 . S
O628 C615 1.236 . S
N629 Mn613 2.282 . S
N629 C630 1.328 . S
N629 C634 1.318 . S
C630 N629 1.328 . S
C630 C631 1.457 . S
C630 H635 0.929 . S
C631 C630 1.457 . S
C631 C632 1.291 . S
C631 H644 0.931 . S
C632 C631 1.291 . S
C632 C633 1.373 . S
C632 H645 0.929 . S
C633 C632 1.373 . S
C633 C634 1.396 . S
C633 C640 1.403 . S
C634 C624 1.476 . S
C634 N629 1.318 . S
C634 C633 1.396 . S
H635 C630 0.929 . S
O636 Mn612 2.385 . S
O636 C614 1.234 . S
O637 Mn612 2.209 . S
O637 Mn613 2.215 . S
O637 C614 1.283 . S
O638 Mn612 2.094 . S
O638 C616 1.240 . S
O639 Mn613 2.117 . S
O639 C616 1.264 . S
C640 C633 1.403 . S
C640 C641 1.399 . S
C640 H646 0.929 . S
C641 C621 1.449 . S
C641 C640 1.399 . S
C641 H647 0.930 . S
H642 C622 0.931 . S
H643 C623 0.930 . S
H644 C631 0.931 . S
H645 C632 0.929 . S
H646 C640 0.929 . S
H647 C641 0.930 . S
Mn648 O653 2.095 . S
Mn648 O663 2.162 . S
Mn648 O664 2.297 . S
Mn648 O672 2.385 . S
Mn648 O673 2.209 . S
Mn648 O674 2.094 . S
Mn649 O654 2.121 . S
Mn649 N656 2.257 . S
Mn649 N665 2.282 . S
Mn649 O673 2.215 . S
Mn649 O675 2.117 . S
C650 O672 1.234 . S
C650 O673 1.283 . S
C651 O663 1.281 . S
C651 O664 1.236 . S
C652 O674 1.240 . S
C652 O675 1.264 . S
O653 Mn648 2.095 . S
O653 C662 1.250 . S
O654 Mn649 2.121 . S
O654 C662 1.258 . S
C655 N656 1.326 . S
C655 C659 1.460 . S
C655 H661 0.929 . S
N656 Mn649 2.257 . S
N656 C655 1.326 . S
N656 C660 1.362 . S
C657 C658 1.258 . S
C657 C660 1.431 . S
C657 C677 1.449 . S
C658 C657 1.258 . S
C658 C659 1.477 . S
C658 H678 0.931 . S
C659 C655 1.460 . S
C659 C658 1.477 . S
C659 H679 0.930 . S
C660 N656 1.362 . S
C660 C657 1.431 . S
C660 C670 1.476 . S
H661 C655 0.929 . S
C662 O653 1.250 . S
C662 O654 1.258 . S
O663 Mn648 2.162 . S
O663 C651 1.281 . S
O664 Mn648 2.297 . S
O664 C651 1.236 . S
N665 Mn649 2.282 . S
N665 C666 1.328 . S
N665 C670 1.318 . S
C666 N665 1.328 . S
C666 C667 1.457 . S
C666 H671 0.929 . S
C667 C666 1.457 . S
C667 C668 1.291 . S
C667 H680 0.931 . S
C668 C667 1.291 . S
C668 C669 1.373 . S
C668 H681 0.929 . S
C669 C668 1.373 . S
C669 C670 1.396 . S
C669 C676 1.403 . S
C670 C660 1.476 . S
C670 N665 1.318 . S
C670 C669 1.396 . S
H671 C666 0.929 . S
O672 Mn648 2.385 . S
O672 C650 1.234 . S
O673 Mn648 2.209 . S
O673 Mn649 2.215 . S
O673 C650 1.283 . S
O674 Mn648 2.094 . S
O674 C652 1.240 . S
O675 Mn649 2.117 . S
O675 C652 1.264 . S
C676 C669 1.403 . S
C676 C677 1.399 . S
C676 H682 0.929 . S
C677 C657 1.449 . S
C677 C676 1.399 . S
C677 H683 0.930 . S
H678 C658 0.931 . S
H679 C659 0.930 . S
H680 C667 0.931 . S
H681 C668 0.929 . S
H682 C676 0.929 . S
H683 C677 0.930 . S
Mn684 O689 2.095 . S
Mn684 O699 2.162 . S
Mn684 O700 2.297 . S
Mn684 O708 2.385 . S
Mn684 O709 2.209 . S
Mn684 O710 2.094 . S
Mn685 O690 2.121 . S
Mn685 N692 2.257 . S
Mn685 N701 2.282 . S
Mn685 O709 2.215 . S
Mn685 O711 2.117 . S
C686 O708 1.234 . S
C686 O709 1.283 . S
C687 O699 1.281 . S
C687 O700 1.236 . S
C688 O710 1.240 . S
C688 O711 1.264 . S
O689 Mn684 2.095 . S
O689 C698 1.250 . S
O690 Mn685 2.121 . S
O690 C698 1.258 . S
C691 N692 1.326 . S
C691 C695 1.460 . S
C691 H697 0.929 . S
N692 Mn685 2.257 . S
N692 C691 1.326 . S
N692 C696 1.362 . S
C693 C694 1.258 . S
C693 C696 1.431 . S
C693 C713 1.449 . S
C694 C693 1.258 . S
C694 C695 1.477 . S
C694 H714 0.931 . S
C695 C691 1.460 . S
C695 C694 1.477 . S
C695 H715 0.930 . S
C696 N692 1.362 . S
C696 C693 1.431 . S
C696 C706 1.476 . S
H697 C691 0.929 . S
C698 O689 1.250 . S
C698 O690 1.258 . S
O699 Mn684 2.162 . S
O699 C687 1.281 . S
O700 Mn684 2.297 . S
O700 C687 1.236 . S
N701 Mn685 2.282 . S
N701 C702 1.328 . S
N701 C706 1.318 . S
C702 N701 1.328 . S
C702 C703 1.457 . S
C702 H707 0.929 . S
C703 C702 1.457 . S
C703 C704 1.291 . S
C703 H716 0.931 . S
C704 C703 1.291 . S
C704 C705 1.373 . S
C704 H717 0.929 . S
C705 C704 1.373 . S
C705 C706 1.396 . S
C705 C712 1.403 . S
C706 C696 1.476 . S
C706 N701 1.318 . S
C706 C705 1.396 . S
H707 C702 0.929 . S
O708 Mn684 2.385 . S
O708 C686 1.234 . S
O709 Mn684 2.209 . S
O709 Mn685 2.215 . S
O709 C686 1.283 . S
O710 Mn684 2.094 . S
O710 C688 1.240 . S
O711 Mn685 2.117 . S
O711 C688 1.264 . S
C712 C705 1.403 . S
C712 C713 1.399 . S
C712 H718 0.929 . S
C713 C693 1.449 . S
C713 C712 1.399 . S
C713 H719 0.930 . S
H714 C694 0.931 . S
H715 C695 0.930 . S
H716 C703 0.931 . S
H717 C704 0.929 . S
H718 C712 0.929 . S
H719 C713 0.930 . S
Mn720 O725 2.095 . S
Mn720 O735 2.162 . S
Mn720 O736 2.297 . S
Mn720 O744 2.385 . S
Mn720 O745 2.209 . S
Mn720 O746 2.094 . S
Mn721 O726 2.121 . S
Mn721 N728 2.257 . S
Mn721 N737 2.282 . S
Mn721 O745 2.215 . S
Mn721 O747 2.117 . S
C722 O744 1.234 . S
C722 O745 1.283 . S
C723 O735 1.281 . S
C723 O736 1.236 . S
C724 O746 1.240 . S
C724 O747 1.264 . S
O725 Mn720 2.095 . S
O725 C734 1.250 . S
O726 Mn721 2.121 . S
O726 C734 1.258 . S
C727 N728 1.326 . S
C727 C731 1.460 . S
C727 H733 0.929 . S
N728 Mn721 2.257 . S
N728 C727 1.326 . S
N728 C732 1.362 . S
C729 C730 1.258 . S
C729 C732 1.431 . S
C729 C749 1.449 . S
C730 C729 1.258 . S
C730 C731 1.477 . S
C730 H750 0.931 . S
C731 C727 1.460 . S
C731 C730 1.477 . S
C731 H751 0.930 1_556 S
C732 N728 1.362 . S
C732 C729 1.431 . S
C732 C742 1.476 . S
H733 C727 0.929 . S
C734 O725 1.250 . S
C734 O726 1.258 . S
O735 Mn720 2.162 . S
O735 C723 1.281 . S
O736 Mn720 2.297 . S
O736 C723 1.236 . S
N737 Mn721 2.282 . S
N737 C738 1.328 . S
N737 C742 1.318 . S
C738 N737 1.328 . S
C738 C739 1.457 . S
C738 H743 0.929 . S
C739 C738 1.457 . S
C739 C740 1.291 . S
C739 H752 0.931 . S
C740 C739 1.291 . S
C740 C741 1.373 . S
C740 H753 0.929 . S
C741 C740 1.373 . S
C741 C742 1.396 . S
C741 C748 1.403 . S
C742 C732 1.476 . S
C742 N737 1.318 . S
C742 C741 1.396 . S
H743 C738 0.929 . S
O744 Mn720 2.385 . S
O744 C722 1.234 . S
O745 Mn720 2.209 . S
O745 Mn721 2.215 . S
O745 C722 1.283 . S
O746 Mn720 2.094 . S
O746 C724 1.240 . S
O747 Mn721 2.117 . S
O747 C724 1.264 . S
C748 C741 1.403 . S
C748 C749 1.399 . S
C748 H754 0.929 . S
C749 C729 1.449 . S
C749 C748 1.399 . S
C749 H755 0.930 . S
H750 C730 0.931 . S
H751 C731 0.930 1_554 S
H752 C739 0.931 . S
H753 C740 0.929 . S
H754 C748 0.929 . S
H755 C749 0.930 . S
Mn756 O761 2.095 . S
Mn756 O771 2.162 . S
Mn756 O772 2.297 . S
Mn756 O780 2.385 . S
Mn756 O781 2.209 . S
Mn756 O782 2.094 . S
Mn757 O762 2.121 . S
Mn757 N764 2.257 . S
Mn757 N773 2.282 . S
Mn757 O781 2.215 . S
Mn757 O783 2.117 . S
C758 O780 1.234 . S
C758 O781 1.283 . S
C759 O771 1.281 . S
C759 O772 1.236 . S
C760 O782 1.240 . S
C760 O783 1.264 . S
O761 Mn756 2.095 . S
O761 C770 1.250 . S
O762 Mn757 2.121 . S
O762 C770 1.258 . S
C763 N764 1.326 . S
C763 C767 1.460 . S
C763 H769 0.929 . S
N764 Mn757 2.257 . S
N764 C763 1.326 . S
N764 C768 1.362 . S
C765 C766 1.258 . S
C765 C768 1.431 . S
C765 C785 1.449 . S
C766 C765 1.258 . S
C766 C767 1.477 . S
C766 H786 0.931 . S
C767 C763 1.460 . S
C767 C766 1.477 . S
C767 H787 0.930 1_556 S
C768 N764 1.362 . S
C768 C765 1.431 . S
C768 C778 1.476 . S
H769 C763 0.929 . S
C770 O761 1.250 . S
C770 O762 1.258 . S
O771 Mn756 2.162 . S
O771 C759 1.281 . S
O772 Mn756 2.297 . S
O772 C759 1.236 . S
N773 Mn757 2.282 . S
N773 C774 1.328 . S
N773 C778 1.318 . S
C774 N773 1.328 . S
C774 C775 1.457 . S
C774 H779 0.929 . S
C775 C774 1.457 . S
C775 C776 1.291 . S
C775 H788 0.931 . S
C776 C775 1.291 . S
C776 C777 1.373 . S
C776 H789 0.929 . S
C777 C776 1.373 . S
C777 C778 1.396 . S
C777 C784 1.403 . S
C778 C768 1.476 . S
C778 N773 1.318 . S
C778 C777 1.396 . S
H779 C774 0.929 . S
O780 Mn756 2.385 . S
O780 C758 1.234 . S
O781 Mn756 2.209 . S
O781 Mn757 2.215 . S
O781 C758 1.283 . S
O782 Mn756 2.094 . S
O782 C760 1.240 . S
O783 Mn757 2.117 . S
O783 C760 1.264 . S
C784 C777 1.403 . S
C784 C785 1.399 . S
C784 H790 0.929 . S
C785 C765 1.449 . S
C785 C784 1.399 . S
C785 H791 0.930 . S
H786 C766 0.931 . S
H787 C767 0.930 1_554 S
H788 C775 0.931 . S
H789 C776 0.929 . S
H790 C784 0.929 . S
H791 C785 0.930 . S
Mn792 O797 2.095 . S
Mn792 O807 2.162 . S
Mn792 O808 2.297 . S
Mn792 O816 2.385 . S
Mn792 O817 2.209 . S
Mn792 O818 2.094 . S
Mn793 O798 2.121 . S
Mn793 N800 2.257 . S
Mn793 N809 2.282 . S
Mn793 O817 2.215 . S
Mn793 O819 2.117 . S
C794 O816 1.234 . S
C794 O817 1.283 . S
C795 O807 1.281 . S
C795 O808 1.236 . S
C796 O818 1.240 . S
C796 O819 1.264 . S
O797 Mn792 2.095 . S
O797 C806 1.250 . S
O798 Mn793 2.121 . S
O798 C806 1.258 . S
C799 N800 1.326 . S
C799 C803 1.460 . S
C799 H805 0.929 . S
N800 Mn793 2.257 . S
N800 C799 1.326 . S
N800 C804 1.362 . S
C801 C802 1.258 . S
C801 C804 1.431 . S
C801 C821 1.449 . S
C802 C801 1.258 . S
C802 C803 1.477 . S
C802 H822 0.931 . S
C803 C799 1.460 . S
C803 C802 1.477 . S
C803 H823 0.930 1_556 S
C804 N800 1.362 . S
C804 C801 1.431 . S
C804 C814 1.476 . S
H805 C799 0.929 . S
C806 O797 1.250 . S
C806 O798 1.258 . S
O807 Mn792 2.162 . S
O807 C795 1.281 . S
O808 Mn792 2.297 . S
O808 C795 1.236 . S
N809 Mn793 2.282 . S
N809 C810 1.328 . S
N809 C814 1.318 . S
C810 N809 1.328 . S
C810 C811 1.457 . S
C810 H815 0.929 . S
C811 C810 1.457 . S
C811 C812 1.291 . S
C811 H824 0.931 . S
C812 C811 1.291 . S
C812 C813 1.373 . S
C812 H825 0.929 . S
C813 C812 1.373 . S
C813 C814 1.396 . S
C813 C820 1.403 . S
C814 C804 1.476 . S
C814 N809 1.318 . S
C814 C813 1.396 . S
H815 C810 0.929 . S
O816 Mn792 2.385 . S
O816 C794 1.234 . S
O817 Mn792 2.209 . S
O817 Mn793 2.215 . S
O817 C794 1.283 . S
O818 Mn792 2.094 . S
O818 C796 1.240 . S
O819 Mn793 2.117 . S
O819 C796 1.264 . S
C820 C813 1.403 . S
C820 C821 1.399 . S
C820 H826 0.929 . S
C821 C801 1.449 . S
C821 C820 1.399 . S
C821 H827 0.930 . S
H822 C802 0.931 . S
H823 C803 0.930 1_554 S
H824 C811 0.931 . S
H825 C812 0.929 . S
H826 C820 0.929 . S
H827 C821 0.930 . S
Mn828 O833 2.095 . S
Mn828 O843 2.162 . S
Mn828 O844 2.297 . S
Mn828 O852 2.385 . S
Mn828 O853 2.209 . S
Mn828 O854 2.094 . S
Mn829 O834 2.121 . S
Mn829 N836 2.257 . S
Mn829 N845 2.282 . S
Mn829 O853 2.215 . S
Mn829 O855 2.117 . S
C830 O852 1.234 . S
C830 O853 1.283 . S
C831 O843 1.281 . S
C831 O844 1.236 . S
C832 O854 1.240 . S
C832 O855 1.264 . S
O833 Mn828 2.095 . S
O833 C842 1.250 . S
O834 Mn829 2.121 . S
O834 C842 1.258 . S
C835 N836 1.326 . S
C835 C839 1.460 . S
C835 H841 0.929 . S
N836 Mn829 2.257 . S
N836 C835 1.326 . S
N836 C840 1.362 . S
C837 C838 1.258 . S
C837 C840 1.431 . S
C837 C857 1.449 . S
C838 C837 1.258 . S
C838 C839 1.477 . S
C838 H858 0.931 . S
C839 C835 1.460 . S
C839 C838 1.477 . S
C839 H859 0.930 1_556 S
C840 N836 1.362 . S
C840 C837 1.431 . S
C840 C850 1.476 . S
H841 C835 0.929 . S
C842 O833 1.250 . S
C842 O834 1.258 . S
O843 Mn828 2.162 . S
O843 C831 1.281 . S
O844 Mn828 2.297 . S
O844 C831 1.236 . S
N845 Mn829 2.282 . S
N845 C846 1.328 . S
N845 C850 1.318 . S
C846 N845 1.328 . S
C846 C847 1.457 . S
C846 H851 0.929 . S
C847 C846 1.457 . S
C847 C848 1.291 . S
C847 H860 0.931 . S
C848 C847 1.291 . S
C848 C849 1.373 . S
C848 H861 0.929 . S
C849 C848 1.373 . S
C849 C850 1.396 . S
C849 C856 1.403 . S
C850 C840 1.476 . S
C850 N845 1.318 . S
C850 C849 1.396 . S
H851 C846 0.929 . S
O852 Mn828 2.385 . S
O852 C830 1.234 . S
O853 Mn828 2.209 . S
O853 Mn829 2.215 . S
O853 C830 1.283 . S
O854 Mn828 2.094 . S
O854 C832 1.240 . S
O855 Mn829 2.117 . S
O855 C832 1.264 . S
C856 C849 1.403 . S
C856 C857 1.399 . S
C856 H862 0.929 . S
C857 C837 1.449 . S
C857 C856 1.399 . S
C857 H863 0.930 . S
H858 C838 0.931 . S
H859 C839 0.930 1_554 S
H860 C847 0.931 . S
H861 C848 0.929 . S
H862 C856 0.929 . S
H863 C857 0.930 . S
Mn864 O869 2.095 . S
Mn864 O879 2.162 . S
Mn864 O880 2.297 . S
Mn864 O888 2.385 . S
Mn864 O889 2.209 . S
Mn864 O890 2.094 . S
Mn865 O870 2.121 . S
Mn865 N872 2.257 . S
Mn865 N881 2.282 . S
Mn865 O889 2.215 . S
Mn865 O891 2.117 . S
C866 O888 1.234 . S
C866 O889 1.283 . S
C867 O879 1.281 . S
C867 O880 1.236 . S
C868 O890 1.240 . S
C868 O891 1.264 . S
O869 Mn864 2.095 . S
O869 C878 1.250 . S
O870 Mn865 2.121 . S
O870 C878 1.258 . S
C871 N872 1.326 . S
C871 C875 1.460 . S
C871 H877 0.929 . S
N872 Mn865 2.257 . S
N872 C871 1.326 . S
N872 C876 1.362 . S
C873 C874 1.258 . S
C873 C876 1.431 . S
C873 C893 1.449 . S
C874 C873 1.258 . S
C874 C875 1.477 . S
C874 H894 0.931 . S
C875 C871 1.460 . S
C875 C874 1.477 . S
C875 H895 0.930 . S
C876 N872 1.362 . S
C876 C873 1.431 . S
C876 C886 1.476 . S
H877 C871 0.929 . S
C878 O869 1.250 . S
C878 O870 1.258 . S
O879 Mn864 2.162 . S
O879 C867 1.281 . S
O880 Mn864 2.297 . S
O880 C867 1.236 . S
N881 Mn865 2.282 . S
N881 C882 1.328 . S
N881 C886 1.318 . S
C882 N881 1.328 . S
C882 C883 1.457 . S
C882 H887 0.929 . S
C883 C882 1.457 . S
C883 C884 1.291 . S
C883 H896 0.931 . S
C884 C883 1.291 . S
C884 C885 1.373 . S
C884 H897 0.929 . S
C885 C884 1.373 . S
C885 C886 1.396 . S
C885 C892 1.403 . S
C886 C876 1.476 . S
C886 N881 1.318 . S
C886 C885 1.396 . S
H887 C882 0.929 . S
O888 Mn864 2.385 . S
O888 C866 1.234 . S
O889 Mn864 2.209 . S
O889 Mn865 2.215 . S
O889 C866 1.283 . S
O890 Mn864 2.094 . S
O890 C868 1.240 . S
O891 Mn865 2.117 . S
O891 C868 1.264 . S
C892 C885 1.403 . S
C892 C893 1.399 . S
C892 H898 0.929 . S
C893 C873 1.449 . S
C893 C892 1.399 . S
C893 H899 0.930 . S
H894 C874 0.931 . S
H895 C875 0.930 . S
H896 C883 0.931 . S
H897 C884 0.929 . S
H898 C892 0.929 . S
H899 C893 0.930 . S
Mn900 O905 2.095 . S
Mn900 O915 2.162 . S
Mn900 O916 2.297 . S
Mn900 O924 2.385 . S
Mn900 O925 2.209 . S
Mn900 O926 2.094 . S
Mn901 O906 2.121 . S
Mn901 N908 2.257 . S
Mn901 N917 2.282 . S
Mn901 O925 2.215 . S
Mn901 O927 2.117 . S
C902 O924 1.234 . S
C902 O925 1.283 . S
C903 O915 1.281 . S
C903 O916 1.236 . S
C904 O926 1.240 . S
C904 O927 1.264 . S
O905 Mn900 2.095 . S
O905 C914 1.250 . S
O906 Mn901 2.121 . S
O906 C914 1.258 . S
C907 N908 1.326 . S
C907 C911 1.460 . S
C907 H913 0.929 . S
N908 Mn901 2.257 . S
N908 C907 1.326 . S
N908 C912 1.362 . S
C909 C910 1.258 . S
C909 C912 1.431 . S
C909 C929 1.449 . S
C910 C909 1.258 . S
C910 C911 1.477 . S
C910 H930 0.931 . S
C911 C907 1.460 . S
C911 C910 1.477 . S
C911 H931 0.930 . S
C912 N908 1.362 . S
C912 C909 1.431 . S
C912 C922 1.476 . S
H913 C907 0.929 . S
C914 O905 1.250 . S
C914 O906 1.258 . S
O915 Mn900 2.162 . S
O915 C903 1.281 . S
O916 Mn900 2.297 . S
O916 C903 1.236 . S
N917 Mn901 2.282 . S
N917 C918 1.328 . S
N917 C922 1.318 . S
C918 N917 1.328 . S
C918 C919 1.457 . S
C918 H923 0.929 . S
C919 C918 1.457 . S
C919 C920 1.291 . S
C919 H932 0.931 . S
C920 C919 1.291 . S
C920 C921 1.373 . S
C920 H933 0.929 . S
C921 C920 1.373 . S
C921 C922 1.396 . S
C921 C928 1.403 . S
C922 C912 1.476 . S
C922 N917 1.318 . S
C922 C921 1.396 . S
H923 C918 0.929 . S
O924 Mn900 2.385 . S
O924 C902 1.234 . S
O925 Mn900 2.209 . S
O925 Mn901 2.215 . S
O925 C902 1.283 . S
O926 Mn900 2.094 . S
O926 C904 1.240 . S
O927 Mn901 2.117 . S
O927 C904 1.264 . S
C928 C921 1.403 . S
C928 C929 1.399 . S
C928 H934 0.929 . S
C929 C909 1.449 . S
C929 C928 1.399 . S
C929 H935 0.930 . S
H930 C910 0.931 . S
H931 C911 0.930 . S
H932 C919 0.931 . S
H933 C920 0.929 . S
H934 C928 0.929 . S
H935 C929 0.930 . S
Mn936 O941 2.095 . S
Mn936 O951 2.162 . S
Mn936 O952 2.297 . S
Mn936 O960 2.385 . S
Mn936 O961 2.209 . S
Mn936 O962 2.094 . S
Mn937 O942 2.121 . S
Mn937 N944 2.257 . S
Mn937 N953 2.282 . S
Mn937 O961 2.215 . S
Mn937 O963 2.117 . S
C938 O960 1.234 . S
C938 O961 1.283 . S
C939 O951 1.281 . S
C939 O952 1.236 . S
C940 O962 1.240 . S
C940 O963 1.264 . S
O941 Mn936 2.095 . S
O941 C950 1.250 . S
O942 Mn937 2.121 . S
O942 C950 1.258 . S
C943 N944 1.326 . S
C943 C947 1.460 . S
C943 H949 0.929 . S
N944 Mn937 2.257 . S
N944 C943 1.326 . S
N944 C948 1.362 . S
C945 C946 1.258 . S
C945 C948 1.431 . S
C945 C965 1.449 . S
C946 C945 1.258 . S
C946 C947 1.477 . S
C946 H966 0.931 . S
C947 C943 1.460 . S
C947 C946 1.477 . S
C947 H967 0.930 . S
C948 N944 1.362 . S
C948 C945 1.431 . S
C948 C958 1.476 . S
H949 C943 0.929 . S
C950 O941 1.250 . S
C950 O942 1.258 . S
O951 Mn936 2.162 . S
O951 C939 1.281 . S
O952 Mn936 2.297 . S
O952 C939 1.236 . S
N953 Mn937 2.282 . S
N953 C954 1.328 . S
N953 C958 1.318 . S
C954 N953 1.328 . S
C954 C955 1.457 . S
C954 H959 0.929 . S
C955 C954 1.457 . S
C955 C956 1.291 . S
C955 H968 0.931 . S
C956 C955 1.291 . S
C956 C957 1.373 . S
C956 H969 0.929 . S
C957 C956 1.373 . S
C957 C958 1.396 . S
C957 C964 1.403 . S
C958 C948 1.476 . S
C958 N953 1.318 . S
C958 C957 1.396 . S
H959 C954 0.929 . S
O960 Mn936 2.385 . S
O960 C938 1.234 . S
O961 Mn936 2.209 . S
O961 Mn937 2.215 . S
O961 C938 1.283 . S
O962 Mn936 2.094 . S
O962 C940 1.240 . S
O963 Mn937 2.117 . S
O963 C940 1.264 . S
C964 C957 1.403 . S
C964 C965 1.399 . S
C964 H970 0.929 . S
C965 C945 1.449 . S
C965 C964 1.399 . S
C965 H971 0.930 . S
H966 C946 0.931 . S
H967 C947 0.930 . S
H968 C955 0.931 . S
H969 C956 0.929 . S
H970 C964 0.929 . S
H971 C965 0.930 . S
Mn972 O977 2.095 . S
Mn972 O987 2.162 . S
Mn972 O988 2.297 . S
Mn972 O996 2.385 . S
Mn972 O997 2.209 . S
Mn972 O998 2.094 . S
Mn973 O978 2.121 . S
Mn973 N980 2.257 . S
Mn973 N989 2.282 . S
Mn973 O997 2.215 . S
Mn973 O999 2.117 . S
C974 O996 1.234 . S
C974 O997 1.283 . S
C975 O987 1.281 . S
C975 O988 1.236 . S
C976 O998 1.240 . S
C976 O999 1.264 . S
O977 Mn972 2.095 . S
O977 C986 1.250 . S
O978 Mn973 2.121 . S
O978 C986 1.258 . S
C979 N980 1.326 . S
C979 C983 1.460 . S
C979 H985 0.929 . S
N980 Mn973 2.257 . S
N980 C979 1.326 . S
N980 C984 1.362 . S
C981 C982 1.258 . S
C981 C984 1.431 . S
C981 C1001 1.449 . S
C982 C981 1.258 . S
C982 C983 1.477 . S
C982 H1002 0.931 . S
C983 C979 1.460 . S
C983 C982 1.477 . S
C983 H1003 0.930 . S
C984 N980 1.362 . S
C984 C981 1.431 . S
C984 C994 1.476 . S
H985 C979 0.929 . S
C986 O977 1.250 . S
C986 O978 1.258 . S
O987 Mn972 2.162 . S
O987 C975 1.281 . S
O988 Mn972 2.297 . S
O988 C975 1.236 . S
N989 Mn973 2.282 . S
N989 C990 1.328 . S
N989 C994 1.318 . S
C990 N989 1.328 . S
C990 C991 1.457 . S
C990 H995 0.929 . S
C991 C990 1.457 . S
C991 C992 1.291 . S
C991 H1004 0.931 . S
C992 C991 1.291 . S
C992 C993 1.373 . S
C992 H1005 0.929 . S
C993 C992 1.373 . S
C993 C994 1.396 . S
C993 C1000 1.403 . S
C994 C984 1.476 . S
C994 N989 1.318 . S
C994 C993 1.396 . S
H995 C990 0.929 . S
O996 Mn972 2.385 . S
O996 C974 1.234 . S
O997 Mn972 2.209 . S
O997 Mn973 2.215 . S
O997 C974 1.283 . S
O998 Mn972 2.094 . S
O998 C976 1.240 . S
O999 Mn973 2.117 . S
O999 C976 1.264 . S
C1000 C993 1.403 . S
C1000 C1001 1.399 . S
C1000 H1006 0.929 . S
C1001 C981 1.449 . S
C1001 C1000 1.399 . S
C1001 H1007 0.930 . S
H1002 C982 0.931 . S
H1003 C983 0.930 . S
H1004 C991 0.931 . S
H1005 C992 0.929 . S
H1006 C1000 0.929 . S
H1007 C1001 0.930 . S
Mn1008 O1013 2.095 . S
Mn1008 O1023 2.162 . S
Mn1008 O1024 2.297 . S
Mn1008 O1032 2.385 . S
Mn1008 O1033 2.209 . S
Mn1008 O1034 2.094 . S
Mn1009 O1014 2.121 . S
Mn1009 N1016 2.257 . S
Mn1009 N1025 2.282 . S
Mn1009 O1033 2.215 . S
Mn1009 O1035 2.117 . S
C1010 O1032 1.234 . S
C1010 O1033 1.283 . S
C1011 O1023 1.281 . S
C1011 O1024 1.236 . S
C1012 O1034 1.240 . S
C1012 O1035 1.264 . S
O1013 Mn1008 2.095 . S
O1013 C1022 1.250 . S
O1014 Mn1009 2.121 . S
O1014 C1022 1.258 . S
C1015 N1016 1.326 . S
C1015 C1019 1.460 . S
C1015 H1021 0.929 . S
N1016 Mn1009 2.257 . S
N1016 C1015 1.326 . S
N1016 C1020 1.362 . S
C1017 C1018 1.258 . S
C1017 C1020 1.431 . S
C1017 C1037 1.449 . S
C1018 C1017 1.258 . S
C1018 C1019 1.477 . S
C1018 H1038 0.931 . S
C1019 C1015 1.460 . S
C1019 C1018 1.477 . S
C1019 H1039 0.930 1_554 S
C1020 N1016 1.362 . S
C1020 C1017 1.431 . S
C1020 C1030 1.476 . S
H1021 C1015 0.929 . S
C1022 O1013 1.250 . S
C1022 O1014 1.258 . S
O1023 Mn1008 2.162 . S
O1023 C1011 1.281 . S
O1024 Mn1008 2.297 . S
O1024 C1011 1.236 . S
N1025 Mn1009 2.282 . S
N1025 C1026 1.328 . S
N1025 C1030 1.318 . S
C1026 N1025 1.328 . S
C1026 C1027 1.457 . S
C1026 H1031 0.929 . S
C1027 C1026 1.457 . S
C1027 C1028 1.291 . S
C1027 H1040 0.931 . S
C1028 C1027 1.291 . S
C1028 C1029 1.373 . S
C1028 H1041 0.929 . S
C1029 C1028 1.373 . S
C1029 C1030 1.396 . S
C1029 C1036 1.403 . S
C1030 C1020 1.476 . S
C1030 N1025 1.318 . S
C1030 C1029 1.396 . S
H1031 C1026 0.929 . S
O1032 Mn1008 2.385 . S
O1032 C1010 1.234 . S
O1033 Mn1008 2.209 . S
O1033 Mn1009 2.215 . S
O1033 C1010 1.283 . S
O1034 Mn1008 2.094 . S
O1034 C1012 1.240 . S
O1035 Mn1009 2.117 . S
O1035 C1012 1.264 . S
C1036 C1029 1.403 . S
C1036 C1037 1.399 . S
C1036 H1042 0.929 . S
C1037 C1017 1.449 . S
C1037 C1036 1.399 . S
C1037 H1043 0.930 . S
H1038 C1018 0.931 . S
H1039 C1019 0.930 1_556 S
H1040 C1027 0.931 . S
H1041 C1028 0.929 . S
H1042 C1036 0.929 . S
H1043 C1037 0.930 . S
Mn1044 O1049 2.095 . S
Mn1044 O1059 2.162 . S
Mn1044 O1060 2.297 . S
Mn1044 O1068 2.385 . S
Mn1044 O1069 2.209 . S
Mn1044 O1070 2.094 . S
Mn1045 O1050 2.121 . S
Mn1045 N1052 2.257 . S
Mn1045 N1061 2.282 . S
Mn1045 O1069 2.215 . S
Mn1045 O1071 2.117 . S
C1046 O1068 1.234 . S
C1046 O1069 1.283 . S
C1047 O1059 1.281 . S
C1047 O1060 1.236 . S
C1048 O1070 1.240 . S
C1048 O1071 1.264 . S
O1049 Mn1044 2.095 . S
O1049 C1058 1.250 . S
O1050 Mn1045 2.121 . S
O1050 C1058 1.258 . S
C1051 N1052 1.326 . S
C1051 C1055 1.460 . S
C1051 H1057 0.929 . S
N1052 Mn1045 2.257 . S
N1052 C1051 1.326 . S
N1052 C1056 1.362 . S
C1053 C1054 1.258 . S
C1053 C1056 1.431 . S
C1053 C1073 1.449 . S
C1054 C1053 1.258 . S
C1054 C1055 1.477 . S
C1054 H1074 0.931 . S
C1055 C1051 1.460 . S
C1055 C1054 1.477 . S
C1055 H1075 0.930 1_554 S
C1056 N1052 1.362 . S
C1056 C1053 1.431 . S
C1056 C1066 1.476 . S
H1057 C1051 0.929 . S
C1058 O1049 1.250 . S
C1058 O1050 1.258 . S
O1059 Mn1044 2.162 . S
O1059 C1047 1.281 . S
O1060 Mn1044 2.297 . S
O1060 C1047 1.236 . S
N1061 Mn1045 2.282 . S
N1061 C1062 1.328 . S
N1061 C1066 1.318 . S
C1062 N1061 1.328 . S
C1062 C1063 1.457 . S
C1062 H1067 0.929 . S
C1063 C1062 1.457 . S
C1063 C1064 1.291 . S
C1063 H1076 0.931 . S
C1064 C1063 1.291 . S
C1064 C1065 1.373 . S
C1064 H1077 0.929 . S
C1065 C1064 1.373 . S
C1065 C1066 1.396 . S
C1065 C1072 1.403 . S
C1066 C1056 1.476 . S
C1066 N1061 1.318 . S
C1066 C1065 1.396 . S
H1067 C1062 0.929 . S
O1068 Mn1044 2.385 . S
O1068 C1046 1.234 . S
O1069 Mn1044 2.209 . S
O1069 Mn1045 2.215 . S
O1069 C1046 1.283 . S
O1070 Mn1044 2.094 . S
O1070 C1048 1.240 . S
O1071 Mn1045 2.117 . S
O1071 C1048 1.264 . S
C1072 C1065 1.403 . S
C1072 C1073 1.399 . S
C1072 H1078 0.929 . S
C1073 C1053 1.449 . S
C1073 C1072 1.399 . S
C1073 H1079 0.930 . S
H1074 C1054 0.931 . S
H1075 C1055 0.930 1_556 S
H1076 C1063 0.931 . S
H1077 C1064 0.929 . S
H1078 C1072 0.929 . S
H1079 C1073 0.930 . S
Mn1080 O1085 2.095 . S
Mn1080 O1095 2.162 . S
Mn1080 O1096 2.297 . S
Mn1080 O1104 2.385 . S
Mn1080 O1105 2.209 . S
Mn1080 O1106 2.094 . S
Mn1081 O1086 2.121 . S
Mn1081 N1088 2.257 . S
Mn1081 N1097 2.282 . S
Mn1081 O1105 2.215 . S
Mn1081 O1107 2.117 . S
C1082 O1104 1.234 . S
C1082 O1105 1.283 . S
C1083 O1095 1.281 . S
C1083 O1096 1.236 . S
C1084 O1106 1.240 . S
C1084 O1107 1.264 . S
O1085 Mn1080 2.095 . S
O1085 C1094 1.250 . S
O1086 Mn1081 2.121 . S
O1086 C1094 1.258 . S
C1087 N1088 1.326 . S
C1087 C1091 1.460 . S
C1087 H1093 0.929 . S
N1088 Mn1081 2.257 . S
N1088 C1087 1.326 . S
N1088 C1092 1.362 . S
C1089 C1090 1.258 . S
C1089 C1092 1.431 . S
C1089 C1109 1.449 . S
C1090 C1089 1.258 . S
C1090 C1091 1.477 . S
C1090 H1110 0.931 . S
C1091 C1087 1.460 . S
C1091 C1090 1.477 . S
C1091 H1111 0.930 1_554 S
C1092 N1088 1.362 . S
C1092 C1089 1.431 . S
C1092 C1102 1.476 . S
H1093 C1087 0.929 . S
C1094 O1085 1.250 . S
C1094 O1086 1.258 . S
O1095 Mn1080 2.162 . S
O1095 C1083 1.281 . S
O1096 Mn1080 2.297 . S
O1096 C1083 1.236 . S
N1097 Mn1081 2.282 . S
N1097 C1098 1.328 . S
N1097 C1102 1.318 . S
C1098 N1097 1.328 . S
C1098 C1099 1.457 . S
C1098 H1103 0.929 . S
C1099 C1098 1.457 . S
C1099 C1100 1.291 . S
C1099 H1112 0.931 . S
C1100 C1099 1.291 . S
C1100 C1101 1.373 . S
C1100 H1113 0.929 . S
C1101 C1100 1.373 . S
C1101 C1102 1.396 . S
C1101 C1108 1.403 . S
C1102 C1092 1.476 . S
C1102 N1097 1.318 . S
C1102 C1101 1.396 . S
H1103 C1098 0.929 . S
O1104 Mn1080 2.385 . S
O1104 C1082 1.234 . S
O1105 Mn1080 2.209 . S
O1105 Mn1081 2.215 . S
O1105 C1082 1.283 . S
O1106 Mn1080 2.094 . S
O1106 C1084 1.240 . S
O1107 Mn1081 2.117 . S
O1107 C1084 1.264 . S
C1108 C1101 1.403 . S
C1108 C1109 1.399 . S
C1108 H1114 0.929 . S
C1109 C1089 1.449 . S
C1109 C1108 1.399 . S
C1109 H1115 0.930 . S
H1110 C1090 0.931 . S
H1111 C1091 0.930 1_556 S
H1112 C1099 0.931 . S
H1113 C1100 0.929 . S
H1114 C1108 0.929 . S
H1115 C1109 0.930 . S
Mn1116 O1121 2.095 . S
Mn1116 O1131 2.162 . S
Mn1116 O1132 2.297 . S
Mn1116 O1140 2.385 . S
Mn1116 O1141 2.209 . S
Mn1116 O1142 2.094 . S
Mn1117 O1122 2.121 . S
Mn1117 N1124 2.257 . S
Mn1117 N1133 2.282 . S
Mn1117 O1141 2.215 . S
Mn1117 O1143 2.117 . S
C1118 O1140 1.234 . S
C1118 O1141 1.283 . S
C1119 O1131 1.281 . S
C1119 O1132 1.236 . S
C1120 O1142 1.240 . S
C1120 O1143 1.264 . S
O1121 Mn1116 2.095 . S
O1121 C1130 1.250 . S
O1122 Mn1117 2.121 . S
O1122 C1130 1.258 . S
C1123 N1124 1.326 . S
C1123 C1127 1.460 . S
C1123 H1129 0.929 . S
N1124 Mn1117 2.257 . S
N1124 C1123 1.326 . S
N1124 C1128 1.362 . S
C1125 C1126 1.258 . S
C1125 C1128 1.431 . S
C1125 C1145 1.449 . S
C1126 C1125 1.258 . S
C1126 C1127 1.477 . S
C1126 H1146 0.931 . S
C1127 C1123 1.460 . S
C1127 C1126 1.477 . S
C1127 H1147 0.930 1_554 S
C1128 N1124 1.362 . S
C1128 C1125 1.431 . S
C1128 C1138 1.476 . S
H1129 C1123 0.929 . S
C1130 O1121 1.250 . S
C1130 O1122 1.258 . S
O1131 Mn1116 2.162 . S
O1131 C1119 1.281 . S
O1132 Mn1116 2.297 . S
O1132 C1119 1.236 . S
N1133 Mn1117 2.282 . S
N1133 C1134 1.328 . S
N1133 C1138 1.318 . S
C1134 N1133 1.328 . S
C1134 C1135 1.457 . S
C1134 H1139 0.929 . S
C1135 C1134 1.457 . S
C1135 C1136 1.291 . S
C1135 H1148 0.931 . S
C1136 C1135 1.291 . S
C1136 C1137 1.373 . S
C1136 H1149 0.929 . S
C1137 C1136 1.373 . S
C1137 C1138 1.396 . S
C1137 C1144 1.403 . S
C1138 C1128 1.476 . S
C1138 N1133 1.318 . S
C1138 C1137 1.396 . S
H1139 C1134 0.929 . S
O1140 Mn1116 2.385 . S
O1140 C1118 1.234 . S
O1141 Mn1116 2.209 . S
O1141 Mn1117 2.215 . S
O1141 C1118 1.283 . S
O1142 Mn1116 2.094 . S
O1142 C1120 1.240 . S
O1143 Mn1117 2.117 . S
O1143 C1120 1.264 . S
C1144 C1137 1.403 . S
C1144 C1145 1.399 . S
C1144 H1150 0.929 . S
C1145 C1125 1.449 . S
C1145 C1144 1.399 . S
C1145 H1151 0.930 . S
H1146 C1126 0.931 . S
H1147 C1127 0.930 1_556 S
H1148 C1135 0.931 . S
H1149 C1136 0.929 . S
H1150 C1144 0.929 . S
H1151 C1145 0.930 . S
C1048 C4 1.483 . S
C40 C1084 1.483 . S
C1120 C76 1.483 . S
C1012 C112 1.483 . S
C148 C976 1.483 . S
C868 C184 1.483 . S
C220 C904 1.483 . S
C940 C256 1.483 . S
C292 C760 1.483 . S
C328 C796 1.483 . S
C832 C364 1.483 . S
C400 C724 1.483 . S
C688 C436 1.483 . S
C580 C472 1.483 . S
C508 C616 1.483 . S
C544 C652 1.483 . S
C14 C374 1.118 1_554 S
C410 C50 1.118 1_556 S
C302 C86 1.118 1_556 S
C338 C122 1.118 1_556 S
C158 C518 1.118 . S
C554 C194 1.118 . S
C446 C230 1.118 . S
C482 C266 1.118 . S
C590 C950 1.118 . S
C986 C626 1.118 . S
C878 C662 1.118 . S
C698 C914 1.118 . S
C734 C1094 1.118 1_556 S
C1130 C770 1.118 1_554 S
C1022 C806 1.118 1_554 S
C842 C1058 1.118 1_556 S
C3 C147 1.510 1_545 S
C39 C183 1.510 1_655 S
C219 C75 1.510 1_545 S
C111 C255 1.510 1_455 S
C291 C435 1.510 1_565 S
C471 C327 1.510 1_655 S
C507 C363 1.510 1_565 S
C399 C543 1.510 1_655 S
C579 C723 1.510 . S
C759 C615 1.510 . S
C651 C795 1.510 . S
C831 C687 1.510 . S
C1011 C867 1.510 . S
C903 C1047 1.510 . S
C939 C1083 1.510 . S
C975 C1119 1.510 . S
C2 C182 1.404 . S
C38 C218 1.404 . S
C254 C74 1.404 . S
C146 C110 1.404 . S
C470 C290 1.404 . S
C506 C326 1.404 . S
C542 C362 1.404 . S
C398 C434 1.404 . S
C578 C758 1.404 . S
C794 C614 1.404 . S
C830 C650 1.404 . S
C686 C722 1.404 . S
C1046 C866 1.404 . S
C902 C1082 1.404 . S
C938 C1118 1.404 . S
C1010 C974 1.404 . S
