# Generated by pormake.
# Topology vby, (6)-cn, num edge types: 1
# Building blocks:
#     Node 0, Type 0, BuildingBlock: KUMJIN_clean_sbu_1, # of connection points: 6
#     Node 1, Type 0, BuildingBlock: KUMJIN_clean_sbu_1, # of connection points: 6
#     Node 2, Type 0, BuildingBlock: KUMJIN_clean_sbu_1, # of connection points: 6
#     Node 3, Type 0, BuildingBlock: KUMJIN_clean_sbu_1, # of connection points: 6
#     Node 4, Type 0, BuildingBlock: KUMJIN_clean_sbu_1, # of connection points: 6
#     Node 5, Type 0, BuildingBlock: KUMJIN_clean_sbu_1, # of connection points: 6
#     Node 6, Type 0, BuildingBlock: KUMJIN_clean_sbu_1, # of connection points: 6
#     Node 7, Type 0, BuildingBlock: KUMJIN_clean_sbu_1, # of connection points: 6
#     Edge 8, Type (0, 0), BuildingBlock: ZUJKAS_clean_linker_0, # of connection points: 2
#     Edge 9, Type (0, 0), BuildingBlock: ZUJKAS_clean_linker_0, # of connection points: 2
#     Edge 10, Type (0, 0), BuildingBlock: ZUJKAS_clean_linker_0, # of connection points: 2
#     Edge 11, Type (0, 0), BuildingBlock: ZUJKAS_clean_linker_0, # of connection points: 2
#     Edge 12, Type (0, 0), BuildingBlock: ZUJKAS_clean_linker_0, # of connection points: 2
#     Edge 13, Type (0, 0), BuildingBlock: ZUJKAS_clean_linker_0, # of connection points: 2
#     Edge 14, Type (0, 0), BuildingBlock: ZUJKAS_clean_linker_0, # of connection points: 2
#     Edge 15, Type (0, 0), BuildingBlock: ZUJKAS_clean_linker_0, # of connection points: 2
#     Edge 16, Type (0, 0), BuildingBlock: ZUJKAS_clean_linker_0, # of connection points: 2
#     Edge 17, Type (0, 0), BuildingBlock: ZUJKAS_clean_linker_0, # of connection points: 2
#     Edge 18, Type (0, 0), BuildingBlock: ZUJKAS_clean_linker_0, # of connection points: 2
#     Edge 19, Type (0, 0), BuildingBlock: ZUJKAS_clean_linker_0, # of connection points: 2
#     Edge 20, Type (0, 0), BuildingBlock: ZUJKAS_clean_linker_0, # of connection points: 2
#     Edge 21, Type (0, 0), BuildingBlock: ZUJKAS_clean_linker_0, # of connection points: 2
#     Edge 22, Type (0, 0), BuildingBlock: ZUJKAS_clean_linker_0, # of connection points: 2
#     Edge 23, Type (0, 0), BuildingBlock: ZUJKAS_clean_linker_0, # of connection points: 2
#     Edge 24, Type (0, 0), BuildingBlock: ZUJKAS_clean_linker_0, # of connection points: 2
#     Edge 25, Type (0, 0), BuildingBlock: ZUJKAS_clean_linker_0, # of connection points: 2
#     Edge 26, Type (0, 0), BuildingBlock: ZUJKAS_clean_linker_0, # of connection points: 2
#     Edge 27, Type (0, 0), BuildingBlock: ZUJKAS_clean_linker_0, # of connection points: 2
#     Edge 28, Type (0, 0), BuildingBlock: ZUJKAS_clean_linker_0, # of connection points: 2
#     Edge 29, Type (0, 0), BuildingBlock: ZUJKAS_clean_linker_0, # of connection points: 2
#     Edge 30, Type (0, 0), BuildingBlock: ZUJKAS_clean_linker_0, # of connection points: 2
#     Edge 31, Type (0, 0), BuildingBlock: ZUJKAS_clean_linker_0, # of connection points: 2
# Relax obj value: 0.188
# Max RMSD: 0.308
# Mean RMSD: 0.214
data_MOF--net-vby--node1-KUMJIN_clean_sbu_1--edge1-ZUJKAS_clean_linker_0
_symmetry_space_group_name_H-M    P1
_symmetry_Int_Tables_number       1
_symmetry_cell_setting            triclinic
loop_
_symmetry_equiv_pos_as_xyz
'x, y, z'
_cell_length_a     19.608219
_cell_length_b     116.82999
_cell_length_c     38.612958
_cell_angle_alpha  101.77702
_cell_angle_beta   94.237574
_cell_angle_gamma 89.999673
loop_
_atom_site_label
_atom_site_type_symbol
_atom_site_fract_x
_atom_site_fract_y
_atom_site_fract_z
_atom_type_partial_charge
Eu0 Eu 0.08976 0.36051 0.02047 0.0
C1 C 0.24438 0.40498 0.07654 0.0
N2 N 0.18329 0.40128 0.08541 0.0
C3 C 0.22356 0.40573 0.14702 0.0
C4 C 0.29811 0.40886 0.10274 0.0
C5 C 0.17119 0.40229 0.12032 0.0
C6 C 0.28762 0.40886 0.13816 0.0
C7 C 0.31321 0.41002 0.03174 0.0
C8 C 0.25228 0.40552 0.04137 0.0
C9 C 0.3667 0.41377 0.05776 0.0
C10 C 0.35952 0.41307 0.09306 0.0
Eu11 Eu 0.09895 0.39585 0.0373 0.0
N12 N 0.19989 0.40182 0.01658 0.0
C13 C 0.31814 0.4108 0.99627 0.0
C14 C 0.20304 0.403 0.98229 0.0
C15 C 0.2626 0.40735 0.97149 0.0
H16 H 0.12085 0.40088 0.12818 0.0
H17 H 0.2655 0.4081 0.94416 0.0
H18 H 0.99719 0.35165 0.94354 0.0
H19 H 0.06496 0.34552 0.14411 0.0
H20 H 0.15957 0.40049 0.96334 0.0
H21 H 0.3642 0.41419 0.98787 0.0
H22 H 0.12625 0.35286 0.09914 0.0
H23 H 0.21387 0.40626 0.17454 0.0
H24 H 0.4136 0.41737 0.05091 0.0
H25 H 0.40116 0.41609 0.11287 0.0
H26 H 0.88338 0.34259 0.92183 0.0
H27 H 0.32767 0.41174 0.15902 0.0
H28 H 0.9422 0.34001 0.13212 0.0
N29 N 0.98357 0.35153 0.99749 0.0
C30 C 0.94452 0.34792 0.02089 0.0
C31 C 0.89973 0.34413 0.9498 0.0
C32 C 0.87927 0.34284 0.00994 0.0
C33 C 0.96392 0.34923 0.96206 0.0
C34 C 0.85653 0.34117 0.97397 0.0
N35 N 0.03793 0.35236 0.06351 0.0
C36 C 0.07228 0.35075 0.09413 0.0
C37 C 0.93551 0.34402 0.07962 0.0
C38 C 0.97235 0.34849 0.05518 0.0
C39 C 0.96861 0.3434 0.11258 0.0
C40 C 0.03785 0.3465 0.11947 0.0
H41 H 0.80675 0.33727 0.96446 0.0
H42 H 0.78955 0.3354 0.02714 0.0
H43 H 0.83884 0.33644 0.08827 0.0
O44 O 0.1199 0.3422 0.01916 0.0
O45 O 0.9918 0.37017 0.00772 0.0
O46 O 0.99596 0.38817 0.04627 0.0
O47 O 0.15772 0.35182 0.98136 0.0
O48 O 0.12157 0.37134 0.07536 0.0
O49 O 0.05841 0.38804 0.08105 0.0
O50 O 0.0476 0.40821 0.00891 0.0
O51 O 0.18448 0.38391 0.01395 0.0
O52 O 0.18699 0.36996 0.04697 0.0
O53 O 0.08677 0.41413 0.06328 0.0
O54 O 0.05802 0.38732 0.98195 0.0
O55 O 0.09736 0.36815 0.97085 0.0
C56 C 0.96139 0.37901 0.02736 0.0
C57 C 0.19607 0.33173 0.97601 0.0
C58 C 0.23258 0.31142 0.97183 0.0
C59 C 0.27 0.31249 0.94288 0.0
C60 C 0.23381 0.33245 0.94696 0.0
C61 C 0.27049 0.32291 0.93063 0.0
C62 C 0.19585 0.32117 0.98852 0.0
C63 C 0.08183 0.37901 0.0935 0.0
C64 C 0.15715 0.34203 0.99257 0.0
C65 C 0.84032 0.33915 0.03486 0.0
C66 C 0.86836 0.33976 0.06969 0.0
C67 C 0.21972 0.37696 0.03111 0.0
C68 C 0.99816 0.42513 0.04171 0.0
C69 C 0.95463 0.44493 0.04474 0.0
C70 C 0.89103 0.44103 0.05304 0.0
C71 C 0.93458 0.42143 0.05004 0.0
C72 C 1.00797 0.43683 0.03907 0.0
C73 C 0.88126 0.42938 0.05565 0.0
C74 C 0.07386 0.37759 0.96027 0.0
C75 C 0.05536 0.41704 0.03559 0.0
H76 H 0.29988 0.30529 0.92991 0.0
H77 H 0.23508 0.34042 0.93676 0.0
H78 H 0.29962 0.32359 0.90837 0.0
H79 H 0.16661 0.32049 0.01077 0.0
H80 H 0.84906 0.44702 0.05801 0.0
H81 H 0.92631 0.41244 0.05219 0.0
H82 H 0.05711 0.43957 0.03213 0.0
H83 H 0.83219 0.42651 0.06217 0.0
Eu84 Eu 0.96732 0.64986 0.03897 0.0
C85 C 0.79503 0.60674 0.02541 0.0
N86 N 0.85129 0.61109 0.0471 0.0
C87 C 0.7932 0.60917 0.09817 0.0
C88 C 0.73481 0.6038 0.03973 0.0
C89 C 0.852 0.61184 0.08285 0.0
C90 C 0.73422 0.60522 0.07658 0.0
C91 C 0.73905 0.60106 0.96583 0.0
C92 C 0.79703 0.60533 0.98863 0.0
C93 C 0.67938 0.59811 0.98019 0.0
C94 C 0.67728 0.59947 0.01697 0.0
Eu95 Eu 0.94761 0.61436 0.01683 0.0
N96 N 0.85454 0.60862 0.97524 0.0
C97 C 0.74238 0.60008 0.92922 0.0
C98 C 0.85869 0.60752 0.93964 0.0
C99 C 0.80246 0.6033 0.91609 0.0
H100 H 0.89821 0.61403 0.09967 0.0
H101 H 0.80558 0.60248 0.88782 0.0
H102 H 0.06337 0.6519 0.97204 0.0
H103 H 1.00565 0.67017 0.17957 0.0
H104 H 0.90556 0.60977 0.92941 0.0
H105 H 0.69885 0.59685 0.91088 0.0
H106 H 0.94045 0.66002 0.12461 0.0
H107 H 0.79388 0.60991 0.1266 0.0
H108 H 0.63433 0.59484 0.96307 0.0
H109 H 0.63077 0.59713 0.02755 0.0
H110 H 0.17768 0.65942 0.96365 0.0
H111 H 0.68899 0.60305 0.08857 0.0
H112 H 0.12411 0.67711 0.17712 0.0
N113 N 0.07481 0.65699 0.02818 0.0
C114 C 0.11303 0.66302 0.05696 0.0
C115 C 0.16033 0.6604 0.99005 0.0
C116 C 0.17828 0.66752 0.05347 0.0
C117 C 0.0959 0.65609 0.99483 0.0
C118 C 0.20208 0.66602 0.01953 0.0
N119 N 1.02308 0.66033 0.09229 0.0
C120 C 0.99297 0.66261 0.12364 0.0
C121 C 0.12536 0.67066 0.12045 0.0
C122 C 0.08687 0.66453 0.09002 0.0
C123 C 0.09616 0.67247 0.15311 0.0
C124 C 0.02937 0.66853 0.15463 0.0
H125 H 0.25206 0.66931 0.01576 0.0
H126 H 0.26794 0.67683 0.08175 0.0
H127 H 0.22158 0.6796 0.14036 0.0
O128 O 0.93513 0.66797 0.05541 0.0
O129 O 0.06838 0.64025 0.03652 0.0
O130 O 0.0599 0.61985 0.02452 0.0
O131 O 0.91408 0.65892 0.00103 0.0
O132 O 0.93457 0.64069 0.08164 0.0
O133 O 0.9893 0.62301 0.07256 0.0
O134 O 0.97873 0.59821 0.98242 0.0
O135 O 0.86313 0.62677 0.00347 0.0
O136 O 0.86901 0.64187 0.05118 0.0
O137 O 0.95832 0.59815 0.03651 0.0
O138 O 0.99695 0.62153 0.97446 0.0
O139 O 0.95002 0.63998 0.98162 0.0
C140 C 0.09535 0.62977 0.03167 0.0
C141 C 0.83872 0.67397 0.02376 0.0
C142 C 0.77023 0.69149 0.02388 0.0
C143 C 0.71065 0.68459 0.02208 0.0
C144 C 0.77876 0.66729 0.02212 0.0
C145 C 0.71506 0.6726 0.02128 0.0
C146 C 0.83432 0.68604 0.02472 0.0
C147 C 0.96994 0.63258 0.09373 0.0
C148 C 0.90631 0.66852 0.02438 0.0
C149 C 0.21745 0.67338 0.08384 0.0
C150 C 0.19108 0.67494 0.11723 0.0
C151 C 0.83247 0.63433 0.02719 0.0
C152 C 0.03522 0.58412 0.01018 0.0
C153 C 0.07489 0.56465 0.01577 0.0
C154 C 0.14281 0.56879 0.01777 0.0
C155 C 0.10319 0.58806 0.01238 0.0
C156 C 1.02129 0.57245 0.01191 0.0
C157 C 0.15667 0.5804 0.01608 0.0
C158 C 0.9838 0.6313 0.96339 0.0
C159 C 0.97792 0.59205 0.00696 0.0
H160 H 0.66047 0.68842 0.02081 0.0
H161 H 0.78122 0.658 0.02133 0.0
H162 H 0.66889 0.66738 0.01983 0.0
H163 H 0.88095 0.69118 0.02652 0.0
H164 H 0.18534 0.56312 0.02126 0.0
H165 H 0.11481 0.59704 0.01138 0.0
H166 H 0.96857 0.56944 0.00995 0.0
H167 H 0.2091 0.5835 0.01787 0.0
Eu168 Eu 0.08749 0.65081 0.54735 0.0
C169 C 0.24102 0.60542 0.50286 0.0
N170 N 0.18381 0.60903 0.48629 0.0
C171 C 0.22895 0.6029 0.42967 0.0
C172 C 0.29499 0.60039 0.48301 0.0
C173 C 0.17634 0.60769 0.45031 0.0
C174 C 0.28851 0.59921 0.44607 0.0
C175 C 0.30546 0.60327 0.55732 0.0
C176 C 0.24611 0.60692 0.53985 0.0
C177 C 0.35861 0.59808 0.53747 0.0
C178 C 0.35344 0.59665 0.50049 0.0
Eu179 Eu 0.09507 0.61517 0.5227 0.0
N180 N 0.1928 0.61161 0.55856 0.0
C181 C 0.30902 0.60462 0.59424 0.0
C182 C 0.19434 0.61213 0.59426 0.0
C183 C 0.25301 0.60899 0.61273 0.0
H184 H 0.1295 0.61021 0.43758 0.0
H185 H 0.25411 0.60957 0.64111 0.0
H186 H 0.13882 0.6594 0.63375 0.0
H187 H 0.85935 0.66286 0.47365 0.0
H188 H 0.14979 0.61437 0.60864 0.0
H189 H 0.35387 0.60197 0.60859 0.0
H190 H 0.97456 0.65459 0.48106 0.0
H191 H 0.22322 0.6019 0.40111 0.0
H192 H 0.40394 0.59505 0.5505 0.0
H193 H 0.39504 0.59264 0.48562 0.0
H194 H 0.08963 0.66892 0.68945 0.0
H195 H 0.32901 0.59542 0.42997 0.0
H196 H 0.79989 0.67198 0.52653 0.0
N197 N 0.04767 0.66064 0.60153 0.0
C198 C 0.98376 0.6651 0.59973 0.0
C199 C 0.05912 0.66782 0.66443 0.0
C200 C 0.95415 0.67083 0.63066 0.0
C201 C 0.08653 0.66231 0.63298 0.0
C202 C 0.99234 0.67198 0.66334 0.0
N203 N 0.97852 0.65868 0.53737 0.0
C204 C 0.94877 0.65857 0.50417 0.0
C205 C 0.88315 0.66913 0.56376 0.0
C206 C 0.94866 0.66428 0.5667 0.0
C207 C 0.85039 0.66841 0.52988 0.0
C208 C 0.88373 0.66325 0.49995 0.0
H209 H 0.97136 0.6763 0.68773 0.0
H210 H 0.8643 0.67973 0.65147 0.0
H211 H 0.8021 0.67821 0.59292 0.0
O212 O 0.13876 0.66 0.51237 0.0
O213 O 0.98407 0.6415 0.54016 0.0
O214 O 0.98545 0.62107 0.52845 0.0
O215 O 0.1225 0.66897 0.56576 0.0
O216 O 0.08582 0.64208 0.48886 0.0
O217 O 0.04454 0.62283 0.47823 0.0
O218 O 0.0861 0.59839 0.53883 0.0
O219 O 0.17826 0.62733 0.51059 0.0
O220 O 0.18678 0.64204 0.55941 0.0
O221 O 0.0516 0.59975 0.48553 0.0
O222 O 0.06115 0.62362 0.57683 0.0
O223 O 0.12548 0.64052 0.58846 0.0
C224 C 0.95373 0.63116 0.53435 0.0
C225 C 0.21334 0.67595 0.53844 0.0
C226 C 0.27565 0.69412 0.53848 0.0
C227 C 0.33749 0.68823 0.54253 0.0
C228 C 0.27543 0.67027 0.54255 0.0
C229 C 0.33721 0.67641 0.54457 0.0
C230 C 0.21361 0.68784 0.53648 0.0
C231 C 0.05676 0.63269 0.468 0.0
C232 C 0.14751 0.6697 0.53603 0.0
C233 C 0.88808 0.67538 0.62796 0.0
C234 C 0.85269 0.67454 0.59461 0.0
C235 C 0.21606 0.63468 0.5348 0.0
C236 C 1.00039 0.58498 0.50972 0.0
C237 C 0.96062 0.56543 0.51349 0.0
C238 C 0.89301 0.56949 0.51317 0.0
C239 C 0.93275 0.58885 0.50964 0.0
C240 C 1.0141 0.57331 0.51172 0.0
C241 C 0.87937 0.58111 0.51129 0.0
C242 C 0.08537 0.63308 0.59887 0.0
C243 C 0.05779 0.59296 0.50844 0.0
H244 H 0.38616 0.6928 0.54463 0.0
H245 H 0.27602 0.66113 0.54417 0.0
H246 H 0.38509 0.672 0.54781 0.0
H247 H 0.16535 0.69213 0.53287 0.0
H248 H 0.85067 0.56374 0.51497 0.0
H249 H 0.9213 0.59784 0.5084 0.0
H250 H 0.06651 0.57035 0.51156 0.0
H251 H 0.8272 0.58414 0.51129 0.0
Eu252 Eu 0.94512 0.39586 0.52915 0.0
C253 C 0.11862 0.35172 0.50253 0.0
N254 N 0.06589 0.35597 0.48404 0.0
C255 C 0.13021 0.35294 0.43248 0.0
C256 C 0.18071 0.34856 0.48708 0.0
C257 C 0.06961 0.35591 0.44885 0.0
C258 C 0.18643 0.34944 0.45184 0.0
C259 C 0.16418 0.34619 0.55697 0.0
C260 C 0.11034 0.35043 0.53702 0.0
C261 C 0.22642 0.34327 0.54184 0.0
C262 C 0.23466 0.34445 0.50701 0.0
Eu263 Eu 0.96598 0.36084 0.51494 0.0
N264 N 0.05025 0.35364 0.55141 0.0
C265 C 0.15408 0.34514 0.59171 0.0
C266 C 0.03953 0.35239 0.58491 0.0
C267 C 0.09133 0.34819 0.60566 0.0
H268 H 0.02536 0.35757 0.43268 0.0
H269 H 0.08271 0.34727 0.63233 0.0
H270 H 0.90461 0.39976 0.61561 0.0
H271 H 0.79453 0.40515 0.41399 0.0
H272 H 0.99052 0.35442 0.59536 0.0
H273 H 0.19421 0.34192 0.6079 0.0
H274 H 0.89658 0.39893 0.44662 0.0
H275 H 0.13296 0.35309 0.40468 0.0
H276 H 0.26849 0.34006 0.55684 0.0
H277 H 0.28285 0.34208 0.49563 0.0
H278 H 0.80358 0.40426 0.64924 0.0
H279 H 0.23313 0.34705 0.43897 0.0
H280 H 0.69053 0.41109 0.44527 0.0
N281 N 0.8523 0.40028 0.56557 0.0
C282 C 0.79459 0.40391 0.54915 0.0
C283 C 0.7999 0.40395 0.62096 0.0
C284 C 0.73617 0.40715 0.56797 0.0
C285 C 0.85684 0.40099 0.60142 0.0
C286 C 0.73897 0.40686 0.60407 0.0
N287 N 0.84971 0.40104 0.49533 0.0
C288 C 0.85097 0.40136 0.46025 0.0
C289 C 0.73453 0.40817 0.4958 0.0
C290 C 0.79371 0.40452 0.51337 0.0
C291 C 0.73506 0.40836 0.45967 0.0
C292 C 0.79356 0.40496 0.44186 0.0
H293 H 0.69513 0.40925 0.61939 0.0
H294 H 0.63206 0.41329 0.56457 0.0
H295 H 0.63043 0.41406 0.50144 0.0
O296 O 0.96124 0.41217 0.51134 0.0
O297 O 0.85677 0.38346 0.50297 0.0
O298 O 0.86278 0.36814 0.53142 0.0
O299 O 0.985 0.41159 0.56629 0.0
O300 O 0.99017 0.38722 0.47865 0.0
O301 O 0.93891 0.36882 0.46611 0.0
O302 O 0.9339 0.34433 0.52785 0.0
O303 O 0.05869 0.3724 0.53938 0.0
O304 O 0.05201 0.38914 0.51638 0.0
O305 O 0.92183 0.34652 0.47373 0.0
O306 O 0.92692 0.37025 0.56678 0.0
O307 O 0.981 0.38833 0.57729 0.0
C308 C 0.82662 0.37569 0.51718 0.0
C309 C 0.04308 0.42585 0.54288 0.0
C310 C 0.08565 0.44539 0.54071 0.0
C311 C 0.15286 0.44117 0.54218 0.0
C312 C 0.11032 0.42182 0.54411 0.0
C313 C 0.16491 0.42948 0.54386 0.0
C314 C 0.03099 0.4376 0.54118 0.0
C315 C 0.96652 0.37784 0.45607 0.0
C316 C 0.98434 0.41798 0.54227 0.0
C317 C 0.67724 0.41077 0.55047 0.0
C318 C 0.67642 0.41128 0.51454 0.0
C319 C 0.08786 0.38094 0.52804 0.0
C320 C 0.94718 0.32749 0.48354 0.0
C321 C 0.94505 0.30644 0.48232 0.0
C322 C 1.00487 0.30532 0.46399 0.0
C323 C 1.00657 0.32608 0.46502 0.0
C324 C 0.9163 0.31762 0.49199 0.0
C325 C 0.03517 0.31507 0.45539 0.0
C326 C 0.95798 0.3792 0.58845 0.0
C327 C 0.91841 0.33923 0.49505 0.0
H328 H 0.19614 0.44684 0.5414 0.0
H329 H 0.12047 0.41277 0.54509 0.0
H330 H 0.2168 0.42633 0.54472 0.0
H331 H 0.97881 0.44066 0.54044 0.0
H332 H 0.02772 0.29685 0.45576 0.0
H333 H 0.03095 0.33346 0.45789 0.0
H334 H 0.87069 0.31867 0.5065 0.0
H335 H 0.08098 0.31409 0.4411 0.0
Eu336 Eu 0.59373 0.86102 0.01551 0.0
C337 C 0.76408 0.90561 0.06374 0.0
N338 N 0.70801 0.90261 0.07885 0.0
C339 C 0.76505 0.90838 0.13681 0.0
C340 C 0.82374 0.90999 0.085 0.0
C341 C 0.70703 0.90408 0.11476 0.0
C342 C 0.82368 0.91133 0.12189 0.0
C343 C 0.82108 0.90671 0.01072 0.0
C344 C 0.76262 0.90393 0.02682 0.0
C345 C 0.88036 0.91111 0.03192 0.0
C346 C 0.88173 0.91273 0.06888 0.0
Eu347 Eu 0.61132 0.89666 0.03984 0.0
N348 N 0.70437 0.89967 0.00674 0.0
C349 C 0.81798 0.90518 0.97375 0.0
C350 C 0.69975 0.89906 0.97097 0.0
C351 C 0.7568 0.90147 0.95385 0.0
H352 H 0.66134 0.90203 0.1264 0.0
H353 H 0.753 0.90077 0.92539 0.0
H354 H 0.64771 0.85231 0.93419 0.0
H355 H 0.36572 0.84733 0.07086 0.0
H356 H 0.65173 0.89724 0.95552 0.0
H357 H 0.86186 0.90717 0.96042 0.0
H358 H 0.47873 0.85691 0.07263 0.0
H359 H 0.76441 0.90948 0.1653 0.0
H360 H 0.92543 0.91338 0.01998 0.0
H361 H 0.92802 0.91608 0.08479 0.0
H362 H 0.60148 0.84183 0.8748 0.0
H363 H 0.8686 0.91464 0.13906 0.0
H364 H 0.30939 0.83705 0.01349 0.0
N365 N 0.55603 0.85042 0.95864 0.0
C366 C 0.49273 0.84542 0.95523 0.0
C367 C 0.57017 0.84285 0.89713 0.0
C368 C 0.46488 0.83911 0.92212 0.0
C369 C 0.59591 0.84888 0.93063 0.0
C370 C 0.50406 0.83804 0.89276 0.0
N371 N 0.48571 0.85215 0.01685 0.0
C372 C 0.45486 0.85229 0.04757 0.0
C373 C 0.39242 0.84061 0.983 0.0
C374 C 0.45692 0.84617 0.98527 0.0
C375 C 0.3591 0.84117 0.01415 0.0
C376 C 0.39077 0.84695 0.0466 0.0
H377 H 0.48443 0.8333 0.86684 0.0
H378 H 0.37731 0.82905 0.89426 0.0
H379 H 0.31388 0.83036 0.94757 0.0
O380 O 0.66084 0.85397 0.05348 0.0
O381 O 0.49169 0.87029 0.01905 0.0
O382 O 0.49973 0.89072 0.03461 0.0
O383 O 0.62658 0.84279 0.00352 0.0
O384 O 0.58899 0.86969 0.07381 0.0
O385 O 0.56942 0.88987 0.08466 0.0
O386 O 0.59892 0.91306 0.02122 0.0
O387 O 0.69424 0.88413 0.05438 0.0
O388 O 0.69041 0.8698 0.00497 0.0
O389 O 0.57994 0.91259 0.07514 0.0
O390 O 0.56462 0.88825 0.98482 0.0
O391 O 0.62562 0.87143 0.97591 0.0
C392 C 0.46453 0.88076 0.02644 0.0
C393 C 0.63944 0.83401 0.05342 0.0
C394 C 0.65063 0.81401 0.06317 0.0
C395 C 0.60353 0.81656 0.08937 0.0
C396 C 0.59216 0.83623 0.07945 0.0
C397 C 0.57448 0.82758 0.09732 0.0
C398 C 0.66818 0.82282 0.04505 0.0
C399 C 0.5736 0.87971 0.09452 0.0
C400 C 0.6577 0.8433 0.03475 0.0
C401 C 0.39971 0.83387 0.91952 0.0
C402 C 0.36362 0.8346 0.94989 0.0
C403 C 0.72625 0.8768 0.03065 0.0
C404 C 0.52103 0.92671 0.04865 0.0
C405 C 0.47829 0.94613 0.04477 0.0
C406 C 0.41105 0.9418 0.04387 0.0
C407 C 0.45367 0.92256 0.04745 0.0
C408 C 0.53314 0.93846 0.04715 0.0
C409 C 0.399 0.9301 0.04514 0.0
C410 C 0.58421 0.87873 0.9637 0.0
C411 C 0.57943 0.91894 0.05108 0.0
H412 H 0.58816 0.80994 0.10333 0.0
H413 H 0.56874 0.84467 0.08593 0.0
H414 H 0.53788 0.82941 0.11732 0.0
H415 H 0.70447 0.82101 0.02483 0.0
H416 H 0.36767 0.94741 0.04162 0.0
H417 H 0.44345 0.91352 0.04825 0.0
H418 H 0.58536 0.94164 0.04826 0.0
H419 H 0.34705 0.92685 0.04419 0.0
Eu420 Eu 0.4578 0.15137 0.03518 0.0
C421 C 0.29386 0.10791 0.02785 0.0
N422 N 0.34974 0.11122 0.05079 0.0
C423 C 0.28944 0.1076 0.09926 0.0
C424 C 0.23218 0.10476 0.04032 0.0
C425 C 0.34926 0.11081 0.08584 0.0
C426 C 0.23052 0.10465 0.07647 0.0
C427 C 0.23962 0.10504 0.96806 0.0
C428 C 0.29779 0.1081 0.99202 0.0
C429 C 0.17768 0.10218 0.98061 0.0
C430 C 0.17402 0.10201 0.01658 0.0
Eu431 Eu 0.44878 0.11595 0.02566 0.0
N432 N 0.3583 0.11106 0.98051 0.0
C433 C 0.24562 0.10471 0.93202 0.0
C434 C 0.36558 0.10971 0.94499 0.0
C435 C 0.30916 0.10684 0.92038 0.0
H436 H 0.39495 0.11313 0.10336 0.0
H437 H 0.31507 0.10605 0.89234 0.0
H438 H 0.43007 0.1568 0.95333 0.0
H439 H 0.66283 0.16719 0.13741 0.0
H440 H 0.41491 0.11043 0.93505 0.0
H441 H 0.20214 0.10241 0.91281 0.0
H442 H 0.55415 0.15706 0.11266 0.0
H443 H 0.28871 0.10745 0.12716 0.0
H444 H 0.13243 0.09994 0.96259 0.0
H445 H 0.12594 0.09972 0.02576 0.0
H446 H 0.49121 0.16578 0.91156 0.0
H447 H 0.18405 0.10228 0.08704 0.0
H448 H 0.73082 0.17682 0.09969 0.0
N449 N 0.51046 0.16022 0.99409 0.0
C450 C 0.57103 0.16586 0.00572 0.0
C451 C 0.51458 0.16576 0.93783 0.0
C452 C 0.60681 0.17144 0.98328 0.0
C453 C 0.48068 0.16047 0.96121 0.0
C454 C 0.57826 0.17117 0.94879 0.0
N455 N 0.5618 0.16057 0.06119 0.0
C456 C 0.58381 0.1611 0.09588 0.0
C457 C 0.65911 0.17214 0.05348 0.0
C458 C 0.59684 0.16623 0.04043 0.0
C459 C 0.68321 0.17237 0.08867 0.0
C460 C 0.64511 0.16691 0.11002 0.0
H461 H 0.60423 0.17534 0.93071 0.0
H462 H 0.69763 0.1815 0.97913 0.0
H463 H 0.74342 0.1821 0.04055 0.0
O464 O 0.40029 0.16227 0.07566 0.0
O465 O 0.56265 0.14284 0.03615 0.0
O466 O 0.55817 0.12234 0.0243 0.0
O467 O 0.41321 0.16783 0.02655 0.0
O468 O 0.45034 0.14437 0.08602 0.0
O469 O 0.49827 0.12583 0.07792 0.0
O470 O 0.46206 0.0979 0.99787 0.0
O471 O 0.3664 0.12859 0.04871 0.0
O472 O 0.36166 0.1412 0.01139 0.0
O473 O 0.48663 0.10259 0.05428 0.0
O474 O 0.48877 0.12256 0.97947 0.0
O475 O 0.42662 0.1393 0.98246 0.0
C476 C 0.5917 0.13248 0.03037 0.0
C477 C 0.41124 0.18273 0.07778 0.0
C478 C 0.40189 0.20399 0.08354 0.0
C479 C 0.45074 0.20551 0.11281 0.0
C480 C 0.45912 0.18456 0.10732 0.0
C481 C 0.47877 0.19588 0.12458 0.0
C482 C 0.38264 0.19248 0.06604 0.0
C483 C 0.48061 0.1357 0.09821 0.0
C484 C 0.39255 0.17075 0.05833 0.0
C485 C 0.6693 0.1772 0.99604 0.0
C486 C 0.69533 0.17757 0.03105 0.0
C487 C 0.33034 0.13506 0.03032 0.0
C488 C 0.54298 0.08629 0.02269 0.0
C489 C 0.5879 0.0667 0.02212 0.0
C490 C 0.65278 0.07082 0.01638 0.0
C491 C 0.60775 0.09017 0.01661 0.0
C492 C 0.53317 0.07459 0.0253 0.0
C493 C 0.66242 0.08246 0.0136 0.0
C494 C 0.4678 0.13152 0.96589 0.0
C495 C 0.48474 0.09426 0.02617 0.0
H496 H 0.46826 0.21416 0.1264 0.0
H497 H 0.48166 0.17726 0.11703 0.0
H498 H 0.51627 0.19719 0.14711 0.0
H499 H 0.34516 0.19106 0.04345 0.0
H500 H 0.69638 0.0651 0.01439 0.0
H501 H 0.61583 0.09912 0.01414 0.0
H502 H 0.48251 0.07162 0.02927 0.0
H503 H 0.71251 0.08551 0.00913 0.0
Eu504 Eu 0.57846 0.14983 0.55326 0.0
C505 C 0.71989 0.10385 0.48681 0.0
N506 N 0.6587 0.10794 0.47596 0.0
C507 C 0.68445 0.10243 0.41522 0.0
C508 C 0.76608 0.09886 0.46183 0.0
C509 C 0.64 0.10721 0.44086 0.0
C510 C 0.74771 0.09822 0.42573 0.0
C511 C 0.80127 0.10101 0.53483 0.0
C512 C 0.73751 0.10503 0.52312 0.0
C513 C 0.84625 0.09571 0.5099 0.0
C514 C 0.82905 0.09474 0.47357 0.0
Eu515 Eu 0.58587 0.11475 0.52104 0.0
N516 N 0.69296 0.11021 0.54688 0.0
C517 C 0.8179 0.10237 0.57131 0.0
C518 C 0.70777 0.11104 0.5824 0.0
C519 C 0.77084 0.10736 0.59516 0.0
H520 H 0.59025 0.11007 0.43254 0.0
H521 H 0.78253 0.10815 0.62339 0.0
H522 H 0.61057 0.15778 0.64136 0.0
H523 H 0.35615 0.1588 0.46937 0.0
H524 H 0.67073 0.11414 0.6011 0.0
H525 H 0.86649 0.09943 0.58132 0.0
H526 H 0.47261 0.15204 0.48218 0.0
H527 H 0.66959 0.10187 0.38736 0.0
H528 H 0.89471 0.09235 0.51846 0.0
H529 H 0.86492 0.09079 0.45476 0.0
H530 H 0.54894 0.16621 0.69405 0.0
H531 H 0.78192 0.09448 0.40577 0.0
H532 H 0.2862 0.16735 0.51868 0.0
N533 N 0.52513 0.15849 0.60489 0.0
C534 C 0.45999 0.16217 0.60002 0.0
C535 C 0.52312 0.16503 0.66778 0.0
C536 C 0.42335 0.1673 0.62918 0.0
C537 C 0.55761 0.16012 0.638 0.0
C538 C 0.45548 0.16856 0.66339 0.0
N539 N 0.46726 0.15603 0.53805 0.0
C540 C 0.44201 0.15543 0.50387 0.0
C541 C 0.36401 0.16519 0.55954 0.0
C542 C 0.43056 0.16111 0.5656 0.0
C543 C 0.33692 0.16422 0.52448 0.0
C544 C 0.37624 0.15938 0.49655 0.0
H545 H 0.42903 0.17243 0.68651 0.0
H546 H 0.32739 0.17508 0.64534 0.0
H547 H 0.2756 0.17328 0.58441 0.0
O548 O 0.61291 0.16259 0.52342 0.0
O549 O 0.48121 0.13942 0.55688 0.0
O550 O 0.47817 0.12176 0.51623 0.0
O551 O 0.62781 0.16635 0.5804 0.0
O552 O 0.58707 0.14211 0.49434 0.0
O553 O 0.53263 0.12394 0.48071 0.0
O554 O 0.56654 0.09949 0.54365 0.0
O555 O 0.67389 0.12641 0.51184 0.0
O556 O 0.68011 0.14107 0.56118 0.0
O557 O 0.54644 0.09836 0.48732 0.0
O558 O 0.56077 0.12213 0.57781 0.0
O559 O 0.62243 0.13941 0.59288 0.0
C560 C 0.44799 0.13032 0.537 0.0
C561 C 0.60687 0.18245 0.55277 0.0
C562 C 0.62082 0.20226 0.54196 0.0
C563 C 0.55671 0.2051 0.55528 0.0
C564 C 0.54358 0.18566 0.5662 0.0
C565 C 0.51858 0.19685 0.56728 0.0
C566 C 0.64586 0.19083 0.54083 0.0
C567 C 0.55382 0.13356 0.47174 0.0
C568 C 0.63199 0.17043 0.55166 0.0
C569 C 0.35644 0.17116 0.62326 0.0
C570 C 0.32695 0.17014 0.58854 0.0
C571 C 0.70991 0.13408 0.53588 0.0
C572 C 0.48658 0.08508 0.51363 0.0
C573 C 0.44388 0.06563 0.51658 0.0
C574 C 0.37676 0.0699 0.51544 0.0
C575 C 0.41945 0.08916 0.51262 0.0
C576 C 0.49858 0.07336 0.51562 0.0
C577 C 0.36482 0.08157 0.51346 0.0
C578 C 0.58738 0.13098 0.60172 0.0
C579 C 0.54532 0.09287 0.51342 0.0
H580 H 0.53654 0.21382 0.55717 0.0
H581 H 0.51366 0.17957 0.5763 0.0
H582 H 0.46967 0.19919 0.57783 0.0
H583 H 0.69504 0.18847 0.53058 0.0
H584 H 0.33335 0.06419 0.51566 0.0
H585 H 0.40942 0.09819 0.51127 0.0
H586 H 0.55079 0.07033 0.51704 0.0
H587 H 0.31297 0.08473 0.51256 0.0
Eu588 Eu 0.4488 0.89584 0.53627 0.0
C589 C 0.57335 0.84633 0.46218 0.0
N590 N 0.50888 0.85041 0.45837 0.0
C591 C 0.50355 0.84264 0.39581 0.0
C592 C 0.60629 0.84049 0.43248 0.0
C593 C 0.47284 0.84829 0.42609 0.0
C594 C 0.57085 0.83883 0.39895 0.0
C595 C 0.67228 0.8434 0.50097 0.0
C596 C 0.60596 0.84773 0.49602 0.0
C597 C 0.70584 0.83781 0.47136 0.0
C598 C 0.67296 0.83636 0.43722 0.0
Eu599 Eu 0.46285 0.86036 0.51071 0.0
N600 N 0.57311 0.85351 0.5241 0.0
C601 C 0.70282 0.8448 0.53556 0.0
C602 C 0.60092 0.85433 0.55802 0.0
C603 C 0.66664 0.85017 0.56422 0.0
H604 H 0.42002 0.85083 0.42386 0.0
H605 H 0.68931 0.85108 0.59108 0.0
H606 H 0.42259 0.90039 0.62254 0.0
H607 H 0.27399 0.89974 0.4215 0.0
H608 H 0.57285 0.85837 0.58021 0.0
H609 H 0.75383 0.84163 0.54046 0.0
H610 H 0.38387 0.89607 0.45151 0.0
H611 H 0.47511 0.84112 0.37014 0.0
H612 H 0.75703 0.8345 0.4746 0.0
H613 H 0.69923 0.83192 0.41468 0.0
H614 H 0.32972 0.90739 0.6613 0.0
H615 H 0.5944 0.83439 0.37546 0.0
H616 H 0.17534 0.90615 0.45652 0.0
N617 N 0.36287 0.90134 0.57509 0.0
C618 C 0.30259 0.90442 0.55994 0.0
C619 C 0.32138 0.90653 0.63286 0.0
C620 C 0.24849 0.90852 0.58108 0.0
C621 C 0.37358 0.90249 0.61092 0.0
C622 C 0.25857 0.90955 0.6179 0.0
N623 N 0.34657 0.89884 0.50293 0.0
C624 C 0.34064 0.89809 0.46709 0.0
C625 C 0.23062 0.90568 0.50684 0.0
C626 C 0.29387 0.90297 0.52299 0.0
C627 C 0.22317 0.90421 0.46988 0.0
C628 C 0.27859 0.9005 0.44999 0.0
H629 H 0.21816 0.91265 0.63499 0.0
H630 H 0.1437 0.91439 0.58073 0.0
H631 H 0.12827 0.91202 0.51597 0.0
O632 O 0.45489 0.91242 0.51872 0.0
O633 O 0.36764 0.88311 0.5472 0.0
O634 O 0.36191 0.86855 0.498 0.0
O635 O 0.488 0.91172 0.57275 0.0
O636 O 0.48151 0.88783 0.48161 0.0
O637 O 0.4239 0.87013 0.46824 0.0
O638 O 0.41575 0.85053 0.54541 0.0
O639 O 0.56443 0.8702 0.51612 0.0
O640 O 0.55996 0.89058 0.53124 0.0
O641 O 0.42875 0.84221 0.49105 0.0
O642 O 0.45831 0.86922 0.56885 0.0
O643 O 0.50412 0.8881 0.57933 0.0
C644 C 0.33124 0.87566 0.52261 0.0
C645 C 0.53868 0.92626 0.54753 0.0
C646 C 0.57779 0.94573 0.54249 0.0
C647 C 0.64556 0.94174 0.5432 0.0
C648 C 0.60649 0.92247 0.54797 0.0
C649 C 0.6596 0.9302 0.5459 0.0
C650 C 0.52454 0.93786 0.54475 0.0
C651 C 0.46001 0.87833 0.45879 0.0
C652 C 0.48169 0.91822 0.54904 0.0
C653 C 0.18585 0.91125 0.5649 0.0
C654 C 0.17697 0.90984 0.52796 0.0
C655 C 0.59326 0.88068 0.52323 0.0
C656 C 0.34045 0.83476 0.51896 0.0
C657 C 0.27865 0.81658 0.51947 0.0
C658 C 0.21663 0.82242 0.51548 0.0
C659 C 0.27817 0.84039 0.5149 0.0
C660 C 0.34054 0.82289 0.52117 0.0
C661 C 0.21657 0.83422 0.51321 0.0
C662 C 0.49007 0.87834 0.58965 0.0
C663 C 0.40605 0.84105 0.52095 0.0
H664 H 0.68791 0.94757 0.54206 0.0
H665 H 0.61829 0.91355 0.54985 0.0
H666 H 0.71193 0.92725 0.54641 0.0
H667 H 0.47187 0.94067 0.54375 0.0
H668 H 0.16808 0.81784 0.51358 0.0
H669 H 0.27727 0.84951 0.51306 0.0
H670 H 0.38894 0.81863 0.5247 0.0
H671 H 0.16855 0.8386 0.51 0.0
H672 H 0.31255 0.36902 0.07749 0.0
H673 H 0.43799 0.36908 0.07784 0.0
H674 H 0.4251 0.38389 0.98414 0.0
H675 H 0.30023 0.38367 0.98338 0.0
H676 H 0.52683 0.35839 0.02548 0.0
H677 H 0.55684 0.40674 0.05301 0.0
H678 H 0.4824 0.39938 0.06335 0.0
H679 H 0.49269 0.40068 0.01841 0.0
C680 C 0.33643 0.37225 0.05688 0.0
C681 C 0.29604 0.37656 0.03078 0.0
C682 C 0.4083 0.3723 0.05714 0.0
C683 C 0.44162 0.3767 0.03141 0.0
C684 C 0.40119 0.38071 0.00483 0.0
H685 H 0.86683 0.36743 0.97622 0.0
H686 H 0.74264 0.36631 0.97817 0.0
C687 C 0.32951 0.3806 0.00446 0.0
C688 C 0.51836 0.37706 0.03214 0.0
H689 H 0.65533 0.39578 0.03857 0.0
C690 C 0.55489 0.36657 0.02839 0.0
C691 C 0.55565 0.38771 0.03656 0.0
C692 C 0.52027 0.39931 0.04334 0.0
C693 C 0.62697 0.36645 0.02814 0.0
C694 C 0.66394 0.3771 0.03117 0.0
C695 C 0.62744 0.38759 0.03574 0.0
C696 C 0.74033 0.37759 0.03005 0.0
C697 C 0.66298 0.35492 0.02541 0.0
C698 C 0.78121 0.3846 0.05789 0.0
C699 C 0.85262 0.38519 0.05681 0.0
C700 C 0.88517 0.37877 0.02786 0.0
C701 C 0.84401 0.37205 0.99958 0.0
C702 C 0.77266 0.37145 1.00065 0.0
H703 H 0.63058 0.34823 0.03332 0.0
H704 H 0.67486 0.35161 0.99751 0.0
H705 H 0.71179 0.35593 0.04234 0.0
H706 H 0.75789 0.38956 0.08073 0.0
H707 H 0.88238 0.39057 0.07891 0.0
H708 H 0.18771 0.64443 0.07554 0.0
H709 H 0.31232 0.64495 0.07377 0.0
H710 H 0.30035 0.61436 0.98946 0.0
H711 H 0.17498 0.61397 0.99052 0.0
H712 H 0.41015 0.6207 0.07131 0.0
H713 H 0.40892 0.64633 0.96438 0.0
H714 H 0.34439 0.64848 0.99609 0.0
H715 H 0.34394 0.63526 0.96308 0.0
C716 C 0.21147 0.63788 0.05638 0.0
C717 C 0.17131 0.62927 0.03282 0.0
C718 C 0.28278 0.63813 0.05563 0.0
C719 C 0.31561 0.62974 0.03134 0.0
C720 C 0.27599 0.62093 0.00836 0.0
H721 H 0.73756 0.62694 0.97127 0.0
H722 H 0.61314 0.62547 0.97266 0.0
C723 C 0.20446 0.62067 0.00916 0.0
C724 C 0.39121 0.63033 0.02984 0.0
H725 H 0.51626 0.64135 0.98812 0.0
C726 C 0.4335 0.62518 0.0531 0.0
C727 C 0.42144 0.63617 0.00605 0.0
C728 C 0.37779 0.64192 0.98087 0.0
C729 C 0.50534 0.62567 0.05311 0.0
C730 C 0.53603 0.63168 0.02964 0.0
C731 C 0.49328 0.63675 0.00617 0.0
C732 C 0.61208 0.63275 0.02887 0.0
C733 C 0.54736 0.61953 0.07791 0.0
C734 C 0.65351 0.63757 0.05974 0.0
C735 C 0.72484 0.63824 0.05906 0.0
C736 C 0.75651 0.63418 0.02743 0.0
C737 C 0.71491 0.62985 0.99625 0.0
C738 C 0.64362 0.62909 0.99698 0.0
H739 H 0.51786 0.61229 0.08481 0.0
H740 H 0.59461 0.6159 0.06615 0.0
H741 H 0.56216 0.62587 0.1029 0.0
H742 H 0.6307 0.64081 0.08449 0.0
H743 H 0.7553 0.64175 0.08348 0.0
H744 H 0.85979 0.61671 0.49011 0.0
H745 H 0.73443 0.6178 0.4892 0.0
H746 H 0.7527 0.64634 0.58015 0.0
H747 H 0.87721 0.64523 0.581 0.0
H748 H 0.64622 0.61511 0.53677 0.0
H749 H 0.62458 0.66044 0.51503 0.0
H750 H 0.70304 0.65239 0.51028 0.0
H751 H 0.67932 0.65942 0.55356 0.0
C752 C 0.83683 0.62318 0.50991 0.0
C753 C 0.87821 0.63108 0.53508 0.0
C754 C 0.76525 0.62385 0.5093 0.0
C755 C 0.73372 0.63241 0.53393 0.0
C756 C 0.77533 0.63997 0.55997 0.0
H757 H 0.31135 0.64378 0.589 0.0
H758 H 0.43645 0.64348 0.58837 0.0
C759 C 0.84664 0.63933 0.56045 0.0
C760 C 0.65752 0.63315 0.53322 0.0
H761 H 0.52336 0.65184 0.53031 0.0
C762 C 0.61954 0.62314 0.53512 0.0
C763 C 0.6222 0.64362 0.53106 0.0
C764 C 0.65927 0.65454 0.52701 0.0
C765 C 0.54787 0.62335 0.53555 0.0
C766 C 0.5127 0.6338 0.5338 0.0
C767 C 0.55038 0.64383 0.53181 0.0
C768 C 0.4367 0.63437 0.53371 0.0
C769 C 0.50994 0.61241 0.53811 0.0
C770 C 0.39517 0.6295 0.50305 0.0
C771 C 0.32367 0.62981 0.50317 0.0
C772 C 0.29204 0.6348 0.53416 0.0
C773 C 0.33389 0.63982 0.56471 0.0
C774 C 0.40544 0.63965 0.56442 0.0
H775 H 0.5448 0.6055 0.54449 0.0
H776 H 0.47269 0.61442 0.55874 0.0
H777 H 0.48119 0.60896 0.51226 0.0
H778 H 0.41813 0.62544 0.47897 0.0
H779 H 0.29315 0.62613 0.47895 0.0
H780 H 0.73191 0.38231 0.46954 0.0
H781 H 0.60778 0.38367 0.47277 0.0
H782 H 0.6242 0.36952 0.56777 0.0
H783 H 0.74879 0.36866 0.56545 0.0
H784 H 0.50925 0.36769 0.47002 0.0
H785 H 0.51346 0.39792 0.60069 0.0
H786 H 0.59004 0.39424 0.578 0.0
H787 H 0.55611 0.3845 0.60323 0.0
C788 C 0.70912 0.37962 0.49136 0.0
C789 C 0.75053 0.3756 0.51761 0.0
C790 C 0.63792 0.38031 0.49306 0.0
C791 C 0.60604 0.37695 0.52097 0.0
C792 C 0.6472 0.3725 0.54649 0.0
H793 H 0.18106 0.37231 0.57216 0.0
H794 H 0.30542 0.37127 0.56965 0.0
C795 C 0.71853 0.37187 0.54489 0.0
C796 C 0.5299 0.3779 0.52286 0.0
H797 H 0.40489 0.38936 0.57683 0.0
C798 C 0.48663 0.3725 0.49333 0.0
C799 C 0.49961 0.38415 0.55326 0.0
C800 C 0.54221 0.39063 0.58544 0.0
C801 C 0.41474 0.37298 0.49357 0.0
C802 C 0.38462 0.37921 0.52394 0.0
C803 C 0.4277 0.3846 0.55349 0.0
C804 C 0.3086 0.3801 0.52568 0.0
C805 C 0.37145 0.36654 0.46163 0.0
C806 C 0.26844 0.38559 0.50226 0.0
C807 C 0.19702 0.38617 0.50361 0.0
C808 C 0.16404 0.38122 0.52833 0.0
C809 C 0.20456 0.37602 0.55236 0.0
C810 C 0.27586 0.37548 0.55109 0.0
H811 H 0.40139 0.35997 0.44418 0.0
H812 H 0.32751 0.36202 0.46991 0.0
H813 H 0.35088 0.37289 0.44587 0.0
H814 H 0.29234 0.38942 0.48282 0.0
H815 H 0.16747 0.39025 0.48473 0.0
H816 H 0.82038 0.88432 0.08709 0.0
H817 H 0.94487 0.88596 0.08618 0.0
H818 H 0.92919 0.87042 0.97447 0.0
H819 H 0.80475 0.86946 0.97491 0.0
H820 H 0.04205 0.87077 0.07299 0.0
H821 H 0.04312 0.89815 0.97212 0.0
H822 H 0.96492 0.89431 0.98896 0.0
H823 H 1.00214 0.88431 0.95384 0.0
C824 C 0.84348 0.88142 0.06224 0.0
C825 C 0.80236 0.87704 0.03093 0.0
C826 C 0.91484 0.88227 0.06176 0.0
C827 C 0.94702 0.87861 0.03003 0.0
C828 C 0.90605 0.8737 0.99908 0.0
H829 H 0.37091 0.86563 0.98494 0.0
H830 H 0.24641 0.86541 0.98707 0.0
C831 C 0.8347 0.87301 0.99947 0.0
C832 C 0.02327 0.87965 0.02954 0.0
H833 H 0.15057 0.8895 0.98615 0.0
C834 C 0.06549 0.87498 0.05418 0.0
C835 C 0.05476 0.88513 0.00503 0.0
C836 C 1.01379 0.89085 0.97878 0.0
C837 C 0.1374 0.87542 0.05445 0.0
C838 C 0.16837 0.88068 0.02958 0.0
C839 C 0.12668 0.88545 0.00519 0.0
C840 C 0.24408 0.88103 0.02808 0.0
C841 C 0.18033 0.87009 0.08092 0.0
C842 C 0.2843 0.88995 0.05021 0.0
C843 C 0.35582 0.89006 0.04919 0.0
C844 C 0.38848 0.8812 0.02612 0.0
C845 C 0.3477 0.87242 0.00356 0.0
C846 C 0.27639 0.87233 0.00453 0.0
H847 H 0.14869 0.86608 0.09813 0.0
H848 H 0.21363 0.86328 0.06672 0.0
H849 H 0.21426 0.87692 0.09794 0.0
H850 H 0.26039 0.89676 0.06855 0.0
H851 H 0.38562 0.89689 0.06712 0.0
H852 H 0.23559 0.1379 0.97713 0.0
H853 H 0.11032 0.13716 0.97728 0.0
H854 H 0.12905 0.13165 0.0846 0.0
H855 H 0.25399 0.1325 0.08464 0.0
H856 H 0.02494 0.11851 0.98963 0.0
H857 H 0.99794 0.1596 0.08917 0.0
H858 H 0.07483 0.15618 0.06635 0.0
H859 H 0.05757 0.14935 0.10251 0.0
C860 C 0.21288 0.13669 1.0009 0.0
C861 C 0.2546 0.13529 0.03092 0.0
C862 C 0.14133 0.13617 1.00087 0.0
C863 C 0.11003 0.13445 0.03107 0.0
C864 C 0.15175 0.13315 0.06116 0.0
H865 H 0.68059 0.11599 0.04797 0.0
H866 H 0.80577 0.11594 0.04735 0.0
C867 C 0.2232 0.13359 0.0611 0.0
C868 C 0.03387 0.13397 0.03106 0.0
H869 H 0.89782 0.14798 0.07069 0.0
C870 C 0.99713 0.12495 0.00734 0.0
C871 C 0.99741 0.14241 0.05403 0.0
C872 C 0.03368 0.1525 0.0793 0.0
C873 C 0.92519 0.1241 0.00622 0.0
C874 C 0.88886 0.13246 0.02953 0.0
C875 C 0.92559 0.14152 0.05301 0.0
C876 C 0.81259 0.1322 0.02914 0.0
C877 C 0.88837 0.11442 0.97961 0.0
C878 C 0.7745 0.14136 0.01929 0.0
C879 C 0.70304 0.14132 0.01923 0.0
C880 C 0.66771 0.13226 0.02968 0.0
C881 C 0.70592 0.12306 0.03944 0.0
C882 C 0.77759 0.12303 0.03919 0.0
H883 H 0.92212 0.11009 0.95911 0.0
H884 H 0.87012 0.10772 0.99358 0.0
H885 H 0.84302 0.11784 0.96625 0.0
H886 H 0.80008 0.1485 0.01122 0.0
H887 H 0.67546 0.1483 0.0103 0.0
H888 H 0.35337 0.11892 0.48548 0.0
H889 H 0.22826 0.11977 0.48529 0.0
H890 H 0.24641 0.14182 0.5898 0.0
H891 H 0.37085 0.14099 0.59015 0.0
H892 H 0.13886 0.11318 0.52924 0.0
H893 H 0.12112 0.16098 0.53675 0.0
H894 H 0.19804 0.15295 0.52619 0.0
H895 H 0.17668 0.15713 0.57152 0.0
C896 C 0.33065 0.1239 0.50847 0.0
C897 C 0.37221 0.13006 0.53757 0.0
C898 C 0.25909 0.12442 0.50829 0.0
C899 C 0.22762 0.13111 0.53715 0.0
C900 C 0.26915 0.13691 0.56672 0.0
H901 H 0.80452 0.14335 0.59042 0.0
H902 H 0.92963 0.14256 0.5907 0.0
C903 C 0.34049 0.13639 0.56691 0.0
C904 C 0.1515 0.13184 0.5367 0.0
H905 H 1.01902 0.15108 0.54437 0.0
C906 C 0.11273 0.12147 0.53232 0.0
C907 C 0.11707 0.14265 0.54082 0.0
C908 C 0.1552 0.15406 0.54376 0.0
C909 C 0.04098 0.12163 0.53259 0.0
C910 C 1.00662 0.13243 0.53684 0.0
C911 C 0.04528 0.14281 0.54124 0.0
C912 C 0.93056 0.13309 0.53641 0.0
C913 C 1.00247 0.11025 0.52908 0.0
C914 C 0.88933 0.12825 0.5056 0.0
C915 C 0.81791 0.12881 0.50524 0.0
C916 C 0.7859 0.13412 0.5358 0.0
C917 C 0.82735 0.13918 0.56643 0.0
C918 C 0.89891 0.1387 0.56667 0.0
H919 H 0.03669 0.10306 0.53386 0.0
H920 H 0.96196 0.11122 0.54806 0.0
H921 H 0.97765 0.10772 0.5018 0.0
H922 H 0.91244 0.12407 0.48169 0.0
H923 H 0.78775 0.12509 0.48093 0.0
H924 H 0.67093 0.86689 0.47632 0.0
H925 H 0.79581 0.86623 0.47684 0.0
H926 H 0.81224 0.89494 0.56712 0.0
H927 H 0.68658 0.89553 0.56702 0.0
H928 H 0.89478 0.88857 0.47949 0.0
H929 H 0.92807 0.86411 0.58908 0.0
H930 H 0.85087 0.86272 0.55981 0.0
H931 H 0.86778 0.87589 0.59238 0.0
C932 C 0.70106 0.87301 0.49648 0.0
C933 C 0.66885 0.88114 0.52199 0.0
C934 C 0.77247 0.87268 0.49654 0.0
C935 C 0.81343 0.88047 0.52217 0.0
C936 C 0.78157 0.88881 0.5472 0.0
H937 H 0.25304 0.88266 0.57875 0.0
H938 H 0.12853 0.88412 0.57779 0.0
C939 C 0.70985 0.88919 0.54699 0.0
C940 C 0.8894 0.87971 0.52284 0.0
H941 H 0.02765 0.86898 0.5645 0.0
C942 C 0.92402 0.88433 0.49812 0.0
C943 C 0.92733 0.87415 0.54708 0.0
C944 C 0.89209 0.86887 0.57364 0.0
C945 C 0.99571 0.88367 0.49727 0.0
C946 C 0.03401 0.87795 0.52127 0.0
C947 C 0.99893 0.87336 0.54605 0.0
C948 C 0.11029 0.87681 0.52162 0.0
C949 C 0.02939 0.88936 0.47104 0.0
C950 C 0.14242 0.87195 0.49065 0.0
C951 C 0.21401 0.87136 0.49104 0.0
C952 C 0.2552 0.87546 0.52253 0.0
C953 C 0.22294 0.87972 0.55385 0.0
C954 C 0.15152 0.88047 0.55336 0.0
H955 H 0.99813 0.8966 0.46401 0.0
H956 H 0.08099 0.89288 0.48152 0.0
H957 H 0.03457 0.88276 0.44629 0.0
H958 H 0.11217 0.86866 0.46602 0.0
H959 H 0.23712 0.86788 0.46652 0.0
H960 H 0.14164 0.54483 0.98581 0.0
H961 H 0.11911 0.52467 0.99076 0.0
H962 H 0.95152 0.53617 0.05492 0.0
H963 H 0.97518 0.55642 0.05117 0.0
H964 H 0.03461 0.52076 0.08274 0.0
H965 H 0.96356 0.50311 0.94014 0.0
H966 H 0.04562 0.51036 0.94849 0.0
H967 H 0.9696 0.51859 0.95867 0.0
C968 C 0.10018 0.5431 0.00116 0.0
C969 C 0.06013 0.55229 0.018 0.0
C970 C 0.08684 0.53153 0.0036 0.0
C971 C 0.03288 0.52885 0.02272 0.0
C972 C 0.99309 0.538 0.03977 0.0
H973 H 0.86584 0.45911 0.01524 0.0
H974 H 0.88356 0.47951 0.01119 0.0
C975 C 1.00638 0.54958 0.03737 0.0
C976 C 1.01909 0.51658 0.02576 0.0
H977 H 0.98029 0.48918 0.97706 0.0
C978 C 1.02248 0.51386 0.05964 0.0
C979 C 1.00239 0.5076 0.99565 0.0
C980 C 0.99437 0.51005 0.9587 0.0
C981 C 1.01089 0.5024 0.0642 0.0
C982 C 0.9966 0.49334 0.03402 0.0
C983 C 0.99192 0.4961 1.00018 0.0
C984 C 0.98587 0.48097 0.03698 0.0
C985 C 1.013 0.50014 0.10137 0.0
C986 C 0.03768 0.47493 0.05252 0.0
C987 C 0.02751 0.46329 0.05514 0.0
C988 C 0.96541 0.45737 0.04203 0.0
C989 C 0.91386 0.46342 0.02614 0.0
C990 C 0.9241 0.47507 0.02356 0.0
H991 H 1.0057 0.5083 0.12124 0.0
H992 H 0.97304 0.49366 0.10365 0.0
H993 H 0.06366 0.49659 0.10805 0.0
H994 H 0.08627 0.47921 0.06247 0.0
H995 H 0.06816 0.45896 0.06779 0.0
H996 H 0.15781 0.4651 0.57533 0.0
H997 H 0.13667 0.48542 0.57087 0.0
H998 H 0.96317 0.47423 0.49635 0.0
H999 H 0.98423 0.4539 0.50036 0.0
H1000 H 0.13347 0.49561 0.51119 0.0
H1001 H 0.88277 0.49982 0.57016 0.0
H1002 H 0.94005 0.48796 0.57388 0.0
H1003 H 0.88732 0.48765 0.53357 0.0
C1004 C 0.11532 0.46694 0.55784 0.0
C1005 C 0.07255 0.45782 0.53834 0.0
C1006 C 0.10313 0.47858 0.55545 0.0
C1007 C 0.04769 0.48139 0.53371 0.0
C1008 C 1.00529 0.47232 0.51396 0.0
H1009 H 0.88898 0.54557 0.47992 0.0
H1010 H 0.91183 0.52534 0.48471 0.0
C1011 C 1.01742 0.46068 0.51631 0.0
C1012 C 0.03523 0.49377 0.53106 0.0
H1013 H 0.91674 0.5154 0.54396 0.0
C1014 C 0.08624 0.49996 0.51853 0.0
C1015 C 0.97352 0.49944 0.54057 0.0
C1016 C 0.91796 0.49343 0.55561 0.0
C1017 C 0.07671 0.51157 0.51456 0.0
C1018 C 1.01494 0.51724 0.52402 0.0
C1019 C 0.96401 0.51105 0.53664 0.0
C1020 C 1.00196 0.52958 0.52096 0.0
C1021 C 0.1322 0.51756 0.49939 0.0
C1022 C 0.04457 0.53874 0.54002 0.0
C1023 C 0.03154 0.55034 0.53741 0.0
C1024 C 0.9752 0.55305 0.51589 0.0
C1025 C 0.93238 0.54384 0.49702 0.0
C1026 C 0.94554 0.53225 0.49961 0.0
H1027 H 0.16722 0.51115 0.48477 0.0
H1028 H 0.11006 0.52303 0.48115 0.0
H1029 H 0.16305 0.52333 0.52137 0.0
H1030 H 0.08745 0.53695 0.55735 0.0
H1031 H 0.06486 0.5572 0.55283 0.0
H1032 H 0.4149 0.9656 0.07937 0.0
H1033 H 0.4339 0.98598 0.07556 0.0
H1034 H 0.58909 0.97531 0.00256 0.0
H1035 H 0.57062 0.95488 0.0064 0.0
H1036 H 0.62928 0.99448 0.05352 0.0
H1037 H 0.37018 1.00139 0.99425 0.0
H1038 H 0.36919 0.99637 0.03514 0.0
H1039 H 0.40146 0.98705 0.997 0.0
C1040 C 0.45266 0.96757 0.06224 0.0
C1041 C 0.4909 0.95858 0.043 0.0
C1042 C 0.46337 0.97924 0.06003 0.0
C1043 C 0.51196 0.98218 0.03821 0.0
C1044 C 0.55107 0.97326 0.01944 0.0
H1045 H 0.64424 0.04708 0.98342 0.0
H1046 H 0.62762 0.02671 0.98791 0.0
C1047 C 0.54064 0.96158 0.02178 0.0
C1048 C 0.52279 0.99457 0.03541 0.0
H1049 H 0.44112 0.01832 0.01394 0.0
C1050 C 0.58823 0.99967 0.04466 0.0
C1051 C 0.46923 1.00136 0.02381 0.0
C1052 C 0.39873 0.99624 0.01164 0.0
C1053 C 0.60119 0.0114 0.04331 0.0
C1054 C 0.54749 0.0182 0.03204 0.0
C1055 C 0.48213 0.01311 0.02272 0.0
C1056 C 0.55818 0.0306 0.0296 0.0
C1057 C 0.67193 0.01652 0.05462 0.0
C1058 C 0.52379 0.03956 0.05113 0.0
C1059 C 0.53352 0.05125 0.04883 0.0
C1060 C 0.57742 0.05423 0.02465 0.0
C1061 C 0.61116 0.04517 0.00284 0.0
C1062 C 0.60161 0.0335 0.00529 0.0
H1063 H 0.70297 0.01104 0.07001 0.0
H1064 H 0.69873 0.0171 0.0307 0.0
H1065 H 0.66921 0.02548 0.07099 0.0
H1066 H 0.48991 0.03751 0.07003 0.0
H1067 H 0.50731 0.05796 0.06637 0.0
H1068 H 0.5371 0.05066 0.48244 0.0
H1069 H 0.55831 0.03032 0.48662 0.0
H1070 H 0.40181 0.03206 0.5602 0.0
H1071 H 0.38051 0.0524 0.55636 0.0
H1072 H 0.59897 0.02103 0.54545 0.0
H1073 H 0.34568 1.00273 0.48633 0.0
H1074 H 0.37499 0.0171 0.48314 0.0
H1075 H 0.34131 0.01478 0.52328 0.0
C1076 C 0.50735 0.04675 0.49966 0.0
C1077 C 0.4568 0.05319 0.51893 0.0
C1078 C 0.51936 0.03509 0.50189 0.0
C1079 C 0.4809 0.02958 0.52325 0.0
C1080 C 0.43098 0.03601 0.54284 0.0
H1081 H 0.48395 0.96061 0.57657 0.0
H1082 H 0.4612 0.98086 0.57183 0.0
C1083 C 0.41887 0.04766 0.54061 0.0
C1084 C 0.49419 0.0172 0.52569 0.0
H1085 H 0.41895 0.99009 0.51224 0.0
C1086 C 0.55971 0.01425 0.53802 0.0
C1087 C 0.44291 0.00835 0.51606 0.0
C1088 C 0.37244 0.01084 0.50115 0.0
C1089 C 0.57501 1.00276 0.54158 0.0
C1090 C 0.52372 0.99392 0.53198 0.0
C1091 C 0.45819 0.99687 0.51966 0.0
C1092 C 0.53715 0.98155 0.53439 0.0
C1093 C 0.64556 1.00026 0.55637 0.0
C1094 C 0.58656 0.97511 0.51446 0.0
C1095 C 0.59947 0.96351 0.51697 0.0
C1096 C 0.56297 0.95804 0.53935 0.0
C1097 C 0.51263 0.96447 0.55883 0.0
C1098 C 0.49977 0.97608 0.55629 0.0
H1099 H 0.67263 0.00837 0.57095 0.0
H1100 H 0.64303 0.99406 0.57455 0.0
H1101 H 0.67636 0.99623 0.5342 0.0
H1102 H 0.61489 0.97903 0.49671 0.0
H1103 H 0.63756 0.95878 0.501 0.0
H1104 H 0.22195 0.28928 0.93142 0.0
H1105 H 0.23908 0.27079 0.95084 0.0
H1106 H 0.26338 0.28934 0.05972 0.0
H1107 H 0.24691 0.30797 0.04039 0.0
H1108 H 0.35973 0.26546 0.98847 0.0
H1109 H 0.13135 0.26202 0.06291 0.0
H1110 H 0.13503 0.2716 0.03179 0.0
H1111 H 0.17798 0.27567 0.07532 0.0
C1112 C 0.23048 0.28945 0.95955 0.0
C1113 C 0.2337 0.30014 0.98433 0.0
C1114 C 0.23999 0.27885 0.97061 0.0
C1115 C 0.25227 0.27865 0.00672 0.0
C1116 C 0.25293 0.28926 0.03173 0.0
H1117 H 0.36675 0.22496 0.12431 0.0
H1118 H 0.32939 0.24266 0.10462 0.0
C1119 C 0.24346 0.29991 0.02066 0.0
C1120 C 0.26971 0.26744 0.01768 0.0
H1121 H 0.21819 0.24807 0.06632 0.0
C1122 C 0.32859 0.26162 0.00534 0.0
C1123 C 0.22927 0.26248 0.03984 0.0
C1124 C 0.16453 0.26818 0.05308 0.0
C1125 C 0.34897 0.25111 0.01507 0.0
C1126 C 0.3083 0.24606 0.03705 0.0
C1127 C 0.24923 0.25188 0.04934 0.0
C1128 C 0.32766 0.23499 0.04861 0.0
C1129 C 0.41518 0.24574 0.00262 0.0
C1130 C 0.33764 0.22463 0.02376 0.0
C1131 C 0.36029 0.2145 0.03495 0.0
C1132 C 0.37268 0.21445 0.07132 0.0
C1133 C 0.35951 0.22471 0.09609 0.0
C1134 C 0.33743 0.23484 0.08488 0.0
H1135 H 0.44901 0.25223 0.99469 0.0
H1136 H 0.44344 0.24201 0.02362 0.0
H1137 H 0.40379 0.23859 0.97912 0.0
H1138 H 0.32878 0.22441 0.99562 0.0
H1139 H 0.36993 0.20681 0.01505 0.0
H1140 H 0.70221 0.80099 0.10986 0.0
H1141 H 0.73501 0.78048 0.09701 0.0
H1142 H 0.69676 0.77937 0.98494 0.0
H1143 H 0.66258 0.79995 0.99775 0.0
H1144 H 0.63092 0.7615 0.00766 0.0
H1145 H 0.90396 0.76396 0.05683 0.0
H1146 H 0.85 0.77183 0.08882 0.0
H1147 H 0.85777 0.77653 0.04769 0.0
C1148 C 0.70156 0.79643 0.08243 0.0
C1149 C 0.67953 0.80207 0.05481 0.0
C1150 C 0.72096 0.78472 0.07511 0.0
C1151 C 0.71911 0.77841 0.04 0.0
C1152 C 0.69906 0.7841 0.01223 0.0
H1153 H 0.84723 0.70505 0.99048 0.0
H1154 H 0.83717 0.72603 0.9916 0.0
C1155 C 0.67992 0.79587 0.01955 0.0
C1156 C 0.73211 0.76563 0.03282 0.0
H1157 H 0.84777 0.74525 0.05015 0.0
C1158 C 0.67869 0.75795 0.0165 0.0
C1159 C 0.79464 0.76098 0.04404 0.0
C1160 C 0.85512 0.76875 0.06 0.0
C1161 C 0.68499 0.74579 0.01257 0.0
C1162 C 0.74602 0.74117 0.02571 0.0
C1163 C 0.80066 0.74881 0.04051 0.0
C1164 C 0.75303 0.72849 0.02543 0.0
C1165 C 0.62599 0.73797 0.99459 0.0
C1166 C 0.71001 0.72295 0.04466 0.0
C1167 C 0.71594 0.71101 0.04434 0.0
C1168 C 0.76524 0.7043 0.02483 0.0
C1169 C 0.80911 0.70994 0.00606 0.0
C1170 C 0.80322 0.72192 0.00649 0.0
H1171 H 0.59165 0.74246 0.97759 0.0
H1172 H 0.64453 0.72982 0.97803 0.0
H1173 H 0.59542 0.73551 0.0151 0.0
H1174 H 0.67196 0.72791 0.06014 0.0
H1175 H 0.68229 0.70705 0.05973 0.0
H1176 H 0.36112 0.70553 0.50306 0.0
H1177 H 0.36226 0.72625 0.50017 0.0
H1178 H 0.19179 0.73208 0.56568 0.0
H1179 H 0.19047 0.71137 0.56889 0.0
H1180 H 0.1761 0.74252 0.507 0.0
H1181 H 0.43101 0.75363 0.57848 0.0
H1182 H 0.4314 0.74164 0.5411 0.0
H1183 H 0.38582 0.74019 0.57875 0.0
C1184 C 0.32433 0.71123 0.51723 0.0
C1185 C 0.27595 0.70676 0.53639 0.0
C1186 C 0.32509 0.7231 0.51555 0.0
C1187 C 0.27787 0.73078 0.53321 0.0
C1188 C 0.22891 0.72633 0.55195 0.0
H1189 H 0.19375 0.80519 0.55525 0.0
H1190 H 0.19275 0.78449 0.55822 0.0
C1191 C 0.22804 0.71446 0.55361 0.0
C1192 C 0.27865 0.74342 0.53157 0.0
H1193 H 0.37868 0.76821 0.55124 0.0
C1194 C 0.22026 0.74815 0.51684 0.0
C1195 C 0.33635 0.75077 0.54434 0.0
C1196 C 0.39951 0.74635 0.56186 0.0
C1197 C 0.21843 0.75996 0.51392 0.0
C1198 C 0.27613 0.76731 0.52667 0.0
C1199 C 0.33452 0.76258 0.54141 0.0
C1200 C 0.27691 0.77994 0.52503 0.0
C1201 C 0.15525 0.76438 0.49642 0.0
C1202 C 0.32571 0.78439 0.50618 0.0
C1203 C 0.32649 0.79625 0.50446 0.0
C1204 C 0.27864 0.80396 0.52173 0.0
C1205 C 0.23048 0.79949 0.54104 0.0
C1206 C 0.2298 0.78763 0.54277 0.0
H1207 H 0.12367 0.75711 0.47985 0.0
H1208 H 0.12346 0.76912 0.5172 0.0
H1209 H 0.16895 0.77053 0.47949 0.0
H1210 H 0.36274 0.77863 0.49239 0.0
H1211 H 0.36389 0.79933 0.48907 0.0
H1212 H 1.00861 0.2889 0.50899 0.0
H1213 H 0.95785 0.27079 0.51855 0.0
H1214 H 0.75877 0.28175 0.4839 0.0
H1215 H 0.80929 0.3 0.47465 0.0
H1216 H 0.75478 0.27219 0.54247 0.0
H1217 H 0.89706 0.24297 0.44167 0.0
H1218 H 0.9515 0.25237 0.47497 0.0
H1219 H 0.89495 0.2586 0.44516 0.0
C1220 C 0.95401 0.28745 0.50331 0.0
C1221 C 0.91307 0.29585 0.49071 0.0
C1222 C 0.92511 0.27705 0.50863 0.0
C1223 C 0.85474 0.27474 0.50106 0.0
C1224 C 0.81331 0.28329 0.48963 0.0
H1225 H 0.57436 0.21772 0.50164 0.0
H1226 H 0.63411 0.23493 0.4913 0.0
C1227 C 0.84216 0.29374 0.48452 0.0
C1228 C 0.82425 0.26349 0.50538 0.0
H1229 H 0.83248 0.23376 0.47832 0.0
C1230 C 0.77167 0.2638 0.52833 0.0
C1231 C 0.84629 0.2525 0.48696 0.0
C1232 C 0.90008 0.25155 0.46055 0.0
C1233 C 0.74106 0.25348 0.53361 0.0
C1234 C 0.7631 0.24253 0.51521 0.0
C1235 C 0.81597 0.24217 0.49249 0.0
C1236 C 0.72977 0.23142 0.51849 0.0
C1237 C 0.68563 0.25434 0.55909 0.0
C1238 C 0.76469 0.22345 0.53589 0.0
C1239 C 0.73051 0.21357 0.54195 0.0
C1240 C 0.66092 0.21151 0.53061 0.0
C1241 C 0.62757 0.21917 0.51132 0.0
C1242 C 0.6616 0.22901 0.50538 0.0
H1243 H 0.68487 0.26313 0.57675 0.0
H1244 H 0.63516 0.25271 0.54381 0.0
H1245 H 0.69246 0.24765 0.57572 0.0
H1246 H 0.81753 0.22513 0.54601 0.0
H1247 H 0.75753 0.20788 0.55701 0.0
H1248 H 0.16603 0.37178 0.1443 0.0
H1249 H 0.1394 0.37066 0.20466 0.0
H1250 H 0.93658 0.3833 0.18452 0.0
H1251 H 0.96351 0.38459 0.12452 0.0
H1252 H 0.99707 0.39474 0.24725 0.0
H1253 H 1.02172 0.34691 0.23787 0.0
H1254 H 0.09267 0.35367 0.22247 0.0
H1255 H 1.00938 0.35346 0.19945 0.0
C1256 C 0.11562 0.37419 0.15275 0.0
C1257 C 0.06652 0.37816 0.12976 0.0
C1258 C 0.10027 0.37349 0.1871 0.0
C1259 C 0.03546 0.37666 0.19889 0.0
C1260 C 0.98671 0.38072 0.17594 0.0
H1261 H 0.89558 0.36393 0.39874 0.0
H1262 H 0.90729 0.36363 0.33568 0.0
C1263 C 1.00217 0.38149 0.14174 0.0
C1264 C 1.0196 0.37638 0.23574 0.0
H1265 H 1.01507 0.35855 0.29556 0.0
C1266 C 1.00061 0.38681 0.25773 0.0
C1267 C 1.02266 0.36598 0.24921 0.0
C1268 C 0.03707 0.35433 0.226 0.0
C1269 C 0.9867 0.38722 0.2931 0.0
C1270 C 0.99387 0.37697 0.30722 0.0
C1271 C 1.01061 0.36644 0.28491 0.0
C1272 C 0.98623 0.3771 0.3453 0.0
C1273 C 0.96373 0.39861 0.31483 0.0
C1274 C 0.02738 0.38462 0.37159 0.0
C1275 C 1.02035 0.38488 0.40743 0.0
C1276 C 0.97278 0.37748 0.41785 0.0
C1277 C 0.93251 0.36976 0.39153 0.0
C1278 C 0.93921 0.36958 0.35554 0.0
H1279 H 0.93957 0.40427 0.29766 0.0
H1280 H 0.9267 0.39711 0.33392 0.0
H1281 H 1.00886 0.40343 0.32999 0.0
H1282 H 0.06545 0.39025 0.36439 0.0
H1283 H 0.05302 0.3908 0.427 0.0
H1284 H 0.89125 0.64426 0.14499 0.0
H1285 H 0.90554 0.64506 0.20891 0.0
H1286 H 0.07708 0.62193 0.19362 0.0
H1287 H 0.06513 0.62157 0.12988 0.0
H1288 H 0.89715 0.62791 0.24544 0.0
H1289 H 0.15684 0.64788 0.27149 0.0
H1290 H 0.10612 0.64738 0.23026 0.0
H1291 H 0.15307 0.63477 0.23781 0.0
C1292 C 0.93315 0.63959 0.15534 0.0
C1293 C 0.97825 0.63311 0.1325 0.0
C1294 C 0.94074 0.63994 0.19185 0.0
C1295 C 0.99327 0.63375 0.20623 0.0
C1296 C 0.03736 0.62704 0.18333 0.0
H1297 H 1.00946 0.61481 0.41347 0.0
H1298 H 0.9923 0.61519 0.35045 0.0
C1299 C 0.0301 0.62676 0.14686 0.0
C1300 C 1.00063 0.63403 0.24502 0.0
H1301 H 0.11444 0.63992 0.31795 0.0
C1302 C 0.94455 0.6306 0.26135 0.0
C1303 C 0.06211 0.63771 0.26592 0.0
C1304 C 0.12272 0.64226 0.25058 0.0
C1305 C 0.94863 0.63054 0.29781 0.0
C1306 C 1.0111 0.63371 0.31839 0.0
C1307 C 0.06677 0.63735 0.30216 0.0
C1308 C 1.01984 0.63349 0.35686 0.0
C1309 C 0.88549 0.6273 0.314 0.0
C1310 C 0.0426 0.64357 0.38151 0.0
C1311 C 0.05372 0.64333 0.41753 0.0
C1312 C 0.04227 0.633 0.42984 0.0
C1313 C 1.01873 0.62294 0.40511 0.0
C1314 C 1.00829 0.62316 0.36899 0.0
H1315 H 0.83814 0.6286 0.29767 0.0
H1316 H 0.88746 0.61792 0.31549 0.0
H1317 H 0.88215 0.63255 0.34123 0.0
H1318 H 0.05203 0.65164 0.37283 0.0
H1319 H 0.07175 0.65126 0.43566 0.0
H1320 H 0.07182 0.61782 0.92107 0.0
H1321 H 0.09598 0.61884 0.86046 0.0
H1322 H 0.95089 0.64664 0.86143 0.0
H1323 H 0.92813 0.64593 0.92222 0.0
H1324 H 1.01611 0.61498 0.80112 0.0
H1325 H 0.1109 0.66072 0.82588 0.0
H1326 H 0.09817 0.65321 0.86141 0.0
H1327 H 0.02709 0.65977 0.84083 0.0
C1328 C 0.04525 0.62418 0.9084 0.0
C1329 C 0.99816 0.63181 0.92654 0.0
C1330 C 0.05921 0.62478 0.87377 0.0
C1331 C 0.02629 0.63298 0.85652 0.0
C1332 C 0.97855 0.64048 0.87445 0.0
H1333 H 0.97356 0.62694 0.62853 0.0
H1334 H 0.96072 0.6272 0.69127 0.0
C1335 C 0.96514 0.63999 0.90918 0.0
C1336 C 0.03955 0.63333 0.81927 0.0
H1337 H 0.08103 0.65166 0.76515 0.0
C1338 C 0.03085 0.62299 0.79335 0.0
C1339 C 0.05997 0.64373 0.80907 0.0
C1340 C 0.07531 0.65495 0.83584 0.0
C1341 C 0.0402 0.62281 0.75753 0.0
C1342 C 0.05667 0.63334 0.74703 0.0
C1343 C 0.06729 0.64362 0.77306 0.0
C1344 C 0.06313 0.63385 0.70921 0.0
C1345 C 0.03337 0.61126 0.73142 0.0
C1346 C 0.12377 0.63802 0.69853 0.0
C1347 C 0.13071 0.63807 0.66272 0.0
C1348 C 0.07706 0.63395 0.63703 0.0
C1349 C 1.0159 0.63005 0.64782 0.0
C1350 C 1.00871 0.63013 0.68361 0.0
H1351 H 0.0422 0.60378 0.74485 0.0
H1352 H 0.98073 0.61031 0.71841 0.0
H1353 H 0.07004 0.61073 0.71059 0.0
H1354 H 0.16633 0.64099 0.7178 0.0
H1355 H 0.17866 0.641 0.65501 0.0
H1356 H 0.88814 0.36595 0.62537 0.0
H1357 H 0.9075 0.36511 0.68812 0.0
H1358 H 0.06711 0.39137 0.70111 0.0
H1359 H 0.04931 0.39204 0.63815 0.0
H1360 H 0.10485 0.37262 0.73162 0.0
H1361 H 0.85196 0.38925 0.77287 0.0
H1362 H 0.84726 0.37679 0.73676 0.0
H1363 H 0.8827 0.39038 0.73077 0.0
C1364 C 0.92734 0.37156 0.6416 0.0
C1365 C 0.96734 0.37904 0.62678 0.0
C1366 C 0.93801 0.37112 0.67751 0.0
C1367 C 0.98822 0.37827 0.6994 0.0
C1368 C 0.02798 0.3858 0.68471 0.0
H1369 H 0.03384 0.39549 0.92783 0.0
H1370 H 1.01505 0.39509 0.86457 0.0
C1371 C 1.01748 0.38621 0.64878 0.0
C1372 C 1.00025 0.37778 0.73747 0.0
H1373 H 0.92355 0.38203 0.81556 0.0
C1374 C 0.06527 0.37468 0.75002 0.0
C1375 C 0.9487 0.38059 0.76146 0.0
C1376 C 0.87891 0.38455 0.74995 0.0
C1377 C 0.08012 0.37427 0.78591 0.0
C1378 C 0.02812 0.37683 0.80974 0.0
C1379 C 0.96316 0.37996 0.79719 0.0
C1380 C 0.04076 0.37688 0.84818 0.0
C1381 C 0.15182 0.37142 0.79814 0.0
C1382 C 0.06119 0.36673 0.86012 0.0
C1383 C 0.07248 0.36693 0.89649 0.0
C1384 C 0.06281 0.37726 0.92161 0.0
C1385 C 0.04182 0.38736 0.90941 0.0
C1386 C 0.03091 0.38716 0.87316 0.0
H1387 H 0.18923 0.37254 0.77878 0.0
H1388 H 0.16826 0.37703 0.82425 0.0
H1389 H 0.15319 0.36217 0.80107 0.0
H1390 H 0.0678 0.35863 0.84133 0.0
H1391 H 0.08827 0.35897 0.90486 0.0
H1392 H 0.53036 0.89764 0.14573 0.0
H1393 H 0.51058 0.89716 0.20721 0.0
H1394 H 0.56357 0.86071 0.18897 0.0
H1395 H 0.58685 0.86127 0.12835 0.0
H1396 H 0.42199 0.8848 0.2355 0.0
H1397 H 0.68611 0.87349 0.27601 0.0
H1398 H 0.66423 0.8779 0.23451 0.0
H1399 H 0.6489 0.86307 0.23876 0.0
C1400 C 0.53827 0.88953 0.15479 0.0
C1401 C 0.56011 0.87947 0.1318 0.0
C1402 C 0.52665 0.88926 0.18998 0.0
C1403 C 0.5366 0.87895 0.20297 0.0
C1404 C 0.55703 0.86885 0.17991 0.0
H1405 H 0.38061 0.867 0.40003 0.0
H1406 H 0.39854 0.86659 0.33765 0.0
C1407 C 0.5694 0.86915 0.14493 0.0
C1408 C 0.5252 0.87871 0.2405 0.0
H1409 H 0.60173 0.87213 0.31626 0.0
C1410 C 0.46138 0.88208 0.25322 0.0
C1411 C 0.57687 0.87531 0.2638 0.0
C1412 C 0.64807 0.87235 0.25272 0.0
C1413 C 0.4476 0.88203 0.28842 0.0
C1414 C 0.49845 0.8782 0.31131 0.0
C1415 C 0.56241 0.87492 0.29863 0.0
C1416 C 0.48786 0.87803 0.34898 0.0
C1417 C 0.37936 0.88638 0.30093 0.0
C1418 C 0.53335 0.88423 0.37613 0.0
C1419 C 0.52433 0.88418 0.41163 0.0
C1420 C 0.46964 0.87792 0.42086 0.0
C1421 C 0.42409 0.87169 0.39374 0.0
C1422 C 0.43359 0.87163 0.35809 0.0
H1423 H 0.35461 0.89199 0.28376 0.0
H1424 H 0.34475 0.87879 0.29996 0.0
H1425 H 0.3849 0.89146 0.32865 0.0
H1426 H 0.57571 0.88921 0.36985 0.0
H1427 H 0.56039 0.88906 0.43191 0.0
H1428 H 0.40516 0.14816 0.14956 0.0
H1429 H 0.41635 0.14836 0.21322 0.0
H1430 H 0.59038 0.12574 0.19846 0.0
H1431 H 0.57707 0.12504 0.13463 0.0
H1432 H 0.51227 0.11822 0.23953 0.0
H1433 H 0.54364 0.16589 0.28994 0.0
H1434 H 0.465 0.16236 0.26312 0.0
H1435 H 0.5454 0.15935 0.24351 0.0
C1436 C 0.44625 0.14334 0.15999 0.0
C1437 C 0.49036 0.13661 0.13711 0.0
C1438 C 0.45292 0.14351 0.19649 0.0
C1439 C 0.50509 0.13724 0.21101 0.0
C1440 C 0.54973 0.13066 0.18809 0.0
H1441 H 0.62935 0.14648 0.43643 0.0
H1442 H 0.61698 0.14716 0.37341 0.0
C1443 C 0.54218 0.13029 0.15157 0.0
C1444 C 0.51153 0.13705 0.24967 0.0
H1445 H 0.52222 0.15444 0.33269 0.0
C1446 C 0.51488 0.12616 0.25985 0.0
C1447 C 0.51592 0.14739 0.27641 0.0
C1448 C 0.51805 0.1594 0.26771 0.0
C1449 C 0.52219 0.1253 0.29572 0.0
C1450 C 0.5233 0.13562 0.32246 0.0
C1451 C 0.52042 0.14652 0.31232 0.0
C1452 C 0.52951 0.13533 0.36103 0.0
C1453 C 0.5308 0.11333 0.30439 0.0
C1454 C 0.48382 0.12862 0.37544 0.0
C1455 C 0.49162 0.12805 0.41139 0.0
C1456 C 0.5442 0.13442 0.43391 0.0
C1457 C 0.5883 0.14147 0.41979 0.0
C1458 C 0.58124 0.14187 0.38372 0.0
H1459 H 0.5505 0.107 0.28196 0.0
H1460 H 0.56645 0.11362 0.32828 0.0
H1461 H 0.48036 0.10998 0.30952 0.0
H1462 H 0.44203 0.12381 0.3589 0.0
H1463 H 0.45617 0.12269 0.42161 0.0
H1464 H 0.383 0.13859 0.91503 0.0
H1465 H 0.40634 0.13867 0.85355 0.0
H1466 H 0.60522 0.1242 0.87106 0.0
H1467 H 0.58216 0.12417 0.93263 0.0
H1468 H 0.51235 0.14997 0.82735 0.0
H1469 H 0.52046 0.10174 0.78239 0.0
H1470 H 0.48578 0.10864 0.82341 0.0
H1471 H 0.57676 0.10752 0.82083 0.0
C1472 C 0.43189 0.13552 0.9058 0.0
C1473 C 0.48109 0.13148 0.92863 0.0
C1474 C 0.44508 0.13553 0.87068 0.0
C1475 C 0.50729 0.13136 0.8576 0.0
C1476 C 0.55646 0.1273 0.88039 0.0
H1477 H 0.67016 0.14125 0.66035 0.0
H1478 H 0.65165 0.14172 0.72282 0.0
C1479 C 0.5433 0.12729 0.91553 0.0
C1480 C 0.52067 0.13127 0.82015 0.0
H1481 H 0.55269 0.11314 0.74188 0.0
C1482 C 0.52126 0.14192 0.80865 0.0
C1483 C 0.53138 0.12075 0.79567 0.0
C1484 C 0.52801 0.10899 0.80599 0.0
C1485 C 0.53297 0.14235 0.77342 0.0
C1486 C 0.54529 0.13185 0.74919 0.0
C1487 C 0.54403 0.12119 0.76061 0.0
C1488 C 0.55699 0.13168 0.71149 0.0
C1489 C 0.53026 0.15397 0.7621 0.0
C1490 C 0.5108 0.12567 0.68438 0.0
C1491 C 0.52119 0.12541 0.64881 0.0
C1492 C 0.57811 0.13114 0.63957 0.0
C1493 C 0.6251 0.13696 0.6667 0.0
C1494 C 0.61456 0.13725 0.70237 0.0
H1495 H 0.50659 0.16081 0.78175 0.0
H1496 H 0.58298 0.15692 0.75929 0.0
H1497 H 0.50081 0.15315 0.73599 0.0
H1498 H 0.46621 0.12127 0.69079 0.0
H1499 H 0.48401 0.12085 0.62852 0.0
H1500 H 0.5773 0.89237 0.63922 0.0
H1501 H 0.59741 0.89194 0.7023 0.0
H1502 H 0.44991 0.86372 0.68965 0.0
H1503 H 0.43149 0.86381 0.62659 0.0
H1504 H 0.51533 0.89594 0.75421 0.0
H1505 H 0.60497 0.85048 0.74074 0.0
H1506 H 0.59499 0.85763 0.7035 0.0
H1507 H 0.52218 0.85106 0.71822 0.0
C1508 C 0.54957 0.88601 0.64985 0.0
C1509 C 0.5032 0.87807 0.62779 0.0
C1510 C 0.56108 0.88578 0.68592 0.0
C1511 C 0.52622 0.87764 0.7007 0.0
C1512 C 0.47911 0.86983 0.67877 0.0
H1513 H 0.47286 0.88537 0.92664 0.0
H1514 H 0.45815 0.88496 0.86277 0.0
C1515 C 0.46829 0.86995 0.64267 0.0
C1516 C 0.53713 0.8776 0.73925 0.0
H1517 H 0.57354 0.85986 0.79824 0.0
C1518 C 0.52857 0.88806 0.76382 0.0
C1519 C 0.55545 0.86737 0.75192 0.0
C1520 C 0.57066 0.85604 0.7272 0.0
C1521 C 0.53656 0.88855 0.80056 0.0
C1522 C 0.5513 0.87819 0.81318 0.0
C1523 C 0.56116 0.86777 0.78863 0.0
C1524 C 0.55849 0.87801 0.85172 0.0
C1525 C 0.53064 0.90024 0.82538 0.0
C1526 C 0.61845 0.87377 0.86659 0.0
C1527 C 0.62623 0.87378 0.90287 0.0
C1528 C 0.5742 0.87803 0.92501 0.0
C1529 C 0.51384 0.88211 0.91013 0.0
C1530 C 0.50568 0.88196 0.87372 0.0
H1531 H 0.54039 0.90759 0.81206 0.0
H1532 H 0.47797 0.90114 0.8342 0.0
H1533 H 0.56713 0.90104 0.84918 0.0
H1534 H 0.65988 0.87066 0.85023 0.0
H1535 H 0.6738 0.87076 0.91377 0.0
loop_
_geom_bond_atom_site_label_1
_geom_bond_atom_site_label_2
_geom_bond_distance
_geom_bond_site_symmetry_2
_ccdc_geom_bond_type
Eu0 N29 2.600 1_454 S
Eu0 N35 2.562 1_455 S
Eu0 O44 2.462 . S
Eu0 O45 2.373 1_455 S
Eu0 O47 2.432 1_554 S
Eu0 O48 2.291 . S
Eu0 O52 2.335 . S
Eu0 O55 2.372 1_554 S
Eu0 C64 2.787 . S
C1 N2 1.365 . S
C1 C4 1.405 . S
C1 C8 1.448 . S
N2 C1 1.365 . S
N2 C5 1.319 . S
N2 Eu11 2.600 . S
C3 C5 1.397 . S
C3 C6 1.367 . S
C3 H23 0.931 . S
C4 C1 1.405 . S
C4 C6 1.403 . S
C4 C10 1.439 . S
C5 N2 1.319 . S
C5 C3 1.397 . S
C5 H16 0.930 . S
C6 C3 1.367 . S
C6 C4 1.403 . S
C6 H27 0.929 . S
C7 C8 1.430 . S
C7 C9 1.387 . S
C7 C13 1.404 . S
C8 C1 1.448 . S
C8 C7 1.430 . S
C8 N12 1.351 . S
C9 C7 1.387 . S
C9 C10 1.374 . S
C9 H24 0.931 . S
C10 C4 1.439 . S
C10 C9 1.374 . S
C10 H25 0.931 . S
Eu11 N2 2.600 . S
Eu11 N12 2.562 . S
Eu11 O46 2.335 1_455 S
Eu11 O49 2.372 . S
Eu11 O50 2.462 . S
Eu11 O51 2.373 . S
Eu11 O53 2.432 . S
Eu11 O54 2.291 1_554 S
Eu11 C75 2.787 . S
N12 C8 1.351 . S
N12 Eu11 2.562 . S
N12 C14 1.325 1_554 S
C13 C7 1.404 . S
C13 C15 1.366 1_554 S
C13 H21 0.930 . S
C14 N12 1.325 1_556 S
C14 C15 1.416 . S
C14 H20 0.929 . S
C15 C13 1.366 1_556 S
C15 C14 1.416 . S
C15 H17 0.930 . S
H16 C5 0.930 . S
H17 C15 0.930 . S
H18 C33 0.930 1_455 S
H19 C40 0.930 . S
H20 C14 0.929 . S
H21 C13 0.930 . S
H22 C36 0.929 . S
H23 C3 0.931 . S
H24 C9 0.931 . S
H25 C10 0.931 . S
H26 C31 0.931 . S
H27 C6 0.929 . S
H28 C39 0.930 . S
N29 Eu0 2.600 1_656 S
N29 C30 1.365 . S
N29 C33 1.319 . S
C30 N29 1.365 . S
C30 C32 1.405 . S
C30 C38 1.448 . S
C31 H26 0.931 . S
C31 C33 1.397 . S
C31 C34 1.367 . S
C32 C30 1.405 . S
C32 C34 1.403 . S
C32 C65 1.439 . S
C33 H18 0.930 1_655 S
C33 N29 1.319 . S
C33 C31 1.397 . S
C34 C31 1.367 . S
C34 C32 1.403 . S
C34 H41 0.929 . S
N35 Eu0 2.562 1_655 S
N35 C36 1.325 . S
N35 C38 1.351 1_554 S
C36 H22 0.929 . S
C36 N35 1.325 . S
C36 C40 1.416 . S
C37 C38 1.430 1_554 S
C37 C39 1.404 . S
C37 C66 1.387 1_554 S
C38 C30 1.448 . S
C38 N35 1.351 1_556 S
C38 C37 1.430 1_556 S
C39 H28 0.930 . S
C39 C37 1.404 . S
C39 C40 1.366 . S
C40 H19 0.930 . S
C40 C36 1.416 . S
C40 C39 1.366 . S
H41 C34 0.929 . S
H42 C65 0.931 . S
H43 C66 0.931 . S
O44 Eu0 2.462 . S
O44 C64 1.252 . S
O45 Eu0 2.373 1_655 S
O45 C56 1.249 . S
O46 Eu11 2.335 1_655 S
O46 C56 1.264 . S
O47 Eu0 2.432 1_556 S
O47 C64 1.268 1_556 S
O48 Eu0 2.291 . S
O48 C63 1.255 . S
O49 Eu11 2.372 . S
O49 C63 1.257 . S
O50 Eu11 2.462 . S
O50 C75 1.252 . S
O51 Eu11 2.373 . S
O51 C67 1.249 . S
O52 Eu0 2.335 . S
O52 C67 1.264 . S
O53 Eu11 2.432 . S
O53 C75 1.268 . S
O54 Eu11 2.291 1_556 S
O54 C74 1.255 . S
O55 Eu0 2.372 1_556 S
O55 C74 1.257 . S
C56 O45 1.249 . S
C56 O46 1.264 . S
C57 C60 1.382 1_554 S
C57 C62 1.390 . S
C57 C64 1.506 . S
C58 C59 1.398 . S
C58 C62 1.392 . S
C59 C58 1.398 . S
C59 C61 1.372 1_554 S
C59 H76 0.931 . S
C60 C57 1.382 1_556 S
C60 C61 1.390 . S
C60 H77 0.931 . S
C61 C59 1.372 1_556 S
C61 C60 1.390 . S
C61 H78 0.929 . S
C62 C57 1.390 . S
C62 C58 1.392 . S
C62 H79 0.930 . S
C63 O48 1.255 . S
C63 O49 1.257 . S
C64 Eu0 2.787 . S
C64 O44 1.252 . S
C64 O47 1.268 1_554 S
C64 C57 1.506 . S
C65 C32 1.439 . S
C65 H42 0.931 . S
C65 C66 1.374 . S
C66 C37 1.387 1_556 S
C66 H43 0.931 . S
C66 C65 1.374 . S
C67 O51 1.249 . S
C67 O52 1.264 . S
C68 C71 1.382 . S
C68 C72 1.390 . S
C68 C75 1.506 1_655 S
C69 C70 1.398 . S
C69 C72 1.392 . S
C70 C69 1.398 . S
C70 C73 1.372 . S
C70 H80 0.931 . S
C71 C68 1.382 . S
C71 C73 1.390 . S
C71 H81 0.931 . S
C72 C68 1.390 . S
C72 C69 1.392 . S
C72 H82 0.930 1_554 S
C73 C70 1.372 . S
C73 C71 1.390 . S
C73 H83 0.929 . S
C74 O54 1.255 . S
C74 O55 1.257 . S
C75 Eu11 2.787 . S
C75 O50 1.252 . S
C75 O53 1.268 . S
C75 C68 1.506 1_455 S
H76 C59 0.931 . S
H77 C60 0.931 . S
H78 C61 0.929 . S
H79 C62 0.930 . S
H80 C70 0.931 . S
H81 C71 0.931 . S
H82 C72 0.930 1_556 S
H83 C73 0.929 . S
Eu84 N113 2.600 1_654 S
Eu84 N119 2.562 1_655 S
Eu84 O128 2.462 . S
Eu84 O129 2.373 1_655 S
Eu84 O131 2.432 . S
Eu84 O132 2.291 . S
Eu84 O136 2.335 . S
Eu84 O139 2.372 1_554 S
Eu84 C148 2.787 . S
C85 N86 1.365 . S
C85 C88 1.405 . S
C85 C92 1.448 . S
N86 C85 1.365 . S
N86 C89 1.319 . S
N86 Eu95 2.600 . S
C87 C89 1.397 . S
C87 C90 1.367 . S
C87 H107 0.931 . S
C88 C85 1.405 . S
C88 C90 1.403 . S
C88 C94 1.439 . S
C89 N86 1.319 . S
C89 C87 1.397 . S
C89 H100 0.930 . S
C90 C87 1.367 . S
C90 C88 1.403 . S
C90 H111 0.929 . S
C91 C92 1.430 . S
C91 C93 1.387 . S
C91 C97 1.404 1_554 S
C92 C85 1.448 . S
C92 C91 1.430 . S
C92 N96 1.351 . S
C93 C91 1.387 . S
C93 C94 1.374 . S
C93 H108 0.931 . S
C94 C88 1.439 . S
C94 C93 1.374 . S
C94 H109 0.931 . S
Eu95 N86 2.600 . S
Eu95 N96 2.562 . S
Eu95 O130 2.335 1_655 S
Eu95 O133 2.372 . S
Eu95 O134 2.462 1_554 S
Eu95 O135 2.373 . S
Eu95 O137 2.432 . S
Eu95 O138 2.291 1_554 S
Eu95 C159 2.787 . S
N96 C92 1.351 . S
N96 Eu95 2.562 . S
N96 C98 1.325 1_554 S
C97 C91 1.404 1_556 S
C97 C99 1.366 . S
C97 H105 0.930 . S
C98 N96 1.325 1_556 S
C98 C99 1.416 . S
C98 H104 0.929 . S
C99 C97 1.366 . S
C99 C98 1.416 . S
C99 H101 0.930 . S
H100 C89 0.930 . S
H101 C99 0.930 . S
H102 C117 0.930 1_655 S
H103 C124 0.930 . S
H104 C98 0.929 . S
H105 C97 0.930 . S
H106 C120 0.929 . S
H107 C87 0.931 . S
H108 C93 0.931 . S
H109 C94 0.931 . S
H110 C115 0.931 . S
H111 C90 0.929 . S
H112 C123 0.930 . S
N113 Eu84 2.600 1_456 S
N113 C114 1.365 . S
N113 C117 1.319 . S
C114 N113 1.365 . S
C114 C116 1.405 . S
C114 C122 1.448 1_556 S
C115 H110 0.931 . S
C115 C117 1.397 . S
C115 C118 1.367 . S
C116 C114 1.405 . S
C116 C118 1.403 . S
C116 C149 1.439 . S
C117 H102 0.930 1_455 S
C117 N113 1.319 . S
C117 C115 1.397 . S
C118 C115 1.367 . S
C118 C116 1.403 . S
C118 H125 0.929 . S
N119 Eu84 2.562 1_455 S
N119 C120 1.325 . S
N119 C122 1.351 . S
C120 H106 0.929 . S
C120 N119 1.325 . S
C120 C124 1.416 . S
C121 C122 1.430 . S
C121 C123 1.404 . S
C121 C150 1.387 . S
C122 C114 1.448 1_554 S
C122 N119 1.351 . S
C122 C121 1.430 . S
C123 H112 0.930 . S
C123 C121 1.404 . S
C123 C124 1.366 . S
C124 H103 0.930 . S
C124 C120 1.416 . S
C124 C123 1.366 . S
H125 C118 0.929 . S
H126 C149 0.931 . S
H127 C150 0.931 . S
O128 Eu84 2.462 . S
O128 C148 1.252 . S
O129 Eu84 2.373 1_455 S
O129 C140 1.249 . S
O130 Eu95 2.335 1_455 S
O130 C140 1.264 . S
O131 Eu84 2.432 . S
O131 C148 1.268 . S
O132 Eu84 2.291 . S
O132 C147 1.255 . S
O133 Eu95 2.372 . S
O133 C147 1.257 . S
O134 Eu95 2.462 1_556 S
O134 C159 1.252 1_556 S
O135 Eu95 2.373 . S
O135 C151 1.249 . S
O136 Eu84 2.335 . S
O136 C151 1.264 . S
O137 Eu95 2.432 . S
O137 C159 1.268 . S
O138 Eu95 2.291 1_556 S
O138 C158 1.255 . S
O139 Eu84 2.372 1_556 S
O139 C158 1.257 . S
C140 O129 1.249 . S
C140 O130 1.264 . S
C141 C144 1.382 . S
C141 C146 1.390 . S
C141 C148 1.506 . S
C142 C143 1.398 . S
C142 C146 1.392 . S
C143 C142 1.398 . S
C143 C145 1.372 . S
C143 H160 0.931 . S
C144 C141 1.382 . S
C144 C145 1.390 . S
C144 H161 0.931 1_554 S
C145 C143 1.372 . S
C145 C144 1.390 . S
C145 H162 0.949 . S
C146 C141 1.390 . S
C146 C142 1.392 . S
C146 H163 0.930 . S
C147 O132 1.255 . S
C147 O133 1.257 . S
C148 Eu84 2.787 . S
C148 O128 1.252 . S
C148 O131 1.268 . S
C148 C141 1.506 . S
C149 C116 1.439 . S
C149 H126 0.931 . S
C149 C150 1.374 1_556 S
C150 C121 1.387 . S
C150 H127 0.931 . S
C150 C149 1.374 1_554 S
C151 O135 1.249 . S
C151 O136 1.264 . S
C152 C155 1.382 . S
C152 C156 1.390 1_554 S
C152 C159 1.506 1_455 S
C153 C154 1.398 1_556 S
C153 C156 1.392 . S
C154 C153 1.398 1_554 S
C154 C157 1.372 . S
C154 H164 0.931 . S
C155 C152 1.382 . S
C155 C157 1.390 . S
C155 H165 0.931 . S
C156 C152 1.390 1_556 S
C156 C153 1.392 . S
C156 H166 0.930 . S
C157 C154 1.372 . S
C157 C155 1.390 . S
C157 H167 0.929 . S
C158 O138 1.255 . S
C158 O139 1.257 . S
C159 Eu95 2.787 . S
C159 O134 1.252 1_554 S
C159 O137 1.268 . S
C159 C152 1.506 1_655 S
H160 C143 0.931 . S
H161 C144 0.931 1_556 S
H162 C145 0.949 . S
H163 C146 0.930 . S
H164 C154 0.931 . S
H165 C155 0.931 . S
H166 C156 0.930 . S
H167 C157 0.929 . S
Eu168 N197 2.600 1_455 S
Eu168 N203 2.562 1_455 S
Eu168 O212 2.462 . S
Eu168 O213 2.373 1_455 S
Eu168 O215 2.432 . S
Eu168 O216 2.291 . S
Eu168 O220 2.335 . S
Eu168 O223 2.372 . S
Eu168 C232 2.787 . S
C169 N170 1.365 . S
C169 C172 1.405 . S
C169 C176 1.448 . S
N170 C169 1.365 . S
N170 C173 1.319 . S
N170 Eu179 2.600 . S
C171 C173 1.397 . S
C171 C174 1.367 . S
C171 H191 0.931 . S
C172 C169 1.405 . S
C172 C174 1.403 . S
C172 C178 1.439 . S
C173 N170 1.319 . S
C173 C171 1.397 . S
C173 H184 0.930 . S
C174 C171 1.367 . S
C174 C172 1.403 . S
C174 H195 0.929 . S
C175 C176 1.430 . S
C175 C177 1.387 . S
C175 C181 1.404 . S
C176 C169 1.448 . S
C176 C175 1.430 . S
C176 N180 1.351 . S
C177 C175 1.387 . S
C177 C178 1.374 . S
C177 H192 0.931 . S
C178 C172 1.439 . S
C178 C177 1.374 . S
C178 H193 0.931 . S
Eu179 N170 2.600 . S
Eu179 N180 2.562 . S
Eu179 O214 2.335 1_455 S
Eu179 O217 2.372 . S
Eu179 O218 2.462 . S
Eu179 O219 2.373 . S
Eu179 O221 2.432 . S
Eu179 O222 2.291 . S
Eu179 C243 2.787 . S
N180 C176 1.351 . S
N180 Eu179 2.562 . S
N180 C182 1.325 . S
C181 C175 1.404 . S
C181 C183 1.366 . S
C181 H189 0.930 . S
C182 N180 1.325 . S
C182 C183 1.416 . S
C182 H188 0.929 . S
C183 C181 1.366 . S
C183 C182 1.416 . S
C183 H185 0.930 . S
H184 C173 0.930 . S
H185 C183 0.930 . S
H186 C201 0.930 1_455 S
H187 C208 0.930 . S
H188 C182 0.929 . S
H189 C181 0.930 . S
H190 C204 0.929 . S
H191 C171 0.931 . S
H192 C177 0.931 . S
H193 C178 0.931 . S
H194 C199 0.931 . S
H195 C174 0.929 . S
H196 C207 0.930 . S
N197 Eu168 2.600 1_655 S
N197 C198 1.365 . S
N197 C201 1.319 . S
C198 N197 1.365 . S
C198 C200 1.405 . S
C198 C206 1.448 . S
C199 H194 0.931 . S
C199 C201 1.397 . S
C199 C202 1.367 . S
C200 C198 1.405 . S
C200 C202 1.403 . S
C200 C233 1.439 . S
C201 H186 0.930 1_655 S
C201 N197 1.319 . S
C201 C199 1.397 . S
C202 C199 1.367 . S
C202 C200 1.403 . S
C202 H209 0.929 . S
N203 Eu168 2.562 1_655 S
N203 C204 1.325 . S
N203 C206 1.351 . S
C204 H190 0.929 . S
C204 N203 1.325 . S
C204 C208 1.416 . S
C205 C206 1.430 . S
C205 C207 1.404 . S
C205 C234 1.387 . S
C206 C198 1.448 . S
C206 N203 1.351 . S
C206 C205 1.430 . S
C207 H196 0.930 . S
C207 C205 1.404 . S
C207 C208 1.366 . S
C208 H187 0.930 . S
C208 C204 1.416 . S
C208 C207 1.366 . S
H209 C202 0.929 . S
H210 C233 0.931 . S
H211 C234 0.931 . S
O212 Eu168 2.462 . S
O212 C232 1.252 . S
O213 Eu168 2.373 1_655 S
O213 C224 1.249 . S
O214 Eu179 2.335 1_655 S
O214 C224 1.264 . S
O215 Eu168 2.432 . S
O215 C232 1.268 . S
O216 Eu168 2.291 . S
O216 C231 1.255 . S
O217 Eu179 2.372 . S
O217 C231 1.257 . S
O218 Eu179 2.462 . S
O218 C243 1.252 . S
O219 Eu179 2.373 . S
O219 C235 1.249 . S
O220 Eu168 2.335 . S
O220 C235 1.264 . S
O221 Eu179 2.432 . S
O221 C243 1.268 . S
O222 Eu179 2.291 . S
O222 C242 1.255 . S
O223 Eu168 2.372 . S
O223 C242 1.257 . S
C224 O213 1.249 . S
C224 O214 1.264 . S
C225 C228 1.382 . S
C225 C230 1.390 . S
C225 C232 1.506 . S
C226 C227 1.398 . S
C226 C230 1.392 . S
C227 C226 1.398 . S
C227 C229 1.372 . S
C227 H244 0.931 . S
C228 C225 1.382 . S
C228 C229 1.390 . S
C228 H245 0.931 . S
C229 C227 1.372 . S
C229 C228 1.390 . S
C229 H246 0.929 . S
C230 C225 1.390 . S
C230 C226 1.392 . S
C230 H247 0.930 . S
C231 O216 1.255 . S
C231 O217 1.257 . S
C232 Eu168 2.787 . S
C232 O212 1.252 . S
C232 O215 1.268 . S
C232 C225 1.506 . S
C233 C200 1.439 . S
C233 H210 0.931 . S
C233 C234 1.374 . S
C234 C205 1.387 . S
C234 H211 0.931 . S
C234 C233 1.374 . S
C235 O219 1.249 . S
C235 O220 1.264 . S
C236 C239 1.382 . S
C236 C240 1.390 . S
C236 C243 1.506 1_655 S
C237 C238 1.398 . S
C237 C240 1.392 . S
C238 C237 1.398 . S
C238 C241 1.372 . S
C238 H248 0.931 . S
C239 C236 1.382 . S
C239 C241 1.390 . S
C239 H249 0.931 . S
C240 C236 1.390 . S
C240 C237 1.392 . S
C240 H250 0.930 . S
C241 C238 1.372 . S
C241 C239 1.390 . S
C241 H251 0.929 . S
C242 O222 1.255 . S
C242 O223 1.257 . S
C243 Eu179 2.787 . S
C243 O218 1.252 . S
C243 O221 1.268 . S
C243 C236 1.506 1_455 S
H244 C227 0.931 . S
H245 C228 0.931 . S
H246 C229 0.929 . S
H247 C230 0.930 . S
H248 C238 0.931 . S
H249 C239 0.931 . S
H250 C240 0.930 . S
H251 C241 0.929 . S
Eu252 N281 2.600 . S
Eu252 N287 2.562 . S
Eu252 O296 2.462 . S
Eu252 O297 2.373 . S
Eu252 O299 2.432 . S
Eu252 O300 2.291 . S
Eu252 O304 2.335 1_655 S
Eu252 O307 2.372 . S
Eu252 C316 2.787 . S
C253 N254 1.365 . S
C253 C256 1.405 . S
C253 C260 1.448 . S
N254 C253 1.365 . S
N254 C257 1.319 . S
N254 Eu263 2.600 1_455 S
C255 C257 1.397 . S
C255 C258 1.367 . S
C255 H275 0.931 . S
C256 C253 1.405 . S
C256 C258 1.403 . S
C256 C262 1.439 . S
C257 N254 1.319 . S
C257 C255 1.397 . S
C257 H268 0.930 1_455 S
C258 C255 1.367 . S
C258 C256 1.403 . S
C258 H279 0.929 . S
C259 C260 1.430 . S
C259 C261 1.387 . S
C259 C265 1.404 . S
C260 C253 1.448 . S
C260 C259 1.430 . S
C260 N264 1.351 . S
C261 C259 1.387 . S
C261 C262 1.374 . S
C261 H276 0.931 . S
C262 C256 1.439 . S
C262 C261 1.374 . S
C262 H277 0.931 . S
Eu263 N254 2.600 1_655 S
Eu263 N264 2.562 1_655 S
Eu263 O298 2.335 . S
Eu263 O301 2.372 . S
Eu263 O302 2.462 . S
Eu263 O303 2.373 1_655 S
Eu263 O305 2.432 . S
Eu263 O306 2.291 . S
Eu263 C327 2.787 . S
N264 C260 1.351 . S
N264 Eu263 2.562 1_455 S
N264 C266 1.325 . S
C265 C259 1.404 . S
C265 C267 1.366 . S
C265 H273 0.930 . S
C266 N264 1.325 . S
C266 C267 1.416 . S
C266 H272 0.929 . S
C267 C265 1.366 . S
C267 C266 1.416 . S
C267 H269 0.930 . S
H268 C257 0.930 1_655 S
H269 C267 0.930 . S
H270 C285 0.930 . S
H271 C292 0.930 . S
H272 C266 0.929 . S
H273 C265 0.930 . S
H274 C288 0.929 . S
H275 C255 0.931 . S
H276 C261 0.931 . S
H277 C262 0.931 . S
H278 C283 0.931 . S
H279 C258 0.929 . S
H280 C291 0.930 . S
N281 Eu252 2.600 . S
N281 C282 1.365 . S
N281 C285 1.319 . S
C282 N281 1.365 . S
C282 C284 1.405 . S
C282 C290 1.448 . S
C283 H278 0.931 . S
C283 C285 1.397 . S
C283 C286 1.367 . S
C284 C282 1.405 . S
C284 C286 1.403 . S
C284 C317 1.439 . S
C285 H270 0.930 . S
C285 N281 1.319 . S
C285 C283 1.397 . S
C286 C283 1.367 . S
C286 C284 1.403 . S
C286 H293 0.929 . S
N287 Eu252 2.562 . S
N287 C288 1.325 . S
N287 C290 1.351 . S
C288 H274 0.929 . S
C288 N287 1.325 . S
C288 C292 1.416 . S
C289 C290 1.430 . S
C289 C291 1.404 . S
C289 C318 1.387 . S
C290 C282 1.448 . S
C290 N287 1.351 . S
C290 C289 1.430 . S
C291 H280 0.930 . S
C291 C289 1.404 . S
C291 C292 1.366 . S
C292 H271 0.930 . S
C292 C288 1.416 . S
C292 C291 1.366 . S
H293 C286 0.929 . S
H294 C317 0.931 . S
H295 C318 0.931 . S
O296 Eu252 2.462 . S
O296 C316 1.252 . S
O297 Eu252 2.373 . S
O297 C308 1.249 . S
O298 Eu263 2.335 . S
O298 C308 1.264 . S
O299 Eu252 2.432 . S
O299 C316 1.268 . S
O300 Eu252 2.291 . S
O300 C315 1.255 . S
O301 Eu263 2.372 . S
O301 C315 1.257 . S
O302 Eu263 2.462 . S
O302 C327 1.252 . S
O303 Eu263 2.373 1_455 S
O303 C319 1.249 . S
O304 Eu252 2.335 1_455 S
O304 C319 1.264 . S
O305 Eu263 2.432 . S
O305 C327 1.268 . S
O306 Eu263 2.291 . S
O306 C326 1.255 . S
O307 Eu252 2.372 . S
O307 C326 1.257 . S
C308 O297 1.249 . S
C308 O298 1.264 . S
C309 C312 1.382 . S
C309 C314 1.390 . S
C309 C316 1.506 1_455 S
C310 C311 1.398 . S
C310 C314 1.392 . S
C311 C310 1.398 . S
C311 C313 1.372 . S
C311 H328 0.931 . S
C312 C309 1.382 . S
C312 C313 1.390 . S
C312 H329 0.931 . S
C313 C311 1.372 . S
C313 C312 1.390 . S
C313 H330 0.929 . S
C314 C309 1.390 . S
C314 C310 1.392 . S
C314 H331 0.930 . S
C315 O300 1.255 . S
C315 O301 1.257 . S
C316 Eu252 2.787 . S
C316 O296 1.252 . S
C316 O299 1.268 . S
C316 C309 1.506 1_655 S
C317 C284 1.439 . S
C317 H294 0.931 . S
C317 C318 1.374 . S
C318 C289 1.387 . S
C318 H295 0.931 . S
C318 C317 1.374 . S
C319 O303 1.249 . S
C319 O304 1.264 . S
C320 C323 1.382 . S
C320 C324 1.390 . S
C320 C327 1.506 . S
C321 C322 1.398 . S
C321 C324 1.392 . S
C322 C321 1.398 . S
C322 C325 1.372 . S
C322 H332 0.931 . S
C323 C320 1.382 . S
C323 C325 1.390 . S
C323 H333 0.931 . S
C324 C320 1.390 . S
C324 C321 1.392 . S
C324 H334 0.930 . S
C325 C322 1.372 . S
C325 C323 1.390 . S
C325 H335 0.929 . S
C326 O306 1.255 . S
C326 O307 1.257 . S
C327 Eu263 2.787 . S
C327 O302 1.252 . S
C327 O305 1.268 . S
C327 C320 1.506 . S
H328 C311 0.931 . S
H329 C312 0.931 . S
H330 C313 0.929 . S
H331 C314 0.930 . S
H332 C322 0.931 . S
H333 C323 0.931 . S
H334 C324 0.930 . S
H335 C325 0.929 . S
Eu336 N365 2.600 1_554 S
Eu336 N371 2.562 . S
Eu336 O380 2.462 . S
Eu336 O381 2.373 . S
Eu336 O383 2.432 1_554 S
Eu336 O384 2.291 . S
Eu336 O388 2.335 . S
Eu336 O391 2.372 1_554 S
Eu336 C400 2.787 . S
C337 N338 1.365 . S
C337 C340 1.405 . S
C337 C344 1.448 . S
N338 C337 1.365 . S
N338 C341 1.319 . S
N338 Eu347 2.600 . S
C339 C341 1.397 . S
C339 C342 1.367 . S
C339 H359 0.931 . S
C340 C337 1.405 . S
C340 C342 1.403 . S
C340 C346 1.439 . S
C341 N338 1.319 . S
C341 C339 1.397 . S
C341 H352 0.930 . S
C342 C339 1.367 . S
C342 C340 1.403 . S
C342 H363 0.929 . S
C343 C344 1.430 . S
C343 C345 1.387 . S
C343 C349 1.404 . S
C344 C337 1.448 . S
C344 C343 1.430 . S
C344 N348 1.351 . S
C345 C343 1.387 . S
C345 C346 1.374 . S
C345 H360 0.931 . S
C346 C340 1.439 . S
C346 C345 1.374 . S
C346 H361 0.931 . S
Eu347 N338 2.600 . S
Eu347 N348 2.562 . S
Eu347 O382 2.335 . S
Eu347 O385 2.372 . S
Eu347 O386 2.462 . S
Eu347 O387 2.373 . S
Eu347 O389 2.432 . S
Eu347 O390 2.291 1_554 S
Eu347 C411 2.787 . S
N348 C344 1.351 . S
N348 Eu347 2.562 . S
N348 C350 1.325 1_554 S
C349 C343 1.404 . S
C349 C351 1.366 1_554 S
C349 H357 0.930 . S
C350 N348 1.325 1_556 S
C350 C351 1.416 . S
C350 H356 0.929 . S
C351 C349 1.366 1_556 S
C351 C350 1.416 . S
C351 H353 0.930 . S
H352 C341 0.930 . S
H353 C351 0.930 . S
H354 C369 0.930 . S
H355 C376 0.930 . S
H356 C350 0.929 . S
H357 C349 0.930 . S
H358 C372 0.929 . S
H359 C339 0.931 . S
H360 C345 0.931 . S
H361 C346 0.931 . S
H362 C367 0.931 . S
H363 C342 0.929 . S
H364 C375 0.930 . S
N365 Eu336 2.600 1_556 S
N365 C366 1.365 . S
N365 C369 1.319 . S
C366 N365 1.365 . S
C366 C368 1.405 . S
C366 C374 1.448 . S
C367 H362 0.931 . S
C367 C369 1.397 . S
C367 C370 1.367 . S
C368 C366 1.405 . S
C368 C370 1.403 . S
C368 C401 1.439 . S
C369 H354 0.930 . S
C369 N365 1.319 . S
C369 C367 1.397 . S
C370 C367 1.367 . S
C370 C368 1.403 . S
C370 H377 0.929 . S
N371 Eu336 2.562 . S
N371 C372 1.325 . S
N371 C374 1.351 1_554 S
C372 H358 0.929 . S
C372 N371 1.325 . S
C372 C376 1.416 . S
C373 C374 1.430 1_554 S
C373 C375 1.404 . S
C373 C402 1.387 1_554 S
C374 C366 1.448 . S
C374 N371 1.351 1_556 S
C374 C373 1.430 1_556 S
C375 H364 0.930 . S
C375 C373 1.404 . S
C375 C376 1.366 . S
C376 H355 0.930 . S
C376 C372 1.416 . S
C376 C375 1.366 . S
H377 C370 0.929 . S
H378 C401 0.931 . S
H379 C402 0.931 . S
O380 Eu336 2.462 . S
O380 C400 1.252 . S
O381 Eu336 2.373 . S
O381 C392 1.249 . S
O382 Eu347 2.335 . S
O382 C392 1.264 . S
O383 Eu336 2.432 1_556 S
O383 C400 1.268 1_556 S
O384 Eu336 2.291 . S
O384 C399 1.255 . S
O385 Eu347 2.372 . S
O385 C399 1.257 . S
O386 Eu347 2.462 . S
O386 C411 1.252 . S
O387 Eu347 2.373 . S
O387 C403 1.249 . S
O388 Eu336 2.335 . S
O388 C403 1.264 . S
O389 Eu347 2.432 . S
O389 C411 1.268 . S
O390 Eu347 2.291 1_556 S
O390 C410 1.255 . S
O391 Eu336 2.372 1_556 S
O391 C410 1.257 . S
C392 O381 1.249 . S
C392 O382 1.264 . S
C393 C396 1.382 1_554 S
C393 C398 1.390 . S
C393 C400 1.506 . S
C394 C395 1.398 . S
C394 C398 1.392 . S
C395 C394 1.398 . S
C395 C397 1.372 1_554 S
C395 H412 0.931 . S
C396 C393 1.382 1_556 S
C396 C397 1.390 . S
C396 H413 0.931 . S
C397 C395 1.372 1_556 S
C397 C396 1.390 . S
C397 H414 0.929 . S
C398 C393 1.390 . S
C398 C394 1.392 . S
C398 H415 0.930 . S
C399 O384 1.255 . S
C399 O385 1.257 . S
C400 Eu336 2.787 . S
C400 O380 1.252 . S
C400 O383 1.268 1_554 S
C400 C393 1.506 . S
C401 C368 1.439 . S
C401 H378 0.931 . S
C401 C402 1.374 . S
C402 C373 1.387 1_556 S
C402 H379 0.931 . S
C402 C401 1.374 . S
C403 O387 1.249 . S
C403 O388 1.264 . S
C404 C407 1.382 . S
C404 C408 1.390 . S
C404 C411 1.506 . S
C405 C406 1.398 . S
C405 C408 1.392 . S
C406 C405 1.398 . S
C406 C409 1.372 . S
C406 H416 0.931 . S
C407 C404 1.382 . S
C407 C409 1.390 . S
C407 H417 0.931 . S
C408 C404 1.390 . S
C408 C405 1.392 . S
C408 H418 0.930 1_554 S
C409 C406 1.372 . S
C409 C407 1.390 . S
C409 H419 0.929 . S
C410 O390 1.255 . S
C410 O391 1.257 . S
C411 Eu347 2.787 . S
C411 O386 1.252 . S
C411 O389 1.268 . S
C411 C404 1.506 . S
H412 C395 0.931 . S
H413 C396 0.931 . S
H414 C397 0.929 . S
H415 C398 0.930 . S
H416 C406 0.931 . S
H417 C407 0.931 . S
H418 C408 0.930 1_556 S
H419 C409 0.929 . S
Eu420 N449 2.600 1_554 S
Eu420 N455 2.562 . S
Eu420 O464 2.462 . S
Eu420 O465 2.373 . S
Eu420 O467 2.432 . S
Eu420 O468 2.291 . S
Eu420 O472 2.335 . S
Eu420 O475 2.372 1_554 S
Eu420 C484 2.787 . S
C421 N422 1.365 . S
C421 C424 1.405 . S
C421 C428 1.448 . S
N422 C421 1.365 . S
N422 C425 1.319 . S
N422 Eu431 2.600 . S
C423 C425 1.397 . S
C423 C426 1.367 . S
C423 H443 0.931 . S
C424 C421 1.405 . S
C424 C426 1.403 . S
C424 C430 1.439 . S
C425 N422 1.319 . S
C425 C423 1.397 . S
C425 H436 0.930 . S
C426 C423 1.367 . S
C426 C424 1.403 . S
C426 H447 0.929 . S
C427 C428 1.430 . S
C427 C429 1.387 . S
C427 C433 1.404 1_554 S
C428 C421 1.448 . S
C428 C427 1.430 . S
C428 N432 1.351 . S
C429 C427 1.387 . S
C429 C430 1.374 . S
C429 H444 0.931 . S
C430 C424 1.439 . S
C430 C429 1.374 . S
C430 H445 0.931 . S
Eu431 N422 2.600 . S
Eu431 N432 2.562 . S
Eu431 O466 2.335 . S
Eu431 O469 2.372 . S
Eu431 O470 2.462 1_554 S
Eu431 O471 2.373 . S
Eu431 O473 2.432 . S
Eu431 O474 2.291 1_554 S
Eu431 C495 2.787 . S
N432 C428 1.351 . S
N432 Eu431 2.562 . S
N432 C434 1.325 1_554 S
C433 C427 1.404 1_556 S
C433 C435 1.366 . S
C433 H441 0.930 . S
C434 N432 1.325 1_556 S
C434 C435 1.416 . S
C434 H440 0.929 . S
C435 C433 1.366 . S
C435 C434 1.416 . S
C435 H437 0.930 . S
H436 C425 0.930 . S
H437 C435 0.930 . S
H438 C453 0.930 . S
H439 C460 0.930 . S
H440 C434 0.929 . S
H441 C433 0.930 . S
H442 C456 0.929 . S
H443 C423 0.931 . S
H444 C429 0.931 . S
H445 C430 0.931 . S
H446 C451 0.931 . S
H447 C426 0.929 . S
H448 C459 0.930 . S
N449 Eu420 2.600 1_556 S
N449 C450 1.365 . S
N449 C453 1.319 . S
C450 N449 1.365 . S
C450 C452 1.405 . S
C450 C458 1.448 1_556 S
C451 H446 0.931 . S
C451 C453 1.397 . S
C451 C454 1.367 . S
C452 C450 1.405 . S
C452 C454 1.403 . S
C452 C485 1.439 . S
C453 H438 0.930 . S
C453 N449 1.319 . S
C453 C451 1.397 . S
C454 C451 1.367 . S
C454 C452 1.403 . S
C454 H461 0.929 . S
N455 Eu420 2.562 . S
N455 C456 1.325 . S
N455 C458 1.351 . S
C456 H442 0.929 . S
C456 N455 1.325 . S
C456 C460 1.416 . S
C457 C458 1.430 . S
C457 C459 1.404 . S
C457 C486 1.387 . S
C458 C450 1.448 1_554 S
C458 N455 1.351 . S
C458 C457 1.430 . S
C459 H448 0.930 . S
C459 C457 1.404 . S
C459 C460 1.366 . S
C460 H439 0.930 . S
C460 C456 1.416 . S
C460 C459 1.366 . S
H461 C454 0.929 . S
H462 C485 0.931 . S
H463 C486 0.931 . S
O464 Eu420 2.462 . S
O464 C484 1.252 . S
O465 Eu420 2.373 . S
O465 C476 1.249 . S
O466 Eu431 2.335 . S
O466 C476 1.264 . S
O467 Eu420 2.432 . S
O467 C484 1.268 . S
O468 Eu420 2.291 . S
O468 C483 1.255 . S
O469 Eu431 2.372 . S
O469 C483 1.257 . S
O470 Eu431 2.462 1_556 S
O470 C495 1.252 1_556 S
O471 Eu431 2.373 . S
O471 C487 1.249 . S
O472 Eu420 2.335 . S
O472 C487 1.264 . S
O473 Eu431 2.432 . S
O473 C495 1.268 . S
O474 Eu431 2.291 1_556 S
O474 C494 1.255 . S
O475 Eu420 2.372 1_556 S
O475 C494 1.257 . S
C476 O465 1.249 . S
C476 O466 1.264 . S
C477 C480 1.382 . S
C477 C482 1.390 . S
C477 C484 1.506 . S
C478 C479 1.398 . S
C478 C482 1.392 . S
C479 C478 1.398 . S
C479 C481 1.372 . S
C479 H496 0.931 . S
C480 C477 1.382 . S
C480 C481 1.390 . S
C480 H497 0.931 1_554 S
C481 C479 1.372 . S
C481 C480 1.390 . S
C481 H498 0.948 . S
C482 C477 1.390 . S
C482 C478 1.392 . S
C482 H499 0.930 . S
C483 O468 1.255 . S
C483 O469 1.257 . S
C484 Eu420 2.787 . S
C484 O464 1.252 . S
C484 O467 1.268 . S
C484 C477 1.506 . S
C485 C452 1.439 . S
C485 H462 0.931 . S
C485 C486 1.374 1_556 S
C486 C457 1.387 . S
C486 H463 0.931 . S
C486 C485 1.374 1_554 S
C487 O471 1.249 . S
C487 O472 1.264 . S
C488 C491 1.382 . S
C488 C492 1.390 1_554 S
C488 C495 1.506 . S
C489 C490 1.398 1_556 S
C489 C492 1.392 . S
C490 C489 1.398 1_554 S
C490 C493 1.372 . S
C490 H500 0.931 . S
C491 C488 1.382 . S
C491 C493 1.390 . S
C491 H501 0.931 . S
C492 C488 1.390 1_556 S
C492 C489 1.392 . S
C492 H502 0.930 . S
C493 C490 1.372 . S
C493 C491 1.390 . S
C493 H503 0.929 . S
C494 O474 1.255 . S
C494 O475 1.257 . S
C495 Eu431 2.787 . S
C495 O470 1.252 1_554 S
C495 O473 1.268 . S
C495 C488 1.506 . S
H496 C479 0.931 . S
H497 C480 0.931 1_556 S
H498 C481 0.948 . S
H499 C482 0.930 . S
H500 C490 0.931 . S
H501 C491 0.931 . S
H502 C492 0.930 . S
H503 C493 0.929 . S
Eu504 N533 2.600 . S
Eu504 N539 2.562 . S
Eu504 O548 2.462 . S
Eu504 O549 2.373 . S
Eu504 O551 2.432 . S
Eu504 O552 2.291 . S
Eu504 O556 2.335 . S
Eu504 O559 2.372 . S
Eu504 C568 2.787 . S
C505 N506 1.365 . S
C505 C508 1.405 . S
C505 C512 1.448 . S
N506 C505 1.365 . S
N506 C509 1.319 . S
N506 Eu515 2.600 . S
C507 C509 1.397 . S
C507 C510 1.367 . S
C507 H527 0.931 . S
C508 C505 1.405 . S
C508 C510 1.403 . S
C508 C514 1.439 . S
C509 N506 1.319 . S
C509 C507 1.397 . S
C509 H520 0.930 . S
C510 C507 1.367 . S
C510 C508 1.403 . S
C510 H531 0.929 . S
C511 C512 1.430 . S
C511 C513 1.387 . S
C511 C517 1.404 . S
C512 C505 1.448 . S
C512 C511 1.430 . S
C512 N516 1.351 . S
C513 C511 1.387 . S
C513 C514 1.374 . S
C513 H528 0.931 . S
C514 C508 1.439 . S
C514 C513 1.374 . S
C514 H529 0.931 . S
Eu515 N506 2.600 . S
Eu515 N516 2.562 . S
Eu515 O550 2.335 . S
Eu515 O553 2.372 . S
Eu515 O554 2.462 . S
Eu515 O555 2.373 . S
Eu515 O557 2.432 . S
Eu515 O558 2.291 . S
Eu515 C579 2.787 . S
N516 C512 1.351 . S
N516 Eu515 2.562 . S
N516 C518 1.325 . S
C517 C511 1.404 . S
C517 C519 1.366 . S
C517 H525 0.930 . S
C518 N516 1.325 . S
C518 C519 1.416 . S
C518 H524 0.929 . S
C519 C517 1.366 . S
C519 C518 1.416 . S
C519 H521 0.930 . S
H520 C509 0.930 . S
H521 C519 0.930 . S
H522 C537 0.930 . S
H523 C544 0.930 . S
H524 C518 0.929 . S
H525 C517 0.930 . S
H526 C540 0.929 . S
H527 C507 0.931 . S
H528 C513 0.931 . S
H529 C514 0.931 . S
H530 C535 0.931 . S
H531 C510 0.929 . S
H532 C543 0.930 . S
N533 Eu504 2.600 . S
N533 C534 1.365 . S
N533 C537 1.319 . S
C534 N533 1.365 . S
C534 C536 1.405 . S
C534 C542 1.448 . S
C535 H530 0.931 . S
C535 C537 1.397 . S
C535 C538 1.367 . S
C536 C534 1.405 . S
C536 C538 1.403 . S
C536 C569 1.439 . S
C537 H522 0.930 . S
C537 N533 1.319 . S
C537 C535 1.397 . S
C538 C535 1.367 . S
C538 C536 1.403 . S
C538 H545 0.929 . S
N539 Eu504 2.562 . S
N539 C540 1.325 . S
N539 C542 1.351 . S
C540 H526 0.929 . S
C540 N539 1.325 . S
C540 C544 1.416 . S
C541 C542 1.430 . S
C541 C543 1.404 . S
C541 C570 1.387 . S
C542 C534 1.448 . S
C542 N539 1.351 . S
C542 C541 1.430 . S
C543 H532 0.930 . S
C543 C541 1.404 . S
C543 C544 1.366 . S
C544 H523 0.930 . S
C544 C540 1.416 . S
C544 C543 1.366 . S
H545 C538 0.929 . S
H546 C569 0.931 . S
H547 C570 0.931 . S
O548 Eu504 2.462 . S
O548 C568 1.252 . S
O549 Eu504 2.373 . S
O549 C560 1.249 . S
O550 Eu515 2.335 . S
O550 C560 1.264 . S
O551 Eu504 2.432 . S
O551 C568 1.268 . S
O552 Eu504 2.291 . S
O552 C567 1.255 . S
O553 Eu515 2.372 . S
O553 C567 1.257 . S
O554 Eu515 2.462 . S
O554 C579 1.252 . S
O555 Eu515 2.373 . S
O555 C571 1.249 . S
O556 Eu504 2.335 . S
O556 C571 1.264 . S
O557 Eu515 2.432 . S
O557 C579 1.268 . S
O558 Eu515 2.291 . S
O558 C578 1.255 . S
O559 Eu504 2.372 . S
O559 C578 1.257 . S
C560 O549 1.249 . S
C560 O550 1.264 . S
C561 C564 1.382 . S
C561 C566 1.390 . S
C561 C568 1.506 . S
C562 C563 1.398 . S
C562 C566 1.392 . S
C563 C562 1.398 . S
C563 C565 1.372 . S
C563 H580 0.931 . S
C564 C561 1.382 . S
C564 C565 1.390 . S
C564 H581 0.931 . S
C565 C563 1.372 . S
C565 C564 1.390 . S
C565 H582 0.929 . S
C566 C561 1.390 . S
C566 C562 1.392 . S
C566 H583 0.930 . S
C567 O552 1.255 . S
C567 O553 1.257 . S
C568 Eu504 2.787 . S
C568 O548 1.252 . S
C568 O551 1.268 . S
C568 C561 1.506 . S
C569 C536 1.439 . S
C569 H546 0.931 . S
C569 C570 1.374 . S
C570 C541 1.387 . S
C570 H547 0.931 . S
C570 C569 1.374 . S
C571 O555 1.249 . S
C571 O556 1.264 . S
C572 C575 1.382 . S
C572 C576 1.390 . S
C572 C579 1.506 . S
C573 C574 1.398 . S
C573 C576 1.392 . S
C574 C573 1.398 . S
C574 C577 1.372 . S
C574 H584 0.931 . S
C575 C572 1.382 . S
C575 C577 1.390 . S
C575 H585 0.931 . S
C576 C572 1.390 . S
C576 C573 1.392 . S
C576 H586 0.930 . S
C577 C574 1.372 . S
C577 C575 1.390 . S
C577 H587 0.929 . S
C578 O558 1.255 . S
C578 O559 1.257 . S
C579 Eu515 2.787 . S
C579 O554 1.252 . S
C579 O557 1.268 . S
C579 C572 1.506 . S
H580 C563 0.931 . S
H581 C564 0.931 . S
H582 C565 0.929 . S
H583 C566 0.930 . S
H584 C574 0.931 . S
H585 C575 0.931 . S
H586 C576 0.930 . S
H587 C577 0.929 . S
Eu588 N617 2.600 . S
Eu588 N623 2.562 . S
Eu588 O632 2.462 . S
Eu588 O633 2.373 . S
Eu588 O635 2.432 . S
Eu588 O636 2.291 . S
Eu588 O640 2.335 . S
Eu588 O643 2.372 . S
Eu588 C652 2.787 . S
C589 N590 1.365 . S
C589 C592 1.405 . S
C589 C596 1.448 . S
N590 C589 1.365 . S
N590 C593 1.319 . S
N590 Eu599 2.600 . S
C591 C593 1.397 . S
C591 C594 1.367 . S
C591 H611 0.931 . S
C592 C589 1.405 . S
C592 C594 1.403 . S
C592 C598 1.439 . S
C593 N590 1.319 . S
C593 C591 1.397 . S
C593 H604 0.930 . S
C594 C591 1.367 . S
C594 C592 1.403 . S
C594 H615 0.929 . S
C595 C596 1.430 . S
C595 C597 1.387 . S
C595 C601 1.404 . S
C596 C589 1.448 . S
C596 C595 1.430 . S
C596 N600 1.351 . S
C597 C595 1.387 . S
C597 C598 1.374 . S
C597 H612 0.931 . S
C598 C592 1.439 . S
C598 C597 1.374 . S
C598 H613 0.931 . S
Eu599 N590 2.600 . S
Eu599 N600 2.562 . S
Eu599 O634 2.335 . S
Eu599 O637 2.372 . S
Eu599 O638 2.462 . S
Eu599 O639 2.373 . S
Eu599 O641 2.432 . S
Eu599 O642 2.291 . S
Eu599 C663 2.787 . S
N600 C596 1.351 . S
N600 Eu599 2.562 . S
N600 C602 1.325 . S
C601 C595 1.404 . S
C601 C603 1.366 . S
C601 H609 0.930 . S
C602 N600 1.325 . S
C602 C603 1.416 . S
C602 H608 0.929 . S
C603 C601 1.366 . S
C603 C602 1.416 . S
C603 H605 0.930 . S
H604 C593 0.930 . S
H605 C603 0.930 . S
H606 C621 0.930 . S
H607 C628 0.930 . S
H608 C602 0.929 . S
H609 C601 0.930 . S
H610 C624 0.929 . S
H611 C591 0.931 . S
H612 C597 0.931 . S
H613 C598 0.931 . S
H614 C619 0.931 . S
H615 C594 0.929 . S
H616 C627 0.930 . S
N617 Eu588 2.600 . S
N617 C618 1.365 . S
N617 C621 1.319 . S
C618 N617 1.365 . S
C618 C620 1.405 . S
C618 C626 1.448 . S
C619 H614 0.931 . S
C619 C621 1.397 . S
C619 C622 1.367 . S
C620 C618 1.405 . S
C620 C622 1.403 . S
C620 C653 1.439 . S
C621 H606 0.930 . S
C621 N617 1.319 . S
C621 C619 1.397 . S
C622 C619 1.367 . S
C622 C620 1.403 . S
C622 H629 0.929 . S
N623 Eu588 2.562 . S
N623 C624 1.325 . S
N623 C626 1.351 . S
C624 H610 0.929 . S
C624 N623 1.325 . S
C624 C628 1.416 . S
C625 C626 1.430 . S
C625 C627 1.404 . S
C625 C654 1.387 . S
C626 C618 1.448 . S
C626 N623 1.351 . S
C626 C625 1.430 . S
C627 H616 0.930 . S
C627 C625 1.404 . S
C627 C628 1.366 . S
C628 H607 0.930 . S
C628 C624 1.416 . S
C628 C627 1.366 . S
H629 C622 0.929 . S
H630 C653 0.931 . S
H631 C654 0.931 . S
O632 Eu588 2.462 . S
O632 C652 1.252 . S
O633 Eu588 2.373 . S
O633 C644 1.249 . S
O634 Eu599 2.335 . S
O634 C644 1.264 . S
O635 Eu588 2.432 . S
O635 C652 1.268 . S
O636 Eu588 2.291 . S
O636 C651 1.255 . S
O637 Eu599 2.372 . S
O637 C651 1.257 . S
O638 Eu599 2.462 . S
O638 C663 1.252 . S
O639 Eu599 2.373 . S
O639 C655 1.249 . S
O640 Eu588 2.335 . S
O640 C655 1.264 . S
O641 Eu599 2.432 . S
O641 C663 1.268 . S
O642 Eu599 2.291 . S
O642 C662 1.255 . S
O643 Eu588 2.372 . S
O643 C662 1.257 . S
C644 O633 1.249 . S
C644 O634 1.264 . S
C645 C648 1.382 . S
C645 C650 1.390 . S
C645 C652 1.506 . S
C646 C647 1.398 . S
C646 C650 1.392 . S
C647 C646 1.398 . S
C647 C649 1.372 . S
C647 H664 0.931 . S
C648 C645 1.382 . S
C648 C649 1.390 . S
C648 H665 0.931 . S
C649 C647 1.372 . S
C649 C648 1.390 . S
C649 H666 0.929 . S
C650 C645 1.390 . S
C650 C646 1.392 . S
C650 H667 0.930 . S
C651 O636 1.255 . S
C651 O637 1.257 . S
C652 Eu588 2.787 . S
C652 O632 1.252 . S
C652 O635 1.268 . S
C652 C645 1.506 . S
C653 C620 1.439 . S
C653 H630 0.931 . S
C653 C654 1.374 . S
C654 C625 1.387 . S
C654 H631 0.931 . S
C654 C653 1.374 . S
C655 O639 1.249 . S
C655 O640 1.264 . S
C656 C659 1.382 . S
C656 C660 1.390 . S
C656 C663 1.506 . S
C657 C658 1.398 . S
C657 C660 1.392 . S
C658 C657 1.398 . S
C658 C661 1.372 . S
C658 H668 0.931 . S
C659 C656 1.382 . S
C659 C661 1.390 . S
C659 H669 0.931 . S
C660 C656 1.390 . S
C660 C657 1.392 . S
C660 H670 0.930 . S
C661 C658 1.372 . S
C661 C659 1.390 . S
C661 H671 0.929 . S
C662 O642 1.255 . S
C662 O643 1.257 . S
C663 Eu599 2.787 . S
C663 O638 1.252 . S
C663 O641 1.268 . S
C663 C656 1.506 . S
H664 C647 0.931 . S
H665 C648 0.931 . S
H666 C649 0.929 . S
H667 C650 0.930 . S
H668 C658 0.931 . S
H669 C659 0.931 . S
H670 C660 0.930 . S
H671 C661 0.929 . S
H672 C680 0.929 . S
H673 C682 0.930 . S
H674 C684 0.955 . S
H675 C687 0.929 . S
H676 C690 0.930 . S
H677 C692 0.960 . S
H678 C692 0.960 . S
H679 C692 0.960 1_556 S
C680 H672 0.929 . S
C680 C681 1.377 . S
C680 C682 1.384 . S
C681 C680 1.377 . S
C681 C687 1.390 1_554 S
C682 H673 0.930 . S
C682 C680 1.384 . S
C682 C683 1.372 . S
C683 C682 1.372 . S
C683 C684 1.377 1_554 S
C683 C688 1.490 . S
C684 H674 0.955 . S
C684 C683 1.377 1_556 S
C684 C687 1.384 . S
H685 C701 0.930 . S
H686 C702 0.931 . S
C687 H675 0.929 . S
C687 C681 1.390 1_556 S
C687 C684 1.384 . S
C688 C683 1.490 . S
C688 C690 1.395 . S
C688 C691 1.403 . S
H689 C695 0.930 . S
C690 H676 0.930 . S
C690 C688 1.395 . S
C690 C693 1.403 . S
C691 C688 1.403 . S
C691 C692 1.524 . S
C691 C695 1.400 . S
C692 H677 0.960 . S
C692 H678 0.960 . S
C692 H679 0.960 1_554 S
C692 C691 1.524 . S
C693 C690 1.403 . S
C693 C694 1.392 . S
C693 C697 1.495 . S
C694 C693 1.392 . S
C694 C695 1.385 . S
C694 C696 1.478 . S
C695 H689 0.930 . S
C695 C691 1.400 . S
C695 C694 1.385 . S
C696 C694 1.478 . S
C696 C698 1.381 . S
C696 C702 1.383 1_554 S
C697 C693 1.495 . S
C697 H703 0.959 . S
C697 H704 0.961 . S
C697 H705 0.960 . S
C698 C696 1.381 . S
C698 C699 1.394 . S
C698 H706 0.930 . S
C699 C698 1.394 . S
C699 C700 1.383 . S
C699 H707 0.929 . S
C700 C699 1.383 . S
C700 C701 1.377 1_554 S
C701 H685 0.930 . S
C701 C700 1.377 1_556 S
C701 C702 1.379 . S
C702 H686 0.931 . S
C702 C696 1.383 1_556 S
C702 C701 1.379 . S
H703 C697 0.959 . S
H704 C697 0.961 . S
H705 C697 0.960 . S
H706 C698 0.930 . S
H707 C699 0.929 . S
H708 C716 0.929 . S
H709 C718 0.930 . S
H710 C720 0.930 1_556 S
H711 C723 0.929 1_556 S
H712 C726 0.930 . S
H713 C728 0.960 . S
H714 C728 0.960 . S
H715 C728 0.960 . S
C716 H708 0.929 . S
C716 C717 1.377 . S
C716 C718 1.384 . S
C717 C716 1.377 . S
C717 C723 1.390 . S
C718 H709 0.930 . S
C718 C716 1.384 . S
C718 C719 1.372 . S
C719 C718 1.372 . S
C719 C720 1.400 . S
C719 C724 1.490 . S
C720 H710 0.930 1_554 S
C720 C719 1.400 . S
C720 C723 1.386 . S
H721 C737 0.915 1_556 S
H722 C738 0.931 1_556 S
C723 H711 0.929 1_554 S
C723 C717 1.390 . S
C723 C720 1.386 . S
C724 C719 1.490 . S
C724 C726 1.395 . S
C724 C727 1.403 . S
H725 C731 0.930 1_556 S
C726 H712 0.930 . S
C726 C724 1.395 . S
C726 C729 1.403 . S
C727 C724 1.403 . S
C727 C728 1.524 1_554 S
C727 C731 1.400 . S
C728 H713 0.960 . S
C728 H714 0.960 . S
C728 H715 0.960 . S
C728 C727 1.524 1_556 S
C729 C726 1.403 . S
C729 C730 1.392 . S
C729 C733 1.495 . S
C730 C729 1.392 . S
C730 C731 1.385 . S
C730 C732 1.478 . S
C731 H725 0.930 1_554 S
C731 C727 1.400 . S
C731 C730 1.385 . S
C732 C730 1.478 . S
C732 C734 1.381 . S
C732 C738 1.383 . S
C733 C729 1.495 . S
C733 H739 0.959 . S
C733 H740 0.961 . S
C733 H741 0.960 . S
C734 C732 1.381 . S
C734 C735 1.394 . S
C734 H742 0.930 . S
C735 C734 1.394 . S
C735 C736 1.383 . S
C735 H743 0.929 . S
C736 C735 1.383 . S
C736 C737 1.388 . S
C737 H721 0.915 1_554 S
C737 C736 1.388 . S
C737 C738 1.383 . S
C738 H722 0.931 1_554 S
C738 C732 1.383 . S
C738 C737 1.383 . S
H739 C733 0.959 . S
H740 C733 0.961 . S
H741 C733 0.960 . S
H742 C734 0.930 . S
H743 C735 0.929 . S
H744 C752 0.929 . S
H745 C754 0.930 . S
H746 C756 0.930 . S
H747 C759 0.929 . S
H748 C762 0.930 . S
H749 C764 0.960 . S
H750 C764 0.960 . S
H751 C764 0.960 . S
C752 H744 0.929 . S
C752 C753 1.377 . S
C752 C754 1.384 . S
C753 C752 1.377 . S
C753 C759 1.390 . S
C754 H745 0.930 . S
C754 C752 1.384 . S
C754 C755 1.372 . S
C755 C754 1.372 . S
C755 C756 1.400 . S
C755 C760 1.490 . S
C756 H746 0.930 . S
C756 C755 1.400 . S
C756 C759 1.386 . S
H757 C773 0.930 . S
H758 C774 0.931 . S
C759 H747 0.929 . S
C759 C753 1.390 . S
C759 C756 1.386 . S
C760 C755 1.490 . S
C760 C762 1.395 . S
C760 C763 1.403 . S
H761 C767 0.930 . S
C762 H748 0.930 . S
C762 C760 1.395 . S
C762 C765 1.403 . S
C763 C760 1.403 . S
C763 C764 1.524 . S
C763 C767 1.400 . S
C764 H749 0.960 . S
C764 H750 0.960 . S
C764 H751 0.960 . S
C764 C763 1.524 . S
C765 C762 1.403 . S
C765 C766 1.392 . S
C765 C769 1.495 . S
C766 C765 1.392 . S
C766 C767 1.385 . S
C766 C768 1.478 . S
C767 H761 0.930 . S
C767 C763 1.400 . S
C767 C766 1.385 . S
C768 C766 1.478 . S
C768 C770 1.381 . S
C768 C774 1.383 . S
C769 C765 1.495 . S
C769 H775 0.959 . S
C769 H776 0.961 . S
C769 H777 0.960 . S
C770 C768 1.381 . S
C770 C771 1.394 . S
C770 H778 0.930 . S
C771 C770 1.394 . S
C771 C772 1.383 . S
C771 H779 0.929 . S
C772 C771 1.383 . S
C772 C773 1.377 . S
C773 H757 0.930 . S
C773 C772 1.377 . S
C773 C774 1.379 . S
C774 H758 0.931 . S
C774 C768 1.383 . S
C774 C773 1.379 . S
H775 C769 0.959 . S
H776 C769 0.961 . S
H777 C769 0.960 . S
H778 C770 0.930 . S
H779 C771 0.929 . S
H780 C788 0.929 . S
H781 C790 0.930 . S
H782 C792 0.930 . S
H783 C795 0.929 . S
H784 C798 0.930 . S
H785 C800 0.960 . S
H786 C800 0.960 . S
H787 C800 0.960 . S
C788 H780 0.929 . S
C788 C789 1.377 . S
C788 C790 1.384 . S
C789 C788 1.377 . S
C789 C795 1.390 . S
C790 H781 0.930 . S
C790 C788 1.384 . S
C790 C791 1.372 . S
C791 C790 1.372 . S
C791 C792 1.400 . S
C791 C796 1.490 . S
C792 H782 0.930 . S
C792 C791 1.400 . S
C792 C795 1.386 . S
H793 C809 0.930 . S
H794 C810 0.931 . S
C795 H783 0.929 . S
C795 C789 1.390 . S
C795 C792 1.386 . S
C796 C791 1.490 . S
C796 C798 1.395 . S
C796 C799 1.403 . S
H797 C803 0.930 . S
C798 H784 0.930 . S
C798 C796 1.395 . S
C798 C801 1.403 . S
C799 C796 1.403 . S
C799 C800 1.524 . S
C799 C803 1.400 . S
C800 H785 0.960 . S
C800 H786 0.960 . S
C800 H787 0.960 . S
C800 C799 1.524 . S
C801 C798 1.403 . S
C801 C802 1.392 . S
C801 C805 1.495 . S
C802 C801 1.392 . S
C802 C803 1.385 . S
C802 C804 1.478 . S
C803 H797 0.930 . S
C803 C799 1.400 . S
C803 C802 1.385 . S
C804 C802 1.478 . S
C804 C806 1.381 . S
C804 C810 1.383 . S
C805 C801 1.495 . S
C805 H811 0.959 . S
C805 H812 0.961 . S
C805 H813 0.960 . S
C806 C804 1.381 . S
C806 C807 1.394 . S
C806 H814 0.930 . S
C807 C806 1.394 . S
C807 C808 1.383 . S
C807 H815 0.929 . S
C808 C807 1.383 . S
C808 C809 1.377 . S
C809 H793 0.930 . S
C809 C808 1.377 . S
C809 C810 1.379 . S
C810 H794 0.931 . S
C810 C804 1.383 . S
C810 C809 1.379 . S
H811 C805 0.959 . S
H812 C805 0.961 . S
H813 C805 0.960 . S
H814 C806 0.930 . S
H815 C807 0.929 . S
H816 C824 0.929 . S
H817 C826 0.930 . S
H818 C828 0.930 . S
H819 C831 0.943 . S
H820 C834 0.930 . S
H821 C836 0.960 1_455 S
H822 C836 0.960 . S
H823 C836 0.960 . S
C824 H816 0.929 . S
C824 C825 1.377 . S
C824 C826 1.384 . S
C825 C824 1.377 . S
C825 C831 1.374 1_554 S
C826 H817 0.930 . S
C826 C824 1.384 . S
C826 C827 1.372 . S
C827 C826 1.372 . S
C827 C828 1.399 1_554 S
C827 C832 1.490 . S
C828 H818 0.930 . S
C828 C827 1.399 1_556 S
C828 C831 1.387 . S
H829 C845 0.930 1_556 S
H830 C846 0.931 1_556 S
C831 H819 0.943 . S
C831 C825 1.374 1_556 S
C831 C828 1.387 . S
C832 C827 1.490 . S
C832 C834 1.395 1_655 S
C832 C835 1.403 1_655 S
H833 C839 0.930 1_556 S
C834 H820 0.930 . S
C834 C832 1.395 1_455 S
C834 C837 1.403 . S
C835 C832 1.403 1_455 S
C835 C836 1.524 1_454 S
C835 C839 1.400 . S
C836 H821 0.960 1_655 S
C836 H822 0.960 . S
C836 H823 0.960 . S
C836 C835 1.524 1_656 S
C837 C834 1.403 . S
C837 C838 1.392 . S
C837 C841 1.495 . S
C838 C837 1.392 . S
C838 C839 1.385 . S
C838 C840 1.478 . S
C839 H833 0.930 1_554 S
C839 C835 1.400 . S
C839 C838 1.385 . S
C840 C838 1.478 . S
C840 C842 1.381 . S
C840 C846 1.383 . S
C841 C837 1.495 . S
C841 H847 0.959 . S
C841 H848 0.961 . S
C841 H849 0.960 . S
C842 C840 1.381 . S
C842 C843 1.394 . S
C842 H850 0.930 . S
C843 C842 1.394 . S
C843 C844 1.383 . S
C843 H851 0.929 . S
C844 C843 1.383 . S
C844 C845 1.377 . S
C845 H829 0.930 1_554 S
C845 C844 1.377 . S
C845 C846 1.379 . S
C846 H830 0.931 1_554 S
C846 C840 1.383 . S
C846 C845 1.379 . S
H847 C841 0.959 . S
H848 C841 0.961 . S
H849 C841 0.960 . S
H850 C842 0.930 . S
H851 C843 0.929 . S
H852 C860 0.929 . S
H853 C862 0.930 . S
H854 C864 0.930 . S
H855 C867 0.929 . S
H856 C870 0.930 . S
H857 C872 0.960 1_655 S
H858 C872 0.960 . S
H859 C872 0.960 . S
C860 H852 0.929 . S
C860 C861 1.377 . S
C860 C862 1.384 . S
C861 C860 1.377 . S
C861 C867 1.390 . S
C862 H853 0.930 . S
C862 C860 1.384 . S
C862 C863 1.372 . S
C863 C862 1.372 . S
C863 C864 1.400 . S
C863 C868 1.490 . S
C864 H854 0.930 . S
C864 C863 1.400 . S
C864 C867 1.386 . S
H865 C881 0.930 . S
H866 C882 0.931 . S
C867 H855 0.929 . S
C867 C861 1.390 . S
C867 C864 1.386 . S
C868 C863 1.490 . S
C868 C870 1.395 1_454 S
C868 C871 1.403 1_455 S
H869 C875 0.930 . S
C870 H856 0.930 . S
C870 C868 1.395 1_656 S
C870 C873 1.403 . S
C871 C868 1.403 1_655 S
C871 C872 1.524 1_655 S
C871 C875 1.400 . S
C872 H857 0.960 1_455 S
C872 H858 0.960 . S
C872 H859 0.960 . S
C872 C871 1.524 1_455 S
C873 C870 1.403 . S
C873 C874 1.392 1_556 S
C873 C877 1.495 . S
C874 C873 1.392 1_554 S
C874 C875 1.385 . S
C874 C876 1.478 . S
C875 H869 0.930 . S
C875 C871 1.400 . S
C875 C874 1.385 . S
C876 C874 1.478 . S
C876 C878 1.381 . S
C876 C882 1.383 . S
C877 C873 1.495 . S
C877 H883 0.959 . S
C877 H884 0.961 . S
C877 H885 0.960 . S
C878 C876 1.381 . S
C878 C879 1.394 . S
C878 H886 0.930 . S
C879 C878 1.394 . S
C879 C880 1.383 . S
C879 H887 0.929 . S
C880 C879 1.383 . S
C880 C881 1.377 . S
C881 H865 0.930 . S
C881 C880 1.377 . S
C881 C882 1.379 . S
C882 H866 0.931 . S
C882 C876 1.383 . S
C882 C881 1.379 . S
H883 C877 0.959 . S
H884 C877 0.961 . S
H885 C877 0.960 . S
H886 C878 0.930 . S
H887 C879 0.929 . S
H888 C896 0.929 . S
H889 C898 0.930 . S
H890 C900 0.930 . S
H891 C903 0.929 . S
H892 C906 0.930 . S
H893 C908 0.960 . S
H894 C908 0.960 . S
H895 C908 0.960 . S
C896 H888 0.929 . S
C896 C897 1.377 . S
C896 C898 1.384 . S
C897 C896 1.377 . S
C897 C903 1.390 . S
C898 H889 0.930 . S
C898 C896 1.384 . S
C898 C899 1.372 . S
C899 C898 1.372 . S
C899 C900 1.400 . S
C899 C904 1.490 . S
C900 H890 0.930 . S
C900 C899 1.400 . S
C900 C903 1.386 . S
H901 C917 0.930 . S
H902 C918 0.931 . S
C903 H891 0.929 . S
C903 C897 1.390 . S
C903 C900 1.386 . S
C904 C899 1.490 . S
C904 C906 1.395 . S
C904 C907 1.403 . S
H905 C911 0.930 . S
C906 H892 0.930 . S
C906 C904 1.395 . S
C906 C909 1.403 . S
C907 C904 1.403 . S
C907 C908 1.524 . S
C907 C911 1.400 . S
C908 H893 0.960 . S
C908 H894 0.960 . S
C908 H895 0.960 . S
C908 C907 1.524 . S
C909 C906 1.403 . S
C909 C910 1.392 1_455 S
C909 C913 1.495 1_455 S
C910 C909 1.392 1_655 S
C910 C911 1.385 1_655 S
C910 C912 1.478 . S
C911 H905 0.930 . S
C911 C907 1.400 . S
C911 C910 1.385 1_455 S
C912 C910 1.478 . S
C912 C914 1.381 . S
C912 C918 1.383 . S
C913 C909 1.495 1_655 S
C913 H919 0.959 1_655 S
C913 H920 0.961 . S
C913 H921 0.960 . S
C914 C912 1.381 . S
C914 C915 1.394 . S
C914 H922 0.930 . S
C915 C914 1.394 . S
C915 C916 1.383 . S
C915 H923 0.929 . S
C916 C915 1.383 . S
C916 C917 1.377 . S
C917 H901 0.930 . S
C917 C916 1.377 . S
C917 C918 1.379 . S
C918 H902 0.931 . S
C918 C912 1.383 . S
C918 C917 1.379 . S
H919 C913 0.959 1_455 S
H920 C913 0.961 . S
H921 C913 0.960 . S
H922 C914 0.930 . S
H923 C915 0.929 . S
H924 C932 0.929 . S
H925 C934 0.930 . S
H926 C936 0.930 . S
H927 C939 0.929 . S
H928 C942 0.930 . S
H929 C944 0.960 . S
H930 C944 0.960 . S
H931 C944 0.960 . S
C932 H924 0.929 . S
C932 C933 1.377 . S
C932 C934 1.384 . S
C933 C932 1.377 . S
C933 C939 1.390 . S
C934 H925 0.930 . S
C934 C932 1.384 . S
C934 C935 1.372 . S
C935 C934 1.372 . S
C935 C936 1.400 . S
C935 C940 1.490 . S
C936 H926 0.930 . S
C936 C935 1.400 . S
C936 C939 1.386 . S
H937 C953 0.930 . S
H938 C954 0.931 . S
C939 H927 0.929 . S
C939 C933 1.390 . S
C939 C936 1.386 . S
C940 C935 1.490 . S
C940 C942 1.395 . S
C940 C943 1.403 . S
H941 C947 0.930 1_455 S
C942 H928 0.930 . S
C942 C940 1.395 . S
C942 C945 1.403 . S
C943 C940 1.403 . S
C943 C944 1.524 . S
C943 C947 1.400 . S
C944 H929 0.960 . S
C944 H930 0.960 . S
C944 H931 0.960 . S
C944 C943 1.524 . S
C945 C942 1.403 . S
C945 C946 1.392 1_655 S
C945 C949 1.495 . S
C946 C945 1.392 1_455 S
C946 C947 1.385 1_455 S
C946 C948 1.478 . S
C947 H941 0.930 1_655 S
C947 C943 1.400 . S
C947 C946 1.385 1_655 S
C948 C946 1.478 . S
C948 C950 1.381 . S
C948 C954 1.383 . S
C949 C945 1.495 . S
C949 H955 0.959 . S
C949 H956 0.961 1_655 S
C949 H957 0.960 1_655 S
C950 C948 1.381 . S
C950 C951 1.394 . S
C950 H958 0.930 . S
C951 C950 1.394 . S
C951 C952 1.383 . S
C951 H959 0.929 . S
C952 C951 1.383 . S
C952 C953 1.377 . S
C953 H937 0.930 . S
C953 C952 1.377 . S
C953 C954 1.379 . S
C954 H938 0.931 . S
C954 C948 1.383 . S
C954 C953 1.379 . S
H955 C949 0.959 . S
H956 C949 0.961 1_455 S
H957 C949 0.960 1_455 S
H958 C950 0.930 . S
H959 C951 0.929 . S
H960 C968 0.929 . S
H961 C970 0.930 . S
H962 C972 0.930 1_554 S
H963 C975 0.934 1_655 S
H964 C978 0.930 . S
H965 C980 0.960 . S
H966 C980 0.960 . S
H967 C980 0.960 . S
C968 H960 0.929 . S
C968 C969 1.377 . S
C968 C970 1.384 . S
C969 C968 1.377 . S
C969 C975 1.390 . S
C970 H961 0.930 . S
C970 C968 1.384 . S
C970 C971 1.372 . S
C971 C970 1.372 . S
C971 C972 1.400 1_455 S
C971 C976 1.490 . S
C972 H962 0.930 1_556 S
C972 C971 1.400 1_655 S
C972 C975 1.386 1_655 S
H973 C989 0.930 . S
H974 C990 0.931 . S
C975 H963 0.934 1_455 S
C975 C969 1.390 . S
C975 C972 1.386 1_455 S
C976 C971 1.490 . S
C976 C978 1.395 . S
C976 C979 1.403 1_455 S
H977 C983 0.930 . S
C978 H964 0.930 . S
C978 C976 1.395 . S
C978 C981 1.403 . S
C979 C976 1.403 1_655 S
C979 C980 1.524 . S
C979 C983 1.400 . S
C980 H965 0.960 . S
C980 H966 0.960 . S
C980 H967 0.960 . S
C980 C979 1.524 . S
C981 C978 1.403 . S
C981 C982 1.392 1_455 S
C981 C985 1.484 1_556 S
C982 C981 1.392 1_655 S
C982 C983 1.385 . S
C982 C984 1.478 . S
C983 H977 0.930 . S
C983 C979 1.400 . S
C983 C982 1.385 . S
C984 C982 1.478 . S
C984 C986 1.381 1_655 S
C984 C990 1.383 1_556 S
C985 C981 1.484 1_554 S
C985 H991 0.956 . S
C985 H992 0.994 . S
C985 H993 0.943 1_554 S
C986 C984 1.381 1_455 S
C986 C987 1.394 1_455 S
C986 H994 0.930 . S
C987 C986 1.394 1_655 S
C987 C988 1.383 . S
C987 H995 0.929 1_655 S
C988 C987 1.383 . S
C988 C989 1.377 1_556 S
C989 H973 0.930 . S
C989 C988 1.377 1_554 S
C989 C990 1.379 . S
C990 H974 0.931 . S
C990 C984 1.383 1_554 S
C990 C989 1.379 . S
H991 C985 0.956 . S
H992 C985 0.994 . S
H993 C985 0.943 1_556 S
H994 C986 0.930 . S
H995 C987 0.929 1_455 S
H996 C1004 0.929 . S
H997 C1006 0.930 . S
H998 C1008 0.930 1_655 S
H999 C1011 0.929 . S
H1000 C1014 0.930 . S
H1001 C1016 0.960 . S
H1002 C1016 0.960 . S
H1003 C1016 0.960 . S
C1004 H996 0.929 . S
C1004 C1005 1.377 . S
C1004 C1006 1.384 . S
C1005 C1004 1.377 . S
C1005 C1011 1.390 . S
C1006 H997 0.930 . S
C1006 C1004 1.384 . S
C1006 C1007 1.372 . S
C1007 C1006 1.372 . S
C1007 C1008 1.400 . S
C1007 C1012 1.490 . S
C1008 H998 0.930 1_455 S
C1008 C1007 1.400 . S
C1008 C1011 1.386 . S
H1009 C1025 0.930 . S
H1010 C1026 0.931 . S
C1011 H999 0.929 . S
C1011 C1005 1.390 . S
C1011 C1008 1.386 . S
C1012 C1007 1.490 . S
C1012 C1014 1.395 . S
C1012 C1015 1.403 1_455 S
H1013 C1019 0.930 . S
C1014 H1000 0.930 . S
C1014 C1012 1.395 . S
C1014 C1017 1.403 . S
C1015 C1012 1.403 1_655 S
C1015 C1016 1.524 . S
C1015 C1019 1.400 . S
C1016 H1001 0.960 . S
C1016 H1002 0.960 . S
C1016 H1003 0.960 . S
C1016 C1015 1.524 . S
C1017 C1014 1.403 . S
C1017 C1018 1.392 1_455 S
C1017 C1021 1.495 . S
C1018 C1017 1.392 1_655 S
C1018 C1019 1.385 . S
C1018 C1020 1.478 . S
C1019 H1013 0.930 . S
C1019 C1015 1.400 . S
C1019 C1018 1.385 . S
C1020 C1018 1.478 . S
C1020 C1022 1.381 . S
C1020 C1026 1.383 . S
C1021 C1017 1.495 . S
C1021 H1027 0.959 . S
C1021 H1028 0.961 . S
C1021 H1029 0.960 . S
C1022 C1020 1.381 . S
C1022 C1023 1.394 . S
C1022 H1030 0.930 1_655 S
C1023 C1022 1.394 . S
C1023 C1024 1.383 . S
C1023 H1031 0.929 . S
C1024 C1023 1.383 . S
C1024 C1025 1.377 . S
C1025 H1009 0.930 . S
C1025 C1024 1.377 . S
C1025 C1026 1.379 . S
C1026 H1010 0.931 . S
C1026 C1020 1.383 . S
C1026 C1025 1.379 . S
H1027 C1021 0.959 . S
H1028 C1021 0.961 . S
H1029 C1021 0.960 . S
H1030 C1022 0.930 1_455 S
H1031 C1023 0.929 . S
H1032 C1040 0.929 . S
H1033 C1042 0.930 . S
H1034 C1044 0.930 . S
H1035 C1047 0.929 . S
H1036 C1050 0.930 . S
H1037 C1052 0.960 . S
H1038 C1052 0.960 . S
H1039 C1052 0.960 . S
C1040 H1032 0.929 . S
C1040 C1041 1.377 1_554 S
C1040 C1042 1.384 . S
C1041 C1040 1.377 1_556 S
C1041 C1047 1.390 . S
C1042 H1033 0.930 . S
C1042 C1040 1.384 . S
C1042 C1043 1.372 1_554 S
C1043 C1042 1.372 1_556 S
C1043 C1044 1.400 . S
C1043 C1048 1.490 . S
C1044 H1034 0.930 . S
C1044 C1043 1.400 . S
C1044 C1047 1.386 . S
H1045 C1061 0.930 . S
H1046 C1062 0.931 . S
C1047 H1035 0.929 . S
C1047 C1041 1.390 . S
C1047 C1044 1.386 . S
C1048 C1043 1.490 . S
C1048 C1050 1.395 1_556 S
C1048 C1051 1.403 . S
H1049 C1055 0.930 . S
C1050 H1036 0.930 . S
C1050 C1048 1.395 1_554 S
C1050 C1053 1.403 1_564 S
C1051 C1048 1.403 . S
C1051 C1052 1.524 . S
C1051 C1055 1.400 1_565 S
C1052 H1037 0.960 . S
C1052 H1038 0.960 . S
C1052 H1039 0.960 . S
C1052 C1051 1.524 . S
C1053 C1050 1.403 1_546 S
C1053 C1054 1.392 . S
C1053 C1057 1.495 1_556 S
C1054 C1053 1.392 . S
C1054 C1055 1.385 . S
C1054 C1056 1.478 . S
C1055 H1049 0.930 . S
C1055 C1051 1.400 1_545 S
C1055 C1054 1.385 . S
C1056 C1054 1.478 . S
C1056 C1058 1.381 1_556 S
C1056 C1062 1.383 . S
C1057 C1053 1.495 1_554 S
C1057 H1063 0.959 . S
C1057 H1064 0.942 1_554 S
C1057 H1065 0.960 . S
C1058 C1056 1.381 1_554 S
C1058 C1059 1.394 1_554 S
C1058 H1066 0.930 . S
C1059 C1058 1.394 1_556 S
C1059 C1060 1.383 . S
C1059 H1067 0.929 1_556 S
C1060 C1059 1.383 . S
C1060 C1061 1.377 . S
C1061 H1045 0.930 . S
C1061 C1060 1.377 . S
C1061 C1062 1.379 . S
C1062 H1046 0.931 . S
C1062 C1056 1.383 . S
C1062 C1061 1.379 . S
H1063 C1057 0.959 . S
H1064 C1057 0.942 1_556 S
H1065 C1057 0.960 . S
H1066 C1058 0.930 . S
H1067 C1059 0.929 1_554 S
H1068 C1076 0.929 . S
H1069 C1078 0.930 . S
H1070 C1080 0.930 . S
H1071 C1083 0.929 . S
H1072 C1086 0.930 . S
H1073 C1088 0.960 1_565 S
H1074 C1088 0.960 . S
H1075 C1088 0.960 . S
C1076 H1068 0.929 . S
C1076 C1077 1.377 . S
C1076 C1078 1.384 . S
C1077 C1076 1.377 . S
C1077 C1083 1.390 . S
C1078 H1069 0.930 . S
C1078 C1076 1.384 . S
C1078 C1079 1.372 . S
C1079 C1078 1.372 . S
C1079 C1080 1.400 . S
C1079 C1084 1.490 . S
C1080 H1070 0.930 . S
C1080 C1079 1.400 . S
C1080 C1083 1.386 . S
H1081 C1097 0.930 . S
H1082 C1098 0.931 . S
C1083 H1071 0.929 . S
C1083 C1077 1.390 . S
C1083 C1080 1.386 . S
C1084 C1079 1.490 . S
C1084 C1086 1.395 . S
C1084 C1087 1.403 . S
H1085 C1091 0.930 . S
C1086 H1072 0.930 . S
C1086 C1084 1.395 . S
C1086 C1089 1.403 1_545 S
C1087 C1084 1.403 . S
C1087 C1088 1.524 . S
C1087 C1091 1.400 1_545 S
C1088 H1073 0.960 1_545 S
C1088 H1074 0.960 . S
C1088 H1075 0.960 . S
C1088 C1087 1.524 . S
C1089 C1086 1.403 1_565 S
C1089 C1090 1.392 . S
C1089 C1093 1.495 . S
C1090 C1089 1.392 . S
C1090 C1091 1.385 . S
C1090 C1092 1.478 . S
C1091 H1085 0.930 . S
C1091 C1087 1.400 1_565 S
C1091 C1090 1.385 . S
C1092 C1090 1.478 . S
C1092 C1094 1.381 . S
C1092 C1098 1.383 . S
C1093 C1089 1.495 . S
C1093 H1099 0.959 1_565 S
C1093 H1100 0.961 . S
C1093 H1101 0.960 . S
C1094 C1092 1.381 . S
C1094 C1095 1.394 . S
C1094 H1102 0.930 . S
C1095 C1094 1.394 . S
C1095 C1096 1.383 . S
C1095 H1103 0.929 . S
C1096 C1095 1.383 . S
C1096 C1097 1.377 . S
C1097 H1081 0.930 . S
C1097 C1096 1.377 . S
C1097 C1098 1.379 . S
C1098 H1082 0.931 . S
C1098 C1092 1.383 . S
C1098 C1097 1.379 . S
H1099 C1093 0.959 1_545 S
H1100 C1093 0.961 . S
H1101 C1093 0.960 . S
H1102 C1094 0.930 . S
H1103 C1095 0.929 . S
H1104 C1112 0.929 . S
H1105 C1114 0.930 . S
H1106 C1116 0.930 . S
H1107 C1119 0.929 . S
H1108 C1122 0.930 . S
H1109 C1124 0.960 . S
H1110 C1124 0.960 . S
H1111 C1124 0.960 . S
C1112 H1104 0.929 . S
C1112 C1113 1.377 . S
C1112 C1114 1.384 . S
C1113 C1112 1.377 . S
C1113 C1119 1.390 . S
C1114 H1105 0.930 . S
C1114 C1112 1.384 . S
C1114 C1115 1.372 . S
C1115 C1114 1.372 . S
C1115 C1116 1.400 . S
C1115 C1120 1.490 . S
C1116 H1106 0.930 . S
C1116 C1115 1.400 . S
C1116 C1119 1.386 . S
H1117 C1133 0.930 . S
H1118 C1134 0.931 . S
C1119 H1107 0.929 . S
C1119 C1113 1.390 . S
C1119 C1116 1.386 . S
C1120 C1115 1.490 . S
C1120 C1122 1.395 . S
C1120 C1123 1.403 . S
H1121 C1127 0.930 . S
C1122 H1108 0.930 . S
C1122 C1120 1.395 . S
C1122 C1125 1.403 . S
C1123 C1120 1.403 . S
C1123 C1124 1.524 . S
C1123 C1127 1.400 . S
C1124 H1109 0.960 . S
C1124 H1110 0.960 . S
C1124 H1111 0.960 . S
C1124 C1123 1.524 . S
C1125 C1122 1.403 . S
C1125 C1126 1.392 . S
C1125 C1129 1.495 . S
C1126 C1125 1.392 . S
C1126 C1127 1.385 . S
C1126 C1128 1.478 . S
C1127 H1121 0.930 . S
C1127 C1123 1.400 . S
C1127 C1126 1.385 . S
C1128 C1126 1.478 . S
C1128 C1130 1.381 . S
C1128 C1134 1.383 . S
C1129 C1125 1.495 . S
C1129 H1135 0.959 1_554 S
C1129 H1136 0.961 . S
C1129 H1137 0.960 . S
C1130 C1128 1.381 . S
C1130 C1131 1.394 . S
C1130 H1138 0.930 . S
C1131 C1130 1.394 . S
C1131 C1132 1.383 . S
C1131 H1139 0.929 . S
C1132 C1131 1.383 . S
C1132 C1133 1.377 . S
C1133 H1117 0.930 . S
C1133 C1132 1.377 . S
C1133 C1134 1.379 . S
C1134 H1118 0.931 . S
C1134 C1128 1.383 . S
C1134 C1133 1.379 . S
H1135 C1129 0.959 1_556 S
H1136 C1129 0.961 . S
H1137 C1129 0.960 . S
H1138 C1130 0.930 . S
H1139 C1131 0.929 . S
H1140 C1148 0.929 . S
H1141 C1150 0.930 . S
H1142 C1152 0.930 . S
H1143 C1155 0.929 . S
H1144 C1158 0.930 . S
H1145 C1160 0.960 . S
H1146 C1160 0.960 . S
H1147 C1160 0.960 . S
C1148 H1140 0.929 . S
C1148 C1149 1.377 . S
C1148 C1150 1.384 . S
C1149 C1148 1.377 . S
C1149 C1155 1.390 . S
C1150 H1141 0.930 . S
C1150 C1148 1.384 . S
C1150 C1151 1.372 . S
C1151 C1150 1.372 . S
C1151 C1152 1.400 . S
C1151 C1156 1.490 . S
C1152 H1142 0.930 . S
C1152 C1151 1.400 . S
C1152 C1155 1.386 . S
H1153 C1169 0.930 . S
H1154 C1170 0.931 . S
C1155 H1143 0.929 . S
C1155 C1149 1.390 . S
C1155 C1152 1.386 . S
C1156 C1151 1.490 . S
C1156 C1158 1.395 . S
C1156 C1159 1.403 . S
H1157 C1163 0.930 . S
C1158 H1144 0.930 . S
C1158 C1156 1.395 . S
C1158 C1161 1.403 . S
C1159 C1156 1.403 . S
C1159 C1160 1.524 . S
C1159 C1163 1.400 . S
C1160 H1145 0.960 . S
C1160 H1146 0.960 . S
C1160 H1147 0.960 . S
C1160 C1159 1.524 . S
C1161 C1158 1.403 . S
C1161 C1162 1.392 . S
C1161 C1165 1.495 . S
C1162 C1161 1.392 . S
C1162 C1163 1.385 . S
C1162 C1164 1.478 . S
C1163 H1157 0.930 . S
C1163 C1159 1.400 . S
C1163 C1162 1.385 . S
C1164 C1162 1.478 . S
C1164 C1166 1.381 . S
C1164 C1170 1.383 . S
C1165 C1161 1.495 . S
C1165 H1171 0.959 . S
C1165 H1172 0.961 . S
C1165 H1173 0.960 . S
C1166 C1164 1.381 . S
C1166 C1167 1.394 . S
C1166 H1174 0.930 . S
C1167 C1166 1.394 . S
C1167 C1168 1.383 . S
C1167 H1175 0.929 . S
C1168 C1167 1.383 . S
C1168 C1169 1.377 . S
C1169 H1153 0.930 . S
C1169 C1168 1.377 . S
C1169 C1170 1.379 . S
C1170 H1154 0.931 . S
C1170 C1164 1.383 . S
C1170 C1169 1.379 . S
H1171 C1165 0.959 . S
H1172 C1165 0.961 . S
H1173 C1165 0.960 . S
H1174 C1166 0.930 . S
H1175 C1167 0.929 . S
H1176 C1184 0.929 . S
H1177 C1186 0.930 . S
H1178 C1188 0.930 . S
H1179 C1191 0.929 . S
H1180 C1194 0.930 . S
H1181 C1196 0.960 . S
H1182 C1196 0.960 . S
H1183 C1196 0.960 . S
C1184 H1176 0.929 . S
C1184 C1185 1.377 . S
C1184 C1186 1.384 . S
C1185 C1184 1.377 . S
C1185 C1191 1.390 . S
C1186 H1177 0.930 . S
C1186 C1184 1.384 . S
C1186 C1187 1.372 . S
C1187 C1186 1.372 . S
C1187 C1188 1.400 . S
C1187 C1192 1.490 . S
C1188 H1178 0.930 . S
C1188 C1187 1.400 . S
C1188 C1191 1.386 . S
H1189 C1205 0.930 . S
H1190 C1206 0.931 . S
C1191 H1179 0.929 . S
C1191 C1185 1.390 . S
C1191 C1188 1.386 . S
C1192 C1187 1.490 . S
C1192 C1194 1.395 . S
C1192 C1195 1.403 . S
H1193 C1199 0.930 . S
C1194 H1180 0.930 . S
C1194 C1192 1.395 . S
C1194 C1197 1.403 . S
C1195 C1192 1.403 . S
C1195 C1196 1.524 . S
C1195 C1199 1.400 . S
C1196 H1181 0.960 . S
C1196 H1182 0.960 . S
C1196 H1183 0.960 . S
C1196 C1195 1.524 . S
C1197 C1194 1.403 . S
C1197 C1198 1.392 . S
C1197 C1201 1.495 . S
C1198 C1197 1.392 . S
C1198 C1199 1.385 . S
C1198 C1200 1.478 . S
C1199 H1193 0.930 . S
C1199 C1195 1.400 . S
C1199 C1198 1.385 . S
C1200 C1198 1.478 . S
C1200 C1202 1.381 . S
C1200 C1206 1.383 . S
C1201 C1197 1.495 . S
C1201 H1207 0.959 . S
C1201 H1208 0.961 . S
C1201 H1209 0.960 . S
C1202 C1200 1.381 . S
C1202 C1203 1.394 . S
C1202 H1210 0.930 . S
C1203 C1202 1.394 . S
C1203 C1204 1.383 . S
C1203 H1211 0.929 . S
C1204 C1203 1.383 . S
C1204 C1205 1.377 . S
C1205 H1189 0.930 . S
C1205 C1204 1.377 . S
C1205 C1206 1.379 . S
C1206 H1190 0.931 . S
C1206 C1200 1.383 . S
C1206 C1205 1.379 . S
H1207 C1201 0.959 . S
H1208 C1201 0.961 . S
H1209 C1201 0.960 . S
H1210 C1202 0.930 . S
H1211 C1203 0.929 . S
H1212 C1220 0.929 . S
H1213 C1222 0.930 . S
H1214 C1224 0.930 . S
H1215 C1227 0.929 . S
H1216 C1230 0.930 . S
H1217 C1232 0.960 . S
H1218 C1232 0.960 . S
H1219 C1232 0.960 . S
C1220 H1212 0.929 . S
C1220 C1221 1.377 . S
C1220 C1222 1.384 . S
C1221 C1220 1.377 . S
C1221 C1227 1.390 . S
C1222 H1213 0.930 . S
C1222 C1220 1.384 . S
C1222 C1223 1.372 . S
C1223 C1222 1.372 . S
C1223 C1224 1.400 . S
C1223 C1228 1.490 . S
C1224 H1214 0.930 . S
C1224 C1223 1.400 . S
C1224 C1227 1.386 . S
H1225 C1241 0.930 . S
H1226 C1242 0.931 . S
C1227 H1215 0.929 . S
C1227 C1221 1.390 . S
C1227 C1224 1.386 . S
C1228 C1223 1.490 . S
C1228 C1230 1.395 . S
C1228 C1231 1.403 . S
H1229 C1235 0.930 . S
C1230 H1216 0.930 . S
C1230 C1228 1.395 . S
C1230 C1233 1.403 . S
C1231 C1228 1.403 . S
C1231 C1232 1.524 . S
C1231 C1235 1.400 . S
C1232 H1217 0.960 . S
C1232 H1218 0.960 . S
C1232 H1219 0.960 . S
C1232 C1231 1.524 . S
C1233 C1230 1.403 . S
C1233 C1234 1.392 . S
C1233 C1237 1.495 . S
C1234 C1233 1.392 . S
C1234 C1235 1.385 . S
C1234 C1236 1.478 . S
C1235 H1229 0.930 . S
C1235 C1231 1.400 . S
C1235 C1234 1.385 . S
C1236 C1234 1.478 . S
C1236 C1238 1.381 . S
C1236 C1242 1.383 . S
C1237 C1233 1.495 . S
C1237 H1243 0.959 . S
C1237 H1244 0.961 . S
C1237 H1245 0.960 . S
C1238 C1236 1.381 . S
C1238 C1239 1.394 . S
C1238 H1246 0.930 . S
C1239 C1238 1.394 . S
C1239 C1240 1.383 . S
C1239 H1247 0.929 . S
C1240 C1239 1.383 . S
C1240 C1241 1.377 . S
C1241 H1225 0.930 . S
C1241 C1240 1.377 . S
C1241 C1242 1.379 . S
C1242 H1226 0.931 . S
C1242 C1236 1.383 . S
C1242 C1241 1.379 . S
H1243 C1237 0.959 . S
H1244 C1237 0.961 . S
H1245 C1237 0.960 . S
H1246 C1238 0.930 . S
H1247 C1239 0.929 . S
H1248 C1256 0.929 . S
H1249 C1258 0.930 . S
H1250 C1260 0.930 . S
H1251 C1263 0.929 1_655 S
H1252 C1266 0.930 . S
H1253 C1268 0.960 . S
H1254 C1268 0.960 . S
H1255 C1268 0.960 . S
C1256 H1248 0.929 . S
C1256 C1257 1.377 . S
C1256 C1258 1.384 . S
C1257 C1256 1.377 . S
C1257 C1263 1.390 . S
C1258 H1249 0.930 . S
C1258 C1256 1.384 . S
C1258 C1259 1.372 . S
C1259 C1258 1.372 . S
C1259 C1260 1.400 1_455 S
C1259 C1264 1.490 . S
C1260 H1250 0.930 . S
C1260 C1259 1.400 1_655 S
C1260 C1263 1.386 1_655 S
H1261 C1277 0.930 . S
H1262 C1278 0.931 . S
C1263 H1251 0.929 1_455 S
C1263 C1257 1.390 . S
C1263 C1260 1.386 1_455 S
C1264 C1259 1.490 . S
C1264 C1266 1.395 . S
C1264 C1267 1.403 1_455 S
H1265 C1271 0.930 . S
C1266 H1252 0.930 . S
C1266 C1264 1.395 . S
C1266 C1269 1.403 . S
C1267 C1264 1.403 1_655 S
C1267 C1268 1.524 . S
C1267 C1271 1.400 . S
C1268 H1253 0.960 . S
C1268 H1254 0.960 . S
C1268 H1255 0.960 . S
C1268 C1267 1.524 . S
C1269 C1266 1.403 . S
C1269 C1270 1.392 1_455 S
C1269 C1273 1.495 . S
C1270 C1269 1.392 1_655 S
C1270 C1271 1.385 . S
C1270 C1272 1.478 . S
C1271 H1265 0.930 . S
C1271 C1267 1.400 . S
C1271 C1270 1.385 . S
C1272 C1270 1.478 . S
C1272 C1274 1.381 1_655 S
C1272 C1278 1.383 . S
C1273 C1269 1.495 . S
C1273 H1279 0.959 . S
C1273 H1280 0.961 . S
C1273 H1281 0.960 . S
C1274 C1272 1.381 1_455 S
C1274 C1275 1.394 1_455 S
C1274 H1282 0.930 . S
C1275 C1274 1.394 1_655 S
C1275 C1276 1.383 . S
C1275 H1283 0.929 1_655 S
C1276 C1275 1.383 . S
C1276 C1277 1.377 . S
C1277 H1261 0.930 . S
C1277 C1276 1.377 . S
C1277 C1278 1.379 . S
C1278 H1262 0.931 . S
C1278 C1272 1.383 . S
C1278 C1277 1.379 . S
H1279 C1273 0.959 . S
H1280 C1273 0.961 . S
H1281 C1273 0.960 . S
H1282 C1274 0.930 . S
H1283 C1275 0.929 1_455 S
H1284 C1292 0.929 . S
H1285 C1294 0.930 . S
H1286 C1296 0.930 . S
H1287 C1299 0.929 . S
H1288 C1302 0.930 . S
H1289 C1304 0.960 . S
H1290 C1304 0.960 . S
H1291 C1304 0.960 . S
C1292 H1284 0.929 . S
C1292 C1293 1.377 . S
C1292 C1294 1.384 . S
C1293 C1292 1.377 . S
C1293 C1299 1.390 . S
C1294 H1285 0.930 . S
C1294 C1292 1.384 . S
C1294 C1295 1.372 . S
C1295 C1294 1.372 . S
C1295 C1296 1.400 . S
C1295 C1300 1.490 . S
C1296 H1286 0.930 . S
C1296 C1295 1.400 . S
C1296 C1299 1.386 . S
H1297 C1313 0.930 . S
H1298 C1314 0.931 1_655 S
C1299 H1287 0.929 . S
C1299 C1293 1.390 . S
C1299 C1296 1.386 . S
C1300 C1295 1.490 . S
C1300 C1302 1.395 . S
C1300 C1303 1.403 1_655 S
H1301 C1307 0.930 . S
C1302 H1288 0.930 . S
C1302 C1300 1.395 . S
C1302 C1305 1.403 . S
C1303 C1300 1.403 1_455 S
C1303 C1304 1.524 . S
C1303 C1307 1.400 . S
C1304 H1289 0.960 . S
C1304 H1290 0.960 . S
C1304 H1291 0.960 . S
C1304 C1303 1.524 . S
C1305 C1302 1.403 . S
C1305 C1306 1.391 . S
C1305 C1309 1.495 . S
C1306 C1305 1.391 . S
C1306 C1307 1.386 1_655 S
C1306 C1308 1.478 1_655 S
C1307 H1301 0.930 . S
C1307 C1303 1.400 . S
C1307 C1306 1.386 1_455 S
C1308 C1306 1.478 1_455 S
C1308 C1310 1.381 . S
C1308 C1314 1.383 . S
C1309 C1305 1.495 . S
C1309 H1315 0.959 . S
C1309 H1316 0.961 . S
C1309 H1317 0.960 . S
C1310 C1308 1.381 . S
C1310 C1311 1.394 . S
C1310 H1318 0.930 . S
C1311 C1310 1.394 . S
C1311 C1312 1.383 . S
C1311 H1319 0.929 . S
C1312 C1311 1.383 . S
C1312 C1313 1.377 . S
C1313 H1297 0.930 . S
C1313 C1312 1.377 . S
C1313 C1314 1.379 . S
C1314 H1298 0.931 1_455 S
C1314 C1308 1.383 . S
C1314 C1313 1.379 . S
H1315 C1309 0.959 . S
H1316 C1309 0.961 . S
H1317 C1309 0.960 . S
H1318 C1310 0.930 . S
H1319 C1311 0.929 . S
H1320 C1328 0.929 . S
H1321 C1330 0.930 . S
H1322 C1332 0.930 . S
H1323 C1335 0.929 . S
H1324 C1338 0.930 . S
H1325 C1340 0.960 . S
H1326 C1340 0.960 . S
H1327 C1340 0.960 . S
C1328 H1320 0.929 . S
C1328 C1329 1.377 1_455 S
C1328 C1330 1.384 . S
C1329 C1328 1.377 1_655 S
C1329 C1335 1.390 . S
C1330 H1321 0.930 . S
C1330 C1328 1.384 . S
C1330 C1331 1.372 1_455 S
C1331 C1330 1.372 1_655 S
C1331 C1332 1.400 . S
C1331 C1336 1.490 . S
C1332 H1322 0.930 . S
C1332 C1331 1.400 . S
C1332 C1335 1.386 . S
H1333 C1349 0.930 . S
H1334 C1350 0.931 . S
C1335 H1323 0.929 . S
C1335 C1329 1.390 . S
C1335 C1332 1.386 . S
C1336 C1331 1.490 . S
C1336 C1338 1.395 1_655 S
C1336 C1339 1.403 . S
H1337 C1343 0.930 . S
C1338 H1324 0.930 . S
C1338 C1336 1.395 1_455 S
C1338 C1341 1.403 . S
C1339 C1336 1.403 . S
C1339 C1340 1.524 . S
C1339 C1343 1.400 . S
C1340 H1325 0.960 . S
C1340 H1326 0.960 . S
C1340 H1327 0.960 . S
C1340 C1339 1.524 . S
C1341 C1338 1.403 . S
C1341 C1342 1.392 . S
C1341 C1345 1.495 . S
C1342 C1341 1.392 . S
C1342 C1343 1.385 1_455 S
C1342 C1344 1.478 . S
C1343 H1337 0.930 . S
C1343 C1339 1.400 . S
C1343 C1342 1.385 1_655 S
C1344 C1342 1.478 . S
C1344 C1346 1.381 . S
C1344 C1350 1.383 1_455 S
C1345 C1341 1.495 . S
C1345 H1351 0.959 . S
C1345 H1352 0.961 . S
C1345 H1353 0.960 . S
C1346 C1344 1.381 . S
C1346 C1347 1.394 . S
C1346 H1354 0.930 . S
C1347 C1346 1.394 . S
C1347 C1348 1.383 . S
C1347 H1355 0.929 . S
C1348 C1347 1.383 . S
C1348 C1349 1.377 1_455 S
C1349 H1333 0.930 . S
C1349 C1348 1.377 1_655 S
C1349 C1350 1.379 . S
C1350 H1334 0.931 . S
C1350 C1344 1.383 1_655 S
C1350 C1349 1.379 . S
H1351 C1345 0.959 . S
H1352 C1345 0.961 . S
H1353 C1345 0.960 . S
H1354 C1346 0.930 . S
H1355 C1347 0.929 . S
H1356 C1364 0.929 . S
H1357 C1366 0.930 . S
H1358 C1368 0.930 . S
H1359 C1371 0.929 . S
H1360 C1374 0.930 . S
H1361 C1376 0.960 . S
H1362 C1376 0.960 . S
H1363 C1376 0.960 . S
C1364 H1356 0.929 . S
C1364 C1365 1.377 . S
C1364 C1366 1.384 . S
C1365 C1364 1.377 . S
C1365 C1371 1.390 . S
C1366 H1357 0.930 . S
C1366 C1364 1.384 . S
C1366 C1367 1.372 . S
C1367 C1366 1.372 . S
C1367 C1368 1.400 . S
C1367 C1372 1.490 . S
C1368 H1358 0.930 . S
C1368 C1367 1.400 . S
C1368 C1371 1.386 . S
H1369 C1385 0.930 . S
H1370 C1386 0.931 . S
C1371 H1359 0.929 . S
C1371 C1365 1.390 . S
C1371 C1368 1.386 . S
C1372 C1367 1.490 . S
C1372 C1374 1.395 1_655 S
C1372 C1375 1.403 . S
H1373 C1379 0.930 . S
C1374 H1360 0.930 . S
C1374 C1372 1.395 1_455 S
C1374 C1377 1.403 . S
C1375 C1372 1.403 . S
C1375 C1376 1.524 . S
C1375 C1379 1.400 . S
C1376 H1361 0.960 . S
C1376 H1362 0.960 . S
C1376 H1363 0.960 . S
C1376 C1375 1.524 . S
C1377 C1374 1.403 . S
C1377 C1378 1.392 . S
C1377 C1381 1.495 . S
C1378 C1377 1.392 . S
C1378 C1379 1.385 1_455 S
C1378 C1380 1.478 . S
C1379 H1373 0.930 . S
C1379 C1375 1.400 . S
C1379 C1378 1.385 1_655 S
C1380 C1378 1.478 . S
C1380 C1382 1.381 . S
C1380 C1386 1.383 . S
C1381 C1377 1.495 . S
C1381 H1387 0.959 . S
C1381 H1388 0.961 . S
C1381 H1389 0.960 . S
C1382 C1380 1.381 . S
C1382 C1383 1.394 . S
C1382 H1390 0.930 . S
C1383 C1382 1.394 . S
C1383 C1384 1.383 . S
C1383 H1391 0.929 . S
C1384 C1383 1.383 . S
C1384 C1385 1.377 . S
C1385 H1369 0.930 . S
C1385 C1384 1.377 . S
C1385 C1386 1.379 . S
C1386 H1370 0.931 . S
C1386 C1380 1.383 . S
C1386 C1385 1.379 . S
H1387 C1381 0.959 . S
H1388 C1381 0.961 . S
H1389 C1381 0.960 . S
H1390 C1382 0.930 . S
H1391 C1383 0.929 . S
H1392 C1400 0.929 . S
H1393 C1402 0.930 . S
H1394 C1404 0.930 . S
H1395 C1407 0.929 . S
H1396 C1410 0.930 . S
H1397 C1412 0.960 . S
H1398 C1412 0.960 . S
H1399 C1412 0.960 . S
C1400 H1392 0.929 . S
C1400 C1401 1.377 . S
C1400 C1402 1.384 . S
C1401 C1400 1.377 . S
C1401 C1407 1.390 . S
C1402 H1393 0.930 . S
C1402 C1400 1.384 . S
C1402 C1403 1.372 . S
C1403 C1402 1.372 . S
C1403 C1404 1.400 . S
C1403 C1408 1.490 . S
C1404 H1394 0.930 . S
C1404 C1403 1.400 . S
C1404 C1407 1.386 . S
H1405 C1421 0.930 . S
H1406 C1422 0.931 . S
C1407 H1395 0.929 . S
C1407 C1401 1.390 . S
C1407 C1404 1.386 . S
C1408 C1403 1.490 . S
C1408 C1410 1.395 . S
C1408 C1411 1.403 . S
H1409 C1415 0.930 . S
C1410 H1396 0.930 . S
C1410 C1408 1.395 . S
C1410 C1413 1.403 . S
C1411 C1408 1.403 . S
C1411 C1412 1.524 . S
C1411 C1415 1.400 . S
C1412 H1397 0.960 . S
C1412 H1398 0.960 . S
C1412 H1399 0.960 . S
C1412 C1411 1.524 . S
C1413 C1410 1.403 . S
C1413 C1414 1.392 . S
C1413 C1417 1.495 . S
C1414 C1413 1.392 . S
C1414 C1415 1.385 . S
C1414 C1416 1.478 . S
C1415 H1409 0.930 . S
C1415 C1411 1.400 . S
C1415 C1414 1.385 . S
C1416 C1414 1.478 . S
C1416 C1418 1.381 . S
C1416 C1422 1.383 . S
C1417 C1413 1.495 . S
C1417 H1423 0.959 . S
C1417 H1424 0.961 . S
C1417 H1425 0.960 . S
C1418 C1416 1.381 . S
C1418 C1419 1.394 . S
C1418 H1426 0.930 . S
C1419 C1418 1.394 . S
C1419 C1420 1.383 . S
C1419 H1427 0.929 . S
C1420 C1419 1.383 . S
C1420 C1421 1.377 . S
C1421 H1405 0.930 . S
C1421 C1420 1.377 . S
C1421 C1422 1.379 . S
C1422 H1406 0.931 . S
C1422 C1416 1.383 . S
C1422 C1421 1.379 . S
H1423 C1417 0.959 . S
H1424 C1417 0.961 . S
H1425 C1417 0.960 . S
H1426 C1418 0.930 . S
H1427 C1419 0.929 . S
H1428 C1436 0.929 . S
H1429 C1438 0.930 . S
H1430 C1440 0.930 . S
H1431 C1443 0.929 . S
H1432 C1446 0.930 . S
H1433 C1448 0.960 . S
H1434 C1448 0.960 . S
H1435 C1448 0.960 . S
C1436 H1428 0.929 . S
C1436 C1437 1.377 . S
C1436 C1438 1.384 . S
C1437 C1436 1.377 . S
C1437 C1443 1.390 . S
C1438 H1429 0.930 . S
C1438 C1436 1.384 . S
C1438 C1439 1.372 . S
C1439 C1438 1.372 . S
C1439 C1440 1.400 . S
C1439 C1444 1.490 . S
C1440 H1430 0.930 . S
C1440 C1439 1.400 . S
C1440 C1443 1.386 . S
H1441 C1457 0.930 . S
H1442 C1458 0.931 . S
C1443 H1431 0.929 . S
C1443 C1437 1.390 . S
C1443 C1440 1.386 . S
C1444 C1439 1.490 . S
C1444 C1446 1.395 . S
C1444 C1447 1.403 . S
H1445 C1451 0.930 . S
C1446 H1432 0.930 . S
C1446 C1444 1.395 . S
C1446 C1449 1.403 . S
C1447 C1444 1.403 . S
C1447 C1448 1.524 . S
C1447 C1451 1.400 . S
C1448 H1433 0.960 . S
C1448 H1434 0.960 . S
C1448 H1435 0.960 . S
C1448 C1447 1.524 . S
C1449 C1446 1.403 . S
C1449 C1450 1.392 . S
C1449 C1453 1.495 . S
C1450 C1449 1.392 . S
C1450 C1451 1.385 . S
C1450 C1452 1.478 . S
C1451 H1445 0.930 . S
C1451 C1447 1.400 . S
C1451 C1450 1.385 . S
C1452 C1450 1.478 . S
C1452 C1454 1.381 . S
C1452 C1458 1.383 . S
C1453 C1449 1.495 . S
C1453 H1459 0.959 . S
C1453 H1460 0.961 . S
C1453 H1461 0.960 . S
C1454 C1452 1.381 . S
C1454 C1455 1.394 . S
C1454 H1462 0.930 . S
C1455 C1454 1.394 . S
C1455 C1456 1.383 . S
C1455 H1463 0.929 . S
C1456 C1455 1.383 . S
C1456 C1457 1.377 . S
C1457 H1441 0.930 . S
C1457 C1456 1.377 . S
C1457 C1458 1.379 . S
C1458 H1442 0.931 . S
C1458 C1452 1.383 . S
C1458 C1457 1.379 . S
H1459 C1453 0.959 . S
H1460 C1453 0.961 . S
H1461 C1453 0.960 . S
H1462 C1454 0.930 . S
H1463 C1455 0.929 . S
H1464 C1472 0.929 . S
H1465 C1474 0.930 . S
H1466 C1476 0.930 . S
H1467 C1479 0.929 . S
H1468 C1482 0.930 . S
H1469 C1484 0.960 . S
H1470 C1484 0.960 . S
H1471 C1484 0.960 . S
C1472 H1464 0.929 . S
C1472 C1473 1.377 . S
C1472 C1474 1.384 . S
C1473 C1472 1.377 . S
C1473 C1479 1.390 . S
C1474 H1465 0.930 . S
C1474 C1472 1.384 . S
C1474 C1475 1.372 . S
C1475 C1474 1.372 . S
C1475 C1476 1.400 . S
C1475 C1480 1.490 . S
C1476 H1466 0.930 . S
C1476 C1475 1.400 . S
C1476 C1479 1.386 . S
H1477 C1493 0.930 . S
H1478 C1494 0.931 . S
C1479 H1467 0.929 . S
C1479 C1473 1.390 . S
C1479 C1476 1.386 . S
C1480 C1475 1.490 . S
C1480 C1482 1.395 . S
C1480 C1483 1.403 . S
H1481 C1487 0.930 . S
C1482 H1468 0.930 . S
C1482 C1480 1.395 . S
C1482 C1485 1.403 . S
C1483 C1480 1.403 . S
C1483 C1484 1.524 . S
C1483 C1487 1.400 . S
C1484 H1469 0.960 . S
C1484 H1470 0.960 . S
C1484 H1471 0.960 . S
C1484 C1483 1.524 . S
C1485 C1482 1.403 . S
C1485 C1486 1.392 . S
C1485 C1489 1.495 . S
C1486 C1485 1.392 . S
C1486 C1487 1.385 . S
C1486 C1488 1.478 . S
C1487 H1481 0.930 . S
C1487 C1483 1.400 . S
C1487 C1486 1.385 . S
C1488 C1486 1.478 . S
C1488 C1490 1.381 . S
C1488 C1494 1.383 . S
C1489 C1485 1.495 . S
C1489 H1495 0.959 . S
C1489 H1496 0.961 . S
C1489 H1497 0.960 . S
C1490 C1488 1.381 . S
C1490 C1491 1.394 . S
C1490 H1498 0.930 . S
C1491 C1490 1.394 . S
C1491 C1492 1.383 . S
C1491 H1499 0.929 . S
C1492 C1491 1.383 . S
C1492 C1493 1.377 . S
C1493 H1477 0.930 . S
C1493 C1492 1.377 . S
C1493 C1494 1.379 . S
C1494 H1478 0.931 . S
C1494 C1488 1.383 . S
C1494 C1493 1.379 . S
H1495 C1489 0.959 . S
H1496 C1489 0.961 . S
H1497 C1489 0.960 . S
H1498 C1490 0.930 . S
H1499 C1491 0.929 . S
H1500 C1508 0.929 . S
H1501 C1510 0.930 . S
H1502 C1512 0.930 . S
H1503 C1515 0.929 . S
H1504 C1518 0.930 . S
H1505 C1520 0.960 . S
H1506 C1520 0.960 . S
H1507 C1520 0.960 . S
C1508 H1500 0.929 . S
C1508 C1509 1.377 . S
C1508 C1510 1.384 . S
C1509 C1508 1.377 . S
C1509 C1515 1.390 . S
C1510 H1501 0.930 . S
C1510 C1508 1.384 . S
C1510 C1511 1.372 . S
C1511 C1510 1.372 . S
C1511 C1512 1.400 . S
C1511 C1516 1.490 . S
C1512 H1502 0.930 . S
C1512 C1511 1.400 . S
C1512 C1515 1.386 . S
H1513 C1529 0.930 . S
H1514 C1530 0.931 . S
C1515 H1503 0.929 . S
C1515 C1509 1.390 . S
C1515 C1512 1.386 . S
C1516 C1511 1.490 . S
C1516 C1518 1.395 . S
C1516 C1519 1.403 . S
H1517 C1523 0.930 . S
C1518 H1504 0.930 . S
C1518 C1516 1.395 . S
C1518 C1521 1.403 . S
C1519 C1516 1.403 . S
C1519 C1520 1.524 . S
C1519 C1523 1.400 . S
C1520 H1505 0.960 . S
C1520 H1506 0.960 . S
C1520 H1507 0.960 . S
C1520 C1519 1.524 . S
C1521 C1518 1.403 . S
C1521 C1522 1.392 . S
C1521 C1525 1.495 . S
C1522 C1521 1.392 . S
C1522 C1523 1.385 . S
C1522 C1524 1.478 . S
C1523 H1517 0.930 . S
C1523 C1519 1.400 . S
C1523 C1522 1.385 . S
C1524 C1522 1.478 . S
C1524 C1526 1.381 . S
C1524 C1530 1.383 . S
C1525 C1521 1.495 . S
C1525 H1531 0.959 . S
C1525 H1532 0.961 . S
C1525 H1533 0.960 . S
C1526 C1524 1.381 . S
C1526 C1527 1.394 . S
C1526 H1534 0.930 . S
C1527 C1526 1.394 . S
C1527 C1528 1.383 . S
C1527 H1535 0.929 . S
C1528 C1527 1.383 . S
C1528 C1529 1.377 . S
C1529 H1513 0.930 . S
C1529 C1528 1.377 . S
C1529 C1530 1.379 . S
C1530 H1514 0.931 . S
C1530 C1524 1.383 . S
C1530 C1529 1.379 . S
H1531 C1525 0.959 . S
H1532 C1525 0.961 . S
H1533 C1525 0.960 . S
H1534 C1526 0.930 . S
H1535 C1527 0.929 . S
C681 C67 1.969 . S
C700 C56 1.961 . S
C717 C140 1.964 . S
C736 C151 1.949 . S
C753 C224 1.963 . S
C772 C235 1.951 . S
C789 C308 1.959 . S
C808 C319 1.949 . S
C825 C403 1.969 . S
C844 C392 1.966 . S
C861 C487 1.965 . S
C880 C476 1.950 . S
C897 C560 1.961 . S
C916 C571 1.947 . S
C933 C655 1.960 . S
C952 C644 1.963 . S
C969 C153 1.903 . S
C988 C69 2.129 1_556 S
C1005 C310 1.867 . S
C1024 C237 1.861 . S
C1041 C405 2.150 1_556 S
C1060 C489 1.885 . S
C1077 C573 1.867 . S
C1096 C646 1.854 . S
C1113 C58 1.720 . S
C1132 C478 1.450 . S
C1149 C394 1.725 . S
C1168 C142 1.499 . S
C1185 C226 1.447 . S
C1204 C657 1.426 . S
C1221 C321 1.440 . S
C1240 C562 1.396 . S
C1257 C63 1.646 . S
C1276 C315 1.691 . S
C1293 C147 1.510 . S
C1312 C231 1.559 . S
C1329 C158 1.695 . S
C1348 C242 1.765 . S
C1365 C326 1.490 . S
C1384 C74 1.488 . S
C1401 C399 1.642 . S
C1420 C651 1.689 . S
C1437 C483 1.512 . S
C1456 C567 1.565 . S
C1473 C494 1.700 . S
C1492 C578 1.740 . S
C1509 C662 1.481 . S
C1528 C410 1.518 . S
