# Generated by pormake.
# Topology wjl, (5)-cn, num edge types: 1
# Building blocks:
#     Node 0, Type 0, BuildingBlock: BEQFEK_clean_sbu_0, # of connection points: 5
#     Node 1, Type 0, BuildingBlock: BEQFEK_clean_sbu_0, # of connection points: 5
#     Node 2, Type 0, BuildingBlock: BEQFEK_clean_sbu_0, # of connection points: 5
#     Node 3, Type 0, BuildingBlock: BEQFEK_clean_sbu_0, # of connection points: 5
#     Node 4, Type 0, BuildingBlock: BEQFEK_clean_sbu_0, # of connection points: 5
#     Node 5, Type 0, BuildingBlock: BEQFEK_clean_sbu_0, # of connection points: 5
#     Node 6, Type 0, BuildingBlock: BEQFEK_clean_sbu_0, # of connection points: 5
#     Node 7, Type 0, BuildingBlock: BEQFEK_clean_sbu_0, # of connection points: 5
#     Node 8, Type 0, BuildingBlock: BEQFEK_clean_sbu_0, # of connection points: 5
#     Node 9, Type 0, BuildingBlock: BEQFEK_clean_sbu_0, # of connection points: 5
#     Node 10, Type 0, BuildingBlock: BEQFEK_clean_sbu_0, # of connection points: 5
#     Node 11, Type 0, BuildingBlock: BEQFEK_clean_sbu_0, # of connection points: 5
#     Edge 12, Type (0, 0), BuildingBlock: XIVTED_clean_linker_0, # of connection points: 2
#     Edge 13, Type (0, 0), BuildingBlock: XIVTED_clean_linker_0, # of connection points: 2
#     Edge 14, Type (0, 0), BuildingBlock: XIVTED_clean_linker_0, # of connection points: 2
#     Edge 15, Type (0, 0), BuildingBlock: XIVTED_clean_linker_0, # of connection points: 2
#     Edge 16, Type (0, 0), BuildingBlock: XIVTED_clean_linker_0, # of connection points: 2
#     Edge 17, Type (0, 0), BuildingBlock: XIVTED_clean_linker_0, # of connection points: 2
#     Edge 18, Type (0, 0), BuildingBlock: XIVTED_clean_linker_0, # of connection points: 2
#     Edge 19, Type (0, 0), BuildingBlock: XIVTED_clean_linker_0, # of connection points: 2
#     Edge 20, Type (0, 0), BuildingBlock: XIVTED_clean_linker_0, # of connection points: 2
#     Edge 21, Type (0, 0), BuildingBlock: XIVTED_clean_linker_0, # of connection points: 2
#     Edge 22, Type (0, 0), BuildingBlock: XIVTED_clean_linker_0, # of connection points: 2
#     Edge 23, Type (0, 0), BuildingBlock: XIVTED_clean_linker_0, # of connection points: 2
#     Edge 24, Type (0, 0), BuildingBlock: XIVTED_clean_linker_0, # of connection points: 2
#     Edge 25, Type (0, 0), BuildingBlock: XIVTED_clean_linker_0, # of connection points: 2
#     Edge 26, Type (0, 0), BuildingBlock: XIVTED_clean_linker_0, # of connection points: 2
#     Edge 27, Type (0, 0), BuildingBlock: XIVTED_clean_linker_0, # of connection points: 2
#     Edge 28, Type (0, 0), BuildingBlock: XIVTED_clean_linker_0, # of connection points: 2
#     Edge 29, Type (0, 0), BuildingBlock: XIVTED_clean_linker_0, # of connection points: 2
#     Edge 30, Type (0, 0), BuildingBlock: XIVTED_clean_linker_0, # of connection points: 2
#     Edge 31, Type (0, 0), BuildingBlock: XIVTED_clean_linker_0, # of connection points: 2
#     Edge 32, Type (0, 0), BuildingBlock: XIVTED_clean_linker_0, # of connection points: 2
#     Edge 33, Type (0, 0), BuildingBlock: XIVTED_clean_linker_0, # of connection points: 2
#     Edge 34, Type (0, 0), BuildingBlock: XIVTED_clean_linker_0, # of connection points: 2
#     Edge 35, Type (0, 0), BuildingBlock: XIVTED_clean_linker_0, # of connection points: 2
#     Edge 36, Type (0, 0), BuildingBlock: XIVTED_clean_linker_0, # of connection points: 2
#     Edge 37, Type (0, 0), BuildingBlock: XIVTED_clean_linker_0, # of connection points: 2
#     Edge 38, Type (0, 0), BuildingBlock: XIVTED_clean_linker_0, # of connection points: 2
#     Edge 39, Type (0, 0), BuildingBlock: XIVTED_clean_linker_0, # of connection points: 2
#     Edge 40, Type (0, 0), BuildingBlock: XIVTED_clean_linker_0, # of connection points: 2
#     Edge 41, Type (0, 0), BuildingBlock: XIVTED_clean_linker_0, # of connection points: 2
# Relax obj value: 0.497
# Max RMSD: 0.235
# Mean RMSD: 0.235
data_MOF--net-wjl--node1-BEQFEK_clean_sbu_0--edge1-XIVTED_clean_linker_0
_symmetry_space_group_name_H-M    P1
_symmetry_Int_Tables_number       1
_symmetry_cell_setting            triclinic
loop_
_symmetry_equiv_pos_as_xyz
'x, y, z'
_cell_length_a     27.247672
_cell_length_b     27.270703
_cell_length_c     83.659711
_cell_angle_alpha  90.076148
_cell_angle_beta   89.859875
_cell_angle_gamma 120.06905
loop_
_atom_site_label
_atom_site_type_symbol
_atom_site_fract_x
_atom_site_fract_y
_atom_site_fract_z
_atom_type_partial_charge
Co0 Co 0.44016 0.07091 0.35961 0.0
Co1 Co 0.33255 0.02291 0.33786 0.0
C2 C 0.42603 0.14023 0.33348 0.0
O3 O 0.45131 0.13338 0.34529 0.0
O4 O 0.37862 0.10008 0.3285 0.0
C5 C 0.55799 0.12202 0.3618 0.0
O6 O 0.5531 0.12407 0.34623 0.0
C7 C 0.25158 0.98329 0.31052 0.0
C8 C 0.18717 0.89901 0.31944 0.0
C9 C 0.20224 0.93378 0.3061 0.0
N10 N 0.26541 0.9769 0.32553 0.0
N11 N 0.22607 0.92682 0.33084 0.0
C12 C 0.28424 0.03653 0.301 0.0
H13 H 0.29946 0.07387 0.30894 0.0
H14 H 0.32172 0.03728 0.2955 0.0
H15 H 0.25759 0.03976 0.29152 0.0
C16 C 0.44655 0.97501 0.34621 0.0
N17 N 0.41996 0.00493 0.34799 0.0
N18 N 0.37743 0.98641 0.3379 0.0
C19 C 0.37747 0.94548 0.32875 0.0
C20 C 0.42151 0.93709 0.33373 0.0
C21 C 0.49406 0.98142 0.35661 0.0
H22 H 0.48951 0.9944 0.36884 0.0
H23 H 0.53509 0.01425 0.35152 0.0
H24 H 0.49455 0.94101 0.35727 0.0
O25 O 0.38267 0.05709 0.37543 0.0
O26 O 0.30649 0.02961 0.36021 0.0
H27 H 0.29767 0.88721 0.31833 0.0
H28 H 0.35793 0.90034 0.30622 0.0
C29 C 0.34063 0.92006 0.31439 0.0
H30 H 0.33686 0.95324 0.3078 0.0
H31 H 0.22703 0.91073 0.34207 0.0
O32 O 0.51343 0.09845 0.37035 0.0
C33 C 0.33068 0.04213 0.37387 0.0
Co34 Co 0.3663 0.43219 0.52032 0.0
Co35 Co 0.30028 0.3135 0.50353 0.0
C36 C 0.28322 0.41012 0.49417 0.0
O37 O 0.31881 0.44206 0.50458 0.0
O38 O 0.27158 0.35899 0.49232 0.0
C39 C 0.42908 0.55267 0.52296 0.0
O40 O 0.41541 0.5504 0.50782 0.0
C41 C 0.27014 0.23326 0.47676 0.0
C42 C 0.232 0.15113 0.48935 0.0
C43 C 0.2462 0.17511 0.4742 0.0
N44 N 0.27014 0.24253 0.49257 0.0
N45 N 0.24661 0.19319 0.5 0.0
C46 C 0.29634 0.28014 0.46475 0.0
H47 H 0.26226 0.28266 0.45823 0.0
H48 H 0.32344 0.32139 0.47077 0.0
H49 H 0.32209 0.27204 0.45599 0.0
C50 C 0.46491 0.42766 0.5082 0.0
N51 N 0.40867 0.40358 0.51047 0.0
N52 N 0.38238 0.35321 0.5037 0.0
C53 C 0.42203 0.34334 0.49711 0.0
C54 C 0.47555 0.3903 0.49966 0.0
C55 C 0.50609 0.48807 0.51241 0.0
H56 H 0.50485 0.49398 0.5255 0.0
H57 H 0.49311 0.51583 0.50635 0.0
H58 H 0.55009 0.50176 0.50872 0.0
O59 O 0.31846 0.38118 0.53742 0.0
O60 O 0.26829 0.29711 0.5258 0.0
H61 H 0.44671 0.28346 0.48929 0.0
H62 H 0.40055 0.29285 0.47596 0.0
C63 C 0.40961 0.28989 0.48871 0.0
H64 H 0.37233 0.25303 0.49418 0.0
H65 H 0.24167 0.18834 0.51237 0.0
O66 O 0.41475 0.50686 0.53043 0.0
C67 C 0.28079 0.32901 0.53805 0.0
Co68 Co 0.92033 0.34693 0.69148 0.0
Co69 Co 0.96996 0.28737 0.67034 0.0
C70 C 0.85494 0.26817 0.6641 0.0
O71 O 0.86036 0.29928 0.67608 0.0
O72 O 0.89505 0.25984 0.65975 0.0
C73 C 0.86773 0.41307 0.69471 0.0
O74 O 0.86283 0.40608 0.67913 0.0
C75 C 0.01961 0.25881 0.6427 0.0
C76 C 0.0813 0.24212 0.65506 0.0
C77 C 0.06263 0.24626 0.63999 0.0
N78 N 0.01402 0.26255 0.65859 0.0
N79 N 0.05027 0.25139 0.66588 0.0
C80 C 0.98813 0.27241 0.6305 0.0
H81 H 0.95408 0.23235 0.62526 0.0
H82 H 0.96842 0.29534 0.63605 0.0
H83 H 0.01704 0.29838 0.62071 0.0
C84 C 0.02069 0.44944 0.67995 0.0
N85 N 0.98941 0.39277 0.68107 0.0
N86 N 0.01052 0.3693 0.6716 0.0
C87 C 0.05577 0.41121 0.66382 0.0
C88 C 0.06307 0.46334 0.66874 0.0
C89 C 0.01009 0.48988 0.6894 0.0
H90 H 0.99578 0.47325 0.70165 0.0
H91 H 0.97659 0.49502 0.68348 0.0
H92 H 0.04907 0.53209 0.69018 0.0
O93 O 0.92837 0.29928 0.70726 0.0
O94 O 0.95637 0.25056 0.69223 0.0
H95 H 0.09943 0.3701 0.6547 0.0
H96 H 0.12629 0.44105 0.64721 0.0
C97 C 0.0875 0.40149 0.65076 0.0
H98 H 0.0598 0.38456 0.64014 0.0
H99 H 0.05552 0.25252 0.67825 0.0
O100 O 0.8931 0.39252 0.70255 0.0
C101 C 0.94146 0.26092 0.70572 0.0
Co102 Co 0.55853 0.90489 0.85803 0.0
Co103 Co 0.6672 0.95108 0.83664 0.0
C104 C 0.56834 0.83719 0.83078 0.0
O105 O 0.54407 0.84374 0.84292 0.0
O106 O 0.61677 0.87652 0.8261 0.0
C107 C 0.43971 0.85097 0.86202 0.0
O108 O 0.44081 0.84348 0.84653 0.0
C109 C 0.7429 0.99854 0.80852 0.0
C110 C 0.826 0.04939 0.82027 0.0
C111 C 0.80016 0.03573 0.8054 0.0
N112 N 0.7357 0.99137 0.82445 0.0
N113 N 0.78572 0.02117 0.83136 0.0
C114 C 0.69489 0.97393 0.79685 0.0
H115 H 0.65384 0.959 0.80311 0.0
H116 H 0.70085 0.00576 0.78766 0.0
H117 H 0.69375 0.9372 0.79077 0.0
C118 C 0.5594 0.0067 0.84601 0.0
N119 N 0.58306 0.97381 0.84726 0.0
N120 N 0.62931 0.99481 0.83844 0.0
C121 C 0.63663 0.04258 0.83135 0.0
C122 C 0.59234 0.05142 0.83579 0.0
C123 C 0.50268 0.99105 0.85298 0.0
H124 H 0.5014 0.97964 0.86575 0.0
H125 H 0.46946 0.95367 0.84651 0.0
H126 H 0.49239 0.0253 0.852 0.0
O127 O 0.6151 0.91224 0.87371 0.0
O128 O 0.69005 0.9361 0.85818 0.0
H129 H 0.72469 0.08258 0.82495 0.0
H130 H 0.69073 0.12278 0.81982 0.0
C131 C 0.68499 0.07956 0.82054 0.0
H132 H 0.67611 0.0611 0.80836 0.0
H133 H 0.79208 0.02372 0.8437 0.0
O134 O 0.48625 0.87903 0.8695 0.0
C135 C 0.66579 0.92285 0.87182 0.0
Co136 Co 0.64562 0.54705 0.02653 0.0
Co137 Co 0.702 0.65261 0.00388 0.0
C138 C 0.72356 0.55801 -0.00106 0.0
O139 O 0.69352 0.53393 0.01125 0.0
O140 O 0.73057 0.60525 -0.00606 0.0
C141 C 0.57951 0.42922 0.03055 0.0
O142 O 0.5847 0.43054 0.01491 0.0
C143 C 0.73835 0.73268 0.97621 0.0
C144 C 0.72145 0.79778 0.98621 0.0
C145 C 0.73811 0.78234 0.97232 0.0
N146 N 0.72109 0.71912 -0.00849 0.0
N147 N 0.71208 0.75883 -0.00257 0.0
C148 C 0.75628 0.69947 0.96593 0.0
H149 H 0.77783 0.68217 0.97328 0.0
H150 H 0.71825 0.66343 0.96043 0.0
H151 H 0.78587 0.7264 0.95639 0.0
C152 C 0.54125 0.53994 0.01464 0.0
N153 N 0.59806 0.56664 0.0157 0.0
N154 N 0.62062 0.60838 0.00531 0.0
C155 C 0.57832 0.60778 -0.00327 0.0
C156 C 0.52656 0.56418 0.00238 0.0
C157 C 0.50162 0.4925 0.02536 0.0
H158 H 0.52033 0.49798 0.03744 0.0
H159 H 0.49398 0.45164 0.02033 0.0
H160 H 0.46025 0.49098 0.02636 0.0
O161 O 0.69301 0.60591 0.04159 0.0
O162 O 0.73962 0.68028 0.02556 0.0
H163 H 0.59919 0.68676 0.98591 0.0
H164 H 0.54934 0.62569 0.97456 0.0
C165 C 0.58772 0.64328 0.98217 0.0
H166 H 0.62327 0.6458 0.97505 0.0
H167 H 0.69749 0.7582 0.00902 0.0
O168 O 0.60145 0.47554 0.03827 0.0
C169 C 0.73037 0.65743 0.03938 0.0
Co170 Co 0.08233 0.63556 0.19322 0.0
Co171 Co 0.03606 0.69434 0.17058 0.0
C172 C 0.15188 0.71475 0.16618 0.0
O173 O 0.14475 0.68456 0.17849 0.0
O174 O 0.11205 0.72164 0.16078 0.0
C175 C 0.13597 0.57103 0.19692 0.0
O176 O 0.14062 0.57765 0.18133 0.0
C177 C 0.9902 0.7246 0.14235 0.0
C178 C 0.93186 0.74711 0.15433 0.0
C179 C 0.95023 0.74122 0.13935 0.0
N180 N 0.9942 0.72034 0.15829 0.0
N181 N 0.95987 0.73478 0.16534 0.0
C182 C 0.02105 0.70887 0.13045 0.0
H183 H 0.03969 0.68553 0.13633 0.0
H184 H 0.99192 0.68248 0.12078 0.0
H185 H 0.05594 0.74801 0.12504 0.0
C186 C 0.98457 0.53256 0.18068 0.0
N187 N 0.01519 0.58926 0.18193 0.0
N188 N 0.99545 0.6125 0.17194 0.0
C189 C 0.95177 0.57047 0.16374 0.0
C190 C 0.94409 0.51845 0.1689 0.0
C191 C 0.99406 0.49232 0.19055 0.0
H192 H 0.0069 0.50915 0.20284 0.0
H193 H 0.02826 0.48712 0.18507 0.0
H194 H 0.95501 0.45009 0.19115 0.0
O195 O 0.07112 0.68264 0.20863 0.0
O196 O 0.04758 0.7316 0.19228 0.0
H197 H 0.91155 0.61304 0.15333 0.0
H198 H 0.88294 0.54089 0.14667 0.0
C199 C 0.92223 0.58009 0.1501 0.0
H200 H 0.95091 0.59481 0.1396 0.0
H201 H 0.95429 0.73456 0.17769 0.0
O202 O 0.10961 0.59073 0.20473 0.0
C203 C 0.05945 0.72163 0.20622 0.0
Co204 Co 0.92154 0.54776 0.41947 0.0
Co205 Co 0.97108 0.6543 0.44172 0.0
C206 C 0.85491 0.55998 0.44698 0.0
O207 O 0.86088 0.53557 0.43476 0.0
O208 O 0.89522 0.60748 0.45187 0.0
C209 C 0.87081 0.43008 0.41664 0.0
O210 O 0.87024 0.43403 0.43229 0.0
C211 C 0.01603 0.73603 0.46897 0.0
C212 C 0.09874 0.79942 0.45884 0.0
C213 C 0.06677 0.78517 0.47276 0.0
N214 N 0.01921 0.72154 0.45375 0.0
N215 N 0.06833 0.76031 0.44772 0.0
C216 C 0.96465 0.70403 0.47929 0.0
H217 H 0.9258 0.68641 0.47189 0.0
H218 H 0.96611 0.66828 0.48513 0.0
H219 H 0.96229 0.73195 0.48854 0.0
C220 C 0.0198 0.54222 0.43121 0.0
N221 N 0.98906 0.56818 0.43021 0.0
N222 N 0.00823 0.6102 0.4405 0.0
C223 C 0.05054 0.6105 0.44899 0.0
C224 C 0.05916 0.56727 0.44335 0.0
C225 C 0.01255 0.49514 0.42045 0.0
H226 H 0.99801 0.49981 0.40847 0.0
H227 H 0.98046 0.45394 0.42561 0.0
H228 H 0.05305 0.49501 0.41919 0.0
O229 O 0.93284 0.60563 0.4041 0.0
O230 O 0.96086 0.68061 0.41989 0.0
H231 H 0.10962 0.68969 0.45957 0.0
H232 H 0.09729 0.62888 0.4712 0.0
C233 C 0.07699 0.64656 0.46344 0.0
H234 H 0.04426 0.64991 0.47046 0.0
H235 H 0.08207 0.75875 0.43618 0.0
O236 O 0.89329 0.47509 0.40832 0.0
C237 C 0.94716 0.65724 0.40614 0.0
Co238 Co 0.36433 0.90658 0.59002 0.0
Co239 Co 0.30118 0.95827 0.60886 0.0
C240 C 0.28485 0.84442 0.61717 0.0
O241 O 0.31851 0.84849 0.60603 0.0
O242 O 0.27378 0.88391 0.61987 0.0
C243 C 0.42737 0.8498 0.58615 0.0
O244 O 0.41619 0.83918 0.60145 0.0
C245 C 0.27377 0.0086 0.63623 0.0
C246 C 0.24423 0.06082 0.62401 0.0
C247 C 0.25542 0.04721 0.63902 0.0
N248 N 0.27375 0.00042 0.62037 0.0
N249 N 0.25512 0.03103 0.61316 0.0
C250 C 0.29618 0.98392 0.64817 0.0
H251 H 0.32227 0.96852 0.64215 0.0
H252 H 0.32191 0.01583 0.65738 0.0
H253 H 0.26001 0.94752 0.65421 0.0
C254 C 0.465 0.00908 0.60182 0.0
N255 N 0.40849 0.97712 0.6 0.0
N256 N 0.38308 0.00047 0.60765 0.0
C257 C 0.42342 0.04917 0.6144 0.0
C258 C 0.4766 0.056 0.61105 0.0
C259 C 0.50563 0.99032 0.59657 0.0
H260 H 0.50091 0.98159 0.58354 0.0
H261 H 0.49508 0.9505 0.60286 0.0
H262 H 0.55035 0.02165 0.59922 0.0
O263 O 0.31469 0.91103 0.57368 0.0
O264 O 0.26577 0.94268 0.58716 0.0
H265 H 0.44988 0.13199 0.62417 0.0
H266 H 0.40072 0.07329 0.63627 0.0
C267 C 0.41188 0.08896 0.62383 0.0
H268 H 0.37611 0.09158 0.61849 0.0
H269 H 0.25182 0.03317 0.60079 0.0
O270 O 0.41124 0.88032 0.57897 0.0
C271 C 0.27655 0.92485 0.57428 0.0
Co272 Co 0.44465 0.34854 0.75669 0.0
Co273 Co 0.33141 0.28345 0.77605 0.0
C274 C 0.42852 0.2657 0.78281 0.0
O275 O 0.45577 0.29898 0.77139 0.0
O276 O 0.37928 0.25619 0.78679 0.0
C277 C 0.564 0.41286 0.75405 0.0
O278 O 0.56088 0.40055 0.76933 0.0
C279 C 0.25355 0.25529 0.80346 0.0
C280 C 0.17187 0.22672 0.79124 0.0
C281 C 0.19672 0.23783 0.80624 0.0
N282 N 0.26164 0.255 0.78759 0.0
N283 N 0.2124 0.23681 0.78039 0.0
C284 C 0.30067 0.27758 0.81541 0.0
H285 H 0.3423 0.30324 0.8094 0.0
H286 H 0.29476 0.30361 0.82459 0.0
H287 H 0.30044 0.24137 0.82151 0.0
C288 C 0.44208 0.44792 0.76919 0.0
N289 N 0.4187 0.39152 0.76752 0.0
N290 N 0.37032 0.36535 0.77537 0.0
C291 C 0.36115 0.4051 0.78217 0.0
C292 C 0.40645 0.45864 0.77857 0.0
C293 C 0.50037 0.4897 0.76332 0.0
H294 H 0.50338 0.48343 0.75033 0.0
H295 H 0.53161 0.48201 0.7696 0.0
H296 H 0.51209 0.53423 0.76552 0.0
O297 O 0.39081 0.30217 0.74012 0.0
O298 O 0.31152 0.24978 0.75389 0.0
H299 H 0.30384 0.43029 0.79203 0.0
H300 H 0.31446 0.38187 0.80407 0.0
C301 C 0.3096 0.39279 0.79165 0.0
H302 H 0.27139 0.3567 0.78632 0.0
H303 H 0.20697 0.2337 0.76802 0.0
O304 O 0.51851 0.39666 0.74622 0.0
C305 C 0.33927 0.26287 0.74078 0.0
Co306 Co 0.08294 0.42809 0.9252 0.0
Co307 Co 0.03031 0.31088 0.94272 0.0
C308 C 0.14436 0.40726 0.95167 0.0
O309 O 0.14029 0.43815 0.94101 0.0
O310 O 0.10483 0.3563 0.9539 0.0
C311 C 0.13917 0.54816 0.92324 0.0
O312 O 0.14696 0.54455 0.93858 0.0
C313 C 0.97968 0.23165 0.96964 0.0
C314 C 0.92601 0.1506 0.95716 0.0
C315 C 0.94029 0.17477 0.97226 0.0
N316 N 0.98771 0.24041 0.95379 0.0
N317 N 0.95626 0.19157 0.94642 0.0
C318 C 0.00501 0.27828 0.98175 0.0
H319 H 0.04146 0.27807 0.98757 0.0
H320 H 0.02051 0.32006 0.97594 0.0
H321 H 0.97343 0.2719 -0.00888 0.0
C322 C 0.97961 0.42438 0.93705 0.0
N323 N 0.01195 0.4004 0.93504 0.0
N324 N 0.98841 0.35093 0.94231 0.0
C325 C 0.93935 0.34174 0.94907 0.0
C326 C 0.93239 0.3881 0.94606 0.0
C327 C 0.99794 0.48391 0.93208 0.0
H328 H 0.00926 0.48936 0.91921 0.0
H329 H 0.0361 0.5134 0.939 0.0
H330 H 0.96522 0.49581 0.93423 0.0
O331 O 0.07924 0.37629 0.90827 0.0
O332 O 0.04565 0.29337 0.92056 0.0
H333 H 0.89654 0.25166 0.95249 0.0
H334 H 0.85628 0.28463 0.95867 0.0
C335 C 0.89927 0.28963 0.95819 0.0
H336 H 0.91481 0.29309 0.97059 0.0
H337 H 0.95373 0.18667 0.93402 0.0
O338 O 0.11034 0.50299 0.91521 0.0
C339 C 0.0647 0.3241 0.90807 0.0
Co340 Co 0.64296 0.07099 0.09112 0.0
Co341 Co 0.70767 0.02099 0.10987 0.0
C342 C 0.72646 0.13643 0.11718 0.0
O343 O 0.69097 0.13068 0.10647 0.0
O344 O 0.73803 0.09736 0.11995 0.0
C345 C 0.57688 0.12397 0.089 0.0
O346 O 0.58707 0.1306 0.10442 0.0
C347 C 0.74536 0.97762 0.13693 0.0
C348 C 0.7422 0.9027 0.12577 0.0
C349 C 0.75001 0.92999 0.14034 0.0
N350 N 0.73305 0.97669 0.12131 0.0
N351 N 0.73274 0.93258 0.11466 0.0
C352 C 0.75451 0.02457 0.14803 0.0
H353 H 0.77621 0.0656 0.14165 0.0
H354 H 0.7129 0.01748 0.15235 0.0
H355 H 0.78135 0.02742 0.15833 0.0
C356 C 0.54306 0.96904 0.10356 0.0
N357 N 0.5995 0.00157 0.10161 0.0
N358 N 0.62564 0.98066 0.10998 0.0
C359 C 0.586 0.93423 0.11783 0.0
C360 C 0.53243 0.92529 0.11398 0.0
C361 C 0.501 0.98381 0.09698 0.0
H362 H 0.51116 0.99687 0.08431 0.0
H363 H 0.50365 0.01971 0.10391 0.0
H364 H 0.45684 0.9483 0.09775 0.0
O365 O 0.69004 0.06437 0.07448 0.0
O366 O 0.73912 0.0321 0.0875 0.0
H367 H 0.62343 0.8833 0.12266 0.0
H368 H 0.55985 0.863 0.13391 0.0
C369 C 0.59897 0.89962 0.12907 0.0
H370 H 0.62514 0.9267 0.13908 0.0
H371 H 0.72313 0.92124 0.10267 0.0
O372 O 0.59522 0.09714 0.08084 0.0
C373 C 0.7272 0.0492 0.07468 0.0
Co374 Co 0.5626 0.62951 0.25699 0.0
Co375 Co 0.67594 0.69265 0.27641 0.0
C376 C 0.57997 0.71195 0.28346 0.0
O377 O 0.55145 0.67819 0.27226 0.0
O378 O 0.62971 0.72186 0.28684 0.0
C379 C 0.44308 0.56687 0.25453 0.0
O380 O 0.44668 0.57731 0.26995 0.0
C381 C 0.75399 0.72303 0.3038 0.0
C382 C 0.83597 0.7528 0.29152 0.0
C383 C 0.81136 0.74296 0.30658 0.0
N384 N 0.74556 0.72096 0.28791 0.0
N385 N 0.79489 0.73965 0.28067 0.0
C386 C 0.70688 0.7017 0.31579 0.0
H387 H 0.66529 0.67518 0.30989 0.0
H388 H 0.71305 0.67673 0.32522 0.0
H389 H 0.70673 0.73834 0.32152 0.0
C390 C 0.56272 0.52885 0.26954 0.0
N391 N 0.5875 0.58532 0.26767 0.0
N392 N 0.63525 0.61073 0.2758 0.0
C393 C 0.64237 0.57045 0.28306 0.0
C394 C 0.59648 0.51733 0.27944 0.0
C395 C 0.50458 0.4879 0.26345 0.0
H396 H 0.50161 0.49633 0.25063 0.0
H397 H 0.47309 0.49417 0.27019 0.0
H398 H 0.49324 0.44316 0.26489 0.0
O399 O 0.61741 0.67649 0.24039 0.0
O400 O 0.69649 0.72608 0.25444 0.0
H401 H 0.69676 0.54389 0.29407 0.0
H402 H 0.68554 0.59337 0.30546 0.0
C403 C 0.69206 0.58196 0.29324 0.0
H404 H 0.73146 0.61753 0.28821 0.0
H405 H 0.80024 0.74183 0.26828 0.0
O406 O 0.48832 0.58302 0.24651 0.0
C407 C 0.6694 0.7146 0.24129 0.0
H408 H 0.53075 0.97208 0.32546 0.0
H409 H 0.46858 0.68375 0.28452 0.0
H410 H 0.36291 0.82544 0.32442 0.0
H411 H 0.63412 0.80787 0.30193 0.0
H412 H 0.4286 0.737 0.29703 0.0
H413 H 0.56895 0.91519 0.31449 0.0
C414 C 0.50196 0.92766 0.32304 0.0
C415 C 0.4437 0.9031 0.32609 0.0
C416 C 0.47356 0.75231 0.2982 0.0
C417 C 0.48703 0.838 0.31316 0.0
C418 C 0.49653 0.72206 0.29105 0.0
C419 C 0.55493 0.74154 0.29212 0.0
C420 C 0.50933 0.80292 0.30629 0.0
C421 C 0.58893 0.79127 0.30081 0.0
C422 C 0.52381 0.89528 0.31672 0.0
C423 C 0.40809 0.84589 0.3222 0.0
N424 N 0.56569 0.82057 0.30742 0.0
N425 N 0.43032 0.81516 0.3159 0.0
H426 H 0.4974 0.38037 0.46835 0.0
H427 H 0.82979 0.58092 0.47724 0.0
H428 H 0.57807 0.43062 0.51442 0.0
H429 H 0.75414 0.47392 0.436 0.0
H430 H 0.73733 0.53172 0.49075 0.0
H431 H 0.5907 0.4171 0.45587 0.0
C432 C 0.53474 0.3981 0.47586 0.0
C433 C 0.5303 0.40311 0.4924 0.0
C434 C 0.74124 0.51894 0.47877 0.0
C435 C 0.63703 0.44675 0.47821 0.0
C436 C 0.79383 0.54725 0.47102 0.0
C437 C 0.79971 0.53167 0.45545 0.0
C438 C 0.69414 0.47546 0.47078 0.0
C439 C 0.75168 0.4874 0.44801 0.0
C440 C 0.58798 0.41949 0.46874 0.0
C441 C 0.58001 0.42694 0.50158 0.0
N442 N 0.70091 0.46122 0.45568 0.0
N443 N 0.63149 0.44882 0.49434 0.0
H444 H 0.31904 0.76664 0.62117 0.0
H445 H 0.0254 0.53073 0.65671 0.0
H446 H 0.18554 0.80062 0.63418 0.0
H447 H 0.17859 0.52409 0.66389 0.0
H448 H 0.08164 0.62608 0.64574 0.0
H449 H 0.26714 0.67454 0.63445 0.0
C450 C 0.27897 0.75489 0.62692 0.0
C451 C 0.2564 0.79127 0.62651 0.0
C452 C 0.10303 0.6039 0.64975 0.0
C453 C 0.19662 0.68567 0.64149 0.0
C454 C 0.07102 0.54952 0.65599 0.0
C455 C 0.09752 0.51969 0.66124 0.0
C456 C 0.16202 0.62842 0.64846 0.0
C457 C 0.15658 0.5455 0.65977 0.0
C458 C 0.24953 0.70241 0.63452 0.0
C459 C 0.20451 0.77397 0.63423 0.0
N460 N 0.18699 0.59846 0.65342 0.0
N461 N 0.176 0.72205 0.64123 0.0
H462 H 0.51004 0.24598 0.77107 0.0
H463 H 0.56284 0.1222 0.85097 0.0
H464 H 0.40801 0.2201 0.8132 0.0
H465 H 0.58539 0.07021 0.80413 0.0
H466 H 0.52309 0.17635 0.83851 0.0
H467 H 0.5549 0.19906 0.78434 0.0
C468 C 0.49716 0.23059 0.78316 0.0
C469 C 0.455 0.23679 0.79103 0.0
C470 C 0.53706 0.15325 0.83101 0.0
C471 C 0.50701 0.18369 0.80633 0.0
C472 C 0.55968 0.1225 0.83807 0.0
C473 C 0.57643 0.09101 0.82855 0.0
C474 C 0.53274 0.15365 0.81431 0.0
C475 C 0.57307 0.09401 0.8119 0.0
C476 C 0.52276 0.20371 0.79068 0.0
C477 C 0.44001 0.21581 0.80667 0.0
N478 N 0.55154 0.12471 0.8053 0.0
N479 N 0.46631 0.1904 0.81388 0.0
H480 H 0.45145 0.45454 -0.00527 0.0
H481 H 0.22488 0.51869 0.95506 0.0
H482 H 0.47226 0.622 -0.00616 0.0
H483 H 0.18567 0.35068 0.96923 0.0
H484 H 0.31679 0.55766 0.96815 0.0
H485 H 0.35583 0.41606 0.98411 0.0
C486 C 0.43558 0.48316 -0.00756 0.0
C487 C 0.46943 0.54145 -0.00465 0.0
C488 C 0.28793 0.51234 0.96852 0.0
C489 C 0.36039 0.49782 0.98285 0.0
C490 C 0.23542 0.48995 0.96102 0.0
C491 C 0.19758 0.43119 0.96095 0.0
C492 C 0.30322 0.47574 0.97584 0.0
C493 C 0.21348 0.39618 0.96897 0.0
C494 C 0.38106 0.46117 0.98632 0.0
C495 C 0.44747 0.57683 -0.0083 0.0
N496 N 0.2654 0.41896 0.97595 0.0
N497 N 0.39426 0.55446 0.98559 0.0
H498 H 0.98355 0.45096 0.15792 0.0
H499 H 0.69274 0.21478 0.12062 0.0
H500 H 0.82946 0.4576 0.16283 0.0
H501 H 0.82646 0.18174 0.13391 0.0
H502 H 0.74405 0.30711 0.13374 0.0
H503 H 0.92902 0.35587 0.1466 0.0
C504 C 0.9381 0.43224 0.15663 0.0
C505 C 0.91086 0.46205 0.16131 0.0
C506 C 0.76193 0.27948 0.13387 0.0
C507 C 0.84835 0.35363 0.14814 0.0
C508 C 0.73281 0.22682 0.12636 0.0
C509 C 0.75549 0.19052 0.12611 0.0
C510 C 0.81463 0.29651 0.14097 0.0
C511 C 0.80739 0.2083 0.13383 0.0
C512 C 0.90706 0.37802 0.15017 0.0
C513 C 0.8521 0.43629 0.15914 0.0
N514 N 0.83553 0.26034 0.1408 0.0
N515 N 0.82271 0.38352 0.15262 0.0
H516 H 0.18629 0.35152 0.4763 0.0
H517 H 0.17151 0.62768 0.45164 0.0
H518 H 0.31192 0.52089 0.49063 0.0
H519 H 0.0274 0.45825 0.45087 0.0
H520 H 0.22928 0.5898 0.4627 0.0
H521 H 0.13347 0.39055 0.46294 0.0
C522 C 0.20305 0.39689 0.47651 0.0
C523 C 0.25331 0.4329 0.48472 0.0
C524 C 0.18504 0.56097 0.46003 0.0
C525 C 0.19322 0.47775 0.4695 0.0
C526 C 0.15215 0.58259 0.4538 0.0
C527 C 0.09488 0.54594 0.45023 0.0
C528 C 0.16037 0.50231 0.46256 0.0
C529 C 0.07174 0.4878 0.45313 0.0
C530 C 0.17277 0.41911 0.46896 0.0
C531 C 0.27307 0.49144 0.48459 0.0
N532 N 0.10457 0.46775 0.45908 0.0
N533 N 0.24293 0.51201 0.47714 0.0
H534 H 0.49872 0.08229 0.64262 0.0
H535 H 0.83154 0.2217 0.63389 0.0
H536 H 0.57941 0.12052 0.59634 0.0
H537 H 0.75354 0.25273 0.6747 0.0
H538 H 0.73927 0.1766 0.62027 0.0
H539 H 0.5917 0.13899 0.65511 0.0
C540 C 0.53599 0.10345 0.63508 0.0
C541 C 0.53162 0.09639 0.61845 0.0
C542 C 0.74269 0.19367 0.63217 0.0
C543 C 0.63808 0.15969 0.63265 0.0
C544 C 0.79512 0.219 0.63998 0.0
C545 C 0.80023 0.24088 0.65546 0.0
C546 C 0.69504 0.1893 0.64005 0.0
C547 C 0.75169 0.23655 0.66276 0.0
C548 C 0.58904 0.13542 0.64221 0.0
C549 C 0.5813 0.12416 0.60924 0.0
N550 N 0.70111 0.21083 0.65506 0.0
N551 N 0.63271 0.15392 0.61647 0.0
H552 H 0.48254 0.73736 0.84224 0.0
H553 H 0.43886 0.55836 0.76287 0.0
H554 H 0.58786 0.81063 0.80048 0.0
H555 H 0.40395 0.48421 0.80995 0.0
H556 H 0.47551 0.6524 0.77505 0.0
H557 H 0.43586 0.64536 0.82898 0.0
C558 C 0.49571 0.73423 0.83023 0.0
C559 C 0.53951 0.78182 0.82248 0.0
C560 C 0.45937 0.6154 0.78267 0.0
C561 C 0.48549 0.67644 0.80722 0.0
C562 C 0.43846 0.56195 0.77576 0.0
C563 C 0.41946 0.51385 0.78547 0.0
C564 C 0.45983 0.62036 0.79936 0.0
C565 C 0.41832 0.5203 0.80206 0.0
C566 C 0.46904 0.68161 0.82271 0.0
C567 C 0.55465 0.77499 0.80693 0.0
N568 N 0.43851 0.57268 0.80851 0.0
N569 N 0.52752 0.72318 0.79977 0.0
H570 H 0.90629 0.38386 0.97767 0.0
H571 H 0.76706 0.57693 0.9684 0.0
H572 H 0.86654 0.42446 0.93146 0.0
H573 H 0.74088 0.47419 0.01029 0.0
H574 H 0.81063 0.52805 0.95496 0.0
H575 H 0.85019 0.42078 -0.00971 0.0
C576 C 0.88486 0.39965 0.97018 0.0
C577 C 0.89147 0.40185 0.95354 0.0
C578 C 0.795 0.51613 0.96706 0.0
C579 C 0.82884 0.44561 0.96785 0.0
C580 C 0.77056 0.54426 0.97477 0.0
C581 C 0.75045 0.52976 -0.0095 0.0
C582 C 0.80022 0.47401 0.97525 0.0
C583 C 0.75573 0.48676 -0.00185 0.0
C584 C 0.85324 0.42108 0.97737 0.0
C585 C 0.86326 0.42314 0.94437 0.0
N586 N 0.78051 0.46079 -0.00949 0.0
N587 N 0.83389 0.44514 0.95165 0.0
H588 H 0.43343 0.85052 0.09919 0.0
H589 H 0.25285 0.73879 0.17933 0.0
H590 H 0.50639 0.91121 0.14573 0.0
H591 H 0.17909 0.75351 0.13526 0.0
H592 H 0.34599 0.78453 0.1665 0.0
H593 H 0.33935 0.79622 0.11167 0.0
C594 C 0.42956 0.85186 0.11206 0.0
C595 C 0.47732 0.88572 0.12147 0.0
C596 C 0.30938 0.77764 0.15965 0.0
C597 C 0.37077 0.82337 0.13575 0.0
C598 C 0.25619 0.75146 0.16692 0.0
C599 C 0.20814 0.74256 0.15835 0.0
C600 C 0.31455 0.79411 0.1436 0.0
C601 C 0.2151 0.75998 0.14232 0.0
C602 C 0.37609 0.82112 0.11913 0.0
C603 C 0.47052 0.8854 0.13809 0.0
N604 N 0.26739 0.78471 0.13541 0.0
N605 N 0.41813 0.85475 0.14472 0.0
H606 H 0.50613 0.24162 0.34579 0.0
H607 H 0.56394 0.41575 0.26482 0.0
H608 H 0.40924 0.16611 0.30294 0.0
H609 H 0.59267 0.49408 0.31124 0.0
H610 H 0.52339 0.32263 0.27779 0.0
H611 H 0.55347 0.33362 0.33242 0.0
C612 C 0.49481 0.24436 0.33355 0.0
C613 C 0.45344 0.19612 0.32548 0.0
C614 C 0.53892 0.3603 0.28511 0.0
C615 C 0.50827 0.30123 0.31007 0.0
C616 C 0.56206 0.41325 0.27775 0.0
C617 C 0.58063 0.4623 0.287 0.0
C618 C 0.53566 0.35673 0.30184 0.0
C619 C 0.57876 0.45719 0.30369 0.0
C620 C 0.52184 0.29691 0.32596 0.0
C621 C 0.44052 0.20229 0.30964 0.0
N622 N 0.55641 0.40526 0.3106 0.0
N623 N 0.46814 0.25392 0.3024 0.0
H624 H 0.80375 0.3268 0.43062 0.0
H625 H 0.66058 0.18955 0.34745 0.0
H626 H 0.86564 0.40658 0.3847 0.0
H627 H 0.58339 0.1251 0.39352 0.0
H628 H 0.74951 0.25431 0.3608 0.0
H629 H 0.73764 0.23892 0.41701 0.0
C630 C 0.80418 0.32558 0.41768 0.0
C631 C 0.83913 0.37444 0.40876 0.0
C632 C 0.71336 0.22532 0.36797 0.0
C633 C 0.76356 0.27429 0.39316 0.0
C634 C 0.66258 0.18829 0.36036 0.0
C635 C 0.61416 0.15301 0.36943 0.0
C636 C 0.71554 0.22704 0.38474 0.0
C637 C 0.61941 0.15254 0.38609 0.0
C638 C 0.76637 0.27541 0.40993 0.0
C639 C 0.83849 0.3702 0.39204 0.0
N640 N 0.66898 0.18975 0.39324 0.0
N641 N 0.80056 0.32121 0.38477 0.0
H642 H 0.45987 0.57212 0.55448 0.0
H643 H 0.45299 0.85948 0.55422 0.0
H644 H 0.45133 0.65602 0.51172 0.0
H645 H 0.4549 0.77205 0.59701 0.0
H646 H 0.47456 0.79726 0.53845 0.0
H647 H 0.48042 0.65615 0.56996 0.0
C648 C 0.46324 0.60856 0.54829 0.0
C649 C 0.45253 0.60657 0.53184 0.0
C650 C 0.47114 0.79224 0.55132 0.0
C651 C 0.47551 0.70266 0.54951 0.0
C652 C 0.45883 0.82778 0.56034 0.0
C653 C 0.45081 0.82005 0.57692 0.0
C654 C 0.47505 0.74844 0.55893 0.0
C655 C 0.45974 0.77889 0.58422 0.0
C656 C 0.47495 0.65655 0.55715 0.0
C657 C 0.45833 0.65533 0.52443 0.0
N658 N 0.47045 0.74399 0.57514 0.0
N659 N 0.46846 0.70105 0.53337 0.0
H660 H 0.87394 0.43928 0.72646 0.0
H661 H 0.58549 0.44207 0.72245 0.0
H662 H 0.79279 0.44222 0.6825 0.0
H663 H 0.66742 0.43986 0.76634 0.0
H664 H 0.67182 0.46466 0.7078 0.0
H665 H 0.81056 0.46198 0.7412 0.0
C666 C 0.84334 0.44556 0.71988 0.0
C667 C 0.83759 0.43742 0.70328 0.0
C668 C 0.67128 0.4602 0.72067 0.0
C669 C 0.76459 0.46285 0.72007 0.0
C670 C 0.62196 0.44727 0.72905 0.0
C671 C 0.61881 0.4376 0.74558 0.0
C672 C 0.71748 0.46293 0.72889 0.0
C673 C 0.66762 0.44587 0.75355 0.0
C674 C 0.80717 0.45859 0.7283 0.0
C675 C 0.79799 0.44713 0.69533 0.0
N676 N 0.71464 0.45704 0.74508 0.0
N677 N 0.76222 0.45828 0.70384 0.0
H678 H 0.33377 0.78014 0.85009 0.0
H679 H 0.21484 0.65122 0.93602 0.0
H680 H 0.42284 0.8517 0.89428 0.0
H681 H 0.13472 0.57053 0.89156 0.0
H682 H 0.27885 0.73714 0.92127 0.0
H683 H 0.24917 0.71641 0.8654 0.0
C684 C 0.3353 0.78313 0.86301 0.0
C685 C 0.38583 0.82032 0.87094 0.0
C686 C 0.24667 0.70093 0.91477 0.0
C687 C 0.28932 0.74725 0.88852 0.0
C688 C 0.21003 0.65185 0.92319 0.0
C689 C 0.17031 0.6032 0.91495 0.0
C690 C 0.24363 0.70119 0.89801 0.0
C691 C 0.16549 0.60673 0.89836 0.0
C692 C 0.28695 0.74666 0.87175 0.0
C693 C 0.38508 0.82292 0.88768 0.0
N694 N 0.20238 0.65459 0.8904 0.0
N695 N 0.33784 0.78616 0.89593 0.0
H696 H 0.54659 0.11675 0.05757 0.0
H697 H 0.5569 0.41084 0.06253 0.0
H698 H 0.55107 0.20062 0.1018 0.0
H699 H 0.54611 0.32406 0.01834 0.0
H700 H 0.53314 0.32453 0.07721 0.0
H701 H 0.52447 0.18121 0.04331 0.0
C702 C 0.54199 0.14814 0.06432 0.0
C703 C 0.55217 0.15438 0.08083 0.0
C704 C 0.53503 0.32401 0.06429 0.0
C705 C 0.52747 0.22859 0.06458 0.0
C706 C 0.5487 0.37335 0.0559 0.0
C707 C 0.55493 0.37498 0.03923 0.0
C708 C 0.52824 0.27628 0.05595 0.0
C709 C 0.54276 0.32494 0.03122 0.0
C710 C 0.5293 0.18493 0.05617 0.0
C711 C 0.5446 0.19501 0.08902 0.0
N712 N 0.53104 0.27787 0.03969 0.0
N713 N 0.53379 0.23135 0.08076 0.0
H714 H 0.42021 0.54109 0.22278 0.0
H715 H 0.13465 0.54997 0.22895 0.0
H716 H 0.34105 0.54278 0.26739 0.0
H717 H 0.20967 0.54064 0.18436 0.0
H718 H 0.19971 0.52876 0.24326 0.0
H719 H 0.33418 0.52215 0.20867 0.0
C720 C 0.38441 0.53658 0.22964 0.0
C721 C 0.38824 0.54479 0.24625 0.0
C722 C 0.2014 0.53047 0.23033 0.0
C723 C 0.28989 0.52368 0.23017 0.0
C724 C 0.16425 0.54263 0.22215 0.0
C725 C 0.16761 0.54831 0.20546 0.0
C726 C 0.24254 0.52454 0.22177 0.0
C727 C 0.20619 0.53753 0.19725 0.0
C728 C 0.33525 0.52575 0.22157 0.0
C729 C 0.34028 0.53766 0.25454 0.0
N730 N 0.24283 0.52711 0.20551 0.0
N731 N 0.29342 0.52848 0.24638 0.0
H732 H 0.10498 0.83676 0.20596 0.0
H733 H 0.2499 0.96542 0.27587 0.0
H734 H 0.0309 0.69173 0.2373 0.0
H735 H 0.09218 0.85487 0.30007 0.0
H736 H 0.20523 0.9232 0.25051 0.0
H737 H 0.13424 0.89917 0.22953 0.0
C738 C 0.0936 0.81814 0.21778 0.0
C739 C 0.066 0.75915 0.21976 0.0
C740 C 0.17986 0.90962 0.26131 0.0
C741 C 0.09945 0.82972 0.24656 0.0
C742 C 0.20527 0.9342 0.27589 0.0
C743 C 0.17444 0.91506 0.29023 0.0
C744 C 0.12378 0.86434 0.2611 0.0
C745 C 0.11757 0.87132 0.28934 0.0
C746 C 0.11084 0.85366 0.23118 0.0
C747 C 0.05261 0.73705 0.23531 0.0
N748 N 0.09444 0.8467 0.27508 0.0
N749 N 0.06959 0.77236 0.24813 0.0
H750 H 0.34257 0.01236 0.40378 0.0
H751 H 0.24544 0.0752 0.47188 0.0
H752 H 0.2529 0.07785 0.37704 0.0
H753 H 0.23617 0.20025 0.44249 0.0
H754 H 0.2494 0.02721 0.44785 0.0
H755 H 0.3101 0.0334 0.42849 0.0
C756 C 0.31454 0.02976 0.40315 0.0
C757 C 0.30027 0.04327 0.38837 0.0
C758 C 0.24766 0.06579 0.44661 0.0
C759 C 0.26241 0.06767 0.41678 0.0
C760 C 0.24474 0.09304 0.46038 0.0
C761 C 0.2434 0.14376 0.45933 0.0
C762 C 0.24979 0.08955 0.43156 0.0
C763 C 0.24073 0.16345 0.44401 0.0
C764 C 0.29558 0.0415 0.41731 0.0
C765 C 0.26433 0.06629 0.38822 0.0
N766 N 0.24476 0.13673 0.43073 0.0
N767 N 0.24752 0.07889 0.40225 0.0
H768 H 0.01737 0.20896 0.60981 0.0
H769 H 0.31981 0.36595 0.56802 0.0
H770 H 0.17534 0.28796 0.63574 0.0
H771 H 0.17084 0.24297 0.54266 0.0
H772 H 0.26592 0.33813 0.59288 0.0
H773 H 0.07043 0.22131 0.58492 0.0
C774 C 0.0631 0.22908 0.61027 0.0
C775 C 0.09207 0.24866 0.62483 0.0
C776 C 0.24498 0.31666 0.58194 0.0
C777 C 0.15275 0.2621 0.59654 0.0
C778 C 0.27576 0.33262 0.56773 0.0
C779 C 0.24969 0.30684 0.55326 0.0
C780 C 0.18721 0.27532 0.58172 0.0
C781 C 0.19254 0.26372 0.55359 0.0
C782 C 0.09328 0.23552 0.5961 0.0
C783 C 0.15121 0.27257 0.6248 0.0
N784 N 0.16286 0.2498 0.56759 0.0
N785 N 0.17955 0.27921 0.61088 0.0
H786 H 0.77865 0.99299 0.77445 0.0
H787 H 0.9687 0.2976 0.7362 0.0
H788 H 0.88765 0.14314 0.80175 0.0
H789 H 0.89782 0.14577 0.70761 0.0
H790 H 0.94219 0.23992 0.76032 0.0
H791 H 0.82253 0.04567 0.74981 0.0
C792 C 0.81143 0.03701 0.77529 0.0
C793 C 0.82827 0.06412 0.7902 0.0
C794 C 0.93309 0.21896 0.74881 0.0
C795 C 0.87952 0.12414 0.7621 0.0
C796 C 0.94838 0.25196 0.73504 0.0
C797 C 0.93537 0.22633 0.71993 0.0
C798 C 0.90322 0.15961 0.74755 0.0
C799 C 0.9089 0.16706 0.71907 0.0
C800 C 0.83702 0.06682 0.76122 0.0
C801 C 0.87278 0.12056 0.79055 0.0
N802 N 0.8927 0.13549 0.73272 0.0
N803 N 0.89627 0.14876 0.77674 0.0
H804 H 0.76933 0.89267 0.96708 0.0
H805 H 0.72689 0.86835 0.87254 0.0
H806 H 0.71847 0.73635 0.94175 0.0
H807 H 0.66734 0.95667 0.90248 0.0
H808 H 0.75823 0.83992 0.89665 0.0
H809 H 0.7655 0.93617 0.94189 0.0
C810 C 0.75881 0.86781 0.95621 0.0
C811 C 0.74514 0.8108 0.95663 0.0
C812 C 0.73934 0.8665 0.89783 0.0
C813 C 0.74143 0.86081 0.92777 0.0
C814 C 0.72192 0.88303 0.88415 0.0
C815 C 0.69448 0.91472 0.88562 0.0
C816 C 0.73053 0.88317 0.91295 0.0
C817 C 0.68819 0.93205 0.9009 0.0
C818 C 0.75668 0.89276 0.94188 0.0
C819 C 0.7315 0.78078 0.9421 0.0
N820 N 0.70609 0.91607 0.914 0.0
N821 N 0.72987 0.80614 0.92827 0.0
H822 H 0.99647 0.76852 0.10865 0.0
H823 H 0.69329 0.65719 0.06935 0.0
H824 H 0.84267 0.72011 0.13515 0.0
H825 H 0.84608 0.7259 0.04112 0.0
H826 H 0.75035 0.69032 0.09352 0.0
H827 H 0.94573 0.76141 0.08383 0.0
C828 C 0.95209 0.75592 0.1093 0.0
C829 C 0.9234 0.74288 0.12405 0.0
C830 C 0.77177 0.69916 0.08207 0.0
C831 C 0.8656 0.73653 0.09571 0.0
C832 C 0.73909 0.68044 0.06826 0.0
C833 C 0.7651 0.68886 0.05328 0.0
C834 C 0.8311 0.72534 0.08098 0.0
C835 C 0.82455 0.71901 0.05249 0.0
C836 C 0.92334 0.75272 0.09512 0.0
C837 C 0.86656 0.72981 0.12411 0.0
N838 N 0.85571 0.73531 0.06621 0.0
N839 N 0.83954 0.72635 0.1102 0.0
H840 H 0.15057 0.89405 0.47776 0.0
H841 H 0.16161 0.87832 0.57252 0.0
H842 H 0.03799 0.74074 0.5035 0.0
H843 H 0.31273 0.94927 0.54346 0.0
H844 H 0.10391 0.85022 0.54799 0.0
H845 H 0.19877 0.93694 0.50293 0.0
C846 C 0.13486 0.86979 0.48869 0.0
C847 C 0.08917 0.81377 0.4884 0.0
C848 C 0.14974 0.87289 0.54708 0.0
C849 C 0.14381 0.86324 0.51721 0.0
C850 C 0.18256 0.88918 0.56098 0.0
C851 C 0.24184 0.91592 0.55992 0.0
C852 C 0.17666 0.88505 0.53211 0.0
C853 C 0.26708 0.92847 0.54473 0.0
C854 C 0.16247 0.89441 0.50301 0.0
C855 C 0.07117 0.78453 0.50302 0.0
N856 N 0.23434 0.91304 0.53138 0.0
N857 N 0.09858 0.80962 0.51683 0.0
H858 H 0.25782 0.15044 0.73784 0.0
H859 H 0.28374 0.15726 0.64241 0.0
H860 H 0.36331 0.30077 0.71018 0.0
H861 H 0.22884 0.00443 0.66979 0.0
H862 H 0.29313 0.2087 0.66713 0.0
H863 H 0.2277 0.09511 0.71289 0.0
C864 C 0.27369 0.17193 0.72652 0.0
C865 C 0.31337 0.23015 0.72604 0.0
C866 C 0.27892 0.16387 0.66775 0.0
C867 C 0.27926 0.16753 0.69766 0.0
C868 C 0.27334 0.13438 0.65363 0.0
C869 C 0.2569 0.07674 0.65406 0.0
C870 C 0.26737 0.1355 0.68246 0.0
C871 C 0.24351 0.04925 0.66895 0.0
C872 C 0.25688 0.14034 0.71234 0.0
C873 C 0.33303 0.25589 0.71109 0.0
N874 N 0.24935 0.07897 0.68261 0.0
N875 N 0.3159 0.22444 0.69752 0.0
H876 H 0.11979 0.27262 0.80949 0.0
H877 H 0.08828 0.23773 0.90449 0.0
H878 H 0.21024 0.20958 0.83699 0.0
H879 H 0.06231 0.35783 0.87766 0.0
H880 H 0.11448 0.20863 0.8795 0.0
H881 H 0.07912 0.28482 0.83416 0.0
C882 C 0.13082 0.26096 0.82073 0.0
C883 C 0.16941 0.24118 0.82122 0.0
C884 C 0.10247 0.24093 0.87914 0.0
C885 C 0.12267 0.25477 0.84953 0.0
C886 C 0.08715 0.25723 0.89332 0.0
C887 C 0.07343 0.30046 0.89312 0.0
C888 C 0.10289 0.26734 0.86469 0.0
C889 C 0.07305 0.32467 0.87837 0.0
C890 C 0.10776 0.26817 0.8348 0.0
C891 C 0.18191 0.22646 0.83612 0.0
N892 N 0.08756 0.30779 0.86477 0.0
N893 N 0.15872 0.23372 0.84974 0.0
H894 H 0.82896 0.09614 0.97582 0.0
H895 H 0.83756 0.07355 0.07108 0.0
H896 H 0.98376 0.18825 0.00281 0.0
H897 H 0.68873 0.03957 0.04427 0.0
H898 H 0.89165 0.09662 0.0459 0.0
H899 H 0.77736 0.05536 0.00066 0.0
C900 C 0.85222 0.10751 0.98698 0.0
C901 C 0.91053 0.14679 0.98728 0.0
C902 C 0.84698 0.08343 0.04558 0.0
C903 C 0.85165 0.09998 0.01579 0.0
C904 C 0.81607 0.06989 0.05989 0.0
C905 C 0.75873 0.05502 0.05973 0.0
C906 C 0.81992 0.081 0.03107 0.0
C907 C 0.73299 0.05134 0.04493 0.0
C908 C 0.82267 0.08437 0.00116 0.0
C909 C 0.93851 0.15957 0.00208 0.0
N910 N 0.76374 0.06432 0.03123 0.0
N911 N 0.90874 0.13646 0.01579 0.0
H912 H 0.78489 0.85365 0.14604 0.0
H913 H 0.73751 0.82925 0.23976 0.0
H914 H 0.71533 0.9453 0.17029 0.0
H915 H 0.66132 0.67896 0.21045 0.0
H916 H 0.76881 0.88751 0.21536 0.0
H917 H 0.77663 0.80314 0.17106 0.0
C918 C 0.7695 0.86454 0.15664 0.0
C919 C 0.75254 0.90548 0.156 0.0
C920 C 0.74631 0.84174 0.21437 0.0
C921 C 0.74432 0.84864 0.18462 0.0
C922 C 0.72878 0.8086 0.22821 0.0
C923 C 0.69672 0.74939 0.22702 0.0
C924 C 0.73313 0.81526 0.19937 0.0
C925 C 0.68577 0.72455 0.21179 0.0
C926 C 0.76489 0.83567 0.17086 0.0
C927 C 0.73204 0.91688 0.17016 0.0
N928 N 0.70404 0.75766 0.1985 0.0
N929 N 0.72877 0.88881 0.18388 0.0
H930 H 0.79182 0.76792 0.33733 0.0
H931 H 0.98083 0.65352 0.37597 0.0
H932 H 0.89925 0.72379 0.31029 0.0
H933 H 0.90347 0.72856 0.4044 0.0
H934 H 0.95742 0.68724 0.35183 0.0
H935 H 0.83591 0.76045 0.36201 0.0
C936 C 0.82431 0.75631 0.33655 0.0
C937 C 0.84043 0.74453 0.32172 0.0
C938 C 0.94627 0.69734 0.36331 0.0
C939 C 0.89211 0.73747 0.34987 0.0
C940 C 0.95984 0.6782 0.3771 0.0
C941 C 0.94392 0.68825 0.39214 0.0
C942 C 0.91518 0.72557 0.3645 0.0
C943 C 0.91671 0.72031 0.39298 0.0
C944 C 0.85005 0.75285 0.35065 0.0
C945 C 0.88482 0.73248 0.32144 0.0
N946 N 0.90215 0.73698 0.3793 0.0
N947 N 0.90849 0.72855 0.33528 0.0
loop_
_geom_bond_atom_site_label_1
_geom_bond_atom_site_label_2
_geom_bond_distance
_geom_bond_site_symmetry_2
_ccdc_geom_bond_type
Co0 O3 1.970 . S
Co0 N17 1.989 . S
Co0 O25 1.967 . S
Co0 O32 1.920 . S
Co1 O4 1.966 . S
Co1 N10 2.022 . S
Co1 N18 1.993 . S
Co1 O26 1.941 . S
C2 O3 1.258 . S
C2 O4 1.263 . S
O3 Co0 1.970 . S
O3 C2 1.258 . S
O4 Co1 1.966 . S
O4 C2 1.263 . S
C5 O6 1.235 . S
C5 O32 1.289 . S
O6 C5 1.235 . S
C7 C9 1.400 . S
C7 N10 1.351 . S
C7 C12 1.501 . S
C8 C9 1.387 1_565 S
C8 N11 1.341 1_565 S
C9 C7 1.400 . S
C9 C8 1.387 1_545 S
N10 Co1 2.022 . S
N10 C7 1.351 . S
N10 N11 1.365 . S
N11 C8 1.341 1_545 S
N11 N10 1.365 . S
N11 H31 0.862 1_545 S
C12 C7 1.501 . S
C12 H13 0.961 . S
C12 H14 0.961 . S
C12 H15 0.960 . S
H13 C12 0.961 . S
H14 C12 0.961 . S
H15 C12 0.960 . S
C16 N17 1.342 . S
C16 C20 1.401 . S
C16 C21 1.499 . S
N17 Co0 1.989 . S
N17 C16 1.342 . S
N17 N18 1.388 . S
N18 Co1 1.993 . S
N18 N17 1.388 . S
N18 C19 1.346 . S
C19 N18 1.346 . S
C19 C20 1.396 . S
C19 C29 1.510 . S
C20 C16 1.401 . S
C20 C19 1.396 . S
C21 C16 1.499 . S
C21 H22 0.959 . S
C21 H23 0.960 . S
C21 H24 0.961 . S
H22 C21 0.959 . S
H23 C21 0.960 . S
H24 C21 0.961 . S
O25 Co0 1.967 . S
O25 C33 1.258 . S
O26 Co1 1.941 . S
O26 C33 1.266 . S
H27 C29 0.959 1_565 S
H28 C29 0.961 . S
C29 C19 1.510 . S
C29 H27 0.959 1_545 S
C29 H28 0.961 . S
C29 H30 0.960 . S
H30 C29 0.960 . S
H31 N11 0.862 1_565 S
O32 Co0 1.920 . S
O32 C5 1.289 . S
C33 O25 1.258 . S
C33 O26 1.266 . S
Co34 O37 1.970 . S
Co34 N51 1.989 . S
Co34 O59 1.967 . S
Co34 O66 1.920 . S
Co35 O38 1.966 . S
Co35 N44 2.022 . S
Co35 N52 1.993 . S
Co35 O60 1.941 . S
C36 O37 1.258 . S
C36 O38 1.263 . S
O37 Co34 1.970 . S
O37 C36 1.258 . S
O38 Co35 1.966 . S
O38 C36 1.263 . S
C39 O40 1.235 . S
C39 O66 1.289 . S
O40 C39 1.235 . S
C41 C43 1.400 . S
C41 N44 1.351 . S
C41 C46 1.501 . S
C42 C43 1.387 . S
C42 N45 1.341 . S
C43 C41 1.400 . S
C43 C42 1.387 . S
N44 Co35 2.022 . S
N44 C41 1.351 . S
N44 N45 1.365 . S
N45 C42 1.341 . S
N45 N44 1.365 . S
N45 H65 0.862 . S
C46 C41 1.501 . S
C46 H47 0.961 . S
C46 H48 0.961 . S
C46 H49 0.960 . S
H47 C46 0.961 . S
H48 C46 0.961 . S
H49 C46 0.960 . S
C50 N51 1.342 . S
C50 C54 1.401 . S
C50 C55 1.499 . S
N51 Co34 1.989 . S
N51 C50 1.342 . S
N51 N52 1.388 . S
N52 Co35 1.993 . S
N52 N51 1.388 . S
N52 C53 1.346 . S
C53 N52 1.346 . S
C53 C54 1.396 . S
C53 C63 1.510 . S
C54 C50 1.401 . S
C54 C53 1.396 . S
C55 C50 1.499 . S
C55 H56 0.959 . S
C55 H57 0.960 . S
C55 H58 0.961 . S
H56 C55 0.959 . S
H57 C55 0.960 . S
H58 C55 0.961 . S
O59 Co34 1.967 . S
O59 C67 1.258 . S
O60 Co35 1.941 . S
O60 C67 1.266 . S
H61 C63 0.959 . S
H62 C63 0.961 . S
C63 C53 1.510 . S
C63 H61 0.959 . S
C63 H62 0.961 . S
C63 H64 0.960 . S
H64 C63 0.960 . S
H65 N45 0.862 . S
O66 Co34 1.920 . S
O66 C39 1.289 . S
C67 O59 1.258 . S
C67 O60 1.266 . S
Co68 O71 1.970 . S
Co68 N85 1.989 . S
Co68 O93 1.967 . S
Co68 O100 1.920 . S
Co69 O72 1.966 . S
Co69 N78 2.022 . S
Co69 N86 1.993 . S
Co69 O94 1.941 . S
C70 O71 1.258 . S
C70 O72 1.263 . S
O71 Co68 1.970 . S
O71 C70 1.258 . S
O72 Co69 1.966 . S
O72 C70 1.263 . S
C73 O74 1.235 . S
C73 O100 1.289 . S
O74 C73 1.235 . S
C75 C77 1.400 . S
C75 N78 1.351 . S
C75 C80 1.501 . S
C76 C77 1.387 1_455 S
C76 N79 1.341 1_455 S
C77 C75 1.400 . S
C77 C76 1.387 1_655 S
N78 Co69 2.022 . S
N78 C75 1.351 . S
N78 N79 1.365 . S
N79 C76 1.341 1_655 S
N79 N78 1.365 . S
N79 H99 0.862 . S
C80 C75 1.501 . S
C80 H81 0.961 . S
C80 H82 0.961 . S
C80 H83 0.960 . S
H81 C80 0.961 . S
H82 C80 0.961 . S
H83 C80 0.960 . S
C84 N85 1.342 . S
C84 C88 1.401 . S
C84 C89 1.499 . S
N85 Co68 1.989 . S
N85 C84 1.342 . S
N85 N86 1.388 . S
N86 Co69 1.993 . S
N86 N85 1.388 . S
N86 C87 1.346 . S
C87 N86 1.346 . S
C87 C88 1.396 . S
C87 C97 1.510 . S
C88 C84 1.401 . S
C88 C87 1.396 . S
C89 C84 1.499 . S
C89 H90 0.959 . S
C89 H91 0.960 . S
C89 H92 0.961 . S
H90 C89 0.959 . S
H91 C89 0.960 . S
H92 C89 0.961 . S
O93 Co68 1.967 . S
O93 C101 1.258 . S
O94 Co69 1.941 . S
O94 C101 1.266 . S
H95 C97 0.959 1_455 S
H96 C97 0.961 . S
C97 C87 1.510 . S
C97 H95 0.959 1_655 S
C97 H96 0.961 . S
C97 H98 0.960 . S
H98 C97 0.960 . S
H99 N79 0.862 . S
O100 Co68 1.920 . S
O100 C73 1.289 . S
C101 O93 1.258 . S
C101 O94 1.266 . S
Co102 O105 1.970 . S
Co102 N119 1.989 . S
Co102 O127 1.967 . S
Co102 O134 1.920 . S
Co103 O106 1.966 . S
Co103 N112 2.022 . S
Co103 N120 1.993 . S
Co103 O128 1.941 . S
C104 O105 1.258 . S
C104 O106 1.263 . S
O105 Co102 1.970 . S
O105 C104 1.258 . S
O106 Co103 1.966 . S
O106 C104 1.263 . S
C107 O108 1.235 . S
C107 O134 1.289 . S
O108 C107 1.235 . S
C109 C111 1.400 . S
C109 N112 1.351 . S
C109 C114 1.501 . S
C110 C111 1.387 . S
C110 N113 1.341 . S
C111 C109 1.400 . S
C111 C110 1.387 . S
N112 Co103 2.022 . S
N112 C109 1.351 . S
N112 N113 1.365 . S
N113 C110 1.341 . S
N113 N112 1.365 . S
N113 H133 0.862 . S
C114 C109 1.501 . S
C114 H115 0.961 . S
C114 H116 0.961 . S
C114 H117 0.960 . S
H115 C114 0.961 . S
H116 C114 0.961 . S
H117 C114 0.960 . S
C118 N119 1.342 . S
C118 C122 1.401 . S
C118 C123 1.499 . S
N119 Co102 1.989 . S
N119 C118 1.342 . S
N119 N120 1.388 . S
N120 Co103 1.993 . S
N120 N119 1.388 . S
N120 C121 1.346 . S
C121 N120 1.346 . S
C121 C122 1.396 . S
C121 C131 1.510 . S
C122 C118 1.401 . S
C122 C121 1.396 . S
C123 C118 1.499 . S
C123 H124 0.959 . S
C123 H125 0.960 . S
C123 H126 0.961 . S
H124 C123 0.959 . S
H125 C123 0.960 . S
H126 C123 0.961 . S
O127 Co102 1.967 . S
O127 C135 1.258 . S
O128 Co103 1.941 . S
O128 C135 1.266 . S
H129 C131 0.959 1_545 S
H130 C131 0.961 . S
C131 C121 1.510 . S
C131 H129 0.959 1_565 S
C131 H130 0.961 . S
C131 H132 0.960 . S
H132 C131 0.960 . S
H133 N113 0.862 . S
O134 Co102 1.920 . S
O134 C107 1.289 . S
C135 O127 1.258 . S
C135 O128 1.266 . S
Co136 O139 1.970 . S
Co136 N153 1.989 . S
Co136 O161 1.967 . S
Co136 O168 1.920 . S
Co137 O140 1.966 . S
Co137 N146 2.022 . S
Co137 N154 1.993 . S
Co137 O162 1.941 1_556 S
C138 O139 1.258 1_556 S
C138 O140 1.263 . S
O139 Co136 1.970 . S
O139 C138 1.258 1_554 S
O140 Co137 1.966 . S
O140 C138 1.263 . S
C141 O142 1.235 . S
C141 O168 1.289 . S
O142 C141 1.235 . S
C143 C145 1.400 . S
C143 N146 1.351 . S
C143 C148 1.501 . S
C144 C145 1.387 . S
C144 N147 1.341 . S
C145 C143 1.400 . S
C145 C144 1.387 . S
N146 Co137 2.022 . S
N146 C143 1.351 . S
N146 N147 1.365 . S
N147 C144 1.341 . S
N147 N146 1.365 . S
N147 H167 0.862 . S
C148 C143 1.501 . S
C148 H149 0.961 . S
C148 H150 0.961 . S
C148 H151 0.960 . S
H149 C148 0.961 . S
H150 C148 0.961 . S
H151 C148 0.960 . S
C152 N153 1.342 . S
C152 C156 1.401 . S
C152 C157 1.499 . S
N153 Co136 1.989 . S
N153 C152 1.342 . S
N153 N154 1.388 1_554 S
N154 Co137 1.993 . S
N154 N153 1.388 1_556 S
N154 C155 1.346 . S
C155 N154 1.346 . S
C155 C156 1.396 1_556 S
C155 C165 1.510 . S
C156 C152 1.401 . S
C156 C155 1.396 1_554 S
C157 C152 1.499 . S
C157 H158 0.959 . S
C157 H159 0.960 . S
C157 H160 0.961 . S
H158 C157 0.959 . S
H159 C157 0.960 . S
H160 C157 0.961 . S
O161 Co136 1.967 . S
O161 C169 1.258 . S
O162 Co137 1.941 1_554 S
O162 C169 1.266 . S
H163 C165 0.959 . S
H164 C165 0.961 . S
C165 C155 1.510 . S
C165 H163 0.959 . S
C165 H164 0.961 . S
C165 H166 0.960 . S
H166 C165 0.960 . S
H167 N147 0.862 . S
O168 Co136 1.920 . S
O168 C141 1.289 . S
C169 O161 1.258 . S
C169 O162 1.266 . S
Co170 O173 1.970 . S
Co170 N187 1.989 . S
Co170 O195 1.967 . S
Co170 O202 1.920 . S
Co171 O174 1.966 . S
Co171 N180 2.022 . S
Co171 N188 1.993 . S
Co171 O196 1.941 . S
C172 O173 1.258 . S
C172 O174 1.263 . S
O173 Co170 1.970 . S
O173 C172 1.258 . S
O174 Co171 1.966 . S
O174 C172 1.263 . S
C175 O176 1.235 . S
C175 O202 1.289 . S
O176 C175 1.235 . S
C177 C179 1.400 . S
C177 N180 1.351 . S
C177 C182 1.501 . S
C178 C179 1.387 . S
C178 N181 1.341 . S
C179 C177 1.400 . S
C179 C178 1.387 . S
N180 Co171 2.022 . S
N180 C177 1.351 . S
N180 N181 1.365 . S
N181 C178 1.341 . S
N181 N180 1.365 . S
N181 H201 0.862 . S
C182 C177 1.501 . S
C182 H183 0.961 . S
C182 H184 0.961 . S
C182 H185 0.960 . S
H183 C182 0.961 . S
H184 C182 0.961 . S
H185 C182 0.960 . S
C186 N187 1.342 . S
C186 C190 1.401 . S
C186 C191 1.499 . S
N187 Co170 1.989 . S
N187 C186 1.342 . S
N187 N188 1.388 . S
N188 Co171 1.993 . S
N188 N187 1.388 . S
N188 C189 1.346 . S
C189 N188 1.346 . S
C189 C190 1.396 . S
C189 C199 1.510 . S
C190 C186 1.401 . S
C190 C189 1.396 . S
C191 C186 1.499 . S
C191 H192 0.959 . S
C191 H193 0.960 . S
C191 H194 0.961 . S
H192 C191 0.959 . S
H193 C191 0.960 . S
H194 C191 0.961 . S
O195 Co170 1.967 . S
O195 C203 1.258 . S
O196 Co171 1.941 . S
O196 C203 1.266 . S
H197 C199 0.959 1_655 S
H198 C199 0.961 . S
C199 C189 1.510 . S
C199 H197 0.959 1_455 S
C199 H198 0.961 . S
C199 H200 0.960 . S
H200 C199 0.960 . S
H201 N181 0.862 . S
O202 Co170 1.920 . S
O202 C175 1.289 . S
C203 O195 1.258 . S
C203 O196 1.266 . S
Co204 O207 1.970 . S
Co204 N221 1.989 . S
Co204 O229 1.967 . S
Co204 O236 1.920 . S
Co205 O208 1.966 . S
Co205 N214 2.022 . S
Co205 N222 1.993 . S
Co205 O230 1.941 . S
C206 O207 1.258 . S
C206 O208 1.263 . S
O207 Co204 1.970 . S
O207 C206 1.258 . S
O208 Co205 1.966 . S
O208 C206 1.263 . S
C209 O210 1.235 . S
C209 O236 1.289 . S
O210 C209 1.235 . S
C211 C213 1.400 . S
C211 N214 1.351 . S
C211 C216 1.501 . S
C212 C213 1.387 1_455 S
C212 N215 1.341 1_455 S
C213 C211 1.400 . S
C213 C212 1.387 1_655 S
N214 Co205 2.022 . S
N214 C211 1.351 . S
N214 N215 1.365 . S
N215 C212 1.341 1_655 S
N215 N214 1.365 . S
N215 H235 0.862 . S
C216 C211 1.501 . S
C216 H217 0.961 . S
C216 H218 0.961 . S
C216 H219 0.960 . S
H217 C216 0.961 . S
H218 C216 0.961 . S
H219 C216 0.960 . S
C220 N221 1.342 . S
C220 C224 1.401 . S
C220 C225 1.499 . S
N221 Co204 1.989 . S
N221 C220 1.342 . S
N221 N222 1.388 . S
N222 Co205 1.993 . S
N222 N221 1.388 . S
N222 C223 1.346 . S
C223 N222 1.346 . S
C223 C224 1.396 . S
C223 C233 1.510 . S
C224 C220 1.401 . S
C224 C223 1.396 . S
C225 C220 1.499 . S
C225 H226 0.959 . S
C225 H227 0.960 . S
C225 H228 0.961 . S
H226 C225 0.959 . S
H227 C225 0.960 . S
H228 C225 0.961 . S
O229 Co204 1.967 . S
O229 C237 1.258 . S
O230 Co205 1.941 . S
O230 C237 1.266 . S
H231 C233 0.959 1_455 S
H232 C233 0.961 . S
C233 C223 1.510 . S
C233 H231 0.959 1_655 S
C233 H232 0.961 . S
C233 H234 0.960 . S
H234 C233 0.960 . S
H235 N215 0.862 . S
O236 Co204 1.920 . S
O236 C209 1.289 . S
C237 O229 1.258 . S
C237 O230 1.266 . S
Co238 O241 1.970 . S
Co238 N255 1.989 . S
Co238 O263 1.967 . S
Co238 O270 1.920 . S
Co239 O242 1.966 . S
Co239 N248 2.022 . S
Co239 N256 1.993 . S
Co239 O264 1.941 . S
C240 O241 1.258 . S
C240 O242 1.263 . S
O241 Co238 1.970 . S
O241 C240 1.258 . S
O242 Co239 1.966 . S
O242 C240 1.263 . S
C243 O244 1.235 . S
C243 O270 1.289 . S
O244 C243 1.235 . S
C245 C247 1.400 . S
C245 N248 1.351 . S
C245 C250 1.501 . S
C246 C247 1.387 . S
C246 N249 1.341 . S
C247 C245 1.400 . S
C247 C246 1.387 . S
N248 Co239 2.022 . S
N248 C245 1.351 . S
N248 N249 1.365 . S
N249 C246 1.341 . S
N249 N248 1.365 . S
N249 H269 0.862 . S
C250 C245 1.501 . S
C250 H251 0.961 . S
C250 H252 0.961 . S
C250 H253 0.960 . S
H251 C250 0.961 . S
H252 C250 0.961 . S
H253 C250 0.960 . S
C254 N255 1.342 . S
C254 C258 1.401 . S
C254 C259 1.499 . S
N255 Co238 1.989 . S
N255 C254 1.342 . S
N255 N256 1.388 . S
N256 Co239 1.993 . S
N256 N255 1.388 . S
N256 C257 1.346 . S
C257 N256 1.346 . S
C257 C258 1.396 . S
C257 C267 1.510 . S
C258 C254 1.401 . S
C258 C257 1.396 . S
C259 C254 1.499 . S
C259 H260 0.959 . S
C259 H261 0.960 . S
C259 H262 0.961 . S
H260 C259 0.959 . S
H261 C259 0.960 . S
H262 C259 0.961 . S
O263 Co238 1.967 . S
O263 C271 1.258 . S
O264 Co239 1.941 . S
O264 C271 1.266 . S
H265 C267 0.959 1_545 S
H266 C267 0.961 . S
C267 C257 1.510 . S
C267 H265 0.959 1_565 S
C267 H266 0.961 . S
C267 H268 0.960 . S
H268 C267 0.960 . S
H269 N249 0.862 . S
O270 Co238 1.920 . S
O270 C243 1.289 . S
C271 O263 1.258 . S
C271 O264 1.266 . S
Co272 O275 1.970 . S
Co272 N289 1.989 . S
Co272 O297 1.967 . S
Co272 O304 1.920 . S
Co273 O276 1.966 . S
Co273 N282 2.022 . S
Co273 N290 1.993 . S
Co273 O298 1.941 . S
C274 O275 1.258 . S
C274 O276 1.263 . S
O275 Co272 1.970 . S
O275 C274 1.258 . S
O276 Co273 1.966 . S
O276 C274 1.263 . S
C277 O278 1.235 . S
C277 O304 1.289 . S
O278 C277 1.235 . S
C279 C281 1.400 . S
C279 N282 1.351 . S
C279 C284 1.501 . S
C280 C281 1.387 . S
C280 N283 1.341 . S
C281 C279 1.400 . S
C281 C280 1.387 . S
N282 Co273 2.022 . S
N282 C279 1.351 . S
N282 N283 1.365 . S
N283 C280 1.341 . S
N283 N282 1.365 . S
N283 H303 0.862 . S
C284 C279 1.501 . S
C284 H285 0.961 . S
C284 H286 0.961 . S
C284 H287 0.960 . S
H285 C284 0.961 . S
H286 C284 0.961 . S
H287 C284 0.960 . S
C288 N289 1.342 . S
C288 C292 1.401 . S
C288 C293 1.499 . S
N289 Co272 1.989 . S
N289 C288 1.342 . S
N289 N290 1.388 . S
N290 Co273 1.993 . S
N290 N289 1.388 . S
N290 C291 1.346 . S
C291 N290 1.346 . S
C291 C292 1.396 . S
C291 C301 1.510 . S
C292 C288 1.401 . S
C292 C291 1.396 . S
C293 C288 1.499 . S
C293 H294 0.959 . S
C293 H295 0.960 . S
C293 H296 0.961 . S
H294 C293 0.959 . S
H295 C293 0.960 . S
H296 C293 0.961 . S
O297 Co272 1.967 . S
O297 C305 1.258 . S
O298 Co273 1.941 . S
O298 C305 1.266 . S
H299 C301 0.959 . S
H300 C301 0.961 . S
C301 C291 1.510 . S
C301 H299 0.959 . S
C301 H300 0.961 . S
C301 H302 0.960 . S
H302 C301 0.960 . S
H303 N283 0.862 . S
O304 Co272 1.920 . S
O304 C277 1.289 . S
C305 O297 1.258 . S
C305 O298 1.266 . S
Co306 O309 1.970 . S
Co306 N323 1.989 . S
Co306 O331 1.967 . S
Co306 O338 1.920 . S
Co307 O310 1.966 . S
Co307 N316 2.022 . S
Co307 N324 1.993 . S
Co307 O332 1.941 . S
C308 O309 1.258 . S
C308 O310 1.263 . S
O309 Co306 1.970 . S
O309 C308 1.258 . S
O310 Co307 1.966 . S
O310 C308 1.263 . S
C311 O312 1.235 . S
C311 O338 1.289 . S
O312 C311 1.235 . S
C313 C315 1.400 . S
C313 N316 1.351 1_554 S
C313 C318 1.501 . S
C314 C315 1.387 . S
C314 N317 1.341 1_554 S
C315 C313 1.400 . S
C315 C314 1.387 . S
N316 Co307 2.022 . S
N316 C313 1.351 1_556 S
N316 N317 1.365 . S
N317 C314 1.341 1_556 S
N317 N316 1.365 . S
N317 H337 0.862 . S
C318 C313 1.501 . S
C318 H319 0.961 . S
C318 H320 0.961 . S
C318 H321 0.960 . S
H319 C318 0.961 . S
H320 C318 0.961 . S
H321 C318 0.960 . S
C322 N323 1.342 . S
C322 C326 1.401 . S
C322 C327 1.499 . S
N323 Co306 1.989 . S
N323 C322 1.342 . S
N323 N324 1.388 . S
N324 Co307 1.993 . S
N324 N323 1.388 . S
N324 C325 1.346 . S
C325 N324 1.346 . S
C325 C326 1.396 . S
C325 C335 1.510 . S
C326 C322 1.401 . S
C326 C325 1.396 . S
C327 C322 1.499 . S
C327 H328 0.959 . S
C327 H329 0.960 . S
C327 H330 0.961 . S
H328 C327 0.959 . S
H329 C327 0.960 . S
H330 C327 0.961 . S
O331 Co306 1.967 . S
O331 C339 1.258 . S
O332 Co307 1.941 . S
O332 C339 1.266 . S
H333 C335 0.959 1_655 S
H334 C335 0.961 . S
C335 C325 1.510 . S
C335 H333 0.959 1_455 S
C335 H334 0.961 . S
C335 H336 0.960 . S
H336 C335 0.960 . S
H337 N317 0.862 . S
O338 Co306 1.920 . S
O338 C311 1.289 . S
C339 O331 1.258 . S
C339 O332 1.266 . S
Co340 O343 1.970 . S
Co340 N357 1.989 . S
Co340 O365 1.967 . S
Co340 O372 1.920 . S
Co341 O344 1.966 . S
Co341 N350 2.022 . S
Co341 N358 1.993 . S
Co341 O366 1.941 . S
C342 O343 1.258 . S
C342 O344 1.263 . S
O343 Co340 1.970 . S
O343 C342 1.258 . S
O344 Co341 1.966 . S
O344 C342 1.263 . S
C345 O346 1.235 . S
C345 O372 1.289 . S
O346 C345 1.235 . S
C347 C349 1.400 . S
C347 N350 1.351 . S
C347 C352 1.501 . S
C348 C349 1.387 1_565 S
C348 N351 1.341 1_565 S
C349 C347 1.400 . S
C349 C348 1.387 1_545 S
N350 Co341 2.022 . S
N350 C347 1.351 . S
N350 N351 1.365 . S
N351 C348 1.341 1_545 S
N351 N350 1.365 . S
N351 H371 0.862 1_545 S
C352 C347 1.501 . S
C352 H353 0.961 . S
C352 H354 0.961 . S
C352 H355 0.960 . S
H353 C352 0.961 . S
H354 C352 0.961 . S
H355 C352 0.960 . S
C356 N357 1.342 . S
C356 C360 1.401 . S
C356 C361 1.499 . S
N357 Co340 1.989 . S
N357 C356 1.342 . S
N357 N358 1.388 . S
N358 Co341 1.993 . S
N358 N357 1.388 . S
N358 C359 1.346 . S
C359 N358 1.346 . S
C359 C360 1.396 . S
C359 C369 1.510 . S
C360 C356 1.401 . S
C360 C359 1.396 . S
C361 C356 1.499 . S
C361 H362 0.959 . S
C361 H363 0.960 . S
C361 H364 0.961 . S
H362 C361 0.959 . S
H363 C361 0.960 . S
H364 C361 0.961 . S
O365 Co340 1.967 . S
O365 C373 1.258 . S
O366 Co341 1.941 . S
O366 C373 1.266 . S
H367 C369 0.959 1_565 S
H368 C369 0.961 . S
C369 C359 1.510 . S
C369 H367 0.959 1_545 S
C369 H368 0.961 . S
C369 H370 0.960 . S
H370 C369 0.960 . S
H371 N351 0.862 1_565 S
O372 Co340 1.920 . S
O372 C345 1.289 . S
C373 O365 1.258 . S
C373 O366 1.266 . S
Co374 O377 1.970 . S
Co374 N391 1.989 . S
Co374 O399 1.967 . S
Co374 O406 1.920 . S
Co375 O378 1.966 . S
Co375 N384 2.022 . S
Co375 N392 1.993 . S
Co375 O400 1.941 . S
C376 O377 1.258 . S
C376 O378 1.263 . S
O377 Co374 1.970 . S
O377 C376 1.258 . S
O378 Co375 1.966 . S
O378 C376 1.263 . S
C379 O380 1.235 . S
C379 O406 1.289 . S
O380 C379 1.235 . S
C381 C383 1.400 . S
C381 N384 1.351 . S
C381 C386 1.501 . S
C382 C383 1.387 . S
C382 N385 1.341 . S
C383 C381 1.400 . S
C383 C382 1.387 . S
N384 Co375 2.022 . S
N384 C381 1.351 . S
N384 N385 1.365 . S
N385 C382 1.341 . S
N385 N384 1.365 . S
N385 H405 0.862 . S
C386 C381 1.501 . S
C386 H387 0.961 . S
C386 H388 0.961 . S
C386 H389 0.960 . S
H387 C386 0.961 . S
H388 C386 0.961 . S
H389 C386 0.960 . S
C390 N391 1.342 . S
C390 C394 1.401 . S
C390 C395 1.499 . S
N391 Co374 1.989 . S
N391 C390 1.342 . S
N391 N392 1.388 . S
N392 Co375 1.993 . S
N392 N391 1.388 . S
N392 C393 1.346 . S
C393 N392 1.346 . S
C393 C394 1.396 . S
C393 C403 1.510 . S
C394 C390 1.401 . S
C394 C393 1.396 . S
C395 C390 1.499 . S
C395 H396 0.959 . S
C395 H397 0.960 . S
C395 H398 0.961 . S
H396 C395 0.959 . S
H397 C395 0.960 . S
H398 C395 0.961 . S
O399 Co374 1.967 . S
O399 C407 1.258 . S
O400 Co375 1.941 . S
O400 C407 1.266 . S
H401 C403 0.959 . S
H402 C403 0.961 . S
C403 C393 1.510 . S
C403 H401 0.959 . S
C403 H402 0.961 . S
C403 H404 0.960 . S
H404 C403 0.960 . S
H405 N385 0.862 . S
O406 Co374 1.920 . S
O406 C379 1.289 . S
C407 O399 1.258 . S
C407 O400 1.266 . S
H408 C414 0.930 . S
H409 C418 0.930 . S
H410 C423 0.929 . S
H411 C421 0.929 . S
H412 C416 0.929 . S
H413 C422 0.929 . S
C414 H408 0.930 . S
C414 C415 1.367 . S
C414 C422 1.378 . S
C415 C414 1.367 . S
C415 C423 1.433 1_545 S
C416 H412 0.929 . S
C416 C418 1.378 . S
C416 C420 1.350 . S
C417 C420 1.463 . S
C417 C422 1.350 1_565 S
C417 N425 1.427 . S
C418 H409 0.930 . S
C418 C416 1.378 . S
C418 C419 1.367 . S
C419 C418 1.367 . S
C419 C421 1.433 . S
C420 C416 1.350 . S
C420 C417 1.463 . S
C420 N424 1.427 . S
C421 H411 0.929 . S
C421 C419 1.433 . S
C421 N424 1.384 . S
C422 H413 0.929 . S
C422 C414 1.378 . S
C422 C417 1.350 1_545 S
C423 H410 0.929 . S
C423 C415 1.433 1_565 S
C423 N425 1.384 . S
N424 C420 1.427 . S
N424 C421 1.384 . S
N425 C417 1.427 . S
N425 C423 1.384 . S
H426 C432 0.930 . S
H427 C436 0.930 . S
H428 C441 0.929 . S
H429 C439 0.929 . S
H430 C434 0.929 . S
H431 C440 0.929 . S
C432 H426 0.930 . S
C432 C433 1.367 . S
C432 C440 1.378 . S
C433 C432 1.367 . S
C433 C441 1.433 . S
C434 H430 0.929 . S
C434 C436 1.378 . S
C434 C438 1.350 . S
C435 C438 1.463 . S
C435 C440 1.350 . S
C435 N443 1.427 . S
C436 H427 0.930 . S
C436 C434 1.378 . S
C436 C437 1.367 . S
C437 C436 1.367 . S
C437 C439 1.433 . S
C438 C434 1.350 . S
C438 C435 1.463 . S
C438 N442 1.427 . S
C439 H429 0.929 . S
C439 C437 1.433 . S
C439 N442 1.384 . S
C440 H431 0.929 . S
C440 C432 1.378 . S
C440 C435 1.350 . S
C441 H428 0.929 . S
C441 C433 1.433 . S
C441 N443 1.384 . S
N442 C438 1.427 . S
N442 C439 1.384 . S
N443 C435 1.427 . S
N443 C441 1.384 . S
H444 C450 0.930 . S
H445 C454 0.930 . S
H446 C459 0.929 . S
H447 C457 0.929 . S
H448 C452 0.929 . S
H449 C458 0.929 . S
C450 H444 0.930 . S
C450 C451 1.367 . S
C450 C458 1.378 . S
C451 C450 1.367 . S
C451 C459 1.433 . S
C452 H448 0.929 . S
C452 C454 1.378 . S
C452 C456 1.350 1_655 S
C453 C456 1.463 . S
C453 C458 1.350 . S
C453 N461 1.427 . S
C454 H445 0.930 . S
C454 C452 1.378 . S
C454 C455 1.367 . S
C455 C454 1.367 . S
C455 C457 1.433 1_655 S
C456 C452 1.350 1_455 S
C456 C453 1.463 . S
C456 N460 1.427 . S
C457 H447 0.929 . S
C457 C455 1.433 1_455 S
C457 N460 1.384 . S
C458 H449 0.929 . S
C458 C450 1.378 . S
C458 C453 1.350 . S
C459 H446 0.929 . S
C459 C451 1.433 . S
C459 N461 1.384 . S
N460 C456 1.427 . S
N460 C457 1.384 . S
N461 C453 1.427 . S
N461 C459 1.384 . S
H462 C468 0.930 . S
H463 C472 0.930 . S
H464 C477 0.929 . S
H465 C475 0.929 . S
H466 C470 0.929 . S
H467 C476 0.929 1_565 S
C468 H462 0.930 . S
C468 C469 1.367 . S
C468 C476 1.378 . S
C469 C468 1.367 . S
C469 C477 1.433 . S
C470 H466 0.929 . S
C470 C472 1.378 . S
C470 C474 1.350 . S
C471 C474 1.463 . S
C471 C476 1.350 . S
C471 N479 1.427 . S
C472 H463 0.930 . S
C472 C470 1.378 . S
C472 C473 1.367 1_545 S
C473 C472 1.367 1_565 S
C473 C475 1.433 . S
C474 C470 1.350 . S
C474 C471 1.463 . S
C474 N478 1.427 1_545 S
C475 H465 0.929 . S
C475 C473 1.433 . S
C475 N478 1.384 . S
C476 H467 0.929 1_545 S
C476 C468 1.378 . S
C476 C471 1.350 . S
C477 H464 0.929 . S
C477 C469 1.433 . S
C477 N479 1.384 . S
N478 C474 1.427 1_565 S
N478 C475 1.384 . S
N479 C471 1.427 . S
N479 C477 1.384 . S
H480 C486 0.930 . S
H481 C490 0.930 . S
H482 C495 0.929 . S
H483 C493 0.946 . S
H484 C488 0.929 . S
H485 C494 0.929 . S
C486 H480 0.930 . S
C486 C487 1.364 1_554 S
C486 C494 1.378 . S
C487 C486 1.364 1_556 S
C487 C495 1.437 . S
C488 H484 0.929 . S
C488 C490 1.378 . S
C488 C492 1.350 . S
C489 C492 1.463 . S
C489 C494 1.350 1_556 S
C489 N497 1.427 . S
C490 H481 0.930 . S
C490 C488 1.378 . S
C490 C491 1.367 . S
C491 C490 1.367 . S
C491 C493 1.433 . S
C492 C488 1.350 . S
C492 C489 1.463 . S
C492 N496 1.427 . S
C493 H483 0.946 . S
C493 C491 1.433 . S
C493 N496 1.384 . S
C494 H485 0.929 . S
C494 C486 1.378 . S
C494 C489 1.350 1_554 S
C495 H482 0.929 . S
C495 C487 1.437 . S
C495 N497 1.384 . S
N496 C492 1.427 . S
N496 C493 1.384 . S
N497 C489 1.427 . S
N497 C495 1.384 . S
H498 C504 0.930 . S
H499 C508 0.930 . S
H500 C513 0.929 . S
H501 C511 0.929 . S
H502 C506 0.929 . S
H503 C512 0.929 . S
C504 H498 0.930 . S
C504 C505 1.367 . S
C504 C512 1.378 . S
C505 C504 1.367 . S
C505 C513 1.433 1_455 S
C506 H502 0.929 . S
C506 C508 1.378 . S
C506 C510 1.350 . S
C507 C510 1.463 . S
C507 C512 1.350 1_655 S
C507 N515 1.427 . S
C508 H499 0.930 . S
C508 C506 1.378 . S
C508 C509 1.367 . S
C509 C508 1.367 . S
C509 C511 1.433 . S
C510 C506 1.350 . S
C510 C507 1.463 . S
C510 N514 1.427 . S
C511 H501 0.929 . S
C511 C509 1.433 . S
C511 N514 1.384 . S
C512 H503 0.929 . S
C512 C504 1.378 . S
C512 C507 1.350 1_455 S
C513 H500 0.929 . S
C513 C505 1.433 1_655 S
C513 N515 1.384 . S
N514 C510 1.427 . S
N514 C511 1.384 . S
N515 C507 1.427 . S
N515 C513 1.384 . S
H516 C522 0.930 . S
H517 C526 0.930 . S
H518 C531 0.929 . S
H519 C529 0.929 . S
H520 C524 0.929 . S
H521 C530 0.944 . S
C522 H516 0.930 . S
C522 C523 1.367 . S
C522 C530 1.378 . S
C523 C522 1.367 . S
C523 C531 1.433 . S
C524 H520 0.929 . S
C524 C526 1.378 . S
C524 C528 1.350 . S
C525 C528 1.463 . S
C525 C530 1.350 . S
C525 N533 1.427 . S
C526 H517 0.930 . S
C526 C524 1.378 . S
C526 C527 1.367 1_455 S
C527 C526 1.367 1_655 S
C527 C529 1.433 . S
C528 C524 1.350 . S
C528 C525 1.463 . S
C528 N532 1.427 1_455 S
C529 H519 0.929 . S
C529 C527 1.433 . S
C529 N532 1.384 . S
C530 H521 0.944 . S
C530 C522 1.378 . S
C530 C525 1.350 . S
C531 H518 0.929 . S
C531 C523 1.433 . S
C531 N533 1.384 . S
N532 C528 1.427 1_655 S
N532 C529 1.384 . S
N533 C525 1.427 . S
N533 C531 1.384 . S
H534 C540 0.930 . S
H535 C544 0.930 . S
H536 C549 0.929 . S
H537 C547 0.929 . S
H538 C542 0.929 . S
H539 C548 0.929 . S
C540 H534 0.930 . S
C540 C541 1.367 . S
C540 C548 1.378 . S
C541 C540 1.367 . S
C541 C549 1.433 . S
C542 H538 0.929 . S
C542 C544 1.378 . S
C542 C546 1.350 . S
C543 C546 1.463 . S
C543 C548 1.350 1_545 S
C543 N551 1.427 . S
C544 H535 0.930 . S
C544 C542 1.378 . S
C544 C545 1.367 . S
C545 C544 1.367 . S
C545 C547 1.433 . S
C546 C542 1.350 . S
C546 C543 1.463 . S
C546 N550 1.427 . S
C547 H537 0.929 . S
C547 C545 1.433 . S
C547 N550 1.384 . S
C548 H539 0.929 . S
C548 C540 1.378 . S
C548 C543 1.350 1_565 S
C549 H536 0.929 . S
C549 C541 1.433 . S
C549 N551 1.384 1_565 S
N550 C546 1.427 . S
N550 C547 1.384 . S
N551 C543 1.427 . S
N551 C549 1.384 1_545 S
H552 C558 0.930 . S
H553 C562 0.930 . S
H554 C567 0.929 . S
H555 C565 0.929 . S
H556 C560 0.929 . S
H557 C566 0.929 . S
C558 H552 0.930 . S
C558 C559 1.367 . S
C558 C566 1.378 . S
C559 C558 1.367 . S
C559 C567 1.433 . S
C560 H556 0.929 . S
C560 C562 1.378 . S
C560 C564 1.350 . S
C561 C564 1.463 . S
C561 C566 1.350 . S
C561 N569 1.427 . S
C562 H553 0.930 . S
C562 C560 1.378 . S
C562 C563 1.367 . S
C563 C562 1.367 . S
C563 C565 1.433 . S
C564 C560 1.350 . S
C564 C561 1.463 . S
C564 N568 1.427 . S
C565 H555 0.929 . S
C565 C563 1.433 . S
C565 N568 1.384 . S
C566 H557 0.929 . S
C566 C558 1.378 . S
C566 C561 1.350 . S
C567 H554 0.929 . S
C567 C559 1.433 . S
C567 N569 1.384 . S
N568 C564 1.427 . S
N568 C565 1.384 . S
N569 C561 1.427 . S
N569 C567 1.384 . S
H570 C576 0.930 . S
H571 C580 0.930 . S
H572 C585 0.929 . S
H573 C583 0.929 . S
H574 C578 0.929 . S
H575 C584 0.929 . S
C576 H570 0.930 . S
C576 C577 1.367 . S
C576 C584 1.378 . S
C577 C576 1.367 . S
C577 C585 1.433 1_455 S
C578 H574 0.929 . S
C578 C580 1.378 . S
C578 C582 1.350 . S
C579 C582 1.463 . S
C579 C584 1.350 1_655 S
C579 N587 1.427 . S
C580 H571 0.930 . S
C580 C578 1.378 . S
C580 C581 1.367 . S
C581 C580 1.367 . S
C581 C583 1.433 . S
C582 C578 1.350 . S
C582 C579 1.463 . S
C582 N586 1.427 . S
C583 H573 0.929 . S
C583 C581 1.433 . S
C583 N586 1.384 . S
C584 H575 0.929 . S
C584 C576 1.378 . S
C584 C579 1.350 1_455 S
C585 H572 0.929 . S
C585 C577 1.433 1_655 S
C585 N587 1.384 . S
N586 C582 1.427 . S
N586 C583 1.384 . S
N587 C579 1.427 . S
N587 C585 1.384 . S
H588 C594 0.930 . S
H589 C598 0.930 . S
H590 C603 0.929 . S
H591 C601 0.929 . S
H592 C596 0.929 . S
H593 C602 0.929 . S
C594 H588 0.930 . S
C594 C595 1.367 1_565 S
C594 C602 1.378 . S
C595 C594 1.367 1_545 S
C595 C603 1.433 . S
C596 H592 0.929 . S
C596 C598 1.378 . S
C596 C600 1.350 . S
C597 C600 1.463 . S
C597 C602 1.350 . S
C597 N605 1.427 1_565 S
C598 H589 0.930 . S
C598 C596 1.378 . S
C598 C599 1.367 . S
C599 C598 1.367 . S
C599 C601 1.433 . S
C600 C596 1.350 . S
C600 C597 1.463 . S
C600 N604 1.427 . S
C601 H591 0.929 . S
C601 C599 1.433 . S
C601 N604 1.384 . S
C602 H593 0.929 . S
C602 C594 1.378 . S
C602 C597 1.350 . S
C603 H590 0.929 . S
C603 C595 1.433 . S
C603 N605 1.384 . S
N604 C600 1.427 . S
N604 C601 1.384 . S
N605 C597 1.427 1_545 S
N605 C603 1.384 . S
H606 C612 0.930 . S
H607 C616 0.930 . S
H608 C621 0.929 . S
H609 C619 0.929 . S
H610 C614 0.929 . S
H611 C620 0.929 . S
C612 H606 0.930 . S
C612 C613 1.367 . S
C612 C620 1.378 . S
C613 C612 1.367 . S
C613 C621 1.433 . S
C614 H610 0.929 . S
C614 C616 1.378 . S
C614 C618 1.350 . S
C615 C618 1.463 . S
C615 C620 1.350 . S
C615 N623 1.427 . S
C616 H607 0.930 . S
C616 C614 1.378 . S
C616 C617 1.367 . S
C617 C616 1.367 . S
C617 C619 1.433 . S
C618 C614 1.350 . S
C618 C615 1.463 . S
C618 N622 1.427 . S
C619 H609 0.929 . S
C619 C617 1.433 . S
C619 N622 1.384 . S
C620 H611 0.929 . S
C620 C612 1.378 . S
C620 C615 1.350 . S
C621 H608 0.929 . S
C621 C613 1.433 . S
C621 N623 1.384 . S
N622 C618 1.427 . S
N622 C619 1.384 . S
N623 C615 1.427 . S
N623 C621 1.384 . S
H624 C630 0.930 . S
H625 C634 0.930 . S
H626 C639 0.929 . S
H627 C637 0.929 . S
H628 C632 0.929 . S
H629 C638 0.929 . S
C630 H624 0.930 . S
C630 C631 1.367 . S
C630 C638 1.378 . S
C631 C630 1.367 . S
C631 C639 1.433 . S
C632 H628 0.929 . S
C632 C634 1.378 . S
C632 C636 1.350 . S
C633 C636 1.463 . S
C633 C638 1.350 . S
C633 N641 1.427 . S
C634 H625 0.930 . S
C634 C632 1.378 . S
C634 C635 1.367 . S
C635 C634 1.367 . S
C635 C637 1.433 . S
C636 C632 1.350 . S
C636 C633 1.463 . S
C636 N640 1.427 . S
C637 H627 0.929 . S
C637 C635 1.433 . S
C637 N640 1.384 . S
C638 H629 0.929 . S
C638 C630 1.378 . S
C638 C633 1.350 . S
C639 H626 0.929 . S
C639 C631 1.433 . S
C639 N641 1.384 . S
N640 C636 1.427 . S
N640 C637 1.384 . S
N641 C633 1.427 . S
N641 C639 1.384 . S
H642 C648 0.930 . S
H643 C652 0.930 . S
H644 C657 0.929 . S
H645 C655 0.929 . S
H646 C650 0.929 . S
H647 C656 0.929 . S
C648 H642 0.930 . S
C648 C649 1.367 . S
C648 C656 1.378 . S
C649 C648 1.367 . S
C649 C657 1.433 . S
C650 H646 0.929 . S
C650 C652 1.378 . S
C650 C654 1.350 . S
C651 C654 1.463 . S
C651 C656 1.350 . S
C651 N659 1.427 . S
C652 H643 0.930 . S
C652 C650 1.378 . S
C652 C653 1.367 . S
C653 C652 1.367 . S
C653 C655 1.433 . S
C654 C650 1.350 . S
C654 C651 1.463 . S
C654 N658 1.427 . S
C655 H645 0.929 . S
C655 C653 1.433 . S
C655 N658 1.384 . S
C656 H647 0.929 . S
C656 C648 1.378 . S
C656 C651 1.350 . S
C657 H644 0.929 . S
C657 C649 1.433 . S
C657 N659 1.384 . S
N658 C654 1.427 . S
N658 C655 1.384 . S
N659 C651 1.427 . S
N659 C657 1.384 . S
H660 C666 0.930 . S
H661 C670 0.930 . S
H662 C675 0.929 . S
H663 C673 0.929 . S
H664 C668 0.929 . S
H665 C674 0.929 . S
C666 H660 0.930 . S
C666 C667 1.367 . S
C666 C674 1.378 . S
C667 C666 1.367 . S
C667 C675 1.433 . S
C668 H664 0.929 . S
C668 C670 1.378 . S
C668 C672 1.350 . S
C669 C672 1.463 . S
C669 C674 1.350 . S
C669 N677 1.427 . S
C670 H661 0.930 . S
C670 C668 1.378 . S
C670 C671 1.367 . S
C671 C670 1.367 . S
C671 C673 1.433 . S
C672 C668 1.350 . S
C672 C669 1.463 . S
C672 N676 1.427 . S
C673 H663 0.929 . S
C673 C671 1.433 . S
C673 N676 1.384 . S
C674 H665 0.929 . S
C674 C666 1.378 . S
C674 C669 1.350 . S
C675 H662 0.929 . S
C675 C667 1.433 . S
C675 N677 1.384 . S
N676 C672 1.427 . S
N676 C673 1.384 . S
N677 C669 1.427 . S
N677 C675 1.384 . S
H678 C684 0.930 . S
H679 C688 0.930 . S
H680 C693 0.929 . S
H681 C691 0.929 . S
H682 C686 0.929 . S
H683 C692 0.929 . S
C684 H678 0.930 . S
C684 C685 1.367 . S
C684 C692 1.378 . S
C685 C684 1.367 . S
C685 C693 1.433 . S
C686 H682 0.929 . S
C686 C688 1.378 . S
C686 C690 1.350 . S
C687 C690 1.463 . S
C687 C692 1.350 . S
C687 N695 1.427 . S
C688 H679 0.930 . S
C688 C686 1.378 . S
C688 C689 1.367 . S
C689 C688 1.367 . S
C689 C691 1.433 . S
C690 C686 1.350 . S
C690 C687 1.463 . S
C690 N694 1.427 . S
C691 H681 0.929 . S
C691 C689 1.433 . S
C691 N694 1.384 . S
C692 H683 0.929 . S
C692 C684 1.378 . S
C692 C687 1.350 . S
C693 H680 0.929 . S
C693 C685 1.433 . S
C693 N695 1.384 . S
N694 C690 1.427 . S
N694 C691 1.384 . S
N695 C687 1.427 . S
N695 C693 1.384 . S
H696 C702 0.930 . S
H697 C706 0.930 . S
H698 C711 0.929 . S
H699 C709 0.929 . S
H700 C704 0.929 . S
H701 C710 0.929 . S
C702 H696 0.930 . S
C702 C703 1.367 . S
C702 C710 1.378 . S
C703 C702 1.367 . S
C703 C711 1.433 . S
C704 H700 0.929 . S
C704 C706 1.378 . S
C704 C708 1.350 . S
C705 C708 1.463 . S
C705 C710 1.350 . S
C705 N713 1.427 . S
C706 H697 0.930 . S
C706 C704 1.378 . S
C706 C707 1.367 . S
C707 C706 1.367 . S
C707 C709 1.433 . S
C708 C704 1.350 . S
C708 C705 1.463 . S
C708 N712 1.427 . S
C709 H699 0.929 . S
C709 C707 1.433 . S
C709 N712 1.384 . S
C710 H701 0.929 . S
C710 C702 1.378 . S
C710 C705 1.350 . S
C711 H698 0.929 . S
C711 C703 1.433 . S
C711 N713 1.384 . S
N712 C708 1.427 . S
N712 C709 1.384 . S
N713 C705 1.427 . S
N713 C711 1.384 . S
H714 C720 0.930 . S
H715 C724 0.930 . S
H716 C729 0.929 . S
H717 C727 0.929 . S
H718 C722 0.929 . S
H719 C728 0.929 . S
C720 H714 0.930 . S
C720 C721 1.367 . S
C720 C728 1.378 . S
C721 C720 1.367 . S
C721 C729 1.433 . S
C722 H718 0.929 . S
C722 C724 1.378 . S
C722 C726 1.350 . S
C723 C726 1.463 . S
C723 C728 1.350 . S
C723 N731 1.427 . S
C724 H715 0.930 . S
C724 C722 1.378 . S
C724 C725 1.367 . S
C725 C724 1.367 . S
C725 C727 1.433 . S
C726 C722 1.350 . S
C726 C723 1.463 . S
C726 N730 1.427 . S
C727 H717 0.929 . S
C727 C725 1.433 . S
C727 N730 1.384 . S
C728 H719 0.929 . S
C728 C720 1.378 . S
C728 C723 1.350 . S
C729 H716 0.929 . S
C729 C721 1.433 . S
C729 N731 1.384 . S
N730 C726 1.427 . S
N730 C727 1.384 . S
N731 C723 1.427 . S
N731 C729 1.384 . S
H732 C738 0.930 . S
H733 C742 0.930 . S
H734 C747 0.929 . S
H735 C745 0.929 . S
H736 C740 0.929 . S
H737 C746 0.929 . S
C738 H732 0.930 . S
C738 C739 1.367 . S
C738 C746 1.378 . S
C739 C738 1.367 . S
C739 C747 1.433 . S
C740 H736 0.929 . S
C740 C742 1.378 . S
C740 C744 1.350 . S
C741 C744 1.463 . S
C741 C746 1.350 . S
C741 N749 1.427 . S
C742 H733 0.930 . S
C742 C740 1.378 . S
C742 C743 1.367 1_565 S
C743 C742 1.367 1_545 S
C743 C745 1.433 . S
C744 C740 1.350 . S
C744 C741 1.463 . S
C744 N748 1.427 1_565 S
C745 H735 0.929 . S
C745 C743 1.433 . S
C745 N748 1.384 . S
C746 H737 0.929 . S
C746 C738 1.378 . S
C746 C741 1.350 . S
C747 H734 0.929 . S
C747 C739 1.433 . S
C747 N749 1.384 . S
N748 C744 1.427 1_545 S
N748 C745 1.384 . S
N749 C741 1.427 . S
N749 C747 1.384 . S
H750 C756 0.930 . S
H751 C760 0.930 . S
H752 C765 0.929 . S
H753 C763 0.929 . S
H754 C758 0.929 . S
H755 C764 0.929 . S
C756 H750 0.930 . S
C756 C757 1.367 . S
C756 C764 1.378 . S
C757 C756 1.367 . S
C757 C765 1.433 . S
C758 H754 0.929 . S
C758 C760 1.378 . S
C758 C762 1.350 . S
C759 C762 1.463 . S
C759 C764 1.350 . S
C759 N767 1.427 . S
C760 H751 0.930 . S
C760 C758 1.378 . S
C760 C761 1.367 . S
C761 C760 1.367 . S
C761 C763 1.433 . S
C762 C758 1.350 . S
C762 C759 1.463 . S
C762 N766 1.427 . S
C763 H753 0.929 . S
C763 C761 1.433 . S
C763 N766 1.384 . S
C764 H755 0.929 . S
C764 C756 1.378 . S
C764 C759 1.350 . S
C765 H752 0.929 . S
C765 C757 1.433 . S
C765 N767 1.384 . S
N766 C762 1.427 . S
N766 C763 1.384 . S
N767 C759 1.427 . S
N767 C765 1.384 . S
H768 C774 0.930 . S
H769 C778 0.930 . S
H770 C783 0.929 . S
H771 C781 0.929 . S
H772 C776 0.929 . S
H773 C782 0.929 . S
C774 H768 0.930 . S
C774 C775 1.367 . S
C774 C782 1.378 . S
C775 C774 1.367 . S
C775 C783 1.433 . S
C776 H772 0.929 . S
C776 C778 1.378 . S
C776 C780 1.350 . S
C777 C780 1.463 . S
C777 C782 1.350 1_455 S
C777 N785 1.427 . S
C778 H769 0.930 . S
C778 C776 1.378 . S
C778 C779 1.367 . S
C779 C778 1.367 . S
C779 C781 1.433 . S
C780 C776 1.350 . S
C780 C777 1.463 . S
C780 N784 1.427 . S
C781 H771 0.929 . S
C781 C779 1.433 . S
C781 N784 1.384 . S
C782 H773 0.929 . S
C782 C774 1.378 . S
C782 C777 1.350 1_655 S
C783 H770 0.929 . S
C783 C775 1.433 . S
C783 N785 1.384 1_655 S
N784 C780 1.427 . S
N784 C781 1.384 . S
N785 C777 1.427 . S
N785 C783 1.384 1_455 S
H786 C792 0.930 . S
H787 C796 0.930 . S
H788 C801 0.929 . S
H789 C799 0.929 . S
H790 C794 0.929 . S
H791 C800 0.929 . S
C792 H786 0.930 . S
C792 C793 1.367 . S
C792 C800 1.378 . S
C793 C792 1.367 . S
C793 C801 1.433 1_565 S
C794 H790 0.929 . S
C794 C796 1.378 . S
C794 C798 1.350 . S
C795 C798 1.463 . S
C795 C800 1.350 1_545 S
C795 N803 1.427 . S
C796 H787 0.930 . S
C796 C794 1.378 . S
C796 C797 1.367 . S
C797 C796 1.367 . S
C797 C799 1.433 . S
C798 C794 1.350 . S
C798 C795 1.463 . S
C798 N802 1.427 . S
C799 H789 0.929 . S
C799 C797 1.433 . S
C799 N802 1.384 . S
C800 H791 0.929 . S
C800 C792 1.378 . S
C800 C795 1.350 1_565 S
C801 H788 0.929 . S
C801 C793 1.433 1_545 S
C801 N803 1.384 . S
N802 C798 1.427 . S
N802 C799 1.384 . S
N803 C795 1.427 . S
N803 C801 1.384 . S
H804 C810 0.930 . S
H805 C814 0.930 . S
H806 C819 0.929 . S
H807 C817 0.929 . S
H808 C812 0.929 . S
H809 C818 0.929 . S
C810 H804 0.930 . S
C810 C811 1.367 . S
C810 C818 1.378 . S
C811 C810 1.367 . S
C811 C819 1.433 . S
C812 H808 0.929 . S
C812 C814 1.378 . S
C812 C816 1.350 . S
C813 C816 1.463 . S
C813 C818 1.350 . S
C813 N821 1.427 . S
C814 H805 0.930 . S
C814 C812 1.378 . S
C814 C815 1.367 . S
C815 C814 1.367 . S
C815 C817 1.433 . S
C816 C812 1.350 . S
C816 C813 1.463 . S
C816 N820 1.427 . S
C817 H807 0.929 . S
C817 C815 1.433 . S
C817 N820 1.384 . S
C818 H809 0.929 . S
C818 C810 1.378 . S
C818 C813 1.350 . S
C819 H806 0.929 . S
C819 C811 1.433 . S
C819 N821 1.384 . S
N820 C816 1.427 . S
N820 C817 1.384 . S
N821 C813 1.427 . S
N821 C819 1.384 . S
H822 C828 0.930 . S
H823 C832 0.930 . S
H824 C837 0.929 . S
H825 C835 0.929 . S
H826 C830 0.929 . S
H827 C836 0.929 . S
C828 H822 0.930 . S
C828 C829 1.367 . S
C828 C836 1.378 . S
C829 C828 1.367 . S
C829 C837 1.433 1_455 S
C830 H826 0.929 . S
C830 C832 1.378 . S
C830 C834 1.350 . S
C831 C834 1.463 . S
C831 C836 1.350 1_655 S
C831 N839 1.427 . S
C832 H823 0.930 . S
C832 C830 1.378 . S
C832 C833 1.367 . S
C833 C832 1.367 . S
C833 C835 1.433 . S
C834 C830 1.350 . S
C834 C831 1.463 . S
C834 N838 1.427 . S
C835 H825 0.929 . S
C835 C833 1.433 . S
C835 N838 1.384 . S
C836 H827 0.929 . S
C836 C828 1.378 . S
C836 C831 1.350 1_455 S
C837 H824 0.929 . S
C837 C829 1.433 1_655 S
C837 N839 1.384 . S
N838 C834 1.427 . S
N838 C835 1.384 . S
N839 C831 1.427 . S
N839 C837 1.384 . S
H840 C846 0.930 . S
H841 C850 0.930 . S
H842 C855 0.929 . S
H843 C853 0.929 . S
H844 C848 0.929 . S
H845 C854 0.929 . S
C846 H840 0.930 . S
C846 C847 1.367 . S
C846 C854 1.378 1_655 S
C847 C846 1.367 . S
C847 C855 1.433 . S
C848 H844 0.929 . S
C848 C850 1.378 . S
C848 C852 1.350 . S
C849 C852 1.463 . S
C849 C854 1.350 . S
C849 N857 1.427 . S
C850 H841 0.930 . S
C850 C848 1.378 . S
C850 C851 1.367 . S
C851 C850 1.367 . S
C851 C853 1.433 . S
C852 C848 1.350 . S
C852 C849 1.463 . S
C852 N856 1.427 . S
C853 H843 0.929 . S
C853 C851 1.433 . S
C853 N856 1.384 . S
C854 H845 0.929 . S
C854 C846 1.378 1_455 S
C854 C849 1.350 . S
C855 H842 0.929 . S
C855 C847 1.433 . S
C855 N857 1.384 1_655 S
N856 C852 1.427 . S
N856 C853 1.384 . S
N857 C849 1.427 . S
N857 C855 1.384 1_455 S
H858 C864 0.930 . S
H859 C868 0.930 . S
H860 C873 0.929 . S
H861 C871 0.929 . S
H862 C866 0.929 . S
H863 C872 0.929 1_565 S
C864 H858 0.930 . S
C864 C865 1.367 . S
C864 C872 1.378 . S
C865 C864 1.367 . S
C865 C873 1.433 . S
C866 H862 0.929 . S
C866 C868 1.378 . S
C866 C870 1.350 . S
C867 C870 1.463 . S
C867 C872 1.350 . S
C867 N875 1.427 . S
C868 H859 0.930 . S
C868 C866 1.378 . S
C868 C869 1.367 1_545 S
C869 C868 1.367 1_565 S
C869 C871 1.433 . S
C870 C866 1.350 . S
C870 C867 1.463 . S
C870 N874 1.427 1_545 S
C871 H861 0.929 . S
C871 C869 1.433 . S
C871 N874 1.384 . S
C872 H863 0.929 1_545 S
C872 C864 1.378 . S
C872 C867 1.350 . S
C873 H860 0.929 . S
C873 C865 1.433 . S
C873 N875 1.384 . S
N874 C870 1.427 1_565 S
N874 C871 1.384 . S
N875 C867 1.427 . S
N875 C873 1.384 . S
H876 C882 0.930 . S
H877 C886 0.930 . S
H878 C891 0.929 . S
H879 C889 0.929 . S
H880 C884 0.929 . S
H881 C890 0.929 . S
C882 H876 0.930 . S
C882 C883 1.367 . S
C882 C890 1.378 . S
C883 C882 1.367 . S
C883 C891 1.433 . S
C884 H880 0.929 . S
C884 C886 1.378 . S
C884 C888 1.350 . S
C885 C888 1.463 . S
C885 C890 1.350 . S
C885 N893 1.427 . S
C886 H877 0.930 . S
C886 C884 1.378 . S
C886 C887 1.367 . S
C887 C886 1.367 . S
C887 C889 1.433 . S
C888 C884 1.350 . S
C888 C885 1.463 . S
C888 N892 1.427 . S
C889 H879 0.929 . S
C889 C887 1.433 . S
C889 N892 1.384 . S
C890 H881 0.929 . S
C890 C882 1.378 . S
C890 C885 1.350 . S
C891 H878 0.929 . S
C891 C883 1.433 . S
C891 N893 1.384 . S
N892 C888 1.427 . S
N892 C889 1.384 . S
N893 C885 1.427 . S
N893 C891 1.384 . S
H894 C900 0.934 . S
H895 C904 0.930 . S
H896 C909 0.929 . S
H897 C907 0.929 . S
H898 C902 0.929 . S
H899 C908 0.929 . S
C900 H894 0.934 . S
C900 C901 1.367 . S
C900 C908 1.378 1_455 S
C901 C900 1.367 . S
C901 C909 1.433 . S
C902 H898 0.929 . S
C902 C904 1.378 . S
C902 C906 1.350 . S
C903 C906 1.463 . S
C903 C908 1.350 . S
C903 N911 1.427 1_655 S
C904 H895 0.930 . S
C904 C902 1.378 . S
C904 C905 1.367 . S
C905 C904 1.367 . S
C905 C907 1.433 . S
C906 C902 1.350 . S
C906 C903 1.463 . S
C906 N910 1.427 . S
C907 H897 0.929 . S
C907 C905 1.433 . S
C907 N910 1.384 . S
C908 H899 0.929 . S
C908 C900 1.378 1_655 S
C908 C903 1.350 . S
C909 H896 0.929 . S
C909 C901 1.433 . S
C909 N911 1.384 . S
N910 C906 1.427 . S
N910 C907 1.384 . S
N911 C903 1.427 1_455 S
N911 C909 1.384 . S
H912 C918 0.930 . S
H913 C922 0.930 . S
H914 C927 0.929 . S
H915 C925 0.929 . S
H916 C920 0.929 . S
H917 C926 0.929 . S
C918 H912 0.930 . S
C918 C919 1.367 . S
C918 C926 1.378 1_545 S
C919 C918 1.367 . S
C919 C927 1.433 . S
C920 H916 0.929 . S
C920 C922 1.378 . S
C920 C924 1.350 . S
C921 C924 1.463 . S
C921 C926 1.350 . S
C921 N929 1.427 . S
C922 H913 0.930 . S
C922 C920 1.378 . S
C922 C923 1.367 . S
C923 C922 1.367 . S
C923 C925 1.433 . S
C924 C920 1.350 . S
C924 C921 1.463 . S
C924 N928 1.427 . S
C925 H915 0.929 . S
C925 C923 1.433 . S
C925 N928 1.384 . S
C926 H917 0.929 . S
C926 C918 1.378 1_565 S
C926 C921 1.350 . S
C927 H914 0.929 . S
C927 C919 1.433 . S
C927 N929 1.384 1_545 S
N928 C924 1.427 . S
N928 C925 1.384 . S
N929 C921 1.427 . S
N929 C927 1.384 1_565 S
H930 C936 0.930 . S
H931 C940 0.930 . S
H932 C945 0.929 . S
H933 C943 0.929 . S
H934 C938 0.929 . S
H935 C944 0.929 . S
C936 H930 0.930 . S
C936 C937 1.367 . S
C936 C944 1.378 . S
C937 C936 1.367 . S
C937 C945 1.433 . S
C938 H934 0.929 . S
C938 C940 1.378 . S
C938 C942 1.350 . S
C939 C942 1.463 . S
C939 C944 1.350 . S
C939 N947 1.427 . S
C940 H931 0.930 . S
C940 C938 1.378 . S
C940 C941 1.367 . S
C941 C940 1.367 . S
C941 C943 1.433 . S
C942 C938 1.350 . S
C942 C939 1.463 . S
C942 N946 1.427 . S
C943 H933 0.929 . S
C943 C941 1.433 . S
C943 N946 1.384 . S
C944 H935 0.929 . S
C944 C936 1.378 . S
C944 C939 1.350 . S
C945 H932 0.929 . S
C945 C937 1.433 . S
C945 N947 1.384 . S
N946 C942 1.427 . S
N946 C943 1.384 . S
N947 C939 1.427 . S
N947 C945 1.384 . S
C415 C20 1.401 . S
C419 C376 1.391 . S
C433 C54 1.404 . S
C437 C206 1.395 . S
C451 C240 1.383 . S
C455 C88 1.404 . S
C469 C274 1.391 . S
C473 C122 1.413 . S
C487 C156 1.403 1_556 S
C491 C308 1.383 . S
C505 C190 1.405 . S
C509 C342 1.383 . S
C523 C36 1.398 . S
C527 C224 1.409 . S
C541 C258 1.404 . S
C545 C70 1.395 . S
C559 C104 1.385 . S
C563 C292 1.408 . S
C577 C326 1.400 . S
C581 C138 1.386 . S
C595 C360 1.412 . S
C599 C172 1.389 . S
C613 C2 1.386 . S
C617 C394 1.410 . S
C631 C209 0.705 . S
C635 C5 0.710 . S
C649 C39 0.722 . S
C653 C243 0.722 . S
C667 C73 0.714 . S
C671 C277 0.721 . S
C685 C107 0.709 . S
C689 C311 0.716 . S
C703 C345 0.719 . S
C707 C141 0.723 . S
C721 C379 0.715 . S
C725 C175 0.721 . S
C739 C203 0.870 . S
C743 C9 0.856 . S
C757 C33 0.870 . S
C761 C43 0.857 . S
C775 C77 0.865 . S
C779 C67 0.849 . S
C793 C111 0.870 . S
C797 C101 0.852 . S
C811 C145 0.861 . S
C815 C135 0.851 . S
C829 C179 0.869 . S
C833 C169 0.851 . S
C847 C213 0.862 . S
C851 C271 0.850 . S
C865 C305 0.867 . S
C869 C247 0.852 . S
C883 C281 0.853 . S
C887 C339 0.869 . S
C901 C315 0.855 . S
C905 C373 0.870 . S
C919 C349 0.861 . S
C923 C407 0.851 . S
C937 C383 0.870 . S
C941 C237 0.858 . S
