# Generated by pormake.
# Topology sof, (5)-cn, num edge types: 1
# Building blocks:
#     Node 0, Type 0, BuildingBlock: XOMCOT_clean_sbu_1, # of connection points: 5
#     Node 1, Type 0, BuildingBlock: XOMCOT_clean_sbu_1, # of connection points: 5
#     Node 2, Type 0, BuildingBlock: XOMCOT_clean_sbu_1, # of connection points: 5
#     Node 3, Type 0, BuildingBlock: XOMCOT_clean_sbu_1, # of connection points: 5
#     Node 4, Type 0, BuildingBlock: XOMCOT_clean_sbu_1, # of connection points: 5
#     Node 5, Type 0, BuildingBlock: XOMCOT_clean_sbu_1, # of connection points: 5
#     Node 6, Type 0, BuildingBlock: XOMCOT_clean_sbu_1, # of connection points: 5
#     Node 7, Type 0, BuildingBlock: XOMCOT_clean_sbu_1, # of connection points: 5
#     Edge 8, Type (0, 0), BuildingBlock: XUDNAN_clean_linker_2, # of connection points: 2
#     Edge 9, Type (0, 0), BuildingBlock: XUDNAN_clean_linker_2, # of connection points: 2
#     Edge 10, Type (0, 0), BuildingBlock: XUDNAN_clean_linker_2, # of connection points: 2
#     Edge 11, Type (0, 0), BuildingBlock: XUDNAN_clean_linker_2, # of connection points: 2
#     Edge 12, Type (0, 0), BuildingBlock: XUDNAN_clean_linker_2, # of connection points: 2
#     Edge 13, Type (0, 0), BuildingBlock: XUDNAN_clean_linker_2, # of connection points: 2
#     Edge 14, Type (0, 0), BuildingBlock: XUDNAN_clean_linker_2, # of connection points: 2
#     Edge 15, Type (0, 0), BuildingBlock: XUDNAN_clean_linker_2, # of connection points: 2
#     Edge 16, Type (0, 0), BuildingBlock: XUDNAN_clean_linker_2, # of connection points: 2
#     Edge 17, Type (0, 0), BuildingBlock: XUDNAN_clean_linker_2, # of connection points: 2
#     Edge 18, Type (0, 0), BuildingBlock: XUDNAN_clean_linker_2, # of connection points: 2
#     Edge 19, Type (0, 0), BuildingBlock: XUDNAN_clean_linker_2, # of connection points: 2
#     Edge 20, Type (0, 0), BuildingBlock: XUDNAN_clean_linker_2, # of connection points: 2
#     Edge 21, Type (0, 0), BuildingBlock: XUDNAN_clean_linker_2, # of connection points: 2
#     Edge 22, Type (0, 0), BuildingBlock: XUDNAN_clean_linker_2, # of connection points: 2
#     Edge 23, Type (0, 0), BuildingBlock: XUDNAN_clean_linker_2, # of connection points: 2
#     Edge 24, Type (0, 0), BuildingBlock: XUDNAN_clean_linker_2, # of connection points: 2
#     Edge 25, Type (0, 0), BuildingBlock: XUDNAN_clean_linker_2, # of connection points: 2
#     Edge 26, Type (0, 0), BuildingBlock: XUDNAN_clean_linker_2, # of connection points: 2
#     Edge 27, Type (0, 0), BuildingBlock: XUDNAN_clean_linker_2, # of connection points: 2
# Relax obj value: 0.150
# Max RMSD: 0.158
# Mean RMSD: 0.158
data_MOF--net-sof--node1-XOMCOT_clean_sbu_1--edge1-XUDNAN_clean_linker_2
_symmetry_space_group_name_H-M    P1
_symmetry_Int_Tables_number       1
_symmetry_cell_setting            triclinic
loop_
_symmetry_equiv_pos_as_xyz
'x, y, z'
_cell_length_a     57.145542
_cell_length_b     17.342365
_cell_length_c     48.737537
_cell_angle_alpha  89.99089
_cell_angle_beta   89.869931
_cell_angle_gamma 90.034375
loop_
_atom_site_label
_atom_site_type_symbol
_atom_site_fract_x
_atom_site_fract_y
_atom_site_fract_z
_atom_type_partial_charge
C0 C 0.11727 0.16102 0.08819 0.0
C1 C 0.11818 0.23832 0.08202 0.0
N2 N 0.10068 0.27408 0.09552 0.0
N3 N 0.09927 0.14797 0.1055 0.0
C4 C 0.08946 0.21803 0.10963 0.0
H5 H 0.12879 0.11675 0.0803 0.0
Co6 Co 0.08984 0.05054 0.11765 0.0
C7 C 0.08032 0.08254 0.17624 0.0
O8 O 0.09329 0.02214 0.18206 0.0
N9 N 0.07953 0.95042 0.12845 0.0
C10 C 0.06042 0.84857 0.14554 0.0
C11 C 0.06397 0.92697 0.14773 0.0
C12 C 0.08363 0.88567 0.11367 0.0
N13 N 0.07288 0.82267 0.12402 0.0
O14 O 0.0614 0.0607 0.09666 0.0
H15 H 0.05466 0.96422 0.16171 0.0
H16 H 0.09396 0.88498 0.09509 0.0
O17 O 0.07622 0.09915 0.15104 0.0
C18 C 0.06751 0.03973 0.07251 0.0
O19 O 0.0894 0.01897 0.06868 0.0
N20 N 0.11959 0.03837 0.13496 0.0
C21 C 0.16804 0.03649 0.14267 0.0
C22 C 0.15455 0.09665 0.15349 0.0
C23 C 0.13023 0.09657 0.14938 0.0
C24 C 0.13268 0.97783 0.12579 0.0
C25 C 0.15669 0.97489 0.12999 0.0
H26 H 0.1204 0.14705 0.1554 0.0
H27 H 0.12539 0.93534 0.11243 0.0
H28 H 0.07394 0.22744 0.12193 0.0
H29 H 0.13071 0.26612 0.06858 0.0
H30 H 0.04878 0.81403 0.15808 0.0
H31 H 0.16288 0.14638 0.16273 0.0
H32 H 0.16666 0.92853 0.1207 0.0
C33 C 0.39144 0.8427 0.09357 0.0
C34 C 0.39047 0.76298 0.0939 0.0
N35 N 0.4085 0.73689 0.10907 0.0
N36 N 0.40994 0.86616 0.10859 0.0
C37 C 0.42023 0.80042 0.11701 0.0
H38 H 0.37881 0.88087 0.0842 0.0
Co39 Co 0.41904 0.96406 0.12037 0.0
C40 C 0.42537 0.93786 0.18124 0.0
O41 O 0.41504 1.00324 0.18751 0.0
N42 N 0.42919 0.06203 0.1325 0.0
C43 C 0.45288 0.14923 0.15133 0.0
C44 C 0.44954 0.07228 0.14611 0.0
C45 C 0.42084 0.13456 0.12903 0.0
N46 N 0.43481 0.18831 0.14053 0.0
O47 O 0.44963 0.94658 0.10527 0.0
H48 H 0.46143 0.02641 0.15168 0.0
H49 H 0.40495 0.1489 0.11834 0.0
O50 O 0.42785 0.91872 0.15602 0.0
C51 C 0.44963 0.97025 0.08043 0.0
O52 O 0.43015 0.99941 0.0706 0.0
N53 N 0.38817 0.98322 0.13156 0.0
C54 C 0.33974 1.00648 0.13268 0.0
C55 C 0.35052 0.9575 0.15189 0.0
C56 C 0.37487 0.9458 0.15077 0.0
C57 C 0.3778 0.02948 0.11266 0.0
C58 C 0.35399 0.04445 0.11352 0.0
H59 H 0.38256 0.90291 0.16401 0.0
H60 H 0.38801 0.05213 0.09579 0.0
H61 H 0.43582 0.7992 0.1295 0.0
H62 H 0.37686 0.72744 0.08506 0.0
H63 H 0.46774 0.17462 0.16171 0.0
H64 H 0.34015 0.92507 0.1665 0.0
H65 H 0.34671 0.08304 0.0983 0.0
C66 C 0.10594 0.3503 0.42366 0.0
C67 C 0.10331 0.27173 0.42698 0.0
N68 N 0.08216 0.25082 0.41725 0.0
N69 N 0.08663 0.37925 0.41154 0.0
C70 C 0.07211 0.31781 0.40919 0.0
H71 H 0.12168 0.38255 0.42795 0.0
Co72 Co 0.08127 0.47741 0.39526 0.0
C73 C 0.08145 0.36351 0.34894 0.0
O74 O 0.0987 0.32682 0.36102 0.0
N75 N 0.07566 0.57455 0.3796 0.0
C76 C 0.0703 0.66922 0.34956 0.0
C77 C 0.07412 0.59155 0.35265 0.0
C78 C 0.07313 0.64336 0.3925 0.0
N79 N 0.06966 0.70197 0.3746 0.0
O80 O 0.04941 0.47363 0.40784 0.0
H81 H 0.07607 0.5507 0.33608 0.0
H82 H 0.07366 0.65021 0.41456 0.0
O83 O 0.07317 0.42537 0.35975 0.0
C84 C 0.04936 0.49282 0.43318 0.0
O85 O 0.06954 0.5075 0.44496 0.0
N86 N 0.11297 0.48871 0.38626 0.0
C87 C 0.16084 0.52321 0.38568 0.0
C88 C 0.15015 0.48666 0.36312 0.0
C89 C 0.12596 0.47237 0.36341 0.0
C90 C 0.12272 0.52834 0.40739 0.0
C91 C 0.1463 0.54743 0.40731 0.0
H92 H 0.11802 0.44899 0.34522 0.0
H93 H 0.11193 0.54534 0.4246 0.0
H94 H 0.05524 0.3216 0.39929 0.0
H95 H 0.11681 0.23252 0.43384 0.0
H96 H 0.0686 0.69962 0.33026 0.0
H97 H 0.1602 0.46845 0.34545 0.0
H98 H 0.15287 0.58076 0.42439 0.0
C99 C 0.37934 0.67971 0.41754 0.0
C100 C 0.37986 0.75887 0.42071 0.0
N101 N 0.40068 0.78477 0.41149 0.0
N102 N 0.39962 0.65643 0.40596 0.0
C103 C 0.41226 0.72154 0.40285 0.0
H104 H 0.36501 0.64186 0.42295 0.0
Co105 Co 0.40958 0.55857 0.39501 0.0
C106 C 0.423 0.58302 0.33694 0.0
O107 O 0.41309 0.51667 0.33107 0.0
N108 N 0.42098 0.45978 0.38437 0.0
C109 C 0.4482 0.37389 0.37239 0.0
C110 C 0.4426 0.45061 0.37348 0.0
C111 C 0.41423 0.3867 0.39062 0.0
N112 N 0.4304 0.33356 0.38335 0.0
O113 O 0.43731 0.57032 0.41725 0.0
H114 H 0.45428 0.49725 0.36803 0.0
H115 H 0.39886 0.37208 0.40234 0.0
O116 O 0.4236 0.60658 0.36185 0.0
C117 C 0.43004 0.54374 0.44027 0.0
O118 O 0.40806 0.52172 0.44182 0.0
N119 N 0.38071 0.54404 0.3772 0.0
C120 C 0.33215 0.54573 0.37197 0.0
C121 C 0.34597 0.59526 0.35597 0.0
C122 C 0.37043 0.59379 0.35898 0.0
C123 C 0.36729 0.49369 0.39175 0.0
C124 C 0.34321 0.49138 0.38864 0.0
H125 H 0.38057 0.63876 0.34928 0.0
H126 H 0.37467 0.46284 0.40877 0.0
H127 H 0.42957 0.72265 0.39382 0.0
H128 H 0.36609 0.7944 0.42927 0.0
H129 H 0.46457 0.35003 0.36509 0.0
H130 H 0.33793 0.6396 0.3435 0.0
H131 H 0.33309 0.45361 0.40185 0.0
C132 C 0.88826 0.86419 0.92714 0.0
C133 C 0.88776 0.78664 0.9333 0.0
N134 N 0.9032 0.75012 0.91688 0.0
N135 N 0.90394 0.8767 0.90693 0.0
C136 C 0.91281 0.80604 0.90117 0.0
H137 H 0.87814 0.90895 0.93707 0.0
Co138 Co 0.91286 0.97354 0.89318 0.0
C139 C 0.91544 0.9286 0.83375 0.0
O140 O 0.90044 0.98298 0.82722 0.0
N141 N 0.923 0.07244 0.88063 0.0
C142 C 0.93617 0.17651 0.8585 0.0
C143 C 0.93216 0.09821 0.85674 0.0
C144 C 0.9232 0.13565 0.89701 0.0
N145 N 0.93022 0.20046 0.88386 0.0
O146 O 0.94325 0.95982 0.90899 0.0
H147 H 0.93616 0.06325 0.83908 0.0
H148 H 0.91689 0.13439 0.91794 0.0
O149 O 0.92248 0.92243 0.85862 0.0
C150 C 0.94311 0.97688 0.9345 0.0
O151 O 0.9231 0.99606 0.94595 0.0
N152 N 0.8816 0.99016 0.88005 0.0
C153 C 0.8338 0.01824 0.86993 0.0
C154 C 0.84381 0.94562 0.86439 0.0
C155 C 0.86778 0.9331 0.86929 0.0
C156 C 0.87187 0.06018 0.88564 0.0
C157 C 0.84877 0.07646 0.87938 0.0
H158 H 0.875 0.87652 0.86538 0.0
H159 H 0.88135 0.10412 0.8962 0.0
H160 H 0.92676 0.79606 0.88659 0.0
H161 H 0.87698 0.75927 0.94878 0.0
H162 H 0.94303 0.21271 0.84229 0.0
H163 H 0.83326 0.8979 0.85727 0.0
H164 H 0.84276 0.13464 0.88305 0.0
C165 C 0.61696 0.13374 0.9158 0.0
C166 C 0.61845 0.21086 0.92215 0.0
N167 N 0.60009 0.24734 0.91071 0.0
N168 N 0.59776 0.12151 0.9004 0.0
C169 C 0.58774 0.1918 0.89778 0.0
H170 H 0.62922 0.0893 0.92175 0.0
Co171 Co 0.58867 0.0251 0.8869 0.0
C172 C 0.57204 0.06968 0.83114 0.0
O173 O 0.58431 0.01268 0.82068 0.0
N174 N 0.5792 0.92579 0.87502 0.0
C175 C 0.55984 0.82233 0.85984 0.0
C176 C 0.56221 0.90138 0.85779 0.0
C177 C 0.58583 0.8608 0.88824 0.0
N178 N 0.57473 0.79696 0.87918 0.0
O179 O 0.56228 0.0257 0.91172 0.0
H180 H 0.55101 0.93831 0.84577 0.0
H181 H 0.59815 0.8608 0.90503 0.0
O182 O 0.57092 0.07751 0.85731 0.0
C183 C 0.56962 1.00054 0.93482 0.0
O184 O 0.5919 0.98269 0.93685 0.0
N185 N 0.61635 0.023 0.86488 0.0
C186 C 0.66303 0.03794 0.84845 0.0
C187 C 0.64675 0.09573 0.84238 0.0
C188 C 0.6235 0.08722 0.85076 0.0
C189 C 0.63185 0.96436 0.86929 0.0
C190 C 0.65511 0.97001 0.86077 0.0
H191 H 0.61192 0.13591 0.84829 0.0
H192 H 0.62721 0.91599 0.88187 0.0
H193 H 0.57153 0.20204 0.88706 0.0
H194 H 0.63222 0.23822 0.93387 0.0
H195 H 0.5472 0.78709 0.8491 0.0
H196 H 0.65235 0.14976 0.83333 0.0
H197 H 0.66733 0.9251 0.86655 0.0
C198 C 0.87363 0.68362 0.60166 0.0
C199 C 0.87356 0.76331 0.60225 0.0
N200 N 0.89445 0.78739 0.61183 0.0
N201 N 0.89443 0.65817 0.61106 0.0
C202 C 0.90678 0.72248 0.61638 0.0
H203 H 0.85917 0.6469 0.59586 0.0
Co204 Co 0.90568 0.56004 0.61914 0.0
C205 C 0.92061 0.57292 0.67752 0.0
O206 O 0.91357 0.50181 0.68182 0.0
N207 N 0.91831 0.462 0.62725 0.0
C208 C 0.94623 0.37672 0.63702 0.0
C209 C 0.94127 0.45322 0.63316 0.0
C210 C 0.90978 0.38905 0.62734 0.0
N211 N 0.9264 0.33641 0.63332 0.0
O212 O 0.93322 0.58132 0.5973 0.0
H213 H 0.95376 0.49993 0.63455 0.0
H214 H 0.89185 0.37367 0.62332 0.0
O215 O 0.91909 0.60231 0.65348 0.0
C216 C 0.92665 0.5642 0.57296 0.0
O217 O 0.90485 0.54197 0.56951 0.0
N218 N 0.87715 0.53718 0.63637 0.0
C219 C 0.82869 0.52877 0.64221 0.0
C220 C 0.842 0.57321 0.66051 0.0
C221 C 0.86644 0.5771 0.65713 0.0
C222 C 0.86433 0.49173 0.61934 0.0
C223 C 0.84036 0.48422 0.62257 0.0
H224 H 0.8761 0.61853 0.66914 0.0
H225 H 0.87243 0.46687 0.60135 0.0
H226 H 0.92454 0.72122 0.62396 0.0
H227 H 0.85893 0.8002 0.59719 0.0
H228 H 0.96324 0.35255 0.6416 0.0
H229 H 0.83351 0.60999 0.67547 0.0
H230 H 0.83072 0.4498 0.60786 0.0
C231 C 0.60598 0.36357 0.60246 0.0
C232 C 0.60528 0.2842 0.5999 0.0
N233 N 0.58539 0.25865 0.61172 0.0
N234 N 0.58675 0.38735 0.61617 0.0
C235 C 0.57457 0.32226 0.62128 0.0
H236 H 0.6197 0.40122 0.59504 0.0
Co237 Co 0.57717 0.48505 0.62754 0.0
C238 C 0.57004 0.46338 0.68774 0.0
O239 O 0.57901 0.5319 0.69244 0.0
N240 N 0.5662 0.5834 0.63896 0.0
C241 C 0.54012 0.66877 0.65435 0.0
C242 C 0.54563 0.59206 0.65238 0.0
C243 C 0.57248 0.65667 0.63239 0.0
N244 N 0.55697 0.70952 0.64162 0.0
O245 O 0.54702 0.46671 0.61164 0.0
H246 H 0.53467 0.54506 0.65931 0.0
H247 H 0.58711 0.67176 0.61947 0.0
O248 O 0.56807 0.439 0.66307 0.0
C249 C 0.54789 0.48994 0.58676 0.0
O250 O 0.56786 0.51717 0.57747 0.0
N251 N 0.60769 0.5056 0.6396 0.0
C252 C 0.65619 0.52693 0.64097 0.0
C253 C 0.64519 0.47598 0.65943 0.0
C254 C 0.62078 0.46573 0.65831 0.0
C255 C 0.61824 0.55461 0.6217 0.0
C256 C 0.64204 0.56915 0.62294 0.0
H257 H 0.6129 0.42131 0.67081 0.0
H258 H 0.60843 0.57793 0.60474 0.0
H259 H 0.55813 0.32154 0.63235 0.0
H260 H 0.61823 0.24832 0.5899 0.0
H261 H 0.52451 0.69242 0.66371 0.0
H262 H 0.65542 0.4406 0.67322 0.0
H263 H 0.64945 0.60966 0.60841 0.0
H264 H 0.2045 0.03341 0.1804 0.0
H265 H 0.18847 0.05681 0.09384 0.0
H266 H 0.23047 0.05351 0.08266 0.0
H267 H 0.25902 0.1521 0.17816 0.0
H268 H 0.2741 0.0918 0.2025 0.0
H269 H 0.24273 0.10156 0.2043 0.0
H270 H 0.2385 0.95314 0.20135 0.0
H271 H 0.26981 0.94297 0.19914 0.0
H272 H 0.25143 0.90231 0.17284 0.0
H273 H 0.27242 0.03256 0.07982 0.0
H274 H 0.31446 0.01243 0.08539 0.0
H275 H 0.30593 0.01119 0.17409 0.0
C276 C 0.21003 0.03954 0.15925 0.0
C277 C 0.19342 0.04528 0.13788 0.0
C278 C 0.20106 0.05225 0.11037 0.0
C279 C 0.22481 0.0503 0.10384 0.0
C280 C 0.24078 0.04209 0.12509 0.0
C281 C 0.23395 0.03817 0.15229 0.0
C282 C 0.25515 0.02804 0.17079 0.0
C283 C 0.25791 0.09753 0.19008 0.0
C284 C 0.25362 0.95209 0.18698 0.0
C285 C 0.27472 0.02536 0.14959 0.0
C286 C 0.26579 0.03325 0.12344 0.0
C287 C 0.2798 0.02857 0.1002 0.0
C288 C 0.30377 0.01762 0.10366 0.0
C289 C 0.31382 0.01296 0.13022 0.0
C290 C 0.29892 0.01553 0.15353 0.0
H291 H 0.29519 0.54649 0.33479 0.0
H292 H 0.3126 0.57805 0.4207 0.0
H293 H 0.27085 0.58224 0.43253 0.0
H294 H 0.24164 0.67476 0.33714 0.0
H295 H 0.22567 0.61439 0.3136 0.0
H296 H 0.25708 0.62146 0.31101 0.0
H297 H 0.26016 0.47291 0.31489 0.0
H298 H 0.22884 0.46544 0.31793 0.0
H299 H 0.24736 0.42475 0.34408 0.0
H300 H 0.22921 0.55849 0.43658 0.0
H301 H 0.18759 0.53276 0.43244 0.0
H302 H 0.19412 0.53493 0.34332 0.0
C303 C 0.29006 0.55628 0.3559 0.0
C304 C 0.30701 0.5607 0.37694 0.0
C305 C 0.29981 0.57323 0.4044 0.0
C306 C 0.27617 0.5759 0.41133 0.0
C307 C 0.25985 0.56774 0.39048 0.0
C308 C 0.26624 0.56028 0.36324 0.0
C309 C 0.24467 0.55085 0.34531 0.0
C310 C 0.24211 0.61946 0.3256 0.0
C311 C 0.24531 0.4739 0.32964 0.0
C312 C 0.22546 0.55105 0.36699 0.0
C313 C 0.23484 0.56046 0.39281 0.0
C314 C 0.22138 0.55464 0.41643 0.0
C315 C 0.19748 0.54073 0.41372 0.0
C316 C 0.18678 0.53521 0.38748 0.0
C317 C 0.20126 0.53986 0.36376 0.0
H318 H 0.79992 0.94406 0.83759 0.0
H319 H 0.80773 0.12403 0.8993 0.0
H320 H 0.76688 0.15848 0.89389 0.0
H321 H 0.75531 0.03376 0.79534 0.0
H322 H 0.73842 0.94674 0.7912 0.0
H323 H 0.76963 0.94119 0.79613 0.0
H324 H 0.76357 0.85142 0.83805 0.0
H325 H 0.7324 0.85586 0.83299 0.0
H326 H 0.74474 0.88211 0.86569 0.0
H327 H 0.72565 0.17672 0.88253 0.0
H328 H 0.68367 0.15817 0.87359 0.0
H329 H 0.69933 0.95419 0.82538 0.0
C330 C 0.79323 0.99084 0.84998 0.0
C331 C 0.80802 0.0339 0.86767 0.0
C332 C 0.79781 0.09317 0.88397 0.0
C333 C 0.77428 0.11302 0.88138 0.0
C334 C 0.76058 0.07134 0.86325 0.0
C335 C 0.76933 1.00976 0.84852 0.0
C336 C 0.74976 0.96854 0.83335 0.0
C337 C 0.75351 0.97284 0.80215 0.0
C338 C 0.74748 0.88451 0.84311 0.0
C339 C 0.7288 0.01659 0.84216 0.0
C340 C 0.73573 0.07695 0.85872 0.0
C341 C 0.7199 0.12971 0.86959 0.0
C342 C 0.69613 0.11912 0.8642 0.0
C343 C 0.68836 0.05538 0.84857 0.0
C344 C 0.70492 1.0039 0.83711 0.0
H345 H 0.69133 0.51621 0.68074 0.0
H346 H 0.68022 0.53933 0.59282 0.0
H347 H 0.7222 0.55366 0.5857 0.0
H348 H 0.74097 0.64589 0.68663 0.0
H349 H 0.75703 0.58577 0.71016 0.0
H350 H 0.7255 0.5824 0.70969 0.0
H351 H 0.72677 0.43498 0.70139 0.0
H352 H 0.75828 0.43782 0.7021 0.0
H353 H 0.74338 0.39757 0.67286 0.0
H354 H 0.76413 0.56936 0.58689 0.0
H355 H 0.80633 0.56493 0.59547 0.0
H356 H 0.79335 0.51852 0.68177 0.0
C357 C 0.69776 0.52431 0.66003 0.0
C358 C 0.68212 0.53008 0.63753 0.0
C359 C 0.69144 0.53886 0.61068 0.0
C360 C 0.71541 0.5464 0.60628 0.0
C361 C 0.73016 0.54302 0.62879 0.0
C362 C 0.72198 0.53045 0.65508 0.0
C363 C 0.74233 0.52381 0.67508 0.0
C364 C 0.74139 0.58832 0.69667 0.0
C365 C 0.74271 0.44378 0.68866 0.0
C366 C 0.76302 0.53451 0.65571 0.0
C367 C 0.75528 0.54675 0.62924 0.0
C368 C 0.77051 0.55881 0.60744 0.0
C369 C 0.79445 0.55587 0.61253 0.0
C370 C 0.80309 0.53955 0.63913 0.0
C371 C 0.78718 0.53064 0.66123 0.0
H372 H 0.01864 0.03858 0.07148 0.0
H373 H 0.08024 0.03213 0.01914 0.0
H374 H 0.05542 0.01355 0.97873 0.0
H375 H 0.98655 0.89321 0.03555 0.0
H376 H 0.95848 0.93959 0.03902 0.0
H377 H 0.98085 0.95564 0.06437 0.0
H378 H 0.97794 0.10314 0.05662 0.0
H379 H 0.95537 0.08752 0.03147 0.0
H380 H 0.98124 0.1414 0.02243 0.0
H381 H 0.02453 0.98936 0.94377 0.0
H382 H 0.98861 0.9712 0.91623 0.0
H383 H 0.9467 0.99476 0.99018 0.0
C384 C 0.02681 0.03435 0.05147 0.0
C385 C 0.05144 0.03654 0.04863 0.0
C386 C 0.06145 0.03008 0.02203 0.0
C387 C 0.0475 0.01948 0.99881 0.0
C388 C 0.02342 0.01561 1.00227 0.0
C389 C 0.01304 0.02362 0.02781 0.0
C390 C 0.98665 0.01651 0.02553 0.0
C391 C 0.97761 0.9471 0.0421 0.0
C392 C 0.97459 0.09162 0.03454 0.0
C393 C 0.984 1.00314 0.99487 0.0
C394 C 0.00546 1.00246 0.98188 0.0
C395 C 0.00756 0.99013 0.95366 0.0
C396 C 0.9871 0.97947 0.93819 0.0
C397 C 0.96486 0.98163 0.95096 0.0
C398 C 0.96343 0.993 0.97973 0.0
H399 H 0.45326 0.0185 0.02713 0.0
H400 H 0.49351 0.91464 0.09293 0.0
H401 H 0.52823 0.91071 0.06243 0.0
H402 H 0.47883 0.91005 0.97167 0.0
H403 H 0.47849 0.98992 0.948 0.0
H404 H 0.45689 0.98416 0.9749 0.0
H405 H 0.46889 0.11992 0.99198 0.0
H406 H 0.49055 0.12614 0.96516 0.0
H407 H 0.49906 0.13868 1.00047 0.0
H408 H 0.55834 0.91909 0.02502 0.0
H409 H 0.58224 0.93831 0.98373 0.0
H410 H 0.52246 0.03727 0.94157 0.0
C411 C 0.46935 0.99473 0.03522 0.0
C412 C 0.47065 0.96673 0.06252 0.0
C413 C 0.49208 0.93631 0.07217 0.0
C414 C 0.51186 0.93389 0.05497 0.0
C415 C 0.50991 0.96209 0.02821 0.0
C416 C 0.4892 0.99191 0.01837 0.0
C417 C 0.49176 0.01888 0.98884 0.0
C418 C 0.47553 0.973 0.96973 0.0
C419 C 0.4873 0.10609 0.98649 0.0
C420 C 0.51724 0.99968 0.98352 0.0
C421 C 0.5273 0.96695 1.00656 0.0
C422 C 0.55064 0.94459 1.00691 0.0
C423 C 0.56408 0.95596 0.9832 0.0
C424 C 0.5543 0.9895 0.95923 0.0
C425 C 0.53047 0.01146 0.95946 0.0
H426 H 0.04596 0.51056 0.48871 0.0
H427 H 0.00373 0.49675 0.41493 0.0
H428 H 0.96815 0.52061 0.44285 0.0
H429 H 0.00523 0.41403 0.53343 0.0
H430 H 0.01201 0.47373 0.56262 0.0
H431 H 0.03392 0.45627 0.53675 0.0
H432 H 0.03902 0.60355 0.53016 0.0
H433 H 0.01694 0.62151 0.55581 0.0
H434 H 0.0139 0.66189 0.52193 0.0
H435 H 0.93759 0.54789 0.47861 0.0
H436 H 0.91329 0.56558 0.51974 0.0
H437 H 0.97534 0.55987 0.57096 0.0
C438 C 0.02924 0.51242 0.47832 0.0
C439 C 0.02762 0.50203 0.44953 0.0
C440 C 0.00538 0.50434 0.4369 0.0
C441 C 0.98513 0.51828 0.45259 0.0
C442 C 0.98746 0.52941 0.48086 0.0
C443 C 0.00893 0.52583 0.49366 0.0
C444 C 0.00663 0.5379 0.52443 0.0
C445 C 0.01493 0.46621 0.54023 0.0
C446 C 0.01991 0.61054 0.53361 0.0
C447 C 0.98041 0.54875 0.52707 0.0
C448 C 0.96979 0.54418 0.5016 0.0
C449 C 0.94573 0.55136 0.4986 0.0
C450 C 0.93208 0.56148 0.5222 0.0
C451 C 0.94238 0.56407 0.54868 0.0
C452 C 0.96697 0.55898 0.55105 0.0
H453 H 0.47788 0.57265 0.44713 0.0
H454 H 0.4158 0.49073 0.48984 0.0
H455 H 0.43895 0.46704 0.53111 0.0
H456 H 0.51801 0.43655 0.47729 0.0
H457 H 0.54173 0.50446 0.48054 0.0
H458 H 0.52036 0.51643 0.45376 0.0
H459 H 0.51157 0.65478 0.47098 0.0
H460 H 0.53299 0.64329 0.49774 0.0
H461 H 0.50335 0.66953 0.50633 0.0
H462 H 0.46842 0.44961 0.56816 0.0
H463 H 0.50289 0.44421 0.59879 0.0
H464 H 0.54603 0.53747 0.53322 0.0
C465 C 0.4692 0.55011 0.4652 0.0
C466 C 0.44496 0.53361 0.46499 0.0
C467 C 0.43432 0.50395 0.48919 0.0
C468 C 0.44732 0.49007 0.51292 0.0
C469 C 0.47109 0.5062 0.51247 0.0
C470 C 0.482 0.53591 0.48938 0.0
C471 C 0.50788 0.54822 0.49477 0.0
C472 C 0.52288 0.49843 0.47544 0.0
C473 C 0.51432 0.63406 0.49231 0.0
C474 C 0.50962 0.52046 0.52429 0.0
C475 C 0.48819 0.49641 0.53409 0.0
C476 C 0.48536 0.4684 0.56077 0.0
C477 C 0.50501 0.46538 0.57802 0.0
C478 C 0.52715 0.4903 0.56851 0.0
C479 C 0.52936 0.51786 0.5412 0.0
H480 H 0.08389 0.21606 0.3311 0.0
H481 H 0.06169 0.44392 0.30563 0.0
H482 H 0.05461 0.39406 0.25857 0.0
H483 H 0.11563 0.17106 0.27343 0.0
H484 H 0.10776 0.07041 0.27284 0.0
H485 H 0.10778 0.12213 0.30478 0.0
H486 H 0.0646 0.08356 0.31323 0.0
H487 H 0.06437 0.03119 0.2813 0.0
H488 H 0.04287 0.10512 0.2876 0.0
H489 H 0.05516 0.31987 0.21237 0.0
H490 H 0.06199 0.23029 0.17347 0.0
H491 H 0.08309 0.05267 0.23096 0.0
C492 C 0.07709 0.25535 0.31579 0.0
C493 C 0.0734 0.33395 0.32199 0.0
C494 C 0.06448 0.38336 0.30138 0.0
C495 C 0.06047 0.35545 0.27458 0.0
C496 C 0.06508 0.2778 0.26895 0.0
C497 C 0.07287 0.22842 0.28925 0.0
C498 C 0.07799 0.1489 0.27806 0.0
C499 C 0.10382 0.12691 0.28253 0.0
C500 C 0.06146 0.08865 0.2908 0.0
C501 C 0.0727 0.16141 0.248 0.0
C502 C 0.06506 0.23572 0.24298 0.0
C503 C 0.06072 0.26124 0.21625 0.0
C504 C 0.06462 0.20991 0.19423 0.0
C505 C 0.07295 0.13414 0.19908 0.0
C506 C 0.07653 0.10983 0.22643 0.0
H507 H 0.41424 0.73713 0.32882 0.0
H508 H 0.44793 0.53798 0.29246 0.0
H509 H 0.45611 0.61306 0.25041 0.0
H510 H 0.38467 0.7909 0.26943 0.0
H511 H 0.38687 0.89357 0.27459 0.0
H512 H 0.38727 0.82953 0.30363 0.0
H513 H 0.42678 0.88743 0.31933 0.0
H514 H 0.42646 0.95217 0.29039 0.0
H515 H 0.45117 0.88946 0.29581 0.0
H516 H 0.45761 0.70488 0.21098 0.0
H517 H 0.45093 0.80524 0.17608 0.0
H518 H 0.41378 0.94335 0.23631 0.0
C519 C 0.42409 0.71052 0.31233 0.0
C520 C 0.43101 0.63238 0.31403 0.0
C521 C 0.44288 0.59814 0.29165 0.0
C522 C 0.4476 0.64036 0.26772 0.0
C523 C 0.44005 0.71667 0.2663 0.0
C524 C 0.42849 0.75157 0.28796 0.0
C525 C 0.41993 0.83135 0.27989 0.0
C526 C 0.3931 0.83659 0.28201 0.0
C527 C 0.4318 0.8938 0.29739 0.0
C528 C 0.42809 0.83512 0.25021 0.0
C529 C 0.43998 0.76878 0.24298 0.0
C530 C 0.44844 0.75728 0.21646 0.0
C531 C 0.4444 0.81449 0.19667 0.0
C532 C 0.43162 0.882 0.20324 0.0
C533 C 0.42374 0.89274 0.23058 0.0
H534 H 0.90469 0.92924 0.77886 0.0
H535 H 0.94162 0.79651 0.8406 0.0
H536 H 0.94959 0.6951 0.80624 0.0
H537 H 0.87722 0.77261 0.74627 0.0
H538 H 0.87987 0.81143 0.71209 0.0
H539 H 0.87842 0.87549 0.74109 0.0
H540 H 0.91773 0.93887 0.7265 0.0
H541 H 0.91861 0.87538 0.69734 0.0
H542 H 0.943 0.87866 0.72068 0.0
H543 H 0.94987 0.60211 0.76618 0.0
H544 H 0.94412 0.52814 0.7233 0.0
H545 H 0.9093 0.72475 0.68673 0.0
C546 C 0.91478 0.87948 0.78514 0.0
C547 C 0.92247 0.87106 0.81259 0.0
C548 C 0.9355 0.80457 0.81981 0.0
C549 C 0.94014 0.74659 0.80037 0.0
C550 C 0.93197 0.75629 0.77363 0.0
C551 C 0.91976 0.82149 0.76595 0.0
C552 C 0.91218 0.81688 0.73618 0.0
C553 C 0.88534 0.81922 0.73379 0.0
C554 C 0.9236 0.88133 0.71919 0.0
C555 C 0.92174 0.73837 0.72829 0.0
C556 C 0.93302 0.70419 0.75026 0.0
C557 C 0.94153 0.62898 0.74871 0.0
C558 C 0.9382 0.5874 0.72429 0.0
C559 C 0.92675 0.62126 0.70154 0.0
C560 C 0.91878 0.69825 0.70349 0.0
H561 H 0.57476 0.07516 0.77484 0.0
H562 H 0.55228 0.20905 0.84536 0.0
H563 H 0.54641 0.32201 0.81544 0.0
H564 H 0.60685 0.21836 0.74272 0.0
H565 H 0.59863 0.19365 0.70813 0.0
H566 H 0.59862 0.12076 0.73438 0.0
H567 H 0.55523 0.0895 0.72392 0.0
H568 H 0.55522 0.162 0.69742 0.0
H569 H 0.53383 0.1658 0.72463 0.0
H570 H 0.54852 0.42506 0.77917 0.0
H571 H 0.55486 0.50735 0.73839 0.0
H572 H 0.57343 0.30548 0.69061 0.0
C573 C 0.56802 0.12757 0.78397 0.0
C574 C 0.56421 0.13306 0.81266 0.0
C575 C 0.55555 0.20317 0.82362 0.0
C576 C 0.55209 0.26779 0.80671 0.0
C577 C 0.55685 0.26111 0.77873 0.0
C578 C 0.56418 0.19232 0.76731 0.0
C579 C 0.56913 0.20144 0.73683 0.0
C580 C 0.59483 0.18245 0.73015 0.0
C581 C 0.55234 0.15174 0.71969 0.0
C582 C 0.56411 0.28666 0.73307 0.0
C583 C 0.55706 0.31999 0.75751 0.0
C584 C 0.55345 0.39925 0.75978 0.0
C585 C 0.55719 0.44558 0.73655 0.0
C586 C 0.56423 0.41265 0.71126 0.0
C587 C 0.56742 0.33195 0.70948 0.0
H588 H 0.06857 0.69001 0.15372 0.0
H589 H 0.08145 0.77732 0.0716 0.0
H590 H 0.08795 0.64481 0.05515 0.0
H591 H 0.11167 0.54511 0.15286 0.0
H592 H 0.09473 0.47474 0.17155 0.0
H593 H 0.08943 0.57601 0.17673 0.0
H594 H 0.04575 0.55669 0.16444 0.0
H595 H 0.05093 0.45517 0.15934 0.0
H596 H 0.03809 0.51196 0.13229 0.0
H597 H 0.09605 0.50502 0.04817 0.0
H598 H 0.10389 0.36525 0.05079 0.0
H599 H 0.08465 0.36573 0.13687 0.0
C600 C 0.07227 0.68112 0.13217 0.0
C601 C 0.07463 0.74446 0.11401 0.0
C602 C 0.07992 0.73022 0.08604 0.0
C603 C 0.08348 0.65496 0.07643 0.0
C604 C 0.08151 0.59415 0.09496 0.0
C605 C 0.07584 0.60611 0.12219 0.0
C606 C 0.07573 0.53057 0.13798 0.0
C607 C 0.09398 0.53171 0.16114 0.0
C608 C 0.05116 0.51254 0.14917 0.0
C609 C 0.08262 0.47462 0.11543 0.0
C610 C 0.08581 0.5127 0.09078 0.0
C611 C 0.09337 0.47442 0.06727 0.0
C612 C 0.09792 0.39519 0.06898 0.0
C613 C 0.09482 0.35477 0.09398 0.0
C614 C 0.0868 0.39504 0.11741 0.0
H615 H 0.41442 0.27757 0.10125 0.0
H616 H 0.44756 0.28521 0.18119 0.0
H617 H 0.443 0.4266 0.18213 0.0
H618 H 0.44077 0.44876 0.07506 0.0
H619 H 0.4153 0.48028 0.05643 0.0
H620 H 0.42 0.37903 0.06246 0.0
H621 H 0.37921 0.36869 0.08548 0.0
H622 H 0.37436 0.46996 0.07947 0.0
H623 H 0.37205 0.43154 0.11373 0.0
H624 H 0.43562 0.56548 0.17443 0.0
H625 H 0.42679 0.69605 0.15805 0.0
H626 H 0.39914 0.60187 0.08229 0.0
C627 C 0.4204 0.30902 0.11908 0.0
C628 C 0.43134 0.2705 0.1412 0.0
C629 C 0.43936 0.3137 0.16396 0.0
C630 C 0.4367 0.39388 0.16474 0.0
C631 C 0.42605 0.43012 0.14256 0.0
C632 C 0.41804 0.38941 0.12011 0.0
C633 C 0.40804 0.44333 0.09857 0.0
C634 C 0.42186 0.43749 0.07154 0.0
C635 C 0.38186 0.42742 0.09405 0.0
C636 C 0.41187 0.52067 0.11239 0.0
C637 C 0.42216 0.51128 0.13782 0.0
C638 C 0.4277 0.57363 0.15449 0.0
C639 C 0.42282 0.64777 0.14485 0.0
C640 C 0.41268 0.65947 0.11866 0.0
C641 C 0.40687 0.59475 0.10238 0.0
H642 H 0.09718 0.11451 0.43985 0.0
H643 H 0.05072 0.20882 0.37785 0.0
H644 H 0.04048 0.07808 0.36328 0.0
H645 H 0.11965 0.96443 0.39825 0.0
H646 H 0.12153 0.89415 0.4254 0.0
H647 H 0.12369 0.99535 0.43323 0.0
H648 H 0.08938 0.98262 0.46774 0.0
H649 H 0.08712 0.88123 0.46002 0.0
H650 H 0.06191 0.94276 0.45641 0.0
H651 H 0.03726 0.93851 0.35258 0.0
H652 H 0.0413 0.79798 0.34667 0.0
H653 H 0.09009 0.78995 0.4146 0.0
C654 C 0.08464 0.10787 0.42344 0.0
C655 C 0.07459 0.17319 0.41043 0.0
C656 C 0.05832 0.16096 0.38886 0.0
C657 C 0.05245 0.08638 0.3802 0.0
C658 C 0.06286 0.02379 0.39322 0.0
C659 C 0.07856 0.03344 0.41443 0.0
C660 C 0.08814 0.95598 0.42385 0.0
C661 C 0.11483 0.95229 0.41994 0.0
C662 C 0.08122 0.9397 0.45379 0.0
C663 C 0.07563 0.90161 0.40428 0.0
C664 C 0.06106 0.94229 0.38691 0.0
C665 C 0.04845 0.90596 0.36621 0.0
C666 C 0.05095 0.82614 0.36292 0.0
C667 C 0.06595 0.78291 0.38016 0.0
C668 C 0.07819 0.82124 0.40142 0.0
H669 H 0.37476 0.91514 0.40399 0.0
H670 H 0.44561 0.83209 0.41591 0.0
H671 H 0.46061 0.96458 0.41092 0.0
H672 H 0.3887 0.05468 0.35289 0.0
H673 H 0.36802 0.12571 0.3648 0.0
H674 H 0.36248 0.02476 0.37057 0.0
H675 H 0.35855 0.04984 0.42278 0.0
H676 H 0.36397 0.15101 0.41718 0.0
H677 H 0.38199 0.09751 0.44076 0.0
H678 H 0.46821 0.10394 0.40329 0.0
H679 H 0.46806 0.2433 0.39393 0.0
H680 H 0.39238 0.23868 0.38663 0.0
C681 C 0.39337 0.92514 0.40598 0.0
C682 C 0.40903 0.86316 0.41029 0.0
C683 C 0.43333 0.87842 0.41229 0.0
C684 C 0.442 0.95356 0.40963 0.0
C685 C 0.42617 0.01309 0.40501 0.0
C686 C 0.40237 1.00005 0.40327 0.0
C687 C 0.38932 0.07441 0.39735 0.0
C688 C 0.37637 0.06958 0.36976 0.0
C689 C 0.37246 0.09436 0.42093 0.0
C690 C 0.40954 0.13103 0.39596 0.0
C691 C 0.43061 0.09419 0.40047 0.0
C692 C 0.45183 0.13352 0.39973 0.0
C693 C 0.45156 0.2127 0.39417 0.0
C694 C 0.43022 0.25207 0.38935 0.0
C695 C 0.40893 0.21041 0.39045 0.0
H696 H 0.91344 0.65787 0.87313 0.0
H697 H 0.90578 0.65845 0.96162 0.0
H698 H 0.9144 0.51891 0.96284 0.0
H699 H 0.88516 0.47665 0.86265 0.0
H700 H 0.90395 0.44687 0.83485 0.0
H701 H 0.89896 0.54788 0.84104 0.0
H702 H 0.94359 0.57042 0.84478 0.0
H703 H 0.94876 0.46936 0.83865 0.0
H704 H 0.96041 0.51475 0.86896 0.0
H705 H 0.92311 0.37907 0.95454 0.0
H706 H 0.9288 0.24712 0.93728 0.0
H707 H 0.92883 0.33421 0.85369 0.0
C708 C 0.91392 0.62861 0.89275 0.0
C709 C 0.90903 0.66906 0.91734 0.0
C710 C 0.90934 0.62855 0.94257 0.0
C711 C 0.91436 0.54939 0.94346 0.0
C712 C 0.91889 0.511 0.9189 0.0
C713 C 0.91856 0.54902 0.89396 0.0
C714 C 0.92263 0.49294 0.87047 0.0
C715 C 0.90141 0.49098 0.85112 0.0
C716 C 0.9452 0.51308 0.8548 0.0
C717 C 0.92515 0.41754 0.88612 0.0
C718 C 0.92319 0.42958 0.91403 0.0
C719 C 0.92459 0.36891 0.9327 0.0
C720 C 0.92769 0.29376 0.92262 0.0
C721 C 0.92912 0.27911 0.89402 0.0
C722 C 0.92811 0.34263 0.87565 0.0
H723 H 0.56695 0.66211 0.85153 0.0
H724 H 0.58853 0.75451 0.93031 0.0
H725 H 0.59555 0.62303 0.9472 0.0
H726 H 0.53708 0.49103 0.87954 0.0
H727 H 0.54633 0.42909 0.85189 0.0
H728 H 0.54199 0.53057 0.84579 0.0
H729 H 0.58426 0.54245 0.82716 0.0
H730 H 0.58867 0.44099 0.83295 0.0
H731 H 0.60836 0.51024 0.84804 0.0
H732 H 0.60263 0.48339 0.95497 0.0
H733 H 0.60841 0.34244 0.95342 0.0
H734 H 0.58115 0.33708 0.87048 0.0
C735 C 0.57281 0.6546 0.87245 0.0
C736 C 0.57741 0.71919 0.88944 0.0
C737 C 0.58533 0.70659 0.91663 0.0
C738 C 0.58919 0.63187 0.92654 0.0
C739 C 0.58488 0.5698 0.90917 0.0
C740 C 0.57671 0.58003 0.88276 0.0
C741 C 0.57407 0.50295 0.86822 0.0
C742 C 0.54834 0.48752 0.86094 0.0
C743 C 0.58978 0.49895 0.84258 0.0
C744 C 0.58251 0.44824 0.89044 0.0
C745 C 0.58855 0.48827 0.9139 0.0
C746 C 0.59778 0.45128 0.93682 0.0
C747 C 0.60112 0.37132 0.93571 0.0
C748 C 0.59519 0.32884 0.91191 0.0
C749 C 0.58549 0.36792 0.8891 0.0
H750 H 0.87737 0.92295 0.59124 0.0
H751 H 0.92783 0.82835 0.64873 0.0
H752 H 0.94074 0.95867 0.66047 0.0
H753 H 0.91336 0.07878 0.56742 0.0
H754 H 0.88966 0.14697 0.56502 0.0
H755 H 0.88401 0.04548 0.56084 0.0
H756 H 0.85307 0.05126 0.59974 0.0
H757 H 0.85868 0.15278 0.6041 0.0
H758 H 0.86129 0.08825 0.63293 0.0
H759 H 0.94843 0.09744 0.66659 0.0
H760 H 0.9512 0.23919 0.66538 0.0
H761 H 0.89588 0.24678 0.60455 0.0
C762 C 0.89098 0.92962 0.60646 0.0
C763 C 0.90165 0.86471 0.61878 0.0
C764 C 0.91962 0.87636 0.63842 0.0
C765 C 0.92698 0.95049 0.64552 0.0
C766 C 0.91612 0.01285 0.63306 0.0
C767 C 0.89854 1.0036 0.61393 0.0
C768 C 0.8902 0.08106 0.60336 0.0
C769 C 0.89458 0.08849 0.57232 0.0
C770 C 0.86427 0.09409 0.61046 0.0
C771 C 0.90591 0.13482 0.61954 0.0
C772 C 0.92065 0.09399 0.63659 0.0
C773 C 0.93702 0.13026 0.65329 0.0
C774 C 0.93855 0.2107 0.65236 0.0
C775 C 0.92383 0.254 0.63484 0.0
C776 C 0.90716 0.21534 0.61841 0.0
H777 H 0.59478 0.80387 0.63461 0.0
H778 H 0.51883 0.80112 0.63619 0.0
H779 H 0.51822 0.94091 0.62769 0.0
H780 H 0.60166 0.98633 0.66868 0.0
H781 H 0.62639 0.01611 0.64825 0.0
H782 H 0.62102 0.91509 0.65413 0.0
H783 H 0.62059 0.89123 0.60163 0.0
H784 H 0.62589 0.99228 0.59562 0.0
H785 H 0.60087 0.9459 0.58034 0.0
H786 H 0.52545 0.0802 0.61962 0.0
H787 H 0.54021 0.21227 0.61286 0.0
H788 H 0.61159 0.1276 0.61621 0.0
C789 C 0.57805 0.83266 0.63293 0.0
C790 C 0.55685 0.79137 0.63625 0.0
C791 C 0.5353 0.83141 0.63422 0.0
C792 C 0.53476 0.91085 0.62917 0.0
C793 C 0.5559 0.94977 0.62616 0.0
C794 C 0.57717 0.91231 0.62797 0.0
C795 C 0.59731 0.96861 0.62441 0.0
C796 C 0.61248 0.9717 0.65042 0.0
C797 C 0.61203 0.94828 0.59898 0.0
C798 C 0.58398 0.04337 0.6203 0.0
C799 C 0.56012 0.03089 0.6214 0.0
C800 C 0.5441 0.09079 0.61873 0.0
C801 C 0.55267 0.16571 0.61505 0.0
C802 C 0.57705 0.18043 0.6141 0.0
C803 C 0.59288 0.11807 0.61652 0.0
loop_
_geom_bond_atom_site_label_1
_geom_bond_atom_site_label_2
_geom_bond_distance
_geom_bond_site_symmetry_2
_ccdc_geom_bond_type
C0 C1 1.351 . S
C0 N3 1.368 . S
C0 H5 0.931 . S
C1 C0 1.351 . S
C1 N2 1.373 . S
C1 H29 0.930 . S
N2 C1 1.373 . S
N2 C4 1.340 . S
N3 C0 1.368 . S
N3 C4 1.321 . S
N3 Co6 2.135 . S
C4 N2 1.340 . S
C4 N3 1.321 . S
C4 H28 0.930 . S
H5 C0 0.931 . S
Co6 N3 2.135 . S
Co6 N9 2.121 1_545 S
Co6 O14 2.055 . S
Co6 O17 2.039 . S
Co6 N20 2.140 . S
C7 O8 1.227 . S
C7 O17 1.265 . S
O8 C7 1.227 . S
N9 Co6 2.121 1_565 S
N9 C11 1.375 . S
N9 C12 1.313 . S
C10 C11 1.338 . S
C10 N13 1.377 . S
C10 H30 0.930 . S
C11 N9 1.375 . S
C11 C10 1.338 . S
C11 H15 0.931 . S
C12 N9 1.313 . S
C12 N13 1.344 . S
C12 H16 0.930 . S
N13 C10 1.377 . S
N13 C12 1.344 . S
O14 Co6 2.055 . S
O14 C18 1.253 . S
H15 C11 0.931 . S
H16 C12 0.930 . S
O17 Co6 2.039 . S
O17 C7 1.265 . S
C18 O14 1.253 . S
C18 O19 1.227 . S
O19 C18 1.227 . S
N20 Co6 2.140 . S
N20 C23 1.346 . S
N20 C24 1.345 . S
C21 C22 1.387 . S
C21 C25 1.391 . S
C22 C21 1.387 . S
C22 C23 1.369 . S
C22 H31 0.929 . S
C23 N20 1.346 . S
C23 C22 1.369 . S
C23 H26 0.928 . S
C24 N20 1.345 . S
C24 C25 1.371 . S
C24 H27 0.931 1_545 S
C25 C21 1.391 . S
C25 C24 1.371 . S
C25 H32 0.930 1_545 S
H26 C23 0.928 . S
H27 C24 0.931 1_565 S
H28 C4 0.930 . S
H29 C1 0.930 . S
H30 C10 0.930 . S
H31 C22 0.929 . S
H32 C25 0.930 1_565 S
C33 C34 1.351 . S
C33 N36 1.368 . S
C33 H38 0.931 . S
C34 C33 1.351 . S
C34 N35 1.373 . S
C34 H62 0.930 . S
N35 C34 1.373 . S
N35 C37 1.340 . S
N36 C33 1.368 . S
N36 C37 1.321 . S
N36 Co39 2.135 . S
C37 N35 1.340 . S
C37 N36 1.321 . S
C37 H61 0.930 . S
H38 C33 0.931 . S
Co39 N36 2.135 . S
Co39 N42 2.121 1_565 S
Co39 O47 2.055 . S
Co39 O50 2.039 . S
Co39 N53 2.140 . S
C40 O41 1.227 . S
C40 O50 1.265 . S
O41 C40 1.227 . S
N42 Co39 2.121 1_545 S
N42 C44 1.375 . S
N42 C45 1.313 . S
C43 C44 1.338 . S
C43 N46 1.377 . S
C43 H63 0.930 . S
C44 N42 1.375 . S
C44 C43 1.338 . S
C44 H48 0.931 . S
C45 N42 1.313 . S
C45 N46 1.344 . S
C45 H49 0.930 . S
N46 C43 1.377 . S
N46 C45 1.344 . S
O47 Co39 2.055 . S
O47 C51 1.253 . S
H48 C44 0.931 . S
H49 C45 0.930 . S
O50 Co39 2.039 . S
O50 C40 1.265 . S
C51 O47 1.253 . S
C51 O52 1.227 . S
O52 C51 1.227 . S
N53 Co39 2.140 . S
N53 C56 1.346 . S
N53 C57 1.345 . S
C54 C55 1.387 . S
C54 C58 1.391 . S
C55 C54 1.387 . S
C55 C56 1.369 . S
C55 H64 0.929 . S
C56 N53 1.346 . S
C56 C55 1.369 . S
C56 H59 0.928 . S
C57 N53 1.345 . S
C57 C58 1.371 . S
C57 H60 0.931 1_565 S
C58 C54 1.391 . S
C58 C57 1.371 . S
C58 H65 0.930 1_565 S
H59 C56 0.928 . S
H60 C57 0.931 1_545 S
H61 C37 0.930 . S
H62 C34 0.930 . S
H63 C43 0.930 . S
H64 C55 0.929 . S
H65 C58 0.930 1_545 S
C66 C67 1.351 . S
C66 N69 1.368 . S
C66 H71 0.931 . S
C67 C66 1.351 . S
C67 N68 1.373 . S
C67 H95 0.930 . S
N68 C67 1.373 . S
N68 C70 1.340 . S
N69 C66 1.368 . S
N69 C70 1.321 . S
N69 Co72 2.135 . S
C70 N68 1.340 . S
C70 N69 1.321 . S
C70 H94 0.930 . S
H71 C66 0.931 . S
Co72 N69 2.135 . S
Co72 N75 2.121 . S
Co72 O80 2.055 . S
Co72 O83 2.039 . S
Co72 N86 2.140 . S
C73 O74 1.227 . S
C73 O83 1.265 . S
O74 C73 1.227 . S
N75 Co72 2.121 . S
N75 C77 1.375 . S
N75 C78 1.313 . S
C76 C77 1.338 . S
C76 N79 1.377 . S
C76 H96 0.930 . S
C77 N75 1.375 . S
C77 C76 1.338 . S
C77 H81 0.931 . S
C78 N75 1.313 . S
C78 N79 1.344 . S
C78 H82 0.930 . S
N79 C76 1.377 . S
N79 C78 1.344 . S
O80 Co72 2.055 . S
O80 C84 1.253 . S
H81 C77 0.931 . S
H82 C78 0.930 . S
O83 Co72 2.039 . S
O83 C73 1.265 . S
C84 O80 1.253 . S
C84 O85 1.227 . S
O85 C84 1.227 . S
N86 Co72 2.140 . S
N86 C89 1.346 . S
N86 C90 1.345 . S
C87 C88 1.387 . S
C87 C91 1.391 . S
C88 C87 1.387 . S
C88 C89 1.369 . S
C88 H97 0.929 . S
C89 N86 1.346 . S
C89 C88 1.369 . S
C89 H92 0.928 . S
C90 N86 1.345 . S
C90 C91 1.371 . S
C90 H93 0.931 . S
C91 C87 1.391 . S
C91 C90 1.371 . S
C91 H98 0.930 . S
H92 C89 0.928 . S
H93 C90 0.931 . S
H94 C70 0.930 . S
H95 C67 0.930 . S
H96 C76 0.930 . S
H97 C88 0.929 . S
H98 C91 0.930 . S
C99 C100 1.351 . S
C99 N102 1.368 . S
C99 H104 0.931 . S
C100 C99 1.351 . S
C100 N101 1.373 . S
C100 H128 0.930 . S
N101 C100 1.373 . S
N101 C103 1.340 . S
N102 C99 1.368 . S
N102 C103 1.321 . S
N102 Co105 2.135 . S
C103 N101 1.340 . S
C103 N102 1.321 . S
C103 H127 0.930 . S
H104 C99 0.931 . S
Co105 N102 2.135 . S
Co105 N108 2.121 . S
Co105 O113 2.055 . S
Co105 O116 2.039 . S
Co105 N119 2.140 . S
C106 O107 1.227 . S
C106 O116 1.265 . S
O107 C106 1.227 . S
N108 Co105 2.121 . S
N108 C110 1.375 . S
N108 C111 1.313 . S
C109 C110 1.338 . S
C109 N112 1.377 . S
C109 H129 0.930 . S
C110 N108 1.375 . S
C110 C109 1.338 . S
C110 H114 0.931 . S
C111 N108 1.313 . S
C111 N112 1.344 . S
C111 H115 0.930 . S
N112 C109 1.377 . S
N112 C111 1.344 . S
O113 Co105 2.055 . S
O113 C117 1.253 . S
H114 C110 0.931 . S
H115 C111 0.930 . S
O116 Co105 2.039 . S
O116 C106 1.265 . S
C117 O113 1.253 . S
C117 O118 1.227 . S
O118 C117 1.227 . S
N119 Co105 2.140 . S
N119 C122 1.346 . S
N119 C123 1.345 . S
C120 C121 1.387 . S
C120 C124 1.391 . S
C121 C120 1.387 . S
C121 C122 1.369 . S
C121 H130 0.929 . S
C122 N119 1.346 . S
C122 C121 1.369 . S
C122 H125 0.928 . S
C123 N119 1.345 . S
C123 C124 1.371 . S
C123 H126 0.931 . S
C124 C120 1.391 . S
C124 C123 1.371 . S
C124 H131 0.930 . S
H125 C122 0.928 . S
H126 C123 0.931 . S
H127 C103 0.930 . S
H128 C100 0.930 . S
H129 C109 0.930 . S
H130 C121 0.929 . S
H131 C124 0.930 . S
C132 C133 1.351 . S
C132 N135 1.368 . S
C132 H137 0.931 . S
C133 C132 1.351 . S
C133 N134 1.373 . S
C133 H161 0.930 . S
N134 C133 1.373 . S
N134 C136 1.340 . S
N135 C132 1.368 . S
N135 C136 1.321 . S
N135 Co138 2.135 . S
C136 N134 1.340 . S
C136 N135 1.321 . S
C136 H160 0.930 . S
H137 C132 0.931 . S
Co138 N135 2.135 . S
Co138 N141 2.121 1_565 S
Co138 O146 2.055 . S
Co138 O149 2.039 . S
Co138 N152 2.140 . S
C139 O140 1.227 . S
C139 O149 1.265 . S
O140 C139 1.227 . S
N141 Co138 2.121 1_545 S
N141 C143 1.375 . S
N141 C144 1.313 . S
C142 C143 1.338 . S
C142 N145 1.377 . S
C142 H162 0.930 . S
C143 N141 1.375 . S
C143 C142 1.338 . S
C143 H147 0.931 . S
C144 N141 1.313 . S
C144 N145 1.344 . S
C144 H148 0.930 . S
N145 C142 1.377 . S
N145 C144 1.344 . S
O146 Co138 2.055 . S
O146 C150 1.253 . S
H147 C143 0.931 . S
H148 C144 0.930 . S
O149 Co138 2.039 . S
O149 C139 1.265 . S
C150 O146 1.253 . S
C150 O151 1.227 . S
O151 C150 1.227 . S
N152 Co138 2.140 . S
N152 C155 1.346 . S
N152 C156 1.345 . S
C153 C154 1.387 . S
C153 C157 1.391 . S
C154 C153 1.387 . S
C154 C155 1.369 . S
C154 H163 0.929 . S
C155 N152 1.346 . S
C155 C154 1.369 . S
C155 H158 0.928 . S
C156 N152 1.345 . S
C156 C157 1.371 . S
C156 H159 0.931 1_565 S
C157 C153 1.391 . S
C157 C156 1.371 . S
C157 H164 0.930 1_565 S
H158 C155 0.928 . S
H159 C156 0.931 1_545 S
H160 C136 0.930 . S
H161 C133 0.930 . S
H162 C142 0.930 . S
H163 C154 0.929 . S
H164 C157 0.930 1_545 S
C165 C166 1.351 . S
C165 N168 1.368 . S
C165 H170 0.931 . S
C166 C165 1.351 . S
C166 N167 1.373 . S
C166 H194 0.930 . S
N167 C166 1.373 . S
N167 C169 1.340 . S
N168 C165 1.368 . S
N168 C169 1.321 . S
N168 Co171 2.135 . S
C169 N167 1.340 . S
C169 N168 1.321 . S
C169 H193 0.930 . S
H170 C165 0.931 . S
Co171 N168 2.135 . S
Co171 N174 2.121 1_545 S
Co171 O179 2.055 . S
Co171 O182 2.039 . S
Co171 N185 2.140 . S
C172 O173 1.227 . S
C172 O182 1.265 . S
O173 C172 1.227 . S
N174 Co171 2.121 1_565 S
N174 C176 1.375 . S
N174 C177 1.313 . S
C175 C176 1.338 . S
C175 N178 1.377 . S
C175 H195 0.930 . S
C176 N174 1.375 . S
C176 C175 1.338 . S
C176 H180 0.931 . S
C177 N174 1.313 . S
C177 N178 1.344 . S
C177 H181 0.930 . S
N178 C175 1.377 . S
N178 C177 1.344 . S
O179 Co171 2.055 . S
O179 C183 1.253 . S
H180 C176 0.931 . S
H181 C177 0.930 . S
O182 Co171 2.039 . S
O182 C172 1.265 . S
C183 O179 1.253 . S
C183 O184 1.227 . S
O184 C183 1.227 . S
N185 Co171 2.140 . S
N185 C188 1.346 . S
N185 C189 1.345 . S
C186 C187 1.387 . S
C186 C190 1.391 . S
C187 C186 1.387 . S
C187 C188 1.369 . S
C187 H196 0.929 . S
C188 N185 1.346 . S
C188 C187 1.369 . S
C188 H191 0.928 . S
C189 N185 1.345 . S
C189 C190 1.371 . S
C189 H192 0.931 1_545 S
C190 C186 1.391 . S
C190 C189 1.371 . S
C190 H197 0.930 1_545 S
H191 C188 0.928 . S
H192 C189 0.931 1_565 S
H193 C169 0.930 . S
H194 C166 0.930 . S
H195 C175 0.930 . S
H196 C187 0.929 . S
H197 C190 0.930 1_565 S
C198 C199 1.351 . S
C198 N201 1.368 . S
C198 H203 0.931 . S
C199 C198 1.351 . S
C199 N200 1.373 . S
C199 H227 0.930 . S
N200 C199 1.373 . S
N200 C202 1.340 . S
N201 C198 1.368 . S
N201 C202 1.321 . S
N201 Co204 2.135 . S
C202 N200 1.340 . S
C202 N201 1.321 . S
C202 H226 0.930 . S
H203 C198 0.931 . S
Co204 N201 2.135 . S
Co204 N207 2.121 . S
Co204 O212 2.055 . S
Co204 O215 2.039 . S
Co204 N218 2.140 . S
C205 O206 1.227 . S
C205 O215 1.265 . S
O206 C205 1.227 . S
N207 Co204 2.121 . S
N207 C209 1.375 . S
N207 C210 1.313 . S
C208 C209 1.338 . S
C208 N211 1.377 . S
C208 H228 0.930 . S
C209 N207 1.375 . S
C209 C208 1.338 . S
C209 H213 0.931 . S
C210 N207 1.313 . S
C210 N211 1.344 . S
C210 H214 0.930 . S
N211 C208 1.377 . S
N211 C210 1.344 . S
O212 Co204 2.055 . S
O212 C216 1.253 . S
H213 C209 0.931 . S
H214 C210 0.930 . S
O215 Co204 2.039 . S
O215 C205 1.265 . S
C216 O212 1.253 . S
C216 O217 1.227 . S
O217 C216 1.227 . S
N218 Co204 2.140 . S
N218 C221 1.346 . S
N218 C222 1.345 . S
C219 C220 1.387 . S
C219 C223 1.391 . S
C220 C219 1.387 . S
C220 C221 1.369 . S
C220 H229 0.929 . S
C221 N218 1.346 . S
C221 C220 1.369 . S
C221 H224 0.928 . S
C222 N218 1.345 . S
C222 C223 1.371 . S
C222 H225 0.931 . S
C223 C219 1.391 . S
C223 C222 1.371 . S
C223 H230 0.930 . S
H224 C221 0.928 . S
H225 C222 0.931 . S
H226 C202 0.930 . S
H227 C199 0.930 . S
H228 C208 0.930 . S
H229 C220 0.929 . S
H230 C223 0.930 . S
C231 C232 1.351 . S
C231 N234 1.368 . S
C231 H236 0.931 . S
C232 C231 1.351 . S
C232 N233 1.373 . S
C232 H260 0.930 . S
N233 C232 1.373 . S
N233 C235 1.340 . S
N234 C231 1.368 . S
N234 C235 1.321 . S
N234 Co237 2.135 . S
C235 N233 1.340 . S
C235 N234 1.321 . S
C235 H259 0.930 . S
H236 C231 0.931 . S
Co237 N234 2.135 . S
Co237 N240 2.121 . S
Co237 O245 2.055 . S
Co237 O248 2.039 . S
Co237 N251 2.140 . S
C238 O239 1.227 . S
C238 O248 1.265 . S
O239 C238 1.227 . S
N240 Co237 2.121 . S
N240 C242 1.375 . S
N240 C243 1.313 . S
C241 C242 1.338 . S
C241 N244 1.377 . S
C241 H261 0.930 . S
C242 N240 1.375 . S
C242 C241 1.338 . S
C242 H246 0.931 . S
C243 N240 1.313 . S
C243 N244 1.344 . S
C243 H247 0.930 . S
N244 C241 1.377 . S
N244 C243 1.344 . S
O245 Co237 2.055 . S
O245 C249 1.253 . S
H246 C242 0.931 . S
H247 C243 0.930 . S
O248 Co237 2.039 . S
O248 C238 1.265 . S
C249 O245 1.253 . S
C249 O250 1.227 . S
O250 C249 1.227 . S
N251 Co237 2.140 . S
N251 C254 1.346 . S
N251 C255 1.345 . S
C252 C253 1.387 . S
C252 C256 1.391 . S
C253 C252 1.387 . S
C253 C254 1.369 . S
C253 H262 0.929 . S
C254 N251 1.346 . S
C254 C253 1.369 . S
C254 H257 0.928 . S
C255 N251 1.345 . S
C255 C256 1.371 . S
C255 H258 0.931 . S
C256 C252 1.391 . S
C256 C255 1.371 . S
C256 H263 0.930 . S
H257 C254 0.928 . S
H258 C255 0.931 . S
H259 C235 0.930 . S
H260 C232 0.930 . S
H261 C241 0.930 . S
H262 C253 0.929 . S
H263 C256 0.930 . S
H264 C276 0.930 . S
H265 C278 0.930 . S
H266 C279 0.930 1_565 S
H267 C283 0.959 . S
H268 C283 0.959 . S
H269 C283 0.961 . S
H270 C284 0.960 . S
H271 C284 0.961 . S
H272 C284 0.959 . S
H273 C287 0.929 . S
H274 C288 0.931 . S
H275 C290 0.930 . S
C276 H264 0.930 . S
C276 C277 1.399 . S
C276 C281 1.399 . S
C277 C276 1.399 . S
C277 C278 1.376 . S
C278 H265 0.930 . S
C278 C277 1.376 . S
C278 C279 1.388 . S
C279 H266 0.930 1_545 S
C279 C278 1.388 . S
C279 C280 1.389 1_545 S
C280 C279 1.389 1_565 S
C280 C281 1.393 1_565 S
C280 C286 1.466 . S
C281 C276 1.399 . S
C281 C280 1.393 1_545 S
C281 C282 1.517 . S
C282 C281 1.517 . S
C282 C283 1.503 . S
C282 C284 1.560 1_545 S
C282 C285 1.525 1_545 S
C283 H267 0.959 . S
C283 H268 0.959 . S
C283 H269 0.961 . S
C283 C282 1.503 . S
C284 H270 0.960 . S
C284 H271 0.961 . S
C284 H272 0.959 . S
C284 C282 1.560 1_565 S
C285 C282 1.525 1_565 S
C285 C286 1.396 . S
C285 C290 1.390 . S
C286 C280 1.466 . S
C286 C285 1.396 . S
C286 C287 1.399 . S
C287 H273 0.929 . S
C287 C286 1.399 . S
C287 C288 1.385 . S
C288 H274 0.931 . S
C288 C287 1.385 . S
C288 C289 1.389 . S
C289 C288 1.389 . S
C289 C290 1.387 . S
C290 H275 0.930 . S
C290 C285 1.390 . S
C290 C289 1.387 . S
H291 C303 0.930 . S
H292 C305 0.930 . S
H293 C306 0.930 . S
H294 C310 0.959 . S
H295 C310 0.959 . S
H296 C310 0.961 . S
H297 C311 0.960 . S
H298 C311 0.961 . S
H299 C311 0.959 . S
H300 C314 0.929 . S
H301 C315 0.931 . S
H302 C317 0.930 . S
C303 H291 0.930 . S
C303 C304 1.399 . S
C303 C308 1.399 . S
C304 C303 1.399 . S
C304 C305 1.376 . S
C305 H292 0.930 . S
C305 C304 1.376 . S
C305 C306 1.388 . S
C306 H293 0.930 . S
C306 C305 1.388 . S
C306 C307 1.390 . S
C307 C306 1.390 . S
C307 C308 1.394 . S
C307 C313 1.465 . S
C308 C303 1.399 . S
C308 C307 1.394 . S
C308 C309 1.516 . S
C309 C308 1.516 . S
C309 C310 1.502 . S
C309 C311 1.561 . S
C309 C312 1.526 . S
C310 H294 0.959 . S
C310 H295 0.959 . S
C310 H296 0.961 . S
C310 C309 1.502 . S
C311 H297 0.960 . S
C311 H298 0.961 . S
C311 H299 0.959 . S
C311 C309 1.561 . S
C312 C309 1.526 . S
C312 C313 1.396 . S
C312 C317 1.390 . S
C313 C307 1.465 . S
C313 C312 1.396 . S
C313 C314 1.399 . S
C314 H300 0.929 . S
C314 C313 1.399 . S
C314 C315 1.385 . S
C315 H301 0.931 . S
C315 C314 1.385 . S
C315 C316 1.389 . S
C316 C315 1.389 . S
C316 C317 1.387 . S
C317 H302 0.930 . S
C317 C312 1.390 . S
C317 C316 1.387 . S
H318 C330 0.930 . S
H319 C332 0.930 . S
H320 C333 0.930 . S
H321 C337 0.959 . S
H322 C337 0.959 . S
H323 C337 0.961 . S
H324 C338 0.960 . S
H325 C338 0.961 . S
H326 C338 0.959 . S
H327 C341 0.929 . S
H328 C342 0.931 . S
H329 C344 0.930 . S
C330 H318 0.930 . S
C330 C331 1.399 . S
C330 C335 1.399 . S
C331 C330 1.399 . S
C331 C332 1.376 . S
C332 H319 0.930 . S
C332 C331 1.376 . S
C332 C333 1.388 . S
C333 H320 0.930 . S
C333 C332 1.388 . S
C333 C334 1.390 . S
C334 C333 1.390 . S
C334 C335 1.394 . S
C334 C340 1.465 . S
C335 C330 1.399 . S
C335 C334 1.394 . S
C335 C336 1.516 1_565 S
C336 C335 1.516 1_545 S
C336 C337 1.502 . S
C336 C338 1.561 1_545 S
C336 C339 1.526 . S
C337 H321 0.959 . S
C337 H322 0.959 . S
C337 H323 0.961 . S
C337 C336 1.502 . S
C338 H324 0.960 . S
C338 H325 0.961 . S
C338 H326 0.959 . S
C338 C336 1.561 1_565 S
C339 C336 1.526 . S
C339 C340 1.396 1_545 S
C339 C344 1.390 . S
C340 C334 1.465 . S
C340 C339 1.396 1_565 S
C340 C341 1.399 . S
C341 H327 0.929 . S
C341 C340 1.399 . S
C341 C342 1.385 1_565 S
C342 H328 0.931 . S
C342 C341 1.385 1_545 S
C342 C343 1.389 . S
C343 C342 1.389 . S
C343 C344 1.387 . S
C344 H329 0.930 . S
C344 C339 1.390 . S
C344 C343 1.387 . S
H345 C357 0.930 . S
H346 C359 0.930 . S
H347 C360 0.930 . S
H348 C364 0.959 . S
H349 C364 0.959 . S
H350 C364 0.961 . S
H351 C365 0.960 . S
H352 C365 0.961 . S
H353 C365 0.959 . S
H354 C368 0.929 . S
H355 C369 0.931 . S
H356 C371 0.930 . S
C357 H345 0.930 . S
C357 C358 1.399 . S
C357 C362 1.399 . S
C358 C357 1.399 . S
C358 C359 1.376 . S
C359 H346 0.930 . S
C359 C358 1.376 . S
C359 C360 1.388 . S
C360 H347 0.930 . S
C360 C359 1.388 . S
C360 C361 1.390 . S
C361 C360 1.390 . S
C361 C362 1.394 . S
C361 C367 1.465 . S
C362 C357 1.399 . S
C362 C361 1.394 . S
C362 C363 1.516 . S
C363 C362 1.516 . S
C363 C364 1.502 . S
C363 C365 1.561 . S
C363 C366 1.526 . S
C364 H348 0.959 . S
C364 H349 0.959 . S
C364 H350 0.961 . S
C364 C363 1.502 . S
C365 H351 0.960 . S
C365 H352 0.961 . S
C365 H353 0.959 . S
C365 C363 1.561 . S
C366 C363 1.526 . S
C366 C367 1.396 . S
C366 C371 1.390 . S
C367 C361 1.465 . S
C367 C366 1.396 . S
C367 C368 1.399 . S
C368 H354 0.929 . S
C368 C367 1.399 . S
C368 C369 1.385 . S
C369 H355 0.931 . S
C369 C368 1.385 . S
C369 C370 1.389 . S
C370 C369 1.389 . S
C370 C371 1.387 . S
C371 H356 0.930 . S
C371 C366 1.390 . S
C371 C370 1.387 . S
H372 C384 0.930 . S
H373 C386 0.930 . S
H374 C387 0.930 1_556 S
H375 C391 0.994 . S
H376 C391 0.959 1_655 S
H377 C391 0.961 . S
H378 C392 0.960 . S
H379 C392 0.961 . S
H380 C392 0.959 . S
H381 C395 0.929 . S
H382 C396 0.931 . S
H383 C398 0.930 . S
C384 H372 0.930 . S
C384 C385 1.399 1_565 S
C384 C389 1.399 . S
C385 C384 1.399 1_545 S
C385 C386 1.376 . S
C386 H373 0.930 . S
C386 C385 1.376 . S
C386 C387 1.388 . S
C387 H374 0.930 1_554 S
C387 C386 1.388 . S
C387 C388 1.390 . S
C388 C387 1.390 . S
C388 C389 1.394 1_545 S
C388 C394 1.465 1_454 S
C389 C384 1.399 . S
C389 C388 1.394 1_565 S
C389 C390 1.516 1_455 S
C390 C389 1.516 1_655 S
C390 C391 1.502 1_655 S
C390 C392 1.561 . S
C390 C393 1.526 1_554 S
C391 H375 0.994 . S
C391 H376 0.959 1_455 S
C391 H377 0.961 . S
C391 C390 1.502 1_455 S
C392 H378 0.960 . S
C392 H379 0.961 . S
C392 H380 0.959 . S
C392 C390 1.561 . S
C393 C390 1.526 1_556 S
C393 C394 1.396 1_565 S
C393 C398 1.390 . S
C394 C388 1.465 1_656 S
C394 C393 1.396 1_545 S
C394 C395 1.399 . S
C395 H381 0.929 . S
C395 C394 1.399 . S
C395 C396 1.385 . S
C396 H382 0.931 . S
C396 C395 1.385 . S
C396 C397 1.389 1_545 S
C397 C396 1.389 1_565 S
C397 C398 1.387 . S
C398 H383 0.930 . S
C398 C393 1.390 . S
C398 C397 1.387 . S
H399 C411 0.930 . S
H400 C413 0.930 . S
H401 C414 0.930 . S
H402 C418 0.959 . S
H403 C418 0.959 . S
H404 C418 0.961 . S
H405 C419 0.960 1_554 S
H406 C419 0.961 . S
H407 C419 0.959 1_554 S
H408 C422 0.929 1_554 S
H409 C423 0.931 . S
H410 C425 0.930 . S
C411 H399 0.930 . S
C411 C412 1.399 1_545 S
C411 C416 1.399 . S
C412 C411 1.399 1_565 S
C412 C413 1.376 . S
C413 H400 0.930 . S
C413 C412 1.376 . S
C413 C414 1.388 . S
C414 H401 0.930 . S
C414 C413 1.388 . S
C414 C415 1.390 . S
C415 C414 1.390 . S
C415 C416 1.394 1_565 S
C415 C421 1.465 1_554 S
C416 C411 1.399 . S
C416 C415 1.394 1_545 S
C416 C417 1.516 1_554 S
C417 C416 1.516 1_556 S
C417 C418 1.502 . S
C417 C419 1.561 . S
C417 C420 1.526 . S
C418 H402 0.959 . S
C418 H403 0.959 . S
C418 H404 0.961 . S
C418 C417 1.502 . S
C419 H405 0.960 1_556 S
C419 H406 0.961 . S
C419 H407 0.959 1_556 S
C419 C417 1.561 . S
C420 C417 1.526 . S
C420 C421 1.396 1_545 S
C420 C425 1.390 . S
C421 C415 1.465 1_556 S
C421 C420 1.396 1_565 S
C421 C422 1.399 . S
C422 H408 0.929 1_556 S
C422 C421 1.399 . S
C422 C423 1.385 . S
C423 H409 0.931 . S
C423 C422 1.385 . S
C423 C424 1.389 1_565 S
C424 C423 1.389 1_545 S
C424 C425 1.387 . S
C425 H410 0.930 . S
C425 C420 1.390 . S
C425 C424 1.387 . S
H426 C438 0.930 . S
H427 C440 0.930 . S
H428 C441 0.930 1_655 S
H429 C445 0.959 . S
H430 C445 0.959 . S
H431 C445 0.961 . S
H432 C446 0.958 1_455 S
H433 C446 0.962 . S
H434 C446 0.961 . S
H435 C449 0.929 . S
H436 C450 0.931 . S
H437 C452 0.930 . S
C438 H426 0.930 . S
C438 C439 1.399 . S
C438 C443 1.399 . S
C439 C438 1.399 . S
C439 C440 1.376 . S
C440 H427 0.930 . S
C440 C439 1.376 . S
C440 C441 1.388 . S
C441 H428 0.930 1_455 S
C441 C440 1.388 . S
C441 C442 1.390 . S
C442 C441 1.390 . S
C442 C443 1.394 . S
C442 C448 1.465 1_455 S
C443 C438 1.399 . S
C443 C442 1.394 . S
C443 C444 1.516 . S
C444 C443 1.516 . S
C444 C445 1.502 . S
C444 C446 1.560 1_455 S
C444 C447 1.526 1_455 S
C445 H429 0.959 . S
C445 H430 0.959 . S
C445 H431 0.961 . S
C445 C444 1.502 . S
C446 H432 0.958 1_655 S
C446 H433 0.962 . S
C446 H434 0.961 . S
C446 C444 1.560 1_655 S
C447 C444 1.526 1_655 S
C447 C448 1.396 . S
C447 C452 1.390 . S
C448 C442 1.465 1_655 S
C448 C447 1.396 . S
C448 C449 1.399 . S
C449 H435 0.929 . S
C449 C448 1.399 . S
C449 C450 1.385 . S
C450 H436 0.931 . S
C450 C449 1.385 . S
C450 C451 1.389 . S
C451 C450 1.389 . S
C451 C452 1.387 . S
C452 H437 0.930 . S
C452 C447 1.390 . S
C452 C451 1.387 . S
H453 C465 0.930 . S
H454 C467 0.930 . S
H455 C468 0.930 . S
H456 C472 0.959 . S
H457 C472 0.959 . S
H458 C472 0.961 . S
H459 C473 0.960 . S
H460 C473 0.961 . S
H461 C473 0.959 . S
H462 C476 0.929 . S
H463 C477 0.931 . S
H464 C479 0.930 . S
C465 H453 0.930 . S
C465 C466 1.399 . S
C465 C470 1.399 . S
C466 C465 1.399 . S
C466 C467 1.376 . S
C467 H454 0.930 . S
C467 C466 1.376 . S
C467 C468 1.388 . S
C468 H455 0.930 . S
C468 C467 1.388 . S
C468 C469 1.390 . S
C469 C468 1.390 . S
C469 C470 1.394 . S
C469 C475 1.465 . S
C470 C465 1.399 . S
C470 C469 1.394 . S
C470 C471 1.516 . S
C471 C470 1.516 . S
C471 C472 1.502 . S
C471 C473 1.561 . S
C471 C474 1.526 . S
C472 H456 0.959 . S
C472 H457 0.959 . S
C472 H458 0.961 . S
C472 C471 1.502 . S
C473 H459 0.960 . S
C473 H460 0.961 . S
C473 H461 0.959 . S
C473 C471 1.561 . S
C474 C471 1.526 . S
C474 C475 1.396 . S
C474 C479 1.390 . S
C475 C469 1.465 . S
C475 C474 1.396 . S
C475 C476 1.399 . S
C476 H462 0.929 . S
C476 C475 1.399 . S
C476 C477 1.385 . S
C477 H463 0.931 . S
C477 C476 1.385 . S
C477 C478 1.389 . S
C478 C477 1.389 . S
C478 C479 1.387 . S
C479 H464 0.930 . S
C479 C474 1.390 . S
C479 C478 1.387 . S
H480 C492 0.930 . S
H481 C494 0.930 . S
H482 C495 0.930 . S
H483 C499 0.959 . S
H484 C499 0.959 . S
H485 C499 0.961 . S
H486 C500 0.960 . S
H487 C500 0.961 . S
H488 C500 0.959 . S
H489 C503 0.929 . S
H490 C504 0.931 . S
H491 C506 0.930 . S
C492 H480 0.930 . S
C492 C493 1.399 . S
C492 C497 1.399 . S
C493 C492 1.399 . S
C493 C494 1.376 . S
C494 H481 0.930 . S
C494 C493 1.376 . S
C494 C495 1.388 . S
C495 H482 0.930 . S
C495 C494 1.388 . S
C495 C496 1.390 . S
C496 C495 1.390 . S
C496 C497 1.394 . S
C496 C502 1.465 . S
C497 C492 1.399 . S
C497 C496 1.394 . S
C497 C498 1.516 . S
C498 C497 1.516 . S
C498 C499 1.502 . S
C498 C500 1.561 . S
C498 C501 1.526 . S
C499 H483 0.959 . S
C499 H484 0.959 . S
C499 H485 0.961 . S
C499 C498 1.502 . S
C500 H486 0.960 . S
C500 H487 0.961 . S
C500 H488 0.959 . S
C500 C498 1.561 . S
C501 C498 1.526 . S
C501 C502 1.396 . S
C501 C506 1.390 . S
C502 C496 1.465 . S
C502 C501 1.396 . S
C502 C503 1.399 . S
C503 H489 0.929 . S
C503 C502 1.399 . S
C503 C504 1.385 . S
C504 H490 0.931 . S
C504 C503 1.385 . S
C504 C505 1.389 . S
C505 C504 1.389 . S
C505 C506 1.387 . S
C506 H491 0.930 . S
C506 C501 1.390 . S
C506 C505 1.387 . S
H507 C519 0.930 . S
H508 C521 0.930 . S
H509 C522 0.930 . S
H510 C526 0.959 . S
H511 C526 0.959 . S
H512 C526 0.961 . S
H513 C527 0.960 . S
H514 C527 0.961 . S
H515 C527 0.959 . S
H516 C530 0.929 . S
H517 C531 0.931 . S
H518 C533 0.930 . S
C519 H507 0.930 . S
C519 C520 1.399 . S
C519 C524 1.399 . S
C520 C519 1.399 . S
C520 C521 1.376 . S
C521 H508 0.930 . S
C521 C520 1.376 . S
C521 C522 1.388 . S
C522 H509 0.930 . S
C522 C521 1.388 . S
C522 C523 1.390 . S
C523 C522 1.390 . S
C523 C524 1.394 . S
C523 C529 1.465 . S
C524 C519 1.399 . S
C524 C523 1.394 . S
C524 C525 1.516 . S
C525 C524 1.516 . S
C525 C526 1.502 . S
C525 C527 1.561 . S
C525 C528 1.526 . S
C526 H510 0.959 . S
C526 H511 0.959 . S
C526 H512 0.961 . S
C526 C525 1.502 . S
C527 H513 0.960 . S
C527 H514 0.961 . S
C527 H515 0.959 . S
C527 C525 1.561 . S
C528 C525 1.526 . S
C528 C529 1.396 . S
C528 C533 1.390 . S
C529 C523 1.465 . S
C529 C528 1.396 . S
C529 C530 1.399 . S
C530 H516 0.929 . S
C530 C529 1.399 . S
C530 C531 1.385 . S
C531 H517 0.931 . S
C531 C530 1.385 . S
C531 C532 1.389 . S
C532 C531 1.389 . S
C532 C533 1.387 . S
C533 H518 0.930 . S
C533 C528 1.390 . S
C533 C532 1.387 . S
H534 C546 0.930 . S
H535 C548 0.930 . S
H536 C549 0.930 . S
H537 C553 0.959 . S
H538 C553 0.959 . S
H539 C553 0.961 . S
H540 C554 0.960 . S
H541 C554 0.961 . S
H542 C554 0.959 . S
H543 C557 0.929 . S
H544 C558 0.931 . S
H545 C560 0.930 . S
C546 H534 0.930 . S
C546 C547 1.399 . S
C546 C551 1.399 . S
C547 C546 1.399 . S
C547 C548 1.376 . S
C548 H535 0.930 . S
C548 C547 1.376 . S
C548 C549 1.388 . S
C549 H536 0.930 . S
C549 C548 1.388 . S
C549 C550 1.390 . S
C550 C549 1.390 . S
C550 C551 1.394 . S
C550 C556 1.465 . S
C551 C546 1.399 . S
C551 C550 1.394 . S
C551 C552 1.516 . S
C552 C551 1.516 . S
C552 C553 1.502 . S
C552 C554 1.561 . S
C552 C555 1.526 . S
C553 H537 0.959 . S
C553 H538 0.959 . S
C553 H539 0.961 . S
C553 C552 1.502 . S
C554 H540 0.960 . S
C554 H541 0.961 . S
C554 H542 0.959 . S
C554 C552 1.561 . S
C555 C552 1.526 . S
C555 C556 1.396 . S
C555 C560 1.390 . S
C556 C550 1.465 . S
C556 C555 1.396 . S
C556 C557 1.399 . S
C557 H543 0.929 . S
C557 C556 1.399 . S
C557 C558 1.385 . S
C558 H544 0.931 . S
C558 C557 1.385 . S
C558 C559 1.389 . S
C559 C558 1.389 . S
C559 C560 1.387 . S
C560 H545 0.930 . S
C560 C555 1.390 . S
C560 C559 1.387 . S
H561 C573 0.930 . S
H562 C575 0.930 . S
H563 C576 0.930 . S
H564 C580 0.959 . S
H565 C580 0.959 . S
H566 C580 0.961 . S
H567 C581 0.960 . S
H568 C581 0.961 . S
H569 C581 0.959 . S
H570 C584 0.929 . S
H571 C585 0.931 . S
H572 C587 0.930 . S
C573 H561 0.930 . S
C573 C574 1.399 . S
C573 C578 1.399 . S
C574 C573 1.399 . S
C574 C575 1.376 . S
C575 H562 0.930 . S
C575 C574 1.376 . S
C575 C576 1.388 . S
C576 H563 0.930 . S
C576 C575 1.388 . S
C576 C577 1.390 . S
C577 C576 1.390 . S
C577 C578 1.394 . S
C577 C583 1.465 . S
C578 C573 1.399 . S
C578 C577 1.394 . S
C578 C579 1.516 . S
C579 C578 1.516 . S
C579 C580 1.502 . S
C579 C581 1.561 . S
C579 C582 1.526 . S
C580 H564 0.959 . S
C580 H565 0.959 . S
C580 H566 0.961 . S
C580 C579 1.502 . S
C581 H567 0.960 . S
C581 H568 0.961 . S
C581 H569 0.959 . S
C581 C579 1.561 . S
C582 C579 1.526 . S
C582 C583 1.396 . S
C582 C587 1.390 . S
C583 C577 1.465 . S
C583 C582 1.396 . S
C583 C584 1.399 . S
C584 H570 0.929 . S
C584 C583 1.399 . S
C584 C585 1.385 . S
C585 H571 0.931 . S
C585 C584 1.385 . S
C585 C586 1.389 . S
C586 C585 1.389 . S
C586 C587 1.387 . S
C587 H572 0.930 . S
C587 C582 1.390 . S
C587 C586 1.387 . S
H588 C600 0.930 . S
H589 C602 0.930 . S
H590 C603 0.930 . S
H591 C607 0.959 . S
H592 C607 0.959 . S
H593 C607 0.961 . S
H594 C608 0.960 . S
H595 C608 0.961 . S
H596 C608 0.959 . S
H597 C611 0.929 . S
H598 C612 0.931 . S
H599 C614 0.930 . S
C600 H588 0.930 . S
C600 C601 1.399 . S
C600 C605 1.399 . S
C601 C600 1.399 . S
C601 C602 1.376 . S
C602 H589 0.930 . S
C602 C601 1.376 . S
C602 C603 1.388 . S
C603 H590 0.930 . S
C603 C602 1.388 . S
C603 C604 1.390 . S
C604 C603 1.390 . S
C604 C605 1.394 . S
C604 C610 1.465 . S
C605 C600 1.399 . S
C605 C604 1.394 . S
C605 C606 1.516 . S
C606 C605 1.516 . S
C606 C607 1.502 . S
C606 C608 1.561 . S
C606 C609 1.526 . S
C607 H591 0.959 . S
C607 H592 0.959 . S
C607 H593 0.961 . S
C607 C606 1.502 . S
C608 H594 0.960 . S
C608 H595 0.961 . S
C608 H596 0.959 . S
C608 C606 1.561 . S
C609 C606 1.526 . S
C609 C610 1.396 . S
C609 C614 1.390 . S
C610 C604 1.465 . S
C610 C609 1.396 . S
C610 C611 1.399 . S
C611 H597 0.929 . S
C611 C610 1.399 . S
C611 C612 1.385 . S
C612 H598 0.931 . S
C612 C611 1.385 . S
C612 C613 1.389 . S
C613 C612 1.389 . S
C613 C614 1.387 . S
C614 H599 0.930 . S
C614 C609 1.390 . S
C614 C613 1.387 . S
H615 C627 0.930 . S
H616 C629 0.930 . S
H617 C630 0.930 . S
H618 C634 0.959 . S
H619 C634 0.959 . S
H620 C634 0.961 . S
H621 C635 0.960 . S
H622 C635 0.961 . S
H623 C635 0.959 . S
H624 C638 0.929 . S
H625 C639 0.931 . S
H626 C641 0.930 . S
C627 H615 0.930 . S
C627 C628 1.399 . S
C627 C632 1.399 . S
C628 C627 1.399 . S
C628 C629 1.376 . S
C629 H616 0.930 . S
C629 C628 1.376 . S
C629 C630 1.388 . S
C630 H617 0.930 . S
C630 C629 1.388 . S
C630 C631 1.390 . S
C631 C630 1.390 . S
C631 C632 1.394 . S
C631 C637 1.465 . S
C632 C627 1.399 . S
C632 C631 1.394 . S
C632 C633 1.516 . S
C633 C632 1.516 . S
C633 C634 1.502 . S
C633 C635 1.561 . S
C633 C636 1.526 . S
C634 H618 0.959 . S
C634 H619 0.959 . S
C634 H620 0.961 . S
C634 C633 1.502 . S
C635 H621 0.960 . S
C635 H622 0.961 . S
C635 H623 0.959 . S
C635 C633 1.561 . S
C636 C633 1.526 . S
C636 C637 1.396 . S
C636 C641 1.390 . S
C637 C631 1.465 . S
C637 C636 1.396 . S
C637 C638 1.399 . S
C638 H624 0.929 . S
C638 C637 1.399 . S
C638 C639 1.385 . S
C639 H625 0.931 . S
C639 C638 1.385 . S
C639 C640 1.389 . S
C640 C639 1.389 . S
C640 C641 1.387 . S
C641 H626 0.930 . S
C641 C636 1.390 . S
C641 C640 1.387 . S
H642 C654 0.930 . S
H643 C656 0.930 . S
H644 C657 0.930 . S
H645 C661 0.959 . S
H646 C661 0.959 . S
H647 C661 0.961 . S
H648 C662 0.960 . S
H649 C662 0.961 . S
H650 C662 0.959 . S
H651 C665 0.929 . S
H652 C666 0.931 . S
H653 C668 0.930 . S
C654 H642 0.930 . S
C654 C655 1.399 . S
C654 C659 1.399 1_545 S
C655 C654 1.399 . S
C655 C656 1.376 . S
C656 H643 0.930 . S
C656 C655 1.376 . S
C656 C657 1.388 . S
C657 H644 0.930 . S
C657 C656 1.388 . S
C657 C658 1.390 1_545 S
C658 C657 1.390 1_565 S
C658 C659 1.394 . S
C658 C664 1.465 . S
C659 C654 1.399 1_565 S
C659 C658 1.394 . S
C659 C660 1.516 . S
C660 C659 1.516 . S
C660 C661 1.502 . S
C660 C662 1.561 . S
C660 C663 1.526 . S
C661 H645 0.959 . S
C661 H646 0.959 . S
C661 H647 0.961 . S
C661 C660 1.502 . S
C662 H648 0.960 . S
C662 H649 0.961 . S
C662 H650 0.959 . S
C662 C660 1.561 . S
C663 C660 1.526 . S
C663 C664 1.396 . S
C663 C668 1.390 . S
C664 C658 1.465 . S
C664 C663 1.396 . S
C664 C665 1.399 . S
C665 H651 0.929 . S
C665 C664 1.399 . S
C665 C666 1.385 . S
C666 H652 0.931 . S
C666 C665 1.385 . S
C666 C667 1.389 . S
C667 C666 1.389 . S
C667 C668 1.387 . S
C668 H653 0.930 . S
C668 C663 1.390 . S
C668 C667 1.387 . S
H669 C681 0.930 . S
H670 C683 0.930 . S
H671 C684 0.930 . S
H672 C688 0.959 . S
H673 C688 0.959 . S
H674 C688 0.961 . S
H675 C689 0.960 . S
H676 C689 0.961 . S
H677 C689 0.959 . S
H678 C692 0.929 . S
H679 C693 0.931 . S
H680 C695 0.930 . S
C681 H669 0.930 . S
C681 C682 1.399 . S
C681 C686 1.399 1_565 S
C682 C681 1.399 . S
C682 C683 1.376 . S
C683 H670 0.930 . S
C683 C682 1.376 . S
C683 C684 1.388 . S
C684 H671 0.930 . S
C684 C683 1.388 . S
C684 C685 1.390 1_565 S
C685 C684 1.390 1_545 S
C685 C686 1.394 . S
C685 C691 1.465 . S
C686 C681 1.399 1_545 S
C686 C685 1.394 . S
C686 C687 1.516 . S
C687 C686 1.516 . S
C687 C688 1.502 . S
C687 C689 1.561 . S
C687 C690 1.526 . S
C688 H672 0.959 . S
C688 H673 0.959 . S
C688 H674 0.961 . S
C688 C687 1.502 . S
C689 H675 0.960 . S
C689 H676 0.961 . S
C689 H677 0.959 . S
C689 C687 1.561 . S
C690 C687 1.526 . S
C690 C691 1.396 . S
C690 C695 1.390 . S
C691 C685 1.465 . S
C691 C690 1.396 . S
C691 C692 1.399 . S
C692 H678 0.929 . S
C692 C691 1.399 . S
C692 C693 1.385 . S
C693 H679 0.931 . S
C693 C692 1.385 . S
C693 C694 1.389 . S
C694 C693 1.389 . S
C694 C695 1.387 . S
C695 H680 0.930 . S
C695 C690 1.390 . S
C695 C694 1.387 . S
H696 C708 0.930 . S
H697 C710 0.930 . S
H698 C711 0.930 . S
H699 C715 0.959 . S
H700 C715 0.959 . S
H701 C715 0.961 . S
H702 C716 0.960 . S
H703 C716 0.961 . S
H704 C716 0.959 . S
H705 C719 0.929 . S
H706 C720 0.931 . S
H707 C722 0.930 . S
C708 H696 0.930 . S
C708 C709 1.399 . S
C708 C713 1.399 . S
C709 C708 1.399 . S
C709 C710 1.376 . S
C710 H697 0.930 . S
C710 C709 1.376 . S
C710 C711 1.388 . S
C711 H698 0.930 . S
C711 C710 1.388 . S
C711 C712 1.390 . S
C712 C711 1.390 . S
C712 C713 1.394 . S
C712 C718 1.465 . S
C713 C708 1.399 . S
C713 C712 1.394 . S
C713 C714 1.516 . S
C714 C713 1.516 . S
C714 C715 1.502 . S
C714 C716 1.561 . S
C714 C717 1.526 . S
C715 H699 0.959 . S
C715 H700 0.959 . S
C715 H701 0.961 . S
C715 C714 1.502 . S
C716 H702 0.960 . S
C716 H703 0.961 . S
C716 H704 0.959 . S
C716 C714 1.561 . S
C717 C714 1.526 . S
C717 C718 1.396 . S
C717 C722 1.390 . S
C718 C712 1.465 . S
C718 C717 1.396 . S
C718 C719 1.399 . S
C719 H705 0.929 . S
C719 C718 1.399 . S
C719 C720 1.385 . S
C720 H706 0.931 . S
C720 C719 1.385 . S
C720 C721 1.389 . S
C721 C720 1.389 . S
C721 C722 1.387 . S
C722 H707 0.930 . S
C722 C717 1.390 . S
C722 C721 1.387 . S
H723 C735 0.930 . S
H724 C737 0.930 . S
H725 C738 0.930 . S
H726 C742 0.959 . S
H727 C742 0.959 . S
H728 C742 0.961 . S
H729 C743 0.960 . S
H730 C743 0.961 . S
H731 C743 0.959 . S
H732 C746 0.929 . S
H733 C747 0.931 . S
H734 C749 0.930 . S
C735 H723 0.930 . S
C735 C736 1.399 . S
C735 C740 1.399 . S
C736 C735 1.399 . S
C736 C737 1.376 . S
C737 H724 0.930 . S
C737 C736 1.376 . S
C737 C738 1.388 . S
C738 H725 0.930 . S
C738 C737 1.388 . S
C738 C739 1.390 . S
C739 C738 1.390 . S
C739 C740 1.394 . S
C739 C745 1.465 . S
C740 C735 1.399 . S
C740 C739 1.394 . S
C740 C741 1.516 . S
C741 C740 1.516 . S
C741 C742 1.502 . S
C741 C743 1.561 . S
C741 C744 1.526 . S
C742 H726 0.959 . S
C742 H727 0.959 . S
C742 H728 0.961 . S
C742 C741 1.502 . S
C743 H729 0.960 . S
C743 H730 0.961 . S
C743 H731 0.959 . S
C743 C741 1.561 . S
C744 C741 1.526 . S
C744 C745 1.396 . S
C744 C749 1.390 . S
C745 C739 1.465 . S
C745 C744 1.396 . S
C745 C746 1.399 . S
C746 H732 0.929 . S
C746 C745 1.399 . S
C746 C747 1.385 . S
C747 H733 0.931 . S
C747 C746 1.385 . S
C747 C748 1.389 . S
C748 C747 1.389 . S
C748 C749 1.387 . S
C749 H734 0.930 . S
C749 C744 1.390 . S
C749 C748 1.387 . S
H750 C762 0.930 . S
H751 C764 0.930 . S
H752 C765 0.930 1_545 S
H753 C769 0.959 . S
H754 C769 0.959 . S
H755 C769 0.961 . S
H756 C770 0.960 . S
H757 C770 0.961 . S
H758 C770 0.959 . S
H759 C773 0.929 . S
H760 C774 0.931 . S
H761 C776 0.930 . S
C762 H750 0.930 . S
C762 C763 1.399 . S
C762 C767 1.399 1_565 S
C763 C762 1.399 . S
C763 C764 1.376 . S
C764 H751 0.930 . S
C764 C763 1.376 . S
C764 C765 1.388 . S
C765 H752 0.930 1_565 S
C765 C764 1.388 . S
C765 C766 1.390 1_565 S
C766 C765 1.390 1_545 S
C766 C767 1.394 . S
C766 C772 1.465 . S
C767 C762 1.399 1_545 S
C767 C766 1.394 . S
C767 C768 1.516 . S
C768 C767 1.516 . S
C768 C769 1.502 . S
C768 C770 1.561 . S
C768 C771 1.526 . S
C769 H753 0.959 . S
C769 H754 0.959 . S
C769 H755 0.961 . S
C769 C768 1.502 . S
C770 H756 0.960 . S
C770 H757 0.961 . S
C770 H758 0.959 . S
C770 C768 1.561 . S
C771 C768 1.526 . S
C771 C772 1.396 . S
C771 C776 1.390 . S
C772 C766 1.465 . S
C772 C771 1.396 . S
C772 C773 1.399 . S
C773 H759 0.929 . S
C773 C772 1.399 . S
C773 C774 1.385 . S
C774 H760 0.931 . S
C774 C773 1.385 . S
C774 C775 1.389 . S
C775 C774 1.389 . S
C775 C776 1.387 . S
C776 H761 0.930 . S
C776 C771 1.390 . S
C776 C775 1.387 . S
H777 C789 0.930 . S
H778 C791 0.930 . S
H779 C792 0.930 . S
H780 C796 0.959 . S
H781 C796 0.959 . S
H782 C796 0.961 . S
H783 C797 0.960 . S
H784 C797 0.961 . S
H785 C797 0.959 . S
H786 C800 0.929 . S
H787 C801 0.931 . S
H788 C803 0.930 . S
C789 H777 0.930 . S
C789 C790 1.399 . S
C789 C794 1.399 . S
C790 C789 1.399 . S
C790 C791 1.376 . S
C791 H778 0.930 . S
C791 C790 1.376 . S
C791 C792 1.388 . S
C792 H779 0.930 . S
C792 C791 1.388 . S
C792 C793 1.390 . S
C793 C792 1.390 . S
C793 C794 1.394 . S
C793 C799 1.465 . S
C794 C789 1.399 . S
C794 C793 1.394 . S
C794 C795 1.516 . S
C795 C794 1.516 . S
C795 C796 1.502 . S
C795 C797 1.561 . S
C795 C798 1.526 . S
C796 H780 0.959 . S
C796 H781 0.959 . S
C796 H782 0.961 . S
C796 C795 1.502 . S
C797 H783 0.960 . S
C797 H784 0.961 . S
C797 H785 0.959 . S
C797 C795 1.561 . S
C798 C795 1.526 . S
C798 C799 1.396 . S
C798 C803 1.390 1_565 S
C799 C793 1.465 . S
C799 C798 1.396 . S
C799 C800 1.399 1_565 S
C800 H786 0.929 . S
C800 C799 1.399 1_545 S
C800 C801 1.385 . S
C801 H787 0.931 . S
C801 C800 1.385 . S
C801 C802 1.389 . S
C802 C801 1.389 . S
C802 C803 1.387 . S
C803 H788 0.930 . S
C803 C798 1.390 1_545 S
C803 C802 1.387 . S
C277 C21 1.524 . S
C289 C54 1.537 . S
C304 C120 1.505 . S
C316 C87 1.539 . S
C331 C153 1.541 . S
C343 C186 1.526 . S
C358 C252 1.540 . S
C370 C219 1.522 . S
C385 C18 1.159 . S
C397 C150 1.138 . S
C412 C51 1.148 . S
C424 C183 1.145 . S
C439 C84 1.153 . S
C451 C216 1.141 . S
C466 C117 1.150 . S
C478 C249 1.150 . S
C493 C73 1.404 . S
C505 C7 1.388 . S
C520 C106 1.451 . S
C532 C40 1.411 . S
C547 C139 1.435 . S
C559 C205 1.449 . S
C574 C172 1.409 . S
C586 C238 1.449 . S
C601 N13 1.308 . S
C613 N2 1.259 . S
C628 N46 1.248 . S
C640 N35 1.310 . S
C655 N68 1.283 . S
C667 N79 1.269 . S
C682 N101 1.272 . S
C694 N112 1.279 . S
C709 N134 1.248 . S
C721 N145 1.305 . S
C736 N178 1.286 . S
C748 N167 1.265 . S
C763 N200 1.311 . S
C775 N211 1.257 . S
C790 N244 1.301 . S
C802 N233 1.269 . S
