# Generated by pormake.
# Topology bcu, (8)-cn, num edge types: 1
# Building blocks:
#     Node 0, Type 0, BuildingBlock: AJUNOK_clean_sbu_0, # of connection points: 8
#     Node 1, Type 0, BuildingBlock: AJUNOK_clean_sbu_0, # of connection points: 8
#     Edge 2, Type (0, 0), BuildingBlock: ZUJKAS_clean_linker_0, # of connection points: 2
#     Edge 3, Type (0, 0), BuildingBlock: ZUJKAS_clean_linker_0, # of connection points: 2
#     Edge 4, Type (0, 0), BuildingBlock: ZUJKAS_clean_linker_0, # of connection points: 2
#     Edge 5, Type (0, 0), BuildingBlock: ZUJKAS_clean_linker_0, # of connection points: 2
#     Edge 6, Type (0, 0), BuildingBlock: ZUJKAS_clean_linker_0, # of connection points: 2
#     Edge 7, Type (0, 0), BuildingBlock: ZUJKAS_clean_linker_0, # of connection points: 2
#     Edge 8, Type (0, 0), BuildingBlock: ZUJKAS_clean_linker_0, # of connection points: 2
#     Edge 9, Type (0, 0), BuildingBlock: ZUJKAS_clean_linker_0, # of connection points: 2
# Relax obj value: 0.075
# Max RMSD: 0.182
# Mean RMSD: 0.182
data_MOF--net-bcu--node1-AJUNOK_clean_sbu_0--edge1-ZUJKAS_clean_linker_0
_symmetry_space_group_name_H-M    P1
_symmetry_Int_Tables_number       1
_symmetry_cell_setting            triclinic
loop_
_symmetry_equiv_pos_as_xyz
'x, y, z'
_cell_length_a     28.978075
_cell_length_b     28.875106
_cell_length_c     21.559422
_cell_angle_alpha  102.20474
_cell_angle_beta   102.41425
_cell_angle_gamma 105.77765
loop_
_atom_site_label
_atom_site_type_symbol
_atom_site_fract_x
_atom_site_fract_y
_atom_site_fract_z
_atom_type_partial_charge
Cd0 Cd 0.98573 0.94683 0.07217 0.0
Cd1 Cd 0.00674 0.02976 0.90712 0.0
C2 C 0.08575 0.94943 0.17089 0.0
N3 N 0.0625 0.93418 0.10466 0.0
C4 C 0.11858 0.88924 0.08455 0.0
C5 C 0.14106 0.90156 0.15321 0.0
C6 C 0.12531 0.93355 0.19634 0.0
C7 C 0.07888 0.90586 0.0612 0.0
H8 H 0.07158 0.97155 0.2043 0.0
H9 H 0.05955 0.89399 0.00876 0.0
C10 C 0.9606 0.91831 0.89581 0.0
C11 C 0.8952 0.02263 0.83893 0.0
C12 C 0.85358 0.03853 0.82736 0.0
C13 C 0.84666 0.07222 0.87923 0.0
C14 C 0.88042 0.08614 0.94295 0.0
C15 C 0.92185 0.06973 0.95211 0.0
N16 N 0.92894 0.03952 0.90003 0.0
H17 H 0.90253 -0.00034 0.7981 0.0
H18 H 0.9497 0.08331 0.99995 0.0
C19 C 0.07193 0.97839 0.83463 0.0
N20 N 0.06805 -0.00711 0.89692 0.0
C21 C 0.13218 0.96065 0.93921 0.0
C22 C 0.13684 0.94502 0.87512 0.0
C23 C 0.10607 0.95427 0.82253 0.0
C24 C 0.09733 0.98474 0.94908 0.0
H25 H 0.04777 0.9849 0.79401 0.0
H26 H 0.09337 -0.00346 0.99814 0.0
C27 C 0.03876 0.06222 0.08822 0.0
C28 C 0.93061 0.86157 0.10226 0.0
N29 N 0.93783 -0.00712 0.11186 0.0
C30 C 0.94451 0.00844 0.17823 0.0
C31 C 0.9168 0.0367 0.203 0.0
C32 C 0.88148 0.0486 0.15901 0.0
C33 C 0.87484 0.03119 0.09057 0.0
C34 C 0.90354 0.00319 0.06799 0.0
C35 C 0.03797 0.10242 0.84121 0.0
O36 O 0.97571 0.94494 0.95583 0.0
O37 O 0.96299 0.94101 0.8516 0.0
O38 O 0.02378 0.04051 0.0264 0.0
O39 O 0.03328 0.03517 0.12725 0.0
O40 O 0.91438 0.86982 0.04739 0.0
O41 O 0.97152 0.89301 0.14178 0.0
O42 O 0.05674 0.11184 0.90343 0.0
O43 O 0.00542 0.05952 0.81083 0.0
H44 H 0.97171 -0.00081 0.21191 0.0
H45 H 0.89869 -0.01024 0.01544 0.0
H46 H 0.12942 0.86456 0.04952 0.0
H47 H 0.14212 0.94463 0.24949 0.0
H48 H 0.82923 0.02732 0.7772 0.0
H49 H 0.87623 0.11134 0.9847 0.0
H50 H 0.15532 0.95457 0.98127 0.0
H51 H 0.10749 0.94201 0.77212 0.0
H52 H 0.9226 0.04861 0.25601 0.0
H53 H 0.84828 0.03972 0.05491 0.0
Cd54 Cd 0.44672 0.46659 0.57673 0.0
Cd55 Cd 0.55108 0.50874 0.44129 0.0
C56 C 0.49196 0.40744 0.66953 0.0
N57 N 0.48525 0.41023 0.60624 0.0
C58 C 0.52951 0.35285 0.58336 0.0
C59 C 0.53806 0.35022 0.64905 0.0
C60 C 0.51847 0.37765 0.69211 0.0
C61 C 0.50294 0.38347 0.56292 0.0
H62 H 0.47773 0.42944 0.70296 0.0
H63 H 0.49729 0.38674 0.51298 0.0
C64 C 0.43807 0.45401 0.40506 0.0
C65 C 0.50019 0.57083 0.36052 0.0
C66 C 0.4733 0.60179 0.34313 0.0
C67 C 0.45554 0.62794 0.39018 0.0
C68 C 0.46566 0.62187 0.45431 0.0
C69 C 0.49263 0.59014 0.46951 0.0
N70 N 0.50896 0.56527 0.42254 0.0
H71 H 0.51331 0.55026 0.32403 0.0
H72 H 0.50024 0.58507 0.51854 0.0
C73 C 0.54933 0.40058 0.3637 0.0
N74 N 0.56471 0.43173 0.42644 0.0
C75 C 0.61388 0.38336 0.46443 0.0
C76 C 0.60123 0.35234 0.39919 0.0
C77 C 0.56709 0.36042 0.34892 0.0
C78 C 0.5954 0.42332 0.47692 0.0
H79 H 0.52596 0.40896 0.32423 0.0
H80 H 0.60776 0.44925 0.52615 0.0
C81 C 0.56376 0.52113 0.61704 0.0
C82 C 0.35369 0.41497 0.59223 0.0
N83 N 0.43848 0.54506 0.61084 0.0
C84 C 0.45674 0.57023 0.6765 0.0
C85 C 0.4432 0.61154 0.7018 0.0
C86 C 0.40997 0.62664 0.65928 0.0
C87 C 0.39389 0.60152 0.59101 0.0
C88 C 0.40843 0.56031 0.56778 0.0
C89 C 0.63165 0.55356 0.39562 0.0
O90 O 0.45776 0.46429 0.46696 0.0
O91 O 0.46674 0.46369 0.36924 0.0
O92 O 0.54748 0.51259 0.5548 0.0
O93 O 0.53223 0.50968 0.64873 0.0
O94 O 0.36002 0.40965 0.53493 0.0
O95 O 0.39062 0.44388 0.64111 0.0
O96 O 0.63243 0.57088 0.45544 0.0
O97 O 0.59422 0.51586 0.35929 0.0
H98 H 0.47951 0.5565 0.70987 0.0
H99 H 0.39356 0.53876 0.51604 0.0
H100 H 0.54438 0.33261 0.54881 0.0
H101 H 0.52372 0.37622 0.74287 0.0
H102 H 0.46564 0.6043 0.29275 0.0
H103 H 0.45321 0.64162 0.49243 0.0
H104 H 0.63947 0.37816 0.50493 0.0
H105 H 0.5568 0.33817 0.29779 0.0
H106 H 0.45696 0.63017 0.75459 0.0
H107 H 0.36787 0.61153 0.55653 0.0
H108 H 0.08725 0.11561 0.21646 0.0
H109 H 0.13102 0.20533 0.26047 0.0
H110 H 0.08485 0.22354 0.06543 0.0
H111 H 0.04166 0.13267 0.02051 0.0
H112 H 0.18076 0.26296 0.11513 0.0
H113 H 0.10206 0.33241 0.31032 0.0
H114 H 0.11383 0.27688 0.32276 0.0
H115 H 0.06898 0.2729 0.24753 0.0
C116 C 0.0857 0.13871 0.18298 0.0
C117 C 0.06184 0.11711 0.11481 0.0
C118 C 0.11001 0.19027 0.20847 0.0
C119 C 0.11021 0.22147 0.1666 0.0
C120 C 0.08462 0.20022 0.09876 0.0
H121 H 0.38211 0.48652 0.31793 0.0
H122 H 0.2927 0.44583 0.25733 0.0
C123 C 0.06055 0.14835 0.07305 0.0
C124 C 0.14494 0.27382 0.1923 0.0
H125 H 0.19571 0.36847 0.3371 0.0
C126 C 0.18304 0.28727 0.16232 0.0
C127 C 0.14752 0.30594 0.25332 0.0
C128 C 0.10541 0.29634 0.28469 0.0
C129 C 0.22693 0.32798 0.19612 0.0
C130 C 0.23224 0.35591 0.2611 0.0
C131 C 0.19168 0.34635 0.28762 0.0
C132 C 0.28221 0.38707 0.30599 0.0
C133 C 0.26933 0.33735 0.16503 0.0
C134 C 0.30501 0.36828 0.35471 0.0
C135 C 0.35571 0.39124 0.38894 0.0
C136 C 0.3839 0.4334 0.37519 0.0
C137 C 0.36065 0.45373 0.32883 0.0
C138 C 0.30983 0.43085 0.29465 0.0
H139 H 0.26001 0.30983 0.1158 0.0
H140 H 0.27821 0.37556 0.15847 0.0
H141 H 0.30351 0.33538 0.19795 0.0
H142 H 0.28429 0.33406 0.36336 0.0
H143 H 0.37355 0.37436 0.42312 0.0
H144 H 0.78153 0.03396 0.10951 0.0
H145 H 0.73294 0.08384 0.15227 0.0
H146 H 0.86519 0.18067 0.30961 0.0
H147 H 0.91425 0.13173 0.26652 0.0
H148 H 0.71955 0.10402 0.28283 0.0
H149 H 0.81132 0.27824 0.22399 0.0
H150 H 0.81597 0.21812 0.18672 0.0
H151 H 0.85348 0.25361 0.26992 0.0
C152 C 0.8004 0.0662 0.15278 0.0
C153 C 0.85182 0.07892 0.1845 0.0
C154 C 0.7725 0.09443 0.17739 0.0
C155 C 0.79557 0.1362 0.23371 0.0
C156 C 0.84679 0.14893 0.2656 0.0
H157 H 0.70001 0.36348 0.44999 0.0
H158 H 0.74526 0.30808 0.41345 0.0
C159 C 0.87466 0.12063 0.24124 0.0
C160 C 0.76598 0.16616 0.2597 0.0
H161 H 0.75565 0.28327 0.289 0.0
C162 C 0.72722 0.14317 0.28399 0.0
C163 C 0.77621 0.2172 0.26123 0.0
C164 C 0.8162 0.24329 0.2336 0.0
C165 C 0.69903 0.17021 0.31111 0.0
C166 C 0.70928 0.22132 0.31269 0.0
C167 C 0.74794 0.24416 0.28806 0.0
C168 C 0.68033 0.25199 0.33916 0.0
C169 C 0.65942 0.14415 0.33927 0.0
C170 C 0.62852 0.23859 0.31025 0.0
C171 C 0.60228 0.26995 0.33169 0.0
C172 C 0.6274 0.31565 0.38208 0.0
C173 C 0.67912 0.32824 0.41198 0.0
C174 C 0.70524 0.29682 0.39066 0.0
H175 H 0.66575 0.11037 0.35122 0.0
H176 H 0.65844 0.16987 0.38486 0.0
H177 H 0.6222 0.13176 0.30207 0.0
H178 H 0.60859 0.20465 0.26965 0.0
H179 H 0.56247 0.25886 0.30781 0.0
H180 H 0.96071 0.83387 0.21273 0.0
H181 H 0.91159 0.76943 0.25163 0.0
H182 H 0.78828 0.72791 0.07488 0.0
H183 H 0.83737 0.79296 0.03535 0.0
H184 H 0.76425 0.75215 0.19447 0.0
H185 H 0.86628 0.61533 0.19554 0.0
H186 H 0.90637 0.67933 0.23423 0.0
H187 H 0.87381 0.65941 0.14711 0.0
C188 C 0.92343 0.81056 0.18151 0.0
C189 C 0.90262 0.81876 0.12131 0.0
C190 C 0.89561 0.77343 0.2036 0.0
C191 C 0.84663 0.74367 0.16578 0.0
C192 C 0.82625 0.75044 0.10446 0.0
H193 H 0.64607 0.51515 0.27783 0.0
H194 H 0.70075 0.55931 0.2219 0.0
C195 C 0.85422 0.78758 0.08208 0.0
C196 C 0.8152 0.70999 0.19449 0.0
H197 H 0.81044 0.61342 0.26354 0.0
C198 C 0.77391 0.72139 0.20882 0.0
C199 C 0.82802 0.66995 0.21296 0.0
C200 C 0.87077 0.6549 0.19612 0.0
C201 C 0.74603 0.69485 0.24336 0.0
C202 C 0.76033 0.65644 0.26464 0.0
C203 C 0.80039 0.64366 0.24815 0.0
C204 C 0.73273 0.62823 0.3023 0.0
C205 C 0.70158 0.70812 0.25708 0.0
C206 C 0.73418 0.65208 0.36691 0.0
C207 C 0.70312 0.62692 0.39924 0.0
C208 C 0.67011 0.57777 0.36699 0.0
C209 C 0.67085 0.55321 0.30367 0.0
C210 C 0.70208 0.57823 0.27168 0.0
H211 H 0.68981 0.73167 0.22643 0.0
H212 H 0.66927 0.6736 0.24735 0.0
H213 H 0.7116 0.72943 0.31008 0.0
H214 H 0.75811 0.69065 0.39133 0.0
H215 H 0.70333 0.64666 0.44804 0.0
H216 H 0.14335 0.86166 0.25726 0.0
H217 H 0.19992 0.81904 0.29962 0.0
H218 H 0.27574 0.84226 0.15161 0.0
H219 H 0.21943 0.88574 0.1091 0.0
H220 H 0.2134 0.73041 0.22053 0.0
H221 H 0.38941 0.89411 0.33364 0.0
H222 H 0.32824 0.90112 0.31631 0.0
H223 H 0.35487 0.88646 0.24996 0.0
C224 C 0.17261 0.85858 0.23436 0.0
C225 C 0.17721 0.87762 0.1802 0.0
C226 C 0.20464 0.83384 0.25836 0.0
C227 C 0.24226 0.82794 0.22919 0.0
C228 C 0.24728 0.84701 0.17531 0.0
H229 H 0.47019 0.68921 0.30979 0.0
H230 H 0.41782 0.73678 0.27139 0.0
C231 C 0.21493 0.87153 0.15086 0.0
C232 C 0.27485 0.80013 0.25392 0.0
H233 H 0.39493 0.81433 0.33547 0.0
C234 C 0.2531 0.74867 0.24575 0.0
C235 C 0.32655 0.82413 0.28653 0.0
C236 C 0.35137 0.87958 0.29774 0.0
C237 C 0.28186 0.72029 0.26854 0.0
C238 C 0.33356 0.7444 0.30215 0.0
C239 C 0.35529 0.79592 0.31008 0.0
C240 C 0.36601 0.71654 0.32776 0.0
C241 C 0.25679 0.66451 0.25473 0.0
C242 C 0.35505 0.69015 0.3735 0.0
C243 C 0.38455 0.66214 0.39486 0.0
C244 C 0.42599 0.66042 0.37143 0.0
C245 C 0.43793 0.68862 0.3277 0.0
C246 C 0.40825 0.71626 0.30607 0.0
H247 H 0.22156 0.64993 0.21319 0.0
H248 H 0.282 0.64341 0.24237 0.0
H249 H 0.2471 0.65692 0.2995 0.0
H250 H 0.32338 0.69082 0.39227 0.0
H251 H 0.37408 0.64084 0.42837 0.0
H252 H 0.15885 0.87278 0.92904 0.0
H253 H 0.21267 0.82434 0.90079 0.0
H254 H 0.24684 0.90587 0.76113 0.0
H255 H 0.19505 0.95581 0.79102 0.0
H256 H 0.19867 0.7623 0.77916 0.0
H257 H 0.38463 0.91053 0.85764 0.0
H258 H 0.33208 0.92067 0.88366 0.0
H259 H 0.33741 0.92432 0.80305 0.0
C260 C 0.17877 0.88125 0.8935 0.0
C261 C 0.17248 0.91813 0.86217 0.0
C262 C 0.20925 0.85329 0.87707 0.0
C263 C 0.23426 0.86185 0.82938 0.0
C264 C 0.22878 0.89924 0.79901 0.0
H265 H 0.3912 0.70228 0.61 0.0
H266 H 0.34952 0.76036 0.6524 0.0
C267 C 0.19853 0.9273 0.81552 0.0
C268 C 0.26301 0.82929 0.80772 0.0
H269 H 0.3772 0.83121 0.78717 0.0
C270 C 0.23783 0.77734 0.78152 0.0
C271 C 0.31405 0.849 0.81043 0.0
C272 C 0.34379 0.90413 0.8408 0.0
C273 C 0.26198 0.74469 0.75683 0.0
C274 C 0.31281 0.76445 0.75902 0.0
C275 C 0.33813 0.81631 0.78531 0.0
C276 C 0.34036 0.73141 0.73531 0.0
C277 C 0.23269 0.68936 0.7274 0.0
C278 C 0.34974 0.69673 0.76867 0.0
C279 C 0.37337 0.66365 0.7447 0.0
C280 C 0.3883 0.66466 0.68688 0.0
C281 C 0.37984 0.70031 0.65434 0.0
C282 C 0.35629 0.73362 0.67862 0.0
H283 H 0.19163 0.68181 0.71617 0.0
H284 H 0.24125 0.67393 0.68114 0.0
H285 H 0.24346 0.66896 0.76328 0.0
H286 H 0.33809 0.69477 0.81282 0.0
H287 H 0.37855 0.63622 0.77045 0.0
H288 H 0.3334 0.41774 0.7098 0.0
H289 H 0.25892 0.36688 0.72919 0.0
H290 H 0.19169 0.30013 0.51836 0.0
H291 H 0.26719 0.35049 0.49831 0.0
H292 H 0.15705 0.35531 0.68818 0.0
H293 H 0.19543 0.17952 0.58787 0.0
H294 H 0.24083 0.24083 0.6049 0.0
H295 H 0.1869 0.21777 0.53344 0.0
C296 C 0.3027 0.39256 0.66738 0.0
C297 C 0.30641 0.38749 0.60257 0.0
C298 C 0.26002 0.36373 0.67857 0.0
C299 C 0.22015 0.32935 0.62528 0.0
C300 C 0.2225 0.32592 0.56017 0.0
H301 H 0.00494 0.09003 0.70859 0.0
H302 H 0.03706 0.14671 0.64649 0.0
C303 C 0.26552 0.35471 0.54884 0.0
C304 C 0.17865 0.29477 0.63972 0.0
H305 H 0.13531 0.1739 0.64507 0.0
C306 C 0.15145 0.31541 0.67764 0.0
C307 C 0.17136 0.24273 0.62557 0.0
C308 C 0.20024 0.21868 0.58607 0.0
C309 C 0.11934 0.2859 0.70518 0.0
C310 C 0.11493 0.23475 0.69499 0.0
C311 C 0.13912 0.21329 0.65298 0.0
C312 C 0.09039 0.20407 0.73306 0.0
C313 C 0.09172 0.31003 0.74668 0.0
C314 C 0.10965 0.21781 0.80236 0.0
C315 C 0.09161 0.18545 0.83803 0.0
C316 C 0.05425 0.13869 0.8048 0.0
C317 C 0.03391 0.12577 0.73559 0.0
C318 C 0.05202 0.15812 0.70001 0.0
H319 H 0.08572 0.34308 0.73203 0.0
H320 H 0.05484 0.28293 0.74224 0.0
H321 H 0.11437 0.3233 0.79949 0.0
H322 H 0.14014 0.25264 0.82862 0.0
H323 H 0.10798 0.19639 0.89128 0.0
H324 H 0.85575 0.17032 0.9324 0.0
H325 H 0.79822 0.21419 0.8988 0.0
H326 H 0.69548 0.07653 0.75594 0.0
H327 H 0.75165 0.03153 0.79179 0.0
H328 H 0.77263 0.22582 0.77733 0.0
H329 H 0.60063 0.1309 0.83629 0.0
H330 H 0.66014 0.12347 0.86895 0.0
H331 H 0.62188 0.08815 0.78585 0.0
C332 C 0.82019 0.14879 0.89547 0.0
C333 C 0.80845 0.09719 0.86492 0.0
C334 C 0.78751 0.17417 0.87579 0.0
C335 C 0.74237 0.14868 0.82512 0.0
C336 C 0.72966 0.09688 0.79595 0.0
H337 H 0.53236 0.25466 0.58754 0.0
H338 H 0.58178 0.20498 0.6295 0.0
C339 C 0.76218 0.07131 0.81598 0.0
C340 C 0.71105 0.17726 0.79905 0.0
H341 H 0.593 0.18488 0.76751 0.0
C342 C 0.73344 0.21702 0.77563 0.0
C343 C 0.65985 0.16566 0.79658 0.0
C344 C 0.63428 0.12504 0.82384 0.0
C345 C 0.70599 0.24517 0.74936 0.0
C346 C 0.65486 0.23331 0.74649 0.0
C347 C 0.63223 0.19354 0.76952 0.0
C348 C 0.62478 0.26294 0.7213 0.0
C349 C 0.73159 0.28718 0.72422 0.0
C350 C 0.63273 0.31176 0.75924 0.0
C351 C 0.60464 0.34006 0.73558 0.0
C352 C 0.56816 0.32008 0.67341 0.0
C353 C 0.56046 0.27115 0.63535 0.0
C354 C 0.58836 0.24268 0.65936 0.0
H355 H 0.76894 0.28637 0.72008 0.0
H356 H 0.70806 0.28493 0.67494 0.0
H357 H 0.73673 0.32379 0.75893 0.0
H358 H 0.66068 0.32792 0.80722 0.0
H359 H 0.61184 0.37784 0.76569 0.0
H360 H 0.6124 0.50662 0.73023 0.0
H361 H 0.7007 0.54872 0.79418 0.0
H362 H 0.72339 0.62651 0.64708 0.0
H363 H 0.63587 0.58314 0.58214 0.0
H364 H 0.80519 0.60057 0.69809 0.0
H365 H 0.74038 0.69266 0.90192 0.0
H366 H 0.7232 0.62546 0.87903 0.0
H367 H 0.69701 0.6554 0.82219 0.0
C368 C 0.63657 0.53236 0.71141 0.0
C369 C 0.61752 0.54251 0.65196 0.0
C370 C 0.68685 0.55626 0.74788 0.0
C371 C 0.71823 0.59151 0.72611 0.0
C372 C 0.69978 0.59938 0.66478 0.0
H373 H 0.90564 0.85533 0.77386 0.0
H374 H 0.86327 0.76521 0.74471 0.0
C375 C 0.64983 0.57481 0.62777 0.0
C376 C 0.76834 0.62483 0.76934 0.0
H377 H 0.8217 0.73014 0.90116 0.0
C378 C 0.80931 0.6281 0.7436 0.0
C379 C 0.77397 0.66011 0.82954 0.0
C380 C 0.73141 0.65866 0.85994 0.0
C381 C 0.85378 0.66906 0.77216 0.0
C382 C 0.85691 0.70741 0.82732 0.0
C383 C 0.81873 0.7007 0.8583 0.0
C384 C 0.89176 0.75894 0.84298 0.0
C385 C 0.89552 0.67293 0.74009 0.0
C386 C 0.92207 0.78527 0.90787 0.0
C387 C 0.94641 0.83706 0.92459 0.0
C388 C 0.93945 0.8632 0.87725 0.0
C389 C 0.91123 0.83626 0.81163 0.0
C390 C 0.8875 0.78461 0.79471 0.0
H391 H 0.89674 0.63507 0.71771 0.0
H392 H 0.88867 0.69068 0.69966 0.0
H393 H 0.93246 0.69605 0.77635 0.0
H394 H 0.92542 0.76614 0.94591 0.0
H395 H 0.96965 0.85679 0.97481 0.0
loop_
_geom_bond_atom_site_label_1
_geom_bond_atom_site_label_2
_geom_bond_distance
_geom_bond_site_symmetry_2
_ccdc_geom_bond_type
Cd0 N3 2.334 1_655 S
Cd0 N29 2.304 1_565 S
Cd0 O36 2.268 1_554 S
Cd0 O39 2.273 1_665 S
Cd0 O40 2.417 . S
Cd0 O41 2.330 . S
Cd1 N16 2.304 1_455 S
Cd1 N20 2.334 1_545 S
Cd1 O37 2.273 1_445 S
Cd1 O38 2.268 1_556 S
Cd1 O42 2.417 . S
Cd1 O43 2.330 . S
C2 N3 1.332 . S
C2 C6 1.381 . S
C2 H8 0.931 . S
N3 Cd0 2.334 1_455 S
N3 C2 1.332 . S
N3 C7 1.328 . S
C4 C5 1.396 . S
C4 C7 1.378 . S
C4 H46 0.931 1_554 S
C5 C4 1.396 . S
C5 C6 1.382 . S
C6 C2 1.381 . S
C6 C5 1.382 . S
C6 H47 0.930 . S
C7 N3 1.328 . S
C7 C4 1.378 . S
C7 H9 0.930 1_454 S
H8 C2 0.931 . S
H9 C7 0.930 1_656 S
C10 O36 1.238 . S
C10 O37 1.253 . S
C11 C12 1.379 . S
C11 N16 1.337 . S
C11 H17 0.929 . S
C12 C11 1.379 . S
C12 C13 1.380 . S
C12 H48 0.929 . S
C13 C12 1.380 . S
C13 C14 1.399 . S
C14 C13 1.399 . S
C14 C15 1.376 . S
C14 H49 0.931 1_556 S
C15 C14 1.376 . S
C15 N16 1.338 . S
C15 H18 0.930 1_656 S
N16 Cd1 2.304 1_655 S
N16 C11 1.337 . S
N16 C15 1.338 . S
H17 C11 0.929 . S
H18 C15 0.930 1_454 S
C19 N20 1.332 . S
C19 C23 1.381 . S
C19 H25 0.931 . S
N20 Cd1 2.334 1_565 S
N20 C19 1.332 . S
N20 C24 1.328 . S
C21 C22 1.396 . S
C21 C24 1.378 . S
C21 H50 0.931 1_556 S
C22 C21 1.396 . S
C22 C23 1.382 . S
C23 C19 1.381 . S
C23 C22 1.382 . S
C23 H51 0.930 . S
C24 N20 1.328 . S
C24 C21 1.378 . S
C24 H26 0.930 1_566 S
H25 C19 0.931 . S
H26 C24 0.930 1_544 S
C27 O38 1.238 . S
C27 O39 1.253 . S
C28 O40 1.239 . S
C28 O41 1.230 . S
N29 Cd0 2.304 1_545 S
N29 C30 1.337 . S
N29 C34 1.338 . S
C30 N29 1.337 . S
C30 C31 1.379 . S
C30 H44 0.929 . S
C31 C30 1.379 . S
C31 C32 1.380 . S
C31 H52 0.929 . S
C32 C31 1.380 . S
C32 C33 1.399 . S
C33 C32 1.399 . S
C33 C34 1.376 . S
C33 H53 0.931 1_554 S
C34 N29 1.338 . S
C34 C33 1.376 . S
C34 H45 0.930 1_544 S
C35 O42 1.239 . S
C35 O43 1.230 . S
O36 Cd0 2.268 1_556 S
O36 C10 1.238 . S
O37 Cd1 2.273 1_665 S
O37 C10 1.253 . S
O38 Cd1 2.268 1_554 S
O38 C27 1.238 . S
O39 Cd0 2.273 1_445 S
O39 C27 1.253 . S
O40 Cd0 2.417 . S
O40 C28 1.239 . S
O41 Cd0 2.330 . S
O41 C28 1.230 . S
O42 Cd1 2.417 . S
O42 C35 1.239 . S
O43 Cd1 2.330 . S
O43 C35 1.230 . S
H44 C30 0.929 . S
H45 C34 0.930 1_566 S
H46 C4 0.931 1_556 S
H47 C6 0.930 . S
H48 C12 0.929 . S
H49 C14 0.931 1_554 S
H50 C21 0.931 1_554 S
H51 C23 0.930 . S
H52 C31 0.929 . S
H53 C33 0.931 1_556 S
Cd54 N57 2.334 . S
Cd54 N83 2.304 . S
Cd54 O90 2.268 . S
Cd54 O93 2.273 . S
Cd54 O94 2.417 . S
Cd54 O95 2.330 . S
Cd55 N70 2.304 . S
Cd55 N74 2.334 . S
Cd55 O91 2.273 . S
Cd55 O92 2.268 . S
Cd55 O96 2.417 . S
Cd55 O97 2.330 . S
C56 N57 1.332 . S
C56 C60 1.381 . S
C56 H62 0.931 . S
N57 Cd54 2.334 . S
N57 C56 1.332 . S
N57 C61 1.328 . S
C58 C59 1.396 . S
C58 C61 1.378 . S
C58 H100 0.931 . S
C59 C58 1.396 . S
C59 C60 1.382 . S
C60 C56 1.381 . S
C60 C59 1.382 . S
C60 H101 0.930 . S
C61 N57 1.328 . S
C61 C58 1.378 . S
C61 H63 0.930 . S
H62 C56 0.931 . S
H63 C61 0.930 . S
C64 O90 1.238 . S
C64 O91 1.253 . S
C65 C66 1.379 . S
C65 N70 1.337 . S
C65 H71 0.929 . S
C66 C65 1.379 . S
C66 C67 1.380 . S
C66 H102 0.929 . S
C67 C66 1.380 . S
C67 C68 1.399 . S
C68 C67 1.399 . S
C68 C69 1.376 . S
C68 H103 0.931 . S
C69 C68 1.376 . S
C69 N70 1.338 . S
C69 H72 0.930 . S
N70 Cd55 2.304 . S
N70 C65 1.337 . S
N70 C69 1.338 . S
H71 C65 0.929 . S
H72 C69 0.930 . S
C73 N74 1.332 . S
C73 C77 1.381 . S
C73 H79 0.931 . S
N74 Cd55 2.334 . S
N74 C73 1.332 . S
N74 C78 1.328 . S
C75 C76 1.396 . S
C75 C78 1.378 . S
C75 H104 0.931 . S
C76 C75 1.396 . S
C76 C77 1.382 . S
C77 C73 1.381 . S
C77 C76 1.382 . S
C77 H105 0.930 . S
C78 N74 1.328 . S
C78 C75 1.378 . S
C78 H80 0.930 . S
H79 C73 0.931 . S
H80 C78 0.930 . S
C81 O92 1.238 . S
C81 O93 1.253 . S
C82 O94 1.239 . S
C82 O95 1.230 . S
N83 Cd54 2.304 . S
N83 C84 1.337 . S
N83 C88 1.338 . S
C84 N83 1.337 . S
C84 C85 1.379 . S
C84 H98 0.929 . S
C85 C84 1.379 . S
C85 C86 1.380 . S
C85 H106 0.929 . S
C86 C85 1.380 . S
C86 C87 1.399 . S
C87 C86 1.399 . S
C87 C88 1.376 . S
C87 H107 0.931 . S
C88 N83 1.338 . S
C88 C87 1.376 . S
C88 H99 0.930 . S
C89 O96 1.239 . S
C89 O97 1.230 . S
O90 Cd54 2.268 . S
O90 C64 1.238 . S
O91 Cd55 2.273 . S
O91 C64 1.253 . S
O92 Cd55 2.268 . S
O92 C81 1.238 . S
O93 Cd54 2.273 . S
O93 C81 1.253 . S
O94 Cd54 2.417 . S
O94 C82 1.239 . S
O95 Cd54 2.330 . S
O95 C82 1.230 . S
O96 Cd55 2.417 . S
O96 C89 1.239 . S
O97 Cd55 2.330 . S
O97 C89 1.230 . S
H98 C84 0.929 . S
H99 C88 0.930 . S
H100 C58 0.931 . S
H101 C60 0.930 . S
H102 C66 0.929 . S
H103 C68 0.931 . S
H104 C75 0.931 . S
H105 C77 0.930 . S
H106 C85 0.929 . S
H107 C87 0.931 . S
H108 C116 0.929 . S
H109 C118 0.930 . S
H110 C120 0.930 . S
H111 C123 0.929 . S
H112 C126 0.930 . S
H113 C128 0.960 . S
H114 C128 0.960 . S
H115 C128 0.960 . S
C116 H108 0.929 . S
C116 C117 1.377 . S
C116 C118 1.384 . S
C117 C116 1.377 . S
C117 C123 1.390 . S
C118 H109 0.930 . S
C118 C116 1.384 . S
C118 C119 1.372 . S
C119 C118 1.372 . S
C119 C120 1.400 . S
C119 C124 1.490 . S
C120 H110 0.930 . S
C120 C119 1.400 . S
C120 C123 1.386 . S
H121 C137 0.930 . S
H122 C138 0.931 . S
C123 H111 0.929 . S
C123 C117 1.390 . S
C123 C120 1.386 . S
C124 C119 1.490 . S
C124 C126 1.395 . S
C124 C127 1.403 . S
H125 C131 0.930 . S
C126 H112 0.930 . S
C126 C124 1.395 . S
C126 C129 1.403 . S
C127 C124 1.403 . S
C127 C128 1.524 . S
C127 C131 1.400 . S
C128 H113 0.960 . S
C128 H114 0.960 . S
C128 H115 0.960 . S
C128 C127 1.524 . S
C129 C126 1.403 . S
C129 C130 1.392 . S
C129 C133 1.495 . S
C130 C129 1.392 . S
C130 C131 1.385 . S
C130 C132 1.478 . S
C131 H125 0.930 . S
C131 C127 1.400 . S
C131 C130 1.385 . S
C132 C130 1.478 . S
C132 C134 1.381 . S
C132 C138 1.383 . S
C133 C129 1.495 . S
C133 H139 0.959 . S
C133 H140 0.961 . S
C133 H141 0.960 . S
C134 C132 1.381 . S
C134 C135 1.394 . S
C134 H142 0.930 . S
C135 C134 1.394 . S
C135 C136 1.383 . S
C135 H143 0.929 . S
C136 C135 1.383 . S
C136 C137 1.377 . S
C137 H121 0.930 . S
C137 C136 1.377 . S
C137 C138 1.379 . S
C138 H122 0.931 . S
C138 C132 1.383 . S
C138 C137 1.379 . S
H139 C133 0.959 . S
H140 C133 0.961 . S
H141 C133 0.960 . S
H142 C134 0.930 . S
H143 C135 0.929 . S
H144 C152 0.929 . S
H145 C154 0.930 . S
H146 C156 0.930 . S
H147 C159 0.929 . S
H148 C162 0.930 . S
H149 C164 0.960 . S
H150 C164 0.960 . S
H151 C164 0.960 . S
C152 H144 0.929 . S
C152 C153 1.377 . S
C152 C154 1.384 . S
C153 C152 1.377 . S
C153 C159 1.390 . S
C154 H145 0.930 . S
C154 C152 1.384 . S
C154 C155 1.372 . S
C155 C154 1.372 . S
C155 C156 1.400 . S
C155 C160 1.490 . S
C156 H146 0.930 . S
C156 C155 1.400 . S
C156 C159 1.386 . S
H157 C173 0.930 . S
H158 C174 0.931 . S
C159 H147 0.929 . S
C159 C153 1.390 . S
C159 C156 1.386 . S
C160 C155 1.490 . S
C160 C162 1.395 . S
C160 C163 1.403 . S
H161 C167 0.930 . S
C162 H148 0.930 . S
C162 C160 1.395 . S
C162 C165 1.403 . S
C163 C160 1.403 . S
C163 C164 1.524 . S
C163 C167 1.400 . S
C164 H149 0.960 . S
C164 H150 0.960 . S
C164 H151 0.960 . S
C164 C163 1.524 . S
C165 C162 1.403 . S
C165 C166 1.392 . S
C165 C169 1.495 . S
C166 C165 1.392 . S
C166 C167 1.385 . S
C166 C168 1.478 . S
C167 H161 0.930 . S
C167 C163 1.400 . S
C167 C166 1.385 . S
C168 C166 1.478 . S
C168 C170 1.381 . S
C168 C174 1.383 . S
C169 C165 1.495 . S
C169 H175 0.959 . S
C169 H176 0.961 . S
C169 H177 0.960 . S
C170 C168 1.381 . S
C170 C171 1.394 . S
C170 H178 0.930 . S
C171 C170 1.394 . S
C171 C172 1.383 . S
C171 H179 0.929 . S
C172 C171 1.383 . S
C172 C173 1.377 . S
C173 H157 0.930 . S
C173 C172 1.377 . S
C173 C174 1.379 . S
C174 H158 0.931 . S
C174 C168 1.383 . S
C174 C173 1.379 . S
H175 C169 0.959 . S
H176 C169 0.961 . S
H177 C169 0.960 . S
H178 C170 0.930 . S
H179 C171 0.929 . S
H180 C188 0.929 . S
H181 C190 0.930 . S
H182 C192 0.930 . S
H183 C195 0.929 . S
H184 C198 0.930 . S
H185 C200 0.960 . S
H186 C200 0.960 . S
H187 C200 0.960 . S
C188 H180 0.929 . S
C188 C189 1.377 . S
C188 C190 1.384 . S
C189 C188 1.377 . S
C189 C195 1.390 . S
C190 H181 0.930 . S
C190 C188 1.384 . S
C190 C191 1.372 . S
C191 C190 1.372 . S
C191 C192 1.400 . S
C191 C196 1.490 . S
C192 H182 0.930 . S
C192 C191 1.400 . S
C192 C195 1.386 . S
H193 C209 0.930 . S
H194 C210 0.931 . S
C195 H183 0.929 . S
C195 C189 1.390 . S
C195 C192 1.386 . S
C196 C191 1.490 . S
C196 C198 1.395 . S
C196 C199 1.403 . S
H197 C203 0.930 . S
C198 H184 0.930 . S
C198 C196 1.395 . S
C198 C201 1.403 . S
C199 C196 1.403 . S
C199 C200 1.524 . S
C199 C203 1.400 . S
C200 H185 0.960 . S
C200 H186 0.960 . S
C200 H187 0.960 . S
C200 C199 1.524 . S
C201 C198 1.403 . S
C201 C202 1.392 . S
C201 C205 1.495 . S
C202 C201 1.392 . S
C202 C203 1.385 . S
C202 C204 1.478 . S
C203 H197 0.930 . S
C203 C199 1.400 . S
C203 C202 1.385 . S
C204 C202 1.478 . S
C204 C206 1.381 . S
C204 C210 1.383 . S
C205 C201 1.495 . S
C205 H211 0.959 . S
C205 H212 0.961 . S
C205 H213 0.960 . S
C206 C204 1.381 . S
C206 C207 1.394 . S
C206 H214 0.930 . S
C207 C206 1.394 . S
C207 C208 1.383 . S
C207 H215 0.929 . S
C208 C207 1.383 . S
C208 C209 1.377 . S
C209 H193 0.930 . S
C209 C208 1.377 . S
C209 C210 1.379 . S
C210 H194 0.931 . S
C210 C204 1.383 . S
C210 C209 1.379 . S
H211 C205 0.959 . S
H212 C205 0.961 . S
H213 C205 0.960 . S
H214 C206 0.930 . S
H215 C207 0.929 . S
H216 C224 0.929 . S
H217 C226 0.930 . S
H218 C228 0.930 . S
H219 C231 0.929 . S
H220 C234 0.930 . S
H221 C236 0.960 . S
H222 C236 0.960 . S
H223 C236 0.960 . S
C224 H216 0.929 . S
C224 C225 1.377 . S
C224 C226 1.384 . S
C225 C224 1.377 . S
C225 C231 1.390 . S
C226 H217 0.930 . S
C226 C224 1.384 . S
C226 C227 1.372 . S
C227 C226 1.372 . S
C227 C228 1.400 . S
C227 C232 1.490 . S
C228 H218 0.930 . S
C228 C227 1.400 . S
C228 C231 1.386 . S
H229 C245 0.930 . S
H230 C246 0.931 . S
C231 H219 0.929 . S
C231 C225 1.390 . S
C231 C228 1.386 . S
C232 C227 1.490 . S
C232 C234 1.395 . S
C232 C235 1.403 . S
H233 C239 0.930 . S
C234 H220 0.930 . S
C234 C232 1.395 . S
C234 C237 1.403 . S
C235 C232 1.403 . S
C235 C236 1.524 . S
C235 C239 1.400 . S
C236 H221 0.960 . S
C236 H222 0.960 . S
C236 H223 0.960 . S
C236 C235 1.524 . S
C237 C234 1.403 . S
C237 C238 1.392 . S
C237 C241 1.495 . S
C238 C237 1.392 . S
C238 C239 1.385 . S
C238 C240 1.478 . S
C239 H233 0.930 . S
C239 C235 1.400 . S
C239 C238 1.385 . S
C240 C238 1.478 . S
C240 C242 1.381 . S
C240 C246 1.383 . S
C241 C237 1.495 . S
C241 H247 0.959 . S
C241 H248 0.961 . S
C241 H249 0.960 . S
C242 C240 1.381 . S
C242 C243 1.394 . S
C242 H250 0.930 . S
C243 C242 1.394 . S
C243 C244 1.383 . S
C243 H251 0.929 . S
C244 C243 1.383 . S
C244 C245 1.377 . S
C245 H229 0.930 . S
C245 C244 1.377 . S
C245 C246 1.379 . S
C246 H230 0.931 . S
C246 C240 1.383 . S
C246 C245 1.379 . S
H247 C241 0.959 . S
H248 C241 0.961 . S
H249 C241 0.960 . S
H250 C242 0.930 . S
H251 C243 0.929 . S
H252 C260 0.929 . S
H253 C262 0.930 . S
H254 C264 0.930 . S
H255 C267 0.929 . S
H256 C270 0.930 . S
H257 C272 0.960 . S
H258 C272 0.960 . S
H259 C272 0.960 . S
C260 H252 0.929 . S
C260 C261 1.377 . S
C260 C262 1.384 . S
C261 C260 1.377 . S
C261 C267 1.390 . S
C262 H253 0.930 . S
C262 C260 1.384 . S
C262 C263 1.372 . S
C263 C262 1.372 . S
C263 C264 1.400 . S
C263 C268 1.490 . S
C264 H254 0.930 . S
C264 C263 1.400 . S
C264 C267 1.386 . S
H265 C281 0.930 . S
H266 C282 0.931 . S
C267 H255 0.929 . S
C267 C261 1.390 . S
C267 C264 1.386 . S
C268 C263 1.490 . S
C268 C270 1.395 . S
C268 C271 1.403 . S
H269 C275 0.930 . S
C270 H256 0.930 . S
C270 C268 1.395 . S
C270 C273 1.403 . S
C271 C268 1.403 . S
C271 C272 1.524 . S
C271 C275 1.400 . S
C272 H257 0.960 . S
C272 H258 0.960 . S
C272 H259 0.960 . S
C272 C271 1.524 . S
C273 C270 1.403 . S
C273 C274 1.392 . S
C273 C277 1.495 . S
C274 C273 1.392 . S
C274 C275 1.385 . S
C274 C276 1.478 . S
C275 H269 0.930 . S
C275 C271 1.400 . S
C275 C274 1.385 . S
C276 C274 1.478 . S
C276 C278 1.381 . S
C276 C282 1.383 . S
C277 C273 1.495 . S
C277 H283 0.959 . S
C277 H284 0.961 . S
C277 H285 0.960 . S
C278 C276 1.381 . S
C278 C279 1.394 . S
C278 H286 0.930 . S
C279 C278 1.394 . S
C279 C280 1.383 . S
C279 H287 0.929 . S
C280 C279 1.383 . S
C280 C281 1.377 . S
C281 H265 0.930 . S
C281 C280 1.377 . S
C281 C282 1.379 . S
C282 H266 0.931 . S
C282 C276 1.383 . S
C282 C281 1.379 . S
H283 C277 0.959 . S
H284 C277 0.961 . S
H285 C277 0.960 . S
H286 C278 0.930 . S
H287 C279 0.929 . S
H288 C296 0.929 . S
H289 C298 0.930 . S
H290 C300 0.930 . S
H291 C303 0.929 . S
H292 C306 0.930 . S
H293 C308 0.960 . S
H294 C308 0.960 . S
H295 C308 0.960 . S
C296 H288 0.929 . S
C296 C297 1.377 . S
C296 C298 1.384 . S
C297 C296 1.377 . S
C297 C303 1.390 . S
C298 H289 0.930 . S
C298 C296 1.384 . S
C298 C299 1.372 . S
C299 C298 1.372 . S
C299 C300 1.400 . S
C299 C304 1.490 . S
C300 H290 0.930 . S
C300 C299 1.400 . S
C300 C303 1.386 . S
H301 C317 0.930 . S
H302 C318 0.931 . S
C303 H291 0.929 . S
C303 C297 1.390 . S
C303 C300 1.386 . S
C304 C299 1.490 . S
C304 C306 1.395 . S
C304 C307 1.403 . S
H305 C311 0.930 . S
C306 H292 0.930 . S
C306 C304 1.395 . S
C306 C309 1.403 . S
C307 C304 1.403 . S
C307 C308 1.524 . S
C307 C311 1.400 . S
C308 H293 0.960 . S
C308 H294 0.960 . S
C308 H295 0.960 . S
C308 C307 1.524 . S
C309 C306 1.403 . S
C309 C310 1.392 . S
C309 C313 1.495 . S
C310 C309 1.392 . S
C310 C311 1.385 . S
C310 C312 1.478 . S
C311 H305 0.930 . S
C311 C307 1.400 . S
C311 C310 1.385 . S
C312 C310 1.478 . S
C312 C314 1.381 . S
C312 C318 1.383 . S
C313 C309 1.495 . S
C313 H319 0.959 . S
C313 H320 0.961 . S
C313 H321 0.960 . S
C314 C312 1.381 . S
C314 C315 1.394 . S
C314 H322 0.930 . S
C315 C314 1.394 . S
C315 C316 1.383 . S
C315 H323 0.929 . S
C316 C315 1.383 . S
C316 C317 1.377 . S
C317 H301 0.930 . S
C317 C316 1.377 . S
C317 C318 1.379 . S
C318 H302 0.931 . S
C318 C312 1.383 . S
C318 C317 1.379 . S
H319 C313 0.959 . S
H320 C313 0.961 . S
H321 C313 0.960 . S
H322 C314 0.930 . S
H323 C315 0.929 . S
H324 C332 0.929 . S
H325 C334 0.930 . S
H326 C336 0.930 . S
H327 C339 0.929 . S
H328 C342 0.930 . S
H329 C344 0.960 . S
H330 C344 0.960 . S
H331 C344 0.960 . S
C332 H324 0.929 . S
C332 C333 1.377 . S
C332 C334 1.384 . S
C333 C332 1.377 . S
C333 C339 1.390 . S
C334 H325 0.930 . S
C334 C332 1.384 . S
C334 C335 1.372 . S
C335 C334 1.372 . S
C335 C336 1.400 . S
C335 C340 1.490 . S
C336 H326 0.930 . S
C336 C335 1.400 . S
C336 C339 1.386 . S
H337 C353 0.930 . S
H338 C354 0.931 . S
C339 H327 0.929 . S
C339 C333 1.390 . S
C339 C336 1.386 . S
C340 C335 1.490 . S
C340 C342 1.395 . S
C340 C343 1.403 . S
H341 C347 0.930 . S
C342 H328 0.930 . S
C342 C340 1.395 . S
C342 C345 1.403 . S
C343 C340 1.403 . S
C343 C344 1.524 . S
C343 C347 1.400 . S
C344 H329 0.960 . S
C344 H330 0.960 . S
C344 H331 0.960 . S
C344 C343 1.524 . S
C345 C342 1.403 . S
C345 C346 1.392 . S
C345 C349 1.495 . S
C346 C345 1.392 . S
C346 C347 1.385 . S
C346 C348 1.478 . S
C347 H341 0.930 . S
C347 C343 1.400 . S
C347 C346 1.385 . S
C348 C346 1.478 . S
C348 C350 1.381 . S
C348 C354 1.383 . S
C349 C345 1.495 . S
C349 H355 0.959 . S
C349 H356 0.961 . S
C349 H357 0.960 . S
C350 C348 1.381 . S
C350 C351 1.394 . S
C350 H358 0.930 . S
C351 C350 1.394 . S
C351 C352 1.383 . S
C351 H359 0.929 . S
C352 C351 1.383 . S
C352 C353 1.377 . S
C353 H337 0.930 . S
C353 C352 1.377 . S
C353 C354 1.379 . S
C354 H338 0.931 . S
C354 C348 1.383 . S
C354 C353 1.379 . S
H355 C349 0.959 . S
H356 C349 0.961 . S
H357 C349 0.960 . S
H358 C350 0.930 . S
H359 C351 0.929 . S
H360 C368 0.929 . S
H361 C370 0.930 . S
H362 C372 0.930 . S
H363 C375 0.929 . S
H364 C378 0.930 . S
H365 C380 0.960 . S
H366 C380 0.960 . S
H367 C380 0.960 . S
C368 H360 0.929 . S
C368 C369 1.377 . S
C368 C370 1.384 . S
C369 C368 1.377 . S
C369 C375 1.390 . S
C370 H361 0.930 . S
C370 C368 1.384 . S
C370 C371 1.372 . S
C371 C370 1.372 . S
C371 C372 1.400 . S
C371 C376 1.490 . S
C372 H362 0.930 . S
C372 C371 1.400 . S
C372 C375 1.386 . S
H373 C389 0.930 . S
H374 C390 0.931 . S
C375 H363 0.929 . S
C375 C369 1.390 . S
C375 C372 1.386 . S
C376 C371 1.490 . S
C376 C378 1.395 . S
C376 C379 1.403 . S
H377 C383 0.930 . S
C378 H364 0.930 . S
C378 C376 1.395 . S
C378 C381 1.403 . S
C379 C376 1.403 . S
C379 C380 1.524 . S
C379 C383 1.400 . S
C380 H365 0.960 . S
C380 H366 0.960 . S
C380 H367 0.960 . S
C380 C379 1.524 . S
C381 C378 1.403 . S
C381 C382 1.392 . S
C381 C385 1.495 . S
C382 C381 1.392 . S
C382 C383 1.385 . S
C382 C384 1.478 . S
C383 H377 0.930 . S
C383 C379 1.400 . S
C383 C382 1.385 . S
C384 C382 1.478 . S
C384 C386 1.381 . S
C384 C390 1.383 . S
C385 C381 1.495 . S
C385 H391 0.959 . S
C385 H392 0.961 . S
C385 H393 0.960 . S
C386 C384 1.381 . S
C386 C387 1.394 . S
C386 H394 0.930 . S
C387 C386 1.394 . S
C387 C388 1.383 . S
C387 H395 0.929 . S
C388 C387 1.383 . S
C388 C389 1.377 . S
C389 H373 0.930 . S
C389 C388 1.377 . S
C389 C390 1.379 . S
C390 H374 0.931 . S
C390 C384 1.383 . S
C390 C389 1.379 . S
H391 C385 0.959 . S
H392 C385 0.961 . S
H393 C385 0.960 . S
H394 C386 0.930 . S
H395 C387 0.929 . S
C117 C27 0.076 . S
C136 C64 0.091 . S
C153 C32 2.097 . S
C172 C76 2.107 . S
C189 C28 1.143 . S
C208 C89 1.153 . S
C225 C5 2.089 . S
C244 C67 2.097 . S
C261 C22 2.096 . S
C280 C86 2.089 . S
C297 C82 1.143 . S
C316 C35 1.150 . S
C333 C13 2.099 . S
C352 C59 2.103 . S
C369 C81 0.080 . S
C388 C10 0.074 . S
