# Generated by pormake.
# Topology umc, (4)-cn, num edge types: 1
# Building blocks:
#     Node 0, Type 0, BuildingBlock: KOZSID_clean_sbu_0, # of connection points: 4
#     Node 1, Type 0, BuildingBlock: KOZSID_clean_sbu_0, # of connection points: 4
#     Node 2, Type 0, BuildingBlock: KOZSID_clean_sbu_0, # of connection points: 4
#     Node 3, Type 0, BuildingBlock: KOZSID_clean_sbu_0, # of connection points: 4
#     Node 4, Type 0, BuildingBlock: KOZSID_clean_sbu_0, # of connection points: 4
#     Node 5, Type 0, BuildingBlock: KOZSID_clean_sbu_0, # of connection points: 4
#     Node 6, Type 0, BuildingBlock: KOZSID_clean_sbu_0, # of connection points: 4
#     Node 7, Type 0, BuildingBlock: KOZSID_clean_sbu_0, # of connection points: 4
#     Node 8, Type 0, BuildingBlock: KOZSID_clean_sbu_0, # of connection points: 4
#     Node 9, Type 0, BuildingBlock: KOZSID_clean_sbu_0, # of connection points: 4
#     Node 10, Type 0, BuildingBlock: KOZSID_clean_sbu_0, # of connection points: 4
#     Node 11, Type 0, BuildingBlock: KOZSID_clean_sbu_0, # of connection points: 4
#     Node 12, Type 0, BuildingBlock: KOZSID_clean_sbu_0, # of connection points: 4
#     Node 13, Type 0, BuildingBlock: KOZSID_clean_sbu_0, # of connection points: 4
#     Node 14, Type 0, BuildingBlock: KOZSID_clean_sbu_0, # of connection points: 4
#     Node 15, Type 0, BuildingBlock: KOZSID_clean_sbu_0, # of connection points: 4
#     Edge 16, Type (0, 0), BuildingBlock: AJUNOK_clean_linker_0, # of connection points: 2
#     Edge 17, Type (0, 0), BuildingBlock: AJUNOK_clean_linker_0, # of connection points: 2
#     Edge 18, Type (0, 0), BuildingBlock: AJUNOK_clean_linker_0, # of connection points: 2
#     Edge 19, Type (0, 0), BuildingBlock: AJUNOK_clean_linker_0, # of connection points: 2
#     Edge 20, Type (0, 0), BuildingBlock: AJUNOK_clean_linker_0, # of connection points: 2
#     Edge 21, Type (0, 0), BuildingBlock: AJUNOK_clean_linker_0, # of connection points: 2
#     Edge 22, Type (0, 0), BuildingBlock: AJUNOK_clean_linker_0, # of connection points: 2
#     Edge 23, Type (0, 0), BuildingBlock: AJUNOK_clean_linker_0, # of connection points: 2
#     Edge 24, Type (0, 0), BuildingBlock: AJUNOK_clean_linker_0, # of connection points: 2
#     Edge 25, Type (0, 0), BuildingBlock: AJUNOK_clean_linker_0, # of connection points: 2
#     Edge 26, Type (0, 0), BuildingBlock: AJUNOK_clean_linker_0, # of connection points: 2
#     Edge 27, Type (0, 0), BuildingBlock: AJUNOK_clean_linker_0, # of connection points: 2
#     Edge 28, Type (0, 0), BuildingBlock: AJUNOK_clean_linker_0, # of connection points: 2
#     Edge 29, Type (0, 0), BuildingBlock: AJUNOK_clean_linker_0, # of connection points: 2
#     Edge 30, Type (0, 0), BuildingBlock: AJUNOK_clean_linker_0, # of connection points: 2
#     Edge 31, Type (0, 0), BuildingBlock: AJUNOK_clean_linker_0, # of connection points: 2
#     Edge 32, Type (0, 0), BuildingBlock: AJUNOK_clean_linker_0, # of connection points: 2
#     Edge 33, Type (0, 0), BuildingBlock: AJUNOK_clean_linker_0, # of connection points: 2
#     Edge 34, Type (0, 0), BuildingBlock: AJUNOK_clean_linker_0, # of connection points: 2
#     Edge 35, Type (0, 0), BuildingBlock: AJUNOK_clean_linker_0, # of connection points: 2
#     Edge 36, Type (0, 0), BuildingBlock: AJUNOK_clean_linker_0, # of connection points: 2
#     Edge 37, Type (0, 0), BuildingBlock: AJUNOK_clean_linker_0, # of connection points: 2
#     Edge 38, Type (0, 0), BuildingBlock: AJUNOK_clean_linker_0, # of connection points: 2
#     Edge 39, Type (0, 0), BuildingBlock: AJUNOK_clean_linker_0, # of connection points: 2
#     Edge 40, Type (0, 0), BuildingBlock: AJUNOK_clean_linker_0, # of connection points: 2
#     Edge 41, Type (0, 0), BuildingBlock: AJUNOK_clean_linker_0, # of connection points: 2
#     Edge 42, Type (0, 0), BuildingBlock: AJUNOK_clean_linker_0, # of connection points: 2
#     Edge 43, Type (0, 0), BuildingBlock: AJUNOK_clean_linker_0, # of connection points: 2
#     Edge 44, Type (0, 0), BuildingBlock: AJUNOK_clean_linker_0, # of connection points: 2
#     Edge 45, Type (0, 0), BuildingBlock: AJUNOK_clean_linker_0, # of connection points: 2
#     Edge 46, Type (0, 0), BuildingBlock: AJUNOK_clean_linker_0, # of connection points: 2
#     Edge 47, Type (0, 0), BuildingBlock: AJUNOK_clean_linker_0, # of connection points: 2
# Relax obj value: 0.054
# Max RMSD: 0.171
# Mean RMSD: 0.171
data_MOF--net-umc--node1-KOZSID_clean_sbu_0--edge1-AJUNOK_clean_linker_0
_symmetry_space_group_name_H-M    P1
_symmetry_Int_Tables_number       1
_symmetry_cell_setting            triclinic
loop_
_symmetry_equiv_pos_as_xyz
'x, y, z'
_cell_length_a     53.198789
_cell_length_b     30.924063
_cell_length_c     47.476938
_cell_angle_alpha  89.978578
_cell_angle_beta   90.083461
_cell_angle_gamma 89.995593
loop_
_atom_site_label
_atom_site_type_symbol
_atom_site_fract_x
_atom_site_fract_y
_atom_site_fract_z
_atom_type_partial_charge
C0 C 0.38184 0.04386 0.32524 0.0
C1 C 0.36327 0.01421 0.31794 0.0
C2 C 0.34933 0.00676 0.34166 0.0
C3 C 0.35971 0.03279 0.36193 0.0
N4 N 0.37929 0.05621 0.3525 0.0
Co5 Co 0.39549 0.10384 0.37373 0.0
N6 N 0.38461 0.07931 0.41039 0.0
C7 C 0.36587 0.05057 0.41393 0.0
C8 C 0.36193 0.03985 0.44159 0.0
C9 C 0.37907 0.06374 0.45647 0.0
C10 C 0.39256 0.08793 0.43697 0.0
N11 N 0.4107 0.15229 0.39526 0.0
C12 C 0.41561 0.15617 0.4233 0.0
C13 C 0.42575 0.19648 0.42919 0.0
C14 C 0.42696 0.21846 0.40403 0.0
C15 C 0.4175 0.19053 0.38414 0.0
N16 N 0.40684 0.12638 0.33658 0.0
C17 C 0.41634 0.16614 0.33213 0.0
C18 C 0.42837 0.16913 0.30664 0.0
C19 C 0.42599 0.12911 0.2943 0.0
C20 C 0.41161 0.10389 0.3123 0.0
N21 N 0.36383 0.13835 0.37131 0.0
C22 C 0.32191 0.19536 0.36868 0.0
C23 C 0.33171 0.17598 0.34424 0.0
C24 C 0.35238 0.14723 0.34604 0.0
C25 C 0.33341 0.18495 0.39436 0.0
C26 C 0.35425 0.15709 0.3952 0.0
N27 N 0.42765 0.07177 0.37642 0.0
C28 C 0.47309 0.07522 0.37575 0.0
C29 C 0.47504 0.03118 0.38145 0.0
C30 C 0.45263 0.00729 0.38424 0.0
C31 C 0.42906 0.02834 0.38194 0.0
C32 C 0.44955 0.09455 0.37305 0.0
H33 H 0.41204 0.00974 0.38468 0.0
H34 H 0.44936 0.1284 0.36823 0.0
H35 H 0.35935 0.1328 0.32687 0.0
H36 H 0.36294 0.15173 0.41538 0.0
C37 C 0.35409 0.0316 0.39067 0.0
C38 C 0.40118 0.06005 0.3056 0.0
C39 C 0.40992 0.12302 0.44479 0.0
C40 C 0.4195 0.19509 0.35475 0.0
H41 H 0.36002 0.99944 0.29761 0.0
H42 H 0.33391 0.98421 0.344 0.0
H43 H 0.34836 0.01717 0.44996 0.0
H44 H 0.38073 0.06443 0.47917 0.0
H45 H 0.43178 0.20861 0.44948 0.0
H46 H 0.43491 0.25022 0.40052 0.0
H47 H 0.43957 0.1959 0.299 0.0
H48 H 0.43499 0.11949 0.27493 0.0
H49 H 0.32336 0.18275 0.3239 0.0
H50 H 0.32669 0.19918 0.41379 0.0
H51 H 0.48983 0.09476 0.37304 0.0
H52 H 0.45333 0.97292 0.3885 0.0
C53 C 0.67324 0.978 0.3338 0.0
C54 C 0.68529 0.0177 0.33106 0.0
C55 C 0.69786 0.025 0.35571 0.0
C56 C 0.69246 0.99008 0.37239 0.0
N57 N 0.67712 0.9612 0.35989 0.0
Co58 Co 0.66299 0.90846 0.37795 0.0
N59 N 0.67046 0.93074 0.4163 0.0
C60 C 0.68688 0.96249 0.42249 0.0
C61 C 0.68878 0.97072 0.45076 0.0
C62 C 0.67271 0.94211 0.46323 0.0
C63 C 0.66179 0.9179 0.4418 0.0
N64 N 0.64926 0.85577 0.39629 0.0
C65 C 0.64285 0.84844 0.42366 0.0
C66 C 0.6347 0.80619 0.42719 0.0
C67 C 0.6364 0.78653 0.40125 0.0
C68 C 0.64545 0.81771 0.38326 0.0
N69 N 0.6554 0.88745 0.33931 0.0
C70 C 0.6507 0.84606 0.33242 0.0
C71 C 0.64608 0.84097 0.30411 0.0
C72 C 0.64814 0.88168 0.29256 0.0
C73 C 0.65384 0.90963 0.3145 0.0
N74 N 0.69646 0.8792 0.37666 0.0
C75 C 0.73834 0.82209 0.3735 0.0
C76 C 0.7299 0.84509 0.34973 0.0
C77 C 0.70934 0.87398 0.35186 0.0
C78 C 0.72599 0.82997 0.39904 0.0
C79 C 0.70521 0.85803 0.40014 0.0
N80 N 0.62911 0.93485 0.37925 0.0
C81 C 0.58431 0.92526 0.37299 0.0
C82 C 0.57935 0.96752 0.38194 0.0
C83 C 0.60022 0.99337 0.38936 0.0
C84 C 0.62489 0.97638 0.38802 0.0
C85 C 0.60896 0.90988 0.37164 0.0
H86 H 0.6405 0.99671 0.39404 0.0
H87 H 0.61154 0.8772 0.36455 0.0
H88 H 0.70332 0.89085 0.33312 0.0
H89 H 0.69559 0.86087 0.41997 0.0
C90 C 0.69704 0.98811 0.40125 0.0
C91 C 0.65973 0.95617 0.3107 0.0
C92 C 0.64571 0.88002 0.44683 0.0
C93 C 0.64699 0.81488 0.35368 0.0
H94 H 0.68495 0.0396 0.31331 0.0
H95 H 0.70841 0.05364 0.36137 0.0
H96 H 0.69996 0.99536 0.46104 0.0
H97 H 0.66977 0.93897 0.4856 0.0
H98 H 0.62835 0.79115 0.44649 0.0
H99 H 0.63093 0.75379 0.39601 0.0
H100 H 0.64099 0.81147 0.29324 0.0
H101 H 0.64589 0.88985 0.27054 0.0
H102 H 0.73906 0.84066 0.32959 0.0
H103 H 0.73178 0.81319 0.418 0.0
H104 H 0.56914 0.90361 0.36728 0.0
H105 H 0.59766 0.02663 0.3958 0.0
C106 C 0.37934 0.96231 0.18485 0.0
C107 C 0.36002 0.99032 0.19234 0.0
C108 C 0.34596 0.99728 0.16854 0.0
C109 C 0.35698 0.9723 0.14813 0.0
N110 N 0.37699 0.95004 0.1576 0.0
Co111 Co 0.39373 0.90286 0.13675 0.0
N112 N 0.38313 0.9272 0.09994 0.0
C113 C 0.36417 0.95548 0.09615 0.0
C114 C 0.36042 0.96609 0.06841 0.0
C115 C 0.37789 0.94256 0.05379 0.0
C116 C 0.39138 0.91864 0.07349 0.0
N117 N 0.40949 0.85467 0.11561 0.0
C118 C 0.41463 0.85067 0.08766 0.0
C119 C 0.42489 0.81035 0.08203 0.0
C120 C 0.42585 0.78847 0.10727 0.0
C121 C 0.41615 0.81648 0.12693 0.0
N122 N 0.40475 0.88064 0.17409 0.0
C123 C 0.41347 0.84052 0.17898 0.0
C124 C 0.42394 0.83676 0.20532 0.0
C125 C 0.42149 0.87681 0.21768 0.0
C126 C 0.40899 0.90313 0.19851 0.0
N127 N 0.36225 0.8677 0.13859 0.0
C128 C 0.32157 0.80749 0.14061 0.0
C129 C 0.33045 0.82845 0.16508 0.0
C130 C 0.35056 0.85843 0.16361 0.0
C131 C 0.33284 0.81966 0.11506 0.0
C132 C 0.35308 0.84882 0.11454 0.0
N133 N 0.42573 0.93547 0.13471 0.0
C134 C 0.47117 0.93263 0.13658 0.0
C135 C 0.47302 0.97662 0.13063 0.0
C136 C 0.45056 1.00019 0.12718 0.0
C137 C 0.42703 0.97886 0.12904 0.0
C138 C 0.44766 0.91302 0.1388 0.0
H139 H 0.40997 0.99719 0.12582 0.0
H140 H 0.44749 0.87922 0.14382 0.0
H141 H 0.35706 0.87319 0.1829 0.0
H142 H 0.36168 0.85501 0.09445 0.0
C143 C 0.3517 0.97368 0.11926 0.0
C144 C 0.39959 0.94805 0.204 0.0
C145 C 0.40882 0.8835 0.06594 0.0
C146 C 0.41725 0.81164 0.15642 0.0
H147 H 0.35668 0.00483 0.21273 0.0
H148 H 0.33014 0.019 0.16623 0.0
H149 H 0.34667 0.98828 0.05982 0.0
H150 H 0.3797 0.94176 0.03111 0.0
H151 H 0.43103 0.79805 0.06185 0.0
H152 H 0.43362 0.75662 0.11095 0.0
H153 H 0.43403 0.80925 0.21376 0.0
H154 H 0.42912 0.88529 0.23798 0.0
H155 H 0.3224 0.82095 0.18543 0.0
H156 H 0.32624 0.80658 0.09525 0.0
H157 H 0.48794 0.91334 0.13977 0.0
H158 H 0.45118 0.0345 0.12271 0.0
C159 C 0.67218 0.02725 0.1782 0.0
C160 C 0.68389 0.98718 0.18051 0.0
C161 C 0.69577 0.97968 0.15551 0.0
C162 C 0.69032 0.01488 0.13908 0.0
N163 N 0.67562 0.04418 0.15208 0.0
Co164 Co 0.66154 0.09747 0.13452 0.0
N165 N 0.66803 0.0754 0.09585 0.0
C166 C 0.68357 0.0426 0.08917 0.0
C167 C 0.68444 0.03406 0.0609 0.0
C168 C 0.66868 0.06364 0.04887 0.0
C169 C 0.65906 0.08887 0.07057 0.0
N170 N 0.64795 0.15084 0.11677 0.0
C171 C 0.64182 0.15931 0.08944 0.0
C172 C 0.63429 0.20199 0.08636 0.0
C173 C 0.63611 0.22082 0.11252 0.0
C174 C 0.64462 0.18874 0.13017 0.0
N175 N 0.65476 0.11811 0.17345 0.0
C176 C 0.65034 0.15945 0.18069 0.0
C177 C 0.64622 0.16426 0.2091 0.0
C178 C 0.64829 0.12339 0.22037 0.0
C179 C 0.6535 0.09566 0.19818 0.0
N180 N 0.69524 0.12612 0.13524 0.0
C181 C 0.73616 0.18578 0.13768 0.0
C182 C 0.72851 0.16204 0.16156 0.0
C183 C 0.70835 0.13219 0.15984 0.0
C184 C 0.72411 0.17556 0.11217 0.0
C185 C 0.7038 0.14655 0.11146 0.0
N186 N 0.62745 0.07175 0.13369 0.0
C187 C 0.58272 0.08204 0.1402 0.0
C188 C 0.57745 0.03999 0.13098 0.0
C189 C 0.59815 0.01384 0.12348 0.0
C190 C 0.6229 0.03037 0.12482 0.0
C191 C 0.60749 0.09699 0.14155 0.0
H192 H 0.63833 0.00978 0.11865 0.0
H193 H 0.61034 0.12954 0.14877 0.0
H194 H 0.70265 0.11562 0.1788 0.0
H195 H 0.69432 0.14257 0.09162 0.0
C196 C 0.69397 0.01662 0.11009 0.0
C197 C 0.65923 0.04903 0.20167 0.0
C198 C 0.64439 0.12854 0.06582 0.0
C199 C 0.64655 0.19102 0.15973 0.0
H200 H 0.68369 0.96509 0.19815 0.0
H201 H 0.70581 0.9507 0.14945 0.0
H202 H 0.69475 0.00863 0.05033 0.0
H203 H 0.66513 0.0667 0.02659 0.0
H204 H 0.62833 0.21789 0.06717 0.0
H205 H 0.63123 0.2537 0.11809 0.0
H206 H 0.64148 0.19369 0.22022 0.0
H207 H 0.64638 0.11498 0.24239 0.0
H208 H 0.73736 0.16761 0.18178 0.0
H209 H 0.7299 0.19061 0.09265 0.0
H210 H 0.5677 0.10388 0.14605 0.0
H211 H 0.59538 0.98068 0.11692 0.0
C212 C 0.6409 0.89968 0.70034 0.0
C213 C 0.62693 0.87385 0.71838 0.0
C214 C 0.62598 0.83324 0.70661 0.0
C215 C 0.63837 0.83643 0.68134 0.0
N216 N 0.64671 0.87685 0.6765 0.0
Co217 Co 0.6577 0.89932 0.63921 0.0
N218 N 0.64415 0.84896 0.61814 0.0
C219 C 0.63852 0.81042 0.62964 0.0
C220 C 0.63003 0.78117 0.61 0.0
C221 C 0.63065 0.80263 0.58461 0.0
C222 C 0.63945 0.84397 0.59013 0.0
N223 N 0.66818 0.92363 0.60239 0.0
C224 C 0.66061 0.91365 0.57589 0.0
C225 C 0.67359 0.93829 0.55623 0.0
C226 C 0.69 0.96393 0.57091 0.0
C227 C 0.68615 0.95371 0.59867 0.0
N228 N 0.67226 0.94892 0.65995 0.0
C229 C 0.69129 0.9736 0.65046 0.0
C230 C 0.70079 1.00094 0.67053 0.0
C231 C 0.68685 0.993 0.69419 0.0
C232 C 0.66913 0.96175 0.68703 0.0
N233 N 0.69017 0.86792 0.64248 0.0
C234 C 0.73263 0.81249 0.64697 0.0
C235 C 0.72137 0.82158 0.62087 0.0
C236 C 0.70033 0.84873 0.61911 0.0
C237 C 0.72243 0.8333 0.67077 0.0
C238 C 0.70151 0.86111 0.66804 0.0
N239 N 0.62478 0.92829 0.63582 0.0
C240 C 0.59792 0.9901 0.62733 0.0
C241 C 0.5762 0.96455 0.63123 0.0
C242 C 0.57964 0.92079 0.63726 0.0
C243 C 0.60368 0.90367 0.63967 0.0
C244 C 0.62208 0.97126 0.6296 0.0
H245 H 0.60491 0.86999 0.6447 0.0
H246 H 0.63851 0.99124 0.62648 0.0
H247 H 0.69186 0.85293 0.59869 0.0
H248 H 0.69403 0.876 0.68681 0.0
C249 C 0.63639 0.8065 0.65907 0.0
C250 C 0.65005 0.94451 0.70661 0.0
C251 C 0.64416 0.87713 0.56836 0.0
C252 C 0.69719 0.97435 0.62178 0.0
H253 H 0.61726 0.88334 0.73736 0.0
H254 H 0.61544 0.8058 0.71439 0.0
H255 H 0.62306 0.74882 0.61381 0.0
H256 H 0.6251 0.78948 0.56442 0.0
H257 H 0.67208 0.93677 0.5336 0.0
H258 H 0.703 0.98742 0.56235 0.0
H259 H 0.71564 0.02456 0.66812 0.0
H260 H 0.68955 0.00847 0.71439 0.0
H261 H 0.72854 0.80729 0.60168 0.0
H262 H 0.72991 0.82715 0.69159 0.0
H263 H 0.59634 0.02436 0.62303 0.0
H264 H 0.56372 0.89938 0.64005 0.0
C265 C 0.41044 0.10033 0.6988 0.0
C266 C 0.42334 0.12598 0.718 0.0
C267 C 0.42573 0.16636 0.70605 0.0
C268 C 0.4148 0.16345 0.67989 0.0
N269 N 0.40592 0.12352 0.67472 0.0
Co270 Co 0.39391 0.10266 0.63742 0.0
N271 N 0.40903 0.15168 0.61655 0.0
C272 C 0.41581 0.18959 0.62816 0.0
C273 C 0.42526 0.21804 0.60857 0.0
C274 C 0.42405 0.19669 0.58315 0.0
C275 C 0.41393 0.15621 0.58858 0.0
N276 N 0.38253 0.0796 0.60061 0.0
C277 C 0.39056 0.08867 0.57416 0.0
C278 C 0.37674 0.0655 0.55439 0.0
C279 C 0.35933 0.04181 0.56902 0.0
C280 C 0.36345 0.05161 0.59682 0.0
N281 N 0.37759 0.05475 0.658 0.0
C282 C 0.3573 0.03306 0.6487 0.0
C283 C 0.34633 0.00801 0.66911 0.0
C284 C 0.36068 0.01436 0.69274 0.0
C285 C 0.38014 0.04204 0.68514 0.0
N286 N 0.3626 0.13742 0.64084 0.0
C287 C 0.32165 0.19646 0.64563 0.0
C288 C 0.33148 0.18434 0.6193 0.0
C289 C 0.35201 0.15593 0.61741 0.0
C290 C 0.33294 0.17733 0.66951 0.0
C291 C 0.35263 0.1472 0.66663 0.0
N292 N 0.42575 0.07047 0.63395 0.0
C293 C 0.45046 0.00609 0.62567 0.0
C294 C 0.47286 0.02998 0.62852 0.0
C295 C 0.47108 0.07388 0.63451 0.0
C296 C 0.44765 0.09317 0.63743 0.0
C297 C 0.42697 0.02717 0.62813 0.0
H298 H 0.44754 0.12685 0.64268 0.0
H299 H 0.40988 0.00872 0.62541 0.0
H300 H 0.35961 0.14994 0.59678 0.0
H301 H 0.36032 0.13296 0.68552 0.0
C302 C 0.41782 0.19331 0.65768 0.0
C303 C 0.40069 0.05556 0.70412 0.0
C304 C 0.40833 0.12337 0.56684 0.0
C305 C 0.35139 0.0327 0.61995 0.0
H306 H 0.43114 0.11687 0.73811 0.0
H307 H 0.43592 0.19362 0.71467 0.0
H308 H 0.4332 0.24971 0.61244 0.0
H309 H 0.43007 0.20933 0.563 0.0
H310 H 0.37838 0.06682 0.5317 0.0
H311 H 0.34544 0.01991 0.56039 0.0
H312 H 0.33025 0.98682 0.66693 0.0
H313 H 0.35739 0.99974 0.71311 0.0
H314 H 0.32364 0.19703 0.59995 0.0
H315 H 0.32739 0.1862 0.6906 0.0
H316 H 0.45112 0.97174 0.62133 0.0
H317 H 0.48785 0.09328 0.63748 0.0
C318 C 0.63742 0.10123 0.8125 0.0
C319 C 0.62081 0.12186 0.79436 0.0
C320 C 0.61435 0.16026 0.80674 0.0
C321 C 0.62672 0.16086 0.83208 0.0
N322 N 0.64109 0.12542 0.83641 0.0
Co323 Co 0.65556 0.10725 0.87373 0.0
N324 N 0.64124 0.15838 0.89422 0.0
C325 C 0.62994 0.19288 0.88216 0.0
C326 C 0.62172 0.22277 0.90146 0.0
C327 C 0.62809 0.20618 0.92728 0.0
C328 C 0.63977 0.16688 0.92232 0.0
N329 N 0.66848 0.08621 0.91091 0.0
C330 C 0.6637 0.10033 0.93744 0.0
C331 C 0.67563 0.07475 0.95743 0.0
C332 C 0.68799 0.043 0.94312 0.0
C333 C 0.68294 0.0509 0.9153 0.0
N334 N 0.67128 0.05768 0.85331 0.0
C335 C 0.68862 0.03028 0.86382 0.0
C336 C 0.69991 0.00506 0.84378 0.0
C337 C 0.68854 0.01637 0.81905 0.0
C338 C 0.67014 0.04661 0.82572 0.0
N339 N 0.68716 0.14247 0.86752 0.0
C340 C 0.72982 0.19944 0.86479 0.0
C341 C 0.73167 0.1573 0.87582 0.0
C342 C 0.71038 0.13006 0.87739 0.0
C343 C 0.70601 0.21155 0.85476 0.0
C344 C 0.68573 0.18254 0.85521 0.0
N345 N 0.62381 0.07418 0.88 0.0
C346 C 0.59968 0.00767 0.88339 0.0
C347 C 0.57709 0.03112 0.88555 0.0
C348 C 0.57849 0.07593 0.88502 0.0
C349 C 0.60155 0.09642 0.88202 0.0
C350 C 0.62288 0.02984 0.88111 0.0
H351 H 0.60049 0.13061 0.88074 0.0
H352 H 0.63986 0.01094 0.87988 0.0
H353 H 0.71327 0.09936 0.88703 0.0
H354 H 0.66886 0.19407 0.84595 0.0
C355 C 0.62289 0.19144 0.85361 0.0
C356 C 0.64962 0.05889 0.80655 0.0
C357 C 0.64811 0.13765 0.9448 0.0
C358 C 0.69232 0.02686 0.89279 0.0
H359 H 0.61319 0.11011 0.77473 0.0
H360 H 0.60097 0.18376 0.7989 0.0
H361 H 0.61101 0.25187 0.89737 0.0
H362 H 0.62386 0.22056 0.94751 0.0
H363 H 0.67556 0.0788 0.98 0.0
H364 H 0.69937 0.01732 0.95196 0.0
H365 H 0.71408 0.9804 0.84689 0.0
H366 H 0.69222 1.00183 0.79874 0.0
H367 H 0.74944 0.14515 0.8836 0.0
H368 H 0.70232 0.24384 0.84717 0.0
H369 H 0.59942 0.97266 0.88353 0.0
H370 H 0.56158 0.09543 0.88594 0.0
C371 C 0.40912 0.89762 0.81157 0.0
C372 C 0.42294 0.87132 0.79368 0.0
C373 C 0.42411 0.83107 0.80597 0.0
C374 C 0.41198 0.8349 0.83136 0.0
N375 N 0.4036 0.87541 0.83576 0.0
Co376 Co 0.3927 0.89878 0.87284 0.0
N377 N 0.40692 0.84961 0.89449 0.0
C378 C 0.41279 0.81085 0.88352 0.0
C379 C 0.42186 0.78265 0.90349 0.0
C380 C 0.42138 0.80507 0.92854 0.0
C381 C 0.41204 0.84591 0.92249 0.0
N382 N 0.3822 0.924 0.90939 0.0
C383 C 0.39009 0.91525 0.93596 0.0
C384 C 0.3769 0.93997 0.95543 0.0
C385 C 0.36006 0.96446 0.94049 0.0
C386 C 0.36385 0.95349 0.91283 0.0
N387 N 0.37761 0.94733 0.85154 0.0
C388 C 0.35839 0.97177 0.8608 0.0
C389 C 0.3487 0.99846 0.84044 0.0
C390 C 0.36273 0.99032 0.81687 0.0
C391 C 0.38067 0.95962 0.82434 0.0
N392 N 0.36051 0.86623 0.8703 0.0
C393 C 0.31925 0.80781 0.86688 0.0
C394 C 0.3303 0.81883 0.89279 0.0
C395 C 0.35075 0.8474 0.89402 0.0
C396 C 0.32895 0.82843 0.84272 0.0
C397 C 0.34923 0.85777 0.84491 0.0
N398 N 0.42543 0.9286 0.87557 0.0
C399 C 0.45211 0.99031 0.88504 0.0
C400 C 0.47389 0.96523 0.88035 0.0
C401 C 0.47061 0.92185 0.8733 0.0
C402 C 0.44662 0.90448 0.87099 0.0
C403 C 0.42799 0.97132 0.88253 0.0
H404 H 0.44552 0.87092 0.86564 0.0
H405 H 0.41149 0.99089 0.88626 0.0
H406 H 0.35919 0.85287 0.91433 0.0
H407 H 0.35635 0.87238 0.82587 0.0
C408 C 0.41448 0.80585 0.8541 0.0
C409 C 0.39986 0.94231 0.80492 0.0
C410 C 0.40721 0.87982 0.94378 0.0
C411 C 0.35253 0.97312 0.88949 0.0
H412 H 0.43242 0.8803 0.77447 0.0
H413 H 0.43469 0.80352 0.79843 0.0
H414 H 0.42913 0.75038 0.90011 0.0
H415 H 0.42737 0.79288 0.94883 0.0
H416 H 0.3786 0.93934 0.97812 0.0
H417 H 0.34683 0.98777 0.9488 0.0
H418 H 0.33369 0.02184 0.84262 0.0
H419 H 0.35996 0.00534 0.79652 0.0
H420 H 0.32349 0.80488 0.91226 0.0
H421 H 0.32165 0.82093 0.82201 0.0
H422 H 0.45363 0.02428 0.89026 0.0
H423 H 0.48663 0.90088 0.86986 0.0
C424 C 0.87876 0.52464 0.33451 0.0
C425 C 0.86617 0.48534 0.33245 0.0
C426 C 0.85359 0.47949 0.35722 0.0
C427 C 0.85957 0.51474 0.37335 0.0
N428 N 0.87524 0.5425 0.36035 0.0
Co429 Co 0.89096 0.59442 0.37775 0.0
N430 N 0.8834 0.5736 0.41645 0.0
C431 C 0.86643 0.54295 0.42313 0.0
C432 C 0.86501 0.53491 0.45144 0.0
C433 C 0.88193 0.56258 0.46342 0.0
C434 C 0.89274 0.58624 0.44171 0.0
N435 N 0.90667 0.6461 0.39527 0.0
C436 C 0.91328 0.65386 0.42254 0.0
C437 C 0.92268 0.69544 0.42547 0.0
C438 C 0.92156 0.71434 0.39927 0.0
C439 C 0.9116 0.68337 0.38174 0.0
N440 N 0.89823 0.61422 0.33876 0.0
C441 C 0.90371 0.65513 0.33137 0.0
C442 C 0.90796 0.65935 0.30294 0.0
C443 C 0.90488 0.61856 0.29185 0.0
C444 C 0.89903 0.59145 0.31418 0.0
N445 N 0.85831 0.62643 0.37691 0.0
C446 C 0.81827 0.68787 0.37439 0.0
C447 C 0.82517 0.66298 0.35071 0.0
C448 C 0.84491 0.6323 0.35248 0.0
C449 C 0.83074 0.67825 0.39974 0.0
C450 C 0.85062 0.64839 0.40047 0.0
N451 N 0.9241 0.56504 0.37881 0.0
C452 C 0.96857 0.56744 0.36814 0.0
C453 C 0.97314 0.52869 0.38268 0.0
C454 C 0.95208 0.50849 0.39517 0.0
C455 C 0.9278 0.52654 0.39241 0.0
C456 C 0.94443 0.58531 0.36706 0.0
H457 H 0.91216 0.50979 0.40189 0.0
H458 H 0.94249 0.61617 0.35688 0.0
H459 H 0.85 0.61468 0.3337 0.0
H460 H 0.8604 0.64469 0.42016 0.0
C461 C 0.85548 0.51756 0.40225 0.0
C462 C 0.89261 0.54506 0.31109 0.0
C463 C 0.90915 0.62383 0.44633 0.0
C464 C 0.90918 0.68605 0.35225 0.0
H465 H 0.86625 0.4626 0.31517 0.0
H466 H 0.84278 0.4514 0.36341 0.0
H467 H 0.85368 0.51085 0.46205 0.0
H468 H 0.88555 0.56541 0.48567 0.0
H469 H 0.92928 0.71067 0.44462 0.0
H470 H 0.92771 0.74655 0.39362 0.0
H471 H 0.91368 0.68819 0.29173 0.0
H472 H 0.90674 0.60977 0.26989 0.0
H473 H 0.81601 0.66812 0.33062 0.0
H474 H 0.82553 0.69421 0.41916 0.0
H475 H 0.98361 0.58451 0.35758 0.0
H476 H 0.95411 0.47949 0.40766 0.0
C477 C 0.17331 0.48062 0.33594 0.0
C478 C 0.18481 0.52093 0.33453 0.0
C479 C 0.19661 0.52737 0.35976 0.0
C480 C 0.19132 0.49129 0.37542 0.0
N481 N 0.17682 0.46244 0.3617 0.0
Co482 Co 0.16287 0.4082 0.37792 0.0
N483 N 0.16929 0.42811 0.41709 0.0
C484 C 0.18471 0.46067 0.42463 0.0
C485 C 0.185 0.46829 0.45303 0.0
C486 C 0.16901 0.43832 0.46418 0.0
C487 C 0.15995 0.41364 0.44191 0.0
N488 N 0.14899 0.3541 0.39428 0.0
C489 C 0.14261 0.34432 0.42133 0.0
C490 C 0.13486 0.30163 0.42341 0.0
C491 C 0.1368 0.2841 0.39689 0.0
C492 C 0.14557 0.31694 0.38004 0.0
N493 N 0.15666 0.38922 0.3385 0.0
C494 C 0.15272 0.34813 0.33033 0.0
C495 C 0.14894 0.34461 0.30177 0.0
C496 C 0.15074 0.38606 0.29141 0.0
C497 C 0.15541 0.41279 0.31428 0.0
N498 N 0.19661 0.37998 0.37688 0.0
C499 C 0.23855 0.32282 0.37305 0.0
C500 C 0.23104 0.34872 0.35008 0.0
C501 C 0.21034 0.37725 0.3525 0.0
C502 C 0.22569 0.32939 0.39854 0.0
C503 C 0.2049 0.35731 0.39992 0.0
N504 N 0.12873 0.43391 0.379 0.0
C505 C 0.08455 0.42712 0.36756 0.0
C506 C 0.07843 0.46444 0.38289 0.0
C507 C 0.09862 0.48714 0.39532 0.0
C508 C 0.12354 0.47176 0.39279 0.0
C509 C 0.10929 0.41192 0.36664 0.0
H510 H 0.13851 0.49012 0.40241 0.0
H511 H 0.11246 0.3818 0.35595 0.0
H512 H 0.20479 0.39564 0.33418 0.0
H513 H 0.19491 0.35887 0.41959 0.0
C514 C 0.19498 0.48799 0.40438 0.0
C515 C 0.16045 0.45972 0.31203 0.0
C516 C 0.14528 0.37373 0.44567 0.0
C517 C 0.14827 0.31579 0.35056 0.0
H518 H 0.18453 0.54385 0.31734 0.0
H519 H 0.2065 0.55617 0.36649 0.0
H520 H 0.19485 0.49367 0.46421 0.0
H521 H 0.16467 0.435 0.48624 0.0
H522 H 0.12877 0.28482 0.4422 0.0
H523 H 0.13196 0.25152 0.39059 0.0
H524 H 0.14443 0.31568 0.28998 0.0
H525 H 0.1489 0.39553 0.26955 0.0
H526 H 0.24047 0.34589 0.32997 0.0
H527 H 0.23129 0.31244 0.41747 0.0
H528 H 0.07041 0.40933 0.356 0.0
H529 H 0.09529 0.51637 0.40727 0.0
C530 C 0.88008 0.47538 0.17889 0.0
C531 C 0.86728 0.5143 0.18212 0.0
C532 C 0.85423 0.52129 0.15775 0.0
C533 C 0.8601 0.48701 0.14072 0.0
N534 N 0.87621 0.45888 0.15275 0.0
Co535 Co 0.89132 0.40755 0.13403 0.0
N536 N 0.8829 0.4301 0.09602 0.0
C537 C 0.86565 0.46076 0.09033 0.0
C538 C 0.86306 0.46917 0.06216 0.0
C539 C 0.87958 0.44182 0.04924 0.0
C540 C 0.89144 0.4182 0.07028 0.0
N541 N 0.90602 0.35619 0.11503 0.0
C542 C 0.91226 0.34984 0.08751 0.0
C543 C 0.92128 0.30825 0.08346 0.0
C544 C 0.92038 0.28794 0.10925 0.0
C545 C 0.91088 0.31813 0.12765 0.0
N546 N 0.89986 0.38618 0.17233 0.0
C547 C 0.90564 0.34502 0.17878 0.0
C548 C 0.91069 0.33961 0.20698 0.0
C549 C 0.90778 0.37987 0.21892 0.0
C550 C 0.90117 0.40787 0.19732 0.0
N551 N 0.85851 0.37621 0.13555 0.0
C552 C 0.81682 0.31869 0.13865 0.0
C553 C 0.82529 0.34145 0.16249 0.0
C554 C 0.84578 0.3705 0.16041 0.0
C555 C 0.82919 0.32673 0.11313 0.0
C556 C 0.84988 0.35498 0.11207 0.0
N557 N 0.92453 0.4364 0.13253 0.0
C558 C 0.96964 0.43055 0.1382 0.0
C559 C 0.97295 0.47381 0.13074 0.0
C560 C 0.95143 0.4983 0.12422 0.0
C561 C 0.92739 0.47888 0.12498 0.0
C562 C 0.9455 0.41273 0.1392 0.0
H563 H 0.91115 0.49812 0.11957 0.0
H564 H 0.94395 0.37947 0.14553 0.0
H565 H 0.85176 0.38731 0.17917 0.0
H566 H 0.85943 0.35819 0.0922 0.0
C567 C 0.85518 0.48529 0.11192 0.0
C568 C 0.89423 0.45384 0.20163 0.0
C569 C 0.90837 0.38164 0.06468 0.0
C570 C 0.9098 0.31457 0.15721 0.0
H571 H 0.86743 0.53589 0.20002 0.0
H572 H 0.84303 0.54938 0.15247 0.0
H573 H 0.8511 0.49305 0.05223 0.0
H574 H 0.88213 0.43891 0.02684 0.0
H575 H 0.92768 0.29404 0.06392 0.0
H576 H 0.92664 0.25549 0.11412 0.0
H577 H 0.91659 0.31025 0.2175 0.0
H578 H 0.91008 0.38768 0.24099 0.0
H579 H 0.81615 0.33684 0.18263 0.0
H580 H 0.82341 0.31007 0.09413 0.0
H581 H 0.98568 0.41063 0.14368 0.0
H582 H 0.9532 0.53205 0.11847 0.0
C583 C 0.17119 0.52961 0.18043 0.0
C584 C 0.18314 0.48988 0.18353 0.0
C585 C 0.19517 0.48154 0.15873 0.0
C586 C 0.1896 0.51599 0.14168 0.0
N587 N 0.17466 0.54553 0.15409 0.0
Co588 Co 0.16075 0.59827 0.13581 0.0
N589 N 0.16762 0.57523 0.09757 0.0
C590 C 0.1832 0.54224 0.0914 0.0
C591 C 0.18354 0.53202 0.06335 0.0
C592 C 0.16738 0.56064 0.05103 0.0
C593 C 0.15819 0.58722 0.07221 0.0
N594 N 0.14727 0.65104 0.11723 0.0
C595 C 0.14087 0.65828 0.08983 0.0
C596 C 0.13317 0.70073 0.08606 0.0
C597 C 0.13511 0.72067 0.11187 0.0
C598 C 0.14386 0.68942 0.13001 0.0
N599 N 0.15366 0.62025 0.17431 0.0
C600 C 0.14924 0.66183 0.18094 0.0
C601 C 0.14499 0.66758 0.20925 0.0
C602 C 0.14701 0.62709 0.22109 0.0
C603 C 0.15233 0.59867 0.19932 0.0
N604 N 0.19449 0.6265 0.13675 0.0
C605 C 0.23778 0.68041 0.13964 0.0
C606 C 0.22906 0.6578 0.16339 0.0
C607 C 0.20778 0.63054 0.1614 0.0
C608 C 0.22483 0.6739 0.11423 0.0
C609 C 0.20336 0.64734 0.11325 0.0
N610 N 0.1267 0.57237 0.13495 0.0
C611 C 0.08196 0.58196 0.14174 0.0
C612 C 0.077 0.53915 0.13386 0.0
C613 C 0.09774 0.51343 0.12602 0.0
C614 C 0.12237 0.53059 0.12672 0.0
C615 C 0.10662 0.59759 0.14241 0.0
H616 H 0.13788 0.51014 0.12061 0.0
H617 H 0.1093 0.63058 0.14887 0.0
H618 H 0.20164 0.61384 0.18013 0.0
H619 H 0.19342 0.64515 0.09352 0.0
C620 C 0.19352 0.51689 0.11271 0.0
C621 C 0.15815 0.55227 0.20342 0.0
C622 C 0.14317 0.62636 0.06683 0.0
C623 C 0.1456 0.69273 0.15953 0.0
H624 H 0.18309 0.46868 0.20165 0.0
H625 H 0.20547 0.45256 0.15325 0.0
H626 H 0.19346 0.50572 0.05323 0.0
H627 H 0.16287 0.56169 0.02898 0.0
H628 H 0.12691 0.71572 0.06668 0.0
H629 H 0.13002 0.75364 0.11693 0.0
H630 H 0.14023 0.69738 0.21993 0.0
H631 H 0.14503 0.61939 0.24322 0.0
H632 H 0.2386 0.6612 0.18343 0.0
H633 H 0.23075 0.69052 0.09528 0.0
H634 H 0.06681 0.60383 0.14706 0.0
H635 H 0.09501 0.48014 0.11965 0.0
C636 C 0.14579 0.40906 0.69811 0.0
C637 C 0.13385 0.38603 0.7193 0.0
C638 C 0.12562 0.3482 0.70753 0.0
C639 C 0.13302 0.34993 0.67989 0.0
N640 N 0.14586 0.38634 0.67341 0.0
Co641 Co 0.15855 0.40264 0.63501 0.0
N642 N 0.14523 0.34809 0.61714 0.0
C643 C 0.13418 0.31467 0.63072 0.0
C644 C 0.12595 0.28268 0.61288 0.0
C645 C 0.13195 0.29667 0.58635 0.0
C646 C 0.14345 0.33656 0.58949 0.0
N647 N 0.17052 0.42009 0.59665 0.0
C648 C 0.16737 0.40089 0.5712 0.0
C649 C 0.17983 0.4232 0.55006 0.0
C650 C 0.19047 0.45854 0.56229 0.0
C651 C 0.18417 0.45551 0.59016 0.0
N652 N 0.17243 0.45682 0.65263 0.0
C653 C 0.1857 0.48803 0.6393 0.0
C654 C 0.19043 0.52372 0.65544 0.0
C655 C 0.17955 0.51505 0.6807 0.0
C656 C 0.1692 0.47384 0.67879 0.0
N657 N 0.1913 0.37151 0.64223 0.0
C658 C 0.23587 0.31996 0.64735 0.0
C659 C 0.23664 0.3625 0.63671 0.0
C660 C 0.21435 0.38739 0.63424 0.0
C661 C 0.21226 0.30466 0.65557 0.0
C662 C 0.19095 0.33092 0.65384 0.0
N663 N 0.12554 0.4321 0.62811 0.0
C664 C 0.09949 0.49652 0.62433 0.0
C665 C 0.07743 0.47179 0.62679 0.0
C666 C 0.08007 0.42703 0.6276 0.0
C667 C 0.10379 0.40825 0.62866 0.0
C668 C 0.12327 0.47606 0.62472 0.0
H669 H 0.10367 0.37414 0.63058 0.0
H670 H 0.13955 0.4963 0.6228 0.0
H671 H 0.21619 0.41922 0.62568 0.0
H672 H 0.17427 0.31684 0.66168 0.0
C673 C 0.12831 0.31794 0.65951 0.0
C674 C 0.15658 0.45251 0.70248 0.0
C675 C 0.15179 0.36297 0.56567 0.0
C676 C 0.19042 0.48567 0.6106 0.0
H677 H 0.13115 0.39573 0.74098 0.0
H678 H 0.11528 0.32259 0.71788 0.0
H679 H 0.11569 0.25367 0.61838 0.0
H680 H 0.12777 0.28005 0.56684 0.0
H681 H 0.18108 0.41478 0.52807 0.0
H682 H 0.20135 0.48361 0.55207 0.0
H683 H 0.19959 0.55344 0.64913 0.0
H684 H 0.17892 0.53721 0.6983 0.0
H685 H 0.2543 0.37661 0.63014 0.0
H686 H 0.20971 0.27178 0.66276 0.0
H687 H 0.09848 0.53142 0.62285 0.0
H688 H 0.06373 0.40613 0.62795 0.0
C689 C 0.90844 0.60859 0.70003 0.0
C690 C 0.91729 0.63701 0.72037 0.0
C691 C 0.91827 0.67726 0.70802 0.0
C692 C 0.91023 0.6714 0.68075 0.0
N693 N 0.90437 0.62995 0.6753 0.0
Co694 Co 0.89392 0.60695 0.63807 0.0
N695 N 0.90685 0.65812 0.61739 0.0
C696 C 0.91181 0.69684 0.62904 0.0
C697 C 0.92016 0.72649 0.6096 0.0
C698 C 0.92019 0.70508 0.58419 0.0
C699 C 0.91183 0.6634 0.58951 0.0
N700 N 0.88367 0.58275 0.60116 0.0
C701 C 0.89084 0.59381 0.57473 0.0
C702 C 0.87793 0.56938 0.55489 0.0
C703 C 0.86213 0.54246 0.5694 0.0
C704 C 0.86616 0.55188 0.59725 0.0
N705 N 0.88052 0.55605 0.65852 0.0
C706 C 0.86291 0.52869 0.64869 0.0
C707 C 0.85665 0.49704 0.66769 0.0
C708 C 0.87122 0.50503 0.69093 0.0
C709 C 0.88576 0.54115 0.68473 0.0
N710 N 0.86097 0.63667 0.64145 0.0
C711 C 0.8177 0.68948 0.64657 0.0
C712 C 0.82788 0.66793 0.67004 0.0
C713 C 0.84925 0.6413 0.66698 0.0
C714 C 0.82919 0.68264 0.62043 0.0
C715 C 0.85073 0.65669 0.61836 0.0
N716 N 0.92705 0.57922 0.63461 0.0
C717 C 0.9536 0.51732 0.62597 0.0
C718 C 0.97525 0.5426 0.63009 0.0
C719 C 0.97222 0.58632 0.63644 0.0
C720 C 0.94814 0.60375 0.63893 0.0
C721 C 0.92963 0.53638 0.62803 0.0
H722 H 0.94673 0.63731 0.64456 0.0
H723 H 0.91322 0.51659 0.62443 0.0
H724 H 0.85666 0.62534 0.68544 0.0
H725 H 0.85951 0.65411 0.59801 0.0
C726 C 0.91256 0.70136 0.65855 0.0
C727 C 0.90286 0.56212 0.70492 0.0
C728 C 0.90729 0.63046 0.56757 0.0
C729 C 0.85642 0.52889 0.62014 0.0
H730 H 0.92275 0.62955 0.74178 0.0
H731 H 0.9253 0.70676 0.71742 0.0
H732 H 0.9264 0.75925 0.61353 0.0
H733 H 0.92563 0.71859 0.56407 0.0
H734 H 0.87921 0.57167 0.5323 0.0
H735 H 0.84956 0.51842 0.56066 0.0
H736 H 0.84383 0.47027 0.66461 0.0
H737 H 0.87103 0.48643 0.71024 0.0
H738 H 0.81942 0.67168 0.69063 0.0
H739 H 0.82207 0.69853 0.6017 0.0
H740 H 0.9552 0.48324 0.62105 0.0
H741 H 0.98841 0.6068 0.64016 0.0
C742 C 0.15136 0.59308 0.81405 0.0
C743 C 0.14577 0.6205 0.79178 0.0
C744 C 0.14388 0.66151 0.80282 0.0
C745 C 0.14848 0.65707 0.83118 0.0
N746 N 0.15299 0.61581 0.8386 0.0
Co747 Co 0.16111 0.59592 0.87738 0.0
N748 N 0.14811 0.64972 0.8951 0.0
C749 C 0.14426 0.68737 0.88157 0.0
C750 C 0.1357 0.71938 0.89922 0.0
C751 C 0.13434 0.70072 0.9255 0.0
C752 C 0.14216 0.65822 0.92244 0.0
N753 N 0.16924 0.57509 0.91587 0.0
C754 C 0.16175 0.58995 0.94134 0.0
C755 C 0.17385 0.56784 0.96288 0.0
C756 C 0.18918 0.53791 0.95055 0.0
C757 C 0.18582 0.54363 0.9222 0.0
N758 N 0.17439 0.54206 0.85997 0.0
C759 C 0.18938 0.51285 0.87271 0.0
C760 C 0.19354 0.47666 0.85675 0.0
C761 C 0.18057 0.48353 0.8323 0.0
C762 C 0.16968 0.5243 0.83436 0.0
N763 N 0.19471 0.62389 0.87473 0.0
C764 C 0.23742 0.67814 0.86924 0.0
C765 C 0.22521 0.67306 0.89514 0.0
C766 C 0.20398 0.64636 0.89739 0.0
C767 C 0.2285 0.65361 0.84639 0.0
C768 C 0.20746 0.62621 0.84968 0.0
N769 N 0.1272 0.57026 0.87993 0.0
C770 C 0.0988 0.51108 0.88979 0.0
C771 C 0.07801 0.53665 0.88226 0.0
C772 C 0.08237 0.57914 0.87373 0.0
C773 C 0.10691 0.59512 0.87254 0.0
C774 C 0.12327 0.52864 0.88874 0.0
H775 H 0.10935 0.62778 0.86531 0.0
H776 H 0.13897 0.50857 0.89481 0.0
H777 H 0.19448 0.64559 0.91737 0.0
H778 H 0.201 0.60812 0.83164 0.0
C779 C 0.14531 0.6891 0.85195 0.0
C780 C 0.1571 0.54648 0.81076 0.0
C781 C 0.14547 0.62763 0.94601 0.0
C782 C 0.19497 0.51632 0.90129 0.0
H783 H 0.14355 0.61182 0.76984 0.0
H784 H 0.13904 0.69082 0.79159 0.0
H785 H 0.13036 0.75202 0.89357 0.0
H786 H 0.12851 0.71659 0.94472 0.0
H787 H 0.17246 0.57376 0.98512 0.0
H788 H 0.20099 0.51435 0.96103 0.0
H789 H 0.20364 0.44769 0.86275 0.0
H790 H 0.17945 0.46099 0.81494 0.0
H791 H 0.2314 0.69114 0.91342 0.0
H792 H 0.23759 0.65584 0.82605 0.0
H793 H 0.09617 0.47783 0.89632 0.0
H794 H 0.06687 0.59974 0.86743 0.0
C795 C 0.90087 0.40833 0.8105 0.0
C796 C 0.90176 0.3781 0.78885 0.0
C797 C 0.90451 0.33795 0.8011 0.0
C798 C 0.9038 0.34516 0.82961 0.0
N799 N 0.90059 0.38715 0.83581 0.0
Co800 Co 0.89205 0.40891 0.87397 0.0
N801 N 0.90672 0.35797 0.89316 0.0
C802 C 0.91052 0.31937 0.88084 0.0
C803 C 0.91972 0.28909 0.8994 0.0
C804 C 0.92143 0.30999 0.92497 0.0
C805 C 0.91308 0.35199 0.92067 0.0
N806 N 0.88382 0.43211 0.91165 0.0
C807 C 0.89316 0.4217 0.93734 0.0
C808 C 0.88153 0.44618 0.9581 0.0
C809 C 0.86394 0.47159 0.94505 0.0
C810 C 0.86587 0.46165 0.91702 0.0
N811 N 0.8762 0.45903 0.85515 0.0
C812 C 0.85651 0.48066 0.86592 0.0
C813 C 0.8433 0.50346 0.84607 0.0
C814 C 0.85559 0.49577 0.82125 0.0
C815 C 0.87652 0.47058 0.82765 0.0
N816 N 0.85924 0.37776 0.8726 0.0
C817 C 0.81608 0.32308 0.86909 0.0
C818 C 0.82796 0.33215 0.895 0.0
C819 C 0.84956 0.35847 0.89621 0.0
C820 C 0.82648 0.34323 0.84513 0.0
C821 C 0.8471 0.37141 0.84749 0.0
N822 N 0.92511 0.43761 0.87513 0.0
C823 C 0.95274 0.4982 0.88425 0.0
C824 C 0.97401 0.47329 0.87706 0.0
C825 C 0.97 0.43016 0.86943 0.0
C826 C 0.94573 0.41334 0.86826 0.0
C827 C 0.92842 0.47975 0.8831 0.0
H828 H 0.94376 0.38014 0.86189 0.0
H829 H 0.91233 0.49931 0.88865 0.0
H830 H 0.85868 0.36231 0.91634 0.0
H831 H 0.85376 0.38666 0.82853 0.0
C832 C 0.90787 0.31481 0.85137 0.0
C833 C 0.89536 0.45546 0.80707 0.0
C834 C 0.90959 0.38437 0.94331 0.0
C835 C 0.85246 0.48119 0.89503 0.0
H836 H 0.89895 0.38367 0.7666 0.0
H837 H 0.90625 0.30718 0.79043 0.0
H838 H 0.925 0.25603 0.89486 0.0
H839 H 0.92771 0.29577 0.94458 0.0
H840 H 0.88465 0.44461 0.98047 0.0
H841 H 0.85131 0.49451 0.95484 0.0
H842 H 0.8267 0.52312 0.8492 0.0
H843 H 0.8497 0.50729 0.80075 0.0
H844 H 0.82095 0.31861 0.91448 0.0
H845 H 0.81958 0.33659 0.8242 0.0
H846 H 0.95484 0.5317 0.89043 0.0
H847 H 0.98562 0.40897 0.86463 0.0
C848 C 0.40063 0.16096 0.49075 0.0
C849 C 0.41488 0.13037 0.47562 0.0
C850 C 0.40025 0.16106 0.52048 0.0
C851 C 0.41409 0.13056 0.5362 0.0
H852 H 0.3884 0.18307 0.47952 0.0
H853 H 0.38774 0.18325 0.53119 0.0
S854 S 0.45542 0.04539 0.50679 0.0
N855 N 0.44409 0.07033 0.47872 0.0
N856 N 0.44332 0.07047 0.53436 0.0
C857 C 0.42933 0.10132 0.52132 0.0
C858 C 0.42975 0.10125 0.49114 0.0
C859 C 0.65416 0.84022 0.52218 0.0
C860 C 0.639 0.86911 0.53762 0.0
C861 C 0.65433 0.84053 0.49243 0.0
C862 C 0.63929 0.86968 0.47697 0.0
H863 H 0.66734 0.81949 0.53317 0.0
H864 H 0.66775 0.82024 0.48152 0.0
S865 S 0.59519 0.94988 0.5073 0.0
N866 N 0.60763 0.92585 0.53511 0.0
N867 N 0.60783 0.9263 0.47949 0.0
C868 C 0.62295 0.89672 0.4922 0.0
C869 C 0.62286 0.89652 0.5224 0.0
C870 C 0.39942 0.8445 0.02034 0.0
C871 C 0.41367 0.8755 0.03516 0.0
C872 C 0.39906 0.84351 0.99061 0.0
C873 C 0.41295 0.87347 0.97455 0.0
H874 H 0.38719 0.8227 0.03178 0.0
H875 H 0.38653 0.82104 0.98014 0.0
S876 S 0.45417 0.95963 1.00309 0.0
N877 N 0.44281 0.93551 0.03142 0.0
N878 N 0.44215 0.93366 0.9758 0.0
C879 C 0.42817 0.90316 0.98915 0.0
C880 C 0.42853 0.90418 0.01934 0.0
C881 C 0.65814 0.17058 0.99213 0.0
C882 C 0.64201 0.14537 0.97528 0.0
C883 C 0.65705 0.16868 0.02182 0.0
C884 C 0.63974 0.14154 0.03572 0.0
H885 H 0.67291 0.18939 0.98233 0.0
H886 H 0.67113 0.18588 0.03393 0.0
S887 S 0.5923 0.07155 1.00117 0.0
N888 N 0.60728 0.09464 0.97466 0.0
N889 N 0.60514 0.09118 0.0302 0.0
C890 C 0.62246 0.11851 0.01904 0.0
C891 C 0.62364 0.12034 0.9889 0.0
C892 C 0.93023 0.61362 0.52252 0.0
C893 C 0.91247 0.63903 0.53696 0.0
C894 C 0.93099 0.61255 0.49282 0.0
C895 C 0.91393 0.63669 0.47641 0.0
H896 H 0.94251 0.59222 0.53426 0.0
H897 H 0.9437 0.59011 0.48264 0.0
S898 S 0.86415 0.70905 0.50395 0.0
N899 N 0.878 0.68995 0.53253 0.0
N900 N 0.87931 0.68775 0.47696 0.0
C901 C 0.897 0.66397 0.49063 0.0
C902 C 0.89627 0.66513 0.52081 0.0
C903 C 0.16041 0.32931 0.5183 0.0
C904 C 0.14438 0.35371 0.53574 0.0
C905 C 0.15872 0.33189 0.48867 0.0
C906 C 0.14091 0.35889 0.47543 0.0
H907 H 0.17572 0.3111 0.52758 0.0
H908 H 0.17285 0.31568 0.4761 0.0
S909 S 0.09326 0.42619 0.51163 0.0
N910 N 0.10901 0.40303 0.53758 0.0
N911 N 0.10572 0.40762 0.48215 0.0
C912 C 0.12354 0.38059 0.49267 0.0
C913 C 0.12534 0.37812 0.52275 0.0
C914 C 0.90002 0.34485 0.9887 0.0
C915 C 0.9152 0.37433 0.97373 0.0
C916 C 0.89986 0.34392 0.01845 0.0
C917 C 0.91485 0.37248 0.0344 0.0
H918 H 0.88675 0.32472 0.97738 0.0
H919 H 0.88643 0.3232 0.02902 0.0
S920 S 0.95902 0.45376 1.00547 0.0
N921 N 0.94665 0.43079 0.97724 0.0
N922 N 0.94629 0.42917 0.03286 0.0
C923 C 0.93121 0.40008 0.01965 0.0
C924 C 0.9314 0.40099 0.98945 0.0
C925 C 0.15414 0.66516 0.02166 0.0
C926 C 0.13773 0.63763 0.03656 0.0
C927 C 0.15462 0.66566 0.99191 0.0
C928 C 0.13878 0.63851 0.97595 0.0
H929 H 0.16811 0.68373 0.03304 0.0
H930 H 0.16896 0.68456 0.9814 0.0
S931 S 0.09116 0.56311 1.0047 0.0
N932 N 0.10404 0.58512 0.03296 0.0
N933 N 0.10517 0.58566 0.97734 0.0
C934 C 0.12116 0.61321 0.9906 0.0
C935 C 0.12056 0.61291 0.02079 0.0
C936 C 0.53534 0.97185 0.36139 0.0
C937 C 0.55253 0.98359 0.38287 0.0
C938 C 0.51002 0.98537 0.36181 0.0
C939 C 0.50068 0.0115 0.38362 0.0
H940 H 0.54159 0.95266 0.34366 0.0
H941 H 0.49786 0.9765 0.34442 0.0
S942 S 0.53671 0.0497 0.44575 0.0
N943 N 0.55737 0.02136 0.42751 0.0
N944 N 0.51021 0.04786 0.4276 0.0
C945 C 0.51739 0.02321 0.40534 0.0
C946 C 0.54312 0.0091 0.40512 0.0
C947 C 0.50794 0.02254 0.15056 0.0
C948 C 0.49864 0.99648 0.12866 0.0
C949 C 0.53327 0.03607 0.15115 0.0
C950 C 0.55052 0.02434 0.12978 0.0
H951 H 0.49575 0.03133 0.1679 0.0
H952 H 0.5395 0.05516 0.16895 0.0
S953 S 0.53477 0.95855 0.06666 0.0
N954 N 0.50825 0.96034 0.08466 0.0
N955 N 0.5554 0.9868 0.08507 0.0
C956 C 0.54113 0.99899 0.1074 0.0
C957 C 0.51538 0.98491 0.10701 0.0
C958 C 0.53168 0.96805 0.64945 0.0
C959 C 0.54987 0.98204 0.62973 0.0
C960 C 0.50649 0.98167 0.64798 0.0
C961 C 0.49838 0.01025 0.62688 0.0
H962 H 0.53701 0.94672 0.66655 0.0
H963 H 0.49347 0.97096 0.66406 0.0
S964 S 0.53755 0.05543 0.56938 0.0
N965 N 0.55722 0.02491 0.58759 0.0
N966 N 0.51013 0.05164 0.5855 0.0
C967 C 0.51614 0.02442 0.60694 0.0
C968 C 0.54178 0.01019 0.60823 0.0
C969 C 0.54341 0.98492 0.86386 0.0
C970 C 0.55167 0.01064 0.88641 0.0
C971 C 0.51821 0.97138 0.86186 0.0
C972 C 0.50015 0.98274 0.88241 0.0
H973 H 0.55629 0.97652 0.84707 0.0
H974 H 0.51275 0.95222 0.84377 0.0
S975 S 0.51283 0.04701 0.94685 0.0
N976 N 0.54015 0.04557 0.93038 0.0
N977 N 0.49304 0.01936 0.92696 0.0
C978 C 0.50837 0.00773 0.90539 0.0
C979 C 0.53402 0.02171 0.90734 0.0
C980 C 1.0206 0.53932 0.38526 0.0
C981 C 0.99973 0.51089 0.38471 0.0
C982 C 0.04562 0.52425 0.38511 0.0
C983 C 0.05139 0.47976 0.38508 0.0
H984 H 1.01775 0.57396 0.38567 0.0
H985 H 0.06055 0.548 0.38438 0.0
S986 S 1.00416 0.39084 0.3869 0.0
N987 N 0.98709 0.43526 0.38496 0.0
N988 N 0.03365 0.40722 0.38775 0.0
C989 C 0.03076 0.45082 0.38613 0.0
C990 C 1.00521 0.4662 0.38531 0.0
C991 C 0.04142 0.49697 0.11084 0.0
C992 C 0.05034 0.5223 0.13349 0.0
C993 C 1.01627 0.48233 0.10968 0.0
C994 C 0.99885 0.49277 0.13095 0.0
H995 H 0.0539 0.48871 0.09366 0.0
H996 H 1.01041 0.46254 0.09204 0.0
S997 S 1.01261 0.5543 0.19608 0.0
N998 N 0.03956 0.55413 0.17884 0.0
N999 N 0.9925 0.52769 0.17602 0.0
C1000 C 1.00745 0.51747 0.15381 0.0
C1001 C 0.03305 0.53197 0.15522 0.0
C1002 C 1.01928 0.54061 0.61052 0.0
C1003 C 1.00103 0.52378 0.62904 0.0
C1004 C 0.04408 0.52451 0.61021 0.0
C1005 C 0.05166 0.49129 0.62868 0.0
H1006 H 1.01425 0.56619 0.59597 0.0
H1007 H 0.05723 0.53758 0.59505 0.0
S1008 S 1.01175 0.44062 0.6839 0.0
N1009 N 0.99268 0.47458 0.66764 0.0
N1010 N 0.03919 0.44533 0.66797 0.0
C1011 C 0.0337 0.47548 0.64804 0.0
C1012 C 1.00845 0.49139 0.64798 0.0
C1013 C 0.03434 0.5295 0.9025 0.0
C1014 C 0.05191 0.51907 0.88139 0.0
C1015 C 1.00909 0.51553 0.90077 0.0
C1016 C 1.00037 0.49096 0.87769 0.0
H1017 H 0.04018 0.54857 0.92049 0.0
H1018 H 0.99644 0.52342 0.91786 0.0
S1019 S 0.03857 0.45965 0.81535 0.0
N1020 N 0.05862 0.48527 0.83603 0.0
N1021 N 1.01139 0.46016 0.83212 0.0
C1022 C 1.01778 0.48164 0.85605 0.0
C1023 C 0.04343 0.4954 0.85806 0.0
C1024 C 0.28125 0.29654 0.35475 0.0
C1025 C 0.2592 0.28891 0.37065 0.0
C1026 C 0.30105 0.26585 0.35337 0.0
C1027 C 0.29987 0.22616 0.36799 0.0
H1028 H 0.28358 0.32697 0.34379 0.0
H1029 H 0.31775 0.27383 0.34143 0.0
S1030 S 0.24548 0.18707 0.40961 0.0
N1031 N 0.23677 0.23556 0.39881 0.0
N1032 N 0.27408 0.17962 0.3971 0.0
C1033 C 0.27775 0.21751 0.3832 0.0
C1034 C 0.25749 0.24829 0.3843 0.0
C1035 C 0.75762 0.75163 0.35588 0.0
C1036 C 0.75959 0.78973 0.3721 0.0
C1037 C 0.77658 0.71934 0.35636 0.0
C1038 C 0.79859 0.72367 0.37293 0.0
H1039 H 0.74092 0.74613 0.34331 0.0
H1040 H 0.7736 0.69023 0.34415 0.0
S1041 S 0.81426 0.82043 0.41629 0.0
N1042 N 0.78605 0.83124 0.4036 0.0
N1043 N 0.82192 0.77249 0.40364 0.0
C1044 C 0.80112 0.76276 0.38825 0.0
C1045 C 0.78165 0.79512 0.38807 0.0
C1046 C 0.26001 0.74692 0.15938 0.0
C1047 C 0.25995 0.71095 0.14108 0.0
C1048 C 0.27992 0.77744 0.15945 0.0
C1049 C 0.30093 0.77333 0.1414 0.0
H1050 H 0.24416 0.75221 0.17326 0.0
H1051 H 0.27848 0.80508 0.17334 0.0
S1052 S 0.31147 0.68127 0.09222 0.0
N1053 N 0.28359 0.67131 0.10599 0.0
N1054 N 0.32119 0.72673 0.10683 0.0
C1055 C 0.30147 0.73624 0.1239 0.0
C1056 C 0.28103 0.7057 0.12356 0.0
C1057 C 0.77778 0.2169 0.15613 0.0
C1058 C 0.75607 0.22117 0.13907 0.0
C1059 C 0.79691 0.24888 0.15663 0.0
C1060 C 0.79542 0.28659 0.13993 0.0
H1061 H 0.78037 0.18807 0.16875 0.0
H1062 H 0.81337 0.24344 0.1696 0.0
S1063 S 0.74157 0.31708 0.0944 0.0
N1064 N 0.73348 0.26956 0.10739 0.0
N1065 N 0.76964 0.32777 0.10751 0.0
C1066 C 0.77363 0.29194 0.12349 0.0
C1067 C 0.754 0.25989 0.12327 0.0
C1068 C 0.75418 0.74319 0.63153 0.0
C1069 C 0.75412 0.78042 0.64884 0.0
C1070 C 0.77443 0.71379 0.63137 0.0
C1071 C 0.79553 0.71949 0.6489 0.0
H1072 H 0.73839 0.73658 0.61776 0.0
H1073 H 0.77357 0.68627 0.61728 0.0
S1074 S 0.80563 0.81126 0.69793 0.0
N1075 N 0.77789 0.82127 0.68367 0.0
N1076 N 0.81531 0.76527 0.68398 0.0
C1077 C 0.79566 0.75585 0.66676 0.0
C1078 C 0.77517 0.78632 0.66663 0.0
C1079 C 0.2774 0.29198 0.62775 0.0
C1080 C 0.25885 0.29086 0.64893 0.0
C1081 C 0.29762 0.26237 0.62731 0.0
C1082 C 0.30027 0.22915 0.64768 0.0
H1083 H 0.27605 0.31533 0.61082 0.0
H1084 H 0.31127 0.26573 0.61058 0.0
S1085 S 0.25783 0.21372 0.7092 0.0
N1086 N 0.24628 0.25635 0.69282 0.0
N1087 N 0.2821 0.19812 0.69019 0.0
C1088 C 0.28205 0.22821 0.66933 0.0
C1089 C 0.26198 0.25943 0.67035 0.0
C1090 C 0.77074 0.22852 0.88578 0.0
C1091 C 0.75205 0.23062 0.86463 0.0
C1092 C 0.7911 0.25781 0.8868 0.0
C1093 C 0.79379 0.29205 0.86724 0.0
H1094 H 0.76963 0.20427 0.90216 0.0
H1095 H 0.80495 0.25302 0.9032 0.0
S1096 S 0.7503 0.31256 0.80705 0.0
N1097 N 0.73902 0.26863 0.82207 0.0
N1098 N 0.77476 0.32666 0.82631 0.0
C1099 C 0.77504 0.29492 0.8461 0.0
C1100 C 0.75491 0.2638 0.84429 0.0
C1101 C 0.27984 0.70677 0.88445 0.0
C1102 C 0.25885 0.70967 0.86646 0.0
C1103 C 0.29928 0.73778 0.88384 0.0
C1104 C 0.29858 0.77399 0.8656 0.0
H1105 H 0.28123 0.68022 0.89927 0.0
H1106 H 0.31504 0.73321 0.89798 0.0
S1107 S 0.24688 0.79767 0.81504 0.0
N1108 N 0.23832 0.75174 0.82997 0.0
N1109 N 0.27411 0.8108 0.82945 0.0
C1110 C 0.2776 0.7771 0.84738 0.0
C1111 C 0.25798 0.74495 0.84771 0.0
C1112 C 0.40825 0.98802 0.281 0.0
C1113 C 0.40608 0.03356 0.27883 0.0
C1114 C 0.40665 0.96045 0.25729 0.0
C1115 C 0.40579 0.97669 0.22952 0.0
H1116 H 0.40894 0.97311 0.30164 0.0
H1117 H 0.40423 0.92642 0.26136 0.0
S1118 S 0.40174 0.09325 0.21088 0.0
N1119 N 0.40082 0.09287 0.24561 0.0
N1120 N 0.40577 0.04243 0.20139 0.0
C1121 C 0.40633 0.02238 0.22688 0.0
C1122 C 0.4047 0.05034 0.25118 0.0
C1123 C 0.68111 0.01454 0.2435 0.0
C1124 C 0.65853 0.02712 0.23022 0.0
C1125 C 0.6812 0.9895 0.26829 0.0
C1126 C 0.65874 0.97779 0.28206 0.0
H1127 H 0.69899 0.02326 0.23419 0.0
H1128 H 0.69914 0.98018 0.27726 0.0
S1129 S 0.59445 0.00369 0.25686 0.0
N1130 N 0.61299 0.02543 0.23277 0.0
N1131 N 0.61319 0.98122 0.28052 0.0
C1132 C 0.636 0.99068 0.26934 0.0
C1133 C 0.6359 0.01507 0.24344 0.0
C1134 C 0.6421 0.04478 0.75376 0.0
C1135 C 0.64346 0.02916 0.78163 0.0
C1136 C 0.64108 0.01656 0.73035 0.0
C1137 C 0.64427 0.97123 0.73303 0.0
H1138 H 0.64341 0.07905 0.74957 0.0
H1139 H 0.64003 0.03091 0.70956 0.0
S1140 S 0.64888 0.9134 0.80165 0.0
N1141 N 0.6439 0.96423 0.81053 0.0
N1142 N 0.65025 0.91299 0.76694 0.0
C1143 C 0.64572 0.95516 0.76086 0.0
C1144 C 0.64341 0.98358 0.78481 0.0
C1145 C 0.40866 0.0142 0.78084 0.0
C1146 C 0.40568 0.96882 0.77838 0.0
C1147 C 0.40769 0.04221 0.7573 0.0
C1148 C 0.40674 0.02642 0.72943 0.0
H1149 H 0.40943 0.02876 0.80158 0.0
H1150 H 0.4058 0.07628 0.76155 0.0
S1151 S 0.40108 0.91042 0.71 0.0
N1152 N 0.39977 0.91032 0.74471 0.0
N1153 N 0.4061 0.96115 0.7009 0.0
C1154 C 0.4067 0.98076 0.72652 0.0
C1155 C 0.40434 0.95253 0.75061 0.0
C1156 C 0.87206 0.48445 0.24432 0.0
C1157 C 0.89478 0.47458 0.23049 0.0
C1158 C 0.87157 0.50902 0.26926 0.0
C1159 C 0.89384 0.52255 0.28277 0.0
H1160 H 0.85434 0.47431 0.23519 0.0
H1161 H 0.85348 0.51689 0.27835 0.0
S1162 S 0.95843 0.50427 0.25589 0.0
N1163 N 0.94021 0.48107 0.23203 0.0
N1164 N 0.93941 0.52403 0.28023 0.0
C1165 C 0.91675 0.51228 0.26949 0.0
C1166 C 0.91721 0.48859 0.24336 0.0
C1167 C 0.18131 0.49704 0.27075 0.0
C1168 C 0.1591 0.48288 0.28404 0.0
C1169 C 0.18065 0.5218 0.2459 0.0
C1170 C 0.15782 0.53165 0.23223 0.0
H1171 H 0.19943 0.48938 0.27991 0.0
H1172 H 0.19829 0.53209 0.23668 0.0
S1173 S 0.09436 0.5011 0.25751 0.0
N1174 N 0.11354 0.48097 0.28162 0.0
N1175 N 0.11241 0.52491 0.23379 0.0
C1176 C 0.13548 0.51732 0.24502 0.0
C1177 C 0.13611 0.49315 0.27092 0.0
C1178 C 0.13419 0.51243 0.76916 0.0
C1179 C 0.15689 0.52492 0.78218 0.0
C1180 C 0.13405 0.48813 0.74386 0.0
C1181 C 0.1566 0.47445 0.731 0.0
H1182 H 0.11643 0.52119 0.77873 0.0
H1183 H 0.11618 0.48024 0.73419 0.0
S1184 S 0.22102 0.49901 0.75653 0.0
N1185 N 0.20245 0.52374 0.77923 0.0
N1186 N 0.20218 0.47467 0.73387 0.0
C1187 C 0.17933 0.48629 0.74416 0.0
C1188 C 0.17948 0.51259 0.76898 0.0
C1189 C 0.89632 0.55479 0.75755 0.0
C1190 C 0.9074 0.53954 0.73271 0.0
C1191 C 0.89568 0.52935 0.78211 0.0
C1192 C 0.90352 0.48536 0.78256 0.0
H1193 H 0.88718 0.58608 0.75785 0.0
H1194 H 0.88816 0.54476 0.80065 0.0
S1195 S 0.94467 0.43878 0.7267 0.0
N1196 N 0.93386 0.48391 0.71259 0.0
N1197 N 0.93258 0.43635 0.75868 0.0
C1198 C 0.91841 0.47278 0.75917 0.0
C1199 C 0.91978 0.49937 0.73421 0.0
loop_
_geom_bond_atom_site_label_1
_geom_bond_atom_site_label_2
_geom_bond_distance
_geom_bond_site_symmetry_2
_ccdc_geom_bond_type
C0 C1 1.443 . S
C0 N4 1.376 . S
C0 C38 1.389 . S
C1 C0 1.443 . S
C1 C2 1.340 1_545 S
C1 H41 0.951 1_545 S
C2 C1 1.340 1_565 S
C2 C3 1.439 1_565 S
C2 H42 0.950 . S
C3 C2 1.439 1_545 S
C3 N4 1.374 . S
C3 C37 1.395 . S
N4 C0 1.376 . S
N4 C3 1.374 . S
N4 Co5 2.008 . S
Co5 N4 2.008 . S
Co5 N6 1.995 . S
Co5 N11 2.008 . S
Co5 N16 1.995 . S
Co5 N21 2.282 . S
Co5 N27 2.282 . S
N6 Co5 1.995 . S
N6 C7 1.376 . S
N6 C10 1.383 . S
C7 N6 1.376 . S
C7 C8 1.446 . S
C7 C37 1.391 . S
C8 C7 1.446 . S
C8 C9 1.339 . S
C8 H43 0.949 . S
C9 C8 1.339 . S
C9 C10 1.439 . S
C9 H44 0.950 . S
C10 N6 1.383 . S
C10 C9 1.439 . S
C10 C39 1.392 . S
N11 Co5 2.008 . S
N11 C12 1.376 . S
N11 C15 1.374 . S
C12 N11 1.376 . S
C12 C13 1.443 . S
C12 C39 1.389 . S
C13 C12 1.443 . S
C13 C14 1.340 . S
C13 H45 0.951 . S
C14 C13 1.340 . S
C14 C15 1.439 . S
C14 H46 0.950 . S
C15 N11 1.374 . S
C15 C14 1.439 . S
C15 C40 1.395 . S
N16 Co5 1.995 . S
N16 C17 1.376 . S
N16 C20 1.383 . S
C17 N16 1.376 . S
C17 C18 1.446 . S
C17 C40 1.391 . S
C18 C17 1.446 . S
C18 C19 1.339 . S
C18 H47 0.949 . S
C19 C18 1.339 . S
C19 C20 1.439 . S
C19 H48 0.950 . S
C20 N16 1.383 . S
C20 C19 1.439 . S
C20 C38 1.392 . S
N21 Co5 2.282 . S
N21 C24 1.332 . S
N21 C26 1.332 . S
C22 C23 1.386 . S
C22 C25 1.388 . S
C23 C22 1.386 . S
C23 C24 1.382 . S
C23 H49 0.950 . S
C24 N21 1.332 . S
C24 C23 1.382 . S
C24 H35 0.952 . S
C25 C22 1.388 . S
C25 C26 1.382 . S
C25 H50 0.950 . S
C26 N21 1.332 . S
C26 C25 1.382 . S
C26 H36 0.948 . S
N27 Co5 2.282 . S
N27 C31 1.332 . S
N27 C32 1.332 . S
C28 C29 1.388 . S
C28 C32 1.382 . S
C28 H51 0.950 . S
C29 C28 1.388 . S
C29 C30 1.386 . S
C30 C29 1.386 . S
C30 C31 1.382 . S
C30 H52 0.950 1_545 S
C31 N27 1.332 . S
C31 C30 1.382 . S
C31 H33 0.952 . S
C32 N27 1.332 . S
C32 C28 1.382 . S
C32 H34 0.948 . S
H33 C31 0.952 . S
H34 C32 0.948 . S
H35 C24 0.952 . S
H36 C26 0.948 . S
C37 C3 1.395 . S
C37 C7 1.391 . S
C38 C0 1.389 . S
C38 C20 1.392 . S
C39 C10 1.392 . S
C39 C12 1.389 . S
C40 C15 1.395 . S
C40 C17 1.391 . S
H41 C1 0.951 1_565 S
H42 C2 0.950 . S
H43 C8 0.949 . S
H44 C9 0.950 . S
H45 C13 0.951 . S
H46 C14 0.950 . S
H47 C18 0.949 . S
H48 C19 0.950 . S
H49 C23 0.950 . S
H50 C25 0.950 . S
H51 C28 0.950 . S
H52 C30 0.950 1_565 S
C53 C54 1.443 . S
C53 N57 1.376 . S
C53 C91 1.389 . S
C54 C53 1.443 . S
C54 C55 1.340 1_565 S
C54 H94 0.951 1_565 S
C55 C54 1.340 1_545 S
C55 C56 1.439 1_545 S
C55 H95 0.950 . S
C56 C55 1.439 1_565 S
C56 N57 1.374 . S
C56 C90 1.395 . S
N57 C53 1.376 . S
N57 C56 1.374 . S
N57 Co58 2.008 . S
Co58 N57 2.008 . S
Co58 N59 1.995 . S
Co58 N64 2.008 . S
Co58 N69 1.995 . S
Co58 N74 2.282 . S
Co58 N80 2.282 . S
N59 Co58 1.995 . S
N59 C60 1.376 . S
N59 C63 1.383 . S
C60 N59 1.376 . S
C60 C61 1.446 . S
C60 C90 1.391 . S
C61 C60 1.446 . S
C61 C62 1.339 . S
C61 H96 0.949 . S
C62 C61 1.339 . S
C62 C63 1.439 . S
C62 H97 0.950 . S
C63 N59 1.383 . S
C63 C62 1.439 . S
C63 C92 1.392 . S
N64 Co58 2.008 . S
N64 C65 1.376 . S
N64 C68 1.374 . S
C65 N64 1.376 . S
C65 C66 1.443 . S
C65 C92 1.389 . S
C66 C65 1.443 . S
C66 C67 1.340 . S
C66 H98 0.951 . S
C67 C66 1.340 . S
C67 C68 1.439 . S
C67 H99 0.950 . S
C68 N64 1.374 . S
C68 C67 1.439 . S
C68 C93 1.395 . S
N69 Co58 1.995 . S
N69 C70 1.376 . S
N69 C73 1.383 . S
C70 N69 1.376 . S
C70 C71 1.446 . S
C70 C93 1.391 . S
C71 C70 1.446 . S
C71 C72 1.339 . S
C71 H100 0.949 . S
C72 C71 1.339 . S
C72 C73 1.439 . S
C72 H101 0.950 . S
C73 N69 1.383 . S
C73 C72 1.439 . S
C73 C91 1.392 . S
N74 Co58 2.282 . S
N74 C77 1.332 . S
N74 C79 1.332 . S
C75 C76 1.386 . S
C75 C78 1.388 . S
C76 C75 1.386 . S
C76 C77 1.382 . S
C76 H102 0.950 . S
C77 N74 1.332 . S
C77 C76 1.382 . S
C77 H88 0.952 . S
C78 C75 1.388 . S
C78 C79 1.382 . S
C78 H103 0.950 . S
C79 N74 1.332 . S
C79 C78 1.382 . S
C79 H89 0.948 . S
N80 Co58 2.282 . S
N80 C84 1.332 . S
N80 C85 1.332 . S
C81 C82 1.388 . S
C81 C85 1.382 . S
C81 H104 0.950 . S
C82 C81 1.388 . S
C82 C83 1.386 . S
C83 C82 1.386 . S
C83 C84 1.382 . S
C83 H105 0.950 1_565 S
C84 N80 1.332 . S
C84 C83 1.382 . S
C84 H86 0.952 . S
C85 N80 1.332 . S
C85 C81 1.382 . S
C85 H87 0.948 . S
H86 C84 0.952 . S
H87 C85 0.948 . S
H88 C77 0.952 . S
H89 C79 0.948 . S
C90 C56 1.395 . S
C90 C60 1.391 . S
C91 C53 1.389 . S
C91 C73 1.392 . S
C92 C63 1.392 . S
C92 C65 1.389 . S
C93 C68 1.395 . S
C93 C70 1.391 . S
H94 C54 0.951 1_545 S
H95 C55 0.950 . S
H96 C61 0.949 . S
H97 C62 0.950 . S
H98 C66 0.951 . S
H99 C67 0.950 . S
H100 C71 0.949 . S
H101 C72 0.950 . S
H102 C76 0.950 . S
H103 C78 0.950 . S
H104 C81 0.950 . S
H105 C83 0.950 1_545 S
C106 C107 1.443 . S
C106 N110 1.376 . S
C106 C144 1.389 . S
C107 C106 1.443 . S
C107 C108 1.340 1_565 S
C107 H147 0.951 1_565 S
C108 C107 1.340 1_545 S
C108 C109 1.439 1_545 S
C108 H148 0.950 . S
C109 C108 1.439 1_565 S
C109 N110 1.374 . S
C109 C143 1.395 . S
N110 C106 1.376 . S
N110 C109 1.374 . S
N110 Co111 2.008 . S
Co111 N110 2.008 . S
Co111 N112 1.995 . S
Co111 N117 2.008 . S
Co111 N122 1.995 . S
Co111 N127 2.282 . S
Co111 N133 2.282 . S
N112 Co111 1.995 . S
N112 C113 1.376 . S
N112 C116 1.383 . S
C113 N112 1.376 . S
C113 C114 1.446 . S
C113 C143 1.391 . S
C114 C113 1.446 . S
C114 C115 1.339 . S
C114 H149 0.949 . S
C115 C114 1.339 . S
C115 C116 1.439 . S
C115 H150 0.950 . S
C116 N112 1.383 . S
C116 C115 1.439 . S
C116 C145 1.392 . S
N117 Co111 2.008 . S
N117 C118 1.376 . S
N117 C121 1.374 . S
C118 N117 1.376 . S
C118 C119 1.443 . S
C118 C145 1.389 . S
C119 C118 1.443 . S
C119 C120 1.340 . S
C119 H151 0.951 . S
C120 C119 1.340 . S
C120 C121 1.439 . S
C120 H152 0.950 . S
C121 N117 1.374 . S
C121 C120 1.439 . S
C121 C146 1.395 . S
N122 Co111 1.995 . S
N122 C123 1.376 . S
N122 C126 1.383 . S
C123 N122 1.376 . S
C123 C124 1.446 . S
C123 C146 1.391 . S
C124 C123 1.446 . S
C124 C125 1.339 . S
C124 H153 0.949 . S
C125 C124 1.339 . S
C125 C126 1.439 . S
C125 H154 0.950 . S
C126 N122 1.383 . S
C126 C125 1.439 . S
C126 C144 1.392 . S
N127 Co111 2.282 . S
N127 C130 1.332 . S
N127 C132 1.332 . S
C128 C129 1.386 . S
C128 C131 1.388 . S
C129 C128 1.386 . S
C129 C130 1.382 . S
C129 H155 0.950 . S
C130 N127 1.332 . S
C130 C129 1.382 . S
C130 H141 0.952 . S
C131 C128 1.388 . S
C131 C132 1.382 . S
C131 H156 0.950 . S
C132 N127 1.332 . S
C132 C131 1.382 . S
C132 H142 0.948 . S
N133 Co111 2.282 . S
N133 C137 1.332 . S
N133 C138 1.332 . S
C134 C135 1.388 . S
C134 C138 1.382 . S
C134 H157 0.950 . S
C135 C134 1.388 . S
C135 C136 1.386 . S
C136 C135 1.386 . S
C136 C137 1.382 . S
C136 H158 0.950 1_565 S
C137 N133 1.332 . S
C137 C136 1.382 . S
C137 H139 0.952 . S
C138 N133 1.332 . S
C138 C134 1.382 . S
C138 H140 0.948 . S
H139 C137 0.952 . S
H140 C138 0.948 . S
H141 C130 0.952 . S
H142 C132 0.948 . S
C143 C109 1.395 . S
C143 C113 1.391 . S
C144 C106 1.389 . S
C144 C126 1.392 . S
C145 C116 1.392 . S
C145 C118 1.389 . S
C146 C121 1.395 . S
C146 C123 1.391 . S
H147 C107 0.951 1_545 S
H148 C108 0.950 . S
H149 C114 0.949 . S
H150 C115 0.950 . S
H151 C119 0.951 . S
H152 C120 0.950 . S
H153 C124 0.949 . S
H154 C125 0.950 . S
H155 C129 0.950 . S
H156 C131 0.950 . S
H157 C134 0.950 . S
H158 C136 0.950 1_545 S
C159 C160 1.443 . S
C159 N163 1.376 . S
C159 C197 1.389 . S
C160 C159 1.443 . S
C160 C161 1.340 1_545 S
C160 H200 0.951 1_545 S
C161 C160 1.340 1_565 S
C161 C162 1.439 1_565 S
C161 H201 0.950 . S
C162 C161 1.439 1_545 S
C162 N163 1.374 . S
C162 C196 1.395 . S
N163 C159 1.376 . S
N163 C162 1.374 . S
N163 Co164 2.008 . S
Co164 N163 2.008 . S
Co164 N165 1.995 . S
Co164 N170 2.008 . S
Co164 N175 1.995 . S
Co164 N180 2.282 . S
Co164 N186 2.282 . S
N165 Co164 1.995 . S
N165 C166 1.376 . S
N165 C169 1.383 . S
C166 N165 1.376 . S
C166 C167 1.446 . S
C166 C196 1.391 . S
C167 C166 1.446 . S
C167 C168 1.339 . S
C167 H202 0.949 . S
C168 C167 1.339 . S
C168 C169 1.439 . S
C168 H203 0.950 . S
C169 N165 1.383 . S
C169 C168 1.439 . S
C169 C198 1.392 . S
N170 Co164 2.008 . S
N170 C171 1.376 . S
N170 C174 1.374 . S
C171 N170 1.376 . S
C171 C172 1.443 . S
C171 C198 1.389 . S
C172 C171 1.443 . S
C172 C173 1.340 . S
C172 H204 0.951 . S
C173 C172 1.340 . S
C173 C174 1.439 . S
C173 H205 0.950 . S
C174 N170 1.374 . S
C174 C173 1.439 . S
C174 C199 1.395 . S
N175 Co164 1.995 . S
N175 C176 1.376 . S
N175 C179 1.383 . S
C176 N175 1.376 . S
C176 C177 1.446 . S
C176 C199 1.391 . S
C177 C176 1.446 . S
C177 C178 1.339 . S
C177 H206 0.949 . S
C178 C177 1.339 . S
C178 C179 1.439 . S
C178 H207 0.950 . S
C179 N175 1.383 . S
C179 C178 1.439 . S
C179 C197 1.392 . S
N180 Co164 2.282 . S
N180 C183 1.332 . S
N180 C185 1.332 . S
C181 C182 1.386 . S
C181 C184 1.388 . S
C182 C181 1.386 . S
C182 C183 1.382 . S
C182 H208 0.950 . S
C183 N180 1.332 . S
C183 C182 1.382 . S
C183 H194 0.952 . S
C184 C181 1.388 . S
C184 C185 1.382 . S
C184 H209 0.950 . S
C185 N180 1.332 . S
C185 C184 1.382 . S
C185 H195 0.948 . S
N186 Co164 2.282 . S
N186 C190 1.332 . S
N186 C191 1.332 . S
C187 C188 1.388 . S
C187 C191 1.382 . S
C187 H210 0.950 . S
C188 C187 1.388 . S
C188 C189 1.386 . S
C189 C188 1.386 . S
C189 C190 1.382 . S
C189 H211 0.950 1_545 S
C190 N186 1.332 . S
C190 C189 1.382 . S
C190 H192 0.952 . S
C191 N186 1.332 . S
C191 C187 1.382 . S
C191 H193 0.948 . S
H192 C190 0.952 . S
H193 C191 0.948 . S
H194 C183 0.952 . S
H195 C185 0.948 . S
C196 C162 1.395 . S
C196 C166 1.391 . S
C197 C159 1.389 . S
C197 C179 1.392 . S
C198 C169 1.392 . S
C198 C171 1.389 . S
C199 C174 1.395 . S
C199 C176 1.391 . S
H200 C160 0.951 1_565 S
H201 C161 0.950 . S
H202 C167 0.949 . S
H203 C168 0.950 . S
H204 C172 0.951 . S
H205 C173 0.950 . S
H206 C177 0.949 . S
H207 C178 0.950 . S
H208 C182 0.950 . S
H209 C184 0.950 . S
H210 C187 0.950 . S
H211 C189 0.950 1_565 S
C212 C213 1.443 . S
C212 N216 1.376 . S
C212 C250 1.389 . S
C213 C212 1.443 . S
C213 C214 1.340 . S
C213 H253 0.951 . S
C214 C213 1.340 . S
C214 C215 1.439 . S
C214 H254 0.950 . S
C215 C214 1.439 . S
C215 N216 1.374 . S
C215 C249 1.395 . S
N216 C212 1.376 . S
N216 C215 1.374 . S
N216 Co217 2.008 . S
Co217 N216 2.008 . S
Co217 N218 1.995 . S
Co217 N223 2.008 . S
Co217 N228 1.995 . S
Co217 N233 2.282 . S
Co217 N239 2.282 . S
N218 Co217 1.995 . S
N218 C219 1.376 . S
N218 C222 1.383 . S
C219 N218 1.376 . S
C219 C220 1.446 . S
C219 C249 1.391 . S
C220 C219 1.446 . S
C220 C221 1.339 . S
C220 H255 0.949 . S
C221 C220 1.339 . S
C221 C222 1.439 . S
C221 H256 0.950 . S
C222 N218 1.383 . S
C222 C221 1.439 . S
C222 C251 1.392 . S
N223 Co217 2.008 . S
N223 C224 1.376 . S
N223 C227 1.374 . S
C224 N223 1.376 . S
C224 C225 1.443 . S
C224 C251 1.389 . S
C225 C224 1.443 . S
C225 C226 1.340 . S
C225 H257 0.951 . S
C226 C225 1.340 . S
C226 C227 1.439 . S
C226 H258 0.950 . S
C227 N223 1.374 . S
C227 C226 1.439 . S
C227 C252 1.395 . S
N228 Co217 1.995 . S
N228 C229 1.376 . S
N228 C232 1.383 . S
C229 N228 1.376 . S
C229 C230 1.434 1_565 S
C229 C252 1.391 . S
C230 C229 1.434 1_545 S
C230 C231 1.332 1_545 S
C230 H259 0.966 . S
C231 C230 1.332 1_565 S
C231 C232 1.439 . S
C231 H260 0.950 . S
C232 N228 1.383 . S
C232 C231 1.439 . S
C232 C250 1.392 . S
N233 Co217 2.282 . S
N233 C236 1.332 . S
N233 C238 1.332 . S
C234 C235 1.386 . S
C234 C237 1.388 . S
C235 C234 1.386 . S
C235 C236 1.382 . S
C235 H261 0.950 . S
C236 N233 1.332 . S
C236 C235 1.382 . S
C236 H247 0.952 . S
C237 C234 1.388 . S
C237 C238 1.382 . S
C237 H262 0.950 . S
C238 N233 1.332 . S
C238 C237 1.382 . S
C238 H248 0.948 . S
N239 Co217 2.282 . S
N239 C243 1.332 . S
N239 C244 1.332 . S
C240 C241 1.388 . S
C240 C244 1.382 . S
C240 H263 0.950 1_565 S
C241 C240 1.388 . S
C241 C242 1.386 . S
C242 C241 1.386 . S
C242 C243 1.382 . S
C242 H264 0.950 . S
C243 N239 1.332 . S
C243 C242 1.382 . S
C243 H245 0.952 . S
C244 N239 1.332 . S
C244 C240 1.382 . S
C244 H246 0.948 . S
H245 C243 0.952 . S
H246 C244 0.948 . S
H247 C236 0.952 . S
H248 C238 0.948 . S
C249 C215 1.395 . S
C249 C219 1.391 . S
C250 C212 1.389 . S
C250 C232 1.392 . S
C251 C222 1.392 . S
C251 C224 1.389 . S
C252 C227 1.395 . S
C252 C229 1.391 . S
H253 C213 0.951 . S
H254 C214 0.950 . S
H255 C220 0.949 . S
H256 C221 0.950 . S
H257 C225 0.951 . S
H258 C226 0.950 . S
H259 C230 0.966 . S
H260 C231 0.950 . S
H261 C235 0.950 . S
H262 C237 0.950 . S
H263 C240 0.950 1_545 S
H264 C242 0.950 . S
C265 C266 1.443 . S
C265 N269 1.376 . S
C265 C303 1.389 . S
C266 C265 1.443 . S
C266 C267 1.340 . S
C266 H306 0.951 . S
C267 C266 1.340 . S
C267 C268 1.439 . S
C267 H307 0.950 . S
C268 C267 1.439 . S
C268 N269 1.374 . S
C268 C302 1.395 . S
N269 C265 1.376 . S
N269 C268 1.374 . S
N269 Co270 2.008 . S
Co270 N269 2.008 . S
Co270 N271 1.995 . S
Co270 N276 2.008 . S
Co270 N281 1.995 . S
Co270 N286 2.282 . S
Co270 N292 2.282 . S
N271 Co270 1.995 . S
N271 C272 1.376 . S
N271 C275 1.383 . S
C272 N271 1.376 . S
C272 C273 1.446 . S
C272 C302 1.391 . S
C273 C272 1.446 . S
C273 C274 1.339 . S
C273 H308 0.949 . S
C274 C273 1.339 . S
C274 C275 1.439 . S
C274 H309 0.950 . S
C275 N271 1.383 . S
C275 C274 1.439 . S
C275 C304 1.392 . S
N276 Co270 2.008 . S
N276 C277 1.376 . S
N276 C280 1.374 . S
C277 N276 1.376 . S
C277 C278 1.443 . S
C277 C304 1.389 . S
C278 C277 1.443 . S
C278 C279 1.340 . S
C278 H310 0.951 . S
C279 C278 1.340 . S
C279 C280 1.439 . S
C279 H311 0.950 . S
C280 N276 1.374 . S
C280 C279 1.439 . S
C280 C305 1.395 . S
N281 Co270 1.995 . S
N281 C282 1.376 . S
N281 C285 1.383 . S
C282 N281 1.376 . S
C282 C283 1.434 1_545 S
C282 C305 1.391 . S
C283 C282 1.434 1_565 S
C283 C284 1.332 1_565 S
C283 H312 0.966 . S
C284 C283 1.332 1_545 S
C284 C285 1.439 . S
C284 H313 0.950 . S
C285 N281 1.383 . S
C285 C284 1.439 . S
C285 C303 1.392 . S
N286 Co270 2.282 . S
N286 C289 1.332 . S
N286 C291 1.332 . S
C287 C288 1.386 . S
C287 C290 1.388 . S
C288 C287 1.386 . S
C288 C289 1.382 . S
C288 H314 0.950 . S
C289 N286 1.332 . S
C289 C288 1.382 . S
C289 H300 0.952 . S
C290 C287 1.388 . S
C290 C291 1.382 . S
C290 H315 0.950 . S
C291 N286 1.332 . S
C291 C290 1.382 . S
C291 H301 0.948 . S
N292 Co270 2.282 . S
N292 C296 1.332 . S
N292 C297 1.332 . S
C293 C294 1.388 . S
C293 C297 1.382 . S
C293 H316 0.950 1_545 S
C294 C293 1.388 . S
C294 C295 1.386 . S
C295 C294 1.386 . S
C295 C296 1.382 . S
C295 H317 0.950 . S
C296 N292 1.332 . S
C296 C295 1.382 . S
C296 H298 0.952 . S
C297 N292 1.332 . S
C297 C293 1.382 . S
C297 H299 0.948 . S
H298 C296 0.952 . S
H299 C297 0.948 . S
H300 C289 0.952 . S
H301 C291 0.948 . S
C302 C268 1.395 . S
C302 C272 1.391 . S
C303 C265 1.389 . S
C303 C285 1.392 . S
C304 C275 1.392 . S
C304 C277 1.389 . S
C305 C280 1.395 . S
C305 C282 1.391 . S
H306 C266 0.951 . S
H307 C267 0.950 . S
H308 C273 0.949 . S
H309 C274 0.950 . S
H310 C278 0.951 . S
H311 C279 0.950 . S
H312 C283 0.966 . S
H313 C284 0.950 . S
H314 C288 0.950 . S
H315 C290 0.950 . S
H316 C293 0.950 1_565 S
H317 C295 0.950 . S
C318 C319 1.443 . S
C318 N322 1.376 . S
C318 C356 1.389 . S
C319 C318 1.443 . S
C319 C320 1.340 . S
C319 H359 0.951 . S
C320 C319 1.340 . S
C320 C321 1.439 . S
C320 H360 0.950 . S
C321 C320 1.439 . S
C321 N322 1.374 . S
C321 C355 1.395 . S
N322 C318 1.376 . S
N322 C321 1.374 . S
N322 Co323 2.008 . S
Co323 N322 2.008 . S
Co323 N324 1.995 . S
Co323 N329 2.008 . S
Co323 N334 1.995 . S
Co323 N339 2.282 . S
Co323 N345 2.282 . S
N324 Co323 1.995 . S
N324 C325 1.376 . S
N324 C328 1.383 . S
C325 N324 1.376 . S
C325 C326 1.446 . S
C325 C355 1.391 . S
C326 C325 1.446 . S
C326 C327 1.339 . S
C326 H361 0.949 . S
C327 C326 1.339 . S
C327 C328 1.439 . S
C327 H362 0.950 . S
C328 N324 1.383 . S
C328 C327 1.439 . S
C328 C357 1.392 . S
N329 Co323 2.008 . S
N329 C330 1.376 . S
N329 C333 1.374 . S
C330 N329 1.376 . S
C330 C331 1.443 . S
C330 C357 1.389 . S
C331 C330 1.443 . S
C331 C332 1.340 . S
C331 H363 0.951 . S
C332 C331 1.340 . S
C332 C333 1.439 . S
C332 H364 0.950 . S
C333 N329 1.374 . S
C333 C332 1.439 . S
C333 C358 1.395 . S
N334 Co323 1.995 . S
N334 C335 1.376 . S
N334 C338 1.383 . S
C335 N334 1.376 . S
C335 C336 1.434 1_545 S
C335 C358 1.391 . S
C336 C335 1.434 1_565 S
C336 C337 1.332 1_565 S
C336 H365 0.966 . S
C337 C336 1.332 1_545 S
C337 C338 1.439 . S
C337 H366 0.950 . S
C338 N334 1.383 . S
C338 C337 1.439 . S
C338 C356 1.392 . S
N339 Co323 2.282 . S
N339 C342 1.332 . S
N339 C344 1.332 . S
C340 C341 1.386 . S
C340 C343 1.388 . S
C341 C340 1.386 . S
C341 C342 1.382 . S
C341 H367 0.950 . S
C342 N339 1.332 . S
C342 C341 1.382 . S
C342 H353 0.952 . S
C343 C340 1.388 . S
C343 C344 1.382 . S
C343 H368 0.950 . S
C344 N339 1.332 . S
C344 C343 1.382 . S
C344 H354 0.948 . S
N345 Co323 2.282 . S
N345 C349 1.332 . S
N345 C350 1.332 . S
C346 C347 1.388 . S
C346 C350 1.382 . S
C346 H369 0.950 1_545 S
C347 C346 1.388 . S
C347 C348 1.386 . S
C348 C347 1.386 . S
C348 C349 1.382 . S
C348 H370 0.950 . S
C349 N345 1.332 . S
C349 C348 1.382 . S
C349 H351 0.952 . S
C350 N345 1.332 . S
C350 C346 1.382 . S
C350 H352 0.948 . S
H351 C349 0.952 . S
H352 C350 0.948 . S
H353 C342 0.952 . S
H354 C344 0.948 . S
C355 C321 1.395 . S
C355 C325 1.391 . S
C356 C318 1.389 . S
C356 C338 1.392 . S
C357 C328 1.392 . S
C357 C330 1.389 . S
C358 C333 1.395 . S
C358 C335 1.391 . S
H359 C319 0.951 . S
H360 C320 0.950 . S
H361 C326 0.949 . S
H362 C327 0.950 . S
H363 C331 0.951 . S
H364 C332 0.950 . S
H365 C336 0.966 . S
H366 C337 0.950 . S
H367 C341 0.950 . S
H368 C343 0.950 . S
H369 C346 0.950 1_565 S
H370 C348 0.950 . S
C371 C372 1.443 . S
C371 N375 1.376 . S
C371 C409 1.389 . S
C372 C371 1.443 . S
C372 C373 1.340 . S
C372 H412 0.951 . S
C373 C372 1.340 . S
C373 C374 1.439 . S
C373 H413 0.950 . S
C374 C373 1.439 . S
C374 N375 1.374 . S
C374 C408 1.395 . S
N375 C371 1.376 . S
N375 C374 1.374 . S
N375 Co376 2.008 . S
Co376 N375 2.008 . S
Co376 N377 1.995 . S
Co376 N382 2.008 . S
Co376 N387 1.995 . S
Co376 N392 2.282 . S
Co376 N398 2.282 . S
N377 Co376 1.995 . S
N377 C378 1.376 . S
N377 C381 1.383 . S
C378 N377 1.376 . S
C378 C379 1.446 . S
C378 C408 1.391 . S
C379 C378 1.446 . S
C379 C380 1.339 . S
C379 H414 0.949 . S
C380 C379 1.339 . S
C380 C381 1.439 . S
C380 H415 0.950 . S
C381 N377 1.383 . S
C381 C380 1.439 . S
C381 C410 1.392 . S
N382 Co376 2.008 . S
N382 C383 1.376 . S
N382 C386 1.374 . S
C383 N382 1.376 . S
C383 C384 1.443 . S
C383 C410 1.389 . S
C384 C383 1.443 . S
C384 C385 1.340 . S
C384 H416 0.951 . S
C385 C384 1.340 . S
C385 C386 1.439 . S
C385 H417 0.950 . S
C386 N382 1.374 . S
C386 C385 1.439 . S
C386 C411 1.395 . S
N387 Co376 1.995 . S
N387 C388 1.376 . S
N387 C391 1.383 . S
C388 N387 1.376 . S
C388 C389 1.434 1_565 S
C388 C411 1.391 . S
C389 C388 1.434 1_545 S
C389 C390 1.332 1_545 S
C389 H418 0.966 . S
C390 C389 1.332 1_565 S
C390 C391 1.439 . S
C390 H419 0.950 . S
C391 N387 1.383 . S
C391 C390 1.439 . S
C391 C409 1.392 . S
N392 Co376 2.282 . S
N392 C395 1.332 . S
N392 C397 1.332 . S
C393 C394 1.386 . S
C393 C396 1.388 . S
C394 C393 1.386 . S
C394 C395 1.382 . S
C394 H420 0.950 . S
C395 N392 1.332 . S
C395 C394 1.382 . S
C395 H406 0.952 . S
C396 C393 1.388 . S
C396 C397 1.382 . S
C396 H421 0.950 . S
C397 N392 1.332 . S
C397 C396 1.382 . S
C397 H407 0.948 . S
N398 Co376 2.282 . S
N398 C402 1.332 . S
N398 C403 1.332 . S
C399 C400 1.388 . S
C399 C403 1.382 . S
C399 H422 0.950 1_565 S
C400 C399 1.388 . S
C400 C401 1.386 . S
C401 C400 1.386 . S
C401 C402 1.382 . S
C401 H423 0.950 . S
C402 N398 1.332 . S
C402 C401 1.382 . S
C402 H404 0.952 . S
C403 N398 1.332 . S
C403 C399 1.382 . S
C403 H405 0.948 . S
H404 C402 0.952 . S
H405 C403 0.948 . S
H406 C395 0.952 . S
H407 C397 0.948 . S
C408 C374 1.395 . S
C408 C378 1.391 . S
C409 C371 1.389 . S
C409 C391 1.392 . S
C410 C381 1.392 . S
C410 C383 1.389 . S
C411 C386 1.395 . S
C411 C388 1.391 . S
H412 C372 0.951 . S
H413 C373 0.950 . S
H414 C379 0.949 . S
H415 C380 0.950 . S
H416 C384 0.951 . S
H417 C385 0.950 . S
H418 C389 0.966 . S
H419 C390 0.950 . S
H420 C394 0.950 . S
H421 C396 0.950 . S
H422 C399 0.950 1_545 S
H423 C401 0.950 . S
C424 C425 1.443 . S
C424 N428 1.376 . S
C424 C462 1.389 . S
C425 C424 1.443 . S
C425 C426 1.340 . S
C425 H465 0.951 . S
C426 C425 1.340 . S
C426 C427 1.439 . S
C426 H466 0.950 . S
C427 C426 1.439 . S
C427 N428 1.374 . S
C427 C461 1.395 . S
N428 C424 1.376 . S
N428 C427 1.374 . S
N428 Co429 2.008 . S
Co429 N428 2.008 . S
Co429 N430 1.995 . S
Co429 N435 2.008 . S
Co429 N440 1.995 . S
Co429 N445 2.282 . S
Co429 N451 2.282 . S
N430 Co429 1.995 . S
N430 C431 1.376 . S
N430 C434 1.383 . S
C431 N430 1.376 . S
C431 C432 1.446 . S
C431 C461 1.391 . S
C432 C431 1.446 . S
C432 C433 1.339 . S
C432 H467 0.949 . S
C433 C432 1.339 . S
C433 C434 1.439 . S
C433 H468 0.950 . S
C434 N430 1.383 . S
C434 C433 1.439 . S
C434 C463 1.392 . S
N435 Co429 2.008 . S
N435 C436 1.376 . S
N435 C439 1.374 . S
C436 N435 1.376 . S
C436 C437 1.443 . S
C436 C463 1.389 . S
C437 C436 1.443 . S
C437 C438 1.340 . S
C437 H469 0.951 . S
C438 C437 1.340 . S
C438 C439 1.439 . S
C438 H470 0.950 . S
C439 N435 1.374 . S
C439 C438 1.439 . S
C439 C464 1.395 . S
N440 Co429 1.995 . S
N440 C441 1.376 . S
N440 C444 1.383 . S
C441 N440 1.376 . S
C441 C442 1.446 . S
C441 C464 1.391 . S
C442 C441 1.446 . S
C442 C443 1.339 . S
C442 H471 0.949 . S
C443 C442 1.339 . S
C443 C444 1.439 . S
C443 H472 0.950 . S
C444 N440 1.383 . S
C444 C443 1.439 . S
C444 C462 1.392 . S
N445 Co429 2.282 . S
N445 C448 1.332 . S
N445 C450 1.332 . S
C446 C447 1.386 . S
C446 C449 1.388 . S
C447 C446 1.386 . S
C447 C448 1.382 . S
C447 H473 0.950 . S
C448 N445 1.332 . S
C448 C447 1.382 . S
C448 H459 0.952 . S
C449 C446 1.388 . S
C449 C450 1.382 . S
C449 H474 0.950 . S
C450 N445 1.332 . S
C450 C449 1.382 . S
C450 H460 0.948 . S
N451 Co429 2.282 . S
N451 C455 1.332 . S
N451 C456 1.332 . S
C452 C453 1.388 . S
C452 C456 1.382 . S
C452 H475 0.950 . S
C453 C452 1.388 . S
C453 C454 1.386 . S
C454 C453 1.386 . S
C454 C455 1.382 . S
C454 H476 0.950 . S
C455 N451 1.332 . S
C455 C454 1.382 . S
C455 H457 0.952 . S
C456 N451 1.332 . S
C456 C452 1.382 . S
C456 H458 0.948 . S
H457 C455 0.952 . S
H458 C456 0.948 . S
H459 C448 0.952 . S
H460 C450 0.948 . S
C461 C427 1.395 . S
C461 C431 1.391 . S
C462 C424 1.389 . S
C462 C444 1.392 . S
C463 C434 1.392 . S
C463 C436 1.389 . S
C464 C439 1.395 . S
C464 C441 1.391 . S
H465 C425 0.951 . S
H466 C426 0.950 . S
H467 C432 0.949 . S
H468 C433 0.950 . S
H469 C437 0.951 . S
H470 C438 0.950 . S
H471 C442 0.949 . S
H472 C443 0.950 . S
H473 C447 0.950 . S
H474 C449 0.950 . S
H475 C452 0.950 . S
H476 C454 0.950 . S
C477 C478 1.443 . S
C477 N481 1.376 . S
C477 C515 1.389 . S
C478 C477 1.443 . S
C478 C479 1.340 . S
C478 H518 0.951 . S
C479 C478 1.340 . S
C479 C480 1.439 . S
C479 H519 0.950 . S
C480 C479 1.439 . S
C480 N481 1.374 . S
C480 C514 1.395 . S
N481 C477 1.376 . S
N481 C480 1.374 . S
N481 Co482 2.008 . S
Co482 N481 2.008 . S
Co482 N483 1.995 . S
Co482 N488 2.008 . S
Co482 N493 1.995 . S
Co482 N498 2.282 . S
Co482 N504 2.282 . S
N483 Co482 1.995 . S
N483 C484 1.376 . S
N483 C487 1.383 . S
C484 N483 1.376 . S
C484 C485 1.446 . S
C484 C514 1.391 . S
C485 C484 1.446 . S
C485 C486 1.339 . S
C485 H520 0.949 . S
C486 C485 1.339 . S
C486 C487 1.439 . S
C486 H521 0.950 . S
C487 N483 1.383 . S
C487 C486 1.439 . S
C487 C516 1.392 . S
N488 Co482 2.008 . S
N488 C489 1.376 . S
N488 C492 1.374 . S
C489 N488 1.376 . S
C489 C490 1.443 . S
C489 C516 1.389 . S
C490 C489 1.443 . S
C490 C491 1.340 . S
C490 H522 0.951 . S
C491 C490 1.340 . S
C491 C492 1.439 . S
C491 H523 0.950 . S
C492 N488 1.374 . S
C492 C491 1.439 . S
C492 C517 1.395 . S
N493 Co482 1.995 . S
N493 C494 1.376 . S
N493 C497 1.383 . S
C494 N493 1.376 . S
C494 C495 1.446 . S
C494 C517 1.391 . S
C495 C494 1.446 . S
C495 C496 1.339 . S
C495 H524 0.949 . S
C496 C495 1.339 . S
C496 C497 1.439 . S
C496 H525 0.950 . S
C497 N493 1.383 . S
C497 C496 1.439 . S
C497 C515 1.392 . S
N498 Co482 2.282 . S
N498 C501 1.332 . S
N498 C503 1.332 . S
C499 C500 1.386 . S
C499 C502 1.388 . S
C500 C499 1.386 . S
C500 C501 1.382 . S
C500 H526 0.950 . S
C501 N498 1.332 . S
C501 C500 1.382 . S
C501 H512 0.952 . S
C502 C499 1.388 . S
C502 C503 1.382 . S
C502 H527 0.950 . S
C503 N498 1.332 . S
C503 C502 1.382 . S
C503 H513 0.948 . S
N504 Co482 2.282 . S
N504 C508 1.332 . S
N504 C509 1.332 . S
C505 C506 1.388 . S
C505 C509 1.382 . S
C505 H528 0.950 . S
C506 C505 1.388 . S
C506 C507 1.386 . S
C507 C506 1.386 . S
C507 C508 1.382 . S
C507 H529 0.950 . S
C508 N504 1.332 . S
C508 C507 1.382 . S
C508 H510 0.952 . S
C509 N504 1.332 . S
C509 C505 1.382 . S
C509 H511 0.948 . S
H510 C508 0.952 . S
H511 C509 0.948 . S
H512 C501 0.952 . S
H513 C503 0.948 . S
C514 C480 1.395 . S
C514 C484 1.391 . S
C515 C477 1.389 . S
C515 C497 1.392 . S
C516 C487 1.392 . S
C516 C489 1.389 . S
C517 C492 1.395 . S
C517 C494 1.391 . S
H518 C478 0.951 . S
H519 C479 0.950 . S
H520 C485 0.949 . S
H521 C486 0.950 . S
H522 C490 0.951 . S
H523 C491 0.950 . S
H524 C495 0.949 . S
H525 C496 0.950 . S
H526 C500 0.950 . S
H527 C502 0.950 . S
H528 C505 0.950 . S
H529 C507 0.950 . S
C530 C531 1.443 . S
C530 N534 1.376 . S
C530 C568 1.389 . S
C531 C530 1.443 . S
C531 C532 1.340 . S
C531 H571 0.951 . S
C532 C531 1.340 . S
C532 C533 1.439 . S
C532 H572 0.950 . S
C533 C532 1.439 . S
C533 N534 1.374 . S
C533 C567 1.395 . S
N534 C530 1.376 . S
N534 C533 1.374 . S
N534 Co535 2.008 . S
Co535 N534 2.008 . S
Co535 N536 1.995 . S
Co535 N541 2.008 . S
Co535 N546 1.995 . S
Co535 N551 2.282 . S
Co535 N557 2.282 . S
N536 Co535 1.995 . S
N536 C537 1.376 . S
N536 C540 1.383 . S
C537 N536 1.376 . S
C537 C538 1.446 . S
C537 C567 1.391 . S
C538 C537 1.446 . S
C538 C539 1.339 . S
C538 H573 0.949 . S
C539 C538 1.339 . S
C539 C540 1.439 . S
C539 H574 0.950 . S
C540 N536 1.383 . S
C540 C539 1.439 . S
C540 C569 1.392 . S
N541 Co535 2.008 . S
N541 C542 1.376 . S
N541 C545 1.374 . S
C542 N541 1.376 . S
C542 C543 1.443 . S
C542 C569 1.389 . S
C543 C542 1.443 . S
C543 C544 1.340 . S
C543 H575 0.951 . S
C544 C543 1.340 . S
C544 C545 1.439 . S
C544 H576 0.950 . S
C545 N541 1.374 . S
C545 C544 1.439 . S
C545 C570 1.395 . S
N546 Co535 1.995 . S
N546 C547 1.376 . S
N546 C550 1.383 . S
C547 N546 1.376 . S
C547 C548 1.446 . S
C547 C570 1.391 . S
C548 C547 1.446 . S
C548 C549 1.339 . S
C548 H577 0.949 . S
C549 C548 1.339 . S
C549 C550 1.439 . S
C549 H578 0.950 . S
C550 N546 1.383 . S
C550 C549 1.439 . S
C550 C568 1.392 . S
N551 Co535 2.282 . S
N551 C554 1.332 . S
N551 C556 1.332 . S
C552 C553 1.386 . S
C552 C555 1.388 . S
C553 C552 1.386 . S
C553 C554 1.382 . S
C553 H579 0.950 . S
C554 N551 1.332 . S
C554 C553 1.382 . S
C554 H565 0.952 . S
C555 C552 1.388 . S
C555 C556 1.382 . S
C555 H580 0.950 . S
C556 N551 1.332 . S
C556 C555 1.382 . S
C556 H566 0.948 . S
N557 Co535 2.282 . S
N557 C561 1.332 . S
N557 C562 1.332 . S
C558 C559 1.388 . S
C558 C562 1.382 . S
C558 H581 0.950 . S
C559 C558 1.388 . S
C559 C560 1.386 . S
C560 C559 1.386 . S
C560 C561 1.382 . S
C560 H582 0.950 . S
C561 N557 1.332 . S
C561 C560 1.382 . S
C561 H563 0.952 . S
C562 N557 1.332 . S
C562 C558 1.382 . S
C562 H564 0.948 . S
H563 C561 0.952 . S
H564 C562 0.948 . S
H565 C554 0.952 . S
H566 C556 0.948 . S
C567 C533 1.395 . S
C567 C537 1.391 . S
C568 C530 1.389 . S
C568 C550 1.392 . S
C569 C540 1.392 . S
C569 C542 1.389 . S
C570 C545 1.395 . S
C570 C547 1.391 . S
H571 C531 0.951 . S
H572 C532 0.950 . S
H573 C538 0.949 . S
H574 C539 0.950 . S
H575 C543 0.951 . S
H576 C544 0.950 . S
H577 C548 0.949 . S
H578 C549 0.950 . S
H579 C553 0.950 . S
H580 C555 0.950 . S
H581 C558 0.950 . S
H582 C560 0.950 . S
C583 C584 1.443 . S
C583 N587 1.376 . S
C583 C621 1.389 . S
C584 C583 1.443 . S
C584 C585 1.340 . S
C584 H624 0.951 . S
C585 C584 1.340 . S
C585 C586 1.439 . S
C585 H625 0.950 . S
C586 C585 1.439 . S
C586 N587 1.374 . S
C586 C620 1.395 . S
N587 C583 1.376 . S
N587 C586 1.374 . S
N587 Co588 2.008 . S
Co588 N587 2.008 . S
Co588 N589 1.995 . S
Co588 N594 2.008 . S
Co588 N599 1.995 . S
Co588 N604 2.282 . S
Co588 N610 2.282 . S
N589 Co588 1.995 . S
N589 C590 1.376 . S
N589 C593 1.383 . S
C590 N589 1.376 . S
C590 C591 1.446 . S
C590 C620 1.391 . S
C591 C590 1.446 . S
C591 C592 1.339 . S
C591 H626 0.949 . S
C592 C591 1.339 . S
C592 C593 1.439 . S
C592 H627 0.950 . S
C593 N589 1.383 . S
C593 C592 1.439 . S
C593 C622 1.392 . S
N594 Co588 2.008 . S
N594 C595 1.376 . S
N594 C598 1.374 . S
C595 N594 1.376 . S
C595 C596 1.443 . S
C595 C622 1.389 . S
C596 C595 1.443 . S
C596 C597 1.340 . S
C596 H628 0.951 . S
C597 C596 1.340 . S
C597 C598 1.439 . S
C597 H629 0.950 . S
C598 N594 1.374 . S
C598 C597 1.439 . S
C598 C623 1.395 . S
N599 Co588 1.995 . S
N599 C600 1.376 . S
N599 C603 1.383 . S
C600 N599 1.376 . S
C600 C601 1.446 . S
C600 C623 1.391 . S
C601 C600 1.446 . S
C601 C602 1.339 . S
C601 H630 0.949 . S
C602 C601 1.339 . S
C602 C603 1.439 . S
C602 H631 0.950 . S
C603 N599 1.383 . S
C603 C602 1.439 . S
C603 C621 1.392 . S
N604 Co588 2.282 . S
N604 C607 1.332 . S
N604 C609 1.332 . S
C605 C606 1.386 . S
C605 C608 1.388 . S
C606 C605 1.386 . S
C606 C607 1.382 . S
C606 H632 0.950 . S
C607 N604 1.332 . S
C607 C606 1.382 . S
C607 H618 0.952 . S
C608 C605 1.388 . S
C608 C609 1.382 . S
C608 H633 0.950 . S
C609 N604 1.332 . S
C609 C608 1.382 . S
C609 H619 0.948 . S
N610 Co588 2.282 . S
N610 C614 1.332 . S
N610 C615 1.332 . S
C611 C612 1.388 . S
C611 C615 1.382 . S
C611 H634 0.950 . S
C612 C611 1.388 . S
C612 C613 1.386 . S
C613 C612 1.386 . S
C613 C614 1.382 . S
C613 H635 0.950 . S
C614 N610 1.332 . S
C614 C613 1.382 . S
C614 H616 0.952 . S
C615 N610 1.332 . S
C615 C611 1.382 . S
C615 H617 0.948 . S
H616 C614 0.952 . S
H617 C615 0.948 . S
H618 C607 0.952 . S
H619 C609 0.948 . S
C620 C586 1.395 . S
C620 C590 1.391 . S
C621 C583 1.389 . S
C621 C603 1.392 . S
C622 C593 1.392 . S
C622 C595 1.389 . S
C623 C598 1.395 . S
C623 C600 1.391 . S
H624 C584 0.951 . S
H625 C585 0.950 . S
H626 C591 0.949 . S
H627 C592 0.950 . S
H628 C596 0.951 . S
H629 C597 0.950 . S
H630 C601 0.949 . S
H631 C602 0.950 . S
H632 C606 0.950 . S
H633 C608 0.950 . S
H634 C611 0.950 . S
H635 C613 0.950 . S
C636 C637 1.443 . S
C636 N640 1.376 . S
C636 C674 1.389 . S
C637 C636 1.443 . S
C637 C638 1.340 . S
C637 H677 0.951 . S
C638 C637 1.340 . S
C638 C639 1.439 . S
C638 H678 0.950 . S
C639 C638 1.439 . S
C639 N640 1.374 . S
C639 C673 1.395 . S
N640 C636 1.376 . S
N640 C639 1.374 . S
N640 Co641 2.008 . S
Co641 N640 2.008 . S
Co641 N642 1.995 . S
Co641 N647 2.008 . S
Co641 N652 1.995 . S
Co641 N657 2.282 . S
Co641 N663 2.282 . S
N642 Co641 1.995 . S
N642 C643 1.376 . S
N642 C646 1.383 . S
C643 N642 1.376 . S
C643 C644 1.446 . S
C643 C673 1.391 . S
C644 C643 1.446 . S
C644 C645 1.339 . S
C644 H679 0.949 . S
C645 C644 1.339 . S
C645 C646 1.439 . S
C645 H680 0.950 . S
C646 N642 1.383 . S
C646 C645 1.439 . S
C646 C675 1.392 . S
N647 Co641 2.008 . S
N647 C648 1.376 . S
N647 C651 1.374 . S
C648 N647 1.376 . S
C648 C649 1.443 . S
C648 C675 1.389 . S
C649 C648 1.443 . S
C649 C650 1.340 . S
C649 H681 0.951 . S
C650 C649 1.340 . S
C650 C651 1.439 . S
C650 H682 0.950 . S
C651 N647 1.374 . S
C651 C650 1.439 . S
C651 C676 1.395 . S
N652 Co641 1.995 . S
N652 C653 1.376 . S
N652 C656 1.383 . S
C653 N652 1.376 . S
C653 C654 1.446 . S
C653 C676 1.391 . S
C654 C653 1.446 . S
C654 C655 1.339 . S
C654 H683 0.949 . S
C655 C654 1.339 . S
C655 C656 1.439 . S
C655 H684 0.950 . S
C656 N652 1.383 . S
C656 C655 1.439 . S
C656 C674 1.392 . S
N657 Co641 2.282 . S
N657 C660 1.332 . S
N657 C662 1.332 . S
C658 C659 1.386 . S
C658 C661 1.388 . S
C659 C658 1.386 . S
C659 C660 1.382 . S
C659 H685 0.950 . S
C660 N657 1.332 . S
C660 C659 1.382 . S
C660 H671 0.952 . S
C661 C658 1.388 . S
C661 C662 1.382 . S
C661 H686 0.950 . S
C662 N657 1.332 . S
C662 C661 1.382 . S
C662 H672 0.948 . S
N663 Co641 2.282 . S
N663 C667 1.332 . S
N663 C668 1.332 . S
C664 C665 1.388 . S
C664 C668 1.382 . S
C664 H687 0.950 . S
C665 C664 1.388 . S
C665 C666 1.386 . S
C666 C665 1.386 . S
C666 C667 1.382 . S
C666 H688 0.950 . S
C667 N663 1.332 . S
C667 C666 1.382 . S
C667 H669 0.952 . S
C668 N663 1.332 . S
C668 C664 1.382 . S
C668 H670 0.948 . S
H669 C667 0.952 . S
H670 C668 0.948 . S
H671 C660 0.952 . S
H672 C662 0.948 . S
C673 C639 1.395 . S
C673 C643 1.391 . S
C674 C636 1.389 . S
C674 C656 1.392 . S
C675 C646 1.392 . S
C675 C648 1.389 . S
C676 C651 1.395 . S
C676 C653 1.391 . S
H677 C637 0.951 . S
H678 C638 0.950 . S
H679 C644 0.949 . S
H680 C645 0.950 . S
H681 C649 0.951 . S
H682 C650 0.950 . S
H683 C654 0.949 . S
H684 C655 0.950 . S
H685 C659 0.950 . S
H686 C661 0.950 . S
H687 C664 0.950 . S
H688 C666 0.950 . S
C689 C690 1.443 . S
C689 N693 1.376 . S
C689 C727 1.389 . S
C690 C689 1.443 . S
C690 C691 1.340 . S
C690 H730 0.951 . S
C691 C690 1.340 . S
C691 C692 1.439 . S
C691 H731 0.950 . S
C692 C691 1.439 . S
C692 N693 1.374 . S
C692 C726 1.395 . S
N693 C689 1.376 . S
N693 C692 1.374 . S
N693 Co694 2.008 . S
Co694 N693 2.008 . S
Co694 N695 1.995 . S
Co694 N700 2.008 . S
Co694 N705 1.995 . S
Co694 N710 2.282 . S
Co694 N716 2.282 . S
N695 Co694 1.995 . S
N695 C696 1.376 . S
N695 C699 1.383 . S
C696 N695 1.376 . S
C696 C697 1.446 . S
C696 C726 1.391 . S
C697 C696 1.446 . S
C697 C698 1.339 . S
C697 H732 0.949 . S
C698 C697 1.339 . S
C698 C699 1.439 . S
C698 H733 0.950 . S
C699 N695 1.383 . S
C699 C698 1.439 . S
C699 C728 1.392 . S
N700 Co694 2.008 . S
N700 C701 1.376 . S
N700 C704 1.374 . S
C701 N700 1.376 . S
C701 C702 1.443 . S
C701 C728 1.389 . S
C702 C701 1.443 . S
C702 C703 1.340 . S
C702 H734 0.951 . S
C703 C702 1.340 . S
C703 C704 1.439 . S
C703 H735 0.950 . S
C704 N700 1.374 . S
C704 C703 1.439 . S
C704 C729 1.395 . S
N705 Co694 1.995 . S
N705 C706 1.376 . S
N705 C709 1.383 . S
C706 N705 1.376 . S
C706 C707 1.446 . S
C706 C729 1.391 . S
C707 C706 1.446 . S
C707 C708 1.339 . S
C707 H736 0.949 . S
C708 C707 1.339 . S
C708 C709 1.439 . S
C708 H737 0.950 . S
C709 N705 1.383 . S
C709 C708 1.439 . S
C709 C727 1.392 . S
N710 Co694 2.282 . S
N710 C713 1.332 . S
N710 C715 1.332 . S
C711 C712 1.386 . S
C711 C714 1.388 . S
C712 C711 1.386 . S
C712 C713 1.382 . S
C712 H738 0.950 . S
C713 N710 1.332 . S
C713 C712 1.382 . S
C713 H724 0.952 . S
C714 C711 1.388 . S
C714 C715 1.382 . S
C714 H739 0.950 . S
C715 N710 1.332 . S
C715 C714 1.382 . S
C715 H725 0.948 . S
N716 Co694 2.282 . S
N716 C720 1.332 . S
N716 C721 1.332 . S
C717 C718 1.388 . S
C717 C721 1.382 . S
C717 H740 0.950 . S
C718 C717 1.388 . S
C718 C719 1.386 . S
C719 C718 1.386 . S
C719 C720 1.382 . S
C719 H741 0.950 . S
C720 N716 1.332 . S
C720 C719 1.382 . S
C720 H722 0.952 . S
C721 N716 1.332 . S
C721 C717 1.382 . S
C721 H723 0.948 . S
H722 C720 0.952 . S
H723 C721 0.948 . S
H724 C713 0.952 . S
H725 C715 0.948 . S
C726 C692 1.395 . S
C726 C696 1.391 . S
C727 C689 1.389 . S
C727 C709 1.392 . S
C728 C699 1.392 . S
C728 C701 1.389 . S
C729 C704 1.395 . S
C729 C706 1.391 . S
H730 C690 0.951 . S
H731 C691 0.950 . S
H732 C697 0.949 . S
H733 C698 0.950 . S
H734 C702 0.951 . S
H735 C703 0.950 . S
H736 C707 0.949 . S
H737 C708 0.950 . S
H738 C712 0.950 . S
H739 C714 0.950 . S
H740 C717 0.950 . S
H741 C719 0.950 . S
C742 C743 1.443 . S
C742 N746 1.376 . S
C742 C780 1.389 . S
C743 C742 1.443 . S
C743 C744 1.340 . S
C743 H783 0.951 . S
C744 C743 1.340 . S
C744 C745 1.439 . S
C744 H784 0.950 . S
C745 C744 1.439 . S
C745 N746 1.374 . S
C745 C779 1.395 . S
N746 C742 1.376 . S
N746 C745 1.374 . S
N746 Co747 2.008 . S
Co747 N746 2.008 . S
Co747 N748 1.995 . S
Co747 N753 2.008 . S
Co747 N758 1.995 . S
Co747 N763 2.282 . S
Co747 N769 2.282 . S
N748 Co747 1.995 . S
N748 C749 1.376 . S
N748 C752 1.383 . S
C749 N748 1.376 . S
C749 C750 1.446 . S
C749 C779 1.391 . S
C750 C749 1.446 . S
C750 C751 1.339 . S
C750 H785 0.949 . S
C751 C750 1.339 . S
C751 C752 1.439 . S
C751 H786 0.950 . S
C752 N748 1.383 . S
C752 C751 1.439 . S
C752 C781 1.392 . S
N753 Co747 2.008 . S
N753 C754 1.376 . S
N753 C757 1.374 . S
C754 N753 1.376 . S
C754 C755 1.443 . S
C754 C781 1.389 . S
C755 C754 1.443 . S
C755 C756 1.340 . S
C755 H787 0.951 . S
C756 C755 1.340 . S
C756 C757 1.439 . S
C756 H788 0.950 . S
C757 N753 1.374 . S
C757 C756 1.439 . S
C757 C782 1.395 . S
N758 Co747 1.995 . S
N758 C759 1.376 . S
N758 C762 1.383 . S
C759 N758 1.376 . S
C759 C760 1.446 . S
C759 C782 1.391 . S
C760 C759 1.446 . S
C760 C761 1.339 . S
C760 H789 0.949 . S
C761 C760 1.339 . S
C761 C762 1.439 . S
C761 H790 0.950 . S
C762 N758 1.383 . S
C762 C761 1.439 . S
C762 C780 1.392 . S
N763 Co747 2.282 . S
N763 C766 1.332 . S
N763 C768 1.332 . S
C764 C765 1.386 . S
C764 C767 1.388 . S
C765 C764 1.386 . S
C765 C766 1.382 . S
C765 H791 0.950 . S
C766 N763 1.332 . S
C766 C765 1.382 . S
C766 H777 0.952 . S
C767 C764 1.388 . S
C767 C768 1.382 . S
C767 H792 0.950 . S
C768 N763 1.332 . S
C768 C767 1.382 . S
C768 H778 0.948 . S
N769 Co747 2.282 . S
N769 C773 1.332 . S
N769 C774 1.332 . S
C770 C771 1.388 . S
C770 C774 1.382 . S
C770 H793 0.950 . S
C771 C770 1.388 . S
C771 C772 1.386 . S
C772 C771 1.386 . S
C772 C773 1.382 . S
C772 H794 0.950 . S
C773 N769 1.332 . S
C773 C772 1.382 . S
C773 H775 0.952 . S
C774 N769 1.332 . S
C774 C770 1.382 . S
C774 H776 0.948 . S
H775 C773 0.952 . S
H776 C774 0.948 . S
H777 C766 0.952 . S
H778 C768 0.948 . S
C779 C745 1.395 . S
C779 C749 1.391 . S
C780 C742 1.389 . S
C780 C762 1.392 . S
C781 C752 1.392 . S
C781 C754 1.389 . S
C782 C757 1.395 . S
C782 C759 1.391 . S
H783 C743 0.951 . S
H784 C744 0.950 . S
H785 C750 0.949 . S
H786 C751 0.950 . S
H787 C755 0.951 . S
H788 C756 0.950 . S
H789 C760 0.949 . S
H790 C761 0.950 . S
H791 C765 0.950 . S
H792 C767 0.950 . S
H793 C770 0.950 . S
H794 C772 0.950 . S
C795 C796 1.443 . S
C795 N799 1.376 . S
C795 C833 1.389 . S
C796 C795 1.443 . S
C796 C797 1.340 . S
C796 H836 0.951 . S
C797 C796 1.340 . S
C797 C798 1.439 . S
C797 H837 0.950 . S
C798 C797 1.439 . S
C798 N799 1.374 . S
C798 C832 1.395 . S
N799 C795 1.376 . S
N799 C798 1.374 . S
N799 Co800 2.008 . S
Co800 N799 2.008 . S
Co800 N801 1.995 . S
Co800 N806 2.008 . S
Co800 N811 1.995 . S
Co800 N816 2.282 . S
Co800 N822 2.282 . S
N801 Co800 1.995 . S
N801 C802 1.376 . S
N801 C805 1.383 . S
C802 N801 1.376 . S
C802 C803 1.446 . S
C802 C832 1.391 . S
C803 C802 1.446 . S
C803 C804 1.339 . S
C803 H838 0.949 . S
C804 C803 1.339 . S
C804 C805 1.439 . S
C804 H839 0.950 . S
C805 N801 1.383 . S
C805 C804 1.439 . S
C805 C834 1.392 . S
N806 Co800 2.008 . S
N806 C807 1.376 . S
N806 C810 1.374 . S
C807 N806 1.376 . S
C807 C808 1.443 . S
C807 C834 1.389 . S
C808 C807 1.443 . S
C808 C809 1.340 . S
C808 H840 0.951 . S
C809 C808 1.340 . S
C809 C810 1.439 . S
C809 H841 0.950 . S
C810 N806 1.374 . S
C810 C809 1.439 . S
C810 C835 1.395 . S
N811 Co800 1.995 . S
N811 C812 1.376 . S
N811 C815 1.383 . S
C812 N811 1.376 . S
C812 C813 1.446 . S
C812 C835 1.391 . S
C813 C812 1.446 . S
C813 C814 1.339 . S
C813 H842 0.949 . S
C814 C813 1.339 . S
C814 C815 1.439 . S
C814 H843 0.950 . S
C815 N811 1.383 . S
C815 C814 1.439 . S
C815 C833 1.392 . S
N816 Co800 2.282 . S
N816 C819 1.332 . S
N816 C821 1.332 . S
C817 C818 1.386 . S
C817 C820 1.388 . S
C818 C817 1.386 . S
C818 C819 1.382 . S
C818 H844 0.950 . S
C819 N816 1.332 . S
C819 C818 1.382 . S
C819 H830 0.952 . S
C820 C817 1.388 . S
C820 C821 1.382 . S
C820 H845 0.950 . S
C821 N816 1.332 . S
C821 C820 1.382 . S
C821 H831 0.948 . S
N822 Co800 2.282 . S
N822 C826 1.332 . S
N822 C827 1.332 . S
C823 C824 1.388 . S
C823 C827 1.382 . S
C823 H846 0.950 . S
C824 C823 1.388 . S
C824 C825 1.386 . S
C825 C824 1.386 . S
C825 C826 1.382 . S
C825 H847 0.950 . S
C826 N822 1.332 . S
C826 C825 1.382 . S
C826 H828 0.952 . S
C827 N822 1.332 . S
C827 C823 1.382 . S
C827 H829 0.948 . S
H828 C826 0.952 . S
H829 C827 0.948 . S
H830 C819 0.952 . S
H831 C821 0.948 . S
C832 C798 1.395 . S
C832 C802 1.391 . S
C833 C795 1.389 . S
C833 C815 1.392 . S
C834 C805 1.392 . S
C834 C807 1.389 . S
C835 C810 1.395 . S
C835 C812 1.391 . S
H836 C796 0.951 . S
H837 C797 0.950 . S
H838 C803 0.949 . S
H839 C804 0.950 . S
H840 C808 0.951 . S
H841 C809 0.950 . S
H842 C813 0.949 . S
H843 C814 0.950 . S
H844 C818 0.950 . S
H845 C820 0.950 . S
H846 C823 0.950 . S
H847 C825 0.950 . S
C848 C849 1.369 . S
C848 C850 1.419 . S
C848 H852 0.930 . S
C849 C848 1.369 . S
C849 C858 1.429 . S
C850 C848 1.419 . S
C850 C851 1.363 . S
C850 H853 0.929 . S
C851 C850 1.363 . S
C851 C857 1.428 . S
H852 C848 0.930 . S
H853 C850 0.929 . S
S854 N855 1.613 . S
S854 N856 1.610 . S
N855 S854 1.613 . S
N855 C858 1.350 . S
N856 S854 1.610 . S
N856 C857 1.351 . S
C857 C851 1.428 . S
C857 N856 1.351 . S
C857 C858 1.434 . S
C858 C849 1.429 . S
C858 N855 1.350 . S
C858 C857 1.434 . S
C859 C860 1.369 . S
C859 C861 1.419 . S
C859 H863 0.930 . S
C860 C859 1.369 . S
C860 C869 1.429 . S
C861 C859 1.419 . S
C861 C862 1.363 . S
C861 H864 0.929 . S
C862 C861 1.363 . S
C862 C868 1.428 . S
H863 C859 0.930 . S
H864 C861 0.929 . S
S865 N866 1.613 . S
S865 N867 1.610 . S
N866 S865 1.613 . S
N866 C869 1.350 . S
N867 S865 1.610 . S
N867 C868 1.351 . S
C868 C862 1.428 . S
C868 N867 1.351 . S
C868 C869 1.434 . S
C869 C860 1.429 . S
C869 N866 1.350 . S
C869 C868 1.434 . S
C870 C871 1.369 . S
C870 C872 1.419 1_554 S
C870 H874 0.930 . S
C871 C870 1.369 . S
C871 C880 1.429 . S
C872 C870 1.419 1_556 S
C872 C873 1.363 . S
C872 H875 0.929 . S
C873 C872 1.363 . S
C873 C879 1.428 . S
H874 C870 0.930 . S
H875 C872 0.929 . S
S876 N877 1.616 1_556 S
S876 N878 1.607 . S
N877 S876 1.616 1_554 S
N877 C880 1.350 . S
N878 S876 1.607 . S
N878 C879 1.351 . S
C879 C873 1.428 . S
C879 N878 1.351 . S
C879 C880 1.434 1_556 S
C880 C871 1.429 . S
C880 N877 1.350 . S
C880 C879 1.434 1_554 S
C881 C882 1.369 . S
C881 C883 1.419 1_556 S
C881 H885 0.930 . S
C882 C881 1.369 . S
C882 C891 1.429 . S
C883 C881 1.419 1_554 S
C883 C884 1.363 . S
C883 H886 0.929 . S
C884 C883 1.363 . S
C884 C890 1.428 . S
H885 C881 0.930 . S
H886 C883 0.929 . S
S887 N888 1.616 1_554 S
S887 N889 1.607 . S
N888 S887 1.616 1_556 S
N888 C891 1.350 . S
N889 S887 1.607 . S
N889 C890 1.351 . S
C890 C884 1.428 . S
C890 N889 1.351 . S
C890 C891 1.434 1_554 S
C891 C882 1.429 . S
C891 N888 1.350 . S
C891 C890 1.434 1_556 S
C892 C893 1.369 . S
C892 C894 1.419 . S
C892 H896 0.930 . S
C893 C892 1.369 . S
C893 C902 1.429 . S
C894 C892 1.419 . S
C894 C895 1.363 . S
C894 H897 0.929 . S
C895 C894 1.363 . S
C895 C901 1.428 . S
H896 C892 0.930 . S
H897 C894 0.929 . S
S898 N899 1.613 . S
S898 N900 1.610 . S
N899 S898 1.613 . S
N899 C902 1.350 . S
N900 S898 1.610 . S
N900 C901 1.351 . S
C901 C895 1.428 . S
C901 N900 1.351 . S
C901 C902 1.434 . S
C902 C893 1.429 . S
C902 N899 1.350 . S
C902 C901 1.434 . S
C903 C904 1.369 . S
C903 C905 1.419 . S
C903 H907 0.930 . S
C904 C903 1.369 . S
C904 C913 1.429 . S
C905 C903 1.419 . S
C905 C906 1.363 . S
C905 H908 0.929 . S
C906 C905 1.363 . S
C906 C912 1.428 . S
H907 C903 0.930 . S
H908 C905 0.929 . S
S909 N910 1.613 . S
S909 N911 1.610 . S
N910 S909 1.613 . S
N910 C913 1.350 . S
N911 S909 1.610 . S
N911 C912 1.351 . S
C912 C906 1.428 . S
C912 N911 1.351 . S
C912 C913 1.434 . S
C913 C904 1.429 . S
C913 N910 1.350 . S
C913 C912 1.434 . S
C914 C915 1.369 . S
C914 C916 1.419 1_556 S
C914 H918 0.930 . S
C915 C914 1.369 . S
C915 C924 1.429 . S
C916 C914 1.419 1_554 S
C916 C917 1.363 . S
C916 H919 0.929 . S
C917 C916 1.363 . S
C917 C923 1.428 . S
H918 C914 0.930 . S
H919 C916 0.929 . S
S920 N921 1.616 1_554 S
S920 N922 1.607 . S
N921 S920 1.616 1_556 S
N921 C924 1.350 . S
N922 S920 1.607 . S
N922 C923 1.351 . S
C923 C917 1.428 . S
C923 N922 1.351 . S
C923 C924 1.434 1_554 S
C924 C915 1.429 . S
C924 N921 1.350 . S
C924 C923 1.434 1_556 S
C925 C926 1.369 . S
C925 C927 1.419 1_554 S
C925 H929 0.930 . S
C926 C925 1.369 . S
C926 C935 1.429 . S
C927 C925 1.419 1_556 S
C927 C928 1.363 . S
C927 H930 0.929 . S
C928 C927 1.363 . S
C928 C934 1.428 . S
H929 C925 0.930 . S
H930 C927 0.929 . S
S931 N932 1.616 1_556 S
S931 N933 1.607 . S
N932 S931 1.616 1_554 S
N932 C935 1.350 . S
N933 S931 1.607 . S
N933 C934 1.351 . S
C934 C928 1.428 . S
C934 N933 1.351 . S
C934 C935 1.434 1_556 S
C935 C926 1.429 . S
C935 N932 1.350 . S
C935 C934 1.434 1_554 S
C936 C937 1.369 . S
C936 C938 1.419 . S
C936 H940 0.930 . S
C937 C936 1.369 . S
C937 C946 1.429 1_565 S
C938 C936 1.419 . S
C938 C939 1.363 1_565 S
C938 H941 0.929 . S
C939 C938 1.363 1_545 S
C939 C945 1.428 . S
H940 C936 0.930 . S
H941 C938 0.929 . S
S942 N943 1.613 . S
S942 N944 1.610 . S
N943 S942 1.613 . S
N943 C946 1.350 . S
N944 S942 1.610 . S
N944 C945 1.351 . S
C945 C939 1.428 . S
C945 N944 1.351 . S
C945 C946 1.434 . S
C946 C937 1.429 1_545 S
C946 N943 1.350 . S
C946 C945 1.434 . S
C947 C948 1.369 1_545 S
C947 C949 1.419 . S
C947 H951 0.930 . S
C948 C947 1.369 1_565 S
C948 C957 1.429 . S
C949 C947 1.419 . S
C949 C950 1.363 . S
C949 H952 0.929 . S
C950 C949 1.363 . S
C950 C956 1.428 1_545 S
H951 C947 0.930 . S
H952 C949 0.929 . S
S953 N954 1.613 . S
S953 N955 1.610 . S
N954 S953 1.613 . S
N954 C957 1.350 . S
N955 S953 1.610 . S
N955 C956 1.351 . S
C956 C950 1.428 1_565 S
C956 N955 1.351 . S
C956 C957 1.434 . S
C957 C948 1.429 . S
C957 N954 1.350 . S
C957 C956 1.434 . S
C958 C959 1.369 . S
C958 C960 1.419 1_565 S
C958 H962 0.930 . S
C959 C958 1.369 . S
C959 C968 1.428 1_565 S
C960 C958 1.419 1_545 S
C960 C961 1.363 . S
C960 H963 0.929 . S
C961 C960 1.363 . S
C961 C967 1.428 . S
H962 C958 0.930 . S
H963 C960 0.929 . S
S964 N965 1.613 . S
S964 N966 1.610 . S
N965 S964 1.613 . S
N965 C968 1.350 . S
N966 S964 1.610 . S
N966 C967 1.351 . S
C967 C961 1.428 . S
C967 N966 1.351 . S
C967 C968 1.435 . S
C968 C959 1.428 1_545 S
C968 N965 1.350 . S
C968 C967 1.435 . S
C969 C970 1.369 1_565 S
C969 C971 1.419 . S
C969 H973 0.930 . S
C970 C969 1.369 1_545 S
C970 C979 1.429 . S
C971 C969 1.419 . S
C971 C972 1.363 . S
C971 H974 0.929 . S
C972 C971 1.363 . S
C972 C978 1.428 1_565 S
H973 C969 0.930 . S
H974 C971 0.929 . S
S975 N976 1.613 . S
S975 N977 1.610 . S
N976 S975 1.613 . S
N976 C979 1.350 . S
N977 S975 1.610 . S
N977 C978 1.351 . S
C978 C972 1.428 1_545 S
C978 N977 1.351 . S
C978 C979 1.434 . S
C979 C970 1.429 . S
C979 N976 1.350 . S
C979 C978 1.434 . S
C980 C981 1.369 . S
C980 C982 1.419 1_655 S
C980 H984 0.930 . S
C981 C980 1.369 . S
C981 C990 1.429 . S
C982 C980 1.419 1_455 S
C982 C983 1.363 . S
C982 H985 0.929 . S
C983 C982 1.363 . S
C983 C989 1.428 . S
H984 C980 0.930 . S
H985 C982 0.929 . S
S986 N987 1.613 . S
S986 N988 1.610 1_655 S
N987 S986 1.613 . S
N987 C990 1.350 . S
N988 S986 1.610 1_455 S
N988 C989 1.351 . S
C989 C983 1.428 . S
C989 N988 1.351 . S
C989 C990 1.434 1_455 S
C990 C981 1.429 . S
C990 N987 1.350 . S
C990 C989 1.434 1_655 S
C991 C992 1.369 . S
C991 C993 1.419 1_455 S
C991 H995 0.930 . S
C992 C991 1.369 . S
C992 C1001 1.429 . S
C993 C991 1.419 1_655 S
C993 C994 1.363 . S
C993 H996 0.929 . S
C994 C993 1.363 . S
C994 C1000 1.428 . S
H995 C991 0.930 . S
H996 C993 0.929 . S
S997 N998 1.613 1_655 S
S997 N999 1.610 . S
N998 S997 1.613 1_455 S
N998 C1001 1.350 . S
N999 S997 1.610 . S
N999 C1000 1.351 . S
C1000 C994 1.428 . S
C1000 N999 1.351 . S
C1000 C1001 1.434 1_655 S
C1001 C992 1.429 . S
C1001 N998 1.350 . S
C1001 C1000 1.434 1_455 S
C1002 C1003 1.369 . S
C1002 C1004 1.419 1_655 S
C1002 H1006 0.930 . S
C1003 C1002 1.369 . S
C1003 C1012 1.429 . S
C1004 C1002 1.419 1_455 S
C1004 C1005 1.363 . S
C1004 H1007 0.929 . S
C1005 C1004 1.363 . S
C1005 C1011 1.428 . S
H1006 C1002 0.930 . S
H1007 C1004 0.929 . S
S1008 N1009 1.613 . S
S1008 N1010 1.610 1_655 S
N1009 S1008 1.613 . S
N1009 C1012 1.350 . S
N1010 S1008 1.610 1_455 S
N1010 C1011 1.351 . S
C1011 C1005 1.428 . S
C1011 N1010 1.351 . S
C1011 C1012 1.434 1_455 S
C1012 C1003 1.429 . S
C1012 N1009 1.350 . S
C1012 C1011 1.434 1_655 S
C1013 C1014 1.369 . S
C1013 C1015 1.419 1_455 S
C1013 H1017 0.930 . S
C1014 C1013 1.369 . S
C1014 C1023 1.429 . S
C1015 C1013 1.419 1_655 S
C1015 C1016 1.363 . S
C1015 H1018 0.929 . S
C1016 C1015 1.363 . S
C1016 C1022 1.428 . S
H1017 C1013 0.930 . S
H1018 C1015 0.929 . S
S1019 N1020 1.613 . S
S1019 N1021 1.610 1_455 S
N1020 S1019 1.613 . S
N1020 C1023 1.350 . S
N1021 S1019 1.610 1_655 S
N1021 C1022 1.351 . S
C1022 C1016 1.428 . S
C1022 N1021 1.351 . S
C1022 C1023 1.434 1_655 S
C1023 C1014 1.429 . S
C1023 N1020 1.350 . S
C1023 C1022 1.434 1_455 S
C1024 C1025 1.369 . S
C1024 C1026 1.419 . S
C1024 H1028 0.930 . S
C1025 C1024 1.369 . S
C1025 C1034 1.429 . S
C1026 C1024 1.419 . S
C1026 C1027 1.363 . S
C1026 H1029 0.929 . S
C1027 C1026 1.363 . S
C1027 C1033 1.428 . S
H1028 C1024 0.930 . S
H1029 C1026 0.929 . S
S1030 N1031 1.613 . S
S1030 N1032 1.610 . S
N1031 S1030 1.613 . S
N1031 C1034 1.350 . S
N1032 S1030 1.610 . S
N1032 C1033 1.351 . S
C1033 C1027 1.428 . S
C1033 N1032 1.351 . S
C1033 C1034 1.434 . S
C1034 C1025 1.429 . S
C1034 N1031 1.350 . S
C1034 C1033 1.434 . S
C1035 C1036 1.369 . S
C1035 C1037 1.419 . S
C1035 H1039 0.930 . S
C1036 C1035 1.369 . S
C1036 C1045 1.429 . S
C1037 C1035 1.419 . S
C1037 C1038 1.363 . S
C1037 H1040 0.929 . S
C1038 C1037 1.363 . S
C1038 C1044 1.428 . S
H1039 C1035 0.930 . S
H1040 C1037 0.929 . S
S1041 N1042 1.613 . S
S1041 N1043 1.610 . S
N1042 S1041 1.613 . S
N1042 C1045 1.350 . S
N1043 S1041 1.610 . S
N1043 C1044 1.351 . S
C1044 C1038 1.428 . S
C1044 N1043 1.351 . S
C1044 C1045 1.434 . S
C1045 C1036 1.429 . S
C1045 N1042 1.350 . S
C1045 C1044 1.434 . S
C1046 C1047 1.369 . S
C1046 C1048 1.419 . S
C1046 H1050 0.930 . S
C1047 C1046 1.369 . S
C1047 C1056 1.429 . S
C1048 C1046 1.419 . S
C1048 C1049 1.363 . S
C1048 H1051 0.929 . S
C1049 C1048 1.363 . S
C1049 C1055 1.428 . S
H1050 C1046 0.930 . S
H1051 C1048 0.929 . S
S1052 N1053 1.613 . S
S1052 N1054 1.610 . S
N1053 S1052 1.613 . S
N1053 C1056 1.350 . S
N1054 S1052 1.610 . S
N1054 C1055 1.351 . S
C1055 C1049 1.428 . S
C1055 N1054 1.351 . S
C1055 C1056 1.434 . S
C1056 C1047 1.429 . S
C1056 N1053 1.350 . S
C1056 C1055 1.434 . S
C1057 C1058 1.369 . S
C1057 C1059 1.419 . S
C1057 H1061 0.930 . S
C1058 C1057 1.369 . S
C1058 C1067 1.429 . S
C1059 C1057 1.419 . S
C1059 C1060 1.363 . S
C1059 H1062 0.929 . S
C1060 C1059 1.363 . S
C1060 C1066 1.428 . S
H1061 C1057 0.930 . S
H1062 C1059 0.929 . S
S1063 N1064 1.613 . S
S1063 N1065 1.610 . S
N1064 S1063 1.613 . S
N1064 C1067 1.350 . S
N1065 S1063 1.610 . S
N1065 C1066 1.351 . S
C1066 C1060 1.428 . S
C1066 N1065 1.351 . S
C1066 C1067 1.434 . S
C1067 C1058 1.429 . S
C1067 N1064 1.350 . S
C1067 C1066 1.434 . S
C1068 C1069 1.369 . S
C1068 C1070 1.419 . S
C1068 H1072 0.930 . S
C1069 C1068 1.369 . S
C1069 C1078 1.429 . S
C1070 C1068 1.419 . S
C1070 C1071 1.363 . S
C1070 H1073 0.929 . S
C1071 C1070 1.363 . S
C1071 C1077 1.428 . S
H1072 C1068 0.930 . S
H1073 C1070 0.929 . S
S1074 N1075 1.613 . S
S1074 N1076 1.610 . S
N1075 S1074 1.613 . S
N1075 C1078 1.350 . S
N1076 S1074 1.610 . S
N1076 C1077 1.351 . S
C1077 C1071 1.428 . S
C1077 N1076 1.351 . S
C1077 C1078 1.434 . S
C1078 C1069 1.429 . S
C1078 N1075 1.350 . S
C1078 C1077 1.434 . S
C1079 C1080 1.369 . S
C1079 C1081 1.419 . S
C1079 H1083 0.930 . S
C1080 C1079 1.369 . S
C1080 C1089 1.429 . S
C1081 C1079 1.419 . S
C1081 C1082 1.363 . S
C1081 H1084 0.929 . S
C1082 C1081 1.363 . S
C1082 C1088 1.428 . S
H1083 C1079 0.930 . S
H1084 C1081 0.929 . S
S1085 N1086 1.613 . S
S1085 N1087 1.610 . S
N1086 S1085 1.613 . S
N1086 C1089 1.350 . S
N1087 S1085 1.610 . S
N1087 C1088 1.351 . S
C1088 C1082 1.428 . S
C1088 N1087 1.351 . S
C1088 C1089 1.434 . S
C1089 C1080 1.429 . S
C1089 N1086 1.350 . S
C1089 C1088 1.434 . S
C1090 C1091 1.369 . S
C1090 C1092 1.419 . S
C1090 H1094 0.930 . S
C1091 C1090 1.369 . S
C1091 C1100 1.429 . S
C1092 C1090 1.419 . S
C1092 C1093 1.363 . S
C1092 H1095 0.929 . S
C1093 C1092 1.363 . S
C1093 C1099 1.428 . S
H1094 C1090 0.930 . S
H1095 C1092 0.929 . S
S1096 N1097 1.613 . S
S1096 N1098 1.610 . S
N1097 S1096 1.613 . S
N1097 C1100 1.350 . S
N1098 S1096 1.610 . S
N1098 C1099 1.351 . S
C1099 C1093 1.428 . S
C1099 N1098 1.351 . S
C1099 C1100 1.434 . S
C1100 C1091 1.429 . S
C1100 N1097 1.350 . S
C1100 C1099 1.434 . S
C1101 C1102 1.369 . S
C1101 C1103 1.419 . S
C1101 H1105 0.930 . S
C1102 C1101 1.369 . S
C1102 C1111 1.429 . S
C1103 C1101 1.419 . S
C1103 C1104 1.363 . S
C1103 H1106 0.929 . S
C1104 C1103 1.363 . S
C1104 C1110 1.428 . S
H1105 C1101 0.930 . S
H1106 C1103 0.929 . S
S1107 N1108 1.613 . S
S1107 N1109 1.610 . S
N1108 S1107 1.613 . S
N1108 C1111 1.350 . S
N1109 S1107 1.610 . S
N1109 C1110 1.351 . S
C1110 C1104 1.428 . S
C1110 N1109 1.351 . S
C1110 C1111 1.434 . S
C1111 C1102 1.429 . S
C1111 N1108 1.350 . S
C1111 C1110 1.434 . S
C1112 C1113 1.369 1_565 S
C1112 C1114 1.419 . S
C1112 H1116 0.930 . S
C1113 C1112 1.369 1_545 S
C1113 C1122 1.429 . S
C1114 C1112 1.419 . S
C1114 C1115 1.363 . S
C1114 H1117 0.929 . S
C1115 C1114 1.363 . S
C1115 C1121 1.428 1_565 S
H1116 C1112 0.930 . S
H1117 C1114 0.929 . S
S1118 N1119 1.613 . S
S1118 N1120 1.610 . S
N1119 S1118 1.613 . S
N1119 C1122 1.350 . S
N1120 S1118 1.610 . S
N1120 C1121 1.351 . S
C1121 C1115 1.428 1_545 S
C1121 N1120 1.351 . S
C1121 C1122 1.434 . S
C1122 C1113 1.429 . S
C1122 N1119 1.350 . S
C1122 C1121 1.434 . S
C1123 C1124 1.369 . S
C1123 C1125 1.419 1_545 S
C1123 H1127 0.930 . S
C1124 C1123 1.369 . S
C1124 C1133 1.429 . S
C1125 C1123 1.419 1_565 S
C1125 C1126 1.363 . S
C1125 H1128 0.929 . S
C1126 C1125 1.363 . S
C1126 C1132 1.428 . S
H1127 C1123 0.930 . S
H1128 C1125 0.929 . S
S1129 N1130 1.613 . S
S1129 N1131 1.633 . S
N1130 S1129 1.613 . S
N1130 C1133 1.350 . S
N1131 S1129 1.633 . S
N1131 C1132 1.349 1_545 S
C1132 C1126 1.428 . S
C1132 N1131 1.349 1_565 S
C1132 C1133 1.434 1_565 S
C1133 C1124 1.429 . S
C1133 N1130 1.350 . S
C1133 C1132 1.434 1_545 S
C1134 C1135 1.369 . S
C1134 C1136 1.419 . S
C1134 H1138 0.930 . S
C1135 C1134 1.369 . S
C1135 C1144 1.429 1_545 S
C1136 C1134 1.419 . S
C1136 C1137 1.363 1_545 S
C1136 H1139 0.929 . S
C1137 C1136 1.363 1_565 S
C1137 C1143 1.428 . S
H1138 C1134 0.930 . S
H1139 C1136 0.929 . S
S1140 N1141 1.613 . S
S1140 N1142 1.610 . S
N1141 S1140 1.613 . S
N1141 C1144 1.350 . S
N1142 S1140 1.610 . S
N1142 C1143 1.351 . S
C1143 C1137 1.428 . S
C1143 N1142 1.351 . S
C1143 C1144 1.434 . S
C1144 C1135 1.429 1_565 S
C1144 N1141 1.350 . S
C1144 C1143 1.434 . S
C1145 C1146 1.369 1_545 S
C1145 C1147 1.419 . S
C1145 H1149 0.930 . S
C1146 C1145 1.369 1_565 S
C1146 C1155 1.429 . S
C1147 C1145 1.419 . S
C1147 C1148 1.363 . S
C1147 H1150 0.929 . S
C1148 C1147 1.363 . S
C1148 C1154 1.428 1_545 S
H1149 C1145 0.930 . S
H1150 C1147 0.929 . S
S1151 N1152 1.613 . S
S1151 N1153 1.610 . S
N1152 S1151 1.613 . S
N1152 C1155 1.350 . S
N1153 S1151 1.610 . S
N1153 C1154 1.351 . S
C1154 C1148 1.428 1_565 S
C1154 N1153 1.351 . S
C1154 C1155 1.434 . S
C1155 C1146 1.429 . S
C1155 N1152 1.350 . S
C1155 C1154 1.434 . S
C1156 C1157 1.369 . S
C1156 C1158 1.419 . S
C1156 H1160 0.930 . S
C1157 C1156 1.369 . S
C1157 C1166 1.429 . S
C1158 C1156 1.419 . S
C1158 C1159 1.363 . S
C1158 H1161 0.929 . S
C1159 C1158 1.363 . S
C1159 C1165 1.428 . S
H1160 C1156 0.930 . S
H1161 C1158 0.929 . S
S1162 N1163 1.613 . S
S1162 N1164 1.610 . S
N1163 S1162 1.613 . S
N1163 C1166 1.350 . S
N1164 S1162 1.610 . S
N1164 C1165 1.351 . S
C1165 C1159 1.428 . S
C1165 N1164 1.351 . S
C1165 C1166 1.434 . S
C1166 C1157 1.429 . S
C1166 N1163 1.350 . S
C1166 C1165 1.434 . S
C1167 C1168 1.369 . S
C1167 C1169 1.419 . S
C1167 H1171 0.930 . S
C1168 C1167 1.369 . S
C1168 C1177 1.429 . S
C1169 C1167 1.419 . S
C1169 C1170 1.363 . S
C1169 H1172 0.929 . S
C1170 C1169 1.363 . S
C1170 C1176 1.428 . S
H1171 C1167 0.930 . S
H1172 C1169 0.929 . S
S1173 N1174 1.613 . S
S1173 N1175 1.610 . S
N1174 S1173 1.613 . S
N1174 C1177 1.350 . S
N1175 S1173 1.610 . S
N1175 C1176 1.351 . S
C1176 C1170 1.428 . S
C1176 N1175 1.351 . S
C1176 C1177 1.434 . S
C1177 C1168 1.429 . S
C1177 N1174 1.350 . S
C1177 C1176 1.434 . S
C1178 C1179 1.369 . S
C1178 C1180 1.419 . S
C1178 H1182 0.930 . S
C1179 C1178 1.369 . S
C1179 C1188 1.429 . S
C1180 C1178 1.419 . S
C1180 C1181 1.363 . S
C1180 H1183 0.929 . S
C1181 C1180 1.363 . S
C1181 C1187 1.428 . S
H1182 C1178 0.930 . S
H1183 C1180 0.929 . S
S1184 N1185 1.613 . S
S1184 N1186 1.610 . S
N1185 S1184 1.613 . S
N1185 C1188 1.350 . S
N1186 S1184 1.610 . S
N1186 C1187 1.351 . S
C1187 C1181 1.428 . S
C1187 N1186 1.351 . S
C1187 C1188 1.434 . S
C1188 C1179 1.429 . S
C1188 N1185 1.350 . S
C1188 C1187 1.434 . S
C1189 C1190 1.369 . S
C1189 C1191 1.419 . S
C1189 H1193 0.930 . S
C1190 C1189 1.369 . S
C1190 C1199 1.429 . S
C1191 C1189 1.419 . S
C1191 C1192 1.363 . S
C1191 H1194 0.929 . S
C1192 C1191 1.363 . S
C1192 C1198 1.428 . S
H1193 C1189 0.930 . S
H1194 C1191 0.929 . S
S1195 N1196 1.613 . S
S1195 N1197 1.610 . S
N1196 S1195 1.613 . S
N1196 C1199 1.350 . S
N1197 S1195 1.610 . S
N1197 C1198 1.351 . S
C1198 C1192 1.428 . S
C1198 N1197 1.351 . S
C1198 C1199 1.434 . S
C1199 C1190 1.429 . S
C1199 N1196 1.350 . S
C1199 C1198 1.434 . S
C849 C39 1.841 . S
C851 C304 1.836 . S
C860 C251 1.836 . S
C862 C92 1.842 . S
C871 C145 1.841 . S
C873 C410 1.836 . S
C882 C357 1.837 . S
C884 C198 1.842 . S
C893 C728 1.836 . S
C895 C463 1.842 . S
C904 C675 1.836 . S
C906 C516 1.842 . S
C915 C834 1.836 . S
C917 C569 1.842 . S
C926 C622 1.842 . S
C928 C781 1.837 . S
C937 C82 1.552 . S
C939 C29 1.551 . S
C948 C135 1.550 . S
C950 C188 1.553 . S
C959 C241 1.555 . S
C961 C294 1.554 . S
C970 C347 1.553 . S
C972 C400 1.555 . S
C981 C453 1.553 . S
C983 C506 1.551 . S
C992 C612 1.552 . S
C994 C559 1.554 . S
C1003 C718 1.557 . S
C1005 C665 1.554 . S
C1014 C771 1.557 . S
C1016 C824 1.556 . S
C1025 C499 1.534 . S
C1027 C22 1.536 . S
C1036 C75 1.536 . S
C1038 C446 1.536 . S
C1047 C605 1.536 . S
C1049 C128 1.536 . S
C1058 C181 1.534 . S
C1060 C552 1.536 . S
C1069 C234 1.532 . S
C1071 C711 1.533 . S
C1080 C658 1.532 . S
C1082 C287 1.533 . S
C1091 C340 1.532 . S
C1093 C817 1.534 . S
C1102 C764 1.534 . S
C1104 C393 1.532 . S
C1113 C38 1.944 . S
C1115 C144 1.937 . S
C1124 C197 1.944 . S
C1126 C91 1.938 . S
C1135 C356 1.948 . S
C1137 C250 1.955 . S
C1146 C409 1.956 . S
C1148 C303 1.949 . S
C1157 C568 1.942 . S
C1159 C462 1.940 . S
C1168 C515 1.943 . S
C1170 C621 1.940 . S
C1179 C780 1.955 . S
C1181 C674 1.949 . S
C1190 C727 1.949 . S
C1192 C833 1.955 . S
