# Generated by pormake.
# Topology sml, (6)-cn, num edge types: 1
# Building blocks:
#     Node 0, Type 0, BuildingBlock: HISSIN_clean_sbu_0, # of connection points: 6
#     Node 1, Type 0, BuildingBlock: HISSIN_clean_sbu_0, # of connection points: 6
#     Node 2, Type 0, BuildingBlock: HISSIN_clean_sbu_0, # of connection points: 6
#     Node 3, Type 0, BuildingBlock: HISSIN_clean_sbu_0, # of connection points: 6
#     Node 4, Type 0, BuildingBlock: HISSIN_clean_sbu_0, # of connection points: 6
#     Node 5, Type 0, BuildingBlock: HISSIN_clean_sbu_0, # of connection points: 6
#     Edge 6, Type (0, 0), BuildingBlock: OJICUG_clean_linker_0, # of connection points: 2
#     Edge 7, Type (0, 0), BuildingBlock: OJICUG_clean_linker_0, # of connection points: 2
#     Edge 8, Type (0, 0), BuildingBlock: OJICUG_clean_linker_0, # of connection points: 2
#     Edge 9, Type (0, 0), BuildingBlock: OJICUG_clean_linker_0, # of connection points: 2
#     Edge 10, Type (0, 0), BuildingBlock: OJICUG_clean_linker_0, # of connection points: 2
#     Edge 11, Type (0, 0), BuildingBlock: OJICUG_clean_linker_0, # of connection points: 2
#     Edge 12, Type (0, 0), BuildingBlock: OJICUG_clean_linker_0, # of connection points: 2
#     Edge 13, Type (0, 0), BuildingBlock: OJICUG_clean_linker_0, # of connection points: 2
#     Edge 14, Type (0, 0), BuildingBlock: OJICUG_clean_linker_0, # of connection points: 2
#     Edge 15, Type (0, 0), BuildingBlock: OJICUG_clean_linker_0, # of connection points: 2
#     Edge 16, Type (0, 0), BuildingBlock: OJICUG_clean_linker_0, # of connection points: 2
#     Edge 17, Type (0, 0), BuildingBlock: OJICUG_clean_linker_0, # of connection points: 2
#     Edge 18, Type (0, 0), BuildingBlock: OJICUG_clean_linker_0, # of connection points: 2
#     Edge 19, Type (0, 0), BuildingBlock: OJICUG_clean_linker_0, # of connection points: 2
#     Edge 20, Type (0, 0), BuildingBlock: OJICUG_clean_linker_0, # of connection points: 2
#     Edge 21, Type (0, 0), BuildingBlock: OJICUG_clean_linker_0, # of connection points: 2
#     Edge 22, Type (0, 0), BuildingBlock: OJICUG_clean_linker_0, # of connection points: 2
#     Edge 23, Type (0, 0), BuildingBlock: OJICUG_clean_linker_0, # of connection points: 2
# Relax obj value: 0.243
# Max RMSD: 0.271
# Mean RMSD: 0.271
data_MOF--net-sml--node1-HISSIN_clean_sbu_0--edge1-OJICUG_clean_linker_0
_symmetry_space_group_name_H-M    P1
_symmetry_Int_Tables_number       1
_symmetry_cell_setting            triclinic
loop_
_symmetry_equiv_pos_as_xyz
'x, y, z'
_cell_length_a     22.46327
_cell_length_b     22.39734
_cell_length_c     19.985605
_cell_angle_alpha  90.18093
_cell_angle_beta   90.118005
_cell_angle_gamma 120.01843
loop_
_atom_site_label
_atom_site_type_symbol
_atom_site_fract_x
_atom_site_fract_y
_atom_site_fract_z
_atom_type_partial_charge
Eu0 Eu 0.16237 0.33572 0.22633 0.0
Eu1 Eu 0.07829 0.35883 0.09988 0.0
C2 C 0.11366 0.44691 0.23554 0.0
C3 C 0.19082 0.32742 0.40617 0.0
C4 C 0.17525 0.37979 0.41953 0.0
C5 C 0.15018 0.28102 0.51705 0.0
C6 C 0.14701 0.38249 0.48071 0.0
C7 C 0.17843 0.27828 0.45553 0.0
C8 C 0.13361 0.33286 0.53002 0.0
C9 C 0.21124 0.31932 0.33823 0.0
O10 O 0.18633 0.40178 0.06424 0.0
O11 O 0.24344 0.42347 0.16537 0.0
C12 C 0.243 0.43086 0.10007 0.0
O13 O 0.1803 0.28197 0.142 0.0
O14 O 0.06584 0.42135 1.02355 0.0
O15 O -0.01487 0.31536 1.03918 0.0
O16 O 0.09478 0.27046 0.0687 0.0
C17 C 0.14267 0.25625 0.08778 0.0
O18 O 0.05509 0.24734 0.21514 0.0
O19 O 0.00631 0.3095 0.18542 0.0
O20 O 0.11419 0.45121 0.16977 0.0
O21 O 0.16367 0.26781 0.30392 0.0
O22 O 0.24276 0.37553 0.30273 0.0
O23 O 0.11463 0.39557 0.26536 0.0
C24 C 0.00876 0.35593 0.92817 0.0
C25 C 0.01812 0.30179 0.90551 0.0
C26 C 0.01613 0.39456 0.81351 0.0
C27 C 0.02744 0.29471 0.83764 0.0
C28 C 0.00621 0.40131 0.8816 0.0
C29 C 0.02838 0.34205 0.7911 0.0
C30 C 0.00904 0.36931 1.0003 0.0
C31 C 0.00504 0.26032 0.2214 0.0
H32 H 0.18327 0.41787 0.38204 0.0
H33 H 0.14123 0.24252 0.55442 0.0
H34 H 0.13405 0.42251 0.48868 0.0
H35 H 0.18915 0.23694 0.44592 0.0
H36 H 0.02111 0.26654 0.94052 0.0
H37 H 0.01591 0.43138 0.77863 0.0
H38 H 0.03773 0.25435 0.82219 0.0
H39 H -0.00082 0.44348 0.89817 0.0
Eu40 Eu 0.68682 0.1477 0.46703 0.0
Eu41 Eu 0.80014 0.25399 0.58704 0.0
C42 C 0.78787 0.31653 0.44915 0.0
C43 C 0.61976 0.10448 0.29197 0.0
C44 C 0.63114 0.16899 0.26971 0.0
C45 C 0.64716 0.08209 0.18005 0.0
C46 C 0.65134 0.19016 0.2037 0.0
C47 C 0.62618 0.06059 0.24586 0.0
C48 C 0.66158 0.14781 0.15864 0.0
C49 C 0.6086 0.08573 0.36398 0.0
O50 O 0.70107 0.2534 0.57591 0.0
O51 O 0.62666 0.14174 0.5591 0.0
C52 C 0.64496 0.198 0.59345 0.0
O53 O 0.69506 0.07369 0.53686 0.0
O54 O 0.81832 0.33281 0.66207 0.0
O55 O 0.87965 0.28293 0.66346 0.0
O56 O 0.74387 0.14696 0.62741 0.0
C57 C 0.71386 0.08531 0.60014 0.0
O58 O 0.79102 0.17264 0.43295 0.0
O59 O 0.86855 0.23715 0.51741 0.0
O60 O 0.82855 0.3249 0.5 0.0
O61 O 0.65031 0.0673 0.39014 0.0
O62 O 0.59875 0.12642 0.40387 0.0
O63 O 0.72931 0.25917 0.4376 0.0
C64 C 0.83919 0.29968 0.76802 0.0
C65 C 0.83234 0.23817 0.79379 0.0
C66 C 0.79352 0.31606 0.8728 0.0
C67 C 0.80549 0.21539 0.85773 0.0
C68 C 0.8204 0.33884 0.80865 0.0
C69 C 0.78482 0.25348 0.89794 0.0
C70 C 0.85942 0.31962 0.69724 0.0
C71 C 0.85284 0.20471 0.45942 0.0
H72 H 0.62668 0.20425 0.30378 0.0
H73 H 0.65353 0.04782 0.14623 0.0
H74 H 0.66214 0.2411 0.1889 0.0
H75 H 0.61759 0.01062 0.26149 0.0
H76 H 0.84586 0.20631 0.7639 0.0
H77 H 0.77929 0.34742 0.90257 0.0
H78 H 0.7989 0.16659 0.87469 0.0
H79 H 0.825 0.38638 0.79013 0.0
Eu80 Eu 0.54433 0.80107 0.92608 0.0
Eu81 Eu 0.54328 0.69219 0.8076 0.0
C82 C 0.46485 0.63003 0.94499 0.0
C83 C 0.55069 0.85048 0.1036 0.0
C84 C 0.57464 0.80471 0.11764 0.0
C85 C 0.52867 0.85436 0.22219 0.0
C86 C 0.57651 0.78465 0.1832 0.0
C87 C 0.52773 0.87532 0.15625 0.0
C88 C 0.55348 0.80906 0.23619 0.0
C89 C 0.54687 0.86844 1.03348 0.0
O90 O 0.44409 0.69248 0.81103 0.0
O91 O 0.4769 0.80198 0.84271 0.0
C92 C 0.43996 0.74817 0.8044 0.0
O93 O 0.59082 0.87267 0.84095 0.0
O94 O 0.48599 0.61733 0.72885 0.0
O95 O 0.59596 0.65876 0.73838 0.0
O96 O 0.60561 0.80063 0.76783 0.0
C97 C 0.6137 0.861 0.78492 0.0
O98 O 0.64333 0.79948 0.92358 0.0
O99 O 0.60705 0.68919 0.89239 0.0
O100 O 0.48447 0.61646 0.88781 0.0
O101 O 0.60138 0.88433 0.99764 0.0
O102 O 0.49004 0.82608 1.00193 0.0
O103 O 0.48073 0.69247 0.96443 0.0
C104 C 0.54951 0.64951 0.62916 0.0
C105 C 0.60605 0.71259 0.6091 0.0
C106 C 0.49779 0.63842 0.51935 0.0
C107 C 0.60819 0.73842 0.54502 0.0
C108 C 0.49595 0.61222 0.58328 0.0
C109 C 0.55351 0.70227 0.49988 0.0
C110 C 0.54188 0.62663 0.6996 0.0
C111 C 0.64512 0.74253 0.93066 0.0
H112 H 0.59131 0.78385 0.07761 0.0
H113 H 0.51062 0.87392 0.26223 0.0
H114 H 0.5946 0.74875 0.19238 0.0
H115 H 0.50872 0.91036 0.14637 0.0
H116 H 0.64785 0.74314 0.64344 0.0
H117 H 0.45536 0.60894 0.48526 0.0
H118 H 0.65163 0.78792 0.53163 0.0
H119 H 0.45167 0.5637 0.5976 0.0
Eu120 Eu 0.8073 0.63837 0.18708 0.0
Eu121 Eu 0.69719 0.60258 0.31217 0.0
C122 C 0.65201 0.5189 0.17345 0.0
C123 C 0.85605 0.64905 1.00948 0.0
C124 C 0.79122 0.59163 0.99551 0.0
C125 C 0.86443 0.68533 0.89415 0.0
C126 C 0.76278 0.58162 0.93161 0.0
C127 C 0.8929 0.69532 0.95826 0.0
C128 C 0.79856 0.62903 0.88058 0.0
C129 C 0.88032 0.66529 0.07891 0.0
O130 O 0.76973 0.56665 0.34345 0.0
O131 O 0.79602 0.54395 0.23907 0.0
C132 C 0.79243 0.53554 0.30423 0.0
O133 O 0.87524 0.69046 0.27437 0.0
O134 O 0.62597 0.53041 0.38556 0.0
O135 O 0.63914 0.63299 0.37701 0.0
O136 O 0.7971 0.69591 0.34603 0.0
C137 C 0.86048 0.71394 0.32839 0.0
O138 O 0.77929 0.71999 0.20461 0.0
O139 O 0.66859 0.65059 0.22932 0.0
O140 O 0.64822 0.51285 0.23902 0.0
O141 O 0.86784 0.70999 0.10805 0.0
O142 O 0.86558 0.61261 0.11716 0.0
O143 O 0.70184 0.57313 0.14443 0.0
C144 C 0.63354 0.58895 0.485 0.0
C145 C 0.69583 0.64636 0.5053 0.0
C146 C 0.61551 0.54507 0.59844 0.0
C147 C 0.71807 0.65285 0.57127 0.0
C148 C 0.59315 0.53862 0.53204 0.0
C149 C 0.67863 0.60202 0.61848 0.0
C150 C 0.61607 0.57749 0.41357 0.0
C151 C 0.71523 0.70276 0.19545 0.0
H152 H 0.76139 0.55569 1.03456 0.0
H153 H 0.89345 0.72222 0.85545 0.0
H154 H 0.71167 0.53827 0.9229 0.0
H155 H 0.9426 0.74027 0.96838 0.0
H156 H 0.7287 0.68525 0.46968 0.0
H157 H 0.58368 0.50542 0.6339 0.0
H158 H 0.7675 0.69661 0.58463 0.0
H159 H 0.54535 0.49354 0.51705 0.0
Eu160 Eu 0.15877 0.70965 0.57204 0.0
Eu161 Eu 0.25795 0.82372 0.454 0.0
C162 C 0.31414 0.76263 0.55916 0.0
C163 C 0.13287 0.6525 0.74842 0.0
C164 C 0.20273 0.69974 0.7603 0.0
C165 C 0.11153 0.65274 0.86774 0.0
C166 C 0.22685 0.72337 0.82505 0.0
C167 C 0.08757 0.62859 0.80275 0.0
C168 C 0.18144 0.70129 0.87972 0.0
C169 C 0.10688 0.63492 0.67893 0.0
O170 O 0.21463 0.71564 0.41349 0.0
O171 O 0.11807 0.64844 0.47689 0.0
C172 C 0.15484 0.65944 0.42229 0.0
O173 O 0.09262 0.75076 0.5325 0.0
O174 O 0.34129 0.85082 0.38291 0.0
O175 O 0.28612 0.90729 0.3826 0.0
O176 O 0.15039 0.80123 0.43466 0.0
C177 C 0.097 0.77993 0.47434 0.0
O178 O 0.22653 0.80978 0.62431 0.0
O179 O 0.26245 0.89125 0.5406 0.0
O180 O 0.32814 0.82147 0.53291 0.0
O181 O 0.08423 0.67345 0.65365 0.0
O182 O 0.1457 0.62538 0.63676 0.0
O183 O 0.25493 0.70857 0.54503 0.0
C184 C 0.30792 0.87158 0.27829 0.0
C185 C 0.23843 0.83049 0.25999 0.0
C186 C 0.34035 0.86047 0.16465 0.0
C187 C 0.22007 0.80416 0.19504 0.0
C188 C 0.35876 0.88607 0.23022 0.0
C189 C 0.27072 0.81833 0.14666 0.0
C190 C 0.32647 0.89155 0.34914 0.0
C191 C 0.2536 0.87384 0.60442 0.0
H192 H 0.2385 0.72002 0.71912 0.0
H193 H 0.07465 0.63511 0.90814 0.0
H194 H 0.28111 0.75965 0.83197 0.0
H195 H 0.0333 0.59297 0.79468 0.0
H196 H 0.19812 0.8171 0.29647 0.0
H197 H 0.38054 0.87175 0.12863 0.0
H198 H 0.16604 0.77233 0.18276 0.0
H199 H 0.41263 0.91574 0.24386 0.0
Eu200 Eu 0.44008 0.24692 0.84184 0.0
Eu201 Eu 0.42348 0.13344 0.9612 0.0
C202 C 0.53995 0.19066 0.85624 0.0
C203 C 0.47419 0.30361 0.66582 0.0
C204 C 0.48681 0.24888 0.65576 0.0
C205 C 0.46444 0.31114 0.54529 0.0
C206 C 0.48753 0.2249 0.5914 0.0
C207 C 0.46385 0.33523 0.6101 0.0
C208 C 0.47511 0.25475 0.53521 0.0
C209 C 0.46498 0.32178 0.73458 0.0
O210 O 0.49066 0.24216 1.0001 0.0
O211 O 0.46152 0.30919 0.93567 0.0
C212 C 0.4881 0.29894 0.99009 0.0
O213 O 0.33465 0.21134 0.8838 0.0
O214 O 0.47882 0.10426 1.0316 0.0
O215 O 0.36741 0.05115 1.03348 0.0
O216 O 0.3416 0.16018 0.98158 0.0
C217 C 0.31054 0.18344 0.9426 0.0
O218 O 0.40409 0.14545 0.79128 0.0
O219 O 0.35696 0.0657 0.87609 0.0
O220 O 0.49403 0.13253 0.88259 0.0
O221 O 0.40345 0.28352 0.75887 0.0
O222 O 0.51256 0.33067 0.77764 0.0
O223 O 0.53615 0.2456 0.86997 0.0
C224 C 0.4267 0.08608 0.13641 0.0
C225 C 0.41252 0.13883 0.15215 0.0
C226 C 0.45705 0.08396 0.25288 0.0
C227 C 0.42173 0.16484 0.21721 0.0
C228 C 0.44946 0.05907 0.18704 0.0
C229 C 0.44476 0.13829 0.26832 0.0
C230 C 0.42351 0.06494 0.06601 0.0
C231 C 0.36503 0.08209 0.81204 0.0
H232 H 0.49421 0.22324 0.69801 0.0
H233 H 0.45398 0.33506 0.50338 0.0
H234 H 0.4969 0.1822 0.58584 0.0
H235 H 0.45331 0.37709 0.61675 0.0
H236 H 0.39574 0.16114 0.11362 0.0
H237 H 0.47456 0.06223 0.29121 0.0
H238 H 0.41072 0.20586 0.22749 0.0
H239 H 0.46263 0.01987 0.17535 0.0
C240 C 0.22587 0.15669 1.03407 0.0
C241 C 0.25112 0.186 0.97095 0.0
H242 H 0.16975 0.15567 0.12072 0.0
C243 C 0.22549 0.22526 0.94063 0.0
H244 H 0.24329 0.12499 0.05843 0.0
C245 C 0.18172 0.2414 0.97618 0.0
C246 C 0.16382 0.21889 0.04238 0.0
H247 H 0.24338 0.24799 0.8918 0.0
H248 H 0.1678 0.27706 0.95451 0.0
C249 C 0.18315 0.17358 0.06968 0.0
C250 C 0.96097 0.29673 0.31678 0.0
C251 C -0.03033 0.24532 0.28583 0.0
H252 H 0.92302 0.32564 0.40102 0.0
C253 C 0.94954 0.18319 0.31944 0.0
H254 H -0.0239 0.34522 0.29218 0.0
C255 C 0.91638 0.171 0.38124 0.0
C256 C 0.90715 0.22252 0.41117 0.0
H257 H 0.95663 0.14325 0.29664 0.0
H258 H 0.89514 0.12062 0.40403 0.0
C259 C 0.93189 0.28619 0.37973 0.0
C260 C 0.70236 0.03985 0.71534 0.0
C261 C 0.69425 0.0271 0.64596 0.0
H262 H 0.6834 -0.00284 0.81341 0.0
C263 C 0.66429 0.95894 0.6224 0.0
H264 H 0.72531 0.09166 0.73554 0.0
C265 C 0.64073 0.90446 0.66775 0.0
C266 C 0.64617 0.91764 0.73698 0.0
H267 H 0.65759 0.9476 0.56929 0.0
H268 H 0.61563 0.85208 0.64871 0.0
C269 C 0.6782 -0.0143 0.76028 0.0
C270 C 0.72549 0.78453 1.02803 0.0
C271 C 0.66774 0.73121 0.99564 0.0
H272 H 0.7863 0.81711 0.11791 0.0
C273 C 0.6242 0.67072 1.03057 0.0
H274 H 0.75881 0.83225 1.00221 0.0
C275 C 0.63715 0.66405 0.09724 0.0
C276 C 0.69591 0.71628 0.12941 0.0
H277 H 0.57854 0.62938 1.00725 0.0
H278 H 0.60209 0.61676 0.12277 0.0
C279 C 0.74034 0.77648 0.09422 0.0
C280 C 0.04111 0.81336 0.38606 0.0
C281 C 0.0361 0.78065 0.44741 0.0
H282 H -0.01277 0.81846 0.30001 0.0
C283 C -0.02903 0.74056 0.47663 0.0
H284 H 0.09053 0.84589 0.36283 0.0
C285 C 0.91161 0.72615 0.44087 0.0
C286 C 0.91716 0.7514 0.37566 0.0
H287 H 0.96545 0.71533 0.52422 0.0
H288 H 0.86187 0.68921 0.46106 0.0
C289 C -0.01796 0.7984 0.35027 0.0
C290 C 0.34215 0.04735 0.69156 0.0
C291 C 0.33384 0.02823 0.75962 0.0
H292 H 0.32348 0.01412 0.58933 0.0
C293 C 0.2974 0.95812 0.77596 0.0
H294 H 0.36984 0.101 0.6769 0.0
C295 C 0.27063 0.90826 0.72535 0.0
C296 C 0.27971 0.92744 0.65729 0.0
H297 H 0.29019 0.94164 0.82767 0.0
H298 H 0.2433 0.85454 0.73988 0.0
C299 C 0.31543 -0.00244 0.64102 0.0
C300 C 0.0982 0.40123 0.68985 0.0
C301 C 0.04899 0.34021 0.72102 0.0
H302 H 0.16453 0.44659 0.60594 0.0
C303 C 0.02494 0.27706 0.68724 0.0
H304 H 0.11851 0.45059 0.71499 0.0
C305 C 0.05148 0.27472 0.62473 0.0
C306 C 0.10268 0.33548 0.59475 0.0
H307 H -0.01372 0.22931 0.70964 0.0
H308 H 0.03218 0.22527 0.60005 0.0
C309 C 0.1248 0.39888 0.62745 0.0
C310 C 0.74639 0.16584 0.06821 0.0
C311 C 0.69175 0.17394 0.09129 0.0
H312 H 0.81987 0.18628 0.99099 0.0
C313 C 0.6683 0.20922 0.0507 0.0
H314 H 0.76662 0.14019 0.09884 0.0
C315 C 0.69841 0.23514 0.98821 0.0
C316 C 0.75327 0.22712 0.96509 0.0
H317 H 0.62608 0.21603 0.06692 0.0
H318 H 0.6779 0.26053 0.95761 0.0
C319 C 0.77694 0.19234 1.00622 0.0
C320 C 0.61362 0.76066 0.39368 0.0
C321 C 0.55407 0.73178 0.43322 0.0
H322 H 0.65985 0.80732 0.30025 0.0
C323 C 0.49518 0.73159 0.40875 0.0
H324 H 0.65982 0.76179 0.41126 0.0
C325 C 0.4956 0.75882 0.34566 0.0
C326 C 0.55453 0.7857 0.30538 0.0
H327 H 0.44886 0.71063 0.43856 0.0
H328 H 0.44926 0.75713 0.32762 0.0
C329 C 0.61361 0.78663 0.33018 0.0
C330 C 0.72978 0.55642 0.78298 0.0
C331 C 0.766 0.62133 0.81428 0.0
H332 H 0.674 0.49941 0.69627 0.0
C333 C 0.77014 0.679 0.78234 0.0
H334 H 0.72602 0.51111 0.8064 0.0
C335 C 0.7402 0.67231 0.7196 0.0
C336 C 0.70534 0.60775 0.68744 0.0
H337 H 0.79617 0.72934 0.80606 0.0
H338 H 0.74423 0.71778 0.69632 0.0
C339 C 0.69973 0.54969 0.72011 0.0
C340 C 0.17831 0.6899 1.00565 0.0
C341 C 0.20645 0.73065 0.94824 0.0
H342 H 0.17688 0.68532 0.11278 0.0
C343 C 0.25781 0.80028 0.95697 0.0
H344 H 0.13981 0.63586 1.00125 0.0
C345 C 0.27976 0.82837 1.02113 0.0
C346 C 0.25035 0.78789 0.07827 0.0
H347 H 0.28002 0.83385 0.91429 0.0
H348 H 0.31837 0.88237 1.02604 0.0
C349 C 0.19975 0.7182 0.06973 0.0
C350 C 0.49533 0.2681 0.41061 0.0
C351 C 0.47049 0.22517 0.46698 0.0
H352 H 0.5078 0.27449 0.30417 0.0
C353 C 0.43983 0.1533 0.4575 0.0
H354 H 0.52048 0.32361 0.41594 0.0
C355 C 0.43308 0.12517 0.39339 0.0
C356 C 0.45621 0.16808 0.33703 0.0
H357 H 0.41912 0.11837 0.49944 0.0
H358 H 0.40772 0.06965 0.38776 0.0
C359 C 0.48821 0.23991 0.3465 0.0
C360 C 0.14365 0.5692 0.25835 0.0
C361 C 0.11361 0.50041 0.27909 0.0
H362 H 0.18084 0.67407 0.28828 0.0
C363 C 0.09018 0.4838 0.34552 0.0
H364 H 0.16252 0.58359 0.20774 0.0
C365 C 0.0992 0.53503 0.39105 0.0
C366 C 0.13361 0.60428 0.37166 0.0
H367 H 0.06729 0.43136 0.36341 0.0
H368 H 0.08314 0.5208 0.44241 0.0
C369 C 0.15434 0.62086 0.30454 0.0
C370 C 0.6456 0.2551 0.70054 0.0
C371 C 0.61885 0.19467 0.66163 0.0
H372 H 0.64354 0.3005 0.79398 0.0
C373 C 0.57116 0.13137 0.69019 0.0
H374 H 0.68292 0.30465 0.68023 0.0
C375 C 0.54894 0.12902 0.75584 0.0
C376 C 0.57387 0.19001 0.79367 0.0
H377 H 0.55052 0.08383 0.66173 0.0
H378 H 0.50995 0.07995 0.77569 0.0
C379 C 0.62361 0.25273 0.76597 0.0
C380 C 0.35955 0.53534 0.09509 0.0
C381 C 0.30747 0.47532 0.06467 0.0
H382 H 0.4515 0.63219 0.08022 0.0
C383 C 0.31402 0.46157 0.99726 0.0
H384 H 0.35573 0.54678 0.14709 0.0
C385 C 0.36911 0.50969 0.95931 0.0
C386 C 0.41761 0.57276 0.98801 0.0
H387 H 0.27488 0.41491 0.97307 0.0
H388 H 0.3708 0.49964 0.90648 0.0
C389 C 0.41405 0.58412 0.0568 0.0
C390 C 0.83344 0.44228 0.43541 0.0
C391 C 0.80335 0.37609 0.40708 0.0
H392 H 0.85316 0.54564 0.42405 0.0
C393 C 0.78022 0.36588 0.34039 0.0
H394 H 0.85166 0.45135 0.48671 0.0
C395 C 0.78245 0.42008 0.30412 0.0
C396 C 0.80641 0.48449 0.33481 0.0
H397 H 0.75748 0.31525 0.31739 0.0
H398 H 0.76058 0.41014 0.25418 0.0
C399 C 0.83414 0.496 0.39973 0.0
C400 C 0.39127 0.82104 0.65749 0.0
C401 C 0.35022 0.76082 0.61993 0.0
H402 H 0.45055 0.86425 0.74701 0.0
C403 C 0.3363 0.69688 0.64538 0.0
H404 H 0.40176 0.87097 0.63957 0.0
C405 C 0.36255 0.69293 0.70717 0.0
C406 C 0.40389 0.75289 0.74483 0.0
H407 H 0.30419 0.64957 0.61791 0.0
H408 H 0.35118 0.64265 0.72489 0.0
C409 C 0.41787 0.81708 0.71962 0.0
C410 C 0.56958 0.39407 0.15125 0.0
C411 C 0.60215 0.46282 0.12991 0.0
H412 H 0.50854 0.28791 0.12289 0.0
C413 C 0.59208 0.47739 0.06378 0.0
H414 H 0.57686 0.38139 0.20176 0.0
C415 C 0.55197 0.42416 1.01914 0.0
C416 C 0.52266 0.35528 1.03931 0.0
H417 H 0.61683 0.52994 0.04583 0.0
H418 H 0.5468 0.43694 0.96802 0.0
C419 C 0.53083 0.34066 0.10602 0.0
loop_
_geom_bond_atom_site_label_1
_geom_bond_atom_site_label_2
_geom_bond_distance
_geom_bond_site_symmetry_2
_ccdc_geom_bond_type
Eu0 C9 2.828 . S
Eu0 O11 2.392 . S
Eu0 O13 2.418 . S
Eu0 O18 2.373 . S
Eu0 O21 2.488 . S
Eu0 O22 2.471 . S
Eu0 O23 2.349 . S
Eu1 O10 2.373 . S
Eu1 O14 2.488 1_554 S
Eu1 O15 2.471 1_554 S
Eu1 O16 2.349 . S
Eu1 O19 2.392 . S
Eu1 O20 2.418 . S
Eu1 C30 2.828 1_554 S
C2 O20 1.244 . S
C2 O23 1.265 . S
C3 C4 1.379 . S
C3 C7 1.373 . S
C3 C9 1.505 . S
C4 C3 1.379 . S
C4 C6 1.369 . S
C4 H32 0.930 . S
C5 C7 1.383 . S
C5 C8 1.382 . S
C5 H33 0.930 . S
C6 C4 1.369 . S
C6 C8 1.392 . S
C6 H34 0.930 . S
C7 C3 1.373 . S
C7 C5 1.383 . S
C7 H35 0.931 . S
C8 C5 1.382 . S
C8 C6 1.392 . S
C9 Eu0 2.828 . S
C9 C3 1.505 . S
C9 O21 1.249 . S
C9 O22 1.244 . S
O10 Eu1 2.373 . S
O10 C12 1.258 . S
O11 Eu0 2.392 . S
O11 C12 1.242 . S
C12 O10 1.258 . S
C12 O11 1.242 . S
O13 Eu0 2.418 . S
O13 C17 1.244 . S
O14 Eu1 2.488 1_556 S
O14 C30 1.249 . S
O15 Eu1 2.471 1_556 S
O15 C30 1.244 . S
O16 Eu1 2.349 . S
O16 C17 1.265 . S
C17 O13 1.244 . S
C17 O16 1.265 . S
O18 Eu0 2.373 . S
O18 C31 1.258 . S
O19 Eu1 2.392 . S
O19 C31 1.242 . S
O20 Eu1 2.418 . S
O20 C2 1.244 . S
O21 Eu0 2.488 . S
O21 C9 1.249 . S
O22 Eu0 2.471 . S
O22 C9 1.244 . S
O23 Eu0 2.349 . S
O23 C2 1.265 . S
C24 C25 1.379 . S
C24 C28 1.373 . S
C24 C30 1.505 . S
C25 C24 1.379 . S
C25 C27 1.369 . S
C25 H36 0.930 . S
C26 C28 1.383 . S
C26 C29 1.382 . S
C26 H37 0.930 . S
C27 C25 1.369 . S
C27 C29 1.392 . S
C27 H38 0.930 . S
C28 C24 1.373 . S
C28 C26 1.383 . S
C28 H39 0.931 . S
C29 C26 1.382 . S
C29 C27 1.392 . S
C30 Eu1 2.828 1_556 S
C30 O14 1.249 . S
C30 O15 1.244 . S
C30 C24 1.505 . S
C31 O18 1.258 . S
C31 O19 1.242 . S
H32 C4 0.930 . S
H33 C5 0.930 . S
H34 C6 0.930 . S
H35 C7 0.931 . S
H36 C25 0.930 . S
H37 C26 0.930 . S
H38 C27 0.930 . S
H39 C28 0.931 . S
Eu40 C49 2.828 . S
Eu40 O51 2.392 . S
Eu40 O53 2.418 . S
Eu40 O58 2.373 . S
Eu40 O61 2.488 . S
Eu40 O62 2.471 . S
Eu40 O63 2.349 . S
Eu41 O50 2.373 . S
Eu41 O54 2.488 . S
Eu41 O55 2.471 . S
Eu41 O56 2.349 . S
Eu41 O59 2.392 . S
Eu41 O60 2.418 . S
Eu41 C70 2.828 . S
C42 O60 1.244 . S
C42 O63 1.265 . S
C43 C44 1.379 . S
C43 C47 1.373 . S
C43 C49 1.505 . S
C44 C43 1.379 . S
C44 C46 1.369 . S
C44 H72 0.930 . S
C45 C47 1.383 . S
C45 C48 1.382 . S
C45 H73 0.930 . S
C46 C44 1.369 . S
C46 C48 1.392 . S
C46 H74 0.930 . S
C47 C43 1.373 . S
C47 C45 1.383 . S
C47 H75 0.931 . S
C48 C45 1.382 . S
C48 C46 1.392 . S
C49 Eu40 2.828 . S
C49 C43 1.505 . S
C49 O61 1.249 . S
C49 O62 1.244 . S
O50 Eu41 2.373 . S
O50 C52 1.258 . S
O51 Eu40 2.392 . S
O51 C52 1.242 . S
C52 O50 1.258 . S
C52 O51 1.242 . S
O53 Eu40 2.418 . S
O53 C57 1.244 . S
O54 Eu41 2.488 . S
O54 C70 1.249 . S
O55 Eu41 2.471 . S
O55 C70 1.244 . S
O56 Eu41 2.349 . S
O56 C57 1.265 . S
C57 O53 1.244 . S
C57 O56 1.265 . S
O58 Eu40 2.373 . S
O58 C71 1.258 . S
O59 Eu41 2.392 . S
O59 C71 1.242 . S
O60 Eu41 2.418 . S
O60 C42 1.244 . S
O61 Eu40 2.488 . S
O61 C49 1.249 . S
O62 Eu40 2.471 . S
O62 C49 1.244 . S
O63 Eu40 2.349 . S
O63 C42 1.265 . S
C64 C65 1.379 . S
C64 C68 1.373 . S
C64 C70 1.505 . S
C65 C64 1.379 . S
C65 C67 1.369 . S
C65 H76 0.930 . S
C66 C68 1.383 . S
C66 C69 1.382 . S
C66 H77 0.930 . S
C67 C65 1.369 . S
C67 C69 1.392 . S
C67 H78 0.930 . S
C68 C64 1.373 . S
C68 C66 1.383 . S
C68 H79 0.931 . S
C69 C66 1.382 . S
C69 C67 1.392 . S
C70 Eu41 2.828 . S
C70 O54 1.249 . S
C70 O55 1.244 . S
C70 C64 1.505 . S
C71 O58 1.258 . S
C71 O59 1.242 . S
H72 C44 0.930 . S
H73 C45 0.930 . S
H74 C46 0.930 . S
H75 C47 0.931 . S
H76 C65 0.930 . S
H77 C66 0.930 . S
H78 C67 0.930 . S
H79 C68 0.931 . S
Eu80 C89 2.828 . S
Eu80 O91 2.392 . S
Eu80 O93 2.418 . S
Eu80 O98 2.373 . S
Eu80 O101 2.488 . S
Eu80 O102 2.471 . S
Eu80 O103 2.349 . S
Eu81 O90 2.373 . S
Eu81 O94 2.488 . S
Eu81 O95 2.471 . S
Eu81 O96 2.349 . S
Eu81 O99 2.392 . S
Eu81 O100 2.418 . S
Eu81 C110 2.828 . S
C82 O100 1.244 . S
C82 O103 1.265 . S
C83 C84 1.379 . S
C83 C87 1.373 . S
C83 C89 1.505 1_554 S
C84 C83 1.379 . S
C84 C86 1.369 . S
C84 H112 0.930 . S
C85 C87 1.383 . S
C85 C88 1.382 . S
C85 H113 0.930 . S
C86 C84 1.369 . S
C86 C88 1.392 . S
C86 H114 0.930 . S
C87 C83 1.373 . S
C87 C85 1.383 . S
C87 H115 0.931 . S
C88 C85 1.382 . S
C88 C86 1.392 . S
C89 Eu80 2.828 . S
C89 C83 1.505 1_556 S
C89 O101 1.249 . S
C89 O102 1.244 . S
O90 Eu81 2.373 . S
O90 C92 1.258 . S
O91 Eu80 2.392 . S
O91 C92 1.242 . S
C92 O90 1.258 . S
C92 O91 1.242 . S
O93 Eu80 2.418 . S
O93 C97 1.244 . S
O94 Eu81 2.488 . S
O94 C110 1.249 . S
O95 Eu81 2.471 . S
O95 C110 1.244 . S
O96 Eu81 2.349 . S
O96 C97 1.265 . S
C97 O93 1.244 . S
C97 O96 1.265 . S
O98 Eu80 2.373 . S
O98 C111 1.258 . S
O99 Eu81 2.392 . S
O99 C111 1.242 . S
O100 Eu81 2.418 . S
O100 C82 1.244 . S
O101 Eu80 2.488 . S
O101 C89 1.249 . S
O102 Eu80 2.471 . S
O102 C89 1.244 . S
O103 Eu80 2.349 . S
O103 C82 1.265 . S
C104 C105 1.379 . S
C104 C108 1.373 . S
C104 C110 1.505 . S
C105 C104 1.379 . S
C105 C107 1.369 . S
C105 H116 0.930 . S
C106 C108 1.383 . S
C106 C109 1.382 . S
C106 H117 0.930 . S
C107 C105 1.369 . S
C107 C109 1.392 . S
C107 H118 0.930 . S
C108 C104 1.373 . S
C108 C106 1.383 . S
C108 H119 0.931 . S
C109 C106 1.382 . S
C109 C107 1.392 . S
C110 Eu81 2.828 . S
C110 O94 1.249 . S
C110 O95 1.244 . S
C110 C104 1.505 . S
C111 O98 1.258 . S
C111 O99 1.242 . S
H112 C84 0.930 . S
H113 C85 0.930 . S
H114 C86 0.930 . S
H115 C87 0.931 . S
H116 C105 0.930 . S
H117 C106 0.930 . S
H118 C107 0.930 . S
H119 C108 0.931 . S
Eu120 C129 2.828 . S
Eu120 O131 2.392 . S
Eu120 O133 2.418 . S
Eu120 O138 2.373 . S
Eu120 O141 2.488 . S
Eu120 O142 2.471 . S
Eu120 O143 2.349 . S
Eu121 O130 2.373 . S
Eu121 O134 2.488 . S
Eu121 O135 2.471 . S
Eu121 O136 2.349 . S
Eu121 O139 2.392 . S
Eu121 O140 2.418 . S
Eu121 C150 2.828 . S
C122 O140 1.244 . S
C122 O143 1.265 . S
C123 C124 1.379 . S
C123 C127 1.373 . S
C123 C129 1.505 1_556 S
C124 C123 1.379 . S
C124 C126 1.369 . S
C124 H152 0.930 . S
C125 C127 1.383 . S
C125 C128 1.382 . S
C125 H153 0.930 . S
C126 C124 1.369 . S
C126 C128 1.392 . S
C126 H154 0.930 . S
C127 C123 1.373 . S
C127 C125 1.383 . S
C127 H155 0.931 . S
C128 C125 1.382 . S
C128 C126 1.392 . S
C129 Eu120 2.828 . S
C129 C123 1.505 1_554 S
C129 O141 1.249 . S
C129 O142 1.244 . S
O130 Eu121 2.373 . S
O130 C132 1.258 . S
O131 Eu120 2.392 . S
O131 C132 1.242 . S
C132 O130 1.258 . S
C132 O131 1.242 . S
O133 Eu120 2.418 . S
O133 C137 1.244 . S
O134 Eu121 2.488 . S
O134 C150 1.249 . S
O135 Eu121 2.471 . S
O135 C150 1.244 . S
O136 Eu121 2.349 . S
O136 C137 1.265 . S
C137 O133 1.244 . S
C137 O136 1.265 . S
O138 Eu120 2.373 . S
O138 C151 1.258 . S
O139 Eu121 2.392 . S
O139 C151 1.242 . S
O140 Eu121 2.418 . S
O140 C122 1.244 . S
O141 Eu120 2.488 . S
O141 C129 1.249 . S
O142 Eu120 2.471 . S
O142 C129 1.244 . S
O143 Eu120 2.349 . S
O143 C122 1.265 . S
C144 C145 1.379 . S
C144 C148 1.373 . S
C144 C150 1.505 . S
C145 C144 1.379 . S
C145 C147 1.369 . S
C145 H156 0.930 . S
C146 C148 1.383 . S
C146 C149 1.382 . S
C146 H157 0.930 . S
C147 C145 1.369 . S
C147 C149 1.392 . S
C147 H158 0.930 . S
C148 C144 1.373 . S
C148 C146 1.383 . S
C148 H159 0.931 . S
C149 C146 1.382 . S
C149 C147 1.392 . S
C150 Eu121 2.828 . S
C150 O134 1.249 . S
C150 O135 1.244 . S
C150 C144 1.505 . S
C151 O138 1.258 . S
C151 O139 1.242 . S
H152 C124 0.930 . S
H153 C125 0.930 . S
H154 C126 0.930 . S
H155 C127 0.931 . S
H156 C145 0.930 . S
H157 C146 0.930 . S
H158 C147 0.930 . S
H159 C148 0.931 . S
Eu160 C169 2.828 . S
Eu160 O171 2.392 . S
Eu160 O173 2.418 . S
Eu160 O178 2.373 . S
Eu160 O181 2.488 . S
Eu160 O182 2.471 . S
Eu160 O183 2.349 . S
Eu161 O170 2.373 . S
Eu161 O174 2.488 . S
Eu161 O175 2.471 . S
Eu161 O176 2.349 . S
Eu161 O179 2.392 . S
Eu161 O180 2.418 . S
Eu161 C190 2.828 . S
C162 O180 1.244 . S
C162 O183 1.265 . S
C163 C164 1.379 . S
C163 C167 1.373 . S
C163 C169 1.505 . S
C164 C163 1.379 . S
C164 C166 1.369 . S
C164 H192 0.930 . S
C165 C167 1.383 . S
C165 C168 1.382 . S
C165 H193 0.930 . S
C166 C164 1.369 . S
C166 C168 1.392 . S
C166 H194 0.930 . S
C167 C163 1.373 . S
C167 C165 1.383 . S
C167 H195 0.931 . S
C168 C165 1.382 . S
C168 C166 1.392 . S
C169 Eu160 2.828 . S
C169 C163 1.505 . S
C169 O181 1.249 . S
C169 O182 1.244 . S
O170 Eu161 2.373 . S
O170 C172 1.258 . S
O171 Eu160 2.392 . S
O171 C172 1.242 . S
C172 O170 1.258 . S
C172 O171 1.242 . S
O173 Eu160 2.418 . S
O173 C177 1.244 . S
O174 Eu161 2.488 . S
O174 C190 1.249 . S
O175 Eu161 2.471 . S
O175 C190 1.244 . S
O176 Eu161 2.349 . S
O176 C177 1.265 . S
C177 O173 1.244 . S
C177 O176 1.265 . S
O178 Eu160 2.373 . S
O178 C191 1.258 . S
O179 Eu161 2.392 . S
O179 C191 1.242 . S
O180 Eu161 2.418 . S
O180 C162 1.244 . S
O181 Eu160 2.488 . S
O181 C169 1.249 . S
O182 Eu160 2.471 . S
O182 C169 1.244 . S
O183 Eu160 2.349 . S
O183 C162 1.265 . S
C184 C185 1.379 . S
C184 C188 1.373 . S
C184 C190 1.505 . S
C185 C184 1.379 . S
C185 C187 1.369 . S
C185 H196 0.930 . S
C186 C188 1.383 . S
C186 C189 1.382 . S
C186 H197 0.930 . S
C187 C185 1.369 . S
C187 C189 1.392 . S
C187 H198 0.930 . S
C188 C184 1.373 . S
C188 C186 1.383 . S
C188 H199 0.931 . S
C189 C186 1.382 . S
C189 C187 1.392 . S
C190 Eu161 2.828 . S
C190 O174 1.249 . S
C190 O175 1.244 . S
C190 C184 1.505 . S
C191 O178 1.258 . S
C191 O179 1.242 . S
H192 C164 0.930 . S
H193 C165 0.930 . S
H194 C166 0.930 . S
H195 C167 0.931 . S
H196 C185 0.930 . S
H197 C186 0.930 . S
H198 C187 0.930 . S
H199 C188 0.931 . S
Eu200 C209 2.828 . S
Eu200 O211 2.392 . S
Eu200 O213 2.418 . S
Eu200 O218 2.373 . S
Eu200 O221 2.488 . S
Eu200 O222 2.471 . S
Eu200 O223 2.349 . S
Eu201 O210 2.373 . S
Eu201 O214 2.488 1_556 S
Eu201 O215 2.471 1_556 S
Eu201 O216 2.349 . S
Eu201 O219 2.392 . S
Eu201 O220 2.418 . S
Eu201 C230 2.828 1_556 S
C202 O220 1.244 . S
C202 O223 1.265 . S
C203 C204 1.379 . S
C203 C207 1.373 . S
C203 C209 1.505 . S
C204 C203 1.379 . S
C204 C206 1.369 . S
C204 H232 0.930 . S
C205 C207 1.383 . S
C205 C208 1.382 . S
C205 H233 0.930 . S
C206 C204 1.369 . S
C206 C208 1.392 . S
C206 H234 0.930 . S
C207 C203 1.373 . S
C207 C205 1.383 . S
C207 H235 0.931 . S
C208 C205 1.382 . S
C208 C206 1.392 . S
C209 Eu200 2.828 . S
C209 C203 1.505 . S
C209 O221 1.249 . S
C209 O222 1.244 . S
O210 Eu201 2.373 . S
O210 C212 1.258 . S
O211 Eu200 2.392 . S
O211 C212 1.242 . S
C212 O210 1.258 . S
C212 O211 1.242 . S
O213 Eu200 2.418 . S
O213 C217 1.244 . S
O214 Eu201 2.488 1_554 S
O214 C230 1.249 . S
O215 Eu201 2.471 1_554 S
O215 C230 1.244 . S
O216 Eu201 2.349 . S
O216 C217 1.265 . S
C217 O213 1.244 . S
C217 O216 1.265 . S
O218 Eu200 2.373 . S
O218 C231 1.258 . S
O219 Eu201 2.392 . S
O219 C231 1.242 . S
O220 Eu201 2.418 . S
O220 C202 1.244 . S
O221 Eu200 2.488 . S
O221 C209 1.249 . S
O222 Eu200 2.471 . S
O222 C209 1.244 . S
O223 Eu200 2.349 . S
O223 C202 1.265 . S
C224 C225 1.379 . S
C224 C228 1.373 . S
C224 C230 1.505 . S
C225 C224 1.379 . S
C225 C227 1.369 . S
C225 H236 0.930 . S
C226 C228 1.383 . S
C226 C229 1.382 . S
C226 H237 0.930 . S
C227 C225 1.369 . S
C227 C229 1.392 . S
C227 H238 0.930 . S
C228 C224 1.373 . S
C228 C226 1.383 . S
C228 H239 0.931 . S
C229 C226 1.382 . S
C229 C227 1.392 . S
C230 Eu201 2.828 1_554 S
C230 O214 1.249 . S
C230 O215 1.244 . S
C230 C224 1.505 . S
C231 O218 1.258 . S
C231 O219 1.242 . S
H232 C204 0.930 . S
H233 C205 0.930 . S
H234 C206 0.930 . S
H235 C207 0.931 . S
H236 C225 0.930 . S
H237 C226 0.930 . S
H238 C227 0.930 . S
H239 C228 0.931 . S
C240 C241 1.387 1_554 S
C240 H244 0.950 . S
C240 C249 1.390 . S
C241 C240 1.387 1_556 S
C241 C243 1.387 . S
H242 C249 0.950 . S
C243 C241 1.387 . S
C243 C245 1.390 . S
C243 H247 0.950 . S
H244 C240 0.950 . S
C245 C243 1.390 . S
C245 C246 1.387 1_556 S
C245 H248 0.950 . S
C246 C245 1.387 1_554 S
C246 C249 1.387 . S
H247 C243 0.950 . S
H248 C245 0.950 . S
C249 C240 1.390 . S
C249 H242 0.950 . S
C249 C246 1.387 . S
C250 C251 1.387 . S
C250 H254 0.950 . S
C250 C259 1.390 . S
C251 C250 1.387 . S
C251 C253 1.387 1_455 S
H252 C259 0.950 . S
C253 C251 1.387 1_655 S
C253 C255 1.390 . S
C253 H257 0.950 . S
H254 C250 0.950 . S
C255 C253 1.390 . S
C255 C256 1.387 . S
C255 H258 0.950 . S
C256 C255 1.387 . S
C256 C259 1.387 1_655 S
H257 C253 0.950 . S
H258 C255 0.950 . S
C259 C250 1.390 . S
C259 H252 0.950 . S
C259 C256 1.387 1_455 S
C260 C261 1.387 . S
C260 H264 0.950 . S
C260 C269 1.390 1_545 S
C261 C260 1.387 . S
C261 C263 1.387 . S
H262 C269 0.950 . S
C263 C261 1.387 . S
C263 C265 1.390 1_545 S
C263 H267 0.950 . S
H264 C260 0.950 . S
C265 C263 1.390 1_565 S
C265 C266 1.387 . S
C265 H268 0.950 . S
C266 C265 1.387 . S
C266 C269 1.387 . S
H267 C263 0.950 . S
H268 C265 0.950 . S
C269 C260 1.390 1_565 S
C269 H262 0.950 . S
C269 C266 1.387 . S
C270 C271 1.387 . S
C270 H274 0.950 . S
C270 C279 1.390 1_556 S
C271 C270 1.387 . S
C271 C273 1.387 . S
H272 C279 0.950 . S
C273 C271 1.387 . S
C273 C275 1.390 1_556 S
C273 H277 0.950 . S
H274 C270 0.950 . S
C275 C273 1.390 1_554 S
C275 C276 1.387 . S
C275 H278 0.950 . S
C276 C275 1.387 . S
C276 C279 1.387 . S
H277 C273 0.950 . S
H278 C275 0.950 . S
C279 C270 1.390 1_554 S
C279 H272 0.950 . S
C279 C276 1.387 . S
C280 C281 1.387 . S
C280 H284 0.950 . S
C280 C289 1.390 1_455 S
C281 C280 1.387 . S
C281 C283 1.387 . S
H282 C289 0.950 . S
C283 C281 1.387 . S
C283 C285 1.390 1_455 S
C283 H287 0.950 . S
H284 C280 0.950 . S
C285 C283 1.390 1_655 S
C285 C286 1.387 . S
C285 H288 0.950 . S
C286 C285 1.387 . S
C286 C289 1.387 . S
H287 C283 0.950 . S
H288 C285 0.950 . S
C289 C280 1.390 1_655 S
C289 H282 0.950 . S
C289 C286 1.387 . S
C290 C291 1.387 . S
C290 H294 0.950 . S
C290 C299 1.390 1_545 S
C291 C290 1.387 . S
C291 C293 1.387 . S
H292 C299 0.950 . S
C293 C291 1.387 . S
C293 C295 1.390 1_545 S
C293 H297 0.950 . S
H294 C290 0.950 . S
C295 C293 1.390 1_565 S
C295 C296 1.387 . S
C295 H298 0.950 . S
C296 C295 1.387 . S
C296 C299 1.387 . S
H297 C293 0.950 . S
H298 C295 0.950 . S
C299 C290 1.390 1_565 S
C299 H292 0.950 . S
C299 C296 1.387 . S
C300 C301 1.387 . S
C300 H304 0.950 . S
C300 C309 1.390 . S
C301 C300 1.387 . S
C301 C303 1.387 . S
H302 C309 0.950 . S
C303 C301 1.387 . S
C303 C305 1.390 . S
C303 H307 0.950 . S
H304 C300 0.950 . S
C305 C303 1.390 . S
C305 C306 1.387 . S
C305 H308 0.950 . S
C306 C305 1.387 . S
C306 C309 1.387 . S
H307 C303 0.950 . S
H308 C305 0.950 . S
C309 C300 1.390 . S
C309 H302 0.950 . S
C309 C306 1.387 . S
C310 C311 1.387 . S
C310 H314 0.950 . S
C310 C319 1.390 . S
C311 C310 1.387 . S
C311 C313 1.387 . S
H312 C319 0.950 . S
C313 C311 1.387 . S
C313 C315 1.390 . S
C313 H317 0.950 . S
H314 C310 0.950 . S
C315 C313 1.390 . S
C315 C316 1.387 . S
C315 H318 0.950 . S
C316 C315 1.387 . S
C316 C319 1.387 . S
H317 C313 0.950 . S
H318 C315 0.950 . S
C319 C310 1.390 . S
C319 H312 0.950 . S
C319 C316 1.387 . S
C320 C321 1.387 . S
C320 H324 0.950 . S
C320 C329 1.390 . S
C321 C320 1.387 . S
C321 C323 1.387 . S
H322 C329 0.950 . S
C323 C321 1.387 . S
C323 C325 1.390 . S
C323 H327 0.950 . S
H324 C320 0.950 . S
C325 C323 1.390 . S
C325 C326 1.387 . S
C325 H328 0.950 . S
C326 C325 1.387 . S
C326 C329 1.387 . S
H327 C323 0.950 . S
H328 C325 0.950 . S
C329 C320 1.390 . S
C329 H322 0.950 . S
C329 C326 1.387 . S
C330 C331 1.387 . S
C330 H334 0.950 . S
C330 C339 1.390 . S
C331 C330 1.387 . S
C331 C333 1.387 . S
H332 C339 0.950 . S
C333 C331 1.387 . S
C333 C335 1.390 . S
C333 H337 0.950 . S
H334 C330 0.950 . S
C335 C333 1.390 . S
C335 C336 1.387 . S
C335 H338 0.950 . S
C336 C335 1.387 . S
C336 C339 1.387 . S
H337 C333 0.950 . S
H338 C335 0.950 . S
C339 C330 1.390 . S
C339 H332 0.950 . S
C339 C336 1.387 . S
C340 C341 1.387 . S
C340 H344 0.950 . S
C340 C349 1.390 . S
C341 C340 1.387 . S
C341 C343 1.387 . S
H342 C349 0.950 1_554 S
C343 C341 1.387 . S
C343 C345 1.390 . S
C343 H347 0.950 . S
H344 C340 0.950 . S
C345 C343 1.390 . S
C345 C346 1.387 . S
C345 H348 0.950 . S
C346 C345 1.387 . S
C346 C349 1.387 . S
H347 C343 0.950 . S
H348 C345 0.950 . S
C349 C340 1.390 . S
C349 H342 0.950 1_556 S
C349 C346 1.387 . S
C350 C351 1.387 . S
C350 H354 0.950 . S
C350 C359 1.390 . S
C351 C350 1.387 . S
C351 C353 1.387 . S
H352 C359 0.950 . S
C353 C351 1.387 . S
C353 C355 1.390 . S
C353 H357 0.950 . S
H354 C350 0.950 . S
C355 C353 1.390 . S
C355 C356 1.387 . S
C355 H358 0.950 . S
C356 C355 1.387 . S
C356 C359 1.387 . S
H357 C353 0.950 . S
H358 C355 0.950 . S
C359 C350 1.390 . S
C359 H352 0.950 . S
C359 C356 1.387 . S
C360 C361 1.387 . S
C360 H364 0.950 . S
C360 C369 1.390 . S
C361 C360 1.387 . S
C361 C363 1.387 . S
H362 C369 0.950 . S
C363 C361 1.387 . S
C363 C365 1.390 . S
C363 H367 0.950 . S
H364 C360 0.950 . S
C365 C363 1.390 . S
C365 C366 1.387 . S
C365 H368 0.950 . S
C366 C365 1.387 . S
C366 C369 1.387 . S
H367 C363 0.950 . S
H368 C365 0.950 . S
C369 C360 1.390 . S
C369 H362 0.950 . S
C369 C366 1.387 . S
C370 C371 1.387 . S
C370 H374 0.950 . S
C370 C379 1.390 . S
C371 C370 1.387 . S
C371 C373 1.387 . S
H372 C379 0.950 . S
C373 C371 1.387 . S
C373 C375 1.390 . S
C373 H377 0.950 . S
H374 C370 0.950 . S
C375 C373 1.390 . S
C375 C376 1.387 . S
C375 H378 0.950 . S
C376 C375 1.387 . S
C376 C379 1.387 . S
H377 C373 0.950 . S
H378 C375 0.950 . S
C379 C370 1.390 . S
C379 H372 0.950 . S
C379 C376 1.387 . S
C380 C381 1.387 . S
C380 H384 0.950 . S
C380 C389 1.390 . S
C381 C380 1.387 . S
C381 C383 1.387 . S
H382 C389 0.950 . S
C383 C381 1.387 . S
C383 C385 1.390 . S
C383 H387 0.950 . S
H384 C380 0.950 . S
C385 C383 1.390 . S
C385 C386 1.387 . S
C385 H388 0.950 . S
C386 C385 1.387 . S
C386 C389 1.387 . S
H387 C383 0.950 . S
H388 C385 0.950 . S
C389 C380 1.390 . S
C389 H382 0.950 . S
C389 C386 1.387 . S
C390 C391 1.387 . S
C390 H394 0.950 . S
C390 C399 1.390 . S
C391 C390 1.387 . S
C391 C393 1.387 . S
H392 C399 0.950 . S
C393 C391 1.387 . S
C393 C395 1.390 . S
C393 H397 0.950 . S
H394 C390 0.950 . S
C395 C393 1.390 . S
C395 C396 1.387 . S
C395 H398 0.950 . S
C396 C395 1.387 . S
C396 C399 1.387 . S
H397 C393 0.950 . S
H398 C395 0.950 . S
C399 C390 1.390 . S
C399 H392 0.950 . S
C399 C396 1.387 . S
C400 C401 1.387 . S
C400 H404 0.950 . S
C400 C409 1.390 . S
C401 C400 1.387 . S
C401 C403 1.387 . S
H402 C409 0.950 . S
C403 C401 1.387 . S
C403 C405 1.390 . S
C403 H407 0.950 . S
H404 C400 0.950 . S
C405 C403 1.390 . S
C405 C406 1.387 . S
C405 H408 0.950 . S
C406 C405 1.387 . S
C406 C409 1.387 . S
H407 C403 0.950 . S
H408 C405 0.950 . S
C409 C400 1.390 . S
C409 H402 0.950 . S
C409 C406 1.387 . S
C410 C411 1.387 . S
C410 H414 0.950 . S
C410 C419 1.390 . S
C411 C410 1.387 . S
C411 C413 1.387 . S
H412 C419 0.950 . S
C413 C411 1.387 . S
C413 C415 1.390 . S
C413 H417 0.950 . S
H414 C410 0.950 . S
C415 C413 1.390 . S
C415 C416 1.387 . S
C415 H418 0.950 . S
C416 C415 1.387 . S
C416 C419 1.387 . S
H417 C413 0.950 . S
H418 C415 0.950 . S
C419 C410 1.390 . S
C419 H412 0.950 . S
C419 C416 1.387 . S
C241 C217 1.453 . S
C246 C17 1.450 . S
C251 C31 1.916 . S
C256 C71 1.915 . S
C261 C57 1.451 . S
C266 C97 1.451 . S
C271 C111 1.919 . S
C276 C151 1.918 . S
C281 C177 1.453 . S
C286 C137 1.451 . S
C291 C231 1.918 . S
C296 C191 1.918 . S
C301 C29 1.740 . S
C306 C8 1.740 . S
C311 C48 1.736 . S
C316 C69 1.736 1_554 S
C321 C109 1.737 . S
C326 C88 1.737 . S
C331 C128 1.739 . S
C336 C149 1.739 . S
C341 C168 1.738 . S
C346 C189 1.738 1_556 S
C351 C208 1.739 . S
C356 C229 1.739 . S
C361 C2 1.953 . S
C366 C172 1.955 . S
C371 C52 1.955 . S
C376 C202 1.953 . S
C381 C12 1.955 1_556 S
C386 C82 1.953 . S
C391 C42 1.953 . S
C396 C132 1.955 . S
C401 C162 1.954 . S
C406 C92 1.955 . S
C411 C122 1.953 . S
C416 C212 1.955 1_554 S
