# Generated by pormake.
# Topology yfb, (5)-cn, num edge types: 1
# Building blocks:
#     Node 0, Type 0, BuildingBlock: XOMCOT_clean_sbu_0, # of connection points: 5
#     Node 1, Type 0, BuildingBlock: XOMCOT_clean_sbu_0, # of connection points: 5
#     Node 2, Type 0, BuildingBlock: XOMCOT_clean_sbu_0, # of connection points: 5
#     Node 3, Type 0, BuildingBlock: XOMCOT_clean_sbu_0, # of connection points: 5
#     Node 4, Type 0, BuildingBlock: XOMCOT_clean_sbu_0, # of connection points: 5
#     Node 5, Type 0, BuildingBlock: XOMCOT_clean_sbu_0, # of connection points: 5
#     Node 6, Type 0, BuildingBlock: XOMCOT_clean_sbu_0, # of connection points: 5
#     Node 7, Type 0, BuildingBlock: XOMCOT_clean_sbu_0, # of connection points: 5
#     Node 8, Type 0, BuildingBlock: XOMCOT_clean_sbu_0, # of connection points: 5
#     Node 9, Type 0, BuildingBlock: XOMCOT_clean_sbu_0, # of connection points: 5
#     Node 10, Type 0, BuildingBlock: XOMCOT_clean_sbu_0, # of connection points: 5
#     Node 11, Type 0, BuildingBlock: XOMCOT_clean_sbu_0, # of connection points: 5
#     Node 12, Type 0, BuildingBlock: XOMCOT_clean_sbu_0, # of connection points: 5
#     Node 13, Type 0, BuildingBlock: XOMCOT_clean_sbu_0, # of connection points: 5
#     Node 14, Type 0, BuildingBlock: XOMCOT_clean_sbu_0, # of connection points: 5
#     Node 15, Type 0, BuildingBlock: XOMCOT_clean_sbu_0, # of connection points: 5
#     Edge 16, Type (0, 0), None
#     Edge 17, Type (0, 0), None
#     Edge 18, Type (0, 0), None
#     Edge 19, Type (0, 0), None
#     Edge 20, Type (0, 0), None
#     Edge 21, Type (0, 0), None
#     Edge 22, Type (0, 0), None
#     Edge 23, Type (0, 0), None
#     Edge 24, Type (0, 0), None
#     Edge 25, Type (0, 0), None
#     Edge 26, Type (0, 0), None
#     Edge 27, Type (0, 0), None
#     Edge 28, Type (0, 0), None
#     Edge 29, Type (0, 0), None
#     Edge 30, Type (0, 0), None
#     Edge 31, Type (0, 0), None
#     Edge 32, Type (0, 0), None
#     Edge 33, Type (0, 0), None
#     Edge 34, Type (0, 0), None
#     Edge 35, Type (0, 0), None
#     Edge 36, Type (0, 0), None
#     Edge 37, Type (0, 0), None
#     Edge 38, Type (0, 0), None
#     Edge 39, Type (0, 0), None
#     Edge 40, Type (0, 0), None
#     Edge 41, Type (0, 0), None
#     Edge 42, Type (0, 0), None
#     Edge 43, Type (0, 0), None
#     Edge 44, Type (0, 0), None
#     Edge 45, Type (0, 0), None
#     Edge 46, Type (0, 0), None
#     Edge 47, Type (0, 0), None
#     Edge 48, Type (0, 0), None
#     Edge 49, Type (0, 0), None
#     Edge 50, Type (0, 0), None
#     Edge 51, Type (0, 0), None
#     Edge 52, Type (0, 0), None
#     Edge 53, Type (0, 0), None
#     Edge 54, Type (0, 0), None
#     Edge 55, Type (0, 0), None
# Relax obj value: 0.773
# Max RMSD: 0.301
# Mean RMSD: 0.301
data_MOF--net-yfb--node1-XOMCOT_clean_sbu_0--edge1-none
_symmetry_space_group_name_H-M    P1
_symmetry_Int_Tables_number       1
_symmetry_cell_setting            triclinic
loop_
_symmetry_equiv_pos_as_xyz
'x, y, z'
_cell_length_a     22.965875
_cell_length_b     22.965878
_cell_length_c     16.825847
_cell_angle_alpha  90.003174
_cell_angle_beta   89.996819
_cell_angle_gamma 90.001171
loop_
_atom_site_label
_atom_site_type_symbol
_atom_site_fract_x
_atom_site_fract_y
_atom_site_fract_z
_atom_type_partial_charge
Co0 Co 0.67867 0.07324 0.20899 0.0
C1 C 0.58566 0.01537 0.12152 0.0
C2 C 0.58622 0.99041 0.24392 0.0
C3 C 0.53053 0.98255 0.21407 0.0
N4 N 0.621 0.0126 0.18663 0.0
N5 N 0.5301 0.99952 0.1374 0.0
H6 H 0.59782 0.03702 1.0671 0.0
H7 H 0.59758 0.98908 0.30629 0.0
C8 C 0.73342 0.98379 0.32873 0.0
O9 O 0.72226 0.93682 0.28691 0.0
N10 N 0.73257 0.13645 0.23214 0.0
C11 C 0.78241 0.14963 0.19446 0.0
C12 C 0.80039 0.20383 0.2163 0.0
C13 C 0.72168 0.18365 0.27783 0.0
N14 N 0.76194 0.22572 0.26829 0.0
C15 C 0.72947 0.05219 1.05479 0.0
C16 C 0.83688 0.01766 1.10946 0.0
C17 C 0.83394 0.04759 1.03726 0.0
C18 C 0.77851 0.05691 1.00496 0.0
C19 C 0.7877 0.01545 0.15821 0.0
N20 N 0.7355 0.03836 0.13371 0.0
H21 H 0.68865 0.06837 1.03237 0.0
H22 H 0.7967 0.00598 0.21881 0.0
H23 H 0.80016 0.12652 0.14574 0.0
H24 H 0.68151 0.19089 0.30947 0.0
O25 O 0.63848 0.1233 0.13533 0.0
O26 O 0.61667 0.11669 0.26308 0.0
O27 O 0.7146 0.03364 0.30599 0.0
C28 C 0.60563 0.13959 0.19392 0.0
H29 H 0.49247 0.97098 0.2485 0.0
H30 H 0.83143 0.22957 0.18355 0.0
H31 H 0.8788 0.00844 0.13597 0.0
H32 H 0.77379 0.07814 0.94782 0.0
Co33 Co 0.44148 0.67072 0.21404 0.0
C34 C 0.50682 0.58551 0.12842 0.0
C35 C 0.51875 0.57641 0.2537 0.0
C36 C 0.52234 0.52186 0.21908 0.0
N37 N 0.50539 0.6163 0.19752 0.0
N38 N 0.51293 0.52768 0.14043 0.0
H39 H 0.49193 0.60315 1.07265 0.0
H40 H 0.51429 0.58401 0.31687 0.0
C41 C 0.52744 0.73072 0.33548 0.0
O42 O 0.57637 0.71317 0.30294 0.0
N43 N 0.37622 0.72285 0.22885 0.0
C44 C 0.37745 0.77994 0.24893 0.0
C45 C 0.32125 0.80043 0.25366 0.0
C46 C 0.31934 0.70942 0.22393 0.0
N47 N 0.2857 0.7553 0.239 0.0
C48 C 0.45073 0.72029 1.05884 0.0
C49 C 0.48261 0.82836 0.11416 0.0
C50 C 0.4471 0.82457 1.04712 0.0
C51 C 0.43796 0.76983 1.01348 0.0
C52 C 0.49676 0.7777 0.15564 0.0
N53 N 0.47264 0.72549 0.13427 0.0
H54 H 0.43424 0.67928 1.03745 0.0
H55 H 0.51879 0.78372 0.21067 0.0
H56 H 0.41607 0.80504 0.26154 0.0
H57 H 0.30178 0.66787 0.2088 0.0
O58 O 0.39613 0.62277 0.14374 0.0
O59 O 0.39868 0.60918 0.27303 0.0
O60 O 0.47823 0.71392 0.30778 0.0
C61 C 0.37987 0.59167 0.20392 0.0
H62 H 0.52475 0.48095 0.25075 0.0
H63 H 0.30763 0.84402 0.26929 0.0
H64 H 0.49247 0.87026 0.14049 0.0
H65 H 0.41246 0.76511 0.95973 0.0
Co66 Co 0.8315 0.43758 0.20851 0.0
C67 C 0.92454 0.49535 0.12105 0.0
C68 C 0.92382 0.52054 0.24337 0.0
C69 C 0.97954 0.52832 0.21364 0.0
N70 N 0.88911 0.49824 0.18606 0.0
N71 N 0.98008 0.5112 0.13703 0.0
H72 H 0.91244 0.47361 1.06667 0.0
H73 H 0.91236 0.52198 0.3057 0.0
C74 C 0.77662 0.52705 0.32828 0.0
O75 O 0.78783 0.57414 0.28673 0.0
N76 N 0.77764 0.37438 0.23183 0.0
C77 C 0.72763 0.36122 0.19452 0.0
C78 C 0.70971 0.307 0.21645 0.0
C79 C 0.78864 0.32721 0.27751 0.0
N80 N 0.74836 0.28516 0.26818 0.0
C81 C 0.78075 0.45816 1.05419 0.0
C82 C 0.67339 0.4931 1.1086 0.0
C83 C 0.67629 0.46293 1.03658 0.0
C84 C 0.73171 0.45339 1.00436 0.0
C85 C 0.72259 0.49545 0.15732 0.0
N86 N 0.77471 0.47227 0.13302 0.0
H87 H 0.82156 0.44185 1.03188 0.0
H88 H 0.71365 0.50535 0.21781 0.0
H89 H 0.70964 0.38441 0.14604 0.0
H90 H 0.82888 0.31997 0.30895 0.0
O91 O 0.87182 0.38742 0.13509 0.0
O92 O 0.89351 0.39428 0.26284 0.0
O93 O 0.79541 0.47726 0.30532 0.0
C94 C 0.90462 0.37125 0.19377 0.0
H95 H 0.01756 0.53994 0.24813 0.0
H96 H 0.67857 0.28125 0.18393 0.0
H97 H 0.63148 0.50254 0.13502 0.0
H98 H 0.7364 0.43197 0.94734 0.0
Co99 Co 0.06892 0.8397 0.21344 0.0
C100 C 1.00343 0.92492 0.12811 0.0
C101 C 0.99148 0.93379 0.25343 0.0
C102 C 0.98783 0.98839 0.21897 0.0
N103 N 1.0049 0.89401 0.19711 0.0
N104 N 0.99724 0.98272 0.1403 0.0
H105 H 0.01837 0.90737 1.07229 0.0
H106 H 0.99596 0.92609 0.31657 0.0
C107 C 0.98323 0.77936 0.33504 0.0
O108 O 0.93419 0.79704 0.30298 0.0
N109 N 0.13426 0.78767 0.22811 0.0
C110 C 0.13303 0.73045 0.24744 0.0
C111 C 0.18923 0.71005 0.25253 0.0
C112 C 0.19115 0.80128 0.22412 0.0
N113 N 0.22478 0.75533 0.23882 0.0
C114 C 0.05988 0.7902 1.05815 0.0
C115 C 0.02739 0.68222 1.11313 0.0
C116 C 0.06312 0.6859 1.04627 0.0
C117 C 0.07257 0.74065 1.01278 0.0
C118 C 0.01336 0.73292 0.15465 0.0
N119 N 0.0378 0.78502 0.1335 0.0
H120 H 0.0765 0.83118 1.03686 0.0
H121 H 0.99109 0.72699 0.20952 0.0
H122 H 0.09441 0.70519 0.25939 0.0
H123 H 0.2087 0.84302 0.21002 0.0
O124 O 0.11415 0.88778 0.14321 0.0
O125 O 0.11163 0.90127 0.27252 0.0
O126 O 0.03234 0.79623 0.30708 0.0
C127 C 0.13037 0.91888 0.20341 0.0
H128 H 0.98537 0.02925 0.25078 0.0
H129 H 0.20284 0.66639 0.2678 0.0
H130 H 0.01726 0.64034 0.13932 0.0
H131 H 0.0982 0.74532 0.95915 0.0
Co132 Co 0.67073 0.44151 0.51299 0.0
C133 C 0.58553 0.50687 0.59859 0.0
C134 C 0.57644 0.51879 0.4733 0.0
C135 C 0.52189 0.52238 0.50793 0.0
N136 N 0.61633 0.50543 0.52949 0.0
N137 N 0.52771 0.51298 0.58658 0.0
H138 H 0.60318 0.49199 0.65436 0.0
H139 H 0.58404 0.51431 0.41014 0.0
C140 C 0.73072 0.52745 0.39151 0.0
O141 O 0.7132 0.57638 0.42405 0.0
N142 N 0.72285 0.37624 0.4982 0.0
C143 C 0.77993 0.37745 0.47807 0.0
C144 C 0.80041 0.32125 0.47336 0.0
C145 C 0.70941 0.31936 0.50317 0.0
N146 N 0.75529 0.28571 0.48808 0.0
C147 C 0.72031 0.45079 0.66818 0.0
C148 C 0.82839 0.48265 0.61283 0.0
C149 C 0.8246 0.44716 0.6799 0.0
C150 C 0.76985 0.43804 0.71354 0.0
C151 C 0.77772 0.49678 0.57134 0.0
N152 N 0.72551 0.47268 0.59273 0.0
H153 H 0.67931 0.43432 0.68958 0.0
H154 H 0.78376 0.51879 0.5163 0.0
H155 H 0.80503 0.41607 0.46541 0.0
H156 H 0.66788 0.30181 0.51836 0.0
O157 O 0.62278 0.39618 0.58331 0.0
O158 O 0.60919 0.39871 0.45402 0.0
O159 O 0.71392 0.47823 0.41923 0.0
C160 C 0.59168 0.37991 0.52313 0.0
H161 H 0.48098 0.52478 0.47625 0.0
H162 H 0.84399 0.30762 0.45768 0.0
H163 H 0.87029 0.49249 0.58649 0.0
H164 H 0.76514 0.41256 0.76731 0.0
Co165 Co 0.07326 0.67868 0.51793 0.0
C166 C 0.01539 0.58566 0.60539 0.0
C167 C 0.99044 0.58622 0.48299 0.0
C168 C 0.98258 0.53053 0.51283 0.0
N169 N 0.01262 0.621 0.54029 0.0
N170 N 0.99955 0.5301 0.5895 0.0
H171 H 0.03703 0.59782 0.65982 0.0
H172 H 0.98912 0.59758 0.42062 0.0
C173 C 0.98381 0.73341 0.39821 0.0
O174 O 0.93684 0.7223 0.44008 0.0
N175 N 0.13646 0.73259 0.4948 0.0
C176 C 0.14966 0.7824 0.53255 0.0
C177 C 0.20385 0.80039 0.51072 0.0
C178 C 0.18366 0.72172 0.44911 0.0
N179 N 0.22573 0.76197 0.45869 0.0
C180 C 0.05214 0.72948 0.67213 0.0
C181 C 0.01767 0.8369 0.61742 0.0
C182 C 0.04756 0.83396 0.68965 0.0
C183 C 0.05685 0.77852 0.72196 0.0
C184 C 0.01548 0.78772 0.56866 0.0
N185 N 0.03835 0.73552 0.59319 0.0
H186 H 0.0683 0.68865 0.69456 0.0
H187 H 0.00608 0.79674 0.50804 0.0
H188 H 0.12656 0.80011 0.58132 0.0
H189 H 0.1909 0.68156 0.41743 0.0
O190 O 0.12331 0.63852 0.59162 0.0
O191 O 0.11673 0.61669 0.46387 0.0
O192 O 0.03365 0.71459 0.42091 0.0
C193 C 0.13962 0.60567 0.53305 0.0
H194 H 0.97102 0.49247 0.47841 0.0
H195 H 0.22961 0.8314 0.54352 0.0
H196 H 0.00848 0.87883 0.5909 0.0
H197 H 0.07806 0.7738 0.77911 0.0
Co198 Co 0.83967 0.06892 0.51352 0.0
C199 C 0.9249 1.00342 0.59882 0.0
C200 C 0.93376 0.99149 0.4735 0.0
C201 C 0.98837 0.98784 0.50794 0.0
N202 N 0.89399 1.0049 0.52982 0.0
N203 N 0.9827 0.99724 0.58662 0.0
H204 H 0.90735 0.01835 0.65465 0.0
H205 H 0.92606 0.99598 0.41036 0.0
C206 C 0.77935 0.98322 0.39192 0.0
O207 O 0.797 0.93419 0.42402 0.0
N208 N 0.78764 0.13426 0.49887 0.0
C209 C 0.73044 0.13305 0.47944 0.0
C210 C 0.71003 0.18925 0.4744 0.0
C211 C 0.80124 0.19115 0.50299 0.0
N212 N 0.7553 0.22479 0.48824 0.0
C213 C 0.79017 0.05983 0.6688 0.0
C214 C 0.68218 0.02743 0.6138 0.0
C215 C 0.68588 0.06312 0.68069 0.0
C216 C 0.74063 0.07252 0.71419 0.0
C217 C 0.73286 0.0134 0.57227 0.0
N218 N 0.78498 0.03779 0.59343 0.0
H219 H 0.83116 0.07642 0.6901 0.0
H220 H 0.72691 0.99116 0.51736 0.0
H221 H 0.70519 0.09443 0.46741 0.0
H222 H 0.84296 0.2087 0.51721 0.0
O223 O 0.88775 0.11414 0.58377 0.0
O224 O 0.90123 0.11164 0.45446 0.0
O225 O 0.79621 0.03235 0.41985 0.0
C226 C 0.91884 0.13037 0.52357 0.0
H227 H 0.02922 0.9854 0.47613 0.0
H228 H 0.6664 0.20287 0.45906 0.0
H229 H 0.64029 0.01734 0.58759 0.0
H230 H 0.74531 0.09813 0.76785 0.0
Co231 Co 0.43759 0.83152 0.51846 0.0
C232 C 0.49536 0.92456 0.60591 0.0
C233 C 0.52054 0.92384 0.48359 0.0
C234 C 0.52831 0.97957 0.51331 0.0
N235 N 0.49825 0.88914 0.5409 0.0
N236 N 0.51119 0.98011 0.58992 0.0
H237 H 0.47362 0.91246 0.66029 0.0
H238 H 0.52197 0.91239 0.42126 0.0
C239 C 0.52706 0.77663 0.3987 0.0
O240 O 0.57416 0.7878 0.44025 0.0
N241 N 0.37439 0.77765 0.49516 0.0
C242 C 0.36122 0.72766 0.53251 0.0
C243 C 0.30701 0.70974 0.51056 0.0
C244 C 0.32723 0.78864 0.44946 0.0
N245 N 0.28518 0.74837 0.4588 0.0
C246 C 0.45818 0.78078 0.6728 0.0
C247 C 0.49311 0.67342 0.6184 0.0
C248 C 0.46294 0.67632 0.69042 0.0
C249 C 0.4534 0.73175 0.72263 0.0
C250 C 0.49545 0.72261 0.56967 0.0
N251 N 0.47228 0.77474 0.59397 0.0
H252 H 0.44188 0.82159 0.6951 0.0
H253 H 0.50534 0.71367 0.50917 0.0
H254 H 0.3844 0.70969 0.58102 0.0
H255 H 0.31999 0.82888 0.41799 0.0
O256 O 0.38743 0.87184 0.59189 0.0
O257 O 0.39429 0.89352 0.46413 0.0
O258 O 0.47727 0.79542 0.42166 0.0
C259 C 0.37125 0.90463 0.5332 0.0
H260 H 0.53992 0.01759 0.47882 0.0
H261 H 0.28124 0.67861 0.54311 0.0
H262 H 0.50254 0.6315 0.59199 0.0
H263 H 0.43199 0.73645 0.77965 0.0
Co264 Co 0.33129 0.93737 1.01852 0.0
C265 C 0.42453 0.99518 1.10561 0.0
C266 C 0.42391 0.01995 0.98315 0.0
C267 C 0.47966 0.0277 1.01286 0.0
N268 N 0.38912 0.99794 1.04057 0.0
N269 N 0.48012 0.01079 1.08955 0.0
H270 H 0.41237 0.97368 0.16013 0.0
H271 H 0.41248 0.02123 0.9208 0.0
C272 C 0.27655 0.02658 0.89862 0.0
O273 O 0.28723 0.07352 0.94076 0.0
N274 N 0.27726 0.87422 0.99579 0.0
C275 C 0.22829 0.86045 1.03514 0.0
C276 C 0.21027 0.80625 1.01335 0.0
C277 C 0.28773 0.82728 0.94943 0.0
N278 N 0.24798 0.78484 0.95995 0.0
C279 C 0.28062 0.95936 0.17263 0.0
C280 C 0.17299 0.99286 0.11756 0.0
C281 C 0.17611 0.96349 0.19015 0.0
C282 C 0.2316 0.95465 0.22256 0.0
C283 C 0.22207 0.99476 1.06865 0.0
N284 N 0.27446 0.97256 1.09351 0.0
H285 H 0.32153 0.9435 0.19519 0.0
H286 H 0.2129 1.00333 1.00782 0.0
H287 H 0.21156 0.88303 1.08501 0.0
H288 H 0.32755 0.82041 0.91681 0.0
O289 O 0.37135 0.8874 1.09243 0.0
O290 O 0.39311 0.89368 0.96459 0.0
O291 O 0.29558 0.9768 0.92125 0.0
C292 C 0.4041 0.8709 1.03383 0.0
H293 H 0.51772 0.03912 0.97834 0.0
H294 H 0.18011 0.78009 1.04705 0.0
H295 H 0.131 1.00163 1.09094 0.0
H296 H 0.23645 0.93381 0.27994 0.0
Co297 Co 0.56862 0.33961 1.01355 0.0
C298 C 0.50299 0.42487 1.09849 0.0
C299 C 0.49152 0.43388 0.97312 0.0
C300 C 0.48802 0.48848 1.00761 0.0
N301 N 0.50459 0.394 1.02946 0.0
N302 N 0.49722 0.4827 1.0863 0.0
H303 H 0.51758 0.40721 0.15439 0.0
H304 H 0.49619 0.4262 0.90999 0.0
C305 C 0.48308 0.27966 0.89154 0.0
O306 O 0.43407 0.29738 0.92365 0.0
N307 N 0.63399 0.28753 0.99945 0.0
C308 C 0.63295 0.23059 0.97864 0.0
C309 C 0.6892 0.21017 0.97437 0.0
C310 C 0.69083 0.30093 1.00554 0.0
N311 N 0.7246 0.2552 0.99023 0.0
C312 C 0.5588 0.29011 0.16877 0.0
C313 C 0.52728 0.18197 1.11323 0.0
C314 C 0.56247 0.18581 0.18059 0.0
C315 C 0.57139 0.24058 0.21429 0.0
C316 C 0.5133 0.23261 1.07159 0.0
N317 N 0.5372 0.28487 1.09317 0.0
H318 H 0.57519 0.33114 0.19021 0.0
H319 H 0.49155 0.22654 1.01636 0.0
H320 H 0.59441 0.20556 0.9652 0.0
H321 H 0.70828 0.34233 1.02165 0.0
O322 O 0.61371 0.3878 1.08394 0.0
O323 O 0.61154 0.40098 0.95454 0.0
O324 O 0.53223 0.29629 0.91965 0.0
C325 C 0.63017 0.41868 1.02363 0.0
H326 H 0.4859 0.52937 0.97585 0.0
H327 H 0.703 0.16677 0.95808 0.0
H328 H 0.51761 0.14006 1.0868 0.0
H329 H 0.59659 0.24534 0.26828 0.0
Co330 Co 0.17903 0.57302 1.01851 0.0
C331 C 0.08572 0.51536 1.10555 0.0
C332 C 0.08651 0.49036 0.98318 0.0
C333 C 0.03071 0.48271 1.01275 0.0
N334 N 0.12122 0.51246 1.04062 0.0
N335 N 0.03013 0.49978 1.08938 0.0
H336 H 0.09781 0.53695 0.16004 0.0
H337 H 0.09803 0.48897 0.92086 0.0
C338 C 0.23391 0.4836 0.89886 0.0
O339 O 0.22296 0.43663 0.9408 0.0
N340 N 0.23306 0.63616 0.99563 0.0
C341 C 0.28228 0.6498 1.03452 0.0
C342 C 0.30021 0.70405 1.01281 0.0
C343 C 0.22244 0.68316 0.94946 0.0
N344 N 0.26223 0.72556 0.95988 0.0
C345 C 0.2295 0.55165 0.17287 0.0
C346 C 0.3371 0.51754 0.11833 0.0
C347 C 0.33396 0.54722 0.1907 0.0
C348 C 0.27846 0.5564 0.22288 0.0
C349 C 0.28804 0.51547 1.06937 0.0
N350 N 0.23572 0.53806 1.09388 0.0
H351 H 0.1886 0.56771 0.19521 0.0
H352 H 0.29719 0.50635 1.00869 0.0
H353 H 0.29932 0.62705 1.08403 0.0
H354 H 0.18253 0.69011 0.91709 0.0
O355 O 0.13877 0.62314 1.09206 0.0
O356 O 0.11724 0.61655 0.9642 0.0
O357 O 0.215 0.53341 0.92156 0.0
C358 C 0.10611 0.63949 1.0333 0.0
H359 H 0.99269 0.47127 0.97816 0.0
H360 H 0.33053 0.73014 1.04635 0.0
H361 H 0.3791 0.50848 1.09191 0.0
H362 H 0.27361 0.5775 0.2801 0.0
Co363 Co 0.9415 0.17099 1.01391 0.0
C364 C 0.0071 0.08563 1.09871 0.0
C365 C 0.01866 0.07683 0.97332 0.0
C366 C 0.02217 0.02217 1.00764 0.0
N367 N 0.00553 0.1166 1.02977 0.0
N368 N 0.01292 0.02781 1.08634 0.0
H369 H 0.99244 0.10319 0.15465 0.0
H370 H 0.01405 0.0846 0.91021 0.0
C371 C 0.02702 0.23085 0.8918 0.0
O372 O 0.07601 0.21299 0.92382 0.0
N373 N 0.87611 0.22305 0.99981 0.0
C374 C 0.87718 0.28005 0.97925 0.0
C375 C 0.82092 0.30043 0.97481 0.0
C376 C 0.81926 0.20959 1.0055 0.0
N377 N 0.78551 0.25535 0.99031 0.0
C378 C 0.95128 0.22062 0.16906 0.0
C379 C 0.98306 0.32865 1.11342 0.0
C380 C 0.94776 0.32495 0.18069 0.0
C381 C 0.9387 0.27022 0.21445 0.0
C382 C 0.997 0.27795 1.07189 0.0
N383 N 0.97295 0.22576 1.09349 0.0
H384 H 0.93487 0.17962 0.19056 0.0
H385 H 0.01887 0.28391 1.01672 0.0
H386 H 0.91572 0.30512 0.96605 0.0
H387 H 0.8018 0.16811 1.02118 0.0
O388 O 0.89644 0.12286 1.08439 0.0
O389 O 0.89856 0.10957 0.95501 0.0
O390 O 0.97785 0.2143 0.91996 0.0
C391 C 0.87997 0.09191 1.02415 0.0
H392 H 0.02435 0.98133 0.97574 0.0
H393 H 0.80714 0.34384 0.95861 0.0
H394 H 0.99285 0.37052 1.08695 0.0
H395 H 0.91344 0.26554 0.2684 0.0
Co396 Co 0.33963 0.56865 0.71347 0.0
C397 C 0.42489 0.50303 0.62852 0.0
C398 C 0.4339 0.49156 0.75389 0.0
C399 C 0.48851 0.48807 0.7194 0.0
N400 N 0.39402 0.50463 0.69755 0.0
N401 N 0.48273 0.49727 0.6407 0.0
H402 H 0.40723 0.51762 0.57262 0.0
H403 H 0.42623 0.49622 0.81701 0.0
C404 C 0.27967 0.4831 0.83546 0.0
O405 O 0.29737 0.43409 0.80331 0.0
N406 N 0.28754 0.63401 0.72757 0.0
C407 C 0.23059 0.63296 0.74837 0.0
C408 C 0.21017 0.68921 0.75264 0.0
C409 C 0.30093 0.69086 0.7215 0.0
N410 N 0.25519 0.72461 0.7368 0.0
C411 C 0.29014 0.55884 0.55823 0.0
C412 C 0.182 0.52732 0.61376 0.0
C413 C 0.18584 0.56251 0.5464 0.0
C414 C 0.24061 0.57142 0.51271 0.0
C415 C 0.23263 0.51333 0.65541 0.0
N416 N 0.28489 0.53723 0.63383 0.0
H417 H 0.33117 0.57522 0.5368 0.0
H418 H 0.22655 0.49159 0.71064 0.0
H419 H 0.20557 0.59443 0.76181 0.0
H420 H 0.34233 0.70831 0.70541 0.0
O421 O 0.38781 0.61375 0.64307 0.0
O422 O 0.40099 0.61157 0.77247 0.0
O423 O 0.29631 0.53225 0.80737 0.0
C424 C 0.41869 0.63021 0.70338 0.0
H425 H 0.5294 0.48595 0.75116 0.0
H426 H 0.16676 0.703 0.76891 0.0
H427 H 0.14008 0.51766 0.64018 0.0
H428 H 0.24538 0.59663 0.45872 0.0
Co429 Co 0.93737 0.33131 0.70846 0.0
C430 C 0.99518 0.42453 0.62132 0.0
C431 C 0.01999 0.42392 0.74377 0.0
C432 C 0.02775 0.47966 0.71404 0.0
N433 N 0.99795 0.38913 0.68636 0.0
N434 N 0.01081 0.48012 0.63736 0.0
H435 H 0.97366 0.41238 0.56681 0.0
H436 H 0.02128 0.41249 0.80612 0.0
C437 C 0.0266 0.27657 0.82834 0.0
O438 O 0.07354 0.28723 0.78621 0.0
N439 N 0.87422 0.2773 0.73123 0.0
C440 C 0.86047 0.22827 0.692 0.0
C441 C 0.80628 0.21026 0.71381 0.0
C442 C 0.82727 0.2878 0.77757 0.0
N443 N 0.78485 0.24802 0.76712 0.0
C444 C 0.95929 0.28063 0.55434 0.0
C445 C 0.99284 0.17301 0.60939 0.0
C446 C 0.96344 0.17613 0.53682 0.0
C447 C 0.95457 0.23161 0.50442 0.0
C448 C 0.99477 0.2221 0.65829 0.0
N449 N 0.97252 0.27448 0.63345 0.0
H450 H 0.9434 0.32154 0.53179 0.0
H451 H 1.00338 0.21293 0.71911 0.0
H452 H 0.88308 0.21148 0.64218 0.0
H453 H 0.82039 0.32765 0.81012 0.0
O454 O 0.88739 0.37138 0.63457 0.0
O455 O 0.89371 0.39316 0.7624 0.0
O456 O 0.97682 0.2956 0.8057 0.0
C457 C 0.87091 0.40414 0.69317 0.0
H458 H 0.03919 0.51772 0.74855 0.0
H459 H 0.78013 0.18005 0.68017 0.0
H460 H 1.00164 0.13102 0.636 0.0
H461 H 0.9337 0.23646 0.44705 0.0
Co462 Co 0.17097 0.9415 0.71303 0.0
C463 C 0.08561 0.00709 0.62822 0.0
C464 C 0.07681 0.01868 0.7536 0.0
C465 C 0.02215 0.02218 0.71928 0.0
N466 N 0.11659 0.00553 0.69715 0.0
N467 N 0.02779 0.01292 0.64058 0.0
H468 H 0.10317 0.99242 0.57228 0.0
H469 H 0.08458 0.01407 0.81671 0.0
C470 C 0.23083 0.02702 0.83515 0.0
O471 O 0.213 0.07602 0.80313 0.0
N472 N 0.22304 0.87612 0.72715 0.0
C473 C 0.28004 0.8772 0.74767 0.0
C474 C 0.30042 0.82094 0.75214 0.0
C475 C 0.20957 0.81927 0.72152 0.0
N476 N 0.25534 0.78553 0.73671 0.0
C477 C 0.22062 0.95127 0.55789 0.0
C478 C 0.32864 0.98308 0.61353 0.0
C479 C 0.32495 0.94777 0.54627 0.0
C480 C 0.27022 0.93869 0.5125 0.0
C481 C 0.27792 0.99702 0.65505 0.0
N482 N 0.22574 0.97295 0.63346 0.0
H483 H 0.17961 0.93485 0.53638 0.0
H484 H 0.28388 0.0189 0.71022 0.0
H485 H 0.30511 0.91574 0.76084 0.0
H486 H 0.16808 0.8018 0.70591 0.0
O487 O 0.12286 0.89644 0.64254 0.0
O488 O 0.10954 0.89857 0.77192 0.0
O489 O 0.21428 0.97786 0.80698 0.0
C490 C 0.0919 0.87997 0.70278 0.0
H491 H 0.98132 0.02437 0.75117 0.0
H492 H 0.34385 0.80717 0.76832 0.0
H493 H 0.3705 0.99289 0.63999 0.0
H494 H 0.26555 0.91342 0.45856 0.0
Co495 Co 0.57302 0.17904 0.7085 0.0
C496 C 0.51537 0.08574 0.62141 0.0
C497 C 0.49034 0.08653 0.74378 0.0
C498 C 0.48269 0.03073 0.7142 0.0
N499 N 0.51246 0.12124 0.68635 0.0
N500 N 0.49977 0.03016 0.63758 0.0
H501 H 0.53697 0.09784 0.56694 0.0
H502 H 0.48894 0.09805 0.80609 0.0
C503 C 0.48358 0.23389 0.82813 0.0
O504 O 0.43662 0.22299 0.78616 0.0
N505 N 0.63616 0.23307 0.73142 0.0
C506 C 0.64978 0.28232 0.69259 0.0
C507 C 0.70403 0.30025 0.71431 0.0
C508 C 0.68317 0.22243 0.77757 0.0
N509 N 0.72555 0.26224 0.76719 0.0
C510 C 0.55166 0.22954 0.55416 0.0
C511 C 0.51755 0.33714 0.60872 0.0
C512 C 0.54723 0.33401 0.53635 0.0
C513 C 0.55641 0.27851 0.50416 0.0
C514 C 0.51548 0.28807 0.65767 0.0
N515 N 0.53807 0.23575 0.63315 0.0
H516 H 0.56772 0.18865 0.53181 0.0
H517 H 0.50636 0.29721 0.71836 0.0
H518 H 0.62702 0.2994 0.64312 0.0
H519 H 0.69013 0.1825 0.80988 0.0
O520 O 0.62315 0.13881 0.63494 0.0
O521 O 0.61654 0.11723 0.76279 0.0
O522 O 0.5334 0.21499 0.80546 0.0
C523 C 0.63949 0.10613 0.69368 0.0
H524 H 0.47123 0.99271 0.74878 0.0
H525 H 0.73011 0.33061 0.68082 0.0
H526 H 0.5085 0.37913 0.63516 0.0
H527 H 0.57751 0.27366 0.44694 0.0
loop_
_geom_bond_atom_site_label_1
_geom_bond_atom_site_label_2
_geom_bond_distance
_geom_bond_site_symmetry_2
_ccdc_geom_bond_type
Co0 N4 2.148 . S
Co0 N10 2.128 . S
Co0 N20 2.194 . S
Co0 O25 2.351 . S
Co0 O26 2.155 . S
Co0 O27 2.096 . S
C1 N4 1.301 . S
C1 N5 1.328 1_545 S
C1 H6 0.930 . S
C2 C3 1.333 . S
C2 N4 1.317 1_565 S
C2 H7 0.930 . S
C3 C2 1.333 . S
C3 N5 1.350 . S
C3 H29 0.931 . S
N4 Co0 2.148 . S
N4 C1 1.301 . S
N4 C2 1.317 1_545 S
N5 C1 1.328 1_565 S
N5 C3 1.350 . S
H6 C1 0.930 . S
H7 C2 0.930 . S
C8 O9 1.224 . S
C8 O27 1.247 . S
O9 C8 1.224 . S
N10 Co0 2.128 . S
N10 C11 1.355 . S
N10 C13 1.311 . S
C11 N10 1.355 . S
C11 C12 1.363 . S
C11 H23 0.929 . S
C12 C11 1.363 . S
C12 N14 1.375 . S
C12 H30 0.931 . S
C13 N10 1.311 . S
C13 N14 1.347 . S
C13 H24 0.929 . S
N14 C12 1.375 . S
N14 C13 1.347 . S
C15 C18 1.375 . S
C15 N20 1.312 1_556 S
C15 H21 0.936 . S
C16 C17 1.362 1_554 S
C16 C19 1.378 . S
C16 H31 0.927 1_545 S
C17 C16 1.362 1_556 S
C17 C18 1.366 . S
C18 C15 1.375 . S
C18 C17 1.366 . S
C18 H32 0.930 . S
C19 C16 1.378 . S
C19 N20 1.315 . S
C19 H22 0.930 . S
N20 Co0 2.194 . S
N20 C15 1.312 1_554 S
N20 C19 1.315 . S
H21 C15 0.936 . S
H22 C19 0.930 . S
H23 C11 0.929 . S
H24 C13 0.929 . S
O25 Co0 2.351 . S
O25 C28 1.244 . S
O26 Co0 2.155 . S
O26 C28 1.240 . S
O27 Co0 2.096 . S
O27 C8 1.247 . S
C28 O25 1.244 . S
C28 O26 1.240 . S
H29 C3 0.931 . S
H30 C12 0.931 . S
H31 C16 0.927 1_565 S
H32 C18 0.930 . S
Co33 N37 2.148 . S
Co33 N43 2.128 . S
Co33 N53 2.194 . S
Co33 O58 2.351 . S
Co33 O59 2.155 . S
Co33 O60 2.096 . S
C34 N37 1.301 . S
C34 N38 1.328 . S
C34 H39 0.930 . S
C35 C36 1.333 . S
C35 N37 1.317 . S
C35 H40 0.930 . S
C36 C35 1.333 . S
C36 N38 1.350 . S
C36 H62 0.931 . S
N37 Co33 2.148 . S
N37 C34 1.301 . S
N37 C35 1.317 . S
N38 C34 1.328 . S
N38 C36 1.350 . S
H39 C34 0.930 . S
H40 C35 0.930 . S
C41 O42 1.224 . S
C41 O60 1.247 . S
O42 C41 1.224 . S
N43 Co33 2.128 . S
N43 C44 1.355 . S
N43 C46 1.311 . S
C44 N43 1.355 . S
C44 C45 1.363 . S
C44 H56 0.929 . S
C45 C44 1.363 . S
C45 N47 1.375 . S
C45 H63 0.931 . S
C46 N43 1.311 . S
C46 N47 1.347 . S
C46 H57 0.929 . S
N47 C45 1.375 . S
N47 C46 1.347 . S
C48 C51 1.375 . S
C48 N53 1.312 1_556 S
C48 H54 0.936 . S
C49 C50 1.362 1_554 S
C49 C52 1.378 . S
C49 H64 0.929 . S
C50 C49 1.362 1_556 S
C50 C51 1.366 . S
C51 C48 1.375 . S
C51 C50 1.366 . S
C51 H65 0.930 . S
C52 C49 1.378 . S
C52 N53 1.315 . S
C52 H55 0.930 . S
N53 Co33 2.194 . S
N53 C48 1.312 1_554 S
N53 C52 1.315 . S
H54 C48 0.936 . S
H55 C52 0.930 . S
H56 C44 0.929 . S
H57 C46 0.929 . S
O58 Co33 2.351 . S
O58 C61 1.244 . S
O59 Co33 2.155 . S
O59 C61 1.240 . S
O60 Co33 2.096 . S
O60 C41 1.247 . S
C61 O58 1.244 . S
C61 O59 1.240 . S
H62 C36 0.931 . S
H63 C45 0.931 . S
H64 C49 0.929 . S
H65 C51 0.930 . S
Co66 N70 2.148 . S
Co66 N76 2.128 . S
Co66 N86 2.194 . S
Co66 O91 2.351 . S
Co66 O92 2.155 . S
Co66 O93 2.096 . S
C67 N70 1.301 . S
C67 N71 1.328 . S
C67 H72 0.930 . S
C68 C69 1.333 . S
C68 N70 1.317 . S
C68 H73 0.930 . S
C69 C68 1.333 . S
C69 N71 1.350 . S
C69 H95 0.931 . S
N70 Co66 2.148 . S
N70 C67 1.301 . S
N70 C68 1.317 . S
N71 C67 1.328 . S
N71 C69 1.350 . S
H72 C67 0.930 . S
H73 C68 0.930 . S
C74 O75 1.224 . S
C74 O93 1.247 . S
O75 C74 1.224 . S
N76 Co66 2.128 . S
N76 C77 1.355 . S
N76 C79 1.311 . S
C77 N76 1.355 . S
C77 C78 1.363 . S
C77 H89 0.929 . S
C78 C77 1.363 . S
C78 N80 1.375 . S
C78 H96 0.931 . S
C79 N76 1.311 . S
C79 N80 1.347 . S
C79 H90 0.929 . S
N80 C78 1.375 . S
N80 C79 1.347 . S
C81 C84 1.375 . S
C81 N86 1.312 1_556 S
C81 H87 0.936 . S
C82 C83 1.362 1_554 S
C82 C85 1.378 . S
C82 H97 0.929 . S
C83 C82 1.362 1_556 S
C83 C84 1.366 . S
C84 C81 1.375 . S
C84 C83 1.366 . S
C84 H98 0.930 . S
C85 C82 1.378 . S
C85 N86 1.315 . S
C85 H88 0.930 . S
N86 Co66 2.194 . S
N86 C81 1.312 1_554 S
N86 C85 1.315 . S
H87 C81 0.936 . S
H88 C85 0.930 . S
H89 C77 0.929 . S
H90 C79 0.929 . S
O91 Co66 2.351 . S
O91 C94 1.244 . S
O92 Co66 2.155 . S
O92 C94 1.240 . S
O93 Co66 2.096 . S
O93 C74 1.247 . S
C94 O91 1.244 . S
C94 O92 1.240 . S
H95 C69 0.931 . S
H96 C78 0.931 . S
H97 C82 0.929 . S
H98 C84 0.930 . S
Co99 N103 2.148 . S
Co99 N109 2.128 . S
Co99 N119 2.194 . S
Co99 O124 2.351 . S
Co99 O125 2.155 . S
Co99 O126 2.096 . S
C100 N103 1.301 . S
C100 N104 1.328 1_455 S
C100 H105 0.930 . S
C101 C102 1.333 . S
C101 N103 1.317 1_655 S
C101 H106 0.930 . S
C102 C101 1.333 . S
C102 N104 1.350 . S
C102 H128 0.931 . S
N103 Co99 2.148 . S
N103 C100 1.301 . S
N103 C101 1.317 1_455 S
N104 C100 1.328 1_655 S
N104 C102 1.350 . S
H105 C100 0.930 . S
H106 C101 0.930 . S
C107 O108 1.224 . S
C107 O126 1.247 . S
O108 C107 1.224 . S
N109 Co99 2.128 . S
N109 C110 1.355 . S
N109 C112 1.311 . S
C110 N109 1.355 . S
C110 C111 1.363 . S
C110 H122 0.929 . S
C111 C110 1.363 . S
C111 N113 1.375 . S
C111 H129 0.931 . S
C112 N109 1.311 . S
C112 N113 1.347 . S
C112 H123 0.929 . S
N113 C111 1.375 . S
N113 C112 1.347 . S
C114 C117 1.375 . S
C114 N119 1.312 1_556 S
C114 H120 0.936 . S
C115 C116 1.362 1_554 S
C115 C118 1.378 . S
C115 H130 0.927 1_455 S
C116 C115 1.362 1_556 S
C116 C117 1.366 . S
C117 C114 1.375 . S
C117 C116 1.366 . S
C117 H131 0.930 . S
C118 C115 1.378 . S
C118 N119 1.315 . S
C118 H121 0.930 . S
N119 Co99 2.194 . S
N119 C114 1.312 1_554 S
N119 C118 1.315 . S
H120 C114 0.936 . S
H121 C118 0.930 . S
H122 C110 0.929 . S
H123 C112 0.929 . S
O124 Co99 2.351 . S
O124 C127 1.244 . S
O125 Co99 2.155 . S
O125 C127 1.240 . S
O126 Co99 2.096 . S
O126 C107 1.247 . S
C127 O124 1.244 . S
C127 O125 1.240 . S
H128 C102 0.931 . S
H129 C111 0.931 . S
H130 C115 0.927 1_655 S
H131 C117 0.930 . S
Co132 N136 2.148 . S
Co132 N142 2.128 . S
Co132 N152 2.194 . S
Co132 O157 2.351 . S
Co132 O158 2.155 . S
Co132 O159 2.096 . S
C133 N136 1.301 . S
C133 N137 1.328 . S
C133 H138 0.930 . S
C134 C135 1.333 . S
C134 N136 1.317 . S
C134 H139 0.930 . S
C135 C134 1.333 . S
C135 N137 1.350 . S
C135 H161 0.931 . S
N136 Co132 2.148 . S
N136 C133 1.301 . S
N136 C134 1.317 . S
N137 C133 1.328 . S
N137 C135 1.350 . S
H138 C133 0.930 . S
H139 C134 0.930 . S
C140 O141 1.224 . S
C140 O159 1.247 . S
O141 C140 1.224 . S
N142 Co132 2.128 . S
N142 C143 1.355 . S
N142 C145 1.311 . S
C143 N142 1.355 . S
C143 C144 1.363 . S
C143 H155 0.929 . S
C144 C143 1.363 . S
C144 N146 1.375 . S
C144 H162 0.931 . S
C145 N142 1.311 . S
C145 N146 1.347 . S
C145 H156 0.929 . S
N146 C144 1.375 . S
N146 C145 1.347 . S
C147 C150 1.365 . S
C147 N152 1.328 . S
C147 H153 0.929 . S
C148 C149 1.362 . S
C148 C151 1.378 . S
C148 H163 0.929 . S
C149 C148 1.362 . S
C149 C150 1.366 . S
C150 C147 1.365 . S
C150 C149 1.366 . S
C150 H164 0.930 . S
C151 C148 1.378 . S
C151 N152 1.315 . S
C151 H154 0.930 . S
N152 Co132 2.194 . S
N152 C147 1.328 . S
N152 C151 1.315 . S
H153 C147 0.929 . S
H154 C151 0.930 . S
H155 C143 0.929 . S
H156 C145 0.929 . S
O157 Co132 2.351 . S
O157 C160 1.244 . S
O158 Co132 2.155 . S
O158 C160 1.240 . S
O159 Co132 2.096 . S
O159 C140 1.247 . S
C160 O157 1.244 . S
C160 O158 1.240 . S
H161 C135 0.931 . S
H162 C144 0.931 . S
H163 C148 0.929 . S
H164 C150 0.930 . S
Co165 N169 2.148 . S
Co165 N175 2.128 . S
Co165 N185 2.194 . S
Co165 O190 2.351 . S
Co165 O191 2.155 . S
Co165 O192 2.096 . S
C166 N169 1.301 . S
C166 N170 1.328 1_455 S
C166 H171 0.930 . S
C167 C168 1.333 . S
C167 N169 1.317 1_655 S
C167 H172 0.930 . S
C168 C167 1.333 . S
C168 N170 1.350 . S
C168 H194 0.931 . S
N169 Co165 2.148 . S
N169 C166 1.301 . S
N169 C167 1.317 1_455 S
N170 C166 1.328 1_655 S
N170 C168 1.350 . S
H171 C166 0.930 . S
H172 C167 0.930 . S
C173 O174 1.224 . S
C173 O192 1.247 . S
O174 C173 1.224 . S
N175 Co165 2.128 . S
N175 C176 1.355 . S
N175 C178 1.311 . S
C176 N175 1.355 . S
C176 C177 1.363 . S
C176 H188 0.929 . S
C177 C176 1.363 . S
C177 N179 1.375 . S
C177 H195 0.931 . S
C178 N175 1.311 . S
C178 N179 1.347 . S
C178 H189 0.929 . S
N179 C177 1.375 . S
N179 C178 1.347 . S
C180 C183 1.365 . S
C180 N185 1.328 . S
C180 H186 0.929 . S
C181 C182 1.362 . S
C181 C184 1.378 . S
C181 H196 0.927 1_455 S
C182 C181 1.362 . S
C182 C183 1.366 . S
C183 C180 1.365 . S
C183 C182 1.366 . S
C183 H197 0.930 . S
C184 C181 1.378 . S
C184 N185 1.315 . S
C184 H187 0.930 . S
N185 Co165 2.194 . S
N185 C180 1.328 . S
N185 C184 1.315 . S
H186 C180 0.929 . S
H187 C184 0.930 . S
H188 C176 0.929 . S
H189 C178 0.929 . S
O190 Co165 2.351 . S
O190 C193 1.244 . S
O191 Co165 2.155 . S
O191 C193 1.240 . S
O192 Co165 2.096 . S
O192 C173 1.247 . S
C193 O190 1.244 . S
C193 O191 1.240 . S
H194 C168 0.931 . S
H195 C177 0.931 . S
H196 C181 0.927 1_655 S
H197 C183 0.930 . S
Co198 N202 2.148 . S
Co198 N208 2.128 . S
Co198 N218 2.194 . S
Co198 O223 2.351 . S
Co198 O224 2.155 . S
Co198 O225 2.096 . S
C199 N202 1.301 . S
C199 N203 1.328 1_545 S
C199 H204 0.930 . S
C200 C201 1.333 . S
C200 N202 1.317 1_565 S
C200 H205 0.930 . S
C201 C200 1.333 . S
C201 N203 1.350 . S
C201 H227 0.931 . S
N202 Co198 2.148 . S
N202 C199 1.301 . S
N202 C200 1.317 1_545 S
N203 C199 1.328 1_565 S
N203 C201 1.350 . S
H204 C199 0.930 . S
H205 C200 0.930 . S
C206 O207 1.224 . S
C206 O225 1.247 . S
O207 C206 1.224 . S
N208 Co198 2.128 . S
N208 C209 1.355 . S
N208 C211 1.311 . S
C209 N208 1.355 . S
C209 C210 1.363 . S
C209 H221 0.929 . S
C210 C209 1.363 . S
C210 N212 1.375 . S
C210 H228 0.931 . S
C211 N208 1.311 . S
C211 N212 1.347 . S
C211 H222 0.929 . S
N212 C210 1.375 . S
N212 C211 1.347 . S
C213 C216 1.365 . S
C213 N218 1.328 . S
C213 H219 0.929 . S
C214 C215 1.362 . S
C214 C217 1.378 . S
C214 H229 0.927 1_545 S
C215 C214 1.362 . S
C215 C216 1.366 . S
C216 C213 1.365 . S
C216 C215 1.366 . S
C216 H230 0.930 . S
C217 C214 1.378 . S
C217 N218 1.315 . S
C217 H220 0.930 . S
N218 Co198 2.194 . S
N218 C213 1.328 . S
N218 C217 1.315 . S
H219 C213 0.929 . S
H220 C217 0.930 . S
H221 C209 0.929 . S
H222 C211 0.929 . S
O223 Co198 2.351 . S
O223 C226 1.244 . S
O224 Co198 2.155 . S
O224 C226 1.240 . S
O225 Co198 2.096 . S
O225 C206 1.247 . S
C226 O223 1.244 . S
C226 O224 1.240 . S
H227 C201 0.931 . S
H228 C210 0.931 . S
H229 C214 0.927 1_565 S
H230 C216 0.930 . S
Co231 N235 2.148 . S
Co231 N241 2.128 . S
Co231 N251 2.194 . S
Co231 O256 2.351 . S
Co231 O257 2.155 . S
Co231 O258 2.096 . S
C232 N235 1.301 . S
C232 N236 1.328 . S
C232 H237 0.930 . S
C233 C234 1.333 . S
C233 N235 1.317 . S
C233 H238 0.930 . S
C234 C233 1.333 . S
C234 N236 1.350 . S
C234 H260 0.931 . S
N235 Co231 2.148 . S
N235 C232 1.301 . S
N235 C233 1.317 . S
N236 C232 1.328 . S
N236 C234 1.350 . S
H237 C232 0.930 . S
H238 C233 0.930 . S
C239 O240 1.224 . S
C239 O258 1.247 . S
O240 C239 1.224 . S
N241 Co231 2.128 . S
N241 C242 1.355 . S
N241 C244 1.311 . S
C242 N241 1.355 . S
C242 C243 1.363 . S
C242 H254 0.929 . S
C243 C242 1.363 . S
C243 N245 1.375 . S
C243 H261 0.931 . S
C244 N241 1.311 . S
C244 N245 1.347 . S
C244 H255 0.929 . S
N245 C243 1.375 . S
N245 C244 1.347 . S
C246 C249 1.365 . S
C246 N251 1.328 . S
C246 H252 0.929 . S
C247 C248 1.362 . S
C247 C250 1.378 . S
C247 H262 0.929 . S
C248 C247 1.362 . S
C248 C249 1.366 . S
C249 C246 1.365 . S
C249 C248 1.366 . S
C249 H263 0.930 . S
C250 C247 1.378 . S
C250 N251 1.315 . S
C250 H253 0.930 . S
N251 Co231 2.194 . S
N251 C246 1.328 . S
N251 C250 1.315 . S
H252 C246 0.929 . S
H253 C250 0.930 . S
H254 C242 0.929 . S
H255 C244 0.929 . S
O256 Co231 2.351 . S
O256 C259 1.244 . S
O257 Co231 2.155 . S
O257 C259 1.240 . S
O258 Co231 2.096 . S
O258 C239 1.247 . S
C259 O256 1.244 . S
C259 O257 1.240 . S
H260 C234 0.931 . S
H261 C243 0.931 . S
H262 C247 0.929 . S
H263 C249 0.930 . S
Co264 N268 2.148 . S
Co264 N274 2.128 . S
Co264 N284 2.194 . S
Co264 O289 2.351 . S
Co264 O290 2.155 . S
Co264 O291 2.096 . S
C265 N268 1.301 . S
C265 N269 1.328 1_565 S
C265 H270 0.930 . S
C266 C267 1.333 . S
C266 N268 1.317 1_545 S
C266 H271 0.930 . S
C267 C266 1.333 . S
C267 N269 1.350 . S
C267 H293 0.931 . S
N268 Co264 2.148 . S
N268 C265 1.301 . S
N268 C266 1.317 1_565 S
N269 C265 1.328 1_545 S
N269 C267 1.350 . S
H270 C265 0.930 . S
H271 C266 0.930 . S
C272 O273 1.224 . S
C272 O291 1.247 . S
O273 C272 1.224 . S
N274 Co264 2.128 . S
N274 C275 1.355 . S
N274 C277 1.311 . S
C275 N274 1.355 . S
C275 C276 1.363 . S
C275 H287 0.929 . S
C276 C275 1.363 . S
C276 N278 1.375 . S
C276 H294 0.931 . S
C277 N274 1.311 . S
C277 N278 1.347 . S
C277 H288 0.929 . S
N278 C276 1.375 . S
N278 C277 1.347 . S
C279 C282 1.375 . S
C279 N284 1.312 1_554 S
C279 H285 0.936 . S
C280 C281 1.362 1_556 S
C280 C283 1.378 . S
C280 H295 0.927 1_565 S
C281 C280 1.362 1_554 S
C281 C282 1.366 . S
C282 C279 1.375 . S
C282 C281 1.366 . S
C282 H296 0.930 . S
C283 C280 1.378 . S
C283 N284 1.315 . S
C283 H286 0.930 . S
N284 Co264 2.194 . S
N284 C279 1.312 1_556 S
N284 C283 1.315 . S
H285 C279 0.936 . S
H286 C283 0.930 . S
H287 C275 0.929 . S
H288 C277 0.929 . S
O289 Co264 2.351 . S
O289 C292 1.244 . S
O290 Co264 2.155 . S
O290 C292 1.240 . S
O291 Co264 2.096 . S
O291 C272 1.247 . S
C292 O289 1.244 . S
C292 O290 1.240 . S
H293 C267 0.931 . S
H294 C276 0.931 . S
H295 C280 0.927 1_545 S
H296 C282 0.930 . S
Co297 N301 2.148 . S
Co297 N307 2.128 . S
Co297 N317 2.194 . S
Co297 O322 2.351 . S
Co297 O323 2.155 . S
Co297 O324 2.096 . S
C298 N301 1.301 . S
C298 N302 1.328 . S
C298 H303 0.930 . S
C299 C300 1.333 . S
C299 N301 1.317 . S
C299 H304 0.930 . S
C300 C299 1.333 . S
C300 N302 1.350 . S
C300 H326 0.931 . S
N301 Co297 2.148 . S
N301 C298 1.301 . S
N301 C299 1.317 . S
N302 C298 1.328 . S
N302 C300 1.350 . S
H303 C298 0.930 . S
H304 C299 0.930 . S
C305 O306 1.224 . S
C305 O324 1.247 . S
O306 C305 1.224 . S
N307 Co297 2.128 . S
N307 C308 1.355 . S
N307 C310 1.311 . S
C308 N307 1.355 . S
C308 C309 1.363 . S
C308 H320 0.929 . S
C309 C308 1.363 . S
C309 N311 1.375 . S
C309 H327 0.931 . S
C310 N307 1.311 . S
C310 N311 1.347 . S
C310 H321 0.929 . S
N311 C309 1.375 . S
N311 C310 1.347 . S
C312 C315 1.375 . S
C312 N317 1.312 1_554 S
C312 H318 0.936 . S
C313 C314 1.362 1_556 S
C313 C316 1.378 . S
C313 H328 0.929 . S
C314 C313 1.362 1_554 S
C314 C315 1.366 . S
C315 C312 1.375 . S
C315 C314 1.366 . S
C315 H329 0.930 . S
C316 C313 1.378 . S
C316 N317 1.315 . S
C316 H319 0.930 . S
N317 Co297 2.194 . S
N317 C312 1.312 1_556 S
N317 C316 1.315 . S
H318 C312 0.936 . S
H319 C316 0.930 . S
H320 C308 0.929 . S
H321 C310 0.929 . S
O322 Co297 2.351 . S
O322 C325 1.244 . S
O323 Co297 2.155 . S
O323 C325 1.240 . S
O324 Co297 2.096 . S
O324 C305 1.247 . S
C325 O322 1.244 . S
C325 O323 1.240 . S
H326 C300 0.931 . S
H327 C309 0.931 . S
H328 C313 0.929 . S
H329 C315 0.930 . S
Co330 N334 2.148 . S
Co330 N340 2.128 . S
Co330 N350 2.194 . S
Co330 O355 2.351 . S
Co330 O356 2.155 . S
Co330 O357 2.096 . S
C331 N334 1.301 . S
C331 N335 1.328 . S
C331 H336 0.930 . S
C332 C333 1.333 . S
C332 N334 1.317 . S
C332 H337 0.930 . S
C333 C332 1.333 . S
C333 N335 1.350 . S
C333 H359 0.931 . S
N334 Co330 2.148 . S
N334 C331 1.301 . S
N334 C332 1.317 . S
N335 C331 1.328 . S
N335 C333 1.350 . S
H336 C331 0.930 . S
H337 C332 0.930 . S
C338 O339 1.224 . S
C338 O357 1.247 . S
O339 C338 1.224 . S
N340 Co330 2.128 . S
N340 C341 1.355 . S
N340 C343 1.311 . S
C341 N340 1.355 . S
C341 C342 1.363 . S
C341 H353 0.929 . S
C342 C341 1.363 . S
C342 N344 1.375 . S
C342 H360 0.931 . S
C343 N340 1.311 . S
C343 N344 1.347 . S
C343 H354 0.929 . S
N344 C342 1.375 . S
N344 C343 1.347 . S
C345 C348 1.375 . S
C345 N350 1.312 1_554 S
C345 H351 0.936 . S
C346 C347 1.362 1_556 S
C346 C349 1.378 . S
C346 H361 0.929 . S
C347 C346 1.362 1_554 S
C347 C348 1.366 . S
C348 C345 1.375 . S
C348 C347 1.366 . S
C348 H362 0.930 . S
C349 C346 1.378 . S
C349 N350 1.315 . S
C349 H352 0.930 . S
N350 Co330 2.194 . S
N350 C345 1.312 1_556 S
N350 C349 1.315 . S
H351 C345 0.936 . S
H352 C349 0.930 . S
H353 C341 0.929 . S
H354 C343 0.929 . S
O355 Co330 2.351 . S
O355 C358 1.244 . S
O356 Co330 2.155 . S
O356 C358 1.240 . S
O357 Co330 2.096 . S
O357 C338 1.247 . S
C358 O355 1.244 . S
C358 O356 1.240 . S
H359 C333 0.931 . S
H360 C342 0.931 . S
H361 C346 0.929 . S
H362 C348 0.930 . S
Co363 N367 2.148 . S
Co363 N373 2.128 . S
Co363 N383 2.194 . S
Co363 O388 2.351 . S
Co363 O389 2.155 . S
Co363 O390 2.096 . S
C364 N367 1.301 . S
C364 N368 1.328 1_655 S
C364 H369 0.930 . S
C365 C366 1.333 . S
C365 N367 1.317 1_455 S
C365 H370 0.930 . S
C366 C365 1.333 . S
C366 N368 1.350 . S
C366 H392 0.931 . S
N367 Co363 2.148 . S
N367 C364 1.301 . S
N367 C365 1.317 1_655 S
N368 C364 1.328 1_455 S
N368 C366 1.350 . S
H369 C364 0.930 . S
H370 C365 0.930 . S
C371 O372 1.224 . S
C371 O390 1.247 . S
O372 C371 1.224 . S
N373 Co363 2.128 . S
N373 C374 1.355 . S
N373 C376 1.311 . S
C374 N373 1.355 . S
C374 C375 1.363 . S
C374 H386 0.929 . S
C375 C374 1.363 . S
C375 N377 1.375 . S
C375 H393 0.931 . S
C376 N373 1.311 . S
C376 N377 1.347 . S
C376 H387 0.929 . S
N377 C375 1.375 . S
N377 C376 1.347 . S
C378 C381 1.375 . S
C378 N383 1.312 1_554 S
C378 H384 0.936 . S
C379 C380 1.362 1_556 S
C379 C382 1.378 . S
C379 H394 0.927 1_655 S
C380 C379 1.362 1_554 S
C380 C381 1.366 . S
C381 C378 1.375 . S
C381 C380 1.366 . S
C381 H395 0.930 . S
C382 C379 1.378 . S
C382 N383 1.315 . S
C382 H385 0.930 . S
N383 Co363 2.194 . S
N383 C378 1.312 1_556 S
N383 C382 1.315 . S
H384 C378 0.936 . S
H385 C382 0.930 . S
H386 C374 0.929 . S
H387 C376 0.929 . S
O388 Co363 2.351 . S
O388 C391 1.244 . S
O389 Co363 2.155 . S
O389 C391 1.240 . S
O390 Co363 2.096 . S
O390 C371 1.247 . S
C391 O388 1.244 . S
C391 O389 1.240 . S
H392 C366 0.931 . S
H393 C375 0.931 . S
H394 C379 0.927 1_455 S
H395 C381 0.930 . S
Co396 N400 2.148 . S
Co396 N406 2.128 . S
Co396 N416 2.194 . S
Co396 O421 2.351 . S
Co396 O422 2.155 . S
Co396 O423 2.096 . S
C397 N400 1.301 . S
C397 N401 1.328 . S
C397 H402 0.930 . S
C398 C399 1.333 . S
C398 N400 1.317 . S
C398 H403 0.930 . S
C399 C398 1.333 . S
C399 N401 1.350 . S
C399 H425 0.931 . S
N400 Co396 2.148 . S
N400 C397 1.301 . S
N400 C398 1.317 . S
N401 C397 1.328 . S
N401 C399 1.350 . S
H402 C397 0.930 . S
H403 C398 0.930 . S
C404 O405 1.224 . S
C404 O423 1.247 . S
O405 C404 1.224 . S
N406 Co396 2.128 . S
N406 C407 1.355 . S
N406 C409 1.311 . S
C407 N406 1.355 . S
C407 C408 1.363 . S
C407 H419 0.929 . S
C408 C407 1.363 . S
C408 N410 1.375 . S
C408 H426 0.931 . S
C409 N406 1.311 . S
C409 N410 1.347 . S
C409 H420 0.929 . S
N410 C408 1.375 . S
N410 C409 1.347 . S
C411 C414 1.365 . S
C411 N416 1.328 . S
C411 H417 0.929 . S
C412 C413 1.362 . S
C412 C415 1.378 . S
C412 H427 0.929 . S
C413 C412 1.362 . S
C413 C414 1.366 . S
C414 C411 1.365 . S
C414 C413 1.366 . S
C414 H428 0.930 . S
C415 C412 1.378 . S
C415 N416 1.315 . S
C415 H418 0.930 . S
N416 Co396 2.194 . S
N416 C411 1.328 . S
N416 C415 1.315 . S
H417 C411 0.929 . S
H418 C415 0.930 . S
H419 C407 0.929 . S
H420 C409 0.929 . S
O421 Co396 2.351 . S
O421 C424 1.244 . S
O422 Co396 2.155 . S
O422 C424 1.240 . S
O423 Co396 2.096 . S
O423 C404 1.247 . S
C424 O421 1.244 . S
C424 O422 1.240 . S
H425 C399 0.931 . S
H426 C408 0.931 . S
H427 C412 0.929 . S
H428 C414 0.930 . S
Co429 N433 2.148 . S
Co429 N439 2.128 . S
Co429 N449 2.194 . S
Co429 O454 2.351 . S
Co429 O455 2.155 . S
Co429 O456 2.096 . S
C430 N433 1.301 . S
C430 N434 1.328 1_655 S
C430 H435 0.930 . S
C431 C432 1.333 . S
C431 N433 1.317 1_455 S
C431 H436 0.930 . S
C432 C431 1.333 . S
C432 N434 1.350 . S
C432 H458 0.931 . S
N433 Co429 2.148 . S
N433 C430 1.301 . S
N433 C431 1.317 1_655 S
N434 C430 1.328 1_455 S
N434 C432 1.350 . S
H435 C430 0.930 . S
H436 C431 0.930 . S
C437 O438 1.224 . S
C437 O456 1.247 . S
O438 C437 1.224 . S
N439 Co429 2.128 . S
N439 C440 1.355 . S
N439 C442 1.311 . S
C440 N439 1.355 . S
C440 C441 1.363 . S
C440 H452 0.929 . S
C441 C440 1.363 . S
C441 N443 1.375 . S
C441 H459 0.931 . S
C442 N439 1.311 . S
C442 N443 1.347 . S
C442 H453 0.929 . S
N443 C441 1.375 . S
N443 C442 1.347 . S
C444 C447 1.365 . S
C444 N449 1.328 . S
C444 H450 0.929 . S
C445 C446 1.362 . S
C445 C448 1.378 . S
C445 H460 0.927 1_655 S
C446 C445 1.362 . S
C446 C447 1.366 . S
C447 C444 1.365 . S
C447 C446 1.366 . S
C447 H461 0.930 . S
C448 C445 1.378 . S
C448 N449 1.315 . S
C448 H451 0.930 . S
N449 Co429 2.194 . S
N449 C444 1.328 . S
N449 C448 1.315 . S
H450 C444 0.929 . S
H451 C448 0.930 . S
H452 C440 0.929 . S
H453 C442 0.929 . S
O454 Co429 2.351 . S
O454 C457 1.244 . S
O455 Co429 2.155 . S
O455 C457 1.240 . S
O456 Co429 2.096 . S
O456 C437 1.247 . S
C457 O454 1.244 . S
C457 O455 1.240 . S
H458 C432 0.931 . S
H459 C441 0.931 . S
H460 C445 0.927 1_455 S
H461 C447 0.930 . S
Co462 N466 2.148 . S
Co462 N472 2.128 . S
Co462 N482 2.194 . S
Co462 O487 2.351 . S
Co462 O488 2.155 . S
Co462 O489 2.096 . S
C463 N466 1.301 . S
C463 N467 1.328 1_565 S
C463 H468 0.930 . S
C464 C465 1.333 . S
C464 N466 1.317 1_545 S
C464 H469 0.930 . S
C465 C464 1.333 . S
C465 N467 1.350 . S
C465 H491 0.931 . S
N466 Co462 2.148 . S
N466 C463 1.301 . S
N466 C464 1.317 1_565 S
N467 C463 1.328 1_545 S
N467 C465 1.350 . S
H468 C463 0.930 . S
H469 C464 0.930 . S
C470 O471 1.224 . S
C470 O489 1.247 . S
O471 C470 1.224 . S
N472 Co462 2.128 . S
N472 C473 1.355 . S
N472 C475 1.311 . S
C473 N472 1.355 . S
C473 C474 1.363 . S
C473 H485 0.929 . S
C474 C473 1.363 . S
C474 N476 1.375 . S
C474 H492 0.931 . S
C475 N472 1.311 . S
C475 N476 1.347 . S
C475 H486 0.929 . S
N476 C474 1.375 . S
N476 C475 1.347 . S
C477 C480 1.365 . S
C477 N482 1.328 . S
C477 H483 0.929 . S
C478 C479 1.362 . S
C478 C481 1.378 . S
C478 H493 0.927 1_565 S
C479 C478 1.362 . S
C479 C480 1.366 . S
C480 C477 1.365 . S
C480 C479 1.366 . S
C480 H494 0.930 . S
C481 C478 1.378 . S
C481 N482 1.315 . S
C481 H484 0.930 . S
N482 Co462 2.194 . S
N482 C477 1.328 . S
N482 C481 1.315 . S
H483 C477 0.929 . S
H484 C481 0.930 . S
H485 C473 0.929 . S
H486 C475 0.929 . S
O487 Co462 2.351 . S
O487 C490 1.244 . S
O488 Co462 2.155 . S
O488 C490 1.240 . S
O489 Co462 2.096 . S
O489 C470 1.247 . S
C490 O487 1.244 . S
C490 O488 1.240 . S
H491 C465 0.931 . S
H492 C474 0.931 . S
H493 C478 0.927 1_545 S
H494 C480 0.930 . S
Co495 N499 2.148 . S
Co495 N505 2.128 . S
Co495 N515 2.194 . S
Co495 O520 2.351 . S
Co495 O521 2.155 . S
Co495 O522 2.096 . S
C496 N499 1.301 . S
C496 N500 1.328 . S
C496 H501 0.930 . S
C497 C498 1.333 . S
C497 N499 1.317 . S
C497 H502 0.930 . S
C498 C497 1.333 . S
C498 N500 1.350 . S
C498 H524 0.931 . S
N499 Co495 2.148 . S
N499 C496 1.301 . S
N499 C497 1.317 . S
N500 C496 1.328 . S
N500 C498 1.350 . S
H501 C496 0.930 . S
H502 C497 0.930 . S
C503 O504 1.224 . S
C503 O522 1.247 . S
O504 C503 1.224 . S
N505 Co495 2.128 . S
N505 C506 1.355 . S
N505 C508 1.311 . S
C506 N505 1.355 . S
C506 C507 1.363 . S
C506 H518 0.929 . S
C507 C506 1.363 . S
C507 N509 1.375 . S
C507 H525 0.931 . S
C508 N505 1.311 . S
C508 N509 1.347 . S
C508 H519 0.929 . S
N509 C507 1.375 . S
N509 C508 1.347 . S
C510 C513 1.365 . S
C510 N515 1.328 . S
C510 H516 0.929 . S
C511 C512 1.362 . S
C511 C514 1.378 . S
C511 H526 0.929 . S
C512 C511 1.362 . S
C512 C513 1.366 . S
C513 C510 1.365 . S
C513 C512 1.366 . S
C513 H527 0.930 . S
C514 C511 1.378 . S
C514 N515 1.315 . S
C514 H517 0.930 . S
N515 Co495 2.194 . S
N515 C510 1.328 . S
N515 C514 1.315 . S
H516 C510 0.929 . S
H517 C514 0.930 . S
H518 C506 0.929 . S
H519 C508 0.929 . S
O520 Co495 2.351 . S
O520 C523 1.244 . S
O521 Co495 2.155 . S
O521 C523 1.240 . S
O522 Co495 2.096 . S
O522 C503 1.247 . S
C523 O520 1.244 . S
C523 O521 1.240 . S
H524 C498 0.931 . S
H525 C507 0.931 . S
H526 C511 0.929 . S
H527 C513 0.930 . S
C8 C206 3.535 . S
C239 C41 3.535 . S
C140 C74 3.535 . S
C173 C107 3.535 . S
C272 C470 3.535 . S
C305 C503 3.535 . S
C404 C338 3.535 . S
C371 C437 3.535 . S
N269 N5 3.819 1_546 S
N302 N38 3.819 1_556 S
N335 N71 3.819 1_456 S
N368 N104 3.819 1_446 S
N401 N137 3.819 . S
N434 N170 3.819 1_455 S
N203 N467 3.819 1_665 S
N236 N500 3.819 1_565 S
C314 C28 1.606 . S
C347 C61 1.606 . S
C380 C94 1.606 . S
C281 C127 1.606 . S
C160 C512 1.606 . S
C193 C413 1.606 . S
C226 C446 1.606 . S
C259 C479 1.606 . S
C50 C292 1.606 . S
C83 C325 1.606 . S
C116 C358 1.606 . S
C17 C391 1.606 . S
C248 C424 1.606 . S
C149 C457 1.606 . S
C182 C490 1.606 . S
C523 C215 1.606 . S
N80 N14 0.818 . S
N113 N47 0.818 . S
N146 N212 0.818 . S
N245 N179 0.818 . S
N278 N344 0.818 . S
N377 N311 0.818 . S
N410 N476 0.818 . S
N443 N509 0.818 . S
