# Generated by pormake.
# Topology uov, (4)-cn, num edge types: 1
# Building blocks:
#     Node 0, Type 0, BuildingBlock: CEKHIL_clean_sbu_0, # of connection points: 4
#     Node 1, Type 0, BuildingBlock: CEKHIL_clean_sbu_0, # of connection points: 4
#     Node 2, Type 0, BuildingBlock: CEKHIL_clean_sbu_0, # of connection points: 4
#     Node 3, Type 0, BuildingBlock: CEKHIL_clean_sbu_0, # of connection points: 4
#     Node 4, Type 0, BuildingBlock: CEKHIL_clean_sbu_0, # of connection points: 4
#     Node 5, Type 0, BuildingBlock: CEKHIL_clean_sbu_0, # of connection points: 4
#     Node 6, Type 0, BuildingBlock: CEKHIL_clean_sbu_0, # of connection points: 4
#     Node 7, Type 0, BuildingBlock: CEKHIL_clean_sbu_0, # of connection points: 4
#     Edge 8, Type (0, 0), BuildingBlock: FUNLAD_clean_linker_1, # of connection points: 2
#     Edge 9, Type (0, 0), BuildingBlock: FUNLAD_clean_linker_1, # of connection points: 2
#     Edge 10, Type (0, 0), BuildingBlock: FUNLAD_clean_linker_1, # of connection points: 2
#     Edge 11, Type (0, 0), BuildingBlock: FUNLAD_clean_linker_1, # of connection points: 2
#     Edge 12, Type (0, 0), BuildingBlock: FUNLAD_clean_linker_1, # of connection points: 2
#     Edge 13, Type (0, 0), BuildingBlock: FUNLAD_clean_linker_1, # of connection points: 2
#     Edge 14, Type (0, 0), BuildingBlock: FUNLAD_clean_linker_1, # of connection points: 2
#     Edge 15, Type (0, 0), BuildingBlock: FUNLAD_clean_linker_1, # of connection points: 2
#     Edge 16, Type (0, 0), BuildingBlock: FUNLAD_clean_linker_1, # of connection points: 2
#     Edge 17, Type (0, 0), BuildingBlock: FUNLAD_clean_linker_1, # of connection points: 2
#     Edge 18, Type (0, 0), BuildingBlock: FUNLAD_clean_linker_1, # of connection points: 2
#     Edge 19, Type (0, 0), BuildingBlock: FUNLAD_clean_linker_1, # of connection points: 2
#     Edge 20, Type (0, 0), BuildingBlock: FUNLAD_clean_linker_1, # of connection points: 2
#     Edge 21, Type (0, 0), BuildingBlock: FUNLAD_clean_linker_1, # of connection points: 2
#     Edge 22, Type (0, 0), BuildingBlock: FUNLAD_clean_linker_1, # of connection points: 2
#     Edge 23, Type (0, 0), BuildingBlock: FUNLAD_clean_linker_1, # of connection points: 2
# Relax obj value: 0.153
# Max RMSD: 0.151
# Mean RMSD: 0.151
data_MOF--net-uov--node1-CEKHIL_clean_sbu_0--edge1-FUNLAD_clean_linker_1
_symmetry_space_group_name_H-M    P1
_symmetry_Int_Tables_number       1
_symmetry_cell_setting            triclinic
loop_
_symmetry_equiv_pos_as_xyz
'x, y, z'
_cell_length_a     31.008041
_cell_length_b     31.020397
_cell_length_c     43.507057
_cell_angle_alpha  90.067986
_cell_angle_beta   89.969209
_cell_angle_gamma 90.008265
loop_
_atom_site_label
_atom_site_type_symbol
_atom_site_fract_x
_atom_site_fract_y
_atom_site_fract_z
_atom_type_partial_charge
Co0 Co 0.01132 0.25634 0.61542 0.0
O1 O 0.98472 0.30134 0.6393 0.0
O2 O 0.04159 0.31041 0.60918 0.0
C3 C 0.9504 0.22867 0.59519 0.0
O4 O 0.04563 0.21764 0.58607 0.0
Co5 Co 0.99132 0.15996 0.63002 0.0
O6 O 0.01608 0.1513 0.58847 0.0
C7 C 0.05517 0.20697 0.66774 0.0
C8 C 0.01296 0.32728 0.62749 0.0
C9 C 0.04096 0.1788 0.57592 0.0
O10 O 0.05095 0.24072 0.65078 0.0
O11 O 0.03245 0.17281 0.66432 0.0
O12 O 0.96767 0.26309 0.5835 0.0
O13 O 0.96705 0.21576 0.62077 0.0
Co14 Co 0.27206 0.99728 0.38912 0.0
O15 O 0.31139 0.0275 0.3624 0.0
O16 O 0.32688 0.96746 0.38758 0.0
C17 C 0.24933 0.05538 0.41578 0.0
O18 O 0.24075 0.95842 0.41982 0.0
Co19 Co 0.17349 0.01627 0.38725 0.0
O20 O 0.17334 0.98376 0.42641 0.0
C21 C 0.21192 0.95822 0.34071 0.0
C22 C 0.33972 0.99854 0.36972 0.0
C23 C 0.20416 0.9587 0.43388 0.0
O24 O 0.24915 0.96173 0.3536 0.0
O25 O 0.17859 0.97927 0.34954 0.0
O26 O 0.28573 0.03709 0.42239 0.0
O27 O 0.23031 0.04127 0.39129 0.0
Co28 Co 0.99468 0.73236 0.61535 0.0
O29 O 0.02429 0.69195 0.64167 0.0
O30 O 0.97181 0.67498 0.60933 0.0
C31 C 0.05361 0.76653 0.59719 0.0
O32 O 0.95869 0.7637 0.58306 0.0
Co33 Co 1.00025 0.83167 0.62601 0.0
O34 O 0.97377 0.83468 0.58463 0.0
C35 C 0.94178 0.77914 0.66454 0.0
C36 C 1.0005 0.66232 0.62915 0.0
C37 C 0.95575 0.80214 0.57214 0.0
O38 O 0.95026 0.74511 0.64855 0.0
O39 O 0.9608 0.81534 0.66047 0.0
O40 O 0.04203 0.7296 0.58575 0.0
O41 O 0.03257 0.77886 0.62122 0.0
Co42 Co 0.74256 0.0056 0.38003 0.0
O43 O 0.70034 0.97483 0.35603 0.0
O44 O 0.68944 0.03831 0.37808 0.0
C45 C 0.76346 0.94944 0.40935 0.0
O46 O 0.77729 0.04568 0.40774 0.0
Co47 Co 0.83977 0.98018 0.3775 0.0
O48 O 0.84261 0.01586 0.41541 0.0
C49 C 0.80177 0.03156 0.32722 0.0
C50 C 0.67401 0.00605 0.36241 0.0
C51 C 0.81367 0.04364 0.42189 0.0
O52 O 0.76603 0.03547 0.34213 0.0
O53 O 0.83306 0.00772 0.33607 0.0
O54 O 0.72859 0.97059 0.41595 0.0
O55 O 0.78166 0.95963 0.38366 0.0
Co56 Co 0.96509 0.27463 0.10989 0.0
O57 O 0.99207 0.32198 0.13163 0.0
O58 O 0.93011 0.32611 0.10658 0.0
C59 C 0.02448 0.25143 0.08479 0.0
O60 O 0.92833 0.23424 0.08356 0.0
Co61 Co 0.99351 0.17909 0.1198 0.0
O62 O 0.95998 0.16899 0.08161 0.0
C63 C 0.93419 0.22079 0.16436 0.0
C64 C 0.96 0.34551 0.12231 0.0
C65 C 0.93166 0.19586 0.07247 0.0
O66 O 0.93283 0.25556 0.14816 0.0
O67 O 0.95856 0.18867 0.15791 0.0
O68 O 0.00297 0.28432 0.07451 0.0
O69 O 0.01243 0.23703 0.1112 0.0
Co70 Co 0.26514 0.02918 0.88809 0.0
O71 O 0.31291 0.99898 0.86921 0.0
O72 O 0.31654 0.06452 0.88924 0.0
C73 C 0.24111 0.97409 0.91727 0.0
O74 O 0.22434 0.06973 0.91084 0.0
Co75 Co 0.16981 0.99931 0.87899 0.0
O76 O 0.15884 0.03876 0.91422 0.0
C77 C 0.21459 0.04683 0.82956 0.0
C78 C 0.33623 0.03238 0.87616 0.0
C79 C 0.18575 0.06806 0.92168 0.0
O80 O 0.24701 0.05487 0.84723 0.0
O81 O 0.18346 0.0218 0.83693 0.0
O82 O 0.27374 0.99707 0.92641 0.0
O83 O 0.22751 0.98204 0.88991 0.0
Co84 Co 0.025 0.74475 0.122 0.0
O85 O 0.99663 0.69594 0.14094 0.0
O86 O 0.06236 0.69479 0.12111 0.0
C87 C 0.96911 0.76603 0.0925 0.0
O88 O 0.06396 0.7868 0.09904 0.0
Co89 Co 0.99136 0.83901 0.13005 0.0
O90 O 0.02949 0.85029 0.09414 0.0
C91 C 0.04067 0.79736 0.18002 0.0
C92 C 0.03082 0.67384 0.13389 0.0
C93 C 0.06014 0.82463 0.08724 0.0
O94 O 0.04979 0.76466 0.16282 0.0
O95 O 0.01462 0.82739 0.17221 0.0
O96 O 0.99343 0.73421 0.08369 0.0
O97 O 0.9764 0.78044 0.11977 0.0
Co98 Co 0.73566 0.96641 0.8823 0.0
O99 O 0.68675 0.99289 0.86221 0.0
O100 O 0.68527 0.93005 0.88625 0.0
C101 C 0.75847 0.0256 0.90778 0.0
O102 O 0.77797 0.93002 0.90707 0.0
Co103 Co 0.83004 0.99739 0.87048 0.0
O104 O 0.84238 0.96351 0.90824 0.0
C105 C 0.78587 0.94248 0.82464 0.0
C106 C 0.66443 0.96002 0.87163 0.0
C107 C 0.81648 0.93444 0.91766 0.0
O108 O 0.75379 0.93614 0.84299 0.0
O109 O 0.81659 0.96892 0.83019 0.0
O110 O 0.72658 0.00296 0.91849 0.0
O111 O 0.77209 0.01459 0.88092 0.0
H112 H 0.03782 0.60813 0.64826 0.0
C113 C 0.00932 0.61623 0.63494 0.0
H114 H 0.95798 0.59273 0.60811 0.0
H115 H 0.03721 0.41897 0.56357 0.0
H116 H 0.02966 0.45887 0.51617 0.0
H117 H 0.00996 0.53586 0.51673 0.0
H118 H 0.99701 0.57321 0.56469 0.0
C119 C 0.98572 0.58453 0.6222 0.0
C120 C 1.00017 0.5385 0.62263 0.0
C121 C 0.00897 0.51731 0.59435 0.0
C122 C 0.02168 0.47319 0.59406 0.0
C123 C 0.02847 0.45261 0.56534 0.0
C124 C 0.02414 0.47512 0.53785 0.0
C125 C 0.01296 0.51842 0.53816 0.0
C126 C 0.00545 0.53943 0.56595 0.0
H127 H 0.98058 0.38533 0.64494 0.0
C128 C 0.00908 0.37414 0.63274 0.0
H129 H 0.06483 0.39231 0.60836 0.0
H130 H 0.98131 0.56706 0.68082 0.0
H131 H 0.99432 0.52888 0.72846 0.0
H132 H 0.025 0.45551 0.72814 0.0
H133 H 0.04156 0.41943 0.68008 0.0
C134 C 0.0369 0.40321 0.6213 0.0
C135 C 0.02678 0.45041 0.62211 0.0
C136 C 0.02004 0.47221 0.65045 0.0
C137 C 0.00517 0.51569 0.65069 0.0
C138 C 0.99499 0.53509 0.67927 0.0
C139 C 0.00195 0.51337 0.70683 0.0
C140 C 0.019 0.47199 0.70665 0.0
C141 C 0.02801 0.4515 0.67887 0.0
H142 H 0.61717 0.97166 0.34466 0.0
C143 C 0.62763 0.0015 0.35546 0.0
H144 H 0.60807 0.05864 0.37759 0.0
H145 H 0.42995 0.97384 0.31199 0.0
H146 H 0.46532 0.98551 0.26296 0.0
H147 H 0.53958 0.01387 0.26062 0.0
H148 H 0.57924 0.02988 0.30732 0.0
C149 C 0.59789 0.02963 0.36558 0.0
C150 C 0.55116 0.01782 0.36633 0.0
C151 C 0.52772 0.01043 0.3388 0.0
C152 C 0.48407 0.9961 0.34013 0.0
C153 C 0.46243 0.9865 0.31231 0.0
C154 C 0.48247 0.99277 0.284 0.0
C155 C 0.52435 0.00858 0.28269 0.0
C156 C 0.54685 0.01737 0.30968 0.0
H157 H 0.3938 0.03346 0.34839 0.0
C158 C 0.38536 0.00438 0.36095 0.0
H159 H 0.40872 0.95008 0.38466 0.0
H160 H 0.58661 0.0283 0.42367 0.0
H161 H 0.55012 0.02028 0.47247 0.0
H162 H 0.47332 0.99991 0.47469 0.0
H163 H 0.43273 0.98692 0.42813 0.0
C164 C 0.41686 0.97822 0.37098 0.0
C165 C 0.4632 0.99122 0.36898 0.0
C166 C 0.48637 0.99959 0.39648 0.0
C167 C 0.53039 0.0125 0.39517 0.0
C168 C 0.55291 0.01936 0.42312 0.0
C169 C 0.53239 0.01474 0.4514 0.0
C170 C 0.48919 0.0032 0.45265 0.0
C171 C 0.4663 0.99569 0.42565 0.0
H172 H 0.93149 0.41056 0.11805 0.0
C173 C 0.95899 0.3928 0.12696 0.0
H174 H 0.01978 0.39725 0.14868 0.0
H175 H 1.00039 0.59126 0.08573 0.0
H176 H 0.00654 0.55366 0.03715 0.0
H177 H 0.00862 0.47423 0.03522 0.0
H178 H 0.00364 0.43195 0.08183 0.0
C179 C 0.99234 0.4146 0.13932 0.0
C180 C 0.9934 0.4628 0.14047 0.0
C181 C 0.99813 0.48718 0.11305 0.0
C182 C 0.99903 0.5331 0.1143 0.0
C183 C 0.00129 0.55644 0.08637 0.0
C184 C 0.00457 0.53524 0.05823 0.0
C185 C 0.00559 0.49053 0.05713 0.0
C186 C 0.00243 0.46663 0.08411 0.0
H187 H 0.06205 0.60992 0.13065 0.0
C188 C 0.03246 0.62635 0.13714 0.0
H189 H 0.96768 0.61889 0.15128 0.0
H190 H 0.98503 0.42621 0.19726 0.0
H191 H 0.98163 0.46382 0.24616 0.0
H192 H 0.98553 0.54318 0.24846 0.0
H193 H 0.99277 0.58554 0.20185 0.0
C194 C 0.99739 0.6029 0.14454 0.0
C195 C 0.9972 0.5547 0.14309 0.0
C196 C 0.99314 0.5303 0.17048 0.0
C197 C 0.99128 0.48441 0.16918 0.0
C198 C 0.98695 0.46104 0.19695 0.0
C199 C 0.9849 0.48222 0.22516 0.0
C200 C 0.98705 0.52692 0.22645 0.0
C201 C 0.99112 0.55084 0.19953 0.0
H202 H 0.40116 0.06163 0.87855 0.0
C203 C 0.38357 0.03283 0.8718 0.0
H204 H 0.38835 0.96901 0.8551 0.0
H205 H 0.57697 0.98736 0.80098 0.0
H206 H 0.53494 0.98653 0.75392 0.0
H207 H 0.45552 0.99059 0.75554 0.0
H208 H 0.41753 0.99541 0.80422 0.0
C209 C 0.40555 0.99781 0.86232 0.0
C210 C 0.45375 0.99677 0.86148 0.0
C211 C 0.47555 0.99409 0.83288 0.0
C212 C 0.52146 0.99215 0.83193 0.0
C213 C 0.54223 0.98928 0.80301 0.0
C214 C 0.5185 0.98871 0.77583 0.0
C215 C 0.47377 0.99095 0.77674 0.0
C216 C 0.45238 0.99363 0.80484 0.0
H217 H 0.60022 0.93012 0.87739 0.0
C218 C 0.61692 0.95836 0.86863 0.0
H219 H 0.61008 0.02045 0.84928 0.0
H220 H 0.42246 0.99653 0.92047 0.0
H221 H 0.46445 0.99978 0.96732 0.0
H222 H 0.54391 0.00176 0.96552 0.0
H223 H 0.58185 0.99958 0.9169 0.0
C224 C 0.59382 0.99216 0.85837 0.0
C225 C 0.54564 0.99282 0.85957 0.0
C226 C 0.52386 0.9959 0.88822 0.0
C227 C 0.47792 0.99687 0.8892 0.0
C228 C 0.45717 0.99748 0.91823 0.0
C229 C 0.4809 0.99908 0.94537 0.0
C230 C 0.52563 1.00003 0.94436 0.0
C231 C 0.54702 0.9985 0.91623 0.0
H232 H 0.24785 0.09539 0.45746 0.0
C233 C 0.2286 0.08449 0.43806 0.0
H234 H 0.16657 0.08338 0.41802 0.0
H235 H 0.13917 0.12421 0.568 0.0
H236 H 0.16967 0.05322 0.57645 0.0
H237 H 0.19549 0.00932 0.53286 0.0
H238 H 0.19251 0.03676 0.48088 0.0
C239 C 0.18631 0.09373 0.43728 0.0
C240 C 0.16515 0.11739 0.46307 0.0
C241 C 0.16463 0.09948 0.49312 0.0
C242 C 0.14663 0.12329 0.51793 0.0
C243 C 0.14998 0.10634 0.54807 0.0
C244 C 0.16775 0.06579 0.55329 0.0
C245 C 0.18251 0.04119 0.52878 0.0
C246 C 0.18102 0.05761 0.49903 0.0
H247 H 0.05776 0.13153 0.54046 0.0
C248 C 0.06605 0.16327 0.54938 0.0
H249 H 0.10878 0.21612 0.54517 0.0
H250 H 0.16027 0.16081 0.40848 0.0
H251 H 0.1254 0.22974 0.39971 0.0
H252 H 0.09016 0.26886 0.44226 0.0
H253 H 0.08988 0.23948 0.49394 0.0
C254 C 0.09989 0.18413 0.5372 0.0
C255 C 0.12556 0.16315 0.5123 0.0
C256 C 0.12575 0.18089 0.48231 0.0
C257 C 0.14563 0.15804 0.45768 0.0
C258 C 0.14533 0.17657 0.42796 0.0
C259 C 0.12546 0.21614 0.42261 0.0
C260 C 0.10564 0.23819 0.44657 0.0
C261 C 0.10573 0.22097 0.47613 0.0
H262 H 0.2193 0.90029 0.46108 0.0
C263 C 0.19608 0.92618 0.45803 0.0
H264 H 0.13561 0.95163 0.47104 0.0
H265 H 0.04214 0.78357 0.51008 0.0
H266 H 0.00579 0.8006 0.4624 0.0
H267 H 0.03384 0.85717 0.428 0.0
H268 H 0.09781 0.89782 0.44149 0.0
C269 C 0.15932 0.92629 0.47452 0.0
C270 C 0.14601 0.88918 0.49398 0.0
C271 C 0.10926 0.86479 0.48529 0.0
C272 C 0.09394 0.83118 0.50461 0.0
C273 C 0.05601 0.80867 0.49595 0.0
C274 C 0.03468 0.81815 0.46862 0.0
C275 C 0.05041 0.85006 0.44929 0.0
C276 C 0.08713 0.87328 0.45742 0.0
H277 H 0.08349 0.8298 0.58877 0.0
C278 C 0.08089 0.79705 0.58004 0.0
H279 H 0.09442 0.75481 0.54332 0.0
H280 H 0.21563 0.93135 0.51852 0.0
H281 H 0.25361 0.91266 0.56534 0.0
H282 H 0.23039 0.85072 0.5968 0.0
H283 H 0.16846 0.80766 0.58192 0.0
C284 C 0.09839 0.78704 0.55272 0.0
C285 C 0.116 0.82125 0.53226 0.0
C286 C 0.15353 0.84478 0.54051 0.0
C287 C 0.16803 0.87939 0.52167 0.0
C288 C 0.20404 0.90392 0.5314 0.0
C289 C 0.22605 0.89364 0.55831 0.0
C290 C 0.2129 0.85884 0.57607 0.0
C291 C 0.17714 0.83454 0.56737 0.0
H292 H 0.77299 0.92486 0.45623 0.0
C293 C 0.78547 0.92348 0.4329 0.0
H294 H 0.83465 0.90055 0.40374 0.0
H295 H 0.9769 0.88986 0.50677 0.0
H296 H 0.00831 0.93946 0.47008 0.0
H297 H 0.9669 0.96403 0.42501 0.0
H298 H 0.89412 0.93888 0.41621 0.0
C299 C 0.82177 0.90128 0.42697 0.0
C300 C 0.84812 0.88273 0.45243 0.0
C301 C 0.8908 0.89787 0.45719 0.0
C302 C 0.91431 0.88459 0.4836 0.0
C303 C 0.95709 0.89978 0.48757 0.0
C304 C 0.97565 0.92812 0.4666 0.0
C305 C 0.95238 0.94187 0.4412 0.0
C306 C 0.91051 0.92706 0.43642 0.0
H307 H 0.92142 0.78092 0.53012 0.0
C308 C 0.93038 0.80884 0.54382 0.0
H309 H 0.92742 0.87644 0.54851 0.0
H310 H 0.77169 0.83942 0.44638 0.0
H311 H 0.73872 0.79228 0.48418 0.0
H312 H 0.7756 0.77637 0.5331 0.0
H313 H 0.84601 0.80623 0.54406 0.0
C314 C 0.91798 0.8485 0.53499 0.0
C315 C 0.89484 0.85706 0.50563 0.0
C316 C 0.8526 0.8409 0.50043 0.0
C317 C 0.82997 0.85247 0.4732 0.0
C318 C 0.78919 0.83356 0.46747 0.0
C319 C 0.77007 0.80618 0.48885 0.0
C320 C 0.79093 0.79706 0.51631 0.0
C321 C 0.83163 0.81418 0.52219 0.0
H322 H 0.80441 0.10591 0.44577 0.0
C323 C 0.82325 0.07636 0.44556 0.0
H324 H 0.87397 0.04122 0.46586 0.0
H325 H 0.98285 0.19507 0.51614 0.0
H326 H 0.03052 0.16391 0.47805 0.0
H327 H 0.00509 0.10681 0.44309 0.0
H328 H 0.93186 0.08014 0.44617 0.0
C329 C 0.85511 0.07077 0.46614 0.0
C330 C 0.86945 0.10596 0.48709 0.0
C331 C 0.9122 0.12189 0.48446 0.0
C332 C 0.92666 0.15546 0.50419 0.0
C333 C 0.96985 0.17004 0.5015 0.0
C334 C 0.99768 0.15243 0.47973 0.0
C335 C 0.98337 0.12021 0.46008 0.0
C336 C 0.94118 0.1051 0.46222 0.0
H337 H 0.91351 0.16912 0.58668 0.0
C338 C 0.9228 0.19991 0.57677 0.0
H339 H 0.92552 0.23777 0.53658 0.0
H340 H 0.78761 0.07886 0.50144 0.0
H341 H 0.73954 0.1109 0.539 0.0
H342 H 0.76293 0.17285 0.57046 0.0
H343 H 0.83494 0.20257 0.56491 0.0
C344 C 0.91433 0.208 0.54706 0.0
C345 C 0.89825 0.17338 0.52634 0.0
C346 C 0.85552 0.15758 0.52898 0.0
C347 C 0.84137 0.12316 0.5098 0.0
C348 C 0.79942 0.10624 0.51431 0.0
C349 C 0.77159 0.1241 0.53601 0.0
C350 C 0.78481 0.15888 0.55381 0.0
C351 C 0.82627 0.17551 0.55047 0.0
H352 H 0.81411 0.06726 0.91761 0.0
C353 C 0.78407 0.05502 0.92711 0.0
H354 H 0.74449 0.05074 0.96636 0.0
H355 H 0.89365 0.07452 0.0626 0.0
H356 H 0.86956 0.00167 0.07273 0.0
H357 H 0.81664 0.96618 0.03882 0.0
H358 H 0.7868 0.00365 0.99498 0.0
C359 C 0.77368 0.06413 0.95635 0.0
C360 C 0.80503 0.08646 0.97695 0.0
C361 C 0.8227 0.06379 0.00228 0.0
C362 C 0.85441 0.08372 0.02118 0.0
C363 C 0.87045 0.06066 0.04688 0.0
C364 C 0.85677 0.0188 0.05308 0.0
C365 C 0.8269 0.99886 0.03405 0.0
C366 C 0.80992 0.0209 0.00896 0.0
H367 H 0.8697 0.19984 0.04748 0.0
C368 C 0.89921 0.18125 0.04987 0.0
H369 H 0.934 0.1262 0.03599 0.0
H370 H 0.77363 0.14127 0.93302 0.0
H371 H 0.8014 0.21217 0.92037 0.0
H372 H 0.86212 0.24348 0.94943 0.0
H373 H 0.89452 0.20473 0.99177 0.0
C374 C 0.9046 0.14492 0.03335 0.0
C375 C 0.8695 0.12583 0.01421 0.0
C376 C 0.85219 0.14832 0.98862 0.0
C377 C 0.81893 0.12916 0.97063 0.0
C378 C 0.80034 0.1534 0.94646 0.0
C379 C 0.81575 0.19427 0.9391 0.0
C380 C 0.84979 0.21198 0.95555 0.0
C381 C 0.8679 0.18946 0.98002 0.0
H382 H 0.18988 0.1328 0.94275 0.0
C383 C 0.17149 0.10297 0.94243 0.0
H384 H 0.11802 0.06909 0.96005 0.0
H385 H 0.13944 0.23722 0.0558 0.0
H386 H 0.21149 0.21091 0.06671 0.0
H387 H 0.24118 0.14845 0.03865 0.0
H388 H 0.19955 0.11267 0.99912 0.0
C389 C 0.1365 0.09887 0.96048 0.0
C390 C 0.11879 0.13551 0.97881 0.0
C391 C 0.14309 0.15487 0.00281 0.0
C392 C 0.12505 0.18932 0.02025 0.0
C393 C 0.15084 0.2097 0.04285 0.0
C394 C 0.19236 0.19512 0.0492 0.0
C395 C 0.20915 0.1601 0.0333 0.0
C396 C 0.18498 0.14008 0.0104 0.0
H397 H 0.06597 0.19578 0.07477 0.0
C398 C 0.0533 0.22554 0.06518 0.0
H399 H 0.04667 0.26357 0.02535 0.0
H400 H 0.0643 0.10762 0.93328 0.0
H401 H 0.99113 0.13168 0.92425 0.0
H402 H 0.95827 0.18783 0.95678 0.0
H403 H 0.99833 0.22046 0.9985 0.0
C404 C 0.06074 0.23486 0.03552 0.0
C405 C 0.08191 0.20265 0.01495 0.0
C406 C 0.05767 0.18337 0.99095 0.0
C407 C 0.07628 0.15016 0.97268 0.0
C408 C 0.05156 0.13221 0.94841 0.0
C409 C 0.0095 0.14583 0.94286 0.0
C410 C 0.99099 0.17746 0.96118 0.0
C411 C 0.01453 0.19606 0.985 0.0
H412 H 0.12554 0.82434 0.06712 0.0
C413 C 0.09404 0.83961 0.06597 0.0
H414 H 0.05522 0.88621 0.04425 0.0
H415 H 0.19591 0.01356 0.99712 0.0
H416 H 0.15452 0.05784 0.0323 0.0
H417 H 0.09903 0.02579 0.06569 0.0
H418 H 0.08398 0.94929 0.06392 0.0
C419 C 0.08685 0.8712 0.04544 0.0
C420 C 0.12199 0.88956 0.02597 0.0
C421 C 0.13151 0.93425 0.0281 0.0
C422 C 0.1645 0.95259 0.00948 0.0
C423 C 0.17195 0.99764 0.01119 0.0
C424 C 0.14835 0.02357 0.03122 0.0
C425 C 0.11703 0.00552 0.05 0.0
C426 C 0.10863 0.96146 0.04863 0.0
H427 H 0.18698 0.93131 0.92853 0.0
C428 C 0.21493 0.94756 0.93822 0.0
H429 H 0.24796 0.96417 0.97889 0.0
H430 H 0.10747 0.80442 0.01174 0.0
H431 H 0.1507 0.75961 0.97815 0.0
H432 H 0.21343 0.7897 0.95064 0.0
H433 H 0.23242 0.8652 0.95594 0.0
C434 C 0.22152 0.94617 0.96868 0.0
C435 C 0.18878 0.92607 0.98932 0.0
C436 C 0.1799 0.88124 0.98762 0.0
C437 C 0.14548 0.86326 0.00509 0.0
C438 C 0.13487 0.81927 0.00063 0.0
C439 C 0.15915 0.79322 0.98109 0.0
C440 C 0.19432 0.81021 0.96549 0.0
C441 C 0.2047 0.85367 0.96859 0.0
H442 H 0.81529 0.87222 0.94224 0.0
C443 C 0.83192 0.90298 0.94057 0.0
H444 H 0.88205 0.94223 0.9575 0.0
H445 H 0.85895 0.77658 0.05645 0.0
H446 H 0.78507 0.80038 0.06342 0.0
H447 H 0.75657 0.8622 0.03416 0.0
H448 H 0.80119 0.89947 0.99701 0.0
C449 C 0.8656 0.91137 0.95914 0.0
C450 C 0.88398 0.87822 0.98028 0.0
C451 C 0.85817 0.85865 0.00337 0.0
C452 C 0.8756 0.82518 0.02196 0.0
C453 C 0.84808 0.80374 0.04296 0.0
C454 C 0.80551 0.81687 0.04704 0.0
C455 C 0.78939 0.85151 0.03044 0.0
C456 C 0.81526 0.87231 0.00889 0.0
H457 H 0.92681 0.81996 0.08006 0.0
C458 C 0.94231 0.79112 0.07109 0.0
H459 H 0.95681 0.75474 0.03148 0.0
H460 H 0.94285 0.90902 0.93854 0.0
H461 H 0.01857 0.89059 0.93556 0.0
H462 H 0.05041 0.83783 0.97123 0.0
H463 H 0.00659 0.80253 0.00979 0.0
C464 C 0.93976 0.78234 0.04095 0.0
C465 C 0.91983 0.81394 0.01937 0.0
C466 C 0.94615 0.83486 0.99726 0.0
C467 C 0.92806 0.86644 0.97737 0.0
C468 C 0.95493 0.88569 0.95484 0.0
C469 C 0.99853 0.87531 0.95278 0.0
C470 C 0.01645 0.84553 0.97283 0.0
C471 C 0.99078 0.8254 0.9948 0.0
H472 H 0.10789 0.23589 0.69564 0.0
C473 C 0.08966 0.20658 0.69134 0.0
H474 H 0.0836 0.14008 0.70066 0.0
H475 H 0.26318 0.09037 0.74777 0.0
H476 H 0.27209 0.07087 0.69389 0.0
H477 H 0.21965 0.0953 0.65494 0.0
H478 H 0.15814 0.13948 0.66954 0.0
C479 C 0.10031 0.16994 0.70606 0.0
C480 C 0.13745 0.16614 0.72755 0.0
C481 C 0.17353 0.14106 0.7186 0.0
C482 C 0.20358 0.12671 0.74102 0.0
C483 C 0.23911 0.10137 0.73156 0.0
C484 C 0.24467 0.09021 0.70077 0.0
C485 C 0.21514 0.10398 0.67884 0.0
C486 C 0.17992 0.12912 0.68751 0.0
H487 H 0.18863 0.05477 0.78319 0.0
C488 C 0.2094 0.0699 0.80024 0.0
H489 H 0.23715 0.1285 0.81482 0.0
H490 H 0.07545 0.21913 0.75168 0.0
H491 H 0.06909 0.2418 0.80486 0.0
H492 H 0.12164 0.21748 0.8437 0.0
H493 H 0.18078 0.17029 0.82962 0.0
C494 C 0.2196 0.11173 0.79681 0.0
C495 C 0.19724 0.1371 0.7724 0.0
C496 C 0.16408 0.16639 0.78079 0.0
C497 C 0.13388 0.18069 0.75834 0.0
C498 C 0.09951 0.20772 0.76768 0.0
C499 C 0.09545 0.22092 0.79816 0.0
C500 C 0.12503 0.20722 0.82003 0.0
C501 C 0.15885 0.18008 0.81162 0.0
H502 H 0.0473 0.82437 0.22625 0.0
C503 C 0.06353 0.80431 0.20929 0.0
H504 H 0.12363 0.78027 0.19452 0.0
H505 H 0.20833 0.94627 0.25613 0.0
H506 H 0.22698 0.95471 0.20242 0.0
H507 H 0.2023 0.90202 0.16375 0.0
H508 H 0.15866 0.8407 0.17856 0.0
C509 C 0.10599 0.79695 0.21254 0.0
C510 C 0.13035 0.82127 0.23661 0.0
C511 C 0.15757 0.85593 0.22775 0.0
C512 C 0.17229 0.8861 0.25015 0.0
C513 C 0.19704 0.92189 0.24031 0.0
C514 C 0.20784 0.92725 0.20948 0.0
C515 C 0.19392 0.89761 0.1877 0.0
C516 C 0.16886 0.86249 0.19655 0.0
H517 H 0.23521 0.90935 0.30724 0.0
C518 C 0.20685 0.92638 0.31552 0.0
H519 H 0.13905 0.93161 0.31346 0.0
H520 H 0.08659 0.75372 0.26178 0.0
H521 H 0.07043 0.74319 0.31598 0.0
H522 H 0.09577 0.79533 0.35487 0.0
H523 H 0.13752 0.85816 0.33991 0.0
C524 C 0.16774 0.91629 0.30413 0.0
C525 C 0.16047 0.88097 0.28144 0.0
C526 C 0.13656 0.84414 0.29057 0.0
C527 C 0.12168 0.8142 0.26817 0.0
C528 C 0.09787 0.77778 0.27792 0.0
C529 C 0.08864 0.77126 0.30891 0.0
C530 C 0.10293 0.80061 0.33081 0.0
C531 C 0.12668 0.83663 0.3219 0.0
H532 H 0.89094 0.74691 0.69257 0.0
C533 C 0.90698 0.77737 0.68797 0.0
H534 H 0.90884 0.84426 0.69694 0.0
H535 H 0.73262 0.89227 0.74689 0.0
H536 H 0.72007 0.90846 0.69284 0.0
H537 H 0.76998 0.88179 0.65288 0.0
H538 H 0.83263 0.83864 0.66666 0.0
C539 C 0.89404 0.81351 0.70257 0.0
C540 C 0.85731 0.81584 0.72456 0.0
C541 C 0.82041 0.84003 0.71614 0.0
C542 C 0.79179 0.85562 0.73913 0.0
C543 C 0.75561 0.88034 0.73019 0.0
C544 C 0.74798 0.8896 0.69933 0.0
C545 C 0.77609 0.87457 0.67682 0.0
C546 C 0.81197 0.85008 0.685 0.0
H547 H 0.81087 0.93002 0.77845 0.0
C548 C 0.7907 0.91647 0.79649 0.0
H549 H 0.76306 0.85929 0.81385 0.0
H550 H 0.92058 0.7639 0.74794 0.0
H551 H 0.93013 0.74392 0.80142 0.0
H552 H 0.87994 0.77025 0.84125 0.0
H553 H 0.81999 0.81688 0.82787 0.0
C554 C 0.77998 0.87452 0.79488 0.0
C555 C 0.8003 0.84724 0.77052 0.0
C556 C 0.83385 0.81825 0.77855 0.0
C557 C 0.86267 0.80277 0.75552 0.0
C558 C 0.89756 0.7762 0.76442 0.0
C559 C 0.90342 0.76452 0.79505 0.0
C560 C 0.87516 0.77936 0.81748 0.0
C561 C 0.84088 0.80613 0.8095 0.0
H562 H 0.83502 0.04661 0.28403 0.0
C563 C 0.80958 0.05754 0.29941 0.0
H564 H 0.7696 0.11006 0.31149 0.0
H565 H 0.9146 0.2303 0.25132 0.0
H566 H 0.91604 0.25294 0.30476 0.0
H567 H 0.86908 0.21806 0.3432 0.0
H568 H 0.82051 0.16021 0.32848 0.0
C569 C 0.79249 0.0969 0.29506 0.0
C570 C 0.81125 0.12558 0.27098 0.0
C571 C 0.83807 0.16057 0.27975 0.0
C572 C 0.865 0.18093 0.25754 0.0
C573 C 0.89325 0.21408 0.26719 0.0
C574 C 0.8944 0.22734 0.29779 0.0
C575 C 0.86796 0.20769 0.31944 0.0
C576 C 0.84023 0.17452 0.3107 0.0
H577 H 0.88054 0.24133 0.19511 0.0
C578 C 0.90325 0.21558 0.19014 0.0
H579 H 0.92176 0.15136 0.19936 0.0
H580 H 0.7562 0.06685 0.24569 0.0
H581 H 0.75182 0.04679 0.19168 0.0
H582 H 0.79859 0.08181 0.15315 0.0
H583 H 0.84985 0.13718 0.16832 0.0
C584 C 0.90024 0.17776 0.20524 0.0
C585 C 0.8645 0.16654 0.22663 0.0
C586 C 0.83419 0.13488 0.21735 0.0
C587 C 0.80744 0.11449 0.23953 0.0
C588 C 0.77775 0.0827 0.22971 0.0
C589 C 0.77477 0.07112 0.19882 0.0
C590 C 0.80109 0.09085 0.17713 0.0
C591 C 0.8305 0.12239 0.18614 0.0
loop_
_geom_bond_atom_site_label_1
_geom_bond_atom_site_label_2
_geom_bond_distance
_geom_bond_site_symmetry_2
_ccdc_geom_bond_type
Co0 O1 2.216 . S
Co0 O2 2.091 . S
Co0 O4 2.004 . S
Co0 O10 2.021 . S
Co0 O12 2.137 . S
Co0 O13 2.244 . S
O1 Co0 2.216 . S
O1 C8 1.247 . S
O2 Co0 2.091 . S
O2 C8 1.261 . S
C3 O12 1.247 . S
C3 O13 1.272 . S
O4 Co0 2.004 . S
O4 C9 1.259 . S
Co5 O6 2.061 . S
Co5 O11 2.052 . S
Co5 O13 2.135 . S
O6 Co5 2.061 . S
O6 C9 1.235 . S
C7 O10 1.238 . S
C7 O11 1.241 . S
C8 O1 1.247 . S
C8 O2 1.261 . S
C9 O4 1.259 . S
C9 O6 1.235 . S
O10 Co0 2.021 . S
O10 C7 1.238 . S
O11 Co5 2.052 . S
O11 C7 1.241 . S
O12 Co0 2.137 . S
O12 C3 1.247 . S
O13 Co0 2.244 . S
O13 C3 1.272 . S
O13 Co5 2.135 . S
Co14 O15 2.216 . S
Co14 O16 2.091 . S
Co14 O18 2.004 . S
Co14 O24 2.021 . S
Co14 O26 2.137 . S
Co14 O27 2.244 . S
O15 Co14 2.216 . S
O15 C22 1.247 . S
O16 Co14 2.091 . S
O16 C22 1.261 . S
C17 O26 1.247 . S
C17 O27 1.272 . S
O18 Co14 2.004 . S
O18 C23 1.259 . S
Co19 O20 2.061 . S
Co19 O25 2.052 . S
Co19 O27 2.135 . S
O20 Co19 2.061 . S
O20 C23 1.235 . S
C21 O24 1.238 . S
C21 O25 1.241 . S
C22 O15 1.247 . S
C22 O16 1.261 . S
C23 O18 1.259 . S
C23 O20 1.235 . S
O24 Co14 2.021 . S
O24 C21 1.238 . S
O25 Co19 2.052 . S
O25 C21 1.241 . S
O26 Co14 2.137 . S
O26 C17 1.247 . S
O27 Co14 2.244 . S
O27 C17 1.272 . S
O27 Co19 2.135 . S
Co28 O29 2.216 . S
Co28 O30 2.091 . S
Co28 O32 2.004 . S
Co28 O38 2.021 . S
Co28 O40 2.137 . S
Co28 O41 2.244 . S
O29 Co28 2.216 . S
O29 C36 1.247 . S
O30 Co28 2.091 . S
O30 C36 1.261 . S
C31 O40 1.247 . S
C31 O41 1.272 . S
O32 Co28 2.004 . S
O32 C37 1.259 . S
Co33 O34 2.061 . S
Co33 O39 2.052 . S
Co33 O41 2.135 . S
O34 Co33 2.061 . S
O34 C37 1.235 . S
C35 O38 1.238 . S
C35 O39 1.241 . S
C36 O29 1.247 . S
C36 O30 1.261 . S
C37 O32 1.259 . S
C37 O34 1.235 . S
O38 Co28 2.021 . S
O38 C35 1.238 . S
O39 Co33 2.052 . S
O39 C35 1.241 . S
O40 Co28 2.137 . S
O40 C31 1.247 . S
O41 Co28 2.244 . S
O41 C31 1.272 . S
O41 Co33 2.135 . S
Co42 O43 2.216 . S
Co42 O44 2.091 . S
Co42 O46 2.004 . S
Co42 O52 2.021 . S
Co42 O54 2.137 . S
Co42 O55 2.244 . S
O43 Co42 2.216 . S
O43 C50 1.247 . S
O44 Co42 2.091 . S
O44 C50 1.261 . S
C45 O54 1.247 . S
C45 O55 1.272 . S
O46 Co42 2.004 . S
O46 C51 1.259 . S
Co47 O48 2.061 . S
Co47 O53 2.052 . S
Co47 O55 2.135 . S
O48 Co47 2.061 . S
O48 C51 1.235 . S
C49 O52 1.238 . S
C49 O53 1.241 . S
C50 O43 1.247 . S
C50 O44 1.261 . S
C51 O46 1.259 . S
C51 O48 1.235 . S
O52 Co42 2.021 . S
O52 C49 1.238 . S
O53 Co47 2.052 . S
O53 C49 1.241 . S
O54 Co42 2.137 . S
O54 C45 1.247 . S
O55 Co42 2.244 . S
O55 C45 1.272 . S
O55 Co47 2.135 . S
Co56 O57 2.216 . S
Co56 O58 2.091 . S
Co56 O60 2.004 . S
Co56 O66 2.021 . S
Co56 O68 2.137 . S
Co56 O69 2.244 . S
O57 Co56 2.216 . S
O57 C64 1.247 . S
O58 Co56 2.091 . S
O58 C64 1.261 . S
C59 O68 1.247 . S
C59 O69 1.272 . S
O60 Co56 2.004 . S
O60 C65 1.259 . S
Co61 O62 2.061 . S
Co61 O67 2.052 . S
Co61 O69 2.135 . S
O62 Co61 2.061 . S
O62 C65 1.235 . S
C63 O66 1.238 . S
C63 O67 1.241 . S
C64 O57 1.247 . S
C64 O58 1.261 . S
C65 O60 1.259 . S
C65 O62 1.235 . S
O66 Co56 2.021 . S
O66 C63 1.238 . S
O67 Co61 2.052 . S
O67 C63 1.241 . S
O68 Co56 2.137 . S
O68 C59 1.247 . S
O69 Co56 2.244 . S
O69 C59 1.272 . S
O69 Co61 2.135 . S
Co70 O71 2.216 . S
Co70 O72 2.091 . S
Co70 O74 2.004 . S
Co70 O80 2.021 . S
Co70 O82 2.137 . S
Co70 O83 2.244 . S
O71 Co70 2.216 . S
O71 C78 1.247 . S
O72 Co70 2.091 . S
O72 C78 1.261 . S
C73 O82 1.247 . S
C73 O83 1.272 . S
O74 Co70 2.004 . S
O74 C79 1.259 . S
Co75 O76 2.061 . S
Co75 O81 2.052 . S
Co75 O83 2.135 . S
O76 Co75 2.061 . S
O76 C79 1.235 . S
C77 O80 1.238 . S
C77 O81 1.241 . S
C78 O71 1.247 . S
C78 O72 1.261 . S
C79 O74 1.259 . S
C79 O76 1.235 . S
O80 Co70 2.021 . S
O80 C77 1.238 . S
O81 Co75 2.052 . S
O81 C77 1.241 . S
O82 Co70 2.137 . S
O82 C73 1.247 . S
O83 Co70 2.244 . S
O83 C73 1.272 . S
O83 Co75 2.135 . S
Co84 O85 2.216 . S
Co84 O86 2.091 . S
Co84 O88 2.004 . S
Co84 O94 2.021 . S
Co84 O96 2.137 . S
Co84 O97 2.244 . S
O85 Co84 2.216 . S
O85 C92 1.247 . S
O86 Co84 2.091 . S
O86 C92 1.261 . S
C87 O96 1.247 . S
C87 O97 1.272 . S
O88 Co84 2.004 . S
O88 C93 1.259 . S
Co89 O90 2.061 . S
Co89 O95 2.052 . S
Co89 O97 2.135 . S
O90 Co89 2.061 . S
O90 C93 1.235 . S
C91 O94 1.238 . S
C91 O95 1.241 . S
C92 O85 1.247 . S
C92 O86 1.261 . S
C93 O88 1.259 . S
C93 O90 1.235 . S
O94 Co84 2.021 . S
O94 C91 1.238 . S
O95 Co89 2.052 . S
O95 C91 1.241 . S
O96 Co84 2.137 . S
O96 C87 1.247 . S
O97 Co84 2.244 . S
O97 C87 1.272 . S
O97 Co89 2.135 . S
Co98 O99 2.216 . S
Co98 O100 2.091 . S
Co98 O102 2.004 . S
Co98 O108 2.021 . S
Co98 O110 2.137 . S
Co98 O111 2.244 . S
O99 Co98 2.216 . S
O99 C106 1.247 . S
O100 Co98 2.091 . S
O100 C106 1.261 . S
C101 O110 1.247 . S
C101 O111 1.272 . S
O102 Co98 2.004 . S
O102 C107 1.259 . S
Co103 O104 2.061 . S
Co103 O109 2.052 . S
Co103 O111 2.135 . S
O104 Co103 2.061 . S
O104 C107 1.235 . S
C105 O108 1.238 . S
C105 O109 1.241 . S
C106 O99 1.247 . S
C106 O100 1.261 . S
C107 O102 1.259 . S
C107 O104 1.235 . S
O108 Co98 2.021 . S
O108 C105 1.238 . S
O109 Co103 2.052 . S
O109 C105 1.241 . S
O110 Co98 2.137 . S
O110 C101 1.247 . S
O111 Co98 2.244 . S
O111 C101 1.272 . S
O111 Co103 2.135 . S
H112 C113 0.951 . S
C113 H112 0.951 . S
C113 C119 1.265 . S
H114 C119 0.950 . S
H115 C123 0.949 . S
H116 C124 0.950 . S
H117 C125 0.951 . S
H118 C126 0.951 . S
C119 C113 1.265 . S
C119 H114 0.950 . S
C119 C120 1.478 . S
C120 C119 1.478 . S
C120 C121 1.397 . S
C120 C137 1.394 . S
C121 C120 1.397 . S
C121 C122 1.438 1_655 S
C121 C126 1.429 . S
C122 C121 1.438 1_455 S
C122 C123 1.428 . S
C122 C135 1.394 . S
C123 H115 0.949 . S
C123 C122 1.428 . S
C123 C124 1.345 1_455 S
C124 H116 0.950 . S
C124 C123 1.345 1_655 S
C124 C125 1.424 . S
C125 H117 0.951 . S
C125 C124 1.424 . S
C125 C126 1.347 . S
C126 H118 0.951 . S
C126 C121 1.429 . S
C126 C125 1.347 . S
H127 C128 0.951 . S
C128 H127 0.951 . S
C128 C134 1.265 . S
H129 C134 0.950 . S
H130 C138 0.949 . S
H131 C139 0.950 . S
H132 C140 0.951 . S
H133 C141 0.951 . S
C134 C128 1.265 . S
C134 H129 0.950 . S
C134 C135 1.478 . S
C135 C122 1.394 . S
C135 C134 1.478 . S
C135 C136 1.397 . S
C136 C135 1.397 . S
C136 C137 1.438 1_455 S
C136 C141 1.429 . S
C137 C120 1.394 . S
C137 C136 1.438 1_655 S
C137 C138 1.428 . S
C138 H130 0.949 . S
C138 C137 1.428 . S
C138 C139 1.345 1_655 S
C139 H131 0.950 . S
C139 C138 1.345 1_455 S
C139 C140 1.424 . S
C140 H132 0.951 . S
C140 C139 1.424 . S
C140 C141 1.347 . S
C141 H133 0.951 . S
C141 C136 1.429 . S
C141 C140 1.347 . S
H142 C143 0.951 . S
C143 H142 0.951 . S
C143 C149 1.265 . S
H144 C149 0.950 . S
H145 C153 0.949 . S
H146 C154 0.950 . S
H147 C155 0.951 . S
H148 C156 0.951 . S
C149 C143 1.265 . S
C149 H144 0.950 . S
C149 C150 1.478 . S
C150 C149 1.478 . S
C150 C151 1.397 . S
C150 C167 1.394 . S
C151 C150 1.397 . S
C151 C152 1.438 1_545 S
C151 C156 1.429 . S
C152 C151 1.438 1_565 S
C152 C153 1.428 . S
C152 C165 1.394 . S
C153 H145 0.949 . S
C153 C152 1.428 . S
C153 C154 1.345 1_565 S
C154 H146 0.950 . S
C154 C153 1.345 1_545 S
C154 C155 1.424 . S
C155 H147 0.951 . S
C155 C154 1.424 . S
C155 C156 1.347 . S
C156 H148 0.951 . S
C156 C151 1.429 . S
C156 C155 1.347 . S
H157 C158 0.951 . S
C158 H157 0.951 . S
C158 C164 1.265 . S
H159 C164 0.950 . S
H160 C168 0.949 . S
H161 C169 0.950 . S
H162 C170 0.951 . S
H163 C171 0.951 . S
C164 C158 1.265 . S
C164 H159 0.950 . S
C164 C165 1.478 . S
C165 C152 1.394 . S
C165 C164 1.478 . S
C165 C166 1.397 . S
C166 C165 1.397 . S
C166 C167 1.438 1_565 S
C166 C171 1.429 . S
C167 C150 1.394 . S
C167 C166 1.438 1_545 S
C167 C168 1.428 . S
C168 H160 0.949 . S
C168 C167 1.428 . S
C168 C169 1.345 1_545 S
C169 H161 0.950 . S
C169 C168 1.345 1_565 S
C169 C170 1.424 . S
C170 H162 0.951 . S
C170 C169 1.424 . S
C170 C171 1.347 . S
C171 H163 0.951 . S
C171 C166 1.429 . S
C171 C170 1.347 . S
H172 C173 0.951 . S
C173 H172 0.951 . S
C173 C179 1.265 . S
H174 C179 0.950 . S
H175 C183 0.949 . S
H176 C184 0.950 . S
H177 C185 0.951 . S
H178 C186 0.956 . S
C179 C173 1.265 . S
C179 H174 0.950 . S
C179 C180 1.478 . S
C180 C179 1.478 . S
C180 C181 1.397 1_655 S
C180 C197 1.394 . S
C181 C180 1.397 1_455 S
C181 C182 1.438 . S
C181 C186 1.429 . S
C182 C181 1.438 . S
C182 C183 1.428 . S
C182 C195 1.394 . S
C183 H175 0.949 . S
C183 C182 1.428 . S
C183 C184 1.345 . S
C184 H176 0.950 . S
C184 C183 1.345 . S
C184 C185 1.424 . S
C185 H177 0.951 . S
C185 C184 1.424 . S
C185 C186 1.347 . S
C186 H178 0.956 . S
C186 C181 1.429 . S
C186 C185 1.347 . S
H187 C188 0.951 . S
C188 H187 0.951 . S
C188 C194 1.265 . S
H189 C194 0.950 . S
H190 C198 0.949 . S
H191 C199 0.950 . S
H192 C200 0.951 . S
H193 C201 0.956 . S
C194 C188 1.265 . S
C194 H189 0.950 . S
C194 C195 1.478 . S
C195 C182 1.394 . S
C195 C194 1.478 . S
C195 C196 1.397 1_455 S
C196 C195 1.397 1_655 S
C196 C197 1.438 . S
C196 C201 1.429 . S
C197 C180 1.394 . S
C197 C196 1.438 . S
C197 C198 1.428 . S
C198 H190 0.949 . S
C198 C197 1.428 . S
C198 C199 1.345 . S
C199 H191 0.950 . S
C199 C198 1.345 . S
C199 C200 1.424 . S
C200 H192 0.951 . S
C200 C199 1.424 . S
C200 C201 1.347 . S
C201 H193 0.956 . S
C201 C196 1.429 . S
C201 C200 1.347 . S
H202 C203 0.951 . S
C203 H202 0.951 . S
C203 C209 1.265 . S
H204 C209 0.950 . S
H205 C213 0.949 . S
H206 C214 0.950 . S
H207 C215 0.951 . S
H208 C216 0.951 1_545 S
C209 C203 1.265 . S
C209 H204 0.950 . S
C209 C210 1.478 . S
C210 C209 1.478 . S
C210 C211 1.397 1_545 S
C210 C227 1.394 . S
C211 C210 1.397 1_565 S
C211 C212 1.438 . S
C211 C216 1.429 . S
C212 C211 1.438 . S
C212 C213 1.428 . S
C212 C225 1.394 . S
C213 H205 0.949 . S
C213 C212 1.428 . S
C213 C214 1.345 . S
C214 H206 0.950 . S
C214 C213 1.345 . S
C214 C215 1.424 . S
C215 H207 0.951 . S
C215 C214 1.424 . S
C215 C216 1.347 . S
C216 H208 0.951 1_565 S
C216 C211 1.429 . S
C216 C215 1.347 . S
H217 C218 0.951 . S
C218 H217 0.951 . S
C218 C224 1.265 . S
H219 C224 0.950 . S
H220 C228 0.949 . S
H221 C229 0.950 1_554 S
H222 C230 0.951 1_554 S
H223 C231 0.951 1_565 S
C224 C218 1.265 . S
C224 H219 0.950 . S
C224 C225 1.478 . S
C225 C212 1.394 . S
C225 C224 1.478 . S
C225 C226 1.397 1_565 S
C226 C225 1.397 1_545 S
C226 C227 1.438 . S
C226 C231 1.429 . S
C227 C210 1.394 . S
C227 C226 1.438 . S
C227 C228 1.428 . S
C228 H220 0.949 . S
C228 C227 1.428 . S
C228 C229 1.345 . S
C229 H221 0.950 1_556 S
C229 C228 1.345 . S
C229 C230 1.424 . S
C230 H222 0.951 1_556 S
C230 C229 1.424 . S
C230 C231 1.347 . S
C231 H223 0.951 1_545 S
C231 C226 1.429 . S
C231 C230 1.347 . S
H232 C233 0.951 . S
C233 H232 0.951 . S
C233 C239 1.265 . S
H234 C239 0.950 . S
H235 C243 0.949 . S
H236 C244 0.950 . S
H237 C245 0.951 1_565 S
H238 C246 0.951 1_565 S
C239 C233 1.265 . S
C239 H234 0.950 . S
C239 C240 1.478 . S
C240 C239 1.478 . S
C240 C241 1.397 . S
C240 C257 1.394 . S
C241 C240 1.397 . S
C241 C242 1.438 . S
C241 C246 1.429 . S
C242 C241 1.438 . S
C242 C243 1.428 . S
C242 C255 1.394 . S
C243 H235 0.949 . S
C243 C242 1.428 . S
C243 C244 1.345 . S
C244 H236 0.950 . S
C244 C243 1.345 . S
C244 C245 1.424 . S
C245 H237 0.951 1_545 S
C245 C244 1.424 . S
C245 C246 1.347 . S
C246 H238 0.951 1_545 S
C246 C241 1.429 . S
C246 C245 1.347 . S
H247 C248 0.951 . S
C248 H247 0.951 . S
C248 C254 1.265 . S
H249 C254 0.950 . S
H250 C258 0.949 . S
H251 C259 0.950 . S
H252 C260 0.951 . S
H253 C261 0.951 . S
C254 C248 1.265 . S
C254 H249 0.950 . S
C254 C255 1.478 . S
C255 C242 1.394 . S
C255 C254 1.478 . S
C255 C256 1.397 . S
C256 C255 1.397 . S
C256 C257 1.438 . S
C256 C261 1.429 . S
C257 C240 1.394 . S
C257 C256 1.438 . S
C257 C258 1.428 . S
C258 H250 0.949 . S
C258 C257 1.428 . S
C258 C259 1.345 . S
C259 H251 0.950 . S
C259 C258 1.345 . S
C259 C260 1.424 . S
C260 H252 0.951 . S
C260 C259 1.424 . S
C260 C261 1.347 . S
C261 H253 0.951 . S
C261 C256 1.429 . S
C261 C260 1.347 . S
H262 C263 0.951 . S
C263 H262 0.951 . S
C263 C269 1.265 . S
H264 C269 0.950 . S
H265 C273 0.949 . S
H266 C274 0.950 . S
H267 C275 0.951 . S
H268 C276 0.951 . S
C269 C263 1.265 . S
C269 H264 0.950 . S
C269 C270 1.478 . S
C270 C269 1.478 . S
C270 C271 1.397 . S
C270 C287 1.394 . S
C271 C270 1.397 . S
C271 C272 1.438 . S
C271 C276 1.429 . S
C272 C271 1.438 . S
C272 C273 1.428 . S
C272 C285 1.394 . S
C273 H265 0.949 . S
C273 C272 1.428 . S
C273 C274 1.345 . S
C274 H266 0.950 . S
C274 C273 1.345 . S
C274 C275 1.424 . S
C275 H267 0.951 . S
C275 C274 1.424 . S
C275 C276 1.347 . S
C276 H268 0.951 . S
C276 C271 1.429 . S
C276 C275 1.347 . S
H277 C278 0.951 . S
C278 H277 0.951 . S
C278 C284 1.265 1_655 S
H279 C284 0.950 . S
H280 C288 0.949 . S
H281 C289 0.950 . S
H282 C290 0.951 . S
H283 C291 0.951 . S
C284 C278 1.265 1_455 S
C284 H279 0.950 . S
C284 C285 1.478 . S
C285 C272 1.394 . S
C285 C284 1.478 . S
C285 C286 1.397 . S
C286 C285 1.397 . S
C286 C287 1.438 . S
C286 C291 1.429 . S
C287 C270 1.394 . S
C287 C286 1.438 . S
C287 C288 1.428 . S
C288 H280 0.949 . S
C288 C287 1.428 . S
C288 C289 1.345 . S
C289 H281 0.950 . S
C289 C288 1.345 . S
C289 C290 1.424 . S
C290 H282 0.951 . S
C290 C289 1.424 . S
C290 C291 1.347 . S
C291 H283 0.951 . S
C291 C286 1.429 . S
C291 C290 1.347 . S
H292 C293 0.951 . S
C293 H292 0.951 . S
C293 C299 1.265 1_545 S
H294 C299 0.950 . S
H295 C303 0.949 . S
H296 C304 0.950 . S
H297 C305 0.951 . S
H298 C306 0.951 . S
C299 C293 1.265 1_565 S
C299 H294 0.950 . S
C299 C300 1.478 . S
C300 C299 1.478 . S
C300 C301 1.397 . S
C300 C317 1.394 . S
C301 C300 1.397 . S
C301 C302 1.438 . S
C301 C306 1.429 . S
C302 C301 1.438 . S
C302 C303 1.428 . S
C302 C315 1.394 . S
C303 H295 0.949 . S
C303 C302 1.428 . S
C303 C304 1.345 . S
C304 H296 0.950 . S
C304 C303 1.345 . S
C304 C305 1.424 . S
C305 H297 0.951 . S
C305 C304 1.424 . S
C305 C306 1.347 . S
C306 H298 0.951 . S
C306 C301 1.429 . S
C306 C305 1.347 . S
H307 C308 0.951 . S
C308 H307 0.951 . S
C308 C314 1.265 . S
H309 C314 0.950 . S
H310 C318 0.949 . S
H311 C319 0.950 . S
H312 C320 0.951 . S
H313 C321 0.951 . S
C314 C308 1.265 . S
C314 H309 0.950 . S
C314 C315 1.478 . S
C315 C302 1.394 . S
C315 C314 1.478 . S
C315 C316 1.397 . S
C316 C315 1.397 . S
C316 C317 1.438 . S
C316 C321 1.429 . S
C317 C300 1.394 . S
C317 C316 1.438 . S
C317 C318 1.428 . S
C318 H310 0.949 . S
C318 C317 1.428 . S
C318 C319 1.345 . S
C319 H311 0.950 . S
C319 C318 1.345 . S
C319 C320 1.424 . S
C320 H312 0.951 . S
C320 C319 1.424 . S
C320 C321 1.347 . S
C321 H313 0.951 . S
C321 C316 1.429 . S
C321 C320 1.347 . S
H322 C323 0.951 . S
C323 H322 0.951 . S
C323 C329 1.265 . S
H324 C329 0.950 . S
H325 C333 0.949 . S
H326 C334 0.950 . S
H327 C335 0.951 . S
H328 C336 0.951 . S
C329 C323 1.265 . S
C329 H324 0.950 . S
C329 C330 1.478 . S
C330 C329 1.478 . S
C330 C331 1.397 . S
C330 C347 1.394 . S
C331 C330 1.397 . S
C331 C332 1.438 . S
C331 C336 1.429 . S
C332 C331 1.438 . S
C332 C333 1.428 . S
C332 C345 1.394 . S
C333 H325 0.949 . S
C333 C332 1.428 . S
C333 C334 1.345 . S
C334 H326 0.950 . S
C334 C333 1.345 . S
C334 C335 1.424 . S
C335 H327 0.951 . S
C335 C334 1.424 . S
C335 C336 1.347 . S
C336 H328 0.951 . S
C336 C331 1.429 . S
C336 C335 1.347 . S
H337 C338 0.951 . S
C338 H337 0.951 . S
C338 C344 1.265 . S
H339 C344 0.950 1_455 S
H340 C348 0.949 . S
H341 C349 0.950 . S
H342 C350 0.951 . S
H343 C351 0.951 . S
C344 C338 1.265 . S
C344 H339 0.950 1_655 S
C344 C345 1.478 . S
C345 C332 1.394 . S
C345 C344 1.478 . S
C345 C346 1.397 . S
C346 C345 1.397 . S
C346 C347 1.438 . S
C346 C351 1.429 . S
C347 C330 1.394 . S
C347 C346 1.438 . S
C347 C348 1.428 . S
C348 H340 0.949 . S
C348 C347 1.428 . S
C348 C349 1.345 . S
C349 H341 0.950 . S
C349 C348 1.345 . S
C349 C350 1.424 . S
C350 H342 0.951 . S
C350 C349 1.424 . S
C350 C351 1.347 . S
C351 H343 0.951 . S
C351 C346 1.429 . S
C351 C350 1.347 . S
H352 C353 0.950 . S
C353 H352 0.950 . S
C353 C359 1.247 1_565 S
H354 C359 0.950 . S
H355 C363 0.949 . S
H356 C364 0.950 . S
H357 C365 0.951 . S
H358 C366 0.951 . S
C359 C353 1.247 1_545 S
C359 H354 0.950 . S
C359 C360 1.478 . S
C360 C359 1.478 . S
C360 C361 1.397 1_556 S
C360 C377 1.394 . S
C361 C360 1.397 1_554 S
C361 C362 1.438 . S
C361 C366 1.429 . S
C362 C361 1.438 . S
C362 C363 1.428 . S
C362 C375 1.394 . S
C363 H355 0.949 . S
C363 C362 1.428 . S
C363 C364 1.345 . S
C364 H356 0.950 . S
C364 C363 1.345 . S
C364 C365 1.424 . S
C365 H357 0.951 . S
C365 C364 1.424 . S
C365 C366 1.347 . S
C366 H358 0.951 . S
C366 C361 1.429 . S
C366 C365 1.347 . S
H367 C368 0.951 . S
C368 H367 0.951 . S
C368 C374 1.265 . S
H369 C374 0.950 . S
H370 C378 0.949 . S
H371 C379 0.950 . S
H372 C380 0.951 . S
H373 C381 0.951 . S
C374 C368 1.265 . S
C374 H369 0.950 . S
C374 C375 1.478 . S
C375 C362 1.394 . S
C375 C374 1.478 . S
C375 C376 1.397 1_554 S
C376 C375 1.397 1_556 S
C376 C377 1.438 . S
C376 C381 1.429 . S
C377 C360 1.394 . S
C377 C376 1.438 . S
C377 C378 1.428 . S
C378 H370 0.949 . S
C378 C377 1.428 . S
C378 C379 1.345 . S
C379 H371 0.950 . S
C379 C378 1.345 . S
C379 C380 1.424 . S
C380 H372 0.951 . S
C380 C379 1.424 . S
C380 C381 1.347 . S
C381 H373 0.951 . S
C381 C376 1.429 . S
C381 C380 1.347 . S
H382 C383 0.951 . S
C383 H382 0.951 . S
C383 C389 1.265 . S
H384 C389 0.950 . S
H385 C393 0.949 . S
H386 C394 0.950 . S
H387 C395 0.951 . S
H388 C396 0.951 . S
C389 C383 1.265 . S
C389 H384 0.950 . S
C389 C390 1.478 . S
C390 C389 1.478 . S
C390 C391 1.397 1_556 S
C390 C407 1.394 . S
C391 C390 1.397 1_554 S
C391 C392 1.438 . S
C391 C396 1.429 . S
C392 C391 1.438 . S
C392 C393 1.428 . S
C392 C405 1.394 . S
C393 H385 0.949 . S
C393 C392 1.428 . S
C393 C394 1.345 . S
C394 H386 0.950 . S
C394 C393 1.345 . S
C394 C395 1.424 . S
C395 H387 0.951 . S
C395 C394 1.424 . S
C395 C396 1.347 . S
C396 H388 0.951 . S
C396 C391 1.429 . S
C396 C395 1.347 . S
H397 C398 0.951 . S
C398 H397 0.951 . S
C398 C404 1.265 1_655 S
H399 C404 0.950 . S
H400 C408 0.949 . S
H401 C409 0.950 . S
H402 C410 0.951 . S
H403 C411 0.951 . S
C404 C398 1.265 1_455 S
C404 H399 0.950 . S
C404 C405 1.478 . S
C405 C392 1.394 . S
C405 C404 1.478 . S
C405 C406 1.397 1_554 S
C406 C405 1.397 1_556 S
C406 C407 1.438 . S
C406 C411 1.429 . S
C407 C390 1.394 . S
C407 C406 1.438 . S
C407 C408 1.428 . S
C408 H400 0.949 . S
C408 C407 1.428 . S
C408 C409 1.345 . S
C409 H401 0.950 . S
C409 C408 1.345 . S
C409 C410 1.424 . S
C410 H402 0.951 . S
C410 C409 1.424 . S
C410 C411 1.347 . S
C411 H403 0.951 . S
C411 C406 1.429 . S
C411 C410 1.347 . S
H412 C413 0.951 . S
C413 H412 0.951 . S
C413 C419 1.265 . S
H414 C419 0.950 . S
H415 C423 0.949 1_545 S
H416 C424 0.950 1_545 S
H417 C425 0.951 . S
H418 C426 0.951 . S
C419 C413 1.265 . S
C419 H414 0.950 . S
C419 C420 1.478 . S
C420 C419 1.478 . S
C420 C421 1.397 . S
C420 C437 1.394 1_554 S
C421 C420 1.397 . S
C421 C422 1.438 1_554 S
C421 C426 1.429 . S
C422 C421 1.438 1_556 S
C422 C423 1.428 . S
C422 C435 1.394 . S
C423 H415 0.949 1_565 S
C423 C422 1.428 . S
C423 C424 1.345 1_556 S
C424 H416 0.950 1_565 S
C424 C423 1.345 1_554 S
C424 C425 1.424 . S
C425 H417 0.951 . S
C425 C424 1.424 . S
C425 C426 1.347 . S
C426 H418 0.951 . S
C426 C421 1.429 . S
C426 C425 1.347 . S
H427 C428 0.951 . S
C428 H427 0.951 . S
C428 C434 1.265 . S
H429 C434 0.950 . S
H430 C438 0.949 1_554 S
H431 C439 0.950 . S
H432 C440 0.951 . S
H433 C441 0.951 . S
C434 C428 1.265 . S
C434 H429 0.950 . S
C434 C435 1.478 . S
C435 C422 1.394 . S
C435 C434 1.478 . S
C435 C436 1.397 . S
C436 C435 1.397 . S
C436 C437 1.438 . S
C436 C441 1.429 . S
C437 C420 1.394 1_556 S
C437 C436 1.438 . S
C437 C438 1.428 . S
C438 H430 0.949 1_556 S
C438 C437 1.428 . S
C438 C439 1.345 . S
C439 H431 0.950 . S
C439 C438 1.345 . S
C439 C440 1.424 . S
C440 H432 0.951 . S
C440 C439 1.424 . S
C440 C441 1.347 . S
C441 H433 0.951 . S
C441 C436 1.429 . S
C441 C440 1.347 . S
H442 C443 0.951 . S
C443 H442 0.951 . S
C443 C449 1.265 . S
H444 C449 0.950 . S
H445 C453 0.949 . S
H446 C454 0.950 . S
H447 C455 0.951 . S
H448 C456 0.939 1_556 S
C449 C443 1.265 . S
C449 H444 0.950 . S
C449 C450 1.478 . S
C450 C449 1.478 . S
C450 C451 1.397 1_556 S
C450 C467 1.394 . S
C451 C450 1.397 1_554 S
C451 C452 1.438 . S
C451 C456 1.429 . S
C452 C451 1.438 . S
C452 C453 1.428 . S
C452 C465 1.394 . S
C453 H445 0.949 . S
C453 C452 1.428 . S
C453 C454 1.345 . S
C454 H446 0.950 . S
C454 C453 1.345 . S
C454 C455 1.424 . S
C455 H447 0.951 . S
C455 C454 1.424 . S
C455 C456 1.347 . S
C456 H448 0.939 1_554 S
C456 C451 1.429 . S
C456 C455 1.347 . S
H457 C458 0.951 . S
C458 H457 0.951 . S
C458 C464 1.265 . S
H459 C464 0.950 1_455 S
H460 C468 0.949 . S
H461 C469 0.950 . S
H462 C470 0.951 . S
H463 C471 0.951 . S
C464 C458 1.265 . S
C464 H459 0.950 1_655 S
C464 C465 1.478 . S
C465 C452 1.394 . S
C465 C464 1.478 . S
C465 C466 1.397 . S
C466 C465 1.397 . S
C466 C467 1.438 1_554 S
C466 C471 1.429 . S
C467 C450 1.394 . S
C467 C466 1.438 1_556 S
C467 C468 1.428 . S
C468 H460 0.949 . S
C468 C467 1.428 . S
C468 C469 1.345 . S
C469 H461 0.950 . S
C469 C468 1.345 . S
C469 C470 1.424 . S
C470 H462 0.951 . S
C470 C469 1.424 . S
C470 C471 1.347 1_556 S
C471 H463 0.951 . S
C471 C466 1.429 . S
C471 C470 1.347 1_554 S
H472 C473 0.951 . S
C473 H472 0.951 . S
C473 C479 1.265 . S
H474 C479 0.950 . S
H475 C483 0.949 . S
H476 C484 0.950 . S
H477 C485 0.951 . S
H478 C486 0.951 . S
C479 C473 1.265 . S
C479 H474 0.950 . S
C479 C480 1.478 . S
C480 C479 1.478 . S
C480 C481 1.397 . S
C480 C497 1.394 . S
C481 C480 1.397 . S
C481 C482 1.438 . S
C481 C486 1.429 . S
C482 C481 1.438 . S
C482 C483 1.428 . S
C482 C495 1.394 . S
C483 H475 0.949 . S
C483 C482 1.428 . S
C483 C484 1.345 . S
C484 H476 0.950 . S
C484 C483 1.345 . S
C484 C485 1.424 . S
C485 H477 0.951 . S
C485 C484 1.424 . S
C485 C486 1.347 . S
C486 H478 0.951 . S
C486 C481 1.429 . S
C486 C485 1.347 . S
H487 C488 0.951 . S
C488 H487 0.951 . S
C488 C494 1.265 . S
H489 C494 0.950 . S
H490 C498 0.949 . S
H491 C499 0.950 . S
H492 C500 0.951 . S
H493 C501 0.951 . S
C494 C488 1.265 . S
C494 H489 0.950 . S
C494 C495 1.478 . S
C495 C482 1.394 . S
C495 C494 1.478 . S
C495 C496 1.397 . S
C496 C495 1.397 . S
C496 C497 1.438 . S
C496 C501 1.429 . S
C497 C480 1.394 . S
C497 C496 1.438 . S
C497 C498 1.428 . S
C498 H490 0.949 . S
C498 C497 1.428 . S
C498 C499 1.345 . S
C499 H491 0.950 . S
C499 C498 1.345 . S
C499 C500 1.424 . S
C500 H492 0.951 . S
C500 C499 1.424 . S
C500 C501 1.347 . S
C501 H493 0.951 . S
C501 C496 1.429 . S
C501 C500 1.347 . S
H502 C503 0.951 . S
C503 H502 0.951 . S
C503 C509 1.265 . S
H504 C509 0.950 . S
H505 C513 0.949 . S
H506 C514 0.950 . S
H507 C515 0.951 . S
H508 C516 0.951 . S
C509 C503 1.265 . S
C509 H504 0.950 . S
C509 C510 1.478 . S
C510 C509 1.478 . S
C510 C511 1.397 . S
C510 C527 1.394 . S
C511 C510 1.397 . S
C511 C512 1.438 . S
C511 C516 1.429 . S
C512 C511 1.438 . S
C512 C513 1.428 . S
C512 C525 1.394 . S
C513 H505 0.949 . S
C513 C512 1.428 . S
C513 C514 1.345 . S
C514 H506 0.950 . S
C514 C513 1.345 . S
C514 C515 1.424 . S
C515 H507 0.951 . S
C515 C514 1.424 . S
C515 C516 1.347 . S
C516 H508 0.951 . S
C516 C511 1.429 . S
C516 C515 1.347 . S
H517 C518 0.951 . S
C518 H517 0.951 . S
C518 C524 1.265 . S
H519 C524 0.950 . S
H520 C528 0.949 . S
H521 C529 0.950 . S
H522 C530 0.951 . S
H523 C531 0.951 . S
C524 C518 1.265 . S
C524 H519 0.950 . S
C524 C525 1.478 . S
C525 C512 1.394 . S
C525 C524 1.478 . S
C525 C526 1.397 . S
C526 C525 1.397 . S
C526 C527 1.438 . S
C526 C531 1.429 . S
C527 C510 1.394 . S
C527 C526 1.438 . S
C527 C528 1.428 . S
C528 H520 0.949 . S
C528 C527 1.428 . S
C528 C529 1.345 . S
C529 H521 0.950 . S
C529 C528 1.345 . S
C529 C530 1.424 . S
C530 H522 0.951 . S
C530 C529 1.424 . S
C530 C531 1.347 . S
C531 H523 0.951 . S
C531 C526 1.429 . S
C531 C530 1.347 . S
H532 C533 0.951 . S
C533 H532 0.951 . S
C533 C539 1.265 . S
H534 C539 0.950 . S
H535 C543 0.949 . S
H536 C544 0.950 . S
H537 C545 0.951 . S
H538 C546 0.951 . S
C539 C533 1.265 . S
C539 H534 0.950 . S
C539 C540 1.478 . S
C540 C539 1.478 . S
C540 C541 1.397 . S
C540 C557 1.394 . S
C541 C540 1.397 . S
C541 C542 1.438 . S
C541 C546 1.429 . S
C542 C541 1.438 . S
C542 C543 1.428 . S
C542 C555 1.394 . S
C543 H535 0.949 . S
C543 C542 1.428 . S
C543 C544 1.345 . S
C544 H536 0.950 . S
C544 C543 1.345 . S
C544 C545 1.424 . S
C545 H537 0.951 . S
C545 C544 1.424 . S
C545 C546 1.347 . S
C546 H538 0.951 . S
C546 C541 1.429 . S
C546 C545 1.347 . S
H547 C548 0.951 . S
C548 H547 0.951 . S
C548 C554 1.265 . S
H549 C554 0.950 . S
H550 C558 0.949 . S
H551 C559 0.950 . S
H552 C560 0.951 . S
H553 C561 0.951 . S
C554 C548 1.265 . S
C554 H549 0.950 . S
C554 C555 1.478 . S
C555 C542 1.394 . S
C555 C554 1.478 . S
C555 C556 1.397 . S
C556 C555 1.397 . S
C556 C557 1.438 . S
C556 C561 1.429 . S
C557 C540 1.394 . S
C557 C556 1.438 . S
C557 C558 1.428 . S
C558 H550 0.949 . S
C558 C557 1.428 . S
C558 C559 1.345 . S
C559 H551 0.950 . S
C559 C558 1.345 . S
C559 C560 1.424 . S
C560 H552 0.951 . S
C560 C559 1.424 . S
C560 C561 1.347 . S
C561 H553 0.951 . S
C561 C556 1.429 . S
C561 C560 1.347 . S
H562 C563 0.951 . S
C563 H562 0.951 . S
C563 C569 1.265 . S
H564 C569 0.950 . S
H565 C573 0.949 . S
H566 C574 0.950 . S
H567 C575 0.951 . S
H568 C576 0.951 . S
C569 C563 1.265 . S
C569 H564 0.950 . S
C569 C570 1.478 . S
C570 C569 1.478 . S
C570 C571 1.397 . S
C570 C587 1.394 . S
C571 C570 1.397 . S
C571 C572 1.438 . S
C571 C576 1.429 . S
C572 C571 1.438 . S
C572 C573 1.428 . S
C572 C585 1.394 . S
C573 H565 0.949 . S
C573 C572 1.428 . S
C573 C574 1.345 . S
C574 H566 0.950 . S
C574 C573 1.345 . S
C574 C575 1.424 . S
C575 H567 0.951 . S
C575 C574 1.424 . S
C575 C576 1.347 . S
C576 H568 0.951 . S
C576 C571 1.429 . S
C576 C575 1.347 . S
H577 C578 0.951 . S
C578 H577 0.951 . S
C578 C584 1.265 . S
H579 C584 0.950 . S
H580 C588 0.949 . S
H581 C589 0.950 . S
H582 C590 0.951 . S
H583 C591 0.951 . S
C584 C578 1.265 . S
C584 H579 0.950 . S
C584 C585 1.478 . S
C585 C572 1.394 . S
C585 C584 1.478 . S
C585 C586 1.397 . S
C586 C585 1.397 . S
C586 C587 1.438 . S
C586 C591 1.429 . S
C587 C570 1.394 . S
C587 C586 1.438 . S
C587 C588 1.428 . S
C588 H580 0.949 . S
C588 C587 1.428 . S
C588 C589 1.345 . S
C589 H581 0.950 . S
C589 C588 1.345 . S
C589 C590 1.424 . S
C590 H582 0.951 . S
C590 C589 1.424 . S
C590 C591 1.347 . S
C591 H583 0.951 . S
C591 C586 1.429 . S
C591 C590 1.347 . S
C113 C36 1.435 . S
C128 C8 1.434 . S
C143 C50 1.435 . S
C158 C22 1.434 . S
C173 C64 1.514 . S
C188 C92 1.514 . S
C203 C78 1.512 . S
C218 C106 1.516 . S
C233 C17 1.074 1_545 S
C248 C9 0.968 . S
C263 C23 1.078 . S
C278 C31 1.064 . S
C293 C45 1.061 . S
C308 C37 1.061 . S
C323 C51 1.011 . S
C338 C3 1.116 1_655 S
C353 C101 1.127 . S
C368 C65 1.112 . S
C383 C79 1.115 . S
C398 C59 1.104 . S
C413 C93 1.081 . S
C428 C73 1.117 1_565 S
C443 C107 1.008 . S
C458 C87 1.116 1_655 S
C473 C7 1.666 . S
C488 C77 1.611 . S
C503 C91 1.612 . S
C518 C21 1.666 . S
C533 C35 1.638 . S
C548 C105 1.579 . S
C563 C49 1.576 . S
C578 C63 1.628 . S
