# Generated by pormake.
# Topology uou, (4)-cn, num edge types: 1
# Building blocks:
#     Node 0, Type 0, BuildingBlock: ICAMEG_clean_sbu_1, # of connection points: 4
#     Node 1, Type 0, BuildingBlock: ICAMEG_clean_sbu_1, # of connection points: 4
#     Node 2, Type 0, BuildingBlock: ICAMEG_clean_sbu_1, # of connection points: 4
#     Node 3, Type 0, BuildingBlock: ICAMEG_clean_sbu_1, # of connection points: 4
#     Node 4, Type 0, BuildingBlock: ICAMEG_clean_sbu_1, # of connection points: 4
#     Node 5, Type 0, BuildingBlock: ICAMEG_clean_sbu_1, # of connection points: 4
#     Node 6, Type 0, BuildingBlock: ICAMEG_clean_sbu_1, # of connection points: 4
#     Node 7, Type 0, BuildingBlock: ICAMEG_clean_sbu_1, # of connection points: 4
#     Node 8, Type 0, BuildingBlock: ICAMEG_clean_sbu_1, # of connection points: 4
#     Node 9, Type 0, BuildingBlock: ICAMEG_clean_sbu_1, # of connection points: 4
#     Node 10, Type 0, BuildingBlock: ICAMEG_clean_sbu_1, # of connection points: 4
#     Node 11, Type 0, BuildingBlock: ICAMEG_clean_sbu_1, # of connection points: 4
#     Node 12, Type 0, BuildingBlock: ICAMEG_clean_sbu_1, # of connection points: 4
#     Node 13, Type 0, BuildingBlock: ICAMEG_clean_sbu_1, # of connection points: 4
#     Node 14, Type 0, BuildingBlock: ICAMEG_clean_sbu_1, # of connection points: 4
#     Node 15, Type 0, BuildingBlock: ICAMEG_clean_sbu_1, # of connection points: 4
#     Edge 16, Type (0, 0), BuildingBlock: UVAHIK_clean_linker_0, # of connection points: 2
#     Edge 17, Type (0, 0), BuildingBlock: UVAHIK_clean_linker_0, # of connection points: 2
#     Edge 18, Type (0, 0), BuildingBlock: UVAHIK_clean_linker_0, # of connection points: 2
#     Edge 19, Type (0, 0), BuildingBlock: UVAHIK_clean_linker_0, # of connection points: 2
#     Edge 20, Type (0, 0), BuildingBlock: UVAHIK_clean_linker_0, # of connection points: 2
#     Edge 21, Type (0, 0), BuildingBlock: UVAHIK_clean_linker_0, # of connection points: 2
#     Edge 22, Type (0, 0), BuildingBlock: UVAHIK_clean_linker_0, # of connection points: 2
#     Edge 23, Type (0, 0), BuildingBlock: UVAHIK_clean_linker_0, # of connection points: 2
#     Edge 24, Type (0, 0), BuildingBlock: UVAHIK_clean_linker_0, # of connection points: 2
#     Edge 25, Type (0, 0), BuildingBlock: UVAHIK_clean_linker_0, # of connection points: 2
#     Edge 26, Type (0, 0), BuildingBlock: UVAHIK_clean_linker_0, # of connection points: 2
#     Edge 27, Type (0, 0), BuildingBlock: UVAHIK_clean_linker_0, # of connection points: 2
#     Edge 28, Type (0, 0), BuildingBlock: UVAHIK_clean_linker_0, # of connection points: 2
#     Edge 29, Type (0, 0), BuildingBlock: UVAHIK_clean_linker_0, # of connection points: 2
#     Edge 30, Type (0, 0), BuildingBlock: UVAHIK_clean_linker_0, # of connection points: 2
#     Edge 31, Type (0, 0), BuildingBlock: UVAHIK_clean_linker_0, # of connection points: 2
#     Edge 32, Type (0, 0), BuildingBlock: UVAHIK_clean_linker_0, # of connection points: 2
#     Edge 33, Type (0, 0), BuildingBlock: UVAHIK_clean_linker_0, # of connection points: 2
#     Edge 34, Type (0, 0), BuildingBlock: UVAHIK_clean_linker_0, # of connection points: 2
#     Edge 35, Type (0, 0), BuildingBlock: UVAHIK_clean_linker_0, # of connection points: 2
#     Edge 36, Type (0, 0), BuildingBlock: UVAHIK_clean_linker_0, # of connection points: 2
#     Edge 37, Type (0, 0), BuildingBlock: UVAHIK_clean_linker_0, # of connection points: 2
#     Edge 38, Type (0, 0), BuildingBlock: UVAHIK_clean_linker_0, # of connection points: 2
#     Edge 39, Type (0, 0), BuildingBlock: UVAHIK_clean_linker_0, # of connection points: 2
#     Edge 40, Type (0, 0), BuildingBlock: UVAHIK_clean_linker_0, # of connection points: 2
#     Edge 41, Type (0, 0), BuildingBlock: UVAHIK_clean_linker_0, # of connection points: 2
#     Edge 42, Type (0, 0), BuildingBlock: UVAHIK_clean_linker_0, # of connection points: 2
#     Edge 43, Type (0, 0), BuildingBlock: UVAHIK_clean_linker_0, # of connection points: 2
#     Edge 44, Type (0, 0), BuildingBlock: UVAHIK_clean_linker_0, # of connection points: 2
#     Edge 45, Type (0, 0), BuildingBlock: UVAHIK_clean_linker_0, # of connection points: 2
#     Edge 46, Type (0, 0), BuildingBlock: UVAHIK_clean_linker_0, # of connection points: 2
#     Edge 47, Type (0, 0), BuildingBlock: UVAHIK_clean_linker_0, # of connection points: 2
# Relax obj value: 0.027
# Max RMSD: 0.084
# Mean RMSD: 0.084
data_MOF--net-uou--node1-ICAMEG_clean_sbu_1--edge1-UVAHIK_clean_linker_0
_symmetry_space_group_name_H-M    P1
_symmetry_Int_Tables_number       1
_symmetry_cell_setting            triclinic
loop_
_symmetry_equiv_pos_as_xyz
'x, y, z'
_cell_length_a     52.675795
_cell_length_b     51.615316
_cell_length_c     74.742257
_cell_angle_alpha  89.997066
_cell_angle_beta   90.003224
_cell_angle_gamma 89.984153
loop_
_atom_site_label
_atom_site_type_symbol
_atom_site_fract_x
_atom_site_fract_y
_atom_site_fract_z
_atom_type_partial_charge
Co0 Co 0.03785 0.06366 0.12338 0.0
Co1 Co 0.09143 0.09518 0.13633 0.0
O2 O 0.07476 0.068 0.12226 0.0
C3 C 0.04431 0.06243 0.08351 0.0
O4 O 0.05503 0.08539 0.08387 0.0
C5 C 0.12493 0.04934 0.14288 0.0
O6 O 0.10482 0.03485 0.14562 0.0
O7 O 0.07682 0.08042 0.15871 0.0
O8 O 0.03695 0.07483 0.14909 0.0
H9 H 0.09576 0.16364 0.18405 0.0
H10 H 0.06992 0.02017 0.11085 0.0
O11 O 0.03736 0.05151 0.09796 0.0
H12 H 0.02322 0.98601 0.16293 0.0
H13 H 0.95494 0.0188 0.11037 0.0
H14 H 0.99554 0.09471 0.13839 0.0
H15 H 0.01641 0.03088 0.15271 0.0
H16 H 1.00147 0.02391 0.10973 0.0
O17 O 0.12247 0.07319 0.13897 0.0
H18 H 0.07504 0.13009 0.16568 0.0
H19 H 0.14385 0.11713 0.13744 0.0
H20 H 0.94897 0.09024 0.13949 0.0
H21 H 0.07711 0.97505 0.12051 0.0
H22 H 0.92836 0.05207 0.1254 0.0
H23 H 0.05371 0.95773 0.14676 0.0
O24 O 0.03313 0.10036 0.11555 0.0
H25 H 0.13411 0.09014 0.07634 0.0
H26 H 0.09454 0.14835 0.12061 0.0
H27 H 0.11082 0.16643 0.09232 0.0
H28 H 0.13084 0.13725 0.06996 0.0
H29 H 0.11736 0.07283 0.10475 0.0
H30 H 0.16538 0.1504 0.15561 0.0
H31 H 0.14127 0.17399 0.17907 0.0
O32 O 0.06141 0.11863 0.13401 0.0
C33 C 0.05321 0.07687 0.16168 0.0
C34 C 0.10646 0.15353 0.17384 0.0
C35 C 0.14554 0.14608 0.1579 0.0
N36 N 0.10818 0.12171 0.15045 0.0
C37 C 0.09481 0.13454 0.16337 0.0
C38 C 0.13326 0.1272 0.14769 0.0
C39 C 0.132 0.15931 0.17105 0.0
C40 C 0.05952 0.0127 0.1222 0.0
N41 N 0.04273 0.02813 0.13117 0.0
C42 C 0.06373 0.98717 0.12764 0.0
C43 C 0.05062 0.97747 0.14239 0.0
C44 C 0.03353 0.99333 0.15148 0.0
C45 C 0.02982 0.01876 0.14565 0.0
C46 C 0.9637 0.03551 0.11657 0.0
C47 C 0.98674 0.07798 0.1323 0.0
C48 C 0.99004 0.03854 0.11621 0.0
N49 N 1.00124 0.05953 0.1241 0.0
C50 C 0.96035 0.07559 0.13293 0.0
C51 C 0.9488 0.05417 0.12502 0.0
C52 C 0.04252 0.12007 0.12341 0.0
C53 C 0.1255 0.10306 0.08599 0.0
C54 C 0.10317 0.1355 0.11094 0.0
C55 C 0.1124 0.14587 0.09495 0.0
C56 C 0.12363 0.12949 0.08242 0.0
N57 N 0.10513 0.10956 0.11437 0.0
C58 C 0.11606 0.09338 0.10213 0.0
Co59 Co 0.46958 0.9384 0.1238 0.0
Co60 Co 0.41612 0.90623 0.13611 0.0
O61 O 0.43276 0.93364 0.12226 0.0
C62 C 0.46361 0.93974 0.08394 0.0
O63 O 0.45282 0.91681 0.08427 0.0
C64 C 0.38177 0.95147 0.14259 0.0
O65 O 0.40155 0.96606 0.14617 0.0
O66 O 0.42999 0.92119 0.15866 0.0
O67 O 0.47002 0.92712 0.14949 0.0
H68 H 0.41147 0.83771 0.18378 0.0
H69 H 0.43723 0.98154 0.11105 0.0
O70 O 0.47048 0.95064 0.09842 0.0
H71 H 0.48245 0.016 0.16369 0.0
H72 H 0.55224 0.98429 0.1118 0.0
H73 H 0.5119 0.90776 0.13919 0.0
H74 H 0.49002 0.97127 0.15342 0.0
H75 H 0.50579 0.97864 0.11064 0.0
O76 O 0.38473 0.92781 0.1383 0.0
H77 H 0.43222 0.87154 0.16567 0.0
H78 H 0.36398 0.88355 0.13655 0.0
H79 H 0.55839 0.91277 0.14081 0.0
H80 H 0.42927 0.0265 0.12077 0.0
H81 H 0.57887 0.95126 0.12704 0.0
H82 H 0.45193 0.04397 0.14729 0.0
O83 O 0.47487 0.90179 0.11595 0.0
H84 H 0.37493 0.91065 0.07557 0.0
H85 H 0.41412 0.85302 0.12037 0.0
H86 H 0.39883 0.8347 0.09188 0.0
H87 H 0.37901 0.86358 0.06926 0.0
H88 H 0.3907 0.9282 0.10419 0.0
H89 H 0.34242 0.85001 0.15446 0.0
H90 H 0.36624 0.82675 0.17823 0.0
O91 O 0.44651 0.88318 0.13419 0.0
C92 C 0.4535 0.92493 0.1619 0.0
C93 C 0.4009 0.84768 0.17344 0.0
C94 C 0.36214 0.8546 0.157 0.0
N95 N 0.39936 0.87948 0.15002 0.0
C96 C 0.41257 0.86683 0.16312 0.0
C97 C 0.37443 0.87365 0.14694 0.0
C98 C 0.37552 0.84155 0.17033 0.0
C99 C 0.4473 0.98908 0.12252 0.0
N100 N 0.46411 0.97382 0.13161 0.0
C101 C 0.44265 0.01452 0.128 0.0
C102 C 0.45535 0.0243 0.1429 0.0
C103 C 0.47246 0.00861 0.15211 0.0
C104 C 0.47661 0.98327 0.14626 0.0
C105 C 0.54354 0.96745 0.11787 0.0
C106 C 0.52064 0.92462 0.13324 0.0
C107 C 0.51725 0.96411 0.11721 0.0
N108 N 0.50611 0.94295 0.12493 0.0
C109 C 0.54699 0.92733 0.13417 0.0
C110 C 0.55847 0.94891 0.12643 0.0
C111 C 0.4656 0.88198 0.12375 0.0
C112 C 0.38346 0.89785 0.08534 0.0
C113 C 0.40557 0.86574 0.11059 0.0
C114 C 0.39691 0.85524 0.09449 0.0
C115 C 0.38579 0.87145 0.0818 0.0
N116 N 0.40318 0.89165 0.11398 0.0
C117 C 0.39234 0.90767 0.10159 0.0
Co118 Co 0.53898 0.94121 0.38016 0.0
Co119 Co 0.59006 0.90523 0.36748 0.0
O120 O 0.5754 0.93392 0.38122 0.0
C121 C 0.54579 0.94182 0.41988 0.0
O122 O 0.55508 0.91822 0.41926 0.0
C123 C 0.62583 0.94858 0.3597 0.0
O124 O 0.60635 0.96366 0.35625 0.0
O125 O 0.57618 0.92016 0.34493 0.0
O126 O 0.53705 0.92982 0.35454 0.0
H127 H 0.58947 0.83506 0.32087 0.0
H128 H 0.57431 0.98211 0.39243 0.0
O129 O 0.53955 0.9535 0.40555 0.0
H130 H 0.53034 0.01927 0.34013 0.0
H131 H 0.45991 0.99282 0.39312 0.0
H132 H 0.49431 0.91348 0.36548 0.0
H133 H 0.52008 0.97522 0.35065 0.0
H134 H 0.5059 0.98394 0.39368 0.0
O135 O 0.62232 0.92516 0.36439 0.0
H136 H 0.57109 0.87043 0.33885 0.0
H137 H 0.64103 0.88001 0.36635 0.0
H138 H 0.44821 0.92172 0.36448 0.0
H139 H 0.58498 0.02637 0.38247 0.0
H140 H 0.43073 0.96163 0.37837 0.0
H141 H 0.56296 0.04519 0.35611 0.0
O142 O 0.53151 0.90517 0.38822 0.0
H143 H 0.63378 0.90924 0.42715 0.0
H144 H 0.58989 0.85251 0.38401 0.0
H145 H 0.6053 0.83426 0.41249 0.0
H146 H 0.62749 0.86268 0.43428 0.0
H147 H 0.61784 0.92676 0.39856 0.0
H148 H 0.66024 0.84486 0.34856 0.0
H149 H 0.63437 0.82206 0.32567 0.0
O150 O 0.55859 0.88391 0.37033 0.0
C151 C 0.55295 0.92572 0.34197 0.0
C152 C 0.60092 0.84481 0.33083 0.0
C153 C 0.64065 0.85033 0.34635 0.0
N154 N 0.60493 0.87721 0.3537 0.0
C155 C 0.5906 0.86483 0.34108 0.0
C156 C 0.62969 0.87027 0.35635 0.0
C157 C 0.62612 0.83754 0.33352 0.0
C158 C 0.56451 0.99026 0.38104 0.0
N159 N 0.54655 0.97613 0.37217 0.0
C160 C 0.57069 0.01529 0.37542 0.0
C161 C 0.55835 0.02582 0.36062 0.0
C162 C 0.54006 0.01128 0.35164 0.0
C163 C 0.53439 0.98632 0.35762 0.0
C164 C 0.4673 0.97538 0.387 0.0
C165 C 0.48687 0.93096 0.37148 0.0
C166 C 0.49332 0.97021 0.38731 0.0
N167 N 0.50281 0.94829 0.37951 0.0
C168 C 0.46074 0.93549 0.3709 0.0
C169 C 0.45094 0.95788 0.37871 0.0
C170 C 0.53958 0.88447 0.38086 0.0
C171 C 0.62421 0.89665 0.41774 0.0
C172 C 0.59947 0.86503 0.39343 0.0
C173 C 0.6082 0.85457 0.40953 0.0
C174 C 0.62065 0.87053 0.42174 0.0
N175 N 0.60308 0.89067 0.38959 0.0
C176 C 0.61522 0.90644 0.40151 0.0
Co177 Co 0.96826 0.06379 0.37941 0.0
Co178 Co 0.91333 0.09389 0.36724 0.0
O179 O 0.93119 0.06667 0.38052 0.0
C180 C 0.96131 0.06119 0.41909 0.0
O181 O 0.94944 0.08356 0.41876 0.0
C182 C 0.88198 0.04688 0.35918 0.0
O183 O 0.90266 0.03318 0.35657 0.0
O184 O 0.92886 0.08147 0.34448 0.0
O185 O 0.96883 0.07595 0.35395 0.0
H186 H 0.90625 0.16525 0.32177 0.0
H187 H 0.93787 0.01866 0.39123 0.0
O188 O 0.96908 0.05086 0.40464 0.0
H189 H 0.98559 0.98823 0.3385 0.0
H190 H 0.05261 0.02144 0.39184 0.0
H191 H 0.00952 0.09692 0.3651 0.0
H192 H 0.99076 0.03295 0.34949 0.0
H193 H 0.00592 0.02487 0.39245 0.0
O194 O 0.88346 0.07063 0.36357 0.0
H195 H 0.92834 0.13151 0.33919 0.0
H196 H 0.85991 0.11332 0.36648 0.0
H197 H 0.05623 0.09416 0.36407 0.0
H198 H 0.93233 0.97367 0.3808 0.0
H199 H 0.07808 0.0562 0.3775 0.0
H200 H 0.95625 0.95822 0.35422 0.0
O201 O 0.97176 0.10029 0.38786 0.0
H202 H 0.87038 0.08214 0.42668 0.0
H203 H 0.90689 0.14565 0.38467 0.0
H204 H 0.88932 0.16072 0.41341 0.0
H205 H 0.87083 0.12886 0.43464 0.0
H206 H 0.88839 0.06788 0.39784 0.0
H207 H 0.83703 0.14671 0.34925 0.0
H208 H 0.86026 0.17303 0.32675 0.0
O209 O 0.94202 0.1187 0.37069 0.0
C210 C 0.95253 0.07847 0.34144 0.0
C211 C 0.89593 0.15395 0.33156 0.0
C212 C 0.85708 0.14352 0.34697 0.0
N213 N 0.89547 0.12052 0.35389 0.0
C214 C 0.90835 0.13484 0.34149 0.0
C215 C 0.87012 0.12458 0.35664 0.0
C216 C 0.87012 0.15828 0.33435 0.0
C217 C 0.94849 0.01201 0.37974 0.0
N218 N 0.96465 0.0284 0.37101 0.0
C219 C 0.94521 0.98654 0.37386 0.0
C220 C 0.95861 0.9779 0.35893 0.0
C221 C 0.97506 0.99473 0.35009 0.0
C222 C 0.97784 0.02007 0.35635 0.0
C223 C 0.0433 0.03805 0.38591 0.0
C224 C 0.01887 0.08028 0.3709 0.0
C225 C 0.01687 0.04013 0.38625 0.0
N226 N 0.00498 0.06099 0.3787 0.0
C227 C 0.04534 0.07885 0.37031 0.0
C228 C 0.05759 0.05756 0.37786 0.0
C229 C 0.96111 0.12022 0.38111 0.0
C230 C 0.87833 0.09621 0.41753 0.0
C231 C 0.89899 0.13165 0.39386 0.0
C232 C 0.889 0.14031 0.41009 0.0
C233 C 0.87862 0.12243 0.42199 0.0
N234 N 0.8986 0.1059 0.38956 0.0
C235 C 0.88848 0.08826 0.40116 0.0
Co236 Co 0.97015 0.93781 0.87973 0.0
Co237 Co 0.91597 0.90734 0.86687 0.0
O238 O 0.93315 0.93423 0.88091 0.0
C239 C 0.96373 0.93934 0.9196 0.0
O240 O 0.95259 0.91658 0.91929 0.0
C241 C 0.88303 0.95377 0.86064 0.0
O242 O 0.90327 0.9682 0.85827 0.0
O243 O 0.93073 0.92192 0.84449 0.0
O244 O 0.97076 0.92654 0.85403 0.0
H245 H 0.91037 0.83907 0.81908 0.0
H246 H 0.93905 0.98204 0.89225 0.0
O247 O 0.97093 0.95004 0.90513 0.0
H248 H 0.98631 0.01499 0.84004 0.0
H249 H 0.05397 0.98094 0.89262 0.0
H250 H 0.01179 0.90584 0.86472 0.0
H251 H 0.99216 0.96999 0.85031 0.0
H252 H 0.00735 0.97683 0.8933 0.0
O253 O 0.88525 0.92981 0.86427 0.0
H254 H 0.93169 0.87225 0.83744 0.0
H255 H 0.86321 0.88622 0.86586 0.0
H256 H 0.05845 0.90931 0.8636 0.0
H257 H 0.93284 0.02729 0.88255 0.0
H258 H 0.07985 0.94707 0.87762 0.0
H259 H 0.95653 0.04401 0.85624 0.0
O260 O 0.97417 0.90105 0.88762 0.0
H261 H 0.87359 0.91307 0.92693 0.0
H262 H 0.91201 0.85421 0.88257 0.0
H263 H 0.8955 0.83639 0.91088 0.0
H264 H 0.87606 0.8659 0.93328 0.0
H265 H 0.89055 0.93011 0.8985 0.0
H266 H 0.8411 0.85335 0.8477 0.0
H267 H 0.86473 0.82944 0.82415 0.0
O268 O 0.94561 0.88336 0.86912 0.0
C269 C 0.95439 0.92497 0.84147 0.0
C270 C 0.89987 0.84932 0.82933 0.0
C271 C 0.86099 0.85736 0.84537 0.0
N272 N 0.89875 0.8811 0.85277 0.0
C273 C 0.91186 0.86811 0.83979 0.0
C274 C 0.8736 0.87601 0.85558 0.0
C275 C 0.87427 0.84394 0.83217 0.0
C276 C 0.94957 0.98925 0.88087 0.0
N277 N 0.96597 0.9734 0.87189 0.0
C278 C 0.94591 0.01486 0.87541 0.0
C279 C 0.95918 0.02421 0.86063 0.0
C280 C 0.97588 0.00793 0.85153 0.0
C281 C 0.97904 0.98243 0.85737 0.0
C282 C 0.04487 0.96441 0.88644 0.0
C283 C 0.02095 0.92239 0.87078 0.0
C284 C 0.01847 0.96194 0.88683 0.0
N285 N 0.00683 0.94118 0.87897 0.0
C286 C 0.04738 0.92422 0.87013 0.0
C287 C 0.05938 0.9454 0.87802 0.0
C288 C 0.96445 0.88153 0.87973 0.0
C289 C 0.88195 0.90001 0.91726 0.0
C290 C 0.90364 0.8672 0.89226 0.0
C291 C 0.89428 0.85698 0.90826 0.0
C292 C 0.88337 0.87354 0.92082 0.0
N293 N 0.90212 0.89318 0.88885 0.0
C294 C 0.8915 0.90954 0.90111 0.0
Co295 Co 0.53821 0.06465 0.88028 0.0
Co296 Co 0.59175 0.09673 0.86811 0.0
O297 O 0.57502 0.06932 0.88189 0.0
C298 C 0.54406 0.06314 0.92014 0.0
O299 O 0.55492 0.08605 0.91986 0.0
C300 C 0.62619 0.05158 0.86151 0.0
O301 O 0.6065 0.03708 0.85753 0.0
O302 O 0.57797 0.0818 0.84551 0.0
O303 O 0.53788 0.07603 0.85461 0.0
H304 H 0.59672 0.16527 0.82047 0.0
H305 H 0.57048 0.02141 0.89296 0.0
O306 O 0.53719 0.05231 0.90564 0.0
H307 H 0.52525 0.98724 0.84023 0.0
H308 H 0.45538 0.01894 0.89205 0.0
H309 H 0.49602 0.09547 0.86487 0.0
H310 H 0.51773 0.03193 0.85059 0.0
H311 H 0.50184 0.02446 0.89331 0.0
O312 O 0.62313 0.07513 0.86603 0.0
H313 H 0.57584 0.13146 0.83851 0.0
H314 H 0.64391 0.11936 0.86781 0.0
H315 H 0.44952 0.09059 0.86316 0.0
H316 H 0.57839 0.97648 0.88315 0.0
H317 H 0.42889 0.0521 0.87682 0.0
H318 H 0.55572 0.95915 0.85658 0.0
O319 O 0.53299 0.10124 0.88819 0.0
H320 H 0.63255 0.09223 0.92877 0.0
H321 H 0.59374 0.14994 0.88386 0.0
H322 H 0.60887 0.16822 0.9124 0.0
H323 H 0.6285 0.1393 0.93508 0.0
H324 H 0.61694 0.07471 0.9001 0.0
H325 H 0.6656 0.1529 0.84998 0.0
H326 H 0.64193 0.17619 0.82614 0.0
O327 O 0.56137 0.11981 0.86996 0.0
C328 C 0.55446 0.07813 0.84223 0.0
C329 C 0.60722 0.15529 0.83083 0.0
C330 C 0.64589 0.14832 0.84738 0.0
N331 N 0.6086 0.12348 0.85425 0.0
C332 C 0.59549 0.13615 0.84112 0.0
C333 C 0.63353 0.12928 0.8574 0.0
C334 C 0.6326 0.16139 0.83402 0.0
C335 C 0.56041 0.01393 0.88146 0.0
N336 N 0.54361 0.02925 0.8724 0.0
C337 C 0.56502 0.98851 0.87594 0.0
C338 C 0.55232 0.97881 0.86102 0.0
C339 C 0.53523 0.99456 0.85183 0.0
C340 C 0.53111 0.01988 0.85773 0.0
C341 C 0.46415 0.03578 0.88603 0.0
C342 C 0.48721 0.0786 0.87077 0.0
C343 C 0.49045 0.03905 0.88674 0.0
N344 N 0.50166 0.0602 0.87908 0.0
C345 C 0.46086 0.07597 0.86979 0.0
C346 C 0.4493 0.05439 0.87747 0.0
C347 C 0.54232 0.12106 0.88042 0.0
C348 C 0.6241 0.10504 0.91898 0.0
C349 C 0.6022 0.13721 0.89367 0.0
C350 C 0.61078 0.14769 0.9098 0.0
C351 C 0.62179 0.13145 0.92252 0.0
N352 N 0.60457 0.11129 0.89028 0.0
C353 C 0.61531 0.09525 0.9027 0.0
Co354 Co 0.46896 0.06098 0.62392 0.0
Co355 Co 0.41737 0.09608 0.6368 0.0
O356 O 0.43244 0.06775 0.62293 0.0
C357 C 0.46213 0.06059 0.58419 0.0
O358 O 0.45267 0.08412 0.58486 0.0
C359 C 0.38236 0.05193 0.6442 0.0
O360 O 0.40211 0.03704 0.64722 0.0
O361 O 0.43156 0.08123 0.65928 0.0
O362 O 0.47079 0.07216 0.64959 0.0
H363 H 0.41703 0.16597 0.68361 0.0
H364 H 0.43426 0.01963 0.61145 0.0
O365 O 0.4685 0.0489 0.59849 0.0
H366 H 0.47874 0.98269 0.66361 0.0
H367 H 0.54871 0.01063 0.61065 0.0
H368 H 0.51328 0.0892 0.63869 0.0
H369 H 0.48834 0.02699 0.6533 0.0
H370 H 0.5026 0.01885 0.61018 0.0
O371 O 0.38543 0.07558 0.63991 0.0
H372 H 0.4359 0.13101 0.66549 0.0
H373 H 0.36599 0.12042 0.63812 0.0
H374 H 0.55949 0.08162 0.63961 0.0
H375 H 0.42427 0.97512 0.6212 0.0
H376 H 0.57749 0.04209 0.62551 0.0
H377 H 0.44654 0.9564 0.64749 0.0
O378 O 0.47593 0.0972 0.61603 0.0
H379 H 0.37344 0.09174 0.57722 0.0
H380 H 0.41663 0.1489 0.62044 0.0
H381 H 0.40077 0.16709 0.59206 0.0
H382 H 0.37893 0.13845 0.57023 0.0
H383 H 0.38981 0.07429 0.60571 0.0
H384 H 0.34631 0.15514 0.65605 0.0
H385 H 0.37191 0.17824 0.67895 0.0
O386 O 0.4485 0.11795 0.63395 0.0
C387 C 0.45488 0.07599 0.66219 0.0
C388 C 0.4057 0.15609 0.67365 0.0
C389 C 0.366 0.14999 0.6582 0.0
N390 N 0.40211 0.12375 0.6507 0.0
C391 C 0.41629 0.1363 0.66332 0.0
C392 C 0.37723 0.13029 0.64812 0.0
C393 C 0.38037 0.16295 0.67104 0.0
C394 C 0.44418 0.01153 0.62281 0.0
N395 N 0.4619 0.02587 0.63176 0.0
C396 C 0.43838 0.98635 0.62831 0.0
C397 C 0.45086 0.97588 0.64308 0.0
C398 C 0.46891 0.99062 0.65214 0.0
C399 C 0.4742 0.01574 0.64627 0.0
C400 C 0.54109 0.02791 0.61686 0.0
C401 C 0.52095 0.07189 0.6326 0.0
C402 C 0.515 0.0327 0.6166 0.0
N403 N 0.50523 0.05441 0.62451 0.0
C404 C 0.54714 0.06773 0.63313 0.0
C405 C 0.55723 0.04556 0.62521 0.0
C406 C 0.46758 0.11772 0.62347 0.0
C407 C 0.38285 0.10443 0.58664 0.0
C408 C 0.4072 0.13629 0.611 0.0
C409 C 0.39822 0.14672 0.59496 0.0
C410 C 0.38597 0.13063 0.58272 0.0
N411 N 0.40402 0.11057 0.61477 0.0
C412 C 0.39208 0.09468 0.60282 0.0
Co413 Co 0.03939 0.94207 0.62335 0.0
Co414 Co 0.09201 0.90827 0.63584 0.0
O415 O 0.07608 0.9363 0.62215 0.0
C416 C 0.04604 0.94309 0.58359 0.0
O417 O 0.05648 0.91999 0.58415 0.0
C418 C 0.12597 0.95321 0.64339 0.0
O419 O 0.10588 0.96753 0.64662 0.0
O420 O 0.07767 0.92255 0.65845 0.0
O421 O 0.03814 0.93066 0.64898 0.0
H422 H 0.0946 0.83803 0.68238 0.0
H423 H 0.07291 0.98441 0.61087 0.0
O424 O 0.03923 0.95434 0.59796 0.0
H425 H 0.028 0.01977 0.66337 0.0
H426 H 0.9582 0.99033 0.61073 0.0
H427 H 0.996 0.91251 0.63823 0.0
H428 H 0.01942 0.97532 0.65293 0.0
H429 H 0.0045 0.98339 0.60998 0.0
O430 O 0.12345 0.92958 0.6389 0.0
H431 H 0.07467 0.87265 0.6645 0.0
H432 H 0.14399 0.88526 0.6368 0.0
H433 H 0.94962 0.91881 0.63943 0.0
H434 H 0.08188 0.02909 0.62075 0.0
H435 H 0.93043 0.95795 0.62561 0.0
H436 H 0.05939 0.04702 0.64721 0.0
O437 O 0.03329 0.90573 0.61535 0.0
H438 H 0.13526 0.9143 0.57609 0.0
H439 H 0.09393 0.85563 0.61924 0.0
H440 H 0.10999 0.83812 0.59072 0.0
H441 H 0.13089 0.86753 0.56893 0.0
H442 H 0.11872 0.93105 0.60473 0.0
H443 H 0.16472 0.85091 0.65449 0.0
H444 H 0.13996 0.82697 0.67743 0.0
O445 O 0.06143 0.8856 0.63305 0.0
C446 C 0.05427 0.92721 0.6615 0.0
C447 C 0.10558 0.84829 0.67239 0.0
C448 C 0.14494 0.85554 0.65676 0.0
N449 N 0.10811 0.88089 0.64956 0.0
C450 C 0.09438 0.86788 0.6622 0.0
C451 C 0.13312 0.87502 0.64682 0.0
C452 C 0.13103 0.8421 0.66962 0.0
C453 C 0.0629 0.99216 0.62231 0.0
N454 N 0.04563 0.9773 0.63128 0.0
C455 C 0.06812 0.01744 0.62787 0.0
C456 C 0.05552 0.02747 0.64274 0.0
C457 C 0.03793 0.01218 0.65182 0.0
C458 C 0.03321 0.98699 0.64588 0.0
C459 C 0.96634 0.97321 0.61682 0.0
C460 C 0.98781 0.92966 0.63226 0.0
C461 C 0.99255 0.96914 0.6164 0.0
N462 N 1.00297 0.94763 0.62415 0.0
C463 C 0.96153 0.93309 0.63295 0.0
C464 C 0.95077 0.95505 0.62518 0.0
C465 C 0.04221 0.88539 0.6227 0.0
C466 C 0.12626 0.90128 0.5855 0.0
C467 C 0.10294 0.86857 0.60982 0.0
C468 C 0.11204 0.85853 0.5937 0.0
C469 C 0.12377 0.87504 0.58148 0.0
N470 N 0.10551 0.89433 0.61369 0.0
C471 C 0.11694 0.91064 0.60176 0.0
Co472 Co 0.53893 0.56114 0.12477 0.0
Co473 Co 0.59146 0.59459 0.13775 0.0
O474 O 0.57564 0.56677 0.12382 0.0
C475 C 0.54591 0.56044 0.08504 0.0
O476 O 0.55601 0.58369 0.08567 0.0
C477 C 0.62528 0.54942 0.14505 0.0
O478 O 0.60514 0.53503 0.14793 0.0
O479 O 0.57683 0.58004 0.16018 0.0
O480 O 0.53735 0.57238 0.15043 0.0
H481 H 0.5936 0.66421 0.18473 0.0
H482 H 0.57244 0.51871 0.11237 0.0
O483 O 0.53913 0.54903 0.09935 0.0
H484 H 0.52665 0.4832 0.16443 0.0
H485 H 0.45776 0.51334 0.11134 0.0
H486 H 0.49542 0.59074 0.13946 0.0
H487 H 0.51843 0.52778 0.1541 0.0
H488 H 0.5041 0.52009 0.11096 0.0
O489 O 0.62283 0.57318 0.14086 0.0
H490 H 0.57383 0.62989 0.16651 0.0
H491 H 0.64347 0.61746 0.13918 0.0
H492 H 0.449 0.58463 0.14028 0.0
H493 H 0.58104 0.4739 0.12213 0.0
H494 H 0.42988 0.5457 0.12615 0.0
H495 H 0.5581 0.4559 0.14837 0.0
O496 O 0.53306 0.59756 0.11686 0.0
H497 H 0.63539 0.58921 0.07822 0.0
H498 H 0.59372 0.64745 0.12151 0.0
H499 H 0.61018 0.66529 0.0932 0.0
H500 H 0.63125 0.63611 0.07134 0.0
H501 H 0.61845 0.57213 0.10665 0.0
H502 H 0.66405 0.65151 0.15721 0.0
H503 H 0.63904 0.67522 0.18014 0.0
O504 O 0.56096 0.61738 0.13491 0.0
C505 C 0.55336 0.57553 0.16306 0.0
C506 C 0.60469 0.65406 0.17476 0.0
C507 C 0.64423 0.64691 0.15932 0.0
N508 N 0.60744 0.62176 0.15173 0.0
C509 C 0.59358 0.63464 0.16437 0.0
C510 C 0.63249 0.62759 0.14919 0.0
C511 C 0.63018 0.66021 0.17218 0.0
C512 C 0.56223 0.51093 0.12371 0.0
N513 N 0.54492 0.52583 0.13262 0.0
C514 C 0.56725 0.48558 0.12921 0.0
C515 C 0.5544 0.4755 0.14395 0.0
C516 C 0.53676 0.49082 0.15298 0.0
C517 C 0.53226 0.51609 0.1471 0.0
C518 C 0.46587 0.53036 0.11757 0.0
C519 C 0.48726 0.57369 0.13336 0.0
C520 C 0.4921 0.53433 0.11736 0.0
N521 N 0.50248 0.55572 0.12529 0.0
C522 C 0.46096 0.57036 0.13383 0.0
C523 C 0.45024 0.54852 0.12589 0.0
C524 C 0.54192 0.6178 0.12438 0.0
C525 C 0.62632 0.60214 0.08766 0.0
C526 C 0.60281 0.6346 0.11205 0.0
C527 C 0.61214 0.64483 0.09605 0.0
C528 C 0.62396 0.62845 0.0838 0.0
N529 N 0.60525 0.60878 0.11577 0.0
C530 C 0.61677 0.59259 0.1038 0.0
Co531 Co 0.96823 0.44079 0.1234 0.0
Co532 Co 0.91631 0.40578 0.13577 0.0
O533 O 0.93169 0.43419 0.12216 0.0
C534 C 0.96181 0.44146 0.08364 0.0
O535 O 0.95206 0.41806 0.08423 0.0
C536 C 0.88144 0.44998 0.14339 0.0
O537 O 0.90122 0.46467 0.14675 0.0
O538 O 0.93032 0.42021 0.15845 0.0
O539 O 0.96965 0.42944 0.14904 0.0
H540 H 0.91499 0.33524 0.18212 0.0
H541 H 0.93379 0.48232 0.11084 0.0
O542 O 0.96817 0.45301 0.098 0.0
H543 H 0.97771 0.5188 0.16338 0.0
H544 H 0.04832 0.49089 0.11083 0.0
H545 H 0.01224 0.4123 0.1384 0.0
H546 H 0.98733 0.47454 0.15299 0.0
H547 H 1.00219 0.48286 0.11002 0.0
O548 O 0.88445 0.42644 0.13883 0.0
H549 H 0.93428 0.37035 0.16437 0.0
H550 H 0.8648 0.38173 0.1366 0.0
H551 H 0.05845 0.41969 0.13967 0.0
H552 H 0.92378 0.5268 0.12066 0.0
H553 H 0.07678 0.45923 0.12581 0.0
H554 H 0.94577 0.54528 0.14714 0.0
O555 O 0.9752 0.40459 0.11544 0.0
H556 H 0.87313 0.41122 0.07597 0.0
H557 H 0.91552 0.3532 0.11905 0.0
H558 H 0.89994 0.33551 0.09044 0.0
H559 H 0.87851 0.36459 0.06868 0.0
H560 H 0.88921 0.42816 0.10468 0.0
H561 H 0.84471 0.34687 0.15416 0.0
H562 H 0.86988 0.3233 0.17707 0.0
O563 O 0.94734 0.38376 0.13298 0.0
C564 C 0.9536 0.42542 0.16153 0.0
C565 C 0.90384 0.34533 0.17215 0.0
C566 C 0.86438 0.35188 0.15648 0.0
N567 N 0.90073 0.37801 0.1494 0.0
C568 C 0.91467 0.3652 0.16203 0.0
C569 C 0.87585 0.37165 0.14661 0.0
C570 C 0.87852 0.33865 0.16932 0.0
C571 C 0.94359 0.49032 0.12228 0.0
N572 N 0.96116 0.47587 0.13129 0.0
C573 C 0.93778 0.51548 0.12782 0.0
C574 C 0.95009 0.52582 0.14269 0.0
C575 C 0.968 0.51097 0.15182 0.0
C576 C 0.97331 0.48587 0.14591 0.0
C577 C 0.04056 0.47361 0.11694 0.0
C578 C 0.02005 0.42961 0.13242 0.0
C579 C 0.01446 0.46892 0.11648 0.0
N580 N 0.0045 0.4472 0.12425 0.0
C581 C 0.04624 0.43366 0.13314 0.0
C582 C 0.05652 0.45584 0.12535 0.0
C583 C 0.96664 0.38402 0.1227 0.0
C584 C 0.88236 0.39834 0.08536 0.0
C585 C 0.90627 0.366 0.10964 0.0
C586 C 0.89744 0.35586 0.09347 0.0
C587 C 0.88542 0.37218 0.08127 0.0
N588 N 0.90315 0.39168 0.11357 0.0
C589 C 0.89143 0.40781 0.10166 0.0
Co590 Co 0.039 0.43711 0.37908 0.0
Co591 Co 0.09441 0.40796 0.3669 0.0
O592 O 0.07619 0.43514 0.38003 0.0
C593 C 0.04656 0.44123 0.41868 0.0
O594 O 0.05918 0.41928 0.4186 0.0
C595 C 0.12555 0.45559 0.35955 0.0
O596 O 0.10501 0.46991 0.35852 0.0
O597 O 0.07848 0.41985 0.34414 0.0
O598 O 0.03845 0.42422 0.35376 0.0
H599 H 0.10202 0.33597 0.32195 0.0
H600 H 0.06813 0.48345 0.39025 0.0
O601 O 0.03811 0.45074 0.40414 0.0
H602 H 0.01923 0.51105 0.33731 0.0
H603 H 0.95374 0.47758 0.39143 0.0
H604 H 0.99844 0.40254 0.36544 0.0
H605 H 0.01552 0.46645 0.34882 0.0
H606 H 1.0005 0.47541 0.3918 0.0
O607 O 0.12398 0.43147 0.36282 0.0
H608 H 0.07964 0.36965 0.33923 0.0
H609 H 0.14812 0.38934 0.36598 0.0
H610 H 0.95166 0.40403 0.36466 0.0
H611 H 0.07215 0.52836 0.37933 0.0
H612 H 0.929 0.44176 0.37772 0.0
H613 H 0.04764 0.54239 0.35264 0.0
O614 O 0.03648 0.4008 0.38806 0.0
H615 H 0.13767 0.42143 0.42605 0.0
H616 H 0.10195 0.35658 0.38467 0.0
H617 H 0.1201 0.34229 0.41342 0.0
H618 H 0.13819 0.37482 0.43433 0.0
H619 H 0.11911 0.43489 0.3972 0.0
H620 H 0.17128 0.35602 0.34887 0.0
H621 H 0.14818 0.32899 0.32672 0.0
O622 O 0.06613 0.38273 0.37068 0.0
C623 C 0.05472 0.42215 0.34119 0.0
C624 C 0.11228 0.34759 0.33159 0.0
C625 C 0.15116 0.35886 0.34669 0.0
N626 N 0.11251 0.38138 0.35367 0.0
C627 C 0.0997 0.36667 0.34144 0.0
C628 C 0.13795 0.37775 0.3563 0.0
C629 C 0.13819 0.34369 0.33426 0.0
C630 C 0.05725 0.48947 0.37872 0.0
N631 N 0.04161 0.47234 0.3702 0.0
C632 C 0.05967 0.5149 0.37256 0.0
C633 C 0.04595 0.52275 0.35756 0.0
C634 C 0.03003 0.50516 0.34895 0.0
C635 C 0.02809 0.4799 0.35549 0.0
C636 C 0.9634 0.46106 0.38567 0.0
C637 C 0.98873 0.41908 0.37107 0.0
C638 C 0.98988 0.45969 0.38588 0.0
N639 N 1.00221 0.43894 0.37854 0.0
C640 C 0.96223 0.41979 0.37062 0.0
C641 C 0.94953 0.44096 0.37797 0.0
C642 C 0.04734 0.38097 0.38134 0.0
C643 C 0.12989 0.40706 0.41703 0.0
C644 C 0.10968 0.37087 0.39371 0.0
C645 C 0.11999 0.36265 0.40996 0.0
C646 C 0.13015 0.38091 0.42168 0.0
N647 N 0.10953 0.39655 0.38923 0.0
C648 C 0.11943 0.41456 0.40066 0.0
Co649 Co 0.47129 0.56364 0.38138 0.0
Co650 Co 0.41764 0.59551 0.36925 0.0
O651 O 0.43449 0.56825 0.3831 0.0
C652 C 0.4657 0.56243 0.42127 0.0
O653 O 0.45479 0.58531 0.42095 0.0
C654 C 0.38295 0.5506 0.36247 0.0
O655 O 0.4024 0.53629 0.35766 0.0
O656 O 0.43124 0.58032 0.34667 0.0
O657 O 0.47141 0.57477 0.35567 0.0
H658 H 0.41215 0.66349 0.32125 0.0
H659 H 0.43905 0.52052 0.39426 0.0
O660 O 0.47251 0.55151 0.40679 0.0
H661 H 0.48426 0.48587 0.34166 0.0
H662 H 0.55433 0.51825 0.3931 0.0
H663 H 0.51328 0.59439 0.36569 0.0
H664 H 0.49178 0.53065 0.35184 0.0
H665 H 0.50786 0.52366 0.39448 0.0
O666 O 0.38626 0.57389 0.36749 0.0
H667 H 0.43324 0.62991 0.33939 0.0
H668 H 0.36543 0.61807 0.36904 0.0
H669 H 0.55979 0.58961 0.36385 0.0
H670 H 0.43112 0.47552 0.38463 0.0
H671 H 0.58062 0.55132 0.37762 0.0
H672 H 0.45378 0.45795 0.35813 0.0
O673 O 0.47646 0.60032 0.38914 0.0
H674 H 0.37745 0.59178 0.43014 0.0
H675 H 0.41574 0.64892 0.38467 0.0
H676 H 0.40088 0.66756 0.41317 0.0
H677 H 0.38151 0.63893 0.43613 0.0
H678 H 0.39279 0.57389 0.4015 0.0
H679 H 0.34354 0.65137 0.3511 0.0
H680 H 0.36697 0.67441 0.32704 0.0
O681 O 0.44802 0.61859 0.3708 0.0
C682 C 0.45473 0.57662 0.34333 0.0
C683 C 0.40175 0.65362 0.33171 0.0
C684 C 0.36324 0.64679 0.34845 0.0
N685 N 0.40063 0.62209 0.35531 0.0
C686 C 0.41361 0.63461 0.34206 0.0
C687 C 0.37572 0.62789 0.35852 0.0
C688 C 0.3764 0.65972 0.33496 0.0
C689 C 0.44911 0.51294 0.38279 0.0
N690 N 0.46592 0.52816 0.37367 0.0
C691 C 0.44449 0.48748 0.37737 0.0
C692 C 0.45719 0.47764 0.36249 0.0
C693 C 0.47428 0.4933 0.35324 0.0
C694 C 0.47841 0.51867 0.35904 0.0
C695 C 0.54547 0.535 0.38703 0.0
C696 C 0.52218 0.57761 0.37164 0.0
C697 C 0.51917 0.53822 0.38781 0.0
N698 N 0.50784 0.55926 0.38008 0.0
C699 C 0.54853 0.57504 0.37059 0.0
C700 C 0.56021 0.55356 0.37834 0.0
C701 C 0.46705 0.62003 0.38127 0.0
C702 C 0.38579 0.60446 0.42022 0.0
C703 C 0.40739 0.63631 0.39461 0.0
C704 C 0.39897 0.64699 0.41071 0.0
C705 C 0.3881 0.63092 0.42358 0.0
N706 N 0.40502 0.61034 0.39139 0.0
C707 C 0.39443 0.59446 0.40396 0.0
Co708 Co 0.46725 0.44153 0.88114 0.0
Co709 Co 0.41511 0.40703 0.86863 0.0
O710 O 0.43066 0.43527 0.88233 0.0
C711 C 0.46077 0.44229 0.9209 0.0
O712 O 0.45093 0.41892 0.92033 0.0
C713 C 0.38051 0.4515 0.86107 0.0
O714 O 0.40038 0.46612 0.85781 0.0
O715 O 0.42927 0.4215 0.84602 0.0
O716 O 0.46867 0.43016 0.85552 0.0
H717 H 0.41345 0.33678 0.82209 0.0
H718 H 0.43315 0.4834 0.89363 0.0
O719 O 0.4672 0.45377 0.90654 0.0
H720 H 0.4776 0.51943 0.84117 0.0
H721 H 0.54775 0.4909 0.89385 0.0
H722 H 0.51107 0.41262 0.86625 0.0
H723 H 0.48677 0.47508 0.85158 0.0
H724 H 0.50154 0.4833 0.89458 0.0
O725 O 0.38339 0.42792 0.86558 0.0
H726 H 0.43292 0.37165 0.83997 0.0
H727 H 0.36345 0.38332 0.86768 0.0
H728 H 0.55735 0.41958 0.86507 0.0
H729 H 0.42358 0.52797 0.88378 0.0
H730 H 0.57598 0.45896 0.87894 0.0
H731 H 0.44585 0.54623 0.85734 0.0
O732 O 0.47387 0.40527 0.88911 0.0
H733 H 0.37181 0.41247 0.9284 0.0
H734 H 0.41391 0.35436 0.88523 0.0
H735 H 0.39811 0.33663 0.91376 0.0
H736 H 0.37683 0.36575 0.93556 0.0
H737 H 0.3881 0.42944 0.89975 0.0
H738 H 0.34317 0.34871 0.85 0.0
H739 H 0.36825 0.3251 0.82705 0.0
O740 O 0.44599 0.38477 0.87141 0.0
C741 C 0.45261 0.42646 0.84299 0.0
C742 C 0.40234 0.34688 0.83208 0.0
C743 C 0.36288 0.3536 0.84772 0.0
N744 N 0.39938 0.37945 0.85492 0.0
C745 C 0.41327 0.36662 0.84227 0.0
C746 C 0.37445 0.37324 0.85766 0.0
C747 C 0.37697 0.34036 0.83486 0.0
C748 C 0.44306 0.4913 0.8822 0.0
N749 N 0.46053 0.47668 0.87323 0.0
C750 C 0.4375 0.51651 0.87665 0.0
C751 C 0.44997 0.52672 0.86179 0.0
C752 C 0.46777 0.51169 0.85271 0.0
C753 C 0.47283 0.48655 0.85864 0.0
C754 C 0.53985 0.47369 0.88773 0.0
C755 C 0.51901 0.42987 0.87224 0.0
C756 C 0.51371 0.46924 0.88814 0.0
N757 N 0.50359 0.44761 0.88036 0.0
C758 C 0.54524 0.43367 0.87157 0.0
C759 C 0.55568 0.45576 0.87936 0.0
C760 C 0.46522 0.38482 0.88176 0.0
C761 C 0.38098 0.39957 0.91898 0.0
C762 C 0.40472 0.36718 0.89466 0.0
C763 C 0.39577 0.35702 0.91078 0.0
C764 C 0.38383 0.37336 0.923 0.0
N765 N 0.4018 0.3929 0.89079 0.0
C766 C 0.39016 0.40906 0.90272 0.0
Co767 Co 0.03781 0.56066 0.87913 0.0
Co768 Co 0.08986 0.59513 0.86639 0.0
O769 O 0.07442 0.56689 0.88014 0.0
C770 C 0.0448 0.55974 0.91885 0.0
O771 O 0.0547 0.58308 0.91826 0.0
C772 C 0.1242 0.55051 0.85882 0.0
O773 O 0.1042 0.53599 0.85577 0.0
O774 O 0.07546 0.5807 0.84386 0.0
O775 O 0.03611 0.57212 0.85351 0.0
H776 H 0.09109 0.66545 0.81989 0.0
H777 H 0.07195 0.51869 0.8914 0.0
O778 O 0.03813 0.54834 0.90451 0.0
H779 H 0.02695 0.48292 0.83908 0.0
H780 H 0.9574 0.51137 0.89221 0.0
H781 H 0.99387 0.58968 0.86452 0.0
H782 H 0.01796 0.52725 0.84961 0.0
H783 H 1.00362 0.5189 0.89269 0.0
O784 O 0.12151 0.57418 0.86318 0.0
H785 H 0.07177 0.6306 0.83787 0.0
H786 H 0.14157 0.61871 0.86513 0.0
H787 H 0.94756 0.58279 0.86359 0.0
H788 H 0.08134 0.47413 0.88144 0.0
H789 H 0.92904 0.54339 0.87751 0.0
H790 H 0.05881 0.456 0.85507 0.0
O791 O 0.03135 0.5969 0.88719 0.0
H792 H 0.13382 0.5896 0.92591 0.0
H793 H 0.09135 0.64779 0.88298 0.0
H794 H 0.10752 0.66549 0.91142 0.0
H795 H 0.12899 0.63632 0.9331 0.0
H796 H 0.11716 0.57265 0.89737 0.0
H797 H 0.1617 0.6533 0.84734 0.0
H798 H 0.13639 0.677 0.82457 0.0
O799 O 0.05904 0.61743 0.86936 0.0
C800 C 0.05208 0.5758 0.84092 0.0
C801 C 0.10231 0.65531 0.8298 0.0
C802 C 0.14195 0.64846 0.84519 0.0
N803 N 0.10548 0.62271 0.8526 0.0
C804 C 0.09146 0.63559 0.84005 0.0
C805 C 0.13046 0.62884 0.85518 0.0
C806 C 0.12773 0.66176 0.83242 0.0
C807 C 0.06192 0.51084 0.88001 0.0
N808 N 0.0444 0.52553 0.87113 0.0
C809 C 0.06738 0.48564 0.87439 0.0
C810 C 0.05475 0.4755 0.85958 0.0
C811 C 0.0369 0.4906 0.85059 0.0
C812 C 0.03195 0.51572 0.85658 0.0
C813 C 0.96525 0.52859 0.88608 0.0
C814 C 0.98597 0.57242 0.87052 0.0
C815 C 0.9914 0.53299 0.88634 0.0
N816 N 1.00146 0.55463 0.87853 0.0
C817 C 0.95973 0.56866 0.86999 0.0
C818 C 0.94935 0.54656 0.87782 0.0
C819 C 0.03996 0.61738 0.87985 0.0
C820 C 0.12457 0.60251 0.91655 0.0
C821 C 0.10062 0.63495 0.89236 0.0
C822 C 0.10978 0.6451 0.90843 0.0
C823 C 0.12183 0.62873 0.92058 0.0
N824 N 0.10344 0.60922 0.88848 0.0
C825 C 0.11517 0.59304 0.90035 0.0
Co826 Co 0.97042 0.56478 0.62249 0.0
Co827 Co 0.91657 0.59655 0.63448 0.0
O828 O 0.9336 0.56929 0.62072 0.0
C829 C 0.96476 0.56352 0.58262 0.0
O830 O 0.95339 0.58617 0.583 0.0
C831 C 0.88239 0.55123 0.64112 0.0
O832 O 0.90214 0.53692 0.64529 0.0
O833 O 0.93027 0.58167 0.65713 0.0
O834 O 0.97045 0.57595 0.6482 0.0
H835 H 0.91075 0.66494 0.68218 0.0
H836 H 0.93848 0.52152 0.60949 0.0
O837 O 0.97179 0.55268 0.59708 0.0
H838 H 0.9833 0.4871 0.66232 0.0
H839 H 0.05359 0.51951 0.611 0.0
H840 H 0.01231 0.59568 0.6382 0.0
H841 H 0.99075 0.5319 0.65216 0.0
H842 H 0.00711 0.52482 0.60953 0.0
O843 O 0.88533 0.57473 0.63643 0.0
H844 H 0.93201 0.63131 0.66418 0.0
H845 H 0.86425 0.61883 0.6346 0.0
H846 H 0.05881 0.591 0.64013 0.0
H847 H 0.93063 0.47649 0.6191 0.0
H848 H 0.07976 0.55269 0.62645 0.0
H849 H 0.9531 0.45904 0.64572 0.0
O850 O 0.97556 0.60145 0.61473 0.0
H851 H 0.87617 0.59192 0.57369 0.0
H852 H 0.91439 0.64977 0.61876 0.0
H853 H 0.89932 0.66801 0.59018 0.0
H854 H 0.87999 0.63902 0.56743 0.0
H855 H 0.89171 0.57444 0.6024 0.0
H856 H 0.8422 0.65218 0.65239 0.0
H857 H 0.86551 0.67557 0.67634 0.0
O858 O 0.94681 0.61983 0.63278 0.0
C859 C 0.95376 0.57803 0.66051 0.0
C860 C 0.9004 0.65492 0.67176 0.0
C861 C 0.86192 0.64773 0.65506 0.0
N862 N 0.89943 0.62316 0.6483 0.0
C863 C 0.91235 0.63588 0.6615 0.0
C864 C 0.87449 0.6288 0.64507 0.0
C865 C 0.87501 0.66085 0.66848 0.0
C866 C 0.94846 0.51398 0.621 0.0
N867 N 0.96511 0.52929 0.6302 0.0
C868 C 0.94388 0.48851 0.62642 0.0
C869 C 0.95647 0.47874 0.64137 0.0
C870 C 0.9734 0.49448 0.6507 0.0
C871 C 0.97749 0.51986 0.6449 0.0
C872 C 0.04468 0.53627 0.61702 0.0
C873 C 0.02126 0.57889 0.63229 0.0
C874 C 0.01837 0.53943 0.61619 0.0
N875 N 0.00698 0.56048 0.62386 0.0
C876 C 0.04761 0.57638 0.63339 0.0
C877 C 0.05935 0.55489 0.6257 0.0
C878 C 0.96603 0.62119 0.62248 0.0
C879 C 0.88449 0.60476 0.58352 0.0
C880 C 0.90606 0.637 0.60891 0.0
C881 C 0.89752 0.64746 0.59277 0.0
C882 C 0.88667 0.63118 0.58001 0.0
N883 N 0.90381 0.61106 0.61228 0.0
C884 C 0.89324 0.59498 0.59982 0.0
Co885 Co 0.53872 0.43776 0.62508 0.0
Co886 Co 0.59258 0.40704 0.63834 0.0
O887 O 0.57571 0.43396 0.62413 0.0
C888 C 0.54567 0.43922 0.58526 0.0
O889 O 0.55672 0.4164 0.58564 0.0
C890 C 0.62567 0.45336 0.64445 0.0
O891 O 0.60545 0.46792 0.64658 0.0
O892 O 0.57763 0.42184 0.66059 0.0
O893 O 0.53774 0.42654 0.65079 0.0
H894 H 0.5972 0.33897 0.68632 0.0
H895 H 0.57016 0.48182 0.6127 0.0
O896 O 0.53832 0.44994 0.59968 0.0
H897 H 0.52243 0.51511 0.6646 0.0
H898 H 0.45527 0.48134 0.61166 0.0
H899 H 0.49674 0.40604 0.63986 0.0
H900 H 0.51651 0.47012 0.65435 0.0
H901 H 0.50188 0.47696 0.61126 0.0
O902 O 0.62339 0.42933 0.64105 0.0
H903 H 0.57629 0.37218 0.66775 0.0
H904 H 0.64521 0.38562 0.63974 0.0
H905 H 0.45009 0.40978 0.64071 0.0
H906 H 0.57643 0.52706 0.62237 0.0
H907 H 0.42905 0.44765 0.62653 0.0
H908 H 0.55251 0.54395 0.64853 0.0
O909 O 0.53465 0.40101 0.6172 0.0
H910 H 0.63564 0.41215 0.57849 0.0
H911 H 0.59645 0.35379 0.62282 0.0
H912 H 0.61317 0.3357 0.59466 0.0
H913 H 0.633 0.36495 0.57228 0.0
H914 H 0.61846 0.42946 0.60678 0.0
H915 H 0.66692 0.3527 0.65812 0.0
H916 H 0.64285 0.32904 0.68156 0.0
O917 O 0.56282 0.38323 0.63596 0.0
C918 C 0.55394 0.425 0.66345 0.0
C919 C 0.60788 0.34911 0.67612 0.0
C920 C 0.64702 0.35684 0.66031 0.0
N921 N 0.60947 0.38077 0.65262 0.0
C922 C 0.59613 0.36791 0.66553 0.0
C923 C 0.63464 0.37552 0.64998 0.0
C924 C 0.6335 0.34356 0.67346 0.0
C925 C 0.55953 0.4891 0.624 0.0
N926 N 0.54297 0.47335 0.63292 0.0
C927 C 0.56323 0.5147 0.62946 0.0
C928 C 0.54983 0.52415 0.64415 0.0
C929 C 0.53296 0.50797 0.65318 0.0
C930 C 0.52977 0.48248 0.64735 0.0
C931 C 0.46422 0.46477 0.6179 0.0
C932 C 0.48775 0.42264 0.63373 0.0
C933 C 0.49061 0.46214 0.61768 0.0
N934 N 0.50205 0.44133 0.62562 0.0
C935 C 0.46131 0.42462 0.63422 0.0
C936 C 0.44952 0.44586 0.62626 0.0
C937 C 0.54416 0.38146 0.62518 0.0
C938 C 0.62711 0.3992 0.58816 0.0
C939 C 0.605 0.36666 0.61314 0.0
C940 C 0.61447 0.3563 0.59723 0.0
C941 C 0.6256 0.37272 0.58467 0.0
N942 N 0.60661 0.39266 0.61648 0.0
C943 C 0.61743 0.40888 0.60422 0.0
C944 C 0.35086 0.98856 0.14573 0.0
C945 C 0.35555 0.96195 0.14354 0.0
C946 C 0.32587 0.99797 0.14625 0.0
C947 C 0.25977 0.97948 0.13387 0.0
H948 H 0.2411 0.03534 0.16593 0.0
C949 C 0.15521 0.01157 0.14462 0.0
C950 C 0.15093 0.03844 0.14419 0.0
C951 C 0.18005 0.00177 0.14521 0.0
C952 C 0.24606 0.0198 0.15683 0.0
H953 H 0.33754 0.92433 0.14057 0.0
H954 H 0.29446 0.94054 0.14186 0.0
H955 H 0.28484 0.01975 0.16543 0.0
H956 H 0.16944 0.07605 0.14442 0.0
H957 H 0.21237 0.05901 0.1455 0.0
H958 H 0.22091 0.97946 0.12538 0.0
C959 C 0.3099 0.95433 0.14273 0.0
C960 C 0.27117 0.01094 0.15649 0.0
C961 C 0.33474 0.94499 0.1421 0.0
C962 C 0.17197 0.05523 0.14468 0.0
C963 C 0.19666 0.04548 0.14543 0.0
C964 C 0.23464 0.98823 0.13431 0.0
C965 C 0.30506 0.98095 0.14467 0.0
C966 C 0.27838 0.99068 0.14497 0.0
C967 C 0.20104 0.01866 0.1456 0.0
C968 C 0.22751 0.00856 0.14574 0.0
H969 H 0.36645 0.00215 0.14683 0.0
H970 H 0.32288 0.01864 0.14758 0.0
H971 H 0.26466 0.96417 0.12459 0.0
H972 H 0.13944 0.99812 0.14425 0.0
H973 H 0.18283 0.98098 0.14545 0.0
C974 C 0.65739 0.98479 0.35565 0.0
C975 C 0.65224 0.95836 0.35827 0.0
C976 C 0.68251 0.99367 0.35472 0.0
C977 C 0.74846 0.97458 0.36682 0.0
H978 H 0.76705 0.02966 0.33411 0.0
C979 C 0.85282 0.00825 0.35689 0.0
C980 C 0.8564 0.03522 0.35724 0.0
C981 C 0.82825 0.99781 0.35593 0.0
C982 C 0.76213 0.01431 0.34337 0.0
H983 H 0.66954 0.92046 0.36161 0.0
H984 H 0.71297 0.93577 0.35963 0.0
H985 H 0.72337 0.01401 0.33475 0.0
H986 H 0.83698 0.07234 0.35636 0.0
H987 H 0.79458 0.05424 0.35467 0.0
H988 H 0.78728 0.97493 0.3754 0.0
C989 C 0.69775 0.94982 0.3587 0.0
C990 C 0.73705 0.00543 0.3438 0.0
C991 C 0.67274 0.94101 0.35973 0.0
C992 C 0.83499 0.05146 0.35621 0.0
C993 C 0.8106 0.04109 0.35509 0.0
C994 C 0.77357 0.98338 0.36631 0.0
C995 C 0.70302 0.97627 0.3563 0.0
C996 C 0.72982 0.98556 0.35562 0.0
C997 C 0.80688 0.01417 0.35507 0.0
C998 C 0.78064 0.00351 0.35469 0.0
H999 H 0.64205 0.99868 0.35455 0.0
H1000 H 0.68584 0.01423 0.35308 0.0
H1001 H 0.74356 0.95953 0.3763 0.0
H1002 H 0.86891 0.99523 0.35768 0.0
H1003 H 0.82597 0.97696 0.35582 0.0
C1004 C 0.85288 0.99172 0.85985 0.0
C1005 C 0.85711 0.96485 0.85926 0.0
C1006 C 0.82807 0.0016 0.85933 0.0
C1007 C 0.76233 0.98475 0.84621 0.0
H1008 H 0.74293 0.03716 0.88071 0.0
C1009 C 0.65724 0.01477 0.85747 0.0
C1010 C 0.65244 0.04115 0.86068 0.0
C1011 C 0.68225 0.00542 0.8569 0.0
C1012 C 0.74805 0.02277 0.87081 0.0
H1013 H 0.8386 0.92737 0.85721 0.0
H1014 H 0.79571 0.94455 0.85623 0.0
H1015 H 0.78673 0.02204 0.87968 0.0
H1016 H 0.67034 0.07841 0.86556 0.0
H1017 H 0.71346 0.06234 0.8642 0.0
H1018 H 0.72373 0.98556 0.83723 0.0
C1019 C 0.81143 0.95802 0.85708 0.0
C1020 C 0.7732 0.01413 0.87023 0.0
C1021 C 0.83608 0.94818 0.85777 0.0
C1022 C 0.6732 0.05793 0.86317 0.0
C1023 C 0.69806 0.04866 0.86252 0.0
C1024 C 0.73719 0.99352 0.8467 0.0
C1025 C 0.80708 0.98482 0.85798 0.0
C1026 C 0.78062 0.99494 0.85798 0.0
C1027 C 0.70299 0.02228 0.85948 0.0
C1028 C 0.72969 0.01262 0.85903 0.0
H1029 H 0.86866 0.00506 0.86101 0.0
H1030 H 0.8253 0.02238 0.85993 0.0
H1031 H 0.76751 0.97011 0.83649 0.0
H1032 H 0.64171 0.00131 0.85554 0.0
H1033 H 0.6853 0.98492 0.85472 0.0
C1034 C 0.15603 0.99092 0.64649 0.0
C1035 C 0.15194 0.96412 0.64484 0.0
C1036 C 0.18078 1.00086 0.64732 0.0
C1037 C 0.24709 0.98232 0.65756 0.0
H1038 H 0.26471 0.04132 0.628 0.0
C1039 C 0.35143 0.01487 0.64671 0.0
C1040 C 0.35614 0.0416 0.64548 0.0
C1041 C 0.32645 0.00549 0.64728 0.0
C1042 C 0.26009 0.02506 0.63656 0.0
H1043 H 0.17073 0.92674 0.64304 0.0
H1044 H 0.21358 0.94402 0.64454 0.0
H1045 H 0.22112 0.02558 0.62836 0.0
H1046 H 0.33824 0.07947 0.64438 0.0
H1047 H 0.29508 0.06327 0.64578 0.0
H1048 H 0.28599 0.98184 0.66586 0.0
C1049 C 0.19774 0.95738 0.64527 0.0
C1050 C 0.23505 0.01604 0.63674 0.0
C1051 C 0.17312 0.9475 0.64428 0.0
C1052 C 0.33536 0.05872 0.64514 0.0
C1053 C 0.31051 0.0494 0.64583 0.0
C1054 C 0.27211 0.99144 0.65748 0.0
C1055 C 0.20191 0.98416 0.6467 0.0
C1056 C 0.22828 0.99449 0.64716 0.0
C1057 C 0.30565 0.02266 0.64674 0.0
C1058 C 0.27898 0.01289 0.64692 0.0
H1059 H 0.14015 0.00424 0.64694 0.0
H1060 H 0.18339 0.0216 0.64854 0.0
H1061 H 0.24241 0.96584 0.66589 0.0
H1062 H 0.367 1.00116 0.64693 0.0
H1063 H 0.32347 0.98475 0.64777 0.0
C1064 C 0.83439 0.4434 0.14381 0.0
C1065 C 0.85524 0.46038 0.14475 0.0
C1066 C 0.80958 0.45278 0.14471 0.0
C1067 C 0.77137 0.51003 0.15817 0.0
H1068 H 0.72026 0.47804 0.12802 0.0
C1069 C 0.6724 0.555 0.14641 0.0
C1070 C 0.65122 0.5384 0.14638 0.0
C1071 C 0.69702 0.54503 0.14714 0.0
C1072 C 0.73423 0.48696 0.13668 0.0
H1073 H 0.86624 0.50065 0.14743 0.0
H1074 H 0.82276 0.51719 0.14864 0.0
H1075 H 0.76383 0.46226 0.1271 0.0
H1076 H 0.63937 0.4982 0.14722 0.0
H1077 H 0.68259 0.48069 0.14838 0.0
H1078 H 0.74172 0.53508 0.16745 0.0
C1079 C 0.82568 0.49649 0.14751 0.0
C1080 C 0.75925 0.47792 0.13618 0.0
C1081 C 0.85062 0.48704 0.14674 0.0
C1082 C 0.65527 0.51151 0.14724 0.0
C1083 C 0.68001 0.50149 0.1478 0.0
C1084 C 0.74636 0.51918 0.15858 0.0
C1085 C 0.80482 0.47946 0.14642 0.0
C1086 C 0.77818 0.48932 0.14692 0.0
C1087 C 0.70115 0.51817 0.14773 0.0
C1088 C 0.72751 0.50778 0.14782 0.0
H1089 H 0.83719 0.42271 0.14244 0.0
H1090 H 0.79409 0.43901 0.1442 0.0
H1091 H 0.78528 0.51901 0.16684 0.0
H1092 H 0.67004 0.57583 0.1458 0.0
H1093 H 0.71286 0.55839 0.14685 0.0
C1094 C 0.33615 0.55678 0.36616 0.0
C1095 C 0.35659 0.54043 0.36173 0.0
C1096 C 0.31117 0.54795 0.36523 0.0
C1097 C 0.27087 0.49697 0.34504 0.0
H1098 H 0.22261 0.51937 0.38108 0.0
C1099 C 0.17197 0.45075 0.35381 0.0
C1100 C 0.1512 0.46701 0.35756 0.0
C1101 C 0.1966 0.46059 0.35319 0.0
C1102 C 0.23576 0.51324 0.37077 0.0
H1103 H 0.36664 0.50173 0.35297 0.0
H1104 H 0.32282 0.48604 0.35164 0.0
H1105 H 0.26666 0.53352 0.38293 0.0
H1106 H 0.14001 0.50656 0.36322 0.0
H1107 H 0.18338 0.52389 0.36225 0.0
H1108 H 0.23994 0.47627 0.33311 0.0
C1109 C 0.32623 0.50593 0.35556 0.0
C1110 C 0.26106 0.52131 0.37183 0.0
C1111 C 0.35136 0.51485 0.35643 0.0
C1112 C 0.1556 0.49357 0.36027 0.0
C1113 C 0.18042 0.50342 0.35984 0.0
C1114 C 0.24559 0.48877 0.34404 0.0
C1115 C 0.30581 0.52242 0.35995 0.0
C1116 C 0.27897 0.5133 0.35897 0.0
C1117 C 0.20121 0.48696 0.35643 0.0
C1118 C 0.22775 0.49679 0.35692 0.0
H1119 H 0.33934 0.57664 0.37025 0.0
H1120 H 0.29601 0.56136 0.3684 0.0
H1121 H 0.28398 0.49077 0.33473 0.0
H1122 H 0.16926 0.43021 0.35155 0.0
H1123 H 0.21216 0.44734 0.3507 0.0
C1124 C 0.17131 0.55644 0.8578 0.0
C1125 C 0.15023 0.5397 0.85753 0.0
C1126 C 0.196 0.54663 0.85714 0.0
C1127 C 0.23333 0.48853 0.86733 0.0
H1128 H 0.28468 0.52126 0.83778 0.0
C1129 C 0.33347 0.44505 0.86029 0.0
C1130 C 0.35436 0.462 0.85963 0.0
C1131 C 0.30869 0.45451 0.85935 0.0
C1132 C 0.27068 0.51209 0.84629 0.0
H1133 H 0.13864 0.49945 0.85624 0.0
H1134 H 0.18196 0.48223 0.8552 0.0
H1135 H 0.2411 0.53729 0.83708 0.0
H1136 H 0.36549 0.50228 0.85739 0.0
H1137 H 0.32205 0.51896 0.85611 0.0
H1138 H 0.26285 0.46367 0.87685 0.0
C1139 C 0.17925 0.50301 0.85596 0.0
C1140 C 0.24566 0.52122 0.84583 0.0
C1141 C 0.15445 0.51286 0.85645 0.0
C1142 C 0.34983 0.48871 0.85786 0.0
C1143 C 0.32491 0.49823 0.85704 0.0
C1144 C 0.25836 0.47952 0.86789 0.0
C1145 C 0.2003 0.51981 0.85633 0.0
C1146 C 0.2267 0.50955 0.85635 0.0
C1147 C 0.304 0.48123 0.85788 0.0
C1148 C 0.27739 0.49114 0.85736 0.0
H1149 H 0.16881 0.57724 0.85859 0.0
H1150 H 0.21176 0.56008 0.85765 0.0
H1151 H 0.21927 0.47941 0.87582 0.0
H1152 H 0.3362 0.42432 0.86147 0.0
H1153 H 0.29317 0.44075 0.85964 0.0
C1154 C 0.67261 0.44773 0.64736 0.0
C1155 C 0.6516 0.46441 0.64569 0.0
C1156 C 0.69728 0.45754 0.6478 0.0
C1157 C 0.73539 0.51311 0.63347 0.0
H1158 H 0.78531 0.48568 0.66661 0.0
C1159 C 0.83535 0.55731 0.63931 0.0
C1160 C 0.85618 0.54069 0.64204 0.0
C1161 C 0.81053 0.54798 0.64018 0.0
C1162 C 0.77172 0.4933 0.65709 0.0
H1163 H 0.6401 0.50458 0.64336 0.0
H1164 H 0.68348 0.52182 0.64398 0.0
H1165 H 0.74155 0.47025 0.66788 0.0
H1166 H 0.8671 0.50107 0.64779 0.0
H1167 H 0.82357 0.48457 0.64898 0.0
H1168 H 0.76551 0.53579 0.62242 0.0
C1169 C 0.68069 0.50108 0.64493 0.0
C1170 C 0.7466 0.48455 0.65789 0.0
C1171 C 0.65587 0.49124 0.64468 0.0
C1172 C 0.85151 0.51441 0.64567 0.0
C1173 C 0.82653 0.505 0.64645 0.0
C1174 C 0.76053 0.52173 0.63259 0.0
C1175 C 0.70167 0.48429 0.64643 0.0
C1176 C 0.72814 0.49436 0.64608 0.0
C1177 C 0.80572 0.5217 0.64367 0.0
C1178 C 0.77905 0.512 0.64441 0.0
H1179 H 0.67006 0.42696 0.64825 0.0
H1180 H 0.71299 0.44407 0.64878 0.0
H1181 H 0.72174 0.5207 0.62397 0.0
H1182 H 0.83812 0.57772 0.6366 0.0
H1183 H 0.79507 0.56156 0.63833 0.0
C1184 C 0.94563 0.07929 0.30801 0.0
C1185 C 0.96218 0.07871 0.32277 0.0
C1186 C 0.95527 0.07921 0.29052 0.0
C1187 C 0.01319 0.09406 0.26454 0.0
H1188 H 0.98402 0.04833 0.22894 0.0
C1189 C 0.05993 0.07844 0.19511 0.0
C1190 C 0.04351 0.07653 0.18034 0.0
C1191 C 0.05022 0.07847 0.21258 0.0
C1192 C 0.99223 0.06146 0.23864 0.0
H1193 H 1.00196 0.07772 0.33057 0.0
H1194 H 0.01848 0.07762 0.30031 0.0
H1195 H 0.96583 0.04981 0.25892 0.0
H1196 H 0.00388 0.0733 0.17249 0.0
H1197 H 0.98718 0.07389 0.20263 0.0
H1198 H 0.03943 0.10594 0.24428 0.0
C1199 C 0.99811 0.07832 0.3022 0.0
C1200 C 0.98176 0.0623 0.25583 0.0
C1201 C 0.98854 0.07821 0.3196 0.0
C1202 C 0.01722 0.07465 0.18348 0.0
C1203 C 0.00756 0.0748 0.20085 0.0
C1204 C 0.02357 0.09335 0.24733 0.0
C1205 C 0.98164 0.07879 0.28745 0.0
C1206 C 0.99216 0.07855 0.26899 0.0
C1207 C 0.02388 0.07667 0.21565 0.0
C1208 C 0.01324 0.07703 0.23414 0.0
H1209 H 0.92525 0.07971 0.30996 0.0
H1210 H 0.9421 0.07976 0.2794 0.0
H1211 H 0.02146 0.10702 0.27434 0.0
H1212 H 0.08026 0.0799 0.1932 0.0
H1213 H 0.06338 0.07966 0.22368 0.0
C1214 C 0.48911 0.92566 0.18404 0.0
C1215 C 0.46281 0.92521 0.18065 0.0
C1216 C 0.49839 0.92552 0.2015 0.0
C1217 C 0.48194 0.94172 0.24769 0.0
H1218 H 0.53802 0.89612 0.2596 0.0
C1219 C 0.51701 0.92936 0.3202 0.0
C1220 C 0.54318 0.92618 0.32333 0.0
C1221 C 0.5073 0.92931 0.30284 0.0
C1222 C 0.52263 0.90927 0.25646 0.0
H1223 H 0.42567 0.92448 0.19316 0.0
H1224 H 0.44204 0.92452 0.22387 0.0
H1225 H 0.5203 0.89556 0.22946 0.0
H1226 H 0.57968 0.92069 0.31047 0.0
H1227 H 0.56277 0.92123 0.28003 0.0
H1228 H 0.48451 0.95586 0.27452 0.0
C1229 C 0.45537 0.92495 0.21284 0.0
C1230 C 0.51238 0.90883 0.2392 0.0
C1231 C 0.446 0.92484 0.19527 0.0
C1232 C 0.55944 0.92313 0.30857 0.0
C1233 C 0.54969 0.92327 0.29111 0.0
C1234 C 0.49233 0.94234 0.26491 0.0
C1235 C 0.48168 0.92513 0.21611 0.0
C1236 C 0.49194 0.92506 0.23463 0.0
C1237 C 0.52345 0.92631 0.28804 0.0
C1238 C 0.51279 0.92608 0.26955 0.0
H1239 H 0.50271 0.926 0.17318 0.0
H1240 H 0.51874 0.92603 0.20357 0.0
H1241 H 0.46645 0.95472 0.24448 0.0
H1242 H 0.5038 0.93161 0.33119 0.0
H1243 H 0.48697 0.9312 0.30108 0.0
C1244 C 0.06104 0.92466 0.69489 0.0
C1245 C 0.04464 0.92747 0.68017 0.0
C1246 C 0.05141 0.92466 0.71238 0.0
C1247 C 0.9941 0.94325 0.73872 0.0
H1248 H 0.02223 0.89638 0.77406 0.0
C1249 C 0.94736 0.92533 0.80806 0.0
C1250 C 0.96398 0.92531 0.82279 0.0
C1251 C 0.95693 0.9256 0.79056 0.0
C1252 C 0.01427 0.9097 0.76436 0.0
H1253 H 0.00512 0.9323 0.67245 0.0
H1254 H 0.98853 0.93172 0.70262 0.0
H1255 H 0.04001 0.89724 0.74394 0.0
H1256 H 1.00379 0.92552 0.83052 0.0
H1257 H 0.0202 0.92589 0.80022 0.0
H1258 H 0.96815 0.95542 0.75915 0.0
C1259 C 0.00886 0.93011 0.70078 0.0
C1260 C 0.02455 0.91029 0.74711 0.0
C1261 C 0.01844 0.93024 0.68339 0.0
C1262 C 0.99033 0.92549 0.81957 0.0
C1263 C 0.99983 0.92554 0.80215 0.0
C1264 C 0.98371 0.94251 0.75593 0.0
C1265 C 0.02516 0.92737 0.71553 0.0
C1266 C 0.01461 0.92709 0.73405 0.0
C1267 C 0.98329 0.92558 0.78744 0.0
C1268 C 0.99373 0.92578 0.76896 0.0
H1269 H 0.0813 0.9225 0.69292 0.0
H1270 H 0.06457 0.9228 0.72343 0.0
H1271 H 0.98621 0.95676 0.72913 0.0
H1272 H 0.92699 0.92517 0.81004 0.0
H1273 H 0.94372 0.92547 0.77945 0.0
C1274 C 0.49091 0.07253 0.68391 0.0
C1275 C 0.46471 0.07561 0.68082 0.0
C1276 C 0.50069 0.07274 0.70125 0.0
C1277 C 0.48547 0.0932 0.74756 0.0
H1278 H 0.54173 0.04793 0.7597 0.0
C1279 C 0.51892 0.0774 0.82004 0.0
C1280 C 0.54521 0.0778 0.82346 0.0
C1281 C 0.50969 0.07744 0.80256 0.0
C1282 C 0.52622 0.06088 0.75644 0.0
H1283 H 0.42825 0.08109 0.69373 0.0
H1284 H 0.44528 0.08084 0.72414 0.0
H1285 H 0.52363 0.04651 0.72967 0.0
H1286 H 0.58239 0.07839 0.811 0.0
H1287 H 0.5661 0.07818 0.78026 0.0
H1288 H 0.48782 0.10716 0.77449 0.0
C1289 C 0.45832 0.07875 0.71304 0.0
C1290 C 0.51581 0.0601 0.73923 0.0
C1291 C 0.44851 0.07871 0.6956 0.0
C1292 C 0.56206 0.07806 0.80886 0.0
C1293 C 0.55274 0.07785 0.79128 0.0
C1294 C 0.49575 0.09381 0.7648 0.0
C1295 C 0.48458 0.07583 0.71607 0.0
C1296 C 0.4953 0.07627 0.73454 0.0
C1297 C 0.52643 0.0777 0.78797 0.0
C1298 C 0.51621 0.07765 0.76944 0.0
H1299 H 0.50409 0.07024 0.6729 0.0
H1300 H 0.52102 0.07093 0.70298 0.0
H1301 H 0.47005 0.10628 0.74438 0.0
H1302 H 0.50529 0.07715 0.83088 0.0
H1303 H 0.48934 0.07695 0.80047 0.0
C1304 C 0.51723 0.57309 0.18476 0.0
C1305 C 0.54353 0.57514 0.18168 0.0
C1306 C 0.50751 0.5731 0.20212 0.0
C1307 C 0.5243 0.55966 0.24879 0.0
H1308 H 0.46519 0.60165 0.25968 0.0
C1309 C 0.49008 0.57467 0.32105 0.0
C1310 C 0.46384 0.57588 0.32453 0.0
C1311 C 0.49922 0.57421 0.30355 0.0
C1312 C 0.48145 0.5895 0.25682 0.0
H1313 H 0.58022 0.57866 0.19462 0.0
H1314 H 0.56314 0.57845 0.2251 0.0
H1315 H 0.48276 0.60187 0.22948 0.0
H1316 H 0.42664 0.57747 0.31217 0.0
H1317 H 0.44265 0.57613 0.28145 0.0
H1318 H 0.52287 0.54694 0.27598 0.0
C1319 C 0.55013 0.5768 0.21393 0.0
C1320 C 0.4916 0.58973 0.23953 0.0
C1321 C 0.5599 0.57702 0.19649 0.0
C1322 C 0.44695 0.57656 0.30998 0.0
C1323 C 0.45615 0.57595 0.29237 0.0
C1324 C 0.51405 0.55926 0.26604 0.0
C1325 C 0.5238 0.57497 0.21691 0.0
C1326 C 0.5132 0.5749 0.23534 0.0
C1327 C 0.48245 0.57474 0.28896 0.0
C1328 C 0.49259 0.57432 0.27033 0.0
H1329 H 0.50396 0.57156 0.17374 0.0
H1330 H 0.48719 0.57132 0.20397 0.0
H1331 H 0.54069 0.54769 0.2459 0.0
H1332 H 0.50378 0.57429 0.33185 0.0
H1333 H 0.51957 0.57384 0.30151 0.0
C1334 C 0.01862 0.4204 0.31944 0.0
C1335 C 0.04496 0.42164 0.32255 0.0
C1336 C 0.00896 0.42036 0.30206 0.0
C1337 C 0.02392 0.44 0.25615 0.0
H1338 H 0.96935 0.39304 0.24337 0.0
C1339 C 0.98931 0.42935 0.18346 0.0
C1340 C 0.96324 0.42559 0.18021 0.0
C1341 C 0.99895 0.42895 0.20084 0.0
C1342 C 0.98431 0.40656 0.24677 0.0
H1343 H 0.08178 0.42372 0.30965 0.0
H1344 H 0.06477 0.42382 0.27914 0.0
H1345 H 0.98742 0.39156 0.27341 0.0
H1346 H 0.92685 0.41862 0.1929 0.0
H1347 H 0.94366 0.41845 0.2234 0.0
H1348 H 0.02063 0.45533 0.22967 0.0
C1349 C 0.05168 0.42294 0.29029 0.0
C1350 C 0.99476 0.40561 0.26397 0.0
C1351 C 0.06142 0.42276 0.30775 0.0
C1352 C 0.94701 0.42157 0.19489 0.0
C1353 C 0.9567 0.4213 0.21237 0.0
C1354 C 0.01336 0.44108 0.23899 0.0
C1355 C 0.02532 0.42173 0.28728 0.0
C1356 C 0.01471 0.42229 0.26884 0.0
C1357 C 0.98283 0.42495 0.21555 0.0
C1358 C 0.99347 0.42431 0.23404 0.0
H1359 H 0.00528 0.41952 0.33045 0.0
H1360 H 0.98857 0.41974 0.30021 0.0
H1361 H 0.03897 0.4534 0.25959 0.0
H1362 H 1.0025 0.43236 0.17255 0.0
H1363 H 0.0192 0.43133 0.20268 0.0
C1364 C 0.51773 0.42586 0.68511 0.0
C1365 C 0.54411 0.42548 0.68207 0.0
C1366 C 0.50799 0.42609 0.70245 0.0
C1367 C 0.52491 0.41179 0.74953 0.0
H1368 H 0.46431 0.452 0.75959 0.0
C1369 C 0.48851 0.42946 0.82116 0.0
C1370 C 0.46229 0.42668 0.82433 0.0
C1371 C 0.49816 0.42917 0.80379 0.0
C1372 C 0.48108 0.44047 0.75694 0.0
H1373 H 0.58091 0.42516 0.69506 0.0
H1374 H 0.56385 0.42614 0.72548 0.0
H1375 H 0.48254 0.45261 0.72961 0.0
H1376 H 0.42567 0.42161 0.81154 0.0
H1377 H 0.44264 0.42134 0.78101 0.0
H1378 H 0.5236 0.40004 0.777 0.0
C1379 C 0.5507 0.4258 0.71434 0.0
C1380 C 0.49156 0.44078 0.73975 0.0
C1381 C 0.56051 0.42541 0.6969 0.0
C1382 C 0.44593 0.42384 0.8096 0.0
C1383 C 0.45563 0.42376 0.79212 0.0
C1384 C 0.51453 0.41165 0.76675 0.0
C1385 C 0.52429 0.42616 0.71732 0.0
C1386 C 0.51358 0.42638 0.73579 0.0
C1387 C 0.48189 0.42626 0.78907 0.0
C1388 C 0.49249 0.42596 0.77064 0.0
H1389 H 0.50442 0.42575 0.67407 0.0
H1390 H 0.48758 0.42582 0.70416 0.0
H1391 H 0.54158 0.4001 0.74693 0.0
H1392 H 0.50178 0.43176 0.83212 0.0
H1393 H 0.51841 0.43151 0.80188 0.0
C1394 C 0.01606 0.57295 0.81915 0.0
C1395 C 0.04229 0.57559 0.82228 0.0
C1396 C 0.00636 0.57321 0.80178 0.0
C1397 C 0.0221 0.59302 0.75541 0.0
H1398 H 0.96536 0.54842 0.74329 0.0
C1399 C 0.98909 0.577 0.68287 0.0
C1400 C 0.96283 0.57767 0.67932 0.0
C1401 C 0.99817 0.57707 0.70038 0.0
C1402 C 0.98101 0.56119 0.74654 0.0
H1403 H 0.07888 0.58038 0.80943 0.0
H1404 H 0.06198 0.58024 0.77898 0.0
H1405 H 0.98319 0.54708 0.77339 0.0
H1406 H 0.92555 0.57875 0.69161 0.0
H1407 H 0.94156 0.57861 0.72242 0.0
H1408 H 0.02016 0.60672 0.7284 0.0
C1409 C 0.04886 0.57845 0.79006 0.0
C1410 C 0.99127 0.56046 0.7638 0.0
C1411 C 0.0586 0.57835 0.80752 0.0
C1412 C 0.94586 0.57821 0.69385 0.0
C1413 C 0.95502 0.57804 0.71147 0.0
C1414 C 0.01198 0.59359 0.73812 0.0
C1415 C 0.02258 0.57593 0.78698 0.0
C1416 C 0.01195 0.57638 0.76848 0.0
C1417 C 0.9813 0.57763 0.7149 0.0
C1418 C 0.99135 0.57765 0.73348 0.0
H1419 H 1.00281 0.57093 0.83014 0.0
H1420 H 0.98601 0.57172 0.80001 0.0
H1421 H 0.03767 0.60591 0.75858 0.0
H1422 H 1.00282 0.57652 0.67209 0.0
H1423 H 0.01849 0.57637 0.70257 0.0
C1424 C 0.02415 0.15514 0.10397 0.0
C1425 C 0.03136 0.14602 0.12093 0.0
C1426 C 0.01831 0.18146 0.1015 0.0
C1427 C 0.031 0.24478 0.12328 0.0
H1428 H 0.97586 0.27101 0.0941 0.0
C1429 C 0.98336 0.34268 0.13463 0.0
C1430 C 0.97968 0.35915 0.11993 0.0
C1431 C 0.99262 0.31766 0.13218 0.0
C1432 C 0.9916 0.26391 0.10203 0.0
H1433 H 0.03635 0.15653 0.14877 0.0
H1434 H 0.02531 0.20175 0.14469 0.0
H1435 H 0.98451 0.22428 0.09485 0.0
H1436 H 0.98271 0.36263 0.09114 0.0
H1437 H 0.99848 0.31807 0.08675 0.0
H1438 H 0.03726 0.28413 0.13117 0.0
C1439 C 0.02507 0.18914 0.13311 0.0
C1440 C 0.99654 0.2372 0.10249 0.0
C1441 C 0.03112 0.16313 0.1355 0.0
C1442 C 0.9858 0.35032 0.10268 0.0
C1443 C 0.99455 0.32489 0.10017 0.0
C1444 C 0.02591 0.27127 0.12297 0.0
C1445 C 0.01949 0.19889 0.116 0.0
C1446 C 0.01582 0.22728 0.11358 0.0
C1447 C 0.99787 0.30835 0.11493 0.0
C1448 C 0.00578 0.28102 0.11271 0.0
H1449 H 0.02443 0.14231 0.0925 0.0
H1450 H 0.014 0.18835 0.08816 0.0
H1451 H 0.04652 0.23792 0.13153 0.0
H1452 H 0.97859 0.34904 0.14803 0.0
H1453 H 0.99482 0.30522 0.14376 0.0
C1454 C 0.48402 0.84674 0.10453 0.0
C1455 C 0.47721 0.85622 0.12147 0.0
C1456 C 0.49013 0.82044 0.10232 0.0
C1457 C 0.4788 0.75762 0.12512 0.0
H1458 H 0.53278 0.73102 0.09503 0.0
C1459 C 0.52699 0.65993 0.13624 0.0
C1460 C 0.52951 0.64304 0.12164 0.0
C1461 C 0.51794 0.68503 0.13378 0.0
C1462 C 0.51736 0.73823 0.10323 0.0
H1463 H 0.47321 0.84645 0.14951 0.0
H1464 H 0.4848 0.80127 0.14587 0.0
H1465 H 0.52397 0.77773 0.09552 0.0
H1466 H 0.52462 0.63894 0.09302 0.0
H1467 H 0.50922 0.68364 0.08859 0.0
H1468 H 0.47305 0.7184 0.13351 0.0
C1469 C 0.48451 0.81356 0.13412 0.0
C1470 C 0.51234 0.76492 0.10354 0.0
C1471 C 0.47816 0.83954 0.13627 0.0
C1472 C 0.52249 0.65158 0.10449 0.0
C1473 C 0.51394 0.67708 0.10195 0.0
C1474 C 0.484 0.73115 0.12496 0.0
C1475 C 0.48964 0.8034 0.11705 0.0
C1476 C 0.49348 0.77498 0.11493 0.0
C1477 C 0.51171 0.69399 0.11661 0.0
C1478 C 0.5037 0.72128 0.11436 0.0
H1479 H 0.48316 0.85924 0.0929 0.0
H1480 H 0.49407 0.81324 0.08899 0.0
H1481 H 0.46359 0.76456 0.13361 0.0
H1482 H 0.53239 0.65381 0.14958 0.0
H1483 H 0.51656 0.69776 0.14527 0.0
C1484 C 0.48543 0.65522 0.40057 0.0
C1485 C 0.47825 0.64596 0.38364 0.0
C1486 C 0.49096 0.68162 0.40299 0.0
C1487 C 0.47675 0.74455 0.38135 0.0
H1488 H 0.53213 0.77198 0.40977 0.0
C1489 C 0.52168 0.84351 0.36924 0.0
C1490 C 0.52639 0.85977 0.38389 0.0
C1491 C 0.51271 0.81842 0.37186 0.0
C1492 C 0.51631 0.76455 0.40206 0.0
H1493 H 0.47304 0.65632 0.35579 0.0
H1494 H 0.4835 0.70171 0.3598 0.0
H1495 H 0.52442 0.72509 0.40917 0.0
H1496 H 0.52544 0.86287 0.41276 0.0
H1497 H 0.51012 0.81824 0.41745 0.0
H1498 H 0.46938 0.78375 0.37357 0.0
C1499 C 0.484 0.68911 0.37138 0.0
C1500 C 0.51192 0.73775 0.40169 0.0
C1501 C 0.47828 0.66302 0.36903 0.0
C1502 C 0.5215 0.85073 0.40127 0.0
C1503 C 0.51303 0.82524 0.40394 0.0
C1504 C 0.48126 0.77116 0.38161 0.0
C1505 C 0.48947 0.69897 0.38847 0.0
C1506 C 0.49258 0.72742 0.39085 0.0
C1507 C 0.50877 0.80884 0.38922 0.0
C1508 C 0.50148 0.78135 0.39157 0.0
H1509 H 0.48529 0.64243 0.41207 0.0
H1510 H 0.49522 0.68861 0.41631 0.0
H1511 H 0.46119 0.73733 0.3733 0.0
H1512 H 0.52555 0.85004 0.35573 0.0
H1513 H 0.50982 0.80611 0.36029 0.0
C1514 C 0.04947 0.33303 0.37719 0.0
C1515 C 0.03803 0.35452 0.38553 0.0
C1516 C 0.04158 0.30793 0.38106 0.0
C1517 C 0.98701 0.27078 0.39698 0.0
H1518 H 0.03617 0.21475 0.39662 0.0
C1519 C 0.9904 0.15079 0.39762 0.0
C1520 C 0.97087 0.14656 0.38512 0.0
C1521 C 0.99857 0.17607 0.40149 0.0
C1522 C 0.02219 0.23012 0.39709 0.0
H1523 H 0.00914 0.36624 0.40456 0.0
H1524 H 0.99516 0.32198 0.4113 0.0
H1525 H 0.05079 0.25955 0.39722 0.0
H1526 H 0.94494 0.16576 0.36674 0.0
H1527 H 0.95928 0.20911 0.37327 0.0
H1528 H 0.95841 0.24136 0.39667 0.0
C1529 C 0.01033 0.32482 0.40173 0.0
C1530 C 0.03056 0.25582 0.39722 0.0
C1531 C 0.01832 0.35016 0.39787 0.0
C1532 C 0.95988 0.16811 0.37656 0.0
C1533 C 0.96794 0.19315 0.38044 0.0
C1534 C 0.97865 0.24509 0.39691 0.0
C1535 C 0.02197 0.30342 0.39338 0.0
C1536 C 0.01307 0.27645 0.39651 0.0
C1537 C 0.98727 0.19753 0.39299 0.0
C1538 C 0.99614 0.22447 0.39629 0.0
H1539 H 0.06457 0.33548 0.36751 0.0
H1540 H 0.05054 0.29202 0.37402 0.0
H1541 H 0.97303 0.28615 0.39642 0.0
H1542 H 0.99924 0.13465 0.40448 0.0
H1543 H 0.01354 0.17882 0.41123 0.0
C1544 C 0.02344 0.65896 0.86815 0.0
C1545 C 0.02721 0.64237 0.88278 0.0
C1546 C 0.01426 0.68399 0.87074 0.0
C1547 C 0.01583 0.7377 0.90067 0.0
H1548 H 0.95936 0.76318 0.87244 0.0
C1549 C 0.98326 0.84643 0.89899 0.0
C1550 C 0.97521 0.85538 0.88217 0.0
C1551 C 0.98905 0.82009 0.90148 0.0
C1552 C 0.97531 0.75647 0.88033 0.0
H1553 H 0.02445 0.63869 0.91157 0.0
H1554 H 0.00886 0.68328 0.91619 0.0
H1555 H 0.96892 0.71703 0.87269 0.0
H1556 H 0.96868 0.84449 0.85455 0.0
H1557 H 0.97961 0.79927 0.85865 0.0
H1558 H 0.02309 0.7774 0.90754 0.0
C1559 C 0.01265 0.67654 0.90273 0.0
C1560 C 0.98058 0.73001 0.88059 0.0
C1561 C 0.02131 0.6511 0.90009 0.0
C1562 C 0.97451 0.83804 0.86773 0.0
C1563 C 0.98052 0.81203 0.87014 0.0
C1564 C 0.01074 0.76437 0.90025 0.0
C1565 C 0.00919 0.69317 0.88804 0.0
C1566 C 1.00123 0.72045 0.89039 0.0
C1567 C 0.98701 0.80248 0.88714 0.0
C1568 C 0.99088 0.77412 0.8896 0.0
H1569 H 0.02803 0.65267 0.8547 0.0
H1570 H 0.01192 0.69652 0.85922 0.0
H1571 H 0.03199 0.73072 0.90824 0.0
H1572 H 0.98375 0.85943 0.91036 0.0
H1573 H 0.99408 0.81337 0.91474 0.0
C1574 C 0.48438 0.3509 0.90162 0.0
C1575 C 0.47814 0.35985 0.88443 0.0
C1576 C 0.49314 0.32545 0.90403 0.0
C1577 C 0.52453 0.27213 0.881 0.0
H1578 H 0.48338 0.22472 0.90897 0.0
C1579 C 0.53065 0.16404 0.86832 0.0
C1580 C 0.5309 0.14689 0.88287 0.0
C1581 C 0.52437 0.18999 0.87071 0.0
C1582 C 0.49534 0.23776 0.90137 0.0
H1583 H 0.47685 0.34993 0.85629 0.0
H1584 H 0.49309 0.30607 0.86038 0.0
H1585 H 0.47449 0.27139 0.90987 0.0
H1586 H 0.52378 0.14306 0.91127 0.0
H1587 H 0.51297 0.189 0.91562 0.0
H1588 H 0.54534 0.23896 0.87235 0.0
C1589 C 0.49097 0.31843 0.872 0.0
C1590 C 0.49027 0.26443 0.90192 0.0
C1591 C 0.48169 0.34347 0.86966 0.0
C1592 C 0.52348 0.15591 0.89981 0.0
C1593 C 0.51742 0.18218 0.90229 0.0
C1594 C 0.52977 0.24566 0.88061 0.0
C1595 C 0.49636 0.30901 0.8892 0.0
C1596 C 0.50437 0.28169 0.8913 0.0
C1597 C 0.51858 0.19966 0.88781 0.0
C1598 C 0.51469 0.22802 0.89026 0.0
H1599 H 0.48141 0.36314 0.91321 0.0
H1600 H 0.49719 0.31854 0.91741 0.0
H1601 H 0.53582 0.2851 0.87285 0.0
H1602 H 0.53605 0.15751 0.85507 0.0
H1603 H 0.5246 0.20264 0.85915 0.0
C1604 C 0.48634 0.15158 0.60341 0.0
C1605 C 0.48067 0.14255 0.62068 0.0
C1606 C 0.49518 0.17698 0.60094 0.0
C1607 C 0.52777 0.22994 0.62346 0.0
H1608 H 0.4854 0.27781 0.59679 0.0
C1609 C 0.53408 0.33782 0.63695 0.0
C1610 C 0.53342 0.35533 0.62259 0.0
C1611 C 0.52804 0.31185 0.63439 0.0
C1612 C 0.49771 0.26465 0.604 0.0
H1613 H 0.48047 0.15226 0.64887 0.0
H1614 H 0.4969 0.19603 0.64464 0.0
H1615 H 0.47637 0.23119 0.5958 0.0
H1616 H 0.52491 0.35972 0.59442 0.0
H1617 H 0.51452 0.31374 0.58979 0.0
H1618 H 0.54906 0.26294 0.63182 0.0
C1619 C 0.49426 0.18377 0.63302 0.0
C1620 C 0.49255 0.238 0.60341 0.0
C1621 C 0.48489 0.15878 0.63544 0.0
C1622 C 0.52538 0.34659 0.60572 0.0
C1623 C 0.51954 0.3203 0.60309 0.0
C1624 C 0.5331 0.25638 0.62388 0.0
C1625 C 0.49906 0.19328 0.61576 0.0
C1626 C 0.50709 0.22057 0.6136 0.0
C1627 C 0.52153 0.30251 0.61734 0.0
C1628 C 0.51759 0.27419 0.61471 0.0
H1629 H 0.48283 0.13946 0.59184 0.0
H1630 H 0.49876 0.18397 0.58751 0.0
H1631 H 0.5394 0.21682 0.63128 0.0
H1632 H 0.53991 0.3441 0.65016 0.0
H1633 H 0.52891 0.29896 0.64581 0.0
C1634 C 0.02675 0.84353 0.63465 0.0
C1635 C 0.02963 0.86024 0.61999 0.0
C1636 C 0.01765 0.81845 0.63224 0.0
C1637 C 0.01774 0.76495 0.60197 0.0
H1638 H 0.96326 0.73891 0.63183 0.0
C1639 C 0.98472 0.6564 0.60336 0.0
C1640 C 0.97744 0.64705 0.62023 0.0
C1641 C 0.99075 0.68271 0.60111 0.0
C1642 C 0.97867 0.74577 0.62349 0.0
H1643 H 0.02534 0.86405 0.5913 0.0
H1644 H 0.00988 0.81937 0.58696 0.0
H1645 H 0.97272 0.78507 0.63163 0.0
H1646 H 0.9725 0.65709 0.64816 0.0
H1647 H 0.98397 0.70228 0.64447 0.0
H1648 H 0.02456 0.72538 0.59453 0.0
C1649 C 0.01433 0.82606 0.60033 0.0
C1650 C 0.98387 0.77224 0.62327 0.0
C1651 C 0.02291 0.85155 0.60282 0.0
C1652 C 0.97781 0.66389 0.63495 0.0
C1653 C 0.98409 0.68988 0.63278 0.0
C1654 C 0.01273 0.73826 0.60235 0.0
C1655 C 0.01176 0.80931 0.61505 0.0
C1656 C 1.00381 0.78201 0.61285 0.0
C1657 C 0.98973 0.69989 0.61575 0.0
C1658 C 0.99359 0.7283 0.61355 0.0
H1659 H 0.03194 0.84978 0.64801 0.0
H1660 H 0.01601 0.80584 0.64378 0.0
H1661 H 0.03335 0.77207 0.59391 0.0
H1662 H 0.98432 0.64378 0.59178 0.0
H1663 H 0.99508 0.68979 0.58781 0.0
C1664 C 0.98047 0.97741 0.93661 0.0
C1665 C 0.96991 0.95236 0.93677 0.0
C1666 C 0.98827 0.98928 0.95246 0.0
C1667 C 0.98122 0.98719 1.00166 0.0
H1668 H 0.04491 0.02494 1.001 0.0
C1669 C 0.02785 0.02431 0.06642 0.0
C1670 C 0.03823 0.04944 0.06631 0.0
C1671 C 0.02007 0.01248 0.05055 0.0
C1672 C 0.02696 0.01473 1.00137 0.0
H1673 H 0.95869 0.92045 0.95387 0.0
H1674 H 0.97245 0.94121 0.98167 0.0
H1675 H 0.02962 0.00417 0.97375 0.0
H1676 H 0.04917 0.08152 0.04927 0.0
H1677 H 0.03548 0.06081 0.02144 0.0
H1678 H 0.97857 0.99774 0.02929 0.0
C1679 C 0.97454 0.95169 0.96921 0.0
C1680 C 0.01817 0.0028 0.98575 0.0
C1681 C 0.9667 0.93976 0.95328 0.0
C1682 C 0.0413 0.06216 0.04983 0.0
C1683 C 0.0335 0.05025 0.03388 0.0
C1684 C 0.99001 0.99911 0.01729 0.0
C1685 C 0.98575 0.97647 0.96895 0.0
C1686 C 0.99516 0.98891 0.98568 0.0
C1687 C 0.02244 0.0254 0.0341 0.0
C1688 C 0.01302 0.01301 0.01736 0.0
H1689 H 0.98304 0.98786 0.92418 0.0
H1690 H 0.99629 0.00857 0.95178 0.0
H1691 H 0.96326 0.977 0.00204 0.0
H1692 H 0.02539 0.01377 0.07883 0.0
H1693 H 0.01216 0.99313 0.05119 0.0
C1694 C 0.54098 0.06273 0.95381 0.0
C1695 C 0.53783 0.05011 0.93729 0.0
C1696 C 0.53315 0.05076 0.96973 0.0
C1697 C 0.48966 0.99957 0.98625 0.0
H1698 H 0.52938 0.00451 0.02974 0.0
C1699 C 0.46665 0.94007 0.05027 0.0
C1700 C 0.46977 0.95274 0.06676 0.0
C1701 C 0.47445 0.952 0.03433 0.0
C1702 C 0.5179 0.00317 0.01776 0.0
H1703 H 0.52482 0.01458 0.92468 0.0
H1704 H 0.51158 0.99383 0.95227 0.0
H1705 H 0.54461 0.02535 0.0025 0.0
H1706 H 0.48269 0.98834 0.07932 0.0
H1707 H 0.4959 0.00904 0.0517 0.0
H1708 H 0.46296 0.97739 1.00151 0.0
C1709 C 0.51955 0.01314 0.95296 0.0
C1710 C 0.52665 0.01514 0.00214 0.0
C1711 C 0.52734 0.02504 0.93712 0.0
C1712 C 0.4802 0.97784 0.06689 0.0
C1713 C 0.48797 0.9897 0.05104 0.0
C1714 C 0.48092 0.98759 1.00187 0.0
C1715 C 0.52202 0.02595 0.96945 0.0
C1716 C 0.51266 0.01347 0.98618 0.0
C1717 C 0.48553 0.97684 0.03457 0.0
C1718 C 0.4949 0.98928 0.01783 0.0
H1719 H 0.54893 0.08205 0.95441 0.0
H1720 H 0.5352 0.06124 0.98219 0.0
H1721 H 0.47818 0.99823 0.97427 0.0
H1722 H 0.45873 0.92072 0.04969 0.0
H1723 H 0.47242 0.94149 0.02187 0.0
C1724 C 0.46652 0.06182 0.55064 0.0
C1725 C 0.4679 0.04801 0.56681 0.0
C1726 C 0.47448 0.05034 0.53459 0.0
C1727 C 0.48889 0.98669 0.51363 0.0
H1728 H 0.53066 0.02756 0.4816 0.0
C1729 C 0.54132 0.94071 0.45342 0.0
C1730 C 0.54 0.95448 0.43723 0.0
C1731 C 0.53333 0.95224 0.46945 0.0
C1732 C 0.51885 0.01593 0.49032 0.0
H1733 H 0.4779 0.01095 0.57867 0.0
H1734 H 0.49178 0.99118 0.55089 0.0
H1735 H 0.51329 0.04742 0.50855 0.0
H1736 H 0.53009 0.99151 0.42532 0.0
H1737 H 0.51613 0.01136 0.45305 0.0
H1738 H 0.49446 0.95519 0.49541 0.0
C1739 C 0.48445 0.01078 0.55049 0.0
C1740 C 0.5088 0.02736 0.50574 0.0
C1741 C 0.4766 0.02223 0.56648 0.0
C1742 C 0.53133 0.98026 0.43752 0.0
C1743 C 0.52344 0.99176 0.45348 0.0
C1744 C 0.49894 0.97526 0.49821 0.0
C1745 C 0.48383 0.02477 0.53438 0.0
C1746 C 0.49372 0.01288 0.51761 0.0
C1747 C 0.52399 0.97781 0.46961 0.0
C1748 C 0.51404 0.98973 0.48636 0.0
H1749 H 0.45991 0.08169 0.55042 0.0
H1750 H 0.47343 0.06153 0.52235 0.0
H1751 H 0.47709 0.97505 0.52236 0.0
H1752 H 0.54791 0.92083 0.45368 0.0
H1753 H 0.53433 0.94107 0.48169 0.0
C1754 C 0.02929 0.98071 0.56611 0.0
C1755 C 0.03978 0.95563 0.56628 0.0
C1756 C 0.02112 0.99199 0.55015 0.0
C1757 C 0.02688 0.9883 0.50098 0.0
H1758 H 0.96252 0.02488 0.50182 0.0
C1759 C 0.97884 0.02358 0.43621 0.0
C1760 C 0.96777 0.0484 0.43628 0.0
C1761 C 0.98701 0.01207 0.4521 0.0
C1762 C 0.98065 0.01501 0.50138 0.0
H1763 H 0.05058 0.92307 0.5496 0.0
H1764 H 0.03624 0.94285 0.52161 0.0
H1765 H 0.97879 0.00524 0.52918 0.0
H1766 H 0.95604 0.08027 0.45325 0.0
H1767 H 0.97052 0.0602 0.48108 0.0
H1768 H 0.02881 0.99814 0.47321 0.0
C1769 C 0.03445 0.95378 0.53391 0.0
C1770 C 0.98999 0.00372 0.51707 0.0
C1771 C 0.04264 0.94242 0.54995 0.0
C1772 C 0.96442 0.06112 0.45273 0.0
C1773 C 0.97268 0.04958 0.46868 0.0
C1774 C 0.01756 0.99962 0.48529 0.0
C1775 C 0.02321 0.97855 0.53388 0.0
C1776 C 0.01324 0.99027 0.51708 0.0
C1777 C 0.98441 0.02504 0.46852 0.0
C1778 C 0.99431 0.01311 0.48528 0.0
H1779 H 0.02699 0.99161 0.57839 0.0
H1780 H 0.01307 0.01129 0.55058 0.0
H1781 H 0.045 0.9784 0.50057 0.0
H1782 H 0.98153 0.01306 0.42381 0.0
H1783 H 0.99543 0.99294 0.45149 0.0
C1784 C 0.5307 0.52231 0.06741 0.0
C1785 C 0.54001 0.54787 0.06768 0.0
C1786 C 0.52277 0.5109 0.05144 0.0
C1787 C 0.49929 0.52762 0.0065 0.0
H1788 H 0.51206 0.45502 0.99657 0.0
C1789 C 0.47616 0.48045 0.93842 0.0
C1790 C 0.46686 0.45489 0.93821 0.0
C1791 C 0.48425 0.49188 0.95435 0.0
C1792 C 0.50802 0.47522 0.99926 0.0
H1793 H 0.54897 0.58117 0.05119 0.0
H1794 H 0.5353 0.56108 0.02314 0.0
H1795 H 0.52964 0.47473 0.02351 0.0
H1796 H 0.45809 0.4216 0.95477 0.0
H1797 H 0.47201 0.44172 0.98274 0.0
H1798 H 0.47765 0.52811 0.98226 0.0
C1799 C 0.53385 0.55004 0.03541 0.0
C1800 C 0.51819 0.48656 0.01467 0.0
C1801 C 0.54189 0.56148 0.05146 0.0
C1802 C 0.46516 0.44129 0.95446 0.0
C1803 C 0.47334 0.45275 0.97045 0.0
C1804 C 0.48912 0.51628 0.99108 0.0
C1805 C 0.52391 0.52471 0.03527 0.0
C1806 C 0.51393 0.5129 0.0185 0.0
C1807 C 0.48328 0.47809 0.97054 0.0
C1808 C 0.49336 0.48994 0.98727 0.0
H1809 H 0.52901 0.51118 0.07965 0.0
H1810 H 0.51498 0.4915 0.05188 0.0
H1811 H 0.49524 0.54782 0.00919 0.0
H1812 H 0.47772 0.49157 0.92618 0.0
H1813 H 0.49203 0.51129 0.95386 0.0
C1814 C 0.97716 0.47959 0.06606 0.0
C1815 C 0.96788 0.45403 0.06631 0.0
C1816 C 0.98523 0.49098 0.0501 0.0
C1817 C 0.98127 0.48574 1.00085 0.0
H1818 H 0.04338 0.5261 0.00224 0.0
C1819 C 0.02972 0.52149 0.93642 0.0
C1820 C 0.03894 0.54707 0.93618 0.0
C1821 C 0.02179 0.51002 0.95238 0.0
C1822 C 0.02587 0.51514 1.00165 0.0
H1823 H 0.95914 0.42068 0.0498 0.0
H1824 H 0.97335 0.44059 0.02184 0.0
H1825 H 0.02724 0.50637 0.02962 0.0
H1826 H 0.04776 0.58037 0.95273 0.0
H1827 H 0.03377 0.56032 0.98069 0.0
H1828 H 0.97989 0.49452 0.97289 0.0
C1829 C 0.97423 0.45185 0.03405 0.0
C1830 C 0.01659 0.50382 0.01735 0.0
C1831 C 0.96612 0.44041 0.05007 0.0
C1832 C 0.04082 0.56063 0.95244 0.0
C1833 C 0.03283 0.5491 0.96847 0.0
C1834 C 0.99055 0.49707 0.98515 0.0
C1835 C 0.98426 0.47714 0.03393 0.0
C1836 C 0.99415 0.489 0.01715 0.0
C1837 C 0.02283 0.5238 0.96857 0.0
C1838 C 0.01298 0.51189 0.98535 0.0
H1839 H 0.97859 0.4908 0.07827 0.0
H1840 H 0.99231 0.51067 0.05046 0.0
H1841 H 0.96376 0.47478 1.00025 0.0
H1842 H 0.02821 0.51034 0.92419 0.0
H1843 H 0.01473 0.49032 0.952 0.0
C1844 C 0.96724 0.56326 0.5489 0.0
C1845 C 0.97134 0.55085 0.56539 0.0
C1846 C 0.97527 0.55166 0.5329 0.0
C1847 C 0.02089 0.50285 0.51589 0.0
H1848 H 0.97937 0.50448 0.47311 0.0
C1849 C 0.04499 0.4429 0.45237 0.0
C1850 C 0.04027 0.45457 0.43571 0.0
C1851 C 0.03714 0.45498 0.46824 0.0
C1852 C 0.99136 0.50411 0.48487 0.0
H1853 H 0.98638 0.51604 0.57786 0.0
H1854 H 1.00006 0.49596 0.55014 0.0
H1855 H 0.96403 0.52508 0.50041 0.0
H1856 H 0.0244 0.4886 0.42275 0.0
H1857 H 0.01117 0.50964 0.45026 0.0
H1858 H 0.04824 0.48192 0.50037 0.0
C1859 C 0.99111 0.51484 0.54953 0.0
C1860 C 0.98254 0.51594 0.50053 0.0
C1861 C 0.98308 0.52634 0.56545 0.0
C1862 C 0.02816 0.47887 0.43532 0.0
C1863 C 0.02039 0.49092 0.45112 0.0
C1864 C 0.02973 0.49107 0.50023 0.0
C1865 C 0.98762 0.52745 0.53307 0.0
C1866 C 0.99715 0.51538 0.51625 0.0
C1867 C 0.02444 0.47901 0.46778 0.0
C1868 C 0.01508 0.49151 0.48451 0.0
H1869 H 0.9583 0.58214 0.54837 0.0
H1870 H 0.9724 0.56197 0.52044 0.0
H1871 H 0.03283 0.50242 0.52768 0.0
H1872 H 0.0542 0.42417 0.45315 0.0
H1873 H 0.04042 0.44516 0.48083 0.0
C1874 C 0.52929 0.47737 0.56818 0.0
C1875 C 0.53975 0.45227 0.56807 0.0
C1876 C 0.52167 0.48927 0.5523 0.0
C1877 C 0.52903 0.48727 0.50315 0.0
H1878 H 0.46521 0.52484 0.50364 0.0
C1879 C 0.48263 0.52447 0.43831 0.0
C1880 C 0.47202 0.5495 0.43844 0.0
C1881 C 0.49046 0.51265 0.45417 0.0
C1882 C 0.4832 0.5147 0.50332 0.0
H1883 H 0.55101 0.42032 0.55101 0.0
H1884 H 0.53756 0.44115 0.52315 0.0
H1885 H 0.48036 0.50403 0.53091 0.0
H1886 H 0.46078 0.58145 0.45552 0.0
H1887 H 0.47459 0.56077 0.48333 0.0
H1888 H 0.53186 0.49794 0.47556 0.0
C1889 C 0.5354 0.45163 0.53561 0.0
C1890 C 0.49191 0.50274 0.51896 0.0
C1891 C 0.54307 0.43966 0.55157 0.0
C1892 C 0.46883 0.56216 0.45494 0.0
C1893 C 0.4767 0.55027 0.47088 0.0
C1894 C 0.52032 0.49924 0.48752 0.0
C1895 C 0.52426 0.47645 0.53583 0.0
C1896 C 0.51495 0.4889 0.51908 0.0
C1897 C 0.48792 0.52549 0.47064 0.0
C1898 C 0.49728 0.51307 0.48739 0.0
H1899 H 0.52666 0.48784 0.58061 0.0
H1900 H 0.51369 0.50859 0.55295 0.0
H1901 H 0.54701 0.47711 0.50283 0.0
H1902 H 0.48519 0.51398 0.42589 0.0
H1903 H 0.49852 0.49337 0.45351 0.0
loop_
_geom_bond_atom_site_label_1
_geom_bond_atom_site_label_2
_geom_bond_distance
_geom_bond_site_symmetry_2
_ccdc_geom_bond_type
Co0 O2 2.143 . S
Co0 O8 2.074 . S
Co0 O11 2.093 . S
Co0 O24 2.097 . S
Co0 N41 2.151 . S
Co0 N49 2.214 1_455 S
Co1 O2 2.160 . S
Co1 O7 2.058 . S
Co1 O17 2.057 . S
Co1 O32 2.037 . S
Co1 N36 2.145 . S
Co1 N57 2.257 . S
O2 Co0 2.143 . S
O2 Co1 2.160 . S
C3 O4 1.278 . S
C3 O11 1.224 . S
O4 C3 1.278 . S
C5 O6 1.245 . S
C5 O17 1.232 . S
O6 C5 1.245 . S
O7 Co1 2.058 . S
O7 C33 1.269 . S
O8 Co0 2.074 . S
O8 C33 1.257 . S
H9 C34 0.930 . S
H10 C40 0.930 . S
O11 Co0 2.093 . S
O11 C3 1.224 . S
H12 C44 0.929 1_655 S
H13 C46 0.930 . S
H14 C47 0.930 . S
H15 C45 0.938 . S
H16 C48 0.928 . S
O17 Co1 2.057 . S
O17 C5 1.232 . S
H18 C37 0.929 . S
H19 C38 0.929 . S
H20 C50 0.931 . S
H21 C42 0.929 . S
H22 C51 0.930 . S
H23 C43 0.931 . S
O24 Co0 2.097 . S
O24 C52 1.214 . S
H25 C53 0.929 . S
H26 C54 0.929 . S
H27 C55 0.930 . S
H28 C56 0.929 . S
H29 C58 0.930 . S
H30 C35 0.930 . S
H31 C39 0.930 . S
O32 Co1 2.037 . S
O32 C52 1.234 . S
C33 O7 1.269 . S
C33 O8 1.257 . S
C34 H9 0.930 . S
C34 C37 1.388 . S
C34 C39 1.418 . S
C35 H30 0.930 . S
C35 C38 1.404 . S
C35 C39 1.353 . S
N36 Co1 2.145 . S
N36 C37 1.397 . S
N36 C38 1.334 . S
C37 H18 0.929 . S
C37 C34 1.388 . S
C37 N36 1.397 . S
C38 H19 0.929 . S
C38 C35 1.404 . S
C38 N36 1.334 . S
C39 H31 0.930 . S
C39 C34 1.418 . S
C39 C35 1.353 . S
C40 H10 0.930 . S
C40 N41 1.330 . S
C40 C42 1.446 1_545 S
N41 Co0 2.151 . S
N41 C40 1.330 . S
N41 C45 1.418 . S
C42 H21 0.929 . S
C42 C40 1.446 1_565 S
C42 C43 1.332 . S
C43 H23 0.931 . S
C43 C42 1.332 . S
C43 C44 1.267 . S
C44 H12 0.929 1_455 S
C44 C43 1.267 . S
C44 C45 1.251 1_565 S
C45 H15 0.938 . S
C45 N41 1.418 . S
C45 C44 1.251 1_545 S
C46 H13 0.930 . S
C46 C48 1.406 . S
C46 C51 1.261 . S
C47 H14 0.930 . S
C47 N49 1.325 . S
C47 C50 1.357 . S
C48 H16 0.928 . S
C48 C46 1.406 . S
C48 N49 1.261 . S
N49 Co0 2.214 1_655 S
N49 C47 1.325 . S
N49 C48 1.261 . S
C50 H20 0.931 . S
C50 C47 1.357 . S
C50 C51 1.312 . S
C51 H22 0.930 . S
C51 C46 1.261 . S
C51 C50 1.312 . S
C52 O24 1.214 . S
C52 O32 1.234 . S
C53 H25 0.929 . S
C53 C56 1.391 . S
C53 C58 1.391 . S
C54 H26 0.929 . S
C54 C55 1.390 . S
C54 N57 1.391 . S
C55 H27 0.930 . S
C55 C54 1.390 . S
C55 C56 1.392 . S
C56 H28 0.929 . S
C56 C53 1.391 . S
C56 C55 1.392 . S
N57 Co1 2.257 . S
N57 C54 1.391 . S
N57 C58 1.388 . S
C58 H29 0.930 . S
C58 C53 1.391 . S
C58 N57 1.388 . S
Co59 O61 2.143 . S
Co59 O67 2.074 . S
Co59 O70 2.093 . S
Co59 O83 2.097 . S
Co59 N100 2.151 . S
Co59 N108 2.214 . S
Co60 O61 2.160 . S
Co60 O66 2.058 . S
Co60 O76 2.057 . S
Co60 O91 2.037 . S
Co60 N95 2.145 . S
Co60 N116 2.257 . S
O61 Co59 2.143 . S
O61 Co60 2.160 . S
C62 O63 1.278 . S
C62 O70 1.224 . S
O63 C62 1.278 . S
C64 O65 1.245 . S
C64 O76 1.232 . S
O65 C64 1.245 . S
O66 Co60 2.058 . S
O66 C92 1.269 . S
O67 Co59 2.074 . S
O67 C92 1.257 . S
H68 C93 0.930 . S
H69 C99 0.930 . S
O70 Co59 2.093 . S
O70 C62 1.224 . S
H71 C103 0.929 . S
H72 C105 0.930 . S
H73 C106 0.930 . S
H74 C104 0.929 . S
H75 C107 0.928 . S
O76 Co60 2.057 . S
O76 C64 1.232 . S
H77 C96 0.929 . S
H78 C97 0.929 . S
H79 C109 0.931 . S
H80 C101 0.929 . S
H81 C110 0.930 . S
H82 C102 0.931 . S
O83 Co59 2.097 . S
O83 C111 1.214 . S
H84 C112 0.929 . S
H85 C113 0.929 . S
H86 C114 0.930 . S
H87 C115 0.929 . S
H88 C117 0.930 . S
H89 C94 0.930 . S
H90 C98 0.930 . S
O91 Co60 2.037 . S
O91 C111 1.234 . S
C92 O66 1.269 . S
C92 O67 1.257 . S
C93 H68 0.930 . S
C93 C96 1.388 . S
C93 C98 1.418 . S
C94 H89 0.930 . S
C94 C97 1.404 . S
C94 C98 1.353 . S
N95 Co60 2.145 . S
N95 C96 1.397 . S
N95 C97 1.334 . S
C96 H77 0.929 . S
C96 C93 1.388 . S
C96 N95 1.397 . S
C97 H78 0.929 . S
C97 C94 1.404 . S
C97 N95 1.334 . S
C98 H90 0.930 . S
C98 C93 1.418 . S
C98 C94 1.353 . S
C99 H69 0.930 . S
C99 N100 1.330 . S
C99 C101 1.446 1_565 S
N100 Co59 2.151 . S
N100 C99 1.330 . S
N100 C104 1.418 . S
C101 H80 0.929 . S
C101 C99 1.446 1_545 S
C101 C102 1.332 . S
C102 H82 0.931 . S
C102 C101 1.332 . S
C102 C103 1.267 . S
C103 H71 0.929 . S
C103 C102 1.267 . S
C103 C104 1.251 1_545 S
C104 H74 0.929 . S
C104 N100 1.418 . S
C104 C103 1.251 1_565 S
C105 H72 0.930 . S
C105 C107 1.406 . S
C105 C110 1.261 . S
C106 H73 0.930 . S
C106 N108 1.325 . S
C106 C109 1.357 . S
C107 H75 0.928 . S
C107 C105 1.406 . S
C107 N108 1.261 . S
N108 Co59 2.214 . S
N108 C106 1.325 . S
N108 C107 1.261 . S
C109 H79 0.931 . S
C109 C106 1.357 . S
C109 C110 1.312 . S
C110 H81 0.930 . S
C110 C105 1.261 . S
C110 C109 1.312 . S
C111 O83 1.214 . S
C111 O91 1.234 . S
C112 H84 0.929 . S
C112 C115 1.391 . S
C112 C117 1.391 . S
C113 H85 0.929 . S
C113 C114 1.390 . S
C113 N116 1.391 . S
C114 H86 0.930 . S
C114 C113 1.390 . S
C114 C115 1.392 . S
C115 H87 0.929 . S
C115 C112 1.391 . S
C115 C114 1.392 . S
N116 Co60 2.257 . S
N116 C113 1.391 . S
N116 C117 1.388 . S
C117 H88 0.930 . S
C117 C112 1.391 . S
C117 N116 1.388 . S
Co118 O120 2.143 . S
Co118 O126 2.074 . S
Co118 O129 2.093 . S
Co118 O142 2.097 . S
Co118 N159 2.151 . S
Co118 N167 2.214 . S
Co119 O120 2.160 . S
Co119 O125 2.058 . S
Co119 O135 2.057 . S
Co119 O150 2.037 . S
Co119 N154 2.145 . S
Co119 N175 2.257 . S
O120 Co118 2.143 . S
O120 Co119 2.160 . S
C121 O122 1.278 . S
C121 O129 1.224 . S
O122 C121 1.278 . S
C123 O124 1.245 . S
C123 O135 1.232 . S
O124 C123 1.245 . S
O125 Co119 2.058 . S
O125 C151 1.269 . S
O126 Co118 2.074 . S
O126 C151 1.257 . S
H127 C152 0.930 . S
H128 C158 0.930 . S
O129 Co118 2.093 . S
O129 C121 1.224 . S
H130 C162 0.929 . S
H131 C164 0.930 . S
H132 C165 0.930 . S
H133 C163 0.929 . S
H134 C166 0.928 . S
O135 Co119 2.057 . S
O135 C123 1.232 . S
H136 C155 0.929 . S
H137 C156 0.929 . S
H138 C168 0.931 . S
H139 C160 0.929 . S
H140 C169 0.930 . S
H141 C161 0.931 . S
O142 Co118 2.097 . S
O142 C170 1.214 . S
H143 C171 0.929 . S
H144 C172 0.929 . S
H145 C173 0.930 . S
H146 C174 0.929 . S
H147 C176 0.930 . S
H148 C153 0.930 . S
H149 C157 0.930 . S
O150 Co119 2.037 . S
O150 C170 1.234 . S
C151 O125 1.269 . S
C151 O126 1.257 . S
C152 H127 0.930 . S
C152 C155 1.388 . S
C152 C157 1.418 . S
C153 H148 0.930 . S
C153 C156 1.404 . S
C153 C157 1.353 . S
N154 Co119 2.145 . S
N154 C155 1.397 . S
N154 C156 1.334 . S
C155 H136 0.929 . S
C155 C152 1.388 . S
C155 N154 1.397 . S
C156 H137 0.929 . S
C156 C153 1.404 . S
C156 N154 1.334 . S
C157 H149 0.930 . S
C157 C152 1.418 . S
C157 C153 1.353 . S
C158 H128 0.930 . S
C158 N159 1.330 . S
C158 C160 1.446 1_565 S
N159 Co118 2.151 . S
N159 C158 1.330 . S
N159 C163 1.418 . S
C160 H139 0.929 . S
C160 C158 1.446 1_545 S
C160 C161 1.332 . S
C161 H141 0.931 . S
C161 C160 1.332 . S
C161 C162 1.267 . S
C162 H130 0.929 . S
C162 C161 1.267 . S
C162 C163 1.251 1_545 S
C163 H133 0.929 . S
C163 N159 1.418 . S
C163 C162 1.251 1_565 S
C164 H131 0.930 . S
C164 C166 1.406 . S
C164 C169 1.261 . S
C165 H132 0.930 . S
C165 N167 1.325 . S
C165 C168 1.357 . S
C166 H134 0.928 . S
C166 C164 1.406 . S
C166 N167 1.261 . S
N167 Co118 2.214 . S
N167 C165 1.325 . S
N167 C166 1.261 . S
C168 H138 0.931 . S
C168 C165 1.357 . S
C168 C169 1.312 . S
C169 H140 0.930 . S
C169 C164 1.261 . S
C169 C168 1.312 . S
C170 O142 1.214 . S
C170 O150 1.234 . S
C171 H143 0.929 . S
C171 C174 1.391 . S
C171 C176 1.391 . S
C172 H144 0.929 . S
C172 C173 1.390 . S
C172 N175 1.391 . S
C173 H145 0.930 . S
C173 C172 1.390 . S
C173 C174 1.392 . S
C174 H146 0.929 . S
C174 C171 1.391 . S
C174 C173 1.392 . S
N175 Co119 2.257 . S
N175 C172 1.391 . S
N175 C176 1.388 . S
C176 H147 0.930 . S
C176 C171 1.391 . S
C176 N175 1.388 . S
Co177 O179 2.143 . S
Co177 O185 2.074 . S
Co177 O188 2.093 . S
Co177 O201 2.097 . S
Co177 N218 2.151 . S
Co177 N226 2.214 1_655 S
Co178 O179 2.160 . S
Co178 O184 2.058 . S
Co178 O194 2.057 . S
Co178 O209 2.037 . S
Co178 N213 2.145 . S
Co178 N234 2.257 . S
O179 Co177 2.143 . S
O179 Co178 2.160 . S
C180 O181 1.278 . S
C180 O188 1.224 . S
O181 C180 1.278 . S
C182 O183 1.245 . S
C182 O194 1.232 . S
O183 C182 1.245 . S
O184 Co178 2.058 . S
O184 C210 1.269 . S
O185 Co177 2.074 . S
O185 C210 1.257 . S
H186 C211 0.930 . S
H187 C217 0.930 . S
O188 Co177 2.093 . S
O188 C180 1.224 . S
H189 C221 0.929 1_455 S
H190 C223 0.930 . S
H191 C224 0.930 . S
H192 C222 0.938 . S
H193 C225 0.928 . S
O194 Co178 2.057 . S
O194 C182 1.232 . S
H195 C214 0.929 . S
H196 C215 0.929 . S
H197 C227 0.931 . S
H198 C219 0.929 . S
H199 C228 0.930 . S
H200 C220 0.931 . S
O201 Co177 2.097 . S
O201 C229 1.214 . S
H202 C230 0.929 . S
H203 C231 0.929 . S
H204 C232 0.930 . S
H205 C233 0.929 . S
H206 C235 0.930 . S
H207 C212 0.930 . S
H208 C216 0.930 . S
O209 Co178 2.037 . S
O209 C229 1.234 . S
C210 O184 1.269 . S
C210 O185 1.257 . S
C211 H186 0.930 . S
C211 C214 1.388 . S
C211 C216 1.418 . S
C212 H207 0.930 . S
C212 C215 1.404 . S
C212 C216 1.353 . S
N213 Co178 2.145 . S
N213 C214 1.397 . S
N213 C215 1.334 . S
C214 H195 0.929 . S
C214 C211 1.388 . S
C214 N213 1.397 . S
C215 H196 0.929 . S
C215 C212 1.404 . S
C215 N213 1.334 . S
C216 H208 0.930 . S
C216 C211 1.418 . S
C216 C212 1.353 . S
C217 H187 0.930 . S
C217 N218 1.330 . S
C217 C219 1.446 1_545 S
N218 Co177 2.151 . S
N218 C217 1.330 . S
N218 C222 1.418 . S
C219 H198 0.929 . S
C219 C217 1.446 1_565 S
C219 C220 1.332 . S
C220 H200 0.931 . S
C220 C219 1.332 . S
C220 C221 1.267 . S
C221 H189 0.929 1_655 S
C221 C220 1.267 . S
C221 C222 1.251 1_565 S
C222 H192 0.938 . S
C222 N218 1.418 . S
C222 C221 1.251 1_545 S
C223 H190 0.930 . S
C223 C225 1.406 . S
C223 C228 1.261 . S
C224 H191 0.930 . S
C224 N226 1.325 . S
C224 C227 1.357 . S
C225 H193 0.928 . S
C225 C223 1.406 . S
C225 N226 1.261 . S
N226 Co177 2.214 1_455 S
N226 C224 1.325 . S
N226 C225 1.261 . S
C227 H197 0.931 . S
C227 C224 1.357 . S
C227 C228 1.312 . S
C228 H199 0.930 . S
C228 C223 1.261 . S
C228 C227 1.312 . S
C229 O201 1.214 . S
C229 O209 1.234 . S
C230 H202 0.929 . S
C230 C233 1.391 . S
C230 C235 1.391 . S
C231 H203 0.929 . S
C231 C232 1.390 . S
C231 N234 1.391 . S
C232 H204 0.930 . S
C232 C231 1.390 . S
C232 C233 1.392 . S
C233 H205 0.929 . S
C233 C230 1.391 . S
C233 C232 1.392 . S
N234 Co178 2.257 . S
N234 C231 1.391 . S
N234 C235 1.388 . S
C235 H206 0.930 . S
C235 C230 1.391 . S
C235 N234 1.388 . S
Co236 O238 2.143 . S
Co236 O244 2.074 . S
Co236 O247 2.093 . S
Co236 O260 2.097 . S
Co236 N277 2.151 . S
Co236 N285 2.214 1_655 S
Co237 O238 2.160 . S
Co237 O243 2.058 . S
Co237 O253 2.057 . S
Co237 O268 2.037 . S
Co237 N272 2.145 . S
Co237 N293 2.257 . S
O238 Co236 2.143 . S
O238 Co237 2.160 . S
C239 O240 1.278 . S
C239 O247 1.224 . S
O240 C239 1.278 . S
C241 O242 1.245 . S
C241 O253 1.232 . S
O242 C241 1.245 . S
O243 Co237 2.058 . S
O243 C269 1.269 . S
O244 Co236 2.074 . S
O244 C269 1.257 . S
H245 C270 0.930 . S
H246 C276 0.930 . S
O247 Co236 2.093 . S
O247 C239 1.224 . S
H248 C280 0.929 1_455 S
H249 C282 0.930 . S
H250 C283 0.930 . S
H251 C281 0.938 . S
H252 C284 0.928 . S
O253 Co237 2.057 . S
O253 C241 1.232 . S
H254 C273 0.929 . S
H255 C274 0.929 . S
H256 C286 0.931 . S
H257 C278 0.929 . S
H258 C287 0.930 . S
H259 C279 0.931 . S
O260 Co236 2.097 . S
O260 C288 1.214 . S
H261 C289 0.929 . S
H262 C290 0.929 . S
H263 C291 0.930 . S
H264 C292 0.929 . S
H265 C294 0.930 . S
H266 C271 0.930 . S
H267 C275 0.930 . S
O268 Co237 2.037 . S
O268 C288 1.234 . S
C269 O243 1.269 . S
C269 O244 1.257 . S
C270 H245 0.930 . S
C270 C273 1.388 . S
C270 C275 1.418 . S
C271 H266 0.930 . S
C271 C274 1.404 . S
C271 C275 1.353 . S
N272 Co237 2.145 . S
N272 C273 1.397 . S
N272 C274 1.334 . S
C273 H254 0.929 . S
C273 C270 1.388 . S
C273 N272 1.397 . S
C274 H255 0.929 . S
C274 C271 1.404 . S
C274 N272 1.334 . S
C275 H267 0.930 . S
C275 C270 1.418 . S
C275 C271 1.353 . S
C276 H246 0.930 . S
C276 N277 1.330 . S
C276 C278 1.446 1_565 S
N277 Co236 2.151 . S
N277 C276 1.330 . S
N277 C281 1.418 . S
C278 H257 0.929 . S
C278 C276 1.446 1_545 S
C278 C279 1.332 . S
C279 H259 0.931 . S
C279 C278 1.332 . S
C279 C280 1.267 . S
C280 H248 0.929 1_655 S
C280 C279 1.267 . S
C280 C281 1.251 1_545 S
C281 H251 0.938 . S
C281 N277 1.418 . S
C281 C280 1.251 1_565 S
C282 H249 0.930 . S
C282 C284 1.406 . S
C282 C287 1.261 . S
C283 H250 0.930 . S
C283 N285 1.325 . S
C283 C286 1.357 . S
C284 H252 0.928 . S
C284 C282 1.406 . S
C284 N285 1.261 . S
N285 Co236 2.214 1_455 S
N285 C283 1.325 . S
N285 C284 1.261 . S
C286 H256 0.931 . S
C286 C283 1.357 . S
C286 C287 1.312 . S
C287 H258 0.930 . S
C287 C282 1.261 . S
C287 C286 1.312 . S
C288 O260 1.214 . S
C288 O268 1.234 . S
C289 H261 0.929 . S
C289 C292 1.391 . S
C289 C294 1.391 . S
C290 H262 0.929 . S
C290 C291 1.390 . S
C290 N293 1.391 . S
C291 H263 0.930 . S
C291 C290 1.390 . S
C291 C292 1.392 . S
C292 H264 0.929 . S
C292 C289 1.391 . S
C292 C291 1.392 . S
N293 Co237 2.257 . S
N293 C290 1.391 . S
N293 C294 1.388 . S
C294 H265 0.930 . S
C294 C289 1.391 . S
C294 N293 1.388 . S
Co295 O297 2.143 . S
Co295 O303 2.074 . S
Co295 O306 2.093 . S
Co295 O319 2.097 . S
Co295 N336 2.151 . S
Co295 N344 2.214 . S
Co296 O297 2.160 . S
Co296 O302 2.058 . S
Co296 O312 2.057 . S
Co296 O327 2.037 . S
Co296 N331 2.145 . S
Co296 N352 2.257 . S
O297 Co295 2.143 . S
O297 Co296 2.160 . S
C298 O299 1.278 . S
C298 O306 1.224 . S
O299 C298 1.278 . S
C300 O301 1.245 . S
C300 O312 1.232 . S
O301 C300 1.245 . S
O302 Co296 2.058 . S
O302 C328 1.269 . S
O303 Co295 2.074 . S
O303 C328 1.257 . S
H304 C329 0.930 . S
H305 C335 0.930 . S
O306 Co295 2.093 . S
O306 C298 1.224 . S
H307 C339 0.929 . S
H308 C341 0.930 . S
H309 C342 0.930 . S
H310 C340 0.929 . S
H311 C343 0.928 . S
O312 Co296 2.057 . S
O312 C300 1.232 . S
H313 C332 0.929 . S
H314 C333 0.929 . S
H315 C345 0.931 . S
H316 C337 0.929 . S
H317 C346 0.930 . S
H318 C338 0.931 . S
O319 Co295 2.097 . S
O319 C347 1.214 . S
H320 C348 0.929 . S
H321 C349 0.929 . S
H322 C350 0.930 . S
H323 C351 0.929 . S
H324 C353 0.930 . S
H325 C330 0.930 . S
H326 C334 0.930 . S
O327 Co296 2.037 . S
O327 C347 1.234 . S
C328 O302 1.269 . S
C328 O303 1.257 . S
C329 H304 0.930 . S
C329 C332 1.388 . S
C329 C334 1.418 . S
C330 H325 0.930 . S
C330 C333 1.404 . S
C330 C334 1.353 . S
N331 Co296 2.145 . S
N331 C332 1.397 . S
N331 C333 1.334 . S
C332 H313 0.929 . S
C332 C329 1.388 . S
C332 N331 1.397 . S
C333 H314 0.929 . S
C333 C330 1.404 . S
C333 N331 1.334 . S
C334 H326 0.930 . S
C334 C329 1.418 . S
C334 C330 1.353 . S
C335 H305 0.930 . S
C335 N336 1.330 . S
C335 C337 1.446 1_545 S
N336 Co295 2.151 . S
N336 C335 1.330 . S
N336 C340 1.418 . S
C337 H316 0.929 . S
C337 C335 1.446 1_565 S
C337 C338 1.332 . S
C338 H318 0.931 . S
C338 C337 1.332 . S
C338 C339 1.267 . S
C339 H307 0.929 . S
C339 C338 1.267 . S
C339 C340 1.251 1_565 S
C340 H310 0.929 . S
C340 N336 1.418 . S
C340 C339 1.251 1_545 S
C341 H308 0.930 . S
C341 C343 1.406 . S
C341 C346 1.261 . S
C342 H309 0.930 . S
C342 N344 1.325 . S
C342 C345 1.357 . S
C343 H311 0.928 . S
C343 C341 1.406 . S
C343 N344 1.261 . S
N344 Co295 2.214 . S
N344 C342 1.325 . S
N344 C343 1.261 . S
C345 H315 0.931 . S
C345 C342 1.357 . S
C345 C346 1.312 . S
C346 H317 0.930 . S
C346 C341 1.261 . S
C346 C345 1.312 . S
C347 O319 1.214 . S
C347 O327 1.234 . S
C348 H320 0.929 . S
C348 C351 1.391 . S
C348 C353 1.391 . S
C349 H321 0.929 . S
C349 C350 1.390 . S
C349 N352 1.391 . S
C350 H322 0.930 . S
C350 C349 1.390 . S
C350 C351 1.392 . S
C351 H323 0.929 . S
C351 C348 1.391 . S
C351 C350 1.392 . S
N352 Co296 2.257 . S
N352 C349 1.391 . S
N352 C353 1.388 . S
C353 H324 0.930 . S
C353 C348 1.391 . S
C353 N352 1.388 . S
Co354 O356 2.143 . S
Co354 O362 2.074 . S
Co354 O365 2.093 . S
Co354 O378 2.097 . S
Co354 N395 2.151 . S
Co354 N403 2.214 . S
Co355 O356 2.160 . S
Co355 O361 2.058 . S
Co355 O371 2.057 . S
Co355 O386 2.037 . S
Co355 N390 2.145 . S
Co355 N411 2.257 . S
O356 Co354 2.143 . S
O356 Co355 2.160 . S
C357 O358 1.278 . S
C357 O365 1.224 . S
O358 C357 1.278 . S
C359 O360 1.245 . S
C359 O371 1.232 . S
O360 C359 1.245 . S
O361 Co355 2.058 . S
O361 C387 1.269 . S
O362 Co354 2.074 . S
O362 C387 1.257 . S
H363 C388 0.930 . S
H364 C394 0.930 . S
O365 Co354 2.093 . S
O365 C357 1.224 . S
H366 C398 0.929 . S
H367 C400 0.930 . S
H368 C401 0.930 . S
H369 C399 0.929 . S
H370 C402 0.928 . S
O371 Co355 2.057 . S
O371 C359 1.232 . S
H372 C391 0.929 . S
H373 C392 0.929 . S
H374 C404 0.931 . S
H375 C396 0.929 . S
H376 C405 0.930 . S
H377 C397 0.931 . S
O378 Co354 2.097 . S
O378 C406 1.214 . S
H379 C407 0.929 . S
H380 C408 0.929 . S
H381 C409 0.930 . S
H382 C410 0.929 . S
H383 C412 0.930 . S
H384 C389 0.930 . S
H385 C393 0.930 . S
O386 Co355 2.037 . S
O386 C406 1.234 . S
C387 O361 1.269 . S
C387 O362 1.257 . S
C388 H363 0.930 . S
C388 C391 1.388 . S
C388 C393 1.418 . S
C389 H384 0.930 . S
C389 C392 1.404 . S
C389 C393 1.353 . S
N390 Co355 2.145 . S
N390 C391 1.397 . S
N390 C392 1.334 . S
C391 H372 0.929 . S
C391 C388 1.388 . S
C391 N390 1.397 . S
C392 H373 0.929 . S
C392 C389 1.404 . S
C392 N390 1.334 . S
C393 H385 0.930 . S
C393 C388 1.418 . S
C393 C389 1.353 . S
C394 H364 0.930 . S
C394 N395 1.330 . S
C394 C396 1.446 1_545 S
N395 Co354 2.151 . S
N395 C394 1.330 . S
N395 C399 1.418 . S
C396 H375 0.929 . S
C396 C394 1.446 1_565 S
C396 C397 1.332 . S
C397 H377 0.931 . S
C397 C396 1.332 . S
C397 C398 1.267 . S
C398 H366 0.929 . S
C398 C397 1.267 . S
C398 C399 1.251 1_565 S
C399 H369 0.929 . S
C399 N395 1.418 . S
C399 C398 1.251 1_545 S
C400 H367 0.930 . S
C400 C402 1.406 . S
C400 C405 1.261 . S
C401 H368 0.930 . S
C401 N403 1.325 . S
C401 C404 1.357 . S
C402 H370 0.928 . S
C402 C400 1.406 . S
C402 N403 1.261 . S
N403 Co354 2.214 . S
N403 C401 1.325 . S
N403 C402 1.261 . S
C404 H374 0.931 . S
C404 C401 1.357 . S
C404 C405 1.312 . S
C405 H376 0.930 . S
C405 C400 1.261 . S
C405 C404 1.312 . S
C406 O378 1.214 . S
C406 O386 1.234 . S
C407 H379 0.929 . S
C407 C410 1.391 . S
C407 C412 1.391 . S
C408 H380 0.929 . S
C408 C409 1.390 . S
C408 N411 1.391 . S
C409 H381 0.930 . S
C409 C408 1.390 . S
C409 C410 1.392 . S
C410 H382 0.929 . S
C410 C407 1.391 . S
C410 C409 1.392 . S
N411 Co355 2.257 . S
N411 C408 1.391 . S
N411 C412 1.388 . S
C412 H383 0.930 . S
C412 C407 1.391 . S
C412 N411 1.388 . S
Co413 O415 2.143 . S
Co413 O421 2.074 . S
Co413 O424 2.093 . S
Co413 O437 2.097 . S
Co413 N454 2.151 . S
Co413 N462 2.214 1_455 S
Co414 O415 2.160 . S
Co414 O420 2.058 . S
Co414 O430 2.057 . S
Co414 O445 2.037 . S
Co414 N449 2.145 . S
Co414 N470 2.257 . S
O415 Co413 2.143 . S
O415 Co414 2.160 . S
C416 O417 1.278 . S
C416 O424 1.224 . S
O417 C416 1.278 . S
C418 O419 1.245 . S
C418 O430 1.232 . S
O419 C418 1.245 . S
O420 Co414 2.058 . S
O420 C446 1.269 . S
O421 Co413 2.074 . S
O421 C446 1.257 . S
H422 C447 0.930 . S
H423 C453 0.930 . S
O424 Co413 2.093 . S
O424 C416 1.224 . S
H425 C457 0.929 1_655 S
H426 C459 0.930 . S
H427 C460 0.930 . S
H428 C458 0.938 . S
H429 C461 0.928 . S
O430 Co414 2.057 . S
O430 C418 1.232 . S
H431 C450 0.929 . S
H432 C451 0.929 . S
H433 C463 0.931 . S
H434 C455 0.929 . S
H435 C464 0.930 . S
H436 C456 0.931 . S
O437 Co413 2.097 . S
O437 C465 1.214 . S
H438 C466 0.929 . S
H439 C467 0.929 . S
H440 C468 0.930 . S
H441 C469 0.929 . S
H442 C471 0.930 . S
H443 C448 0.930 . S
H444 C452 0.930 . S
O445 Co414 2.037 . S
O445 C465 1.234 . S
C446 O420 1.269 . S
C446 O421 1.257 . S
C447 H422 0.930 . S
C447 C450 1.388 . S
C447 C452 1.418 . S
C448 H443 0.930 . S
C448 C451 1.404 . S
C448 C452 1.353 . S
N449 Co414 2.145 . S
N449 C450 1.397 . S
N449 C451 1.334 . S
C450 H431 0.929 . S
C450 C447 1.388 . S
C450 N449 1.397 . S
C451 H432 0.929 . S
C451 C448 1.404 . S
C451 N449 1.334 . S
C452 H444 0.930 . S
C452 C447 1.418 . S
C452 C448 1.353 . S
C453 H423 0.930 . S
C453 N454 1.330 . S
C453 C455 1.446 1_565 S
N454 Co413 2.151 . S
N454 C453 1.330 . S
N454 C458 1.418 . S
C455 H434 0.929 . S
C455 C453 1.446 1_545 S
C455 C456 1.332 . S
C456 H436 0.931 . S
C456 C455 1.332 . S
C456 C457 1.267 . S
C457 H425 0.929 1_455 S
C457 C456 1.267 . S
C457 C458 1.251 1_545 S
C458 H428 0.938 . S
C458 N454 1.418 . S
C458 C457 1.251 1_565 S
C459 H426 0.930 . S
C459 C461 1.406 . S
C459 C464 1.261 . S
C460 H427 0.930 . S
C460 N462 1.325 . S
C460 C463 1.357 . S
C461 H429 0.928 . S
C461 C459 1.406 . S
C461 N462 1.261 . S
N462 Co413 2.214 1_655 S
N462 C460 1.325 . S
N462 C461 1.261 . S
C463 H433 0.931 . S
C463 C460 1.357 . S
C463 C464 1.312 . S
C464 H435 0.930 . S
C464 C459 1.261 . S
C464 C463 1.312 . S
C465 O437 1.214 . S
C465 O445 1.234 . S
C466 H438 0.929 . S
C466 C469 1.391 . S
C466 C471 1.391 . S
C467 H439 0.929 . S
C467 C468 1.390 . S
C467 N470 1.391 . S
C468 H440 0.930 . S
C468 C467 1.390 . S
C468 C469 1.392 . S
C469 H441 0.929 . S
C469 C466 1.391 . S
C469 C468 1.392 . S
N470 Co414 2.257 . S
N470 C467 1.391 . S
N470 C471 1.388 . S
C471 H442 0.930 . S
C471 C466 1.391 . S
C471 N470 1.388 . S
Co472 O474 2.143 . S
Co472 O480 2.074 . S
Co472 O483 2.093 . S
Co472 O496 2.097 . S
Co472 N513 2.151 . S
Co472 N521 2.214 . S
Co473 O474 2.160 . S
Co473 O479 2.058 . S
Co473 O489 2.057 . S
Co473 O504 2.037 . S
Co473 N508 2.145 . S
Co473 N529 2.257 . S
O474 Co472 2.143 . S
O474 Co473 2.160 . S
C475 O476 1.278 . S
C475 O483 1.224 . S
O476 C475 1.278 . S
C477 O478 1.245 . S
C477 O489 1.232 . S
O478 C477 1.245 . S
O479 Co473 2.058 . S
O479 C505 1.269 . S
O480 Co472 2.074 . S
O480 C505 1.257 . S
H481 C506 0.930 . S
H482 C512 0.930 . S
O483 Co472 2.093 . S
O483 C475 1.224 . S
H484 C516 0.929 . S
H485 C518 0.930 . S
H486 C519 0.930 . S
H487 C517 0.929 . S
H488 C520 0.928 . S
O489 Co473 2.057 . S
O489 C477 1.232 . S
H490 C509 0.929 . S
H491 C510 0.929 . S
H492 C522 0.931 . S
H493 C514 0.929 . S
H494 C523 0.930 . S
H495 C515 0.931 . S
O496 Co472 2.097 . S
O496 C524 1.214 . S
H497 C525 0.929 . S
H498 C526 0.929 . S
H499 C527 0.930 . S
H500 C528 0.929 . S
H501 C530 0.930 . S
H502 C507 0.930 . S
H503 C511 0.930 . S
O504 Co473 2.037 . S
O504 C524 1.234 . S
C505 O479 1.269 . S
C505 O480 1.257 . S
C506 H481 0.930 . S
C506 C509 1.388 . S
C506 C511 1.418 . S
C507 H502 0.930 . S
C507 C510 1.404 . S
C507 C511 1.353 . S
N508 Co473 2.145 . S
N508 C509 1.397 . S
N508 C510 1.334 . S
C509 H490 0.929 . S
C509 C506 1.388 . S
C509 N508 1.397 . S
C510 H491 0.929 . S
C510 C507 1.404 . S
C510 N508 1.334 . S
C511 H503 0.930 . S
C511 C506 1.418 . S
C511 C507 1.353 . S
C512 H482 0.930 . S
C512 N513 1.330 . S
C512 C514 1.446 . S
N513 Co472 2.151 . S
N513 C512 1.330 . S
N513 C517 1.418 . S
C514 H493 0.929 . S
C514 C512 1.446 . S
C514 C515 1.332 . S
C515 H495 0.931 . S
C515 C514 1.332 . S
C515 C516 1.267 . S
C516 H484 0.929 . S
C516 C515 1.267 . S
C516 C517 1.251 . S
C517 H487 0.929 . S
C517 N513 1.418 . S
C517 C516 1.251 . S
C518 H485 0.930 . S
C518 C520 1.406 . S
C518 C523 1.261 . S
C519 H486 0.930 . S
C519 N521 1.325 . S
C519 C522 1.357 . S
C520 H488 0.928 . S
C520 C518 1.406 . S
C520 N521 1.261 . S
N521 Co472 2.214 . S
N521 C519 1.325 . S
N521 C520 1.261 . S
C522 H492 0.931 . S
C522 C519 1.357 . S
C522 C523 1.312 . S
C523 H494 0.930 . S
C523 C518 1.261 . S
C523 C522 1.312 . S
C524 O496 1.214 . S
C524 O504 1.234 . S
C525 H497 0.929 . S
C525 C528 1.391 . S
C525 C530 1.391 . S
C526 H498 0.929 . S
C526 C527 1.390 . S
C526 N529 1.391 . S
C527 H499 0.930 . S
C527 C526 1.390 . S
C527 C528 1.392 . S
C528 H500 0.929 . S
C528 C525 1.391 . S
C528 C527 1.392 . S
N529 Co473 2.257 . S
N529 C526 1.391 . S
N529 C530 1.388 . S
C530 H501 0.930 . S
C530 C525 1.391 . S
C530 N529 1.388 . S
Co531 O533 2.143 . S
Co531 O539 2.074 . S
Co531 O542 2.093 . S
Co531 O555 2.097 . S
Co531 N572 2.151 . S
Co531 N580 2.214 1_655 S
Co532 O533 2.160 . S
Co532 O538 2.058 . S
Co532 O548 2.057 . S
Co532 O563 2.037 . S
Co532 N567 2.145 . S
Co532 N588 2.257 . S
O533 Co531 2.143 . S
O533 Co532 2.160 . S
C534 O535 1.278 . S
C534 O542 1.224 . S
O535 C534 1.278 . S
C536 O537 1.245 . S
C536 O548 1.232 . S
O537 C536 1.245 . S
O538 Co532 2.058 . S
O538 C564 1.269 . S
O539 Co531 2.074 . S
O539 C564 1.257 . S
H540 C565 0.930 . S
H541 C571 0.930 . S
O542 Co531 2.093 . S
O542 C534 1.224 . S
H543 C575 0.929 1_455 S
H544 C577 0.930 . S
H545 C578 0.930 . S
H546 C576 0.938 . S
H547 C579 0.928 . S
O548 Co532 2.057 . S
O548 C536 1.232 . S
H549 C568 0.929 . S
H550 C569 0.929 . S
H551 C581 0.931 . S
H552 C573 0.929 . S
H553 C582 0.930 . S
H554 C574 0.931 . S
O555 Co531 2.097 . S
O555 C583 1.214 . S
H556 C584 0.929 . S
H557 C585 0.929 . S
H558 C586 0.930 . S
H559 C587 0.929 . S
H560 C589 0.930 . S
H561 C566 0.930 . S
H562 C570 0.930 . S
O563 Co532 2.037 . S
O563 C583 1.234 . S
C564 O538 1.269 . S
C564 O539 1.257 . S
C565 H540 0.930 . S
C565 C568 1.388 . S
C565 C570 1.418 . S
C566 H561 0.930 . S
C566 C569 1.404 . S
C566 C570 1.353 . S
N567 Co532 2.145 . S
N567 C568 1.397 . S
N567 C569 1.334 . S
C568 H549 0.929 . S
C568 C565 1.388 . S
C568 N567 1.397 . S
C569 H550 0.929 . S
C569 C566 1.404 . S
C569 N567 1.334 . S
C570 H562 0.930 . S
C570 C565 1.418 . S
C570 C566 1.353 . S
C571 H541 0.930 . S
C571 N572 1.330 . S
C571 C573 1.446 . S
N572 Co531 2.151 . S
N572 C571 1.330 . S
N572 C576 1.418 . S
C573 H552 0.929 . S
C573 C571 1.446 . S
C573 C574 1.332 . S
C574 H554 0.931 . S
C574 C573 1.332 . S
C574 C575 1.267 . S
C575 H543 0.929 1_655 S
C575 C574 1.267 . S
C575 C576 1.251 . S
C576 H546 0.938 . S
C576 N572 1.418 . S
C576 C575 1.251 . S
C577 H544 0.930 . S
C577 C579 1.406 . S
C577 C582 1.261 . S
C578 H545 0.930 . S
C578 N580 1.325 . S
C578 C581 1.357 . S
C579 H547 0.928 . S
C579 C577 1.406 . S
C579 N580 1.261 . S
N580 Co531 2.214 1_455 S
N580 C578 1.325 . S
N580 C579 1.261 . S
C581 H551 0.931 . S
C581 C578 1.357 . S
C581 C582 1.312 . S
C582 H553 0.930 . S
C582 C577 1.261 . S
C582 C581 1.312 . S
C583 O555 1.214 . S
C583 O563 1.234 . S
C584 H556 0.929 . S
C584 C587 1.391 . S
C584 C589 1.391 . S
C585 H557 0.929 . S
C585 C586 1.390 . S
C585 N588 1.391 . S
C586 H558 0.930 . S
C586 C585 1.390 . S
C586 C587 1.392 . S
C587 H559 0.929 . S
C587 C584 1.391 . S
C587 C586 1.392 . S
N588 Co532 2.257 . S
N588 C585 1.391 . S
N588 C589 1.388 . S
C589 H560 0.930 . S
C589 C584 1.391 . S
C589 N588 1.388 . S
Co590 O592 2.143 . S
Co590 O598 2.074 . S
Co590 O601 2.093 . S
Co590 O614 2.097 . S
Co590 N631 2.151 . S
Co590 N639 2.214 1_455 S
Co591 O592 2.160 . S
Co591 O597 2.058 . S
Co591 O607 2.057 . S
Co591 O622 2.037 . S
Co591 N626 2.145 . S
Co591 N647 2.257 . S
O592 Co590 2.143 . S
O592 Co591 2.160 . S
C593 O594 1.278 . S
C593 O601 1.224 . S
O594 C593 1.278 . S
C595 O596 1.245 . S
C595 O607 1.232 . S
O596 C595 1.245 . S
O597 Co591 2.058 . S
O597 C623 1.269 . S
O598 Co590 2.074 . S
O598 C623 1.257 . S
H599 C624 0.930 . S
H600 C630 0.930 . S
O601 Co590 2.093 . S
O601 C593 1.224 . S
H602 C634 0.929 1_655 S
H603 C636 0.930 . S
H604 C637 0.930 . S
H605 C635 0.938 . S
H606 C638 0.928 . S
O607 Co591 2.057 . S
O607 C595 1.232 . S
H608 C627 0.929 . S
H609 C628 0.929 . S
H610 C640 0.931 . S
H611 C632 0.929 . S
H612 C641 0.930 . S
H613 C633 0.931 . S
O614 Co590 2.097 . S
O614 C642 1.214 . S
H615 C643 0.929 . S
H616 C644 0.929 . S
H617 C645 0.930 . S
H618 C646 0.929 . S
H619 C648 0.930 . S
H620 C625 0.930 . S
H621 C629 0.930 . S
O622 Co591 2.037 . S
O622 C642 1.234 . S
C623 O597 1.269 . S
C623 O598 1.257 . S
C624 H599 0.930 . S
C624 C627 1.388 . S
C624 C629 1.418 . S
C625 H620 0.930 . S
C625 C628 1.404 . S
C625 C629 1.353 . S
N626 Co591 2.145 . S
N626 C627 1.397 . S
N626 C628 1.334 . S
C627 H608 0.929 . S
C627 C624 1.388 . S
C627 N626 1.397 . S
C628 H609 0.929 . S
C628 C625 1.404 . S
C628 N626 1.334 . S
C629 H621 0.930 . S
C629 C624 1.418 . S
C629 C625 1.353 . S
C630 H600 0.930 . S
C630 N631 1.330 . S
C630 C632 1.446 . S
N631 Co590 2.151 . S
N631 C630 1.330 . S
N631 C635 1.418 . S
C632 H611 0.929 . S
C632 C630 1.446 . S
C632 C633 1.332 . S
C633 H613 0.931 . S
C633 C632 1.332 . S
C633 C634 1.267 . S
C634 H602 0.929 1_455 S
C634 C633 1.267 . S
C634 C635 1.251 . S
C635 H605 0.938 . S
C635 N631 1.418 . S
C635 C634 1.251 . S
C636 H603 0.930 . S
C636 C638 1.406 . S
C636 C641 1.261 . S
C637 H604 0.930 . S
C637 N639 1.325 . S
C637 C640 1.357 . S
C638 H606 0.928 . S
C638 C636 1.406 . S
C638 N639 1.261 . S
N639 Co590 2.214 1_655 S
N639 C637 1.325 . S
N639 C638 1.261 . S
C640 H610 0.931 . S
C640 C637 1.357 . S
C640 C641 1.312 . S
C641 H612 0.930 . S
C641 C636 1.261 . S
C641 C640 1.312 . S
C642 O614 1.214 . S
C642 O622 1.234 . S
C643 H615 0.929 . S
C643 C646 1.391 . S
C643 C648 1.391 . S
C644 H616 0.929 . S
C644 C645 1.390 . S
C644 N647 1.391 . S
C645 H617 0.930 . S
C645 C644 1.390 . S
C645 C646 1.392 . S
C646 H618 0.929 . S
C646 C643 1.391 . S
C646 C645 1.392 . S
N647 Co591 2.257 . S
N647 C644 1.391 . S
N647 C648 1.388 . S
C648 H619 0.930 . S
C648 C643 1.391 . S
C648 N647 1.388 . S
Co649 O651 2.143 . S
Co649 O657 2.074 . S
Co649 O660 2.093 . S
Co649 O673 2.097 . S
Co649 N690 2.151 . S
Co649 N698 2.214 . S
Co650 O651 2.160 . S
Co650 O656 2.058 . S
Co650 O666 2.057 . S
Co650 O681 2.037 . S
Co650 N685 2.145 . S
Co650 N706 2.257 . S
O651 Co649 2.143 . S
O651 Co650 2.160 . S
C652 O653 1.278 . S
C652 O660 1.224 . S
O653 C652 1.278 . S
C654 O655 1.245 . S
C654 O666 1.232 . S
O655 C654 1.245 . S
O656 Co650 2.058 . S
O656 C682 1.269 . S
O657 Co649 2.074 . S
O657 C682 1.257 . S
H658 C683 0.930 . S
H659 C689 0.930 . S
O660 Co649 2.093 . S
O660 C652 1.224 . S
H661 C693 0.929 . S
H662 C695 0.930 . S
H663 C696 0.930 . S
H664 C694 0.929 . S
H665 C697 0.928 . S
O666 Co650 2.057 . S
O666 C654 1.232 . S
H667 C686 0.929 . S
H668 C687 0.929 . S
H669 C699 0.931 . S
H670 C691 0.929 . S
H671 C700 0.930 . S
H672 C692 0.931 . S
O673 Co649 2.097 . S
O673 C701 1.214 . S
H674 C702 0.929 . S
H675 C703 0.929 . S
H676 C704 0.930 . S
H677 C705 0.929 . S
H678 C707 0.930 . S
H679 C684 0.930 . S
H680 C688 0.930 . S
O681 Co650 2.037 . S
O681 C701 1.234 . S
C682 O656 1.269 . S
C682 O657 1.257 . S
C683 H658 0.930 . S
C683 C686 1.388 . S
C683 C688 1.418 . S
C684 H679 0.930 . S
C684 C687 1.404 . S
C684 C688 1.353 . S
N685 Co650 2.145 . S
N685 C686 1.397 . S
N685 C687 1.334 . S
C686 H667 0.929 . S
C686 C683 1.388 . S
C686 N685 1.397 . S
C687 H668 0.929 . S
C687 C684 1.404 . S
C687 N685 1.334 . S
C688 H680 0.930 . S
C688 C683 1.418 . S
C688 C684 1.353 . S
C689 H659 0.930 . S
C689 N690 1.330 . S
C689 C691 1.446 . S
N690 Co649 2.151 . S
N690 C689 1.330 . S
N690 C694 1.418 . S
C691 H670 0.929 . S
C691 C689 1.446 . S
C691 C692 1.332 . S
C692 H672 0.931 . S
C692 C691 1.332 . S
C692 C693 1.267 . S
C693 H661 0.929 . S
C693 C692 1.267 . S
C693 C694 1.251 . S
C694 H664 0.929 . S
C694 N690 1.418 . S
C694 C693 1.251 . S
C695 H662 0.930 . S
C695 C697 1.406 . S
C695 C700 1.261 . S
C696 H663 0.930 . S
C696 N698 1.325 . S
C696 C699 1.357 . S
C697 H665 0.928 . S
C697 C695 1.406 . S
C697 N698 1.261 . S
N698 Co649 2.214 . S
N698 C696 1.325 . S
N698 C697 1.261 . S
C699 H669 0.931 . S
C699 C696 1.357 . S
C699 C700 1.312 . S
C700 H671 0.930 . S
C700 C695 1.261 . S
C700 C699 1.312 . S
C701 O673 1.214 . S
C701 O681 1.234 . S
C702 H674 0.929 . S
C702 C705 1.391 . S
C702 C707 1.391 . S
C703 H675 0.929 . S
C703 C704 1.390 . S
C703 N706 1.391 . S
C704 H676 0.930 . S
C704 C703 1.390 . S
C704 C705 1.392 . S
C705 H677 0.929 . S
C705 C702 1.391 . S
C705 C704 1.392 . S
N706 Co650 2.257 . S
N706 C703 1.391 . S
N706 C707 1.388 . S
C707 H678 0.930 . S
C707 C702 1.391 . S
C707 N706 1.388 . S
Co708 O710 2.143 . S
Co708 O716 2.074 . S
Co708 O719 2.093 . S
Co708 O732 2.097 . S
Co708 N749 2.151 . S
Co708 N757 2.214 . S
Co709 O710 2.160 . S
Co709 O715 2.058 . S
Co709 O725 2.057 . S
Co709 O740 2.037 . S
Co709 N744 2.145 . S
Co709 N765 2.257 . S
O710 Co708 2.143 . S
O710 Co709 2.160 . S
C711 O712 1.278 . S
C711 O719 1.224 . S
O712 C711 1.278 . S
C713 O714 1.245 . S
C713 O725 1.232 . S
O714 C713 1.245 . S
O715 Co709 2.058 . S
O715 C741 1.269 . S
O716 Co708 2.074 . S
O716 C741 1.257 . S
H717 C742 0.930 . S
H718 C748 0.930 . S
O719 Co708 2.093 . S
O719 C711 1.224 . S
H720 C752 0.929 . S
H721 C754 0.930 . S
H722 C755 0.930 . S
H723 C753 0.929 . S
H724 C756 0.928 . S
O725 Co709 2.057 . S
O725 C713 1.232 . S
H726 C745 0.929 . S
H727 C746 0.929 . S
H728 C758 0.931 . S
H729 C750 0.929 . S
H730 C759 0.930 . S
H731 C751 0.931 . S
O732 Co708 2.097 . S
O732 C760 1.214 . S
H733 C761 0.929 . S
H734 C762 0.929 . S
H735 C763 0.930 . S
H736 C764 0.929 . S
H737 C766 0.930 . S
H738 C743 0.930 . S
H739 C747 0.930 . S
O740 Co709 2.037 . S
O740 C760 1.234 . S
C741 O715 1.269 . S
C741 O716 1.257 . S
C742 H717 0.930 . S
C742 C745 1.388 . S
C742 C747 1.418 . S
C743 H738 0.930 . S
C743 C746 1.404 . S
C743 C747 1.353 . S
N744 Co709 2.145 . S
N744 C745 1.397 . S
N744 C746 1.334 . S
C745 H726 0.929 . S
C745 C742 1.388 . S
C745 N744 1.397 . S
C746 H727 0.929 . S
C746 C743 1.404 . S
C746 N744 1.334 . S
C747 H739 0.930 . S
C747 C742 1.418 . S
C747 C743 1.353 . S
C748 H718 0.930 . S
C748 N749 1.330 . S
C748 C750 1.446 . S
N749 Co708 2.151 . S
N749 C748 1.330 . S
N749 C753 1.418 . S
C750 H729 0.929 . S
C750 C748 1.446 . S
C750 C751 1.332 . S
C751 H731 0.931 . S
C751 C750 1.332 . S
C751 C752 1.267 . S
C752 H720 0.929 . S
C752 C751 1.267 . S
C752 C753 1.251 . S
C753 H723 0.929 . S
C753 N749 1.418 . S
C753 C752 1.251 . S
C754 H721 0.930 . S
C754 C756 1.406 . S
C754 C759 1.261 . S
C755 H722 0.930 . S
C755 N757 1.325 . S
C755 C758 1.357 . S
C756 H724 0.928 . S
C756 C754 1.406 . S
C756 N757 1.261 . S
N757 Co708 2.214 . S
N757 C755 1.325 . S
N757 C756 1.261 . S
C758 H728 0.931 . S
C758 C755 1.357 . S
C758 C759 1.312 . S
C759 H730 0.930 . S
C759 C754 1.261 . S
C759 C758 1.312 . S
C760 O732 1.214 . S
C760 O740 1.234 . S
C761 H733 0.929 . S
C761 C764 1.391 . S
C761 C766 1.391 . S
C762 H734 0.929 . S
C762 C763 1.390 . S
C762 N765 1.391 . S
C763 H735 0.930 . S
C763 C762 1.390 . S
C763 C764 1.392 . S
C764 H736 0.929 . S
C764 C761 1.391 . S
C764 C763 1.392 . S
N765 Co709 2.257 . S
N765 C762 1.391 . S
N765 C766 1.388 . S
C766 H737 0.930 . S
C766 C761 1.391 . S
C766 N765 1.388 . S
Co767 O769 2.143 . S
Co767 O775 2.074 . S
Co767 O778 2.093 . S
Co767 O791 2.097 . S
Co767 N808 2.151 . S
Co767 N816 2.214 1_455 S
Co768 O769 2.160 . S
Co768 O774 2.058 . S
Co768 O784 2.057 . S
Co768 O799 2.037 . S
Co768 N803 2.145 . S
Co768 N824 2.257 . S
O769 Co767 2.143 . S
O769 Co768 2.160 . S
C770 O771 1.278 . S
C770 O778 1.224 . S
O771 C770 1.278 . S
C772 O773 1.245 . S
C772 O784 1.232 . S
O773 C772 1.245 . S
O774 Co768 2.058 . S
O774 C800 1.269 . S
O775 Co767 2.074 . S
O775 C800 1.257 . S
H776 C801 0.930 . S
H777 C807 0.930 . S
O778 Co767 2.093 . S
O778 C770 1.224 . S
H779 C811 0.929 1_655 S
H780 C813 0.930 . S
H781 C814 0.930 . S
H782 C812 0.938 . S
H783 C815 0.928 . S
O784 Co768 2.057 . S
O784 C772 1.232 . S
H785 C804 0.929 . S
H786 C805 0.929 . S
H787 C817 0.931 . S
H788 C809 0.929 . S
H789 C818 0.930 . S
H790 C810 0.931 . S
O791 Co767 2.097 . S
O791 C819 1.214 . S
H792 C820 0.929 . S
H793 C821 0.929 . S
H794 C822 0.930 . S
H795 C823 0.929 . S
H796 C825 0.930 . S
H797 C802 0.930 . S
H798 C806 0.930 . S
O799 Co768 2.037 . S
O799 C819 1.234 . S
C800 O774 1.269 . S
C800 O775 1.257 . S
C801 H776 0.930 . S
C801 C804 1.388 . S
C801 C806 1.418 . S
C802 H797 0.930 . S
C802 C805 1.404 . S
C802 C806 1.353 . S
N803 Co768 2.145 . S
N803 C804 1.397 . S
N803 C805 1.334 . S
C804 H785 0.929 . S
C804 C801 1.388 . S
C804 N803 1.397 . S
C805 H786 0.929 . S
C805 C802 1.404 . S
C805 N803 1.334 . S
C806 H798 0.930 . S
C806 C801 1.418 . S
C806 C802 1.353 . S
C807 H777 0.930 . S
C807 N808 1.330 . S
C807 C809 1.446 . S
N808 Co767 2.151 . S
N808 C807 1.330 . S
N808 C812 1.418 . S
C809 H788 0.929 . S
C809 C807 1.446 . S
C809 C810 1.332 . S
C810 H790 0.931 . S
C810 C809 1.332 . S
C810 C811 1.267 . S
C811 H779 0.929 1_455 S
C811 C810 1.267 . S
C811 C812 1.251 . S
C812 H782 0.938 . S
C812 N808 1.418 . S
C812 C811 1.251 . S
C813 H780 0.930 . S
C813 C815 1.406 . S
C813 C818 1.261 . S
C814 H781 0.930 . S
C814 N816 1.325 . S
C814 C817 1.357 . S
C815 H783 0.928 . S
C815 C813 1.406 . S
C815 N816 1.261 . S
N816 Co767 2.214 1_655 S
N816 C814 1.325 . S
N816 C815 1.261 . S
C817 H787 0.931 . S
C817 C814 1.357 . S
C817 C818 1.312 . S
C818 H789 0.930 . S
C818 C813 1.261 . S
C818 C817 1.312 . S
C819 O791 1.214 . S
C819 O799 1.234 . S
C820 H792 0.929 . S
C820 C823 1.391 . S
C820 C825 1.391 . S
C821 H793 0.929 . S
C821 C822 1.390 . S
C821 N824 1.391 . S
C822 H794 0.930 . S
C822 C821 1.390 . S
C822 C823 1.392 . S
C823 H795 0.929 . S
C823 C820 1.391 . S
C823 C822 1.392 . S
N824 Co768 2.257 . S
N824 C821 1.391 . S
N824 C825 1.388 . S
C825 H796 0.930 . S
C825 C820 1.391 . S
C825 N824 1.388 . S
Co826 O828 2.143 . S
Co826 O834 2.074 . S
Co826 O837 2.093 . S
Co826 O850 2.097 . S
Co826 N867 2.151 . S
Co826 N875 2.214 1_655 S
Co827 O828 2.160 . S
Co827 O833 2.058 . S
Co827 O843 2.057 . S
Co827 O858 2.037 . S
Co827 N862 2.145 . S
Co827 N883 2.257 . S
O828 Co826 2.143 . S
O828 Co827 2.160 . S
C829 O830 1.278 . S
C829 O837 1.224 . S
O830 C829 1.278 . S
C831 O832 1.245 . S
C831 O843 1.232 . S
O832 C831 1.245 . S
O833 Co827 2.058 . S
O833 C859 1.269 . S
O834 Co826 2.074 . S
O834 C859 1.257 . S
H835 C860 0.930 . S
H836 C866 0.930 . S
O837 Co826 2.093 . S
O837 C829 1.224 . S
H838 C870 0.929 1_455 S
H839 C872 0.930 . S
H840 C873 0.930 . S
H841 C871 0.938 . S
H842 C874 0.928 . S
O843 Co827 2.057 . S
O843 C831 1.232 . S
H844 C863 0.929 . S
H845 C864 0.929 . S
H846 C876 0.931 . S
H847 C868 0.929 . S
H848 C877 0.930 . S
H849 C869 0.931 . S
O850 Co826 2.097 . S
O850 C878 1.214 . S
H851 C879 0.929 . S
H852 C880 0.929 . S
H853 C881 0.930 . S
H854 C882 0.929 . S
H855 C884 0.930 . S
H856 C861 0.930 . S
H857 C865 0.930 . S
O858 Co827 2.037 . S
O858 C878 1.234 . S
C859 O833 1.269 . S
C859 O834 1.257 . S
C860 H835 0.930 . S
C860 C863 1.388 . S
C860 C865 1.418 . S
C861 H856 0.930 . S
C861 C864 1.404 . S
C861 C865 1.353 . S
N862 Co827 2.145 . S
N862 C863 1.397 . S
N862 C864 1.334 . S
C863 H844 0.929 . S
C863 C860 1.388 . S
C863 N862 1.397 . S
C864 H845 0.929 . S
C864 C861 1.404 . S
C864 N862 1.334 . S
C865 H857 0.930 . S
C865 C860 1.418 . S
C865 C861 1.353 . S
C866 H836 0.930 . S
C866 N867 1.330 . S
C866 C868 1.446 . S
N867 Co826 2.151 . S
N867 C866 1.330 . S
N867 C871 1.418 . S
C868 H847 0.929 . S
C868 C866 1.446 . S
C868 C869 1.332 . S
C869 H849 0.931 . S
C869 C868 1.332 . S
C869 C870 1.267 . S
C870 H838 0.929 1_655 S
C870 C869 1.267 . S
C870 C871 1.251 . S
C871 H841 0.938 . S
C871 N867 1.418 . S
C871 C870 1.251 . S
C872 H839 0.930 . S
C872 C874 1.406 . S
C872 C877 1.261 . S
C873 H840 0.930 . S
C873 N875 1.325 . S
C873 C876 1.357 . S
C874 H842 0.928 . S
C874 C872 1.406 . S
C874 N875 1.261 . S
N875 Co826 2.214 1_455 S
N875 C873 1.325 . S
N875 C874 1.261 . S
C876 H846 0.931 . S
C876 C873 1.357 . S
C876 C877 1.312 . S
C877 H848 0.930 . S
C877 C872 1.261 . S
C877 C876 1.312 . S
C878 O850 1.214 . S
C878 O858 1.234 . S
C879 H851 0.929 . S
C879 C882 1.391 . S
C879 C884 1.391 . S
C880 H852 0.929 . S
C880 C881 1.390 . S
C880 N883 1.391 . S
C881 H853 0.930 . S
C881 C880 1.390 . S
C881 C882 1.392 . S
C882 H854 0.929 . S
C882 C879 1.391 . S
C882 C881 1.392 . S
N883 Co827 2.257 . S
N883 C880 1.391 . S
N883 C884 1.388 . S
C884 H855 0.930 . S
C884 C879 1.391 . S
C884 N883 1.388 . S
Co885 O887 2.143 . S
Co885 O893 2.074 . S
Co885 O896 2.093 . S
Co885 O909 2.097 . S
Co885 N926 2.151 . S
Co885 N934 2.214 . S
Co886 O887 2.160 . S
Co886 O892 2.058 . S
Co886 O902 2.057 . S
Co886 O917 2.037 . S
Co886 N921 2.145 . S
Co886 N942 2.257 . S
O887 Co885 2.143 . S
O887 Co886 2.160 . S
C888 O889 1.278 . S
C888 O896 1.224 . S
O889 C888 1.278 . S
C890 O891 1.245 . S
C890 O902 1.232 . S
O891 C890 1.245 . S
O892 Co886 2.058 . S
O892 C918 1.269 . S
O893 Co885 2.074 . S
O893 C918 1.257 . S
H894 C919 0.930 . S
H895 C925 0.930 . S
O896 Co885 2.093 . S
O896 C888 1.224 . S
H897 C929 0.929 . S
H898 C931 0.930 . S
H899 C932 0.930 . S
H900 C930 0.929 . S
H901 C933 0.928 . S
O902 Co886 2.057 . S
O902 C890 1.232 . S
H903 C922 0.929 . S
H904 C923 0.929 . S
H905 C935 0.931 . S
H906 C927 0.929 . S
H907 C936 0.930 . S
H908 C928 0.931 . S
O909 Co885 2.097 . S
O909 C937 1.214 . S
H910 C938 0.929 . S
H911 C939 0.929 . S
H912 C940 0.930 . S
H913 C941 0.929 . S
H914 C943 0.930 . S
H915 C920 0.930 . S
H916 C924 0.930 . S
O917 Co886 2.037 . S
O917 C937 1.234 . S
C918 O892 1.269 . S
C918 O893 1.257 . S
C919 H894 0.930 . S
C919 C922 1.388 . S
C919 C924 1.418 . S
C920 H915 0.930 . S
C920 C923 1.404 . S
C920 C924 1.353 . S
N921 Co886 2.145 . S
N921 C922 1.397 . S
N921 C923 1.334 . S
C922 H903 0.929 . S
C922 C919 1.388 . S
C922 N921 1.397 . S
C923 H904 0.929 . S
C923 C920 1.404 . S
C923 N921 1.334 . S
C924 H916 0.930 . S
C924 C919 1.418 . S
C924 C920 1.353 . S
C925 H895 0.930 . S
C925 N926 1.330 . S
C925 C927 1.446 . S
N926 Co885 2.151 . S
N926 C925 1.330 . S
N926 C930 1.418 . S
C927 H906 0.929 . S
C927 C925 1.446 . S
C927 C928 1.332 . S
C928 H908 0.931 . S
C928 C927 1.332 . S
C928 C929 1.267 . S
C929 H897 0.929 . S
C929 C928 1.267 . S
C929 C930 1.251 . S
C930 H900 0.929 . S
C930 N926 1.418 . S
C930 C929 1.251 . S
C931 H898 0.930 . S
C931 C933 1.406 . S
C931 C936 1.261 . S
C932 H899 0.930 . S
C932 N934 1.325 . S
C932 C935 1.357 . S
C933 H901 0.928 . S
C933 C931 1.406 . S
C933 N934 1.261 . S
N934 Co885 2.214 . S
N934 C932 1.325 . S
N934 C933 1.261 . S
C935 H905 0.931 . S
C935 C932 1.357 . S
C935 C936 1.312 . S
C936 H907 0.930 . S
C936 C931 1.261 . S
C936 C935 1.312 . S
C937 O909 1.214 . S
C937 O917 1.234 . S
C938 H910 0.929 . S
C938 C941 1.391 . S
C938 C943 1.391 . S
C939 H911 0.929 . S
C939 C940 1.390 . S
C939 N942 1.391 . S
C940 H912 0.930 . S
C940 C939 1.390 . S
C940 C941 1.392 . S
C941 H913 0.929 . S
C941 C938 1.391 . S
C941 C940 1.392 . S
N942 Co886 2.257 . S
N942 C939 1.391 . S
N942 C943 1.388 . S
C943 H914 0.930 . S
C943 C938 1.391 . S
C943 N942 1.388 . S
C944 C945 1.349 . S
C944 C946 1.327 . S
C944 H969 0.950 . S
C945 C944 1.349 . S
C945 C961 1.349 . S
C946 C944 1.327 . S
C946 C965 1.429 . S
C946 H970 0.950 1_565 S
C947 C964 1.574 . S
C947 C966 1.368 . S
C947 H971 0.949 . S
H948 C952 0.949 . S
C949 C950 1.349 . S
C949 C951 1.327 . S
C949 H972 0.950 . S
C950 C949 1.349 . S
C950 C962 1.349 . S
C951 C949 1.327 . S
C951 C967 1.429 . S
C951 H973 0.950 1_545 S
C952 H948 0.949 . S
C952 C960 1.574 . S
C952 C968 1.368 . S
H953 C961 0.950 . S
H954 C959 0.950 . S
H955 C960 0.949 . S
H956 C962 0.950 . S
H957 C963 0.950 . S
H958 C964 0.949 . S
C959 H954 0.950 . S
C959 C961 1.327 . S
C959 C965 1.429 . S
C960 C952 1.574 . S
C960 H955 0.949 . S
C960 C966 1.368 1_545 S
C961 C945 1.349 . S
C961 H953 0.950 . S
C961 C959 1.327 . S
C962 C950 1.349 . S
C962 H956 0.950 . S
C962 C963 1.327 . S
C963 H957 0.950 . S
C963 C962 1.327 . S
C963 C967 1.429 . S
C964 C947 1.574 . S
C964 H958 0.949 . S
C964 C968 1.368 1_565 S
C965 C946 1.429 . S
C965 C959 1.429 . S
C965 C966 1.523 . S
C966 C947 1.368 . S
C966 C960 1.368 1_565 S
C966 C965 1.523 . S
C967 C951 1.429 . S
C967 C963 1.429 . S
C967 C968 1.523 . S
C968 C952 1.368 . S
C968 C964 1.368 1_545 S
C968 C967 1.523 . S
H969 C944 0.950 . S
H970 C946 0.950 1_545 S
H971 C947 0.949 . S
H972 C949 0.950 . S
H973 C951 0.950 1_565 S
C974 C975 1.349 . S
C974 C976 1.327 . S
C974 H999 0.950 . S
C975 C974 1.349 . S
C975 C991 1.349 . S
C976 C974 1.327 . S
C976 C995 1.429 . S
C976 H1000 0.950 1_565 S
C977 C994 1.574 . S
C977 C996 1.368 . S
C977 H1001 0.949 . S
H978 C982 0.949 . S
C979 C980 1.349 . S
C979 C981 1.327 . S
C979 H1002 0.950 . S
C980 C979 1.349 . S
C980 C992 1.349 . S
C981 C979 1.327 . S
C981 C997 1.429 . S
C981 H1003 0.950 1_545 S
C982 H978 0.949 . S
C982 C990 1.574 . S
C982 C998 1.368 . S
H983 C991 0.950 . S
H984 C989 0.950 . S
H985 C990 0.949 . S
H986 C992 0.950 . S
H987 C993 0.950 . S
H988 C994 0.949 . S
C989 H984 0.950 . S
C989 C991 1.327 . S
C989 C995 1.429 . S
C990 C982 1.574 . S
C990 H985 0.949 . S
C990 C996 1.368 1_545 S
C991 C975 1.349 . S
C991 H983 0.950 . S
C991 C989 1.327 . S
C992 C980 1.349 . S
C992 H986 0.950 . S
C992 C993 1.327 . S
C993 H987 0.950 . S
C993 C992 1.327 . S
C993 C997 1.429 . S
C994 C977 1.574 . S
C994 H988 0.949 . S
C994 C998 1.368 1_565 S
C995 C976 1.429 . S
C995 C989 1.429 . S
C995 C996 1.523 . S
C996 C977 1.368 . S
C996 C990 1.368 1_565 S
C996 C995 1.523 . S
C997 C981 1.429 . S
C997 C993 1.429 . S
C997 C998 1.523 . S
C998 C982 1.368 . S
C998 C994 1.368 1_545 S
C998 C997 1.523 . S
H999 C974 0.950 . S
H1000 C976 0.950 1_545 S
H1001 C977 0.949 . S
H1002 C979 0.950 . S
H1003 C981 0.950 1_565 S
C1004 C1005 1.349 . S
C1004 C1006 1.327 . S
C1004 H1029 0.950 . S
C1005 C1004 1.349 . S
C1005 C1021 1.349 . S
C1006 C1004 1.327 . S
C1006 C1025 1.429 . S
C1006 H1030 0.950 1_565 S
C1007 C1024 1.574 . S
C1007 C1026 1.368 . S
C1007 H1031 0.949 . S
H1008 C1012 0.949 . S
C1009 C1010 1.349 . S
C1009 C1011 1.327 . S
C1009 H1032 0.950 . S
C1010 C1009 1.349 . S
C1010 C1022 1.349 . S
C1011 C1009 1.327 . S
C1011 C1027 1.429 . S
C1011 H1033 0.950 1_545 S
C1012 H1008 0.949 . S
C1012 C1020 1.574 . S
C1012 C1028 1.368 . S
H1013 C1021 0.950 . S
H1014 C1019 0.950 . S
H1015 C1020 0.949 . S
H1016 C1022 0.950 . S
H1017 C1023 0.950 . S
H1018 C1024 0.949 . S
C1019 H1014 0.950 . S
C1019 C1021 1.327 . S
C1019 C1025 1.429 . S
C1020 C1012 1.574 . S
C1020 H1015 0.949 . S
C1020 C1026 1.368 1_545 S
C1021 C1005 1.349 . S
C1021 H1013 0.950 . S
C1021 C1019 1.327 . S
C1022 C1010 1.349 . S
C1022 H1016 0.950 . S
C1022 C1023 1.327 . S
C1023 H1017 0.950 . S
C1023 C1022 1.327 . S
C1023 C1027 1.429 . S
C1024 C1007 1.574 . S
C1024 H1018 0.949 . S
C1024 C1028 1.368 1_565 S
C1025 C1006 1.429 . S
C1025 C1019 1.429 . S
C1025 C1026 1.523 . S
C1026 C1007 1.368 . S
C1026 C1020 1.368 1_565 S
C1026 C1025 1.523 . S
C1027 C1011 1.429 . S
C1027 C1023 1.429 . S
C1027 C1028 1.523 . S
C1028 C1012 1.368 . S
C1028 C1024 1.368 1_545 S
C1028 C1027 1.523 . S
H1029 C1004 0.950 . S
H1030 C1006 0.950 1_545 S
H1031 C1007 0.949 . S
H1032 C1009 0.950 . S
H1033 C1011 0.950 1_565 S
C1034 C1035 1.349 . S
C1034 C1036 1.327 . S
C1034 H1059 0.950 . S
C1035 C1034 1.349 . S
C1035 C1051 1.349 . S
C1036 C1034 1.327 . S
C1036 C1055 1.429 . S
C1036 H1060 0.950 1_565 S
C1037 C1054 1.574 . S
C1037 C1056 1.368 . S
C1037 H1061 0.949 . S
H1038 C1042 0.949 . S
C1039 C1040 1.349 . S
C1039 C1041 1.327 . S
C1039 H1062 0.950 . S
C1040 C1039 1.349 . S
C1040 C1052 1.349 . S
C1041 C1039 1.327 . S
C1041 C1057 1.429 . S
C1041 H1063 0.950 1_545 S
C1042 H1038 0.949 . S
C1042 C1050 1.574 . S
C1042 C1058 1.368 . S
H1043 C1051 0.950 . S
H1044 C1049 0.950 . S
H1045 C1050 0.949 . S
H1046 C1052 0.950 . S
H1047 C1053 0.950 . S
H1048 C1054 0.949 . S
C1049 H1044 0.950 . S
C1049 C1051 1.327 . S
C1049 C1055 1.429 . S
C1050 C1042 1.574 . S
C1050 H1045 0.949 . S
C1050 C1056 1.368 1_545 S
C1051 C1035 1.349 . S
C1051 H1043 0.950 . S
C1051 C1049 1.327 . S
C1052 C1040 1.349 . S
C1052 H1046 0.950 . S
C1052 C1053 1.327 . S
C1053 H1047 0.950 . S
C1053 C1052 1.327 . S
C1053 C1057 1.429 . S
C1054 C1037 1.574 . S
C1054 H1048 0.949 . S
C1054 C1058 1.368 1_565 S
C1055 C1036 1.429 . S
C1055 C1049 1.429 . S
C1055 C1056 1.523 . S
C1056 C1037 1.368 . S
C1056 C1050 1.368 1_565 S
C1056 C1055 1.523 . S
C1057 C1041 1.429 . S
C1057 C1053 1.429 . S
C1057 C1058 1.523 . S
C1058 C1042 1.368 . S
C1058 C1054 1.368 1_545 S
C1058 C1057 1.523 . S
H1059 C1034 0.950 . S
H1060 C1036 0.950 1_545 S
H1061 C1037 0.949 . S
H1062 C1039 0.950 . S
H1063 C1041 0.950 1_565 S
C1064 C1065 1.349 . S
C1064 C1066 1.327 . S
C1064 H1089 0.950 . S
C1065 C1064 1.349 . S
C1065 C1081 1.349 . S
C1066 C1064 1.327 . S
C1066 C1085 1.429 . S
C1066 H1090 0.950 . S
C1067 C1084 1.574 . S
C1067 C1086 1.368 . S
C1067 H1091 0.949 . S
H1068 C1072 0.949 . S
C1069 C1070 1.349 . S
C1069 C1071 1.327 . S
C1069 H1092 0.950 . S
C1070 C1069 1.349 . S
C1070 C1082 1.349 . S
C1071 C1069 1.327 . S
C1071 C1087 1.429 . S
C1071 H1093 0.950 . S
C1072 H1068 0.949 . S
C1072 C1080 1.574 . S
C1072 C1088 1.368 . S
H1073 C1081 0.950 . S
H1074 C1079 0.950 . S
H1075 C1080 0.949 . S
H1076 C1082 0.950 . S
H1077 C1083 0.950 . S
H1078 C1084 0.949 . S
C1079 H1074 0.950 . S
C1079 C1081 1.327 . S
C1079 C1085 1.429 . S
C1080 C1072 1.574 . S
C1080 H1075 0.949 . S
C1080 C1086 1.368 . S
C1081 C1065 1.349 . S
C1081 H1073 0.950 . S
C1081 C1079 1.327 . S
C1082 C1070 1.349 . S
C1082 H1076 0.950 . S
C1082 C1083 1.327 . S
C1083 H1077 0.950 . S
C1083 C1082 1.327 . S
C1083 C1087 1.429 . S
C1084 C1067 1.574 . S
C1084 H1078 0.949 . S
C1084 C1088 1.368 . S
C1085 C1066 1.429 . S
C1085 C1079 1.429 . S
C1085 C1086 1.523 . S
C1086 C1067 1.368 . S
C1086 C1080 1.368 . S
C1086 C1085 1.523 . S
C1087 C1071 1.429 . S
C1087 C1083 1.429 . S
C1087 C1088 1.523 . S
C1088 C1072 1.368 . S
C1088 C1084 1.368 . S
C1088 C1087 1.523 . S
H1089 C1064 0.950 . S
H1090 C1066 0.950 . S
H1091 C1067 0.949 . S
H1092 C1069 0.950 . S
H1093 C1071 0.950 . S
C1094 C1095 1.349 . S
C1094 C1096 1.327 . S
C1094 H1119 0.950 . S
C1095 C1094 1.349 . S
C1095 C1111 1.349 . S
C1096 C1094 1.327 . S
C1096 C1115 1.429 . S
C1096 H1120 0.950 . S
C1097 C1114 1.574 . S
C1097 C1116 1.368 . S
C1097 H1121 0.949 . S
H1098 C1102 0.949 . S
C1099 C1100 1.349 . S
C1099 C1101 1.327 . S
C1099 H1122 0.950 . S
C1100 C1099 1.349 . S
C1100 C1112 1.349 . S
C1101 C1099 1.327 . S
C1101 C1117 1.429 . S
C1101 H1123 0.950 . S
C1102 H1098 0.949 . S
C1102 C1110 1.574 . S
C1102 C1118 1.368 . S
H1103 C1111 0.950 . S
H1104 C1109 0.950 . S
H1105 C1110 0.949 . S
H1106 C1112 0.950 . S
H1107 C1113 0.950 . S
H1108 C1114 0.949 . S
C1109 H1104 0.950 . S
C1109 C1111 1.327 . S
C1109 C1115 1.429 . S
C1110 C1102 1.574 . S
C1110 H1105 0.949 . S
C1110 C1116 1.368 . S
C1111 C1095 1.349 . S
C1111 H1103 0.950 . S
C1111 C1109 1.327 . S
C1112 C1100 1.349 . S
C1112 H1106 0.950 . S
C1112 C1113 1.327 . S
C1113 H1107 0.950 . S
C1113 C1112 1.327 . S
C1113 C1117 1.429 . S
C1114 C1097 1.574 . S
C1114 H1108 0.949 . S
C1114 C1118 1.368 . S
C1115 C1096 1.429 . S
C1115 C1109 1.429 . S
C1115 C1116 1.523 . S
C1116 C1097 1.368 . S
C1116 C1110 1.368 . S
C1116 C1115 1.523 . S
C1117 C1101 1.429 . S
C1117 C1113 1.429 . S
C1117 C1118 1.523 . S
C1118 C1102 1.368 . S
C1118 C1114 1.368 . S
C1118 C1117 1.523 . S
H1119 C1094 0.950 . S
H1120 C1096 0.950 . S
H1121 C1097 0.949 . S
H1122 C1099 0.950 . S
H1123 C1101 0.950 . S
C1124 C1125 1.349 . S
C1124 C1126 1.327 . S
C1124 H1149 0.950 . S
C1125 C1124 1.349 . S
C1125 C1141 1.349 . S
C1126 C1124 1.327 . S
C1126 C1145 1.429 . S
C1126 H1150 0.950 . S
C1127 C1144 1.574 . S
C1127 C1146 1.368 . S
C1127 H1151 0.949 . S
H1128 C1132 0.949 . S
C1129 C1130 1.349 . S
C1129 C1131 1.327 . S
C1129 H1152 0.950 . S
C1130 C1129 1.349 . S
C1130 C1142 1.349 . S
C1131 C1129 1.327 . S
C1131 C1147 1.429 . S
C1131 H1153 0.950 . S
C1132 H1128 0.949 . S
C1132 C1140 1.574 . S
C1132 C1148 1.368 . S
H1133 C1141 0.950 . S
H1134 C1139 0.950 . S
H1135 C1140 0.949 . S
H1136 C1142 0.950 . S
H1137 C1143 0.950 . S
H1138 C1144 0.949 . S
C1139 H1134 0.950 . S
C1139 C1141 1.327 . S
C1139 C1145 1.429 . S
C1140 C1132 1.574 . S
C1140 H1135 0.949 . S
C1140 C1146 1.368 . S
C1141 C1125 1.349 . S
C1141 H1133 0.950 . S
C1141 C1139 1.327 . S
C1142 C1130 1.349 . S
C1142 H1136 0.950 . S
C1142 C1143 1.327 . S
C1143 H1137 0.950 . S
C1143 C1142 1.327 . S
C1143 C1147 1.429 . S
C1144 C1127 1.574 . S
C1144 H1138 0.949 . S
C1144 C1148 1.368 . S
C1145 C1126 1.429 . S
C1145 C1139 1.429 . S
C1145 C1146 1.523 . S
C1146 C1127 1.368 . S
C1146 C1140 1.368 . S
C1146 C1145 1.523 . S
C1147 C1131 1.429 . S
C1147 C1143 1.429 . S
C1147 C1148 1.523 . S
C1148 C1132 1.368 . S
C1148 C1144 1.368 . S
C1148 C1147 1.523 . S
H1149 C1124 0.950 . S
H1150 C1126 0.950 . S
H1151 C1127 0.949 . S
H1152 C1129 0.950 . S
H1153 C1131 0.950 . S
C1154 C1155 1.349 . S
C1154 C1156 1.327 . S
C1154 H1179 0.950 . S
C1155 C1154 1.349 . S
C1155 C1171 1.349 . S
C1156 C1154 1.327 . S
C1156 C1175 1.429 . S
C1156 H1180 0.950 . S
C1157 C1174 1.574 . S
C1157 C1176 1.368 . S
C1157 H1181 0.949 . S
H1158 C1162 0.949 . S
C1159 C1160 1.349 . S
C1159 C1161 1.327 . S
C1159 H1182 0.950 . S
C1160 C1159 1.349 . S
C1160 C1172 1.349 . S
C1161 C1159 1.327 . S
C1161 C1177 1.429 . S
C1161 H1183 0.950 . S
C1162 H1158 0.949 . S
C1162 C1170 1.574 . S
C1162 C1178 1.368 . S
H1163 C1171 0.950 . S
H1164 C1169 0.950 . S
H1165 C1170 0.949 . S
H1166 C1172 0.950 . S
H1167 C1173 0.950 . S
H1168 C1174 0.949 . S
C1169 H1164 0.950 . S
C1169 C1171 1.327 . S
C1169 C1175 1.429 . S
C1170 C1162 1.574 . S
C1170 H1165 0.949 . S
C1170 C1176 1.368 . S
C1171 C1155 1.349 . S
C1171 H1163 0.950 . S
C1171 C1169 1.327 . S
C1172 C1160 1.349 . S
C1172 H1166 0.950 . S
C1172 C1173 1.327 . S
C1173 H1167 0.950 . S
C1173 C1172 1.327 . S
C1173 C1177 1.429 . S
C1174 C1157 1.574 . S
C1174 H1168 0.949 . S
C1174 C1178 1.368 . S
C1175 C1156 1.429 . S
C1175 C1169 1.429 . S
C1175 C1176 1.523 . S
C1176 C1157 1.368 . S
C1176 C1170 1.368 . S
C1176 C1175 1.523 . S
C1177 C1161 1.429 . S
C1177 C1173 1.429 . S
C1177 C1178 1.523 . S
C1178 C1162 1.368 . S
C1178 C1174 1.368 . S
C1178 C1177 1.523 . S
H1179 C1154 0.950 . S
H1180 C1156 0.950 . S
H1181 C1157 0.949 . S
H1182 C1159 0.950 . S
H1183 C1161 0.950 . S
C1184 C1185 1.349 . S
C1184 C1186 1.327 . S
C1184 H1209 0.950 . S
C1185 C1184 1.349 . S
C1185 C1201 1.349 . S
C1186 C1184 1.327 . S
C1186 C1205 1.429 . S
C1186 H1210 0.950 . S
C1187 C1204 1.574 . S
C1187 C1206 1.368 1_455 S
C1187 H1211 0.949 . S
H1188 C1192 0.949 . S
C1189 C1190 1.349 . S
C1189 C1191 1.327 . S
C1189 H1212 0.950 . S
C1190 C1189 1.349 . S
C1190 C1202 1.349 . S
C1191 C1189 1.327 . S
C1191 C1207 1.429 . S
C1191 H1213 0.950 . S
C1192 H1188 0.949 . S
C1192 C1200 1.574 . S
C1192 C1208 1.368 1_655 S
H1193 C1201 0.950 . S
H1194 C1199 0.950 . S
H1195 C1200 0.949 . S
H1196 C1202 0.950 . S
H1197 C1203 0.950 . S
H1198 C1204 0.949 . S
C1199 H1194 0.950 . S
C1199 C1201 1.327 . S
C1199 C1205 1.429 . S
C1200 C1192 1.574 . S
C1200 H1195 0.949 . S
C1200 C1206 1.368 . S
C1201 C1185 1.349 . S
C1201 H1193 0.950 . S
C1201 C1199 1.327 . S
C1202 C1190 1.349 . S
C1202 H1196 0.950 . S
C1202 C1203 1.327 . S
C1203 H1197 0.950 . S
C1203 C1202 1.327 . S
C1203 C1207 1.429 . S
C1204 C1187 1.574 . S
C1204 H1198 0.949 . S
C1204 C1208 1.368 . S
C1205 C1186 1.429 . S
C1205 C1199 1.429 . S
C1205 C1206 1.523 . S
C1206 C1187 1.368 1_655 S
C1206 C1200 1.368 . S
C1206 C1205 1.523 . S
C1207 C1191 1.429 . S
C1207 C1203 1.429 . S
C1207 C1208 1.523 . S
C1208 C1192 1.368 1_455 S
C1208 C1204 1.368 . S
C1208 C1207 1.523 . S
H1209 C1184 0.950 . S
H1210 C1186 0.950 . S
H1211 C1187 0.949 . S
H1212 C1189 0.950 . S
H1213 C1191 0.950 . S
C1214 C1215 1.349 . S
C1214 C1216 1.327 . S
C1214 H1239 0.950 . S
C1215 C1214 1.349 . S
C1215 C1231 1.349 . S
C1216 C1214 1.327 . S
C1216 C1235 1.429 . S
C1216 H1240 0.950 . S
C1217 C1234 1.574 . S
C1217 C1236 1.368 . S
C1217 H1241 0.949 . S
H1218 C1222 0.949 . S
C1219 C1220 1.349 . S
C1219 C1221 1.327 . S
C1219 H1242 0.950 . S
C1220 C1219 1.349 . S
C1220 C1232 1.349 . S
C1221 C1219 1.327 . S
C1221 C1237 1.429 . S
C1221 H1243 0.950 . S
C1222 H1218 0.949 . S
C1222 C1230 1.574 . S
C1222 C1238 1.368 . S
H1223 C1231 0.950 . S
H1224 C1229 0.950 . S
H1225 C1230 0.949 . S
H1226 C1232 0.950 . S
H1227 C1233 0.950 . S
H1228 C1234 0.949 . S
C1229 H1224 0.950 . S
C1229 C1231 1.327 . S
C1229 C1235 1.429 . S
C1230 C1222 1.574 . S
C1230 H1225 0.949 . S
C1230 C1236 1.368 . S
C1231 C1215 1.349 . S
C1231 H1223 0.950 . S
C1231 C1229 1.327 . S
C1232 C1220 1.349 . S
C1232 H1226 0.950 . S
C1232 C1233 1.327 . S
C1233 H1227 0.950 . S
C1233 C1232 1.327 . S
C1233 C1237 1.429 . S
C1234 C1217 1.574 . S
C1234 H1228 0.949 . S
C1234 C1238 1.368 . S
C1235 C1216 1.429 . S
C1235 C1229 1.429 . S
C1235 C1236 1.523 . S
C1236 C1217 1.368 . S
C1236 C1230 1.368 . S
C1236 C1235 1.523 . S
C1237 C1221 1.429 . S
C1237 C1233 1.429 . S
C1237 C1238 1.523 . S
C1238 C1222 1.368 . S
C1238 C1234 1.368 . S
C1238 C1237 1.523 . S
H1239 C1214 0.950 . S
H1240 C1216 0.950 . S
H1241 C1217 0.949 . S
H1242 C1219 0.950 . S
H1243 C1221 0.950 . S
C1244 C1245 1.349 . S
C1244 C1246 1.327 . S
C1244 H1269 0.950 . S
C1245 C1244 1.349 . S
C1245 C1261 1.349 . S
C1246 C1244 1.327 . S
C1246 C1265 1.429 . S
C1246 H1270 0.950 . S
C1247 C1264 1.574 . S
C1247 C1266 1.368 1_655 S
C1247 H1271 0.949 . S
H1248 C1252 0.949 . S
C1249 C1250 1.349 . S
C1249 C1251 1.327 . S
C1249 H1272 0.950 . S
C1250 C1249 1.349 . S
C1250 C1262 1.349 . S
C1251 C1249 1.327 . S
C1251 C1267 1.429 . S
C1251 H1273 0.950 . S
C1252 H1248 0.949 . S
C1252 C1260 1.574 . S
C1252 C1268 1.368 1_455 S
H1253 C1261 0.950 . S
H1254 C1259 0.950 . S
H1255 C1260 0.949 . S
H1256 C1262 0.950 . S
H1257 C1263 0.950 . S
H1258 C1264 0.949 . S
C1259 H1254 0.950 . S
C1259 C1261 1.327 . S
C1259 C1265 1.429 . S
C1260 C1252 1.574 . S
C1260 H1255 0.949 . S
C1260 C1266 1.368 . S
C1261 C1245 1.349 . S
C1261 H1253 0.950 . S
C1261 C1259 1.327 . S
C1262 C1250 1.349 . S
C1262 H1256 0.950 . S
C1262 C1263 1.327 . S
C1263 H1257 0.950 . S
C1263 C1262 1.327 . S
C1263 C1267 1.429 . S
C1264 C1247 1.574 . S
C1264 H1258 0.949 . S
C1264 C1268 1.368 . S
C1265 C1246 1.429 . S
C1265 C1259 1.429 . S
C1265 C1266 1.523 . S
C1266 C1247 1.368 1_455 S
C1266 C1260 1.368 . S
C1266 C1265 1.523 . S
C1267 C1251 1.429 . S
C1267 C1263 1.429 . S
C1267 C1268 1.523 . S
C1268 C1252 1.368 1_655 S
C1268 C1264 1.368 . S
C1268 C1267 1.523 . S
H1269 C1244 0.950 . S
H1270 C1246 0.950 . S
H1271 C1247 0.949 . S
H1272 C1249 0.950 . S
H1273 C1251 0.950 . S
C1274 C1275 1.349 . S
C1274 C1276 1.327 . S
C1274 H1299 0.950 . S
C1275 C1274 1.349 . S
C1275 C1291 1.349 . S
C1276 C1274 1.327 . S
C1276 C1295 1.429 . S
C1276 H1300 0.950 . S
C1277 C1294 1.574 . S
C1277 C1296 1.368 . S
C1277 H1301 0.949 . S
H1278 C1282 0.949 . S
C1279 C1280 1.349 . S
C1279 C1281 1.327 . S
C1279 H1302 0.950 . S
C1280 C1279 1.349 . S
C1280 C1292 1.349 . S
C1281 C1279 1.327 . S
C1281 C1297 1.429 . S
C1281 H1303 0.950 . S
C1282 H1278 0.949 . S
C1282 C1290 1.574 . S
C1282 C1298 1.368 . S
H1283 C1291 0.950 . S
H1284 C1289 0.950 . S
H1285 C1290 0.949 . S
H1286 C1292 0.950 . S
H1287 C1293 0.950 . S
H1288 C1294 0.949 . S
C1289 H1284 0.950 . S
C1289 C1291 1.327 . S
C1289 C1295 1.429 . S
C1290 C1282 1.574 . S
C1290 H1285 0.949 . S
C1290 C1296 1.368 . S
C1291 C1275 1.349 . S
C1291 H1283 0.950 . S
C1291 C1289 1.327 . S
C1292 C1280 1.349 . S
C1292 H1286 0.950 . S
C1292 C1293 1.327 . S
C1293 H1287 0.950 . S
C1293 C1292 1.327 . S
C1293 C1297 1.429 . S
C1294 C1277 1.574 . S
C1294 H1288 0.949 . S
C1294 C1298 1.368 . S
C1295 C1276 1.429 . S
C1295 C1289 1.429 . S
C1295 C1296 1.523 . S
C1296 C1277 1.368 . S
C1296 C1290 1.368 . S
C1296 C1295 1.523 . S
C1297 C1281 1.429 . S
C1297 C1293 1.429 . S
C1297 C1298 1.523 . S
C1298 C1282 1.368 . S
C1298 C1294 1.368 . S
C1298 C1297 1.523 . S
H1299 C1274 0.950 . S
H1300 C1276 0.950 . S
H1301 C1277 0.949 . S
H1302 C1279 0.950 . S
H1303 C1281 0.950 . S
C1304 C1305 1.349 . S
C1304 C1306 1.327 . S
C1304 H1329 0.950 . S
C1305 C1304 1.349 . S
C1305 C1321 1.349 . S
C1306 C1304 1.327 . S
C1306 C1325 1.429 . S
C1306 H1330 0.950 . S
C1307 C1324 1.574 . S
C1307 C1326 1.368 . S
C1307 H1331 0.949 . S
H1308 C1312 0.949 . S
C1309 C1310 1.349 . S
C1309 C1311 1.327 . S
C1309 H1332 0.950 . S
C1310 C1309 1.349 . S
C1310 C1322 1.349 . S
C1311 C1309 1.327 . S
C1311 C1327 1.429 . S
C1311 H1333 0.950 . S
C1312 H1308 0.949 . S
C1312 C1320 1.574 . S
C1312 C1328 1.368 . S
H1313 C1321 0.950 . S
H1314 C1319 0.950 . S
H1315 C1320 0.949 . S
H1316 C1322 0.950 . S
H1317 C1323 0.950 . S
H1318 C1324 0.949 . S
C1319 H1314 0.950 . S
C1319 C1321 1.327 . S
C1319 C1325 1.429 . S
C1320 C1312 1.574 . S
C1320 H1315 0.949 . S
C1320 C1326 1.368 . S
C1321 C1305 1.349 . S
C1321 H1313 0.950 . S
C1321 C1319 1.327 . S
C1322 C1310 1.349 . S
C1322 H1316 0.950 . S
C1322 C1323 1.327 . S
C1323 H1317 0.950 . S
C1323 C1322 1.327 . S
C1323 C1327 1.429 . S
C1324 C1307 1.574 . S
C1324 H1318 0.949 . S
C1324 C1328 1.368 . S
C1325 C1306 1.429 . S
C1325 C1319 1.429 . S
C1325 C1326 1.523 . S
C1326 C1307 1.368 . S
C1326 C1320 1.368 . S
C1326 C1325 1.523 . S
C1327 C1311 1.429 . S
C1327 C1323 1.429 . S
C1327 C1328 1.523 . S
C1328 C1312 1.368 . S
C1328 C1324 1.368 . S
C1328 C1327 1.523 . S
H1329 C1304 0.950 . S
H1330 C1306 0.950 . S
H1331 C1307 0.949 . S
H1332 C1309 0.950 . S
H1333 C1311 0.950 . S
C1334 C1335 1.349 . S
C1334 C1336 1.327 . S
C1334 H1359 0.950 . S
C1335 C1334 1.349 . S
C1335 C1351 1.349 . S
C1336 C1334 1.327 . S
C1336 C1355 1.429 . S
C1336 H1360 0.950 . S
C1337 C1354 1.574 . S
C1337 C1356 1.368 . S
C1337 H1361 0.949 . S
H1338 C1342 0.949 . S
C1339 C1340 1.349 . S
C1339 C1341 1.327 . S
C1339 H1362 0.950 . S
C1340 C1339 1.349 . S
C1340 C1352 1.349 . S
C1341 C1339 1.327 . S
C1341 C1357 1.429 . S
C1341 H1363 0.950 . S
C1342 H1338 0.949 . S
C1342 C1350 1.574 . S
C1342 C1358 1.368 . S
H1343 C1351 0.950 . S
H1344 C1349 0.950 . S
H1345 C1350 0.949 . S
H1346 C1352 0.950 . S
H1347 C1353 0.950 . S
H1348 C1354 0.949 . S
C1349 H1344 0.950 . S
C1349 C1351 1.327 . S
C1349 C1355 1.429 . S
C1350 C1342 1.574 . S
C1350 H1345 0.949 . S
C1350 C1356 1.368 1_655 S
C1351 C1335 1.349 . S
C1351 H1343 0.950 . S
C1351 C1349 1.327 . S
C1352 C1340 1.349 . S
C1352 H1346 0.950 . S
C1352 C1353 1.327 . S
C1353 H1347 0.950 . S
C1353 C1352 1.327 . S
C1353 C1357 1.429 . S
C1354 C1337 1.574 . S
C1354 H1348 0.949 . S
C1354 C1358 1.368 1_455 S
C1355 C1336 1.429 . S
C1355 C1349 1.429 . S
C1355 C1356 1.523 . S
C1356 C1337 1.368 . S
C1356 C1350 1.368 1_455 S
C1356 C1355 1.523 . S
C1357 C1341 1.429 . S
C1357 C1353 1.429 . S
C1357 C1358 1.523 . S
C1358 C1342 1.368 . S
C1358 C1354 1.368 1_655 S
C1358 C1357 1.523 . S
H1359 C1334 0.950 . S
H1360 C1336 0.950 . S
H1361 C1337 0.949 . S
H1362 C1339 0.950 . S
H1363 C1341 0.950 . S
C1364 C1365 1.349 . S
C1364 C1366 1.327 . S
C1364 H1389 0.950 . S
C1365 C1364 1.349 . S
C1365 C1381 1.349 . S
C1366 C1364 1.327 . S
C1366 C1385 1.429 . S
C1366 H1390 0.950 . S
C1367 C1384 1.574 . S
C1367 C1386 1.368 . S
C1367 H1391 0.949 . S
H1368 C1372 0.949 . S
C1369 C1370 1.349 . S
C1369 C1371 1.327 . S
C1369 H1392 0.950 . S
C1370 C1369 1.349 . S
C1370 C1382 1.349 . S
C1371 C1369 1.327 . S
C1371 C1387 1.429 . S
C1371 H1393 0.950 . S
C1372 H1368 0.949 . S
C1372 C1380 1.574 . S
C1372 C1388 1.368 . S
H1373 C1381 0.950 . S
H1374 C1379 0.950 . S
H1375 C1380 0.949 . S
H1376 C1382 0.950 . S
H1377 C1383 0.950 . S
H1378 C1384 0.949 . S
C1379 H1374 0.950 . S
C1379 C1381 1.327 . S
C1379 C1385 1.429 . S
C1380 C1372 1.574 . S
C1380 H1375 0.949 . S
C1380 C1386 1.368 . S
C1381 C1365 1.349 . S
C1381 H1373 0.950 . S
C1381 C1379 1.327 . S
C1382 C1370 1.349 . S
C1382 H1376 0.950 . S
C1382 C1383 1.327 . S
C1383 H1377 0.950 . S
C1383 C1382 1.327 . S
C1383 C1387 1.429 . S
C1384 C1367 1.574 . S
C1384 H1378 0.949 . S
C1384 C1388 1.368 . S
C1385 C1366 1.429 . S
C1385 C1379 1.429 . S
C1385 C1386 1.523 . S
C1386 C1367 1.368 . S
C1386 C1380 1.368 . S
C1386 C1385 1.523 . S
C1387 C1371 1.429 . S
C1387 C1383 1.429 . S
C1387 C1388 1.523 . S
C1388 C1372 1.368 . S
C1388 C1384 1.368 . S
C1388 C1387 1.523 . S
H1389 C1364 0.950 . S
H1390 C1366 0.950 . S
H1391 C1367 0.949 . S
H1392 C1369 0.950 . S
H1393 C1371 0.950 . S
C1394 C1395 1.349 . S
C1394 C1396 1.327 . S
C1394 H1419 0.950 . S
C1395 C1394 1.349 . S
C1395 C1411 1.349 . S
C1396 C1394 1.327 . S
C1396 C1415 1.429 . S
C1396 H1420 0.950 . S
C1397 C1414 1.574 . S
C1397 C1416 1.368 . S
C1397 H1421 0.949 . S
H1398 C1402 0.949 . S
C1399 C1400 1.349 . S
C1399 C1401 1.327 . S
C1399 H1422 0.950 . S
C1400 C1399 1.349 . S
C1400 C1412 1.349 . S
C1401 C1399 1.327 . S
C1401 C1417 1.429 . S
C1401 H1423 0.950 . S
C1402 H1398 0.949 . S
C1402 C1410 1.574 . S
C1402 C1418 1.368 . S
H1403 C1411 0.950 . S
H1404 C1409 0.950 . S
H1405 C1410 0.949 . S
H1406 C1412 0.950 . S
H1407 C1413 0.950 . S
H1408 C1414 0.949 . S
C1409 H1404 0.950 . S
C1409 C1411 1.327 . S
C1409 C1415 1.429 . S
C1410 C1402 1.574 . S
C1410 H1405 0.949 . S
C1410 C1416 1.368 1_655 S
C1411 C1395 1.349 . S
C1411 H1403 0.950 . S
C1411 C1409 1.327 . S
C1412 C1400 1.349 . S
C1412 H1406 0.950 . S
C1412 C1413 1.327 . S
C1413 H1407 0.950 . S
C1413 C1412 1.327 . S
C1413 C1417 1.429 . S
C1414 C1397 1.574 . S
C1414 H1408 0.949 . S
C1414 C1418 1.368 1_455 S
C1415 C1396 1.429 . S
C1415 C1409 1.429 . S
C1415 C1416 1.523 . S
C1416 C1397 1.368 . S
C1416 C1410 1.368 1_455 S
C1416 C1415 1.523 . S
C1417 C1401 1.429 . S
C1417 C1413 1.429 . S
C1417 C1418 1.523 . S
C1418 C1402 1.368 . S
C1418 C1414 1.368 1_655 S
C1418 C1417 1.523 . S
H1419 C1394 0.950 . S
H1420 C1396 0.950 . S
H1421 C1397 0.949 . S
H1422 C1399 0.950 . S
H1423 C1401 0.950 . S
C1424 C1425 1.349 . S
C1424 C1426 1.327 . S
C1424 H1449 0.950 . S
C1425 C1424 1.349 . S
C1425 C1441 1.349 . S
C1426 C1424 1.327 . S
C1426 C1445 1.429 . S
C1426 H1450 0.950 1_455 S
C1427 C1444 1.574 . S
C1427 C1446 1.368 . S
C1427 H1451 0.949 . S
H1428 C1432 0.949 . S
C1429 C1430 1.349 . S
C1429 C1431 1.327 . S
C1429 H1452 0.950 . S
C1430 C1429 1.349 . S
C1430 C1442 1.349 . S
C1431 C1429 1.327 . S
C1431 C1447 1.429 . S
C1431 H1453 0.950 1_655 S
C1432 H1428 0.949 . S
C1432 C1440 1.574 . S
C1432 C1448 1.368 . S
H1433 C1441 0.950 . S
H1434 C1439 0.950 . S
H1435 C1440 0.949 . S
H1436 C1442 0.950 . S
H1437 C1443 0.950 . S
H1438 C1444 0.949 . S
C1439 H1434 0.950 . S
C1439 C1441 1.327 . S
C1439 C1445 1.429 . S
C1440 C1432 1.574 . S
C1440 H1435 0.949 . S
C1440 C1446 1.368 1_655 S
C1441 C1425 1.349 . S
C1441 H1433 0.950 . S
C1441 C1439 1.327 . S
C1442 C1430 1.349 . S
C1442 H1436 0.950 . S
C1442 C1443 1.327 . S
C1443 H1437 0.950 . S
C1443 C1442 1.327 . S
C1443 C1447 1.429 . S
C1444 C1427 1.574 . S
C1444 H1438 0.949 . S
C1444 C1448 1.368 1_455 S
C1445 C1426 1.429 . S
C1445 C1439 1.429 . S
C1445 C1446 1.523 . S
C1446 C1427 1.368 . S
C1446 C1440 1.368 1_455 S
C1446 C1445 1.523 . S
C1447 C1431 1.429 . S
C1447 C1443 1.429 . S
C1447 C1448 1.523 . S
C1448 C1432 1.368 . S
C1448 C1444 1.368 1_655 S
C1448 C1447 1.523 . S
H1449 C1424 0.950 . S
H1450 C1426 0.950 1_655 S
H1451 C1427 0.949 . S
H1452 C1429 0.950 . S
H1453 C1431 0.950 1_455 S
C1454 C1455 1.349 . S
C1454 C1456 1.327 . S
C1454 H1479 0.950 . S
C1455 C1454 1.349 . S
C1455 C1471 1.349 . S
C1456 C1454 1.327 . S
C1456 C1475 1.429 . S
C1456 H1480 0.950 . S
C1457 C1474 1.574 . S
C1457 C1476 1.368 . S
C1457 H1481 0.949 . S
H1458 C1462 0.949 . S
C1459 C1460 1.349 . S
C1459 C1461 1.327 . S
C1459 H1482 0.950 . S
C1460 C1459 1.349 . S
C1460 C1472 1.349 . S
C1461 C1459 1.327 . S
C1461 C1477 1.429 . S
C1461 H1483 0.950 . S
C1462 H1458 0.949 . S
C1462 C1470 1.574 . S
C1462 C1478 1.368 . S
H1463 C1471 0.950 . S
H1464 C1469 0.950 . S
H1465 C1470 0.949 . S
H1466 C1472 0.950 . S
H1467 C1473 0.950 . S
H1468 C1474 0.949 . S
C1469 H1464 0.950 . S
C1469 C1471 1.327 . S
C1469 C1475 1.429 . S
C1470 C1462 1.574 . S
C1470 H1465 0.949 . S
C1470 C1476 1.368 . S
C1471 C1455 1.349 . S
C1471 H1463 0.950 . S
C1471 C1469 1.327 . S
C1472 C1460 1.349 . S
C1472 H1466 0.950 . S
C1472 C1473 1.327 . S
C1473 H1467 0.950 . S
C1473 C1472 1.327 . S
C1473 C1477 1.429 . S
C1474 C1457 1.574 . S
C1474 H1468 0.949 . S
C1474 C1478 1.368 . S
C1475 C1456 1.429 . S
C1475 C1469 1.429 . S
C1475 C1476 1.523 . S
C1476 C1457 1.368 . S
C1476 C1470 1.368 . S
C1476 C1475 1.523 . S
C1477 C1461 1.429 . S
C1477 C1473 1.429 . S
C1477 C1478 1.523 . S
C1478 C1462 1.368 . S
C1478 C1474 1.368 . S
C1478 C1477 1.523 . S
H1479 C1454 0.950 . S
H1480 C1456 0.950 . S
H1481 C1457 0.949 . S
H1482 C1459 0.950 . S
H1483 C1461 0.950 . S
C1484 C1485 1.349 . S
C1484 C1486 1.327 . S
C1484 H1509 0.950 . S
C1485 C1484 1.349 . S
C1485 C1501 1.349 . S
C1486 C1484 1.327 . S
C1486 C1505 1.429 . S
C1486 H1510 0.950 . S
C1487 C1504 1.574 . S
C1487 C1506 1.368 . S
C1487 H1511 0.949 . S
H1488 C1492 0.949 . S
C1489 C1490 1.349 . S
C1489 C1491 1.327 . S
C1489 H1512 0.950 . S
C1490 C1489 1.349 . S
C1490 C1502 1.349 . S
C1491 C1489 1.327 . S
C1491 C1507 1.429 . S
C1491 H1513 0.950 . S
C1492 H1488 0.949 . S
C1492 C1500 1.574 . S
C1492 C1508 1.368 . S
H1493 C1501 0.950 . S
H1494 C1499 0.950 . S
H1495 C1500 0.949 . S
H1496 C1502 0.950 . S
H1497 C1503 0.950 . S
H1498 C1504 0.949 . S
C1499 H1494 0.950 . S
C1499 C1501 1.327 . S
C1499 C1505 1.429 . S
C1500 C1492 1.574 . S
C1500 H1495 0.949 . S
C1500 C1506 1.368 . S
C1501 C1485 1.349 . S
C1501 H1493 0.950 . S
C1501 C1499 1.327 . S
C1502 C1490 1.349 . S
C1502 H1496 0.950 . S
C1502 C1503 1.327 . S
C1503 H1497 0.950 . S
C1503 C1502 1.327 . S
C1503 C1507 1.429 . S
C1504 C1487 1.574 . S
C1504 H1498 0.949 . S
C1504 C1508 1.368 . S
C1505 C1486 1.429 . S
C1505 C1499 1.429 . S
C1505 C1506 1.523 . S
C1506 C1487 1.368 . S
C1506 C1500 1.368 . S
C1506 C1505 1.523 . S
C1507 C1491 1.429 . S
C1507 C1503 1.429 . S
C1507 C1508 1.523 . S
C1508 C1492 1.368 . S
C1508 C1504 1.368 . S
C1508 C1507 1.523 . S
H1509 C1484 0.950 . S
H1510 C1486 0.950 . S
H1511 C1487 0.949 . S
H1512 C1489 0.950 . S
H1513 C1491 0.950 . S
C1514 C1515 1.349 . S
C1514 C1516 1.327 . S
C1514 H1539 0.950 . S
C1515 C1514 1.349 . S
C1515 C1531 1.349 . S
C1516 C1514 1.327 . S
C1516 C1535 1.429 . S
C1516 H1540 0.950 . S
C1517 C1534 1.574 . S
C1517 C1536 1.368 1_655 S
C1517 H1541 0.949 . S
H1518 C1522 0.949 . S
C1519 C1520 1.349 . S
C1519 C1521 1.327 . S
C1519 H1542 0.950 . S
C1520 C1519 1.349 . S
C1520 C1532 1.349 . S
C1521 C1519 1.327 . S
C1521 C1537 1.429 . S
C1521 H1543 0.950 . S
C1522 H1518 0.949 . S
C1522 C1530 1.574 . S
C1522 C1538 1.368 1_455 S
H1523 C1531 0.950 . S
H1524 C1529 0.950 1_655 S
H1525 C1530 0.949 . S
H1526 C1532 0.950 . S
H1527 C1533 0.950 1_455 S
H1528 C1534 0.949 . S
C1529 H1524 0.950 1_455 S
C1529 C1531 1.327 . S
C1529 C1535 1.429 . S
C1530 C1522 1.574 . S
C1530 H1525 0.949 . S
C1530 C1536 1.368 . S
C1531 C1515 1.349 . S
C1531 H1523 0.950 . S
C1531 C1529 1.327 . S
C1532 C1520 1.349 . S
C1532 H1526 0.950 . S
C1532 C1533 1.327 . S
C1533 H1527 0.950 1_655 S
C1533 C1532 1.327 . S
C1533 C1537 1.429 . S
C1534 C1517 1.574 . S
C1534 H1528 0.949 . S
C1534 C1538 1.368 . S
C1535 C1516 1.429 . S
C1535 C1529 1.429 . S
C1535 C1536 1.523 . S
C1536 C1517 1.368 1_455 S
C1536 C1530 1.368 . S
C1536 C1535 1.523 . S
C1537 C1521 1.429 . S
C1537 C1533 1.429 . S
C1537 C1538 1.523 . S
C1538 C1522 1.368 1_655 S
C1538 C1534 1.368 . S
C1538 C1537 1.523 . S
H1539 C1514 0.950 . S
H1540 C1516 0.950 . S
H1541 C1517 0.949 . S
H1542 C1519 0.950 . S
H1543 C1521 0.950 . S
C1544 C1545 1.349 . S
C1544 C1546 1.327 . S
C1544 H1569 0.950 . S
C1545 C1544 1.349 . S
C1545 C1561 1.349 . S
C1546 C1544 1.327 . S
C1546 C1565 1.429 . S
C1546 H1570 0.950 1_455 S
C1547 C1564 1.574 . S
C1547 C1566 1.368 . S
C1547 H1571 0.949 . S
H1548 C1552 0.949 . S
C1549 C1550 1.349 . S
C1549 C1551 1.327 . S
C1549 H1572 0.950 . S
C1550 C1549 1.349 . S
C1550 C1562 1.349 . S
C1551 C1549 1.327 . S
C1551 C1567 1.429 . S
C1551 H1573 0.950 1_655 S
C1552 H1548 0.949 . S
C1552 C1560 1.574 . S
C1552 C1568 1.368 . S
H1553 C1561 0.950 . S
H1554 C1559 0.950 . S
H1555 C1560 0.949 . S
H1556 C1562 0.950 . S
H1557 C1563 0.950 . S
H1558 C1564 0.949 . S
C1559 H1554 0.950 . S
C1559 C1561 1.327 . S
C1559 C1565 1.429 . S
C1560 C1552 1.574 . S
C1560 H1555 0.949 . S
C1560 C1566 1.368 1_655 S
C1561 C1545 1.349 . S
C1561 H1553 0.950 . S
C1561 C1559 1.327 . S
C1562 C1550 1.349 . S
C1562 H1556 0.950 . S
C1562 C1563 1.327 . S
C1563 H1557 0.950 . S
C1563 C1562 1.327 . S
C1563 C1567 1.429 . S
C1564 C1547 1.574 . S
C1564 H1558 0.949 . S
C1564 C1568 1.368 1_455 S
C1565 C1546 1.429 . S
C1565 C1559 1.429 . S
C1565 C1566 1.523 . S
C1566 C1547 1.368 . S
C1566 C1560 1.368 1_455 S
C1566 C1565 1.523 . S
C1567 C1551 1.429 . S
C1567 C1563 1.429 . S
C1567 C1568 1.523 . S
C1568 C1552 1.368 . S
C1568 C1564 1.368 1_655 S
C1568 C1567 1.523 . S
H1569 C1544 0.950 . S
H1570 C1546 0.950 1_655 S
H1571 C1547 0.949 . S
H1572 C1549 0.950 . S
H1573 C1551 0.950 1_455 S
C1574 C1575 1.349 . S
C1574 C1576 1.327 . S
C1574 H1599 0.950 . S
C1575 C1574 1.349 . S
C1575 C1591 1.349 . S
C1576 C1574 1.327 . S
C1576 C1595 1.429 . S
C1576 H1600 0.950 . S
C1577 C1594 1.574 . S
C1577 C1596 1.368 . S
C1577 H1601 0.949 . S
H1578 C1582 0.949 . S
C1579 C1580 1.349 . S
C1579 C1581 1.327 . S
C1579 H1602 0.950 . S
C1580 C1579 1.349 . S
C1580 C1592 1.349 . S
C1581 C1579 1.327 . S
C1581 C1597 1.429 . S
C1581 H1603 0.950 . S
C1582 H1578 0.949 . S
C1582 C1590 1.574 . S
C1582 C1598 1.368 . S
H1583 C1591 0.950 . S
H1584 C1589 0.950 . S
H1585 C1590 0.949 . S
H1586 C1592 0.950 . S
H1587 C1593 0.950 . S
H1588 C1594 0.949 . S
C1589 H1584 0.950 . S
C1589 C1591 1.327 . S
C1589 C1595 1.429 . S
C1590 C1582 1.574 . S
C1590 H1585 0.949 . S
C1590 C1596 1.368 . S
C1591 C1575 1.349 . S
C1591 H1583 0.950 . S
C1591 C1589 1.327 . S
C1592 C1580 1.349 . S
C1592 H1586 0.950 . S
C1592 C1593 1.327 . S
C1593 H1587 0.950 . S
C1593 C1592 1.327 . S
C1593 C1597 1.429 . S
C1594 C1577 1.574 . S
C1594 H1588 0.949 . S
C1594 C1598 1.368 . S
C1595 C1576 1.429 . S
C1595 C1589 1.429 . S
C1595 C1596 1.523 . S
C1596 C1577 1.368 . S
C1596 C1590 1.368 . S
C1596 C1595 1.523 . S
C1597 C1581 1.429 . S
C1597 C1593 1.429 . S
C1597 C1598 1.523 . S
C1598 C1582 1.368 . S
C1598 C1594 1.368 . S
C1598 C1597 1.523 . S
H1599 C1574 0.950 . S
H1600 C1576 0.950 . S
H1601 C1577 0.949 . S
H1602 C1579 0.950 . S
H1603 C1581 0.950 . S
C1604 C1605 1.349 . S
C1604 C1606 1.327 . S
C1604 H1629 0.950 . S
C1605 C1604 1.349 . S
C1605 C1621 1.349 . S
C1606 C1604 1.327 . S
C1606 C1625 1.429 . S
C1606 H1630 0.950 . S
C1607 C1624 1.574 . S
C1607 C1626 1.368 . S
C1607 H1631 0.949 . S
H1608 C1612 0.949 . S
C1609 C1610 1.349 . S
C1609 C1611 1.327 . S
C1609 H1632 0.950 . S
C1610 C1609 1.349 . S
C1610 C1622 1.349 . S
C1611 C1609 1.327 . S
C1611 C1627 1.429 . S
C1611 H1633 0.950 . S
C1612 H1608 0.949 . S
C1612 C1620 1.574 . S
C1612 C1628 1.368 . S
H1613 C1621 0.950 . S
H1614 C1619 0.950 . S
H1615 C1620 0.949 . S
H1616 C1622 0.950 . S
H1617 C1623 0.950 . S
H1618 C1624 0.949 . S
C1619 H1614 0.950 . S
C1619 C1621 1.327 . S
C1619 C1625 1.429 . S
C1620 C1612 1.574 . S
C1620 H1615 0.949 . S
C1620 C1626 1.368 . S
C1621 C1605 1.349 . S
C1621 H1613 0.950 . S
C1621 C1619 1.327 . S
C1622 C1610 1.349 . S
C1622 H1616 0.950 . S
C1622 C1623 1.327 . S
C1623 H1617 0.950 . S
C1623 C1622 1.327 . S
C1623 C1627 1.429 . S
C1624 C1607 1.574 . S
C1624 H1618 0.949 . S
C1624 C1628 1.368 . S
C1625 C1606 1.429 . S
C1625 C1619 1.429 . S
C1625 C1626 1.523 . S
C1626 C1607 1.368 . S
C1626 C1620 1.368 . S
C1626 C1625 1.523 . S
C1627 C1611 1.429 . S
C1627 C1623 1.429 . S
C1627 C1628 1.523 . S
C1628 C1612 1.368 . S
C1628 C1624 1.368 . S
C1628 C1627 1.523 . S
H1629 C1604 0.950 . S
H1630 C1606 0.950 . S
H1631 C1607 0.949 . S
H1632 C1609 0.950 . S
H1633 C1611 0.950 . S
C1634 C1635 1.349 . S
C1634 C1636 1.327 . S
C1634 H1659 0.950 . S
C1635 C1634 1.349 . S
C1635 C1651 1.349 . S
C1636 C1634 1.327 . S
C1636 C1655 1.429 . S
C1636 H1660 0.950 1_455 S
C1637 C1654 1.574 . S
C1637 C1656 1.368 . S
C1637 H1661 0.949 . S
H1638 C1642 0.949 . S
C1639 C1640 1.349 . S
C1639 C1641 1.327 . S
C1639 H1662 0.950 . S
C1640 C1639 1.349 . S
C1640 C1652 1.349 . S
C1641 C1639 1.327 . S
C1641 C1657 1.429 . S
C1641 H1663 0.950 1_655 S
C1642 H1638 0.949 . S
C1642 C1650 1.574 . S
C1642 C1658 1.368 . S
H1643 C1651 0.950 . S
H1644 C1649 0.950 . S
H1645 C1650 0.949 . S
H1646 C1652 0.950 . S
H1647 C1653 0.950 . S
H1648 C1654 0.949 . S
C1649 H1644 0.950 . S
C1649 C1651 1.327 . S
C1649 C1655 1.429 . S
C1650 C1642 1.574 . S
C1650 H1645 0.949 . S
C1650 C1656 1.368 1_655 S
C1651 C1635 1.349 . S
C1651 H1643 0.950 . S
C1651 C1649 1.327 . S
C1652 C1640 1.349 . S
C1652 H1646 0.950 . S
C1652 C1653 1.327 . S
C1653 H1647 0.950 . S
C1653 C1652 1.327 . S
C1653 C1657 1.429 . S
C1654 C1637 1.574 . S
C1654 H1648 0.949 . S
C1654 C1658 1.368 1_455 S
C1655 C1636 1.429 . S
C1655 C1649 1.429 . S
C1655 C1656 1.523 . S
C1656 C1637 1.368 . S
C1656 C1650 1.368 1_455 S
C1656 C1655 1.523 . S
C1657 C1641 1.429 . S
C1657 C1653 1.429 . S
C1657 C1658 1.523 . S
C1658 C1642 1.368 . S
C1658 C1654 1.368 1_655 S
C1658 C1657 1.523 . S
H1659 C1634 0.950 . S
H1660 C1636 0.950 1_655 S
H1661 C1637 0.949 . S
H1662 C1639 0.950 . S
H1663 C1641 0.950 1_455 S
C1664 C1665 1.349 . S
C1664 C1666 1.327 . S
C1664 H1689 0.950 . S
C1665 C1664 1.349 . S
C1665 C1681 1.349 . S
C1666 C1664 1.327 . S
C1666 C1685 1.429 . S
C1666 H1690 0.950 . S
C1667 C1684 1.574 1_556 S
C1667 C1686 1.368 1_545 S
C1667 H1691 0.949 . S
H1668 C1672 0.949 . S
C1669 C1670 1.349 . S
C1669 C1671 1.327 . S
C1669 H1692 0.950 . S
C1670 C1669 1.349 . S
C1670 C1682 1.349 . S
C1671 C1669 1.327 . S
C1671 C1687 1.429 . S
C1671 H1693 0.950 . S
C1672 H1668 0.949 . S
C1672 C1680 1.574 1_554 S
C1672 C1688 1.368 1_565 S
H1673 C1681 0.950 . S
H1674 C1679 0.950 1_545 S
H1675 C1680 0.949 . S
H1676 C1682 0.950 . S
H1677 C1683 0.950 1_565 S
H1678 C1684 0.949 . S
C1679 H1674 0.950 1_565 S
C1679 C1681 1.327 . S
C1679 C1685 1.429 . S
C1680 C1672 1.574 1_556 S
C1680 H1675 0.949 . S
C1680 C1686 1.368 1_455 S
C1681 C1665 1.349 . S
C1681 H1673 0.950 . S
C1681 C1679 1.327 . S
C1682 C1670 1.349 . S
C1682 H1676 0.950 . S
C1682 C1683 1.327 . S
C1683 H1677 0.950 1_545 S
C1683 C1682 1.327 . S
C1683 C1687 1.429 . S
C1684 C1667 1.574 1_554 S
C1684 H1678 0.949 . S
C1684 C1688 1.368 1_655 S
C1685 C1666 1.429 . S
C1685 C1679 1.429 . S
C1685 C1686 1.523 . S
C1686 C1667 1.368 1_565 S
C1686 C1680 1.368 1_655 S
C1686 C1685 1.523 . S
C1687 C1671 1.429 . S
C1687 C1683 1.429 . S
C1687 C1688 1.523 . S
C1688 C1672 1.368 1_545 S
C1688 C1684 1.368 1_455 S
C1688 C1687 1.523 . S
H1689 C1664 0.950 . S
H1690 C1666 0.950 . S
H1691 C1667 0.949 . S
H1692 C1669 0.950 . S
H1693 C1671 0.950 . S
C1694 C1695 1.349 . S
C1694 C1696 1.327 . S
C1694 H1719 0.950 . S
C1695 C1694 1.349 . S
C1695 C1711 1.349 . S
C1696 C1694 1.327 . S
C1696 C1715 1.429 . S
C1696 H1720 0.950 1_545 S
C1697 C1714 1.574 1_556 S
C1697 C1716 1.368 . S
C1697 H1721 0.949 . S
H1698 C1702 0.949 . S
C1699 C1700 1.349 . S
C1699 C1701 1.327 . S
C1699 H1722 0.950 . S
C1700 C1699 1.349 . S
C1700 C1712 1.349 . S
C1701 C1699 1.327 . S
C1701 C1717 1.429 . S
C1701 H1723 0.950 1_565 S
C1702 H1698 0.949 . S
C1702 C1710 1.574 1_554 S
C1702 C1718 1.368 . S
H1703 C1711 0.950 . S
H1704 C1709 0.950 . S
H1705 C1710 0.949 . S
H1706 C1712 0.950 . S
H1707 C1713 0.950 . S
H1708 C1714 0.949 . S
C1709 H1704 0.950 . S
C1709 C1711 1.327 . S
C1709 C1715 1.429 . S
C1710 C1702 1.574 1_556 S
C1710 H1705 0.949 . S
C1710 C1716 1.368 1_565 S
C1711 C1695 1.349 . S
C1711 H1703 0.950 . S
C1711 C1709 1.327 . S
C1712 C1700 1.349 . S
C1712 H1706 0.950 . S
C1712 C1713 1.327 . S
C1713 H1707 0.950 . S
C1713 C1712 1.327 . S
C1713 C1717 1.429 . S
C1714 C1697 1.574 1_554 S
C1714 H1708 0.949 . S
C1714 C1718 1.368 1_545 S
C1715 C1696 1.429 . S
C1715 C1709 1.429 . S
C1715 C1716 1.523 . S
C1716 C1697 1.368 . S
C1716 C1710 1.368 1_545 S
C1716 C1715 1.523 . S
C1717 C1701 1.429 . S
C1717 C1713 1.429 . S
C1717 C1718 1.523 . S
C1718 C1702 1.368 . S
C1718 C1714 1.368 1_565 S
C1718 C1717 1.523 . S
H1719 C1694 0.950 . S
H1720 C1696 0.950 1_565 S
H1721 C1697 0.949 . S
H1722 C1699 0.950 . S
H1723 C1701 0.950 1_545 S
C1724 C1725 1.349 . S
C1724 C1726 1.327 . S
C1724 H1749 0.950 . S
C1725 C1724 1.349 . S
C1725 C1741 1.349 . S
C1726 C1724 1.327 . S
C1726 C1745 1.429 . S
C1726 H1750 0.950 . S
C1727 C1744 1.574 . S
C1727 C1746 1.368 1_565 S
C1727 H1751 0.949 . S
H1728 C1732 0.949 . S
C1729 C1730 1.349 . S
C1729 C1731 1.327 . S
C1729 H1752 0.950 . S
C1730 C1729 1.349 . S
C1730 C1742 1.349 . S
C1731 C1729 1.327 . S
C1731 C1747 1.429 . S
C1731 H1753 0.950 . S
C1732 H1728 0.949 . S
C1732 C1740 1.574 . S
C1732 C1748 1.368 1_545 S
H1733 C1741 0.950 . S
H1734 C1739 0.950 1_565 S
H1735 C1740 0.949 . S
H1736 C1742 0.950 . S
H1737 C1743 0.950 1_545 S
H1738 C1744 0.949 . S
C1739 H1734 0.950 1_545 S
C1739 C1741 1.327 . S
C1739 C1745 1.429 . S
C1740 C1732 1.574 . S
C1740 H1735 0.949 . S
C1740 C1746 1.368 . S
C1741 C1725 1.349 . S
C1741 H1733 0.950 . S
C1741 C1739 1.327 . S
C1742 C1730 1.349 . S
C1742 H1736 0.950 . S
C1742 C1743 1.327 . S
C1743 H1737 0.950 1_565 S
C1743 C1742 1.327 . S
C1743 C1747 1.429 . S
C1744 C1727 1.574 . S
C1744 H1738 0.949 . S
C1744 C1748 1.368 . S
C1745 C1726 1.429 . S
C1745 C1739 1.429 . S
C1745 C1746 1.523 . S
C1746 C1727 1.368 1_545 S
C1746 C1740 1.368 . S
C1746 C1745 1.523 . S
C1747 C1731 1.429 . S
C1747 C1743 1.429 . S
C1747 C1748 1.523 . S
C1748 C1732 1.368 1_565 S
C1748 C1744 1.368 . S
C1748 C1747 1.523 . S
H1749 C1724 0.950 . S
H1750 C1726 0.950 . S
H1751 C1727 0.949 . S
H1752 C1729 0.950 . S
H1753 C1731 0.950 . S
C1754 C1755 1.349 . S
C1754 C1756 1.327 . S
C1754 H1779 0.950 . S
C1755 C1754 1.349 . S
C1755 C1771 1.349 . S
C1756 C1754 1.327 . S
C1756 C1775 1.429 . S
C1756 H1780 0.950 1_455 S
C1757 C1774 1.574 . S
C1757 C1776 1.368 1_545 S
C1757 H1781 0.949 . S
H1758 C1762 0.949 . S
C1759 C1760 1.349 . S
C1759 C1761 1.327 . S
C1759 H1782 0.950 . S
C1760 C1759 1.349 . S
C1760 C1772 1.349 . S
C1761 C1759 1.327 . S
C1761 C1777 1.429 . S
C1761 H1783 0.950 1_655 S
C1762 H1758 0.949 . S
C1762 C1770 1.574 . S
C1762 C1778 1.368 1_565 S
H1763 C1771 0.950 . S
H1764 C1769 0.950 1_545 S
H1765 C1770 0.949 . S
H1766 C1772 0.950 . S
H1767 C1773 0.950 1_565 S
H1768 C1774 0.949 . S
C1769 H1764 0.950 1_565 S
C1769 C1771 1.327 . S
C1769 C1775 1.429 . S
C1770 C1762 1.574 . S
C1770 H1765 0.949 . S
C1770 C1776 1.368 1_655 S
C1771 C1755 1.349 . S
C1771 H1763 0.950 . S
C1771 C1769 1.327 . S
C1772 C1760 1.349 . S
C1772 H1766 0.950 . S
C1772 C1773 1.327 . S
C1773 H1767 0.950 1_545 S
C1773 C1772 1.327 . S
C1773 C1777 1.429 . S
C1774 C1757 1.574 . S
C1774 H1768 0.949 . S
C1774 C1778 1.368 1_455 S
C1775 C1756 1.429 . S
C1775 C1769 1.429 . S
C1775 C1776 1.523 . S
C1776 C1757 1.368 1_565 S
C1776 C1770 1.368 1_455 S
C1776 C1775 1.523 . S
C1777 C1761 1.429 . S
C1777 C1773 1.429 . S
C1777 C1778 1.523 . S
C1778 C1762 1.368 1_545 S
C1778 C1774 1.368 1_655 S
C1778 C1777 1.523 . S
H1779 C1754 0.950 . S
H1780 C1756 0.950 1_655 S
H1781 C1757 0.949 . S
H1782 C1759 0.950 . S
H1783 C1761 0.950 1_455 S
C1784 C1785 1.349 . S
C1784 C1786 1.327 . S
C1784 H1809 0.950 . S
C1785 C1784 1.349 . S
C1785 C1801 1.349 . S
C1786 C1784 1.327 . S
C1786 C1805 1.429 . S
C1786 H1810 0.950 . S
C1787 C1804 1.574 1_554 S
C1787 C1806 1.368 . S
C1787 H1811 0.949 . S
H1788 C1792 0.949 . S
C1789 C1790 1.349 . S
C1789 C1791 1.327 . S
C1789 H1812 0.950 . S
C1790 C1789 1.349 . S
C1790 C1802 1.349 . S
C1791 C1789 1.327 . S
C1791 C1807 1.429 . S
C1791 H1813 0.950 . S
C1792 H1788 0.949 . S
C1792 C1800 1.574 1_556 S
C1792 C1808 1.368 . S
H1793 C1801 0.950 . S
H1794 C1799 0.950 . S
H1795 C1800 0.949 . S
H1796 C1802 0.950 . S
H1797 C1803 0.950 . S
H1798 C1804 0.949 . S
C1799 H1794 0.950 . S
C1799 C1801 1.327 . S
C1799 C1805 1.429 . S
C1800 C1792 1.574 1_554 S
C1800 H1795 0.949 . S
C1800 C1806 1.368 . S
C1801 C1785 1.349 . S
C1801 H1793 0.950 . S
C1801 C1799 1.327 . S
C1802 C1790 1.349 . S
C1802 H1796 0.950 . S
C1802 C1803 1.327 . S
C1803 H1797 0.950 . S
C1803 C1802 1.327 . S
C1803 C1807 1.429 . S
C1804 C1787 1.574 1_556 S
C1804 H1798 0.949 . S
C1804 C1808 1.368 . S
C1805 C1786 1.429 . S
C1805 C1799 1.429 . S
C1805 C1806 1.523 . S
C1806 C1787 1.368 . S
C1806 C1800 1.368 . S
C1806 C1805 1.523 . S
C1807 C1791 1.429 . S
C1807 C1803 1.429 . S
C1807 C1808 1.523 . S
C1808 C1792 1.368 . S
C1808 C1804 1.368 . S
C1808 C1807 1.523 . S
H1809 C1784 0.950 . S
H1810 C1786 0.950 . S
H1811 C1787 0.949 . S
H1812 C1789 0.950 . S
H1813 C1791 0.950 . S
C1814 C1815 1.349 . S
C1814 C1816 1.327 . S
C1814 H1839 0.950 1_655 S
C1815 C1814 1.349 . S
C1815 C1831 1.349 . S
C1816 C1814 1.327 . S
C1816 C1835 1.429 . S
C1816 H1840 0.950 1_655 S
C1817 C1834 1.574 1_554 S
C1817 C1836 1.368 . S
C1817 H1841 0.949 . S
H1818 C1822 0.949 . S
C1819 C1820 1.349 . S
C1819 C1821 1.327 . S
C1819 H1842 0.950 1_455 S
C1820 C1819 1.349 . S
C1820 C1832 1.349 . S
C1821 C1819 1.327 . S
C1821 C1837 1.429 . S
C1821 H1843 0.950 1_455 S
C1822 H1818 0.949 . S
C1822 C1830 1.574 1_556 S
C1822 C1838 1.368 . S
H1823 C1831 0.950 . S
H1824 C1829 0.950 . S
H1825 C1830 0.949 . S
H1826 C1832 0.950 . S
H1827 C1833 0.950 . S
H1828 C1834 0.949 . S
C1829 H1824 0.950 . S
C1829 C1831 1.327 . S
C1829 C1835 1.429 . S
C1830 C1822 1.574 1_554 S
C1830 H1825 0.949 . S
C1830 C1836 1.368 1_455 S
C1831 C1815 1.349 . S
C1831 H1823 0.950 . S
C1831 C1829 1.327 . S
C1832 C1820 1.349 . S
C1832 H1826 0.950 . S
C1832 C1833 1.327 . S
C1833 H1827 0.950 . S
C1833 C1832 1.327 . S
C1833 C1837 1.429 . S
C1834 C1817 1.574 1_556 S
C1834 H1828 0.949 . S
C1834 C1838 1.368 1_655 S
C1835 C1816 1.429 . S
C1835 C1829 1.429 . S
C1835 C1836 1.523 . S
C1836 C1817 1.368 . S
C1836 C1830 1.368 1_655 S
C1836 C1835 1.523 . S
C1837 C1821 1.429 . S
C1837 C1833 1.429 . S
C1837 C1838 1.523 . S
C1838 C1822 1.368 . S
C1838 C1834 1.368 1_455 S
C1838 C1837 1.523 . S
H1839 C1814 0.950 1_455 S
H1840 C1816 0.950 1_455 S
H1841 C1817 0.949 . S
H1842 C1819 0.950 1_655 S
H1843 C1821 0.950 1_655 S
C1844 C1845 1.349 . S
C1844 C1846 1.327 . S
C1844 H1869 0.950 . S
C1845 C1844 1.349 . S
C1845 C1861 1.349 . S
C1846 C1844 1.327 . S
C1846 C1865 1.429 . S
C1846 H1870 0.950 . S
C1847 C1864 1.574 . S
C1847 C1866 1.368 1_455 S
C1847 H1871 0.949 . S
H1848 C1852 0.949 . S
C1849 C1850 1.349 . S
C1849 C1851 1.327 . S
C1849 H1872 0.950 . S
C1850 C1849 1.349 . S
C1850 C1862 1.349 . S
C1851 C1849 1.327 . S
C1851 C1867 1.429 . S
C1851 H1873 0.950 . S
C1852 H1848 0.949 . S
C1852 C1860 1.574 . S
C1852 C1868 1.368 1_655 S
H1853 C1861 0.950 . S
H1854 C1859 0.950 1_455 S
H1855 C1860 0.949 . S
H1856 C1862 0.950 . S
H1857 C1863 0.950 1_655 S
H1858 C1864 0.949 . S
C1859 H1854 0.950 1_655 S
C1859 C1861 1.327 . S
C1859 C1865 1.429 . S
C1860 C1852 1.574 . S
C1860 H1855 0.949 . S
C1860 C1866 1.368 . S
C1861 C1845 1.349 . S
C1861 H1853 0.950 . S
C1861 C1859 1.327 . S
C1862 C1850 1.349 . S
C1862 H1856 0.950 . S
C1862 C1863 1.327 . S
C1863 H1857 0.950 1_455 S
C1863 C1862 1.327 . S
C1863 C1867 1.429 . S
C1864 C1847 1.574 . S
C1864 H1858 0.949 . S
C1864 C1868 1.368 . S
C1865 C1846 1.429 . S
C1865 C1859 1.429 . S
C1865 C1866 1.523 . S
C1866 C1847 1.368 1_655 S
C1866 C1860 1.368 . S
C1866 C1865 1.523 . S
C1867 C1851 1.429 . S
C1867 C1863 1.429 . S
C1867 C1868 1.523 . S
C1868 C1852 1.368 1_455 S
C1868 C1864 1.368 . S
C1868 C1867 1.523 . S
H1869 C1844 0.950 . S
H1870 C1846 0.950 . S
H1871 C1847 0.949 . S
H1872 C1849 0.950 . S
H1873 C1851 0.950 . S
C1874 C1875 1.349 . S
C1874 C1876 1.327 . S
C1874 H1899 0.950 . S
C1875 C1874 1.349 . S
C1875 C1891 1.349 . S
C1876 C1874 1.327 . S
C1876 C1895 1.429 . S
C1876 H1900 0.950 . S
C1877 C1894 1.574 . S
C1877 C1896 1.368 . S
C1877 H1901 0.949 . S
H1878 C1882 0.949 . S
C1879 C1880 1.349 . S
C1879 C1881 1.327 . S
C1879 H1902 0.950 . S
C1880 C1879 1.349 . S
C1880 C1892 1.349 . S
C1881 C1879 1.327 . S
C1881 C1897 1.429 . S
C1881 H1903 0.950 . S
C1882 H1878 0.949 . S
C1882 C1890 1.574 . S
C1882 C1898 1.368 . S
H1883 C1891 0.950 . S
H1884 C1889 0.950 . S
H1885 C1890 0.949 . S
H1886 C1892 0.950 . S
H1887 C1893 0.950 . S
H1888 C1894 0.949 . S
C1889 H1884 0.950 . S
C1889 C1891 1.327 . S
C1889 C1895 1.429 . S
C1890 C1882 1.574 . S
C1890 H1885 0.949 . S
C1890 C1896 1.368 . S
C1891 C1875 1.349 . S
C1891 H1883 0.950 . S
C1891 C1889 1.327 . S
C1892 C1880 1.349 . S
C1892 H1886 0.950 . S
C1892 C1893 1.327 . S
C1893 H1887 0.950 . S
C1893 C1892 1.327 . S
C1893 C1897 1.429 . S
C1894 C1877 1.574 . S
C1894 H1888 0.949 . S
C1894 C1898 1.368 . S
C1895 C1876 1.429 . S
C1895 C1889 1.429 . S
C1895 C1896 1.523 . S
C1896 C1877 1.368 . S
C1896 C1890 1.368 . S
C1896 C1895 1.523 . S
C1897 C1881 1.429 . S
C1897 C1893 1.429 . S
C1897 C1898 1.523 . S
C1898 C1882 1.368 . S
C1898 C1894 1.368 . S
C1898 C1897 1.523 . S
H1899 C1874 0.950 . S
H1900 C1876 0.950 . S
H1901 C1877 0.949 . S
H1902 C1879 0.950 . S
H1903 C1881 0.950 . S
C945 C64 1.553 . S
C950 C5 1.553 . S
C975 C123 1.553 . S
C980 C182 1.553 . S
C1005 C241 1.553 . S
C1010 C300 1.553 . S
C1035 C418 1.553 . S
C1040 C359 1.553 . S
C1065 C536 1.553 . S
C1070 C477 1.553 . S
C1095 C654 1.553 . S
C1100 C595 1.553 . S
C1125 C772 1.553 . S
C1130 C713 1.553 . S
C1155 C890 1.553 . S
C1160 C831 1.553 . S
C1185 C210 1.586 . S
C1190 C33 1.586 . S
C1215 C92 1.586 . S
C1220 C151 1.586 . S
C1245 C446 1.586 . S
C1250 C269 1.586 . S
C1275 C387 1.586 . S
C1280 C328 1.586 . S
C1305 C505 1.586 . S
C1310 C682 1.586 . S
C1335 C623 1.586 . S
C1340 C564 1.586 . S
C1365 C918 1.586 . S
C1370 C741 1.586 . S
C1395 C800 1.586 . S
C1400 C859 1.586 . S
C1425 C52 1.578 . S
C1430 C583 1.578 . S
C1455 C111 1.578 . S
C1460 C524 1.578 . S
C1485 C701 1.578 . S
C1490 C170 1.578 . S
C1515 C642 1.578 . S
C1520 C229 1.578 . S
C1545 C819 1.578 . S
C1550 C288 1.578 . S
C1575 C760 1.578 . S
C1580 C347 1.578 . S
C1605 C406 1.578 . S
C1610 C937 1.578 . S
C1635 C465 1.578 . S
C1640 C878 1.578 . S
C1665 C239 1.563 . S
C1670 C3 1.563 . S
C1695 C298 1.563 . S
C1700 C62 1.563 . S
C1725 C357 1.563 . S
C1730 C121 1.563 . S
C1755 C416 1.563 . S
C1760 C180 1.563 . S
C1785 C475 1.563 . S
C1790 C711 1.563 . S
C1815 C534 1.563 . S
C1820 C770 1.563 . S
C1845 C829 1.563 . S
C1850 C593 1.563 . S
C1875 C888 1.563 . S
C1880 C652 1.563 . S
