# Generated by pormake.
# Topology afw, (4)-cn, num edge types: 1
# Building blocks:
#     Node 0, Type 0, BuildingBlock: ICAMEG_clean_sbu_1, # of connection points: 4
#     Node 1, Type 0, BuildingBlock: ICAMEG_clean_sbu_1, # of connection points: 4
#     Node 2, Type 0, BuildingBlock: ICAMEG_clean_sbu_1, # of connection points: 4
#     Node 3, Type 0, BuildingBlock: ICAMEG_clean_sbu_1, # of connection points: 4
#     Node 4, Type 0, BuildingBlock: ICAMEG_clean_sbu_1, # of connection points: 4
#     Node 5, Type 0, BuildingBlock: ICAMEG_clean_sbu_1, # of connection points: 4
#     Node 6, Type 0, BuildingBlock: ICAMEG_clean_sbu_1, # of connection points: 4
#     Node 7, Type 0, BuildingBlock: ICAMEG_clean_sbu_1, # of connection points: 4
#     Node 8, Type 0, BuildingBlock: ICAMEG_clean_sbu_1, # of connection points: 4
#     Edge 9, Type (0, 0), BuildingBlock: TEMPAE_clean_linker_10, # of connection points: 2
#     Edge 10, Type (0, 0), BuildingBlock: TEMPAE_clean_linker_10, # of connection points: 2
#     Edge 11, Type (0, 0), BuildingBlock: TEMPAE_clean_linker_10, # of connection points: 2
#     Edge 12, Type (0, 0), BuildingBlock: TEMPAE_clean_linker_10, # of connection points: 2
#     Edge 13, Type (0, 0), BuildingBlock: TEMPAE_clean_linker_10, # of connection points: 2
#     Edge 14, Type (0, 0), BuildingBlock: TEMPAE_clean_linker_10, # of connection points: 2
#     Edge 15, Type (0, 0), BuildingBlock: TEMPAE_clean_linker_10, # of connection points: 2
#     Edge 16, Type (0, 0), BuildingBlock: TEMPAE_clean_linker_10, # of connection points: 2
#     Edge 17, Type (0, 0), BuildingBlock: TEMPAE_clean_linker_10, # of connection points: 2
#     Edge 18, Type (0, 0), BuildingBlock: TEMPAE_clean_linker_10, # of connection points: 2
#     Edge 19, Type (0, 0), BuildingBlock: TEMPAE_clean_linker_10, # of connection points: 2
#     Edge 20, Type (0, 0), BuildingBlock: TEMPAE_clean_linker_10, # of connection points: 2
#     Edge 21, Type (0, 0), BuildingBlock: TEMPAE_clean_linker_10, # of connection points: 2
#     Edge 22, Type (0, 0), BuildingBlock: TEMPAE_clean_linker_10, # of connection points: 2
#     Edge 23, Type (0, 0), BuildingBlock: TEMPAE_clean_linker_10, # of connection points: 2
#     Edge 24, Type (0, 0), BuildingBlock: TEMPAE_clean_linker_10, # of connection points: 2
#     Edge 25, Type (0, 0), BuildingBlock: TEMPAE_clean_linker_10, # of connection points: 2
#     Edge 26, Type (0, 0), BuildingBlock: TEMPAE_clean_linker_10, # of connection points: 2
# Relax obj value: 0.102
# Max RMSD: 0.139
# Mean RMSD: 0.139
data_MOF--net-afw--node1-ICAMEG_clean_sbu_1--edge1-TEMPAE_clean_linker_10
_symmetry_space_group_name_H-M    P1
_symmetry_Int_Tables_number       1
_symmetry_cell_setting            triclinic
loop_
_symmetry_equiv_pos_as_xyz
'x, y, z'
_cell_length_a     46.436737
_cell_length_b     46.441248
_cell_length_c     35.418998
_cell_angle_alpha  90.054489
_cell_angle_beta   90.033159
_cell_angle_gamma 120.00317
loop_
_atom_site_label
_atom_site_type_symbol
_atom_site_fract_x
_atom_site_fract_y
_atom_site_fract_z
_atom_type_partial_charge
Co0 Co 0.01979 0.20615 0.05668 0.0
Co1 Co 0.01893 0.20053 0.95857 0.0
O2 O 0.01941 0.22312 0.00584 0.0
C3 C 0.95758 0.19628 0.09125 0.0
O4 O 0.94863 0.16476 0.0949 0.0
C5 C 0.07483 0.2714 0.94846 0.0
O6 O 0.07257 0.27913 0.98352 0.0
O7 O 0.05265 0.18948 0.97843 0.0
O8 O 0.05505 0.19653 0.04136 0.0
H9 H 0.01123 0.10543 0.8827 0.0
H10 H 0.02576 0.27257 0.04984 0.0
O11 O 0.98423 0.21595 0.07352 0.0
H12 H 0.12929 0.29278 0.11201 0.0
H13 H 0.02046 0.20887 0.1991 0.0
H14 H 0.02227 0.14771 0.08607 0.0
H15 H 0.08623 0.23594 0.09432 0.0
H16 H 0.01958 0.22975 0.1354 0.0
O17 O 0.05584 0.24221 0.93585 0.0
H18 H 0.01241 0.13511 0.94095 0.0
H19 H 0.02349 0.21711 0.8764 0.0
H20 H 0.02335 0.12604 0.14926 0.0
H21 H 0.06787 0.32974 0.0678 0.0
H22 H 0.02239 0.15666 0.20634 0.0
H23 H 0.12016 0.34016 0.09895 0.0
O24 O 0.98528 0.15974 0.04194 0.0
H25 H 0.97072 0.27452 0.93255 0.0
H26 H 0.9544 0.16173 0.91804 0.0
H27 H 0.9121 0.17398 0.89321 0.0
H28 H 0.92021 0.23079 0.90017 0.0
H29 H 0.01207 0.26108 0.95743 0.0
H30 H 0.0228 0.18845 0.81749 0.0
H31 H 0.01648 0.13213 0.82039 0.0
O32 O 0.98249 0.15838 0.97861 0.0
C33 C 0.0646 0.18944 0.01091 0.0
C34 C 0.01393 0.12993 0.88106 0.0
C35 C 0.02047 0.17655 0.84447 0.0
N36 N 0.01787 0.17775 0.91212 0.0
C37 C 0.01453 0.14683 0.91395 0.0
C38 C 0.02096 0.1927 0.87795 0.0
C39 C 0.0169 0.14494 0.84611 0.0
C40 C 0.04829 0.27684 0.06376 0.0
N41 N 0.05351 0.25091 0.07098 0.0
C42 C 0.07212 0.3093 0.07369 0.0
C43 C 0.10148 0.31513 0.0911 0.0
C44 C 0.10664 0.28857 0.09838 0.0
C45 C 0.08226 0.25645 0.08805 0.0
C46 C 0.02086 0.19528 0.17445 0.0
C47 C 0.02185 0.16119 0.11076 0.0
C48 C 0.02031 0.20696 0.13829 0.0
N49 N 0.02075 0.1899 0.10699 0.0
C50 C 0.02247 0.1488 0.14647 0.0
C51 C 0.02194 0.16599 0.17849 0.0
C52 C 0.97267 0.14495 0.01076 0.0
C53 C 0.96699 0.24972 0.92913 0.0
C54 C 0.9581 0.18649 0.92133 0.0
C55 C 0.93407 0.19329 0.90712 0.0
C56 C 0.93864 0.22517 0.91102 0.0
N57 N 0.98605 0.21079 0.93873 0.0
C58 C 0.99049 0.242 0.94299 0.0
Co59 Co 0.83549 0.83352 0.96275 0.0
Co60 Co 0.82523 0.84705 0.05692 0.0
O61 O 0.8105 0.82079 0.01027 0.0
C62 C 0.77195 0.82927 0.93906 0.0
O63 O 0.77318 0.84646 0.96909 0.0
C64 C 0.81921 0.78299 0.08151 0.0
O65 O 0.83539 0.78312 0.05106 0.0
O66 O 0.87178 0.85534 0.05119 0.0
O67 O 0.87706 0.84562 0.99011 0.0
H68 H 0.90137 0.94629 0.13596 0.0
H69 H 0.77516 0.7673 0.97079 0.0
O70 O 0.79424 0.82145 0.93349 0.0
H71 H 0.86584 0.74469 0.94175 0.0
H72 H 0.85382 0.81957 0.82533 0.0
H73 H 0.90106 0.88914 0.93893 0.0
H74 H 0.87668 0.80231 0.94533 0.0
H75 H 0.82285 0.80398 0.88538 0.0
O76 O 0.81285 0.80628 0.0873 0.0
H77 H 0.88256 0.91261 0.07781 0.0
H78 H 0.79829 0.83722 0.13534 0.0
H79 H 0.93305 0.90544 0.8796 0.0
H80 H 0.7631 0.70925 0.96711 0.0
H81 H 0.90942 0.87056 0.82222 0.0
H82 H 0.80867 0.69766 0.95264 0.0
O83 O 0.84518 0.88061 0.96713 0.0
H84 H 0.70058 0.77751 0.05758 0.0
H85 H 0.79646 0.89049 0.07385 0.0
H86 H 0.7396 0.8815 0.07927 0.0
H87 H 0.69116 0.82464 0.07118 0.0
H88 H 0.7579 0.7877 0.05203 0.0
H89 H 0.81639 0.86993 0.19425 0.0
H90 H 0.86821 0.92495 0.19476 0.0
O91 O 0.83747 0.88804 0.02829 0.0
C92 C 0.88857 0.854 0.02335 0.0
C93 C 0.87874 0.92236 0.1361 0.0
C94 C 0.83107 0.87948 0.16882 0.0
N95 N 0.83934 0.87299 0.10314 0.0
C96 C 0.86792 0.90319 0.10323 0.0
C97 C 0.82101 0.86101 0.13541 0.0
C98 C 0.86013 0.91037 0.16908 0.0
C99 C 0.79506 0.76243 0.96424 0.0
N100 N 0.8266 0.78815 0.95832 0.0
C101 C 0.78811 0.72952 0.96229 0.0
C102 C 0.8137 0.72304 0.95421 0.0
C103 C 0.84578 0.74941 0.94813 0.0
C104 C 0.85181 0.782 0.95035 0.0
C105 C 0.86437 0.83499 0.85013 0.0
C106 C 0.89064 0.87377 0.91413 0.0
C107 C 0.84688 0.82637 0.88417 0.0
N108 N 0.86011 0.84564 0.91565 0.0
C109 C 0.90886 0.88315 0.88059 0.0
C110 C 0.89557 0.86358 0.84841 0.0
C111 C 0.8449 0.89836 0.99454 0.0
C112 C 0.72148 0.80239 0.06122 0.0
C113 C 0.77552 0.86572 0.0701 0.0
C114 C 0.74337 0.86076 0.07332 0.0
C115 C 0.71621 0.82885 0.06881 0.0
N116 N 0.78048 0.83964 0.06266 0.0
C117 C 0.75398 0.80829 0.05822 0.0
Co118 Co 0.19167 0.00732 0.07483 0.0
Co119 Co 0.20049 0.02915 0.98015 0.0
O120 O 0.2156 0.01758 0.02652 0.0
C121 C 0.25713 0.06649 0.09403 0.0
O122 O 0.25858 0.07893 0.06035 0.0
C123 C 0.20074 0.96751 0.9566 0.0
O124 O 0.18764 0.95373 0.98918 0.0
O125 O 0.153 0.99373 0.98891 0.0
O126 O 0.14979 0.97662 0.04886 0.0
H127 H 0.12639 0.05732 0.90442 0.0
H128 H 0.25225 0.0018 0.06771 0.0
O129 O 0.2331 0.03807 0.103 0.0
H130 H 0.16257 0.88924 0.10114 0.0
H131 H 0.17613 0.98074 0.21375 0.0
H132 H 0.12635 0.99783 0.09902 0.0
H133 H 0.15111 0.93547 0.09502 0.0
H134 H 0.20602 0.99391 0.15304 0.0
O135 O 0.20792 0.99724 0.94966 0.0
H136 H 0.14561 0.04198 0.96185 0.0
H137 H 0.22413 0.04212 0.90021 0.0
H138 H 0.09544 0.98431 0.15904 0.0
H139 H 0.26492 0.95636 0.07385 0.0
H140 H 0.12036 0.97572 0.21699 0.0
H141 H 0.21985 0.89957 0.09058 0.0
O142 O 0.18165 0.0444 0.06886 0.0
H143 H 0.32372 0.07447 0.97125 0.0
H144 H 0.23384 0.10133 0.96084 0.0
H145 H 0.292 0.14555 0.95124 0.0
H146 H 0.33741 0.1322 0.95635 0.0
H147 H 0.26521 0.03107 0.98099 0.0
H148 H 0.20548 0.05702 0.84198 0.0
H149 H 0.15636 0.06487 0.84389 0.0
O150 O 0.19304 0.06134 0.00855 0.0
C151 C 0.137 0.97491 0.01664 0.0
C152 C 0.14784 0.05398 0.90322 0.0
C153 C 0.1922 0.05377 0.86817 0.0
N154 N 0.186 0.0412 0.93442 0.0
C155 C 0.15889 0.04536 0.93567 0.0
C156 C 0.20257 0.0452 0.90121 0.0
C157 C 0.16465 0.0582 0.86927 0.0
C158 C 0.23259 0.97721 0.07527 0.0
N159 N 0.20101 0.97131 0.08109 0.0
C160 C 0.23987 0.95156 0.07859 0.0
C161 C 0.21456 0.91969 0.08793 0.0
C162 C 0.18241 0.91387 0.09384 0.0
C163 C 0.17605 0.94012 0.09022 0.0
C164 C 0.165 0.9844 0.1887 0.0
C165 C 0.13729 0.99394 0.12405 0.0
C166 C 0.18185 0.99196 0.15425 0.0
N167 N 0.16789 0.99651 0.12246 0.0
C168 C 0.1197 0.98637 0.15798 0.0
C169 C 0.13371 0.98158 0.19049 0.0
C170 C 0.18447 0.06384 0.04186 0.0
C171 C 0.30414 0.08057 0.96886 0.0
C172 C 0.25347 0.09536 0.96326 0.0
C173 C 0.28635 0.12048 0.9577 0.0
C174 C 0.31181 0.11297 0.96055 0.0
N175 N 0.24615 0.06363 0.97134 0.0
C176 C 0.27097 0.05608 0.97421 0.0
Co177 Co 0.6779 0.53265 0.29932 0.0
Co178 Co 0.69586 0.54615 0.39459 0.0
O179 O 0.68514 0.5582 0.34586 0.0
C180 C 0.73154 0.59941 0.27571 0.0
O181 O 0.74859 0.59988 0.30554 0.0
C182 C 0.63555 0.54947 0.41591 0.0
O183 O 0.61909 0.52872 0.38837 0.0
O184 O 0.65812 0.49943 0.38989 0.0
O185 O 0.65328 0.49002 0.32726 0.0
H186 H 0.71696 0.47435 0.48336 0.0
H187 H 0.65969 0.58537 0.30241 0.0
O188 O 0.70258 0.57481 0.26985 0.0
H189 H 0.5552 0.48172 0.27444 0.0
H190 H 0.6508 0.50919 0.16107 0.0
H191 H 0.68073 0.47238 0.27764 0.0
H192 H 0.60781 0.48131 0.28179 0.0
H193 H 0.65958 0.54004 0.22064 0.0
O194 O 0.66624 0.55939 0.42098 0.0
H195 H 0.70381 0.49024 0.42207 0.0
H196 H 0.71018 0.57661 0.47156 0.0
H197 H 0.67191 0.44057 0.21884 0.0
H198 H 0.60767 0.58696 0.295 0.0
H199 H 0.65684 0.45897 0.15993 0.0
H200 H 0.55493 0.53485 0.28098 0.0
O201 O 0.71977 0.53112 0.30678 0.0
H202 H 0.7495 0.67046 0.38683 0.0
H203 H 0.76738 0.57685 0.41631 0.0
H204 H 0.81455 0.63425 0.42026 0.0
H205 H 0.80572 0.68156 0.40551 0.0
H206 H 0.70314 0.6126 0.38287 0.0
H207 H 0.72299 0.56143 0.53348 0.0
H208 H 0.72661 0.51005 0.53963 0.0
O209 O 0.72607 0.53306 0.36988 0.0
C210 C 0.64615 0.48025 0.36131 0.0
C211 C 0.71553 0.49685 0.48102 0.0
C212 C 0.71887 0.54569 0.50916 0.0
N213 N 0.70642 0.53442 0.44317 0.0
C214 C 0.70819 0.50602 0.44636 0.0
C215 C 0.7115 0.5541 0.47405 0.0
C216 C 0.72091 0.51687 0.51259 0.0
C217 C 0.63688 0.56264 0.29601 0.0
N218 N 0.63682 0.53333 0.29231 0.0
C219 C 0.60749 0.56367 0.29197 0.0
C220 C 0.5779 0.53442 0.28416 0.0
C221 C 0.57803 0.5046 0.2805 0.0
C222 C 0.60788 0.50451 0.28476 0.0
C223 C 0.65732 0.50089 0.18654 0.0
C224 C 0.67399 0.4804 0.25223 0.0
C225 C 0.66241 0.51831 0.22035 0.0
N226 N 0.67052 0.5079 0.25269 0.0
C227 C 0.66911 0.46235 0.21897 0.0
C228 C 0.66069 0.47271 0.18593 0.0
C229 C 0.7342 0.52931 0.33665 0.0
C230 C 0.75367 0.65006 0.39331 0.0
C231 C 0.76345 0.59727 0.40951 0.0
C232 C 0.79019 0.62974 0.41199 0.0
C233 C 0.78521 0.65627 0.40375 0.0
N234 N 0.73261 0.59138 0.39918 0.0
C235 C 0.72751 0.61726 0.39119 0.0
Co236 Co 0.49573 0.17727 0.31965 0.0
Co237 Co 0.5074 0.17067 0.4136 0.0
O238 O 0.48008 0.1535 0.36783 0.0
C239 C 0.43646 0.17782 0.29049 0.0
O240 O 0.45408 0.21043 0.29144 0.0
C241 C 0.47243 0.09553 0.42059 0.0
O242 O 0.45734 0.091 0.38799 0.0
O243 O 0.54484 0.17001 0.38713 0.0
O244 O 0.54337 0.19427 0.3332 0.0
H245 H 0.61266 0.24649 0.48399 0.0
H246 H 0.44443 0.10581 0.31718 0.0
O247 O 0.44839 0.16058 0.30421 0.0
H248 H 0.53988 0.11435 0.24659 0.0
H249 H 0.49394 0.19095 0.1785 0.0
H250 H 0.54862 0.24506 0.29817 0.0
H251 H 0.54236 0.16429 0.27413 0.0
H252 H 0.4752 0.16058 0.23872 0.0
O253 O 0.49228 0.12464 0.43295 0.0
H254 H 0.57659 0.2246 0.42791 0.0
H255 H 0.49789 0.15275 0.4955 0.0
H256 H 0.56817 0.2763 0.2386 0.0
H257 H 0.44073 0.05529 0.28962 0.0
H258 H 0.54077 0.24925 0.17818 0.0
H259 H 0.48874 0.05936 0.25412 0.0
O260 O 0.49842 0.21734 0.34348 0.0
H261 H 0.38755 0.1254 0.45071 0.0
H262 H 0.50175 0.2201 0.46199 0.0
H263 H 0.45592 0.22245 0.49402 0.0
H264 H 0.39832 0.17477 0.48873 0.0
H265 H 0.43392 0.12427 0.41875 0.0
H266 H 0.53325 0.17368 0.55226 0.0
H267 H 0.59103 0.22099 0.54675 0.0
O268 O 0.52407 0.21766 0.3971 0.0
C269 C 0.55837 0.18569 0.35683 0.0
C270 C 0.58748 0.22594 0.48678 0.0
C271 C 0.54293 0.18504 0.52509 0.0
N272 N 0.53506 0.1876 0.45841 0.0
C273 C 0.5669 0.21348 0.45513 0.0
C274 C 0.52306 0.17324 0.49281 0.0
C275 C 0.57534 0.2116 0.52198 0.0
C276 C 0.46537 0.10782 0.30162 0.0
N277 N 0.49357 0.13799 0.29738 0.0
C278 C 0.46315 0.07911 0.28614 0.0
C279 C 0.4901 0.0814 0.26626 0.0
C280 C 0.51881 0.11224 0.26206 0.0
C281 C 0.52013 0.14042 0.27791 0.0
C282 C 0.5061 0.20301 0.20464 0.0
C283 C 0.53657 0.23307 0.27203 0.0
C284 C 0.4956 0.18593 0.23884 0.0
N285 N 0.51079 0.201 0.27201 0.0
C286 C 0.54776 0.2509 0.23836 0.0
C287 C 0.53237 0.23571 0.20448 0.0
C288 C 0.51533 0.23211 0.37281 0.0
C289 C 0.41259 0.1462 0.45355 0.0
C290 C 0.4768 0.19915 0.45957 0.0
C291 C 0.45093 0.20067 0.47779 0.0
C292 C 0.41863 0.17393 0.4748 0.0
N293 N 0.4708 0.17165 0.43919 0.0
C294 C 0.43909 0.14557 0.4357 0.0
Co295 Co 0.86469 0.35812 0.293 0.0
Co296 Co 0.86452 0.35098 0.39092 0.0
O297 O 0.88478 0.35493 0.34081 0.0
C298 C 0.87439 0.30001 0.27933 0.0
O299 O 0.86734 0.2909 0.31475 0.0
C300 C 0.93711 0.40311 0.40184 0.0
O301 O 0.94448 0.40249 0.36622 0.0
O302 O 0.85575 0.38797 0.37962 0.0
O303 O 0.85374 0.3903 0.31632 0.0
H304 H 0.77656 0.34339 0.47968 0.0
H305 H 0.93302 0.36842 0.29131 0.0
O306 O 0.87515 0.32616 0.26735 0.0
H307 H 0.94355 0.47344 0.24523 0.0
H308 H 0.85821 0.36686 0.1518 0.0
H309 H 0.80346 0.35972 0.27349 0.0
H310 H 0.8888 0.42649 0.26306 0.0
H311 H 0.88355 0.36338 0.21156 0.0
O312 O 0.9079 0.3842 0.4143 0.0
H313 H 0.80276 0.34842 0.41767 0.0
H314 H 0.88344 0.3453 0.47006 0.0
H315 H 0.77743 0.3635 0.2144 0.0
H316 H 0.98822 0.41455 0.27313 0.0
H317 H 0.80482 0.36707 0.15298 0.0
H318 H 0.99376 0.46759 0.25008 0.0
O319 O 0.82011 0.32018 0.30732 0.0
H320 H 0.93294 0.29441 0.39614 0.0
H321 H 0.82342 0.28288 0.42248 0.0
H322 H 0.83264 0.23606 0.43599 0.0
H323 H 0.88778 0.24169 0.42297 0.0
H324 H 0.92255 0.34036 0.38263 0.0
H325 H 0.8583 0.34061 0.53269 0.0
H326 H 0.80438 0.33945 0.53778 0.0
O327 O 0.82033 0.31842 0.37056 0.0
C328 C 0.85161 0.40007 0.34918 0.0
C329 C 0.8 0.34374 0.47783 0.0
C330 C 0.84589 0.34221 0.50758 0.0
N331 N 0.8444 0.34678 0.44016 0.0
C332 C 0.8149 0.34649 0.44278 0.0
C333 C 0.86003 0.34493 0.47203 0.0
C334 C 0.81563 0.34156 0.51041 0.0
C335 C 0.9352 0.39133 0.28099 0.0
N336 N 0.90775 0.3948 0.2784 0.0
C337 C 0.96654 0.4174 0.27088 0.0
C338 C 0.96963 0.44717 0.258 0.0
C339 C 0.94149 0.45049 0.25533 0.0
C340 C 0.91057 0.42388 0.26569 0.0
C341 C 0.84606 0.36538 0.17838 0.0
C342 C 0.81566 0.3615 0.24689 0.0
C343 C 0.86026 0.36333 0.21232 0.0
N344 N 0.84511 0.36156 0.24602 0.0
C345 C 0.80074 0.36353 0.21352 0.0
C346 C 0.81611 0.3655 0.17907 0.0
C347 C 0.80588 0.30825 0.33886 0.0
C348 C 0.90889 0.29174 0.40222 0.0
C349 C 0.84751 0.28558 0.41672 0.0
C350 C 0.85258 0.25896 0.42448 0.0
C351 C 0.88352 0.26214 0.41718 0.0
N352 N 0.87261 0.31469 0.40235 0.0
C353 C 0.90293 0.31785 0.39488 0.0
Co354 Co 0.34778 0.86769 0.74201 0.0
Co355 Co 0.33186 0.85643 0.6455 0.0
O356 O 0.33975 0.88184 0.69263 0.0
C357 C 0.28665 0.87083 0.76252 0.0
O358 O 0.26972 0.85011 0.73516 0.0
C359 C 0.38787 0.92476 0.62659 0.0
O360 O 0.39591 0.93133 0.66232 0.0
O361 O 0.36897 0.84748 0.65643 0.0
O362 O 0.37887 0.85545 0.71875 0.0
H363 H 0.31338 0.75751 0.56883 0.0
H364 H 0.35529 0.93466 0.73435 0.0
O365 O 0.31725 0.88028 0.76737 0.0
H366 H 0.46521 0.95444 0.77542 0.0
H367 H 0.3686 0.87791 0.88235 0.0
H368 H 0.35448 0.81078 0.76858 0.0
H369 H 0.41854 0.89733 0.76652 0.0
H370 H 0.35865 0.89536 0.8203 0.0
O371 O 0.36347 0.89699 0.61636 0.0
H372 H 0.32397 0.79061 0.62693 0.0
H373 H 0.32186 0.86765 0.56458 0.0
H374 H 0.36474 0.79262 0.83001 0.0
H375 H 0.4011 0.9922 0.74355 0.0
H376 H 0.37185 0.82627 0.88748 0.0
H377 H 0.4566 0.00238 0.76403 0.0
O378 O 0.31031 0.82093 0.73455 0.0
H379 H 0.279 0.9277 0.63466 0.0
H380 H 0.26142 0.81439 0.6205 0.0
H381 H 0.21499 0.82452 0.60798 0.0
H382 H 0.22367 0.88156 0.61493 0.0
H383 H 0.32462 0.91635 0.6473 0.0
H384 H 0.31163 0.83553 0.50573 0.0
H385 H 0.30718 0.77997 0.50764 0.0
O386 O 0.30025 0.81529 0.67208 0.0
C387 C 0.38466 0.84792 0.68624 0.0
C388 C 0.31522 0.78166 0.56763 0.0
C389 C 0.31428 0.82547 0.53222 0.0
N390 N 0.32342 0.83099 0.59922 0.0
C391 C 0.32114 0.8005 0.60046 0.0
C392 C 0.32019 0.8436 0.56563 0.0
C393 C 0.31177 0.79429 0.53331 0.0
C394 C 0.37929 0.93889 0.74357 0.0
N395 N 0.38429 0.91266 0.74968 0.0
C396 C 0.40517 0.97152 0.74859 0.0
C397 C 0.43631 0.97722 0.76003 0.0
C398 C 0.44118 0.95034 0.76635 0.0
C399 C 0.41473 0.91805 0.76102 0.0
C400 C 0.36553 0.86303 0.85752 0.0
C401 C 0.35766 0.82563 0.79341 0.0
C402 C 0.35975 0.87271 0.82231 0.0
N403 N 0.35601 0.85413 0.79079 0.0
C404 C 0.36341 0.81519 0.82814 0.0
C405 C 0.36738 0.83406 0.86037 0.0
C406 C 0.29442 0.80404 0.70556 0.0
C407 C 0.27493 0.90275 0.63144 0.0
C408 C 0.26534 0.83922 0.62379 0.0
C409 C 0.23898 0.84484 0.61654 0.0
C410 C 0.24388 0.87685 0.62042 0.0
N411 N 0.29575 0.86478 0.63448 0.0
C412 C 0.30071 0.89621 0.63843 0.0
Co413 Co 0.16685 0.49907 0.62996 0.0
Co414 Co 0.15991 0.501 0.72691 0.0
O415 O 0.14348 0.47942 0.67757 0.0
C416 C 0.0972 0.48669 0.61716 0.0
O417 O 0.08892 0.47824 0.65252 0.0
C418 C 0.15228 0.43281 0.73608 0.0
O419 O 0.14542 0.42577 0.70017 0.0
O420 O 0.20758 0.51745 0.71274 0.0
O421 O 0.20771 0.50349 0.65217 0.0
H422 H 0.23338 0.59702 0.81149 0.0
H423 H 0.10426 0.43312 0.62947 0.0
O424 O 0.12625 0.49529 0.60533 0.0
H425 H 0.18972 0.41296 0.57355 0.0
H426 H 0.18105 0.50874 0.48863 0.0
H427 H 0.23364 0.5555 0.6116 0.0
H428 H 0.20405 0.46911 0.59484 0.0
H429 H 0.15101 0.48411 0.54794 0.0
O430 O 0.15799 0.46056 0.74957 0.0
H431 H 0.21252 0.56826 0.75056 0.0
H432 H 0.14173 0.48068 0.80739 0.0
H433 H 0.26472 0.58061 0.55299 0.0
H434 H 0.08877 0.37682 0.608 0.0
H435 H 0.23839 0.55724 0.49091 0.0
H436 H 0.13167 0.36635 0.57986 0.0
O437 O 0.17977 0.5454 0.64682 0.0
H438 H 0.03843 0.41599 0.7404 0.0
H439 H 0.12446 0.53286 0.76191 0.0
H440 H 0.06646 0.51395 0.78 0.0
H441 H 0.02298 0.45507 0.76946 0.0
H442 H 0.09651 0.43603 0.7222 0.0
H443 H 0.16214 0.50838 0.86895 0.0
H444 H 0.20817 0.56702 0.87127 0.0
O445 O 0.16258 0.54173 0.70664 0.0
C446 C 0.22208 0.5143 0.6837 0.0
C447 C 0.21326 0.57149 0.81086 0.0
C448 C 0.1733 0.52172 0.8431 0.0
N449 N 0.17579 0.5229 0.77537 0.0
C450 C 0.20126 0.5551 0.77643 0.0
C451 C 0.16192 0.50614 0.80815 0.0
C452 C 0.19912 0.55463 0.84438 0.0
C453 C 0.12298 0.42906 0.61669 0.0
N454 N 0.1549 0.45466 0.61286 0.0
C455 C 0.1141 0.39697 0.60484 0.0
C456 C 0.13819 0.3911 0.58914 0.0
C457 C 0.17076 0.41723 0.58561 0.0
C458 C 0.17873 0.44898 0.59779 0.0
C459 C 0.1928 0.51913 0.5155 0.0
C460 C 0.22208 0.54504 0.58472 0.0
C461 C 0.17587 0.50536 0.54919 0.0
N462 N 0.19061 0.51825 0.58324 0.0
C463 C 0.23977 0.55943 0.55161 0.0
C464 C 0.22498 0.54633 0.5168 0.0
C465 C 0.17439 0.55788 0.6763 0.0
C466 C 0.05718 0.44165 0.74538 0.0
C467 C 0.10571 0.50722 0.75712 0.0
C468 C 0.0729 0.49664 0.7675 0.0
C469 C 0.04852 0.46361 0.7616 0.0
N470 N 0.1141 0.48548 0.74149 0.0
C471 C 0.09025 0.45311 0.73537 0.0
Co472 Co 0.52356 0.67354 0.72497 0.0
Co473 Co 0.53206 0.6962 0.63054 0.0
O474 O 0.54778 0.68547 0.67695 0.0
C475 C 0.58674 0.73388 0.74763 0.0
O476 O 0.5844 0.74964 0.71807 0.0
C477 C 0.5383 0.63812 0.60656 0.0
O478 O 0.52395 0.62301 0.63817 0.0
O479 O 0.48574 0.65791 0.63746 0.0
O480 O 0.48175 0.64323 0.69852 0.0
H481 H 0.45408 0.7176 0.55293 0.0
H482 H 0.5844 0.66865 0.71609 0.0
O483 O 0.56514 0.70356 0.7533 0.0
H484 H 0.49533 0.55517 0.74731 0.0
H485 H 0.50787 0.64328 0.86296 0.0
H486 H 0.45795 0.6628 0.74994 0.0
H487 H 0.48352 0.60129 0.74346 0.0
H488 H 0.53787 0.65819 0.80228 0.0
O489 O 0.54386 0.6674 0.60003 0.0
H490 H 0.47414 0.70379 0.6108 0.0
H491 H 0.55754 0.71232 0.5515 0.0
H492 H 0.42693 0.64756 0.80993 0.0
H493 H 0.59742 0.62332 0.71998 0.0
H494 H 0.45191 0.63773 0.86702 0.0
H495 H 0.55266 0.56608 0.73556 0.0
O496 O 0.513 0.71036 0.72047 0.0
H497 H 0.65667 0.75158 0.62679 0.0
H498 H 0.56029 0.76811 0.61251 0.0
H499 H 0.61697 0.816 0.60553 0.0
H500 H 0.66566 0.80786 0.61261 0.0
H501 H 0.59953 0.70445 0.63392 0.0
H502 H 0.53818 0.72585 0.49286 0.0
H503 H 0.48617 0.7287 0.49338 0.0
O504 O 0.52016 0.72521 0.65925 0.0
C505 C 0.46962 0.63978 0.66557 0.0
C506 C 0.47679 0.71646 0.55234 0.0
C507 C 0.52397 0.72104 0.51862 0.0
N508 N 0.51699 0.70727 0.58456 0.0
C509 C 0.48831 0.7087 0.58504 0.0
C510 C 0.53473 0.71323 0.55188 0.0
C511 C 0.4948 0.72266 0.51894 0.0
C512 C 0.56485 0.64383 0.72313 0.0
N513 N 0.53323 0.63761 0.72953 0.0
C514 C 0.57235 0.61826 0.72519 0.0
C515 C 0.54721 0.58614 0.73389 0.0
C516 C 0.51504 0.58 0.74045 0.0
C517 C 0.50846 0.60618 0.73809 0.0
C518 C 0.49673 0.64752 0.83829 0.0
C519 C 0.46895 0.65845 0.77461 0.0
C520 C 0.51367 0.65612 0.80389 0.0
N521 N 0.49969 0.66137 0.77257 0.0
C522 C 0.45128 0.64988 0.80853 0.0
C523 C 0.46533 0.64439 0.84054 0.0
C524 C 0.51279 0.72811 0.69305 0.0
C525 C 0.63566 0.75544 0.6236 0.0
C526 C 0.58135 0.76442 0.61585 0.0
C527 C 0.61338 0.7916 0.61174 0.0
C528 C 0.64069 0.78701 0.61568 0.0
N529 N 0.57662 0.73353 0.6236 0.0
C530 C 0.60326 0.72883 0.6275 0.0
C531 C 0.19023 0.11865 0.02738 0.0
C532 C 0.17373 0.08848 0.04707 0.0
C533 C 0.17594 0.13883 0.02334 0.0
C534 C 0.14414 0.12823 0.03884 0.0
C535 C 0.12832 0.09882 0.06084 0.0
C536 C 0.14352 0.07936 0.06498 0.0
C537 C 0.19394 0.17036 1.00044 0.0
C538 C 0.09429 0.08661 0.07764 0.0
C539 C 0.10951 0.18661 0.04642 0.0
C540 C 0.08855 0.17744 0.01474 0.0
C541 C 0.1286 0.17159 0.05401 0.0
C542 C 0.12631 0.14643 0.02962 0.0
C543 C 0.10617 0.13791 0.99679 0.0
C544 C 0.08772 0.15375 0.98956 0.0
C545 C 0.15034 0.18186 0.0888 0.0
C546 C 0.10301 0.11104 0.97015 0.0
H547 H 0.21366 0.12568 0.01356 0.0
H548 H 0.13054 0.05578 0.07971 0.0
H549 H 0.18094 0.16696 0.9731 0.0
H550 H 0.19383 0.19132 0.01537 0.0
H551 H 0.22011 0.17724 0.99454 0.0
H552 H 0.08665 0.06488 0.09651 0.0
H553 H 0.09374 0.10674 0.09393 0.0
H554 H 0.07569 0.07927 0.05461 0.0
H555 H 0.11044 0.20508 0.06586 0.0
H556 H 0.07137 0.14636 0.96523 0.0
H557 H 0.176 0.18806 0.08125 0.0
H558 H 0.14062 0.16088 0.10906 0.0
H559 H 0.15141 0.20365 0.10316 0.0
H560 H 0.1279 0.11686 0.95985 0.0
H561 H 0.08702 0.108 0.94539 0.0
H562 H 0.0922 0.08697 0.98536 0.0
C563 C 0.8864 0.95376 0.96923 0.0
C564 C 0.85677 0.93393 0.98881 0.0
C565 C 0.9026 0.98857 0.97201 0.0
C566 C 0.88839 0.00363 0.99434 0.0
C567 C 0.85719 0.98366 0.01178 0.0
C568 C 0.84189 0.949 0.00905 0.0
C569 C 0.93594 0.00908 0.95312 0.0
C570 C 0.84086 0.99877 0.03508 0.0
C571 C 0.94871 0.08767 0.03712 0.0
C572 C 0.9473 0.10933 0.0107 0.0
C573 C 0.92904 0.05307 0.03259 0.0
C574 C 0.90713 0.04006 1.00129 0.0
C575 C 0.90416 0.06189 0.97592 0.0
C576 C 0.92446 0.09627 0.98078 0.0
C577 C 0.93296 0.03048 0.06018 0.0
C578 C 0.88055 0.04899 0.94276 0.0
H579 H 0.89812 0.94207 0.95404 0.0
H580 H 0.81886 0.93358 0.02407 0.0
H581 H 0.93606 0.02901 0.93577 0.0
H582 H 0.95555 0.02134 0.97498 0.0
H583 H 0.9425 0.99378 0.93479 0.0
H584 H 0.81498 0.98013 0.04307 0.0
H585 H 0.85542 0.00964 0.06129 0.0
H586 H 0.84046 0.01922 0.01934 0.0
H587 H 0.96655 0.09768 0.06004 0.0
H588 H 0.92312 0.11301 0.96047 0.0
H589 H 0.94292 0.01629 0.04528 0.0
H590 H 0.90844 0.01213 0.07206 0.0
H591 H 0.95 0.04448 0.08383 0.0
H592 H 0.88898 0.03657 0.92242 0.0
H593 H 0.87898 0.06917 0.92777 0.0
H594 H 0.85527 0.03016 0.95228 0.0
C595 C 0.93954 0.85328 0.00359 0.0
C596 C 0.92435 0.86562 0.02788 0.0
C597 C 0.97418 0.86843 1.00124 0.0
C598 C 0.99419 0.89673 0.02366 0.0
C599 C 0.97907 0.90828 0.04975 0.0
C600 C 0.9442 0.89242 0.0517 0.0
C601 C 0.98932 0.85503 0.97353 0.0
C602 C -0.00032 0.93837 0.07421 0.0
C603 C 0.08528 0.92493 0.03862 0.0
C604 C 0.10081 0.95182 0.01351 0.0
C605 C 0.0506 0.90631 0.04159 0.0
C606 C 0.0309 0.9148 0.01896 0.0
C607 C 0.04629 0.94091 0.99227 0.0
C608 C 0.08116 0.95906 0.98972 0.0
C609 C 0.03514 0.87837 0.06998 0.0
C610 C 0.02599 0.95057 0.96755 0.0
H611 H 0.92427 0.83238 0.98534 0.0
H612 H 0.93258 0.90223 0.07023 0.0
H613 H 0.00234 0.87357 0.95089 0.0
H614 H 0.0081 0.85073 0.98782 0.0
H615 H 0.97035 0.83138 0.96026 0.0
H616 H 0.98422 0.94307 0.09447 0.0
H617 H 0.0184 0.93518 0.09029 0.0
H618 H 0.01346 0.96067 0.05611 0.0
H619 H 0.10033 0.91904 0.05692 0.0
H620 H 0.093 0.97999 0.97055 0.0
H621 H 0.01616 0.85512 0.05611 0.0
H622 H 0.02228 0.88457 0.0922 0.0
H623 H 0.05388 0.87362 0.08373 0.0
H624 H 0.00718 0.92865 0.95153 0.0
H625 H 0.04164 0.97053 0.9472 0.0
H626 H 0.01234 0.95941 0.98542 0.0
C627 C 0.81236 0.41796 0.37135 0.0
C628 C 0.84109 0.42502 0.35131 0.0
C629 C 0.79824 0.43838 0.36778 0.0
C630 C 0.81386 0.46697 0.34446 0.0
C631 C 0.84398 0.47516 0.3259 0.0
C632 C 0.85693 0.4537 0.32902 0.0
C633 C 0.76571 0.42842 0.38743 0.0
C634 C 0.86194 0.50599 0.30188 0.0
C635 C 0.75645 0.49602 0.30591 0.0
C636 C 0.75934 0.51876 0.33375 0.0
C637 C 0.77503 0.47977 0.30822 0.0
C638 C 0.79775 0.48733 0.33843 0.0
C639 C 0.80285 0.5124 0.36467 0.0
C640 C 0.78328 0.52751 0.36229 0.0
C641 C 0.76855 0.45283 0.27993 0.0
C642 C 0.82761 0.52196 0.39654 0.0
H643 H 0.79986 0.39542 0.38799 0.0
H644 H 0.8792 0.45903 0.31356 0.0
H645 H 0.76831 0.44889 0.40588 0.0
H646 H 0.74629 0.4237 0.36614 0.0
H647 H 0.75705 0.40569 0.40488 0.0
H648 H 0.88674 0.51057 0.29262 0.0
H649 H 0.84691 0.50344 0.27643 0.0
H650 H 0.86523 0.52806 0.31773 0.0
H651 H 0.73811 0.48921 0.28375 0.0
H652 H 0.78594 0.54536 0.38364 0.0
H653 H 0.75693 0.4284 0.29444 0.0
H654 H 0.79223 0.45702 0.26744 0.0
H655 H 0.75179 0.45151 0.25675 0.0
H656 H 0.81815 0.50162 0.41764 0.0
H657 H 0.83206 0.54507 0.41104 0.0
H658 H 0.85168 0.52562 0.38589 0.0
C659 C 0.51741 0.2854 0.3547 0.0
C660 C 0.52911 0.26842 0.37691 0.0
C661 C 0.53291 0.32026 0.35594 0.0
C662 C 0.56118 0.33847 0.37928 0.0
C663 C 0.57211 0.32136 0.40299 0.0
C664 C 0.55574 0.28659 0.40181 0.0
C665 C 0.52014 0.33766 0.33081 0.0
C666 C 0.60261 0.33977 0.42761 0.0
C667 C 0.62766 0.42211 0.34313 0.0
C668 C 0.6243 0.44425 0.36712 0.0
C669 C 0.60719 0.38774 0.34685 0.0
C670 C 0.58218 0.37507 0.3749 0.0
C671 C 0.57843 0.39727 0.39918 0.0
C672 C 0.59994 0.43176 0.39533 0.0
C673 C 0.61272 0.365 0.32102 0.0
C674 C 0.55161 0.38457 0.42892 0.0
H675 H 0.49663 0.27156 0.33571 0.0
H676 H 0.56501 0.27378 0.4192 0.0
H677 H 0.51875 0.35756 0.34664 0.0
H678 H 0.53758 0.34961 0.30694 0.0
H679 H 0.49517 0.32016 0.31906 0.0
H680 H 0.60577 0.32289 0.44722 0.0
H681 H 0.62504 0.35241 0.40948 0.0
H682 H 0.60133 0.35925 0.44442 0.0
H683 H 0.64684 0.4317 0.32172 0.0
H684 H 0.59724 0.44894 0.41373 0.0
H685 H 0.58982 0.34901 0.30458 0.0
H686 H 0.61834 0.34833 0.33799 0.0
H687 H 0.63349 0.37897 0.3009 0.0
H688 H 0.52693 0.36886 0.41557 0.0
H689 H 0.55124 0.40508 0.44465 0.0
H690 H 0.5554 0.36866 0.44934 0.0
C691 C 0.60907 0.17981 0.35927 0.0
C692 C 0.59415 0.19883 0.35097 0.0
C693 C 0.64341 0.193 0.35392 0.0
C694 C 0.66317 0.2263 0.34151 0.0
C695 C 0.64798 0.2454 0.33286 0.0
C696 C 0.61359 0.23122 0.33712 0.0
C697 C 0.65862 0.17159 0.36223 0.0
C698 C 0.6682 0.28136 0.32089 0.0
C699 C 0.75229 0.27772 0.37372 0.0
C700 C 0.76988 0.28338 0.3397 0.0
C701 C 0.71765 0.25818 0.37488 0.0
C702 C 0.70003 0.24268 0.34146 0.0
C703 C 0.71767 0.24616 0.30755 0.0
C704 C 0.75244 0.26699 0.30688 0.0
C705 C 0.69985 0.25602 0.41142 0.0
C706 C 0.69973 0.22898 0.27168 0.0
H707 H 0.59387 0.15463 0.3696 0.0
H708 H 0.60201 0.246 0.331 0.0
H709 H 0.67528 0.17328 0.33883 0.0
H710 H 0.67399 0.18061 0.38819 0.0
H711 H 0.63942 0.14509 0.3664 0.0
H712 H 0.65239 0.29245 0.31443 0.0
H713 H 0.68582 0.29615 0.34374 0.0
H714 H 0.68317 0.28362 0.29553 0.0
H715 H 0.76537 0.28989 0.3994 0.0
H716 H 0.76582 0.27085 0.28059 0.0
H717 H 0.68299 0.2297 0.41925 0.0
H718 H 0.68428 0.26778 0.40773 0.0
H719 H 0.71735 0.26861 0.4352 0.0
H720 H 0.68076 0.20271 0.27746 0.0
H721 H 0.71711 0.22954 0.24976 0.0
H722 H 0.68656 0.24145 0.2602 0.0
C723 C 0.43412 0.84704 0.71204 0.0
C724 C 0.40899 0.83627 0.68459 0.0
C725 C 0.45408 0.83244 0.7153 0.0
C726 C 0.44856 0.80615 0.69076 0.0
C727 C 0.42413 0.79601 0.66198 0.0
C728 C 0.40476 0.81141 0.65904 0.0
C729 C 0.48031 0.84441 0.74582 0.0
C730 C 0.41749 0.76795 0.63532 0.0
C731 C 0.5133 0.78032 0.6768 0.0
C732 C 0.50046 0.75148 0.69892 0.0
C733 C 0.49743 0.79918 0.6751 0.0
C734 C 0.46776 0.78869 0.6957 0.0
C735 C 0.45567 0.76061 0.71974 0.0
C736 C 0.47238 0.74242 0.72129 0.0
C737 C 0.5115 0.82934 0.64978 0.0
C738 C 0.42403 0.74864 0.74209 0.0
H739 H 0.43769 0.86644 0.73167 0.0
H740 H 0.3852 0.80279 0.63802 0.0
H741 H 0.47369 0.82434 0.7668 0.0
H742 H 0.50471 0.85055 0.73358 0.0
H743 H 0.48305 0.86668 0.76079 0.0
H744 H 0.39839 0.76377 0.61377 0.0
H745 H 0.44074 0.77325 0.62066 0.0
H746 H 0.40886 0.74462 0.65156 0.0
H747 H 0.53517 0.78746 0.65966 0.0
H748 H 0.4622 0.71991 0.73803 0.0
H749 H 0.51354 0.85104 0.66532 0.0
H750 H 0.49447 0.82442 0.62557 0.0
H751 H 0.53641 0.83598 0.63858 0.0
H752 H 0.4253 0.76924 0.75925 0.0
H753 H 0.4191 0.72769 0.76116 0.0
H754 H 0.40268 0.74029 0.72244 0.0
C755 C 0.24233 0.75421 0.68486 0.0
C756 C 0.26988 0.7684 0.70917 0.0
C757 C 0.22328 0.7197 0.68012 0.0
C758 C 0.23221 0.69892 0.69995 0.0
C759 C 0.25868 0.71298 0.72644 0.0
C760 C 0.27715 0.74769 0.73093 0.0
C761 C 0.19489 0.7057 0.65216 0.0
C762 C 0.26891 0.69156 0.74814 0.0
C763 C 0.1729 0.60596 0.70552 0.0
C764 C 0.18583 0.59385 0.67786 0.0
C765 C 0.18719 0.64012 0.71237 0.0
C766 C 0.21525 0.66277 0.69123 0.0
C767 C 0.22759 0.65086 0.66216 0.0
C768 C 0.21259 0.61647 0.65567 0.0
C769 C 0.173 0.65188 0.74316 0.0
C770 C 0.25751 0.67434 0.63898 0.0
H771 H 0.23661 0.77027 0.66818 0.0
H772 H 0.29869 0.75865 0.74935 0.0
H773 H 0.20153 0.69565 0.62732 0.0
H774 H 0.17225 0.68485 0.66493 0.0
H775 H 0.18893 0.7248 0.6422 0.0
H776 H 0.28812 0.70596 0.76982 0.0
H777 H 0.24706 0.67083 0.76224 0.0
H778 H 0.27906 0.68036 0.72829 0.0
H779 H 0.15209 0.5886 0.72267 0.0
H780 H 0.2229 0.60729 0.63454 0.0
H781 H 0.16782 0.67118 0.7321 0.0
H782 H 0.19143 0.66342 0.76629 0.0
H783 H 0.14968 0.63125 0.75516 0.0
H784 H 0.25325 0.69343 0.62547 0.0
H785 H 0.26331 0.66121 0.61664 0.0
H786 H 0.27954 0.68759 0.65766 0.0
C787 C 0.2723 0.51525 0.65771 0.0
C788 C 0.25827 0.52701 0.68439 0.0
C789 C 0.30679 0.53071 0.65292 0.0
C790 C 0.32777 0.55876 0.67519 0.0
C791 C 0.31389 0.56992 0.70331 0.0
C792 C 0.2792 0.55375 0.70774 0.0
C793 C 0.32068 0.51776 0.62309 0.0
C794 C 0.33558 0.5998 0.72763 0.0
C795 C 0.41937 0.58782 0.68596 0.0
C796 C 0.43386 0.61545 0.66184 0.0
C797 C 0.38481 0.56836 0.68953 0.0
C798 C 0.36423 0.57687 0.6686 0.0
C799 C 0.37861 0.60357 0.64252 0.0
C800 C 0.41338 0.6225 0.63928 0.0
C801 C 0.37043 0.53976 0.71712 0.0
C802 C 0.35737 0.61331 0.61966 0.0
H803 H 0.2562 0.49443 0.63972 0.0
H804 H 0.26847 0.56313 0.72811 0.0
H805 H 0.33286 0.53669 0.60063 0.0
H806 H 0.33993 0.51312 0.63549 0.0
H807 H 0.30112 0.49438 0.6099 0.0
H808 H 0.32102 0.60455 0.74911 0.0
H809 H 0.35468 0.59623 0.74231 0.0
H810 H 0.34892 0.6222 0.70959 0.0
H811 H 0.43516 0.58215 0.70322 0.0
H812 H 0.42449 0.64402 0.6209 0.0
H813 H 0.35074 0.51687 0.70335 0.0
H814 H 0.35871 0.54557 0.741 0.0
H815 H 0.38966 0.53461 0.72867 0.0
H816 H 0.33777 0.59143 0.60428 0.0
H817 H 0.37221 0.63322 0.59892 0.0
H818 H 0.34464 0.62229 0.63886 0.0
C819 C 0.09287 0.32685 0.92017 0.0
C820 C 0.09437 0.29751 0.92064 0.0
C821 C 0.10539 0.34872 0.88935 0.0
C822 C 0.1207 0.34149 0.859 0.0
C823 C 0.12421 0.31296 0.86068 0.0
C824 C 0.11037 0.29092 0.89115 0.0
C825 C 0.10041 0.37845 0.88823 0.0
C826 C 0.14144 0.30503 0.82966 0.0
C827 C 0.11705 0.37655 0.76336 0.0
C828 C 0.14708 0.40675 0.76329 0.0
C829 C 0.10847 0.35459 0.79401 0.0
C830 C 0.13101 0.36269 0.82457 0.0
C831 C 0.16237 0.39216 0.82321 0.0
C832 C 0.16973 0.41422 0.79293 0.0
C833 C 0.07444 0.32384 0.79481 0.0
C834 C 0.18757 0.40109 0.85446 0.0
H835 H 0.07994 0.33158 0.94267 0.0
H836 H 0.11138 0.26809 0.89154 0.0
H837 H 0.12454 0.4016 0.88401 0.0
H838 H 0.08422 0.37606 0.86396 0.0
H839 H 0.08881 0.38102 0.9145 0.0
H840 H 0.14599 0.2845 0.83761 0.0
H841 H 0.12593 0.29759 0.80375 0.0
H842 H 0.16558 0.32734 0.82261 0.0
H843 H 0.09931 0.3712 0.74075 0.0
H844 H 0.19288 0.43777 0.79285 0.0
H845 H 0.05992 0.3255 0.81876 0.0
H846 H 0.0766 0.30138 0.79936 0.0
H847 H 0.06032 0.32056 0.76829 0.0
H848 H 0.17885 0.40805 0.8802 0.0
H849 H 0.2123 0.42226 0.84661 0.0
H850 H 0.19041 0.3794 0.86174 0.0
C851 C 0.74664 0.80392 0.87692 0.0
C852 C 0.74513 0.81908 0.91062 0.0
C853 C 0.72142 0.79314 0.84977 0.0
C854 C 0.69379 0.79747 0.85636 0.0
C855 C 0.69241 0.81351 0.88982 0.0
C856 C 0.71816 0.82418 0.9166 0.0
C857 C 0.72387 0.77612 0.81453 0.0
C858 C 0.66327 0.8185 0.89779 0.0
C859 C 0.63851 0.78447 0.77113 0.0
C860 C 0.61386 0.75106 0.77565 0.0
C861 C 0.66422 0.8004 0.79784 0.0
C862 C 0.6652 0.78245 0.82968 0.0
C863 C 0.64003 0.74896 0.83468 0.0
C864 C 0.61479 0.73372 0.80766 0.0
C865 C 0.69071 0.83615 0.79159 0.0
C866 C 0.6402 0.72886 0.86813 0.0
H867 H 0.76747 0.80008 0.87176 0.0
H868 H 0.71687 0.83599 0.94245 0.0
H869 H 0.70364 0.74976 0.81436 0.0
H870 H 0.72069 0.78809 0.78901 0.0
H871 H 0.74806 0.77677 0.81246 0.0
H872 H 0.66721 0.8338 0.92347 0.0
H873 H 0.65873 0.8307 0.87342 0.0
H874 H 0.64048 0.79399 0.90178 0.0
H875 H 0.63792 0.7981 0.7466 0.0
H876 H 0.59584 0.70795 0.81162 0.0
H877 H 0.71505 0.83768 0.78687 0.0
H878 H 0.69331 0.85121 0.81706 0.0
H879 H 0.68514 0.84733 0.76693 0.0
H880 H 0.6625 0.72598 0.86692 0.0
H881 H 0.61774 0.70371 0.86903 0.0
H882 H 0.6416 0.742 0.89484 0.0
C883 C 0.236 0.87002 0.78945 0.0
C884 C 0.27047 0.88259 0.78975 0.0
C885 C 0.22094 0.88061 0.81638 0.0
C886 C 0.24086 0.90431 0.8441 0.0
C887 C 0.2756 0.91697 0.8445 0.0
C888 C 0.28991 0.90606 0.81738 0.0
C889 C 0.18381 0.86667 0.81506 0.0
C890 C 0.29783 0.94243 0.87337 0.0
C891 C 0.21635 0.9623 0.8906 0.0
C892 C 0.20784 0.94913 0.92722 0.0
C893 C 0.2254 0.94691 0.86273 0.0
C894 C 0.22612 0.91759 0.87158 0.0
C895 C 0.21623 0.90332 0.90799 0.0
C896 C 0.20713 0.91925 0.93543 0.0
C897 C 0.23571 0.96296 0.82431 0.0
C898 C 0.2167 0.87207 0.91847 0.0
H899 H 0.22076 0.8518 0.76834 0.0
H900 H 0.31659 0.9161 0.81791 0.0
H901 H 0.1726 0.85542 0.84268 0.0
H902 H 0.17834 0.88699 0.80982 0.0
H903 H 0.17166 0.84754 0.79266 0.0
H904 H 0.32422 0.94886 0.87066 0.0
H905 H 0.29654 0.96552 0.8701 0.0
H906 H 0.28921 0.93293 0.90231 0.0
H907 H 0.21653 0.98511 0.88373 0.0
H908 H 0.20044 0.90883 0.96357 0.0
H909 H 0.22236 0.9444 0.80174 0.0
H910 H 0.2627 0.97266 0.82017 0.0
H911 H 0.23075 0.98387 0.82083 0.0
H912 H 0.20357 0.85256 0.89674 0.0
H913 H 0.20497 0.86218 0.94635 0.0
H914 H 0.24279 0.87738 0.91954 0.0
C915 C 0.39702 0.12965 0.25076 0.0
C916 C 0.40706 0.16141 0.26536 0.0
C917 C 0.37251 0.11554 0.22269 0.0
C918 C 0.35704 0.13325 0.20942 0.0
C919 C 0.36614 0.16477 0.22501 0.0
C920 C 0.39131 0.17864 0.25253 0.0
C921 C 0.36381 0.08203 0.2065 0.0
C922 C 0.3496 0.184 0.21223 0.0
C923 C 0.31541 0.10847 0.11292 0.0
C924 C 0.2826 0.08556 0.12295 0.0
C925 C 0.33993 0.12471 0.14082 0.0
C926 C 0.3311 0.11839 0.17951 0.0
C927 C 0.29768 0.09629 0.18965 0.0
C928 C 0.27395 0.07988 0.16128 0.0
C929 C 0.37546 0.14768 0.12894 0.0
C930 C 0.28707 0.08941 0.2305 0.0
H931 H 0.40928 0.11627 0.26013 0.0
H932 H 0.39898 0.2032 0.26365 0.0
H933 H 0.33701 0.06408 0.21084 0.0
H934 H 0.36836 0.0842 0.17561 0.0
H935 H 0.37851 0.07173 0.21954 0.0
H936 H 0.35844 0.20748 0.22836 0.0
H937 H 0.35464 0.19015 0.18182 0.0
H938 H 0.32224 0.16857 0.21554 0.0
H939 H 0.32214 0.11282 0.08331 0.0
H940 H 0.24846 0.0625 0.16918 0.0
H941 H 0.39135 0.13761 0.13885 0.0
H942 H 0.38507 0.17246 0.1422 0.0
H943 H 0.37804 0.15085 0.09781 0.0
H944 H 0.29903 0.07663 0.24431 0.0
H945 H 0.25969 0.0736 0.23357 0.0
H946 H 0.29533 0.1131 0.24588 0.0
C947 C 0.91011 0.18965 0.13111 0.0
C948 C 0.94153 0.21037 0.11525 0.0
C949 C 0.8965 0.202 0.15767 0.0
C950 C 0.91509 0.23566 0.16923 0.0
C951 C 0.94658 0.2568 0.15285 0.0
C952 C 0.95924 0.244 0.12577 0.0
C953 C 0.86247 0.17894 0.17377 0.0
C954 C 0.96738 0.29275 0.1647 0.0
C955 C 0.8748 0.28097 0.21385 0.0
C956 C 0.88192 0.28046 0.25226 0.0
C957 C 0.88412 0.26518 0.18676 0.0
C958 C 0.9017 0.24909 0.19823 0.0
C959 C 0.90822 0.24773 0.23713 0.0
C960 C 0.89787 0.26314 0.26382 0.0
C961 C 0.87599 0.26657 0.14574 0.0
C962 C 0.9274 0.23126 0.25037 0.0
H963 H 0.89632 0.16364 0.1231 0.0
H964 H 0.98371 0.26012 0.11402 0.0
H965 H 0.86441 0.17611 0.20461 0.0
H966 H 0.84605 0.18968 0.16969 0.0
H967 H 0.85057 0.15391 0.16049 0.0
H968 H 0.99154 0.30576 0.14957 0.0
H969 H 0.95364 0.30617 0.15922 0.0
H970 H 0.97236 0.29425 0.1955 0.0
H971 H 0.8621 0.29406 0.20486 0.0
H972 H 0.90352 0.26288 0.29348 0.0
H973 H 0.86354 0.24126 0.13324 0.0
H974 H 0.89927 0.28185 0.12967 0.0
H975 H 0.85963 0.27744 0.14193 0.0
H976 H 0.91548 0.20531 0.23985 0.0
H977 H 0.92911 0.231 0.28164 0.0
H978 H 0.95296 0.24468 0.23861 0.0
C979 C 0.72731 0.62574 0.21604 0.0
C980 C 0.74609 0.62669 0.24759 0.0
C981 C 0.74054 0.65082 0.18861 0.0
C982 C 0.77342 0.67763 0.19272 0.0
C983 C 0.79266 0.67873 0.22433 0.0
C984 C 0.77875 0.65325 0.25145 0.0
C985 C 0.71911 0.64881 0.15547 0.0
C986 C 0.82781 0.70698 0.22966 0.0
C987 C 0.81403 0.72944 0.10483 0.0
C988 C 0.80839 0.75616 0.11002 0.0
C989 C 0.80343 0.70397 0.1319 0.0
C990 C 0.78684 0.70532 0.16485 0.0
C991 C 0.78149 0.73245 0.17042 0.0
C992 C 0.79227 0.75744 0.143 0.0
C993 C 0.80953 0.67538 0.12501 0.0
C994 C 0.76383 0.73482 0.20509 0.0
H995 H 0.70205 0.60536 0.2127 0.0
H996 H 0.79349 0.65414 0.27564 0.0
H997 H 0.71514 0.67047 0.15583 0.0
H998 H 0.73183 0.64983 0.12859 0.0
H999 H 0.69445 0.6257 0.15573 0.0
H1000 H 0.83992 0.70353 0.25495 0.0
H1001 H 0.84298 0.7093 0.20444 0.0
H1002 H 0.8278 0.73076 0.23267 0.0
H1003 H 0.82651 0.72826 0.07952 0.0
H1004 H 0.78783 0.77798 0.14745 0.0
H1005 H 0.78542 0.65185 0.12266 0.0
H1006 H 0.82312 0.67266 0.14925 0.0
H1007 H 0.82405 0.67872 0.09884 0.0
H1008 H 0.73802 0.7135 0.20581 0.0
H1009 H 0.76284 0.75822 0.2059 0.0
H1010 H 0.77654 0.73346 0.23099 0.0
C1011 C 0.07972 0.50111 0.55713 0.0
C1012 C 0.07165 0.48001 0.58842 0.0
C1013 C 0.05811 0.49239 0.52613 0.0
C1014 C 0.02835 0.46125 0.52588 0.0
C1015 C 0.01967 0.44026 0.55794 0.0
C1016 C 0.04125 0.45017 0.58914 0.0
C1017 C 0.0677 0.51597 0.49312 0.0
C1018 C 0.98853 0.40653 0.55845 0.0
C1019 C 0.95727 0.44003 0.45791 0.0
C1020 C 0.96323 0.42246 0.42975 0.0
C1021 C 0.97925 0.45438 0.48837 0.0
C1022 C 0.00708 0.44979 0.49146 0.0
C1023 C 0.01361 0.43269 0.46252 0.0
C1024 C 0.9918 0.41965 0.4316 0.0
C1025 C 0.97207 0.47345 0.51784 0.0
C1026 C 0.04256 0.42657 0.46524 0.0
H1027 H 0.10337 0.52416 0.55659 0.0
H1028 H 0.03535 0.43359 0.61306 0.0
H1029 H 0.07384 0.50536 0.46842 0.0
H1030 H 0.04656 0.51941 0.48485 0.0
H1031 H 0.08955 0.54069 0.4996 0.0
H1032 H 0.98495 0.39357 0.58587 0.0
H1033 H 0.96637 0.40898 0.55276 0.0
H1034 H 0.98984 0.39074 0.53573 0.0
H1035 H 0.93499 0.44201 0.45641 0.0
H1036 H 0.99597 0.40549 0.4101 0.0
H1037 H 0.99474 0.49769 0.52367 0.0
H1038 H 0.9647 0.45927 0.54467 0.0
H1039 H 0.95178 0.47808 0.509 0.0
H1040 H 0.06617 0.45043 0.46865 0.0
H1041 H 0.04463 0.41352 0.43998 0.0
H1042 H 0.03961 0.41127 0.49057 0.0
C1043 C 0.58408 0.54768 0.44134 0.0
C1044 C 0.61856 0.56047 0.4429 0.0
C1045 C 0.56807 0.55752 0.46784 0.0
C1046 C 0.58704 0.5807 0.49642 0.0
C1047 C 0.6218 0.59358 0.49813 0.0
C1048 C 0.63708 0.58337 0.47141 0.0
C1049 C 0.53096 0.54333 0.46512 0.0
C1050 C 0.643 0.61851 0.52799 0.0
C1051 C 0.55878 0.63615 0.54203 0.0
C1052 C 0.54844 0.62167 0.57786 0.0
C1053 C 0.57004 0.62223 0.51477 0.0
C1054 C 0.57119 0.5931 0.52347 0.0
C1055 C 0.55985 0.57771 0.55913 0.0
C1056 C 0.54852 0.59216 0.58594 0.0
C1057 C 0.58183 0.63941 0.4771 0.0
C1058 C 0.56077 0.54666 0.56943 0.0
H1059 H 0.56955 0.52988 0.41954 0.0
H1060 H 0.66374 0.59348 0.47294 0.0
H1061 H 0.51897 0.53142 0.49222 0.0
H1062 H 0.52542 0.56363 0.45995 0.0
H1063 H 0.51961 0.52468 0.44211 0.0
H1064 H 0.66952 0.62522 0.52623 0.0
H1065 H 0.64154 0.64152 0.52493 0.0
H1066 H 0.63355 0.60835 0.55652 0.0
H1067 H 0.55847 0.65875 0.53528 0.0
H1068 H 0.54049 0.58077 0.61349 0.0
H1069 H 0.56938 0.62148 0.45372 0.0
H1070 H 0.60896 0.64923 0.47422 0.0
H1071 H 0.57698 0.66039 0.47373 0.0
H1072 H 0.54833 0.52741 0.54726 0.0
H1073 H 0.54856 0.53621 0.59696 0.0
H1074 H 0.58698 0.55239 0.57109 0.0
C1075 C 0.41273 0.98305 0.60323 0.0
C1076 C 0.40526 0.95023 0.59738 0.0
C1077 C 0.4249 0.00621 0.57355 0.0
C1078 C 0.43077 0.99648 0.5377 0.0
C1079 C 0.42482 0.96374 0.53238 0.0
C1080 C 0.4115 0.94082 0.56209 0.0
C1081 C 0.43004 0.04061 0.58005 0.0
C1082 C 0.43188 0.95272 0.4951 0.0
C1083 C 0.42862 0.04376 0.45112 0.0
C1084 C 0.46228 0.06755 0.44694 0.0
C1085 C 0.41802 0.02035 0.48049 0.0
C1086 C 0.44183 0.02013 0.5054 0.0
C1087 C 0.47604 0.0431 0.49999 0.0
C1088 C 0.48579 0.06697 0.47127 0.0
C1089 C 0.38125 0.99688 0.48592 0.0
C1090 C 0.50227 0.04291 0.52503 0.0
H1091 H 0.40743 0.99012 0.63042 0.0
H1092 H 0.40572 0.91537 0.55767 0.0
H1093 H 0.45602 0.0597 0.57331 0.0
H1094 H 0.41358 0.04484 0.56091 0.0
H1095 H 0.42465 0.04435 0.60964 0.0
H1096 H 0.42889 0.92748 0.49672 0.0
H1097 H 0.41471 0.95247 0.47316 0.0
H1098 H 0.45758 0.9705 0.48574 0.0
H1099 H 0.4104 0.04463 0.43273 0.0
H1100 H 0.51184 0.08551 0.46805 0.0
H1101 H 0.37354 0.00105 0.51411 0.0
H1102 H 0.37573 0.97074 0.48506 0.0
H1103 H 0.36598 0.00018 0.46405 0.0
H1104 H 0.49982 0.05016 0.55417 0.0
H1105 H 0.52786 0.0603 0.51487 0.0
H1106 H 0.49881 0.0175 0.52644 0.0
loop_
_geom_bond_atom_site_label_1
_geom_bond_atom_site_label_2
_geom_bond_distance
_geom_bond_site_symmetry_2
_ccdc_geom_bond_type
Co0 O2 2.143 . S
Co0 O8 2.074 . S
Co0 O11 2.093 1_455 S
Co0 O24 2.097 1_455 S
Co0 N41 2.151 . S
Co0 N49 2.214 . S
Co1 O2 2.160 1_556 S
Co1 O7 2.058 . S
Co1 O17 2.057 . S
Co1 O32 2.037 1_455 S
Co1 N36 2.145 . S
Co1 N57 2.257 1_455 S
O2 Co0 2.143 . S
O2 Co1 2.160 1_554 S
C3 O4 1.278 . S
C3 O11 1.224 . S
O4 C3 1.278 . S
C5 O6 1.245 . S
C5 O17 1.232 . S
O6 C5 1.245 . S
O7 Co1 2.058 . S
O7 C33 1.269 1_556 S
O8 Co0 2.074 . S
O8 C33 1.257 . S
H9 C34 0.930 . S
H10 C40 0.930 . S
O11 Co0 2.093 1_655 S
O11 C3 1.224 . S
H12 C44 0.929 . S
H13 C46 0.930 . S
H14 C47 0.930 . S
H15 C45 0.929 . S
H16 C48 0.928 . S
O17 Co1 2.057 . S
O17 C5 1.232 . S
H18 C37 0.929 . S
H19 C38 0.929 . S
H20 C50 0.931 . S
H21 C42 0.929 . S
H22 C51 0.930 . S
H23 C43 0.931 . S
O24 Co0 2.097 1_655 S
O24 C52 1.214 . S
H25 C53 0.929 . S
H26 C54 0.929 . S
H27 C55 0.930 . S
H28 C56 0.929 . S
H29 C58 0.930 . S
H30 C35 0.930 . S
H31 C39 0.930 . S
O32 Co1 2.037 1_655 S
O32 C52 1.234 1_556 S
C33 O7 1.269 1_554 S
C33 O8 1.257 . S
C34 H9 0.930 . S
C34 C37 1.388 . S
C34 C39 1.418 . S
C35 H30 0.930 . S
C35 C38 1.404 . S
C35 C39 1.353 1_455 S
N36 Co1 2.145 . S
N36 C37 1.397 1_455 S
N36 C38 1.334 . S
C37 H18 0.929 . S
C37 C34 1.388 . S
C37 N36 1.397 1_655 S
C38 H19 0.929 . S
C38 C35 1.404 . S
C38 N36 1.334 . S
C39 H31 0.930 . S
C39 C34 1.418 . S
C39 C35 1.353 1_655 S
C40 H10 0.930 . S
C40 N41 1.330 . S
C40 C42 1.446 . S
N41 Co0 2.151 . S
N41 C40 1.330 . S
N41 C45 1.418 . S
C42 H21 0.929 . S
C42 C40 1.446 . S
C42 C43 1.332 . S
C43 H23 0.931 . S
C43 C42 1.332 . S
C43 C44 1.267 . S
C44 H12 0.929 . S
C44 C43 1.267 . S
C44 C45 1.251 . S
C45 H15 0.929 . S
C45 N41 1.418 . S
C45 C44 1.251 . S
C46 H13 0.930 . S
C46 C48 1.406 . S
C46 C51 1.261 . S
C47 H14 0.930 . S
C47 N49 1.325 . S
C47 C50 1.357 . S
C48 H16 0.928 . S
C48 C46 1.406 . S
C48 N49 1.261 . S
N49 Co0 2.214 . S
N49 C47 1.325 . S
N49 C48 1.261 . S
C50 H20 0.931 . S
C50 C47 1.357 . S
C50 C51 1.312 . S
C51 H22 0.930 . S
C51 C46 1.261 . S
C51 C50 1.312 . S
C52 O24 1.214 . S
C52 O32 1.234 1_554 S
C53 H25 0.929 . S
C53 C56 1.391 . S
C53 C58 1.391 . S
C54 H26 0.929 . S
C54 C55 1.390 . S
C54 N57 1.391 . S
C55 H27 0.930 . S
C55 C54 1.390 . S
C55 C56 1.392 . S
C56 H28 0.929 . S
C56 C53 1.391 . S
C56 C55 1.392 . S
N57 Co1 2.257 1_655 S
N57 C54 1.391 . S
N57 C58 1.388 . S
C58 H29 0.930 . S
C58 C53 1.391 . S
C58 N57 1.388 . S
Co59 O61 2.143 1_556 S
Co59 O67 2.074 . S
Co59 O70 2.093 . S
Co59 O83 2.097 . S
Co59 N100 2.151 . S
Co59 N108 2.214 . S
Co60 O61 2.160 . S
Co60 O66 2.058 . S
Co60 O76 2.057 . S
Co60 O91 2.037 . S
Co60 N95 2.145 . S
Co60 N116 2.257 . S
O61 Co59 2.143 1_554 S
O61 Co60 2.160 . S
C62 O63 1.278 . S
C62 O70 1.224 . S
O63 C62 1.278 . S
C64 O65 1.245 . S
C64 O76 1.232 . S
O65 C64 1.245 . S
O66 Co60 2.058 . S
O66 C92 1.269 . S
O67 Co59 2.074 . S
O67 C92 1.257 1_556 S
H68 C93 0.930 . S
H69 C99 0.930 . S
O70 Co59 2.093 . S
O70 C62 1.224 . S
H71 C103 0.929 . S
H72 C105 0.930 . S
H73 C106 0.930 . S
H74 C104 0.929 . S
H75 C107 0.928 . S
O76 Co60 2.057 . S
O76 C64 1.232 . S
H77 C96 0.929 . S
H78 C97 0.929 . S
H79 C109 0.931 . S
H80 C101 0.929 . S
H81 C110 0.930 . S
H82 C102 0.931 . S
O83 Co59 2.097 . S
O83 C111 1.214 1_556 S
H84 C112 0.929 . S
H85 C113 0.929 . S
H86 C114 0.930 . S
H87 C115 0.929 . S
H88 C117 0.930 . S
H89 C94 0.930 . S
H90 C98 0.930 . S
O91 Co60 2.037 . S
O91 C111 1.234 . S
C92 O66 1.269 . S
C92 O67 1.257 1_554 S
C93 H68 0.930 . S
C93 C96 1.388 . S
C93 C98 1.418 . S
C94 H89 0.930 . S
C94 C97 1.404 . S
C94 C98 1.353 . S
N95 Co60 2.145 . S
N95 C96 1.397 . S
N95 C97 1.334 . S
C96 H77 0.929 . S
C96 C93 1.388 . S
C96 N95 1.397 . S
C97 H78 0.929 . S
C97 C94 1.404 . S
C97 N95 1.334 . S
C98 H90 0.930 . S
C98 C93 1.418 . S
C98 C94 1.353 . S
C99 H69 0.930 . S
C99 N100 1.330 . S
C99 C101 1.446 . S
N100 Co59 2.151 . S
N100 C99 1.330 . S
N100 C104 1.418 . S
C101 H80 0.929 . S
C101 C99 1.446 . S
C101 C102 1.332 . S
C102 H82 0.931 . S
C102 C101 1.332 . S
C102 C103 1.267 . S
C103 H71 0.929 . S
C103 C102 1.267 . S
C103 C104 1.251 . S
C104 H74 0.929 . S
C104 N100 1.418 . S
C104 C103 1.251 . S
C105 H72 0.930 . S
C105 C107 1.406 . S
C105 C110 1.261 . S
C106 H73 0.930 . S
C106 N108 1.325 . S
C106 C109 1.357 . S
C107 H75 0.928 . S
C107 C105 1.406 . S
C107 N108 1.261 . S
N108 Co59 2.214 . S
N108 C106 1.325 . S
N108 C107 1.261 . S
C109 H79 0.931 . S
C109 C106 1.357 . S
C109 C110 1.312 . S
C110 H81 0.930 . S
C110 C105 1.261 . S
C110 C109 1.312 . S
C111 O83 1.214 1_554 S
C111 O91 1.234 . S
C112 H84 0.929 . S
C112 C115 1.391 . S
C112 C117 1.391 . S
C113 H85 0.929 . S
C113 C114 1.390 . S
C113 N116 1.391 . S
C114 H86 0.930 . S
C114 C113 1.390 . S
C114 C115 1.392 . S
C115 H87 0.929 . S
C115 C112 1.391 . S
C115 C114 1.392 . S
N116 Co60 2.257 . S
N116 C113 1.391 . S
N116 C117 1.388 . S
C117 H88 0.930 . S
C117 C112 1.391 . S
C117 N116 1.388 . S
Co118 O120 2.143 . S
Co118 O126 2.074 1_545 S
Co118 O129 2.093 . S
Co118 O142 2.097 . S
Co118 N159 2.151 1_545 S
Co118 N167 2.214 . S
Co119 O120 2.160 1_556 S
Co119 O125 2.058 1_545 S
Co119 O135 2.079 . S
Co119 O150 2.037 . S
Co119 N154 2.145 . S
Co119 N175 2.257 . S
O120 Co118 2.143 . S
O120 Co119 2.160 1_554 S
C121 O122 1.278 . S
C121 O129 1.224 . S
O122 C121 1.278 . S
C123 O124 1.245 . S
C123 O135 1.208 1_565 S
O124 C123 1.245 . S
O125 Co119 2.058 1_565 S
O125 C151 1.269 1_556 S
O126 Co118 2.074 1_565 S
O126 C151 1.257 . S
H127 C152 0.930 . S
H128 C158 0.930 . S
O129 Co118 2.093 . S
O129 C121 1.224 . S
H130 C162 0.929 . S
H131 C164 0.930 . S
H132 C165 0.930 . S
H133 C163 0.929 . S
H134 C166 0.928 . S
O135 Co119 2.079 . S
O135 C123 1.208 1_545 S
H136 C155 0.929 . S
H137 C156 0.929 . S
H138 C168 0.931 . S
H139 C160 0.929 . S
H140 C169 0.930 . S
H141 C161 0.931 . S
O142 Co118 2.097 . S
O142 C170 1.214 . S
H143 C171 0.929 . S
H144 C172 0.929 . S
H145 C173 0.930 . S
H146 C174 0.929 . S
H147 C176 0.930 . S
H148 C153 0.930 . S
H149 C157 0.930 . S
O150 Co119 2.037 . S
O150 C170 1.234 1_556 S
C151 O125 1.269 1_554 S
C151 O126 1.257 . S
C152 H127 0.930 . S
C152 C155 1.388 . S
C152 C157 1.418 . S
C153 H148 0.930 . S
C153 C156 1.404 . S
C153 C157 1.353 . S
N154 Co119 2.145 . S
N154 C155 1.397 . S
N154 C156 1.334 . S
C155 H136 0.929 . S
C155 C152 1.388 . S
C155 N154 1.397 . S
C156 H137 0.929 . S
C156 C153 1.404 . S
C156 N154 1.334 . S
C157 H149 0.930 . S
C157 C152 1.418 . S
C157 C153 1.353 . S
C158 H128 0.930 . S
C158 N159 1.330 . S
C158 C160 1.446 . S
N159 Co118 2.151 1_565 S
N159 C158 1.330 . S
N159 C163 1.418 . S
C160 H139 0.929 . S
C160 C158 1.446 . S
C160 C161 1.332 . S
C161 H141 0.931 . S
C161 C160 1.332 . S
C161 C162 1.267 . S
C162 H130 0.929 . S
C162 C161 1.267 . S
C162 C163 1.251 . S
C163 H133 0.929 . S
C163 N159 1.418 . S
C163 C162 1.251 . S
C164 H131 0.930 . S
C164 C166 1.406 . S
C164 C169 1.261 . S
C165 H132 0.930 . S
C165 N167 1.325 . S
C165 C168 1.357 . S
C166 H134 0.928 . S
C166 C164 1.406 . S
C166 N167 1.261 . S
N167 Co118 2.214 . S
N167 C165 1.325 . S
N167 C166 1.261 . S
C168 H138 0.931 . S
C168 C165 1.357 . S
C168 C169 1.312 . S
C169 H140 0.930 . S
C169 C164 1.261 . S
C169 C168 1.312 . S
C170 O142 1.214 . S
C170 O150 1.234 1_554 S
C171 H143 0.929 . S
C171 C174 1.391 . S
C171 C176 1.391 . S
C172 H144 0.929 . S
C172 C173 1.390 . S
C172 N175 1.391 . S
C173 H145 0.930 . S
C173 C172 1.390 . S
C173 C174 1.392 . S
C174 H146 0.929 . S
C174 C171 1.391 . S
C174 C173 1.392 . S
N175 Co119 2.257 . S
N175 C172 1.391 . S
N175 C176 1.388 . S
C176 H147 0.930 . S
C176 C171 1.391 . S
C176 N175 1.388 . S
Co177 O179 2.143 . S
Co177 O185 2.074 . S
Co177 O188 2.093 . S
Co177 O201 2.097 . S
Co177 N218 2.151 . S
Co177 N226 2.214 . S
Co178 O179 2.160 . S
Co178 O184 2.058 . S
Co178 O194 2.057 . S
Co178 O209 2.037 . S
Co178 N213 2.145 . S
Co178 N234 2.257 . S
O179 Co177 2.143 . S
O179 Co178 2.160 . S
C180 O181 1.278 . S
C180 O188 1.224 . S
O181 C180 1.278 . S
C182 O183 1.245 . S
C182 O194 1.232 . S
O183 C182 1.245 . S
O184 Co178 2.058 . S
O184 C210 1.269 . S
O185 Co177 2.074 . S
O185 C210 1.257 . S
H186 C211 0.930 . S
H187 C217 0.930 . S
O188 Co177 2.093 . S
O188 C180 1.224 . S
H189 C221 0.929 . S
H190 C223 0.930 . S
H191 C224 0.930 . S
H192 C222 0.929 . S
H193 C225 0.928 . S
O194 Co178 2.057 . S
O194 C182 1.232 . S
H195 C214 0.929 . S
H196 C215 0.929 . S
H197 C227 0.931 . S
H198 C219 0.929 . S
H199 C228 0.930 . S
H200 C220 0.931 . S
O201 Co177 2.097 . S
O201 C229 1.214 . S
H202 C230 0.929 . S
H203 C231 0.929 . S
H204 C232 0.930 . S
H205 C233 0.929 . S
H206 C235 0.930 . S
H207 C212 0.930 . S
H208 C216 0.930 . S
O209 Co178 2.037 . S
O209 C229 1.234 . S
C210 O184 1.269 . S
C210 O185 1.257 . S
C211 H186 0.930 . S
C211 C214 1.388 . S
C211 C216 1.418 . S
C212 H207 0.930 . S
C212 C215 1.404 . S
C212 C216 1.353 . S
N213 Co178 2.145 . S
N213 C214 1.397 . S
N213 C215 1.334 . S
C214 H195 0.929 . S
C214 C211 1.388 . S
C214 N213 1.397 . S
C215 H196 0.929 . S
C215 C212 1.404 . S
C215 N213 1.334 . S
C216 H208 0.930 . S
C216 C211 1.418 . S
C216 C212 1.353 . S
C217 H187 0.930 . S
C217 N218 1.330 . S
C217 C219 1.446 . S
N218 Co177 2.151 . S
N218 C217 1.330 . S
N218 C222 1.418 . S
C219 H198 0.929 . S
C219 C217 1.446 . S
C219 C220 1.332 . S
C220 H200 0.931 . S
C220 C219 1.332 . S
C220 C221 1.267 . S
C221 H189 0.929 . S
C221 C220 1.267 . S
C221 C222 1.251 . S
C222 H192 0.929 . S
C222 N218 1.418 . S
C222 C221 1.251 . S
C223 H190 0.930 . S
C223 C225 1.406 . S
C223 C228 1.261 . S
C224 H191 0.930 . S
C224 N226 1.325 . S
C224 C227 1.357 . S
C225 H193 0.928 . S
C225 C223 1.406 . S
C225 N226 1.261 . S
N226 Co177 2.214 . S
N226 C224 1.325 . S
N226 C225 1.261 . S
C227 H197 0.931 . S
C227 C224 1.357 . S
C227 C228 1.312 . S
C228 H199 0.930 . S
C228 C223 1.261 . S
C228 C227 1.312 . S
C229 O201 1.214 . S
C229 O209 1.234 . S
C230 H202 0.929 . S
C230 C233 1.391 . S
C230 C235 1.391 . S
C231 H203 0.929 . S
C231 C232 1.390 . S
C231 N234 1.391 . S
C232 H204 0.930 . S
C232 C231 1.390 . S
C232 C233 1.392 . S
C233 H205 0.929 . S
C233 C230 1.391 . S
C233 C232 1.392 . S
N234 Co178 2.257 . S
N234 C231 1.391 . S
N234 C235 1.388 . S
C235 H206 0.930 . S
C235 C230 1.391 . S
C235 N234 1.388 . S
Co236 O238 2.143 . S
Co236 O244 2.074 . S
Co236 O247 2.093 . S
Co236 O260 2.097 . S
Co236 N277 2.151 . S
Co236 N285 2.214 . S
Co237 O238 2.160 . S
Co237 O243 2.058 . S
Co237 O253 2.057 . S
Co237 O268 2.037 . S
Co237 N272 2.145 . S
Co237 N293 2.257 . S
O238 Co236 2.143 . S
O238 Co237 2.160 . S
C239 O240 1.278 . S
C239 O247 1.224 . S
O240 C239 1.278 . S
C241 O242 1.245 . S
C241 O253 1.232 . S
O242 C241 1.245 . S
O243 Co237 2.058 . S
O243 C269 1.269 . S
O244 Co236 2.074 . S
O244 C269 1.257 . S
H245 C270 0.930 . S
H246 C276 0.930 . S
O247 Co236 2.093 . S
O247 C239 1.224 . S
H248 C280 0.929 . S
H249 C282 0.930 . S
H250 C283 0.930 . S
H251 C281 0.929 . S
H252 C284 0.928 . S
O253 Co237 2.057 . S
O253 C241 1.232 . S
H254 C273 0.929 . S
H255 C274 0.929 . S
H256 C286 0.931 . S
H257 C278 0.929 . S
H258 C287 0.930 . S
H259 C279 0.931 . S
O260 Co236 2.097 . S
O260 C288 1.214 . S
H261 C289 0.929 . S
H262 C290 0.929 . S
H263 C291 0.930 . S
H264 C292 0.929 . S
H265 C294 0.930 . S
H266 C271 0.930 . S
H267 C275 0.930 . S
O268 Co237 2.037 . S
O268 C288 1.234 . S
C269 O243 1.269 . S
C269 O244 1.257 . S
C270 H245 0.930 . S
C270 C273 1.388 . S
C270 C275 1.418 . S
C271 H266 0.930 . S
C271 C274 1.404 . S
C271 C275 1.353 . S
N272 Co237 2.145 . S
N272 C273 1.397 . S
N272 C274 1.334 . S
C273 H254 0.929 . S
C273 C270 1.388 . S
C273 N272 1.397 . S
C274 H255 0.929 . S
C274 C271 1.404 . S
C274 N272 1.334 . S
C275 H267 0.930 . S
C275 C270 1.418 . S
C275 C271 1.353 . S
C276 H246 0.930 . S
C276 N277 1.330 . S
C276 C278 1.446 . S
N277 Co236 2.151 . S
N277 C276 1.330 . S
N277 C281 1.418 . S
C278 H257 0.929 . S
C278 C276 1.446 . S
C278 C279 1.332 . S
C279 H259 0.931 . S
C279 C278 1.332 . S
C279 C280 1.267 . S
C280 H248 0.929 . S
C280 C279 1.267 . S
C280 C281 1.251 . S
C281 H251 0.929 . S
C281 N277 1.418 . S
C281 C280 1.251 . S
C282 H249 0.930 . S
C282 C284 1.406 . S
C282 C287 1.261 . S
C283 H250 0.930 . S
C283 N285 1.325 . S
C283 C286 1.357 . S
C284 H252 0.928 . S
C284 C282 1.406 . S
C284 N285 1.261 . S
N285 Co236 2.214 . S
N285 C283 1.325 . S
N285 C284 1.261 . S
C286 H256 0.931 . S
C286 C283 1.357 . S
C286 C287 1.312 . S
C287 H258 0.930 . S
C287 C282 1.261 . S
C287 C286 1.312 . S
C288 O260 1.214 . S
C288 O268 1.234 . S
C289 H261 0.929 . S
C289 C292 1.391 . S
C289 C294 1.391 . S
C290 H262 0.929 . S
C290 C291 1.390 . S
C290 N293 1.391 . S
C291 H263 0.930 . S
C291 C290 1.390 . S
C291 C292 1.392 . S
C292 H264 0.929 . S
C292 C289 1.391 . S
C292 C291 1.392 . S
N293 Co237 2.257 . S
N293 C290 1.391 . S
N293 C294 1.388 . S
C294 H265 0.930 . S
C294 C289 1.391 . S
C294 N293 1.388 . S
Co295 O297 2.143 . S
Co295 O303 2.074 . S
Co295 O306 2.093 . S
Co295 O319 2.097 . S
Co295 N336 2.151 . S
Co295 N344 2.214 . S
Co296 O297 2.160 . S
Co296 O302 2.058 . S
Co296 O312 2.057 . S
Co296 O327 2.037 . S
Co296 N331 2.145 . S
Co296 N352 2.257 . S
O297 Co295 2.143 . S
O297 Co296 2.160 . S
C298 O299 1.278 . S
C298 O306 1.224 . S
O299 C298 1.278 . S
C300 O301 1.245 . S
C300 O312 1.232 . S
O301 C300 1.245 . S
O302 Co296 2.058 . S
O302 C328 1.269 . S
O303 Co295 2.074 . S
O303 C328 1.257 . S
H304 C329 0.930 . S
H305 C335 0.930 . S
O306 Co295 2.093 . S
O306 C298 1.224 . S
H307 C339 0.929 . S
H308 C341 0.930 . S
H309 C342 0.930 . S
H310 C340 0.929 . S
H311 C343 0.928 . S
O312 Co296 2.057 . S
O312 C300 1.232 . S
H313 C332 0.929 . S
H314 C333 0.929 . S
H315 C345 0.931 . S
H316 C337 0.929 . S
H317 C346 0.930 . S
H318 C338 0.931 . S
O319 Co295 2.097 . S
O319 C347 1.214 . S
H320 C348 0.929 . S
H321 C349 0.929 . S
H322 C350 0.930 . S
H323 C351 0.929 . S
H324 C353 0.930 . S
H325 C330 0.930 . S
H326 C334 0.930 . S
O327 Co296 2.037 . S
O327 C347 1.234 . S
C328 O302 1.269 . S
C328 O303 1.257 . S
C329 H304 0.930 . S
C329 C332 1.388 . S
C329 C334 1.418 . S
C330 H325 0.930 . S
C330 C333 1.404 . S
C330 C334 1.353 . S
N331 Co296 2.145 . S
N331 C332 1.397 . S
N331 C333 1.334 . S
C332 H313 0.929 . S
C332 C329 1.388 . S
C332 N331 1.397 . S
C333 H314 0.929 . S
C333 C330 1.404 . S
C333 N331 1.334 . S
C334 H326 0.930 . S
C334 C329 1.418 . S
C334 C330 1.353 . S
C335 H305 0.930 . S
C335 N336 1.330 . S
C335 C337 1.446 . S
N336 Co295 2.151 . S
N336 C335 1.330 . S
N336 C340 1.418 . S
C337 H316 0.929 . S
C337 C335 1.446 . S
C337 C338 1.332 . S
C338 H318 0.931 . S
C338 C337 1.332 . S
C338 C339 1.267 . S
C339 H307 0.929 . S
C339 C338 1.267 . S
C339 C340 1.251 . S
C340 H310 0.929 . S
C340 N336 1.418 . S
C340 C339 1.251 . S
C341 H308 0.930 . S
C341 C343 1.406 . S
C341 C346 1.261 . S
C342 H309 0.930 . S
C342 N344 1.325 . S
C342 C345 1.357 . S
C343 H311 0.928 . S
C343 C341 1.406 . S
C343 N344 1.261 . S
N344 Co295 2.214 . S
N344 C342 1.325 . S
N344 C343 1.261 . S
C345 H315 0.931 . S
C345 C342 1.357 . S
C345 C346 1.312 . S
C346 H317 0.930 . S
C346 C341 1.261 . S
C346 C345 1.312 . S
C347 O319 1.214 . S
C347 O327 1.234 . S
C348 H320 0.929 . S
C348 C351 1.391 . S
C348 C353 1.391 . S
C349 H321 0.929 . S
C349 C350 1.390 . S
C349 N352 1.391 . S
C350 H322 0.930 . S
C350 C349 1.390 . S
C350 C351 1.392 . S
C351 H323 0.929 . S
C351 C348 1.391 . S
C351 C350 1.392 . S
N352 Co296 2.257 . S
N352 C349 1.391 . S
N352 C353 1.388 . S
C353 H324 0.930 . S
C353 C348 1.391 . S
C353 N352 1.388 . S
Co354 O356 2.143 . S
Co354 O362 2.074 . S
Co354 O365 2.093 . S
Co354 O378 2.097 . S
Co354 N395 2.151 . S
Co354 N403 2.214 . S
Co355 O356 2.160 . S
Co355 O361 2.058 . S
Co355 O371 2.057 . S
Co355 O386 2.037 . S
Co355 N390 2.145 . S
Co355 N411 2.257 . S
O356 Co354 2.143 . S
O356 Co355 2.160 . S
C357 O358 1.278 . S
C357 O365 1.224 . S
O358 C357 1.278 . S
C359 O360 1.245 . S
C359 O371 1.232 . S
O360 C359 1.245 . S
O361 Co355 2.058 . S
O361 C387 1.269 . S
O362 Co354 2.074 . S
O362 C387 1.257 . S
H363 C388 0.930 . S
H364 C394 0.930 . S
O365 Co354 2.093 . S
O365 C357 1.224 . S
H366 C398 0.929 . S
H367 C400 0.930 . S
H368 C401 0.930 . S
H369 C399 0.929 . S
H370 C402 0.928 . S
O371 Co355 2.057 . S
O371 C359 1.232 . S
H372 C391 0.929 . S
H373 C392 0.929 . S
H374 C404 0.931 . S
H375 C396 0.929 . S
H376 C405 0.930 . S
H377 C397 0.931 . S
O378 Co354 2.097 . S
O378 C406 1.214 . S
H379 C407 0.929 . S
H380 C408 0.929 . S
H381 C409 0.930 . S
H382 C410 0.929 . S
H383 C412 0.930 . S
H384 C389 0.930 . S
H385 C393 0.930 . S
O386 Co355 2.037 . S
O386 C406 1.234 . S
C387 O361 1.269 . S
C387 O362 1.257 . S
C388 H363 0.930 . S
C388 C391 1.388 . S
C388 C393 1.418 . S
C389 H384 0.930 . S
C389 C392 1.404 . S
C389 C393 1.353 . S
N390 Co355 2.145 . S
N390 C391 1.397 . S
N390 C392 1.334 . S
C391 H372 0.929 . S
C391 C388 1.388 . S
C391 N390 1.397 . S
C392 H373 0.929 . S
C392 C389 1.404 . S
C392 N390 1.334 . S
C393 H385 0.930 . S
C393 C388 1.418 . S
C393 C389 1.353 . S
C394 H364 0.930 . S
C394 N395 1.330 . S
C394 C396 1.446 . S
N395 Co354 2.151 . S
N395 C394 1.330 . S
N395 C399 1.418 . S
C396 H375 0.929 . S
C396 C394 1.446 . S
C396 C397 1.332 . S
C397 H377 0.931 . S
C397 C396 1.332 . S
C397 C398 1.267 . S
C398 H366 0.929 . S
C398 C397 1.267 . S
C398 C399 1.251 . S
C399 H369 0.929 . S
C399 N395 1.418 . S
C399 C398 1.251 . S
C400 H367 0.930 . S
C400 C402 1.406 . S
C400 C405 1.261 . S
C401 H368 0.930 . S
C401 N403 1.325 . S
C401 C404 1.357 . S
C402 H370 0.928 . S
C402 C400 1.406 . S
C402 N403 1.261 . S
N403 Co354 2.214 . S
N403 C401 1.325 . S
N403 C402 1.261 . S
C404 H374 0.931 . S
C404 C401 1.357 . S
C404 C405 1.312 . S
C405 H376 0.930 . S
C405 C400 1.261 . S
C405 C404 1.312 . S
C406 O378 1.214 . S
C406 O386 1.234 . S
C407 H379 0.929 . S
C407 C410 1.391 . S
C407 C412 1.391 . S
C408 H380 0.929 . S
C408 C409 1.390 . S
C408 N411 1.391 . S
C409 H381 0.930 . S
C409 C408 1.390 . S
C409 C410 1.392 . S
C410 H382 0.929 . S
C410 C407 1.391 . S
C410 C409 1.392 . S
N411 Co355 2.257 . S
N411 C408 1.391 . S
N411 C412 1.388 . S
C412 H383 0.930 . S
C412 C407 1.391 . S
C412 N411 1.388 . S
Co413 O415 2.143 . S
Co413 O421 2.074 . S
Co413 O424 2.093 . S
Co413 O437 2.097 . S
Co413 N454 2.151 . S
Co413 N462 2.214 . S
Co414 O415 2.160 . S
Co414 O420 2.058 . S
Co414 O430 2.057 . S
Co414 O445 2.037 . S
Co414 N449 2.145 . S
Co414 N470 2.257 . S
O415 Co413 2.143 . S
O415 Co414 2.160 . S
C416 O417 1.278 . S
C416 O424 1.224 . S
O417 C416 1.278 . S
C418 O419 1.245 . S
C418 O430 1.232 . S
O419 C418 1.245 . S
O420 Co414 2.058 . S
O420 C446 1.269 . S
O421 Co413 2.074 . S
O421 C446 1.257 . S
H422 C447 0.930 . S
H423 C453 0.930 . S
O424 Co413 2.093 . S
O424 C416 1.224 . S
H425 C457 0.929 . S
H426 C459 0.930 . S
H427 C460 0.930 . S
H428 C458 0.929 . S
H429 C461 0.928 . S
O430 Co414 2.057 . S
O430 C418 1.232 . S
H431 C450 0.929 . S
H432 C451 0.929 . S
H433 C463 0.931 . S
H434 C455 0.929 . S
H435 C464 0.930 . S
H436 C456 0.931 . S
O437 Co413 2.097 . S
O437 C465 1.214 . S
H438 C466 0.929 . S
H439 C467 0.929 . S
H440 C468 0.930 . S
H441 C469 0.929 . S
H442 C471 0.930 . S
H443 C448 0.930 . S
H444 C452 0.930 . S
O445 Co414 2.037 . S
O445 C465 1.234 . S
C446 O420 1.269 . S
C446 O421 1.257 . S
C447 H422 0.930 . S
C447 C450 1.388 . S
C447 C452 1.418 . S
C448 H443 0.930 . S
C448 C451 1.404 . S
C448 C452 1.353 . S
N449 Co414 2.145 . S
N449 C450 1.397 . S
N449 C451 1.334 . S
C450 H431 0.929 . S
C450 C447 1.388 . S
C450 N449 1.397 . S
C451 H432 0.929 . S
C451 C448 1.404 . S
C451 N449 1.334 . S
C452 H444 0.930 . S
C452 C447 1.418 . S
C452 C448 1.353 . S
C453 H423 0.930 . S
C453 N454 1.330 . S
C453 C455 1.446 . S
N454 Co413 2.151 . S
N454 C453 1.330 . S
N454 C458 1.418 . S
C455 H434 0.929 . S
C455 C453 1.446 . S
C455 C456 1.332 . S
C456 H436 0.931 . S
C456 C455 1.332 . S
C456 C457 1.267 . S
C457 H425 0.929 . S
C457 C456 1.267 . S
C457 C458 1.251 . S
C458 H428 0.929 . S
C458 N454 1.418 . S
C458 C457 1.251 . S
C459 H426 0.930 . S
C459 C461 1.406 . S
C459 C464 1.261 . S
C460 H427 0.930 . S
C460 N462 1.325 . S
C460 C463 1.357 . S
C461 H429 0.928 . S
C461 C459 1.406 . S
C461 N462 1.261 . S
N462 Co413 2.214 . S
N462 C460 1.325 . S
N462 C461 1.261 . S
C463 H433 0.931 . S
C463 C460 1.357 . S
C463 C464 1.312 . S
C464 H435 0.930 . S
C464 C459 1.261 . S
C464 C463 1.312 . S
C465 O437 1.214 . S
C465 O445 1.234 . S
C466 H438 0.929 . S
C466 C469 1.391 . S
C466 C471 1.391 . S
C467 H439 0.929 . S
C467 C468 1.390 . S
C467 N470 1.391 . S
C468 H440 0.930 . S
C468 C467 1.390 . S
C468 C469 1.392 . S
C469 H441 0.929 . S
C469 C466 1.391 . S
C469 C468 1.392 . S
N470 Co414 2.257 . S
N470 C467 1.391 . S
N470 C471 1.388 . S
C471 H442 0.930 . S
C471 C466 1.391 . S
C471 N470 1.388 . S
Co472 O474 2.143 . S
Co472 O480 2.074 . S
Co472 O483 2.093 . S
Co472 O496 2.097 . S
Co472 N513 2.151 . S
Co472 N521 2.214 . S
Co473 O474 2.160 . S
Co473 O479 2.058 . S
Co473 O489 2.057 . S
Co473 O504 2.037 . S
Co473 N508 2.145 . S
Co473 N529 2.257 . S
O474 Co472 2.143 . S
O474 Co473 2.160 . S
C475 O476 1.278 . S
C475 O483 1.224 . S
O476 C475 1.278 . S
C477 O478 1.245 . S
C477 O489 1.232 . S
O478 C477 1.245 . S
O479 Co473 2.058 . S
O479 C505 1.269 . S
O480 Co472 2.074 . S
O480 C505 1.257 . S
H481 C506 0.930 . S
H482 C512 0.930 . S
O483 Co472 2.093 . S
O483 C475 1.224 . S
H484 C516 0.929 . S
H485 C518 0.930 . S
H486 C519 0.930 . S
H487 C517 0.929 . S
H488 C520 0.928 . S
O489 Co473 2.057 . S
O489 C477 1.232 . S
H490 C509 0.929 . S
H491 C510 0.929 . S
H492 C522 0.931 . S
H493 C514 0.929 . S
H494 C523 0.930 . S
H495 C515 0.931 . S
O496 Co472 2.097 . S
O496 C524 1.214 . S
H497 C525 0.929 . S
H498 C526 0.929 . S
H499 C527 0.930 . S
H500 C528 0.929 . S
H501 C530 0.930 . S
H502 C507 0.930 . S
H503 C511 0.930 . S
O504 Co473 2.037 . S
O504 C524 1.234 . S
C505 O479 1.269 . S
C505 O480 1.257 . S
C506 H481 0.930 . S
C506 C509 1.388 . S
C506 C511 1.418 . S
C507 H502 0.930 . S
C507 C510 1.404 . S
C507 C511 1.353 . S
N508 Co473 2.145 . S
N508 C509 1.397 . S
N508 C510 1.334 . S
C509 H490 0.929 . S
C509 C506 1.388 . S
C509 N508 1.397 . S
C510 H491 0.929 . S
C510 C507 1.404 . S
C510 N508 1.334 . S
C511 H503 0.930 . S
C511 C506 1.418 . S
C511 C507 1.353 . S
C512 H482 0.930 . S
C512 N513 1.330 . S
C512 C514 1.446 . S
N513 Co472 2.151 . S
N513 C512 1.330 . S
N513 C517 1.418 . S
C514 H493 0.929 . S
C514 C512 1.446 . S
C514 C515 1.332 . S
C515 H495 0.931 . S
C515 C514 1.332 . S
C515 C516 1.267 . S
C516 H484 0.929 . S
C516 C515 1.267 . S
C516 C517 1.251 . S
C517 H487 0.929 . S
C517 N513 1.418 . S
C517 C516 1.251 . S
C518 H485 0.930 . S
C518 C520 1.406 . S
C518 C523 1.261 . S
C519 H486 0.930 . S
C519 N521 1.325 . S
C519 C522 1.357 . S
C520 H488 0.928 . S
C520 C518 1.406 . S
C520 N521 1.261 . S
N521 Co472 2.214 . S
N521 C519 1.325 . S
N521 C520 1.261 . S
C522 H492 0.931 . S
C522 C519 1.357 . S
C522 C523 1.312 . S
C523 H494 0.930 . S
C523 C518 1.261 . S
C523 C522 1.312 . S
C524 O496 1.214 . S
C524 O504 1.234 . S
C525 H497 0.929 . S
C525 C528 1.391 . S
C525 C530 1.391 . S
C526 H498 0.929 . S
C526 C527 1.390 . S
C526 N529 1.391 . S
C527 H499 0.930 . S
C527 C526 1.390 . S
C527 C528 1.392 . S
C528 H500 0.929 . S
C528 C525 1.391 . S
C528 C527 1.392 . S
N529 Co473 2.257 . S
N529 C526 1.391 . S
N529 C530 1.388 . S
C530 H501 0.930 . S
C530 C525 1.391 . S
C530 N529 1.388 . S
C531 C532 1.391 . S
C531 C533 1.394 . S
C531 H547 0.931 . S
C532 C531 1.391 . S
C532 C536 1.376 . S
C533 C531 1.394 . S
C533 C534 1.369 . S
C533 C537 1.531 . S
C534 C533 1.369 . S
C534 C535 1.410 . S
C534 C542 1.503 . S
C535 C534 1.410 . S
C535 C536 1.392 . S
C535 C538 1.511 . S
C536 C532 1.376 . S
C536 C535 1.392 . S
C536 H548 0.929 . S
C537 C533 1.531 . S
C537 H549 0.960 1_554 S
C537 H550 0.962 . S
C537 H551 0.960 1_554 S
C538 C535 1.511 . S
C538 H552 0.961 . S
C538 H553 0.961 . S
C538 H554 0.961 1_554 S
C539 C540 1.370 . S
C539 C541 1.363 . S
C539 H555 0.931 . S
C540 C539 1.370 . S
C540 C544 1.408 1_554 S
C541 C539 1.363 . S
C541 C542 1.370 . S
C541 C545 1.524 . S
C542 C534 1.503 . S
C542 C541 1.370 . S
C542 C543 1.403 1_554 S
C543 C542 1.403 1_556 S
C543 C544 1.404 . S
C543 C546 1.539 . S
C544 C540 1.408 1_556 S
C544 C543 1.404 . S
C544 H556 0.930 . S
C545 C541 1.524 . S
C545 H557 0.956 . S
C545 H558 0.961 . S
C545 H559 0.961 . S
C546 C543 1.539 . S
C546 H560 0.958 . S
C546 H561 0.961 . S
C546 H562 0.960 . S
H547 C531 0.931 . S
H548 C536 0.929 . S
H549 C537 0.960 1_556 S
H550 C537 0.962 . S
H551 C537 0.960 1_556 S
H552 C538 0.961 . S
H553 C538 0.961 . S
H554 C538 0.961 1_556 S
H555 C539 0.931 . S
H556 C544 0.930 . S
H557 C545 0.956 . S
H558 C545 0.961 . S
H559 C545 0.961 . S
H560 C546 0.958 . S
H561 C546 0.961 . S
H562 C546 0.960 . S
C563 C564 1.391 1_556 S
C563 C565 1.394 . S
C563 H579 0.931 . S
C564 C563 1.391 1_554 S
C564 C568 1.376 . S
C565 C563 1.394 . S
C565 C566 1.369 1_566 S
C565 C569 1.531 1_565 S
C566 C565 1.369 1_544 S
C566 C567 1.410 1_545 S
C566 C574 1.503 . S
C567 C566 1.410 1_565 S
C567 C568 1.392 . S
C567 C570 1.511 . S
C568 C564 1.376 . S
C568 C567 1.392 . S
C568 H580 0.929 . S
C569 C565 1.531 1_545 S
C569 H581 0.960 . S
C569 H582 0.962 . S
C569 H583 0.960 1_545 S
C570 C567 1.511 . S
C570 H584 0.961 . S
C570 H585 0.961 1_565 S
C570 H586 0.961 1_565 S
C571 C572 1.370 . S
C571 C573 1.363 . S
C571 H587 0.931 . S
C572 C571 1.370 . S
C572 C576 1.424 . S
C573 C571 1.363 . S
C573 C574 1.370 . S
C573 C577 1.524 . S
C574 C566 1.503 . S
C574 C573 1.370 . S
C574 C575 1.403 1_554 S
C575 C574 1.403 1_556 S
C575 C576 1.401 1_556 S
C575 C578 1.539 . S
C576 C572 1.424 . S
C576 C575 1.401 1_554 S
C576 H588 0.918 1_554 S
C577 C573 1.524 . S
C577 H589 0.956 . S
C577 H590 0.961 . S
C577 H591 0.961 . S
C578 C575 1.539 . S
C578 H592 0.958 . S
C578 H593 0.961 . S
C578 H594 0.960 . S
H579 C563 0.931 . S
H580 C568 0.929 . S
H581 C569 0.960 . S
H582 C569 0.962 . S
H583 C569 0.960 1_565 S
H584 C570 0.961 . S
H585 C570 0.961 1_545 S
H586 C570 0.961 1_545 S
H587 C571 0.931 . S
H588 C576 0.918 1_556 S
H589 C577 0.956 . S
H590 C577 0.961 . S
H591 C577 0.961 . S
H592 C578 0.958 . S
H593 C578 0.961 . S
H594 C578 0.960 . S
C595 C596 1.393 . S
C595 C597 1.393 1_554 S
C595 H611 0.929 1_554 S
C596 C595 1.393 . S
C596 C600 1.376 . S
C597 C595 1.393 1_556 S
C597 C598 1.369 1_556 S
C597 C601 1.531 . S
C598 C597 1.369 1_554 S
C598 C599 1.410 . S
C598 C606 1.503 1_655 S
C599 C598 1.410 . S
C599 C600 1.392 . S
C599 C602 1.511 . S
C600 C596 1.376 . S
C600 C599 1.392 . S
C600 H612 0.929 . S
C601 C597 1.531 . S
C601 H613 0.960 1_655 S
C601 H614 0.962 1_655 S
C601 H615 0.960 . S
C602 C599 1.511 . S
C602 H616 0.961 . S
C602 H617 0.961 1_655 S
C602 H618 0.966 1_655 S
C603 C604 1.370 . S
C603 C605 1.363 . S
C603 H619 0.931 . S
C604 C603 1.370 . S
C604 C608 1.408 1_554 S
C605 C603 1.363 . S
C605 C606 1.370 . S
C605 C609 1.524 . S
C606 C598 1.503 1_455 S
C606 C605 1.370 . S
C606 C607 1.403 1_554 S
C607 C606 1.403 1_556 S
C607 C608 1.404 . S
C607 C610 1.539 . S
C608 C604 1.408 1_556 S
C608 C607 1.404 . S
C608 H620 0.930 . S
C609 C605 1.524 . S
C609 H621 0.956 . S
C609 H622 0.961 . S
C609 H623 0.961 . S
C610 C607 1.539 . S
C610 H624 0.958 . S
C610 H625 0.961 . S
C610 H626 0.960 . S
H611 C595 0.929 1_556 S
H612 C600 0.929 . S
H613 C601 0.960 1_455 S
H614 C601 0.962 1_455 S
H615 C601 0.960 . S
H616 C602 0.961 . S
H617 C602 0.961 1_455 S
H618 C602 0.966 1_455 S
H619 C603 0.931 . S
H620 C608 0.930 . S
H621 C609 0.956 . S
H622 C609 0.961 . S
H623 C609 0.961 . S
H624 C610 0.958 . S
H625 C610 0.961 . S
H626 C610 0.960 . S
C627 C628 1.391 . S
C627 C629 1.394 . S
C627 H643 0.931 . S
C628 C627 1.391 . S
C628 C632 1.376 . S
C629 C627 1.394 . S
C629 C630 1.369 . S
C629 C633 1.531 . S
C630 C629 1.369 . S
C630 C631 1.410 . S
C630 C638 1.503 . S
C631 C630 1.410 . S
C631 C632 1.392 . S
C631 C634 1.511 . S
C632 C628 1.376 . S
C632 C631 1.392 . S
C632 H644 0.929 . S
C633 C629 1.531 . S
C633 H645 0.960 . S
C633 H646 0.962 . S
C633 H647 0.960 . S
C634 C631 1.511 . S
C634 H648 0.961 . S
C634 H649 0.961 . S
C634 H650 0.961 . S
C635 C636 1.370 . S
C635 C637 1.363 . S
C635 H651 0.931 . S
C636 C635 1.370 . S
C636 C640 1.408 . S
C637 C635 1.363 . S
C637 C638 1.370 . S
C637 C641 1.524 . S
C638 C630 1.503 . S
C638 C637 1.370 . S
C638 C639 1.403 . S
C639 C638 1.403 . S
C639 C640 1.404 . S
C639 C642 1.539 . S
C640 C636 1.408 . S
C640 C639 1.404 . S
C640 H652 0.930 . S
C641 C637 1.524 . S
C641 H653 0.956 . S
C641 H654 0.961 . S
C641 H655 0.961 . S
C642 C639 1.539 . S
C642 H656 0.958 . S
C642 H657 0.961 . S
C642 H658 0.960 . S
H643 C627 0.931 . S
H644 C632 0.929 . S
H645 C633 0.960 . S
H646 C633 0.962 . S
H647 C633 0.960 . S
H648 C634 0.961 . S
H649 C634 0.961 . S
H650 C634 0.961 . S
H651 C635 0.931 . S
H652 C640 0.930 . S
H653 C641 0.956 . S
H654 C641 0.961 . S
H655 C641 0.961 . S
H656 C642 0.958 . S
H657 C642 0.961 . S
H658 C642 0.960 . S
C659 C660 1.391 . S
C659 C661 1.394 . S
C659 H675 0.931 . S
C660 C659 1.391 . S
C660 C664 1.376 . S
C661 C659 1.394 . S
C661 C662 1.369 . S
C661 C665 1.531 . S
C662 C661 1.369 . S
C662 C663 1.410 . S
C662 C670 1.503 . S
C663 C662 1.410 . S
C663 C664 1.392 . S
C663 C666 1.511 . S
C664 C660 1.376 . S
C664 C663 1.392 . S
C664 H676 0.929 . S
C665 C661 1.531 . S
C665 H677 0.960 . S
C665 H678 0.962 . S
C665 H679 0.960 . S
C666 C663 1.511 . S
C666 H680 0.961 . S
C666 H681 0.961 . S
C666 H682 0.961 . S
C667 C668 1.370 . S
C667 C669 1.363 . S
C667 H683 0.931 . S
C668 C667 1.370 . S
C668 C672 1.408 . S
C669 C667 1.363 . S
C669 C670 1.370 . S
C669 C673 1.524 . S
C670 C662 1.503 . S
C670 C669 1.370 . S
C670 C671 1.403 . S
C671 C670 1.403 . S
C671 C672 1.404 . S
C671 C674 1.539 . S
C672 C668 1.408 . S
C672 C671 1.404 . S
C672 H684 0.930 . S
C673 C669 1.524 . S
C673 H685 0.956 . S
C673 H686 0.961 . S
C673 H687 0.961 . S
C674 C671 1.539 . S
C674 H688 0.958 . S
C674 H689 0.961 . S
C674 H690 0.960 . S
H675 C659 0.931 . S
H676 C664 0.929 . S
H677 C665 0.960 . S
H678 C665 0.962 . S
H679 C665 0.960 . S
H680 C666 0.961 . S
H681 C666 0.961 . S
H682 C666 0.961 . S
H683 C667 0.931 . S
H684 C672 0.930 . S
H685 C673 0.956 . S
H686 C673 0.961 . S
H687 C673 0.961 . S
H688 C674 0.958 . S
H689 C674 0.961 . S
H690 C674 0.960 . S
C691 C692 1.391 . S
C691 C693 1.394 . S
C691 H707 0.931 . S
C692 C691 1.391 . S
C692 C696 1.376 . S
C693 C691 1.394 . S
C693 C694 1.369 . S
C693 C697 1.531 . S
C694 C693 1.369 . S
C694 C695 1.410 . S
C694 C702 1.503 . S
C695 C694 1.410 . S
C695 C696 1.392 . S
C695 C698 1.511 . S
C696 C692 1.376 . S
C696 C695 1.392 . S
C696 H708 0.929 . S
C697 C693 1.531 . S
C697 H709 0.960 . S
C697 H710 0.962 . S
C697 H711 0.960 . S
C698 C695 1.511 . S
C698 H712 0.961 . S
C698 H713 0.961 . S
C698 H714 0.961 . S
C699 C700 1.370 . S
C699 C701 1.363 . S
C699 H715 0.931 . S
C700 C699 1.370 . S
C700 C704 1.408 . S
C701 C699 1.363 . S
C701 C702 1.370 . S
C701 C705 1.524 . S
C702 C694 1.503 . S
C702 C701 1.370 . S
C702 C703 1.403 . S
C703 C702 1.403 . S
C703 C704 1.404 . S
C703 C706 1.539 . S
C704 C700 1.408 . S
C704 C703 1.404 . S
C704 H716 0.930 . S
C705 C701 1.524 . S
C705 H717 0.956 . S
C705 H718 0.961 . S
C705 H719 0.961 . S
C706 C703 1.539 . S
C706 H720 0.958 . S
C706 H721 0.961 . S
C706 H722 0.960 . S
H707 C691 0.931 . S
H708 C696 0.929 . S
H709 C697 0.960 . S
H710 C697 0.962 . S
H711 C697 0.960 . S
H712 C698 0.961 . S
H713 C698 0.961 . S
H714 C698 0.961 . S
H715 C699 0.931 . S
H716 C704 0.930 . S
H717 C705 0.956 . S
H718 C705 0.961 . S
H719 C705 0.961 . S
H720 C706 0.958 . S
H721 C706 0.961 . S
H722 C706 0.960 . S
C723 C724 1.391 . S
C723 C725 1.394 . S
C723 H739 0.931 . S
C724 C723 1.391 . S
C724 C728 1.376 . S
C725 C723 1.394 . S
C725 C726 1.369 . S
C725 C729 1.531 . S
C726 C725 1.369 . S
C726 C727 1.410 . S
C726 C734 1.503 . S
C727 C726 1.410 . S
C727 C728 1.392 . S
C727 C730 1.511 . S
C728 C724 1.376 . S
C728 C727 1.392 . S
C728 H740 0.929 . S
C729 C725 1.531 . S
C729 H741 0.960 . S
C729 H742 0.962 . S
C729 H743 0.960 . S
C730 C727 1.511 . S
C730 H744 0.961 . S
C730 H745 0.961 . S
C730 H746 0.961 . S
C731 C732 1.370 . S
C731 C733 1.363 . S
C731 H747 0.931 . S
C732 C731 1.370 . S
C732 C736 1.408 . S
C733 C731 1.363 . S
C733 C734 1.370 . S
C733 C737 1.524 . S
C734 C726 1.503 . S
C734 C733 1.370 . S
C734 C735 1.403 . S
C735 C734 1.403 . S
C735 C736 1.404 . S
C735 C738 1.539 . S
C736 C732 1.408 . S
C736 C735 1.404 . S
C736 H748 0.930 . S
C737 C733 1.524 . S
C737 H749 0.956 . S
C737 H750 0.961 . S
C737 H751 0.961 . S
C738 C735 1.539 . S
C738 H752 0.958 . S
C738 H753 0.961 . S
C738 H754 0.960 . S
H739 C723 0.931 . S
H740 C728 0.929 . S
H741 C729 0.960 . S
H742 C729 0.962 . S
H743 C729 0.960 . S
H744 C730 0.961 . S
H745 C730 0.961 . S
H746 C730 0.961 . S
H747 C731 0.931 . S
H748 C736 0.930 . S
H749 C737 0.956 . S
H750 C737 0.961 . S
H751 C737 0.961 . S
H752 C738 0.958 . S
H753 C738 0.961 . S
H754 C738 0.960 . S
C755 C756 1.391 . S
C755 C757 1.394 . S
C755 H771 0.931 . S
C756 C755 1.391 . S
C756 C760 1.376 . S
C757 C755 1.394 . S
C757 C758 1.369 . S
C757 C761 1.531 . S
C758 C757 1.369 . S
C758 C759 1.410 . S
C758 C766 1.503 . S
C759 C758 1.410 . S
C759 C760 1.392 . S
C759 C762 1.511 . S
C760 C756 1.376 . S
C760 C759 1.392 . S
C760 H772 0.929 . S
C761 C757 1.531 . S
C761 H773 0.960 . S
C761 H774 0.962 . S
C761 H775 0.960 . S
C762 C759 1.511 . S
C762 H776 0.961 . S
C762 H777 0.961 . S
C762 H778 0.961 . S
C763 C764 1.370 . S
C763 C765 1.363 . S
C763 H779 0.931 . S
C764 C763 1.370 . S
C764 C768 1.408 . S
C765 C763 1.363 . S
C765 C766 1.370 . S
C765 C769 1.524 . S
C766 C758 1.503 . S
C766 C765 1.370 . S
C766 C767 1.403 . S
C767 C766 1.403 . S
C767 C768 1.404 . S
C767 C770 1.539 . S
C768 C764 1.408 . S
C768 C767 1.404 . S
C768 H780 0.930 . S
C769 C765 1.524 . S
C769 H781 0.956 . S
C769 H782 0.961 . S
C769 H783 0.961 . S
C770 C767 1.539 . S
C770 H784 0.958 . S
C770 H785 0.961 . S
C770 H786 0.960 . S
H771 C755 0.931 . S
H772 C760 0.929 . S
H773 C761 0.960 . S
H774 C761 0.962 . S
H775 C761 0.960 . S
H776 C762 0.961 . S
H777 C762 0.961 . S
H778 C762 0.961 . S
H779 C763 0.931 . S
H780 C768 0.930 . S
H781 C769 0.956 . S
H782 C769 0.961 . S
H783 C769 0.961 . S
H784 C770 0.958 . S
H785 C770 0.961 . S
H786 C770 0.960 . S
C787 C788 1.391 . S
C787 C789 1.394 . S
C787 H803 0.931 . S
C788 C787 1.391 . S
C788 C792 1.376 . S
C789 C787 1.394 . S
C789 C790 1.369 . S
C789 C793 1.531 . S
C790 C789 1.369 . S
C790 C791 1.410 . S
C790 C798 1.503 . S
C791 C790 1.410 . S
C791 C792 1.392 . S
C791 C794 1.511 . S
C792 C788 1.376 . S
C792 C791 1.392 . S
C792 H804 0.929 . S
C793 C789 1.531 . S
C793 H805 0.960 . S
C793 H806 0.962 . S
C793 H807 0.960 . S
C794 C791 1.511 . S
C794 H808 0.961 . S
C794 H809 0.961 . S
C794 H810 0.961 . S
C795 C796 1.370 . S
C795 C797 1.363 . S
C795 H811 0.931 . S
C796 C795 1.370 . S
C796 C800 1.408 . S
C797 C795 1.363 . S
C797 C798 1.370 . S
C797 C801 1.524 . S
C798 C790 1.503 . S
C798 C797 1.370 . S
C798 C799 1.403 . S
C799 C798 1.403 . S
C799 C800 1.404 . S
C799 C802 1.539 . S
C800 C796 1.408 . S
C800 C799 1.404 . S
C800 H812 0.930 . S
C801 C797 1.524 . S
C801 H813 0.956 . S
C801 H814 0.961 . S
C801 H815 0.961 . S
C802 C799 1.539 . S
C802 H816 0.958 . S
C802 H817 0.961 . S
C802 H818 0.960 . S
H803 C787 0.931 . S
H804 C792 0.929 . S
H805 C793 0.960 . S
H806 C793 0.962 . S
H807 C793 0.960 . S
H808 C794 0.961 . S
H809 C794 0.961 . S
H810 C794 0.961 . S
H811 C795 0.931 . S
H812 C800 0.930 . S
H813 C801 0.956 . S
H814 C801 0.961 . S
H815 C801 0.961 . S
H816 C802 0.958 . S
H817 C802 0.961 . S
H818 C802 0.960 . S
C819 C820 1.391 . S
C819 C821 1.394 . S
C819 H835 0.931 . S
C820 C819 1.391 . S
C820 C824 1.376 . S
C821 C819 1.394 . S
C821 C822 1.369 . S
C821 C825 1.531 . S
C822 C821 1.369 . S
C822 C823 1.410 . S
C822 C830 1.503 . S
C823 C822 1.410 . S
C823 C824 1.392 . S
C823 C826 1.511 . S
C824 C820 1.376 . S
C824 C823 1.392 . S
C824 H836 0.929 . S
C825 C821 1.531 . S
C825 H837 0.960 . S
C825 H838 0.962 . S
C825 H839 0.960 . S
C826 C823 1.511 . S
C826 H840 0.961 . S
C826 H841 0.961 . S
C826 H842 0.961 . S
C827 C828 1.370 . S
C827 C829 1.363 . S
C827 H843 0.931 . S
C828 C827 1.370 . S
C828 C832 1.408 . S
C829 C827 1.363 . S
C829 C830 1.370 . S
C829 C833 1.524 . S
C830 C822 1.503 . S
C830 C829 1.370 . S
C830 C831 1.403 . S
C831 C830 1.403 . S
C831 C832 1.404 . S
C831 C834 1.539 . S
C832 C828 1.408 . S
C832 C831 1.404 . S
C832 H844 0.930 . S
C833 C829 1.524 . S
C833 H845 0.956 . S
C833 H846 0.961 . S
C833 H847 0.961 . S
C834 C831 1.539 . S
C834 H848 0.958 . S
C834 H849 0.961 . S
C834 H850 0.960 . S
H835 C819 0.931 . S
H836 C824 0.929 . S
H837 C825 0.960 . S
H838 C825 0.962 . S
H839 C825 0.960 . S
H840 C826 0.961 . S
H841 C826 0.961 . S
H842 C826 0.961 . S
H843 C827 0.931 . S
H844 C832 0.930 . S
H845 C833 0.956 . S
H846 C833 0.961 . S
H847 C833 0.961 . S
H848 C834 0.958 . S
H849 C834 0.961 . S
H850 C834 0.960 . S
C851 C852 1.391 . S
C851 C853 1.394 . S
C851 H867 0.931 . S
C852 C851 1.391 . S
C852 C856 1.376 . S
C853 C851 1.394 . S
C853 C854 1.369 . S
C853 C857 1.531 . S
C854 C853 1.369 . S
C854 C855 1.410 . S
C854 C862 1.503 . S
C855 C854 1.410 . S
C855 C856 1.392 . S
C855 C858 1.511 . S
C856 C852 1.376 . S
C856 C855 1.392 . S
C856 H868 0.929 . S
C857 C853 1.531 . S
C857 H869 0.960 . S
C857 H870 0.962 . S
C857 H871 0.960 . S
C858 C855 1.511 . S
C858 H872 0.961 . S
C858 H873 0.961 . S
C858 H874 0.961 . S
C859 C860 1.370 . S
C859 C861 1.363 . S
C859 H875 0.931 . S
C860 C859 1.370 . S
C860 C864 1.408 . S
C861 C859 1.363 . S
C861 C862 1.370 . S
C861 C865 1.524 . S
C862 C854 1.503 . S
C862 C861 1.370 . S
C862 C863 1.403 . S
C863 C862 1.403 . S
C863 C864 1.404 . S
C863 C866 1.539 . S
C864 C860 1.408 . S
C864 C863 1.404 . S
C864 H876 0.930 . S
C865 C861 1.524 . S
C865 H877 0.956 . S
C865 H878 0.961 . S
C865 H879 0.961 . S
C866 C863 1.539 . S
C866 H880 0.958 . S
C866 H881 0.961 . S
C866 H882 0.960 . S
H867 C851 0.931 . S
H868 C856 0.929 . S
H869 C857 0.960 . S
H870 C857 0.962 . S
H871 C857 0.960 . S
H872 C858 0.961 . S
H873 C858 0.961 . S
H874 C858 0.961 . S
H875 C859 0.931 . S
H876 C864 0.930 . S
H877 C865 0.956 . S
H878 C865 0.961 . S
H879 C865 0.961 . S
H880 C866 0.958 . S
H881 C866 0.961 . S
H882 C866 0.960 . S
C883 C884 1.391 . S
C883 C885 1.394 . S
C883 H899 0.931 . S
C884 C883 1.391 . S
C884 C888 1.376 . S
C885 C883 1.394 . S
C885 C886 1.369 . S
C885 C889 1.531 . S
C886 C885 1.369 . S
C886 C887 1.410 . S
C886 C894 1.503 . S
C887 C886 1.410 . S
C887 C888 1.392 . S
C887 C890 1.511 . S
C888 C884 1.376 . S
C888 C887 1.392 . S
C888 H900 0.929 . S
C889 C885 1.531 . S
C889 H901 0.960 . S
C889 H902 0.962 . S
C889 H903 0.960 . S
C890 C887 1.511 . S
C890 H904 0.961 . S
C890 H905 0.961 . S
C890 H906 0.961 . S
C891 C892 1.370 . S
C891 C893 1.363 . S
C891 H907 0.931 . S
C892 C891 1.370 . S
C892 C896 1.408 . S
C893 C891 1.363 . S
C893 C894 1.370 . S
C893 C897 1.524 . S
C894 C886 1.503 . S
C894 C893 1.370 . S
C894 C895 1.403 . S
C895 C894 1.403 . S
C895 C896 1.404 . S
C895 C898 1.539 . S
C896 C892 1.408 . S
C896 C895 1.404 . S
C896 H908 0.930 . S
C897 C893 1.524 . S
C897 H909 0.956 . S
C897 H910 0.961 . S
C897 H911 0.961 . S
C898 C895 1.539 . S
C898 H912 0.958 . S
C898 H913 0.961 . S
C898 H914 0.960 . S
H899 C883 0.931 . S
H900 C888 0.929 . S
H901 C889 0.960 . S
H902 C889 0.962 . S
H903 C889 0.960 . S
H904 C890 0.961 . S
H905 C890 0.961 . S
H906 C890 0.961 . S
H907 C891 0.931 . S
H908 C896 0.930 . S
H909 C897 0.956 . S
H910 C897 0.961 . S
H911 C897 0.961 . S
H912 C898 0.958 . S
H913 C898 0.961 . S
H914 C898 0.960 . S
C915 C916 1.391 . S
C915 C917 1.394 . S
C915 H931 0.931 . S
C916 C915 1.391 . S
C916 C920 1.376 . S
C917 C915 1.394 . S
C917 C918 1.369 . S
C917 C921 1.531 . S
C918 C917 1.369 . S
C918 C919 1.410 . S
C918 C926 1.503 . S
C919 C918 1.410 . S
C919 C920 1.392 . S
C919 C922 1.511 . S
C920 C916 1.376 . S
C920 C919 1.392 . S
C920 H932 0.929 . S
C921 C917 1.531 . S
C921 H933 0.960 . S
C921 H934 0.962 . S
C921 H935 0.960 . S
C922 C919 1.511 . S
C922 H936 0.961 . S
C922 H937 0.961 . S
C922 H938 0.961 . S
C923 C924 1.370 . S
C923 C925 1.363 . S
C923 H939 0.931 . S
C924 C923 1.370 . S
C924 C928 1.408 . S
C925 C923 1.363 . S
C925 C926 1.370 . S
C925 C929 1.524 . S
C926 C918 1.503 . S
C926 C925 1.370 . S
C926 C927 1.403 . S
C927 C926 1.403 . S
C927 C928 1.404 . S
C927 C930 1.539 . S
C928 C924 1.408 . S
C928 C927 1.404 . S
C928 H940 0.930 . S
C929 C925 1.524 . S
C929 H941 0.956 . S
C929 H942 0.961 . S
C929 H943 0.961 . S
C930 C927 1.539 . S
C930 H944 0.958 . S
C930 H945 0.961 . S
C930 H946 0.960 . S
H931 C915 0.931 . S
H932 C920 0.929 . S
H933 C921 0.960 . S
H934 C921 0.962 . S
H935 C921 0.960 . S
H936 C922 0.961 . S
H937 C922 0.961 . S
H938 C922 0.961 . S
H939 C923 0.931 . S
H940 C928 0.930 . S
H941 C929 0.956 . S
H942 C929 0.961 . S
H943 C929 0.961 . S
H944 C930 0.958 . S
H945 C930 0.961 . S
H946 C930 0.960 . S
C947 C948 1.391 . S
C947 C949 1.394 . S
C947 H963 0.931 . S
C948 C947 1.391 . S
C948 C952 1.376 . S
C949 C947 1.394 . S
C949 C950 1.369 . S
C949 C953 1.531 . S
C950 C949 1.369 . S
C950 C951 1.410 . S
C950 C958 1.503 . S
C951 C950 1.410 . S
C951 C952 1.392 . S
C951 C954 1.511 . S
C952 C948 1.376 . S
C952 C951 1.392 . S
C952 H964 0.929 1_655 S
C953 C949 1.531 . S
C953 H965 0.960 . S
C953 H966 0.962 . S
C953 H967 0.960 . S
C954 C951 1.511 . S
C954 H968 0.961 1_655 S
C954 H969 0.961 . S
C954 H970 0.961 1_655 S
C955 C956 1.370 . S
C955 C957 1.363 . S
C955 H971 0.931 . S
C956 C955 1.370 . S
C956 C960 1.408 . S
C957 C955 1.363 . S
C957 C958 1.370 . S
C957 C961 1.524 . S
C958 C950 1.503 . S
C958 C957 1.370 . S
C958 C959 1.403 . S
C959 C958 1.403 . S
C959 C960 1.404 . S
C959 C962 1.539 . S
C960 C956 1.408 . S
C960 C959 1.404 . S
C960 H972 0.930 . S
C961 C957 1.524 . S
C961 H973 0.956 . S
C961 H974 0.961 . S
C961 H975 0.961 . S
C962 C959 1.539 . S
C962 H976 0.958 . S
C962 H977 0.961 . S
C962 H978 0.960 . S
H963 C947 0.931 . S
H964 C952 0.929 1_455 S
H965 C953 0.960 . S
H966 C953 0.962 . S
H967 C953 0.960 . S
H968 C954 0.961 1_455 S
H969 C954 0.961 . S
H970 C954 0.961 1_455 S
H971 C955 0.931 . S
H972 C960 0.930 . S
H973 C961 0.956 . S
H974 C961 0.961 . S
H975 C961 0.961 . S
H976 C962 0.958 . S
H977 C962 0.961 . S
H978 C962 0.960 . S
C979 C980 1.391 . S
C979 C981 1.394 . S
C979 H995 0.931 . S
C980 C979 1.391 . S
C980 C984 1.376 . S
C981 C979 1.394 . S
C981 C982 1.369 . S
C981 C985 1.531 . S
C982 C981 1.369 . S
C982 C983 1.410 . S
C982 C990 1.503 . S
C983 C982 1.410 . S
C983 C984 1.392 . S
C983 C986 1.511 . S
C984 C980 1.376 . S
C984 C983 1.392 . S
C984 H996 0.929 . S
C985 C981 1.531 . S
C985 H997 0.960 . S
C985 H998 0.962 . S
C985 H999 0.960 . S
C986 C983 1.511 . S
C986 H1000 0.961 . S
C986 H1001 0.961 . S
C986 H1002 0.961 . S
C987 C988 1.370 . S
C987 C989 1.363 . S
C987 H1003 0.931 . S
C988 C987 1.370 . S
C988 C992 1.408 . S
C989 C987 1.363 . S
C989 C990 1.370 . S
C989 C993 1.524 . S
C990 C982 1.503 . S
C990 C989 1.370 . S
C990 C991 1.403 . S
C991 C990 1.403 . S
C991 C992 1.404 . S
C991 C994 1.539 . S
C992 C988 1.408 . S
C992 C991 1.404 . S
C992 H1004 0.930 . S
C993 C989 1.524 . S
C993 H1005 0.956 . S
C993 H1006 0.961 . S
C993 H1007 0.961 . S
C994 C991 1.539 . S
C994 H1008 0.958 . S
C994 H1009 0.961 . S
C994 H1010 0.960 . S
H995 C979 0.931 . S
H996 C984 0.929 . S
H997 C985 0.960 . S
H998 C985 0.962 . S
H999 C985 0.960 . S
H1000 C986 0.961 . S
H1001 C986 0.961 . S
H1002 C986 0.961 . S
H1003 C987 0.931 . S
H1004 C992 0.930 . S
H1005 C993 0.956 . S
H1006 C993 0.961 . S
H1007 C993 0.961 . S
H1008 C994 0.958 . S
H1009 C994 0.961 . S
H1010 C994 0.960 . S
C1011 C1012 1.391 . S
C1011 C1013 1.394 . S
C1011 H1027 0.931 . S
C1012 C1011 1.391 . S
C1012 C1016 1.376 . S
C1013 C1011 1.394 . S
C1013 C1014 1.369 . S
C1013 C1017 1.531 . S
C1014 C1013 1.369 . S
C1014 C1015 1.410 . S
C1014 C1022 1.503 . S
C1015 C1014 1.410 . S
C1015 C1016 1.392 . S
C1015 C1018 1.511 1_455 S
C1016 C1012 1.376 . S
C1016 C1015 1.392 . S
C1016 H1028 0.929 . S
C1017 C1013 1.531 . S
C1017 H1029 0.960 . S
C1017 H1030 0.962 . S
C1017 H1031 0.960 . S
C1018 C1015 1.511 1_655 S
C1018 H1032 0.961 . S
C1018 H1033 0.961 . S
C1018 H1034 0.961 . S
C1019 C1020 1.370 . S
C1019 C1021 1.363 . S
C1019 H1035 0.931 . S
C1020 C1019 1.370 . S
C1020 C1024 1.408 . S
C1021 C1019 1.363 . S
C1021 C1022 1.370 1_655 S
C1021 C1025 1.524 . S
C1022 C1014 1.503 . S
C1022 C1021 1.370 1_455 S
C1022 C1023 1.392 . S
C1023 C1022 1.392 . S
C1023 C1024 1.378 1_455 S
C1023 C1026 1.575 . S
C1024 C1020 1.408 . S
C1024 C1023 1.378 1_655 S
C1024 H1036 0.930 . S
C1025 C1021 1.524 . S
C1025 H1037 0.956 1_655 S
C1025 H1038 0.961 . S
C1025 H1039 0.961 . S
C1026 C1023 1.575 . S
C1026 H1040 0.958 . S
C1026 H1041 0.961 . S
C1026 H1042 0.960 . S
H1027 C1011 0.931 . S
H1028 C1016 0.929 . S
H1029 C1017 0.960 . S
H1030 C1017 0.962 . S
H1031 C1017 0.960 . S
H1032 C1018 0.961 . S
H1033 C1018 0.961 . S
H1034 C1018 0.961 . S
H1035 C1019 0.931 . S
H1036 C1024 0.930 . S
H1037 C1025 0.956 1_455 S
H1038 C1025 0.961 . S
H1039 C1025 0.961 . S
H1040 C1026 0.958 . S
H1041 C1026 0.961 . S
H1042 C1026 0.960 . S
C1043 C1044 1.391 . S
C1043 C1045 1.394 . S
C1043 H1059 0.931 . S
C1044 C1043 1.391 . S
C1044 C1048 1.376 . S
C1045 C1043 1.394 . S
C1045 C1046 1.369 . S
C1045 C1049 1.531 . S
C1046 C1045 1.369 . S
C1046 C1047 1.410 . S
C1046 C1054 1.503 . S
C1047 C1046 1.410 . S
C1047 C1048 1.392 . S
C1047 C1050 1.511 . S
C1048 C1044 1.376 . S
C1048 C1047 1.392 . S
C1048 H1060 0.929 . S
C1049 C1045 1.531 . S
C1049 H1061 0.960 . S
C1049 H1062 0.962 . S
C1049 H1063 0.960 . S
C1050 C1047 1.511 . S
C1050 H1064 0.961 . S
C1050 H1065 0.961 . S
C1050 H1066 0.961 . S
C1051 C1052 1.370 . S
C1051 C1053 1.363 . S
C1051 H1067 0.931 . S
C1052 C1051 1.370 . S
C1052 C1056 1.408 . S
C1053 C1051 1.363 . S
C1053 C1054 1.370 . S
C1053 C1057 1.524 . S
C1054 C1046 1.503 . S
C1054 C1053 1.370 . S
C1054 C1055 1.403 . S
C1055 C1054 1.403 . S
C1055 C1056 1.404 . S
C1055 C1058 1.539 . S
C1056 C1052 1.408 . S
C1056 C1055 1.404 . S
C1056 H1068 0.930 . S
C1057 C1053 1.524 . S
C1057 H1069 0.956 . S
C1057 H1070 0.961 . S
C1057 H1071 0.961 . S
C1058 C1055 1.539 . S
C1058 H1072 0.958 . S
C1058 H1073 0.961 . S
C1058 H1074 0.960 . S
H1059 C1043 0.931 . S
H1060 C1048 0.929 . S
H1061 C1049 0.960 . S
H1062 C1049 0.962 . S
H1063 C1049 0.960 . S
H1064 C1050 0.961 . S
H1065 C1050 0.961 . S
H1066 C1050 0.961 . S
H1067 C1051 0.931 . S
H1068 C1056 0.930 . S
H1069 C1057 0.956 . S
H1070 C1057 0.961 . S
H1071 C1057 0.961 . S
H1072 C1058 0.958 . S
H1073 C1058 0.961 . S
H1074 C1058 0.960 . S
C1075 C1076 1.391 . S
C1075 C1077 1.394 1_565 S
C1075 H1091 0.931 . S
C1076 C1075 1.391 . S
C1076 C1080 1.376 . S
C1077 C1075 1.394 1_545 S
C1077 C1078 1.369 . S
C1077 C1081 1.531 . S
C1078 C1077 1.369 . S
C1078 C1079 1.410 1_545 S
C1078 C1086 1.503 . S
C1079 C1078 1.410 1_565 S
C1079 C1080 1.392 . S
C1079 C1082 1.511 . S
C1080 C1076 1.376 . S
C1080 C1079 1.392 . S
C1080 H1092 0.929 . S
C1081 C1077 1.531 . S
C1081 H1093 0.960 . S
C1081 H1094 0.962 . S
C1081 H1095 0.960 . S
C1082 C1079 1.511 . S
C1082 H1096 0.961 . S
C1082 H1097 0.961 . S
C1082 H1098 0.961 . S
C1083 C1084 1.370 . S
C1083 C1085 1.363 . S
C1083 H1099 0.931 . S
C1084 C1083 1.370 . S
C1084 C1088 1.408 . S
C1085 C1083 1.363 . S
C1085 C1086 1.370 . S
C1085 C1089 1.524 . S
C1086 C1078 1.503 . S
C1086 C1085 1.370 . S
C1086 C1087 1.403 . S
C1087 C1086 1.403 . S
C1087 C1088 1.404 . S
C1087 C1090 1.539 . S
C1088 C1084 1.408 . S
C1088 C1087 1.404 . S
C1088 H1100 0.930 . S
C1089 C1085 1.524 . S
C1089 H1101 0.956 . S
C1089 H1102 0.961 1_545 S
C1089 H1103 0.961 . S
C1090 C1087 1.539 . S
C1090 H1104 0.958 . S
C1090 H1105 0.961 . S
C1090 H1106 0.960 . S
H1091 C1075 0.931 . S
H1092 C1080 0.929 . S
H1093 C1081 0.960 . S
H1094 C1081 0.962 . S
H1095 C1081 0.960 . S
H1096 C1082 0.961 . S
H1097 C1082 0.961 . S
H1098 C1082 0.961 . S
H1099 C1083 0.931 . S
H1100 C1088 0.930 . S
H1101 C1089 0.956 . S
H1102 C1089 0.961 1_565 S
H1103 C1089 0.961 . S
H1104 C1090 0.958 . S
H1105 C1090 0.961 . S
H1106 C1090 0.960 . S
C532 C170 1.206 . S
C540 C33 1.211 . S
C564 C111 1.229 . S
C572 C52 1.221 . S
C596 C92 1.193 . S
C604 C151 1.208 . S
C628 C328 1.218 . S
C636 C229 1.215 . S
C660 C288 1.211 . S
C668 C210 1.213 . S
C692 C269 1.209 . S
C700 C347 1.221 . S
C724 C387 1.202 . S
C732 C524 1.218 . S
C756 C406 1.197 . S
C764 C465 1.212 . S
C788 C446 1.194 . S
C796 C505 1.207 . S
C820 C5 1.490 . S
C828 C418 1.492 . S
C852 C62 1.498 . S
C860 C475 1.487 . S
C884 C357 1.470 . S
C892 C123 1.497 . S
C916 C239 1.481 . S
C924 C121 1.479 . S
C948 C3 1.478 . S
C956 C298 1.493 . S
C980 C180 1.491 . S
C988 C64 1.494 . S
C1012 C416 1.487 . S
C1020 C300 1.497 . S
C1044 C182 1.485 . S
C1052 C477 1.496 . S
C1076 C359 1.491 . S
C1084 C241 1.494 . S
