# Generated by pormake.
# Topology smu, (6)-cn, num edge types: 1
# Building blocks:
#     Node 0, Type 0, BuildingBlock: NUHQIS_clean_sbu_0, # of connection points: 6
#     Node 1, Type 0, BuildingBlock: NUHQIS_clean_sbu_0, # of connection points: 6
#     Node 2, Type 0, BuildingBlock: NUHQIS_clean_sbu_0, # of connection points: 6
#     Node 3, Type 0, BuildingBlock: NUHQIS_clean_sbu_0, # of connection points: 6
#     Node 4, Type 0, BuildingBlock: NUHQIS_clean_sbu_0, # of connection points: 6
#     Node 5, Type 0, BuildingBlock: NUHQIS_clean_sbu_0, # of connection points: 6
#     Edge 6, Type (0, 0), BuildingBlock: MIFKUJ_clean_linker_0, # of connection points: 2
#     Edge 7, Type (0, 0), BuildingBlock: MIFKUJ_clean_linker_0, # of connection points: 2
#     Edge 8, Type (0, 0), BuildingBlock: MIFKUJ_clean_linker_0, # of connection points: 2
#     Edge 9, Type (0, 0), BuildingBlock: MIFKUJ_clean_linker_0, # of connection points: 2
#     Edge 10, Type (0, 0), BuildingBlock: MIFKUJ_clean_linker_0, # of connection points: 2
#     Edge 11, Type (0, 0), BuildingBlock: MIFKUJ_clean_linker_0, # of connection points: 2
#     Edge 12, Type (0, 0), BuildingBlock: MIFKUJ_clean_linker_0, # of connection points: 2
#     Edge 13, Type (0, 0), BuildingBlock: MIFKUJ_clean_linker_0, # of connection points: 2
#     Edge 14, Type (0, 0), BuildingBlock: MIFKUJ_clean_linker_0, # of connection points: 2
#     Edge 15, Type (0, 0), BuildingBlock: MIFKUJ_clean_linker_0, # of connection points: 2
#     Edge 16, Type (0, 0), BuildingBlock: MIFKUJ_clean_linker_0, # of connection points: 2
#     Edge 17, Type (0, 0), BuildingBlock: MIFKUJ_clean_linker_0, # of connection points: 2
#     Edge 18, Type (0, 0), BuildingBlock: MIFKUJ_clean_linker_0, # of connection points: 2
#     Edge 19, Type (0, 0), BuildingBlock: MIFKUJ_clean_linker_0, # of connection points: 2
#     Edge 20, Type (0, 0), BuildingBlock: MIFKUJ_clean_linker_0, # of connection points: 2
#     Edge 21, Type (0, 0), BuildingBlock: MIFKUJ_clean_linker_0, # of connection points: 2
#     Edge 22, Type (0, 0), BuildingBlock: MIFKUJ_clean_linker_0, # of connection points: 2
#     Edge 23, Type (0, 0), BuildingBlock: MIFKUJ_clean_linker_0, # of connection points: 2
# Relax obj value: 0.213
# Max RMSD: 0.300
# Mean RMSD: 0.300
data_MOF--net-smu--node1-NUHQIS_clean_sbu_0--edge1-MIFKUJ_clean_linker_0
_symmetry_space_group_name_H-M    P1
_symmetry_Int_Tables_number       1
_symmetry_cell_setting            triclinic
loop_
_symmetry_equiv_pos_as_xyz
'x, y, z'
_cell_length_a     48.100654
_cell_length_b     48.114791
_cell_length_c     36.183719
_cell_angle_alpha  90.423862
_cell_angle_beta   89.765752
_cell_angle_gamma 120.01452
loop_
_atom_site_label
_atom_site_type_symbol
_atom_site_fract_x
_atom_site_fract_y
_atom_site_fract_z
_atom_type_partial_charge
Tb0 Tb 0.32874 0.11845 0.26558 0.0
Eu1 Eu 0.37802 0.08974 0.26873 0.0
C2 C 0.34055 0.09228 0.34169 0.0
C3 C 0.40258 0.1635 0.26515 0.0
C4 C 0.27034 0.15223 0.27071 0.0
C5 C 0.25234 0.18458 0.30399 0.0
C6 C 0.27428 0.17373 0.29944 0.0
C7 C 0.24318 0.14058 0.24789 0.0
C8 C 0.22139 0.15152 0.25229 0.0
C9 C 0.2262 0.17442 0.27967 0.0
C10 C 0.29702 0.14706 0.25939 0.0
O11 O 0.32391 0.09498 0.21234 0.0
O12 O 0.37379 0.10041 0.20916 0.0
O13 O 0.32785 0.04664 0.26013 0.0
O14 O 0.29715 0.06878 0.27976 0.0
C15 C 0.34658 0.09367 0.19344 0.0
O16 O 0.40732 0.07342 0.23946 0.0
O17 O 0.40865 0.07644 0.29908 0.0
O18 O 0.35437 0.07851 0.32404 0.0
O19 O 0.33278 0.11195 0.32526 0.0
O20 O 0.3762 0.15433 0.24641 0.0
O21 O 0.40613 0.1423 0.28368 0.0
C22 C 0.30009 0.0439 0.27025 0.0
O23 O 0.32201 0.15696 0.28089 0.0
O24 O 0.29021 0.12068 0.24176 0.0
C25 C 0.45748 0.09 0.26824 0.0
C26 C 0.52546 0.12183 0.26588 0.0
C27 C 0.50678 0.09692 0.24072 0.0
C28 C 0.47321 0.08113 0.24202 0.0
C29 C 0.47599 0.11529 0.29294 0.0
C30 C 0.50955 0.1309 0.29187 0.0
C31 C 0.42194 0.07277 0.2694 0.0
H32 H 0.25647 0.20174 0.32582 0.0
H33 H 0.29514 0.18345 0.31727 0.0
H34 H 0.23976 0.12447 0.22506 0.0
H35 H 0.20185 0.14339 0.2327 0.0
H36 H 0.51806 0.08962 0.21983 0.0
H37 H 0.45949 0.0619 0.22249 0.0
H38 H 0.46459 0.12289 0.31335 0.0
H39 H 0.52297 0.14964 0.31201 0.0
Tb40 Tb 0.81612 0.70325 0.27385 0.0
Eu41 Eu 0.73785 0.65306 0.27501 0.0
C42 C 0.77663 0.68956 0.34808 0.0
C43 C 0.78804 0.62977 0.27737 0.0
C44 C 0.9071 0.76284 0.26129 0.0
C45 C 0.95652 0.81265 0.27466 0.0
C46 C 0.92492 0.79001 0.28369 0.0
C47 C 0.92115 0.75948 0.22864 0.0
C48 C 0.95285 0.7823 0.21946 0.0
C49 C 0.97124 0.80875 0.2429 0.0
C50 C 0.87675 0.73617 0.27603 0.0
O51 O 0.80313 0.69559 0.21482 0.0
O52 O 0.7481 0.67359 0.21814 0.0
O53 O 0.74465 0.70322 0.28169 0.0
O54 O 0.79633 0.73321 0.25851 0.0
C55 C 0.77502 0.68667 0.19927 0.0
O56 O 0.69176 0.62353 0.24722 0.0
O57 O 0.69463 0.62144 0.30649 0.0
O58 O 0.75477 0.66184 0.33428 0.0
O59 O 0.8002 0.71079 0.32759 0.0
O60 O 0.80569 0.65678 0.29508 0.0
O61 O 0.76249 0.62531 0.25972 0.0
C62 C 0.76885 0.73045 0.26923 0.0
O63 O 0.85776 0.74333 0.29436 0.0
O64 O 0.86086 0.70988 0.25656 0.0
C65 C 0.65809 0.57354 0.27543 0.0
C66 C 0.62142 0.50571 0.2716 0.0
C67 C 0.60668 0.52452 0.26787 0.0
C68 C 0.62484 0.55806 0.26979 0.0
C69 C 0.67304 0.555 0.27905 0.0
C70 C 0.65486 0.5214 0.27728 0.0
C71 C 0.67681 0.60892 0.27728 0.0
H72 H 0.96992 0.83227 0.2938 0.0
H73 H 0.91501 0.79293 0.30941 0.0
H74 H 0.90818 0.73863 0.21096 0.0
H75 H 0.96322 0.77873 0.19452 0.0
H76 H 0.58097 0.5133 0.26401 0.0
H77 H 0.61286 0.57193 0.26696 0.0
H78 H 0.69875 0.56653 0.2832 0.0
H79 H 0.66706 0.50773 0.27986 0.0
Tb80 Tb 0.91074 0.21572 0.26596 0.0
Eu81 Eu 0.94119 0.29446 0.26487 0.0
C82 C 0.93781 0.25737 0.3404 0.0
C83 C 0.86708 0.24585 0.26329 0.0
C84 C 0.87728 0.12393 0.27422 0.0
C85 C 0.85582 0.07814 0.31579 0.0
C86 C 0.86477 0.11022 0.30886 0.0
C87 C 0.88162 0.10535 0.24725 0.0
C88 C 0.87253 0.07341 0.25401 0.0
C89 C 0.8589 0.05909 0.2881 0.0
C90 C 0.88076 0.15502 0.26299 0.0
O91 O 0.93542 0.23142 0.21305 0.0
O92 O 0.93183 0.27663 0.20591 0.0
O93 O 0.98383 0.28626 0.25947 0.0
O94 O 0.9605 0.23339 0.2792 0.0
C95 C 0.93812 0.25497 0.19245 0.0
O96 O 0.95447 0.33775 0.23278 0.0
O97 O 0.95919 0.34098 0.29213 0.0
O98 O 0.95134 0.2842 0.32163 0.0
O99 O 0.91832 0.22916 0.32499 0.0
O100 O 0.87559 0.22756 0.24551 0.0
O101 O 0.88887 0.27174 0.28006 0.0
C102 C 0.9857 0.26081 0.2695 0.0
O103 O 0.87392 0.17153 0.28638 0.0
O104 O 0.90474 0.17339 0.24157 0.0
C105 C 0.94353 0.37539 0.26309 0.0
C106 C 0.91377 0.41353 0.2649 0.0
C107 C 0.92352 0.40637 0.23117 0.0
C108 C 0.93835 0.38766 0.23031 0.0
C109 C 0.9338 0.38258 0.29684 0.0
C110 C 0.91909 0.40138 0.29771 0.0
C111 C 0.95947 0.35571 0.26194 0.0
H112 H 0.84581 0.06809 0.34253 0.0
H113 H 0.86079 0.12382 0.33011 0.0
H114 H 0.89052 0.11501 0.22001 0.0
H115 H 0.87471 0.05954 0.23165 0.0
H116 H 0.92022 0.41571 0.20544 0.0
H117 H 0.94588 0.38288 0.20391 0.0
H118 H 0.93752 0.37371 0.32269 0.0
H119 H 0.91159 0.40613 0.32413 0.0
Tb120 Tb 0.12434 0.32377 0.76667 0.0
Eu121 Eu 0.09558 0.37317 0.76425 0.0
C122 C 0.09787 0.33544 0.69223 0.0
C123 C 0.16895 0.39708 0.76222 0.0
C124 C 0.1586 0.26675 0.7809 0.0
C125 C 0.14642 0.21122 0.77744 0.0
C126 C 0.138 0.23462 0.77063 0.0
C127 C 0.18713 0.27466 0.7998 0.0
C128 C 0.19563 0.25124 0.80658 0.0
C129 C 0.17587 0.21945 0.79432 0.0
C130 C 0.15393 0.29265 0.76578 0.0
O131 O 0.11805 0.33162 0.82544 0.0
O132 O 0.08455 0.35297 0.82125 0.0
O133 O 0.0527 0.32273 0.75734 0.0
O134 O 0.07438 0.29316 0.7816 0.0
C135 C 0.09835 0.3402 0.84052 0.0
O136 O 0.07737 0.40195 0.7908 0.0
O137 O 0.085 0.4049 0.73186 0.0
O138 O 0.10394 0.36346 0.70531 0.0
O139 O 0.10059 0.31474 0.71316 0.0
O140 O 0.15952 0.37015 0.74432 0.0
O141 O 0.14778 0.40141 0.78005 0.0
C142 C 0.04975 0.29571 0.77026 0.0
O143 O 0.12794 0.28469 0.7469 0.0
O144 O 0.16315 0.31877 0.78524 0.0
C145 C 0.09486 0.4523 0.76297 0.0
C146 C 0.12579 0.52008 0.76698 0.0
C147 C 0.09217 0.50117 0.77023 0.0
C148 C 0.0769 0.46765 0.76822 0.0
C149 C 0.12842 0.47094 0.75996 0.0
C150 C 0.14373 0.50452 0.76182 0.0
C151 C 0.07834 0.41695 0.76061 0.0
H152 H 0.13039 0.18687 0.76815 0.0
H153 H 0.11617 0.2278 0.7555 0.0
H154 H 0.20384 0.29935 0.80741 0.0
H155 H 0.21862 0.25851 0.81934 0.0
H156 H 0.07755 0.51231 0.77372 0.0
H157 H 0.05099 0.45369 0.77056 0.0
H158 H 0.14275 0.45951 0.75611 0.0
H159 H 0.16965 0.51827 0.75962 0.0
Tb160 Tb 0.22229 0.90943 0.76748 0.0
Eu161 Eu 0.30009 0.93539 0.76524 0.0
C162 C 0.26192 0.93574 0.69232 0.0
C163 C 0.2485 0.86211 0.76803 0.0
C164 C 0.13107 0.8797 0.75974 0.0
C165 C 0.08412 0.85386 0.71967 0.0
C166 C 0.11638 0.86356 0.72669 0.0
C167 C 0.1134 0.8873 0.78465 0.0
C168 C 0.08126 0.87753 0.77777 0.0
C169 C 0.06586 0.85985 0.7457 0.0
C170 C 0.16195 0.8834 0.77233 0.0
O171 O 0.24068 0.93098 0.82156 0.0
O172 O 0.28404 0.92367 0.82447 0.0
O173 O 0.2948 0.97935 0.77562 0.0
O174 O 0.24283 0.95967 0.75424 0.0
C175 C 0.26388 0.93086 0.84044 0.0
O176 O 0.34562 0.95134 0.79422 0.0
O177 O 0.34337 0.94556 0.73484 0.0
O178 O 0.28919 0.94897 0.71048 0.0
O179 O 0.23416 0.91578 0.70813 0.0
O180 O 0.23128 0.87176 0.78621 0.0
O181 O 0.2739 0.88292 0.74989 0.0
C182 C 0.27083 0.98348 0.76501 0.0
O183 O 0.17659 0.87222 0.75179 0.0
O184 O 0.18197 0.9096 0.7899 0.0
C185 C 0.37813 0.9322 0.76711 0.0
C186 C 0.41406 0.90015 0.77154 0.0
C187 C 0.41721 0.92268 0.79873 0.0
C188 C 0.39958 0.93858 0.79642 0.0
C189 C 0.37445 0.90927 0.74028 0.0
C190 C 0.39223 0.89352 0.74244 0.0
C191 C 0.36039 0.95002 0.76454 0.0
H192 H 0.07324 0.84077 0.6944 0.0
H193 H 0.1293 0.85712 0.70704 0.0
H194 H 0.12391 0.89923 0.81063 0.0
H195 H 0.06806 0.88224 0.79882 0.0
H196 H 0.43331 0.92807 0.82192 0.0
H197 H 0.40284 0.95604 0.81754 0.0
H198 H 0.35811 0.9037 0.71729 0.0
H199 H 0.3894 0.87672 0.72069 0.0
Tb200 Tb 0.70709 0.80805 0.77707 0.0
Eu201 Eu 0.65885 0.72935 0.77806 0.0
C202 C 0.69544 0.76587 0.70337 0.0
C203 C 0.63341 0.77782 0.7796 0.0
C204 C 0.76259 0.89932 0.76275 0.0
C205 C 0.77814 0.95205 0.73789 0.0
C206 C 0.75477 0.92006 0.74423 0.0
C207 C 0.79472 0.91068 0.77281 0.0
C208 C 0.81807 0.94269 0.76656 0.0
C209 C 0.80979 0.96402 0.75026 0.0
C210 C 0.73638 0.86873 0.77745 0.0
O211 O 0.71516 0.79381 0.8311 0.0
O212 O 0.66777 0.74638 0.83749 0.0
O213 O 0.70938 0.73692 0.78302 0.0
O214 O 0.74036 0.791 0.76765 0.0
C215 C 0.6949 0.76937 0.85125 0.0
O216 O 0.6285 0.68589 0.8098 0.0
O217 O 0.62984 0.68316 0.75035 0.0
O218 O 0.68107 0.73903 0.72205 0.0
O219 O 0.7036 0.7941 0.71836 0.0
O220 O 0.65989 0.79567 0.79794 0.0
O221 O 0.62977 0.75236 0.76221 0.0
C222 C 0.7372 0.76283 0.7754 0.0
O223 O 0.71162 0.85102 0.75646 0.0
O224 O 0.74386 0.85152 0.79838 0.0
C225 C 0.57972 0.64873 0.77954 0.0
C226 C 0.51179 0.61061 0.77768 0.0
C227 C 0.52827 0.62023 0.81158 0.0
C228 C 0.56182 0.63894 0.81249 0.0
C229 C 0.56322 0.6391 0.74565 0.0
C230 C 0.52972 0.62036 0.74474 0.0
C231 C 0.61537 0.66822 0.78052 0.0
H232 H 0.77092 0.96788 0.72547 0.0
H233 H 0.73012 0.9121 0.73665 0.0
H234 H 0.80158 0.8954 0.78727 0.0
H235 H 0.84239 0.95108 0.77585 0.0
H236 H 0.5153 0.61277 0.83748 0.0
H237 H 0.57375 0.64558 0.83908 0.0
H238 H 0.57618 0.64598 0.7197 0.0
H239 H 0.51782 0.6137 0.71814 0.0
H240 H 0.3147 0.94317 0.88536 0.0
H241 H 0.3279 0.97006 0.94552 0.0
H242 H 0.24029 0.97403 0.94331 0.0
H243 H 0.22725 0.94776 0.88278 0.0
H244 H 0.28804 0.03026 0.96261 0.0
H245 H 0.25076 0.92265 1.00183 0.0
H246 H 0.24781 0.87 1.00291 0.0
H247 H 0.3469 0.91536 0.03512 0.0
H248 H 0.35057 0.96836 0.03374 0.0
H249 H 0.29285 0.07671 0.15183 0.0
H250 H 0.27875 0.04903 0.09209 0.0
H251 H 0.36975 0.05185 0.08887 0.0
H252 H 0.38402 0.07938 0.14876 0.0
H253 H 0.31987 0.99204 0.0728 0.0
H254 H 0.35612 0.10003 0.03343 0.0
H255 H 0.35763 0.15201 0.03308 0.0
H256 H 0.25815 0.10464 1.00217 0.0
H257 H 0.25592 0.05229 1.00285 0.0
C258 C 0.29794 0.94926 0.89788 0.0
C259 C 0.26984 0.94317 0.87913 0.0
C260 C 0.30552 0.96466 0.93241 0.0
C261 C 0.28503 0.97399 0.94922 0.0
C262 C 0.25656 0.96718 0.93097 0.0
C263 C 0.24904 0.95194 0.89638 0.0
C264 C 0.29394 0.99212 0.98495 0.0
C265 C 0.29451 0.0216 0.98685 0.0
C266 C 0.30313 0.98134 1.01647 0.0
C267 C 0.30102 0.94951 1.01732 0.0
C268 C 0.272 0.92143 1.00885 0.0
C269 C 0.27018 0.89152 1.00957 0.0
C270 C 0.29717 0.88935 1.01898 0.0
C271 C 0.32602 0.91708 0.02778 0.0
C272 C 0.32797 0.94706 0.02707 0.0
C273 C 0.31012 0.07189 0.13823 0.0
C274 C 0.33966 0.08043 0.15516 0.0
C275 C 0.30198 0.05603 0.10399 0.0
C276 C 0.32322 0.04841 0.08585 0.0
C277 C 0.35295 0.05742 0.10234 0.0
C278 C 0.36117 0.07339 0.13651 0.0
C279 C 0.31397 0.03009 0.05035 0.0
C280 C 0.31334 1.00061 0.04852 0.0
C281 C 0.30449 0.04074 1.019 0.0
C282 C 0.30578 0.0722 1.01856 0.0
C283 C 0.33449 0.10066 0.02687 0.0
C284 C 0.33549 0.1302 0.02655 0.0
C285 C 0.30798 0.13162 1.0177 0.0
C286 C 0.27943 0.1035 1.00907 0.0
C287 C 0.27829 0.07389 1.00939 0.0
H288 H 0.30881 0.15451 1.01746 0.0
H289 H 0.29572 0.86616 0.01953 0.0
H290 H 0.74705 0.81056 0.66285 0.0
H291 H 0.76571 0.80176 0.60283 0.0
H292 H 0.68305 0.70654 0.5972 0.0
H293 H 0.66483 0.71494 0.65691 0.0
H294 H 0.73536 0.70396 0.58318 0.0
H295 H 0.69258 0.77145 0.54174 0.0
H296 H 0.68939 0.82106 0.54104 0.0
H297 H 0.78935 0.87578 0.51264 0.0
H298 H 0.79318 0.82652 0.51353 0.0
H299 H 0.72863 0.65404 0.39765 0.0
H300 H 0.71964 0.67077 0.45825 0.0
H301 H 0.80671 0.76195 0.44669 0.0
H302 H 0.81551 0.74573 0.38554 0.0
H303 H 0.75928 0.77083 0.47116 0.0
H304 H 0.80253 0.70495 0.50711 0.0
H305 H 0.80778 0.65654 0.50781 0.0
H306 H 0.71118 0.60084 0.54804 0.0
H307 H 0.7052 0.64884 0.54713 0.0
C308 C 0.73255 0.78807 0.64833 0.0
C309 C 0.70443 0.76347 0.66463 0.0
C310 C 0.74328 0.78299 0.61407 0.0
C311 C 0.72584 0.7534 0.59536 0.0
C312 C 0.69714 0.72944 0.61109 0.0
C313 C 0.68664 0.73437 0.64523 0.0
C314 C 0.73768 0.74629 0.5603 0.0
C315 C 0.74035 0.71851 0.55861 0.0
C316 C 0.74559 0.76586 0.52856 0.0
C317 C 0.74323 0.79539 0.5281 0.0
C318 C 0.71392 0.79411 0.53563 0.0
C319 C 0.71199 0.82215 0.53514 0.0
C320 C 0.73917 0.85157 0.52692 0.0
C321 C 0.76834 0.853 0.51912 0.0
C322 C 0.7704 0.82503 0.51959 0.0
C323 C 0.74612 0.67753 0.40807 0.0
C324 C 0.7729 0.69842 0.3866 0.0
C325 C 0.74096 0.68708 0.44288 0.0
C326 C 0.76258 0.71762 0.45731 0.0
C327 C 0.78958 0.73835 0.43619 0.0
C328 C 0.79471 0.72888 0.40128 0.0
C329 C 0.75631 0.72816 0.49383 0.0
C330 C 0.75476 0.75655 0.49583 0.0
C331 C 0.74982 0.70938 0.52606 0.0
C332 C 0.75334 0.68046 0.52676 0.0
C333 C 0.78233 0.68233 0.51586 0.0
C334 C 0.78545 0.65497 0.51634 0.0
C335 C 0.75981 0.62562 0.52789 0.0
C336 C 0.73101 0.62359 0.53907 0.0
C337 C 0.72776 0.65087 0.53863 0.0
H338 H 0.76227 0.60446 0.52823 0.0
H339 H 0.73762 0.87324 0.52652 0.0
H340 H 0.94559 0.29944 0.14057 0.0
H341 H 0.97366 0.31018 0.08147 0.0
H342 H 0.99159 0.23207 0.09994 0.0
H343 H 0.9638 0.22134 0.15942 0.0
H344 H 0.04489 0.28368 0.07576 0.0
H345 H 0.93602 0.22499 0.03624 0.0
H346 H 0.87926 0.21082 0.03246 0.0
H347 H 0.90735 0.3034 0.98707 0.0
H348 H 0.96434 0.31832 0.99106 0.0
H349 H 0.09935 0.29438 0.88512 0.0
H350 H 0.07378 0.27677 0.94603 0.0
H351 H 0.04847 0.35103 0.94489 0.0
H352 H 0.07348 0.36838 0.8845 0.0
H353 H 0.99725 0.29447 0.95927 0.0
H354 H 0.10701 0.35363 1.00243 0.0
H355 H 0.16346 0.36691 1.00732 0.0
H356 H 0.1331 0.2717 0.04577 0.0
H357 H 0.07643 0.25766 0.04039 0.0
C358 C 0.95511 0.28423 0.13193 0.0
C359 C 0.95214 0.25934 0.15474 0.0
C360 C 0.97117 0.29039 0.09802 0.0
C361 C 0.98454 0.27175 0.08596 0.0
C362 C 0.98143 0.24673 0.10853 0.0
C363 C 0.96527 0.24048 0.14245 0.0
C364 C 1.00237 0.27904 0.05022 0.0
C365 C 0.0343 0.28552 0.05013 0.0
C366 C 0.98876 0.28175 1.01679 0.0
C367 C 0.95449 0.27286 1.01423 0.0
C368 C 0.93012 0.24242 0.02571 0.0
C369 C 0.89789 0.23424 0.02348 0.0
C370 C 0.8897 0.25622 1.00961 0.0
C371 C 0.91373 0.28641 0.99784 0.0
C372 C 0.946 0.29473 1.00004 0.0
C373 C 0.08898 0.30737 0.8983 0.0
C374 C 0.08834 0.33269 0.87982 0.0
C375 C 0.07428 0.29724 0.93309 0.0
C376 C 0.05896 0.31244 0.95006 0.0
C377 C 0.05979 0.33867 0.93232 0.0
C378 C 0.07424 0.34865 0.89774 0.0
C379 C 0.04014 0.30013 0.98495 0.0
C380 C 1.00784 0.29246 0.98482 0.0
C381 C 0.05341 0.29618 1.01802 0.0
C382 C 0.08747 0.30447 0.02057 0.0
C383 C 0.11235 0.3354 1.01149 0.0
C384 C 0.1444 0.34309 1.01442 0.0
C385 C 0.15187 0.32013 0.02672 0.0
C386 C 0.12729 0.28944 0.03615 0.0
C387 C 0.09521 0.2816 0.03316 0.0
H388 H 0.1767 0.32615 0.02903 0.0
H389 H 0.86474 0.24984 1.00791 0.0
H390 H 0.28717 0.0843 0.3796 0.0
H391 H 0.26712 0.05672 0.43904 0.0
H392 H 0.35229 0.04903 0.45007 0.0
H393 H 0.37189 0.07578 0.39097 0.0
H394 H 0.30117 0.99255 0.45954 0.0
H395 H 0.33676 0.09999 0.50493 0.0
H396 H 0.33818 0.15193 0.50728 0.0
H397 H 0.23719 0.1035 0.53108 0.0
H398 H 0.23509 0.05122 0.52839 0.0
H399 H 0.31181 0.95651 0.64436 0.0
H400 H 0.31762 0.9812 0.58415 0.0
H401 H 0.22149 0.96581 0.59258 0.0
H402 H 0.21543 0.94073 0.65346 0.0
H403 H 0.26752 0.02906 0.57077 0.0
H404 H 0.23411 0.92192 0.53248 0.0
H405 H 0.23394 0.8706 0.53156 0.0
H406 H 0.33198 0.91907 0.49483 0.0
H407 H 0.3329 0.97079 0.49604 0.0
C408 C 0.30193 0.07747 0.39528 0.0
C409 C 0.3311 0.08219 0.38058 0.0
C410 C 0.2904 0.06155 0.42918 0.0
C411 C 0.30805 0.05048 0.44908 0.0
C412 C 0.33798 0.05691 0.43521 0.0
C413 C 0.34928 0.07243 0.40144 0.0
C414 C 0.29502 0.03042 0.483 0.0
C415 C 0.29404 1.00073 0.4839 0.0
C416 C 0.28445 0.0403 0.51446 0.0
C417 C 0.28569 0.07168 0.51598 0.0
C418 C 0.31479 0.1004 0.51031 0.0
C419 C 0.31574 0.1299 0.51179 0.0
C420 C 0.28777 0.13101 0.51919 0.0
C421 C 0.25882 0.10261 0.52525 0.0
C422 C 0.25774 0.07304 0.52378 0.0
C423 C 0.29166 0.9579 0.63326 0.0
C424 C 0.26306 0.94643 0.65364 0.0
C425 C 0.29503 0.97206 0.59875 0.0
C426 C 0.26999 0.97532 0.58367 0.0
C427 C 0.24113 0.96352 0.60363 0.0
C428 C 0.23757 0.94889 0.6382 0.0
C429 C 0.27486 0.99189 0.54753 0.0
C430 C 0.27421 0.02075 0.54617 0.0
C431 C 0.28409 0.98138 0.51556 0.0
C432 C 0.28362 0.95028 0.51457 0.0
C433 C 0.25571 0.92169 0.52445 0.0
C434 C 0.25547 0.89251 0.52384 0.0
C435 C 0.28295 0.89158 0.5132 0.0
C436 C 0.31071 0.91983 0.50307 0.0
C437 C 0.31109 0.94907 0.50366 0.0
H438 H 0.28271 0.86897 0.51275 0.0
H439 H 0.28855 0.15387 0.52034 0.0
H440 H 0.75329 0.80604 0.88487 0.0
H441 H 0.77141 0.79604 0.94372 0.0
H442 H 0.67738 0.71431 0.96213 0.0
H443 H 0.65895 0.72414 0.90333 0.0
H444 H 0.70359 0.75085 0.02573 0.0
H445 H 0.7369 0.7046 0.92751 0.0
H446 H 0.76466 0.70815 0.86877 0.0
H447 H 0.85441 0.77831 0.91668 0.0
H448 H 0.82706 0.77564 0.97556 0.0
H449 H 0.72316 0.65693 0.15411 0.0
H450 H 0.71541 0.67492 0.09432 0.0
H451 H 0.81368 0.75217 0.09524 0.0
H452 H 0.82177 0.73404 0.15568 0.0
H453 H 0.79129 0.72478 0.0231 0.0
H454 H 0.76101 0.77017 0.12129 0.0
H455 H 0.73489 0.77008 0.18009 0.0
H456 H 0.64241 0.70647 0.13285 0.0
H457 H 0.66803 0.70571 0.07393 0.0
C458 C 0.73624 0.78621 0.90164 0.0
C459 C 0.7046 0.76585 0.88918 0.0
C460 C 0.74675 0.78042 0.93524 0.0
C461 C 0.72591 0.75415 0.95716 0.0
C462 C 0.69395 0.73467 0.94565 0.0
C463 C 0.68343 0.74033 0.91196 0.0
C464 C 0.7376 0.74611 0.99132 0.0
C465 C 0.72258 0.74492 0.02507 0.0
C466 C 0.76322 0.73948 0.99075 0.0
C467 C 0.77987 0.74014 0.95585 0.0
C468 C 0.76253 0.72089 0.92549 0.0
C469 C 0.77819 0.72276 0.89216 0.0
C470 C 0.81126 0.74351 0.88897 0.0
C471 C 0.82878 0.76229 0.91918 0.0
C472 C 0.81321 0.7606 0.95255 0.0
C473 C 0.7434 0.67743 0.14143 0.0
C474 C 0.77302 0.69424 0.15993 0.0
C475 C 0.73888 0.68772 0.10717 0.0
C476 C 0.76375 0.71526 0.09056 0.0
C477 C 0.7941 0.73091 0.1076 0.0
C478 C 0.79872 0.72048 0.14209 0.0
C479 C 0.75666 0.72875 0.05728 0.0
C480 C 0.77251 0.73101 0.02379 0.0
C481 C 0.73212 0.73689 0.05807 0.0
C482 C 0.71648 0.73769 0.09325 0.0
C483 C 0.73511 0.75599 0.1235 0.0
C484 C 0.72041 0.75611 0.15686 0.0
C485 C 0.68702 0.73824 0.16022 0.0
C486 C 0.66828 0.72029 0.1302 0.0
C487 C 0.68288 0.72002 0.0968 0.0
H488 H 0.67567 0.73834 0.18607 0.0
H489 H 0.8233 0.74497 0.86311 0.0
H490 H 0.93824 0.21091 0.38451 0.0
H491 H 0.96411 0.21932 0.44533 0.0
H492 H 0.98647 0.31801 0.44503 0.0
H493 H 0.96106 0.30991 0.3849 0.0
H494 H 0.03901 0.314 0.45871 0.0
H495 H 0.92931 0.26219 0.50228 0.0
H496 H 0.87312 0.21826 0.50637 0.0
H497 H 0.90475 0.15418 0.54391 0.0
H498 H 0.96119 0.19764 0.53954 0.0
H499 H 0.08955 0.3717 0.64006 0.0
H500 H 0.06174 0.3538 0.58089 0.0
H501 H 0.04621 0.25866 0.59962 0.0
H502 H 0.07371 0.27627 0.65919 0.0
H503 H 0.992 0.25566 0.57545 0.0
H504 H 0.10105 0.3075 0.53591 0.0
H505 H 0.1575 0.35087 0.53198 0.0
H506 H 0.12766 0.41385 0.48617 0.0
H507 H 0.07098 0.37099 0.49029 0.0
C508 C 0.94802 0.23415 0.39787 0.0
C509 C 0.94775 0.25977 0.3797 0.0
C510 C 0.96292 0.23898 0.43258 0.0
C511 C 0.97754 0.26943 0.4497 0.0
C512 C 0.97574 0.29443 0.4323 0.0
C513 C 0.96105 0.28968 0.39787 0.0
C514 C 0.99649 0.27634 0.4845 0.0
C515 C 0.02859 0.3014 0.4843 0.0
C516 C 0.98338 0.2592 0.51765 0.0
C517 C 0.94948 0.23306 0.52012 0.0
C518 C 0.9243 0.23865 0.51105 0.0
C519 C 0.8924 0.21385 0.5135 0.0
C520 C 0.88537 0.18342 0.52527 0.0
C521 C 0.91023 0.17774 0.53471 0.0
C522 C 0.94218 0.20245 0.53227 0.0
C523 C 0.08062 0.34706 0.63148 0.0
C524 C 0.08414 0.32554 0.65442 0.0
C525 C 0.0647 0.33683 0.59752 0.0
C526 C 0.05201 0.30488 0.58554 0.0
C527 C 0.05577 0.28341 0.60818 0.0
C528 C 0.07176 0.29364 0.64216 0.0
C529 C 0.03422 0.29393 0.54981 0.0
C530 C 1.00248 0.26808 0.54978 0.0
C531 C 0.04766 0.31023 0.5163 0.0
C532 C 0.08174 0.33609 0.5137 0.0
C533 C 0.10651 0.33067 0.52526 0.0
C534 C 0.13855 0.35515 0.52295 0.0
C535 C 0.14616 0.38512 0.50891 0.0
C536 C 0.12173 0.39064 0.49707 0.0
C537 C 0.08964 0.36624 0.49934 0.0
H538 H 0.17098 0.40404 0.50714 0.0
H539 H 0.86066 0.16426 0.52717 0.0
H540 H 0.56244 0.09418 0.25204 0.0
H541 H 0.62066 0.11946 0.25283 0.0
H542 H 0.62843 0.21013 0.28225 0.0
H543 H 0.56999 0.18537 0.27936 0.0
H544 H 0.67374 0.22022 0.23471 0.0
H545 H 0.63806 0.16273 0.3474 0.0
H546 H 0.60585 0.11652 0.38794 0.0
H547 H 0.64467 0.06345 0.33433 0.0
H548 H 0.67678 0.10919 0.29309 0.0
H549 H 0.84016 0.28164 0.28734 0.0
H550 H 0.78278 0.26481 0.28974 0.0
H551 H 0.75921 0.17264 0.2438 0.0
H552 H 0.81602 0.18913 0.24112 0.0
H553 H 0.72298 0.16817 0.30598 0.0
H554 H 0.75601 0.22681 0.19047 0.0
H555 H 0.78907 0.27481 0.15272 0.0
H556 H 0.75622 0.32829 0.21679 0.0
H557 H 0.72326 0.28067 0.25523 0.0
C558 C 0.5764 0.11962 0.25808 0.0
C559 C 0.56127 0.13762 0.26573 0.0
C560 C 0.60982 0.13399 0.25905 0.0
C561 C 0.62905 0.1666 0.26842 0.0
C562 C 0.61417 0.18488 0.27527 0.0
C563 C 0.58066 0.17056 0.27395 0.0
C564 C 0.66459 0.1813 0.27118 0.0
C565 C 0.68449 0.20911 0.25082 0.0
C566 C 0.67883 0.16689 0.29211 0.0
C567 C 0.65965 0.13933 0.31695 0.0
C568 C 0.63956 0.14113 0.34408 0.0
C569 C 0.62134 0.11503 0.36721 0.0
C570 C 0.62316 0.08705 0.36366 0.0
C571 C 0.64327 0.08514 0.33703 0.0
C572 C 0.66151 0.11116 0.31379 0.0
C573 C 0.82273 0.25786 0.27761 0.0
C574 C 0.83271 0.23678 0.26395 0.0
C575 C 0.78999 0.24831 0.27893 0.0
C576 C 0.76674 0.21747 0.26689 0.0
C577 C 0.77671 0.1965 0.25329 0.0
C578 C 0.80928 0.20608 0.25163 0.0
C579 C 0.73187 0.20644 0.2688 0.0
C580 C 0.71215 0.17938 0.29019 0.0
C581 C 0.71793 0.22181 0.2493 0.0
C582 C 0.73747 0.2503 0.22597 0.0
C583 C 0.75604 0.24888 0.19668 0.0
C584 C 0.77471 0.276 0.17513 0.0
C585 C 0.77482 0.30461 0.18243 0.0
C586 C 0.75615 0.30613 0.21121 0.0
C587 C 0.73745 0.27907 0.23286 0.0
H588 H 0.78931 0.32559 0.16572 0.0
H589 H 0.60904 0.06687 0.3816 0.0
H590 H 0.57215 0.46867 0.2241 0.0
H591 H 0.53813 0.41031 0.22317 0.0
H592 H 0.59212 0.40303 0.3137 0.0
H593 H 0.62637 0.46157 0.31478 0.0
H594 H 0.57781 0.35589 0.26288 0.0
H595 H 0.51967 0.39749 0.32893 0.0
H596 H 0.49587 0.43202 0.33856 0.0
H597 H 0.43591 0.39015 0.24324 0.0
H598 H 0.45969 0.35568 0.23273 0.0
H599 H 0.45751 0.19382 0.30729 0.0
H600 H 0.49738 0.25124 0.30867 0.0
H601 H 0.44564 0.26798 0.22275 0.0
H602 H 0.40547 0.2111 0.22195 0.0
H603 H 0.46016 0.31041 0.27485 0.0
H604 H 0.51889 0.26942 0.2078 0.0
H605 H 0.54252 0.23476 0.19805 0.0
H606 H 0.60093 0.27477 0.29484 0.0
H607 H 0.57732 0.3094 0.30545 0.0
C608 C 0.57676 0.45471 0.24394 0.0
C609 C 0.60182 0.46993 0.26979 0.0
C610 C 0.55731 0.42128 0.24332 0.0
C611 C 0.56218 0.4022 0.26877 0.0
C612 C 0.58783 0.41719 0.29382 0.0
C613 C 0.60743 0.45069 0.29437 0.0
C614 C 0.5398 0.36682 0.26991 0.0
C615 C 0.55211 0.34591 0.26597 0.0
C616 C 0.50619 0.35369 0.27343 0.0
C617 C 0.49166 0.37421 0.27987 0.0
C618 C 0.50156 0.3958 0.30988 0.0
C619 C 0.48806 0.41534 0.31551 0.0
C620 C 0.46445 0.41333 0.29148 0.0
C621 C 0.45423 0.39171 0.26181 0.0
C622 C 0.46769 0.37214 0.25602 0.0
C623 C 0.45478 0.20972 0.28851 0.0
C624 C 0.42821 0.19781 0.26458 0.0
C625 C 0.47769 0.24257 0.28921 0.0
C626 C 0.47473 0.26408 0.26563 0.0
C627 C 0.44849 0.25202 0.24132 0.0
C628 C 0.42553 0.21937 0.24083 0.0
C629 C 0.498 0.29931 0.26705 0.0
C630 C 0.48584 0.32027 0.27172 0.0
C631 C 0.53167 0.31237 0.26415 0.0
C632 C 0.54609 0.29178 0.25762 0.0
C633 C 0.5366 0.27067 0.22716 0.0
C634 C 0.55002 0.25105 0.22145 0.0
C635 C 0.57315 0.2525 0.24587 0.0
C636 C 0.58298 0.27365 0.27598 0.0
C637 C 0.56961 0.2933 0.28183 0.0
H638 H 0.58353 0.23733 0.24138 0.0
H639 H 0.45403 0.42848 0.29588 0.0
H640 H 0.92485 0.46152 0.31412 0.0
H641 H 0.89986 0.49493 0.31604 0.0
H642 H 0.84323 0.44547 0.22009 0.0
H643 H 0.86825 0.41194 0.21796 0.0
H644 H 0.86674 0.50819 0.21354 0.0
H645 H 0.80971 0.43086 0.30705 0.0
H646 H 0.80291 0.39854 0.36246 0.0
H647 H 0.85126 0.4844 0.42829 0.0
H648 H 0.85877 0.5173 0.37314 0.0
H649 H 0.76416 0.57557 0.23409 0.0
H650 H 0.78222 0.53611 0.23177 0.0
H651 H 0.85068 0.58746 0.31834 0.0
H652 H 0.83306 0.62708 0.32063 0.0
H653 H 0.8172 0.52071 0.32838 0.0
H654 H 0.87628 0.59757 0.23291 0.0
H655 H 0.88199 0.6291 0.17709 0.0
H656 H 0.8275 0.54215 0.1145 0.0
H657 H 0.82107 0.51008 0.17014 0.0
C658 C 0.90683 0.45749 0.29363 0.0
C659 C 0.89846 0.4339 0.26599 0.0
C660 C 0.89255 0.47665 0.29475 0.0
C661 C 0.86928 0.47247 0.26852 0.0
C662 C 0.86108 0.44917 0.24066 0.0
C663 C 0.87548 0.43006 0.23942 0.0
C664 C 0.85398 0.49282 0.26993 0.0
C665 C 0.85542 0.51045 0.23849 0.0
C666 C 0.83957 0.49625 0.3026 0.0
C667 C 0.83505 0.47656 0.33587 0.0
C668 C 0.81912 0.44288 0.33328 0.0
C669 C 0.8151 0.42444 0.36466 0.0
C670 C 0.82671 0.43941 0.39886 0.0
C671 C 0.84231 0.47285 0.40177 0.0
C672 C 0.84643 0.4914 0.37046 0.0
C673 C 0.78291 0.57835 0.25281 0.0
C674 C 0.79726 0.60458 0.27744 0.0
C675 C 0.79327 0.55583 0.25136 0.0
C676 C 0.81796 0.55898 0.27471 0.0
C677 C 0.83161 0.58457 0.30007 0.0
C678 C 0.82155 0.60726 0.30124 0.0
C679 C 0.83028 0.53618 0.27217 0.0
C680 C 0.82829 0.51815 0.30339 0.0
C681 C 0.84396 0.5322 0.23925 0.0
C682 C 0.84787 0.55144 0.20578 0.0
C683 C 0.86526 0.58517 0.20732 0.0
C684 C 0.86868 0.60314 0.17571 0.0
C685 C 0.85503 0.58764 0.1423 0.0
C686 C 0.83801 0.55413 0.14042 0.0
C687 C 0.83448 0.53604 0.17198 0.0
H688 H 0.85771 0.60159 0.11784 0.0
H689 H 0.82357 0.4251 0.42312 0.0
H690 H 0.11279 0.55714 0.81385 0.0
H691 H 0.13689 0.61548 0.81429 0.0
H692 H 0.19935 0.62262 0.72453 0.0
H693 H 0.17532 0.56412 0.72397 0.0
H694 H 0.23139 0.67016 0.775 0.0
H695 H 0.13216 0.62727 0.70827 0.0
H696 H 0.07394 0.5923 0.69856 0.0
H697 H 0.05462 0.63476 0.79281 0.0
H698 H 0.11276 0.66968 0.8034 0.0
H699 H 0.27308 0.83106 0.72692 0.0
H700 H 0.25541 0.77365 0.72678 0.0
H701 H 0.18603 0.75815 0.81179 0.0
H702 H 0.20284 0.81506 0.81129 0.0
H703 H 0.15874 0.71473 0.76075 0.0
H704 H 0.25803 0.75735 0.82821 0.0
H705 H 0.31622 0.7926 0.8378 0.0
H706 H 0.33572 0.75138 0.74252 0.0
H707 H 0.27759 0.71615 0.73206 0.0
C708 C 0.13158 0.57107 0.7941 0.0
C709 C 0.14184 0.55584 0.7686 0.0
C710 C 0.14542 0.60448 0.79444 0.0
C711 C 0.16962 0.6235 0.76904 0.0
C712 C 0.1807 0.6085 0.74437 0.0
C713 C 0.16695 0.57503 0.74412 0.0
C714 C 0.18241 0.65882 0.76745 0.0
C715 C 0.21557 0.67994 0.77144 0.0
C716 C 0.16179 0.67168 0.76331 0.0
C717 C 0.12681 0.65089 0.75681 0.0
C718 C 0.1155 0.629 0.72707 0.0
C719 C 0.08251 0.60921 0.72139 0.0
C720 C 0.0606 0.61125 0.7451 0.0
C721 C 0.07163 0.63317 0.77449 0.0
C722 C 0.10459 0.65299 0.78032 0.0
C723 C 0.25419 0.81543 0.74574 0.0
C724 C 0.23935 0.8277 0.76906 0.0
C725 C 0.2442 0.78259 0.74576 0.0
C726 C 0.21951 0.76145 0.76951 0.0
C727 C 0.20503 0.77384 0.79312 0.0
C728 C 0.21476 0.80649 0.79286 0.0
C729 C 0.20771 0.72625 0.76902 0.0
C730 C 0.17465 0.70507 0.76439 0.0
C731 C 0.22847 0.71345 0.77262 0.0
C732 C 0.26344 0.73433 0.77914 0.0
C733 C 0.27471 0.75594 0.80916 0.0
C734 C 0.30769 0.7759 0.81477 0.0
C735 C 0.32966 0.77429 0.79072 0.0
C736 C 0.31868 0.75263 0.76109 0.0
C737 C 0.28572 0.73263 0.75533 0.0
H738 H 0.35517 0.78976 0.79511 0.0
H739 H 0.03507 0.5959 0.74066 0.0
H740 H 0.47681 0.92665 0.79377 0.0
H741 H 0.51026 0.90191 0.79429 0.0
H742 H 0.43163 0.81406 0.75082 0.0
H743 H 0.39728 0.83812 0.75216 0.0
H744 H 0.46244 0.8 0.80035 0.0
H745 H 0.49434 0.8674 0.6949 0.0
H746 H 0.51164 0.91696 0.65942 0.0
H747 H 0.59772 0.9655 0.72431 0.0
H748 H 0.58072 0.91635 0.76056 0.0
H749 H 0.57227 0.7437 0.75088 0.0
H750 H 0.53182 0.76054 0.74798 0.0
H751 H 0.59701 0.84925 0.80331 0.0
H752 H 0.63731 0.83276 0.80631 0.0
H753 H 0.56997 0.85889 0.74176 0.0
H754 H 0.53453 0.78963 0.84895 0.0
H755 H 0.51661 0.73841 0.88114 0.0
H756 H 0.43603 0.69112 0.80775 0.0
H757 H 0.45374 0.74199 0.77469 0.0
C758 C 0.46631 0.90189 0.7849 0.0
C759 C 0.43423 0.88453 0.77279 0.0
C760 C 0.4857 0.88786 0.78473 0.0
C761 C 0.47377 0.85628 0.77182 0.0
C762 C 0.44154 0.83853 0.76061 0.0
C763 C 0.42199 0.85249 0.76106 0.0
C764 C 0.49521 0.84217 0.76974 0.0
C765 C 0.48574 0.81266 0.78701 0.0
C766 C 0.52572 0.85859 0.75243 0.0
C767 C 0.53611 0.88824 0.73066 0.0
C768 C 0.51685 0.8887 0.70179 0.0
C769 C 0.52662 0.91672 0.68152 0.0
C770 C 0.55573 0.94438 0.68966 0.0
C771 C 0.57516 0.94406 0.71806 0.0
C772 C 0.56549 0.91612 0.73846 0.0
C773 C 0.57789 0.76671 0.7626 0.0
C774 C 0.60804 0.78684 0.77889 0.0
C775 C 0.55472 0.77626 0.761 0.0
C776 C 0.56134 0.80614 0.77554 0.0
C777 C 0.59136 0.82613 0.79187 0.0
C778 C 0.61435 0.81656 0.79369 0.0
C779 C 0.53756 0.81727 0.7732 0.0
C780 C 0.54657 0.84617 0.75488 0.0
C781 C 0.50653 0.80004 0.78903 0.0
C782 C 0.49568 0.76954 0.80909 0.0
C783 C 0.51314 0.76825 0.83947 0.0
C784 C 0.50299 0.7393 0.85789 0.0
C785 C 0.47526 0.7115 0.84638 0.0
C786 C 0.45754 0.71265 0.81652 0.0
C787 C 0.46761 0.74154 0.79796 0.0
H788 H 0.46746 0.6891 0.86066 0.0
H789 H 0.56325 0.96605 0.67392 0.0
H790 H 0.21673 0.3992 0.7193 0.0
H791 H 0.27411 0.43761 0.72255 0.0
H792 H 0.25727 0.48918 0.8096 0.0
H793 H 0.19941 0.45122 0.80568 0.0
H794 H 0.30252 0.53033 0.76407 0.0
H795 H 0.28394 0.436 0.82829 0.0
H796 H 0.26286 0.37797 0.83618 0.0
H797 H 0.32099 0.37823 0.74566 0.0
H798 H 0.34205 0.43618 0.73684 0.0
H799 H 0.46708 0.61479 0.82131 0.0
H800 H 0.40863 0.58029 0.81986 0.0
H801 H 0.41723 0.52586 0.72976 0.0
H802 H 0.47563 0.55956 0.7318 0.0
H803 H 0.37587 0.48681 0.78068 0.0
H804 H 0.39289 0.58121 0.71562 0.0
H805 H 0.41333 0.63915 0.70796 0.0
H806 H 0.35835 0.63884 0.8019 0.0
H807 H 0.33786 0.58092 0.81039 0.0
C808 C 0.22513 0.41883 0.73899 0.0
C809 C 0.20348 0.42195 0.76248 0.0
C810 C 0.25804 0.44072 0.74095 0.0
C811 C 0.2702 0.46591 0.76693 0.0
C812 C 0.24853 0.46984 0.78949 0.0
C813 C 0.21546 0.44809 0.78726 0.0
C814 C 0.30553 0.48749 0.77104 0.0
C815 C 0.3185 0.52083 0.76826 0.0
C816 C 0.32655 0.47516 0.77605 0.0
C817 C 0.31438 0.4404 0.78172 0.0
C818 C 0.2921 0.42365 0.80994 0.0
C819 C 0.28016 0.39077 0.81458 0.0
C820 C 0.29052 0.37441 0.79138 0.0
C821 C 0.31295 0.39093 0.76358 0.0
C822 C 0.32493 0.4238 0.75877 0.0
C823 C 0.45655 0.59534 0.80135 0.0
C824 C 0.47612 0.59003 0.7766 0.0
C825 C 0.42309 0.57581 0.80032 0.0
C826 C 0.40845 0.55064 0.77444 0.0
C827 C 0.42793 0.54517 0.7499 0.0
C828 C 0.46134 0.56467 0.75089 0.0
C829 C 0.37289 0.5296 0.77315 0.0
C830 C 0.35987 0.49632 0.77662 0.0
C831 C 0.35188 0.54202 0.769 0.0
C832 C 0.36407 0.5768 0.76384 0.0
C833 C 0.38533 0.59354 0.7348 0.0
C834 C 0.39689 0.62636 0.73027 0.0
C835 C 0.38716 0.64266 0.75444 0.0
C836 C 0.36585 0.62617 0.78319 0.0
C837 C 0.35424 0.59334 0.78786 0.0
H838 H 0.39612 0.66807 0.75086 0.0
H839 H 0.28121 0.34894 0.79499 0.0
H840 H 0.24419 0.23744 0.29366 0.0
H841 H 0.21092 0.26261 0.29029 0.0
H842 H 0.1286 0.17111 0.26274 0.0
H843 H 0.16128 0.14548 0.26728 0.0
H844 H 0.13781 0.22104 0.21489 0.0
H845 H 0.13511 0.20029 0.34657 0.0
H846 H 0.15946 0.20504 0.40782 0.0
H847 H 0.20279 0.30761 0.40378 0.0
H848 H 0.17903 0.30347 0.34222 0.0
H849 H 0.99356 0.20984 0.25738 0.0
H850 H 0.043 0.20803 0.25575 0.0
H851 H 0.09772 0.31013 0.2755 0.0
H852 H 0.04744 0.31228 0.27691 0.0
H853 H 0.11347 0.27008 0.3223 0.0
H854 H 0.1069 0.28972 0.19576 0.0
H855 H 0.08003 0.28411 0.13602 0.0
H856 H 0.05397 0.18485 0.13005 0.0
H857 H 0.08029 0.18969 0.18999 0.0
C858 C 0.21886 0.22247 0.28767 0.0
C859 C 0.20547 0.18934 0.28072 0.0
C860 C 0.19997 0.23701 0.28543 0.0
C861 C 0.16738 0.21876 0.27602 0.0
C862 C 0.15382 0.18568 0.26964 0.0
C863 C 0.17257 0.17109 0.27221 0.0
C864 C 0.14716 0.23387 0.2725 0.0
C865 C 0.13253 0.23184 0.23832 0.0
C866 C 0.14134 0.24913 0.3027 0.0
C867 C 0.15569 0.2516 0.33959 0.0
C868 C 0.15011 0.22387 0.35857 0.0
C869 C 0.16374 0.22645 0.39338 0.0
C870 C 0.18277 0.25662 0.40962 0.0
C871 C 0.18813 0.28427 0.39112 0.0
C872 C 0.17458 0.28182 0.35628 0.0
C873 C 1.01602 0.23205 0.26142 0.0
C874 C 1.0166 0.26122 0.26758 0.0
C875 C 0.04431 0.23096 0.26021 0.0
C876 C 0.07398 0.25894 0.26524 0.0
C877 C 0.07496 0.2883 0.27141 0.0
C878 C 0.04635 0.28951 0.2721 0.0
C879 C 0.1033 0.25621 0.26507 0.0
C880 C 0.11961 0.26036 0.29851 0.0
C881 C 0.11084 0.24307 0.23411 0.0
C882 C 0.09553 0.24007 0.19754 0.0
C883 C 0.09532 0.26664 0.18181 0.0
C884 C 0.08019 0.26361 0.14789 0.0
C885 C 0.06525 0.23413 0.1293 0.0
C886 C 0.06557 0.20768 0.14449 0.0
C887 C 0.08067 0.21058 0.17841 0.0
H888 H 0.0534 0.23178 0.10315 0.0
H889 H 0.19328 0.25856 0.43658 0.0
H890 H 1.01587 0.79393 0.21594 0.0
H891 H 0.07397 0.82909 0.21198 0.0
H892 H 0.06437 0.90821 0.25333 0.0
H893 H 1.00623 0.87382 0.25508 0.0
H894 H 0.10934 0.93 0.20459 0.0
H895 H 0.08356 0.86008 0.3099 0.0
H896 H 0.06043 0.80797 0.34165 0.0
H897 H 0.12002 0.78306 0.27715 0.0
H898 H 0.14323 0.83491 0.2447 0.0
H899 H 0.24504 0.02663 0.30784 0.0
H900 H 0.19222 0.98046 0.29599 0.0
H901 H 0.23327 0.94371 0.21698 0.0
H902 H 0.28681 0.9906 0.2283 0.0
H903 H 0.17644 0.89699 0.27486 0.0
H904 H 0.20576 0.97316 0.17396 0.0
H905 H 0.23069 0.02875 0.15125 0.0
H906 H 0.16451 0.04425 0.21584 0.0
H907 H 0.13945 0.98882 0.2393 0.0
C908 C 0.02597 0.81901 0.22327 0.0
C909 C 1.00622 0.83087 0.23625 0.0
C910 C 0.05934 0.83902 0.22147 0.0
C911 C 0.07375 0.87118 0.23319 0.0
C912 C 0.05397 0.88345 0.24437 0.0
C913 C 0.02064 0.86361 0.24574 0.0
C914 C 0.10932 0.89185 0.23559 0.0
C915 C 0.1239 0.92256 0.21978 0.0
C916 C 0.1287 0.88227 0.25507 0.0
C917 C 0.11481 0.85116 0.27456 0.0
C918 C 0.09154 0.84338 0.30231 0.0
C919 C 0.07845 0.81392 0.32046 0.0
C920 C 0.08867 0.79218 0.31133 0.0
C921 C 0.11207 0.7999 0.28412 0.0
C922 C 0.12521 0.82931 0.26585 0.0
C923 C 0.24309 1.0085 0.2884 0.0
C924 C 0.27006 1.01248 0.26861 0.0
C925 C 0.21285 0.98206 0.2818 0.0
C926 C 0.20889 0.95895 0.25541 0.0
C927 C 0.23599 0.96138 0.23752 0.0
C928 C 0.2665 0.98809 0.24406 0.0
C929 C 0.17592 0.93476 0.2441 0.0
C930 C 0.16186 0.90373 0.25859 0.0
C931 C 0.15688 0.9441 0.22389 0.0
C932 C 0.17084 0.9769 0.20848 0.0
C933 C 0.19659 0.98846 0.18339 0.0
C934 C 0.21075 0.01994 0.17039 0.0
C935 C 0.19923 0.04005 0.18215 0.0
C936 C 0.17339 0.02864 0.20674 0.0
C937 C 0.15915 0.99717 0.21983 0.0
H938 H 0.2103 0.06445 0.17219 0.0
H939 H 0.07851 0.76938 0.32542 0.0
H940 H 0.884 0.02243 0.26226 0.0
H941 H 0.85871 0.96405 0.26238 0.0
H942 H 0.77996 0.9572 0.32666 0.0
H943 H 0.80421 0.01571 0.32519 0.0
H944 H 0.8094 0.91508 0.34798 0.0
H945 H 0.76053 0.94124 0.24833 0.0
H946 H 0.76127 0.97164 0.19342 0.0
H947 H 0.81812 0.93966 0.13495 0.0
H948 H 0.81819 0.9095 0.18976 0.0
H949 H 0.73199 0.74619 0.31338 0.0
H950 H 0.73693 0.7994 0.31959 0.0
H951 H 0.80712 0.83482 0.2318 0.0
H952 H 0.80178 0.78206 0.22502 0.0
H953 H 0.7711 0.86088 0.2264 0.0
H954 H 0.82851 0.84337 0.32498 0.0
H955 H 0.83435 0.81646 0.37975 0.0
H956 H 0.76683 0.83358 0.43915 0.0
H957 H 0.76045 0.8604 0.38466 0.0
C958 C 0.86126 1.00866 0.27639 0.0
C959 C 0.84599 0.02396 0.29323 0.0
C960 C 0.84697 0.97527 0.27663 0.0
C961 C 0.81736 0.9564 0.29421 0.0
C962 C 0.80285 0.97144 0.31294 0.0
C963 C 0.8169 1.00493 0.31224 0.0
C964 C 0.80111 0.92097 0.29095 0.0
C965 C 0.80027 0.903 0.32167 0.0
C966 C 0.78983 0.90548 0.25642 0.0
C967 C 0.78958 0.92333 0.22327 0.0
C968 C 0.77343 0.94092 0.22388 0.0
C969 C 0.77366 0.95807 0.19275 0.0
C970 C 0.78979 0.95764 0.16074 0.0
C971 C 0.80566 0.93999 0.15977 0.0
C972 C 0.80555 0.92284 0.19085 0.0
C973 C 0.74782 0.76517 0.29484 0.0
C974 C 0.76677 0.76009 0.26902 0.0
C975 C 0.75087 0.79563 0.29863 0.0
C976 C 0.77289 0.82133 0.27665 0.0
C977 C 0.7901 0.81552 0.24923 0.0
C978 C 0.78713 0.78531 0.2455 0.0
C979 C 0.78005 0.85483 0.28326 0.0
C980 C 0.77934 0.87262 0.25306 0.0
C981 C 0.79038 0.87021 0.31815 0.0
C982 C 0.79375 0.85358 0.35066 0.0
C983 C 0.81472 0.84115 0.34964 0.0
C984 C 0.8182 0.82601 0.38066 0.0
C985 C 0.80107 0.82343 0.41295 0.0
C986 C 0.7802 0.83572 0.4142 0.0
C987 C 0.77664 0.85089 0.38326 0.0
H988 H 0.80414 0.81211 0.43707 0.0
H989 H 0.78994 0.97093 0.13667 0.0
H990 H 0.20791 0.20899 0.85067 0.0
H991 H 0.22861 0.1716 0.85074 0.0
H992 H 0.19072 0.13965 0.74103 0.0
H993 H 0.17018 0.17674 0.74072 0.0
H994 H 0.17805 0.0898 0.78359 0.0
H995 H 0.27122 0.1935 0.75726 0.0
H996 H 0.31023 0.2503 0.77072 0.0
H997 H 0.337 0.2232 0.87149 0.0
H998 H 0.29782 0.16625 0.85884 0.0
H999 H 0.25245 1.01103 0.71326 0.0
H1000 H 0.24248 0.05561 0.72268 0.0
H1001 H 0.28224 0.07048 0.83251 0.0
H1002 H 0.29317 0.02616 0.82262 0.0
H1003 H 0.2942 0.12796 0.79908 0.0
H1004 H 0.20438 0.02371 0.82264 0.0
H1005 H 0.16639 0.96685 0.80818 0.0
H1006 H 0.13297 0.99472 0.71333 0.0
H1007 H 0.17119 0.05174 0.72679 0.0
C1008 C 0.20402 0.19398 0.82658 0.0
C1009 C 0.1872 0.19576 0.79578 0.0
C1010 C 0.21589 0.17265 0.82664 0.0
C1011 C 0.21144 0.15295 0.79576 0.0
C1012 C 0.19432 0.15444 0.76527 0.0
C1013 C 0.18241 0.1756 0.76522 0.0
C1014 C 0.2246 0.13079 0.7946 0.0
C1015 C 0.20348 0.09823 0.78677 0.0
C1016 C 0.25765 0.14151 0.79989 0.0
C1017 C 0.28136 0.17568 0.80731 0.0
C1018 C 0.28527 0.19969 0.78242 0.0
C1019 C 0.30743 0.2319 0.78987 0.0
C1020 C 0.32602 0.24036 0.82199 0.0
C1021 C 0.32255 0.21662 0.84665 0.0
C1022 C 0.30039 0.18437 0.83935 0.0
C1023 C 0.2601 0.02457 0.73892 0.0
C1024 C 0.27352 0.01528 0.76725 0.0
C1025 C 0.25421 0.04987 0.74438 0.0
C1026 C 0.26084 0.06579 0.77865 0.0
C1027 C 0.2768 0.05838 0.80594 0.0
C1028 C 0.28318 0.03323 0.80022 0.0
C1029 C 0.24775 0.08733 0.7869 0.0
C1030 C 0.26876 0.11955 0.79629 0.0
C1031 C 0.21451 0.07633 0.7832 0.0
C1032 C 0.19081 0.04204 0.77562 0.0
C1033 C 0.18903 0.01772 0.7986 0.0
C1034 C 0.16746 0.98545 0.79057 0.0
C1035 C 0.14731 0.97718 0.75983 0.0
C1036 C 0.1486 1.00117 0.73713 0.0
C1037 C 0.1702 0.03348 0.74496 0.0
H1038 H 0.13065 0.9522 0.75361 0.0
H1039 H 0.34316 0.26531 0.82772 0.0
H1040 H 0.02867 0.8862 0.76518 0.0
H1041 H 0.97018 0.85922 0.76802 0.0
H1042 H 0.96364 0.77438 0.71868 0.0
H1043 H 0.0223 0.80058 0.71722 0.0
H1044 H 0.91669 0.79533 0.69204 0.0
H1045 H 0.95451 0.76757 0.80061 0.0
H1046 H 0.98933 0.77871 0.85498 0.0
H1047 H 0.95558 0.83904 0.90086 0.0
H1048 H 0.92101 0.82876 0.84639 0.0
H1049 H 0.75018 0.71826 0.74418 0.0
H1050 H 0.80373 0.72358 0.73775 0.0
H1051 H 0.84474 0.81094 0.80244 0.0
H1052 H 0.79189 0.80569 0.80871 0.0
H1053 H 0.87227 0.77613 0.81934 0.0
H1054 H 0.84324 0.81272 0.70877 0.0
H1055 H 0.80892 0.8051 0.65482 0.0
H1056 H 0.82586 0.73106 0.61322 0.0
H1057 H 0.86002 0.73799 0.66729 0.0
C1058 C 1.01493 0.86182 0.75484 0.0
C1059 C 0.0304 0.84549 0.74148 0.0
C1060 C 0.98146 0.84653 0.75625 0.0
C1061 C 0.96268 0.81474 0.74388 0.0
C1062 C 0.97778 0.79896 0.72831 0.0
C1063 C 1.01137 0.8141 0.72734 0.0
C1064 C 0.9275 0.79759 0.75005 0.0
C1065 C 0.9068 0.79039 0.71978 0.0
C1066 C 0.91475 0.7915 0.78629 0.0
C1067 C 0.9354 0.79763 0.81921 0.0
C1068 C 0.95476 0.78348 0.8221 0.0
C1069 C 0.97441 0.78959 0.85298 0.0
C1070 C 0.97474 0.80964 0.88131 0.0
C1071 C 0.95535 0.82355 0.87886 0.0
C1072 C 0.93571 0.81758 0.84799 0.0
C1073 C 0.77062 0.73806 0.7577 0.0
C1074 C 0.76718 0.76171 0.77668 0.0
C1075 C 0.80113 0.74122 0.75383 0.0
C1076 C 0.82829 0.76792 0.76921 0.0
C1077 C 0.82423 0.79022 0.79025 0.0
C1078 C 0.79405 0.78727 0.79372 0.0
C1079 C 0.86142 0.77468 0.76145 0.0
C1080 C 0.8819 0.7801 0.79149 0.0
C1081 C 0.87392 0.77944 0.72504 0.0
C1082 C 0.85385 0.7756 0.69227 0.0
C1083 C 0.83948 0.79467 0.68824 0.0
C1084 C 0.82007 0.79049 0.65764 0.0
C1085 C 0.81512 0.76753 0.63066 0.0
C1086 C 0.82967 0.74878 0.63419 0.0
C1087 C 0.84906 0.75283 0.6648 0.0
H1088 H 0.80011 0.76434 0.60698 0.0
H1089 H 0.98995 0.81432 0.90521 0.0
H1090 H 0.02408 0.25172 0.82461 0.0
H1091 H 0.97845 0.1972 0.81952 0.0
H1092 H 0.9606 0.21683 0.70863 0.0
H1093 H 1.00568 0.27215 0.71438 0.0
H1094 H 0.9046 0.17515 0.7425 0.0
H1095 H 1.00605 0.18101 0.722 0.0
H1096 H 0.06192 0.19609 0.73592 0.0
H1097 H 0.03171 0.14374 0.83772 0.0
H1098 H 0.9755 0.12829 0.82427 0.0
H1099 H 0.82167 1.00693 0.69417 0.0
H1100 H 0.85877 0.06511 0.69515 0.0
H1101 H 0.88662 0.0584 0.80647 0.0
H1102 H 0.85006 1.00059 0.8055 0.0
H1103 H 0.93754 0.09427 0.76645 0.0
H1104 H 0.83476 0.08769 0.78541 0.0
H1105 H 0.77898 0.07166 0.76897 0.0
H1106 H 0.81161 0.12474 0.6679 0.0
H1107 H 0.86757 0.14075 0.68354 0.0
C1108 C 1.00981 0.24465 0.79957 0.0
C1109 C 1.01831 0.26597 0.76986 0.0
C1110 C 0.9839 0.21345 0.79655 0.0
C1111 C 0.96666 0.2026 0.76329 0.0
C1112 C 0.97366 0.2246 0.73447 0.0
C1113 C 0.9993 0.25619 0.7378 0.0
C1114 C 0.94365 0.16776 0.75775 0.0
C1115 C 0.91185 0.15745 0.7473 0.0
C1116 C 0.95298 0.14456 0.7641 0.0
C1117 C 0.98668 0.15371 0.77226 0.0
C1118 C 1.01137 0.17286 0.74744 0.0
C1119 C 0.0431 0.18145 0.75525 0.0
C1120 C 0.05042 0.17101 0.78781 0.0
C1121 C 0.026 0.15183 0.81254 0.0
C1122 C 0.99419 0.14306 0.80478 0.0
C1123 C 0.83573 0.01794 0.71882 0.0
C1124 C 0.83313 0.99909 0.74963 0.0
C1125 C 0.85679 0.05119 0.71942 0.0
C1126 C 0.87528 0.06624 0.75105 0.0
C1127 C 0.87272 0.04738 0.78171 0.0
C1128 C 0.85194 0.01425 0.78102 0.0
C1129 C 0.89813 0.10142 0.75229 0.0
C1130 C 0.93014 0.11187 0.76164 0.0
C1131 C 0.88888 0.12454 0.74471 0.0
C1132 C 0.8553 0.11514 0.73547 0.0
C1133 C 0.83001 0.09575 0.75956 0.0
C1134 C 0.79837 0.0867 0.75041 0.0
C1135 C 0.79175 0.0971 0.71736 0.0
C1136 C 0.81677 0.11666 0.69346 0.0
C1137 C 0.84845 0.12575 0.70247 0.0
H1138 H 0.76724 0.09006 0.71032 0.0
H1139 H 0.07497 0.17764 0.79389 0.0
loop_
_geom_bond_atom_site_label_1
_geom_bond_atom_site_label_2
_geom_bond_distance
_geom_bond_site_symmetry_2
_ccdc_geom_bond_type
Tb0 C10 2.825 . S
Tb0 O11 2.347 . S
Tb0 O14 2.366 . S
Tb0 O19 2.418 . S
Tb0 O20 2.384 . S
Tb0 O23 2.479 . S
Tb0 O24 2.471 . S
Eu1 O12 2.418 . S
Eu1 O13 2.384 . S
Eu1 O16 2.479 . S
Eu1 O17 2.471 . S
Eu1 O18 2.347 . S
Eu1 O21 2.366 . S
Eu1 C31 2.825 . S
C2 O18 1.259 . S
C2 O19 1.265 . S
C3 O20 1.255 . S
C3 O21 1.265 . S
C4 C6 1.380 . S
C4 C7 1.374 . S
C4 C10 1.507 . S
C5 C6 1.384 . S
C5 C9 1.387 . S
C5 H32 0.930 . S
C6 C4 1.380 . S
C6 C5 1.384 . S
C6 H33 0.931 . S
C7 C4 1.374 . S
C7 C8 1.390 . S
C7 H34 0.930 . S
C8 C7 1.390 . S
C8 C9 1.391 . S
C8 H35 0.930 . S
C9 C5 1.387 . S
C9 C8 1.391 . S
C10 Tb0 2.825 . S
C10 C4 1.507 . S
C10 O23 1.238 . S
C10 O24 1.247 . S
O11 Tb0 2.347 . S
O11 C15 1.259 . S
O12 Eu1 2.418 . S
O12 C15 1.265 . S
O13 Eu1 2.384 . S
O13 C22 1.255 . S
O14 Tb0 2.366 . S
O14 C22 1.265 . S
C15 O11 1.259 . S
C15 O12 1.265 . S
O16 Eu1 2.479 . S
O16 C31 1.238 . S
O17 Eu1 2.471 . S
O17 C31 1.247 . S
O18 Eu1 2.347 . S
O18 C2 1.259 . S
O19 Tb0 2.418 . S
O19 C2 1.265 . S
O20 Tb0 2.384 . S
O20 C3 1.255 . S
O21 Eu1 2.366 . S
O21 C3 1.265 . S
C22 O13 1.255 . S
C22 O14 1.265 . S
O23 Tb0 2.479 . S
O23 C10 1.238 . S
O24 Tb0 2.471 . S
O24 C10 1.247 . S
C25 C28 1.380 . S
C25 C29 1.374 . S
C25 C31 1.507 . S
C26 C27 1.387 . S
C26 C30 1.391 . S
C27 C26 1.387 . S
C27 C28 1.384 . S
C27 H36 0.930 . S
C28 C25 1.380 . S
C28 C27 1.384 . S
C28 H37 0.931 . S
C29 C25 1.374 . S
C29 C30 1.390 . S
C29 H38 0.930 . S
C30 C26 1.391 . S
C30 C29 1.390 . S
C30 H39 0.930 . S
C31 Eu1 2.825 . S
C31 O16 1.238 . S
C31 O17 1.247 . S
C31 C25 1.507 . S
H32 C5 0.930 . S
H33 C6 0.931 . S
H34 C7 0.930 . S
H35 C8 0.930 . S
H36 C27 0.930 . S
H37 C28 0.931 . S
H38 C29 0.930 . S
H39 C30 0.930 . S
Tb40 C50 2.825 . S
Tb40 O51 2.347 . S
Tb40 O54 2.366 . S
Tb40 O59 2.418 . S
Tb40 O60 2.384 . S
Tb40 O63 2.479 . S
Tb40 O64 2.471 . S
Eu41 O52 2.418 . S
Eu41 O53 2.384 . S
Eu41 O56 2.479 . S
Eu41 O57 2.471 . S
Eu41 O58 2.347 . S
Eu41 O61 2.366 . S
Eu41 C71 2.825 . S
C42 O58 1.259 . S
C42 O59 1.265 . S
C43 O60 1.255 . S
C43 O61 1.265 . S
C44 C46 1.380 . S
C44 C47 1.374 . S
C44 C50 1.507 . S
C45 C46 1.384 . S
C45 C49 1.387 . S
C45 H72 0.930 . S
C46 C44 1.380 . S
C46 C45 1.384 . S
C46 H73 0.931 . S
C47 C44 1.374 . S
C47 C48 1.390 . S
C47 H74 0.930 . S
C48 C47 1.390 . S
C48 C49 1.391 . S
C48 H75 0.930 . S
C49 C45 1.387 . S
C49 C48 1.391 . S
C50 Tb40 2.825 . S
C50 C44 1.507 . S
C50 O63 1.238 . S
C50 O64 1.247 . S
O51 Tb40 2.347 . S
O51 C55 1.259 . S
O52 Eu41 2.418 . S
O52 C55 1.265 . S
O53 Eu41 2.384 . S
O53 C62 1.255 . S
O54 Tb40 2.366 . S
O54 C62 1.265 . S
C55 O51 1.259 . S
C55 O52 1.265 . S
O56 Eu41 2.479 . S
O56 C71 1.238 . S
O57 Eu41 2.471 . S
O57 C71 1.247 . S
O58 Eu41 2.347 . S
O58 C42 1.259 . S
O59 Tb40 2.418 . S
O59 C42 1.265 . S
O60 Tb40 2.384 . S
O60 C43 1.255 . S
O61 Eu41 2.366 . S
O61 C43 1.265 . S
C62 O53 1.255 . S
C62 O54 1.265 . S
O63 Tb40 2.479 . S
O63 C50 1.238 . S
O64 Tb40 2.471 . S
O64 C50 1.247 . S
C65 C68 1.380 . S
C65 C69 1.374 . S
C65 C71 1.507 . S
C66 C67 1.387 . S
C66 C70 1.391 . S
C67 C66 1.387 . S
C67 C68 1.384 . S
C67 H76 0.930 . S
C68 C65 1.380 . S
C68 C67 1.384 . S
C68 H77 0.931 . S
C69 C65 1.374 . S
C69 C70 1.390 . S
C69 H78 0.930 . S
C70 C66 1.391 . S
C70 C69 1.390 . S
C70 H79 0.930 . S
C71 Eu41 2.825 . S
C71 O56 1.238 . S
C71 O57 1.247 . S
C71 C65 1.507 . S
H72 C45 0.930 . S
H73 C46 0.931 . S
H74 C47 0.930 . S
H75 C48 0.930 . S
H76 C67 0.930 . S
H77 C68 0.931 . S
H78 C69 0.930 . S
H79 C70 0.930 . S
Tb80 C90 2.825 . S
Tb80 O91 2.347 . S
Tb80 O94 2.366 . S
Tb80 O99 2.418 . S
Tb80 O100 2.384 . S
Tb80 O103 2.479 . S
Tb80 O104 2.471 . S
Eu81 O92 2.418 . S
Eu81 O93 2.384 . S
Eu81 O96 2.479 . S
Eu81 O97 2.471 . S
Eu81 O98 2.347 . S
Eu81 O101 2.366 . S
Eu81 C111 2.825 . S
C82 O98 1.259 . S
C82 O99 1.265 . S
C83 O100 1.255 . S
C83 O101 1.265 . S
C84 C86 1.380 . S
C84 C87 1.374 . S
C84 C90 1.507 . S
C85 C86 1.384 . S
C85 C89 1.387 . S
C85 H112 0.930 . S
C86 C84 1.380 . S
C86 C85 1.384 . S
C86 H113 0.931 . S
C87 C84 1.374 . S
C87 C88 1.390 . S
C87 H114 0.930 . S
C88 C87 1.390 . S
C88 C89 1.391 . S
C88 H115 0.930 . S
C89 C85 1.387 . S
C89 C88 1.391 . S
C90 Tb80 2.825 . S
C90 C84 1.507 . S
C90 O103 1.238 . S
C90 O104 1.247 . S
O91 Tb80 2.347 . S
O91 C95 1.259 . S
O92 Eu81 2.418 . S
O92 C95 1.265 . S
O93 Eu81 2.384 . S
O93 C102 1.255 . S
O94 Tb80 2.366 . S
O94 C102 1.265 . S
C95 O91 1.259 . S
C95 O92 1.265 . S
O96 Eu81 2.479 . S
O96 C111 1.238 . S
O97 Eu81 2.471 . S
O97 C111 1.247 . S
O98 Eu81 2.347 . S
O98 C82 1.259 . S
O99 Tb80 2.418 . S
O99 C82 1.265 . S
O100 Tb80 2.384 . S
O100 C83 1.255 . S
O101 Eu81 2.366 . S
O101 C83 1.265 . S
C102 O93 1.255 . S
C102 O94 1.265 . S
O103 Tb80 2.479 . S
O103 C90 1.238 . S
O104 Tb80 2.471 . S
O104 C90 1.247 . S
C105 C108 1.380 . S
C105 C109 1.374 . S
C105 C111 1.507 . S
C106 C107 1.387 . S
C106 C110 1.391 . S
C107 C106 1.387 . S
C107 C108 1.384 . S
C107 H116 0.930 . S
C108 C105 1.380 . S
C108 C107 1.384 . S
C108 H117 0.931 . S
C109 C105 1.374 . S
C109 C110 1.390 . S
C109 H118 0.930 . S
C110 C106 1.391 . S
C110 C109 1.390 . S
C110 H119 0.930 . S
C111 Eu81 2.825 . S
C111 O96 1.238 . S
C111 O97 1.247 . S
C111 C105 1.507 . S
H112 C85 0.930 . S
H113 C86 0.931 . S
H114 C87 0.930 . S
H115 C88 0.930 . S
H116 C107 0.930 . S
H117 C108 0.931 . S
H118 C109 0.930 . S
H119 C110 0.930 . S
Tb120 C130 2.825 . S
Tb120 O131 2.347 . S
Tb120 O134 2.366 . S
Tb120 O139 2.418 . S
Tb120 O140 2.384 . S
Tb120 O143 2.479 . S
Tb120 O144 2.471 . S
Eu121 O132 2.418 . S
Eu121 O133 2.384 . S
Eu121 O136 2.479 . S
Eu121 O137 2.471 . S
Eu121 O138 2.347 . S
Eu121 O141 2.366 . S
Eu121 C151 2.825 . S
C122 O138 1.259 . S
C122 O139 1.265 . S
C123 O140 1.255 . S
C123 O141 1.265 . S
C124 C126 1.380 . S
C124 C127 1.374 . S
C124 C130 1.507 . S
C125 C126 1.384 . S
C125 C129 1.387 . S
C125 H152 0.930 . S
C126 C124 1.380 . S
C126 C125 1.384 . S
C126 H153 0.931 . S
C127 C124 1.374 . S
C127 C128 1.390 . S
C127 H154 0.930 . S
C128 C127 1.390 . S
C128 C129 1.391 . S
C128 H155 0.930 . S
C129 C125 1.387 . S
C129 C128 1.391 . S
C130 Tb120 2.825 . S
C130 C124 1.507 . S
C130 O143 1.238 . S
C130 O144 1.247 . S
O131 Tb120 2.347 . S
O131 C135 1.259 . S
O132 Eu121 2.418 . S
O132 C135 1.265 . S
O133 Eu121 2.384 . S
O133 C142 1.255 . S
O134 Tb120 2.366 . S
O134 C142 1.265 . S
C135 O131 1.259 . S
C135 O132 1.265 . S
O136 Eu121 2.479 . S
O136 C151 1.238 . S
O137 Eu121 2.471 . S
O137 C151 1.247 . S
O138 Eu121 2.347 . S
O138 C122 1.259 . S
O139 Tb120 2.418 . S
O139 C122 1.265 . S
O140 Tb120 2.384 . S
O140 C123 1.255 . S
O141 Eu121 2.366 . S
O141 C123 1.265 . S
C142 O133 1.255 . S
C142 O134 1.265 . S
O143 Tb120 2.479 . S
O143 C130 1.238 . S
O144 Tb120 2.471 . S
O144 C130 1.247 . S
C145 C148 1.380 . S
C145 C149 1.374 . S
C145 C151 1.507 . S
C146 C147 1.387 . S
C146 C150 1.391 . S
C147 C146 1.387 . S
C147 C148 1.384 . S
C147 H156 0.930 . S
C148 C145 1.380 . S
C148 C147 1.384 . S
C148 H157 0.931 . S
C149 C145 1.374 . S
C149 C150 1.390 . S
C149 H158 0.930 . S
C150 C146 1.391 . S
C150 C149 1.390 . S
C150 H159 0.930 . S
C151 Eu121 2.825 . S
C151 O136 1.238 . S
C151 O137 1.247 . S
C151 C145 1.507 . S
H152 C125 0.930 . S
H153 C126 0.931 . S
H154 C127 0.930 . S
H155 C128 0.930 . S
H156 C147 0.930 . S
H157 C148 0.931 . S
H158 C149 0.930 . S
H159 C150 0.930 . S
Tb160 C170 2.825 . S
Tb160 O171 2.347 . S
Tb160 O174 2.366 . S
Tb160 O179 2.418 . S
Tb160 O180 2.384 . S
Tb160 O183 2.479 . S
Tb160 O184 2.471 . S
Eu161 O172 2.418 . S
Eu161 O173 2.384 . S
Eu161 O176 2.479 . S
Eu161 O177 2.471 . S
Eu161 O178 2.347 . S
Eu161 O181 2.366 . S
Eu161 C191 2.825 . S
C162 O178 1.259 . S
C162 O179 1.265 . S
C163 O180 1.255 . S
C163 O181 1.265 . S
C164 C166 1.380 . S
C164 C167 1.374 . S
C164 C170 1.507 . S
C165 C166 1.384 . S
C165 C169 1.387 . S
C165 H192 0.930 . S
C166 C164 1.380 . S
C166 C165 1.384 . S
C166 H193 0.931 . S
C167 C164 1.374 . S
C167 C168 1.390 . S
C167 H194 0.930 . S
C168 C167 1.390 . S
C168 C169 1.391 . S
C168 H195 0.930 . S
C169 C165 1.387 . S
C169 C168 1.391 . S
C170 Tb160 2.825 . S
C170 C164 1.507 . S
C170 O183 1.238 . S
C170 O184 1.247 . S
O171 Tb160 2.347 . S
O171 C175 1.259 . S
O172 Eu161 2.418 . S
O172 C175 1.265 . S
O173 Eu161 2.384 . S
O173 C182 1.255 . S
O174 Tb160 2.366 . S
O174 C182 1.265 . S
C175 O171 1.259 . S
C175 O172 1.265 . S
O176 Eu161 2.479 . S
O176 C191 1.238 . S
O177 Eu161 2.471 . S
O177 C191 1.247 . S
O178 Eu161 2.347 . S
O178 C162 1.259 . S
O179 Tb160 2.418 . S
O179 C162 1.265 . S
O180 Tb160 2.384 . S
O180 C163 1.255 . S
O181 Eu161 2.366 . S
O181 C163 1.265 . S
C182 O173 1.255 . S
C182 O174 1.265 . S
O183 Tb160 2.479 . S
O183 C170 1.238 . S
O184 Tb160 2.471 . S
O184 C170 1.247 . S
C185 C188 1.380 . S
C185 C189 1.374 . S
C185 C191 1.507 . S
C186 C187 1.387 . S
C186 C190 1.391 . S
C187 C186 1.387 . S
C187 C188 1.384 . S
C187 H196 0.930 . S
C188 C185 1.380 . S
C188 C187 1.384 . S
C188 H197 0.931 . S
C189 C185 1.374 . S
C189 C190 1.390 . S
C189 H198 0.930 . S
C190 C186 1.391 . S
C190 C189 1.390 . S
C190 H199 0.930 . S
C191 Eu161 2.825 . S
C191 O176 1.238 . S
C191 O177 1.247 . S
C191 C185 1.507 . S
H192 C165 0.930 . S
H193 C166 0.931 . S
H194 C167 0.930 . S
H195 C168 0.930 . S
H196 C187 0.930 . S
H197 C188 0.931 . S
H198 C189 0.930 . S
H199 C190 0.930 . S
Tb200 C210 2.825 . S
Tb200 O211 2.347 . S
Tb200 O214 2.366 . S
Tb200 O219 2.418 . S
Tb200 O220 2.384 . S
Tb200 O223 2.479 . S
Tb200 O224 2.471 . S
Eu201 O212 2.418 . S
Eu201 O213 2.384 . S
Eu201 O216 2.479 . S
Eu201 O217 2.471 . S
Eu201 O218 2.347 . S
Eu201 O221 2.366 . S
Eu201 C231 2.825 . S
C202 O218 1.259 . S
C202 O219 1.265 . S
C203 O220 1.255 . S
C203 O221 1.265 . S
C204 C206 1.380 . S
C204 C207 1.374 . S
C204 C210 1.507 . S
C205 C206 1.384 . S
C205 C209 1.387 . S
C205 H232 0.930 . S
C206 C204 1.380 . S
C206 C205 1.384 . S
C206 H233 0.931 . S
C207 C204 1.374 . S
C207 C208 1.390 . S
C207 H234 0.930 . S
C208 C207 1.390 . S
C208 C209 1.391 . S
C208 H235 0.930 . S
C209 C205 1.387 . S
C209 C208 1.391 . S
C210 Tb200 2.825 . S
C210 C204 1.507 . S
C210 O223 1.238 . S
C210 O224 1.247 . S
O211 Tb200 2.347 . S
O211 C215 1.259 . S
O212 Eu201 2.418 . S
O212 C215 1.265 . S
O213 Eu201 2.384 . S
O213 C222 1.255 . S
O214 Tb200 2.366 . S
O214 C222 1.265 . S
C215 O211 1.259 . S
C215 O212 1.265 . S
O216 Eu201 2.479 . S
O216 C231 1.238 . S
O217 Eu201 2.471 . S
O217 C231 1.247 . S
O218 Eu201 2.347 . S
O218 C202 1.259 . S
O219 Tb200 2.418 . S
O219 C202 1.265 . S
O220 Tb200 2.384 . S
O220 C203 1.255 . S
O221 Eu201 2.366 . S
O221 C203 1.265 . S
C222 O213 1.255 . S
C222 O214 1.265 . S
O223 Tb200 2.479 . S
O223 C210 1.238 . S
O224 Tb200 2.471 . S
O224 C210 1.247 . S
C225 C228 1.380 . S
C225 C229 1.374 . S
C225 C231 1.507 . S
C226 C227 1.387 . S
C226 C230 1.391 . S
C227 C226 1.387 . S
C227 C228 1.384 . S
C227 H236 0.930 . S
C228 C225 1.380 . S
C228 C227 1.384 . S
C228 H237 0.931 . S
C229 C225 1.374 . S
C229 C230 1.390 . S
C229 H238 0.930 . S
C230 C226 1.391 . S
C230 C229 1.390 . S
C230 H239 0.930 . S
C231 Eu201 2.825 . S
C231 O216 1.238 . S
C231 O217 1.247 . S
C231 C225 1.507 . S
H232 C205 0.930 . S
H233 C206 0.931 . S
H234 C207 0.930 . S
H235 C208 0.930 . S
H236 C227 0.930 . S
H237 C228 0.931 . S
H238 C229 0.930 . S
H239 C230 0.930 . S
H240 C258 0.951 . S
H241 C260 0.951 . S
H242 C262 0.950 . S
H243 C263 0.950 . S
H244 C265 0.950 . S
H245 C268 0.950 . S
H246 C269 0.950 . S
H247 C271 0.950 . S
H248 C272 0.950 . S
H249 C273 0.951 . S
H250 C275 0.951 . S
H251 C277 0.950 . S
H252 C278 0.950 . S
H253 C280 0.950 . S
H254 C283 0.950 . S
H255 C284 0.950 . S
H256 C286 0.950 . S
H257 C287 0.950 . S
C258 H240 0.951 . S
C258 C259 1.366 . S
C258 C260 1.388 . S
C259 C258 1.366 . S
C259 C263 1.385 . S
C260 H241 0.951 . S
C260 C258 1.388 . S
C260 C261 1.366 . S
C261 C260 1.366 . S
C261 C262 1.414 . S
C261 C264 1.499 . S
C262 H242 0.950 . S
C262 C261 1.414 . S
C262 C263 1.374 . S
C263 H243 0.950 . S
C263 C259 1.385 . S
C263 C262 1.374 . S
C264 C261 1.499 . S
C264 C265 1.373 1_565 S
C264 C266 1.389 1_556 S
C265 H244 0.950 . S
C265 C264 1.373 1_545 S
C265 C281 1.377 . S
C266 C264 1.389 1_554 S
C266 C267 1.524 . S
C266 C280 1.377 . S
C267 C266 1.524 . S
C267 C268 1.397 1_554 S
C267 C272 1.363 . S
C268 H245 0.950 . S
C268 C267 1.397 1_556 S
C268 C269 1.334 . S
C269 H246 0.950 . S
C269 C268 1.334 . S
C269 C270 1.287 1_556 S
C270 C269 1.287 1_554 S
C270 C271 1.524 . S
C270 H289 0.913 . S
C271 H247 0.950 . S
C271 C270 1.524 . S
C271 C272 1.415 . S
C272 H248 0.950 . S
C272 C267 1.363 . S
C272 C271 1.415 . S
C273 H249 0.951 . S
C273 C274 1.366 . S
C273 C275 1.388 . S
C274 C273 1.366 . S
C274 C278 1.385 . S
C275 H250 0.951 . S
C275 C273 1.388 . S
C275 C276 1.366 . S
C276 C275 1.366 . S
C276 C277 1.414 . S
C276 C279 1.499 . S
C277 H251 0.950 . S
C277 C276 1.414 . S
C277 C278 1.374 . S
C278 H252 0.950 . S
C278 C274 1.385 . S
C278 C277 1.374 . S
C279 C276 1.499 . S
C279 C280 1.373 1_545 S
C279 C281 1.389 1_554 S
C280 H253 0.950 . S
C280 C266 1.377 . S
C280 C279 1.373 1_565 S
C281 C265 1.377 . S
C281 C279 1.389 1_556 S
C281 C282 1.524 . S
C282 C281 1.524 . S
C282 C283 1.397 1_556 S
C282 C287 1.363 . S
C283 H254 0.950 . S
C283 C282 1.397 1_554 S
C283 C284 1.334 . S
C284 H255 0.950 . S
C284 C283 1.334 . S
C284 C285 1.287 1_554 S
C285 C284 1.287 1_556 S
C285 C286 1.524 . S
C285 H288 0.999 . S
C286 H256 0.950 . S
C286 C285 1.524 . S
C286 C287 1.415 . S
C287 H257 0.950 . S
C287 C282 1.363 . S
C287 C286 1.415 . S
H288 C285 0.999 . S
H289 C270 0.913 . S
H290 C308 0.951 . S
H291 C310 0.951 . S
H292 C312 0.950 . S
H293 C313 0.950 . S
H294 C315 0.950 . S
H295 C318 0.950 . S
H296 C319 0.950 . S
H297 C321 0.950 . S
H298 C322 0.950 . S
H299 C323 0.951 . S
H300 C325 0.951 . S
H301 C327 0.950 . S
H302 C328 0.950 . S
H303 C330 0.950 . S
H304 C333 0.950 . S
H305 C334 0.950 . S
H306 C336 0.950 . S
H307 C337 0.950 . S
C308 H290 0.951 . S
C308 C309 1.366 . S
C308 C310 1.388 . S
C309 C308 1.366 . S
C309 C313 1.385 . S
C310 H291 0.951 . S
C310 C308 1.388 . S
C310 C311 1.366 . S
C311 C310 1.366 . S
C311 C312 1.414 . S
C311 C314 1.499 . S
C312 H292 0.950 . S
C312 C311 1.414 . S
C312 C313 1.374 . S
C313 H293 0.950 . S
C313 C309 1.385 . S
C313 C312 1.374 . S
C314 C311 1.499 . S
C314 C315 1.373 . S
C314 C316 1.389 . S
C315 H294 0.950 . S
C315 C314 1.373 . S
C315 C331 1.377 . S
C316 C314 1.389 . S
C316 C317 1.524 . S
C316 C330 1.377 . S
C317 C316 1.524 . S
C317 C318 1.397 . S
C317 C322 1.363 . S
C318 H295 0.950 . S
C318 C317 1.397 . S
C318 C319 1.334 . S
C319 H296 0.950 . S
C319 C318 1.334 . S
C319 C320 1.287 . S
C320 C319 1.287 . S
C320 C321 1.524 . S
C320 H339 0.913 . S
C321 H297 0.950 . S
C321 C320 1.524 . S
C321 C322 1.415 . S
C322 H298 0.950 . S
C322 C317 1.363 . S
C322 C321 1.415 . S
C323 H299 0.951 . S
C323 C324 1.366 . S
C323 C325 1.388 . S
C324 C323 1.366 . S
C324 C328 1.385 . S
C325 H300 0.951 . S
C325 C323 1.388 . S
C325 C326 1.366 . S
C326 C325 1.366 . S
C326 C327 1.414 . S
C326 C329 1.499 . S
C327 H301 0.950 . S
C327 C326 1.414 . S
C327 C328 1.374 . S
C328 H302 0.950 . S
C328 C324 1.385 . S
C328 C327 1.374 . S
C329 C326 1.499 . S
C329 C330 1.373 . S
C329 C331 1.389 . S
C330 H303 0.950 . S
C330 C316 1.377 . S
C330 C329 1.373 . S
C331 C315 1.377 . S
C331 C329 1.389 . S
C331 C332 1.524 . S
C332 C331 1.524 . S
C332 C333 1.397 . S
C332 C337 1.363 . S
C333 H304 0.950 . S
C333 C332 1.397 . S
C333 C334 1.334 . S
C334 H305 0.950 . S
C334 C333 1.334 . S
C334 C335 1.287 . S
C335 C334 1.287 . S
C335 C336 1.524 . S
C335 H338 0.999 . S
C336 H306 0.950 . S
C336 C335 1.524 . S
C336 C337 1.415 . S
C337 H307 0.950 . S
C337 C332 1.363 . S
C337 C336 1.415 . S
H338 C335 0.999 . S
H339 C320 0.913 . S
H340 C358 0.951 . S
H341 C360 0.951 . S
H342 C362 0.950 . S
H343 C363 0.950 . S
H344 C365 0.950 . S
H345 C368 0.950 . S
H346 C369 0.950 . S
H347 C371 0.950 . S
H348 C372 0.950 . S
H349 C373 0.951 . S
H350 C375 0.951 . S
H351 C377 0.950 . S
H352 C378 0.950 . S
H353 C380 0.950 . S
H354 C383 0.950 . S
H355 C384 0.950 . S
H356 C386 0.950 . S
H357 C387 0.950 . S
C358 H340 0.951 . S
C358 C359 1.366 . S
C358 C360 1.388 . S
C359 C358 1.366 . S
C359 C363 1.385 . S
C360 H341 0.951 . S
C360 C358 1.388 . S
C360 C361 1.366 . S
C361 C360 1.366 . S
C361 C362 1.414 . S
C361 C364 1.499 . S
C362 H342 0.950 . S
C362 C361 1.414 . S
C362 C363 1.374 . S
C363 H343 0.950 . S
C363 C359 1.385 . S
C363 C362 1.374 . S
C364 C361 1.499 . S
C364 C365 1.373 1_655 S
C364 C366 1.389 1_554 S
C365 H344 0.950 . S
C365 C364 1.373 1_455 S
C365 C381 1.377 . S
C366 C364 1.389 1_556 S
C366 C367 1.524 . S
C366 C380 1.377 . S
C367 C366 1.524 . S
C367 C368 1.397 1_556 S
C367 C372 1.363 . S
C368 H345 0.950 . S
C368 C367 1.397 1_554 S
C368 C369 1.334 . S
C369 H346 0.950 . S
C369 C368 1.334 . S
C369 C370 1.287 1_554 S
C370 C369 1.287 1_556 S
C370 C371 1.524 . S
C370 H389 0.913 . S
C371 H347 0.950 . S
C371 C370 1.524 . S
C371 C372 1.415 . S
C372 H348 0.950 . S
C372 C367 1.363 . S
C372 C371 1.415 . S
C373 H349 0.951 . S
C373 C374 1.366 . S
C373 C375 1.388 . S
C374 C373 1.366 . S
C374 C378 1.385 . S
C375 H350 0.951 . S
C375 C373 1.388 . S
C375 C376 1.366 . S
C376 C375 1.366 . S
C376 C377 1.414 . S
C376 C379 1.499 . S
C377 H351 0.950 . S
C377 C376 1.414 . S
C377 C378 1.374 . S
C378 H352 0.950 . S
C378 C374 1.385 . S
C378 C377 1.374 . S
C379 C376 1.499 . S
C379 C380 1.373 1_455 S
C379 C381 1.389 1_556 S
C380 H353 0.950 . S
C380 C366 1.377 . S
C380 C379 1.373 1_655 S
C381 C365 1.377 . S
C381 C379 1.389 1_554 S
C381 C382 1.524 . S
C382 C381 1.524 . S
C382 C383 1.397 1_554 S
C382 C387 1.363 . S
C383 H354 0.950 . S
C383 C382 1.397 1_556 S
C383 C384 1.334 . S
C384 H355 0.950 . S
C384 C383 1.334 . S
C384 C385 1.287 1_556 S
C385 C384 1.287 1_554 S
C385 C386 1.524 . S
C385 H388 0.999 . S
C386 H356 0.950 . S
C386 C385 1.524 . S
C386 C387 1.415 . S
C387 H357 0.950 . S
C387 C382 1.363 . S
C387 C386 1.415 . S
H388 C385 0.999 . S
H389 C370 0.913 . S
H390 C408 0.951 . S
H391 C410 0.951 . S
H392 C412 0.950 . S
H393 C413 0.950 . S
H394 C415 0.950 . S
H395 C418 0.950 . S
H396 C419 0.950 . S
H397 C421 0.950 . S
H398 C422 0.950 . S
H399 C423 0.951 . S
H400 C425 0.951 . S
H401 C427 0.950 . S
H402 C428 0.950 . S
H403 C430 0.950 . S
H404 C433 0.950 . S
H405 C434 0.950 . S
H406 C436 0.950 . S
H407 C437 0.950 . S
C408 H390 0.951 . S
C408 C409 1.366 . S
C408 C410 1.388 . S
C409 C408 1.366 . S
C409 C413 1.385 . S
C410 H391 0.951 . S
C410 C408 1.388 . S
C410 C411 1.366 . S
C411 C410 1.366 . S
C411 C412 1.414 . S
C411 C414 1.499 . S
C412 H392 0.950 . S
C412 C411 1.414 . S
C412 C413 1.374 . S
C413 H393 0.950 . S
C413 C409 1.385 . S
C413 C412 1.374 . S
C414 C411 1.499 . S
C414 C415 1.373 1_545 S
C414 C416 1.389 . S
C415 H394 0.950 . S
C415 C414 1.373 1_565 S
C415 C431 1.377 . S
C416 C414 1.389 . S
C416 C417 1.524 . S
C416 C430 1.377 . S
C417 C416 1.524 . S
C417 C418 1.397 . S
C417 C422 1.363 . S
C418 H395 0.950 . S
C418 C417 1.397 . S
C418 C419 1.334 . S
C419 H396 0.950 . S
C419 C418 1.334 . S
C419 C420 1.287 . S
C420 C419 1.287 . S
C420 C421 1.524 . S
C420 H439 0.913 . S
C421 H397 0.950 . S
C421 C420 1.524 . S
C421 C422 1.415 . S
C422 H398 0.950 . S
C422 C417 1.363 . S
C422 C421 1.415 . S
C423 H399 0.951 . S
C423 C424 1.366 . S
C423 C425 1.388 . S
C424 C423 1.366 . S
C424 C428 1.385 . S
C425 H400 0.951 . S
C425 C423 1.388 . S
C425 C426 1.366 . S
C426 C425 1.366 . S
C426 C427 1.414 . S
C426 C429 1.499 . S
C427 H401 0.950 . S
C427 C426 1.414 . S
C427 C428 1.374 . S
C428 H402 0.950 . S
C428 C424 1.385 . S
C428 C427 1.374 . S
C429 C426 1.499 . S
C429 C430 1.373 1_565 S
C429 C431 1.389 . S
C430 H403 0.950 . S
C430 C416 1.377 . S
C430 C429 1.373 1_545 S
C431 C415 1.377 . S
C431 C429 1.389 . S
C431 C432 1.524 . S
C432 C431 1.524 . S
C432 C433 1.397 . S
C432 C437 1.363 . S
C433 H404 0.950 . S
C433 C432 1.397 . S
C433 C434 1.334 . S
C434 H405 0.950 . S
C434 C433 1.334 . S
C434 C435 1.287 . S
C435 C434 1.287 . S
C435 C436 1.524 . S
C435 H438 0.999 . S
C436 H406 0.950 . S
C436 C435 1.524 . S
C436 C437 1.415 . S
C437 H407 0.950 . S
C437 C432 1.363 . S
C437 C436 1.415 . S
H438 C435 0.999 . S
H439 C420 0.913 . S
H440 C458 0.951 . S
H441 C460 0.951 . S
H442 C462 0.950 . S
H443 C463 0.950 . S
H444 C465 0.950 . S
H445 C468 0.950 . S
H446 C469 0.950 . S
H447 C471 0.950 . S
H448 C472 0.950 . S
H449 C473 0.951 . S
H450 C475 0.951 . S
H451 C477 0.950 . S
H452 C478 0.950 . S
H453 C480 0.950 . S
H454 C483 0.950 . S
H455 C484 0.950 . S
H456 C486 0.950 . S
H457 C487 0.950 . S
C458 H440 0.951 . S
C458 C459 1.366 . S
C458 C460 1.388 . S
C459 C458 1.366 . S
C459 C463 1.385 . S
C460 H441 0.951 . S
C460 C458 1.388 . S
C460 C461 1.366 . S
C461 C460 1.366 . S
C461 C462 1.414 . S
C461 C464 1.499 . S
C462 H442 0.950 . S
C462 C461 1.414 . S
C462 C463 1.374 . S
C463 H443 0.950 . S
C463 C459 1.385 . S
C463 C462 1.374 . S
C464 C461 1.499 . S
C464 C465 1.373 1_556 S
C464 C466 1.389 . S
C465 H444 0.950 . S
C465 C464 1.373 1_554 S
C465 C481 1.377 . S
C466 C464 1.389 . S
C466 C467 1.524 . S
C466 C480 1.377 . S
C467 C466 1.524 . S
C467 C468 1.397 . S
C467 C472 1.363 . S
C468 H445 0.950 . S
C468 C467 1.397 . S
C468 C469 1.334 . S
C469 H446 0.950 . S
C469 C468 1.334 . S
C469 C470 1.287 . S
C470 C469 1.287 . S
C470 C471 1.524 . S
C470 H489 0.913 . S
C471 H447 0.950 . S
C471 C470 1.524 . S
C471 C472 1.415 . S
C472 H448 0.950 . S
C472 C467 1.363 . S
C472 C471 1.415 . S
C473 H449 0.951 . S
C473 C474 1.366 . S
C473 C475 1.388 . S
C474 C473 1.366 . S
C474 C478 1.385 . S
C475 H450 0.951 . S
C475 C473 1.388 . S
C475 C476 1.366 . S
C476 C475 1.366 . S
C476 C477 1.414 . S
C476 C479 1.499 . S
C477 H451 0.950 . S
C477 C476 1.414 . S
C477 C478 1.374 . S
C478 H452 0.950 . S
C478 C474 1.385 . S
C478 C477 1.374 . S
C479 C476 1.499 . S
C479 C480 1.373 1_554 S
C479 C481 1.389 . S
C480 H453 0.950 . S
C480 C466 1.377 . S
C480 C479 1.373 1_556 S
C481 C465 1.377 . S
C481 C479 1.389 . S
C481 C482 1.524 . S
C482 C481 1.524 . S
C482 C483 1.397 . S
C482 C487 1.363 . S
C483 H454 0.950 . S
C483 C482 1.397 . S
C483 C484 1.334 . S
C484 H455 0.950 . S
C484 C483 1.334 . S
C484 C485 1.287 . S
C485 C484 1.287 . S
C485 C486 1.524 . S
C485 H488 0.999 . S
C486 H456 0.950 . S
C486 C485 1.524 . S
C486 C487 1.415 . S
C487 H457 0.950 . S
C487 C482 1.363 . S
C487 C486 1.415 . S
H488 C485 0.999 . S
H489 C470 0.913 . S
H490 C508 0.951 . S
H491 C510 0.951 . S
H492 C512 0.950 . S
H493 C513 0.950 . S
H494 C515 0.950 . S
H495 C518 0.950 . S
H496 C519 0.950 . S
H497 C521 0.950 . S
H498 C522 0.950 . S
H499 C523 0.951 . S
H500 C525 0.951 . S
H501 C527 0.950 . S
H502 C528 0.950 . S
H503 C530 0.950 . S
H504 C533 0.950 . S
H505 C534 0.950 . S
H506 C536 0.950 . S
H507 C537 0.950 . S
C508 H490 0.951 . S
C508 C509 1.366 . S
C508 C510 1.388 . S
C509 C508 1.366 . S
C509 C513 1.385 . S
C510 H491 0.951 . S
C510 C508 1.388 . S
C510 C511 1.366 . S
C511 C510 1.366 . S
C511 C512 1.414 . S
C511 C514 1.499 . S
C512 H492 0.950 . S
C512 C511 1.414 . S
C512 C513 1.374 . S
C513 H493 0.950 . S
C513 C509 1.385 . S
C513 C512 1.374 . S
C514 C511 1.499 . S
C514 C515 1.373 1_655 S
C514 C516 1.389 . S
C515 H494 0.950 . S
C515 C514 1.373 1_455 S
C515 C531 1.377 . S
C516 C514 1.389 . S
C516 C517 1.524 . S
C516 C530 1.377 . S
C517 C516 1.524 . S
C517 C518 1.397 . S
C517 C522 1.363 . S
C518 H495 0.950 . S
C518 C517 1.397 . S
C518 C519 1.334 . S
C519 H496 0.950 . S
C519 C518 1.334 . S
C519 C520 1.287 . S
C520 C519 1.287 . S
C520 C521 1.524 . S
C520 H539 0.913 . S
C521 H497 0.950 . S
C521 C520 1.524 . S
C521 C522 1.415 . S
C522 H498 0.950 . S
C522 C517 1.363 . S
C522 C521 1.415 . S
C523 H499 0.951 . S
C523 C524 1.366 . S
C523 C525 1.388 . S
C524 C523 1.366 . S
C524 C528 1.385 . S
C525 H500 0.951 . S
C525 C523 1.388 . S
C525 C526 1.366 . S
C526 C525 1.366 . S
C526 C527 1.414 . S
C526 C529 1.499 . S
C527 H501 0.950 . S
C527 C526 1.414 . S
C527 C528 1.374 . S
C528 H502 0.950 . S
C528 C524 1.385 . S
C528 C527 1.374 . S
C529 C526 1.499 . S
C529 C530 1.373 1_455 S
C529 C531 1.389 . S
C530 H503 0.950 . S
C530 C516 1.377 . S
C530 C529 1.373 1_655 S
C531 C515 1.377 . S
C531 C529 1.389 . S
C531 C532 1.524 . S
C532 C531 1.524 . S
C532 C533 1.397 . S
C532 C537 1.363 . S
C533 H504 0.950 . S
C533 C532 1.397 . S
C533 C534 1.334 . S
C534 H505 0.950 . S
C534 C533 1.334 . S
C534 C535 1.287 . S
C535 C534 1.287 . S
C535 C536 1.524 . S
C535 H538 0.999 . S
C536 H506 0.950 . S
C536 C535 1.524 . S
C536 C537 1.415 . S
C537 H507 0.950 . S
C537 C532 1.363 . S
C537 C536 1.415 . S
H538 C535 0.999 . S
H539 C520 0.913 . S
H540 C558 0.951 . S
H541 C560 0.951 . S
H542 C562 0.950 . S
H543 C563 0.950 . S
H544 C565 0.950 . S
H545 C568 0.950 . S
H546 C569 0.950 . S
H547 C571 0.950 . S
H548 C572 0.950 . S
H549 C573 0.951 . S
H550 C575 0.951 . S
H551 C577 0.950 . S
H552 C578 0.950 . S
H553 C580 0.950 . S
H554 C583 0.950 . S
H555 C584 0.950 . S
H556 C586 0.950 . S
H557 C587 0.950 . S
C558 H540 0.951 . S
C558 C559 1.366 . S
C558 C560 1.388 . S
C559 C558 1.366 . S
C559 C563 1.385 . S
C560 H541 0.951 . S
C560 C558 1.388 . S
C560 C561 1.366 . S
C561 C560 1.366 . S
C561 C562 1.414 . S
C561 C564 1.499 . S
C562 H542 0.950 . S
C562 C561 1.414 . S
C562 C563 1.374 . S
C563 H543 0.950 . S
C563 C559 1.385 . S
C563 C562 1.374 . S
C564 C561 1.499 . S
C564 C565 1.373 . S
C564 C566 1.389 . S
C565 H544 0.950 . S
C565 C564 1.373 . S
C565 C581 1.377 . S
C566 C564 1.389 . S
C566 C567 1.524 . S
C566 C580 1.377 . S
C567 C566 1.524 . S
C567 C568 1.397 . S
C567 C572 1.363 . S
C568 H545 0.950 . S
C568 C567 1.397 . S
C568 C569 1.334 . S
C569 H546 0.950 . S
C569 C568 1.334 . S
C569 C570 1.287 . S
C570 C569 1.287 . S
C570 C571 1.524 . S
C570 H589 0.913 . S
C571 H547 0.950 . S
C571 C570 1.524 . S
C571 C572 1.415 . S
C572 H548 0.950 . S
C572 C567 1.363 . S
C572 C571 1.415 . S
C573 H549 0.951 . S
C573 C574 1.366 . S
C573 C575 1.388 . S
C574 C573 1.366 . S
C574 C578 1.385 . S
C575 H550 0.951 . S
C575 C573 1.388 . S
C575 C576 1.366 . S
C576 C575 1.366 . S
C576 C577 1.414 . S
C576 C579 1.499 . S
C577 H551 0.950 . S
C577 C576 1.414 . S
C577 C578 1.374 . S
C578 H552 0.950 . S
C578 C574 1.385 . S
C578 C577 1.374 . S
C579 C576 1.499 . S
C579 C580 1.373 . S
C579 C581 1.389 . S
C580 H553 0.950 . S
C580 C566 1.377 . S
C580 C579 1.373 . S
C581 C565 1.377 . S
C581 C579 1.389 . S
C581 C582 1.524 . S
C582 C581 1.524 . S
C582 C583 1.397 . S
C582 C587 1.363 . S
C583 H554 0.950 . S
C583 C582 1.397 . S
C583 C584 1.334 . S
C584 H555 0.950 . S
C584 C583 1.334 . S
C584 C585 1.287 . S
C585 C584 1.287 . S
C585 C586 1.524 . S
C585 H588 0.999 . S
C586 H556 0.950 . S
C586 C585 1.524 . S
C586 C587 1.415 . S
C587 H557 0.950 . S
C587 C582 1.363 . S
C587 C586 1.415 . S
H588 C585 0.999 . S
H589 C570 0.913 . S
H590 C608 0.951 . S
H591 C610 0.951 . S
H592 C612 0.950 . S
H593 C613 0.950 . S
H594 C615 0.950 . S
H595 C618 0.950 . S
H596 C619 0.950 . S
H597 C621 0.950 . S
H598 C622 0.950 . S
H599 C623 0.951 . S
H600 C625 0.951 . S
H601 C627 0.950 . S
H602 C628 0.950 . S
H603 C630 0.950 . S
H604 C633 0.950 . S
H605 C634 0.950 . S
H606 C636 0.950 . S
H607 C637 0.950 . S
C608 H590 0.951 . S
C608 C609 1.366 . S
C608 C610 1.388 . S
C609 C608 1.366 . S
C609 C613 1.385 . S
C610 H591 0.951 . S
C610 C608 1.388 . S
C610 C611 1.366 . S
C611 C610 1.366 . S
C611 C612 1.414 . S
C611 C614 1.499 . S
C612 H592 0.950 . S
C612 C611 1.414 . S
C612 C613 1.374 . S
C613 H593 0.950 . S
C613 C609 1.385 . S
C613 C612 1.374 . S
C614 C611 1.499 . S
C614 C615 1.373 . S
C614 C616 1.389 . S
C615 H594 0.950 . S
C615 C614 1.373 . S
C615 C631 1.377 . S
C616 C614 1.389 . S
C616 C617 1.524 . S
C616 C630 1.377 . S
C617 C616 1.524 . S
C617 C618 1.397 . S
C617 C622 1.363 . S
C618 H595 0.950 . S
C618 C617 1.397 . S
C618 C619 1.334 . S
C619 H596 0.950 . S
C619 C618 1.334 . S
C619 C620 1.287 . S
C620 C619 1.287 . S
C620 C621 1.524 . S
C620 H639 0.913 . S
C621 H597 0.950 . S
C621 C620 1.524 . S
C621 C622 1.415 . S
C622 H598 0.950 . S
C622 C617 1.363 . S
C622 C621 1.415 . S
C623 H599 0.951 . S
C623 C624 1.366 . S
C623 C625 1.388 . S
C624 C623 1.366 . S
C624 C628 1.385 . S
C625 H600 0.951 . S
C625 C623 1.388 . S
C625 C626 1.366 . S
C626 C625 1.366 . S
C626 C627 1.414 . S
C626 C629 1.499 . S
C627 H601 0.950 . S
C627 C626 1.414 . S
C627 C628 1.374 . S
C628 H602 0.950 . S
C628 C624 1.385 . S
C628 C627 1.374 . S
C629 C626 1.499 . S
C629 C630 1.373 . S
C629 C631 1.389 . S
C630 H603 0.950 . S
C630 C616 1.377 . S
C630 C629 1.373 . S
C631 C615 1.377 . S
C631 C629 1.389 . S
C631 C632 1.524 . S
C632 C631 1.524 . S
C632 C633 1.397 . S
C632 C637 1.363 . S
C633 H604 0.950 . S
C633 C632 1.397 . S
C633 C634 1.334 . S
C634 H605 0.950 . S
C634 C633 1.334 . S
C634 C635 1.287 . S
C635 C634 1.287 . S
C635 C636 1.524 . S
C635 H638 0.999 . S
C636 H606 0.950 . S
C636 C635 1.524 . S
C636 C637 1.415 . S
C637 H607 0.950 . S
C637 C632 1.363 . S
C637 C636 1.415 . S
H638 C635 0.999 . S
H639 C620 0.913 . S
H640 C658 0.951 . S
H641 C660 0.951 . S
H642 C662 0.950 . S
H643 C663 0.950 . S
H644 C665 0.950 . S
H645 C668 0.950 . S
H646 C669 0.950 . S
H647 C671 0.950 . S
H648 C672 0.950 . S
H649 C673 0.951 . S
H650 C675 0.951 . S
H651 C677 0.950 . S
H652 C678 0.950 . S
H653 C680 0.950 . S
H654 C683 0.950 . S
H655 C684 0.950 . S
H656 C686 0.950 . S
H657 C687 0.950 . S
C658 H640 0.951 . S
C658 C659 1.366 . S
C658 C660 1.388 . S
C659 C658 1.366 . S
C659 C663 1.385 . S
C660 H641 0.951 . S
C660 C658 1.388 . S
C660 C661 1.366 . S
C661 C660 1.366 . S
C661 C662 1.414 . S
C661 C664 1.499 . S
C662 H642 0.950 . S
C662 C661 1.414 . S
C662 C663 1.374 . S
C663 H643 0.950 . S
C663 C659 1.385 . S
C663 C662 1.374 . S
C664 C661 1.499 . S
C664 C665 1.373 . S
C664 C666 1.389 . S
C665 H644 0.950 . S
C665 C664 1.373 . S
C665 C681 1.377 . S
C666 C664 1.389 . S
C666 C667 1.524 . S
C666 C680 1.377 . S
C667 C666 1.524 . S
C667 C668 1.397 . S
C667 C672 1.363 . S
C668 H645 0.950 . S
C668 C667 1.397 . S
C668 C669 1.334 . S
C669 H646 0.950 . S
C669 C668 1.334 . S
C669 C670 1.287 . S
C670 C669 1.287 . S
C670 C671 1.524 . S
C670 H689 0.913 . S
C671 H647 0.950 . S
C671 C670 1.524 . S
C671 C672 1.415 . S
C672 H648 0.950 . S
C672 C667 1.363 . S
C672 C671 1.415 . S
C673 H649 0.951 . S
C673 C674 1.366 . S
C673 C675 1.388 . S
C674 C673 1.366 . S
C674 C678 1.385 . S
C675 H650 0.951 . S
C675 C673 1.388 . S
C675 C676 1.366 . S
C676 C675 1.366 . S
C676 C677 1.414 . S
C676 C679 1.499 . S
C677 H651 0.950 . S
C677 C676 1.414 . S
C677 C678 1.374 . S
C678 H652 0.950 . S
C678 C674 1.385 . S
C678 C677 1.374 . S
C679 C676 1.499 . S
C679 C680 1.373 . S
C679 C681 1.389 . S
C680 H653 0.950 . S
C680 C666 1.377 . S
C680 C679 1.373 . S
C681 C665 1.377 . S
C681 C679 1.389 . S
C681 C682 1.524 . S
C682 C681 1.524 . S
C682 C683 1.397 . S
C682 C687 1.363 . S
C683 H654 0.950 . S
C683 C682 1.397 . S
C683 C684 1.334 . S
C684 H655 0.950 . S
C684 C683 1.334 . S
C684 C685 1.287 . S
C685 C684 1.287 . S
C685 C686 1.524 . S
C685 H688 0.999 . S
C686 H656 0.950 . S
C686 C685 1.524 . S
C686 C687 1.415 . S
C687 H657 0.950 . S
C687 C682 1.363 . S
C687 C686 1.415 . S
H688 C685 0.999 . S
H689 C670 0.913 . S
H690 C708 0.951 . S
H691 C710 0.951 . S
H692 C712 0.950 . S
H693 C713 0.950 . S
H694 C715 0.950 . S
H695 C718 0.950 . S
H696 C719 0.950 . S
H697 C721 0.950 . S
H698 C722 0.950 . S
H699 C723 0.951 . S
H700 C725 0.951 . S
H701 C727 0.950 . S
H702 C728 0.950 . S
H703 C730 0.950 . S
H704 C733 0.950 . S
H705 C734 0.950 . S
H706 C736 0.950 . S
H707 C737 0.950 . S
C708 H690 0.951 . S
C708 C709 1.366 . S
C708 C710 1.388 . S
C709 C708 1.366 . S
C709 C713 1.385 . S
C710 H691 0.951 . S
C710 C708 1.388 . S
C710 C711 1.366 . S
C711 C710 1.366 . S
C711 C712 1.414 . S
C711 C714 1.499 . S
C712 H692 0.950 . S
C712 C711 1.414 . S
C712 C713 1.374 . S
C713 H693 0.950 . S
C713 C709 1.385 . S
C713 C712 1.374 . S
C714 C711 1.499 . S
C714 C715 1.373 . S
C714 C716 1.389 . S
C715 H694 0.950 . S
C715 C714 1.373 . S
C715 C731 1.377 . S
C716 C714 1.389 . S
C716 C717 1.524 . S
C716 C730 1.377 . S
C717 C716 1.524 . S
C717 C718 1.397 . S
C717 C722 1.363 . S
C718 H695 0.950 . S
C718 C717 1.397 . S
C718 C719 1.334 . S
C719 H696 0.950 . S
C719 C718 1.334 . S
C719 C720 1.287 . S
C720 C719 1.287 . S
C720 C721 1.524 . S
C720 H739 0.913 . S
C721 H697 0.950 . S
C721 C720 1.524 . S
C721 C722 1.415 . S
C722 H698 0.950 . S
C722 C717 1.363 . S
C722 C721 1.415 . S
C723 H699 0.951 . S
C723 C724 1.366 . S
C723 C725 1.388 . S
C724 C723 1.366 . S
C724 C728 1.385 . S
C725 H700 0.951 . S
C725 C723 1.388 . S
C725 C726 1.366 . S
C726 C725 1.366 . S
C726 C727 1.414 . S
C726 C729 1.499 . S
C727 H701 0.950 . S
C727 C726 1.414 . S
C727 C728 1.374 . S
C728 H702 0.950 . S
C728 C724 1.385 . S
C728 C727 1.374 . S
C729 C726 1.499 . S
C729 C730 1.373 . S
C729 C731 1.389 . S
C730 H703 0.950 . S
C730 C716 1.377 . S
C730 C729 1.373 . S
C731 C715 1.377 . S
C731 C729 1.389 . S
C731 C732 1.524 . S
C732 C731 1.524 . S
C732 C733 1.397 . S
C732 C737 1.363 . S
C733 H704 0.950 . S
C733 C732 1.397 . S
C733 C734 1.334 . S
C734 H705 0.950 . S
C734 C733 1.334 . S
C734 C735 1.287 . S
C735 C734 1.287 . S
C735 C736 1.524 . S
C735 H738 0.999 . S
C736 H706 0.950 . S
C736 C735 1.524 . S
C736 C737 1.415 . S
C737 H707 0.950 . S
C737 C732 1.363 . S
C737 C736 1.415 . S
H738 C735 0.999 . S
H739 C720 0.913 . S
H740 C758 0.951 . S
H741 C760 0.951 . S
H742 C762 0.950 . S
H743 C763 0.950 . S
H744 C765 0.950 . S
H745 C768 0.950 . S
H746 C769 0.950 . S
H747 C771 0.950 . S
H748 C772 0.950 . S
H749 C773 0.951 . S
H750 C775 0.951 . S
H751 C777 0.950 . S
H752 C778 0.950 . S
H753 C780 0.950 . S
H754 C783 0.950 . S
H755 C784 0.950 . S
H756 C786 0.950 . S
H757 C787 0.950 . S
C758 H740 0.951 . S
C758 C759 1.366 . S
C758 C760 1.388 . S
C759 C758 1.366 . S
C759 C763 1.385 . S
C760 H741 0.951 . S
C760 C758 1.388 . S
C760 C761 1.366 . S
C761 C760 1.366 . S
C761 C762 1.414 . S
C761 C764 1.499 . S
C762 H742 0.950 . S
C762 C761 1.414 . S
C762 C763 1.374 . S
C763 H743 0.950 . S
C763 C759 1.385 . S
C763 C762 1.374 . S
C764 C761 1.499 . S
C764 C765 1.373 . S
C764 C766 1.389 . S
C765 H744 0.950 . S
C765 C764 1.373 . S
C765 C781 1.377 . S
C766 C764 1.389 . S
C766 C767 1.524 . S
C766 C780 1.377 . S
C767 C766 1.524 . S
C767 C768 1.397 . S
C767 C772 1.363 . S
C768 H745 0.950 . S
C768 C767 1.397 . S
C768 C769 1.334 . S
C769 H746 0.950 . S
C769 C768 1.334 . S
C769 C770 1.287 . S
C770 C769 1.287 . S
C770 C771 1.524 . S
C770 H789 0.913 . S
C771 H747 0.950 . S
C771 C770 1.524 . S
C771 C772 1.415 . S
C772 H748 0.950 . S
C772 C767 1.363 . S
C772 C771 1.415 . S
C773 H749 0.951 . S
C773 C774 1.366 . S
C773 C775 1.388 . S
C774 C773 1.366 . S
C774 C778 1.385 . S
C775 H750 0.951 . S
C775 C773 1.388 . S
C775 C776 1.366 . S
C776 C775 1.366 . S
C776 C777 1.414 . S
C776 C779 1.499 . S
C777 H751 0.950 . S
C777 C776 1.414 . S
C777 C778 1.374 . S
C778 H752 0.950 . S
C778 C774 1.385 . S
C778 C777 1.374 . S
C779 C776 1.499 . S
C779 C780 1.373 . S
C779 C781 1.389 . S
C780 H753 0.950 . S
C780 C766 1.377 . S
C780 C779 1.373 . S
C781 C765 1.377 . S
C781 C779 1.389 . S
C781 C782 1.524 . S
C782 C781 1.524 . S
C782 C783 1.397 . S
C782 C787 1.363 . S
C783 H754 0.950 . S
C783 C782 1.397 . S
C783 C784 1.334 . S
C784 H755 0.950 . S
C784 C783 1.334 . S
C784 C785 1.287 . S
C785 C784 1.287 . S
C785 C786 1.524 . S
C785 H788 0.999 . S
C786 H756 0.950 . S
C786 C785 1.524 . S
C786 C787 1.415 . S
C787 H757 0.950 . S
C787 C782 1.363 . S
C787 C786 1.415 . S
H788 C785 0.999 . S
H789 C770 0.913 . S
H790 C808 0.951 . S
H791 C810 0.951 . S
H792 C812 0.950 . S
H793 C813 0.950 . S
H794 C815 0.950 . S
H795 C818 0.950 . S
H796 C819 0.950 . S
H797 C821 0.950 . S
H798 C822 0.950 . S
H799 C823 0.951 . S
H800 C825 0.951 . S
H801 C827 0.950 . S
H802 C828 0.950 . S
H803 C830 0.950 . S
H804 C833 0.950 . S
H805 C834 0.950 . S
H806 C836 0.950 . S
H807 C837 0.950 . S
C808 H790 0.951 . S
C808 C809 1.366 . S
C808 C810 1.388 . S
C809 C808 1.366 . S
C809 C813 1.385 . S
C810 H791 0.951 . S
C810 C808 1.388 . S
C810 C811 1.366 . S
C811 C810 1.366 . S
C811 C812 1.414 . S
C811 C814 1.499 . S
C812 H792 0.950 . S
C812 C811 1.414 . S
C812 C813 1.374 . S
C813 H793 0.950 . S
C813 C809 1.385 . S
C813 C812 1.374 . S
C814 C811 1.499 . S
C814 C815 1.373 . S
C814 C816 1.389 . S
C815 H794 0.950 . S
C815 C814 1.373 . S
C815 C831 1.377 . S
C816 C814 1.389 . S
C816 C817 1.524 . S
C816 C830 1.377 . S
C817 C816 1.524 . S
C817 C818 1.397 . S
C817 C822 1.363 . S
C818 H795 0.950 . S
C818 C817 1.397 . S
C818 C819 1.334 . S
C819 H796 0.950 . S
C819 C818 1.334 . S
C819 C820 1.287 . S
C820 C819 1.287 . S
C820 C821 1.524 . S
C820 H839 0.913 . S
C821 H797 0.950 . S
C821 C820 1.524 . S
C821 C822 1.415 . S
C822 H798 0.950 . S
C822 C817 1.363 . S
C822 C821 1.415 . S
C823 H799 0.951 . S
C823 C824 1.366 . S
C823 C825 1.388 . S
C824 C823 1.366 . S
C824 C828 1.385 . S
C825 H800 0.951 . S
C825 C823 1.388 . S
C825 C826 1.366 . S
C826 C825 1.366 . S
C826 C827 1.414 . S
C826 C829 1.499 . S
C827 H801 0.950 . S
C827 C826 1.414 . S
C827 C828 1.374 . S
C828 H802 0.950 . S
C828 C824 1.385 . S
C828 C827 1.374 . S
C829 C826 1.499 . S
C829 C830 1.373 . S
C829 C831 1.389 . S
C830 H803 0.950 . S
C830 C816 1.377 . S
C830 C829 1.373 . S
C831 C815 1.377 . S
C831 C829 1.389 . S
C831 C832 1.524 . S
C832 C831 1.524 . S
C832 C833 1.397 . S
C832 C837 1.363 . S
C833 H804 0.950 . S
C833 C832 1.397 . S
C833 C834 1.334 . S
C834 H805 0.950 . S
C834 C833 1.334 . S
C834 C835 1.287 . S
C835 C834 1.287 . S
C835 C836 1.524 . S
C835 H838 0.999 . S
C836 H806 0.950 . S
C836 C835 1.524 . S
C836 C837 1.415 . S
C837 H807 0.950 . S
C837 C832 1.363 . S
C837 C836 1.415 . S
H838 C835 0.999 . S
H839 C820 0.913 . S
H840 C858 0.951 . S
H841 C860 0.951 . S
H842 C862 0.950 . S
H843 C863 0.950 . S
H844 C865 0.950 . S
H845 C868 0.950 . S
H846 C869 0.950 . S
H847 C871 0.950 . S
H848 C872 0.950 . S
H849 C873 0.951 . S
H850 C875 0.951 . S
H851 C877 0.950 . S
H852 C878 0.950 . S
H853 C880 0.950 . S
H854 C883 0.950 1_455 S
H855 C884 0.950 . S
H856 C886 0.950 . S
H857 C887 0.950 . S
C858 H840 0.951 . S
C858 C859 1.366 . S
C858 C860 1.388 . S
C859 C858 1.366 . S
C859 C863 1.385 . S
C860 H841 0.951 . S
C860 C858 1.388 . S
C860 C861 1.366 . S
C861 C860 1.366 . S
C861 C862 1.414 . S
C861 C864 1.499 . S
C862 H842 0.950 . S
C862 C861 1.414 . S
C862 C863 1.374 . S
C863 H843 0.950 . S
C863 C859 1.385 . S
C863 C862 1.374 . S
C864 C861 1.499 . S
C864 C865 1.373 . S
C864 C866 1.389 . S
C865 H844 0.950 . S
C865 C864 1.373 . S
C865 C881 1.377 . S
C866 C864 1.389 . S
C866 C867 1.524 . S
C866 C880 1.377 . S
C867 C866 1.524 . S
C867 C868 1.397 . S
C867 C872 1.363 . S
C868 H845 0.950 . S
C868 C867 1.397 . S
C868 C869 1.334 . S
C869 H846 0.950 . S
C869 C868 1.334 . S
C869 C870 1.287 . S
C870 C869 1.287 . S
C870 C871 1.524 . S
C870 H889 0.913 . S
C871 H847 0.950 . S
C871 C870 1.524 . S
C871 C872 1.415 . S
C872 H848 0.950 . S
C872 C867 1.363 . S
C872 C871 1.415 . S
C873 H849 0.951 . S
C873 C874 1.366 . S
C873 C875 1.388 . S
C874 C873 1.366 . S
C874 C878 1.385 1_655 S
C875 H850 0.951 . S
C875 C873 1.388 . S
C875 C876 1.366 1_655 S
C876 C875 1.366 1_455 S
C876 C877 1.414 . S
C876 C879 1.499 . S
C877 H851 0.950 . S
C877 C876 1.414 . S
C877 C878 1.374 . S
C878 H852 0.950 . S
C878 C874 1.385 1_455 S
C878 C877 1.374 . S
C879 C876 1.499 . S
C879 C880 1.373 . S
C879 C881 1.389 . S
C880 H853 0.950 . S
C880 C866 1.377 . S
C880 C879 1.373 . S
C881 C865 1.377 . S
C881 C879 1.389 . S
C881 C882 1.524 1_455 S
C882 C881 1.524 1_655 S
C882 C883 1.397 . S
C882 C887 1.363 . S
C883 H854 0.950 1_655 S
C883 C882 1.397 . S
C883 C884 1.334 . S
C884 H855 0.950 . S
C884 C883 1.334 . S
C884 C885 1.287 . S
C885 C884 1.287 . S
C885 C886 1.524 . S
C885 H888 0.999 . S
C886 H856 0.950 . S
C886 C885 1.524 . S
C886 C887 1.415 . S
C887 H857 0.950 . S
C887 C882 1.363 . S
C887 C886 1.415 . S
H888 C885 0.999 . S
H889 C870 0.913 . S
H890 C908 0.951 . S
H891 C910 0.951 . S
H892 C912 0.950 . S
H893 C913 0.950 . S
H894 C915 0.950 . S
H895 C918 0.950 . S
H896 C919 0.950 . S
H897 C921 0.950 . S
H898 C922 0.950 . S
H899 C923 0.951 . S
H900 C925 0.951 . S
H901 C927 0.950 . S
H902 C928 0.932 1_565 S
H903 C930 0.950 . S
H904 C933 0.950 . S
H905 C934 0.950 . S
H906 C936 0.950 . S
H907 C937 0.950 . S
C908 H890 0.951 . S
C908 C909 1.366 . S
C908 C910 1.388 1_655 S
C909 C908 1.366 . S
C909 C913 1.385 . S
C910 H891 0.951 . S
C910 C908 1.388 1_455 S
C910 C911 1.366 . S
C911 C910 1.366 . S
C911 C912 1.414 . S
C911 C914 1.499 . S
C912 H892 0.950 . S
C912 C911 1.414 . S
C912 C913 1.374 1_455 S
C913 H893 0.950 . S
C913 C909 1.385 . S
C913 C912 1.374 1_655 S
C914 C911 1.499 . S
C914 C915 1.373 . S
C914 C916 1.389 . S
C915 H894 0.950 . S
C915 C914 1.373 . S
C915 C931 1.377 . S
C916 C914 1.389 . S
C916 C917 1.524 . S
C916 C930 1.377 . S
C917 C916 1.524 . S
C917 C918 1.397 . S
C917 C922 1.363 . S
C918 H895 0.950 . S
C918 C917 1.397 . S
C918 C919 1.334 . S
C919 H896 0.950 . S
C919 C918 1.334 . S
C919 C920 1.287 . S
C920 C919 1.287 . S
C920 C921 1.524 . S
C920 H939 0.913 . S
C921 H897 0.950 . S
C921 C920 1.524 . S
C921 C922 1.415 . S
C922 H898 0.950 . S
C922 C917 1.363 . S
C922 C921 1.415 . S
C923 H899 0.951 . S
C923 C924 1.366 . S
C923 C925 1.388 . S
C924 C923 1.366 . S
C924 C928 1.405 . S
C925 H900 0.951 . S
C925 C923 1.388 . S
C925 C926 1.366 1_545 S
C926 C925 1.366 1_565 S
C926 C927 1.414 . S
C926 C929 1.499 . S
C927 H901 0.950 . S
C927 C926 1.414 . S
C927 C928 1.372 1_565 S
C928 H902 0.932 1_545 S
C928 C924 1.405 . S
C928 C927 1.372 1_545 S
C929 C926 1.499 . S
C929 C930 1.373 . S
C929 C931 1.389 . S
C930 H903 0.950 . S
C930 C916 1.377 . S
C930 C929 1.373 . S
C931 C915 1.377 . S
C931 C929 1.389 . S
C931 C932 1.524 1_565 S
C932 C931 1.524 1_545 S
C932 C933 1.397 . S
C932 C937 1.363 . S
C933 H904 0.950 . S
C933 C932 1.397 . S
C933 C934 1.334 . S
C934 H905 0.950 . S
C934 C933 1.334 . S
C934 C935 1.287 . S
C935 C934 1.287 . S
C935 C936 1.524 . S
C935 H938 0.999 . S
C936 H906 0.950 . S
C936 C935 1.524 . S
C936 C937 1.415 . S
C937 H907 0.950 . S
C937 C932 1.363 . S
C937 C936 1.415 . S
H938 C935 0.999 . S
H939 C920 0.913 . S
H940 C958 0.951 . S
H941 C960 0.951 . S
H942 C962 0.950 . S
H943 C963 0.950 . S
H944 C965 0.950 . S
H945 C968 0.950 . S
H946 C969 0.950 . S
H947 C971 0.950 . S
H948 C972 0.950 . S
H949 C973 0.951 . S
H950 C975 0.951 . S
H951 C977 0.950 . S
H952 C978 0.950 . S
H953 C980 0.950 . S
H954 C983 0.950 . S
H955 C984 0.950 . S
H956 C986 0.950 . S
H957 C987 0.950 . S
C958 H940 0.951 . S
C958 C959 1.366 . S
C958 C960 1.388 1_545 S
C959 C958 1.366 . S
C959 C963 1.385 . S
C960 H941 0.951 . S
C960 C958 1.388 1_565 S
C960 C961 1.366 . S
C961 C960 1.366 . S
C961 C962 1.414 . S
C961 C964 1.499 . S
C962 H942 0.950 . S
C962 C961 1.414 . S
C962 C963 1.374 1_565 S
C963 H943 0.950 . S
C963 C959 1.385 . S
C963 C962 1.374 1_545 S
C964 C961 1.499 . S
C964 C965 1.373 . S
C964 C966 1.389 . S
C965 H944 0.950 . S
C965 C964 1.373 . S
C965 C981 1.377 . S
C966 C964 1.389 . S
C966 C967 1.524 . S
C966 C980 1.377 . S
C967 C966 1.524 . S
C967 C968 1.397 . S
C967 C972 1.363 . S
C968 H945 0.950 . S
C968 C967 1.397 . S
C968 C969 1.334 . S
C969 H946 0.950 . S
C969 C968 1.334 . S
C969 C970 1.287 . S
C970 C969 1.287 . S
C970 C971 1.524 . S
C970 H989 0.913 . S
C971 H947 0.950 . S
C971 C970 1.524 . S
C971 C972 1.415 . S
C972 H948 0.950 . S
C972 C967 1.363 . S
C972 C971 1.415 . S
C973 H949 0.951 . S
C973 C974 1.366 . S
C973 C975 1.388 . S
C974 C973 1.366 . S
C974 C978 1.385 . S
C975 H950 0.951 . S
C975 C973 1.388 . S
C975 C976 1.366 . S
C976 C975 1.366 . S
C976 C977 1.414 . S
C976 C979 1.499 . S
C977 H951 0.950 . S
C977 C976 1.414 . S
C977 C978 1.374 . S
C978 H952 0.950 . S
C978 C974 1.385 . S
C978 C977 1.374 . S
C979 C976 1.499 . S
C979 C980 1.373 . S
C979 C981 1.389 . S
C980 H953 0.950 . S
C980 C966 1.377 . S
C980 C979 1.373 . S
C981 C965 1.377 . S
C981 C979 1.389 . S
C981 C982 1.524 . S
C982 C981 1.524 . S
C982 C983 1.397 . S
C982 C987 1.363 . S
C983 H954 0.950 . S
C983 C982 1.397 . S
C983 C984 1.334 . S
C984 H955 0.950 . S
C984 C983 1.334 . S
C984 C985 1.287 . S
C985 C984 1.287 . S
C985 C986 1.524 . S
C985 H988 0.999 . S
C986 H956 0.950 . S
C986 C985 1.524 . S
C986 C987 1.415 . S
C987 H957 0.950 . S
C987 C982 1.363 . S
C987 C986 1.415 . S
H988 C985 0.999 . S
H989 C970 0.913 . S
H990 C1008 0.951 . S
H991 C1010 0.951 . S
H992 C1012 0.950 . S
H993 C1013 0.950 . S
H994 C1015 0.950 . S
H995 C1018 0.950 . S
H996 C1019 0.950 . S
H997 C1021 0.950 . S
H998 C1022 0.950 . S
H999 C1023 0.951 . S
H1000 C1025 0.956 . S
H1001 C1027 0.941 1_545 S
H1002 C1028 0.950 . S
H1003 C1030 0.950 . S
H1004 C1033 0.950 . S
H1005 C1034 0.950 . S
H1006 C1036 0.950 . S
H1007 C1037 0.950 1_545 S
C1008 H990 0.951 . S
C1008 C1009 1.366 . S
C1008 C1010 1.388 . S
C1009 C1008 1.366 . S
C1009 C1013 1.385 . S
C1010 H991 0.951 . S
C1010 C1008 1.388 . S
C1010 C1011 1.366 . S
C1011 C1010 1.366 . S
C1011 C1012 1.414 . S
C1011 C1014 1.499 . S
C1012 H992 0.950 . S
C1012 C1011 1.414 . S
C1012 C1013 1.374 . S
C1013 H993 0.950 . S
C1013 C1009 1.385 . S
C1013 C1012 1.374 . S
C1014 C1011 1.499 . S
C1014 C1015 1.373 . S
C1014 C1016 1.389 . S
C1015 H994 0.950 . S
C1015 C1014 1.373 . S
C1015 C1031 1.377 . S
C1016 C1014 1.389 . S
C1016 C1017 1.524 . S
C1016 C1030 1.377 . S
C1017 C1016 1.524 . S
C1017 C1018 1.397 . S
C1017 C1022 1.363 . S
C1018 H995 0.950 . S
C1018 C1017 1.397 . S
C1018 C1019 1.334 . S
C1019 H996 0.950 . S
C1019 C1018 1.334 . S
C1019 C1020 1.287 . S
C1020 C1019 1.287 . S
C1020 C1021 1.524 . S
C1020 H1039 0.913 . S
C1021 H997 0.950 . S
C1021 C1020 1.524 . S
C1021 C1022 1.415 . S
C1022 H998 0.950 . S
C1022 C1017 1.363 . S
C1022 C1021 1.415 . S
C1023 H999 0.951 . S
C1023 C1024 1.366 . S
C1023 C1025 1.388 . S
C1024 C1023 1.366 . S
C1024 C1028 1.385 . S
C1025 H1000 0.956 . S
C1025 C1023 1.388 . S
C1025 C1026 1.366 1_565 S
C1026 C1025 1.366 1_545 S
C1026 C1027 1.405 1_545 S
C1026 C1029 1.499 . S
C1027 H1001 0.941 1_565 S
C1027 C1026 1.405 1_565 S
C1027 C1028 1.392 . S
C1028 H1002 0.950 . S
C1028 C1024 1.385 . S
C1028 C1027 1.392 . S
C1029 C1026 1.499 . S
C1029 C1030 1.373 . S
C1029 C1031 1.389 . S
C1030 H1003 0.950 . S
C1030 C1016 1.377 . S
C1030 C1029 1.373 . S
C1031 C1015 1.377 . S
C1031 C1029 1.389 . S
C1031 C1032 1.524 1_545 S
C1032 C1031 1.524 1_565 S
C1032 C1033 1.397 . S
C1032 C1037 1.363 . S
C1033 H1004 0.950 . S
C1033 C1032 1.397 . S
C1033 C1034 1.334 . S
C1034 H1005 0.950 . S
C1034 C1033 1.334 . S
C1034 C1035 1.287 . S
C1035 C1034 1.287 . S
C1035 C1036 1.524 . S
C1035 H1038 0.999 . S
C1036 H1006 0.950 . S
C1036 C1035 1.524 . S
C1036 C1037 1.415 . S
C1037 H1007 0.950 1_565 S
C1037 C1032 1.363 . S
C1037 C1036 1.415 . S
H1038 C1035 0.999 . S
H1039 C1020 0.913 . S
H1040 C1058 0.951 . S
H1041 C1060 0.951 . S
H1042 C1062 0.950 . S
H1043 C1063 0.950 . S
H1044 C1065 0.950 . S
H1045 C1068 0.950 . S
H1046 C1069 0.950 . S
H1047 C1071 0.950 . S
H1048 C1072 0.950 . S
H1049 C1073 0.951 . S
H1050 C1075 0.951 . S
H1051 C1077 0.950 . S
H1052 C1078 0.950 . S
H1053 C1080 0.950 . S
H1054 C1083 0.950 . S
H1055 C1084 0.950 . S
H1056 C1086 0.950 . S
H1057 C1087 0.950 . S
C1058 H1040 0.951 . S
C1058 C1059 1.366 . S
C1058 C1060 1.388 1_455 S
C1059 C1058 1.366 . S
C1059 C1063 1.385 . S
C1060 H1041 0.951 . S
C1060 C1058 1.388 1_655 S
C1060 C1061 1.366 . S
C1061 C1060 1.366 . S
C1061 C1062 1.414 . S
C1061 C1064 1.499 . S
C1062 H1042 0.950 . S
C1062 C1061 1.414 . S
C1062 C1063 1.374 1_655 S
C1063 H1043 0.950 . S
C1063 C1059 1.385 . S
C1063 C1062 1.374 1_455 S
C1064 C1061 1.499 . S
C1064 C1065 1.373 . S
C1064 C1066 1.389 . S
C1065 H1044 0.950 . S
C1065 C1064 1.373 . S
C1065 C1081 1.377 . S
C1066 C1064 1.389 . S
C1066 C1067 1.524 . S
C1066 C1080 1.377 . S
C1067 C1066 1.524 . S
C1067 C1068 1.397 . S
C1067 C1072 1.363 . S
C1068 H1045 0.950 . S
C1068 C1067 1.397 . S
C1068 C1069 1.334 . S
C1069 H1046 0.950 . S
C1069 C1068 1.334 . S
C1069 C1070 1.287 . S
C1070 C1069 1.287 . S
C1070 C1071 1.524 . S
C1070 H1089 0.913 . S
C1071 H1047 0.950 . S
C1071 C1070 1.524 . S
C1071 C1072 1.415 . S
C1072 H1048 0.950 . S
C1072 C1067 1.363 . S
C1072 C1071 1.415 . S
C1073 H1049 0.951 . S
C1073 C1074 1.366 . S
C1073 C1075 1.388 . S
C1074 C1073 1.366 . S
C1074 C1078 1.385 . S
C1075 H1050 0.951 . S
C1075 C1073 1.388 . S
C1075 C1076 1.366 . S
C1076 C1075 1.366 . S
C1076 C1077 1.414 . S
C1076 C1079 1.499 . S
C1077 H1051 0.950 . S
C1077 C1076 1.414 . S
C1077 C1078 1.374 . S
C1078 H1052 0.950 . S
C1078 C1074 1.385 . S
C1078 C1077 1.374 . S
C1079 C1076 1.499 . S
C1079 C1080 1.373 . S
C1079 C1081 1.389 . S
C1080 H1053 0.950 . S
C1080 C1066 1.377 . S
C1080 C1079 1.373 . S
C1081 C1065 1.377 . S
C1081 C1079 1.389 . S
C1081 C1082 1.524 . S
C1082 C1081 1.524 . S
C1082 C1083 1.397 . S
C1082 C1087 1.363 . S
C1083 H1054 0.950 . S
C1083 C1082 1.397 . S
C1083 C1084 1.334 . S
C1084 H1055 0.950 . S
C1084 C1083 1.334 . S
C1084 C1085 1.287 . S
C1085 C1084 1.287 . S
C1085 C1086 1.524 . S
C1085 H1088 0.999 . S
C1086 H1056 0.950 . S
C1086 C1085 1.524 . S
C1086 C1087 1.415 . S
C1087 H1057 0.950 . S
C1087 C1082 1.363 . S
C1087 C1086 1.415 . S
H1088 C1085 0.999 . S
H1089 C1070 0.913 . S
H1090 C1108 0.951 . S
H1091 C1110 0.948 1_655 S
H1092 C1112 0.950 . S
H1093 C1113 0.950 . S
H1094 C1115 0.950 . S
H1095 C1118 0.950 . S
H1096 C1119 0.950 . S
H1097 C1121 0.950 . S
H1098 C1122 0.950 1_655 S
H1099 C1123 0.951 . S
H1100 C1125 0.951 . S
H1101 C1127 0.950 . S
H1102 C1128 0.950 . S
H1103 C1130 0.950 . S
H1104 C1133 0.950 . S
H1105 C1134 0.950 . S
H1106 C1136 0.950 . S
H1107 C1137 0.950 . S
C1108 H1090 0.951 . S
C1108 C1109 1.366 . S
C1108 C1110 1.389 . S
C1109 C1108 1.366 . S
C1109 C1113 1.385 . S
C1110 H1091 0.948 1_455 S
C1110 C1108 1.389 . S
C1110 C1111 1.368 1_455 S
C1111 C1110 1.368 1_655 S
C1111 C1112 1.414 1_655 S
C1111 C1114 1.499 . S
C1112 H1092 0.950 . S
C1112 C1111 1.414 1_455 S
C1112 C1113 1.374 . S
C1113 H1093 0.950 . S
C1113 C1109 1.385 . S
C1113 C1112 1.374 . S
C1114 C1111 1.499 . S
C1114 C1115 1.373 . S
C1114 C1116 1.389 . S
C1115 H1094 0.950 . S
C1115 C1114 1.373 . S
C1115 C1131 1.377 . S
C1116 C1114 1.389 . S
C1116 C1117 1.524 1_655 S
C1116 C1130 1.377 . S
C1117 C1116 1.524 1_455 S
C1117 C1118 1.397 . S
C1117 C1122 1.363 . S
C1118 H1095 0.950 . S
C1118 C1117 1.397 . S
C1118 C1119 1.334 . S
C1119 H1096 0.950 . S
C1119 C1118 1.334 . S
C1119 C1120 1.287 . S
C1120 C1119 1.287 . S
C1120 C1121 1.524 . S
C1120 H1139 0.913 . S
C1121 H1097 0.950 . S
C1121 C1120 1.524 . S
C1121 C1122 1.415 . S
C1122 H1098 0.950 1_455 S
C1122 C1117 1.363 . S
C1122 C1121 1.415 . S
C1123 H1099 0.951 . S
C1123 C1124 1.366 . S
C1123 C1125 1.388 1_565 S
C1124 C1123 1.366 . S
C1124 C1128 1.385 . S
C1125 H1100 0.951 . S
C1125 C1123 1.388 1_545 S
C1125 C1126 1.366 . S
C1126 C1125 1.366 . S
C1126 C1127 1.414 . S
C1126 C1129 1.499 . S
C1127 H1101 0.950 . S
C1127 C1126 1.414 . S
C1127 C1128 1.374 1_545 S
C1128 H1102 0.950 . S
C1128 C1124 1.385 . S
C1128 C1127 1.374 1_565 S
C1129 C1126 1.499 . S
C1129 C1130 1.373 . S
C1129 C1131 1.389 . S
C1130 H1103 0.950 . S
C1130 C1116 1.377 . S
C1130 C1129 1.373 . S
C1131 C1115 1.377 . S
C1131 C1129 1.389 . S
C1131 C1132 1.524 . S
C1132 C1131 1.524 . S
C1132 C1133 1.397 . S
C1132 C1137 1.363 . S
C1133 H1104 0.950 . S
C1133 C1132 1.397 . S
C1133 C1134 1.334 . S
C1134 H1105 0.950 . S
C1134 C1133 1.334 . S
C1134 C1135 1.287 . S
C1135 C1134 1.287 . S
C1135 C1136 1.524 . S
C1135 H1138 0.999 . S
C1136 H1106 0.950 . S
C1136 C1135 1.524 . S
C1136 C1137 1.415 . S
C1137 H1107 0.950 . S
C1137 C1132 1.363 . S
C1137 C1136 1.415 . S
H1138 C1135 0.999 . S
H1139 C1120 0.913 . S
C259 C175 2.401 . S
C274 C15 2.402 . S
C309 C202 2.439 . S
C324 C42 2.438 . S
C359 C95 2.401 . S
C374 C135 2.402 . S
C409 C2 2.438 . S
C424 C162 2.439 . S
C459 C215 2.402 . S
C474 C55 2.402 . S
C509 C82 2.438 . S
C524 C122 2.439 . S
C559 C26 1.910 . S
C574 C83 1.874 . S
C609 C66 1.910 . S
C624 C3 1.873 . S
C659 C106 1.910 . S
C674 C43 1.874 . S
C709 C146 1.910 . S
C724 C163 1.873 . S
C759 C186 1.910 . S
C774 C203 1.874 . S
C809 C123 1.874 . S
C824 C226 1.910 . S
C859 C9 1.003 . S
C874 C102 1.039 . S
C909 C49 1.004 . S
C924 C22 1.039 . S
C959 C89 1.003 . S
C974 C62 1.038 . S
C1009 C129 1.004 . S
C1024 C182 1.039 . S
C1059 C169 1.002 . S
C1074 C222 1.038 . S
C1109 C142 1.039 . S
C1124 C209 1.004 . S
