# Generated by pormake.
# Topology wiu, (6)-cn, num edge types: 1
# Building blocks:
#     Node 0, Type 0, BuildingBlock: CUKXOW_clean_sbu_0, # of connection points: 6
#     Node 1, Type 0, BuildingBlock: CUKXOW_clean_sbu_0, # of connection points: 6
#     Node 2, Type 0, BuildingBlock: CUKXOW_clean_sbu_0, # of connection points: 6
#     Node 3, Type 0, BuildingBlock: CUKXOW_clean_sbu_0, # of connection points: 6
#     Node 4, Type 0, BuildingBlock: CUKXOW_clean_sbu_0, # of connection points: 6
#     Node 5, Type 0, BuildingBlock: CUKXOW_clean_sbu_0, # of connection points: 6
#     Node 6, Type 0, BuildingBlock: CUKXOW_clean_sbu_0, # of connection points: 6
#     Node 7, Type 0, BuildingBlock: CUKXOW_clean_sbu_0, # of connection points: 6
#     Node 8, Type 0, BuildingBlock: CUKXOW_clean_sbu_0, # of connection points: 6
#     Node 9, Type 0, BuildingBlock: CUKXOW_clean_sbu_0, # of connection points: 6
#     Node 10, Type 0, BuildingBlock: CUKXOW_clean_sbu_0, # of connection points: 6
#     Node 11, Type 0, BuildingBlock: CUKXOW_clean_sbu_0, # of connection points: 6
#     Node 12, Type 0, BuildingBlock: CUKXOW_clean_sbu_0, # of connection points: 6
#     Node 13, Type 0, BuildingBlock: CUKXOW_clean_sbu_0, # of connection points: 6
#     Node 14, Type 0, BuildingBlock: CUKXOW_clean_sbu_0, # of connection points: 6
#     Node 15, Type 0, BuildingBlock: CUKXOW_clean_sbu_0, # of connection points: 6
#     Edge 16, Type (0, 0), BuildingBlock: TEMPAE_clean_linker_10, # of connection points: 2
#     Edge 17, Type (0, 0), BuildingBlock: TEMPAE_clean_linker_10, # of connection points: 2
#     Edge 18, Type (0, 0), BuildingBlock: TEMPAE_clean_linker_10, # of connection points: 2
#     Edge 19, Type (0, 0), BuildingBlock: TEMPAE_clean_linker_10, # of connection points: 2
#     Edge 20, Type (0, 0), BuildingBlock: TEMPAE_clean_linker_10, # of connection points: 2
#     Edge 21, Type (0, 0), BuildingBlock: TEMPAE_clean_linker_10, # of connection points: 2
#     Edge 22, Type (0, 0), BuildingBlock: TEMPAE_clean_linker_10, # of connection points: 2
#     Edge 23, Type (0, 0), BuildingBlock: TEMPAE_clean_linker_10, # of connection points: 2
#     Edge 24, Type (0, 0), BuildingBlock: TEMPAE_clean_linker_10, # of connection points: 2
#     Edge 25, Type (0, 0), BuildingBlock: TEMPAE_clean_linker_10, # of connection points: 2
#     Edge 26, Type (0, 0), BuildingBlock: TEMPAE_clean_linker_10, # of connection points: 2
#     Edge 27, Type (0, 0), BuildingBlock: TEMPAE_clean_linker_10, # of connection points: 2
#     Edge 28, Type (0, 0), BuildingBlock: TEMPAE_clean_linker_10, # of connection points: 2
#     Edge 29, Type (0, 0), BuildingBlock: TEMPAE_clean_linker_10, # of connection points: 2
#     Edge 30, Type (0, 0), BuildingBlock: TEMPAE_clean_linker_10, # of connection points: 2
#     Edge 31, Type (0, 0), BuildingBlock: TEMPAE_clean_linker_10, # of connection points: 2
#     Edge 32, Type (0, 0), BuildingBlock: TEMPAE_clean_linker_10, # of connection points: 2
#     Edge 33, Type (0, 0), BuildingBlock: TEMPAE_clean_linker_10, # of connection points: 2
#     Edge 34, Type (0, 0), BuildingBlock: TEMPAE_clean_linker_10, # of connection points: 2
#     Edge 35, Type (0, 0), BuildingBlock: TEMPAE_clean_linker_10, # of connection points: 2
#     Edge 36, Type (0, 0), BuildingBlock: TEMPAE_clean_linker_10, # of connection points: 2
#     Edge 37, Type (0, 0), BuildingBlock: TEMPAE_clean_linker_10, # of connection points: 2
#     Edge 38, Type (0, 0), BuildingBlock: TEMPAE_clean_linker_10, # of connection points: 2
#     Edge 39, Type (0, 0), BuildingBlock: TEMPAE_clean_linker_10, # of connection points: 2
#     Edge 40, Type (0, 0), BuildingBlock: TEMPAE_clean_linker_10, # of connection points: 2
#     Edge 41, Type (0, 0), BuildingBlock: TEMPAE_clean_linker_10, # of connection points: 2
#     Edge 42, Type (0, 0), BuildingBlock: TEMPAE_clean_linker_10, # of connection points: 2
#     Edge 43, Type (0, 0), BuildingBlock: TEMPAE_clean_linker_10, # of connection points: 2
#     Edge 44, Type (0, 0), BuildingBlock: TEMPAE_clean_linker_10, # of connection points: 2
#     Edge 45, Type (0, 0), BuildingBlock: TEMPAE_clean_linker_10, # of connection points: 2
#     Edge 46, Type (0, 0), BuildingBlock: TEMPAE_clean_linker_10, # of connection points: 2
#     Edge 47, Type (0, 0), BuildingBlock: TEMPAE_clean_linker_10, # of connection points: 2
#     Edge 48, Type (0, 0), BuildingBlock: TEMPAE_clean_linker_10, # of connection points: 2
#     Edge 49, Type (0, 0), BuildingBlock: TEMPAE_clean_linker_10, # of connection points: 2
#     Edge 50, Type (0, 0), BuildingBlock: TEMPAE_clean_linker_10, # of connection points: 2
#     Edge 51, Type (0, 0), BuildingBlock: TEMPAE_clean_linker_10, # of connection points: 2
#     Edge 52, Type (0, 0), BuildingBlock: TEMPAE_clean_linker_10, # of connection points: 2
#     Edge 53, Type (0, 0), BuildingBlock: TEMPAE_clean_linker_10, # of connection points: 2
#     Edge 54, Type (0, 0), BuildingBlock: TEMPAE_clean_linker_10, # of connection points: 2
#     Edge 55, Type (0, 0), BuildingBlock: TEMPAE_clean_linker_10, # of connection points: 2
#     Edge 56, Type (0, 0), BuildingBlock: TEMPAE_clean_linker_10, # of connection points: 2
#     Edge 57, Type (0, 0), BuildingBlock: TEMPAE_clean_linker_10, # of connection points: 2
#     Edge 58, Type (0, 0), BuildingBlock: TEMPAE_clean_linker_10, # of connection points: 2
#     Edge 59, Type (0, 0), BuildingBlock: TEMPAE_clean_linker_10, # of connection points: 2
#     Edge 60, Type (0, 0), BuildingBlock: TEMPAE_clean_linker_10, # of connection points: 2
#     Edge 61, Type (0, 0), BuildingBlock: TEMPAE_clean_linker_10, # of connection points: 2
#     Edge 62, Type (0, 0), BuildingBlock: TEMPAE_clean_linker_10, # of connection points: 2
#     Edge 63, Type (0, 0), BuildingBlock: TEMPAE_clean_linker_10, # of connection points: 2
# Relax obj value: 0.180
# Max RMSD: 0.246
# Mean RMSD: 0.246
data_MOF--net-wiu--node1-CUKXOW_clean_sbu_0--edge1-TEMPAE_clean_linker_10
_symmetry_space_group_name_H-M    P1
_symmetry_Int_Tables_number       1
_symmetry_cell_setting            triclinic
loop_
_symmetry_equiv_pos_as_xyz
'x, y, z'
_cell_length_a     26.781528
_cell_length_b     26.763199
_cell_length_c     69.314366
_cell_angle_alpha  89.99332
_cell_angle_beta   90.02826
_cell_angle_gamma 89.889212
loop_
_atom_site_label
_atom_site_type_symbol
_atom_site_fract_x
_atom_site_fract_y
_atom_site_fract_z
_atom_type_partial_charge
Tb0 Tb 0.32298 0.07563 0.09327 0.0
C1 C 0.36752 0.14518 0.062 0.0
Tb2 Tb 0.26311 0.10119 0.0596 0.0
O3 O 0.38634 0.04075 0.07909 0.0
O4 O 0.31767 0.04218 0.06475 0.0
O5 O 0.3655 0.13684 0.08083 0.0
C6 C 0.21541 0.10094 0.02579 0.0
O7 O 0.33336 0.12902 0.04999 0.0
C8 C 0.26561 0.1736 0.08585 0.0
C9 C 0.20881 0.0401 0.09256 0.0
O10 O 0.21851 0.13849 0.03746 0.0
O11 O 0.2382 0.06299 0.03338 0.0
O12 O 0.26236 0.18067 0.06738 0.0
O13 O 0.26352 0.12688 0.08895 0.0
O14 O 0.20365 0.06196 0.07546 0.0
O15 O 0.25284 0.03822 0.10136 0.0
C16 C 0.35641 0.07039 0.12922 0.0
O17 O 0.34375 0.03227 0.11869 0.0
O18 O 0.35168 0.11119 0.11925 0.0
C19 C 0.36513 0.0343 0.06249 0.0
Tb20 Tb 0.68774 0.56895 0.34454 0.0
C21 C 0.60803 0.60902 0.31623 0.0
Tb22 Tb 0.66702 0.51411 0.30894 0.0
O23 O 0.7115 0.63844 0.33129 0.0
O24 O 0.72102 0.57242 0.31579 0.0
O25 O 0.61838 0.6028 0.33475 0.0
C26 C 0.67026 0.47402 0.27366 0.0
O27 O 0.6311 0.58381 0.3026 0.0
C28 C 0.59595 0.50311 0.33529 0.0
C29 C 0.72886 0.45653 0.34118 0.0
O30 O 0.63163 0.47574 0.2848 0.0
O31 O 0.70789 0.49399 0.28255 0.0
O32 O 0.58841 0.50197 0.31679 0.0
O33 O 0.64263 0.50629 0.33816 0.0
O34 O 0.70718 0.45352 0.32394 0.0
O35 O 0.72983 0.49956 0.35081 0.0
C36 C 0.69232 0.59762 0.38123 0.0
O37 O 0.73079 0.58859 0.37032 0.0
O38 O 0.65173 0.59184 0.37129 0.0
C39 C 0.72229 0.62068 0.31443 0.0
Tb40 Tb 0.17884 0.93427 0.5956 0.0
C41 C 0.1499 0.85343 0.56601 0.0
Tb42 Tb 0.24573 0.91501 0.56039 0.0
O43 O 0.11481 0.96199 0.57974 0.0
O44 O 0.18534 0.96793 0.56702 0.0
O45 O 0.15042 0.86383 0.58474 0.0
C46 C 0.28065 0.91378 0.52458 0.0
O47 O 0.17776 0.87704 0.55331 0.0
C48 C 0.26246 0.84719 0.58835 0.0
C49 C 0.29448 0.97214 0.59507 0.0
O50 O 0.26687 0.87512 0.53442 0.0
O51 O 0.27556 0.95385 0.53503 0.0
O52 O 0.28589 0.84774 0.57192 0.0
O53 O 0.23456 0.88498 0.58777 0.0
O54 O 0.29905 0.96104 0.57646 0.0
O55 O 0.25203 0.96467 0.6047 0.0
C56 C 0.14434 0.94493 0.63117 0.0
O57 O 0.16095 0.98104 0.62041 0.0
O58 O 0.14566 0.90326 0.62161 0.0
C59 C 0.13772 0.97098 0.56367 0.0
Tb60 Tb 0.82745 0.43899 0.84396 0.0
C61 C 0.90575 0.40376 0.81407 0.0
Tb62 Tb 0.84373 0.49699 0.80892 0.0
O63 O 0.80509 0.36971 0.8305 0.0
O64 O 0.79172 0.43621 0.81554 0.0
O65 O 0.89701 0.40796 0.83283 0.0
C66 C 0.83983 0.54064 0.7742 0.0
O67 O 0.8804 0.42905 0.80113 0.0
C68 C 0.91656 0.50782 0.8347 0.0
C69 C 0.78318 0.55054 0.84231 0.0
O70 O 0.878 0.53937 0.78558 0.0
O71 O 0.8028 0.51812 0.78256 0.0
O72 O 0.92275 0.5101 0.81616 0.0
O73 O 0.87023 0.50333 0.83796 0.0
O74 O 0.80272 0.55516 0.82477 0.0
O75 O 0.78441 0.50695 0.85155 0.0
C76 C 0.82398 0.40725 0.8803 0.0
O77 O 0.78528 0.41639 0.86952 0.0
O78 O 0.86439 0.41473 0.87041 0.0
C79 C 0.79206 0.38784 0.81396 0.0
Tb80 Tb 0.73496 0.92664 0.95721 0.0
C81 C 0.79023 0.98611 0.92441 0.0
Tb82 Tb 0.67662 0.94691 0.92268 0.0
O83 O 0.7489 0.84786 0.9497 0.0
O84 O 0.73933 0.90042 0.92792 0.0
O85 O 0.79416 0.96646 0.94191 0.0
C86 C 0.64242 0.95521 0.88679 0.0
O87 O 0.74676 0.98615 0.91505 0.0
C88 C 0.62787 0.9822 0.95336 0.0
C89 C 0.64094 0.86743 0.95175 0.0
O90 O 0.65573 0.99246 0.89765 0.0
O91 O 0.6475 0.91392 0.89631 0.0
O92 O 0.60842 0.97026 0.93694 0.0
O93 O 0.67596 0.98112 0.95126 0.0
O94 O 0.64491 0.8773 0.9331 0.0
O95 O 0.66643 0.89171 0.96487 0.0
C96 C 0.77626 0.9306 0.99224 0.0
O97 O 0.77323 0.89145 0.98141 0.0
O98 O 0.75719 0.96839 0.98311 0.0
C99 C 0.74374 0.85389 0.93124 0.0
Tb100 Tb 0.34464 0.48471 0.70918 0.0
C101 C 0.28261 0.54239 0.67719 0.0
Tb102 Tb 0.31898 0.4287 0.67497 0.0
O103 O 0.42342 0.48978 0.70048 0.0
O104 O 0.3672 0.49018 0.67966 0.0
O105 O 0.3064 0.54587 0.69396 0.0
C106 C 0.3122 0.39827 0.63876 0.0
O107 O 0.27815 0.49853 0.66835 0.0
C108 C 0.28521 0.38013 0.70574 0.0
C109 C 0.399 0.38709 0.70312 0.0
O110 O 0.27432 0.40721 0.64999 0.0
O111 O 0.35354 0.40533 0.6481 0.0
O112 O 0.29432 0.36081 0.689 0.0
O113 O 0.2876 0.4283 0.70399 0.0
O114 O 0.38657 0.39104 0.68469 0.0
O115 O 0.37874 0.41513 0.71655 0.0
C116 C 0.34533 0.52973 0.74348 0.0
O117 O 0.38267 0.52661 0.73175 0.0
O118 O 0.3069 0.50818 0.73576 0.0
C119 C 0.41409 0.49009 0.68212 0.0
Tb120 Tb 0.77708 0.08515 0.45772 0.0
C121 C 0.71891 0.02985 0.42428 0.0
Tb122 Tb 0.83705 0.05556 0.42121 0.0
O123 O 0.74175 0.1545 0.44626 0.0
O124 O 0.78772 0.11181 0.4296 0.0
O125 O 0.71718 0.04576 0.44248 0.0
C126 C 0.86989 0.04491 0.38536 0.0
O127 O 0.76121 0.02876 0.41414 0.0
C128 C 0.87823 0.01812 0.45333 0.0
C129 C 0.87883 0.13454 0.44938 0.0
O130 O 0.85345 0.00872 0.39616 0.0
O131 O 0.86843 0.08659 0.39489 0.0
O132 O 0.89961 0.02185 0.43661 0.0
O133 O 0.8313 0.02738 0.45041 0.0
O134 O 0.87555 0.12172 0.43094 0.0
O135 O 0.84873 0.11769 0.46292 0.0
C136 C 0.74657 0.089 0.49415 0.0
O137 O 0.76199 0.12659 0.48402 0.0
O138 O 0.74748 0.04869 0.48365 0.0
C139 C 0.76264 0.15181 0.42933 0.0
Tb140 Tb 0.16581 0.52948 0.20862 0.0
C141 C 0.22663 0.47404 0.17608 0.0
Tb142 Tb 0.19248 0.59021 0.17275 0.0
O143 O 0.10063 0.48779 0.19678 0.0
O144 O 0.14103 0.53559 0.18017 0.0
O145 O 0.20897 0.47122 0.19397 0.0
C146 C 0.20598 0.62214 0.13704 0.0
O147 O 0.22596 0.51638 0.16595 0.0
C148 C 0.22057 0.63639 0.20497 0.0
C149 C 0.10181 0.62036 0.19785 0.0
O150 O 0.24151 0.6071 0.14847 0.0
O151 O 0.16354 0.62042 0.14598 0.0
O152 O 0.21334 0.65723 0.18835 0.0
O153 O 0.21985 0.58849 0.20234 0.0
O154 O 0.11915 0.61857 0.17996 0.0
O155 O 0.12246 0.59626 0.21238 0.0
C156 C 0.16159 0.49929 0.24499 0.0
O157 O 0.12384 0.51262 0.23452 0.0
O158 O 0.20245 0.50233 0.2349 0.0
C159 C 0.10307 0.50774 0.17968 0.0
Tb160 Tb 0.82555 0.58162 0.59463 0.0
C161 C 0.85648 0.6593 0.56401 0.0
Tb162 Tb 0.76409 0.59512 0.55991 0.0
O163 O 0.89394 0.55802 0.58049 0.0
O164 O 0.82606 0.54458 0.56653 0.0
O165 O 0.85379 0.65147 0.58285 0.0
C166 C 0.72111 0.58899 0.52517 0.0
O167 O 0.83077 0.63291 0.55153 0.0
C168 C 0.75243 0.66735 0.58601 0.0
C169 C 0.71496 0.53398 0.59383 0.0
O170 O 0.72096 0.62764 0.53633 0.0
O171 O 0.7443 0.55276 0.53382 0.0
O172 O 0.74806 0.67379 0.56753 0.0
O173 O 0.75919 0.62124 0.58894 0.0
O174 O 0.70875 0.5509 0.57596 0.0
O175 O 0.75835 0.53906 0.60301 0.0
C176 C 0.85756 0.5794 0.63093 0.0
O177 O 0.84958 0.54036 0.62021 0.0
O178 O 0.84922 0.61959 0.62093 0.0
C179 C 0.87411 0.54486 0.56426 0.0
Tb180 Tb 0.19148 0.07766 0.84649 0.0
C181 C 0.11384 0.11656 0.81691 0.0
Tb182 Tb 0.16626 0.01593 0.81008 0.0
O183 O 0.22551 0.14038 0.83165 0.0
O184 O 0.22304 0.07133 0.81764 0.0
O185 O 0.12454 0.11365 0.83556 0.0
C186 C 0.16068 0.98228 0.77416 0.0
O187 O 0.13416 0.08747 0.80376 0.0
C188 C 0.09817 1.00199 0.83798 0.0
C189 C 0.22286 0.9604 0.84391 0.0
O190 O 0.12374 0.99892 0.78432 0.0
O191 O 0.20164 0.98418 0.78426 0.0
O192 O 0.09657 0.98024 0.82123 0.0
O193 O 0.13794 0.02691 0.83773 0.0
O194 O 0.20762 0.95778 0.82564 0.0
O195 O 0.22128 1.00288 0.85399 0.0
C196 C 0.19518 0.11014 0.88262 0.0
O197 O 0.23365 0.09519 0.8727 0.0
O198 O 0.15545 0.10781 0.87202 0.0
C199 C 0.23093 0.11866 0.81506 0.0
Tb200 Tb 0.68955 0.42943 0.09359 0.0
C201 C 0.65027 0.34889 0.06537 0.0
Tb202 Tb 0.74603 0.40654 0.05881 0.0
O203 O 0.62039 0.45196 0.07976 0.0
O204 O 0.68709 0.46112 0.06458 0.0
O205 O 0.65504 0.36039 0.08387 0.0
C206 C 0.78824 0.40919 0.02386 0.0
O207 O 0.67739 0.37027 0.05192 0.0
C208 C 0.75621 0.33718 0.08604 0.0
C209 C 0.8014 0.47099 0.09062 0.0
O210 O 0.78449 0.37026 0.0348 0.0
O211 O 0.76909 0.44728 0.03278 0.0
O212 O 0.7581 0.32839 0.06763 0.0
O213 O 0.75289 0.38407 0.08835 0.0
O214 O 0.80564 0.44735 0.07384 0.0
O215 O 0.75775 0.47319 0.09975 0.0
C216 C 0.66016 0.43542 0.13012 0.0
O217 O 0.66771 0.47348 0.11882 0.0
O218 O 0.66773 0.39436 0.12063 0.0
C219 C 0.63886 0.46214 0.06297 0.0
Tb220 Tb 0.31804 0.94145 0.34476 0.0
C221 C 0.39912 0.90248 0.31686 0.0
Tb222 Tb 0.3453 1.0017 0.30849 0.0
O223 O 0.28687 0.87751 0.32983 0.0
O224 O 0.28795 0.94633 0.31557 0.0
O225 O 0.38687 0.90653 0.33532 0.0
C226 C 0.34878 0.03534 0.27247 0.0
O227 O 0.37934 0.93028 0.30313 0.0
C228 C 0.4119 0.01724 0.33684 0.0
C229 C 0.28796 0.05872 0.34183 0.0
O230 O 0.38654 0.01947 0.28241 0.0
O231 O 0.3084 0.03253 0.28284 0.0
O232 O 0.41456 0.03775 0.31986 0.0
O233 O 0.37209 0.99229 0.33649 0.0
O234 O 0.30444 0.06099 0.32373 0.0
O235 O 0.28829 0.0163 0.3519 0.0
C236 C 0.30786 0.91092 0.38091 0.0
O237 O 0.27164 0.92728 0.37011 0.0
O238 O 0.34908 0.91045 0.37113 0.0
C239 C 0.28161 0.8987 0.31314 0.0
Tb240 Tb 0.24111 0.42515 0.46019 0.0
C241 C 0.29967 0.48252 0.42751 0.0
Tb242 Tb 0.18162 0.45861 0.42439 0.0
O243 O 0.27597 0.35661 0.44794 0.0
O244 O 0.2303 0.4009 0.43176 0.0
O245 O 0.30171 0.46381 0.44526 0.0
C246 C 0.15047 0.47065 0.38846 0.0
O247 O 0.25728 0.48619 0.41757 0.0
C248 C 0.14063 0.49363 0.45683 0.0
C249 C 0.13931 0.37719 0.45147 0.0
O250 O 0.16627 0.50653 0.39956 0.0
O251 O 0.15101 0.42874 0.39783 0.0
O252 O 0.11905 0.491 0.4401 0.0
O253 O 0.18763 0.48461 0.45389 0.0
O254 O 0.14259 0.3919 0.43324 0.0
O255 O 0.1695 0.39259 0.46523 0.0
C256 C 0.27462 0.41754 0.49601 0.0
O257 O 0.25759 0.3811 0.48565 0.0
O258 O 0.27303 0.45895 0.48618 0.0
C259 C 0.25535 0.36092 0.43103 0.0
Tb260 Tb 0.84838 0.96842 0.2079 0.0
C261 C 0.79149 0.04414 0.17942 0.0
Tb262 Tb 0.79945 0.92821 0.1735 0.0
O263 O 0.92251 0.95246 0.19621 0.0
O264 O 0.86433 0.97343 0.17787 0.0
O265 O 0.82463 0.0391 0.19369 0.0
C266 C 0.79161 0.90869 0.13617 0.0
O267 O 0.77087 1.00454 0.17122 0.0
C268 C 0.7578 0.88808 0.20502 0.0
C269 C 0.86051 0.85643 0.19929 0.0
O270 O 0.75423 0.9208 0.14728 0.0
O271 O 0.83221 0.9059 0.14627 0.0
O272 O 0.75297 0.8713 0.18749 0.0
O273 O 0.77785 0.93177 0.20342 0.0
O274 O 0.84918 0.86738 0.18121 0.0
O275 O 0.85877 0.89008 0.21313 0.0
C276 C 0.8628 0.00876 0.24263 0.0
O277 O 0.89767 0.99273 0.23126 0.0
O278 O 0.8199 1.00277 0.23432 0.0
C279 C 0.90965 0.95923 0.17833 0.0
Tb280 Tb 0.27368 0.58575 0.95857 0.0
C281 C 0.2167 0.52987 0.92522 0.0
Tb282 Tb 0.33404 0.55792 0.92245 0.0
O283 O 0.23712 0.6547 0.94722 0.0
O284 O 0.28412 0.61338 0.93065 0.0
O285 O 0.21435 0.54603 0.94334 0.0
C286 C 0.36592 0.55266 0.88635 0.0
O287 O 0.25898 0.5293 0.9151 0.0
C288 C 0.37533 0.51954 0.95419 0.0
C289 C 0.374 0.63647 0.95103 0.0
O290 O 0.35083 0.51463 0.89648 0.0
O291 O 0.36426 0.59278 0.89676 0.0
O292 O 0.39697 0.52436 0.93755 0.0
O293 O 0.32805 0.52751 0.95149 0.0
O294 O 0.37018 0.62535 0.93248 0.0
O295 O 0.34547 0.617 0.96446 0.0
C296 C 0.24159 0.59446 0.99449 0.0
O297 O 0.25905 0.63026 0.98395 0.0
O298 O 0.24172 0.5528 0.98477 0.0
C299 C 0.25822 0.65276 0.93037 0.0
Tb300 Tb 0.66244 0.03127 0.70929 0.0
C301 C 0.71898 0.96101 0.67927 0.0
Tb302 Tb 0.70503 0.07749 0.67514 0.0
O303 O 0.58635 0.04549 0.69916 0.0
O304 O 0.64279 0.02892 0.6794 0.0
O305 O 0.68788 0.96302 0.69422 0.0
C306 C 0.71601 0.101 0.63819 0.0
O307 O 0.73631 1.00237 0.67123 0.0
C308 C 0.74745 0.11818 0.7062 0.0
C309 C 0.64163 0.1421 0.70304 0.0
O310 O 0.75212 0.08771 0.64967 0.0
O311 O 0.67435 0.10247 0.64771 0.0
O312 O 0.74864 0.1364 0.68884 0.0
O313 O 0.73069 0.07294 0.70471 0.0
O314 O 0.65217 0.13436 0.6846 0.0
O315 O 0.64792 0.1074 0.71621 0.0
C316 C 0.65185 0.98809 0.74375 0.0
O317 O 0.61574 1.00129 0.73242 0.0
O318 O 0.69402 0.99826 0.7355 0.0
C319 C 0.59707 0.0411 0.68097 0.0
C320 C 0.41065 0.20336 0.04024 0.0
C321 C 0.41278 0.16475 0.05374 0.0
C322 C 0.45458 0.2271 0.03459 0.0
C323 C 0.50014 0.21092 0.04276 0.0
C324 C 0.50273 0.16542 0.05301 0.0
C325 C 0.45837 0.14337 0.05894 0.0
C326 C 0.45112 0.27396 0.02262 0.0
C327 C 0.55154 0.14486 0.06047 0.0
C328 C 0.61709 0.28831 0.04176 0.0
C329 C 0.6123 0.3137 0.05935 0.0
C330 C 0.58031 0.25496 0.03571 0.0
C331 C 0.53775 0.2485 0.04741 0.0
C332 C 0.53218 0.27554 0.0649 0.0
C333 C 0.57008 0.30742 0.07076 0.0
C334 C 0.58709 0.2275 0.01686 0.0
C335 C 0.48671 0.27037 0.07771 0.0
H336 H 0.37479 0.21768 0.03547 0.0
H337 H 0.45938 0.11107 0.06839 0.0
H338 H 0.44428 0.3062 0.03232 0.0
H339 H 0.48614 0.28089 0.01452 0.0
H340 H 0.41946 0.2718 0.01229 0.0
H341 H 0.54883 0.10413 0.0634 0.0
H342 H 0.58216 0.15146 0.05 0.0
H343 H 0.56131 0.16401 0.07416 0.0
H344 H 0.64989 0.29393 0.03285 0.0
H345 H 0.56626 0.32812 0.08413 0.0
H346 H 0.56931 0.24949 1.00515 0.0
H347 H 0.56952 0.19003 0.01708 0.0
H348 H 0.62728 0.22313 0.01324 0.0
H349 H 0.45219 0.27782 0.06934 0.0
H350 H 0.48751 0.29653 0.09016 0.0
H351 H 0.48449 0.23177 0.08347 0.0
C352 C 0.53003 0.65437 0.32215 0.0
C353 C 0.57188 0.6464 0.31063 0.0
C354 C 0.49877 0.69483 0.31854 0.0
C355 C 0.51167 0.72864 0.30367 0.0
C356 C 0.55177 0.71848 0.29106 0.0
C357 C 0.58104 0.6763 0.29448 0.0
C358 C 0.45452 0.70358 0.33165 0.0
C359 C 0.56607 0.75405 0.27508 0.0
C360 C 0.41752 0.83007 0.29654 0.0
C361 C 0.43229 0.86275 0.31116 0.0
C362 C 0.44501 0.78693 0.29286 0.0
C363 C 0.48862 0.77807 0.30375 0.0
C364 C 0.50614 0.81377 0.31723 0.0
C365 C 0.47683 0.85552 0.32112 0.0
C366 C 0.4245 0.74884 0.27892 0.0
C367 C 0.55365 0.80603 0.32863 0.0
H368 H 0.52263 0.62986 0.33429 0.0
H369 H 0.6131 0.66882 0.28538 0.0
H370 H 0.46342 0.73389 0.34201 0.0
H371 H 0.42139 0.7155 0.32319 0.0
H372 H 0.44474 0.66955 0.34002 0.0
H373 H 0.59927 0.74093 0.26692 0.0
H374 H 0.53462 0.75862 0.26484 0.0
H375 H 0.57418 0.79151 0.28117 0.0
H376 H 0.38272 0.83636 0.28896 0.0
H377 H 0.488 0.88183 0.33223 0.0
H378 H 0.40566 0.71889 0.28724 0.0
H379 H 0.45456 0.73096 0.27039 0.0
H380 H 0.39692 0.76575 0.26887 0.0
H381 H 0.54689 0.77831 0.34024 0.0
H382 H 0.56675 0.84126 0.33542 0.0
H383 H 0.58376 0.79117 0.31926 0.0
C384 C 0.10012 0.77693 0.56883 0.0
C385 C 0.11233 0.81993 0.55862 0.0
C386 C 0.05864 0.74908 0.56341 0.0
C387 C 0.0279 0.767 0.54824 0.0
C388 C 0.04265 0.808 0.53687 0.0
C389 C 0.08594 0.83342 0.54198 0.0
C390 C 0.04518 0.70332 0.57506 0.0
C391 C 0.01119 0.8272 0.52036 0.0
C392 C 0.92208 0.67994 0.54077 0.0
C393 C 0.89284 0.69399 0.55658 0.0
C394 C 0.96504 0.70664 0.53626 0.0
C395 C 0.97659 0.7491 0.54739 0.0
C396 C 0.94256 0.76773 0.56129 0.0
C397 C 0.90139 0.73882 0.56618 0.0
C398 C 1.00007 0.68691 0.52098 0.0
C399 C 0.95252 0.81513 0.57246 0.0
H400 H 0.12194 0.76615 0.58136 0.0
H401 H 0.09679 0.86611 0.53385 0.0
H402 H 0.01406 0.71251 0.58502 0.0
H403 H 0.03254 0.67266 0.56546 0.0
H404 H 0.07722 0.68969 0.58381 0.0
H405 H 0.02369 0.86449 0.51531 0.0
H406 H 0.01388 0.80088 0.50806 0.0
H407 H 0.9713 0.82982 0.52457 0.0
H408 H 0.91391 0.64583 0.53304 0.0
H409 H 0.87723 0.75006 0.57798 0.0
H410 H 0.03818 0.68205 0.527 0.0
H411 H 1.00259 0.71418 0.509 0.0
H412 H 0.98744 0.6506 0.51497 0.0
H413 H 0.98133 0.80779 0.58363 0.0
H414 H 0.91834 0.8291 0.5798 0.0
H415 H 0.96687 0.84482 0.56276 0.0
C416 C 0.09508 0.18365 0.79395 0.0
C417 C 0.08153 0.15611 0.81026 0.0
C418 C 0.06886 0.22672 0.789 0.0
C419 C 0.02711 0.24024 0.80021 0.0
C420 C 0.01009 0.20908 0.81539 0.0
C421 C 0.03859 0.16776 0.8206 0.0
C422 C 0.08767 0.25897 0.77269 0.0
C423 C 0.96413 0.22139 0.82713 0.0
C424 C 0.98792 0.36439 0.81734 0.0
C425 C 0.94311 0.36915 0.80732 0.0
C426 C 0.02066 0.32584 0.81273 0.0
C427 C 0.00591 0.29031 0.79873 0.0
C428 C 0.96333 0.29838 0.78715 0.0
C429 C 0.93271 0.33905 0.79134 0.0
C430 C 0.06802 0.31992 0.82436 0.0
C431 C 0.94756 0.26178 0.77175 0.0
H432 H 0.12795 0.17337 0.78582 0.0
H433 H 0.02792 0.14516 0.83293 0.0
H434 H 0.06112 0.25735 0.76046 0.0
H435 H 0.0905 0.29855 0.77732 0.0
H436 H 0.12469 0.24638 0.76733 0.0
H437 H 0.95063 0.18852 0.83541 0.0
H438 H 0.9731 0.25153 0.83756 0.0
H439 H 0.93346 0.23492 0.81772 0.0
H440 H 0.9964 0.38955 0.82917 0.0
H441 H 0.8986 0.34472 0.7832 0.0
H442 H 0.09911 0.30663 0.81509 0.0
H443 H 0.06202 0.29174 0.83587 0.0
H444 H 0.07918 0.3556 0.83132 0.0
H445 H 0.97597 0.26066 0.76016 0.0
H446 H 0.91121 0.27205 0.76513 0.0
H447 H 0.94459 0.22357 0.77786 0.0
C448 C 0.58176 0.83282 0.97509 0.0
C449 C 0.60952 0.82731 0.95816 0.0
C450 C 0.54541 0.79782 0.97975 0.0
C451 C 0.53917 0.75637 0.96744 0.0
C452 C 0.57266 0.74707 0.95207 0.0
C453 C 0.60699 0.78374 0.94726 0.0
C454 C 0.51014 0.80822 0.99626 0.0
C455 C 0.56823 0.70163 0.93925 0.0
C456 C 0.44498 0.65529 0.97187 0.0
C457 C 0.41233 0.67006 0.95722 0.0
C458 C 0.48531 0.6853 0.97678 0.0
C459 C 0.49136 0.73095 0.96696 0.0
C460 C 0.4553 0.74807 0.9535 0.0
C461 C 0.41639 0.71651 0.94844 0.0
C462 C 0.52362 0.66583 0.99089 0.0
C463 C 0.46008 0.79763 0.94319 0.0
H464 H 0.58576 0.86617 0.98383 0.0
H465 H 0.63057 0.77916 0.93465 0.0
H466 H 0.47302 0.81891 0.99044 0.0
H467 H 0.50475 0.77427 1.00516 0.0
H468 H 0.52376 0.83893 1.00566 0.0
H469 H 0.60288 0.69514 0.93078 0.0
H470 H 0.56013 0.66772 0.94788 0.0
H471 H 0.53694 0.70716 0.92895 0.0
H472 H 0.44078 0.61909 0.97862 0.0
H473 H 0.38975 0.72762 0.93743 0.0
H474 H 0.53984 0.69629 0.9997 0.0
H475 H 0.55462 0.64825 0.98272 0.0
H476 H 0.50738 0.63727 1.00067 0.0
H477 H 0.47095 0.82757 0.9534 0.0
H478 H 0.4247 0.80873 0.93596 0.0
H479 H 0.48963 0.79485 0.93202 0.0
C480 C 0.63339 0.23304 0.69787 0.0
C481 C 0.62633 0.19128 0.70961 0.0
C482 C 0.60936 0.27771 0.70235 0.0
C483 C 0.57652 0.27859 0.71828 0.0
C484 C 0.57819 0.24032 0.73223 0.0
C485 C 0.60332 0.19639 0.72765 0.0
C486 C 0.61154 0.31995 0.68805 0.0
C487 C 0.54594 0.2416 0.75006 0.0
C488 C 0.47824 0.37862 0.72052 0.0
C489 C 0.44195 0.35768 0.70844 0.0
C490 C 0.52262 0.35313 0.72424 0.0
C491 C 0.52947 0.30557 0.71593 0.0
C492 C 0.49152 0.28346 0.70439 0.0
C493 C 0.44835 0.31052 0.70051 0.0
C494 C 0.56265 0.37849 0.73604 0.0
C495 C 0.49672 0.23188 0.69565 0.0
H496 H 0.65435 0.22992 0.68454 0.0
H497 H 0.60049 0.16472 0.73735 0.0
H498 H 0.58397 0.31263 0.67644 0.0
H499 H 0.60252 0.35632 0.69489 0.0
H500 H 0.64907 0.32221 0.68129 0.0
H501 H 0.56165 0.21739 0.76159 0.0
H502 H 0.54188 0.28017 0.75568 0.0
H503 H 0.50816 0.22748 0.74638 0.0
H504 H 0.47293 0.41589 0.72633 0.0
H505 H 0.41963 0.295 0.69124 0.0
H506 H 0.58728 0.39997 0.72621 0.0
H507 H 0.58627 0.35136 0.744 0.0
H508 H 0.5461 0.40521 0.74652 0.0
H509 H 0.52706 0.23182 0.68477 0.0
H510 H 0.46189 0.21933 0.68842 0.0
H511 H 0.50632 0.20413 0.70694 0.0
C512 C 0.05413 0.3465 0.44718 0.0
C513 C 0.09944 0.3441 0.457 0.0
C514 C 0.01603 0.31371 0.45184 0.0
C515 C 0.02519 0.27653 0.46593 0.0
C516 C 0.06955 0.27623 0.47685 0.0
C517 C 0.10644 0.31078 0.47232 0.0
C518 C 0.96794 0.31594 0.44043 0.0
C519 C 0.08011 0.23672 0.49187 0.0
C520 C 0.91227 0.1981 0.47139 0.0
C521 C 0.91895 0.16668 0.45545 0.0
C522 C 0.94943 0.23177 0.47654 0.0
C523 C 0.99372 0.23252 0.46559 0.0
C524 C 1.00258 0.19704 0.45086 0.0
C525 C 0.96423 0.16512 0.44561 0.0
C526 C 0.93919 0.26947 0.49226 0.0
C527 C 0.05061 0.1959 0.4394 0.0
H528 H 0.04866 0.37369 0.43576 0.0
H529 H 0.14169 0.30982 0.48003 0.0
H530 H 0.96739 0.28512 0.42971 0.0
H531 H 0.93521 0.31121 0.45004 0.0
H532 H 0.96385 0.35186 0.43254 0.0
H533 H 0.10888 0.24936 0.50233 0.0
H534 H 0.04581 0.22634 0.49987 0.0
H535 H 0.09429 0.20255 0.48462 0.0
H536 H 0.87706 0.19836 0.47911 0.0
H537 H 0.96946 0.13934 0.4337 0.0
H538 H 0.9251 0.30453 0.48564 0.0
H539 H 0.9736 0.27871 0.5004 0.0
H540 H 0.91044 0.25571 0.50251 0.0
H541 H 0.05117 0.22783 0.42918 0.0
H542 H 0.05455 0.16084 0.43094 0.0
H543 H 0.0834 0.19952 0.44906 0.0
C544 C 0.04533 0.6912 0.19403 0.0
C545 C 0.05423 0.64377 0.20128 0.0
C546 C 0.99942 0.71409 0.19707 0.0
C547 C 0.96136 0.68753 0.20711 0.0
C548 C 0.97013 0.63875 0.21405 0.0
C549 C 0.01713 0.6175 0.2112 0.0
C550 C 0.99238 0.76672 0.18952 0.0
C551 C 0.93031 0.60799 0.22385 0.0
C552 C 0.89015 0.79341 0.22273 0.0
C553 C 0.87014 0.80463 0.20457 0.0
C554 C 0.91173 0.74679 0.22598 0.0
C555 C 0.91361 0.71268 0.21049 0.0
C556 C 0.88195 0.71905 0.19444 0.0
C557 C 0.86111 0.76614 0.19133 0.0
C558 C 0.9408 0.73823 0.2443 0.0
C559 C 0.87853 0.67997 0.17885 0.0
H560 H 0.07468 0.71062 0.18628 0.0
H561 H 0.02448 0.57986 0.2163 0.0
H562 H 0.96285 0.76729 0.17831 0.0
H563 H 0.98108 0.79211 0.20137 0.0
H564 H 0.02696 0.78204 0.18295 0.0
H565 H 0.94671 0.58556 0.23576 0.0
H566 H 0.89926 0.63087 0.22967 0.0
H567 H 0.9145 0.5814 0.21319 0.0
H568 H 0.89382 0.82224 0.23363 0.0
H569 H 0.8418 0.77371 0.17789 0.0
H570 H 0.98025 0.74942 0.24199 0.0
H571 H 0.94028 0.6982 0.24845 0.0
H572 H 0.92546 0.76087 0.25637 0.0
H573 H 0.9097 0.68518 0.16849 0.0
H574 H 0.84285 0.68331 0.17077 0.0
H575 H 0.88159 0.64183 0.18506 0.0
C576 C 0.43983 0.99078 0.04772 0.0
C577 C 0.39714 0.02103 0.04485 0.0
C578 C 0.47784 0.98469 0.03356 0.0
C579 C 0.47568 0.01111 0.01579 0.0
C580 C 0.43254 0.04168 0.01263 0.0
C581 C 0.39379 0.04552 0.02685 0.0
C582 C 0.52093 0.95 0.03782 0.0
C583 C 0.4282 0.07217 0.99442 0.0
C584 C 0.60035 0.02355 0.98595 0.0
C585 C 0.59394 0.98812 0.97109 0.0
C586 C 0.56237 0.0322 1.00025 0.0
C587 C 0.51684 1.00413 1.00029 0.0
C588 C 0.51134 0.96753 0.98563 0.0
C589 C 0.54873 0.9609 0.97133 0.0
C590 C 0.57055 0.07237 0.01514 0.0
C591 C 0.46539 0.93502 0.9849 0.0
H592 H 0.44409 0.97203 0.06149 0.0
H593 H 0.36215 0.06967 0.02413 0.0
H594 H 0.52599 0.92305 0.02581 0.0
H595 H 0.55593 0.97182 0.03909 0.0
H596 H 0.51542 0.92872 0.05142 0.0
H597 H 0.39326 0.09459 0.99398 0.0
H598 H 0.46057 0.09786 0.99333 0.0
H599 H 0.42924 0.04739 0.98161 0.0
H600 H 0.63398 0.04598 0.98598 0.0
H601 H 0.54225 0.93367 0.96003 0.0
H602 H 0.57533 0.05504 0.02956 0.0
H603 H 0.53741 0.09727 0.01594 0.0
H604 H 0.60409 0.09529 0.01197 0.0
H605 H 0.45989 0.91613 0.999 0.0
H606 H 0.46773 0.90617 0.97343 0.0
H607 H 0.43189 0.95839 0.9822 0.0
C608 C 0.75672 0.64661 0.28039 0.0
C609 C 0.72867 0.65637 0.29719 0.0
C610 C 0.76482 0.68432 0.26593 0.0
C611 C 0.743 0.73321 0.26761 0.0
C612 C 0.71392 0.74232 0.2844 0.0
C613 C 0.70815 0.70493 0.29878 0.0
C614 C 0.79796 0.67112 0.24911 0.0
C615 C 0.6886 0.79211 0.28749 0.0
C616 C 0.77789 0.8571 0.24001 0.0
C617 C 0.75197 0.85257 0.22237 0.0
C618 C 0.77746 0.81826 0.25428 0.0
C619 C 0.74787 0.77406 0.2518 0.0
C620 C 0.71992 0.77079 0.23437 0.0
C621 C 0.7233 0.80871 0.22002 0.0
C622 C 0.81038 0.8251 0.27172 0.0
C623 C 0.68619 0.72679 0.23051 0.0
H624 H 0.77384 0.61014 0.27877 0.0
H625 H 0.68641 0.71402 0.3115 0.0
H626 H 0.77713 0.64648 0.23907 0.0
H627 H 0.8112 0.70438 0.24106 0.0
H628 H 0.831 0.64972 0.25422 0.0
H629 H 0.65874 0.7898 0.29855 0.0
H630 H 0.71648 0.81964 0.2926 0.0
H631 H 0.67209 0.80643 0.27388 0.0
H632 H 0.80038 0.89009 0.24246 0.0
H633 H 0.70293 0.80372 0.20664 0.0
H634 H 0.81462 0.79058 0.28043 0.0
H635 H 0.79464 0.85512 0.28095 0.0
H636 H 0.84806 0.83768 0.26714 0.0
H637 H 0.70883 0.69548 0.22471 0.0
H638 H 0.65702 0.73602 0.21967 0.0
H639 H 0.66752 0.71375 0.24387 0.0
C640 C 0.06361 0.01584 0.54909 0.0
C641 C 0.10733 0.98725 0.54599 0.0
C642 C 0.02618 0.02281 0.53475 0.0
C643 C 0.02996 0.99895 0.51648 0.0
C644 C 0.07466 0.97067 0.51301 0.0
C645 C 0.11277 0.96609 0.5275 0.0
C646 C 0.98175 0.05534 0.53944 0.0
C647 C 0.08244 0.94348 0.4942 0.0
C648 C 0.90367 0.98579 0.48749 0.0
C649 C 0.91089 0.01775 0.47157 0.0
C650 C 0.94148 0.97881 0.50198 0.0
C651 C 0.98809 1.00524 0.50115 0.0
C652 C 0.99401 0.03925 0.48558 0.0
C653 C 0.95687 0.04358 0.47102 0.0
C654 C 0.93072 0.94193 0.51787 0.0
C655 C 0.04011 0.07135 0.484 0.0
H656 H 0.05786 0.03221 0.56323 0.0
H657 H 0.14531 0.94312 0.52466 0.0
H658 H 0.97368 0.0813 0.52733 0.0
H659 H 0.94838 0.0315 0.54158 0.0
H660 H 0.98767 0.07762 0.55276 0.0
H661 H 0.1026 0.90769 0.49661 0.0
H662 H 0.04678 0.93536 0.48669 0.0
H663 H 0.10605 0.9667 0.48461 0.0
H664 H 0.86958 0.96413 0.48819 0.0
H665 H 0.96463 0.06705 0.45869 0.0
H666 H 0.96361 0.93351 0.52703 0.0
H667 H 0.9167 0.90645 0.51158 0.0
H668 H 0.90051 0.95704 0.52717 0.0
H669 H 0.051 0.0864 0.49831 0.0
H670 H 0.03449 0.10321 0.47395 0.0
H671 H 0.07154 0.04845 0.47849 0.0
C672 C 0.80739 0.30454 0.79788 0.0
C673 C 0.78432 0.3521 0.79682 0.0
C674 C 0.80026 0.26652 0.78387 0.0
C675 C 0.7675 0.27395 0.76802 0.0
C676 C 0.74317 0.32167 0.76684 0.0
C677 C 0.75234 0.36013 0.78093 0.0
C678 C 0.82797 0.21776 0.78631 0.0
C679 C 0.70631 0.33189 0.75088 0.0
C680 C 0.78439 0.19659 0.7208 0.0
C681 C 0.75548 0.15305 0.72358 0.0
C682 C 0.78875 0.23503 0.73487 0.0
C683 C 0.76146 0.23271 0.75246 0.0
C684 C 0.73184 0.18876 0.75545 0.0
C685 C 0.73042 0.14934 0.74142 0.0
C686 C 0.82277 0.27846 0.73043 0.0
C687 C 0.70034 0.18281 0.77332 0.0
H688 H 0.83207 0.29672 0.80991 0.0
H689 H 0.73314 0.39568 0.77981 0.0
H690 H 0.80165 0.18868 0.79139 0.0
H691 H 0.84393 0.20499 0.77238 0.0
H692 H 0.85862 0.22071 0.79703 0.0
H693 H 0.68223 0.36464 0.75417 0.0
H694 H 0.7268 0.33977 0.73733 0.0
H695 H 0.68218 0.29882 0.74832 0.0
H696 H 0.8041 0.20101 0.70725 0.0
H697 H 0.70787 0.11661 0.74425 0.0
H698 H 0.83885 0.29539 0.74364 0.0
H699 H 0.80118 0.30763 0.72268 0.0
H700 H 0.85397 0.26677 0.72088 0.0
H701 H 0.71922 0.1566 0.78336 0.0
H702 H 0.66366 0.16609 0.76956 0.0
H703 H 0.69364 0.21872 0.78089 0.0
C704 C 0.2483 0.35396 0.73913 0.0
C705 C 0.2806 0.34592 0.7234 0.0
C706 C 0.24022 0.31634 0.75358 0.0
C707 C 0.26538 0.26892 0.75273 0.0
C708 C 0.29979 0.26218 0.73734 0.0
C709 C 0.30601 0.29959 0.723 0.0
C710 C 0.20409 0.32855 0.76955 0.0
C711 C 0.33081 0.21519 0.73593 0.0
C712 C 0.27533 0.19278 0.80049 0.0
C713 C 0.24578 0.1498 0.7974 0.0
C714 C 0.28262 0.23025 0.78622 0.0
C715 C 0.25815 0.2273 0.76806 0.0
C716 C 0.22869 0.18347 0.76462 0.0
C717 C 0.22394 0.14511 0.779 0.0
C718 C 0.31624 0.2738 0.79085 0.0
C719 C 0.20047 0.17698 0.74597 0.0
H720 H 0.22782 0.38887 0.73986 0.0
H721 H 0.33137 0.29217 0.71115 0.0
H722 H 0.16836 0.34202 0.76328 0.0
H723 H 0.19629 0.29655 0.77923 0.0
H724 H 0.21943 0.35966 0.77832 0.0
H725 H 0.3467 0.20521 0.75022 0.0
H726 H 0.30686 0.1838 0.73115 0.0
H727 H 0.36196 0.21912 0.72545 0.0
H728 H 0.29247 0.19781 0.81453 0.0
H729 H 0.20039 0.11308 0.77615 0.0
H730 H 0.29329 0.30792 0.7929 0.0
H731 H 0.3424 0.28093 0.77874 0.0
H732 H 0.33834 0.26741 0.8042 0.0
H733 H 0.19229 0.21319 0.73883 0.0
H734 H 0.16466 0.15712 0.74849 0.0
H735 H 0.22299 0.15367 0.736 0.0
C736 C 0.28849 0.86976 0.27741 0.0
C737 C 0.26572 0.86718 0.29573 0.0
C738 C 0.28217 0.83099 0.26329 0.0
C739 C 0.25109 0.78858 0.267 0.0
C740 C 0.22678 0.7871 0.28519 0.0
C741 C 0.23479 0.82532 0.29911 0.0
C742 C 0.31081 0.83426 0.24463 0.0
C743 C 0.19313 0.74394 0.29029 0.0
C744 C 0.19736 0.7142 0.22345 0.0
C745 C 0.22493 0.66912 0.22302 0.0
C746 C 0.20502 0.75198 0.23756 0.0
C747 C 0.24255 0.74663 0.25192 0.0
C748 C 0.26956 0.70025 0.25204 0.0
C749 C 0.26058 0.6625 0.23774 0.0
C750 C 0.17236 0.79798 0.23704 0.0
C751 C 0.30899 0.68953 0.26698 0.0
H752 H 0.31373 0.90042 0.2745 0.0
H753 H 0.21744 0.8216 0.31317 0.0
H754 H 0.33356 0.7999 0.24266 0.0
H755 H 0.28449 0.83648 0.23231 0.0
H756 H 0.33587 0.86727 0.24419 0.0
H757 H 0.17423 0.7493 0.3044 0.0
H758 H 0.16425 0.73894 0.27896 0.0
H759 H 0.21543 0.70897 0.29093 0.0
H760 H 0.16957 0.72048 0.21232 0.0
H761 H 0.28305 0.62878 0.23771 0.0
H762 H 0.19547 0.83148 0.23413 0.0
H763 H 0.15422 0.80353 0.25128 0.0
H764 H 0.14283 0.79558 0.22581 0.0
H765 H 0.3454 0.68369 0.25965 0.0
H766 H 0.29985 0.65416 0.27456 0.0
H767 H 0.31309 0.7196 0.27784 0.0
C768 C 0.1136 0.52849 0.49032 0.0
C769 C 0.10819 0.49403 0.47509 0.0
C770 C 0.07521 0.53583 0.50454 0.0
C771 C 0.02984 0.50728 0.50416 0.0
C772 C 0.02583 0.47083 0.48932 0.0
C773 C 0.06339 0.46623 0.47494 0.0
C774 C 0.08388 0.57565 0.51954 0.0
C775 C 0.98122 0.43656 0.48818 0.0
C776 C 0.95272 0.50273 0.55191 0.0
C777 C 0.90753 0.52767 0.54755 0.0
C778 C 0.99121 0.49483 0.53806 0.0
C779 C 0.98707 0.51445 0.51905 0.0
C780 C 0.94115 0.53941 0.51442 0.0
C781 C 0.90198 0.54454 0.52841 0.0
C782 C 0.03703 0.46586 0.54406 0.0
C783 C 0.93307 0.56257 0.49484 0.0
H784 H 0.14657 0.55189 0.4906 0.0
H785 H 0.05672 0.44112 0.46303 0.0
H786 H 0.09587 0.61081 0.51242 0.0
H787 H 0.05057 0.58363 0.52851 0.0
H788 H 0.11489 0.56374 0.52914 0.0
H789 H 0.98991 0.40206 0.4799 0.0
H790 H 0.96808 0.4256 0.50276 0.0
H791 H 0.95026 0.45611 0.48069 0.0
H792 H 0.95856 0.48978 0.56656 0.0
H793 H 0.86831 0.56478 0.52461 0.0
H794 H 0.06864 0.49204 0.54611 0.0
H795 H 0.04784 0.43867 0.5327 0.0
H796 H 0.03115 0.4453 0.55779 0.0
H797 H 0.96867 0.57122 0.48739 0.0
H798 H 0.91093 0.59757 0.49608 0.0
H799 H 0.91128 0.53637 0.48575 0.0
C800 C 0.61115 0.50097 0.02997 0.0
C801 C 0.60394 0.46774 0.04549 0.0
C802 C 0.57309 0.5095 0.0157 0.0
C803 C 0.52601 0.48394 0.01648 0.0
C804 C 0.52001 0.44878 0.03167 0.0
C805 C 0.55786 0.44201 0.04584 0.0
C806 C 0.58446 0.54637 0.9999 0.0
C807 C 0.47357 0.4171 0.03286 0.0
C808 C 0.4033 0.52846 0.99005 0.0
C809 C 0.40633 0.50458 0.97194 0.0
C810 C 0.44183 0.52314 1.00436 0.0
C811 C 0.48416 0.49133 1.0012 0.0
C812 C 0.48574 0.46543 0.98332 0.0
C813 C 0.44808 0.47298 0.9691 0.0
C814 C 0.4382 0.55353 0.0226 0.0
C815 C 0.52836 0.43034 0.97888 0.0
H816 H 0.6458 0.52172 0.02925 0.0
H817 H 0.55107 0.41591 0.0575 0.0
H818 H 0.55205 0.5544 0.99044 0.0
H819 H 0.5978 0.58195 1.00632 0.0
H820 H 0.61534 0.5315 0.99087 0.0
H821 H 0.47534 0.38955 0.04483 0.0
H822 H 0.44032 0.44116 0.03503 0.0
H823 H 0.46815 0.39664 0.01909 0.0
H824 H 0.37256 0.55394 0.99263 0.0
H825 H 0.45207 0.45455 0.95525 0.0
H826 H 0.47443 0.57197 0.02571 0.0
H827 H 0.42959 0.52864 0.03494 0.0
H828 H 0.4086 0.58258 0.02169 0.0
H829 H 0.5635 0.45198 0.97759 0.0
H830 H 0.5224 0.40938 0.96524 0.0
H831 H 0.53333 0.40315 0.99083 0.0
C832 C 0.26812 0.20684 0.12042 0.0
C833 C 0.26207 0.21508 0.10052 0.0
C834 C 0.26581 0.2468 0.13389 0.0
C835 C 0.25566 0.29638 0.1275 0.0
C836 C 0.24873 0.30451 0.10744 0.0
C837 C 0.25274 0.26427 0.09432 0.0
C838 C 0.27506 0.23602 0.15495 0.0
C839 C 0.23611 0.35582 0.09976 0.0
C840 C 0.19778 0.39245 0.16234 0.0
C841 C 0.23704 0.42626 0.16545 0.0
C842 C 0.2035 0.35006 0.15035 0.0
C843 C 0.25034 0.33957 0.14162 0.0
C844 C 0.29078 0.37264 0.14538 0.0
C845 C 0.28335 0.4161 0.1568 0.0
C846 C 0.15857 0.31773 0.14633 0.0
C847 C 0.34184 0.36253 0.13708 0.0
H848 H 0.27498 0.1692 0.12549 0.0
H849 H 0.24777 0.2714 0.07904 0.0
H850 H 0.30937 0.25571 0.1597 0.0
H851 H 0.2438 0.25034 0.16387 0.0
H852 H 0.27969 0.19544 0.15784 0.0
H853 H 0.23022 0.35587 0.0839 0.0
H854 H 0.20172 0.37003 0.10683 0.0
H855 H 0.26659 0.38235 0.10321 0.0
H856 H 0.16157 0.40051 0.16863 0.0
H857 H 0.3138 0.44212 0.15896 0.0
H858 H 0.16658 0.27837 0.15027 0.0
H859 H 0.15 0.31844 0.13066 0.0
H860 H 0.12494 0.33032 0.15436 0.0
H861 H 0.35306 0.32328 0.13998 0.0
H862 H 0.37063 0.3879 0.14315 0.0
H863 H 0.34095 0.36749 0.1212 0.0
C864 C 0.50559 0.49287 0.34428 0.0
C865 C 0.55525 0.50033 0.35016 0.0
C866 C 0.46596 0.49069 0.35768 0.0
C867 C 0.4754 0.49777 0.37764 0.0
C868 C 0.52557 0.50534 0.38371 0.0
C869 C 0.5648 0.50574 0.36998 0.0
C870 C 0.41388 0.48004 0.35042 0.0
C871 C 0.53779 0.51437 0.40466 0.0
C872 C 0.35936 0.53443 0.40736 0.0
C873 C 0.34752 0.48949 0.41672 0.0
C874 C 0.40231 0.53846 0.39551 0.0
C875 C 0.43283 0.49584 0.39202 0.0
C876 C 0.42063 0.45036 0.40143 0.0
C877 C 0.37896 0.44809 0.41389 0.0
C878 C 0.41466 0.58824 0.38651 0.0
C879 C 0.45026 0.40331 0.39768 0.0
H880 H 0.4976 0.48819 0.32905 0.0
H881 H 0.60293 0.5106 0.37479 0.0
H882 H 0.39813 0.4473 0.35813 0.0
H883 H 0.3891 0.51235 0.35342 0.0
H884 H 0.41306 0.47237 0.33467 0.0
H885 H 0.57858 0.51266 0.40749 0.0
H886 H 0.52382 0.55189 0.40885 0.0
H887 H 0.51893 0.48675 0.41407 0.0
H888 H 0.33501 0.56644 0.40931 0.0
H889 H 0.36939 0.41289 0.4207 0.0
H890 H 0.40932 0.58628 0.37066 0.0
H891 H 0.45444 0.5976 0.38916 0.0
H892 H 0.39089 0.61886 0.39226 0.0
H893 H 0.44863 0.39391 0.3821 0.0
H894 H 0.43608 0.37093 0.40607 0.0
H895 H 0.49009 0.40918 0.40141 0.0
C896 C 0.30095 0.76881 0.60216 0.0
C897 C 0.26315 0.80526 0.60283 0.0
C898 C 0.30143 0.72755 0.61494 0.0
C899 C 0.2626 0.72149 0.6287 0.0
C900 C 0.22424 0.75821 0.62942 0.0
C901 C 0.22526 0.79957 0.61665 0.0
C902 C 0.34362 0.69021 0.61364 0.0
C903 C 0.18172 0.75369 0.64358 0.0
C904 C 0.24521 0.58787 0.64836 0.0
C905 C 0.2702 0.5896 0.66622 0.0
C906 C 0.2407 0.63069 0.63645 0.0
C907 C 0.2624 0.67678 0.64219 0.0
C908 C 0.28624 0.67916 0.66046 0.0
C909 C 0.28952 0.636 0.67222 0.0
C910 C 0.21393 0.62617 0.61737 0.0
C911 C 0.31045 0.72689 0.66727 0.0
H912 H 0.33043 0.77253 0.59155 0.0
H913 H 0.1956 0.82678 0.6172 0.0
H914 H 0.36246 0.68678 0.62785 0.0
H915 H 0.32865 0.65282 0.60991 0.0
H916 H 0.37184 0.70086 0.60265 0.0
H917 H 0.15226 0.78223 0.64106 0.0
H918 H 0.16461 0.71604 0.64261 0.0
H919 H 0.19606 0.75821 0.65849 0.0
H920 H 0.2302 0.55257 0.64339 0.0
H921 H 0.30943 0.63826 0.6858 0.0
H922 H 0.24096 0.63096 0.6054 0.0
H923 H 0.18545 0.65613 0.61595 0.0
H924 H 0.1953 0.58937 0.61567 0.0
H925 H 0.34156 0.73685 0.65743 0.0
H926 H 0.32544 0.72364 0.68216 0.0
H927 H 0.28318 0.75811 0.66685 0.0
C928 C 0.94993 0.50263 0.86903 0.0
C929 C 0.95811 0.5104 0.84924 0.0
C930 C 0.98991 0.50283 0.88244 0.0
C931 C 0.03943 0.51279 0.87611 0.0
C932 C 0.04745 0.52223 0.8562 0.0
C933 C 0.00713 0.52006 0.84308 0.0
C934 C 0.97918 0.491 0.90331 0.0
C935 C 0.09869 0.53546 0.84871 0.0
C936 C 0.13573 0.56263 0.91243 0.0
C937 C 0.16886 0.52224 0.91446 0.0
C938 C 0.0936 0.55995 0.90021 0.0
C939 C 0.08269 0.51498 0.8902 0.0
C940 C 0.11501 0.47329 0.89286 0.0
C941 C 0.15832 0.47782 0.90451 0.0
C942 C 0.06191 0.60609 0.89738 0.0
C943 C 0.10412 0.42397 0.88322 0.0
H944 H 0.91228 0.49604 0.87406 0.0
H945 H 0.01405 0.52655 0.82788 0.0
H946 H 0.99812 0.51777 0.91307 0.0
H947 H 0.93855 0.49157 0.90651 0.0
H948 H 0.99399 0.45324 0.90669 0.0
H949 H 0.09834 0.54465 0.83308 0.0
H950 H 0.11367 0.56801 0.85676 0.0
H951 H 0.12477 0.50383 0.85106 0.0
H952 H 0.14421 0.59746 0.91972 0.0
H953 H 0.18392 0.44659 0.90586 0.0
H954 H 0.02265 0.5983 0.90145 0.0
H955 H 0.06197 0.6169 0.88192 0.0
H956 H 0.07545 0.63826 0.90605 0.0
H957 H 0.06492 0.41275 0.88605 0.0
H958 H 0.12943 0.39379 0.88832 0.0
H959 H 0.10839 0.42769 0.86737 0.0
C960 C 0.78821 0.64394 0.84791 0.0
C961 C 0.76916 0.59704 0.85343 0.0
C962 C 0.78313 0.68668 0.8598 0.0
C963 C 0.75728 0.68348 0.87764 0.0
C964 C 0.73592 0.63681 0.88287 0.0
C965 C 0.7427 0.59429 0.87094 0.0
C966 C 0.80751 0.73489 0.85362 0.0
C967 C 0.70674 0.63144 0.90137 0.0
C968 C 0.78659 0.77635 0.91866 0.0
C969 C 0.74879 0.81246 0.91668 0.0
C970 C 0.79034 0.73511 0.90591 0.0
C971 C 0.75433 0.72825 0.89108 0.0
C972 C 0.71558 0.76428 0.88924 0.0
C973 C 0.71368 0.80589 0.90186 0.0
C974 C 0.83301 0.69876 0.90837 0.0
C975 C 0.67535 0.75839 0.87416 0.0
H976 H 0.80943 0.64687 0.83466 0.0
H977 H 0.72793 0.55855 0.87553 0.0
H978 H 0.77957 0.76552 0.85325 0.0
H979 H 0.83651 0.74557 0.86429 0.0
H980 H 0.82523 0.73193 0.83918 0.0
H981 H 0.68837 0.59438 0.90254 0.0
H982 H 0.73207 0.63619 0.9139 0.0
H983 H 0.67774 0.66102 0.90234 0.0
H984 H 0.81364 0.78054 0.93018 0.0
H985 H 0.68322 0.83197 0.90063 0.0
H986 H 0.85394 0.69515 0.89462 0.0
H987 H 0.8183 0.66122 0.91202 0.0
H988 H 0.85935 0.71047 0.91989 0.0
H989 H 0.692 0.76063 0.85954 0.0
H990 H 0.6459 0.7875 0.87539 0.0
H991 H 0.65765 0.72109 0.8755 0.0
C992 C 0.45308 0.52753 0.65222 0.0
C993 C 0.45332 0.49118 0.6668 0.0
C994 C 0.49383 0.53249 0.63931 0.0
C995 C 0.53493 0.49878 0.64035 0.0
C996 C 0.53349 0.46017 0.6544 0.0
C997 C 0.49369 0.45781 0.66771 0.0
C998 C 0.49418 0.57568 0.62533 0.0
C999 C 0.5744 0.42162 0.65602 0.0
C1000 C 0.62836 0.49576 0.59787 0.0
C1001 C 0.66985 0.52077 0.60565 0.0
C1002 C 0.58473 0.48727 0.60902 0.0
C1003 C 0.58117 0.50655 0.62811 0.0
C1004 C 0.62289 0.53223 0.63587 0.0
C1005 C 0.66661 0.53816 0.62476 0.0
C1006 C 0.54289 0.45662 0.60057 0.0
C1007 C 0.62131 0.55405 0.65594 0.0
H1008 H 0.42229 0.55384 0.65158 0.0
H1009 H 0.49422 0.42951 0.67891 0.0
H1010 H 0.52574 0.60093 0.62883 0.0
H1011 H 0.50006 0.56207 0.6104 0.0
H1012 H 0.45891 0.59758 0.62578 0.0
H1013 H 0.558 0.38462 0.6594 0.0
H1014 H 0.5968 0.41798 0.64264 0.0
H1015 H 0.59964 0.43185 0.66808 0.0
H1016 H 0.63027 0.48225 0.58315 0.0
H1017 H 0.69788 0.55841 0.63088 0.0
H1018 H 0.5082 0.47919 0.59976 0.0
H1019 H 0.53503 0.42423 0.6101 0.0
H1020 H 0.55189 0.44256 0.58589 0.0
H1021 H 0.58723 0.57725 0.65778 0.0
H1022 H 0.65454 0.57743 0.65915 0.0
H1023 H 0.61965 0.52342 0.6667 0.0
C1024 C 0.79784 0.19851 0.40023 0.0
C1025 C 0.76049 0.19229 0.41424 0.0
C1026 C 0.79721 0.23961 0.38725 0.0
C1027 C 0.75793 0.27547 0.38803 0.0
C1028 C 0.71961 0.26851 0.40193 0.0
C1029 C 0.72166 0.22767 0.41485 0.0
C1030 C 0.83935 0.24533 0.373 0.0
C1031 C 0.67639 0.30463 0.4033 0.0
C1032 C 0.76952 0.41068 0.36928 0.0
C1033 C 0.74371 0.40907 0.35159 0.0
C1034 C 0.77665 0.3673 0.38071 0.0
C1035 C 0.75673 0.32063 0.3747 0.0
C1036 C 0.73213 0.31843 0.35655 0.0
C1037 C 0.72632 0.36221 0.34525 0.0
C1038 C 0.804 0.37189 0.39967 0.0
C1039 C 0.70949 0.27019 0.34948 0.0
H1040 H 0.82852 0.17227 0.3998 0.0
H1041 H 0.69259 0.22352 0.42561 0.0
H1042 H 0.82437 0.2474 0.3581 0.0
H1043 H 0.85943 0.28082 0.37581 0.0
H1044 H 0.86649 0.21394 0.37381 0.0
H1045 H 0.64837 0.29293 0.41421 0.0
H1046 H 0.69029 0.34231 0.40721 0.0
H1047 H 0.65756 0.30793 0.38909 0.0
H1048 H 0.78315 0.4463 0.37452 0.0
H1049 H 0.7058 0.36001 0.3318 0.0
H1050 H 0.83311 0.34248 0.40085 0.0
H1051 H 0.77746 0.36632 0.41176 0.0
H1052 H 0.82193 0.40902 0.4014 0.0
H1053 H 0.73751 0.23964 0.34997 0.0
H1054 H 0.69494 0.27338 0.33452 0.0
H1055 H 0.67829 0.25929 0.35913 0.0
C1056 C 0.89501 0.46725 0.09567 0.0
C1057 C 0.84815 0.4863 0.10126 0.0
C1058 C 0.93805 0.47331 0.10728 0.0
C1059 C 0.9351 0.49999 0.12495 0.0
C1060 C 0.88855 0.52168 0.13018 0.0
C1061 C 0.84579 0.51412 0.11848 0.0
C1062 C 0.98622 0.44871 0.1011 0.0
C1063 C 0.88342 0.55153 0.14855 0.0
C1064 C 0.02606 0.46734 0.16605 0.0
C1065 C 0.06243 0.50495 0.16473 0.0
C1066 C 0.98527 0.46503 0.15313 0.0
C1067 C 0.97948 0.50188 0.13856 0.0
C1068 C 0.01622 0.53998 0.13711 0.0
C1069 C 0.05731 0.54072 0.15003 0.0
C1070 C 0.94809 0.42304 0.15518 0.0
C1071 C 0.01172 0.58057 0.1221 0.0
H1072 H 0.89773 0.44519 0.0826 0.0
H1073 H 0.81011 0.52904 0.12312 0.0
H1074 H 0.01716 0.47618 0.10119 0.0
H1075 H 0.99615 0.41877 0.1115 0.0
H1076 H 0.98354 0.43201 0.08647 0.0
H1077 H 0.84666 0.57066 0.14957 0.0
H1078 H 0.8876 0.5264 0.16118 0.0
H1079 H 0.9134 0.58001 0.1495 0.0
H1080 H 0.02944 0.43944 0.17732 0.0
H1081 H 0.08463 0.57013 0.14889 0.0
H1082 H 0.94479 0.40242 0.14135 0.0
H1083 H 0.91066 0.43849 0.15861 0.0
H1084 H 0.95875 0.39619 0.1667 0.0
H1085 H 0.01313 0.56398 0.10745 0.0
H1086 H 0.04191 0.6088 0.12335 0.0
H1087 H 0.97514 0.59976 0.12353 0.0
C1088 C 0.73735 0.75711 0.5954 0.0
C1089 C 0.74767 0.70768 0.60099 0.0
C1090 C 0.73287 0.79603 0.60908 0.0
C1091 C 0.74001 0.78605 0.62902 0.0
C1092 C 0.75037 0.73608 0.63476 0.0
C1093 C 0.75351 0.6976 0.62076 0.0
C1094 C 0.72002 0.84797 0.60215 0.0
C1095 C 0.75927 0.72335 0.65568 0.0
C1096 C 0.77245 0.90163 0.65964 0.0
C1097 C 0.72692 0.91253 0.6688 0.0
C1098 C 0.77794 0.85927 0.64757 0.0
C1099 C 0.73632 0.82796 0.64369 0.0
C1100 C 0.69034 0.83871 0.65305 0.0
C1101 C 0.68651 0.88008 0.66568 0.0
C1102 C 0.82817 0.84866 0.6386 0.0
C1103 C 0.64434 0.80798 0.64897 0.0
H1104 H 0.73241 0.76544 0.58022 0.0
H1105 H 0.76075 0.65957 0.62533 0.0
H1106 H 0.68633 0.86192 0.60977 0.0
H1107 H 0.75101 0.87397 0.60553 0.0
H1108 H 0.71293 0.84924 0.58636 0.0
H1109 H 0.76153 0.68239 0.65812 0.0
H1110 H 0.7948 0.74067 0.66045 0.0
H1111 H 0.72916 0.73881 0.6649 0.0
H1112 H 0.8038 0.92657 0.6618 0.0
H1113 H 0.65081 0.88872 0.67227 0.0
H1114 H 0.82618 0.85452 0.62278 0.0
H1115 H 0.8388 0.80905 0.64105 0.0
H1116 H 0.85794 0.87308 0.64454 0.0
H1117 H 0.63431 0.81136 0.63348 0.0
H1118 H 0.61182 0.82 0.65777 0.0
H1119 H 0.6518 0.7679 0.65186 0.0
C1120 C 0.83545 0.01901 0.8948 0.0
C1121 C 0.83731 0.99906 0.91357 0.0
C1122 C 0.87891 0.02337 0.88329 0.0
C1123 C 0.9258 0.00668 0.89044 0.0
C1124 C 0.92823 0.98829 0.90962 0.0
C1125 C 0.88437 0.98505 0.92091 0.0
C1126 C 0.87426 0.04428 0.86315 0.0
C1127 C 0.9769 0.96962 0.91795 0.0
C1128 C 0.02262 0.96264 0.85315 0.0
C1129 C 0.05644 1.00264 0.85245 0.0
C1130 C 0.98081 0.96319 0.86559 0.0
C1131 C 0.97139 1.00534 0.8775 0.0
C1132 C 1.00544 0.04596 0.87683 0.0
C1133 C 0.04743 0.04397 0.86444 0.0
C1134 C 0.94642 0.91858 0.86588 0.0
C1135 C 0.99701 0.09206 0.88894 0.0
H1136 H 0.79966 0.02993 0.88882 0.0
H1137 H 0.88679 0.96919 0.93526 0.0
H1138 H 0.90255 0.0739 0.86077 0.0
H1139 H 0.88155 0.01429 0.85246 0.0
H1140 H 0.83659 0.06012 0.86033 0.0
H1141 H 0.97343 0.95906 0.93339 0.0
H1142 H 0.98975 0.93645 0.90971 0.0
H1143 H 0.00622 0.99862 0.91658 0.0
H1144 H 0.02886 0.93063 0.84387 0.0
H1145 H 0.072 0.07573 0.86363 0.0
H1146 H 0.90848 0.92993 0.86115 0.0
H1147 H 0.94308 0.90393 0.8808 0.0
H1148 H 0.95972 0.88797 0.85634 0.0
H1149 H 0.9596 0.10805 0.88583 0.0
H1150 H 0.02566 0.12122 0.88627 0.0
H1151 H 0.99778 0.08207 0.90446 0.0
C1152 C 0.82525 0.12526 0.16619 0.0
C1153 C 0.78422 0.09382 0.16966 0.0
C1154 C 0.8215 0.16715 0.15377 0.0
C1155 C 0.77514 0.17936 0.14493 0.0
C1156 C 0.73299 0.14921 0.14926 0.0
C1157 C 0.73825 0.10649 0.16116 0.0
C1158 C 0.86799 0.19666 0.14923 0.0
C1159 C 0.68243 0.16115 0.14081 0.0
C1160 C 0.75838 0.30915 0.1212 0.0
C1161 C 0.76231 0.29796 0.10145 0.0
C1162 C 0.76222 0.2713 0.13548 0.0
C1163 C 0.77154 0.22087 0.13004 0.0
C1164 C 0.77693 0.20983 0.11011 0.0
C1165 C 0.77167 0.24808 0.09618 0.0
C1166 C 0.75505 0.28516 0.15639 0.0
C1167 C 0.78838 0.15735 0.10341 0.0
H1168 H 0.86125 0.11532 0.17226 0.0
H1169 H 0.70638 0.08237 0.16356 0.0
H1170 H 0.8775 0.19205 0.13375 0.0
H1171 H 0.86146 0.23706 0.15176 0.0
H1172 H 0.9005 0.18446 0.15802 0.0
H1173 H 0.65237 0.13798 0.14725 0.0
H1174 H 0.67326 0.20118 0.1431 0.0
H1175 H 0.68298 0.1545 0.12502 0.0
H1176 H 0.75187 0.34747 0.12554 0.0
H1177 H 0.77515 0.23878 0.08102 0.0
H1178 H 0.78608 0.2703 0.16531 0.0
H1179 H 0.72006 0.26797 0.16177 0.0
H1180 H 0.75277 0.32624 0.15852 0.0
H1181 H 0.82225 0.14306 0.11084 0.0
H1182 H 0.7945 0.15526 0.08758 0.0
H1183 H 0.75709 0.13213 0.10723 0.0
C1184 C 0.67096 0.9953 0.39566 0.0
C1185 C 0.67075 0.01925 0.41374 0.0
C1186 C 0.6273 0.99179 0.38423 0.0
C1187 C 0.58187 0.01358 0.39067 0.0
C1188 C 0.58101 0.03644 0.40916 0.0
C1189 C 0.62505 0.03866 0.42046 0.0
C1190 C 0.63026 0.96602 0.36489 0.0
C1191 C 0.534 0.06076 0.41667 0.0
C1192 C 0.48937 0.055 0.35127 0.0
C1193 C 0.45296 0.01728 0.35165 0.0
C1194 C 0.53047 0.05478 0.36409 0.0
C1195 C 0.53648 0.01524 0.37757 0.0
C1196 C 0.4997 0.97705 0.37806 0.0
C1197 C 0.45843 0.97878 0.36526 0.0
C1198 C 0.56787 0.09681 0.36304 0.0
C1199 C 0.50436 0.93374 0.39188 0.0
H1200 H 0.70572 0.98013 0.39019 0.0
H1201 H 0.62409 0.05785 0.43422 0.0
H1202 H 0.6 0.93796 0.36354 0.0
H1203 H 0.62487 0.9938 0.35319 0.0
H1204 H 0.66673 0.94705 0.36266 0.0
H1205 H 0.5383 0.07441 0.43171 0.0
H1206 H 0.52391 0.09289 0.40731 0.0
H1207 H 0.50244 0.03403 0.41616 0.0
H1208 H 0.4858 0.08491 0.34081 0.0
H1209 H 0.43147 0.94896 0.3655 0.0
H1210 H 0.60495 0.08186 0.35882 0.0
H1211 H 0.57217 0.11443 0.37744 0.0
H1212 H 0.55678 0.12605 0.35249 0.0
H1213 H 0.54114 0.91518 0.39005 0.0
H1214 H 0.47447 0.90554 0.38975 0.0
H1215 H 0.50244 0.94753 0.40695 0.0
C1216 C 0.22018 0.31575 0.40157 0.0
C1217 C 0.25797 0.32191 0.41542 0.0
C1218 C 0.22109 0.27534 0.38827 0.0
C1219 C 0.26108 0.24022 0.38859 0.0
C1220 C 0.29997 0.24738 0.40223 0.0
C1221 C 0.29766 0.28749 0.41547 0.0
C1222 C 0.17845 0.26944 0.37425 0.0
C1223 C 0.34389 0.21201 0.40312 0.0
C1224 C 0.2495 0.10489 0.37021 0.0
C1225 C 0.2743 0.10639 0.35231 0.0
C1226 C 0.24273 0.14834 0.38159 0.0
C1227 C 0.26194 0.19503 0.37529 0.0
C1228 C 0.28557 0.19713 0.35695 0.0
C1229 C 0.2911 0.1532 0.3457 0.0
C1230 C 0.21649 0.1438 0.40077 0.0
C1231 C 0.30736 0.24545 0.34959 0.0
H1232 H 0.18888 0.34129 0.40157 0.0
H1233 H 0.32712 0.2917 0.42608 0.0
H1234 H 0.19282 0.2687 0.35924 0.0
H1235 H 0.15938 0.23328 0.37684 0.0
H1236 H 0.15058 0.30007 0.37552 0.0
H1237 H 0.37254 0.22421 0.4137 0.0
H1238 H 0.33091 0.17413 0.40721 0.0
H1239 H 0.36166 0.20894 0.3887 0.0
H1240 H 0.23623 0.06932 0.37561 0.0
H1241 H 0.31083 0.15524 0.33208 0.0
H1242 H 0.18693 0.17274 0.40205 0.0
H1243 H 0.24356 0.15018 0.41263 0.0
H1244 H 0.19928 0.10643 0.4028 0.0
H1245 H 0.27915 0.2758 0.3503 0.0
H1246 H 0.32093 0.24219 0.33451 0.0
H1247 H 0.33911 0.25669 0.35892 0.0
C1248 C 0.98623 0.93238 0.16015 0.0
C1249 C 0.94766 0.9673 0.16279 0.0
C1250 C 0.02602 0.94132 0.1472 0.0
C1251 C 0.02906 0.98751 0.13716 0.0
C1252 C 0.98963 0.02269 0.13961 0.0
C1253 C 0.9491 0.01179 0.15207 0.0
C1254 C 0.06555 0.90162 0.14465 0.0
C1255 C 0.99154 0.0731 0.1299 0.0
C1256 C 0.16155 0.03065 0.12375 0.0
C1257 C 0.16321 0.02393 0.10363 0.0
C1258 C 0.11815 0.02007 0.13459 0.0
C1259 C 0.07514 1.00026 0.12538 0.0
C1260 C 0.07692 0.99223 0.1051 0.0
C1261 C 0.12032 1.00516 0.09445 0.0
C1262 C 0.11813 0.03114 0.15595 0.0
C1263 C 0.03308 0.96945 0.09466 0.0
H1264 H 0.98545 0.89793 0.16839 0.0
H1265 H 0.91988 0.03933 0.15423 0.0
H1266 H 0.07284 0.89519 0.12909 0.0
H1267 H 0.10104 0.91422 0.15129 0.0
H1268 H 0.05466 0.8656 0.15141 0.0
H1269 H 0.95744 0.09569 0.1327 0.0
H1270 H 0.02448 0.09411 0.13522 0.0
H1271 H 0.99605 0.06861 0.1141 0.0
H1272 H 0.19391 0.046 0.13103 0.0
H1273 H 0.12093 0.9999 0.07895 0.0
H1274 H 0.11316 0.99606 0.16423 0.0
H1275 H 0.08631 0.05605 0.15958 0.0
H1276 H 0.15328 0.04924 0.16078 0.0
H1277 H 0.02304 0.93324 0.10142 0.0
H1278 H 0.041 0.96305 0.07912 0.0
H1279 H 1.00001 0.99423 0.09588 0.0
C1280 C 0.22275 0.86574 0.84711 0.0
C1281 C 0.23672 0.91281 0.8544 0.0
C1282 C 0.22868 0.82142 0.85808 0.0
C1283 C 0.24983 0.82339 0.87687 0.0
C1284 C 0.26612 0.87045 0.88394 0.0
C1285 C 0.25902 0.91428 0.8728 0.0
C1286 C 0.2101 0.77266 0.84987 0.0
C1287 C 0.28972 0.87485 0.90364 0.0
C1288 C 0.21416 0.72582 0.91521 0.0
C1289 C 0.25537 0.69325 0.91536 0.0
C1290 C 0.21144 0.76706 0.9025 0.0
C1291 C 0.25145 0.77731 0.88967 0.0
C1292 C 0.2931 0.74422 0.88962 0.0
C1293 C 0.2944 0.70261 0.90232 0.0
C1294 C 0.1658 0.80021 0.90305 0.0
C1295 C 0.33698 0.75347 0.87648 0.0
H1296 H 0.20502 0.86366 0.83308 0.0
H1297 H 0.2701 0.95003 0.87874 0.0
H1298 H 0.23986 0.74383 0.85057 0.0
H1299 H 0.17831 0.75893 0.85865 0.0
H1300 H 0.19757 0.77644 0.83466 0.0
H1301 H 0.30476 0.91286 0.90637 0.0
H1302 H 0.26158 0.86628 0.9149 0.0
H1303 H 0.32048 0.8473 0.9052 0.0
H1304 H 0.1838 0.71918 0.92523 0.0
H1305 H 0.3269 0.67868 0.90255 0.0
H1306 H 0.14945 0.80358 0.88839 0.0
H1307 H 0.17647 0.83833 0.90778 0.0
H1308 H 0.13669 0.7858 0.913 0.0
H1309 H 0.32456 0.75298 0.86121 0.0
H1310 H 0.36695 0.72512 0.87836 0.0
H1311 H 0.35281 0.79103 0.87935 0.0
C1312 C 0.55825 0.99616 0.65247 0.0
C1313 C 0.55756 0.03567 0.66579 0.0
C1314 C 0.51718 0.98715 0.64002 0.0
C1315 C 0.47488 0.01947 0.64029 0.0
C1316 C 0.47552 0.06097 0.65307 0.0
C1317 C 0.51608 0.06784 0.66586 0.0
C1318 C 0.51804 0.94151 0.62725 0.0
C1319 C 0.43271 0.09769 0.65358 0.0
C1320 C 0.38019 0.01307 0.59818 0.0
C1321 C 0.34006 0.98696 0.60648 0.0
C1322 C 0.42376 0.02466 0.60898 0.0
C1323 C 0.42862 0.00806 0.6284 0.0
C1324 C 0.38845 0.98096 0.63667 0.0
C1325 C 0.34476 0.97161 0.62582 0.0
C1326 C 0.46444 0.05517 0.59966 0.0
C1327 C 0.39186 0.96091 0.65699 0.0
H1328 H 0.58979 0.9707 0.65247 0.0
H1329 H 0.51523 0.09851 0.67608 0.0
H1330 H 0.4873 0.91598 0.63146 0.0
H1331 H 0.51164 0.95227 0.61201 0.0
H1332 H 0.55397 0.92083 0.62824 0.0
H1333 H 0.44147 0.13115 0.66244 0.0
H1334 H 0.4231 0.11001 0.63875 0.0
H1335 H 0.39915 0.07942 0.65972 0.0
H1336 H 0.3773 0.02505 0.58329 0.0
H1337 H 0.31466 0.9506 0.63238 0.0
H1338 H 0.49949 0.03314 0.59897 0.0
H1339 H 0.47222 0.08884 0.60851 0.0
H1340 H 0.45435 0.06723 0.58482 0.0
H1341 H 0.42588 0.93749 0.65856 0.0
H1342 H 0.35881 0.93814 0.661 0.0
H1343 H 0.39514 0.99224 0.66738 0.0
C1344 C 0.19964 0.0618 0.9939 0.0
C1345 C 0.20045 0.1046 1.00547 0.0
C1346 C 0.19412 0.06571 0.97386 0.0
C1347 C 0.19022 0.11363 0.96532 0.0
C1348 C 0.18861 0.15681 0.97706 0.0
C1349 C 0.19333 0.1517 0.99709 0.0
C1350 C 0.1949 0.01876 0.96178 0.0
C1351 C 0.18494 0.20849 0.96842 0.0
C1352 C 0.23873 0.11981 0.9141 0.0
C1353 C 0.19427 0.11804 0.90356 0.0
C1354 C 0.23783 0.12053 0.93432 0.0
C1355 C 0.19134 0.11853 0.94405 0.0
C1356 C 0.14629 0.11845 0.93341 0.0
C1357 C 0.14832 0.11864 0.91323 0.0
C1358 C 0.28661 0.12153 0.94526 0.0
C1359 C 0.09611 0.11558 0.94327 0.0
H1360 H 0.20509 0.02539 1.00045 0.0
H1361 H 0.19421 0.18485 1.00607 0.0
H1362 H 0.16297 0.01858 0.95157 0.0
H1363 H 0.22963 0.01761 0.95306 0.0
H1364 H 0.19325 0.9844 0.97075 0.0
H1365 H 0.17984 0.23781 0.97959 0.0
H1366 H 0.21956 0.21676 0.96023 0.0
H1367 H 0.15337 0.2106 0.95809 0.0
H1368 H 0.2742 0.11934 0.90656 0.0
H1369 H 0.11387 0.11695 0.90504 0.0
H1370 H 0.29174 0.08578 0.95313 0.0
H1371 H 0.28615 0.1519 0.95615 0.0
H1372 H 0.31918 0.1271 0.93558 0.0
H1373 H 0.09253 0.07905 0.95072 0.0
H1374 H 0.0646 0.11956 0.93294 0.0
H1375 H 0.0928 0.14511 0.95443 0.0
C1376 C 0.65812 0.39427 0.16219 0.0
C1377 C 0.65454 0.43804 0.15118 0.0
C1378 C 0.65996 0.39634 0.18237 0.0
C1379 C 0.6576 0.44332 0.19168 0.0
C1380 C 0.6519 0.4875 0.18063 0.0
C1381 C 0.65073 0.48433 0.16044 0.0
C1382 C 0.66661 0.34845 0.19362 0.0
C1383 C 0.64825 0.53819 0.19011 0.0
C1384 C 0.62223 0.45048 0.24447 0.0
C1385 C 0.66846 0.46045 0.25312 0.0
C1386 C 0.61828 0.44386 0.22449 0.0
C1387 C 0.66177 0.44655 0.21298 0.0
C1388 C 0.70891 0.45438 0.22175 0.0
C1389 C 0.71166 0.46167 0.24178 0.0
C1390 C 0.56739 0.4358 0.21563 0.0
C1391 C 0.75618 0.45646 0.20992 0.0
H1392 H 0.66128 0.35842 0.155 0.0
H1393 H 0.64804 0.51816 0.1519 0.0
H1394 H 0.70527 0.34668 0.19934 0.0
H1395 H 0.64084 0.34714 0.20613 0.0
H1396 H 0.6601 0.31489 0.18454 0.0
H1397 H 0.64135 0.56855 0.1795 0.0
H1398 H 0.61763 0.53837 0.20089 0.0
H1399 H 0.68342 0.54645 0.19794 0.0
H1400 H 0.58875 0.44966 0.25325 0.0
H1401 H 0.74738 0.46938 0.2485 0.0
H1402 H 0.56734 0.40116 0.20685 0.0
H1403 H 0.55833 0.46728 0.20581 0.0
H1404 H 0.53749 0.43297 0.22668 0.0
H1405 H 0.75943 0.42254 0.2008 0.0
H1406 H 0.79012 0.45947 0.21907 0.0
H1407 H 0.75486 0.48916 0.20009 0.0
C1408 C 0.29163 0.86593 0.49439 0.0
C1409 C 0.29235 0.91206 0.50393 0.0
C1410 C 0.29635 0.86327 0.47433 0.0
C1411 C 0.30227 0.90785 0.46367 0.0
C1412 C 0.30508 0.95444 0.4733 0.0
C1413 C 0.29991 0.95602 0.49343 0.0
C1414 C 0.29303 0.81297 0.46452 0.0
C1415 C 0.31191 1.00265 0.46231 0.0
C1416 C 0.34969 0.89876 0.41242 0.0
C1417 C 0.3054 0.9046 0.40189 0.0
C1418 C 0.34927 0.8996 0.4326 0.0
C1419 C 0.30334 0.9058 0.44236 0.0
C1420 C 0.25826 0.91004 0.43178 0.0
C1421 C 0.25989 0.90963 0.41158 0.0
C1422 C 0.39805 0.89525 0.44343 0.0
C1423 C 0.20853 0.91609 0.4418 0.0
H1424 H 0.28577 0.83187 0.50254 0.0
H1425 H 0.30037 0.99165 0.50086 0.0
H1426 H 0.25942 0.81183 0.45517 0.0
H1427 H 0.32596 0.80695 0.4551 0.0
H1428 H 0.29084 0.78168 0.47502 0.0
H1429 H 0.31664 0.03526 0.47205 0.0
H1430 H 0.34501 1.0 0.45274 0.0
H1431 H 0.27893 0.00943 0.45296 0.0
H1432 H 0.38498 0.89523 0.40488 0.0
H1433 H 0.22572 0.91436 0.40338 0.0
H1434 H 0.39662 0.86327 0.45359 0.0
H1435 H 0.40428 0.92945 0.45215 0.0
H1436 H 0.43044 0.89004 0.43362 0.0
H1437 H 0.20244 0.88475 0.45201 0.0
H1438 H 0.17684 0.91728 0.43146 0.0
H1439 H 0.20834 0.95111 0.45036 0.0
C1440 C 0.85804 0.62239 0.66273 0.0
C1441 C 0.863 0.57823 0.65204 0.0
C1442 C 0.85482 0.62112 0.68292 0.0
C1443 C 0.85724 0.57455 0.69256 0.0
C1444 C 0.86473 0.53009 0.68185 0.0
C1445 C 0.86721 0.53246 0.66167 0.0
C1446 C 0.84634 0.66933 0.69375 0.0
C1447 C 0.86876 0.47985 0.69167 0.0
C1448 C 0.88872 0.56785 0.74574 0.0
C1449 C 0.84228 0.55588 0.75382 0.0
C1450 C 0.89389 0.57545 0.72585 0.0
C1451 C 0.85138 0.57185 0.71384 0.0
C1452 C 0.80386 0.56252 0.72206 0.0
C1453 C 0.79992 0.55412 0.74201 0.0
C1454 C 0.94517 0.58514 0.71761 0.0
C1455 C 0.75753 0.55972 0.7097 0.0
H1456 H 0.85465 0.65783 0.65526 0.0
H1457 H 0.87104 0.49829 0.65339 0.0
H1458 H 0.80652 0.67171 0.69808 0.0
H1459 H 0.86916 0.67079 0.7071 0.0
H1460 H 0.85529 0.70251 0.68478 0.0
H1461 H 0.87733 0.44928 0.68134 0.0
H1462 H 0.89841 0.48081 0.70285 0.0
H1463 H 0.83312 0.47101 0.69906 0.0
H1464 H 0.92158 0.5692 0.75487 0.0
H1465 H 0.764 0.54498 0.74828 0.0
H1466 H 0.94478 0.61962 0.70873 0.0
H1467 H 0.95607 0.5538 0.708 0.0
H1468 H 0.97403 0.58914 0.72902 0.0
H1469 H 0.75454 0.59348 0.70047 0.0
H1470 H 0.72298 0.55638 0.71847 0.0
H1471 H 0.75999 0.5269 0.69996 0.0
C1472 C 0.83665 0.91209 0.10508 0.0
C1473 C 0.79119 0.90864 0.115 0.0
C1474 C 0.83779 0.91729 0.08501 0.0
C1475 C 0.79235 0.91784 0.07463 0.0
C1476 C 0.7463 0.91327 0.08455 0.0
C1477 C 0.74625 0.90926 0.10474 0.0
C1478 C 0.88753 0.92304 0.07497 0.0
C1479 C 0.69718 0.91277 0.07384 0.0
C1480 C 0.78553 0.97225 0.02419 0.0
C1481 C 0.78745 0.92885 0.01296 0.0
C1482 C 0.78874 0.96945 0.04437 0.0
C1483 C 0.79304 0.92206 0.05334 0.0
C1484 C 0.79666 0.87835 0.04197 0.0
C1485 C 0.79431 0.88236 0.02187 0.0
C1486 C 0.78598 0.01691 0.0561 0.0
C1487 C 0.8008 0.82717 0.05105 0.0
H1488 H 0.87148 0.91225 0.11306 0.0
H1489 H 0.71118 0.90684 0.11248 0.0
H1490 H 0.89299 0.89231 0.06444 0.0
H1491 H 0.88822 0.95862 0.06675 0.0
H1492 H 0.91938 0.92285 0.08525 0.0
H1493 H 0.66481 0.90782 0.08367 0.0
H1494 H 0.69227 0.94829 0.06581 0.0
H1495 H 0.69704 0.88206 0.06309 0.0
H1496 H 0.78015 0.00817 0.01726 0.0
H1497 H 0.79559 0.84872 0.01317 0.0
H1498 H 0.81765 0.01866 0.06641 0.0
H1499 H 0.75108 0.01728 0.06471 0.0
H1500 H 0.78668 0.05088 0.04689 0.0
H1501 H 0.83348 0.82557 0.06086 0.0
H1502 H 0.8046 0.79705 0.04011 0.0
H1503 H 0.76709 0.81962 0.05988 0.0
C1504 C 0.37314 0.50827 0.85499 0.0
C1505 C 0.37195 0.55305 0.86535 0.0
C1506 C 0.37149 0.50862 0.8348 0.0
C1507 C 0.36759 0.55485 0.82494 0.0
C1508 C 0.36799 0.60023 0.83536 0.0
C1509 C 0.37068 0.59877 0.8555 0.0
C1510 C 0.37216 0.45952 0.82405 0.0
C1511 C 0.36309 0.65013 0.82533 0.0
C1512 C 0.39716 0.55232 0.77169 0.0
C1513 C 0.3497 0.54435 0.76378 0.0
C1514 C 0.40347 0.5574 0.79163 0.0
C1515 C 0.36113 0.55535 0.80376 0.0
C1516 C 0.31276 0.55053 0.79571 0.0
C1517 C 0.30765 0.5446 0.77572 0.0
C1518 C 0.45561 0.562 0.79976 0.0
C1519 C 0.26669 0.54934 0.80825 0.0
H1520 H 0.37406 0.47301 0.86269 0.0
H1521 H 0.36935 0.63345 0.86357 0.0
H1522 H 0.33586 0.45387 0.81666 0.0
H1523 H 0.40156 0.45998 0.81278 0.0
H1524 H 0.37899 0.42724 0.83378 0.0
H1525 H 0.36716 0.682 0.83548 0.0
H1526 H 0.3916 0.65372 0.81382 0.0
H1527 H 0.32593 0.65278 0.81832 0.0
H1528 H 0.42973 0.55197 0.76241 0.0
H1529 H 0.27098 0.53852 0.76952 0.0
H1530 H 0.46488 0.52788 0.80814 0.0
H1531 H 0.45792 0.59414 0.80981 0.0
H1532 H 0.48414 0.56682 0.78828 0.0
H1533 H 0.26674 0.51477 0.81709 0.0
H1534 H 0.23174 0.55034 0.79962 0.0
H1535 H 0.26663 0.5815 0.81836 0.0
C1536 C 0.67594 0.11014 0.6061 0.0
C1537 C 0.71952 0.10447 0.61708 0.0
C1538 C 0.6775 0.10788 0.58592 0.0
C1539 C 0.72384 0.10015 0.57659 0.0
C1540 C 0.76815 0.09556 0.58762 0.0
C1541 C 0.76542 0.09766 0.60781 0.0
C1542 C 0.6295 0.11282 0.57462 0.0
C1543 C 0.81828 0.08765 0.57811 0.0
C1544 C 0.72721 0.04825 0.52565 0.0
C1545 C 0.73611 0.09164 0.51494 0.0
C1546 C 0.72212 0.05053 0.54579 0.0
C1547 C 0.72612 0.09729 0.55525 0.0
C1548 C 0.73375 0.14131 0.54438 0.0
C1549 C 0.73862 0.13792 0.52433 0.0
C1550 C 0.71375 1.00287 0.55698 0.0
C1551 C 0.73816 0.1918 0.55397 0.0
H1552 H 0.64033 0.11506 0.6133 0.0
H1553 H 0.79905 0.09301 0.61634 0.0
H1554 H 0.63216 0.14459 0.56439 0.0
H1555 H 0.6232 0.07859 0.56593 0.0
H1556 H 0.59659 0.11881 0.5841 0.0
H1557 H 0.84925 0.08564 0.58875 0.0
H1558 H 0.81786 0.05248 0.56964 0.0
H1559 H 0.82604 0.11856 0.56788 0.0
H1560 H 0.72543 0.01246 0.51837 0.0
H1561 H 0.74553 0.17154 0.51602 0.0
H1562 H 0.68002 0.00644 0.56617 0.0
H1563 H 0.7459 0.99593 0.56673 0.0
H1564 H 0.70916 0.96995 0.54739 0.0
H1565 H 0.70474 0.19929 0.56298 0.0
H1566 H 0.74223 0.22261 0.54335 0.0
H1567 H 0.77106 0.19212 0.56371 0.0
C1568 C 0.14969 0.52003 0.35813 0.0
C1569 C 0.14413 0.47415 0.36752 0.0
C1570 C 0.15093 0.52241 0.33795 0.0
C1571 C 0.14688 0.47773 0.32712 0.0
C1572 C 0.13975 0.4315 0.33657 0.0
C1573 C 0.13816 0.43032 0.35673 0.0
C1574 C 0.158 0.57243 0.32824 0.0
C1575 C 0.13548 0.38315 0.32545 0.0
C1576 C 0.11135 0.49067 0.27468 0.0
C1577 C 0.15816 0.48886 0.26569 0.0
C1578 C 0.10705 0.48616 0.29469 0.0
C1579 C 0.15065 0.47941 0.30587 0.0
C1580 C 0.19793 0.47584 0.29681 0.0
C1581 C 0.20115 0.48075 0.27671 0.0
C1582 C 0.05607 0.49019 0.3039 0.0
C1583 C 0.24512 0.4682 0.30838 0.0
H1584 H 0.15449 0.55383 0.36654 0.0
H1585 H 0.13414 0.39475 0.36405 0.0
H1586 H 0.19372 0.57258 0.32014 0.0
H1587 H 0.12761 0.57912 0.31766 0.0
H1588 H 0.15845 0.6038 0.33874 0.0
H1589 H 0.12888 0.35054 0.33503 0.0
H1590 H 0.10447 0.38558 0.31488 0.0
H1591 H 0.1703 0.37645 0.31716 0.0
H1592 H 0.07805 0.49695 0.2661 0.0
H1593 H 0.2373 0.47944 0.2697 0.0
H1594 H 0.05472 0.52348 0.31343 0.0
H1595 H 0.04875 0.45701 0.31305 0.0
H1596 H 0.02571 0.49344 0.29304 0.0
H1597 H 0.25119 0.50071 0.31803 0.0
H1598 H 0.27853 0.46363 0.29905 0.0
H1599 H 0.24154 0.43466 0.31769 0.0
C1600 C 0.64899 0.60197 0.41283 0.0
C1601 C 0.69363 0.60336 0.40233 0.0
C1602 C 0.64942 0.60021 0.43304 0.0
C1603 C 0.69568 0.60073 0.4429 0.0
C1604 C 0.74083 0.60447 0.43235 0.0
C1605 C 0.73927 0.60532 0.41212 0.0
C1606 C 0.6005 0.5955 0.44371 0.0
C1607 C 0.79081 0.60649 0.44242 0.0
C1608 C 0.69951 0.63684 0.4957 0.0
C1609 C 0.70806 0.59053 0.50456 0.0
C1610 C 0.69456 0.64061 0.47564 0.0
C1611 C 0.69711 0.59684 0.46425 0.0
C1612 C 0.70312 0.54964 0.47323 0.0
C1613 C 0.70917 0.54709 0.49334 0.0
C1614 C 0.68861 0.69161 0.46657 0.0
C1615 C 0.7046 0.50205 0.46155 0.0
H1616 H 0.61364 0.60049 0.40524 0.0
H1617 H 0.77379 0.60644 0.40397 0.0
H1618 H 0.59645 0.5566 0.44902 0.0
H1619 H 0.59941 0.62055 0.45644 0.0
H1620 H 0.56803 0.60429 0.43432 0.0
H1621 H 0.82215 0.61226 0.43217 0.0
H1622 H 0.79108 0.63723 0.45317 0.0
H1623 H 0.79741 0.57112 0.45038 0.0
H1624 H 0.6989 0.67054 0.50437 0.0
H1625 H 0.71578 0.5113 0.50022 0.0
H1626 H 0.65463 0.69264 0.45742 0.0
H1627 H 0.72099 0.69942 0.45705 0.0
H1628 H 0.68591 0.72182 0.47751 0.0
H1629 H 0.67139 0.4999 0.45201 0.0
H1630 H 0.70566 0.4682 0.47082 0.0
H1631 H 0.7381 0.50193 0.45215 0.0
C1632 C 0.13256 0.90446 0.66302 0.0
C1633 C 0.13771 0.94822 0.65212 0.0
C1634 C 0.13479 0.90592 0.68319 0.0
C1635 C 0.14191 0.95233 0.69254 0.0
C1636 C 0.145 0.9969 0.6816 0.0
C1637 C 0.14296 0.99426 0.66145 0.0
C1638 C 0.13133 0.85771 0.69443 0.0
C1639 C 0.15209 0.04713 0.69115 0.0
C1640 C 0.10901 0.96922 0.74506 0.0
C1641 C 0.1563 0.9689 0.75371 0.0
C1642 C 0.10362 0.96215 0.72519 0.0
C1643 C 0.14665 0.95455 0.71378 0.0
C1644 C 0.19442 0.95216 0.72255 0.0
C1645 C 0.1987 0.95943 0.74252 0.0
C1646 C 0.05213 0.96491 0.71633 0.0
C1647 C 0.24106 0.94385 0.71073 0.0
H1648 H 0.1288 0.86879 0.65575 0.0
H1649 H 0.14713 0.02805 0.65297 0.0
H1650 H 0.16673 0.85115 0.70237 0.0
H1651 H 0.10108 0.86025 0.70532 0.0
H1652 H 0.12408 0.82501 0.68497 0.0
H1653 H 0.15195 0.07834 0.68058 0.0
H1654 H 0.12205 0.0538 0.70187 0.0
H1655 H 0.18811 0.04765 0.69907 0.0
H1656 H 0.07613 0.9764 0.75376 0.0
H1657 H 0.23523 0.95924 0.74927 0.0
H1658 H 0.04508 0.93154 0.70725 0.0
H1659 H 0.04958 0.99813 0.7068 0.0
H1660 H 0.02226 0.96756 0.7274 0.0
H1661 H 0.23692 0.91009 0.70159 0.0
H1662 H 0.27481 0.93938 0.7199 0.0
H1663 H 0.2469 0.97608 0.70092 0.0
C1664 C 0.7768 0.39616 0.91091 0.0
C1665 C 0.82261 0.39966 0.90131 0.0
C1666 C 0.77474 0.3956 0.93112 0.0
C1667 C 0.81957 0.39924 0.94189 0.0
C1668 C 0.86606 0.40111 0.93221 0.0
C1669 C 0.867 0.40094 0.91199 0.0
C1670 C 0.7245 0.39264 0.94094 0.0
C1671 C 0.9146 0.40553 0.94316 0.0
C1672 C 0.80323 0.45151 0.99235 0.0
C1673 C 0.80282 0.40776 1.0034 0.0
C1674 C 0.8108 0.44947 0.97233 0.0
C1675 C 0.81739 0.40249 0.96325 0.0
C1676 C 0.81883 0.3584 0.97449 0.0
C1677 C 0.81182 0.36163 0.99449 0.0
C1678 C 0.80989 0.49736 0.96081 0.0
C1679 C 0.8255 0.30766 0.96531 0.0
H1680 H 0.74247 0.39515 0.90262 0.0
H1681 H 0.90247 0.4036 0.90453 0.0
H1682 H 0.7242 0.36145 0.95149 0.0
H1683 H 0.71736 0.42762 0.94909 0.0
H1684 H 0.69351 0.38703 0.93051 0.0
H1685 H 0.94759 0.40046 0.93365 0.0
H1686 H 0.91684 0.44305 0.94991 0.0
H1687 H 0.91643 0.37754 0.95495 0.0
H1688 H 0.7963 0.48719 0.99927 0.0
H1689 H 0.8114 0.32771 1.00304 0.0
H1690 H 0.7767 0.49777 0.95123 0.0
H1691 H 0.84342 0.49973 0.95146 0.0
H1692 H 0.80853 0.53098 0.9702 0.0
H1693 H 0.7931 0.29948 0.95584 0.0
H1694 H 0.82878 0.27735 0.97619 0.0
H1695 H 0.85935 0.30724 0.95609 0.0
C1696 C 0.39845 0.0523 0.24308 0.0
C1697 C 0.35164 0.04924 0.25201 0.0
C1698 C 0.40244 0.06004 0.22318 0.0
C1699 C 0.35849 0.06452 0.21201 0.0
C1700 C 0.3111 0.06355 0.22108 0.0
C1701 C 0.30823 0.05598 0.24108 0.0
C1702 C 0.45358 0.06127 0.21401 0.0
C1703 C 0.26346 0.0683 0.20956 0.0
C1704 C 0.36577 0.11333 0.16077 0.0
C1705 C 0.36358 0.06878 0.1502 0.0
C1706 C 0.36492 0.11264 0.18098 0.0
C1707 C 0.36204 0.06625 0.1907 0.0
C1708 C 0.36174 0.02109 0.18006 0.0
C1709 C 0.36247 0.02293 0.15987 0.0
C1710 C 0.36523 0.1615 0.19187 0.0
C1711 C 0.35906 0.97088 0.18997 0.0
H1712 H 0.43208 0.04734 0.25159 0.0
H1713 H 0.27206 0.05359 0.24803 0.0
H1714 H 0.45845 0.0281 0.20459 0.0
H1715 H 0.45747 0.09488 0.20477 0.0
H1716 H 0.484 0.06137 0.22491 0.0
H1717 H 0.22991 0.07066 0.21894 0.0
H1718 H 0.26478 0.102 0.20025 0.0
H1719 H 0.25942 0.03545 0.19992 0.0
H1720 H 0.36635 0.14884 0.15323 0.0
H1721 H 0.36061 0.98851 0.15166 0.0
H1722 H 0.39438 0.16096 0.20324 0.0
H1723 H 0.32874 0.16689 0.19915 0.0
H1724 H 0.37197 0.19397 0.18223 0.0
H1725 H 0.39026 0.96691 0.2004 0.0
H1726 H 0.36077 0.9393 0.17959 0.0
H1727 H 0.32376 0.96806 0.19827 0.0
C1728 C 0.26308 0.39462 0.60846 0.0
C1729 C 0.30932 0.39216 0.61779 0.0
C1730 C 0.26041 0.39676 0.58831 0.0
C1731 C 0.30512 0.39628 0.57741 0.0
C1732 C 0.35182 0.39178 0.58677 0.0
C1733 C 0.35336 0.38974 0.60694 0.0
C1734 C 0.20992 0.40141 0.57873 0.0
C1735 C 0.40016 0.39093 0.57555 0.0
C1736 C 0.28994 0.36482 0.52469 0.0
C1737 C 0.28823 0.4125 0.51639 0.0
C1738 C 0.2973 0.35887 0.54452 0.0
C1739 C 0.30276 0.40173 0.55623 0.0
C1740 C 0.30299 0.44996 0.5478 0.0
C1741 C 0.29581 0.45478 0.52785 0.0
C1742 C 0.29722 0.3069 0.55304 0.0
C1743 C 0.30874 0.49646 0.55994 0.0
H1744 H 0.2291 0.39671 0.61692 0.0
H1745 H 0.38916 0.38801 0.61422 0.0
H1746 H 0.20741 0.43758 0.57096 0.0
H1747 H 0.20501 0.37132 0.5679 0.0
H1748 H 0.17874 0.39937 0.58927 0.0
H1749 H 0.43314 0.38482 0.585 0.0
H1750 H 0.39915 0.36098 0.56449 0.0
H1751 H 0.40502 0.4269 0.56783 0.0
H1752 H 0.28426 0.33208 0.51575 0.0
H1753 H 0.29439 0.49161 0.52136 0.0
H1754 H 0.26406 0.30224 0.56246 0.0
H1755 H 0.33078 0.30116 0.56217 0.0
H1756 H 0.29636 0.27742 0.54176 0.0
H1757 H 0.27629 0.50017 0.56979 0.0
H1758 H 0.31129 0.53084 0.55101 0.0
H1759 H 0.34269 0.49367 0.56905 0.0
C1760 C 0.87514 0.99555 0.35506 0.0
C1761 C 0.88015 0.0413 0.3646 0.0
C1762 C 0.87765 0.99306 0.33489 0.0
C1763 C 0.88521 0.03747 0.32416 0.0
C1764 C 0.89276 0.08337 0.33383 0.0
C1765 C 0.89019 0.08471 0.35401 0.0
C1766 C 0.86966 0.94337 0.32503 0.0
C1767 C 0.90087 0.13143 0.32286 0.0
C1768 C 0.91724 0.0199 0.27138 0.0
C1769 C 0.86985 0.02294 0.2629 0.0
C1770 C 0.92328 0.02646 0.29131 0.0
C1771 C 0.88085 0.03628 0.30287 0.0
C1772 C 0.83328 0.04177 0.29419 0.0
C1773 C 0.82837 0.03497 0.27426 0.0
C1774 C 0.97455 0.02059 0.3001 0.0
C1775 C 0.78721 0.05257 0.30606 0.0
H1776 H 0.86741 0.96201 0.36329 0.0
H1777 H 0.89406 0.12016 0.36143 0.0
H1778 H 0.83399 0.94422 0.31688 0.0
H1779 H 0.89997 0.9361 0.3145 0.0
H1780 H 0.8683 0.91188 0.33546 0.0
H1781 H 0.91095 0.16292 0.33255 0.0
H1782 H 0.93084 0.12663 0.31198 0.0
H1783 H 0.86623 0.14155 0.31498 0.0
H1784 H 0.94933 0.01056 0.26255 0.0
H1785 H 0.79172 0.03738 0.26766 0.0
H1786 H 0.97559 0.98632 0.3091 0.0
H1787 H 0.98304 0.05264 0.3097 0.0
H1788 H 1.00423 0.01777 0.28896 0.0
H1789 H 0.77952 0.02055 0.31578 0.0
H1790 H 0.75372 0.05916 0.29694 0.0
H1791 H 0.79328 0.08589 0.31529 0.0
C1792 C 0.16708 0.63329 0.10501 0.0
C1793 C 0.21041 0.62749 0.11611 0.0
C1794 C 0.16887 0.62941 0.08492 0.0
C1795 C 0.21521 0.62007 0.07586 0.0
C1796 C 0.25947 0.61652 0.08696 0.0
C1797 C 0.2565 0.62017 0.10707 0.0
C1798 C 0.121 0.6334 0.07348 0.0
C1799 C 0.30962 0.60717 0.07765 0.0
C1800 C 0.21949 0.55925 0.02662 0.0
C1801 C 0.2294 0.6006 0.01493 0.0
C1802 C 0.21342 0.56519 0.04657 0.0
C1803 C 0.2175 0.61353 0.05475 0.0
C1804 C 0.22573 0.65552 0.04285 0.0
C1805 C 0.23153 0.6485 0.02303 0.0
C1806 C 0.20427 0.51971 0.05896 0.0
C1807 C 0.23022 0.70757 0.05112 0.0
H1808 H 0.13138 0.63878 0.11207 0.0
H1809 H 0.2899 0.6155 0.11574 0.0
H1810 H 0.12448 0.66274 0.06226 0.0
H1811 H 0.11369 0.59758 0.06594 0.0
H1812 H 0.08832 0.64232 0.08274 0.0
H1813 H 0.34064 0.60746 0.0883 0.0
H1814 H 0.30938 0.5704 0.07026 0.0
H1815 H 0.31714 0.63599 0.06653 0.0
H1816 H 0.21795 0.52226 0.02027 0.0
H1817 H 0.23907 0.68054 0.01391 0.0
H1818 H 0.17056 0.52536 0.06801 0.0
H1819 H 0.2363 0.51398 0.06888 0.0
H1820 H 0.19922 0.48528 0.05023 0.0
H1821 H 0.19698 0.71661 0.06001 0.0
H1822 H 0.23409 0.73648 0.03971 0.0
H1823 H 0.26331 0.70957 0.06072 0.0
C1824 C 0.63482 1.00351 0.85624 0.0
C1825 C 0.63301 0.9577 0.86593 0.0
C1826 C 0.63345 1.00532 0.83604 0.0
C1827 C 0.63044 0.96019 0.82541 0.0
C1828 C 0.6263 0.91402 0.8352 0.0
C1829 C 0.62748 0.91337 0.8554 0.0
C1830 C 0.63761 0.05531 0.82605 0.0
C1831 C 0.62319 0.86517 0.82437 0.0
C1832 C 0.59825 0.97277 0.77241 0.0
C1833 C 0.64588 0.97373 0.76408 0.0
C1834 C 0.59241 0.96664 0.79237 0.0
C1835 C 0.63528 0.96126 0.80412 0.0
C1836 C 0.68333 0.95977 0.79562 0.0
C1837 C 0.68805 0.96612 0.77564 0.0
C1838 C 0.54064 0.96825 0.80096 0.0
C1839 C 0.72991 0.95368 0.8077 0.0
H1840 H 0.63915 0.03776 0.86442 0.0
H1841 H 0.62614 0.87788 0.86292 0.0
H1842 H 0.67356 0.05736 0.81814 0.0
H1843 H 0.60725 0.05971 0.81529 0.0
H1844 H 0.6358 0.08703 0.83637 0.0
H1845 H 0.61607 0.83299 0.83411 0.0
H1846 H 0.59311 0.8668 0.81338 0.0
H1847 H 0.65879 0.85836 0.81661 0.0
H1848 H 0.56561 0.97874 0.76343 0.0
H1849 H 0.72489 0.96687 0.76916 0.0
H1850 H 0.53647 1.00244 0.80987 0.0
H1851 H 0.5347 0.93573 0.81061 0.0
H1852 H 0.51106 0.96836 0.78971 0.0
H1853 H 0.73444 0.98664 0.81725 0.0
H1854 H 0.76406 0.9498 0.79873 0.0
H1855 H 0.72666 0.92031 0.81711 0.0
loop_
_geom_bond_atom_site_label_1
_geom_bond_atom_site_label_2
_geom_bond_distance
_geom_bond_site_symmetry_2
_ccdc_geom_bond_type
Tb0 O3 2.453 . S
Tb0 O4 2.596 . S
Tb0 O5 2.374 . S
Tb0 O13 2.343 . S
Tb0 O15 2.353 . S
Tb0 O17 2.427 . S
Tb0 O18 2.513 . S
C1 O5 1.251 . S
C1 O7 1.263 . S
Tb2 O4 2.343 . S
Tb2 O7 2.353 . S
Tb2 O10 2.427 . S
Tb2 O11 2.513 . S
Tb2 O12 2.453 . S
Tb2 O13 2.596 . S
Tb2 O14 2.374 . S
O3 Tb0 2.453 . S
O3 C19 1.245 . S
O4 Tb0 2.596 . S
O4 Tb2 2.343 . S
O4 C19 1.259 . S
O5 Tb0 2.374 . S
O5 C1 1.251 . S
C6 O10 1.275 . S
C6 O11 1.246 . S
O7 C1 1.263 . S
O7 Tb2 2.353 . S
C8 O12 1.245 . S
C8 O13 1.259 . S
C9 O14 1.250 . S
C9 O15 1.263 . S
O10 Tb2 2.427 . S
O10 C6 1.275 . S
O11 Tb2 2.513 . S
O11 C6 1.246 . S
O12 Tb2 2.453 . S
O12 C8 1.245 . S
O13 Tb0 2.343 . S
O13 Tb2 2.596 . S
O13 C8 1.259 . S
O14 Tb2 2.374 . S
O14 C9 1.250 . S
O15 Tb0 2.353 . S
O15 C9 1.263 . S
C16 O17 1.275 . S
C16 O18 1.246 . S
O17 Tb0 2.427 . S
O17 C16 1.275 . S
O18 Tb0 2.513 . S
O18 C16 1.246 . S
C19 O3 1.245 . S
C19 O4 1.259 . S
Tb20 O23 2.453 . S
Tb20 O24 2.596 . S
Tb20 O25 2.374 . S
Tb20 O33 2.343 . S
Tb20 O35 2.353 . S
Tb20 O37 2.427 . S
Tb20 O38 2.513 . S
C21 O25 1.251 . S
C21 O27 1.263 . S
Tb22 O24 2.343 . S
Tb22 O27 2.353 . S
Tb22 O30 2.427 . S
Tb22 O31 2.513 . S
Tb22 O32 2.453 . S
Tb22 O33 2.596 . S
Tb22 O34 2.374 . S
O23 Tb20 2.453 . S
O23 C39 1.245 . S
O24 Tb20 2.596 . S
O24 Tb22 2.343 . S
O24 C39 1.259 . S
O25 Tb20 2.374 . S
O25 C21 1.251 . S
C26 O30 1.275 . S
C26 O31 1.246 . S
O27 C21 1.263 . S
O27 Tb22 2.353 . S
C28 O32 1.245 . S
C28 O33 1.259 . S
C29 O34 1.250 . S
C29 O35 1.263 . S
O30 Tb22 2.427 . S
O30 C26 1.275 . S
O31 Tb22 2.513 . S
O31 C26 1.246 . S
O32 Tb22 2.453 . S
O32 C28 1.245 . S
O33 Tb20 2.343 . S
O33 Tb22 2.596 . S
O33 C28 1.259 . S
O34 Tb22 2.374 . S
O34 C29 1.250 . S
O35 Tb20 2.353 . S
O35 C29 1.263 . S
C36 O37 1.275 . S
C36 O38 1.246 . S
O37 Tb20 2.427 . S
O37 C36 1.275 . S
O38 Tb20 2.513 . S
O38 C36 1.246 . S
C39 O23 1.245 . S
C39 O24 1.259 . S
Tb40 O43 2.453 . S
Tb40 O44 2.596 . S
Tb40 O45 2.374 . S
Tb40 O53 2.343 . S
Tb40 O55 2.353 . S
Tb40 O57 2.427 . S
Tb40 O58 2.513 . S
C41 O45 1.251 . S
C41 O47 1.263 . S
Tb42 O44 2.343 . S
Tb42 O47 2.353 . S
Tb42 O50 2.427 . S
Tb42 O51 2.513 . S
Tb42 O52 2.453 . S
Tb42 O53 2.596 . S
Tb42 O54 2.374 . S
O43 Tb40 2.453 . S
O43 C59 1.245 . S
O44 Tb40 2.596 . S
O44 Tb42 2.343 . S
O44 C59 1.259 . S
O45 Tb40 2.374 . S
O45 C41 1.251 . S
C46 O50 1.275 . S
C46 O51 1.246 . S
O47 C41 1.263 . S
O47 Tb42 2.353 . S
C48 O52 1.245 . S
C48 O53 1.259 . S
C49 O54 1.250 . S
C49 O55 1.263 . S
O50 Tb42 2.427 . S
O50 C46 1.275 . S
O51 Tb42 2.513 . S
O51 C46 1.246 . S
O52 Tb42 2.453 . S
O52 C48 1.245 . S
O53 Tb40 2.343 . S
O53 Tb42 2.596 . S
O53 C48 1.259 . S
O54 Tb42 2.374 . S
O54 C49 1.250 . S
O55 Tb40 2.353 . S
O55 C49 1.263 . S
C56 O57 1.275 . S
C56 O58 1.246 . S
O57 Tb40 2.427 . S
O57 C56 1.275 . S
O58 Tb40 2.513 . S
O58 C56 1.246 . S
C59 O43 1.245 . S
C59 O44 1.259 . S
Tb60 O63 2.453 . S
Tb60 O64 2.596 . S
Tb60 O65 2.374 . S
Tb60 O73 2.343 . S
Tb60 O75 2.353 . S
Tb60 O77 2.427 . S
Tb60 O78 2.513 . S
C61 O65 1.251 . S
C61 O67 1.263 . S
Tb62 O64 2.343 . S
Tb62 O67 2.353 . S
Tb62 O70 2.427 . S
Tb62 O71 2.513 . S
Tb62 O72 2.453 . S
Tb62 O73 2.596 . S
Tb62 O74 2.374 . S
O63 Tb60 2.453 . S
O63 C79 1.245 . S
O64 Tb60 2.596 . S
O64 Tb62 2.343 . S
O64 C79 1.259 . S
O65 Tb60 2.374 . S
O65 C61 1.251 . S
C66 O70 1.275 . S
C66 O71 1.246 . S
O67 C61 1.263 . S
O67 Tb62 2.353 . S
C68 O72 1.245 . S
C68 O73 1.259 . S
C69 O74 1.250 . S
C69 O75 1.263 . S
O70 Tb62 2.427 . S
O70 C66 1.275 . S
O71 Tb62 2.513 . S
O71 C66 1.246 . S
O72 Tb62 2.453 . S
O72 C68 1.245 . S
O73 Tb60 2.343 . S
O73 Tb62 2.596 . S
O73 C68 1.259 . S
O74 Tb62 2.374 . S
O74 C69 1.250 . S
O75 Tb60 2.353 . S
O75 C69 1.263 . S
C76 O77 1.275 . S
C76 O78 1.246 . S
O77 Tb60 2.427 . S
O77 C76 1.275 . S
O78 Tb60 2.513 . S
O78 C76 1.246 . S
C79 O63 1.245 . S
C79 O64 1.259 . S
Tb80 O83 2.453 . S
Tb80 O84 2.596 . S
Tb80 O85 2.374 . S
Tb80 O93 2.343 . S
Tb80 O95 2.353 . S
Tb80 O97 2.427 . S
Tb80 O98 2.513 . S
C81 O85 1.251 . S
C81 O87 1.263 . S
Tb82 O84 2.343 . S
Tb82 O87 2.353 . S
Tb82 O90 2.427 . S
Tb82 O91 2.513 . S
Tb82 O92 2.453 . S
Tb82 O93 2.596 . S
Tb82 O94 2.374 . S
O83 Tb80 2.453 . S
O83 C99 1.245 . S
O84 Tb80 2.596 . S
O84 Tb82 2.343 . S
O84 C99 1.259 . S
O85 Tb80 2.374 . S
O85 C81 1.251 . S
C86 O90 1.275 . S
C86 O91 1.246 . S
O87 C81 1.263 . S
O87 Tb82 2.353 . S
C88 O92 1.245 . S
C88 O93 1.259 . S
C89 O94 1.250 . S
C89 O95 1.263 . S
O90 Tb82 2.427 . S
O90 C86 1.275 . S
O91 Tb82 2.513 . S
O91 C86 1.246 . S
O92 Tb82 2.453 . S
O92 C88 1.245 . S
O93 Tb80 2.343 . S
O93 Tb82 2.596 . S
O93 C88 1.259 . S
O94 Tb82 2.374 . S
O94 C89 1.250 . S
O95 Tb80 2.353 . S
O95 C89 1.263 . S
C96 O97 1.275 . S
C96 O98 1.246 . S
O97 Tb80 2.427 . S
O97 C96 1.275 . S
O98 Tb80 2.513 . S
O98 C96 1.246 . S
C99 O83 1.245 . S
C99 O84 1.259 . S
Tb100 O103 2.453 . S
Tb100 O104 2.596 . S
Tb100 O105 2.374 . S
Tb100 O113 2.343 . S
Tb100 O115 2.353 . S
Tb100 O117 2.427 . S
Tb100 O118 2.513 . S
C101 O105 1.251 . S
C101 O107 1.263 . S
Tb102 O104 2.343 . S
Tb102 O107 2.353 . S
Tb102 O110 2.427 . S
Tb102 O111 2.513 . S
Tb102 O112 2.453 . S
Tb102 O113 2.596 . S
Tb102 O114 2.374 . S
O103 Tb100 2.453 . S
O103 C119 1.245 . S
O104 Tb100 2.596 . S
O104 Tb102 2.343 . S
O104 C119 1.259 . S
O105 Tb100 2.374 . S
O105 C101 1.251 . S
C106 O110 1.275 . S
C106 O111 1.246 . S
O107 C101 1.263 . S
O107 Tb102 2.353 . S
C108 O112 1.245 . S
C108 O113 1.259 . S
C109 O114 1.250 . S
C109 O115 1.263 . S
O110 Tb102 2.427 . S
O110 C106 1.275 . S
O111 Tb102 2.513 . S
O111 C106 1.246 . S
O112 Tb102 2.453 . S
O112 C108 1.245 . S
O113 Tb100 2.343 . S
O113 Tb102 2.596 . S
O113 C108 1.259 . S
O114 Tb102 2.374 . S
O114 C109 1.250 . S
O115 Tb100 2.353 . S
O115 C109 1.263 . S
C116 O117 1.275 . S
C116 O118 1.246 . S
O117 Tb100 2.427 . S
O117 C116 1.275 . S
O118 Tb100 2.513 . S
O118 C116 1.246 . S
C119 O103 1.245 . S
C119 O104 1.259 . S
Tb120 O123 2.453 . S
Tb120 O124 2.596 . S
Tb120 O125 2.374 . S
Tb120 O133 2.343 . S
Tb120 O135 2.353 . S
Tb120 O137 2.427 . S
Tb120 O138 2.513 . S
C121 O125 1.251 . S
C121 O127 1.263 . S
Tb122 O124 2.343 . S
Tb122 O127 2.353 . S
Tb122 O130 2.427 . S
Tb122 O131 2.513 . S
Tb122 O132 2.453 . S
Tb122 O133 2.596 . S
Tb122 O134 2.374 . S
O123 Tb120 2.453 . S
O123 C139 1.245 . S
O124 Tb120 2.596 . S
O124 Tb122 2.343 . S
O124 C139 1.259 . S
O125 Tb120 2.374 . S
O125 C121 1.251 . S
C126 O130 1.275 . S
C126 O131 1.246 . S
O127 C121 1.263 . S
O127 Tb122 2.353 . S
C128 O132 1.245 . S
C128 O133 1.259 . S
C129 O134 1.250 . S
C129 O135 1.263 . S
O130 Tb122 2.427 . S
O130 C126 1.275 . S
O131 Tb122 2.513 . S
O131 C126 1.246 . S
O132 Tb122 2.453 . S
O132 C128 1.245 . S
O133 Tb120 2.343 . S
O133 Tb122 2.596 . S
O133 C128 1.259 . S
O134 Tb122 2.374 . S
O134 C129 1.250 . S
O135 Tb120 2.353 . S
O135 C129 1.263 . S
C136 O137 1.275 . S
C136 O138 1.246 . S
O137 Tb120 2.427 . S
O137 C136 1.275 . S
O138 Tb120 2.513 . S
O138 C136 1.246 . S
C139 O123 1.245 . S
C139 O124 1.259 . S
Tb140 O143 2.453 . S
Tb140 O144 2.596 . S
Tb140 O145 2.374 . S
Tb140 O153 2.343 . S
Tb140 O155 2.353 . S
Tb140 O157 2.427 . S
Tb140 O158 2.513 . S
C141 O145 1.251 . S
C141 O147 1.263 . S
Tb142 O144 2.343 . S
Tb142 O147 2.353 . S
Tb142 O150 2.427 . S
Tb142 O151 2.513 . S
Tb142 O152 2.453 . S
Tb142 O153 2.596 . S
Tb142 O154 2.374 . S
O143 Tb140 2.453 . S
O143 C159 1.245 . S
O144 Tb140 2.596 . S
O144 Tb142 2.343 . S
O144 C159 1.259 . S
O145 Tb140 2.374 . S
O145 C141 1.251 . S
C146 O150 1.275 . S
C146 O151 1.246 . S
O147 C141 1.263 . S
O147 Tb142 2.353 . S
C148 O152 1.245 . S
C148 O153 1.259 . S
C149 O154 1.250 . S
C149 O155 1.263 . S
O150 Tb142 2.427 . S
O150 C146 1.275 . S
O151 Tb142 2.513 . S
O151 C146 1.246 . S
O152 Tb142 2.453 . S
O152 C148 1.245 . S
O153 Tb140 2.343 . S
O153 Tb142 2.596 . S
O153 C148 1.259 . S
O154 Tb142 2.374 . S
O154 C149 1.250 . S
O155 Tb140 2.353 . S
O155 C149 1.263 . S
C156 O157 1.275 . S
C156 O158 1.246 . S
O157 Tb140 2.427 . S
O157 C156 1.275 . S
O158 Tb140 2.513 . S
O158 C156 1.246 . S
C159 O143 1.245 . S
C159 O144 1.259 . S
Tb160 O163 2.453 . S
Tb160 O164 2.596 . S
Tb160 O165 2.374 . S
Tb160 O173 2.343 . S
Tb160 O175 2.353 . S
Tb160 O177 2.427 . S
Tb160 O178 2.513 . S
C161 O165 1.251 . S
C161 O167 1.263 . S
Tb162 O164 2.343 . S
Tb162 O167 2.353 . S
Tb162 O170 2.427 . S
Tb162 O171 2.513 . S
Tb162 O172 2.453 . S
Tb162 O173 2.596 . S
Tb162 O174 2.374 . S
O163 Tb160 2.453 . S
O163 C179 1.245 . S
O164 Tb160 2.596 . S
O164 Tb162 2.343 . S
O164 C179 1.259 . S
O165 Tb160 2.374 . S
O165 C161 1.251 . S
C166 O170 1.275 . S
C166 O171 1.246 . S
O167 C161 1.263 . S
O167 Tb162 2.353 . S
C168 O172 1.245 . S
C168 O173 1.259 . S
C169 O174 1.250 . S
C169 O175 1.263 . S
O170 Tb162 2.427 . S
O170 C166 1.275 . S
O171 Tb162 2.513 . S
O171 C166 1.246 . S
O172 Tb162 2.453 . S
O172 C168 1.245 . S
O173 Tb160 2.343 . S
O173 Tb162 2.596 . S
O173 C168 1.259 . S
O174 Tb162 2.374 . S
O174 C169 1.250 . S
O175 Tb160 2.353 . S
O175 C169 1.263 . S
C176 O177 1.275 . S
C176 O178 1.246 . S
O177 Tb160 2.427 . S
O177 C176 1.275 . S
O178 Tb160 2.513 . S
O178 C176 1.246 . S
C179 O163 1.245 . S
C179 O164 1.259 . S
Tb180 O183 2.453 . S
Tb180 O184 2.596 . S
Tb180 O185 2.374 . S
Tb180 O193 2.343 . S
Tb180 O195 2.365 . S
Tb180 O197 2.427 . S
Tb180 O198 2.513 . S
C181 O185 1.251 . S
C181 O187 1.263 . S
Tb182 O184 2.343 . S
Tb182 O187 2.353 . S
Tb182 O190 2.427 . S
Tb182 O191 2.513 1_545 S
Tb182 O192 2.453 1_545 S
Tb182 O193 2.596 . S
Tb182 O194 2.374 1_545 S
O183 Tb180 2.453 . S
O183 C199 1.245 . S
O184 Tb180 2.596 . S
O184 Tb182 2.343 . S
O184 C199 1.259 . S
O185 Tb180 2.374 . S
O185 C181 1.251 . S
C186 O190 1.275 . S
C186 O191 1.246 1_545 S
O187 C181 1.263 . S
O187 Tb182 2.353 . S
C188 O192 1.245 1_545 S
C188 O193 1.259 . S
C189 O194 1.250 . S
C189 O195 1.252 1_565 S
O190 Tb182 2.427 . S
O190 C186 1.275 . S
O191 Tb182 2.513 1_565 S
O191 C186 1.246 1_565 S
O192 Tb182 2.453 1_565 S
O192 C188 1.245 1_565 S
O193 Tb180 2.343 . S
O193 Tb182 2.596 . S
O193 C188 1.259 . S
O194 Tb182 2.374 1_565 S
O194 C189 1.250 . S
O195 Tb180 2.365 . S
O195 C189 1.252 1_545 S
C196 O197 1.275 . S
C196 O198 1.246 . S
O197 Tb180 2.427 . S
O197 C196 1.275 . S
O198 Tb180 2.513 . S
O198 C196 1.246 . S
C199 O183 1.245 . S
C199 O184 1.259 . S
Tb200 O203 2.453 . S
Tb200 O204 2.596 . S
Tb200 O205 2.374 . S
Tb200 O213 2.343 . S
Tb200 O215 2.353 . S
Tb200 O217 2.427 . S
Tb200 O218 2.513 . S
C201 O205 1.251 . S
C201 O207 1.263 . S
Tb202 O204 2.343 . S
Tb202 O207 2.353 . S
Tb202 O210 2.427 . S
Tb202 O211 2.513 . S
Tb202 O212 2.453 . S
Tb202 O213 2.596 . S
Tb202 O214 2.374 . S
O203 Tb200 2.453 . S
O203 C219 1.245 . S
O204 Tb200 2.596 . S
O204 Tb202 2.343 . S
O204 C219 1.259 . S
O205 Tb200 2.374 . S
O205 C201 1.251 . S
C206 O210 1.275 . S
C206 O211 1.246 . S
O207 C201 1.263 . S
O207 Tb202 2.353 . S
C208 O212 1.245 . S
C208 O213 1.259 . S
C209 O214 1.250 . S
C209 O215 1.263 . S
O210 Tb202 2.427 . S
O210 C206 1.275 . S
O211 Tb202 2.513 . S
O211 C206 1.246 . S
O212 Tb202 2.453 . S
O212 C208 1.245 . S
O213 Tb200 2.343 . S
O213 Tb202 2.596 . S
O213 C208 1.259 . S
O214 Tb202 2.374 . S
O214 C209 1.250 . S
O215 Tb200 2.353 . S
O215 C209 1.263 . S
C216 O217 1.275 . S
C216 O218 1.246 . S
O217 Tb200 2.427 . S
O217 C216 1.275 . S
O218 Tb200 2.513 . S
O218 C216 1.246 . S
C219 O203 1.245 . S
C219 O204 1.259 . S
Tb220 O223 2.453 . S
Tb220 O224 2.596 . S
Tb220 O225 2.374 . S
Tb220 O233 2.343 . S
Tb220 O235 2.365 . S
Tb220 O237 2.427 . S
Tb220 O238 2.513 . S
C221 O225 1.251 . S
C221 O227 1.263 . S
Tb222 O224 2.343 . S
Tb222 O227 2.353 . S
Tb222 O230 2.427 . S
Tb222 O231 2.513 1_565 S
Tb222 O232 2.453 1_565 S
Tb222 O233 2.596 . S
Tb222 O234 2.374 1_565 S
O223 Tb220 2.453 . S
O223 C239 1.245 . S
O224 Tb220 2.596 . S
O224 Tb222 2.343 . S
O224 C239 1.259 . S
O225 Tb220 2.374 . S
O225 C221 1.251 . S
C226 O230 1.275 . S
C226 O231 1.246 1_565 S
O227 C221 1.263 . S
O227 Tb222 2.353 . S
C228 O232 1.245 1_565 S
C228 O233 1.259 . S
C229 O234 1.250 . S
C229 O235 1.252 1_545 S
O230 Tb222 2.427 . S
O230 C226 1.275 . S
O231 Tb222 2.513 1_545 S
O231 C226 1.246 1_545 S
O232 Tb222 2.453 1_545 S
O232 C228 1.245 1_545 S
O233 Tb220 2.343 . S
O233 Tb222 2.596 . S
O233 C228 1.259 . S
O234 Tb222 2.374 1_545 S
O234 C229 1.250 . S
O235 Tb220 2.365 . S
O235 C229 1.252 1_565 S
C236 O237 1.275 . S
C236 O238 1.246 . S
O237 Tb220 2.427 . S
O237 C236 1.275 . S
O238 Tb220 2.513 . S
O238 C236 1.246 . S
C239 O223 1.245 . S
C239 O224 1.259 . S
Tb240 O243 2.453 . S
Tb240 O244 2.596 . S
Tb240 O245 2.374 . S
Tb240 O253 2.343 . S
Tb240 O255 2.353 . S
Tb240 O257 2.427 . S
Tb240 O258 2.513 . S
C241 O245 1.251 . S
C241 O247 1.263 . S
Tb242 O244 2.343 . S
Tb242 O247 2.353 . S
Tb242 O250 2.427 . S
Tb242 O251 2.513 . S
Tb242 O252 2.453 . S
Tb242 O253 2.596 . S
Tb242 O254 2.374 . S
O243 Tb240 2.453 . S
O243 C259 1.245 . S
O244 Tb240 2.596 . S
O244 Tb242 2.343 . S
O244 C259 1.259 . S
O245 Tb240 2.374 . S
O245 C241 1.251 . S
C246 O250 1.275 . S
C246 O251 1.246 . S
O247 C241 1.263 . S
O247 Tb242 2.353 . S
C248 O252 1.245 . S
C248 O253 1.259 . S
C249 O254 1.250 . S
C249 O255 1.263 . S
O250 Tb242 2.427 . S
O250 C246 1.275 . S
O251 Tb242 2.513 . S
O251 C246 1.246 . S
O252 Tb242 2.453 . S
O252 C248 1.245 . S
O253 Tb240 2.343 . S
O253 Tb242 2.596 . S
O253 C248 1.259 . S
O254 Tb242 2.374 . S
O254 C249 1.250 . S
O255 Tb240 2.353 . S
O255 C249 1.263 . S
C256 O257 1.275 . S
C256 O258 1.246 . S
O257 Tb240 2.427 . S
O257 C256 1.275 . S
O258 Tb240 2.513 . S
O258 C256 1.246 . S
C259 O243 1.245 . S
C259 O244 1.259 . S
Tb260 O263 2.453 1_565 S
Tb260 O264 2.596 . S
Tb260 O265 2.374 1_565 S
Tb260 O273 2.343 . S
Tb260 O275 2.353 . S
Tb260 O277 2.427 . S
Tb260 O278 2.513 1_565 S
C261 O265 1.251 . S
C261 O267 1.252 1_545 S
Tb262 O264 2.343 . S
Tb262 O267 2.365 . S
Tb262 O270 2.427 . S
Tb262 O271 2.513 . S
Tb262 O272 2.453 . S
Tb262 O273 2.596 . S
Tb262 O274 2.374 . S
O263 Tb260 2.453 1_545 S
O263 C279 1.245 1_545 S
O264 Tb260 2.596 . S
O264 Tb262 2.343 . S
O264 C279 1.259 . S
O265 Tb260 2.374 1_545 S
O265 C261 1.251 . S
C266 O270 1.275 . S
C266 O271 1.246 . S
O267 C261 1.252 1_565 S
O267 Tb262 2.365 . S
C268 O272 1.245 . S
C268 O273 1.259 . S
C269 O274 1.250 . S
C269 O275 1.263 . S
O270 Tb262 2.427 . S
O270 C266 1.275 . S
O271 Tb262 2.513 . S
O271 C266 1.246 . S
O272 Tb262 2.453 . S
O272 C268 1.245 . S
O273 Tb260 2.343 . S
O273 Tb262 2.596 . S
O273 C268 1.259 . S
O274 Tb262 2.374 . S
O274 C269 1.250 . S
O275 Tb260 2.353 . S
O275 C269 1.263 . S
C276 O277 1.275 . S
C276 O278 1.246 1_565 S
O277 Tb260 2.427 . S
O277 C276 1.275 . S
O278 Tb260 2.513 1_545 S
O278 C276 1.246 1_545 S
C279 O263 1.245 1_565 S
C279 O264 1.259 . S
Tb280 O283 2.453 . S
Tb280 O284 2.596 . S
Tb280 O285 2.374 . S
Tb280 O293 2.343 . S
Tb280 O295 2.353 . S
Tb280 O297 2.427 . S
Tb280 O298 2.513 . S
C281 O285 1.251 . S
C281 O287 1.263 . S
Tb282 O284 2.343 . S
Tb282 O287 2.353 . S
Tb282 O290 2.427 . S
Tb282 O291 2.513 . S
Tb282 O292 2.453 . S
Tb282 O293 2.596 . S
Tb282 O294 2.374 . S
O283 Tb280 2.453 . S
O283 C299 1.245 . S
O284 Tb280 2.596 . S
O284 Tb282 2.343 . S
O284 C299 1.259 . S
O285 Tb280 2.374 . S
O285 C281 1.251 . S
C286 O290 1.275 . S
C286 O291 1.246 . S
O287 C281 1.263 . S
O287 Tb282 2.353 . S
C288 O292 1.245 . S
C288 O293 1.259 . S
C289 O294 1.250 . S
C289 O295 1.263 . S
O290 Tb282 2.427 . S
O290 C286 1.275 . S
O291 Tb282 2.513 . S
O291 C286 1.246 . S
O292 Tb282 2.453 . S
O292 C288 1.245 . S
O293 Tb280 2.343 . S
O293 Tb282 2.596 . S
O293 C288 1.259 . S
O294 Tb282 2.374 . S
O294 C289 1.250 . S
O295 Tb280 2.353 . S
O295 C289 1.263 . S
C296 O297 1.275 . S
C296 O298 1.246 . S
O297 Tb280 2.427 . S
O297 C296 1.275 . S
O298 Tb280 2.513 . S
O298 C296 1.246 . S
C299 O283 1.245 . S
C299 O284 1.259 . S
Tb300 O303 2.453 1_545 S
Tb300 O304 2.596 . S
Tb300 O305 2.374 1_545 S
Tb300 O313 2.343 . S
Tb300 O315 2.353 . S
Tb300 O317 2.427 . S
Tb300 O318 2.513 1_545 S
C301 O305 1.251 . S
C301 O307 1.252 1_565 S
Tb302 O304 2.343 . S
Tb302 O307 2.365 . S
Tb302 O310 2.427 . S
Tb302 O311 2.513 . S
Tb302 O312 2.453 . S
Tb302 O313 2.596 . S
Tb302 O314 2.374 . S
O303 Tb300 2.453 1_565 S
O303 C319 1.245 1_565 S
O304 Tb300 2.596 . S
O304 Tb302 2.343 . S
O304 C319 1.259 . S
O305 Tb300 2.374 1_565 S
O305 C301 1.251 . S
C306 O310 1.275 . S
C306 O311 1.246 . S
O307 C301 1.252 1_545 S
O307 Tb302 2.365 . S
C308 O312 1.245 . S
C308 O313 1.259 . S
C309 O314 1.250 . S
C309 O315 1.263 . S
O310 Tb302 2.427 . S
O310 C306 1.275 . S
O311 Tb302 2.513 . S
O311 C306 1.246 . S
O312 Tb302 2.453 . S
O312 C308 1.245 . S
O313 Tb300 2.343 . S
O313 Tb302 2.596 . S
O313 C308 1.259 . S
O314 Tb302 2.374 . S
O314 C309 1.250 . S
O315 Tb300 2.353 . S
O315 C309 1.263 . S
C316 O317 1.275 . S
C316 O318 1.246 1_545 S
O317 Tb300 2.427 . S
O317 C316 1.275 . S
O318 Tb300 2.513 1_565 S
O318 C316 1.246 1_565 S
C319 O303 1.245 1_545 S
C319 O304 1.259 . S
C320 C321 1.391 . S
C320 C322 1.394 . S
C320 H336 0.931 . S
C321 C320 1.391 . S
C321 C325 1.376 . S
C322 C320 1.394 . S
C322 C323 1.369 . S
C322 C326 1.531 . S
C323 C322 1.369 . S
C323 C324 1.410 . S
C323 C331 1.503 . S
C324 C323 1.410 . S
C324 C325 1.392 . S
C324 C327 1.511 . S
C325 C321 1.376 . S
C325 C324 1.392 . S
C325 H337 0.929 . S
C326 C322 1.531 . S
C326 H338 0.960 . S
C326 H339 0.962 . S
C326 H340 0.960 . S
C327 C324 1.511 . S
C327 H341 0.961 . S
C327 H342 0.961 . S
C327 H343 0.961 . S
C328 C329 1.370 . S
C328 C330 1.363 . S
C328 H344 0.931 . S
C329 C328 1.370 . S
C329 C333 1.408 . S
C330 C328 1.363 . S
C330 C331 1.370 . S
C330 C334 1.524 . S
C331 C323 1.503 . S
C331 C330 1.370 . S
C331 C332 1.403 . S
C332 C331 1.403 . S
C332 C333 1.404 . S
C332 C335 1.539 . S
C333 C329 1.408 . S
C333 C332 1.404 . S
C333 H345 0.930 . S
C334 C330 1.524 . S
C334 H346 0.956 . S
C334 H347 0.961 . S
C334 H348 0.961 . S
C335 C332 1.539 . S
C335 H349 0.958 . S
C335 H350 0.961 . S
C335 H351 0.960 . S
H336 C320 0.931 . S
H337 C325 0.929 . S
H338 C326 0.960 . S
H339 C326 0.962 . S
H340 C326 0.960 . S
H341 C327 0.961 . S
H342 C327 0.961 . S
H343 C327 0.961 . S
H344 C328 0.931 . S
H345 C333 0.930 . S
H346 C334 0.956 . S
H347 C334 0.961 . S
H348 C334 0.961 . S
H349 C335 0.958 . S
H350 C335 0.961 . S
H351 C335 0.960 . S
C352 C353 1.391 . S
C352 C354 1.394 . S
C352 H368 0.931 . S
C353 C352 1.391 . S
C353 C357 1.376 . S
C354 C352 1.394 . S
C354 C355 1.369 . S
C354 C358 1.531 . S
C355 C354 1.369 . S
C355 C356 1.410 . S
C355 C363 1.503 . S
C356 C355 1.410 . S
C356 C357 1.392 . S
C356 C359 1.511 . S
C357 C353 1.376 . S
C357 C356 1.392 . S
C357 H369 0.929 . S
C358 C354 1.531 . S
C358 H370 0.960 . S
C358 H371 0.962 . S
C358 H372 0.960 . S
C359 C356 1.511 . S
C359 H373 0.961 . S
C359 H374 0.961 . S
C359 H375 0.961 . S
C360 C361 1.370 . S
C360 C362 1.363 . S
C360 H376 0.931 . S
C361 C360 1.370 . S
C361 C365 1.408 . S
C362 C360 1.363 . S
C362 C363 1.370 . S
C362 C366 1.524 . S
C363 C355 1.503 . S
C363 C362 1.370 . S
C363 C364 1.403 . S
C364 C363 1.403 . S
C364 C365 1.404 . S
C364 C367 1.539 . S
C365 C361 1.408 . S
C365 C364 1.404 . S
C365 H377 0.930 . S
C366 C362 1.524 . S
C366 H378 0.956 . S
C366 H379 0.961 . S
C366 H380 0.961 . S
C367 C364 1.539 . S
C367 H381 0.958 . S
C367 H382 0.961 . S
C367 H383 0.960 . S
H368 C352 0.931 . S
H369 C357 0.929 . S
H370 C358 0.960 . S
H371 C358 0.962 . S
H372 C358 0.960 . S
H373 C359 0.961 . S
H374 C359 0.961 . S
H375 C359 0.961 . S
H376 C360 0.931 . S
H377 C365 0.930 . S
H378 C366 0.956 . S
H379 C366 0.961 . S
H380 C366 0.961 . S
H381 C367 0.958 . S
H382 C367 0.961 . S
H383 C367 0.960 . S
C384 C385 1.391 . S
C384 C386 1.394 . S
C384 H400 0.931 . S
C385 C384 1.391 . S
C385 C389 1.376 . S
C386 C384 1.394 . S
C386 C387 1.369 . S
C386 C390 1.531 . S
C387 C386 1.369 . S
C387 C388 1.410 . S
C387 C395 1.503 1_455 S
C388 C387 1.410 . S
C388 C389 1.392 . S
C388 C391 1.511 1_455 S
C389 C385 1.376 . S
C389 C388 1.392 . S
C389 H401 0.929 . S
C390 C386 1.531 . S
C390 H402 0.960 . S
C390 H403 0.962 . S
C390 H404 0.960 . S
C391 C388 1.511 1_655 S
C391 H405 0.961 . S
C391 H406 0.961 . S
C391 H407 0.961 . S
C392 C393 1.370 . S
C392 C394 1.363 . S
C392 H408 0.931 . S
C393 C392 1.370 . S
C393 C397 1.408 . S
C394 C392 1.363 . S
C394 C395 1.370 . S
C394 C398 1.524 1_655 S
C395 C387 1.503 1_655 S
C395 C394 1.370 . S
C395 C396 1.403 . S
C396 C395 1.403 . S
C396 C397 1.404 . S
C396 C399 1.539 . S
C397 C393 1.408 . S
C397 C396 1.404 . S
C397 H409 0.930 . S
C398 C394 1.524 1_455 S
C398 H410 0.956 . S
C398 H411 0.961 . S
C398 H412 0.961 . S
C399 C396 1.539 . S
C399 H413 0.958 . S
C399 H414 0.961 . S
C399 H415 0.960 . S
H400 C384 0.931 . S
H401 C389 0.929 . S
H402 C390 0.960 . S
H403 C390 0.962 . S
H404 C390 0.960 . S
H405 C391 0.961 . S
H406 C391 0.961 . S
H407 C391 0.961 . S
H408 C392 0.931 . S
H409 C397 0.930 . S
H410 C398 0.956 . S
H411 C398 0.961 . S
H412 C398 0.961 . S
H413 C399 0.958 . S
H414 C399 0.961 . S
H415 C399 0.960 . S
C416 C417 1.391 . S
C416 C418 1.394 . S
C416 H432 0.931 . S
C417 C416 1.391 . S
C417 C421 1.376 . S
C418 C416 1.394 . S
C418 C419 1.369 . S
C418 C422 1.531 . S
C419 C418 1.369 . S
C419 C420 1.414 . S
C419 C427 1.503 1_455 S
C420 C419 1.414 . S
C420 C421 1.407 . S
C420 C423 1.493 1_455 S
C421 C417 1.376 . S
C421 C420 1.407 . S
C421 H433 0.929 . S
C422 C418 1.531 . S
C422 H434 0.960 . S
C422 H435 0.962 . S
C422 H436 0.960 . S
C423 C420 1.493 1_655 S
C423 H437 0.961 . S
C423 H438 0.961 . S
C423 H439 0.961 . S
C424 C425 1.370 . S
C424 C426 1.363 . S
C424 H440 0.931 . S
C425 C424 1.370 . S
C425 C429 1.408 . S
C426 C424 1.363 . S
C426 C427 1.370 . S
C426 C430 1.524 1_655 S
C427 C419 1.503 1_655 S
C427 C426 1.370 . S
C427 C428 1.403 . S
C428 C427 1.403 . S
C428 C429 1.404 . S
C428 C431 1.539 . S
C429 C425 1.408 . S
C429 C428 1.404 . S
C429 H441 0.930 . S
C430 C426 1.524 1_455 S
C430 H442 0.956 . S
C430 H443 0.961 . S
C430 H444 0.961 . S
C431 C428 1.539 . S
C431 H445 0.958 . S
C431 H446 0.961 . S
C431 H447 0.960 . S
H432 C416 0.931 . S
H433 C421 0.929 . S
H434 C422 0.960 . S
H435 C422 0.962 . S
H436 C422 0.960 . S
H437 C423 0.961 . S
H438 C423 0.961 . S
H439 C423 0.961 . S
H440 C424 0.931 . S
H441 C429 0.930 . S
H442 C430 0.956 . S
H443 C430 0.961 . S
H444 C430 0.961 . S
H445 C431 0.958 . S
H446 C431 0.961 . S
H447 C431 0.960 . S
C448 C449 1.391 . S
C448 C450 1.394 . S
C448 H464 0.931 . S
C449 C448 1.391 . S
C449 C453 1.376 . S
C450 C448 1.394 . S
C450 C451 1.369 . S
C450 C454 1.531 . S
C451 C450 1.369 . S
C451 C452 1.410 . S
C451 C459 1.503 . S
C452 C451 1.410 . S
C452 C453 1.392 . S
C452 C455 1.511 . S
C453 C449 1.376 . S
C453 C452 1.392 . S
C453 H465 0.929 . S
C454 C450 1.531 . S
C454 H466 0.960 . S
C454 H467 0.962 . S
C454 H468 0.960 . S
C455 C452 1.511 . S
C455 H469 0.961 . S
C455 H470 0.961 . S
C455 H471 0.961 . S
C456 C457 1.370 . S
C456 C458 1.363 . S
C456 H472 0.931 . S
C457 C456 1.370 . S
C457 C461 1.408 . S
C458 C456 1.363 . S
C458 C459 1.370 . S
C458 C462 1.524 . S
C459 C451 1.503 . S
C459 C458 1.370 . S
C459 C460 1.403 . S
C460 C459 1.403 . S
C460 C461 1.404 . S
C460 C463 1.539 . S
C461 C457 1.408 . S
C461 C460 1.404 . S
C461 H473 0.930 . S
C462 C458 1.524 . S
C462 H474 0.956 . S
C462 H475 0.961 . S
C462 H476 0.961 . S
C463 C460 1.539 . S
C463 H477 0.958 . S
C463 H478 0.961 . S
C463 H479 0.960 . S
H464 C448 0.931 . S
H465 C453 0.929 . S
H466 C454 0.960 . S
H467 C454 0.962 . S
H468 C454 0.960 . S
H469 C455 0.961 . S
H470 C455 0.961 . S
H471 C455 0.961 . S
H472 C456 0.931 . S
H473 C461 0.930 . S
H474 C462 0.956 . S
H475 C462 0.961 . S
H476 C462 0.961 . S
H477 C463 0.958 . S
H478 C463 0.961 . S
H479 C463 0.960 . S
C480 C481 1.391 . S
C480 C482 1.394 . S
C480 H496 0.931 . S
C481 C480 1.391 . S
C481 C485 1.376 . S
C482 C480 1.394 . S
C482 C483 1.369 . S
C482 C486 1.531 . S
C483 C482 1.369 . S
C483 C484 1.410 . S
C483 C491 1.503 . S
C484 C483 1.410 . S
C484 C485 1.392 . S
C484 C487 1.511 . S
C485 C481 1.376 . S
C485 C484 1.392 . S
C485 H497 0.929 . S
C486 C482 1.531 . S
C486 H498 0.960 . S
C486 H499 0.962 . S
C486 H500 0.960 . S
C487 C484 1.511 . S
C487 H501 0.961 . S
C487 H502 0.961 . S
C487 H503 0.961 . S
C488 C489 1.370 . S
C488 C490 1.363 . S
C488 H504 0.931 . S
C489 C488 1.370 . S
C489 C493 1.408 . S
C490 C488 1.363 . S
C490 C491 1.370 . S
C490 C494 1.524 . S
C491 C483 1.503 . S
C491 C490 1.370 . S
C491 C492 1.403 . S
C492 C491 1.403 . S
C492 C493 1.404 . S
C492 C495 1.539 . S
C493 C489 1.408 . S
C493 C492 1.404 . S
C493 H505 0.930 . S
C494 C490 1.524 . S
C494 H506 0.956 . S
C494 H507 0.961 . S
C494 H508 0.961 . S
C495 C492 1.539 . S
C495 H509 0.958 . S
C495 H510 0.961 . S
C495 H511 0.960 . S
H496 C480 0.931 . S
H497 C485 0.929 . S
H498 C486 0.960 . S
H499 C486 0.962 . S
H500 C486 0.960 . S
H501 C487 0.961 . S
H502 C487 0.961 . S
H503 C487 0.961 . S
H504 C488 0.931 . S
H505 C493 0.930 . S
H506 C494 0.956 . S
H507 C494 0.961 . S
H508 C494 0.961 . S
H509 C495 0.958 . S
H510 C495 0.961 . S
H511 C495 0.960 . S
C512 C513 1.391 . S
C512 C514 1.394 . S
C512 H528 0.931 . S
C513 C512 1.391 . S
C513 C517 1.376 . S
C514 C512 1.394 . S
C514 C515 1.369 . S
C514 C518 1.531 . S
C515 C514 1.369 . S
C515 C516 1.410 . S
C515 C523 1.503 1_455 S
C516 C515 1.410 . S
C516 C517 1.392 . S
C516 C519 1.511 . S
C517 C513 1.376 . S
C517 C516 1.392 . S
C517 H529 0.929 . S
C518 C514 1.531 . S
C518 H530 0.960 1_455 S
C518 H531 0.962 1_455 S
C518 H532 0.960 . S
C519 C516 1.511 . S
C519 H533 0.961 . S
C519 H534 0.961 . S
C519 H535 0.961 . S
C520 C521 1.370 . S
C520 C522 1.363 . S
C520 H536 0.931 . S
C521 C520 1.370 . S
C521 C525 1.408 . S
C522 C520 1.363 . S
C522 C523 1.370 . S
C522 C526 1.524 . S
C523 C515 1.503 1_655 S
C523 C522 1.370 . S
C523 C524 1.403 . S
C524 C523 1.403 . S
C524 C525 1.404 . S
C524 C527 1.539 1_655 S
C525 C521 1.408 . S
C525 C524 1.404 . S
C525 H537 0.930 . S
C526 C522 1.524 . S
C526 H538 0.956 . S
C526 H539 0.961 . S
C526 H540 0.961 . S
C527 C524 1.539 1_455 S
C527 H541 0.958 . S
C527 H542 0.961 . S
C527 H543 0.960 . S
H528 C512 0.931 . S
H529 C517 0.929 . S
H530 C518 0.960 1_655 S
H531 C518 0.962 1_655 S
H532 C518 0.960 . S
H533 C519 0.961 . S
H534 C519 0.961 . S
H535 C519 0.961 . S
H536 C520 0.931 . S
H537 C525 0.930 . S
H538 C526 0.956 . S
H539 C526 0.961 . S
H540 C526 0.961 . S
H541 C527 0.958 . S
H542 C527 0.961 . S
H543 C527 0.960 . S
C544 C545 1.391 . S
C544 C546 1.394 . S
C544 H560 0.931 . S
C545 C544 1.391 . S
C545 C549 1.376 . S
C546 C544 1.394 . S
C546 C547 1.369 . S
C546 C550 1.531 . S
C547 C546 1.369 . S
C547 C548 1.410 1_455 S
C547 C555 1.503 1_455 S
C548 C547 1.410 1_655 S
C548 C549 1.392 1_655 S
C548 C551 1.511 . S
C549 C545 1.376 . S
C549 C548 1.392 1_455 S
C549 H561 0.929 . S
C550 C546 1.531 . S
C550 H562 0.960 . S
C550 H563 0.962 . S
C550 H564 0.960 . S
C551 C548 1.511 . S
C551 H565 0.961 . S
C551 H566 0.961 . S
C551 H567 0.961 . S
C552 C553 1.370 . S
C552 C554 1.363 . S
C552 H568 0.931 . S
C553 C552 1.370 . S
C553 C557 1.408 . S
C554 C552 1.363 . S
C554 C555 1.370 . S
C554 C558 1.524 1_655 S
C555 C547 1.503 1_655 S
C555 C554 1.370 . S
C555 C556 1.403 . S
C556 C555 1.403 . S
C556 C557 1.404 . S
C556 C559 1.539 . S
C557 C553 1.408 . S
C557 C556 1.404 . S
C557 H569 0.930 . S
C558 C554 1.524 1_455 S
C558 H570 0.956 . S
C558 H571 0.961 . S
C558 H572 0.961 . S
C559 C556 1.539 . S
C559 H573 0.958 . S
C559 H574 0.961 . S
C559 H575 0.960 . S
H560 C544 0.931 . S
H561 C549 0.929 . S
H562 C550 0.960 . S
H563 C550 0.962 . S
H564 C550 0.960 . S
H565 C551 0.961 . S
H566 C551 0.961 . S
H567 C551 0.961 . S
H568 C552 0.931 . S
H569 C557 0.930 . S
H570 C558 0.956 . S
H571 C558 0.961 . S
H572 C558 0.961 . S
H573 C559 0.958 . S
H574 C559 0.961 . S
H575 C559 0.960 . S
C576 C577 1.391 1_565 S
C576 C578 1.394 . S
C576 H592 0.931 . S
C577 C576 1.391 1_545 S
C577 C581 1.376 . S
C578 C576 1.394 . S
C578 C579 1.369 1_565 S
C578 C582 1.531 . S
C579 C578 1.369 1_545 S
C579 C580 1.410 . S
C579 C587 1.503 1_544 S
C580 C579 1.410 . S
C580 C581 1.392 . S
C580 C583 1.511 1_554 S
C581 C577 1.376 . S
C581 C580 1.392 . S
C581 H593 0.929 . S
C582 C578 1.531 . S
C582 H594 1.015 . S
C582 H595 0.962 . S
C582 H596 0.960 . S
C583 C580 1.511 1_556 S
C583 H597 0.961 . S
C583 H598 0.961 . S
C583 H599 0.961 . S
C584 C585 1.370 . S
C584 C586 1.380 . S
C584 H600 0.931 . S
C585 C584 1.370 . S
C585 C589 1.408 . S
C586 C584 1.380 . S
C586 C587 1.383 . S
C586 C590 1.495 1_566 S
C587 C579 1.503 1_566 S
C587 C586 1.383 . S
C587 C588 1.403 . S
C588 C587 1.403 . S
C588 C589 1.404 . S
C588 C591 1.539 . S
C589 C585 1.408 . S
C589 C588 1.404 . S
C589 H601 0.930 . S
C590 C586 1.495 1_544 S
C590 H602 0.956 1_545 S
C590 H603 0.961 . S
C590 H604 0.961 . S
C591 C588 1.539 . S
C591 H605 0.958 . S
C591 H606 0.961 . S
C591 H607 0.960 . S
H592 C576 0.931 . S
H593 C581 0.929 . S
H594 C582 1.015 . S
H595 C582 0.962 . S
H596 C582 0.960 . S
H597 C583 0.961 . S
H598 C583 0.961 . S
H599 C583 0.961 . S
H600 C584 0.931 . S
H601 C589 0.930 . S
H602 C590 0.956 1_565 S
H603 C590 0.961 . S
H604 C590 0.961 . S
H605 C591 0.958 . S
H606 C591 0.961 . S
H607 C591 0.960 . S
C608 C609 1.391 . S
C608 C610 1.394 . S
C608 H624 0.931 . S
C609 C608 1.391 . S
C609 C613 1.376 . S
C610 C608 1.394 . S
C610 C611 1.369 . S
C610 C614 1.531 . S
C611 C610 1.369 . S
C611 C612 1.410 . S
C611 C619 1.503 . S
C612 C611 1.410 . S
C612 C613 1.392 . S
C612 C615 1.511 . S
C613 C609 1.376 . S
C613 C612 1.392 . S
C613 H625 0.929 . S
C614 C610 1.531 . S
C614 H626 0.960 . S
C614 H627 0.962 . S
C614 H628 0.960 . S
C615 C612 1.511 . S
C615 H629 0.961 . S
C615 H630 0.961 . S
C615 H631 0.961 . S
C616 C617 1.370 . S
C616 C618 1.363 . S
C616 H632 0.931 . S
C617 C616 1.370 . S
C617 C621 1.408 . S
C618 C616 1.363 . S
C618 C619 1.370 . S
C618 C622 1.524 . S
C619 C611 1.503 . S
C619 C618 1.370 . S
C619 C620 1.403 . S
C620 C619 1.403 . S
C620 C621 1.404 . S
C620 C623 1.539 . S
C621 C617 1.408 . S
C621 C620 1.404 . S
C621 H633 0.930 . S
C622 C618 1.524 . S
C622 H634 0.956 . S
C622 H635 0.961 . S
C622 H636 0.961 . S
C623 C620 1.539 . S
C623 H637 0.958 . S
C623 H638 0.961 . S
C623 H639 0.960 . S
H624 C608 0.931 . S
H625 C613 0.929 . S
H626 C614 0.960 . S
H627 C614 0.962 . S
H628 C614 0.960 . S
H629 C615 0.961 . S
H630 C615 0.961 . S
H631 C615 0.961 . S
H632 C616 0.931 . S
H633 C621 0.930 . S
H634 C622 0.956 . S
H635 C622 0.961 . S
H636 C622 0.961 . S
H637 C623 0.958 . S
H638 C623 0.961 . S
H639 C623 0.960 . S
C640 C641 1.388 1_545 S
C640 C642 1.395 . S
C640 H656 0.932 . S
C641 C640 1.388 1_565 S
C641 C645 1.376 . S
C642 C640 1.395 . S
C642 C643 1.369 . S
C642 C646 1.531 1_455 S
C643 C642 1.369 . S
C643 C644 1.410 1_545 S
C643 C651 1.503 1_455 S
C644 C643 1.410 1_565 S
C644 C645 1.392 . S
C644 C647 1.511 . S
C645 C641 1.376 . S
C645 C644 1.392 . S
C645 H657 0.929 . S
C646 C642 1.531 1_655 S
C646 H658 0.960 . S
C646 H659 0.962 . S
C646 H660 0.960 1_655 S
C647 C644 1.511 . S
C647 H661 0.961 . S
C647 H662 0.961 . S
C647 H663 0.961 . S
C648 C649 1.370 1_565 S
C648 C650 1.363 . S
C648 H664 0.931 . S
C649 C648 1.370 1_545 S
C649 C653 1.408 . S
C650 C648 1.363 . S
C650 C651 1.370 1_565 S
C650 C654 1.524 . S
C651 C643 1.503 1_655 S
C651 C650 1.370 1_545 S
C651 C652 1.403 . S
C652 C651 1.403 . S
C652 C653 1.404 . S
C652 C655 1.539 1_655 S
C653 C649 1.408 . S
C653 C652 1.404 . S
C653 H665 0.930 . S
C654 C650 1.524 . S
C654 H666 0.956 . S
C654 H667 0.961 . S
C654 H668 0.961 . S
C655 C652 1.539 1_455 S
C655 H669 0.958 . S
C655 H670 0.961 . S
C655 H671 0.960 . S
H656 C640 0.932 . S
H657 C645 0.929 . S
H658 C646 0.960 . S
H659 C646 0.962 . S
H660 C646 0.960 1_455 S
H661 C647 0.961 . S
H662 C647 0.961 . S
H663 C647 0.961 . S
H664 C648 0.931 . S
H665 C653 0.930 . S
H666 C654 0.956 . S
H667 C654 0.961 . S
H668 C654 0.961 . S
H669 C655 0.958 . S
H670 C655 0.961 . S
H671 C655 0.960 . S
C672 C673 1.391 . S
C672 C674 1.394 . S
C672 H688 0.931 . S
C673 C672 1.391 . S
C673 C677 1.376 . S
C674 C672 1.394 . S
C674 C675 1.369 . S
C674 C678 1.531 . S
C675 C674 1.369 . S
C675 C676 1.410 . S
C675 C683 1.503 . S
C676 C675 1.410 . S
C676 C677 1.392 . S
C676 C679 1.511 . S
C677 C673 1.376 . S
C677 C676 1.392 . S
C677 H689 0.929 . S
C678 C674 1.531 . S
C678 H690 0.960 . S
C678 H691 0.962 . S
C678 H692 0.960 . S
C679 C676 1.511 . S
C679 H693 0.961 . S
C679 H694 0.961 . S
C679 H695 0.961 . S
C680 C681 1.370 . S
C680 C682 1.363 . S
C680 H696 0.931 . S
C681 C680 1.370 . S
C681 C685 1.408 . S
C682 C680 1.363 . S
C682 C683 1.370 . S
C682 C686 1.524 . S
C683 C675 1.503 . S
C683 C682 1.370 . S
C683 C684 1.403 . S
C684 C683 1.403 . S
C684 C685 1.404 . S
C684 C687 1.539 . S
C685 C681 1.408 . S
C685 C684 1.404 . S
C685 H697 0.930 . S
C686 C682 1.524 . S
C686 H698 0.956 . S
C686 H699 0.961 . S
C686 H700 0.961 . S
C687 C684 1.539 . S
C687 H701 0.958 . S
C687 H702 0.961 . S
C687 H703 0.960 . S
H688 C672 0.931 . S
H689 C677 0.929 . S
H690 C678 0.960 . S
H691 C678 0.962 . S
H692 C678 0.960 . S
H693 C679 0.961 . S
H694 C679 0.961 . S
H695 C679 0.961 . S
H696 C680 0.931 . S
H697 C685 0.930 . S
H698 C686 0.956 . S
H699 C686 0.961 . S
H700 C686 0.961 . S
H701 C687 0.958 . S
H702 C687 0.961 . S
H703 C687 0.960 . S
C704 C705 1.391 . S
C704 C706 1.394 . S
C704 H720 0.931 . S
C705 C704 1.391 . S
C705 C709 1.376 . S
C706 C704 1.394 . S
C706 C707 1.369 . S
C706 C710 1.531 . S
C707 C706 1.369 . S
C707 C708 1.410 . S
C707 C715 1.503 . S
C708 C707 1.410 . S
C708 C709 1.392 . S
C708 C711 1.511 . S
C709 C705 1.376 . S
C709 C708 1.392 . S
C709 H721 0.929 . S
C710 C706 1.531 . S
C710 H722 0.960 . S
C710 H723 0.962 . S
C710 H724 0.960 . S
C711 C708 1.511 . S
C711 H725 0.961 . S
C711 H726 0.961 . S
C711 H727 0.961 . S
C712 C713 1.370 . S
C712 C714 1.363 . S
C712 H728 0.931 . S
C713 C712 1.370 . S
C713 C717 1.408 . S
C714 C712 1.363 . S
C714 C715 1.370 . S
C714 C718 1.524 . S
C715 C707 1.503 . S
C715 C714 1.370 . S
C715 C716 1.403 . S
C716 C715 1.403 . S
C716 C717 1.404 . S
C716 C719 1.539 . S
C717 C713 1.408 . S
C717 C716 1.404 . S
C717 H729 0.930 . S
C718 C714 1.524 . S
C718 H730 0.956 . S
C718 H731 0.961 . S
C718 H732 0.961 . S
C719 C716 1.539 . S
C719 H733 0.958 . S
C719 H734 0.961 . S
C719 H735 0.960 . S
H720 C704 0.931 . S
H721 C709 0.929 . S
H722 C710 0.960 . S
H723 C710 0.962 . S
H724 C710 0.960 . S
H725 C711 0.961 . S
H726 C711 0.961 . S
H727 C711 0.961 . S
H728 C712 0.931 . S
H729 C717 0.930 . S
H730 C718 0.956 . S
H731 C718 0.961 . S
H732 C718 0.961 . S
H733 C719 0.958 . S
H734 C719 0.961 . S
H735 C719 0.960 . S
C736 C737 1.391 . S
C736 C738 1.394 . S
C736 H752 0.931 . S
C737 C736 1.391 . S
C737 C741 1.376 . S
C738 C736 1.394 . S
C738 C739 1.369 . S
C738 C742 1.531 . S
C739 C738 1.369 . S
C739 C740 1.410 . S
C739 C747 1.503 . S
C740 C739 1.410 . S
C740 C741 1.392 . S
C740 C743 1.511 . S
C741 C737 1.376 . S
C741 C740 1.392 . S
C741 H753 0.929 . S
C742 C738 1.531 . S
C742 H754 0.960 . S
C742 H755 0.962 . S
C742 H756 0.960 . S
C743 C740 1.511 . S
C743 H757 0.961 . S
C743 H758 0.961 . S
C743 H759 0.961 . S
C744 C745 1.370 . S
C744 C746 1.363 . S
C744 H760 0.931 . S
C745 C744 1.370 . S
C745 C749 1.408 . S
C746 C744 1.363 . S
C746 C747 1.370 . S
C746 C750 1.524 . S
C747 C739 1.503 . S
C747 C746 1.370 . S
C747 C748 1.403 . S
C748 C747 1.403 . S
C748 C749 1.404 . S
C748 C751 1.539 . S
C749 C745 1.408 . S
C749 C748 1.404 . S
C749 H761 0.930 . S
C750 C746 1.524 . S
C750 H762 0.956 . S
C750 H763 0.961 . S
C750 H764 0.961 . S
C751 C748 1.539 . S
C751 H765 0.958 . S
C751 H766 0.961 . S
C751 H767 0.960 . S
H752 C736 0.931 . S
H753 C741 0.929 . S
H754 C742 0.960 . S
H755 C742 0.962 . S
H756 C742 0.960 . S
H757 C743 0.961 . S
H758 C743 0.961 . S
H759 C743 0.961 . S
H760 C744 0.931 . S
H761 C749 0.930 . S
H762 C750 0.956 . S
H763 C750 0.961 . S
H764 C750 0.961 . S
H765 C751 0.958 . S
H766 C751 0.961 . S
H767 C751 0.960 . S
C768 C769 1.391 . S
C768 C770 1.394 . S
C768 H784 0.931 . S
C769 C768 1.391 . S
C769 C773 1.376 . S
C770 C768 1.394 . S
C770 C771 1.369 . S
C770 C774 1.531 . S
C771 C770 1.369 . S
C771 C772 1.410 . S
C771 C779 1.503 1_455 S
C772 C771 1.410 . S
C772 C773 1.392 . S
C772 C775 1.511 1_455 S
C773 C769 1.376 . S
C773 C772 1.392 . S
C773 H785 0.929 . S
C774 C770 1.531 . S
C774 H786 0.960 . S
C774 H787 0.962 . S
C774 H788 0.960 . S
C775 C772 1.511 1_655 S
C775 H789 0.961 . S
C775 H790 0.961 . S
C775 H791 0.961 . S
C776 C777 1.370 . S
C776 C778 1.363 . S
C776 H792 0.931 . S
C777 C776 1.370 . S
C777 C781 1.408 . S
C778 C776 1.363 . S
C778 C779 1.370 . S
C778 C782 1.524 1_655 S
C779 C771 1.503 1_655 S
C779 C778 1.370 . S
C779 C780 1.403 . S
C780 C779 1.403 . S
C780 C781 1.404 . S
C780 C783 1.539 . S
C781 C777 1.408 . S
C781 C780 1.404 . S
C781 H793 0.930 . S
C782 C778 1.524 1_455 S
C782 H794 0.956 . S
C782 H795 0.961 . S
C782 H796 0.961 1_455 S
C783 C780 1.539 . S
C783 H797 0.958 . S
C783 H798 0.961 . S
C783 H799 0.960 . S
H784 C768 0.931 . S
H785 C773 0.929 . S
H786 C774 0.960 . S
H787 C774 0.962 . S
H788 C774 0.960 . S
H789 C775 0.961 . S
H790 C775 0.961 . S
H791 C775 0.961 . S
H792 C776 0.931 . S
H793 C781 0.930 . S
H794 C782 0.956 . S
H795 C782 0.961 . S
H796 C782 0.961 1_655 S
H797 C783 0.958 . S
H798 C783 0.961 . S
H799 C783 0.960 . S
C800 C801 1.391 . S
C800 C802 1.394 . S
C800 H816 0.931 . S
C801 C800 1.391 . S
C801 C805 1.376 . S
C802 C800 1.394 . S
C802 C803 1.369 . S
C802 C806 1.538 . S
C803 C802 1.369 . S
C803 C804 1.410 . S
C803 C811 1.503 1_554 S
C804 C803 1.410 . S
C804 C805 1.392 . S
C804 C807 1.511 . S
C805 C801 1.376 . S
C805 C804 1.392 . S
C805 H817 0.929 . S
C806 C802 1.538 . S
C806 H818 0.942 1_554 S
C806 H819 0.974 . S
C806 H820 0.959 1_554 S
C807 C804 1.511 . S
C807 H821 0.961 . S
C807 H822 0.970 . S
C807 H823 0.961 1_554 S
C808 C809 1.370 . S
C808 C810 1.355 1_556 S
C808 H824 0.931 . S
C809 C808 1.370 . S
C809 C813 1.408 . S
C810 C808 1.355 1_554 S
C810 C811 1.363 1_554 S
C810 C814 1.540 . S
C811 C803 1.503 1_556 S
C811 C810 1.363 1_556 S
C811 C812 1.403 . S
C812 C811 1.403 . S
C812 C813 1.404 . S
C812 C815 1.539 . S
C813 C809 1.408 . S
C813 C812 1.404 . S
C813 H825 0.930 . S
C814 C810 1.540 . S
C814 H826 0.956 . S
C814 H827 0.961 . S
C814 H828 0.961 . S
C815 C812 1.539 . S
C815 H829 0.958 . S
C815 H830 0.961 . S
C815 H831 0.960 . S
H816 C800 0.931 . S
H817 C805 0.929 . S
H818 C806 0.942 1_556 S
H819 C806 0.974 . S
H820 C806 0.959 1_556 S
H821 C807 0.961 . S
H822 C807 0.970 . S
H823 C807 0.961 1_556 S
H824 C808 0.931 . S
H825 C813 0.930 . S
H826 C814 0.956 . S
H827 C814 0.961 . S
H828 C814 0.961 . S
H829 C815 0.958 . S
H830 C815 0.961 . S
H831 C815 0.960 . S
C832 C833 1.391 . S
C832 C834 1.394 . S
C832 H848 0.931 . S
C833 C832 1.391 . S
C833 C837 1.376 . S
C834 C832 1.394 . S
C834 C835 1.369 . S
C834 C838 1.531 . S
C835 C834 1.369 . S
C835 C836 1.410 . S
C835 C843 1.503 . S
C836 C835 1.410 . S
C836 C837 1.392 . S
C836 C839 1.511 . S
C837 C833 1.376 . S
C837 C836 1.392 . S
C837 H849 0.929 . S
C838 C834 1.531 . S
C838 H850 0.960 . S
C838 H851 0.962 . S
C838 H852 0.960 . S
C839 C836 1.511 . S
C839 H853 0.961 . S
C839 H854 0.961 . S
C839 H855 0.961 . S
C840 C841 1.370 . S
C840 C842 1.363 . S
C840 H856 0.931 . S
C841 C840 1.370 . S
C841 C845 1.408 . S
C842 C840 1.363 . S
C842 C843 1.370 . S
C842 C846 1.524 . S
C843 C835 1.503 . S
C843 C842 1.370 . S
C843 C844 1.403 . S
C844 C843 1.403 . S
C844 C845 1.404 . S
C844 C847 1.539 . S
C845 C841 1.408 . S
C845 C844 1.404 . S
C845 H857 0.930 . S
C846 C842 1.524 . S
C846 H858 0.956 . S
C846 H859 0.961 . S
C846 H860 0.961 . S
C847 C844 1.539 . S
C847 H861 0.958 . S
C847 H862 0.961 . S
C847 H863 0.960 . S
H848 C832 0.931 . S
H849 C837 0.929 . S
H850 C838 0.960 . S
H851 C838 0.962 . S
H852 C838 0.960 . S
H853 C839 0.961 . S
H854 C839 0.961 . S
H855 C839 0.961 . S
H856 C840 0.931 . S
H857 C845 0.930 . S
H858 C846 0.956 . S
H859 C846 0.961 . S
H860 C846 0.961 . S
H861 C847 0.958 . S
H862 C847 0.961 . S
H863 C847 0.960 . S
C864 C865 1.391 . S
C864 C866 1.394 . S
C864 H880 0.931 . S
C865 C864 1.391 . S
C865 C869 1.376 . S
C866 C864 1.394 . S
C866 C867 1.369 . S
C866 C870 1.531 . S
C867 C866 1.369 . S
C867 C868 1.410 . S
C867 C875 1.503 . S
C868 C867 1.410 . S
C868 C869 1.392 . S
C868 C871 1.511 . S
C869 C865 1.376 . S
C869 C868 1.392 . S
C869 H881 0.929 . S
C870 C866 1.531 . S
C870 H882 0.960 . S
C870 H883 0.962 . S
C870 H884 0.960 . S
C871 C868 1.511 . S
C871 H885 0.961 . S
C871 H886 0.961 . S
C871 H887 0.961 . S
C872 C873 1.370 . S
C872 C874 1.363 . S
C872 H888 0.931 . S
C873 C872 1.370 . S
C873 C877 1.408 . S
C874 C872 1.363 . S
C874 C875 1.370 . S
C874 C878 1.524 . S
C875 C867 1.503 . S
C875 C874 1.370 . S
C875 C876 1.403 . S
C876 C875 1.403 . S
C876 C877 1.404 . S
C876 C879 1.539 . S
C877 C873 1.408 . S
C877 C876 1.404 . S
C877 H889 0.930 . S
C878 C874 1.524 . S
C878 H890 0.956 . S
C878 H891 0.961 . S
C878 H892 0.961 . S
C879 C876 1.539 . S
C879 H893 0.958 . S
C879 H894 0.961 . S
C879 H895 0.960 . S
H880 C864 0.931 . S
H881 C869 0.929 . S
H882 C870 0.960 . S
H883 C870 0.962 . S
H884 C870 0.960 . S
H885 C871 0.961 . S
H886 C871 0.961 . S
H887 C871 0.961 . S
H888 C872 0.931 . S
H889 C877 0.930 . S
H890 C878 0.956 . S
H891 C878 0.961 . S
H892 C878 0.961 . S
H893 C879 0.958 . S
H894 C879 0.961 . S
H895 C879 0.960 . S
C896 C897 1.391 . S
C896 C898 1.394 . S
C896 H912 0.931 . S
C897 C896 1.391 . S
C897 C901 1.376 . S
C898 C896 1.394 . S
C898 C899 1.369 . S
C898 C902 1.531 . S
C899 C898 1.369 . S
C899 C900 1.410 . S
C899 C907 1.503 . S
C900 C899 1.410 . S
C900 C901 1.392 . S
C900 C903 1.511 . S
C901 C897 1.376 . S
C901 C900 1.392 . S
C901 H913 0.929 . S
C902 C898 1.531 . S
C902 H914 0.960 . S
C902 H915 0.962 . S
C902 H916 0.960 . S
C903 C900 1.511 . S
C903 H917 0.961 . S
C903 H918 0.961 . S
C903 H919 0.961 . S
C904 C905 1.370 . S
C904 C906 1.363 . S
C904 H920 0.931 . S
C905 C904 1.370 . S
C905 C909 1.408 . S
C906 C904 1.363 . S
C906 C907 1.370 . S
C906 C910 1.524 . S
C907 C899 1.503 . S
C907 C906 1.370 . S
C907 C908 1.403 . S
C908 C907 1.403 . S
C908 C909 1.404 . S
C908 C911 1.539 . S
C909 C905 1.408 . S
C909 C908 1.404 . S
C909 H921 0.930 . S
C910 C906 1.524 . S
C910 H922 0.956 . S
C910 H923 0.961 . S
C910 H924 0.961 . S
C911 C908 1.539 . S
C911 H925 0.958 . S
C911 H926 0.961 . S
C911 H927 0.960 . S
H912 C896 0.931 . S
H913 C901 0.929 . S
H914 C902 0.960 . S
H915 C902 0.962 . S
H916 C902 0.960 . S
H917 C903 0.961 . S
H918 C903 0.961 . S
H919 C903 0.961 . S
H920 C904 0.931 . S
H921 C909 0.930 . S
H922 C910 0.956 . S
H923 C910 0.961 . S
H924 C910 0.961 . S
H925 C911 0.958 . S
H926 C911 0.961 . S
H927 C911 0.960 . S
C928 C929 1.391 . S
C928 C930 1.400 . S
C928 H944 0.931 . S
C929 C928 1.391 . S
C929 C933 1.376 1_655 S
C930 C928 1.400 . S
C930 C931 1.361 1_655 S
C930 C934 1.531 . S
C931 C930 1.361 1_455 S
C931 C932 1.410 . S
C931 C939 1.503 . S
C932 C931 1.410 . S
C932 C933 1.392 . S
C932 C935 1.511 . S
C933 C929 1.376 1_455 S
C933 C932 1.392 . S
C933 H945 0.929 . S
C934 C930 1.531 . S
C934 H946 0.960 1_655 S
C934 H947 0.962 . S
C934 H948 0.960 . S
C935 C932 1.511 . S
C935 H949 0.961 . S
C935 H950 0.961 . S
C935 H951 0.961 . S
C936 C937 1.370 . S
C936 C938 1.363 . S
C936 H952 0.931 . S
C937 C936 1.370 . S
C937 C941 1.408 . S
C938 C936 1.363 . S
C938 C939 1.370 . S
C938 C942 1.524 . S
C939 C931 1.503 . S
C939 C938 1.370 . S
C939 C940 1.403 . S
C940 C939 1.403 . S
C940 C941 1.404 . S
C940 C943 1.539 . S
C941 C937 1.408 . S
C941 C940 1.404 . S
C941 H953 0.930 . S
C942 C938 1.524 . S
C942 H954 0.956 . S
C942 H955 0.961 . S
C942 H956 0.961 . S
C943 C940 1.539 . S
C943 H957 0.958 . S
C943 H958 0.961 . S
C943 H959 0.960 . S
H944 C928 0.931 . S
H945 C933 0.929 . S
H946 C934 0.960 1_455 S
H947 C934 0.962 . S
H948 C934 0.960 . S
H949 C935 0.961 . S
H950 C935 0.961 . S
H951 C935 0.961 . S
H952 C936 0.931 . S
H953 C941 0.930 . S
H954 C942 0.956 . S
H955 C942 0.961 . S
H956 C942 0.961 . S
H957 C943 0.958 . S
H958 C943 0.961 . S
H959 C943 0.960 . S
C960 C961 1.391 . S
C960 C962 1.394 . S
C960 H976 0.931 . S
C961 C960 1.391 . S
C961 C965 1.376 . S
C962 C960 1.394 . S
C962 C963 1.369 . S
C962 C966 1.531 . S
C963 C962 1.369 . S
C963 C964 1.410 . S
C963 C971 1.503 . S
C964 C963 1.410 . S
C964 C965 1.392 . S
C964 C967 1.511 . S
C965 C961 1.376 . S
C965 C964 1.392 . S
C965 H977 0.929 . S
C966 C962 1.531 . S
C966 H978 0.960 . S
C966 H979 0.962 . S
C966 H980 0.960 . S
C967 C964 1.511 . S
C967 H981 0.961 . S
C967 H982 0.961 . S
C967 H983 0.961 . S
C968 C969 1.370 . S
C968 C970 1.363 . S
C968 H984 0.931 . S
C969 C968 1.370 . S
C969 C973 1.408 . S
C970 C968 1.363 . S
C970 C971 1.370 . S
C970 C974 1.524 . S
C971 C963 1.503 . S
C971 C970 1.370 . S
C971 C972 1.403 . S
C972 C971 1.403 . S
C972 C973 1.404 . S
C972 C975 1.539 . S
C973 C969 1.408 . S
C973 C972 1.404 . S
C973 H985 0.930 . S
C974 C970 1.524 . S
C974 H986 0.956 . S
C974 H987 0.961 . S
C974 H988 0.961 . S
C975 C972 1.539 . S
C975 H989 0.958 . S
C975 H990 0.961 . S
C975 H991 0.960 . S
H976 C960 0.931 . S
H977 C965 0.929 . S
H978 C966 0.960 . S
H979 C966 0.962 . S
H980 C966 0.960 . S
H981 C967 0.961 . S
H982 C967 0.961 . S
H983 C967 0.961 . S
H984 C968 0.931 . S
H985 C973 0.930 . S
H986 C974 0.956 . S
H987 C974 0.961 . S
H988 C974 0.961 . S
H989 C975 0.958 . S
H990 C975 0.961 . S
H991 C975 0.960 . S
C992 C993 1.391 . S
C992 C994 1.394 . S
C992 H1008 0.931 . S
C993 C992 1.391 . S
C993 C997 1.376 . S
C994 C992 1.394 . S
C994 C995 1.369 . S
C994 C998 1.531 . S
C995 C994 1.369 . S
C995 C996 1.410 . S
C995 C1003 1.503 . S
C996 C995 1.410 . S
C996 C997 1.392 . S
C996 C999 1.511 . S
C997 C993 1.376 . S
C997 C996 1.392 . S
C997 H1009 0.929 . S
C998 C994 1.531 . S
C998 H1010 0.960 . S
C998 H1011 0.962 . S
C998 H1012 0.960 . S
C999 C996 1.511 . S
C999 H1013 0.961 . S
C999 H1014 0.961 . S
C999 H1015 0.961 . S
C1000 C1001 1.370 . S
C1000 C1002 1.363 . S
C1000 H1016 0.931 . S
C1001 C1000 1.370 . S
C1001 C1005 1.408 . S
C1002 C1000 1.363 . S
C1002 C1003 1.370 . S
C1002 C1006 1.524 . S
C1003 C995 1.503 . S
C1003 C1002 1.370 . S
C1003 C1004 1.403 . S
C1004 C1003 1.403 . S
C1004 C1005 1.404 . S
C1004 C1007 1.539 . S
C1005 C1001 1.408 . S
C1005 C1004 1.404 . S
C1005 H1017 0.930 . S
C1006 C1002 1.524 . S
C1006 H1018 0.956 . S
C1006 H1019 0.961 . S
C1006 H1020 0.961 . S
C1007 C1004 1.539 . S
C1007 H1021 0.958 . S
C1007 H1022 0.961 . S
C1007 H1023 0.960 . S
H1008 C992 0.931 . S
H1009 C997 0.929 . S
H1010 C998 0.960 . S
H1011 C998 0.962 . S
H1012 C998 0.960 . S
H1013 C999 0.961 . S
H1014 C999 0.961 . S
H1015 C999 0.961 . S
H1016 C1000 0.931 . S
H1017 C1005 0.930 . S
H1018 C1006 0.956 . S
H1019 C1006 0.961 . S
H1020 C1006 0.961 . S
H1021 C1007 0.958 . S
H1022 C1007 0.961 . S
H1023 C1007 0.960 . S
C1024 C1025 1.391 . S
C1024 C1026 1.394 . S
C1024 H1040 0.931 . S
C1025 C1024 1.391 . S
C1025 C1029 1.376 . S
C1026 C1024 1.394 . S
C1026 C1027 1.369 . S
C1026 C1030 1.531 . S
C1027 C1026 1.369 . S
C1027 C1028 1.410 . S
C1027 C1035 1.503 . S
C1028 C1027 1.410 . S
C1028 C1029 1.392 . S
C1028 C1031 1.511 . S
C1029 C1025 1.376 . S
C1029 C1028 1.392 . S
C1029 H1041 0.929 . S
C1030 C1026 1.531 . S
C1030 H1042 0.960 . S
C1030 H1043 0.962 . S
C1030 H1044 0.960 . S
C1031 C1028 1.511 . S
C1031 H1045 0.961 . S
C1031 H1046 0.961 . S
C1031 H1047 0.961 . S
C1032 C1033 1.370 . S
C1032 C1034 1.363 . S
C1032 H1048 0.931 . S
C1033 C1032 1.370 . S
C1033 C1037 1.408 . S
C1034 C1032 1.363 . S
C1034 C1035 1.370 . S
C1034 C1038 1.524 . S
C1035 C1027 1.503 . S
C1035 C1034 1.370 . S
C1035 C1036 1.403 . S
C1036 C1035 1.403 . S
C1036 C1037 1.404 . S
C1036 C1039 1.539 . S
C1037 C1033 1.408 . S
C1037 C1036 1.404 . S
C1037 H1049 0.930 . S
C1038 C1034 1.524 . S
C1038 H1050 0.956 . S
C1038 H1051 0.961 . S
C1038 H1052 0.961 . S
C1039 C1036 1.539 . S
C1039 H1053 0.958 . S
C1039 H1054 0.961 . S
C1039 H1055 0.960 . S
H1040 C1024 0.931 . S
H1041 C1029 0.929 . S
H1042 C1030 0.960 . S
H1043 C1030 0.962 . S
H1044 C1030 0.960 . S
H1045 C1031 0.961 . S
H1046 C1031 0.961 . S
H1047 C1031 0.961 . S
H1048 C1032 0.931 . S
H1049 C1037 0.930 . S
H1050 C1038 0.956 . S
H1051 C1038 0.961 . S
H1052 C1038 0.961 . S
H1053 C1039 0.958 . S
H1054 C1039 0.961 . S
H1055 C1039 0.960 . S
C1056 C1057 1.391 . S
C1056 C1058 1.394 . S
C1056 H1072 0.931 . S
C1057 C1056 1.391 . S
C1057 C1061 1.376 . S
C1058 C1056 1.394 . S
C1058 C1059 1.369 . S
C1058 C1062 1.531 . S
C1059 C1058 1.369 . S
C1059 C1060 1.410 . S
C1059 C1067 1.503 . S
C1060 C1059 1.410 . S
C1060 C1061 1.392 . S
C1060 C1063 1.511 . S
C1061 C1057 1.376 . S
C1061 C1060 1.392 . S
C1061 H1073 0.929 . S
C1062 C1058 1.531 . S
C1062 H1074 0.960 . S
C1062 H1075 0.962 . S
C1062 H1076 0.960 . S
C1063 C1060 1.511 . S
C1063 H1077 0.961 . S
C1063 H1078 0.961 . S
C1063 H1079 0.961 . S
C1064 C1065 1.370 . S
C1064 C1066 1.363 1_455 S
C1064 H1080 0.931 . S
C1065 C1064 1.370 . S
C1065 C1069 1.408 . S
C1066 C1064 1.363 1_655 S
C1066 C1067 1.370 . S
C1066 C1070 1.524 . S
C1067 C1059 1.503 . S
C1067 C1066 1.370 . S
C1067 C1068 1.403 . S
C1068 C1067 1.403 . S
C1068 C1069 1.404 1_655 S
C1068 C1071 1.539 . S
C1069 C1065 1.408 . S
C1069 C1068 1.404 1_455 S
C1069 H1081 0.930 . S
C1070 C1066 1.524 . S
C1070 H1082 0.956 . S
C1070 H1083 0.961 . S
C1070 H1084 0.961 . S
C1071 C1068 1.539 . S
C1071 H1085 0.958 . S
C1071 H1086 0.961 . S
C1071 H1087 0.960 . S
H1072 C1056 0.931 . S
H1073 C1061 0.929 . S
H1074 C1062 0.960 . S
H1075 C1062 0.962 . S
H1076 C1062 0.960 . S
H1077 C1063 0.961 . S
H1078 C1063 0.961 . S
H1079 C1063 0.961 . S
H1080 C1064 0.931 . S
H1081 C1069 0.930 . S
H1082 C1070 0.956 . S
H1083 C1070 0.961 . S
H1084 C1070 0.961 . S
H1085 C1071 0.958 . S
H1086 C1071 0.961 . S
H1087 C1071 0.960 . S
C1088 C1089 1.391 . S
C1088 C1090 1.394 . S
C1088 H1104 0.931 . S
C1089 C1088 1.391 . S
C1089 C1093 1.376 . S
C1090 C1088 1.394 . S
C1090 C1091 1.369 . S
C1090 C1094 1.531 . S
C1091 C1090 1.369 . S
C1091 C1092 1.410 . S
C1091 C1099 1.503 . S
C1092 C1091 1.410 . S
C1092 C1093 1.392 . S
C1092 C1095 1.511 . S
C1093 C1089 1.376 . S
C1093 C1092 1.392 . S
C1093 H1105 0.929 . S
C1094 C1090 1.531 . S
C1094 H1106 0.960 . S
C1094 H1107 0.962 . S
C1094 H1108 0.960 . S
C1095 C1092 1.511 . S
C1095 H1109 0.961 . S
C1095 H1110 0.961 . S
C1095 H1111 0.961 . S
C1096 C1097 1.370 . S
C1096 C1098 1.363 . S
C1096 H1112 0.931 . S
C1097 C1096 1.370 . S
C1097 C1101 1.408 . S
C1098 C1096 1.363 . S
C1098 C1099 1.370 . S
C1098 C1102 1.524 . S
C1099 C1091 1.503 . S
C1099 C1098 1.370 . S
C1099 C1100 1.403 . S
C1100 C1099 1.403 . S
C1100 C1101 1.404 . S
C1100 C1103 1.539 . S
C1101 C1097 1.408 . S
C1101 C1100 1.404 . S
C1101 H1113 0.930 . S
C1102 C1098 1.524 . S
C1102 H1114 0.956 . S
C1102 H1115 0.961 . S
C1102 H1116 0.961 . S
C1103 C1100 1.539 . S
C1103 H1117 0.958 . S
C1103 H1118 0.961 . S
C1103 H1119 0.960 . S
H1104 C1088 0.931 . S
H1105 C1093 0.929 . S
H1106 C1094 0.960 . S
H1107 C1094 0.962 . S
H1108 C1094 0.960 . S
H1109 C1095 0.961 . S
H1110 C1095 0.961 . S
H1111 C1095 0.961 . S
H1112 C1096 0.931 . S
H1113 C1101 0.930 . S
H1114 C1102 0.956 . S
H1115 C1102 0.961 . S
H1116 C1102 0.961 . S
H1117 C1103 0.958 . S
H1118 C1103 0.961 . S
H1119 C1103 0.960 . S
C1120 C1121 1.391 . S
C1120 C1122 1.394 . S
C1120 H1136 0.931 1_565 S
C1121 C1120 1.391 . S
C1121 C1125 1.376 . S
C1122 C1120 1.394 . S
C1122 C1123 1.369 . S
C1122 C1126 1.531 1_565 S
C1123 C1122 1.369 . S
C1123 C1124 1.410 . S
C1123 C1131 1.503 . S
C1124 C1123 1.410 . S
C1124 C1125 1.392 . S
C1124 C1127 1.511 . S
C1125 C1121 1.376 . S
C1125 C1124 1.392 . S
C1125 H1137 0.929 . S
C1126 C1122 1.531 1_545 S
C1126 H1138 0.960 . S
C1126 H1139 0.962 . S
C1126 H1140 0.960 . S
C1127 C1124 1.511 . S
C1127 H1141 0.961 . S
C1127 H1142 0.961 . S
C1127 H1143 0.961 . S
C1128 C1129 1.370 . S
C1128 C1130 1.363 1_455 S
C1128 H1144 0.931 . S
C1129 C1128 1.370 . S
C1129 C1133 1.408 1_565 S
C1130 C1128 1.363 1_655 S
C1130 C1131 1.370 . S
C1130 C1134 1.524 . S
C1131 C1123 1.503 . S
C1131 C1130 1.370 . S
C1131 C1132 1.403 1_565 S
C1132 C1131 1.403 1_545 S
C1132 C1133 1.404 1_655 S
C1132 C1135 1.539 . S
C1133 C1129 1.408 1_545 S
C1133 C1132 1.404 1_455 S
C1133 H1145 0.930 . S
C1134 C1130 1.524 . S
C1134 H1146 0.956 . S
C1134 H1147 0.961 . S
C1134 H1148 0.961 . S
C1135 C1132 1.539 . S
C1135 H1149 0.958 . S
C1135 H1150 0.961 1_655 S
C1135 H1151 0.960 . S
H1136 C1120 0.931 1_545 S
H1137 C1125 0.929 . S
H1138 C1126 0.960 . S
H1139 C1126 0.962 . S
H1140 C1126 0.960 . S
H1141 C1127 0.961 . S
H1142 C1127 0.961 . S
H1143 C1127 0.961 . S
H1144 C1128 0.931 . S
H1145 C1133 0.930 . S
H1146 C1134 0.956 . S
H1147 C1134 0.961 . S
H1148 C1134 0.961 . S
H1149 C1135 0.958 . S
H1150 C1135 0.961 1_455 S
H1151 C1135 0.960 . S
C1152 C1153 1.391 . S
C1152 C1154 1.394 . S
C1152 H1168 0.931 . S
C1153 C1152 1.391 . S
C1153 C1157 1.376 . S
C1154 C1152 1.394 . S
C1154 C1155 1.369 . S
C1154 C1158 1.531 . S
C1155 C1154 1.369 . S
C1155 C1156 1.410 . S
C1155 C1163 1.503 . S
C1156 C1155 1.410 . S
C1156 C1157 1.392 . S
C1156 C1159 1.511 . S
C1157 C1153 1.376 . S
C1157 C1156 1.392 . S
C1157 H1169 0.929 . S
C1158 C1154 1.531 . S
C1158 H1170 0.960 . S
C1158 H1171 0.962 . S
C1158 H1172 0.960 . S
C1159 C1156 1.511 . S
C1159 H1173 0.961 . S
C1159 H1174 0.961 . S
C1159 H1175 0.961 . S
C1160 C1161 1.370 . S
C1160 C1162 1.363 . S
C1160 H1176 0.931 . S
C1161 C1160 1.370 . S
C1161 C1165 1.408 . S
C1162 C1160 1.363 . S
C1162 C1163 1.370 . S
C1162 C1166 1.524 . S
C1163 C1155 1.503 . S
C1163 C1162 1.370 . S
C1163 C1164 1.403 . S
C1164 C1163 1.403 . S
C1164 C1165 1.404 . S
C1164 C1167 1.539 . S
C1165 C1161 1.408 . S
C1165 C1164 1.404 . S
C1165 H1177 0.930 . S
C1166 C1162 1.524 . S
C1166 H1178 0.956 . S
C1166 H1179 0.961 . S
C1166 H1180 0.961 . S
C1167 C1164 1.539 . S
C1167 H1181 0.958 . S
C1167 H1182 0.961 . S
C1167 H1183 0.960 . S
H1168 C1152 0.931 . S
H1169 C1157 0.929 . S
H1170 C1158 0.960 . S
H1171 C1158 0.962 . S
H1172 C1158 0.960 . S
H1173 C1159 0.961 . S
H1174 C1159 0.961 . S
H1175 C1159 0.961 . S
H1176 C1160 0.931 . S
H1177 C1165 0.930 . S
H1178 C1166 0.956 . S
H1179 C1166 0.961 . S
H1180 C1166 0.961 . S
H1181 C1167 0.958 . S
H1182 C1167 0.961 . S
H1183 C1167 0.960 . S
C1184 C1185 1.391 . S
C1184 C1186 1.394 . S
C1184 H1200 0.931 . S
C1185 C1184 1.391 . S
C1185 C1189 1.376 . S
C1186 C1184 1.394 . S
C1186 C1187 1.369 . S
C1186 C1190 1.531 1_545 S
C1187 C1186 1.369 . S
C1187 C1188 1.410 . S
C1187 C1195 1.503 . S
C1188 C1187 1.410 . S
C1188 C1189 1.392 . S
C1188 C1191 1.511 . S
C1189 C1185 1.376 . S
C1189 C1188 1.392 . S
C1189 H1201 0.929 . S
C1190 C1186 1.531 1_565 S
C1190 H1202 0.960 . S
C1190 H1203 0.962 1_565 S
C1190 H1204 0.960 . S
C1191 C1188 1.511 . S
C1191 H1205 0.961 . S
C1191 H1206 0.961 . S
C1191 H1207 0.961 . S
C1192 C1193 1.370 . S
C1192 C1194 1.363 . S
C1192 H1208 0.931 . S
C1193 C1192 1.370 . S
C1193 C1197 1.408 1_545 S
C1194 C1192 1.363 . S
C1194 C1195 1.370 . S
C1194 C1198 1.524 . S
C1195 C1187 1.503 . S
C1195 C1194 1.370 . S
C1195 C1196 1.403 1_545 S
C1196 C1195 1.403 1_565 S
C1196 C1197 1.404 . S
C1196 C1199 1.539 . S
C1197 C1193 1.408 1_565 S
C1197 C1196 1.404 . S
C1197 H1209 0.930 . S
C1198 C1194 1.524 . S
C1198 H1210 0.956 . S
C1198 H1211 0.961 . S
C1198 H1212 0.961 . S
C1199 C1196 1.539 . S
C1199 H1213 0.958 . S
C1199 H1214 0.961 . S
C1199 H1215 0.960 . S
H1200 C1184 0.931 . S
H1201 C1189 0.929 . S
H1202 C1190 0.960 . S
H1203 C1190 0.962 1_545 S
H1204 C1190 0.960 . S
H1205 C1191 0.961 . S
H1206 C1191 0.961 . S
H1207 C1191 0.961 . S
H1208 C1192 0.931 . S
H1209 C1197 0.930 . S
H1210 C1198 0.956 . S
H1211 C1198 0.961 . S
H1212 C1198 0.961 . S
H1213 C1199 0.958 . S
H1214 C1199 0.961 . S
H1215 C1199 0.960 . S
C1216 C1217 1.391 . S
C1216 C1218 1.394 . S
C1216 H1232 0.931 . S
C1217 C1216 1.391 . S
C1217 C1221 1.376 . S
C1218 C1216 1.394 . S
C1218 C1219 1.369 . S
C1218 C1222 1.531 . S
C1219 C1218 1.369 . S
C1219 C1220 1.410 . S
C1219 C1227 1.503 . S
C1220 C1219 1.410 . S
C1220 C1221 1.392 . S
C1220 C1223 1.511 . S
C1221 C1217 1.376 . S
C1221 C1220 1.392 . S
C1221 H1233 0.929 . S
C1222 C1218 1.531 . S
C1222 H1234 0.960 . S
C1222 H1235 0.962 . S
C1222 H1236 0.960 . S
C1223 C1220 1.511 . S
C1223 H1237 0.961 . S
C1223 H1238 0.961 . S
C1223 H1239 0.961 . S
C1224 C1225 1.370 . S
C1224 C1226 1.363 . S
C1224 H1240 0.931 . S
C1225 C1224 1.370 . S
C1225 C1229 1.408 . S
C1226 C1224 1.363 . S
C1226 C1227 1.370 . S
C1226 C1230 1.524 . S
C1227 C1219 1.503 . S
C1227 C1226 1.370 . S
C1227 C1228 1.403 . S
C1228 C1227 1.403 . S
C1228 C1229 1.404 . S
C1228 C1231 1.539 . S
C1229 C1225 1.408 . S
C1229 C1228 1.404 . S
C1229 H1241 0.930 . S
C1230 C1226 1.524 . S
C1230 H1242 0.956 . S
C1230 H1243 0.961 . S
C1230 H1244 0.961 . S
C1231 C1228 1.539 . S
C1231 H1245 0.958 . S
C1231 H1246 0.961 . S
C1231 H1247 0.960 . S
H1232 C1216 0.931 . S
H1233 C1221 0.929 . S
H1234 C1222 0.960 . S
H1235 C1222 0.962 . S
H1236 C1222 0.960 . S
H1237 C1223 0.961 . S
H1238 C1223 0.961 . S
H1239 C1223 0.961 . S
H1240 C1224 0.931 . S
H1241 C1229 0.930 . S
H1242 C1230 0.956 . S
H1243 C1230 0.961 . S
H1244 C1230 0.961 . S
H1245 C1231 0.958 . S
H1246 C1231 0.961 . S
H1247 C1231 0.960 . S
C1248 C1249 1.407 1_565 S
C1248 C1250 1.378 1_655 S
C1248 H1264 0.931 . S
C1249 C1248 1.407 1_545 S
C1249 C1253 1.376 . S
C1250 C1248 1.378 1_455 S
C1250 C1251 1.369 1_565 S
C1250 C1254 1.531 . S
C1251 C1250 1.369 1_545 S
C1251 C1252 1.410 1_455 S
C1251 C1259 1.503 . S
C1252 C1251 1.410 1_655 S
C1252 C1253 1.392 . S
C1252 C1255 1.511 . S
C1253 C1249 1.376 . S
C1253 C1252 1.392 . S
C1253 H1265 0.929 . S
C1254 C1250 1.531 . S
C1254 H1266 0.960 . S
C1254 H1267 0.962 . S
C1254 H1268 0.960 . S
C1255 C1252 1.511 . S
C1255 H1269 0.961 . S
C1255 H1270 0.961 1_655 S
C1255 H1271 0.961 . S
C1256 C1257 1.370 . S
C1256 C1258 1.363 . S
C1256 H1272 0.931 . S
C1257 C1256 1.370 . S
C1257 C1261 1.408 . S
C1258 C1256 1.363 . S
C1258 C1259 1.370 . S
C1258 C1262 1.524 . S
C1259 C1251 1.503 . S
C1259 C1258 1.370 . S
C1259 C1260 1.403 . S
C1260 C1259 1.403 . S
C1260 C1261 1.404 . S
C1260 C1263 1.539 1_545 S
C1261 C1257 1.408 . S
C1261 C1260 1.404 . S
C1261 H1273 0.930 . S
C1262 C1258 1.524 . S
C1262 H1274 0.956 . S
C1262 H1275 0.961 . S
C1262 H1276 0.961 . S
C1263 C1260 1.539 1_565 S
C1263 H1277 0.958 . S
C1263 H1278 0.961 . S
C1263 H1279 0.960 . S
H1264 C1248 0.931 . S
H1265 C1253 0.929 . S
H1266 C1254 0.960 . S
H1267 C1254 0.962 . S
H1268 C1254 0.960 . S
H1269 C1255 0.961 . S
H1270 C1255 0.961 1_455 S
H1271 C1255 0.961 . S
H1272 C1256 0.931 . S
H1273 C1261 0.930 . S
H1274 C1262 0.956 . S
H1275 C1262 0.961 . S
H1276 C1262 0.961 . S
H1277 C1263 0.958 . S
H1278 C1263 0.961 . S
H1279 C1263 0.960 . S
C1280 C1281 1.391 . S
C1280 C1282 1.394 . S
C1280 H1296 0.931 . S
C1281 C1280 1.391 . S
C1281 C1285 1.376 . S
C1282 C1280 1.394 . S
C1282 C1283 1.369 . S
C1282 C1286 1.531 . S
C1283 C1282 1.369 . S
C1283 C1284 1.410 . S
C1283 C1291 1.503 . S
C1284 C1283 1.410 . S
C1284 C1285 1.392 . S
C1284 C1287 1.511 . S
C1285 C1281 1.376 . S
C1285 C1284 1.392 . S
C1285 H1297 0.929 . S
C1286 C1282 1.531 . S
C1286 H1298 0.960 . S
C1286 H1299 0.962 . S
C1286 H1300 0.960 . S
C1287 C1284 1.511 . S
C1287 H1301 0.961 . S
C1287 H1302 0.961 . S
C1287 H1303 0.961 . S
C1288 C1289 1.370 . S
C1288 C1290 1.363 . S
C1288 H1304 0.931 . S
C1289 C1288 1.370 . S
C1289 C1293 1.408 . S
C1290 C1288 1.363 . S
C1290 C1291 1.370 . S
C1290 C1294 1.524 . S
C1291 C1283 1.503 . S
C1291 C1290 1.370 . S
C1291 C1292 1.403 . S
C1292 C1291 1.403 . S
C1292 C1293 1.404 . S
C1292 C1295 1.539 . S
C1293 C1289 1.408 . S
C1293 C1292 1.404 . S
C1293 H1305 0.930 . S
C1294 C1290 1.524 . S
C1294 H1306 0.956 . S
C1294 H1307 0.961 . S
C1294 H1308 0.961 . S
C1295 C1292 1.539 . S
C1295 H1309 0.958 . S
C1295 H1310 0.961 . S
C1295 H1311 0.960 . S
H1296 C1280 0.931 . S
H1297 C1285 0.929 . S
H1298 C1286 0.960 . S
H1299 C1286 0.962 . S
H1300 C1286 0.960 . S
H1301 C1287 0.961 . S
H1302 C1287 0.961 . S
H1303 C1287 0.961 . S
H1304 C1288 0.931 . S
H1305 C1293 0.930 . S
H1306 C1294 0.956 . S
H1307 C1294 0.961 . S
H1308 C1294 0.961 . S
H1309 C1295 0.958 . S
H1310 C1295 0.961 . S
H1311 C1295 0.960 . S
C1312 C1313 1.391 . S
C1312 C1314 1.394 . S
C1312 H1328 0.931 . S
C1313 C1312 1.391 . S
C1313 C1317 1.376 1_565 S
C1314 C1312 1.394 . S
C1314 C1315 1.369 . S
C1314 C1318 1.531 . S
C1315 C1314 1.369 . S
C1315 C1316 1.410 . S
C1315 C1323 1.503 . S
C1316 C1315 1.410 . S
C1316 C1317 1.392 1_565 S
C1316 C1319 1.511 1_565 S
C1317 C1313 1.376 1_545 S
C1317 C1316 1.392 1_545 S
C1317 H1329 0.929 . S
C1318 C1314 1.531 . S
C1318 H1330 0.960 . S
C1318 H1331 0.962 . S
C1318 H1332 0.960 . S
C1319 C1316 1.511 1_545 S
C1319 H1333 0.961 . S
C1319 H1334 0.961 . S
C1319 H1335 0.961 1_545 S
C1320 C1321 1.370 . S
C1320 C1322 1.363 . S
C1320 H1336 0.931 1_565 S
C1321 C1320 1.370 . S
C1321 C1325 1.408 . S
C1322 C1320 1.363 . S
C1322 C1323 1.370 . S
C1322 C1326 1.524 1_565 S
C1323 C1315 1.503 . S
C1323 C1322 1.370 . S
C1323 C1324 1.403 . S
C1324 C1323 1.403 . S
C1324 C1325 1.404 . S
C1324 C1327 1.539 . S
C1325 C1321 1.408 . S
C1325 C1324 1.404 . S
C1325 H1337 0.930 . S
C1326 C1322 1.524 1_545 S
C1326 H1338 0.956 . S
C1326 H1339 0.961 . S
C1326 H1340 0.961 . S
C1327 C1324 1.539 . S
C1327 H1341 0.958 . S
C1327 H1342 0.961 . S
C1327 H1343 0.960 . S
H1328 C1312 0.931 . S
H1329 C1317 0.929 . S
H1330 C1318 0.960 . S
H1331 C1318 0.962 . S
H1332 C1318 0.960 . S
H1333 C1319 0.961 . S
H1334 C1319 0.961 . S
H1335 C1319 0.961 1_565 S
H1336 C1320 0.931 1_545 S
H1337 C1325 0.930 . S
H1338 C1326 0.956 . S
H1339 C1326 0.961 . S
H1340 C1326 0.961 . S
H1341 C1327 0.958 . S
H1342 C1327 0.961 . S
H1343 C1327 0.960 . S
C1344 C1345 1.391 . S
C1344 C1346 1.394 . S
C1344 H1360 0.931 . S
C1345 C1344 1.391 . S
C1345 C1349 1.376 . S
C1346 C1344 1.394 . S
C1346 C1347 1.369 . S
C1346 C1350 1.531 . S
C1347 C1346 1.369 . S
C1347 C1348 1.410 . S
C1347 C1355 1.503 . S
C1348 C1347 1.410 . S
C1348 C1349 1.392 . S
C1348 C1351 1.511 . S
C1349 C1345 1.376 . S
C1349 C1348 1.392 . S
C1349 H1361 0.929 . S
C1350 C1346 1.531 . S
C1350 H1362 0.960 . S
C1350 H1363 0.962 . S
C1350 H1364 0.960 1_545 S
C1351 C1348 1.511 . S
C1351 H1365 0.961 . S
C1351 H1366 0.961 . S
C1351 H1367 0.961 . S
C1352 C1353 1.370 . S
C1352 C1354 1.363 . S
C1352 H1368 0.931 . S
C1353 C1352 1.370 . S
C1353 C1357 1.408 . S
C1354 C1352 1.363 . S
C1354 C1355 1.370 . S
C1354 C1358 1.524 . S
C1355 C1347 1.503 . S
C1355 C1354 1.370 . S
C1355 C1356 1.403 . S
C1356 C1355 1.403 . S
C1356 C1357 1.404 . S
C1356 C1359 1.539 . S
C1357 C1353 1.408 . S
C1357 C1356 1.404 . S
C1357 H1369 0.930 . S
C1358 C1354 1.524 . S
C1358 H1370 0.956 . S
C1358 H1371 0.961 . S
C1358 H1372 0.961 . S
C1359 C1356 1.539 . S
C1359 H1373 0.958 . S
C1359 H1374 0.961 . S
C1359 H1375 0.960 . S
H1360 C1344 0.931 . S
H1361 C1349 0.929 . S
H1362 C1350 0.960 . S
H1363 C1350 0.962 . S
H1364 C1350 0.960 1_565 S
H1365 C1351 0.961 . S
H1366 C1351 0.961 . S
H1367 C1351 0.961 . S
H1368 C1352 0.931 . S
H1369 C1357 0.930 . S
H1370 C1358 0.956 . S
H1371 C1358 0.961 . S
H1372 C1358 0.961 . S
H1373 C1359 0.958 . S
H1374 C1359 0.961 . S
H1375 C1359 0.960 . S
C1376 C1377 1.391 . S
C1376 C1378 1.394 . S
C1376 H1392 0.931 . S
C1377 C1376 1.391 . S
C1377 C1381 1.376 . S
C1378 C1376 1.394 . S
C1378 C1379 1.369 . S
C1378 C1382 1.531 . S
C1379 C1378 1.369 . S
C1379 C1380 1.410 . S
C1379 C1387 1.503 . S
C1380 C1379 1.410 . S
C1380 C1381 1.392 . S
C1380 C1383 1.511 . S
C1381 C1377 1.376 . S
C1381 C1380 1.392 . S
C1381 H1393 0.929 . S
C1382 C1378 1.531 . S
C1382 H1394 0.960 . S
C1382 H1395 0.962 . S
C1382 H1396 0.960 . S
C1383 C1380 1.511 . S
C1383 H1397 0.961 . S
C1383 H1398 0.961 . S
C1383 H1399 0.961 . S
C1384 C1385 1.370 . S
C1384 C1386 1.363 . S
C1384 H1400 0.931 . S
C1385 C1384 1.370 . S
C1385 C1389 1.408 . S
C1386 C1384 1.363 . S
C1386 C1387 1.370 . S
C1386 C1390 1.524 . S
C1387 C1379 1.503 . S
C1387 C1386 1.370 . S
C1387 C1388 1.403 . S
C1388 C1387 1.403 . S
C1388 C1389 1.404 . S
C1388 C1391 1.539 . S
C1389 C1385 1.408 . S
C1389 C1388 1.404 . S
C1389 H1401 0.930 . S
C1390 C1386 1.524 . S
C1390 H1402 0.956 . S
C1390 H1403 0.961 . S
C1390 H1404 0.961 . S
C1391 C1388 1.539 . S
C1391 H1405 0.958 . S
C1391 H1406 0.961 . S
C1391 H1407 0.960 . S
H1392 C1376 0.931 . S
H1393 C1381 0.929 . S
H1394 C1382 0.960 . S
H1395 C1382 0.962 . S
H1396 C1382 0.960 . S
H1397 C1383 0.961 . S
H1398 C1383 0.961 . S
H1399 C1383 0.961 . S
H1400 C1384 0.931 . S
H1401 C1389 0.930 . S
H1402 C1390 0.956 . S
H1403 C1390 0.961 . S
H1404 C1390 0.961 . S
H1405 C1391 0.958 . S
H1406 C1391 0.961 . S
H1407 C1391 0.960 . S
C1408 C1409 1.391 . S
C1408 C1410 1.394 . S
C1408 H1424 0.931 . S
C1409 C1408 1.391 . S
C1409 C1413 1.376 . S
C1410 C1408 1.394 . S
C1410 C1411 1.369 . S
C1410 C1414 1.531 . S
C1411 C1410 1.369 . S
C1411 C1412 1.410 . S
C1411 C1419 1.503 . S
C1412 C1411 1.410 . S
C1412 C1413 1.392 . S
C1412 C1415 1.511 . S
C1413 C1409 1.376 . S
C1413 C1412 1.392 . S
C1413 H1425 0.929 . S
C1414 C1410 1.531 . S
C1414 H1426 0.960 . S
C1414 H1427 0.962 . S
C1414 H1428 0.960 . S
C1415 C1412 1.511 . S
C1415 H1429 0.961 . S
C1415 H1430 0.961 . S
C1415 H1431 0.961 . S
C1416 C1417 1.370 . S
C1416 C1418 1.363 . S
C1416 H1432 0.931 . S
C1417 C1416 1.370 . S
C1417 C1421 1.408 . S
C1418 C1416 1.363 . S
C1418 C1419 1.370 . S
C1418 C1422 1.524 . S
C1419 C1411 1.503 . S
C1419 C1418 1.370 . S
C1419 C1420 1.403 . S
C1420 C1419 1.403 . S
C1420 C1421 1.404 . S
C1420 C1423 1.539 . S
C1421 C1417 1.408 . S
C1421 C1420 1.404 . S
C1421 H1433 0.930 . S
C1422 C1418 1.524 . S
C1422 H1434 0.956 . S
C1422 H1435 0.961 . S
C1422 H1436 0.961 1_565 S
C1423 C1420 1.539 . S
C1423 H1437 0.958 . S
C1423 H1438 0.961 . S
C1423 H1439 0.960 . S
H1424 C1408 0.931 . S
H1425 C1413 0.929 . S
H1426 C1414 0.960 . S
H1427 C1414 0.962 . S
H1428 C1414 0.960 . S
H1429 C1415 0.961 . S
H1430 C1415 0.961 . S
H1431 C1415 0.961 . S
H1432 C1416 0.931 . S
H1433 C1421 0.930 . S
H1434 C1422 0.956 . S
H1435 C1422 0.961 . S
H1436 C1422 0.961 1_545 S
H1437 C1423 0.958 . S
H1438 C1423 0.961 . S
H1439 C1423 0.960 . S
C1440 C1441 1.391 . S
C1440 C1442 1.394 . S
C1440 H1456 0.931 . S
C1441 C1440 1.391 . S
C1441 C1445 1.376 . S
C1442 C1440 1.394 . S
C1442 C1443 1.369 . S
C1442 C1446 1.531 . S
C1443 C1442 1.369 . S
C1443 C1444 1.410 . S
C1443 C1451 1.503 . S
C1444 C1443 1.410 . S
C1444 C1445 1.392 . S
C1444 C1447 1.511 . S
C1445 C1441 1.376 . S
C1445 C1444 1.392 . S
C1445 H1457 0.929 . S
C1446 C1442 1.531 . S
C1446 H1458 0.960 . S
C1446 H1459 0.962 . S
C1446 H1460 0.960 . S
C1447 C1444 1.511 . S
C1447 H1461 0.961 . S
C1447 H1462 0.961 . S
C1447 H1463 0.961 . S
C1448 C1449 1.370 . S
C1448 C1450 1.363 . S
C1448 H1464 0.931 . S
C1449 C1448 1.370 . S
C1449 C1453 1.408 . S
C1450 C1448 1.363 . S
C1450 C1451 1.370 . S
C1450 C1454 1.524 . S
C1451 C1443 1.503 . S
C1451 C1450 1.370 . S
C1451 C1452 1.403 . S
C1452 C1451 1.403 . S
C1452 C1453 1.404 . S
C1452 C1455 1.539 . S
C1453 C1449 1.408 . S
C1453 C1452 1.404 . S
C1453 H1465 0.930 . S
C1454 C1450 1.524 . S
C1454 H1466 0.956 . S
C1454 H1467 0.961 . S
C1454 H1468 0.961 . S
C1455 C1452 1.539 . S
C1455 H1469 0.958 . S
C1455 H1470 0.961 . S
C1455 H1471 0.960 . S
H1456 C1440 0.931 . S
H1457 C1445 0.929 . S
H1458 C1446 0.960 . S
H1459 C1446 0.962 . S
H1460 C1446 0.960 . S
H1461 C1447 0.961 . S
H1462 C1447 0.961 . S
H1463 C1447 0.961 . S
H1464 C1448 0.931 . S
H1465 C1453 0.930 . S
H1466 C1454 0.956 . S
H1467 C1454 0.961 . S
H1468 C1454 0.961 . S
H1469 C1455 0.958 . S
H1470 C1455 0.961 . S
H1471 C1455 0.960 . S
C1472 C1473 1.391 . S
C1472 C1474 1.394 . S
C1472 H1488 0.931 . S
C1473 C1472 1.391 . S
C1473 C1477 1.376 . S
C1474 C1472 1.394 . S
C1474 C1475 1.369 . S
C1474 C1478 1.531 . S
C1475 C1474 1.369 . S
C1475 C1476 1.410 . S
C1475 C1483 1.503 . S
C1476 C1475 1.410 . S
C1476 C1477 1.392 . S
C1476 C1479 1.511 . S
C1477 C1473 1.376 . S
C1477 C1476 1.392 . S
C1477 H1489 0.929 . S
C1478 C1474 1.531 . S
C1478 H1490 0.960 . S
C1478 H1491 0.962 . S
C1478 H1492 0.960 . S
C1479 C1476 1.511 . S
C1479 H1493 0.961 . S
C1479 H1494 0.961 . S
C1479 H1495 0.961 . S
C1480 C1481 1.370 . S
C1480 C1482 1.363 . S
C1480 H1496 0.931 . S
C1481 C1480 1.370 . S
C1481 C1485 1.408 . S
C1482 C1480 1.363 . S
C1482 C1483 1.370 . S
C1482 C1486 1.524 . S
C1483 C1475 1.503 . S
C1483 C1482 1.370 . S
C1483 C1484 1.403 . S
C1484 C1483 1.403 . S
C1484 C1485 1.404 . S
C1484 C1487 1.539 . S
C1485 C1481 1.408 . S
C1485 C1484 1.404 . S
C1485 H1497 0.930 . S
C1486 C1482 1.524 . S
C1486 H1498 0.956 . S
C1486 H1499 0.961 . S
C1486 H1500 0.948 1_565 S
C1487 C1484 1.539 . S
C1487 H1501 0.958 . S
C1487 H1502 0.961 . S
C1487 H1503 0.960 . S
H1488 C1472 0.931 . S
H1489 C1477 0.929 . S
H1490 C1478 0.960 . S
H1491 C1478 0.962 . S
H1492 C1478 0.960 . S
H1493 C1479 0.961 . S
H1494 C1479 0.961 . S
H1495 C1479 0.961 . S
H1496 C1480 0.931 . S
H1497 C1485 0.930 . S
H1498 C1486 0.956 . S
H1499 C1486 0.961 . S
H1500 C1486 0.948 1_545 S
H1501 C1487 0.958 . S
H1502 C1487 0.961 . S
H1503 C1487 0.960 . S
C1504 C1505 1.391 . S
C1504 C1506 1.394 . S
C1504 H1520 0.931 . S
C1505 C1504 1.391 . S
C1505 C1509 1.376 . S
C1506 C1504 1.394 . S
C1506 C1507 1.369 . S
C1506 C1510 1.531 . S
C1507 C1506 1.369 . S
C1507 C1508 1.410 . S
C1507 C1515 1.503 . S
C1508 C1507 1.410 . S
C1508 C1509 1.392 . S
C1508 C1511 1.511 . S
C1509 C1505 1.376 . S
C1509 C1508 1.392 . S
C1509 H1521 0.929 . S
C1510 C1506 1.531 . S
C1510 H1522 0.960 . S
C1510 H1523 0.962 . S
C1510 H1524 0.960 . S
C1511 C1508 1.511 . S
C1511 H1525 0.961 . S
C1511 H1526 0.961 . S
C1511 H1527 0.961 . S
C1512 C1513 1.370 . S
C1512 C1514 1.363 . S
C1512 H1528 0.931 . S
C1513 C1512 1.370 . S
C1513 C1517 1.408 . S
C1514 C1512 1.363 . S
C1514 C1515 1.370 . S
C1514 C1518 1.524 . S
C1515 C1507 1.503 . S
C1515 C1514 1.370 . S
C1515 C1516 1.403 . S
C1516 C1515 1.403 . S
C1516 C1517 1.404 . S
C1516 C1519 1.539 . S
C1517 C1513 1.408 . S
C1517 C1516 1.404 . S
C1517 H1529 0.930 . S
C1518 C1514 1.524 . S
C1518 H1530 0.956 . S
C1518 H1531 0.961 . S
C1518 H1532 0.961 . S
C1519 C1516 1.539 . S
C1519 H1533 0.958 . S
C1519 H1534 0.961 . S
C1519 H1535 0.960 . S
H1520 C1504 0.931 . S
H1521 C1509 0.929 . S
H1522 C1510 0.960 . S
H1523 C1510 0.962 . S
H1524 C1510 0.960 . S
H1525 C1511 0.961 . S
H1526 C1511 0.961 . S
H1527 C1511 0.961 . S
H1528 C1512 0.931 . S
H1529 C1517 0.930 . S
H1530 C1518 0.956 . S
H1531 C1518 0.961 . S
H1532 C1518 0.961 . S
H1533 C1519 0.958 . S
H1534 C1519 0.961 . S
H1535 C1519 0.960 . S
C1536 C1537 1.391 . S
C1536 C1538 1.394 . S
C1536 H1552 0.931 . S
C1537 C1536 1.391 . S
C1537 C1541 1.376 . S
C1538 C1536 1.394 . S
C1538 C1539 1.369 . S
C1538 C1542 1.531 . S
C1539 C1538 1.369 . S
C1539 C1540 1.410 . S
C1539 C1547 1.503 . S
C1540 C1539 1.410 . S
C1540 C1541 1.392 . S
C1540 C1543 1.511 . S
C1541 C1537 1.376 . S
C1541 C1540 1.392 . S
C1541 H1553 0.929 . S
C1542 C1538 1.531 . S
C1542 H1554 0.960 . S
C1542 H1555 0.962 . S
C1542 H1556 0.960 . S
C1543 C1540 1.511 . S
C1543 H1557 0.961 . S
C1543 H1558 0.961 . S
C1543 H1559 0.961 . S
C1544 C1545 1.370 . S
C1544 C1546 1.363 . S
C1544 H1560 0.931 . S
C1545 C1544 1.370 . S
C1545 C1549 1.408 . S
C1546 C1544 1.363 . S
C1546 C1547 1.370 . S
C1546 C1550 1.524 . S
C1547 C1539 1.503 . S
C1547 C1546 1.370 . S
C1547 C1548 1.403 . S
C1548 C1547 1.403 . S
C1548 C1549 1.404 . S
C1548 C1551 1.539 . S
C1549 C1545 1.408 . S
C1549 C1548 1.404 . S
C1549 H1561 0.930 . S
C1550 C1546 1.524 . S
C1550 H1562 0.956 . S
C1550 H1563 0.961 . S
C1550 H1564 0.961 . S
C1551 C1548 1.539 . S
C1551 H1565 0.958 . S
C1551 H1566 0.961 . S
C1551 H1567 0.960 . S
H1552 C1536 0.931 . S
H1553 C1541 0.929 . S
H1554 C1542 0.960 . S
H1555 C1542 0.962 . S
H1556 C1542 0.960 . S
H1557 C1543 0.961 . S
H1558 C1543 0.961 . S
H1559 C1543 0.961 . S
H1560 C1544 0.931 . S
H1561 C1549 0.930 . S
H1562 C1550 0.956 . S
H1563 C1550 0.961 . S
H1564 C1550 0.961 . S
H1565 C1551 0.958 . S
H1566 C1551 0.961 . S
H1567 C1551 0.960 . S
C1568 C1569 1.391 . S
C1568 C1570 1.394 . S
C1568 H1584 0.931 . S
C1569 C1568 1.391 . S
C1569 C1573 1.376 . S
C1570 C1568 1.394 . S
C1570 C1571 1.369 . S
C1570 C1574 1.531 . S
C1571 C1570 1.369 . S
C1571 C1572 1.410 . S
C1571 C1579 1.503 . S
C1572 C1571 1.410 . S
C1572 C1573 1.392 . S
C1572 C1575 1.511 . S
C1573 C1569 1.376 . S
C1573 C1572 1.392 . S
C1573 H1585 0.929 . S
C1574 C1570 1.531 . S
C1574 H1586 0.960 . S
C1574 H1587 0.962 . S
C1574 H1588 0.960 . S
C1575 C1572 1.511 . S
C1575 H1589 0.961 . S
C1575 H1590 0.961 . S
C1575 H1591 0.961 . S
C1576 C1577 1.370 . S
C1576 C1578 1.363 . S
C1576 H1592 0.931 . S
C1577 C1576 1.370 . S
C1577 C1581 1.408 . S
C1578 C1576 1.363 . S
C1578 C1579 1.370 . S
C1578 C1582 1.524 . S
C1579 C1571 1.503 . S
C1579 C1578 1.370 . S
C1579 C1580 1.403 . S
C1580 C1579 1.403 . S
C1580 C1581 1.404 . S
C1580 C1583 1.539 . S
C1581 C1577 1.408 . S
C1581 C1580 1.404 . S
C1581 H1593 0.930 . S
C1582 C1578 1.524 . S
C1582 H1594 0.956 . S
C1582 H1595 0.961 . S
C1582 H1596 0.961 . S
C1583 C1580 1.539 . S
C1583 H1597 0.958 . S
C1583 H1598 0.961 . S
C1583 H1599 0.960 . S
H1584 C1568 0.931 . S
H1585 C1573 0.929 . S
H1586 C1574 0.960 . S
H1587 C1574 0.962 . S
H1588 C1574 0.960 . S
H1589 C1575 0.961 . S
H1590 C1575 0.961 . S
H1591 C1575 0.961 . S
H1592 C1576 0.931 . S
H1593 C1581 0.930 . S
H1594 C1582 0.956 . S
H1595 C1582 0.961 . S
H1596 C1582 0.961 . S
H1597 C1583 0.958 . S
H1598 C1583 0.961 . S
H1599 C1583 0.960 . S
C1600 C1601 1.391 . S
C1600 C1602 1.394 . S
C1600 H1616 0.931 . S
C1601 C1600 1.391 . S
C1601 C1605 1.376 . S
C1602 C1600 1.394 . S
C1602 C1603 1.369 . S
C1602 C1606 1.531 . S
C1603 C1602 1.369 . S
C1603 C1604 1.410 . S
C1603 C1611 1.503 . S
C1604 C1603 1.410 . S
C1604 C1605 1.392 . S
C1604 C1607 1.511 . S
C1605 C1601 1.376 . S
C1605 C1604 1.392 . S
C1605 H1617 0.929 . S
C1606 C1602 1.531 . S
C1606 H1618 0.960 . S
C1606 H1619 0.962 . S
C1606 H1620 0.960 . S
C1607 C1604 1.511 . S
C1607 H1621 0.961 . S
C1607 H1622 0.961 . S
C1607 H1623 0.961 . S
C1608 C1609 1.370 . S
C1608 C1610 1.363 . S
C1608 H1624 0.931 . S
C1609 C1608 1.370 . S
C1609 C1613 1.408 . S
C1610 C1608 1.363 . S
C1610 C1611 1.370 . S
C1610 C1614 1.524 . S
C1611 C1603 1.503 . S
C1611 C1610 1.370 . S
C1611 C1612 1.403 . S
C1612 C1611 1.403 . S
C1612 C1613 1.404 . S
C1612 C1615 1.539 . S
C1613 C1609 1.408 . S
C1613 C1612 1.404 . S
C1613 H1625 0.930 . S
C1614 C1610 1.524 . S
C1614 H1626 0.956 . S
C1614 H1627 0.961 . S
C1614 H1628 0.961 . S
C1615 C1612 1.539 . S
C1615 H1629 0.958 . S
C1615 H1630 0.961 . S
C1615 H1631 0.960 . S
H1616 C1600 0.931 . S
H1617 C1605 0.929 . S
H1618 C1606 0.960 . S
H1619 C1606 0.962 . S
H1620 C1606 0.960 . S
H1621 C1607 0.961 . S
H1622 C1607 0.961 . S
H1623 C1607 0.961 . S
H1624 C1608 0.931 . S
H1625 C1613 0.930 . S
H1626 C1614 0.956 . S
H1627 C1614 0.961 . S
H1628 C1614 0.961 . S
H1629 C1615 0.958 . S
H1630 C1615 0.961 . S
H1631 C1615 0.960 . S
C1632 C1633 1.391 . S
C1632 C1634 1.394 . S
C1632 H1648 0.931 . S
C1633 C1632 1.391 . S
C1633 C1637 1.376 . S
C1634 C1632 1.394 . S
C1634 C1635 1.369 . S
C1634 C1638 1.531 . S
C1635 C1634 1.369 . S
C1635 C1636 1.410 . S
C1635 C1643 1.503 . S
C1636 C1635 1.410 . S
C1636 C1637 1.392 . S
C1636 C1639 1.511 . S
C1637 C1633 1.376 . S
C1637 C1636 1.392 . S
C1637 H1649 0.929 . S
C1638 C1634 1.531 . S
C1638 H1650 0.960 . S
C1638 H1651 0.962 . S
C1638 H1652 0.960 . S
C1639 C1636 1.511 . S
C1639 H1653 0.961 . S
C1639 H1654 0.961 . S
C1639 H1655 0.961 . S
C1640 C1641 1.370 . S
C1640 C1642 1.363 . S
C1640 H1656 0.931 . S
C1641 C1640 1.370 . S
C1641 C1645 1.408 1_545 S
C1642 C1640 1.363 . S
C1642 C1643 1.370 1_545 S
C1642 C1646 1.524 . S
C1643 C1635 1.503 . S
C1643 C1642 1.370 1_565 S
C1643 C1644 1.403 . S
C1644 C1643 1.403 . S
C1644 C1645 1.404 . S
C1644 C1647 1.539 . S
C1645 C1641 1.408 1_565 S
C1645 C1644 1.404 . S
C1645 H1657 0.930 . S
C1646 C1642 1.524 . S
C1646 H1658 0.956 . S
C1646 H1659 0.961 . S
C1646 H1660 0.961 . S
C1647 C1644 1.539 . S
C1647 H1661 0.958 . S
C1647 H1662 0.961 . S
C1647 H1663 0.960 . S
H1648 C1632 0.931 . S
H1649 C1637 0.929 . S
H1650 C1638 0.960 . S
H1651 C1638 0.962 . S
H1652 C1638 0.960 . S
H1653 C1639 0.961 . S
H1654 C1639 0.961 . S
H1655 C1639 0.961 . S
H1656 C1640 0.931 . S
H1657 C1645 0.930 . S
H1658 C1646 0.956 . S
H1659 C1646 0.961 . S
H1660 C1646 0.961 . S
H1661 C1647 0.958 . S
H1662 C1647 0.961 . S
H1663 C1647 0.960 . S
C1664 C1665 1.391 . S
C1664 C1666 1.394 . S
C1664 H1680 0.931 . S
C1665 C1664 1.391 . S
C1665 C1669 1.376 . S
C1666 C1664 1.394 . S
C1666 C1667 1.369 . S
C1666 C1670 1.531 . S
C1667 C1666 1.369 . S
C1667 C1668 1.410 . S
C1667 C1675 1.503 . S
C1668 C1667 1.410 . S
C1668 C1669 1.392 . S
C1668 C1671 1.511 . S
C1669 C1665 1.376 . S
C1669 C1668 1.392 . S
C1669 H1681 0.929 . S
C1670 C1666 1.531 . S
C1670 H1682 0.960 . S
C1670 H1683 0.962 . S
C1670 H1684 0.960 . S
C1671 C1668 1.511 . S
C1671 H1685 0.961 . S
C1671 H1686 0.961 . S
C1671 H1687 0.961 . S
C1672 C1673 1.370 . S
C1672 C1674 1.363 . S
C1672 H1688 0.931 . S
C1673 C1672 1.370 . S
C1673 C1677 1.408 . S
C1674 C1672 1.363 . S
C1674 C1675 1.370 . S
C1674 C1678 1.524 . S
C1675 C1667 1.503 . S
C1675 C1674 1.370 . S
C1675 C1676 1.403 . S
C1676 C1675 1.403 . S
C1676 C1677 1.404 . S
C1676 C1679 1.539 . S
C1677 C1673 1.408 . S
C1677 C1676 1.404 . S
C1677 H1689 0.956 . S
C1678 C1674 1.524 . S
C1678 H1690 0.956 . S
C1678 H1691 0.961 . S
C1678 H1692 0.961 . S
C1679 C1676 1.539 . S
C1679 H1693 0.958 . S
C1679 H1694 0.961 . S
C1679 H1695 0.960 . S
H1680 C1664 0.931 . S
H1681 C1669 0.929 . S
H1682 C1670 0.960 . S
H1683 C1670 0.962 . S
H1684 C1670 0.960 . S
H1685 C1671 0.961 . S
H1686 C1671 0.961 . S
H1687 C1671 0.961 . S
H1688 C1672 0.931 . S
H1689 C1677 0.956 . S
H1690 C1678 0.956 . S
H1691 C1678 0.961 . S
H1692 C1678 0.961 . S
H1693 C1679 0.958 . S
H1694 C1679 0.961 . S
H1695 C1679 0.960 . S
C1696 C1697 1.391 . S
C1696 C1698 1.394 1_565 S
C1696 H1712 0.931 . S
C1697 C1696 1.391 . S
C1697 C1701 1.376 1_565 S
C1698 C1696 1.394 1_545 S
C1698 C1699 1.369 . S
C1698 C1702 1.531 . S
C1699 C1698 1.369 . S
C1699 C1700 1.410 . S
C1699 C1707 1.503 . S
C1700 C1699 1.410 . S
C1700 C1701 1.392 . S
C1700 C1703 1.511 . S
C1701 C1697 1.376 1_545 S
C1701 C1700 1.392 . S
C1701 H1713 0.929 1_545 S
C1702 C1698 1.531 . S
C1702 H1714 0.960 . S
C1702 H1715 0.962 . S
C1702 H1716 0.960 1_545 S
C1703 C1700 1.511 . S
C1703 H1717 0.961 . S
C1703 H1718 0.961 . S
C1703 H1719 0.961 . S
C1704 C1705 1.370 . S
C1704 C1706 1.363 . S
C1704 H1720 0.931 . S
C1705 C1704 1.370 . S
C1705 C1709 1.408 . S
C1706 C1704 1.363 . S
C1706 C1707 1.370 . S
C1706 C1710 1.524 . S
C1707 C1699 1.503 . S
C1707 C1706 1.370 . S
C1707 C1708 1.403 . S
C1708 C1707 1.403 . S
C1708 C1709 1.404 . S
C1708 C1711 1.539 1_545 S
C1709 C1705 1.408 . S
C1709 C1708 1.404 . S
C1709 H1721 0.930 . S
C1710 C1706 1.524 . S
C1710 H1722 0.956 . S
C1710 H1723 0.961 . S
C1710 H1724 0.961 . S
C1711 C1708 1.539 1_565 S
C1711 H1725 0.958 . S
C1711 H1726 0.961 . S
C1711 H1727 0.960 . S
H1712 C1696 0.931 . S
H1713 C1701 0.929 1_565 S
H1714 C1702 0.960 . S
H1715 C1702 0.962 . S
H1716 C1702 0.960 1_565 S
H1717 C1703 0.961 . S
H1718 C1703 0.961 . S
H1719 C1703 0.961 . S
H1720 C1704 0.931 . S
H1721 C1709 0.930 . S
H1722 C1710 0.956 . S
H1723 C1710 0.961 . S
H1724 C1710 0.961 . S
H1725 C1711 0.958 . S
H1726 C1711 0.961 . S
H1727 C1711 0.960 . S
C1728 C1729 1.391 . S
C1728 C1730 1.394 . S
C1728 H1744 0.931 . S
C1729 C1728 1.391 . S
C1729 C1733 1.376 . S
C1730 C1728 1.394 . S
C1730 C1731 1.369 . S
C1730 C1734 1.531 . S
C1731 C1730 1.369 . S
C1731 C1732 1.410 . S
C1731 C1739 1.503 . S
C1732 C1731 1.410 . S
C1732 C1733 1.392 . S
C1732 C1735 1.511 . S
C1733 C1729 1.376 . S
C1733 C1732 1.392 . S
C1733 H1745 0.929 . S
C1734 C1730 1.531 . S
C1734 H1746 0.960 . S
C1734 H1747 0.962 . S
C1734 H1748 0.960 . S
C1735 C1732 1.511 . S
C1735 H1749 0.961 . S
C1735 H1750 0.961 . S
C1735 H1751 0.961 . S
C1736 C1737 1.370 . S
C1736 C1738 1.363 . S
C1736 H1752 0.931 . S
C1737 C1736 1.370 . S
C1737 C1741 1.408 . S
C1738 C1736 1.363 . S
C1738 C1739 1.370 . S
C1738 C1742 1.524 . S
C1739 C1731 1.503 . S
C1739 C1738 1.370 . S
C1739 C1740 1.403 . S
C1740 C1739 1.403 . S
C1740 C1741 1.404 . S
C1740 C1743 1.539 . S
C1741 C1737 1.408 . S
C1741 C1740 1.404 . S
C1741 H1753 0.930 . S
C1742 C1738 1.524 . S
C1742 H1754 0.956 . S
C1742 H1755 0.961 . S
C1742 H1756 0.961 . S
C1743 C1740 1.539 . S
C1743 H1757 0.958 . S
C1743 H1758 0.961 . S
C1743 H1759 0.960 . S
H1744 C1728 0.931 . S
H1745 C1733 0.929 . S
H1746 C1734 0.960 . S
H1747 C1734 0.962 . S
H1748 C1734 0.960 . S
H1749 C1735 0.961 . S
H1750 C1735 0.961 . S
H1751 C1735 0.961 . S
H1752 C1736 0.931 . S
H1753 C1741 0.930 . S
H1754 C1742 0.956 . S
H1755 C1742 0.961 . S
H1756 C1742 0.961 . S
H1757 C1743 0.958 . S
H1758 C1743 0.961 . S
H1759 C1743 0.960 . S
C1760 C1761 1.391 . S
C1760 C1762 1.394 . S
C1760 H1776 0.931 . S
C1761 C1760 1.391 . S
C1761 C1765 1.376 . S
C1762 C1760 1.394 . S
C1762 C1763 1.369 . S
C1762 C1766 1.531 . S
C1763 C1762 1.369 . S
C1763 C1764 1.410 . S
C1763 C1771 1.503 . S
C1764 C1763 1.410 . S
C1764 C1765 1.392 . S
C1764 C1767 1.511 . S
C1765 C1761 1.376 . S
C1765 C1764 1.392 . S
C1765 H1777 0.929 . S
C1766 C1762 1.531 . S
C1766 H1778 0.960 . S
C1766 H1779 0.962 . S
C1766 H1780 0.960 . S
C1767 C1764 1.511 . S
C1767 H1781 0.961 . S
C1767 H1782 0.961 . S
C1767 H1783 0.961 . S
C1768 C1769 1.370 . S
C1768 C1770 1.363 . S
C1768 H1784 0.931 . S
C1769 C1768 1.370 . S
C1769 C1773 1.408 1_565 S
C1770 C1768 1.363 . S
C1770 C1771 1.370 1_565 S
C1770 C1774 1.524 . S
C1771 C1763 1.503 . S
C1771 C1770 1.370 1_545 S
C1771 C1772 1.403 . S
C1772 C1771 1.403 . S
C1772 C1773 1.404 . S
C1772 C1775 1.539 . S
C1773 C1769 1.408 1_545 S
C1773 C1772 1.404 . S
C1773 H1785 0.930 . S
C1774 C1770 1.524 . S
C1774 H1786 0.956 . S
C1774 H1787 0.961 . S
C1774 H1788 0.961 . S
C1775 C1772 1.539 . S
C1775 H1789 0.958 . S
C1775 H1790 0.961 . S
C1775 H1791 0.960 . S
H1776 C1760 0.931 . S
H1777 C1765 0.929 . S
H1778 C1766 0.960 . S
H1779 C1766 0.962 . S
H1780 C1766 0.960 . S
H1781 C1767 0.961 . S
H1782 C1767 0.961 . S
H1783 C1767 0.961 . S
H1784 C1768 0.931 . S
H1785 C1773 0.930 . S
H1786 C1774 0.956 . S
H1787 C1774 0.961 . S
H1788 C1774 0.961 . S
H1789 C1775 0.958 . S
H1790 C1775 0.961 . S
H1791 C1775 0.960 . S
C1792 C1793 1.391 . S
C1792 C1794 1.394 . S
C1792 H1808 0.931 . S
C1793 C1792 1.391 . S
C1793 C1797 1.376 . S
C1794 C1792 1.394 . S
C1794 C1795 1.369 . S
C1794 C1798 1.531 . S
C1795 C1794 1.369 . S
C1795 C1796 1.410 . S
C1795 C1803 1.503 . S
C1796 C1795 1.410 . S
C1796 C1797 1.392 . S
C1796 C1799 1.511 . S
C1797 C1793 1.376 . S
C1797 C1796 1.392 . S
C1797 H1809 0.929 . S
C1798 C1794 1.531 . S
C1798 H1810 0.960 . S
C1798 H1811 0.962 . S
C1798 H1812 0.960 . S
C1799 C1796 1.511 . S
C1799 H1813 0.961 . S
C1799 H1814 0.961 . S
C1799 H1815 0.961 . S
C1800 C1801 1.370 . S
C1800 C1802 1.363 . S
C1800 H1816 0.931 . S
C1801 C1800 1.370 . S
C1801 C1805 1.408 . S
C1802 C1800 1.363 . S
C1802 C1803 1.370 . S
C1802 C1806 1.524 . S
C1803 C1795 1.503 . S
C1803 C1802 1.370 . S
C1803 C1804 1.403 . S
C1804 C1803 1.403 . S
C1804 C1805 1.404 . S
C1804 C1807 1.539 . S
C1805 C1801 1.408 . S
C1805 C1804 1.404 . S
C1805 H1817 0.930 . S
C1806 C1802 1.524 . S
C1806 H1818 0.956 . S
C1806 H1819 0.961 . S
C1806 H1820 0.961 . S
C1807 C1804 1.539 . S
C1807 H1821 0.958 . S
C1807 H1822 0.961 . S
C1807 H1823 0.960 . S
H1808 C1792 0.931 . S
H1809 C1797 0.929 . S
H1810 C1798 0.960 . S
H1811 C1798 0.962 . S
H1812 C1798 0.960 . S
H1813 C1799 0.961 . S
H1814 C1799 0.961 . S
H1815 C1799 0.961 . S
H1816 C1800 0.931 . S
H1817 C1805 0.930 . S
H1818 C1806 0.956 . S
H1819 C1806 0.961 . S
H1820 C1806 0.961 . S
H1821 C1807 0.958 . S
H1822 C1807 0.961 . S
H1823 C1807 0.960 . S
C1824 C1825 1.391 . S
C1824 C1826 1.394 . S
C1824 H1840 0.931 . S
C1825 C1824 1.391 . S
C1825 C1829 1.376 . S
C1826 C1824 1.394 . S
C1826 C1827 1.369 . S
C1826 C1830 1.516 1_565 S
C1827 C1826 1.369 . S
C1827 C1828 1.410 . S
C1827 C1835 1.503 . S
C1828 C1827 1.410 . S
C1828 C1829 1.392 . S
C1828 C1831 1.511 . S
C1829 C1825 1.376 . S
C1829 C1828 1.392 . S
C1829 H1841 0.929 . S
C1830 C1826 1.516 1_545 S
C1830 H1842 0.973 . S
C1830 H1843 0.954 1_545 S
C1830 H1844 0.970 . S
C1831 C1828 1.511 . S
C1831 H1845 0.961 . S
C1831 H1846 0.961 . S
C1831 H1847 0.961 . S
C1832 C1833 1.370 1_565 S
C1832 C1834 1.363 . S
C1832 H1848 0.931 . S
C1833 C1832 1.370 1_545 S
C1833 C1837 1.408 . S
C1834 C1832 1.363 . S
C1834 C1835 1.370 . S
C1834 C1838 1.524 . S
C1835 C1827 1.503 . S
C1835 C1834 1.370 . S
C1835 C1836 1.403 1_565 S
C1836 C1835 1.403 1_545 S
C1836 C1837 1.404 . S
C1836 C1839 1.539 . S
C1837 C1833 1.408 . S
C1837 C1836 1.404 . S
C1837 H1849 0.930 . S
C1838 C1834 1.524 . S
C1838 H1850 0.956 . S
C1838 H1851 0.961 . S
C1838 H1852 0.961 . S
C1839 C1836 1.539 . S
C1839 H1853 0.958 . S
C1839 H1854 0.961 . S
C1839 H1855 0.960 . S
H1840 C1824 0.931 . S
H1841 C1829 0.929 . S
H1842 C1830 0.973 . S
H1843 C1830 0.954 1_565 S
H1844 C1830 0.970 . S
H1845 C1831 0.961 . S
H1846 C1831 0.961 . S
H1847 C1831 0.961 . S
H1848 C1832 0.931 . S
H1849 C1837 0.930 . S
H1850 C1838 0.956 . S
H1851 C1838 0.961 . S
H1852 C1838 0.961 . S
H1853 C1839 0.958 . S
H1854 C1839 0.961 . S
H1855 C1839 0.960 . S
C321 C1 0.394 . S
C329 C201 0.457 . S
C353 C21 0.430 . S
C361 C221 0.445 . S
C385 C41 0.474 . S
C393 C161 0.445 . S
C417 C181 0.504 . S
C425 C61 0.521 . S
C449 C89 0.500 . S
C457 C289 0.445 . S
C481 C309 0.389 . S
C489 C109 0.479 . S
C513 C249 0.403 . S
C521 C129 0.500 . S
C545 C149 0.391 . S
C553 C269 0.473 . S
C577 C19 2.351 . S
C585 C88 2.328 . S
C609 C39 2.344 . S
C617 C268 2.333 . S
C641 C59 2.340 . S
C649 C128 2.331 . S
C673 C79 2.314 . S
C681 C308 2.343 . S
C705 C108 2.312 . S
C713 C199 2.345 . S
C737 C239 2.319 . S
C745 C148 2.343 . S
C769 C248 2.316 . S
C777 C179 2.344 . S
C801 C219 2.353 . S
C809 C288 2.328 . S
C833 C8 1.284 . S
C841 C141 1.378 . S
C865 C28 1.304 . S
C873 C241 1.374 . S
C897 C48 1.311 . S
C905 C101 1.379 . S
C929 C68 1.257 . S
C937 C281 1.375 . S
C961 C69 1.376 . S
C969 C99 1.268 . S
C993 C119 1.249 . S
C1001 C169 1.369 . S
C1025 C139 1.320 . S
C1033 C29 1.378 . S
C1057 C209 1.380 . S
C1065 C159 1.275 . S
C1089 C168 1.277 . S
C1097 C301 1.371 . S
C1121 C81 1.382 . S
C1129 C188 1.292 1_565 S
C1153 C261 1.361 . S
C1161 C208 1.258 . S
C1185 C121 1.379 . S
C1193 C228 1.282 1_545 S
C1217 C259 1.324 . S
C1225 C229 1.377 . S
C1249 C279 1.303 1_545 S
C1257 C9 1.379 . S
C1281 C189 1.382 . S
C1289 C299 1.281 . S
C1313 C319 1.260 1_565 S
C1321 C49 1.369 . S
C1345 C6 1.635 1_556 S
C1353 C196 1.624 . S
C1377 C216 1.641 . S
C1385 C26 1.652 . S
C1409 C46 1.660 . S
C1417 C236 1.597 . S
C1441 C176 1.636 . S
C1449 C66 1.656 . S
C1473 C266 1.604 . S
C1481 C96 1.656 1_554 S
C1505 C286 1.593 . S
C1513 C116 1.667 . S
C1537 C306 1.578 . S
C1545 C136 1.665 . S
C1569 C246 1.636 . S
C1577 C156 1.648 . S
C1601 C36 1.617 . S
C1609 C166 1.664 . S
C1633 C56 1.641 . S
C1641 C186 1.650 . S
C1665 C76 1.629 . S
C1673 C206 1.648 1_556 S
C1697 C226 1.683 . S
C1705 C16 1.596 . S
C1729 C106 1.639 . S
C1737 C256 1.650 . S
C1761 C126 1.640 . S
C1769 C276 1.648 . S
C1793 C146 1.572 . S
C1801 C296 1.671 1_554 S
C1825 C86 1.586 . S
C1833 C316 1.669 . S
