# Generated by pormake.
# Topology ecd, (8)-cn, num edge types: 1
# Building blocks:
#     Node 0, Type 0, BuildingBlock: TAGTUT_clean_sbu_1, # of connection points: 8
#     Node 1, Type 0, BuildingBlock: TAGTUT_clean_sbu_1, # of connection points: 8
#     Node 2, Type 0, BuildingBlock: TAGTUT_clean_sbu_1, # of connection points: 8
#     Node 3, Type 0, BuildingBlock: TAGTUT_clean_sbu_1, # of connection points: 8
#     Node 4, Type 0, BuildingBlock: TAGTUT_clean_sbu_1, # of connection points: 8
#     Node 5, Type 0, BuildingBlock: TAGTUT_clean_sbu_1, # of connection points: 8
#     Node 6, Type 0, BuildingBlock: TAGTUT_clean_sbu_1, # of connection points: 8
#     Node 7, Type 0, BuildingBlock: TAGTUT_clean_sbu_1, # of connection points: 8
#     Node 8, Type 0, BuildingBlock: TAGTUT_clean_sbu_1, # of connection points: 8
#     Node 9, Type 0, BuildingBlock: TAGTUT_clean_sbu_1, # of connection points: 8
#     Node 10, Type 0, BuildingBlock: TAGTUT_clean_sbu_1, # of connection points: 8
#     Node 11, Type 0, BuildingBlock: TAGTUT_clean_sbu_1, # of connection points: 8
#     Node 12, Type 0, BuildingBlock: TAGTUT_clean_sbu_1, # of connection points: 8
#     Node 13, Type 0, BuildingBlock: TAGTUT_clean_sbu_1, # of connection points: 8
#     Node 14, Type 0, BuildingBlock: TAGTUT_clean_sbu_1, # of connection points: 8
#     Node 15, Type 0, BuildingBlock: TAGTUT_clean_sbu_1, # of connection points: 8
#     Node 16, Type 0, BuildingBlock: TAGTUT_clean_sbu_1, # of connection points: 8
#     Node 17, Type 0, BuildingBlock: TAGTUT_clean_sbu_1, # of connection points: 8
#     Edge 18, Type (0, 0), BuildingBlock: OJICUG_clean_linker_0, # of connection points: 2
#     Edge 19, Type (0, 0), BuildingBlock: OJICUG_clean_linker_0, # of connection points: 2
#     Edge 20, Type (0, 0), BuildingBlock: OJICUG_clean_linker_0, # of connection points: 2
#     Edge 21, Type (0, 0), BuildingBlock: OJICUG_clean_linker_0, # of connection points: 2
#     Edge 22, Type (0, 0), BuildingBlock: OJICUG_clean_linker_0, # of connection points: 2
#     Edge 23, Type (0, 0), BuildingBlock: OJICUG_clean_linker_0, # of connection points: 2
#     Edge 24, Type (0, 0), BuildingBlock: OJICUG_clean_linker_0, # of connection points: 2
#     Edge 25, Type (0, 0), BuildingBlock: OJICUG_clean_linker_0, # of connection points: 2
#     Edge 26, Type (0, 0), BuildingBlock: OJICUG_clean_linker_0, # of connection points: 2
#     Edge 27, Type (0, 0), BuildingBlock: OJICUG_clean_linker_0, # of connection points: 2
#     Edge 28, Type (0, 0), BuildingBlock: OJICUG_clean_linker_0, # of connection points: 2
#     Edge 29, Type (0, 0), BuildingBlock: OJICUG_clean_linker_0, # of connection points: 2
#     Edge 30, Type (0, 0), BuildingBlock: OJICUG_clean_linker_0, # of connection points: 2
#     Edge 31, Type (0, 0), BuildingBlock: OJICUG_clean_linker_0, # of connection points: 2
#     Edge 32, Type (0, 0), BuildingBlock: OJICUG_clean_linker_0, # of connection points: 2
#     Edge 33, Type (0, 0), BuildingBlock: OJICUG_clean_linker_0, # of connection points: 2
#     Edge 34, Type (0, 0), BuildingBlock: OJICUG_clean_linker_0, # of connection points: 2
#     Edge 35, Type (0, 0), BuildingBlock: OJICUG_clean_linker_0, # of connection points: 2
#     Edge 36, Type (0, 0), BuildingBlock: OJICUG_clean_linker_0, # of connection points: 2
#     Edge 37, Type (0, 0), BuildingBlock: OJICUG_clean_linker_0, # of connection points: 2
#     Edge 38, Type (0, 0), BuildingBlock: OJICUG_clean_linker_0, # of connection points: 2
#     Edge 39, Type (0, 0), BuildingBlock: OJICUG_clean_linker_0, # of connection points: 2
#     Edge 40, Type (0, 0), BuildingBlock: OJICUG_clean_linker_0, # of connection points: 2
#     Edge 41, Type (0, 0), BuildingBlock: OJICUG_clean_linker_0, # of connection points: 2
#     Edge 42, Type (0, 0), BuildingBlock: OJICUG_clean_linker_0, # of connection points: 2
#     Edge 43, Type (0, 0), BuildingBlock: OJICUG_clean_linker_0, # of connection points: 2
#     Edge 44, Type (0, 0), BuildingBlock: OJICUG_clean_linker_0, # of connection points: 2
#     Edge 45, Type (0, 0), BuildingBlock: OJICUG_clean_linker_0, # of connection points: 2
#     Edge 46, Type (0, 0), BuildingBlock: OJICUG_clean_linker_0, # of connection points: 2
#     Edge 47, Type (0, 0), BuildingBlock: OJICUG_clean_linker_0, # of connection points: 2
#     Edge 48, Type (0, 0), BuildingBlock: OJICUG_clean_linker_0, # of connection points: 2
#     Edge 49, Type (0, 0), BuildingBlock: OJICUG_clean_linker_0, # of connection points: 2
#     Edge 50, Type (0, 0), BuildingBlock: OJICUG_clean_linker_0, # of connection points: 2
#     Edge 51, Type (0, 0), BuildingBlock: OJICUG_clean_linker_0, # of connection points: 2
#     Edge 52, Type (0, 0), BuildingBlock: OJICUG_clean_linker_0, # of connection points: 2
#     Edge 53, Type (0, 0), BuildingBlock: OJICUG_clean_linker_0, # of connection points: 2
#     Edge 54, Type (0, 0), BuildingBlock: OJICUG_clean_linker_0, # of connection points: 2
#     Edge 55, Type (0, 0), BuildingBlock: OJICUG_clean_linker_0, # of connection points: 2
#     Edge 56, Type (0, 0), BuildingBlock: OJICUG_clean_linker_0, # of connection points: 2
#     Edge 57, Type (0, 0), BuildingBlock: OJICUG_clean_linker_0, # of connection points: 2
#     Edge 58, Type (0, 0), BuildingBlock: OJICUG_clean_linker_0, # of connection points: 2
#     Edge 59, Type (0, 0), BuildingBlock: OJICUG_clean_linker_0, # of connection points: 2
#     Edge 60, Type (0, 0), BuildingBlock: OJICUG_clean_linker_0, # of connection points: 2
#     Edge 61, Type (0, 0), BuildingBlock: OJICUG_clean_linker_0, # of connection points: 2
#     Edge 62, Type (0, 0), BuildingBlock: OJICUG_clean_linker_0, # of connection points: 2
#     Edge 63, Type (0, 0), BuildingBlock: OJICUG_clean_linker_0, # of connection points: 2
#     Edge 64, Type (0, 0), BuildingBlock: OJICUG_clean_linker_0, # of connection points: 2
#     Edge 65, Type (0, 0), BuildingBlock: OJICUG_clean_linker_0, # of connection points: 2
#     Edge 66, Type (0, 0), BuildingBlock: OJICUG_clean_linker_0, # of connection points: 2
#     Edge 67, Type (0, 0), BuildingBlock: OJICUG_clean_linker_0, # of connection points: 2
#     Edge 68, Type (0, 0), BuildingBlock: OJICUG_clean_linker_0, # of connection points: 2
#     Edge 69, Type (0, 0), BuildingBlock: OJICUG_clean_linker_0, # of connection points: 2
#     Edge 70, Type (0, 0), BuildingBlock: OJICUG_clean_linker_0, # of connection points: 2
#     Edge 71, Type (0, 0), BuildingBlock: OJICUG_clean_linker_0, # of connection points: 2
#     Edge 72, Type (0, 0), BuildingBlock: OJICUG_clean_linker_0, # of connection points: 2
#     Edge 73, Type (0, 0), BuildingBlock: OJICUG_clean_linker_0, # of connection points: 2
#     Edge 74, Type (0, 0), BuildingBlock: OJICUG_clean_linker_0, # of connection points: 2
#     Edge 75, Type (0, 0), BuildingBlock: OJICUG_clean_linker_0, # of connection points: 2
#     Edge 76, Type (0, 0), BuildingBlock: OJICUG_clean_linker_0, # of connection points: 2
#     Edge 77, Type (0, 0), BuildingBlock: OJICUG_clean_linker_0, # of connection points: 2
#     Edge 78, Type (0, 0), BuildingBlock: OJICUG_clean_linker_0, # of connection points: 2
#     Edge 79, Type (0, 0), BuildingBlock: OJICUG_clean_linker_0, # of connection points: 2
#     Edge 80, Type (0, 0), BuildingBlock: OJICUG_clean_linker_0, # of connection points: 2
#     Edge 81, Type (0, 0), BuildingBlock: OJICUG_clean_linker_0, # of connection points: 2
#     Edge 82, Type (0, 0), BuildingBlock: OJICUG_clean_linker_0, # of connection points: 2
#     Edge 83, Type (0, 0), BuildingBlock: OJICUG_clean_linker_0, # of connection points: 2
#     Edge 84, Type (0, 0), BuildingBlock: OJICUG_clean_linker_0, # of connection points: 2
#     Edge 85, Type (0, 0), BuildingBlock: OJICUG_clean_linker_0, # of connection points: 2
#     Edge 86, Type (0, 0), BuildingBlock: OJICUG_clean_linker_0, # of connection points: 2
#     Edge 87, Type (0, 0), BuildingBlock: OJICUG_clean_linker_0, # of connection points: 2
#     Edge 88, Type (0, 0), BuildingBlock: OJICUG_clean_linker_0, # of connection points: 2
#     Edge 89, Type (0, 0), BuildingBlock: OJICUG_clean_linker_0, # of connection points: 2
# Relax obj value: 0.282
# Max RMSD: 0.286
# Mean RMSD: 0.284
data_MOF--net-ecd--node1-TAGTUT_clean_sbu_1--edge1-OJICUG_clean_linker_0
_symmetry_space_group_name_H-M    P1
_symmetry_Int_Tables_number       1
_symmetry_cell_setting            triclinic
loop_
_symmetry_equiv_pos_as_xyz
'x, y, z'
_cell_length_a     36.985733
_cell_length_b     37.269632
_cell_length_c     28.321459
_cell_angle_alpha  89.057515
_cell_angle_beta   91.474034
_cell_angle_gamma 120.89707
loop_
_atom_site_label
_atom_site_type_symbol
_atom_site_fract_x
_atom_site_fract_y
_atom_site_fract_z
_atom_type_partial_charge
C0 C 0.95716 0.52288 0.05691 0.0
C1 C 0.951 0.59197 0.15232 0.0
C2 C 0.10664 0.63576 0.21122 0.0
Mg3 Mg 0.93363 0.5022 0.16149 0.0
O4 O 0.99207 0.5248 0.16839 0.0
Mg5 Mg 0.03258 0.57883 0.13649 0.0
Mg6 Mg 1.01804 0.54387 0.23209 0.0
O7 O 0.04328 0.56282 0.29472 0.0
Mg8 Mg 0.10199 0.5905 0.31068 0.0
Mg9 Mg 1.00167 0.51439 0.33322 0.0
C10 C 0.93582 0.44876 0.25187 0.0
C11 C 0.95074 0.5571 0.29729 0.0
O12 O 0.99402 0.55036 0.07141 0.0
O13 O 0.92837 0.49649 0.08447 0.0
O14 O 0.98983 0.60498 0.14512 0.0
O15 O 0.92586 0.55533 0.16878 0.0
O16 O 0.91505 0.45096 0.21554 0.0
O17 O 0.97285 0.47915 0.26244 0.0
C18 C 0.07821 0.52607 0.16317 0.0
O19 O 0.06388 0.52262 0.20522 0.0
O20 O 0.07119 0.54626 0.13059 0.0
O21 O 0.03319 0.56456 0.39456 0.0
O22 O 0.094 0.61959 0.36828 0.0
O23 O 0.05168 0.49687 0.33226 0.0
C24 C 0.06543 0.60177 0.39915 0.0
O25 O 0.11205 0.54654 0.35652 0.0
O26 O 0.12711 0.6347 0.24846 0.0
C27 C 0.07789 0.51246 0.36618 0.0
O28 O 0.0676 0.60778 0.20437 0.0
O29 O 0.96981 0.56529 0.25742 0.0
O30 O 0.95631 0.53579 0.32888 0.0
C31 C 0.53162 0.47363 0.07168 0.0
C32 C 0.46474 0.39875 0.18558 0.0
C33 C 0.41907 0.50693 0.22293 0.0
Mg34 Mg 0.55614 0.47489 0.1771 0.0
O35 O 0.53162 0.50859 0.18011 0.0
Mg36 Mg 0.47472 0.48917 0.14948 0.0
Mg37 Mg 0.51362 0.51609 0.24257 0.0
O38 O 0.49709 0.52219 0.30547 0.0
Mg39 Mg 0.4658 0.54667 0.32452 0.0
Mg40 Mg 0.5466 0.52873 0.34421 0.0
C41 C 0.60803 0.52825 0.2683 0.0
C42 C 0.50313 0.43596 0.30648 0.0
O43 O 0.50203 0.47859 0.0858 0.0
O44 O 0.56018 0.47484 0.09975 0.0
O45 O 0.4497 0.42077 0.16935 0.0
O46 O 0.50424 0.41399 0.1929 0.0
O47 O 0.60679 0.50526 0.23391 0.0
O48 O 0.57916 0.53705 0.2733 0.0
C49 C 0.52818 0.58931 0.16723 0.0
O50 O 0.53345 0.58127 0.21063 0.0
O51 O 0.50679 0.56008 0.13701 0.0
O52 O 0.50096 0.50763 0.40784 0.0
O53 O 0.4413 0.50519 0.38193 0.0
O54 O 0.56201 0.59574 0.34489 0.0
C55 C 0.46248 0.49773 0.41287 0.0
O56 O 0.51023 0.59952 0.3727 0.0
O57 O 0.4198 0.52621 0.26106 0.0
C58 C 0.54683 0.60414 0.37966 0.0
O59 O 0.44831 0.49876 0.21556 0.0
O60 O 0.49223 0.44856 0.26938 0.0
O61 O 0.52643 0.46135 0.33856 0.0
C62 C 0.51977 0.0259 0.39109 0.0
C63 C 0.51767 0.93637 0.33189 0.0
C64 C 0.64571 0.09499 0.22935 0.0
Mg65 Mg 0.47276 0.96765 0.30367 0.0
O66 O 0.53072 0.99317 0.27833 0.0
Mg67 Mg 0.58359 0.03868 0.31697 0.0
Mg68 Mg 0.54542 0.01639 0.2135 0.0
O69 O 0.55784 0.037 0.14846 0.0
Mg70 Mg 0.61331 0.06199 0.12837 0.0
Mg71 Mg 0.52011 0.9786 0.11242 0.0
C72 C 0.44253 0.9571 0.19295 0.0
C73 C 0.54639 0.9335 0.17615 0.0
O74 O 0.54881 0.01786 0.3844 0.0
O75 O 0.48734 1.01211 0.36298 0.0
O76 O 0.53384 0.96715 0.3015 0.0
O77 O 0.4776 0.91648 0.33448 0.0
O78 O 0.43393 0.95385 0.23725 0.0
O79 O 0.48039 0.97579 0.17844 0.0
C80 C 0.52614 0.07817 0.27487 0.0
O81 O 0.52204 0.06216 0.23393 0.0
O82 O 0.54752 0.07335 0.30748 0.0
O83 O 0.57778 0.9802 0.07361 0.0
O84 O 0.6236 1.01166 0.13156 0.0
O85 O 0.5306 0.03011 0.06047 0.0
C86 C 0.61373 0.99148 0.09332 0.0
O87 O 0.60064 0.06717 0.05374 0.0
O88 O 0.65151 0.10366 0.18512 0.0
C89 C 0.56353 0.04644 0.03476 0.0
O90 O 0.61211 0.06198 0.2436 0.0
O91 O 0.56904 0.96859 0.19693 0.0
O92 O 0.51175 0.92626 0.15898 0.0
C93 C 0.03391 0.44364 0.5614 0.0
C94 C 0.98936 0.50983 0.53488 0.0
C95 C 0.09304 0.60761 0.69695 0.0
Mg96 Mg 0.96898 0.44308 0.61419 0.0
O97 O 1.00497 0.49489 0.64148 0.0
Mg98 Mg 0.06143 0.5358 0.60718 0.0
Mg99 Mg 1.02254 0.50585 0.70652 0.0
O100 O 0.04087 0.51872 0.77152 0.0
Mg101 Mg 0.07159 0.56798 0.80517 0.0
Mg102 Mg 0.9926 0.47047 0.80477 0.0
C103 C 0.94094 0.40729 0.71819 0.0
C104 C 0.95164 0.5205 0.76029 0.0
O105 O 0.05171 0.48304 0.55439 0.0
O106 O 1.01659 0.42877 0.60062 0.0
O107 O 1.00944 0.53842 0.56601 0.0
O108 O 0.96062 0.47308 0.54869 0.0
O109 O 0.92996 0.40322 0.67411 0.0
O110 O 0.97544 0.43932 0.73247 0.0
C111 C 0.10222 0.49633 0.66704 0.0
O112 O 0.06866 0.47927 0.69145 0.0
O113 O 0.11103 0.52825 0.64268 0.0
O114 O 1.0076 0.50448 0.87188 0.0
O115 O 0.02356 0.56791 0.84966 0.0
O116 O 0.04749 0.46411 0.82583 0.0
C117 C 1.00244 0.53535 0.87535 0.0
O118 O 0.09513 0.53217 0.84458 0.0
O119 O 0.0981 0.61184 0.74237 0.0
C120 C 0.0812 0.49243 0.84723 0.0
O121 O 0.06818 0.57197 0.67795 0.0
O122 O 0.97698 0.53082 0.72557 0.0
O123 O 0.94684 0.49184 0.78892 0.0
C124 C 0.62827 0.62406 0.60389 0.0
C125 C 0.57508 0.5236 0.54181 0.0
C126 C 0.44979 0.50217 0.69148 0.0
Mg127 Mg 0.61896 0.53675 0.61866 0.0
O128 O 0.55882 0.51189 0.63088 0.0
Mg129 Mg 0.53025 0.54941 0.62172 0.0
Mg130 Mg 0.54971 0.52795 0.69876 0.0
O131 O 0.5402 0.53768 0.76287 0.0
Mg132 Mg 0.49686 0.53596 0.79469 0.0
Mg133 Mg 0.594 0.55205 0.79625 0.0
C134 C 0.64986 0.54907 0.71803 0.0
C135 C 0.54642 0.4538 0.77484 0.0
O136 O 0.59041 0.60867 0.58795 0.0
O137 O 0.64164 0.60118 0.62071 0.0
O138 O 0.55322 0.51199 0.58013 0.0
O139 O 0.60957 0.52331 0.54399 0.0
O140 O 0.65364 0.53355 0.67977 0.0
O141 O 0.61964 0.55601 0.72309 0.0
C142 C 0.54427 0.61681 0.6591 0.0
O143 O 0.56734 0.60269 0.67733 0.0
O144 O 0.50792 0.59026 0.6435 0.0
O145 O 0.56505 0.5416 0.8669 0.0
O146 O 0.49628 0.49772 0.85468 0.0
O147 O 0.60229 0.61623 0.7987 0.0
C148 C 0.53016 0.5104 0.87961 0.0
O149 O 0.53646 0.59996 0.81772 0.0
O150 O 0.45048 0.51413 0.73425 0.0
C151 C 0.57656 0.6254 0.81696 0.0
O152 O 0.48074 0.50056 0.67429 0.0
O153 O 0.53153 0.46037 0.7356 0.0
O154 O 0.57554 0.48443 0.79803 0.0
C155 C 0.45794 0.97723 0.90401 0.0
C156 C 0.54883 0.97048 0.85392 0.0
C157 C 0.60332 0.11831 0.76163 0.0
Mg158 Mg 0.46725 0.94833 0.80833 0.0
O159 O 0.49068 1.00729 0.79873 0.0
Mg160 Mg 0.54141 0.04679 0.83675 0.0
Mg161 Mg 0.50967 0.03436 0.73713 0.0
O162 O 0.52829 0.06158 0.67492 0.0
Mg163 Mg 0.55262 0.11988 0.66793 0.0
Mg164 Mg 0.47432 0.0219 0.64063 0.0
C165 C 0.41828 0.94671 0.71252 0.0
C166 C 0.52628 0.97529 0.666 0.0
O167 O 0.49441 1.01085 0.89992 0.0
O168 O 0.44011 0.95024 0.87114 0.0
O169 O 0.56047 0.99914 0.82353 0.0
O170 O 0.51474 0.93653 0.84353 0.0
O171 O 0.42162 0.92546 0.74709 0.0
O172 O 0.44465 0.98618 0.7078 0.0
C173 C 0.49828 0.09912 0.80667 0.0
O174 O 0.49034 0.08204 0.76541 0.0
O175 O 0.51801 0.09099 0.83857 0.0
O176 O 0.50582 0.06052 0.57704 0.0
O177 O 0.56377 0.12322 0.59209 0.0
O178 O 0.4477 0.06422 0.64922 0.0
C179 C 0.53654 0.09559 0.56344 0.0
O180 O 0.49954 0.12922 0.66702 0.0
O181 O 0.60135 0.14019 0.72684 0.0
C182 C 0.46181 0.10343 0.65257 0.0
O183 O 0.57465 0.07987 0.76764 0.0
O184 O 0.53056 0.98922 0.70844 0.0
O185 O 0.50596 0.98297 0.63404 0.0
C186 C 0.67994 0.87253 0.37179 0.0
C187 C 0.62052 0.91171 0.46185 0.0
C188 C 0.77928 0.97455 0.54693 0.0
Mg189 Mg 0.62732 0.831 0.46311 0.0
O190 O 0.67722 0.8695 0.49356 0.0
Mg191 Mg 0.71765 0.92642 0.46863 0.0
Mg192 Mg 0.69167 0.88405 0.56091 0.0
O193 O 0.71047 0.90015 0.6259 0.0
Mg194 Mg 0.76918 0.92443 0.64204 0.0
Mg195 Mg 0.66783 0.84857 0.65836 0.0
C196 C 0.6181 0.7811 0.56433 0.0
C197 C 0.61879 0.89326 0.61753 0.0
O198 O 0.70182 0.90345 0.39816 0.0
O199 O 0.65039 0.8372 0.38806 0.0
O200 O 0.66086 0.93638 0.46405 0.0
O201 O 0.60239 0.87171 0.46412 0.0
O202 O 0.60804 0.77999 0.5198 0.0
O203 O 0.64449 0.81613 0.58429 0.0
C204 C 0.76414 0.87725 0.50409 0.0
O205 O 0.74134 0.86645 0.54116 0.0
O206 O 0.76408 0.90303 0.47359 0.0
O207 O 0.69753 0.89597 0.72464 0.0
O208 O 0.76175 0.94944 0.70414 0.0
O209 O 0.71671 0.8293 0.65584 0.0
C210 C 0.7311 0.93194 0.73269 0.0
O211 O 0.78078 0.87608 0.67153 0.0
O212 O 0.79835 0.96865 0.58223 0.0
C213 C 0.74662 0.84435 0.68568 0.0
O214 O 0.73921 0.95129 0.54076 0.0
O215 O 0.63972 0.90145 0.57906 0.0
O216 O 0.62297 0.87194 0.65065 0.0
C217 C 0.19931 0.85071 0.38664 0.0
C218 C 0.13541 0.74976 0.48732 0.0
C219 C 0.07961 0.84668 0.55049 0.0
Mg220 Mg 0.22308 0.83291 0.48567 0.0
O221 O 0.1919 0.85794 0.50117 0.0
Mg222 Mg 0.13409 0.83785 0.47269 0.0
Mg223 Mg 0.17337 0.85569 0.56596 0.0
O224 O 0.15561 0.85411 0.62908 0.0
Mg225 Mg 0.12291 0.87706 0.65051 0.0
Mg226 Mg 0.20385 0.85745 0.66621 0.0
C227 C 0.27309 0.87676 0.5829 0.0
C228 C 0.16863 0.77097 0.61602 0.0
O229 O 0.16572 0.84514 0.40493 0.0
O230 O 0.22878 0.84957 0.41038 0.0
O231 O 0.11708 0.77033 0.47845 0.0
O232 O 0.17549 0.76755 0.49269 0.0
O233 O 0.27387 0.8625 0.5419 0.0
O234 O 0.24086 0.87834 0.59593 0.0
C235 C 0.17746 0.93329 0.50496 0.0
O236 O 0.18898 0.92361 0.54436 0.0
O237 O 0.15539 0.90582 0.47362 0.0
O238 O 0.14449 0.8145 0.71517 0.0
O239 O 0.09182 0.82607 0.69481 0.0
O240 O 0.21316 0.92189 0.67684 0.0
C241 C 0.10532 0.80412 0.71466 0.0
O242 O 0.16174 0.92844 0.69885 0.0
O243 O 0.08178 0.86619 0.58852 0.0
C244 C 0.19344 0.92519 0.71058 0.0
O245 O 0.10612 0.835 0.54235 0.0
O246 O 0.15535 0.78498 0.58216 0.0
O247 O 0.19177 0.79494 0.64899 0.0
C248 C 0.20327 0.38208 0.40168 0.0
C249 C 0.31055 0.4089 0.48117 0.0
C250 C 0.21222 0.25813 0.54431 0.0
Mg251 Mg 0.23155 0.42112 0.48207 0.0
O252 O 0.20211 0.35862 0.48646 0.0
Mg253 Mg 0.22033 0.31636 0.45762 0.0
Mg254 Mg 0.19905 0.33919 0.55381 0.0
O255 O 0.19691 0.32143 0.61959 0.0
Mg256 Mg 0.17439 0.26671 0.64302 0.0
Mg257 Mg 0.19202 0.36486 0.6558 0.0
C258 C 0.18117 0.41829 0.57373 0.0
C259 C 0.28284 0.41626 0.6106 0.0
O260 O 0.19897 0.36171 0.44014 0.0
O261 O 0.21501 0.42051 0.40665 0.0
O262 O 0.28863 0.37069 0.46762 0.0
O263 O 0.29468 0.43179 0.4893 0.0
O264 O 0.20246 0.43901 0.53763 0.0
O265 O 0.17476 0.38175 0.58285 0.0
C266 C 0.12337 0.26259 0.48859 0.0
O267 O 0.1323 0.28525 0.5263 0.0
O268 O 0.15159 0.26726 0.45964 0.0
O269 O 0.21874 0.34443 0.72001 0.0
O270 O 0.21861 0.28616 0.69882 0.0
O271 O 0.12533 0.31359 0.66754 0.0
C272 C 0.22816 0.31608 0.7274 0.0
O273 O 0.12161 0.2559 0.68973 0.0
O274 O 0.19245 0.24036 0.58279 0.0
C275 C 0.11988 0.2883 0.70085 0.0
O276 O 0.22054 0.29516 0.53267 0.0
O277 O 0.2688 0.39159 0.57495 0.0
O278 O 0.25841 0.41345 0.64292 0.0
C279 C 0.73113 0.83135 0.23778 0.0
C280 C 0.75539 0.936 0.19087 0.0
C281 C 0.62814 0.86744 0.06329 0.0
Mg282 Mg 0.77863 0.87827 0.15001 0.0
O283 O 0.72103 0.84593 0.12836 0.0
Mg284 Mg 0.67784 0.85599 0.15571 0.0
Mg285 Mg 0.70689 0.84812 0.06205 0.0
O286 O 0.69562 0.85329 -0.00583 0.0
Mg287 Mg 0.64263 0.83275 0.96498 0.0
Mg288 Mg 0.73865 0.84055 0.97147 0.0
C289 C 0.79247 0.83999 0.05678 0.0
C290 C 0.78239 0.93362 0.01356 0.0
O291 O 0.69979 0.83562 0.22533 0.0
O292 O 0.76344 0.843 0.21235 0.0
O293 O 0.7294 0.92396 0.15674 0.0
O294 O 0.78974 0.93684 0.18298 0.0
O295 O 0.80982 0.86096 0.09499 0.0
O296 O 0.75484 0.83003 0.04454 0.0
C297 C 0.62835 0.76397 0.11279 0.0
O298 O 0.65209 0.77724 0.07615 0.0
O299 O 0.63173 0.78903 0.14504 0.0
O300 O 0.72348 0.85094 0.9007 0.0
O301 O 0.66243 0.84901 0.88932 0.0
O302 O 0.68565 0.77301 0.96082 0.0
C303 C 0.69693 0.85318 0.87384 0.0
O304 O 0.6226 0.76805 0.96607 0.0
O305 O 0.6158 0.85653 0.01985 0.0
C306 C 0.64525 0.75198 0.95826 0.0
O307 O 0.65999 0.8667 0.08079 0.0
O308 O 0.75844 0.91749 0.04938 0.0
O309 O 0.78361 0.91053 0.98138 0.0
C310 C 0.26323 0.93689 0.21834 0.0
C311 C 0.13763 0.86379 0.2101 0.0
C312 C 0.1739 0.77659 0.0778 0.0
Mg313 Mg 0.19397 0.93478 0.1537 0.0
O314 O 0.20545 0.8953 0.1271 0.0
Mg315 Mg 0.20002 0.84559 0.16199 0.0
Mg316 Mg 0.19913 0.87716 0.0629 0.0
O317 O 0.19344 0.85821 -0.00262 0.0
Mg318 Mg 0.21567 0.82489 0.9792 0.0
Mg319 Mg 0.21619 0.91636 0.97072 0.0
C320 C 0.21903 0.97564 0.05276 0.0
C321 C 0.12103 0.87682 0.00651 0.0
O322 O 0.24485 0.89665 0.2188 0.0
O323 O 0.24826 0.95672 0.1963 0.0
O324 O 0.13777 0.84161 0.17683 0.0
O325 O 0.13966 0.89798 0.19827 0.0
O326 O 0.20545 0.97699 0.09364 0.0
O327 O 0.22364 0.94502 0.04104 0.0
C328 C 0.28325 0.87742 0.10592 0.0
O329 O 0.26807 0.89141 0.0745 0.0
O330 O 0.26096 0.85472 0.13974 0.0
O331 O 0.20456 0.88506 0.90228 0.0
O332 O 0.19683 0.82107 0.90375 0.0
O333 O 0.28405 0.92954 0.9735 0.0
C334 C 0.19647 0.8515 0.88203 0.0
O335 O 0.2831 0.86937 -0.01534 0.0
O336 O 0.18638 0.77482 0.03606 0.0
C337 C 0.30311 0.90928 0.98018 0.0
O338 O 0.17398 0.80943 0.09144 0.0
O339 O 0.13159 0.86518 0.04512 0.0
O340 O 0.14794 0.89806 0.97467 0.0
C341 C 0.11798 0.33972 0.24405 0.0
C342 C 0.20302 0.31057 0.22177 0.0
C343 C 0.27625 0.43255 0.08623 0.0
Mg344 Mg 0.12592 0.28749 0.16709 0.0
O345 O 0.15593 0.34347 0.14288 0.0
Mg346 Mg 0.20607 0.38862 0.17668 0.0
Mg347 Mg 0.17378 0.357 0.07765 0.0
O348 O 0.19111 0.36678 0.01016 0.0
Mg349 Mg 0.22993 0.41584 0.97916 0.0
Mg350 Mg 0.13364 0.32545 -0.01553 0.0
C351 C 0.07802 0.27232 0.06847 0.0
C352 C 0.18276 0.28208 0.02888 0.0
O353 O 0.15639 0.36986 0.23859 0.0
O354 O 0.10094 0.30615 0.21983 0.0
O355 O 0.22107 0.3372 0.18917 0.0
O356 O 0.16976 0.2764 0.20972 0.0
O357 O 0.07892 0.25611 0.10871 0.0
O358 O 0.10745 0.30897 0.05642 0.0
C359 C 0.16329 0.43413 0.12306 0.0
O360 O 0.15465 0.40965 0.08728 0.0
O361 O 0.1857 0.43363 0.15765 0.0
O362 O 0.15724 0.33725 0.91316 0.0
O363 O 0.22241 0.39115 0.90301 0.0
O364 O 0.12472 0.38157 0.97546 0.0
C365 C 0.18776 0.35952 0.88662 0.0
O366 O 0.18903 0.44055 0.97619 0.0
O367 O 0.27987 0.43999 0.04085 0.0
C368 C 0.14873 0.42159 0.97268 0.0
O369 O 0.2406 0.40509 0.10357 0.0
O370 O 0.19188 0.30586 0.06538 0.0
O371 O 0.15721 0.28047 -0.00368 0.0
C372 C 0.34372 0.1999 0.739 0.0
C373 C 0.30638 0.26052 0.84041 0.0
C374 C 0.45958 0.3131 0.909 0.0
Mg375 Mg 0.29917 0.17314 0.83548 0.0
O376 O 0.35468 0.2047 0.85689 0.0
Mg377 Mg 0.39544 0.26106 0.82962 0.0
Mg378 Mg 0.37181 0.22014 0.92323 0.0
O379 O 0.39092 0.23567 -0.01135 0.0
Mg380 Mg 0.44907 0.26221 0.00801 0.0
Mg381 Mg 0.34848 0.18172 0.01918 0.0
C382 C 0.29092 0.12126 0.92978 0.0
C383 C 0.29732 0.22482 -0.01709 0.0
O384 O 0.37165 0.23349 0.75884 0.0
O385 O 0.31346 0.16973 0.76174 0.0
O386 O 0.34599 0.2795 0.8334 0.0
O387 O 0.28358 0.2206 0.8436 0.0
O388 O 0.27613 0.12106 0.888 0.0
O389 O 0.32474 0.15338 0.94552 0.0
C390 C 0.4409 0.2106 0.86228 0.0
O391 O 0.42141 0.20272 0.9017 0.0
O392 O 0.43852 0.23453 0.83093 0.0
O393 O 0.3738 0.22112 0.08788 0.0
O394 O 0.43389 0.28172 0.07043 0.0
O395 O 0.40006 0.16645 0.01615 0.0
C396 C 0.4039 0.25815 0.09836 0.0
O397 O 0.45801 0.21456 0.04796 0.0
O398 O 0.47854 0.30925 0.94633 0.0
C399 C 0.42487 0.17827 0.05158 0.0
O400 O 0.4202 0.28708 0.90157 0.0
O401 O 0.31873 0.23545 0.94446 0.0
O402 O 0.30234 0.20319 0.01486 0.0
C403 C 0.85624 0.16661 0.74256 0.0
C404 C 0.79162 0.07197 0.84441 0.0
C405 C 0.74188 0.18 0.89853 0.0
Mg406 Mg 0.88066 0.1555 0.84455 0.0
O407 O 0.85003 0.1809 0.85786 0.0
Mg408 Mg 0.79332 0.16172 0.82692 0.0
Mg409 Mg 0.8393 0.19391 0.92105 0.0
O410 O 0.8305 0.21518 -0.0151 0.0
Mg411 Mg 0.77074 0.19341 -0.00191 0.0
Mg412 Mg 0.85674 0.17778 0.00273 0.0
C413 C 0.93558 0.20877 0.93701 0.0
C414 C 0.84316 0.10785 0.97019 0.0
O415 O 0.82192 0.16063 0.75929 0.0
O416 O 0.88672 0.17008 0.76893 0.0
O417 O 0.77249 0.09225 0.83799 0.0
O418 O 0.83182 0.09052 0.84942 0.0
O419 O 0.93141 0.18622 0.90073 0.0
O420 O 0.90758 0.21789 0.94749 0.0
C421 C 0.84563 0.26299 0.84066 0.0
O422 O 0.85785 0.25851 0.88247 0.0
O423 O 0.8194 0.23119 0.81618 0.0
O424 O 0.79554 0.12437 0.03944 0.0
O425 O 0.74447 0.12812 0.00082 0.0
O426 O 0.83873 0.22462 0.03148 0.0
C427 C 0.75786 0.10705 0.02242 0.0
O428 O 0.78462 0.21578 0.07039 0.0
O429 O 0.73992 0.19862 0.93509 0.0
C430 C 0.82054 0.2184 0.07183 0.0
O431 O 0.76906 0.1683 0.89648 0.0
O432 O 0.82179 0.12173 0.94734 0.0
O433 O 0.8756 0.13284 -0.00594 0.0
C434 C 0.85775 0.65669 0.05555 0.0
C435 C 0.91792 0.63048 0.97183 0.0
C436 C 0.96861 0.78931 0.89841 0.0
Mg437 Mg 0.83411 0.61934 0.95514 0.0
O438 O 0.8634 0.67794 0.94341 0.0
Mg439 Mg 0.92155 0.71676 0.9713 0.0
Mg440 Mg 0.88 0.70108 0.87992 0.0
O441 O 0.89532 0.72335 0.8172 0.0
Mg442 Mg 0.92596 0.7806 0.79724 0.0
Mg443 Mg 0.84985 0.67803 0.77782 0.0
C444 C 0.78459 0.61792 0.85883 0.0
C445 C 0.8903 0.62838 0.82062 0.0
O446 O 0.89209 0.68579 0.0385 0.0
O447 O 0.82746 0.62844 0.02999 0.0
O448 O 0.939 0.66754 0.95542 0.0
O449 O 0.88341 0.60482 0.95071 0.0
O450 O 0.78548 0.59849 0.89659 0.0
O451 O 0.81381 0.65547 0.8496 0.0
C452 C 0.87334 0.76743 0.95183 0.0
O453 O 0.86162 0.74949 0.91071 0.0
O454 O 0.89748 0.76114 0.97963 0.0
O455 O 0.91084 0.70218 0.72988 0.0
O456 O 0.96153 0.76568 0.75616 0.0
O457 O 0.837 0.73081 0.76889 0.0
C458 C 0.94989 0.73161 0.73452 0.0
O459 O 0.88746 0.78883 0.74213 0.0
O460 O 0.96353 0.80859 0.86287 0.0
C461 C 0.85451 0.75348 0.73328 0.0
O462 O 0.9466 0.74924 0.90243 0.0
O463 O 0.90122 0.65215 0.85717 0.0
O464 O 0.86633 0.62969 0.78896 0.0
C465 C 0.3549 0.0816 0.27713 0.0
C466 C 0.31824 0.14437 0.21167 0.0
C467 C 0.43392 0.26389 0.36249 0.0
Mg468 Mg 0.28376 0.10105 0.28693 0.0
O469 O 0.32495 0.15982 0.29984 0.0
Mg470 Mg 0.39055 0.18214 0.29462 0.0
Mg471 Mg 0.35065 0.16799 0.3686 0.0
O472 O 0.37177 0.17964 0.43492 0.0
Mg473 Mg 0.42909 0.20754 0.45371 0.0
Mg474 Mg 0.3303 0.12325 0.46223 0.0
C475 C 0.26244 0.07486 0.38574 0.0
C476 C 0.28326 0.17556 0.43888 0.0
O477 O 0.38094 0.1186 0.26194 0.0
O478 O 0.31969 0.0723 0.29393 0.0
O479 O 0.3301 0.16519 0.25097 0.0
O480 O 0.28162 0.11125 0.2117 0.0
O481 O 0.24343 0.07283 0.34656 0.0
O482 O 0.30226 0.09999 0.39055 0.0
C483 C 0.44039 0.16377 0.33568 0.0
O484 O 0.40261 0.14443 0.35255 0.0
O485 O 0.45389 0.19935 0.31703 0.0
O486 O 0.35706 0.15041 0.53241 0.0
O487 O 0.41704 0.21278 0.52808 0.0
O488 O 0.379 0.10282 0.45407 0.0
C489 C 0.38656 0.18352 0.5516 0.0
O490 O 0.44198 0.15787 0.44706 0.0
O491 O 0.45031 0.2584 0.40068 0.0
C492 C 0.4168 0.12486 0.46984 0.0
O493 O 0.39835 0.23543 0.34489 0.0
O494 O 0.30303 0.18776 0.39921 0.0
O495 O 0.28698 0.14972 0.466 0.0
C496 C 0.96204 0.2533 0.25301 0.0
C497 C 0.85443 0.12689 0.21665 0.0
C498 C 0.78934 0.18341 0.35584 0.0
Mg499 Mg 0.92968 0.17189 0.2743 0.0
O500 O 0.89721 0.19649 0.29651 0.0
Mg501 Mg 0.84564 0.19221 0.26401 0.0
Mg502 Mg 0.88437 0.19835 0.36337 0.0
O503 O 0.87112 0.19971 0.43004 0.0
Mg504 Mg 0.8452 0.22889 0.44808 0.0
Mg505 Mg 0.92875 0.2157 0.45511 0.0
C506 C 0.97209 0.19767 0.37631 0.0
C507 C 0.87514 0.11853 0.42746 0.0
O508 O 0.92446 0.24166 0.26752 0.0
O509 O 0.96984 0.2263 0.23731 0.0
O510 O 0.84023 0.12973 0.25566 0.0
O511 O 0.88934 0.12772 0.2188 0.0
O512 O 0.96674 0.1754 0.33943 0.0
O513 O 0.95034 0.21505 0.38235 0.0
C514 C 0.88324 0.281 0.31316 0.0
O515 O 0.90027 0.26859 0.345 0.0
O516 O 0.85859 0.25628 0.28097 0.0
O517 O 0.90415 0.21345 0.52684 0.0
O518 O 0.84313 0.21306 0.52299 0.0
O519 O 0.95133 0.28475 0.44996 0.0
C520 C 0.87224 0.21086 0.54635 0.0
O521 O 0.89579 0.2929 0.4392 0.0
O522 O 0.79089 0.19927 0.39651 0.0
C523 C 0.93563 0.30795 0.44347 0.0
O524 O 0.82029 0.18076 0.34074 0.0
O525 O 0.86425 0.12882 0.38792 0.0
O526 O 0.90126 0.14625 0.45645 0.0
C527 C 0.77489 0.69284 0.5682 0.0
C528 C 0.85485 0.65267 0.57921 0.0
C529 C 0.93191 0.77162 0.42828 0.0
Mg530 Mg 0.78198 0.62502 0.51494 0.0
O531 O 0.82178 0.67612 0.4853 0.0
Mg532 Mg 0.86882 0.72711 0.51838 0.0
Mg533 Mg 0.83471 0.68956 0.4201 0.0
O534 O 0.84816 0.70333 0.35326 0.0
Mg535 Mg 0.87649 0.7584 0.33248 0.0
Mg536 Mg 0.78957 0.66157 0.32923 0.0
C537 C 0.73951 0.60336 0.41342 0.0
C538 C 0.84474 0.62007 0.36061 0.0
O539 O 0.81519 0.71753 0.57043 0.0
O540 O 0.75691 0.65698 0.54851 0.0
O541 O 0.87636 0.67309 0.54379 0.0
O542 O 0.82075 0.61797 0.57044 0.0
O543 O 0.73944 0.58773 0.45438 0.0
O544 O 0.76821 0.64039 0.40221 0.0
C545 C 0.83043 0.77179 0.45993 0.0
O546 O 0.81448 0.74025 0.432 0.0
O547 O 0.85707 0.77613 0.49156 0.0
O548 O 0.81348 0.68339 0.25761 0.0
O549 O 0.8777 0.74174 0.2591 0.0
O550 O 0.76845 0.70892 0.33263 0.0
C551 C 0.84656 0.71101 0.23716 0.0
O552 O 0.82713 0.77211 0.33956 0.0
O553 O 0.92972 0.78426 0.38611 0.0
C554 C 0.7869 0.7485 0.33788 0.0
O555 O 0.90186 0.73738 0.44529 0.0
O556 O 0.85386 0.64027 0.40015 0.0
O557 O 0.8186 0.62074 0.33046 0.0
C558 C 0.13011 0.68077 0.48688 0.0
C559 C 0.10997 0.70393 0.48439 0.0
H560 H 0.13035 0.62785 0.4607 0.0
C561 C 0.06751 0.68422 0.46897 0.0
H562 H 0.16227 0.69456 0.50003 0.0
C563 C 0.04863 0.64508 0.44752 0.0
C564 C 0.07225 0.62591 0.44174 0.0
H565 H 0.05066 0.70092 0.46807 0.0
H566 H 1.01832 0.63299 0.42967 0.0
C567 C 0.11147 0.64209 0.46504 0.0
C568 C 0.4232 0.49371 0.48181 0.0
C569 C 0.43942 0.4746 0.45418 0.0
H570 H 0.36814 0.48726 0.51233 0.0
C571 C 0.41763 0.43098 0.45066 0.0
H572 H 0.43967 0.52736 0.48524 0.0
C573 C 0.37595 0.40786 0.46501 0.0
C574 C 0.35663 0.42862 0.48332 0.0
H575 H 0.42994 0.41571 0.42966 0.0
H576 H 0.35775 0.37492 0.45634 0.0
C577 C 0.3817 0.47079 0.49623 0.0
C578 C 0.61282 0.95919 0.40656 0.0
C579 C 0.59474 0.92776 0.44114 0.0
H580 H 0.60263 0.98478 0.34329 0.0
C581 C 0.55061 0.90341 0.44383 0.0
H582 H 0.64671 0.97827 0.40327 0.0
C583 C 0.52519 0.90712 0.4092 0.0
C584 C 0.54362 0.93525 0.37152 0.0
H585 H 0.5359 0.87898 0.47025 0.0
H586 H 0.49135 0.88642 0.4106 0.0
C587 C 0.58751 0.96239 0.37157 0.0
C588 C 0.72598 0.0443 0.07525 0.0
C589 C 0.72608 0.06295 0.03198 0.0
H590 H 0.68759 1.00102 0.12803 0.0
C591 C 0.69033 0.04255 0.00172 0.0
H592 H 0.75321 0.05874 0.09892 0.0
C593 C 0.6524 1.00971 0.0187 0.0
C594 C 0.65016 0.99793 0.06615 0.0
H595 H 0.6902 0.0553 0.96709 0.0
H596 H 0.624 0.99882 -0.00262 0.0
C597 C 0.6882 1.01084 0.09169 0.0
C598 C 0.88993 0.58908 0.04667 0.0
C599 C 0.92078 0.62519 0.02348 0.0
H600 H 0.87319 0.55185 0.10921 0.0
C601 C 0.9552 0.65584 0.05002 0.0
H602 H 0.86242 0.56527 0.02766 0.0
C603 C 0.96095 0.64849 0.09731 0.0
C604 C 0.93315 0.60976 0.11855 0.0
H605 H 0.97906 0.68453 0.03362 0.0
H606 H 0.98993 0.67093 0.11534 0.0
C607 C 0.89561 0.58187 0.09406 0.0
C608 C 0.3795 0.29584 0.14429 0.0
C609 C 0.40342 0.27654 0.1429 0.0
H610 H 0.38083 0.35211 0.16094 0.0
C611 C 0.43872 0.29036 0.17289 0.0
H612 H 0.3518 0.2851 0.12164 0.0
C613 C 0.45533 0.32849 0.19555 0.0
C614 C 0.43711 0.35307 0.18692 0.0
H615 H 0.45741 0.27562 0.17258 0.0
H616 H 0.48578 0.34129 0.21325 0.0
C617 C 0.39646 0.33446 0.16641 0.0
C618 C 0.03168 0.40424 0.48893 0.0
C619 C 1.01177 0.41651 0.52083 0.0
H620 H 1.02209 0.35867 0.43685 0.0
C621 C 0.96792 0.39874 0.51748 0.0
H622 H 0.06545 0.41733 0.49112 0.0
C623 C 0.94398 0.36872 0.48417 0.0
C624 C 0.96262 0.35197 0.45692 0.0
H625 H 0.95113 0.40557 0.54277 0.0
H626 H 0.91004 0.35445 0.48519 0.0
C627 C 1.00699 0.37134 0.45749 0.0
C628 C 0.69066 0.68484 0.63702 0.0
C629 C 0.66086 0.66847 0.59935 0.0
H630 H 0.75497 0.70635 0.65638 0.0
C631 C 0.67441 0.68359 0.55383 0.0
H632 H 0.68061 0.67484 0.67292 0.0
C633 C 0.71746 0.70358 0.54467 0.0
C634 C 0.74606 0.7071 0.58085 0.0
H635 H 0.65218 0.67251 0.52426 0.0
H636 H 0.72671 0.70735 0.50812 0.0
C637 C 0.73353 0.70294 0.62771 0.0
C638 C 0.40275 0.09025 0.59791 0.0
C639 C 0.44262 0.11897 0.61749 0.0
H640 H 0.36412 0.06836 0.53527 0.0
C641 C 0.46977 0.15463 0.59082 0.0
H642 H 0.38078 0.0627 0.61765 0.0
C643 C 0.46073 0.15734 0.54318 0.0
C644 C 0.42355 0.12534 0.52174 0.0
H645 H 0.50056 0.17777 0.60465 0.0
H646 H 0.48407 0.18339 0.52263 0.0
C647 C 0.39361 0.09298 0.55028 0.0
C648 C 0.41269 0.92965 0.96555 0.0
C649 C 0.43205 0.96979 0.94533 0.0
H650 H 0.35589 0.87852 -0.0072 0.0
C651 C 0.41314 0.99385 0.94969 0.0
H652 H 0.42691 0.91061 0.96257 0.0
C653 C 0.37199 0.97524 0.96605 0.0
C654 C 0.34969 0.9325 0.97834 0.0
H655 H 0.42748 0.02483 0.93413 0.0
H656 H 0.35638 0.99313 0.96427 0.0
C657 C 0.37165 0.91103 -0.01805 0.0
C658 C 0.14086 0.5015 0.89916 0.0
C659 C 0.09872 0.47756 0.88408 0.0
H660 H 0.1901 0.5029 0.94153 0.0
C661 C 0.07156 0.43962 0.90699 0.0
H662 H 0.16191 0.53159 0.88317 0.0
C663 C 0.08708 0.4238 0.9412 0.0
C664 C 0.13028 0.44517 0.9523 0.0
H665 H 0.03827 0.42155 0.8978 0.0
H666 H 0.06573 0.39328 0.95609 0.0
C667 C 0.15666 0.48533 0.93314 0.0
C668 C 0.56763 0.66834 0.87678 0.0
C669 C 0.59437 0.65969 0.85131 0.0
H670 H 0.56209 0.70233 0.93316 0.0
C671 C 0.63674 0.67766 0.86598 0.0
H672 H 0.53454 0.65414 0.86719 0.0
C673 C 0.65214 0.70402 0.90478 0.0
C674 C 0.62588 0.71406 0.92912 0.0
H675 H 0.65805 0.67078 0.84817 0.0
H676 H 0.6853 0.7182 0.91401 0.0
C677 C 0.58316 0.69507 0.91544 0.0
C678 C 0.711 0.97036 0.78765 0.0
C679 C 0.73736 0.95503 0.77668 0.0
H680 H 0.70749 0.02027 0.81961 0.0
C681 C 0.77694 0.97227 0.79929 0.0
H682 H 0.68056 0.95795 0.77003 0.0
C683 C 0.79204 1.00702 0.82802 0.0
C684 C 0.76859 0.02662 0.83341 0.0
H685 H 0.79848 0.96197 0.79037 0.0
H686 H 0.82445 0.02149 0.84028 0.0
C687 C 0.72661 1.00618 0.81592 0.0
C688 C 0.04488 0.74093 0.68368 0.0
C689 C 0.07146 0.76083 0.72345 0.0
H690 H 0.98245 0.71776 0.65464 0.0
C691 C 0.05363 0.75096 0.76807 0.0
H692 H 0.05823 0.74726 0.64874 0.0
C693 C 1.00983 0.73061 0.77161 0.0
C694 C 0.9843 0.72286 0.73055 0.0
H695 H 0.07311 0.76511 0.79935 0.0
H696 H 0.99695 0.72871 0.80616 0.0
C697 C 1.00129 0.724 0.68674 0.0
C698 C 0.30724 0.32539 0.81581 0.0
C699 C 0.2848 0.28402 0.83316 0.0
H700 H 0.3054 0.36923 0.76709 0.0
C701 C 0.24084 0.26105 0.82846 0.0
H702 H 0.34119 0.34427 0.82001 0.0
C703 C 0.22126 0.27448 0.79693 0.0
C704 C 0.24463 0.31261 0.77312 0.0
H705 H 0.22239 0.22946 0.84204 0.0
H706 H 0.18902 0.25231 0.78654 0.0
C707 C 0.28694 0.33976 0.78553 0.0
C708 C 1.01786 0.32675 0.23544 0.0
C709 C 0.99915 0.2936 0.26779 0.0
H710 H 0.07593 0.37527 0.2074 0.0
C711 C 0.02375 0.29332 0.30631 0.0
H712 H 0.99979 0.32805 0.20544 0.0
C713 C 0.06758 0.31961 0.30678 0.0
C714 C 0.08705 0.34604 0.26821 0.0
H715 H 1.01024 0.26879 0.33217 0.0
H716 H 0.0861 0.31313 0.33195 0.0
C717 C 0.0617 0.35427 0.23711 0.0
C718 C 0.70572 0.76899 0.28794 0.0
C719 C 0.73163 0.81234 0.28287 0.0
H720 H 0.70351 0.71307 0.31122 0.0
C721 C 0.76832 0.83396 0.31097 0.0
H722 H 0.67735 0.75183 0.26633 0.0
C723 C 0.78261 0.81218 0.33765 0.0
C724 C 0.76172 0.76861 0.33384 0.0
H725 H 0.7896 0.86722 0.30657 0.0
H726 H 0.81342 0.82971 0.35465 0.0
C727 C 0.72092 0.74689 0.31341 0.0
C728 C 0.36156 0.0353 0.22173 0.0
C729 C 0.35915 0.04507 0.26853 0.0
H730 H 0.33194 0.98842 0.1686 0.0
C731 C 0.33993 1.01203 0.30164 0.0
H732 H 0.37688 0.05991 0.19562 0.0
C733 C 0.31223 0.97126 0.28595 0.0
C734 C 0.30622 0.96358 0.23747 0.0
H735 H 0.33894 0.01886 0.33849 0.0
H736 H 0.29098 0.94809 0.31084 0.0
C737 C 0.33537 0.99416 0.20631 0.0
C738 C 0.94658 0.49308 0.93223 0.0
C739 C 0.97534 0.53296 0.91361 0.0
H740 H 0.91744 0.45806 -0.00513 0.0
C741 C 0.98363 0.56866 0.93803 0.0
H742 H 0.9381 0.46491 0.9128 0.0
C743 C 0.97025 0.56443 -0.01562 0.0
C744 C 0.94959 0.52469 0.00631 0.0
H745 H 1.00455 0.5996 0.92387 0.0
H746 H 0.98132 0.59254 0.00506 0.0
C747 C 0.93407 0.48888 0.97891 0.0
C748 C 0.56936 0.50505 0.94959 0.0
C749 C 0.53046 0.49153 0.92562 0.0
H750 H 0.60046 0.50897 0.01584 0.0
C751 C 0.49307 0.46255 0.94749 0.0
H752 H 0.59904 0.52623 0.933 0.0
C753 C 0.49428 0.4518 -0.00538 0.0
C754 C 0.53279 0.47026 0.02039 0.0
H755 H 0.46286 0.45059 0.9295 0.0
H756 H 0.46468 0.43221 0.01223 0.0
C757 C 0.57051 0.49458 -0.00319 0.0
C758 C 0.5309 0.98306 -0.01766 0.0
C759 C 0.56063 0.02594 -0.0108 0.0
H760 H 0.50506 0.93062 0.93515 0.0
C761 C 0.59091 0.04736 0.95466 0.0
H762 H 0.50832 0.96505 0.00934 0.0
C763 C 0.58936 0.02752 0.91261 0.0
C764 C 0.55715 0.98579 0.90363 0.0
H765 H 0.61539 0.07974 0.9598 0.0
H766 H 0.61211 0.04578 0.88585 0.0
C767 C 0.52965 0.96293 0.9403 0.0
C768 C 0.57448 0.09899 0.49294 0.0
C769 C 0.54072 0.09986 0.51238 0.0
H770 H 0.59387 0.07394 0.43901 0.0
C771 C 0.50329 0.08578 0.48541 0.0
H772 H 0.60353 0.10968 0.51308 0.0
C773 C 0.49678 0.06363 0.44373 0.0
C774 C 0.5281 0.05632 0.42853 0.0
H775 H 0.47687 0.08648 0.50006 0.0
H776 H 0.46624 0.04934 0.42598 0.0
C777 C 0.56818 0.0772 0.4512 0.0
C778 C 0.07945 0.53608 0.45045 0.0
C779 C 0.0583 0.50758 0.41351 0.0
H780 H 0.07398 0.56187 0.51529 0.0
C781 C 1.01484 0.47831 0.41872 0.0
H782 H 0.11295 0.55819 0.44853 0.0
C783 C 0.99237 0.4807 0.45639 0.0
C784 C 1.01271 0.51116 0.49158 0.0
H785 H 0.99736 0.45479 0.39206 0.0
H786 H 0.95885 0.45839 0.45803 0.0
C787 C 0.05673 0.53883 0.48807 0.0
C788 C 0.59407 0.58921 0.43055 0.0
C789 C 0.55848 0.5937 0.42717 0.0
H790 H 0.62634 0.56315 0.46745 0.0
C791 C 0.53164 0.58072 0.46621 0.0
H792 H 0.6165 0.6001 0.40231 0.0
C793 C 0.53682 0.55823 0.50394 0.0
C794 C 0.57005 0.54991 0.50436 0.0
H795 H 0.50477 0.58489 0.4657 0.0
H796 H 0.51403 0.54623 0.53185 0.0
C797 C 0.59954 0.56747 0.46806 0.0
C798 C 0.75983 0.9208 0.27694 0.0
C799 C 0.73621 0.92216 0.23838 0.0
H800 H 0.75932 0.90142 0.34839 0.0
C801 C 0.69247 0.90575 0.24439 0.0
H802 H 0.79356 0.93422 0.27454 0.0
C803 C 0.67235 0.88472 0.28604 0.0
C804 C 0.69574 0.88082 0.32323 0.0
H805 H 0.67332 0.90773 0.21631 0.0
H806 H 0.63909 0.87327 0.2899 0.0
C807 C 0.73986 0.90063 0.31865 0.0
C808 C 0.16418 0.82839 0.26403 0.0
C809 C 0.16056 0.86355 0.25342 0.0
H810 H 0.18373 0.7982 0.31475 0.0
C811 C 0.18019 0.89825 0.28358 0.0
H812 H 0.14946 0.80112 0.24144 0.0
C813 C 0.20132 0.89698 0.32445 0.0
C814 C 0.2021 0.86065 0.33661 0.0
H815 H 0.17847 0.92596 0.27628 0.0
H816 H 0.21306 0.92266 0.3492 0.0
C817 C 0.18504 0.82711 0.30513 0.0
C818 C 0.23368 0.3705 0.27883 0.0
C819 C 0.20483 0.32783 0.26936 0.0
H820 H 0.25474 0.42147 0.32724 0.0
C821 C 0.17654 0.30319 0.30467 0.0
H822 H 0.2564 0.39044 0.25283 0.0
C823 C 0.17627 0.32107 0.34763 0.0
C824 C 0.20382 0.36398 0.35597 0.0
H825 H 0.15409 0.27031 0.29882 0.0
H826 H 0.15377 0.30151 0.37399 0.0
C827 C 0.23265 0.38851 0.32131 0.0
C828 C 0.17493 0.36914 0.80038 0.0
C829 C 0.17856 0.34487 0.8366 0.0
H830 H 0.15171 0.37033 0.73034 0.0
C831 C 0.15837 0.30129 0.82919 0.0
H832 H 0.18704 0.40211 0.80593 0.0
C833 C 0.13731 0.28273 0.78653 0.0
C834 C 0.13574 0.30703 0.74922 0.0
H835 H 0.15792 0.28104 0.85739 0.0
H836 H 0.12286 0.24924 0.78251 0.0
C837 C 0.15329 0.35042 0.75757 0.0
C838 C 0.67778 0.8247 0.79186 0.0
C839 C 0.70689 0.85449 0.82367 0.0
H840 H 0.66802 0.79605 0.72419 0.0
C841 C 0.74989 0.87677 0.81189 0.0
H842 H 0.6451 0.80473 0.80139 0.0
C843 C 0.76329 0.87199 0.7682 0.0
C844 C 0.734 0.84426 0.73503 0.0
H845 H 0.77356 0.89777 0.8372 0.0
H846 H 0.79641 0.89091 0.76002 0.0
C847 C 0.69133 0.81903 0.74826 0.0
C848 C 0.22073 0.86664 0.80132 0.0
C849 C 0.18678 0.85127 0.83188 0.0
H850 H 0.25055 0.90423 0.74078 0.0
C851 C 0.15311 0.85751 0.82046 0.0
H852 H 0.24784 0.86387 0.81042 0.0
C853 C 0.15537 0.88239 0.78191 0.0
C854 C 0.19055 0.89989 0.75272 0.0
H855 H 0.12726 0.84716 0.84457 0.0
H856 H 0.12982 0.88818 0.77534 0.0
C857 C 0.22283 0.89106 0.76245 0.0
C858 C 0.35416 0.15245 0.62831 0.0
C859 C 0.38023 0.18846 0.60131 0.0
H860 H 0.32072 0.12767 0.69254 0.0
C861 C 0.39276 0.22791 0.6193 0.0
H862 H 0.34374 0.12148 0.61497 0.0
C863 C 0.3787 0.23124 0.66321 0.0
C864 C 0.35217 0.19519 0.68994 0.0
H865 H 0.41192 0.25596 0.59876 0.0
H866 H 0.38884 0.2622 0.67642 0.0
C867 C 0.34009 0.15577 0.67217 0.0
C868 C 0.90432 0.2101 0.62437 0.0
C869 C 0.86822 0.20093 0.59692 0.0
H870 H 0.92896 0.20573 0.69213 0.0
C871 C 0.82847 0.17825 0.6169 0.0
H872 H 0.93548 0.2274 0.60952 0.0
C873 C 0.8248 0.16503 0.66361 0.0
C874 C 0.86088 0.17489 0.69152 0.0
H875 H 0.80018 0.16991 0.59624 0.0
H876 H 0.79349 0.1476 0.67808 0.0
C877 C 0.90069 0.19722 0.67137 0.0
C878 C 0.82023 0.68809 0.68507 0.0
C879 C 0.85331 0.72996 0.69063 0.0
H880 H 0.79536 0.63055 0.64749 0.0
C881 C 0.88675 0.74613 0.65893 0.0
H882 H 0.79375 0.67456 0.70864 0.0
C883 C 0.88798 0.72043 0.62417 0.0
C884 C 0.85514 0.67832 0.6192 0.0
H885 H 0.91288 0.77799 0.66224 0.0
H886 H 0.91462 0.73375 0.60085 0.0
C887 C 0.82137 0.66251 0.65034 0.0
C888 C 0.88873 0.68481 0.13386 0.0
C889 C 0.85233 0.66316 0.10487 0.0
H890 H 0.91606 0.71934 0.19747 0.0
C891 C 0.81451 0.65917 0.119 0.0
H892 H 0.91856 0.68904 0.12318 0.0
C893 C 0.81352 0.67767 0.16087 0.0
C894 C 0.8503 0.70031 0.18904 0.0
H895 H 0.78646 0.64381 0.09662 0.0
H896 H 0.78387 0.674 0.17156 0.0
C897 C 0.88783 0.70352 0.17541 0.0
C898 C 0.36196 0.12893 0.09887 0.0
C899 C 0.40337 0.1638 0.09827 0.0
H900 H 0.30311 0.09624 0.13404 0.0
C901 C 0.41921 0.18769 0.13984 0.0
H902 H 0.34889 0.10855 0.06849 0.0
C903 C 0.39213 0.18091 0.17764 0.0
C904 C 0.34915 0.14928 0.17515 0.0
H905 H 0.45128 0.21385 0.14139 0.0
H906 H 0.40438 0.20169 0.20767 0.0
C907 C 0.33531 0.12203 0.13643 0.0
C908 C 0.79769 0.1671 0.13941 0.0
C909 C 0.82954 0.19544 0.10934 0.0
H910 H 0.78047 0.1223 0.1954 0.0
C911 C 0.86937 0.19917 0.11281 0.0
H912 H 0.76642 0.16277 0.13719 0.0
C913 C 0.87734 0.17534 0.14572 0.0
C914 C 0.84555 0.14739 0.17618 0.0
H915 H 0.89456 0.22097 0.09035 0.0
H916 H 0.90871 0.17994 0.14838 0.0
C917 C 0.80557 0.14335 0.17222 0.0
C918 C 0.10448 0.49393 0.10427 0.0
C919 C 0.10159 0.50446 0.1513 0.0
H920 H 0.1254 0.46297 0.05781 0.0
C921 C 0.11975 0.49241 0.18743 0.0
H922 H 0.09045 0.50237 0.07543 0.0
C923 C 0.14018 0.47072 0.17725 0.0
C924 C 0.14276 0.45943 0.13051 0.0
H925 H 0.11815 0.49967 0.22393 0.0
H926 H 0.15317 0.46187 0.20681 0.0
C927 C 0.1244 0.47122 0.09402 0.0
C928 C 0.58413 0.70708 0.16967 0.0
C929 C 0.59946 0.71866 0.12331 0.0
H930 H 0.55024 0.65796 0.21955 0.0
C931 C 0.58867 0.68679 0.09031 0.0
H932 H 0.59165 0.73036 0.19656 0.0
C933 C 0.56377 0.6445 0.10389 0.0
C934 C 0.55008 0.63346 0.15087 0.0
H935 H 0.59988 0.69444 0.05449 0.0
H936 H 0.55661 0.62047 0.07811 0.0
C937 C 0.56027 0.6653 0.18327 0.0
C938 C 0.34268 0.87163 0.13837 0.0
C939 C 0.32901 0.89466 0.11144 0.0
H940 H 0.38957 0.8741 0.18639 0.0
C941 C 0.35733 0.93749 0.10355 0.0
H942 H 0.32157 0.83855 0.14487 0.0
C943 C 0.3966 0.95777 0.12717 0.0
C944 C 0.40749 0.93533 0.15889 0.0
H945 H 0.34748 0.9561 0.08345 0.0
H946 H 0.41664 0.99139 0.12395 0.0
C947 C 0.38134 0.89193 0.16248 0.0
C948 C 0.52158 0.14276 0.28234 0.0
C949 C 0.50298 0.09945 0.28785 0.0
H950 H 0.51724 0.19695 0.29395 0.0
C951 C 0.46526 0.07772 0.31323 0.0
H952 H 0.55129 0.16059 0.26444 0.0
C953 C 0.44624 0.09872 0.33197 0.0
C954 C 0.46389 0.14191 0.32481 0.0
H955 H 0.45034 0.04433 0.31865 0.0
H956 H 0.41711 0.08094 0.35086 0.0
C957 C 0.50226 0.16362 0.30023 0.0
C958 C 0.93449 0.35898 0.3206 0.0
C959 C 0.8942 0.32543 0.30871 0.0
H960 H 0.97933 0.42435 0.31185 0.0
C961 C 0.86585 0.33428 0.28446 0.0
H962 H 0.95722 0.35334 0.33886 0.0
C963 C 0.87841 0.37482 0.26891 0.0
C964 C 0.91972 0.40794 0.27728 0.0
H965 H 0.83434 0.30926 0.27507 0.0
H966 H 0.85628 0.37972 0.24817 0.0
C967 C 0.94712 0.39979 0.30498 0.0
C968 C 0.68805 0.60402 0.35646 0.0
C969 C 0.70446 0.58117 0.3783 0.0
H970 H 0.64542 0.60527 0.30518 0.0
C971 C 0.68975 0.54013 0.36276 0.0
H972 H 0.6987 0.63569 0.36753 0.0
C973 C 0.65943 0.52274 0.32554 0.0
C974 C 0.64296 0.54595 0.30422 0.0
H975 H 0.70232 0.52201 0.3785 0.0
H976 H 0.64827 0.49106 0.31421 0.0
C977 C 0.65759 0.58662 0.32048 0.0
C978 C 0.90342 0.56892 0.83625 0.0
C979 C 0.90945 0.60302 0.8087 0.0
H980 H 0.90972 0.51504 0.84153 0.0
C981 C 0.9278 0.60876 0.76398 0.0
H982 H 0.88825 0.56281 0.87006 0.0
C983 C 0.94052 0.58169 0.74745 0.0
C984 C 0.93413 0.54716 0.7746 0.0
H985 H 0.93181 0.63415 0.74127 0.0
H986 H 0.95534 0.58787 0.71341 0.0
C987 C 0.91519 0.54115 0.81923 0.0
C988 C 0.48107 0.38598 0.80059 0.0
C989 C 0.52513 0.41252 0.80163 0.0
H990 H 0.42649 0.33636 0.83373 0.0
C991 C 0.5477 0.40475 0.83766 0.0
H992 H 0.46212 0.3915 0.77508 0.0
C993 C 0.52713 0.37259 0.87173 0.0
C994 C 0.48292 0.34687 0.87161 0.0
H995 H 0.58161 0.42488 0.84075 0.0
H996 H 0.54594 0.36858 0.89885 0.0
C997 C 0.46049 0.35417 0.83497 0.0
C998 C 0.65816 0.17668 0.81356 0.0
C999 C 0.64046 0.13632 0.79454 0.0
H1000 H 0.70381 0.2221 0.86239 0.0
C1001 C 0.65785 0.11182 0.80825 0.0
H1002 H 0.64529 0.19617 0.80377 0.0
C1003 C 0.69193 0.12703 0.84026 0.0
C1004 C 0.70884 0.16674 0.86066 0.0
H1005 H 0.64497 0.08063 0.79416 0.0
H1006 H 0.70399 0.10693 0.85048 0.0
C1007 C 0.69157 0.19146 0.84705 0.0
C1008 C 0.57919 0.93007 0.59284 0.0
C1009 C 0.59261 0.91214 0.62796 0.0
H1010 H 0.54701 0.96332 0.57713 0.0
C1011 C 0.58252 0.91399 0.67531 0.0
H1012 H 0.58643 0.92942 0.55617 0.0
C1013 C 0.56067 0.93387 0.68744 0.0
C1014 C 0.54744 0.95202 0.65259 0.0
H1015 H 0.59251 0.90097 0.70367 0.0
H1016 H 0.55439 0.93523 0.72432 0.0
C1017 C 0.55648 0.9494 0.60498 0.0
C1018 C 0.15731 0.67548 0.67676 0.0
C1019 C 0.11523 0.6454 0.66661 0.0
H1020 H 0.20806 0.73781 0.66574 0.0
C1021 C 0.09321 0.65438 0.63151 0.0
H1022 H 0.17513 0.66932 0.70325 0.0
C1023 C 0.11174 0.69443 0.61063 0.0
C1024 C 0.15293 0.72566 0.62377 0.0
H1025 H 0.06056 0.63166 0.62311 0.0
H1026 H 0.09273 0.70184 0.58743 0.0
C1027 C 0.17613 0.71472 0.65499 0.0
C1028 C 0.3989 0.45449 0.62851 0.0
C1029 C 0.4101 0.48554 0.66301 0.0
H1030 H 0.34928 0.40764 0.5846 0.0
C1031 C 0.38137 0.49824 0.67286 0.0
H1032 H 0.42045 0.44412 0.61996 0.0
C1033 C 0.34134 0.47836 0.65148 0.0
C1034 C 0.3286 0.44471 0.62027 0.0
H1035 H 0.38923 0.52251 0.69857 0.0
H1036 H 0.31928 0.4876 0.66184 0.0
C1037 C 0.3583 0.43391 0.60771 0.0
C1038 C 0.82548 0.86702 0.49376 0.0
C1039 C 0.78223 0.85184 0.48987 0.0
H1040 H 0.8748 0.85354 0.48615 0.0
C1041 C 0.75562 0.8122 0.46966 0.0
H1042 H 0.84667 0.89778 0.50827 0.0
C1043 C 0.77172 0.78724 0.45563 0.0
C1044 C 0.81468 0.80126 0.4622 0.0
H1045 H 0.72215 0.80028 0.46533 0.0
H1046 H 0.75024 0.75623 0.44197 0.0
C1047 C 0.84148 0.84183 0.48049 0.0
C1048 C 0.26207 0.03527 0.45866 0.0
C1049 C 0.23961 0.04473 0.42464 0.0
H1050 H 0.25955 0.99377 0.51341 0.0
C1051 C 0.19539 0.02181 0.42546 0.0
H1052 H 0.29598 0.05067 0.45806 0.0
C1053 C 0.17439 0.98821 0.45692 0.0
C1054 C 0.19713 0.97705 0.48846 0.0
H1055 H 0.17705 0.02814 0.39991 0.0
H1056 H 0.14039 0.96871 0.45386 0.0
C1057 C 0.24109 1.00236 0.49075 0.0
C1058 C 0.03172 0.18939 0.40966 0.0
C1059 C 1.00665 0.20758 0.4116 0.0
H1060 H 0.0885 0.19201 0.43397 0.0
C1061 C 1.01745 0.23915 0.44541 0.0
H1062 H 0.02473 0.16532 0.38402 0.0
C1063 C 0.0526 0.25304 0.4753 0.0
C1064 C 0.07937 0.23724 0.47085 0.0
H1065 H 1.00081 0.2558 0.44677 0.0
H1066 H 0.06113 0.27926 0.49835 0.0
C1067 C 0.06795 0.20435 0.43872 0.0
C1068 C 0.10785 0.43178 0.6554 0.0
C1069 C 0.1266 0.47557 0.6559 0.0
H1070 H 0.11051 0.3792 0.62928 0.0
C1071 C 0.16615 0.49982 0.63448 0.0
H1072 H 0.07723 0.41202 0.67077 0.0
C1073 C 0.18442 0.48118 0.60952 0.0
C1074 C 0.16438 0.43755 0.60603 0.0
H1075 H 0.18183 0.53363 0.63417 0.0
H1076 H 0.21369 0.50112 0.59153 0.0
C1077 C 0.12676 0.41299 0.63105 0.0
C1078 C 0.61894 0.73469 0.63213 0.0
C1079 C 0.59832 0.74085 0.59271 0.0
H1080 H 0.61896 0.69151 0.68431 0.0
C1081 C 0.55901 0.70692 0.57874 0.0
H1082 H 0.64943 0.75975 0.64384 0.0
C1083 C 0.54126 0.66828 0.60238 0.0
C1084 C 0.56237 0.66116 0.64056 0.0
H1085 H 0.54188 0.71001 0.54889 0.0
H1086 H 0.51126 0.64324 0.58899 0.0
C1087 C 0.60144 0.69537 0.65547 0.0
C1088 C 0.34049 0.90086 0.6957 0.0
C1089 C 0.38163 0.92582 0.67874 0.0
H1090 H 0.27419 0.86632 0.67915 0.0
C1091 C 0.38676 0.93288 0.62974 0.0
H1092 H 0.33538 0.89503 0.73324 0.0
C1093 C 0.35166 0.9157 0.59858 0.0
C1094 C 0.31042 0.89211 0.61573 0.0
H1095 H 0.41793 0.95161 0.6154 0.0
H1096 H 0.35673 0.92203 0.56111 0.0
C1097 C 0.30535 0.88472 0.6647 0.0
C1098 C 0.5629 0.86757 0.0878 0.0
C1099 C 0.60557 0.8809 0.09497 0.0
H1100 H 0.5103 0.8718 0.10922 0.0
C1101 C 0.62716 0.9076 0.13344 0.0
H1102 H 0.54507 0.84665 0.05901 0.0
C1103 C 0.60729 0.92196 0.16299 0.0
C1104 C 0.56519 0.91047 0.1543 0.0
H1105 H 0.6603 0.91935 0.13914 0.0
H1106 H 0.62573 0.94426 0.19046 0.0
C1107 C 0.5429 0.88174 0.11729 0.0
C1108 C 0.13602 0.69868 0.09533 0.0
C1109 C 0.1597 0.74024 0.11143 0.0
H1110 H 0.10118 0.63342 0.11352 0.0
C1111 C 0.16835 0.74657 0.16039 0.0
H1112 H 0.12882 0.69238 0.058 0.0
C1113 C 0.15294 0.71267 0.19226 0.0
C1114 C 0.1276 0.67123 0.17642 0.0
H1115 H 0.18718 0.77777 0.17437 0.0
H1116 H 0.15961 0.71904 0.22966 0.0
C1117 C 0.11981 0.66476 0.12736 0.0
C1118 C 0.35533 0.47234 0.1054 0.0
C1119 C 0.31357 0.45581 0.11998 0.0
H1120 H 0.42079 0.50187 0.12536 0.0
C1121 C 0.30758 0.45962 0.16837 0.0
H1122 H 0.36163 0.47041 0.06868 0.0
C1123 C 0.34172 0.4778 0.20113 0.0
C1124 C 0.38325 0.49246 0.18697 0.0
H1125 H 0.27628 0.44826 0.18129 0.0
H1126 H 0.33531 0.47895 0.23801 0.0
C1127 C 0.38945 0.49007 0.13831 0.0
C1128 C 0.21217 0.25327 0.97117 0.0
C1129 C 0.20884 0.26322 0.01828 0.0
H1130 H 0.24312 0.23412 0.92297 0.0
C1131 C 0.23495 0.26032 0.05304 0.0
H1132 H 0.1931 0.2557 0.94306 0.0
C1133 C 0.26353 0.24797 0.04106 0.0
C1134 C 0.26754 0.23909 -0.00615 0.0
H1135 H 0.23379 0.26819 0.0894 0.0
H1136 H 0.28315 0.24606 0.06886 0.0
C1137 C 0.24139 0.2417 0.95914 0.0
C1138 C 0.81834 0.996 0.95908 0.0
C1139 C 0.80208 0.9793 0.00399 0.0
H1140 H 0.84487 0.05007 0.91379 0.0
C1141 C 0.79985 1.00566 0.03717 0.0
H1142 H 0.82099 0.97691 0.93256 0.0
C1143 C 0.81247 0.04704 0.02537 0.0
C1144 C 0.82615 0.06283 0.97969 0.0
H1145 H 0.78797 0.99428 0.07219 0.0
H1146 H 0.81209 0.06693 0.05243 0.0
C1147 C 0.83062 0.03744 0.94739 0.0
C1148 C 0.04889 0.81472 -0.0017 0.0
C1149 C 0.07625 0.85776 -0.0083 0.0
H1150 H 0.995 0.75913 0.97276 0.0
C1151 C 0.06434 0.87912 0.95936 0.0
H1152 H 0.05764 0.7972 0.02204 0.0
C1153 C 0.02767 0.85732 0.93135 0.0
C1154 C 1.0024 0.81354 0.93452 0.0
H1155 H 0.0851 0.9123 0.95317 0.0
H1156 H 1.02073 0.87451 0.90509 0.0
C1157 C 1.01275 0.79278 0.9696 0.0
C1158 C 0.47667 0.15186 0.78616 0.0
C1159 C 0.48426 0.12847 0.81994 0.0
H1160 H 0.45851 0.19722 0.77311 0.0
C1161 C 0.47995 0.13436 0.86815 0.0
H1162 H 0.47998 0.14837 0.74896 0.0
C1163 C 0.46758 0.16221 0.88219 0.0
C1164 C 0.4598 0.18551 0.84848 0.0
H1165 H 0.48543 0.11677 0.8953 0.0
H1166 H 0.46344 0.16494 0.91943 0.0
C1167 C 0.46495 0.18032 0.80027 0.0
C1168 C 0.87276 0.34236 0.74125 0.0
C1169 C 0.91418 0.37373 0.75316 0.0
H1170 H 0.81831 0.28413 0.76007 0.0
C1171 C 0.93068 0.37099 0.79779 0.0
H1172 H 0.8587 0.34329 0.70758 0.0
C1173 C 0.90731 0.33683 0.82835 0.0
C1174 C 0.86674 0.3043 0.81516 0.0
H1175 H 0.96261 0.39407 0.80823 0.0
H1176 H 0.92209 0.33469 0.86093 0.0
C1177 C 0.84944 0.30839 0.77175 0.0
C1178 C 0.73558 0.55884 0.80432 0.0
C1179 C 0.74845 0.59774 0.82511 0.0
H1180 H 0.69466 0.51298 0.75273 0.0
C1181 C 0.72823 0.61944 0.81111 0.0
H1182 H 0.75114 0.54181 0.81419 0.0
C1183 C 0.69562 0.60267 0.77734 0.0
C1184 C 0.68319 0.56433 0.75549 0.0
H1185 H 0.73775 0.6496 0.82634 0.0
H1186 H 0.68087 0.62045 0.76728 0.0
C1187 C 0.70358 0.54254 0.76908 0.0
C1188 C 0.79527 0.80019 -0.01391 0.0
C1189 C 0.81563 0.82622 0.02567 0.0
H1190 H 0.79743 0.76224 0.93098 0.0
C1191 C 0.85712 0.83637 0.0365 0.0
H1192 H 0.76318 0.79086 0.97666 0.0
C1193 C 0.8767 0.81955 0.01021 0.0
C1194 C 0.85564 0.79214 0.97193 0.0
H1195 H 0.87408 0.8562 0.06638 0.0
H1196 H 0.90803 0.82682 0.02113 0.0
C1197 C 0.81502 0.78368 0.95947 0.0
C1198 C 0.24946 0.04334 0.94131 0.0
C1199 C 0.26862 0.0837 0.96053 0.0
H1200 H 0.21811 0.97766 0.95469 0.0
C1201 C 0.26782 0.08776 0.00968 0.0
H1202 H 0.24913 0.03912 0.90352 0.0
C1203 C 0.2498 0.05243 0.03905 0.0
C1204 C 0.23296 1.01212 0.02024 0.0
H1205 H 0.28114 0.11824 0.02561 0.0
H1206 H 0.25028 0.05678 0.07677 0.0
C1207 C 0.23213 1.00799 0.97084 0.0
C1208 C 1.01128 0.22997 0.95583 0.0
C1209 C 0.9717 0.22143 0.97093 0.0
H1210 H 0.07598 0.25237 0.97487 0.0
C1211 C 0.96683 0.2258 0.01929 0.0
H1212 H 1.01611 0.22671 0.91896 0.0
C1213 C 1.00079 0.23949 0.05148 0.0
C1214 C 0.04084 0.25013 0.03599 0.0
H1215 H 0.9367 0.21896 0.0322 0.0
H1216 H 0.99618 0.24373 0.08815 0.0
C1217 C 0.04561 0.24473 -0.0121 0.0
C1218 C 0.25515 0.25655 0.4759 0.0
C1219 C 0.2262 0.23548 0.5125 0.0
H1220 H 0.29497 0.25437 0.42311 0.0
C1221 C 0.21301 0.19313 0.52024 0.0
H1222 H 0.26711 0.28934 0.46922 0.0
C1223 C 0.2294 0.17318 0.49388 0.0
C1224 C 0.25948 0.19465 0.45853 0.0
H1225 H 0.19088 0.17556 0.54777 0.0
H1226 H 0.21955 0.14105 0.50251 0.0
C1227 C 0.27128 0.23641 0.44913 0.0
C1228 C 0.80727 0.05176 0.44372 0.0
C1229 C 0.85149 0.07514 0.44695 0.0
H1230 H 0.74993 1.00312 0.47349 0.0
C1231 C 0.87173 0.06231 0.48015 0.0
H1232 H 0.79055 0.06138 0.41966 0.0
C1233 C 0.84848 0.02884 0.51126 0.0
C1234 C 0.80418 1.00725 0.5104 0.0
H1235 H 0.90576 0.07997 0.48412 0.0
H1236 H 0.86537 0.02107 0.5373 0.0
C1237 C 0.78394 0.01848 0.47521 0.0
C1238 C 1.00275 0.81797 0.53652 0.0
C1239 C 0.0429 0.83335 0.51782 0.0
H1240 H 0.93643 0.78703 0.52295 0.0
C1241 C 0.04647 0.83232 0.46856 0.0
H1242 H 0.99885 0.81838 0.57426 0.0
C1243 C 1.01049 0.81438 0.43898 0.0
C1244 C 0.9702 0.79649 0.45818 0.0
H1245 H 0.07683 0.84492 0.45268 0.0
H1246 H 1.01409 0.81277 0.40136 0.0
C1247 C 0.96684 0.79948 0.5071 0.0
C1248 C 0.89728 0.59701 0.37608 0.0
C1249 C 0.87 0.60161 0.34476 0.0
H1250 H 0.94409 0.58006 0.38531 0.0
C1251 C 0.87044 0.59273 0.29637 0.0
H1252 H 0.89848 0.60413 0.41322 0.0
C1253 C 0.89745 0.57969 0.27989 0.0
C1254 C 0.92424 0.57457 0.31149 0.0
H1255 H 0.85045 0.59663 0.27078 0.0
H1256 H 0.89663 0.57283 0.24281 0.0
C1257 C 0.92369 0.58344 0.35977 0.0
C1258 C 0.51176 0.37878 0.34101 0.0
C1259 C 0.48712 0.39106 0.31473 0.0
H1260 H 0.51456 0.32896 0.37614 0.0
C1261 C 0.44585 0.36066 0.30134 0.0
H1262 H 0.54368 0.40168 0.35201 0.0
C1263 C 0.42927 0.31881 0.31462 0.0
C1264 C 0.45339 0.30678 0.34257 0.0
H1265 H 0.4258 0.3695 0.28233 0.0
H1266 H 0.39689 0.29632 0.30484 0.0
C1267 C 0.49509 0.33714 0.35481 0.0
C1268 C 0.72007 0.15216 0.24578 0.0
C1269 C 0.68042 0.12234 0.26331 0.0
H1270 H 0.78469 0.19588 0.26102 0.0
C1271 C 0.67601 0.11778 0.31271 0.0
H1272 H 0.72491 0.15761 0.2082 0.0
C1273 C 0.71096 0.13985 0.34333 0.0
C1274 C 0.75105 0.16695 0.32516 0.0
H1275 H 0.64613 0.09668 0.32812 0.0
H1276 H 0.70699 0.13401 0.38098 0.0
C1277 C 0.75478 0.17403 0.27623 0.0
loop_
_geom_bond_atom_site_label_1
_geom_bond_atom_site_label_2
_geom_bond_distance
_geom_bond_site_symmetry_2
_ccdc_geom_bond_type
C0 O12 1.235 1_655 S
C0 O13 1.280 . S
C1 O14 1.277 . S
C1 O15 1.245 . S
C2 O26 1.247 . S
C2 O28 1.289 . S
Mg3 O4 1.926 . S
Mg3 O13 1.984 . S
Mg3 O15 1.988 . S
Mg3 O16 2.061 . S
O4 Mg3 1.926 . S
O4 Mg5 1.986 1_655 S
O4 Mg6 1.917 1_655 S
Mg5 O4 1.986 1_455 S
Mg5 O12 2.042 . S
Mg5 O14 2.041 1_455 S
Mg5 O20 2.038 . S
Mg5 O28 2.238 . S
Mg6 O4 1.917 1_455 S
Mg6 O7 1.917 . S
Mg6 O17 2.106 1_455 S
Mg6 O19 2.079 . S
Mg6 O28 2.106 . S
Mg6 O29 2.079 1_455 S
O7 Mg6 1.917 . S
O7 Mg8 1.926 . S
O7 Mg9 1.986 1_455 S
Mg8 O7 1.926 . S
Mg8 O22 1.984 . S
Mg8 O25 1.988 . S
Mg8 O26 2.061 . S
Mg9 O7 1.986 1_655 S
Mg9 O17 2.238 . S
Mg9 O21 2.042 1_655 S
Mg9 O23 2.041 1_655 S
Mg9 O30 2.038 . S
C10 O16 1.247 . S
C10 O17 1.289 . S
C11 O29 1.245 . S
C11 O30 1.274 . S
O12 C0 1.235 1_455 S
O12 Mg5 2.042 . S
O13 C0 1.280 . S
O13 Mg3 1.984 . S
O14 C1 1.277 . S
O14 Mg5 2.041 1_655 S
O15 C1 1.245 . S
O15 Mg3 1.988 . S
O16 Mg3 2.061 . S
O16 C10 1.247 . S
O17 Mg6 2.106 1_655 S
O17 Mg9 2.238 . S
O17 C10 1.289 . S
C18 O19 1.245 . S
C18 O20 1.274 . S
O19 Mg6 2.079 . S
O19 C18 1.245 . S
O20 Mg5 2.038 . S
O20 C18 1.274 . S
O21 Mg9 2.042 1_455 S
O21 C24 1.241 . S
O22 Mg8 1.984 . S
O22 C24 1.280 . S
O23 Mg9 2.041 1_455 S
O23 C27 1.277 . S
C24 O21 1.241 . S
C24 O22 1.280 . S
O25 Mg8 1.988 . S
O25 C27 1.245 . S
O26 C2 1.247 . S
O26 Mg8 2.061 . S
C27 O23 1.277 . S
C27 O25 1.245 . S
O28 C2 1.289 . S
O28 Mg5 2.238 . S
O28 Mg6 2.106 . S
O29 Mg6 2.079 1_655 S
O29 C11 1.245 . S
O30 Mg9 2.038 . S
O30 C11 1.274 . S
C31 O43 1.241 . S
C31 O44 1.280 . S
C32 O45 1.277 . S
C32 O46 1.245 . S
C33 O57 1.247 . S
C33 O59 1.289 . S
Mg34 O35 1.926 . S
Mg34 O44 1.984 . S
Mg34 O46 1.988 . S
Mg34 O47 2.061 . S
O35 Mg34 1.926 . S
O35 Mg36 1.986 . S
O35 Mg37 1.917 . S
Mg36 O35 1.986 . S
Mg36 O43 2.042 . S
Mg36 O45 2.041 . S
Mg36 O51 2.038 . S
Mg36 O59 2.238 . S
Mg37 O35 1.917 . S
Mg37 O38 1.917 . S
Mg37 O48 2.106 . S
Mg37 O50 2.079 . S
Mg37 O59 2.106 . S
Mg37 O60 2.079 . S
O38 Mg37 1.917 . S
O38 Mg39 1.926 . S
O38 Mg40 1.986 . S
Mg39 O38 1.926 . S
Mg39 O53 1.984 . S
Mg39 O56 1.988 . S
Mg39 O57 2.061 . S
Mg40 O38 1.986 . S
Mg40 O48 2.238 . S
Mg40 O52 2.042 . S
Mg40 O54 2.041 . S
Mg40 O61 2.038 . S
C41 O47 1.247 . S
C41 O48 1.289 . S
C42 O60 1.245 . S
C42 O61 1.274 . S
O43 C31 1.241 . S
O43 Mg36 2.042 . S
O44 C31 1.280 . S
O44 Mg34 1.984 . S
O45 C32 1.277 . S
O45 Mg36 2.041 . S
O46 C32 1.245 . S
O46 Mg34 1.988 . S
O47 Mg34 2.061 . S
O47 C41 1.247 . S
O48 Mg37 2.106 . S
O48 Mg40 2.238 . S
O48 C41 1.289 . S
C49 O50 1.245 . S
C49 O51 1.274 . S
O50 Mg37 2.079 . S
O50 C49 1.245 . S
O51 Mg36 2.038 . S
O51 C49 1.274 . S
O52 Mg40 2.042 . S
O52 C55 1.241 . S
O53 Mg39 1.984 . S
O53 C55 1.280 . S
O54 Mg40 2.041 . S
O54 C58 1.277 . S
C55 O52 1.241 . S
C55 O53 1.280 . S
O56 Mg39 1.988 . S
O56 C58 1.245 . S
O57 C33 1.247 . S
O57 Mg39 2.061 . S
C58 O54 1.277 . S
C58 O56 1.245 . S
O59 C33 1.289 . S
O59 Mg36 2.238 . S
O59 Mg37 2.106 . S
O60 Mg37 2.079 . S
O60 C42 1.245 . S
O61 Mg40 2.038 . S
O61 C42 1.274 . S
C62 O74 1.254 . S
C62 O75 1.280 . S
C63 O76 1.277 . S
C63 O77 1.245 . S
C64 O88 1.247 . S
C64 O90 1.289 . S
Mg65 O66 1.926 . S
Mg65 O75 1.984 . S
Mg65 O77 1.988 . S
Mg65 O78 2.061 . S
O66 Mg65 1.926 . S
O66 Mg67 1.986 1_565 S
O66 Mg68 1.917 1_565 S
Mg67 O66 1.986 1_545 S
Mg67 O74 2.043 1_545 S
Mg67 O76 2.041 1_545 S
Mg67 O82 2.038 . S
Mg67 O90 2.238 . S
Mg68 O66 1.917 1_545 S
Mg68 O69 1.917 . S
Mg68 O79 2.106 1_545 S
Mg68 O81 2.079 . S
Mg68 O90 2.106 . S
Mg68 O91 2.079 1_545 S
O69 Mg68 1.917 . S
O69 Mg70 1.926 . S
O69 Mg71 1.986 1_545 S
Mg70 O69 1.926 . S
Mg70 O84 1.984 . S
Mg70 O87 1.988 . S
Mg70 O88 2.061 . S
Mg71 O69 1.986 1_565 S
Mg71 O79 2.238 . S
Mg71 O83 2.042 1_565 S
Mg71 O85 2.041 1_565 S
Mg71 O92 2.038 . S
C72 O78 1.247 . S
C72 O79 1.289 . S
C73 O91 1.245 . S
C73 O92 1.274 . S
O74 C62 1.254 . S
O74 Mg67 2.043 1_565 S
O75 C62 1.280 . S
O75 Mg65 1.984 . S
O76 C63 1.277 . S
O76 Mg67 2.041 1_565 S
O77 C63 1.245 . S
O77 Mg65 1.988 . S
O78 Mg65 2.061 . S
O78 C72 1.247 . S
O79 Mg68 2.106 1_565 S
O79 Mg71 2.238 . S
O79 C72 1.289 . S
C80 O81 1.245 . S
C80 O82 1.274 . S
O81 Mg68 2.079 . S
O81 C80 1.245 . S
O82 Mg67 2.038 . S
O82 C80 1.274 . S
O83 Mg71 2.042 1_545 S
O83 C86 1.241 . S
O84 Mg70 1.984 . S
O84 C86 1.280 . S
O85 Mg71 2.041 1_545 S
O85 C89 1.277 . S
C86 O83 1.241 . S
C86 O84 1.280 . S
O87 Mg70 1.988 . S
O87 C89 1.245 . S
O88 C64 1.247 . S
O88 Mg70 2.061 . S
C89 O85 1.277 . S
C89 O87 1.245 . S
O90 C64 1.289 . S
O90 Mg67 2.238 . S
O90 Mg68 2.106 . S
O91 Mg68 2.079 1_565 S
O91 C73 1.245 . S
O92 Mg71 2.038 . S
O92 C73 1.274 . S
C93 O105 1.241 1_655 S
C93 O106 1.280 . S
C94 O107 1.277 . S
C94 O108 1.245 . S
C95 O119 1.247 . S
C95 O121 1.289 . S
Mg96 O97 1.926 . S
Mg96 O106 1.984 . S
Mg96 O108 1.988 . S
Mg96 O109 2.061 . S
O97 Mg96 1.926 . S
O97 Mg98 1.986 1_655 S
O97 Mg99 1.917 1_655 S
Mg98 O97 1.986 1_455 S
Mg98 O105 2.042 . S
Mg98 O107 2.041 1_455 S
Mg98 O113 2.038 . S
Mg98 O121 2.238 . S
Mg99 O97 1.917 1_455 S
Mg99 O100 1.917 . S
Mg99 O110 2.106 1_455 S
Mg99 O112 2.079 . S
Mg99 O121 2.106 . S
Mg99 O122 2.079 1_455 S
O100 Mg99 1.917 . S
O100 Mg101 1.926 . S
O100 Mg102 1.986 1_455 S
Mg101 O100 1.926 . S
Mg101 O115 1.984 . S
Mg101 O118 1.988 . S
Mg101 O119 2.061 . S
Mg102 O100 1.986 1_655 S
Mg102 O110 2.238 . S
Mg102 O114 2.042 1_655 S
Mg102 O116 2.041 1_655 S
Mg102 O123 2.038 . S
C103 O109 1.247 . S
C103 O110 1.289 . S
C104 O122 1.245 . S
C104 O123 1.274 . S
O105 C93 1.241 1_455 S
O105 Mg98 2.042 . S
O106 C93 1.280 . S
O106 Mg96 1.984 . S
O107 C94 1.277 . S
O107 Mg98 2.041 1_655 S
O108 C94 1.245 . S
O108 Mg96 1.988 . S
O109 Mg96 2.061 . S
O109 C103 1.247 . S
O110 Mg99 2.106 1_655 S
O110 Mg102 2.238 . S
O110 C103 1.289 . S
C111 O112 1.245 . S
C111 O113 1.274 . S
O112 Mg99 2.079 . S
O112 C111 1.245 . S
O113 Mg98 2.038 . S
O113 C111 1.274 . S
O114 Mg102 2.042 1_455 S
O114 C117 1.241 . S
O115 Mg101 1.984 . S
O115 C117 1.280 . S
O116 Mg102 2.041 1_455 S
O116 C120 1.277 . S
C117 O114 1.241 . S
C117 O115 1.280 . S
O118 Mg101 1.988 . S
O118 C120 1.245 . S
O119 C95 1.247 . S
O119 Mg101 2.061 . S
C120 O116 1.277 . S
C120 O118 1.245 . S
O121 C95 1.289 . S
O121 Mg98 2.238 . S
O121 Mg99 2.106 . S
O122 Mg99 2.079 1_655 S
O122 C104 1.245 . S
O123 Mg102 2.038 . S
O123 C104 1.274 . S
C124 O136 1.241 . S
C124 O137 1.280 . S
C125 O138 1.277 . S
C125 O139 1.245 . S
C126 O150 1.247 . S
C126 O152 1.289 . S
Mg127 O128 1.926 . S
Mg127 O137 1.984 . S
Mg127 O139 1.988 . S
Mg127 O140 2.061 . S
O128 Mg127 1.926 . S
O128 Mg129 1.986 . S
O128 Mg130 1.917 . S
Mg129 O128 1.986 . S
Mg129 O136 2.042 . S
Mg129 O138 2.041 . S
Mg129 O144 2.038 . S
Mg129 O152 2.238 . S
Mg130 O128 1.917 . S
Mg130 O131 1.917 . S
Mg130 O141 2.106 . S
Mg130 O143 2.079 . S
Mg130 O152 2.106 . S
Mg130 O153 2.079 . S
O131 Mg130 1.917 . S
O131 Mg132 1.926 . S
O131 Mg133 1.986 . S
Mg132 O131 1.926 . S
Mg132 O146 1.984 . S
Mg132 O149 1.988 . S
Mg132 O150 2.061 . S
Mg133 O131 1.986 . S
Mg133 O141 2.238 . S
Mg133 O145 2.042 . S
Mg133 O147 2.041 . S
Mg133 O154 2.038 . S
C134 O140 1.247 . S
C134 O141 1.289 . S
C135 O153 1.245 . S
C135 O154 1.274 . S
O136 C124 1.241 . S
O136 Mg129 2.042 . S
O137 C124 1.280 . S
O137 Mg127 1.984 . S
O138 C125 1.277 . S
O138 Mg129 2.041 . S
O139 C125 1.245 . S
O139 Mg127 1.988 . S
O140 Mg127 2.061 . S
O140 C134 1.247 . S
O141 Mg130 2.106 . S
O141 Mg133 2.238 . S
O141 C134 1.289 . S
C142 O143 1.245 . S
C142 O144 1.274 . S
O143 Mg130 2.079 . S
O143 C142 1.245 . S
O144 Mg129 2.038 . S
O144 C142 1.274 . S
O145 Mg133 2.042 . S
O145 C148 1.241 . S
O146 Mg132 1.984 . S
O146 C148 1.280 . S
O147 Mg133 2.041 . S
O147 C151 1.277 . S
C148 O145 1.241 . S
C148 O146 1.280 . S
O149 Mg132 1.988 . S
O149 C151 1.245 . S
O150 C126 1.247 . S
O150 Mg132 2.061 . S
C151 O147 1.277 . S
C151 O149 1.245 . S
O152 C126 1.289 . S
O152 Mg129 2.238 . S
O152 Mg130 2.106 . S
O153 Mg130 2.079 . S
O153 C135 1.245 . S
O154 Mg133 2.038 . S
O154 C135 1.274 . S
C155 O167 1.241 1_565 S
C155 O168 1.280 . S
C156 O169 1.277 . S
C156 O170 1.245 . S
C157 O181 1.247 . S
C157 O183 1.289 . S
Mg158 O159 1.926 . S
Mg158 O168 1.984 . S
Mg158 O170 1.988 . S
Mg158 O171 2.061 . S
O159 Mg158 1.926 . S
O159 Mg160 1.986 1_565 S
O159 Mg161 1.917 1_565 S
Mg160 O159 1.986 1_545 S
Mg160 O167 2.042 . S
Mg160 O169 2.041 1_545 S
Mg160 O175 2.038 . S
Mg160 O183 2.238 . S
Mg161 O159 1.917 1_545 S
Mg161 O162 1.917 . S
Mg161 O172 2.106 1_545 S
Mg161 O174 2.079 . S
Mg161 O183 2.106 . S
Mg161 O184 2.079 1_545 S
O162 Mg161 1.917 . S
O162 Mg163 1.926 . S
O162 Mg164 1.986 1_545 S
Mg163 O162 1.926 . S
Mg163 O177 1.984 . S
Mg163 O180 1.988 . S
Mg163 O181 2.061 . S
Mg164 O162 1.986 1_565 S
Mg164 O172 2.238 . S
Mg164 O176 2.042 1_565 S
Mg164 O178 2.041 1_565 S
Mg164 O185 2.038 . S
C165 O171 1.247 . S
C165 O172 1.289 . S
C166 O184 1.245 . S
C166 O185 1.274 . S
O167 C155 1.241 1_545 S
O167 Mg160 2.042 . S
O168 C155 1.280 . S
O168 Mg158 1.984 . S
O169 C156 1.277 . S
O169 Mg160 2.041 1_565 S
O170 C156 1.245 . S
O170 Mg158 1.988 . S
O171 Mg158 2.061 . S
O171 C165 1.247 . S
O172 Mg161 2.106 1_565 S
O172 Mg164 2.238 . S
O172 C165 1.289 . S
C173 O174 1.245 . S
C173 O175 1.274 . S
O174 Mg161 2.079 . S
O174 C173 1.245 . S
O175 Mg160 2.038 . S
O175 C173 1.274 . S
O176 Mg164 2.042 1_545 S
O176 C179 1.241 . S
O177 Mg163 1.984 . S
O177 C179 1.280 . S
O178 Mg164 2.041 1_545 S
O178 C182 1.277 . S
C179 O176 1.241 . S
C179 O177 1.280 . S
O180 Mg163 1.988 . S
O180 C182 1.245 . S
O181 C157 1.247 . S
O181 Mg163 2.061 . S
C182 O178 1.277 . S
C182 O180 1.245 . S
O183 C157 1.289 . S
O183 Mg160 2.238 . S
O183 Mg161 2.106 . S
O184 Mg161 2.079 1_565 S
O184 C166 1.245 . S
O185 Mg164 2.038 . S
O185 C166 1.274 . S
C186 O198 1.241 . S
C186 O199 1.280 . S
C187 O200 1.277 . S
C187 O201 1.245 . S
C188 O212 1.247 . S
C188 O214 1.289 . S
Mg189 O190 1.926 . S
Mg189 O199 1.984 . S
Mg189 O201 1.988 . S
Mg189 O202 2.061 . S
O190 Mg189 1.926 . S
O190 Mg191 1.986 . S
O190 Mg192 1.917 . S
Mg191 O190 1.986 . S
Mg191 O198 2.042 . S
Mg191 O200 2.041 . S
Mg191 O206 2.038 . S
Mg191 O214 2.238 . S
Mg192 O190 1.917 . S
Mg192 O193 1.917 . S
Mg192 O203 2.106 . S
Mg192 O205 2.079 . S
Mg192 O214 2.106 . S
Mg192 O215 2.079 . S
O193 Mg192 1.917 . S
O193 Mg194 1.926 . S
O193 Mg195 1.986 . S
Mg194 O193 1.926 . S
Mg194 O208 1.984 . S
Mg194 O211 1.988 . S
Mg194 O212 2.061 . S
Mg195 O193 1.986 . S
Mg195 O203 2.238 . S
Mg195 O207 2.042 . S
Mg195 O209 2.041 . S
Mg195 O216 2.038 . S
C196 O202 1.247 . S
C196 O203 1.289 . S
C197 O215 1.245 . S
C197 O216 1.274 . S
O198 C186 1.241 . S
O198 Mg191 2.042 . S
O199 C186 1.280 . S
O199 Mg189 1.984 . S
O200 C187 1.277 . S
O200 Mg191 2.041 . S
O201 C187 1.245 . S
O201 Mg189 1.988 . S
O202 Mg189 2.061 . S
O202 C196 1.247 . S
O203 Mg192 2.106 . S
O203 Mg195 2.238 . S
O203 C196 1.289 . S
C204 O205 1.245 . S
C204 O206 1.274 . S
O205 Mg192 2.079 . S
O205 C204 1.245 . S
O206 Mg191 2.038 . S
O206 C204 1.274 . S
O207 Mg195 2.042 . S
O207 C210 1.241 . S
O208 Mg194 1.984 . S
O208 C210 1.280 . S
O209 Mg195 2.041 . S
O209 C213 1.277 . S
C210 O207 1.241 . S
C210 O208 1.280 . S
O211 Mg194 1.988 . S
O211 C213 1.245 . S
O212 C188 1.247 . S
O212 Mg194 2.061 . S
C213 O209 1.277 . S
C213 O211 1.245 . S
O214 C188 1.289 . S
O214 Mg191 2.238 . S
O214 Mg192 2.106 . S
O215 Mg192 2.079 . S
O215 C197 1.245 . S
O216 Mg195 2.038 . S
O216 C197 1.274 . S
C217 O229 1.241 . S
C217 O230 1.280 . S
C218 O231 1.277 . S
C218 O232 1.245 . S
C219 O243 1.247 . S
C219 O245 1.289 . S
Mg220 O221 1.926 . S
Mg220 O230 1.984 . S
Mg220 O232 1.988 . S
Mg220 O233 2.061 . S
O221 Mg220 1.926 . S
O221 Mg222 1.986 . S
O221 Mg223 1.917 . S
Mg222 O221 1.986 . S
Mg222 O229 2.042 . S
Mg222 O231 2.041 . S
Mg222 O237 2.038 . S
Mg222 O245 2.238 . S
Mg223 O221 1.917 . S
Mg223 O224 1.917 . S
Mg223 O234 2.106 . S
Mg223 O236 2.079 . S
Mg223 O245 2.106 . S
Mg223 O246 2.079 . S
O224 Mg223 1.917 . S
O224 Mg225 1.926 . S
O224 Mg226 1.986 . S
Mg225 O224 1.926 . S
Mg225 O239 1.984 . S
Mg225 O242 1.988 . S
Mg225 O243 2.061 . S
Mg226 O224 1.986 . S
Mg226 O234 2.238 . S
Mg226 O238 2.042 . S
Mg226 O240 2.041 . S
Mg226 O247 2.038 . S
C227 O233 1.247 . S
C227 O234 1.289 . S
C228 O246 1.245 . S
C228 O247 1.274 . S
O229 C217 1.241 . S
O229 Mg222 2.042 . S
O230 C217 1.280 . S
O230 Mg220 1.984 . S
O231 C218 1.277 . S
O231 Mg222 2.041 . S
O232 C218 1.245 . S
O232 Mg220 1.988 . S
O233 Mg220 2.061 . S
O233 C227 1.247 . S
O234 Mg223 2.106 . S
O234 Mg226 2.238 . S
O234 C227 1.289 . S
C235 O236 1.245 . S
C235 O237 1.274 . S
O236 Mg223 2.079 . S
O236 C235 1.245 . S
O237 Mg222 2.038 . S
O237 C235 1.274 . S
O238 Mg226 2.042 . S
O238 C241 1.241 . S
O239 Mg225 1.984 . S
O239 C241 1.280 . S
O240 Mg226 2.041 . S
O240 C244 1.277 . S
C241 O238 1.241 . S
C241 O239 1.280 . S
O242 Mg225 1.988 . S
O242 C244 1.245 . S
O243 C219 1.247 . S
O243 Mg225 2.061 . S
C244 O240 1.277 . S
C244 O242 1.245 . S
O245 C219 1.289 . S
O245 Mg222 2.238 . S
O245 Mg223 2.106 . S
O246 Mg223 2.079 . S
O246 C228 1.245 . S
O247 Mg226 2.038 . S
O247 C228 1.274 . S
C248 O260 1.241 . S
C248 O261 1.280 . S
C249 O262 1.277 . S
C249 O263 1.245 . S
C250 O274 1.247 . S
C250 O276 1.289 . S
Mg251 O252 1.926 . S
Mg251 O261 1.984 . S
Mg251 O263 1.988 . S
Mg251 O264 2.061 . S
O252 Mg251 1.926 . S
O252 Mg253 1.986 . S
O252 Mg254 1.917 . S
Mg253 O252 1.986 . S
Mg253 O260 2.042 . S
Mg253 O262 2.041 . S
Mg253 O268 2.038 . S
Mg253 O276 2.238 . S
Mg254 O252 1.917 . S
Mg254 O255 1.917 . S
Mg254 O265 2.106 . S
Mg254 O267 2.079 . S
Mg254 O276 2.106 . S
Mg254 O277 2.079 . S
O255 Mg254 1.917 . S
O255 Mg256 1.926 . S
O255 Mg257 1.986 . S
Mg256 O255 1.926 . S
Mg256 O270 1.984 . S
Mg256 O273 1.988 . S
Mg256 O274 2.061 . S
Mg257 O255 1.986 . S
Mg257 O265 2.238 . S
Mg257 O269 2.042 . S
Mg257 O271 2.041 . S
Mg257 O278 2.038 . S
C258 O264 1.247 . S
C258 O265 1.289 . S
C259 O277 1.245 . S
C259 O278 1.274 . S
O260 C248 1.241 . S
O260 Mg253 2.042 . S
O261 C248 1.280 . S
O261 Mg251 1.984 . S
O262 C249 1.277 . S
O262 Mg253 2.041 . S
O263 C249 1.245 . S
O263 Mg251 1.988 . S
O264 Mg251 2.061 . S
O264 C258 1.247 . S
O265 Mg254 2.106 . S
O265 Mg257 2.238 . S
O265 C258 1.289 . S
C266 O267 1.245 . S
C266 O268 1.274 . S
O267 Mg254 2.079 . S
O267 C266 1.245 . S
O268 Mg253 2.038 . S
O268 C266 1.274 . S
O269 Mg257 2.042 . S
O269 C272 1.241 . S
O270 Mg256 1.984 . S
O270 C272 1.280 . S
O271 Mg257 2.041 . S
O271 C275 1.277 . S
C272 O269 1.241 . S
C272 O270 1.280 . S
O273 Mg256 1.988 . S
O273 C275 1.245 . S
O274 C250 1.247 . S
O274 Mg256 2.061 . S
C275 O271 1.277 . S
C275 O273 1.245 . S
O276 C250 1.289 . S
O276 Mg253 2.238 . S
O276 Mg254 2.106 . S
O277 Mg254 2.079 . S
O277 C259 1.245 . S
O278 Mg257 2.038 . S
O278 C259 1.274 . S
C279 O291 1.241 . S
C279 O292 1.280 . S
C280 O293 1.277 . S
C280 O294 1.245 . S
C281 O305 1.247 . S
C281 O307 1.289 . S
Mg282 O283 1.926 . S
Mg282 O292 1.984 . S
Mg282 O294 1.988 . S
Mg282 O295 2.061 . S
O283 Mg282 1.926 . S
O283 Mg284 1.986 . S
O283 Mg285 1.917 . S
Mg284 O283 1.986 . S
Mg284 O291 2.042 . S
Mg284 O293 2.041 . S
Mg284 O299 2.038 . S
Mg284 O307 2.238 . S
Mg285 O283 1.917 . S
Mg285 O286 1.917 . S
Mg285 O296 2.106 . S
Mg285 O298 2.079 . S
Mg285 O307 2.106 . S
Mg285 O308 2.079 . S
O286 Mg285 1.917 . S
O286 Mg287 1.926 1_554 S
O286 Mg288 1.986 1_554 S
Mg287 O286 1.926 1_556 S
Mg287 O301 1.984 . S
Mg287 O304 1.988 . S
Mg287 O305 2.061 1_556 S
Mg288 O286 1.986 1_556 S
Mg288 O296 2.238 1_556 S
Mg288 O300 2.042 . S
Mg288 O302 2.041 . S
Mg288 O309 2.038 . S
C289 O295 1.247 . S
C289 O296 1.289 . S
C290 O308 1.245 . S
C290 O309 1.274 1_554 S
O291 C279 1.241 . S
O291 Mg284 2.042 . S
O292 C279 1.280 . S
O292 Mg282 1.984 . S
O293 C280 1.277 . S
O293 Mg284 2.041 . S
O294 C280 1.245 . S
O294 Mg282 1.988 . S
O295 Mg282 2.061 . S
O295 C289 1.247 . S
O296 Mg285 2.106 . S
O296 Mg288 2.238 1_554 S
O296 C289 1.289 . S
C297 O298 1.245 . S
C297 O299 1.274 . S
O298 Mg285 2.079 . S
O298 C297 1.245 . S
O299 Mg284 2.038 . S
O299 C297 1.274 . S
O300 Mg288 2.042 . S
O300 C303 1.241 . S
O301 Mg287 1.984 . S
O301 C303 1.280 . S
O302 Mg288 2.041 . S
O302 C306 1.277 . S
C303 O300 1.241 . S
C303 O301 1.280 . S
O304 Mg287 1.988 . S
O304 C306 1.245 . S
O305 C281 1.247 . S
O305 Mg287 2.061 1_554 S
C306 O302 1.277 . S
C306 O304 1.245 . S
O307 C281 1.289 . S
O307 Mg284 2.238 . S
O307 Mg285 2.106 . S
O308 Mg285 2.079 . S
O308 C290 1.245 . S
O309 Mg288 2.038 . S
O309 C290 1.274 1_556 S
C310 O322 1.241 . S
C310 O323 1.280 . S
C311 O324 1.277 . S
C311 O325 1.245 . S
C312 O336 1.247 . S
C312 O338 1.289 . S
Mg313 O314 1.926 . S
Mg313 O323 1.984 . S
Mg313 O325 1.988 . S
Mg313 O326 2.061 . S
O314 Mg313 1.926 . S
O314 Mg315 1.986 . S
O314 Mg316 1.917 . S
Mg315 O314 1.986 . S
Mg315 O322 2.042 . S
Mg315 O324 2.041 . S
Mg315 O330 2.038 . S
Mg315 O338 2.238 . S
Mg316 O314 1.917 . S
Mg316 O317 1.917 . S
Mg316 O327 2.106 . S
Mg316 O329 2.079 . S
Mg316 O338 2.106 . S
Mg316 O339 2.079 . S
O317 Mg316 1.917 . S
O317 Mg318 1.928 . S
O317 Mg319 1.986 1_554 S
Mg318 O317 1.928 . S
Mg318 O332 1.978 1_554 S
Mg318 O335 1.984 1_554 S
Mg318 O336 2.069 . S
Mg319 O317 1.986 1_556 S
Mg319 O327 2.238 1_556 S
Mg319 O331 2.042 . S
Mg319 O333 2.041 . S
Mg319 O340 2.038 . S
C320 O326 1.247 . S
C320 O327 1.289 . S
C321 O339 1.245 . S
C321 O340 1.274 1_554 S
O322 C310 1.241 . S
O322 Mg315 2.042 . S
O323 C310 1.280 . S
O323 Mg313 1.984 . S
O324 C311 1.277 . S
O324 Mg315 2.041 . S
O325 C311 1.245 . S
O325 Mg313 1.988 . S
O326 Mg313 2.061 . S
O326 C320 1.247 . S
O327 Mg316 2.106 . S
O327 Mg319 2.238 1_554 S
O327 C320 1.289 . S
C328 O329 1.245 . S
C328 O330 1.274 . S
O329 Mg316 2.079 . S
O329 C328 1.245 . S
O330 Mg315 2.038 . S
O330 C328 1.274 . S
O331 Mg319 2.042 . S
O331 C334 1.241 . S
O332 Mg318 1.978 1_556 S
O332 C334 1.280 . S
O333 Mg319 2.041 . S
O333 C337 1.277 . S
C334 O331 1.241 . S
C334 O332 1.280 . S
O335 Mg318 1.984 1_556 S
O335 C337 1.245 . S
O336 C312 1.247 . S
O336 Mg318 2.069 . S
C337 O333 1.277 . S
C337 O335 1.245 . S
O338 C312 1.289 . S
O338 Mg315 2.238 . S
O338 Mg316 2.106 . S
O339 Mg316 2.079 . S
O339 C321 1.245 . S
O340 Mg319 2.038 . S
O340 C321 1.274 1_556 S
C341 O353 1.241 . S
C341 O354 1.280 . S
C342 O355 1.277 . S
C342 O356 1.245 . S
C343 O367 1.247 . S
C343 O369 1.289 . S
Mg344 O345 1.926 . S
Mg344 O354 1.984 . S
Mg344 O356 1.988 . S
Mg344 O357 2.061 . S
O345 Mg344 1.926 . S
O345 Mg346 1.986 . S
O345 Mg347 1.917 . S
Mg346 O345 1.986 . S
Mg346 O353 2.042 . S
Mg346 O355 2.041 . S
Mg346 O361 2.038 . S
Mg346 O369 2.238 . S
Mg347 O345 1.917 . S
Mg347 O348 1.917 . S
Mg347 O358 2.106 . S
Mg347 O360 2.079 . S
Mg347 O369 2.106 . S
Mg347 O370 2.079 . S
O348 Mg347 1.917 . S
O348 Mg349 1.926 1_554 S
O348 Mg350 1.986 1_554 S
Mg349 O348 1.926 1_556 S
Mg349 O363 1.984 . S
Mg349 O366 1.988 . S
Mg349 O367 2.061 1_556 S
Mg350 O348 1.986 1_556 S
Mg350 O358 2.238 1_556 S
Mg350 O362 2.042 . S
Mg350 O364 2.041 . S
Mg350 O371 2.038 . S
C351 O357 1.247 . S
C351 O358 1.289 . S
C352 O370 1.245 . S
C352 O371 1.274 1_554 S
O353 C341 1.241 . S
O353 Mg346 2.042 . S
O354 C341 1.280 . S
O354 Mg344 1.984 . S
O355 C342 1.277 . S
O355 Mg346 2.041 . S
O356 C342 1.245 . S
O356 Mg344 1.988 . S
O357 Mg344 2.061 . S
O357 C351 1.247 . S
O358 Mg347 2.106 . S
O358 Mg350 2.238 1_554 S
O358 C351 1.289 . S
C359 O360 1.245 . S
C359 O361 1.274 . S
O360 Mg347 2.079 . S
O360 C359 1.245 . S
O361 Mg346 2.038 . S
O361 C359 1.274 . S
O362 Mg350 2.042 . S
O362 C365 1.241 . S
O363 Mg349 1.984 . S
O363 C365 1.280 . S
O364 Mg350 2.041 . S
O364 C368 1.277 . S
C365 O362 1.241 . S
C365 O363 1.280 . S
O366 Mg349 1.988 . S
O366 C368 1.245 . S
O367 C343 1.247 . S
O367 Mg349 2.061 1_554 S
C368 O364 1.277 . S
C368 O366 1.245 . S
O369 C343 1.289 . S
O369 Mg346 2.238 . S
O369 Mg347 2.106 . S
O370 Mg347 2.079 . S
O370 C352 1.245 . S
O371 Mg350 2.038 . S
O371 C352 1.274 1_556 S
C372 O384 1.241 . S
C372 O385 1.280 . S
C373 O386 1.277 . S
C373 O387 1.245 . S
C374 O398 1.247 . S
C374 O400 1.289 . S
Mg375 O376 1.926 . S
Mg375 O385 1.984 . S
Mg375 O387 1.988 . S
Mg375 O388 2.061 . S
O376 Mg375 1.926 . S
O376 Mg377 1.986 . S
O376 Mg378 1.917 . S
Mg377 O376 1.986 . S
Mg377 O384 2.042 . S
Mg377 O386 2.041 . S
Mg377 O392 2.038 . S
Mg377 O400 2.238 . S
Mg378 O376 1.917 . S
Mg378 O379 1.917 . S
Mg378 O389 2.106 . S
Mg378 O391 2.079 . S
Mg378 O400 2.106 . S
Mg378 O401 2.079 . S
O379 Mg378 1.917 . S
O379 Mg380 1.926 1_556 S
O379 Mg381 1.986 1_556 S
Mg380 O379 1.926 1_554 S
Mg380 O394 1.984 . S
Mg380 O397 1.988 . S
Mg380 O398 2.061 1_554 S
Mg381 O379 1.986 1_554 S
Mg381 O389 2.238 1_554 S
Mg381 O393 2.042 . S
Mg381 O395 2.041 . S
Mg381 O402 2.038 . S
C382 O388 1.247 . S
C382 O389 1.289 . S
C383 O401 1.245 . S
C383 O402 1.274 1_556 S
O384 C372 1.241 . S
O384 Mg377 2.042 . S
O385 C372 1.280 . S
O385 Mg375 1.984 . S
O386 C373 1.277 . S
O386 Mg377 2.041 . S
O387 C373 1.245 . S
O387 Mg375 1.988 . S
O388 Mg375 2.061 . S
O388 C382 1.247 . S
O389 Mg378 2.106 . S
O389 Mg381 2.238 1_556 S
O389 C382 1.289 . S
C390 O391 1.245 . S
C390 O392 1.274 . S
O391 Mg378 2.079 . S
O391 C390 1.245 . S
O392 Mg377 2.038 . S
O392 C390 1.274 . S
O393 Mg381 2.042 . S
O393 C396 1.241 . S
O394 Mg380 1.984 . S
O394 C396 1.280 . S
O395 Mg381 2.041 . S
O395 C399 1.277 . S
C396 O393 1.241 . S
C396 O394 1.280 . S
O397 Mg380 1.988 . S
O397 C399 1.245 . S
O398 C374 1.247 . S
O398 Mg380 2.061 1_556 S
C399 O395 1.277 . S
C399 O397 1.245 . S
O400 C374 1.289 . S
O400 Mg377 2.238 . S
O400 Mg378 2.106 . S
O401 Mg378 2.079 . S
O401 C383 1.245 . S
O402 Mg381 2.038 . S
O402 C383 1.274 1_554 S
C403 O415 1.241 . S
C403 O416 1.280 . S
C404 O417 1.277 . S
C404 O418 1.245 . S
C405 O429 1.247 . S
C405 O431 1.289 . S
Mg406 O407 1.926 . S
Mg406 O416 1.984 . S
Mg406 O418 1.988 . S
Mg406 O419 2.061 . S
O407 Mg406 1.926 . S
O407 Mg408 1.986 . S
O407 Mg409 1.917 . S
Mg408 O407 1.986 . S
Mg408 O415 2.042 . S
Mg408 O417 2.041 . S
Mg408 O423 2.038 . S
Mg408 O431 2.238 . S
Mg409 O407 1.917 . S
Mg409 O410 1.917 . S
Mg409 O420 2.106 . S
Mg409 O422 2.079 . S
Mg409 O431 2.106 . S
Mg409 O432 2.079 . S
O410 Mg409 1.917 . S
O410 Mg411 1.926 . S
O410 Mg412 1.986 1_556 S
Mg411 O410 1.926 . S
Mg411 O425 1.984 1_556 S
Mg411 O428 1.988 1_556 S
Mg411 O429 2.061 . S
Mg412 O410 1.986 1_554 S
Mg412 O420 2.238 1_554 S
Mg412 O424 2.042 . S
Mg412 O426 2.041 . S
Mg412 O433 2.037 1_554 S
C413 O419 1.247 . S
C413 O420 1.289 . S
C414 O432 1.245 . S
C414 O433 1.278 . S
O415 C403 1.241 . S
O415 Mg408 2.042 . S
O416 C403 1.280 . S
O416 Mg406 1.984 . S
O417 C404 1.277 . S
O417 Mg408 2.041 . S
O418 C404 1.245 . S
O418 Mg406 1.988 . S
O419 Mg406 2.061 . S
O419 C413 1.247 . S
O420 Mg409 2.106 . S
O420 Mg412 2.238 1_556 S
O420 C413 1.289 . S
C421 O422 1.245 . S
C421 O423 1.274 . S
O422 Mg409 2.079 . S
O422 C421 1.245 . S
O423 Mg408 2.038 . S
O423 C421 1.274 . S
O424 Mg412 2.042 . S
O424 C427 1.241 . S
O425 Mg411 1.984 1_554 S
O425 C427 1.280 . S
O426 Mg412 2.041 . S
O426 C430 1.277 . S
C427 O424 1.241 . S
C427 O425 1.280 . S
O428 Mg411 1.988 1_554 S
O428 C430 1.245 . S
O429 C405 1.247 . S
O429 Mg411 2.061 . S
C430 O426 1.277 . S
C430 O428 1.245 . S
O431 C405 1.289 . S
O431 Mg408 2.238 . S
O431 Mg409 2.106 . S
O432 Mg409 2.079 . S
O432 C414 1.245 . S
O433 Mg412 2.037 1_556 S
O433 C414 1.278 . S
C434 O446 1.241 . S
C434 O447 1.280 . S
C435 O448 1.277 . S
C435 O449 1.245 . S
C436 O460 1.247 . S
C436 O462 1.289 . S
Mg437 O438 1.926 . S
Mg437 O447 1.984 1_556 S
Mg437 O449 1.988 1_556 S
Mg437 O450 2.061 . S
O438 Mg437 1.926 . S
O438 Mg439 1.986 1_556 S
O438 Mg440 1.917 . S
Mg439 O438 1.986 1_554 S
Mg439 O446 2.042 . S
Mg439 O448 2.041 . S
Mg439 O454 2.038 1_554 S
Mg439 O462 2.238 1_554 S
Mg440 O438 1.917 . S
Mg440 O441 1.917 . S
Mg440 O451 2.106 . S
Mg440 O453 2.079 . S
Mg440 O462 2.106 . S
Mg440 O463 2.079 . S
O441 Mg440 1.917 . S
O441 Mg442 1.926 . S
O441 Mg443 1.986 . S
Mg442 O441 1.926 . S
Mg442 O456 1.984 . S
Mg442 O459 1.988 . S
Mg442 O460 2.061 . S
Mg443 O441 1.986 . S
Mg443 O451 2.238 . S
Mg443 O455 2.042 . S
Mg443 O457 2.041 . S
Mg443 O464 2.038 . S
C444 O450 1.247 . S
C444 O451 1.289 . S
C445 O463 1.245 . S
C445 O464 1.274 . S
O446 C434 1.241 . S
O446 Mg439 2.042 . S
O447 C434 1.280 . S
O447 Mg437 1.984 1_554 S
O448 C435 1.277 . S
O448 Mg439 2.041 . S
O449 C435 1.245 . S
O449 Mg437 1.988 1_554 S
O450 Mg437 2.061 . S
O450 C444 1.247 . S
O451 Mg440 2.106 . S
O451 Mg443 2.238 . S
O451 C444 1.289 . S
C452 O453 1.245 . S
C452 O454 1.274 . S
O453 Mg440 2.079 . S
O453 C452 1.245 . S
O454 Mg439 2.038 1_556 S
O454 C452 1.274 . S
O455 Mg443 2.042 . S
O455 C458 1.241 . S
O456 Mg442 1.984 . S
O456 C458 1.280 . S
O457 Mg443 2.041 . S
O457 C461 1.277 . S
C458 O455 1.241 . S
C458 O456 1.280 . S
O459 Mg442 1.988 . S
O459 C461 1.245 . S
O460 C436 1.247 . S
O460 Mg442 2.061 . S
C461 O457 1.277 . S
C461 O459 1.245 . S
O462 C436 1.289 . S
O462 Mg439 2.238 1_556 S
O462 Mg440 2.106 . S
O463 Mg440 2.079 . S
O463 C445 1.245 . S
O464 Mg443 2.038 . S
O464 C445 1.274 . S
C465 O477 1.241 . S
C465 O478 1.280 . S
C466 O479 1.277 . S
C466 O480 1.245 . S
C467 O491 1.247 . S
C467 O493 1.289 . S
Mg468 O469 1.926 . S
Mg468 O478 1.984 . S
Mg468 O480 1.988 . S
Mg468 O481 2.061 . S
O469 Mg468 1.926 . S
O469 Mg470 1.986 . S
O469 Mg471 1.917 . S
Mg470 O469 1.986 . S
Mg470 O477 2.042 . S
Mg470 O479 2.041 . S
Mg470 O485 2.038 . S
Mg470 O493 2.238 . S
Mg471 O469 1.917 . S
Mg471 O472 1.917 . S
Mg471 O482 2.106 . S
Mg471 O484 2.079 . S
Mg471 O493 2.106 . S
Mg471 O494 2.079 . S
O472 Mg471 1.917 . S
O472 Mg473 1.926 . S
O472 Mg474 1.986 . S
Mg473 O472 1.926 . S
Mg473 O487 1.984 . S
Mg473 O490 1.988 . S
Mg473 O491 2.061 . S
Mg474 O472 1.986 . S
Mg474 O482 2.238 . S
Mg474 O486 2.042 . S
Mg474 O488 2.041 . S
Mg474 O495 2.038 . S
C475 O481 1.247 . S
C475 O482 1.289 . S
C476 O494 1.245 . S
C476 O495 1.274 . S
O477 C465 1.241 . S
O477 Mg470 2.042 . S
O478 C465 1.280 . S
O478 Mg468 1.984 . S
O479 C466 1.277 . S
O479 Mg470 2.041 . S
O480 C466 1.245 . S
O480 Mg468 1.988 . S
O481 Mg468 2.061 . S
O481 C475 1.247 . S
O482 Mg471 2.106 . S
O482 Mg474 2.238 . S
O482 C475 1.289 . S
C483 O484 1.245 . S
C483 O485 1.274 . S
O484 Mg471 2.079 . S
O484 C483 1.245 . S
O485 Mg470 2.038 . S
O485 C483 1.274 . S
O486 Mg474 2.042 . S
O486 C489 1.241 . S
O487 Mg473 1.984 . S
O487 C489 1.280 . S
O488 Mg474 2.041 . S
O488 C492 1.277 . S
C489 O486 1.241 . S
C489 O487 1.280 . S
O490 Mg473 1.988 . S
O490 C492 1.245 . S
O491 C467 1.247 . S
O491 Mg473 2.061 . S
C492 O488 1.277 . S
C492 O490 1.245 . S
O493 C467 1.289 . S
O493 Mg470 2.238 . S
O493 Mg471 2.106 . S
O494 Mg471 2.079 . S
O494 C476 1.245 . S
O495 Mg474 2.038 . S
O495 C476 1.274 . S
C496 O508 1.241 . S
C496 O509 1.280 . S
C497 O510 1.277 . S
C497 O511 1.245 . S
C498 O522 1.247 . S
C498 O524 1.289 . S
Mg499 O500 1.926 . S
Mg499 O509 1.984 . S
Mg499 O511 1.988 . S
Mg499 O512 2.061 . S
O500 Mg499 1.926 . S
O500 Mg501 1.986 . S
O500 Mg502 1.917 . S
Mg501 O500 1.986 . S
Mg501 O508 2.042 . S
Mg501 O510 2.041 . S
Mg501 O516 2.038 . S
Mg501 O524 2.238 . S
Mg502 O500 1.917 . S
Mg502 O503 1.917 . S
Mg502 O513 2.106 . S
Mg502 O515 2.079 . S
Mg502 O524 2.106 . S
Mg502 O525 2.079 . S
O503 Mg502 1.917 . S
O503 Mg504 1.926 . S
O503 Mg505 1.986 . S
Mg504 O503 1.926 . S
Mg504 O518 1.984 . S
Mg504 O521 1.988 . S
Mg504 O522 2.061 . S
Mg505 O503 1.986 . S
Mg505 O513 2.238 . S
Mg505 O517 2.042 . S
Mg505 O519 2.041 . S
Mg505 O526 2.038 . S
C506 O512 1.247 . S
C506 O513 1.289 . S
C507 O525 1.245 . S
C507 O526 1.274 . S
O508 C496 1.241 . S
O508 Mg501 2.042 . S
O509 C496 1.280 . S
O509 Mg499 1.984 . S
O510 C497 1.277 . S
O510 Mg501 2.041 . S
O511 C497 1.245 . S
O511 Mg499 1.988 . S
O512 Mg499 2.061 . S
O512 C506 1.247 . S
O513 Mg502 2.106 . S
O513 Mg505 2.238 . S
O513 C506 1.289 . S
C514 O515 1.245 . S
C514 O516 1.274 . S
O515 Mg502 2.079 . S
O515 C514 1.245 . S
O516 Mg501 2.038 . S
O516 C514 1.274 . S
O517 Mg505 2.042 . S
O517 C520 1.241 . S
O518 Mg504 1.984 . S
O518 C520 1.280 . S
O519 Mg505 2.041 . S
O519 C523 1.277 . S
C520 O517 1.241 . S
C520 O518 1.280 . S
O521 Mg504 1.988 . S
O521 C523 1.245 . S
O522 C498 1.247 . S
O522 Mg504 2.061 . S
C523 O519 1.277 . S
C523 O521 1.245 . S
O524 C498 1.289 . S
O524 Mg501 2.238 . S
O524 Mg502 2.106 . S
O525 Mg502 2.079 . S
O525 C507 1.245 . S
O526 Mg505 2.038 . S
O526 C507 1.274 . S
C527 O539 1.241 . S
C527 O540 1.280 . S
C528 O541 1.277 . S
C528 O542 1.245 . S
C529 O553 1.247 . S
C529 O555 1.289 . S
Mg530 O531 1.926 . S
Mg530 O540 1.984 . S
Mg530 O542 1.988 . S
Mg530 O543 2.061 . S
O531 Mg530 1.926 . S
O531 Mg532 1.986 . S
O531 Mg533 1.917 . S
Mg532 O531 1.986 . S
Mg532 O539 2.042 . S
Mg532 O541 2.041 . S
Mg532 O547 2.038 . S
Mg532 O555 2.238 . S
Mg533 O531 1.917 . S
Mg533 O534 1.917 . S
Mg533 O544 2.106 . S
Mg533 O546 2.079 . S
Mg533 O555 2.106 . S
Mg533 O556 2.079 . S
O534 Mg533 1.917 . S
O534 Mg535 1.926 . S
O534 Mg536 1.986 . S
Mg535 O534 1.926 . S
Mg535 O549 1.984 . S
Mg535 O552 1.988 . S
Mg535 O553 2.061 . S
Mg536 O534 1.986 . S
Mg536 O544 2.238 . S
Mg536 O548 2.042 . S
Mg536 O550 2.041 . S
Mg536 O557 2.038 . S
C537 O543 1.247 . S
C537 O544 1.289 . S
C538 O556 1.245 . S
C538 O557 1.274 . S
O539 C527 1.241 . S
O539 Mg532 2.042 . S
O540 C527 1.280 . S
O540 Mg530 1.984 . S
O541 C528 1.277 . S
O541 Mg532 2.041 . S
O542 C528 1.245 . S
O542 Mg530 1.988 . S
O543 Mg530 2.061 . S
O543 C537 1.247 . S
O544 Mg533 2.106 . S
O544 Mg536 2.238 . S
O544 C537 1.289 . S
C545 O546 1.245 . S
C545 O547 1.274 . S
O546 Mg533 2.079 . S
O546 C545 1.245 . S
O547 Mg532 2.038 . S
O547 C545 1.274 . S
O548 Mg536 2.042 . S
O548 C551 1.241 . S
O549 Mg535 1.984 . S
O549 C551 1.280 . S
O550 Mg536 2.041 . S
O550 C554 1.277 . S
C551 O548 1.241 . S
C551 O549 1.280 . S
O552 Mg535 1.988 . S
O552 C554 1.245 . S
O553 C529 1.247 . S
O553 Mg535 2.061 . S
C554 O550 1.277 . S
C554 O552 1.245 . S
O555 C529 1.289 . S
O555 Mg532 2.238 . S
O555 Mg533 2.106 . S
O556 Mg533 2.079 . S
O556 C538 1.245 . S
O557 Mg536 2.038 . S
O557 C538 1.274 . S
C558 C559 1.387 . S
C558 H562 0.950 . S
C558 C567 1.390 . S
C559 C558 1.387 . S
C559 C561 1.387 . S
H560 C567 0.950 . S
C561 C559 1.387 . S
C561 C563 1.390 . S
C561 H565 0.950 . S
H562 C558 0.950 . S
C563 C561 1.390 . S
C563 C564 1.387 . S
C563 H566 0.950 . S
C564 C563 1.387 . S
C564 C567 1.387 . S
H565 C561 0.950 . S
H566 C563 0.950 . S
C567 C558 1.390 . S
C567 H560 0.950 . S
C567 C564 1.387 . S
C568 C569 1.387 . S
C568 H572 0.950 . S
C568 C577 1.390 . S
C569 C568 1.387 . S
C569 C571 1.387 . S
H570 C577 0.950 . S
C571 C569 1.387 . S
C571 C573 1.390 . S
C571 H575 0.950 . S
H572 C568 0.950 . S
C573 C571 1.390 . S
C573 C574 1.387 . S
C573 H576 0.950 . S
C574 C573 1.387 . S
C574 C577 1.387 . S
H575 C571 0.950 . S
H576 C573 0.950 . S
C577 C568 1.390 . S
C577 H570 0.950 . S
C577 C574 1.387 . S
C578 C579 1.387 . S
C578 H582 0.950 . S
C578 C587 1.390 . S
C579 C578 1.387 . S
C579 C581 1.387 . S
H580 C587 0.950 . S
C581 C579 1.387 . S
C581 C583 1.390 . S
C581 H585 0.950 . S
H582 C578 0.950 . S
C583 C581 1.390 . S
C583 C584 1.387 . S
C583 H586 0.950 . S
C584 C583 1.387 . S
C584 C587 1.387 . S
H585 C581 0.950 . S
H586 C583 0.950 . S
C587 C578 1.390 . S
C587 H580 0.950 . S
C587 C584 1.387 . S
C588 C589 1.387 . S
C588 H592 0.950 . S
C588 C597 1.390 . S
C589 C588 1.387 . S
C589 C591 1.387 . S
H590 C597 0.950 1_565 S
C591 C589 1.387 . S
C591 C593 1.390 . S
C591 H595 0.950 . S
H592 C588 0.950 . S
C593 C591 1.390 . S
C593 C594 1.387 . S
C593 H596 0.950 . S
C594 C593 1.387 . S
C594 C597 1.387 . S
H595 C591 0.950 . S
H596 C593 0.950 . S
C597 C588 1.390 . S
C597 H590 0.950 1_545 S
C597 C594 1.387 . S
C598 C599 1.387 . S
C598 H602 0.950 . S
C598 C607 1.390 . S
C599 C598 1.387 . S
C599 C601 1.387 . S
H600 C607 0.950 . S
C601 C599 1.387 . S
C601 C603 1.390 . S
C601 H605 0.950 . S
H602 C598 0.950 . S
C603 C601 1.390 . S
C603 C604 1.387 . S
C603 H606 0.950 1_655 S
C604 C603 1.387 . S
C604 C607 1.387 . S
H605 C601 0.950 . S
H606 C603 0.950 1_455 S
C607 C598 1.390 . S
C607 H600 0.950 . S
C607 C604 1.387 . S
C608 C609 1.387 . S
C608 H612 0.950 . S
C608 C617 1.390 . S
C609 C608 1.387 . S
C609 C611 1.387 . S
H610 C617 0.950 . S
C611 C609 1.387 . S
C611 C613 1.390 . S
C611 H615 0.950 . S
H612 C608 0.950 . S
C613 C611 1.390 . S
C613 C614 1.387 . S
C613 H616 0.950 . S
C614 C613 1.387 . S
C614 C617 1.387 . S
H615 C611 0.950 . S
H616 C613 0.950 . S
C617 C608 1.390 . S
C617 H610 0.950 . S
C617 C614 1.387 . S
C618 C619 1.387 . S
C618 H622 0.950 1_655 S
C618 C627 1.390 . S
C619 C618 1.387 . S
C619 C621 1.387 . S
H620 C627 0.950 . S
C621 C619 1.387 . S
C621 C623 1.390 . S
C621 H625 0.950 . S
H622 C618 0.950 1_455 S
C623 C621 1.390 . S
C623 C624 1.387 . S
C623 H626 0.950 . S
C624 C623 1.387 . S
C624 C627 1.387 . S
H625 C621 0.950 . S
H626 C623 0.950 . S
C627 C618 1.390 . S
C627 H620 0.950 . S
C627 C624 1.387 . S
C628 C629 1.387 . S
C628 H632 0.950 . S
C628 C637 1.390 . S
C629 C628 1.387 . S
C629 C631 1.387 . S
H630 C637 0.950 . S
C631 C629 1.387 . S
C631 C633 1.390 . S
C631 H635 0.950 . S
H632 C628 0.950 . S
C633 C631 1.390 . S
C633 C634 1.387 . S
C633 H636 0.950 . S
C634 C633 1.387 . S
C634 C637 1.387 . S
H635 C631 0.950 . S
H636 C633 0.950 . S
C637 C628 1.390 . S
C637 H630 0.950 . S
C637 C634 1.387 . S
C638 C639 1.387 . S
C638 H642 0.950 . S
C638 C647 1.390 . S
C639 C638 1.387 . S
C639 C641 1.387 . S
H640 C647 0.950 . S
C641 C639 1.387 . S
C641 C643 1.390 . S
C641 H645 0.950 . S
H642 C638 0.950 . S
C643 C641 1.390 . S
C643 C644 1.387 . S
C643 H646 0.950 . S
C644 C643 1.387 . S
C644 C647 1.387 . S
H645 C641 0.950 . S
H646 C643 0.950 . S
C647 C638 1.390 . S
C647 H640 0.950 . S
C647 C644 1.387 . S
C648 C649 1.387 . S
C648 H652 0.950 1_565 S
C648 C657 1.390 . S
C649 C648 1.387 . S
C649 C651 1.387 . S
H650 C657 0.950 1_554 S
C651 C649 1.387 . S
C651 C653 1.390 . S
C651 H655 0.950 . S
H652 C648 0.950 1_545 S
C653 C651 1.390 . S
C653 C654 1.387 . S
C653 H656 0.950 . S
C654 C653 1.387 . S
C654 C657 1.387 . S
H655 C651 0.950 . S
H656 C653 0.950 . S
C657 C648 1.390 . S
C657 H650 0.950 1_556 S
C657 C654 1.387 . S
C658 C659 1.387 . S
C658 H662 0.950 . S
C658 C667 1.390 . S
C659 C658 1.387 . S
C659 C661 1.387 . S
H660 C667 0.950 . S
C661 C659 1.387 . S
C661 C663 1.390 . S
C661 H665 0.950 . S
H662 C658 0.950 . S
C663 C661 1.390 . S
C663 C664 1.387 . S
C663 H666 0.950 . S
C664 C663 1.387 . S
C664 C667 1.387 . S
H665 C661 0.950 . S
H666 C663 0.950 . S
C667 C658 1.390 . S
C667 H660 0.950 . S
C667 C664 1.387 . S
C668 C669 1.387 . S
C668 H672 0.950 . S
C668 C677 1.390 . S
C669 C668 1.387 . S
C669 C671 1.387 . S
H670 C677 0.950 . S
C671 C669 1.387 . S
C671 C673 1.390 . S
C671 H675 0.950 . S
H672 C668 0.950 . S
C673 C671 1.390 . S
C673 C674 1.387 . S
C673 H676 0.950 . S
C674 C673 1.387 . S
C674 C677 1.387 . S
H675 C671 0.950 . S
H676 C673 0.950 . S
C677 C668 1.390 . S
C677 H670 0.950 . S
C677 C674 1.387 . S
C678 C679 1.387 1_545 S
C678 H682 0.950 . S
C678 C687 1.390 . S
C679 C678 1.387 1_565 S
C679 C681 1.387 . S
H680 C687 0.950 . S
C681 C679 1.387 . S
C681 C683 1.390 1_565 S
C681 H685 0.950 . S
H682 C678 0.950 . S
C683 C681 1.390 1_545 S
C683 C684 1.387 . S
C683 H686 0.950 . S
C684 C683 1.387 . S
C684 C687 1.387 . S
H685 C681 0.950 . S
H686 C683 0.950 . S
C687 C678 1.390 . S
C687 H680 0.950 . S
C687 C684 1.387 . S
C688 C689 1.387 . S
C688 H692 0.950 . S
C688 C697 1.390 1_455 S
C689 C688 1.387 . S
C689 C691 1.387 . S
H690 C697 0.950 . S
C691 C689 1.387 . S
C691 C693 1.390 1_455 S
C691 H695 0.950 . S
H692 C688 0.950 . S
C693 C691 1.390 1_655 S
C693 C694 1.387 . S
C693 H696 0.950 . S
C694 C693 1.387 . S
C694 C697 1.387 . S
H695 C691 0.950 . S
H696 C693 0.950 . S
C697 C688 1.390 1_655 S
C697 H690 0.950 . S
C697 C694 1.387 . S
C698 C699 1.387 . S
C698 H702 0.950 . S
C698 C707 1.390 . S
C699 C698 1.387 . S
C699 C701 1.387 . S
H700 C707 0.950 . S
C701 C699 1.387 . S
C701 C703 1.390 . S
C701 H705 0.950 . S
H702 C698 0.950 . S
C703 C701 1.390 . S
C703 C704 1.387 . S
C703 H706 0.950 . S
C704 C703 1.387 . S
C704 C707 1.387 . S
H705 C701 0.950 . S
H706 C703 0.950 . S
C707 C698 1.390 . S
C707 H700 0.950 . S
C707 C704 1.387 . S
C708 C709 1.387 . S
C708 H712 0.950 . S
C708 C717 1.390 1_655 S
C709 C708 1.387 . S
C709 C711 1.387 . S
H710 C717 0.950 . S
C711 C709 1.387 . S
C711 C713 1.390 1_655 S
C711 H715 0.950 . S
H712 C708 0.950 . S
C713 C711 1.390 1_455 S
C713 C714 1.387 . S
C713 H716 0.950 . S
C714 C713 1.387 . S
C714 C717 1.387 . S
H715 C711 0.950 . S
H716 C713 0.950 . S
C717 C708 1.390 1_455 S
C717 H710 0.950 . S
C717 C714 1.387 . S
C718 C719 1.387 . S
C718 H722 0.950 . S
C718 C727 1.390 . S
C719 C718 1.387 . S
C719 C721 1.387 . S
H720 C727 0.950 . S
C721 C719 1.387 . S
C721 C723 1.390 . S
C721 H725 0.950 . S
H722 C718 0.950 . S
C723 C721 1.390 . S
C723 C724 1.387 . S
C723 H726 0.950 . S
C724 C723 1.387 . S
C724 C727 1.387 . S
H725 C721 0.950 . S
H726 C723 0.950 . S
C727 C718 1.390 . S
C727 H720 0.950 . S
C727 C724 1.387 . S
C728 C729 1.387 . S
C728 H732 0.950 . S
C728 C737 1.390 1_545 S
C729 C728 1.387 . S
C729 C731 1.387 . S
H730 C737 0.950 . S
C731 C729 1.387 . S
C731 C733 1.390 1_545 S
C731 H735 0.950 . S
H732 C728 0.950 . S
C733 C731 1.390 1_565 S
C733 C734 1.387 . S
C733 H736 0.950 . S
C734 C733 1.387 . S
C734 C737 1.387 . S
H735 C731 0.950 . S
H736 C733 0.950 . S
C737 C728 1.390 1_565 S
C737 H730 0.950 . S
C737 C734 1.387 . S
C738 C739 1.387 . S
C738 H742 0.950 . S
C738 C747 1.390 1_556 S
C739 C738 1.387 . S
C739 C741 1.387 1_455 S
H740 C747 0.950 . S
C741 C739 1.387 1_655 S
C741 C743 1.390 1_556 S
C741 H745 0.950 . S
H742 C738 0.950 . S
C743 C741 1.390 1_554 S
C743 C744 1.387 . S
C743 H746 0.950 . S
C744 C743 1.387 . S
C744 C747 1.387 1_655 S
H745 C741 0.950 . S
H746 C743 0.950 . S
C747 C738 1.390 1_554 S
C747 H740 0.950 . S
C747 C744 1.387 1_455 S
C748 C749 1.387 . S
C748 H752 0.950 . S
C748 C757 1.390 1_556 S
C749 C748 1.387 . S
C749 C751 1.387 . S
H750 C757 0.950 . S
C751 C749 1.387 . S
C751 C753 1.390 1_556 S
C751 H755 0.950 . S
H752 C748 0.950 . S
C753 C751 1.390 1_554 S
C753 C754 1.387 . S
C753 H756 0.950 . S
C754 C753 1.387 . S
C754 C757 1.387 . S
H755 C751 0.950 . S
H756 C753 0.950 . S
C757 C748 1.390 1_554 S
C757 H750 0.950 . S
C757 C754 1.387 . S
C758 C759 1.387 1_565 S
C758 H762 0.950 . S
C758 C767 1.390 . S
C759 C758 1.387 1_545 S
C759 C761 1.387 . S
H760 C767 0.950 . S
C761 C759 1.387 . S
C761 C763 1.390 1_554 S
C761 H765 0.950 . S
H762 C758 0.950 . S
C763 C761 1.390 1_556 S
C763 C764 1.387 1_545 S
C763 H766 0.950 . S
C764 C763 1.387 1_565 S
C764 C767 1.387 1_556 S
H765 C761 0.950 . S
H766 C763 0.950 . S
C767 C758 1.390 . S
C767 H760 0.950 . S
C767 C764 1.387 1_554 S
C768 C769 1.387 1_565 S
C768 H772 0.950 . S
C768 C777 1.390 . S
C769 C768 1.387 1_545 S
C769 C771 1.387 . S
H770 C777 0.950 . S
C771 C769 1.387 . S
C771 C773 1.390 . S
C771 H775 0.950 . S
H772 C768 0.950 . S
C773 C771 1.390 . S
C773 C774 1.387 1_545 S
C773 H776 0.950 . S
C774 C773 1.387 1_565 S
C774 C777 1.387 . S
H775 C771 0.950 . S
H776 C773 0.950 . S
C777 C768 1.390 . S
C777 H770 0.950 . S
C777 C774 1.387 . S
C778 C779 1.387 . S
C778 H782 0.950 . S
C778 C787 1.390 . S
C779 C778 1.387 . S
C779 C781 1.387 . S
H780 C787 0.950 1_655 S
C781 C779 1.387 . S
C781 C783 1.390 1_455 S
C781 H785 0.950 . S
H782 C778 0.950 . S
C783 C781 1.390 1_655 S
C783 C784 1.387 . S
C783 H786 0.950 . S
C784 C783 1.387 . S
C784 C787 1.387 1_655 S
H785 C781 0.950 . S
H786 C783 0.950 . S
C787 C778 1.390 . S
C787 H780 0.950 1_455 S
C787 C784 1.387 1_455 S
C788 C789 1.387 . S
C788 H792 0.950 . S
C788 C797 1.390 . S
C789 C788 1.387 . S
C789 C791 1.387 . S
H790 C797 0.950 . S
C791 C789 1.387 . S
C791 C793 1.390 . S
C791 H795 0.950 . S
H792 C788 0.950 . S
C793 C791 1.390 . S
C793 C794 1.387 . S
C793 H796 0.950 . S
C794 C793 1.387 . S
C794 C797 1.387 . S
H795 C791 0.950 . S
H796 C793 0.950 . S
C797 C788 1.390 . S
C797 H790 0.950 . S
C797 C794 1.387 . S
C798 C799 1.387 . S
C798 H802 0.950 . S
C798 C807 1.390 . S
C799 C798 1.387 . S
C799 C801 1.387 . S
H800 C807 0.950 . S
C801 C799 1.387 . S
C801 C803 1.390 . S
C801 H805 0.950 . S
H802 C798 0.950 . S
C803 C801 1.390 . S
C803 C804 1.387 . S
C803 H806 0.950 . S
C804 C803 1.387 . S
C804 C807 1.387 . S
H805 C801 0.950 . S
H806 C803 0.950 . S
C807 C798 1.390 . S
C807 H800 0.950 . S
C807 C804 1.387 . S
C808 C809 1.387 . S
C808 H812 0.950 . S
C808 C817 1.390 . S
C809 C808 1.387 . S
C809 C811 1.387 . S
H810 C817 0.950 . S
C811 C809 1.387 . S
C811 C813 1.390 . S
C811 H815 0.950 . S
H812 C808 0.950 . S
C813 C811 1.390 . S
C813 C814 1.387 . S
C813 H816 0.950 . S
C814 C813 1.387 . S
C814 C817 1.387 . S
H815 C811 0.950 . S
H816 C813 0.950 . S
C817 C808 1.390 . S
C817 H810 0.950 . S
C817 C814 1.387 . S
C818 C819 1.387 . S
C818 H822 0.950 . S
C818 C827 1.390 . S
C819 C818 1.387 . S
C819 C821 1.387 . S
H820 C827 0.950 . S
C821 C819 1.387 . S
C821 C823 1.390 . S
C821 H825 0.950 . S
H822 C818 0.950 . S
C823 C821 1.390 . S
C823 C824 1.387 . S
C823 H826 0.950 . S
C824 C823 1.387 . S
C824 C827 1.387 . S
H825 C821 0.950 . S
H826 C823 0.950 . S
C827 C818 1.390 . S
C827 H820 0.950 . S
C827 C824 1.387 . S
C828 C829 1.387 . S
C828 H832 0.950 . S
C828 C837 1.390 . S
C829 C828 1.387 . S
C829 C831 1.387 . S
H830 C837 0.950 . S
C831 C829 1.387 . S
C831 C833 1.390 . S
C831 H835 0.950 . S
H832 C828 0.950 . S
C833 C831 1.390 . S
C833 C834 1.387 . S
C833 H836 0.950 . S
C834 C833 1.387 . S
C834 C837 1.387 . S
H835 C831 0.950 . S
H836 C833 0.950 . S
C837 C828 1.390 . S
C837 H830 0.950 . S
C837 C834 1.387 . S
C838 C839 1.387 . S
C838 H842 0.950 . S
C838 C847 1.390 . S
C839 C838 1.387 . S
C839 C841 1.387 . S
H840 C847 0.950 . S
C841 C839 1.387 . S
C841 C843 1.390 . S
C841 H845 0.950 . S
H842 C838 0.950 . S
C843 C841 1.390 . S
C843 C844 1.387 . S
C843 H846 0.950 . S
C844 C843 1.387 . S
C844 C847 1.387 . S
H845 C841 0.950 . S
H846 C843 0.950 . S
C847 C838 1.390 . S
C847 H840 0.950 . S
C847 C844 1.387 . S
C848 C849 1.387 . S
C848 H852 0.950 . S
C848 C857 1.390 . S
C849 C848 1.387 . S
C849 C851 1.387 . S
H850 C857 0.950 . S
C851 C849 1.387 . S
C851 C853 1.390 . S
C851 H855 0.950 . S
H852 C848 0.950 . S
C853 C851 1.390 . S
C853 C854 1.387 . S
C853 H856 0.950 . S
C854 C853 1.387 . S
C854 C857 1.387 . S
H855 C851 0.950 . S
H856 C853 0.950 . S
C857 C848 1.390 . S
C857 H850 0.950 . S
C857 C854 1.387 . S
C858 C859 1.387 . S
C858 H862 0.950 . S
C858 C867 1.390 . S
C859 C858 1.387 . S
C859 C861 1.387 . S
H860 C867 0.950 . S
C861 C859 1.387 . S
C861 C863 1.390 . S
C861 H865 0.950 . S
H862 C858 0.950 . S
C863 C861 1.390 . S
C863 C864 1.387 . S
C863 H866 0.950 . S
C864 C863 1.387 . S
C864 C867 1.387 . S
H865 C861 0.950 . S
H866 C863 0.950 . S
C867 C858 1.390 . S
C867 H860 0.950 . S
C867 C864 1.387 . S
C868 C869 1.387 . S
C868 H872 0.950 . S
C868 C877 1.390 . S
C869 C868 1.387 . S
C869 C871 1.387 . S
H870 C877 0.950 . S
C871 C869 1.387 . S
C871 C873 1.390 . S
C871 H875 0.950 . S
H872 C868 0.950 . S
C873 C871 1.390 . S
C873 C874 1.387 . S
C873 H876 0.950 . S
C874 C873 1.387 . S
C874 C877 1.387 . S
H875 C871 0.950 . S
H876 C873 0.950 . S
C877 C868 1.390 . S
C877 H870 0.950 . S
C877 C874 1.387 . S
C878 C879 1.387 . S
C878 H882 0.950 . S
C878 C887 1.390 . S
C879 C878 1.387 . S
C879 C881 1.387 . S
H880 C887 0.950 . S
C881 C879 1.387 . S
C881 C883 1.390 . S
C881 H885 0.950 . S
H882 C878 0.950 . S
C883 C881 1.390 . S
C883 C884 1.387 . S
C883 H886 0.950 . S
C884 C883 1.387 . S
C884 C887 1.387 . S
H885 C881 0.950 . S
H886 C883 0.950 . S
C887 C878 1.390 . S
C887 H880 0.950 . S
C887 C884 1.387 . S
C888 C889 1.387 . S
C888 H892 0.950 . S
C888 C897 1.390 . S
C889 C888 1.387 . S
C889 C891 1.387 . S
H890 C897 0.950 . S
C891 C889 1.387 . S
C891 C893 1.390 . S
C891 H895 0.950 . S
H892 C888 0.950 . S
C893 C891 1.390 . S
C893 C894 1.387 . S
C893 H896 0.950 . S
C894 C893 1.387 . S
C894 C897 1.387 . S
H895 C891 0.950 . S
H896 C893 0.950 . S
C897 C888 1.390 . S
C897 H890 0.950 . S
C897 C894 1.387 . S
C898 C899 1.387 . S
C898 H902 0.950 . S
C898 C907 1.390 . S
C899 C898 1.387 . S
C899 C901 1.387 . S
H900 C907 0.950 . S
C901 C899 1.387 . S
C901 C903 1.390 . S
C901 H905 0.950 . S
H902 C898 0.950 . S
C903 C901 1.390 . S
C903 C904 1.387 . S
C903 H906 0.950 . S
C904 C903 1.387 . S
C904 C907 1.387 . S
H905 C901 0.950 . S
H906 C903 0.950 . S
C907 C898 1.390 . S
C907 H900 0.950 . S
C907 C904 1.387 . S
C908 C909 1.387 . S
C908 H912 0.950 . S
C908 C917 1.390 . S
C909 C908 1.387 . S
C909 C911 1.387 . S
H910 C917 0.950 . S
C911 C909 1.387 . S
C911 C913 1.390 . S
C911 H915 0.950 . S
H912 C908 0.950 . S
C913 C911 1.390 . S
C913 C914 1.387 . S
C913 H916 0.950 . S
C914 C913 1.387 . S
C914 C917 1.387 . S
H915 C911 0.950 . S
H916 C913 0.950 . S
C917 C908 1.390 . S
C917 H910 0.950 . S
C917 C914 1.387 . S
C918 C919 1.387 . S
C918 H922 0.950 . S
C918 C927 1.390 . S
C919 C918 1.387 . S
C919 C921 1.387 . S
H920 C927 0.950 . S
C921 C919 1.387 . S
C921 C923 1.390 . S
C921 H925 0.950 . S
H922 C918 0.950 . S
C923 C921 1.390 . S
C923 C924 1.387 . S
C923 H926 0.950 . S
C924 C923 1.387 . S
C924 C927 1.387 . S
H925 C921 0.950 . S
H926 C923 0.950 . S
C927 C918 1.390 . S
C927 H920 0.950 . S
C927 C924 1.387 . S
C928 C929 1.387 . S
C928 H932 0.950 . S
C928 C937 1.390 . S
C929 C928 1.387 . S
C929 C931 1.387 . S
H930 C937 0.950 . S
C931 C929 1.387 . S
C931 C933 1.390 . S
C931 H935 0.950 . S
H932 C928 0.950 . S
C933 C931 1.390 . S
C933 C934 1.387 . S
C933 H936 0.950 . S
C934 C933 1.387 . S
C934 C937 1.387 . S
H935 C931 0.950 . S
H936 C933 0.950 . S
C937 C928 1.390 . S
C937 H930 0.950 . S
C937 C934 1.387 . S
C938 C939 1.387 . S
C938 H942 0.950 . S
C938 C947 1.390 . S
C939 C938 1.387 . S
C939 C941 1.387 . S
H940 C947 0.950 . S
C941 C939 1.387 . S
C941 C943 1.390 . S
C941 H945 0.950 . S
H942 C938 0.950 . S
C943 C941 1.390 . S
C943 C944 1.387 . S
C943 H946 0.950 . S
C944 C943 1.387 . S
C944 C947 1.387 . S
H945 C941 0.950 . S
H946 C943 0.950 . S
C947 C938 1.390 . S
C947 H940 0.950 . S
C947 C944 1.387 . S
C948 C949 1.387 . S
C948 H952 0.950 . S
C948 C957 1.390 . S
C949 C948 1.387 . S
C949 C951 1.387 . S
H950 C957 0.950 . S
C951 C949 1.387 . S
C951 C953 1.390 . S
C951 H955 0.950 . S
H952 C948 0.950 . S
C953 C951 1.390 . S
C953 C954 1.387 . S
C953 H956 0.950 . S
C954 C953 1.387 . S
C954 C957 1.387 . S
H955 C951 0.950 . S
H956 C953 0.950 . S
C957 C948 1.390 . S
C957 H950 0.950 . S
C957 C954 1.387 . S
C958 C959 1.387 . S
C958 H962 0.950 . S
C958 C967 1.390 . S
C959 C958 1.387 . S
C959 C961 1.387 . S
H960 C967 0.950 . S
C961 C959 1.387 . S
C961 C963 1.390 . S
C961 H965 0.950 . S
H962 C958 0.950 . S
C963 C961 1.390 . S
C963 C964 1.387 . S
C963 H966 0.950 . S
C964 C963 1.387 . S
C964 C967 1.387 . S
H965 C961 0.950 . S
H966 C963 0.950 . S
C967 C958 1.390 . S
C967 H960 0.950 . S
C967 C964 1.387 . S
C968 C969 1.387 . S
C968 H972 0.950 . S
C968 C977 1.390 . S
C969 C968 1.387 . S
C969 C971 1.387 . S
H970 C977 0.950 . S
C971 C969 1.387 . S
C971 C973 1.390 . S
C971 H975 0.950 . S
H972 C968 0.950 . S
C973 C971 1.390 . S
C973 C974 1.387 . S
C973 H976 0.950 . S
C974 C973 1.387 . S
C974 C977 1.387 . S
H975 C971 0.950 . S
H976 C973 0.950 . S
C977 C968 1.390 . S
C977 H970 0.950 . S
C977 C974 1.387 . S
C978 C979 1.387 . S
C978 H982 0.950 . S
C978 C987 1.390 . S
C979 C978 1.387 . S
C979 C981 1.387 . S
H980 C987 0.950 . S
C981 C979 1.387 . S
C981 C983 1.390 . S
C981 H985 0.950 . S
H982 C978 0.950 . S
C983 C981 1.390 . S
C983 C984 1.387 . S
C983 H986 0.950 . S
C984 C983 1.387 . S
C984 C987 1.387 . S
H985 C981 0.950 . S
H986 C983 0.950 . S
C987 C978 1.390 . S
C987 H980 0.950 . S
C987 C984 1.387 . S
C988 C989 1.387 . S
C988 H992 0.950 . S
C988 C997 1.390 . S
C989 C988 1.387 . S
C989 C991 1.387 . S
H990 C997 0.950 . S
C991 C989 1.387 . S
C991 C993 1.390 . S
C991 H995 0.950 . S
H992 C988 0.950 . S
C993 C991 1.390 . S
C993 C994 1.387 . S
C993 H996 0.950 . S
C994 C993 1.387 . S
C994 C997 1.387 . S
H995 C991 0.950 . S
H996 C993 0.950 . S
C997 C988 1.390 . S
C997 H990 0.950 . S
C997 C994 1.387 . S
C998 C999 1.387 . S
C998 H1002 0.950 . S
C998 C1007 1.390 . S
C999 C998 1.387 . S
C999 C1001 1.387 . S
H1000 C1007 0.950 . S
C1001 C999 1.387 . S
C1001 C1003 1.390 . S
C1001 H1005 0.950 . S
H1002 C998 0.950 . S
C1003 C1001 1.390 . S
C1003 C1004 1.387 . S
C1003 H1006 0.950 . S
C1004 C1003 1.387 . S
C1004 C1007 1.387 . S
H1005 C1001 0.950 . S
H1006 C1003 0.950 . S
C1007 C998 1.390 . S
C1007 H1000 0.950 . S
C1007 C1004 1.387 . S
C1008 C1009 1.387 . S
C1008 H1012 0.950 . S
C1008 C1017 1.390 . S
C1009 C1008 1.387 . S
C1009 C1011 1.387 . S
H1010 C1017 0.950 1_545 S
C1011 C1009 1.387 . S
C1011 C1013 1.390 . S
C1011 H1015 0.950 . S
H1012 C1008 0.950 . S
C1013 C1011 1.390 . S
C1013 C1014 1.387 . S
C1013 H1016 0.950 . S
C1014 C1013 1.387 . S
C1014 C1017 1.387 . S
H1015 C1011 0.950 . S
H1016 C1013 0.950 . S
C1017 C1008 1.390 . S
C1017 H1010 0.950 1_565 S
C1017 C1014 1.387 . S
C1018 C1019 1.387 . S
C1018 H1022 0.950 . S
C1018 C1027 1.390 . S
C1019 C1018 1.387 . S
C1019 C1021 1.387 . S
H1020 C1027 0.950 . S
C1021 C1019 1.387 . S
C1021 C1023 1.390 . S
C1021 H1025 0.950 . S
H1022 C1018 0.950 . S
C1023 C1021 1.390 . S
C1023 C1024 1.387 . S
C1023 H1026 0.950 . S
C1024 C1023 1.387 . S
C1024 C1027 1.387 . S
H1025 C1021 0.950 . S
H1026 C1023 0.950 . S
C1027 C1018 1.390 . S
C1027 H1020 0.950 . S
C1027 C1024 1.387 . S
C1028 C1029 1.387 . S
C1028 H1032 0.950 . S
C1028 C1037 1.390 . S
C1029 C1028 1.387 . S
C1029 C1031 1.387 . S
H1030 C1037 0.950 . S
C1031 C1029 1.387 . S
C1031 C1033 1.390 . S
C1031 H1035 0.950 . S
H1032 C1028 0.950 . S
C1033 C1031 1.390 . S
C1033 C1034 1.387 . S
C1033 H1036 0.950 . S
C1034 C1033 1.387 . S
C1034 C1037 1.387 . S
H1035 C1031 0.950 . S
H1036 C1033 0.950 . S
C1037 C1028 1.390 . S
C1037 H1030 0.950 . S
C1037 C1034 1.387 . S
C1038 C1039 1.387 . S
C1038 H1042 0.950 . S
C1038 C1047 1.390 . S
C1039 C1038 1.387 . S
C1039 C1041 1.387 . S
H1040 C1047 0.950 . S
C1041 C1039 1.387 . S
C1041 C1043 1.390 . S
C1041 H1045 0.950 . S
H1042 C1038 0.950 . S
C1043 C1041 1.390 . S
C1043 C1044 1.387 . S
C1043 H1046 0.950 . S
C1044 C1043 1.387 . S
C1044 C1047 1.387 . S
H1045 C1041 0.950 . S
H1046 C1043 0.950 . S
C1047 C1038 1.390 . S
C1047 H1040 0.950 . S
C1047 C1044 1.387 . S
C1048 C1049 1.387 . S
C1048 H1052 0.950 . S
C1048 C1057 1.390 . S
C1049 C1048 1.387 . S
C1049 C1051 1.387 . S
H1050 C1057 0.950 . S
C1051 C1049 1.387 . S
C1051 C1053 1.390 . S
C1051 H1055 0.950 1_565 S
H1052 C1048 0.950 . S
C1053 C1051 1.390 . S
C1053 C1054 1.387 . S
C1053 H1056 0.950 . S
C1054 C1053 1.387 . S
C1054 C1057 1.387 . S
H1055 C1051 0.950 1_545 S
H1056 C1053 0.950 . S
C1057 C1048 1.390 . S
C1057 H1050 0.950 . S
C1057 C1054 1.387 . S
C1058 C1059 1.387 . S
C1058 H1062 0.950 1_455 S
C1058 C1067 1.390 . S
C1059 C1058 1.387 . S
C1059 C1061 1.387 . S
H1060 C1067 0.950 . S
C1061 C1059 1.387 . S
C1061 C1063 1.390 . S
C1061 H1065 0.950 . S
H1062 C1058 0.950 1_655 S
C1063 C1061 1.390 . S
C1063 C1064 1.387 . S
C1063 H1066 0.950 . S
C1064 C1063 1.387 . S
C1064 C1067 1.387 . S
H1065 C1061 0.950 . S
H1066 C1063 0.950 . S
C1067 C1058 1.390 . S
C1067 H1060 0.950 . S
C1067 C1064 1.387 . S
C1068 C1069 1.387 . S
C1068 H1072 0.950 . S
C1068 C1077 1.390 . S
C1069 C1068 1.387 . S
C1069 C1071 1.387 . S
H1070 C1077 0.950 . S
C1071 C1069 1.387 . S
C1071 C1073 1.390 . S
C1071 H1075 0.950 . S
H1072 C1068 0.950 . S
C1073 C1071 1.390 . S
C1073 C1074 1.387 . S
C1073 H1076 0.950 . S
C1074 C1073 1.387 . S
C1074 C1077 1.387 . S
H1075 C1071 0.950 . S
H1076 C1073 0.950 . S
C1077 C1068 1.390 . S
C1077 H1070 0.950 . S
C1077 C1074 1.387 . S
C1078 C1079 1.387 . S
C1078 H1082 0.950 . S
C1078 C1087 1.390 . S
C1079 C1078 1.387 . S
C1079 C1081 1.387 . S
H1080 C1087 0.950 . S
C1081 C1079 1.387 . S
C1081 C1083 1.390 . S
C1081 H1085 0.950 . S
H1082 C1078 0.950 . S
C1083 C1081 1.390 . S
C1083 C1084 1.387 . S
C1083 H1086 0.950 . S
C1084 C1083 1.387 . S
C1084 C1087 1.387 . S
H1085 C1081 0.950 . S
H1086 C1083 0.950 . S
C1087 C1078 1.390 . S
C1087 H1080 0.950 . S
C1087 C1084 1.387 . S
C1088 C1089 1.387 . S
C1088 H1092 0.950 . S
C1088 C1097 1.390 . S
C1089 C1088 1.387 . S
C1089 C1091 1.387 . S
H1090 C1097 0.950 . S
C1091 C1089 1.387 . S
C1091 C1093 1.390 . S
C1091 H1095 0.950 . S
H1092 C1088 0.950 . S
C1093 C1091 1.390 . S
C1093 C1094 1.387 . S
C1093 H1096 0.950 . S
C1094 C1093 1.387 . S
C1094 C1097 1.387 . S
H1095 C1091 0.950 . S
H1096 C1093 0.950 . S
C1097 C1088 1.390 . S
C1097 H1090 0.950 . S
C1097 C1094 1.387 . S
C1098 C1099 1.387 . S
C1098 H1102 0.950 . S
C1098 C1107 1.390 . S
C1099 C1098 1.387 . S
C1099 C1101 1.387 . S
H1100 C1107 0.950 . S
C1101 C1099 1.387 . S
C1101 C1103 1.390 . S
C1101 H1105 0.950 . S
H1102 C1098 0.950 . S
C1103 C1101 1.390 . S
C1103 C1104 1.387 . S
C1103 H1106 0.950 . S
C1104 C1103 1.387 . S
C1104 C1107 1.387 . S
H1105 C1101 0.950 . S
H1106 C1103 0.950 . S
C1107 C1098 1.390 . S
C1107 H1100 0.950 . S
C1107 C1104 1.387 . S
C1108 C1109 1.387 . S
C1108 H1112 0.950 . S
C1108 C1117 1.390 . S
C1109 C1108 1.387 . S
C1109 C1111 1.387 . S
H1110 C1117 0.950 . S
C1111 C1109 1.387 . S
C1111 C1113 1.390 . S
C1111 H1115 0.950 . S
H1112 C1108 0.950 . S
C1113 C1111 1.390 . S
C1113 C1114 1.387 . S
C1113 H1116 0.950 . S
C1114 C1113 1.387 . S
C1114 C1117 1.387 . S
H1115 C1111 0.950 . S
H1116 C1113 0.950 . S
C1117 C1108 1.390 . S
C1117 H1110 0.950 . S
C1117 C1114 1.387 . S
C1118 C1119 1.387 . S
C1118 H1122 0.950 . S
C1118 C1127 1.390 . S
C1119 C1118 1.387 . S
C1119 C1121 1.387 . S
H1120 C1127 0.950 . S
C1121 C1119 1.387 . S
C1121 C1123 1.390 . S
C1121 H1125 0.950 . S
H1122 C1118 0.950 . S
C1123 C1121 1.390 . S
C1123 C1124 1.387 . S
C1123 H1126 0.950 . S
C1124 C1123 1.387 . S
C1124 C1127 1.387 . S
H1125 C1121 0.950 . S
H1126 C1123 0.950 . S
C1127 C1118 1.390 . S
C1127 H1120 0.950 . S
C1127 C1124 1.387 . S
C1128 C1129 1.387 1_556 S
C1128 H1132 0.950 . S
C1128 C1137 1.390 . S
C1129 C1128 1.387 1_554 S
C1129 C1131 1.387 . S
H1130 C1137 0.950 . S
C1131 C1129 1.387 . S
C1131 C1133 1.390 . S
C1131 H1135 0.950 . S
H1132 C1128 0.950 . S
C1133 C1131 1.390 . S
C1133 C1134 1.387 1_554 S
C1133 H1136 0.950 . S
C1134 C1133 1.387 1_556 S
C1134 C1137 1.387 . S
H1135 C1131 0.950 . S
H1136 C1133 0.950 . S
C1137 C1128 1.390 . S
C1137 H1130 0.950 . S
C1137 C1134 1.387 . S
C1138 C1139 1.387 1_556 S
C1138 H1142 0.950 . S
C1138 C1147 1.390 . S
C1139 C1138 1.387 1_554 S
C1139 C1141 1.387 . S
H1140 C1147 0.950 . S
C1141 C1139 1.387 . S
C1141 C1143 1.390 . S
C1141 H1145 0.950 . S
H1142 C1138 0.950 . S
C1143 C1141 1.390 . S
C1143 C1144 1.387 1_554 S
C1143 H1146 0.950 . S
C1144 C1143 1.387 1_556 S
C1144 C1147 1.387 . S
H1145 C1141 0.950 . S
H1146 C1143 0.950 . S
C1147 C1138 1.390 . S
C1147 H1140 0.950 . S
C1147 C1144 1.387 . S
C1148 C1149 1.387 1_556 S
C1148 H1152 0.950 . S
C1148 C1157 1.390 . S
C1149 C1148 1.387 1_554 S
C1149 C1151 1.387 . S
H1150 C1157 0.950 . S
C1151 C1149 1.387 . S
C1151 C1153 1.390 . S
C1151 H1155 0.950 . S
H1152 C1148 0.950 . S
C1153 C1151 1.390 . S
C1153 C1154 1.387 1_554 S
C1153 H1156 0.950 1_455 S
C1154 C1153 1.387 1_556 S
C1154 C1157 1.387 . S
H1155 C1151 0.950 . S
H1156 C1153 0.950 1_655 S
C1157 C1148 1.390 . S
C1157 H1150 0.950 . S
C1157 C1154 1.387 . S
C1158 C1159 1.387 . S
C1158 H1162 0.950 . S
C1158 C1167 1.390 . S
C1159 C1158 1.387 . S
C1159 C1161 1.387 . S
H1160 C1167 0.950 . S
C1161 C1159 1.387 . S
C1161 C1163 1.390 . S
C1161 H1165 0.950 . S
H1162 C1158 0.950 . S
C1163 C1161 1.390 . S
C1163 C1164 1.387 . S
C1163 H1166 0.950 . S
C1164 C1163 1.387 . S
C1164 C1167 1.387 . S
H1165 C1161 0.950 . S
H1166 C1163 0.950 . S
C1167 C1158 1.390 . S
C1167 H1160 0.950 . S
C1167 C1164 1.387 . S
C1168 C1169 1.387 . S
C1168 H1172 0.950 . S
C1168 C1177 1.390 . S
C1169 C1168 1.387 . S
C1169 C1171 1.387 . S
H1170 C1177 0.950 . S
C1171 C1169 1.387 . S
C1171 C1173 1.390 . S
C1171 H1175 0.950 . S
H1172 C1168 0.950 . S
C1173 C1171 1.390 . S
C1173 C1174 1.387 . S
C1173 H1176 0.950 . S
C1174 C1173 1.387 . S
C1174 C1177 1.387 . S
H1175 C1171 0.950 . S
H1176 C1173 0.950 . S
C1177 C1168 1.390 . S
C1177 H1170 0.950 . S
C1177 C1174 1.387 . S
C1178 C1179 1.387 . S
C1178 H1182 0.950 . S
C1178 C1187 1.390 . S
C1179 C1178 1.387 . S
C1179 C1181 1.387 . S
H1180 C1187 0.950 . S
C1181 C1179 1.387 . S
C1181 C1183 1.390 . S
C1181 H1185 0.950 . S
H1182 C1178 0.950 . S
C1183 C1181 1.390 . S
C1183 C1184 1.387 . S
C1183 H1186 0.950 . S
C1184 C1183 1.387 . S
C1184 C1187 1.387 . S
H1185 C1181 0.950 . S
H1186 C1183 0.950 . S
C1187 C1178 1.390 . S
C1187 H1180 0.950 . S
C1187 C1184 1.387 . S
C1188 C1189 1.387 . S
C1188 H1192 0.950 . S
C1188 C1197 1.390 1_554 S
C1189 C1188 1.387 . S
C1189 C1191 1.396 . S
H1190 C1197 0.950 . S
C1191 C1189 1.396 . S
C1191 C1193 1.380 1_554 S
C1191 H1195 0.952 . S
H1192 C1188 0.950 . S
C1193 C1191 1.380 1_556 S
C1193 C1194 1.387 . S
C1193 H1196 0.950 . S
C1194 C1193 1.387 . S
C1194 C1197 1.387 . S
H1195 C1191 0.952 . S
H1196 C1193 0.950 . S
C1197 C1188 1.390 1_556 S
C1197 H1190 0.950 . S
C1197 C1194 1.387 . S
C1198 C1199 1.387 . S
C1198 H1202 0.950 . S
C1198 C1207 1.390 . S
C1199 C1198 1.387 . S
C1199 C1201 1.387 1_556 S
H1200 C1207 0.950 . S
C1201 C1199 1.387 1_554 S
C1201 C1203 1.390 . S
C1201 H1205 0.950 . S
H1202 C1198 0.950 . S
C1203 C1201 1.390 . S
C1203 C1204 1.387 . S
C1203 H1206 0.950 . S
C1204 C1203 1.387 . S
C1204 C1207 1.387 1_554 S
H1205 C1201 0.950 . S
H1206 C1203 0.950 . S
C1207 C1198 1.390 . S
C1207 H1200 0.950 . S
C1207 C1204 1.387 1_556 S
C1208 C1209 1.387 . S
C1208 H1212 0.950 . S
C1208 C1217 1.390 . S
C1209 C1208 1.387 . S
C1209 C1211 1.387 1_556 S
H1210 C1217 0.950 . S
C1211 C1209 1.387 1_554 S
C1211 C1213 1.390 . S
C1211 H1215 0.950 . S
H1212 C1208 0.950 . S
C1213 C1211 1.390 . S
C1213 C1214 1.387 . S
C1213 H1216 0.950 . S
C1214 C1213 1.387 . S
C1214 C1217 1.387 1_554 S
H1215 C1211 0.950 . S
H1216 C1213 0.950 . S
C1217 C1208 1.390 . S
C1217 H1210 0.950 . S
C1217 C1214 1.387 1_556 S
C1218 C1219 1.387 . S
C1218 H1222 0.950 . S
C1218 C1227 1.390 . S
C1219 C1218 1.387 . S
C1219 C1221 1.387 . S
H1220 C1227 0.950 . S
C1221 C1219 1.387 . S
C1221 C1223 1.390 . S
C1221 H1225 0.950 . S
H1222 C1218 0.950 . S
C1223 C1221 1.390 . S
C1223 C1224 1.387 . S
C1223 H1226 0.950 . S
C1224 C1223 1.387 . S
C1224 C1227 1.387 . S
H1225 C1221 0.950 . S
H1226 C1223 0.950 . S
C1227 C1218 1.390 . S
C1227 H1220 0.950 . S
C1227 C1224 1.387 . S
C1228 C1229 1.387 . S
C1228 H1232 0.950 . S
C1228 C1237 1.390 . S
C1229 C1228 1.387 . S
C1229 C1231 1.387 . S
H1230 C1237 0.950 . S
C1231 C1229 1.387 . S
C1231 C1233 1.390 . S
C1231 H1235 0.950 . S
H1232 C1228 0.950 . S
C1233 C1231 1.390 . S
C1233 C1234 1.387 . S
C1233 H1236 0.950 . S
C1234 C1233 1.387 . S
C1234 C1237 1.387 . S
H1235 C1231 0.950 . S
H1236 C1233 0.950 . S
C1237 C1228 1.390 . S
C1237 H1230 0.950 . S
C1237 C1234 1.387 . S
C1238 C1239 1.387 . S
C1238 H1242 0.950 . S
C1238 C1247 1.390 . S
C1239 C1238 1.387 . S
C1239 C1241 1.387 . S
H1240 C1247 0.950 . S
C1241 C1239 1.387 . S
C1241 C1243 1.390 . S
C1241 H1245 0.950 . S
H1242 C1238 0.950 . S
C1243 C1241 1.390 . S
C1243 C1244 1.387 . S
C1243 H1246 0.950 . S
C1244 C1243 1.387 . S
C1244 C1247 1.387 . S
H1245 C1241 0.950 . S
H1246 C1243 0.950 . S
C1247 C1238 1.390 . S
C1247 H1240 0.950 . S
C1247 C1244 1.387 . S
C1248 C1249 1.387 . S
C1248 H1252 0.950 . S
C1248 C1257 1.390 . S
C1249 C1248 1.387 . S
C1249 C1251 1.387 . S
H1250 C1257 0.950 . S
C1251 C1249 1.387 . S
C1251 C1253 1.390 . S
C1251 H1255 0.950 . S
H1252 C1248 0.950 . S
C1253 C1251 1.390 . S
C1253 C1254 1.387 . S
C1253 H1256 0.950 . S
C1254 C1253 1.387 . S
C1254 C1257 1.387 . S
H1255 C1251 0.950 . S
H1256 C1253 0.950 . S
C1257 C1248 1.390 . S
C1257 H1250 0.950 . S
C1257 C1254 1.387 . S
C1258 C1259 1.387 . S
C1258 H1262 0.950 . S
C1258 C1267 1.390 . S
C1259 C1258 1.387 . S
C1259 C1261 1.387 . S
H1260 C1267 0.950 . S
C1261 C1259 1.387 . S
C1261 C1263 1.390 . S
C1261 H1265 0.950 . S
H1262 C1258 0.950 . S
C1263 C1261 1.390 . S
C1263 C1264 1.387 . S
C1263 H1266 0.950 . S
C1264 C1263 1.387 . S
C1264 C1267 1.387 . S
H1265 C1261 0.950 . S
H1266 C1263 0.950 . S
C1267 C1258 1.390 . S
C1267 H1260 0.950 . S
C1267 C1264 1.387 . S
C1268 C1269 1.387 . S
C1268 H1272 0.950 . S
C1268 C1277 1.390 . S
C1269 C1268 1.387 . S
C1269 C1271 1.387 . S
H1270 C1277 0.950 . S
C1271 C1269 1.387 . S
C1271 C1273 1.390 . S
C1271 H1275 0.950 . S
H1272 C1268 0.950 . S
C1273 C1271 1.390 . S
C1273 C1274 1.387 . S
C1273 H1276 0.950 . S
C1274 C1273 1.387 . S
C1274 C1277 1.387 . S
H1275 C1271 0.950 . S
H1276 C1273 0.950 . S
C1277 C1268 1.390 . S
C1277 H1270 0.950 . S
C1277 C1274 1.387 . S
C559 C218 0.286 . S
C564 C24 0.602 . S
C569 C55 0.621 . S
C574 C249 0.335 . S
C579 C187 0.356 . S
C584 C63 0.305 . S
C589 C427 0.545 . S
C594 C86 0.580 . S
C599 C435 0.336 . S
C604 C1 0.390 . S
C609 C396 0.635 . S
C614 C32 0.338 . S
C619 C93 0.666 . S
C624 C523 0.398 . S
C629 C124 0.567 . S
C634 C527 0.556 . S
C639 C182 0.362 . S
C644 C492 0.354 . S
C649 C155 0.598 . S
C654 C337 0.356 . S
C659 C120 0.321 . S
C664 C368 0.374 . S
C669 C151 0.327 . S
C674 C306 0.347 . S
C679 C210 0.569 . S
C684 C404 0.263 . S
C689 C241 0.518 . S
C694 C458 0.571 . S
C699 C373 0.270 . S
C704 C272 0.589 . S
C709 C496 0.567 . S
C714 C341 0.527 . S
C719 C279 0.615 . S
C724 C554 0.240 . S
C729 C465 0.544 . S
C734 C310 0.521 . S
C739 C117 1.633 . S
C744 C0 1.633 . S
C749 C148 1.591 . S
C754 C31 1.589 . S
C759 C89 2.166 . S
C764 C156 2.165 . S
C769 C179 1.635 . S
C774 C62 1.634 . S
C779 C27 2.222 . S
C784 C94 2.223 . S
C789 C58 2.165 . S
C794 C125 2.164 . S
C799 C280 1.877 . S
C804 C186 2.013 . S
C809 C311 1.795 . S
C814 C217 1.919 . S
C819 C342 1.804 . S
C824 C248 1.926 . S
C829 C365 1.983 . S
C834 C275 1.844 . S
C839 C303 1.984 . S
C844 C213 1.848 . S
C849 C334 1.890 . S
C854 C244 1.764 . S
C859 C489 1.609 . S
C864 C372 1.608 . S
C869 C520 1.566 . S
C874 C403 1.567 . S
C879 C461 2.127 . S
C884 C528 2.131 . S
C889 C434 1.607 . S
C894 C551 1.608 . S
C899 C399 2.182 . S
C904 C466 2.180 . S
C909 C430 2.129 . S
C914 C497 2.129 . S
C919 C18 1.979 . S
C924 C359 1.968 . S
C929 C297 1.961 . S
C934 C49 1.969 . S
C939 C328 1.885 . S
C944 C72 2.023 . S
C949 C80 1.948 . S
C954 C483 1.935 . S
C959 C514 1.791 . S
C964 C10 1.907 . S
C969 C537 1.812 . S
C974 C41 1.893 . S
C979 C445 1.917 . S
C984 C104 1.924 . S
C989 C135 1.911 . S
C994 C374 1.978 . S
C999 C157 1.862 . S
C1004 C405 1.784 . S
C1009 C197 1.995 . S
C1014 C166 2.005 . S
C1019 C95 2.058 . S
C1024 C228 1.922 . S
C1029 C126 2.054 . S
C1034 C259 1.912 . S
C1039 C204 1.831 . S
C1044 C545 1.824 . S
C1049 C475 1.862 1_565 S
C1054 C235 1.822 . S
C1059 C506 1.879 1_455 S
C1064 C266 1.840 . S
C1069 C111 1.887 . S
C1074 C258 2.009 . S
C1079 C196 2.039 . S
C1084 C142 1.901 . S
C1089 C165 1.944 . S
C1094 C227 2.021 . S
C1099 C281 2.047 . S
C1104 C73 1.909 . S
C1109 C312 2.025 . S
C1114 C2 1.953 . S
C1119 C343 2.055 . S
C1124 C33 1.973 . S
C1129 C352 1.809 . S
C1134 C383 1.806 . S
C1139 C290 1.829 . S
C1144 C414 1.819 1_565 S
C1149 C321 1.822 . S
C1154 C436 1.852 1_455 S
C1159 C173 1.944 . S
C1164 C390 1.946 . S
C1169 C103 1.995 . S
C1174 C421 1.930 . S
C1179 C444 1.911 . S
C1184 C134 1.821 . S
C1189 C289 1.938 . S
C1194 C452 1.875 . S
C1199 C382 1.858 . S
C1204 C320 1.788 1_545 S
C1209 C413 1.853 . S
C1214 C351 1.775 1_655 S
C1219 C250 1.906 . S
C1224 C476 1.843 . S
C1229 C507 1.827 . S
C1234 C188 1.891 1_545 S
C1239 C219 1.743 1_655 S
C1244 C529 1.817 . S
C1249 C538 1.974 . S
C1254 C11 1.969 . S
C1259 C42 1.839 . S
C1264 C467 1.960 . S
C1269 C64 1.848 . S
C1274 C498 1.938 . S
