# Generated by pormake.
# Topology ecc, (8)-cn, num edge types: 1
# Building blocks:
#     Node 0, Type 0, BuildingBlock: EBIMEJ_clean_sbu_0, # of connection points: 8
#     Node 1, Type 0, BuildingBlock: EBIMEJ_clean_sbu_0, # of connection points: 8
#     Node 2, Type 0, BuildingBlock: EBIMEJ_clean_sbu_0, # of connection points: 8
#     Node 3, Type 0, BuildingBlock: EBIMEJ_clean_sbu_0, # of connection points: 8
#     Node 4, Type 0, BuildingBlock: EBIMEJ_clean_sbu_0, # of connection points: 8
#     Node 5, Type 0, BuildingBlock: EBIMEJ_clean_sbu_0, # of connection points: 8
#     Node 6, Type 0, BuildingBlock: EBIMEJ_clean_sbu_0, # of connection points: 8
#     Node 7, Type 0, BuildingBlock: EBIMEJ_clean_sbu_0, # of connection points: 8
#     Node 8, Type 0, BuildingBlock: EBIMEJ_clean_sbu_0, # of connection points: 8
#     Node 9, Type 0, BuildingBlock: EBIMEJ_clean_sbu_0, # of connection points: 8
#     Node 10, Type 0, BuildingBlock: EBIMEJ_clean_sbu_0, # of connection points: 8
#     Node 11, Type 0, BuildingBlock: EBIMEJ_clean_sbu_0, # of connection points: 8
#     Node 12, Type 0, BuildingBlock: EBIMEJ_clean_sbu_0, # of connection points: 8
#     Node 13, Type 0, BuildingBlock: EBIMEJ_clean_sbu_0, # of connection points: 8
#     Node 14, Type 0, BuildingBlock: EBIMEJ_clean_sbu_0, # of connection points: 8
#     Node 15, Type 0, BuildingBlock: EBIMEJ_clean_sbu_0, # of connection points: 8
#     Node 16, Type 0, BuildingBlock: EBIMEJ_clean_sbu_0, # of connection points: 8
#     Node 17, Type 0, BuildingBlock: EBIMEJ_clean_sbu_0, # of connection points: 8
#     Edge 18, Type (0, 0), BuildingBlock: XUDNAN_clean_linker_2, # of connection points: 2
#     Edge 19, Type (0, 0), BuildingBlock: XUDNAN_clean_linker_2, # of connection points: 2
#     Edge 20, Type (0, 0), BuildingBlock: XUDNAN_clean_linker_2, # of connection points: 2
#     Edge 21, Type (0, 0), BuildingBlock: XUDNAN_clean_linker_2, # of connection points: 2
#     Edge 22, Type (0, 0), BuildingBlock: XUDNAN_clean_linker_2, # of connection points: 2
#     Edge 23, Type (0, 0), BuildingBlock: XUDNAN_clean_linker_2, # of connection points: 2
#     Edge 24, Type (0, 0), BuildingBlock: XUDNAN_clean_linker_2, # of connection points: 2
#     Edge 25, Type (0, 0), BuildingBlock: XUDNAN_clean_linker_2, # of connection points: 2
#     Edge 26, Type (0, 0), BuildingBlock: XUDNAN_clean_linker_2, # of connection points: 2
#     Edge 27, Type (0, 0), BuildingBlock: XUDNAN_clean_linker_2, # of connection points: 2
#     Edge 28, Type (0, 0), BuildingBlock: XUDNAN_clean_linker_2, # of connection points: 2
#     Edge 29, Type (0, 0), BuildingBlock: XUDNAN_clean_linker_2, # of connection points: 2
#     Edge 30, Type (0, 0), BuildingBlock: XUDNAN_clean_linker_2, # of connection points: 2
#     Edge 31, Type (0, 0), BuildingBlock: XUDNAN_clean_linker_2, # of connection points: 2
#     Edge 32, Type (0, 0), BuildingBlock: XUDNAN_clean_linker_2, # of connection points: 2
#     Edge 33, Type (0, 0), BuildingBlock: XUDNAN_clean_linker_2, # of connection points: 2
#     Edge 34, Type (0, 0), BuildingBlock: XUDNAN_clean_linker_2, # of connection points: 2
#     Edge 35, Type (0, 0), BuildingBlock: XUDNAN_clean_linker_2, # of connection points: 2
#     Edge 36, Type (0, 0), BuildingBlock: XUDNAN_clean_linker_2, # of connection points: 2
#     Edge 37, Type (0, 0), BuildingBlock: XUDNAN_clean_linker_2, # of connection points: 2
#     Edge 38, Type (0, 0), BuildingBlock: XUDNAN_clean_linker_2, # of connection points: 2
#     Edge 39, Type (0, 0), BuildingBlock: XUDNAN_clean_linker_2, # of connection points: 2
#     Edge 40, Type (0, 0), BuildingBlock: XUDNAN_clean_linker_2, # of connection points: 2
#     Edge 41, Type (0, 0), BuildingBlock: XUDNAN_clean_linker_2, # of connection points: 2
#     Edge 42, Type (0, 0), BuildingBlock: XUDNAN_clean_linker_2, # of connection points: 2
#     Edge 43, Type (0, 0), BuildingBlock: XUDNAN_clean_linker_2, # of connection points: 2
#     Edge 44, Type (0, 0), BuildingBlock: XUDNAN_clean_linker_2, # of connection points: 2
#     Edge 45, Type (0, 0), BuildingBlock: XUDNAN_clean_linker_2, # of connection points: 2
#     Edge 46, Type (0, 0), BuildingBlock: XUDNAN_clean_linker_2, # of connection points: 2
#     Edge 47, Type (0, 0), BuildingBlock: XUDNAN_clean_linker_2, # of connection points: 2
#     Edge 48, Type (0, 0), BuildingBlock: XUDNAN_clean_linker_2, # of connection points: 2
#     Edge 49, Type (0, 0), BuildingBlock: XUDNAN_clean_linker_2, # of connection points: 2
#     Edge 50, Type (0, 0), BuildingBlock: XUDNAN_clean_linker_2, # of connection points: 2
#     Edge 51, Type (0, 0), BuildingBlock: XUDNAN_clean_linker_2, # of connection points: 2
#     Edge 52, Type (0, 0), BuildingBlock: XUDNAN_clean_linker_2, # of connection points: 2
#     Edge 53, Type (0, 0), BuildingBlock: XUDNAN_clean_linker_2, # of connection points: 2
#     Edge 54, Type (0, 0), BuildingBlock: XUDNAN_clean_linker_2, # of connection points: 2
#     Edge 55, Type (0, 0), BuildingBlock: XUDNAN_clean_linker_2, # of connection points: 2
#     Edge 56, Type (0, 0), BuildingBlock: XUDNAN_clean_linker_2, # of connection points: 2
#     Edge 57, Type (0, 0), BuildingBlock: XUDNAN_clean_linker_2, # of connection points: 2
#     Edge 58, Type (0, 0), BuildingBlock: XUDNAN_clean_linker_2, # of connection points: 2
#     Edge 59, Type (0, 0), BuildingBlock: XUDNAN_clean_linker_2, # of connection points: 2
#     Edge 60, Type (0, 0), BuildingBlock: XUDNAN_clean_linker_2, # of connection points: 2
#     Edge 61, Type (0, 0), BuildingBlock: XUDNAN_clean_linker_2, # of connection points: 2
#     Edge 62, Type (0, 0), BuildingBlock: XUDNAN_clean_linker_2, # of connection points: 2
#     Edge 63, Type (0, 0), BuildingBlock: XUDNAN_clean_linker_2, # of connection points: 2
#     Edge 64, Type (0, 0), BuildingBlock: XUDNAN_clean_linker_2, # of connection points: 2
#     Edge 65, Type (0, 0), BuildingBlock: XUDNAN_clean_linker_2, # of connection points: 2
#     Edge 66, Type (0, 0), BuildingBlock: XUDNAN_clean_linker_2, # of connection points: 2
#     Edge 67, Type (0, 0), BuildingBlock: XUDNAN_clean_linker_2, # of connection points: 2
#     Edge 68, Type (0, 0), BuildingBlock: XUDNAN_clean_linker_2, # of connection points: 2
#     Edge 69, Type (0, 0), BuildingBlock: XUDNAN_clean_linker_2, # of connection points: 2
#     Edge 70, Type (0, 0), BuildingBlock: XUDNAN_clean_linker_2, # of connection points: 2
#     Edge 71, Type (0, 0), BuildingBlock: XUDNAN_clean_linker_2, # of connection points: 2
#     Edge 72, Type (0, 0), BuildingBlock: XUDNAN_clean_linker_2, # of connection points: 2
#     Edge 73, Type (0, 0), BuildingBlock: XUDNAN_clean_linker_2, # of connection points: 2
#     Edge 74, Type (0, 0), BuildingBlock: XUDNAN_clean_linker_2, # of connection points: 2
#     Edge 75, Type (0, 0), BuildingBlock: XUDNAN_clean_linker_2, # of connection points: 2
#     Edge 76, Type (0, 0), BuildingBlock: XUDNAN_clean_linker_2, # of connection points: 2
#     Edge 77, Type (0, 0), BuildingBlock: XUDNAN_clean_linker_2, # of connection points: 2
#     Edge 78, Type (0, 0), BuildingBlock: XUDNAN_clean_linker_2, # of connection points: 2
#     Edge 79, Type (0, 0), BuildingBlock: XUDNAN_clean_linker_2, # of connection points: 2
#     Edge 80, Type (0, 0), BuildingBlock: XUDNAN_clean_linker_2, # of connection points: 2
#     Edge 81, Type (0, 0), BuildingBlock: XUDNAN_clean_linker_2, # of connection points: 2
#     Edge 82, Type (0, 0), BuildingBlock: XUDNAN_clean_linker_2, # of connection points: 2
#     Edge 83, Type (0, 0), BuildingBlock: XUDNAN_clean_linker_2, # of connection points: 2
#     Edge 84, Type (0, 0), BuildingBlock: XUDNAN_clean_linker_2, # of connection points: 2
#     Edge 85, Type (0, 0), BuildingBlock: XUDNAN_clean_linker_2, # of connection points: 2
#     Edge 86, Type (0, 0), BuildingBlock: XUDNAN_clean_linker_2, # of connection points: 2
#     Edge 87, Type (0, 0), BuildingBlock: XUDNAN_clean_linker_2, # of connection points: 2
#     Edge 88, Type (0, 0), BuildingBlock: XUDNAN_clean_linker_2, # of connection points: 2
#     Edge 89, Type (0, 0), BuildingBlock: XUDNAN_clean_linker_2, # of connection points: 2
# Relax obj value: 0.328
# Max RMSD: 0.288
# Mean RMSD: 0.288
data_MOF--net-ecc--node1-EBIMEJ_clean_sbu_0--edge1-XUDNAN_clean_linker_2
_symmetry_space_group_name_H-M    P1
_symmetry_Int_Tables_number       1
_symmetry_cell_setting            triclinic
loop_
_symmetry_equiv_pos_as_xyz
'x, y, z'
_cell_length_a     59.869908
_cell_length_b     59.935565
_cell_length_c     26.111965
_cell_angle_alpha  90.149161
_cell_angle_beta   89.948517
_cell_angle_gamma 120.03239
loop_
_atom_site_label
_atom_site_type_symbol
_atom_site_fract_x
_atom_site_fract_y
_atom_site_fract_z
_atom_type_partial_charge
Co0 Co 0.14438 1.00704 0.71914 0.0
Co1 Co 0.18376 0.03278 0.8126 0.0
Co2 Co 0.19655 1.00624 0.72855 0.0
H3 H 0.17055 1.0058 0.73799 0.0
O4 O 0.16537 1.00215 0.7692 0.0
H5 H 0.20905 0.03049 0.81054 0.0
O6 O 0.2157 0.03412 0.78017 0.0
Co7 Co 0.23271 0.02716 0.83894 0.0
O8 O 0.23225 0.05361 0.89075 0.0
O9 O 0.2032 0.06277 0.85798 0.0
O10 O 0.24819 0.0137 0.78319 0.0
O11 O 0.22884 1.00765 0.70569 0.0
O12 O 0.11815 0.98223 0.77196 0.0
O13 O 0.10633 0.99709 0.71278 0.0
O14 O 0.20213 0.99327 0.86302 0.0
O15 O 0.17494 1.00814 0.87232 0.0
C16 C 0.15628 0.97521 0.64746 0.0
C17 C 0.14289 0.04294 0.79208 0.0
C18 C 0.27344 0.04085 0.88974 0.0
C19 C 0.18872 0.04305 0.65556 0.0
C20 C 0.22038 0.06654 0.89106 0.0
C21 C 0.24636 1.00819 0.73488 0.0
C22 C 0.09956 0.98311 0.75198 0.0
C23 C 0.18142 0.99116 0.88134 0.0
O24 O 0.14396 0.98694 0.65735 0.0
O25 O 0.17568 0.97838 0.67471 0.0
O26 O 0.15219 0.03523 0.8275 0.0
O27 O 0.14564 0.03915 0.74509 0.0
O28 O 0.25173 0.0218 0.9 0.0
O29 O 0.27209 0.05212 0.85035 0.0
O30 O 0.165 0.03348 0.66668 0.0
O31 O 0.2028 0.0349 0.67674 0.0
Co32 Co 0.03477 0.16643 0.72261 0.0
Co33 Co 1.01061 0.18188 0.81467 0.0
Co34 Co 0.03841 0.22069 0.73044 0.0
H35 H 0.03755 0.1946 0.74049 0.0
O36 O 0.04114 0.19308 0.77177 0.0
H37 H 1.01376 0.2097 0.81212 0.0
O38 O 1.0105 0.21295 0.78161 0.0
Co39 Co 0.01778 0.23684 0.84093 0.0
O40 O 0.9915 0.21045 0.89402 0.0
O41 O 0.98059 0.17217 0.8594 0.0
O42 O 0.03209 0.2656 0.78469 0.0
O43 O 0.03845 0.25226 0.70735 0.0
O44 O 0.04623 0.1398 0.71099 0.0
O45 O 0.05839 0.16327 0.77574 0.0
O46 O 0.05122 0.23952 0.86634 0.0
O47 O 0.03551 0.19729 0.87424 0.0
C48 C 0.06951 0.20948 0.65232 0.0
C49 C 0.99897 0.13035 0.79588 0.0
C50 C 1.00417 0.26389 0.89155 0.0
C51 C 0.99962 0.17593 0.65924 0.0
C52 C 0.97766 0.18566 0.89359 0.0
C53 C 0.03808 0.26939 0.73657 0.0
C54 C 0.05901 0.14542 0.75182 0.0
C55 C 0.05282 0.22055 0.88393 0.0
O56 O 0.05635 0.18555 0.66259 0.0
O57 O 0.06639 0.22645 0.67721 0.0
O58 O 1.00724 0.14769 0.83074 0.0
O59 O 1.00207 0.13647 0.74876 0.0
O60 O 0.99486 0.25377 0.84889 0.0
O61 O 0.02123 0.25874 0.90512 0.0
O62 O 1.00755 0.16071 0.67235 0.0
O63 O 1.00953 0.19889 0.67815 0.0
Co64 Co 0.87974 0.89928 0.72554 0.0
Co65 Co 0.86337 0.85971 0.81803 0.0
Co66 Co 0.82602 0.84799 0.73104 0.0
H67 H 0.85156 0.87364 0.74235 0.0
O68 O 0.85247 0.87873 0.77352 0.0
H69 H 0.83575 0.83447 0.81355 0.0
O70 O 0.83354 0.82833 0.78282 0.0
Co71 Co 0.80829 0.81001 0.83919 0.0
O72 O 0.83388 0.81179 0.89614 0.0
O73 O 0.87266 0.83964 0.86393 0.0
O74 O 0.77938 0.79598 0.78219 0.0
O75 O 0.79604 0.81595 0.70614 0.0
O76 O 0.90675 0.93731 0.71526 0.0
O77 O 0.88228 0.92593 0.77844 0.0
O78 O 0.80412 0.83926 0.86847 0.0
O79 O 0.84604 0.868 0.87581 0.0
C80 C 0.83738 0.8893 0.65126 0.0
C81 C 0.915 0.90043 0.80273 0.0
C82 C 0.78688 0.76548 0.87785 0.0
C83 C 0.87165 0.85528 0.66155 0.0
C84 C 0.85869 0.82313 0.89744 0.0
C85 C 0.77789 0.79834 0.73311 0.0
C86 C 0.90063 0.9444 0.75561 0.0
C87 C 0.8224 0.86041 0.88629 0.0
O88 O 0.86115 0.90095 0.66355 0.0
O89 O 0.8203 0.86947 0.67642 0.0
O90 O 0.89708 0.89094 0.83643 0.0
O91 O 0.90969 0.89752 0.75516 0.0
O92 O 0.78256 0.78306 0.89197 0.0
O93 O 0.80289 0.77322 0.84176 0.0
O94 O 0.88633 0.87867 0.6742 0.0
O95 O 0.8489 0.8417 0.68081 0.0
Co96 Co 0.80543 0.02217 0.19079 0.0
Co97 Co 0.8424 0.04261 0.29949 0.0
Co98 Co 0.85525 0.017 0.21415 0.0
H99 H 0.82969 0.01902 0.21718 0.0
O100 O 0.82332 0.01501 0.2477 0.0
H101 H 0.86863 0.04381 0.289 0.0
O102 O 0.87361 0.0476 0.25773 0.0
Co103 Co 0.89514 0.04316 0.30731 0.0
O104 O 0.89586 0.06324 0.3694 0.0
O105 O 0.86312 0.07047 0.35365 0.0
O106 O 0.89395 0.01117 0.28063 0.0
O107 O 0.88697 0.01489 0.19834 0.0
O108 O 0.78507 0.02746 0.13224 0.0
O109 O 0.76625 0.99601 0.17996 0.0
O110 O 0.87564 0.01758 0.36184 0.0
O111 O 0.83699 0.01392 0.35011 0.0
C112 C 0.81769 0.98269 0.13742 0.0
C113 C 0.79237 0.03996 0.29652 0.0
C114 C 0.93988 0.06755 0.27478 0.0
C115 C 0.8564 0.05822 0.14536 0.0
C116 C 0.88302 0.07435 0.38007 0.0
C117 C 0.89656 1.00735 0.23357 0.0
C118 C 0.76392 1.00756 0.14207 0.0
C119 C 0.85178 1.00704 0.37246 0.0
O120 O 0.80531 0.99516 0.13922 0.0
O121 O 0.83575 0.98711 0.16876 0.0
O122 O 0.80992 0.03964 0.32401 0.0
O123 O 0.79031 0.03606 0.24747 0.0
O124 O 0.93303 0.05266 0.3126 0.0
O125 O 0.9214 0.06902 0.2559 0.0
O126 O 0.83557 0.05578 0.164 0.0
O127 O 0.86345 0.0417 0.15482 0.0
Co128 Co 0.02257 0.81328 0.18868 0.0
Co129 Co 1.00125 0.82895 0.29813 0.0
Co130 Co 0.02857 0.86804 0.21423 0.0
H131 H 0.02593 0.84038 0.21668 0.0
O132 O 0.0293 0.83734 0.24721 0.0
H133 H 1.00138 0.85477 0.28851 0.0
O134 O 0.9979 0.85633 0.25723 0.0
Co135 Co 1.00302 0.88241 0.30711 0.0
O136 O 0.9832 0.86317 0.36933 0.0
O137 O 0.97349 0.82257 0.35169 0.0
O138 O 0.03498 0.91324 0.28063 0.0
O139 O 0.03141 0.90212 0.19846 0.0
O140 O 0.03663 0.80313 0.1248 0.0
O141 O 0.03146 0.78416 0.19346 0.0
O142 O 0.03035 0.88839 0.35763 0.0
O143 O 0.02998 0.85103 0.34993 0.0
C144 C 0.06142 0.86444 0.13468 0.0
C145 C 1.00169 0.78041 0.29223 0.0
C146 C 0.97846 0.90309 0.27707 0.0
C147 C 0.98668 0.82852 0.1453 0.0
C148 C 0.97099 0.83914 0.37923 0.0
C149 C 0.03877 0.91938 0.2335 0.0
C150 C 0.03864 0.78582 0.14776 0.0
C151 C 0.03914 0.87372 0.36961 0.0
O152 O 0.04753 0.83965 0.13428 0.0
O153 O 0.05867 0.87799 0.16912 0.0
O154 O 1.00191 0.7978 0.32141 0.0
O155 O 1.00739 0.78401 0.24394 0.0
O156 O 0.99115 0.9088 0.31803 0.0
O157 O 0.97926 0.88523 0.25354 0.0
O158 O 0.98909 0.80997 0.16261 0.0
O159 O 1.00355 0.852 0.15498 0.0
Co160 Co 0.23175 0.23938 0.1879 0.0
Co161 Co 0.21536 0.2018 0.29674 0.0
Co162 Co 0.17661 0.19151 0.21265 0.0
H163 H 0.20452 0.21602 0.21587 0.0
O164 O 0.20776 0.22229 0.24658 0.0
H165 H 0.18898 0.17659 0.28682 0.0
O166 O 0.18728 0.17164 0.25539 0.0
Co167 Co 0.16094 0.15095 0.30522 0.0
O168 O 0.18005 0.14926 0.36681 0.0
O169 O 0.22098 0.17958 0.34965 0.0
O170 O 0.13019 0.15187 0.27671 0.0
O171 O 0.14244 0.16104 0.19522 0.0
O172 O 0.24208 0.26379 0.12461 0.0
O173 O 0.26073 0.27746 0.1938 0.0
O174 O 0.15752 0.17174 0.36124 0.0
O175 O 0.19407 0.20917 0.34916 0.0
C176 C 0.18129 0.22774 0.13258 0.0
C177 C 0.26447 0.25053 0.29163 0.0
C178 C 0.13889 0.10578 0.27411 0.0
C179 C 0.21567 0.18845 0.14297 0.0
C180 C 0.20412 0.16044 0.37667 0.0
C181 C 0.12479 0.15079 0.22923 0.0
C182 C 0.25923 0.28307 0.14814 0.0
C183 C 0.17237 0.19536 0.37223 0.0
O184 O 0.20596 0.23742 0.13156 0.0
O185 O 0.16755 0.21255 0.16818 0.0
O186 O 0.24717 0.23308 0.3204 0.0
O187 O 0.26077 0.25302 0.24362 0.0
O188 O 0.13317 0.11299 0.3148 0.0
O189 O 0.15738 0.12417 0.25137 0.0
O190 O 0.2345 0.20915 0.16064 0.0
O191 O 0.1923 0.18213 0.15314 0.0
Co192 Co 0.81209 0.34238 0.05839 0.0
Co193 Co 0.85082 0.36516 0.15275 0.0
Co194 Co 0.86405 0.34032 0.06615 0.0
H195 H 0.83802 0.34017 0.07583 0.0
O196 O 0.83274 0.33566 0.10676 0.0
H197 H 0.87669 0.36388 0.14922 0.0
O198 O 0.88309 0.36784 0.1187 0.0
Co199 Co 0.90128 0.36157 0.17651 0.0
O200 O 0.90143 0.3883 0.22819 0.0
O201 O 0.86961 0.39447 0.20015 0.0
O202 O 0.91568 0.34736 0.12036 0.0
O203 O 0.89644 0.34176 0.0429 0.0
O204 O 0.77449 0.33454 0.05365 0.0
O205 O 0.78461 0.31516 0.10621 0.0
O206 O 0.87241 0.32771 0.20487 0.0
O207 O 0.84256 0.33942 0.20986 0.0
C208 C 0.82349 0.31012 0.9853 0.0
C209 C 0.80972 0.37524 0.13816 0.0
C210 C 0.94306 0.37639 0.22465 0.0
C211 C 0.85701 0.37844 0.99574 0.0
C212 C 0.88817 0.39978 0.23072 0.0
C213 C 0.91382 0.34191 0.07206 0.0
C214 C 0.76672 0.31812 0.08892 0.0
C215 C 0.85075 0.32403 0.22131 0.0
O216 O 0.81154 0.3222 0.99603 0.0
O217 O 0.843 0.31295 1.01176 0.0
O218 O 0.81874 0.36582 0.17045 0.0
O219 O 0.81175 0.37305 0.09009 0.0
O220 O 0.92199 0.3564 0.23451 0.0
O221 O 0.94047 0.388 0.18714 0.0
O222 O 0.83351 0.36967 1.00785 0.0
O223 O 0.87056 0.36929 1.01527 0.0
Co224 Co 0.70236 0.49652 0.06097 0.0
Co225 Co 0.6778 0.51323 0.15376 0.0
Co226 Co 0.70462 0.55032 0.06791 0.0
H227 H 0.70439 0.52448 0.07877 0.0
O228 O 0.70807 0.52343 0.11017 0.0
H229 H 0.68094 0.54128 0.14932 0.0
O230 O 0.67709 0.5433 0.11849 0.0
Co231 Co 0.68506 0.56949 0.17373 0.0
O232 O 0.65834 0.54379 0.22764 0.0
O233 O 0.64834 0.5046 0.19877 0.0
O234 O 0.7048 0.59914 0.11891 0.0
O235 O 0.70348 0.58046 0.04268 0.0
O236 O 0.70082 0.46156 0.06263 0.0
O237 O 0.73201 0.49374 0.0951 0.0
O238 O 0.71784 0.57209 0.20235 0.0
O239 O 0.70302 0.53003 0.21237 0.0
C240 C 0.73629 0.53994 0.99013 0.0
C241 C 0.66461 0.46223 0.13534 0.0
C242 C 0.66988 0.59771 0.21457 0.0
C243 C 0.66891 0.50648 0.99328 0.0
C244 C 0.64511 0.51895 0.23028 0.0
C245 C 0.70851 0.60025 0.06976 0.0
C246 C 0.72159 0.46998 0.08669 0.0
C247 C 0.71981 0.5536 0.22157 0.0
O248 O 0.7249 0.51611 1.00165 0.0
O249 O 0.73238 0.55633 1.01492 0.0
O250 O 0.67405 0.47905 0.17113 0.0
O251 O 0.66798 0.46935 0.08872 0.0
O252 O 0.66851 0.57816 0.23515 0.0
O253 O 0.67991 0.60126 0.17088 0.0
O254 O 0.67864 0.49249 1.00404 0.0
O255 O 0.67587 0.5279 1.01669 0.0
Co256 Co 0.54419 0.23051 0.05977 0.0
Co257 Co 0.5296 0.19031 0.15097 0.0
Co258 Co 0.49021 0.17891 0.06745 0.0
H259 H 0.51629 0.20448 0.07746 0.0
O260 O 0.51787 0.20939 0.10888 0.0
H261 H 0.50193 0.16515 0.14788 0.0
O262 O 0.49877 0.15896 0.11712 0.0
Co263 Co 0.47486 0.141 0.17542 0.0
O264 O 0.50143 0.14132 0.22793 0.0
O265 O 0.53969 0.17017 0.19511 0.0
O266 O 0.44565 0.12655 0.12002 0.0
O267 O 0.45878 0.14718 0.04379 0.0
O268 O 0.56981 0.26896 0.04967 0.0
O269 O 0.54766 0.25633 0.11598 0.0
O270 O 0.47137 0.17099 0.20226 0.0
O271 O 0.51339 0.19867 0.21076 0.0
C272 C 0.50079 0.22002 0.98784 0.0
C273 C 0.58154 0.23291 0.13475 0.0
C274 C 0.44805 0.09939 0.22321 0.0
C275 C 0.53359 0.18636 0.99247 0.0
C276 C 0.52626 0.15308 0.22819 0.0
C277 C 0.44177 0.12923 0.07223 0.0
C278 C 0.56471 0.27538 0.09202 0.0
C279 C 0.48985 0.19183 0.22048 0.0
O280 O 0.52477 0.23147 0.99845 0.0
O281 O 0.48393 0.2007 1.01447 0.0
O282 O 0.5637 0.22158 0.16829 0.0
O283 O 0.57632 0.23217 0.08729 0.0
O284 O 0.46232 0.10197 0.18571 0.0
O285 O 0.44898 0.12036 0.23323 0.0
O286 O 0.54824 0.20995 1.00402 0.0
O287 O 0.51182 0.17226 1.01495 0.0
Co288 Co 0.47312 0.3539 0.5241 0.0
Co289 Co 0.51035 0.37408 0.63387 0.0
Co290 Co 0.52271 0.34896 0.54637 0.0
H291 H 0.49723 0.35075 0.55085 0.0
O292 O 0.49082 0.34676 0.58137 0.0
H293 H 0.53597 0.37357 0.62313 0.0
O294 O 0.54125 0.37825 0.59225 0.0
Co295 Co 0.56143 0.37024 0.63883 0.0
O296 O 0.5633 0.39144 0.69972 0.0
O297 O 0.532 0.40123 0.68813 0.0
O298 O 0.5603 0.33884 0.60743 0.0
O299 O 0.55437 0.34754 0.52768 0.0
O300 O 0.45399 0.35901 0.46321 0.0
O301 O 0.4336 0.32939 0.51445 0.0
O302 O 0.54032 0.34406 0.69118 0.0
O303 O 0.50354 0.34498 0.68481 0.0
C304 C 0.48515 0.31518 0.46847 0.0
C305 C 0.46074 0.37304 0.62955 0.0
C306 C 0.6067 0.39372 0.60826 0.0
C307 C 0.5237 0.39115 0.48001 0.0
C308 C 0.55207 0.40396 0.7123 0.0
C309 C 0.56254 0.33703 0.55935 0.0
C310 C 0.43222 0.34036 0.47462 0.0
C311 C 0.51707 0.33584 0.70445 0.0
O312 O 0.47245 0.32725 0.47114 0.0
O313 O 0.50337 0.3198 0.49935 0.0
O314 O 0.47841 0.37333 0.65798 0.0
O315 O 0.45848 0.3675 0.58122 0.0
O316 O 0.59882 0.3777 0.64427 0.0
O317 O 0.58894 0.39661 0.58999 0.0
O318 O 0.50243 0.38795 0.49766 0.0
O319 O 0.53116 0.37497 0.48954 0.0
Co320 Co 0.68977 0.146 0.52588 0.0
Co321 Co 0.66806 0.16294 0.63451 0.0
Co322 Co 0.69593 0.20095 0.54901 0.0
H323 H 0.69298 0.17321 0.553 0.0
O324 O 0.69614 0.17037 0.58391 0.0
H325 H 0.66902 0.18922 0.62367 0.0
O326 O 0.66547 0.1904 0.59222 0.0
Co327 Co 0.6718 0.21769 0.64045 0.0
O328 O 0.64717 0.19759 0.6961 0.0
O329 O 0.63996 0.15726 0.68694 0.0
O330 O 0.7064 0.24483 0.61414 0.0
O331 O 0.69976 0.23516 0.53193 0.0
O332 O 0.70617 0.13791 0.46306 0.0
O333 O 0.69422 0.11387 0.52584 0.0
O334 O 0.69796 0.22288 0.69296 0.0
O335 O 0.69669 0.18501 0.68697 0.0
C336 C 0.72927 0.19651 0.47141 0.0
C337 C 0.66872 0.11423 0.63098 0.0
C338 C 0.65214 0.24401 0.61554 0.0
C339 C 0.65411 0.16104 0.48029 0.0
C340 C 0.63528 0.17391 0.70868 0.0
C341 C 0.70969 0.25196 0.56758 0.0
C342 C 0.70439 0.1179 0.48227 0.0
C343 C 0.70607 0.20783 0.70635 0.0
O344 O 0.716 0.17172 0.47225 0.0
O345 O 0.72584 0.21024 0.50421 0.0
O346 O 0.66795 0.13147 0.65913 0.0
O347 O 0.67515 0.11776 0.58305 0.0
O348 O 0.673 0.25254 0.63931 0.0
O349 O 0.64185 0.22026 0.60711 0.0
O350 O 0.65647 0.14262 0.49853 0.0
O351 O 0.6708 0.18459 0.48993 0.0
Co352 Co 0.89788 0.57265 0.52729 0.0
Co353 Co 0.88286 0.53543 0.636 0.0
Co354 Co 0.84357 0.52294 0.55201 0.0
H355 H 0.87097 0.54843 0.55499 0.0
O356 O 0.87389 0.55477 0.58563 0.0
H357 H 0.85736 0.50946 0.62582 0.0
O358 O 0.85597 0.50452 0.59444 0.0
Co359 Co 0.82996 0.48306 0.64381 0.0
O360 O 0.84924 0.48312 0.70666 0.0
O361 O 0.88977 0.51428 0.68912 0.0
O362 O 0.79747 0.48047 0.61586 0.0
O363 O 0.80998 0.4912 0.53484 0.0
O364 O 0.92185 0.59166 0.46588 0.0
O365 O 0.91227 0.61199 0.51673 0.0
O366 O 0.82348 0.50373 0.69512 0.0
O367 O 0.86036 0.54126 0.68809 0.0
C368 C 0.84616 0.56016 0.47543 0.0
C369 C 0.93038 0.58564 0.63136 0.0
C370 C 0.81073 0.43828 0.61238 0.0
C371 C 0.88351 0.52216 0.48154 0.0
C372 C 0.87332 0.49512 0.71658 0.0
C373 C 0.79222 0.47962 0.56839 0.0
C374 C 0.9246 0.61334 0.47677 0.0
C375 C 0.83777 0.5272 0.70772 0.0
O376 O 0.87098 0.57242 0.47608 0.0
O377 O 0.83284 0.54248 0.50761 0.0
O378 O 0.91354 0.56761 0.65985 0.0
O379 O 0.92666 0.58796 0.58334 0.0
O380 O 0.80529 0.44454 0.65453 0.0
O381 O 0.82755 0.45744 0.58831 0.0
O382 O 0.90189 0.54313 0.49953 0.0
O383 O 0.85997 0.51491 0.49213 0.0
Co384 Co 0.48011 0.67453 0.38981 0.0
Co385 Co 0.5185 0.69741 0.48496 0.0
Co386 Co 0.53231 0.67384 0.39777 0.0
H387 H 0.50604 0.67273 0.40793 0.0
O388 O 0.50064 0.66799 0.43871 0.0
H389 H 0.54426 0.69581 0.48149 0.0
O390 O 0.55086 0.70054 0.4513 0.0
Co391 Co 0.56839 0.69229 0.5072 0.0
O392 O 0.56788 0.71828 0.56107 0.0
O393 O 0.53735 0.7264 0.53246 0.0
O394 O 0.58341 0.67845 0.44996 0.0
O395 O 0.5649 0.67713 0.37333 0.0
O396 O 0.4428 0.6672 0.38643 0.0
O397 O 0.45314 0.64796 0.43912 0.0
O398 O 0.53855 0.65827 0.53294 0.0
O399 O 0.51018 0.67174 0.54229 0.0
C400 C 0.49244 0.64363 0.31588 0.0
C401 C 0.4788 0.70853 0.46753 0.0
C402 C 0.61131 0.7071 0.54976 0.0
C403 C 0.52346 0.70924 0.32381 0.0
C404 C 0.55525 0.73051 0.5639 0.0
C405 C 0.5819 0.67569 0.4006 0.0
C406 C 0.43528 0.65106 0.42218 0.0
C407 C 0.51753 0.65544 0.55121 0.0
O408 O 0.47966 0.65476 0.32716 0.0
O409 O 0.51209 0.64693 0.34231 0.0
O410 O 0.48642 0.6984 0.50125 0.0
O411 O 0.48224 0.70659 0.41998 0.0
O412 O 0.59285 0.70816 0.57008 0.0
O413 O 0.60528 0.69743 0.5057 0.0
O414 O 0.49946 0.69855 0.33301 0.0
O415 O 0.53825 0.7031 0.3484 0.0
Co416 Co 0.36776 0.82682 0.39548 0.0
Co417 Co 0.33915 0.84471 0.48973 0.0
Co418 Co 0.37041 0.88159 0.4039 0.0
H419 H 0.36806 0.85436 0.41453 0.0
O420 O 0.36977 0.85239 0.44673 0.0
H421 H 0.3443 0.87297 0.48314 0.0
O422 O 0.34198 0.87596 0.45185 0.0
Co423 Co 0.3494 0.90091 0.50959 0.0
O424 O 0.32513 0.87739 0.56802 0.0
O425 O 0.30959 0.83864 0.53224 0.0
O426 O 0.36362 0.92814 0.45145 0.0
O427 O 0.37273 0.91407 0.37788 0.0
O428 O 0.36338 0.79077 0.38332 0.0
O429 O 0.39892 0.82157 0.40405 0.0
O430 O 0.38296 0.90288 0.53063 0.0
O431 O 0.36457 0.86122 0.54859 0.0
C432 C 0.40024 0.86928 0.3248 0.0
C433 C 0.34407 0.80055 0.49222 0.0
C434 C 0.33626 0.92924 0.5569 0.0
C435 C 0.33245 0.83758 0.33229 0.0
C436 C 0.30943 0.85296 0.56793 0.0
C437 C 0.371 0.93134 0.40421 0.0
C438 C 0.38643 0.79794 0.39416 0.0
C439 C 0.38355 0.88427 0.55266 0.0
O440 O 0.38516 0.84519 0.33087 0.0
O441 O 0.39889 0.88611 0.35365 0.0
O442 O 0.33263 0.81065 0.51425 0.0
O443 O 0.36488 0.81614 0.46969 0.0
O444 O 0.35554 0.92707 0.56763 0.0
O445 O 0.32439 0.91532 0.51911 0.0
O446 O 0.34047 0.82235 0.34528 0.0
O447 O 0.34224 0.86052 0.35096 0.0
Co448 Co 0.21543 0.56958 0.39296 0.0
Co449 Co 0.19991 0.52816 0.48452 0.0
Co450 Co 0.16128 0.51723 0.39972 0.0
H451 H 0.1875 0.54304 0.41024 0.0
O452 O 0.18877 0.54765 0.44183 0.0
H453 H 0.17232 0.503 0.48016 0.0
O454 O 0.16957 0.497 0.44925 0.0
Co455 Co 0.14508 0.47891 0.50713 0.0
O456 O 0.17119 0.47844 0.55975 0.0
O457 O 0.20966 0.50766 0.52867 0.0
O458 O 0.11643 0.46441 0.45079 0.0
O459 O 0.1299 0.48548 0.37509 0.0
O460 O 0.23082 0.60563 0.36042 0.0
O461 O 0.23077 0.60189 0.43938 0.0
O462 O 0.14114 0.50872 0.53348 0.0
O463 O 0.18305 0.53611 0.54397 0.0
C464 C 0.17053 0.56028 0.32594 0.0
C465 C 0.25147 0.57046 0.47077 0.0
C466 C 0.11777 0.43791 0.55668 0.0
C467 C 0.20695 0.52465 0.33012 0.0
C468 C 0.196 0.49005 0.5607 0.0
C469 C 0.11279 0.46728 0.40299 0.0
C470 C 0.23706 0.61727 0.40259 0.0
C471 C 0.15945 0.52936 0.55272 0.0
O472 O 0.19447 0.57243 0.33669 0.0
O473 O 0.15445 0.53909 0.34855 0.0
O474 O 0.23344 0.55917 0.50375 0.0
O475 O 0.24664 0.57022 0.42321 0.0
O476 O 0.12075 0.45963 0.56804 0.0
O477 O 0.13025 0.4394 0.51686 0.0
O478 O 0.22226 0.54727 0.34642 0.0
O479 O 0.18346 0.51152 0.34626 0.0
Co480 Co 0.13957 0.68865 0.86083 0.0
Co481 Co 0.17692 0.7091 0.96885 0.0
Co482 Co 0.18879 0.68259 0.88426 0.0
H483 H 0.1636 0.68516 0.88725 0.0
O484 O 0.15731 0.68142 0.9178 0.0
H485 H 0.20281 0.70912 0.9596 0.0
O486 O 0.20796 0.71284 0.92843 0.0
Co487 Co 0.22864 0.70728 0.97907 0.0
O488 O 0.22959 0.72802 0.04022 0.0
O489 O 0.19793 0.7367 0.02291 0.0
O490 O 0.22452 0.6741 0.95055 0.0
O491 O 0.2198 0.67963 0.86811 0.0
O492 O 0.12002 0.69476 0.802 0.0
O493 O 0.10036 0.66333 0.84965 0.0
O494 O 0.20844 0.6839 0.03672 0.0
O495 O 0.17018 0.6803 0.01933 0.0
C496 C 0.1516 0.64948 0.80583 0.0
C497 C 0.12685 0.70698 0.966 0.0
C498 C 0.27414 0.72923 0.94938 0.0
C499 C 0.19089 0.725 0.81869 0.0
C500 C 0.21731 0.73979 0.05009 0.0
C501 C 0.22764 0.67052 0.90355 0.0
C502 C 0.09859 0.67522 0.81175 0.0
C503 C 0.18435 0.67375 0.04476 0.0
O504 O 0.13969 0.6624 0.80733 0.0
O505 O 0.16888 0.65304 0.8384 0.0
O506 O 0.14489 0.7073 0.9929 0.0
O507 O 0.12419 0.70236 0.91724 0.0
O508 O 0.26336 0.70829 0.9731 0.0
O509 O 0.25942 0.73828 0.94369 0.0
O510 O 0.17014 0.72252 0.83759 0.0
O511 O 0.19746 0.70794 0.82613 0.0
Co512 Co 0.35718 0.47924 0.85972 0.0
Co513 Co 0.33819 0.4982 0.96732 0.0
Co514 Co 0.36369 0.53486 0.88003 0.0
H515 H 0.36122 0.50723 0.88488 0.0
O516 O 0.36535 0.50523 0.91551 0.0
H517 H 0.33808 0.52368 0.95556 0.0
O518 O 0.33379 0.52428 0.92438 0.0
Co519 Co 0.34068 0.55191 0.97216 0.0
O520 O 0.32114 0.5339 0.03601 0.0
O521 O 0.31105 0.49292 0.02156 0.0
O522 O 0.37158 0.5827 0.94083 0.0
O523 O 0.36547 0.56802 0.86067 0.0
O524 O 0.38219 0.46479 0.84986 0.0
O525 O 0.3515 0.45375 0.80048 0.0
O526 O 0.36903 0.55937 0.02105 0.0
O527 O 0.36749 0.52138 1.01692 0.0
C528 C 0.39707 0.52986 0.8039 0.0
C529 C 0.33941 0.45001 0.96688 0.0
C530 C 0.31442 0.57069 0.94291 0.0
C531 C 0.3214 0.49388 0.81404 0.0
C532 C 0.30871 0.51003 0.04757 0.0
C533 C 0.37425 0.58667 0.89275 0.0
C534 C 0.37071 0.45144 0.81118 0.0
C535 C 0.37738 0.54453 0.03448 0.0
O536 O 0.38366 0.50504 0.806 0.0
O537 O 0.39338 0.54408 0.83502 0.0
O538 O 0.34016 0.46844 0.99328 0.0
O539 O 0.34318 0.4511 0.91784 0.0
O540 O 0.32754 0.57715 0.98338 0.0
O541 O 0.31592 0.55326 0.9192 0.0
O542 O 0.3233 0.47557 0.83433 0.0
O543 O 0.3386 0.51743 0.82155 0.0
Co544 Co 0.56305 0.90369 0.85673 0.0
Co545 Co 0.54607 0.86577 0.96567 0.0
Co546 Co 0.50824 0.85488 0.87987 0.0
H547 H 0.53584 0.87987 0.88416 0.0
O548 O 0.5386 0.88609 0.9149 0.0
H549 H 0.51905 0.84056 0.95603 0.0
O550 O 0.51805 0.8353 0.92497 0.0
Co551 Co 0.4899 0.81564 0.97303 0.0
O552 O 0.51064 0.81169 0.029 0.0
O553 O 0.55157 0.84357 0.01808 0.0
O554 O 0.46081 0.81907 0.94083 0.0
O555 O 0.47487 0.82409 0.86078 0.0
O556 O 0.58837 0.92405 0.79794 0.0
O557 O 0.57664 0.94302 0.84773 0.0
O558 O 0.48792 0.83643 0.03037 0.0
O559 O 0.52517 0.87331 0.01884 0.0
C560 C 0.51261 0.89197 0.80109 0.0
C561 C 0.59519 0.91532 0.96111 0.0
C562 C 0.46243 0.76933 0.95097 0.0
C563 C 0.54881 0.8529 0.81276 0.0
C564 C 0.53452 0.82283 0.04074 0.0
C565 C 0.45649 0.81715 0.89274 0.0
C566 C 0.59021 0.94532 0.80918 0.0
C567 C 0.5035 0.85973 0.04223 0.0
O568 O 0.5374 0.90329 0.80161 0.0
O569 O 0.49903 0.87515 0.83433 0.0
O570 O 0.57813 0.89716 0.98917 0.0
O571 O 0.59151 0.91817 0.91334 0.0
O572 O 0.45417 0.78274 0.97164 0.0
O573 O 0.48632 0.78208 0.94347 0.0
O574 O 0.56714 0.87395 0.83059 0.0
O575 O 0.52523 0.84595 0.8222 0.0
H576 H 0.06369 0.10825 0.70179 0.0
H577 H 0.08372 0.15167 0.84381 0.0
H578 H 0.10507 0.12781 0.87452 0.0
H579 H 0.0505 0.04769 0.75388 0.0
H580 H 0.06488 0.04011 0.7008 0.0
H581 H 0.05058 0.05996 0.69084 0.0
H582 H 0.09334 0.0962 0.65274 0.0
H583 H 0.10765 0.07627 0.66126 0.0
H584 H 0.12279 0.10811 0.68889 0.0
H585 H 0.1257 0.09921 0.8876 0.0
H586 H 0.14498 0.07097 0.87881 0.0
H587 H 0.10974 0.04711 0.72868 0.0
C588 C 0.07247 0.11269 0.73945 0.0
C589 C 0.07209 0.13171 0.77048 0.0
C590 C 0.08389 0.13711 0.81944 0.0
C591 C 0.09594 0.1236 0.83725 0.0
C592 C 0.09595 0.10483 0.80555 0.0
C593 C 0.08459 0.09957 0.75756 0.0
C594 C 0.08806 0.07951 0.72958 0.0
C595 C 0.06193 0.05539 0.71815 0.0
C596 C 0.1039 0.0907 0.68024 0.0
C597 C 0.10301 0.07411 0.76925 0.0
C598 C 0.10751 0.08876 0.81298 0.0
C599 C 0.12211 0.08753 0.85359 0.0
C600 C 0.13286 0.07139 0.8485 0.0
C601 C 0.12896 0.05696 0.80305 0.0
C602 C 0.11324 0.05796 0.76391 0.0
H603 H 0.99787 0.0936 0.7353 0.0
H604 H 0.97035 0.10451 0.88165 0.0
H605 H 0.94353 0.05691 0.89113 0.0
H606 H 0.93888 0.04464 0.69279 0.0
H607 H 0.95201 0.02761 0.65877 0.0
H608 H 0.97123 0.0619 0.66762 0.0
H609 H 1.0075 0.05713 0.71244 0.0
H610 H 0.98873 0.02311 0.69987 0.0
H611 H 0.99914 0.03457 0.76436 0.0
H612 H 0.91615 1.00774 0.87795 0.0
H613 H 0.89287 0.9626 0.84652 0.0
H614 H 0.93933 0.98619 0.70842 0.0
C615 C 0.98658 0.08609 0.76993 0.0
C616 C 0.98605 0.10264 0.80774 0.0
C617 C 0.97109 0.09205 0.85246 0.0
C618 C 0.95578 0.0651 0.85793 0.0
C619 C 0.95604 0.04935 0.81853 0.0
C620 C 0.97133 0.05964 0.77568 0.0
C621 C 0.96717 0.03932 0.73669 0.0
C622 C 0.9567 0.04364 0.68602 0.0
C623 C 0.99211 0.03845 0.72792 0.0
C624 C 0.94698 0.01565 0.76399 0.0
C625 C 0.94066 0.02166 0.81108 0.0
C626 C 0.92122 1.00285 0.84149 0.0
C627 C 0.90803 0.97735 0.82323 0.0
C628 C 0.91436 0.97104 0.77507 0.0
C629 C 0.93418 0.99045 0.74548 0.0
H630 H 0.95168 0.93957 0.74875 0.0
H631 H 0.94065 0.89397 0.88467 0.0
H632 H 0.98831 0.91301 0.89168 0.0
H633 H 0.99731 0.92912 0.69422 0.0
H634 H 0.01559 0.9606 0.66577 0.0
H635 H 0.98168 0.94716 0.67754 0.0
H636 H 0.98994 0.98649 0.73404 0.0
H637 H 0.02348 1.00052 0.71748 0.0
H638 H 1.01397 0.99735 0.78387 0.0
H639 H 0.03722 0.93297 0.87426 0.0
H640 H 0.08166 0.95367 0.83908 0.0
H641 H 0.05822 0.98466 0.71362 0.0
C642 C 0.95923 0.93404 0.78093 0.0
C643 C 0.94261 0.91528 0.81617 0.0
C644 C 0.9532 0.90849 0.8576 0.0
C645 C 0.98016 0.9191 0.86153 0.0
C646 C 0.99595 0.93653 0.82399 0.0
C647 C 0.98569 0.94414 0.78497 0.0
C648 C 1.00583 0.96118 0.74659 0.0
C649 C 0.99973 0.94876 0.6929 0.0
C650 C 1.00851 0.98802 0.74553 0.0
C651 C 0.02929 0.96192 0.76933 0.0
C652 C 0.02342 0.94769 0.81404 0.0
C653 C 0.04201 0.94443 0.83977 0.0
C654 C 0.06712 0.95612 0.81938 0.0
C655 C 0.07328 0.9707 0.77362 0.0
C656 C 0.0541 0.97369 0.74872 0.0
H657 H 0.97428 0.94087 0.32573 0.0
H658 H 0.95376 0.89661 0.18473 0.0
H659 H 0.93292 0.92081 0.15299 0.0
H660 H 0.91574 0.94226 0.33787 0.0
H661 H 0.93149 0.97429 0.36469 0.0
H662 H 0.94516 0.95386 0.37398 0.0
H663 H 0.98813 0.98932 0.33547 0.0
H664 H 0.97447 0.00965 0.32433 0.0
H665 H 0.98851 1.0012 0.27188 0.0
H666 H 0.91262 0.94992 0.13908 0.0
H667 H 0.89391 0.97872 0.1472 0.0
H668 H 0.92989 1.00326 0.29654 0.0
C669 C 0.96546 0.93626 0.28812 0.0
C670 C 0.96556 0.91689 0.25772 0.0
C671 C 0.95378 0.91139 0.20871 0.0
C672 C 0.94201 0.9251 0.19032 0.0
C673 C 0.94227 0.9442 0.22144 0.0
C674 C 0.95365 0.94959 0.26943 0.0
C675 C 0.95067 0.97012 0.2967 0.0
C676 C 0.93482 0.95949 0.3462 0.0
C677 C 0.97703 0.99399 0.30769 0.0
C678 C 0.93595 0.97564 0.2567 0.0
C679 C 0.93111 0.96064 0.21339 0.0
C680 C 0.91651 0.96188 0.17276 0.0
C681 C 0.90609 0.97836 0.17745 0.0
C682 C 0.91034 0.99315 0.22251 0.0
C683 C 0.92612 0.99217 0.26157 0.0
H684 H 0.09966 0.06408 0.32095 0.0
H685 H 0.14646 0.08726 0.18334 0.0
H686 H 0.12303 0.0421 0.1521 0.0
H687 H 0.09981 1.00575 0.33742 0.0
H688 H 0.06741 0.98848 0.36224 0.0
H689 H 0.0865 0.0228 0.37079 0.0
H690 H 0.0503 0.02772 0.32825 0.0
H691 H 0.03136 0.99354 0.31736 0.0
H692 H 0.03967 0.01542 0.26426 0.0
H693 H 0.09527 0.99282 0.13889 0.0
H694 H 0.06793 0.94518 0.1482 0.0
H695 H 0.04034 0.95652 0.29409 0.0
C696 C 0.10483 0.05972 0.28401 0.0
C697 C 0.12482 0.07907 0.25454 0.0
C698 C 0.13116 0.07261 0.20654 0.0
C699 C 0.11789 0.04707 0.1884 0.0
C700 C 0.09832 0.02831 0.2187 0.0
C701 C 0.09191 0.03446 0.26557 0.0
C702 C 0.07156 0.01079 0.29279 0.0
C703 C 0.08195 1.00672 0.34378 0.0
C704 C 0.04677 0.01199 0.30108 0.0
C705 C 0.06742 0.99037 0.25405 0.0
C706 C 0.08283 1.00057 0.21135 0.0
C707 C 0.08294 0.9847 0.17202 0.0
C708 C 0.06732 0.95774 0.17736 0.0
C709 C 0.05214 0.94721 0.22185 0.0
C710 C 0.0518 0.96392 0.25962 0.0
H711 H 0.08734 0.10979 0.27774 0.0
H712 H 0.10019 0.16212 0.15241 0.0
H713 H 0.05271 0.14383 0.14452 0.0
H714 H 0.02526 0.05429 0.23283 0.0
H715 H 0.01518 0.0477 0.29885 0.0
H716 H 0.04885 0.06244 0.28284 0.0
H717 H 0.05632 0.09844 0.34872 0.0
H718 H 0.02227 0.08447 0.35945 0.0
H719 H 0.04097 0.11733 0.33782 0.0
H720 H 1.00363 0.12306 0.15997 0.0
H721 H 0.95875 0.10083 0.19313 0.0
H722 H 0.98046 0.06358 0.30923 0.0
C723 C 0.0802 0.11702 0.24769 0.0
C724 C 0.09725 0.13727 0.21562 0.0
C725 C 0.08727 0.14632 0.1769 0.0
C726 C 0.06041 0.13616 0.17247 0.0
C727 C 0.04414 0.11691 0.20673 0.0
C728 C 0.05384 0.10732 0.2431 0.0
C729 C 0.03316 0.08832 0.27833 0.0
C730 C 0.03041 0.06156 0.27278 0.0
C731 C 0.03851 0.09772 0.33435 0.0
C732 C 1.01007 0.08889 0.25714 0.0
C733 C 0.01656 0.10533 0.21566 0.0
C734 C 0.99836 0.10991 0.19194 0.0
C735 C 0.973 0.09733 0.21115 0.0
C736 C 0.96627 0.0806 0.2538 0.0
C737 C 0.98504 0.07625 0.27656 0.0
H738 H 0.82431 0.42561 0.1316 0.0
H739 H 0.76098 0.35109 0.17571 0.0
H740 H 0.73145 0.36879 0.17533 0.0
H741 H 0.80133 0.46546 0.2059 0.0
H742 H 0.81288 0.48944 0.15606 0.0
H743 H 0.82948 0.47194 0.16927 0.0
H744 H 0.82446 0.45809 0.07396 0.0
H745 H 0.80725 0.47484 0.06058 0.0
H746 H 0.79267 0.44098 0.04602 0.0
H747 H 0.70793 0.39175 0.15077 0.0
H748 H 0.6927 0.42048 0.11854 0.0
H749 H 0.77175 0.48164 0.09788 0.0
C750 C 0.80451 0.41351 0.14387 0.0
C751 C 0.79481 0.38723 0.15466 0.0
C752 C 0.76869 0.37143 0.16851 0.0
C753 C 0.75183 0.38131 0.16812 0.0
C754 C 0.76173 0.40714 0.15504 0.0
C755 C 0.78765 0.42327 0.14476 0.0
C756 C 0.79303 0.44968 0.12787 0.0
C757 C 0.81019 0.47036 0.16712 0.0
C758 C 0.80505 0.45626 0.07393 0.0
C759 C 0.76593 0.44553 0.12774 0.0
C760 C 0.74816 0.42083 0.14338 0.0
C761 C 0.7217 0.41141 0.14027 0.0
C762 C 0.71322 0.42776 0.12144 0.0
C763 C 0.73109 0.45331 0.10661 0.0
C764 C 0.75776 0.46237 0.1103 0.0
H765 H 0.65338 0.42509 0.06514 0.0
H766 H 0.64177 0.4354 0.22563 0.0
H767 H 0.61467 0.38764 0.23442 0.0
H768 H 0.59308 0.37459 0.03539 0.0
H769 H 0.60503 0.35879 0.99401 0.0
H770 H 0.62334 0.39316 1.00232 0.0
H771 H 0.663 0.38991 0.03077 0.0
H772 H 0.64506 0.3554 0.02324 0.0
H773 H 0.66018 0.36945 0.08368 0.0
H774 H 0.58591 0.33763 0.22065 0.0
H775 H 0.56237 0.29242 0.18899 0.0
H776 H 0.59761 0.31826 0.03973 0.0
C777 C 0.64553 0.41765 0.10264 0.0
C778 C 0.64974 0.4341 0.14479 0.0
C779 C 0.63886 0.42314 0.19284 0.0
C780 C 0.62348 0.39609 0.19804 0.0
C781 C 0.6198 0.38055 0.15505 0.0
C782 C 0.63103 0.3912 0.10862 0.0
C783 C 0.62505 0.37116 0.06785 0.0
C784 C 0.61077 0.37464 0.02225 0.0
C785 C 0.64978 0.37149 0.05037 0.0
C786 C 0.60774 0.3472 0.09769 0.0
C787 C 0.60475 0.35271 0.14794 0.0
C788 C 0.58845 0.33324 0.18158 0.0
C789 C 0.57509 0.30768 0.16324 0.0
C790 C 0.57826 0.30198 0.11192 0.0
C791 C 0.59491 0.32203 0.07918 0.0
H792 H 0.72642 0.32381 0.05734 0.0
H793 H 0.7473 0.28354 0.16798 0.0
H794 H 0.70268 0.2616 0.20187 0.0
H795 H 0.68035 0.33137 0.1403 0.0
H796 H 0.65867 0.326 0.08784 0.0
H797 H 0.69289 0.34091 0.0764 0.0
H798 H 0.68491 0.30592 1.00874 0.0
H799 H 0.65078 0.29134 0.01915 0.0
H800 H 0.66631 0.27238 0.02615 0.0
H801 H 0.6543 0.24114 0.21827 0.0
H802 H 0.60681 0.22193 0.21013 0.0
H803 H 0.61862 0.27597 0.08896 0.0
C804 C 0.72167 0.31057 0.08906 0.0
C805 C 0.74021 0.30524 0.10987 0.0
C806 C 0.73329 0.28778 0.1513 0.0
C807 C 0.70806 0.27541 0.17107 0.0
C808 C 0.69008 0.28091 0.14931 0.0
C809 C 0.69666 0.29814 0.1092 0.0
C810 C 0.67348 0.29925 0.08964 0.0
C811 C 0.67655 0.32598 0.09913 0.0
C812 C 0.66859 0.29176 0.03257 0.0
C813 C 0.6526 0.27908 0.1233 0.0
C814 C 0.66249 0.26909 0.15841 0.0
C815 C 0.64639 0.24904 0.19132 0.0
C816 C 0.61948 0.23831 0.18673 0.0
C817 C 0.60913 0.24744 0.14896 0.0
C818 C 0.62602 0.26864 0.11831 0.0
H819 H 0.54834 0.28673 0.56614 0.0
H820 H 0.61122 0.36136 0.52129 0.0
H821 H 0.64122 0.34424 0.52359 0.0
H822 H 0.57975 0.27207 0.65321 0.0
H823 H 0.56574 0.23822 0.63909 0.0
H824 H 0.5482 0.25449 0.62437 0.0
H825 H 0.54409 0.24052 0.52927 0.0
H826 H 0.56097 0.22343 0.54384 0.0
H827 H 0.57263 0.24728 0.49377 0.0
H828 H 0.66518 0.32192 0.55057 0.0
H829 H 0.68073 0.29367 0.58412 0.0
H830 H 0.60184 0.23188 0.60339 0.0
C831 C 0.56814 0.29896 0.55402 0.0
C832 C 0.57757 0.32516 0.54267 0.0
C833 C 0.60371 0.3411 0.52899 0.0
C834 C 0.62084 0.33154 0.5305 0.0
C835 C 0.61121 0.30585 0.54434 0.0
C836 C 0.58528 0.2895 0.55411 0.0
C837 C 0.58015 0.26325 0.57164 0.0
C838 C 0.56774 0.25665 0.62524 0.0
C839 C 0.56348 0.24238 0.53228 0.0
C840 C 0.60739 0.26778 0.57288 0.0
C841 C 0.62503 0.29251 0.55718 0.0
C842 C 0.65152 0.30224 0.56112 0.0
C843 C 0.66019 0.28615 0.58072 0.0
C844 C 0.64245 0.26055 0.5955 0.0
C845 C 0.61574 0.2512 0.5911 0.0
H846 H 0.77709 0.39552 0.66379 0.0
H847 H 0.81412 0.42133 0.51596 0.0
H848 H 0.79031 0.37622 0.4838 0.0
H849 H 0.78031 0.3387 0.66954 0.0
H850 H 0.74962 0.32064 0.70132 0.0
H851 H 0.76837 0.35498 0.70966 0.0
H852 H 0.72929 0.35927 0.67803 0.0
H853 H 0.71078 0.32479 0.67036 0.0
H854 H 0.71469 0.34543 0.61706 0.0
H855 H 0.76104 0.32637 0.46935 0.0
H856 H 0.73339 0.27864 0.47775 0.0
H857 H 0.7201 0.28901 0.63723 0.0
C858 C 0.78017 0.39176 0.62457 0.0
C859 C 0.79738 0.41174 0.59237 0.0
C860 C 0.80099 0.40609 0.5413 0.0
C861 C 0.78746 0.38061 0.52266 0.0
C862 C 0.77053 0.3612 0.55573 0.0
C863 C 0.76711 0.36669 0.60573 0.0
C864 C 0.7491 0.34278 0.63501 0.0
C865 C 0.76268 0.33907 0.68158 0.0
C866 C 0.72452 0.34312 0.65105 0.0
C867 C 0.74331 0.32282 0.59428 0.0
C868 C 0.75515 0.33345 0.54826 0.0
C869 C 0.75174 0.31794 0.50539 0.0
C870 C 0.73603 0.29092 0.51035 0.0
C871 C 0.72457 0.28002 0.55807 0.0
C872 C 0.7284 0.29644 0.6 0.0
H873 H 0.75501 0.43772 0.61678 0.0
H874 H 0.76722 0.48898 0.48975 0.0
H875 H 0.71977 0.4693 0.47994 0.0
H876 H 0.6941 0.38101 0.568 0.0
H877 H 0.68138 0.373 0.6321 0.0
H878 H 0.71568 0.38816 0.62148 0.0
H879 H 0.72272 0.42417 0.68562 0.0
H880 H 0.68852 0.40972 0.69511 0.0
H881 H 0.70706 0.44274 0.67431 0.0
H882 H 0.67116 0.44854 0.49424 0.0
H883 H 0.62624 0.42665 0.52659 0.0
H884 H 0.64709 0.38952 0.64443 0.0
C885 C 0.74772 0.44437 0.58593 0.0
C886 C 0.76468 0.46491 0.55406 0.0
C887 C 0.75449 0.47312 0.51423 0.0
C888 C 0.7276 0.46211 0.50862 0.0
C889 C 0.7114 0.44271 0.54262 0.0
C890 C 0.72118 0.4336 0.57986 0.0
C891 C 0.7002 0.4142 0.61441 0.0
C892 C 0.69767 0.38749 0.60862 0.0
C893 C 0.70492 0.42327 0.67065 0.0
C894 C 0.67707 0.41453 0.59241 0.0
C895 C 0.68374 0.43082 0.55065 0.0
C896 C 0.66571 0.43544 0.52634 0.0
C897 C 0.64032 0.42309 0.54519 0.0
C898 C 0.6333 0.4065 0.5881 0.0
C899 C 0.6519 0.40204 0.61148 0.0
H900 H 0.49192 0.75788 0.45107 0.0
H901 H 0.43028 0.68494 0.50683 0.0
H902 H 0.39919 0.7003 0.49451 0.0
H903 H 0.4659 0.79892 0.50746 0.0
H904 H 0.4773 0.82013 0.45292 0.0
H905 H 0.49472 0.80458 0.47441 0.0
H906 H 0.49113 0.78619 0.38297 0.0
H907 H 0.47275 0.80067 0.36161 0.0
H908 H 0.4597 0.76642 0.35483 0.0
H909 H 0.37444 0.72033 0.45862 0.0
H910 H 0.35787 0.74747 0.42229 0.0
H911 H 0.43644 0.80885 0.39645 0.0
C912 C 0.47213 0.74577 0.46336 0.0
C913 C 0.46337 0.72045 0.48058 0.0
C914 C 0.43727 0.70458 0.49457 0.0
C915 C 0.4195 0.71306 0.48711 0.0
C916 C 0.42847 0.73764 0.46689 0.0
C917 C 0.45435 0.75416 0.45713 0.0
C918 C 0.4589 0.77913 0.4334 0.0
C919 C 0.47516 0.80205 0.46919 0.0
C920 C 0.47135 0.78332 0.38006 0.0
C921 C 0.43144 0.77374 0.42962 0.0
C922 C 0.41417 0.74962 0.44854 0.0
C923 C 0.38763 0.73953 0.44509 0.0
C924 C 0.37848 0.75494 0.42388 0.0
C925 C 0.39594 0.78029 0.4072 0.0
C926 C 0.42272 0.78961 0.40946 0.0
H927 H 0.33311 0.75377 0.53192 0.0
H928 H 0.31389 0.78898 0.40816 0.0
H929 H 0.2852 0.74611 0.37027 0.0
H930 H 0.32983 0.69969 0.46353 0.0
H931 H 0.31443 0.67756 0.51558 0.0
H932 H 0.33524 0.7114 0.52865 0.0
H933 H 0.29707 0.711 0.57808 0.0
H934 H 0.27638 0.67742 0.56268 0.0
H935 H 0.26696 0.70062 0.5452 0.0
H936 H 0.26096 0.69958 0.34311 0.0
H937 H 0.23792 0.65208 0.33466 0.0
H938 H 0.26759 0.64624 0.48236 0.0
C939 C 0.32305 0.75232 0.49652 0.0
C940 C 0.32694 0.77466 0.47073 0.0
C941 C 0.31242 0.77212 0.42622 0.0
C942 C 0.29583 0.74785 0.40495 0.0
C943 C 0.29294 0.72615 0.43027 0.0
C944 C 0.30558 0.72805 0.47581 0.0
C945 C 0.29746 0.70153 0.49712 0.0
C946 C 0.32065 0.69732 0.50159 0.0
C947 C 0.28364 0.69741 0.54883 0.0
C948 C 0.27897 0.68453 0.45567 0.0
C949 C 0.27684 0.69915 0.41723 0.0
C950 C 0.26213 0.6879 0.37337 0.0
C951 C 0.24918 0.66095 0.36878 0.0
C952 C 0.25068 0.64559 0.40814 0.0
C953 C 0.26571 0.65756 0.45218 0.0
H954 H 0.28888 0.61343 0.4265 0.0
H955 H 0.27581 0.55809 0.54568 0.0
H956 H 0.32312 0.57603 0.55338 0.0
H957 H 0.33427 0.60674 0.36281 0.0
H958 H 0.35372 0.63995 0.34379 0.0
H959 H 0.31986 0.62673 0.35568 0.0
H960 H 0.32977 0.66238 0.42206 0.0
H961 H 0.36388 0.6762 0.41093 0.0
H962 H 0.35116 0.66734 0.4749 0.0
H963 H 0.3714 0.59555 0.53641 0.0
H964 H 0.4158 0.61644 0.5013 0.0
H965 H 0.3957 0.65786 0.39192 0.0
C966 C 0.29602 0.60564 0.45547 0.0
C967 C 0.27887 0.58444 0.48565 0.0
C968 C 0.28877 0.57456 0.5228 0.0
C969 C 0.31556 0.58458 0.52711 0.0
C970 C 0.33193 0.60461 0.49443 0.0
C971 C 0.32243 0.61528 0.45994 0.0
C972 C 0.34331 0.63464 0.42523 0.0
C973 C 0.33743 0.6265 0.36857 0.0
C974 C 0.34728 0.66176 0.43384 0.0
C975 C 0.36605 0.63272 0.44424 0.0
C976 C 0.35931 0.61553 0.48446 0.0
C977 C 0.37693 0.60936 0.50559 0.0
C978 C 0.40201 0.62115 0.48518 0.0
C979 C 0.40904 0.63865 0.44383 0.0
C980 C 0.39085 0.64458 0.42359 0.0
H981 H 0.30734 0.60594 0.9937 0.0
H982 H 0.29026 0.56433 0.84984 0.0
H983 H 0.26812 0.58747 0.81903 0.0
H984 H 0.24782 0.60386 1.00631 0.0
H985 H 0.26189 0.63545 0.03489 0.0
H986 H 0.27732 0.61653 0.04258 0.0
H987 H 0.31965 0.65406 1.00471 0.0
H988 H 0.30418 0.67297 0.99628 0.0
H989 H 0.31904 0.66665 0.94241 0.0
H990 H 0.24719 0.61634 0.80562 0.0
H991 H 0.22738 0.64416 0.81501 0.0
H992 H 0.25797 0.66332 0.96951 0.0
C993 C 0.29901 0.6017 0.95564 0.0
C994 C 0.30043 0.58342 0.92416 0.0
C995 C 0.28921 0.57828 0.87464 0.0
C996 C 0.27678 0.59144 0.85674 0.0
C997 C 0.27579 0.60953 0.88897 0.0
C998 C 0.28654 0.61441 0.93753 0.0
C999 C 0.28208 0.6336 0.96625 0.0
C1000 C 0.26634 0.62164 1.01537 0.0
C1001 C 0.30777 0.65827 0.97808 0.0
C1002 C 0.26672 0.63851 0.92687 0.0
C1003 C 0.2635 0.62501 0.88201 0.0
C1004 C 0.24965 0.62697 0.84073 0.0
C1005 C 0.23853 0.64281 0.84623 0.0
C1006 C 0.24105 0.65591 0.89296 0.0
C1007 C 0.25557 0.65372 0.93311 0.0
H1008 H 0.42437 0.62449 0.89256 0.0
H1009 H 0.34683 0.60891 0.86239 0.0
H1010 H 0.36179 0.65548 0.86814 0.0
H1011 H 0.44049 0.66957 0.9826 0.0
H1012 H 0.47345 0.69106 0.96389 0.0
H1013 H 0.45819 0.65743 0.94766 0.0
H1014 H 0.46789 0.66833 0.85135 0.0
H1015 H 0.48408 0.70215 0.86732 0.0
H1016 H 0.45823 0.68918 0.82111 0.0
H1017 H 0.38289 0.70123 0.8987 0.0
H1018 H 0.41077 0.74522 0.93253 0.0
H1019 H 0.47612 0.73279 0.93223 0.0
C1020 C 0.41096 0.63115 0.88418 0.0
C1021 C 0.38458 0.61339 0.87621 0.0
C1022 C 0.36718 0.62241 0.86757 0.0
C1023 C 0.37551 0.64879 0.87108 0.0
C1024 C 0.40146 0.66581 0.88179 0.0
C1025 C 0.41917 0.6575 0.8862 0.0
C1026 C 0.44558 0.67952 0.9009 0.0
C1027 C 0.45495 0.67405 0.95177 0.0
C1028 C 0.4651 0.68513 0.85759 0.0
C1029 C 0.43965 0.70117 0.90676 0.0
C1030 C 0.41404 0.69281 0.89593 0.0
C1031 C 0.40321 0.70832 0.90515 0.0
C1032 C 0.41914 0.73321 0.9246 0.0
C1033 C 0.44569 0.74258 0.93335 0.0
C1034 C 0.45603 0.72631 0.92436 0.0
H1035 H 0.42174 0.83177 0.916 0.0
H1036 H 0.43049 0.77319 0.83645 0.0
H1037 H 0.38296 0.7453 0.83309 0.0
H1038 H 0.37425 0.79443 0.99448 0.0
H1039 H 0.3558 0.81067 0.99177 0.0
H1040 H 0.38978 0.82818 0.97847 0.0
H1041 H 0.38147 0.84177 0.88966 0.0
H1042 H 0.34734 0.8249 0.90309 0.0
H1043 H 0.35927 0.81751 0.84587 0.0
H1044 H 0.33647 0.72038 0.85963 0.0
H1045 H 0.29301 0.70312 0.89702 0.0
H1046 H 0.3133 0.77938 0.95076 0.0
C1047 C 0.41349 0.81358 0.89566 0.0
C1048 C 0.42946 0.80452 0.87611 0.0
C1049 C 0.41838 0.78051 0.85066 0.0
C1050 C 0.39145 0.76455 0.84892 0.0
C1051 C 0.37611 0.77342 0.87125 0.0
C1052 C 0.38671 0.79783 0.89227 0.0
C1053 C 0.36619 0.80219 0.91656 0.0
C1054 C 0.37186 0.80927 0.97369 0.0
C1055 C 0.36339 0.82281 0.88703 0.0
C1056 C 0.34267 0.77579 0.90946 0.0
C1057 C 0.3488 0.75947 0.88321 0.0
C1058 C 0.33119 0.73322 0.87833 0.0
C1059 C 0.30666 0.72352 0.90018 0.0
C1060 C 0.29985 0.74005 0.92591 0.0
C1061 C 0.31793 0.76655 0.92997 0.0
H1062 H 0.16478 0.06794 0.61661 0.0
H1063 H 0.23615 0.06624 0.60383 0.0
H1064 H 0.25064 0.0994 0.53515 0.0
H1065 H 0.15561 0.07246 0.48528 0.0
H1066 H 0.14191 0.093 0.49396 0.0
H1067 H 0.13883 0.07094 0.54369 0.0
H1068 H 0.15984 0.10875 0.60841 0.0
H1069 H 0.16313 0.13101 0.55879 0.0
H1070 H 0.19107 0.13614 0.59451 0.0
H1071 H 0.25546 0.13232 0.46142 0.0
H1072 H 0.24903 0.15794 0.3939 0.0
H1073 H 0.17453 0.13663 0.45969 0.0
C1074 C 0.18363 0.07451 0.59997 0.0
C1075 C 0.19926 0.06421 0.61611 0.0
C1076 C 0.22376 0.07373 0.59264 0.0
C1077 C 0.23213 0.09263 0.55345 0.0
C1078 C 0.21592 0.10205 0.53822 0.0
C1079 C 0.19217 0.09316 0.56131 0.0
C1080 C 0.17745 0.10501 0.53764 0.0
C1081 C 0.15196 0.08411 0.51372 0.0
C1082 C 0.1726 0.12119 0.5772 0.0
C1083 C 0.19636 0.12189 0.49695 0.0
C1084 C 0.2186 0.12027 0.49754 0.0
C1085 C 0.23813 0.13372 0.46127 0.0
C1086 C 0.23445 0.14844 0.42313 0.0
C1087 C 0.2113 0.14947 0.4212 0.0
C1088 C 0.19251 0.1364 0.45971 0.0
H1089 H 0.97156 0.12635 0.625 0.0
H1090 H 0.97938 0.20164 0.60293 0.0
H1091 H 0.94626 0.1832 0.53382 0.0
H1092 H 0.96724 0.10979 0.49569 0.0
H1093 H 0.94483 0.07607 0.50629 0.0
H1094 H 0.96698 0.09513 0.55605 0.0
H1095 H 0.92873 0.08182 0.61841 0.0
H1096 H 0.90637 0.06283 0.56867 0.0
H1097 H 0.90286 0.08751 0.60101 0.0
H1098 H 0.9131 0.15502 0.46035 0.0
H1099 H 0.88737 0.12265 0.39308 0.0
H1100 H 0.90304 0.06741 0.46727 0.0
C1101 C 0.96632 0.13918 0.60631 0.0
C1102 C 0.97834 0.16565 0.61991 0.0
C1103 C 0.97053 0.18134 0.59375 0.0
C1104 C 0.95167 0.17095 0.55432 0.0
C1105 C 0.94059 0.14476 0.54156 0.0
C1106 C 0.9478 0.12923 0.56731 0.0
C1107 C 0.93464 0.10216 0.5456 0.0
C1108 C 0.95461 0.09541 0.52466 0.0
C1109 C 0.9171 0.08242 0.58582 0.0
C1110 C 0.91898 0.10464 0.50287 0.0
C1111 C 0.92227 0.12917 0.50089 0.0
C1112 C 0.91033 0.13577 0.46227 0.0
C1113 C 0.89549 0.11718 0.42434 0.0
C1114 C 0.89291 0.09234 0.42498 0.0
C1115 C 0.90437 0.0861 0.46576 0.0
H1116 H 0.92067 0.87818 0.62354 0.0
H1117 H 0.84639 0.80832 0.6087 0.0
H1118 H 0.86443 0.79343 0.53928 0.0
H1119 H 0.9344 0.88796 0.49266 0.0
H1120 H 0.96857 0.90076 0.50097 0.0
H1121 H 0.94997 0.90407 0.55143 0.0
H1122 H 0.96593 0.88174 0.61452 0.0
H1123 H 0.98449 0.87819 0.56412 0.0
H1124 H 0.96117 0.8503 0.59914 0.0
H1125 H 0.8918 0.78826 0.46471 0.0
H1126 H 0.92335 0.79462 0.39587 0.0
H1127 H 0.97823 0.86778 0.46428 0.0
C1128 C 0.90803 0.85955 0.60637 0.0
C1129 C 0.88196 0.84447 0.62206 0.0
C1130 C 0.86642 0.82026 0.59784 0.0
C1131 C 0.87657 0.81166 0.55826 0.0
C1132 C 0.90236 0.82736 0.54342 0.0
C1133 C 0.91775 0.8508 0.56726 0.0
C1134 C 0.94434 0.8651 0.54355 0.0
C1135 C 0.94961 0.89098 0.5208 0.0
C1136 C 0.96521 0.86905 0.58267 0.0
C1137 C 0.94171 0.8463 0.50202 0.0
C1138 C 0.91753 0.82448 0.50219 0.0
C1139 C 0.91081 0.80524 0.46489 0.0
C1140 C 0.92891 0.80885 0.42605 0.0
C1141 C 0.95337 0.83164 0.42456 0.0
C1142 C 0.95978 0.85006 0.46414 0.0
H1143 H 0.05665 0.21504 0.98806 0.0
H1144 H 0.10107 0.23642 0.84771 0.0
H1145 H 0.13952 0.2427 0.89589 0.0
H1146 H 0.11043 0.26199 0.0692 0.0
H1147 H 0.10046 0.24086 0.12384 0.0
H1148 H 0.07678 0.23882 0.07858 0.0
H1149 H 0.06066 0.19021 0.06478 0.0
H1150 H 0.08412 0.19228 0.11041 0.0
H1151 H 0.08344 0.18023 0.04675 0.0
H1152 H 0.1733 0.24568 0.96037 0.0
H1153 H 0.1984 0.24372 0.0339 0.0
H1154 H 0.13206 0.22066 0.13249 0.0
C1155 C 0.07456 0.22122 0.96769 0.0
C1156 C 0.07597 0.2254 0.91412 0.0
C1157 C 0.09969 0.23341 0.88875 0.0
C1158 C 0.12162 0.23699 0.91587 0.0
C1159 C 0.11972 0.23282 0.96872 0.0
C1160 C 0.09679 0.22524 0.99442 0.0
C1161 C 0.09989 0.22212 0.05132 0.0
C1162 C 0.09669 0.24213 0.08258 0.0
C1163 C 0.0809 0.19456 0.06932 0.0
C1164 C 0.12767 0.22783 0.05327 0.0
C1165 C 0.13898 0.23448 1.00545 0.0
C1166 C 0.16459 0.24062 0.99799 0.0
C1167 C 0.17881 0.23958 0.04014 0.0
C1168 C 0.16741 0.23211 0.08931 0.0
C1169 C 0.1415 0.22646 0.09559 0.0
H1170 H 0.85128 0.96844 0.09917 0.0
H1171 H 0.77282 0.95308 0.0813 0.0
H1172 H 0.76511 0.91994 1.01539 0.0
H1173 H 0.86237 0.96229 0.96514 0.0
H1174 H 0.882 0.94793 0.97781 0.0
H1175 H 0.88088 0.96991 0.0235 0.0
H1176 H 0.86684 0.93533 0.09452 0.0
H1177 H 0.86814 0.91336 0.04909 0.0
H1178 H 0.83891 0.90399 0.08452 0.0
H1179 H 0.76595 0.8864 0.95349 0.0
H1180 H 0.77595 0.85906 0.89774 0.0
H1181 H 0.85478 0.89873 0.95354 0.0
C1182 C 0.83237 0.95809 0.08163 0.0
C1183 C 0.81252 0.96325 0.09611 0.0
C1184 C 0.7883 0.94951 0.07117 0.0
C1185 C 0.78377 0.93059 0.03374 0.0
C1186 C 0.80377 0.92587 0.0209 0.0
C1187 C 0.82772 0.93957 0.04378 0.0
C1188 C 0.84632 0.93155 0.02267 0.0
C1189 C 0.86924 0.95427 0.99568 0.0
C1190 C 0.85559 0.92039 0.06523 0.0
C1191 C 0.82912 0.91087 0.98461 0.0
C1192 C 0.80457 0.90767 0.98431 0.0
C1193 C 0.78519 0.88901 0.95329 0.0
C1194 C 0.79105 0.87346 0.92177 0.0
C1195 C 0.81621 0.87669 0.92074 0.0
C1196 C 0.83541 0.8958 0.95279 0.0
H1197 H 0.1611 0.99059 0.9765 0.0
H1198 H 0.16311 0.94027 0.85955 0.0
H1199 H 0.1334 0.90213 0.91131 0.0
H1200 H 0.16119 0.95071 0.08372 0.0
H1201 H 0.14111 0.95812 0.12344 0.0
H1202 H 0.16233 0.98119 0.07692 0.0
H1203 H 0.12354 0.98245 0.03612 0.0
H1204 H 0.10242 0.95955 0.08271 0.0
H1205 H 0.09579 0.95278 1.01539 0.0
H1206 H 0.10136 0.86894 0.97604 0.0
H1207 H 0.07219 0.84465 0.04784 0.0
H1208 H 0.09344 0.91697 0.12448 0.0
C1209 C 0.15526 0.97151 0.96188 0.0
C1210 C 0.16429 0.96839 0.91375 0.0
C1211 C 0.15651 0.94313 0.89633 0.0
C1212 C 0.13958 0.92134 0.92549 0.0
C1213 C 0.131 0.92502 0.97286 0.0
C1214 C 0.13895 0.94956 0.99125 0.0
C1215 C 0.12777 0.94836 0.0441 0.0
C1216 C 0.14938 0.96031 0.08442 0.0
C1217 C 0.11139 0.96156 0.04454 0.0
C1218 C 0.11126 0.9194 0.05156 0.0
C1219 C 0.11352 0.90617 1.01036 0.0
C1220 C 0.0997 0.8792 1.00864 0.0
C1221 C 0.08314 0.86549 0.04976 0.0
C1222 C 0.08037 0.87865 0.09238 0.0
C1223 C 0.09497 0.90605 0.09292 0.0
H1224 H 0.87139 0.92349 0.58304 0.0
H1225 H 0.78955 0.88258 0.61772 0.0
H1226 H 0.78275 0.90724 0.54842 0.0
H1227 H 0.87698 0.98419 0.56499 0.0
H1228 H 0.90119 0.99355 0.51587 0.0
H1229 H 0.89837 0.97117 0.56471 0.0
H1230 H 0.89287 0.93785 0.495 0.0
H1231 H 0.89587 0.96021 0.44594 0.0
H1232 H 0.86794 0.92835 0.44733 0.0
H1233 H 0.78701 0.94032 0.47402 0.0
H1234 H 0.8012 0.97453 0.40745 0.0
H1235 H 0.88024 0.99233 0.42963 0.0
C1236 C 0.85181 0.91928 0.57638 0.0
C1237 C 0.83099 0.90089 0.60648 0.0
C1238 C 0.80586 0.89635 0.59531 0.0
C1239 C 0.8019 0.91045 0.55608 0.0
C1240 C 0.82324 0.92905 0.52836 0.0
C1241 C 0.84767 0.93318 0.53845 0.0
C1242 C 0.868 0.95463 0.50613 0.0
C1243 C 0.88725 0.9772 0.53994 0.0
C1244 C 0.88197 0.94465 0.47155 0.0
C1245 C 0.85142 0.96203 0.47525 0.0
C1246 C 0.82562 0.94735 0.48809 0.0
C1247 C 0.8072 0.9517 0.46399 0.0
C1248 C 0.81544 0.97126 0.42616 0.0
C1249 C 0.84189 0.98631 0.41265 0.0
C1250 C 0.85982 0.98134 0.43816 0.0
H1251 H 0.06669 0.92323 0.40428 0.0
H1252 H 0.06012 0.84836 0.42422 0.0
H1253 H 0.09353 0.86687 0.49272 0.0
H1254 H 0.13551 0.96262 0.42681 0.0
H1255 H 0.13188 0.98702 0.46005 0.0
H1256 H 0.10932 0.96802 0.41059 0.0
H1257 H 0.07136 0.95414 0.47397 0.0
H1258 H 0.09368 0.97319 0.52349 0.0
H1259 H 0.07162 0.93937 0.53387 0.0
H1260 H 0.12663 0.89488 0.56602 0.0
H1261 H 0.15233 0.92711 0.63353 0.0
H1262 H 0.13585 0.98217 0.56095 0.0
C1263 C 0.07228 0.91054 0.42241 0.0
C1264 C 0.06054 0.88417 0.40847 0.0
C1265 C 0.06878 0.8686 0.43377 0.0
C1266 C 0.0878 0.87902 0.47282 0.0
C1267 C 0.09862 0.90512 0.48596 0.0
C1268 C 0.09102 0.92054 0.46097 0.0
C1269 C 0.10404 0.94752 0.48298 0.0
C1270 C 0.12121 0.96746 0.4427 0.0
C1271 C 0.08398 0.95391 0.50488 0.0
C1272 C 0.12005 0.94509 0.52501 0.0
C1273 C 0.11703 0.92067 0.52643 0.0
C1274 C 0.12921 0.91408 0.56455 0.0
C1275 C 0.14401 0.93257 0.60261 0.0
C1276 C 0.14632 0.95729 0.60253 0.0
C1277 C 0.13468 0.96355 0.56213 0.0
H1278 H 0.14241 0.16876 0.45263 0.0
H1279 H 0.1815 0.24551 0.38789 0.0
H1280 H 0.16121 0.2597 0.45434 0.0
H1281 H 0.08359 0.16542 0.47823 0.0
H1282 H 0.07792 0.14732 0.53652 0.0
H1283 H 0.09713 0.14473 0.48645 0.0
H1284 H 0.13498 0.15801 0.55016 0.0
H1285 H 0.11575 0.1604 0.60058 0.0
H1286 H 0.14702 0.18756 0.58607 0.0
H1287 H 0.13195 0.26345 0.52905 0.0
H1288 H 0.10081 0.2563 0.59961 0.0
H1289 H 0.08372 0.17702 0.61018 0.0
C1290 C 0.14702 0.1887 0.45243 0.0
C1291 C 0.16353 0.20596 0.41471 0.0
C1292 C 0.16906 0.23191 0.41651 0.0
C1293 C 0.15746 0.24007 0.45407 0.0
C1294 C 0.14063 0.22215 0.49 0.0
C1295 C 0.13587 0.19704 0.48935 0.0
C1296 C 0.11686 0.18085 0.53026 0.0
C1297 C 0.09244 0.15827 0.50642 0.0
C1298 C 0.12941 0.17115 0.56906 0.0
C1299 C 0.11118 0.20046 0.55411 0.0
C1300 C 0.12483 0.22429 0.53108 0.0
C1301 C 0.12141 0.24479 0.54725 0.0
C1302 C 0.10365 0.24062 0.58746 0.0
C1303 C 0.08942 0.21608 0.61092 0.0
C1304 C 0.09382 0.19612 0.59362 0.0
H1305 H 0.98118 0.86042 0.07647 0.0
H1306 H 0.94022 0.78324 0.13957 0.0
H1307 H 0.9022 0.7735 0.08637 0.0
H1308 H 0.92696 0.87101 0.06546 0.0
H1309 H 0.93762 0.88764 1.00514 0.0
H1310 H 0.96087 0.88872 0.05029 0.0
H1311 H 0.97895 0.87136 0.98057 0.0
H1312 H 0.95552 0.86959 0.9352 0.0
H1313 H 0.95762 0.84129 0.9489 0.0
H1314 H 0.86756 0.77263 0.0255 0.0
H1315 H 0.84221 0.77976 0.95864 0.0
H1316 H 0.90712 0.85643 0.93301 0.0
C1317 C 0.96417 0.84151 0.07944 0.0
C1318 C 0.96379 0.82268 0.11267 0.0
C1319 C 0.94114 0.79805 0.11452 0.0
C1320 C 0.91933 0.79235 0.08452 0.0
C1321 C 0.92037 0.81134 0.05213 0.0
C1322 C 0.94238 0.83536 0.04913 0.0
C1323 C 0.93922 0.85197 1.00936 0.0
C1324 C 0.94128 0.87627 0.03405 0.0
C1325 C 0.959 0.85896 0.96596 0.0
C1326 C 0.91197 0.83372 0.99071 0.0
C1327 C 0.90119 0.81043 1.01605 0.0
C1328 C 0.87596 0.7908 1.00532 0.0
C1329 C 0.86161 0.79501 0.9674 0.0
C1330 C 0.87264 0.81853 0.94003 0.0
C1331 C 0.89812 0.83806 0.95255 0.0
H1332 H 0.18339 0.15173 0.07245 0.0
H1333 H 0.26053 0.18676 0.13641 0.0
H1334 H 0.27009 0.15901 0.08126 0.0
H1335 H 0.1728 0.08694 0.05835 0.0
H1336 H 0.15603 0.08122 0.99817 0.0
H1337 H 0.15495 0.10308 0.04427 0.0
H1338 H 0.17222 0.13903 0.97575 0.0
H1339 H 0.17355 0.11736 0.92956 0.0
H1340 H 0.20208 0.14775 0.94329 0.0
H1341 H 0.27092 0.12606 0.01923 0.0
H1342 H 0.26376 0.09375 0.95196 0.0
H1343 H 0.18726 0.08243 0.92518 0.0
C1344 C 0.20225 0.15349 0.07509 0.0
C1345 C 0.22115 0.17147 0.10921 0.0
C1346 C 0.24569 0.17326 0.11072 0.0
C1347 C 0.2513 0.15746 0.07957 0.0
C1348 C 0.23231 0.14002 0.04632 0.0
C1349 C 0.20834 0.13814 0.04356 0.0
C1350 C 0.19166 0.11857 1.00316 0.0
C1351 C 0.16743 0.09612 0.02745 0.0
C1352 C 0.18446 0.13146 0.96041 0.0
C1353 C 0.20996 0.10978 0.98366 0.0
C1354 C 0.23322 0.12208 1.00939 0.0
C1355 C 0.25281 0.11649 0.99862 0.0
C1356 C 0.2486 0.09806 0.96037 0.0
C1357 C 0.22512 0.08571 0.9326 0.0
C1358 C 0.20563 0.09176 0.94493 0.0
H1359 H 0.95579 0.13432 0.91733 0.0
H1360 H 0.95632 0.20388 0.96572 0.0
H1361 H 0.92485 0.17893 0.03428 0.0
H1362 H 0.88859 0.08957 0.94028 0.0
H1363 H 0.89422 0.06444 0.96301 0.0
H1364 H 0.91598 0.08763 0.91734 0.0
H1365 H 0.95439 0.0994 0.97813 0.0
H1366 H 0.93283 0.07622 0.02397 0.0
H1367 H 0.95336 0.10934 0.04292 0.0
H1368 H 0.8915 0.14489 0.09666 0.0
H1369 H 0.86313 0.107 0.15013 0.0
H1370 H 0.88728 0.06078 0.06409 0.0
C1371 C 0.94926 0.14444 0.94199 0.0
C1372 C 0.95849 0.17122 0.93537 0.0
C1373 C 0.94955 0.18348 0.96948 0.0
C1374 C 0.93161 0.16938 1.00857 0.0
C1375 C 0.92293 0.14301 1.01372 0.0
C1376 C 0.93175 0.1308 0.9815 0.0
C1377 C 0.92025 0.10254 0.99565 0.0
C1378 C 0.90378 0.08502 0.95144 0.0
C1379 C 0.94148 0.09654 1.0111 0.0
C1380 C 0.90357 0.1006 0.04119 0.0
C1381 C 0.90502 0.12403 0.05061 0.0
C1382 C 0.89048 0.1266 0.08965 0.0
C1383 C 0.8743 0.1049 0.1198 0.0
C1384 C 0.87301 0.08086 0.11176 0.0
C1385 C 0.88799 0.07889 0.07178 0.0
H1386 H 0.83478 0.40554 0.95991 0.0
H1387 H 0.90362 0.3996 0.94164 0.0
H1388 H 0.91858 0.43273 0.87289 0.0
H1389 H 0.82408 0.41013 0.82977 0.0
H1390 H 0.81205 0.43201 0.83967 0.0
H1391 H 0.80869 0.40984 0.88935 0.0
H1392 H 0.83235 0.44796 0.95288 0.0
H1393 H 0.83592 0.4703 0.90319 0.0
H1394 H 0.86393 0.47422 0.9369 0.0
H1395 H 0.92383 0.46565 0.79923 0.0
H1396 H 0.91752 0.49126 0.73151 0.0
H1397 H 0.8453 0.47427 0.8025 0.0
C1398 C 0.8532 0.41122 0.9421 0.0
C1399 C 0.86796 0.39972 0.95666 0.0
C1400 C 0.89192 0.40806 0.93169 0.0
C1401 C 0.90056 0.42692 0.89246 0.0
C1402 C 0.88517 0.43752 0.87874 0.0
C1403 C 0.86198 0.42982 0.90335 0.0
C1404 C 0.84797 0.44266 0.88083 0.0
C1405 C 0.82166 0.42246 0.85858 0.0
C1406 C 0.84488 0.4598 0.92084 0.0
C1407 C 0.86657 0.45865 0.83896 0.0
C1408 C 0.8881 0.4558 0.83806 0.0
C1409 C 0.9071 0.46808 0.80029 0.0
C1410 C 0.90352 0.48282 0.76209 0.0
C1411 C 0.881 0.485 0.76162 0.0
C1412 C 0.86284 0.47321 0.80166 0.0
H1413 H 0.5923 0.40956 0.76966 0.0
H1414 H 0.54095 0.44072 0.75498 0.0
H1415 H 0.5652 0.47192 0.82532 0.0
H1416 H 0.59951 0.41361 0.9041 0.0
H1417 H 0.63285 0.42186 0.90076 0.0
H1418 H 0.61076 0.40254 0.8511 0.0
H1419 H 0.64074 0.43538 0.78292 0.0
H1420 H 0.66286 0.45493 0.83241 0.0
H1421 H 0.64973 0.46881 0.78912 0.0
H1422 H 0.59814 0.50084 0.90049 0.0
H1423 H 0.63238 0.52093 0.96742 0.0
H1424 H 0.66013 0.46917 0.92415 0.0
C1425 C 0.58574 0.42275 0.78066 0.0
C1426 C 0.56448 0.42246 0.75612 0.0
C1427 C 0.55705 0.44036 0.77293 0.0
C1428 C 0.57084 0.45822 0.81283 0.0
C1429 C 0.59204 0.458 0.83536 0.0
C1430 C 0.59917 0.44048 0.81933 0.0
C1431 C 0.6225 0.44355 0.84766 0.0
C1432 C 0.616 0.41894 0.87768 0.0
C1433 C 0.64529 0.45112 0.81084 0.0
C1434 C 0.6276 0.46546 0.88309 0.0
C1435 C 0.61014 0.4739 0.87604 0.0
C1436 C 0.61176 0.49417 0.90586 0.0
C1437 C 0.63135 0.50559 0.94374 0.0
C1438 C 0.64901 0.49664 0.95161 0.0
C1439 C 0.64698 0.47652 0.92001 0.0
H1440 H 0.62051 0.20592 0.75105 0.0
H1441 H 0.60511 0.12719 0.76202 0.0
H1442 H 0.5744 0.11967 0.83356 0.0
H1443 H 0.62202 0.21761 0.88255 0.0
H1444 H 0.60801 0.23796 0.8758 0.0
H1445 H 0.62665 0.23552 0.82434 0.0
H1446 H 0.58808 0.22178 0.76234 0.0
H1447 H 0.56925 0.2241 0.8137 0.0
H1448 H 0.55712 0.19446 0.77809 0.0
H1449 H 0.54535 0.12285 0.90883 0.0
H1450 H 0.52522 0.1366 0.97641 0.0
H1451 H 0.56287 0.21337 0.91175 0.0
C1452 C 0.61078 0.18684 0.76776 0.0
C1453 C 0.61551 0.16714 0.7503 0.0
C1454 C 0.60194 0.14266 0.77423 0.0
C1455 C 0.58443 0.13827 0.81498 0.0
C1456 C 0.58067 0.15852 0.83131 0.0
C1457 C 0.59372 0.18231 0.80793 0.0
C1458 C 0.58796 0.20172 0.83255 0.0
C1459 C 0.61262 0.22453 0.85515 0.0
C1460 C 0.57482 0.21105 0.7944 0.0
C1461 C 0.56959 0.18542 0.87414 0.0
C1462 C 0.56518 0.16044 0.87318 0.0
C1463 C 0.54883 0.14239 0.90942 0.0
C1464 C 0.53734 0.1503 0.9476 0.0
C1465 C 0.54254 0.17612 0.94969 0.0
C1466 C 0.55857 0.19353 0.91171 0.0
H1467 H 0.72401 0.52245 0.29442 0.0
H1468 H 0.76636 0.59868 0.22728 0.0
H1469 H 0.80356 0.6089 0.28337 0.0
H1470 H 0.74657 0.54296 0.42318 0.0
H1471 H 0.74829 0.51463 0.439 0.0
H1472 H 0.72527 0.51266 0.39227 0.0
H1473 H 0.74363 0.49429 0.32519 0.0
H1474 H 0.76645 0.49572 0.37185 0.0
H1475 H 0.77767 0.51163 0.311 0.0
H1476 H 0.83734 0.61024 0.34649 0.0
H1477 H 0.86246 0.60335 0.41406 0.0
H1478 H 0.79691 0.52739 0.44246 0.0
C1479 C 0.74114 0.54126 0.29128 0.0
C1480 C 0.74218 0.55969 0.25598 0.0
C1481 C 0.76495 0.5842 0.25388 0.0
C1482 C 0.78628 0.59018 0.28557 0.0
C1483 C 0.78462 0.5716 0.31992 0.0
C1484 C 0.76247 0.54771 0.32327 0.0
C1485 C 0.76518 0.53147 0.36464 0.0
C1486 C 0.74514 0.52506 0.40729 0.0
C1487 C 0.76312 0.50682 0.34179 0.0
C1488 C 0.79232 0.5498 0.38371 0.0
C1489 C 0.8034 0.5728 0.35729 0.0
C1490 C 0.82869 0.59233 0.36764 0.0
C1491 C 0.84288 0.58827 0.40607 0.0
C1492 C 0.83166 0.56499 0.43431 0.0
C1493 C 0.80602 0.54562 0.42247 0.0
H1494 H 0.5187 0.30059 0.43154 0.0
H1495 H 0.44061 0.28602 0.41105 0.0
H1496 H 0.43308 0.25279 0.34546 0.0
H1497 H 0.5306 0.29402 0.29791 0.0
H1498 H 0.54985 0.27938 0.312 0.0
H1499 H 0.54868 0.30167 0.35682 0.0
H1500 H 0.53402 0.2673 0.42833 0.0
H1501 H 0.53503 0.24485 0.38377 0.0
H1502 H 0.50577 0.23615 0.41851 0.0
H1503 H 0.43398 0.21917 0.2844 0.0
H1504 H 0.44386 0.1914 0.22988 0.0
H1505 H 0.52227 0.2301 0.28802 0.0
C1506 C 0.49991 0.29044 0.41344 0.0
C1507 C 0.4801 0.29582 0.4271 0.0
C1508 C 0.45606 0.28228 0.40153 0.0
C1509 C 0.45163 0.26332 0.36429 0.0
C1510 C 0.47156 0.25835 0.35235 0.0
C1511 C 0.49536 0.27186 0.37585 0.0
C1512 C 0.51389 0.26349 0.35584 0.0
C1513 C 0.53712 0.28598 0.32905 0.0
C1514 C 0.52268 0.25228 0.39919 0.0
C1515 C 0.49678 0.2428 0.31769 0.0
C1516 C 0.47238 0.23998 0.31638 0.0
C1517 C 0.4531 0.22147 0.28501 0.0
C1518 C 0.45889 0.20567 0.2542 0.0
C1519 C 0.4839 0.20849 0.25422 0.0
C1520 C 0.50302 0.22747 0.28656 0.0
H1521 H 0.74281 0.24395 0.43297 0.0
H1522 H 0.75881 0.18137 0.41467 0.0
H1523 H 0.79182 0.20696 0.34878 0.0
H1524 H 0.74862 0.26085 0.29858 0.0
H1525 H 0.76263 0.29481 0.31137 0.0
H1526 H 0.74078 0.2716 0.3569 0.0
H1527 H 0.77537 0.29265 0.42817 0.0
H1528 H 0.79717 0.31599 0.38287 0.0
H1529 H 0.8069 0.2965 0.41834 0.0
H1530 H 0.82553 0.24175 0.28767 0.0
H1531 H 0.8528 0.27933 0.23259 0.0
H1532 H 0.812 0.31741 0.28775 0.0
C1533 C 0.75325 0.23554 0.41526 0.0
C1534 C 0.74837 0.21067 0.42968 0.0
C1535 C 0.76219 0.20033 0.40457 0.0
C1536 C 0.78104 0.21482 0.36717 0.0
C1537 C 0.78555 0.23945 0.35446 0.0
C1538 C 0.77165 0.24946 0.37737 0.0
C1539 C 0.77939 0.27598 0.35634 0.0
C1540 C 0.75649 0.27578 0.32918 0.0
C1541 C 0.79036 0.29649 0.39896 0.0
C1542 C 0.80018 0.27969 0.31843 0.0
C1543 C 0.80369 0.25856 0.31809 0.0
C1544 C 0.82265 0.25819 0.28744 0.0
C1545 C 0.83816 0.27974 0.25632 0.0
C1546 C 0.83457 0.30141 0.2553 0.0
C1547 C 0.81518 0.30114 0.28696 0.0
H1548 H 0.54362 0.31711 0.7563 0.0
H1549 H 0.4672 0.30808 0.74658 0.0
H1550 H 0.45234 0.27478 0.81521 0.0
H1551 H 0.52531 0.25153 0.77697 0.0
H1552 H 0.55159 0.25965 0.82071 0.0
H1553 H 0.55501 0.2818 0.77083 0.0
H1554 H 0.56652 0.31774 0.83857 0.0
H1555 H 0.5633 0.29573 0.88856 0.0
H1556 H 0.54478 0.31189 0.89119 0.0
H1557 H 0.44735 0.24191 0.89101 0.0
H1558 H 0.45375 0.21713 0.96067 0.0
H1559 H 0.53329 0.24906 0.91244 0.0
C1560 C 0.52359 0.30818 0.76785 0.0
C1561 C 0.50662 0.31538 0.74528 0.0
C1562 C 0.4807 0.30303 0.76287 0.0
C1563 C 0.47209 0.28401 0.80192 0.0
C1564 C 0.4896 0.27748 0.82313 0.0
C1565 C 0.51486 0.28947 0.80621 0.0
C1566 C 0.53067 0.28036 0.83501 0.0
C1567 C 0.54125 0.26757 0.79871 0.0
C1568 C 0.5526 0.30275 0.8651 0.0
C1569 C 0.51046 0.26094 0.87065 0.0
C1570 C 0.4868 0.25935 0.8642 0.0
C1571 C 0.46588 0.24312 0.89575 0.0
C1572 C 0.46958 0.2289 0.93513 0.0
C1573 C 0.49403 0.23101 0.94264 0.0
C1574 C 0.51426 0.24684 0.90859 0.0
H1575 H 0.80142 0.3164 0.9001 0.0
H1576 H 0.81982 0.26221 0.97045 0.0
H1577 H 0.79389 0.22979 0.90344 0.0
H1578 H 0.73742 0.27317 0.8731 0.0
H1579 H 0.73689 0.28788 0.81333 0.0
H1580 H 0.75926 0.30705 0.86271 0.0
H1581 H 0.79726 0.32128 0.79934 0.0
H1582 H 0.77506 0.30211 0.74954 0.0
H1583 H 0.80149 0.29723 0.76619 0.0
H1584 H 0.76057 0.20141 0.8303 0.0
H1585 H 0.72738 0.18272 0.76134 0.0
H1586 H 0.73272 0.25715 0.74275 0.0
C1587 C 0.80056 0.29791 0.90095 0.0
C1588 C 0.81285 0.29198 0.94063 0.0
C1589 C 0.81097 0.26744 0.94016 0.0
C1590 C 0.79606 0.24883 0.90235 0.0
C1591 C 0.78336 0.25511 0.86482 0.0
C1592 C 0.78596 0.27938 0.86378 0.0
C1593 C 0.76976 0.28157 0.82179 0.0
C1594 C 0.74965 0.28777 0.84409 0.0
C1595 C 0.78692 0.30174 0.78186 0.0
C1596 C 0.75702 0.25461 0.79964 0.0
C1597 C 0.76497 0.23941 0.82433 0.0
C1598 C 0.75456 0.21341 0.81067 0.0
C1599 C 0.73565 0.20288 0.77133 0.0
C1600 C 0.72714 0.21824 0.74613 0.0
C1601 C 0.73846 0.24453 0.76072 0.0
H1602 H 0.73046 0.51064 0.907 0.0
H1603 H 0.78289 0.58545 0.97245 0.0
H1604 H 0.81476 0.59268 0.90368 0.0
H1605 H 0.77614 0.49311 0.87902 0.0
H1606 H 0.76079 0.47622 0.82074 0.0
H1607 H 0.74176 0.47891 0.87106 0.0
H1608 H 0.72406 0.49966 0.80795 0.0
H1609 H 0.74286 0.49679 0.75719 0.0
H1610 H 0.74631 0.52775 0.772 0.0
H1611 H 0.84289 0.58849 0.8293 0.0
H1612 H 0.86173 0.57452 0.75974 0.0
H1613 H 0.7891 0.50262 0.74732 0.0
C1614 C 0.74846 0.52883 0.90657 0.0
C1615 C 0.75414 0.54748 0.94528 0.0
C1616 C 0.77795 0.57097 0.94299 0.0
C1617 C 0.79622 0.57511 0.90416 0.0
C1618 C 0.79024 0.55572 0.8676 0.0
C1619 C 0.76662 0.53319 0.86849 0.0
C1620 C 0.76472 0.51452 0.82736 0.0
C1621 C 0.76062 0.48922 0.85097 0.0
C1622 C 0.74322 0.50939 0.78884 0.0
C1623 C 0.7911 0.52969 0.8032 0.0
C1624 C 0.80577 0.55346 0.82634 0.0
C1625 C 0.8313 0.56999 0.81084 0.0
C1626 C 0.84191 0.56191 0.7712 0.0
C1627 C 0.82707 0.53743 0.74758 0.0
C1628 C 0.80125 0.52149 0.764 0.0
H1629 H 0.57548 0.18607 0.2607 0.0
H1630 H 0.51007 0.11031 0.29104 0.0
H1631 H 0.53551 0.10385 0.35866 0.0
H1632 H 0.62572 0.17036 0.27966 0.0
H1633 H 0.64726 0.20101 0.30909 0.0
H1634 H 0.62377 0.19846 0.26294 0.0
H1635 H 0.60628 0.21812 0.32969 0.0
H1636 H 0.62937 0.22 0.37618 0.0
H1637 H 0.59543 0.20278 0.39118 0.0
H1638 H 0.56983 0.1055 0.42116 0.0
H1639 H 0.6075 0.11599 0.47609 0.0
H1640 H 0.64928 0.1919 0.40752 0.0
C1641 C 0.56646 0.16797 0.28116 0.0
C1642 C 0.54077 0.14853 0.26979 0.0
C1643 C 0.52967 0.12545 0.29866 0.0
C1644 C 0.54405 0.12163 0.3371 0.0
C1645 C 0.56941 0.14121 0.34688 0.0
C1646 C 0.58036 0.16404 0.3199 0.0
C1647 C 0.60765 0.18245 0.33825 0.0
C1648 C 0.62726 0.18842 0.29492 0.0
C1649 C 0.60979 0.2073 0.36013 0.0
C1650 C 0.61057 0.1665 0.37992 0.0
C1651 C 0.58844 0.14263 0.38396 0.0
C1652 C 0.58707 0.12423 0.41843 0.0
C1653 C 0.60868 0.13036 0.44945 0.0
C1654 C 0.63144 0.15486 0.44663 0.0
C1655 C 0.63216 0.17312 0.41128 0.0
H1656 H 0.85066 0.48323 0.4156 0.0
H1657 H 0.93003 0.52405 0.46831 0.0
H1658 H 0.94 0.49688 0.41213 0.0
H1659 H 0.84421 0.42021 0.40485 0.0
H1660 H 0.82492 0.41176 0.34747 0.0
H1661 H 0.82396 0.43394 0.39286 0.0
H1662 H 0.83641 0.46794 0.32108 0.0
H1663 H 0.83735 0.44583 0.27551 0.0
H1664 H 0.86517 0.47741 0.28392 0.0
H1665 H 0.94093 0.46366 0.35044 0.0
H1666 H 0.93327 0.43037 0.28503 0.0
H1667 H 0.85412 0.41335 0.26978 0.0
C1668 C 0.87014 0.48646 0.41551 0.0
C1669 C 0.88951 0.50585 0.44684 0.0
C1670 C 0.9148 0.50944 0.44485 0.0
C1671 C 0.92065 0.49399 0.41306 0.0
C1672 C 0.90112 0.47507 0.38276 0.0
C1673 C 0.87642 0.47146 0.38339 0.0
C1674 C 0.85906 0.45037 0.34609 0.0
C1675 C 0.83672 0.42773 0.37452 0.0
C1676 C 0.84891 0.46103 0.30417 0.0
C1677 C 0.87782 0.44273 0.32426 0.0
C1678 C 0.90193 0.4569 0.34624 0.0
C1679 C 0.92213 0.45262 0.33278 0.0
C1680 C 0.91763 0.43361 0.29564 0.0
C1681 C 0.89322 0.41935 0.27162 0.0
C1682 C 0.87316 0.42408 0.28667 0.0
H1683 H 0.56342 0.39862 0.41534 0.0
H1684 H 0.52125 0.43565 0.4684 0.0
H1685 H 0.54855 0.47344 0.41388 0.0
H1686 H 0.62642 0.45593 0.40658 0.0
H1687 H 0.63504 0.44532 0.34903 0.0
H1688 H 0.61296 0.42199 0.39412 0.0
H1689 H 0.57911 0.40027 0.32196 0.0
H1690 H 0.60096 0.42358 0.2767 0.0
H1691 H 0.56919 0.41928 0.28532 0.0
H1692 H 0.58219 0.50847 0.35242 0.0
H1693 H 0.6151 0.53405 0.28621 0.0
H1694 H 0.63275 0.47243 0.27141 0.0
C1695 C 0.55995 0.4147 0.41584 0.0
C1696 C 0.54012 0.41403 0.44669 0.0
C1697 C 0.53622 0.43552 0.44531 0.0
C1698 C 0.55176 0.4572 0.41449 0.0
C1699 C 0.57112 0.45721 0.38457 0.0
C1700 C 0.57503 0.43632 0.38478 0.0
C1701 C 0.59624 0.4404 0.34763 0.0
C1702 C 0.61901 0.44095 0.37604 0.0
C1703 C 0.58574 0.41965 0.30541 0.0
C1704 C 0.60363 0.46675 0.32627 0.0
C1705 C 0.5893 0.47646 0.34836 0.0
C1706 C 0.59335 0.50085 0.33476 0.0
C1707 C 0.61216 0.51536 0.2972 0.0
C1708 C 0.62639 0.50526 0.27291 0.0
C1709 C 0.62203 0.4807 0.28847 0.0
H1710 H 0.4959 0.71155 0.24397 0.0
H1711 H 0.57309 0.75115 0.30771 0.0
H1712 H 0.58635 0.78489 0.2403 0.0
H1713 H 0.51384 0.72433 0.11081 0.0
H1714 H 0.48639 0.72782 0.0956 0.0
H1715 H 0.48442 0.70699 0.14707 0.0
H1716 H 0.47101 0.7319 0.20956 0.0
H1717 H 0.473 0.75288 0.15847 0.0
H1718 H 0.49137 0.76629 0.21631 0.0
H1719 H 0.58917 0.81655 0.1648 0.0
H1720 H 0.58138 0.83937 0.09325 0.0
H1721 H 0.50231 0.77633 0.08382 0.0
C1722 C 0.51573 0.72719 0.24393 0.0
C1723 C 0.53339 0.7287 0.28158 0.0
C1724 C 0.55918 0.74946 0.27926 0.0
C1725 C 0.56681 0.76877 0.24114 0.0
C1726 C 0.54852 0.76688 0.20523 0.0
C1727 C 0.52355 0.74627 0.20648 0.0
C1728 C 0.50695 0.7482 0.16529 0.0
C1729 C 0.49735 0.7255 0.12745 0.0
C1730 C 0.48426 0.74993 0.18883 0.0
C1731 C 0.52621 0.7733 0.14047 0.0
C1732 C 0.55018 0.78411 0.16342 0.0
C1733 C 0.57043 0.80796 0.14662 0.0
C1734 C 0.56588 0.82085 0.10585 0.0
C1735 C 0.54123 0.80991 0.0824 0.0
C1736 C 0.52148 0.78565 0.1003 0.0
H1737 H 0.3032 0.78798 0.29865 0.0
H1738 H 0.31402 0.8644 0.27538 0.0
H1739 H 0.28132 0.84701 0.20562 0.0
H1740 H 0.29902 0.77108 0.16994 0.0
H1741 H 0.27542 0.73765 0.18008 0.0
H1742 H 0.29742 0.75602 0.23057 0.0
H1743 H 0.2588 0.74415 0.29111 0.0
H1744 H 0.23663 0.72595 0.24054 0.0
H1745 H 0.2341 0.75132 0.27235 0.0
H1746 H 0.24887 0.82022 0.13148 0.0
H1747 H 0.22336 0.7887 0.06285 0.0
H1748 H 0.23501 0.7311 0.13849 0.0
C1749 C 0.29864 0.80121 0.27952 0.0
C1750 C 0.31139 0.82771 0.29284 0.0
C1751 C 0.30454 0.84405 0.26631 0.0
C1752 C 0.28594 0.83428 0.22655 0.0
C1753 C 0.2741 0.80805 0.21397 0.0
C1754 C 0.28027 0.79184 0.24019 0.0
C1755 C 0.26637 0.76482 0.21832 0.0
C1756 C 0.28571 0.75695 0.19855 0.0
C1757 C 0.24788 0.74543 0.25796 0.0
C1758 C 0.25169 0.76822 0.17479 0.0
C1759 C 0.25599 0.79311 0.17274 0.0
C1760 C 0.24524 0.80065 0.1334 0.0
C1761 C 0.23055 0.78257 0.09471 0.0
C1762 C 0.22697 0.75735 0.09541 0.0
C1763 C 0.23717 0.75016 0.13696 0.0
H1764 H 0.31411 0.54057 0.12913 0.0
H1765 H 0.26201 0.46486 0.0669 0.0
H1766 H 0.23003 0.45837 0.13484 0.0
H1767 H 0.29837 0.52478 0.26443 0.0
H1768 H 0.30163 0.55578 0.27801 0.0
H1769 H 0.32041 0.5526 0.22759 0.0
H1770 H 0.30234 0.57255 0.16341 0.0
H1771 H 0.28333 0.57553 0.21344 0.0
H1772 H 0.26792 0.55807 0.15568 0.0
H1773 H 0.20174 0.4631 0.20857 0.0
H1774 H 0.18301 0.47723 0.27809 0.0
H1775 H 0.25537 0.54952 0.28844 0.0
C1776 C 0.29616 0.52235 0.13005 0.0
C1777 C 0.29072 0.5032 0.09242 0.0
C1778 C 0.26688 0.47973 0.09546 0.0
C1779 C 0.24851 0.476 0.13384 0.0
C1780 C 0.25431 0.49579 0.16937 0.0
C1781 C 0.27788 0.51836 0.16782 0.0
C1782 C 0.27968 0.53732 0.20832 0.0
C1783 C 0.3013 0.54294 0.24687 0.0
C1784 C 0.28353 0.56233 0.18373 0.0
C1785 C 0.25334 0.52224 0.23292 0.0
C1786 C 0.23875 0.4983 0.21042 0.0
C1787 C 0.2133 0.48175 0.22651 0.0
C1788 C 0.20274 0.48993 0.26614 0.0
C1789 C 0.21753 0.5145 0.2895 0.0
C1790 C 0.24325 0.53052 0.27227 0.0
H1791 H 0.38505 0.86286 0.64536 0.0
H1792 H 0.43423 0.91804 0.53126 0.0
H1793 H 0.47283 0.92694 0.58188 0.0
H1794 H 0.42381 0.90147 0.75427 0.0
H1795 H 0.41762 0.87369 0.79156 0.0
H1796 H 0.39409 0.87144 0.74574 0.0
H1797 H 0.39495 0.83317 0.70136 0.0
H1798 H 0.4184 0.83536 0.74719 0.0
H1799 H 0.42528 0.83703 0.67961 0.0
H1800 H 0.50677 0.92859 0.64521 0.0
H1801 H 0.53185 0.92396 0.71596 0.0
H1802 H 0.46004 0.86989 0.79059 0.0
C1803 C 0.40397 0.87674 0.63099 0.0
C1804 C 0.4066 0.88961 0.58402 0.0
C1805 C 0.4317 0.90798 0.56709 0.0
C1806 C 0.45377 0.91313 0.59561 0.0
C1807 C 0.45056 0.90021 0.64186 0.0
C1808 C 0.4262 0.88263 0.65974 0.0
C1809 C 0.4279 0.87213 0.71158 0.0
C1810 C 0.4151 0.88016 0.75324 0.0
C1811 C 0.41594 0.84268 0.70978 0.0
C1812 C 0.45696 0.88569 0.71907 0.0
C1813 C 0.4698 0.90194 0.67871 0.0
C1814 C 0.49681 0.91605 0.67718 0.0
C1815 C 0.51097 0.91336 0.71766 0.0
C1816 C 0.49817 0.89669 0.75937 0.0
C1817 C 0.47072 0.88295 0.75972 0.0
H1818 H 0.19046 0.56551 0.62526 0.0
H1819 H 0.11409 0.53042 0.55777 0.0
H1820 H 0.10362 0.55765 0.61271 0.0
H1821 H 0.16991 0.56834 0.7536 0.0
H1822 H 0.19823 0.59862 0.7689 0.0
H1823 H 0.20021 0.57731 0.72277 0.0
H1824 H 0.21836 0.61366 0.65514 0.0
H1825 H 0.21673 0.63523 0.70119 0.0
H1826 H 0.20073 0.62994 0.6402 0.0
H1827 H 0.10201 0.59055 0.67529 0.0
H1828 H 0.10857 0.62259 0.74295 0.0
H1829 H 0.18482 0.63374 0.77206 0.0
C1830 C 0.17155 0.5636 0.62179 0.0
C1831 C 0.15318 0.54579 0.58666 0.0
C1832 C 0.12855 0.54381 0.58419 0.0
C1833 C 0.12243 0.55932 0.61524 0.0
C1834 C 0.14097 0.57666 0.64942 0.0
C1835 C 0.16496 0.57863 0.65318 0.0
C1836 C 0.18113 0.59795 0.69436 0.0
C1837 C 0.18775 0.58476 0.73745 0.0
C1838 C 0.20569 0.62053 0.67133 0.0
C1839 C 0.16263 0.60665 0.71296 0.0
C1840 C 0.13962 0.59443 0.68638 0.0
C1841 C 0.11994 0.60004 0.69652 0.0
C1842 C 0.12381 0.61833 0.73499 0.0
C1843 C 0.14705 0.63059 0.76357 0.0
C1844 C 0.16661 0.62455 0.75175 0.0
H1845 H 0.43007 0.58196 0.79405 0.0
H1846 H 0.40817 0.50927 0.71841 0.0
H1847 H 0.43799 0.53324 0.64699 0.0
H1848 H 0.43252 0.61711 0.68566 0.0
H1849 H 0.46015 0.64684 0.70639 0.0
H1850 H 0.43908 0.62391 0.75305 0.0
H1851 H 0.47775 0.62262 0.7938 0.0
H1852 H 0.49909 0.64571 0.74746 0.0
H1853 H 0.49796 0.61525 0.75438 0.0
H1854 H 0.47048 0.56641 0.58214 0.0
H1855 H 0.49996 0.60454 0.52996 0.0
H1856 H 0.49768 0.65491 0.64644 0.0
C1857 C 0.4316 0.57085 0.76286 0.0
C1858 C 0.41664 0.54349 0.76236 0.0
C1859 C 0.41946 0.5301 0.72028 0.0
C1860 C 0.43637 0.54363 0.67941 0.0
C1861 C 0.45045 0.57061 0.68101 0.0
C1862 C 0.4482 0.58399 0.72192 0.0
C1863 C 0.46466 0.61293 0.71426 0.0
C1864 C 0.4481 0.62594 0.71484 0.0
C1865 C 0.48613 0.62483 0.75489 0.0
C1866 C 0.47581 0.61395 0.66155 0.0
C1867 C 0.46799 0.58938 0.64345 0.0
C1868 C 0.4766 0.58564 0.59616 0.0
C1869 C 0.49341 0.6074 0.56677 0.0
C1870 C 0.50101 0.63266 0.58398 0.0
C1871 C 0.49201 0.63583 0.63206 0.0
H1872 H 0.20614 0.67567 0.13655 0.0
H1873 H 0.13803 0.62741 0.04622 0.0
H1874 H 0.12371 0.59285 0.11197 0.0
H1875 H 0.21921 0.62849 0.17579 0.0
H1876 H 0.22978 0.64136 0.23922 0.0
H1877 H 0.23278 0.6625 0.1877 0.0
H1878 H 0.2063 0.6784 0.23866 0.0
H1879 H 0.20334 0.65759 0.29101 0.0
H1880 H 0.17485 0.65537 0.26275 0.0
H1881 H 0.12033 0.56126 0.18668 0.0
H1882 H 0.1276 0.53895 0.25995 0.0
H1883 H 0.19637 0.61071 0.30009 0.0
C1884 C 0.18795 0.65799 0.13095 0.0
C1885 C 0.17321 0.6542 0.08629 0.0
C1886 C 0.14952 0.6308 0.08043 0.0
C1887 C 0.14133 0.61105 0.11754 0.0
C1888 C 0.15677 0.61523 0.1608 0.0
C1889 C 0.17938 0.63848 0.16775 0.0
C1890 C 0.1932 0.63852 0.21607 0.0
C1891 C 0.22033 0.64297 0.20395 0.0
C1892 C 0.19449 0.65866 0.2544 0.0
C1893 C 0.17542 0.61141 0.23481 0.0
C1894 C 0.1544 0.59799 0.203 0.0
C1895 C 0.13658 0.57188 0.21208 0.0
C1896 C 0.14075 0.55931 0.25394 0.0
C1897 C 0.16261 0.57288 0.286 0.0
C1898 C 0.17951 0.59944 0.27652 0.0
H1899 H 0.40515 0.59414 0.06911 0.0
H1900 H 0.39801 0.519 0.08898 0.0
H1901 H 0.43115 0.53717 0.15784 0.0
H1902 H 0.47427 0.63327 0.09398 0.0
H1903 H 0.47055 0.65759 0.12725 0.0
H1904 H 0.44846 0.63905 0.07677 0.0
H1905 H 0.40984 0.62503 0.13863 0.0
H1906 H 0.43175 0.64369 0.18902 0.0
H1907 H 0.40937 0.60986 0.19846 0.0
H1908 H 0.46361 0.5644 0.23137 0.0
H1909 H 0.4886 0.59586 0.30043 0.0
H1910 H 0.47303 0.65183 0.22913 0.0
C1911 C 0.41064 0.58136 0.08723 0.0
C1912 C 0.3988 0.555 0.0732 0.0
C1913 C 0.40679 0.53926 0.09856 0.0
C1914 C 0.42565 0.54947 0.1378 0.0
C1915 C 0.43656 0.57553 0.15109 0.0
C1916 C 0.42924 0.59117 0.12609 0.0
C1917 C 0.44221 0.61803 0.1488 0.0
C1918 C 0.45992 0.63817 0.10934 0.0
C1919 C 0.42209 0.62451 0.16999 0.0
C1920 C 0.45768 0.61516 0.19141 0.0
C1921 C 0.4546 0.5907 0.1922 0.0
C1922 C 0.46628 0.58363 0.23047 0.0
C1923 C 0.48065 0.60168 0.26941 0.0
C1924 C 0.48295 0.62638 0.27009 0.0
C1925 C 0.47182 0.63317 0.2296 0.0
H1926 H 0.47668 0.83302 0.12526 0.0
H1927 H 0.51105 0.90921 0.05857 0.0
H1928 H 0.49074 0.92228 0.12703 0.0
H1929 H 0.4172 0.82628 0.15387 0.0
H1930 H 0.41296 0.80884 0.21257 0.0
H1931 H 0.43254 0.8072 0.16213 0.0
H1932 H 0.47118 0.82295 0.22471 0.0
H1933 H 0.4516 0.8244 0.27557 0.0
H1934 H 0.48196 0.85253 0.25988 0.0
H1935 H 0.46174 0.92466 0.20266 0.0
H1936 H 0.43021 0.91619 0.27301 0.0
H1937 H 0.41675 0.83826 0.28507 0.0
C1938 C 0.48038 0.85266 0.12531 0.0
C1939 C 0.4955 0.87008 0.08641 0.0
C1940 C 0.49978 0.89557 0.08821 0.0
C1941 C 0.48816 0.90307 0.12689 0.0
C1942 C 0.47259 0.88495 0.16384 0.0
C1943 C 0.46915 0.86033 0.1633 0.0
C1944 C 0.45089 0.84369 0.20489 0.0
C1945 C 0.42699 0.82013 0.18198 0.0
C1946 C 0.46474 0.83542 0.24355 0.0
C1947 C 0.44394 0.86241 0.2287 0.0
C1948 C 0.45657 0.88625 0.20532 0.0
C1949 C 0.45201 0.90603 0.22115 0.0
C1950 C 0.43406 0.90111 0.26123 0.0
C1951 C 0.42066 0.87649 0.28463 0.0
C1952 C 0.42624 0.85728 0.26806 0.0
H1953 H 0.32049 0.51988 0.72793 0.0
H1954 H 0.27135 0.45432 0.82336 0.0
H1955 H 0.23367 0.44542 0.76944 0.0
H1956 H 0.27616 0.5415 0.70205 0.0
H1957 H 0.28566 0.54958 0.63613 0.0
H1958 H 0.30848 0.55062 0.68221 0.0
H1959 H 0.31604 0.51924 0.62642 0.0
H1960 H 0.29335 0.51826 0.57993 0.0
H1961 H 0.28887 0.48876 0.6075 0.0
H1962 H 0.2004 0.44526 0.70552 0.0
H1963 H 0.17625 0.45222 0.63606 0.0
H1964 H 0.24814 0.51593 0.57994 0.0
C1965 C 0.30179 0.50363 0.73747 0.0
C1966 C 0.29889 0.48788 0.7802 0.0
C1967 C 0.27412 0.4666 0.79081 0.0
C1968 C 0.25256 0.46146 0.7604 0.0
C1969 C 0.25606 0.4774 0.71859 0.0
C1970 C 0.28022 0.49783 0.70672 0.0
C1971 C 0.27912 0.51162 0.65893 0.0
C1972 C 0.28786 0.54 0.67055 0.0
C1973 C 0.29531 0.50933 0.61564 0.0
C1974 C 0.2505 0.49629 0.64651 0.0
C1975 C 0.2374 0.47662 0.68123 0.0
C1976 C 0.21062 0.46047 0.67787 0.0
C1977 C 0.197 0.46454 0.63817 0.0
C1978 C 0.21011 0.48452 0.60187 0.0
C1979 C 0.23731 0.50036 0.60647 0.0
H1980 H 0.51689 0.81468 0.74456 0.0
H1981 H 0.59484 0.85319 0.80494 0.0
H1982 H 0.60509 0.82548 0.75092 0.0
H1983 H 0.50853 0.75075 0.73447 0.0
H1984 H 0.49084 0.74343 0.67512 0.0
H1985 H 0.48952 0.76563 0.71996 0.0
H1986 H 0.50492 0.80046 0.64919 0.0
H1987 H 0.50621 0.77832 0.60416 0.0
H1988 H 0.53443 0.80935 0.61518 0.0
H1989 H 0.60639 0.79189 0.68962 0.0
H1990 H 0.59933 0.7591 0.62331 0.0
H1991 H 0.52147 0.74484 0.60078 0.0
C1992 C 0.5361 0.81726 0.74669 0.0
C1993 C 0.55499 0.83618 0.77952 0.0
C1994 C 0.57997 0.83895 0.78029 0.0
C1995 C 0.58597 0.82318 0.74976 0.0
C1996 C 0.56692 0.80474 0.71786 0.0
C1997 C 0.54254 0.80195 0.71584 0.0
C1998 C 0.52576 0.78146 0.67701 0.0
C1999 C 0.50228 0.75899 0.70322 0.0
C2000 C 0.51734 0.7931 0.63383 0.0
C2001 C 0.54441 0.77317 0.65744 0.0
C2002 C 0.56801 0.7865 0.68174 0.0
C2003 C 0.58799 0.78152 0.6702 0.0
C2004 C 0.58382 0.76278 0.63253 0.0
C2005 C 0.55999 0.74947 0.6061 0.0
C2006 C 0.54011 0.75481 0.61948 0.0
H2007 H 0.22825 0.73125 0.74887 0.0
H2008 H 0.19134 0.77108 0.81493 0.0
H2009 H 0.21891 0.8093 0.76179 0.0
H2010 H 0.29264 0.78664 0.73777 0.0
H2011 H 0.29893 0.77632 0.67724 0.0
H2012 H 0.27725 0.75278 0.72252 0.0
H2013 H 0.24129 0.73371 0.65357 0.0
H2014 H 0.2629 0.75711 0.60814 0.0
H2015 H 0.23217 0.75457 0.62152 0.0
H2016 H 0.25183 0.84416 0.7002 0.0
H2017 H 0.28332 0.86957 0.63168 0.0
H2018 H 0.29614 0.80549 0.60405 0.0
C2019 C 0.22605 0.74805 0.75251 0.0
C2020 C 0.20762 0.74808 0.7865 0.0
C2021 C 0.20525 0.77046 0.78929 0.0
C2022 C 0.22094 0.79237 0.75933 0.0
C2023 C 0.23888 0.79168 0.72616 0.0
C2024 C 0.24128 0.76993 0.72233 0.0
C2025 C 0.26106 0.77349 0.68212 0.0
C2026 C 0.28382 0.77224 0.70638 0.0
C2027 C 0.2486 0.75354 0.63878 0.0
C2028 C 0.26928 0.80049 0.6636 0.0
C2029 C 0.25668 0.81098 0.68983 0.0
C2030 C 0.26167 0.83599 0.67931 0.0
C2031 C 0.27964 0.85038 0.64049 0.0
C2032 C 0.29198 0.83949 0.61203 0.0
C2033 C 0.28678 0.81432 0.62452 0.0
H2034 H 0.24187 0.98184 0.64448 0.0
H2035 H 0.29228 0.01665 0.77554 0.0
H2036 H 0.32126 1.00177 0.74249 0.0
H2037 H 0.24757 0.92547 0.63982 0.0
H2038 H 0.24703 0.92336 0.57092 0.0
H2039 H 0.23104 0.93817 0.60281 0.0
H2040 H 0.25766 0.97973 0.54978 0.0
H2041 H 0.2737 0.96502 0.51758 0.0
H2042 H 0.29239 0.9954 0.55023 0.0
H2043 H 0.34428 0.98183 0.6967 0.0
H2044 H 0.35908 0.95788 0.64259 0.0
H2045 H 0.29357 0.93496 0.54171 0.0
C2046 C 0.25921 0.98672 0.66589 0.0
C2047 C 0.26478 1.0007 0.71263 0.0
C2048 C 0.28749 1.00611 0.7397 0.0
C2049 C 0.30415 0.99773 0.72115 0.0
C2050 C 0.29792 0.98377 0.67544 0.0
C2051 C 0.27598 0.97827 0.64813 0.0
C2052 C 0.27321 0.96198 0.60116 0.0
C2053 C 0.24823 0.93569 0.60386 0.0
C2054 C 0.27431 0.9764 0.55176 0.0
C2055 C 0.29692 0.95907 0.60644 0.0
C2056 C 0.31097 0.97193 0.64944 0.0
C2057 C 0.33345 0.97179 0.66286 0.0
C2058 C 0.34174 0.95811 0.6318 0.0
C2059 C 0.32761 0.94456 0.58774 0.0
C2060 C 0.30491 0.9452 0.57495 0.0
H2061 H 0.06276 0.29035 0.64404 0.0
H2062 H 0.03268 0.30831 0.7797 0.0
H2063 H 0.04845 0.35229 0.74713 0.0
H2064 H 0.12051 0.35139 0.63481 0.0
H2065 H 0.12063 0.35257 0.56583 0.0
H2066 H 0.10573 0.32192 0.59806 0.0
H2067 H 0.06295 0.30816 0.55006 0.0
H2068 H 0.07774 0.33875 0.51753 0.0
H2069 H 0.0485 0.32825 0.55368 0.0
H2070 H 0.06874 0.39513 0.70126 0.0
H2071 H 0.09214 0.43339 0.64603 0.0
H2072 H 0.10996 0.38866 0.53996 0.0
C2073 C 0.05914 0.30338 0.66666 0.0
C2074 C 0.04622 0.29552 0.71459 0.0
C2075 C 0.04239 0.31356 0.74299 0.0
C2076 C 0.0513 0.3387 0.72473 0.0
C2077 C 0.06417 0.34585 0.67784 0.0
C2078 C 0.06809 0.32872 0.64909 0.0
C2079 C 0.08325 0.34164 0.60067 0.0
C2080 C 0.10906 0.34189 0.59982 0.0
C2081 C 0.06714 0.32841 0.55264 0.0
C2082 C 0.08744 0.36875 0.60689 0.0
C2083 C 0.07612 0.37066 0.65159 0.0
C2084 C 0.07757 0.39377 0.6661 0.0
C2085 C 0.09093 0.41546 0.63437 0.0
C2086 C 0.10289 0.41417 0.58846 0.0
C2087 C 0.10097 0.39034 0.57464 0.0
H2088 H 0.62918 0.73079 0.64437 0.0
H2089 H 0.65259 0.70632 0.50791 0.0
H2090 H 0.69646 0.72418 0.54332 0.0
H2091 H 0.68776 0.79041 0.66139 0.0
H2092 H 0.6878 0.78887 0.73032 0.0
H2093 H 0.65774 0.77296 0.69577 0.0
H2094 H 0.64628 0.72987 0.73974 0.0
H2095 H 0.67639 0.74565 0.7743 0.0
H2096 H 0.66838 0.71777 0.73532 0.0
H2097 H 0.73848 0.74725 0.58979 0.0
H2098 H 0.77608 0.77366 0.64512 0.0
H2099 H 0.7265 0.7824 0.75461 0.0
C2100 C 0.6435 0.72896 0.62226 0.0
C2101 C 0.63734 0.71703 0.57325 0.0
C2102 C 0.65672 0.71526 0.54545 0.0
C2103 C 0.68174 0.72534 0.56532 0.0
C2104 C 0.68726 0.73708 0.61342 0.0
C2105 C 0.66871 0.73887 0.64177 0.0
C2106 C 0.68016 0.7532 0.69187 0.0
C2107 C 0.67825 0.77782 0.695 0.0
C2108 C 0.66702 0.73556 0.73805 0.0
C2109 C 0.70809 0.75955 0.68677 0.0
C2110 C 0.71162 0.74996 0.64111 0.0
C2111 C 0.73586 0.75451 0.62595 0.0
C2112 C 0.75713 0.76952 0.65769 0.0
C2113 C 0.75422 0.7797 0.70461 0.0
C2114 C 0.72923 0.77429 0.71966 0.0
H2115 H 0.91367 0.32208 0.97515 0.0
H2116 H 0.95522 0.34309 0.11972 0.0
H2117 H 0.98328 0.32703 0.08791 0.0
H2118 H 0.91418 0.26368 0.95589 0.0
H2119 H 0.91914 0.26735 0.88762 0.0
H2120 H 0.90308 0.28195 0.92003 0.0
H2121 H 0.93643 0.3265 0.88347 0.0
H2122 H 0.95255 0.312 0.85075 0.0
H2123 H 0.97036 0.33865 0.89395 0.0
H2124 H 1.0058 0.30679 0.04266 0.0
H2125 H 0.02144 0.28431 0.98648 0.0
H2126 H 0.96597 0.27597 0.87034 0.0
C2127 C 0.92889 0.32366 0.99993 0.0
C2128 C 0.93207 0.33403 0.05018 0.0
C2129 C 0.95219 0.33536 0.08119 0.0
C2130 C 0.96834 0.32625 0.06342 0.0
C2131 C 0.96442 0.31584 1.01426 0.0
C2132 C 0.94531 0.31461 0.98273 0.0
C2133 C 0.94493 0.30187 0.9319 0.0
C2134 C 0.91878 0.27725 0.92339 0.0
C2135 C 0.95146 0.32089 0.88738 0.0
C2136 C 0.96639 0.29564 0.94032 0.0
C2137 C 0.97748 0.3041 0.98801 0.0
C2138 C 0.99737 0.30026 1.0051 0.0
C2139 C 1.00614 0.28744 0.97283 0.0
C2140 C 0.99508 0.27841 0.92383 0.0
C2141 C 0.97495 0.28272 0.90743 0.0
H2142 H 0.70414 0.64524 0.07152 0.0
H2143 H 0.74784 0.61223 1.00572 0.0
H2144 H 0.77197 0.65051 0.95227 0.0
H2145 H 0.69887 0.67403 0.95458 0.0
H2146 H 0.70285 0.70313 0.98356 0.0
H2147 H 0.68937 0.67378 0.02022 0.0
H2148 H 0.72448 0.69676 0.08954 0.0
H2149 H 0.73795 0.72625 0.05329 0.0
H2150 H 0.75802 0.71304 0.07134 0.0
H2151 H 0.7899 0.69008 0.9019 0.0
H2152 H 0.80293 0.73134 0.85955 0.0
H2153 H 0.74954 0.74195 0.9551 0.0
C2154 C 0.71909 0.64637 0.04645 0.0
C2155 C 0.72396 0.6255 0.0429 0.0
C2156 C 0.7435 0.6277 1.00902 0.0
C2157 C 0.75743 0.64946 0.97838 0.0
C2158 C 0.75183 0.66929 0.98152 0.0
C2159 C 0.73335 0.66827 1.01476 0.0
C2160 C 0.73115 0.69248 1.00858 0.0
C2161 C 0.70394 0.68543 0.99068 0.0
C2162 C 0.73833 0.70806 0.05868 0.0
C2163 C 0.75116 0.70691 0.96675 0.0
C2164 C 0.76267 0.6929 0.95194 0.0
C2165 C 0.78117 0.70136 0.91334 0.0
C2166 C 0.78839 0.72487 0.88928 0.0
C2167 C 0.77736 0.74005 0.90371 0.0
C2168 C 0.7584 0.73086 0.94317 0.0
H2169 H 0.32253 0.08288 0.87509 0.0
H2170 H 0.27797 0.0189 0.97778 0.0
H2171 H 0.3162 0.03354 0.03337 0.0
H2172 H 0.38318 0.08252 0.88742 0.0
H2173 H 0.40295 0.11713 0.8855 0.0
H2174 H 0.3723 0.10134 0.85289 0.0
H2175 H 0.35793 0.12928 0.90325 0.0
H2176 H 0.38853 0.14516 0.93594 0.0
H2177 H 0.35898 0.12959 0.97226 0.0
H2178 H 0.35907 0.05599 0.07992 0.0
H2179 H 0.403 0.08421 0.11337 0.0
H2180 H 0.42069 0.13371 0.98052 0.0
C2181 C 0.32088 0.07186 0.9091 0.0
C2182 C 0.29711 0.04961 0.92188 0.0
C2183 C 0.29585 0.0359 0.96695 0.0
C2184 C 0.31753 0.0441 0.99885 0.0
C2185 C 0.34059 0.0661 0.98537 0.0
C2186 C 0.34246 0.07978 0.94148 0.0
C2187 C 0.36949 0.10301 0.93632 0.0
C2188 C 0.38276 0.10086 0.88764 0.0
C2189 C 0.36867 0.12825 0.93699 0.0
C2190 C 0.38242 0.10038 0.98432 0.0
C2191 C 0.36538 0.07891 1.012 0.0
C2192 C 0.37259 0.07277 0.05833 0.0
C2193 C 0.3977 0.089 0.0771 0.0
C2194 C 0.41566 0.11127 0.04974 0.0
C2195 C 0.40774 0.11676 1.00236 0.0
H2196 H 0.78013 0.07817 0.27818 0.0
H2197 H 0.76418 0.01484 0.37978 0.0
H2198 H 0.73795 0.02646 0.4348 0.0
H2199 H 0.78871 0.12238 0.37699 0.0
H2200 H 0.77418 0.13813 0.34336 0.0
H2201 H 0.78913 0.12326 0.30797 0.0
H2202 H 0.74671 0.09544 0.25787 0.0
H2203 H 0.73168 0.11041 0.29281 0.0
H2204 H 0.71717 0.07582 0.29254 0.0
H2205 H 0.71604 0.04637 0.48227 0.0
H2206 H 0.6998 0.07335 0.51948 0.0
H2207 H 0.73055 0.12541 0.39016 0.0
C2208 C 0.77042 0.06634 0.31117 0.0
C2209 C 0.77367 0.04517 0.32411 0.0
C2210 C 0.76157 0.0308 0.36874 0.0
C2211 C 0.74668 0.03732 0.40029 0.0
C2212 C 0.74425 0.05855 0.38727 0.0
C2213 C 0.75574 0.07291 0.3438 0.0
C2214 C 0.75154 0.09596 0.34105 0.0
C2215 C 0.77743 0.12144 0.34243 0.0
C2216 C 0.73584 0.0943 0.29322 0.0
C2217 C 0.73609 0.09235 0.38981 0.0
C2218 C 0.73203 0.07052 0.41559 0.0
C2219 C 0.71895 0.0634 0.4622 0.0
C2220 C 0.7098 0.07892 0.48316 0.0
C2221 C 0.71372 0.10148 0.45787 0.0
C2222 C 0.72703 0.10818 0.41033 0.0
H2223 H 0.97777 0.76006 0.38568 0.0
H2224 H 1.00595 0.74086 0.24888 0.0
H2225 H 0.99101 0.69737 0.28275 0.0
H2226 H 0.99289 0.72315 0.47632 0.0
H2227 H 0.96387 0.71264 0.51324 0.0
H2228 H 0.97812 0.74296 0.47979 0.0
H2229 H 0.93489 0.72838 0.43284 0.0
H2230 H 0.92053 0.69802 0.46607 0.0
H2231 H 0.92011 0.69861 0.39708 0.0
H2232 H 0.97211 0.65526 0.33031 0.0
H2233 H 0.94961 0.61743 0.38689 0.0
H2234 H 0.932 0.66248 0.49255 0.0
C2235 C 0.98114 0.74686 0.36307 0.0
C2236 C 0.99352 0.75434 0.31456 0.0
C2237 C 0.99691 0.73604 0.28615 0.0
C2238 C 0.9884 0.71112 0.30513 0.0
C2239 C 0.97619 0.70439 0.35268 0.0
C2240 C 0.97244 0.72167 0.38127 0.0
C2241 C 0.95774 0.70904 0.43029 0.0
C2242 C 0.97414 0.72277 0.47772 0.0
C2243 C 0.93178 0.70848 0.43163 0.0
C2244 C 0.95379 0.682 0.4247 0.0
C2245 C 0.96475 0.67985 0.3797 0.0
C2246 C 0.96351 0.65678 0.36567 0.0
C2247 C 0.95067 0.63534 0.39816 0.0
C2248 C 0.93903 0.63685 0.44431 0.0
C2249 C 0.94075 0.66065 0.45768 0.0
H2250 H 0.38293 0.29913 0.49139 0.0
H2251 H 0.42801 0.36108 0.38483 0.0
H2252 H 0.38991 0.34576 0.32873 0.0
H2253 H 0.34635 0.25087 0.39727 0.0
H2254 H 0.31667 0.23619 0.43322 0.0
H2255 H 0.34717 0.25243 0.46625 0.0
H2256 H 0.33304 0.28159 0.51265 0.0
H2257 H 0.30248 0.2654 0.47976 0.0
H2258 H 0.3225 0.29992 0.47545 0.0
H2259 H 0.34767 0.32264 0.28176 0.0
H2260 H 0.30406 0.2941 0.24809 0.0
H2261 H 0.28489 0.24723 0.38528 0.0
C2262 C 0.38469 0.30958 0.45644 0.0
C2263 C 0.40856 0.33141 0.44263 0.0
C2264 C 0.41002 0.34441 0.39641 0.0
C2265 C 0.38844 0.33582 0.36421 0.0
C2266 C 0.36531 0.3142 0.37865 0.0
C2267 C 0.36319 0.30128 0.42378 0.0
C2268 C 0.33605 0.27831 0.42967 0.0
C2269 C 0.33661 0.25295 0.43171 0.0
C2270 C 0.32273 0.2815 0.47721 0.0
C2271 C 0.32338 0.2802 0.38059 0.0
C2272 C 0.34068 0.30107 0.35183 0.0
C2273 C 0.3339 0.3064 0.30425 0.0
C2274 C 0.30891 0.28999 0.28541 0.0
C2275 C 0.2906 0.26842 0.31396 0.0
C2276 C 0.29811 0.26368 0.36253 0.0
H2277 H 0.05963 0.78896 0.05094 0.0
H2278 H 0.0407 0.74615 0.19335 0.0
H2279 H 0.05759 0.71929 0.15869 0.0
H2280 H 0.04491 0.73437 0.96519 0.0
H2281 H 0.07169 0.75317 0.923 0.0
H2282 H 0.05665 0.76833 0.95726 0.0
H2283 H 0.1008 0.80149 0.99605 0.0
H2284 H 0.11598 0.78654 0.96169 0.0
H2285 H 0.11938 0.7902 0.03026 0.0
H2286 H 0.07869 0.69866 0.1119 0.0
H2287 H 0.10389 0.68613 0.05623 0.0
H2288 H 0.10954 0.74101 0.9418 0.0
C2289 C 0.0588 0.77373 0.07452 0.0
C2290 C 0.04853 0.76955 0.12491 0.0
C2291 C 0.04819 0.74966 0.15469 0.0
C2292 C 0.05776 0.73423 0.13524 0.0
C2293 C 0.06775 0.7388 0.08572 0.0
C2294 C 0.06844 0.75807 0.05562 0.0
C2295 C 0.08144 0.75952 1.00449 0.0
C2296 C 0.06254 0.75348 0.95984 0.0
C2297 C 0.10585 0.78601 0.99774 0.0
C2298 C 0.08817 0.73828 1.01094 0.0
C2299 C 0.07991 0.72658 0.05815 0.0
C2300 C 0.08496 0.70745 0.0746 0.0
C2301 C 0.09926 0.70041 0.04264 0.0
C2302 C 0.1083 0.7122 0.9943 0.0
C2303 C 0.10227 0.73113 0.97789 0.0
H2304 H 0.30463 0.39877 0.94325 0.0
H2305 H 0.35991 0.44797 0.05781 0.0
H2306 H 0.34694 0.4103 0.1136 0.0
H2307 H 0.25538 0.36025 0.03197 0.0
H2308 H 0.24353 0.33031 0.99757 0.0
H2309 H 0.25892 0.36041 0.96338 0.0
H2310 H 0.2917 0.349 0.92435 0.0
H2311 H 0.27627 0.31874 0.95812 0.0
H2312 H 0.31036 0.34066 0.96614 0.0
H2313 H 0.32611 0.36851 0.16015 0.0
H2314 H 0.2991 0.3247 0.19431 0.0
H2315 H 0.25602 0.3011 0.05184 0.0
C2316 C 0.31446 0.40139 0.97945 0.0
C2317 C 0.33365 0.42631 0.99582 0.0
C2318 C 0.3454 0.42909 0.04426 0.0
C2319 C 0.33813 0.40778 0.07628 0.0
C2320 C 0.31879 0.38363 0.05978 0.0
C2321 C 0.30709 0.38019 1.01251 0.0
C2322 C 0.28557 0.3523 1.00604 0.0
C2323 C 0.2593 0.35074 0.99934 0.0
C2324 C 0.29133 0.33941 0.96098 0.0
C2325 C 0.28701 0.34077 0.05704 0.0
C2326 C 0.30641 0.35928 0.08724 0.0
C2327 C 0.31104 0.35378 0.13663 0.0
C2328 C 0.29554 0.32877 0.15577 0.0
C2329 C 0.27554 0.30929 0.1258 0.0
C2330 C 0.27132 0.31546 0.07558 0.0
H2331 H 0.61728 0.91051 0.05138 0.0
H2332 H 0.63248 0.96166 0.92223 0.0
H2333 H 0.67609 0.9909 0.95585 0.0
H2334 H 0.65332 0.96081 0.14695 0.0
H2335 H 0.66553 0.94254 0.1792 0.0
H2336 H 0.6349 0.92609 0.14659 0.0
H2337 H 0.65093 0.90048 0.09299 0.0
H2338 H 0.68161 0.91689 0.12531 0.0
H2339 H 0.68028 0.91767 0.05642 0.0
H2340 H 0.71886 0.01439 1.00199 0.0
H2341 H 0.75753 0.02993 0.05658 0.0
H2342 H 0.71587 0.96374 0.15585 0.0
C2343 C 0.62963 0.92802 0.03046 0.0
C2344 C 0.62109 0.93368 0.98401 0.0
C2345 C 0.63826 0.95671 0.95775 0.0
C2346 C 0.66319 0.97354 0.97663 0.0
C2347 C 0.67104 0.96726 0.022 0.0
C2348 C 0.6548 0.94505 0.04865 0.0
C2349 C 0.66845 0.9425 0.09562 0.0
C2350 C 0.65473 0.94302 0.14502 0.0
C2351 C 0.67043 0.91792 0.09237 0.0
C2352 C 0.69492 0.96662 0.091 0.0
C2353 C 0.69588 0.98067 0.04833 0.0
C2354 C 0.71825 1.00355 0.03556 0.0
C2355 C 0.74019 0.01226 0.0669 0.0
C2356 C 0.73989 0.9982 0.11071 0.0
C2357 C 0.71679 0.97505 0.12281 0.0
H2358 H 0.64482 0.59116 0.30743 0.0
H2359 H 0.67301 0.64127 0.17484 0.0
H2360 H 0.65644 0.66819 0.21158 0.0
H2361 H 0.58631 0.59294 0.32226 0.0
H2362 H 0.58679 0.59294 0.39128 0.0
H2363 H 0.60194 0.57825 0.3559 0.0
H2364 H 0.64485 0.60724 0.40363 0.0
H2365 H 0.62986 0.62214 0.43896 0.0
H2366 H 0.65872 0.64176 0.40238 0.0
H2367 H 0.63454 0.6882 0.25951 0.0
H2368 H 0.60869 0.69994 0.31531 0.0
H2369 H 0.59542 0.63838 0.41965 0.0
C2370 C 0.64771 0.60795 0.2864 0.0
C2371 C 0.66035 0.61413 0.23815 0.0
C2372 C 0.66348 0.63613 0.21174 0.0
C2373 C 0.65416 0.65159 0.23242 0.0
C2374 C 0.64175 0.64498 0.27983 0.0
C2375 C 0.63851 0.62371 0.30664 0.0
C2376 C 0.62367 0.6205 0.35612 0.0
C2377 C 0.59817 0.59462 0.35639 0.0
C2378 C 0.64027 0.62307 0.40305 0.0
C2379 C 0.61886 0.64313 0.35268 0.0
C2380 C 0.62952 0.65695 0.30825 0.0
C2381 C 0.62644 0.67773 0.29472 0.0
C2382 C 0.61176 0.68432 0.32674 0.0
C2383 C 0.60047 0.67048 0.37236 0.0
C2384 C 0.60444 0.64981 0.38584 0.0
H2385 H 0.44422 0.05153 0.2092 0.0
H2386 H 0.41857 0.09277 0.30757 0.0
H2387 H 0.39509 0.05407 0.36147 0.0
H2388 H 0.38448 0.98889 0.21684 0.0
H2389 H 0.40092 0.97061 0.21749 0.0
H2390 H 0.41521 1.00127 0.18525 0.0
H2391 H 0.45662 0.01749 0.2397 0.0
H2392 H 0.44246 0.9869 0.27205 0.0
H2393 H 0.45423 0.01623 0.30859 0.0
H2394 H 0.37555 0.01166 0.4068 0.0
H2395 H 0.36115 0.96836 0.4409 0.0
H2396 H 0.3985 0.953 0.31389 0.0
C2397 C 0.4335 0.05232 0.24189 0.0
C2398 C 0.43324 0.07532 0.25398 0.0
C2399 C 0.41906 0.0755 0.29728 0.0
C2400 C 0.40561 0.05355 0.32821 0.0
C2401 C 0.40632 0.03129 0.31548 0.0
C2402 C 0.41981 0.0304 0.2733 0.0
C2403 C 0.41761 1.00399 0.26894 0.0
C2404 C 0.40373 0.99039 0.21917 0.0
C2405 C 0.44432 1.0063 0.27255 0.0
C2406 C 0.40115 0.99038 0.31567 0.0
C2407 C 0.39482 1.00656 0.3417 0.0
C2408 C 0.3803 0.9988 0.38656 0.0
C2409 C 0.3722 0.97403 0.4057 0.0
C2410 C 0.37851 0.95692 0.38029 0.0
C2411 C 0.39305 0.96532 0.33418 0.0
H2412 H 0.09043 0.47262 0.31351 0.0
H2413 H 0.07558 0.4207 0.44111 0.0
H2414 H 0.03178 0.3918 0.40795 0.0
H2415 H 0.02756 0.46581 0.31066 0.0
H2416 H 0.02585 0.46697 0.24188 0.0
H2417 H 0.05672 0.48307 0.27356 0.0
H2418 H 0.07224 0.45756 0.21824 0.0
H2419 H 0.04143 0.44143 0.18624 0.0
H2420 H 0.05364 0.42284 0.21719 0.0
H2421 H 0.98876 0.36875 0.36262 0.0
H2422 H 0.94983 0.35364 0.30904 0.0
H2423 H 0.99118 0.42028 0.21073 0.0
C2424 C 0.07813 0.45499 0.33413 0.0
C2425 C 0.08683 0.44903 0.38005 0.0
C2426 C 0.06969 0.42588 0.40599 0.0
C2427 C 0.04465 0.40924 0.38736 0.0
C2428 C 0.03663 0.41583 0.34259 0.0
C2429 C 0.05283 0.43814 0.31621 0.0
C2430 C 0.03896 0.44104 0.26992 0.0
C2431 C 0.03717 0.46569 0.27429 0.0
C2432 C 0.05237 0.44069 0.21993 0.0
C2433 C 1.01243 0.41698 0.27462 0.0
C2434 C 1.01163 0.40267 0.31673 0.0
C2435 C 0.98925 0.3798 0.32949 0.0
C2436 C 0.96716 0.37134 0.29872 0.0
C2437 C 0.96727 0.38563 0.25546 0.0
C2438 C 0.99038 0.4088 0.24336 0.0
H2439 H 0.46504 0.39853 0.7216 0.0
H2440 H 0.41521 0.36564 0.58908 0.0
H2441 H 0.38649 0.38065 0.62267 0.0
H2442 H 0.41369 0.38428 0.81495 0.0
H2443 H 0.43236 0.41413 0.84933 0.0
H2444 H 0.44838 0.39955 0.81659 0.0
H2445 H 0.47588 0.44175 0.76599 0.0
H2446 H 0.4599 0.45643 0.79843 0.0
H2447 H 0.46 0.4553 0.72945 0.0
H2448 H 0.36361 0.40052 0.6689 0.0
H2449 H 0.34866 0.42404 0.72387 0.0
H2450 H 0.41316 0.44509 0.82652 0.0
C2451 C 0.44789 0.39412 0.69997 0.0
C2452 C 0.44247 0.38064 0.65256 0.0
C2453 C 0.41995 0.3758 0.62536 0.0
C2454 C 0.40342 0.38426 0.64421 0.0
C2455 C 0.40949 0.39773 0.6905 0.0
C2456 C 0.43117 0.40264 0.71812 0.0
C2457 C 0.43367 0.41836 0.76595 0.0
C2458 C 0.43192 0.40317 0.81459 0.0
C2459 C 0.45886 0.44451 0.76487 0.0
C2460 C 0.41018 0.42172 0.76062 0.0
C2461 C 0.39644 0.40949 0.71692 0.0
C2462 C 0.3742 0.41006 0.7033 0.0
C2463 C 0.36582 0.4235 0.73486 0.0
C2464 C 0.37959 0.43641 0.77972 0.0
C2465 C 0.40208 0.43536 0.79268 0.0
H2466 H 0.64249 0.09273 0.72238 0.0
H2467 H 0.67641 0.07623 0.59108 0.0
H2468 H 0.66144 0.03265 0.6239 0.0
H2469 H 0.65662 0.05561 0.81588 0.0
H2470 H 0.62656 0.0441 0.84961 0.0
H2471 H 0.64113 0.07479 0.81747 0.0
H2472 H 0.59906 0.05992 0.76598 0.0
H2473 H 0.58439 0.02917 0.79782 0.0
H2474 H 0.58583 0.03061 0.72887 0.0
H2475 H 0.64164 0.99006 0.66878 0.0
H2476 H 0.61809 0.95134 0.7226 0.0
H2477 H 0.59589 0.99383 0.82557 0.0
C2478 C 0.6471 0.0801 0.70084 0.0
C2479 C 0.66089 0.08832 0.65383 0.0
C2480 C 0.66602 0.07078 0.62688 0.0
C2481 C 0.65757 0.04582 0.64536 0.0
C2482 C 0.64383 0.03828 0.69117 0.0
C2483 C 0.63862 0.05486 0.71872 0.0
C2484 C 0.62269 0.0414 0.76613 0.0
C2485 C 0.63764 0.05478 0.81518 0.0
C2486 C 0.59643 0.04021 0.76458 0.0
C2487 C 0.61954 0.01465 0.76044 0.0
C2488 C 0.6321 0.01344 0.71701 0.0
C2489 C 0.63184 0.99084 0.70299 0.0
C2490 C 0.61837 0.96888 0.7339 0.0
C2491 C 0.60513 0.9694 0.77848 0.0
C2492 C 0.60587 0.99275 0.79188 0.0
H2493 H 0.952 0.58086 0.7216 0.0
H2494 H 0.96784 0.63186 0.59193 0.0
H2495 H 1.01159 0.6608 0.62566 0.0
H2496 H 0.98848 0.63097 0.81708 0.0
H2497 H 1.00015 0.61223 0.84927 0.0
H2498 H 0.9695 0.59628 0.81669 0.0
H2499 H 0.98478 0.57004 0.76303 0.0
H2500 H 0.0155 0.58595 0.79527 0.0
H2501 H 1.01416 0.58679 0.72638 0.0
H2502 H 0.05447 0.68367 0.67191 0.0
H2503 H 0.09308 0.69832 0.72641 0.0
H2504 H 0.05021 0.63234 0.8256 0.0
C2505 C 0.96449 0.59832 0.70063 0.0
C2506 C 0.95618 0.60405 0.65406 0.0
C2507 C 0.97351 0.62693 0.62761 0.0
C2508 C 0.99848 0.64356 0.64655 0.0
C2509 C 1.00612 0.63715 0.69205 0.0
C2510 C 0.98963 0.61507 0.71879 0.0
C2511 C 1.00302 0.61214 0.76568 0.0
C2512 C 0.98948 0.61296 0.81511 0.0
C2513 C 1.00445 0.58725 0.76236 0.0
C2514 C 0.02965 0.6359 0.76095 0.0
C2515 C 0.03095 0.65013 0.71832 0.0
C2516 C 0.0536 0.6727 0.70546 0.0
C2517 C 0.07548 0.68089 0.73672 0.0
C2518 C 0.07477 0.66658 0.78043 0.0
C2519 C 0.05141 0.6438 0.79262 0.0
loop_
_geom_bond_atom_site_label_1
_geom_bond_atom_site_label_2
_geom_bond_distance
_geom_bond_site_symmetry_2
_ccdc_geom_bond_type
Co0 H3 2.400 1_545 S
Co0 O4 1.992 1_545 S
Co0 O12 2.115 . S
Co0 O13 2.315 1_545 S
Co0 O24 2.053 1_545 S
Co0 O27 2.094 . S
Co0 O30 2.122 . S
Co1 O4 2.105 1_545 S
Co1 H5 2.388 . S
Co1 O6 2.053 . S
Co1 O9 2.047 . S
Co1 O15 2.095 1_545 S
Co1 O26 2.063 . S
Co2 H3 2.388 . S
Co2 O4 2.075 . S
Co2 O6 2.126 1_565 S
Co2 O11 2.063 . S
Co2 O25 2.047 . S
Co2 O31 2.113 1_565 S
H3 Co0 2.400 1_565 S
H3 Co2 2.388 . S
H3 O4 0.785 . S
O4 Co0 1.992 1_565 S
O4 Co1 2.105 1_565 S
O4 Co2 2.075 . S
O4 H3 0.785 . S
H5 Co1 2.388 . S
H5 O6 0.760 . S
H5 Co7 2.400 . S
O6 Co1 2.053 . S
O6 Co2 2.126 1_545 S
O6 H5 0.760 . S
O6 Co7 2.009 . S
Co7 H5 2.400 . S
Co7 O6 2.009 . S
Co7 O8 2.053 . S
Co7 O10 2.094 1_545 S
Co7 O14 2.122 1_545 S
Co7 O28 2.115 . S
Co7 O29 2.315 . S
O8 Co7 2.053 . S
O8 C20 1.259 . S
O9 Co1 2.047 . S
O9 C20 1.257 . S
O10 Co7 2.094 1_565 S
O10 C21 1.253 . S
O11 Co2 2.063 . S
O11 C21 1.268 . S
O12 Co0 2.115 . S
O12 C22 1.281 1_545 S
O13 Co0 2.315 1_565 S
O13 C22 1.252 . S
O14 Co7 2.122 1_565 S
O14 C23 1.272 . S
O15 Co1 2.095 1_565 S
O15 C23 1.266 . S
C16 O24 1.259 . S
C16 O25 1.257 . S
C17 O26 1.268 . S
C17 O27 1.253 . S
C18 O28 1.281 . S
C18 O29 1.252 . S
C19 O30 1.272 . S
C19 O31 1.245 . S
C20 O8 1.259 . S
C20 O9 1.257 . S
C21 O10 1.253 . S
C21 O11 1.268 . S
C22 O12 1.281 1_565 S
C22 O13 1.252 . S
C23 O14 1.272 . S
C23 O15 1.266 . S
O24 Co0 2.053 1_565 S
O24 C16 1.259 . S
O25 Co2 2.047 . S
O25 C16 1.257 . S
O26 Co1 2.063 . S
O26 C17 1.268 . S
O27 Co0 2.094 . S
O27 C17 1.253 . S
O28 Co7 2.115 . S
O28 C18 1.281 . S
O29 Co7 2.315 . S
O29 C18 1.252 . S
O30 Co0 2.122 . S
O30 C19 1.272 . S
O31 Co2 2.113 1_545 S
O31 C19 1.245 . S
Co32 H35 2.400 . S
Co32 O36 2.009 . S
Co32 O44 2.115 . S
Co32 O45 2.315 . S
Co32 O56 2.053 . S
Co32 O59 2.094 1_455 S
Co32 O62 2.122 1_455 S
Co33 O36 2.126 1_655 S
Co33 H37 2.388 . S
Co33 O38 2.053 . S
Co33 O41 2.047 . S
Co33 O47 2.113 1_655 S
Co33 O58 2.063 . S
Co34 H35 2.388 . S
Co34 O36 2.053 . S
Co34 O38 2.126 1_455 S
Co34 O43 2.063 . S
Co34 O57 2.047 . S
Co34 O63 2.113 1_455 S
H35 Co32 2.400 . S
H35 Co34 2.388 . S
H35 O36 0.760 . S
O36 Co32 2.009 . S
O36 Co33 2.126 1_455 S
O36 Co34 2.053 . S
O36 H35 0.760 . S
H37 Co33 2.388 . S
H37 O38 0.760 . S
H37 Co39 2.400 1_655 S
O38 Co33 2.053 . S
O38 Co34 2.126 1_655 S
O38 H37 0.760 . S
O38 Co39 2.010 1_655 S
Co39 H37 2.400 1_455 S
Co39 O38 2.010 1_455 S
Co39 O40 2.051 1_455 S
Co39 O42 2.095 . S
Co39 O46 2.128 . S
Co39 O60 2.112 1_455 S
Co39 O61 2.309 1_455 S
O40 Co39 2.051 1_655 S
O40 C52 1.259 . S
O41 Co33 2.047 . S
O41 C52 1.257 . S
O42 Co39 2.095 . S
O42 C53 1.253 . S
O43 Co34 2.063 . S
O43 C53 1.268 . S
O44 Co32 2.115 . S
O44 C54 1.281 . S
O45 Co32 2.315 . S
O45 C54 1.252 . S
O46 Co39 2.128 . S
O46 C55 1.272 . S
O47 Co33 2.113 1_455 S
O47 C55 1.245 . S
C48 O56 1.259 . S
C48 O57 1.257 . S
C49 O58 1.268 . S
C49 O59 1.253 . S
C50 O60 1.281 . S
C50 O61 1.252 . S
C51 O62 1.272 . S
C51 O63 1.245 . S
C52 O40 1.259 . S
C52 O41 1.257 . S
C53 O42 1.253 . S
C53 O43 1.268 . S
C54 O44 1.281 . S
C54 O45 1.252 . S
C55 O46 1.272 . S
C55 O47 1.245 . S
O56 Co32 2.053 . S
O56 C48 1.259 . S
O57 Co34 2.047 . S
O57 C48 1.257 . S
O58 Co33 2.063 . S
O58 C49 1.268 . S
O59 Co32 2.094 1_655 S
O59 C49 1.253 . S
O60 Co39 2.112 1_655 S
O60 C50 1.281 . S
O61 Co39 2.309 1_655 S
O61 C50 1.252 . S
O62 Co32 2.122 1_655 S
O62 C51 1.272 . S
O63 Co34 2.113 1_655 S
O63 C51 1.245 . S
Co64 H67 2.400 . S
Co64 O68 2.009 . S
Co64 O76 2.115 . S
Co64 O77 2.315 . S
Co64 O88 2.053 . S
Co64 O91 2.094 . S
Co64 O94 2.122 . S
Co65 O68 2.126 . S
Co65 H69 2.388 . S
Co65 O70 2.053 . S
Co65 O73 2.047 . S
Co65 O79 2.113 . S
Co65 O90 2.063 . S
Co66 H67 2.388 . S
Co66 O68 2.053 . S
Co66 O70 2.126 . S
Co66 O75 2.063 . S
Co66 O89 2.047 . S
Co66 O95 2.113 . S
H67 Co64 2.400 . S
H67 Co66 2.388 . S
H67 O68 0.760 . S
O68 Co64 2.009 . S
O68 Co65 2.126 . S
O68 Co66 2.053 . S
O68 H67 0.760 . S
H69 Co65 2.388 . S
H69 O70 0.760 . S
H69 Co71 2.400 . S
O70 Co65 2.053 . S
O70 Co66 2.126 . S
O70 H69 0.760 . S
O70 Co71 2.009 . S
Co71 H69 2.400 . S
Co71 O70 2.009 . S
Co71 O72 2.053 . S
Co71 O74 2.094 . S
Co71 O78 2.122 . S
Co71 O92 2.115 . S
Co71 O93 2.315 . S
O72 Co71 2.053 . S
O72 C84 1.259 . S
O73 Co65 2.047 . S
O73 C84 1.257 . S
O74 Co71 2.094 . S
O74 C85 1.253 . S
O75 Co66 2.063 . S
O75 C85 1.268 . S
O76 Co64 2.115 . S
O76 C86 1.281 . S
O77 Co64 2.315 . S
O77 C86 1.252 . S
O78 Co71 2.122 . S
O78 C87 1.272 . S
O79 Co65 2.113 . S
O79 C87 1.245 . S
C80 O88 1.259 . S
C80 O89 1.257 . S
C81 O90 1.268 . S
C81 O91 1.253 . S
C82 O92 1.281 . S
C82 O93 1.252 . S
C83 O94 1.272 . S
C83 O95 1.245 . S
C84 O72 1.259 . S
C84 O73 1.257 . S
C85 O74 1.253 . S
C85 O75 1.268 . S
C86 O76 1.281 . S
C86 O77 1.252 . S
C87 O78 1.272 . S
C87 O79 1.245 . S
O88 Co64 2.053 . S
O88 C80 1.259 . S
O89 Co66 2.047 . S
O89 C80 1.257 . S
O90 Co65 2.063 . S
O90 C81 1.268 . S
O91 Co64 2.094 . S
O91 C81 1.253 . S
O92 Co71 2.115 . S
O92 C82 1.281 . S
O93 Co71 2.315 . S
O93 C82 1.252 . S
O94 Co64 2.122 . S
O94 C83 1.272 . S
O95 Co66 2.113 . S
O95 C83 1.245 . S
Co96 H99 2.400 1_545 S
Co96 O100 2.009 . S
Co96 O108 2.115 . S
Co96 O109 2.315 1_545 S
Co96 O120 2.053 1_545 S
Co96 O123 2.094 . S
Co96 O126 2.122 . S
Co97 O100 2.126 . S
Co97 H101 2.388 . S
Co97 O102 2.053 . S
Co97 O105 2.047 . S
Co97 O111 2.113 . S
Co97 O122 2.063 . S
Co98 H99 2.388 1_545 S
Co98 O100 2.053 . S
Co98 O102 2.126 . S
Co98 O107 2.089 . S
Co98 O121 2.047 1_545 S
Co98 O127 2.113 . S
H99 Co96 2.400 1_565 S
H99 Co98 2.388 1_565 S
H99 O100 0.760 1_565 S
O100 Co96 2.009 . S
O100 Co97 2.126 . S
O100 Co98 2.053 . S
O100 H99 0.760 1_545 S
H101 Co97 2.388 . S
H101 O102 0.760 . S
H101 Co103 2.400 . S
O102 Co97 2.053 . S
O102 Co98 2.126 . S
O102 H101 0.760 . S
O102 Co103 2.009 . S
Co103 H101 2.400 . S
Co103 O102 2.009 . S
Co103 O104 2.053 . S
Co103 O106 2.094 . S
Co103 O110 2.122 1_545 S
Co103 O124 2.115 . S
Co103 O125 2.315 . S
O104 Co103 2.053 . S
O104 C116 1.259 . S
O105 Co97 2.047 . S
O105 C116 1.257 . S
O106 Co103 2.094 . S
O106 C117 1.253 1_545 S
O107 Co98 2.089 . S
O107 C117 1.245 1_545 S
O108 Co96 2.115 . S
O108 C118 1.281 1_545 S
O109 Co96 2.315 1_565 S
O109 C118 1.252 . S
O110 Co103 2.122 1_565 S
O110 C119 1.272 . S
O111 Co97 2.113 . S
O111 C119 1.245 1_545 S
C112 O120 1.259 . S
C112 O121 1.257 . S
C113 O122 1.268 . S
C113 O123 1.253 . S
C114 O124 1.281 . S
C114 O125 1.252 . S
C115 O126 1.272 . S
C115 O127 1.245 . S
C116 O104 1.259 . S
C116 O105 1.257 . S
C117 O106 1.253 1_565 S
C117 O107 1.245 1_565 S
C118 O108 1.281 1_565 S
C118 O109 1.252 . S
C119 O110 1.272 . S
C119 O111 1.245 1_565 S
O120 Co96 2.053 1_565 S
O120 C112 1.259 . S
O121 Co98 2.047 1_565 S
O121 C112 1.257 . S
O122 Co97 2.063 . S
O122 C113 1.268 . S
O123 Co96 2.094 . S
O123 C113 1.253 . S
O124 Co103 2.115 . S
O124 C114 1.281 . S
O125 Co103 2.315 . S
O125 C114 1.252 . S
O126 Co96 2.122 . S
O126 C115 1.272 . S
O127 Co98 2.113 . S
O127 C115 1.245 . S
Co128 H131 2.400 . S
Co128 O132 2.009 . S
Co128 O140 2.115 . S
Co128 O141 2.315 . S
Co128 O152 2.053 . S
Co128 O155 2.094 1_455 S
Co128 O158 2.122 1_455 S
Co129 O132 2.126 1_655 S
Co129 H133 2.388 . S
Co129 O134 2.053 . S
Co129 O137 2.047 . S
Co129 O143 2.113 1_655 S
Co129 O154 2.063 . S
Co130 H131 2.388 . S
Co130 O132 2.053 . S
Co130 O134 2.126 1_455 S
Co130 O139 2.063 . S
Co130 O153 2.047 . S
Co130 O159 2.113 1_455 S
H131 Co128 2.400 . S
H131 Co130 2.388 . S
H131 O132 0.760 . S
O132 Co128 2.009 . S
O132 Co129 2.126 1_455 S
O132 Co130 2.053 . S
O132 H131 0.760 . S
H133 Co129 2.388 . S
H133 O134 0.760 . S
H133 Co135 2.400 . S
O134 Co129 2.053 . S
O134 Co130 2.126 1_655 S
O134 H133 0.760 . S
O134 Co135 2.009 . S
Co135 H133 2.400 . S
Co135 O134 2.009 . S
Co135 O136 2.053 . S
Co135 O138 2.094 1_655 S
Co135 O142 2.122 1_655 S
Co135 O156 2.115 . S
Co135 O157 2.315 . S
O136 Co135 2.053 . S
O136 C148 1.259 . S
O137 Co129 2.047 . S
O137 C148 1.257 . S
O138 Co135 2.094 1_455 S
O138 C149 1.253 . S
O139 Co130 2.063 . S
O139 C149 1.268 . S
O140 Co128 2.115 . S
O140 C150 1.281 . S
O141 Co128 2.315 . S
O141 C150 1.252 . S
O142 Co135 2.122 1_455 S
O142 C151 1.272 . S
O143 Co129 2.113 1_455 S
O143 C151 1.245 . S
C144 O152 1.259 . S
C144 O153 1.257 . S
C145 O154 1.268 . S
C145 O155 1.253 . S
C146 O156 1.281 . S
C146 O157 1.252 . S
C147 O158 1.272 . S
C147 O159 1.245 . S
C148 O136 1.259 . S
C148 O137 1.257 . S
C149 O138 1.253 . S
C149 O139 1.268 . S
C150 O140 1.281 . S
C150 O141 1.252 . S
C151 O142 1.272 . S
C151 O143 1.245 . S
O152 Co128 2.053 . S
O152 C144 1.259 . S
O153 Co130 2.047 . S
O153 C144 1.257 . S
O154 Co129 2.063 . S
O154 C145 1.268 . S
O155 Co128 2.094 1_655 S
O155 C145 1.253 . S
O156 Co135 2.115 . S
O156 C146 1.281 . S
O157 Co135 2.315 . S
O157 C146 1.252 . S
O158 Co128 2.122 1_655 S
O158 C147 1.272 . S
O159 Co130 2.113 1_655 S
O159 C147 1.245 . S
Co160 H163 2.400 . S
Co160 O164 2.009 . S
Co160 O172 2.115 . S
Co160 O173 2.315 . S
Co160 O184 2.053 . S
Co160 O187 2.094 . S
Co160 O190 2.122 . S
Co161 O164 2.126 . S
Co161 H165 2.388 . S
Co161 O166 2.053 . S
Co161 O169 2.047 . S
Co161 O175 2.113 . S
Co161 O186 2.063 . S
Co162 H163 2.388 . S
Co162 O164 2.053 . S
Co162 O166 2.126 . S
Co162 O171 2.063 . S
Co162 O185 2.047 . S
Co162 O191 2.113 . S
H163 Co160 2.400 . S
H163 Co162 2.388 . S
H163 O164 0.760 . S
O164 Co160 2.009 . S
O164 Co161 2.126 . S
O164 Co162 2.053 . S
O164 H163 0.760 . S
H165 Co161 2.388 . S
H165 O166 0.760 . S
H165 Co167 2.400 . S
O166 Co161 2.053 . S
O166 Co162 2.126 . S
O166 H165 0.760 . S
O166 Co167 2.009 . S
Co167 H165 2.400 . S
Co167 O166 2.009 . S
Co167 O168 2.053 . S
Co167 O170 2.094 . S
Co167 O174 2.122 . S
Co167 O188 2.115 . S
Co167 O189 2.315 . S
O168 Co167 2.053 . S
O168 C180 1.259 . S
O169 Co161 2.047 . S
O169 C180 1.257 . S
O170 Co167 2.094 . S
O170 C181 1.253 . S
O171 Co162 2.063 . S
O171 C181 1.268 . S
O172 Co160 2.115 . S
O172 C182 1.281 . S
O173 Co160 2.315 . S
O173 C182 1.252 . S
O174 Co167 2.122 . S
O174 C183 1.272 . S
O175 Co161 2.113 . S
O175 C183 1.245 . S
C176 O184 1.259 . S
C176 O185 1.257 . S
C177 O186 1.268 . S
C177 O187 1.253 . S
C178 O188 1.281 . S
C178 O189 1.252 . S
C179 O190 1.272 . S
C179 O191 1.245 . S
C180 O168 1.259 . S
C180 O169 1.257 . S
C181 O170 1.253 . S
C181 O171 1.268 . S
C182 O172 1.281 . S
C182 O173 1.252 . S
C183 O174 1.272 . S
C183 O175 1.245 . S
O184 Co160 2.053 . S
O184 C176 1.259 . S
O185 Co162 2.047 . S
O185 C176 1.257 . S
O186 Co161 2.063 . S
O186 C177 1.268 . S
O187 Co160 2.094 . S
O187 C177 1.253 . S
O188 Co167 2.115 . S
O188 C178 1.281 . S
O189 Co167 2.315 . S
O189 C178 1.252 . S
O190 Co160 2.122 . S
O190 C179 1.272 . S
O191 Co162 2.113 . S
O191 C179 1.245 . S
Co192 H195 2.400 . S
Co192 O196 2.009 . S
Co192 O204 2.115 1_554 S
Co192 O205 2.315 . S
Co192 O216 2.053 1_554 S
Co192 O219 2.094 . S
Co192 O222 2.122 1_554 S
Co193 O196 2.126 . S
Co193 H197 2.388 . S
Co193 O198 2.053 . S
Co193 O201 2.047 . S
Co193 O207 2.113 . S
Co193 O218 2.063 . S
Co194 H195 2.388 . S
Co194 O196 2.053 . S
Co194 O198 2.126 . S
Co194 O203 2.063 . S
Co194 O217 2.047 1_554 S
Co194 O223 2.113 1_554 S
H195 Co192 2.400 . S
H195 Co194 2.388 . S
H195 O196 0.760 . S
O196 Co192 2.009 . S
O196 Co193 2.126 . S
O196 Co194 2.053 . S
O196 H195 0.760 . S
H197 Co193 2.388 . S
H197 O198 0.760 . S
H197 Co199 2.400 . S
O198 Co193 2.053 . S
O198 Co194 2.126 . S
O198 H197 0.760 . S
O198 Co199 2.009 . S
Co199 H197 2.400 . S
Co199 O198 2.009 . S
Co199 O200 2.053 . S
Co199 O202 2.094 . S
Co199 O206 2.122 . S
Co199 O220 2.115 . S
Co199 O221 2.315 . S
O200 Co199 2.053 . S
O200 C212 1.259 . S
O201 Co193 2.047 . S
O201 C212 1.257 . S
O202 Co199 2.094 . S
O202 C213 1.253 . S
O203 Co194 2.063 . S
O203 C213 1.268 . S
O204 Co192 2.115 1_556 S
O204 C214 1.281 1_556 S
O205 Co192 2.315 . S
O205 C214 1.252 . S
O206 Co199 2.122 . S
O206 C215 1.272 . S
O207 Co193 2.113 . S
O207 C215 1.245 . S
C208 O216 1.259 . S
C208 O217 1.257 . S
C209 O218 1.268 . S
C209 O219 1.253 . S
C210 O220 1.281 . S
C210 O221 1.252 . S
C211 O222 1.272 . S
C211 O223 1.245 . S
C212 O200 1.259 . S
C212 O201 1.257 . S
C213 O202 1.253 . S
C213 O203 1.268 . S
C214 O204 1.281 1_554 S
C214 O205 1.252 . S
C215 O206 1.272 . S
C215 O207 1.245 . S
O216 Co192 2.053 1_556 S
O216 C208 1.259 . S
O217 Co194 2.047 1_556 S
O217 C208 1.257 . S
O218 Co193 2.063 . S
O218 C209 1.268 . S
O219 Co192 2.094 . S
O219 C209 1.253 . S
O220 Co199 2.115 . S
O220 C210 1.281 . S
O221 Co199 2.315 . S
O221 C210 1.252 . S
O222 Co192 2.122 1_556 S
O222 C211 1.272 . S
O223 Co194 2.113 1_556 S
O223 C211 1.245 . S
Co224 H227 2.400 . S
Co224 O228 2.009 . S
Co224 O236 2.115 1_554 S
Co224 O237 2.315 . S
Co224 O248 2.053 1_554 S
Co224 O251 2.094 . S
Co224 O254 2.122 1_554 S
Co225 O228 2.126 . S
Co225 H229 2.388 . S
Co225 O230 2.053 . S
Co225 O233 2.047 . S
Co225 O239 2.113 . S
Co225 O250 2.063 . S
Co226 H227 2.388 . S
Co226 O228 2.053 . S
Co226 O230 2.126 . S
Co226 O235 2.063 . S
Co226 O249 2.047 1_554 S
Co226 O255 2.113 1_554 S
H227 Co224 2.400 . S
H227 Co226 2.388 . S
H227 O228 0.760 . S
O228 Co224 2.009 . S
O228 Co225 2.126 . S
O228 Co226 2.053 . S
O228 H227 0.760 . S
H229 Co225 2.388 . S
H229 O230 0.760 . S
H229 Co231 2.400 . S
O230 Co225 2.053 . S
O230 Co226 2.126 . S
O230 H229 0.760 . S
O230 Co231 2.009 . S
Co231 H229 2.400 . S
Co231 O230 2.009 . S
Co231 O232 2.053 . S
Co231 O234 2.094 . S
Co231 O238 2.122 . S
Co231 O252 2.115 . S
Co231 O253 2.315 . S
O232 Co231 2.053 . S
O232 C244 1.259 . S
O233 Co225 2.047 . S
O233 C244 1.257 . S
O234 Co231 2.094 . S
O234 C245 1.253 . S
O235 Co226 2.063 . S
O235 C245 1.268 . S
O236 Co224 2.115 1_556 S
O236 C246 1.281 1_556 S
O237 Co224 2.315 . S
O237 C246 1.252 . S
O238 Co231 2.122 . S
O238 C247 1.272 . S
O239 Co225 2.113 . S
O239 C247 1.245 . S
C240 O248 1.259 . S
C240 O249 1.257 . S
C241 O250 1.268 . S
C241 O251 1.253 . S
C242 O252 1.281 . S
C242 O253 1.252 . S
C243 O254 1.272 . S
C243 O255 1.245 . S
C244 O232 1.259 . S
C244 O233 1.257 . S
C245 O234 1.253 . S
C245 O235 1.268 . S
C246 O236 1.281 1_554 S
C246 O237 1.252 . S
C247 O238 1.272 . S
C247 O239 1.245 . S
O248 Co224 2.053 1_556 S
O248 C240 1.259 . S
O249 Co226 2.047 1_556 S
O249 C240 1.257 . S
O250 Co225 2.063 . S
O250 C241 1.268 . S
O251 Co224 2.094 . S
O251 C241 1.253 . S
O252 Co231 2.115 . S
O252 C242 1.281 . S
O253 Co231 2.315 . S
O253 C242 1.252 . S
O254 Co224 2.122 1_556 S
O254 C243 1.272 . S
O255 Co226 2.113 1_556 S
O255 C243 1.245 . S
Co256 H259 2.400 . S
Co256 O260 2.009 . S
Co256 O268 2.115 1_554 S
Co256 O269 2.315 . S
Co256 O280 2.053 1_554 S
Co256 O283 2.094 . S
Co256 O286 2.122 1_554 S
Co257 O260 2.126 . S
Co257 H261 2.388 . S
Co257 O262 2.053 . S
Co257 O265 2.047 . S
Co257 O271 2.113 . S
Co257 O282 2.063 . S
Co258 H259 2.388 . S
Co258 O260 2.053 . S
Co258 O262 2.126 . S
Co258 O267 2.063 . S
Co258 O281 2.047 1_554 S
Co258 O287 2.113 1_554 S
H259 Co256 2.400 . S
H259 Co258 2.388 . S
H259 O260 0.760 . S
O260 Co256 2.009 . S
O260 Co257 2.126 . S
O260 Co258 2.053 . S
O260 H259 0.760 . S
H261 Co257 2.388 . S
H261 O262 0.760 . S
H261 Co263 2.400 . S
O262 Co257 2.053 . S
O262 Co258 2.126 . S
O262 H261 0.760 . S
O262 Co263 2.009 . S
Co263 H261 2.400 . S
Co263 O262 2.009 . S
Co263 O264 2.053 . S
Co263 O266 2.094 . S
Co263 O270 2.122 . S
Co263 O284 2.115 . S
Co263 O285 2.315 . S
O264 Co263 2.053 . S
O264 C276 1.259 . S
O265 Co257 2.047 . S
O265 C276 1.257 . S
O266 Co263 2.094 . S
O266 C277 1.253 . S
O267 Co258 2.063 . S
O267 C277 1.268 . S
O268 Co256 2.115 1_556 S
O268 C278 1.281 1_556 S
O269 Co256 2.315 . S
O269 C278 1.252 . S
O270 Co263 2.122 . S
O270 C279 1.272 . S
O271 Co257 2.113 . S
O271 C279 1.245 . S
C272 O280 1.259 . S
C272 O281 1.257 . S
C273 O282 1.268 . S
C273 O283 1.253 . S
C274 O284 1.281 . S
C274 O285 1.252 . S
C275 O286 1.272 . S
C275 O287 1.245 . S
C276 O264 1.259 . S
C276 O265 1.257 . S
C277 O266 1.253 . S
C277 O267 1.268 . S
C278 O268 1.281 1_554 S
C278 O269 1.252 . S
C279 O270 1.272 . S
C279 O271 1.245 . S
O280 Co256 2.053 1_556 S
O280 C272 1.259 . S
O281 Co258 2.047 1_556 S
O281 C272 1.257 . S
O282 Co257 2.063 . S
O282 C273 1.268 . S
O283 Co256 2.094 . S
O283 C273 1.253 . S
O284 Co263 2.115 . S
O284 C274 1.281 . S
O285 Co263 2.315 . S
O285 C274 1.252 . S
O286 Co256 2.122 1_556 S
O286 C275 1.272 . S
O287 Co258 2.113 1_556 S
O287 C275 1.245 . S
Co288 H291 2.400 . S
Co288 O292 2.009 . S
Co288 O300 2.115 . S
Co288 O301 2.315 . S
Co288 O312 2.053 . S
Co288 O315 2.094 . S
Co288 O318 2.122 . S
Co289 O292 2.126 . S
Co289 H293 2.388 . S
Co289 O294 2.053 . S
Co289 O297 2.047 . S
Co289 O303 2.113 . S
Co289 O314 2.063 . S
Co290 H291 2.388 . S
Co290 O292 2.053 . S
Co290 O294 2.126 . S
Co290 O299 2.063 . S
Co290 O313 2.047 . S
Co290 O319 2.113 . S
H291 Co288 2.400 . S
H291 Co290 2.388 . S
H291 O292 0.760 . S
O292 Co288 2.009 . S
O292 Co289 2.126 . S
O292 Co290 2.053 . S
O292 H291 0.760 . S
H293 Co289 2.388 . S
H293 O294 0.760 . S
H293 Co295 2.400 . S
O294 Co289 2.053 . S
O294 Co290 2.126 . S
O294 H293 0.760 . S
O294 Co295 2.009 . S
Co295 H293 2.400 . S
Co295 O294 2.009 . S
Co295 O296 2.053 . S
Co295 O298 2.094 . S
Co295 O302 2.122 . S
Co295 O316 2.115 . S
Co295 O317 2.315 . S
O296 Co295 2.053 . S
O296 C308 1.259 . S
O297 Co289 2.047 . S
O297 C308 1.257 . S
O298 Co295 2.094 . S
O298 C309 1.253 . S
O299 Co290 2.063 . S
O299 C309 1.268 . S
O300 Co288 2.115 . S
O300 C310 1.281 . S
O301 Co288 2.315 . S
O301 C310 1.252 . S
O302 Co295 2.122 . S
O302 C311 1.272 . S
O303 Co289 2.113 . S
O303 C311 1.245 . S
C304 O312 1.259 . S
C304 O313 1.257 . S
C305 O314 1.268 . S
C305 O315 1.253 . S
C306 O316 1.281 . S
C306 O317 1.252 . S
C307 O318 1.272 . S
C307 O319 1.245 . S
C308 O296 1.259 . S
C308 O297 1.257 . S
C309 O298 1.253 . S
C309 O299 1.268 . S
C310 O300 1.281 . S
C310 O301 1.252 . S
C311 O302 1.272 . S
C311 O303 1.245 . S
O312 Co288 2.053 . S
O312 C304 1.259 . S
O313 Co290 2.047 . S
O313 C304 1.257 . S
O314 Co289 2.063 . S
O314 C305 1.268 . S
O315 Co288 2.094 . S
O315 C305 1.253 . S
O316 Co295 2.115 . S
O316 C306 1.281 . S
O317 Co295 2.315 . S
O317 C306 1.252 . S
O318 Co288 2.122 . S
O318 C307 1.272 . S
O319 Co290 2.113 . S
O319 C307 1.245 . S
Co320 H323 2.400 . S
Co320 O324 2.009 . S
Co320 O332 2.115 . S
Co320 O333 2.315 . S
Co320 O344 2.053 . S
Co320 O347 2.094 . S
Co320 O350 2.122 . S
Co321 O324 2.126 . S
Co321 H325 2.388 . S
Co321 O326 2.053 . S
Co321 O329 2.047 . S
Co321 O335 2.113 . S
Co321 O346 2.063 . S
Co322 H323 2.388 . S
Co322 O324 2.053 . S
Co322 O326 2.126 . S
Co322 O331 2.063 . S
Co322 O345 2.047 . S
Co322 O351 2.113 . S
H323 Co320 2.400 . S
H323 Co322 2.388 . S
H323 O324 0.760 . S
O324 Co320 2.009 . S
O324 Co321 2.126 . S
O324 Co322 2.053 . S
O324 H323 0.760 . S
H325 Co321 2.388 . S
H325 O326 0.760 . S
H325 Co327 2.400 . S
O326 Co321 2.053 . S
O326 Co322 2.126 . S
O326 H325 0.760 . S
O326 Co327 2.009 . S
Co327 H325 2.400 . S
Co327 O326 2.009 . S
Co327 O328 2.053 . S
Co327 O330 2.094 . S
Co327 O334 2.122 . S
Co327 O348 2.115 . S
Co327 O349 2.315 . S
O328 Co327 2.053 . S
O328 C340 1.259 . S
O329 Co321 2.047 . S
O329 C340 1.257 . S
O330 Co327 2.094 . S
O330 C341 1.253 . S
O331 Co322 2.063 . S
O331 C341 1.268 . S
O332 Co320 2.115 . S
O332 C342 1.281 . S
O333 Co320 2.315 . S
O333 C342 1.252 . S
O334 Co327 2.122 . S
O334 C343 1.272 . S
O335 Co321 2.113 . S
O335 C343 1.245 . S
C336 O344 1.259 . S
C336 O345 1.257 . S
C337 O346 1.268 . S
C337 O347 1.253 . S
C338 O348 1.281 . S
C338 O349 1.252 . S
C339 O350 1.272 . S
C339 O351 1.245 . S
C340 O328 1.259 . S
C340 O329 1.257 . S
C341 O330 1.253 . S
C341 O331 1.268 . S
C342 O332 1.281 . S
C342 O333 1.252 . S
C343 O334 1.272 . S
C343 O335 1.245 . S
O344 Co320 2.053 . S
O344 C336 1.259 . S
O345 Co322 2.047 . S
O345 C336 1.257 . S
O346 Co321 2.063 . S
O346 C337 1.268 . S
O347 Co320 2.094 . S
O347 C337 1.253 . S
O348 Co327 2.115 . S
O348 C338 1.281 . S
O349 Co327 2.315 . S
O349 C338 1.252 . S
O350 Co320 2.122 . S
O350 C339 1.272 . S
O351 Co322 2.113 . S
O351 C339 1.245 . S
Co352 H355 2.400 . S
Co352 O356 2.009 . S
Co352 O364 2.115 . S
Co352 O365 2.315 . S
Co352 O376 2.053 . S
Co352 O379 2.094 . S
Co352 O382 2.122 . S
Co353 O356 2.126 . S
Co353 H357 2.388 . S
Co353 O358 2.053 . S
Co353 O361 2.047 . S
Co353 O367 2.113 . S
Co353 O378 2.063 . S
Co354 H355 2.388 . S
Co354 O356 2.053 . S
Co354 O358 2.126 . S
Co354 O363 2.063 . S
Co354 O377 2.047 . S
Co354 O383 2.113 . S
H355 Co352 2.400 . S
H355 Co354 2.388 . S
H355 O356 0.760 . S
O356 Co352 2.009 . S
O356 Co353 2.126 . S
O356 Co354 2.053 . S
O356 H355 0.760 . S
H357 Co353 2.388 . S
H357 O358 0.760 . S
H357 Co359 2.400 . S
O358 Co353 2.053 . S
O358 Co354 2.126 . S
O358 H357 0.760 . S
O358 Co359 2.009 . S
Co359 H357 2.400 . S
Co359 O358 2.009 . S
Co359 O360 2.053 . S
Co359 O362 2.094 . S
Co359 O366 2.122 . S
Co359 O380 2.115 . S
Co359 O381 2.315 . S
O360 Co359 2.053 . S
O360 C372 1.259 . S
O361 Co353 2.047 . S
O361 C372 1.257 . S
O362 Co359 2.094 . S
O362 C373 1.253 . S
O363 Co354 2.063 . S
O363 C373 1.268 . S
O364 Co352 2.115 . S
O364 C374 1.281 . S
O365 Co352 2.315 . S
O365 C374 1.252 . S
O366 Co359 2.122 . S
O366 C375 1.272 . S
O367 Co353 2.113 . S
O367 C375 1.245 . S
C368 O376 1.259 . S
C368 O377 1.257 . S
C369 O378 1.268 . S
C369 O379 1.253 . S
C370 O380 1.281 . S
C370 O381 1.252 . S
C371 O382 1.272 . S
C371 O383 1.245 . S
C372 O360 1.259 . S
C372 O361 1.257 . S
C373 O362 1.253 . S
C373 O363 1.268 . S
C374 O364 1.281 . S
C374 O365 1.252 . S
C375 O366 1.272 . S
C375 O367 1.245 . S
O376 Co352 2.053 . S
O376 C368 1.259 . S
O377 Co354 2.047 . S
O377 C368 1.257 . S
O378 Co353 2.063 . S
O378 C369 1.268 . S
O379 Co352 2.094 . S
O379 C369 1.253 . S
O380 Co359 2.115 . S
O380 C370 1.281 . S
O381 Co359 2.315 . S
O381 C370 1.252 . S
O382 Co352 2.122 . S
O382 C371 1.272 . S
O383 Co354 2.113 . S
O383 C371 1.245 . S
Co384 H387 2.400 . S
Co384 O388 2.009 . S
Co384 O396 2.115 . S
Co384 O397 2.315 . S
Co384 O408 2.053 . S
Co384 O411 2.094 . S
Co384 O414 2.122 . S
Co385 O388 2.126 . S
Co385 H389 2.388 . S
Co385 O390 2.053 . S
Co385 O393 2.047 . S
Co385 O399 2.113 . S
Co385 O410 2.063 . S
Co386 H387 2.388 . S
Co386 O388 2.053 . S
Co386 O390 2.126 . S
Co386 O395 2.063 . S
Co386 O409 2.047 . S
Co386 O415 2.113 . S
H387 Co384 2.400 . S
H387 Co386 2.388 . S
H387 O388 0.760 . S
O388 Co384 2.009 . S
O388 Co385 2.126 . S
O388 Co386 2.053 . S
O388 H387 0.760 . S
H389 Co385 2.388 . S
H389 O390 0.760 . S
H389 Co391 2.400 . S
O390 Co385 2.053 . S
O390 Co386 2.126 . S
O390 H389 0.760 . S
O390 Co391 2.009 . S
Co391 H389 2.400 . S
Co391 O390 2.009 . S
Co391 O392 2.053 . S
Co391 O394 2.094 . S
Co391 O398 2.122 . S
Co391 O412 2.115 . S
Co391 O413 2.315 . S
O392 Co391 2.053 . S
O392 C404 1.259 . S
O393 Co385 2.047 . S
O393 C404 1.257 . S
O394 Co391 2.094 . S
O394 C405 1.253 . S
O395 Co386 2.063 . S
O395 C405 1.268 . S
O396 Co384 2.115 . S
O396 C406 1.281 . S
O397 Co384 2.315 . S
O397 C406 1.252 . S
O398 Co391 2.122 . S
O398 C407 1.272 . S
O399 Co385 2.113 . S
O399 C407 1.245 . S
C400 O408 1.259 . S
C400 O409 1.257 . S
C401 O410 1.268 . S
C401 O411 1.253 . S
C402 O412 1.281 . S
C402 O413 1.252 . S
C403 O414 1.272 . S
C403 O415 1.245 . S
C404 O392 1.259 . S
C404 O393 1.257 . S
C405 O394 1.253 . S
C405 O395 1.268 . S
C406 O396 1.281 . S
C406 O397 1.252 . S
C407 O398 1.272 . S
C407 O399 1.245 . S
O408 Co384 2.053 . S
O408 C400 1.259 . S
O409 Co386 2.047 . S
O409 C400 1.257 . S
O410 Co385 2.063 . S
O410 C401 1.268 . S
O411 Co384 2.094 . S
O411 C401 1.253 . S
O412 Co391 2.115 . S
O412 C402 1.281 . S
O413 Co391 2.315 . S
O413 C402 1.252 . S
O414 Co384 2.122 . S
O414 C403 1.272 . S
O415 Co386 2.113 . S
O415 C403 1.245 . S
Co416 H419 2.400 . S
Co416 O420 2.009 . S
Co416 O428 2.115 . S
Co416 O429 2.315 . S
Co416 O440 2.053 . S
Co416 O443 2.094 . S
Co416 O446 2.122 . S
Co417 O420 2.126 . S
Co417 H421 2.388 . S
Co417 O422 2.053 . S
Co417 O425 2.047 . S
Co417 O431 2.113 . S
Co417 O442 2.063 . S
Co418 H419 2.388 . S
Co418 O420 2.053 . S
Co418 O422 2.126 . S
Co418 O427 2.063 . S
Co418 O441 2.047 . S
Co418 O447 2.113 . S
H419 Co416 2.400 . S
H419 Co418 2.388 . S
H419 O420 0.760 . S
O420 Co416 2.009 . S
O420 Co417 2.126 . S
O420 Co418 2.053 . S
O420 H419 0.760 . S
H421 Co417 2.388 . S
H421 O422 0.760 . S
H421 Co423 2.400 . S
O422 Co417 2.053 . S
O422 Co418 2.126 . S
O422 H421 0.760 . S
O422 Co423 2.009 . S
Co423 H421 2.400 . S
Co423 O422 2.009 . S
Co423 O424 2.053 . S
Co423 O426 2.094 . S
Co423 O430 2.122 . S
Co423 O444 2.115 . S
Co423 O445 2.315 . S
O424 Co423 2.053 . S
O424 C436 1.259 . S
O425 Co417 2.047 . S
O425 C436 1.257 . S
O426 Co423 2.094 . S
O426 C437 1.253 . S
O427 Co418 2.063 . S
O427 C437 1.268 . S
O428 Co416 2.115 . S
O428 C438 1.281 . S
O429 Co416 2.315 . S
O429 C438 1.252 . S
O430 Co423 2.122 . S
O430 C439 1.272 . S
O431 Co417 2.113 . S
O431 C439 1.245 . S
C432 O440 1.259 . S
C432 O441 1.257 . S
C433 O442 1.268 . S
C433 O443 1.253 . S
C434 O444 1.281 . S
C434 O445 1.252 . S
C435 O446 1.272 . S
C435 O447 1.245 . S
C436 O424 1.259 . S
C436 O425 1.257 . S
C437 O426 1.253 . S
C437 O427 1.268 . S
C438 O428 1.281 . S
C438 O429 1.252 . S
C439 O430 1.272 . S
C439 O431 1.245 . S
O440 Co416 2.053 . S
O440 C432 1.259 . S
O441 Co418 2.047 . S
O441 C432 1.257 . S
O442 Co417 2.063 . S
O442 C433 1.268 . S
O443 Co416 2.094 . S
O443 C433 1.253 . S
O444 Co423 2.115 . S
O444 C434 1.281 . S
O445 Co423 2.315 . S
O445 C434 1.252 . S
O446 Co416 2.122 . S
O446 C435 1.272 . S
O447 Co418 2.113 . S
O447 C435 1.245 . S
Co448 H451 2.400 . S
Co448 O452 2.009 . S
Co448 O460 2.115 . S
Co448 O461 2.315 . S
Co448 O472 2.053 . S
Co448 O475 2.094 . S
Co448 O478 2.122 . S
Co449 O452 2.126 . S
Co449 H453 2.388 . S
Co449 O454 2.053 . S
Co449 O457 2.047 . S
Co449 O463 2.113 . S
Co449 O474 2.063 . S
Co450 H451 2.388 . S
Co450 O452 2.053 . S
Co450 O454 2.126 . S
Co450 O459 2.063 . S
Co450 O473 2.047 . S
Co450 O479 2.113 . S
H451 Co448 2.400 . S
H451 Co450 2.388 . S
H451 O452 0.760 . S
O452 Co448 2.009 . S
O452 Co449 2.126 . S
O452 Co450 2.053 . S
O452 H451 0.760 . S
H453 Co449 2.388 . S
H453 O454 0.760 . S
H453 Co455 2.400 . S
O454 Co449 2.053 . S
O454 Co450 2.126 . S
O454 H453 0.760 . S
O454 Co455 2.009 . S
Co455 H453 2.400 . S
Co455 O454 2.009 . S
Co455 O456 2.053 . S
Co455 O458 2.094 . S
Co455 O462 2.122 . S
Co455 O476 2.115 . S
Co455 O477 2.315 . S
O456 Co455 2.053 . S
O456 C468 1.259 . S
O457 Co449 2.047 . S
O457 C468 1.257 . S
O458 Co455 2.094 . S
O458 C469 1.253 . S
O459 Co450 2.063 . S
O459 C469 1.268 . S
O460 Co448 2.115 . S
O460 C470 1.281 . S
O461 Co448 2.315 . S
O461 C470 1.252 . S
O462 Co455 2.122 . S
O462 C471 1.272 . S
O463 Co449 2.113 . S
O463 C471 1.245 . S
C464 O472 1.259 . S
C464 O473 1.257 . S
C465 O474 1.268 . S
C465 O475 1.253 . S
C466 O476 1.281 . S
C466 O477 1.252 . S
C467 O478 1.272 . S
C467 O479 1.245 . S
C468 O456 1.259 . S
C468 O457 1.257 . S
C469 O458 1.253 . S
C469 O459 1.268 . S
C470 O460 1.281 . S
C470 O461 1.252 . S
C471 O462 1.272 . S
C471 O463 1.245 . S
O472 Co448 2.053 . S
O472 C464 1.259 . S
O473 Co450 2.047 . S
O473 C464 1.257 . S
O474 Co449 2.063 . S
O474 C465 1.268 . S
O475 Co448 2.094 . S
O475 C465 1.253 . S
O476 Co455 2.115 . S
O476 C466 1.281 . S
O477 Co455 2.315 . S
O477 C466 1.252 . S
O478 Co448 2.122 . S
O478 C467 1.272 . S
O479 Co450 2.113 . S
O479 C467 1.245 . S
Co480 H483 2.400 . S
Co480 O484 2.009 . S
Co480 O492 2.115 . S
Co480 O493 2.315 . S
Co480 O504 2.053 . S
Co480 O507 2.094 . S
Co480 O510 2.122 . S
Co481 O484 2.126 . S
Co481 H485 2.388 . S
Co481 O486 2.053 . S
Co481 O489 2.047 1_556 S
Co481 O495 2.113 1_556 S
Co481 O506 2.063 . S
Co482 H483 2.388 . S
Co482 O484 2.053 . S
Co482 O486 2.126 . S
Co482 O491 2.063 . S
Co482 O505 2.047 . S
Co482 O511 2.113 . S
H483 Co480 2.400 . S
H483 Co482 2.388 . S
H483 O484 0.760 . S
O484 Co480 2.009 . S
O484 Co481 2.126 . S
O484 Co482 2.053 . S
O484 H483 0.760 . S
H485 Co481 2.388 . S
H485 O486 0.760 . S
H485 Co487 2.400 . S
O486 Co481 2.053 . S
O486 Co482 2.126 . S
O486 H485 0.760 . S
O486 Co487 2.009 . S
Co487 H485 2.400 . S
Co487 O486 2.009 . S
Co487 O488 2.053 1_556 S
Co487 O490 2.094 . S
Co487 O494 2.122 1_556 S
Co487 O508 2.115 1_556 S
Co487 O509 2.315 . S
O488 Co487 2.053 1_554 S
O488 C500 1.259 . S
O489 Co481 2.047 1_554 S
O489 C500 1.257 . S
O490 Co487 2.094 . S
O490 C501 1.253 . S
O491 Co482 2.063 . S
O491 C501 1.268 . S
O492 Co480 2.115 . S
O492 C502 1.281 . S
O493 Co480 2.315 . S
O493 C502 1.252 . S
O494 Co487 2.122 1_554 S
O494 C503 1.272 . S
O495 Co481 2.113 1_554 S
O495 C503 1.245 . S
C496 O504 1.259 . S
C496 O505 1.257 . S
C497 O506 1.268 . S
C497 O507 1.253 . S
C498 O508 1.281 1_556 S
C498 O509 1.252 . S
C499 O510 1.272 . S
C499 O511 1.245 . S
C500 O488 1.259 . S
C500 O489 1.257 . S
C501 O490 1.253 . S
C501 O491 1.268 . S
C502 O492 1.281 . S
C502 O493 1.252 . S
C503 O494 1.272 . S
C503 O495 1.245 . S
O504 Co480 2.053 . S
O504 C496 1.259 . S
O505 Co482 2.047 . S
O505 C496 1.257 . S
O506 Co481 2.063 . S
O506 C497 1.268 . S
O507 Co480 2.094 . S
O507 C497 1.253 . S
O508 Co487 2.115 1_554 S
O508 C498 1.281 1_554 S
O509 Co487 2.315 . S
O509 C498 1.252 . S
O510 Co480 2.122 . S
O510 C499 1.272 . S
O511 Co482 2.113 . S
O511 C499 1.245 . S
Co512 H515 2.400 . S
Co512 O516 2.009 . S
Co512 O524 2.115 . S
Co512 O525 2.315 . S
Co512 O536 2.053 . S
Co512 O539 2.094 . S
Co512 O542 2.122 . S
Co513 O516 2.126 . S
Co513 H517 2.388 . S
Co513 O518 2.053 . S
Co513 O521 2.047 1_556 S
Co513 O527 2.113 1_556 S
Co513 O538 2.063 . S
Co514 H515 2.388 . S
Co514 O516 2.053 . S
Co514 O518 2.126 . S
Co514 O523 2.063 . S
Co514 O537 2.047 . S
Co514 O543 2.113 . S
H515 Co512 2.400 . S
H515 Co514 2.388 . S
H515 O516 0.760 . S
O516 Co512 2.009 . S
O516 Co513 2.126 . S
O516 Co514 2.053 . S
O516 H515 0.760 . S
H517 Co513 2.388 . S
H517 O518 0.760 . S
H517 Co519 2.400 . S
O518 Co513 2.053 . S
O518 Co514 2.126 . S
O518 H517 0.760 . S
O518 Co519 2.009 . S
Co519 H517 2.400 . S
Co519 O518 2.009 . S
Co519 O520 2.053 1_556 S
Co519 O522 2.094 . S
Co519 O526 2.122 1_556 S
Co519 O540 2.115 1_556 S
Co519 O541 2.315 . S
O520 Co519 2.053 1_554 S
O520 C532 1.259 . S
O521 Co513 2.047 1_554 S
O521 C532 1.257 . S
O522 Co519 2.094 . S
O522 C533 1.253 . S
O523 Co514 2.063 . S
O523 C533 1.268 . S
O524 Co512 2.115 . S
O524 C534 1.281 . S
O525 Co512 2.315 . S
O525 C534 1.252 . S
O526 Co519 2.122 1_554 S
O526 C535 1.272 . S
O527 Co513 2.113 1_554 S
O527 C535 1.245 . S
C528 O536 1.259 . S
C528 O537 1.257 . S
C529 O538 1.268 . S
C529 O539 1.253 . S
C530 O540 1.281 1_556 S
C530 O541 1.252 . S
C531 O542 1.272 . S
C531 O543 1.245 . S
C532 O520 1.259 . S
C532 O521 1.257 . S
C533 O522 1.253 . S
C533 O523 1.268 . S
C534 O524 1.281 . S
C534 O525 1.252 . S
C535 O526 1.272 . S
C535 O527 1.245 . S
O536 Co512 2.053 . S
O536 C528 1.259 . S
O537 Co514 2.047 . S
O537 C528 1.257 . S
O538 Co513 2.063 . S
O538 C529 1.268 . S
O539 Co512 2.094 . S
O539 C529 1.253 . S
O540 Co519 2.115 1_554 S
O540 C530 1.281 1_554 S
O541 Co519 2.315 . S
O541 C530 1.252 . S
O542 Co512 2.122 . S
O542 C531 1.272 . S
O543 Co514 2.113 . S
O543 C531 1.245 . S
Co544 H547 2.400 . S
Co544 O548 2.009 . S
Co544 O556 2.115 . S
Co544 O557 2.315 . S
Co544 O568 2.053 . S
Co544 O571 2.094 . S
Co544 O574 2.122 . S
Co545 O548 2.126 . S
Co545 H549 2.388 . S
Co545 O550 2.053 . S
Co545 O553 2.047 1_556 S
Co545 O559 2.113 1_556 S
Co545 O570 2.063 . S
Co546 H547 2.388 . S
Co546 O548 2.053 . S
Co546 O550 2.126 . S
Co546 O555 2.063 . S
Co546 O569 2.047 . S
Co546 O575 2.113 . S
H547 Co544 2.400 . S
H547 Co546 2.388 . S
H547 O548 0.760 . S
O548 Co544 2.009 . S
O548 Co545 2.126 . S
O548 Co546 2.053 . S
O548 H547 0.760 . S
H549 Co545 2.388 . S
H549 O550 0.760 . S
H549 Co551 2.400 . S
O550 Co545 2.053 . S
O550 Co546 2.126 . S
O550 H549 0.760 . S
O550 Co551 2.009 . S
Co551 H549 2.400 . S
Co551 O550 2.009 . S
Co551 O552 2.053 1_556 S
Co551 O554 2.094 . S
Co551 O558 2.122 1_556 S
Co551 O572 2.115 1_556 S
Co551 O573 2.315 . S
O552 Co551 2.053 1_554 S
O552 C564 1.259 . S
O553 Co545 2.047 1_554 S
O553 C564 1.257 . S
O554 Co551 2.094 . S
O554 C565 1.253 . S
O555 Co546 2.063 . S
O555 C565 1.268 . S
O556 Co544 2.115 . S
O556 C566 1.281 . S
O557 Co544 2.315 . S
O557 C566 1.252 . S
O558 Co551 2.122 1_554 S
O558 C567 1.272 . S
O559 Co545 2.113 1_554 S
O559 C567 1.245 . S
C560 O568 1.259 . S
C560 O569 1.257 . S
C561 O570 1.268 . S
C561 O571 1.253 . S
C562 O572 1.281 1_556 S
C562 O573 1.252 . S
C563 O574 1.272 . S
C563 O575 1.245 . S
C564 O552 1.259 . S
C564 O553 1.257 . S
C565 O554 1.253 . S
C565 O555 1.268 . S
C566 O556 1.281 . S
C566 O557 1.252 . S
C567 O558 1.272 . S
C567 O559 1.245 . S
O568 Co544 2.053 . S
O568 C560 1.259 . S
O569 Co546 2.047 . S
O569 C560 1.257 . S
O570 Co545 2.063 . S
O570 C561 1.268 . S
O571 Co544 2.094 . S
O571 C561 1.253 . S
O572 Co551 2.115 1_554 S
O572 C562 1.281 1_554 S
O573 Co551 2.315 . S
O573 C562 1.252 . S
O574 Co544 2.122 . S
O574 C563 1.272 . S
O575 Co546 2.113 . S
O575 C563 1.245 . S
H576 C588 0.930 . S
H577 C590 0.930 . S
H578 C591 0.930 . S
H579 C595 0.959 . S
H580 C595 0.959 . S
H581 C595 0.961 . S
H582 C596 0.960 . S
H583 C596 0.961 . S
H584 C596 0.959 . S
H585 C599 0.929 . S
H586 C600 0.931 . S
H587 C602 0.930 . S
C588 H576 0.930 . S
C588 C589 1.399 . S
C588 C593 1.399 . S
C589 C588 1.399 . S
C589 C590 1.376 . S
C590 H577 0.930 . S
C590 C589 1.376 . S
C590 C591 1.388 . S
C591 H578 0.930 . S
C591 C590 1.388 . S
C591 C592 1.390 . S
C592 C591 1.390 . S
C592 C593 1.394 . S
C592 C598 1.465 . S
C593 C588 1.399 . S
C593 C592 1.394 . S
C593 C594 1.516 . S
C594 C593 1.516 . S
C594 C595 1.502 . S
C594 C596 1.561 . S
C594 C597 1.526 . S
C595 H579 0.959 . S
C595 H580 0.959 . S
C595 H581 0.961 . S
C595 C594 1.502 . S
C596 H582 0.960 . S
C596 H583 0.961 . S
C596 H584 0.959 . S
C596 C594 1.561 . S
C597 C594 1.526 . S
C597 C598 1.396 . S
C597 C602 1.390 . S
C598 C592 1.465 . S
C598 C597 1.396 . S
C598 C599 1.399 . S
C599 H585 0.929 . S
C599 C598 1.399 . S
C599 C600 1.385 . S
C600 H586 0.931 . S
C600 C599 1.385 . S
C600 C601 1.389 . S
C601 C600 1.389 . S
C601 C602 1.387 . S
C602 H587 0.930 . S
C602 C597 1.390 . S
C602 C601 1.387 . S
H603 C615 0.930 1_455 S
H604 C617 0.930 . S
H605 C618 0.930 . S
H606 C622 0.959 . S
H607 C622 0.959 . S
H608 C622 0.963 . S
H609 C623 0.958 1_455 S
H610 C623 0.958 1_455 S
H611 C623 0.959 . S
H612 C626 0.929 . S
H613 C627 0.931 . S
H614 C629 0.930 . S
C615 H603 0.930 1_655 S
C615 C616 1.399 . S
C615 C620 1.399 . S
C616 C615 1.399 . S
C616 C617 1.376 . S
C617 H604 0.930 . S
C617 C616 1.376 . S
C617 C618 1.388 . S
C618 H605 0.930 . S
C618 C617 1.388 . S
C618 C619 1.390 . S
C619 C618 1.390 . S
C619 C620 1.394 . S
C619 C625 1.465 . S
C620 C615 1.399 . S
C620 C619 1.394 . S
C620 C621 1.516 . S
C621 C620 1.516 . S
C621 C622 1.502 . S
C621 C623 1.565 . S
C621 C624 1.526 . S
C622 H606 0.959 . S
C622 H607 0.959 . S
C622 H608 0.963 . S
C622 C621 1.502 . S
C623 H609 0.958 1_655 S
C623 H610 0.958 1_655 S
C623 H611 0.959 . S
C623 C621 1.565 . S
C624 C621 1.526 . S
C624 C625 1.396 . S
C624 C629 1.390 1_545 S
C625 C619 1.465 . S
C625 C624 1.396 . S
C625 C626 1.399 1_545 S
C626 H612 0.929 . S
C626 C625 1.399 1_565 S
C626 C627 1.385 . S
C627 H613 0.931 . S
C627 C626 1.385 . S
C627 C628 1.389 . S
C628 C627 1.389 . S
C628 C629 1.387 . S
C629 H614 0.930 . S
C629 C624 1.390 1_565 S
C629 C628 1.387 . S
H630 C642 0.930 . S
H631 C644 0.930 . S
H632 C645 0.930 . S
H633 C649 0.965 . S
H634 C649 0.949 1_445 S
H635 C649 0.975 . S
H636 C650 0.960 . S
H637 C650 0.961 . S
H638 C650 0.959 . S
H639 C653 0.929 . S
H640 C654 0.931 . S
H641 C656 0.930 1_545 S
C642 H630 0.930 . S
C642 C643 1.399 . S
C642 C647 1.399 . S
C643 C642 1.399 . S
C643 C644 1.376 . S
C644 H631 0.930 . S
C644 C643 1.376 . S
C644 C645 1.388 . S
C645 H632 0.930 . S
C645 C644 1.388 . S
C645 C646 1.390 . S
C646 C645 1.390 . S
C646 C647 1.394 . S
C646 C652 1.465 1_655 S
C647 C642 1.399 . S
C647 C646 1.394 . S
C647 C648 1.516 1_655 S
C648 C647 1.516 1_455 S
C648 C649 1.492 1_455 S
C648 C650 1.561 . S
C648 C651 1.526 . S
C649 H633 0.965 . S
C649 H634 0.949 1_665 S
C649 H635 0.975 . S
C649 C648 1.492 1_655 S
C650 H636 0.960 . S
C650 H637 0.961 . S
C650 H638 0.959 . S
C650 C648 1.561 . S
C651 C648 1.526 . S
C651 C652 1.396 . S
C651 C656 1.390 . S
C652 C646 1.465 1_455 S
C652 C651 1.396 . S
C652 C653 1.399 . S
C653 H639 0.929 . S
C653 C652 1.399 . S
C653 C654 1.385 . S
C654 H640 0.931 . S
C654 C653 1.385 . S
C654 C655 1.389 . S
C655 C654 1.389 . S
C655 C656 1.387 . S
C656 H641 0.930 1_565 S
C656 C651 1.390 . S
C656 C655 1.387 . S
H657 C669 0.930 . S
H658 C671 0.930 1_455 S
H659 C672 0.930 . S
H660 C676 0.959 . S
H661 C676 0.959 . S
H662 C676 0.961 . S
H663 C677 0.960 . S
H664 C677 0.961 . S
H665 C677 0.959 . S
H666 C680 0.929 . S
H667 C681 0.931 . S
H668 C683 0.930 . S
C669 H657 0.930 . S
C669 C670 1.399 . S
C669 C674 1.399 . S
C670 C669 1.399 . S
C670 C671 1.376 . S
C671 H658 0.930 1_655 S
C671 C670 1.376 . S
C671 C672 1.388 . S
C672 H659 0.930 . S
C672 C671 1.388 . S
C672 C673 1.390 . S
C673 C672 1.390 . S
C673 C674 1.394 . S
C673 C679 1.465 . S
C674 C669 1.399 . S
C674 C673 1.394 . S
C674 C675 1.516 . S
C675 C674 1.516 . S
C675 C676 1.502 . S
C675 C677 1.561 . S
C675 C678 1.526 . S
C676 H660 0.959 . S
C676 H661 0.959 . S
C676 H662 0.961 . S
C676 C675 1.502 . S
C677 H663 0.960 . S
C677 H664 0.961 . S
C677 H665 0.959 . S
C677 C675 1.561 . S
C678 C675 1.526 . S
C678 C679 1.396 . S
C678 C683 1.390 . S
C679 C673 1.465 . S
C679 C678 1.396 . S
C679 C680 1.399 . S
C680 H666 0.929 . S
C680 C679 1.399 . S
C680 C681 1.385 1_565 S
C681 H667 0.931 . S
C681 C680 1.385 1_545 S
C681 C682 1.389 1_545 S
C682 C681 1.389 1_565 S
C682 C683 1.387 . S
C683 H668 0.930 . S
C683 C678 1.390 . S
C683 C682 1.387 . S
H684 C696 0.930 . S
H685 C698 0.930 . S
H686 C699 0.930 . S
H687 C703 0.959 1_565 S
H688 C703 0.977 1_565 S
H689 C703 0.961 . S
H690 C704 0.960 . S
H691 C704 0.961 . S
H692 C704 0.959 . S
H693 C707 0.929 . S
H694 C708 0.931 . S
H695 C710 0.930 . S
C696 H684 0.930 . S
C696 C697 1.399 . S
C696 C701 1.399 . S
C697 C696 1.399 . S
C697 C698 1.376 . S
C698 H685 0.930 . S
C698 C697 1.376 . S
C698 C699 1.388 . S
C699 H686 0.930 . S
C699 C698 1.388 . S
C699 C700 1.390 . S
C700 C699 1.390 . S
C700 C701 1.394 . S
C700 C706 1.465 1_545 S
C701 C696 1.399 . S
C701 C700 1.394 . S
C701 C702 1.516 . S
C702 C701 1.516 . S
C702 C703 1.502 . S
C702 C704 1.561 . S
C702 C705 1.526 1_545 S
C703 H687 0.959 1_545 S
C703 H688 0.977 1_545 S
C703 H689 0.961 . S
C703 C702 1.502 . S
C704 H690 0.960 . S
C704 H691 0.961 . S
C704 H692 0.959 . S
C704 C702 1.561 . S
C705 C702 1.526 1_565 S
C705 C706 1.396 . S
C705 C710 1.390 . S
C706 C700 1.465 1_565 S
C706 C705 1.396 . S
C706 C707 1.399 . S
C707 H693 0.929 . S
C707 C706 1.399 . S
C707 C708 1.385 . S
C708 H694 0.931 . S
C708 C707 1.385 . S
C708 C709 1.389 . S
C709 C708 1.389 . S
C709 C710 1.387 . S
C710 H695 0.930 . S
C710 C705 1.390 . S
C710 C709 1.387 . S
H711 C723 0.930 . S
H712 C725 0.930 . S
H713 C726 0.930 . S
H714 C730 0.950 1_655 S
H715 C730 0.952 1_655 S
H716 C730 0.973 . S
H717 C731 0.960 . S
H718 C731 0.961 . S
H719 C731 0.959 . S
H720 C734 0.925 1_455 S
H721 C735 0.931 . S
H722 C737 0.930 . S
C723 H711 0.930 . S
C723 C724 1.399 . S
C723 C728 1.399 . S
C724 C723 1.399 . S
C724 C725 1.376 . S
C725 H712 0.930 . S
C725 C724 1.376 . S
C725 C726 1.388 . S
C726 H713 0.930 . S
C726 C725 1.388 . S
C726 C727 1.390 . S
C727 C726 1.390 . S
C727 C728 1.394 . S
C727 C733 1.465 . S
C728 C723 1.399 . S
C728 C727 1.394 . S
C728 C729 1.516 . S
C729 C728 1.516 . S
C729 C730 1.507 . S
C729 C731 1.561 . S
C729 C732 1.526 1_455 S
C730 H714 0.950 1_455 S
C730 H715 0.952 1_455 S
C730 H716 0.973 . S
C730 C729 1.507 . S
C731 H717 0.960 . S
C731 H718 0.961 . S
C731 H719 0.959 . S
C731 C729 1.561 . S
C732 C729 1.526 1_655 S
C732 C733 1.396 1_655 S
C732 C737 1.390 . S
C733 C727 1.465 . S
C733 C732 1.396 1_455 S
C733 C734 1.367 1_455 S
C734 H720 0.925 1_655 S
C734 C733 1.367 1_655 S
C734 C735 1.423 . S
C735 H721 0.931 . S
C735 C734 1.423 . S
C735 C736 1.389 . S
C736 C735 1.389 . S
C736 C737 1.387 . S
C737 H722 0.930 . S
C737 C732 1.390 . S
C737 C736 1.387 . S
H738 C750 0.930 . S
H739 C752 0.930 . S
H740 C753 0.930 . S
H741 C757 0.959 . S
H742 C757 0.959 . S
H743 C757 0.961 . S
H744 C758 0.960 . S
H745 C758 0.961 . S
H746 C758 0.959 . S
H747 C761 0.929 . S
H748 C762 0.931 . S
H749 C764 0.930 . S
C750 H738 0.930 . S
C750 C751 1.399 . S
C750 C755 1.399 . S
C751 C750 1.399 . S
C751 C752 1.376 . S
C752 H739 0.930 . S
C752 C751 1.376 . S
C752 C753 1.388 . S
C753 H740 0.930 . S
C753 C752 1.388 . S
C753 C754 1.390 . S
C754 C753 1.390 . S
C754 C755 1.394 . S
C754 C760 1.465 . S
C755 C750 1.399 . S
C755 C754 1.394 . S
C755 C756 1.516 . S
C756 C755 1.516 . S
C756 C757 1.502 . S
C756 C758 1.561 . S
C756 C759 1.526 . S
C757 H741 0.959 . S
C757 H742 0.959 . S
C757 H743 0.961 . S
C757 C756 1.502 . S
C758 H744 0.960 . S
C758 H745 0.961 . S
C758 H746 0.959 . S
C758 C756 1.561 . S
C759 C756 1.526 . S
C759 C760 1.396 . S
C759 C764 1.390 . S
C760 C754 1.465 . S
C760 C759 1.396 . S
C760 C761 1.399 1_554 S
C761 H747 0.929 . S
C761 C760 1.399 1_556 S
C761 C762 1.385 . S
C762 H748 0.931 . S
C762 C761 1.385 . S
C762 C763 1.389 1_556 S
C763 C762 1.389 1_554 S
C763 C764 1.387 . S
C764 H749 0.930 . S
C764 C759 1.390 . S
C764 C763 1.387 . S
H765 C777 0.930 . S
H766 C779 0.930 . S
H767 C780 0.930 . S
H768 C784 0.959 1_554 S
H769 C784 0.959 . S
H770 C784 0.961 . S
H771 C785 0.960 . S
H772 C785 0.961 . S
H773 C785 0.959 . S
H774 C788 0.929 . S
H775 C789 0.931 . S
H776 C791 0.930 . S
C777 H765 0.930 . S
C777 C778 1.399 . S
C777 C782 1.399 . S
C778 C777 1.399 . S
C778 C779 1.376 . S
C779 H766 0.930 . S
C779 C778 1.376 . S
C779 C780 1.388 . S
C780 H767 0.930 . S
C780 C779 1.388 . S
C780 C781 1.390 . S
C781 C780 1.390 . S
C781 C782 1.394 . S
C781 C787 1.465 . S
C782 C777 1.399 . S
C782 C781 1.394 . S
C782 C783 1.516 . S
C783 C782 1.516 . S
C783 C784 1.502 1_554 S
C783 C785 1.561 1_554 S
C783 C786 1.526 . S
C784 H768 0.959 1_556 S
C784 H769 0.959 . S
C784 H770 0.961 . S
C784 C783 1.502 1_556 S
C785 H771 0.960 . S
C785 H772 0.961 . S
C785 H773 0.959 . S
C785 C783 1.561 1_556 S
C786 C783 1.526 . S
C786 C787 1.396 . S
C786 C791 1.390 1_554 S
C787 C781 1.465 . S
C787 C786 1.396 . S
C787 C788 1.399 . S
C788 H774 0.929 . S
C788 C787 1.399 . S
C788 C789 1.385 . S
C789 H775 0.931 . S
C789 C788 1.385 . S
C789 C790 1.389 . S
C790 C789 1.389 . S
C790 C791 1.387 1_554 S
C791 H776 0.930 . S
C791 C786 1.390 1_556 S
C791 C790 1.387 1_556 S
H792 C804 0.930 . S
H793 C806 0.930 . S
H794 C807 0.930 . S
H795 C811 0.959 . S
H796 C811 0.959 . S
H797 C811 0.961 . S
H798 C812 0.960 . S
H799 C812 0.961 . S
H800 C812 0.959 1_554 S
H801 C815 0.929 . S
H802 C816 0.931 . S
H803 C818 0.930 . S
C804 H792 0.930 . S
C804 C805 1.399 1_556 S
C804 C809 1.399 1_556 S
C805 C804 1.399 1_554 S
C805 C806 1.376 . S
C806 H793 0.930 . S
C806 C805 1.376 . S
C806 C807 1.388 . S
C807 H794 0.930 . S
C807 C806 1.388 . S
C807 C808 1.390 . S
C808 C807 1.390 . S
C808 C809 1.394 . S
C808 C814 1.465 . S
C809 C804 1.399 1_554 S
C809 C808 1.394 . S
C809 C810 1.516 . S
C810 C809 1.516 . S
C810 C811 1.502 1_554 S
C810 C812 1.561 1_554 S
C810 C813 1.526 . S
C811 H795 0.959 . S
C811 H796 0.959 . S
C811 H797 0.961 . S
C811 C810 1.502 1_556 S
C812 H798 0.960 . S
C812 H799 0.961 . S
C812 H800 0.959 1_556 S
C812 C810 1.561 1_556 S
C813 C810 1.526 . S
C813 C814 1.396 . S
C813 C818 1.390 . S
C814 C808 1.465 . S
C814 C813 1.396 . S
C814 C815 1.399 . S
C815 H801 0.929 . S
C815 C814 1.399 . S
C815 C816 1.385 . S
C816 H802 0.931 . S
C816 C815 1.385 . S
C816 C817 1.389 . S
C817 C816 1.389 . S
C817 C818 1.387 . S
C818 H803 0.930 . S
C818 C813 1.390 . S
C818 C817 1.387 . S
H819 C831 0.930 . S
H820 C833 0.930 . S
H821 C834 0.930 . S
H822 C838 0.959 . S
H823 C838 0.959 . S
H824 C838 0.961 . S
H825 C839 0.960 . S
H826 C839 0.961 . S
H827 C839 0.959 . S
H828 C842 0.929 . S
H829 C843 0.931 . S
H830 C845 0.930 . S
C831 H819 0.930 . S
C831 C832 1.399 . S
C831 C836 1.399 . S
C832 C831 1.399 . S
C832 C833 1.376 . S
C833 H820 0.930 . S
C833 C832 1.376 . S
C833 C834 1.388 . S
C834 H821 0.930 . S
C834 C833 1.388 . S
C834 C835 1.390 . S
C835 C834 1.390 . S
C835 C836 1.394 . S
C835 C841 1.465 . S
C836 C831 1.399 . S
C836 C835 1.394 . S
C836 C837 1.516 . S
C837 C836 1.516 . S
C837 C838 1.502 . S
C837 C839 1.561 . S
C837 C840 1.526 . S
C838 H822 0.959 . S
C838 H823 0.959 . S
C838 H824 0.961 . S
C838 C837 1.502 . S
C839 H825 0.960 . S
C839 H826 0.961 . S
C839 H827 0.959 . S
C839 C837 1.561 . S
C840 C837 1.526 . S
C840 C841 1.396 . S
C840 C845 1.390 . S
C841 C835 1.465 . S
C841 C840 1.396 . S
C841 C842 1.399 . S
C842 H828 0.929 . S
C842 C841 1.399 . S
C842 C843 1.385 . S
C843 H829 0.931 . S
C843 C842 1.385 . S
C843 C844 1.389 . S
C844 C843 1.389 . S
C844 C845 1.387 . S
C845 H830 0.930 . S
C845 C840 1.390 . S
C845 C844 1.387 . S
H846 C858 0.930 . S
H847 C860 0.930 . S
H848 C861 0.930 . S
H849 C865 0.959 . S
H850 C865 0.959 . S
H851 C865 0.961 . S
H852 C866 0.960 . S
H853 C866 0.961 . S
H854 C866 0.959 . S
H855 C869 0.929 . S
H856 C870 0.931 . S
H857 C872 0.930 . S
C858 H846 0.930 . S
C858 C859 1.399 . S
C858 C863 1.399 . S
C859 C858 1.399 . S
C859 C860 1.376 . S
C860 H847 0.930 . S
C860 C859 1.376 . S
C860 C861 1.388 . S
C861 H848 0.930 . S
C861 C860 1.388 . S
C861 C862 1.390 . S
C862 C861 1.390 . S
C862 C863 1.394 . S
C862 C868 1.465 . S
C863 C858 1.399 . S
C863 C862 1.394 . S
C863 C864 1.516 . S
C864 C863 1.516 . S
C864 C865 1.502 . S
C864 C866 1.561 . S
C864 C867 1.526 . S
C865 H849 0.959 . S
C865 H850 0.959 . S
C865 H851 0.961 . S
C865 C864 1.502 . S
C866 H852 0.960 . S
C866 H853 0.961 . S
C866 H854 0.959 . S
C866 C864 1.561 . S
C867 C864 1.526 . S
C867 C868 1.396 . S
C867 C872 1.390 . S
C868 C862 1.465 . S
C868 C867 1.396 . S
C868 C869 1.399 . S
C869 H855 0.929 . S
C869 C868 1.399 . S
C869 C870 1.385 . S
C870 H856 0.931 . S
C870 C869 1.385 . S
C870 C871 1.389 . S
C871 C870 1.389 . S
C871 C872 1.387 . S
C872 H857 0.930 . S
C872 C867 1.390 . S
C872 C871 1.387 . S
H873 C885 0.930 . S
H874 C887 0.930 . S
H875 C888 0.930 . S
H876 C892 0.959 . S
H877 C892 0.959 . S
H878 C892 0.961 . S
H879 C893 0.960 . S
H880 C893 0.961 . S
H881 C893 0.959 . S
H882 C896 0.929 . S
H883 C897 0.931 . S
H884 C899 0.930 . S
C885 H873 0.930 . S
C885 C886 1.399 . S
C885 C890 1.399 . S
C886 C885 1.399 . S
C886 C887 1.376 . S
C887 H874 0.930 . S
C887 C886 1.376 . S
C887 C888 1.388 . S
C888 H875 0.930 . S
C888 C887 1.388 . S
C888 C889 1.390 . S
C889 C888 1.390 . S
C889 C890 1.394 . S
C889 C895 1.465 . S
C890 C885 1.399 . S
C890 C889 1.394 . S
C890 C891 1.516 . S
C891 C890 1.516 . S
C891 C892 1.502 . S
C891 C893 1.561 . S
C891 C894 1.526 . S
C892 H876 0.959 . S
C892 H877 0.959 . S
C892 H878 0.961 . S
C892 C891 1.502 . S
C893 H879 0.960 . S
C893 H880 0.961 . S
C893 H881 0.959 . S
C893 C891 1.561 . S
C894 C891 1.526 . S
C894 C895 1.396 . S
C894 C899 1.390 . S
C895 C889 1.465 . S
C895 C894 1.396 . S
C895 C896 1.399 . S
C896 H882 0.929 . S
C896 C895 1.399 . S
C896 C897 1.385 . S
C897 H883 0.931 . S
C897 C896 1.385 . S
C897 C898 1.389 . S
C898 C897 1.389 . S
C898 C899 1.387 . S
C899 H884 0.930 . S
C899 C894 1.390 . S
C899 C898 1.387 . S
H900 C912 0.930 . S
H901 C914 0.930 . S
H902 C915 0.930 . S
H903 C919 0.959 . S
H904 C919 0.959 . S
H905 C919 0.961 . S
H906 C920 0.960 . S
H907 C920 0.961 . S
H908 C920 0.959 . S
H909 C923 0.929 . S
H910 C924 0.931 . S
H911 C926 0.930 . S
C912 H900 0.930 . S
C912 C913 1.399 . S
C912 C917 1.399 . S
C913 C912 1.399 . S
C913 C914 1.376 . S
C914 H901 0.930 . S
C914 C913 1.376 . S
C914 C915 1.388 . S
C915 H902 0.930 . S
C915 C914 1.388 . S
C915 C916 1.390 . S
C916 C915 1.390 . S
C916 C917 1.394 . S
C916 C922 1.465 . S
C917 C912 1.399 . S
C917 C916 1.394 . S
C917 C918 1.516 . S
C918 C917 1.516 . S
C918 C919 1.502 . S
C918 C920 1.561 . S
C918 C921 1.526 . S
C919 H903 0.959 . S
C919 H904 0.959 . S
C919 H905 0.961 . S
C919 C918 1.502 . S
C920 H906 0.960 . S
C920 H907 0.961 . S
C920 H908 0.959 . S
C920 C918 1.561 . S
C921 C918 1.526 . S
C921 C922 1.396 . S
C921 C926 1.390 . S
C922 C916 1.465 . S
C922 C921 1.396 . S
C922 C923 1.399 . S
C923 H909 0.929 . S
C923 C922 1.399 . S
C923 C924 1.385 . S
C924 H910 0.931 . S
C924 C923 1.385 . S
C924 C925 1.389 . S
C925 C924 1.389 . S
C925 C926 1.387 . S
C926 H911 0.930 . S
C926 C921 1.390 . S
C926 C925 1.387 . S
H927 C939 0.930 . S
H928 C941 0.930 . S
H929 C942 0.930 . S
H930 C946 0.959 . S
H931 C946 0.959 . S
H932 C946 0.961 . S
H933 C947 0.960 . S
H934 C947 0.961 . S
H935 C947 0.959 . S
H936 C950 0.929 . S
H937 C951 0.931 . S
H938 C953 0.930 . S
C939 H927 0.930 . S
C939 C940 1.399 . S
C939 C944 1.399 . S
C940 C939 1.399 . S
C940 C941 1.376 . S
C941 H928 0.930 . S
C941 C940 1.376 . S
C941 C942 1.388 . S
C942 H929 0.930 . S
C942 C941 1.388 . S
C942 C943 1.390 . S
C943 C942 1.390 . S
C943 C944 1.394 . S
C943 C949 1.465 . S
C944 C939 1.399 . S
C944 C943 1.394 . S
C944 C945 1.516 . S
C945 C944 1.516 . S
C945 C946 1.502 . S
C945 C947 1.561 . S
C945 C948 1.526 . S
C946 H930 0.959 . S
C946 H931 0.959 . S
C946 H932 0.961 . S
C946 C945 1.502 . S
C947 H933 0.960 . S
C947 H934 0.961 . S
C947 H935 0.959 . S
C947 C945 1.561 . S
C948 C945 1.526 . S
C948 C949 1.396 . S
C948 C953 1.390 . S
C949 C943 1.465 . S
C949 C948 1.396 . S
C949 C950 1.399 . S
C950 H936 0.929 . S
C950 C949 1.399 . S
C950 C951 1.385 . S
C951 H937 0.931 . S
C951 C950 1.385 . S
C951 C952 1.389 . S
C952 C951 1.389 . S
C952 C953 1.387 . S
C953 H938 0.930 . S
C953 C948 1.390 . S
C953 C952 1.387 . S
H954 C966 0.930 . S
H955 C968 0.930 . S
H956 C969 0.930 . S
H957 C973 0.959 . S
H958 C973 0.959 . S
H959 C973 0.961 . S
H960 C974 0.960 . S
H961 C974 0.961 . S
H962 C974 0.959 . S
H963 C977 0.929 . S
H964 C978 0.931 . S
H965 C980 0.930 . S
C966 H954 0.930 . S
C966 C967 1.399 . S
C966 C971 1.399 . S
C967 C966 1.399 . S
C967 C968 1.376 . S
C968 H955 0.930 . S
C968 C967 1.376 . S
C968 C969 1.388 . S
C969 H956 0.930 . S
C969 C968 1.388 . S
C969 C970 1.390 . S
C970 C969 1.390 . S
C970 C971 1.394 . S
C970 C976 1.465 . S
C971 C966 1.399 . S
C971 C970 1.394 . S
C971 C972 1.516 . S
C972 C971 1.516 . S
C972 C973 1.502 . S
C972 C974 1.561 . S
C972 C975 1.526 . S
C973 H957 0.959 . S
C973 H958 0.959 . S
C973 H959 0.961 . S
C973 C972 1.502 . S
C974 H960 0.960 . S
C974 H961 0.961 . S
C974 H962 0.959 . S
C974 C972 1.561 . S
C975 C972 1.526 . S
C975 C976 1.396 . S
C975 C980 1.390 . S
C976 C970 1.465 . S
C976 C975 1.396 . S
C976 C977 1.399 . S
C977 H963 0.929 . S
C977 C976 1.399 . S
C977 C978 1.385 . S
C978 H964 0.931 . S
C978 C977 1.385 . S
C978 C979 1.389 . S
C979 C978 1.389 . S
C979 C980 1.387 . S
C980 H965 0.930 . S
C980 C975 1.390 . S
C980 C979 1.387 . S
H981 C993 0.930 . S
H982 C995 0.930 . S
H983 C996 0.930 . S
H984 C1000 0.959 . S
H985 C1000 0.959 . S
H986 C1000 0.961 . S
H987 C1001 0.960 . S
H988 C1001 0.961 . S
H989 C1001 0.959 1_556 S
H990 C1004 0.929 . S
H991 C1005 0.931 . S
H992 C1007 0.930 . S
C993 H981 0.930 . S
C993 C994 1.399 1_554 S
C993 C998 1.399 1_554 S
C994 C993 1.399 1_556 S
C994 C995 1.376 . S
C995 H982 0.930 . S
C995 C994 1.376 . S
C995 C996 1.388 . S
C996 H983 0.930 . S
C996 C995 1.388 . S
C996 C997 1.390 . S
C997 C996 1.390 . S
C997 C998 1.394 . S
C997 C1003 1.465 . S
C998 C993 1.399 1_556 S
C998 C997 1.394 . S
C998 C999 1.516 . S
C999 C998 1.516 . S
C999 C1000 1.502 1_556 S
C999 C1001 1.561 1_556 S
C999 C1002 1.526 . S
C1000 H984 0.959 . S
C1000 H985 0.959 . S
C1000 H986 0.961 . S
C1000 C999 1.502 1_554 S
C1001 H987 0.960 . S
C1001 H988 0.961 . S
C1001 H989 0.959 1_554 S
C1001 C999 1.561 1_554 S
C1002 C999 1.526 . S
C1002 C1003 1.396 . S
C1002 C1007 1.390 . S
C1003 C997 1.465 . S
C1003 C1002 1.396 . S
C1003 C1004 1.399 . S
C1004 H990 0.929 . S
C1004 C1003 1.399 . S
C1004 C1005 1.385 . S
C1005 H991 0.931 . S
C1005 C1004 1.385 . S
C1005 C1006 1.389 . S
C1006 C1005 1.389 . S
C1006 C1007 1.387 . S
C1007 H992 0.930 . S
C1007 C1002 1.390 . S
C1007 C1006 1.387 . S
H1008 C1020 0.930 . S
H1009 C1022 0.930 . S
H1010 C1023 0.930 . S
H1011 C1027 0.959 . S
H1012 C1027 0.959 . S
H1013 C1027 0.961 . S
H1014 C1028 0.960 . S
H1015 C1028 0.961 . S
H1016 C1028 0.959 . S
H1017 C1031 0.929 . S
H1018 C1032 0.931 . S
H1019 C1034 0.930 . S
C1020 H1008 0.930 . S
C1020 C1021 1.399 . S
C1020 C1025 1.399 . S
C1021 C1020 1.399 . S
C1021 C1022 1.376 . S
C1022 H1009 0.930 . S
C1022 C1021 1.376 . S
C1022 C1023 1.388 . S
C1023 H1010 0.930 . S
C1023 C1022 1.388 . S
C1023 C1024 1.390 . S
C1024 C1023 1.390 . S
C1024 C1025 1.394 . S
C1024 C1030 1.465 . S
C1025 C1020 1.399 . S
C1025 C1024 1.394 . S
C1025 C1026 1.516 . S
C1026 C1025 1.516 . S
C1026 C1027 1.502 . S
C1026 C1028 1.561 . S
C1026 C1029 1.526 . S
C1027 H1011 0.959 . S
C1027 H1012 0.959 . S
C1027 H1013 0.961 . S
C1027 C1026 1.502 . S
C1028 H1014 0.960 . S
C1028 H1015 0.961 . S
C1028 H1016 0.959 . S
C1028 C1026 1.561 . S
C1029 C1026 1.526 . S
C1029 C1030 1.396 . S
C1029 C1034 1.390 . S
C1030 C1024 1.465 . S
C1030 C1029 1.396 . S
C1030 C1031 1.399 1_556 S
C1031 H1017 0.929 . S
C1031 C1030 1.399 1_554 S
C1031 C1032 1.385 . S
C1032 H1018 0.931 . S
C1032 C1031 1.385 . S
C1032 C1033 1.389 1_554 S
C1033 C1032 1.389 1_556 S
C1033 C1034 1.387 . S
C1034 H1019 0.930 . S
C1034 C1029 1.390 . S
C1034 C1033 1.387 . S
H1035 C1047 0.930 . S
H1036 C1049 0.930 . S
H1037 C1050 0.930 1_554 S
H1038 C1054 0.959 . S
H1039 C1054 0.959 . S
H1040 C1054 0.961 . S
H1041 C1055 0.960 . S
H1042 C1055 0.961 . S
H1043 C1055 0.959 . S
H1044 C1058 0.929 . S
H1045 C1059 0.931 . S
H1046 C1061 0.930 . S
C1047 H1035 0.930 . S
C1047 C1048 1.399 . S
C1047 C1052 1.399 . S
C1048 C1047 1.399 . S
C1048 C1049 1.376 . S
C1049 H1036 0.930 . S
C1049 C1048 1.376 . S
C1049 C1050 1.388 . S
C1050 H1037 0.930 1_556 S
C1050 C1049 1.388 . S
C1050 C1051 1.390 . S
C1051 C1050 1.390 . S
C1051 C1052 1.394 . S
C1051 C1057 1.465 . S
C1052 C1047 1.399 . S
C1052 C1051 1.394 . S
C1052 C1053 1.516 . S
C1053 C1052 1.516 . S
C1053 C1054 1.502 . S
C1053 C1055 1.561 . S
C1053 C1056 1.526 . S
C1054 H1038 0.959 . S
C1054 H1039 0.959 . S
C1054 H1040 0.961 . S
C1054 C1053 1.502 . S
C1055 H1041 0.960 . S
C1055 H1042 0.961 . S
C1055 H1043 0.959 . S
C1055 C1053 1.561 . S
C1056 C1053 1.526 . S
C1056 C1057 1.396 . S
C1056 C1061 1.390 . S
C1057 C1051 1.465 . S
C1057 C1056 1.396 . S
C1057 C1058 1.399 1_556 S
C1058 H1044 0.929 . S
C1058 C1057 1.399 1_554 S
C1058 C1059 1.385 . S
C1059 H1045 0.931 . S
C1059 C1058 1.385 . S
C1059 C1060 1.389 1_554 S
C1060 C1059 1.389 1_556 S
C1060 C1061 1.387 . S
C1061 H1046 0.930 . S
C1061 C1056 1.390 . S
C1061 C1060 1.387 . S
H1062 C1074 0.930 . S
H1063 C1076 0.930 . S
H1064 C1077 0.930 . S
H1065 C1081 0.959 . S
H1066 C1081 0.959 . S
H1067 C1081 0.961 . S
H1068 C1082 0.960 . S
H1069 C1082 0.961 . S
H1070 C1082 0.959 . S
H1071 C1085 0.929 . S
H1072 C1086 0.931 . S
H1073 C1088 0.930 . S
C1074 H1062 0.930 . S
C1074 C1075 1.399 . S
C1074 C1079 1.399 . S
C1075 C1074 1.399 . S
C1075 C1076 1.376 . S
C1076 H1063 0.930 . S
C1076 C1075 1.376 . S
C1076 C1077 1.388 . S
C1077 H1064 0.930 . S
C1077 C1076 1.388 . S
C1077 C1078 1.390 . S
C1078 C1077 1.390 . S
C1078 C1079 1.394 . S
C1078 C1084 1.465 . S
C1079 C1074 1.399 . S
C1079 C1078 1.394 . S
C1079 C1080 1.516 . S
C1080 C1079 1.516 . S
C1080 C1081 1.502 . S
C1080 C1082 1.561 . S
C1080 C1083 1.526 . S
C1081 H1065 0.959 . S
C1081 H1066 0.959 . S
C1081 H1067 0.961 . S
C1081 C1080 1.502 . S
C1082 H1068 0.960 . S
C1082 H1069 0.961 . S
C1082 H1070 0.959 . S
C1082 C1080 1.561 . S
C1083 C1080 1.526 . S
C1083 C1084 1.396 . S
C1083 C1088 1.390 . S
C1084 C1078 1.465 . S
C1084 C1083 1.396 . S
C1084 C1085 1.399 . S
C1085 H1071 0.929 . S
C1085 C1084 1.399 . S
C1085 C1086 1.385 . S
C1086 H1072 0.931 . S
C1086 C1085 1.385 . S
C1086 C1087 1.389 . S
C1087 C1086 1.389 . S
C1087 C1088 1.387 . S
C1088 H1073 0.930 . S
C1088 C1083 1.390 . S
C1088 C1087 1.387 . S
H1089 C1101 0.930 . S
H1090 C1103 0.930 . S
H1091 C1104 0.930 . S
H1092 C1108 0.959 . S
H1093 C1108 0.959 . S
H1094 C1108 0.961 . S
H1095 C1109 0.960 . S
H1096 C1109 0.961 . S
H1097 C1109 0.959 . S
H1098 C1112 0.929 . S
H1099 C1113 0.931 . S
H1100 C1115 0.930 . S
C1101 H1089 0.930 . S
C1101 C1102 1.399 . S
C1101 C1106 1.399 . S
C1102 C1101 1.399 . S
C1102 C1103 1.376 . S
C1103 H1090 0.930 . S
C1103 C1102 1.376 . S
C1103 C1104 1.388 . S
C1104 H1091 0.930 . S
C1104 C1103 1.388 . S
C1104 C1105 1.390 . S
C1105 C1104 1.390 . S
C1105 C1106 1.394 . S
C1105 C1111 1.465 . S
C1106 C1101 1.399 . S
C1106 C1105 1.394 . S
C1106 C1107 1.516 . S
C1107 C1106 1.516 . S
C1107 C1108 1.502 . S
C1107 C1109 1.561 . S
C1107 C1110 1.526 . S
C1108 H1092 0.959 . S
C1108 H1093 0.959 . S
C1108 H1094 0.961 . S
C1108 C1107 1.502 . S
C1109 H1095 0.960 . S
C1109 H1096 0.961 . S
C1109 H1097 0.959 . S
C1109 C1107 1.561 . S
C1110 C1107 1.526 . S
C1110 C1111 1.396 . S
C1110 C1115 1.390 . S
C1111 C1105 1.465 . S
C1111 C1110 1.396 . S
C1111 C1112 1.399 . S
C1112 H1098 0.929 . S
C1112 C1111 1.399 . S
C1112 C1113 1.385 . S
C1113 H1099 0.931 . S
C1113 C1112 1.385 . S
C1113 C1114 1.389 . S
C1114 C1113 1.389 . S
C1114 C1115 1.387 . S
C1115 H1100 0.930 . S
C1115 C1110 1.390 . S
C1115 C1114 1.387 . S
H1116 C1128 0.930 . S
H1117 C1130 0.930 . S
H1118 C1131 0.930 . S
H1119 C1135 0.959 . S
H1120 C1135 0.959 . S
H1121 C1135 0.961 . S
H1122 C1136 0.960 . S
H1123 C1136 0.961 . S
H1124 C1136 0.959 . S
H1125 C1139 0.929 . S
H1126 C1140 0.931 . S
H1127 C1142 0.930 . S
C1128 H1116 0.930 . S
C1128 C1129 1.399 . S
C1128 C1133 1.399 . S
C1129 C1128 1.399 . S
C1129 C1130 1.376 . S
C1130 H1117 0.930 . S
C1130 C1129 1.376 . S
C1130 C1131 1.388 . S
C1131 H1118 0.930 . S
C1131 C1130 1.388 . S
C1131 C1132 1.390 . S
C1132 C1131 1.390 . S
C1132 C1133 1.394 . S
C1132 C1138 1.465 . S
C1133 C1128 1.399 . S
C1133 C1132 1.394 . S
C1133 C1134 1.516 . S
C1134 C1133 1.516 . S
C1134 C1135 1.502 . S
C1134 C1136 1.561 . S
C1134 C1137 1.526 . S
C1135 H1119 0.959 . S
C1135 H1120 0.959 . S
C1135 H1121 0.961 . S
C1135 C1134 1.502 . S
C1136 H1122 0.960 . S
C1136 H1123 0.961 . S
C1136 H1124 0.959 . S
C1136 C1134 1.561 . S
C1137 C1134 1.526 . S
C1137 C1138 1.396 . S
C1137 C1142 1.390 . S
C1138 C1132 1.465 . S
C1138 C1137 1.396 . S
C1138 C1139 1.399 . S
C1139 H1125 0.929 . S
C1139 C1138 1.399 . S
C1139 C1140 1.385 . S
C1140 H1126 0.931 . S
C1140 C1139 1.385 . S
C1140 C1141 1.389 . S
C1141 C1140 1.389 . S
C1141 C1142 1.387 . S
C1142 H1127 0.930 . S
C1142 C1137 1.390 . S
C1142 C1141 1.387 . S
H1143 C1155 0.930 . S
H1144 C1157 0.930 . S
H1145 C1158 0.930 1_554 S
H1146 C1162 0.959 . S
H1147 C1162 0.959 . S
H1148 C1162 0.961 . S
H1149 C1163 0.960 . S
H1150 C1163 0.961 1_554 S
H1151 C1163 0.959 1_554 S
H1152 C1166 0.929 . S
H1153 C1167 0.931 . S
H1154 C1169 0.930 . S
C1155 H1143 0.930 . S
C1155 C1156 1.399 . S
C1155 C1160 1.399 . S
C1156 C1155 1.399 . S
C1156 C1157 1.376 . S
C1157 H1144 0.930 . S
C1157 C1156 1.376 . S
C1157 C1158 1.388 . S
C1158 H1145 0.930 1_556 S
C1158 C1157 1.388 . S
C1158 C1159 1.390 . S
C1159 C1158 1.390 . S
C1159 C1160 1.394 . S
C1159 C1165 1.465 1_556 S
C1160 C1155 1.399 . S
C1160 C1159 1.394 . S
C1160 C1161 1.516 . S
C1161 C1160 1.516 . S
C1161 C1162 1.502 . S
C1161 C1163 1.561 . S
C1161 C1164 1.526 1_556 S
C1162 H1146 0.959 . S
C1162 H1147 0.959 . S
C1162 H1148 0.961 . S
C1162 C1161 1.502 . S
C1163 H1149 0.960 . S
C1163 H1150 0.961 1_556 S
C1163 H1151 0.959 1_556 S
C1163 C1161 1.561 . S
C1164 C1161 1.526 1_554 S
C1164 C1165 1.396 . S
C1164 C1169 1.390 . S
C1165 C1159 1.465 1_554 S
C1165 C1164 1.396 . S
C1165 C1166 1.399 . S
C1166 H1152 0.929 . S
C1166 C1165 1.399 . S
C1166 C1167 1.385 . S
C1167 H1153 0.931 . S
C1167 C1166 1.385 . S
C1167 C1168 1.389 . S
C1168 C1167 1.389 . S
C1168 C1169 1.387 . S
C1169 H1154 0.930 . S
C1169 C1164 1.390 . S
C1169 C1168 1.387 . S
H1170 C1182 0.930 . S
H1171 C1184 0.930 . S
H1172 C1185 0.930 . S
H1173 C1189 0.959 . S
H1174 C1189 0.959 . S
H1175 C1189 0.961 . S
H1176 C1190 0.960 . S
H1177 C1190 0.961 . S
H1178 C1190 0.959 . S
H1179 C1193 0.929 1_554 S
H1180 C1194 0.931 . S
H1181 C1196 0.930 . S
C1182 H1170 0.930 . S
C1182 C1183 1.399 . S
C1182 C1187 1.399 . S
C1183 C1182 1.399 . S
C1183 C1184 1.376 . S
C1184 H1171 0.930 . S
C1184 C1183 1.376 . S
C1184 C1185 1.388 . S
C1185 H1172 0.930 . S
C1185 C1184 1.388 . S
C1185 C1186 1.390 . S
C1186 C1185 1.390 . S
C1186 C1187 1.394 . S
C1186 C1192 1.465 1_554 S
C1187 C1182 1.399 . S
C1187 C1186 1.394 . S
C1187 C1188 1.516 1_554 S
C1188 C1187 1.516 1_556 S
C1188 C1189 1.502 . S
C1188 C1190 1.561 . S
C1188 C1191 1.526 . S
C1189 H1173 0.959 . S
C1189 H1174 0.959 . S
C1189 H1175 0.961 . S
C1189 C1188 1.502 . S
C1190 H1176 0.960 . S
C1190 H1177 0.961 . S
C1190 H1178 0.959 . S
C1190 C1188 1.561 . S
C1191 C1188 1.526 . S
C1191 C1192 1.396 . S
C1191 C1196 1.390 . S
C1192 C1186 1.465 1_556 S
C1192 C1191 1.396 . S
C1192 C1193 1.399 . S
C1193 H1179 0.929 1_556 S
C1193 C1192 1.399 . S
C1193 C1194 1.385 . S
C1194 H1180 0.931 . S
C1194 C1193 1.385 . S
C1194 C1195 1.389 . S
C1195 C1194 1.389 . S
C1195 C1196 1.387 . S
C1196 H1181 0.930 . S
C1196 C1191 1.390 . S
C1196 C1195 1.387 . S
H1197 C1209 0.930 . S
H1198 C1211 0.930 . S
H1199 C1212 0.930 . S
H1200 C1216 0.959 . S
H1201 C1216 0.959 . S
H1202 C1216 0.961 . S
H1203 C1217 0.960 1_556 S
H1204 C1217 0.961 . S
H1205 C1217 0.959 . S
H1206 C1220 0.929 . S
H1207 C1221 0.931 . S
H1208 C1223 0.930 . S
C1209 H1197 0.930 . S
C1209 C1210 1.399 . S
C1209 C1214 1.399 . S
C1210 C1209 1.399 . S
C1210 C1211 1.376 . S
C1211 H1198 0.930 . S
C1211 C1210 1.376 . S
C1211 C1212 1.388 . S
C1212 H1199 0.930 . S
C1212 C1211 1.388 . S
C1212 C1213 1.390 . S
C1213 C1212 1.390 . S
C1213 C1214 1.394 . S
C1213 C1219 1.465 1_556 S
C1214 C1209 1.399 . S
C1214 C1213 1.394 . S
C1214 C1215 1.516 . S
C1215 C1214 1.516 . S
C1215 C1216 1.502 . S
C1215 C1217 1.561 1_556 S
C1215 C1218 1.526 1_556 S
C1216 H1200 0.959 . S
C1216 H1201 0.959 . S
C1216 H1202 0.961 . S
C1216 C1215 1.502 . S
C1217 H1203 0.960 1_554 S
C1217 H1204 0.961 . S
C1217 H1205 0.959 . S
C1217 C1215 1.561 1_554 S
C1218 C1215 1.526 1_554 S
C1218 C1219 1.396 . S
C1218 C1223 1.390 . S
C1219 C1213 1.465 1_554 S
C1219 C1218 1.396 . S
C1219 C1220 1.399 . S
C1220 H1206 0.929 . S
C1220 C1219 1.399 . S
C1220 C1221 1.385 . S
C1221 H1207 0.931 . S
C1221 C1220 1.385 . S
C1221 C1222 1.389 . S
C1222 C1221 1.389 . S
C1222 C1223 1.387 . S
C1223 H1208 0.930 . S
C1223 C1218 1.390 . S
C1223 C1222 1.387 . S
H1224 C1236 0.930 . S
H1225 C1238 0.930 . S
H1226 C1239 0.930 . S
H1227 C1243 0.959 . S
H1228 C1243 0.959 . S
H1229 C1243 0.961 . S
H1230 C1244 0.960 . S
H1231 C1244 0.961 . S
H1232 C1244 0.959 . S
H1233 C1247 0.929 . S
H1234 C1248 0.931 . S
H1235 C1250 0.930 . S
C1236 H1224 0.930 . S
C1236 C1237 1.399 . S
C1236 C1241 1.399 . S
C1237 C1236 1.399 . S
C1237 C1238 1.376 . S
C1238 H1225 0.930 . S
C1238 C1237 1.376 . S
C1238 C1239 1.388 . S
C1239 H1226 0.930 . S
C1239 C1238 1.388 . S
C1239 C1240 1.390 . S
C1240 C1239 1.390 . S
C1240 C1241 1.394 . S
C1240 C1246 1.465 . S
C1241 C1236 1.399 . S
C1241 C1240 1.394 . S
C1241 C1242 1.516 . S
C1242 C1241 1.516 . S
C1242 C1243 1.502 . S
C1242 C1244 1.561 . S
C1242 C1245 1.526 . S
C1243 H1227 0.959 . S
C1243 H1228 0.959 . S
C1243 H1229 0.961 . S
C1243 C1242 1.502 . S
C1244 H1230 0.960 . S
C1244 H1231 0.961 . S
C1244 H1232 0.959 . S
C1244 C1242 1.561 . S
C1245 C1242 1.526 . S
C1245 C1246 1.396 . S
C1245 C1250 1.390 . S
C1246 C1240 1.465 . S
C1246 C1245 1.396 . S
C1246 C1247 1.399 . S
C1247 H1233 0.929 . S
C1247 C1246 1.399 . S
C1247 C1248 1.385 . S
C1248 H1234 0.931 . S
C1248 C1247 1.385 . S
C1248 C1249 1.389 . S
C1249 C1248 1.389 . S
C1249 C1250 1.387 . S
C1250 H1235 0.930 . S
C1250 C1245 1.390 . S
C1250 C1249 1.387 . S
H1251 C1263 0.930 . S
H1252 C1265 0.930 . S
H1253 C1266 0.930 . S
H1254 C1270 0.959 . S
H1255 C1270 0.959 . S
H1256 C1270 0.961 . S
H1257 C1271 0.960 . S
H1258 C1271 0.961 . S
H1259 C1271 0.959 . S
H1260 C1274 0.929 . S
H1261 C1275 0.931 . S
H1262 C1277 0.930 . S
C1263 H1251 0.930 . S
C1263 C1264 1.399 . S
C1263 C1268 1.399 . S
C1264 C1263 1.399 . S
C1264 C1265 1.376 . S
C1265 H1252 0.930 . S
C1265 C1264 1.376 . S
C1265 C1266 1.388 . S
C1266 H1253 0.930 . S
C1266 C1265 1.388 . S
C1266 C1267 1.390 . S
C1267 C1266 1.390 . S
C1267 C1268 1.394 . S
C1267 C1273 1.465 . S
C1268 C1263 1.399 . S
C1268 C1267 1.394 . S
C1268 C1269 1.516 . S
C1269 C1268 1.516 . S
C1269 C1270 1.502 . S
C1269 C1271 1.561 . S
C1269 C1272 1.526 . S
C1270 H1254 0.959 . S
C1270 H1255 0.959 . S
C1270 H1256 0.961 . S
C1270 C1269 1.502 . S
C1271 H1257 0.960 . S
C1271 H1258 0.961 . S
C1271 H1259 0.959 . S
C1271 C1269 1.561 . S
C1272 C1269 1.526 . S
C1272 C1273 1.396 . S
C1272 C1277 1.390 . S
C1273 C1267 1.465 . S
C1273 C1272 1.396 . S
C1273 C1274 1.399 . S
C1274 H1260 0.929 . S
C1274 C1273 1.399 . S
C1274 C1275 1.385 . S
C1275 H1261 0.931 . S
C1275 C1274 1.385 . S
C1275 C1276 1.389 . S
C1276 C1275 1.389 . S
C1276 C1277 1.387 . S
C1277 H1262 0.930 . S
C1277 C1272 1.390 . S
C1277 C1276 1.387 . S
H1278 C1290 0.930 . S
H1279 C1292 0.930 . S
H1280 C1293 0.930 . S
H1281 C1297 0.959 . S
H1282 C1297 0.959 . S
H1283 C1297 0.961 . S
H1284 C1298 0.960 . S
H1285 C1298 0.961 . S
H1286 C1298 0.959 . S
H1287 C1301 0.929 . S
H1288 C1302 0.931 . S
H1289 C1304 0.930 . S
C1290 H1278 0.930 . S
C1290 C1291 1.399 . S
C1290 C1295 1.399 . S
C1291 C1290 1.399 . S
C1291 C1292 1.376 . S
C1292 H1279 0.930 . S
C1292 C1291 1.376 . S
C1292 C1293 1.388 . S
C1293 H1280 0.930 . S
C1293 C1292 1.388 . S
C1293 C1294 1.390 . S
C1294 C1293 1.390 . S
C1294 C1295 1.394 . S
C1294 C1300 1.465 . S
C1295 C1290 1.399 . S
C1295 C1294 1.394 . S
C1295 C1296 1.516 . S
C1296 C1295 1.516 . S
C1296 C1297 1.502 . S
C1296 C1298 1.561 . S
C1296 C1299 1.526 . S
C1297 H1281 0.959 . S
C1297 H1282 0.959 . S
C1297 H1283 0.961 . S
C1297 C1296 1.502 . S
C1298 H1284 0.960 . S
C1298 H1285 0.961 . S
C1298 H1286 0.959 . S
C1298 C1296 1.561 . S
C1299 C1296 1.526 . S
C1299 C1300 1.396 . S
C1299 C1304 1.390 . S
C1300 C1294 1.465 . S
C1300 C1299 1.396 . S
C1300 C1301 1.399 . S
C1301 H1287 0.929 . S
C1301 C1300 1.399 . S
C1301 C1302 1.385 . S
C1302 H1288 0.931 . S
C1302 C1301 1.385 . S
C1302 C1303 1.389 . S
C1303 C1302 1.389 . S
C1303 C1304 1.387 . S
C1304 H1289 0.930 . S
C1304 C1299 1.390 . S
C1304 C1303 1.387 . S
H1305 C1317 0.930 . S
H1306 C1319 0.930 . S
H1307 C1320 0.930 . S
H1308 C1324 0.959 . S
H1309 C1324 0.959 . S
H1310 C1324 0.961 . S
H1311 C1325 0.960 1_554 S
H1312 C1325 0.961 . S
H1313 C1325 0.959 . S
H1314 C1328 0.929 . S
H1315 C1329 0.931 . S
H1316 C1331 0.930 . S
C1317 H1305 0.930 . S
C1317 C1318 1.399 . S
C1317 C1322 1.399 . S
C1318 C1317 1.399 . S
C1318 C1319 1.376 . S
C1319 H1306 0.930 . S
C1319 C1318 1.376 . S
C1319 C1320 1.388 . S
C1320 H1307 0.930 . S
C1320 C1319 1.388 . S
C1320 C1321 1.390 . S
C1321 C1320 1.390 . S
C1321 C1322 1.394 . S
C1321 C1327 1.465 1_554 S
C1322 C1317 1.399 . S
C1322 C1321 1.394 . S
C1322 C1323 1.516 . S
C1323 C1322 1.516 . S
C1323 C1324 1.502 . S
C1323 C1325 1.561 1_554 S
C1323 C1326 1.526 1_554 S
C1324 H1308 0.959 . S
C1324 H1309 0.959 . S
C1324 H1310 0.961 . S
C1324 C1323 1.502 . S
C1325 H1311 0.960 1_556 S
C1325 H1312 0.961 . S
C1325 H1313 0.959 . S
C1325 C1323 1.561 1_556 S
C1326 C1323 1.526 1_556 S
C1326 C1327 1.396 . S
C1326 C1331 1.390 . S
C1327 C1321 1.465 1_556 S
C1327 C1326 1.396 . S
C1327 C1328 1.399 . S
C1328 H1314 0.929 . S
C1328 C1327 1.399 . S
C1328 C1329 1.385 . S
C1329 H1315 0.931 . S
C1329 C1328 1.385 . S
C1329 C1330 1.389 . S
C1330 C1329 1.389 . S
C1330 C1331 1.387 . S
C1331 H1316 0.930 . S
C1331 C1326 1.390 . S
C1331 C1330 1.387 . S
H1332 C1344 0.930 . S
H1333 C1346 0.930 . S
H1334 C1347 0.930 . S
H1335 C1351 0.959 1_554 S
H1336 C1351 0.959 . S
H1337 C1351 0.961 . S
H1338 C1352 0.960 . S
H1339 C1352 0.961 . S
H1340 C1352 0.959 . S
H1341 C1355 0.929 1_554 S
H1342 C1356 0.931 . S
H1343 C1358 0.930 . S
C1344 H1332 0.930 . S
C1344 C1345 1.399 . S
C1344 C1349 1.399 . S
C1345 C1344 1.399 . S
C1345 C1346 1.376 . S
C1346 H1333 0.930 . S
C1346 C1345 1.376 . S
C1346 C1347 1.388 . S
C1347 H1334 0.930 . S
C1347 C1346 1.388 . S
C1347 C1348 1.390 . S
C1348 C1347 1.390 . S
C1348 C1349 1.394 . S
C1348 C1354 1.465 1_554 S
C1349 C1344 1.399 . S
C1349 C1348 1.394 . S
C1349 C1350 1.516 1_554 S
C1350 C1349 1.516 1_556 S
C1350 C1351 1.502 . S
C1350 C1352 1.561 . S
C1350 C1353 1.526 . S
C1351 H1335 0.959 1_556 S
C1351 H1336 0.959 . S
C1351 H1337 0.961 . S
C1351 C1350 1.502 . S
C1352 H1338 0.960 . S
C1352 H1339 0.961 . S
C1352 H1340 0.959 . S
C1352 C1350 1.561 . S
C1353 C1350 1.526 . S
C1353 C1354 1.396 . S
C1353 C1358 1.390 . S
C1354 C1348 1.465 1_556 S
C1354 C1353 1.396 . S
C1354 C1355 1.399 . S
C1355 H1341 0.929 1_556 S
C1355 C1354 1.399 . S
C1355 C1356 1.385 . S
C1356 H1342 0.931 . S
C1356 C1355 1.385 . S
C1356 C1357 1.389 . S
C1357 C1356 1.389 . S
C1357 C1358 1.387 . S
C1358 H1343 0.930 . S
C1358 C1353 1.390 . S
C1358 C1357 1.387 . S
H1359 C1371 0.930 . S
H1360 C1373 0.930 . S
H1361 C1374 0.930 . S
H1362 C1378 0.959 . S
H1363 C1378 0.959 . S
H1364 C1378 0.970 . S
H1365 C1379 0.960 . S
H1366 C1379 0.961 . S
H1367 C1379 0.959 . S
H1368 C1382 0.929 . S
H1369 C1383 0.931 . S
H1370 C1385 0.930 . S
C1371 H1359 0.930 . S
C1371 C1372 1.399 . S
C1371 C1376 1.399 . S
C1372 C1371 1.399 . S
C1372 C1373 1.376 . S
C1373 H1360 0.930 . S
C1373 C1372 1.376 . S
C1373 C1374 1.388 . S
C1374 H1361 0.930 . S
C1374 C1373 1.388 . S
C1374 C1375 1.390 . S
C1375 C1374 1.390 . S
C1375 C1376 1.394 . S
C1375 C1381 1.465 1_556 S
C1376 C1371 1.399 . S
C1376 C1375 1.394 . S
C1376 C1377 1.516 . S
C1377 C1376 1.516 . S
C1377 C1378 1.502 1_556 S
C1377 C1379 1.561 . S
C1377 C1380 1.526 1_556 S
C1378 H1362 0.959 . S
C1378 H1363 0.959 . S
C1378 H1364 0.970 . S
C1378 C1377 1.502 1_554 S
C1379 H1365 0.960 . S
C1379 H1366 0.961 . S
C1379 H1367 0.959 . S
C1379 C1377 1.561 . S
C1380 C1377 1.526 1_554 S
C1380 C1381 1.396 . S
C1380 C1385 1.390 . S
C1381 C1375 1.465 1_554 S
C1381 C1380 1.396 . S
C1381 C1382 1.399 . S
C1382 H1368 0.929 . S
C1382 C1381 1.399 . S
C1382 C1383 1.385 . S
C1383 H1369 0.931 . S
C1383 C1382 1.385 . S
C1383 C1384 1.389 . S
C1384 C1383 1.389 . S
C1384 C1385 1.387 . S
C1385 H1370 0.930 . S
C1385 C1380 1.390 . S
C1385 C1384 1.387 . S
H1386 C1398 0.930 . S
H1387 C1400 0.930 . S
H1388 C1401 0.930 . S
H1389 C1405 0.959 . S
H1390 C1405 0.959 . S
H1391 C1405 0.961 . S
H1392 C1406 0.960 . S
H1393 C1406 0.961 . S
H1394 C1406 0.959 . S
H1395 C1409 0.929 . S
H1396 C1410 0.931 . S
H1397 C1412 0.930 . S
C1398 H1386 0.930 . S
C1398 C1399 1.399 . S
C1398 C1403 1.399 . S
C1399 C1398 1.399 . S
C1399 C1400 1.376 . S
C1400 H1387 0.930 . S
C1400 C1399 1.376 . S
C1400 C1401 1.388 . S
C1401 H1388 0.930 . S
C1401 C1400 1.388 . S
C1401 C1402 1.390 . S
C1402 C1401 1.390 . S
C1402 C1403 1.394 . S
C1402 C1408 1.465 . S
C1403 C1398 1.399 . S
C1403 C1402 1.394 . S
C1403 C1404 1.516 . S
C1404 C1403 1.516 . S
C1404 C1405 1.502 . S
C1404 C1406 1.561 . S
C1404 C1407 1.526 . S
C1405 H1389 0.959 . S
C1405 H1390 0.959 . S
C1405 H1391 0.961 . S
C1405 C1404 1.502 . S
C1406 H1392 0.960 . S
C1406 H1393 0.961 . S
C1406 H1394 0.959 . S
C1406 C1404 1.561 . S
C1407 C1404 1.526 . S
C1407 C1408 1.396 . S
C1407 C1412 1.390 . S
C1408 C1402 1.465 . S
C1408 C1407 1.396 . S
C1408 C1409 1.399 . S
C1409 H1395 0.929 . S
C1409 C1408 1.399 . S
C1409 C1410 1.385 . S
C1410 H1396 0.931 . S
C1410 C1409 1.385 . S
C1410 C1411 1.389 . S
C1411 C1410 1.389 . S
C1411 C1412 1.387 . S
C1412 H1397 0.930 . S
C1412 C1407 1.390 . S
C1412 C1411 1.387 . S
H1413 C1425 0.930 . S
H1414 C1427 0.930 . S
H1415 C1428 0.930 . S
H1416 C1432 0.959 . S
H1417 C1432 0.959 . S
H1418 C1432 0.961 . S
H1419 C1433 0.960 . S
H1420 C1433 0.961 . S
H1421 C1433 0.959 . S
H1422 C1436 0.929 . S
H1423 C1437 0.931 . S
H1424 C1439 0.930 . S
C1425 H1413 0.930 . S
C1425 C1426 1.399 . S
C1425 C1430 1.399 . S
C1426 C1425 1.399 . S
C1426 C1427 1.376 . S
C1427 H1414 0.930 . S
C1427 C1426 1.376 . S
C1427 C1428 1.388 . S
C1428 H1415 0.930 . S
C1428 C1427 1.388 . S
C1428 C1429 1.390 . S
C1429 C1428 1.390 . S
C1429 C1430 1.394 . S
C1429 C1435 1.465 . S
C1430 C1425 1.399 . S
C1430 C1429 1.394 . S
C1430 C1431 1.516 . S
C1431 C1430 1.516 . S
C1431 C1432 1.502 . S
C1431 C1433 1.561 . S
C1431 C1434 1.526 . S
C1432 H1416 0.959 . S
C1432 H1417 0.959 . S
C1432 H1418 0.961 . S
C1432 C1431 1.502 . S
C1433 H1419 0.960 . S
C1433 H1420 0.961 . S
C1433 H1421 0.959 . S
C1433 C1431 1.561 . S
C1434 C1431 1.526 . S
C1434 C1435 1.396 . S
C1434 C1439 1.390 . S
C1435 C1429 1.465 . S
C1435 C1434 1.396 . S
C1435 C1436 1.399 . S
C1436 H1422 0.929 . S
C1436 C1435 1.399 . S
C1436 C1437 1.385 . S
C1437 H1423 0.931 . S
C1437 C1436 1.385 . S
C1437 C1438 1.389 . S
C1438 C1437 1.389 . S
C1438 C1439 1.387 . S
C1439 H1424 0.930 . S
C1439 C1434 1.390 . S
C1439 C1438 1.387 . S
H1440 C1452 0.930 . S
H1441 C1454 0.930 . S
H1442 C1455 0.930 . S
H1443 C1459 0.959 . S
H1444 C1459 0.959 . S
H1445 C1459 0.961 . S
H1446 C1460 0.960 . S
H1447 C1460 0.961 . S
H1448 C1460 0.959 . S
H1449 C1463 0.929 . S
H1450 C1464 0.931 . S
H1451 C1466 0.930 . S
C1452 H1440 0.930 . S
C1452 C1453 1.399 . S
C1452 C1457 1.399 . S
C1453 C1452 1.399 . S
C1453 C1454 1.376 . S
C1454 H1441 0.930 . S
C1454 C1453 1.376 . S
C1454 C1455 1.388 . S
C1455 H1442 0.930 . S
C1455 C1454 1.388 . S
C1455 C1456 1.390 . S
C1456 C1455 1.390 . S
C1456 C1457 1.394 . S
C1456 C1462 1.465 . S
C1457 C1452 1.399 . S
C1457 C1456 1.394 . S
C1457 C1458 1.516 . S
C1458 C1457 1.516 . S
C1458 C1459 1.502 . S
C1458 C1460 1.561 . S
C1458 C1461 1.526 . S
C1459 H1443 0.959 . S
C1459 H1444 0.959 . S
C1459 H1445 0.961 . S
C1459 C1458 1.502 . S
C1460 H1446 0.960 . S
C1460 H1447 0.961 . S
C1460 H1448 0.959 . S
C1460 C1458 1.561 . S
C1461 C1458 1.526 . S
C1461 C1462 1.396 . S
C1461 C1466 1.390 . S
C1462 C1456 1.465 . S
C1462 C1461 1.396 . S
C1462 C1463 1.399 . S
C1463 H1449 0.929 . S
C1463 C1462 1.399 . S
C1463 C1464 1.385 . S
C1464 H1450 0.931 . S
C1464 C1463 1.385 . S
C1464 C1465 1.389 . S
C1465 C1464 1.389 . S
C1465 C1466 1.387 . S
C1466 H1451 0.930 . S
C1466 C1461 1.390 . S
C1466 C1465 1.387 . S
H1467 C1479 0.930 . S
H1468 C1481 0.930 . S
H1469 C1482 0.930 . S
H1470 C1486 0.959 . S
H1471 C1486 0.959 . S
H1472 C1486 0.961 . S
H1473 C1487 0.960 . S
H1474 C1487 0.961 . S
H1475 C1487 0.959 . S
H1476 C1490 0.929 . S
H1477 C1491 0.931 . S
H1478 C1493 0.930 . S
C1479 H1467 0.930 . S
C1479 C1480 1.399 . S
C1479 C1484 1.399 . S
C1480 C1479 1.399 . S
C1480 C1481 1.376 . S
C1481 H1468 0.930 . S
C1481 C1480 1.376 . S
C1481 C1482 1.388 . S
C1482 H1469 0.930 . S
C1482 C1481 1.388 . S
C1482 C1483 1.390 . S
C1483 C1482 1.390 . S
C1483 C1484 1.394 . S
C1483 C1489 1.465 . S
C1484 C1479 1.399 . S
C1484 C1483 1.394 . S
C1484 C1485 1.516 . S
C1485 C1484 1.516 . S
C1485 C1486 1.502 . S
C1485 C1487 1.561 . S
C1485 C1488 1.526 . S
C1486 H1470 0.959 . S
C1486 H1471 0.959 . S
C1486 H1472 0.961 . S
C1486 C1485 1.502 . S
C1487 H1473 0.960 . S
C1487 H1474 0.961 . S
C1487 H1475 0.959 . S
C1487 C1485 1.561 . S
C1488 C1485 1.526 . S
C1488 C1489 1.396 . S
C1488 C1493 1.390 . S
C1489 C1483 1.465 . S
C1489 C1488 1.396 . S
C1489 C1490 1.399 . S
C1490 H1476 0.929 . S
C1490 C1489 1.399 . S
C1490 C1491 1.385 . S
C1491 H1477 0.931 . S
C1491 C1490 1.385 . S
C1491 C1492 1.389 . S
C1492 C1491 1.389 . S
C1492 C1493 1.387 . S
C1493 H1478 0.930 . S
C1493 C1488 1.390 . S
C1493 C1492 1.387 . S
H1494 C1506 0.930 . S
H1495 C1508 0.930 . S
H1496 C1509 0.930 . S
H1497 C1513 0.959 . S
H1498 C1513 0.959 . S
H1499 C1513 0.961 . S
H1500 C1514 0.960 . S
H1501 C1514 0.961 . S
H1502 C1514 0.959 . S
H1503 C1517 0.929 . S
H1504 C1518 0.931 . S
H1505 C1520 0.930 . S
C1506 H1494 0.930 . S
C1506 C1507 1.399 . S
C1506 C1511 1.399 . S
C1507 C1506 1.399 . S
C1507 C1508 1.376 . S
C1508 H1495 0.930 . S
C1508 C1507 1.376 . S
C1508 C1509 1.388 . S
C1509 H1496 0.930 . S
C1509 C1508 1.388 . S
C1509 C1510 1.390 . S
C1510 C1509 1.390 . S
C1510 C1511 1.394 . S
C1510 C1516 1.465 . S
C1511 C1506 1.399 . S
C1511 C1510 1.394 . S
C1511 C1512 1.516 . S
C1512 C1511 1.516 . S
C1512 C1513 1.502 . S
C1512 C1514 1.561 . S
C1512 C1515 1.526 . S
C1513 H1497 0.959 . S
C1513 H1498 0.959 . S
C1513 H1499 0.961 . S
C1513 C1512 1.502 . S
C1514 H1500 0.960 . S
C1514 H1501 0.961 . S
C1514 H1502 0.959 . S
C1514 C1512 1.561 . S
C1515 C1512 1.526 . S
C1515 C1516 1.396 . S
C1515 C1520 1.390 . S
C1516 C1510 1.465 . S
C1516 C1515 1.396 . S
C1516 C1517 1.399 . S
C1517 H1503 0.929 . S
C1517 C1516 1.399 . S
C1517 C1518 1.385 . S
C1518 H1504 0.931 . S
C1518 C1517 1.385 . S
C1518 C1519 1.389 . S
C1519 C1518 1.389 . S
C1519 C1520 1.387 . S
C1520 H1505 0.930 . S
C1520 C1515 1.390 . S
C1520 C1519 1.387 . S
H1521 C1533 0.930 . S
H1522 C1535 0.930 . S
H1523 C1536 0.930 . S
H1524 C1540 0.959 . S
H1525 C1540 0.959 . S
H1526 C1540 0.961 . S
H1527 C1541 0.960 . S
H1528 C1541 0.961 . S
H1529 C1541 0.959 . S
H1530 C1544 0.929 . S
H1531 C1545 0.931 . S
H1532 C1547 0.930 . S
C1533 H1521 0.930 . S
C1533 C1534 1.399 . S
C1533 C1538 1.399 . S
C1534 C1533 1.399 . S
C1534 C1535 1.376 . S
C1535 H1522 0.930 . S
C1535 C1534 1.376 . S
C1535 C1536 1.388 . S
C1536 H1523 0.930 . S
C1536 C1535 1.388 . S
C1536 C1537 1.390 . S
C1537 C1536 1.390 . S
C1537 C1538 1.394 . S
C1537 C1543 1.465 . S
C1538 C1533 1.399 . S
C1538 C1537 1.394 . S
C1538 C1539 1.516 . S
C1539 C1538 1.516 . S
C1539 C1540 1.502 . S
C1539 C1541 1.561 . S
C1539 C1542 1.526 . S
C1540 H1524 0.959 . S
C1540 H1525 0.959 . S
C1540 H1526 0.961 . S
C1540 C1539 1.502 . S
C1541 H1527 0.960 . S
C1541 H1528 0.961 . S
C1541 H1529 0.959 . S
C1541 C1539 1.561 . S
C1542 C1539 1.526 . S
C1542 C1543 1.396 . S
C1542 C1547 1.390 . S
C1543 C1537 1.465 . S
C1543 C1542 1.396 . S
C1543 C1544 1.399 . S
C1544 H1530 0.929 . S
C1544 C1543 1.399 . S
C1544 C1545 1.385 . S
C1545 H1531 0.931 . S
C1545 C1544 1.385 . S
C1545 C1546 1.389 . S
C1546 C1545 1.389 . S
C1546 C1547 1.387 . S
C1547 H1532 0.930 . S
C1547 C1542 1.390 . S
C1547 C1546 1.387 . S
H1548 C1560 0.930 . S
H1549 C1562 0.930 . S
H1550 C1563 0.930 . S
H1551 C1567 0.959 . S
H1552 C1567 0.959 . S
H1553 C1567 0.961 . S
H1554 C1568 0.960 . S
H1555 C1568 0.961 . S
H1556 C1568 0.959 . S
H1557 C1571 0.929 . S
H1558 C1572 0.931 . S
H1559 C1574 0.930 . S
C1560 H1548 0.930 . S
C1560 C1561 1.399 . S
C1560 C1565 1.399 . S
C1561 C1560 1.399 . S
C1561 C1562 1.376 . S
C1562 H1549 0.930 . S
C1562 C1561 1.376 . S
C1562 C1563 1.388 . S
C1563 H1550 0.930 . S
C1563 C1562 1.388 . S
C1563 C1564 1.390 . S
C1564 C1563 1.390 . S
C1564 C1565 1.394 . S
C1564 C1570 1.465 . S
C1565 C1560 1.399 . S
C1565 C1564 1.394 . S
C1565 C1566 1.516 . S
C1566 C1565 1.516 . S
C1566 C1567 1.502 . S
C1566 C1568 1.561 . S
C1566 C1569 1.526 . S
C1567 H1551 0.959 . S
C1567 H1552 0.959 . S
C1567 H1553 0.961 . S
C1567 C1566 1.502 . S
C1568 H1554 0.960 . S
C1568 H1555 0.961 . S
C1568 H1556 0.959 . S
C1568 C1566 1.561 . S
C1569 C1566 1.526 . S
C1569 C1570 1.396 . S
C1569 C1574 1.390 . S
C1570 C1564 1.465 . S
C1570 C1569 1.396 . S
C1570 C1571 1.399 . S
C1571 H1557 0.929 . S
C1571 C1570 1.399 . S
C1571 C1572 1.385 . S
C1572 H1558 0.931 . S
C1572 C1571 1.385 . S
C1572 C1573 1.389 . S
C1573 C1572 1.389 . S
C1573 C1574 1.387 . S
C1574 H1559 0.930 . S
C1574 C1569 1.390 . S
C1574 C1573 1.387 . S
H1575 C1587 0.930 . S
H1576 C1589 0.930 . S
H1577 C1590 0.930 . S
H1578 C1594 0.959 . S
H1579 C1594 0.959 . S
H1580 C1594 0.961 . S
H1581 C1595 0.960 . S
H1582 C1595 0.961 . S
H1583 C1595 0.959 . S
H1584 C1598 0.929 . S
H1585 C1599 0.931 . S
H1586 C1601 0.930 . S
C1587 H1575 0.930 . S
C1587 C1588 1.399 . S
C1587 C1592 1.399 . S
C1588 C1587 1.399 . S
C1588 C1589 1.376 . S
C1589 H1576 0.930 . S
C1589 C1588 1.376 . S
C1589 C1590 1.388 . S
C1590 H1577 0.930 . S
C1590 C1589 1.388 . S
C1590 C1591 1.390 . S
C1591 C1590 1.390 . S
C1591 C1592 1.394 . S
C1591 C1597 1.465 . S
C1592 C1587 1.399 . S
C1592 C1591 1.394 . S
C1592 C1593 1.516 . S
C1593 C1592 1.516 . S
C1593 C1594 1.502 . S
C1593 C1595 1.561 . S
C1593 C1596 1.526 . S
C1594 H1578 0.959 . S
C1594 H1579 0.959 . S
C1594 H1580 0.961 . S
C1594 C1593 1.502 . S
C1595 H1581 0.960 . S
C1595 H1582 0.961 . S
C1595 H1583 0.959 . S
C1595 C1593 1.561 . S
C1596 C1593 1.526 . S
C1596 C1597 1.396 . S
C1596 C1601 1.390 . S
C1597 C1591 1.465 . S
C1597 C1596 1.396 . S
C1597 C1598 1.399 . S
C1598 H1584 0.929 . S
C1598 C1597 1.399 . S
C1598 C1599 1.385 . S
C1599 H1585 0.931 . S
C1599 C1598 1.385 . S
C1599 C1600 1.389 . S
C1600 C1599 1.389 . S
C1600 C1601 1.387 . S
C1601 H1586 0.930 . S
C1601 C1596 1.390 . S
C1601 C1600 1.387 . S
H1602 C1614 0.930 . S
H1603 C1616 0.930 . S
H1604 C1617 0.930 . S
H1605 C1621 0.959 . S
H1606 C1621 0.959 . S
H1607 C1621 0.961 . S
H1608 C1622 0.960 . S
H1609 C1622 0.961 . S
H1610 C1622 0.959 . S
H1611 C1625 0.929 . S
H1612 C1626 0.931 . S
H1613 C1628 0.930 . S
C1614 H1602 0.930 . S
C1614 C1615 1.399 . S
C1614 C1619 1.399 . S
C1615 C1614 1.399 . S
C1615 C1616 1.376 . S
C1616 H1603 0.930 . S
C1616 C1615 1.376 . S
C1616 C1617 1.388 . S
C1617 H1604 0.930 . S
C1617 C1616 1.388 . S
C1617 C1618 1.390 . S
C1618 C1617 1.390 . S
C1618 C1619 1.394 . S
C1618 C1624 1.465 . S
C1619 C1614 1.399 . S
C1619 C1618 1.394 . S
C1619 C1620 1.516 . S
C1620 C1619 1.516 . S
C1620 C1621 1.502 . S
C1620 C1622 1.561 . S
C1620 C1623 1.526 . S
C1621 H1605 0.959 . S
C1621 H1606 0.959 . S
C1621 H1607 0.961 . S
C1621 C1620 1.502 . S
C1622 H1608 0.960 . S
C1622 H1609 0.961 . S
C1622 H1610 0.959 . S
C1622 C1620 1.561 . S
C1623 C1620 1.526 . S
C1623 C1624 1.396 . S
C1623 C1628 1.390 . S
C1624 C1618 1.465 . S
C1624 C1623 1.396 . S
C1624 C1625 1.399 . S
C1625 H1611 0.929 . S
C1625 C1624 1.399 . S
C1625 C1626 1.385 . S
C1626 H1612 0.931 . S
C1626 C1625 1.385 . S
C1626 C1627 1.389 . S
C1627 C1626 1.389 . S
C1627 C1628 1.387 . S
C1628 H1613 0.930 . S
C1628 C1623 1.390 . S
C1628 C1627 1.387 . S
H1629 C1641 0.930 . S
H1630 C1643 0.930 . S
H1631 C1644 0.930 . S
H1632 C1648 0.959 . S
H1633 C1648 0.959 . S
H1634 C1648 0.961 . S
H1635 C1649 0.960 . S
H1636 C1649 0.961 . S
H1637 C1649 0.959 . S
H1638 C1652 0.929 . S
H1639 C1653 0.931 . S
H1640 C1655 0.930 . S
C1641 H1629 0.930 . S
C1641 C1642 1.399 . S
C1641 C1646 1.399 . S
C1642 C1641 1.399 . S
C1642 C1643 1.376 . S
C1643 H1630 0.930 . S
C1643 C1642 1.376 . S
C1643 C1644 1.388 . S
C1644 H1631 0.930 . S
C1644 C1643 1.388 . S
C1644 C1645 1.390 . S
C1645 C1644 1.390 . S
C1645 C1646 1.394 . S
C1645 C1651 1.465 . S
C1646 C1641 1.399 . S
C1646 C1645 1.394 . S
C1646 C1647 1.516 . S
C1647 C1646 1.516 . S
C1647 C1648 1.502 . S
C1647 C1649 1.561 . S
C1647 C1650 1.526 . S
C1648 H1632 0.959 . S
C1648 H1633 0.959 . S
C1648 H1634 0.961 . S
C1648 C1647 1.502 . S
C1649 H1635 0.960 . S
C1649 H1636 0.961 . S
C1649 H1637 0.959 . S
C1649 C1647 1.561 . S
C1650 C1647 1.526 . S
C1650 C1651 1.396 . S
C1650 C1655 1.390 . S
C1651 C1645 1.465 . S
C1651 C1650 1.396 . S
C1651 C1652 1.399 . S
C1652 H1638 0.929 . S
C1652 C1651 1.399 . S
C1652 C1653 1.385 . S
C1653 H1639 0.931 . S
C1653 C1652 1.385 . S
C1653 C1654 1.389 . S
C1654 C1653 1.389 . S
C1654 C1655 1.387 . S
C1655 H1640 0.930 . S
C1655 C1650 1.390 . S
C1655 C1654 1.387 . S
H1656 C1668 0.930 . S
H1657 C1670 0.930 . S
H1658 C1671 0.930 . S
H1659 C1675 0.959 . S
H1660 C1675 0.959 . S
H1661 C1675 0.961 . S
H1662 C1676 0.960 . S
H1663 C1676 0.961 . S
H1664 C1676 0.959 . S
H1665 C1679 0.929 . S
H1666 C1680 0.931 . S
H1667 C1682 0.930 . S
C1668 H1656 0.930 . S
C1668 C1669 1.399 . S
C1668 C1673 1.399 . S
C1669 C1668 1.399 . S
C1669 C1670 1.376 . S
C1670 H1657 0.930 . S
C1670 C1669 1.376 . S
C1670 C1671 1.388 . S
C1671 H1658 0.930 . S
C1671 C1670 1.388 . S
C1671 C1672 1.390 . S
C1672 C1671 1.390 . S
C1672 C1673 1.394 . S
C1672 C1678 1.465 . S
C1673 C1668 1.399 . S
C1673 C1672 1.394 . S
C1673 C1674 1.516 . S
C1674 C1673 1.516 . S
C1674 C1675 1.502 . S
C1674 C1676 1.561 . S
C1674 C1677 1.526 . S
C1675 H1659 0.959 . S
C1675 H1660 0.959 . S
C1675 H1661 0.961 . S
C1675 C1674 1.502 . S
C1676 H1662 0.960 . S
C1676 H1663 0.961 . S
C1676 H1664 0.959 . S
C1676 C1674 1.561 . S
C1677 C1674 1.526 . S
C1677 C1678 1.396 . S
C1677 C1682 1.390 . S
C1678 C1672 1.465 . S
C1678 C1677 1.396 . S
C1678 C1679 1.399 . S
C1679 H1665 0.929 . S
C1679 C1678 1.399 . S
C1679 C1680 1.385 . S
C1680 H1666 0.931 . S
C1680 C1679 1.385 . S
C1680 C1681 1.389 . S
C1681 C1680 1.389 . S
C1681 C1682 1.387 . S
C1682 H1667 0.930 . S
C1682 C1677 1.390 . S
C1682 C1681 1.387 . S
H1683 C1695 0.930 . S
H1684 C1697 0.930 . S
H1685 C1698 0.930 . S
H1686 C1702 0.959 . S
H1687 C1702 0.959 . S
H1688 C1702 0.961 . S
H1689 C1703 0.960 . S
H1690 C1703 0.961 . S
H1691 C1703 0.959 . S
H1692 C1706 0.929 . S
H1693 C1707 0.931 . S
H1694 C1709 0.930 . S
C1695 H1683 0.930 . S
C1695 C1696 1.399 . S
C1695 C1700 1.399 . S
C1696 C1695 1.399 . S
C1696 C1697 1.376 . S
C1697 H1684 0.930 . S
C1697 C1696 1.376 . S
C1697 C1698 1.388 . S
C1698 H1685 0.930 . S
C1698 C1697 1.388 . S
C1698 C1699 1.390 . S
C1699 C1698 1.390 . S
C1699 C1700 1.394 . S
C1699 C1705 1.465 . S
C1700 C1695 1.399 . S
C1700 C1699 1.394 . S
C1700 C1701 1.516 . S
C1701 C1700 1.516 . S
C1701 C1702 1.502 . S
C1701 C1703 1.561 . S
C1701 C1704 1.526 . S
C1702 H1686 0.959 . S
C1702 H1687 0.959 . S
C1702 H1688 0.961 . S
C1702 C1701 1.502 . S
C1703 H1689 0.960 . S
C1703 H1690 0.961 . S
C1703 H1691 0.959 . S
C1703 C1701 1.561 . S
C1704 C1701 1.526 . S
C1704 C1705 1.396 . S
C1704 C1709 1.390 . S
C1705 C1699 1.465 . S
C1705 C1704 1.396 . S
C1705 C1706 1.399 . S
C1706 H1692 0.929 . S
C1706 C1705 1.399 . S
C1706 C1707 1.385 . S
C1707 H1693 0.931 . S
C1707 C1706 1.385 . S
C1707 C1708 1.389 . S
C1708 C1707 1.389 . S
C1708 C1709 1.387 . S
C1709 H1694 0.930 . S
C1709 C1704 1.390 . S
C1709 C1708 1.387 . S
H1710 C1722 0.930 . S
H1711 C1724 0.930 . S
H1712 C1725 0.930 . S
H1713 C1729 0.959 . S
H1714 C1729 0.959 . S
H1715 C1729 0.961 . S
H1716 C1730 0.960 . S
H1717 C1730 0.961 . S
H1718 C1730 0.959 . S
H1719 C1733 0.929 . S
H1720 C1734 0.931 . S
H1721 C1736 0.930 . S
C1722 H1710 0.930 . S
C1722 C1723 1.399 . S
C1722 C1727 1.399 . S
C1723 C1722 1.399 . S
C1723 C1724 1.376 . S
C1724 H1711 0.930 . S
C1724 C1723 1.376 . S
C1724 C1725 1.388 . S
C1725 H1712 0.930 . S
C1725 C1724 1.388 . S
C1725 C1726 1.390 . S
C1726 C1725 1.390 . S
C1726 C1727 1.394 . S
C1726 C1732 1.465 . S
C1727 C1722 1.399 . S
C1727 C1726 1.394 . S
C1727 C1728 1.516 . S
C1728 C1727 1.516 . S
C1728 C1729 1.502 . S
C1728 C1730 1.561 . S
C1728 C1731 1.526 . S
C1729 H1713 0.959 . S
C1729 H1714 0.959 . S
C1729 H1715 0.961 . S
C1729 C1728 1.502 . S
C1730 H1716 0.960 . S
C1730 H1717 0.961 . S
C1730 H1718 0.959 . S
C1730 C1728 1.561 . S
C1731 C1728 1.526 . S
C1731 C1732 1.396 . S
C1731 C1736 1.390 . S
C1732 C1726 1.465 . S
C1732 C1731 1.396 . S
C1732 C1733 1.399 . S
C1733 H1719 0.929 . S
C1733 C1732 1.399 . S
C1733 C1734 1.385 . S
C1734 H1720 0.931 . S
C1734 C1733 1.385 . S
C1734 C1735 1.389 . S
C1735 C1734 1.389 . S
C1735 C1736 1.387 . S
C1736 H1721 0.930 . S
C1736 C1731 1.390 . S
C1736 C1735 1.387 . S
H1737 C1749 0.930 . S
H1738 C1751 0.930 . S
H1739 C1752 0.930 . S
H1740 C1756 0.959 . S
H1741 C1756 0.959 . S
H1742 C1756 0.961 . S
H1743 C1757 0.960 . S
H1744 C1757 0.961 . S
H1745 C1757 0.959 . S
H1746 C1760 0.929 . S
H1747 C1761 0.931 . S
H1748 C1763 0.930 . S
C1749 H1737 0.930 . S
C1749 C1750 1.399 . S
C1749 C1754 1.399 . S
C1750 C1749 1.399 . S
C1750 C1751 1.376 . S
C1751 H1738 0.930 . S
C1751 C1750 1.376 . S
C1751 C1752 1.388 . S
C1752 H1739 0.930 . S
C1752 C1751 1.388 . S
C1752 C1753 1.390 . S
C1753 C1752 1.390 . S
C1753 C1754 1.394 . S
C1753 C1759 1.465 . S
C1754 C1749 1.399 . S
C1754 C1753 1.394 . S
C1754 C1755 1.516 . S
C1755 C1754 1.516 . S
C1755 C1756 1.502 . S
C1755 C1757 1.561 . S
C1755 C1758 1.526 . S
C1756 H1740 0.959 . S
C1756 H1741 0.959 . S
C1756 H1742 0.961 . S
C1756 C1755 1.502 . S
C1757 H1743 0.960 . S
C1757 H1744 0.961 . S
C1757 H1745 0.959 . S
C1757 C1755 1.561 . S
C1758 C1755 1.526 . S
C1758 C1759 1.396 . S
C1758 C1763 1.390 . S
C1759 C1753 1.465 . S
C1759 C1758 1.396 . S
C1759 C1760 1.399 . S
C1760 H1746 0.929 . S
C1760 C1759 1.399 . S
C1760 C1761 1.385 . S
C1761 H1747 0.931 . S
C1761 C1760 1.385 . S
C1761 C1762 1.389 . S
C1762 C1761 1.389 . S
C1762 C1763 1.387 . S
C1763 H1748 0.930 . S
C1763 C1758 1.390 . S
C1763 C1762 1.387 . S
H1764 C1776 0.930 . S
H1765 C1778 0.930 . S
H1766 C1779 0.930 . S
H1767 C1783 0.959 . S
H1768 C1783 0.959 . S
H1769 C1783 0.961 . S
H1770 C1784 0.960 . S
H1771 C1784 0.961 . S
H1772 C1784 0.959 . S
H1773 C1787 0.929 . S
H1774 C1788 0.931 . S
H1775 C1790 0.930 . S
C1776 H1764 0.930 . S
C1776 C1777 1.399 . S
C1776 C1781 1.399 . S
C1777 C1776 1.399 . S
C1777 C1778 1.376 . S
C1778 H1765 0.930 . S
C1778 C1777 1.376 . S
C1778 C1779 1.388 . S
C1779 H1766 0.930 . S
C1779 C1778 1.388 . S
C1779 C1780 1.390 . S
C1780 C1779 1.390 . S
C1780 C1781 1.394 . S
C1780 C1786 1.465 . S
C1781 C1776 1.399 . S
C1781 C1780 1.394 . S
C1781 C1782 1.516 . S
C1782 C1781 1.516 . S
C1782 C1783 1.502 . S
C1782 C1784 1.561 . S
C1782 C1785 1.526 . S
C1783 H1767 0.959 . S
C1783 H1768 0.959 . S
C1783 H1769 0.961 . S
C1783 C1782 1.502 . S
C1784 H1770 0.960 . S
C1784 H1771 0.961 . S
C1784 H1772 0.959 . S
C1784 C1782 1.561 . S
C1785 C1782 1.526 . S
C1785 C1786 1.396 . S
C1785 C1790 1.390 . S
C1786 C1780 1.465 . S
C1786 C1785 1.396 . S
C1786 C1787 1.399 . S
C1787 H1773 0.929 . S
C1787 C1786 1.399 . S
C1787 C1788 1.385 . S
C1788 H1774 0.931 . S
C1788 C1787 1.385 . S
C1788 C1789 1.389 . S
C1789 C1788 1.389 . S
C1789 C1790 1.387 . S
C1790 H1775 0.930 . S
C1790 C1785 1.390 . S
C1790 C1789 1.387 . S
H1791 C1803 0.930 . S
H1792 C1805 0.930 . S
H1793 C1806 0.930 . S
H1794 C1810 0.959 . S
H1795 C1810 0.959 . S
H1796 C1810 0.961 . S
H1797 C1811 0.960 . S
H1798 C1811 0.961 . S
H1799 C1811 0.959 . S
H1800 C1814 0.929 . S
H1801 C1815 0.931 . S
H1802 C1817 0.930 . S
C1803 H1791 0.930 . S
C1803 C1804 1.399 . S
C1803 C1808 1.399 . S
C1804 C1803 1.399 . S
C1804 C1805 1.376 . S
C1805 H1792 0.930 . S
C1805 C1804 1.376 . S
C1805 C1806 1.388 . S
C1806 H1793 0.930 . S
C1806 C1805 1.388 . S
C1806 C1807 1.390 . S
C1807 C1806 1.390 . S
C1807 C1808 1.394 . S
C1807 C1813 1.465 . S
C1808 C1803 1.399 . S
C1808 C1807 1.394 . S
C1808 C1809 1.516 . S
C1809 C1808 1.516 . S
C1809 C1810 1.502 . S
C1809 C1811 1.561 . S
C1809 C1812 1.526 . S
C1810 H1794 0.959 . S
C1810 H1795 0.959 . S
C1810 H1796 0.961 . S
C1810 C1809 1.502 . S
C1811 H1797 0.960 . S
C1811 H1798 0.961 . S
C1811 H1799 0.959 . S
C1811 C1809 1.561 . S
C1812 C1809 1.526 . S
C1812 C1813 1.396 . S
C1812 C1817 1.390 . S
C1813 C1807 1.465 . S
C1813 C1812 1.396 . S
C1813 C1814 1.399 . S
C1814 H1800 0.929 . S
C1814 C1813 1.399 . S
C1814 C1815 1.385 . S
C1815 H1801 0.931 . S
C1815 C1814 1.385 . S
C1815 C1816 1.389 . S
C1816 C1815 1.389 . S
C1816 C1817 1.387 . S
C1817 H1802 0.930 . S
C1817 C1812 1.390 . S
C1817 C1816 1.387 . S
H1818 C1830 0.930 . S
H1819 C1832 0.930 . S
H1820 C1833 0.930 . S
H1821 C1837 0.959 . S
H1822 C1837 0.959 . S
H1823 C1837 0.961 . S
H1824 C1838 0.960 . S
H1825 C1838 0.961 . S
H1826 C1838 0.959 . S
H1827 C1841 0.929 . S
H1828 C1842 0.931 . S
H1829 C1844 0.930 . S
C1830 H1818 0.930 . S
C1830 C1831 1.399 . S
C1830 C1835 1.399 . S
C1831 C1830 1.399 . S
C1831 C1832 1.376 . S
C1832 H1819 0.930 . S
C1832 C1831 1.376 . S
C1832 C1833 1.388 . S
C1833 H1820 0.930 . S
C1833 C1832 1.388 . S
C1833 C1834 1.390 . S
C1834 C1833 1.390 . S
C1834 C1835 1.394 . S
C1834 C1840 1.465 . S
C1835 C1830 1.399 . S
C1835 C1834 1.394 . S
C1835 C1836 1.516 . S
C1836 C1835 1.516 . S
C1836 C1837 1.502 . S
C1836 C1838 1.561 . S
C1836 C1839 1.526 . S
C1837 H1821 0.959 . S
C1837 H1822 0.959 . S
C1837 H1823 0.961 . S
C1837 C1836 1.502 . S
C1838 H1824 0.960 . S
C1838 H1825 0.961 . S
C1838 H1826 0.959 . S
C1838 C1836 1.561 . S
C1839 C1836 1.526 . S
C1839 C1840 1.396 . S
C1839 C1844 1.390 . S
C1840 C1834 1.465 . S
C1840 C1839 1.396 . S
C1840 C1841 1.399 . S
C1841 H1827 0.929 . S
C1841 C1840 1.399 . S
C1841 C1842 1.385 . S
C1842 H1828 0.931 . S
C1842 C1841 1.385 . S
C1842 C1843 1.389 . S
C1843 C1842 1.389 . S
C1843 C1844 1.387 . S
C1844 H1829 0.930 . S
C1844 C1839 1.390 . S
C1844 C1843 1.387 . S
H1845 C1857 0.930 . S
H1846 C1859 0.930 . S
H1847 C1860 0.930 . S
H1848 C1864 0.959 . S
H1849 C1864 0.959 . S
H1850 C1864 0.961 . S
H1851 C1865 0.960 . S
H1852 C1865 0.961 . S
H1853 C1865 0.959 . S
H1854 C1868 0.929 . S
H1855 C1869 0.931 . S
H1856 C1871 0.930 . S
C1857 H1845 0.930 . S
C1857 C1858 1.399 . S
C1857 C1862 1.399 . S
C1858 C1857 1.399 . S
C1858 C1859 1.376 . S
C1859 H1846 0.930 . S
C1859 C1858 1.376 . S
C1859 C1860 1.388 . S
C1860 H1847 0.930 . S
C1860 C1859 1.388 . S
C1860 C1861 1.390 . S
C1861 C1860 1.390 . S
C1861 C1862 1.394 . S
C1861 C1867 1.465 . S
C1862 C1857 1.399 . S
C1862 C1861 1.394 . S
C1862 C1863 1.516 . S
C1863 C1862 1.516 . S
C1863 C1864 1.502 . S
C1863 C1865 1.561 . S
C1863 C1866 1.526 . S
C1864 H1848 0.959 . S
C1864 H1849 0.959 . S
C1864 H1850 0.961 . S
C1864 C1863 1.502 . S
C1865 H1851 0.960 . S
C1865 H1852 0.961 . S
C1865 H1853 0.959 . S
C1865 C1863 1.561 . S
C1866 C1863 1.526 . S
C1866 C1867 1.396 . S
C1866 C1871 1.390 . S
C1867 C1861 1.465 . S
C1867 C1866 1.396 . S
C1867 C1868 1.399 . S
C1868 H1854 0.929 . S
C1868 C1867 1.399 . S
C1868 C1869 1.385 . S
C1869 H1855 0.931 . S
C1869 C1868 1.385 . S
C1869 C1870 1.389 . S
C1870 C1869 1.389 . S
C1870 C1871 1.387 . S
C1871 H1856 0.930 . S
C1871 C1866 1.390 . S
C1871 C1870 1.387 . S
H1872 C1884 0.930 . S
H1873 C1886 0.930 . S
H1874 C1887 0.930 . S
H1875 C1891 0.959 . S
H1876 C1891 0.959 . S
H1877 C1891 0.961 . S
H1878 C1892 0.960 . S
H1879 C1892 0.961 . S
H1880 C1892 0.959 . S
H1881 C1895 0.929 . S
H1882 C1896 0.931 . S
H1883 C1898 0.930 . S
C1884 H1872 0.930 . S
C1884 C1885 1.399 . S
C1884 C1889 1.399 . S
C1885 C1884 1.399 . S
C1885 C1886 1.376 . S
C1886 H1873 0.930 . S
C1886 C1885 1.376 . S
C1886 C1887 1.388 . S
C1887 H1874 0.930 . S
C1887 C1886 1.388 . S
C1887 C1888 1.390 . S
C1888 C1887 1.390 . S
C1888 C1889 1.394 . S
C1888 C1894 1.465 . S
C1889 C1884 1.399 . S
C1889 C1888 1.394 . S
C1889 C1890 1.516 . S
C1890 C1889 1.516 . S
C1890 C1891 1.502 . S
C1890 C1892 1.561 . S
C1890 C1893 1.526 . S
C1891 H1875 0.959 . S
C1891 H1876 0.959 . S
C1891 H1877 0.961 . S
C1891 C1890 1.502 . S
C1892 H1878 0.960 . S
C1892 H1879 0.961 . S
C1892 H1880 0.959 . S
C1892 C1890 1.561 . S
C1893 C1890 1.526 . S
C1893 C1894 1.396 . S
C1893 C1898 1.390 . S
C1894 C1888 1.465 . S
C1894 C1893 1.396 . S
C1894 C1895 1.399 . S
C1895 H1881 0.929 . S
C1895 C1894 1.399 . S
C1895 C1896 1.385 . S
C1896 H1882 0.931 . S
C1896 C1895 1.385 . S
C1896 C1897 1.389 . S
C1897 C1896 1.389 . S
C1897 C1898 1.387 . S
C1898 H1883 0.930 . S
C1898 C1893 1.390 . S
C1898 C1897 1.387 . S
H1899 C1911 0.930 . S
H1900 C1913 0.930 . S
H1901 C1914 0.930 . S
H1902 C1918 0.959 . S
H1903 C1918 0.959 . S
H1904 C1918 0.961 . S
H1905 C1919 0.960 . S
H1906 C1919 0.961 . S
H1907 C1919 0.959 . S
H1908 C1922 0.929 . S
H1909 C1923 0.931 . S
H1910 C1925 0.930 . S
C1911 H1899 0.930 . S
C1911 C1912 1.399 . S
C1911 C1916 1.399 . S
C1912 C1911 1.399 . S
C1912 C1913 1.376 . S
C1913 H1900 0.930 . S
C1913 C1912 1.376 . S
C1913 C1914 1.388 . S
C1914 H1901 0.930 . S
C1914 C1913 1.388 . S
C1914 C1915 1.390 . S
C1915 C1914 1.390 . S
C1915 C1916 1.394 . S
C1915 C1921 1.465 . S
C1916 C1911 1.399 . S
C1916 C1915 1.394 . S
C1916 C1917 1.516 . S
C1917 C1916 1.516 . S
C1917 C1918 1.502 . S
C1917 C1919 1.561 . S
C1917 C1920 1.526 . S
C1918 H1902 0.959 . S
C1918 H1903 0.959 . S
C1918 H1904 0.961 . S
C1918 C1917 1.502 . S
C1919 H1905 0.960 . S
C1919 H1906 0.961 . S
C1919 H1907 0.959 . S
C1919 C1917 1.561 . S
C1920 C1917 1.526 . S
C1920 C1921 1.396 . S
C1920 C1925 1.390 . S
C1921 C1915 1.465 . S
C1921 C1920 1.396 . S
C1921 C1922 1.399 . S
C1922 H1908 0.929 . S
C1922 C1921 1.399 . S
C1922 C1923 1.385 . S
C1923 H1909 0.931 . S
C1923 C1922 1.385 . S
C1923 C1924 1.389 . S
C1924 C1923 1.389 . S
C1924 C1925 1.387 . S
C1925 H1910 0.930 . S
C1925 C1920 1.390 . S
C1925 C1924 1.387 . S
H1926 C1938 0.930 . S
H1927 C1940 0.930 . S
H1928 C1941 0.930 . S
H1929 C1945 0.959 . S
H1930 C1945 0.959 . S
H1931 C1945 0.961 . S
H1932 C1946 0.960 . S
H1933 C1946 0.961 . S
H1934 C1946 0.959 . S
H1935 C1949 0.929 . S
H1936 C1950 0.931 . S
H1937 C1952 0.930 . S
C1938 H1926 0.930 . S
C1938 C1939 1.399 . S
C1938 C1943 1.399 . S
C1939 C1938 1.399 . S
C1939 C1940 1.376 . S
C1940 H1927 0.930 . S
C1940 C1939 1.376 . S
C1940 C1941 1.388 . S
C1941 H1928 0.930 . S
C1941 C1940 1.388 . S
C1941 C1942 1.390 . S
C1942 C1941 1.390 . S
C1942 C1943 1.394 . S
C1942 C1948 1.465 . S
C1943 C1938 1.399 . S
C1943 C1942 1.394 . S
C1943 C1944 1.516 . S
C1944 C1943 1.516 . S
C1944 C1945 1.502 . S
C1944 C1946 1.561 . S
C1944 C1947 1.526 . S
C1945 H1929 0.959 . S
C1945 H1930 0.959 . S
C1945 H1931 0.961 . S
C1945 C1944 1.502 . S
C1946 H1932 0.960 . S
C1946 H1933 0.961 . S
C1946 H1934 0.959 . S
C1946 C1944 1.561 . S
C1947 C1944 1.526 . S
C1947 C1948 1.396 . S
C1947 C1952 1.390 . S
C1948 C1942 1.465 . S
C1948 C1947 1.396 . S
C1948 C1949 1.399 . S
C1949 H1935 0.929 . S
C1949 C1948 1.399 . S
C1949 C1950 1.385 . S
C1950 H1936 0.931 . S
C1950 C1949 1.385 . S
C1950 C1951 1.389 . S
C1951 C1950 1.389 . S
C1951 C1952 1.387 . S
C1952 H1937 0.930 . S
C1952 C1947 1.390 . S
C1952 C1951 1.387 . S
H1953 C1965 0.930 . S
H1954 C1967 0.930 . S
H1955 C1968 0.930 . S
H1956 C1972 0.959 . S
H1957 C1972 0.959 . S
H1958 C1972 0.961 . S
H1959 C1973 0.960 . S
H1960 C1973 0.961 . S
H1961 C1973 0.959 . S
H1962 C1976 0.929 . S
H1963 C1977 0.931 . S
H1964 C1979 0.930 . S
C1965 H1953 0.930 . S
C1965 C1966 1.399 . S
C1965 C1970 1.399 . S
C1966 C1965 1.399 . S
C1966 C1967 1.376 . S
C1967 H1954 0.930 . S
C1967 C1966 1.376 . S
C1967 C1968 1.388 . S
C1968 H1955 0.930 . S
C1968 C1967 1.388 . S
C1968 C1969 1.390 . S
C1969 C1968 1.390 . S
C1969 C1970 1.394 . S
C1969 C1975 1.465 . S
C1970 C1965 1.399 . S
C1970 C1969 1.394 . S
C1970 C1971 1.516 . S
C1971 C1970 1.516 . S
C1971 C1972 1.502 . S
C1971 C1973 1.561 . S
C1971 C1974 1.526 . S
C1972 H1956 0.959 . S
C1972 H1957 0.959 . S
C1972 H1958 0.961 . S
C1972 C1971 1.502 . S
C1973 H1959 0.960 . S
C1973 H1960 0.961 . S
C1973 H1961 0.959 . S
C1973 C1971 1.561 . S
C1974 C1971 1.526 . S
C1974 C1975 1.396 . S
C1974 C1979 1.390 . S
C1975 C1969 1.465 . S
C1975 C1974 1.396 . S
C1975 C1976 1.399 . S
C1976 H1962 0.929 . S
C1976 C1975 1.399 . S
C1976 C1977 1.385 . S
C1977 H1963 0.931 . S
C1977 C1976 1.385 . S
C1977 C1978 1.389 . S
C1978 C1977 1.389 . S
C1978 C1979 1.387 . S
C1979 H1964 0.930 . S
C1979 C1974 1.390 . S
C1979 C1978 1.387 . S
H1980 C1992 0.930 . S
H1981 C1994 0.930 . S
H1982 C1995 0.930 . S
H1983 C1999 0.959 . S
H1984 C1999 0.959 . S
H1985 C1999 0.961 . S
H1986 C2000 0.960 . S
H1987 C2000 0.961 . S
H1988 C2000 0.959 . S
H1989 C2003 0.929 . S
H1990 C2004 0.931 . S
H1991 C2006 0.930 . S
C1992 H1980 0.930 . S
C1992 C1993 1.399 . S
C1992 C1997 1.399 . S
C1993 C1992 1.399 . S
C1993 C1994 1.376 . S
C1994 H1981 0.930 . S
C1994 C1993 1.376 . S
C1994 C1995 1.388 . S
C1995 H1982 0.930 . S
C1995 C1994 1.388 . S
C1995 C1996 1.390 . S
C1996 C1995 1.390 . S
C1996 C1997 1.394 . S
C1996 C2002 1.465 . S
C1997 C1992 1.399 . S
C1997 C1996 1.394 . S
C1997 C1998 1.516 . S
C1998 C1997 1.516 . S
C1998 C1999 1.502 . S
C1998 C2000 1.561 . S
C1998 C2001 1.526 . S
C1999 H1983 0.959 . S
C1999 H1984 0.959 . S
C1999 H1985 0.961 . S
C1999 C1998 1.502 . S
C2000 H1986 0.960 . S
C2000 H1987 0.961 . S
C2000 H1988 0.959 . S
C2000 C1998 1.561 . S
C2001 C1998 1.526 . S
C2001 C2002 1.396 . S
C2001 C2006 1.390 . S
C2002 C1996 1.465 . S
C2002 C2001 1.396 . S
C2002 C2003 1.399 . S
C2003 H1989 0.929 . S
C2003 C2002 1.399 . S
C2003 C2004 1.385 . S
C2004 H1990 0.931 . S
C2004 C2003 1.385 . S
C2004 C2005 1.389 . S
C2005 C2004 1.389 . S
C2005 C2006 1.387 . S
C2006 H1991 0.930 . S
C2006 C2001 1.390 . S
C2006 C2005 1.387 . S
H2007 C2019 0.930 . S
H2008 C2021 0.930 . S
H2009 C2022 0.930 . S
H2010 C2026 0.959 . S
H2011 C2026 0.959 . S
H2012 C2026 0.961 . S
H2013 C2027 0.960 . S
H2014 C2027 0.961 . S
H2015 C2027 0.959 . S
H2016 C2030 0.929 . S
H2017 C2031 0.931 . S
H2018 C2033 0.930 . S
C2019 H2007 0.930 . S
C2019 C2020 1.399 . S
C2019 C2024 1.399 . S
C2020 C2019 1.399 . S
C2020 C2021 1.376 . S
C2021 H2008 0.930 . S
C2021 C2020 1.376 . S
C2021 C2022 1.388 . S
C2022 H2009 0.930 . S
C2022 C2021 1.388 . S
C2022 C2023 1.390 . S
C2023 C2022 1.390 . S
C2023 C2024 1.394 . S
C2023 C2029 1.465 . S
C2024 C2019 1.399 . S
C2024 C2023 1.394 . S
C2024 C2025 1.516 . S
C2025 C2024 1.516 . S
C2025 C2026 1.502 . S
C2025 C2027 1.561 . S
C2025 C2028 1.526 . S
C2026 H2010 0.959 . S
C2026 H2011 0.959 . S
C2026 H2012 0.961 . S
C2026 C2025 1.502 . S
C2027 H2013 0.960 . S
C2027 H2014 0.961 . S
C2027 H2015 0.959 . S
C2027 C2025 1.561 . S
C2028 C2025 1.526 . S
C2028 C2029 1.396 . S
C2028 C2033 1.390 . S
C2029 C2023 1.465 . S
C2029 C2028 1.396 . S
C2029 C2030 1.399 . S
C2030 H2016 0.929 . S
C2030 C2029 1.399 . S
C2030 C2031 1.385 . S
C2031 H2017 0.931 . S
C2031 C2030 1.385 . S
C2031 C2032 1.389 . S
C2032 C2031 1.389 . S
C2032 C2033 1.387 . S
C2033 H2018 0.930 . S
C2033 C2028 1.390 . S
C2033 C2032 1.387 . S
H2034 C2046 0.930 . S
H2035 C2048 0.944 . S
H2036 C2049 0.930 1_545 S
H2037 C2053 0.959 . S
H2038 C2053 0.959 . S
H2039 C2053 0.961 . S
H2040 C2054 0.960 . S
H2041 C2054 0.961 . S
H2042 C2054 0.959 . S
H2043 C2057 0.929 . S
H2044 C2058 0.931 . S
H2045 C2060 0.930 . S
C2046 H2034 0.930 . S
C2046 C2047 1.399 . S
C2046 C2051 1.399 . S
C2047 C2046 1.399 . S
C2047 C2048 1.370 1_565 S
C2048 H2035 0.944 . S
C2048 C2047 1.370 1_545 S
C2048 C2049 1.381 1_545 S
C2049 H2036 0.930 1_565 S
C2049 C2048 1.381 1_565 S
C2049 C2050 1.390 . S
C2050 C2049 1.390 . S
C2050 C2051 1.394 . S
C2050 C2056 1.465 . S
C2051 C2046 1.399 . S
C2051 C2050 1.394 . S
C2051 C2052 1.516 . S
C2052 C2051 1.516 . S
C2052 C2053 1.502 . S
C2052 C2054 1.561 . S
C2052 C2055 1.526 . S
C2053 H2037 0.959 . S
C2053 H2038 0.959 . S
C2053 H2039 0.961 . S
C2053 C2052 1.502 . S
C2054 H2040 0.960 . S
C2054 H2041 0.961 . S
C2054 H2042 0.959 . S
C2054 C2052 1.561 . S
C2055 C2052 1.526 . S
C2055 C2056 1.396 . S
C2055 C2060 1.390 . S
C2056 C2050 1.465 . S
C2056 C2055 1.396 . S
C2056 C2057 1.399 . S
C2057 H2043 0.929 . S
C2057 C2056 1.399 . S
C2057 C2058 1.385 . S
C2058 H2044 0.931 . S
C2058 C2057 1.385 . S
C2058 C2059 1.389 . S
C2059 C2058 1.389 . S
C2059 C2060 1.387 . S
C2060 H2045 0.930 . S
C2060 C2055 1.390 . S
C2060 C2059 1.387 . S
H2061 C2073 0.930 . S
H2062 C2075 0.930 . S
H2063 C2076 0.930 . S
H2064 C2080 0.959 . S
H2065 C2080 0.959 . S
H2066 C2080 0.961 . S
H2067 C2081 0.960 . S
H2068 C2081 0.961 . S
H2069 C2081 0.959 . S
H2070 C2084 0.929 . S
H2071 C2085 0.931 . S
H2072 C2087 0.930 . S
C2073 H2061 0.930 . S
C2073 C2074 1.399 . S
C2073 C2078 1.399 . S
C2074 C2073 1.399 . S
C2074 C2075 1.376 . S
C2075 H2062 0.930 . S
C2075 C2074 1.376 . S
C2075 C2076 1.388 . S
C2076 H2063 0.930 . S
C2076 C2075 1.388 . S
C2076 C2077 1.390 . S
C2077 C2076 1.390 . S
C2077 C2078 1.394 . S
C2077 C2083 1.465 . S
C2078 C2073 1.399 . S
C2078 C2077 1.394 . S
C2078 C2079 1.516 . S
C2079 C2078 1.516 . S
C2079 C2080 1.502 . S
C2079 C2081 1.561 . S
C2079 C2082 1.526 . S
C2080 H2064 0.959 . S
C2080 H2065 0.959 . S
C2080 H2066 0.961 . S
C2080 C2079 1.502 . S
C2081 H2067 0.960 . S
C2081 H2068 0.961 . S
C2081 H2069 0.959 . S
C2081 C2079 1.561 . S
C2082 C2079 1.526 . S
C2082 C2083 1.396 . S
C2082 C2087 1.390 . S
C2083 C2077 1.465 . S
C2083 C2082 1.396 . S
C2083 C2084 1.399 . S
C2084 H2070 0.929 . S
C2084 C2083 1.399 . S
C2084 C2085 1.385 . S
C2085 H2071 0.931 . S
C2085 C2084 1.385 . S
C2085 C2086 1.389 . S
C2086 C2085 1.389 . S
C2086 C2087 1.387 . S
C2087 H2072 0.930 . S
C2087 C2082 1.390 . S
C2087 C2086 1.387 . S
H2088 C2100 0.930 . S
H2089 C2102 0.930 . S
H2090 C2103 0.930 . S
H2091 C2107 0.959 . S
H2092 C2107 0.959 . S
H2093 C2107 0.961 . S
H2094 C2108 0.960 . S
H2095 C2108 0.961 . S
H2096 C2108 0.959 . S
H2097 C2111 0.929 . S
H2098 C2112 0.931 . S
H2099 C2114 0.930 . S
C2100 H2088 0.930 . S
C2100 C2101 1.399 . S
C2100 C2105 1.399 . S
C2101 C2100 1.399 . S
C2101 C2102 1.376 . S
C2102 H2089 0.930 . S
C2102 C2101 1.376 . S
C2102 C2103 1.388 . S
C2103 H2090 0.930 . S
C2103 C2102 1.388 . S
C2103 C2104 1.390 . S
C2104 C2103 1.390 . S
C2104 C2105 1.394 . S
C2104 C2110 1.465 . S
C2105 C2100 1.399 . S
C2105 C2104 1.394 . S
C2105 C2106 1.516 . S
C2106 C2105 1.516 . S
C2106 C2107 1.502 . S
C2106 C2108 1.561 . S
C2106 C2109 1.526 . S
C2107 H2091 0.959 . S
C2107 H2092 0.959 . S
C2107 H2093 0.961 . S
C2107 C2106 1.502 . S
C2108 H2094 0.960 . S
C2108 H2095 0.961 . S
C2108 H2096 0.959 . S
C2108 C2106 1.561 . S
C2109 C2106 1.526 . S
C2109 C2110 1.396 . S
C2109 C2114 1.390 . S
C2110 C2104 1.465 . S
C2110 C2109 1.396 . S
C2110 C2111 1.399 . S
C2111 H2097 0.929 . S
C2111 C2110 1.399 . S
C2111 C2112 1.385 . S
C2112 H2098 0.931 . S
C2112 C2111 1.385 . S
C2112 C2113 1.389 . S
C2113 C2112 1.389 . S
C2113 C2114 1.387 . S
C2114 H2099 0.930 . S
C2114 C2109 1.390 . S
C2114 C2113 1.387 . S
H2115 C2127 0.932 . S
H2116 C2129 0.930 . S
H2117 C2130 0.930 . S
H2118 C2134 0.959 . S
H2119 C2134 0.959 . S
H2120 C2134 0.961 . S
H2121 C2135 0.960 1_554 S
H2122 C2135 0.998 . S
H2123 C2135 0.959 1_554 S
H2124 C2138 0.929 . S
H2125 C2139 0.931 . S
H2126 C2141 0.930 . S
C2127 H2115 0.932 . S
C2127 C2128 1.399 1_556 S
C2127 C2132 1.399 . S
C2128 C2127 1.399 1_554 S
C2128 C2129 1.376 . S
C2129 H2116 0.930 . S
C2129 C2128 1.376 . S
C2129 C2130 1.388 1_554 S
C2130 H2117 0.930 . S
C2130 C2129 1.388 1_556 S
C2130 C2131 1.390 . S
C2131 C2130 1.390 . S
C2131 C2132 1.394 . S
C2131 C2137 1.465 . S
C2132 C2127 1.399 . S
C2132 C2131 1.394 . S
C2132 C2133 1.516 . S
C2133 C2132 1.516 . S
C2133 C2134 1.502 . S
C2133 C2135 1.561 . S
C2133 C2136 1.526 . S
C2134 H2118 0.959 . S
C2134 H2119 0.959 . S
C2134 H2120 0.961 . S
C2134 C2133 1.502 . S
C2135 H2121 0.960 1_556 S
C2135 H2122 0.998 . S
C2135 H2123 0.959 1_556 S
C2135 C2133 1.561 . S
C2136 C2133 1.526 . S
C2136 C2137 1.396 . S
C2136 C2141 1.390 . S
C2137 C2131 1.465 . S
C2137 C2136 1.396 . S
C2137 C2138 1.399 . S
C2138 H2124 0.929 . S
C2138 C2137 1.399 . S
C2138 C2139 1.385 . S
C2139 H2125 0.931 . S
C2139 C2138 1.385 . S
C2139 C2140 1.389 . S
C2140 C2139 1.389 . S
C2140 C2141 1.387 . S
C2141 H2126 0.930 . S
C2141 C2136 1.390 . S
C2141 C2140 1.387 . S
H2142 C2154 0.930 . S
H2143 C2156 0.930 1_554 S
H2144 C2157 0.930 . S
H2145 C2161 0.959 . S
H2146 C2161 0.959 . S
H2147 C2161 0.961 . S
H2148 C2162 0.960 . S
H2149 C2162 0.961 1_556 S
H2150 C2162 0.959 . S
H2151 C2165 0.929 . S
H2152 C2166 0.931 . S
H2153 C2168 0.930 . S
C2154 H2142 0.930 . S
C2154 C2155 1.399 . S
C2154 C2159 1.399 1_554 S
C2155 C2154 1.399 . S
C2155 C2156 1.376 1_554 S
C2156 H2143 0.930 1_556 S
C2156 C2155 1.376 1_556 S
C2156 C2157 1.388 . S
C2157 H2144 0.930 . S
C2157 C2156 1.388 . S
C2157 C2158 1.390 . S
C2158 C2157 1.390 . S
C2158 C2159 1.394 . S
C2158 C2164 1.465 . S
C2159 C2154 1.399 1_556 S
C2159 C2158 1.394 . S
C2159 C2160 1.516 . S
C2160 C2159 1.516 . S
C2160 C2161 1.502 . S
C2160 C2162 1.561 1_556 S
C2160 C2163 1.526 . S
C2161 H2145 0.959 . S
C2161 H2146 0.959 . S
C2161 H2147 0.961 . S
C2161 C2160 1.502 . S
C2162 H2148 0.960 . S
C2162 H2149 0.961 1_554 S
C2162 H2150 0.959 . S
C2162 C2160 1.561 1_554 S
C2163 C2160 1.526 . S
C2163 C2164 1.396 . S
C2163 C2168 1.390 . S
C2164 C2158 1.465 . S
C2164 C2163 1.396 . S
C2164 C2165 1.399 . S
C2165 H2151 0.929 . S
C2165 C2164 1.399 . S
C2165 C2166 1.385 . S
C2166 H2152 0.931 . S
C2166 C2165 1.385 . S
C2166 C2167 1.389 . S
C2167 C2166 1.389 . S
C2167 C2168 1.387 . S
C2168 H2153 0.930 . S
C2168 C2163 1.390 . S
C2168 C2167 1.387 . S
H2169 C2181 0.930 . S
H2170 C2183 0.930 . S
H2171 C2184 0.930 . S
H2172 C2188 0.959 . S
H2173 C2188 0.959 . S
H2174 C2188 0.961 . S
H2175 C2189 0.960 . S
H2176 C2189 0.961 . S
H2177 C2189 0.959 . S
H2178 C2192 0.929 . S
H2179 C2193 0.931 . S
H2180 C2195 0.930 . S
C2181 H2169 0.930 . S
C2181 C2182 1.399 . S
C2181 C2186 1.399 . S
C2182 C2181 1.399 . S
C2182 C2183 1.376 . S
C2183 H2170 0.930 . S
C2183 C2182 1.376 . S
C2183 C2184 1.388 . S
C2184 H2171 0.930 . S
C2184 C2183 1.388 . S
C2184 C2185 1.390 . S
C2185 C2184 1.390 . S
C2185 C2186 1.394 . S
C2185 C2191 1.465 . S
C2186 C2181 1.399 . S
C2186 C2185 1.394 . S
C2186 C2187 1.516 . S
C2187 C2186 1.516 . S
C2187 C2188 1.502 . S
C2187 C2189 1.561 . S
C2187 C2190 1.526 . S
C2188 H2172 0.959 . S
C2188 H2173 0.959 . S
C2188 H2174 0.961 . S
C2188 C2187 1.502 . S
C2189 H2175 0.960 . S
C2189 H2176 0.961 . S
C2189 H2177 0.959 . S
C2189 C2187 1.561 . S
C2190 C2187 1.526 . S
C2190 C2191 1.396 . S
C2190 C2195 1.390 . S
C2191 C2185 1.465 . S
C2191 C2190 1.396 . S
C2191 C2192 1.399 1_556 S
C2192 H2178 0.929 . S
C2192 C2191 1.399 1_554 S
C2192 C2193 1.385 . S
C2193 H2179 0.931 . S
C2193 C2192 1.385 . S
C2193 C2194 1.389 . S
C2194 C2193 1.389 . S
C2194 C2195 1.387 1_554 S
C2195 H2180 0.930 . S
C2195 C2190 1.390 . S
C2195 C2194 1.387 1_556 S
H2196 C2208 0.930 . S
H2197 C2210 0.930 . S
H2198 C2211 0.930 . S
H2199 C2215 0.959 . S
H2200 C2215 0.959 . S
H2201 C2215 0.961 . S
H2202 C2216 0.960 . S
H2203 C2216 0.961 . S
H2204 C2216 0.959 . S
H2205 C2219 0.929 . S
H2206 C2220 0.931 . S
H2207 C2222 0.930 . S
C2208 H2196 0.930 . S
C2208 C2209 1.399 . S
C2208 C2213 1.399 . S
C2209 C2208 1.399 . S
C2209 C2210 1.376 . S
C2210 H2197 0.930 . S
C2210 C2209 1.376 . S
C2210 C2211 1.388 . S
C2211 H2198 0.930 . S
C2211 C2210 1.388 . S
C2211 C2212 1.390 . S
C2212 C2211 1.390 . S
C2212 C2213 1.394 . S
C2212 C2218 1.465 . S
C2213 C2208 1.399 . S
C2213 C2212 1.394 . S
C2213 C2214 1.516 . S
C2214 C2213 1.516 . S
C2214 C2215 1.502 . S
C2214 C2216 1.561 . S
C2214 C2217 1.526 . S
C2215 H2199 0.959 . S
C2215 H2200 0.959 . S
C2215 H2201 0.961 . S
C2215 C2214 1.502 . S
C2216 H2202 0.960 . S
C2216 H2203 0.961 . S
C2216 H2204 0.959 . S
C2216 C2214 1.561 . S
C2217 C2214 1.526 . S
C2217 C2218 1.396 . S
C2217 C2222 1.390 . S
C2218 C2212 1.465 . S
C2218 C2217 1.396 . S
C2218 C2219 1.399 . S
C2219 H2205 0.929 . S
C2219 C2218 1.399 . S
C2219 C2220 1.385 . S
C2220 H2206 0.931 . S
C2220 C2219 1.385 . S
C2220 C2221 1.389 . S
C2221 C2220 1.389 . S
C2221 C2222 1.387 . S
C2222 H2207 0.930 . S
C2222 C2217 1.390 . S
C2222 C2221 1.387 . S
H2223 C2235 0.930 . S
H2224 C2237 0.930 1_455 S
H2225 C2238 0.930 . S
H2226 C2242 0.959 . S
H2227 C2242 0.959 . S
H2228 C2242 0.961 . S
H2229 C2243 0.960 . S
H2230 C2243 0.961 . S
H2231 C2243 0.959 . S
H2232 C2246 0.929 . S
H2233 C2247 0.931 . S
H2234 C2249 0.930 . S
C2235 H2223 0.930 . S
C2235 C2236 1.399 . S
C2235 C2240 1.399 . S
C2236 C2235 1.399 . S
C2236 C2237 1.376 . S
C2237 H2224 0.930 1_655 S
C2237 C2236 1.376 . S
C2237 C2238 1.388 . S
C2238 H2225 0.930 . S
C2238 C2237 1.388 . S
C2238 C2239 1.390 . S
C2239 C2238 1.390 . S
C2239 C2240 1.394 . S
C2239 C2245 1.465 . S
C2240 C2235 1.399 . S
C2240 C2239 1.394 . S
C2240 C2241 1.516 . S
C2241 C2240 1.516 . S
C2241 C2242 1.502 . S
C2241 C2243 1.561 . S
C2241 C2244 1.526 . S
C2242 H2226 0.959 . S
C2242 H2227 0.959 . S
C2242 H2228 0.961 . S
C2242 C2241 1.502 . S
C2243 H2229 0.960 . S
C2243 H2230 0.961 . S
C2243 H2231 0.959 . S
C2243 C2241 1.561 . S
C2244 C2241 1.526 . S
C2244 C2245 1.396 . S
C2244 C2249 1.390 . S
C2245 C2239 1.465 . S
C2245 C2244 1.396 . S
C2245 C2246 1.399 . S
C2246 H2232 0.929 . S
C2246 C2245 1.399 . S
C2246 C2247 1.385 . S
C2247 H2233 0.931 . S
C2247 C2246 1.385 . S
C2247 C2248 1.389 . S
C2248 C2247 1.389 . S
C2248 C2249 1.387 . S
C2249 H2234 0.930 . S
C2249 C2244 1.390 . S
C2249 C2248 1.387 . S
H2250 C2262 0.930 . S
H2251 C2264 0.930 . S
H2252 C2265 0.930 . S
H2253 C2269 0.959 . S
H2254 C2269 0.959 . S
H2255 C2269 0.961 . S
H2256 C2270 0.960 . S
H2257 C2270 0.961 . S
H2258 C2270 0.959 . S
H2259 C2273 0.929 . S
H2260 C2274 0.931 . S
H2261 C2276 0.930 . S
C2262 H2250 0.930 . S
C2262 C2263 1.399 . S
C2262 C2267 1.399 . S
C2263 C2262 1.399 . S
C2263 C2264 1.376 . S
C2264 H2251 0.930 . S
C2264 C2263 1.376 . S
C2264 C2265 1.388 . S
C2265 H2252 0.930 . S
C2265 C2264 1.388 . S
C2265 C2266 1.390 . S
C2266 C2265 1.390 . S
C2266 C2267 1.394 . S
C2266 C2272 1.465 . S
C2267 C2262 1.399 . S
C2267 C2266 1.394 . S
C2267 C2268 1.516 . S
C2268 C2267 1.516 . S
C2268 C2269 1.502 . S
C2268 C2270 1.561 . S
C2268 C2271 1.526 . S
C2269 H2253 0.959 . S
C2269 H2254 0.959 . S
C2269 H2255 0.961 . S
C2269 C2268 1.502 . S
C2270 H2256 0.960 . S
C2270 H2257 0.961 . S
C2270 H2258 0.959 . S
C2270 C2268 1.561 . S
C2271 C2268 1.526 . S
C2271 C2272 1.396 . S
C2271 C2276 1.390 . S
C2272 C2266 1.465 . S
C2272 C2271 1.396 . S
C2272 C2273 1.399 . S
C2273 H2259 0.929 . S
C2273 C2272 1.399 . S
C2273 C2274 1.385 . S
C2274 H2260 0.931 . S
C2274 C2273 1.385 . S
C2274 C2275 1.389 . S
C2275 C2274 1.389 . S
C2275 C2276 1.387 . S
C2276 H2261 0.930 . S
C2276 C2271 1.390 . S
C2276 C2275 1.387 . S
H2277 C2289 0.930 . S
H2278 C2291 0.930 . S
H2279 C2292 0.930 . S
H2280 C2296 0.959 . S
H2281 C2296 0.959 . S
H2282 C2296 0.961 . S
H2283 C2297 0.961 . S
H2284 C2297 0.958 1_556 S
H2285 C2297 0.960 . S
H2286 C2300 0.929 . S
H2287 C2301 0.931 . S
H2288 C2303 0.930 . S
C2289 H2277 0.930 . S
C2289 C2290 1.399 . S
C2289 C2294 1.399 . S
C2290 C2289 1.399 . S
C2290 C2291 1.376 . S
C2291 H2278 0.930 . S
C2291 C2290 1.376 . S
C2291 C2292 1.388 . S
C2292 H2279 0.930 . S
C2292 C2291 1.388 . S
C2292 C2293 1.390 . S
C2293 C2292 1.390 . S
C2293 C2294 1.394 . S
C2293 C2299 1.465 . S
C2294 C2289 1.399 . S
C2294 C2293 1.394 . S
C2294 C2295 1.516 . S
C2295 C2294 1.516 . S
C2295 C2296 1.502 1_554 S
C2295 C2297 1.562 . S
C2295 C2298 1.526 . S
C2296 H2280 0.959 . S
C2296 H2281 0.959 . S
C2296 H2282 0.961 . S
C2296 C2295 1.502 1_556 S
C2297 H2283 0.961 . S
C2297 H2284 0.958 1_554 S
C2297 H2285 0.960 . S
C2297 C2295 1.562 . S
C2298 C2295 1.526 . S
C2298 C2299 1.396 . S
C2298 C2303 1.390 1_554 S
C2299 C2293 1.465 . S
C2299 C2298 1.396 . S
C2299 C2300 1.399 . S
C2300 H2286 0.929 . S
C2300 C2299 1.399 . S
C2300 C2301 1.385 . S
C2301 H2287 0.931 . S
C2301 C2300 1.385 . S
C2301 C2302 1.389 1_554 S
C2302 C2301 1.389 1_556 S
C2302 C2303 1.387 . S
C2303 H2288 0.930 . S
C2303 C2298 1.390 1_556 S
C2303 C2302 1.387 . S
H2304 C2316 0.930 . S
H2305 C2318 0.930 . S
H2306 C2319 0.930 . S
H2307 C2323 0.959 . S
H2308 C2323 0.959 . S
H2309 C2323 0.961 1_556 S
H2310 C2324 0.960 . S
H2311 C2324 0.961 . S
H2312 C2324 0.959 . S
H2313 C2327 0.929 . S
H2314 C2328 0.931 . S
H2315 C2330 0.930 . S
C2316 H2304 0.930 . S
C2316 C2317 1.399 . S
C2316 C2321 1.399 1_556 S
C2317 C2316 1.399 . S
C2317 C2318 1.376 1_556 S
C2318 H2305 0.930 . S
C2318 C2317 1.376 1_554 S
C2318 C2319 1.388 . S
C2319 H2306 0.930 . S
C2319 C2318 1.388 . S
C2319 C2320 1.390 . S
C2320 C2319 1.390 . S
C2320 C2321 1.394 . S
C2320 C2326 1.465 . S
C2321 C2316 1.399 1_554 S
C2321 C2320 1.394 . S
C2321 C2322 1.516 . S
C2322 C2321 1.516 . S
C2322 C2323 1.502 . S
C2322 C2324 1.561 1_554 S
C2322 C2325 1.526 . S
C2323 H2307 0.959 . S
C2323 H2308 0.959 . S
C2323 H2309 0.961 1_554 S
C2323 C2322 1.502 . S
C2324 H2310 0.960 . S
C2324 H2311 0.961 . S
C2324 H2312 0.959 . S
C2324 C2322 1.561 1_556 S
C2325 C2322 1.526 . S
C2325 C2326 1.396 . S
C2325 C2330 1.390 . S
C2326 C2320 1.465 . S
C2326 C2325 1.396 . S
C2326 C2327 1.399 . S
C2327 H2313 0.929 . S
C2327 C2326 1.399 . S
C2327 C2328 1.385 . S
C2328 H2314 0.931 . S
C2328 C2327 1.385 . S
C2328 C2329 1.389 . S
C2329 C2328 1.389 . S
C2329 C2330 1.387 . S
C2330 H2315 0.930 . S
C2330 C2325 1.390 . S
C2330 C2329 1.387 . S
H2331 C2343 0.930 . S
H2332 C2345 0.930 . S
H2333 C2346 0.930 . S
H2334 C2350 0.959 . S
H2335 C2350 0.959 . S
H2336 C2350 0.961 . S
H2337 C2351 0.960 . S
H2338 C2351 0.961 . S
H2339 C2351 0.959 . S
H2340 C2354 0.929 1_545 S
H2341 C2355 0.931 1_545 S
H2342 C2357 0.930 . S
C2343 H2331 0.930 . S
C2343 C2344 1.399 1_554 S
C2343 C2348 1.399 . S
C2344 C2343 1.399 1_556 S
C2344 C2345 1.376 . S
C2345 H2332 0.930 . S
C2345 C2344 1.376 . S
C2345 C2346 1.388 1_556 S
C2346 H2333 0.930 . S
C2346 C2345 1.388 1_554 S
C2346 C2347 1.390 . S
C2347 C2346 1.390 . S
C2347 C2348 1.394 . S
C2347 C2353 1.465 . S
C2348 C2343 1.399 . S
C2348 C2347 1.394 . S
C2348 C2349 1.516 . S
C2349 C2348 1.516 . S
C2349 C2350 1.502 . S
C2349 C2351 1.561 . S
C2349 C2352 1.526 . S
C2350 H2334 0.959 . S
C2350 H2335 0.959 . S
C2350 H2336 0.961 . S
C2350 C2349 1.502 . S
C2351 H2337 0.960 . S
C2351 H2338 0.961 . S
C2351 H2339 0.959 . S
C2351 C2349 1.561 . S
C2352 C2349 1.526 . S
C2352 C2353 1.396 . S
C2352 C2357 1.390 . S
C2353 C2347 1.465 . S
C2353 C2352 1.396 . S
C2353 C2354 1.399 . S
C2354 H2340 0.929 1_565 S
C2354 C2353 1.399 . S
C2354 C2355 1.385 . S
C2355 H2341 0.931 1_565 S
C2355 C2354 1.385 . S
C2355 C2356 1.389 . S
C2356 C2355 1.389 . S
C2356 C2357 1.387 . S
C2357 H2342 0.930 . S
C2357 C2352 1.390 . S
C2357 C2356 1.387 . S
H2358 C2370 0.930 . S
H2359 C2372 0.930 . S
H2360 C2373 0.930 . S
H2361 C2377 0.959 . S
H2362 C2377 0.959 . S
H2363 C2377 0.961 . S
H2364 C2378 0.960 . S
H2365 C2378 0.961 . S
H2366 C2378 0.959 . S
H2367 C2381 0.929 . S
H2368 C2382 0.931 . S
H2369 C2384 0.930 . S
C2370 H2358 0.930 . S
C2370 C2371 1.399 . S
C2370 C2375 1.399 . S
C2371 C2370 1.399 . S
C2371 C2372 1.376 . S
C2372 H2359 0.930 . S
C2372 C2371 1.376 . S
C2372 C2373 1.388 . S
C2373 H2360 0.930 . S
C2373 C2372 1.388 . S
C2373 C2374 1.390 . S
C2374 C2373 1.390 . S
C2374 C2375 1.394 . S
C2374 C2380 1.465 . S
C2375 C2370 1.399 . S
C2375 C2374 1.394 . S
C2375 C2376 1.516 . S
C2376 C2375 1.516 . S
C2376 C2377 1.502 . S
C2376 C2378 1.561 . S
C2376 C2379 1.526 . S
C2377 H2361 0.959 . S
C2377 H2362 0.959 . S
C2377 H2363 0.961 . S
C2377 C2376 1.502 . S
C2378 H2364 0.960 . S
C2378 H2365 0.961 . S
C2378 H2366 0.959 . S
C2378 C2376 1.561 . S
C2379 C2376 1.526 . S
C2379 C2380 1.396 . S
C2379 C2384 1.390 . S
C2380 C2374 1.465 . S
C2380 C2379 1.396 . S
C2380 C2381 1.399 . S
C2381 H2367 0.929 . S
C2381 C2380 1.399 . S
C2381 C2382 1.385 . S
C2382 H2368 0.931 . S
C2382 C2381 1.385 . S
C2382 C2383 1.389 . S
C2383 C2382 1.389 . S
C2383 C2384 1.387 . S
C2384 H2369 0.930 . S
C2384 C2379 1.390 . S
C2384 C2383 1.387 . S
H2385 C2397 0.930 . S
H2386 C2399 0.930 . S
H2387 C2400 0.930 . S
H2388 C2404 0.959 1_545 S
H2389 C2404 0.959 . S
H2390 C2404 0.961 1_545 S
H2391 C2405 0.960 . S
H2392 C2405 0.961 . S
H2393 C2405 0.959 . S
H2394 C2408 0.933 . S
H2395 C2409 0.931 . S
H2396 C2411 0.930 . S
C2397 H2385 0.930 . S
C2397 C2398 1.399 . S
C2397 C2402 1.399 . S
C2398 C2397 1.399 . S
C2398 C2399 1.376 . S
C2399 H2386 0.930 . S
C2399 C2398 1.376 . S
C2399 C2400 1.388 . S
C2400 H2387 0.930 . S
C2400 C2399 1.388 . S
C2400 C2401 1.390 . S
C2401 C2400 1.390 . S
C2401 C2402 1.394 . S
C2401 C2407 1.465 1_545 S
C2402 C2397 1.399 . S
C2402 C2401 1.394 . S
C2402 C2403 1.516 1_545 S
C2403 C2402 1.516 1_565 S
C2403 C2404 1.502 . S
C2403 C2405 1.561 . S
C2403 C2406 1.526 . S
C2404 H2388 0.959 1_565 S
C2404 H2389 0.959 . S
C2404 H2390 0.961 1_565 S
C2404 C2403 1.502 . S
C2405 H2391 0.960 . S
C2405 H2392 0.961 . S
C2405 H2393 0.959 . S
C2405 C2403 1.561 . S
C2406 C2403 1.526 . S
C2406 C2407 1.396 . S
C2406 C2411 1.390 . S
C2407 C2401 1.465 1_565 S
C2407 C2406 1.396 . S
C2407 C2408 1.399 . S
C2408 H2394 0.933 . S
C2408 C2407 1.399 . S
C2408 C2409 1.385 . S
C2409 H2395 0.931 . S
C2409 C2408 1.385 . S
C2409 C2410 1.389 . S
C2410 C2409 1.389 . S
C2410 C2411 1.387 . S
C2411 H2396 0.930 . S
C2411 C2406 1.390 . S
C2411 C2410 1.387 . S
H2412 C2424 0.930 . S
H2413 C2426 0.930 . S
H2414 C2427 0.930 . S
H2415 C2431 0.959 . S
H2416 C2431 0.959 . S
H2417 C2431 0.961 . S
H2418 C2432 0.960 . S
H2419 C2432 0.961 . S
H2420 C2432 0.959 . S
H2421 C2435 0.929 . S
H2422 C2436 0.931 . S
H2423 C2438 0.930 . S
C2424 H2412 0.930 . S
C2424 C2425 1.399 . S
C2424 C2429 1.399 . S
C2425 C2424 1.399 . S
C2425 C2426 1.376 . S
C2426 H2413 0.930 . S
C2426 C2425 1.376 . S
C2426 C2427 1.388 . S
C2427 H2414 0.930 . S
C2427 C2426 1.388 . S
C2427 C2428 1.390 . S
C2428 C2427 1.390 . S
C2428 C2429 1.394 . S
C2428 C2434 1.470 . S
C2429 C2424 1.399 . S
C2429 C2428 1.394 . S
C2429 C2430 1.516 . S
C2430 C2429 1.516 . S
C2430 C2431 1.502 . S
C2430 C2432 1.561 . S
C2430 C2433 1.526 . S
C2431 H2415 0.959 . S
C2431 H2416 0.959 . S
C2431 H2417 0.961 . S
C2431 C2430 1.502 . S
C2432 H2418 0.960 . S
C2432 H2419 0.961 . S
C2432 H2420 0.959 . S
C2432 C2430 1.561 . S
C2433 C2430 1.526 . S
C2433 C2434 1.395 . S
C2433 C2438 1.390 1_455 S
C2434 C2428 1.470 . S
C2434 C2433 1.395 . S
C2434 C2435 1.395 1_455 S
C2435 H2421 0.929 . S
C2435 C2434 1.395 1_655 S
C2435 C2436 1.385 . S
C2436 H2422 0.931 . S
C2436 C2435 1.385 . S
C2436 C2437 1.389 . S
C2437 C2436 1.389 . S
C2437 C2438 1.387 . S
C2438 H2423 0.930 . S
C2438 C2433 1.390 1_655 S
C2438 C2437 1.387 . S
H2439 C2451 0.930 . S
H2440 C2453 0.930 . S
H2441 C2454 0.930 . S
H2442 C2458 0.959 . S
H2443 C2458 0.959 . S
H2444 C2458 0.961 . S
H2445 C2459 0.960 . S
H2446 C2459 0.961 . S
H2447 C2459 0.959 . S
H2448 C2462 0.929 . S
H2449 C2463 0.931 . S
H2450 C2465 0.930 . S
C2451 H2439 0.930 . S
C2451 C2452 1.399 . S
C2451 C2456 1.399 . S
C2452 C2451 1.399 . S
C2452 C2453 1.376 . S
C2453 H2440 0.930 . S
C2453 C2452 1.376 . S
C2453 C2454 1.388 . S
C2454 H2441 0.930 . S
C2454 C2453 1.388 . S
C2454 C2455 1.390 . S
C2455 C2454 1.390 . S
C2455 C2456 1.394 . S
C2455 C2461 1.465 . S
C2456 C2451 1.399 . S
C2456 C2455 1.394 . S
C2456 C2457 1.516 . S
C2457 C2456 1.516 . S
C2457 C2458 1.502 . S
C2457 C2459 1.561 . S
C2457 C2460 1.526 . S
C2458 H2442 0.959 . S
C2458 H2443 0.959 . S
C2458 H2444 0.961 . S
C2458 C2457 1.502 . S
C2459 H2445 0.960 . S
C2459 H2446 0.961 . S
C2459 H2447 0.959 . S
C2459 C2457 1.561 . S
C2460 C2457 1.526 . S
C2460 C2461 1.396 . S
C2460 C2465 1.390 . S
C2461 C2455 1.465 . S
C2461 C2460 1.396 . S
C2461 C2462 1.399 . S
C2462 H2448 0.929 . S
C2462 C2461 1.399 . S
C2462 C2463 1.385 . S
C2463 H2449 0.931 . S
C2463 C2462 1.385 . S
C2463 C2464 1.389 . S
C2464 C2463 1.389 . S
C2464 C2465 1.387 . S
C2465 H2450 0.930 . S
C2465 C2460 1.390 . S
C2465 C2464 1.387 . S
H2466 C2478 0.930 . S
H2467 C2480 0.930 . S
H2468 C2481 0.930 . S
H2469 C2485 0.959 . S
H2470 C2485 0.959 . S
H2471 C2485 0.961 . S
H2472 C2486 0.960 . S
H2473 C2486 0.961 . S
H2474 C2486 0.959 . S
H2475 C2489 0.929 . S
H2476 C2490 0.931 . S
H2477 C2492 0.929 . S
C2478 H2466 0.930 . S
C2478 C2479 1.399 . S
C2478 C2483 1.399 . S
C2479 C2478 1.399 . S
C2479 C2480 1.376 . S
C2480 H2467 0.930 . S
C2480 C2479 1.376 . S
C2480 C2481 1.388 . S
C2481 H2468 0.930 . S
C2481 C2480 1.388 . S
C2481 C2482 1.390 . S
C2482 C2481 1.390 . S
C2482 C2483 1.394 . S
C2482 C2488 1.465 . S
C2483 C2478 1.399 . S
C2483 C2482 1.394 . S
C2483 C2484 1.516 . S
C2484 C2483 1.516 . S
C2484 C2485 1.502 . S
C2484 C2486 1.561 . S
C2484 C2487 1.526 . S
C2485 H2469 0.959 . S
C2485 H2470 0.959 . S
C2485 H2471 0.961 . S
C2485 C2484 1.502 . S
C2486 H2472 0.960 . S
C2486 H2473 0.961 . S
C2486 H2474 0.959 . S
C2486 C2484 1.561 . S
C2487 C2484 1.526 . S
C2487 C2488 1.396 . S
C2487 C2492 1.390 1_545 S
C2488 C2482 1.465 . S
C2488 C2487 1.396 . S
C2488 C2489 1.399 1_545 S
C2489 H2475 0.929 . S
C2489 C2488 1.399 1_565 S
C2489 C2490 1.385 . S
C2490 H2476 0.931 . S
C2490 C2489 1.385 . S
C2490 C2491 1.389 . S
C2491 C2490 1.389 . S
C2491 C2492 1.387 . S
C2492 H2477 0.929 . S
C2492 C2487 1.390 1_565 S
C2492 C2491 1.387 . S
H2493 C2505 0.930 . S
H2494 C2507 0.930 . S
H2495 C2508 0.930 . S
H2496 C2512 0.959 . S
H2497 C2512 0.959 . S
H2498 C2512 0.961 . S
H2499 C2513 0.960 1_655 S
H2500 C2513 0.961 . S
H2501 C2513 0.959 . S
H2502 C2516 0.929 . S
H2503 C2517 0.931 . S
H2504 C2519 0.930 . S
C2505 H2493 0.930 . S
C2505 C2506 1.399 . S
C2505 C2510 1.399 . S
C2506 C2505 1.399 . S
C2506 C2507 1.376 . S
C2507 H2494 0.930 . S
C2507 C2506 1.376 . S
C2507 C2508 1.388 . S
C2508 H2495 0.930 . S
C2508 C2507 1.388 . S
C2508 C2509 1.390 . S
C2509 C2508 1.390 . S
C2509 C2510 1.394 . S
C2509 C2515 1.465 1_655 S
C2510 C2505 1.399 . S
C2510 C2509 1.394 . S
C2510 C2511 1.516 . S
C2511 C2510 1.516 . S
C2511 C2512 1.502 . S
C2511 C2513 1.561 1_655 S
C2511 C2514 1.526 1_655 S
C2512 H2496 0.959 . S
C2512 H2497 0.959 . S
C2512 H2498 0.961 . S
C2512 C2511 1.502 . S
C2513 H2499 0.960 1_455 S
C2513 H2500 0.961 . S
C2513 H2501 0.959 . S
C2513 C2511 1.561 1_455 S
C2514 C2511 1.526 1_455 S
C2514 C2515 1.396 . S
C2514 C2519 1.390 . S
C2515 C2509 1.465 1_455 S
C2515 C2514 1.396 . S
C2515 C2516 1.399 . S
C2516 H2502 0.929 . S
C2516 C2515 1.399 . S
C2516 C2517 1.385 . S
C2517 H2503 0.931 . S
C2517 C2516 1.385 . S
C2517 C2518 1.389 . S
C2518 C2517 1.389 . S
C2518 C2519 1.387 . S
C2519 H2504 0.930 . S
C2519 C2514 1.390 . S
C2519 C2518 1.387 . S
C589 C54 1.081 . S
C601 C17 1.103 . S
C616 C49 1.140 . S
C628 C86 1.068 . S
C643 C81 1.054 . S
C655 C22 1.116 . S
C670 C146 1.138 . S
C682 C117 1.146 . S
C697 C178 1.090 . S
C709 C149 1.047 . S
C724 C181 1.014 . S
C736 C114 1.134 . S
C751 C209 1.025 . S
C763 C246 1.176 . S
C778 C241 1.147 . S
C790 C278 1.104 . S
C805 C214 1.070 . S
C817 C273 1.154 . S
C832 C309 1.050 . S
C844 C338 1.175 . S
C859 C370 1.142 . S
C871 C341 1.142 . S
C886 C373 1.125 . S
C898 C306 1.069 . S
C913 C401 1.123 . S
C925 C438 1.130 . S
C940 C433 1.023 . S
C952 C470 1.145 . S
C967 C465 1.105 . S
C979 C406 1.081 . S
C994 C530 1.097 . S
C1006 C501 1.156 . S
C1021 C533 1.069 . S
C1033 C562 1.176 . S
C1048 C565 1.040 . S
C1060 C498 1.173 . S
C1075 C19 1.343 . S
C1087 C180 1.329 . S
C1102 C51 1.362 . S
C1114 C116 1.344 . S
C1129 C83 1.307 . S
C1141 C148 1.317 . S
C1156 C55 1.642 . S
C1168 C176 1.593 . S
C1183 C112 1.600 . S
C1195 C87 1.641 . S
C1210 C23 1.641 . S
C1222 C144 1.593 . S
C1237 C80 1.352 . S
C1249 C119 1.308 . S
C1264 C151 1.326 . S
C1276 C16 1.337 . S
C1291 C183 1.285 . S
C1303 C48 1.328 . S
C1318 C147 1.641 . S
C1330 C84 1.628 . S
C1345 C179 1.639 . S
C1357 C20 1.638 . S
C1372 C52 1.593 . S
C1384 C115 1.641 . S
C1399 C211 1.322 . S
C1411 C372 1.320 . S
C1426 C308 1.376 . S
C1438 C243 1.311 . S
C1453 C340 1.363 . S
C1465 C275 1.297 . S
C1480 C247 1.640 . S
C1492 C368 1.616 . S
C1507 C304 1.627 . S
C1519 C279 1.640 . S
C1534 C336 1.592 . S
C1546 C215 1.642 . S
C1561 C311 1.345 . S
C1573 C272 1.379 . S
C1588 C208 1.357 . S
C1600 C343 1.353 . S
C1615 C240 1.323 . S
C1627 C375 1.306 . S
C1642 C276 1.639 . S
C1654 C339 1.640 . S
C1669 C371 1.642 . S
C1681 C212 1.598 . S
C1696 C307 1.641 . S
C1708 C244 1.594 . S
C1723 C403 1.287 . S
C1735 C564 1.352 . S
C1750 C435 1.308 . S
C1762 C500 1.317 . S
C1777 C532 1.368 . S
C1789 C467 1.375 . S
C1804 C439 1.641 . S
C1816 C560 1.597 . S
C1831 C471 1.640 . S
C1843 C496 1.623 . S
C1858 C528 1.598 . S
C1870 C407 1.642 . S
C1885 C503 1.370 . S
C1897 C464 1.390 . S
C1912 C535 1.369 . S
C1924 C400 1.374 . S
C1939 C567 1.284 . S
C1951 C432 1.327 . S
C1966 C531 1.640 . S
C1978 C468 1.603 . S
C1993 C563 1.640 . S
C2005 C404 1.634 . S
C2020 C499 1.642 . S
C2032 C436 1.599 . S
C2047 C21 2.328 . S
C2059 C434 2.283 . S
C2074 C53 2.346 . S
C2086 C466 2.247 . S
C2101 C402 2.278 . S
C2113 C85 2.319 . S
C2128 C213 2.330 . S
C2140 C50 2.235 . S
C2155 C245 2.325 . S
C2167 C82 2.242 . S
C2182 C18 2.227 . S
C2194 C277 2.340 . S
C2209 C113 2.334 . S
C2221 C342 2.284 . S
C2236 C145 2.346 . S
C2248 C374 2.269 . S
C2263 C310 2.230 . S
C2275 C177 2.340 . S
C2290 C150 2.272 . S
C2302 C497 2.321 . S
C2317 C529 2.334 . S
C2329 C182 2.284 . S
C2344 C561 2.347 . S
C2356 C118 2.263 . S
C2371 C242 2.284 . S
C2383 C405 2.322 . S
C2398 C274 2.236 . S
C2410 C437 2.329 . S
C2425 C469 2.346 . S
C2437 C210 2.253 . S
C2452 C305 2.325 . S
C2464 C534 2.231 . S
C2479 C337 2.332 . S
C2491 C566 2.227 . S
C2506 C369 2.347 . S
C2518 C502 2.264 . S
