# Generated by pormake.
# Topology nfa, (4)-cn, num edge types: 1
# Building blocks:
#     Node 0, Type 0, BuildingBlock: KOZSID_clean_sbu_0, # of connection points: 4
#     Node 1, Type 0, BuildingBlock: KOZSID_clean_sbu_0, # of connection points: 4
#     Node 2, Type 0, BuildingBlock: KOZSID_clean_sbu_0, # of connection points: 4
#     Node 3, Type 0, BuildingBlock: KOZSID_clean_sbu_0, # of connection points: 4
#     Node 4, Type 0, BuildingBlock: KOZSID_clean_sbu_0, # of connection points: 4
#     Node 5, Type 0, BuildingBlock: KOZSID_clean_sbu_0, # of connection points: 4
#     Node 6, Type 0, BuildingBlock: KOZSID_clean_sbu_0, # of connection points: 4
#     Node 7, Type 0, BuildingBlock: KOZSID_clean_sbu_0, # of connection points: 4
#     Node 8, Type 0, BuildingBlock: KOZSID_clean_sbu_0, # of connection points: 4
#     Node 9, Type 0, BuildingBlock: KOZSID_clean_sbu_0, # of connection points: 4
#     Node 10, Type 0, BuildingBlock: KOZSID_clean_sbu_0, # of connection points: 4
#     Node 11, Type 0, BuildingBlock: KOZSID_clean_sbu_0, # of connection points: 4
#     Node 12, Type 0, BuildingBlock: KOZSID_clean_sbu_0, # of connection points: 4
#     Node 13, Type 0, BuildingBlock: KOZSID_clean_sbu_0, # of connection points: 4
#     Node 14, Type 0, BuildingBlock: KOZSID_clean_sbu_0, # of connection points: 4
#     Node 15, Type 0, BuildingBlock: KOZSID_clean_sbu_0, # of connection points: 4
#     Node 16, Type 0, BuildingBlock: KOZSID_clean_sbu_0, # of connection points: 4
#     Node 17, Type 0, BuildingBlock: KOZSID_clean_sbu_0, # of connection points: 4
#     Node 18, Type 0, BuildingBlock: KOZSID_clean_sbu_0, # of connection points: 4
#     Node 19, Type 0, BuildingBlock: KOZSID_clean_sbu_0, # of connection points: 4
#     Node 20, Type 0, BuildingBlock: KOZSID_clean_sbu_0, # of connection points: 4
#     Node 21, Type 0, BuildingBlock: KOZSID_clean_sbu_0, # of connection points: 4
#     Node 22, Type 0, BuildingBlock: KOZSID_clean_sbu_0, # of connection points: 4
#     Node 23, Type 0, BuildingBlock: KOZSID_clean_sbu_0, # of connection points: 4
#     Edge 24, Type (0, 0), BuildingBlock: CIFDUS_clean_linker_0, # of connection points: 2
#     Edge 25, Type (0, 0), BuildingBlock: CIFDUS_clean_linker_0, # of connection points: 2
#     Edge 26, Type (0, 0), BuildingBlock: CIFDUS_clean_linker_0, # of connection points: 2
#     Edge 27, Type (0, 0), BuildingBlock: CIFDUS_clean_linker_0, # of connection points: 2
#     Edge 28, Type (0, 0), BuildingBlock: CIFDUS_clean_linker_0, # of connection points: 2
#     Edge 29, Type (0, 0), BuildingBlock: CIFDUS_clean_linker_0, # of connection points: 2
#     Edge 30, Type (0, 0), BuildingBlock: CIFDUS_clean_linker_0, # of connection points: 2
#     Edge 31, Type (0, 0), BuildingBlock: CIFDUS_clean_linker_0, # of connection points: 2
#     Edge 32, Type (0, 0), BuildingBlock: CIFDUS_clean_linker_0, # of connection points: 2
#     Edge 33, Type (0, 0), BuildingBlock: CIFDUS_clean_linker_0, # of connection points: 2
#     Edge 34, Type (0, 0), BuildingBlock: CIFDUS_clean_linker_0, # of connection points: 2
#     Edge 35, Type (0, 0), BuildingBlock: CIFDUS_clean_linker_0, # of connection points: 2
#     Edge 36, Type (0, 0), BuildingBlock: CIFDUS_clean_linker_0, # of connection points: 2
#     Edge 37, Type (0, 0), BuildingBlock: CIFDUS_clean_linker_0, # of connection points: 2
#     Edge 38, Type (0, 0), BuildingBlock: CIFDUS_clean_linker_0, # of connection points: 2
#     Edge 39, Type (0, 0), BuildingBlock: CIFDUS_clean_linker_0, # of connection points: 2
#     Edge 40, Type (0, 0), BuildingBlock: CIFDUS_clean_linker_0, # of connection points: 2
#     Edge 41, Type (0, 0), BuildingBlock: CIFDUS_clean_linker_0, # of connection points: 2
#     Edge 42, Type (0, 0), BuildingBlock: CIFDUS_clean_linker_0, # of connection points: 2
#     Edge 43, Type (0, 0), BuildingBlock: CIFDUS_clean_linker_0, # of connection points: 2
#     Edge 44, Type (0, 0), BuildingBlock: CIFDUS_clean_linker_0, # of connection points: 2
#     Edge 45, Type (0, 0), BuildingBlock: CIFDUS_clean_linker_0, # of connection points: 2
#     Edge 46, Type (0, 0), BuildingBlock: CIFDUS_clean_linker_0, # of connection points: 2
#     Edge 47, Type (0, 0), BuildingBlock: CIFDUS_clean_linker_0, # of connection points: 2
#     Edge 48, Type (0, 0), BuildingBlock: CIFDUS_clean_linker_0, # of connection points: 2
#     Edge 49, Type (0, 0), BuildingBlock: CIFDUS_clean_linker_0, # of connection points: 2
#     Edge 50, Type (0, 0), BuildingBlock: CIFDUS_clean_linker_0, # of connection points: 2
#     Edge 51, Type (0, 0), BuildingBlock: CIFDUS_clean_linker_0, # of connection points: 2
#     Edge 52, Type (0, 0), BuildingBlock: CIFDUS_clean_linker_0, # of connection points: 2
#     Edge 53, Type (0, 0), BuildingBlock: CIFDUS_clean_linker_0, # of connection points: 2
#     Edge 54, Type (0, 0), BuildingBlock: CIFDUS_clean_linker_0, # of connection points: 2
#     Edge 55, Type (0, 0), BuildingBlock: CIFDUS_clean_linker_0, # of connection points: 2
#     Edge 56, Type (0, 0), BuildingBlock: CIFDUS_clean_linker_0, # of connection points: 2
#     Edge 57, Type (0, 0), BuildingBlock: CIFDUS_clean_linker_0, # of connection points: 2
#     Edge 58, Type (0, 0), BuildingBlock: CIFDUS_clean_linker_0, # of connection points: 2
#     Edge 59, Type (0, 0), BuildingBlock: CIFDUS_clean_linker_0, # of connection points: 2
#     Edge 60, Type (0, 0), BuildingBlock: CIFDUS_clean_linker_0, # of connection points: 2
#     Edge 61, Type (0, 0), BuildingBlock: CIFDUS_clean_linker_0, # of connection points: 2
#     Edge 62, Type (0, 0), BuildingBlock: CIFDUS_clean_linker_0, # of connection points: 2
#     Edge 63, Type (0, 0), BuildingBlock: CIFDUS_clean_linker_0, # of connection points: 2
#     Edge 64, Type (0, 0), BuildingBlock: CIFDUS_clean_linker_0, # of connection points: 2
#     Edge 65, Type (0, 0), BuildingBlock: CIFDUS_clean_linker_0, # of connection points: 2
#     Edge 66, Type (0, 0), BuildingBlock: CIFDUS_clean_linker_0, # of connection points: 2
#     Edge 67, Type (0, 0), BuildingBlock: CIFDUS_clean_linker_0, # of connection points: 2
#     Edge 68, Type (0, 0), BuildingBlock: CIFDUS_clean_linker_0, # of connection points: 2
#     Edge 69, Type (0, 0), BuildingBlock: CIFDUS_clean_linker_0, # of connection points: 2
#     Edge 70, Type (0, 0), BuildingBlock: CIFDUS_clean_linker_0, # of connection points: 2
#     Edge 71, Type (0, 0), BuildingBlock: CIFDUS_clean_linker_0, # of connection points: 2
# Relax obj value: 0.046
# Max RMSD: 0.145
# Mean RMSD: 0.109
data_MOF--net-nfa--node1-KOZSID_clean_sbu_0--edge1-CIFDUS_clean_linker_0
_symmetry_space_group_name_H-M    P1
_symmetry_Int_Tables_number       1
_symmetry_cell_setting            triclinic
loop_
_symmetry_equiv_pos_as_xyz
'x, y, z'
_cell_length_a     44.16616
_cell_length_b     45.165761
_cell_length_c     46.027113
_cell_angle_alpha  88.939642
_cell_angle_beta   87.588236
_cell_angle_gamma 86.700947
loop_
_atom_site_label
_atom_site_type_symbol
_atom_site_fract_x
_atom_site_fract_y
_atom_site_fract_z
_atom_type_partial_charge
C0 C 0.05355 0.36209 0.36075 0.0
C1 C 0.02818 0.36544 0.3797 0.0
C2 C 0.03592 0.38256 0.40205 0.0
C3 C 0.06554 0.38855 0.39599 0.0
N4 N 0.07699 0.37674 0.37085 0.0
Co5 Co 0.12065 0.37638 0.35779 0.0
N6 N 0.12911 0.40842 0.38497 0.0
C7 C 0.1117 0.41686 0.40834 0.0
C8 C 0.12305 0.43972 0.42296 0.0
C9 C 0.14934 0.4461 0.40781 0.0
C10 C 0.15247 0.42674 0.38467 0.0
N11 N 0.16446 0.37588 0.34545 0.0
C12 C 0.18504 0.39677 0.34851 0.0
C13 C 0.2127 0.38808 0.33491 0.0
C14 C 0.2094 0.36074 0.32343 0.0
C15 C 0.17994 0.3543 0.3303 0.0
N16 N 0.11236 0.3447 0.33002 0.0
C17 C 0.13357 0.32778 0.31511 0.0
C18 C 0.12152 0.30946 0.29577 0.0
C19 C 0.09075 0.31455 0.2992 0.0
C20 C 0.08562 0.33526 0.32108 0.0
N21 N 0.11141 0.40649 0.32789 0.0
C22 C 0.10117 0.45131 0.28586 0.0
C23 C 0.11916 0.42558 0.27916 0.0
C24 C 0.12403 0.40358 0.30039 0.0
C25 C 0.08779 0.45372 0.31397 0.0
C26 C 0.09311 0.43107 0.33457 0.0
N27 N 0.1296 0.3461 0.38796 0.0
C28 C 0.11488 0.3021 0.41404 0.0
C29 C 0.13555 0.30659 0.43544 0.0
C30 C 0.15434 0.33053 0.43189 0.0
C31 C 0.15134 0.34976 0.40773 0.0
C32 C 0.11219 0.32201 0.39073 0.0
H33 H 0.16593 0.3681 0.40555 0.0
H34 H 0.09502 0.31825 0.37567 0.0
H35 H 0.13837 0.38439 0.29456 0.0
H36 H 0.08288 0.43373 0.3561 0.0
C37 C 0.08281 0.40622 0.41275 0.0
C38 C 0.0556 0.34175 0.33575 0.0
C39 C 0.17909 0.42471 0.36439 0.0
C40 C 0.16443 0.33241 0.31712 0.0
H41 H 0.0066 0.35552 0.37864 0.0
H42 H 0.02176 0.38938 0.42078 0.0
H43 H 0.11289 0.45116 0.44173 0.0
H44 H 0.16456 0.46291 0.41327 0.0
H45 H 0.23297 0.40039 0.33272 0.0
H46 H 0.22588 0.3481 0.30989 0.0
H47 H 0.13364 0.29461 0.28055 0.0
H48 H 0.07401 0.30347 0.28755 0.0
H49 H 0.12951 0.42237 0.25761 0.0
H50 H 0.07392 0.47328 0.3203 0.0
H51 H 0.09972 0.28407 0.41596 0.0
H52 H 0.17092 0.33457 0.44783 0.0
C53 C 0.87929 0.78426 0.63574 0.0
C54 C 0.87194 0.76088 0.65416 0.0
C55 C 0.84453 0.7689 0.66748 0.0
C56 C 0.8368 0.79671 0.65671 0.0
N57 N 0.85731 0.80652 0.63666 0.0
Co58 Co 0.85768 0.84713 0.61823 0.0
N59 N 0.82373 0.86249 0.64498 0.0
C60 C 0.80997 0.84733 0.66693 0.0
C61 C 0.78894 0.8643 0.68295 0.0
C62 C 0.78879 0.89176 0.67002 0.0
C63 C 0.80932 0.88976 0.6463 0.0
N64 N 0.85748 0.8874 0.59901 0.0
C65 C 0.83688 0.91082 0.60181 0.0
C66 C 0.84189 0.93225 0.58028 0.0
C67 C 0.8668 0.92248 0.56402 0.0
C68 C 0.87526 0.89543 0.57582 0.0
N69 N 0.89255 0.83202 0.59243 0.0
C70 C 0.90706 0.84683 0.57075 0.0
C71 C 0.93128 0.83088 0.55805 0.0
C72 C 0.93313 0.80477 0.57346 0.0
C73 C 0.9099 0.80655 0.59475 0.0
N74 N 0.82788 0.83575 0.5898 0.0
C75 C 0.78161 0.83408 0.55 0.0
C76 C 0.81135 0.83866 0.54049 0.0
C77 C 0.834 0.83905 0.56053 0.0
C78 C 0.7759 0.82712 0.57928 0.0
C79 C 0.79936 0.82785 0.59871 0.0
N80 N 0.88718 0.8586 0.64651 0.0
C81 C 0.9341 0.88017 0.65763 0.0
C82 C 0.93226 0.86861 0.68606 0.0
C83 C 0.90699 0.85275 0.69437 0.0
C84 C 0.88482 0.84843 0.67464 0.0
C85 C 0.91139 0.87495 0.6383 0.0
H86 H 0.8664 0.83595 0.68247 0.0
H87 H 0.91406 0.88381 0.6167 0.0
H88 H 0.85592 0.84333 0.55173 0.0
H89 H 0.79348 0.82318 0.62092 0.0
C90 C 0.81583 0.81673 0.67057 0.0
C91 C 0.90822 0.78605 0.61947 0.0
C92 C 0.8118 0.91306 0.62384 0.0
C93 C 0.89806 0.8761 0.56388 0.0
H94 H 0.88552 0.74088 0.65894 0.0
H95 H 0.83317 0.7571 0.68508 0.0
H96 H 0.77475 0.85734 0.70128 0.0
H97 H 0.77422 0.91074 0.67662 0.0
H98 H 0.82853 0.95241 0.57566 0.0
H99 H 0.87663 0.93316 0.54489 0.0
H100 H 0.94664 0.83796 0.54067 0.0
H101 H 0.95069 0.78721 0.57068 0.0
H102 H 0.81692 0.84305 0.51772 0.0
H103 H 0.75318 0.82279 0.58743 0.0
H104 H 0.953 0.89299 0.65023 0.0
H105 H 0.90459 0.84274 0.71584 0.0
C106 C 0.44531 0.61407 0.89576 0.0
C107 C 0.46875 0.6002 0.91101 0.0
C108 C 0.45613 0.57888 0.92828 0.0
C109 C 0.42581 0.58114 0.92287 0.0
N110 N 0.41845 0.60207 0.90258 0.0
Co111 Co 0.37661 0.61597 0.89133 0.0
N112 N 0.35762 0.5873 0.9191 0.0
C113 C 0.37183 0.56718 0.93664 0.0
C114 C 0.35247 0.5485 0.95085 0.0
C115 C 0.32441 0.5565 0.94077 0.0
C116 C 0.32843 0.57971 0.92116 0.0
N117 N 0.33477 0.63113 0.88148 0.0
C118 C 0.30797 0.61905 0.88798 0.0
C119 C 0.28397 0.63572 0.87628 0.0
C120 C 0.29638 0.65853 0.86084 0.0
C121 C 0.32709 0.65453 0.86408 0.0
N122 N 0.3952 0.64336 0.86225 0.0
C123 C 0.38064 0.66134 0.84294 0.0
C124 C 0.39996 0.67671 0.82496 0.0
C125 C 0.42842 0.66838 0.8338 0.0
C126 C 0.4247 0.64856 0.8569 0.0
N127 N 0.37676 0.58537 0.86038 0.0
C128 C 0.37417 0.54104 0.81731 0.0
C129 C 0.35688 0.56807 0.81579 0.0
C130 C 0.3591 0.58983 0.83672 0.0
C131 C 0.39326 0.53716 0.84093 0.0
C132 C 0.39385 0.55908 0.86215 0.0
N133 N 0.37664 0.64665 0.92217 0.0
C134 C 0.37347 0.69819 0.93673 0.0
C135 C 0.37882 0.69023 0.96571 0.0
C136 C 0.38305 0.65996 0.97236 0.0
C137 C 0.38187 0.63882 0.95056 0.0
C138 C 0.37251 0.67633 0.91556 0.0
H139 H 0.38541 0.61623 0.95726 0.0
H140 H 0.36866 0.68404 0.8939 0.0
H141 H 0.34579 0.60998 0.8334 0.0
H142 H 0.40816 0.55406 0.87992 0.0
C143 C 0.40346 0.56519 0.93754 0.0
C144 C 0.4488 0.63975 0.87647 0.0
C145 C 0.3058 0.58938 0.90041 0.0
C146 C 0.34914 0.66682 0.84553 0.0
H147 H 0.49235 0.60533 0.91047 0.0
H148 H 0.46753 0.56428 0.94379 0.0
H149 H 0.35833 0.5301 0.96534 0.0
H150 H 0.30376 0.54519 0.94545 0.0
H151 H 0.26027 0.631 0.87709 0.0
H152 H 0.28465 0.67434 0.84667 0.0
H153 H 0.394 0.69345 0.80872 0.0
H154 H 0.44938 0.67743 0.8257 0.0
H155 H 0.34102 0.57273 0.79884 0.0
H156 H 0.40793 0.51735 0.84336 0.0
H157 H 0.37047 0.7213 0.9302 0.0
H158 H 0.38687 0.65242 0.99444 0.0
C159 C 0.60643 0.18691 0.13357 0.0
C160 C 0.61503 0.21302 0.14556 0.0
C161 C 0.63462 0.20505 0.16699 0.0
C162 C 0.63737 0.17467 0.1666 0.0
N163 N 0.62134 0.16301 0.14574 0.0
Co164 Co 0.62034 0.12012 0.13708 0.0
N165 N 0.6558 0.11004 0.1609 0.0
C166 C 0.6661 0.12663 0.18191 0.0
C167 C 0.69078 0.11324 0.19508 0.0
C168 C 0.6964 0.08671 0.18124 0.0
C169 C 0.67493 0.08562 0.16017 0.0
N170 N 0.61992 0.07717 0.12842 0.0
C171 C 0.64338 0.05641 0.12804 0.0
C172 C 0.63479 0.03032 0.11597 0.0
C173 C 0.60477 0.03469 0.10988 0.0
C174 C 0.59678 0.0633 0.11771 0.0
N175 N 0.58428 0.12997 0.11344 0.0
C176 C 0.56498 0.1102 0.10462 0.0
C177 C 0.54069 0.12295 0.09065 0.0
C178 C 0.54436 0.15272 0.0912 0.0
C179 C 0.57099 0.15662 0.10552 0.0
N180 N 0.64776 0.1254 0.1027 0.0
C181 C 0.69101 0.12653 0.05558 0.0
C182 C 0.66409 0.11151 0.05388 0.0
C183 C 0.64275 0.11163 0.07729 0.0
C184 C 0.69503 0.14176 0.0814 0.0
C185 C 0.67342 0.14072 0.1046 0.0
N186 N 0.59319 0.11454 0.17165 0.0
C187 C 0.57819 0.08585 0.21418 0.0
C188 C 0.55482 0.10713 0.22144 0.0
C189 C 0.55108 0.13206 0.20313 0.0
C190 C 0.57022 0.13522 0.17843 0.0
C191 C 0.59721 0.09007 0.1894 0.0
H192 H 0.56624 0.15451 0.16489 0.0
H193 H 0.61527 0.07353 0.18465 0.0
H194 H 0.6226 0.09964 0.07511 0.0
H195 H 0.67789 0.15184 0.12435 0.0
C196 C 0.6566 0.15662 0.18375 0.0
C197 C 0.58 0.18567 0.11521 0.0
C198 C 0.67326 0.06129 0.13971 0.0
C199 C 0.57146 0.07976 0.10793 0.0
H200 H 0.60666 0.23543 0.14045 0.0
H201 H 0.6455 0.21967 0.18115 0.0
H202 H 0.70425 0.1224 0.21146 0.0
H203 H 0.7146 0.07038 0.18566 0.0
H204 H 0.64853 0.01052 0.11064 0.0
H205 H 0.59127 0.0197 0.09855 0.0
H206 H 0.52233 0.11194 0.08134 0.0
H207 H 0.52828 0.16941 0.08302 0.0
H208 H 0.65962 0.0989 0.03493 0.0
H209 H 0.71476 0.15444 0.08396 0.0
H210 H 0.58205 0.06627 0.22776 0.0
H211 H 0.53306 0.14888 0.20753 0.0
C212 C 0.12461 0.605 0.16868 0.0
C213 C 0.13406 0.61177 0.19603 0.0
C214 C 0.1519 0.63535 0.19229 0.0
C215 C 0.15225 0.64155 0.16301 0.0
N216 N 0.13499 0.62394 0.14793 0.0
Co217 Co 0.13113 0.6233 0.10469 0.0
N218 N 0.16004 0.65577 0.09853 0.0
C219 C 0.17456 0.6696 0.11926 0.0
C220 C 0.18997 0.69332 0.10893 0.0
C221 C 0.18423 0.69539 0.08005 0.0
C222 C 0.16577 0.67251 0.0743 0.0
N223 N 0.12784 0.62217 0.06145 0.0
C224 C 0.13799 0.64119 0.04066 0.0
C225 C 0.13011 0.63315 0.01315 0.0
C226 C 0.11326 0.60884 0.01686 0.0
C227 C 0.11203 0.60334 0.04628 0.0
N228 N 0.10158 0.59147 0.11082 0.0
C229 C 0.08616 0.57844 0.09022 0.0
C230 C 0.06874 0.55624 0.10099 0.0
C231 C 0.07387 0.55455 0.13005 0.0
C232 C 0.09418 0.57593 0.13533 0.0
N233 N 0.09717 0.65408 0.10688 0.0
C234 C 0.05233 0.70118 0.1057 0.0
C235 C 0.05118 0.67683 0.08752 0.0
C236 C 0.07339 0.65358 0.08873 0.0
C237 C 0.0758 0.70092 0.12518 0.0
C238 C 0.09782 0.67751 0.12528 0.0
N239 N 0.16511 0.59241 0.10259 0.0
C240 C 0.18393 0.54277 0.08977 0.0
C241 C 0.20953 0.54518 0.10615 0.0
C242 C 0.21315 0.57206 0.11975 0.0
C243 C 0.19102 0.59531 0.11742 0.0
C244 C 0.16222 0.56642 0.08829 0.0
H245 H 0.19513 0.6152 0.12827 0.0
H246 H 0.14295 0.56282 0.07602 0.0
H247 H 0.07114 0.63572 0.07434 0.0
H248 H 0.11538 0.67913 0.14019 0.0
C249 C 0.17014 0.66226 0.1487 0.0
C250 C 0.10822 0.57878 0.16314 0.0
C251 C 0.15195 0.66888 0.04634 0.0
C252 C 0.09234 0.58418 0.06064 0.0
H253 H 0.12949 0.60005 0.21633 0.0
H254 H 0.16419 0.64587 0.20875 0.0
H255 H 0.2023 0.70848 0.12128 0.0
H256 H 0.19171 0.71274 0.06545 0.0
H257 H 0.13462 0.64473 0.99276 0.0
H258 H 0.10158 0.59779 1.00032 0.0
H259 H 0.05545 0.54172 0.08886 0.0
H260 H 0.06484 0.53849 0.14531 0.0
H261 H 0.0336 0.67585 0.07193 0.0
H262 H 0.07733 0.71871 0.1404 0.0
H263 H 0.18015 0.52238 0.07878 0.0
H264 H 0.23302 0.5752 0.13211 0.0
C265 C 0.64316 0.90381 0.42762 0.0
C266 C 0.63128 0.91457 0.454 0.0
C267 C 0.60818 0.93473 0.44769 0.0
C268 C 0.60732 0.93512 0.41794 0.0
N269 N 0.62821 0.9161 0.40489 0.0
Co270 Co 0.63599 0.91049 0.36212 0.0
N271 N 0.6019 0.93988 0.35282 0.0
C272 C 0.58379 0.95605 0.37171 0.0
C273 C 0.5606 0.97215 0.35875 0.0
C274 C 0.56357 0.96512 0.32999 0.0
C275 C 0.58856 0.94523 0.32717 0.0
N276 N 0.6442 0.90545 0.31939 0.0
C277 C 0.62722 0.91529 0.2971 0.0
C278 C 0.63994 0.90625 0.27046 0.0
C279 C 0.66572 0.88937 0.27627 0.0
C280 C 0.66713 0.88915 0.30601 0.0
N281 N 0.66941 0.8803 0.37122 0.0
C282 C 0.68755 0.8645 0.35199 0.0
C283 C 0.7082 0.84518 0.36484 0.0
C284 C 0.70312 0.84903 0.394 0.0
C285 C 0.67959 0.87061 0.39724 0.0
N286 N 0.60681 0.87824 0.36242 0.0
C287 C 0.5649 0.83274 0.36176 0.0
C288 C 0.59259 0.83053 0.34566 0.0
C289 C 0.61298 0.85317 0.34637 0.0
C290 C 0.55871 0.85844 0.37811 0.0
C291 C 0.5797 0.88067 0.37809 0.0
N292 N 0.66534 0.94295 0.36171 0.0
C293 C 0.71518 0.96088 0.34924 0.0
C294 C 0.70687 0.98907 0.36012 0.0
C295 C 0.67737 0.99347 0.37227 0.0
C296 C 0.65728 0.97041 0.37289 0.0
C297 C 0.6944 0.9385 0.35024 0.0
H298 H 0.6353 0.97547 0.38249 0.0
H299 H 0.70256 0.91775 0.34159 0.0
H300 H 0.63354 0.85008 0.33348 0.0
H301 H 0.57353 0.8997 0.39093 0.0
C302 C 0.58724 0.95306 0.40167 0.0
C303 C 0.66942 0.88286 0.42526 0.0
C304 C 0.59707 0.92952 0.30058 0.0
C305 C 0.68615 0.86989 0.32204 0.0
H306 H 0.63885 0.90868 0.47553 0.0
H307 H 0.59394 0.94779 0.46293 0.0
H308 H 0.54269 0.98602 0.36921 0.0
H309 H 0.54837 0.97272 0.31323 0.0
H310 H 0.6305 0.91007 0.24929 0.0
H311 H 0.6804 0.877 0.26084 0.0
H312 H 0.72549 0.83069 0.35425 0.0
H313 H 0.71588 0.83784 0.41094 0.0
H314 H 0.5985 0.81157 0.33211 0.0
H315 H 0.53793 0.86133 0.39133 0.0
H316 H 0.73786 0.95581 0.34016 0.0
H317 H 0.66947 0.01483 0.38086 0.0
C318 C 0.35742 0.37252 0.71669 0.0
C319 C 0.34475 0.3643 0.74359 0.0
C320 C 0.33062 0.3387 0.73968 0.0
C321 C 0.33502 0.33278 0.7107 0.0
N322 N 0.3514 0.35293 0.69581 0.0
Co323 Co 0.36029 0.35405 0.65258 0.0
N324 N 0.33572 0.31877 0.64634 0.0
C325 C 0.31934 0.3041 0.66685 0.0
C326 C 0.30598 0.27998 0.65649 0.0
C327 C 0.3147 0.27888 0.62771 0.0
C328 C 0.33293 0.30252 0.62212 0.0
N329 N 0.36996 0.3547 0.6095 0.0
C330 C 0.3645 0.33474 0.5889 0.0
C331 C 0.37675 0.34276 0.56182 0.0
C332 C 0.39119 0.36823 0.56554 0.0
C333 C 0.38688 0.37432 0.59453 0.0
N334 N 0.38424 0.38977 0.6586 0.0
C335 C 0.3995 0.40523 0.63782 0.0
C336 C 0.41387 0.42865 0.64825 0.0
C337 C 0.40682 0.42867 0.67736 0.0
C338 C 0.3881 0.40536 0.68303 0.0
N339 N 0.39692 0.32712 0.65751 0.0
C340 C 0.44607 0.28433 0.65571 0.0
C341 C 0.44903 0.31273 0.64365 0.0
C342 C 0.42441 0.33358 0.64477 0.0
C343 C 0.41864 0.27854 0.67043 0.0
C344 C 0.39478 0.30019 0.67142 0.0
N345 N 0.3235 0.38089 0.64754 0.0
C346 C 0.29909 0.42522 0.62672 0.0
C347 C 0.27325 0.42245 0.64506 0.0
C348 C 0.27264 0.39769 0.66369 0.0
C349 C 0.29753 0.37724 0.66427 0.0
C350 C 0.32377 0.40451 0.62843 0.0
H351 H 0.29537 0.35902 0.67898 0.0
H352 H 0.34296 0.40835 0.61438 0.0
H353 H 0.42794 0.35447 0.63449 0.0
H354 H 0.37446 0.29424 0.68275 0.0
C355 C 0.32037 0.3111 0.69622 0.0
C356 C 0.37355 0.39985 0.7117 0.0
C357 C 0.34881 0.30742 0.59406 0.0
C358 C 0.3999 0.39721 0.60866 0.0
H359 H 0.34453 0.37602 0.76385 0.0
H360 H 0.31724 0.32676 0.75574 0.0
H361 H 0.29279 0.26417 0.66872 0.0
H362 H 0.30921 0.26189 0.61284 0.0
H363 H 0.37595 0.33101 0.54161 0.0
H364 H 0.40411 0.38033 0.54925 0.0
H365 H 0.42759 0.44408 0.63608 0.0
H366 H 0.41425 0.44443 0.69259 0.0
H367 H 0.47012 0.31882 0.63293 0.0
H368 H 0.41499 0.25701 0.68028 0.0
H369 H 0.30054 0.44343 0.61118 0.0
H370 H 0.25342 0.39435 0.67853 0.0
C371 C 0.86143 0.10566 0.9399 0.0
C372 C 0.86744 0.08509 0.96204 0.0
C373 C 0.89382 0.06964 0.95408 0.0
C374 C 0.90227 0.0812 0.92746 0.0
N375 N 0.8831 0.10338 0.91795 0.0
Co376 Co 0.88506 0.12322 0.87843 0.0
N377 N 0.92308 0.0992 0.86602 0.0
C378 C 0.93856 0.07898 0.88262 0.0
C379 C 0.96318 0.06524 0.86841 0.0
C380 C 0.96395 0.07782 0.84127 0.0
C381 C 0.93993 0.09907 0.8405 0.0
N382 N 0.88618 0.14216 0.83849 0.0
C383 C 0.90727 0.13945 0.81607 0.0
C384 C 0.90031 0.15944 0.79362 0.0
C385 C 0.87361 0.17424 0.80152 0.0
C386 C 0.86593 0.16316 0.8285 0.0
N387 N 0.84786 0.14812 0.8912 0.0
C388 C 0.83395 0.17019 0.87563 0.0
C389 C 0.80974 0.18435 0.89012 0.0
C390 C 0.80776 0.17027 0.91652 0.0
C391 C 0.83072 0.14789 0.91645 0.0
N392 N 0.91103 0.15378 0.89277 0.0
C393 C 0.95431 0.19433 0.90612 0.0
C394 C 0.93061 0.20255 0.88789 0.0
C395 C 0.90916 0.18224 0.8819 0.0
C396 C 0.95456 0.1662 0.91923 0.0
C397 C 0.93293 0.14645 0.9123 0.0
N398 N 0.85924 0.09249 0.86435 0.0
C399 C 0.81079 0.07792 0.8485 0.0
C400 C 0.81861 0.04812 0.85504 0.0
C401 C 0.84785 0.04095 0.86434 0.0
C402 C 0.86765 0.06314 0.86839 0.0
C403 C 0.83144 0.09964 0.8531 0.0
H404 H 0.88922 0.05589 0.87596 0.0
H405 H 0.8242 0.1221 0.84822 0.0
H406 H 0.89189 0.18984 0.86769 0.0
H407 H 0.93496 0.12514 0.92248 0.0
C408 C 0.92773 0.07134 0.91055 0.0
C409 C 0.83455 0.12641 0.94046 0.0
C410 C 0.93442 0.11884 0.81523 0.0
C411 C 0.84273 0.17551 0.8467 0.0
H412 H 0.85395 0.08115 0.98173 0.0
H413 H 0.90514 0.05165 0.96601 0.0
H414 H 0.97836 0.04764 0.8766 0.0
H415 H 0.98035 0.0717 0.82401 0.0
H416 H 0.91349 0.1639 0.77389 0.0
H417 H 0.8621 0.1922 0.78971 0.0
H418 H 0.79487 0.20232 0.88219 0.0
H419 H 0.79093 0.17563 0.93365 0.0
H420 H 0.9292 0.22409 0.87717 0.0
H421 H 0.97181 0.15907 0.9343 0.0
H422 H 0.7887 0.08459 0.84043 0.0
H423 H 0.85525 0.01838 0.86998 0.0
C424 C 0.30318 0.11284 0.42354 0.0
C425 C 0.2768 0.12979 0.41747 0.0
C426 C 0.2821 0.14416 0.39169 0.0
C427 C 0.3115 0.13604 0.38365 0.0
N428 N 0.32529 0.1168 0.40247 0.0
Co429 Co 0.36989 0.10488 0.40225 0.0
N430 N 0.37906 0.13163 0.36801 0.0
C431 C 0.35878 0.14916 0.35347 0.0
C432 C 0.37098 0.16319 0.32949 0.0
C433 C 0.40082 0.15363 0.3282 0.0
C434 C 0.40518 0.13436 0.35173 0.0
N435 N 0.41449 0.09317 0.40237 0.0
C436 C 0.43738 0.09969 0.38304 0.0
C437 C 0.46486 0.08597 0.39075 0.0
C438 C 0.45905 0.06957 0.41535 0.0
C439 C 0.4285 0.07429 0.42135 0.0
N440 N 0.36074 0.07799 0.4363 0.0
C441 C 0.38068 0.05904 0.44972 0.0
C442 C 0.36781 0.04309 0.47213 0.0
C443 C 0.33805 0.05309 0.47371 0.0
C444 C 0.33455 0.07511 0.45245 0.0
N445 N 0.36455 0.072 0.3746 0.0
C446 C 0.36699 0.02857 0.33064 0.0
C447 C 0.38108 0.02319 0.357 0.0
C448 C 0.3794 0.0448 0.37845 0.0
C449 C 0.3497 0.05534 0.32759 0.0
C450 C 0.34868 0.07652 0.34972 0.0
N451 N 0.37538 0.13766 0.42977 0.0
C452 C 0.39168 0.15405 0.4762 0.0
C453 C 0.37684 0.182 0.47246 0.0
C454 C 0.3622 0.18764 0.44638 0.0
C455 C 0.362 0.16549 0.42543 0.0
C456 C 0.39071 0.13249 0.45482 0.0
H457 H 0.35045 0.17123 0.40607 0.0
H458 H 0.40199 0.11153 0.45935 0.0
H459 H 0.39116 0.03918 0.39761 0.0
H460 H 0.33564 0.09671 0.34585 0.0
C461 C 0.32803 0.15016 0.36155 0.0
C462 C 0.30676 0.09434 0.45006 0.0
C463 C 0.43401 0.11773 0.35655 0.0
C464 C 0.41178 0.05877 0.4425 0.0
H465 H 0.2562 0.13311 0.43071 0.0
H466 H 0.26707 0.16047 0.38124 0.0
H467 H 0.35929 0.17765 0.31406 0.0
H468 H 0.41715 0.15943 0.31118 0.0
H469 H 0.48668 0.08703 0.37927 0.0
H470 H 0.47496 0.05492 0.42676 0.0
H471 H 0.37898 0.02698 0.48638 0.0
H472 H 0.32114 0.0458 0.48955 0.0
H473 H 0.39388 0.00243 0.36099 0.0
H474 H 0.33797 0.06051 0.30777 0.0
H475 H 0.40334 0.14844 0.49596 0.0
H476 H 0.35096 0.20912 0.44206 0.0
C477 C 0.19809 0.12358 0.61992 0.0
C478 C 0.22155 0.14208 0.62429 0.0
C479 C 0.21326 0.15866 0.64804 0.0
C480 C 0.18501 0.15012 0.65661 0.0
N481 N 0.1748 0.12868 0.63995 0.0
Co482 Co 0.13244 0.11429 0.6416 0.0
N483 N 0.11859 0.14253 0.67323 0.0
C484 C 0.13507 0.16331 0.68483 0.0
C485 C 0.11954 0.17969 0.70596 0.0
C486 C 0.09174 0.16799 0.70875 0.0
C487 C 0.09214 0.14466 0.68946 0.0
N488 N 0.09007 0.09983 0.64343 0.0
C489 C 0.06738 0.10378 0.66431 0.0
C490 C 0.04377 0.08558 0.65963 0.0
C491 C 0.05145 0.07016 0.63502 0.0
C492 C 0.0795 0.07906 0.62623 0.0
N493 N 0.1462 0.08595 0.61002 0.0
C494 C 0.12935 0.06572 0.59801 0.0
C495 C 0.14511 0.04822 0.57793 0.0
C496 C 0.17357 0.05849 0.57633 0.0
C497 C 0.17331 0.08229 0.59508 0.0
N498 N 0.14388 0.0841 0.67173 0.0
C499 C 0.15344 0.04276 0.71756 0.0
C500 C 0.13982 0.03477 0.69225 0.0
C501 C 0.13539 0.05553 0.66982 0.0
C502 C 0.16358 0.07144 0.71895 0.0
C503 C 0.15869 0.09158 0.6959 0.0
N504 N 0.12133 0.14459 0.61124 0.0
C505 C 0.10578 0.15623 0.56229 0.0
C506 C 0.11901 0.18375 0.56252 0.0
C507 C 0.13098 0.19209 0.58859 0.0
C508 C 0.13128 0.1727 0.61251 0.0
C509 C 0.10718 0.13718 0.58668 0.0
H510 H 0.14095 0.18063 0.63135 0.0
H511 H 0.09754 0.11622 0.58484 0.0
H512 H 0.12443 0.04804 0.65144 0.0
H513 H 0.16641 0.11329 0.6984 0.0
C514 C 0.16574 0.16535 0.67685 0.0
C515 C 0.19828 0.10236 0.59589 0.0
C516 C 0.06821 0.12335 0.68951 0.0
C517 C 0.09864 0.06402 0.60582 0.0
H518 H 0.24202 0.14476 0.61112 0.0
H519 H 0.22547 0.17639 0.65673 0.0
H520 H 0.12782 0.19724 0.71864 0.0
H521 H 0.07372 0.17496 0.72422 0.0
H522 H 0.02373 0.08209 0.67317 0.0
H523 H 0.03917 0.05263 0.62604 0.0
H524 H 0.13678 0.03045 0.56558 0.0
H525 H 0.19209 0.04999 0.56215 0.0
H526 H 0.13231 0.01257 0.68977 0.0
H527 H 0.17436 0.07867 0.73808 0.0
H528 H 0.09491 0.149 0.54322 0.0
H529 H 0.14147 0.21299 0.59047 0.0
C530 C 0.12426 0.92383 0.87015 0.0
C531 C 0.11289 0.95175 0.87865 0.0
C532 C 0.09535 0.9477 0.90337 0.0
C533 C 0.09706 0.91766 0.90849 0.0
N534 N 0.11521 0.90232 0.88892 0.0
Co535 Co 0.12242 0.85811 0.88675 0.0
N536 N 0.09454 0.85169 0.92166 0.0
C537 C 0.07848 0.87284 0.93725 0.0
C538 C 0.06414 0.86209 0.96186 0.0
C539 C 0.07208 0.83246 0.96251 0.0
C540 C 0.09069 0.82668 0.93795 0.0
N541 N 0.12932 0.81396 0.88436 0.0
C542 C 0.12079 0.79247 0.90338 0.0
C543 C 0.13061 0.76444 0.8938 0.0
C544 C 0.14705 0.76847 0.86841 0.0
C545 C 0.14608 0.79857 0.86383 0.0
N546 N 0.15077 0.86442 0.85227 0.0
C547 C 0.16712 0.84333 0.83693 0.0
C548 C 0.18369 0.85441 0.81377 0.0
C549 C 0.17711 0.8843 0.814 0.0
C550 C 0.15682 0.88972 0.83739 0.0
N551 N 0.15666 0.85923 0.91299 0.0
C552 C 0.20199 0.85631 0.95406 0.0
C553 C 0.20552 0.83977 0.92869 0.0
C554 C 0.18271 0.84162 0.9085 0.0
C555 C 0.17616 0.87528 0.95786 0.0
C556 C 0.15404 0.87643 0.93723 0.0
N557 N 0.08806 0.85716 0.8604 0.0
C558 C 0.06845 0.84451 0.81424 0.0
C559 C 0.04191 0.86225 0.81978 0.0
C560 C 0.03849 0.87644 0.84653 0.0
C561 C 0.06139 0.87325 0.86645 0.0
C562 C 0.09105 0.84237 0.83462 0.0
H563 H 0.05717 0.8846 0.88632 0.0
H564 H 0.1109 0.829 0.82878 0.0
H565 H 0.18632 0.82816 0.88976 0.0
H566 H 0.13479 0.89102 0.94173 0.0
C567 C 0.08049 0.90298 0.93034 0.0
C568 C 0.14176 0.91871 0.84302 0.0
C569 C 0.10612 0.79773 0.93197 0.0
C570 C 0.16372 0.81319 0.84277 0.0
H571 H 0.11621 0.97273 0.86755 0.0
H572 H 0.08208 0.96451 0.91555 0.0
H573 H 0.05099 0.8746 0.97833 0.0
H574 H 0.06586 0.81732 0.9799 0.0
H575 H 0.12744 0.74338 0.9048 0.0
H576 H 0.15959 0.75159 0.85569 0.0
H577 H 0.19772 0.84209 0.79779 0.0
H578 H 0.18535 0.90016 0.79807 0.0
H579 H 0.22534 0.82489 0.9248 0.0
H580 H 0.1729 0.88916 0.97682 0.0
H581 H 0.07192 0.83228 0.79424 0.0
H582 H 0.01851 0.89058 0.852 0.0
C583 C 0.38397 0.91693 0.17408 0.0
C584 C 0.39394 0.94475 0.16658 0.0
C585 C 0.40941 0.94196 0.14039 0.0
C586 C 0.40802 0.91273 0.13336 0.0
N587 N 0.39212 0.89673 0.15322 0.0
Co588 Co 0.38709 0.85282 0.1526 0.0
N589 N 0.40908 0.84888 0.11358 0.0
C590 C 0.42115 0.87095 0.09744 0.0
C591 C 0.43234 0.86224 0.07052 0.0
C592 C 0.4263 0.83301 0.06899 0.0
C593 C 0.41173 0.82558 0.09519 0.0
N594 N 0.38334 0.80874 0.15253 0.0
C595 C 0.38971 0.78886 0.131 0.0
C596 C 0.38253 0.76047 0.13986 0.0
C597 C 0.37087 0.76259 0.16774 0.0
C598 C 0.3715 0.79201 0.17435 0.0
N599 N 0.36347 0.85696 0.19073 0.0
C600 C 0.35084 0.83487 0.20639 0.0
C601 C 0.33622 0.84414 0.23174 0.0
C602 C 0.33985 0.87391 0.23245 0.0
C603 C 0.3566 0.88116 0.20738 0.0
N604 N 0.34895 0.85873 0.13196 0.0
C605 C 0.30108 0.85884 0.09407 0.0
C606 C 0.3017 0.8398 0.11829 0.0
C607 C 0.3257 0.84025 0.13703 0.0
C608 C 0.32316 0.87963 0.09067 0.0
C609 C 0.34659 0.8794 0.10993 0.0
N610 N 0.4256 0.84709 0.17331 0.0
C611 C 0.45032 0.83889 0.21886 0.0
C612 C 0.4753 0.8539 0.20814 0.0
C613 C 0.47655 0.86214 0.17878 0.0
C614 C 0.45177 0.85828 0.16181 0.0
C615 C 0.42601 0.83538 0.20101 0.0
H616 H 0.45401 0.86571 0.13984 0.0
H617 H 0.40733 0.82429 0.21057 0.0
H618 H 0.32572 0.82464 0.15473 0.0
H619 H 0.36322 0.8953 0.10585 0.0
C620 C 0.4206 0.89984 0.10791 0.0
C621 C 0.3672 0.91086 0.20142 0.0
C622 C 0.40022 0.79631 0.10131 0.0
C623 C 0.35613 0.8053 0.1983 0.0
H624 H 0.39057 0.96494 0.1789 0.0
H625 H 0.42045 0.95917 0.12799 0.0
H626 H 0.44286 0.87573 0.05369 0.0
H627 H 0.43146 0.8189 0.05047 0.0
H628 H 0.38418 0.74052 0.12711 0.0
H629 H 0.36119 0.74511 0.18088 0.0
H630 H 0.32529 0.83065 0.24832 0.0
H631 H 0.33194 0.88844 0.24995 0.0
H632 H 0.28466 0.82367 0.12197 0.0
H633 H 0.32285 0.89549 0.07271 0.0
H634 H 0.44869 0.83138 0.24133 0.0
H635 H 0.49614 0.87259 0.16917 0.0
C636 C 0.33333 0.38979 0.15681 0.0
C637 C 0.30865 0.38192 0.17431 0.0
C638 C 0.31224 0.35201 0.17909 0.0
C639 C 0.33868 0.34337 0.16413 0.0
N640 N 0.3527 0.36606 0.15077 0.0
Co641 Co 0.38914 0.36295 0.12314 0.0
N642 N 0.39295 0.31868 0.12775 0.0
C643 C 0.3755 0.30169 0.14533 0.0
C644 C 0.38456 0.27216 0.14518 0.0
C645 C 0.40985 0.27028 0.12707 0.0
C646 C 0.41484 0.29892 0.11727 0.0
N647 N 0.42438 0.35987 0.09419 0.0
C648 C 0.4429 0.33611 0.08627 0.0
C649 C 0.4655 0.3442 0.06623 0.0
C650 C 0.46114 0.37397 0.06145 0.0
C651 C 0.43641 0.3825 0.07885 0.0
N652 N 0.38656 0.40726 0.11986 0.0
C653 C 0.40592 0.42448 0.10479 0.0
C654 C 0.39825 0.45425 0.10668 0.0
C655 C 0.37207 0.4561 0.12353 0.0
C656 C 0.36522 0.42719 0.13072 0.0
N657 N 0.41733 0.36534 0.15561 0.0
C658 C 0.45994 0.36188 0.19994 0.0
C659 C 0.4663 0.37635 0.17341 0.0
C660 C 0.44479 0.37795 0.15177 0.0
C661 C 0.43128 0.35057 0.20429 0.0
C662 C 0.41059 0.35253 0.18215 0.0
N663 N 0.36066 0.36036 0.09092 0.0
C664 C 0.33538 0.38251 0.04937 0.0
C665 C 0.31385 0.36087 0.05075 0.0
C666 C 0.31737 0.33814 0.07151 0.0
C667 C 0.3406 0.33829 0.0911 0.0
C668 C 0.3586 0.38171 0.06937 0.0
H669 H 0.3413 0.32054 0.10658 0.0
H670 H 0.37419 0.39896 0.06743 0.0
H671 H 0.45113 0.38894 0.13189 0.0
H672 H 0.38948 0.34295 0.18695 0.0
C673 C 0.35043 0.31413 0.16126 0.0
C674 C 0.3366 0.41963 0.14493 0.0
C675 C 0.44147 0.30636 0.09921 0.0
C676 C 0.42773 0.41188 0.08531 0.0
H677 H 0.28961 0.39616 0.18211 0.0
H678 H 0.29686 0.33808 0.19119 0.0
H679 H 0.37425 0.2542 0.15711 0.0
H680 H 0.42347 0.25018 0.12207 0.0
H681 H 0.48424 0.33058 0.05698 0.0
H682 H 0.4756 0.38804 0.04841 0.0
H683 H 0.40927 0.47232 0.09561 0.0
H684 H 0.35862 0.47626 0.12865 0.0
H685 H 0.48811 0.38564 0.16894 0.0
H686 H 0.42477 0.33997 0.22473 0.0
H687 H 0.33389 0.40052 0.03355 0.0
H688 H 0.30206 0.32022 0.07292 0.0
C689 C 0.94434 0.87677 0.10161 0.0
C690 C 0.967 0.88489 0.08172 0.0
C691 C 0.95602 0.90983 0.06761 0.0
C692 C 0.92735 0.91547 0.07951 0.0
N693 N 0.91946 0.89578 0.10061 0.0
Co694 Co 0.87938 0.89504 0.12286 0.0
N695 N 0.86123 0.92807 0.09824 0.0
C696 C 0.87476 0.94123 0.07486 0.0
C697 C 0.85589 0.96103 0.06044 0.0
C698 C 0.82873 0.96073 0.07564 0.0
C699 C 0.83277 0.94117 0.09901 0.0
N700 N 0.83986 0.89522 0.14602 0.0
C701 C 0.81503 0.91434 0.14499 0.0
C702 C 0.7949 0.9097 0.16852 0.0
C703 C 0.80672 0.88622 0.18409 0.0
C704 C 0.83367 0.8783 0.16987 0.0
N705 N 0.89697 0.86099 0.14646 0.0
C706 C 0.8831 0.84654 0.16882 0.0
C707 C 0.90043 0.82336 0.18015 0.0
C708 C 0.92674 0.82242 0.16355 0.0
C709 C 0.92377 0.8451 0.14287 0.0
N710 N 0.89375 0.92412 0.15026 0.0
C711 C 0.90856 0.96775 0.18935 0.0
C712 C 0.90095 0.93966 0.19935 0.0
C713 C 0.89377 0.91833 0.1796 0.0
C714 C 0.91008 0.97314 0.1594 0.0
C715 C 0.90279 0.95118 0.14043 0.0
N716 N 0.86511 0.86616 0.09546 0.0
C717 C 0.83866 0.82227 0.08537 0.0
C718 C 0.84788 0.82401 0.05593 0.0
C719 C 0.86564 0.84729 0.04682 0.0
C720 C 0.87362 0.86798 0.0666 0.0
C721 C 0.8475 0.84349 0.10468 0.0
H722 H 0.88716 0.88501 0.05799 0.0
H723 H 0.84011 0.84108 0.12698 0.0
H724 H 0.88779 0.89759 0.18875 0.0
H725 H 0.90395 0.957 0.11795 0.0
C726 C 0.90561 0.93546 0.06781 0.0
C727 C 0.94646 0.84979 0.11955 0.0
C728 C 0.80953 0.93698 0.1222 0.0
C729 C 0.85404 0.8557 0.17902 0.0
H730 H 0.98874 0.87339 0.07694 0.0
H731 H 0.96691 0.92134 0.04956 0.0
H732 H 0.86131 0.97432 0.04131 0.0
H733 H 0.80842 0.97386 0.07025 0.0
H734 H 0.77399 0.92213 0.17442 0.0
H735 H 0.79719 0.87659 0.2039 0.0
H736 H 0.89453 0.80874 0.19815 0.0
H737 H 0.94577 0.80652 0.16607 0.0
H738 H 0.90009 0.93423 0.22239 0.0
H739 H 0.91571 0.99462 0.15055 0.0
H740 H 0.82473 0.80471 0.09348 0.0
H741 H 0.87413 0.84933 0.02449 0.0
C742 C 0.16071 0.59231 0.6617 0.0
C743 C 0.18135 0.59338 0.6836 0.0
C744 C 0.18338 0.62265 0.69002 0.0
C745 C 0.16368 0.63783 0.67206 0.0
N746 N 0.14883 0.61984 0.65523 0.0
Co747 Co 0.11806 0.63286 0.62681 0.0
N748 N 0.11294 0.67312 0.64357 0.0
C749 C 0.13206 0.68562 0.66104 0.0
C750 C 0.12012 0.712 0.67215 0.0
C751 C 0.09174 0.71611 0.66116 0.0
C752 C 0.08806 0.69214 0.64344 0.0
N753 N 0.08764 0.64619 0.59846 0.0
C754 C 0.06618 0.66854 0.60079 0.0
C755 C 0.04923 0.67098 0.57608 0.0
C756 C 0.06041 0.64876 0.55792 0.0
C757 C 0.08357 0.63426 0.57251 0.0
N758 N 0.12266 0.5927 0.60969 0.0
C759 C 0.11367 0.58561 0.58315 0.0
C760 C 0.12121 0.55672 0.57608 0.0
C761 C 0.13648 0.54501 0.59925 0.0
C762 C 0.13748 0.56752 0.61938 0.0
N763 N 0.08556 0.62014 0.65345 0.0
C764 C 0.03175 0.61879 0.68719 0.0
C765 C 0.03394 0.606 0.65965 0.0
C766 C 0.06119 0.60691 0.64305 0.0
C767 C 0.0579 0.6291 0.6987 0.0
C768 C 0.08467 0.62918 0.68164 0.0
N769 N 0.15023 0.64611 0.59998 0.0
C770 C 0.19712 0.63545 0.57286 0.0
C771 C 0.19279 0.66165 0.55651 0.0
C772 C 0.16757 0.6808 0.56345 0.0
C773 C 0.14654 0.67261 0.58527 0.0
C774 C 0.17574 0.62819 0.59451 0.0
H775 H 0.12675 0.68726 0.58958 0.0
H776 H 0.17954 0.60761 0.60618 0.0
H777 H 0.06181 0.59897 0.62107 0.0
H778 H 0.10388 0.63885 0.69056 0.0
C779 C 0.15581 0.66829 0.67303 0.0
C780 C 0.15719 0.56566 0.64447 0.0
C781 C 0.06139 0.6873 0.62636 0.0
C782 C 0.09669 0.60608 0.56622 0.0
H783 H 0.19452 0.57497 0.69307 0.0
H784 H 0.19727 0.63172 0.70611 0.0
H785 H 0.12964 0.72524 0.68848 0.0
H786 H 0.07555 0.73408 0.66681 0.0
H787 H 0.03034 0.68663 0.57201 0.0
H788 H 0.05137 0.64273 0.53748 0.0
H789 H 0.11646 0.54556 0.55631 0.0
H790 H 0.14692 0.5228 0.60038 0.0
H791 H 0.01425 0.59739 0.65021 0.0
H792 H 0.05731 0.63833 0.72029 0.0
H793 H 0.2167 0.62034 0.56863 0.0
H794 H 0.16347 0.70134 0.55135 0.0
C795 C 0.65412 0.81109 0.93018 0.0
C796 C 0.67765 0.78935 0.9286 0.0
C797 C 0.68727 0.78777 0.90007 0.0
C798 C 0.6694 0.80878 0.88596 0.0
N799 N 0.64966 0.82436 0.90393 0.0
Co800 Co 0.61899 0.85642 0.89274 0.0
N801 N 0.63014 0.85148 0.85019 0.0
C802 C 0.65075 0.83144 0.83819 0.0
C803 C 0.65578 0.8355 0.80886 0.0
C804 C 0.63808 0.86013 0.80181 0.0
C805 C 0.62301 0.86961 0.82735 0.0
N806 N 0.58829 0.88838 0.8815 0.0
C807 C 0.58446 0.90206 0.85541 0.0
C808 C 0.56143 0.92427 0.85683 0.0
C809 C 0.55119 0.92547 0.8852 0.0
C810 C 0.5684 0.9039 0.8993 0.0
N811 N 0.60791 0.86141 0.93527 0.0
C812 C 0.58717 0.88152 0.94703 0.0
C813 C 0.58137 0.87727 0.97616 0.0
C814 C 0.59875 0.85259 0.98342 0.0
C815 C 0.61483 0.84329 0.95824 0.0
N816 N 0.64967 0.88668 0.89445 0.0
C817 C 0.6887 0.9339 0.88635 0.0
C818 C 0.6626 0.93664 0.90479 0.0
C819 C 0.64337 0.91311 0.90818 0.0
C820 C 0.6955 0.90626 0.87357 0.0
C821 C 0.67655 0.88306 0.87876 0.0
N822 N 0.58824 0.82627 0.89074 0.0
C823 C 0.54026 0.80736 0.90713 0.0
C824 C 0.54636 0.78131 0.89142 0.0
C825 C 0.57365 0.77863 0.87486 0.0
C826 C 0.59423 0.80087 0.87524 0.0
C827 C 0.56098 0.82955 0.90596 0.0
H828 H 0.61491 0.79679 0.863 0.0
H829 H 0.55455 0.84894 0.91797 0.0
H830 H 0.62323 0.91707 0.92143 0.0
H831 H 0.68363 0.86268 0.86878 0.0
C832 C 0.66855 0.81239 0.85575 0.0
C833 C 0.63452 0.81598 0.95629 0.0
C834 C 0.60467 0.89745 0.82989 0.0
C835 C 0.56934 0.90034 0.9294 0.0
H836 H 0.6859 0.77507 0.94604 0.0
H837 H 0.7042 0.77215 0.89055 0.0
H838 H 0.67207 0.82336 0.79469 0.0
H839 H 0.63777 0.87062 0.78054 0.0
H840 H 0.55417 0.93917 0.83946 0.0
H841 H 0.53459 0.94141 0.89472 0.0
H842 H 0.56457 0.88919 0.98998 0.0
H843 H 0.59779 0.84206 0.00462 0.0
H844 H 0.65653 0.95686 0.91639 0.0
H845 H 0.71487 0.90224 0.85877 0.0
H846 H 0.51979 0.81072 0.9207 0.0
H847 H 0.57938 0.75952 0.86146 0.0
C848 C 0.93416 0.19781 0.36711 0.0
C849 C 0.95752 0.19754 0.38657 0.0
C850 C 0.94882 0.18091 0.41021 0.0
C851 C 0.92062 0.1722 0.40433 0.0
N852 N 0.91102 0.18184 0.37816 0.0
Co853 Co 0.86902 0.1786 0.36487 0.0
N854 N 0.86025 0.14705 0.3944 0.0
C855 C 0.87596 0.14057 0.41829 0.0
C856 C 0.86535 0.1169 0.43398 0.0
C857 C 0.84138 0.10793 0.419 0.0
C858 C 0.8386 0.12686 0.39504 0.0
N859 N 0.82674 0.17564 0.35249 0.0
C860 C 0.80756 0.15343 0.35707 0.0
C861 C 0.78014 0.16016 0.34415 0.0
C862 C 0.78248 0.18739 0.33078 0.0
C863 C 0.81105 0.19581 0.33634 0.0
N864 N 0.87775 0.20952 0.33466 0.0
C865 C 0.85686 0.22459 0.31876 0.0
C866 C 0.86939 0.24332 0.29841 0.0
C867 C 0.90003 0.24046 0.30217 0.0
C868 C 0.90454 0.22053 0.32516 0.0
N869 N 0.88299 0.14782 0.33761 0.0
C870 C 0.89405 0.09857 0.30265 0.0
C871 C 0.87716 0.1234 0.29248 0.0
C872 C 0.87193 0.14791 0.31032 0.0
C873 C 0.90693 0.09936 0.32976 0.0
C874 C 0.90141 0.12444 0.34682 0.0
N875 N 0.85524 0.20938 0.39267 0.0
C876 C 0.86867 0.2526 0.4177 0.0
C877 C 0.85159 0.24395 0.44227 0.0
C878 C 0.83306 0.21999 0.4402 0.0
C879 C 0.83453 0.20348 0.41468 0.0
C880 C 0.87036 0.23495 0.39326 0.0
H881 H 0.8209 0.18447 0.41384 0.0
H882 H 0.88626 0.24083 0.3762 0.0
H883 H 0.85771 0.16626 0.30256 0.0
H884 H 0.91073 0.12425 0.36808 0.0
C885 C 0.90327 0.15372 0.42222 0.0
C886 C 0.93346 0.21625 0.34018 0.0
C887 C 0.8143 0.12628 0.37422 0.0
C888 C 0.82618 0.21823 0.32143 0.0
H889 H 0.97823 0.20914 0.38486 0.0
H890 H 0.96142 0.17614 0.42958 0.0
H891 H 0.87476 0.1065 0.45323 0.0
H892 H 0.82767 0.08953 0.42503 0.0
H893 H 0.76073 0.1466 0.34401 0.0
H894 H 0.76602 0.19876 0.31711 0.0
H895 H 0.85772 0.2571 0.28244 0.0
H896 H 0.91695 0.25249 0.28997 0.0
H897 H 0.86692 0.1233 0.2715 0.0
H898 H 0.92018 0.08037 0.33809 0.0
H899 H 0.88327 0.27103 0.41839 0.0
H900 H 0.81909 0.213 0.4587 0.0
C901 C 0.56834 0.12504 0.6364 0.0
C902 C 0.5421 0.1201 0.62209 0.0
C903 C 0.54952 0.09818 0.60263 0.0
C904 C 0.57972 0.09101 0.60618 0.0
N905 N 0.59197 0.10663 0.62713 0.0
Co906 Co 0.63558 0.10449 0.6383 0.0
N907 N 0.64698 0.07354 0.60852 0.0
C908 C 0.6283 0.06146 0.59002 0.0
C909 C 0.64262 0.04073 0.57206 0.0
C910 C 0.67206 0.03884 0.58007 0.0
C911 C 0.67392 0.05834 0.60284 0.0
N912 N 0.67939 0.10308 0.64879 0.0
C913 C 0.70298 0.08414 0.64035 0.0
C914 C 0.72882 0.08923 0.65543 0.0
C915 C 0.72148 0.1123 0.67344 0.0
C916 C 0.69162 0.11977 0.66892 0.0
N917 N 0.62397 0.13479 0.66869 0.0
C918 C 0.64237 0.1459 0.68799 0.0
C919 C 0.62827 0.16684 0.70582 0.0
C920 C 0.59909 0.16956 0.69724 0.0
C921 C 0.59708 0.14993 0.6746 0.0
N922 N 0.62761 0.07222 0.66718 0.0
C923 C 0.61968 0.02337 0.70568 0.0
C924 C 0.64002 0.04504 0.71135 0.0
C925 C 0.64313 0.06931 0.69234 0.0
C926 C 0.6027 0.02738 0.68077 0.0
C927 C 0.60732 0.05134 0.66186 0.0
N928 N 0.64341 0.13662 0.60931 0.0
C929 C 0.66096 0.18525 0.59673 0.0
C930 C 0.64924 0.18393 0.56909 0.0
C931 C 0.63561 0.15825 0.56159 0.0
C932 C 0.63325 0.13501 0.58169 0.0
C933 C 0.65764 0.16154 0.61648 0.0
H934 H 0.6227 0.11615 0.57439 0.0
H935 H 0.66631 0.16402 0.63752 0.0
H936 H 0.65862 0.08517 0.69829 0.0
H937 H 0.59431 0.05219 0.64293 0.0
C938 C 0.59742 0.07013 0.58992 0.0
C939 C 0.56981 0.14795 0.65811 0.0
C940 C 0.7012 0.06003 0.61964 0.0
C941 C 0.6734 0.13861 0.68676 0.0
H942 H 0.51998 0.13148 0.62517 0.0
H943 H 0.53479 0.08892 0.58737 0.0
H944 H 0.63275 0.02819 0.5554 0.0
H945 H 0.68996 0.02417 0.57073 0.0
H946 H 0.7505 0.07694 0.65498 0.0
H947 H 0.73564 0.12117 0.68943 0.0
H948 H 0.63833 0.17953 0.72226 0.0
H949 H 0.58163 0.18502 0.70607 0.0
H950 H 0.65407 0.04326 0.73007 0.0
H951 H 0.58579 0.01213 0.67556 0.0
H952 H 0.67187 0.20478 0.60333 0.0
H953 H 0.6268 0.15604 0.54016 0.0
C954 C 0.16826 0.3936 0.92758 0.0
C955 C 0.16525 0.41336 0.95047 0.0
C956 C 0.1459 0.43631 0.94198 0.0
C957 C 0.13814 0.42942 0.9145 0.0
N958 N 0.15083 0.40319 0.90526 0.0
Co959 Co 0.14732 0.3869 0.86562 0.0
N960 N 0.11233 0.41502 0.85713 0.0
C961 C 0.10419 0.44008 0.8715 0.0
C962 C 0.07917 0.45513 0.86057 0.0
C963 C 0.07103 0.43846 0.83787 0.0
C964 C 0.09155 0.41402 0.83634 0.0
N965 N 0.14413 0.37131 0.82576 0.0
C966 C 0.12046 0.37351 0.80784 0.0
C967 C 0.12686 0.35669 0.7831 0.0
C968 C 0.15575 0.34449 0.78525 0.0
C969 C 0.16527 0.35389 0.81131 0.0
N970 N 0.18188 0.35811 0.87421 0.0
C971 C 0.19808 0.34122 0.85462 0.0
C972 C 0.22021 0.323 0.86673 0.0
C973 C 0.21839 0.32924 0.89573 0.0
C974 C 0.19535 0.35124 0.89964 0.0
N975 N 0.11888 0.3585 0.88095 0.0
C976 C 0.07365 0.32006 0.89769 0.0
C977 C 0.09828 0.31053 0.8793 0.0
C978 C 0.12072 0.32998 0.87141 0.0
C979 C 0.07301 0.34884 0.9086 0.0
C980 C 0.09574 0.36767 0.89992 0.0
N981 N 0.17554 0.41585 0.85043 0.0
C982 C 0.21883 0.44357 0.85927 0.0
C983 C 0.20874 0.46591 0.84002 0.0
C984 C 0.1833 0.4614 0.82384 0.0
C985 C 0.16745 0.43567 0.82885 0.0
C986 C 0.20189 0.41898 0.86427 0.0
H987 H 0.14756 0.43284 0.8166 0.0
H988 H 0.20918 0.40382 0.881 0.0
H989 H 0.13896 0.3222 0.85676 0.0
H990 H 0.09401 0.38997 0.9079 0.0
C991 C 0.11747 0.44598 0.89762 0.0
C992 C 0.19119 0.36868 0.92633 0.0
C993 C 0.0921 0.39165 0.81352 0.0
C994 C 0.19007 0.34108 0.82565 0.0
H995 H 0.17674 0.41201 0.97078 0.0
H996 H 0.13852 0.45577 0.95432 0.0
H997 H 0.06756 0.47523 0.86874 0.0
H998 H 0.05229 0.44382 0.82394 0.0
H999 H 0.11211 0.3527 0.76562 0.0
H1000 H 0.16746 0.32877 0.7706 0.0
H1001 H 0.23578 0.30705 0.85581 0.0
H1002 H 0.23331 0.31976 0.91194 0.0
H1003 H 0.09969 0.28861 0.87003 0.0
H1004 H 0.05479 0.35702 0.92332 0.0
H1005 H 0.23827 0.44621 0.8724 0.0
H1006 H 0.17506 0.4781 0.80846 0.0
C1007 C 0.34091 0.64669 0.42674 0.0
C1008 C 0.34998 0.63735 0.45408 0.0
C1009 C 0.37542 0.61908 0.44976 0.0
C1010 C 0.38045 0.6185 0.42017 0.0
N1011 N 0.36005 0.63569 0.4054 0.0
Co1012 Co 0.35876 0.64149 0.36226 0.0
N1013 N 0.39412 0.61237 0.35573 0.0
C1014 C 0.40785 0.59475 0.37588 0.0
C1015 C 0.43227 0.57782 0.3648 0.0
C1016 C 0.43464 0.58563 0.33602 0.0
C1017 C 0.4114 0.60694 0.33124 0.0
N1018 N 0.35863 0.64849 0.31912 0.0
C1019 C 0.3803 0.64074 0.29855 0.0
C1020 C 0.37341 0.65251 0.27143 0.0
C1021 C 0.34669 0.66904 0.27515 0.0
C1022 C 0.33898 0.66644 0.30423 0.0
N1023 N 0.32255 0.66978 0.36874 0.0
C1024 C 0.30632 0.68442 0.34815 0.0
C1025 C 0.2811 0.70024 0.35911 0.0
C1026 C 0.28077 0.6948 0.3884 0.0
C1027 C 0.30599 0.67601 0.39357 0.0
N1028 N 0.38698 0.67436 0.36455 0.0
C1029 C 0.42858 0.72018 0.36452 0.0
C1030 C 0.40052 0.72433 0.35144 0.0
C1031 C 0.38028 0.7015 0.35182 0.0
C1032 C 0.43518 0.69251 0.37783 0.0
C1033 C 0.4143 0.67018 0.37761 0.0
N1034 N 0.33034 0.60842 0.35989 0.0
C1035 C 0.28738 0.58712 0.33831 0.0
C1036 C 0.2872 0.5637 0.35874 0.0
C1037 C 0.30977 0.56287 0.37934 0.0
C1038 C 0.33097 0.58497 0.37937 0.0
C1039 C 0.30863 0.60897 0.33939 0.0
H1040 H 0.34743 0.58272 0.39568 0.0
H1041 H 0.30673 0.62622 0.3234 0.0
H1042 H 0.35943 0.70619 0.34132 0.0
H1043 H 0.42081 0.64957 0.388 0.0
C1044 C 0.40131 0.59909 0.40548 0.0
C1045 C 0.31207 0.66287 0.42199 0.0
C1046 C 0.40852 0.62388 0.3042 0.0
C1047 C 0.31489 0.68222 0.31866 0.0
H1048 H 0.33846 0.64209 0.47484 0.0
H1049 H 0.38777 0.60646 0.46612 0.0
H1050 H 0.44789 0.56327 0.37665 0.0
H1051 H 0.45243 0.57772 0.32075 0.0
H1052 H 0.38687 0.65015 0.25132 0.0
H1053 H 0.33503 0.68244 0.25888 0.0
H1054 H 0.26446 0.71347 0.34714 0.0
H1055 H 0.26351 0.70302 0.40407 0.0
H1056 H 0.39421 0.745 0.34041 0.0
H1057 H 0.45625 0.68807 0.38873 0.0
H1058 H 0.27121 0.58877 0.32125 0.0
H1059 H 0.31087 0.54558 0.39592 0.0
C1060 C 0.77032 0.64775 0.86719 0.0
C1061 C 0.74134 0.65963 0.86216 0.0
C1062 C 0.74371 0.67683 0.83752 0.0
C1063 C 0.7739 0.67445 0.82902 0.0
N1064 N 0.79078 0.65611 0.84634 0.0
Co1065 Co 0.83601 0.64872 0.84447 0.0
N1066 N 0.84054 0.67772 0.81118 0.0
C1067 C 0.81818 0.69436 0.79842 0.0
C1068 C 0.82806 0.70991 0.7743 0.0
C1069 C 0.85834 0.70213 0.77099 0.0
C1070 C 0.86521 0.6823 0.79344 0.0
N1071 N 0.88121 0.64153 0.8429 0.0
C1072 C 0.90196 0.65061 0.82273 0.0
C1073 C 0.93115 0.64009 0.829 0.0
C1074 C 0.92859 0.62278 0.85347 0.0
C1075 C 0.89814 0.62386 0.86077 0.0
N1076 N 0.83163 0.61944 0.87741 0.0
C1077 C 0.85394 0.60243 0.88981 0.0
C1078 C 0.84392 0.5855 0.91288 0.0
C1079 C 0.81355 0.59275 0.91591 0.0
C1080 C 0.80683 0.61375 0.89438 0.0
N1081 N 0.83284 0.61676 0.81606 0.0
C1082 C 0.83359 0.57444 0.77193 0.0
C1083 C 0.85084 0.56942 0.79649 0.0
C1084 C 0.85013 0.5907 0.81812 0.0
C1085 C 0.81496 0.6004 0.7705 0.0
C1086 C 0.81476 0.62094 0.79271 0.0
N1087 N 0.83897 0.68077 0.87293 0.0
C1088 C 0.85509 0.6974 0.91915 0.0
C1089 C 0.83668 0.72352 0.91693 0.0
C1090 C 0.82028 0.72823 0.89181 0.0
C1091 C 0.82209 0.70699 0.87015 0.0
C1092 C 0.85584 0.67649 0.89712 0.0
H1093 H 0.80904 0.71206 0.85167 0.0
H1094 H 0.86987 0.65687 0.90036 0.0
H1095 H 0.86422 0.58584 0.83599 0.0
H1096 H 0.80037 0.64036 0.79006 0.0
C1097 C 0.78767 0.69187 0.80729 0.0
C1098 C 0.7778 0.63059 0.89322 0.0
C1099 C 0.89467 0.66639 0.79584 0.0
C1100 C 0.88443 0.60571 0.88178 0.0
H1101 H 0.72095 0.65704 0.87563 0.0
H1102 H 0.72588 0.69073 0.82792 0.0
H1103 H 0.81452 0.72386 0.75983 0.0
H1104 H 0.87334 0.70922 0.75334 0.0
H1105 H 0.95193 0.6434 0.81632 0.0
H1106 H 0.94654 0.6096 0.86372 0.0
H1107 H 0.85738 0.57101 0.92693 0.0
H1108 H 0.79849 0.58464 0.93302 0.0
H1109 H 0.86507 0.54926 0.79898 0.0
H1110 H 0.80124 0.60542 0.75188 0.0
H1111 H 0.86897 0.69301 0.93776 0.0
H1112 H 0.80554 0.74798 0.88895 0.0
C1113 C 0.6217 0.57429 0.14128 0.0
C1114 C 0.59966 0.55409 0.1376 0.0
C1115 C 0.57442 0.56997 0.12833 0.0
C1116 C 0.58244 0.59887 0.12661 0.0
N1117 N 0.61141 0.6021 0.1336 0.0
Co1118 Co 0.63127 0.64045 0.13493 0.0
N1119 N 0.59932 0.66114 0.11186 0.0
C1120 C 0.57134 0.65197 0.10812 0.0
C1121 C 0.5543 0.67116 0.09101 0.0
C1122 C 0.57283 0.69371 0.08351 0.0
C1123 C 0.60028 0.68685 0.09636 0.0
N1124 N 0.65065 0.67897 0.13642 0.0
C1125 C 0.64821 0.70266 0.118 0.0
C1126 C 0.66884 0.72346 0.12457 0.0
C1127 C 0.6836 0.71284 0.14849 0.0
C1128 C 0.67191 0.68592 0.15486 0.0
N1129 N 0.66364 0.61988 0.15785 0.0
C1130 C 0.6838 0.63327 0.17358 0.0
C1131 C 0.70322 0.61376 0.18771 0.0
C1132 C 0.69442 0.58629 0.181 0.0
C1133 C 0.6699 0.59054 0.16305 0.0
N1134 N 0.6543 0.63102 0.09887 0.0
C1135 C 0.68461 0.62297 0.04483 0.0
C1136 C 0.69972 0.63344 0.06843 0.0
C1137 C 0.68422 0.63705 0.09536 0.0
C1138 C 0.65436 0.61582 0.04909 0.0
C1139 C 0.63965 0.62005 0.07616 0.0
N1140 N 0.60749 0.64984 0.17076 0.0
C1141 C 0.56689 0.67953 0.19425 0.0
C1142 C 0.56093 0.65593 0.21344 0.0
C1143 C 0.58094 0.6308 0.21302 0.0
C1144 C 0.60413 0.62829 0.19169 0.0
C1145 C 0.59056 0.6761 0.17314 0.0
H1146 H 0.61781 0.60791 0.19101 0.0
H1147 H 0.59373 0.69384 0.15746 0.0
H1148 H 0.6962 0.64536 0.11314 0.0
H1149 H 0.61609 0.61524 0.07839 0.0
C1150 C 0.56447 0.62295 0.11596 0.0
C1151 C 0.64999 0.56677 0.15626 0.0
C1152 C 0.62627 0.70578 0.0947 0.0
C1153 C 0.68587 0.66395 0.17217 0.0
H1154 H 0.60128 0.5305 0.14231 0.0
H1155 H 0.55287 0.56143 0.12334 0.0
H1156 H 0.53169 0.66841 0.08366 0.0
H1157 H 0.56691 0.71289 0.07003 0.0
H1158 H 0.67395 0.74367 0.11299 0.0
H1159 H 0.70249 0.72243 0.15838 0.0
H1160 H 0.72166 0.61887 0.2012 0.0
H1161 H 0.70424 0.56561 0.18953 0.0
H1162 H 0.72328 0.63885 0.06607 0.0
H1163 H 0.64178 0.6079 0.03137 0.0
H1164 H 0.55217 0.69955 0.1942 0.0
H1165 H 0.57766 0.61243 0.22809 0.0
C1166 C 0.71091 0.37111 0.38452 0.0
C1167 C 0.73867 0.35664 0.37711 0.0
C1168 C 0.73476 0.34144 0.35232 0.0
C1169 C 0.70493 0.34721 0.34603 0.0
N1170 N 0.68973 0.36578 0.36498 0.0
Co1171 Co 0.6452 0.37758 0.36566 0.0
N1172 N 0.63777 0.34903 0.33417 0.0
C1173 C 0.65838 0.32947 0.32159 0.0
C1174 C 0.64708 0.31388 0.2996 0.0
C1175 C 0.61767 0.32457 0.2976 0.0
C1176 C 0.6127 0.34616 0.31861 0.0
N1177 N 0.60098 0.39045 0.36552 0.0
C1178 C 0.57978 0.38435 0.34635 0.0
C1179 C 0.5523 0.39989 0.35246 0.0
C1180 C 0.55657 0.41725 0.37572 0.0
C1181 C 0.58626 0.41128 0.38247 0.0
N1182 N 0.65228 0.40496 0.39819 0.0
C1183 C 0.63147 0.42355 0.4119 0.0
C1184 C 0.64252 0.43794 0.4348 0.0
C1185 C 0.67187 0.42707 0.43654 0.0
C1186 C 0.67694 0.4065 0.41458 0.0
N1187 N 0.65271 0.40907 0.33577 0.0
C1188 C 0.65004 0.45141 0.28985 0.0
C1189 C 0.64202 0.45931 0.31853 0.0
C1190 C 0.64347 0.43804 0.34089 0.0
C1191 C 0.66216 0.42253 0.28512 0.0
C1192 C 0.66379 0.40205 0.30829 0.0
N1193 N 0.63747 0.3462 0.39539 0.0
C1194 C 0.61312 0.33063 0.44075 0.0
C1195 C 0.63195 0.30477 0.44147 0.0
C1196 C 0.65271 0.29935 0.41824 0.0
C1197 C 0.65474 0.31997 0.39537 0.0
C1198 C 0.61634 0.35099 0.41774 0.0
H1199 H 0.67085 0.31445 0.37815 0.0
H1200 H 0.60192 0.37072 0.41883 0.0
H1201 H 0.63603 0.44548 0.36192 0.0
H1202 H 0.67305 0.38038 0.30316 0.0
C1203 C 0.68918 0.33043 0.3271 0.0
C1204 C 0.70466 0.38735 0.41156 0.0
C1205 C 0.58519 0.36565 0.32094 0.0
C1206 C 0.60136 0.4258 0.40359 0.0
H1207 H 0.75922 0.3556 0.38911 0.0
H1208 H 0.75104 0.32595 0.34164 0.0
H1209 H 0.65935 0.29819 0.28531 0.0
H1210 H 0.60227 0.31829 0.28144 0.0
H1211 H 0.53165 0.39944 0.34066 0.0
H1212 H 0.5403 0.43312 0.38584 0.0
H1213 H 0.63036 0.45358 0.44922 0.0
H1214 H 0.68745 0.43276 0.45282 0.0
H1215 H 0.63394 0.48174 0.32378 0.0
H1216 H 0.66926 0.41523 0.26349 0.0
H1217 H 0.59656 0.33554 0.45829 0.0
H1218 H 0.66725 0.27919 0.41766 0.0
C1219 C 0.89175 0.45926 0.62248 0.0
C1220 C 0.90169 0.48659 0.61317 0.0
C1221 C 0.92196 0.48124 0.59038 0.0
C1222 C 0.9232 0.45108 0.58711 0.0
N1223 N 0.90433 0.43695 0.60599 0.0
Co1224 Co 0.90015 0.39311 0.61031 0.0
N1225 N 0.93142 0.38483 0.57838 0.0
C1226 C 0.94717 0.40466 0.5625 0.0
C1227 C 0.96467 0.39207 0.54011 0.0
C1228 C 0.95879 0.36265 0.54117 0.0
C1229 C 0.93813 0.3591 0.56426 0.0
N1230 N 0.89696 0.34927 0.61523 0.0
C1231 C 0.90861 0.32721 0.59797 0.0
C1232 C 0.90147 0.2996 0.60919 0.0
C1233 C 0.88316 0.30468 0.63345 0.0
C1234 C 0.88053 0.3349 0.63583 0.0
N1235 N 0.86813 0.40113 0.64159 0.0
C1236 C 0.85193 0.38088 0.65647 0.0
C1237 C 0.83209 0.39302 0.67722 0.0
C1238 C 0.83623 0.42271 0.67586 0.0
C1239 C 0.85844 0.42704 0.65414 0.0
N1240 N 0.86831 0.39444 0.5807 0.0
C1241 C 0.8284 0.3923 0.53419 0.0
C1242 C 0.82642 0.37257 0.55801 0.0
C1243 C 0.84612 0.37433 0.58108 0.0
C1244 C 0.84946 0.41417 0.53525 0.0
C1245 C 0.86915 0.41457 0.55808 0.0
N1246 N 0.93218 0.3919 0.63979 0.0
C1247 C 0.95104 0.37753 0.68714 0.0
C1248 C 0.97745 0.39298 0.68185 0.0
C1249 C 0.98029 0.408 0.65507 0.0
C1250 C 0.95816 0.40659 0.6345 0.0
C1251 C 0.92874 0.37766 0.66622 0.0
H1252 H 0.96258 0.41795 0.61454 0.0
H1253 H 0.90889 0.36618 0.672 0.0
H1254 H 0.84351 0.35871 0.59864 0.0
H1255 H 0.88535 0.43105 0.55632 0.0
C1256 C 0.9423 0.43516 0.56711 0.0
C1257 C 0.87191 0.4554 0.64819 0.0
C1258 C 0.92118 0.33256 0.56868 0.0
C1259 C 0.85904 0.35053 0.65357 0.0
H1260 H 0.89548 0.50805 0.62245 0.0
H1261 H 0.93484 0.49731 0.57817 0.0
H1262 H 0.97837 0.40327 0.52376 0.0
H1263 H 0.96691 0.34606 0.52558 0.0
H1264 H 0.90743 0.27799 0.60042 0.0
H1265 H 0.87151 0.28838 0.64656 0.0
H1266 H 0.81765 0.38147 0.6927 0.0
H1267 H 0.82507 0.43893 0.69025 0.0
H1268 H 0.81043 0.35527 0.55861 0.0
H1269 H 0.8513 0.4309 0.51822 0.0
H1270 H 0.94741 0.36512 0.70719 0.0
H1271 H 0.99941 0.42128 0.64968 0.0
H1272 H 0.13599 0.24631 0.43869 0.0
H1273 H 0.13402 0.32403 0.49189 0.0
H1274 H 0.12736 0.29321 0.53572 0.0
H1275 H 0.1195 0.24468 0.55853 0.0
H1276 H 0.12538 0.16636 0.50548 0.0
H1277 H 0.13162 0.19715 0.46198 0.0
C1278 C 0.13432 0.25644 0.45993 0.0
C1279 C 0.13551 0.28742 0.46205 0.0
C1280 C 0.13045 0.23859 0.48501 0.0
C1281 C 0.13355 0.30022 0.4897 0.0
C1282 C 0.12942 0.28263 0.51473 0.0
C1283 C 0.12265 0.23407 0.53762 0.0
C1284 C 0.12171 0.20295 0.5357 0.0
C1285 C 0.1275 0.25182 0.51261 0.0
C1286 C 0.12514 0.19015 0.50797 0.0
C1287 C 0.12917 0.20775 0.48295 0.0
H1288 H 0.92585 0.87646 0.74447 0.0
H1289 H 0.99391 0.86739 0.67457 0.0
H1290 H 0.03389 0.86667 0.70971 0.0
H1291 H 0.0493 0.86522 0.76048 0.0
H1292 H 0.9803 0.86751 0.83 0.0
H1293 H 0.94097 0.87388 0.79471 0.0
C1294 C 0.9494 0.87403 0.73681 0.0
C1295 C 0.95673 0.87165 0.70686 0.0
C1296 C 0.97216 0.87218 0.75712 0.0
C1297 C 0.98748 0.86957 0.69742 0.0
C1298 C 0.01039 0.86879 0.71755 0.0
C1299 C 0.02567 0.86673 0.76797 0.0
C1300 C 0.01795 0.8659 0.798 0.0
C1301 C 0.00295 0.86943 0.74749 0.0
C1302 C 0.98713 0.8686 0.80716 0.0
C1303 C 0.96451 0.87204 0.78696 0.0
H1304 H 0.3637 0.79659 0.0551 0.0
H1305 H 0.43745 0.74641 0.09452 0.0
H1306 H 0.43766 0.70936 0.05619 0.0
H1307 H 0.41666 0.69113 0.0115 0.0
H1308 H 0.34249 0.74126 0.97217 0.0
H1309 H 0.34291 0.77846 0.00996 0.0
C1310 C 0.37976 0.77749 0.05517 0.0
C1311 C 0.40033 0.77396 0.07769 0.0
C1312 C 0.37975 0.75632 0.03299 0.0
C1313 C 0.42124 0.74933 0.07753 0.0
C1314 C 0.42136 0.72822 0.05561 0.0
C1315 C 0.4004 0.71004 0.01127 0.0
C1316 C 0.37955 0.71318 0.98882 0.0
C1317 C 0.40063 0.73139 0.03326 0.0
C1318 C 0.35907 0.73828 0.9888 0.0
C1319 C 0.35915 0.75955 0.01058 0.0
H1320 H 0.45761 0.07409 0.32071 0.0
H1321 H 0.4678 0.16502 0.34312 0.0
H1322 H 0.50665 0.16964 0.30393 0.0
H1323 H 0.53593 0.14849 0.26176 0.0
H1324 H 0.52672 0.05716 0.23972 0.0
H1325 H 0.48974 0.05182 0.28035 0.0
C1326 C 0.46866 0.09476 0.3171 0.0
C1327 C 0.45972 0.11933 0.33446 0.0
C1328 C 0.49107 0.09717 0.29454 0.0
C1329 C 0.47422 0.14596 0.32981 0.0
C1330 C 0.49636 0.14858 0.3074 0.0
C1331 C 0.52585 0.12741 0.26586 0.0
C1332 C 0.53396 0.10334 0.24751 0.0
C1333 C 0.50464 0.12448 0.28933 0.0
C1334 C 0.52104 0.07602 0.25352 0.0
C1335 C 0.49975 0.07299 0.27669 0.0
H1336 H 0.15826 0.7738 0.95342 0.0
H1337 H 0.0612 0.76815 0.96091 0.0
H1338 H 0.06686 0.72917 0.99835 0.0
H1339 H 0.0997 0.69589 0.02822 0.0
H1340 H 0.19685 0.69688 0.01573 0.0
H1341 H 0.19112 0.73836 0.98094 0.0
C1342 C 0.1384 0.76403 0.9634 0.0
C1343 C 0.10931 0.77436 0.95515 0.0
C1344 C 0.14195 0.74079 0.98393 0.0
C1345 C 0.08374 0.76119 0.96767 0.0
C1346 C 0.08701 0.73874 0.98883 0.0
C1347 C 0.11955 0.70532 0.01786 0.0
C1348 C 0.14867 0.69407 0.02509 0.0
C1349 C 0.116 0.72832 0.99708 0.0
C1350 C 0.17426 0.70591 0.01117 0.0
C1351 C 0.17097 0.72941 0.99113 0.0
H1352 H 0.57259 0.87655 0.30073 0.0
H1353 H 0.56923 0.96228 0.25814 0.0
H1354 H 0.53109 0.94611 0.22546 0.0
H1355 H 0.49925 0.90749 0.20923 0.0
H1356 H 0.50291 0.82134 0.25152 0.0
H1357 H 0.54038 0.83777 0.28457 0.0
C1358 C 0.56333 0.89156 0.28428 0.0
C1359 C 0.57329 0.92046 0.28161 0.0
C1360 C 0.54171 0.88202 0.26569 0.0
C1361 C 0.56149 0.94 0.26043 0.0
C1362 C 0.53989 0.93072 0.24181 0.0
C1363 C 0.50859 0.89215 0.22539 0.0
C1364 C 0.49866 0.86313 0.22772 0.0
C1365 C 0.52999 0.90173 0.24417 0.0
C1366 C 0.51024 0.84378 0.24932 0.0
C1367 C 0.53167 0.85313 0.26814 0.0
H1368 H 0.39606 0.27072 0.57493 0.0
H1369 H 0.30201 0.29435 0.56057 0.0
H1370 H 0.30231 0.25815 0.52142 0.0
H1371 H 0.32939 0.21943 0.49149 0.0
H1372 H 0.42372 0.19598 0.50589 0.0
H1373 H 0.42327 0.23214 0.54472 0.0
C1374 C 0.37569 0.26778 0.56318 0.0
C1375 C 0.34897 0.28489 0.57065 0.0
C1376 C 0.3761 0.24695 0.54071 0.0
C1377 C 0.32271 0.28117 0.55528 0.0
C1378 C 0.32294 0.26056 0.53288 0.0
C1379 C 0.34994 0.22242 0.50291 0.0
C1380 C 0.37655 0.20485 0.49565 0.0
C1381 C 0.34952 0.2433 0.52537 0.0
C1382 C 0.40281 0.20883 0.51112 0.0
C1383 C 0.40262 0.22964 0.53331 0.0
H1384 H 0.00519 0.12493 0.69221 0.0
H1385 H 0.08257 0.11793 0.74658 0.0
H1386 H 0.04868 0.11887 0.78998 0.0
H1387 H 0.99664 0.12234 0.81254 0.0
H1388 H 0.92099 0.11208 0.75805 0.0
H1389 H 0.95442 0.11623 0.71464 0.0
C1390 C 0.01486 0.12212 0.71339 0.0
C1391 C 0.04667 0.12107 0.71579 0.0
C1392 C 0.99532 0.11984 0.73833 0.0
C1393 C 0.05828 0.11907 0.74386 0.0
C1394 C 0.03889 0.11944 0.76877 0.0
C1395 C 0.98749 0.12031 0.79122 0.0
C1396 C 0.95596 0.11794 0.78875 0.0
C1397 C 0.0073 0.11989 0.7663 0.0
C1398 C 0.94486 0.11509 0.76075 0.0
C1399 C 0.96403 0.11722 0.73585 0.0
H1400 H 0.23586 0.5242 0.15545 0.0
H1401 H 0.23374 0.50899 0.06331 0.0
H1402 H 0.27122 0.46738 0.06771 0.0
H1403 H 0.30626 0.43657 0.0974 0.0
H1404 H 0.30928 0.45195 0.18922 0.0
H1405 H 0.26968 0.49216 0.1855 0.0
C1406 C 0.24375 0.51185 0.13634 0.0
C1407 C 0.23218 0.51979 0.10906 0.0
C1408 C 0.26531 0.48792 0.13904 0.0
C1409 C 0.24218 0.50324 0.08456 0.0
C1410 C 0.26367 0.4795 0.08704 0.0
C1411 C 0.29783 0.44856 0.11658 0.0
C1412 C 0.31019 0.44138 0.14358 0.0
C1413 C 0.2755 0.47177 0.11411 0.0
C1414 C 0.29961 0.45705 0.16835 0.0
C1415 C 0.27721 0.48008 0.16614 0.0
H1416 H 0.75755 0.05294 0.86899 0.0
H1417 H 0.82935 0.99008 0.83966 0.0
H1418 H 0.79622 0.94956 0.8487 0.0
H1419 H 0.74917 0.9318 0.86885 0.0
H1420 H 0.67365 0.99434 0.88948 0.0
H1421 H 0.70665 0.0351 0.88087 0.0
C1422 C 0.76579 0.03051 0.8638 0.0
C1423 C 0.79633 0.02464 0.85451 0.0
C1424 C 0.7463 0.00715 0.86824 0.0
C1425 C 0.80638 0.99529 0.84789 0.0
C1426 C 0.7874 0.97203 0.85294 0.0
C1427 C 0.73913 0.95413 0.87063 0.0
C1428 C 0.70856 0.95933 0.88021 0.0
C1429 C 0.7576 0.97766 0.86382 0.0
C1430 C 0.69717 0.98902 0.88317 0.0
C1431 C 0.71595 0.0126 0.87776 0.0
H1432 H 0.80713 0.08344 0.33455 0.0
H1433 H 0.77159 0.11604 0.41716 0.0
H1434 H 0.73538 0.07683 0.4203 0.0
H1435 H 0.71423 0.03273 0.39984 0.0
H1436 H 0.74888 0.00095 0.31631 0.0
H1437 H 0.78505 0.0398 0.31349 0.0
C1438 C 0.79143 0.08181 0.35321 0.0
C1439 C 0.79227 0.10226 0.37582 0.0
C1440 C 0.77056 0.0592 0.35478 0.0
C1441 C 0.77161 0.10024 0.39973 0.0
C1442 C 0.75088 0.07787 0.40147 0.0
C1443 C 0.72942 0.03441 0.38084 0.0
C1444 C 0.72868 0.01353 0.35843 0.0
C1445 C 0.75015 0.05714 0.37916 0.0
C1446 C 0.74907 0.01613 0.33422 0.0
C1447 C 0.76973 0.03858 0.33244 0.0
H1448 H 0.68025 1.00042 0.14501 0.0
H1449 H 0.7295 0.07805 0.12315 0.0
H1450 H 0.7766 0.04699 0.11766 0.0
H1451 H 0.80354 0.99754 0.12026 0.0
H1452 H 0.75104 0.91987 0.12583 0.0
H1453 H 0.70465 0.95108 0.13497 0.0
C1454 C 0.70066 0.01056 0.13702 0.0
C1455 C 0.70095 0.04152 0.13347 0.0
C1456 C 0.72704 0.99248 0.13126 0.0
C1457 C 0.72859 0.05422 0.12584 0.0
C1458 C 0.75549 0.0365 0.1226 0.0
C1459 C 0.78186 0.98746 0.1227 0.0
C1460 C 0.78087 0.95636 0.1234 0.0
C1461 C 0.75498 0.00556 0.12536 0.0
C1462 C 0.75252 0.94372 0.12627 0.0
C1463 C 0.726 0.96152 0.13134 0.0
H1464 H 0.15295 0.5064 0.65577 0.0
H1465 H 0.21708 0.57202 0.63216 0.0
H1466 H 0.25852 0.5339 0.631 0.0
H1467 H 0.27655 0.48218 0.63669 0.0
H1468 H 0.21206 0.41517 0.65484 0.0
H1469 H 0.17094 0.45348 0.65837 0.0
C1470 C 0.17606 0.51218 0.65048 0.0
C1471 C 0.18211 0.54194 0.6446 0.0
C1472 C 0.1997 0.48994 0.64882 0.0
C1473 C 0.21201 0.54929 0.6373 0.0
C1474 C 0.23567 0.5275 0.63645 0.0
C1475 C 0.2535 0.47571 0.64086 0.0
C1476 C 0.24771 0.44564 0.64559 0.0
C1477 C 0.22977 0.49774 0.64206 0.0
C1478 C 0.21754 0.43809 0.65165 0.0
C1479 C 0.19385 0.46 0.65349 0.0
H1480 H 0.17399 0.48315 0.34803 0.0
H1481 H 0.2366 0.41745 0.3845 0.0
H1482 H 0.2755 0.45389 0.3855 0.0
H1483 H 0.29214 0.50435 0.3752 0.0
H1484 H 0.22782 0.57124 0.34248 0.0
H1485 H 0.18976 0.5346 0.34049 0.0
C1486 C 0.19622 0.47688 0.3561 0.0
C1487 C 0.2027 0.44736 0.3653 0.0
C1488 C 0.21835 0.49822 0.35716 0.0
C1489 C 0.23134 0.43974 0.37641 0.0
C1490 C 0.25354 0.46067 0.37716 0.0
C1491 C 0.26976 0.5112 0.36795 0.0
C1492 C 0.26348 0.54086 0.35861 0.0
C1493 C 0.2474 0.49 0.36746 0.0
C1494 C 0.23408 0.54867 0.34906 0.0
C1495 C 0.21198 0.52768 0.34816 0.0
H1496 H 0.24598 0.58517 0.88814 0.0
H1497 H 0.33451 0.54077 0.87593 0.0
H1498 H 0.31295 0.50146 0.84958 0.0
H1499 H 0.26823 0.47674 0.83539 0.0
H1500 H 0.17925 0.51963 0.84919 0.0
H1501 H 0.20172 0.56341 0.86778 0.0
C1502 C 0.26067 0.56752 0.87881 0.0
C1503 C 0.29194 0.56631 0.88348 0.0
C1504 C 0.24798 0.54475 0.86378 0.0
C1505 C 0.31044 0.54239 0.87242 0.0
C1506 C 0.29813 0.51988 0.85731 0.0
C1507 C 0.2539 0.4961 0.84163 0.0
C1508 C 0.22224 0.495 0.84116 0.0
C1509 C 0.26685 0.52049 0.85346 0.0
C1510 C 0.20375 0.52012 0.84916 0.0
C1511 C 0.21656 0.54492 0.86028 0.0
H1512 H 0.64293 0.81937 0.01477 0.0
H1513 H 0.62355 0.75795 0.94835 0.0
H1514 H 0.62165 0.7178 0.98478 0.0
H1515 H 0.62432 0.7006 0.03614 0.0
H1516 H 0.62753 0.76579 0.10295 0.0
H1517 H 0.63552 0.80446 0.06615 0.0
C1518 C 0.63706 0.79752 0.00836 0.0
C1519 C 0.63274 0.79189 0.97895 0.0
C1520 C 0.63325 0.77524 0.02964 0.0
C1521 C 0.62692 0.76291 0.97089 0.0
C1522 C 0.62563 0.74 0.99171 0.0
C1523 C 0.62667 0.72333 0.04255 0.0
C1524 C 0.62767 0.72997 0.07223 0.0
C1525 C 0.62855 0.74596 0.02124 0.0
C1526 C 0.62917 0.7597 0.08028 0.0
C1527 C 0.63321 0.78192 0.05924 0.0
H1528 H 0.54646 0.32575 0.30289 0.0
H1529 H 0.57691 0.41329 0.28478 0.0
H1530 H 0.54125 0.42011 0.24542 0.0
H1531 H 0.50053 0.40136 0.21689 0.0
H1532 H 0.47144 0.31291 0.23435 0.0
H1533 H 0.50725 0.30627 0.27308 0.0
C1534 C 0.54537 0.34615 0.29006 0.0
C1535 C 0.56426 0.36892 0.29641 0.0
C1536 C 0.52494 0.3498 0.26746 0.0
C1537 C 0.56254 0.39547 0.28005 0.0
C1538 C 0.54219 0.39934 0.25761 0.0
C1539 C 0.50223 0.38052 0.22893 0.0
C1540 C 0.48294 0.35783 0.22279 0.0
C1541 C 0.52318 0.37668 0.25115 0.0
C1542 C 0.48542 0.33105 0.23891 0.0
C1543 C 0.50609 0.32711 0.261 0.0
H1544 H 0.91663 0.27429 0.55433 0.0
H1545 H 0.89348 0.3635 0.52474 0.0
H1546 H 0.86646 0.34434 0.48466 0.0
H1547 H 0.85064 0.30191 0.45723 0.0
H1548 H 0.87023 0.21302 0.48966 0.0
H1549 H 0.89511 0.23245 0.5311 0.0
C1550 C 0.90444 0.28965 0.54017 0.0
C1551 C 0.90617 0.32034 0.54342 0.0
C1552 C 0.88779 0.27851 0.51793 0.0
C1553 C 0.89233 0.33975 0.523 0.0
C1554 C 0.87663 0.32884 0.50017 0.0
C1555 C 0.85962 0.28694 0.47388 0.0
C1556 C 0.85849 0.25616 0.47061 0.0
C1557 C 0.87418 0.29824 0.49745 0.0
C1558 C 0.87037 0.23683 0.49207 0.0
C1559 C 0.88505 0.2479 0.51547 0.0
H1560 H 0.91014 0.6179 0.76405 0.0
H1561 H 0.9297 0.70949 0.77328 0.0
H1562 H 0.97286 0.70321 0.73821 0.0
H1563 H 0.00778 0.67032 0.709 0.0
H1564 H 0.98937 0.57825 0.70064 0.0
H1565 H 0.94271 0.5859 0.7311 0.0
C1566 C 0.92358 0.63653 0.75778 0.0
C1567 C 0.9169 0.66416 0.77083 0.0
C1568 C 0.94866 0.6325 0.7382 0.0
C1569 C 0.9344 0.68821 0.76307 0.0
C1570 C 0.95914 0.68451 0.74329 0.0
C1571 C 0.99346 0.65198 0.71385 0.0
C1572 C 0.00216 0.62363 0.7032 0.0
C1573 C 0.96696 0.65656 0.7314 0.0
C1574 C 0.98314 0.60018 0.70885 0.0
C1575 C 0.95658 0.60455 0.72629 0.0
H1576 H 0.67784 0.28229 0.47413 0.0
H1577 H 0.58139 0.27985 0.46419 0.0
H1578 H 0.57807 0.24303 0.50373 0.0
H1579 H 0.60296 0.21014 0.53974 0.0
H1580 H 0.69907 0.21349 0.55102 0.0
H1581 H 0.70225 0.25163 0.51256 0.0
C1582 C 0.65615 0.27362 0.4807 0.0
C1583 C 0.62993 0.28344 0.46619 0.0
C1584 C 0.65439 0.25276 0.50366 0.0
C1585 C 0.60183 0.27255 0.47511 0.0
C1586 C 0.59995 0.25149 0.49763 0.0
C1587 C 0.62455 0.21936 0.5338 0.0
C1588 C 0.6508 0.20895 0.54791 0.0
C1589 C 0.62611 0.24125 0.51185 0.0
C1590 C 0.67859 0.22129 0.54045 0.0
C1591 C 0.68041 0.24293 0.51838 0.0
H1592 H 0.09469 0.40362 0.75529 0.0
H1593 H 0.03245 0.38183 0.82592 0.0
H1594 H 0.99091 0.38168 0.79205 0.0
H1595 H 0.9729 0.38677 0.742 0.0
H1596 H 0.03864 0.39941 0.67103 0.0
H1597 H 0.07799 0.40376 0.7053 0.0
C1598 C 0.07217 0.39816 0.76317 0.0
C1599 C 0.0668 0.39191 0.7929 0.0
C1600 C 0.04893 0.39658 0.74345 0.0
C1601 C 0.0372 0.38626 0.80301 0.0
C1602 C 0.01352 0.38609 0.78364 0.0
C1603 C 0.99582 0.38997 0.73377 0.0
C1604 C 0.00202 0.39352 0.70352 0.0
C1605 C 0.0192 0.39089 0.75368 0.0
C1606 C 0.03225 0.39788 0.69392 0.0
C1607 C 0.05517 0.40001 0.71358 0.0
H1608 H 0.83742 0.71368 0.97573 0.0
H1609 H 0.83196 0.78397 0.91082 0.0
H1610 H 0.8301 0.82084 0.94872 0.0
H1611 H 0.83358 0.83335 0.99961 0.0
H1612 H 0.84565 0.76373 0.06431 0.0
H1613 H 0.84066 0.72643 0.02725 0.0
C1614 C 0.83611 0.73705 0.96981 0.0
C1615 C 0.83492 0.74589 0.94033 0.0
C1616 C 0.83606 0.7583 0.99171 0.0
C1617 C 0.83247 0.77635 0.93324 0.0
C1618 C 0.83161 0.79754 0.95492 0.0
C1619 C 0.83531 0.81001 0.00567 0.0
C1620 C 0.84049 0.80141 0.03466 0.0
C1621 C 0.83389 0.78876 0.98412 0.0
C1622 C 0.84154 0.77107 0.04223 0.0
C1623 C 0.83904 0.7497 0.02096 0.0
H1624 H 0.44473 0.66996 0.29845 0.0
H1625 H 0.43144 0.58333 0.26525 0.0
H1626 H 0.47748 0.58598 0.23388 0.0
H1627 H 0.52194 0.61233 0.21713 0.0
H1628 H 0.53572 0.69929 0.24953 0.0
H1629 H 0.48881 0.69745 0.27997 0.0
C1630 C 0.452 0.65187 0.28411 0.0
C1631 C 0.43522 0.62639 0.28403 0.0
C1632 C 0.47844 0.65362 0.26626 0.0
C1633 C 0.44436 0.60299 0.26553 0.0
C1634 C 0.47059 0.60452 0.24773 0.0
C1635 C 0.51477 0.6308 0.23103 0.0
C1636 C 0.53242 0.6557 0.23154 0.0
C1637 C 0.48793 0.62957 0.24818 0.0
C1638 C 0.52251 0.67985 0.24896 0.0
C1639 C 0.49578 0.67876 0.26634 0.0
H1640 H 0.8183 0.97306 0.62121 0.0
H1641 H 0.75054 0.90787 0.62355 0.0
H1642 H 0.7103 0.94741 0.62494 0.0
H1643 H 0.6947 1.00076 0.62602 0.0
H1644 H 0.76208 0.06438 0.60656 0.0
H1645 H 0.80248 0.02524 0.6102 0.0
C1646 C 0.79478 0.96741 0.62101 0.0
C1647 C 0.78751 0.9375 0.62245 0.0
C1648 C 0.77183 0.99007 0.61879 0.0
C1649 C 0.75678 0.93073 0.62295 0.0
C1650 C 0.73377 0.95329 0.6235 0.0
C1651 C 0.7182 0.00599 0.62211 0.0
C1652 C 0.72555 0.03568 0.61769 0.0
C1653 C 0.74107 0.98307 0.62151 0.0
C1654 C 0.75601 0.04193 0.61168 0.0
C1655 C 0.77906 0.01955 0.61347 0.0
H1656 H 0.06464 0.55825 0.20059 0.0
H1657 H 0.15809 0.54276 0.17159 0.0
H1658 H 0.16432 0.50187 0.20695 0.0
H1659 H 0.14351 0.47158 0.24683 0.0
H1660 H 0.04957 0.48605 0.27545 0.0
H1661 H 0.04323 0.52651 0.23985 0.0
C1662 C 0.08618 0.54562 0.20197 0.0
C1663 C 0.11084 0.5531 0.1836 0.0
C1664 C 0.08955 0.52222 0.22239 0.0
C1665 C 0.13885 0.53707 0.18558 0.0
C1666 C 0.14239 0.51382 0.20577 0.0
C1667 C 0.1215 0.48325 0.24505 0.0
C1668 C 0.09706 0.47567 0.26384 0.0
C1669 C 0.11793 0.50628 0.22436 0.0
C1670 C 0.0689 0.49159 0.26156 0.0
C1671 C 0.06519 0.51464 0.24106 0.0
H1672 H 0.77195 0.88188 0.51551 0.0
H1673 H 0.73539 0.79808 0.53977 0.0
H1674 H 0.69584 0.8065 0.50409 0.0
H1675 H 0.67358 0.83693 0.464 0.0
H1676 H 0.71087 0.92049 0.44041 0.0
H1677 H 0.74841 0.91314 0.47793 0.0
C1678 C 0.75535 0.86543 0.51288 0.0
C1679 C 0.75672 0.83921 0.52974 0.0
C1680 C 0.73292 0.87047 0.49254 0.0
C1681 C 0.73472 0.81836 0.52681 0.0
C1682 C 0.71224 0.82315 0.50643 0.0
C1683 C 0.6898 0.85352 0.46749 0.0
C1684 C 0.68983 0.87915 0.44981 0.0
C1685 C 0.71136 0.84898 0.48893 0.0
C1686 C 0.71072 0.90068 0.45407 0.0
C1687 C 0.73212 0.89642 0.47534 0.0
H1688 H 0.38852 0.48026 0.82132 0.0
H1689 H 0.35598 0.54787 0.76041 0.0
H1690 H 0.34997 0.51037 0.72476 0.0
H1691 H 0.35473 0.45831 0.70956 0.0
H1692 H 0.39667 0.39238 0.76608 0.0
H1693 H 0.39861 0.42925 0.80424 0.0
C1694 C 0.38064 0.48728 0.80021 0.0
C1695 C 0.37216 0.51751 0.79454 0.0
C1696 C 0.37882 0.46561 0.77868 0.0
C1697 C 0.36162 0.52511 0.76665 0.0
C1698 C 0.35851 0.50355 0.74573 0.0
C1699 C 0.36435 0.45205 0.73024 0.0
C1700 C 0.37481 0.42241 0.7352 0.0
C1701 C 0.36699 0.47375 0.75147 0.0
C1702 C 0.38764 0.4148 0.76196 0.0
C1703 C 0.389 0.43597 0.7837 0.0
H1704 H 0.7738 0.11847 0.93869 0.0
H1705 H 0.84332 0.13517 0.9982 0.0
H1706 H 0.80579 0.13545 0.03896 0.0
H1707 H 0.75319 0.13098 0.05763 0.0
H1708 H 0.68261 0.12124 0.99672 0.0
H1709 H 0.72047 0.11796 0.95697 0.0
C1710 C 0.78067 0.12222 0.96061 0.0
C1711 C 0.81145 0.12629 0.96544 0.0
C1712 C 0.75872 0.12355 0.9838 0.0
C1713 C 0.81993 0.1314 0.99394 0.0
C1714 C 0.79841 0.13175 0.01723 0.0
C1715 C 0.74574 0.12867 0.03571 0.0
C1716 C 0.71459 0.12599 0.0308 0.0
C1717 C 0.76766 0.12794 0.01243 0.0
C1718 C 0.70616 0.12249 0.00187 0.0
C1719 C 0.7279 0.12091 0.97882 0.0
H1720 H 0.31417 0.10098 0.50844 0.0
H1721 H 0.24554 0.08613 0.44726 0.0
H1722 H 0.20607 0.09246 0.48579 0.0
H1723 H 0.19106 0.10254 0.5371 0.0
H1724 H 0.26067 0.09741 0.60024 0.0
H1725 H 0.29979 0.09881 0.56112 0.0
C1726 C 0.29061 0.09879 0.50353 0.0
C1727 C 0.28278 0.095 0.47445 0.0
C1728 C 0.26823 0.09919 0.52635 0.0
C1729 C 0.25217 0.09113 0.46893 0.0
C1730 C 0.22957 0.09427 0.49108 0.0
C1731 C 0.21479 0.10136 0.54242 0.0
C1732 C 0.22266 0.10152 0.57183 0.0
C1733 C 0.23732 0.09858 0.51988 0.0
C1734 C 0.25368 0.09926 0.57799 0.0
C1735 C 0.27616 0.09946 0.55556 0.0
H1736 H 0.11104 0.00597 0.73872 0.0
H1737 H 0.20176 0.0319 0.75256 0.0
H1738 H 0.2061 0.99617 0.79302 0.0
H1739 H 0.18425 0.95659 0.82396 0.0
H1740 H 0.09393 0.93061 0.80929 0.0
H1741 H 0.08927 0.96707 0.7694 0.0
C1742 C 0.1319 0.00362 0.75038 0.0
C1743 C 0.15612 0.02144 0.74247 0.0
C1744 C 0.13427 0.98297 0.77342 0.0
C1745 C 0.1827 0.0186 0.75831 0.0
C1746 C 0.18526 0.99806 0.78134 0.0
C1747 C 0.16366 0.95907 0.81189 0.0
C1748 C 0.13948 0.94111 0.81917 0.0
C1749 C 0.16124 0.98004 0.78902 0.0
C1750 C 0.11274 0.94434 0.80378 0.0
C1751 C 0.11013 0.9651 0.78106 0.0
H1752 H 0.31242 0.85681 0.03611 0.0
H1753 H 0.23985 0.85416 0.10167 0.0
H1754 H 0.20287 0.85122 0.06381 0.0
H1755 H 0.19123 0.85162 0.01218 0.0
H1756 H 0.26373 0.85553 0.94662 0.0
H1757 H 0.30096 0.85537 0.98451 0.0
C1758 C 0.28845 0.85579 0.04205 0.0
C1759 C 0.27869 0.85615 0.0715 0.0
C1760 C 0.26748 0.85422 0.02026 0.0
C1761 C 0.24778 0.85398 0.07908 0.0
C1762 C 0.2267 0.85238 0.05748 0.0
C1763 C 0.21519 0.85255 0.00622 0.0
C1764 C 0.22477 0.85395 0.97673 0.0
C1765 C 0.2363 0.85285 0.02803 0.0
C1766 C 0.25588 0.85437 0.9692 0.0
C1767 C 0.2771 0.85448 0.99082 0.0
H1768 H 0.32513 0.00978 0.29328 0.0
H1769 H 0.41973 0.99845 0.31324 0.0
H1770 H 0.42817 0.96166 0.27524 0.0
H1771 H 0.40872 0.93171 0.23656 0.0
H1772 H 0.31448 0.9425 0.21623 0.0
H1773 H 0.30585 0.98042 0.25373 0.0
C1774 C 0.34762 0.99943 0.28917 0.0
C1775 C 0.37165 0.00679 0.30646 0.0
C1776 C 0.35239 0.97807 0.26713 0.0
C1777 C 0.40063 0.99291 0.30078 0.0
C1778 C 0.40556 0.97192 0.27888 0.0
C1779 C 0.38637 0.94252 0.24037 0.0
C1780 C 0.36223 0.93443 0.22381 0.0
C1781 C 0.38162 0.96415 0.26204 0.0
C1782 C 0.33333 0.94845 0.22884 0.0
C1783 C 0.32843 0.97008 0.25025 0.0
H1784 H 0.55324 0.2158 0.07003 0.0
H1785 H 0.55275 0.21075 0.16369 0.0
H1786 H 0.51179 0.24927 0.16685 0.0
H1787 H 0.47416 0.28268 0.1431 0.0
H1788 H 0.46772 0.28075 0.05005 0.0
H1789 H 0.51275 0.24645 0.04635 0.0
C1790 C 0.54414 0.22328 0.09107 0.0
C1791 C 0.55635 0.21076 0.11653 0.0
C1792 C 0.51908 0.24396 0.09278 0.0
C1793 C 0.54421 0.22043 0.14372 0.0
C1794 C 0.52055 0.24223 0.14557 0.0
C1795 C 0.48266 0.27464 0.12205 0.0
C1796 C 0.46825 0.28475 0.09681 0.0
C1797 C 0.50753 0.25386 0.12027 0.0
C1798 C 0.47904 0.27385 0.06969 0.0
C1799 C 0.50465 0.25417 0.0676 0.0
H1800 H 0.95128 0.25477 0.90967 0.0
H1801 H 0.0147 0.17829 0.91003 0.0
H1802 H 0.05692 0.21052 0.91081 0.0
H1803 H 0.07619 0.26023 0.90719 0.0
H1804 H 0.01303 0.33655 0.90161 0.0
H1805 H 0.97054 0.30457 0.9072 0.0
C1806 C 0.97432 0.2451 0.90983 0.0
C1807 C 0.97965 0.21409 0.90965 0.0
C1808 C 0.99866 0.26376 0.90924 0.0
C1809 C 0.00972 0.20204 0.91058 0.0
C1810 C 0.034 0.22046 0.91072 0.0
C1811 C 0.05315 0.2699 0.90711 0.0
C1812 C 0.04793 0.30076 0.90382 0.0
C1813 C 0.02876 0.25133 0.90939 0.0
C1814 C 0.01784 0.31292 0.90447 0.0
C1815 C 0.99346 0.29462 0.9074 0.0
H1816 H 0.06095 0.75995 0.11306 0.0
H1817 H 0.99156 0.69973 0.09569 0.0
H1818 H 0.95366 0.74107 0.09505 0.0
H1819 H 0.93941 0.7939 0.10257 0.0
H1820 H 0.00742 0.85297 0.12551 0.0
H1821 H 0.04671 0.81253 0.12098 0.0
C1822 C 0.03751 0.7557 0.10945 0.0
C1823 C 0.02928 0.72657 0.10455 0.0
C1824 C 0.01557 0.77945 0.11004 0.0
C1825 C 0.99881 0.72184 0.09914 0.0
C1826 C 0.97699 0.74547 0.09898 0.0
C1827 C 0.96295 0.79784 0.10621 0.0
C1828 C 0.97079 0.82628 0.11387 0.0
C1829 C 0.98505 0.77428 0.10474 0.0
C1830 C 0.00113 0.8313 0.11901 0.0
C1831 C 0.02346 0.80816 0.11668 0.0
H1832 H 0.49114 0.71569 0.36017 0.0
H1833 H 0.41545 0.78024 0.3689 0.0
H1834 H 0.45028 0.82018 0.3679 0.0
H1835 H 0.5023 0.83726 0.36471 0.0
H1836 H 0.57809 0.77254 0.35904 0.0
H1837 H 0.54324 0.73268 0.35863 0.0
C1838 C 0.48215 0.73843 0.36221 0.0
C1839 C 0.45041 0.74461 0.36447 0.0
C1840 C 0.50244 0.76154 0.36205 0.0
C1841 C 0.43956 0.7745 0.36658 0.0
C1842 C 0.45955 0.79751 0.36623 0.0
C1843 C 0.51134 0.81446 0.36373 0.0
C1844 C 0.54309 0.80829 0.36178 0.0
C1845 C 0.49106 0.79134 0.36399 0.0
C1846 C 0.55396 0.77837 0.36 0.0
C1847 C 0.53396 0.75538 0.36001 0.0
H1848 H 0.04449 0.74646 0.63166 0.0
H1849 H 0.00881 0.65962 0.63226 0.0
H1850 H 0.95713 0.68197 0.63247 0.0
H1851 H 0.92315 0.72663 0.6256 0.0
H1852 H 0.95833 0.81298 0.63415 0.0
H1853 H 0.00956 0.79032 0.63835 0.0
C1854 C 0.02556 0.73229 0.63387 0.0
C1855 C 0.03058 0.70135 0.6327 0.0
C1856 C 0.99588 0.74525 0.63517 0.0
C1857 C 0.00548 0.68351 0.63337 0.0
C1858 C 0.97594 0.69627 0.6334 0.0
C1859 C 0.94168 0.74039 0.62999 0.0
C1860 C 0.937 0.7714 0.62958 0.0
C1861 C 0.97091 0.72718 0.63346 0.0
C1862 C 0.96154 0.78901 0.63421 0.0
C1863 C 0.99081 0.7761 0.6365 0.0
H1864 H 0.05664 0.28069 0.33561 0.0
H1865 H 0.99612 0.35828 0.32568 0.0
H1866 H 0.95266 0.32684 0.32661 0.0
H1867 H 0.93199 0.2773 0.33475 0.0
H1868 H 0.99349 0.19964 0.33073 0.0
H1869 H 0.03681 0.23115 0.33002 0.0
C1870 C 0.03415 0.29084 0.33246 0.0
C1871 C 0.02976 0.32206 0.33112 0.0
C1872 C 0.0095 0.27254 0.33071 0.0
C1873 C 1.00018 0.33444 0.3274 0.0
C1874 C 0.97531 0.31645 0.32785 0.0
C1875 C 0.95479 0.26716 0.33248 0.0
C1876 C 0.95936 0.23594 0.33327 0.0
C1877 C 0.97966 0.28545 0.33008 0.0
C1878 C 0.98927 0.22351 0.33063 0.0
C1879 C 0.01406 0.24153 0.33028 0.0
H1880 H 0.43773 0.69606 0.89304 0.0
H1881 H 0.51082 0.63241 0.86997 0.0
H1882 H 0.5478 0.67004 0.87591 0.0
H1883 H 0.55868 0.72143 0.88529 0.0
H1884 H 0.48408 0.78684 0.89876 0.0
H1885 H 0.4484 0.74797 0.89946 0.0
C1886 C 0.46182 0.69048 0.88947 0.0
C1887 C 0.47175 0.66148 0.88179 0.0
C1888 C 0.48258 0.71254 0.89113 0.0
C1889 C 0.50284 0.65439 0.87685 0.0
C1890 C 0.52388 0.67598 0.87986 0.0
C1891 C 0.53465 0.72751 0.88785 0.0
C1892 C 0.52444 0.75736 0.89203 0.0
C1893 C 0.51392 0.70525 0.88656 0.0
C1894 C 0.49303 0.7642 0.89619 0.0
C1895 C 0.47241 0.74197 0.89626 0.0
H1896 H 0.5947 0.90216 0.77185 0.0
H1897 H 0.62574 0.95031 0.84378 0.0
H1898 H 0.63218 0.99394 0.81226 0.0
H1899 H 0.62787 0.01843 0.7646 0.0
H1900 H 0.60414 0.96746 0.69106 0.0
H1901 H 0.5959 0.92504 0.72289 0.0
C1902 C 0.6036 0.92198 0.78037 0.0
C1903 C 0.61014 0.923 0.80989 0.0
C1904 C 0.60819 0.94659 0.76194 0.0
C1905 C 0.62067 0.9491 0.82101 0.0
C1906 C 0.62436 0.97398 0.80302 0.0
C1907 C 0.62152 0.998 0.7552 0.0
C1908 C 0.61619 0.99679 0.72524 0.0
C1909 C 0.61813 0.973 0.77342 0.0
C1910 C 0.60744 0.96984 0.71403 0.0
C1911 C 0.60303 0.94525 0.73221 0.0
H1912 H 0.19159 0.35332 0.98399 0.0
H1913 H 0.24853 0.38498 0.91315 0.0
H1914 H 0.29131 0.38582 0.94504 0.0
H1915 H 0.3129 0.37683 0.99301 0.0
H1916 H 0.25532 0.34728 0.06461 0.0
H1917 H 0.21277 0.34625 0.03268 0.0
C1918 C 0.21342 0.36034 0.97568 0.0
C1919 C 0.21703 0.36877 0.94628 0.0
C1920 C 0.23789 0.36112 0.99429 0.0
C1921 C 0.24531 0.37812 0.93568 0.0
C1922 C 0.26976 0.37868 0.95392 0.0
C1923 C 0.29099 0.37048 0.00174 0.0
C1924 C 0.28761 0.36182 0.03119 0.0
C1925 C 0.26637 0.37019 0.98328 0.0
C1926 C 0.25894 0.35343 0.04193 0.0
C1927 C 0.23443 0.353 0.02371 0.0
H1928 H 0.93297 0.08329 0.25787 0.0
H1929 H 0.85775 0.05308 0.31079 0.0
H1930 H 0.85669 0.0086 0.28128 0.0
H1931 H 0.87511 0.98027 0.23872 0.0
H1932 H 0.95087 0.00986 0.18578 0.0
H1933 H 0.95389 0.05272 0.21698 0.0
C1934 C 0.91668 0.06667 0.26295 0.0
C1935 C 0.89551 0.07102 0.28622 0.0
C1936 C 0.91623 0.04129 0.24589 0.0
C1937 C 0.87428 0.04976 0.29289 0.0
C1938 C 0.87365 0.02449 0.27605 0.0
C1939 C 0.89272 0.99571 0.23434 0.0
C1940 C 0.91266 0.99194 0.20991 0.0
C1941 C 0.89428 0.02023 0.25229 0.0
C1942 C 0.93498 0.0125 0.20425 0.0
C1943 C 0.93678 0.03695 0.2221 0.0
H1944 H 0.21303 0.62371 0.51452 0.0
H1945 H 0.21917 0.71373 0.54229 0.0
H1946 H 0.25561 0.72285 0.50188 0.0
H1947 H 0.28778 0.70406 0.45993 0.0
H1948 H 0.28124 0.61392 0.43297 0.0
H1949 H 0.24293 0.60579 0.47185 0.0
C1950 C 0.22246 0.6453 0.51178 0.0
C1951 C 0.21379 0.66791 0.5315 0.0
C1952 C 0.24327 0.65027 0.48866 0.0
C1953 C 0.22556 0.69599 0.52734 0.0
C1954 C 0.24644 0.70116 0.50434 0.0
C1955 C 0.27754 0.68286 0.46253 0.0
C1956 C 0.28693 0.65958 0.44386 0.0
C1957 C 0.25569 0.67836 0.48503 0.0
C1958 C 0.27401 0.63204 0.44724 0.0
C1959 C 0.25228 0.62741 0.46943 0.0
H1960 H 0.71853 0.66329 0.01605 0.0
H1961 H 0.68426 0.57641 0.00806 0.0
H1962 H 0.70807 0.57204 0.95932 0.0
H1963 H 0.74002 0.59234 0.91945 0.0
H1964 H 0.77526 0.67855 0.92771 0.0
H1965 H 0.74945 0.68411 0.97571 0.0
C1966 C 0.71653 0.64333 0.00369 0.0
C1967 C 0.69986 0.62013 0.01565 0.0
C1968 C 0.7302 0.64102 0.97567 0.0
C1969 C 0.69691 0.5946 0.99923 0.0
C1970 C 0.71052 0.59207 0.9714 0.0
C1971 C 0.74162 0.6124 0.93178 0.0
C1972 C 0.75925 0.63505 0.92044 0.0
C1973 C 0.72725 0.6151 0.95944 0.0
C1974 C 0.76152 0.661 0.93626 0.0
C1975 C 0.747 0.66405 0.96367 0.0
H1976 H 0.68433 0.45817 0.23896 0.0
H1977 H 0.60286 0.49278 0.28484 0.0
H1978 H 0.59482 0.52995 0.24671 0.0
H1979 H 0.61219 0.55462 0.20183 0.0
H1980 H 0.69177 0.51946 0.15412 0.0
H1981 H 0.69877 0.47988 0.19102 0.0
C1982 C 0.66456 0.47351 0.24049 0.0
C1983 C 0.6447 0.47294 0.26531 0.0
C1984 C 0.65958 0.49463 0.21802 0.0
C1985 C 0.61922 0.4932 0.26667 0.0
C1986 C 0.61434 0.51434 0.24466 0.0
C1987 C 0.63068 0.53789 0.19923 0.0
C1988 C 0.65146 0.53979 0.17541 0.0
C1989 C 0.63457 0.51553 0.2205 0.0
C1990 C 0.67546 0.51819 0.17229 0.0
C1991 C 0.67955 0.49579 0.19347 0.0
H1992 H 0.76991 0.37419 0.53136 0.0
H1993 H 0.84458 0.40476 0.47729 0.0
H1994 H 0.81318 0.40644 0.43524 0.0
H1995 H 0.76369 0.40172 0.41379 0.0
H1996 H 0.69073 0.36582 0.46574 0.0
H1997 H 0.7222 0.36366 0.50845 0.0
C1998 C 0.77958 0.38078 0.51037 0.0
C1999 C 0.8095 0.39024 0.50806 0.0
C2000 C 0.76159 0.38085 0.48574 0.0
C2001 C 0.82133 0.39858 0.48035 0.0
C2002 C 0.80346 0.39926 0.45602 0.0
C2003 C 0.75499 0.39273 0.43429 0.0
C2004 C 0.72509 0.38366 0.43659 0.0
C2005 C 0.77344 0.39089 0.45851 0.0
C2006 C 0.71378 0.37283 0.4635 0.0
C2007 C 0.73175 0.37161 0.48788 0.0
H2008 H 0.88418 0.5443 0.75002 0.0
H2009 H 0.7877 0.55734 0.73885 0.0
H2010 H 0.79152 0.52351 0.69797 0.0
H2011 H 0.82213 0.48915 0.66611 0.0
H2012 H 0.9175 0.47291 0.68009 0.0
H2013 H 0.91442 0.50925 0.71913 0.0
C2014 C 0.86389 0.53943 0.73896 0.0
C2015 C 0.8357 0.55328 0.74758 0.0
C2016 C 0.86611 0.51952 0.7159 0.0
C2017 C 0.80976 0.54725 0.73248 0.0
C2018 C 0.81188 0.52781 0.70918 0.0
C2019 C 0.8421 0.49362 0.67789 0.0
C2020 C 0.86988 0.47842 0.67073 0.0
C2021 C 0.8399 0.51375 0.70079 0.0
C2022 C 0.89588 0.48447 0.68555 0.0
C2023 C 0.89408 0.50506 0.70785 0.0
H2024 H 0.55381 0.19164 0.62009 0.0
H2025 H 0.52966 0.15495 0.70433 0.0
H2026 H 0.48971 0.19448 0.71157 0.0
H2027 H 0.46279 0.24003 0.69426 0.0
H2028 H 0.48499 0.27488 0.60842 0.0
H2029 H 0.52504 0.23598 0.60175 0.0
C2030 C 0.53957 0.19235 0.63989 0.0
C2031 C 0.54453 0.17082 0.66178 0.0
C2032 C 0.51666 0.21496 0.64375 0.0
C2033 C 0.52611 0.17158 0.68736 0.0
C2034 C 0.50342 0.19414 0.69147 0.0
C2035 C 0.47608 0.239 0.67393 0.0
C2036 C 0.47085 0.26068 0.65202 0.0
C2037 C 0.49861 0.21606 0.66986 0.0
C2038 C 0.48882 0.25905 0.62602 0.0
C2039 C 0.51158 0.23657 0.622 0.0
loop_
_geom_bond_atom_site_label_1
_geom_bond_atom_site_label_2
_geom_bond_distance
_geom_bond_site_symmetry_2
_ccdc_geom_bond_type
C0 C1 1.443 . S
C0 N4 1.376 . S
C0 C38 1.389 . S
C1 C0 1.443 . S
C1 C2 1.340 . S
C1 H41 0.951 1_455 S
C2 C1 1.340 . S
C2 C3 1.439 . S
C2 H42 0.962 . S
C3 C2 1.439 . S
C3 N4 1.374 . S
C3 C37 1.395 . S
N4 C0 1.376 . S
N4 C3 1.374 . S
N4 Co5 2.008 . S
Co5 N4 2.008 . S
Co5 N6 1.995 . S
Co5 N11 2.008 . S
Co5 N16 1.995 . S
Co5 N21 2.282 . S
Co5 N27 2.282 . S
N6 Co5 1.995 . S
N6 C7 1.376 . S
N6 C10 1.383 . S
C7 N6 1.376 . S
C7 C8 1.446 . S
C7 C37 1.391 . S
C8 C7 1.446 . S
C8 C9 1.339 . S
C8 H43 0.949 . S
C9 C8 1.339 . S
C9 C10 1.439 . S
C9 H44 0.950 . S
C10 N6 1.383 . S
C10 C9 1.439 . S
C10 C39 1.392 . S
N11 Co5 2.008 . S
N11 C12 1.376 . S
N11 C15 1.374 . S
C12 N11 1.376 . S
C12 C13 1.443 . S
C12 C39 1.389 . S
C13 C12 1.443 . S
C13 C14 1.340 . S
C13 H45 0.951 . S
C14 C13 1.340 . S
C14 C15 1.439 . S
C14 H46 0.950 . S
C15 N11 1.374 . S
C15 C14 1.439 . S
C15 C40 1.395 . S
N16 Co5 1.995 . S
N16 C17 1.376 . S
N16 C20 1.383 . S
C17 N16 1.376 . S
C17 C18 1.446 . S
C17 C40 1.391 . S
C18 C17 1.446 . S
C18 C19 1.339 . S
C18 H47 0.949 . S
C19 C18 1.339 . S
C19 C20 1.439 . S
C19 H48 0.950 . S
C20 N16 1.383 . S
C20 C19 1.439 . S
C20 C38 1.392 . S
N21 Co5 2.282 . S
N21 C24 1.332 . S
N21 C26 1.332 . S
C22 C23 1.386 . S
C22 C25 1.388 . S
C23 C22 1.386 . S
C23 C24 1.382 . S
C23 H49 0.950 . S
C24 N21 1.332 . S
C24 C23 1.382 . S
C24 H35 0.952 . S
C25 C22 1.388 . S
C25 C26 1.382 . S
C25 H50 0.950 . S
C26 N21 1.332 . S
C26 C25 1.382 . S
C26 H36 0.948 . S
N27 Co5 2.282 . S
N27 C31 1.332 . S
N27 C32 1.332 . S
C28 C29 1.388 . S
C28 C32 1.382 . S
C28 H51 0.950 . S
C29 C28 1.388 . S
C29 C30 1.386 . S
C30 C29 1.386 . S
C30 C31 1.382 . S
C30 H52 0.950 . S
C31 N27 1.332 . S
C31 C30 1.382 . S
C31 H33 0.952 . S
C32 N27 1.332 . S
C32 C28 1.382 . S
C32 H34 0.948 . S
H33 C31 0.952 . S
H34 C32 0.948 . S
H35 C24 0.952 . S
H36 C26 0.948 . S
C37 C3 1.395 . S
C37 C7 1.391 . S
C38 C0 1.389 . S
C38 C20 1.392 . S
C39 C10 1.392 . S
C39 C12 1.389 . S
C40 C15 1.395 . S
C40 C17 1.391 . S
H41 C1 0.951 1_655 S
H42 C2 0.962 . S
H43 C8 0.949 . S
H44 C9 0.950 . S
H45 C13 0.951 . S
H46 C14 0.950 . S
H47 C18 0.949 . S
H48 C19 0.950 . S
H49 C23 0.950 . S
H50 C25 0.950 . S
H51 C28 0.950 . S
H52 C30 0.950 . S
C53 C54 1.443 . S
C53 N57 1.376 . S
C53 C91 1.389 . S
C54 C53 1.443 . S
C54 C55 1.340 . S
C54 H94 0.951 . S
C55 C54 1.340 . S
C55 C56 1.439 . S
C55 H95 0.950 . S
C56 C55 1.439 . S
C56 N57 1.374 . S
C56 C90 1.395 . S
N57 C53 1.376 . S
N57 C56 1.374 . S
N57 Co58 2.008 . S
Co58 N57 2.008 . S
Co58 N59 1.995 . S
Co58 N64 2.008 . S
Co58 N69 1.995 . S
Co58 N74 2.282 . S
Co58 N80 2.282 . S
N59 Co58 1.995 . S
N59 C60 1.376 . S
N59 C63 1.383 . S
C60 N59 1.376 . S
C60 C61 1.446 . S
C60 C90 1.391 . S
C61 C60 1.446 . S
C61 C62 1.339 . S
C61 H96 0.949 . S
C62 C61 1.339 . S
C62 C63 1.439 . S
C62 H97 0.950 . S
C63 N59 1.383 . S
C63 C62 1.439 . S
C63 C92 1.392 . S
N64 Co58 2.008 . S
N64 C65 1.376 . S
N64 C68 1.374 . S
C65 N64 1.376 . S
C65 C66 1.443 . S
C65 C92 1.389 . S
C66 C65 1.443 . S
C66 C67 1.340 . S
C66 H98 0.951 . S
C67 C66 1.340 . S
C67 C68 1.439 . S
C67 H99 0.950 . S
C68 N64 1.374 . S
C68 C67 1.439 . S
C68 C93 1.395 . S
N69 Co58 1.995 . S
N69 C70 1.376 . S
N69 C73 1.383 . S
C70 N69 1.376 . S
C70 C71 1.446 . S
C70 C93 1.391 . S
C71 C70 1.446 . S
C71 C72 1.339 . S
C71 H100 0.949 . S
C72 C71 1.339 . S
C72 C73 1.439 . S
C72 H101 0.950 . S
C73 N69 1.383 . S
C73 C72 1.439 . S
C73 C91 1.392 . S
N74 Co58 2.282 . S
N74 C77 1.332 . S
N74 C79 1.332 . S
C75 C76 1.386 . S
C75 C78 1.388 . S
C76 C75 1.386 . S
C76 C77 1.382 . S
C76 H102 0.950 . S
C77 N74 1.332 . S
C77 C76 1.382 . S
C77 H88 0.952 . S
C78 C75 1.388 . S
C78 C79 1.382 . S
C78 H103 0.950 . S
C79 N74 1.332 . S
C79 C78 1.382 . S
C79 H89 0.948 . S
N80 Co58 2.282 . S
N80 C84 1.332 . S
N80 C85 1.332 . S
C81 C82 1.388 . S
C81 C85 1.382 . S
C81 H104 0.950 . S
C82 C81 1.388 . S
C82 C83 1.386 . S
C83 C82 1.386 . S
C83 C84 1.382 . S
C83 H105 0.950 . S
C84 N80 1.332 . S
C84 C83 1.382 . S
C84 H86 0.952 . S
C85 N80 1.332 . S
C85 C81 1.382 . S
C85 H87 0.948 . S
H86 C84 0.952 . S
H87 C85 0.948 . S
H88 C77 0.952 . S
H89 C79 0.948 . S
C90 C56 1.395 . S
C90 C60 1.391 . S
C91 C53 1.389 . S
C91 C73 1.392 . S
C92 C63 1.392 . S
C92 C65 1.389 . S
C93 C68 1.395 . S
C93 C70 1.391 . S
H94 C54 0.951 . S
H95 C55 0.950 . S
H96 C61 0.949 . S
H97 C62 0.950 . S
H98 C66 0.951 . S
H99 C67 0.950 . S
H100 C71 0.949 . S
H101 C72 0.950 . S
H102 C76 0.950 . S
H103 C78 0.950 . S
H104 C81 0.950 . S
H105 C83 0.950 . S
C106 C107 1.443 . S
C106 N110 1.376 . S
C106 C144 1.389 . S
C107 C106 1.443 . S
C107 C108 1.340 . S
C107 H147 0.951 . S
C108 C107 1.340 . S
C108 C109 1.439 . S
C108 H148 0.950 . S
C109 C108 1.439 . S
C109 N110 1.374 . S
C109 C143 1.395 . S
N110 C106 1.376 . S
N110 C109 1.374 . S
N110 Co111 2.008 . S
Co111 N110 2.008 . S
Co111 N112 1.995 . S
Co111 N117 2.008 . S
Co111 N122 1.995 . S
Co111 N127 2.282 . S
Co111 N133 2.282 . S
N112 Co111 1.995 . S
N112 C113 1.376 . S
N112 C116 1.383 . S
C113 N112 1.376 . S
C113 C114 1.446 . S
C113 C143 1.391 . S
C114 C113 1.446 . S
C114 C115 1.339 . S
C114 H149 0.949 . S
C115 C114 1.339 . S
C115 C116 1.439 . S
C115 H150 0.950 . S
C116 N112 1.383 . S
C116 C115 1.439 . S
C116 C145 1.392 . S
N117 Co111 2.008 . S
N117 C118 1.376 . S
N117 C121 1.374 . S
C118 N117 1.376 . S
C118 C119 1.443 . S
C118 C145 1.389 . S
C119 C118 1.443 . S
C119 C120 1.340 . S
C119 H151 0.951 . S
C120 C119 1.340 . S
C120 C121 1.439 . S
C120 H152 0.950 . S
C121 N117 1.374 . S
C121 C120 1.439 . S
C121 C146 1.395 . S
N122 Co111 1.995 . S
N122 C123 1.376 . S
N122 C126 1.383 . S
C123 N122 1.376 . S
C123 C124 1.446 . S
C123 C146 1.391 . S
C124 C123 1.446 . S
C124 C125 1.339 . S
C124 H153 0.949 . S
C125 C124 1.339 . S
C125 C126 1.439 . S
C125 H154 0.950 . S
C126 N122 1.383 . S
C126 C125 1.439 . S
C126 C144 1.392 . S
N127 Co111 2.282 . S
N127 C130 1.332 . S
N127 C132 1.332 . S
C128 C129 1.386 . S
C128 C131 1.388 . S
C129 C128 1.386 . S
C129 C130 1.382 . S
C129 H155 0.950 . S
C130 N127 1.332 . S
C130 C129 1.382 . S
C130 H141 0.952 . S
C131 C128 1.388 . S
C131 C132 1.382 . S
C131 H156 0.950 . S
C132 N127 1.332 . S
C132 C131 1.382 . S
C132 H142 0.948 . S
N133 Co111 2.282 . S
N133 C137 1.332 . S
N133 C138 1.332 . S
C134 C135 1.388 . S
C134 C138 1.382 . S
C134 H157 0.950 . S
C135 C134 1.388 . S
C135 C136 1.386 . S
C136 C135 1.386 . S
C136 C137 1.382 . S
C136 H158 0.940 1_556 S
C137 N133 1.332 . S
C137 C136 1.382 . S
C137 H139 0.952 . S
C138 N133 1.332 . S
C138 C134 1.382 . S
C138 H140 0.948 . S
H139 C137 0.952 . S
H140 C138 0.948 . S
H141 C130 0.952 . S
H142 C132 0.948 . S
C143 C109 1.395 . S
C143 C113 1.391 . S
C144 C106 1.389 . S
C144 C126 1.392 . S
C145 C116 1.392 . S
C145 C118 1.389 . S
C146 C121 1.395 . S
C146 C123 1.391 . S
H147 C107 0.951 . S
H148 C108 0.950 . S
H149 C114 0.949 . S
H150 C115 0.950 . S
H151 C119 0.951 . S
H152 C120 0.950 . S
H153 C124 0.949 . S
H154 C125 0.950 . S
H155 C129 0.950 . S
H156 C131 0.950 . S
H157 C134 0.950 . S
H158 C136 0.940 1_554 S
C159 C160 1.443 . S
C159 N163 1.376 . S
C159 C197 1.389 . S
C160 C159 1.443 . S
C160 C161 1.340 . S
C160 H200 0.951 . S
C161 C160 1.340 . S
C161 C162 1.439 . S
C161 H201 0.950 . S
C162 C161 1.439 . S
C162 N163 1.374 . S
C162 C196 1.395 . S
N163 C159 1.376 . S
N163 C162 1.374 . S
N163 Co164 2.008 . S
Co164 N163 2.008 . S
Co164 N165 1.995 . S
Co164 N170 2.008 . S
Co164 N175 1.995 . S
Co164 N180 2.282 . S
Co164 N186 2.282 . S
N165 Co164 1.995 . S
N165 C166 1.376 . S
N165 C169 1.383 . S
C166 N165 1.376 . S
C166 C167 1.446 . S
C166 C196 1.391 . S
C167 C166 1.446 . S
C167 C168 1.339 . S
C167 H202 0.949 . S
C168 C167 1.339 . S
C168 C169 1.439 . S
C168 H203 0.950 . S
C169 N165 1.383 . S
C169 C168 1.439 . S
C169 C198 1.392 . S
N170 Co164 2.008 . S
N170 C171 1.376 . S
N170 C174 1.374 . S
C171 N170 1.376 . S
C171 C172 1.443 . S
C171 C198 1.389 . S
C172 C171 1.443 . S
C172 C173 1.340 . S
C172 H204 0.951 . S
C173 C172 1.340 . S
C173 C174 1.439 . S
C173 H205 0.950 . S
C174 N170 1.374 . S
C174 C173 1.439 . S
C174 C199 1.395 . S
N175 Co164 1.995 . S
N175 C176 1.376 . S
N175 C179 1.383 . S
C176 N175 1.376 . S
C176 C177 1.446 . S
C176 C199 1.391 . S
C177 C176 1.446 . S
C177 C178 1.339 . S
C177 H206 0.949 . S
C178 C177 1.339 . S
C178 C179 1.439 . S
C178 H207 0.950 . S
C179 N175 1.383 . S
C179 C178 1.439 . S
C179 C197 1.392 . S
N180 Co164 2.282 . S
N180 C183 1.332 . S
N180 C185 1.332 . S
C181 C182 1.386 . S
C181 C184 1.388 . S
C182 C181 1.386 . S
C182 C183 1.382 . S
C182 H208 0.950 . S
C183 N180 1.332 . S
C183 C182 1.382 . S
C183 H194 0.952 . S
C184 C181 1.388 . S
C184 C185 1.382 . S
C184 H209 0.950 . S
C185 N180 1.332 . S
C185 C184 1.382 . S
C185 H195 0.948 . S
N186 Co164 2.282 . S
N186 C190 1.332 . S
N186 C191 1.332 . S
C187 C188 1.388 . S
C187 C191 1.382 . S
C187 H210 0.950 . S
C188 C187 1.388 . S
C188 C189 1.386 . S
C189 C188 1.386 . S
C189 C190 1.382 . S
C189 H211 0.950 . S
C190 N186 1.332 . S
C190 C189 1.382 . S
C190 H192 0.952 . S
C191 N186 1.332 . S
C191 C187 1.382 . S
C191 H193 0.948 . S
H192 C190 0.952 . S
H193 C191 0.948 . S
H194 C183 0.952 . S
H195 C185 0.948 . S
C196 C162 1.395 . S
C196 C166 1.391 . S
C197 C159 1.389 . S
C197 C179 1.392 . S
C198 C169 1.392 . S
C198 C171 1.389 . S
C199 C174 1.395 . S
C199 C176 1.391 . S
H200 C160 0.951 . S
H201 C161 0.950 . S
H202 C167 0.949 . S
H203 C168 0.950 . S
H204 C172 0.951 . S
H205 C173 0.950 . S
H206 C177 0.949 . S
H207 C178 0.950 . S
H208 C182 0.950 . S
H209 C184 0.950 . S
H210 C187 0.950 . S
H211 C189 0.950 . S
C212 C213 1.443 . S
C212 N216 1.376 . S
C212 C250 1.389 . S
C213 C212 1.443 . S
C213 C214 1.340 . S
C213 H253 0.951 . S
C214 C213 1.340 . S
C214 C215 1.439 . S
C214 H254 0.950 . S
C215 C214 1.439 . S
C215 N216 1.374 . S
C215 C249 1.395 . S
N216 C212 1.376 . S
N216 C215 1.374 . S
N216 Co217 2.008 . S
Co217 N216 2.008 . S
Co217 N218 1.995 . S
Co217 N223 2.008 . S
Co217 N228 1.995 . S
Co217 N233 2.282 . S
Co217 N239 2.282 . S
N218 Co217 1.995 . S
N218 C219 1.376 . S
N218 C222 1.383 . S
C219 N218 1.376 . S
C219 C220 1.446 . S
C219 C249 1.391 . S
C220 C219 1.446 . S
C220 C221 1.339 . S
C220 H255 0.949 . S
C221 C220 1.339 . S
C221 C222 1.439 . S
C221 H256 0.950 . S
C222 N218 1.383 . S
C222 C221 1.439 . S
C222 C251 1.392 . S
N223 Co217 2.008 . S
N223 C224 1.376 . S
N223 C227 1.374 . S
C224 N223 1.376 . S
C224 C225 1.443 . S
C224 C251 1.389 . S
C225 C224 1.443 . S
C225 C226 1.340 . S
C225 H257 0.951 . S
C226 C225 1.340 . S
C226 C227 1.439 . S
C226 H258 0.950 . S
C227 N223 1.374 . S
C227 C226 1.439 . S
C227 C252 1.395 . S
N228 Co217 1.995 . S
N228 C229 1.376 . S
N228 C232 1.383 . S
C229 N228 1.376 . S
C229 C230 1.446 . S
C229 C252 1.391 . S
C230 C229 1.446 . S
C230 C231 1.339 . S
C230 H259 0.949 . S
C231 C230 1.339 . S
C231 C232 1.439 . S
C231 H260 0.950 . S
C232 N228 1.383 . S
C232 C231 1.439 . S
C232 C250 1.392 . S
N233 Co217 2.282 . S
N233 C236 1.332 . S
N233 C238 1.332 . S
C234 C235 1.386 . S
C234 C237 1.388 . S
C235 C234 1.386 . S
C235 C236 1.382 . S
C235 H261 0.950 . S
C236 N233 1.332 . S
C236 C235 1.382 . S
C236 H247 0.952 . S
C237 C234 1.388 . S
C237 C238 1.382 . S
C237 H262 0.950 . S
C238 N233 1.332 . S
C238 C237 1.382 . S
C238 H248 0.948 . S
N239 Co217 2.282 . S
N239 C243 1.332 . S
N239 C244 1.332 . S
C240 C241 1.388 . S
C240 C244 1.382 . S
C240 H263 0.950 . S
C241 C240 1.388 . S
C241 C242 1.386 . S
C242 C241 1.386 . S
C242 C243 1.382 . S
C242 H264 0.950 . S
C243 N239 1.332 . S
C243 C242 1.382 . S
C243 H245 0.952 . S
C244 N239 1.332 . S
C244 C240 1.382 . S
C244 H246 0.948 . S
H245 C243 0.952 . S
H246 C244 0.948 . S
H247 C236 0.952 . S
H248 C238 0.948 . S
C249 C215 1.395 . S
C249 C219 1.391 . S
C250 C212 1.389 . S
C250 C232 1.392 . S
C251 C222 1.392 . S
C251 C224 1.389 . S
C252 C227 1.395 . S
C252 C229 1.391 . S
H253 C213 0.951 . S
H254 C214 0.950 . S
H255 C220 0.949 . S
H256 C221 0.950 . S
H257 C225 0.951 . S
H258 C226 0.950 . S
H259 C230 0.949 . S
H260 C231 0.950 . S
H261 C235 0.950 . S
H262 C237 0.950 . S
H263 C240 0.950 . S
H264 C242 0.950 . S
C265 C266 1.443 . S
C265 N269 1.376 . S
C265 C303 1.389 . S
C266 C265 1.443 . S
C266 C267 1.340 . S
C266 H306 0.951 . S
C267 C266 1.340 . S
C267 C268 1.439 . S
C267 H307 0.950 . S
C268 C267 1.439 . S
C268 N269 1.374 . S
C268 C302 1.395 . S
N269 C265 1.376 . S
N269 C268 1.374 . S
N269 Co270 2.008 . S
Co270 N269 2.008 . S
Co270 N271 1.995 . S
Co270 N276 2.008 . S
Co270 N281 1.995 . S
Co270 N286 2.282 . S
Co270 N292 2.282 . S
N271 Co270 1.995 . S
N271 C272 1.376 . S
N271 C275 1.383 . S
C272 N271 1.376 . S
C272 C273 1.446 . S
C272 C302 1.391 . S
C273 C272 1.446 . S
C273 C274 1.339 . S
C273 H308 0.949 . S
C274 C273 1.339 . S
C274 C275 1.439 . S
C274 H309 0.950 . S
C275 N271 1.383 . S
C275 C274 1.439 . S
C275 C304 1.392 . S
N276 Co270 2.008 . S
N276 C277 1.376 . S
N276 C280 1.374 . S
C277 N276 1.376 . S
C277 C278 1.443 . S
C277 C304 1.389 . S
C278 C277 1.443 . S
C278 C279 1.340 . S
C278 H310 0.951 . S
C279 C278 1.340 . S
C279 C280 1.439 . S
C279 H311 0.950 . S
C280 N276 1.374 . S
C280 C279 1.439 . S
C280 C305 1.395 . S
N281 Co270 1.995 . S
N281 C282 1.376 . S
N281 C285 1.383 . S
C282 N281 1.376 . S
C282 C283 1.446 . S
C282 C305 1.391 . S
C283 C282 1.446 . S
C283 C284 1.339 . S
C283 H312 0.949 . S
C284 C283 1.339 . S
C284 C285 1.439 . S
C284 H313 0.950 . S
C285 N281 1.383 . S
C285 C284 1.439 . S
C285 C303 1.392 . S
N286 Co270 2.282 . S
N286 C289 1.332 . S
N286 C291 1.332 . S
C287 C288 1.386 . S
C287 C290 1.388 . S
C288 C287 1.386 . S
C288 C289 1.382 . S
C288 H314 0.950 . S
C289 N286 1.332 . S
C289 C288 1.382 . S
C289 H300 0.952 . S
C290 C287 1.388 . S
C290 C291 1.382 . S
C290 H315 0.950 . S
C291 N286 1.332 . S
C291 C290 1.382 . S
C291 H301 0.948 . S
N292 Co270 2.282 . S
N292 C296 1.332 . S
N292 C297 1.332 . S
C293 C294 1.388 . S
C293 C297 1.382 . S
C293 H316 0.950 . S
C294 C293 1.388 . S
C294 C295 1.386 . S
C295 C294 1.386 . S
C295 C296 1.382 . S
C295 H317 0.927 1_565 S
C296 N292 1.332 . S
C296 C295 1.382 . S
C296 H298 0.952 . S
C297 N292 1.332 . S
C297 C293 1.382 . S
C297 H299 0.948 . S
H298 C296 0.952 . S
H299 C297 0.948 . S
H300 C289 0.952 . S
H301 C291 0.948 . S
C302 C268 1.395 . S
C302 C272 1.391 . S
C303 C265 1.389 . S
C303 C285 1.392 . S
C304 C275 1.392 . S
C304 C277 1.389 . S
C305 C280 1.395 . S
C305 C282 1.391 . S
H306 C266 0.951 . S
H307 C267 0.950 . S
H308 C273 0.949 . S
H309 C274 0.950 . S
H310 C278 0.951 . S
H311 C279 0.950 . S
H312 C283 0.949 . S
H313 C284 0.950 . S
H314 C288 0.950 . S
H315 C290 0.950 . S
H316 C293 0.950 . S
H317 C295 0.927 1_545 S
C318 C319 1.443 . S
C318 N322 1.376 . S
C318 C356 1.389 . S
C319 C318 1.443 . S
C319 C320 1.340 . S
C319 H359 0.951 . S
C320 C319 1.340 . S
C320 C321 1.439 . S
C320 H360 0.950 . S
C321 C320 1.439 . S
C321 N322 1.374 . S
C321 C355 1.395 . S
N322 C318 1.376 . S
N322 C321 1.374 . S
N322 Co323 2.008 . S
Co323 N322 2.008 . S
Co323 N324 1.995 . S
Co323 N329 2.008 . S
Co323 N334 1.995 . S
Co323 N339 2.282 . S
Co323 N345 2.282 . S
N324 Co323 1.995 . S
N324 C325 1.376 . S
N324 C328 1.383 . S
C325 N324 1.376 . S
C325 C326 1.446 . S
C325 C355 1.391 . S
C326 C325 1.446 . S
C326 C327 1.339 . S
C326 H361 0.949 . S
C327 C326 1.339 . S
C327 C328 1.439 . S
C327 H362 0.950 . S
C328 N324 1.383 . S
C328 C327 1.439 . S
C328 C357 1.392 . S
N329 Co323 2.008 . S
N329 C330 1.376 . S
N329 C333 1.374 . S
C330 N329 1.376 . S
C330 C331 1.443 . S
C330 C357 1.389 . S
C331 C330 1.443 . S
C331 C332 1.340 . S
C331 H363 0.951 . S
C332 C331 1.340 . S
C332 C333 1.439 . S
C332 H364 0.950 . S
C333 N329 1.374 . S
C333 C332 1.439 . S
C333 C358 1.395 . S
N334 Co323 1.995 . S
N334 C335 1.376 . S
N334 C338 1.383 . S
C335 N334 1.376 . S
C335 C336 1.446 . S
C335 C358 1.391 . S
C336 C335 1.446 . S
C336 C337 1.339 . S
C336 H365 0.949 . S
C337 C336 1.339 . S
C337 C338 1.439 . S
C337 H366 0.950 . S
C338 N334 1.383 . S
C338 C337 1.439 . S
C338 C356 1.392 . S
N339 Co323 2.282 . S
N339 C342 1.332 . S
N339 C344 1.332 . S
C340 C341 1.386 . S
C340 C343 1.388 . S
C341 C340 1.386 . S
C341 C342 1.382 . S
C341 H367 0.950 . S
C342 N339 1.332 . S
C342 C341 1.382 . S
C342 H353 0.952 . S
C343 C340 1.388 . S
C343 C344 1.382 . S
C343 H368 0.950 . S
C344 N339 1.332 . S
C344 C343 1.382 . S
C344 H354 0.948 . S
N345 Co323 2.282 . S
N345 C349 1.332 . S
N345 C350 1.332 . S
C346 C347 1.388 . S
C346 C350 1.382 . S
C346 H369 0.950 . S
C347 C346 1.388 . S
C347 C348 1.386 . S
C348 C347 1.386 . S
C348 C349 1.382 . S
C348 H370 0.950 . S
C349 N345 1.332 . S
C349 C348 1.382 . S
C349 H351 0.952 . S
C350 N345 1.332 . S
C350 C346 1.382 . S
C350 H352 0.948 . S
H351 C349 0.952 . S
H352 C350 0.948 . S
H353 C342 0.952 . S
H354 C344 0.948 . S
C355 C321 1.395 . S
C355 C325 1.391 . S
C356 C318 1.389 . S
C356 C338 1.392 . S
C357 C328 1.392 . S
C357 C330 1.389 . S
C358 C333 1.395 . S
C358 C335 1.391 . S
H359 C319 0.951 . S
H360 C320 0.950 . S
H361 C326 0.949 . S
H362 C327 0.950 . S
H363 C331 0.951 . S
H364 C332 0.950 . S
H365 C336 0.949 . S
H366 C337 0.950 . S
H367 C341 0.950 . S
H368 C343 0.950 . S
H369 C346 0.950 . S
H370 C348 0.950 . S
C371 C372 1.443 . S
C371 N375 1.376 . S
C371 C409 1.389 . S
C372 C371 1.443 . S
C372 C373 1.340 . S
C372 H412 0.951 . S
C373 C372 1.340 . S
C373 C374 1.439 . S
C373 H413 0.950 . S
C374 C373 1.439 . S
C374 N375 1.374 . S
C374 C408 1.395 . S
N375 C371 1.376 . S
N375 C374 1.374 . S
N375 Co376 2.008 . S
Co376 N375 2.008 . S
Co376 N377 1.995 . S
Co376 N382 2.008 . S
Co376 N387 1.995 . S
Co376 N392 2.282 . S
Co376 N398 2.282 . S
N377 Co376 1.995 . S
N377 C378 1.376 . S
N377 C381 1.383 . S
C378 N377 1.376 . S
C378 C379 1.446 . S
C378 C408 1.391 . S
C379 C378 1.446 . S
C379 C380 1.339 . S
C379 H414 0.949 . S
C380 C379 1.339 . S
C380 C381 1.439 . S
C380 H415 0.950 . S
C381 N377 1.383 . S
C381 C380 1.439 . S
C381 C410 1.392 . S
N382 Co376 2.008 . S
N382 C383 1.376 . S
N382 C386 1.374 . S
C383 N382 1.376 . S
C383 C384 1.443 . S
C383 C410 1.389 . S
C384 C383 1.443 . S
C384 C385 1.340 . S
C384 H416 0.951 . S
C385 C384 1.340 . S
C385 C386 1.439 . S
C385 H417 0.950 . S
C386 N382 1.374 . S
C386 C385 1.439 . S
C386 C411 1.395 . S
N387 Co376 1.995 . S
N387 C388 1.376 . S
N387 C391 1.383 . S
C388 N387 1.376 . S
C388 C389 1.446 . S
C388 C411 1.391 . S
C389 C388 1.446 . S
C389 C390 1.339 . S
C389 H418 0.949 . S
C390 C389 1.339 . S
C390 C391 1.439 . S
C390 H419 0.950 . S
C391 N387 1.383 . S
C391 C390 1.439 . S
C391 C409 1.392 . S
N392 Co376 2.282 . S
N392 C395 1.332 . S
N392 C397 1.332 . S
C393 C394 1.386 . S
C393 C396 1.388 . S
C394 C393 1.386 . S
C394 C395 1.382 . S
C394 H420 0.950 . S
C395 N392 1.332 . S
C395 C394 1.382 . S
C395 H406 0.952 . S
C396 C393 1.388 . S
C396 C397 1.382 . S
C396 H421 0.950 . S
C397 N392 1.332 . S
C397 C396 1.382 . S
C397 H407 0.948 . S
N398 Co376 2.282 . S
N398 C402 1.332 . S
N398 C403 1.332 . S
C399 C400 1.388 . S
C399 C403 1.382 . S
C399 H422 0.950 . S
C400 C399 1.388 . S
C400 C401 1.386 . S
C401 C400 1.386 . S
C401 C402 1.382 . S
C401 H423 0.950 . S
C402 N398 1.332 . S
C402 C401 1.382 . S
C402 H404 0.952 . S
C403 N398 1.332 . S
C403 C399 1.382 . S
C403 H405 0.948 . S
H404 C402 0.952 . S
H405 C403 0.948 . S
H406 C395 0.952 . S
H407 C397 0.948 . S
C408 C374 1.395 . S
C408 C378 1.391 . S
C409 C371 1.389 . S
C409 C391 1.392 . S
C410 C381 1.392 . S
C410 C383 1.389 . S
C411 C386 1.395 . S
C411 C388 1.391 . S
H412 C372 0.951 . S
H413 C373 0.950 . S
H414 C379 0.949 . S
H415 C380 0.950 . S
H416 C384 0.951 . S
H417 C385 0.950 . S
H418 C389 0.949 . S
H419 C390 0.950 . S
H420 C394 0.950 . S
H421 C396 0.950 . S
H422 C399 0.950 . S
H423 C401 0.950 . S
C424 C425 1.443 . S
C424 N428 1.376 . S
C424 C462 1.389 . S
C425 C424 1.443 . S
C425 C426 1.340 . S
C425 H465 0.951 . S
C426 C425 1.340 . S
C426 C427 1.439 . S
C426 H466 0.950 . S
C427 C426 1.439 . S
C427 N428 1.374 . S
C427 C461 1.395 . S
N428 C424 1.376 . S
N428 C427 1.374 . S
N428 Co429 2.008 . S
Co429 N428 2.008 . S
Co429 N430 1.995 . S
Co429 N435 2.008 . S
Co429 N440 1.995 . S
Co429 N445 2.282 . S
Co429 N451 2.282 . S
N430 Co429 1.995 . S
N430 C431 1.376 . S
N430 C434 1.383 . S
C431 N430 1.376 . S
C431 C432 1.446 . S
C431 C461 1.391 . S
C432 C431 1.446 . S
C432 C433 1.339 . S
C432 H467 0.949 . S
C433 C432 1.339 . S
C433 C434 1.439 . S
C433 H468 0.950 . S
C434 N430 1.383 . S
C434 C433 1.439 . S
C434 C463 1.392 . S
N435 Co429 2.008 . S
N435 C436 1.376 . S
N435 C439 1.374 . S
C436 N435 1.376 . S
C436 C437 1.443 . S
C436 C463 1.389 . S
C437 C436 1.443 . S
C437 C438 1.340 . S
C437 H469 0.951 . S
C438 C437 1.340 . S
C438 C439 1.439 . S
C438 H470 0.950 . S
C439 N435 1.374 . S
C439 C438 1.439 . S
C439 C464 1.395 . S
N440 Co429 1.995 . S
N440 C441 1.376 . S
N440 C444 1.383 . S
C441 N440 1.376 . S
C441 C442 1.446 . S
C441 C464 1.391 . S
C442 C441 1.446 . S
C442 C443 1.339 . S
C442 H471 0.949 . S
C443 C442 1.339 . S
C443 C444 1.439 . S
C443 H472 0.950 . S
C444 N440 1.383 . S
C444 C443 1.439 . S
C444 C462 1.392 . S
N445 Co429 2.282 . S
N445 C448 1.332 . S
N445 C450 1.332 . S
C446 C447 1.386 . S
C446 C449 1.388 . S
C447 C446 1.386 . S
C447 C448 1.382 . S
C447 H473 0.950 . S
C448 N445 1.332 . S
C448 C447 1.382 . S
C448 H459 0.952 . S
C449 C446 1.388 . S
C449 C450 1.382 . S
C449 H474 0.950 . S
C450 N445 1.332 . S
C450 C449 1.382 . S
C450 H460 0.948 . S
N451 Co429 2.282 . S
N451 C455 1.332 . S
N451 C456 1.332 . S
C452 C453 1.388 . S
C452 C456 1.382 . S
C452 H475 0.950 . S
C453 C452 1.388 . S
C453 C454 1.386 . S
C454 C453 1.386 . S
C454 C455 1.382 . S
C454 H476 0.950 . S
C455 N451 1.332 . S
C455 C454 1.382 . S
C455 H457 0.952 . S
C456 N451 1.332 . S
C456 C452 1.382 . S
C456 H458 0.948 . S
H457 C455 0.952 . S
H458 C456 0.948 . S
H459 C448 0.952 . S
H460 C450 0.948 . S
C461 C427 1.395 . S
C461 C431 1.391 . S
C462 C424 1.389 . S
C462 C444 1.392 . S
C463 C434 1.392 . S
C463 C436 1.389 . S
C464 C439 1.395 . S
C464 C441 1.391 . S
H465 C425 0.951 . S
H466 C426 0.950 . S
H467 C432 0.949 . S
H468 C433 0.950 . S
H469 C437 0.951 . S
H470 C438 0.950 . S
H471 C442 0.949 . S
H472 C443 0.950 . S
H473 C447 0.950 . S
H474 C449 0.950 . S
H475 C452 0.950 . S
H476 C454 0.950 . S
C477 C478 1.443 . S
C477 N481 1.376 . S
C477 C515 1.389 . S
C478 C477 1.443 . S
C478 C479 1.340 . S
C478 H518 0.951 . S
C479 C478 1.340 . S
C479 C480 1.439 . S
C479 H519 0.950 . S
C480 C479 1.439 . S
C480 N481 1.374 . S
C480 C514 1.395 . S
N481 C477 1.376 . S
N481 C480 1.374 . S
N481 Co482 2.008 . S
Co482 N481 2.008 . S
Co482 N483 1.995 . S
Co482 N488 2.008 . S
Co482 N493 1.995 . S
Co482 N498 2.282 . S
Co482 N504 2.282 . S
N483 Co482 1.995 . S
N483 C484 1.376 . S
N483 C487 1.383 . S
C484 N483 1.376 . S
C484 C485 1.446 . S
C484 C514 1.391 . S
C485 C484 1.446 . S
C485 C486 1.339 . S
C485 H520 0.949 . S
C486 C485 1.339 . S
C486 C487 1.439 . S
C486 H521 0.950 . S
C487 N483 1.383 . S
C487 C486 1.439 . S
C487 C516 1.392 . S
N488 Co482 2.008 . S
N488 C489 1.376 . S
N488 C492 1.374 . S
C489 N488 1.376 . S
C489 C490 1.443 . S
C489 C516 1.389 . S
C490 C489 1.443 . S
C490 C491 1.340 . S
C490 H522 0.951 . S
C491 C490 1.340 . S
C491 C492 1.439 . S
C491 H523 0.950 . S
C492 N488 1.374 . S
C492 C491 1.439 . S
C492 C517 1.395 . S
N493 Co482 1.995 . S
N493 C494 1.376 . S
N493 C497 1.383 . S
C494 N493 1.376 . S
C494 C495 1.446 . S
C494 C517 1.391 . S
C495 C494 1.446 . S
C495 C496 1.339 . S
C495 H524 0.949 . S
C496 C495 1.339 . S
C496 C497 1.439 . S
C496 H525 0.950 . S
C497 N493 1.383 . S
C497 C496 1.439 . S
C497 C515 1.392 . S
N498 Co482 2.282 . S
N498 C501 1.332 . S
N498 C503 1.332 . S
C499 C500 1.386 . S
C499 C502 1.388 . S
C500 C499 1.386 . S
C500 C501 1.382 . S
C500 H526 0.950 1_545 S
C501 N498 1.332 . S
C501 C500 1.382 . S
C501 H512 0.952 . S
C502 C499 1.388 . S
C502 C503 1.382 . S
C502 H527 0.950 . S
C503 N498 1.332 . S
C503 C502 1.382 . S
C503 H513 0.948 . S
N504 Co482 2.282 . S
N504 C508 1.332 . S
N504 C509 1.332 . S
C505 C506 1.388 . S
C505 C509 1.382 . S
C505 H528 0.950 . S
C506 C505 1.388 . S
C506 C507 1.386 . S
C507 C506 1.386 . S
C507 C508 1.382 . S
C507 H529 0.950 . S
C508 N504 1.332 . S
C508 C507 1.382 . S
C508 H510 0.952 . S
C509 N504 1.332 . S
C509 C505 1.382 . S
C509 H511 0.948 . S
H510 C508 0.952 . S
H511 C509 0.948 . S
H512 C501 0.952 . S
H513 C503 0.948 . S
C514 C480 1.395 . S
C514 C484 1.391 . S
C515 C477 1.389 . S
C515 C497 1.392 . S
C516 C487 1.392 . S
C516 C489 1.389 . S
C517 C492 1.395 . S
C517 C494 1.391 . S
H518 C478 0.951 . S
H519 C479 0.950 . S
H520 C485 0.949 . S
H521 C486 0.950 . S
H522 C490 0.951 . S
H523 C491 0.950 . S
H524 C495 0.949 . S
H525 C496 0.950 . S
H526 C500 0.950 1_565 S
H527 C502 0.950 . S
H528 C505 0.950 . S
H529 C507 0.950 . S
C530 C531 1.443 . S
C530 N534 1.376 . S
C530 C568 1.389 . S
C531 C530 1.443 . S
C531 C532 1.340 . S
C531 H571 0.951 . S
C532 C531 1.340 . S
C532 C533 1.439 . S
C532 H572 0.950 . S
C533 C532 1.439 . S
C533 N534 1.374 . S
C533 C567 1.395 . S
N534 C530 1.376 . S
N534 C533 1.374 . S
N534 Co535 2.008 . S
Co535 N534 2.008 . S
Co535 N536 1.995 . S
Co535 N541 2.008 . S
Co535 N546 1.995 . S
Co535 N551 2.282 . S
Co535 N557 2.282 . S
N536 Co535 1.995 . S
N536 C537 1.376 . S
N536 C540 1.383 . S
C537 N536 1.376 . S
C537 C538 1.446 . S
C537 C567 1.391 . S
C538 C537 1.446 . S
C538 C539 1.339 . S
C538 H573 0.949 . S
C539 C538 1.339 . S
C539 C540 1.439 . S
C539 H574 0.950 . S
C540 N536 1.383 . S
C540 C539 1.439 . S
C540 C569 1.392 . S
N541 Co535 2.008 . S
N541 C542 1.376 . S
N541 C545 1.374 . S
C542 N541 1.376 . S
C542 C543 1.443 . S
C542 C569 1.389 . S
C543 C542 1.443 . S
C543 C544 1.340 . S
C543 H575 0.951 . S
C544 C543 1.340 . S
C544 C545 1.439 . S
C544 H576 0.950 . S
C545 N541 1.374 . S
C545 C544 1.439 . S
C545 C570 1.395 . S
N546 Co535 1.995 . S
N546 C547 1.376 . S
N546 C550 1.383 . S
C547 N546 1.376 . S
C547 C548 1.446 . S
C547 C570 1.391 . S
C548 C547 1.446 . S
C548 C549 1.339 . S
C548 H577 0.949 . S
C549 C548 1.339 . S
C549 C550 1.439 . S
C549 H578 0.950 . S
C550 N546 1.383 . S
C550 C549 1.439 . S
C550 C568 1.392 . S
N551 Co535 2.282 . S
N551 C554 1.332 . S
N551 C556 1.332 . S
C552 C553 1.386 . S
C552 C555 1.388 . S
C553 C552 1.386 . S
C553 C554 1.382 . S
C553 H579 0.950 . S
C554 N551 1.332 . S
C554 C553 1.382 . S
C554 H565 0.952 . S
C555 C552 1.388 . S
C555 C556 1.382 . S
C555 H580 0.950 . S
C556 N551 1.332 . S
C556 C555 1.382 . S
C556 H566 0.948 . S
N557 Co535 2.282 . S
N557 C561 1.332 . S
N557 C562 1.332 . S
C558 C559 1.388 . S
C558 C562 1.382 . S
C558 H581 0.950 . S
C559 C558 1.388 . S
C559 C560 1.386 . S
C560 C559 1.386 . S
C560 C561 1.382 . S
C560 H582 0.950 . S
C561 N557 1.332 . S
C561 C560 1.382 . S
C561 H563 0.952 . S
C562 N557 1.332 . S
C562 C558 1.382 . S
C562 H564 0.948 . S
H563 C561 0.952 . S
H564 C562 0.948 . S
H565 C554 0.952 . S
H566 C556 0.948 . S
C567 C533 1.395 . S
C567 C537 1.391 . S
C568 C530 1.389 . S
C568 C550 1.392 . S
C569 C540 1.392 . S
C569 C542 1.389 . S
C570 C545 1.395 . S
C570 C547 1.391 . S
H571 C531 0.951 . S
H572 C532 0.950 . S
H573 C538 0.949 . S
H574 C539 0.950 . S
H575 C543 0.951 . S
H576 C544 0.950 . S
H577 C548 0.949 . S
H578 C549 0.950 . S
H579 C553 0.950 . S
H580 C555 0.950 . S
H581 C558 0.950 . S
H582 C560 0.950 . S
C583 C584 1.443 . S
C583 N587 1.376 . S
C583 C621 1.389 . S
C584 C583 1.443 . S
C584 C585 1.340 . S
C584 H624 0.951 . S
C585 C584 1.340 . S
C585 C586 1.439 . S
C585 H625 0.950 . S
C586 C585 1.439 . S
C586 N587 1.374 . S
C586 C620 1.395 . S
N587 C583 1.376 . S
N587 C586 1.374 . S
N587 Co588 2.008 . S
Co588 N587 2.008 . S
Co588 N589 1.995 . S
Co588 N594 2.008 . S
Co588 N599 1.995 . S
Co588 N604 2.282 . S
Co588 N610 2.282 . S
N589 Co588 1.995 . S
N589 C590 1.376 . S
N589 C593 1.383 . S
C590 N589 1.376 . S
C590 C591 1.446 . S
C590 C620 1.391 . S
C591 C590 1.446 . S
C591 C592 1.339 . S
C591 H626 0.949 . S
C592 C591 1.339 . S
C592 C593 1.439 . S
C592 H627 0.950 . S
C593 N589 1.383 . S
C593 C592 1.439 . S
C593 C622 1.392 . S
N594 Co588 2.008 . S
N594 C595 1.376 . S
N594 C598 1.374 . S
C595 N594 1.376 . S
C595 C596 1.443 . S
C595 C622 1.389 . S
C596 C595 1.443 . S
C596 C597 1.340 . S
C596 H628 0.951 . S
C597 C596 1.340 . S
C597 C598 1.439 . S
C597 H629 0.950 . S
C598 N594 1.374 . S
C598 C597 1.439 . S
C598 C623 1.395 . S
N599 Co588 1.995 . S
N599 C600 1.376 . S
N599 C603 1.383 . S
C600 N599 1.376 . S
C600 C601 1.446 . S
C600 C623 1.391 . S
C601 C600 1.446 . S
C601 C602 1.339 . S
C601 H630 0.949 . S
C602 C601 1.339 . S
C602 C603 1.439 . S
C602 H631 0.950 . S
C603 N599 1.383 . S
C603 C602 1.439 . S
C603 C621 1.392 . S
N604 Co588 2.282 . S
N604 C607 1.332 . S
N604 C609 1.332 . S
C605 C606 1.386 . S
C605 C608 1.388 . S
C606 C605 1.386 . S
C606 C607 1.382 . S
C606 H632 0.950 . S
C607 N604 1.332 . S
C607 C606 1.382 . S
C607 H618 0.952 . S
C608 C605 1.388 . S
C608 C609 1.382 . S
C608 H633 0.950 . S
C609 N604 1.332 . S
C609 C608 1.382 . S
C609 H619 0.948 . S
N610 Co588 2.282 . S
N610 C614 1.332 . S
N610 C615 1.332 . S
C611 C612 1.388 . S
C611 C615 1.382 . S
C611 H634 0.950 . S
C612 C611 1.388 . S
C612 C613 1.386 . S
C613 C612 1.386 . S
C613 C614 1.382 . S
C613 H635 0.950 . S
C614 N610 1.332 . S
C614 C613 1.382 . S
C614 H616 0.952 . S
C615 N610 1.332 . S
C615 C611 1.382 . S
C615 H617 0.948 . S
H616 C614 0.952 . S
H617 C615 0.948 . S
H618 C607 0.952 . S
H619 C609 0.948 . S
C620 C586 1.395 . S
C620 C590 1.391 . S
C621 C583 1.389 . S
C621 C603 1.392 . S
C622 C593 1.392 . S
C622 C595 1.389 . S
C623 C598 1.395 . S
C623 C600 1.391 . S
H624 C584 0.951 . S
H625 C585 0.950 . S
H626 C591 0.949 . S
H627 C592 0.950 . S
H628 C596 0.951 . S
H629 C597 0.950 . S
H630 C601 0.949 . S
H631 C602 0.950 . S
H632 C606 0.950 . S
H633 C608 0.950 . S
H634 C611 0.950 . S
H635 C613 0.950 . S
C636 C637 1.443 . S
C636 N640 1.376 . S
C636 C674 1.389 . S
C637 C636 1.443 . S
C637 C638 1.340 . S
C637 H677 0.951 . S
C638 C637 1.340 . S
C638 C639 1.439 . S
C638 H678 0.950 . S
C639 C638 1.439 . S
C639 N640 1.374 . S
C639 C673 1.395 . S
N640 C636 1.376 . S
N640 C639 1.374 . S
N640 Co641 2.008 . S
Co641 N640 2.008 . S
Co641 N642 1.995 . S
Co641 N647 2.008 . S
Co641 N652 1.995 . S
Co641 N657 2.282 . S
Co641 N663 2.282 . S
N642 Co641 1.995 . S
N642 C643 1.376 . S
N642 C646 1.383 . S
C643 N642 1.376 . S
C643 C644 1.446 . S
C643 C673 1.391 . S
C644 C643 1.446 . S
C644 C645 1.339 . S
C644 H679 0.949 . S
C645 C644 1.339 . S
C645 C646 1.439 . S
C645 H680 0.950 . S
C646 N642 1.383 . S
C646 C645 1.439 . S
C646 C675 1.392 . S
N647 Co641 2.008 . S
N647 C648 1.376 . S
N647 C651 1.374 . S
C648 N647 1.376 . S
C648 C649 1.443 . S
C648 C675 1.389 . S
C649 C648 1.443 . S
C649 C650 1.340 . S
C649 H681 0.951 . S
C650 C649 1.340 . S
C650 C651 1.439 . S
C650 H682 0.950 . S
C651 N647 1.374 . S
C651 C650 1.439 . S
C651 C676 1.395 . S
N652 Co641 1.995 . S
N652 C653 1.376 . S
N652 C656 1.383 . S
C653 N652 1.376 . S
C653 C654 1.446 . S
C653 C676 1.391 . S
C654 C653 1.446 . S
C654 C655 1.339 . S
C654 H683 0.949 . S
C655 C654 1.339 . S
C655 C656 1.439 . S
C655 H684 0.950 . S
C656 N652 1.383 . S
C656 C655 1.439 . S
C656 C674 1.392 . S
N657 Co641 2.282 . S
N657 C660 1.332 . S
N657 C662 1.332 . S
C658 C659 1.386 . S
C658 C661 1.388 . S
C659 C658 1.386 . S
C659 C660 1.382 . S
C659 H685 0.950 . S
C660 N657 1.332 . S
C660 C659 1.382 . S
C660 H671 0.952 . S
C661 C658 1.388 . S
C661 C662 1.382 . S
C661 H686 0.950 . S
C662 N657 1.332 . S
C662 C661 1.382 . S
C662 H672 0.948 . S
N663 Co641 2.282 . S
N663 C667 1.332 . S
N663 C668 1.332 . S
C664 C665 1.388 . S
C664 C668 1.382 . S
C664 H687 0.950 . S
C665 C664 1.388 . S
C665 C666 1.386 . S
C666 C665 1.386 . S
C666 C667 1.382 . S
C666 H688 0.950 . S
C667 N663 1.332 . S
C667 C666 1.382 . S
C667 H669 0.952 . S
C668 N663 1.332 . S
C668 C664 1.382 . S
C668 H670 0.948 . S
H669 C667 0.952 . S
H670 C668 0.948 . S
H671 C660 0.952 . S
H672 C662 0.948 . S
C673 C639 1.395 . S
C673 C643 1.391 . S
C674 C636 1.389 . S
C674 C656 1.392 . S
C675 C646 1.392 . S
C675 C648 1.389 . S
C676 C651 1.395 . S
C676 C653 1.391 . S
H677 C637 0.951 . S
H678 C638 0.950 . S
H679 C644 0.949 . S
H680 C645 0.950 . S
H681 C649 0.951 . S
H682 C650 0.950 . S
H683 C654 0.949 . S
H684 C655 0.950 . S
H685 C659 0.950 . S
H686 C661 0.950 . S
H687 C664 0.950 . S
H688 C666 0.950 . S
C689 C690 1.443 . S
C689 N693 1.376 . S
C689 C727 1.389 . S
C690 C689 1.443 . S
C690 C691 1.340 . S
C690 H730 0.951 . S
C691 C690 1.340 . S
C691 C692 1.439 . S
C691 H731 0.950 . S
C692 C691 1.439 . S
C692 N693 1.374 . S
C692 C726 1.395 . S
N693 C689 1.376 . S
N693 C692 1.374 . S
N693 Co694 2.008 . S
Co694 N693 2.008 . S
Co694 N695 1.995 . S
Co694 N700 2.008 . S
Co694 N705 1.995 . S
Co694 N710 2.282 . S
Co694 N716 2.282 . S
N695 Co694 1.995 . S
N695 C696 1.376 . S
N695 C699 1.383 . S
C696 N695 1.376 . S
C696 C697 1.446 . S
C696 C726 1.391 . S
C697 C696 1.446 . S
C697 C698 1.339 . S
C697 H732 0.949 . S
C698 C697 1.339 . S
C698 C699 1.439 . S
C698 H733 0.950 . S
C699 N695 1.383 . S
C699 C698 1.439 . S
C699 C728 1.392 . S
N700 Co694 2.008 . S
N700 C701 1.376 . S
N700 C704 1.374 . S
C701 N700 1.376 . S
C701 C702 1.443 . S
C701 C728 1.389 . S
C702 C701 1.443 . S
C702 C703 1.340 . S
C702 H734 0.951 . S
C703 C702 1.340 . S
C703 C704 1.439 . S
C703 H735 0.950 . S
C704 N700 1.374 . S
C704 C703 1.439 . S
C704 C729 1.395 . S
N705 Co694 1.995 . S
N705 C706 1.376 . S
N705 C709 1.383 . S
C706 N705 1.376 . S
C706 C707 1.446 . S
C706 C729 1.391 . S
C707 C706 1.446 . S
C707 C708 1.339 . S
C707 H736 0.949 . S
C708 C707 1.339 . S
C708 C709 1.439 . S
C708 H737 0.950 . S
C709 N705 1.383 . S
C709 C708 1.439 . S
C709 C727 1.392 . S
N710 Co694 2.282 . S
N710 C713 1.332 . S
N710 C715 1.332 . S
C711 C712 1.386 . S
C711 C714 1.388 . S
C712 C711 1.386 . S
C712 C713 1.382 . S
C712 H738 0.950 . S
C713 N710 1.332 . S
C713 C712 1.382 . S
C713 H724 0.952 . S
C714 C711 1.388 . S
C714 C715 1.382 . S
C714 H739 0.950 . S
C715 N710 1.332 . S
C715 C714 1.382 . S
C715 H725 0.948 . S
N716 Co694 2.282 . S
N716 C720 1.332 . S
N716 C721 1.332 . S
C717 C718 1.388 . S
C717 C721 1.382 . S
C717 H740 0.950 . S
C718 C717 1.388 . S
C718 C719 1.386 . S
C719 C718 1.386 . S
C719 C720 1.382 . S
C719 H741 0.950 . S
C720 N716 1.332 . S
C720 C719 1.382 . S
C720 H722 0.952 . S
C721 N716 1.332 . S
C721 C717 1.382 . S
C721 H723 0.948 . S
H722 C720 0.952 . S
H723 C721 0.948 . S
H724 C713 0.952 . S
H725 C715 0.948 . S
C726 C692 1.395 . S
C726 C696 1.391 . S
C727 C689 1.389 . S
C727 C709 1.392 . S
C728 C699 1.392 . S
C728 C701 1.389 . S
C729 C704 1.395 . S
C729 C706 1.391 . S
H730 C690 0.951 . S
H731 C691 0.950 . S
H732 C697 0.949 . S
H733 C698 0.950 . S
H734 C702 0.951 . S
H735 C703 0.950 . S
H736 C707 0.949 . S
H737 C708 0.950 . S
H738 C712 0.950 . S
H739 C714 0.950 . S
H740 C717 0.950 . S
H741 C719 0.950 . S
C742 C743 1.443 . S
C742 N746 1.376 . S
C742 C780 1.389 . S
C743 C742 1.443 . S
C743 C744 1.340 . S
C743 H783 0.951 . S
C744 C743 1.340 . S
C744 C745 1.439 . S
C744 H784 0.950 . S
C745 C744 1.439 . S
C745 N746 1.374 . S
C745 C779 1.395 . S
N746 C742 1.376 . S
N746 C745 1.374 . S
N746 Co747 2.008 . S
Co747 N746 2.008 . S
Co747 N748 1.995 . S
Co747 N753 2.008 . S
Co747 N758 1.995 . S
Co747 N763 2.282 . S
Co747 N769 2.282 . S
N748 Co747 1.995 . S
N748 C749 1.376 . S
N748 C752 1.383 . S
C749 N748 1.376 . S
C749 C750 1.446 . S
C749 C779 1.391 . S
C750 C749 1.446 . S
C750 C751 1.339 . S
C750 H785 0.949 . S
C751 C750 1.339 . S
C751 C752 1.439 . S
C751 H786 0.950 . S
C752 N748 1.383 . S
C752 C751 1.439 . S
C752 C781 1.392 . S
N753 Co747 2.008 . S
N753 C754 1.376 . S
N753 C757 1.374 . S
C754 N753 1.376 . S
C754 C755 1.443 . S
C754 C781 1.389 . S
C755 C754 1.443 . S
C755 C756 1.340 . S
C755 H787 0.951 . S
C756 C755 1.340 . S
C756 C757 1.439 . S
C756 H788 0.950 . S
C757 N753 1.374 . S
C757 C756 1.439 . S
C757 C782 1.395 . S
N758 Co747 1.995 . S
N758 C759 1.376 . S
N758 C762 1.383 . S
C759 N758 1.376 . S
C759 C760 1.446 . S
C759 C782 1.391 . S
C760 C759 1.446 . S
C760 C761 1.339 . S
C760 H789 0.949 . S
C761 C760 1.339 . S
C761 C762 1.439 . S
C761 H790 0.950 . S
C762 N758 1.383 . S
C762 C761 1.439 . S
C762 C780 1.392 . S
N763 Co747 2.282 . S
N763 C766 1.332 . S
N763 C768 1.332 . S
C764 C765 1.386 . S
C764 C767 1.388 . S
C765 C764 1.386 . S
C765 C766 1.382 . S
C765 H791 0.950 . S
C766 N763 1.332 . S
C766 C765 1.382 . S
C766 H777 0.952 . S
C767 C764 1.388 . S
C767 C768 1.382 . S
C767 H792 0.950 . S
C768 N763 1.332 . S
C768 C767 1.382 . S
C768 H778 0.948 . S
N769 Co747 2.282 . S
N769 C773 1.332 . S
N769 C774 1.332 . S
C770 C771 1.388 . S
C770 C774 1.382 . S
C770 H793 0.950 . S
C771 C770 1.388 . S
C771 C772 1.386 . S
C772 C771 1.386 . S
C772 C773 1.382 . S
C772 H794 0.950 . S
C773 N769 1.332 . S
C773 C772 1.382 . S
C773 H775 0.952 . S
C774 N769 1.332 . S
C774 C770 1.382 . S
C774 H776 0.948 . S
H775 C773 0.952 . S
H776 C774 0.948 . S
H777 C766 0.952 . S
H778 C768 0.948 . S
C779 C745 1.395 . S
C779 C749 1.391 . S
C780 C742 1.389 . S
C780 C762 1.392 . S
C781 C752 1.392 . S
C781 C754 1.389 . S
C782 C757 1.395 . S
C782 C759 1.391 . S
H783 C743 0.951 . S
H784 C744 0.950 . S
H785 C750 0.949 . S
H786 C751 0.950 . S
H787 C755 0.951 . S
H788 C756 0.950 . S
H789 C760 0.949 . S
H790 C761 0.950 . S
H791 C765 0.950 . S
H792 C767 0.950 . S
H793 C770 0.950 . S
H794 C772 0.950 . S
C795 C796 1.443 . S
C795 N799 1.376 . S
C795 C833 1.389 . S
C796 C795 1.443 . S
C796 C797 1.340 . S
C796 H836 0.951 . S
C797 C796 1.340 . S
C797 C798 1.439 . S
C797 H837 0.950 . S
C798 C797 1.439 . S
C798 N799 1.374 . S
C798 C832 1.395 . S
N799 C795 1.376 . S
N799 C798 1.374 . S
N799 Co800 2.008 . S
Co800 N799 2.008 . S
Co800 N801 1.995 . S
Co800 N806 2.008 . S
Co800 N811 1.995 . S
Co800 N816 2.282 . S
Co800 N822 2.282 . S
N801 Co800 1.995 . S
N801 C802 1.376 . S
N801 C805 1.383 . S
C802 N801 1.376 . S
C802 C803 1.446 . S
C802 C832 1.391 . S
C803 C802 1.446 . S
C803 C804 1.339 . S
C803 H838 0.949 . S
C804 C803 1.339 . S
C804 C805 1.439 . S
C804 H839 0.950 . S
C805 N801 1.383 . S
C805 C804 1.439 . S
C805 C834 1.392 . S
N806 Co800 2.008 . S
N806 C807 1.376 . S
N806 C810 1.374 . S
C807 N806 1.376 . S
C807 C808 1.443 . S
C807 C834 1.389 . S
C808 C807 1.443 . S
C808 C809 1.340 . S
C808 H840 0.951 . S
C809 C808 1.340 . S
C809 C810 1.439 . S
C809 H841 0.950 . S
C810 N806 1.374 . S
C810 C809 1.439 . S
C810 C835 1.395 . S
N811 Co800 1.995 . S
N811 C812 1.376 . S
N811 C815 1.383 . S
C812 N811 1.376 . S
C812 C813 1.446 . S
C812 C835 1.391 . S
C813 C812 1.446 . S
C813 C814 1.339 . S
C813 H842 0.949 . S
C814 C813 1.339 . S
C814 C815 1.439 . S
C814 H843 0.950 . S
C815 N811 1.383 . S
C815 C814 1.439 . S
C815 C833 1.392 . S
N816 Co800 2.282 . S
N816 C819 1.332 . S
N816 C821 1.332 . S
C817 C818 1.386 . S
C817 C820 1.388 . S
C818 C817 1.386 . S
C818 C819 1.382 . S
C818 H844 0.950 . S
C819 N816 1.332 . S
C819 C818 1.382 . S
C819 H830 0.952 . S
C820 C817 1.388 . S
C820 C821 1.382 . S
C820 H845 0.950 . S
C821 N816 1.332 . S
C821 C820 1.382 . S
C821 H831 0.948 . S
N822 Co800 2.282 . S
N822 C826 1.332 . S
N822 C827 1.332 . S
C823 C824 1.388 . S
C823 C827 1.382 . S
C823 H846 0.950 . S
C824 C823 1.388 . S
C824 C825 1.386 . S
C825 C824 1.386 . S
C825 C826 1.382 . S
C825 H847 0.950 . S
C826 N822 1.332 . S
C826 C825 1.382 . S
C826 H828 0.952 . S
C827 N822 1.332 . S
C827 C823 1.382 . S
C827 H829 0.948 . S
H828 C826 0.952 . S
H829 C827 0.948 . S
H830 C819 0.952 . S
H831 C821 0.948 . S
C832 C798 1.395 . S
C832 C802 1.391 . S
C833 C795 1.389 . S
C833 C815 1.392 . S
C834 C805 1.392 . S
C834 C807 1.389 . S
C835 C810 1.395 . S
C835 C812 1.391 . S
H836 C796 0.951 . S
H837 C797 0.950 . S
H838 C803 0.949 . S
H839 C804 0.950 . S
H840 C808 0.951 . S
H841 C809 0.950 . S
H842 C813 0.949 . S
H843 C814 0.950 . S
H844 C818 0.950 . S
H845 C820 0.950 . S
H846 C823 0.950 . S
H847 C825 0.950 . S
C848 C849 1.443 . S
C848 N852 1.376 . S
C848 C886 1.389 . S
C849 C848 1.443 . S
C849 C850 1.340 . S
C849 H889 0.951 . S
C850 C849 1.340 . S
C850 C851 1.439 . S
C850 H890 0.950 . S
C851 C850 1.439 . S
C851 N852 1.374 . S
C851 C885 1.395 . S
N852 C848 1.376 . S
N852 C851 1.374 . S
N852 Co853 2.008 . S
Co853 N852 2.008 . S
Co853 N854 1.995 . S
Co853 N859 2.008 . S
Co853 N864 1.995 . S
Co853 N869 2.282 . S
Co853 N875 2.282 . S
N854 Co853 1.995 . S
N854 C855 1.376 . S
N854 C858 1.383 . S
C855 N854 1.376 . S
C855 C856 1.446 . S
C855 C885 1.391 . S
C856 C855 1.446 . S
C856 C857 1.339 . S
C856 H891 0.949 . S
C857 C856 1.339 . S
C857 C858 1.439 . S
C857 H892 0.950 . S
C858 N854 1.383 . S
C858 C857 1.439 . S
C858 C887 1.392 . S
N859 Co853 2.008 . S
N859 C860 1.376 . S
N859 C863 1.374 . S
C860 N859 1.376 . S
C860 C861 1.443 . S
C860 C887 1.389 . S
C861 C860 1.443 . S
C861 C862 1.340 . S
C861 H893 0.951 . S
C862 C861 1.340 . S
C862 C863 1.439 . S
C862 H894 0.950 . S
C863 N859 1.374 . S
C863 C862 1.439 . S
C863 C888 1.395 . S
N864 Co853 1.995 . S
N864 C865 1.376 . S
N864 C868 1.383 . S
C865 N864 1.376 . S
C865 C866 1.446 . S
C865 C888 1.391 . S
C866 C865 1.446 . S
C866 C867 1.339 . S
C866 H895 0.949 . S
C867 C866 1.339 . S
C867 C868 1.439 . S
C867 H896 0.950 . S
C868 N864 1.383 . S
C868 C867 1.439 . S
C868 C886 1.392 . S
N869 Co853 2.282 . S
N869 C872 1.332 . S
N869 C874 1.332 . S
C870 C871 1.386 . S
C870 C873 1.388 . S
C871 C870 1.386 . S
C871 C872 1.382 . S
C871 H897 0.950 . S
C872 N869 1.332 . S
C872 C871 1.382 . S
C872 H883 0.952 . S
C873 C870 1.388 . S
C873 C874 1.382 . S
C873 H898 0.950 . S
C874 N869 1.332 . S
C874 C873 1.382 . S
C874 H884 0.948 . S
N875 Co853 2.282 . S
N875 C879 1.332 . S
N875 C880 1.332 . S
C876 C877 1.388 . S
C876 C880 1.382 . S
C876 H899 0.950 . S
C877 C876 1.388 . S
C877 C878 1.386 . S
C878 C877 1.386 . S
C878 C879 1.382 . S
C878 H900 0.950 . S
C879 N875 1.332 . S
C879 C878 1.382 . S
C879 H881 0.952 . S
C880 N875 1.332 . S
C880 C876 1.382 . S
C880 H882 0.948 . S
H881 C879 0.952 . S
H882 C880 0.948 . S
H883 C872 0.952 . S
H884 C874 0.948 . S
C885 C851 1.395 . S
C885 C855 1.391 . S
C886 C848 1.389 . S
C886 C868 1.392 . S
C887 C858 1.392 . S
C887 C860 1.389 . S
C888 C863 1.395 . S
C888 C865 1.391 . S
H889 C849 0.951 . S
H890 C850 0.950 . S
H891 C856 0.949 . S
H892 C857 0.950 . S
H893 C861 0.951 . S
H894 C862 0.950 . S
H895 C866 0.949 . S
H896 C867 0.950 . S
H897 C871 0.950 . S
H898 C873 0.950 . S
H899 C876 0.950 . S
H900 C878 0.950 . S
C901 C902 1.443 . S
C901 N905 1.376 . S
C901 C939 1.389 . S
C902 C901 1.443 . S
C902 C903 1.340 . S
C902 H942 0.951 . S
C903 C902 1.340 . S
C903 C904 1.439 . S
C903 H943 0.950 . S
C904 C903 1.439 . S
C904 N905 1.374 . S
C904 C938 1.395 . S
N905 C901 1.376 . S
N905 C904 1.374 . S
N905 Co906 2.008 . S
Co906 N905 2.008 . S
Co906 N907 1.995 . S
Co906 N912 2.008 . S
Co906 N917 1.995 . S
Co906 N922 2.282 . S
Co906 N928 2.282 . S
N907 Co906 1.995 . S
N907 C908 1.376 . S
N907 C911 1.383 . S
C908 N907 1.376 . S
C908 C909 1.446 . S
C908 C938 1.391 . S
C909 C908 1.446 . S
C909 C910 1.339 . S
C909 H944 0.949 . S
C910 C909 1.339 . S
C910 C911 1.439 . S
C910 H945 0.946 1_545 S
C911 N907 1.383 . S
C911 C910 1.439 . S
C911 C940 1.392 . S
N912 Co906 2.008 . S
N912 C913 1.376 . S
N912 C916 1.374 . S
C913 N912 1.376 . S
C913 C914 1.443 . S
C913 C940 1.389 . S
C914 C913 1.443 . S
C914 C915 1.340 . S
C914 H946 0.951 . S
C915 C914 1.340 . S
C915 C916 1.439 . S
C915 H947 0.950 . S
C916 N912 1.374 . S
C916 C915 1.439 . S
C916 C941 1.395 . S
N917 Co906 1.995 . S
N917 C918 1.376 . S
N917 C921 1.383 . S
C918 N917 1.376 . S
C918 C919 1.446 . S
C918 C941 1.391 . S
C919 C918 1.446 . S
C919 C920 1.339 . S
C919 H948 0.949 . S
C920 C919 1.339 . S
C920 C921 1.439 . S
C920 H949 0.950 . S
C921 N917 1.383 . S
C921 C920 1.439 . S
C921 C939 1.392 . S
N922 Co906 2.282 . S
N922 C925 1.332 . S
N922 C927 1.332 . S
C923 C924 1.386 . S
C923 C926 1.388 . S
C924 C923 1.386 . S
C924 C925 1.382 . S
C924 H950 0.950 . S
C925 N922 1.332 . S
C925 C924 1.382 . S
C925 H936 0.952 . S
C926 C923 1.388 . S
C926 C927 1.382 . S
C926 H951 0.950 1_545 S
C927 N922 1.332 . S
C927 C926 1.382 . S
C927 H937 0.948 . S
N928 Co906 2.282 . S
N928 C932 1.332 . S
N928 C933 1.332 . S
C929 C930 1.388 . S
C929 C933 1.382 . S
C929 H952 0.950 . S
C930 C929 1.388 . S
C930 C931 1.386 . S
C931 C930 1.386 . S
C931 C932 1.382 . S
C931 H953 0.950 . S
C932 N928 1.332 . S
C932 C931 1.382 . S
C932 H934 0.952 . S
C933 N928 1.332 . S
C933 C929 1.382 . S
C933 H935 0.948 . S
H934 C932 0.952 . S
H935 C933 0.948 . S
H936 C925 0.952 . S
H937 C927 0.948 . S
C938 C904 1.395 . S
C938 C908 1.391 . S
C939 C901 1.389 . S
C939 C921 1.392 . S
C940 C911 1.392 . S
C940 C913 1.389 . S
C941 C916 1.395 . S
C941 C918 1.391 . S
H942 C902 0.951 . S
H943 C903 0.950 . S
H944 C909 0.949 . S
H945 C910 0.946 1_565 S
H946 C914 0.951 . S
H947 C915 0.950 . S
H948 C919 0.949 . S
H949 C920 0.950 . S
H950 C924 0.950 . S
H951 C926 0.950 1_565 S
H952 C929 0.950 . S
H953 C931 0.950 . S
C954 C955 1.443 . S
C954 N958 1.376 . S
C954 C992 1.389 . S
C955 C954 1.443 . S
C955 C956 1.340 . S
C955 H995 0.951 . S
C956 C955 1.340 . S
C956 C957 1.439 . S
C956 H996 0.950 . S
C957 C956 1.439 . S
C957 N958 1.374 . S
C957 C991 1.395 . S
N958 C954 1.376 . S
N958 C957 1.374 . S
N958 Co959 2.008 . S
Co959 N958 2.008 . S
Co959 N960 1.995 . S
Co959 N965 2.008 . S
Co959 N970 1.995 . S
Co959 N975 2.282 . S
Co959 N981 2.282 . S
N960 Co959 1.995 . S
N960 C961 1.376 . S
N960 C964 1.383 . S
C961 N960 1.376 . S
C961 C962 1.446 . S
C961 C991 1.391 . S
C962 C961 1.446 . S
C962 C963 1.339 . S
C962 H997 0.949 . S
C963 C962 1.339 . S
C963 C964 1.439 . S
C963 H998 0.950 . S
C964 N960 1.383 . S
C964 C963 1.439 . S
C964 C993 1.392 . S
N965 Co959 2.008 . S
N965 C966 1.376 . S
N965 C969 1.374 . S
C966 N965 1.376 . S
C966 C967 1.443 . S
C966 C993 1.389 . S
C967 C966 1.443 . S
C967 C968 1.340 . S
C967 H999 0.951 . S
C968 C967 1.340 . S
C968 C969 1.439 . S
C968 H1000 0.950 . S
C969 N965 1.374 . S
C969 C968 1.439 . S
C969 C994 1.395 . S
N970 Co959 1.995 . S
N970 C971 1.376 . S
N970 C974 1.383 . S
C971 N970 1.376 . S
C971 C972 1.446 . S
C971 C994 1.391 . S
C972 C971 1.446 . S
C972 C973 1.339 . S
C972 H1001 0.949 . S
C973 C972 1.339 . S
C973 C974 1.439 . S
C973 H1002 0.950 . S
C974 N970 1.383 . S
C974 C973 1.439 . S
C974 C992 1.392 . S
N975 Co959 2.282 . S
N975 C978 1.332 . S
N975 C980 1.332 . S
C976 C977 1.386 . S
C976 C979 1.388 . S
C977 C976 1.386 . S
C977 C978 1.382 . S
C977 H1003 0.950 . S
C978 N975 1.332 . S
C978 C977 1.382 . S
C978 H989 0.952 . S
C979 C976 1.388 . S
C979 C980 1.382 . S
C979 H1004 0.950 . S
C980 N975 1.332 . S
C980 C979 1.382 . S
C980 H990 0.948 . S
N981 Co959 2.282 . S
N981 C985 1.332 . S
N981 C986 1.332 . S
C982 C983 1.388 . S
C982 C986 1.382 . S
C982 H1005 0.950 . S
C983 C982 1.388 . S
C983 C984 1.386 . S
C984 C983 1.386 . S
C984 C985 1.382 . S
C984 H1006 0.950 . S
C985 N981 1.332 . S
C985 C984 1.382 . S
C985 H987 0.952 . S
C986 N981 1.332 . S
C986 C982 1.382 . S
C986 H988 0.948 . S
H987 C985 0.952 . S
H988 C986 0.948 . S
H989 C978 0.952 . S
H990 C980 0.948 . S
C991 C957 1.395 . S
C991 C961 1.391 . S
C992 C954 1.389 . S
C992 C974 1.392 . S
C993 C964 1.392 . S
C993 C966 1.389 . S
C994 C969 1.395 . S
C994 C971 1.391 . S
H995 C955 0.951 . S
H996 C956 0.950 . S
H997 C962 0.949 . S
H998 C963 0.950 . S
H999 C967 0.951 . S
H1000 C968 0.950 . S
H1001 C972 0.949 . S
H1002 C973 0.950 . S
H1003 C977 0.950 . S
H1004 C979 0.950 . S
H1005 C982 0.950 . S
H1006 C984 0.950 . S
C1007 C1008 1.443 . S
C1007 N1011 1.376 . S
C1007 C1045 1.389 . S
C1008 C1007 1.443 . S
C1008 C1009 1.340 . S
C1008 H1048 0.951 . S
C1009 C1008 1.340 . S
C1009 C1010 1.439 . S
C1009 H1049 0.950 . S
C1010 C1009 1.439 . S
C1010 N1011 1.374 . S
C1010 C1044 1.395 . S
N1011 C1007 1.376 . S
N1011 C1010 1.374 . S
N1011 Co1012 2.008 . S
Co1012 N1011 2.008 . S
Co1012 N1013 1.995 . S
Co1012 N1018 2.008 . S
Co1012 N1023 1.995 . S
Co1012 N1028 2.282 . S
Co1012 N1034 2.282 . S
N1013 Co1012 1.995 . S
N1013 C1014 1.376 . S
N1013 C1017 1.383 . S
C1014 N1013 1.376 . S
C1014 C1015 1.446 . S
C1014 C1044 1.391 . S
C1015 C1014 1.446 . S
C1015 C1016 1.339 . S
C1015 H1050 0.949 . S
C1016 C1015 1.339 . S
C1016 C1017 1.439 . S
C1016 H1051 0.950 . S
C1017 N1013 1.383 . S
C1017 C1016 1.439 . S
C1017 C1046 1.392 . S
N1018 Co1012 2.008 . S
N1018 C1019 1.376 . S
N1018 C1022 1.374 . S
C1019 N1018 1.376 . S
C1019 C1020 1.443 . S
C1019 C1046 1.389 . S
C1020 C1019 1.443 . S
C1020 C1021 1.340 . S
C1020 H1052 0.951 . S
C1021 C1020 1.340 . S
C1021 C1022 1.439 . S
C1021 H1053 0.950 . S
C1022 N1018 1.374 . S
C1022 C1021 1.439 . S
C1022 C1047 1.395 . S
N1023 Co1012 1.995 . S
N1023 C1024 1.376 . S
N1023 C1027 1.383 . S
C1024 N1023 1.376 . S
C1024 C1025 1.446 . S
C1024 C1047 1.391 . S
C1025 C1024 1.446 . S
C1025 C1026 1.339 . S
C1025 H1054 0.949 . S
C1026 C1025 1.339 . S
C1026 C1027 1.439 . S
C1026 H1055 0.950 . S
C1027 N1023 1.383 . S
C1027 C1026 1.439 . S
C1027 C1045 1.392 . S
N1028 Co1012 2.282 . S
N1028 C1031 1.332 . S
N1028 C1033 1.332 . S
C1029 C1030 1.386 . S
C1029 C1032 1.388 . S
C1030 C1029 1.386 . S
C1030 C1031 1.382 . S
C1030 H1056 0.950 . S
C1031 N1028 1.332 . S
C1031 C1030 1.382 . S
C1031 H1042 0.952 . S
C1032 C1029 1.388 . S
C1032 C1033 1.382 . S
C1032 H1057 0.950 . S
C1033 N1028 1.332 . S
C1033 C1032 1.382 . S
C1033 H1043 0.948 . S
N1034 Co1012 2.282 . S
N1034 C1038 1.332 . S
N1034 C1039 1.332 . S
C1035 C1036 1.388 . S
C1035 C1039 1.382 . S
C1035 H1058 0.950 . S
C1036 C1035 1.388 . S
C1036 C1037 1.386 . S
C1037 C1036 1.386 . S
C1037 C1038 1.382 . S
C1037 H1059 0.950 . S
C1038 N1034 1.332 . S
C1038 C1037 1.382 . S
C1038 H1040 0.952 . S
C1039 N1034 1.332 . S
C1039 C1035 1.382 . S
C1039 H1041 0.948 . S
H1040 C1038 0.952 . S
H1041 C1039 0.948 . S
H1042 C1031 0.952 . S
H1043 C1033 0.948 . S
C1044 C1010 1.395 . S
C1044 C1014 1.391 . S
C1045 C1007 1.389 . S
C1045 C1027 1.392 . S
C1046 C1017 1.392 . S
C1046 C1019 1.389 . S
C1047 C1022 1.395 . S
C1047 C1024 1.391 . S
H1048 C1008 0.951 . S
H1049 C1009 0.950 . S
H1050 C1015 0.949 . S
H1051 C1016 0.950 . S
H1052 C1020 0.951 . S
H1053 C1021 0.950 . S
H1054 C1025 0.949 . S
H1055 C1026 0.950 . S
H1056 C1030 0.950 . S
H1057 C1032 0.950 . S
H1058 C1035 0.950 . S
H1059 C1037 0.950 . S
C1060 C1061 1.443 . S
C1060 N1064 1.376 . S
C1060 C1098 1.389 . S
C1061 C1060 1.443 . S
C1061 C1062 1.340 . S
C1061 H1101 0.951 . S
C1062 C1061 1.340 . S
C1062 C1063 1.439 . S
C1062 H1102 0.950 . S
C1063 C1062 1.439 . S
C1063 N1064 1.374 . S
C1063 C1097 1.395 . S
N1064 C1060 1.376 . S
N1064 C1063 1.374 . S
N1064 Co1065 2.008 . S
Co1065 N1064 2.008 . S
Co1065 N1066 1.995 . S
Co1065 N1071 2.008 . S
Co1065 N1076 1.995 . S
Co1065 N1081 2.282 . S
Co1065 N1087 2.282 . S
N1066 Co1065 1.995 . S
N1066 C1067 1.376 . S
N1066 C1070 1.383 . S
C1067 N1066 1.376 . S
C1067 C1068 1.446 . S
C1067 C1097 1.391 . S
C1068 C1067 1.446 . S
C1068 C1069 1.339 . S
C1068 H1103 0.949 . S
C1069 C1068 1.339 . S
C1069 C1070 1.439 . S
C1069 H1104 0.950 . S
C1070 N1066 1.383 . S
C1070 C1069 1.439 . S
C1070 C1099 1.392 . S
N1071 Co1065 2.008 . S
N1071 C1072 1.376 . S
N1071 C1075 1.374 . S
C1072 N1071 1.376 . S
C1072 C1073 1.443 . S
C1072 C1099 1.389 . S
C1073 C1072 1.443 . S
C1073 C1074 1.340 . S
C1073 H1105 0.951 . S
C1074 C1073 1.340 . S
C1074 C1075 1.439 . S
C1074 H1106 0.950 . S
C1075 N1071 1.374 . S
C1075 C1074 1.439 . S
C1075 C1100 1.395 . S
N1076 Co1065 1.995 . S
N1076 C1077 1.376 . S
N1076 C1080 1.383 . S
C1077 N1076 1.376 . S
C1077 C1078 1.446 . S
C1077 C1100 1.391 . S
C1078 C1077 1.446 . S
C1078 C1079 1.339 . S
C1078 H1107 0.949 . S
C1079 C1078 1.339 . S
C1079 C1080 1.439 . S
C1079 H1108 0.950 . S
C1080 N1076 1.383 . S
C1080 C1079 1.439 . S
C1080 C1098 1.392 . S
N1081 Co1065 2.282 . S
N1081 C1084 1.332 . S
N1081 C1086 1.332 . S
C1082 C1083 1.386 . S
C1082 C1085 1.388 . S
C1083 C1082 1.386 . S
C1083 C1084 1.382 . S
C1083 H1109 0.950 . S
C1084 N1081 1.332 . S
C1084 C1083 1.382 . S
C1084 H1095 0.952 . S
C1085 C1082 1.388 . S
C1085 C1086 1.382 . S
C1085 H1110 0.950 . S
C1086 N1081 1.332 . S
C1086 C1085 1.382 . S
C1086 H1096 0.948 . S
N1087 Co1065 2.282 . S
N1087 C1091 1.332 . S
N1087 C1092 1.332 . S
C1088 C1089 1.388 . S
C1088 C1092 1.382 . S
C1088 H1111 0.950 . S
C1089 C1088 1.388 . S
C1089 C1090 1.386 . S
C1090 C1089 1.386 . S
C1090 C1091 1.382 . S
C1090 H1112 0.950 . S
C1091 N1087 1.332 . S
C1091 C1090 1.382 . S
C1091 H1093 0.952 . S
C1092 N1087 1.332 . S
C1092 C1088 1.382 . S
C1092 H1094 0.948 . S
H1093 C1091 0.952 . S
H1094 C1092 0.948 . S
H1095 C1084 0.952 . S
H1096 C1086 0.948 . S
C1097 C1063 1.395 . S
C1097 C1067 1.391 . S
C1098 C1060 1.389 . S
C1098 C1080 1.392 . S
C1099 C1070 1.392 . S
C1099 C1072 1.389 . S
C1100 C1075 1.395 . S
C1100 C1077 1.391 . S
H1101 C1061 0.951 . S
H1102 C1062 0.950 . S
H1103 C1068 0.949 . S
H1104 C1069 0.950 . S
H1105 C1073 0.951 . S
H1106 C1074 0.950 . S
H1107 C1078 0.949 . S
H1108 C1079 0.950 . S
H1109 C1083 0.950 . S
H1110 C1085 0.950 . S
H1111 C1088 0.950 . S
H1112 C1090 0.950 . S
C1113 C1114 1.443 . S
C1113 N1117 1.376 . S
C1113 C1151 1.389 . S
C1114 C1113 1.443 . S
C1114 C1115 1.340 . S
C1114 H1154 0.951 . S
C1115 C1114 1.340 . S
C1115 C1116 1.439 . S
C1115 H1155 0.950 . S
C1116 C1115 1.439 . S
C1116 N1117 1.374 . S
C1116 C1150 1.395 . S
N1117 C1113 1.376 . S
N1117 C1116 1.374 . S
N1117 Co1118 2.008 . S
Co1118 N1117 2.008 . S
Co1118 N1119 1.995 . S
Co1118 N1124 2.008 . S
Co1118 N1129 1.995 . S
Co1118 N1134 2.282 . S
Co1118 N1140 2.282 . S
N1119 Co1118 1.995 . S
N1119 C1120 1.376 . S
N1119 C1123 1.383 . S
C1120 N1119 1.376 . S
C1120 C1121 1.446 . S
C1120 C1150 1.391 . S
C1121 C1120 1.446 . S
C1121 C1122 1.339 . S
C1121 H1156 0.949 . S
C1122 C1121 1.339 . S
C1122 C1123 1.439 . S
C1122 H1157 0.950 . S
C1123 N1119 1.383 . S
C1123 C1122 1.439 . S
C1123 C1152 1.392 . S
N1124 Co1118 2.008 . S
N1124 C1125 1.376 . S
N1124 C1128 1.374 . S
C1125 N1124 1.376 . S
C1125 C1126 1.443 . S
C1125 C1152 1.389 . S
C1126 C1125 1.443 . S
C1126 C1127 1.340 . S
C1126 H1158 0.951 . S
C1127 C1126 1.340 . S
C1127 C1128 1.439 . S
C1127 H1159 0.950 . S
C1128 N1124 1.374 . S
C1128 C1127 1.439 . S
C1128 C1153 1.395 . S
N1129 Co1118 1.995 . S
N1129 C1130 1.376 . S
N1129 C1133 1.383 . S
C1130 N1129 1.376 . S
C1130 C1131 1.446 . S
C1130 C1153 1.391 . S
C1131 C1130 1.446 . S
C1131 C1132 1.339 . S
C1131 H1160 0.949 . S
C1132 C1131 1.339 . S
C1132 C1133 1.439 . S
C1132 H1161 0.950 . S
C1133 N1129 1.383 . S
C1133 C1132 1.439 . S
C1133 C1151 1.392 . S
N1134 Co1118 2.282 . S
N1134 C1137 1.332 . S
N1134 C1139 1.332 . S
C1135 C1136 1.386 . S
C1135 C1138 1.388 . S
C1136 C1135 1.386 . S
C1136 C1137 1.382 . S
C1136 H1162 0.950 . S
C1137 N1134 1.332 . S
C1137 C1136 1.382 . S
C1137 H1148 0.952 . S
C1138 C1135 1.388 . S
C1138 C1139 1.382 . S
C1138 H1163 0.950 . S
C1139 N1134 1.332 . S
C1139 C1138 1.382 . S
C1139 H1149 0.948 . S
N1140 Co1118 2.282 . S
N1140 C1144 1.332 . S
N1140 C1145 1.332 . S
C1141 C1142 1.388 . S
C1141 C1145 1.382 . S
C1141 H1164 0.950 . S
C1142 C1141 1.388 . S
C1142 C1143 1.386 . S
C1143 C1142 1.386 . S
C1143 C1144 1.382 . S
C1143 H1165 0.950 . S
C1144 N1140 1.332 . S
C1144 C1143 1.382 . S
C1144 H1146 0.952 . S
C1145 N1140 1.332 . S
C1145 C1141 1.382 . S
C1145 H1147 0.948 . S
H1146 C1144 0.952 . S
H1147 C1145 0.948 . S
H1148 C1137 0.952 . S
H1149 C1139 0.948 . S
C1150 C1116 1.395 . S
C1150 C1120 1.391 . S
C1151 C1113 1.389 . S
C1151 C1133 1.392 . S
C1152 C1123 1.392 . S
C1152 C1125 1.389 . S
C1153 C1128 1.395 . S
C1153 C1130 1.391 . S
H1154 C1114 0.951 . S
H1155 C1115 0.950 . S
H1156 C1121 0.949 . S
H1157 C1122 0.950 . S
H1158 C1126 0.951 . S
H1159 C1127 0.950 . S
H1160 C1131 0.949 . S
H1161 C1132 0.950 . S
H1162 C1136 0.950 . S
H1163 C1138 0.950 . S
H1164 C1141 0.950 . S
H1165 C1143 0.950 . S
C1166 C1167 1.443 . S
C1166 N1170 1.376 . S
C1166 C1204 1.389 . S
C1167 C1166 1.443 . S
C1167 C1168 1.340 . S
C1167 H1207 0.951 . S
C1168 C1167 1.340 . S
C1168 C1169 1.439 . S
C1168 H1208 0.950 . S
C1169 C1168 1.439 . S
C1169 N1170 1.374 . S
C1169 C1203 1.395 . S
N1170 C1166 1.376 . S
N1170 C1169 1.374 . S
N1170 Co1171 2.008 . S
Co1171 N1170 2.008 . S
Co1171 N1172 1.995 . S
Co1171 N1177 2.008 . S
Co1171 N1182 1.995 . S
Co1171 N1187 2.282 . S
Co1171 N1193 2.282 . S
N1172 Co1171 1.995 . S
N1172 C1173 1.376 . S
N1172 C1176 1.383 . S
C1173 N1172 1.376 . S
C1173 C1174 1.446 . S
C1173 C1203 1.391 . S
C1174 C1173 1.446 . S
C1174 C1175 1.339 . S
C1174 H1209 0.949 . S
C1175 C1174 1.339 . S
C1175 C1176 1.439 . S
C1175 H1210 0.950 . S
C1176 N1172 1.383 . S
C1176 C1175 1.439 . S
C1176 C1205 1.392 . S
N1177 Co1171 2.008 . S
N1177 C1178 1.376 . S
N1177 C1181 1.374 . S
C1178 N1177 1.376 . S
C1178 C1179 1.443 . S
C1178 C1205 1.389 . S
C1179 C1178 1.443 . S
C1179 C1180 1.340 . S
C1179 H1211 0.951 . S
C1180 C1179 1.340 . S
C1180 C1181 1.439 . S
C1180 H1212 0.950 . S
C1181 N1177 1.374 . S
C1181 C1180 1.439 . S
C1181 C1206 1.395 . S
N1182 Co1171 1.995 . S
N1182 C1183 1.376 . S
N1182 C1186 1.383 . S
C1183 N1182 1.376 . S
C1183 C1184 1.446 . S
C1183 C1206 1.391 . S
C1184 C1183 1.446 . S
C1184 C1185 1.339 . S
C1184 H1213 0.949 . S
C1185 C1184 1.339 . S
C1185 C1186 1.439 . S
C1185 H1214 0.950 . S
C1186 N1182 1.383 . S
C1186 C1185 1.439 . S
C1186 C1204 1.392 . S
N1187 Co1171 2.282 . S
N1187 C1190 1.332 . S
N1187 C1192 1.332 . S
C1188 C1189 1.386 . S
C1188 C1191 1.388 . S
C1189 C1188 1.386 . S
C1189 C1190 1.382 . S
C1189 H1215 0.950 . S
C1190 N1187 1.332 . S
C1190 C1189 1.382 . S
C1190 H1201 0.952 . S
C1191 C1188 1.388 . S
C1191 C1192 1.382 . S
C1191 H1216 0.950 . S
C1192 N1187 1.332 . S
C1192 C1191 1.382 . S
C1192 H1202 0.948 . S
N1193 Co1171 2.282 . S
N1193 C1197 1.332 . S
N1193 C1198 1.332 . S
C1194 C1195 1.388 . S
C1194 C1198 1.382 . S
C1194 H1217 0.950 . S
C1195 C1194 1.388 . S
C1195 C1196 1.386 . S
C1196 C1195 1.386 . S
C1196 C1197 1.382 . S
C1196 H1218 0.950 . S
C1197 N1193 1.332 . S
C1197 C1196 1.382 . S
C1197 H1199 0.952 . S
C1198 N1193 1.332 . S
C1198 C1194 1.382 . S
C1198 H1200 0.948 . S
H1199 C1197 0.952 . S
H1200 C1198 0.948 . S
H1201 C1190 0.952 . S
H1202 C1192 0.948 . S
C1203 C1169 1.395 . S
C1203 C1173 1.391 . S
C1204 C1166 1.389 . S
C1204 C1186 1.392 . S
C1205 C1176 1.392 . S
C1205 C1178 1.389 . S
C1206 C1181 1.395 . S
C1206 C1183 1.391 . S
H1207 C1167 0.951 . S
H1208 C1168 0.950 . S
H1209 C1174 0.949 . S
H1210 C1175 0.950 . S
H1211 C1179 0.951 . S
H1212 C1180 0.950 . S
H1213 C1184 0.949 . S
H1214 C1185 0.950 . S
H1215 C1189 0.950 . S
H1216 C1191 0.950 . S
H1217 C1194 0.950 . S
H1218 C1196 0.950 . S
C1219 C1220 1.443 . S
C1219 N1223 1.376 . S
C1219 C1257 1.389 . S
C1220 C1219 1.443 . S
C1220 C1221 1.340 . S
C1220 H1260 0.951 . S
C1221 C1220 1.340 . S
C1221 C1222 1.439 . S
C1221 H1261 0.950 . S
C1222 C1221 1.439 . S
C1222 N1223 1.374 . S
C1222 C1256 1.395 . S
N1223 C1219 1.376 . S
N1223 C1222 1.374 . S
N1223 Co1224 2.008 . S
Co1224 N1223 2.008 . S
Co1224 N1225 1.995 . S
Co1224 N1230 2.008 . S
Co1224 N1235 1.995 . S
Co1224 N1240 2.282 . S
Co1224 N1246 2.282 . S
N1225 Co1224 1.995 . S
N1225 C1226 1.376 . S
N1225 C1229 1.383 . S
C1226 N1225 1.376 . S
C1226 C1227 1.446 . S
C1226 C1256 1.391 . S
C1227 C1226 1.446 . S
C1227 C1228 1.339 . S
C1227 H1262 0.949 . S
C1228 C1227 1.339 . S
C1228 C1229 1.439 . S
C1228 H1263 0.950 . S
C1229 N1225 1.383 . S
C1229 C1228 1.439 . S
C1229 C1258 1.392 . S
N1230 Co1224 2.008 . S
N1230 C1231 1.376 . S
N1230 C1234 1.374 . S
C1231 N1230 1.376 . S
C1231 C1232 1.443 . S
C1231 C1258 1.389 . S
C1232 C1231 1.443 . S
C1232 C1233 1.340 . S
C1232 H1264 0.951 . S
C1233 C1232 1.340 . S
C1233 C1234 1.439 . S
C1233 H1265 0.950 . S
C1234 N1230 1.374 . S
C1234 C1233 1.439 . S
C1234 C1259 1.395 . S
N1235 Co1224 1.995 . S
N1235 C1236 1.376 . S
N1235 C1239 1.383 . S
C1236 N1235 1.376 . S
C1236 C1237 1.446 . S
C1236 C1259 1.391 . S
C1237 C1236 1.446 . S
C1237 C1238 1.339 . S
C1237 H1266 0.949 . S
C1238 C1237 1.339 . S
C1238 C1239 1.439 . S
C1238 H1267 0.950 . S
C1239 N1235 1.383 . S
C1239 C1238 1.439 . S
C1239 C1257 1.392 . S
N1240 Co1224 2.282 . S
N1240 C1243 1.332 . S
N1240 C1245 1.332 . S
C1241 C1242 1.386 . S
C1241 C1244 1.388 . S
C1242 C1241 1.386 . S
C1242 C1243 1.382 . S
C1242 H1268 0.950 . S
C1243 N1240 1.332 . S
C1243 C1242 1.382 . S
C1243 H1254 0.952 . S
C1244 C1241 1.388 . S
C1244 C1245 1.382 . S
C1244 H1269 0.950 . S
C1245 N1240 1.332 . S
C1245 C1244 1.382 . S
C1245 H1255 0.948 . S
N1246 Co1224 2.282 . S
N1246 C1250 1.332 . S
N1246 C1251 1.332 . S
C1247 C1248 1.388 . S
C1247 C1251 1.382 . S
C1247 H1270 0.950 . S
C1248 C1247 1.388 . S
C1248 C1249 1.386 . S
C1249 C1248 1.386 . S
C1249 C1250 1.382 . S
C1249 H1271 0.950 . S
C1250 N1246 1.332 . S
C1250 C1249 1.382 . S
C1250 H1252 0.952 . S
C1251 N1246 1.332 . S
C1251 C1247 1.382 . S
C1251 H1253 0.948 . S
H1252 C1250 0.952 . S
H1253 C1251 0.948 . S
H1254 C1243 0.952 . S
H1255 C1245 0.948 . S
C1256 C1222 1.395 . S
C1256 C1226 1.391 . S
C1257 C1219 1.389 . S
C1257 C1239 1.392 . S
C1258 C1229 1.392 . S
C1258 C1231 1.389 . S
C1259 C1234 1.395 . S
C1259 C1236 1.391 . S
H1260 C1220 0.951 . S
H1261 C1221 0.950 . S
H1262 C1227 0.949 . S
H1263 C1228 0.950 . S
H1264 C1232 0.951 . S
H1265 C1233 0.950 . S
H1266 C1237 0.949 . S
H1267 C1238 0.950 . S
H1268 C1242 0.950 . S
H1269 C1244 0.950 . S
H1270 C1247 0.950 . S
H1271 C1249 0.950 . S
H1272 C1278 0.930 . S
H1273 C1281 0.930 . S
H1274 C1282 0.930 . S
H1275 C1283 0.930 . S
H1276 C1286 0.930 . S
H1277 C1287 0.930 . S
C1278 H1272 0.930 . S
C1278 C1279 1.355 . S
C1278 C1280 1.415 . S
C1279 C1278 1.355 . S
C1279 C1281 1.419 . S
C1280 C1278 1.415 . S
C1280 C1285 1.425 . S
C1280 C1287 1.409 . S
C1281 H1273 0.930 . S
C1281 C1279 1.419 . S
C1281 C1282 1.362 . S
C1282 H1274 0.930 . S
C1282 C1281 1.362 . S
C1282 C1285 1.409 . S
C1283 H1275 0.930 . S
C1283 C1284 1.355 . S
C1283 C1285 1.415 . S
C1284 C1283 1.355 . S
C1284 C1286 1.419 . S
C1285 C1280 1.425 . S
C1285 C1282 1.409 . S
C1285 C1283 1.415 . S
C1286 H1276 0.930 . S
C1286 C1284 1.419 . S
C1286 C1287 1.362 . S
C1287 H1277 0.930 . S
C1287 C1280 1.409 . S
C1287 C1286 1.362 . S
H1288 C1294 0.930 . S
H1289 C1297 0.930 . S
H1290 C1298 0.930 . S
H1291 C1299 0.930 . S
H1292 C1302 0.930 . S
H1293 C1303 0.930 . S
C1294 H1288 0.930 . S
C1294 C1295 1.355 . S
C1294 C1296 1.415 . S
C1295 C1294 1.355 . S
C1295 C1297 1.419 . S
C1296 C1294 1.415 . S
C1296 C1301 1.425 1_655 S
C1296 C1303 1.409 . S
C1297 H1289 0.930 . S
C1297 C1295 1.419 . S
C1297 C1298 1.362 1_655 S
C1298 H1290 0.930 . S
C1298 C1297 1.362 1_455 S
C1298 C1301 1.409 . S
C1299 H1291 0.930 . S
C1299 C1300 1.355 . S
C1299 C1301 1.415 . S
C1300 C1299 1.355 . S
C1300 C1302 1.419 . S
C1301 C1296 1.425 1_455 S
C1301 C1298 1.409 . S
C1301 C1299 1.415 . S
C1302 H1292 0.930 . S
C1302 C1300 1.419 . S
C1302 C1303 1.362 1_455 S
C1303 H1293 0.930 . S
C1303 C1296 1.409 . S
C1303 C1302 1.362 1_655 S
H1304 C1310 0.930 . S
H1305 C1313 0.930 . S
H1306 C1314 0.930 . S
H1307 C1315 0.930 . S
H1308 C1318 0.930 . S
H1309 C1319 0.934 . S
C1310 H1304 0.930 . S
C1310 C1311 1.355 . S
C1310 C1312 1.415 . S
C1311 C1310 1.355 . S
C1311 C1313 1.419 . S
C1312 C1310 1.415 . S
C1312 C1317 1.425 . S
C1312 C1319 1.409 . S
C1313 H1305 0.930 . S
C1313 C1311 1.419 . S
C1313 C1314 1.362 . S
C1314 H1306 0.930 . S
C1314 C1313 1.362 . S
C1314 C1317 1.409 . S
C1315 H1307 0.930 . S
C1315 C1316 1.355 . S
C1315 C1317 1.415 . S
C1316 C1315 1.355 . S
C1316 C1318 1.419 1_554 S
C1317 C1312 1.425 . S
C1317 C1314 1.409 . S
C1317 C1315 1.415 . S
C1318 H1308 0.930 . S
C1318 C1316 1.419 1_556 S
C1318 C1319 1.362 1_556 S
C1319 H1309 0.934 . S
C1319 C1312 1.409 . S
C1319 C1318 1.362 1_554 S
H1320 C1326 0.930 . S
H1321 C1329 0.930 . S
H1322 C1330 0.930 . S
H1323 C1331 0.930 . S
H1324 C1334 0.930 . S
H1325 C1335 0.930 . S
C1326 H1320 0.930 . S
C1326 C1327 1.355 . S
C1326 C1328 1.415 . S
C1327 C1326 1.355 . S
C1327 C1329 1.419 . S
C1328 C1326 1.415 . S
C1328 C1333 1.425 . S
C1328 C1335 1.409 . S
C1329 H1321 0.930 . S
C1329 C1327 1.419 . S
C1329 C1330 1.362 . S
C1330 H1322 0.930 . S
C1330 C1329 1.362 . S
C1330 C1333 1.409 . S
C1331 H1323 0.930 . S
C1331 C1332 1.355 . S
C1331 C1333 1.415 . S
C1332 C1331 1.355 . S
C1332 C1334 1.419 . S
C1333 C1328 1.425 . S
C1333 C1330 1.409 . S
C1333 C1331 1.415 . S
C1334 H1324 0.930 . S
C1334 C1332 1.419 . S
C1334 C1335 1.362 . S
C1335 H1325 0.930 . S
C1335 C1328 1.409 . S
C1335 C1334 1.362 . S
H1336 C1342 0.930 . S
H1337 C1345 0.930 . S
H1338 C1346 0.930 . S
H1339 C1347 0.930 . S
H1340 C1350 0.930 . S
H1341 C1351 0.930 . S
C1342 H1336 0.930 . S
C1342 C1343 1.355 . S
C1342 C1344 1.432 . S
C1343 C1342 1.355 . S
C1343 C1345 1.419 . S
C1344 C1342 1.432 . S
C1344 C1349 1.428 . S
C1344 C1351 1.390 1_556 S
C1345 H1337 0.930 . S
C1345 C1343 1.419 . S
C1345 C1346 1.362 . S
C1346 H1338 0.930 . S
C1346 C1345 1.362 . S
C1346 C1349 1.409 . S
C1347 H1339 0.930 . S
C1347 C1348 1.355 . S
C1347 C1349 1.415 1_554 S
C1348 C1347 1.355 . S
C1348 C1350 1.419 . S
C1349 C1344 1.428 . S
C1349 C1346 1.409 . S
C1349 C1347 1.415 1_556 S
C1350 H1340 0.930 . S
C1350 C1348 1.419 . S
C1350 C1351 1.362 . S
C1351 H1341 0.930 . S
C1351 C1344 1.390 1_554 S
C1351 C1350 1.362 . S
H1352 C1358 0.930 . S
H1353 C1361 0.930 . S
H1354 C1362 0.930 . S
H1355 C1363 0.930 . S
H1356 C1366 0.930 . S
H1357 C1367 0.930 . S
C1358 H1352 0.930 . S
C1358 C1359 1.355 . S
C1358 C1360 1.415 . S
C1359 C1358 1.355 . S
C1359 C1361 1.419 . S
C1360 C1358 1.415 . S
C1360 C1365 1.425 . S
C1360 C1367 1.409 . S
C1361 H1353 0.930 . S
C1361 C1359 1.419 . S
C1361 C1362 1.362 . S
C1362 H1354 0.930 . S
C1362 C1361 1.362 . S
C1362 C1365 1.409 . S
C1363 H1355 0.930 . S
C1363 C1364 1.355 . S
C1363 C1365 1.415 . S
C1364 C1363 1.355 . S
C1364 C1366 1.419 . S
C1365 C1360 1.425 . S
C1365 C1362 1.409 . S
C1365 C1363 1.415 . S
C1366 H1356 0.930 . S
C1366 C1364 1.419 . S
C1366 C1367 1.362 . S
C1367 H1357 0.930 . S
C1367 C1360 1.409 . S
C1367 C1366 1.362 . S
H1368 C1374 0.930 . S
H1369 C1377 0.930 . S
H1370 C1378 0.930 . S
H1371 C1379 0.930 . S
H1372 C1382 0.930 . S
H1373 C1383 0.930 . S
C1374 H1368 0.930 . S
C1374 C1375 1.355 . S
C1374 C1376 1.415 . S
C1375 C1374 1.355 . S
C1375 C1377 1.419 . S
C1376 C1374 1.415 . S
C1376 C1381 1.425 . S
C1376 C1383 1.409 . S
C1377 H1369 0.930 . S
C1377 C1375 1.419 . S
C1377 C1378 1.362 . S
C1378 H1370 0.930 . S
C1378 C1377 1.362 . S
C1378 C1381 1.409 . S
C1379 H1371 0.930 . S
C1379 C1380 1.355 . S
C1379 C1381 1.415 . S
C1380 C1379 1.355 . S
C1380 C1382 1.419 . S
C1381 C1376 1.425 . S
C1381 C1378 1.409 . S
C1381 C1379 1.415 . S
C1382 H1372 0.930 . S
C1382 C1380 1.419 . S
C1382 C1383 1.362 . S
C1383 H1373 0.930 . S
C1383 C1376 1.409 . S
C1383 C1382 1.362 . S
H1384 C1390 0.930 . S
H1385 C1393 0.930 . S
H1386 C1394 0.930 . S
H1387 C1395 0.931 1_455 S
H1388 C1398 0.930 . S
H1389 C1399 0.930 . S
C1390 H1384 0.930 . S
C1390 C1391 1.355 . S
C1390 C1392 1.415 1_455 S
C1391 C1390 1.355 . S
C1391 C1393 1.419 . S
C1392 C1390 1.415 1_655 S
C1392 C1397 1.425 1_655 S
C1392 C1399 1.409 . S
C1393 H1385 0.930 . S
C1393 C1391 1.419 . S
C1393 C1394 1.362 . S
C1394 H1386 0.930 . S
C1394 C1393 1.362 . S
C1394 C1397 1.409 . S
C1395 H1387 0.931 1_655 S
C1395 C1396 1.355 . S
C1395 C1397 1.415 1_655 S
C1396 C1395 1.355 . S
C1396 C1398 1.419 . S
C1397 C1392 1.425 1_455 S
C1397 C1394 1.409 . S
C1397 C1395 1.415 1_455 S
C1398 H1388 0.930 . S
C1398 C1396 1.419 . S
C1398 C1399 1.362 . S
C1399 H1389 0.930 . S
C1399 C1392 1.409 . S
C1399 C1398 1.362 . S
H1400 C1406 0.930 . S
H1401 C1409 0.930 . S
H1402 C1410 0.930 . S
H1403 C1411 0.930 . S
H1404 C1414 0.930 . S
H1405 C1415 0.930 . S
C1406 H1400 0.930 . S
C1406 C1407 1.355 . S
C1406 C1408 1.415 . S
C1407 C1406 1.355 . S
C1407 C1409 1.419 . S
C1408 C1406 1.415 . S
C1408 C1413 1.425 . S
C1408 C1415 1.409 . S
C1409 H1401 0.930 . S
C1409 C1407 1.419 . S
C1409 C1410 1.362 . S
C1410 H1402 0.930 . S
C1410 C1409 1.362 . S
C1410 C1413 1.409 . S
C1411 H1403 0.930 . S
C1411 C1412 1.355 . S
C1411 C1413 1.415 . S
C1412 C1411 1.355 . S
C1412 C1414 1.419 . S
C1413 C1408 1.425 . S
C1413 C1410 1.409 . S
C1413 C1411 1.415 . S
C1414 H1404 0.930 . S
C1414 C1412 1.419 . S
C1414 C1415 1.362 . S
C1415 H1405 0.930 . S
C1415 C1408 1.409 . S
C1415 C1414 1.362 . S
H1416 C1422 0.930 . S
H1417 C1425 0.930 . S
H1418 C1426 0.930 . S
H1419 C1427 0.930 . S
H1420 C1430 0.930 . S
H1421 C1431 0.930 1_545 S
C1422 H1416 0.930 . S
C1422 C1423 1.355 . S
C1422 C1424 1.415 1_545 S
C1423 C1422 1.355 . S
C1423 C1425 1.419 1_545 S
C1424 C1422 1.415 1_565 S
C1424 C1429 1.425 . S
C1424 C1431 1.409 . S
C1425 H1417 0.930 . S
C1425 C1423 1.419 1_565 S
C1425 C1426 1.362 . S
C1426 H1418 0.930 . S
C1426 C1425 1.362 . S
C1426 C1429 1.409 . S
C1427 H1419 0.930 . S
C1427 C1428 1.355 . S
C1427 C1429 1.415 . S
C1428 C1427 1.355 . S
C1428 C1430 1.419 . S
C1429 C1424 1.425 . S
C1429 C1426 1.409 . S
C1429 C1427 1.415 . S
C1430 H1420 0.930 . S
C1430 C1428 1.419 . S
C1430 C1431 1.362 . S
C1431 H1421 0.930 1_565 S
C1431 C1424 1.409 . S
C1431 C1430 1.362 . S
H1432 C1438 0.930 . S
H1433 C1441 0.930 . S
H1434 C1442 0.930 . S
H1435 C1443 0.930 . S
H1436 C1446 0.930 1_565 S
H1437 C1447 0.930 . S
C1438 H1432 0.930 . S
C1438 C1439 1.355 . S
C1438 C1440 1.415 . S
C1439 C1438 1.355 . S
C1439 C1441 1.419 . S
C1440 C1438 1.415 . S
C1440 C1445 1.425 . S
C1440 C1447 1.409 . S
C1441 H1433 0.930 . S
C1441 C1439 1.419 . S
C1441 C1442 1.362 . S
C1442 H1434 0.930 . S
C1442 C1441 1.362 . S
C1442 C1445 1.409 . S
C1443 H1435 0.930 . S
C1443 C1444 1.355 . S
C1443 C1445 1.415 . S
C1444 C1443 1.355 . S
C1444 C1446 1.419 . S
C1445 C1440 1.425 . S
C1445 C1442 1.409 . S
C1445 C1443 1.415 . S
C1446 H1436 0.930 1_545 S
C1446 C1444 1.419 . S
C1446 C1447 1.362 . S
C1447 H1437 0.930 . S
C1447 C1440 1.409 . S
C1447 C1446 1.362 . S
H1448 C1454 0.930 . S
H1449 C1457 0.930 . S
H1450 C1458 0.930 . S
H1451 C1459 0.930 . S
H1452 C1462 0.930 . S
H1453 C1463 0.930 . S
C1454 H1448 0.930 . S
C1454 C1455 1.355 . S
C1454 C1456 1.415 . S
C1455 C1454 1.355 . S
C1455 C1457 1.419 . S
C1456 C1454 1.415 . S
C1456 C1461 1.425 . S
C1456 C1463 1.409 1_545 S
C1457 H1449 0.930 . S
C1457 C1455 1.419 . S
C1457 C1458 1.362 . S
C1458 H1450 0.930 . S
C1458 C1457 1.362 . S
C1458 C1461 1.409 . S
C1459 H1451 0.930 . S
C1459 C1460 1.355 1_545 S
C1459 C1461 1.415 . S
C1460 C1459 1.355 1_565 S
C1460 C1462 1.419 . S
C1461 C1456 1.425 . S
C1461 C1458 1.409 . S
C1461 C1459 1.415 . S
C1462 H1452 0.930 . S
C1462 C1460 1.419 . S
C1462 C1463 1.362 . S
C1463 H1453 0.930 . S
C1463 C1456 1.409 1_565 S
C1463 C1462 1.362 . S
H1464 C1470 0.930 . S
H1465 C1473 0.930 . S
H1466 C1474 0.930 . S
H1467 C1475 0.930 . S
H1468 C1478 0.930 . S
H1469 C1479 0.930 . S
C1470 H1464 0.930 . S
C1470 C1471 1.355 . S
C1470 C1472 1.415 . S
C1471 C1470 1.355 . S
C1471 C1473 1.419 . S
C1472 C1470 1.415 . S
C1472 C1477 1.425 . S
C1472 C1479 1.409 . S
C1473 H1465 0.930 . S
C1473 C1471 1.419 . S
C1473 C1474 1.362 . S
C1474 H1466 0.930 . S
C1474 C1473 1.362 . S
C1474 C1477 1.409 . S
C1475 H1467 0.930 . S
C1475 C1476 1.355 . S
C1475 C1477 1.415 . S
C1476 C1475 1.355 . S
C1476 C1478 1.419 . S
C1477 C1472 1.425 . S
C1477 C1474 1.409 . S
C1477 C1475 1.415 . S
C1478 H1468 0.930 . S
C1478 C1476 1.419 . S
C1478 C1479 1.362 . S
C1479 H1469 0.930 . S
C1479 C1472 1.409 . S
C1479 C1478 1.362 . S
H1480 C1486 0.930 . S
H1481 C1489 0.930 . S
H1482 C1490 0.930 . S
H1483 C1491 0.930 . S
H1484 C1494 0.930 . S
H1485 C1495 0.930 . S
C1486 H1480 0.930 . S
C1486 C1487 1.355 . S
C1486 C1488 1.415 . S
C1487 C1486 1.355 . S
C1487 C1489 1.419 . S
C1488 C1486 1.415 . S
C1488 C1493 1.425 . S
C1488 C1495 1.409 . S
C1489 H1481 0.930 . S
C1489 C1487 1.419 . S
C1489 C1490 1.362 . S
C1490 H1482 0.930 . S
C1490 C1489 1.362 . S
C1490 C1493 1.409 . S
C1491 H1483 0.930 . S
C1491 C1492 1.355 . S
C1491 C1493 1.415 . S
C1492 C1491 1.355 . S
C1492 C1494 1.419 . S
C1493 C1488 1.425 . S
C1493 C1490 1.409 . S
C1493 C1491 1.415 . S
C1494 H1484 0.930 . S
C1494 C1492 1.419 . S
C1494 C1495 1.362 . S
C1495 H1485 0.930 . S
C1495 C1488 1.409 . S
C1495 C1494 1.362 . S
H1496 C1502 0.930 . S
H1497 C1505 0.930 . S
H1498 C1506 0.930 . S
H1499 C1507 0.930 . S
H1500 C1510 0.930 . S
H1501 C1511 0.930 . S
C1502 H1496 0.930 . S
C1502 C1503 1.355 . S
C1502 C1504 1.415 . S
C1503 C1502 1.355 . S
C1503 C1505 1.419 . S
C1504 C1502 1.415 . S
C1504 C1509 1.425 . S
C1504 C1511 1.409 . S
C1505 H1497 0.930 . S
C1505 C1503 1.419 . S
C1505 C1506 1.362 . S
C1506 H1498 0.930 . S
C1506 C1505 1.362 . S
C1506 C1509 1.409 . S
C1507 H1499 0.930 . S
C1507 C1508 1.355 . S
C1507 C1509 1.415 . S
C1508 C1507 1.355 . S
C1508 C1510 1.419 . S
C1509 C1504 1.425 . S
C1509 C1506 1.409 . S
C1509 C1507 1.415 . S
C1510 H1500 0.930 . S
C1510 C1508 1.419 . S
C1510 C1511 1.362 . S
C1511 H1501 0.930 . S
C1511 C1504 1.409 . S
C1511 C1510 1.362 . S
H1512 C1518 0.930 . S
H1513 C1521 0.930 . S
H1514 C1522 0.930 . S
H1515 C1523 0.930 . S
H1516 C1526 0.930 . S
H1517 C1527 0.930 . S
C1518 H1512 0.930 . S
C1518 C1519 1.355 . S
C1518 C1520 1.415 1_556 S
C1519 C1518 1.355 . S
C1519 C1521 1.419 . S
C1520 C1518 1.415 1_554 S
C1520 C1525 1.425 1_554 S
C1520 C1527 1.409 . S
C1521 H1513 0.930 . S
C1521 C1519 1.419 . S
C1521 C1522 1.362 . S
C1522 H1514 0.930 . S
C1522 C1521 1.362 . S
C1522 C1525 1.409 . S
C1523 H1515 0.930 . S
C1523 C1524 1.355 . S
C1523 C1525 1.415 1_554 S
C1524 C1523 1.355 . S
C1524 C1526 1.419 . S
C1525 C1520 1.425 1_556 S
C1525 C1522 1.409 . S
C1525 C1523 1.415 1_556 S
C1526 H1516 0.930 . S
C1526 C1524 1.419 . S
C1526 C1527 1.362 . S
C1527 H1517 0.930 . S
C1527 C1520 1.409 . S
C1527 C1526 1.362 . S
H1528 C1534 0.930 . S
H1529 C1537 0.930 . S
H1530 C1538 0.930 . S
H1531 C1539 0.930 . S
H1532 C1542 0.930 . S
H1533 C1543 0.930 . S
C1534 H1528 0.930 . S
C1534 C1535 1.355 . S
C1534 C1536 1.415 . S
C1535 C1534 1.355 . S
C1535 C1537 1.419 . S
C1536 C1534 1.415 . S
C1536 C1541 1.425 . S
C1536 C1543 1.409 . S
C1537 H1529 0.930 . S
C1537 C1535 1.419 . S
C1537 C1538 1.362 . S
C1538 H1530 0.930 . S
C1538 C1537 1.362 . S
C1538 C1541 1.409 . S
C1539 H1531 0.930 . S
C1539 C1540 1.355 . S
C1539 C1541 1.415 . S
C1540 C1539 1.355 . S
C1540 C1542 1.419 . S
C1541 C1536 1.425 . S
C1541 C1538 1.409 . S
C1541 C1539 1.415 . S
C1542 H1532 0.930 . S
C1542 C1540 1.419 . S
C1542 C1543 1.362 . S
C1543 H1533 0.930 . S
C1543 C1536 1.409 . S
C1543 C1542 1.362 . S
H1544 C1550 0.930 . S
H1545 C1553 0.930 . S
H1546 C1554 0.930 . S
H1547 C1555 0.930 . S
H1548 C1558 0.930 . S
H1549 C1559 0.930 . S
C1550 H1544 0.930 . S
C1550 C1551 1.355 . S
C1550 C1552 1.415 . S
C1551 C1550 1.355 . S
C1551 C1553 1.419 . S
C1552 C1550 1.415 . S
C1552 C1557 1.425 . S
C1552 C1559 1.409 . S
C1553 H1545 0.930 . S
C1553 C1551 1.419 . S
C1553 C1554 1.362 . S
C1554 H1546 0.930 . S
C1554 C1553 1.362 . S
C1554 C1557 1.409 . S
C1555 H1547 0.930 . S
C1555 C1556 1.355 . S
C1555 C1557 1.415 . S
C1556 C1555 1.355 . S
C1556 C1558 1.419 . S
C1557 C1552 1.425 . S
C1557 C1554 1.409 . S
C1557 C1555 1.415 . S
C1558 H1548 0.930 . S
C1558 C1556 1.419 . S
C1558 C1559 1.362 . S
C1559 H1549 0.930 . S
C1559 C1552 1.409 . S
C1559 C1558 1.362 . S
H1560 C1566 0.930 . S
H1561 C1569 0.930 . S
H1562 C1570 0.930 . S
H1563 C1571 0.930 . S
H1564 C1574 0.930 1_455 S
H1565 C1575 0.930 . S
C1566 H1560 0.930 . S
C1566 C1567 1.355 . S
C1566 C1568 1.415 . S
C1567 C1566 1.355 . S
C1567 C1569 1.419 . S
C1568 C1566 1.415 . S
C1568 C1573 1.425 . S
C1568 C1575 1.409 . S
C1569 H1561 0.930 . S
C1569 C1567 1.419 . S
C1569 C1570 1.362 . S
C1570 H1562 0.930 . S
C1570 C1569 1.362 . S
C1570 C1573 1.409 . S
C1571 H1563 0.930 . S
C1571 C1572 1.355 . S
C1571 C1573 1.415 1_455 S
C1572 C1571 1.355 . S
C1572 C1574 1.419 1_455 S
C1573 C1568 1.425 . S
C1573 C1570 1.409 . S
C1573 C1571 1.415 1_655 S
C1574 H1564 0.930 1_655 S
C1574 C1572 1.419 1_655 S
C1574 C1575 1.362 . S
C1575 H1565 0.930 . S
C1575 C1568 1.409 . S
C1575 C1574 1.362 . S
H1576 C1582 0.930 . S
H1577 C1585 0.930 . S
H1578 C1586 0.930 . S
H1579 C1587 0.930 . S
H1580 C1590 0.930 . S
H1581 C1591 0.930 . S
C1582 H1576 0.930 . S
C1582 C1583 1.355 . S
C1582 C1584 1.415 . S
C1583 C1582 1.355 . S
C1583 C1585 1.419 . S
C1584 C1582 1.415 . S
C1584 C1589 1.425 . S
C1584 C1591 1.409 . S
C1585 H1577 0.930 . S
C1585 C1583 1.419 . S
C1585 C1586 1.362 . S
C1586 H1578 0.930 . S
C1586 C1585 1.362 . S
C1586 C1589 1.409 . S
C1587 H1579 0.930 . S
C1587 C1588 1.355 . S
C1587 C1589 1.415 . S
C1588 C1587 1.355 . S
C1588 C1590 1.419 . S
C1589 C1584 1.425 . S
C1589 C1586 1.409 . S
C1589 C1587 1.415 . S
C1590 H1580 0.930 . S
C1590 C1588 1.419 . S
C1590 C1591 1.362 . S
C1591 H1581 0.930 . S
C1591 C1584 1.409 . S
C1591 C1590 1.362 . S
H1592 C1598 0.930 . S
H1593 C1601 0.930 . S
H1594 C1602 0.930 1_655 S
H1595 C1603 0.930 . S
H1596 C1606 0.930 . S
H1597 C1607 0.930 . S
C1598 H1592 0.930 . S
C1598 C1599 1.355 . S
C1598 C1600 1.415 . S
C1599 C1598 1.355 . S
C1599 C1601 1.419 . S
C1600 C1598 1.415 . S
C1600 C1605 1.425 . S
C1600 C1607 1.409 . S
C1601 H1593 0.930 . S
C1601 C1599 1.419 . S
C1601 C1602 1.362 . S
C1602 H1594 0.930 1_455 S
C1602 C1601 1.362 . S
C1602 C1605 1.409 . S
C1603 H1595 0.930 . S
C1603 C1604 1.355 . S
C1603 C1605 1.415 1_655 S
C1604 C1603 1.355 . S
C1604 C1606 1.419 1_655 S
C1605 C1600 1.425 . S
C1605 C1602 1.409 . S
C1605 C1603 1.415 1_455 S
C1606 H1596 0.930 . S
C1606 C1604 1.419 1_455 S
C1606 C1607 1.362 . S
C1607 H1597 0.930 . S
C1607 C1600 1.409 . S
C1607 C1606 1.362 . S
H1608 C1614 0.930 . S
H1609 C1617 0.930 . S
H1610 C1618 0.930 . S
H1611 C1619 0.930 . S
H1612 C1622 0.930 . S
H1613 C1623 0.930 . S
C1614 H1608 0.930 . S
C1614 C1615 1.355 . S
C1614 C1616 1.415 . S
C1615 C1614 1.355 . S
C1615 C1617 1.419 . S
C1616 C1614 1.415 . S
C1616 C1621 1.425 . S
C1616 C1623 1.409 1_556 S
C1617 H1609 0.930 . S
C1617 C1615 1.419 . S
C1617 C1618 1.362 . S
C1618 H1610 0.930 . S
C1618 C1617 1.362 . S
C1618 C1621 1.409 . S
C1619 H1611 0.930 . S
C1619 C1620 1.355 1_556 S
C1619 C1621 1.415 . S
C1620 C1619 1.355 1_554 S
C1620 C1622 1.419 . S
C1621 C1616 1.425 . S
C1621 C1618 1.409 . S
C1621 C1619 1.415 . S
C1622 H1612 0.930 . S
C1622 C1620 1.419 . S
C1622 C1623 1.362 . S
C1623 H1613 0.930 . S
C1623 C1616 1.409 1_554 S
C1623 C1622 1.362 . S
H1624 C1630 0.930 . S
H1625 C1633 0.930 . S
H1626 C1634 0.930 . S
H1627 C1635 0.930 . S
H1628 C1638 0.930 . S
H1629 C1639 0.930 . S
C1630 H1624 0.930 . S
C1630 C1631 1.355 . S
C1630 C1632 1.415 . S
C1631 C1630 1.355 . S
C1631 C1633 1.419 . S
C1632 C1630 1.415 . S
C1632 C1637 1.425 . S
C1632 C1639 1.409 . S
C1633 H1625 0.930 . S
C1633 C1631 1.419 . S
C1633 C1634 1.362 . S
C1634 H1626 0.930 . S
C1634 C1633 1.362 . S
C1634 C1637 1.409 . S
C1635 H1627 0.930 . S
C1635 C1636 1.355 . S
C1635 C1637 1.415 . S
C1636 C1635 1.355 . S
C1636 C1638 1.419 . S
C1637 C1632 1.425 . S
C1637 C1634 1.409 . S
C1637 C1635 1.415 . S
C1638 H1628 0.930 . S
C1638 C1636 1.419 . S
C1638 C1639 1.362 . S
C1639 H1629 0.930 . S
C1639 C1632 1.409 . S
C1639 C1638 1.362 . S
H1640 C1646 0.930 . S
H1641 C1649 0.930 . S
H1642 C1650 0.930 . S
H1643 C1651 0.930 . S
H1644 C1654 0.930 . S
H1645 C1655 0.930 . S
C1646 H1640 0.930 . S
C1646 C1647 1.355 . S
C1646 C1648 1.415 . S
C1647 C1646 1.355 . S
C1647 C1649 1.419 . S
C1648 C1646 1.415 . S
C1648 C1653 1.425 . S
C1648 C1655 1.409 1_565 S
C1649 H1641 0.930 . S
C1649 C1647 1.419 . S
C1649 C1650 1.362 . S
C1650 H1642 0.930 . S
C1650 C1649 1.362 . S
C1650 C1653 1.409 . S
C1651 H1643 0.930 . S
C1651 C1652 1.355 1_565 S
C1651 C1653 1.415 . S
C1652 C1651 1.355 1_545 S
C1652 C1654 1.419 . S
C1653 C1648 1.425 . S
C1653 C1650 1.409 . S
C1653 C1651 1.415 . S
C1654 H1644 0.930 . S
C1654 C1652 1.419 . S
C1654 C1655 1.362 . S
C1655 H1645 0.930 . S
C1655 C1648 1.409 1_545 S
C1655 C1654 1.362 . S
H1656 C1662 0.930 . S
H1657 C1665 0.930 . S
H1658 C1666 0.930 . S
H1659 C1667 0.930 . S
H1660 C1670 0.930 . S
H1661 C1671 0.930 . S
C1662 H1656 0.930 . S
C1662 C1663 1.355 . S
C1662 C1664 1.415 . S
C1663 C1662 1.355 . S
C1663 C1665 1.419 . S
C1664 C1662 1.415 . S
C1664 C1669 1.425 . S
C1664 C1671 1.409 . S
C1665 H1657 0.930 . S
C1665 C1663 1.419 . S
C1665 C1666 1.362 . S
C1666 H1658 0.930 . S
C1666 C1665 1.362 . S
C1666 C1669 1.409 . S
C1667 H1659 0.930 . S
C1667 C1668 1.355 . S
C1667 C1669 1.415 . S
C1668 C1667 1.355 . S
C1668 C1670 1.419 . S
C1669 C1664 1.425 . S
C1669 C1666 1.409 . S
C1669 C1667 1.415 . S
C1670 H1660 0.930 . S
C1670 C1668 1.419 . S
C1670 C1671 1.362 . S
C1671 H1661 0.930 . S
C1671 C1664 1.409 . S
C1671 C1670 1.362 . S
H1672 C1678 0.930 . S
H1673 C1681 0.930 . S
H1674 C1682 0.930 . S
H1675 C1683 0.930 . S
H1676 C1686 0.930 . S
H1677 C1687 0.930 . S
C1678 H1672 0.930 . S
C1678 C1679 1.355 . S
C1678 C1680 1.415 . S
C1679 C1678 1.355 . S
C1679 C1681 1.419 . S
C1680 C1678 1.415 . S
C1680 C1685 1.425 . S
C1680 C1687 1.409 . S
C1681 H1673 0.930 . S
C1681 C1679 1.419 . S
C1681 C1682 1.362 . S
C1682 H1674 0.930 . S
C1682 C1681 1.362 . S
C1682 C1685 1.409 . S
C1683 H1675 0.930 . S
C1683 C1684 1.355 . S
C1683 C1685 1.415 . S
C1684 C1683 1.355 . S
C1684 C1686 1.419 . S
C1685 C1680 1.425 . S
C1685 C1682 1.409 . S
C1685 C1683 1.415 . S
C1686 H1676 0.930 . S
C1686 C1684 1.419 . S
C1686 C1687 1.362 . S
C1687 H1677 0.930 . S
C1687 C1680 1.409 . S
C1687 C1686 1.362 . S
H1688 C1694 0.930 . S
H1689 C1697 0.930 . S
H1690 C1698 0.930 . S
H1691 C1699 0.930 . S
H1692 C1702 0.930 . S
H1693 C1703 0.930 . S
C1694 H1688 0.930 . S
C1694 C1695 1.355 . S
C1694 C1696 1.415 . S
C1695 C1694 1.355 . S
C1695 C1697 1.419 . S
C1696 C1694 1.415 . S
C1696 C1701 1.425 . S
C1696 C1703 1.409 . S
C1697 H1689 0.930 . S
C1697 C1695 1.419 . S
C1697 C1698 1.362 . S
C1698 H1690 0.930 . S
C1698 C1697 1.362 . S
C1698 C1701 1.409 . S
C1699 H1691 0.930 . S
C1699 C1700 1.355 . S
C1699 C1701 1.415 . S
C1700 C1699 1.355 . S
C1700 C1702 1.419 . S
C1701 C1696 1.425 . S
C1701 C1698 1.409 . S
C1701 C1699 1.415 . S
C1702 H1692 0.930 . S
C1702 C1700 1.419 . S
C1702 C1703 1.362 . S
C1703 H1693 0.930 . S
C1703 C1696 1.409 . S
C1703 C1702 1.362 . S
H1704 C1710 0.930 . S
H1705 C1713 0.930 . S
H1706 C1714 0.929 1_554 S
H1707 C1715 0.930 . S
H1708 C1718 0.930 . S
H1709 C1719 0.930 . S
C1710 H1704 0.930 . S
C1710 C1711 1.355 . S
C1710 C1712 1.415 . S
C1711 C1710 1.355 . S
C1711 C1713 1.419 . S
C1712 C1710 1.415 . S
C1712 C1717 1.425 . S
C1712 C1719 1.409 . S
C1713 H1705 0.930 . S
C1713 C1711 1.419 . S
C1713 C1714 1.363 . S
C1714 H1706 0.929 1_556 S
C1714 C1713 1.363 . S
C1714 C1717 1.409 . S
C1715 H1707 0.930 . S
C1715 C1716 1.355 . S
C1715 C1717 1.415 1_554 S
C1716 C1715 1.355 . S
C1716 C1718 1.419 1_554 S
C1717 C1712 1.425 . S
C1717 C1714 1.409 . S
C1717 C1715 1.415 1_556 S
C1718 H1708 0.930 . S
C1718 C1716 1.419 1_556 S
C1718 C1719 1.362 . S
C1719 H1709 0.930 . S
C1719 C1712 1.409 . S
C1719 C1718 1.362 . S
H1720 C1726 0.930 . S
H1721 C1729 0.930 . S
H1722 C1730 0.930 . S
H1723 C1731 0.930 . S
H1724 C1734 0.930 . S
H1725 C1735 0.930 . S
C1726 H1720 0.930 . S
C1726 C1727 1.355 . S
C1726 C1728 1.415 . S
C1727 C1726 1.355 . S
C1727 C1729 1.419 . S
C1728 C1726 1.415 . S
C1728 C1733 1.425 . S
C1728 C1735 1.409 . S
C1729 H1721 0.930 . S
C1729 C1727 1.419 . S
C1729 C1730 1.362 . S
C1730 H1722 0.930 . S
C1730 C1729 1.362 . S
C1730 C1733 1.409 . S
C1731 H1723 0.930 . S
C1731 C1732 1.355 . S
C1731 C1733 1.415 . S
C1732 C1731 1.355 . S
C1732 C1734 1.419 . S
C1733 C1728 1.425 . S
C1733 C1730 1.409 . S
C1733 C1731 1.415 . S
C1734 H1724 0.930 . S
C1734 C1732 1.419 . S
C1734 C1735 1.362 . S
C1735 H1725 0.930 . S
C1735 C1728 1.409 . S
C1735 C1734 1.362 . S
H1736 C1742 0.930 . S
H1737 C1745 0.930 1_545 S
H1738 C1746 0.930 . S
H1739 C1747 0.930 . S
H1740 C1750 0.930 . S
H1741 C1751 0.930 . S
C1742 H1736 0.930 . S
C1742 C1743 1.345 1_565 S
C1742 C1744 1.415 . S
C1743 C1742 1.345 1_545 S
C1743 C1745 1.419 1_545 S
C1744 C1742 1.415 . S
C1744 C1749 1.425 . S
C1744 C1751 1.409 . S
C1745 H1737 0.930 1_565 S
C1745 C1743 1.419 1_565 S
C1745 C1746 1.362 . S
C1746 H1738 0.930 . S
C1746 C1745 1.362 . S
C1746 C1749 1.409 . S
C1747 H1739 0.930 . S
C1747 C1748 1.355 . S
C1747 C1749 1.415 . S
C1748 C1747 1.355 . S
C1748 C1750 1.419 . S
C1749 C1744 1.425 . S
C1749 C1746 1.409 . S
C1749 C1747 1.415 . S
C1750 H1740 0.930 . S
C1750 C1748 1.419 . S
C1750 C1751 1.362 . S
C1751 H1741 0.930 . S
C1751 C1744 1.409 . S
C1751 C1750 1.362 . S
H1752 C1758 0.930 . S
H1753 C1761 0.930 . S
H1754 C1762 0.930 . S
H1755 C1763 0.936 . S
H1756 C1766 0.930 . S
H1757 C1767 0.930 . S
C1758 H1752 0.930 . S
C1758 C1759 1.355 . S
C1758 C1760 1.415 . S
C1759 C1758 1.355 . S
C1759 C1761 1.419 . S
C1760 C1758 1.415 . S
C1760 C1765 1.425 . S
C1760 C1767 1.409 1_554 S
C1761 H1753 0.930 . S
C1761 C1759 1.419 . S
C1761 C1762 1.362 . S
C1762 H1754 0.930 . S
C1762 C1761 1.362 . S
C1762 C1765 1.409 . S
C1763 H1755 0.936 . S
C1763 C1764 1.330 1_554 S
C1763 C1765 1.433 . S
C1764 C1763 1.330 1_556 S
C1764 C1766 1.419 . S
C1765 C1760 1.425 . S
C1765 C1762 1.409 . S
C1765 C1763 1.433 . S
C1766 H1756 0.930 . S
C1766 C1764 1.419 . S
C1766 C1767 1.362 . S
C1767 H1757 0.930 . S
C1767 C1760 1.409 1_556 S
C1767 C1766 1.362 . S
H1768 C1774 0.930 . S
H1769 C1777 0.930 . S
H1770 C1778 0.930 . S
H1771 C1779 0.930 . S
H1772 C1782 0.930 . S
H1773 C1783 0.930 1_545 S
C1774 H1768 0.930 . S
C1774 C1775 1.355 . S
C1774 C1776 1.415 1_545 S
C1775 C1774 1.355 . S
C1775 C1777 1.419 1_545 S
C1776 C1774 1.415 1_565 S
C1776 C1781 1.425 . S
C1776 C1783 1.409 . S
C1777 H1769 0.930 . S
C1777 C1775 1.419 1_565 S
C1777 C1778 1.362 . S
C1778 H1770 0.930 . S
C1778 C1777 1.362 . S
C1778 C1781 1.409 . S
C1779 H1771 0.930 . S
C1779 C1780 1.355 . S
C1779 C1781 1.415 . S
C1780 C1779 1.355 . S
C1780 C1782 1.419 . S
C1781 C1776 1.425 . S
C1781 C1778 1.409 . S
C1781 C1779 1.415 . S
C1782 H1772 0.930 . S
C1782 C1780 1.419 . S
C1782 C1783 1.362 . S
C1783 H1773 0.930 1_565 S
C1783 C1776 1.409 . S
C1783 C1782 1.362 . S
H1784 C1790 0.930 . S
H1785 C1793 0.930 . S
H1786 C1794 0.930 . S
H1787 C1795 0.930 . S
H1788 C1798 0.930 . S
H1789 C1799 0.930 . S
C1790 H1784 0.930 . S
C1790 C1791 1.355 . S
C1790 C1792 1.415 . S
C1791 C1790 1.355 . S
C1791 C1793 1.419 . S
C1792 C1790 1.415 . S
C1792 C1797 1.425 . S
C1792 C1799 1.409 . S
C1793 H1785 0.930 . S
C1793 C1791 1.419 . S
C1793 C1794 1.362 . S
C1794 H1786 0.930 . S
C1794 C1793 1.362 . S
C1794 C1797 1.409 . S
C1795 H1787 0.930 . S
C1795 C1796 1.355 . S
C1795 C1797 1.415 . S
C1796 C1795 1.355 . S
C1796 C1798 1.419 . S
C1797 C1792 1.425 . S
C1797 C1794 1.409 . S
C1797 C1795 1.415 . S
C1798 H1788 0.930 . S
C1798 C1796 1.419 . S
C1798 C1799 1.362 . S
C1799 H1789 0.930 . S
C1799 C1792 1.409 . S
C1799 C1798 1.362 . S
H1800 C1806 0.930 . S
H1801 C1809 0.930 . S
H1802 C1810 0.930 . S
H1803 C1811 0.930 . S
H1804 C1814 0.930 . S
H1805 C1815 0.930 . S
C1806 H1800 0.930 . S
C1806 C1807 1.355 . S
C1806 C1808 1.415 . S
C1807 C1806 1.355 . S
C1807 C1809 1.419 . S
C1808 C1806 1.415 . S
C1808 C1813 1.425 1_655 S
C1808 C1815 1.409 . S
C1809 H1801 0.930 . S
C1809 C1807 1.419 . S
C1809 C1810 1.362 1_655 S
C1810 H1802 0.930 . S
C1810 C1809 1.362 1_455 S
C1810 C1813 1.409 . S
C1811 H1803 0.930 . S
C1811 C1812 1.355 . S
C1811 C1813 1.415 . S
C1812 C1811 1.355 . S
C1812 C1814 1.419 . S
C1813 C1808 1.425 1_455 S
C1813 C1810 1.409 . S
C1813 C1811 1.415 . S
C1814 H1804 0.930 . S
C1814 C1812 1.419 . S
C1814 C1815 1.362 1_455 S
C1815 H1805 0.930 . S
C1815 C1808 1.409 . S
C1815 C1814 1.362 1_655 S
H1816 C1822 0.930 . S
H1817 C1825 0.930 . S
H1818 C1826 0.930 . S
H1819 C1827 0.930 . S
H1820 C1830 0.930 . S
H1821 C1831 0.930 1_455 S
C1822 H1816 0.930 . S
C1822 C1823 1.355 . S
C1822 C1824 1.415 1_455 S
C1823 C1822 1.355 . S
C1823 C1825 1.419 1_455 S
C1824 C1822 1.415 1_655 S
C1824 C1829 1.425 . S
C1824 C1831 1.409 . S
C1825 H1817 0.930 . S
C1825 C1823 1.419 1_655 S
C1825 C1826 1.362 . S
C1826 H1818 0.930 . S
C1826 C1825 1.362 . S
C1826 C1829 1.409 . S
C1827 H1819 0.930 . S
C1827 C1828 1.355 . S
C1827 C1829 1.415 . S
C1828 C1827 1.355 . S
C1828 C1830 1.419 . S
C1829 C1824 1.425 . S
C1829 C1826 1.409 . S
C1829 C1827 1.415 . S
C1830 H1820 0.930 . S
C1830 C1828 1.419 . S
C1830 C1831 1.362 . S
C1831 H1821 0.930 1_655 S
C1831 C1824 1.409 . S
C1831 C1830 1.362 . S
H1832 C1838 0.930 . S
H1833 C1841 0.930 . S
H1834 C1842 0.930 . S
H1835 C1843 0.930 . S
H1836 C1846 0.930 . S
H1837 C1847 0.930 . S
C1838 H1832 0.930 . S
C1838 C1839 1.355 . S
C1838 C1840 1.415 . S
C1839 C1838 1.355 . S
C1839 C1841 1.419 . S
C1840 C1838 1.415 . S
C1840 C1845 1.425 . S
C1840 C1847 1.409 . S
C1841 H1833 0.930 . S
C1841 C1839 1.419 . S
C1841 C1842 1.362 . S
C1842 H1834 0.930 . S
C1842 C1841 1.362 . S
C1842 C1845 1.409 . S
C1843 H1835 0.930 . S
C1843 C1844 1.355 . S
C1843 C1845 1.415 . S
C1844 C1843 1.355 . S
C1844 C1846 1.419 . S
C1845 C1840 1.425 . S
C1845 C1842 1.409 . S
C1845 C1843 1.415 . S
C1846 H1836 0.930 . S
C1846 C1844 1.419 . S
C1846 C1847 1.362 . S
C1847 H1837 0.930 . S
C1847 C1840 1.409 . S
C1847 C1846 1.362 . S
H1848 C1854 0.930 . S
H1849 C1857 0.930 . S
H1850 C1858 0.930 . S
H1851 C1859 0.930 . S
H1852 C1862 0.930 . S
H1853 C1863 0.930 . S
C1854 H1848 0.930 . S
C1854 C1855 1.355 . S
C1854 C1856 1.415 . S
C1855 C1854 1.355 . S
C1855 C1857 1.419 . S
C1856 C1854 1.415 . S
C1856 C1861 1.425 1_455 S
C1856 C1863 1.409 . S
C1857 H1849 0.930 . S
C1857 C1855 1.419 . S
C1857 C1858 1.362 1_455 S
C1858 H1850 0.930 . S
C1858 C1857 1.362 1_655 S
C1858 C1861 1.409 . S
C1859 H1851 0.930 . S
C1859 C1860 1.355 . S
C1859 C1861 1.415 . S
C1860 C1859 1.355 . S
C1860 C1862 1.419 . S
C1861 C1856 1.425 1_655 S
C1861 C1858 1.409 . S
C1861 C1859 1.415 . S
C1862 H1852 0.930 . S
C1862 C1860 1.419 . S
C1862 C1863 1.362 1_655 S
C1863 H1853 0.930 . S
C1863 C1856 1.409 . S
C1863 C1862 1.362 1_455 S
H1864 C1870 0.930 . S
H1865 C1873 0.930 . S
H1866 C1874 0.930 . S
H1867 C1875 0.930 . S
H1868 C1878 0.930 1_455 S
H1869 C1879 0.930 . S
C1870 H1864 0.930 . S
C1870 C1871 1.355 . S
C1870 C1872 1.415 . S
C1871 C1870 1.355 . S
C1871 C1873 1.419 1_455 S
C1872 C1870 1.415 . S
C1872 C1877 1.425 1_455 S
C1872 C1879 1.409 . S
C1873 H1865 0.930 . S
C1873 C1871 1.419 1_655 S
C1873 C1874 1.362 . S
C1874 H1866 0.930 . S
C1874 C1873 1.362 . S
C1874 C1877 1.409 . S
C1875 H1867 0.930 . S
C1875 C1876 1.355 . S
C1875 C1877 1.415 . S
C1876 C1875 1.355 . S
C1876 C1878 1.419 . S
C1877 C1872 1.425 1_655 S
C1877 C1874 1.409 . S
C1877 C1875 1.415 . S
C1878 H1868 0.930 1_655 S
C1878 C1876 1.419 . S
C1878 C1879 1.362 1_655 S
C1879 H1869 0.930 . S
C1879 C1872 1.409 . S
C1879 C1878 1.362 1_455 S
H1880 C1886 0.930 . S
H1881 C1889 0.930 . S
H1882 C1890 0.930 . S
H1883 C1891 0.930 . S
H1884 C1894 0.930 . S
H1885 C1895 0.930 . S
C1886 H1880 0.930 . S
C1886 C1887 1.355 . S
C1886 C1888 1.415 . S
C1887 C1886 1.355 . S
C1887 C1889 1.419 . S
C1888 C1886 1.415 . S
C1888 C1893 1.425 . S
C1888 C1895 1.409 . S
C1889 H1881 0.930 . S
C1889 C1887 1.419 . S
C1889 C1890 1.362 . S
C1890 H1882 0.930 . S
C1890 C1889 1.362 . S
C1890 C1893 1.409 . S
C1891 H1883 0.930 . S
C1891 C1892 1.355 . S
C1891 C1893 1.415 . S
C1892 C1891 1.355 . S
C1892 C1894 1.419 . S
C1893 C1888 1.425 . S
C1893 C1890 1.409 . S
C1893 C1891 1.415 . S
C1894 H1884 0.930 . S
C1894 C1892 1.419 . S
C1894 C1895 1.362 . S
C1895 H1885 0.930 . S
C1895 C1888 1.409 . S
C1895 C1894 1.362 . S
H1896 C1902 0.930 . S
H1897 C1905 0.930 . S
H1898 C1906 0.930 . S
H1899 C1907 0.930 1_545 S
H1900 C1910 0.930 . S
H1901 C1911 0.930 . S
C1902 H1896 0.930 . S
C1902 C1903 1.355 . S
C1902 C1904 1.415 . S
C1903 C1902 1.355 . S
C1903 C1905 1.419 . S
C1904 C1902 1.415 . S
C1904 C1909 1.425 . S
C1904 C1911 1.409 . S
C1905 H1897 0.930 . S
C1905 C1903 1.419 . S
C1905 C1906 1.362 . S
C1906 H1898 0.930 . S
C1906 C1905 1.362 . S
C1906 C1909 1.409 . S
C1907 H1899 0.930 1_565 S
C1907 C1908 1.355 . S
C1907 C1909 1.415 . S
C1908 C1907 1.355 . S
C1908 C1910 1.426 . S
C1909 C1904 1.425 . S
C1909 C1906 1.409 . S
C1909 C1907 1.415 . S
C1910 H1900 0.930 . S
C1910 C1908 1.426 . S
C1910 C1911 1.362 . S
C1911 H1901 0.930 . S
C1911 C1904 1.409 . S
C1911 C1910 1.362 . S
H1912 C1918 0.930 . S
H1913 C1921 0.930 . S
H1914 C1922 0.930 . S
H1915 C1923 0.930 . S
H1916 C1926 0.930 . S
H1917 C1927 0.930 . S
C1918 H1912 0.930 . S
C1918 C1919 1.355 . S
C1918 C1920 1.415 . S
C1919 C1918 1.355 . S
C1919 C1921 1.419 . S
C1920 C1918 1.415 . S
C1920 C1925 1.425 . S
C1920 C1927 1.409 1_556 S
C1921 H1913 0.930 . S
C1921 C1919 1.419 . S
C1921 C1922 1.362 . S
C1922 H1914 0.930 . S
C1922 C1921 1.362 . S
C1922 C1925 1.409 . S
C1923 H1915 0.930 . S
C1923 C1924 1.355 1_556 S
C1923 C1925 1.415 . S
C1924 C1923 1.355 1_554 S
C1924 C1926 1.419 . S
C1925 C1920 1.425 . S
C1925 C1922 1.409 . S
C1925 C1923 1.415 . S
C1926 H1916 0.930 . S
C1926 C1924 1.419 . S
C1926 C1927 1.362 . S
C1927 H1917 0.930 . S
C1927 C1920 1.409 1_554 S
C1927 C1926 1.362 . S
H1928 C1934 0.930 . S
H1929 C1937 0.930 . S
H1930 C1938 0.930 . S
H1931 C1939 0.930 . S
H1932 C1942 0.930 . S
H1933 C1943 0.930 . S
C1934 H1928 0.930 . S
C1934 C1935 1.355 . S
C1934 C1936 1.415 . S
C1935 C1934 1.355 . S
C1935 C1937 1.419 . S
C1936 C1934 1.415 . S
C1936 C1941 1.425 . S
C1936 C1943 1.409 . S
C1937 H1929 0.930 . S
C1937 C1935 1.419 . S
C1937 C1938 1.362 . S
C1938 H1930 0.930 . S
C1938 C1937 1.362 . S
C1938 C1941 1.409 . S
C1939 H1931 0.930 . S
C1939 C1940 1.355 1_545 S
C1939 C1941 1.415 . S
C1940 C1939 1.355 1_565 S
C1940 C1942 1.419 . S
C1941 C1936 1.425 . S
C1941 C1938 1.409 . S
C1941 C1939 1.415 . S
C1942 H1932 0.930 . S
C1942 C1940 1.419 . S
C1942 C1943 1.362 1_565 S
C1943 H1933 0.930 . S
C1943 C1936 1.409 . S
C1943 C1942 1.362 1_545 S
H1944 C1950 0.930 . S
H1945 C1953 0.930 . S
H1946 C1954 0.930 . S
H1947 C1955 0.930 . S
H1948 C1958 0.930 . S
H1949 C1959 0.930 . S
C1950 H1944 0.930 . S
C1950 C1951 1.355 . S
C1950 C1952 1.415 . S
C1951 C1950 1.355 . S
C1951 C1953 1.419 . S
C1952 C1950 1.415 . S
C1952 C1957 1.425 . S
C1952 C1959 1.409 . S
C1953 H1945 0.930 . S
C1953 C1951 1.419 . S
C1953 C1954 1.362 . S
C1954 H1946 0.930 . S
C1954 C1953 1.362 . S
C1954 C1957 1.409 . S
C1955 H1947 0.930 . S
C1955 C1956 1.355 . S
C1955 C1957 1.415 . S
C1956 C1955 1.355 . S
C1956 C1958 1.419 . S
C1957 C1952 1.425 . S
C1957 C1954 1.409 . S
C1957 C1955 1.415 . S
C1958 H1948 0.930 . S
C1958 C1956 1.419 . S
C1958 C1959 1.362 . S
C1959 H1949 0.930 . S
C1959 C1952 1.409 . S
C1959 C1958 1.362 . S
H1960 C1966 0.930 . S
H1961 C1969 0.930 1_554 S
H1962 C1970 0.930 . S
H1963 C1971 0.930 . S
H1964 C1974 0.930 . S
H1965 C1975 0.930 . S
C1966 H1960 0.930 . S
C1966 C1967 1.355 . S
C1966 C1968 1.415 1_554 S
C1967 C1966 1.355 . S
C1967 C1969 1.419 1_554 S
C1968 C1966 1.415 1_556 S
C1968 C1973 1.425 . S
C1968 C1975 1.409 . S
C1969 H1961 0.930 1_556 S
C1969 C1967 1.419 1_556 S
C1969 C1970 1.362 . S
C1970 H1962 0.930 . S
C1970 C1969 1.362 . S
C1970 C1973 1.409 . S
C1971 H1963 0.930 . S
C1971 C1972 1.355 . S
C1971 C1973 1.415 . S
C1972 C1971 1.355 . S
C1972 C1974 1.419 . S
C1973 C1968 1.425 . S
C1973 C1970 1.409 . S
C1973 C1971 1.415 . S
C1974 H1964 0.930 . S
C1974 C1972 1.419 . S
C1974 C1975 1.362 . S
C1975 H1965 0.930 . S
C1975 C1968 1.409 . S
C1975 C1974 1.362 . S
H1976 C1982 0.930 . S
H1977 C1985 0.930 . S
H1978 C1986 0.930 . S
H1979 C1987 0.930 . S
H1980 C1990 0.930 . S
H1981 C1991 0.930 . S
C1982 H1976 0.930 . S
C1982 C1983 1.355 . S
C1982 C1984 1.415 . S
C1983 C1982 1.355 . S
C1983 C1985 1.419 . S
C1984 C1982 1.415 . S
C1984 C1989 1.425 . S
C1984 C1991 1.409 . S
C1985 H1977 0.930 . S
C1985 C1983 1.419 . S
C1985 C1986 1.362 . S
C1986 H1978 0.930 . S
C1986 C1985 1.362 . S
C1986 C1989 1.409 . S
C1987 H1979 0.930 . S
C1987 C1988 1.355 . S
C1987 C1989 1.415 . S
C1988 C1987 1.355 . S
C1988 C1990 1.419 . S
C1989 C1984 1.425 . S
C1989 C1986 1.409 . S
C1989 C1987 1.415 . S
C1990 H1980 0.930 . S
C1990 C1988 1.419 . S
C1990 C1991 1.362 . S
C1991 H1981 0.930 . S
C1991 C1984 1.409 . S
C1991 C1990 1.362 . S
H1992 C1998 0.930 . S
H1993 C2001 0.930 . S
H1994 C2002 0.930 . S
H1995 C2003 0.930 . S
H1996 C2006 0.930 . S
H1997 C2007 0.930 . S
C1998 H1992 0.930 . S
C1998 C1999 1.355 . S
C1998 C2000 1.415 . S
C1999 C1998 1.355 . S
C1999 C2001 1.419 . S
C2000 C1998 1.415 . S
C2000 C2005 1.425 . S
C2000 C2007 1.409 . S
C2001 H1993 0.930 . S
C2001 C1999 1.419 . S
C2001 C2002 1.362 . S
C2002 H1994 0.930 . S
C2002 C2001 1.362 . S
C2002 C2005 1.409 . S
C2003 H1995 0.930 . S
C2003 C2004 1.355 . S
C2003 C2005 1.415 . S
C2004 C2003 1.355 . S
C2004 C2006 1.419 . S
C2005 C2000 1.425 . S
C2005 C2002 1.409 . S
C2005 C2003 1.415 . S
C2006 H1996 0.930 . S
C2006 C2004 1.419 . S
C2006 C2007 1.362 . S
C2007 H1997 0.930 . S
C2007 C2000 1.409 . S
C2007 C2006 1.362 . S
H2008 C2014 0.930 . S
H2009 C2017 0.930 . S
H2010 C2018 0.930 . S
H2011 C2019 0.930 . S
H2012 C2022 0.930 . S
H2013 C2023 0.930 . S
C2014 H2008 0.930 . S
C2014 C2015 1.355 . S
C2014 C2016 1.415 . S
C2015 C2014 1.355 . S
C2015 C2017 1.419 . S
C2016 C2014 1.415 . S
C2016 C2021 1.425 . S
C2016 C2023 1.409 . S
C2017 H2009 0.930 . S
C2017 C2015 1.419 . S
C2017 C2018 1.362 . S
C2018 H2010 0.930 . S
C2018 C2017 1.362 . S
C2018 C2021 1.409 . S
C2019 H2011 0.930 . S
C2019 C2020 1.355 . S
C2019 C2021 1.415 . S
C2020 C2019 1.355 . S
C2020 C2022 1.419 . S
C2021 C2016 1.425 . S
C2021 C2018 1.409 . S
C2021 C2019 1.415 . S
C2022 H2012 0.930 . S
C2022 C2020 1.419 . S
C2022 C2023 1.362 . S
C2023 H2013 0.930 . S
C2023 C2016 1.409 . S
C2023 C2022 1.362 . S
H2024 C2030 0.930 . S
H2025 C2033 0.930 . S
H2026 C2034 0.930 . S
H2027 C2035 0.930 . S
H2028 C2038 0.930 . S
H2029 C2039 0.930 . S
C2030 H2024 0.930 . S
C2030 C2031 1.355 . S
C2030 C2032 1.415 . S
C2031 C2030 1.355 . S
C2031 C2033 1.419 . S
C2032 C2030 1.415 . S
C2032 C2037 1.425 . S
C2032 C2039 1.409 . S
C2033 H2025 0.930 . S
C2033 C2031 1.419 . S
C2033 C2034 1.362 . S
C2034 H2026 0.930 . S
C2034 C2033 1.362 . S
C2034 C2037 1.409 . S
C2035 H2027 0.930 . S
C2035 C2036 1.355 . S
C2035 C2037 1.415 . S
C2036 C2035 1.355 . S
C2036 C2038 1.419 . S
C2037 C2032 1.425 . S
C2037 C2034 1.409 . S
C2037 C2035 1.415 . S
C2038 H2028 0.930 . S
C2038 C2036 1.419 . S
C2038 C2039 1.362 . S
C2039 H2029 0.930 . S
C2039 C2032 1.409 . S
C2039 C2038 1.362 . S
C1279 C29 1.408 . S
C1284 C506 1.402 . S
C1295 C82 1.202 . S
C1300 C559 1.208 . S
C1311 C622 1.719 . S
C1316 C135 1.717 1_554 S
C1327 C463 1.665 . S
C1332 C188 1.665 . S
C1343 C569 1.503 . S
C1348 C251 1.503 . S
C1359 C304 1.327 . S
C1364 C612 1.329 . S
C1375 C357 1.587 . S
C1380 C453 1.583 . S
C1391 C516 1.741 . S
C1396 C410 1.740 . S
C1407 C241 1.520 . S
C1412 C674 1.519 . S
C1423 C400 1.255 . S
C1428 C817 1.248 . S
C1439 C887 1.708 . S
C1444 C294 1.708 1_545 S
C1455 C198 1.529 . S
C1460 C728 1.528 . S
C1471 C780 1.581 . S
C1476 C347 1.581 . S
C1487 C39 1.612 . S
C1492 C1036 1.608 . S
C1503 C145 1.306 . S
C1508 C983 1.312 . S
C1519 C833 1.462 . S
C1524 C1152 1.460 . S
C1535 C1205 1.568 . S
C1540 C658 1.570 . S
C1551 C1258 1.220 . S
C1556 C877 1.231 . S
C1567 C1099 1.259 . S
C1572 C764 1.261 . S
C1583 C1195 1.470 . S
C1588 C930 1.471 . S
C1599 C993 1.729 . S
C1604 C1248 1.734 . S
C1615 C1089 1.249 . S
C1620 C718 1.241 . S
C1631 C1046 1.367 . S
C1636 C1142 1.367 . S
C1647 C92 1.555 . S
C1652 C940 1.552 . S
C1663 C250 1.207 . S
C1668 C22 1.213 . S
C1679 C75 0.941 . S
C1684 C303 0.950 . S
C1695 C128 1.387 . S
C1700 C356 1.384 . S
C1711 C409 1.382 . S
C1716 C181 1.382 . S
C1727 C462 1.469 . S
C1732 C515 1.462 . S
C1743 C499 1.197 . S
C1748 C568 1.180 . S
C1759 C605 0.966 . S
C1764 C552 0.961 . S
C1775 C446 1.327 . S
C1780 C621 1.334 . S
C1791 C197 1.258 . S
C1796 C675 1.261 . S
C1807 C393 0.942 . S
C1812 C976 0.945 . S
C1823 C234 1.294 . S
C1828 C727 1.293 . S
C1839 C1029 1.259 . S
C1844 C287 1.257 . S
C1855 C781 1.212 . S
C1860 C91 1.226 . S
C1871 C38 1.332 . S
C1876 C886 1.328 . S
C1887 C144 0.909 . S
C1892 C824 0.898 . S
C1903 C834 1.159 . S
C1908 C923 1.158 1_565 S
C1919 C992 1.258 . S
C1924 C665 1.264 . S
C1935 C870 0.928 . S
C1940 C711 0.941 . S
C1951 C771 1.041 . S
C1956 C1045 1.041 . S
C1967 C1135 1.034 . S
C1972 C1098 1.032 . S
C1983 C1188 1.192 . S
C1988 C1151 1.199 . S
C1999 C1241 1.361 . S
C2004 C1204 1.378 . S
C2015 C1082 1.020 . S
C2020 C1257 1.011 . S
C2031 C939 1.255 . S
C2036 C340 1.244 . S
