# Generated by pormake.
# Topology umm, (4)-cn, num edge types: 1
# Building blocks:
#     Node 0, Type 0, BuildingBlock: CEKHIL_clean_sbu_0, # of connection points: 4
#     Node 1, Type 0, BuildingBlock: CEKHIL_clean_sbu_0, # of connection points: 4
#     Node 2, Type 0, BuildingBlock: CEKHIL_clean_sbu_0, # of connection points: 4
#     Node 3, Type 0, BuildingBlock: CEKHIL_clean_sbu_0, # of connection points: 4
#     Node 4, Type 0, BuildingBlock: CEKHIL_clean_sbu_0, # of connection points: 4
#     Node 5, Type 0, BuildingBlock: CEKHIL_clean_sbu_0, # of connection points: 4
#     Node 6, Type 0, BuildingBlock: CEKHIL_clean_sbu_0, # of connection points: 4
#     Node 7, Type 0, BuildingBlock: CEKHIL_clean_sbu_0, # of connection points: 4
#     Node 8, Type 0, BuildingBlock: CEKHIL_clean_sbu_0, # of connection points: 4
#     Node 9, Type 0, BuildingBlock: CEKHIL_clean_sbu_0, # of connection points: 4
#     Node 10, Type 0, BuildingBlock: CEKHIL_clean_sbu_0, # of connection points: 4
#     Node 11, Type 0, BuildingBlock: CEKHIL_clean_sbu_0, # of connection points: 4
#     Edge 12, Type (0, 0), BuildingBlock: XUDNAN_clean_linker_2, # of connection points: 2
#     Edge 13, Type (0, 0), BuildingBlock: XUDNAN_clean_linker_2, # of connection points: 2
#     Edge 14, Type (0, 0), BuildingBlock: XUDNAN_clean_linker_2, # of connection points: 2
#     Edge 15, Type (0, 0), BuildingBlock: XUDNAN_clean_linker_2, # of connection points: 2
#     Edge 16, Type (0, 0), BuildingBlock: XUDNAN_clean_linker_2, # of connection points: 2
#     Edge 17, Type (0, 0), BuildingBlock: XUDNAN_clean_linker_2, # of connection points: 2
#     Edge 18, Type (0, 0), BuildingBlock: XUDNAN_clean_linker_2, # of connection points: 2
#     Edge 19, Type (0, 0), BuildingBlock: XUDNAN_clean_linker_2, # of connection points: 2
#     Edge 20, Type (0, 0), BuildingBlock: XUDNAN_clean_linker_2, # of connection points: 2
#     Edge 21, Type (0, 0), BuildingBlock: XUDNAN_clean_linker_2, # of connection points: 2
#     Edge 22, Type (0, 0), BuildingBlock: XUDNAN_clean_linker_2, # of connection points: 2
#     Edge 23, Type (0, 0), BuildingBlock: XUDNAN_clean_linker_2, # of connection points: 2
#     Edge 24, Type (0, 0), BuildingBlock: XUDNAN_clean_linker_2, # of connection points: 2
#     Edge 25, Type (0, 0), BuildingBlock: XUDNAN_clean_linker_2, # of connection points: 2
#     Edge 26, Type (0, 0), BuildingBlock: XUDNAN_clean_linker_2, # of connection points: 2
#     Edge 27, Type (0, 0), BuildingBlock: XUDNAN_clean_linker_2, # of connection points: 2
#     Edge 28, Type (0, 0), BuildingBlock: XUDNAN_clean_linker_2, # of connection points: 2
#     Edge 29, Type (0, 0), BuildingBlock: XUDNAN_clean_linker_2, # of connection points: 2
#     Edge 30, Type (0, 0), BuildingBlock: XUDNAN_clean_linker_2, # of connection points: 2
#     Edge 31, Type (0, 0), BuildingBlock: XUDNAN_clean_linker_2, # of connection points: 2
#     Edge 32, Type (0, 0), BuildingBlock: XUDNAN_clean_linker_2, # of connection points: 2
#     Edge 33, Type (0, 0), BuildingBlock: XUDNAN_clean_linker_2, # of connection points: 2
#     Edge 34, Type (0, 0), BuildingBlock: XUDNAN_clean_linker_2, # of connection points: 2
#     Edge 35, Type (0, 0), BuildingBlock: XUDNAN_clean_linker_2, # of connection points: 2
# Relax obj value: 0.135
# Max RMSD: 0.386
# Mean RMSD: 0.251
data_MOF--net-umm--node1-CEKHIL_clean_sbu_0--edge1-XUDNAN_clean_linker_2
_symmetry_space_group_name_H-M    P1
_symmetry_Int_Tables_number       1
_symmetry_cell_setting            triclinic
loop_
_symmetry_equiv_pos_as_xyz
'x, y, z'
_cell_length_a     56.98614
_cell_length_b     52.56562
_cell_length_c     27.058152
_cell_angle_alpha  89.904871
_cell_angle_beta   90.051385
_cell_angle_gamma 117.4314
loop_
_atom_site_label
_atom_site_type_symbol
_atom_site_fract_x
_atom_site_fract_y
_atom_site_fract_z
_atom_type_partial_charge
Co0 Co 0.3688 0.50662 0.04089 0.0
O1 O 0.33606 0.50826 0.04668 0.0
O2 O 0.33935 0.47022 0.02027 0.0
C3 C 0.38546 0.52675 0.11395 0.0
O4 O 0.40091 0.4989 0.03185 0.0
Co5 Co 0.41929 0.56573 0.03499 0.0
O6 O 0.43716 0.54143 0.0444 0.0
C7 C 0.38409 0.54493 0.94937 0.0
C8 C 0.32446 0.48254 0.02914 0.0
C9 C 0.42615 0.51438 0.0379 0.0
O10 O 0.3719 0.52062 0.97114 0.0
O11 O 0.40264 0.56694 0.96993 0.0
O12 O 0.36907 0.49955 0.11155 0.0
O13 O 0.38853 0.54107 0.07359 0.0
Co14 Co 0.8597 0.38718 0.41172 0.0
O15 O 0.82506 0.35496 0.41826 0.0
O16 O 0.85993 0.3523 0.38797 0.0
C17 C 0.86114 0.40583 0.48709 0.0
O18 O 0.89892 0.41627 0.40284 0.0
Co19 Co 0.86528 0.44893 0.41312 0.0
O20 O 0.90377 0.46099 0.41409 0.0
C21 C 0.84168 0.41205 0.32719 0.0
C22 C 0.83497 0.33932 0.39972 0.0
C23 C 0.91343 0.44371 0.40717 0.0
O24 O 0.85041 0.39492 0.34311 0.0
O25 O 0.84304 0.43326 0.35242 0.0
O26 O 0.86656 0.38451 0.48191 0.0
O27 O 0.85232 0.41278 0.4481 0.0
Co28 Co 0.44745 0.83433 0.77408 0.0
O29 O 0.43739 0.79422 0.78055 0.0
O30 O 0.47395 0.82648 0.74386 0.0
C31 C 0.43988 0.84304 0.85166 0.0
O32 O 0.46503 0.87713 0.76142 0.0
Co33 Co 0.40656 0.85691 0.78355 0.0
O34 O 0.43776 0.89544 0.78213 0.0
C35 C 0.40692 0.82642 0.69347 0.0
C36 C 0.45898 0.79999 0.75637 0.0
C37 C 0.46033 0.89851 0.76864 0.0
O38 O 0.42795 0.82619 0.70972 0.0
O39 O 0.394 0.83651 0.71834 0.0
O40 O 0.46152 0.84195 0.84007 0.0
O41 O 0.42186 0.83516 0.8175 0.0
Co42 Co 0.63839 0.49135 0.07648 0.0
O43 O 0.67281 0.49332 0.08087 0.0
O44 O 0.66306 0.52095 0.03226 0.0
C45 C 0.63091 0.48854 0.15818 0.0
O46 O 0.60418 0.49463 0.06426 0.0
Co47 Co 0.59044 0.43541 0.11225 0.0
O48 O 0.57197 0.45945 0.10852 0.0
C49 C 0.61356 0.43636 0.01497 0.0
C50 C 0.68056 0.5132 0.04755 0.0
C51 C 0.5804 0.482 0.08196 0.0
O52 O 0.629 0.46313 0.02127 0.0
O53 O 0.59746 0.4205 0.04824 0.0
O54 O 0.64471 0.51338 0.13743 0.0
O55 O 0.62453 0.46654 0.12994 0.0
Co56 Co 0.15365 0.62318 0.43712 0.0
O57 O 0.18655 0.65746 0.43775 0.0
O58 O 0.1523 0.65263 0.39355 0.0
C59 C 0.15105 0.61667 0.51963 0.0
O60 O 0.11626 0.58863 0.43094 0.0
Co61 Co 0.15907 0.5697 0.47377 0.0
O62 O 0.12006 0.55321 0.47186 0.0
C63 C 0.17598 0.59088 0.37351 0.0
C64 C 0.17693 0.66862 0.40632 0.0
C65 C 0.10615 0.56286 0.44915 0.0
O66 O 0.16649 0.60857 0.3799 0.0
O67 O 0.17691 0.57464 0.40793 0.0
O68 O 0.14322 0.63391 0.49951 0.0
O69 O 0.16289 0.60709 0.49011 0.0
Co70 Co 0.5794 0.16063 0.75499 0.0
O71 O 0.58179 0.1978 0.76079 0.0
O72 O 0.54691 0.15965 0.73136 0.0
C73 C 0.5957 0.15873 0.8292 0.0
O74 O 0.57054 0.1188 0.7452 0.0
Co75 Co 0.63215 0.1572 0.75101 0.0
O76 O 0.60826 0.11539 0.75506 0.0
C77 C 0.6166 0.17993 0.66587 0.0
C78 C 0.55874 0.18713 0.73984 0.0
C79 C 0.58328 0.10401 0.74892 0.0
O80 O 0.59386 0.17079 0.68626 0.0
O81 O 0.63608 0.17858 0.68706 0.0
O82 O 0.57102 0.15292 0.82454 0.0
O83 O 0.61031 0.16908 0.79034 0.0
Co84 Co 0.44056 0.59803 0.53352 0.0
O85 O 0.43823 0.63289 0.54085 0.0
O86 O 0.46736 0.62278 0.57949 0.0
C87 C 0.43739 0.59487 0.45129 0.0
O88 O 0.44834 0.56393 0.53387 0.0
Co89 Co 0.39078 0.54508 0.49413 0.0
O90 O 0.41438 0.52676 0.4969 0.0
C91 C 0.39082 0.56402 0.59541 0.0
C92 C 0.45718 0.64021 0.5729 0.0
C93 C 0.43705 0.538 0.51757 0.0
O94 O 0.41542 0.58143 0.58998 0.0
O95 O 0.37627 0.54855 0.56018 0.0
O96 O 0.46001 0.6112 0.47193 0.0
O97 O 0.41717 0.58419 0.48052 0.0
Co98 Co 0.85751 0.47846 0.9054 0.0
O99 O 0.82476 0.47995 0.89489 0.0
O100 O 0.85709 0.50979 0.9432 0.0
C101 C 0.86466 0.47285 0.82544 0.0
O102 O 0.89471 0.48385 0.92263 0.0
Co103 Co 0.86096 0.4229 0.8824 0.0
O104 O 0.89955 0.44785 0.88726 0.0
C105 C 0.83632 0.42661 0.97521 0.0
C106 C 0.83361 0.50164 0.92465 0.0
C107 C 0.90908 0.47176 0.90986 0.0
O108 O 0.8418 0.45243 0.96365 0.0
O109 O 0.84157 0.41029 0.94723 0.0
O110 O 0.87109 0.49814 0.84329 0.0
O111 O 0.85185 0.45151 0.85514 0.0
Co112 Co 0.37415 0.86172 0.26373 0.0
O113 O 0.34189 0.8266 0.25813 0.0
O114 O 0.34497 0.8654 0.29546 0.0
C115 C 0.3875 0.86327 0.18501 0.0
O116 O 0.40566 0.90185 0.27499 0.0
Co117 Co 0.42602 0.85598 0.2497 0.0
O118 O 0.44273 0.89832 0.25558 0.0
C119 C 0.39495 0.83447 0.3402 0.0
C120 C 0.33043 0.83864 0.2832 0.0
C121 C 0.43101 0.91289 0.26831 0.0
O122 O 0.38164 0.8477 0.32818 0.0
O123 O 0.41185 0.83251 0.31138 0.0
O124 O 0.37048 0.87246 0.19558 0.0
O125 O 0.39313 0.85072 0.22065 0.0
Co126 Co 0.56469 0.39578 0.56645 0.0
O127 O 0.57564 0.36647 0.56433 0.0
O128 O 0.53536 0.35951 0.58451 0.0
C129 C 0.58238 0.41716 0.49474 0.0
O130 O 0.54619 0.4207 0.57081 0.0
Co131 Co 0.60675 0.45935 0.57523 0.0
O132 O 0.57622 0.467 0.56278 0.0
C133 C 0.59588 0.42137 0.66073 0.0
C134 C 0.55191 0.34904 0.5792 0.0
C135 C 0.55236 0.4474 0.56563 0.0
O136 O 0.57559 0.40267 0.63766 0.0
O137 O 0.61246 0.44496 0.6409 0.0
O138 O 0.55982 0.39403 0.49542 0.0
O139 O 0.5949 0.42446 0.53641 0.0
Co140 Co 0.14875 0.52829 0.93018 0.0
O141 O 0.18152 0.52721 0.91977 0.0
O142 O 0.14599 0.49147 0.95186 0.0
C143 C 0.14744 0.54723 0.85626 0.0
O144 O 0.11114 0.52277 0.94414 0.0
Co145 Co 0.15163 0.58907 0.93333 0.0
O146 O 0.1127 0.56643 0.9371 0.0
C147 C 0.17006 0.5689 0.01869 0.0
C148 C 0.17072 0.50174 0.93875 0.0
C149 C 0.10002 0.53942 0.94393 0.0
O150 O 0.16078 0.54402 -0.00146 0.0
O151 O 0.1703 0.59069 -0.00295 0.0
O152 O 0.13954 0.51984 0.86033 0.0
O153 O 0.1585 0.56219 0.89506 0.0
Co154 Co 0.64521 0.14699 0.25496 0.0
O155 O 0.68 0.17875 0.25081 0.0
O156 O 0.66907 0.14196 0.30137 0.0
C157 C 0.63849 0.14165 0.17316 0.0
O158 O 0.61019 0.11015 0.26676 0.0
Co159 Co 0.59905 0.15737 0.2175 0.0
O160 O 0.57932 0.11493 0.22104 0.0
C161 C 0.62232 0.18018 0.31385 0.0
C162 C 0.68699 0.16694 0.28587 0.0
C163 C 0.58668 0.09996 0.2479 0.0
O164 O 0.6363 0.16706 0.30852 0.0
O165 O 0.60666 0.18062 0.28028 0.0
O166 O 0.65156 0.13023 0.19553 0.0
O167 O 0.63243 0.15812 0.19998 0.0
H168 H 0.36976 0.5077 0.20753 0.0
H169 H 0.43111 0.5768 0.12395 0.0
H170 H 0.45277 0.60047 0.20199 0.0
H171 H 0.36353 0.55192 0.29875 0.0
H172 H 0.35735 0.52695 0.34879 0.0
H173 H 0.34832 0.51394 0.28665 0.0
H174 H 0.37649 0.48694 0.29333 0.0
H175 H 0.38556 0.49982 0.35563 0.0
H176 H 0.41088 0.5064 0.31029 0.0
H177 H 0.46713 0.61683 0.289 0.0
H178 H 0.47138 0.62671 0.37879 0.0
H179 H 0.39864 0.54868 0.40451 0.0
C180 C 0.38798 0.52759 0.20573 0.0
C181 C 0.39899 0.54038 0.16001 0.0
C182 C 0.42248 0.56669 0.15882 0.0
C183 C 0.43494 0.5802 0.20285 0.0
C184 C 0.4234 0.56718 0.24746 0.0
C185 C 0.40033 0.54159 0.24922 0.0
C186 C 0.39087 0.53319 0.30176 0.0
C187 C 0.3634 0.53141 0.30941 0.0
C188 C 0.39097 0.50491 0.31608 0.0
C189 C 0.41202 0.55828 0.32926 0.0
C190 C 0.43088 0.57737 0.29739 0.0
C191 C 0.45247 0.60208 0.31432 0.0
C192 C 0.45472 0.6075 0.36524 0.0
C193 C 0.4352 0.58856 0.39819 0.0
C194 C 0.41367 0.56364 0.37996 0.0
H195 H 0.8589 0.38522 0.58078 0.0
H196 H 0.87234 0.46169 0.49871 0.0
H197 H 0.87844 0.48807 0.57697 0.0
H198 H 0.81984 0.39435 0.67402 0.0
H199 H 0.83198 0.38062 0.72354 0.0
H200 H 0.83162 0.36855 0.6612 0.0
H201 H 0.88181 0.38411 0.66687 0.0
H202 H 0.88232 0.39628 0.72929 0.0
H203 H 0.90432 0.4205 0.68359 0.0
H204 H 0.88208 0.50579 0.66324 0.0
H205 H 0.87874 0.51279 0.75246 0.0
H206 H 0.85966 0.42392 0.77951 0.0
C207 C 0.86354 0.40764 0.57945 0.0
C208 C 0.86548 0.4216 0.53388 0.0
C209 C 0.87089 0.4507 0.53331 0.0
C210 C 0.87451 0.46587 0.57753 0.0
C211 C 0.87228 0.45147 0.62192 0.0
C212 C 0.86662 0.42294 0.62334 0.0
C213 C 0.86301 0.41195 0.67607 0.0
C214 C 0.83494 0.38742 0.68417 0.0
C215 C 0.88413 0.40266 0.68975 0.0
C216 C 0.86722 0.43869 0.70396 0.0
C217 C 0.87304 0.46135 0.67197 0.0
C218 C 0.87756 0.48824 0.6887 0.0
C219 C 0.87565 0.492 0.73947 0.0
C220 C 0.86885 0.46886 0.77281 0.0
C221 C 0.86485 0.44195 0.75481 0.0
H222 H 0.39468 0.83945 0.89605 0.0
H223 H 0.47884 0.86969 0.91852 0.0
H224 H 0.47487 0.88326 0.00357 0.0
H225 H 0.38936 0.89492 0.97625 0.0
H226 H 0.35747 0.8697 -0.0001 0.0
H227 H 0.36709 0.8656 0.93814 0.0
H228 H 0.35819 0.81385 0.9592 0.0
H229 H 0.34867 0.81782 0.02095 0.0
H230 H 0.37462 0.8078 0.01151 0.0
H231 H 0.46156 0.88609 0.08799 0.0
H232 H 0.43957 0.88159 0.16789 0.0
H233 H 0.36426 0.85325 0.09357 0.0
C234 C 0.4123 0.84952 0.91865 0.0
C235 C 0.43704 0.85341 0.90078 0.0
C236 C 0.45964 0.86632 0.9315 0.0
C237 C 0.45766 0.87429 0.97984 0.0
C238 C 0.43297 0.86948 -0.00307 0.0
C239 C 0.41068 0.85774 0.96739 0.0
C240 C 0.3863 0.85311 -0.00333 0.0
C241 C 0.37435 0.87197 0.97654 0.0
C242 C 0.36575 0.82125 -0.0029 0.0
C243 C 0.39836 0.86305 0.0475 0.0
C244 C 0.42535 0.87248 0.04645 0.0
C245 C 0.44059 0.87963 0.08924 0.0
C246 C 0.42793 0.87694 0.13452 0.0
C247 C 0.40045 0.86781 0.13661 0.0
C248 C 0.38549 0.86118 0.09255 0.0
H249 H 0.59356 0.44151 0.20493 0.0
H250 H 0.6551 0.52807 0.23115 0.0
H251 H 0.64823 0.52027 0.32139 0.0
H252 H 0.55048 0.44004 0.30759 0.0
H253 H 0.54034 0.40277 0.32042 0.0
H254 H 0.54897 0.4163 0.25831 0.0
H255 H 0.58353 0.39715 0.25509 0.0
H256 H 0.57524 0.38386 0.31727 0.0
H257 H 0.60898 0.40829 0.30166 0.0
H258 H 0.63774 0.50072 0.40883 0.0
H259 H 0.62158 0.47258 0.48606 0.0
H260 H 0.5657 0.39998 0.40101 0.0
C261 C 0.60532 0.45897 0.22964 0.0
C262 C 0.62489 0.48533 0.21135 0.0
C263 C 0.63989 0.50773 0.24464 0.0
C264 C 0.63617 0.50347 0.29585 0.0
C265 C 0.61709 0.47689 0.31279 0.0
C266 C 0.6016 0.45522 0.28058 0.0
C267 C 0.58286 0.42844 0.30789 0.0
C268 C 0.55395 0.42149 0.29797 0.0
C269 C 0.58798 0.40295 0.29469 0.0
C270 C 0.59074 0.43808 0.36054 0.0
C271 C 0.61051 0.46607 0.36279 0.0
C272 C 0.62197 0.47895 0.40756 0.0
C273 C 0.6128 0.46279 0.45112 0.0
C274 C 0.59232 0.43424 0.44934 0.0
C275 C 0.58117 0.4219 0.40349 0.0
H276 H 0.15117 0.57022 0.56521 0.0
H277 H 0.14257 0.64675 0.59312 0.0
H278 H 0.13864 0.63614 0.68264 0.0
H279 H 0.10356 0.52613 0.65974 0.0
H280 H 0.12231 0.50749 0.67559 0.0
H281 H 0.12366 0.52076 0.61365 0.0
H282 H 0.17472 0.54913 0.61969 0.0
H283 H 0.17352 0.53604 0.68161 0.0
H284 H 0.18951 0.57407 0.66978 0.0
H285 H 0.14007 0.61976 0.76917 0.0
H286 H 0.1428 0.59632 0.84674 0.0
H287 H 0.14665 0.52834 0.76217 0.0
C288 C 0.14828 0.58461 0.59019 0.0
C289 C 0.14731 0.60937 0.57253 0.0
C290 C 0.14331 0.62763 0.60609 0.0
C291 C 0.14109 0.6218 0.65691 0.0
C292 C 0.14237 0.59733 0.67327 0.0
C293 C 0.14545 0.57878 0.64089 0.0
C294 C 0.14616 0.55395 0.66806 0.0
C295 C 0.12251 0.52539 0.65339 0.0
C296 C 0.17255 0.55328 0.65926 0.0
C297 C 0.14377 0.56188 0.7209 0.0
C298 C 0.14172 0.58705 0.72309 0.0
C299 C 0.14118 0.59977 0.76795 0.0
C300 C 0.14284 0.5864 0.81173 0.0
C301 C 0.1446 0.56044 0.8102 0.0
C302 C 0.14477 0.5479 0.76424 0.0
H303 H 0.60174 0.15027 0.12138 0.0
H304 H 0.66585 0.12825 0.10404 0.0
H305 H 0.66172 0.12944 0.01312 0.0
H306 H 0.56255 0.10735 0.01689 0.0
H307 H 0.55123 0.13314 0.00066 0.0
H308 H 0.55884 0.12941 0.06406 0.0
H309 H 0.59161 0.1837 0.06694 0.0
H310 H 0.58433 0.18753 0.00345 0.0
H311 H 0.618 0.1986 0.02227 0.0
H312 H 0.65339 0.1381 0.92406 0.0
H313 H 0.63759 0.14739 0.84385 0.0
H314 H 0.57698 0.15999 0.92056 0.0
C315 C 0.61468 0.14538 0.0984 0.0
C316 C 0.63416 0.1393 0.11943 0.0
C317 C 0.6507 0.13284 0.08841 0.0
C318 C 0.64858 0.13359 0.03683 0.0
C319 C 0.6295 0.14028 0.01714 0.0
C320 C 0.61249 0.14547 0.04701 0.0
C321 C 0.5936 0.15201 0.01681 0.0
C322 C 0.56485 0.1291 0.02509 0.0
C323 C 0.59711 0.18225 0.02805 0.0
C324 C 0.60297 0.15026 0.9653 0.0
C325 C 0.62386 0.14375 0.96611 0.0
C326 C 0.63676 0.14274 0.92291 0.0
C327 C 0.6278 0.14819 0.87767 0.0
C328 C 0.60597 0.15408 0.8763 0.0
C329 C 0.59347 0.15508 0.92064 0.0
H330 H 0.30957 0.50554 0.95571 0.0
H331 H 0.27834 0.43809 0.06514 0.0
H332 H 0.23274 0.43015 0.04557 0.0
H333 H 0.27132 0.53626 0.98387 0.0
H334 H 0.26712 0.54598 0.9218 0.0
H335 H 0.29584 0.54191 0.93723 0.0
H336 H 0.28508 0.50443 0.86765 0.0
H337 H 0.25642 0.50867 0.85119 0.0
H338 H 0.25294 0.47359 0.86547 0.0
H339 H 0.19134 0.4362 0.02254 0.0
H340 H 0.15978 0.45444 -0.00203 0.0
H341 H 0.21972 0.51707 0.90267 0.0
C342 C 0.293 0.48802 0.97356 0.0
C343 C 0.29723 0.47171 0.01053 0.0
C344 C 0.2753 0.4501 0.03546 0.0
C345 C 0.24941 0.44563 0.02471 0.0
C346 C 0.24597 0.46282 0.9887 0.0
C347 C 0.26734 0.48328 0.963 0.0
C348 C 0.2594 0.50124 0.93004 0.0
C349 C 0.27429 0.53321 0.94413 0.0
C350 C 0.2637 0.49669 0.87534 0.0
C351 C 0.23034 0.48858 0.94234 0.0
C352 C 0.22267 0.46624 0.97579 0.0
C353 C 0.19709 0.45324 0.99554 0.0
C354 C 0.17925 0.46368 0.98137 0.0
C355 C 0.18719 0.48707 0.94818 0.0
C356 C 0.21286 0.49899 0.92774 0.0
H357 H 0.81966 0.31089 0.31191 0.0
H358 H 0.80996 0.29915 0.4702 0.0
H359 H 0.77538 0.24913 0.45779 0.0
H360 H 0.75324 0.2771 0.28615 0.0
H361 H 0.75552 0.26107 0.22869 0.0
H362 H 0.78316 0.29331 0.25 0.0
H363 H 0.81316 0.26844 0.24521 0.0
H364 H 0.78551 0.23599 0.22386 0.0
H365 H 0.80377 0.23519 0.27776 0.0
H366 H 0.73803 0.20241 0.42792 0.0
H367 H 0.69925 0.16545 0.38364 0.0
H368 H 0.73177 0.20866 0.24499 0.0
C369 C 0.81099 0.29728 0.3438 0.0
C370 C 0.81798 0.30836 0.39203 0.0
C371 C 0.80526 0.29064 0.43304 0.0
C372 C 0.78564 0.26223 0.42629 0.0
C373 C 0.7787 0.25196 0.37818 0.0
C374 C 0.79096 0.26903 0.33759 0.0
C375 C 0.77735 0.25446 0.29003 0.0
C376 C 0.76668 0.27256 0.26212 0.0
C377 C 0.79607 0.24814 0.25729 0.0
C378 C 0.75509 0.22701 0.31021 0.0
C379 C 0.75653 0.22557 0.36103 0.0
C380 C 0.73701 0.20306 0.38803 0.0
C381 C 0.71513 0.18199 0.36259 0.0
C382 C 0.71271 0.18394 0.31086 0.0
C383 C 0.73334 0.20634 0.28447 0.0
H384 H 0.42349 0.74993 0.71724 0.0
H385 H 0.50677 0.79957 0.751 0.0
H386 H 0.51565 0.76203 0.71229 0.0
H387 H 0.41752 0.67929 0.73201 0.0
H388 H 0.39631 0.66429 0.67909 0.0
H389 H 0.39541 0.69326 0.71315 0.0
H390 H 0.40571 0.72478 0.63532 0.0
H391 H 0.40555 0.69601 0.59918 0.0
H392 H 0.43397 0.73089 0.59791 0.0
H393 H 0.51487 0.7187 0.66768 0.0
H394 H 0.50521 0.67634 0.61474 0.0
H395 H 0.42335 0.65929 0.60429 0.0
C396 C 0.44347 0.75246 0.71763 0.0
C397 C 0.4644 0.77702 0.73802 0.0
C398 C 0.4905 0.78047 0.73609 0.0
C399 C 0.49566 0.75932 0.71429 0.0
C400 C 0.47455 0.73539 0.69372 0.0
C401 C 0.44903 0.73215 0.69469 0.0
C402 C 0.43021 0.70627 0.66571 0.0
C403 C 0.40858 0.68446 0.69947 0.0
C404 C 0.41817 0.71502 0.62195 0.0
C405 C 0.44904 0.69531 0.64827 0.0
C406 C 0.47445 0.71199 0.66532 0.0
C407 C 0.49506 0.70559 0.65391 0.0
C408 C 0.48948 0.68163 0.62392 0.0
C409 C 0.46373 0.66509 0.60494 0.0
C410 C 0.44336 0.67199 0.6176 0.0
H411 H 0.72308 0.51012 0.08725 0.0
H412 H 0.6972 0.53729 0.95574 0.0
H413 H 0.73818 0.54447 0.91277 0.0
H414 H 0.79607 0.55869 0.07119 0.0
H415 H 0.80418 0.53155 0.09448 0.0
H416 H 0.77527 0.53347 0.11703 0.0
H417 H 0.7463 0.48036 0.09272 0.0
H418 H 0.77497 0.47831 0.06983 0.0
H419 H 0.74693 0.46934 0.02987 0.0
H420 H 0.77721 0.53933 0.87994 0.0
H421 H 0.81246 0.52564 0.8617 0.0
H422 H 0.81449 0.50446 0.0157 0.0
C423 C 0.72644 0.51852 0.04991 0.0
C424 C 0.70706 0.5234 0.0249 0.0
C425 C 0.71197 0.53389 0.97585 0.0
C426 C 0.73516 0.53792 0.95114 0.0
C427 C 0.75345 0.53188 0.97638 0.0
C428 C 0.74955 0.5229 0.02505 0.0
C429 C 0.77095 0.51549 0.04268 0.0
C430 C 0.78761 0.53603 0.08378 0.0
C431 C 0.75907 0.48402 0.05975 0.0
C432 C 0.7869 0.5204 0.99569 0.0
C433 C 0.7766 0.53005 0.95791 0.0
C434 C 0.78597 0.53273 0.90959 0.0
C435 C 0.80598 0.52495 0.89954 0.0
C436 C 0.81671 0.51503 0.93766 0.0
C437 C 0.8074 0.51326 0.98645 0.0
H438 H 0.23006 0.69691 0.41535 0.0
H439 H 0.16468 0.70522 0.34876 0.0
H440 H 0.1966 0.75298 0.31518 0.0
H441 H 0.27044 0.77052 0.44933 0.0
H442 H 0.30075 0.76949 0.43393 0.0
H443 H 0.27249 0.7374 0.45453 0.0
H444 H 0.27437 0.71089 0.37499 0.0
H445 H 0.30278 0.74275 0.35452 0.0
H446 H 0.274 0.72615 0.31547 0.0
H447 H 0.23805 0.80057 0.287 0.0
H448 H 0.28275 0.83859 0.26265 0.0
H449 H 0.31867 0.79601 0.34783 0.0
C450 C 0.22216 0.70875 0.39423 0.0
C451 C 0.19472 0.69736 0.38521 0.0
C452 C 0.18558 0.71354 0.35641 0.0
C453 C 0.2036 0.74072 0.3374 0.0
C454 C 0.23064 0.75127 0.34737 0.0
C455 C 0.23969 0.73542 0.37494 0.0
C456 C 0.26951 0.7499 0.37837 0.0
C457 C 0.27883 0.75726 0.43224 0.0
C458 C 0.28082 0.73133 0.3544 0.0
C459 C 0.27618 0.77662 0.3485 0.0
C460 C 0.2537 0.77745 0.33104 0.0
C461 C 0.25563 0.80006 0.30097 0.0
C462 C 0.28103 0.8217 0.28763 0.0
C463 C 0.304 0.82036 0.30422 0.0
C464 C 0.30137 0.79777 0.33548 0.0
H465 H 0.5908 0.2383 0.70136 0.0
H466 H 0.50785 0.17929 0.72253 0.0
H467 H 0.49581 0.21345 0.67882 0.0
H468 H 0.58812 0.30337 0.71711 0.0
H469 H 0.61218 0.32157 0.66945 0.0
H470 H 0.61311 0.2925 0.70302 0.0
H471 H 0.61049 0.26634 0.62027 0.0
H472 H 0.60923 0.29521 0.58642 0.0
H473 H 0.58354 0.25898 0.57833 0.0
H474 H 0.49425 0.25727 0.63758 0.0
H475 H 0.50297 0.30382 0.5994 0.0
H476 H 0.587 0.32938 0.5997 0.0
C477 C 0.57004 0.23263 0.69751 0.0
C478 C 0.55019 0.20665 0.71631 0.0
C479 C 0.52328 0.19944 0.70888 0.0
C480 C 0.51635 0.21862 0.68403 0.0
C481 C 0.53664 0.24423 0.66585 0.0
C482 C 0.56292 0.25087 0.67185 0.0
C483 C 0.58127 0.27901 0.64811 0.0
C484 C 0.59974 0.30036 0.68673 0.0
C485 C 0.59705 0.27461 0.60577 0.0
C486 C 0.56134 0.28788 0.62883 0.0
C487 C 0.53567 0.26779 0.63939 0.0
C488 C 0.51424 0.27284 0.62834 0.0
C489 C 0.51935 0.29926 0.60669 0.0
C490 C 0.54561 0.31993 0.59595 0.0
C491 C 0.56666 0.31376 0.60636 0.0
H492 H 0.44805 0.49748 0.11256 0.0
H493 H 0.44808 0.50746 0.95378 0.0
H494 H 0.48897 0.50213 0.94765 0.0
H495 H 0.51568 0.53675 0.13056 0.0
H496 H 0.51859 0.51414 0.17779 0.0
H497 H 0.48786 0.51559 0.16977 0.0
H498 H 0.46273 0.46056 0.15783 0.0
H499 H 0.49324 0.45881 0.16747 0.0
H500 H 0.47418 0.4439 0.11217 0.0
H501 H 0.53325 0.50227 0.96059 0.0
H502 H 0.57241 0.49761 0.98946 0.0
H503 H 0.54218 0.48478 0.13925 0.0
C504 C 0.45603 0.49715 0.07639 0.0
C505 C 0.44451 0.5019 0.03339 0.0
C506 C 0.45615 0.5028 0.98684 0.0
C507 C 0.47958 0.50024 0.98316 0.0
C508 C 0.49105 0.49664 0.02644 0.0
C509 C 0.47924 0.49423 0.07205 0.0
C510 C 0.49583 0.49086 0.11297 0.0
C511 C 0.50502 0.51582 0.14994 0.0
C512 C 0.48059 0.4618 0.13914 0.0
C513 C 0.51892 0.49206 0.08338 0.0
C514 C 0.51606 0.49591 0.03363 0.0
C515 C 0.53549 0.49886 -0.00061 0.0
C516 C 0.55786 0.4966 0.01616 0.0
C517 C 0.56038 0.491 0.06653 0.0
C518 C 0.54079 0.48917 0.10051 0.0
H519 H 0.95066 0.49864 0.38274 0.0
H520 H 0.94242 0.41701 0.43623 0.0
H521 H 0.99058 0.43904 0.45018 0.0
H522 H 0.01542 0.51983 0.31971 0.0
H523 H 0.02761 0.55721 0.33455 0.0
H524 H 0.99269 0.53471 0.32546 0.0
H525 H 0.98342 0.54921 0.4118 0.0
H526 H 0.01829 0.57142 0.42149 0.0
H527 H 0.99936 0.54364 0.46536 0.0
H528 H 0.03768 0.47007 0.46651 0.0
H529 H 0.08313 0.50675 0.47624 0.0
H530 H 0.06375 0.5699 0.40839 0.0
C531 C 0.9591 0.48529 0.39657 0.0
C532 C 0.94271 0.45597 0.40834 0.0
C533 C 0.9545 0.43929 0.42641 0.0
C534 C 0.98184 0.45171 0.43473 0.0
C535 C 0.99726 0.48072 0.42388 0.0
C536 C 0.98654 0.49724 0.4042 0.0
C537 C 0.00788 0.528 0.39603 0.0
C538 C 0.01109 0.53537 0.34064 0.0
C539 C 1.00187 0.54932 0.42544 0.0
C540 C 0.0321 0.52642 0.41631 0.0
C541 C 0.02523 0.49879 0.43191 0.0
C542 C 0.04339 0.49165 0.45371 0.0
C543 C 0.06938 0.51302 0.45921 0.0
C544 C 0.07757 0.54167 0.44287 0.0
C545 C 0.05843 0.54838 0.42103 0.0
H546 H 0.52941 0.0696 0.75455 0.0
H547 H 0.60406 0.06673 0.73878 0.0
H548 H 0.58036 0.01407 0.7389 0.0
H549 H 0.50002 0.01116 0.83766 0.0
H550 H 0.46726 0.99728 0.81185 0.0
H551 H 0.48976 0.03496 0.8073 0.0
H552 H 0.48409 0.03257 0.71209 0.0
H553 H 0.46148 0.99487 0.71638 0.0
H554 H 0.49029 0.00701 0.67743 0.0
H555 H 0.54934 0.96218 0.74352 0.0
H556 H 0.51252 0.91364 0.75352 0.0
H557 H 0.45774 0.94958 0.76764 0.0
C558 C 0.54074 0.05791 0.75052 0.0
C559 C 0.56861 0.07237 0.74657 0.0
C560 C 0.58271 0.05622 0.74196 0.0
C561 C 0.56944 0.02626 0.74184 0.0
C562 C 0.54207 0.01271 0.74635 0.0
C563 C 0.52781 0.02791 0.75056 0.0
C564 C 0.49857 0.00792 0.75678 0.0
C565 C 0.48831 0.01314 0.80635 0.0
C566 C 0.48267 0.01076 0.71306 0.0
C567 C 0.49876 0.9792 0.75621 0.0
C568 C 0.52405 0.98251 0.74967 0.0
C569 C 0.5294 0.95924 0.74843 0.0
C570 C 0.50831 0.93173 0.75413 0.0
C571 C 0.48219 0.92773 0.76135 0.0
C572 C 0.47745 0.95188 0.76224 0.0
H573 H 0.48959 0.55477 0.53725 0.0
H574 H 0.41395 0.4796 0.51457 0.0
H575 H 0.43498 0.44846 0.52798 0.0
H576 H 0.52825 0.52736 0.47357 0.0
H577 H 0.55602 0.54341 0.51512 0.0
H578 H 0.53486 0.55998 0.50579 0.0
H579 H 0.52646 0.55829 0.60017 0.0
H580 H 0.54755 0.54163 0.60974 0.0
H581 H 0.51404 0.52453 0.6324 0.0
H582 H 0.46378 0.42533 0.54359 0.0
H583 H 0.49936 0.41167 0.55542 0.0
H584 H 0.55666 0.50169 0.56569 0.0
C585 C 0.47745 0.53176 0.53532 0.0
C586 C 0.45012 0.51965 0.5249 0.0
C587 C 0.43495 0.48943 0.52222 0.0
C588 C 0.44667 0.47151 0.53005 0.0
C589 C 0.4736 0.4841 0.54022 0.0
C590 C 0.48888 0.5135 0.54252 0.0
C591 C 0.51761 0.52144 0.55218 0.0
C592 C 0.53521 0.53908 0.50909 0.0
C593 C 0.52695 0.53741 0.60156 0.0
C594 C 0.51602 0.4919 0.55471 0.0
C595 C 0.49041 0.47069 0.54819 0.0
C596 C 0.48395 0.44172 0.54876 0.0
C597 C 0.50432 0.4342 0.5556 0.0
C598 C 0.53085 0.45558 0.5614 0.0
C599 C 0.53663 0.4848 0.56129 0.0
H600 H 0.05802 0.49379 0.89927 0.0
H601 H 0.07774 0.56117 0.00776 0.0
H602 H 0.03082 0.55007 0.0135 0.0
H603 H 0.01193 0.50746 0.83491 0.0
H604 H 0.989 0.47063 0.82202 0.0
H605 H 0.02352 0.48089 0.83083 0.0
H606 H 0.012 0.44329 0.90072 0.0
H607 H 0.97737 0.43255 0.89155 0.0
H608 H 0.99191 0.44361 0.95191 0.0
H609 H 0.98277 0.5356 0.0009 0.0
H610 H 0.9359 0.51562 0.97568 0.0
H611 H 0.9469 0.45763 0.87522 0.0
C612 C 0.05222 0.5054 0.92549 0.0
C613 C 0.0714 0.52804 0.95367 0.0
C614 C 0.06326 0.54354 0.98627 0.0
C615 C 0.03667 0.53746 0.98968 0.0
C616 C 0.01831 0.5158 0.96013 0.0
C617 C 0.02559 0.49971 0.9291 0.0
C618 C 1.00205 0.47886 0.89916 0.0
C619 C 0.00693 0.48483 0.84344 0.0
C620 C 0.99544 0.44773 0.91159 0.0
C621 C 0.9807 0.48613 0.91767 0.0
C622 C 0.99048 0.50747 0.95284 0.0
C623 C 0.97476 0.51859 0.97382 0.0
C624 C 0.94819 0.50725 0.95903 0.0
C625 C 0.93755 0.48495 0.92367 0.0
C626 C 0.95423 0.47447 0.90272 0.0
H627 H 0.45383 0.95521 0.19988 0.0
H628 H 0.45088 0.93783 0.35669 0.0
H629 H 0.4916 0.98364 0.36912 0.0
H630 H 0.52127 0.98355 0.18537 0.0
H631 H 0.52526 0.0112 0.14174 0.0
H632 H 0.49422 0.97906 0.14563 0.0
H633 H 0.46938 0.0089 0.16196 0.0
H634 H 0.50022 0.04121 0.1564 0.0
H635 H 0.48031 0.0349 0.21119 0.0
H636 H 0.5365 0.02841 0.36183 0.0
H637 H 0.57657 0.07287 0.33813 0.0
H638 H 0.5488 0.06179 0.1867 0.0
C639 C 0.46105 0.96183 0.23711 0.0
C640 C 0.44873 0.94354 0.27765 0.0
C641 C 0.45948 0.9521 0.32552 0.0
C642 C 0.48284 0.97786 0.33273 0.0
C643 C 0.49515 0.99492 0.29165 0.0
C644 C 0.48415 0.98764 0.24495 0.0
C645 C 0.50155 0.0092 0.20671 0.0
C646 C 0.51113 0.99488 0.16757 0.0
C647 C 0.487 0.02446 0.18266 0.0
C648 C 0.52424 0.0295 0.23893 0.0
C649 C 0.52044 0.02076 0.28773 0.0
C650 C 0.53944 0.03562 0.3238 0.0
C651 C 0.56233 0.06063 0.30995 0.0
C652 C 0.56586 0.07072 0.26062 0.0
C653 C 0.54666 0.05458 0.22473 0.0
H654 H 0.41365 0.59906 0.67395 0.0
H655 H 0.34428 0.52091 0.63167 0.0
H656 H 0.33116 0.51154 0.71952 0.0
H657 H 0.43033 0.57087 0.7718 0.0
H658 H 0.44215 0.60215 0.8107 0.0
H659 H 0.44293 0.60609 0.74471 0.0
H660 H 0.41558 0.63358 0.7511 0.0
H661 H 0.41449 0.63003 0.81744 0.0
H662 H 0.3842 0.61778 0.78273 0.0
H663 H 0.33055 0.506 0.81109 0.0
H664 H 0.34114 0.50542 0.89894 0.0
H665 H 0.41084 0.58766 0.8818 0.0
C666 C 0.39527 0.58034 0.68286 0.0
C667 C 0.38 0.56064 0.64595 0.0
C668 C 0.35619 0.53637 0.65928 0.0
C669 C 0.3486 0.53091 0.70908 0.0
C670 C 0.36486 0.55012 0.74474 0.0
C671 C 0.38755 0.57454 0.73212 0.0
C672 C 0.40333 0.58998 0.77728 0.0
C673 C 0.43132 0.59238 0.77602 0.0
C674 C 0.40443 0.6196 0.78249 0.0
C675 C 0.38662 0.56973 0.81739 0.0
C676 C 0.36433 0.54708 0.79792 0.0
C677 C 0.3475 0.52401 0.82693 0.0
C678 C 0.35376 0.52389 0.87692 0.0
C679 C 0.37663 0.54676 0.8976 0.0
C680 C 0.39293 0.57019 0.86744 0.0
H681 H 0.85227 0.38611 0.24834 0.0
H682 H 0.8076 0.43071 0.29114 0.0
H683 H 0.79406 0.43035 0.2046 0.0
H684 H 0.87908 0.42506 0.14463 0.0
H685 H 0.87798 0.39626 0.107 0.0
H686 H 0.87941 0.39419 0.1731 0.0
H687 H 0.83672 0.34561 0.17245 0.0
H688 H 0.83517 0.34754 0.10605 0.0
H689 H 0.80731 0.34314 0.14322 0.0
H690 H 0.79195 0.43322 0.11414 0.0
H691 H 0.80227 0.44005 0.02522 0.0
H692 H 0.8479 0.39335 0.03871 0.0
C693 C 0.83891 0.39491 0.23967 0.0
C694 C 0.83088 0.40832 0.27648 0.0
C695 C 0.814 0.42033 0.26354 0.0
C696 C 0.80602 0.42002 0.21452 0.0
C697 C 0.81496 0.4075 0.17878 0.0
C698 C 0.83094 0.39502 0.19066 0.0
C699 C 0.84063 0.38648 0.14446 0.0
C700 C 0.87107 0.4014 0.14218 0.0
C701 C 0.82927 0.35374 0.14136 0.0
C702 C 0.82889 0.39765 0.10484 0.0
C703 C 0.81362 0.40908 0.12556 0.0
C704 C 0.80323 0.42367 0.0973 0.0
C705 C 0.80924 0.42751 0.04685 0.0
C706 C 0.8255 0.41681 0.02512 0.0
C707 C 0.8347 0.40088 0.05417 0.0
H708 H 0.37809 0.84129 0.62853 0.0
H709 H 0.41864 0.78912 0.64258 0.0
H710 H 0.4131 0.77887 0.55352 0.0
H711 H 0.33177 0.79748 0.52346 0.0
H712 H 0.33429 0.82956 0.49464 0.0
H713 H 0.33583 0.82753 0.56103 0.0
H714 H 0.38072 0.87376 0.5609 0.0
H715 H 0.37944 0.8758 0.49478 0.0
H716 H 0.40757 0.87504 0.52394 0.0
H717 H 0.41157 0.78219 0.4626 0.0
H718 H 0.41211 0.79708 0.37598 0.0
H719 H 0.37168 0.8462 0.4195 0.0
C720 C 0.38482 0.82679 0.61313 0.0
C721 C 0.39879 0.81603 0.64245 0.0
C722 C 0.40795 0.79771 0.62078 0.0
C723 C 0.40476 0.79159 0.57022 0.0
C724 C 0.39207 0.80364 0.54179 0.0
C725 C 0.3818 0.82047 0.56247 0.0
C726 C 0.37184 0.83349 0.52277 0.0
C727 C 0.34164 0.82128 0.52566 0.0
C728 C 0.38574 0.86646 0.52579 0.0
C729 C 0.37986 0.82303 0.47677 0.0
C730 C 0.39094 0.80532 0.48855 0.0
C731 C 0.40231 0.79543 0.45273 0.0
C732 C 0.4027 0.80417 0.40366 0.0
C733 C 0.39188 0.82274 0.39088 0.0
C734 C 0.37974 0.83163 0.42789 0.0
H735 H 0.63202 0.45759 0.72788 0.0
H736 H 0.56719 0.37162 0.71222 0.0
H737 H 0.56975 0.3631 0.80105 0.0
H738 H 0.6684 0.43953 0.82711 0.0
H739 H 0.67774 0.47321 0.85794 0.0
H740 H 0.67396 0.47089 0.79168 0.0
H741 H 0.64035 0.49126 0.79725 0.0
H742 H 0.64411 0.49366 0.86322 0.0
H743 H 0.61172 0.47366 0.83645 0.0
H744 H 0.57438 0.36651 0.89302 0.0
H745 H 0.58084 0.38204 0.98028 0.0
H746 H 0.64364 0.46488 0.93545 0.0
C747 C 0.6188 0.43673 0.74282 0.0
C748 C 0.59935 0.41539 0.713 0.0
C749 C 0.58221 0.38846 0.73427 0.0
C750 C 0.58361 0.38327 0.7847 0.0
C751 C 0.6025 0.40504 0.81335 0.0
C752 C 0.61999 0.43115 0.79309 0.0
C753 C 0.63664 0.45195 0.83265 0.0
C754 C 0.66592 0.45932 0.827 0.0
C755 C 0.63296 0.47921 0.83237 0.0
C756 C 0.62475 0.43399 0.87837 0.0
C757 C 0.60544 0.40682 0.86657 0.0
C758 C 0.58988 0.3875 0.90282 0.0
C759 C 0.59366 0.39652 0.95231 0.0
C760 C 0.61273 0.42466 0.96489 0.0
C761 C 0.62903 0.44311 0.92737 0.0
H762 H 0.17559 0.61068 0.08467 0.0
H763 H 0.18373 0.53288 0.07055 0.0
H764 H 0.19312 0.53434 0.15985 0.0
H765 H 0.22579 0.64488 0.18511 0.0
H766 H 0.2057 0.65864 0.21487 0.0
H767 H 0.20457 0.65448 0.14865 0.0
H768 H 0.15375 0.62307 0.15297 0.0
H769 H 0.15474 0.62704 0.21897 0.0
H770 H 0.14026 0.59173 0.19204 0.0
H771 H 0.19559 0.54055 0.25188 0.0
H772 H 0.18949 0.55014 0.33897 0.0
H773 H 0.17931 0.6236 0.29253 0.0
C774 C 0.18018 0.59446 0.10001 0.0
C775 C 0.1791 0.57179 0.07058 0.0
C776 C 0.1845 0.55051 0.09238 0.0
C777 C 0.19001 0.55124 0.14303 0.0
C778 C 0.19015 0.57343 0.17131 0.0
C779 C 0.18549 0.59474 0.1505 0.0
C780 C 0.18364 0.61426 0.18963 0.0
C781 C 0.20628 0.64488 0.18424 0.0
C782 C 0.15649 0.61397 0.18831 0.0
C783 C 0.18693 0.59994 0.23578 0.0
C784 C 0.19119 0.57678 0.22451 0.0
C785 C 0.19273 0.55895 0.2612 0.0
C786 C 0.18923 0.56457 0.3106 0.0
C787 C 0.18391 0.58762 0.32274 0.0
C788 C 0.18351 0.6059 0.28471 0.0
H789 H 0.65358 0.18542 0.5957 0.0
H790 H 0.58499 0.1991 0.62045 0.0
H791 H 0.58453 0.21061 0.53252 0.0
H792 H 0.68382 0.24119 0.49262 0.0
H793 H 0.69442 0.21841 0.45997 0.0
H794 H 0.69329 0.21782 0.52658 0.0
H795 H 0.66304 0.16289 0.52472 0.0
H796 H 0.66416 0.16346 0.45845 0.0
H797 H 0.6327 0.14877 0.48973 0.0
H798 H 0.58549 0.21054 0.44051 0.0
H799 H 0.58857 0.19943 0.3527 0.0
H800 H 0.65755 0.18803 0.38748 0.0
C801 C 0.63909 0.19185 0.58291 0.0
C802 C 0.61931 0.19123 0.61491 0.0
C803 C 0.60028 0.1992 0.59657 0.0
C804 C 0.59996 0.20604 0.54666 0.0
C805 C 0.619 0.20521 0.5155 0.0
C806 C 0.63849 0.19874 0.533 0.0
C807 C 0.65454 0.19578 0.49092 0.0
C808 C 0.68322 0.21974 0.49264 0.0
C809 C 0.65351 0.16596 0.49097 0.0
C810 C 0.63984 0.1996 0.44721 0.0
C811 C 0.61979 0.20568 0.46198 0.0
C812 C 0.60159 0.20658 0.42829 0.0
C813 C 0.60345 0.20022 0.37846 0.0
C814 C 0.62323 0.19281 0.36313 0.0
C815 C 0.64223 0.19375 0.39781 0.0
loop_
_geom_bond_atom_site_label_1
_geom_bond_atom_site_label_2
_geom_bond_distance
_geom_bond_site_symmetry_2
_ccdc_geom_bond_type
Co0 O1 2.216 . S
Co0 O2 2.091 . S
Co0 O4 2.004 . S
Co0 O10 2.021 . S
Co0 O12 2.137 . S
Co0 O13 2.244 . S
O1 Co0 2.216 . S
O1 C8 1.247 . S
O2 Co0 2.091 . S
O2 C8 1.261 . S
C3 O12 1.247 . S
C3 O13 1.272 . S
O4 Co0 2.004 . S
O4 C9 1.259 . S
Co5 O6 2.061 . S
Co5 O11 2.052 . S
Co5 O13 2.135 . S
O6 Co5 2.061 . S
O6 C9 1.235 . S
C7 O10 1.238 1_556 S
C7 O11 1.241 1_556 S
C8 O1 1.247 . S
C8 O2 1.261 . S
C9 O4 1.259 . S
C9 O6 1.235 . S
O10 Co0 2.021 . S
O10 C7 1.238 1_554 S
O11 Co5 2.052 . S
O11 C7 1.241 1_554 S
O12 Co0 2.137 . S
O12 C3 1.247 . S
O13 Co0 2.244 . S
O13 C3 1.272 . S
O13 Co5 2.135 . S
Co14 O15 2.216 . S
Co14 O16 2.091 . S
Co14 O18 2.004 . S
Co14 O24 2.021 . S
Co14 O26 2.137 . S
Co14 O27 2.244 . S
O15 Co14 2.216 . S
O15 C22 1.247 . S
O16 Co14 2.091 . S
O16 C22 1.261 . S
C17 O26 1.247 . S
C17 O27 1.272 . S
O18 Co14 2.004 . S
O18 C23 1.259 . S
Co19 O20 2.061 . S
Co19 O25 2.052 . S
Co19 O27 2.135 . S
O20 Co19 2.061 . S
O20 C23 1.235 . S
C21 O24 1.238 . S
C21 O25 1.241 . S
C22 O15 1.247 . S
C22 O16 1.261 . S
C23 O18 1.259 . S
C23 O20 1.235 . S
O24 Co14 2.021 . S
O24 C21 1.238 . S
O25 Co19 2.052 . S
O25 C21 1.241 . S
O26 Co14 2.137 . S
O26 C17 1.247 . S
O27 Co14 2.244 . S
O27 C17 1.272 . S
O27 Co19 2.135 . S
Co28 O29 2.216 . S
Co28 O30 2.091 . S
Co28 O32 2.004 . S
Co28 O38 2.021 . S
Co28 O40 2.137 . S
Co28 O41 2.244 . S
O29 Co28 2.216 . S
O29 C36 1.247 . S
O30 Co28 2.091 . S
O30 C36 1.261 . S
C31 O40 1.247 . S
C31 O41 1.272 . S
O32 Co28 2.004 . S
O32 C37 1.259 . S
Co33 O34 2.061 . S
Co33 O39 2.052 . S
Co33 O41 2.135 . S
O34 Co33 2.061 . S
O34 C37 1.235 . S
C35 O38 1.238 . S
C35 O39 1.241 . S
C36 O29 1.247 . S
C36 O30 1.261 . S
C37 O32 1.259 . S
C37 O34 1.235 . S
O38 Co28 2.021 . S
O38 C35 1.238 . S
O39 Co33 2.052 . S
O39 C35 1.241 . S
O40 Co28 2.137 . S
O40 C31 1.247 . S
O41 Co28 2.244 . S
O41 C31 1.272 . S
O41 Co33 2.135 . S
Co42 O43 2.216 . S
Co42 O44 2.091 . S
Co42 O46 2.004 . S
Co42 O52 2.021 . S
Co42 O54 2.137 . S
Co42 O55 2.244 . S
O43 Co42 2.216 . S
O43 C50 1.247 . S
O44 Co42 2.091 . S
O44 C50 1.261 . S
C45 O54 1.247 . S
C45 O55 1.272 . S
O46 Co42 2.004 . S
O46 C51 1.259 . S
Co47 O48 2.061 . S
Co47 O53 2.052 . S
Co47 O55 2.135 . S
O48 Co47 2.061 . S
O48 C51 1.235 . S
C49 O52 1.238 1_556 S
C49 O53 1.241 1_556 S
C50 O43 1.247 . S
C50 O44 1.261 . S
C51 O46 1.259 . S
C51 O48 1.235 . S
O52 Co42 2.021 . S
O52 C49 1.238 1_554 S
O53 Co47 2.052 . S
O53 C49 1.241 1_554 S
O54 Co42 2.137 . S
O54 C45 1.247 . S
O55 Co42 2.244 . S
O55 C45 1.272 . S
O55 Co47 2.135 . S
Co56 O57 2.216 . S
Co56 O58 2.091 . S
Co56 O60 2.004 . S
Co56 O66 2.021 . S
Co56 O68 2.137 . S
Co56 O69 2.244 . S
O57 Co56 2.216 . S
O57 C64 1.247 . S
O58 Co56 2.091 . S
O58 C64 1.261 . S
C59 O68 1.247 . S
C59 O69 1.272 . S
O60 Co56 2.004 . S
O60 C65 1.259 . S
Co61 O62 2.061 . S
Co61 O67 2.052 . S
Co61 O69 2.135 . S
O62 Co61 2.061 . S
O62 C65 1.235 . S
C63 O66 1.238 . S
C63 O67 1.241 . S
C64 O57 1.247 . S
C64 O58 1.261 . S
C65 O60 1.259 . S
C65 O62 1.235 . S
O66 Co56 2.021 . S
O66 C63 1.238 . S
O67 Co61 2.052 . S
O67 C63 1.241 . S
O68 Co56 2.137 . S
O68 C59 1.247 . S
O69 Co56 2.244 . S
O69 C59 1.272 . S
O69 Co61 2.135 . S
Co70 O71 2.216 . S
Co70 O72 2.091 . S
Co70 O74 2.004 . S
Co70 O80 2.021 . S
Co70 O82 2.137 . S
Co70 O83 2.244 . S
O71 Co70 2.216 . S
O71 C78 1.247 . S
O72 Co70 2.091 . S
O72 C78 1.261 . S
C73 O82 1.247 . S
C73 O83 1.272 . S
O74 Co70 2.004 . S
O74 C79 1.259 . S
Co75 O76 2.061 . S
Co75 O81 2.052 . S
Co75 O83 2.135 . S
O76 Co75 2.061 . S
O76 C79 1.235 . S
C77 O80 1.238 . S
C77 O81 1.241 . S
C78 O71 1.247 . S
C78 O72 1.261 . S
C79 O74 1.259 . S
C79 O76 1.235 . S
O80 Co70 2.021 . S
O80 C77 1.238 . S
O81 Co75 2.052 . S
O81 C77 1.241 . S
O82 Co70 2.137 . S
O82 C73 1.247 . S
O83 Co70 2.244 . S
O83 C73 1.272 . S
O83 Co75 2.135 . S
Co84 O85 2.216 . S
Co84 O86 2.091 . S
Co84 O88 2.004 . S
Co84 O94 2.021 . S
Co84 O96 2.137 . S
Co84 O97 2.244 . S
O85 Co84 2.216 . S
O85 C92 1.247 . S
O86 Co84 2.091 . S
O86 C92 1.261 . S
C87 O96 1.247 . S
C87 O97 1.272 . S
O88 Co84 2.004 . S
O88 C93 1.259 . S
Co89 O90 2.061 . S
Co89 O95 2.052 . S
Co89 O97 2.135 . S
O90 Co89 2.061 . S
O90 C93 1.235 . S
C91 O94 1.238 . S
C91 O95 1.241 . S
C92 O85 1.247 . S
C92 O86 1.261 . S
C93 O88 1.259 . S
C93 O90 1.235 . S
O94 Co84 2.021 . S
O94 C91 1.238 . S
O95 Co89 2.052 . S
O95 C91 1.241 . S
O96 Co84 2.137 . S
O96 C87 1.247 . S
O97 Co84 2.244 . S
O97 C87 1.272 . S
O97 Co89 2.135 . S
Co98 O99 2.216 . S
Co98 O100 2.091 . S
Co98 O102 2.004 . S
Co98 O108 2.021 . S
Co98 O110 2.137 . S
Co98 O111 2.244 . S
O99 Co98 2.216 . S
O99 C106 1.247 . S
O100 Co98 2.091 . S
O100 C106 1.261 . S
C101 O110 1.247 . S
C101 O111 1.272 . S
O102 Co98 2.004 . S
O102 C107 1.259 . S
Co103 O104 2.061 . S
Co103 O109 2.052 . S
Co103 O111 2.135 . S
O104 Co103 2.061 . S
O104 C107 1.235 . S
C105 O108 1.238 1_554 S
C105 O109 1.241 1_554 S
C106 O99 1.247 . S
C106 O100 1.261 . S
C107 O102 1.259 . S
C107 O104 1.235 . S
O108 Co98 2.021 . S
O108 C105 1.238 1_556 S
O109 Co103 2.052 . S
O109 C105 1.241 1_556 S
O110 Co98 2.137 . S
O110 C101 1.247 . S
O111 Co98 2.244 . S
O111 C101 1.272 . S
O111 Co103 2.135 . S
Co112 O113 2.216 . S
Co112 O114 2.091 . S
Co112 O116 2.004 . S
Co112 O122 2.021 . S
Co112 O124 2.137 . S
Co112 O125 2.244 . S
O113 Co112 2.216 . S
O113 C120 1.247 . S
O114 Co112 2.091 . S
O114 C120 1.261 . S
C115 O124 1.247 . S
C115 O125 1.272 . S
O116 Co112 2.004 . S
O116 C121 1.259 . S
Co117 O118 2.061 . S
Co117 O123 2.052 . S
Co117 O125 2.135 . S
O118 Co117 2.061 . S
O118 C121 1.235 . S
C119 O122 1.238 . S
C119 O123 1.241 . S
C120 O113 1.247 . S
C120 O114 1.261 . S
C121 O116 1.259 . S
C121 O118 1.235 . S
O122 Co112 2.021 . S
O122 C119 1.238 . S
O123 Co117 2.052 . S
O123 C119 1.241 . S
O124 Co112 2.137 . S
O124 C115 1.247 . S
O125 Co112 2.244 . S
O125 C115 1.272 . S
O125 Co117 2.135 . S
Co126 O127 2.216 . S
Co126 O128 2.091 . S
Co126 O130 2.004 . S
Co126 O136 2.021 . S
Co126 O138 2.137 . S
Co126 O139 2.244 . S
O127 Co126 2.216 . S
O127 C134 1.247 . S
O128 Co126 2.091 . S
O128 C134 1.261 . S
C129 O138 1.247 . S
C129 O139 1.272 . S
O130 Co126 2.004 . S
O130 C135 1.259 . S
Co131 O132 2.061 . S
Co131 O137 2.052 . S
Co131 O139 2.135 . S
O132 Co131 2.061 . S
O132 C135 1.235 . S
C133 O136 1.238 . S
C133 O137 1.241 . S
C134 O127 1.247 . S
C134 O128 1.261 . S
C135 O130 1.259 . S
C135 O132 1.235 . S
O136 Co126 2.021 . S
O136 C133 1.238 . S
O137 Co131 2.052 . S
O137 C133 1.241 . S
O138 Co126 2.137 . S
O138 C129 1.247 . S
O139 Co126 2.244 . S
O139 C129 1.272 . S
O139 Co131 2.135 . S
Co140 O141 2.216 . S
Co140 O142 2.091 . S
Co140 O144 2.004 . S
Co140 O150 2.021 . S
Co140 O152 2.137 . S
Co140 O153 2.244 . S
O141 Co140 2.216 . S
O141 C148 1.247 . S
O142 Co140 2.091 . S
O142 C148 1.261 . S
C143 O152 1.247 . S
C143 O153 1.272 . S
O144 Co140 2.004 . S
O144 C149 1.259 . S
Co145 O146 2.061 . S
Co145 O151 2.052 . S
Co145 O153 2.135 . S
O146 Co145 2.061 . S
O146 C149 1.235 . S
C147 O150 1.238 1_554 S
C147 O151 1.241 1_554 S
C148 O141 1.247 . S
C148 O142 1.261 . S
C149 O144 1.259 . S
C149 O146 1.235 . S
O150 Co140 2.021 . S
O150 C147 1.238 1_556 S
O151 Co145 2.052 . S
O151 C147 1.241 1_556 S
O152 Co140 2.137 . S
O152 C143 1.247 . S
O153 Co140 2.244 . S
O153 C143 1.272 . S
O153 Co145 2.135 . S
Co154 O155 2.216 . S
Co154 O156 2.091 . S
Co154 O158 2.004 . S
Co154 O164 2.021 . S
Co154 O166 2.137 . S
Co154 O167 2.244 . S
O155 Co154 2.216 . S
O155 C162 1.247 . S
O156 Co154 2.091 . S
O156 C162 1.261 . S
C157 O166 1.247 . S
C157 O167 1.272 . S
O158 Co154 2.004 . S
O158 C163 1.259 . S
Co159 O160 2.061 . S
Co159 O165 2.052 . S
Co159 O167 2.135 . S
O160 Co159 2.061 . S
O160 C163 1.235 . S
C161 O164 1.238 . S
C161 O165 1.241 . S
C162 O155 1.247 . S
C162 O156 1.261 . S
C163 O158 1.259 . S
C163 O160 1.235 . S
O164 Co154 2.021 . S
O164 C161 1.238 . S
O165 Co159 2.052 . S
O165 C161 1.241 . S
O166 Co154 2.137 . S
O166 C157 1.247 . S
O167 Co154 2.244 . S
O167 C157 1.272 . S
O167 Co159 2.135 . S
H168 C180 0.930 . S
H169 C182 0.930 . S
H170 C183 0.930 . S
H171 C187 0.959 . S
H172 C187 0.959 . S
H173 C187 0.961 . S
H174 C188 0.960 . S
H175 C188 0.961 . S
H176 C188 0.959 . S
H177 C191 0.929 . S
H178 C192 0.931 . S
H179 C194 0.930 . S
C180 H168 0.930 . S
C180 C181 1.399 . S
C180 C185 1.399 . S
C181 C180 1.399 . S
C181 C182 1.376 . S
C182 H169 0.930 . S
C182 C181 1.376 . S
C182 C183 1.388 . S
C183 H170 0.930 . S
C183 C182 1.388 . S
C183 C184 1.390 . S
C184 C183 1.390 . S
C184 C185 1.394 . S
C184 C190 1.465 . S
C185 C180 1.399 . S
C185 C184 1.394 . S
C185 C186 1.516 . S
C186 C185 1.516 . S
C186 C187 1.502 . S
C186 C188 1.561 . S
C186 C189 1.526 . S
C187 H171 0.959 . S
C187 H172 0.959 . S
C187 H173 0.961 . S
C187 C186 1.502 . S
C188 H174 0.960 . S
C188 H175 0.961 . S
C188 H176 0.959 . S
C188 C186 1.561 . S
C189 C186 1.526 . S
C189 C190 1.396 . S
C189 C194 1.390 . S
C190 C184 1.465 . S
C190 C189 1.396 . S
C190 C191 1.399 . S
C191 H177 0.929 . S
C191 C190 1.399 . S
C191 C192 1.385 . S
C192 H178 0.931 . S
C192 C191 1.385 . S
C192 C193 1.389 . S
C193 C192 1.389 . S
C193 C194 1.387 . S
C194 H179 0.930 . S
C194 C189 1.390 . S
C194 C193 1.387 . S
H195 C207 0.930 . S
H196 C209 0.930 . S
H197 C210 0.930 . S
H198 C214 0.959 . S
H199 C214 0.959 . S
H200 C214 0.961 . S
H201 C215 0.960 . S
H202 C215 0.961 . S
H203 C215 0.959 . S
H204 C218 0.929 . S
H205 C219 0.931 . S
H206 C221 0.930 . S
C207 H195 0.930 . S
C207 C208 1.399 . S
C207 C212 1.399 . S
C208 C207 1.399 . S
C208 C209 1.376 . S
C209 H196 0.930 . S
C209 C208 1.376 . S
C209 C210 1.388 . S
C210 H197 0.930 . S
C210 C209 1.388 . S
C210 C211 1.390 . S
C211 C210 1.390 . S
C211 C212 1.394 . S
C211 C217 1.465 . S
C212 C207 1.399 . S
C212 C211 1.394 . S
C212 C213 1.516 . S
C213 C212 1.516 . S
C213 C214 1.502 . S
C213 C215 1.561 . S
C213 C216 1.526 . S
C214 H198 0.959 . S
C214 H199 0.959 . S
C214 H200 0.961 . S
C214 C213 1.502 . S
C215 H201 0.960 . S
C215 H202 0.961 . S
C215 H203 0.959 . S
C215 C213 1.561 . S
C216 C213 1.526 . S
C216 C217 1.396 . S
C216 C221 1.390 . S
C217 C211 1.465 . S
C217 C216 1.396 . S
C217 C218 1.399 . S
C218 H204 0.929 . S
C218 C217 1.399 . S
C218 C219 1.385 . S
C219 H205 0.931 . S
C219 C218 1.385 . S
C219 C220 1.389 . S
C220 C219 1.389 . S
C220 C221 1.387 . S
C221 H206 0.930 . S
C221 C216 1.390 . S
C221 C220 1.387 . S
H222 C234 0.930 . S
H223 C236 0.930 . S
H224 C237 0.930 . S
H225 C241 0.959 . S
H226 C241 0.959 1_554 S
H227 C241 0.961 . S
H228 C242 0.960 . S
H229 C242 0.961 1_554 S
H230 C242 0.959 1_554 S
H231 C245 0.929 . S
H232 C246 0.931 . S
H233 C248 0.930 . S
C234 H222 0.930 . S
C234 C235 1.399 . S
C234 C239 1.399 . S
C235 C234 1.399 . S
C235 C236 1.376 . S
C236 H223 0.930 . S
C236 C235 1.376 . S
C236 C237 1.388 . S
C237 H224 0.930 . S
C237 C236 1.388 . S
C237 C238 1.390 . S
C238 C237 1.390 . S
C238 C239 1.394 . S
C238 C244 1.465 1_556 S
C239 C234 1.399 . S
C239 C238 1.394 . S
C239 C240 1.516 . S
C240 C239 1.516 . S
C240 C241 1.502 . S
C240 C242 1.561 . S
C240 C243 1.526 1_556 S
C241 H225 0.959 . S
C241 H226 0.959 1_556 S
C241 H227 0.961 . S
C241 C240 1.502 . S
C242 H228 0.960 . S
C242 H229 0.961 1_556 S
C242 H230 0.959 1_556 S
C242 C240 1.561 . S
C243 C240 1.526 1_554 S
C243 C244 1.396 . S
C243 C248 1.390 . S
C244 C238 1.465 1_554 S
C244 C243 1.396 . S
C244 C245 1.399 . S
C245 H231 0.929 . S
C245 C244 1.399 . S
C245 C246 1.385 . S
C246 H232 0.931 . S
C246 C245 1.385 . S
C246 C247 1.389 . S
C247 C246 1.389 . S
C247 C248 1.387 . S
C248 H233 0.930 . S
C248 C243 1.390 . S
C248 C247 1.387 . S
H249 C261 0.930 . S
H250 C263 0.930 . S
H251 C264 0.930 . S
H252 C268 0.959 . S
H253 C268 0.959 . S
H254 C268 0.961 . S
H255 C269 0.960 . S
H256 C269 0.961 . S
H257 C269 0.959 . S
H258 C272 0.929 . S
H259 C273 0.931 . S
H260 C275 0.930 . S
C261 H249 0.930 . S
C261 C262 1.399 . S
C261 C266 1.399 . S
C262 C261 1.399 . S
C262 C263 1.376 . S
C263 H250 0.930 . S
C263 C262 1.376 . S
C263 C264 1.388 . S
C264 H251 0.930 . S
C264 C263 1.388 . S
C264 C265 1.390 . S
C265 C264 1.390 . S
C265 C266 1.394 . S
C265 C271 1.465 . S
C266 C261 1.399 . S
C266 C265 1.394 . S
C266 C267 1.516 . S
C267 C266 1.516 . S
C267 C268 1.502 . S
C267 C269 1.561 . S
C267 C270 1.526 . S
C268 H252 0.959 . S
C268 H253 0.959 . S
C268 H254 0.961 . S
C268 C267 1.502 . S
C269 H255 0.960 . S
C269 H256 0.961 . S
C269 H257 0.959 . S
C269 C267 1.561 . S
C270 C267 1.526 . S
C270 C271 1.396 . S
C270 C275 1.390 . S
C271 C265 1.465 . S
C271 C270 1.396 . S
C271 C272 1.399 . S
C272 H258 0.929 . S
C272 C271 1.399 . S
C272 C273 1.385 . S
C273 H259 0.931 . S
C273 C272 1.385 . S
C273 C274 1.389 . S
C274 C273 1.389 . S
C274 C275 1.387 . S
C275 H260 0.930 . S
C275 C270 1.390 . S
C275 C274 1.387 . S
H276 C288 0.930 . S
H277 C290 0.930 . S
H278 C291 0.930 . S
H279 C295 0.959 . S
H280 C295 0.959 . S
H281 C295 0.961 . S
H282 C296 0.960 . S
H283 C296 0.961 . S
H284 C296 0.959 . S
H285 C299 0.929 . S
H286 C300 0.931 . S
H287 C302 0.930 . S
C288 H276 0.930 . S
C288 C289 1.399 . S
C288 C293 1.399 . S
C289 C288 1.399 . S
C289 C290 1.376 . S
C290 H277 0.930 . S
C290 C289 1.376 . S
C290 C291 1.388 . S
C291 H278 0.930 . S
C291 C290 1.388 . S
C291 C292 1.390 . S
C292 C291 1.390 . S
C292 C293 1.394 . S
C292 C298 1.465 . S
C293 C288 1.399 . S
C293 C292 1.394 . S
C293 C294 1.516 . S
C294 C293 1.516 . S
C294 C295 1.502 . S
C294 C296 1.561 . S
C294 C297 1.526 . S
C295 H279 0.959 . S
C295 H280 0.959 . S
C295 H281 0.961 . S
C295 C294 1.502 . S
C296 H282 0.960 . S
C296 H283 0.961 . S
C296 H284 0.959 . S
C296 C294 1.561 . S
C297 C294 1.526 . S
C297 C298 1.396 . S
C297 C302 1.390 . S
C298 C292 1.465 . S
C298 C297 1.396 . S
C298 C299 1.399 . S
C299 H285 0.929 . S
C299 C298 1.399 . S
C299 C300 1.385 . S
C300 H286 0.931 . S
C300 C299 1.385 . S
C300 C301 1.389 . S
C301 C300 1.389 . S
C301 C302 1.387 . S
C302 H287 0.930 . S
C302 C297 1.390 . S
C302 C301 1.387 . S
H303 C315 0.930 . S
H304 C317 0.930 . S
H305 C318 0.930 . S
H306 C322 0.959 . S
H307 C322 0.959 1_556 S
H308 C322 0.961 . S
H309 C323 0.959 . S
H310 C323 0.962 1_556 S
H311 C323 0.959 1_556 S
H312 C326 0.929 . S
H313 C327 0.931 . S
H314 C329 0.930 . S
C315 H303 0.930 . S
C315 C316 1.399 . S
C315 C320 1.399 . S
C316 C315 1.399 . S
C316 C317 1.376 . S
C317 H304 0.930 . S
C317 C316 1.376 . S
C317 C318 1.388 . S
C318 H305 0.930 . S
C318 C317 1.388 . S
C318 C319 1.390 . S
C319 C318 1.390 . S
C319 C320 1.394 . S
C319 C325 1.465 1_554 S
C320 C315 1.399 . S
C320 C319 1.394 . S
C320 C321 1.522 . S
C321 C320 1.522 . S
C321 C322 1.503 . S
C321 C323 1.561 . S
C321 C324 1.519 1_554 S
C322 H306 0.959 . S
C322 H307 0.959 1_554 S
C322 H308 0.961 . S
C322 C321 1.503 . S
C323 H309 0.959 . S
C323 H310 0.962 1_554 S
C323 H311 0.959 1_554 S
C323 C321 1.561 . S
C324 C321 1.519 1_556 S
C324 C325 1.396 . S
C324 C329 1.390 . S
C325 C319 1.465 1_556 S
C325 C324 1.396 . S
C325 C326 1.399 . S
C326 H312 0.929 . S
C326 C325 1.399 . S
C326 C327 1.385 . S
C327 H313 0.931 . S
C327 C326 1.385 . S
C327 C328 1.389 . S
C328 C327 1.389 . S
C328 C329 1.387 . S
C329 H314 0.930 . S
C329 C324 1.390 . S
C329 C328 1.387 . S
H330 C342 0.930 . S
H331 C344 0.930 . S
H332 C345 0.930 . S
H333 C349 0.959 . S
H334 C349 0.959 . S
H335 C349 0.961 . S
H336 C350 0.960 . S
H337 C350 0.961 . S
H338 C350 0.959 . S
H339 C353 0.929 . S
H340 C354 0.931 . S
H341 C356 0.930 . S
C342 H330 0.930 . S
C342 C343 1.399 . S
C342 C347 1.399 . S
C343 C342 1.399 . S
C343 C344 1.376 . S
C344 H331 0.930 . S
C344 C343 1.376 . S
C344 C345 1.388 . S
C345 H332 0.930 . S
C345 C344 1.388 . S
C345 C346 1.390 . S
C346 C345 1.390 . S
C346 C347 1.394 . S
C346 C352 1.465 1_554 S
C347 C342 1.399 . S
C347 C346 1.394 . S
C347 C348 1.516 1_554 S
C348 C347 1.516 1_556 S
C348 C349 1.502 1_556 S
C348 C350 1.561 . S
C348 C351 1.526 . S
C349 H333 0.959 . S
C349 H334 0.959 . S
C349 H335 0.961 . S
C349 C348 1.502 1_554 S
C350 H336 0.960 . S
C350 H337 0.961 . S
C350 H338 0.959 . S
C350 C348 1.561 . S
C351 C348 1.526 . S
C351 C352 1.396 . S
C351 C356 1.390 . S
C352 C346 1.465 1_556 S
C352 C351 1.396 . S
C352 C353 1.399 . S
C353 H339 0.929 . S
C353 C352 1.399 . S
C353 C354 1.385 . S
C354 H340 0.931 . S
C354 C353 1.385 . S
C354 C355 1.389 . S
C355 C354 1.389 . S
C355 C356 1.387 . S
C356 H341 0.930 . S
C356 C351 1.390 . S
C356 C355 1.387 . S
H357 C369 0.930 . S
H358 C371 0.930 . S
H359 C372 0.930 . S
H360 C376 0.959 . S
H361 C376 0.959 . S
H362 C376 0.961 . S
H363 C377 0.960 . S
H364 C377 0.961 . S
H365 C377 0.959 . S
H366 C380 0.929 . S
H367 C381 0.931 . S
H368 C383 0.930 . S
C369 H357 0.930 . S
C369 C370 1.399 . S
C369 C374 1.399 . S
C370 C369 1.399 . S
C370 C371 1.376 . S
C371 H358 0.930 . S
C371 C370 1.376 . S
C371 C372 1.388 . S
C372 H359 0.930 . S
C372 C371 1.388 . S
C372 C373 1.390 . S
C373 C372 1.390 . S
C373 C374 1.394 . S
C373 C379 1.465 . S
C374 C369 1.399 . S
C374 C373 1.394 . S
C374 C375 1.516 . S
C375 C374 1.516 . S
C375 C376 1.502 . S
C375 C377 1.561 . S
C375 C378 1.526 . S
C376 H360 0.959 . S
C376 H361 0.959 . S
C376 H362 0.961 . S
C376 C375 1.502 . S
C377 H363 0.960 . S
C377 H364 0.961 . S
C377 H365 0.959 . S
C377 C375 1.561 . S
C378 C375 1.526 . S
C378 C379 1.396 . S
C378 C383 1.390 . S
C379 C373 1.465 . S
C379 C378 1.396 . S
C379 C380 1.399 . S
C380 H366 0.929 . S
C380 C379 1.399 . S
C380 C381 1.385 . S
C381 H367 0.931 . S
C381 C380 1.385 . S
C381 C382 1.389 . S
C382 C381 1.389 . S
C382 C383 1.387 . S
C383 H368 0.930 . S
C383 C378 1.390 . S
C383 C382 1.387 . S
H384 C396 0.930 . S
H385 C398 0.930 . S
H386 C399 0.930 . S
H387 C403 0.959 . S
H388 C403 0.959 . S
H389 C403 0.961 . S
H390 C404 0.960 . S
H391 C404 0.961 . S
H392 C404 0.959 . S
H393 C407 0.929 . S
H394 C408 0.931 . S
H395 C410 0.930 . S
C396 H384 0.930 . S
C396 C397 1.399 . S
C396 C401 1.399 . S
C397 C396 1.399 . S
C397 C398 1.376 . S
C398 H385 0.930 . S
C398 C397 1.376 . S
C398 C399 1.388 . S
C399 H386 0.930 . S
C399 C398 1.388 . S
C399 C400 1.390 . S
C400 C399 1.390 . S
C400 C401 1.394 . S
C400 C406 1.465 . S
C401 C396 1.399 . S
C401 C400 1.394 . S
C401 C402 1.516 . S
C402 C401 1.516 . S
C402 C403 1.502 . S
C402 C404 1.561 . S
C402 C405 1.526 . S
C403 H387 0.959 . S
C403 H388 0.959 . S
C403 H389 0.961 . S
C403 C402 1.502 . S
C404 H390 0.960 . S
C404 H391 0.961 . S
C404 H392 0.959 . S
C404 C402 1.561 . S
C405 C402 1.526 . S
C405 C406 1.396 . S
C405 C410 1.390 . S
C406 C400 1.465 . S
C406 C405 1.396 . S
C406 C407 1.399 . S
C407 H393 0.929 . S
C407 C406 1.399 . S
C407 C408 1.385 . S
C408 H394 0.931 . S
C408 C407 1.385 . S
C408 C409 1.389 . S
C409 C408 1.389 . S
C409 C410 1.387 . S
C410 H395 0.930 . S
C410 C405 1.390 . S
C410 C409 1.387 . S
H411 C423 0.930 . S
H412 C425 0.930 . S
H413 C426 0.930 . S
H414 C430 0.959 . S
H415 C430 0.959 . S
H416 C430 0.961 . S
H417 C431 0.960 . S
H418 C431 0.961 . S
H419 C431 0.959 . S
H420 C434 0.929 . S
H421 C435 0.931 . S
H422 C437 0.930 . S
C423 H411 0.930 . S
C423 C424 1.399 . S
C423 C428 1.399 . S
C424 C423 1.399 . S
C424 C425 1.376 1_554 S
C425 H412 0.930 . S
C425 C424 1.376 1_556 S
C425 C426 1.388 . S
C426 H413 0.930 . S
C426 C425 1.388 . S
C426 C427 1.390 . S
C427 C426 1.390 . S
C427 C428 1.394 1_556 S
C427 C433 1.465 . S
C428 C423 1.399 . S
C428 C427 1.394 1_554 S
C428 C429 1.516 . S
C429 C428 1.516 . S
C429 C430 1.502 . S
C429 C431 1.561 . S
C429 C432 1.526 . S
C430 H414 0.959 . S
C430 H415 0.959 . S
C430 H416 0.961 . S
C430 C429 1.502 . S
C431 H417 0.960 . S
C431 H418 0.961 . S
C431 H419 0.959 . S
C431 C429 1.561 . S
C432 C429 1.526 . S
C432 C433 1.396 1_554 S
C432 C437 1.390 . S
C433 C427 1.465 . S
C433 C432 1.396 1_556 S
C433 C434 1.399 . S
C434 H420 0.929 . S
C434 C433 1.399 . S
C434 C435 1.385 . S
C435 H421 0.931 . S
C435 C434 1.385 . S
C435 C436 1.389 . S
C436 C435 1.389 . S
C436 C437 1.387 1_556 S
C437 H422 0.930 . S
C437 C432 1.390 . S
C437 C436 1.387 1_554 S
H438 C450 0.930 . S
H439 C452 0.930 . S
H440 C453 0.930 . S
H441 C457 0.959 . S
H442 C457 0.959 . S
H443 C457 0.961 . S
H444 C458 0.960 . S
H445 C458 0.961 . S
H446 C458 0.959 . S
H447 C461 0.929 . S
H448 C462 0.931 . S
H449 C464 0.930 . S
C450 H438 0.930 . S
C450 C451 1.399 . S
C450 C455 1.399 . S
C451 C450 1.399 . S
C451 C452 1.376 . S
C452 H439 0.930 . S
C452 C451 1.376 . S
C452 C453 1.388 . S
C453 H440 0.930 . S
C453 C452 1.388 . S
C453 C454 1.390 . S
C454 C453 1.390 . S
C454 C455 1.394 . S
C454 C460 1.465 . S
C455 C450 1.399 . S
C455 C454 1.394 . S
C455 C456 1.516 . S
C456 C455 1.516 . S
C456 C457 1.502 . S
C456 C458 1.561 . S
C456 C459 1.526 . S
C457 H441 0.959 . S
C457 H442 0.959 . S
C457 H443 0.961 . S
C457 C456 1.502 . S
C458 H444 0.960 . S
C458 H445 0.961 . S
C458 H446 0.959 . S
C458 C456 1.561 . S
C459 C456 1.526 . S
C459 C460 1.396 . S
C459 C464 1.390 . S
C460 C454 1.465 . S
C460 C459 1.396 . S
C460 C461 1.399 . S
C461 H447 0.929 . S
C461 C460 1.399 . S
C461 C462 1.385 . S
C462 H448 0.931 . S
C462 C461 1.385 . S
C462 C463 1.389 . S
C463 C462 1.389 . S
C463 C464 1.387 . S
C464 H449 0.930 . S
C464 C459 1.390 . S
C464 C463 1.387 . S
H465 C477 0.930 . S
H466 C479 0.930 . S
H467 C480 0.930 . S
H468 C484 0.959 . S
H469 C484 0.959 . S
H470 C484 0.961 . S
H471 C485 0.960 . S
H472 C485 0.961 . S
H473 C485 0.959 . S
H474 C488 0.929 . S
H475 C489 0.931 . S
H476 C491 0.930 . S
C477 H465 0.930 . S
C477 C478 1.399 . S
C477 C482 1.399 . S
C478 C477 1.399 . S
C478 C479 1.376 . S
C479 H466 0.930 . S
C479 C478 1.376 . S
C479 C480 1.388 . S
C480 H467 0.930 . S
C480 C479 1.388 . S
C480 C481 1.390 . S
C481 C480 1.390 . S
C481 C482 1.394 . S
C481 C487 1.465 . S
C482 C477 1.399 . S
C482 C481 1.394 . S
C482 C483 1.516 . S
C483 C482 1.516 . S
C483 C484 1.502 . S
C483 C485 1.561 . S
C483 C486 1.526 . S
C484 H468 0.959 . S
C484 H469 0.959 . S
C484 H470 0.961 . S
C484 C483 1.502 . S
C485 H471 0.960 . S
C485 H472 0.961 . S
C485 H473 0.959 . S
C485 C483 1.561 . S
C486 C483 1.526 . S
C486 C487 1.396 . S
C486 C491 1.390 . S
C487 C481 1.465 . S
C487 C486 1.396 . S
C487 C488 1.399 . S
C488 H474 0.929 . S
C488 C487 1.399 . S
C488 C489 1.385 . S
C489 H475 0.931 . S
C489 C488 1.385 . S
C489 C490 1.389 . S
C490 C489 1.389 . S
C490 C491 1.387 . S
C491 H476 0.930 . S
C491 C486 1.390 . S
C491 C490 1.387 . S
H492 C504 0.930 . S
H493 C506 0.930 . S
H494 C507 0.930 1_556 S
H495 C511 0.959 . S
H496 C511 0.959 . S
H497 C511 0.961 . S
H498 C512 0.960 . S
H499 C512 0.961 . S
H500 C512 0.959 . S
H501 C515 0.929 1_556 S
H502 C516 0.931 . S
H503 C518 0.930 . S
C504 H492 0.930 . S
C504 C505 1.399 . S
C504 C509 1.399 . S
C505 C504 1.399 . S
C505 C506 1.376 . S
C506 H493 0.930 . S
C506 C505 1.376 . S
C506 C507 1.388 . S
C507 H494 0.930 1_554 S
C507 C506 1.388 . S
C507 C508 1.390 . S
C508 C507 1.390 . S
C508 C509 1.394 . S
C508 C514 1.465 . S
C509 C504 1.399 . S
C509 C508 1.394 . S
C509 C510 1.516 . S
C510 C509 1.516 . S
C510 C511 1.502 . S
C510 C512 1.561 . S
C510 C513 1.526 . S
C511 H495 0.959 . S
C511 H496 0.959 . S
C511 H497 0.961 . S
C511 C510 1.502 . S
C512 H498 0.960 . S
C512 H499 0.961 . S
C512 H500 0.959 . S
C512 C510 1.561 . S
C513 C510 1.526 . S
C513 C514 1.396 . S
C513 C518 1.390 . S
C514 C508 1.465 . S
C514 C513 1.396 . S
C514 C515 1.399 . S
C515 H501 0.929 1_554 S
C515 C514 1.399 . S
C515 C516 1.385 . S
C516 H502 0.931 . S
C516 C515 1.385 . S
C516 C517 1.389 . S
C517 C516 1.389 . S
C517 C518 1.387 . S
C518 H503 0.930 . S
C518 C513 1.390 . S
C518 C517 1.387 . S
H519 C531 0.930 . S
H520 C533 0.930 . S
H521 C534 0.930 . S
H522 C538 0.959 . S
H523 C538 0.959 . S
H524 C538 0.976 . S
H525 C539 0.960 . S
H526 C539 0.961 1_455 S
H527 C539 0.959 . S
H528 C542 0.929 . S
H529 C543 0.931 . S
H530 C545 0.930 . S
C531 H519 0.930 . S
C531 C532 1.399 . S
C531 C536 1.399 . S
C532 C531 1.399 . S
C532 C533 1.376 . S
C533 H520 0.930 . S
C533 C532 1.376 . S
C533 C534 1.388 . S
C534 H521 0.930 . S
C534 C533 1.388 . S
C534 C535 1.390 . S
C535 C534 1.390 . S
C535 C536 1.394 . S
C535 C541 1.465 1_655 S
C536 C531 1.399 . S
C536 C535 1.394 . S
C536 C537 1.516 1_655 S
C537 C536 1.516 1_455 S
C537 C538 1.502 . S
C537 C539 1.561 1_455 S
C537 C540 1.526 . S
C538 H522 0.959 . S
C538 H523 0.959 . S
C538 H524 0.976 . S
C538 C537 1.502 . S
C539 H525 0.960 . S
C539 H526 0.961 1_655 S
C539 H527 0.959 . S
C539 C537 1.561 1_655 S
C540 C537 1.526 . S
C540 C541 1.396 . S
C540 C545 1.390 . S
C541 C535 1.465 1_455 S
C541 C540 1.396 . S
C541 C542 1.399 . S
C542 H528 0.929 . S
C542 C541 1.399 . S
C542 C543 1.385 . S
C543 H529 0.931 . S
C543 C542 1.385 . S
C543 C544 1.389 . S
C544 C543 1.389 . S
C544 C545 1.387 . S
C545 H530 0.930 . S
C545 C540 1.390 . S
C545 C544 1.387 . S
H546 C558 0.930 . S
H547 C560 0.930 . S
H548 C561 0.930 . S
H549 C565 0.959 . S
H550 C565 0.959 1_565 S
H551 C565 0.961 . S
H552 C566 0.960 1_545 S
H553 C566 0.961 . S
H554 C566 0.959 . S
H555 C569 0.929 . S
H556 C570 0.931 . S
H557 C572 0.930 . S
C558 H546 0.930 . S
C558 C559 1.399 . S
C558 C563 1.399 . S
C559 C558 1.399 . S
C559 C560 1.376 . S
C560 H547 0.930 . S
C560 C559 1.376 . S
C560 C561 1.388 . S
C561 H548 0.930 . S
C561 C560 1.388 . S
C561 C562 1.390 . S
C562 C561 1.390 . S
C562 C563 1.394 . S
C562 C568 1.465 1_545 S
C563 C558 1.399 . S
C563 C562 1.394 . S
C563 C564 1.516 . S
C564 C563 1.516 . S
C564 C565 1.502 . S
C564 C566 1.561 1_545 S
C564 C567 1.526 1_545 S
C565 H549 0.959 . S
C565 H550 0.959 1_545 S
C565 H551 0.961 . S
C565 C564 1.502 . S
C566 H552 0.960 1_565 S
C566 H553 0.961 . S
C566 H554 0.959 . S
C566 C564 1.561 1_565 S
C567 C564 1.526 1_565 S
C567 C568 1.396 . S
C567 C572 1.390 . S
C568 C562 1.465 1_565 S
C568 C567 1.396 . S
C568 C569 1.399 . S
C569 H555 0.929 . S
C569 C568 1.399 . S
C569 C570 1.385 . S
C570 H556 0.931 . S
C570 C569 1.385 . S
C570 C571 1.389 . S
C571 C570 1.389 . S
C571 C572 1.387 . S
C572 H557 0.930 . S
C572 C567 1.390 . S
C572 C571 1.387 . S
H573 C585 0.930 . S
H574 C587 0.930 . S
H575 C588 0.930 . S
H576 C592 0.959 . S
H577 C592 0.959 . S
H578 C592 0.961 . S
H579 C593 0.960 . S
H580 C593 0.961 . S
H581 C593 0.959 . S
H582 C596 0.929 . S
H583 C597 0.931 . S
H584 C599 0.930 . S
C585 H573 0.930 . S
C585 C586 1.399 . S
C585 C590 1.399 . S
C586 C585 1.399 . S
C586 C587 1.376 . S
C587 H574 0.930 . S
C587 C586 1.376 . S
C587 C588 1.388 . S
C588 H575 0.930 . S
C588 C587 1.388 . S
C588 C589 1.390 . S
C589 C588 1.390 . S
C589 C590 1.394 . S
C589 C595 1.465 . S
C590 C585 1.399 . S
C590 C589 1.394 . S
C590 C591 1.516 . S
C591 C590 1.516 . S
C591 C592 1.502 . S
C591 C593 1.561 . S
C591 C594 1.526 . S
C592 H576 0.959 . S
C592 H577 0.959 . S
C592 H578 0.961 . S
C592 C591 1.502 . S
C593 H579 0.960 . S
C593 H580 0.961 . S
C593 H581 0.959 . S
C593 C591 1.561 . S
C594 C591 1.526 . S
C594 C595 1.396 . S
C594 C599 1.390 . S
C595 C589 1.465 . S
C595 C594 1.396 . S
C595 C596 1.399 . S
C596 H582 0.929 . S
C596 C595 1.399 . S
C596 C597 1.385 . S
C597 H583 0.931 . S
C597 C596 1.385 . S
C597 C598 1.389 . S
C598 C597 1.389 . S
C598 C599 1.387 . S
C599 H584 0.930 . S
C599 C594 1.390 . S
C599 C598 1.387 . S
H600 C612 0.930 . S
H601 C614 0.930 . S
H602 C615 0.930 . S
H603 C619 0.959 . S
H604 C619 0.959 . S
H605 C619 0.961 . S
H606 C620 0.960 . S
H607 C620 0.961 . S
H608 C620 0.959 . S
H609 C623 0.929 . S
H610 C624 0.931 . S
H611 C626 0.930 . S
C612 H600 0.930 . S
C612 C613 1.399 . S
C612 C617 1.399 . S
C613 C612 1.399 . S
C613 C614 1.376 . S
C614 H601 0.930 . S
C614 C613 1.376 . S
C614 C615 1.388 . S
C615 H602 0.930 . S
C615 C614 1.388 . S
C615 C616 1.390 . S
C616 C615 1.390 . S
C616 C617 1.394 . S
C616 C622 1.465 1_455 S
C617 C612 1.399 . S
C617 C616 1.394 . S
C617 C618 1.516 1_455 S
C618 C617 1.516 1_655 S
C618 C619 1.502 . S
C618 C620 1.561 . S
C618 C621 1.526 . S
C619 H603 0.959 . S
C619 H604 0.959 . S
C619 H605 0.961 . S
C619 C618 1.502 . S
C620 H606 0.960 . S
C620 H607 0.961 . S
C620 H608 0.959 . S
C620 C618 1.561 . S
C621 C618 1.526 . S
C621 C622 1.396 . S
C621 C626 1.390 . S
C622 C616 1.465 1_655 S
C622 C621 1.396 . S
C622 C623 1.399 . S
C623 H609 0.929 . S
C623 C622 1.399 . S
C623 C624 1.385 . S
C624 H610 0.931 . S
C624 C623 1.385 . S
C624 C625 1.389 . S
C625 C624 1.389 . S
C625 C626 1.387 . S
C626 H611 0.930 . S
C626 C621 1.390 . S
C626 C625 1.387 . S
H627 C639 0.930 . S
H628 C641 0.930 . S
H629 C642 0.930 1_545 S
H630 C646 0.959 . S
H631 C646 0.959 . S
H632 C646 0.961 . S
H633 C647 0.960 . S
H634 C647 0.961 . S
H635 C647 0.959 . S
H636 C650 0.929 . S
H637 C651 0.931 . S
H638 C653 0.930 . S
C639 H627 0.930 . S
C639 C640 1.399 . S
C639 C644 1.399 . S
C640 C639 1.399 . S
C640 C641 1.376 . S
C641 H628 0.930 . S
C641 C640 1.376 . S
C641 C642 1.388 . S
C642 H629 0.930 1_565 S
C642 C641 1.388 . S
C642 C643 1.382 . S
C643 C642 1.382 . S
C643 C644 1.406 . S
C643 C649 1.466 1_565 S
C644 C639 1.399 . S
C644 C643 1.406 . S
C644 C645 1.516 . S
C645 C644 1.516 . S
C645 C646 1.502 . S
C645 C647 1.561 1_565 S
C645 C648 1.526 1_565 S
C646 H630 0.959 . S
C646 H631 0.959 . S
C646 H632 0.961 . S
C646 C645 1.502 . S
C647 H633 0.960 . S
C647 H634 0.961 . S
C647 H635 0.959 . S
C647 C645 1.561 1_545 S
C648 C645 1.526 1_545 S
C648 C649 1.396 . S
C648 C653 1.390 . S
C649 C643 1.466 1_545 S
C649 C648 1.396 . S
C649 C650 1.399 . S
C650 H636 0.929 . S
C650 C649 1.399 . S
C650 C651 1.385 . S
C651 H637 0.931 . S
C651 C650 1.385 . S
C651 C652 1.389 . S
C652 C651 1.389 . S
C652 C653 1.387 . S
C653 H638 0.930 . S
C653 C648 1.390 . S
C653 C652 1.387 . S
H654 C666 0.930 . S
H655 C668 0.930 . S
H656 C669 0.930 . S
H657 C673 0.959 . S
H658 C673 0.959 . S
H659 C673 0.961 . S
H660 C674 0.960 . S
H661 C674 0.961 . S
H662 C674 0.959 . S
H663 C677 0.929 . S
H664 C678 0.931 . S
H665 C680 0.930 . S
C666 H654 0.930 . S
C666 C667 1.399 . S
C666 C671 1.399 . S
C667 C666 1.399 . S
C667 C668 1.376 . S
C668 H655 0.930 . S
C668 C667 1.376 . S
C668 C669 1.388 . S
C669 H656 0.930 . S
C669 C668 1.388 . S
C669 C670 1.390 . S
C670 C669 1.390 . S
C670 C671 1.394 . S
C670 C676 1.465 . S
C671 C666 1.399 . S
C671 C670 1.394 . S
C671 C672 1.516 . S
C672 C671 1.516 . S
C672 C673 1.502 . S
C672 C674 1.561 . S
C672 C675 1.526 . S
C673 H657 0.959 . S
C673 H658 0.959 . S
C673 H659 0.961 . S
C673 C672 1.502 . S
C674 H660 0.960 . S
C674 H661 0.961 . S
C674 H662 0.959 . S
C674 C672 1.561 . S
C675 C672 1.526 . S
C675 C676 1.396 . S
C675 C680 1.390 . S
C676 C670 1.465 . S
C676 C675 1.396 . S
C676 C677 1.399 . S
C677 H663 0.929 . S
C677 C676 1.399 . S
C677 C678 1.385 . S
C678 H664 0.931 . S
C678 C677 1.385 . S
C678 C679 1.389 . S
C679 C678 1.389 . S
C679 C680 1.387 . S
C680 H665 0.930 . S
C680 C675 1.390 . S
C680 C679 1.387 . S
H681 C693 0.930 . S
H682 C695 0.930 . S
H683 C696 0.930 . S
H684 C700 0.959 . S
H685 C700 0.959 . S
H686 C700 0.961 . S
H687 C701 0.960 . S
H688 C701 0.961 . S
H689 C701 0.959 . S
H690 C704 0.929 . S
H691 C705 0.931 . S
H692 C707 0.930 . S
C693 H681 0.930 . S
C693 C694 1.399 . S
C693 C698 1.399 . S
C694 C693 1.399 . S
C694 C695 1.376 . S
C695 H682 0.930 . S
C695 C694 1.376 . S
C695 C696 1.388 . S
C696 H683 0.930 . S
C696 C695 1.388 . S
C696 C697 1.390 . S
C697 C696 1.390 . S
C697 C698 1.394 . S
C697 C703 1.465 . S
C698 C693 1.399 . S
C698 C697 1.394 . S
C698 C699 1.516 . S
C699 C698 1.516 . S
C699 C700 1.502 . S
C699 C701 1.561 . S
C699 C702 1.526 . S
C700 H684 0.959 . S
C700 H685 0.959 . S
C700 H686 0.961 . S
C700 C699 1.502 . S
C701 H687 0.960 . S
C701 H688 0.961 . S
C701 H689 0.959 . S
C701 C699 1.561 . S
C702 C699 1.526 . S
C702 C703 1.396 . S
C702 C707 1.390 . S
C703 C697 1.465 . S
C703 C702 1.396 . S
C703 C704 1.399 . S
C704 H690 0.929 . S
C704 C703 1.399 . S
C704 C705 1.385 . S
C705 H691 0.931 . S
C705 C704 1.385 . S
C705 C706 1.389 . S
C706 C705 1.389 . S
C706 C707 1.387 . S
C707 H692 0.930 . S
C707 C702 1.390 . S
C707 C706 1.387 . S
H708 C720 0.930 . S
H709 C722 0.930 . S
H710 C723 0.930 . S
H711 C727 0.959 . S
H712 C727 0.959 . S
H713 C727 0.961 . S
H714 C728 0.960 . S
H715 C728 0.961 . S
H716 C728 0.959 . S
H717 C731 0.929 . S
H718 C732 0.931 . S
H719 C734 0.930 . S
C720 H708 0.930 . S
C720 C721 1.399 . S
C720 C725 1.399 . S
C721 C720 1.399 . S
C721 C722 1.376 . S
C722 H709 0.930 . S
C722 C721 1.376 . S
C722 C723 1.388 . S
C723 H710 0.930 . S
C723 C722 1.388 . S
C723 C724 1.390 . S
C724 C723 1.390 . S
C724 C725 1.394 . S
C724 C730 1.465 . S
C725 C720 1.399 . S
C725 C724 1.394 . S
C725 C726 1.516 . S
C726 C725 1.516 . S
C726 C727 1.502 . S
C726 C728 1.561 . S
C726 C729 1.526 . S
C727 H711 0.959 . S
C727 H712 0.959 . S
C727 H713 0.961 . S
C727 C726 1.502 . S
C728 H714 0.960 . S
C728 H715 0.961 . S
C728 H716 0.959 . S
C728 C726 1.561 . S
C729 C726 1.526 . S
C729 C730 1.396 . S
C729 C734 1.390 . S
C730 C724 1.465 . S
C730 C729 1.396 . S
C730 C731 1.399 . S
C731 H717 0.929 . S
C731 C730 1.399 . S
C731 C732 1.385 . S
C732 H718 0.931 . S
C732 C731 1.385 . S
C732 C733 1.389 . S
C733 C732 1.389 . S
C733 C734 1.387 . S
C734 H719 0.930 . S
C734 C729 1.390 . S
C734 C733 1.387 . S
H735 C747 0.930 . S
H736 C749 0.930 . S
H737 C750 0.930 . S
H738 C754 0.959 . S
H739 C754 0.959 . S
H740 C754 0.961 . S
H741 C755 0.960 . S
H742 C755 0.961 . S
H743 C755 0.959 . S
H744 C758 0.929 . S
H745 C759 0.931 . S
H746 C761 0.930 . S
C747 H735 0.930 . S
C747 C748 1.399 . S
C747 C752 1.399 . S
C748 C747 1.399 . S
C748 C749 1.376 . S
C749 H736 0.930 . S
C749 C748 1.376 . S
C749 C750 1.388 . S
C750 H737 0.930 . S
C750 C749 1.388 . S
C750 C751 1.390 . S
C751 C750 1.390 . S
C751 C752 1.394 . S
C751 C757 1.465 . S
C752 C747 1.399 . S
C752 C751 1.394 . S
C752 C753 1.516 . S
C753 C752 1.516 . S
C753 C754 1.502 . S
C753 C755 1.561 . S
C753 C756 1.526 . S
C754 H738 0.959 . S
C754 H739 0.959 . S
C754 H740 0.961 . S
C754 C753 1.502 . S
C755 H741 0.960 . S
C755 H742 0.961 . S
C755 H743 0.959 . S
C755 C753 1.561 . S
C756 C753 1.526 . S
C756 C757 1.396 . S
C756 C761 1.390 . S
C757 C751 1.465 . S
C757 C756 1.396 . S
C757 C758 1.399 . S
C758 H744 0.929 . S
C758 C757 1.399 . S
C758 C759 1.385 . S
C759 H745 0.931 . S
C759 C758 1.385 . S
C759 C760 1.389 . S
C760 C759 1.389 . S
C760 C761 1.387 . S
C761 H746 0.930 . S
C761 C756 1.390 . S
C761 C760 1.387 . S
H762 C774 0.930 . S
H763 C776 0.930 . S
H764 C777 0.930 . S
H765 C781 0.959 . S
H766 C781 0.959 . S
H767 C781 0.961 . S
H768 C782 0.960 . S
H769 C782 0.961 . S
H770 C782 0.959 . S
H771 C785 0.929 . S
H772 C786 0.931 . S
H773 C788 0.930 . S
C774 H762 0.930 . S
C774 C775 1.399 . S
C774 C779 1.399 . S
C775 C774 1.399 . S
C775 C776 1.376 . S
C776 H763 0.930 . S
C776 C775 1.376 . S
C776 C777 1.388 . S
C777 H764 0.930 . S
C777 C776 1.388 . S
C777 C778 1.390 . S
C778 C777 1.390 . S
C778 C779 1.394 . S
C778 C784 1.465 . S
C779 C774 1.399 . S
C779 C778 1.394 . S
C779 C780 1.516 . S
C780 C779 1.516 . S
C780 C781 1.502 . S
C780 C782 1.561 . S
C780 C783 1.526 . S
C781 H765 0.959 . S
C781 H766 0.959 . S
C781 H767 0.961 . S
C781 C780 1.502 . S
C782 H768 0.960 . S
C782 H769 0.961 . S
C782 H770 0.959 . S
C782 C780 1.561 . S
C783 C780 1.526 . S
C783 C784 1.396 . S
C783 C788 1.390 . S
C784 C778 1.465 . S
C784 C783 1.396 . S
C784 C785 1.399 . S
C785 H771 0.929 . S
C785 C784 1.399 . S
C785 C786 1.385 . S
C786 H772 0.931 . S
C786 C785 1.385 . S
C786 C787 1.389 . S
C787 C786 1.389 . S
C787 C788 1.387 . S
C788 H773 0.930 . S
C788 C783 1.390 . S
C788 C787 1.387 . S
H789 C801 0.930 . S
H790 C803 0.930 . S
H791 C804 0.930 . S
H792 C808 0.959 . S
H793 C808 0.959 . S
H794 C808 0.961 . S
H795 C809 0.960 . S
H796 C809 0.961 . S
H797 C809 0.959 . S
H798 C812 0.929 . S
H799 C813 0.931 . S
H800 C815 0.930 . S
C801 H789 0.930 . S
C801 C802 1.399 . S
C801 C806 1.399 . S
C802 C801 1.399 . S
C802 C803 1.376 . S
C803 H790 0.930 . S
C803 C802 1.376 . S
C803 C804 1.388 . S
C804 H791 0.930 . S
C804 C803 1.388 . S
C804 C805 1.390 . S
C805 C804 1.390 . S
C805 C806 1.394 . S
C805 C811 1.465 . S
C806 C801 1.399 . S
C806 C805 1.394 . S
C806 C807 1.516 . S
C807 C806 1.516 . S
C807 C808 1.502 . S
C807 C809 1.561 . S
C807 C810 1.526 . S
C808 H792 0.959 . S
C808 H793 0.959 . S
C808 H794 0.961 . S
C808 C807 1.502 . S
C809 H795 0.960 . S
C809 H796 0.961 . S
C809 H797 0.959 . S
C809 C807 1.561 . S
C810 C807 1.526 . S
C810 C811 1.396 . S
C810 C815 1.390 . S
C811 C805 1.465 . S
C811 C810 1.396 . S
C811 C812 1.399 . S
C812 H798 0.929 . S
C812 C811 1.399 . S
C812 C813 1.385 . S
C813 H799 0.931 . S
C813 C812 1.385 . S
C813 C814 1.389 . S
C814 C813 1.389 . S
C814 C815 1.387 . S
C815 H800 0.930 . S
C815 C810 1.390 . S
C815 C814 1.387 . S
C181 C3 1.530 . S
C193 C87 1.476 . S
C208 C17 1.443 . S
C220 C101 1.425 . S
C235 C31 1.474 . S
C247 C115 1.526 . S
C262 C45 1.490 . S
C274 C129 1.529 . S
C289 C59 1.460 . S
C301 C143 1.477 . S
C316 C157 1.486 . S
C328 C73 1.507 . S
C343 C8 1.539 . S
C355 C148 1.580 . S
C370 C22 1.599 . S
C382 C162 1.469 . S
C397 C36 1.558 . S
C409 C92 1.542 . S
C424 C50 1.470 . S
C436 C106 1.599 . S
C451 C64 1.572 . S
C463 C120 1.546 . S
C478 C78 1.543 . S
C490 C134 1.564 . S
C505 C9 1.941 . S
C517 C51 1.869 . S
C532 C23 1.322 . S
C544 C65 1.387 . S
C559 C79 1.172 . S
C571 C37 1.219 . S
C586 C93 1.211 . S
C598 C135 1.211 . S
C613 C149 1.329 . S
C625 C107 1.404 . S
C640 C121 1.933 . S
C652 C163 1.878 . S
C667 C91 0.794 . S
C679 C7 0.748 . S
C694 C21 0.784 . S
C706 C105 0.727 . S
C721 C35 0.766 . S
C733 C119 0.782 . S
C748 C133 0.711 . S
C760 C49 0.758 . S
C775 C147 0.694 . S
C787 C63 0.721 . S
C802 C77 0.729 . S
C814 C161 0.721 . S
