# Generated by pormake.
# Topology kag, (6)-cn, num edge types: 1
# Building blocks:
#     Node 0, Type 0, BuildingBlock: KUMBUR_clean_sbu_1, # of connection points: 6
#     Node 1, Type 0, BuildingBlock: KUMBUR_clean_sbu_1, # of connection points: 6
#     Node 2, Type 0, BuildingBlock: KUMBUR_clean_sbu_1, # of connection points: 6
#     Edge 3, Type (0, 0), BuildingBlock: EZIPEK_clean_linker_0, # of connection points: 2
#     Edge 4, Type (0, 0), BuildingBlock: EZIPEK_clean_linker_0, # of connection points: 2
#     Edge 5, Type (0, 0), BuildingBlock: EZIPEK_clean_linker_0, # of connection points: 2
#     Edge 6, Type (0, 0), BuildingBlock: EZIPEK_clean_linker_0, # of connection points: 2
#     Edge 7, Type (0, 0), BuildingBlock: EZIPEK_clean_linker_0, # of connection points: 2
#     Edge 8, Type (0, 0), BuildingBlock: EZIPEK_clean_linker_0, # of connection points: 2
#     Edge 9, Type (0, 0), BuildingBlock: EZIPEK_clean_linker_0, # of connection points: 2
#     Edge 10, Type (0, 0), BuildingBlock: EZIPEK_clean_linker_0, # of connection points: 2
#     Edge 11, Type (0, 0), BuildingBlock: EZIPEK_clean_linker_0, # of connection points: 2
# Relax obj value: 0.138
# Max RMSD: 0.204
# Mean RMSD: 0.149
data_MOF--net-kag--node1-KUMBUR_clean_sbu_1--edge1-EZIPEK_clean_linker_0
_symmetry_space_group_name_H-M    P1
_symmetry_Int_Tables_number       1
_symmetry_cell_setting            triclinic
loop_
_symmetry_equiv_pos_as_xyz
'x, y, z'
_cell_length_a     23.008127
_cell_length_b     32.688285
_cell_length_c     10.770565
_cell_angle_alpha  107.75011
_cell_angle_beta   96.753695
_cell_angle_gamma 93.892781
loop_
_atom_site_label
_atom_site_type_symbol
_atom_site_fract_x
_atom_site_fract_y
_atom_site_fract_z
_atom_type_partial_charge
Tb0 Tb 0.08034 0.57241 0.07133 0.0
C1 C 0.1302 0.37919 0.76684 0.0
N2 N 0.09218 0.4073 0.74514 0.0
C3 C 0.09656 0.38027 0.51276 0.0
C4 C 0.15162 0.34976 0.66135 0.0
C5 C 0.07364 0.40705 0.61934 0.0
C6 C 0.13565 0.35143 0.53373 0.0
C7 C 0.18177 0.34802 0.92024 0.0
C8 C 0.14584 0.37867 0.8951 0.0
C9 C 0.20122 0.3176 0.81463 0.0
C10 C 0.18661 0.31872 0.68583 0.0
Tb11 Tb 1.05281 0.44365 0.92756 0.0
N12 N 0.1243 0.40737 0.99464 0.0
C13 C 0.19623 0.34838 0.05058 0.0
C14 C 0.13571 0.40637 0.12083 0.0
C15 C 0.17311 0.37773 0.15134 0.0
H16 H 1.03887 0.4255 0.59882 0.0
H17 H 0.1825 0.37734 0.25183 0.0
H18 H 0.07387 0.59245 0.38938 0.0
H19 H 0.96038 0.62649 0.6954 0.0
H20 H 0.11429 0.42637 0.19717 0.0
H21 H 0.22417 0.32558 0.07404 0.0
H22 H 1.0357 0.58823 0.77891 0.0
H23 H 0.08218 0.38065 0.41376 0.0
H24 H 0.22839 0.2935 0.83182 0.0
H25 H 0.2025 0.29531 0.60564 0.0
H26 H 1.02074 0.63802 0.55374 0.0
H27 H 0.15181 0.32973 0.45033 0.0
H28 H 0.90013 0.67135 0.84597 0.0
N29 N 1.02604 0.60576 0.2274 0.0
C30 C 0.9868 0.6304 0.18873 0.0
C31 C 1.00933 0.63524 0.45114 0.0
C32 C 0.95617 0.65783 0.28057 0.0
C33 C 1.03882 0.60872 0.35697 0.0
C34 C 0.96733 0.65958 0.41282 0.0
N35 N 1.01132 0.604 0.9719 0.0
C36 C 1.00696 0.60453 0.84461 0.0
C37 C 0.93849 0.65459 0.0149 0.0
C38 C 0.97864 0.62908 0.05709 0.0
C39 C 0.93128 0.65283 0.88268 0.0
C40 C 0.9655 0.62761 0.79732 0.0
H41 H 0.94496 0.68046 0.48652 0.0
H42 H 0.89279 0.70474 0.30777 0.0
H43 H 0.87687 0.70159 0.07528 0.0
O44 O 0.11219 0.63181 0.05191 0.0
O45 O 0.98683 0.54222 0.06538 0.0
O46 O 0.97127 0.47533 0.90418 0.0
O47 O 0.13812 0.61626 0.22874 0.0
O48 O 0.0962 0.54475 0.86845 0.0
O49 O 1.03326 0.48218 0.79742 0.0
O50 O 1.00718 0.40169 0.00679 0.0
O51 O 0.15026 0.46898 0.9774 0.0
O52 O 0.16321 0.5438 0.01984 0.0
O53 O 1.00356 0.38715 0.79752 0.0
O54 O 1.04049 0.47422 0.13284 0.0
O55 O 0.10684 0.53511 0.20165 0.0
C56 C 0.95048 0.50769 0.98848 0.0
C57 C 0.20511 0.6648 0.1741 0.0
C58 C 0.26944 0.7192 0.12748 0.0
C59 C 0.31738 0.70928 0.20202 0.0
C60 C 0.25364 0.65555 0.24946 0.0
C61 C 0.30946 0.67743 0.26217 0.0
C62 C 0.21347 0.69691 0.11367 0.0
C63 C 0.06938 0.51085 0.77366 0.0
C64 C 0.14487 0.64427 0.16649 0.0
C65 C 0.91667 0.68346 0.23854 0.0
C66 C 0.90766 0.68168 0.1061 0.0
C67 C 0.18478 0.5059 0.99883 0.0
C68 C 0.92308 0.35802 0.87197 0.0
C69 C 0.85006 0.29968 0.86597 0.0
C70 C 0.80491 0.32415 0.84078 0.0
C71 C 0.8777 0.38142 0.84088 0.0
C72 C 0.90902 0.31699 0.88273 0.0
C73 C 0.81883 0.36477 0.8274 0.0
C74 C 0.07295 0.50561 0.22673 0.0
C75 C 0.98546 0.37486 0.89142 0.0
H76 H 0.36066 0.72654 0.21471 0.0
H77 H 0.24836 0.63211 0.30077 0.0
H78 H 0.34651 0.67014 0.32054 0.0
H79 H 0.17632 0.70514 0.05764 0.0
H80 H 0.75918 0.31145 0.82917 0.0
H81 H 0.88763 0.41251 0.82794 0.0
H82 H 0.94395 0.29834 0.90383 0.0
H83 H 0.78397 0.3833 0.80589 0.0
Tb84 Tb 0.4465 0.99617 0.94481 0.0
C85 C 0.70508 0.95867 0.16814 0.0
N86 N 0.67605 0.99416 0.20823 0.0
C87 C 0.718 0.0057 0.43254 0.0
C88 C 0.73971 0.94415 0.25979 0.0
C89 C 0.68353 0.0186 0.33803 0.0
C90 C 0.74508 0.9678 0.39365 0.0
C91 C 0.7343 0.90259 0.9881 0.0
C92 C 0.70246 0.93819 0.0342 0.0
C93 C 0.76669 0.88674 0.07903 0.0
C94 C 0.76939 0.90748 0.21462 0.0
Tb95 Tb 0.62056 0.01106 0.0444 0.0
N96 N 0.67068 0.9544 0.94913 0.0
C97 C 0.73396 0.88482 0.85217 0.0
C98 C 0.67331 0.93894 0.81693 0.0
C99 C 0.7041 0.90353 0.76645 0.0
H100 H 0.66415 0.04861 0.36803 0.0
H101 H 0.70501 0.89082 0.66147 0.0
H102 H 0.43441 0.00489 0.64676 0.0
H103 H 0.38498 0.09898 0.40226 0.0
H104 H 0.65131 0.95334 0.74963 0.0
H105 H 0.75797 0.8575 0.81276 0.0
H106 H 0.41602 0.03267 0.26039 0.0
H107 H 0.72466 0.02526 0.53505 0.0
H108 H 0.79101 0.85915 0.04553 0.0
H109 H 0.79578 0.89558 0.2836 0.0
H110 H 0.40837 0.05885 0.53968 0.0
H111 H 0.77174 0.95796 0.46717 0.0
H112 H 0.36071 0.15797 0.31489 0.0
N113 N 0.42134 0.0438 0.83682 0.0
C114 C 0.40022 0.08015 0.90817 0.0
C115 C 0.40636 0.06564 0.64361 0.0
C116 C 0.38429 0.11197 0.85105 0.0
C117 C 0.42204 0.03524 0.70494 0.0
C118 C 0.388 0.10446 0.71714 0.0
N119 N 0.41492 0.05474 0.09237 0.0
C120 C 0.40839 0.05846 0.21996 0.0
C121 C 0.37865 0.12433 0.1191 0.0
C122 C 0.39794 0.08614 0.0407 0.0
C123 C 0.37535 0.12914 0.2513 0.0
C124 C 0.38947 0.09587 0.30124 0.0
H125 H 0.37622 0.12812 0.66943 0.0
H126 H 0.35353 0.17519 0.88763 0.0
H127 H 0.34833 0.18598 0.12222 0.0
O128 O 0.3581 0.98186 0.96423 0.0
O129 O 0.50378 0.05331 0.9458 0.0
O130 O 0.56893 0.06438 0.12777 0.0
O131 O 0.39006 0.95448 0.78038 0.0
O132 O 0.47473 0.98582 0.13477 0.0
O133 O 0.56958 0.02081 0.20855 0.0
O134 O 0.6483 0.05936 0.96699 0.0
O135 O 0.58067 0.94253 0.96024 0.0
O136 O 0.48139 0.93968 0.98599 0.0
O137 O 0.70583 0.04405 0.11512 0.0
O138 O 0.58591 0.008 0.84394 0.0
O139 O 0.49609 0.96677 0.78316 0.0
C140 C 0.5383 0.08064 0.04682 0.0
C141 C 0.3075 0.91591 0.8195 0.0
C142 C 0.27885 0.84997 0.86873 0.0
C143 C 0.22859 0.84197 0.77343 0.0
C144 C 0.2574 0.90697 0.72395 0.0
C145 C 0.21831 0.8701 0.70073 0.0
C146 C 0.31906 0.88688 0.89052 0.0
C147 C 0.5218 0.99949 0.22572 0.0
C148 C 0.34511 0.95647 0.84345 0.0
C149 C 0.36578 0.15021 0.9294 0.0
C150 C 0.36296 0.15637 0.06307 0.0
C151 C 0.53125 0.92192 0.97312 0.0
C152 C 0.74923 0.07565 0.97184 0.0
C153 C 0.80702 0.12665 0.89893 0.0
C154 C 0.84406 0.09487 0.85055 0.0
C155 C 0.78597 0.04384 0.92238 0.0
C156 C 0.75937 0.11665 0.9581 0.0
C157 C 0.83322 0.05353 0.86156 0.0
C158 C 0.54422 0.98348 0.75289 0.0
C159 C 0.69977 0.06788 0.03844 0.0
H160 H 0.19733 0.81371 0.75512 0.0
H161 H 0.24818 0.92886 0.66791 0.0
H162 H 0.17964 0.86352 0.62707 0.0
H163 H 0.35801 0.89334 0.96367 0.0
H164 H 0.88113 0.10209 0.80447 0.0
H165 H 0.77831 0.01185 0.93122 0.0
H166 H 0.7307 0.1412 0.99555 0.0
H167 H 0.86171 0.02906 0.82367 0.0
Tb168 Tb 0.55658 0.43795 0.96648 0.0
C169 C 0.65653 0.59951 0.37555 0.0
N170 N 0.59971 0.59676 0.32042 0.0
C171 C 0.57053 0.61884 0.53621 0.0
C172 C 0.67224 0.60914 0.51272 0.0
C173 C 0.5575 0.60977 0.39957 0.0
C174 C 0.62786 0.61717 0.59269 0.0
C175 C 0.75932 0.60688 0.35012 0.0
C176 C 0.69943 0.59807 0.29562 0.0
C177 C 0.7756 0.61179 0.48425 0.0
C178 C 0.73196 0.6129 0.56569 0.0
Tb179 Tb 0.58368 0.57191 0.09295 0.0
N180 N 0.68192 0.59391 0.16727 0.0
C181 C 0.80033 0.61369 0.27034 0.0
C182 C 0.72008 0.60893 0.09827 0.0
C183 C 0.78037 0.61671 0.14588 0.0
H184 H 0.51337 0.61142 0.35649 0.0
H185 H 0.81114 0.62422 0.08556 0.0
H186 H 0.60229 0.39718 0.67142 0.0
H187 H 0.35347 0.3999 0.13259 0.0
H188 H 0.70439 0.6109 0.00182 0.0
H189 H 0.84685 0.61939 0.30729 0.0
H190 H 0.45989 0.4248 0.16033 0.0
H191 H 0.53638 0.62707 0.59777 0.0
H192 H 0.82157 0.61748 0.52746 0.0
H193 H 0.74496 0.61919 0.6704 0.0
H194 H 0.55497 0.36236 0.44123 0.0
H195 H 0.63794 0.62444 0.69851 0.0
H196 H 0.29637 0.37329 0.90953 0.0
N197 N 0.52116 0.40239 0.74947 0.0
C198 C 0.46232 0.38961 0.72521 0.0
C199 C 0.52831 0.37038 0.51992 0.0
C200 C 0.4337 0.3686 0.59571 0.0
C201 C 0.55486 0.39055 0.65015 0.0
C202 C 0.46729 0.36013 0.49221 0.0
N203 N 0.46013 0.41465 0.95553 0.0
C204 C 0.43458 0.413 0.06293 0.0
C205 C 0.37116 0.3796 0.81068 0.0
C206 C 0.43121 0.39497 0.83136 0.0
C207 C 0.34268 0.38323 0.92089 0.0
C208 C 0.37479 0.39876 0.04739 0.0
H209 H 0.44687 0.34415 0.39134 0.0
H210 H 0.34998 0.33989 0.47526 0.0
H211 H 0.29541 0.34998 0.6631 0.0
O212 O 0.56464 0.40118 0.09879 0.0
O213 O 0.47612 0.47547 0.9862 0.0
O214 O 0.48622 0.55105 0.05329 0.0
O215 O 0.5755 0.37302 0.89712 0.0
O216 O 0.59453 0.47689 0.16548 0.0
O217 O 0.5436 0.53543 0.20988 0.0
O218 O 0.58098 0.61262 0.97216 0.0
O219 O 0.66196 0.53482 0.04402 0.0
O220 O 0.65253 0.45909 0.97376 0.0
O221 O 0.57115 0.63783 0.17302 0.0
O222 O 0.56019 0.53865 0.87947 0.0
O223 O 0.58549 0.46808 0.82464 0.0
C224 C 0.45251 0.51308 0.01397 0.0
C225 C 0.60611 0.33303 0.04277 0.0
C226 C 0.61062 0.2607 0.07103 0.0
C227 C 0.67237 0.26853 0.09114 0.0
C228 C 0.66772 0.33951 0.06372 0.0
C229 C 0.70045 0.30757 0.08842 0.0
C230 C 0.57758 0.29368 0.04851 0.0
C231 C 0.56614 0.50405 0.24547 0.0
C232 C 0.57095 0.36566 0.00767 0.0
C233 C 0.37297 0.35544 0.57419 0.0
C234 C 0.34184 0.36096 0.68138 0.0
C235 C 0.68529 0.49737 0.00697 0.0
C236 C 0.52987 0.67534 0.03285 0.0
C237 C 0.50552 0.74433 0.99945 0.0
C238 C 0.44563 0.72949 0.98579 0.0
C239 C 0.46969 0.66181 0.01693 0.0
C240 C 0.54789 0.7167 0.0228 0.0
C241 C 0.42811 0.68862 0.9933 0.0
C242 C 0.57149 0.50254 0.79328 0.0
C243 C 0.57346 0.64708 0.0651 0.0
H244 H 0.69903 0.24406 0.10757 0.0
H245 H 0.69051 0.36904 0.05933 0.0
H246 H 0.74804 0.31286 0.10362 0.0
H247 H 0.52993 0.28809 0.03108 0.0
H248 H 0.41227 0.74975 0.96889 0.0
H249 H 0.4548 0.63056 0.0242 0.0
H250 H 0.59436 0.72751 0.03461 0.0
H251 H 0.38194 0.67762 0.98199 0.0
C252 C 1.01672 0.50823 0.55004 0.0
C253 C 0.07032 0.51071 0.63428 0.0
C254 C 0.12506 0.50643 0.44774 0.0
C255 C 0.07207 0.50698 0.36673 0.0
N256 N 0.96965 0.51924 0.35229 0.0
N257 N 0.17701 0.52131 0.66751 0.0
C258 C 1.0184 0.51037 0.42059 0.0
C259 C 0.1249 0.51277 0.58456 0.0
N260 N 0.96374 0.505 0.59379 0.0
N261 N 0.17539 0.49786 0.39311 0.0
H262 H 0.18004 0.52461 0.76694 0.0
H263 H 0.21735 0.52861 0.6399 0.0
H264 H 0.1774 0.49252 0.29341 0.0
H265 H 0.21357 0.49166 0.44337 0.0
H266 H 0.92376 0.49592 0.53101 0.0
H267 H 0.9593 0.50982 0.69188 0.0
H268 H 0.93135 0.52756 0.39208 0.0
H269 H 0.96959 0.52313 0.26037 0.0
C270 C 0.49792 0.95483 0.3795 0.0
C271 C 0.52101 0.99401 0.36001 0.0
C272 C 0.57559 0.0167 0.58294 0.0
C273 C 0.54635 0.98171 0.6113 0.0
N274 N 0.49891 0.90941 0.52268 0.0
N275 N 0.56356 0.06776 0.46417 0.0
C276 C 0.51214 0.94854 0.50553 0.0
C277 C 0.55393 0.02665 0.46884 0.0
N278 N 0.46172 0.924 0.28055 0.0
N279 N 0.62686 0.03842 0.65787 0.0
H280 H 0.54144 0.07737 0.38959 0.0
H281 H 0.58829 0.09296 0.53961 0.0
H282 H 0.65206 0.02578 0.72113 0.0
H283 H 0.64959 0.06415 0.63954 0.0
H284 H 0.43821 0.89764 0.29333 0.0
H285 H 0.45117 0.92533 0.18597 0.0
H286 H 0.47817 0.88193 0.44921 0.0
H287 H 0.51574 0.90298 0.60817 0.0
C288 C 0.61796 0.48951 0.58063 0.0
C289 C 0.56939 0.50122 0.65077 0.0
C290 C 0.51542 0.50791 0.44621 0.0
C291 C 0.56712 0.50334 0.38521 0.0
N292 N 0.6725 0.50121 0.41384 0.0
N293 N 0.47274 0.5268 0.64794 0.0
C294 C 0.61967 0.49714 0.45757 0.0
C295 C 0.51868 0.51241 0.58322 0.0
N296 N 0.66287 0.47078 0.62869 0.0
N297 N 0.46216 0.50527 0.37188 0.0
H298 H 0.46988 0.5277 0.74424 0.0
H299 H 0.43879 0.54058 0.60782 0.0
H300 H 0.45745 0.49952 0.27057 0.0
H301 H 0.42215 0.50373 0.40752 0.0
H302 H 0.69476 0.4572 0.57244 0.0
H303 H 0.66659 0.46554 0.71938 0.0
H304 H 0.71272 0.50154 0.47016 0.0
H305 H 0.67702 0.51 0.33005 0.0
C306 C 0.28005 0.48284 0.89206 0.0
C307 C 0.25344 0.50622 0.00259 0.0
C308 C 0.35647 0.53562 0.11936 0.0
C309 C 0.38342 0.5119 0.00929 0.0
N310 N 0.36639 0.47131 0.77872 0.0
N311 N 0.26995 0.54907 0.23099 0.0
C312 C 0.34367 0.48742 0.89317 0.0
C313 C 0.29295 0.53136 0.11774 0.0
N314 N 0.24445 0.45531 0.78468 0.0
N315 N 0.39144 0.56382 0.22634 0.0
H316 H 0.22491 0.54802 0.23475 0.0
H317 H 0.29508 0.56184 0.3237 0.0
H318 H 0.43695 0.56556 0.23838 0.0
H319 H 0.37571 0.58736 0.29981 0.0
H320 H 0.25984 0.43254 0.70859 0.0
H321 H 0.19879 0.45355 0.77521 0.0
H322 H 0.34092 0.45852 0.68641 0.0
H323 H 0.41138 0.4736 0.7744 0.0
C324 C 0.80493 0.17819 0.76714 0.0
C325 C 0.81809 0.1709 0.89012 0.0
C326 C 0.84663 0.24862 0.99843 0.0
C327 C 0.83628 0.25564 0.8745 0.0
N328 N 0.80755 0.2254 0.63709 0.0
N329 N 0.8543 0.20033 0.12483 0.0
C330 C 0.81598 0.22027 0.75857 0.0
C331 C 0.83947 0.20615 0.0056 0.0
N332 N 0.78137 0.1449 0.65685 0.0
N333 N 0.86354 0.28263 0.11118 0.0
H334 H 0.85228 0.17031 0.14039 0.0
H335 H 0.85228 0.17031 0.14039 0.0
H336 H 0.86765 0.31475 0.11247 0.0
H337 H 0.87163 0.27862 0.20398 0.0
H338 H 0.77105 0.14917 0.56489 0.0
H339 H 0.77083 0.11345 0.65777 0.0
H340 H 0.81564 0.25477 0.61934 0.0
H341 H 0.81564 0.25477 0.61934 0.0
C342 C 0.50025 0.841 0.86751 0.0
C343 C 0.53075 0.87571 0.97524 0.0
C344 C 0.54774 0.82397 0.09988 0.0
C345 C 0.5213 0.78886 0.98811 0.0
N346 N 0.48403 0.76354 0.75619 0.0
N347 N 0.5893 0.89908 0.1902 0.0
C348 C 0.50122 0.79739 0.86915 0.0
C349 C 0.55688 0.86662 0.08943 0.0
N350 N 0.46843 0.84961 0.76484 0.0
N351 N 0.56048 0.81731 0.21895 0.0
H352 H 0.59247 0.93109 0.19161 0.0
H353 H 0.61554 0.89401 0.26862 0.0
H354 H 0.55423 0.78702 0.23144 0.0
H355 H 0.57272 0.84222 0.30751 0.0
H356 H 0.43957 0.8264 0.69133 0.0
H357 H 0.46681 0.88076 0.75917 0.0
H358 H 0.4742 0.76733 0.6637 0.0
H359 H 0.48544 0.7314 0.75298 0.0
C360 C 0.8542 0.47945 0.06144 0.0
C361 C 0.88212 0.50518 0.99368 0.0
C362 C 0.78035 0.52201 0.92316 0.0
C363 C 0.75322 0.49914 0.99973 0.0
N364 N 0.76903 0.46111 0.15781 0.0
N365 N 0.86863 0.55219 0.86247 0.0
C366 C 0.79167 0.47911 0.07237 0.0
C367 C 0.84393 0.52673 0.92576 0.0
N368 N 0.88715 0.45368 0.1126 0.0
N369 N 0.74499 0.5383 0.84295 0.0
H370 H 0.91291 0.5531 0.85234 0.0
H371 H 0.8465 0.57381 0.8262 0.0
H372 H 0.69969 0.53782 0.84232 0.0
H373 H 0.75939 0.54991 0.77077 0.0
H374 H 0.86944 0.43007 0.14823 0.0
H375 H 0.93192 0.45305 0.10789 0.0
H376 H 0.79482 0.4511 0.22689 0.0
H377 H 0.72451 0.45938 0.16763 0.0
C378 C 0.27533 0.79764 0.1394 0.0
C379 C 0.2775 0.75369 0.0657 0.0
C380 C 0.29518 0.77536 0.8738 0.0
C381 C 0.28767 0.81876 0.94332 0.0
N382 N 0.27107 0.87152 0.14572 0.0
N383 N 0.28695 0.7003 0.85903 0.0
C384 C 0.27863 0.83001 0.07726 0.0
C385 C 0.28664 0.74254 0.93216 0.0
N386 N 0.26805 0.80968 0.26887 0.0
N387 N 0.31057 0.76422 0.75046 0.0
H388 H 0.27969 0.67468 0.89607 0.0
H389 H 0.29347 0.69103 0.76039 0.0
H390 H 0.32019 0.78638 0.70152 0.0
H391 H 0.32019 0.78638 0.70152 0.0
H392 H 0.26441 0.7883 0.32315 0.0
H393 H 0.26441 0.7883 0.32315 0.0
H394 H 0.26395 0.88073 0.24396 0.0
H395 H 0.2712 0.89655 0.10467 0.0
C396 C 0.56189 0.18481 0.94379 0.0
C397 C 0.5826 0.21671 0.06673 0.0
C398 C 0.56119 0.16179 0.176 0.0
C399 C 0.55153 0.12801 0.0528 0.0
N400 N 0.55037 0.10941 0.81658 0.0
N401 N 0.60425 0.23483 0.30261 0.0
C402 C 0.55294 0.1402 0.93593 0.0
C403 C 0.58306 0.20485 0.18354 0.0
N404 N 0.55183 0.19683 0.83283 0.0
N405 N 0.54538 0.1536 0.28496 0.0
H406 H 0.6167 0.26714 0.31306 0.0
H407 H 0.61241 0.22701 0.38942 0.0
H408 H 0.52356 0.12406 0.27975 0.0
H409 H 0.54652 0.17744 0.37539 0.0
H410 H 0.52858 0.17648 0.74411 0.0
H411 H 0.56165 0.22829 0.83186 0.0
H412 H 0.5556 0.11656 0.7309 0.0
H413 H 0.55001 0.07679 0.80382 0.0
loop_
_geom_bond_atom_site_label_1
_geom_bond_atom_site_label_2
_geom_bond_distance
_geom_bond_site_symmetry_2
_ccdc_geom_bond_type
Tb0 N29 2.617 1_455 S
Tb0 N35 2.572 1_455 S
Tb0 O44 2.465 1_554 S
Tb0 O45 2.387 1_455 S
Tb0 O47 2.428 . S
Tb0 O48 2.308 1_454 S
Tb0 O52 2.349 . S
Tb0 O55 2.393 . S
Tb0 C64 2.802 . S
C1 N2 1.379 . S
C1 C4 1.416 . S
C1 C8 1.424 . S
N2 C1 1.379 . S
N2 C5 1.334 . S
N2 Tb11 2.617 1_455 S
C3 C5 1.390 . S
C3 C6 1.339 . S
C3 H23 0.930 . S
C4 C1 1.416 . S
C4 C6 1.416 . S
C4 C10 1.448 . S
C5 N2 1.334 . S
C5 C3 1.390 . S
C5 H16 0.930 1_455 S
C6 C3 1.339 . S
C6 C4 1.416 . S
C6 H27 0.930 . S
C7 C8 1.413 . S
C7 C9 1.427 . S
C7 C13 1.416 1_556 S
C8 C1 1.424 . S
C8 C7 1.413 . S
C8 N12 1.361 . S
C9 C7 1.427 . S
C9 C10 1.328 . S
C9 H24 0.929 . S
C10 C4 1.448 . S
C10 C9 1.328 . S
C10 H25 0.930 . S
Tb11 N2 2.617 1_655 S
Tb11 N12 2.572 1_655 S
Tb11 O46 2.349 . S
Tb11 O49 2.393 . S
Tb11 O50 2.465 1_556 S
Tb11 O51 2.387 1_655 S
Tb11 O53 2.428 . S
Tb11 O54 2.308 1_656 S
Tb11 C75 2.802 . S
N12 C8 1.361 . S
N12 Tb11 2.572 1_455 S
N12 C14 1.340 1_556 S
C13 C7 1.416 1_554 S
C13 C15 1.332 . S
C13 H21 0.931 . S
C14 N12 1.340 1_554 S
C14 C15 1.407 . S
C14 H20 0.930 . S
C15 C13 1.332 . S
C15 C14 1.407 . S
C15 H17 0.929 . S
H16 C5 0.930 1_655 S
H17 C15 0.929 . S
H18 C33 0.930 1_455 S
H19 C40 0.929 . S
H20 C14 0.930 . S
H21 C13 0.931 . S
H22 C36 0.930 . S
H23 C3 0.930 . S
H24 C9 0.929 . S
H25 C10 0.930 . S
H26 C31 0.930 . S
H27 C6 0.930 . S
H28 C39 0.931 . S
N29 Tb0 2.617 1_655 S
N29 C30 1.379 . S
N29 C33 1.334 . S
C30 N29 1.379 . S
C30 C32 1.416 . S
C30 C38 1.424 . S
C31 H26 0.930 . S
C31 C33 1.390 . S
C31 C34 1.339 . S
C32 C30 1.416 . S
C32 C34 1.416 . S
C32 C65 1.448 . S
C33 H18 0.930 1_655 S
C33 N29 1.334 . S
C33 C31 1.390 . S
C34 C31 1.339 . S
C34 C32 1.416 . S
C34 H41 0.930 . S
N35 Tb0 2.572 1_655 S
N35 C36 1.340 1_554 S
N35 C38 1.361 . S
C36 H22 0.930 . S
C36 N35 1.340 1_556 S
C36 C40 1.407 . S
C37 C38 1.413 . S
C37 C39 1.416 1_554 S
C37 C66 1.427 . S
C38 C30 1.424 . S
C38 N35 1.361 . S
C38 C37 1.413 . S
C39 H28 0.931 . S
C39 C37 1.416 1_556 S
C39 C40 1.332 . S
C40 H19 0.929 . S
C40 C36 1.407 . S
C40 C39 1.332 . S
H41 C34 0.930 . S
H42 C65 0.930 . S
H43 C66 0.929 . S
O44 Tb0 2.465 1_556 S
O44 C64 1.264 1_556 S
O45 Tb0 2.387 1_655 S
O45 C56 1.264 1_554 S
O46 Tb11 2.349 . S
O46 C56 1.243 . S
O47 Tb0 2.428 . S
O47 C64 1.256 . S
O48 Tb0 2.308 1_656 S
O48 C63 1.266 . S
O49 Tb11 2.393 . S
O49 C63 1.248 . S
O50 Tb11 2.465 1_554 S
O50 C75 1.264 1_554 S
O51 Tb11 2.387 1_455 S
O51 C67 1.264 1_556 S
O52 Tb0 2.349 . S
O52 C67 1.243 . S
O53 Tb11 2.428 . S
O53 C75 1.256 . S
O54 Tb11 2.308 1_454 S
O54 C74 1.266 . S
O55 Tb0 2.393 . S
O55 C74 1.248 . S
C56 O45 1.264 1_556 S
C56 O46 1.243 . S
C57 C60 1.399 . S
C57 C62 1.383 . S
C57 C64 1.496 . S
C58 C59 1.399 . S
C58 C62 1.389 . S
C59 C58 1.399 . S
C59 C61 1.380 . S
C59 H76 0.929 . S
C60 C57 1.399 . S
C60 C61 1.392 . S
C60 H77 0.929 . S
C61 C59 1.380 . S
C61 C60 1.392 . S
C61 H78 0.929 . S
C62 C57 1.383 . S
C62 C58 1.389 . S
C62 H79 0.931 1_554 S
C63 O48 1.266 . S
C63 O49 1.248 . S
C64 Tb0 2.802 . S
C64 O44 1.264 1_554 S
C64 O47 1.256 . S
C64 C57 1.496 . S
C65 C32 1.448 . S
C65 H42 0.930 . S
C65 C66 1.328 . S
C66 C37 1.427 . S
C66 H43 0.929 . S
C66 C65 1.328 . S
C67 O51 1.264 1_554 S
C67 O52 1.243 . S
C68 C71 1.399 . S
C68 C72 1.383 . S
C68 C75 1.496 . S
C69 C70 1.399 . S
C69 C72 1.389 . S
C70 C69 1.399 . S
C70 C73 1.380 . S
C70 H80 0.929 . S
C71 C68 1.399 . S
C71 C73 1.392 . S
C71 H81 0.929 . S
C72 C68 1.383 . S
C72 C69 1.389 . S
C72 H82 0.931 1_556 S
C73 C70 1.380 . S
C73 C71 1.392 . S
C73 H83 0.929 . S
C74 O54 1.266 . S
C74 O55 1.248 . S
C75 Tb11 2.802 . S
C75 O50 1.264 1_556 S
C75 O53 1.256 . S
C75 C68 1.496 . S
H76 C59 0.929 . S
H77 C60 0.929 . S
H78 C61 0.929 . S
H79 C62 0.931 1_556 S
H80 C70 0.929 . S
H81 C71 0.929 . S
H82 C72 0.931 1_554 S
H83 C73 0.929 . S
Tb84 N113 2.617 . S
Tb84 N119 2.572 1_566 S
Tb84 O128 2.465 1_556 S
Tb84 O129 2.387 1_565 S
Tb84 O131 2.428 . S
Tb84 O132 2.308 1_566 S
Tb84 O136 2.349 . S
Tb84 O139 2.393 . S
Tb84 C148 2.802 . S
C85 N86 1.379 1_565 S
C85 C88 1.416 . S
C85 C92 1.424 . S
N86 C85 1.379 1_545 S
N86 C89 1.334 . S
N86 Tb95 2.617 . S
C87 C89 1.390 . S
C87 C90 1.339 1_545 S
C87 H107 0.930 . S
C88 C85 1.416 . S
C88 C90 1.416 . S
C88 C94 1.448 . S
C89 N86 1.334 . S
C89 C87 1.390 . S
C89 H100 0.930 . S
C90 C87 1.339 1_565 S
C90 C88 1.416 . S
C90 H111 0.930 . S
C91 C92 1.413 1_556 S
C91 C93 1.427 1_556 S
C91 C97 1.416 . S
C92 C85 1.424 . S
C92 C91 1.413 1_554 S
C92 N96 1.361 1_554 S
C93 C91 1.427 1_554 S
C93 C94 1.328 . S
C93 H108 0.929 . S
C94 C88 1.448 . S
C94 C93 1.328 . S
C94 H109 0.930 . S
Tb95 N86 2.617 . S
Tb95 N96 2.572 1_544 S
Tb95 O130 2.349 . S
Tb95 O133 2.393 . S
Tb95 O134 2.465 1_554 S
Tb95 O135 2.387 1_545 S
Tb95 O137 2.428 . S
Tb95 O138 2.308 1_544 S
Tb95 C159 2.802 . S
N96 C92 1.361 1_556 S
N96 Tb95 2.572 1_566 S
N96 C98 1.340 . S
C97 C91 1.416 . S
C97 C99 1.332 . S
C97 H105 0.931 . S
C98 N96 1.340 . S
C98 C99 1.407 . S
C98 H104 0.930 . S
C99 C97 1.332 . S
C99 C98 1.407 . S
C99 H101 0.929 . S
H100 C89 0.930 . S
H101 C99 0.929 . S
H102 C117 0.930 . S
H103 C124 0.929 . S
H104 C98 0.930 . S
H105 C97 0.931 . S
H106 C120 0.930 . S
H107 C87 0.930 . S
H108 C93 0.929 . S
H109 C94 0.930 . S
H110 C115 0.930 1_565 S
H111 C90 0.930 . S
H112 C123 0.931 . S
N113 Tb84 2.617 . S
N113 C114 1.379 1_565 S
N113 C117 1.334 . S
C114 N113 1.379 1_545 S
C114 C116 1.416 . S
C114 C122 1.424 . S
C115 H110 0.930 1_545 S
C115 C117 1.376 1_545 S
C115 C118 1.354 . S
C116 C114 1.416 . S
C116 C118 1.416 . S
C116 C149 1.448 . S
C117 H102 0.930 . S
C117 N113 1.334 . S
C117 C115 1.376 1_565 S
C118 C115 1.354 . S
C118 C116 1.416 . S
C118 H125 0.930 . S
N119 Tb84 2.572 1_544 S
N119 C120 1.340 . S
N119 C122 1.361 1_554 S
C120 H106 0.930 . S
C120 N119 1.340 . S
C120 C124 1.407 . S
C121 C122 1.413 1_554 S
C121 C123 1.416 . S
C121 C150 1.427 1_554 S
C122 C114 1.424 . S
C122 N119 1.361 1_556 S
C122 C121 1.413 1_556 S
C123 H112 0.931 . S
C123 C121 1.416 . S
C123 C124 1.332 . S
C124 H103 0.929 . S
C124 C120 1.407 . S
C124 C123 1.332 . S
H125 C118 0.930 . S
H126 C149 0.930 . S
H127 C150 0.929 . S
O128 Tb84 2.465 1_554 S
O128 C148 1.264 1_554 S
O129 Tb84 2.387 1_545 S
O129 C140 1.264 1_556 S
O130 Tb95 2.349 . S
O130 C140 1.243 . S
O131 Tb84 2.428 . S
O131 C148 1.256 . S
O132 Tb84 2.308 1_544 S
O132 C147 1.266 . S
O133 Tb95 2.393 . S
O133 C147 1.248 . S
O134 Tb95 2.465 1_556 S
O134 C159 1.264 1_556 S
O135 Tb95 2.387 1_565 S
O135 C151 1.264 1_554 S
O136 Tb84 2.349 . S
O136 C151 1.243 . S
O137 Tb95 2.428 . S
O137 C159 1.256 . S
O138 Tb95 2.308 1_566 S
O138 C158 1.266 . S
O139 Tb84 2.393 . S
O139 C158 1.248 . S
C140 O129 1.264 1_554 S
C140 O130 1.243 . S
C141 C144 1.399 . S
C141 C146 1.383 1_556 S
C141 C148 1.496 . S
C142 C143 1.399 1_554 S
C142 C146 1.389 . S
C143 C142 1.399 1_556 S
C143 C145 1.380 . S
C143 H160 0.929 . S
C144 C141 1.399 . S
C144 C145 1.392 . S
C144 H161 0.929 . S
C145 C143 1.380 . S
C145 C144 1.392 . S
C145 H162 0.929 . S
C146 C141 1.383 1_554 S
C146 C142 1.389 . S
C146 H163 0.931 . S
C147 O132 1.266 . S
C147 O133 1.248 . S
C148 Tb84 2.802 . S
C148 O128 1.264 1_556 S
C148 O131 1.256 . S
C148 C141 1.496 . S
C149 C116 1.448 . S
C149 H126 0.930 . S
C149 C150 1.328 . S
C150 C121 1.427 1_556 S
C150 H127 0.929 . S
C150 C149 1.328 . S
C151 O135 1.264 1_556 S
C151 O136 1.243 . S
C152 C155 1.399 . S
C152 C156 1.383 1_554 S
C152 C159 1.496 . S
C153 C154 1.399 1_556 S
C153 C156 1.389 . S
C154 C153 1.399 1_554 S
C154 C157 1.380 . S
C154 H164 0.929 . S
C155 C152 1.399 . S
C155 C157 1.392 . S
C155 H165 0.929 . S
C156 C152 1.383 1_556 S
C156 C153 1.389 . S
C156 H166 0.931 . S
C157 C154 1.380 . S
C157 C155 1.392 . S
C157 H167 0.929 . S
C158 O138 1.266 . S
C158 O139 1.248 . S
C159 Tb95 2.802 . S
C159 O134 1.264 1_554 S
C159 O137 1.256 . S
C159 C152 1.496 . S
H160 C143 0.929 . S
H161 C144 0.929 . S
H162 C145 0.929 . S
H163 C146 0.931 . S
H164 C154 0.929 . S
H165 C155 0.929 . S
H166 C156 0.931 . S
H167 C157 0.929 . S
Tb168 N197 2.617 . S
Tb168 N203 2.572 . S
Tb168 O212 2.465 1_556 S
Tb168 O213 2.387 . S
Tb168 O215 2.428 . S
Tb168 O216 2.308 1_556 S
Tb168 O220 2.349 . S
Tb168 O223 2.393 . S
Tb168 C232 2.802 . S
C169 N170 1.379 . S
C169 C172 1.416 . S
C169 C176 1.424 . S
N170 C169 1.379 . S
N170 C173 1.334 . S
N170 Tb179 2.617 . S
C171 C173 1.390 . S
C171 C174 1.339 . S
C171 H191 0.930 . S
C172 C169 1.416 . S
C172 C174 1.416 . S
C172 C178 1.448 . S
C173 N170 1.334 . S
C173 C171 1.390 . S
C173 H184 0.930 . S
C174 C171 1.339 . S
C174 C172 1.416 . S
C174 H195 0.930 . S
C175 C176 1.413 . S
C175 C177 1.427 . S
C175 C181 1.413 1_554 S
C176 C169 1.424 . S
C176 C175 1.413 . S
C176 N180 1.361 . S
C177 C175 1.427 . S
C177 C178 1.328 . S
C177 H192 0.929 . S
C178 C172 1.448 . S
C178 C177 1.328 . S
C178 H193 0.930 . S
Tb179 N170 2.617 . S
Tb179 N180 2.572 . S
Tb179 O214 2.349 . S
Tb179 O217 2.393 . S
Tb179 O218 2.465 1_554 S
Tb179 O219 2.387 . S
Tb179 O221 2.428 . S
Tb179 O222 2.308 1_554 S
Tb179 C243 2.802 . S
N180 C176 1.361 . S
N180 Tb179 2.572 . S
N180 C182 1.340 1_554 S
C181 C175 1.413 1_556 S
C181 C183 1.334 . S
C181 H189 0.932 . S
C182 N180 1.340 1_556 S
C182 C183 1.407 . S
C182 H188 0.930 . S
C183 C181 1.334 . S
C183 C182 1.407 . S
C183 H185 0.929 . S
H184 C173 0.930 . S
H185 C183 0.929 . S
H186 C201 0.930 . S
H187 C208 0.929 . S
H188 C182 0.930 . S
H189 C181 0.932 . S
H190 C204 0.930 . S
H191 C171 0.930 . S
H192 C177 0.929 . S
H193 C178 0.930 . S
H194 C199 0.930 . S
H195 C174 0.930 . S
H196 C207 0.931 . S
N197 Tb168 2.617 . S
N197 C198 1.379 . S
N197 C201 1.334 . S
C198 N197 1.379 . S
C198 C200 1.416 . S
C198 C206 1.424 . S
C199 H194 0.930 . S
C199 C201 1.390 . S
C199 C202 1.339 . S
C200 C198 1.416 . S
C200 C202 1.416 . S
C200 C233 1.448 . S
C201 H186 0.930 . S
C201 N197 1.334 . S
C201 C199 1.390 . S
C202 C199 1.339 . S
C202 C200 1.416 . S
C202 H209 0.930 . S
N203 Tb168 2.572 . S
N203 C204 1.340 1_556 S
N203 C206 1.361 . S
C204 H190 0.930 . S
C204 N203 1.340 1_554 S
C204 C208 1.407 . S
C205 C206 1.413 . S
C205 C207 1.416 1_556 S
C205 C234 1.427 . S
C206 C198 1.424 . S
C206 N203 1.361 . S
C206 C205 1.413 . S
C207 H196 0.931 . S
C207 C205 1.416 1_554 S
C207 C208 1.332 . S
C208 H187 0.929 . S
C208 C204 1.407 . S
C208 C207 1.332 . S
H209 C202 0.930 . S
H210 C233 0.930 . S
H211 C234 0.929 . S
O212 Tb168 2.465 1_554 S
O212 C232 1.264 1_554 S
O213 Tb168 2.387 . S
O213 C224 1.264 . S
O214 Tb179 2.349 . S
O214 C224 1.243 1_554 S
O215 Tb168 2.428 . S
O215 C232 1.256 . S
O216 Tb168 2.308 1_554 S
O216 C231 1.266 . S
O217 Tb179 2.393 . S
O217 C231 1.248 . S
O218 Tb179 2.465 1_556 S
O218 C243 1.264 1_556 S
O219 Tb179 2.387 . S
O219 C235 1.264 . S
O220 Tb168 2.349 . S
O220 C235 1.243 1_556 S
O221 Tb179 2.428 . S
O221 C243 1.256 . S
O222 Tb179 2.308 1_556 S
O222 C242 1.266 . S
O223 Tb168 2.393 . S
O223 C242 1.248 . S
C224 O213 1.264 . S
C224 O214 1.243 1_556 S
C225 C228 1.399 . S
C225 C230 1.383 1_556 S
C225 C232 1.496 . S
C226 C227 1.399 . S
C226 C230 1.389 1_556 S
C227 C226 1.399 . S
C227 C229 1.380 . S
C227 H244 0.929 . S
C228 C225 1.399 . S
C228 C229 1.392 . S
C228 H245 0.929 . S
C229 C227 1.380 . S
C229 C228 1.392 . S
C229 H246 0.929 . S
C230 C225 1.383 1_554 S
C230 C226 1.389 1_554 S
C230 H247 0.931 . S
C231 O216 1.266 . S
C231 O217 1.248 . S
C232 Tb168 2.802 . S
C232 O212 1.264 1_556 S
C232 O215 1.256 . S
C232 C225 1.496 . S
C233 C200 1.448 . S
C233 H210 0.930 . S
C233 C234 1.328 . S
C234 C205 1.427 . S
C234 H211 0.929 . S
C234 C233 1.328 . S
C235 O219 1.264 . S
C235 O220 1.243 1_554 S
C236 C239 1.399 . S
C236 C240 1.375 1_554 S
C236 C243 1.496 . S
C237 C238 1.399 . S
C237 C240 1.391 1_554 S
C238 C237 1.399 . S
C238 C241 1.380 . S
C238 H248 0.929 . S
C239 C236 1.399 . S
C239 C241 1.392 . S
C239 H249 0.929 . S
C240 C236 1.375 1_556 S
C240 C237 1.391 1_556 S
C240 H250 0.937 . S
C241 C238 1.380 . S
C241 C239 1.392 . S
C241 H251 0.929 . S
C242 O222 1.266 . S
C242 O223 1.248 . S
C243 Tb179 2.802 . S
C243 O218 1.264 1_554 S
C243 O221 1.256 . S
C243 C236 1.496 . S
H244 C227 0.929 . S
H245 C228 0.929 . S
H246 C229 0.929 . S
H247 C230 0.931 . S
H248 C238 0.929 . S
H249 C239 0.929 . S
H250 C240 0.937 . S
H251 C241 0.929 . S
C252 C253 1.363 . S
C252 C258 1.379 . S
C252 N260 1.356 . S
C253 C252 1.363 . S
C253 C259 1.363 1_655 S
C254 C255 1.363 . S
C254 C259 1.379 . S
C254 N261 1.356 . S
C255 C254 1.363 . S
C255 C258 1.363 1_455 S
N256 C258 1.356 . S
N256 H268 0.984 . S
N256 H269 0.985 . S
N257 C259 1.356 . S
N257 H262 0.984 . S
N257 H263 0.985 . S
C258 C252 1.379 . S
C258 C255 1.363 1_655 S
C258 N256 1.356 . S
C259 C253 1.363 1_455 S
C259 C254 1.379 . S
C259 N257 1.356 . S
N260 C252 1.356 . S
N260 H266 0.984 . S
N260 H267 0.984 . S
N261 C254 1.356 . S
N261 H264 0.984 . S
N261 H265 0.985 . S
H262 N257 0.984 . S
H263 N257 0.985 . S
H264 N261 0.984 . S
H265 N261 0.985 . S
H266 N260 0.984 . S
H267 N260 0.984 . S
H268 N256 0.984 . S
H269 N256 0.985 . S
C270 C271 1.363 1_565 S
C270 C276 1.379 . S
C270 N278 1.356 . S
C271 C270 1.363 1_545 S
C271 C277 1.363 . S
C272 C273 1.363 1_545 S
C272 C277 1.379 . S
C272 N279 1.356 . S
C273 C272 1.363 1_565 S
C273 C276 1.363 . S
N274 C276 1.356 . S
N274 H286 0.984 . S
N274 H287 0.985 . S
N275 C277 1.356 . S
N275 H280 0.984 . S
N275 H281 0.985 . S
C276 C270 1.379 . S
C276 C273 1.363 . S
C276 N274 1.356 . S
C277 C271 1.363 . S
C277 C272 1.379 . S
C277 N275 1.356 . S
N278 C270 1.356 . S
N278 H284 0.984 . S
N278 H285 0.984 . S
N279 C272 1.356 . S
N279 H282 0.984 . S
N279 H283 0.985 . S
H280 N275 0.984 . S
H281 N275 0.985 . S
H282 N279 0.984 . S
H283 N279 0.985 . S
H284 N278 0.984 . S
H285 N278 0.984 . S
H286 N274 0.984 . S
H287 N274 0.985 . S
C288 C289 1.363 . S
C288 C294 1.379 . S
C288 N296 1.356 . S
C289 C288 1.363 . S
C289 C295 1.363 . S
C290 C291 1.363 . S
C290 C295 1.379 . S
C290 N297 1.356 . S
C291 C290 1.363 . S
C291 C294 1.363 . S
N292 C294 1.356 . S
N292 H304 0.984 . S
N292 H305 0.985 . S
N293 C295 1.356 . S
N293 H298 0.984 . S
N293 H299 0.985 . S
C294 C288 1.379 . S
C294 C291 1.363 . S
C294 N292 1.356 . S
C295 C289 1.363 . S
C295 C290 1.379 . S
C295 N293 1.356 . S
N296 C288 1.356 . S
N296 H302 0.984 . S
N296 H303 0.984 . S
N297 C290 1.356 . S
N297 H300 0.984 . S
N297 H301 0.985 . S
H298 N293 0.984 . S
H299 N293 0.985 . S
H300 N297 0.984 . S
H301 N297 0.985 . S
H302 N296 0.984 . S
H303 N296 0.984 . S
H304 N292 0.984 . S
H305 N292 0.985 . S
C306 C307 1.363 1_556 S
C306 C312 1.379 . S
C306 N314 1.356 . S
C307 C306 1.363 1_554 S
C307 C313 1.363 . S
C308 C309 1.363 1_554 S
C308 C313 1.379 . S
C308 N315 1.356 . S
C309 C308 1.363 1_556 S
C309 C312 1.363 . S
N310 C312 1.356 . S
N310 H322 0.984 . S
N310 H323 0.985 . S
N311 C313 1.356 . S
N311 H316 0.984 . S
N311 H317 0.985 . S
C312 C306 1.379 . S
C312 C309 1.363 . S
C312 N310 1.356 . S
C313 C307 1.363 . S
C313 C308 1.379 . S
C313 N311 1.356 . S
N314 C306 1.356 . S
N314 H320 0.984 . S
N314 H321 0.984 . S
N315 C308 1.356 . S
N315 H318 0.984 . S
N315 H319 0.985 . S
H316 N311 0.984 . S
H317 N311 0.985 . S
H318 N315 0.984 . S
H319 N315 0.985 . S
H320 N314 0.984 . S
H321 N314 0.984 . S
H322 N310 0.984 . S
H323 N310 0.985 . S
C324 C325 1.363 . S
C324 C330 1.379 . S
C324 N332 1.356 . S
C325 C324 1.363 . S
C325 C331 1.363 1_556 S
C326 C327 1.363 . S
C326 C331 1.379 . S
C326 N333 1.356 . S
C327 C326 1.363 . S
C327 C330 1.363 1_554 S
N328 C330 1.356 . S
N328 H340 0.984 . S
N328 H341 0.985 . S
N329 C331 1.356 . S
N329 H334 0.984 . S
N329 H335 0.985 . S
C330 C324 1.379 . S
C330 C327 1.363 1_556 S
C330 N328 1.356 . S
C331 C325 1.363 1_554 S
C331 C326 1.379 . S
C331 N329 1.356 . S
N332 C324 1.356 . S
N332 H338 0.984 . S
N332 H339 0.984 . S
N333 C326 1.356 . S
N333 H336 0.984 . S
N333 H337 0.985 . S
H334 N329 0.984 . S
H335 N329 0.985 . S
H336 N333 0.984 . S
H337 N333 0.985 . S
H338 N332 0.984 . S
H339 N332 0.984 . S
H340 N328 0.984 . S
H341 N328 0.985 . S
C342 C343 1.363 . S
C342 C348 1.379 . S
C342 N350 1.356 . S
C343 C342 1.363 . S
C343 C349 1.363 1_556 S
C344 C345 1.363 1_554 S
C344 C349 1.379 . S
C344 N351 1.356 . S
C345 C344 1.363 1_556 S
C345 C348 1.363 . S
N346 C348 1.356 . S
N346 H358 0.984 . S
N346 H359 0.985 . S
N347 C349 1.356 . S
N347 H352 0.984 . S
N347 H353 0.985 . S
C348 C342 1.379 . S
C348 C345 1.363 . S
C348 N346 1.356 . S
C349 C343 1.363 1_554 S
C349 C344 1.379 . S
C349 N347 1.356 . S
N350 C342 1.356 . S
N350 H356 0.984 . S
N350 H357 0.984 . S
N351 C344 1.356 . S
N351 H354 0.984 . S
N351 H355 0.985 . S
H352 N347 0.984 . S
H353 N347 0.985 . S
H354 N351 0.984 . S
H355 N351 0.985 . S
H356 N350 0.984 . S
H357 N350 0.984 . S
H358 N346 0.984 . S
H359 N346 0.985 . S
C360 C361 1.363 1_554 S
C360 C366 1.379 . S
C360 N368 1.356 . S
C361 C360 1.363 1_556 S
C361 C367 1.363 . S
C362 C363 1.363 1_556 S
C362 C367 1.379 . S
C362 N369 1.356 . S
C363 C362 1.363 1_554 S
C363 C366 1.363 . S
N364 C366 1.356 . S
N364 H376 0.984 . S
N364 H377 0.985 . S
N365 C367 1.356 . S
N365 H370 0.984 . S
N365 H371 0.985 . S
C366 C360 1.379 . S
C366 C363 1.363 . S
C366 N364 1.356 . S
C367 C361 1.363 . S
C367 C362 1.379 . S
C367 N365 1.356 . S
N368 C360 1.356 . S
N368 H374 0.984 . S
N368 H375 0.984 . S
N369 C362 1.356 . S
N369 H372 0.984 . S
N369 H373 0.985 . S
H370 N365 0.984 . S
H371 N365 0.985 . S
H372 N369 0.984 . S
H373 N369 0.985 . S
H374 N368 0.984 . S
H375 N368 0.984 . S
H376 N364 0.984 . S
H377 N364 0.985 . S
C378 C379 1.363 1_554 S
C378 C384 1.379 . S
C378 N386 1.356 . S
C379 C378 1.363 1_556 S
C379 C385 1.363 . S
C380 C381 1.363 1_556 S
C380 C385 1.379 . S
C380 N387 1.356 . S
C381 C380 1.363 1_554 S
C381 C384 1.363 . S
N382 C384 1.356 . S
N382 H394 0.984 . S
N382 H395 0.985 . S
N383 C385 1.356 . S
N383 H388 0.984 . S
N383 H389 0.985 . S
C384 C378 1.379 . S
C384 C381 1.363 . S
C384 N382 1.356 . S
C385 C379 1.363 . S
C385 C380 1.379 . S
C385 N383 1.356 . S
N386 C378 1.356 . S
N386 H392 0.984 . S
N386 H393 0.984 . S
N387 C380 1.356 . S
N387 H390 0.984 . S
N387 H391 0.985 . S
H388 N383 0.984 . S
H389 N383 0.985 . S
H390 N387 0.984 . S
H391 N387 0.985 . S
H392 N386 0.984 . S
H393 N386 0.984 . S
H394 N382 0.984 . S
H395 N382 0.985 . S
C396 C397 1.363 1_556 S
C396 C402 1.379 . S
C396 N404 1.356 . S
C397 C396 1.363 1_554 S
C397 C403 1.363 . S
C398 C399 1.363 . S
C398 C403 1.379 . S
C398 N405 1.356 . S
C399 C398 1.363 . S
C399 C402 1.363 1_554 S
N400 C402 1.356 . S
N400 H412 0.984 . S
N400 H413 0.985 . S
N401 C403 1.356 . S
N401 H406 0.984 . S
N401 H407 0.985 . S
C402 C396 1.379 . S
C402 C399 1.363 1_556 S
C402 N400 1.356 . S
C403 C397 1.363 . S
C403 C398 1.379 . S
C403 N401 1.356 . S
N404 C396 1.356 . S
N404 H410 0.984 . S
N404 H411 0.984 . S
N405 C398 1.356 . S
N405 H408 0.984 . S
N405 H409 0.985 . S
H406 N401 0.984 . S
H407 N401 0.985 . S
H408 N405 0.984 . S
H409 N405 0.985 . S
H410 N404 0.984 . S
H411 N404 0.984 . S
H412 N400 0.984 . S
H413 N400 0.985 . S
C253 C63 1.489 . S
C255 C74 1.489 . S
C271 C147 1.534 . S
C273 C158 1.534 . S
C289 C242 1.473 . S
C291 C231 1.473 . S
C307 C67 2.372 . S
C309 C224 2.391 . S
C325 C153 0.839 . S
C327 C69 0.842 1_554 S
C343 C151 1.790 . S
C345 C237 1.685 1_556 S
C361 C56 2.372 . S
C363 C235 2.391 . S
C379 C58 0.842 1_556 S
C381 C142 0.839 . S
C397 C226 1.685 1_554 S
C399 C140 1.790 . S
