# Generated by pormake.
# Topology und, (4)-cn, num edge types: 1
# Building blocks:
#     Node 0, Type 0, BuildingBlock: UXUYUI_clean_sbu_0, # of connection points: 4
#     Node 1, Type 0, BuildingBlock: UXUYUI_clean_sbu_0, # of connection points: 4
#     Node 2, Type 0, BuildingBlock: UXUYUI_clean_sbu_0, # of connection points: 4
#     Node 3, Type 0, BuildingBlock: UXUYUI_clean_sbu_0, # of connection points: 4
#     Node 4, Type 0, BuildingBlock: UXUYUI_clean_sbu_0, # of connection points: 4
#     Node 5, Type 0, BuildingBlock: UXUYUI_clean_sbu_0, # of connection points: 4
#     Node 6, Type 0, BuildingBlock: UXUYUI_clean_sbu_0, # of connection points: 4
#     Node 7, Type 0, BuildingBlock: UXUYUI_clean_sbu_0, # of connection points: 4
#     Node 8, Type 0, BuildingBlock: UXUYUI_clean_sbu_0, # of connection points: 4
#     Node 9, Type 0, BuildingBlock: UXUYUI_clean_sbu_0, # of connection points: 4
#     Node 10, Type 0, BuildingBlock: UXUYUI_clean_sbu_0, # of connection points: 4
#     Node 11, Type 0, BuildingBlock: UXUYUI_clean_sbu_0, # of connection points: 4
#     Node 12, Type 0, BuildingBlock: UXUYUI_clean_sbu_0, # of connection points: 4
#     Node 13, Type 0, BuildingBlock: UXUYUI_clean_sbu_0, # of connection points: 4
#     Node 14, Type 0, BuildingBlock: UXUYUI_clean_sbu_0, # of connection points: 4
#     Node 15, Type 0, BuildingBlock: UXUYUI_clean_sbu_0, # of connection points: 4
#     Edge 16, Type (0, 0), BuildingBlock: CIFDUS_clean_linker_0, # of connection points: 2
#     Edge 17, Type (0, 0), BuildingBlock: CIFDUS_clean_linker_0, # of connection points: 2
#     Edge 18, Type (0, 0), BuildingBlock: CIFDUS_clean_linker_0, # of connection points: 2
#     Edge 19, Type (0, 0), BuildingBlock: CIFDUS_clean_linker_0, # of connection points: 2
#     Edge 20, Type (0, 0), BuildingBlock: CIFDUS_clean_linker_0, # of connection points: 2
#     Edge 21, Type (0, 0), BuildingBlock: CIFDUS_clean_linker_0, # of connection points: 2
#     Edge 22, Type (0, 0), BuildingBlock: CIFDUS_clean_linker_0, # of connection points: 2
#     Edge 23, Type (0, 0), BuildingBlock: CIFDUS_clean_linker_0, # of connection points: 2
#     Edge 24, Type (0, 0), BuildingBlock: CIFDUS_clean_linker_0, # of connection points: 2
#     Edge 25, Type (0, 0), BuildingBlock: CIFDUS_clean_linker_0, # of connection points: 2
#     Edge 26, Type (0, 0), BuildingBlock: CIFDUS_clean_linker_0, # of connection points: 2
#     Edge 27, Type (0, 0), BuildingBlock: CIFDUS_clean_linker_0, # of connection points: 2
#     Edge 28, Type (0, 0), BuildingBlock: CIFDUS_clean_linker_0, # of connection points: 2
#     Edge 29, Type (0, 0), BuildingBlock: CIFDUS_clean_linker_0, # of connection points: 2
#     Edge 30, Type (0, 0), BuildingBlock: CIFDUS_clean_linker_0, # of connection points: 2
#     Edge 31, Type (0, 0), BuildingBlock: CIFDUS_clean_linker_0, # of connection points: 2
#     Edge 32, Type (0, 0), BuildingBlock: CIFDUS_clean_linker_0, # of connection points: 2
#     Edge 33, Type (0, 0), BuildingBlock: CIFDUS_clean_linker_0, # of connection points: 2
#     Edge 34, Type (0, 0), BuildingBlock: CIFDUS_clean_linker_0, # of connection points: 2
#     Edge 35, Type (0, 0), BuildingBlock: CIFDUS_clean_linker_0, # of connection points: 2
#     Edge 36, Type (0, 0), BuildingBlock: CIFDUS_clean_linker_0, # of connection points: 2
#     Edge 37, Type (0, 0), BuildingBlock: CIFDUS_clean_linker_0, # of connection points: 2
#     Edge 38, Type (0, 0), BuildingBlock: CIFDUS_clean_linker_0, # of connection points: 2
#     Edge 39, Type (0, 0), BuildingBlock: CIFDUS_clean_linker_0, # of connection points: 2
#     Edge 40, Type (0, 0), BuildingBlock: CIFDUS_clean_linker_0, # of connection points: 2
#     Edge 41, Type (0, 0), BuildingBlock: CIFDUS_clean_linker_0, # of connection points: 2
#     Edge 42, Type (0, 0), BuildingBlock: CIFDUS_clean_linker_0, # of connection points: 2
#     Edge 43, Type (0, 0), BuildingBlock: CIFDUS_clean_linker_0, # of connection points: 2
#     Edge 44, Type (0, 0), BuildingBlock: CIFDUS_clean_linker_0, # of connection points: 2
#     Edge 45, Type (0, 0), BuildingBlock: CIFDUS_clean_linker_0, # of connection points: 2
#     Edge 46, Type (0, 0), BuildingBlock: CIFDUS_clean_linker_0, # of connection points: 2
#     Edge 47, Type (0, 0), BuildingBlock: CIFDUS_clean_linker_0, # of connection points: 2
# Relax obj value: 0.184
# Max RMSD: 0.213
# Mean RMSD: 0.213
data_MOF--net-und--node1-UXUYUI_clean_sbu_0--edge1-CIFDUS_clean_linker_0
_symmetry_space_group_name_H-M    P1
_symmetry_Int_Tables_number       1
_symmetry_cell_setting            triclinic
loop_
_symmetry_equiv_pos_as_xyz
'x, y, z'
_cell_length_a     79.154677
_cell_length_b     79.16911
_cell_length_c     29.964942
_cell_angle_alpha  90.043451
_cell_angle_beta   90.020455
_cell_angle_gamma 89.994413
loop_
_atom_site_label
_atom_site_type_symbol
_atom_site_fract_x
_atom_site_fract_y
_atom_site_fract_z
_atom_type_partial_charge
Li0 Li 0.23091 0.34064 0.00709 0.0
Li1 Li 0.26004 0.3443 0.98475 0.0
Li2 Li 0.24398 0.31987 0.95807 0.0
Li3 Li 0.2529 0.32147 0.03616 0.0
C4 C 0.23523 0.35978 0.9295 0.0
N5 N 0.22621 0.39138 0.89849 0.0
C6 C 0.23914 0.37419 0.95433 0.0
C7 C 0.22674 0.36143 0.88883 0.0
C8 C 0.23449 0.39005 0.93812 0.0
C9 C 0.22228 0.37751 0.87373 0.0
C10 C 0.25599 0.35679 0.07736 0.0
C11 C 0.27437 0.3634 0.1392 0.0
N12 N 0.26709 0.37891 0.14249 0.0
C13 C 0.24852 0.37271 0.0818 0.0
C14 C 0.26887 0.352 0.1067 0.0
C15 C 0.25438 0.38374 0.11476 0.0
C16 C 0.20927 0.35255 0.07128 0.0
N17 N 0.21114 0.35202 0.02625 0.0
C18 C 0.18701 0.36976 0.01631 0.0
C19 C 0.20013 0.36001 0.99856 0.0
C20 C 0.18531 0.37122 0.06287 0.0
C21 C 0.19641 0.36213 0.0904 0.0
H22 H 0.21814 0.34591 0.09239 0.0
H23 H 0.20176 0.35921 0.96283 0.0
C24 C 0.27974 0.35993 0.92126 0.0
N25 N 0.27676 0.35995 0.96589 0.0
C26 C 0.29105 0.37142 0.90264 0.0
C27 C 0.29633 0.38256 0.97649 0.0
C28 C 0.28483 0.37088 0.99368 0.0
C29 C 0.29947 0.38302 0.93031 0.0
H30 H 0.27304 0.35112 0.90003 0.0
H31 H 0.28232 0.37063 0.02906 0.0
C32 C 0.21439 0.30996 0.00072 0.0
N33 N 0.18243 0.2988 0.97827 0.0
C34 C 0.20622 0.298 0.02732 0.0
C35 C 0.20632 0.31626 0.96269 0.0
C36 C 0.19005 0.29251 0.0154 0.0
C37 C 0.19016 0.31045 0.95192 0.0
C38 C 0.28385 0.31679 0.98831 0.0
C39 C 0.29133 0.30337 0.96533 0.0
C40 C 0.29355 0.32652 0.01756 0.0
C41 C 0.30842 0.29983 0.97231 0.0
C42 C 0.3106 0.3226 0.02361 0.0
N43 N 0.31762 0.30944 0.00107 0.0
C44 C 0.2387 0.30824 0.86898 0.0
C45 C 0.24655 0.28791 0.92331 0.0
C46 C 0.23997 0.29615 0.83513 0.0
N47 N 0.24218 0.30392 0.91187 0.0
C48 C 0.24809 0.27549 0.89062 0.0
C49 C 0.24508 0.27963 0.84578 0.0
H50 H 0.23554 0.32117 0.86092 0.0
H51 H 0.24941 0.28498 0.95776 0.0
C52 C 0.24944 0.31088 0.1236 0.0
N53 N 0.2583 0.30785 0.08563 0.0
C54 C 0.24994 0.29935 0.15871 0.0
C55 C 0.26928 0.28218 0.11566 0.0
C56 C 0.2683 0.29399 0.0812 0.0
C57 C 0.25961 0.28457 0.15445 0.0
H58 H 0.24131 0.32185 0.12562 0.0
H59 H 0.27475 0.2916 0.05008 0.0
O60 O 0.23954 0.34407 0.94481 0.0
O61 O 0.25033 0.34572 0.04555 0.0
O62 O 0.23017 0.31549 0.01224 0.0
O63 O 0.26713 0.32036 0.98182 0.0
H64 H 0.24577 0.37315 0.98564 0.0
H65 H 0.22355 0.35039 0.86926 0.0
H66 H 0.23746 0.40131 0.95703 0.0
H67 H 0.21568 0.37898 0.84236 0.0
H68 H 0.28439 0.35988 0.16195 0.0
H69 H 0.23823 0.37652 0.06029 0.0
H70 H 0.27452 0.33959 0.10463 0.0
H71 H 0.24876 0.39612 0.11841 0.0
H72 H 0.17874 0.3766 0.99392 0.0
H73 H 0.19535 0.36265 0.12641 0.0
H74 H 0.29286 0.37146 0.86682 0.0
H75 H 0.30271 0.39111 0.99912 0.0
H76 H 0.2123 0.29304 0.0569 0.0
H77 H 0.21242 0.32552 0.9417 0.0
H78 H 0.18357 0.28326 0.03568 0.0
H79 H 0.18377 0.31522 0.92261 0.0
H80 H 0.28399 0.29574 0.94244 0.0
H81 H 0.28801 0.33705 0.03513 0.0
H82 H 0.31437 0.28945 0.95485 0.0
H83 H 0.31826 0.33004 0.04616 0.0
H84 H 0.23768 0.29986 0.80087 0.0
H85 H 0.25188 0.26285 0.9002 0.0
H86 H 0.2424 0.30167 0.18824 0.0
H87 H 0.27669 0.27082 0.1109 0.0
Li88 Li 0.92506 0.99728 0.21212 0.0
Li89 Li 0.92928 0.00629 0.28867 0.0
Li90 Li 0.90521 0.98746 0.27229 0.0
Li91 Li 0.90555 0.01652 0.24927 0.0
C92 C 0.93242 0.96639 0.25464 0.0
N93 N 0.93715 0.93269 0.23427 0.0
C94 C 0.94363 0.95663 0.27974 0.0
C95 C 0.92361 0.95903 0.21915 0.0
C96 C 0.94586 0.9396 0.2689 0.0
C97 C 0.92617 0.94197 0.2094 0.0
C98 C 0.94219 0.03124 0.24342 0.0
C99 C 0.95267 0.05608 0.28088 0.0
N100 N 0.96838 0.05287 0.26461 0.0
C101 C 0.9584 0.02827 0.22669 0.0
C102 C 0.93925 0.04533 0.2704 0.0
C103 C 0.97149 0.03931 0.23793 0.0
C104 C 0.9319 0.99659 0.11894 0.0
N105 N 0.93762 0.99212 0.16001 0.0
C106 C 0.96476 0.9853 0.13029 0.0
C107 C 0.95355 0.98615 0.1661 0.0
C108 C 0.95953 0.99077 0.08788 0.0
C109 C 0.9427 0.99597 0.08213 0.0
H110 H 0.91925 0.00141 0.11507 0.0
H111 H 0.95785 0.98293 0.19929 0.0
C112 C 0.94349 0.01509 0.37265 0.0
N113 N 0.94679 0.00946 0.33073 0.0
C114 C 0.95617 0.01489 0.40506 0.0
C115 C 0.97546 0.00355 0.35006 0.0
C116 C 0.96239 0.00386 0.31886 0.0
C117 C 0.97232 0.00878 0.39405 0.0
H118 H 0.93087 0.01911 0.3814 0.0
H119 H 0.96448 0.99902 0.28555 0.0
C120 C 0.88477 0.00099 0.19325 0.0
N121 N 0.85453 0.01188 0.15706 0.0
C122 C 0.86943 0.9961 0.21242 0.0
C123 C 0.8847 0.0115 0.15575 0.0
C124 C 0.85429 0.00169 0.19356 0.0
C125 C 0.86929 0.01688 0.13798 0.0
C126 C 0.89427 0.01671 0.33441 0.0
C127 C 0.87839 0.00979 0.34358 0.0
C128 C 0.89815 0.03295 0.3496 0.0
C129 C 0.86658 0.01934 0.36734 0.0
C130 C 0.88598 0.0421 0.37317 0.0
N131 N 0.87058 0.03517 0.38146 0.0
C132 C 0.89404 0.96755 0.34184 0.0
C133 C 0.88334 0.95847 0.27191 0.0
C134 C 0.88429 0.95559 0.36411 0.0
N135 N 0.89302 0.96909 0.29678 0.0
C136 C 0.87334 0.94627 0.29286 0.0
C137 C 0.87345 0.94501 0.33969 0.0
H138 H 0.90207 0.97605 0.36059 0.0
H139 H 0.88298 0.95984 0.23601 0.0
C140 C 0.89802 0.04808 0.21056 0.0
N141 N 0.89146 0.0357 0.23678 0.0
C142 C 0.88768 0.06097 0.19425 0.0
C143 C 0.86411 0.04842 0.2332 0.0
C144 C 0.87488 0.03579 0.24866 0.0
C145 C 0.8704 0.06107 0.20491 0.0
H146 H 0.91115 0.04756 0.20072 0.0
H147 H 0.86971 0.02554 0.26792 0.0
O148 O 0.93006 0.98303 0.26513 0.0
O149 O 0.92926 0.0204 0.23348 0.0
O150 O 0.89975 0.99579 0.2116 0.0
O151 O 0.90606 0.0075 0.31154 0.0
H152 H 0.95053 0.96216 0.30732 0.0
H153 H 0.91487 0.96638 0.19935 0.0
H154 H 0.9545 0.93189 0.28805 0.0
H155 H 0.91944 0.9361 0.18207 0.0
H156 H 0.95058 0.067 0.3019 0.0
H157 H 0.96089 0.01749 0.20555 0.0
H158 H 0.92673 0.04795 0.28302 0.0
H159 H 0.98412 0.0371 0.22547 0.0
H160 H 0.97755 0.98096 0.13606 0.0
H161 H 0.93818 0.00043 0.05012 0.0
H162 H 0.95329 0.0191 0.4386 0.0
H163 H 0.98765 0.99852 0.34042 0.0
H164 H 0.86918 0.98836 0.24208 0.0
H165 H 0.8964 0.01585 0.1412 0.0
H166 H 0.84234 0.99804 0.20819 0.0
H167 H 0.86908 0.02513 0.10924 0.0
H168 H 0.87508 0.99731 0.33185 0.0
H169 H 0.91042 0.03842 0.34331 0.0
H170 H 0.85421 0.01419 0.37438 0.0
H171 H 0.8888 0.05471 0.38494 0.0
H172 H 0.88501 0.95481 0.40014 0.0
H173 H 0.86513 0.93839 0.27278 0.0
H174 H 0.89308 0.07055 0.17277 0.0
H175 H 0.85081 0.04777 0.2415 0.0
Li176 Li 0.25713 0.67534 0.46184 0.0
Li177 Li 0.24957 0.67642 0.53849 0.0
Li178 Li 0.26724 0.65363 0.5158 0.0
Li179 Li 0.23742 0.65546 0.49256 0.0
C180 C 0.28893 0.68042 0.50094 0.0
N181 N 0.32206 0.68501 0.47461 0.0
C182 C 0.29909 0.69234 0.5225 0.0
C183 C 0.29564 0.6708 0.46602 0.0
C184 C 0.3158 0.69448 0.50868 0.0
C185 C 0.31242 0.67332 0.45321 0.0
C186 C 0.23071 0.69667 0.48126 0.0
C187 C 0.21136 0.71862 0.45888 0.0
N188 N 0.22337 0.73042 0.468 0.0
C189 C 0.24288 0.70902 0.49035 0.0
C190 C 0.21484 0.7015 0.46533 0.0
C191 C 0.23891 0.72601 0.48346 0.0
C192 C 0.24949 0.68682 0.3771 0.0
N193 N 0.26094 0.68882 0.41046 0.0
C194 C 0.27236 0.71329 0.37501 0.0
C195 C 0.27237 0.70165 0.40992 0.0
C196 C 0.26031 0.71185 0.34078 0.0
C197 C 0.24899 0.69821 0.34163 0.0
H198 H 0.24017 0.67687 0.37927 0.0
H199 H 0.28084 0.70349 0.4377 0.0
C200 C 0.26084 0.69359 0.61315 0.0
N201 N 0.24686 0.69146 0.58748 0.0
C202 C 0.26084 0.70532 0.64782 0.0
C203 C 0.2319 0.71228 0.62952 0.0
C204 C 0.23242 0.70027 0.59535 0.0
C205 C 0.24633 0.71503 0.65592 0.0
H206 H 0.27212 0.68636 0.60607 0.0
H207 H 0.22143 0.69822 0.57459 0.0
C208 C 0.25306 0.6366 0.43117 0.0
N209 N 0.2419 0.60855 0.38483 0.0
C210 C 0.25 0.62144 0.45367 0.0
C211 C 0.25063 0.63744 0.38503 0.0
C212 C 0.2443 0.60742 0.42968 0.0
C213 C 0.24495 0.62312 0.36221 0.0
C214 C 0.23995 0.65377 0.5943 0.0
C215 C 0.25014 0.652 0.6321 0.0
C216 C 0.22292 0.65806 0.59915 0.0
C217 C 0.24312 0.65471 0.67428 0.0
C218 C 0.21638 0.66064 0.64191 0.0
N219 N 0.22653 0.65894 0.67826 0.0
C220 C 0.29392 0.64502 0.57146 0.0
C221 C 0.28997 0.62558 0.51218 0.0
C222 C 0.30707 0.63529 0.58876 0.0
N223 N 0.28554 0.6399 0.53427 0.0
C224 C 0.30295 0.61538 0.52852 0.0
C225 C 0.31159 0.62009 0.56765 0.0
H226 H 0.29026 0.65663 0.58788 0.0
H227 H 0.28334 0.62196 0.48219 0.0
C228 C 0.21206 0.64462 0.4344 0.0
N229 N 0.21831 0.64239 0.47621 0.0
C230 C 0.20031 0.63326 0.41696 0.0
C231 C 0.20071 0.61828 0.48726 0.0
C232 C 0.21268 0.62978 0.50307 0.0
C233 C 0.19475 0.61961 0.44312 0.0
H234 H 0.21699 0.65466 0.41367 0.0
H235 H 0.21803 0.6282 0.536 0.0
O236 O 0.27259 0.67817 0.51462 0.0
O237 O 0.23431 0.67989 0.48679 0.0
O238 O 0.25809 0.65063 0.45432 0.0
O239 O 0.24667 0.65165 0.55266 0.0
H240 H 0.29409 0.69987 0.54963 0.0
H241 H 0.28805 0.6615 0.44888 0.0
H242 H 0.3238 0.70367 0.52506 0.0
H243 H 0.31777 0.66597 0.42624 0.0
H244 H 0.19913 0.72253 0.44654 0.0
H245 H 0.25526 0.70558 0.50249 0.0
H246 H 0.20533 0.69208 0.45788 0.0
H247 H 0.2482 0.73569 0.49035 0.0
H248 H 0.28108 0.72382 0.37609 0.0
H249 H 0.23955 0.6966 0.3158 0.0
H250 H 0.27227 0.70715 0.66713 0.0
H251 H 0.22041 0.71941 0.63509 0.0
H252 H 0.25167 0.62063 0.48947 0.0
H253 H 0.25306 0.64902 0.36704 0.0
H254 H 0.24169 0.59567 0.44675 0.0
H255 H 0.24294 0.62361 0.32653 0.0
H256 H 0.26334 0.6487 0.6289 0.0
H257 H 0.21492 0.65962 0.57014 0.0
H258 H 0.25086 0.65347 0.70385 0.0
H259 H 0.20325 0.66407 0.64617 0.0
H260 H 0.3136 0.63964 0.61838 0.0
H261 H 0.30589 0.60372 0.51126 0.0
H262 H 0.19633 0.63471 0.38262 0.0
H263 H 0.19656 0.60819 0.50901 0.0
Li264 Li 0.59428 0.98503 0.73322 0.0
Li265 Li 0.59587 0.01484 0.7538 0.0
Li266 Li 0.57377 0.99706 0.78501 0.0
Li267 Li 0.57254 0.00508 0.70704 0.0
C268 C 0.60193 0.98209 0.82319 0.0
N269 N 0.60842 0.95655 0.8836 0.0
C270 C 0.61356 0.9846 0.85764 0.0
C271 C 0.59359 0.96658 0.81943 0.0
C272 C 0.61667 0.97153 0.88785 0.0
C273 C 0.59705 0.95383 0.85032 0.0
C274 C 0.60746 0.01151 0.66299 0.0
C275 C 0.61297 0.03088 0.60264 0.0
N276 N 0.6291 0.02503 0.60011 0.0
C277 C 0.624 0.00551 0.65933 0.0
C278 C 0.6018 0.02414 0.63403 0.0
C279 C 0.63478 0.01258 0.62753 0.0
C280 C 0.60031 0.95685 0.68029 0.0
N281 N 0.6071 0.96635 0.71352 0.0
C282 C 0.63324 0.95143 0.70826 0.0
C283 C 0.62313 0.96377 0.72823 0.0
C284 C 0.62676 0.94175 0.67277 0.0
C285 C 0.60993 0.94437 0.65948 0.0
H286 H 0.58759 0.9594 0.66893 0.0
H287 H 0.62829 0.97178 0.75413 0.0
C288 C 0.60567 0.0449 0.79704 0.0
N289 N 0.61122 0.03234 0.76976 0.0
C290 C 0.61705 0.05651 0.81514 0.0
C291 C 0.63967 0.0421 0.7766 0.0
C292 C 0.62784 0.03077 0.75928 0.0
C293 C 0.63437 0.05501 0.80562 0.0
H294 H 0.59249 0.04549 0.80638 0.0
H295 H 0.63205 0.02029 0.7391 0.0
C296 C 0.55269 0.97754 0.72967 0.0
N297 N 0.5191 0.9686 0.72114 0.0
C298 C 0.53999 0.98882 0.7425 0.0
C299 C 0.54831 0.96173 0.71248 0.0
C300 C 0.52308 0.98406 0.73795 0.0
C301 C 0.53125 0.95744 0.70843 0.0
C302 C 0.56515 0.03558 0.74955 0.0
C303 C 0.54993 0.04103 0.76829 0.0
C304 C 0.57388 0.04611 0.72013 0.0
C305 C 0.54359 0.05692 0.75684 0.0
C306 C 0.56713 0.06191 0.70954 0.0
N307 N 0.55224 0.06694 0.72792 0.0
C308 C 0.55906 0.00819 0.86305 0.0
C309 C 0.55126 0.98006 0.84518 0.0
C310 C 0.54762 0.00852 0.89836 0.0
N311 N 0.56039 0.99426 0.83683 0.0
C312 C 0.53948 0.9799 0.87989 0.0
C313 C 0.53734 0.9944 0.90639 0.0
H314 H 0.56645 0.01931 0.85534 0.0
H315 H 0.55261 0.96913 0.82382 0.0
C316 C 0.56186 0.99897 0.62115 0.0
N317 N 0.55786 0.00829 0.65773 0.0
C318 C 0.55025 0.99713 0.58648 0.0
C319 C 0.53086 0.01507 0.62698 0.0
C320 C 0.54287 0.01658 0.66091 0.0
C321 C 0.53432 0.00484 0.58973 0.0
H322 H 0.57375 0.99225 0.62005 0.0
H323 H 0.53974 0.02345 0.6909 0.0
O324 O 0.59879 0.99482 0.7935 0.0
O325 O 0.59664 0.00453 0.6934 0.0
O326 O 0.56934 0.98199 0.73307 0.0
O327 O 0.57144 0.02002 0.76028 0.0
H328 H 0.62011 0.99654 0.86096 0.0
H329 H 0.58458 0.96434 0.79301 0.0
H330 H 0.62565 0.9733 0.91469 0.0
H331 H 0.59069 0.94177 0.84782 0.0
H332 H 0.60878 0.04071 0.58015 0.0
H333 H 0.62851 0.99557 0.68105 0.0
H334 H 0.58889 0.02859 0.63547 0.0
H335 H 0.64767 0.00815 0.62459 0.0
H336 H 0.64621 0.95002 0.71917 0.0
H337 H 0.60436 0.93707 0.63268 0.0
H338 H 0.61244 0.06603 0.83805 0.0
H339 H 0.65288 0.0405 0.76823 0.0
H340 H 0.54312 0.00113 0.75574 0.0
H341 H 0.55799 0.95287 0.7023 0.0
H342 H 0.51314 0.99267 0.74773 0.0
H343 H 0.52768 0.94525 0.69515 0.0
H344 H 0.54305 0.03302 0.79122 0.0
H345 H 0.58581 0.0422 0.70603 0.0
H346 H 0.53178 0.06128 0.77092 0.0
H347 H 0.57375 0.0702 0.6868 0.0
H348 H 0.54624 0.01999 0.91778 0.0
H349 H 0.53187 0.96872 0.88538 0.0
H350 H 0.55352 0.9893 0.55811 0.0
H351 H 0.51865 0.02104 0.63112 0.0
Li352 Li 0.75677 0.67587 0.03445 0.0
Li353 Li 0.73702 0.65471 0.00826 0.0
Li354 Li 0.76678 0.65544 0.97896 0.0
Li355 Li 0.74618 0.67682 0.9555 0.0
C356 C 0.7672 0.64823 0.07981 0.0
N357 N 0.7844 0.64317 0.15894 0.0
C358 C 0.75842 0.6436 0.11836 0.0
C359 C 0.78475 0.65 0.08133 0.0
C360 C 0.76733 0.64118 0.1581 0.0
C361 C 0.79321 0.64746 0.12168 0.0
C362 C 0.71672 0.68338 0.01713 0.0
C363 C 0.68912 0.6885 0.98574 0.0
N364 N 0.68298 0.6915 0.02737 0.0
C365 C 0.71019 0.6868 0.05952 0.0
C366 C 0.70616 0.68448 0.97986 0.0
C367 C 0.69307 0.69076 0.06404 0.0
C368 C 0.77077 0.70416 0.07857 0.0
N369 N 0.76131 0.68999 0.08398 0.0
C370 C 0.75271 0.69895 0.15657 0.0
C371 C 0.75256 0.68707 0.1222 0.0
C372 C 0.76183 0.71402 0.15131 0.0
C373 C 0.77133 0.71637 0.11221 0.0
H374 H 0.77711 0.70644 0.04722 0.0
H375 H 0.7447 0.67597 0.125 0.0
C376 C 0.71475 0.6265 0.0047 0.0
N377 N 0.71948 0.64032 0.02858 0.0
C378 C 0.70298 0.61516 0.02222 0.0
C379 C 0.70135 0.63238 0.08873 0.0
C380 C 0.71305 0.64342 0.0698 0.0
C381 C 0.69627 0.61792 0.06506 0.0
H382 H 0.72044 0.62401 0.97261 0.0
H383 H 0.71751 0.65414 0.08876 0.0
C384 C 0.78512 0.68501 0.9649 0.0
N385 N 0.817 0.69439 0.93664 0.0
C386 C 0.78764 0.69065 0.9212 0.0
C387 C 0.79877 0.68445 0.99445 0.0
C388 C 0.80386 0.69524 0.90748 0.0
C389 C 0.8148 0.68916 0.97947 0.0
C390 C 0.73701 0.64716 0.90793 0.0
C391 C 0.74605 0.64038 0.87206 0.0
C392 C 0.71947 0.64876 0.9049 0.0
C393 C 0.7374 0.63563 0.83338 0.0
C394 C 0.71127 0.64386 0.86568 0.0
N395 N 0.72034 0.63747 0.831 0.0
C396 C 0.78956 0.62773 0.97729 0.0
C397 C 0.79109 0.64627 0.91539 0.0
C398 C 0.80137 0.61692 0.95762 0.0
N399 N 0.78467 0.64206 0.95592 0.0
C400 C 0.80297 0.63591 0.89464 0.0
C401 C 0.80809 0.62086 0.91543 0.0
H402 H 0.78388 0.62441 0.00889 0.0
H403 H 0.78649 0.65735 0.89829 0.0
C404 C 0.73806 0.7083 0.92079 0.0
N405 N 0.74122 0.69206 0.9087 0.0
C406 C 0.73749 0.72101 0.88857 0.0
C407 C 0.74282 0.6999 0.83195 0.0
C408 C 0.74336 0.68763 0.86526 0.0
C409 C 0.74033 0.71692 0.84357 0.0
H410 H 0.73682 0.71149 0.95576 0.0
H411 H 0.74641 0.67478 0.85655 0.0
O412 O 0.75867 0.65077 0.04064 0.0
O413 O 0.73349 0.67958 0.01207 0.0
O414 O 0.7693 0.68049 0.97891 0.0
O415 O 0.74532 0.65191 0.94598 0.0
H416 H 0.74486 0.64198 0.11771 0.0
H417 H 0.79177 0.65316 0.05159 0.0
H418 H 0.76068 0.63772 0.18827 0.0
H419 H 0.80679 0.64885 0.12334 0.0
H420 H 0.68081 0.68931 0.95717 0.0
H421 H 0.71821 0.68632 0.08869 0.0
H422 H 0.71107 0.6824 0.94667 0.0
H423 H 0.68783 0.69329 0.09671 0.0
H424 H 0.74531 0.69661 0.18633 0.0
H425 H 0.77833 0.72793 0.10659 0.0
H426 H 0.69937 0.60424 0.00265 0.0
H427 H 0.69686 0.63483 0.12224 0.0
H428 H 0.77721 0.69133 0.89797 0.0
H429 H 0.79699 0.68061 0.02871 0.0
H430 H 0.806 0.69949 0.87364 0.0
H431 H 0.82549 0.68873 0.00197 0.0
H432 H 0.7596 0.63888 0.87394 0.0
H433 H 0.71222 0.65349 0.93276 0.0
H434 H 0.74425 0.63047 0.80527 0.0
H435 H 0.6977 0.64505 0.8629 0.0
H436 H 0.80469 0.6053 0.97452 0.0
H437 H 0.80786 0.63953 0.86229 0.0
H438 H 0.73574 0.73398 0.89908 0.0
H439 H 0.7449 0.69617 0.7976 0.0
Li440 Li 0.09383 0.9849 0.76551 0.0
Li441 Li 0.0712 0.00375 0.7953 0.0
Li442 Li 0.07155 0.99564 0.71858 0.0
Li443 Li 0.09233 0.01523 0.74439 0.0
C444 C 0.05674 0.96986 0.75841 0.0
N445 N 0.03096 0.94891 0.73004 0.0
C446 C 0.04014 0.9728 0.77228 0.0
C447 C 0.06026 0.95611 0.73067 0.0
C448 C 0.02727 0.9621 0.75744 0.0
C449 C 0.04704 0.9457 0.71652 0.0
C450 C 0.10013 0.01787 0.83433 0.0
C451 C 0.09526 0.04554 0.86542 0.0
N452 N 0.10835 0.04313 0.89413 0.0
C453 C 0.11354 0.01566 0.86408 0.0
C454 C 0.0909 0.03293 0.83491 0.0
C455 C 0.11749 0.02858 0.89409 0.0
C456 C 0.12575 0.97056 0.77473 0.0
N457 N 0.10906 0.96774 0.78197 0.0
C458 C 0.11517 0.94276 0.82352 0.0
C459 C 0.10355 0.95408 0.80516 0.0
C460 C 0.13257 0.94569 0.81813 0.0
C461 C 0.1378 0.9596 0.79247 0.0
H462 H 0.12969 0.98168 0.75652 0.0
H463 H 0.09016 0.95237 0.81093 0.0
C464 C 0.04178 0.01398 0.8402 0.0
N465 N 0.05742 0.00723 0.84567 0.0
C466 C 0.03035 0.01406 0.87566 0.0
C467 C 0.05169 0.00102 0.92209 0.0
C468 C 0.06265 0.00104 0.88562 0.0
C469 C 0.03518 0.00722 0.91699 0.0
H470 H 0.03794 0.01856 0.80775 0.0
H471 H 0.0751 0.99551 0.88861 0.0
C472 C 0.10187 0.98767 0.66862 0.0
N473 N 0.1137 0.97225 0.59202 0.0
C474 C 0.10723 0.99744 0.63245 0.0
C475 C 0.10284 0.97007 0.66615 0.0
C476 C 0.11308 0.9894 0.59392 0.0
C477 C 0.10877 0.96251 0.62704 0.0
C478 C 0.063 0.02998 0.71127 0.0
C479 C 0.07023 0.02902 0.6688 0.0
C480 C 0.05107 0.04252 0.72046 0.0
C481 C 0.06543 0.04067 0.63619 0.0
C482 C 0.04661 0.05395 0.68697 0.0
N483 N 0.05382 0.0528 0.64588 0.0
C484 C 0.04006 0.99672 0.68041 0.0
C485 C 0.06015 0.98557 0.62968 0.0
C486 C 0.02758 0.99652 0.64769 0.0
N487 N 0.05601 0.99147 0.6709 0.0
C488 C 0.04804 0.98528 0.59569 0.0
C489 C 0.03157 0.99102 0.60447 0.0
H490 H 0.03719 0.00164 0.71321 0.0
H491 H 0.07287 0.98155 0.62257 0.0
C492 C 0.12315 0.02867 0.72242 0.0
N493 N 0.10684 0.03335 0.7291 0.0
C494 C 0.13494 0.04035 0.70693 0.0
C495 C 0.11295 0.06157 0.70595 0.0
C496 C 0.10163 0.04952 0.72227 0.0
C497 C 0.12979 0.05693 0.69772 0.0
H498 H 0.12688 0.0157 0.72812 0.0
H499 H 0.08865 0.053 0.72849 0.0
O500 O 0.06947 0.98039 0.77192 0.0
O501 O 0.09618 0.00534 0.80467 0.0
O502 O 0.09624 0.99535 0.7067 0.0
O503 O 0.06733 0.01862 0.74371 0.0
H504 H 0.03719 0.98331 0.79393 0.0
H505 H 0.07304 0.95351 0.72007 0.0
H506 H 0.01435 0.96431 0.76765 0.0
H507 H 0.04958 0.93508 0.6948 0.0
H508 H 0.08823 0.05726 0.86625 0.0
H509 H 0.12081 0.00407 0.86393 0.0
H510 H 0.0805 0.03488 0.81209 0.0
H511 H 0.12784 0.02705 0.91734 0.0
H512 H 0.1106 0.93232 0.84346 0.0
H513 H 0.15107 0.9622 0.78703 0.0
H514 H 0.01776 0.01907 0.87057 0.0
H515 H 0.05583 0.99549 0.95328 0.0
H516 H 0.10692 0.0111 0.63413 0.0
H517 H 0.09913 0.96233 0.69413 0.0
H518 H 0.11717 0.99681 0.56559 0.0
H519 H 0.10951 0.9489 0.6246 0.0
H520 H 0.07939 0.01937 0.66106 0.0
H521 H 0.04534 0.04341 0.75317 0.0
H522 H 0.07092 0.04005 0.60318 0.0
H523 H 0.03741 0.06374 0.69363 0.0
H524 H 0.01512 0.00129 0.65571 0.0
H525 H 0.05157 0.98084 0.56279 0.0
H526 H 0.14779 0.0363 0.70067 0.0
H527 H 0.10861 0.07431 0.69955 0.0
Li528 Li 0.75987 0.34381 0.50828 0.0
Li529 Li 0.74117 0.32238 0.53843 0.0
Li530 Li 0.75023 0.31967 0.45959 0.0
Li531 Li 0.73059 0.34063 0.4833 0.0
C532 C 0.78057 0.3149 0.50517 0.0
N533 N 0.81346 0.30607 0.48509 0.0
C534 C 0.78888 0.30261 0.53041 0.0
C535 C 0.78897 0.32272 0.46973 0.0
C536 C 0.80552 0.29832 0.51973 0.0
C537 C 0.8056 0.31807 0.4601 0.0
C538 C 0.7336 0.34904 0.58585 0.0
C539 C 0.71164 0.34727 0.64142 0.0
N540 N 0.72303 0.35152 0.67349 0.0
C541 C 0.74505 0.35359 0.61927 0.0
C542 C 0.71672 0.34603 0.59689 0.0
C543 C 0.73948 0.3547 0.66341 0.0
C544 C 0.7819 0.37259 0.50443 0.0
N545 N 0.77839 0.35774 0.52513 0.0
C546 C 0.80066 0.3623 0.57764 0.0
C547 C 0.7876 0.35237 0.56067 0.0
C548 C 0.80422 0.37803 0.55808 0.0
C549 C 0.79476 0.38303 0.52057 0.0
H550 H 0.77457 0.37651 0.4759 0.0
H551 H 0.78456 0.34047 0.57645 0.0
C552 C 0.72592 0.29732 0.59298 0.0
N553 N 0.73818 0.30928 0.59052 0.0
C554 C 0.72571 0.2859 0.62849 0.0
C555 C 0.75045 0.29971 0.65873 0.0
C556 C 0.75024 0.31076 0.62255 0.0
C557 C 0.73833 0.28678 0.66147 0.0
H558 H 0.71679 0.29612 0.56635 0.0
H559 H 0.76009 0.32013 0.61903 0.0
C560 C 0.74583 0.35609 0.41641 0.0
N561 N 0.73324 0.38039 0.35914 0.0
C562 C 0.74234 0.35203 0.37195 0.0
C563 C 0.74293 0.37253 0.43171 0.0
C564 C 0.736 0.36449 0.34351 0.0
C565 C 0.73654 0.38462 0.40227 0.0
C566 C 0.71201 0.31238 0.47022 0.0
C567 C 0.70986 0.30623 0.42682 0.0
C568 C 0.69788 0.31481 0.49743 0.0
C569 C 0.69357 0.30292 0.41112 0.0
C570 C 0.6818 0.31136 0.4805 0.0
N571 N 0.67999 0.30555 0.43804 0.0
C572 C 0.75135 0.28749 0.4241 0.0
C573 C 0.76374 0.30802 0.37673 0.0
C574 C 0.75315 0.2751 0.3914 0.0
N575 N 0.7562 0.30363 0.41575 0.0
C576 C 0.76578 0.29601 0.34296 0.0
C577 C 0.76005 0.27939 0.34974 0.0
H578 H 0.74549 0.28441 0.45568 0.0
H579 H 0.76769 0.32093 0.37135 0.0
C580 C 0.70561 0.3665 0.48597 0.0
N581 N 0.71135 0.35302 0.46225 0.0
C582 C 0.69312 0.37699 0.46813 0.0
C583 C 0.6923 0.35921 0.40257 0.0
C584 C 0.7049 0.34921 0.4214 0.0
C585 C 0.68646 0.37347 0.42567 0.0
H586 H 0.7112 0.36949 0.51793 0.0
H587 H 0.71012 0.3389 0.40233 0.0
O588 O 0.76429 0.31921 0.51536 0.0
O589 O 0.73885 0.34762 0.54251 0.0
O590 O 0.75171 0.34397 0.44505 0.0
O591 O 0.72787 0.31564 0.48625 0.0
H592 H 0.78253 0.29648 0.55799 0.0
H593 H 0.78276 0.33228 0.44989 0.0
H594 H 0.81211 0.28883 0.53898 0.0
H595 H 0.81226 0.32401 0.43278 0.0
H596 H 0.69862 0.34489 0.65045 0.0
H597 H 0.75811 0.35615 0.61131 0.0
H598 H 0.70763 0.34283 0.57134 0.0
H599 H 0.74824 0.35809 0.68966 0.0
H600 H 0.80781 0.35773 0.60597 0.0
H601 H 0.79694 0.39509 0.50453 0.0
H602 H 0.71629 0.27599 0.62885 0.0
H603 H 0.76028 0.301 0.68364 0.0
H604 H 0.7442 0.33932 0.35965 0.0
H605 H 0.74512 0.37579 0.46631 0.0
H606 H 0.73316 0.3615 0.30909 0.0
H607 H 0.73407 0.39733 0.4138 0.0
H608 H 0.72061 0.30433 0.40514 0.0
H609 H 0.6993 0.31927 0.53129 0.0
H610 H 0.69173 0.2983 0.37749 0.0
H611 H 0.67075 0.31327 0.50115 0.0
H612 H 0.74889 0.26237 0.39835 0.0
H613 H 0.77114 0.29987 0.31132 0.0
H614 H 0.68891 0.38789 0.48698 0.0
H615 H 0.68776 0.35627 0.36937 0.0
Li616 Li 0.40406 0.01779 0.24829 0.0
Li617 Li 0.42471 0.99859 0.28617 0.0
Li618 Li 0.42815 0.00583 0.20816 0.0
Li619 Li 0.40619 0.98658 0.22878 0.0
C620 C 0.44086 0.03204 0.24889 0.0
N621 N 0.46693 0.05285 0.22207 0.0
C622 C 0.45738 0.02879 0.26294 0.0
C623 C 0.43756 0.04593 0.22153 0.0
C624 C 0.4704 0.03945 0.24893 0.0
C625 C 0.45092 0.05629 0.20825 0.0
C626 C 0.39401 0.99326 0.32791 0.0
C627 C 0.38855 0.9726 0.3852 0.0
N628 N 0.38315 0.98512 0.41283 0.0
C629 C 0.3882 0.0059 0.35666 0.0
C630 C 0.39401 0.97645 0.34207 0.0
C631 C 0.38285 0.00154 0.39955 0.0
C632 C 0.37338 0.03626 0.2445 0.0
N633 N 0.38944 0.03606 0.26049 0.0
C634 C 0.38415 0.06047 0.30513 0.0
C635 C 0.39507 0.04794 0.28965 0.0
C636 C 0.36734 0.06078 0.2902 0.0
C637 C 0.36206 0.0487 0.25875 0.0
H638 H 0.36923 0.02647 0.22182 0.0
H639 H 0.40787 0.04728 0.30218 0.0
C640 C 0.45174 0.98762 0.33993 0.0
N641 N 0.43704 0.99649 0.34004 0.0
C642 C 0.46301 0.98906 0.37557 0.0
C643 C 0.44356 0.00831 0.41135 0.0
C644 C 0.43274 0.00661 0.37486 0.0
C645 C 0.45917 -0.00015 0.41147 0.0
H646 H 0.45522 0.98028 0.31092 0.0
H647 H 0.42139 0.01415 0.37318 0.0
C648 C 0.40266 0.01365 0.14743 0.0
N649 N 0.39949 0.02778 0.06355 0.0
C650 C 0.40386 0.00349 0.10938 0.0
C651 C 0.39971 0.03097 0.14283 0.0
C652 C 0.40228 0.01089 0.06726 0.0
C653 C 0.39817 0.03788 0.10013 0.0
C654 C 0.43419 0.96677 0.23465 0.0
C655 C 0.44075 0.95968 0.19559 0.0
C656 C 0.43118 0.95649 0.27167 0.0
C657 C 0.4439 0.94233 0.19397 0.0
C658 C 0.43451 0.9392 0.26876 0.0
N659 N 0.44072 0.93253 0.23027 0.0
C660 C 0.46053 0.00117 0.17729 0.0
C661 C 0.44474 0.01809 0.12713 0.0
C662 C 0.47435 0.00122 0.14851 0.0
N663 N 0.44597 0.00922 0.16588 0.0
C664 C 0.45816 0.01816 0.09684 0.0
C665 C 0.47308 0.00945 0.10731 0.0
H666 H 0.46131 0.99444 0.2086 0.0
H667 H 0.43337 0.02493 0.11924 0.0
C668 C 0.37875 0.9632 0.22789 0.0
N669 N 0.39343 0.96785 0.20778 0.0
C670 C 0.36846 0.95086 0.20846 0.0
C671 C 0.38872 0.9482 0.14853 0.0
C672 C 0.39859 0.96052 0.1691 0.0
C673 C 0.37327 0.94343 0.16775 0.0
H674 H 0.37473 0.96952 0.25808 0.0
H675 H 0.41013 0.96467 0.15336 0.0
O676 O 0.42803 0.02146 0.26109 0.0
O677 O 0.39926 0.9973 0.28575 0.0
O678 O 0.40393 0.00662 0.18897 0.0
O679 O 0.43097 0.98372 0.23673 0.0
H680 H 0.46013 0.01804 0.28401 0.0
H681 H 0.42483 0.0486 0.21044 0.0
H682 H 0.48326 0.03703 0.2593 0.0
H683 H 0.44858 0.06704 0.18687 0.0
H684 H 0.38854 0.95964 0.39664 0.0
H685 H 0.38795 0.01896 0.34611 0.0
H686 H 0.39805 0.96646 0.31988 0.0
H687 H 0.37844 0.01121 0.42226 0.0
H688 H 0.38872 0.06964 0.32911 0.0
H689 H 0.34915 0.04844 0.24681 0.0
H690 H 0.47503 0.98257 0.37368 0.0
H691 H 0.44 0.01666 0.43839 0.0
H692 H 0.4061 0.99008 0.11226 0.0
H693 H 0.39868 0.03902 0.17184 0.0
H694 H 0.40327 0.00319 0.03753 0.0
H695 H 0.39595 0.05127 0.09607 0.0
H696 H 0.44324 0.96749 0.16668 0.0
H697 H 0.42647 0.96183 0.30243 0.0
H698 H 0.44886 0.93666 0.16385 0.0
H699 H 0.43219 0.93108 0.29714 0.0
H700 H 0.48569 0.99438 0.15762 0.0
H701 H 0.45687 0.02483 0.06548 0.0
H702 H 0.35654 0.94771 0.2241 0.0
H703 H 0.39299 0.94268 0.11742 0.0
Li704 Li 0.73555 0.84293 0.50642 0.0
Li705 Li 0.76462 0.8417 0.48119 0.0
Li706 Li 0.74384 0.82101 0.4515 0.0
Li707 Li 0.75473 0.81907 0.5283 0.0
C708 C 0.73236 0.85354 0.417 0.0
N709 N 0.70874 0.86842 0.3616 0.0
C710 C 0.73494 0.86992 0.40101 0.0
C711 C 0.71791 0.84464 0.40422 0.0
C712 C 0.72281 0.87725 0.37321 0.0
C713 C 0.70608 0.8524 0.37635 0.0
C714 C 0.76664 0.85558 0.56063 0.0
C715 C 0.7931 0.86411 0.59351 0.0
N716 N 0.78787 0.88048 0.59267 0.0
C717 C 0.76146 0.87245 0.56045 0.0
C718 C 0.78252 0.85133 0.5776 0.0
C719 C 0.7724 0.88487 0.57667 0.0
C720 C 0.71047 0.85064 0.56739 0.0
N721 N 0.71809 0.85673 0.53009 0.0
C722 C 0.70236 0.88241 0.53523 0.0
C723 C 0.7143 0.87227 0.51368 0.0
C724 C 0.69441 0.87653 0.5742 0.0
C725 C 0.69848 0.86033 0.58994 0.0
H726 H 0.71395 0.83834 0.58005 0.0
H727 H 0.72089 0.87704 0.4848 0.0
C728 C 0.7983 0.84791 0.45329 0.0
N729 N 0.78332 0.85525 0.46402 0.0
C730 C 0.81157 0.85768 0.43667 0.0
C731 C 0.79377 0.88239 0.44295 0.0
C732 C 0.78085 0.87213 0.45933 0.0
C733 C 0.80932 0.87514 0.43088 0.0
H734 H 0.79984 0.83442 0.45655 0.0
H735 H 0.7687 0.87757 0.46733 0.0
C736 C 0.71586 0.81009 0.50914 0.0
N737 N 0.68512 0.79357 0.51338 0.0
C738 C 0.71494 0.79359 0.52553 0.0
C739 C 0.70107 0.81826 0.49549 0.0
C740 C 0.69931 0.78543 0.52722 0.0
C741 C 0.68567 0.80968 0.49774 0.0
C742 C 0.77842 0.80408 0.47661 0.0
C743 C 0.77631 0.78927 0.45176 0.0
C744 C 0.79177 0.8053 0.50697 0.0
C745 C 0.78752 0.77585 0.45807 0.0
C746 C 0.8027 0.79159 0.51236 0.0
N747 N 0.80036 0.77727 0.48802 0.0
C748 C 0.74735 0.81128 0.36311 0.0
C749 C 0.72926 0.79327 0.40447 0.0
C750 C 0.74721 0.80008 0.32713 0.0
N751 N 0.73875 0.80752 0.40105 0.0
C752 C 0.72868 0.78176 0.36922 0.0
C753 C 0.73813 0.78488 0.33043 0.0
H754 H 0.75501 0.82258 0.36174 0.0
H755 H 0.7229 0.79033 0.43529 0.0
C756 C 0.75939 0.80908 0.61755 0.0
N757 N 0.759 0.80343 0.57472 0.0
C758 C 0.76014 0.79759 0.65285 0.0
C759 C 0.76071 0.77479 0.5991 0.0
C760 C 0.75968 0.78668 0.56497 0.0
C761 C 0.76062 0.7802 0.64366 0.0
H762 H 0.75851 0.82248 0.6243 0.0
H763 H 0.75866 0.78248 0.53079 0.0
O764 O 0.74416 0.84621 0.44419 0.0
O765 O 0.75623 0.84329 0.54417 0.0
O766 O 0.73107 0.81831 0.50771 0.0
O767 O 0.7675 0.81731 0.47109 0.0
H768 H 0.74614 0.87695 0.41018 0.0
H769 H 0.71588 0.83184 0.41537 0.0
H770 H 0.72459 0.88996 0.36084 0.0
H771 H 0.69481 0.84566 0.36634 0.0
H772 H 0.80547 0.86102 0.60654 0.0
H773 H 0.7492 0.87594 0.54746 0.0
H774 H 0.78663 0.83831 0.57847 0.0
H775 H 0.76861 0.89799 0.57644 0.0
H776 H 0.69982 0.89494 0.52238 0.0
H777 H 0.69255 0.85522 0.61956 0.0
H778 H 0.82339 0.85161 0.42806 0.0
H779 H 0.79139 0.89574 0.43836 0.0
H780 H 0.72619 0.78708 0.53653 0.0
H781 H 0.70139 0.83116 0.48372 0.0
H782 H 0.69846 0.77262 0.53958 0.0
H783 H 0.67415 0.81586 0.48723 0.0
H784 H 0.7661 0.78809 0.42801 0.0
H785 H 0.79362 0.81667 0.52635 0.0
H786 H 0.786 0.7643 0.43919 0.0
H787 H 0.81303 0.79234 0.53591 0.0
H788 H 0.75454 0.80301 0.29763 0.0
H789 H 0.72171 0.7701 0.37334 0.0
H790 H 0.76005 0.8022 0.68689 0.0
H791 H 0.76073 0.76147 0.59077 0.0
Li792 Li 0.40603 0.514 0.75095 0.0
Li793 Li 0.40452 0.48282 0.76309 0.0
Li794 Li 0.42587 0.49919 0.79958 0.0
Li795 Li 0.42791 0.49373 0.72164 0.0
C796 C 0.39961 0.50475 0.85016 0.0
N797 N 0.39854 0.51101 0.94075 0.0
C798 C 0.39775 0.49139 0.88017 0.0
C799 C 0.4008 0.5213 0.86607 0.0
C800 C 0.39727 0.49481 0.9259 0.0
C801 C 0.40026 0.5242 0.91204 0.0
C802 C 0.39029 0.48761 0.68566 0.0
C803 C 0.37832 0.46351 0.6479 0.0
N804 N 0.36296 0.47122 0.64797 0.0
C805 C 0.37442 0.49535 0.68514 0.0
C806 C 0.3923 0.47161 0.66667 0.0
C807 C 0.36075 0.48684 0.66599 0.0
C808 C 0.39884 0.54334 0.70304 0.0
N809 N 0.39328 0.53339 0.73688 0.0
C810 C 0.3678 0.54935 0.74281 0.0
C811 C 0.37824 0.53623 0.75733 0.0
C812 C 0.37298 0.55962 0.70703 0.0
C813 C 0.38891 0.55669 0.68778 0.0
H814 H 0.41084 0.54064 0.68731 0.0
H815 H 0.37407 0.52789 0.78369 0.0
C816 C 0.39433 0.44896 0.77782 0.0
N817 N 0.38891 0.46513 0.7729 0.0
C818 C 0.38306 0.43637 0.79114 0.0
C819 C 0.36083 0.45732 0.79326 0.0
C820 C 0.37253 0.46949 0.77996 0.0
C821 C 0.36613 0.44057 0.79988 0.0
H822 H 0.40752 0.44596 0.77322 0.0
H823 H 0.36868 0.48254 0.77667 0.0
C824 C 0.44107 0.52824 0.77009 0.0
N825 N 0.46139 0.55327 0.80571 0.0
C826 C 0.45835 0.5254 0.77619 0.0
C827 C 0.43413 0.54383 0.78223 0.0
C828 C 0.46841 0.5382 0.79426 0.0
C829 C 0.44461 0.55632 0.80012 0.0
C830 C 0.44144 0.46701 0.75651 0.0
C831 C 0.45769 0.46934 0.77374 0.0
C832 C 0.43866 0.4546 0.72411 0.0
C833 C 0.47091 0.45924 0.75816 0.0
C834 C 0.45222 0.44478 0.70932 0.0
N835 N 0.46792 0.44728 0.72652 0.0
C836 C 0.44051 0.4844 0.87397 0.0
C837 C 0.44392 0.51413 0.87471 0.0
C838 C 0.45041 0.4828 0.91219 0.0
N839 N 0.43796 0.49982 0.85508 0.0
C840 C 0.45423 0.51309 0.91241 0.0
C841 C 0.4578 0.49723 0.9309 0.0
H842 H 0.43518 0.47325 0.85858 0.0
H843 H 0.44095 0.52634 0.86097 0.0
C844 C 0.43624 0.48861 0.63058 0.0
N845 N 0.44271 0.49085 0.67222 0.0
C846 C 0.44694 0.48844 0.59349 0.0
C847 C 0.4707 0.49254 0.64301 0.0
C848 C 0.45958 0.49262 0.67898 0.0
C849 C 0.46439 0.49077 0.59952 0.0
H850 H 0.42275 0.48754 0.626 0.0
H851 H 0.46442 0.49444 0.71221 0.0
O852 O 0.4006 0.50162 0.80543 0.0
O853 O 0.40376 0.49558 0.70507 0.0
O854 O 0.43105 0.51598 0.75169 0.0
O855 O 0.42833 0.47687 0.77103 0.0
H856 H 0.39687 0.4785 0.86825 0.0
H857 H 0.40232 0.53176 0.84316 0.0
H858 H 0.39594 0.48459 0.94958 0.0
H859 H 0.40127 0.53693 0.9249 0.0
H860 H 0.37967 0.45108 0.6333 0.0
H861 H 0.37263 0.50773 0.69961 0.0
H862 H 0.4045 0.46547 0.66667 0.0
H863 H 0.34838 0.49265 0.66554 0.0
H864 H 0.35554 0.55094 0.75823 0.0
H865 H 0.39356 0.56445 0.66068 0.0
H866 H 0.38773 0.42368 0.79652 0.0
H867 H 0.34787 0.46107 0.79922 0.0
H868 H 0.46393 0.51335 0.76802 0.0
H869 H 0.42079 0.54627 0.77826 0.0
H870 H 0.48177 0.53612 0.79939 0.0
H871 H 0.4394 0.56842 0.80969 0.0
H872 H 0.46018 0.47906 0.79824 0.0
H873 H 0.4262 0.45264 0.71028 0.0
H874 H 0.48356 0.46098 0.77102 0.0
H875 H 0.45025 0.43518 0.68414 0.0
H876 H 0.45285 0.47038 0.92588 0.0
H877 H 0.4595 0.5245 0.92672 0.0
H878 H 0.44157 0.48718 0.56041 0.0
H879 H 0.4841 0.49412 0.64914 0.0
Li880 Li 0.75682 0.17674 0.95669 0.0
Li881 Li 0.74941 0.17573 0.03297 0.0
Li882 Li 0.76653 0.15389 0.00411 0.0
Li883 Li 0.73642 0.15607 0.98284 0.0
C884 C 0.78855 0.18037 0.99384 0.0
N885 N 0.82137 0.18495 0.96492 0.0
C886 C 0.79937 0.19128 0.01683 0.0
C887 C 0.79444 0.17176 0.95616 0.0
C888 C 0.81592 0.19343 0.00167 0.0
C889 C 0.81107 0.17425 0.94208 0.0
C890 C 0.73033 0.19765 0.98025 0.0
C891 C 0.71095 0.22007 0.96153 0.0
N892 N 0.72282 0.23164 0.97349 0.0
C893 C 0.74234 0.20977 0.99232 0.0
C894 C 0.71451 0.20282 0.96468 0.0
C895 C 0.7383 0.22689 0.98869 0.0
C896 C 0.75006 0.18906 0.87236 0.0
N897 N 0.76059 0.19135 0.90764 0.0
C898 C 0.77146 0.21674 0.87563 0.0
C899 C 0.77129 0.20477 0.90981 0.0
C900 C 0.76028 0.215 0.83953 0.0
C901 C 0.74966 0.20082 0.83775 0.0
H902 H 0.74145 0.17844 0.87213 0.0
H903 H 0.77911 0.20667 0.93892 0.0
C904 C 0.76097 0.19055 0.11071 0.0
N905 N 0.74685 0.18902 0.08526 0.0
C906 C 0.76094 0.20089 0.14832 0.0
C907 C 0.73167 0.20764 0.13346 0.0
C908 C 0.73226 0.19708 0.0961 0.0
C909 C 0.74623 0.20983 0.15975 0.0
H910 H 0.77234 0.18384 0.10139 0.0
H911 H 0.72119 0.19557 0.07528 0.0
C912 C 0.75599 0.1363 0.92594 0.0
N913 N 0.75426 0.104 0.89132 0.0
C914 C 0.75284 0.12257 0.95405 0.0
C915 C 0.75818 0.13362 0.88023 0.0
C916 C 0.75203 0.10633 0.9359 0.0
C917 C 0.7573 0.11718 0.86337 0.0
C918 C 0.73801 0.15139 0.08192 0.0
C919 C 0.74687 0.14854 0.12154 0.0
C920 C 0.7208 0.15529 0.08352 0.0
C921 C 0.73836 0.14975 0.16226 0.0
C922 C 0.71274 0.15637 0.1249 0.0
N923 N 0.72162 0.15362 0.16308 0.0
C924 C 0.79095 0.14377 0.06231 0.0
C925 C 0.79191 0.12725 0.99641 0.0
C926 C 0.80399 0.13439 0.0812 0.0
N927 N 0.78495 0.13988 0.02113 0.0
C928 C 0.8049 0.11736 0.01427 0.0
C929 C 0.81093 0.12071 0.05758 0.0
H930 H 0.7855 0.15422 0.08059 0.0
H931 H 0.78735 0.12472 0.96312 0.0
C932 C 0.709 0.14989 0.92717 0.0
N933 N 0.71709 0.14396 0.96395 0.0
C934 C 0.69597 0.14057 0.90772 0.0
C935 C 0.69967 0.11935 0.96494 0.0
C936 C 0.71255 0.12916 0.98349 0.0
C937 C 0.69138 0.12492 0.92614 0.0
H938 H 0.71309 0.16162 0.91211 0.0
H939 H 0.71932 0.12471 0.01255 0.0
O940 O 0.77236 0.17813 0.00879 0.0
O941 O 0.73401 0.18079 0.98273 0.0
O942 O 0.75632 0.15239 0.94256 0.0
O943 O 0.74618 0.15077 0.04176 0.0
H944 H 0.79501 0.19802 0.04609 0.0
H945 H 0.78633 0.16324 0.93789 0.0
H946 H 0.82442 0.20185 0.01913 0.0
H947 H 0.81579 0.16767 0.91299 0.0
H948 H 0.69876 0.22425 0.94951 0.0
H949 H 0.75468 0.20605 0.00425 0.0
H950 H 0.70511 0.19359 0.955 0.0
H951 H 0.74748 0.2364 0.99789 0.0
H952 H 0.77965 0.22765 0.87845 0.0
H953 H 0.74093 0.19903 0.81032 0.0
H954 H 0.77234 0.20193 0.16811 0.0
H955 H 0.7201 0.21437 0.14089 0.0
H956 H 0.7511 0.1244 0.9895 0.0
H957 H 0.76049 0.14415 0.85801 0.0
H958 H 0.74962 0.09559 0.95726 0.0
H959 H 0.75899 0.11491 0.82805 0.0
H960 H 0.76018 0.1455 0.12092 0.0
H961 H 0.71379 0.15771 0.05317 0.0
H962 H 0.74507 0.14765 0.19321 0.0
H963 H 0.69945 0.15948 0.12667 0.0
H964 H 0.80854 0.1378 0.11407 0.0
H965 H 0.80986 0.10697 0.99476 0.0
H966 H 0.69005 0.14522 0.87755 0.0
H967 H 0.69639 0.10742 0.98036 0.0
Li968 Li 0.09701 0.51434 0.26095 0.0
Li969 Li 0.09647 0.48527 0.24114 0.0
Li970 Li 0.07652 0.50468 0.20948 0.0
Li971 Li 0.07411 0.49812 0.28963 0.0
C972 C 0.11809 0.50515 0.1918 0.0
N973 N 0.15226 0.50563 0.17295 0.0
C974 C 0.12988 0.50166 0.22533 0.0
C975 C 0.12369 0.50887 0.1487 0.0
C976 C 0.14709 0.50197 0.21512 0.0
C977 C 0.14101 0.50906 0.13983 0.0
C978 C 0.10077 0.48273 0.33385 0.0
C979 C 0.09235 0.4563 0.36717 0.0
N980 N 0.10522 0.4577 0.39703 0.0
C981 C 0.11387 0.48392 0.36496 0.0
C982 C 0.08987 0.46882 0.33499 0.0
C983 C 0.11593 0.47113 0.39658 0.0
C984 C 0.11381 0.53329 0.32429 0.0
N985 N 0.11122 0.53239 0.27955 0.0
C986 C 0.12808 0.55703 0.26781 0.0
C987 C 0.11811 0.54387 0.25113 0.0
C988 C 0.13107 0.55815 0.31396 0.0
C989 C 0.12377 0.54608 0.34229 0.0
H990 H 0.10796 0.52412 0.34608 0.0
H991 H 0.11577 0.54286 0.21566 0.0
C992 C 0.10949 0.46243 0.18067 0.0
N993 N 0.10973 0.46607 0.22499 0.0
C994 C 0.11979 0.44971 0.16337 0.0
C995 C 0.13033 0.44454 0.2378 0.0
C996 C 0.11989 0.45744 0.25361 0.0
C997 C 0.13052 0.44065 0.192 0.0
H998 H 0.10158 0.46977 0.15851 0.0
H999 H 0.1203 0.46075 0.28847 0.0
C1000 C 0.07366 0.53725 0.26301 0.0
N1001 N 0.07739 0.57182 0.27052 0.0
C1002 C 0.07221 0.54506 0.30466 0.0
C1003 C 0.07691 0.54701 0.22513 0.0
C1004 C 0.07418 0.56256 0.30778 0.0
C1005 C 0.07876 0.56448 0.22962 0.0
C1006 C 0.05902 0.47544 0.21369 0.0
C1007 C 0.04296 0.48281 0.21441 0.0
C1008 C 0.06197 0.46136 0.18664 0.0
C1009 C 0.03019 0.47611 0.1875 0.0
C1010 C 0.04886 0.45502 0.16028 0.0
N1011 N 0.03338 0.46248 0.16118 0.0
C1012 C 0.06557 0.4976 0.12265 0.0
C1013 C 0.04947 0.51847 0.16034 0.0
C1014 C 0.05322 0.49617 0.08963 0.0
N1015 N 0.06314 0.50814 0.15788 0.0
C1016 C 0.03691 0.51761 0.12778 0.0
C1017 C 0.03834 0.50581 0.09285 0.0
H1018 H 0.07643 0.48931 0.1222 0.0
H1019 H 0.04772 0.52648 0.18922 0.0
C1020 C 0.06383 0.50477 0.37642 0.0
N1021 N 0.05941 0.49609 0.33909 0.0
C1022 C 0.05264 0.50595 0.41222 0.0
C1023 C 0.03284 0.48864 0.3711 0.0
C1024 C 0.0445 0.48768 0.33627 0.0
C1025 C 0.03669 0.4982 0.40937 0.0
H1026 H 0.07588 0.51119 0.37778 0.0
H1027 H 0.04141 0.48064 0.30655 0.0
O1028 O 0.10112 0.50481 0.20057 0.0
O1029 O 0.09862 0.4953 0.30304 0.0
O1030 O 0.07227 0.52008 0.2594 0.0
O1031 O 0.07183 0.48209 0.23889 0.0
H1032 H 0.12586 0.49871 0.25887 0.0
H1033 H 0.11472 0.51155 0.12236 0.0
H1034 H 0.15634 0.49929 0.24074 0.0
H1035 H 0.14552 0.51192 0.10661 0.0
H1036 H 0.08404 0.44547 0.36841 0.0
H1037 H 0.12239 0.49462 0.36456 0.0
H1038 H 0.07963 0.46761 0.31139 0.0
H1039 H 0.12605 0.47189 0.42079 0.0
H1040 H 0.13356 0.56608 0.24492 0.0
H1041 H 0.12558 0.54666 0.37809 0.0
H1042 H 0.11975 0.44743 0.12774 0.0
H1043 H 0.13831 0.43781 0.26117 0.0
H1044 H 0.06974 0.53769 0.33431 0.0
H1045 H 0.07824 0.54112 0.1927 0.0
H1046 H 0.0732 0.56877 0.33984 0.0
H1047 H 0.08137 0.57218 0.20064 0.0
H1048 H 0.0405 0.49386 0.23469 0.0
H1049 H 0.07425 0.45539 0.18597 0.0
H1050 H 0.01778 0.48184 0.18727 0.0
H1051 H 0.05099 0.44417 0.13905 0.0
H1052 H 0.05481 0.48678 0.06368 0.0
H1053 H 0.02582 0.52552 0.13112 0.0
H1054 H 0.05633 0.5131 0.44145 0.0
H1055 H 0.0207 0.48252 0.36723 0.0
Li1056 Li 0.24811 0.17525 0.52569 0.0
Li1057 Li 0.23018 0.1533 0.49872 0.0
Li1058 Li 0.26061 0.15352 0.47929 0.0
Li1059 Li 0.24073 0.17486 0.44838 0.0
C1060 C 0.25857 0.14641 0.57619 0.0
N1061 N 0.27593 0.13771 0.65283 0.0
C1062 C 0.24985 0.14013 0.61321 0.0
C1063 C 0.27613 0.14807 0.57799 0.0
C1064 C 0.25885 0.13586 0.6517 0.0
C1065 C 0.28468 0.14365 0.61707 0.0
C1066 C 0.2135 0.18127 0.53164 0.0
C1067 C 0.18845 0.19582 0.55672 0.0
N1068 N 0.18995 0.18823 0.59724 0.0
C1069 C 0.21477 0.17362 0.57354 0.0
C1070 C 0.20023 0.19246 0.52313 0.0
C1071 C 0.20276 0.1773 0.60625 0.0
C1072 C 0.24454 0.20681 0.5622 0.0
N1073 N 0.25073 0.19132 0.57298 0.0
C1074 C 0.25485 0.20007 0.64858 0.0
C1075 C 0.25612 0.18784 0.61508 0.0
C1076 C 0.24798 0.21601 0.63858 0.0
C1077 C 0.24317 0.2194 0.59441 0.0
H1078 H 0.24002 0.20917 0.52873 0.0
H1079 H 0.26078 0.17546 0.62338 0.0
C1080 C 0.21663 0.12365 0.53272 0.0
N1081 N 0.21216 0.13864 0.51419 0.0
C1082 C 0.20435 0.11308 0.55087 0.0
C1083 C 0.183 0.1333 0.52909 0.0
C1084 C 0.19571 0.14344 0.51101 0.0
C1085 C 0.1873 0.11805 0.55027 0.0
H1086 H 0.22983 0.12017 0.5346 0.0
H1087 H 0.1925 0.15543 0.49598 0.0
C1088 C 0.27309 0.19191 0.48419 0.0
N1089 N 0.29227 0.21988 0.5062 0.0
C1090 C 0.26811 0.208 0.47021 0.0
C1091 C 0.28799 0.19003 0.50872 0.0
C1092 C 0.27793 0.22199 0.48185 0.0
C1093 C 0.29747 0.20432 0.5197 0.0
C1094 C 0.22849 0.14524 0.40881 0.0
C1095 C 0.23111 0.13135 0.38087 0.0
C1096 C 0.21337 0.15432 0.40599 0.0
C1097 C 0.21853 0.12674 0.3505 0.0
C1098 C 0.2011 0.1493 0.3752 0.0
N1099 N 0.20391 0.13574 0.34833 0.0
C1100 C 0.28182 0.12456 0.48145 0.0
C1101 C 0.28933 0.14598 0.42979 0.0
C1102 C 0.29483 0.1142 0.46578 0.0
N1103 N 0.27935 0.14007 0.46318 0.0
C1104 C 0.30234 0.13598 0.41279 0.0
C1105 C 0.3051 0.11981 0.43052 0.0
H1106 H 0.27346 0.1201 0.50743 0.0
H1107 H 0.28688 0.15831 0.41564 0.0
C1108 C 0.22652 0.20197 0.40069 0.0
N1109 N 0.23719 0.18858 0.39804 0.0
C1110 C 0.22621 0.21398 0.36665 0.0
C1111 C 0.24739 0.19776 0.32724 0.0
C1112 C 0.2473 0.18608 0.36205 0.0
C1113 C 0.23705 0.21216 0.32983 0.0
H1114 H 0.21894 0.20379 0.43029 0.0
H1115 H 0.25581 0.17538 0.36138 0.0
O1116 O 0.24994 0.15053 0.53817 0.0
O1117 O 0.22517 0.17797 0.49903 0.0
O1118 O 0.26355 0.17808 0.47346 0.0
O1119 O 0.24069 0.14983 0.43878 0.0
H1120 H 0.23627 0.13858 0.61226 0.0
H1121 H 0.28309 0.15265 0.54952 0.0
H1122 H 0.25226 0.13106 0.68065 0.0
H1123 H 0.29827 0.14491 0.61894 0.0
H1124 H 0.17812 0.20445 0.55056 0.0
H1125 H 0.22492 0.16497 0.58082 0.0
H1126 H 0.199 0.19847 0.49089 0.0
H1127 H 0.20362 0.17147 0.63881 0.0
H1128 H 0.25855 0.19681 0.68229 0.0
H1129 H 0.23808 0.23158 0.58492 0.0
H1130 H 0.20823 0.10126 0.56588 0.0
H1131 H 0.17006 0.1377 0.52804 0.0
H1132 H 0.25667 0.20972 0.45103 0.0
H1133 H 0.29224 0.17768 0.51909 0.0
H1134 H 0.27413 0.23452 0.47157 0.0
H1135 H 0.30898 0.20305 0.53888 0.0
H1136 H 0.24276 0.12421 0.38269 0.0
H1137 H 0.2111 0.1651 0.42729 0.0
H1138 H 0.22038 0.11601 0.32867 0.0
H1139 H 0.18934 0.1562 0.37269 0.0
H1140 H 0.29645 0.10173 0.47996 0.0
H1141 H 0.31007 0.14079 0.38581 0.0
H1142 H 0.21821 0.225 0.37027 0.0
H1143 H 0.25578 0.19578 0.29918 0.0
Li1144 Li 0.57238 0.50545 0.2964 0.0
Li1145 Li 0.59519 0.4887 0.26391 0.0
Li1146 Li 0.59411 0.51834 0.24728 0.0
Li1147 Li 0.57342 0.49953 0.21823 0.0
C1148 C 0.60692 0.50132 0.33976 0.0
N1149 N 0.62718 0.4863 0.40353 0.0
C1150 C 0.6003 0.48892 0.36799 0.0
C1151 C 0.6238 0.50618 0.34426 0.0
C1152 C 0.61075 0.48145 0.39994 0.0
C1153 C 0.63385 0.49841 0.37663 0.0
C1154 C 0.56309 0.4703 0.24577 0.0
C1155 C 0.56344 0.44794 0.19107 0.0
N1156 N 0.54667 0.44534 0.1981 0.0
C1157 C 0.54587 0.46737 0.25258 0.0
C1158 C 0.57198 0.4605 0.21486 0.0
C1159 C 0.53779 0.4547 0.2281 0.0
C1160 C 0.54079 0.50616 0.33553 0.0
N1161 N 0.55744 0.5084 0.34474 0.0
C1162 C 0.55144 0.51246 0.42203 0.0
C1163 C 0.56292 0.51194 0.38668 0.0
C1164 C 0.53421 0.50944 0.41385 0.0
C1165 C 0.52889 0.50661 0.36975 0.0
H1166 H 0.53683 0.50378 0.30157 0.0
H1167 H 0.57621 0.51401 0.39285 0.0
C1168 C 0.62696 0.47283 0.27093 0.0
N1169 N 0.61012 0.4707 0.27756 0.0
C1170 C 0.63843 0.46113 0.2882 0.0
C1171 C 0.61491 0.44496 0.31699 0.0
C1172 C 0.60392 0.45698 0.29926 0.0
C1173 C 0.63244 0.44715 0.31243 0.0
H1174 H 0.6315 0.48402 0.25404 0.0
H1175 H 0.59048 0.45583 0.3049 0.0
C1176 C 0.56424 0.53683 0.26317 0.0
N1177 N 0.55441 0.5678 0.29692 0.0
C1178 C 0.55086 0.54564 0.24358 0.0
C1179 C 0.57259 0.54374 0.30006 0.0
C1180 C 0.54609 0.56129 0.26109 0.0
C1181 C 0.56743 0.55942 0.31658 0.0
C1182 C 0.60109 0.50591 0.16361 0.0
C1183 C 0.59122 0.51917 0.14714 0.0
C1184 C 0.61435 0.49957 0.1378 0.0
C1185 C 0.59477 0.52584 0.10504 0.0
C1186 C 0.6175 0.50658 0.09584 0.0
N1187 N 0.60773 0.51946 0.08047 0.0
C1188 C 0.62468 0.53504 0.23383 0.0
C1189 C 0.60086 0.55182 0.21571 0.0
C1190 C 0.63557 0.54741 0.21732 0.0
N1191 N 0.60769 0.53742 0.23266 0.0
C1192 C 0.61127 0.56452 0.19887 0.0
C1193 C 0.62887 0.56229 0.1989 0.0
H1194 H 0.62974 0.5232 0.24587 0.0
H1195 H 0.58734 0.55317 0.21308 0.0
C1196 C 0.54228 0.50127 0.17781 0.0
N1197 N 0.5583 0.49587 0.17007 0.0
C1198 C 0.5302 0.50058 0.14406 0.0
C1199 C 0.55128 0.4885 0.09506 0.0
C1200 C 0.56292 0.4892 0.13007 0.0
C1201 C 0.53475 0.49443 0.10184 0.0
H1202 H 0.539 0.50644 0.21009 0.0
H1203 H 0.57571 0.48479 0.12503 0.0
O1204 O 0.59702 0.50834 0.30723 0.0
O1205 O 0.57115 0.48297 0.26834 0.0
O1206 O 0.56887 0.52143 0.24644 0.0
O1207 O 0.59811 0.49927 0.20504 0.0
H1208 H 0.58731 0.48484 0.36458 0.0
H1209 H 0.62913 0.5158 0.3229 0.0
H1210 H 0.60583 0.47173 0.42168 0.0
H1211 H 0.64697 0.50199 0.38032 0.0
H1212 H 0.57013 0.44032 0.16687 0.0
H1213 H 0.53881 0.47482 0.27637 0.0
H1214 H 0.58527 0.46273 0.20886 0.0
H1215 H 0.52446 0.45232 0.23291 0.0
H1216 H 0.5561 0.51466 0.45552 0.0
H1217 H 0.51569 0.50462 0.36182 0.0
H1218 H 0.65183 0.46319 0.28352 0.0
H1219 H 0.60975 0.43453 0.33596 0.0
H1220 H 0.54425 0.54043 0.21509 0.0
H1221 H 0.58295 0.53715 0.31578 0.0
H1222 H 0.53578 0.56825 0.24621 0.0
H1223 H 0.57379 0.56493 0.34505 0.0
H1224 H 0.58091 0.52429 0.16653 0.0
H1225 H 0.62215 0.48936 0.15016 0.0
H1226 H 0.58723 0.53609 0.09192 0.0
H1227 H 0.62773 0.50179 0.07552 0.0
H1228 H 0.64907 0.54519 0.21813 0.0
H1229 H 0.60556 0.57562 0.18409 0.0
H1230 H 0.51762 0.50538 0.15044 0.0
H1231 H 0.55517 0.48353 0.06297 0.0
Li1232 Li 0.24309 0.82094 0.0467 0.0
Li1233 Li 0.26395 0.8419 0.01829 0.0
Li1234 Li 0.23416 0.84207 0.9929 0.0
Li1235 Li 0.25254 0.81986 0.97092 0.0
C1236 C 0.23014 0.85145 0.08126 0.0
N1237 N 0.20413 0.86273 0.13501 0.0
C1238 C 0.23191 0.86644 0.10545 0.0
C1239 C 0.21516 0.84219 0.08438 0.0
C1240 C 0.21861 0.87193 0.13246 0.0
C1241 C 0.20215 0.8481 0.11173 0.0
C1242 C 0.27597 0.80323 0.01813 0.0
C1243 C 0.30066 0.78984 0.98693 0.0
N1244 N 0.29496 0.77461 0.0015 0.0
C1245 C 0.27044 0.78746 0.03319 0.0
C1246 C 0.29128 0.80446 0.99517 0.0
C1247 C 0.28018 0.77314 0.02431 0.0
C1248 C 0.22684 0.79517 0.09637 0.0
N1249 N 0.23843 0.80782 0.09751 0.0
C1250 C 0.24886 0.79841 0.16785 0.0
C1251 C 0.24908 0.80988 0.13261 0.0
C1252 C 0.23762 0.78469 0.16667 0.0
C1253 C 0.22614 0.78342 0.13105 0.0
H1254 H 0.2188 0.79369 0.06746 0.0
H1255 H 0.25832 0.81994 0.13203 0.0
C1256 C 0.28311 0.8719 0.02667 0.0
N1257 N 0.28229 0.85529 0.03771 0.0
C1258 C 0.29552 0.88222 0.04557 0.0
C1259 C 0.30609 0.85802 0.08614 0.0
C1260 C 0.29352 0.84817 0.06636 0.0
C1261 C 0.30704 0.87535 0.07635 0.0
H1262 H 0.2738 0.87722 0.00426 0.0
H1263 H 0.29241 0.83494 0.0748 0.0
C1264 C 0.21811 0.81402 0.95889 0.0
N1265 N 0.1962 0.80695 0.88951 0.0
C1266 C 0.22063 0.82129 0.91691 0.0
C1267 C 0.20443 0.80316 0.96556 0.0
C1268 C 0.20943 0.81755 0.88227 0.0
C1269 C 0.19349 0.79974 0.93008 0.0
C1270 C 0.26514 0.84808 0.92151 0.0
C1271 C 0.25798 0.8536 0.88141 0.0
C1272 C 0.28268 0.84667 0.92514 0.0
C1273 C 0.26852 0.85734 0.84535 0.0
C1274 C 0.29278 0.85054 0.88833 0.0
N1275 N 0.28555 0.85574 0.84952 0.0
C1276 C 0.22133 0.87062 0.95078 0.0
C1277 C 0.20002 0.85242 0.97855 0.0
C1278 C 0.20922 0.88103 0.93118 0.0
N1279 N 0.21657 0.85654 0.97335 0.0
C1280 C 0.18744 0.86253 0.95967 0.0
C1281 C 0.19199 0.87696 0.93511 0.0
H1282 H 0.23461 0.87353 0.94703 0.0
H1283 H 0.19659 0.84109 0.99651 0.0
C1284 C 0.25039 0.78782 0.9358 0.0
N1285 N 0.25664 0.80333 0.92541 0.0
C1286 C 0.251 0.77468 0.9049 0.0
C1287 C 0.26428 0.79369 0.85251 0.0
C1288 C 0.26368 0.80643 0.88481 0.0
C1289 C 0.25777 0.77764 0.86245 0.0
H1290 H 0.24449 0.78578 0.96788 0.0
H1291 H 0.26848 0.81878 0.87683 0.0
O1292 O 0.24302 0.84602 0.05443 0.0
O1293 O 0.26649 0.81738 0.02606 0.0
O1294 O 0.2289 0.81746 0.99346 0.0
O1295 O 0.25499 0.84448 0.9572 0.0
H1296 H 0.24343 0.87376 0.10329 0.0
H1297 H 0.21353 0.8306 0.06574 0.0
H1298 H 0.21979 0.88352 0.15137 0.0
H1299 H 0.19048 0.84108 0.11439 0.0
H1300 H 0.3125 0.7906 0.96899 0.0
H1301 H 0.25864 0.78622 0.05103 0.0
H1302 H 0.2959 0.81655 0.98382 0.0
H1303 H 0.27598 0.76085 0.03547 0.0
H1304 H 0.25778 0.79992 0.19498 0.0
H1305 H 0.2174 0.77292 0.12874 0.0
H1306 H 0.29568 0.89556 0.03751 0.0
H1307 H 0.31483 0.85218 0.10928 0.0
H1308 H 0.23112 0.82969 0.91106 0.0
H1309 H 0.20225 0.79745 0.99785 0.0
H1310 H 0.21126 0.82309 0.84963 0.0
H1311 H 0.18284 0.79137 0.93479 0.0
H1312 H 0.24443 0.85493 0.87809 0.0
H1313 H 0.28845 0.84266 0.956 0.0
H1314 H 0.26315 0.86155 0.81407 0.0
H1315 H 0.30638 0.84945 0.89066 0.0
H1316 H 0.21336 0.89186 0.91205 0.0
H1317 H 0.17433 0.85903 0.96404 0.0
H1318 H 0.24566 0.76252 0.91353 0.0
H1319 H 0.26964 0.79638 0.82003 0.0
Li1320 Li 0.92855 0.48834 0.79358 0.0
Li1321 Li 0.90695 0.50816 0.76936 0.0
Li1322 Li 0.90588 0.47742 0.7459 0.0
Li1323 Li 0.92677 0.49654 0.71337 0.0
C1324 C 0.90198 0.48223 0.84959 0.0
N1325 N 0.89829 0.47163 0.93687 0.0
C1326 C 0.90084 0.49407 0.88408 0.0
C1327 C 0.90086 0.46502 0.85937 0.0
C1328 C 0.89909 0.48845 0.92802 0.0
C1329 C 0.89909 0.4599 0.90374 0.0
C1330 C 0.93689 0.52732 0.76155 0.0
C1331 C 0.93839 0.55301 0.71851 0.0
N1332 N 0.94718 0.56049 0.75214 0.0
C1333 C 0.94612 0.5352 0.79547 0.0
C1334 C 0.93313 0.53624 0.72258 0.0
C1335 C 0.95114 0.55199 0.79018 0.0
C1336 C 0.9571 0.47382 0.83733 0.0
N1337 N 0.94423 0.48514 0.84053 0.0
C1338 C 0.95646 0.49738 0.90579 0.0
C1339 C 0.94364 0.4967 0.87399 0.0
C1340 C 0.97018 0.4862 0.90276 0.0
C1341 C 0.97026 0.47408 0.86844 0.0
H1342 H 0.9576 0.46516 0.80951 0.0
H1343 H 0.93371 0.50606 0.87446 0.0
C1344 C 0.87769 0.52855 0.77676 0.0
N1345 N 0.89402 0.52677 0.78989 0.0
C1346 C 0.86759 0.54119 0.79545 0.0
C1347 C 0.8914 0.54998 0.84037 0.0
C1348 C 0.90097 0.53714 0.82103 0.0
C1349 C 0.87438 0.55201 0.82812 0.0
H1350 H 0.87238 0.51984 0.75272 0.0
H1351 H 0.91379 0.53509 0.83205 0.0
C1352 C 0.93445 0.45737 0.73367 0.0
N1353 N 0.94176 0.4236 0.72055 0.0
C1354 C 0.94099 0.45187 0.69283 0.0
C1355 C 0.93185 0.44573 0.76801 0.0
C1356 C 0.94454 0.43473 0.68679 0.0
C1357 C 0.93557 0.42871 0.76069 0.0
C1358 C 0.89537 0.50463 0.67118 0.0
C1359 C 0.89006 0.49379 0.63711 0.0
C1360 C 0.8935 0.52208 0.66595 0.0
C1361 C 0.88345 0.5006 0.59782 0.0
C1362 C 0.88681 0.5284 0.62619 0.0
N1363 N 0.88199 0.51762 0.59319 0.0
C1364 C 0.87677 0.45659 0.75244 0.0
C1365 C 0.89525 0.45038 0.69246 0.0
C1366 C 0.86518 0.44458 0.73708 0.0
N1367 N 0.89139 0.45931 0.72981 0.0
C1368 C 0.88417 0.43816 0.67623 0.0
C1369 C 0.86871 0.43534 0.69804 0.0
H1370 H 0.87385 0.46416 0.78151 0.0
H1371 H 0.90667 0.45318 0.67421 0.0
C1372 C 0.95575 0.50642 0.66619 0.0
N1373 N 0.94015 0.49947 0.66161 0.0
C1374 C 0.9672 0.50596 0.63083 0.0
C1375 C 0.94625 0.49133 0.58658 0.0
C1376 C 0.93519 0.49212 0.62275 0.0
C1377 C 0.96261 0.498 0.5907 0.0
H1378 H 0.95963 0.51156 0.69801 0.0
H1379 H 0.92304 0.48601 0.62064 0.0
O1380 O 0.90369 0.4875 0.80635 0.0
O1381 O 0.93188 0.51087 0.76626 0.0
O1382 O 0.93072 0.47407 0.73995 0.0
O1383 O 0.90162 0.49815 0.71018 0.0
H1384 H 0.90141 0.50745 0.87703 0.0
H1385 H 0.90119 0.4557 0.83299 0.0
H1386 H 0.89835 0.49748 0.95508 0.0
H1387 H 0.89829 0.44661 0.91181 0.0
H1388 H 0.93555 0.56005 0.6885 0.0
H1389 H 0.94931 0.52844 0.82568 0.0
H1390 H 0.92648 0.5302 0.69547 0.0
H1391 H 0.95819 0.55827 0.81629 0.0
H1392 H 0.95608 0.50718 0.93101 0.0
H1393 H 0.9806 0.46522 0.86496 0.0
H1394 H 0.85447 0.54208 0.78554 0.0
H1395 H 0.89722 0.55809 0.86511 0.0
H1396 H 0.9432 0.46072 0.66599 0.0
H1397 H 0.92715 0.44983 0.80007 0.0
H1398 H 0.9495 0.43029 0.65526 0.0
H1399 H 0.93358 0.41956 0.78696 0.0
H1400 H 0.89114 0.48025 0.64081 0.0
H1401 H 0.89701 0.53066 0.69243 0.0
H1402 H 0.87944 0.49235 0.57105 0.0
H1403 H 0.88537 0.54188 0.62165 0.0
H1404 H 0.85333 0.44304 0.75465 0.0
H1405 H 0.88757 0.43123 0.6464 0.0
H1406 H 0.9798 0.51096 0.63569 0.0
H1407 H 0.94222 0.4851 0.5562 0.0
H1408 H 0.23116 0.27217 0.19214 0.0
H1409 H 0.28534 0.26635 0.19168 0.0
H1410 H 0.28308 0.24314 0.2453 0.0
H1411 H 0.26567 0.22476 0.29257 0.0
H1412 H 0.21142 0.23028 0.29173 0.0
H1413 H 0.21375 0.25359 0.23869 0.0
C1414 C 0.24249 0.26595 0.20424 0.0
C1415 C 0.25841 0.27103 0.18836 0.0
C1416 C 0.24106 0.25259 0.23465 0.0
C1417 C 0.27295 0.26263 0.20345 0.0
C1418 C 0.27166 0.24939 0.23408 0.0
C1419 C 0.25434 0.2309 0.2803 0.0
C1420 C 0.23839 0.22575 0.29596 0.0
C1421 C 0.25577 0.24424 0.24975 0.0
C1422 C 0.22385 0.23409 0.28046 0.0
C1423 C 0.22517 0.24738 0.25006 0.0
H1424 H 0.96839 0.99559 0.47676 0.0
H1425 H 0.0058 0.01703 0.38881 0.0
H1426 H 0.02765 0.01266 0.44544 0.0
H1427 H 0.03594 0.00324 0.52057 0.0
H1428 H 0.99842 0.98177 0.60818 0.0
H1429 H 0.97673 0.98577 0.55112 0.0
C1430 C 0.98129 -0.00052 0.47021 0.0
C1431 C 0.98547 0.00674 0.42886 0.0
C1432 C 0.99376 0.99687 0.50275 0.0
C1433 C 0.0023 0.01137 0.4204 0.0
C1434 C 0.01478 0.00889 0.45274 0.0
C1435 C 0.02306 0.99921 0.52687 0.0
C1436 C 0.01878 0.99221 0.56848 0.0
C1437 C 0.01065 0.00163 0.49402 0.0
C1438 C 0.00199 0.98731 0.57651 0.0
C1439 C 0.9896 0.98958 0.54393 0.0
H1440 H 0.25862 0.71273 0.74032 0.0
H1441 H 0.23476 0.74735 0.6488 0.0
H1442 H 0.23662 0.76994 0.70426 0.0
H1443 H 0.24538 0.77993 0.77852 0.0
H1444 H 0.26869 0.74518 0.87053 0.0
H1445 H 0.26692 0.72257 0.81496 0.0
C1446 C 0.25388 0.72524 0.73254 0.0
C1447 C 0.24659 0.72839 0.69056 0.0
C1448 C 0.25501 0.73814 0.76451 0.0
C1449 C 0.24026 0.74458 0.68108 0.0
C1450 C 0.24143 0.75752 0.71262 0.0
C1451 C 0.25021 0.76743 0.7861 0.0
C1452 C 0.25729 0.7642 0.82822 0.0
C1453 C 0.24888 0.75447 0.75432 0.0
C1454 C 0.2632 0.74791 0.8382 0.0
C1455 C 0.26218 0.73501 0.80651 0.0
H1456 H 0.47104 0.99779 0.02291 0.0
H1457 H 0.50615 0.01771 0.11943 0.0
H1458 H 0.52936 0.01455 0.06593 0.0
H1459 H 0.53956 0.00606 0.99156 0.0
H1460 H 0.50449 0.98511 0.89622 0.0
H1461 H 0.48137 0.98846 0.94955 0.0
C1462 C 0.48377 0.00155 0.03192 0.0
C1463 C 0.48695 0.00815 0.0746 0.0
C1464 C 0.49704 0.99933 0.00144 0.0
C1465 C 0.50349 0.01268 0.08654 0.0
C1466 C 0.51672 0.01084 0.05605 0.0
C1467 C 0.52684 0.00222 0.98259 0.0
C1468 C 0.52371 0.99534 0.94012 0.0
C1469 C 0.51364 0.00416 0.01344 0.0
C1470 C 0.50723 0.99025 0.92895 0.0
C1471 C 0.494 0.99229 0.95926 0.0
H1472 H 0.26612 0.76982 0.1973 0.0
H1473 H 0.21188 0.76879 0.2108 0.0
H1474 H 0.21412 0.74579 0.26504 0.0
H1475 H 0.23158 0.72638 0.30938 0.0
H1476 H 0.28583 0.72737 0.29517 0.0
H1477 H 0.28352 0.75024 0.24081 0.0
C1478 C 0.2548 0.7647 0.21254 0.0
C1479 C 0.23886 0.77108 0.20043 0.0
C1480 C 0.2562 0.7515 0.24344 0.0
C1481 C 0.22428 0.76405 0.21957 0.0
C1482 C 0.22556 0.75094 0.25059 0.0
C1483 C 0.24288 0.73143 0.29391 0.0
C1484 C 0.25886 0.72515 0.30617 0.0
C1485 C 0.24146 0.74456 0.26271 0.0
C1486 C 0.27341 0.73207 0.28653 0.0
C1487 C 0.27209 0.74511 0.25539 0.0
H1488 H 0.48082 0.97754 0.45085 0.0
H1489 H 0.46647 0.03016 0.4509 0.0
H1490 H 0.48818 0.03629 0.50622 0.0
H1491 H 0.51193 0.02696 0.55289 0.0
H1492 H 0.52662 0.97447 0.55174 0.0
H1493 H 0.50449 0.9682 0.49756 0.0
C1494 C 0.48249 0.99036 0.46276 0.0
C1495 C 0.47192 0.00331 0.44679 0.0
C1496 C 0.49523 0.9939 0.49399 0.0
C1497 C 0.47416 0.01984 0.46315 0.0
C1498 C 0.48671 0.02342 0.49451 0.0
C1499 C 0.51022 0.01414 0.54094 0.0
C1500 C 0.52101 0.00125 0.5561 0.0
C1501 C 0.49738 0.01058 0.50998 0.0
C1502 C 0.51871 0.98471 0.53999 0.0
C1503 C 0.50596 0.98107 0.50928 0.0
H1504 H 0.26843 0.22361 0.70912 0.0
H1505 H 0.22081 0.23699 0.64836 0.0
H1506 H 0.21591 0.25806 0.70623 0.0
H1507 H 0.22488 0.27245 0.7749 0.0
H1508 H 0.272 0.25844 0.83706 0.0
H1509 H 0.27714 0.2376 0.7785 0.0
C1510 C 0.25691 0.23101 0.70873 0.0
C1511 C 0.2451 0.22878 0.67416 0.0
C1512 C 0.25401 0.24294 0.74257 0.0
C1513 C 0.23031 0.23866 0.67399 0.0
C1514 C 0.22741 0.25064 0.7073 0.0
C1515 C 0.2363 0.26488 0.77543 0.0
C1516 C 0.24801 0.26694 0.81024 0.0
C1517 C 0.23917 0.25289 0.74173 0.0
C1518 C 0.26269 0.25693 0.81086 0.0
C1519 C 0.26569 0.24508 0.77728 0.0
H1520 H 0.003 0.99567 0.91147 0.0
H1521 H 0.03977 0.01478 0.00505 0.0
H1522 H 0.01969 0.01098 0.06624 0.0
H1523 H 0.99168 0.00252 0.09282 0.0
H1524 H 0.95501 0.9829 -0.0004 0.0
H1525 H 0.97501 0.98687 0.93833 0.0
C1526 C 0.00653 0.99918 0.94521 0.0
C1527 C 0.02279 0.00559 0.95377 0.0
C1528 C 0.99498 0.99685 0.98018 0.0
C1529 C 0.02734 0.00976 0.99772 0.0
C1530 C 0.01587 0.00762 0.03265 0.0
C1531 C 0.98814 0.99885 0.05922 0.0
C1532 C 0.9719 0.99233 0.05086 0.0
C1533 C -0.00031 0.00111 0.02427 0.0
C1534 C 0.96739 0.98804 0.00691 0.0
C1535 C 0.97882 0.99027 0.97189 0.0
H1536 H 0.76354 0.71893 0.77723 0.0
H1537 H 0.72098 0.7454 0.834 0.0
H1538 H 0.72425 0.7679 0.77884 0.0
H1539 H 0.73872 0.77959 0.71304 0.0
H1540 H 0.78054 0.75249 0.65488 0.0
H1541 H 0.77795 0.73054 0.71187 0.0
C1542 C 0.75482 0.7295 0.7772 0.0
C1543 C 0.74194 0.73041 0.80947 0.0
C1544 C 0.75668 0.74228 0.74525 0.0
C1545 C 0.73104 0.74443 0.80966 0.0
C1546 C 0.73288 0.75727 0.77807 0.0
C1547 C 0.74739 0.76898 0.71331 0.0
C1548 C 0.75985 0.76764 0.68009 0.0
C1549 C 0.74564 0.75631 0.74568 0.0
C1550 C 0.77083 0.75372 0.68016 0.0
C1551 C 0.76934 0.74119 0.71265 0.0
H1552 H 0.73543 0.25711 0.32708 0.0
H1553 H 0.78536 0.27367 0.28932 0.0
H1554 H 0.78541 0.25364 0.2272 0.0
H1555 H 0.7711 0.23179 0.18316 0.0
H1556 H 0.72148 0.2147 0.22221 0.0
H1557 H 0.72148 0.23465 0.28445 0.0
C1558 C 0.74643 0.25618 0.30568 0.0
C1559 C 0.7604 0.26684 0.31294 0.0
C1560 C 0.74639 0.24462 0.27019 0.0
C1561 C 0.7744 0.26572 0.28424 0.0
C1562 C 0.77446 0.25423 0.24884 0.0
C1563 C 0.76037 0.23226 0.20562 0.0
C1564 C 0.74632 0.22173 0.19806 0.0
C1565 C 0.7605 0.24366 0.24145 0.0
C1566 C 0.73237 0.22278 0.22696 0.0
C1567 C 0.73241 0.23411 0.26269 0.0
H1568 H 0.7318 0.22979 0.80814 0.0
H1569 H 0.78605 0.23037 0.79484 0.0
H1570 H 0.78402 0.25283 0.73905 0.0
H1571 H 0.7668 0.27184 0.69336 0.0
H1572 H 0.71255 0.27196 0.70833 0.0
H1573 H 0.71459 0.24943 0.76373 0.0
C1574 C 0.74315 0.23475 0.79268 0.0
C1575 C 0.75904 0.22838 0.80522 0.0
C1576 C 0.74188 0.24773 0.76101 0.0
C1577 C 0.77369 0.23513 0.78571 0.0
C1578 C 0.77253 0.24793 0.75382 0.0
C1579 C 0.75542 0.26716 0.70922 0.0
C1580 C 0.73955 0.27364 0.69672 0.0
C1581 C 0.75669 0.25433 0.74128 0.0
C1582 C 0.72492 0.2671 0.71695 0.0
C1583 C 0.72607 0.25426 0.74877 0.0
H1584 H 0.73325 0.72521 0.19136 0.0
H1585 H 0.78701 0.7339 0.18534 0.0
H1586 H 0.78427 0.75709 0.23891 0.0
H1587 H 0.76665 0.77442 0.2885 0.0
H1588 H 0.7129 0.76562 0.29452 0.0
H1589 H 0.71561 0.74273 0.24017 0.0
C1590 C 0.7444 0.73205 0.20219 0.0
C1591 C 0.76034 0.72776 0.18473 0.0
C1592 C 0.74272 0.74533 0.23284 0.0
C1593 C 0.77461 0.737 0.19823 0.0
C1594 C 0.77305 0.75022 0.22888 0.0
C1595 C 0.75549 0.76766 0.2774 0.0
C1596 C 0.73958 0.77175 0.29534 0.0
C1597 C 0.75716 0.75449 0.24636 0.0
C1598 C 0.72529 0.76264 0.28136 0.0
C1599 C 0.72683 0.74958 0.25028 0.0
H1600 H 0.50215 0.48381 0.10204 0.0
H1601 H 0.53998 0.50699 0.01858 0.0
H1602 H 0.51928 0.51035 0.95866 0.0
H1603 H 0.49025 0.50726 0.93068 0.0
H1604 H 0.45267 0.48299 0.01246 0.0
H1605 H 0.47336 0.47963 0.0728 0.0
C1606 C 0.50582 0.48956 0.07065 0.0
C1607 C 0.52251 0.49518 0.06462 0.0
C1608 C 0.49388 0.49139 0.03638 0.0
C1609 C 0.52722 0.50243 0.02373 0.0
C1610 C 0.51538 0.50447 0.98965 0.0
C1611 C 0.48663 0.50135 0.96192 0.0
C1612 C 0.47002 0.49557 0.96771 0.0
C1613 C 0.49865 0.49913 0.99577 0.0
C1614 C 0.46543 0.4876 0.0077 0.0
C1615 C 0.47723 0.48567 0.04201 0.0
H1616 H 0.01405 0.47526 0.44158 0.0
H1617 H 0.03033 0.527 0.45705 0.0
H1618 H 0.00895 0.53148 0.51431 0.0
H1619 H 0.98523 0.52092 0.55912 0.0
H1620 H 0.9685 0.46944 0.54221 0.0
H1621 H 0.99005 0.46487 0.48523 0.0
C1622 C 0.01284 0.48757 0.45712 0.0
C1623 C 0.02389 0.50071 0.44505 0.0
C1624 C 0.00028 0.49019 0.48941 0.0
C1625 C 0.02226 0.51652 0.4662 0.0
C1626 C 0.00991 0.51917 0.49869 0.0
C1627 C 0.98635 0.5087 0.54302 0.0
C1628 C 0.97525 0.49558 0.55474 0.0
C1629 C 0.99883 0.50611 0.51049 0.0
C1630 C 0.97672 0.47984 0.53328 0.0
C1631 C 0.98913 0.47717 0.50097 0.0
H1632 H 0.03911 0.49868 0.00356 0.0
H1633 H 0.00485 0.50494 0.1145 0.0
H1634 H 0.98091 0.49899 0.06596 0.0
H1635 H 0.9696 0.49196 0.99215 0.0
H1636 H 0.00372 0.48514 0.88134 0.0
H1637 H 0.02782 0.49068 0.93011 0.0
C1638 C 0.02643 0.49864 0.01722 0.0
C1639 C 0.02383 0.50251 0.06255 0.0
C1640 C 0.01268 0.49486 0.98929 0.0
C1641 C 0.00725 0.50248 0.07952 0.0
C1642 C 0.99353 0.49888 0.05189 0.0
C1643 C 0.98231 0.4917 0.97868 0.0
C1644 C 0.98484 0.48815 0.93321 0.0
C1645 C 0.99609 0.4951 0.00674 0.0
C1646 C 0.00142 0.48761 0.91637 0.0
C1647 C 0.01521 0.49094 0.94413 0.0
H1648 H 0.48912 0.5139 0.58707 0.0
H1649 H 0.4653 0.47088 0.52491 0.0
H1650 H 0.48459 0.47315 0.46138 0.0
H1651 H 0.50871 0.48686 0.42488 0.0
H1652 H 0.5323 0.53008 0.48693 0.0
H1653 H 0.51278 0.528 0.5498 0.0
C1654 C 0.48825 0.50493 0.55977 0.0
C1655 C 0.47591 0.49216 0.56077 0.0
C1656 C 0.49936 0.5063 0.52357 0.0
C1657 C 0.47466 0.48086 0.52476 0.0
C1658 C 0.48572 0.48212 0.48858 0.0
C1659 C 0.50944 0.49598 0.45185 0.0
C1660 C 0.52195 0.50861 0.45121 0.0
C1661 C 0.49814 0.49476 0.48773 0.0
C1662 C 0.52292 0.52012 0.48685 0.0
C1663 C 0.51172 0.51899 0.52269 0.0
H1664 H 0.12476 0.41756 0.12588 0.0
H1665 H 0.16327 0.43515 0.21687 0.0
H1666 H 0.18325 0.41489 0.18592 0.0
H1667 H 0.19019 0.393 0.13136 0.0
H1668 H 0.1522 0.37572 0.03874 0.0
H1669 H 0.13173 0.3954 0.0712 0.0
C1670 C 0.13755 0.41703 0.13878 0.0
C1671 C 0.14244 0.42785 0.17383 0.0
C1672 C 0.14911 0.40552 0.1203 0.0
C1673 C 0.15902 0.4268 0.19051 0.0
C1674 C 0.17053 0.41531 0.17257 0.0
C1675 C 0.17737 0.39337 0.11863 0.0
C1676 C 0.17269 0.38285 0.08286 0.0
C1677 C 0.16574 0.40468 0.13736 0.0
C1678 C 0.15614 0.38377 0.06608 0.0
C1679 C 0.14442 0.39496 0.08475 0.0
H1680 H 0.81944 0.9065 0.45642 0.0
H1681 H 0.82942 0.86741 0.35953 0.0
H1682 H 0.85058 0.88528 0.32366 0.0
H1683 H 0.86552 0.91247 0.31816 0.0
H1684 H 0.85477 0.95176 0.41395 0.0
H1685 H 0.83467 0.93338 0.45179 0.0
C1686 C 0.8262 0.90192 0.42735 0.0
C1687 C 0.82281 0.88567 0.41063 0.0
C1688 C 0.83821 0.91231 0.40662 0.0
C1689 C 0.83191 0.8798 0.3734 0.0
C1690 C 0.84392 0.89006 0.35265 0.0
C1691 C 0.85873 0.917 0.34723 0.0
C1692 C 0.86168 0.93345 0.3632 0.0
C1693 C 0.84706 0.9064 0.3687 0.0
C1694 C 0.85294 0.93908 0.40128 0.0
C1695 C 0.84135 0.92861 0.42281 0.0
H1696 H 0.31751 0.61354 0.65558 0.0
H1697 H 0.3355 0.6015 0.52326 0.0
H1698 H 0.35612 0.58198 0.55482 0.0
H1699 H 0.3683 0.56761 0.61953 0.0
H1700 H 0.35145 0.58076 0.75214 0.0
H1701 H 0.33114 0.60068 0.7207 0.0
C1702 C 0.32612 0.6069 0.63359 0.0
C1703 C 0.32484 0.60896 0.58703 0.0
C1704 C 0.3381 0.59583 0.65196 0.0
C1705 C 0.33595 0.59996 0.55915 0.0
C1706 C 0.34784 0.58886 0.57717 0.0
C1707 C 0.36045 0.57505 0.64172 0.0
C1708 C 0.36142 0.57262 0.6882 0.0
C1709 C 0.34892 0.5866 0.62349 0.0
C1710 C 0.35083 0.58216 0.71623 0.0
C1711 C 0.33926 0.59363 0.69829 0.0
H1712 H 0.69357 0.09132 0.90961 0.0
H1713 H 0.66088 0.13434 0.8911 0.0
H1714 H 0.6405 0.11663 0.85132 0.0
H1715 H 0.63207 0.0889 0.82152 0.0
H1716 H 0.66476 0.0459 0.84128 0.0
H1717 H 0.68508 0.06366 0.8805 0.0
C1718 C 0.68188 0.09677 0.89736 0.0
C1719 C 0.67869 0.11409 0.90353 0.0
C1720 C 0.67029 0.08655 0.87438 0.0
C1721 C 0.66366 0.12105 0.88659 0.0
C1722 C 0.652 0.11093 0.86393 0.0
C1723 C 0.6436 0.0834 0.83461 0.0
C1724 C 0.6469 0.06609 0.82821 0.0
C1725 C 0.6552 0.09367 0.85754 0.0
C1726 C 0.66201 0.05922 0.84497 0.0
C1727 C 0.67359 0.06934 0.86777 0.0
H1728 H 0.15616 0.55468 0.37459 0.0
H1729 H 0.13 0.59197 0.29573 0.0
H1730 H 0.14706 0.6144 0.32957 0.0
H1731 H 0.16898 0.62335 0.38278 0.0
H1732 H 0.196 0.58557 0.45853 0.0
H1733 H 0.1786 0.56349 0.42578 0.0
C1734 C 0.15415 0.56774 0.36498 0.0
C1735 C 0.14182 0.5717 0.33291 0.0
C1736 C 0.16399 0.5805 0.38444 0.0
C1737 C 0.13953 0.58862 0.32014 0.0
C1738 C 0.14919 0.60144 0.33967 0.0
C1739 C 0.1712 0.61029 0.39189 0.0
C1740 C 0.18373 0.60625 0.42358 0.0
C1741 C 0.16143 0.59752 0.37198 0.0
C1742 C 0.1862 0.58921 0.43522 0.0
C1743 C 0.17637 0.57649 0.4161 0.0
H1744 H 0.65006 0.91993 0.70705 0.0
H1745 H 0.6283 0.93673 0.58266 0.0
H1746 H 0.64687 0.91775 0.54142 0.0
H1747 H 0.66976 0.89684 0.54038 0.0
H1748 H 0.69224 0.88077 0.66453 0.0
H1749 H 0.67295 0.89898 0.70601 0.0
C1750 C 0.64943 0.9195 0.67091 0.0
C1751 C 0.63775 0.92972 0.64809 0.0
C1752 C 0.66029 0.90868 0.64728 0.0
C1753 C 0.63697 0.92882 0.60122 0.0
C1754 C 0.64768 0.91806 0.57752 0.0
C1755 C 0.67051 0.8974 0.57649 0.0
C1756 C 0.68242 0.88744 0.59924 0.0
C1757 C 0.65946 0.90801 0.60017 0.0
C1758 C 0.68304 0.88813 0.64614 0.0
C1759 C 0.67208 0.89862 0.66992 0.0
H1760 H 0.3436 0.44495 0.86712 0.0
H1761 H 0.36247 0.40748 0.77512 0.0
H1762 H 0.3438 0.38628 0.80806 0.0
H1763 H 0.3223 0.37841 0.86332 0.0
H1764 H 0.30281 0.41625 0.95348 0.0
H1765 H 0.32166 0.43728 0.92101 0.0
C1766 C 0.34346 0.43221 0.85381 0.0
C1767 C 0.35435 0.42783 0.81856 0.0
C1768 C 0.3327 0.42013 0.8728 0.0
C1769 C 0.35429 0.41115 0.80243 0.0
C1770 C 0.34359 0.39904 0.82115 0.0
C1771 C 0.32205 0.39129 0.8756 0.0
C1772 C 0.31116 0.39571 0.91087 0.0
C1773 C 0.33277 0.40339 0.85641 0.0
C1774 C 0.31124 0.41241 0.92687 0.0
C1775 C 0.32192 0.4245 0.90808 0.0
H1776 H 0.81247 0.11061 0.14422 0.0
H1777 H 0.83874 0.10613 0.01849 0.0
H1778 H 0.85964 0.08763 0.05323 0.0
H1779 H 0.87006 0.07223 0.11897 0.0
H1780 H 0.84432 0.07779 0.24511 0.0
H1781 H 0.82372 0.09662 0.21052 0.0
C1782 C 0.82292 0.10586 0.12445 0.0
C1783 C 0.82399 0.10981 0.07873 0.0
C1784 C 0.83499 0.09542 0.14472 0.0
C1785 C 0.83743 0.10314 0.05357 0.0
C1786 C 0.84947 0.09265 0.07349 0.0
C1787 C 0.86013 0.0778 0.13909 0.0
C1788 C 0.85873 0.07358 0.18458 0.0
C1789 C 0.84833 0.08865 0.11901 0.0
C1790 C 0.84558 0.08067 0.20994 0.0
C1791 C 0.83382 0.09147 0.19022 0.0
H1792 H 0.83369 0.60234 0.95173 0.0
H1793 H 0.80846 0.61252 0.82684 0.0
H1794 H 0.8271 0.59271 0.78868 0.0
H1795 H 0.85019 0.57207 0.79084 0.0
H1796 H 0.87433 0.5607 0.91651 0.0
H1797 H 0.85651 0.5814 0.95409 0.0
C1798 C 0.83218 0.60015 0.91623 0.0
C1799 C 0.81971 0.60898 0.89228 0.0
C1800 C 0.84277 0.58853 0.89452 0.0
C1801 C 0.81813 0.60614 0.84609 0.0
C1802 C 0.8287 0.5947 0.82422 0.0
C1803 C 0.85147 0.57401 0.82651 0.0
C1804 C 0.86364 0.56484 0.85067 0.0
C1805 C 0.841 0.58576 0.84813 0.0
C1806 C 0.86528 0.56775 0.89682 0.0
C1807 C 0.85501 0.57951 0.91848 0.0
H1808 H 0.19029 0.10155 0.6294 0.0
H1809 H 0.15485 0.11146 0.52304 0.0
H1810 H 0.1335 0.09448 0.56115 0.0
H1811 H 0.12531 0.07579 0.62324 0.0
H1812 H 0.16138 0.06469 0.727 0.0
H1813 H 0.1822 0.08302 0.69105 0.0
C1814 C 0.17798 0.09985 0.61418 0.0
C1815 C 0.17425 0.1077 0.57321 0.0
C1816 C 0.16588 0.08985 0.63585 0.0
C1817 C 0.15804 0.10569 0.55469 0.0
C1818 C 0.14585 0.09591 0.57636 0.0
C1819 C 0.13767 0.07759 0.63816 0.0
C1820 C 0.14184 0.06901 0.6777 0.0
C1821 C 0.14966 0.08786 0.61682 0.0
C1822 C 0.15795 0.07117 0.69648 0.0
C1823 C 0.16983 0.08162 0.67595 0.0
H1824 H 0.6883 0.40761 0.42091 0.0
H1825 H 0.65751 0.36524 0.3812 0.0
H1826 H 0.63824 0.38425 0.34186 0.0
H1827 H 0.63041 0.41287 0.31792 0.0
H1828 H 0.66109 0.45526 0.35844 0.0
H1829 H 0.68025 0.43627 0.39785 0.0
C1830 C 0.67724 0.40259 0.40415 0.0
C1831 C 0.67426 0.38508 0.40414 0.0
C1832 C 0.66632 0.41356 0.38132 0.0
C1833 C 0.66008 0.37868 0.38151 0.0
C1834 C 0.64907 0.38953 0.35906 0.0
C1835 C 0.64123 0.41796 0.33559 0.0
C1836 C 0.64434 0.43545 0.33502 0.0
C1837 C 0.65211 0.40698 0.35856 0.0
C1838 C 0.65855 0.44182 0.35765 0.0
C1839 C 0.66944 0.43099 0.38055 0.0
H1840 H 0.35515 0.9174 0.20315 0.0
H1841 H 0.36567 0.9429 0.07901 0.0
H1842 H 0.34655 0.92387 0.03964 0.0
H1843 H 0.3264 0.9003 0.04053 0.0
H1844 H 0.31544 0.87507 0.16475 0.0
H1845 H 0.33517 0.89359 0.20388 0.0
C1846 C 0.35319 0.91882 0.16752 0.0
C1847 C 0.36186 0.93152 0.14409 0.0
C1848 C 0.34211 0.90786 0.14504 0.0
C1849 C 0.35935 0.93307 0.09779 0.0
C1850 C 0.34833 0.92226 0.07525 0.0
C1851 C 0.32828 0.89891 0.07619 0.0
C1852 C 0.31946 0.88632 0.09963 0.0
C1853 C 0.33959 0.90966 0.09855 0.0
C1854 C 0.32222 0.88452 0.14576 0.0
C1855 C 0.33342 0.89518 0.16825 0.0
H1856 H 0.81152 0.38316 0.64607 0.0
H1857 H 0.82656 0.39842 0.51354 0.0
H1858 H 0.84749 0.41759 0.54523 0.0
H1859 H 0.86126 0.43024 0.61027 0.0
H1860 H 0.84756 0.4137 0.74271 0.0
H1861 H 0.82634 0.39477 0.71112 0.0
C1862 C 0.81954 0.39045 0.62399 0.0
C1863 C 0.81739 0.38931 0.57739 0.0
C1864 C 0.83174 0.40128 0.64238 0.0
C1865 C 0.8277 0.39919 0.5495 0.0
C1866 C 0.83977 0.41009 0.56758 0.0
C1867 C 0.85387 0.4223 0.63233 0.0
C1868 C 0.85609 0.42342 0.67889 0.0
C1869 C 0.84187 0.41126 0.61395 0.0
C1870 C 0.84602 0.4133 0.70681 0.0
C1871 C 0.83394 0.40238 0.68876 0.0
H1872 H 0.31077 0.11341 0.34285 0.0
H1873 H 0.32853 0.10087 0.47484 0.0
H1874 H 0.34967 0.08184 0.44287 0.0
H1875 H 0.3627 0.0684 0.37748 0.0
H1876 H 0.3445 0.08036 0.24556 0.0
H1877 H 0.32391 0.10005 0.27738 0.0
C1878 C 0.3194 0.10663 0.36455 0.0
C1879 C 0.31817 0.10858 0.4111 0.0
C1880 C 0.33137 0.09561 0.34596 0.0
C1881 C 0.32919 0.0995 0.43891 0.0
C1882 C 0.34129 0.08867 0.42066 0.0
C1883 C 0.35434 0.07547 0.35571 0.0
C1884 C 0.35516 0.07304 0.30925 0.0
C1885 C 0.34245 0.08659 0.37426 0.0
C1886 C 0.34404 0.082 0.28144 0.0
C1887 C 0.33232 0.09327 0.2996 0.0
H1888 H 0.65569 0.55624 0.14474 0.0
H1889 H 0.62696 0.59676 0.2041 0.0
H1890 H 0.64485 0.61752 0.16663 0.0
H1891 H 0.66868 0.62412 0.11714 0.0
H1892 H 0.69806 0.58346 0.06046 0.0
H1893 H 0.67977 0.56281 0.09649 0.0
C1894 C 0.65348 0.56961 0.15 0.0
C1895 C 0.64007 0.57493 0.1774 0.0
C1896 C 0.66384 0.58146 0.12853 0.0
C1897 C 0.63713 0.59232 0.18297 0.0
C1898 C 0.64738 0.6042 0.16166 0.0
C1899 C 0.67117 0.61075 0.11292 0.0
C1900 C 0.68472 0.6054 0.08596 0.0
C1901 C 0.66077 0.59891 0.13436 0.0
C1902 C 0.68757 0.58799 0.08033 0.0
C1903 C 0.67721 0.57614 0.10127 0.0
H1904 H 0.19119 0.91122 0.92797 0.0
H1905 H 0.16353 0.86633 0.89126 0.0
H1906 H 0.14264 0.88356 0.85227 0.0
H1907 H 0.13262 0.91138 0.82681 0.0
H1908 H 0.16074 0.95609 0.86265 0.0
H1909 H 0.18133 0.93886 0.90248 0.0
C1910 C 0.18069 0.90517 0.91113 0.0
C1911 C 0.17897 0.88749 0.91261 0.0
C1912 C 0.16888 0.91511 0.88813 0.0
C1913 C 0.16506 0.87992 0.89128 0.0
C1914 C 0.15317 0.88975 0.86861 0.0
C1915 C 0.14322 0.91734 0.84353 0.0
C1916 C 0.14519 0.93499 0.84147 0.0
C1917 C 0.15499 0.90736 0.86665 0.0
C1918 C 0.15907 0.94251 0.86299 0.0
C1919 C 0.17079 0.93268 0.8861 0.0
loop_
_geom_bond_atom_site_label_1
_geom_bond_atom_site_label_2
_geom_bond_distance
_geom_bond_site_symmetry_2
_ccdc_geom_bond_type
Li0 N17 1.990 . S
Li0 O60 1.956 1_554 S
Li0 O61 1.970 . S
Li0 O62 1.961 . S
Li1 N25 1.990 . S
Li1 O60 1.970 . S
Li1 O61 1.956 1_556 S
Li1 O63 1.961 . S
Li2 N47 1.990 . S
Li2 O60 1.961 . S
Li2 O62 1.956 1_556 S
Li2 O63 1.970 . S
Li3 N53 1.990 . S
Li3 O61 1.961 . S
Li3 O62 1.970 . S
Li3 O63 1.956 1_554 S
C4 C6 1.348 . S
C4 C7 1.356 . S
C4 O60 1.325 . S
N5 C8 1.314 . S
N5 C9 1.279 . S
C6 C4 1.348 . S
C6 C8 1.353 . S
C6 H64 0.929 . S
C7 C4 1.356 . S
C7 C9 1.358 . S
C7 H65 0.930 . S
C8 N5 1.314 . S
C8 C6 1.353 . S
C8 H66 0.930 . S
C9 N5 1.279 . S
C9 C7 1.358 . S
C9 H67 0.930 . S
C10 C13 1.348 . S
C10 C14 1.356 . S
C10 O61 1.325 . S
C11 N12 1.279 . S
C11 C14 1.358 . S
C11 H68 0.930 . S
N12 C11 1.279 . S
N12 C15 1.314 . S
C13 C10 1.348 . S
C13 C15 1.353 . S
C13 H69 0.929 . S
C14 C10 1.356 . S
C14 C11 1.358 . S
C14 H70 0.930 . S
C15 N12 1.314 . S
C15 C13 1.353 . S
C15 H71 0.930 . S
C16 N17 1.314 . S
C16 C21 1.353 . S
C16 H22 0.930 . S
N17 Li0 1.990 . S
N17 C16 1.314 . S
N17 C19 1.279 1_554 S
C18 C19 1.358 1_554 S
C18 C20 1.356 . S
C18 H72 0.930 1_554 S
C19 N17 1.279 1_556 S
C19 C18 1.358 1_556 S
C19 H23 0.930 . S
C20 C18 1.356 . S
C20 C21 1.348 . S
C21 C16 1.353 . S
C21 C20 1.348 . S
C21 H73 0.929 . S
H22 C16 0.930 . S
H23 C19 0.930 . S
C24 N25 1.314 . S
C24 C26 1.353 . S
C24 H30 0.930 . S
N25 Li1 1.990 . S
N25 C24 1.314 . S
N25 C28 1.279 1_556 S
C26 C24 1.353 . S
C26 C29 1.348 . S
C26 H74 0.929 . S
C27 C28 1.358 1_556 S
C27 C29 1.356 . S
C27 H75 0.930 1_556 S
C28 N25 1.279 1_554 S
C28 C27 1.358 1_554 S
C28 H31 0.930 . S
C29 C26 1.348 . S
C29 C27 1.356 . S
H30 C24 0.930 . S
H31 C28 0.930 . S
C32 C34 1.348 . S
C32 C35 1.356 . S
C32 O62 1.325 . S
N33 C36 1.314 . S
N33 C37 1.279 . S
C34 C32 1.348 . S
C34 C36 1.353 . S
C34 H76 0.929 . S
C35 C32 1.356 . S
C35 C37 1.358 . S
C35 H77 0.930 1_554 S
C36 N33 1.314 . S
C36 C34 1.353 . S
C36 H78 0.930 . S
C37 N33 1.279 . S
C37 C35 1.358 . S
C37 H79 0.930 1_554 S
C38 C39 1.348 . S
C38 C40 1.356 . S
C38 O63 1.325 . S
C39 C38 1.348 . S
C39 C41 1.353 . S
C39 H80 0.929 . S
C40 C38 1.356 . S
C40 C42 1.358 . S
C40 H81 0.930 1_556 S
C41 C39 1.353 . S
C41 N43 1.314 . S
C41 H82 0.930 . S
C42 C40 1.358 . S
C42 N43 1.279 . S
C42 H83 0.930 1_556 S
N43 C41 1.314 . S
N43 C42 1.279 . S
C44 C46 1.353 . S
C44 N47 1.314 . S
C44 H50 0.930 . S
C45 N47 1.279 . S
C45 C48 1.358 . S
C45 H51 0.930 . S
C46 C44 1.353 . S
C46 C49 1.348 . S
C46 H84 0.929 . S
N47 Li2 1.990 . S
N47 C44 1.314 . S
N47 C45 1.279 . S
C48 C45 1.358 . S
C48 C49 1.356 . S
C48 H85 0.930 . S
C49 C46 1.348 . S
C49 C48 1.356 . S
H50 C44 0.930 . S
H51 C45 0.930 . S
C52 N53 1.314 . S
C52 C54 1.353 . S
C52 H58 0.930 . S
N53 Li3 1.990 . S
N53 C52 1.314 . S
N53 C56 1.279 . S
C54 C52 1.353 . S
C54 C57 1.348 . S
C54 H86 0.929 . S
C55 C56 1.358 . S
C55 C57 1.356 . S
C55 H87 0.930 . S
C56 N53 1.279 . S
C56 C55 1.358 . S
C56 H59 0.930 . S
C57 C54 1.348 . S
C57 C55 1.356 . S
H58 C52 0.930 . S
H59 C56 0.930 . S
O60 Li0 1.956 1_556 S
O60 Li1 1.970 . S
O60 Li2 1.961 . S
O60 C4 1.325 . S
O61 Li0 1.970 . S
O61 Li1 1.956 1_554 S
O61 Li3 1.961 . S
O61 C10 1.325 . S
O62 Li0 1.961 . S
O62 Li2 1.956 1_554 S
O62 Li3 1.970 . S
O62 C32 1.325 . S
O63 Li1 1.961 . S
O63 Li2 1.970 . S
O63 Li3 1.956 1_556 S
O63 C38 1.325 . S
H64 C6 0.929 . S
H65 C7 0.930 . S
H66 C8 0.930 . S
H67 C9 0.930 . S
H68 C11 0.930 . S
H69 C13 0.929 . S
H70 C14 0.930 . S
H71 C15 0.930 . S
H72 C18 0.930 1_556 S
H73 C21 0.929 . S
H74 C26 0.929 . S
H75 C27 0.930 1_554 S
H76 C34 0.929 . S
H77 C35 0.930 1_556 S
H78 C36 0.930 . S
H79 C37 0.930 1_556 S
H80 C39 0.929 . S
H81 C40 0.930 1_554 S
H82 C41 0.930 . S
H83 C42 0.930 1_554 S
H84 C46 0.929 . S
H85 C48 0.930 . S
H86 C54 0.929 . S
H87 C55 0.930 . S
Li88 N105 1.990 . S
Li88 O148 1.956 . S
Li88 O149 1.970 1_565 S
Li88 O150 1.961 . S
Li89 N113 1.990 . S
Li89 O148 1.970 1_545 S
Li89 O149 1.956 . S
Li89 O151 1.961 . S
Li90 N135 1.990 . S
Li90 O148 1.961 . S
Li90 O150 1.956 . S
Li90 O151 1.970 1_565 S
Li91 N141 1.990 . S
Li91 O149 1.961 . S
Li91 O150 1.970 1_545 S
Li91 O151 1.956 . S
C92 C94 1.348 . S
C92 C95 1.356 . S
C92 O148 1.325 . S
N93 C96 1.314 . S
N93 C97 1.279 . S
C94 C92 1.348 . S
C94 C96 1.353 . S
C94 H152 0.929 . S
C95 C92 1.356 . S
C95 C97 1.358 . S
C95 H153 0.930 . S
C96 N93 1.314 . S
C96 C94 1.353 . S
C96 H154 0.930 . S
C97 N93 1.279 . S
C97 C95 1.358 . S
C97 H155 0.930 . S
C98 C101 1.348 . S
C98 C102 1.356 . S
C98 O149 1.325 . S
C99 N100 1.279 . S
C99 C102 1.358 . S
C99 H156 0.930 . S
N100 C99 1.279 . S
N100 C103 1.314 . S
C101 C98 1.348 . S
C101 C103 1.353 . S
C101 H157 0.929 . S
C102 C98 1.356 . S
C102 C99 1.358 . S
C102 H158 0.930 . S
C103 N100 1.314 . S
C103 C101 1.353 . S
C103 H159 0.930 . S
C104 N105 1.314 . S
C104 C109 1.353 . S
C104 H110 0.930 1_565 S
N105 Li88 1.990 . S
N105 C104 1.314 . S
N105 C107 1.279 . S
C106 C107 1.358 . S
C106 C108 1.356 . S
C106 H160 0.930 . S
C107 N105 1.279 . S
C107 C106 1.358 . S
C107 H111 0.930 . S
C108 C106 1.356 . S
C108 C109 1.348 . S
C109 C104 1.353 . S
C109 C108 1.348 . S
C109 H161 0.929 . S
H110 C104 0.930 1_545 S
H111 C107 0.930 . S
C112 N113 1.314 . S
C112 C114 1.353 . S
C112 H118 0.930 1_545 S
N113 Li89 1.990 . S
N113 C112 1.314 . S
N113 C116 1.279 . S
C114 C112 1.353 . S
C114 C117 1.348 . S
C114 H162 0.929 . S
C115 C116 1.358 . S
C115 C117 1.356 . S
C115 H163 0.930 . S
C116 N113 1.279 . S
C116 C115 1.358 . S
C116 H119 0.930 . S
C117 C114 1.348 . S
C117 C115 1.356 . S
H118 C112 0.930 1_565 S
H119 C116 0.930 . S
C120 C122 1.332 1_565 S
C120 C123 1.356 . S
C120 O150 1.325 . S
N121 C124 1.314 . S
N121 C125 1.279 . S
C122 C120 1.332 1_545 S
C122 C124 1.344 1_545 S
C122 H164 0.955 . S
C123 C120 1.356 . S
C123 C125 1.358 . S
C123 H165 0.930 . S
C124 N121 1.314 . S
C124 C122 1.344 1_565 S
C124 H166 0.930 1_565 S
C125 N121 1.279 . S
C125 C123 1.358 . S
C125 H167 0.930 . S
C126 C127 1.339 1_545 S
C126 C128 1.356 . S
C126 O151 1.325 . S
C127 C126 1.339 1_565 S
C127 C129 1.348 1_565 S
C127 H168 0.942 . S
C128 C126 1.356 . S
C128 C130 1.358 . S
C128 H169 0.930 . S
C129 C127 1.348 1_545 S
C129 N131 1.314 . S
C129 H170 0.930 1_545 S
C130 C128 1.358 . S
C130 N131 1.279 . S
C130 H171 0.930 . S
N131 C129 1.314 . S
N131 C130 1.279 . S
C132 C134 1.353 . S
C132 N135 1.314 . S
C132 H138 0.930 . S
C133 N135 1.279 . S
C133 C136 1.358 . S
C133 H139 0.930 . S
C134 C132 1.353 . S
C134 C137 1.348 . S
C134 H172 0.929 . S
N135 Li90 1.990 . S
N135 C132 1.314 . S
N135 C133 1.279 . S
C136 C133 1.358 . S
C136 C137 1.356 . S
C136 H173 0.930 . S
C137 C134 1.348 . S
C137 C136 1.356 . S
H138 C132 0.930 . S
H139 C133 0.930 . S
C140 N141 1.314 . S
C140 C142 1.353 . S
C140 H146 0.930 . S
N141 Li91 1.990 . S
N141 C140 1.314 . S
N141 C144 1.279 . S
C142 C140 1.353 . S
C142 C145 1.348 . S
C142 H174 0.929 . S
C143 C144 1.358 . S
C143 C145 1.356 . S
C143 H175 0.930 . S
C144 N141 1.279 . S
C144 C143 1.358 . S
C144 H147 0.930 . S
C145 C142 1.348 . S
C145 C143 1.356 . S
H146 C140 0.930 . S
H147 C144 0.930 . S
O148 Li88 1.956 . S
O148 Li89 1.970 1_565 S
O148 Li90 1.961 . S
O148 C92 1.325 . S
O149 Li88 1.970 1_545 S
O149 Li89 1.956 . S
O149 Li91 1.961 . S
O149 C98 1.325 . S
O150 Li88 1.961 . S
O150 Li90 1.956 . S
O150 Li91 1.970 1_565 S
O150 C120 1.325 . S
O151 Li89 1.961 . S
O151 Li90 1.970 1_545 S
O151 Li91 1.956 . S
O151 C126 1.325 . S
H152 C94 0.929 . S
H153 C95 0.930 . S
H154 C96 0.930 . S
H155 C97 0.930 . S
H156 C99 0.930 . S
H157 C101 0.929 . S
H158 C102 0.930 . S
H159 C103 0.930 . S
H160 C106 0.930 . S
H161 C109 0.929 . S
H162 C114 0.929 . S
H163 C115 0.930 . S
H164 C122 0.955 . S
H165 C123 0.930 . S
H166 C124 0.930 1_545 S
H167 C125 0.930 . S
H168 C127 0.942 . S
H169 C128 0.930 . S
H170 C129 0.930 1_565 S
H171 C130 0.930 . S
H172 C134 0.929 . S
H173 C136 0.930 . S
H174 C142 0.929 . S
H175 C143 0.930 . S
Li176 N193 1.990 . S
Li176 O236 1.956 . S
Li176 O237 1.970 . S
Li176 O238 1.961 . S
Li177 N201 1.990 . S
Li177 O236 1.970 . S
Li177 O237 1.956 . S
Li177 O239 1.961 . S
Li178 N223 1.990 . S
Li178 O236 1.961 . S
Li178 O238 1.956 . S
Li178 O239 1.970 . S
Li179 N229 1.990 . S
Li179 O237 1.961 . S
Li179 O238 1.970 . S
Li179 O239 1.956 . S
C180 C182 1.348 . S
C180 C183 1.356 . S
C180 O236 1.325 . S
N181 C184 1.314 . S
N181 C185 1.279 . S
C182 C180 1.348 . S
C182 C184 1.353 . S
C182 H240 0.929 . S
C183 C180 1.356 . S
C183 C185 1.358 . S
C183 H241 0.930 . S
C184 N181 1.314 . S
C184 C182 1.353 . S
C184 H242 0.930 . S
C185 N181 1.279 . S
C185 C183 1.358 . S
C185 H243 0.930 . S
C186 C189 1.348 . S
C186 C190 1.356 . S
C186 O237 1.325 . S
C187 N188 1.279 . S
C187 C190 1.358 . S
C187 H244 0.930 . S
N188 C187 1.279 . S
N188 C191 1.314 . S
C189 C186 1.348 . S
C189 C191 1.353 . S
C189 H245 0.929 . S
C190 C186 1.356 . S
C190 C187 1.358 . S
C190 H246 0.930 . S
C191 N188 1.314 . S
C191 C189 1.353 . S
C191 H247 0.930 . S
C192 N193 1.314 . S
C192 C197 1.353 . S
C192 H198 0.930 . S
N193 Li176 1.990 . S
N193 C192 1.314 . S
N193 C195 1.279 . S
C194 C195 1.358 . S
C194 C196 1.356 . S
C194 H248 0.930 . S
C195 N193 1.279 . S
C195 C194 1.358 . S
C195 H199 0.930 . S
C196 C194 1.356 . S
C196 C197 1.348 . S
C197 C192 1.353 . S
C197 C196 1.348 . S
C197 H249 0.929 . S
H198 C192 0.930 . S
H199 C195 0.930 . S
C200 N201 1.314 . S
C200 C202 1.353 . S
C200 H206 0.930 . S
N201 Li177 1.990 . S
N201 C200 1.314 . S
N201 C204 1.279 . S
C202 C200 1.353 . S
C202 C205 1.348 . S
C202 H250 0.929 . S
C203 C204 1.358 . S
C203 C205 1.356 . S
C203 H251 0.930 . S
C204 N201 1.279 . S
C204 C203 1.358 . S
C204 H207 0.930 . S
C205 C202 1.348 . S
C205 C203 1.356 . S
H206 C200 0.930 . S
H207 C204 0.930 . S
C208 C210 1.348 . S
C208 C211 1.356 . S
C208 O238 1.325 . S
N209 C212 1.314 . S
N209 C213 1.279 . S
C210 C208 1.348 . S
C210 C212 1.353 . S
C210 H252 0.929 . S
C211 C208 1.356 . S
C211 C213 1.358 . S
C211 H253 0.930 . S
C212 N209 1.314 . S
C212 C210 1.353 . S
C212 H254 0.930 . S
C213 N209 1.279 . S
C213 C211 1.358 . S
C213 H255 0.930 . S
C214 C215 1.348 . S
C214 C216 1.356 . S
C214 O239 1.325 . S
C215 C214 1.348 . S
C215 C217 1.353 . S
C215 H256 0.929 . S
C216 C214 1.356 . S
C216 C218 1.358 . S
C216 H257 0.930 . S
C217 C215 1.353 . S
C217 N219 1.314 . S
C217 H258 0.930 . S
C218 C216 1.358 . S
C218 N219 1.279 . S
C218 H259 0.930 . S
N219 C217 1.314 . S
N219 C218 1.279 . S
C220 C222 1.353 . S
C220 N223 1.314 . S
C220 H226 0.930 . S
C221 N223 1.279 . S
C221 C224 1.358 . S
C221 H227 0.930 . S
C222 C220 1.353 . S
C222 C225 1.348 . S
C222 H260 0.929 . S
N223 Li178 1.990 . S
N223 C220 1.314 . S
N223 C221 1.279 . S
C224 C221 1.358 . S
C224 C225 1.356 . S
C224 H261 0.930 . S
C225 C222 1.348 . S
C225 C224 1.356 . S
H226 C220 0.930 . S
H227 C221 0.930 . S
C228 N229 1.314 . S
C228 C230 1.353 . S
C228 H234 0.930 . S
N229 Li179 1.990 . S
N229 C228 1.314 . S
N229 C232 1.279 . S
C230 C228 1.353 . S
C230 C233 1.348 . S
C230 H262 0.929 . S
C231 C232 1.358 . S
C231 C233 1.356 . S
C231 H263 0.930 . S
C232 N229 1.279 . S
C232 C231 1.358 . S
C232 H235 0.930 . S
C233 C230 1.348 . S
C233 C231 1.356 . S
H234 C228 0.930 . S
H235 C232 0.930 . S
O236 Li176 1.956 . S
O236 Li177 1.970 . S
O236 Li178 1.961 . S
O236 C180 1.325 . S
O237 Li176 1.970 . S
O237 Li177 1.956 . S
O237 Li179 1.961 . S
O237 C186 1.325 . S
O238 Li176 1.961 . S
O238 Li178 1.956 . S
O238 Li179 1.970 . S
O238 C208 1.325 . S
O239 Li177 1.961 . S
O239 Li178 1.970 . S
O239 Li179 1.956 . S
O239 C214 1.325 . S
H240 C182 0.929 . S
H241 C183 0.930 . S
H242 C184 0.930 . S
H243 C185 0.930 . S
H244 C187 0.930 . S
H245 C189 0.929 . S
H246 C190 0.930 . S
H247 C191 0.930 . S
H248 C194 0.930 . S
H249 C197 0.929 . S
H250 C202 0.929 . S
H251 C203 0.930 . S
H252 C210 0.929 . S
H253 C211 0.930 . S
H254 C212 0.930 . S
H255 C213 0.930 . S
H256 C215 0.929 . S
H257 C216 0.930 . S
H258 C217 0.930 . S
H259 C218 0.930 . S
H260 C222 0.929 . S
H261 C224 0.930 . S
H262 C230 0.929 . S
H263 C231 0.930 . S
Li264 N281 1.990 . S
Li264 O324 1.956 . S
Li264 O325 1.970 1_565 S
Li264 O326 1.961 . S
Li265 N289 1.990 . S
Li265 O324 1.970 1_545 S
Li265 O325 1.956 . S
Li265 O327 1.961 . S
Li266 N311 1.990 . S
Li266 O324 1.961 . S
Li266 O326 1.956 . S
Li266 O327 1.970 1_565 S
Li267 N317 1.990 . S
Li267 O325 1.961 . S
Li267 O326 1.970 1_545 S
Li267 O327 1.956 . S
C268 C270 1.332 1_565 S
C268 C271 1.356 . S
C268 O324 1.325 . S
N269 C272 1.314 . S
N269 C273 1.279 . S
C270 C268 1.332 1_545 S
C270 C272 1.344 1_545 S
C270 H328 0.955 . S
C271 C268 1.356 . S
C271 C273 1.358 . S
C271 H329 0.930 . S
C272 N269 1.314 . S
C272 C270 1.344 1_565 S
C272 H330 0.930 1_565 S
C273 N269 1.279 . S
C273 C271 1.358 . S
C273 H331 0.930 . S
C274 C277 1.339 1_545 S
C274 C278 1.356 . S
C274 O325 1.325 . S
C275 N276 1.279 . S
C275 C278 1.358 . S
C275 H332 0.930 . S
N276 C275 1.279 . S
N276 C279 1.314 . S
C277 C274 1.339 1_565 S
C277 C279 1.348 1_565 S
C277 H333 0.942 . S
C278 C274 1.356 . S
C278 C275 1.358 . S
C278 H334 0.930 . S
C279 N276 1.314 . S
C279 C277 1.348 1_545 S
C279 H335 0.930 1_545 S
C280 N281 1.314 . S
C280 C285 1.353 . S
C280 H286 0.930 . S
N281 Li264 1.990 . S
N281 C280 1.314 . S
N281 C283 1.279 . S
C282 C283 1.358 . S
C282 C284 1.356 . S
C282 H336 0.930 . S
C283 N281 1.279 . S
C283 C282 1.358 . S
C283 H287 0.930 . S
C284 C282 1.356 . S
C284 C285 1.348 . S
C285 C280 1.353 . S
C285 C284 1.348 . S
C285 H337 0.929 . S
H286 C280 0.930 . S
H287 C283 0.930 . S
C288 N289 1.314 . S
C288 C290 1.353 . S
C288 H294 0.930 . S
N289 Li265 1.990 . S
N289 C288 1.314 . S
N289 C292 1.279 . S
C290 C288 1.353 . S
C290 C293 1.348 . S
C290 H338 0.929 . S
C291 C292 1.358 . S
C291 C293 1.356 . S
C291 H339 0.930 . S
C292 N289 1.279 . S
C292 C291 1.358 . S
C292 H295 0.930 . S
C293 C290 1.348 . S
C293 C291 1.356 . S
H294 C288 0.930 . S
H295 C292 0.930 . S
C296 C298 1.348 . S
C296 C299 1.356 . S
C296 O326 1.325 . S
N297 C300 1.314 . S
N297 C301 1.279 . S
C298 C296 1.348 . S
C298 C300 1.353 . S
C298 H340 0.929 . S
C299 C296 1.356 . S
C299 C301 1.358 . S
C299 H341 0.930 . S
C300 N297 1.314 . S
C300 C298 1.353 . S
C300 H342 0.930 . S
C301 N297 1.279 . S
C301 C299 1.358 . S
C301 H343 0.930 . S
C302 C303 1.348 . S
C302 C304 1.356 . S
C302 O327 1.325 . S
C303 C302 1.348 . S
C303 C305 1.353 . S
C303 H344 0.929 . S
C304 C302 1.356 . S
C304 C306 1.358 . S
C304 H345 0.930 . S
C305 C303 1.353 . S
C305 N307 1.314 . S
C305 H346 0.930 . S
C306 C304 1.358 . S
C306 N307 1.279 . S
C306 H347 0.930 . S
N307 C305 1.314 . S
N307 C306 1.279 . S
C308 C310 1.353 . S
C308 N311 1.314 . S
C308 H314 0.930 1_565 S
C309 N311 1.279 . S
C309 C312 1.358 . S
C309 H315 0.930 . S
C310 C308 1.353 . S
C310 C313 1.348 . S
C310 H348 0.929 . S
N311 Li266 1.990 . S
N311 C308 1.314 . S
N311 C309 1.279 . S
C312 C309 1.358 . S
C312 C313 1.356 . S
C312 H349 0.930 . S
C313 C310 1.348 . S
C313 C312 1.356 . S
H314 C308 0.930 1_545 S
H315 C309 0.930 . S
C316 N317 1.314 . S
C316 C318 1.353 . S
C316 H322 0.930 1_545 S
N317 Li267 1.990 . S
N317 C316 1.314 . S
N317 C320 1.279 . S
C318 C316 1.353 . S
C318 C321 1.348 . S
C318 H350 0.929 . S
C319 C320 1.358 . S
C319 C321 1.356 . S
C319 H351 0.930 . S
C320 N317 1.279 . S
C320 C319 1.358 . S
C320 H323 0.930 . S
C321 C318 1.348 . S
C321 C319 1.356 . S
H322 C316 0.930 1_565 S
H323 C320 0.930 . S
O324 Li264 1.956 . S
O324 Li265 1.970 1_565 S
O324 Li266 1.961 . S
O324 C268 1.325 . S
O325 Li264 1.970 1_545 S
O325 Li265 1.956 . S
O325 Li267 1.961 . S
O325 C274 1.325 . S
O326 Li264 1.961 . S
O326 Li266 1.956 . S
O326 Li267 1.970 1_565 S
O326 C296 1.325 . S
O327 Li265 1.961 . S
O327 Li266 1.970 1_545 S
O327 Li267 1.956 . S
O327 C302 1.325 . S
H328 C270 0.955 . S
H329 C271 0.930 . S
H330 C272 0.930 1_545 S
H331 C273 0.930 . S
H332 C275 0.930 . S
H333 C277 0.942 . S
H334 C278 0.930 . S
H335 C279 0.930 1_565 S
H336 C282 0.930 . S
H337 C285 0.929 . S
H338 C290 0.929 . S
H339 C291 0.930 . S
H340 C298 0.929 . S
H341 C299 0.930 . S
H342 C300 0.930 . S
H343 C301 0.930 . S
H344 C303 0.929 . S
H345 C304 0.930 . S
H346 C305 0.930 . S
H347 C306 0.930 . S
H348 C310 0.929 . S
H349 C312 0.930 . S
H350 C318 0.929 . S
H351 C319 0.930 . S
Li352 N369 1.990 . S
Li352 O412 1.956 . S
Li352 O413 1.970 . S
Li352 O414 1.961 1_554 S
Li353 N377 1.990 . S
Li353 O412 1.970 . S
Li353 O413 1.956 . S
Li353 O415 1.961 1_554 S
Li354 N399 1.990 . S
Li354 O412 1.961 1_556 S
Li354 O414 1.956 . S
Li354 O415 1.970 . S
Li355 N405 1.990 . S
Li355 O413 1.961 1_556 S
Li355 O414 1.970 . S
Li355 O415 1.956 . S
C356 C358 1.348 . S
C356 C359 1.356 . S
C356 O412 1.325 . S
N357 C360 1.314 . S
N357 C361 1.279 . S
C358 C356 1.348 . S
C358 C360 1.353 . S
C358 H416 0.929 . S
C359 C356 1.356 . S
C359 C361 1.358 . S
C359 H417 0.930 . S
C360 N357 1.314 . S
C360 C358 1.353 . S
C360 H418 0.930 . S
C361 N357 1.279 . S
C361 C359 1.358 . S
C361 H419 0.930 . S
C362 C365 1.348 . S
C362 C366 1.356 1_554 S
C362 O413 1.325 . S
C363 N364 1.279 . S
C363 C366 1.358 1_554 S
C363 H420 0.930 1_554 S
N364 C363 1.279 . S
N364 C367 1.314 . S
C365 C362 1.348 . S
C365 C367 1.353 . S
C365 H421 0.929 . S
C366 C362 1.356 1_556 S
C366 C363 1.358 1_556 S
C366 H422 0.930 . S
C367 N364 1.314 . S
C367 C365 1.353 . S
C367 H423 0.930 . S
C368 N369 1.314 . S
C368 C373 1.353 . S
C368 H374 0.930 . S
N369 Li352 1.990 . S
N369 C368 1.314 . S
N369 C371 1.279 . S
C370 C371 1.358 . S
C370 C372 1.356 . S
C370 H424 0.930 . S
C371 N369 1.279 . S
C371 C370 1.358 . S
C371 H375 0.930 . S
C372 C370 1.356 . S
C372 C373 1.348 . S
C373 C368 1.353 . S
C373 C372 1.348 . S
C373 H425 0.929 . S
H374 C368 0.930 . S
H375 C371 0.930 . S
C376 N377 1.314 . S
C376 C378 1.353 . S
C376 H382 0.930 1_554 S
N377 Li353 1.990 . S
N377 C376 1.314 . S
N377 C380 1.279 . S
C378 C376 1.353 . S
C378 C381 1.348 . S
C378 H426 0.929 . S
C379 C380 1.358 . S
C379 C381 1.356 . S
C379 H427 0.930 . S
C380 N377 1.279 . S
C380 C379 1.358 . S
C380 H383 0.930 . S
C381 C378 1.348 . S
C381 C379 1.356 . S
H382 C376 0.930 1_556 S
H383 C380 0.930 . S
C384 C386 1.348 . S
C384 C387 1.356 1_556 S
C384 O414 1.325 . S
N385 C388 1.314 . S
N385 C389 1.279 . S
C386 C384 1.348 . S
C386 C388 1.353 . S
C386 H428 0.929 . S
C387 C384 1.356 1_554 S
C387 C389 1.358 1_554 S
C387 H429 0.930 . S
C388 N385 1.314 . S
C388 C386 1.353 . S
C388 H430 0.930 . S
C389 N385 1.279 . S
C389 C387 1.358 1_556 S
C389 H431 0.930 1_556 S
C390 C391 1.348 . S
C390 C392 1.356 . S
C390 O415 1.325 . S
C391 C390 1.348 . S
C391 C393 1.353 . S
C391 H432 0.929 . S
C392 C390 1.356 . S
C392 C394 1.358 . S
C392 H433 0.930 . S
C393 C391 1.353 . S
C393 N395 1.314 . S
C393 H434 0.930 . S
C394 C392 1.358 . S
C394 N395 1.279 . S
C394 H435 0.930 . S
N395 C393 1.314 . S
N395 C394 1.279 . S
C396 C398 1.353 . S
C396 N399 1.314 . S
C396 H402 0.930 1_556 S
C397 N399 1.279 . S
C397 C400 1.358 . S
C397 H403 0.930 . S
C398 C396 1.353 . S
C398 C401 1.348 . S
C398 H436 0.929 . S
N399 Li354 1.990 . S
N399 C396 1.314 . S
N399 C397 1.279 . S
C400 C397 1.358 . S
C400 C401 1.356 . S
C400 H437 0.930 . S
C401 C398 1.348 . S
C401 C400 1.356 . S
H402 C396 0.930 1_554 S
H403 C397 0.930 . S
C404 N405 1.314 . S
C404 C406 1.353 . S
C404 H410 0.930 . S
N405 Li355 1.990 . S
N405 C404 1.314 . S
N405 C408 1.279 . S
C406 C404 1.353 . S
C406 C409 1.348 . S
C406 H438 0.929 . S
C407 C408 1.358 . S
C407 C409 1.356 . S
C407 H439 0.930 . S
C408 N405 1.279 . S
C408 C407 1.358 . S
C408 H411 0.930 . S
C409 C406 1.348 . S
C409 C407 1.356 . S
H410 C404 0.930 . S
H411 C408 0.930 . S
O412 Li352 1.956 . S
O412 Li353 1.970 . S
O412 Li354 1.961 1_554 S
O412 C356 1.325 . S
O413 Li352 1.970 . S
O413 Li353 1.956 . S
O413 Li355 1.961 1_554 S
O413 C362 1.325 . S
O414 Li352 1.961 1_556 S
O414 Li354 1.956 . S
O414 Li355 1.970 . S
O414 C384 1.325 . S
O415 Li353 1.961 1_556 S
O415 Li354 1.970 . S
O415 Li355 1.956 . S
O415 C390 1.325 . S
H416 C358 0.929 . S
H417 C359 0.930 . S
H418 C360 0.930 . S
H419 C361 0.930 . S
H420 C363 0.930 1_556 S
H421 C365 0.929 . S
H422 C366 0.930 . S
H423 C367 0.930 . S
H424 C370 0.930 . S
H425 C373 0.929 . S
H426 C378 0.929 . S
H427 C379 0.930 . S
H428 C386 0.929 . S
H429 C387 0.930 . S
H430 C388 0.930 . S
H431 C389 0.930 1_554 S
H432 C391 0.929 . S
H433 C392 0.930 . S
H434 C393 0.930 . S
H435 C394 0.930 . S
H436 C398 0.929 . S
H437 C400 0.930 . S
H438 C406 0.929 . S
H439 C407 0.930 . S
Li440 N457 1.990 . S
Li440 O500 1.956 . S
Li440 O501 1.970 1_565 S
Li440 O502 1.961 . S
Li441 N465 1.990 . S
Li441 O500 1.970 1_545 S
Li441 O501 1.956 . S
Li441 O503 1.961 . S
Li442 N487 1.990 . S
Li442 O500 1.961 . S
Li442 O502 1.956 . S
Li442 O503 1.970 1_565 S
Li443 N493 1.990 . S
Li443 O501 1.961 . S
Li443 O502 1.970 1_545 S
Li443 O503 1.956 . S
C444 C446 1.348 . S
C444 C447 1.356 . S
C444 O500 1.325 . S
N445 C448 1.314 . S
N445 C449 1.279 . S
C446 C444 1.348 . S
C446 C448 1.353 . S
C446 H504 0.929 . S
C447 C444 1.356 . S
C447 C449 1.358 . S
C447 H505 0.930 . S
C448 N445 1.314 . S
C448 C446 1.353 . S
C448 H506 0.930 . S
C449 N445 1.279 . S
C449 C447 1.358 . S
C449 H507 0.930 . S
C450 C453 1.348 1_545 S
C450 C454 1.356 . S
C450 O501 1.325 . S
C451 N452 1.279 . S
C451 C454 1.358 . S
C451 H508 0.930 . S
N452 C451 1.279 . S
N452 C455 1.378 . S
C453 C450 1.348 1_565 S
C453 C455 1.336 1_565 S
C453 H509 0.929 . S
C454 C450 1.356 . S
C454 C451 1.358 . S
C454 H510 0.930 . S
C455 N452 1.378 . S
C455 C453 1.336 1_545 S
C455 H511 0.881 1_545 S
C456 N457 1.314 . S
C456 C461 1.353 . S
C456 H462 0.930 . S
N457 Li440 1.990 . S
N457 C456 1.314 . S
N457 C459 1.279 . S
C458 C459 1.358 . S
C458 C460 1.356 . S
C458 H512 0.930 . S
C459 N457 1.279 . S
C459 C458 1.358 . S
C459 H463 0.930 . S
C460 C458 1.356 . S
C460 C461 1.348 . S
C461 C456 1.353 . S
C461 C460 1.348 . S
C461 H513 0.929 . S
H462 C456 0.930 . S
H463 C459 0.930 . S
C464 N465 1.314 . S
C464 C466 1.353 . S
C464 H470 0.930 . S
N465 Li441 1.990 . S
N465 C464 1.314 . S
N465 C468 1.279 . S
C466 C464 1.353 . S
C466 C469 1.348 . S
C466 H514 0.929 . S
C467 C468 1.358 . S
C467 C469 1.356 . S
C467 H515 0.930 . S
C468 N465 1.279 . S
C468 C467 1.358 . S
C468 H471 0.930 . S
C469 C466 1.348 . S
C469 C467 1.356 . S
H470 C464 0.930 . S
H471 C468 0.930 . S
C472 C474 1.348 1_565 S
C472 C475 1.356 . S
C472 O502 1.325 . S
N473 C476 1.363 . S
N473 C477 1.279 . S
C474 C472 1.348 1_545 S
C474 C476 1.339 1_545 S
C474 H516 0.929 . S
C475 C472 1.356 . S
C475 C477 1.358 . S
C475 H517 0.930 . S
C476 N473 1.363 . S
C476 C474 1.339 1_565 S
C476 H518 0.892 1_565 S
C477 N473 1.279 . S
C477 C475 1.358 . S
C477 H519 0.930 . S
C478 C479 1.348 . S
C478 C480 1.356 . S
C478 O503 1.325 . S
C479 C478 1.348 . S
C479 C481 1.353 . S
C479 H520 0.929 . S
C480 C478 1.356 . S
C480 C482 1.358 . S
C480 H521 0.930 . S
C481 C479 1.353 . S
C481 N483 1.314 . S
C481 H522 0.930 . S
C482 C480 1.358 . S
C482 N483 1.279 . S
C482 H523 0.930 . S
N483 C481 1.314 . S
N483 C482 1.279 . S
C484 C486 1.353 . S
C484 N487 1.314 . S
C484 H490 0.930 . S
C485 N487 1.279 . S
C485 C488 1.358 . S
C485 H491 0.930 . S
C486 C484 1.353 . S
C486 C489 1.348 . S
C486 H524 0.929 . S
N487 Li442 1.990 . S
N487 C484 1.314 . S
N487 C485 1.279 . S
C488 C485 1.358 . S
C488 C489 1.356 . S
C488 H525 0.930 . S
C489 C486 1.348 . S
C489 C488 1.356 . S
H490 C484 0.930 . S
H491 C485 0.930 . S
C492 N493 1.314 . S
C492 C494 1.353 . S
C492 H498 0.930 . S
N493 Li443 1.990 . S
N493 C492 1.314 . S
N493 C496 1.279 . S
C494 C492 1.353 . S
C494 C497 1.348 . S
C494 H526 0.929 . S
C495 C496 1.358 . S
C495 C497 1.356 . S
C495 H527 0.930 . S
C496 N493 1.279 . S
C496 C495 1.358 . S
C496 H499 0.930 . S
C497 C494 1.348 . S
C497 C495 1.356 . S
H498 C492 0.930 . S
H499 C496 0.930 . S
O500 Li440 1.956 . S
O500 Li441 1.970 1_565 S
O500 Li442 1.961 . S
O500 C444 1.325 . S
O501 Li440 1.970 1_545 S
O501 Li441 1.956 . S
O501 Li443 1.961 . S
O501 C450 1.325 . S
O502 Li440 1.961 . S
O502 Li442 1.956 . S
O502 Li443 1.970 1_565 S
O502 C472 1.325 . S
O503 Li441 1.961 . S
O503 Li442 1.970 1_545 S
O503 Li443 1.956 . S
O503 C478 1.325 . S
H504 C446 0.929 . S
H505 C447 0.930 . S
H506 C448 0.930 . S
H507 C449 0.930 . S
H508 C451 0.930 . S
H509 C453 0.929 . S
H510 C454 0.930 . S
H511 C455 0.881 1_565 S
H512 C458 0.930 . S
H513 C461 0.929 . S
H514 C466 0.929 . S
H515 C467 0.930 . S
H516 C474 0.929 . S
H517 C475 0.930 . S
H518 C476 0.892 1_545 S
H519 C477 0.930 . S
H520 C479 0.929 . S
H521 C480 0.930 . S
H522 C481 0.930 . S
H523 C482 0.930 . S
H524 C486 0.929 . S
H525 C488 0.930 . S
H526 C494 0.929 . S
H527 C495 0.930 . S
Li528 N545 1.990 . S
Li528 O588 1.956 . S
Li528 O589 1.970 . S
Li528 O590 1.961 . S
Li529 N553 1.990 . S
Li529 O588 1.970 . S
Li529 O589 1.956 . S
Li529 O591 1.961 . S
Li530 N575 1.990 . S
Li530 O588 1.961 . S
Li530 O590 1.956 . S
Li530 O591 1.970 . S
Li531 N581 1.990 . S
Li531 O589 1.961 . S
Li531 O590 1.970 . S
Li531 O591 1.956 . S
C532 C534 1.348 . S
C532 C535 1.356 . S
C532 O588 1.325 . S
N533 C536 1.314 . S
N533 C537 1.279 . S
C534 C532 1.348 . S
C534 C536 1.353 . S
C534 H592 0.929 . S
C535 C532 1.356 . S
C535 C537 1.358 . S
C535 H593 0.930 . S
C536 N533 1.314 . S
C536 C534 1.353 . S
C536 H594 0.930 . S
C537 N533 1.279 . S
C537 C535 1.358 . S
C537 H595 0.930 . S
C538 C541 1.348 . S
C538 C542 1.356 . S
C538 O589 1.325 . S
C539 N540 1.279 . S
C539 C542 1.358 . S
C539 H596 0.930 . S
N540 C539 1.279 . S
N540 C543 1.314 . S
C541 C538 1.348 . S
C541 C543 1.353 . S
C541 H597 0.929 . S
C542 C538 1.356 . S
C542 C539 1.358 . S
C542 H598 0.930 . S
C543 N540 1.314 . S
C543 C541 1.353 . S
C543 H599 0.930 . S
C544 N545 1.314 . S
C544 C549 1.353 . S
C544 H550 0.930 . S
N545 Li528 1.990 . S
N545 C544 1.314 . S
N545 C547 1.279 . S
C546 C547 1.358 . S
C546 C548 1.356 . S
C546 H600 0.930 . S
C547 N545 1.279 . S
C547 C546 1.358 . S
C547 H551 0.930 . S
C548 C546 1.356 . S
C548 C549 1.348 . S
C549 C544 1.353 . S
C549 C548 1.348 . S
C549 H601 0.929 . S
H550 C544 0.930 . S
H551 C547 0.930 . S
C552 N553 1.314 . S
C552 C554 1.353 . S
C552 H558 0.930 . S
N553 Li529 1.990 . S
N553 C552 1.314 . S
N553 C556 1.279 . S
C554 C552 1.353 . S
C554 C557 1.348 . S
C554 H602 0.929 . S
C555 C556 1.358 . S
C555 C557 1.356 . S
C555 H603 0.930 . S
C556 N553 1.279 . S
C556 C555 1.358 . S
C556 H559 0.930 . S
C557 C554 1.348 . S
C557 C555 1.356 . S
H558 C552 0.930 . S
H559 C556 0.930 . S
C560 C562 1.348 . S
C560 C563 1.356 . S
C560 O590 1.325 . S
N561 C564 1.314 . S
N561 C565 1.279 . S
C562 C560 1.348 . S
C562 C564 1.353 . S
C562 H604 0.929 . S
C563 C560 1.356 . S
C563 C565 1.358 . S
C563 H605 0.930 . S
C564 N561 1.314 . S
C564 C562 1.353 . S
C564 H606 0.930 . S
C565 N561 1.279 . S
C565 C563 1.358 . S
C565 H607 0.930 . S
C566 C567 1.348 . S
C566 C568 1.356 . S
C566 O591 1.325 . S
C567 C566 1.348 . S
C567 C569 1.353 . S
C567 H608 0.929 . S
C568 C566 1.356 . S
C568 C570 1.358 . S
C568 H609 0.930 . S
C569 C567 1.353 . S
C569 N571 1.314 . S
C569 H610 0.930 . S
C570 C568 1.358 . S
C570 N571 1.279 . S
C570 H611 0.930 . S
N571 C569 1.314 . S
N571 C570 1.279 . S
C572 C574 1.353 . S
C572 N575 1.314 . S
C572 H578 0.930 . S
C573 N575 1.279 . S
C573 C576 1.358 . S
C573 H579 0.930 . S
C574 C572 1.353 . S
C574 C577 1.348 . S
C574 H612 0.929 . S
N575 Li530 1.990 . S
N575 C572 1.314 . S
N575 C573 1.279 . S
C576 C573 1.358 . S
C576 C577 1.356 . S
C576 H613 0.930 . S
C577 C574 1.348 . S
C577 C576 1.356 . S
H578 C572 0.930 . S
H579 C573 0.930 . S
C580 N581 1.314 . S
C580 C582 1.353 . S
C580 H586 0.930 . S
N581 Li531 1.990 . S
N581 C580 1.314 . S
N581 C584 1.279 . S
C582 C580 1.353 . S
C582 C585 1.348 . S
C582 H614 0.929 . S
C583 C584 1.358 . S
C583 C585 1.356 . S
C583 H615 0.930 . S
C584 N581 1.279 . S
C584 C583 1.358 . S
C584 H587 0.930 . S
C585 C582 1.348 . S
C585 C583 1.356 . S
H586 C580 0.930 . S
H587 C584 0.930 . S
O588 Li528 1.956 . S
O588 Li529 1.970 . S
O588 Li530 1.961 . S
O588 C532 1.325 . S
O589 Li528 1.970 . S
O589 Li529 1.956 . S
O589 Li531 1.961 . S
O589 C538 1.325 . S
O590 Li528 1.961 . S
O590 Li530 1.956 . S
O590 Li531 1.970 . S
O590 C560 1.325 . S
O591 Li529 1.961 . S
O591 Li530 1.970 . S
O591 Li531 1.956 . S
O591 C566 1.325 . S
H592 C534 0.929 . S
H593 C535 0.930 . S
H594 C536 0.930 . S
H595 C537 0.930 . S
H596 C539 0.930 . S
H597 C541 0.929 . S
H598 C542 0.930 . S
H599 C543 0.930 . S
H600 C546 0.930 . S
H601 C549 0.929 . S
H602 C554 0.929 . S
H603 C555 0.930 . S
H604 C562 0.929 . S
H605 C563 0.930 . S
H606 C564 0.930 . S
H607 C565 0.930 . S
H608 C567 0.929 . S
H609 C568 0.930 . S
H610 C569 0.930 . S
H611 C570 0.930 . S
H612 C574 0.929 . S
H613 C576 0.930 . S
H614 C582 0.929 . S
H615 C583 0.930 . S
Li616 N633 1.990 . S
Li616 O676 1.956 . S
Li616 O677 1.970 1_545 S
Li616 O678 1.961 . S
Li617 N641 1.990 . S
Li617 O676 1.970 1_565 S
Li617 O677 1.956 . S
Li617 O679 1.961 . S
Li618 N663 1.990 . S
Li618 O676 1.961 . S
Li618 O678 1.956 . S
Li618 O679 1.970 1_545 S
Li619 N669 1.990 . S
Li619 O677 1.961 . S
Li619 O678 1.970 1_565 S
Li619 O679 1.956 . S
C620 C622 1.348 . S
C620 C623 1.356 . S
C620 O676 1.325 . S
N621 C624 1.314 . S
N621 C625 1.279 . S
C622 C620 1.348 . S
C622 C624 1.353 . S
C622 H680 0.929 . S
C623 C620 1.356 . S
C623 C625 1.358 . S
C623 H681 0.930 . S
C624 N621 1.314 . S
C624 C622 1.353 . S
C624 H682 0.930 . S
C625 N621 1.279 . S
C625 C623 1.358 . S
C625 H683 0.930 . S
C626 C629 1.348 1_565 S
C626 C630 1.356 . S
C626 O677 1.325 . S
C627 N628 1.279 . S
C627 C630 1.358 . S
C627 H684 0.930 . S
N628 C627 1.279 . S
N628 C631 1.363 . S
C629 C626 1.348 1_545 S
C629 C631 1.339 1_545 S
C629 H685 0.929 . S
C630 C626 1.356 . S
C630 C627 1.358 . S
C630 H686 0.930 . S
C631 N628 1.363 . S
C631 C629 1.339 1_565 S
C631 H687 0.892 1_565 S
C632 N633 1.314 . S
C632 C637 1.353 . S
C632 H638 0.930 . S
N633 Li616 1.990 . S
N633 C632 1.314 . S
N633 C635 1.279 . S
C634 C635 1.358 . S
C634 C636 1.356 . S
C634 H688 0.930 . S
C635 N633 1.279 . S
C635 C634 1.358 . S
C635 H639 0.930 . S
C636 C634 1.356 . S
C636 C637 1.348 . S
C637 C632 1.353 . S
C637 C636 1.348 . S
C637 H689 0.929 . S
H638 C632 0.930 . S
H639 C635 0.930 . S
C640 N641 1.314 . S
C640 C642 1.353 . S
C640 H646 0.930 . S
N641 Li617 1.990 . S
N641 C640 1.314 . S
N641 C644 1.279 . S
C642 C640 1.353 . S
C642 C645 1.348 . S
C642 H690 0.929 . S
C643 C644 1.358 . S
C643 C645 1.356 . S
C643 H691 0.930 . S
C644 N641 1.279 . S
C644 C643 1.358 . S
C644 H647 0.930 . S
C645 C642 1.348 . S
C645 C643 1.356 . S
H646 C640 0.930 . S
H647 C644 0.930 . S
C648 C650 1.348 1_545 S
C648 C651 1.356 . S
C648 O678 1.325 . S
N649 C652 1.378 . S
N649 C653 1.279 . S
C650 C648 1.348 1_565 S
C650 C652 1.336 1_565 S
C650 H692 0.929 . S
C651 C648 1.356 . S
C651 C653 1.358 . S
C651 H693 0.930 . S
C652 N649 1.378 . S
C652 C650 1.336 1_545 S
C652 H694 0.881 1_545 S
C653 N649 1.279 . S
C653 C651 1.358 . S
C653 H695 0.930 . S
C654 C655 1.348 . S
C654 C656 1.356 . S
C654 O679 1.325 . S
C655 C654 1.348 . S
C655 C657 1.353 . S
C655 H696 0.929 . S
C656 C654 1.356 . S
C656 C658 1.358 . S
C656 H697 0.930 . S
C657 C655 1.353 . S
C657 N659 1.314 . S
C657 H698 0.930 . S
C658 C656 1.358 . S
C658 N659 1.279 . S
C658 H699 0.930 . S
N659 C657 1.314 . S
N659 C658 1.279 . S
C660 C662 1.353 . S
C660 N663 1.314 . S
C660 H666 0.930 . S
C661 N663 1.279 . S
C661 C664 1.358 . S
C661 H667 0.930 . S
C662 C660 1.353 . S
C662 C665 1.348 . S
C662 H700 0.929 . S
N663 Li618 1.990 . S
N663 C660 1.314 . S
N663 C661 1.279 . S
C664 C661 1.358 . S
C664 C665 1.356 . S
C664 H701 0.930 . S
C665 C662 1.348 . S
C665 C664 1.356 . S
H666 C660 0.930 . S
H667 C661 0.930 . S
C668 N669 1.314 . S
C668 C670 1.353 . S
C668 H674 0.930 . S
N669 Li619 1.990 . S
N669 C668 1.314 . S
N669 C672 1.279 . S
C670 C668 1.353 . S
C670 C673 1.348 . S
C670 H702 0.929 . S
C671 C672 1.358 . S
C671 C673 1.356 . S
C671 H703 0.930 . S
C672 N669 1.279 . S
C672 C671 1.358 . S
C672 H675 0.930 . S
C673 C670 1.348 . S
C673 C671 1.356 . S
H674 C668 0.930 . S
H675 C672 0.930 . S
O676 Li616 1.956 . S
O676 Li617 1.970 1_545 S
O676 Li618 1.961 . S
O676 C620 1.325 . S
O677 Li616 1.970 1_565 S
O677 Li617 1.956 . S
O677 Li619 1.961 . S
O677 C626 1.325 . S
O678 Li616 1.961 . S
O678 Li618 1.956 . S
O678 Li619 1.970 1_545 S
O678 C648 1.325 . S
O679 Li617 1.961 . S
O679 Li618 1.970 1_565 S
O679 Li619 1.956 . S
O679 C654 1.325 . S
H680 C622 0.929 . S
H681 C623 0.930 . S
H682 C624 0.930 . S
H683 C625 0.930 . S
H684 C627 0.930 . S
H685 C629 0.929 . S
H686 C630 0.930 . S
H687 C631 0.892 1_545 S
H688 C634 0.930 . S
H689 C637 0.929 . S
H690 C642 0.929 . S
H691 C643 0.930 . S
H692 C650 0.929 . S
H693 C651 0.930 . S
H694 C652 0.881 1_565 S
H695 C653 0.930 . S
H696 C655 0.929 . S
H697 C656 0.930 . S
H698 C657 0.930 . S
H699 C658 0.930 . S
H700 C662 0.929 . S
H701 C664 0.930 . S
H702 C670 0.929 . S
H703 C671 0.930 . S
Li704 N721 1.990 . S
Li704 O764 1.956 . S
Li704 O765 1.970 . S
Li704 O766 1.961 . S
Li705 N729 1.990 . S
Li705 O764 1.970 . S
Li705 O765 1.956 . S
Li705 O767 1.961 . S
Li706 N751 1.990 . S
Li706 O764 1.961 . S
Li706 O766 1.956 . S
Li706 O767 1.970 . S
Li707 N757 1.990 . S
Li707 O765 1.961 . S
Li707 O766 1.970 . S
Li707 O767 1.956 . S
C708 C710 1.348 . S
C708 C711 1.356 . S
C708 O764 1.325 . S
N709 C712 1.314 . S
N709 C713 1.279 . S
C710 C708 1.348 . S
C710 C712 1.353 . S
C710 H768 0.929 . S
C711 C708 1.356 . S
C711 C713 1.358 . S
C711 H769 0.930 . S
C712 N709 1.314 . S
C712 C710 1.353 . S
C712 H770 0.930 . S
C713 N709 1.279 . S
C713 C711 1.358 . S
C713 H771 0.930 . S
C714 C717 1.348 . S
C714 C718 1.356 . S
C714 O765 1.325 . S
C715 N716 1.279 . S
C715 C718 1.358 . S
C715 H772 0.930 . S
N716 C715 1.279 . S
N716 C719 1.314 . S
C717 C714 1.348 . S
C717 C719 1.353 . S
C717 H773 0.929 . S
C718 C714 1.356 . S
C718 C715 1.358 . S
C718 H774 0.930 . S
C719 N716 1.314 . S
C719 C717 1.353 . S
C719 H775 0.930 . S
C720 N721 1.314 . S
C720 C725 1.353 . S
C720 H726 0.930 . S
N721 Li704 1.990 . S
N721 C720 1.314 . S
N721 C723 1.279 . S
C722 C723 1.358 . S
C722 C724 1.356 . S
C722 H776 0.930 . S
C723 N721 1.279 . S
C723 C722 1.358 . S
C723 H727 0.930 . S
C724 C722 1.356 . S
C724 C725 1.348 . S
C725 C720 1.353 . S
C725 C724 1.348 . S
C725 H777 0.929 . S
H726 C720 0.930 . S
H727 C723 0.930 . S
C728 N729 1.314 . S
C728 C730 1.353 . S
C728 H734 0.930 . S
N729 Li705 1.990 . S
N729 C728 1.314 . S
N729 C732 1.279 . S
C730 C728 1.353 . S
C730 C733 1.348 . S
C730 H778 0.929 . S
C731 C732 1.358 . S
C731 C733 1.356 . S
C731 H779 0.930 . S
C732 N729 1.279 . S
C732 C731 1.358 . S
C732 H735 0.930 . S
C733 C730 1.348 . S
C733 C731 1.356 . S
H734 C728 0.930 . S
H735 C732 0.930 . S
C736 C738 1.348 . S
C736 C739 1.356 . S
C736 O766 1.325 . S
N737 C740 1.314 . S
N737 C741 1.279 . S
C738 C736 1.348 . S
C738 C740 1.353 . S
C738 H780 0.929 . S
C739 C736 1.356 . S
C739 C741 1.358 . S
C739 H781 0.930 . S
C740 N737 1.314 . S
C740 C738 1.353 . S
C740 H782 0.930 . S
C741 N737 1.279 . S
C741 C739 1.358 . S
C741 H783 0.930 . S
C742 C743 1.348 . S
C742 C744 1.356 . S
C742 O767 1.325 . S
C743 C742 1.348 . S
C743 C745 1.353 . S
C743 H784 0.929 . S
C744 C742 1.356 . S
C744 C746 1.358 . S
C744 H785 0.930 . S
C745 C743 1.353 . S
C745 N747 1.314 . S
C745 H786 0.930 . S
C746 C744 1.358 . S
C746 N747 1.279 . S
C746 H787 0.930 . S
N747 C745 1.314 . S
N747 C746 1.279 . S
C748 C750 1.353 . S
C748 N751 1.314 . S
C748 H754 0.930 . S
C749 N751 1.279 . S
C749 C752 1.358 . S
C749 H755 0.930 . S
C750 C748 1.353 . S
C750 C753 1.348 . S
C750 H788 0.929 . S
N751 Li706 1.990 . S
N751 C748 1.314 . S
N751 C749 1.279 . S
C752 C749 1.358 . S
C752 C753 1.356 . S
C752 H789 0.930 . S
C753 C750 1.348 . S
C753 C752 1.356 . S
H754 C748 0.930 . S
H755 C749 0.930 . S
C756 N757 1.314 . S
C756 C758 1.353 . S
C756 H762 0.930 . S
N757 Li707 1.990 . S
N757 C756 1.314 . S
N757 C760 1.279 . S
C758 C756 1.353 . S
C758 C761 1.348 . S
C758 H790 0.929 . S
C759 C760 1.358 . S
C759 C761 1.356 . S
C759 H791 0.930 . S
C760 N757 1.279 . S
C760 C759 1.358 . S
C760 H763 0.930 . S
C761 C758 1.348 . S
C761 C759 1.356 . S
H762 C756 0.930 . S
H763 C760 0.930 . S
O764 Li704 1.956 . S
O764 Li705 1.970 . S
O764 Li706 1.961 . S
O764 C708 1.325 . S
O765 Li704 1.970 . S
O765 Li705 1.956 . S
O765 Li707 1.961 . S
O765 C714 1.325 . S
O766 Li704 1.961 . S
O766 Li706 1.956 . S
O766 Li707 1.970 . S
O766 C736 1.325 . S
O767 Li705 1.961 . S
O767 Li706 1.970 . S
O767 Li707 1.956 . S
O767 C742 1.325 . S
H768 C710 0.929 . S
H769 C711 0.930 . S
H770 C712 0.930 . S
H771 C713 0.930 . S
H772 C715 0.930 . S
H773 C717 0.929 . S
H774 C718 0.930 . S
H775 C719 0.930 . S
H776 C722 0.930 . S
H777 C725 0.929 . S
H778 C730 0.929 . S
H779 C731 0.930 . S
H780 C738 0.929 . S
H781 C739 0.930 . S
H782 C740 0.930 . S
H783 C741 0.930 . S
H784 C743 0.929 . S
H785 C744 0.930 . S
H786 C745 0.930 . S
H787 C746 0.930 . S
H788 C750 0.929 . S
H789 C752 0.930 . S
H790 C758 0.929 . S
H791 C759 0.930 . S
Li792 N809 1.990 . S
Li792 O852 1.956 . S
Li792 O853 1.970 . S
Li792 O854 1.961 . S
Li793 N817 1.990 . S
Li793 O852 1.970 . S
Li793 O853 1.956 . S
Li793 O855 1.961 . S
Li794 N839 1.990 . S
Li794 O852 1.961 . S
Li794 O854 1.956 . S
Li794 O855 1.970 . S
Li795 N845 1.990 . S
Li795 O853 1.961 . S
Li795 O854 1.970 . S
Li795 O855 1.956 . S
C796 C798 1.348 . S
C796 C799 1.356 . S
C796 O852 1.325 . S
N797 C800 1.314 . S
N797 C801 1.279 . S
C798 C796 1.348 . S
C798 C800 1.353 . S
C798 H856 0.929 . S
C799 C796 1.356 . S
C799 C801 1.358 . S
C799 H857 0.930 . S
C800 N797 1.314 . S
C800 C798 1.353 . S
C800 H858 0.930 . S
C801 N797 1.279 . S
C801 C799 1.358 . S
C801 H859 0.930 . S
C802 C805 1.348 . S
C802 C806 1.356 . S
C802 O853 1.325 . S
C803 N804 1.279 . S
C803 C806 1.358 . S
C803 H860 0.930 . S
N804 C803 1.279 . S
N804 C807 1.314 . S
C805 C802 1.348 . S
C805 C807 1.353 . S
C805 H861 0.929 . S
C806 C802 1.356 . S
C806 C803 1.358 . S
C806 H862 0.930 . S
C807 N804 1.314 . S
C807 C805 1.353 . S
C807 H863 0.930 . S
C808 N809 1.314 . S
C808 C813 1.353 . S
C808 H814 0.930 . S
N809 Li792 1.990 . S
N809 C808 1.314 . S
N809 C811 1.279 . S
C810 C811 1.358 . S
C810 C812 1.356 . S
C810 H864 0.930 . S
C811 N809 1.279 . S
C811 C810 1.358 . S
C811 H815 0.930 . S
C812 C810 1.356 . S
C812 C813 1.348 . S
C813 C808 1.353 . S
C813 C812 1.348 . S
C813 H865 0.929 . S
H814 C808 0.930 . S
H815 C811 0.930 . S
C816 N817 1.314 . S
C816 C818 1.353 . S
C816 H822 0.930 . S
N817 Li793 1.990 . S
N817 C816 1.314 . S
N817 C820 1.279 . S
C818 C816 1.353 . S
C818 C821 1.348 . S
C818 H866 0.929 . S
C819 C820 1.358 . S
C819 C821 1.356 . S
C819 H867 0.930 . S
C820 N817 1.279 . S
C820 C819 1.358 . S
C820 H823 0.930 . S
C821 C818 1.348 . S
C821 C819 1.356 . S
H822 C816 0.930 . S
H823 C820 0.930 . S
C824 C826 1.348 . S
C824 C827 1.356 . S
C824 O854 1.325 . S
N825 C828 1.314 . S
N825 C829 1.279 . S
C826 C824 1.348 . S
C826 C828 1.353 . S
C826 H868 0.929 . S
C827 C824 1.356 . S
C827 C829 1.358 . S
C827 H869 0.930 . S
C828 N825 1.314 . S
C828 C826 1.353 . S
C828 H870 0.930 . S
C829 N825 1.279 . S
C829 C827 1.358 . S
C829 H871 0.930 . S
C830 C831 1.348 . S
C830 C832 1.356 . S
C830 O855 1.325 . S
C831 C830 1.348 . S
C831 C833 1.353 . S
C831 H872 0.929 . S
C832 C830 1.356 . S
C832 C834 1.358 . S
C832 H873 0.930 . S
C833 C831 1.353 . S
C833 N835 1.314 . S
C833 H874 0.930 . S
C834 C832 1.358 . S
C834 N835 1.279 . S
C834 H875 0.930 . S
N835 C833 1.314 . S
N835 C834 1.279 . S
C836 C838 1.353 . S
C836 N839 1.314 . S
C836 H842 0.930 . S
C837 N839 1.279 . S
C837 C840 1.358 . S
C837 H843 0.930 . S
C838 C836 1.353 . S
C838 C841 1.348 . S
C838 H876 0.929 . S
N839 Li794 1.990 . S
N839 C836 1.314 . S
N839 C837 1.279 . S
C840 C837 1.358 . S
C840 C841 1.356 . S
C840 H877 0.930 . S
C841 C838 1.348 . S
C841 C840 1.356 . S
H842 C836 0.930 . S
H843 C837 0.930 . S
C844 N845 1.314 . S
C844 C846 1.353 . S
C844 H850 0.930 . S
N845 Li795 1.990 . S
N845 C844 1.314 . S
N845 C848 1.279 . S
C846 C844 1.353 . S
C846 C849 1.348 . S
C846 H878 0.929 . S
C847 C848 1.358 . S
C847 C849 1.356 . S
C847 H879 0.930 . S
C848 N845 1.279 . S
C848 C847 1.358 . S
C848 H851 0.930 . S
C849 C846 1.348 . S
C849 C847 1.356 . S
H850 C844 0.930 . S
H851 C848 0.930 . S
O852 Li792 1.956 . S
O852 Li793 1.970 . S
O852 Li794 1.961 . S
O852 C796 1.325 . S
O853 Li792 1.970 . S
O853 Li793 1.956 . S
O853 Li795 1.961 . S
O853 C802 1.325 . S
O854 Li792 1.961 . S
O854 Li794 1.956 . S
O854 Li795 1.970 . S
O854 C824 1.325 . S
O855 Li793 1.961 . S
O855 Li794 1.970 . S
O855 Li795 1.956 . S
O855 C830 1.325 . S
H856 C798 0.929 . S
H857 C799 0.930 . S
H858 C800 0.930 . S
H859 C801 0.930 . S
H860 C803 0.930 . S
H861 C805 0.929 . S
H862 C806 0.930 . S
H863 C807 0.930 . S
H864 C810 0.930 . S
H865 C813 0.929 . S
H866 C818 0.929 . S
H867 C819 0.930 . S
H868 C826 0.929 . S
H869 C827 0.930 . S
H870 C828 0.930 . S
H871 C829 0.930 . S
H872 C831 0.929 . S
H873 C832 0.930 . S
H874 C833 0.930 . S
H875 C834 0.930 . S
H876 C838 0.929 . S
H877 C840 0.930 . S
H878 C846 0.929 . S
H879 C847 0.930 . S
Li880 N897 1.990 . S
Li880 O940 1.956 1_556 S
Li880 O941 1.970 . S
Li880 O942 1.961 . S
Li881 N905 1.990 . S
Li881 O940 1.970 . S
Li881 O941 1.956 1_554 S
Li881 O943 1.961 . S
Li882 N927 1.990 . S
Li882 O940 1.961 . S
Li882 O942 1.956 1_554 S
Li882 O943 1.970 . S
Li883 N933 1.990 . S
Li883 O941 1.961 . S
Li883 O942 1.970 . S
Li883 O943 1.956 1_556 S
C884 C886 1.348 . S
C884 C887 1.356 . S
C884 O940 1.325 . S
N885 C888 1.314 . S
N885 C889 1.279 . S
C886 C884 1.348 . S
C886 C888 1.353 . S
C886 H944 0.929 . S
C887 C884 1.356 . S
C887 C889 1.358 . S
C887 H945 0.930 1_554 S
C888 N885 1.314 . S
C888 C886 1.353 . S
C888 H946 0.930 . S
C889 N885 1.279 . S
C889 C887 1.358 . S
C889 H947 0.930 1_554 S
C890 C893 1.348 . S
C890 C894 1.356 . S
C890 O941 1.325 . S
C891 N892 1.279 . S
C891 C894 1.358 . S
C891 H948 0.930 1_556 S
N892 C891 1.279 . S
N892 C895 1.314 . S
C893 C890 1.348 . S
C893 C895 1.353 . S
C893 H949 0.929 . S
C894 C890 1.356 . S
C894 C891 1.358 . S
C894 H950 0.930 1_556 S
C895 N892 1.314 . S
C895 C893 1.353 . S
C895 H951 0.930 . S
C896 N897 1.314 . S
C896 C901 1.353 . S
C896 H902 0.930 . S
N897 Li880 1.990 . S
N897 C896 1.314 . S
N897 C899 1.279 . S
C898 C899 1.358 . S
C898 C900 1.356 . S
C898 H952 0.930 . S
C899 N897 1.279 . S
C899 C898 1.358 . S
C899 H903 0.930 . S
C900 C898 1.356 . S
C900 C901 1.348 . S
C901 C896 1.353 . S
C901 C900 1.348 . S
C901 H953 0.929 . S
H902 C896 0.930 . S
H903 C899 0.930 . S
C904 N905 1.314 . S
C904 C906 1.353 . S
C904 H910 0.930 . S
N905 Li881 1.990 . S
N905 C904 1.314 . S
N905 C908 1.279 . S
C906 C904 1.353 . S
C906 C909 1.348 . S
C906 H954 0.929 . S
C907 C908 1.358 . S
C907 C909 1.356 . S
C907 H955 0.930 . S
C908 N905 1.279 . S
C908 C907 1.358 . S
C908 H911 0.930 . S
C909 C906 1.348 . S
C909 C907 1.356 . S
H910 C904 0.930 . S
H911 C908 0.930 . S
C912 C914 1.348 . S
C912 C915 1.356 . S
C912 O942 1.325 . S
N913 C916 1.314 . S
N913 C917 1.279 . S
C914 C912 1.348 . S
C914 C916 1.353 . S
C914 H956 0.929 . S
C915 C912 1.356 . S
C915 C917 1.358 . S
C915 H957 0.930 . S
C916 N913 1.314 . S
C916 C914 1.353 . S
C916 H958 0.930 . S
C917 N913 1.279 . S
C917 C915 1.358 . S
C917 H959 0.930 . S
C918 C919 1.348 . S
C918 C920 1.356 . S
C918 O943 1.325 . S
C919 C918 1.348 . S
C919 C921 1.353 . S
C919 H960 0.929 . S
C920 C918 1.356 . S
C920 C922 1.358 . S
C920 H961 0.930 . S
C921 C919 1.353 . S
C921 N923 1.314 . S
C921 H962 0.930 . S
C922 C920 1.358 . S
C922 N923 1.279 . S
C922 H963 0.930 . S
N923 C921 1.314 . S
N923 C922 1.279 . S
C924 C926 1.353 . S
C924 N927 1.314 . S
C924 H930 0.930 . S
C925 N927 1.279 1_556 S
C925 C928 1.358 1_556 S
C925 H931 0.930 . S
C926 C924 1.353 . S
C926 C929 1.348 . S
C926 H964 0.929 . S
N927 Li882 1.990 . S
N927 C924 1.314 . S
N927 C925 1.279 1_554 S
C928 C925 1.358 1_554 S
C928 C929 1.356 . S
C928 H965 0.930 1_554 S
C929 C926 1.348 . S
C929 C928 1.356 . S
H930 C924 0.930 . S
H931 C925 0.930 . S
C932 N933 1.314 . S
C932 C934 1.353 . S
C932 H938 0.930 . S
N933 Li883 1.990 . S
N933 C932 1.314 . S
N933 C936 1.279 1_556 S
C934 C932 1.353 . S
C934 C937 1.348 . S
C934 H966 0.929 . S
C935 C936 1.358 1_556 S
C935 C937 1.356 . S
C935 H967 0.930 1_556 S
C936 N933 1.279 1_554 S
C936 C935 1.358 1_554 S
C936 H939 0.930 . S
C937 C934 1.348 . S
C937 C935 1.356 . S
H938 C932 0.930 . S
H939 C936 0.930 . S
O940 Li880 1.956 1_554 S
O940 Li881 1.970 . S
O940 Li882 1.961 . S
O940 C884 1.325 . S
O941 Li880 1.970 . S
O941 Li881 1.956 1_556 S
O941 Li883 1.961 . S
O941 C890 1.325 . S
O942 Li880 1.961 . S
O942 Li882 1.956 1_556 S
O942 Li883 1.970 . S
O942 C912 1.325 . S
O943 Li881 1.961 . S
O943 Li882 1.970 . S
O943 Li883 1.956 1_554 S
O943 C918 1.325 . S
H944 C886 0.929 . S
H945 C887 0.930 1_556 S
H946 C888 0.930 . S
H947 C889 0.930 1_556 S
H948 C891 0.930 1_554 S
H949 C893 0.929 . S
H950 C894 0.930 1_554 S
H951 C895 0.930 . S
H952 C898 0.930 . S
H953 C901 0.929 . S
H954 C906 0.929 . S
H955 C907 0.930 . S
H956 C914 0.929 . S
H957 C915 0.930 . S
H958 C916 0.930 . S
H959 C917 0.930 . S
H960 C919 0.929 . S
H961 C920 0.930 . S
H962 C921 0.930 . S
H963 C922 0.930 . S
H964 C926 0.929 . S
H965 C928 0.930 1_556 S
H966 C934 0.929 . S
H967 C935 0.930 1_554 S
Li968 N985 1.990 . S
Li968 O1028 1.956 . S
Li968 O1029 1.970 . S
Li968 O1030 1.961 . S
Li969 N993 1.990 . S
Li969 O1028 1.970 . S
Li969 O1029 1.956 . S
Li969 O1031 1.961 . S
Li970 N1015 1.990 . S
Li970 O1028 1.961 . S
Li970 O1030 1.956 . S
Li970 O1031 1.970 . S
Li971 N1021 1.990 . S
Li971 O1029 1.961 . S
Li971 O1030 1.970 . S
Li971 O1031 1.956 . S
C972 C974 1.348 . S
C972 C975 1.356 . S
C972 O1028 1.325 . S
N973 C976 1.314 . S
N973 C977 1.279 . S
C974 C972 1.348 . S
C974 C976 1.353 . S
C974 H1032 0.929 . S
C975 C972 1.356 . S
C975 C977 1.358 . S
C975 H1033 0.930 . S
C976 N973 1.314 . S
C976 C974 1.353 . S
C976 H1034 0.930 . S
C977 N973 1.279 . S
C977 C975 1.358 . S
C977 H1035 0.930 . S
C978 C981 1.348 . S
C978 C982 1.356 . S
C978 O1029 1.325 . S
C979 N980 1.279 . S
C979 C982 1.358 . S
C979 H1036 0.930 . S
N980 C979 1.279 . S
N980 C983 1.314 . S
C981 C978 1.348 . S
C981 C983 1.353 . S
C981 H1037 0.929 . S
C982 C978 1.356 . S
C982 C979 1.358 . S
C982 H1038 0.930 . S
C983 N980 1.314 . S
C983 C981 1.353 . S
C983 H1039 0.930 . S
C984 N985 1.314 . S
C984 C989 1.353 . S
C984 H990 0.930 . S
N985 Li968 1.990 . S
N985 C984 1.314 . S
N985 C987 1.279 . S
C986 C987 1.358 . S
C986 C988 1.356 . S
C986 H1040 0.930 . S
C987 N985 1.279 . S
C987 C986 1.358 . S
C987 H991 0.930 . S
C988 C986 1.356 . S
C988 C989 1.348 . S
C989 C984 1.353 . S
C989 C988 1.348 . S
C989 H1041 0.929 . S
H990 C984 0.930 . S
H991 C987 0.930 . S
C992 N993 1.314 . S
C992 C994 1.353 . S
C992 H998 0.930 . S
N993 Li969 1.990 . S
N993 C992 1.314 . S
N993 C996 1.279 . S
C994 C992 1.353 . S
C994 C997 1.348 . S
C994 H1042 0.929 . S
C995 C996 1.358 . S
C995 C997 1.356 . S
C995 H1043 0.930 . S
C996 N993 1.279 . S
C996 C995 1.358 . S
C996 H999 0.930 . S
C997 C994 1.348 . S
C997 C995 1.356 . S
H998 C992 0.930 . S
H999 C996 0.930 . S
C1000 C1002 1.348 . S
C1000 C1003 1.356 . S
C1000 O1030 1.325 . S
N1001 C1004 1.314 . S
N1001 C1005 1.279 . S
C1002 C1000 1.348 . S
C1002 C1004 1.353 . S
C1002 H1044 0.929 . S
C1003 C1000 1.356 . S
C1003 C1005 1.358 . S
C1003 H1045 0.930 . S
C1004 N1001 1.314 . S
C1004 C1002 1.353 . S
C1004 H1046 0.930 . S
C1005 N1001 1.279 . S
C1005 C1003 1.358 . S
C1005 H1047 0.930 . S
C1006 C1007 1.348 . S
C1006 C1008 1.356 . S
C1006 O1031 1.325 . S
C1007 C1006 1.348 . S
C1007 C1009 1.353 . S
C1007 H1048 0.929 . S
C1008 C1006 1.356 . S
C1008 C1010 1.358 . S
C1008 H1049 0.930 . S
C1009 C1007 1.353 . S
C1009 N1011 1.314 . S
C1009 H1050 0.930 . S
C1010 C1008 1.358 . S
C1010 N1011 1.279 . S
C1010 H1051 0.930 . S
N1011 C1009 1.314 . S
N1011 C1010 1.279 . S
C1012 C1014 1.353 . S
C1012 N1015 1.314 . S
C1012 H1018 0.930 . S
C1013 N1015 1.279 . S
C1013 C1016 1.358 . S
C1013 H1019 0.930 . S
C1014 C1012 1.353 . S
C1014 C1017 1.348 . S
C1014 H1052 0.929 . S
N1015 Li970 1.990 . S
N1015 C1012 1.314 . S
N1015 C1013 1.279 . S
C1016 C1013 1.358 . S
C1016 C1017 1.356 . S
C1016 H1053 0.930 . S
C1017 C1014 1.348 . S
C1017 C1016 1.356 . S
H1018 C1012 0.930 . S
H1019 C1013 0.930 . S
C1020 N1021 1.314 . S
C1020 C1022 1.353 . S
C1020 H1026 0.930 . S
N1021 Li971 1.990 . S
N1021 C1020 1.314 . S
N1021 C1024 1.279 . S
C1022 C1020 1.353 . S
C1022 C1025 1.348 . S
C1022 H1054 0.929 . S
C1023 C1024 1.358 . S
C1023 C1025 1.356 . S
C1023 H1055 0.930 . S
C1024 N1021 1.279 . S
C1024 C1023 1.358 . S
C1024 H1027 0.930 . S
C1025 C1022 1.348 . S
C1025 C1023 1.356 . S
H1026 C1020 0.930 . S
H1027 C1024 0.930 . S
O1028 Li968 1.956 . S
O1028 Li969 1.970 . S
O1028 Li970 1.961 . S
O1028 C972 1.325 . S
O1029 Li968 1.970 . S
O1029 Li969 1.956 . S
O1029 Li971 1.961 . S
O1029 C978 1.325 . S
O1030 Li968 1.961 . S
O1030 Li970 1.956 . S
O1030 Li971 1.970 . S
O1030 C1000 1.325 . S
O1031 Li969 1.961 . S
O1031 Li970 1.970 . S
O1031 Li971 1.956 . S
O1031 C1006 1.325 . S
H1032 C974 0.929 . S
H1033 C975 0.930 . S
H1034 C976 0.930 . S
H1035 C977 0.930 . S
H1036 C979 0.930 . S
H1037 C981 0.929 . S
H1038 C982 0.930 . S
H1039 C983 0.930 . S
H1040 C986 0.930 . S
H1041 C989 0.929 . S
H1042 C994 0.929 . S
H1043 C995 0.930 . S
H1044 C1002 0.929 . S
H1045 C1003 0.930 . S
H1046 C1004 0.930 . S
H1047 C1005 0.930 . S
H1048 C1007 0.929 . S
H1049 C1008 0.930 . S
H1050 C1009 0.930 . S
H1051 C1010 0.930 . S
H1052 C1014 0.929 . S
H1053 C1016 0.930 . S
H1054 C1022 0.929 . S
H1055 C1023 0.930 . S
Li1056 N1073 1.990 . S
Li1056 O1116 1.956 . S
Li1056 O1117 1.970 . S
Li1056 O1118 1.961 . S
Li1057 N1081 1.990 . S
Li1057 O1116 1.970 . S
Li1057 O1117 1.956 . S
Li1057 O1119 1.961 . S
Li1058 N1103 1.990 . S
Li1058 O1116 1.961 . S
Li1058 O1118 1.956 . S
Li1058 O1119 1.970 . S
Li1059 N1109 1.990 . S
Li1059 O1117 1.961 . S
Li1059 O1118 1.970 . S
Li1059 O1119 1.956 . S
C1060 C1062 1.348 . S
C1060 C1063 1.356 . S
C1060 O1116 1.325 . S
N1061 C1064 1.314 . S
N1061 C1065 1.279 . S
C1062 C1060 1.348 . S
C1062 C1064 1.353 . S
C1062 H1120 0.929 . S
C1063 C1060 1.356 . S
C1063 C1065 1.358 . S
C1063 H1121 0.930 . S
C1064 N1061 1.314 . S
C1064 C1062 1.353 . S
C1064 H1122 0.930 . S
C1065 N1061 1.279 . S
C1065 C1063 1.358 . S
C1065 H1123 0.930 . S
C1066 C1069 1.348 . S
C1066 C1070 1.356 . S
C1066 O1117 1.325 . S
C1067 N1068 1.279 . S
C1067 C1070 1.358 . S
C1067 H1124 0.930 . S
N1068 C1067 1.279 . S
N1068 C1071 1.314 . S
C1069 C1066 1.348 . S
C1069 C1071 1.353 . S
C1069 H1125 0.929 . S
C1070 C1066 1.356 . S
C1070 C1067 1.358 . S
C1070 H1126 0.930 . S
C1071 N1068 1.314 . S
C1071 C1069 1.353 . S
C1071 H1127 0.930 . S
C1072 N1073 1.314 . S
C1072 C1077 1.353 . S
C1072 H1078 0.930 . S
N1073 Li1056 1.990 . S
N1073 C1072 1.314 . S
N1073 C1075 1.279 . S
C1074 C1075 1.358 . S
C1074 C1076 1.356 . S
C1074 H1128 0.930 . S
C1075 N1073 1.279 . S
C1075 C1074 1.358 . S
C1075 H1079 0.930 . S
C1076 C1074 1.356 . S
C1076 C1077 1.348 . S
C1077 C1072 1.353 . S
C1077 C1076 1.348 . S
C1077 H1129 0.929 . S
H1078 C1072 0.930 . S
H1079 C1075 0.930 . S
C1080 N1081 1.314 . S
C1080 C1082 1.353 . S
C1080 H1086 0.930 . S
N1081 Li1057 1.990 . S
N1081 C1080 1.314 . S
N1081 C1084 1.279 . S
C1082 C1080 1.353 . S
C1082 C1085 1.348 . S
C1082 H1130 0.929 . S
C1083 C1084 1.358 . S
C1083 C1085 1.356 . S
C1083 H1131 0.930 . S
C1084 N1081 1.279 . S
C1084 C1083 1.358 . S
C1084 H1087 0.930 . S
C1085 C1082 1.348 . S
C1085 C1083 1.356 . S
H1086 C1080 0.930 . S
H1087 C1084 0.930 . S
C1088 C1090 1.348 . S
C1088 C1091 1.356 . S
C1088 O1118 1.325 . S
N1089 C1092 1.314 . S
N1089 C1093 1.279 . S
C1090 C1088 1.348 . S
C1090 C1092 1.353 . S
C1090 H1132 0.929 . S
C1091 C1088 1.356 . S
C1091 C1093 1.358 . S
C1091 H1133 0.930 . S
C1092 N1089 1.314 . S
C1092 C1090 1.353 . S
C1092 H1134 0.930 . S
C1093 N1089 1.279 . S
C1093 C1091 1.358 . S
C1093 H1135 0.930 . S
C1094 C1095 1.348 . S
C1094 C1096 1.356 . S
C1094 O1119 1.325 . S
C1095 C1094 1.348 . S
C1095 C1097 1.353 . S
C1095 H1136 0.929 . S
C1096 C1094 1.356 . S
C1096 C1098 1.358 . S
C1096 H1137 0.930 . S
C1097 C1095 1.353 . S
C1097 N1099 1.314 . S
C1097 H1138 0.930 . S
C1098 C1096 1.358 . S
C1098 N1099 1.279 . S
C1098 H1139 0.930 . S
N1099 C1097 1.314 . S
N1099 C1098 1.279 . S
C1100 C1102 1.353 . S
C1100 N1103 1.314 . S
C1100 H1106 0.930 . S
C1101 N1103 1.279 . S
C1101 C1104 1.358 . S
C1101 H1107 0.930 . S
C1102 C1100 1.353 . S
C1102 C1105 1.348 . S
C1102 H1140 0.929 . S
N1103 Li1058 1.990 . S
N1103 C1100 1.314 . S
N1103 C1101 1.279 . S
C1104 C1101 1.358 . S
C1104 C1105 1.356 . S
C1104 H1141 0.930 . S
C1105 C1102 1.348 . S
C1105 C1104 1.356 . S
H1106 C1100 0.930 . S
H1107 C1101 0.930 . S
C1108 N1109 1.314 . S
C1108 C1110 1.353 . S
C1108 H1114 0.930 . S
N1109 Li1059 1.990 . S
N1109 C1108 1.314 . S
N1109 C1112 1.279 . S
C1110 C1108 1.353 . S
C1110 C1113 1.348 . S
C1110 H1142 0.929 . S
C1111 C1112 1.358 . S
C1111 C1113 1.356 . S
C1111 H1143 0.930 . S
C1112 N1109 1.279 . S
C1112 C1111 1.358 . S
C1112 H1115 0.930 . S
C1113 C1110 1.348 . S
C1113 C1111 1.356 . S
H1114 C1108 0.930 . S
H1115 C1112 0.930 . S
O1116 Li1056 1.956 . S
O1116 Li1057 1.970 . S
O1116 Li1058 1.961 . S
O1116 C1060 1.325 . S
O1117 Li1056 1.970 . S
O1117 Li1057 1.956 . S
O1117 Li1059 1.961 . S
O1117 C1066 1.325 . S
O1118 Li1056 1.961 . S
O1118 Li1058 1.956 . S
O1118 Li1059 1.970 . S
O1118 C1088 1.325 . S
O1119 Li1057 1.961 . S
O1119 Li1058 1.970 . S
O1119 Li1059 1.956 . S
O1119 C1094 1.325 . S
H1120 C1062 0.929 . S
H1121 C1063 0.930 . S
H1122 C1064 0.930 . S
H1123 C1065 0.930 . S
H1124 C1067 0.930 . S
H1125 C1069 0.929 . S
H1126 C1070 0.930 . S
H1127 C1071 0.930 . S
H1128 C1074 0.930 . S
H1129 C1077 0.929 . S
H1130 C1082 0.929 . S
H1131 C1083 0.930 . S
H1132 C1090 0.929 . S
H1133 C1091 0.930 . S
H1134 C1092 0.930 . S
H1135 C1093 0.930 . S
H1136 C1095 0.929 . S
H1137 C1096 0.930 . S
H1138 C1097 0.930 . S
H1139 C1098 0.930 . S
H1140 C1102 0.929 . S
H1141 C1104 0.930 . S
H1142 C1110 0.929 . S
H1143 C1111 0.930 . S
Li1144 N1161 1.990 . S
Li1144 O1204 1.956 . S
Li1144 O1205 1.970 . S
Li1144 O1206 1.961 . S
Li1145 N1169 1.990 . S
Li1145 O1204 1.970 . S
Li1145 O1205 1.956 . S
Li1145 O1207 1.961 . S
Li1146 N1191 1.990 . S
Li1146 O1204 1.961 . S
Li1146 O1206 1.956 . S
Li1146 O1207 1.970 . S
Li1147 N1197 1.990 . S
Li1147 O1205 1.961 . S
Li1147 O1206 1.970 . S
Li1147 O1207 1.956 . S
C1148 C1150 1.348 . S
C1148 C1151 1.356 . S
C1148 O1204 1.325 . S
N1149 C1152 1.314 . S
N1149 C1153 1.279 . S
C1150 C1148 1.348 . S
C1150 C1152 1.353 . S
C1150 H1208 0.929 . S
C1151 C1148 1.356 . S
C1151 C1153 1.358 . S
C1151 H1209 0.930 . S
C1152 N1149 1.314 . S
C1152 C1150 1.353 . S
C1152 H1210 0.930 . S
C1153 N1149 1.279 . S
C1153 C1151 1.358 . S
C1153 H1211 0.930 . S
C1154 C1157 1.348 . S
C1154 C1158 1.356 . S
C1154 O1205 1.325 . S
C1155 N1156 1.279 . S
C1155 C1158 1.358 . S
C1155 H1212 0.930 . S
N1156 C1155 1.279 . S
N1156 C1159 1.314 . S
C1157 C1154 1.348 . S
C1157 C1159 1.353 . S
C1157 H1213 0.929 . S
C1158 C1154 1.356 . S
C1158 C1155 1.358 . S
C1158 H1214 0.930 . S
C1159 N1156 1.314 . S
C1159 C1157 1.353 . S
C1159 H1215 0.930 . S
C1160 N1161 1.314 . S
C1160 C1165 1.353 . S
C1160 H1166 0.930 . S
N1161 Li1144 1.990 . S
N1161 C1160 1.314 . S
N1161 C1163 1.279 . S
C1162 C1163 1.358 . S
C1162 C1164 1.356 . S
C1162 H1216 0.930 . S
C1163 N1161 1.279 . S
C1163 C1162 1.358 . S
C1163 H1167 0.930 . S
C1164 C1162 1.356 . S
C1164 C1165 1.348 . S
C1165 C1160 1.353 . S
C1165 C1164 1.348 . S
C1165 H1217 0.929 . S
H1166 C1160 0.930 . S
H1167 C1163 0.930 . S
C1168 N1169 1.314 . S
C1168 C1170 1.353 . S
C1168 H1174 0.930 . S
N1169 Li1145 1.990 . S
N1169 C1168 1.314 . S
N1169 C1172 1.279 . S
C1170 C1168 1.353 . S
C1170 C1173 1.348 . S
C1170 H1218 0.929 . S
C1171 C1172 1.358 . S
C1171 C1173 1.356 . S
C1171 H1219 0.930 . S
C1172 N1169 1.279 . S
C1172 C1171 1.358 . S
C1172 H1175 0.930 . S
C1173 C1170 1.348 . S
C1173 C1171 1.356 . S
H1174 C1168 0.930 . S
H1175 C1172 0.930 . S
C1176 C1178 1.348 . S
C1176 C1179 1.356 . S
C1176 O1206 1.325 . S
N1177 C1180 1.314 . S
N1177 C1181 1.279 . S
C1178 C1176 1.348 . S
C1178 C1180 1.353 . S
C1178 H1220 0.929 . S
C1179 C1176 1.356 . S
C1179 C1181 1.358 . S
C1179 H1221 0.930 . S
C1180 N1177 1.314 . S
C1180 C1178 1.353 . S
C1180 H1222 0.930 . S
C1181 N1177 1.279 . S
C1181 C1179 1.358 . S
C1181 H1223 0.930 . S
C1182 C1183 1.348 . S
C1182 C1184 1.356 . S
C1182 O1207 1.325 . S
C1183 C1182 1.348 . S
C1183 C1185 1.353 . S
C1183 H1224 0.929 . S
C1184 C1182 1.356 . S
C1184 C1186 1.358 . S
C1184 H1225 0.930 . S
C1185 C1183 1.353 . S
C1185 N1187 1.314 . S
C1185 H1226 0.930 . S
C1186 C1184 1.358 . S
C1186 N1187 1.279 . S
C1186 H1227 0.930 . S
N1187 C1185 1.314 . S
N1187 C1186 1.279 . S
C1188 C1190 1.353 . S
C1188 N1191 1.314 . S
C1188 H1194 0.930 . S
C1189 N1191 1.279 . S
C1189 C1192 1.358 . S
C1189 H1195 0.930 . S
C1190 C1188 1.353 . S
C1190 C1193 1.348 . S
C1190 H1228 0.929 . S
N1191 Li1146 1.990 . S
N1191 C1188 1.314 . S
N1191 C1189 1.279 . S
C1192 C1189 1.358 . S
C1192 C1193 1.356 . S
C1192 H1229 0.930 . S
C1193 C1190 1.348 . S
C1193 C1192 1.356 . S
H1194 C1188 0.930 . S
H1195 C1189 0.930 . S
C1196 N1197 1.314 . S
C1196 C1198 1.353 . S
C1196 H1202 0.930 . S
N1197 Li1147 1.990 . S
N1197 C1196 1.314 . S
N1197 C1200 1.279 . S
C1198 C1196 1.353 . S
C1198 C1201 1.348 . S
C1198 H1230 0.929 . S
C1199 C1200 1.358 . S
C1199 C1201 1.356 . S
C1199 H1231 0.930 . S
C1200 N1197 1.279 . S
C1200 C1199 1.358 . S
C1200 H1203 0.930 . S
C1201 C1198 1.348 . S
C1201 C1199 1.356 . S
H1202 C1196 0.930 . S
H1203 C1200 0.930 . S
O1204 Li1144 1.956 . S
O1204 Li1145 1.970 . S
O1204 Li1146 1.961 . S
O1204 C1148 1.325 . S
O1205 Li1144 1.970 . S
O1205 Li1145 1.956 . S
O1205 Li1147 1.961 . S
O1205 C1154 1.325 . S
O1206 Li1144 1.961 . S
O1206 Li1146 1.956 . S
O1206 Li1147 1.970 . S
O1206 C1176 1.325 . S
O1207 Li1145 1.961 . S
O1207 Li1146 1.970 . S
O1207 Li1147 1.956 . S
O1207 C1182 1.325 . S
H1208 C1150 0.929 . S
H1209 C1151 0.930 . S
H1210 C1152 0.930 . S
H1211 C1153 0.930 . S
H1212 C1155 0.930 . S
H1213 C1157 0.929 . S
H1214 C1158 0.930 . S
H1215 C1159 0.930 . S
H1216 C1162 0.930 . S
H1217 C1165 0.929 . S
H1218 C1170 0.929 . S
H1219 C1171 0.930 . S
H1220 C1178 0.929 . S
H1221 C1179 0.930 . S
H1222 C1180 0.930 . S
H1223 C1181 0.930 . S
H1224 C1183 0.929 . S
H1225 C1184 0.930 . S
H1226 C1185 0.930 . S
H1227 C1186 0.930 . S
H1228 C1190 0.929 . S
H1229 C1192 0.930 . S
H1230 C1198 0.929 . S
H1231 C1199 0.930 . S
Li1232 N1249 1.990 . S
Li1232 O1292 1.956 . S
Li1232 O1293 1.970 . S
Li1232 O1294 1.961 1_554 S
Li1233 N1257 1.990 . S
Li1233 O1292 1.970 . S
Li1233 O1293 1.956 . S
Li1233 O1295 1.961 1_554 S
Li1234 N1279 1.990 . S
Li1234 O1292 1.961 1_556 S
Li1234 O1294 1.956 . S
Li1234 O1295 1.970 . S
Li1235 N1285 1.990 . S
Li1235 O1293 1.961 1_556 S
Li1235 O1294 1.970 . S
Li1235 O1295 1.956 . S
C1236 C1238 1.348 . S
C1236 C1239 1.356 . S
C1236 O1292 1.325 . S
N1237 C1240 1.314 . S
N1237 C1241 1.279 . S
C1238 C1236 1.348 . S
C1238 C1240 1.353 . S
C1238 H1296 0.929 . S
C1239 C1236 1.356 . S
C1239 C1241 1.358 . S
C1239 H1297 0.930 . S
C1240 N1237 1.314 . S
C1240 C1238 1.353 . S
C1240 H1298 0.930 . S
C1241 N1237 1.279 . S
C1241 C1239 1.358 . S
C1241 H1299 0.930 . S
C1242 C1245 1.348 . S
C1242 C1246 1.356 1_554 S
C1242 O1293 1.325 . S
C1243 N1244 1.279 . S
C1243 C1246 1.358 1_554 S
C1243 H1300 0.930 1_554 S
N1244 C1243 1.279 . S
N1244 C1247 1.314 . S
C1245 C1242 1.348 . S
C1245 C1247 1.353 . S
C1245 H1301 0.929 . S
C1246 C1242 1.356 1_556 S
C1246 C1243 1.358 1_556 S
C1246 H1302 0.930 . S
C1247 N1244 1.314 . S
C1247 C1245 1.353 . S
C1247 H1303 0.930 . S
C1248 N1249 1.314 . S
C1248 C1253 1.353 . S
C1248 H1254 0.930 . S
N1249 Li1232 1.990 . S
N1249 C1248 1.314 . S
N1249 C1251 1.279 . S
C1250 C1251 1.358 . S
C1250 C1252 1.356 . S
C1250 H1304 0.930 . S
C1251 N1249 1.279 . S
C1251 C1250 1.358 . S
C1251 H1255 0.930 . S
C1252 C1250 1.356 . S
C1252 C1253 1.348 . S
C1253 C1248 1.353 . S
C1253 C1252 1.348 . S
C1253 H1305 0.929 . S
H1254 C1248 0.930 . S
H1255 C1251 0.930 . S
C1256 N1257 1.314 . S
C1256 C1258 1.353 . S
C1256 H1262 0.930 1_554 S
N1257 Li1233 1.990 . S
N1257 C1256 1.314 . S
N1257 C1260 1.279 . S
C1258 C1256 1.353 . S
C1258 C1261 1.348 . S
C1258 H1306 0.929 . S
C1259 C1260 1.358 . S
C1259 C1261 1.356 . S
C1259 H1307 0.930 . S
C1260 N1257 1.279 . S
C1260 C1259 1.358 . S
C1260 H1263 0.930 . S
C1261 C1258 1.348 . S
C1261 C1259 1.356 . S
H1262 C1256 0.930 1_556 S
H1263 C1260 0.930 . S
C1264 C1266 1.348 . S
C1264 C1267 1.356 1_556 S
C1264 O1294 1.325 . S
N1265 C1268 1.314 . S
N1265 C1269 1.279 . S
C1266 C1264 1.348 . S
C1266 C1268 1.353 . S
C1266 H1308 0.929 . S
C1267 C1264 1.356 1_554 S
C1267 C1269 1.358 1_554 S
C1267 H1309 0.930 . S
C1268 N1265 1.314 . S
C1268 C1266 1.353 . S
C1268 H1310 0.930 . S
C1269 N1265 1.279 . S
C1269 C1267 1.358 1_556 S
C1269 H1311 0.930 1_556 S
C1270 C1271 1.348 . S
C1270 C1272 1.356 . S
C1270 O1295 1.325 . S
C1271 C1270 1.348 . S
C1271 C1273 1.353 . S
C1271 H1312 0.929 . S
C1272 C1270 1.356 . S
C1272 C1274 1.358 . S
C1272 H1313 0.930 . S
C1273 C1271 1.353 . S
C1273 N1275 1.314 . S
C1273 H1314 0.930 . S
C1274 C1272 1.358 . S
C1274 N1275 1.279 . S
C1274 H1315 0.930 . S
N1275 C1273 1.314 . S
N1275 C1274 1.279 . S
C1276 C1278 1.353 . S
C1276 N1279 1.314 . S
C1276 H1282 0.930 1_556 S
C1277 N1279 1.279 . S
C1277 C1280 1.358 . S
C1277 H1283 0.930 . S
C1278 C1276 1.353 . S
C1278 C1281 1.348 . S
C1278 H1316 0.929 . S
N1279 Li1234 1.990 . S
N1279 C1276 1.314 . S
N1279 C1277 1.279 . S
C1280 C1277 1.358 . S
C1280 C1281 1.356 . S
C1280 H1317 0.930 . S
C1281 C1278 1.348 . S
C1281 C1280 1.356 . S
H1282 C1276 0.930 1_554 S
H1283 C1277 0.930 . S
C1284 N1285 1.314 . S
C1284 C1286 1.353 . S
C1284 H1290 0.930 . S
N1285 Li1235 1.990 . S
N1285 C1284 1.314 . S
N1285 C1288 1.279 . S
C1286 C1284 1.353 . S
C1286 C1289 1.348 . S
C1286 H1318 0.929 . S
C1287 C1288 1.358 . S
C1287 C1289 1.356 . S
C1287 H1319 0.930 . S
C1288 N1285 1.279 . S
C1288 C1287 1.358 . S
C1288 H1291 0.930 . S
C1289 C1286 1.348 . S
C1289 C1287 1.356 . S
H1290 C1284 0.930 . S
H1291 C1288 0.930 . S
O1292 Li1232 1.956 . S
O1292 Li1233 1.970 . S
O1292 Li1234 1.961 1_554 S
O1292 C1236 1.325 . S
O1293 Li1232 1.970 . S
O1293 Li1233 1.956 . S
O1293 Li1235 1.961 1_554 S
O1293 C1242 1.325 . S
O1294 Li1232 1.961 1_556 S
O1294 Li1234 1.956 . S
O1294 Li1235 1.970 . S
O1294 C1264 1.325 . S
O1295 Li1233 1.961 1_556 S
O1295 Li1234 1.970 . S
O1295 Li1235 1.956 . S
O1295 C1270 1.325 . S
H1296 C1238 0.929 . S
H1297 C1239 0.930 . S
H1298 C1240 0.930 . S
H1299 C1241 0.930 . S
H1300 C1243 0.930 1_556 S
H1301 C1245 0.929 . S
H1302 C1246 0.930 . S
H1303 C1247 0.930 . S
H1304 C1250 0.930 . S
H1305 C1253 0.929 . S
H1306 C1258 0.929 . S
H1307 C1259 0.930 . S
H1308 C1266 0.929 . S
H1309 C1267 0.930 . S
H1310 C1268 0.930 . S
H1311 C1269 0.930 1_554 S
H1312 C1271 0.929 . S
H1313 C1272 0.930 . S
H1314 C1273 0.930 . S
H1315 C1274 0.930 . S
H1316 C1278 0.929 . S
H1317 C1280 0.930 . S
H1318 C1286 0.929 . S
H1319 C1287 0.930 . S
Li1320 N1337 1.990 . S
Li1320 O1380 1.956 . S
Li1320 O1381 1.970 . S
Li1320 O1382 1.961 . S
Li1321 N1345 1.990 . S
Li1321 O1380 1.970 . S
Li1321 O1381 1.956 . S
Li1321 O1383 1.961 . S
Li1322 N1367 1.990 . S
Li1322 O1380 1.961 . S
Li1322 O1382 1.956 . S
Li1322 O1383 1.970 . S
Li1323 N1373 1.990 . S
Li1323 O1381 1.961 . S
Li1323 O1382 1.970 . S
Li1323 O1383 1.956 . S
C1324 C1326 1.348 . S
C1324 C1327 1.356 . S
C1324 O1380 1.325 . S
N1325 C1328 1.314 . S
N1325 C1329 1.279 . S
C1326 C1324 1.348 . S
C1326 C1328 1.353 . S
C1326 H1384 0.929 . S
C1327 C1324 1.356 . S
C1327 C1329 1.358 . S
C1327 H1385 0.930 . S
C1328 N1325 1.314 . S
C1328 C1326 1.353 . S
C1328 H1386 0.930 . S
C1329 N1325 1.279 . S
C1329 C1327 1.358 . S
C1329 H1387 0.930 . S
C1330 C1333 1.348 . S
C1330 C1334 1.356 . S
C1330 O1381 1.325 . S
C1331 N1332 1.279 . S
C1331 C1334 1.358 . S
C1331 H1388 0.930 . S
N1332 C1331 1.279 . S
N1332 C1335 1.314 . S
C1333 C1330 1.348 . S
C1333 C1335 1.353 . S
C1333 H1389 0.929 . S
C1334 C1330 1.356 . S
C1334 C1331 1.358 . S
C1334 H1390 0.930 . S
C1335 N1332 1.314 . S
C1335 C1333 1.353 . S
C1335 H1391 0.930 . S
C1336 N1337 1.314 . S
C1336 C1341 1.353 . S
C1336 H1342 0.930 . S
N1337 Li1320 1.990 . S
N1337 C1336 1.314 . S
N1337 C1339 1.279 . S
C1338 C1339 1.358 . S
C1338 C1340 1.356 . S
C1338 H1392 0.930 . S
C1339 N1337 1.279 . S
C1339 C1338 1.358 . S
C1339 H1343 0.930 . S
C1340 C1338 1.356 . S
C1340 C1341 1.348 . S
C1341 C1336 1.353 . S
C1341 C1340 1.348 . S
C1341 H1393 0.929 . S
H1342 C1336 0.930 . S
H1343 C1339 0.930 . S
C1344 N1345 1.314 . S
C1344 C1346 1.353 . S
C1344 H1350 0.930 . S
N1345 Li1321 1.990 . S
N1345 C1344 1.314 . S
N1345 C1348 1.279 . S
C1346 C1344 1.353 . S
C1346 C1349 1.348 . S
C1346 H1394 0.929 . S
C1347 C1348 1.358 . S
C1347 C1349 1.356 . S
C1347 H1395 0.930 . S
C1348 N1345 1.279 . S
C1348 C1347 1.358 . S
C1348 H1351 0.930 . S
C1349 C1346 1.348 . S
C1349 C1347 1.356 . S
H1350 C1344 0.930 . S
H1351 C1348 0.930 . S
C1352 C1354 1.348 . S
C1352 C1355 1.356 . S
C1352 O1382 1.325 . S
N1353 C1356 1.314 . S
N1353 C1357 1.279 . S
C1354 C1352 1.348 . S
C1354 C1356 1.353 . S
C1354 H1396 0.929 . S
C1355 C1352 1.356 . S
C1355 C1357 1.358 . S
C1355 H1397 0.930 . S
C1356 N1353 1.314 . S
C1356 C1354 1.353 . S
C1356 H1398 0.930 . S
C1357 N1353 1.279 . S
C1357 C1355 1.358 . S
C1357 H1399 0.930 . S
C1358 C1359 1.348 . S
C1358 C1360 1.356 . S
C1358 O1383 1.325 . S
C1359 C1358 1.348 . S
C1359 C1361 1.353 . S
C1359 H1400 0.929 . S
C1360 C1358 1.356 . S
C1360 C1362 1.358 . S
C1360 H1401 0.930 . S
C1361 C1359 1.353 . S
C1361 N1363 1.314 . S
C1361 H1402 0.930 . S
C1362 C1360 1.358 . S
C1362 N1363 1.279 . S
C1362 H1403 0.930 . S
N1363 C1361 1.314 . S
N1363 C1362 1.279 . S
C1364 C1366 1.353 . S
C1364 N1367 1.314 . S
C1364 H1370 0.930 . S
C1365 N1367 1.279 . S
C1365 C1368 1.358 . S
C1365 H1371 0.930 . S
C1366 C1364 1.353 . S
C1366 C1369 1.348 . S
C1366 H1404 0.929 . S
N1367 Li1322 1.990 . S
N1367 C1364 1.314 . S
N1367 C1365 1.279 . S
C1368 C1365 1.358 . S
C1368 C1369 1.356 . S
C1368 H1405 0.930 . S
C1369 C1366 1.348 . S
C1369 C1368 1.356 . S
H1370 C1364 0.930 . S
H1371 C1365 0.930 . S
C1372 N1373 1.314 . S
C1372 C1374 1.353 . S
C1372 H1378 0.930 . S
N1373 Li1323 1.990 . S
N1373 C1372 1.314 . S
N1373 C1376 1.279 . S
C1374 C1372 1.353 . S
C1374 C1377 1.348 . S
C1374 H1406 0.929 . S
C1375 C1376 1.358 . S
C1375 C1377 1.356 . S
C1375 H1407 0.930 . S
C1376 N1373 1.279 . S
C1376 C1375 1.358 . S
C1376 H1379 0.930 . S
C1377 C1374 1.348 . S
C1377 C1375 1.356 . S
H1378 C1372 0.930 . S
H1379 C1376 0.930 . S
O1380 Li1320 1.956 . S
O1380 Li1321 1.970 . S
O1380 Li1322 1.961 . S
O1380 C1324 1.325 . S
O1381 Li1320 1.970 . S
O1381 Li1321 1.956 . S
O1381 Li1323 1.961 . S
O1381 C1330 1.325 . S
O1382 Li1320 1.961 . S
O1382 Li1322 1.956 . S
O1382 Li1323 1.970 . S
O1382 C1352 1.325 . S
O1383 Li1321 1.961 . S
O1383 Li1322 1.970 . S
O1383 Li1323 1.956 . S
O1383 C1358 1.325 . S
H1384 C1326 0.929 . S
H1385 C1327 0.930 . S
H1386 C1328 0.930 . S
H1387 C1329 0.930 . S
H1388 C1331 0.930 . S
H1389 C1333 0.929 . S
H1390 C1334 0.930 . S
H1391 C1335 0.930 . S
H1392 C1338 0.930 . S
H1393 C1341 0.929 . S
H1394 C1346 0.929 . S
H1395 C1347 0.930 . S
H1396 C1354 0.929 . S
H1397 C1355 0.930 . S
H1398 C1356 0.930 . S
H1399 C1357 0.930 . S
H1400 C1359 0.929 . S
H1401 C1360 0.930 . S
H1402 C1361 0.930 . S
H1403 C1362 0.930 . S
H1404 C1366 0.929 . S
H1405 C1368 0.930 . S
H1406 C1374 0.929 . S
H1407 C1375 0.930 . S
H1408 C1414 0.930 . S
H1409 C1417 0.930 . S
H1410 C1418 0.930 . S
H1411 C1419 0.930 . S
H1412 C1422 0.930 . S
H1413 C1423 0.930 . S
C1414 H1408 0.930 . S
C1414 C1415 1.355 . S
C1414 C1416 1.415 . S
C1415 C1414 1.355 . S
C1415 C1417 1.419 . S
C1416 C1414 1.415 . S
C1416 C1421 1.425 . S
C1416 C1423 1.409 . S
C1417 H1409 0.930 . S
C1417 C1415 1.419 . S
C1417 C1418 1.362 . S
C1418 H1410 0.930 . S
C1418 C1417 1.362 . S
C1418 C1421 1.409 . S
C1419 H1411 0.930 . S
C1419 C1420 1.355 . S
C1419 C1421 1.415 . S
C1420 C1419 1.355 . S
C1420 C1422 1.419 . S
C1421 C1416 1.425 . S
C1421 C1418 1.409 . S
C1421 C1419 1.415 . S
C1422 H1412 0.930 . S
C1422 C1420 1.419 . S
C1422 C1423 1.362 . S
C1423 H1413 0.930 . S
C1423 C1416 1.409 . S
C1423 C1422 1.362 . S
H1424 C1430 0.930 1_565 S
H1425 C1433 0.930 . S
H1426 C1434 0.930 . S
H1427 C1435 0.930 1_545 S
H1428 C1438 0.930 . S
H1429 C1439 0.930 . S
C1430 H1424 0.930 1_545 S
C1430 C1431 1.355 . S
C1430 C1432 1.415 1_545 S
C1431 C1430 1.355 . S
C1431 C1433 1.419 . S
C1432 C1430 1.415 1_565 S
C1432 C1437 1.425 1_665 S
C1432 C1439 1.409 . S
C1433 H1425 0.930 . S
C1433 C1431 1.419 . S
C1433 C1434 1.362 1_655 S
C1434 H1426 0.930 . S
C1434 C1433 1.362 1_455 S
C1434 C1437 1.409 . S
C1435 H1427 0.930 1_565 S
C1435 C1436 1.355 . S
C1435 C1437 1.415 1_565 S
C1436 C1435 1.355 . S
C1436 C1438 1.419 . S
C1437 C1432 1.425 1_445 S
C1437 C1434 1.409 . S
C1437 C1435 1.415 1_545 S
C1438 H1428 0.930 . S
C1438 C1436 1.419 . S
C1438 C1439 1.362 1_455 S
C1439 H1429 0.930 . S
C1439 C1432 1.409 . S
C1439 C1438 1.362 1_655 S
H1440 C1446 0.930 . S
H1441 C1449 0.930 . S
H1442 C1450 0.930 . S
H1443 C1451 0.930 . S
H1444 C1454 0.930 . S
H1445 C1455 0.930 . S
C1446 H1440 0.930 . S
C1446 C1447 1.355 . S
C1446 C1448 1.415 . S
C1447 C1446 1.355 . S
C1447 C1449 1.419 . S
C1448 C1446 1.415 . S
C1448 C1453 1.425 . S
C1448 C1455 1.409 . S
C1449 H1441 0.930 . S
C1449 C1447 1.419 . S
C1449 C1450 1.362 . S
C1450 H1442 0.930 . S
C1450 C1449 1.362 . S
C1450 C1453 1.409 . S
C1451 H1443 0.930 . S
C1451 C1452 1.355 . S
C1451 C1453 1.415 . S
C1452 C1451 1.355 . S
C1452 C1454 1.419 . S
C1453 C1448 1.425 . S
C1453 C1450 1.409 . S
C1453 C1451 1.415 . S
C1454 H1444 0.930 . S
C1454 C1452 1.419 . S
C1454 C1455 1.362 . S
C1455 H1445 0.930 . S
C1455 C1448 1.409 . S
C1455 C1454 1.362 . S
H1456 C1462 0.930 . S
H1457 C1465 0.930 . S
H1458 C1466 0.930 . S
H1459 C1467 0.930 . S
H1460 C1470 0.930 . S
H1461 C1471 0.930 . S
C1462 H1456 0.930 . S
C1462 C1463 1.355 . S
C1462 C1464 1.415 1_544 S
C1463 C1462 1.355 . S
C1463 C1465 1.419 . S
C1464 C1462 1.415 1_566 S
C1464 C1469 1.425 1_566 S
C1464 C1471 1.409 . S
C1465 H1457 0.930 . S
C1465 C1463 1.419 . S
C1465 C1466 1.362 . S
C1466 H1458 0.930 . S
C1466 C1465 1.362 . S
C1466 C1469 1.409 . S
C1467 H1459 0.930 . S
C1467 C1468 1.355 . S
C1467 C1469 1.415 1_566 S
C1468 C1467 1.355 . S
C1468 C1470 1.419 . S
C1469 C1464 1.425 1_544 S
C1469 C1466 1.409 . S
C1469 C1467 1.415 1_544 S
C1470 H1460 0.930 . S
C1470 C1468 1.419 . S
C1470 C1471 1.362 . S
C1471 H1461 0.930 . S
C1471 C1464 1.409 . S
C1471 C1470 1.362 . S
H1472 C1478 0.930 . S
H1473 C1481 0.930 . S
H1474 C1482 0.930 . S
H1475 C1483 0.930 . S
H1476 C1486 0.930 . S
H1477 C1487 0.930 . S
C1478 H1472 0.930 . S
C1478 C1479 1.355 . S
C1478 C1480 1.415 . S
C1479 C1478 1.355 . S
C1479 C1481 1.419 . S
C1480 C1478 1.415 . S
C1480 C1485 1.425 . S
C1480 C1487 1.409 . S
C1481 H1473 0.930 . S
C1481 C1479 1.419 . S
C1481 C1482 1.362 . S
C1482 H1474 0.930 . S
C1482 C1481 1.362 . S
C1482 C1485 1.409 . S
C1483 H1475 0.930 . S
C1483 C1484 1.355 . S
C1483 C1485 1.415 . S
C1484 C1483 1.355 . S
C1484 C1486 1.419 . S
C1485 C1480 1.425 . S
C1485 C1482 1.409 . S
C1485 C1483 1.415 . S
C1486 H1476 0.930 . S
C1486 C1484 1.419 . S
C1486 C1487 1.362 . S
C1487 H1477 0.930 . S
C1487 C1480 1.409 . S
C1487 C1486 1.362 . S
H1488 C1494 0.930 . S
H1489 C1497 0.930 . S
H1490 C1498 0.930 . S
H1491 C1499 0.930 . S
H1492 C1502 0.930 . S
H1493 C1503 0.930 . S
C1494 H1488 0.930 . S
C1494 C1495 1.355 . S
C1494 C1496 1.415 . S
C1495 C1494 1.355 . S
C1495 C1497 1.419 1_565 S
C1496 C1494 1.415 . S
C1496 C1501 1.425 1_565 S
C1496 C1503 1.409 . S
C1497 H1489 0.930 . S
C1497 C1495 1.419 1_545 S
C1497 C1498 1.362 . S
C1498 H1490 0.930 . S
C1498 C1497 1.362 . S
C1498 C1501 1.409 . S
C1499 H1491 0.930 . S
C1499 C1500 1.355 . S
C1499 C1501 1.415 . S
C1500 C1499 1.355 . S
C1500 C1502 1.419 1_545 S
C1501 C1496 1.425 1_545 S
C1501 C1498 1.409 . S
C1501 C1499 1.415 . S
C1502 H1492 0.930 . S
C1502 C1500 1.419 1_565 S
C1502 C1503 1.362 . S
C1503 H1493 0.930 . S
C1503 C1496 1.409 . S
C1503 C1502 1.362 . S
H1504 C1510 0.930 . S
H1505 C1513 0.930 . S
H1506 C1514 0.930 . S
H1507 C1515 0.930 . S
H1508 C1518 0.930 . S
H1509 C1519 0.930 . S
C1510 H1504 0.930 . S
C1510 C1511 1.355 . S
C1510 C1512 1.415 . S
C1511 C1510 1.355 . S
C1511 C1513 1.419 . S
C1512 C1510 1.415 . S
C1512 C1517 1.425 . S
C1512 C1519 1.409 . S
C1513 H1505 0.930 . S
C1513 C1511 1.419 . S
C1513 C1514 1.362 . S
C1514 H1506 0.930 . S
C1514 C1513 1.362 . S
C1514 C1517 1.409 . S
C1515 H1507 0.930 . S
C1515 C1516 1.355 . S
C1515 C1517 1.415 . S
C1516 C1515 1.355 . S
C1516 C1518 1.419 . S
C1517 C1512 1.425 . S
C1517 C1514 1.409 . S
C1517 C1515 1.415 . S
C1518 H1508 0.930 . S
C1518 C1516 1.419 . S
C1518 C1519 1.362 . S
C1519 H1509 0.930 . S
C1519 C1512 1.409 . S
C1519 C1518 1.362 . S
H1520 C1526 0.930 . S
H1521 C1529 0.925 1_554 S
H1522 C1530 0.930 . S
H1523 C1531 0.930 . S
H1524 C1534 0.927 1_556 S
H1525 C1535 0.930 . S
C1526 H1520 0.930 . S
C1526 C1527 1.355 . S
C1526 C1528 1.415 1_445 S
C1527 C1526 1.355 . S
C1527 C1529 1.439 . S
C1528 C1526 1.415 1_665 S
C1528 C1533 1.425 1_666 S
C1528 C1535 1.409 . S
C1529 H1521 0.925 1_556 S
C1529 C1527 1.439 . S
C1529 C1530 1.348 1_556 S
C1530 H1522 0.930 . S
C1530 C1529 1.348 1_554 S
C1530 C1533 1.409 . S
C1531 H1523 0.930 . S
C1531 C1532 1.355 . S
C1531 C1533 1.415 1_665 S
C1532 C1531 1.355 . S
C1532 C1534 1.430 . S
C1533 C1528 1.425 1_444 S
C1533 C1530 1.409 . S
C1533 C1531 1.415 1_445 S
C1534 H1524 0.927 1_554 S
C1534 C1532 1.430 . S
C1534 C1535 1.354 1_554 S
C1535 H1525 0.930 . S
C1535 C1528 1.409 . S
C1535 C1534 1.354 1_556 S
H1536 C1542 0.930 . S
H1537 C1545 0.930 . S
H1538 C1546 0.930 . S
H1539 C1547 0.930 . S
H1540 C1550 0.930 . S
H1541 C1551 0.930 . S
C1542 H1536 0.930 . S
C1542 C1543 1.355 . S
C1542 C1544 1.415 . S
C1543 C1542 1.355 . S
C1543 C1545 1.419 . S
C1544 C1542 1.415 . S
C1544 C1549 1.425 . S
C1544 C1551 1.409 . S
C1545 H1537 0.930 . S
C1545 C1543 1.419 . S
C1545 C1546 1.362 . S
C1546 H1538 0.930 . S
C1546 C1545 1.362 . S
C1546 C1549 1.409 . S
C1547 H1539 0.930 . S
C1547 C1548 1.355 . S
C1547 C1549 1.415 . S
C1548 C1547 1.355 . S
C1548 C1550 1.419 . S
C1549 C1544 1.425 . S
C1549 C1546 1.409 . S
C1549 C1547 1.415 . S
C1550 H1540 0.930 . S
C1550 C1548 1.419 . S
C1550 C1551 1.362 . S
C1551 H1541 0.930 . S
C1551 C1544 1.409 . S
C1551 C1550 1.362 . S
H1552 C1558 0.930 . S
H1553 C1561 0.930 . S
H1554 C1562 0.930 . S
H1555 C1563 0.930 . S
H1556 C1566 0.930 . S
H1557 C1567 0.930 . S
C1558 H1552 0.930 . S
C1558 C1559 1.355 . S
C1558 C1560 1.415 . S
C1559 C1558 1.355 . S
C1559 C1561 1.419 . S
C1560 C1558 1.415 . S
C1560 C1565 1.425 . S
C1560 C1567 1.409 . S
C1561 H1553 0.930 . S
C1561 C1559 1.419 . S
C1561 C1562 1.362 . S
C1562 H1554 0.930 . S
C1562 C1561 1.362 . S
C1562 C1565 1.409 . S
C1563 H1555 0.930 . S
C1563 C1564 1.355 . S
C1563 C1565 1.415 . S
C1564 C1563 1.355 . S
C1564 C1566 1.419 . S
C1565 C1560 1.425 . S
C1565 C1562 1.409 . S
C1565 C1563 1.415 . S
C1566 H1556 0.930 . S
C1566 C1564 1.419 . S
C1566 C1567 1.362 . S
C1567 H1557 0.930 . S
C1567 C1560 1.409 . S
C1567 C1566 1.362 . S
H1568 C1574 0.930 . S
H1569 C1577 0.930 . S
H1570 C1578 0.930 . S
H1571 C1579 0.930 . S
H1572 C1582 0.930 . S
H1573 C1583 0.930 . S
C1574 H1568 0.930 . S
C1574 C1575 1.355 . S
C1574 C1576 1.415 . S
C1575 C1574 1.355 . S
C1575 C1577 1.419 . S
C1576 C1574 1.415 . S
C1576 C1581 1.425 . S
C1576 C1583 1.409 . S
C1577 H1569 0.930 . S
C1577 C1575 1.419 . S
C1577 C1578 1.362 . S
C1578 H1570 0.930 . S
C1578 C1577 1.362 . S
C1578 C1581 1.409 . S
C1579 H1571 0.930 . S
C1579 C1580 1.355 . S
C1579 C1581 1.415 . S
C1580 C1579 1.355 . S
C1580 C1582 1.419 . S
C1581 C1576 1.425 . S
C1581 C1578 1.409 . S
C1581 C1579 1.415 . S
C1582 H1572 0.930 . S
C1582 C1580 1.419 . S
C1582 C1583 1.362 . S
C1583 H1573 0.930 . S
C1583 C1576 1.409 . S
C1583 C1582 1.362 . S
H1584 C1590 0.930 . S
H1585 C1593 0.930 . S
H1586 C1594 0.930 . S
H1587 C1595 0.930 . S
H1588 C1598 0.930 . S
H1589 C1599 0.930 . S
C1590 H1584 0.930 . S
C1590 C1591 1.355 . S
C1590 C1592 1.415 . S
C1591 C1590 1.355 . S
C1591 C1593 1.419 . S
C1592 C1590 1.415 . S
C1592 C1597 1.425 . S
C1592 C1599 1.409 . S
C1593 H1585 0.930 . S
C1593 C1591 1.419 . S
C1593 C1594 1.362 . S
C1594 H1586 0.930 . S
C1594 C1593 1.362 . S
C1594 C1597 1.409 . S
C1595 H1587 0.930 . S
C1595 C1596 1.355 . S
C1595 C1597 1.415 . S
C1596 C1595 1.355 . S
C1596 C1598 1.419 . S
C1597 C1592 1.425 . S
C1597 C1594 1.409 . S
C1597 C1595 1.415 . S
C1598 H1588 0.930 . S
C1598 C1596 1.419 . S
C1598 C1599 1.362 . S
C1599 H1589 0.930 . S
C1599 C1592 1.409 . S
C1599 C1598 1.362 . S
H1600 C1606 0.930 . S
H1601 C1609 0.930 . S
H1602 C1610 0.930 . S
H1603 C1611 0.930 . S
H1604 C1614 0.930 . S
H1605 C1615 0.930 . S
C1606 H1600 0.930 . S
C1606 C1607 1.355 . S
C1606 C1608 1.415 . S
C1607 C1606 1.355 . S
C1607 C1609 1.419 . S
C1608 C1606 1.415 . S
C1608 C1613 1.425 1_554 S
C1608 C1615 1.409 . S
C1609 H1601 0.930 . S
C1609 C1607 1.419 . S
C1609 C1610 1.362 1_554 S
C1610 H1602 0.930 . S
C1610 C1609 1.362 1_556 S
C1610 C1613 1.409 . S
C1611 H1603 0.930 . S
C1611 C1612 1.355 . S
C1611 C1613 1.415 . S
C1612 C1611 1.355 . S
C1612 C1614 1.419 . S
C1613 C1608 1.425 1_556 S
C1613 C1610 1.409 . S
C1613 C1611 1.415 . S
C1614 H1604 0.930 . S
C1614 C1612 1.419 . S
C1614 C1615 1.362 1_556 S
C1615 H1605 0.930 . S
C1615 C1608 1.409 . S
C1615 C1614 1.362 1_554 S
H1616 C1622 0.930 . S
H1617 C1625 0.930 . S
H1618 C1626 0.930 . S
H1619 C1627 0.930 . S
H1620 C1630 0.930 . S
H1621 C1631 0.930 . S
C1622 H1616 0.930 . S
C1622 C1623 1.355 . S
C1622 C1624 1.415 1_455 S
C1623 C1622 1.355 . S
C1623 C1625 1.419 . S
C1624 C1622 1.415 1_655 S
C1624 C1629 1.425 1_655 S
C1624 C1631 1.408 . S
C1625 H1617 0.930 . S
C1625 C1623 1.419 . S
C1625 C1626 1.362 . S
C1626 H1618 0.930 . S
C1626 C1625 1.362 . S
C1626 C1629 1.418 . S
C1627 H1619 0.930 . S
C1627 C1628 1.355 . S
C1627 C1629 1.406 1_655 S
C1628 C1627 1.355 . S
C1628 C1630 1.419 . S
C1629 C1624 1.425 1_455 S
C1629 C1626 1.418 . S
C1629 C1627 1.406 1_455 S
C1630 H1620 0.930 . S
C1630 C1628 1.419 . S
C1630 C1631 1.362 . S
C1631 H1621 0.930 . S
C1631 C1624 1.408 . S
C1631 C1630 1.362 . S
H1632 C1638 0.930 1_556 S
H1633 C1641 0.930 . S
H1634 C1642 0.930 . S
H1635 C1643 0.930 1_554 S
H1636 C1646 0.930 . S
H1637 C1647 0.930 . S
C1638 H1632 0.930 1_554 S
C1638 C1639 1.355 . S
C1638 C1640 1.415 1_554 S
C1639 C1638 1.355 . S
C1639 C1641 1.419 . S
C1640 C1638 1.415 1_556 S
C1640 C1645 1.425 1_456 S
C1640 C1647 1.409 . S
C1641 H1633 0.930 . S
C1641 C1639 1.419 . S
C1641 C1642 1.362 1_455 S
C1642 H1634 0.930 . S
C1642 C1641 1.362 1_655 S
C1642 C1645 1.409 . S
C1643 H1635 0.930 1_556 S
C1643 C1644 1.355 . S
C1643 C1645 1.415 1_556 S
C1644 C1643 1.355 . S
C1644 C1646 1.419 . S
C1645 C1640 1.425 1_654 S
C1645 C1642 1.409 . S
C1645 C1643 1.415 1_554 S
C1646 H1636 0.930 . S
C1646 C1644 1.419 . S
C1646 C1647 1.362 1_655 S
C1647 H1637 0.930 . S
C1647 C1640 1.409 . S
C1647 C1646 1.362 1_455 S
H1648 C1654 0.930 . S
H1649 C1657 0.930 . S
H1650 C1658 0.930 . S
H1651 C1659 0.930 . S
H1652 C1662 0.930 . S
H1653 C1663 0.930 . S
C1654 H1648 0.930 . S
C1654 C1655 1.355 . S
C1654 C1656 1.415 . S
C1655 C1654 1.355 . S
C1655 C1657 1.419 . S
C1656 C1654 1.415 . S
C1656 C1661 1.425 . S
C1656 C1663 1.409 . S
C1657 H1649 0.930 . S
C1657 C1655 1.419 . S
C1657 C1658 1.362 . S
C1658 H1650 0.930 . S
C1658 C1657 1.362 . S
C1658 C1661 1.409 . S
C1659 H1651 0.930 . S
C1659 C1660 1.355 . S
C1659 C1661 1.415 . S
C1660 C1659 1.355 . S
C1660 C1662 1.419 . S
C1661 C1656 1.425 . S
C1661 C1658 1.409 . S
C1661 C1659 1.415 . S
C1662 H1652 0.930 . S
C1662 C1660 1.419 . S
C1662 C1663 1.362 . S
C1663 H1653 0.930 . S
C1663 C1656 1.409 . S
C1663 C1662 1.362 . S
H1664 C1670 0.930 . S
H1665 C1673 0.930 . S
H1666 C1674 0.930 . S
H1667 C1675 0.930 . S
H1668 C1678 0.930 . S
H1669 C1679 0.930 . S
C1670 H1664 0.930 . S
C1670 C1671 1.355 . S
C1670 C1672 1.415 . S
C1671 C1670 1.355 . S
C1671 C1673 1.419 . S
C1672 C1670 1.415 . S
C1672 C1677 1.425 . S
C1672 C1679 1.409 . S
C1673 H1665 0.930 . S
C1673 C1671 1.419 . S
C1673 C1674 1.362 . S
C1674 H1666 0.930 . S
C1674 C1673 1.362 . S
C1674 C1677 1.409 . S
C1675 H1667 0.930 . S
C1675 C1676 1.355 . S
C1675 C1677 1.415 . S
C1676 C1675 1.355 . S
C1676 C1678 1.419 . S
C1677 C1672 1.425 . S
C1677 C1674 1.409 . S
C1677 C1675 1.415 . S
C1678 H1668 0.930 . S
C1678 C1676 1.419 . S
C1678 C1679 1.362 . S
C1679 H1669 0.930 . S
C1679 C1672 1.409 . S
C1679 C1678 1.362 . S
H1680 C1686 0.930 . S
H1681 C1689 0.930 . S
H1682 C1690 0.930 . S
H1683 C1691 0.930 . S
H1684 C1694 0.930 . S
H1685 C1695 0.930 . S
C1686 H1680 0.930 . S
C1686 C1687 1.355 . S
C1686 C1688 1.415 . S
C1687 C1686 1.355 . S
C1687 C1689 1.419 . S
C1688 C1686 1.415 . S
C1688 C1693 1.425 . S
C1688 C1695 1.409 . S
C1689 H1681 0.930 . S
C1689 C1687 1.419 . S
C1689 C1690 1.362 . S
C1690 H1682 0.930 . S
C1690 C1689 1.362 . S
C1690 C1693 1.409 . S
C1691 H1683 0.930 . S
C1691 C1692 1.355 . S
C1691 C1693 1.415 . S
C1692 C1691 1.355 . S
C1692 C1694 1.419 . S
C1693 C1688 1.425 . S
C1693 C1690 1.409 . S
C1693 C1691 1.415 . S
C1694 H1684 0.930 . S
C1694 C1692 1.419 . S
C1694 C1695 1.362 . S
C1695 H1685 0.930 . S
C1695 C1688 1.409 . S
C1695 C1694 1.362 . S
H1696 C1702 0.930 . S
H1697 C1705 0.930 . S
H1698 C1706 0.930 . S
H1699 C1707 0.930 . S
H1700 C1710 0.930 . S
H1701 C1711 0.930 . S
C1702 H1696 0.930 . S
C1702 C1703 1.355 . S
C1702 C1704 1.415 . S
C1703 C1702 1.355 . S
C1703 C1705 1.419 . S
C1704 C1702 1.415 . S
C1704 C1709 1.425 . S
C1704 C1711 1.409 . S
C1705 H1697 0.930 . S
C1705 C1703 1.419 . S
C1705 C1706 1.362 . S
C1706 H1698 0.930 . S
C1706 C1705 1.362 . S
C1706 C1709 1.409 . S
C1707 H1699 0.930 . S
C1707 C1708 1.355 . S
C1707 C1709 1.415 . S
C1708 C1707 1.355 . S
C1708 C1710 1.419 . S
C1709 C1704 1.425 . S
C1709 C1706 1.409 . S
C1709 C1707 1.415 . S
C1710 H1700 0.930 . S
C1710 C1708 1.419 . S
C1710 C1711 1.362 . S
C1711 H1701 0.930 . S
C1711 C1704 1.409 . S
C1711 C1710 1.362 . S
H1712 C1718 0.930 . S
H1713 C1721 0.930 . S
H1714 C1722 0.930 . S
H1715 C1723 0.930 . S
H1716 C1726 0.930 . S
H1717 C1727 0.930 . S
C1718 H1712 0.930 . S
C1718 C1719 1.355 . S
C1718 C1720 1.415 . S
C1719 C1718 1.355 . S
C1719 C1721 1.419 . S
C1720 C1718 1.415 . S
C1720 C1725 1.425 . S
C1720 C1727 1.409 . S
C1721 H1713 0.930 . S
C1721 C1719 1.419 . S
C1721 C1722 1.362 . S
C1722 H1714 0.930 . S
C1722 C1721 1.362 . S
C1722 C1725 1.409 . S
C1723 H1715 0.930 . S
C1723 C1724 1.355 . S
C1723 C1725 1.415 . S
C1724 C1723 1.355 . S
C1724 C1726 1.419 . S
C1725 C1720 1.425 . S
C1725 C1722 1.409 . S
C1725 C1723 1.415 . S
C1726 H1716 0.930 . S
C1726 C1724 1.419 . S
C1726 C1727 1.362 . S
C1727 H1717 0.930 . S
C1727 C1720 1.409 . S
C1727 C1726 1.362 . S
H1728 C1734 0.930 . S
H1729 C1737 0.930 . S
H1730 C1738 0.930 . S
H1731 C1739 0.930 . S
H1732 C1742 0.930 . S
H1733 C1743 0.930 . S
C1734 H1728 0.930 . S
C1734 C1735 1.355 . S
C1734 C1736 1.415 . S
C1735 C1734 1.355 . S
C1735 C1737 1.419 . S
C1736 C1734 1.415 . S
C1736 C1741 1.425 . S
C1736 C1743 1.409 . S
C1737 H1729 0.930 . S
C1737 C1735 1.419 . S
C1737 C1738 1.362 . S
C1738 H1730 0.930 . S
C1738 C1737 1.362 . S
C1738 C1741 1.409 . S
C1739 H1731 0.930 . S
C1739 C1740 1.355 . S
C1739 C1741 1.415 . S
C1740 C1739 1.355 . S
C1740 C1742 1.419 . S
C1741 C1736 1.425 . S
C1741 C1738 1.409 . S
C1741 C1739 1.415 . S
C1742 H1732 0.930 . S
C1742 C1740 1.419 . S
C1742 C1743 1.362 . S
C1743 H1733 0.930 . S
C1743 C1736 1.409 . S
C1743 C1742 1.362 . S
H1744 C1750 0.930 . S
H1745 C1753 0.930 . S
H1746 C1754 0.930 . S
H1747 C1755 0.930 . S
H1748 C1758 0.930 . S
H1749 C1759 0.930 . S
C1750 H1744 0.930 . S
C1750 C1751 1.355 . S
C1750 C1752 1.415 . S
C1751 C1750 1.355 . S
C1751 C1753 1.419 . S
C1752 C1750 1.415 . S
C1752 C1757 1.425 . S
C1752 C1759 1.409 . S
C1753 H1745 0.930 . S
C1753 C1751 1.419 . S
C1753 C1754 1.362 . S
C1754 H1746 0.930 . S
C1754 C1753 1.362 . S
C1754 C1757 1.409 . S
C1755 H1747 0.930 . S
C1755 C1756 1.355 . S
C1755 C1757 1.415 . S
C1756 C1755 1.355 . S
C1756 C1758 1.419 . S
C1757 C1752 1.425 . S
C1757 C1754 1.409 . S
C1757 C1755 1.415 . S
C1758 H1748 0.930 . S
C1758 C1756 1.419 . S
C1758 C1759 1.362 . S
C1759 H1749 0.930 . S
C1759 C1752 1.409 . S
C1759 C1758 1.362 . S
H1760 C1766 0.930 . S
H1761 C1769 0.930 . S
H1762 C1770 0.930 . S
H1763 C1771 0.930 . S
H1764 C1774 0.930 . S
H1765 C1775 0.930 . S
C1766 H1760 0.930 . S
C1766 C1767 1.355 . S
C1766 C1768 1.415 . S
C1767 C1766 1.355 . S
C1767 C1769 1.419 . S
C1768 C1766 1.415 . S
C1768 C1773 1.425 . S
C1768 C1775 1.409 . S
C1769 H1761 0.930 . S
C1769 C1767 1.419 . S
C1769 C1770 1.362 . S
C1770 H1762 0.930 . S
C1770 C1769 1.362 . S
C1770 C1773 1.409 . S
C1771 H1763 0.930 . S
C1771 C1772 1.355 . S
C1771 C1773 1.415 . S
C1772 C1771 1.355 . S
C1772 C1774 1.419 . S
C1773 C1768 1.425 . S
C1773 C1770 1.409 . S
C1773 C1771 1.415 . S
C1774 H1764 0.930 . S
C1774 C1772 1.419 . S
C1774 C1775 1.362 . S
C1775 H1765 0.930 . S
C1775 C1768 1.409 . S
C1775 C1774 1.362 . S
H1776 C1782 0.930 . S
H1777 C1785 0.930 . S
H1778 C1786 0.930 . S
H1779 C1787 0.930 . S
H1780 C1790 0.930 . S
H1781 C1791 0.930 . S
C1782 H1776 0.930 . S
C1782 C1783 1.355 . S
C1782 C1784 1.415 . S
C1783 C1782 1.355 . S
C1783 C1785 1.419 . S
C1784 C1782 1.415 . S
C1784 C1789 1.425 . S
C1784 C1791 1.409 . S
C1785 H1777 0.930 . S
C1785 C1783 1.419 . S
C1785 C1786 1.362 . S
C1786 H1778 0.930 . S
C1786 C1785 1.362 . S
C1786 C1789 1.409 . S
C1787 H1779 0.930 . S
C1787 C1788 1.355 . S
C1787 C1789 1.415 . S
C1788 C1787 1.355 . S
C1788 C1790 1.419 . S
C1789 C1784 1.425 . S
C1789 C1786 1.409 . S
C1789 C1787 1.415 . S
C1790 H1780 0.930 . S
C1790 C1788 1.419 . S
C1790 C1791 1.362 . S
C1791 H1781 0.930 . S
C1791 C1784 1.409 . S
C1791 C1790 1.362 . S
H1792 C1798 0.930 . S
H1793 C1801 0.930 . S
H1794 C1802 0.930 . S
H1795 C1803 0.930 . S
H1796 C1806 0.930 . S
H1797 C1807 0.930 . S
C1798 H1792 0.930 . S
C1798 C1799 1.355 . S
C1798 C1800 1.415 . S
C1799 C1798 1.355 . S
C1799 C1801 1.419 . S
C1800 C1798 1.415 . S
C1800 C1805 1.425 . S
C1800 C1807 1.409 . S
C1801 H1793 0.930 . S
C1801 C1799 1.419 . S
C1801 C1802 1.362 . S
C1802 H1794 0.930 . S
C1802 C1801 1.362 . S
C1802 C1805 1.409 . S
C1803 H1795 0.930 . S
C1803 C1804 1.355 . S
C1803 C1805 1.415 . S
C1804 C1803 1.355 . S
C1804 C1806 1.419 . S
C1805 C1800 1.425 . S
C1805 C1802 1.409 . S
C1805 C1803 1.415 . S
C1806 H1796 0.930 . S
C1806 C1804 1.419 . S
C1806 C1807 1.362 . S
C1807 H1797 0.930 . S
C1807 C1800 1.409 . S
C1807 C1806 1.362 . S
H1808 C1814 0.930 . S
H1809 C1817 0.930 . S
H1810 C1818 0.930 . S
H1811 C1819 0.930 . S
H1812 C1822 0.930 . S
H1813 C1823 0.930 . S
C1814 H1808 0.930 . S
C1814 C1815 1.355 . S
C1814 C1816 1.415 . S
C1815 C1814 1.355 . S
C1815 C1817 1.419 . S
C1816 C1814 1.415 . S
C1816 C1821 1.425 . S
C1816 C1823 1.409 . S
C1817 H1809 0.930 . S
C1817 C1815 1.419 . S
C1817 C1818 1.362 . S
C1818 H1810 0.930 . S
C1818 C1817 1.362 . S
C1818 C1821 1.409 . S
C1819 H1811 0.930 . S
C1819 C1820 1.355 . S
C1819 C1821 1.415 . S
C1820 C1819 1.355 . S
C1820 C1822 1.419 . S
C1821 C1816 1.425 . S
C1821 C1818 1.409 . S
C1821 C1819 1.415 . S
C1822 H1812 0.930 . S
C1822 C1820 1.419 . S
C1822 C1823 1.362 . S
C1823 H1813 0.930 . S
C1823 C1816 1.409 . S
C1823 C1822 1.362 . S
H1824 C1830 0.930 . S
H1825 C1833 0.930 . S
H1826 C1834 0.930 . S
H1827 C1835 0.930 . S
H1828 C1838 0.930 . S
H1829 C1839 0.930 . S
C1830 H1824 0.930 . S
C1830 C1831 1.355 . S
C1830 C1832 1.415 . S
C1831 C1830 1.355 . S
C1831 C1833 1.419 . S
C1832 C1830 1.415 . S
C1832 C1837 1.425 . S
C1832 C1839 1.409 . S
C1833 H1825 0.930 . S
C1833 C1831 1.419 . S
C1833 C1834 1.362 . S
C1834 H1826 0.930 . S
C1834 C1833 1.362 . S
C1834 C1837 1.409 . S
C1835 H1827 0.930 . S
C1835 C1836 1.355 . S
C1835 C1837 1.415 . S
C1836 C1835 1.355 . S
C1836 C1838 1.419 . S
C1837 C1832 1.425 . S
C1837 C1834 1.409 . S
C1837 C1835 1.415 . S
C1838 H1828 0.930 . S
C1838 C1836 1.419 . S
C1838 C1839 1.362 . S
C1839 H1829 0.930 . S
C1839 C1832 1.409 . S
C1839 C1838 1.362 . S
H1840 C1846 0.930 . S
H1841 C1849 0.930 . S
H1842 C1850 0.930 . S
H1843 C1851 0.930 . S
H1844 C1854 0.930 . S
H1845 C1855 0.930 . S
C1846 H1840 0.930 . S
C1846 C1847 1.355 . S
C1846 C1848 1.415 . S
C1847 C1846 1.355 . S
C1847 C1849 1.419 . S
C1848 C1846 1.415 . S
C1848 C1853 1.425 . S
C1848 C1855 1.409 . S
C1849 H1841 0.930 . S
C1849 C1847 1.419 . S
C1849 C1850 1.362 . S
C1850 H1842 0.930 . S
C1850 C1849 1.362 . S
C1850 C1853 1.409 . S
C1851 H1843 0.930 . S
C1851 C1852 1.355 . S
C1851 C1853 1.415 . S
C1852 C1851 1.355 . S
C1852 C1854 1.419 . S
C1853 C1848 1.425 . S
C1853 C1850 1.409 . S
C1853 C1851 1.415 . S
C1854 H1844 0.930 . S
C1854 C1852 1.419 . S
C1854 C1855 1.362 . S
C1855 H1845 0.930 . S
C1855 C1848 1.409 . S
C1855 C1854 1.362 . S
H1856 C1862 0.930 . S
H1857 C1865 0.930 . S
H1858 C1866 0.930 . S
H1859 C1867 0.930 . S
H1860 C1870 0.930 . S
H1861 C1871 0.930 . S
C1862 H1856 0.930 . S
C1862 C1863 1.355 . S
C1862 C1864 1.415 . S
C1863 C1862 1.355 . S
C1863 C1865 1.419 . S
C1864 C1862 1.415 . S
C1864 C1869 1.425 . S
C1864 C1871 1.409 . S
C1865 H1857 0.930 . S
C1865 C1863 1.419 . S
C1865 C1866 1.362 . S
C1866 H1858 0.930 . S
C1866 C1865 1.362 . S
C1866 C1869 1.409 . S
C1867 H1859 0.930 . S
C1867 C1868 1.355 . S
C1867 C1869 1.415 . S
C1868 C1867 1.355 . S
C1868 C1870 1.419 . S
C1869 C1864 1.425 . S
C1869 C1866 1.409 . S
C1869 C1867 1.415 . S
C1870 H1860 0.930 . S
C1870 C1868 1.419 . S
C1870 C1871 1.362 . S
C1871 H1861 0.930 . S
C1871 C1864 1.409 . S
C1871 C1870 1.362 . S
H1872 C1878 0.930 . S
H1873 C1881 0.930 . S
H1874 C1882 0.930 . S
H1875 C1883 0.930 . S
H1876 C1886 0.930 . S
H1877 C1887 0.930 . S
C1878 H1872 0.930 . S
C1878 C1879 1.355 . S
C1878 C1880 1.415 . S
C1879 C1878 1.355 . S
C1879 C1881 1.419 . S
C1880 C1878 1.415 . S
C1880 C1885 1.425 . S
C1880 C1887 1.409 . S
C1881 H1873 0.930 . S
C1881 C1879 1.419 . S
C1881 C1882 1.362 . S
C1882 H1874 0.930 . S
C1882 C1881 1.362 . S
C1882 C1885 1.409 . S
C1883 H1875 0.930 . S
C1883 C1884 1.355 . S
C1883 C1885 1.415 . S
C1884 C1883 1.355 . S
C1884 C1886 1.419 . S
C1885 C1880 1.425 . S
C1885 C1882 1.409 . S
C1885 C1883 1.415 . S
C1886 H1876 0.930 . S
C1886 C1884 1.419 . S
C1886 C1887 1.362 . S
C1887 H1877 0.930 . S
C1887 C1880 1.409 . S
C1887 C1886 1.362 . S
H1888 C1894 0.930 . S
H1889 C1897 0.930 . S
H1890 C1898 0.930 . S
H1891 C1899 0.930 . S
H1892 C1902 0.930 . S
H1893 C1903 0.930 . S
C1894 H1888 0.930 . S
C1894 C1895 1.355 . S
C1894 C1896 1.415 . S
C1895 C1894 1.355 . S
C1895 C1897 1.419 . S
C1896 C1894 1.415 . S
C1896 C1901 1.425 . S
C1896 C1903 1.409 . S
C1897 H1889 0.930 . S
C1897 C1895 1.419 . S
C1897 C1898 1.362 . S
C1898 H1890 0.930 . S
C1898 C1897 1.362 . S
C1898 C1901 1.409 . S
C1899 H1891 0.930 . S
C1899 C1900 1.355 . S
C1899 C1901 1.415 . S
C1900 C1899 1.355 . S
C1900 C1902 1.419 . S
C1901 C1896 1.425 . S
C1901 C1898 1.409 . S
C1901 C1899 1.415 . S
C1902 H1892 0.930 . S
C1902 C1900 1.419 . S
C1902 C1903 1.362 . S
C1903 H1893 0.930 . S
C1903 C1896 1.409 . S
C1903 C1902 1.362 . S
H1904 C1910 0.930 . S
H1905 C1913 0.930 . S
H1906 C1914 0.930 . S
H1907 C1915 0.930 . S
H1908 C1918 0.930 . S
H1909 C1919 0.930 . S
C1910 H1904 0.930 . S
C1910 C1911 1.355 . S
C1910 C1912 1.415 . S
C1911 C1910 1.355 . S
C1911 C1913 1.419 . S
C1912 C1910 1.415 . S
C1912 C1917 1.425 . S
C1912 C1919 1.409 . S
C1913 H1905 0.930 . S
C1913 C1911 1.419 . S
C1913 C1914 1.362 . S
C1914 H1906 0.930 . S
C1914 C1913 1.362 . S
C1914 C1917 1.409 . S
C1915 H1907 0.930 . S
C1915 C1916 1.355 . S
C1915 C1917 1.415 . S
C1916 C1915 1.355 . S
C1916 C1918 1.419 . S
C1917 C1912 1.425 . S
C1917 C1914 1.409 . S
C1917 C1915 1.415 . S
C1918 H1908 0.930 . S
C1918 C1916 1.419 . S
C1918 C1919 1.362 . S
C1919 H1909 0.930 . S
C1919 C1912 1.409 . S
C1919 C1918 1.362 . S
C1415 C57 1.279 . S
C1420 C1113 1.276 . S
C1431 C117 1.267 . S
C1436 C489 1.268 . S
C1447 C205 1.252 . S
C1452 C1289 1.256 . S
C1463 C665 1.220 . S
C1468 C313 1.218 . S
C1479 C1252 1.246 . S
C1484 C196 1.243 . S
C1495 C645 1.190 . S
C1500 C321 1.192 . S
C1511 C1076 1.174 . S
C1516 C49 1.178 . S
C1527 C469 1.272 . S
C1532 C108 1.273 . S
C1543 C409 1.236 . S
C1548 C761 1.236 . S
C1559 C577 1.277 . S
C1564 C909 1.274 . S
C1575 C900 1.278 . S
C1580 C557 1.280 . S
C1591 C372 1.250 . S
C1596 C753 1.246 . S
C1607 C1201 1.234 . S
C1612 C841 1.237 . S
C1623 C1025 1.175 . S
C1628 C1377 1.174 . S
C1639 C1017 1.196 . S
C1644 C1340 1.197 . S
C1655 C849 1.258 . S
C1660 C1164 1.255 . S
C1671 C997 1.699 . S
C1676 C20 1.706 . S
C1687 C733 1.657 . S
C1692 C137 1.658 . S
C1703 C225 1.707 . S
C1708 C812 1.706 . S
C1719 C937 1.663 . S
C1724 C293 1.650 . S
C1735 C988 1.698 . S
C1740 C233 1.683 . S
C1751 C284 1.653 . S
C1756 C724 1.659 . S
C1767 C821 1.659 . S
C1772 C29 1.654 . S
C1783 C929 1.707 . S
C1788 C145 1.698 . S
C1799 C401 1.657 . S
C1804 C1349 1.657 . S
C1815 C1085 1.708 . S
C1820 C497 1.694 . S
C1831 C585 1.701 . S
C1836 C1173 1.688 . S
C1847 C673 1.669 . S
C1852 C1261 1.662 . S
C1863 C548 1.708 . S
C1868 C1369 1.711 . S
C1879 C1105 1.696 . S
C1884 C636 1.701 . S
C1895 C1193 1.696 . S
C1900 C381 1.681 . S
C1911 C1281 1.673 . S
C1916 C460 1.668 . S
