# Generated by pormake.
# Topology ukf, (4)-cn, num edge types: 1
# Building blocks:
#     Node 0, Type 0, BuildingBlock: ICAMEG_clean_sbu_1, # of connection points: 4
#     Node 1, Type 0, BuildingBlock: ICAMEG_clean_sbu_1, # of connection points: 4
#     Node 2, Type 0, BuildingBlock: ICAMEG_clean_sbu_1, # of connection points: 4
#     Node 3, Type 0, BuildingBlock: ICAMEG_clean_sbu_1, # of connection points: 4
#     Node 4, Type 0, BuildingBlock: ICAMEG_clean_sbu_1, # of connection points: 4
#     Node 5, Type 0, BuildingBlock: ICAMEG_clean_sbu_1, # of connection points: 4
#     Node 6, Type 0, BuildingBlock: ICAMEG_clean_sbu_1, # of connection points: 4
#     Node 7, Type 0, BuildingBlock: ICAMEG_clean_sbu_1, # of connection points: 4
#     Node 8, Type 0, BuildingBlock: ICAMEG_clean_sbu_1, # of connection points: 4
#     Node 9, Type 0, BuildingBlock: ICAMEG_clean_sbu_1, # of connection points: 4
#     Node 10, Type 0, BuildingBlock: ICAMEG_clean_sbu_1, # of connection points: 4
#     Node 11, Type 0, BuildingBlock: ICAMEG_clean_sbu_1, # of connection points: 4
#     Edge 12, Type (0, 0), None
#     Edge 13, Type (0, 0), None
#     Edge 14, Type (0, 0), None
#     Edge 15, Type (0, 0), None
#     Edge 16, Type (0, 0), None
#     Edge 17, Type (0, 0), None
#     Edge 18, Type (0, 0), None
#     Edge 19, Type (0, 0), None
#     Edge 20, Type (0, 0), None
#     Edge 21, Type (0, 0), None
#     Edge 22, Type (0, 0), None
#     Edge 23, Type (0, 0), None
#     Edge 24, Type (0, 0), None
#     Edge 25, Type (0, 0), None
#     Edge 26, Type (0, 0), None
#     Edge 27, Type (0, 0), None
#     Edge 28, Type (0, 0), None
#     Edge 29, Type (0, 0), None
#     Edge 30, Type (0, 0), None
#     Edge 31, Type (0, 0), None
#     Edge 32, Type (0, 0), None
#     Edge 33, Type (0, 0), None
#     Edge 34, Type (0, 0), None
#     Edge 35, Type (0, 0), None
# Relax obj value: 0.118
# Max RMSD: 0.108
# Mean RMSD: 0.108
data_MOF--net-ukf--node1-ICAMEG_clean_sbu_1--edge1-none
_symmetry_space_group_name_H-M    P1
_symmetry_Int_Tables_number       1
_symmetry_cell_setting            triclinic
loop_
_symmetry_equiv_pos_as_xyz
'x, y, z'
_cell_length_a     16.459676
_cell_length_b     16.446554
_cell_length_c     35.220839
_cell_angle_alpha  89.937523
_cell_angle_beta   90.164285
_cell_angle_gamma 120.07508
loop_
_atom_site_label
_atom_site_type_symbol
_atom_site_fract_x
_atom_site_fract_y
_atom_site_fract_z
_atom_type_partial_charge
Co0 Co 0.39435 0.24417 0.99016 0.0
Co1 Co 0.46921 0.17105 0.06876 0.0
O2 O 0.40426 0.22727 0.04454 0.0
C3 C 0.50022 0.45403 0.00624 0.0
O4 O 0.58316 0.46134 0.00917 0.0
C5 C 0.35186 0.1731 0.13614 0.0
O6 O 0.34554 0.24381 0.12246 0.0
O7 O 0.38464 0.05469 0.03413 0.0
O8 O 0.35391 0.11062 0.98003 0.0
H9 H 0.69707 0.0556 0.06993 0.0
H10 H 0.32205 0.29897 0.05583 0.0
O11 O 0.42831 0.37616 -0.00058 0.0
H12 H 0.03995 0.16532 0.93978 0.0
H13 H 0.52709 0.43627 0.87188 0.0
H14 H 0.28646 0.13019 0.91907 0.0
H15 H 0.17672 0.11703 0.94879 0.0
H16 H 0.51708 0.40091 0.93942 0.0
O17 O 0.37708 0.12699 0.11409 0.0
H18 H 0.57487 0.07912 0.04024 0.0
H19 H 0.5062 0.13719 0.14928 0.0
H20 H 0.28269 0.1686 0.85243 0.0
H21 H 0.21013 0.35927 0.07508 0.0
H22 H 0.40995 0.3201 0.82748 0.0
H23 H 0.06459 0.33706 0.02985 0.0
O24 O 0.53447 0.27736 0.98193 0.0
H25 H 0.60938 0.51776 0.08876 0.0
H26 H 0.67081 0.25994 0.09815 0.0
H27 H 0.78924 0.41289 0.11835 0.0
H28 H 0.75784 0.54307 0.11799 0.0
H29 H 0.47826 0.35855 0.08178 0.0
H30 H 0.59759 0.06921 0.17729 0.0
H31 H 0.7095 0.05133 0.13878 0.0
O32 O 0.5657 0.21455 0.03132 0.0
C33 C 0.35096 0.04366 -0.00067 0.0
C34 C 0.65304 0.07076 0.087 0.0
C35 C 0.60329 0.08754 0.14806 0.0
N36 N 0.53256 0.11115 0.09264 0.0
C37 C 0.58395 0.08505 0.07067 0.0
C38 C 0.54369 0.11471 0.13126 0.0
C39 C 0.6619 0.07063 0.12589 0.0
C40 C 0.26373 0.27434 0.03676 0.0
N41 N 0.2584 0.21451 7e-05 0.0
C42 C 0.19679 0.3216 0.0486 0.0
C43 C 0.1063 0.30593 0.02075 0.0
C44 C 0.09241 0.19757 0.96232 0.0
C45 C 0.18166 0.17118 0.96693 0.0
C46 C 0.46945 0.37133 0.88256 0.0
C47 C 0.33106 0.20143 0.91038 0.0
C48 C 0.46206 0.351 0.92131 0.0
N49 N 0.3914 0.26771 0.93544 0.0
C50 C 0.33249 0.22137 0.87171 0.0
C51 C 0.40364 0.30626 0.85767 0.0
C52 C 0.59148 0.26035 0.00156 0.0
C53 C 0.61855 0.45854 0.09522 0.0
C54 C 0.64845 0.31039 0.10175 0.0
C55 C 0.72 0.40002 0.11127 0.0
C56 C 0.70353 0.47397 0.1095 0.0
N57 N 0.55826 0.29128 0.09385 0.0
C58 C 0.54438 0.36654 0.09051 0.0
Co59 Co 0.1499 0.39626 0.32363 0.0
Co60 Co 0.29697 0.47107 0.4024 0.0
O61 O 0.17617 0.40632 0.37781 0.0
C62 C 0.04531 0.50133 0.33993 0.0
O63 O 0.12084 0.58434 0.34346 0.0
C64 C 0.17498 0.35083 0.46906 0.0
O65 O 0.09741 0.34244 0.45501 0.0
O66 O 0.32887 0.38571 0.36863 0.0
O67 O 0.24349 0.35638 0.3141 0.0
H68 H 0.64534 0.69179 0.41062 0.0
H69 H 0.02119 0.32434 0.38857 0.0
O70 O 0.05161 0.42999 0.33242 0.0
H71 H 0.87608 0.04052 0.27331 0.0
H72 H 0.08524 0.52356 0.2047 0.0
H73 H 0.15806 0.28893 0.25318 0.0
H74 H 0.06106 0.17832 0.28286 0.0
H75 H 0.11381 0.51704 0.27232 0.0
O76 O 0.24733 0.3788 0.44754 0.0
H77 H 0.49926 0.57601 0.37748 0.0
H78 H 0.3563 0.51319 0.48293 0.0
H79 H 0.11403 0.28228 0.18654 0.0
H80 H 0.84787 0.21234 0.40699 0.0
H81 H 0.08437 0.40561 0.16103 0.0
H82 H 0.72605 0.06591 0.36181 0.0
O83 O 0.25675 0.53647 0.31569 0.0
H84 H 0.08871 0.60954 0.42348 0.0
H85 H 0.40965 0.67474 0.42717 0.0
H86 H 0.37617 0.79389 0.44751 0.0
H87 H 0.21396 0.75989 0.4505 0.0
H88 H 0.11764 0.4784 0.41646 0.0
H89 H 0.50663 0.61256 0.51571 0.0
H90 H 0.64842 0.70992 0.4794 0.0
O91 O 0.35304 0.56649 0.36447 0.0
C92 C 0.30672 0.35267 0.33372 0.0
C93 C 0.58172 0.651 0.42601 0.0
C94 C 0.50286 0.60908 0.48547 0.0
N95 N 0.41827 0.53449 0.42813 0.0
C96 C 0.49906 0.58485 0.40784 0.0
C97 C 0.41969 0.54778 0.46663 0.0
C98 C 0.58363 0.66263 0.46494 0.0
C99 C 0.98773 0.26582 0.36958 0.0
N100 N 0.04344 0.26015 0.33347 0.0
C101 C 0.87303 0.19883 0.38082 0.0
C102 C 0.7991 0.10776 0.35299 0.0
C103 C 0.89557 0.0933 0.29561 0.0
C104 C 0.01115 0.18294 0.30061 0.0
C105 C 0.09458 0.46741 0.2157 0.0
C106 C 0.13068 0.33264 0.24416 0.0
C107 C 0.10945 0.46206 0.25444 0.0
N108 N 0.12394 0.39287 0.26889 0.0
C109 C 0.11075 0.33224 0.20553 0.0
C110 C 0.09419 0.40131 0.19118 0.0
C111 C 0.3317 0.59285 0.33505 0.0
C112 C 0.1577 0.6194 0.42903 0.0
C113 C 0.33715 0.65238 0.43204 0.0
C114 C 0.31943 0.72391 0.44152 0.0
C115 C 0.22842 0.70584 0.44168 0.0
N116 N 0.26576 0.56101 0.42622 0.0
C117 C 0.17593 0.54555 0.42423 0.0
Co118 Co 0.74506 0.13788 0.65503 0.0
Co119 Co 0.82004 0.28677 0.73434 0.0
O120 O 0.75815 0.16143 0.71077 0.0
C121 C 0.53198 0.03847 0.66477 0.0
O122 O 0.52574 0.11463 0.66157 0.0
C123 C 0.80816 0.17365 0.80323 0.0
O124 O 0.72347 0.11112 0.79191 0.0
O125 O 0.93446 0.31713 0.69979 0.0
O126 O 0.87963 0.22932 0.64627 0.0
H127 H 0.93349 0.63097 0.73253 0.0
H128 H 0.65889 0.99076 0.71204 0.0
O129 O 0.6096 0.04214 0.66118 0.0
H130 H 0.86649 0.88758 0.61226 0.0
H131 H 0.56948 0.08847 0.53212 0.0
H132 H 0.86044 0.12938 0.58704 0.0
H133 H 0.90261 0.07025 0.62797 0.0
H134 H 0.60022 0.11855 0.59984 0.0
O135 O 0.86319 0.2373 0.77945 0.0
H136 H 0.89646 0.48399 0.70316 0.0
H137 H 0.9099 0.37745 0.81126 0.0
H138 H 0.82745 0.08756 0.52048 0.0
H139 H 0.57262 0.80461 0.71324 0.0
H140 H 0.68446 0.07567 0.49149 0.0
H141 H 0.63417 0.70697 0.67552 0.0
O142 O 0.71583 0.24705 0.64602 0.0
H143 H 0.49948 0.20146 0.71695 0.0
H144 H 0.7524 0.34616 0.81024 0.0
H145 H 0.62961 0.38794 0.8103 0.0
H146 H 0.5027 0.31884 0.76221 0.0
H147 H 0.62015 0.15908 0.71954 0.0
H148 H 0.9789 0.53832 0.83552 0.0
H149 H 0.96213 0.65654 0.80052 0.0
O150 O 0.77375 0.33816 0.69647 0.0
C151 C 0.94571 0.29495 0.66525 0.0
C152 C 0.92244 0.57381 0.74992 0.0
C153 C 0.94327 0.5194 0.80892 0.0
N154 N 0.88625 0.41408 0.7558 0.0
C155 C 0.90047 0.48843 0.73366 0.0
C156 C 0.91332 0.43124 0.79299 0.0
C157 C 0.94077 0.58866 0.78808 0.0
C158 C 0.68755 0.96082 0.69276 0.0
N159 N 0.77118 0.03001 0.66564 0.0
C160 C 0.63271 0.84282 0.69562 0.0
C161 C 0.67042 0.78165 0.6707 0.0
C162 C 0.81855 0.8988 0.62994 0.0
C163 C 0.83919 0.01197 0.639 0.0
C164 C 0.63129 0.0921 0.54462 0.0
C165 C 0.79176 0.10915 0.57698 0.0
C166 C 0.64866 0.10742 0.5835 0.0
N167 N 0.7271 0.11333 0.59994 0.0
C168 C 0.77526 0.0904 0.53817 0.0
C169 C 0.69525 0.08379 0.52185 0.0
C170 C 0.73034 0.31964 0.66597 0.0
C171 C 0.55409 0.23339 0.73794 0.0
C172 C 0.70136 0.31842 0.78814 0.0
C173 C 0.62933 0.34019 0.78926 0.0
C174 C 0.55732 0.30047 0.7627 0.0
N175 N 0.70336 0.26011 0.76081 0.0
C176 C 0.62404 0.20928 0.73956 0.0
Co177 Co 0.59736 0.74843 0.98805 0.0
Co178 Co 0.51537 0.81949 0.06654 0.0
O179 O 0.58455 0.76377 0.04351 0.0
C180 C 0.48965 0.53681 0.00184 0.0
O181 O 0.40733 0.52719 -0.00625 0.0
C182 C 0.62127 0.81076 0.13521 0.0
O183 O 0.60382 0.72809 0.12312 0.0
O184 O 0.59816 0.9346 0.03204 0.0
O185 O 0.63677 0.883 0.97884 0.0
H186 H 0.26968 0.91532 0.06347 0.0
H187 H 0.67451 0.69812 0.05421 0.0
O188 O 0.56314 0.61577 -0.00112 0.0
H189 H 0.94471 0.81988 0.93413 0.0
H190 H 0.49226 0.55976 0.86596 0.0
H191 H 0.69899 0.8716 0.91975 0.0
H192 H 0.81008 0.87004 0.94424 0.0
H193 H 0.4963 0.58416 0.93388 0.0
O194 O 0.60583 0.86359 0.11257 0.0
H195 H 0.38711 0.88793 0.03475 0.0
H196 H 0.50183 0.89922 0.14395 0.0
H197 H 0.69881 0.84916 0.85151 0.0
H198 H 0.78531 0.63349 0.07099 0.0
H199 H 0.59355 0.69239 0.82362 0.0
H200 H 0.92571 0.65134 0.02457 0.0
O201 O 0.45806 0.71605 0.97771 0.0
H202 H 0.27672 0.50337 0.04681 0.0
H203 H 0.40021 0.74436 0.14548 0.0
H204 H 0.23652 0.61748 0.14927 0.0
H205 H 0.17151 0.4955 0.09905 0.0
H206 H 0.43902 0.62729 0.04645 0.0
H207 H 0.40202 0.96086 0.1676 0.0
H208 H 0.27019 0.94381 0.13104 0.0
O209 O 0.42196 0.77382 0.02727 0.0
C210 C 0.63362 0.94755 -0.00222 0.0
C211 C 0.31692 0.90612 0.08106 0.0
C212 C 0.3894 0.92747 0.14065 0.0
N213 N 0.4466 0.87873 0.08768 0.0
C214 C 0.38454 0.8895 0.06523 0.0
C215 C 0.45132 0.90153 0.12523 0.0
C216 C 0.31827 0.92392 0.11911 0.0
C217 C 0.73038 0.71911 0.03411 0.0
N218 N 0.73344 0.77763 -0.00258 0.0
C219 C 0.79692 0.67052 0.04495 0.0
C220 C 0.88462 0.68385 0.01616 0.0
C221 C 0.89466 0.78978 0.95749 0.0
C222 C 0.80698 0.81801 0.96314 0.0
C223 C 0.5409 0.62774 0.87788 0.0
C224 C 0.65684 0.80179 0.90902 0.0
C225 C 0.54486 0.64225 0.9171 0.0
N226 N 0.60412 0.72839 0.93293 0.0
C227 C 0.65595 0.78986 0.86972 0.0
C228 C 0.59704 0.70217 0.85407 0.0
C229 C 0.39964 0.73229 -0.00359 0.0
C230 C 0.30309 0.55353 0.06967 0.0
C231 C 0.37285 0.69517 0.12268 0.0
C232 C 0.28016 0.62098 0.1258 0.0
C233 C 0.24397 0.55151 0.09809 0.0
N234 N 0.42786 0.70109 0.0925 0.0
C235 C 0.39657 0.62477 0.06947 0.0
Co236 Co 0.84688 0.59712 0.32171 0.0
Co237 Co 0.69357 0.5173 0.39991 0.0
O238 O 0.81819 0.58494 0.37687 0.0
C239 C 0.9516 0.49023 0.336 0.0
O240 O 0.8791 0.40766 0.32785 0.0
C241 C 0.8106 0.61822 0.468 0.0
O242 O 0.87233 0.59694 0.45512 0.0
O243 O 0.66323 0.60242 0.36576 0.0
O244 O 0.75109 0.63565 0.312 0.0
H245 H 0.35117 0.27049 0.39988 0.0
H246 H 0.97156 0.67669 0.38877 0.0
O247 O 0.94562 0.56352 0.33317 0.0
H248 H 0.12638 0.94304 0.2673 0.0
H249 H 0.92776 0.48815 0.20044 0.0
H250 H 0.82372 0.69621 0.25304 0.0
H251 H 0.94142 0.80725 0.27576 0.0
H252 H 0.9118 0.49658 0.26828 0.0
O253 O 0.74286 0.6068 0.44591 0.0
H254 H 0.49496 0.38384 0.36982 0.0
H255 H 0.60231 0.51029 0.47723 0.0
H256 H 0.84215 0.69192 0.18461 0.0
H257 H 0.14462 0.78934 0.40728 0.0
H258 H 0.89263 0.58539 0.15747 0.0
H259 H 0.27068 0.92797 0.36065 0.0
O260 O 0.74071 0.45774 0.31186 0.0
H261 H 0.76822 0.27664 0.37942 0.0
H262 H 0.64924 0.39882 0.4778 0.0
H263 H 0.61211 0.23472 0.48124 0.0
H264 H 0.66913 0.17045 0.43113 0.0
H265 H 0.80844 0.43958 0.37961 0.0
H266 H 0.44243 0.41361 0.50212 0.0
H267 H 0.32573 0.27735 0.46753 0.0
O268 O 0.64413 0.42531 0.3603 0.0
C269 C 0.68483 0.6352 0.33101 0.0
C270 C 0.4083 0.31912 0.41699 0.0
C271 C 0.4615 0.39838 0.4753 0.0
N272 N 0.56584 0.44984 0.42173 0.0
C273 C 0.49227 0.38489 0.40026 0.0
C274 C 0.5489 0.45854 0.4591 0.0
C275 C 0.39319 0.32459 0.45492 0.0
C276 C 0.00699 0.73199 0.36847 0.0
N277 N 0.95363 0.73357 0.33079 0.0
C278 C 0.12136 0.79943 0.3804 0.0
C279 C 0.19751 0.88637 0.35163 0.0
C280 C 0.10505 0.89395 0.29112 0.0
C281 C 0.98886 0.80595 0.296 0.0
C282 C 0.90866 0.5371 0.21204 0.0
C283 C 0.85092 0.65362 0.24246 0.0
C284 C 0.90057 0.54358 0.25123 0.0
N285 N 0.87351 0.60285 0.26667 0.0
C286 C 0.85988 0.65048 0.20312 0.0
C287 C 0.88809 0.59095 0.18787 0.0
C288 C 0.66461 0.40119 0.33019 0.0
C289 C 0.74418 0.30276 0.40221 0.0
C290 C 0.67218 0.37201 0.45523 0.0
C291 C 0.65294 0.27903 0.45806 0.0
C292 C 0.68612 0.24309 0.43032 0.0
N293 N 0.72231 0.42764 0.4253 0.0
C294 C 0.76737 0.39652 0.40233 0.0
Co295 Co 0.23897 0.844 0.65221 0.0
Co296 Co 0.18185 0.69889 0.73195 0.0
O297 O 0.2283 0.81869 0.70693 0.0
C298 C 0.44804 0.94534 0.66678 0.0
O299 O 0.45363 0.86851 0.66823 0.0
C300 C 0.17731 0.81397 0.80014 0.0
O301 O 0.24701 0.89256 0.78707 0.0
O302 O 0.06257 0.65599 0.69769 0.0
O303 O 0.10507 0.7492 0.64503 0.0
H304 H 0.07034 0.35497 0.73112 0.0
H305 H 0.29022 0.97059 0.71974 0.0
O306 O 0.37115 0.94142 0.66033 0.0
H307 H 0.17407 0.12559 0.60001 0.0
H308 H 0.42273 0.93072 0.52971 0.0
H309 H 0.11118 0.81885 0.58515 0.0
H310 H 0.12496 0.94072 0.60791 0.0
H311 H 0.39959 0.90533 0.59764 0.0
O312 O 0.13371 0.74249 0.77762 0.0
H313 H 0.09556 0.5026 0.70265 0.0
H314 H 0.15422 0.62615 0.81248 0.0
H315 H 0.13136 0.84152 0.51653 0.0
H316 H 0.35165 0.14352 0.73933 0.0
H317 H 0.2879 0.89662 0.4881 0.0
H318 H 0.33658 0.26948 0.6929 0.0
O319 O 0.26807 0.73518 0.64171 0.0
H320 H 0.52271 0.93004 0.75066 0.0
H321 H 0.28533 0.60222 0.76442 0.0
H322 H 0.44204 0.6532 0.78661 0.0
H323 H 0.56423 0.81943 0.78084 0.0
H324 H 0.36059 0.88628 0.74275 0.0
H325 H 0.09019 0.46529 0.83937 0.0
H326 H 0.06603 0.33568 0.79972 0.0
O327 O 0.23109 0.65124 0.69458 0.0
C328 C 0.04517 0.67823 0.66389 0.0
C329 C 0.08657 0.41399 0.74857 0.0
C330 C 0.10672 0.47913 0.81013 0.0
N331 N 0.12962 0.57562 0.75558 0.0
C332 C 0.10252 0.49861 0.73299 0.0
C333 C 0.13302 0.56668 0.79407 0.0
C334 C 0.08695 0.40358 0.78732 0.0
C335 C 0.26849 0.00534 0.70003 0.0
N336 N 0.21208 0.95219 0.66242 0.0
C337 C 0.3159 0.11977 0.71238 0.0
C338 C 0.30457 0.19628 0.68386 0.0
C339 C 0.20241 0.10405 0.62358 0.0
C340 C 0.17407 0.9879 0.62812 0.0
C341 C 0.35457 0.90902 0.5419 0.0
C342 C 0.18064 0.84696 0.5738 0.0
C343 C 0.34102 0.89649 0.58105 0.0
N344 N 0.25522 0.86877 0.59717 0.0
C345 C 0.19132 0.85861 0.53449 0.0
C346 C 0.27892 0.88942 0.51852 0.0
C347 C 0.26127 0.66546 0.6617 0.0
C348 C 0.46837 0.85957 0.75785 0.0
C349 C 0.33115 0.67664 0.76712 0.0
C350 C 0.42306 0.70434 0.77781 0.0
C351 C 0.49186 0.79727 0.77404 0.0
N352 N 0.30449 0.74111 0.75708 0.0
C353 C 0.37427 0.83274 0.75272 0.0
Co354 Co 0.75301 0.60555 0.66042 0.0
Co355 Co 0.80826 0.51862 0.58005 0.0
O356 O 0.76522 0.59368 0.60596 0.0
C357 C 0.54212 0.49712 0.64796 0.0
O358 O 0.53766 0.4152 0.6467 0.0
C359 C 0.80515 0.63006 0.51029 0.0
O360 O 0.73824 0.64355 0.52305 0.0
O361 O 0.93067 0.59505 0.61258 0.0
O362 O 0.88769 0.64205 0.6667 0.0
H363 H 0.92218 0.2864 0.57322 0.0
H364 H 0.69714 0.68003 0.59478 0.0
O365 O 0.61954 0.57133 0.65297 0.0
H366 H 0.82914 0.95827 0.71202 0.0
H367 H 0.56802 0.49637 0.78219 0.0
H368 H 0.87575 0.71737 0.72886 0.0
H369 H 0.88228 0.82615 0.7007 0.0
H370 H 0.5982 0.49241 0.71478 0.0
O371 O 0.85286 0.60932 0.53378 0.0
H372 H 0.90095 0.40856 0.60487 0.0
H373 H 0.81281 0.46575 0.50034 0.0
H374 H 0.8488 0.72453 0.79642 0.0
H375 H 0.63264 0.79034 0.5774 0.0
H376 H 0.69453 0.61148 0.82415 0.0
H377 H 0.65012 0.93043 0.62417 0.0
O378 O 0.72055 0.46557 0.66986 0.0
H379 H 0.47202 0.42729 0.56372 0.0
H380 H 0.69412 0.31444 0.55554 0.0
H381 H 0.53067 0.20793 0.54001 0.0
H382 H 0.41719 0.26393 0.54225 0.0
H383 H 0.63558 0.53717 0.56879 0.0
H384 H 0.84656 0.3538 0.46768 0.0
H385 H 0.89602 0.25951 0.50455 0.0
O386 O 0.76433 0.42279 0.61784 0.0
C387 C 0.94736 0.63105 0.64713 0.0
C388 C 0.8984 0.3261 0.55739 0.0
C389 C 0.85291 0.36159 0.49801 0.0
N390 N 0.85471 0.4449 0.5544 0.0
C391 C 0.88652 0.3957 0.57485 0.0
C392 C 0.83884 0.42865 0.51636 0.0
C393 C 0.88185 0.30932 0.51876 0.0
C394 C 0.71908 0.73616 0.61465 0.0
N395 N 0.78148 0.74205 0.65054 0.0
C396 C 0.66861 0.80116 0.60408 0.0
C397 C 0.68334 0.88999 0.6325 0.0
C398 C 0.79619 0.90573 0.68957 0.0
C399 C 0.82514 0.81854 0.68376 0.0
C400 C 0.63492 0.54786 0.77033 0.0
C401 C 0.80615 0.67342 0.73928 0.0
C402 C 0.65204 0.54776 0.73149 0.0
N403 N 0.73594 0.6126 0.71565 0.0
C404 C 0.79199 0.67574 0.77829 0.0
C405 C 0.70565 0.61236 0.79386 0.0
C406 C 0.72863 0.40352 0.64975 0.0
C407 C 0.52181 0.40392 0.55838 0.0
C408 C 0.64967 0.34457 0.55225 0.0
C409 C 0.5551 0.28144 0.54502 0.0
C410 C 0.4912 0.3124 0.54696 0.0
N411 N 0.6823 0.43895 0.55792 0.0
C412 C 0.61721 0.46725 0.56113 0.0
Co413 Co 0.13381 0.74852 -0.00823 0.0
Co414 Co 0.27922 0.81875 0.91109 0.0
O415 O 0.15584 0.7597 0.93634 0.0
C416 C 0.04109 0.5351 0.98444 0.0
O417 O 0.12013 0.5337 0.98536 0.0
C418 C 0.16196 0.80149 0.84269 0.0
O419 O 0.09672 0.7193 0.85508 0.0
O420 O 0.31603 0.9349 0.94565 0.0
O421 O 0.22591 0.88505 -0.00124 0.0
H422 H 0.62732 0.94234 0.90605 0.0
H423 H 0.98123 0.65281 0.93683 0.0
O424 O 0.04077 0.61124 0.98711 0.0
H425 H 0.8809 0.86774 0.03381 0.0
H426 H 0.0823 0.57533 0.11558 0.0
H427 H 0.11733 0.8628 0.05932 0.0
H428 H 0.06314 0.9052 0.01656 0.0
H429 H 0.12071 0.60865 0.04839 0.0
O430 O 0.2249 0.85912 0.86645 0.0
H431 H 0.47974 0.89136 0.93849 0.0
H432 H 0.36048 0.90945 0.83389 0.0
H433 H 0.07755 0.8318 0.12576 0.0
H434 H 0.79347 0.56267 0.93828 0.0
H435 H 0.06593 0.68986 0.15545 0.0
H436 H 0.69765 0.62749 0.97487 0.0
O437 O 0.24544 0.72286 0.00029 0.0
H438 H 0.1098 0.47382 0.90837 0.0
H439 H 0.37649 0.74998 0.85242 0.0
H440 H 0.36832 0.60106 0.84737 0.0
H441 H 0.23938 0.46103 0.87746 0.0
H442 H 0.11574 0.62081 0.91186 0.0
H443 H 0.51489 0.98404 0.80601 0.0
H444 H 0.64425 0.97752 0.83852 0.0
O445 O 0.33208 0.77099 0.94803 0.0
C446 C 0.2967 0.94775 0.98041 0.0
C447 C 0.56726 0.9305 0.89027 0.0
C448 C 0.50321 0.9506 0.83319 0.0
N449 N 0.40427 0.88523 0.88776 0.0
C450 C 0.48167 0.9004 0.90817 0.0
C451 C 0.41632 0.9141 0.85071 0.0
C452 C 0.57732 0.95245 0.85224 0.0
C453 C 0.95177 0.68253 0.9558 0.0
N454 N 0.02223 0.76981 0.98134 0.0
C455 C 0.83321 0.62589 0.95416 0.0
C456 C 0.77286 0.66535 0.97861 0.0
C457 C 0.89155 0.8184 0.01677 0.0
C458 C 0.0046 0.83976 0.00696 0.0
C459 C 0.08706 0.63743 0.10285 0.0
C460 C 0.10058 0.79533 0.0696 0.0
C461 C 0.10642 0.65582 0.06418 0.0
N462 N 0.11039 0.7328 0.04719 0.0
C463 C 0.08248 0.78008 0.10847 0.0
C464 C 0.07623 0.70075 0.12516 0.0
C465 C 0.31523 0.73215 0.97966 0.0
C466 C 0.17093 0.53537 0.89743 0.0
C467 C 0.31637 0.69222 0.86487 0.0
C468 C 0.31389 0.60641 0.8622 0.0
C469 C 0.24232 0.5281 0.87963 0.0
N470 N 0.24899 0.70108 0.88457 0.0
C471 C 0.17358 0.62082 0.89822 0.0
Co472 Co 0.38349 0.13523 0.32617 0.0
Co473 Co 0.45793 0.27978 0.24526 0.0
O474 O 0.39373 0.15708 0.27097 0.0
C475 C 0.5064 0.0444 0.3189 0.0
O476 O 0.5869 0.12363 0.31982 0.0
C477 C 0.3503 0.15947 0.17872 0.0
O478 O 0.36437 0.09267 0.19156 0.0
O479 O 0.38095 0.31836 0.28029 0.0
O480 O 0.33822 0.22651 0.33311 0.0
H481 H 0.68248 0.62949 0.2362 0.0
H482 H 0.32866 0.98057 0.27245 0.0
O483 O 0.42981 0.04376 0.32177 0.0
H484 H 0.00872 0.88222 0.36605 0.0
H485 H 0.50266 0.08303 0.45062 0.0
H486 H 0.25144 0.11762 0.39264 0.0
H487 H 0.1554 0.06454 0.34915 0.0
H488 H 0.50904 0.12073 0.38319 0.0
O489 O 0.36014 0.225 0.20183 0.0
H490 H 0.58969 0.48225 0.27044 0.0
H491 H 0.44914 0.35574 0.16713 0.0
H492 H 0.24315 0.08175 0.4596 0.0
H493 H 0.23306 0.79299 0.27604 0.0
H494 H 0.37336 0.07128 0.49009 0.0
H495 H 0.06984 0.69792 0.31085 0.0
O496 O 0.52011 0.2477 0.33446 0.0
H497 H 0.62924 0.10678 0.24307 0.0
H498 H 0.62497 0.3761 0.18698 0.0
H499 H 0.7635 0.36468 0.18171 0.0
H500 H 0.77063 0.23237 0.20999 0.0
H501 H 0.48878 0.11376 0.24585 0.0
H502 H 0.52526 0.50741 0.13715 0.0
H503 H 0.65908 0.64195 0.16872 0.0
O504 O 0.56004 0.33304 0.28154 0.0
C505 C 0.34789 0.29824 0.31492 0.0
C506 C 0.63352 0.56793 0.22129 0.0
C507 C 0.54755 0.49911 0.16491 0.0
N508 N 0.51668 0.40402 0.2208 0.0
C509 C 0.5801 0.48284 0.24021 0.0
C510 C 0.49907 0.41331 0.1835 0.0
C511 C 0.61923 0.57551 0.1832 0.0
C512 C 0.26944 0.95157 0.29142 0.0
N513 N 0.25115 0.02269 0.31561 0.0
C514 C 0.20795 0.83299 0.29059 0.0
C515 C 0.10669 0.77316 0.31412 0.0
C516 C 0.0697 0.89264 0.34983 0.0
C517 C 0.16204 0.00565 0.33998 0.0
C518 C 0.44614 0.08872 0.43761 0.0
C519 C 0.30251 0.10203 0.40351 0.0
C520 C 0.44769 0.10734 0.39882 0.0
N521 N 0.37528 0.11172 0.3815 0.0
C522 C 0.29973 0.08586 0.44256 0.0
C523 C 0.37266 0.08014 0.4597 0.0
C524 C 0.58108 0.31665 0.31352 0.0
C525 C 0.62927 0.16761 0.23148 0.0
C526 C 0.62042 0.31438 0.19884 0.0
C527 C 0.70259 0.30995 0.19588 0.0
C528 C 0.70747 0.2368 0.21266 0.0
N529 N 0.54326 0.24736 0.21837 0.0
C530 C 0.54701 0.17137 0.23218 0.0
Co531 Co 0.24219 0.38249 0.65844 0.0
Co532 Co 0.16902 0.45292 0.57749 0.0
O533 O 0.23045 0.39188 0.60318 0.0
C534 C 0.45656 0.50378 0.65043 0.0
O535 O 0.46043 0.58516 0.65343 0.0
C536 C 0.18665 0.34894 0.51156 0.0
O537 O 0.26899 0.36783 0.52466 0.0
O538 O 0.05314 0.37204 0.61171 0.0
O539 O 0.10587 0.33671 0.66541 0.0
H540 H 0.04532 0.67828 0.56538 0.0
H541 H 0.33967 0.32729 0.60449 0.0
O542 O 0.3797 0.42815 0.65376 0.0
H543 H 0.11997 0.00704 0.69867 0.0
H544 H 0.41216 0.50139 0.78327 0.0
H545 H 0.12498 0.25341 0.72466 0.0
H546 H 0.08449 0.15414 0.68262 0.0
H547 H 0.38311 0.50794 0.71553 0.0
O548 O 0.12903 0.35573 0.53435 0.0
H549 H 0.09968 0.58775 0.60099 0.0
H550 H 0.07325 0.43325 0.50068 0.0
H551 H 0.15371 0.24092 0.79136 0.0
H552 H 0.43125 0.23204 0.60768 0.0
H553 H 0.29478 0.36976 0.82219 0.0
H554 H 0.36296 0.06857 0.64194 0.0
O555 O 0.26815 0.51967 0.66614 0.0
H556 H 0.5022 0.6574 0.58956 0.0
H557 H 0.23619 0.60156 0.50995 0.0
H558 H 0.36907 0.75871 0.5146 0.0
H559 H 0.5013 0.79213 0.55672 0.0
H560 H 0.37226 0.50153 0.58296 0.0
H561 H 0.00775 0.51486 0.46814 0.0
H562 H 0.01391 0.65458 0.49754 0.0
O563 O 0.21475 0.55471 0.6142 0.0
C564 C 0.04134 0.34008 0.64649 0.0
C565 C 0.05828 0.62891 0.55107 0.0
C566 C 0.03824 0.5383 0.49591 0.0
N567 N 0.10179 0.50963 0.55259 0.0
C568 C 0.08891 0.57584 0.5709 0.0
C569 C 0.07125 0.4878 0.51583 0.0
C570 C 0.0374 0.61332 0.51292 0.0
C571 C 0.30992 0.26833 0.62369 0.0
N572 N 0.22125 0.25 0.64834 0.0
C573 C 0.36654 0.20689 0.62243 0.0
C574 C 0.32543 0.10567 0.64586 0.0
C575 C 0.17022 0.06827 0.68239 0.0
C576 C 0.14964 0.16085 0.67301 0.0
C577 C 0.35039 0.44479 0.77003 0.0
C578 C 0.19242 0.30277 0.73563 0.0
C579 C 0.33427 0.44673 0.73115 0.0
N580 N 0.25713 0.37484 0.71372 0.0
C581 C 0.20651 0.29788 0.77448 0.0
C582 C 0.28553 0.37012 0.79181 0.0
C583 C 0.25659 0.57867 0.64536 0.0
C584 C 0.44289 0.64701 0.57302 0.0
C585 C 0.29156 0.61132 0.52851 0.0
C586 C 0.36842 0.70239 0.53048 0.0
C587 C 0.44287 0.72119 0.55422 0.0
N588 N 0.28644 0.54048 0.55093 0.0
C589 C 0.36698 0.55647 0.56892 0.0
Co590 Co 0.85473 0.23803 -0.00207 0.0
Co591 Co 0.71819 0.1893 0.91544 0.0
O592 O 0.83711 0.23528 0.9426 0.0
C593 C 0.95015 0.44791 0.98548 0.0
O594 O 0.87168 0.44667 0.97741 0.0
C595 C 0.82922 0.1859 0.84544 0.0
O596 O 0.91046 0.25526 0.85668 0.0
O597 O 0.66896 0.06641 0.94777 0.0
O598 O 0.76115 0.10188 0.00071 0.0
H599 H 0.37116 0.06492 0.90764 0.0
H600 H 0.00366 0.33431 0.9431 0.0
O601 O 0.94939 0.37488 -0.00332 0.0
H602 H 0.11446 0.12424 0.03845 0.0
H603 H 0.92174 0.39717 0.12572 0.0
H604 H 0.84705 0.1045 0.06078 0.0
H605 H 0.93059 0.08436 0.02387 0.0
H606 H 0.88569 0.37896 0.05754 0.0
O607 O 0.76304 0.14077 0.87006 0.0
H608 H 0.51678 0.09453 0.93991 0.0
H609 H 0.66064 0.18267 0.83537 0.0
H610 H 0.88701 0.12138 0.128 0.0
H611 H 0.18959 0.4212 0.94055 0.0
H612 H 0.91907 0.26635 0.16175 0.0
H613 H 0.28964 0.36108 0.9766 0.0
O614 O 0.74287 0.26321 0.00727 0.0
H615 H 0.9622 0.52446 0.89802 0.0
H616 H 0.62816 0.30126 0.88829 0.0
H617 H 0.68512 0.46332 0.87071 0.0
H618 H 0.85471 0.57808 0.87463 0.0
H619 H 0.90958 0.36041 0.9029 0.0
H620 H 0.51268 0.14257 0.80253 0.0
H621 H 0.36852 0.08836 0.839 0.0
O622 O 0.66702 0.23721 0.95239 0.0
C623 C 0.68909 0.04532 0.98119 0.0
C624 C 0.43469 0.09081 0.89201 0.0
C625 C 0.515 0.13741 0.83277 0.0
N626 N 0.59843 0.14097 0.88939 0.0
C627 C 0.51744 0.1073 0.90977 0.0
C628 C 0.59722 0.15477 0.85124 0.0
C629 C 0.43342 0.10578 0.85335 0.0
C630 C 0.03402 0.30384 0.96111 0.0
N631 N 0.96616 0.21714 0.98736 0.0
C632 C 0.15198 0.36091 0.95797 0.0
C633 C 0.21502 0.32394 0.98183 0.0
C634 C 0.10142 0.17234 0.02157 0.0
C635 C 0.98705 0.14929 0.01318 0.0
C636 C 0.90799 0.33357 0.11119 0.0
C637 C 0.8713 0.17179 0.07352 0.0
C638 C 0.88931 0.32325 0.07219 0.0
N639 N 0.87414 0.24404 0.05324 0.0
C640 C 0.89019 0.17968 0.11242 0.0
C641 C 0.90788 0.26088 0.13138 0.0
C642 C 0.67797 0.26336 0.98594 0.0
C643 C 0.88952 0.47427 0.89241 0.0
C644 C 0.70285 0.34562 0.88515 0.0
C645 C 0.73429 0.43968 0.87689 0.0
C646 C 0.82902 0.50422 0.87978 0.0
N647 N 0.76466 0.31365 0.89199 0.0
C648 C 0.85801 0.37892 0.8952 0.0
Co649 Co 0.61583 0.8561 0.33066 0.0
Co650 Co 0.52792 0.71898 0.24822 0.0
O651 O 0.60044 0.83831 0.27532 0.0
C652 C 0.50259 0.95332 0.31917 0.0
O653 O 0.42466 0.87493 0.31153 0.0
C654 C 0.63555 0.83193 0.17739 0.0
O655 O 0.64852 0.91306 0.18914 0.0
O656 O 0.60431 0.67153 0.2798 0.0
O657 O 0.65642 0.76122 0.3335 0.0
H658 H 0.30716 0.3701 0.23955 0.0
H659 H 0.66995 0.00369 0.27524 0.0
O660 O 0.57532 0.95215 0.32941 0.0
H661 H 0.98837 0.11675 0.37254 0.0
H662 H 0.52659 0.92005 0.45958 0.0
H663 H 0.73775 0.84063 0.39243 0.0
H664 H 0.84476 0.93263 0.35831 0.0
H665 H 0.50976 0.89133 0.39087 0.0
O666 O 0.6191 0.76647 0.20195 0.0
H667 H 0.42214 0.51587 0.27229 0.0
H668 H 0.47547 0.66204 0.16837 0.0
H669 H 0.76177 0.87609 0.46001 0.0
H670 H 0.76942 0.18925 0.27178 0.0
H671 H 0.65062 0.90802 0.49492 0.0
H672 H 0.92879 0.29083 0.30868 0.0
O673 O 0.47846 0.74556 0.34007 0.0
H674 H 0.43341 0.96062 0.22999 0.0
H675 H 0.32449 0.62566 0.22355 0.0
H676 H 0.21576 0.67969 0.20845 0.0
H677 H 0.26898 0.84882 0.21116 0.0
H678 H 0.54514 0.9092 0.23585 0.0
H679 H 0.36881 0.51517 0.13488 0.0
H680 H 0.27969 0.36929 0.17107 0.0
O681 O 0.43121 0.66575 0.286 0.0
C682 C 0.64321 0.69054 0.31371 0.0
C683 C 0.3438 0.43445 0.22421 0.0
C684 C 0.37656 0.51629 0.16522 0.0
N685 N 0.45655 0.59892 0.22207 0.0
C686 C 0.4097 0.51722 0.24221 0.0
C687 C 0.44092 0.5983 0.18399 0.0
C688 C 0.32709 0.43403 0.18557 0.0
C689 C 0.73077 0.03433 0.2933 0.0
N690 N 0.74885 0.96701 0.32024 0.0
C691 C 0.79181 0.15232 0.28975 0.0
C692 C 0.89118 0.21611 0.31407 0.0
C693 C 0.92785 0.10328 0.35511 0.0
C694 C 0.83674 0.98862 0.3468 0.0
C695 C 0.57535 0.90579 0.44455 0.0
C696 C 0.6968 0.86651 0.40575 0.0
C697 C 0.5676 0.89127 0.40528 0.0
N698 N 0.62972 0.87439 0.38588 0.0
C699 C 0.70814 0.88271 0.44479 0.0
C700 C 0.64576 0.90063 0.46437 0.0
C701 C 0.41464 0.6788 0.31905 0.0
C702 C 0.41067 0.88738 0.22571 0.0
C703 C 0.35338 0.7002 0.22034 0.0
C704 C 0.28902 0.72992 0.21336 0.0
C705 C 0.3185 0.82455 0.21554 0.0
N706 N 0.44744 0.76342 0.22594 0.0
C707 C 0.47498 0.85676 0.22855 0.0
loop_
_geom_bond_atom_site_label_1
_geom_bond_atom_site_label_2
_geom_bond_distance
_geom_bond_site_symmetry_2
_ccdc_geom_bond_type
Co0 O2 2.143 1_556 S
Co0 O8 2.074 . S
Co0 O11 2.093 1_556 S
Co0 O24 2.097 . S
Co0 N41 2.151 1_556 S
Co0 N49 2.214 . S
Co1 O2 2.160 . S
Co1 O7 2.058 . S
Co1 O17 2.057 . S
Co1 O32 2.037 . S
Co1 N36 2.145 . S
Co1 N57 2.257 . S
O2 Co0 2.143 1_554 S
O2 Co1 2.160 . S
C3 O4 1.278 . S
C3 O11 1.224 . S
O4 C3 1.278 . S
C5 O6 1.245 . S
C5 O17 1.232 . S
O6 C5 1.245 . S
O7 Co1 2.058 . S
O7 C33 1.269 . S
O8 Co0 2.074 . S
O8 C33 1.257 1_556 S
H9 C34 0.930 . S
H10 C40 0.930 . S
O11 Co0 2.093 1_554 S
O11 C3 1.224 . S
H12 C44 0.929 . S
H13 C46 0.930 . S
H14 C47 0.930 . S
H15 C45 0.929 . S
H16 C48 0.928 . S
O17 Co1 2.057 . S
O17 C5 1.232 . S
H18 C37 0.929 . S
H19 C38 0.929 . S
H20 C50 0.931 . S
H21 C42 0.929 . S
H22 C51 0.930 . S
H23 C43 0.931 . S
O24 Co0 2.097 . S
O24 C52 1.214 . S
H25 C53 0.929 . S
H26 C54 0.929 . S
H27 C55 0.930 . S
H28 C56 0.929 . S
H29 C58 0.930 . S
H30 C35 0.930 . S
H31 C39 0.930 . S
O32 Co1 2.037 . S
O32 C52 1.234 1_554 S
C33 O7 1.269 . S
C33 O8 1.257 1_554 S
C34 H9 0.930 . S
C34 C37 1.388 1_565 S
C34 C39 1.418 . S
C35 H30 0.930 . S
C35 C38 1.404 1_565 S
C35 C39 1.353 . S
N36 Co1 2.145 . S
N36 C37 1.397 . S
N36 C38 1.334 . S
C37 H18 0.929 . S
C37 C34 1.388 1_545 S
C37 N36 1.397 . S
C38 H19 0.929 . S
C38 C35 1.404 1_545 S
C38 N36 1.334 . S
C39 H31 0.930 . S
C39 C34 1.418 . S
C39 C35 1.353 . S
C40 H10 0.930 . S
C40 N41 1.330 . S
C40 C42 1.446 . S
N41 Co0 2.151 1_554 S
N41 C40 1.330 . S
N41 C45 1.418 1_554 S
C42 H21 0.929 . S
C42 C40 1.446 . S
C42 C43 1.332 . S
C43 H23 0.931 . S
C43 C42 1.332 . S
C43 C44 1.267 1_554 S
C44 H12 0.929 . S
C44 C43 1.267 1_556 S
C44 C45 1.251 . S
C45 H15 0.929 . S
C45 N41 1.418 1_556 S
C45 C44 1.251 . S
C46 H13 0.930 . S
C46 C48 1.406 . S
C46 C51 1.261 . S
C47 H14 0.930 . S
C47 N49 1.325 . S
C47 C50 1.357 . S
C48 H16 0.928 . S
C48 C46 1.406 . S
C48 N49 1.261 . S
N49 Co0 2.214 . S
N49 C47 1.325 . S
N49 C48 1.261 . S
C50 H20 0.931 . S
C50 C47 1.357 . S
C50 C51 1.312 . S
C51 H22 0.930 . S
C51 C46 1.261 . S
C51 C50 1.312 . S
C52 O24 1.214 . S
C52 O32 1.234 1_556 S
C53 H25 0.929 . S
C53 C56 1.391 . S
C53 C58 1.391 . S
C54 H26 0.929 . S
C54 C55 1.390 . S
C54 N57 1.391 . S
C55 H27 0.930 . S
C55 C54 1.390 . S
C55 C56 1.392 . S
C56 H28 0.929 . S
C56 C53 1.391 . S
C56 C55 1.392 . S
N57 Co1 2.257 . S
N57 C54 1.391 . S
N57 C58 1.388 . S
C58 H29 0.930 . S
C58 C53 1.391 . S
C58 N57 1.388 . S
Co59 O61 2.143 . S
Co59 O67 2.074 . S
Co59 O70 2.093 . S
Co59 O83 2.097 . S
Co59 N100 2.151 1_455 S
Co59 N108 2.214 . S
Co60 O61 2.160 . S
Co60 O66 2.058 . S
Co60 O76 2.057 . S
Co60 O91 2.037 . S
Co60 N95 2.145 . S
Co60 N116 2.257 . S
O61 Co59 2.143 . S
O61 Co60 2.160 . S
C62 O63 1.278 . S
C62 O70 1.224 . S
O63 C62 1.278 . S
C64 O65 1.245 . S
C64 O76 1.232 . S
O65 C64 1.245 . S
O66 Co60 2.058 . S
O66 C92 1.269 . S
O67 Co59 2.074 . S
O67 C92 1.257 . S
H68 C93 0.930 . S
H69 C99 0.930 . S
O70 Co59 2.093 . S
O70 C62 1.224 . S
H71 C103 0.929 . S
H72 C105 0.930 1_655 S
H73 C106 0.930 . S
H74 C104 0.929 1_455 S
H75 C107 0.928 1_655 S
O76 Co60 2.057 . S
O76 C64 1.232 . S
H77 C96 0.929 . S
H78 C97 0.929 . S
H79 C109 0.931 . S
H80 C101 0.929 . S
H81 C110 0.930 . S
H82 C102 0.931 . S
O83 Co59 2.097 . S
O83 C111 1.214 . S
H84 C112 0.929 . S
H85 C113 0.929 . S
H86 C114 0.930 . S
H87 C115 0.929 . S
H88 C117 0.930 . S
H89 C94 0.930 . S
H90 C98 0.930 . S
O91 Co60 2.037 . S
O91 C111 1.234 . S
C92 O66 1.269 . S
C92 O67 1.257 . S
C93 H68 0.930 . S
C93 C96 1.388 . S
C93 C98 1.418 . S
C94 H89 0.930 . S
C94 C97 1.404 . S
C94 C98 1.353 . S
N95 Co60 2.145 . S
N95 C96 1.397 . S
N95 C97 1.334 . S
C96 H77 0.929 . S
C96 C93 1.388 . S
C96 N95 1.397 . S
C97 H78 0.929 . S
C97 C94 1.404 . S
C97 N95 1.334 . S
C98 H90 0.930 . S
C98 C93 1.418 . S
C98 C94 1.353 . S
C99 H69 0.930 . S
C99 N100 1.330 . S
C99 C101 1.446 . S
N100 Co59 2.151 1_655 S
N100 C99 1.330 . S
N100 C104 1.418 . S
C101 H80 0.929 . S
C101 C99 1.446 . S
C101 C102 1.332 . S
C102 H82 0.931 . S
C102 C101 1.332 . S
C102 C103 1.267 . S
C103 H71 0.929 . S
C103 C102 1.267 . S
C103 C104 1.251 . S
C104 H74 0.929 1_655 S
C104 N100 1.418 . S
C104 C103 1.251 . S
C105 H72 0.930 1_455 S
C105 C107 1.406 . S
C105 C110 1.261 . S
C106 H73 0.930 . S
C106 N108 1.325 . S
C106 C109 1.357 . S
C107 H75 0.928 1_455 S
C107 C105 1.406 . S
C107 N108 1.261 . S
N108 Co59 2.214 . S
N108 C106 1.325 . S
N108 C107 1.261 . S
C109 H79 0.931 . S
C109 C106 1.357 . S
C109 C110 1.312 . S
C110 H81 0.930 . S
C110 C105 1.261 . S
C110 C109 1.312 . S
C111 O83 1.214 . S
C111 O91 1.234 . S
C112 H84 0.929 . S
C112 C115 1.391 . S
C112 C117 1.391 . S
C113 H85 0.929 . S
C113 C114 1.390 . S
C113 N116 1.391 . S
C114 H86 0.930 . S
C114 C113 1.390 . S
C114 C115 1.392 . S
C115 H87 0.929 . S
C115 C112 1.391 . S
C115 C114 1.392 . S
N116 Co60 2.257 . S
N116 C113 1.391 . S
N116 C117 1.388 . S
C117 H88 0.930 . S
C117 C112 1.391 . S
C117 N116 1.388 . S
Co118 O120 2.143 . S
Co118 O126 2.074 . S
Co118 O129 2.093 . S
Co118 O142 2.097 . S
Co118 N159 2.151 1_545 S
Co118 N167 2.214 . S
Co119 O120 2.160 . S
Co119 O125 2.058 . S
Co119 O135 2.057 . S
Co119 O150 2.037 . S
Co119 N154 2.145 . S
Co119 N175 2.257 . S
O120 Co118 2.143 . S
O120 Co119 2.160 . S
C121 O122 1.278 . S
C121 O129 1.224 . S
O122 C121 1.278 . S
C123 O124 1.245 . S
C123 O135 1.232 . S
O124 C123 1.245 . S
O125 Co119 2.058 . S
O125 C151 1.269 . S
O126 Co118 2.074 . S
O126 C151 1.257 . S
H127 C152 0.930 . S
H128 C158 0.930 . S
O129 Co118 2.093 . S
O129 C121 1.224 . S
H130 C162 0.929 . S
H131 C164 0.930 1_565 S
H132 C165 0.930 . S
H133 C163 0.929 1_545 S
H134 C166 0.928 1_565 S
O135 Co119 2.057 . S
O135 C123 1.232 . S
H136 C155 0.929 . S
H137 C156 0.929 . S
H138 C168 0.931 . S
H139 C160 0.929 . S
H140 C169 0.930 . S
H141 C161 0.931 . S
O142 Co118 2.097 . S
O142 C170 1.214 . S
H143 C171 0.929 . S
H144 C172 0.929 . S
H145 C173 0.930 . S
H146 C174 0.929 . S
H147 C176 0.930 . S
H148 C153 0.930 . S
H149 C157 0.930 . S
O150 Co119 2.037 . S
O150 C170 1.234 . S
C151 O125 1.269 . S
C151 O126 1.257 . S
C152 H127 0.930 . S
C152 C155 1.388 1_455 S
C152 C157 1.418 . S
C153 H148 0.930 . S
C153 C156 1.404 1_455 S
C153 C157 1.353 . S
N154 Co119 2.145 . S
N154 C155 1.397 . S
N154 C156 1.334 . S
C155 H136 0.929 . S
C155 C152 1.388 1_655 S
C155 N154 1.397 . S
C156 H137 0.929 . S
C156 C153 1.404 1_655 S
C156 N154 1.334 . S
C157 H149 0.930 . S
C157 C152 1.418 . S
C157 C153 1.353 . S
C158 H128 0.930 . S
C158 N159 1.330 . S
C158 C160 1.446 . S
N159 Co118 2.151 1_565 S
N159 C158 1.330 . S
N159 C163 1.418 . S
C160 H139 0.929 . S
C160 C158 1.446 . S
C160 C161 1.332 . S
C161 H141 0.931 . S
C161 C160 1.332 . S
C161 C162 1.267 . S
C162 H130 0.929 . S
C162 C161 1.267 . S
C162 C163 1.251 . S
C163 H133 0.929 1_565 S
C163 N159 1.418 . S
C163 C162 1.251 . S
C164 H131 0.930 1_545 S
C164 C166 1.406 . S
C164 C169 1.261 . S
C165 H132 0.930 . S
C165 N167 1.325 . S
C165 C168 1.357 . S
C166 H134 0.928 1_545 S
C166 C164 1.406 . S
C166 N167 1.261 . S
N167 Co118 2.214 . S
N167 C165 1.325 . S
N167 C166 1.261 . S
C168 H138 0.931 . S
C168 C165 1.357 . S
C168 C169 1.312 . S
C169 H140 0.930 . S
C169 C164 1.261 . S
C169 C168 1.312 . S
C170 O142 1.214 . S
C170 O150 1.234 . S
C171 H143 0.929 . S
C171 C174 1.391 . S
C171 C176 1.391 . S
C172 H144 0.929 . S
C172 C173 1.390 . S
C172 N175 1.391 . S
C173 H145 0.930 . S
C173 C172 1.390 . S
C173 C174 1.392 . S
C174 H146 0.929 . S
C174 C171 1.391 . S
C174 C173 1.392 . S
N175 Co119 2.257 . S
N175 C172 1.391 . S
N175 C176 1.388 . S
C176 H147 0.930 . S
C176 C171 1.391 . S
C176 N175 1.388 . S
Co177 O179 2.143 1_556 S
Co177 O185 2.074 . S
Co177 O188 2.093 1_556 S
Co177 O201 2.097 . S
Co177 N218 2.151 1_556 S
Co177 N226 2.214 . S
Co178 O179 2.160 . S
Co178 O184 2.058 . S
Co178 O194 2.057 . S
Co178 O209 2.037 . S
Co178 N213 2.145 . S
Co178 N234 2.257 . S
O179 Co177 2.143 1_554 S
O179 Co178 2.160 . S
C180 O181 1.278 . S
C180 O188 1.224 . S
O181 C180 1.278 . S
C182 O183 1.245 . S
C182 O194 1.232 . S
O183 C182 1.245 . S
O184 Co178 2.058 . S
O184 C210 1.269 . S
O185 Co177 2.074 . S
O185 C210 1.257 1_556 S
H186 C211 0.930 . S
H187 C217 0.930 . S
O188 Co177 2.093 1_554 S
O188 C180 1.224 . S
H189 C221 0.929 . S
H190 C223 0.930 . S
H191 C224 0.930 . S
H192 C222 0.929 . S
H193 C225 0.928 . S
O194 Co178 2.057 . S
O194 C182 1.232 . S
H195 C214 0.929 . S
H196 C215 0.929 . S
H197 C227 0.931 . S
H198 C219 0.929 . S
H199 C228 0.930 . S
H200 C220 0.931 . S
O201 Co177 2.097 . S
O201 C229 1.214 . S
H202 C230 0.929 . S
H203 C231 0.929 . S
H204 C232 0.930 . S
H205 C233 0.929 . S
H206 C235 0.930 . S
H207 C212 0.930 . S
H208 C216 0.930 . S
O209 Co178 2.037 . S
O209 C229 1.234 1_554 S
C210 O184 1.269 . S
C210 O185 1.257 1_554 S
C211 H186 0.930 . S
C211 C214 1.388 1_545 S
C211 C216 1.418 . S
C212 H207 0.930 . S
C212 C215 1.404 1_545 S
C212 C216 1.353 . S
N213 Co178 2.145 . S
N213 C214 1.397 . S
N213 C215 1.334 . S
C214 H195 0.929 . S
C214 C211 1.388 1_565 S
C214 N213 1.397 . S
C215 H196 0.929 . S
C215 C212 1.404 1_565 S
C215 N213 1.334 . S
C216 H208 0.930 . S
C216 C211 1.418 . S
C216 C212 1.353 . S
C217 H187 0.930 . S
C217 N218 1.330 . S
C217 C219 1.446 . S
N218 Co177 2.151 1_554 S
N218 C217 1.330 . S
N218 C222 1.418 1_554 S
C219 H198 0.929 . S
C219 C217 1.446 . S
C219 C220 1.332 . S
C220 H200 0.931 . S
C220 C219 1.332 . S
C220 C221 1.267 1_554 S
C221 H189 0.929 . S
C221 C220 1.267 1_556 S
C221 C222 1.251 . S
C222 H192 0.929 . S
C222 N218 1.418 1_556 S
C222 C221 1.251 . S
C223 H190 0.930 . S
C223 C225 1.406 . S
C223 C228 1.261 . S
C224 H191 0.930 . S
C224 N226 1.325 . S
C224 C227 1.357 . S
C225 H193 0.928 . S
C225 C223 1.406 . S
C225 N226 1.261 . S
N226 Co177 2.214 . S
N226 C224 1.325 . S
N226 C225 1.261 . S
C227 H197 0.931 . S
C227 C224 1.357 . S
C227 C228 1.312 . S
C228 H199 0.930 . S
C228 C223 1.261 . S
C228 C227 1.312 . S
C229 O201 1.214 . S
C229 O209 1.234 1_556 S
C230 H202 0.929 . S
C230 C233 1.391 . S
C230 C235 1.391 . S
C231 H203 0.929 . S
C231 C232 1.390 . S
C231 N234 1.391 . S
C232 H204 0.930 . S
C232 C231 1.390 . S
C232 C233 1.392 . S
C233 H205 0.929 . S
C233 C230 1.391 . S
C233 C232 1.392 . S
N234 Co178 2.257 . S
N234 C231 1.391 . S
N234 C235 1.388 . S
C235 H206 0.930 . S
C235 C230 1.391 . S
C235 N234 1.388 . S
Co236 O238 2.143 . S
Co236 O244 2.074 . S
Co236 O247 2.093 . S
Co236 O260 2.097 . S
Co236 N277 2.151 1_655 S
Co236 N285 2.214 . S
Co237 O238 2.160 . S
Co237 O243 2.058 . S
Co237 O253 2.057 . S
Co237 O268 2.037 . S
Co237 N272 2.145 . S
Co237 N293 2.257 . S
O238 Co236 2.143 . S
O238 Co237 2.160 . S
C239 O240 1.278 . S
C239 O247 1.224 . S
O240 C239 1.278 . S
C241 O242 1.245 . S
C241 O253 1.232 . S
O242 C241 1.245 . S
O243 Co237 2.058 . S
O243 C269 1.269 . S
O244 Co236 2.074 . S
O244 C269 1.257 . S
H245 C270 0.930 . S
H246 C276 0.930 . S
O247 Co236 2.093 . S
O247 C239 1.224 . S
H248 C280 0.929 . S
H249 C282 0.930 1_455 S
H250 C283 0.930 . S
H251 C281 0.929 1_655 S
H252 C284 0.928 1_455 S
O253 Co237 2.057 . S
O253 C241 1.232 . S
H254 C273 0.929 . S
H255 C274 0.929 . S
H256 C286 0.931 . S
H257 C278 0.929 . S
H258 C287 0.930 . S
H259 C279 0.931 . S
O260 Co236 2.097 . S
O260 C288 1.214 . S
H261 C289 0.929 . S
H262 C290 0.929 . S
H263 C291 0.930 . S
H264 C292 0.929 . S
H265 C294 0.930 . S
H266 C271 0.930 . S
H267 C275 0.930 . S
O268 Co237 2.037 . S
O268 C288 1.234 . S
C269 O243 1.269 . S
C269 O244 1.257 . S
C270 H245 0.930 . S
C270 C273 1.388 . S
C270 C275 1.418 . S
C271 H266 0.930 . S
C271 C274 1.404 . S
C271 C275 1.353 . S
N272 Co237 2.145 . S
N272 C273 1.397 . S
N272 C274 1.334 . S
C273 H254 0.929 . S
C273 C270 1.388 . S
C273 N272 1.397 . S
C274 H255 0.929 . S
C274 C271 1.404 . S
C274 N272 1.334 . S
C275 H267 0.930 . S
C275 C270 1.418 . S
C275 C271 1.353 . S
C276 H246 0.930 . S
C276 N277 1.330 . S
C276 C278 1.446 . S
N277 Co236 2.151 1_455 S
N277 C276 1.330 . S
N277 C281 1.418 . S
C278 H257 0.929 . S
C278 C276 1.446 . S
C278 C279 1.332 . S
C279 H259 0.931 . S
C279 C278 1.332 . S
C279 C280 1.267 . S
C280 H248 0.929 . S
C280 C279 1.267 . S
C280 C281 1.251 . S
C281 H251 0.929 1_455 S
C281 N277 1.418 . S
C281 C280 1.251 . S
C282 H249 0.930 1_655 S
C282 C284 1.406 . S
C282 C287 1.261 . S
C283 H250 0.930 . S
C283 N285 1.325 . S
C283 C286 1.357 . S
C284 H252 0.928 1_655 S
C284 C282 1.406 . S
C284 N285 1.261 . S
N285 Co236 2.214 . S
N285 C283 1.325 . S
N285 C284 1.261 . S
C286 H256 0.931 . S
C286 C283 1.357 . S
C286 C287 1.312 . S
C287 H258 0.930 . S
C287 C282 1.261 . S
C287 C286 1.312 . S
C288 O260 1.214 . S
C288 O268 1.234 . S
C289 H261 0.929 . S
C289 C292 1.391 . S
C289 C294 1.391 . S
C290 H262 0.929 . S
C290 C291 1.390 . S
C290 N293 1.391 . S
C291 H263 0.930 . S
C291 C290 1.390 . S
C291 C292 1.392 . S
C292 H264 0.929 . S
C292 C289 1.391 . S
C292 C291 1.392 . S
N293 Co237 2.257 . S
N293 C290 1.391 . S
N293 C294 1.388 . S
C294 H265 0.930 . S
C294 C289 1.391 . S
C294 N293 1.388 . S
Co295 O297 2.143 . S
Co295 O303 2.074 . S
Co295 O306 2.093 . S
Co295 O319 2.097 . S
Co295 N336 2.151 1_565 S
Co295 N344 2.214 . S
Co296 O297 2.160 . S
Co296 O302 2.058 . S
Co296 O312 2.057 . S
Co296 O327 2.037 . S
Co296 N331 2.145 . S
Co296 N352 2.257 . S
O297 Co295 2.143 . S
O297 Co296 2.160 . S
C298 O299 1.278 . S
C298 O306 1.224 . S
O299 C298 1.278 . S
C300 O301 1.245 . S
C300 O312 1.232 . S
O301 C300 1.245 . S
O302 Co296 2.058 . S
O302 C328 1.269 . S
O303 Co295 2.074 . S
O303 C328 1.257 . S
H304 C329 0.930 . S
H305 C335 0.930 . S
O306 Co295 2.093 . S
O306 C298 1.224 . S
H307 C339 0.929 . S
H308 C341 0.930 1_545 S
H309 C342 0.930 . S
H310 C340 0.929 1_565 S
H311 C343 0.928 1_545 S
O312 Co296 2.057 . S
O312 C300 1.232 . S
H313 C332 0.929 . S
H314 C333 0.929 . S
H315 C345 0.931 . S
H316 C337 0.929 . S
H317 C346 0.930 . S
H318 C338 0.931 . S
O319 Co295 2.097 . S
O319 C347 1.214 . S
H320 C348 0.929 . S
H321 C349 0.929 . S
H322 C350 0.930 . S
H323 C351 0.929 . S
H324 C353 0.930 . S
H325 C330 0.930 . S
H326 C334 0.930 . S
O327 Co296 2.037 . S
O327 C347 1.234 . S
C328 O302 1.269 . S
C328 O303 1.257 . S
C329 H304 0.930 . S
C329 C332 1.388 1_655 S
C329 C334 1.418 . S
C330 H325 0.930 . S
C330 C333 1.404 1_655 S
C330 C334 1.353 . S
N331 Co296 2.145 . S
N331 C332 1.397 . S
N331 C333 1.334 . S
C332 H313 0.929 . S
C332 C329 1.388 1_455 S
C332 N331 1.397 . S
C333 H314 0.929 . S
C333 C330 1.404 1_455 S
C333 N331 1.334 . S
C334 H326 0.930 . S
C334 C329 1.418 . S
C334 C330 1.353 . S
C335 H305 0.930 . S
C335 N336 1.330 . S
C335 C337 1.446 . S
N336 Co295 2.151 1_545 S
N336 C335 1.330 . S
N336 C340 1.418 . S
C337 H316 0.929 . S
C337 C335 1.446 . S
C337 C338 1.332 . S
C338 H318 0.931 . S
C338 C337 1.332 . S
C338 C339 1.267 . S
C339 H307 0.929 . S
C339 C338 1.267 . S
C339 C340 1.251 . S
C340 H310 0.929 1_545 S
C340 N336 1.418 . S
C340 C339 1.251 . S
C341 H308 0.930 1_565 S
C341 C343 1.406 . S
C341 C346 1.261 . S
C342 H309 0.930 . S
C342 N344 1.325 . S
C342 C345 1.357 . S
C343 H311 0.928 1_565 S
C343 C341 1.406 . S
C343 N344 1.261 . S
N344 Co295 2.214 . S
N344 C342 1.325 . S
N344 C343 1.261 . S
C345 H315 0.931 . S
C345 C342 1.357 . S
C345 C346 1.312 . S
C346 H317 0.930 . S
C346 C341 1.261 . S
C346 C345 1.312 . S
C347 O319 1.214 . S
C347 O327 1.234 . S
C348 H320 0.929 . S
C348 C351 1.391 . S
C348 C353 1.391 . S
C349 H321 0.929 . S
C349 C350 1.390 . S
C349 N352 1.391 . S
C350 H322 0.930 . S
C350 C349 1.390 . S
C350 C351 1.392 . S
C351 H323 0.929 . S
C351 C348 1.391 . S
C351 C350 1.392 . S
N352 Co296 2.257 . S
N352 C349 1.391 . S
N352 C353 1.388 . S
C353 H324 0.930 . S
C353 C348 1.391 . S
C353 N352 1.388 . S
Co354 O356 2.143 . S
Co354 O362 2.074 . S
Co354 O365 2.093 . S
Co354 O378 2.097 . S
Co354 N395 2.151 . S
Co354 N403 2.214 . S
Co355 O356 2.160 . S
Co355 O361 2.058 . S
Co355 O371 2.057 . S
Co355 O386 2.037 . S
Co355 N390 2.145 . S
Co355 N411 2.257 . S
O356 Co354 2.143 . S
O356 Co355 2.160 . S
C357 O358 1.278 . S
C357 O365 1.224 . S
O358 C357 1.278 . S
C359 O360 1.245 . S
C359 O371 1.232 . S
O360 C359 1.245 . S
O361 Co355 2.058 . S
O361 C387 1.269 . S
O362 Co354 2.074 . S
O362 C387 1.257 . S
H363 C388 0.930 . S
H364 C394 0.930 . S
O365 Co354 2.093 . S
O365 C357 1.224 . S
H366 C398 0.929 . S
H367 C400 0.930 . S
H368 C401 0.930 . S
H369 C399 0.929 . S
H370 C402 0.928 . S
O371 Co355 2.057 . S
O371 C359 1.232 . S
H372 C391 0.929 . S
H373 C392 0.929 . S
H374 C404 0.931 . S
H375 C396 0.929 . S
H376 C405 0.930 . S
H377 C397 0.931 . S
O378 Co354 2.097 . S
O378 C406 1.214 . S
H379 C407 0.929 . S
H380 C408 0.929 . S
H381 C409 0.930 . S
H382 C410 0.929 . S
H383 C412 0.930 . S
H384 C389 0.930 . S
H385 C393 0.930 . S
O386 Co355 2.037 . S
O386 C406 1.234 . S
C387 O361 1.269 . S
C387 O362 1.257 . S
C388 H363 0.930 . S
C388 C391 1.388 1_455 S
C388 C393 1.418 . S
C389 H384 0.930 . S
C389 C392 1.404 1_455 S
C389 C393 1.353 . S
N390 Co355 2.145 . S
N390 C391 1.397 . S
N390 C392 1.334 . S
C391 H372 0.929 . S
C391 C388 1.388 1_655 S
C391 N390 1.397 . S
C392 H373 0.929 . S
C392 C389 1.404 1_655 S
C392 N390 1.334 . S
C393 H385 0.930 . S
C393 C388 1.418 . S
C393 C389 1.353 . S
C394 H364 0.930 . S
C394 N395 1.330 . S
C394 C396 1.446 . S
N395 Co354 2.151 . S
N395 C394 1.330 . S
N395 C399 1.418 . S
C396 H375 0.929 . S
C396 C394 1.446 . S
C396 C397 1.332 . S
C397 H377 0.931 . S
C397 C396 1.332 . S
C397 C398 1.267 . S
C398 H366 0.929 . S
C398 C397 1.267 . S
C398 C399 1.251 . S
C399 H369 0.929 . S
C399 N395 1.418 . S
C399 C398 1.251 . S
C400 H367 0.930 . S
C400 C402 1.406 . S
C400 C405 1.261 . S
C401 H368 0.930 . S
C401 N403 1.325 . S
C401 C404 1.357 . S
C402 H370 0.928 . S
C402 C400 1.406 . S
C402 N403 1.261 . S
N403 Co354 2.214 . S
N403 C401 1.325 . S
N403 C402 1.261 . S
C404 H374 0.931 . S
C404 C401 1.357 . S
C404 C405 1.312 . S
C405 H376 0.930 . S
C405 C400 1.261 . S
C405 C404 1.312 . S
C406 O378 1.214 . S
C406 O386 1.234 . S
C407 H379 0.929 . S
C407 C410 1.391 . S
C407 C412 1.391 . S
C408 H380 0.929 . S
C408 C409 1.390 . S
C408 N411 1.391 . S
C409 H381 0.930 . S
C409 C408 1.390 . S
C409 C410 1.392 . S
C410 H382 0.929 . S
C410 C407 1.391 . S
C410 C409 1.392 . S
N411 Co355 2.257 . S
N411 C408 1.391 . S
N411 C412 1.388 . S
C412 H383 0.930 . S
C412 C407 1.391 . S
C412 N411 1.388 . S
Co413 O415 2.143 1_554 S
Co413 O421 2.074 . S
Co413 O424 2.093 1_554 S
Co413 O437 2.097 . S
Co413 N454 2.151 1_454 S
Co413 N462 2.214 . S
Co414 O415 2.160 . S
Co414 O420 2.058 . S
Co414 O430 2.057 . S
Co414 O445 2.037 . S
Co414 N449 2.145 . S
Co414 N470 2.257 . S
O415 Co413 2.143 1_556 S
O415 Co414 2.160 . S
C416 O417 1.278 . S
C416 O424 1.224 . S
O417 C416 1.278 . S
C418 O419 1.245 . S
C418 O430 1.232 . S
O419 C418 1.245 . S
O420 Co414 2.058 . S
O420 C446 1.269 . S
O421 Co413 2.074 . S
O421 C446 1.257 1_554 S
H422 C447 0.930 . S
H423 C453 0.930 . S
O424 Co413 2.093 1_556 S
O424 C416 1.224 . S
H425 C457 0.929 . S
H426 C459 0.930 1_655 S
H427 C460 0.930 . S
H428 C458 0.929 1_455 S
H429 C461 0.928 1_655 S
O430 Co414 2.057 . S
O430 C418 1.232 . S
H431 C450 0.929 . S
H432 C451 0.929 . S
H433 C463 0.931 . S
H434 C455 0.929 . S
H435 C464 0.930 . S
H436 C456 0.931 . S
O437 Co413 2.097 . S
O437 C465 1.214 . S
H438 C466 0.929 . S
H439 C467 0.929 . S
H440 C468 0.930 . S
H441 C469 0.929 . S
H442 C471 0.930 . S
H443 C448 0.930 . S
H444 C452 0.930 . S
O445 Co414 2.037 . S
O445 C465 1.234 1_556 S
C446 O420 1.269 . S
C446 O421 1.257 1_556 S
C447 H422 0.930 . S
C447 C450 1.388 1_545 S
C447 C452 1.418 . S
C448 H443 0.930 . S
C448 C451 1.404 1_545 S
C448 C452 1.353 . S
N449 Co414 2.145 . S
N449 C450 1.397 . S
N449 C451 1.334 . S
C450 H431 0.929 . S
C450 C447 1.388 1_565 S
C450 N449 1.397 . S
C451 H432 0.929 . S
C451 C448 1.404 1_565 S
C451 N449 1.334 . S
C452 H444 0.930 . S
C452 C447 1.418 . S
C452 C448 1.353 . S
C453 H423 0.930 . S
C453 N454 1.330 . S
C453 C455 1.446 . S
N454 Co413 2.151 1_656 S
N454 C453 1.330 . S
N454 C458 1.418 1_556 S
C455 H434 0.929 . S
C455 C453 1.446 . S
C455 C456 1.332 . S
C456 H436 0.931 . S
C456 C455 1.332 . S
C456 C457 1.267 1_556 S
C457 H425 0.929 . S
C457 C456 1.267 1_554 S
C457 C458 1.251 . S
C458 H428 0.929 1_655 S
C458 N454 1.418 1_554 S
C458 C457 1.251 . S
C459 H426 0.930 1_455 S
C459 C461 1.406 . S
C459 C464 1.261 . S
C460 H427 0.930 . S
C460 N462 1.325 . S
C460 C463 1.357 . S
C461 H429 0.928 1_455 S
C461 C459 1.406 . S
C461 N462 1.261 . S
N462 Co413 2.214 . S
N462 C460 1.325 . S
N462 C461 1.261 . S
C463 H433 0.931 . S
C463 C460 1.357 . S
C463 C464 1.312 . S
C464 H435 0.930 . S
C464 C459 1.261 . S
C464 C463 1.312 . S
C465 O437 1.214 . S
C465 O445 1.234 1_554 S
C466 H438 0.929 . S
C466 C469 1.391 . S
C466 C471 1.391 . S
C467 H439 0.929 . S
C467 C468 1.390 . S
C467 N470 1.391 . S
C468 H440 0.930 . S
C468 C467 1.390 . S
C468 C469 1.392 . S
C469 H441 0.929 . S
C469 C466 1.391 . S
C469 C468 1.392 . S
N470 Co414 2.257 . S
N470 C467 1.391 . S
N470 C471 1.388 . S
C471 H442 0.930 . S
C471 C466 1.391 . S
C471 N470 1.388 . S
Co472 O474 2.143 . S
Co472 O480 2.074 . S
Co472 O483 2.093 . S
Co472 O496 2.097 . S
Co472 N513 2.151 1_545 S
Co472 N521 2.214 . S
Co473 O474 2.160 . S
Co473 O479 2.058 . S
Co473 O489 2.057 . S
Co473 O504 2.037 . S
Co473 N508 2.145 . S
Co473 N529 2.257 . S
O474 Co472 2.143 . S
O474 Co473 2.160 . S
C475 O476 1.278 . S
C475 O483 1.224 . S
O476 C475 1.278 . S
C477 O478 1.245 . S
C477 O489 1.232 . S
O478 C477 1.245 . S
O479 Co473 2.058 . S
O479 C505 1.269 . S
O480 Co472 2.074 . S
O480 C505 1.257 . S
H481 C506 0.930 . S
H482 C512 0.930 . S
O483 Co472 2.093 . S
O483 C475 1.224 . S
H484 C516 0.929 . S
H485 C518 0.930 1_565 S
H486 C519 0.930 . S
H487 C517 0.929 1_545 S
H488 C520 0.928 1_565 S
O489 Co473 2.057 . S
O489 C477 1.232 . S
H490 C509 0.929 . S
H491 C510 0.929 . S
H492 C522 0.931 . S
H493 C514 0.929 . S
H494 C523 0.930 . S
H495 C515 0.931 . S
O496 Co472 2.097 . S
O496 C524 1.214 . S
H497 C525 0.929 . S
H498 C526 0.929 . S
H499 C527 0.930 . S
H500 C528 0.929 . S
H501 C530 0.930 . S
H502 C507 0.930 . S
H503 C511 0.930 . S
O504 Co473 2.037 . S
O504 C524 1.234 . S
C505 O479 1.269 . S
C505 O480 1.257 . S
C506 H481 0.930 . S
C506 C509 1.388 . S
C506 C511 1.418 . S
C507 H502 0.930 . S
C507 C510 1.404 . S
C507 C511 1.353 . S
N508 Co473 2.145 . S
N508 C509 1.397 . S
N508 C510 1.334 . S
C509 H490 0.929 . S
C509 C506 1.388 . S
C509 N508 1.397 . S
C510 H491 0.929 . S
C510 C507 1.404 . S
C510 N508 1.334 . S
C511 H503 0.930 . S
C511 C506 1.418 . S
C511 C507 1.353 . S
C512 H482 0.930 . S
C512 N513 1.330 . S
C512 C514 1.446 . S
N513 Co472 2.151 1_565 S
N513 C512 1.330 . S
N513 C517 1.418 . S
C514 H493 0.929 . S
C514 C512 1.446 . S
C514 C515 1.332 . S
C515 H495 0.931 . S
C515 C514 1.332 . S
C515 C516 1.267 . S
C516 H484 0.929 . S
C516 C515 1.267 . S
C516 C517 1.251 . S
C517 H487 0.929 1_565 S
C517 N513 1.418 . S
C517 C516 1.251 . S
C518 H485 0.930 1_545 S
C518 C520 1.406 . S
C518 C523 1.261 . S
C519 H486 0.930 . S
C519 N521 1.325 . S
C519 C522 1.357 . S
C520 H488 0.928 1_545 S
C520 C518 1.406 . S
C520 N521 1.261 . S
N521 Co472 2.214 . S
N521 C519 1.325 . S
N521 C520 1.261 . S
C522 H492 0.931 . S
C522 C519 1.357 . S
C522 C523 1.312 . S
C523 H494 0.930 . S
C523 C518 1.261 . S
C523 C522 1.312 . S
C524 O496 1.214 . S
C524 O504 1.234 . S
C525 H497 0.929 . S
C525 C528 1.391 . S
C525 C530 1.391 . S
C526 H498 0.929 . S
C526 C527 1.390 . S
C526 N529 1.391 . S
C527 H499 0.930 . S
C527 C526 1.390 . S
C527 C528 1.392 . S
C528 H500 0.929 . S
C528 C525 1.391 . S
C528 C527 1.392 . S
N529 Co473 2.257 . S
N529 C526 1.391 . S
N529 C530 1.388 . S
C530 H501 0.930 . S
C530 C525 1.391 . S
C530 N529 1.388 . S
Co531 O533 2.143 . S
Co531 O539 2.074 . S
Co531 O542 2.093 . S
Co531 O555 2.097 . S
Co531 N572 2.151 . S
Co531 N580 2.214 . S
Co532 O533 2.160 . S
Co532 O538 2.058 . S
Co532 O548 2.057 . S
Co532 O563 2.037 . S
Co532 N567 2.145 . S
Co532 N588 2.257 . S
O533 Co531 2.143 . S
O533 Co532 2.160 . S
C534 O535 1.278 . S
C534 O542 1.224 . S
O535 C534 1.278 . S
C536 O537 1.245 . S
C536 O548 1.232 . S
O537 C536 1.245 . S
O538 Co532 2.058 . S
O538 C564 1.269 . S
O539 Co531 2.074 . S
O539 C564 1.257 . S
H540 C565 0.930 . S
H541 C571 0.930 . S
O542 Co531 2.093 . S
O542 C534 1.224 . S
H543 C575 0.929 . S
H544 C577 0.930 . S
H545 C578 0.930 . S
H546 C576 0.929 . S
H547 C579 0.928 . S
O548 Co532 2.057 . S
O548 C536 1.232 . S
H549 C568 0.929 . S
H550 C569 0.929 . S
H551 C581 0.931 . S
H552 C573 0.929 . S
H553 C582 0.930 . S
H554 C574 0.931 . S
O555 Co531 2.097 . S
O555 C583 1.214 . S
H556 C584 0.929 . S
H557 C585 0.929 . S
H558 C586 0.930 . S
H559 C587 0.929 . S
H560 C589 0.930 . S
H561 C566 0.930 . S
H562 C570 0.930 . S
O563 Co532 2.037 . S
O563 C583 1.234 . S
C564 O538 1.269 . S
C564 O539 1.257 . S
C565 H540 0.930 . S
C565 C568 1.388 1_655 S
C565 C570 1.418 . S
C566 H561 0.930 . S
C566 C569 1.404 1_655 S
C566 C570 1.353 . S
N567 Co532 2.145 . S
N567 C568 1.397 . S
N567 C569 1.334 . S
C568 H549 0.929 . S
C568 C565 1.388 1_455 S
C568 N567 1.397 . S
C569 H550 0.929 . S
C569 C566 1.404 1_455 S
C569 N567 1.334 . S
C570 H562 0.930 . S
C570 C565 1.418 . S
C570 C566 1.353 . S
C571 H541 0.930 . S
C571 N572 1.330 . S
C571 C573 1.446 . S
N572 Co531 2.151 . S
N572 C571 1.330 . S
N572 C576 1.418 . S
C573 H552 0.929 . S
C573 C571 1.446 . S
C573 C574 1.332 . S
C574 H554 0.931 . S
C574 C573 1.332 . S
C574 C575 1.267 . S
C575 H543 0.929 . S
C575 C574 1.267 . S
C575 C576 1.251 . S
C576 H546 0.929 . S
C576 N572 1.418 . S
C576 C575 1.251 . S
C577 H544 0.930 . S
C577 C579 1.406 . S
C577 C582 1.261 . S
C578 H545 0.930 . S
C578 N580 1.325 . S
C578 C581 1.357 . S
C579 H547 0.928 . S
C579 C577 1.406 . S
C579 N580 1.261 . S
N580 Co531 2.214 . S
N580 C578 1.325 . S
N580 C579 1.261 . S
C581 H551 0.931 . S
C581 C578 1.357 . S
C581 C582 1.312 . S
C582 H553 0.930 . S
C582 C577 1.261 . S
C582 C581 1.312 . S
C583 O555 1.214 . S
C583 O563 1.234 . S
C584 H556 0.929 . S
C584 C587 1.391 . S
C584 C589 1.391 . S
C585 H557 0.929 . S
C585 C586 1.390 . S
C585 N588 1.391 . S
C586 H558 0.930 . S
C586 C585 1.390 . S
C586 C587 1.392 . S
C587 H559 0.929 . S
C587 C584 1.391 . S
C587 C586 1.392 . S
N588 Co532 2.257 . S
N588 C585 1.391 . S
N588 C589 1.388 . S
C589 H560 0.930 . S
C589 C584 1.391 . S
C589 N588 1.388 . S
Co590 O592 2.143 1_554 S
Co590 O598 2.074 . S
Co590 O601 2.093 1_554 S
Co590 O614 2.097 . S
Co590 N631 2.151 1_654 S
Co590 N639 2.214 . S
Co591 O592 2.160 . S
Co591 O597 2.058 . S
Co591 O607 2.057 . S
Co591 O622 2.037 . S
Co591 N626 2.145 . S
Co591 N647 2.257 . S
O592 Co590 2.143 1_556 S
O592 Co591 2.160 . S
C593 O594 1.278 . S
C593 O601 1.224 . S
O594 C593 1.278 . S
C595 O596 1.245 . S
C595 O607 1.232 . S
O596 C595 1.245 . S
O597 Co591 2.058 . S
O597 C623 1.269 . S
O598 Co590 2.074 . S
O598 C623 1.257 1_554 S
H599 C624 0.930 . S
H600 C630 0.930 . S
O601 Co590 2.093 1_556 S
O601 C593 1.224 . S
H602 C634 0.929 . S
H603 C636 0.930 1_455 S
H604 C637 0.930 . S
H605 C635 0.929 1_655 S
H606 C638 0.928 1_455 S
O607 Co591 2.057 . S
O607 C595 1.232 . S
H608 C627 0.929 . S
H609 C628 0.929 . S
H610 C640 0.931 . S
H611 C632 0.929 . S
H612 C641 0.930 . S
H613 C633 0.931 . S
O614 Co590 2.097 . S
O614 C642 1.214 . S
H615 C643 0.929 . S
H616 C644 0.929 . S
H617 C645 0.930 . S
H618 C646 0.929 . S
H619 C648 0.930 . S
H620 C625 0.930 . S
H621 C629 0.930 . S
O622 Co591 2.037 . S
O622 C642 1.234 1_556 S
C623 O597 1.269 . S
C623 O598 1.257 1_556 S
C624 H599 0.930 . S
C624 C627 1.388 1_565 S
C624 C629 1.418 . S
C625 H620 0.930 . S
C625 C628 1.404 1_565 S
C625 C629 1.353 . S
N626 Co591 2.145 . S
N626 C627 1.397 . S
N626 C628 1.334 . S
C627 H608 0.929 . S
C627 C624 1.388 1_545 S
C627 N626 1.397 . S
C628 H609 0.929 . S
C628 C625 1.404 1_545 S
C628 N626 1.334 . S
C629 H621 0.930 . S
C629 C624 1.418 . S
C629 C625 1.353 . S
C630 H600 0.930 . S
C630 N631 1.330 . S
C630 C632 1.446 . S
N631 Co590 2.151 1_456 S
N631 C630 1.330 . S
N631 C635 1.418 1_556 S
C632 H611 0.929 . S
C632 C630 1.446 . S
C632 C633 1.332 . S
C633 H613 0.931 . S
C633 C632 1.332 . S
C633 C634 1.267 1_556 S
C634 H602 0.929 . S
C634 C633 1.267 1_554 S
C634 C635 1.251 . S
C635 H605 0.929 1_455 S
C635 N631 1.418 1_554 S
C635 C634 1.251 . S
C636 H603 0.930 1_655 S
C636 C638 1.406 . S
C636 C641 1.261 . S
C637 H604 0.930 . S
C637 N639 1.325 . S
C637 C640 1.357 . S
C638 H606 0.928 1_655 S
C638 C636 1.406 . S
C638 N639 1.261 . S
N639 Co590 2.214 . S
N639 C637 1.325 . S
N639 C638 1.261 . S
C640 H610 0.931 . S
C640 C637 1.357 . S
C640 C641 1.312 . S
C641 H612 0.930 . S
C641 C636 1.261 . S
C641 C640 1.312 . S
C642 O614 1.214 . S
C642 O622 1.234 1_554 S
C643 H615 0.929 . S
C643 C646 1.391 . S
C643 C648 1.391 . S
C644 H616 0.929 . S
C644 C645 1.390 . S
C644 N647 1.391 . S
C645 H617 0.930 . S
C645 C644 1.390 . S
C645 C646 1.392 . S
C646 H618 0.929 . S
C646 C643 1.391 . S
C646 C645 1.392 . S
N647 Co591 2.257 . S
N647 C644 1.391 . S
N647 C648 1.388 . S
C648 H619 0.930 . S
C648 C643 1.391 . S
C648 N647 1.388 . S
Co649 O651 2.143 . S
Co649 O657 2.074 . S
Co649 O660 2.093 . S
Co649 O673 2.097 . S
Co649 N690 2.151 1_565 S
Co649 N698 2.214 . S
Co650 O651 2.160 . S
Co650 O656 2.058 . S
Co650 O666 2.057 . S
Co650 O681 2.037 . S
Co650 N685 2.145 . S
Co650 N706 2.257 . S
O651 Co649 2.143 . S
O651 Co650 2.160 . S
C652 O653 1.278 . S
C652 O660 1.224 . S
O653 C652 1.278 . S
C654 O655 1.245 . S
C654 O666 1.232 . S
O655 C654 1.245 . S
O656 Co650 2.058 . S
O656 C682 1.269 . S
O657 Co649 2.074 . S
O657 C682 1.257 . S
H658 C683 0.930 . S
H659 C689 0.930 . S
O660 Co649 2.093 . S
O660 C652 1.224 . S
H661 C693 0.929 . S
H662 C695 0.930 1_545 S
H663 C696 0.930 . S
H664 C694 0.929 1_565 S
H665 C697 0.928 1_545 S
O666 Co650 2.057 . S
O666 C654 1.232 . S
H667 C686 0.929 . S
H668 C687 0.929 . S
H669 C699 0.931 . S
H670 C691 0.929 . S
H671 C700 0.930 . S
H672 C692 0.931 . S
O673 Co649 2.097 . S
O673 C701 1.214 . S
H674 C702 0.929 . S
H675 C703 0.929 . S
H676 C704 0.930 . S
H677 C705 0.929 . S
H678 C707 0.930 . S
H679 C684 0.930 . S
H680 C688 0.930 . S
O681 Co650 2.037 . S
O681 C701 1.234 . S
C682 O656 1.269 . S
C682 O657 1.257 . S
C683 H658 0.930 . S
C683 C686 1.388 . S
C683 C688 1.418 . S
C684 H679 0.930 . S
C684 C687 1.404 . S
C684 C688 1.353 . S
N685 Co650 2.145 . S
N685 C686 1.397 . S
N685 C687 1.334 . S
C686 H667 0.929 . S
C686 C683 1.388 . S
C686 N685 1.397 . S
C687 H668 0.929 . S
C687 C684 1.404 . S
C687 N685 1.334 . S
C688 H680 0.930 . S
C688 C683 1.418 . S
C688 C684 1.353 . S
C689 H659 0.930 . S
C689 N690 1.330 . S
C689 C691 1.446 . S
N690 Co649 2.151 1_545 S
N690 C689 1.330 . S
N690 C694 1.418 . S
C691 H670 0.929 . S
C691 C689 1.446 . S
C691 C692 1.332 . S
C692 H672 0.931 . S
C692 C691 1.332 . S
C692 C693 1.267 . S
C693 H661 0.929 . S
C693 C692 1.267 . S
C693 C694 1.251 . S
C694 H664 0.929 1_545 S
C694 N690 1.418 . S
C694 C693 1.251 . S
C695 H662 0.930 1_565 S
C695 C697 1.406 . S
C695 C700 1.261 . S
C696 H663 0.930 . S
C696 N698 1.325 . S
C696 C699 1.357 . S
C697 H665 0.928 1_565 S
C697 C695 1.406 . S
C697 N698 1.261 . S
N698 Co649 2.214 . S
N698 C696 1.325 . S
N698 C697 1.261 . S
C699 H669 0.931 . S
C699 C696 1.357 . S
C699 C700 1.312 . S
C700 H671 0.930 . S
C700 C695 1.261 . S
C700 C699 1.312 . S
C701 O673 1.214 . S
C701 O681 1.234 . S
C702 H674 0.929 . S
C702 C705 1.391 . S
C702 C707 1.391 . S
C703 H675 0.929 . S
C703 C704 1.390 . S
C703 N706 1.391 . S
C704 H676 0.930 . S
C704 C703 1.390 . S
C704 C705 1.392 . S
C705 H677 0.929 . S
C705 C702 1.391 . S
C705 C704 1.392 . S
N706 Co650 2.257 . S
N706 C703 1.391 . S
N706 C707 1.388 . S
C707 H678 0.930 . S
C707 C702 1.391 . S
C707 N706 1.388 . S
C446 C33 1.624 1_566 S
C92 C505 1.625 . S
C151 C564 1.624 1_655 S
C210 C623 1.624 1_564 S
C682 C269 1.625 . S
C387 C328 1.625 1_655 S
C642 C52 2.304 1_554 S
C111 C701 2.304 . S
C170 C406 2.304 . S
C465 C229 2.304 1_554 S
C524 C288 2.304 . S
C583 C347 2.304 . S
C5 C477 1.867 . S
C64 C536 1.867 . S
C595 C123 1.867 . S
C182 C654 1.867 . S
C359 C241 1.868 . S
C418 C300 1.868 . S
C180 C3 1.307 . S
C239 C62 1.308 1_655 S
C121 C298 1.307 1_545 S
C357 C534 1.308 . S
C416 C593 1.307 1_455 S
C652 C475 1.307 1_565 S
